# Generated by pormake.
# Topology eea, (3,6)-cn, num edge types: 1
# Building blocks:
#     Node 0, Type 0, BuildingBlock: VETTIZ_charged_linker_0, # of connection points: 3
#     Node 1, Type 0, BuildingBlock: VETTIZ_charged_linker_0, # of connection points: 3
#     Node 2, Type 0, BuildingBlock: VETTIZ_charged_linker_0, # of connection points: 3
#     Node 3, Type 0, BuildingBlock: VETTIZ_charged_linker_0, # of connection points: 3
#     Node 4, Type 0, BuildingBlock: VETTIZ_charged_linker_0, # of connection points: 3
#     Node 5, Type 0, BuildingBlock: VETTIZ_charged_linker_0, # of connection points: 3
#     Node 6, Type 0, BuildingBlock: VETTIZ_charged_linker_0, # of connection points: 3
#     Node 7, Type 0, BuildingBlock: VETTIZ_charged_linker_0, # of connection points: 3
#     Node 8, Type 0, BuildingBlock: VETTIZ_charged_linker_0, # of connection points: 3
#     Node 9, Type 0, BuildingBlock: VETTIZ_charged_linker_0, # of connection points: 3
#     Node 10, Type 0, BuildingBlock: VETTIZ_charged_linker_0, # of connection points: 3
#     Node 11, Type 0, BuildingBlock: VETTIZ_charged_linker_0, # of connection points: 3
#     Node 12, Type 0, BuildingBlock: VETTIZ_charged_linker_0, # of connection points: 3
#     Node 13, Type 0, BuildingBlock: VETTIZ_charged_linker_0, # of connection points: 3
#     Node 14, Type 0, BuildingBlock: VETTIZ_charged_linker_0, # of connection points: 3
#     Node 15, Type 0, BuildingBlock: VETTIZ_charged_linker_0, # of connection points: 3
#     Node 16, Type 0, BuildingBlock: VETTIZ_charged_linker_0, # of connection points: 3
#     Node 17, Type 0, BuildingBlock: VETTIZ_charged_linker_0, # of connection points: 3
#     Node 18, Type 1, BuildingBlock: KUMJIN_clean_sbu_0, # of connection points: 6
#     Node 19, Type 1, BuildingBlock: KUMJIN_clean_sbu_0, # of connection points: 6
#     Node 20, Type 1, BuildingBlock: KUMJIN_clean_sbu_0, # of connection points: 6
#     Node 21, Type 1, BuildingBlock: KUMJIN_clean_sbu_0, # of connection points: 6
#     Node 22, Type 1, BuildingBlock: KUMJIN_clean_sbu_0, # of connection points: 6
#     Node 23, Type 1, BuildingBlock: KUMJIN_clean_sbu_0, # of connection points: 6
#     Node 24, Type 1, BuildingBlock: KUMJIN_clean_sbu_0, # of connection points: 6
#     Node 25, Type 1, BuildingBlock: KUMJIN_clean_sbu_0, # of connection points: 6
#     Node 26, Type 1, BuildingBlock: KUMJIN_clean_sbu_0, # of connection points: 6
#     Edge 27, Type (0, 1), BuildingBlock: TEMPAE_clean_linker_10, # of connection points: 2
#     Edge 28, Type (0, 1), BuildingBlock: TEMPAE_clean_linker_10, # of connection points: 2
#     Edge 29, Type (0, 1), BuildingBlock: TEMPAE_clean_linker_10, # of connection points: 2
#     Edge 30, Type (0, 1), BuildingBlock: TEMPAE_clean_linker_10, # of connection points: 2
#     Edge 31, Type (0, 1), BuildingBlock: TEMPAE_clean_linker_10, # of connection points: 2
#     Edge 32, Type (0, 1), BuildingBlock: TEMPAE_clean_linker_10, # of connection points: 2
#     Edge 33, Type (0, 1), BuildingBlock: TEMPAE_clean_linker_10, # of connection points: 2
#     Edge 34, Type (0, 1), BuildingBlock: TEMPAE_clean_linker_10, # of connection points: 2
#     Edge 35, Type (0, 1), BuildingBlock: TEMPAE_clean_linker_10, # of connection points: 2
#     Edge 36, Type (0, 1), BuildingBlock: TEMPAE_clean_linker_10, # of connection points: 2
#     Edge 37, Type (0, 1), BuildingBlock: TEMPAE_clean_linker_10, # of connection points: 2
#     Edge 38, Type (0, 1), BuildingBlock: TEMPAE_clean_linker_10, # of connection points: 2
#     Edge 39, Type (0, 1), BuildingBlock: TEMPAE_clean_linker_10, # of connection points: 2
#     Edge 40, Type (0, 1), BuildingBlock: TEMPAE_clean_linker_10, # of connection points: 2
#     Edge 41, Type (0, 1), BuildingBlock: TEMPAE_clean_linker_10, # of connection points: 2
#     Edge 42, Type (0, 1), BuildingBlock: TEMPAE_clean_linker_10, # of connection points: 2
#     Edge 43, Type (0, 1), BuildingBlock: TEMPAE_clean_linker_10, # of connection points: 2
#     Edge 44, Type (0, 1), BuildingBlock: TEMPAE_clean_linker_10, # of connection points: 2
#     Edge 45, Type (0, 1), BuildingBlock: TEMPAE_clean_linker_10, # of connection points: 2
#     Edge 46, Type (0, 1), BuildingBlock: TEMPAE_clean_linker_10, # of connection points: 2
#     Edge 47, Type (0, 1), BuildingBlock: TEMPAE_clean_linker_10, # of connection points: 2
#     Edge 48, Type (0, 1), BuildingBlock: TEMPAE_clean_linker_10, # of connection points: 2
#     Edge 49, Type (0, 1), BuildingBlock: TEMPAE_clean_linker_10, # of connection points: 2
#     Edge 50, Type (0, 1), BuildingBlock: TEMPAE_clean_linker_10, # of connection points: 2
#     Edge 51, Type (0, 1), BuildingBlock: TEMPAE_clean_linker_10, # of connection points: 2
#     Edge 52, Type (0, 1), BuildingBlock: TEMPAE_clean_linker_10, # of connection points: 2
#     Edge 53, Type (0, 1), BuildingBlock: TEMPAE_clean_linker_10, # of connection points: 2
#     Edge 54, Type (0, 1), BuildingBlock: TEMPAE_clean_linker_10, # of connection points: 2
#     Edge 55, Type (0, 1), BuildingBlock: TEMPAE_clean_linker_10, # of connection points: 2
#     Edge 56, Type (0, 1), BuildingBlock: TEMPAE_clean_linker_10, # of connection points: 2
#     Edge 57, Type (0, 1), BuildingBlock: TEMPAE_clean_linker_10, # of connection points: 2
#     Edge 58, Type (0, 1), BuildingBlock: TEMPAE_clean_linker_10, # of connection points: 2
#     Edge 59, Type (0, 1), BuildingBlock: TEMPAE_clean_linker_10, # of connection points: 2
#     Edge 60, Type (0, 1), BuildingBlock: TEMPAE_clean_linker_10, # of connection points: 2
#     Edge 61, Type (0, 1), BuildingBlock: TEMPAE_clean_linker_10, # of connection points: 2
#     Edge 62, Type (0, 1), BuildingBlock: TEMPAE_clean_linker_10, # of connection points: 2
#     Edge 63, Type (0, 1), BuildingBlock: TEMPAE_clean_linker_10, # of connection points: 2
#     Edge 64, Type (0, 1), BuildingBlock: TEMPAE_clean_linker_10, # of connection points: 2
#     Edge 65, Type (0, 1), BuildingBlock: TEMPAE_clean_linker_10, # of connection points: 2
#     Edge 66, Type (0, 1), BuildingBlock: TEMPAE_clean_linker_10, # of connection points: 2
#     Edge 67, Type (0, 1), BuildingBlock: TEMPAE_clean_linker_10, # of connection points: 2
#     Edge 68, Type (0, 1), BuildingBlock: TEMPAE_clean_linker_10, # of connection points: 2
#     Edge 69, Type (0, 1), BuildingBlock: TEMPAE_clean_linker_10, # of connection points: 2
#     Edge 70, Type (0, 1), BuildingBlock: TEMPAE_clean_linker_10, # of connection points: 2
#     Edge 71, Type (0, 1), BuildingBlock: TEMPAE_clean_linker_10, # of connection points: 2
#     Edge 72, Type (0, 1), BuildingBlock: TEMPAE_clean_linker_10, # of connection points: 2
#     Edge 73, Type (0, 1), BuildingBlock: TEMPAE_clean_linker_10, # of connection points: 2
#     Edge 74, Type (0, 1), BuildingBlock: TEMPAE_clean_linker_10, # of connection points: 2
#     Edge 75, Type (0, 1), BuildingBlock: TEMPAE_clean_linker_10, # of connection points: 2
#     Edge 76, Type (0, 1), BuildingBlock: TEMPAE_clean_linker_10, # of connection points: 2
#     Edge 77, Type (0, 1), BuildingBlock: TEMPAE_clean_linker_10, # of connection points: 2
#     Edge 78, Type (0, 1), BuildingBlock: TEMPAE_clean_linker_10, # of connection points: 2
#     Edge 79, Type (0, 1), BuildingBlock: TEMPAE_clean_linker_10, # of connection points: 2
#     Edge 80, Type (0, 1), BuildingBlock: TEMPAE_clean_linker_10, # of connection points: 2
# Relax obj value: 0.010
# Max RMSD: 0.096
# Mean RMSD: 0.061
data_MOF--net-eea--node1-KUMJIN_clean_sbu_0--node2-VETTIZ_charged_linker_0--edge1-TEMPAE_clean_linker_10
_symmetry_space_group_name_H-M    P1
_symmetry_Int_Tables_number       1
_symmetry_cell_setting            triclinic
loop_
_symmetry_equiv_pos_as_xyz
'x, y, z'
_cell_length_a     62.629319
_cell_length_b     63.854276
_cell_length_c     89.636124
_cell_angle_alpha  90.191234
_cell_angle_beta   90.183242
_cell_angle_gamma 119.95231
loop_
_atom_site_label
_atom_site_type_symbol
_atom_site_fract_x
_atom_site_fract_y
_atom_site_fract_z
_atom_type_partial_charge
C0 C 0.21617 0.16682 0.39692 0.0
C1 C 0.21993 0.18844 0.4035 0.0
C2 C 0.23016 0.19463 0.41796 0.0
C3 C 0.23267 0.15801 0.41908 0.0
C4 C 0.22247 0.15183 0.40493 0.0
C5 C 0.21878 0.12771 0.39988 0.0
H6 H 0.23017 0.02949 0.41433 0.0
C7 C 0.23692 0.13851 0.42442 0.0
C8 C 0.22866 0.1206 0.41326 0.0
H9 H 0.19904 0.04321 0.375 0.0
H10 H 0.20698 0.08144 0.38543 0.0
H11 H 0.27647 0.08384 0.41767 0.0
H12 H 0.20452 0.04632 0.43742 0.0
H13 H 0.22464 0.06496 0.45148 0.0
H14 H 0.22908 0.04148 0.4434 0.0
H15 H 0.26794 0.06057 0.43135 0.0
H16 H 0.28013 0.09176 0.43667 0.0
C17 C 0.23464 0.13181 0.38581 0.0
C18 C 0.19081 0.11032 0.39746 0.0
C19 C 0.27689 0.14604 0.47517 0.0
C20 C 0.28279 0.13066 0.48316 0.0
C21 C 0.27743 0.10836 0.47677 0.0
C22 C 0.26646 0.10148 0.46263 0.0
C23 C 0.26067 0.11701 0.45477 0.0
C24 C 0.26578 0.13882 0.46107 0.0
C25 C 0.25781 0.15271 0.45118 0.0
C26 C 0.24732 0.13572 0.43786 0.0
C27 C 0.24915 0.11493 0.44002 0.0
C28 C 0.28103 0.17684 0.44701 0.0
C29 C 0.23774 0.15562 0.45948 0.0
C30 C 0.22528 0.04083 0.4079 0.0
C31 C 0.21405 0.03337 0.3938 0.0
C32 C 0.20754 0.04848 0.38593 0.0
C33 C 0.21226 0.07071 0.39199 0.0
C34 C 0.2235 0.07789 0.40612 0.0
C35 C 0.22973 0.06297 0.41381 0.0
C36 C 0.24112 0.0732 0.42877 0.0
C37 C 0.24074 0.09676 0.42881 0.0
C38 C 0.23051 0.09952 0.4155 0.0
C39 C 0.26776 0.07749 0.42878 0.0
C40 C 0.2242 0.05563 0.44098 0.0
H41 H 0.24437 0.18538 0.43669 0.0
H42 H 0.20803 0.16146 0.38589 0.0
H43 H 0.17978 0.11421 0.40555 0.0
H44 H 0.18528 0.0912 0.39941 0.0
H45 H 0.18498 0.11216 0.38606 0.0
H46 H 0.25292 0.14849 0.38704 0.0
H47 H 0.22552 0.13391 0.37574 0.0
H48 H 0.23877 0.11715 0.38379 0.0
H49 H 0.28052 0.16316 0.47988 0.0
H50 H 0.28204 0.09633 0.48264 0.0
H51 H 0.26296 0.08432 0.45839 0.0
H52 H 0.29684 0.17398 0.44473 0.0
H53 H 0.28655 0.19022 0.45625 0.0
H54 H 0.27864 0.18493 0.43673 0.0
H55 H 0.22686 0.14011 0.46705 0.0
H56 H 0.2239 0.15571 0.45184 0.0
H57 H 0.24607 0.17235 0.46639 0.0
H58 H 0.23338 0.21129 0.4232 0.0
C59 C 0.23661 0.1796 0.42575 0.0
C60 C 0.95798 0.17099 0.39343 0.0
C61 C 0.97898 0.19078 0.39998 0.0
C62 C 0.97884 0.19389 0.41566 0.0
C63 C 0.93748 0.15958 0.41746 0.0
C64 C 0.93797 0.15542 0.40238 0.0
C65 C 0.91573 0.13217 0.39742 0.0
H66 H 0.80749 0.03257 0.41486 0.0
C67 C 0.91397 0.14019 0.42354 0.0
C68 C 0.90143 0.12369 0.41191 0.0
H69 H 0.8461 0.0494 0.3728 0.0
H70 H 0.87783 0.08752 0.38288 0.0
H71 H 0.85469 0.04972 0.4357 0.0
H72 H 0.81549 0.08492 0.42051 0.0
H73 H 0.82518 0.09551 0.43873 0.0
H74 H 0.80442 0.06367 0.43553 0.0
H75 H 0.82471 0.04217 0.44239 0.0
H76 H 0.85243 0.06578 0.451 0.0
C77 C 0.92456 0.11471 0.39187 0.0
C78 C 0.90162 0.13816 0.38555 0.0
C79 C 0.88702 0.14716 0.47617 0.0
C80 C 0.86536 0.13245 0.4843 0.0
C81 C 0.84751 0.11021 0.47799 0.0
C82 C 0.8506 0.10315 0.46375 0.0
C83 C 0.87184 0.11834 0.45559 0.0
C84 C 0.88984 0.13978 0.46186 0.0
C85 C 0.91148 0.15318 0.45153 0.0
C86 C 0.90276 0.13682 0.4378 0.0
C87 C 0.87958 0.11643 0.44033 0.0
C88 C 0.93451 0.15426 0.45882 0.0
C89 C 0.91448 0.17828 0.4483 0.0
C90 C 0.82289 0.04433 0.40785 0.0
C91 C 0.82431 0.0378 0.39304 0.0
C92 C 0.84442 0.054 0.38422 0.0
C93 C 0.86298 0.07604 0.39013 0.0
C94 C 0.86154 0.08201 0.40506 0.0
C95 C 0.84161 0.06633 0.4136 0.0
C96 C 0.84292 0.07572 0.42917 0.0
C97 C 0.86739 0.0992 0.42876 0.0
C98 C 0.87819 0.10286 0.41461 0.0
C99 C 0.84356 0.05744 0.44024 0.0
C100 C 0.82085 0.08009 0.43125 0.0
H101 H 0.95928 0.18233 0.43606 0.0
H102 H 0.95676 0.16738 0.38159 0.0
H103 H 0.90037 0.15425 0.38903 0.0
H104 H 0.88243 0.12347 0.38393 0.0
H105 H 0.91118 0.14226 0.37463 0.0
H106 H 0.94218 0.11868 0.39734 0.0
H107 H 0.92768 0.11623 0.37964 0.0
H108 H 0.91158 0.09565 0.3947 0.0
H109 H 0.90118 0.16428 0.48068 0.0
H110 H 0.831 0.09816 0.48411 0.0
H111 H 0.83618 0.08612 0.45963 0.0
H112 H 0.92932 0.13961 0.46714 0.0
H113 H 0.94603 0.17174 0.46471 0.0
H114 H 0.94599 0.15142 0.4506 0.0
H115 H 0.89652 0.17642 0.44487 0.0
H116 H 0.92748 0.18784 0.43918 0.0
H117 H 0.92107 0.19 0.45839 0.0
H118 H 0.99474 0.20781 0.42151 0.0
C119 C 0.95821 0.17873 0.4243 0.0
C120 C 0.95188 0.78716 0.39209 0.0
C121 C 0.9734 0.78931 0.39883 0.0
C122 C 0.97349 0.78729 0.41459 0.0
C123 C 0.93159 0.77984 0.41618 0.0
C124 C 0.93169 0.78314 0.40097 0.0
C125 C 0.90863 0.7829 0.39575 0.0
H126 H 0.80438 0.78439 0.41371 0.0
C127 C 0.90793 0.77607 0.4222 0.0
C128 C 0.89465 0.77857 0.41033 0.0
H129 H 0.83389 0.7869 0.36959 0.0
H130 H 0.86634 0.78241 0.38034 0.0
H131 H 0.8066 0.73846 0.42152 0.0
H132 H 0.85504 0.81273 0.43348 0.0
H133 H 0.84824 0.79447 0.44954 0.0
H134 H 0.8236 0.79485 0.43942 0.0
H135 H 0.80117 0.75149 0.43777 0.0
H136 H 0.82016 0.73757 0.43848 0.0
C137 C 0.89483 0.76162 0.38464 0.0
C138 C 0.91637 0.80804 0.38912 0.0
C139 C 0.88325 0.74749 0.47575 0.0
C140 C 0.86197 0.7416 0.48415 0.0
C141 C 0.84407 0.74631 0.47789 0.0
C142 C 0.84676 0.75571 0.46345 0.0
C143 C 0.86755 0.7605 0.45501 0.0
C144 C 0.88562 0.75683 0.46126 0.0
C145 C 0.90681 0.76371 0.45069 0.0
C146 C 0.89746 0.77021 0.43673 0.0
C147 C 0.87456 0.76852 0.43939 0.0
C148 C 0.90983 0.74137 0.44811 0.0
C149 C 0.9301 0.78587 0.45731 0.0
C150 C 0.81757 0.78394 0.40618 0.0
C151 C 0.81652 0.78714 0.39063 0.0
C152 C 0.83445 0.78593 0.38161 0.0
C153 C 0.85336 0.78299 0.38786 0.0
C154 C 0.8544 0.7806 0.40336 0.0
C155 C 0.83615 0.78016 0.41218 0.0
C156 C 0.83831 0.77405 0.42815 0.0
C157 C 0.86188 0.77271 0.42761 0.0
C158 C 0.87151 0.77702 0.41308 0.0
C159 C 0.8154 0.74923 0.43179 0.0
C160 C 0.84134 0.79502 0.43828 0.0
H161 H 0.95407 0.78063 0.43499 0.0
H162 H 0.95042 0.78847 0.38016 0.0
H163 H 0.93063 0.82263 0.39628 0.0
H164 H 0.90114 0.81195 0.38845 0.0
H165 H 0.92429 0.80988 0.37781 0.0
H166 H 0.89728 0.74608 0.38771 0.0
H167 H 0.9018 0.76706 0.37311 0.0
H168 H 0.87468 0.75428 0.38469 0.0
H169 H 0.89746 0.74428 0.48017 0.0
H170 H 0.82785 0.74268 0.48417 0.0
H171 H 0.83244 0.75878 0.45937 0.0
H172 H 0.8918 0.72532 0.44515 0.0
H173 H 0.91689 0.73704 0.45834 0.0
H174 H 0.92252 0.74385 0.43891 0.0
H175 H 0.92533 0.79556 0.46583 0.0
H176 H 0.94059 0.79967 0.44873 0.0
H177 H 0.9425 0.7804 0.46277 0.0
H178 H 0.98967 0.78995 0.42055 0.0
C179 C 0.95276 0.78224 0.42316 0.0
C180 C 0.16506 0.20372 0.61362 0.0
C181 C 0.18809 0.20911 0.60769 0.0
C182 C 0.19464 0.22004 0.59349 0.0
C183 C 0.1559 0.21993 0.5915 0.0
C184 C 0.14945 0.2094 0.60543 0.0
C185 C 0.1248 0.20565 0.61035 0.0
H186 H 0.02618 0.22027 0.59753 0.0
C187 C 0.13579 0.22384 0.58603 0.0
C188 C 0.11754 0.21562 0.59709 0.0
H189 H 0.04037 0.18792 0.63587 0.0
H190 H 0.07811 0.19433 0.62477 0.0
H191 H 0.08164 0.2637 0.593 0.0
H192 H 0.04179 0.1926 0.5733 0.0
H193 H 0.05954 0.21271 0.55918 0.0
H194 H 0.03587 0.21638 0.56818 0.0
H195 H 0.05689 0.25524 0.57988 0.0
H196 H 0.08811 0.26639 0.5738 0.0
C197 C 0.1289 0.22088 0.62468 0.0
C198 C 0.10707 0.17818 0.6123 0.0
C199 C 0.14209 0.26086 0.53475 0.0
C200 C 0.12674 0.2672 0.52676 0.0
C201 C 0.10447 0.26285 0.53337 0.0
C202 C 0.09766 0.25253 0.54761 0.0
C203 C 0.11324 0.24643 0.55547 0.0
C204 C 0.13504 0.25062 0.54901 0.0
C205 C 0.1495 0.24336 0.5591 0.0
C206 C 0.13264 0.23379 0.57257 0.0
C207 C 0.11141 0.23566 0.57039 0.0
C208 C 0.17434 0.2663 0.56297 0.0
C209 C 0.15211 0.2232 0.55115 0.0
C210 C 0.03724 0.21433 0.6035 0.0
C211 C 0.03017 0.20377 0.61775 0.0
C212 C 0.04545 0.19658 0.62508 0.0
C213 C 0.06738 0.20018 0.61855 0.0
C214 C 0.07433 0.21108 0.60446 0.0
C215 C 0.05919 0.2177 0.5971 0.0
C216 C 0.06925 0.22851 0.58205 0.0
C217 C 0.09309 0.22767 0.5817 0.0
C218 C 0.09604 0.21753 0.59491 0.0
C219 C 0.07414 0.2548 0.58202 0.0
C220 C 0.0507 0.21192 0.56996 0.0
H221 H 0.18493 0.23368 0.57471 0.0
H222 H 0.15916 0.19517 0.62439 0.0
H223 H 0.11073 0.16764 0.60379 0.0
H224 H 0.08753 0.17288 0.61063 0.0
H225 H 0.10934 0.17206 0.62348 0.0
H226 H 0.14643 0.23845 0.62402 0.0
H227 H 0.13 0.21127 0.6347 0.0
H228 H 0.11452 0.22579 0.62642 0.0
H229 H 0.15948 0.26423 0.53014 0.0
H230 H 0.09213 0.26726 0.52746 0.0
H231 H 0.08051 0.24976 0.55196 0.0
H232 H 0.17233 0.28266 0.56325 0.0
H233 H 0.18866 0.26947 0.55459 0.0
H234 H 0.18126 0.26559 0.57421 0.0
H235 H 0.13459 0.21025 0.54542 0.0
H236 H 0.15599 0.21211 0.5589 0.0
H237 H 0.16682 0.2309 0.54258 0.0
H238 H 0.21237 0.225 0.58869 0.0
C239 C 0.17872 0.22534 0.58539 0.0
C240 C 0.77726 0.82824 0.61289 0.0
C241 C 0.77564 0.80768 0.60602 0.0
C242 C 0.76781 0.80248 0.59103 0.0
C243 C 0.76421 0.83847 0.58986 0.0
C244 C 0.77158 0.84337 0.60461 0.0
C245 C 0.77339 0.86652 0.61001 0.0
H246 H 0.76873 0.96777 0.59487 0.0
C247 C 0.76063 0.85825 0.5843 0.0
C248 C 0.76597 0.87474 0.59604 0.0
H249 H 0.78707 0.94666 0.63663 0.0
H250 H 0.77907 0.90893 0.62567 0.0
H251 H 0.79758 0.94933 0.57365 0.0
H252 H 0.72165 0.91524 0.58738 0.0
H253 H 0.72196 0.90796 0.5685 0.0
H254 H 0.73421 0.93915 0.57394 0.0
H255 H 0.77688 0.95931 0.56739 0.0
H256 H 0.77882 0.93539 0.55793 0.0
C257 C 0.80057 0.88408 0.61453 0.0
C258 C 0.75454 0.86035 0.62276 0.0
C259 C 0.7359 0.85749 0.53034 0.0
C260 C 0.73187 0.87349 0.52167 0.0
C261 C 0.73417 0.8945 0.52843 0.0
C262 C 0.74078 0.89963 0.54354 0.0
C263 C 0.74509 0.88357 0.55199 0.0
C264 C 0.74246 0.86284 0.54535 0.0
C265 C 0.74766 0.84775 0.55594 0.0
C266 C 0.75384 0.86278 0.57008 0.0
C267 C 0.75241 0.88378 0.56772 0.0
C268 C 0.77011 0.84629 0.54995 0.0
C269 C 0.72378 0.82297 0.55761 0.0
C270 C 0.77112 0.95502 0.6016 0.0
C271 C 0.77867 0.96023 0.61661 0.0
C272 C 0.78111 0.94299 0.62509 0.0
C273 C 0.77661 0.92115 0.61867 0.0
C274 C 0.76965 0.91644 0.60357 0.0
C275 C 0.76666 0.93307 0.59535 0.0
C276 C 0.75876 0.92474 0.57953 0.0
C277 C 0.75799 0.90059 0.57957 0.0
C278 C 0.76452 0.89595 0.59367 0.0
C279 C 0.77887 0.94311 0.56896 0.0
C280 C 0.73288 0.92172 0.57706 0.0
H281 H 0.75626 0.8128 0.57156 0.0
H282 H 0.78347 0.83282 0.62435 0.0
H283 H 0.73779 0.84243 0.62085 0.0
H284 H 0.74758 0.87318 0.62352 0.0
H285 H 0.76254 0.85967 0.6337 0.0
H286 H 0.81344 0.882 0.60696 0.0
H287 H 0.80439 0.88051 0.62607 0.0
H288 H 0.80583 0.90329 0.61363 0.0
H289 H 0.73384 0.84096 0.52557 0.0
H290 H 0.73123 0.90715 0.52197 0.0
H291 H 0.74244 0.91598 0.54804 0.0
H292 H 0.78314 0.86314 0.54399 0.0
H293 H 0.7642 0.83099 0.54198 0.0
H294 H 0.78132 0.84463 0.5589 0.0
H295 H 0.70722 0.82515 0.55744 0.0
H296 H 0.72279 0.81411 0.56835 0.0
H297 H 0.72178 0.81051 0.54835 0.0
H298 H 0.76615 0.78656 0.58557 0.0
C299 C 0.76201 0.8177 0.58294 0.0
C300 C 0.04497 0.82916 0.61492 0.0
C301 C 0.02327 0.81008 0.60849 0.0
C302 C 0.02261 0.80722 0.59277 0.0
C303 C 0.06456 0.84031 0.59063 0.0
C304 C 0.06489 0.8443 0.60579 0.0
C305 C 0.08789 0.86694 0.61065 0.0
H306 H 0.19665 0.96507 0.59237 0.0
C307 C 0.0882 0.85912 0.58437 0.0
C308 C 0.10168 0.87518 0.59598 0.0
H309 H 0.15967 0.94814 0.63498 0.0
H310 H 0.12724 0.91038 0.62503 0.0
H311 H 0.18747 0.9122 0.58617 0.0
H312 H 0.14846 0.94819 0.57196 0.0
H313 H 0.15126 0.93279 0.55643 0.0
H314 H 0.17865 0.9561 0.56545 0.0
H315 H 0.19809 0.93311 0.57096 0.0
H316 H 0.1765 0.90133 0.56814 0.0
C317 C 0.1018 0.85991 0.62206 0.0
C318 C 0.08034 0.8851 0.61673 0.0
C319 C 0.11162 0.85142 0.53105 0.0
C320 C 0.13295 0.86552 0.52256 0.0
C321 C 0.15204 0.88712 0.52879 0.0
C322 C 0.15021 0.89435 0.54327 0.0
C323 C 0.12903 0.87989 0.55172 0.0
C324 C 0.11005 0.85894 0.54555 0.0
C325 C 0.08875 0.84616 0.55616 0.0
C326 C 0.09873 0.86226 0.56994 0.0
C327 C 0.12226 0.88203 0.5672 0.0
C328 C 0.08465 0.82053 0.559 0.0
C329 C 0.06599 0.84636 0.54944 0.0
C330 C 0.18146 0.95331 0.59952 0.0
C331 C 0.18067 0.95973 0.61446 0.0
C332 C 0.16084 0.94361 0.62347 0.0
C333 C 0.14187 0.92178 0.61763 0.0
C334 C 0.1426 0.91596 0.60258 0.0
C335 C 0.16233 0.93147 0.59385 0.0
C336 C 0.1602 0.92209 0.57817 0.0
C337 C 0.13539 0.89898 0.57876 0.0
C338 C 0.12522 0.89546 0.59309 0.0
C339 C 0.18169 0.91702 0.57557 0.0
C340 C 0.15976 0.94072 0.56733 0.0
H341 H 0.04142 0.81851 0.57213 0.0
H342 H 0.04678 0.83253 0.6268 0.0
H343 H 0.06245 0.88163 0.61192 0.0
H344 H 0.09352 0.904 0.61364 0.0
H345 H 0.07831 0.8839 0.62906 0.0
H346 H 0.10206 0.84343 0.61826 0.0
H347 H 0.09273 0.85599 0.63313 0.0
H348 H 0.12131 0.87399 0.62346 0.0
H349 H 0.09647 0.83493 0.5265 0.0
H350 H 0.16875 0.8982 0.52257 0.0
H351 H 0.16549 0.91086 0.54737 0.0
H352 H 0.10237 0.82147 0.56197 0.0
H353 H 0.07715 0.80901 0.54887 0.0
H354 H 0.07194 0.81123 0.56828 0.0
H355 H 0.07142 0.86103 0.54112 0.0
H356 H 0.05553 0.85003 0.55799 0.0
H357 H 0.05342 0.829 0.54372 0.0
H358 H 0.00616 0.79386 0.58705 0.0
C359 C 0.04312 0.82189 0.58392 0.0
C360 C 0.89106 0.50451 0.72994 0.0
C361 C 0.89366 0.52556 0.73666 0.0
C362 C 0.90243 0.5312 0.75146 0.0
C363 C 0.9057 0.495 0.75261 0.0
C364 C 0.89701 0.48949 0.73811 0.0
C365 C 0.89437 0.46596 0.7328 0.0
H366 H 0.9013 0.36575 0.74749 0.0
C367 C 0.90964 0.47537 0.75804 0.0
C368 C 0.90288 0.45824 0.74652 0.0
H369 H 0.87834 0.38447 0.70652 0.0
H370 H 0.88643 0.42239 0.71736 0.0
H371 H 0.94818 0.41823 0.75302 0.0
H372 H 0.87406 0.38406 0.76978 0.0
H373 H 0.89395 0.3997 0.78475 0.0
H374 H 0.89607 0.37556 0.77569 0.0
H375 H 0.93748 0.39531 0.76709 0.0
H376 H 0.95022 0.42684 0.77181 0.0
C377 C 0.91197 0.47128 0.71943 0.0
C378 C 0.86678 0.44845 0.72921 0.0
C379 C 0.94412 0.48011 0.81011 0.0
C380 C 0.94951 0.46451 0.81824 0.0
C381 C 0.9445 0.44236 0.81176 0.0
C382 C 0.93458 0.43598 0.79734 0.0
C383 C 0.92955 0.45188 0.78928 0.0
C384 C 0.93415 0.47344 0.79573 0.0
C385 C 0.92725 0.48788 0.78559 0.0
C386 C 0.9183 0.47167 0.77188 0.0
C387 C 0.9197 0.45064 0.77411 0.0
C388 C 0.95083 0.51227 0.78237 0.0
C389 C 0.90628 0.49027 0.79308 0.0
C390 C 0.89788 0.37799 0.74091 0.0
C391 C 0.88905 0.37212 0.72618 0.0
C392 C 0.88528 0.3887 0.71787 0.0
C393 C 0.88986 0.41064 0.72421 0.0
C394 C 0.89834 0.41611 0.73903 0.0
C395 C 0.90247 0.40002 0.74707 0.0
C396 C 0.91207 0.40914 0.76253 0.0
C397 C 0.91259 0.43316 0.76254 0.0
C398 C 0.90443 0.43706 0.74878 0.0
C399 C 0.93828 0.41246 0.76384 0.0
C400 C 0.89327 0.39122 0.77388 0.0
H401 H 0.91516 0.52137 0.77066 0.0
H402 H 0.88403 0.49956 0.71865 0.0
H403 H 0.85473 0.45113 0.73717 0.0
H404 H 0.8614 0.42924 0.73036 0.0
H405 H 0.862 0.4515 0.71779 0.0
H406 H 0.92912 0.48905 0.72086 0.0
H407 H 0.90313 0.47186 0.7088 0.0
H408 H 0.91839 0.45808 0.71835 0.0
H409 H 0.94745 0.4971 0.81488 0.0
H410 H 0.94868 0.43013 0.81776 0.0
H411 H 0.93135 0.41896 0.793 0.0
H412 H 0.96686 0.50956 0.7806 0.0
H413 H 0.95539 0.52507 0.79187 0.0
H414 H 0.94944 0.521 0.7721 0.0
H415 H 0.89464 0.47435 0.80019 0.0
H416 H 0.89326 0.49073 0.78491 0.0
H417 H 0.91379 0.50662 0.8003 0.0
H418 H 0.90473 0.54745 0.75681 0.0
C419 C 0.90853 0.51608 0.75945 0.0
C420 C 0.62671 0.50242 0.72555 0.0
C421 C 0.64869 0.52104 0.73202 0.0
C422 C 0.64995 0.52299 0.7478 0.0
C423 C 0.60795 0.49004 0.75 0.0
C424 C 0.60703 0.48689 0.73472 0.0
C425 C 0.58366 0.46468 0.72977 0.0
H426 H 0.47501 0.36631 0.74803 0.0
C427 C 0.58439 0.47116 0.7563 0.0
C428 C 0.5703 0.45585 0.74454 0.0
H429 H 0.51083 0.38464 0.70504 0.0
H430 H 0.54352 0.42207 0.71518 0.0
H431 H 0.52375 0.38231 0.76779 0.0
H432 H 0.48486 0.41935 0.75545 0.0
H433 H 0.49656 0.42951 0.77347 0.0
H434 H 0.47452 0.39792 0.77038 0.0
H435 H 0.49355 0.37402 0.77448 0.0
H436 H 0.52087 0.3968 0.78379 0.0
C437 C 0.59061 0.44655 0.72287 0.0
C438 C 0.56963 0.47254 0.71901 0.0
C439 C 0.56418 0.47589 0.81076 0.0
C440 C 0.54306 0.46195 0.81945 0.0
C441 C 0.52293 0.44141 0.81293 0.0
C442 C 0.52369 0.43501 0.79805 0.0
C443 C 0.54478 0.44929 0.78947 0.0
C444 C 0.5646 0.46933 0.79585 0.0
C445 C 0.58541 0.48244 0.785 0.0
C446 C 0.57443 0.4674 0.77092 0.0
C447 C 0.55073 0.4479 0.77367 0.0
C448 C 0.60812 0.48113 0.79073 0.0
C449 C 0.59005 0.50848 0.78322 0.0
C450 C 0.48998 0.37831 0.74082 0.0
C451 C 0.49039 0.37235 0.72573 0.0
C452 C 0.50995 0.3888 0.71667 0.0
C453 C 0.52909 0.41042 0.72262 0.0
C454 C 0.52882 0.41571 0.73782 0.0
C455 C 0.50931 0.39995 0.7466 0.0
C456 C 0.51202 0.40871 0.76248 0.0
C457 C 0.53697 0.43166 0.76193 0.0
C458 C 0.54666 0.43571 0.74744 0.0
C459 C 0.51244 0.3895 0.77279 0.0
C460 C 0.49088 0.41404 0.76576 0.0
H461 H 0.63189 0.51066 0.76856 0.0
H462 H 0.62453 0.49975 0.71362 0.0
H463 H 0.56958 0.48882 0.72343 0.0
H464 H 0.55007 0.45861 0.71757 0.0
H465 H 0.57848 0.47712 0.70786 0.0
H466 H 0.60874 0.44975 0.72708 0.0
H467 H 0.59184 0.44807 0.71052 0.0
H468 H 0.57751 0.4276 0.72591 0.0
H469 H 0.5799 0.49189 0.81536 0.0
H470 H 0.50658 0.43015 0.8194 0.0
H471 H 0.50778 0.41918 0.79378 0.0
H472 H 0.60268 0.46566 0.79842 0.0
H473 H 0.62116 0.49785 0.79689 0.0
H474 H 0.61806 0.47799 0.78159 0.0
H475 H 0.57236 0.50821 0.78125 0.0
H476 H 0.60194 0.51808 0.77368 0.0
H477 H 0.59869 0.51936 0.79345 0.0
H478 H 0.66666 0.53595 0.75347 0.0
C479 C 0.62972 0.50794 0.75672 0.0
C480 C 0.62675 0.12921 0.72698 0.0
C481 C 0.64474 0.12415 0.73262 0.0
C482 C 0.64089 0.11334 0.74684 0.0
C483 C 0.60222 0.11316 0.74947 0.0
C484 C 0.60573 0.1235 0.73551 0.0
C485 C 0.58464 0.12717 0.73099 0.0
H486 H 0.47183 0.11259 0.74581 0.0
C487 C 0.57845 0.10937 0.75539 0.0
C488 C 0.568 0.11748 0.74455 0.0
H489 H 0.51677 0.14422 0.70669 0.0
H490 H 0.54872 0.13831 0.71727 0.0
H491 H 0.48389 0.06943 0.75039 0.0
H492 H 0.51619 0.14117 0.76899 0.0
H493 H 0.51634 0.12243 0.78321 0.0
H494 H 0.48732 0.11695 0.77546 0.0
H495 H 0.46809 0.07845 0.76333 0.0
H496 H 0.48816 0.06763 0.76966 0.0
C497 C 0.57242 0.11166 0.71686 0.0
C498 C 0.59478 0.15461 0.7289 0.0
C499 C 0.54959 0.07317 0.80715 0.0
C500 C 0.52861 0.06788 0.81568 0.0
C501 C 0.5108 0.07274 0.80947 0.0
C502 C 0.51372 0.08257 0.79514 0.0
C503 C 0.53473 0.08775 0.78678 0.0
C504 C 0.5523 0.08314 0.79284 0.0
C505 C 0.57357 0.09007 0.78236 0.0
C506 C 0.56593 0.0997 0.76909 0.0
C507 C 0.54306 0.09815 0.77172 0.0
C508 C 0.57446 0.06691 0.77831 0.0
C509 C 0.59726 0.11009 0.78999 0.0
C510 C 0.48861 0.11847 0.73954 0.0
C511 C 0.4914 0.12861 0.72522 0.0
C512 C 0.51366 0.13582 0.71754 0.0
C513 C 0.53236 0.1325 0.72376 0.0
C514 C 0.52904 0.12193 0.73791 0.0
C515 C 0.50757 0.11542 0.74564 0.0
C516 C 0.50757 0.1051 0.76074 0.0
C517 C 0.53229 0.10598 0.76063 0.0
C518 C 0.54476 0.11575 0.74719 0.0
C519 C 0.48574 0.07881 0.76121 0.0
C520 C 0.50663 0.12207 0.77281 0.0
H521 H 0.61821 0.09973 0.76593 0.0
H522 H 0.629 0.13763 0.7162 0.0
H523 H 0.6097 0.16532 0.73712 0.0
H524 H 0.58076 0.15996 0.73089 0.0
H525 H 0.60256 0.16048 0.71756 0.0
H526 H 0.57202 0.09406 0.71752 0.0
H527 H 0.58277 0.12103 0.70666 0.0
H528 H 0.55298 0.1068 0.71544 0.0
H529 H 0.56375 0.06987 0.81158 0.0
H530 H 0.4943 0.06856 0.81564 0.0
H531 H 0.49939 0.08565 0.7911 0.0
H532 H 0.55557 0.0509 0.77773 0.0
H533 H 0.58503 0.0631 0.78678 0.0
H534 H 0.58235 0.06779 0.76717 0.0
H535 H 0.59339 0.123 0.79613 0.0
H536 H 0.61187 0.12129 0.78199 0.0
H537 H 0.60469 0.10226 0.79814 0.0
H538 H 0.65395 0.10863 0.75142 0.0
C539 C 0.61991 0.10794 0.75525 0.0
C540 C 0.83583 0.54788 0.94934 0.0
C541 C 0.85974 0.55475 0.94412 0.0
C542 C 0.86696 0.56699 0.93029 0.0
C543 C 0.82697 0.56387 0.92702 0.0
C544 C 0.82014 0.55304 0.94083 0.0
C545 C 0.79524 0.54901 0.94547 0.0
H546 H 0.68942 0.54725 0.92743 0.0
C547 C 0.80622 0.56616 0.92087 0.0
C548 C 0.78765 0.55772 0.93172 0.0
H549 H 0.7133 0.53672 0.97094 0.0
H550 H 0.75089 0.5431 0.96036 0.0
H551 H 0.73942 0.59528 0.92231 0.0
H552 H 0.71436 0.52291 0.90638 0.0
H553 H 0.72775 0.54317 0.89143 0.0
H554 H 0.70099 0.54072 0.9005 0.0
H555 H 0.7179 0.58241 0.90713 0.0
H556 H 0.75077 0.59778 0.90416 0.0
C557 C 0.79878 0.56503 0.95937 0.0
C558 C 0.77797 0.52168 0.94808 0.0
C559 C 0.81062 0.5968 0.86782 0.0
C560 C 0.7941 0.60037 0.85895 0.0
C561 C 0.7707 0.59382 0.8648 0.0
C562 C 0.76397 0.5842 0.8792 0.0
C563 C 0.78083 0.58117 0.88803 0.0
C564 C 0.80367 0.58731 0.88226 0.0
C565 C 0.81935 0.58318 0.89333 0.0
C566 C 0.80224 0.5737 0.90669 0.0
C567 C 0.77965 0.57252 0.90352 0.0
C568 C 0.84275 0.60778 0.89675 0.0
C569 C 0.82466 0.56384 0.8867 0.0
C570 C 0.70255 0.5465 0.93492 0.0
C571 C 0.69719 0.54068 0.95021 0.0
C572 C 0.71562 0.53999 0.95908 0.0
C573 C 0.73802 0.54423 0.95297 0.0
C574 C 0.74291 0.55014 0.93785 0.0
C575 C 0.72556 0.55173 0.92916 0.0
C576 C 0.73514 0.56089 0.91372 0.0
C577 C 0.76092 0.56418 0.91459 0.0
C578 C 0.76512 0.55728 0.92868 0.0
C579 C 0.73575 0.58527 0.91156 0.0
C580 C 0.71871 0.54105 0.90231 0.0
H581 H 0.85746 0.58043 0.91131 0.0
H582 H 0.82915 0.53858 0.95981 0.0
H583 H 0.77893 0.51101 0.93854 0.0
H584 H 0.75845 0.51671 0.94911 0.0
H585 H 0.78337 0.51573 0.95836 0.0
H586 H 0.81819 0.5799 0.96066 0.0
H587 H 0.79377 0.55428 0.9698 0.0
H588 H 0.7879 0.57435 0.95857 0.0
H589 H 0.82884 0.60187 0.86377 0.0
H590 H 0.7575 0.59607 0.85817 0.0
H591 H 0.74589 0.57959 0.88295 0.0
H592 H 0.83903 0.62302 0.89558 0.0
H593 H 0.85796 0.61119 0.88903 0.0
H594 H 0.84925 0.60915 0.90839 0.0
H595 H 0.8076 0.54865 0.88176 0.0
H596 H 0.831 0.55555 0.89509 0.0
H597 H 0.83866 0.57164 0.87773 0.0
H598 H 0.88536 0.57373 0.92602 0.0
C599 C 0.85074 0.57125 0.92171 0.0
C600 C 0.44685 0.16386 0.94444 0.0
C601 C 0.44093 0.14097 0.93893 0.0
C602 C 0.42738 0.1325 0.92554 0.0
C603 C 0.42664 0.16994 0.92308 0.0
C604 C 0.43939 0.17789 0.93643 0.0
C605 C 0.44363 0.20236 0.94096 0.0
H606 H 0.43374 0.30065 0.92523 0.0
C607 C 0.42218 0.18916 0.91743 0.0
C608 C 0.43195 0.20811 0.92793 0.0
H609 H 0.46365 0.28667 0.96503 0.0
H610 H 0.45437 0.24779 0.95516 0.0
H611 H 0.45751 0.2802 0.90203 0.0
H612 H 0.38647 0.24793 0.92296 0.0
H613 H 0.38145 0.23791 0.90434 0.0
H614 H 0.39525 0.26979 0.90833 0.0
H615 H 0.43417 0.28705 0.89642 0.0
H616 H 0.4359 0.26194 0.88845 0.0
C617 C 0.4718 0.21991 0.94186 0.0
C618 C 0.42972 0.19965 0.95577 0.0
C619 C 0.381 0.17987 0.86687 0.0
C620 C 0.37546 0.19524 0.85854 0.0
C621 C 0.38168 0.21807 0.8645 0.0
C622 C 0.39305 0.22543 0.8785 0.0
C623 C 0.39842 0.20991 0.88668 0.0
C624 C 0.39249 0.18758 0.88084 0.0
C625 C 0.39994 0.17368 0.8911 0.0
C626 C 0.41126 0.19136 0.90404 0.0
C627 C 0.41025 0.2125 0.90136 0.0
C628 C 0.41925 0.16949 0.88291 0.0
C629 C 0.3764 0.15019 0.8958 0.0
C630 C 0.43844 0.28925 0.93174 0.0
C631 C 0.44949 0.29669 0.94588 0.0
C632 C 0.45496 0.2812 0.95415 0.0
C633 C 0.44963 0.25868 0.94837 0.0
C634 C 0.43861 0.25149 0.9342 0.0
C635 C 0.43306 0.26662 0.92618 0.0
C636 C 0.42081 0.25573 0.9115 0.0
C637 C 0.41989 0.23154 0.91204 0.0
C638 C 0.43052 0.22926 0.92529 0.0
C639 C 0.43774 0.27203 0.89886 0.0
C640 C 0.39468 0.25276 0.91162 0.0
H641 H 0.41017 0.13957 0.90737 0.0
H642 H 0.45685 0.17059 0.95485 0.0
H643 H 0.41333 0.18126 0.95679 0.0
H644 H 0.42216 0.212 0.95649 0.0
H645 H 0.44178 0.20262 0.96559 0.0
H646 H 0.48131 0.2167 0.93241 0.0
H647 H 0.4796 0.21735 0.95239 0.0
H648 H 0.47691 0.23909 0.941 0.0
H649 H 0.37631 0.16215 0.86268 0.0
H650 H 0.37808 0.23046 0.85824 0.0
H651 H 0.39731 0.24303 0.88235 0.0
H652 H 0.43219 0.18582 0.87649 0.0
H653 H 0.41019 0.15414 0.87492 0.0
H654 H 0.43106 0.16618 0.89056 0.0
H655 H 0.36044 0.15323 0.89679 0.0
H656 H 0.37814 0.14375 0.90691 0.0
H657 H 0.37142 0.13553 0.88747 0.0
H658 H 0.42266 0.11488 0.92113 0.0
C659 C 0.42027 0.1469 0.91756 0.0
C660 C 0.71144 0.16286 0.94862 0.0
C661 C 0.69381 0.14017 0.94287 0.0
C662 C 0.6978 0.13324 0.92862 0.0
C663 C 0.73625 0.17115 0.92629 0.0
C664 C 0.73244 0.1778 0.94028 0.0
C665 C 0.7533 0.20186 0.94523 0.0
H666 H 0.86506 0.29916 0.93239 0.0
C667 C 0.7601 0.19082 0.9207 0.0
C668 C 0.77019 0.20873 0.93185 0.0
H669 H 0.81929 0.28332 0.97144 0.0
H670 H 0.78814 0.24629 0.96007 0.0
H671 H 0.85424 0.24371 0.92655 0.0
H672 H 0.82232 0.28475 0.90924 0.0
H673 H 0.82171 0.26621 0.89457 0.0
H674 H 0.85096 0.28871 0.90235 0.0
H675 H 0.87038 0.26934 0.91454 0.0
H676 H 0.85103 0.23942 0.90707 0.0
C677 C 0.7651 0.19783 0.95939 0.0
C678 C 0.74306 0.21931 0.94744 0.0
C679 C 0.79017 0.18586 0.8687 0.0
C680 C 0.81114 0.20187 0.86047 0.0
C681 C 0.82863 0.22395 0.8671 0.0
C682 C 0.82539 0.23 0.88163 0.0
C683 C 0.80438 0.21388 0.8897 0.0
C684 C 0.7871 0.19228 0.88321 0.0
C685 C 0.76569 0.17765 0.89343 0.0
C686 C 0.77294 0.1941 0.90705 0.0
C687 C 0.79574 0.21521 0.90482 0.0
C688 C 0.76505 0.15359 0.89688 0.0
C689 C 0.74201 0.17451 0.88586 0.0
C690 C 0.84841 0.28752 0.93851 0.0
C691 C 0.84462 0.29404 0.95286 0.0
C692 C 0.82253 0.27871 0.96036 0.0
C693 C 0.80451 0.25716 0.95374 0.0
C694 C 0.80851 0.25083 0.93942 0.0
C695 C 0.83008 0.26596 0.93199 0.0
C696 C 0.83068 0.25658 0.91665 0.0
C697 C 0.80616 0.23306 0.91626 0.0
C698 C 0.79336 0.22983 0.92965 0.0
C699 C 0.85279 0.25211 0.91602 0.0
C700 C 0.83164 0.27497 0.90502 0.0
H701 H 0.72077 0.14224 0.90958 0.0
H702 H 0.70902 0.16903 0.95941 0.0
H703 H 0.72848 0.2157 0.93904 0.0
H704 H 0.75712 0.23847 0.94581 0.0
H705 H 0.73479 0.21716 0.95867 0.0
H706 H 0.76381 0.17981 0.9591 0.0
H707 H 0.75569 0.19869 0.96966 0.0
H708 H 0.78504 0.21082 0.96041 0.0
H709 H 0.7763 0.16885 0.86389 0.0
H710 H 0.84508 0.23645 0.8611 0.0
H711 H 0.83945 0.247 0.88603 0.0
H712 H 0.78402 0.15633 0.89754 0.0
H713 H 0.75491 0.13986 0.88806 0.0
H714 H 0.7568 0.14605 0.90783 0.0
H715 H 0.74565 0.19161 0.88041 0.0
H716 H 0.727 0.17022 0.89382 0.0
H717 H 0.73523 0.16018 0.87714 0.0
H718 H 0.68487 0.11571 0.92396 0.0
C719 C 0.71881 0.1486 0.9203 0.0
C720 C 0.5484 0.83191 0.06363 0.0
C721 C 0.55145 0.85351 0.06977 0.0
C722 C 0.56202 0.86078 0.0841 0.0
C723 C 0.56671 0.82542 0.08578 0.0
C724 C 0.55602 0.81816 0.07182 0.0
C725 C 0.55365 0.79453 0.067 0.0
H726 H 0.57307 0.7014 0.08131 0.0
C727 C 0.57273 0.80714 0.09122 0.0
C728 C 0.56498 0.78893 0.0803 0.0
H729 H 0.5373 0.71136 0.04286 0.0
H730 H 0.54368 0.74908 0.05311 0.0
H731 H 0.61735 0.75731 0.0838 0.0
H732 H 0.54688 0.71663 0.10502 0.0
H733 H 0.56713 0.73636 0.11866 0.0
H734 H 0.57294 0.71384 0.11045 0.0
H735 H 0.61099 0.73458 0.09754 0.0
H736 H 0.62158 0.76556 0.10275 0.0
C737 C 0.56914 0.79902 0.05269 0.0
C738 C 0.52587 0.77579 0.06512 0.0
C739 C 0.61583 0.81876 0.1413 0.0
C740 C 0.62349 0.80465 0.14921 0.0
C741 C 0.6195 0.78273 0.14291 0.0
C742 C 0.60808 0.77495 0.12896 0.0
C743 C 0.60046 0.78918 0.12119 0.0
C744 C 0.60431 0.81065 0.12738 0.0
C745 C 0.59457 0.82314 0.11758 0.0
C746 C 0.58439 0.80567 0.10448 0.0
C747 C 0.58799 0.78589 0.10666 0.0
C748 C 0.61655 0.84789 0.113 0.0
C749 C 0.57397 0.82473 0.12617 0.0
C750 C 0.56686 0.71187 0.07505 0.0
C751 C 0.55474 0.70351 0.06126 0.0
C752 C 0.54651 0.71739 0.05357 0.0
C753 C 0.55032 0.73932 0.05951 0.0
C754 C 0.56237 0.74741 0.07335 0.0
C755 C 0.57035 0.73371 0.08088 0.0
C756 C 0.58222 0.74479 0.09561 0.0
C757 C 0.58008 0.76744 0.09566 0.0
C758 C 0.56858 0.76893 0.08258 0.0
C759 C 0.60943 0.7508 0.09506 0.0
C760 C 0.56673 0.72706 0.10816 0.0
H761 H 0.57777 0.85346 0.10292 0.0
H762 H 0.54001 0.8257 0.05273 0.0
H763 H 0.51445 0.77967 0.0729 0.0
H764 H 0.52144 0.7572 0.06789 0.0
H765 H 0.51939 0.776 0.0536 0.0
H766 H 0.58675 0.81652 0.05348 0.0
H767 H 0.55901 0.79977 0.04269 0.0
H768 H 0.57464 0.78529 0.05081 0.0
H769 H 0.6184 0.83556 0.14594 0.0
H770 H 0.62548 0.77169 0.14873 0.0
H771 H 0.60564 0.75813 0.12478 0.0
H772 H 0.63309 0.84627 0.11058 0.0
H773 H 0.62155 0.86146 0.12208 0.0
H774 H 0.61306 0.8551 0.10268 0.0
H775 H 0.56372 0.80882 0.13356 0.0
H776 H 0.55974 0.82442 0.11871 0.0
H777 H 0.58174 0.84121 0.13329 0.0
H778 H 0.56471 0.87747 0.089 0.0
C779 C 0.56971 0.84689 0.09212 0.0
C780 C 0.29284 0.84221 0.05835 0.0
C781 C 0.3136 0.86236 0.0648 0.0
C782 C 0.31356 0.86557 0.08047 0.0
C783 C 0.27303 0.83022 0.0825 0.0
C784 C 0.27336 0.82615 0.06741 0.0
C785 C 0.25178 0.80235 0.06259 0.0
H786 H 0.14513 0.70119 0.07991 0.0
C787 C 0.25043 0.80995 0.08879 0.0
C788 C 0.23826 0.79317 0.07727 0.0
H789 H 0.18319 0.71984 0.03772 0.0
H790 H 0.21553 0.75722 0.04831 0.0
H791 H 0.18959 0.71385 0.09919 0.0
H792 H 0.1573 0.75794 0.08903 0.0
H793 H 0.16138 0.7573 0.10851 0.0
H794 H 0.14192 0.72963 0.09873 0.0
H795 H 0.16432 0.71158 0.10982 0.0
H796 H 0.19593 0.73314 0.11462 0.0
C797 C 0.26172 0.78603 0.05656 0.0
C798 C 0.23643 0.80749 0.05115 0.0
C799 C 0.22344 0.81565 0.14142 0.0
C800 C 0.20414 0.79907 0.15066 0.0
C801 C 0.18911 0.7752 0.14522 0.0
C802 C 0.19196 0.76863 0.13076 0.0
C803 C 0.21049 0.78574 0.12159 0.0
C804 C 0.22661 0.80843 0.12719 0.0
C805 C 0.24747 0.82297 0.11659 0.0
C806 C 0.23975 0.80595 0.1032 0.0
C807 C 0.21783 0.78436 0.10615 0.0
C808 C 0.27184 0.82698 0.12377 0.0
C809 C 0.24766 0.84668 0.11286 0.0
C810 C 0.16037 0.71352 0.07297 0.0
C811 C 0.16167 0.70782 0.05798 0.0
C812 C 0.18195 0.72394 0.04932 0.0
C813 C 0.20066 0.74559 0.05549 0.0
C814 C 0.19922 0.75102 0.07054 0.0
C815 C 0.17939 0.73504 0.07904 0.0
C816 C 0.18144 0.74337 0.09497 0.0
C817 C 0.20574 0.76708 0.09459 0.0
C818 C 0.21591 0.77152 0.08023 0.0
C819 C 0.18274 0.72454 0.10526 0.0
C820 C 0.15936 0.74723 0.09811 0.0
H821 H 0.2944 0.85365 0.10095 0.0
H822 H 0.29145 0.83855 0.04652 0.0
H823 H 0.23424 0.82291 0.05495 0.0
H824 H 0.21755 0.79216 0.04965 0.0
H825 H 0.24562 0.81225 0.04011 0.0
H826 H 0.28013 0.79125 0.06137 0.0
H827 H 0.26368 0.78729 0.04423 0.0
H828 H 0.24998 0.76685 0.05971 0.0
H829 H 0.23583 0.83403 0.14494 0.0
H830 H 0.17504 0.76129 0.15207 0.0
H831 H 0.17963 0.75037 0.12728 0.0
H832 H 0.26849 0.81482 0.13343 0.0
H833 H 0.28333 0.84582 0.12791 0.0
H834 H 0.28284 0.82281 0.11588 0.0
H835 H 0.22903 0.84275 0.10918 0.0
H836 H 0.26052 0.85683 0.10378 0.0
H837 H 0.25304 0.85875 0.12279 0.0
H838 H 0.32927 0.87984 0.08626 0.0
C839 C 0.29333 0.84997 0.08922 0.0
C840 C 0.29219 0.45964 0.06121 0.0
C841 C 0.31244 0.45875 0.06759 0.0
C842 C 0.31138 0.45382 0.08308 0.0
C843 C 0.27093 0.44991 0.08502 0.0
C844 C 0.2722 0.45589 0.07015 0.0
C845 C 0.25082 0.45897 0.06543 0.0
H846 H 0.14258 0.45323 0.08223 0.0
C847 C 0.24785 0.44736 0.09121 0.0
C848 C 0.2363 0.45331 0.07987 0.0
H849 H 0.18394 0.47691 0.04113 0.0
H850 H 0.21518 0.46991 0.05156 0.0
H851 H 0.15409 0.4083 0.08943 0.0
H852 H 0.18739 0.48288 0.10313 0.0
H853 H 0.19074 0.46716 0.11815 0.0
H854 H 0.16022 0.45976 0.11202 0.0
H855 H 0.13864 0.42044 0.10026 0.0
H856 H 0.15784 0.41052 0.10901 0.0
C857 C 0.23624 0.44007 0.05311 0.0
C858 C 0.26104 0.48559 0.06057 0.0
C859 C 0.21937 0.41229 0.14315 0.0
C860 C 0.1996 0.40902 0.15235 0.0
C861 C 0.18384 0.41723 0.14684 0.0
C862 C 0.1868 0.42704 0.1325 0.0
C863 C 0.20614 0.42945 0.12346 0.0
C864 C 0.22256 0.42294 0.12903 0.0
C865 C 0.24379 0.42963 0.11855 0.0
C866 C 0.23634 0.43958 0.10535 0.0
C867 C 0.21405 0.4391 0.10823 0.0
C868 C 0.24437 0.40642 0.11432 0.0
C869 C 0.26782 0.44932 0.12617 0.0
C870 C 0.15844 0.45714 0.07548 0.0
C871 C 0.16038 0.46539 0.06069 0.0
C872 C 0.18142 0.47 0.05239 0.0
C873 C 0.1998 0.46617 0.05852 0.0
C874 C 0.19751 0.45789 0.07325 0.0
C875 C 0.17718 0.45368 0.08151 0.0
C876 C 0.17829 0.44564 0.09715 0.0
C877 C 0.20261 0.44566 0.09685 0.0
C878 C 0.21367 0.45269 0.08276 0.0
C879 C 0.15603 0.4199 0.09921 0.0
C880 C 0.17903 0.46465 0.10828 0.0
H881 H 0.29111 0.4451 0.10325 0.0
H882 H 0.29154 0.46324 0.04951 0.0
H883 H 0.279 0.49791 0.06608 0.0
H884 H 0.24893 0.4928 0.0639 0.0
H885 H 0.264 0.48761 0.04833 0.0
H886 H 0.23387 0.42215 0.05614 0.0
H887 H 0.24613 0.44551 0.0423 0.0
H888 H 0.21745 0.43705 0.05145 0.0
H889 H 0.2322 0.4066 0.14666 0.0
H890 H 0.16917 0.41642 0.15358 0.0
H891 H 0.17396 0.43256 0.12902 0.0
H892 H 0.22579 0.39201 0.11061 0.0
H893 H 0.24999 0.3995 0.12404 0.0
H894 H 0.25711 0.40923 0.10509 0.0
H895 H 0.26396 0.4584 0.13555 0.0
H896 H 0.27948 0.46416 0.11843 0.0
H897 H 0.27879 0.44152 0.13079 0.0
H898 H 0.3266 0.45398 0.08889 0.0
C899 C 0.29074 0.44903 0.09167 0.0
C900 C 0.49572 0.87231 0.27989 0.0
C901 C 0.51845 0.8769 0.27384 0.0
C902 C 0.5247 0.88701 0.25941 0.0
C903 C 0.48603 0.88699 0.25727 0.0
C904 C 0.48 0.87763 0.2715 0.0
C905 C 0.45573 0.87477 0.27652 0.0
H906 H 0.35019 0.87416 0.25943 0.0
C907 C 0.46559 0.89012 0.25146 0.0
C908 C 0.44776 0.883 0.26271 0.0
H909 H 0.37502 0.86418 0.30279 0.0
H910 H 0.41236 0.8705 0.29193 0.0
H911 H 0.40056 0.92218 0.25421 0.0
H912 H 0.37447 0.84983 0.23779 0.0
H913 H 0.38707 0.8705 0.22291 0.0
H914 H 0.36082 0.86778 0.23275 0.0
H915 H 0.37924 0.90997 0.23889 0.0
H916 H 0.41215 0.92476 0.23612 0.0
C917 C 0.46061 0.89184 0.29005 0.0
C918 C 0.43803 0.84774 0.27987 0.0
C919 C 0.46995 0.92156 0.19871 0.0
C920 C 0.45399 0.92636 0.19015 0.0
C921 C 0.43103 0.92085 0.19628 0.0
C922 C 0.42421 0.91101 0.21065 0.0
C923 C 0.44057 0.90677 0.21916 0.0
C924 C 0.46296 0.91194 0.21311 0.0
C925 C 0.47818 0.90657 0.22381 0.0
C926 C 0.46148 0.89776 0.23737 0.0
C927 C 0.43937 0.89778 0.23458 0.0
C928 C 0.50246 0.93045 0.2271 0.0
C929 C 0.48179 0.88633 0.21684 0.0
C930 C 0.36341 0.87344 0.26685 0.0
C931 C 0.35829 0.86768 0.28218 0.0
C932 C 0.377 0.86723 0.29091 0.0
C933 C 0.39926 0.87139 0.28462 0.0
C934 C 0.40375 0.87692 0.26943 0.0
C935 C 0.38628 0.87856 0.26089 0.0
C936 C 0.39561 0.88762 0.24538 0.0
C937 C 0.42114 0.89025 0.24594 0.0
C938 C 0.42556 0.88342 0.25999 0.0
C939 C 0.39686 0.91233 0.24339 0.0
C940 C 0.3786 0.86805 0.23401 0.0
H941 H 0.51465 0.89957 0.24026 0.0
H942 H 0.49008 0.86459 0.29088 0.0
H943 H 0.43829 0.83624 0.2706 0.0
H944 H 0.41868 0.84326 0.28102 0.0
H945 H 0.4436 0.84228 0.29027 0.0
H946 H 0.48003 0.90695 0.29038 0.0
H947 H 0.45702 0.88198 0.30077 0.0
H948 H 0.44944 0.90087 0.28955 0.0
H949 H 0.48782 0.92579 0.19446 0.0
H950 H 0.41823 0.92405 0.18989 0.0
H951 H 0.40647 0.90715 0.21461 0.0
H952 H 0.49931 0.94613 0.22713 0.0
H953 H 0.5166 0.93391 0.21853 0.0
H954 H 0.51016 0.93079 0.23826 0.0
H955 H 0.46479 0.87282 0.21089 0.0
H956 H 0.48537 0.87581 0.22521 0.0
H957 H 0.49704 0.89385 0.20862 0.0
H958 H 0.54226 0.89156 0.25451 0.0
C959 C 0.50867 0.89192 0.25113 0.0
C960 C 0.11252 0.49656 0.27472 0.0
C961 C 0.10557 0.47302 0.2699 0.0
C962 C 0.09145 0.46399 0.25674 0.0
C963 C 0.09175 0.50181 0.25331 0.0
C964 C 0.10524 0.51049 0.26637 0.0
C965 C 0.11022 0.53548 0.27024 0.0
H966 H 0.09513 0.63101 0.25435 0.0
C967 C 0.08726 0.52084 0.24729 0.0
C968 C 0.09787 0.54055 0.25724 0.0
H969 H 0.13282 0.62209 0.29214 0.0
H970 H 0.12441 0.58328 0.2826 0.0
H971 H 0.11884 0.61312 0.23061 0.0
H972 H 0.04905 0.57517 0.25292 0.0
H973 H 0.04419 0.56797 0.23376 0.0
H974 H 0.05671 0.59889 0.23967 0.0
H975 H 0.09274 0.61528 0.22447 0.0
H976 H 0.09831 0.59175 0.21773 0.0
C977 C 0.13849 0.55274 0.27038 0.0
C978 C 0.0974 0.5341 0.28527 0.0
C979 C 0.04315 0.50817 0.19742 0.0
C980 C 0.03756 0.52311 0.1887 0.0
C981 C 0.04375 0.54618 0.19419 0.0
C982 C 0.05537 0.55431 0.20809 0.0
C983 C 0.06108 0.5393 0.21662 0.0
C984 C 0.05504 0.51667 0.21123 0.0
C985 C 0.06314 0.50351 0.22167 0.0
C986 C 0.07527 0.52207 0.2341 0.0
C987 C 0.0738 0.5429 0.23113 0.0
C988 C 0.08193 0.49872 0.21335 0.0
C989 C 0.03988 0.4804 0.22713 0.0
C990 C 0.10137 0.62056 0.2606 0.0
C991 C 0.1145 0.62951 0.27406 0.0
C992 C 0.12278 0.61562 0.28171 0.0
C993 C 0.11775 0.59303 0.27619 0.0
C994 C 0.10438 0.58419 0.26281 0.0
C995 C 0.09668 0.59803 0.25516 0.0
C996 C 0.08357 0.58617 0.24083 0.0
C997 C 0.08398 0.56259 0.24138 0.0
C998 C 0.09609 0.56148 0.25431 0.0
C999 C 0.09892 0.60236 0.22766 0.0
C1000 C 0.05699 0.58187 0.24169 0.0
H1001 H 0.07396 0.4704 0.23845 0.0
H1002 H 0.12304 0.50383 0.28492 0.0
H1003 H 0.07967 0.51677 0.28617 0.0
H1004 H 0.09231 0.54826 0.2865 0.0
H1005 H 0.10917 0.53519 0.29487 0.0
H1006 H 0.14747 0.54767 0.2615 0.0
H1007 H 0.1467 0.55203 0.28124 0.0
H1008 H 0.14379 0.57167 0.26799 0.0
H1009 H 0.03883 0.49044 0.19343 0.0
H1010 H 0.03939 0.55791 0.18776 0.0
H1011 H 0.05951 0.572 0.21165 0.0
H1012 H 0.09451 0.51459 0.20647 0.0
H1013 H 0.07241 0.48285 0.20576 0.0
H1014 H 0.09414 0.49585 0.22092 0.0
H1015 H 0.02387 0.48338 0.22801 0.0
H1016 H 0.04214 0.475 0.23847 0.0
H1017 H 0.03465 0.46504 0.21931 0.0
H1018 H 0.08596 0.44593 0.25279 0.0
C1019 C 0.08458 0.47826 0.2484 0.0
C1020 C 0.37552 0.49717 0.28084 0.0
C1021 C 0.35432 0.47721 0.2746 0.0
C1022 C 0.35433 0.47323 0.25901 0.0
C1023 C 0.39597 0.50695 0.25678 0.0
C1024 C 0.39561 0.51201 0.27172 0.0
C1025 C 0.4181 0.53532 0.27633 0.0
H1026 H 0.52894 0.6312 0.25848 0.0
C1027 C 0.41976 0.52559 0.25051 0.0
C1028 C 0.43257 0.54259 0.26186 0.0
H1029 H 0.48813 0.61912 0.29936 0.0
H1030 H 0.4557 0.58087 0.28978 0.0
H1031 H 0.51729 0.57601 0.25429 0.0
H1032 H 0.48343 0.61515 0.23685 0.0
H1033 H 0.48438 0.5973 0.22221 0.0
H1034 H 0.5128 0.62018 0.23057 0.0
H1035 H 0.53103 0.5978 0.23967 0.0
H1036 H 0.50913 0.56647 0.23573 0.0
C1037 C 0.43179 0.52975 0.2887 0.0
C1038 C 0.40977 0.55355 0.28107 0.0
C1039 C 0.44528 0.51546 0.19813 0.0
C1040 C 0.46687 0.52931 0.18978 0.0
C1041 C 0.48596 0.55087 0.19605 0.0
C1042 C 0.48375 0.55847 0.21035 0.0
C1043 C 0.46221 0.54443 0.21859 0.0
C1044 C 0.44334 0.52337 0.21246 0.0
C1045 C 0.42166 0.51106 0.22286 0.0
C1046 C 0.43105 0.52782 0.23639 0.0
C1047 C 0.45478 0.54736 0.23375 0.0
C1048 C 0.41758 0.48564 0.22642 0.0
C1049 C 0.39913 0.51083 0.21546 0.0
C1050 C 0.51306 0.62019 0.26538 0.0
C1051 C 0.51101 0.6281 0.27967 0.0
C1052 C 0.48996 0.61344 0.28826 0.0
C1053 C 0.47115 0.59129 0.28267 0.0
C1054 C 0.4732 0.58383 0.26823 0.0
C1055 C 0.4939 0.5982 0.25985 0.0
C1056 C 0.49253 0.58774 0.24458 0.0
C1057 C 0.46734 0.56505 0.24505 0.0
C1058 C 0.45625 0.56271 0.25899 0.0
C1059 C 0.51362 0.58178 0.24334 0.0
C1060 C 0.49349 0.60598 0.23284 0.0
H1061 H 0.3738 0.48339 0.23854 0.0
H1062 H 0.37687 0.50147 0.29259 0.0
H1063 H 0.39154 0.54879 0.27617 0.0
H1064 H 0.42238 0.57206 0.27701 0.0
H1065 H 0.40812 0.55407 0.29338 0.0
H1066 H 0.43326 0.51361 0.28564 0.0
H1067 H 0.42178 0.52592 0.29945 0.0
H1068 H 0.45085 0.54459 0.2905 0.0
H1069 H 0.43016 0.49896 0.19356 0.0
H1070 H 0.5029 0.56172 0.18999 0.0
H1071 H 0.49903 0.57498 0.21445 0.0
H1072 H 0.43528 0.48679 0.22971 0.0
H1073 H 0.41023 0.47356 0.21651 0.0
H1074 H 0.40481 0.47686 0.23576 0.0
H1075 H 0.40493 0.52582 0.20733 0.0
H1076 H 0.38767 0.51377 0.22364 0.0
H1077 H 0.38745 0.49362 0.20935 0.0
H1078 H 0.33828 0.45916 0.25335 0.0
C1079 C 0.37501 0.48765 0.25021 0.0
Eu1080 Eu 0.49222 0.98254 0.98593 0.0
C1081 C 0.54752 0.07725 0.0255 0.0
C1082 C 0.59023 0.08763 0.02386 0.0
C1083 C 0.57992 0.1193 0.02736 0.0
C1084 C 0.5649 0.07027 0.02357 0.0
C1085 C 0.55479 0.10176 0.02783 0.0
C1086 C 0.59763 0.11224 0.02536 0.0
C1087 C 0.51211 0.08943 0.03239 0.0
N1088 N 0.5235 0.05982 0.02603 0.0
C1089 C 0.50589 0.06536 0.03007 0.0
C1090 C 0.53664 0.10778 0.03104 0.0
Eu1091 Eu 0.51378 0.01962 0.02092 0.0
N1092 N 0.55705 0.04635 0.02226 0.0
C1093 C 0.57367 0.03841 0.0224 0.0
C1094 C 0.60733 0.07965 0.0231 0.0
C1095 C 0.599 0.05491 0.02257 0.0
H1096 H 0.48689 0.05122 0.03104 0.0
H1097 H 0.61207 0.04851 0.02227 0.0
H1098 H 0.61699 0.12587 0.02541 0.0
H1099 H 0.49799 0.09382 0.03519 0.0
H1100 H 0.56759 0.01939 0.02192 0.0
H1101 H 0.39479 0.95568 0.98119 0.0
H1102 H 0.62695 0.09238 0.02335 0.0
H1103 H 0.51857 0.94877 0.97984 0.0
H1104 H 0.43954 0.98414 0.98203 0.0
H1105 H 0.50644 0.90549 0.97851 0.0
H1106 H 0.58588 0.13827 0.02894 0.0
H1107 H 0.3789 0.91168 0.98282 0.0
H1108 H 0.38784 0.87743 0.9839 0.0
H1109 H 0.54144 0.1264 0.0329 0.0
H1110 H 0.41825 0.86373 0.98307 0.0
N1111 N 0.44901 0.9566 0.98424 0.0
C1112 C 0.43292 0.965 0.9826 0.0
C1113 C 0.39859 0.92409 0.98313 0.0
C1114 C 0.41525 0.91555 0.98395 0.0
C1115 C 0.4075 0.94891 0.98214 0.0
C1116 C 0.44069 0.9325 0.98427 0.0
H1117 H 0.46253 0.87406 0.98078 0.0
N1118 N 0.48195 0.94169 0.98307 0.0
C1119 C 0.49256 0.91067 0.98 0.0
C1120 C 0.45772 0.92479 0.98367 0.0
C1121 C 0.49935 0.93511 0.98068 0.0
C1122 C 0.46775 0.89298 0.98133 0.0
C1123 C 0.44992 0.89993 0.98294 0.0
O1124 O 0.51114 0.98529 0.96495 0.0
O1125 O 0.52247 0.01475 0.9974 0.0
O1126 O 0.50731 0.04226 0.00409 0.0
O1127 O 0.48329 0.01309 0.98595 0.0
O1128 O 0.53268 0.99415 0.98468 0.0
O1129 O 0.48092 0.99258 0.9653 0.0
O1130 O 0.49354 0.01265 0.04187 0.0
O1131 O 0.48369 0.98839 0.00896 0.0
O1132 O 0.49505 0.95981 0.00425 0.0
O1133 O 0.52432 0.99021 0.01958 0.0
O1134 O 0.47294 0.00753 0.02236 0.0
O1135 O 0.5259 0.00899 0.04103 0.0
C1136 C 0.54076 0.01358 0.99259 0.0
C1137 C 0.4886 0.97874 0.94253 0.0
C1138 C 0.48755 0.98121 0.91526 0.0
C1139 C 0.49537 0.99253 0.92936 0.0
C1140 C 0.47291 0.95583 0.91469 0.0
C1141 C 0.47387 0.95355 0.94164 0.0
C1142 C 0.46612 0.9422 0.92777 0.0
C1143 C 0.49294 0.03495 0.99206 0.0
C1144 C 0.49716 0.99089 0.95709 0.0
C1145 C 0.42463 0.88292 0.98345 0.0
C1146 C 0.40731 0.89072 0.98394 0.0
C1147 C 0.4651 0.98899 0.01364 0.0
C1148 C 0.51572 0.0191 0.06436 0.0
C1149 C 0.50721 0.00452 0.0772 0.0
C1150 C 0.51351 0.01494 0.09163 0.0
C1151 C 0.52838 0.04026 0.09284 0.0
C1152 C 0.53067 0.04418 0.06593 0.0
C1153 C 0.53692 0.05466 0.08011 0.0
C1154 C 0.51172 0.96738 0.01507 0.0
C1155 C 0.50848 0.00802 0.04941 0.0
H1156 H 0.50648 0.01204 0.93014 0.0
H1157 H 0.46692 0.94641 0.90409 0.0
H1158 H 0.46846 0.9427 0.95166 0.0
H1159 H 0.45488 0.92271 0.92714 0.0
H1160 H 0.49589 0.9851 0.0759 0.0
H1161 H 0.53318 0.04908 0.10365 0.0
H1162 H 0.53738 0.05564 0.05621 0.0
H1163 H 0.54831 0.07407 0.08125 0.0
Eu1164 Eu 0.01819 0.50817 0.98934 0.0
C1165 C 0.93963 0.50725 0.02388 0.0
C1166 C 0.95137 0.5412 0.04059 0.0
C1167 C 0.91232 0.52372 0.02729 0.0
C1168 C 0.95659 0.5245 0.0335 0.0
C1169 C 0.91687 0.50611 0.0211 0.0
C1170 C 0.9296 0.54133 0.03697 0.0
C1171 C 0.90358 0.46854 0.00792 0.0
N1172 N 0.94446 0.4903 0.01827 0.0
C1173 C 0.92652 0.47063 0.01082 0.0
C1174 C 0.89889 0.48659 0.01284 0.0
Eu1175 Eu 0.98338 0.49445 0.0241 0.0
N1176 N 0.97698 0.52333 0.03713 0.0
C1177 C 0.99115 0.53613 0.04913 0.0
C1178 C 0.96743 0.55627 0.05175 0.0
C1179 C 0.98712 0.55333 0.05627 0.0
H1180 H 0.9297 0.45645 0.00698 0.0
H1181 H 0.99902 0.5641 0.06535 0.0
H1182 H 0.92542 0.55421 0.04215 0.0
H1183 H 0.88959 0.45306 1.00184 0.0
H1184 H 0.0061 0.53352 0.05283 0.0
H1185 H 0.03837 0.43456 0.9917 0.0
H1186 H 0.96408 0.56934 0.05744 0.0
H1187 H 0.05566 0.56605 0.98025 0.0
H1188 H 0.01224 0.45331 0.99233 0.0
H1189 H 0.10026 0.59465 0.97717 0.0
H1190 H 0.89506 0.52328 0.02516 0.0
H1191 H 0.08344 0.46011 0.98887 0.0
H1192 H 0.1205 0.50167 0.98653 0.0
H1193 H 0.88106 0.48485 0.01063 0.0
H1194 H 0.13749 0.5454 0.98366 0.0
N1195 N 0.04228 0.48921 0.99056 0.0
C1196 C 0.03191 0.4647 0.99141 0.0
C1197 C 0.07214 0.46851 0.98957 0.0
C1198 C 0.08267 0.49362 0.98867 0.0
C1199 C 0.04667 0.454 0.99102 0.0
C1200 C 0.067 0.50355 0.98909 0.0
H1201 H 0.13013 0.5803 0.9802 0.0
N1202 N 0.06064 0.53668 0.98648 0.0
C1203 C 0.09389 0.57606 0.98017 0.0
C1204 C 0.07654 0.52813 0.98731 0.0
C1205 C 0.06874 0.55993 0.98203 0.0
C1206 C 0.11068 0.5679 0.98193 0.0
C1207 C 0.10203 0.54351 0.98509 0.0
O1208 O 0.0167 0.52344 0.96781 0.0
O1209 O 0.98353 0.50344 0.99992 0.0
O1210 O 0.96943 0.45922 0.01125 0.0
O1211 O 0.98468 0.47106 0.98726 0.0
O1212 O 0.0051 0.53514 0.98801 0.0
O1213 O 0.01225 0.48775 0.96865 0.0
O1214 O 0.95508 0.46174 0.03499 0.0
O1215 O 0.0124 0.49065 0.01165 0.0
O1216 O 0.03941 0.53975 0.00516 0.0
O1217 O 0.01066 0.53489 0.02346 0.0
O1218 O 0.0205 0.50384 0.03351 0.0
O1219 O 0.98873 0.48538 0.04677 0.0
C1220 C 0.98484 0.52283 0.99527 0.0
C1221 C 0.0291 0.51013 0.94669 0.0
C1222 C 0.03148 0.5092 0.91954 0.0
C1223 C 0.01755 0.50452 0.93266 0.0
C1224 C 0.05724 0.51969 0.92072 0.0
C1225 C 0.05474 0.52034 0.94763 0.0
C1226 C 0.06872 0.52516 0.93469 0.0
C1227 C 0.96993 0.45472 0.9969 0.0
C1228 C 0.01396 0.50495 0.96013 0.0
C1229 C 0.11785 0.53387 0.9853 0.0
C1230 C 0.10816 0.50894 0.98694 0.0
C1231 C 0.02859 0.49805 0.02193 0.0
C1232 C 0.95258 0.46583 0.06129 0.0
C1233 C 0.96462 0.4724 0.07524 0.0
C1234 C 0.9517 0.47134 0.08833 0.0
C1235 C 0.92636 0.46343 0.08721 0.0
C1236 C 0.92731 0.45818 0.0605 0.0
C1237 C 0.91436 0.45699 0.0734 0.0
C1238 C 0.03203 0.54762 0.01658 0.0
C1239 C 0.9666 0.46695 0.04776 0.0
H1240 H 0.99766 0.49616 0.93201 0.0
H1241 H 0.06853 0.52385 0.91084 0.0
H1242 H 0.06396 0.52454 0.95829 0.0
H1243 H 0.08853 0.53316 0.9355 0.0
H1244 H 0.98419 0.47868 0.07584 0.0
H1245 H 0.91569 0.46192 0.09704 0.0
H1246 H 0.91751 0.45306 0.04994 0.0
H1247 H 0.89487 0.45095 0.0727 0.0
Eu1248 Eu 0.5095 0.48896 0.02062 0.0
C1249 C 0.45771 0.53362 0.9874 0.0
C1250 C 0.41527 0.50124 0.98804 0.0
C1251 C 0.42467 0.54295 0.9899 0.0
C1252 C 0.44072 0.50915 0.98745 0.0
C1253 C 0.4498 0.55079 0.98807 0.0
C1254 C 0.40742 0.5182 0.98983 0.0
C1255 C 0.49151 0.58187 0.98263 0.0
N1256 N 0.48173 0.5406 0.98521 0.0
C1257 C 0.49833 0.56413 0.98183 0.0
C1258 C 0.46723 0.57523 0.9861 0.0
Eu1259 Eu 0.49257 0.50996 0.98654 0.0
N1260 N 0.44892 0.49324 0.98545 0.0
C1261 C 0.43246 0.46953 0.98227 0.0
C1262 C 0.39843 0.47666 0.98598 0.0
C1263 C 0.40708 0.46088 0.98266 0.0
H1264 H 0.51714 0.56923 0.97915 0.0
H1265 H 0.3942 0.44197 0.9805 0.0
H1266 H 0.38798 0.51242 0.99048 0.0
H1267 H 0.50496 0.6006 0.98056 0.0
H1268 H 0.43846 0.45693 0.97951 0.0
H1269 H 0.60852 0.55058 0.02725 0.0
H1270 H 0.37876 0.46988 0.98629 0.0
H1271 H 0.47792 0.42866 0.02385 0.0
H1272 H 0.5648 0.5392 0.02561 0.0
H1273 H 0.48604 0.3945 0.02412 0.0
H1274 H 0.41828 0.55587 0.99066 0.0
H1275 H 0.6205 0.51918 0.02554 0.0
H1276 H 0.60762 0.47518 0.02325 0.0
H1277 H 0.4619 0.58897 0.98657 0.0
H1278 H 0.57432 0.43271 0.0224 0.0
N1279 N 0.55197 0.50166 0.0227 0.0
C1280 C 0.56966 0.52524 0.02489 0.0
C1281 C 0.60124 0.51404 0.02474 0.0
C1282 C 0.58294 0.48979 0.02317 0.0
C1283 C 0.59453 0.53181 0.02581 0.0
C1284 C 0.55811 0.48407 0.02237 0.0
H1285 H 0.52893 0.40244 0.0229 0.0
N1286 N 0.51576 0.45542 0.02218 0.0
C1287 C 0.50122 0.41289 0.02353 0.0
C1288 C 0.53942 0.4602 0.02209 0.0
C1289 C 0.49668 0.43223 0.02344 0.0
C1290 C 0.52545 0.41745 0.0228 0.0
C1291 C 0.54495 0.44134 0.02231 0.0
O1292 O 0.48896 0.47136 0.04077 0.0
O1293 O 0.48149 0.49598 0.00969 0.0
O1294 O 0.50662 0.54065 1.00323 0.0
O1295 O 0.522 0.52882 0.02339 0.0
O1296 O 0.46815 0.46342 0.02049 0.0
O1297 O 0.52118 0.50714 0.04225 0.0
O1298 O 0.50125 0.4947 0.96704 0.0
O1299 O 0.52115 0.50523 0.99812 0.0
O1300 O 0.50665 0.4652 1.00127 0.0
O1301 O 0.47874 0.46927 0.98608 0.0
O1302 O 0.53386 0.53675 0.98652 0.0
O1303 O 0.49315 0.52331 0.964 0.0
C1304 C 0.46197 0.4772 0.0135 0.0
C1305 C 0.51057 0.4826 0.06372 0.0
C1306 C 0.50928 0.48209 0.091 0.0
C1307 C 0.50317 0.4883 0.0772 0.0
C1308 C 0.52295 0.47003 0.09102 0.0
C1309 C 0.52424 0.47069 0.06398 0.0
C1310 C 0.53036 0.46443 0.0776 0.0
C1311 C 0.51787 0.54458 0.01629 0.0
C1312 C 0.50366 0.48914 0.04955 0.0
C1313 C 0.56968 0.44694 0.02236 0.0
C1314 C 0.58864 0.47112 0.02283 0.0
C1315 C 0.54057 0.52399 0.99426 0.0
C1316 C 0.52171 0.52194 0.94739 0.0
C1317 C 0.52113 0.51116 0.93356 0.0
C1318 C 0.54091 0.52274 0.92351 0.0
C1319 C 0.5616 0.54481 0.92774 0.0
C1320 C 0.54227 0.54435 0.95113 0.0
C1321 C 0.56222 0.55549 0.94145 0.0
C1322 C 0.49015 0.45749 0.9904 0.0
C1323 C 0.50065 0.50984 0.95767 0.0
H1324 H 0.49292 0.49784 0.07689 0.0
H1325 H 0.52769 0.46466 0.10139 0.0
H1326 H 0.53009 0.46621 0.0537 0.0
H1327 H 0.54083 0.45513 0.07776 0.0
H1328 H 0.50503 0.49415 0.93049 0.0
H1329 H 0.5773 0.5539 0.9204 0.0
H1330 H 0.54291 0.55349 0.96142 0.0
H1331 H 0.57812 0.57262 0.94451 0.0
Eu1332 Eu 0.15908 0.31713 0.32152 0.0
C1333 C 0.20649 0.41217 0.35942 0.0
C1334 C 0.24988 0.42504 0.35821 0.0
C1335 C 0.23687 0.45501 0.36 0.0
C1336 C 0.22496 0.40656 0.3581 0.0
C1337 C 0.21219 0.43641 0.36086 0.0
C1338 C 0.25571 0.44933 0.35865 0.0
C1339 C 0.16906 0.42184 0.36557 0.0
N1340 N 0.18298 0.39374 0.36043 0.0
C1341 C 0.16441 0.39809 0.3641 0.0
C1342 C 0.19301 0.44112 0.36369 0.0
Eu1343 Eu 0.17585 0.35411 0.35637 0.0
N1344 N 0.21859 0.38292 0.35796 0.0
C1345 C 0.23627 0.37649 0.35943 0.0
C1346 C 0.26813 0.41852 0.35859 0.0
C1347 C 0.26127 0.39414 0.35959 0.0
H1348 H 0.14582 0.3832 0.36537 0.0
H1349 H 0.27522 0.3889 0.36031 0.0
H1350 H 0.27474 0.4638 0.35852 0.0
H1351 H 0.15417 0.42525 0.36808 0.0
H1352 H 0.23129 0.35774 0.36001 0.0
H1353 H 0.05942 0.27833 0.31642 0.0
H1354 H 0.28749 0.43214 0.35869 0.0
H1355 H 0.19275 0.28997 0.31625 0.0
H1356 H 0.10286 0.31103 0.31736 0.0
H1357 H 0.1863 0.24853 0.31498 0.0
H1358 H 0.24164 0.47378 0.36087 0.0
H1359 H 0.04921 0.23563 0.31784 0.0
H1360 H 0.06396 0.20555 0.31875 0.0
H1361 H 0.19659 0.45949 0.36487 0.0
H1362 H 0.09848 0.19743 0.31817 0.0
N1363 N 0.11706 0.2871 0.31946 0.0
C1364 C 0.09865 0.29247 0.31783 0.0
C1365 C 0.06831 0.24991 0.31817 0.0
C1366 C 0.08738 0.24452 0.31894 0.0
C1367 C 0.074 0.27398 0.31731 0.0
C1368 C 0.11192 0.26379 0.31936 0.0
H1369 H 0.14413 0.21333 0.31653 0.0
N1370 N 0.15465 0.27825 0.31872 0.0
C1371 C 0.17068 0.25128 0.31613 0.0
C1372 C 0.1313 0.25921 0.31891 0.0
C1373 C 0.17427 0.27471 0.31681 0.0
C1374 C 0.14684 0.23146 0.31703 0.0
C1375 C 0.12675 0.23526 0.31823 0.0
O1376 O 0.18205 0.32768 0.30169 0.0
O1377 O 0.18679 0.35056 0.33329 0.0
O1378 O 0.1679 0.37483 0.33878 0.0
O1379 O 0.1459 0.34463 0.3208 0.0
O1380 O 0.20034 0.33175 0.32171 0.0
O1381 O 0.14431 0.3196 0.29971 0.0
O1382 O 0.15581 0.3486 0.37728 0.0
O1383 O 0.14786 0.32169 0.3442 0.0
O1384 O 0.16271 0.29529 0.33999 0.0
O1385 O 0.18876 0.32616 0.35631 0.0
O1386 O 0.13439 0.33906 0.35704 0.0
O1387 O 0.18768 0.34403 0.37678 0.0
C1388 C 0.20639 0.35108 0.3294 0.0
C1389 C 0.16341 0.31444 0.27812 0.0
C1390 C 0.1686 0.31866 0.25089 0.0
C1391 C 0.16588 0.32736 0.26491 0.0
C1392 C 0.16832 0.29638 0.25061 0.0
C1393 C 0.16235 0.29204 0.27732 0.0
C1394 C 0.16475 0.28309 0.26363 0.0
C1395 C 0.15401 0.36652 0.32658 0.0
C1396 C 0.16481 0.32579 0.29269 0.0
C1397 C 0.10235 0.21597 0.31853 0.0
C1398 C 0.0827 0.22059 0.31888 0.0
C1399 C 0.12821 0.32063 0.34846 0.0
C1400 C 0.17838 0.35588 0.39973 0.0
C1401 C 0.17123 0.34188 0.41282 0.0
C1402 C 0.17852 0.35299 0.42702 0.0
C1403 C 0.19298 0.37838 0.42776 0.0
C1404 C 0.19292 0.38107 0.4008 0.0
C1405 C 0.20012 0.39223 0.41477 0.0
C1406 C 0.1782 0.30348 0.35141 0.0
C1407 C 0.17059 0.344 0.38504 0.0
H1408 H 0.166 0.34432 0.26578 0.0
H1409 H 0.17137 0.28918 0.24042 0.0
H1410 H 0.1604 0.28183 0.28733 0.0
H1411 H 0.16449 0.26603 0.26314 0.0
H1412 H 0.16025 0.32238 0.41191 0.0
H1413 H 0.19853 0.38765 0.43842 0.0
H1414 H 0.19865 0.39209 0.39086 0.0
H1415 H 0.21122 0.41171 0.41553 0.0
Eu1416 Eu 0.68711 0.84372 0.31929 0.0
C1417 C 0.58807 0.8027 0.35266 0.0
C1418 C 0.57944 0.83566 0.35147 0.0
C1419 C 0.54562 0.79421 0.3519 0.0
C1420 C 0.59651 0.82731 0.35182 0.0
C1421 C 0.56254 0.78597 0.35313 0.0
C1422 C 0.55405 0.81901 0.35112 0.0
C1423 C 0.57221 0.75443 0.358 0.0
N1424 N 0.60476 0.7952 0.35413 0.0
C1425 C 0.59726 0.77171 0.3577 0.0
C1426 C 0.55475 0.76152 0.35543 0.0
Eu1427 Eu 0.64684 0.82514 0.35215 0.0
N1428 N 0.62125 0.84308 0.3521 0.0
C1429 C 0.62981 0.86741 0.3532 0.0
C1430 C 0.58832 0.86053 0.35191 0.0
C1431 C 0.61357 0.87643 0.35291 0.0
H1432 H 0.61078 0.76628 0.35987 0.0
H1433 H 0.62059 0.89572 0.35351 0.0
H1434 H 0.54076 0.82515 0.35064 0.0
H1435 H 0.5664 0.73571 0.3603 0.0
H1436 H 0.6491 0.88036 0.35402 0.0
H1437 H 0.71916 0.77866 0.3143 0.0
H1438 H 0.57582 0.86763 0.35193 0.0
H1439 H 0.71953 0.90403 0.31613 0.0
H1440 H 0.68847 0.79196 0.31566 0.0
H1441 H 0.76313 0.93679 0.31626 0.0
H1442 H 0.52597 0.78161 0.35205 0.0
H1443 H 0.76356 0.80866 0.316 0.0
H1444 H 0.79692 0.85202 0.31869 0.0
H1445 H 0.53532 0.74814 0.35581 0.0
H1446 H 0.80889 0.89504 0.31956 0.0
N1447 N 0.71514 0.82911 0.31872 0.0
C1448 C 0.70776 0.80526 0.31659 0.0
C1449 C 0.75016 0.81459 0.31691 0.0
C1450 C 0.75766 0.8391 0.31862 0.0
C1451 C 0.72512 0.79762 0.3158 0.0
C1452 C 0.73947 0.84593 0.31933 0.0
H1453 H 0.79644 0.92683 0.31849 0.0
N1454 N 0.72827 0.87609 0.3189 0.0
C1455 C 0.75864 0.91814 0.31722 0.0
C1456 C 0.74625 0.87016 0.31955 0.0
C1457 C 0.73403 0.8996 0.31712 0.0
C1458 C 0.77738 0.91244 0.31854 0.0
C1459 C 0.77134 0.8882 0.3194 0.0
O1460 O 0.68794 0.8619 0.29856 0.0
O1461 O 0.65149 0.83823 0.32864 0.0
O1462 O 0.62886 0.79408 0.33569 0.0
O1463 O 0.65734 0.80423 0.31632 0.0
O1464 O 0.67309 0.87021 0.3175 0.0
O1465 O 0.68231 0.82548 0.29787 0.0
O1466 O 0.67105 0.83938 0.37174 0.0
O1467 O 0.68029 0.82789 0.34196 0.0
O1468 O 0.70787 0.86759 0.33885 0.0
O1469 O 0.67545 0.86551 0.35254 0.0
O1470 O 0.65882 0.79677 0.35357 0.0
O1471 O 0.63241 0.81466 0.37473 0.0
C1472 C 0.6522 0.85718 0.32397 0.0
C1473 C 0.7017 0.85059 0.27719 0.0
C1474 C 0.70627 0.85205 0.25014 0.0
C1475 C 0.69126 0.84567 0.26287 0.0
C1476 C 0.73199 0.86333 0.25201 0.0
C1477 C 0.72734 0.86178 0.27886 0.0
C1478 C 0.7424 0.8681 0.2663 0.0
C1479 C 0.6364 0.78927 0.32306 0.0
C1480 C 0.68541 0.84408 0.29015 0.0
C1481 C 0.78952 0.88145 0.31956 0.0
C1482 C 0.78269 0.85696 0.31907 0.0
C1483 C 0.67916 0.80862 0.34628 0.0
C1484 C 0.65967 0.81331 0.39239 0.0
C1485 C 0.6691 0.82416 0.4063 0.0
C1486 C 0.6746 0.8119 0.41732 0.0
C1487 C 0.6711 0.78882 0.41405 0.0
C1488 C 0.65572 0.79002 0.38948 0.0
C1489 C 0.6617 0.77799 0.40021 0.0
C1490 C 0.69913 0.87639 0.34895 0.0
C1491 C 0.65382 0.82648 0.38119 0.0
H1492 H 0.67138 0.83664 0.26168 0.0
H1493 H 0.74407 0.8687 0.24244 0.0
H1494 H 0.73571 0.86569 0.28979 0.0
H1495 H 0.7622 0.87682 0.26765 0.0
H1496 H 0.67156 0.84191 0.40866 0.0
H1497 H 0.67559 0.77911 0.42221 0.0
H1498 H 0.64779 0.78096 0.37903 0.0
H1499 H 0.65884 0.76013 0.39784 0.0
Eu1500 Eu 0.17122 0.81894 0.35344 0.0
C1501 C 0.1267 0.87071 0.31734 0.0
C1502 C 0.08285 0.84271 0.31903 0.0
C1503 C 0.098 0.88589 0.31768 0.0
C1504 C 0.10734 0.84731 0.31872 0.0
C1505 C 0.12221 0.89021 0.31635 0.0
C1506 C 0.07834 0.86216 0.31903 0.0
C1507 C 0.16545 0.91627 0.31099 0.0
N1508 N 0.1498 0.8742 0.31592 0.0
C1509 C 0.16892 0.89631 0.31198 0.0
C1510 C 0.14208 0.9133 0.31348 0.0
Eu1511 Eu 0.15445 0.83988 0.31908 0.0
N1512 N 0.11234 0.82895 0.31852 0.0
C1513 C 0.09371 0.80558 0.31706 0.0
C1514 C 0.06364 0.81869 0.31865 0.0
C1515 C 0.0691 0.80007 0.3173 0.0
H1516 H 0.18699 0.89861 0.31007 0.0
H1517 H 0.05438 0.78146 0.31658 0.0
H1518 H 0.05967 0.85899 0.31951 0.0
H1519 H 0.18079 0.93392 0.30834 0.0
H1520 H 0.09774 0.79105 0.31617 0.0
H1521 H 0.26955 0.88504 0.35912 0.0
H1522 H 0.04458 0.81438 0.3188 0.0
H1523 H 0.14353 0.76001 0.36089 0.0
H1524 H 0.22531 0.87126 0.35777 0.0
H1525 H 0.154 0.72747 0.36275 0.0
H1526 H 0.0942 0.90067 0.31716 0.0
H1527 H 0.28399 0.85547 0.35763 0.0
H1528 H 0.27355 0.81204 0.35647 0.0
H1529 H 0.13942 0.92877 0.31264 0.0
H1530 H 0.24198 0.76894 0.35734 0.0
N1531 N 0.21437 0.83403 0.35519 0.0
C1532 C 0.23112 0.858 0.35714 0.0
C1533 C 0.26445 0.84924 0.35696 0.0
C1534 C 0.24716 0.8246 0.35584 0.0
C1535 C 0.25636 0.86597 0.35791 0.0
C1536 C 0.22192 0.81747 0.35516 0.0
H1537 H 0.19732 0.73721 0.36 0.0
N1538 N 0.1803 0.78739 0.35644 0.0
C1539 C 0.16832 0.74589 0.36069 0.0
C1540 C 0.20426 0.79332 0.35575 0.0
C1541 C 0.16245 0.7643 0.35965 0.0
C1542 C 0.19277 0.75145 0.35906 0.0
C1543 C 0.21119 0.7755 0.35693 0.0
O1544 O 0.15105 0.80204 0.37385 0.0
O1545 O 0.14328 0.82527 0.3421 0.0
O1546 O 0.16344 0.86896 0.3362 0.0
O1547 O 0.18274 0.85901 0.35513 0.0
O1548 O 0.12991 0.7934 0.35373 0.0
O1549 O 0.18202 0.83852 0.37467 0.0
O1550 O 0.17639 0.85005 0.29877 0.0
O1551 O 0.18203 0.833 0.33039 0.0
O1552 O 0.16335 0.79086 0.33558 0.0
O1553 O 0.14089 0.79933 0.31801 0.0
O1554 O 0.19593 0.86479 0.31857 0.0
O1555 O 0.13772 0.8235 0.29748 0.0
C1556 C 0.12371 0.80673 0.34619 0.0
C1557 C 0.1731 0.81521 0.39655 0.0
C1558 C 0.17323 0.81654 0.42382 0.0
C1559 C 0.16616 0.82156 0.40995 0.0
C1560 C 0.18739 0.80498 0.42398 0.0
C1561 C 0.18736 0.8039 0.39696 0.0
C1562 C 0.19441 0.79879 0.41063 0.0
C1563 C 0.17639 0.87377 0.34867 0.0
C1564 C 0.16522 0.8205 0.3823 0.0
C1565 C 0.23628 0.78238 0.35662 0.0
C1566 C 0.25424 0.80691 0.35611 0.0
C1567 C 0.20179 0.85137 0.32634 0.0
C1568 C 0.15662 0.84715 0.27597 0.0
C1569 C 0.16214 0.83948 0.26257 0.0
C1570 C 0.16487 0.85202 0.24909 0.0
C1571 C 0.1614 0.87225 0.24952 0.0
C1572 C 0.15215 0.86654 0.27587 0.0
C1573 C 0.1546 0.87904 0.2627 0.0
C1574 C 0.14903 0.78537 0.32362 0.0
C1575 C 0.15803 0.8362 0.29006 0.0
H1576 H 0.1555 0.8307 0.40952 0.0
H1577 H 0.19284 0.80048 0.43442 0.0
H1578 H 0.19297 0.79901 0.38674 0.0
H1579 H 0.2053 0.78993 0.4109 0.0
H1580 H 0.16446 0.8238 0.26288 0.0
H1581 H 0.16422 0.88325 0.23978 0.0
H1582 H 0.14725 0.87231 0.28598 0.0
H1583 H 0.15173 0.89441 0.26277 0.0
Eu1584 Eu 0.82642 0.64852 0.65334 0.0
C1585 C 0.87351 0.74363 0.69105 0.0
C1586 C 0.91729 0.75798 0.69032 0.0
C1587 C 0.90269 0.7868 0.69135 0.0
C1588 C 0.89266 0.73887 0.69016 0.0
C1589 C 0.87826 0.76763 0.69196 0.0
C1590 C 0.92219 0.78199 0.69053 0.0
C1591 C 0.83452 0.75181 0.69509 0.0
N1592 N 0.85018 0.72468 0.69166 0.0
C1593 C 0.83078 0.72833 0.69418 0.0
C1594 C 0.85834 0.77157 0.69378 0.0
Eu1595 Eu 0.84501 0.6856 0.68832 0.0
N1596 N 0.88724 0.71549 0.69001 0.0
C1597 C 0.90555 0.70991 0.69133 0.0
C1598 C 0.93621 0.75237 0.69074 0.0
C1599 C 0.93029 0.72823 0.69156 0.0
H1600 H 0.8123 0.71311 0.69499 0.0
H1601 H 0.94476 0.72369 0.6922 0.0
H1602 H 0.94098 0.79692 0.69045 0.0
H1603 H 0.81904 0.75466 0.69671 0.0
H1604 H 0.90123 0.69133 0.69176 0.0
H1605 H 0.72679 0.61122 0.64899 0.0
H1606 H 0.95537 0.76651 0.69088 0.0
H1607 H 0.85873 0.62059 0.64677 0.0
H1608 H 0.77038 0.64329 0.64966 0.0
H1609 H 0.85165 0.57892 0.64504 0.0
H1610 H 0.90673 0.80539 0.69187 0.0
H1611 H 0.71579 0.56827 0.65017 0.0
H1612 H 0.72979 0.53758 0.65065 0.0
H1613 H 0.86119 0.78973 0.69449 0.0
H1614 H 0.76381 0.52875 0.64941 0.0
N1615 N 0.7841 0.61889 0.65139 0.0
C1616 C 0.76594 0.62467 0.65003 0.0
C1617 C 0.735 0.5823 0.65041 0.0
C1618 C 0.75376 0.57648 0.6509 0.0
C1619 C 0.74114 0.60651 0.64967 0.0
C1620 C 0.77845 0.59545 0.65117 0.0
H1621 H 0.80932 0.54407 0.64704 0.0
N1622 N 0.82086 0.60931 0.64987 0.0
C1623 C 0.83624 0.58192 0.64657 0.0
C1624 C 0.79747 0.59049 0.65037 0.0
C1625 C 0.84018 0.60547 0.64747 0.0
C1626 C 0.81233 0.56229 0.64775 0.0
C1627 C 0.79252 0.56643 0.64945 0.0
O1628 O 0.84612 0.65442 0.63228 0.0
O1629 O 0.85491 0.68125 0.66518 0.0
O1630 O 0.83952 0.70685 0.67015 0.0
O1631 O 0.81256 0.67552 0.65433 0.0
O1632 O 0.86782 0.66358 0.65206 0.0
O1633 O 0.81381 0.65834 0.63315 0.0
O1634 O 0.82522 0.67931 0.70936 0.0
O1635 O 0.81666 0.65285 0.67649 0.0
O1636 O 0.83187 0.62725 0.67154 0.0
O1637 O 0.85871 0.65847 0.68747 0.0
O1638 O 0.80351 0.67011 0.68978 0.0
O1639 O 0.8586 0.67723 0.70868 0.0
C1640 C 0.87429 0.68213 0.66056 0.0
C1641 C 0.82359 0.64781 0.60985 0.0
C1642 C 0.82485 0.65203 0.58263 0.0
C1643 C 0.83147 0.66244 0.59703 0.0
C1644 C 0.81004 0.62673 0.58139 0.0
C1645 C 0.80888 0.6227 0.6083 0.0
C1646 C 0.80214 0.61226 0.59412 0.0
C1647 C 0.82309 0.69819 0.65919 0.0
C1648 C 0.83108 0.65898 0.62475 0.0
C1649 C 0.76801 0.54738 0.64994 0.0
C1650 C 0.74864 0.55241 0.65066 0.0
C1651 C 0.7972 0.65169 0.68118 0.0
C1652 C 0.84826 0.68808 0.7317 0.0
C1653 C 0.84112 0.67417 0.74483 0.0
C1654 C 0.84744 0.68543 0.75903 0.0
C1655 C 0.86098 0.71088 0.75971 0.0
C1656 C 0.86188 0.71333 0.73272 0.0
C1657 C 0.86818 0.72463 0.74667 0.0
C1658 C 0.84817 0.63582 0.68257 0.0
C1659 C 0.84102 0.67604 0.71703 0.0
H1660 H 0.84303 0.68185 0.59827 0.0
H1661 H 0.80425 0.61811 0.57056 0.0
H1662 H 0.80264 0.61122 0.61805 0.0
H1663 H 0.79071 0.59285 0.59298 0.0
H1664 H 0.83084 0.65463 0.74395 0.0
H1665 H 0.86574 0.72028 0.77033 0.0
H1666 H 0.8675 0.72428 0.72274 0.0
H1667 H 0.87854 0.74416 0.7474 0.0
Eu1668 Eu 0.35597 0.17395 0.6533 0.0
C1669 C 0.25612 0.13144 0.68714 0.0
C1670 C 0.24402 0.16196 0.68574 0.0
C1671 C 0.21268 0.11951 0.68714 0.0
C1672 C 0.26247 0.15544 0.68589 0.0
C1673 C 0.23117 0.11322 0.68806 0.0
C1674 C 0.2191 0.14385 0.68604 0.0
C1675 C 0.2447 0.08427 0.69224 0.0
N1676 N 0.27443 0.12604 0.68832 0.0
C1677 C 0.26917 0.10301 0.69145 0.0
C1678 C 0.2256 0.08934 0.69036 0.0
Eu1679 Eu 0.31534 0.15854 0.68614 0.0
N1680 N 0.28672 0.17251 0.68563 0.0
C1681 C 0.29381 0.1965 0.68599 0.0
C1682 C 0.2512 0.18651 0.68571 0.0
C1683 C 0.2762 0.20385 0.68588 0.0
H1684 H 0.28391 0.09902 0.69285 0.0
H1685 H 0.28192 0.22289 0.68599 0.0
H1686 H 0.20467 0.1485 0.68573 0.0
H1687 H 0.24059 0.06594 0.6943 0.0
H1688 H 0.31305 0.21011 0.68616 0.0
H1689 H 0.38863 0.10907 0.65175 0.0
H1690 H 0.23761 0.19226 0.68595 0.0
H1691 H 0.38753 0.23361 0.64711 0.0
H1692 H 0.35785 0.12216 0.65313 0.0
H1693 H 0.43084 0.26647 0.64509 0.0
H1694 H 0.19339 0.10576 0.68769 0.0
H1695 H 0.43292 0.13943 0.6504 0.0
H1696 H 0.46615 0.18306 0.65062 0.0
H1697 H 0.20666 0.07481 0.69106 0.0
H1698 H 0.4777 0.22593 0.6493 0.0
N1699 N 0.38438 0.15972 0.65322 0.0
C1700 C 0.3771 0.13569 0.65281 0.0
C1701 C 0.41952 0.14534 0.65144 0.0
C1702 C 0.42691 0.16993 0.65175 0.0
C1703 C 0.39452 0.12815 0.65203 0.0
C1704 C 0.40864 0.17665 0.65242 0.0
H1705 H 0.46467 0.25719 0.64711 0.0
N1706 N 0.39691 0.2063 0.65087 0.0
C1707 C 0.42668 0.24806 0.64691 0.0
C1708 C 0.41512 0.20071 0.65143 0.0
C1709 C 0.40221 0.22944 0.64803 0.0
C1710 C 0.44573 0.24277 0.64811 0.0
C1711 C 0.44006 0.21879 0.65008 0.0
O1712 O 0.3537 0.18772 0.63146 0.0
O1713 O 0.32153 0.17079 0.66256 0.0
O1714 O 0.29426 0.13144 0.66797 0.0
O1715 O 0.32667 0.13371 0.65402 0.0
O1716 O 0.34234 0.20056 0.64953 0.0
O1717 O 0.34852 0.15164 0.63331 0.0
O1718 O 0.3173 0.1449 0.70808 0.0
O1719 O 0.34977 0.16175 0.67686 0.0
O1720 O 0.37711 0.201 0.67151 0.0
O1721 O 0.34474 0.19873 0.68554 0.0
O1722 O 0.32941 0.13226 0.69016 0.0
O1723 O 0.3218 0.1807 0.70609 0.0
C1724 C 0.32213 0.18914 0.65693 0.0
C1725 C 0.36525 0.17273 0.61087 0.0
C1726 C 0.3676 0.1724 0.5837 0.0
C1727 C 0.35376 0.16789 0.59685 0.0
C1728 C 0.39321 0.18175 0.58488 0.0
C1729 C 0.39074 0.18194 0.61183 0.0
C1730 C 0.40463 0.18641 0.59887 0.0
C1731 C 0.30315 0.12252 0.65801 0.0
C1732 C 0.35037 0.1685 0.62432 0.0
C1733 C 0.45843 0.21229 0.65021 0.0
C1734 C 0.45185 0.18788 0.65095 0.0
C1735 C 0.34947 0.14362 0.6826 0.0
C1736 C 0.30428 0.15924 0.7283 0.0
C1737 C 0.31482 0.16299 0.74257 0.0
C1738 C 0.30013 0.15798 0.75537 0.0
C1739 C 0.27471 0.14913 0.75366 0.0
C1740 C 0.27893 0.15057 0.7268 0.0
C1741 C 0.26423 0.14553 0.73944 0.0
C1742 C 0.36825 0.20993 0.6815 0.0
C1743 C 0.31991 0.16392 0.71516 0.0
H1744 H 0.33397 0.16042 0.59622 0.0
H1745 H 0.40447 0.18575 0.575 0.0
H1746 H 0.3999 0.18575 0.62253 0.0
H1747 H 0.42434 0.19364 0.59967 0.0
H1748 H 0.33439 0.16949 0.7437 0.0
H1749 H 0.263 0.14534 0.76332 0.0
H1750 H 0.27051 0.14765 0.71591 0.0
H1751 H 0.24467 0.13883 0.7382 0.0
Eu1752 Eu 0.8477 0.1596 0.68936 0.0
C1753 C 0.79302 0.20027 0.65101 0.0
C1754 C 0.74975 0.17017 0.65269 0.0
C1755 C 0.76201 0.21251 0.64963 0.0
C1756 C 0.77478 0.17647 0.65281 0.0
C1757 C 0.78685 0.21853 0.64912 0.0
C1758 C 0.74349 0.18837 0.65139 0.0
C1759 C 0.83005 0.24696 0.64523 0.0
N1760 N 0.81679 0.20543 0.65048 0.0
C1761 C 0.83522 0.22819 0.64707 0.0
C1762 C 0.80579 0.24217 0.64644 0.0
Eu1763 Eu 0.82429 0.17309 0.65479 0.0
N1764 N 0.78147 0.15935 0.65409 0.0
C1765 C 0.76398 0.13541 0.65434 0.0
C1766 C 0.73177 0.14573 0.65355 0.0
C1767 C 0.73892 0.12827 0.65426 0.0
H1768 H 0.85402 0.23201 0.64624 0.0
H1769 H 0.72514 0.10929 0.65476 0.0
H1770 H 0.72437 0.1839 0.65146 0.0
H1771 H 0.84477 0.2651 0.64291 0.0
H1772 H 0.76919 0.12171 0.65496 0.0
H1773 H 0.94642 0.22483 0.69087 0.0
H1774 H 0.71235 0.14013 0.65335 0.0
H1775 H 0.81871 0.10054 0.69735 0.0
H1776 H 0.90223 0.21154 0.68949 0.0
H1777 H 0.82868 0.06794 0.7008 0.0
H1778 H 0.75691 0.22632 0.64835 0.0
H1779 H 0.95998 0.19467 0.69302 0.0
H1780 H 0.94885 0.15109 0.69434 0.0
H1781 H 0.80182 0.25673 0.64498 0.0
H1782 H 0.91682 0.10834 0.69674 0.0
N1783 N 0.89065 0.17403 0.69028 0.0
C1784 C 0.90778 0.1981 0.69028 0.0
C1785 C 0.94052 0.18866 0.69212 0.0
C1786 C 0.9229 0.16406 0.69247 0.0
C1787 C 0.93292 0.20575 0.69104 0.0
C1788 C 0.89775 0.15724 0.69173 0.0
H1789 H 0.87198 0.07719 0.69931 0.0
N1790 N 0.85588 0.12765 0.69347 0.0
C1791 C 0.84323 0.08622 0.69863 0.0
C1792 C 0.8798 0.13327 0.69323 0.0
C1793 C 0.83766 0.1047 0.69672 0.0
C1794 C 0.86768 0.0915 0.69774 0.0
C1795 C 0.88639 0.11534 0.69529 0.0
O1796 O 0.83025 0.1472 0.71107 0.0
O1797 O 0.81692 0.16207 0.67862 0.0
O1798 O 0.82995 0.20125 0.67192 0.0
O1799 O 0.85917 0.19961 0.68733 0.0
O1800 O 0.8069 0.13306 0.69252 0.0
O1801 O 0.86203 0.18299 0.70904 0.0
O1802 O 0.84257 0.18464 0.63325 0.0
O1803 O 0.85499 0.17051 0.66557 0.0
O1804 O 0.84169 0.13132 0.6721 0.0
O1805 O 0.81232 0.13308 0.65693 0.0
O1806 O 0.86521 0.19957 0.65171 0.0
O1807 O 0.80898 0.15012 0.635 0.0
C1808 C 0.79862 0.14399 0.6843 0.0
C1809 C 0.8558 0.16331 0.73224 0.0
C1810 C 0.85684 0.16487 0.75953 0.0
C1811 C 0.84826 0.16864 0.7458 0.0
C1812 C 0.87306 0.15559 0.75939 0.0
C1813 C 0.87208 0.15427 0.73238 0.0
C1814 C 0.88064 0.15043 0.74591 0.0
C1815 C 0.8473 0.21056 0.68231 0.0
C1816 C 0.84611 0.1668 0.71809 0.0
C1817 C 0.91138 0.12188 0.69529 0.0
C1818 C 0.92962 0.14621 0.69394 0.0
C1819 C 0.87339 0.18855 0.65995 0.0
C1820 C 0.81762 0.17028 0.61178 0.0
C1821 C 0.82686 0.16638 0.59843 0.0
C1822 C 0.82015 0.17179 0.58457 0.0
C1823 C 0.80394 0.18105 0.58431 0.0
C1824 C 0.80143 0.17943 0.61129 0.0
C1825 C 0.79462 0.18476 0.59759 0.0
C1826 C 0.82412 0.12202 0.66182 0.0
C1827 C 0.82591 0.16565 0.62611 0.0
H1828 H 0.8359 0.17593 0.7456 0.0
H1829 H 0.87969 0.15202 0.7697 0.0
H1830 H 0.87807 0.15007 0.72208 0.0
H1831 H 0.8931 0.14329 0.74595 0.0
H1832 H 0.83961 0.15956 0.59887 0.0
H1833 H 0.79821 0.18512 0.57382 0.0
H1834 H 0.79418 0.18257 0.62146 0.0
H1835 H 0.7821 0.19181 0.59726 0.0
C1836 C 0.35192 0.90303 0.06066 0.0
C1837 C 0.33522 0.87958 0.05542 0.0
C1838 C 0.3728 0.9189 0.05246 0.0
C1839 C 0.37633 0.91214 0.03804 0.0
C1840 C 0.35926 0.88909 0.03228 0.0
C1841 C 0.33947 0.87285 0.04119 0.0
C1842 C 0.39117 0.94295 0.05934 0.0
C1843 C 0.36155 0.88181 0.01657 0.0
C1844 C 0.41964 0.96806 0.01634 0.0
C1845 C 0.44152 0.96724 0.01695 0.0
C1846 C 0.39757 0.94882 0.02174 0.0
C1847 C 0.39796 0.92943 0.02912 0.0
C1848 C 0.42004 0.9284 0.02956 0.0
C1849 C 0.44145 0.94711 0.02315 0.0
C1850 C 0.3741 0.9498 0.02009 0.0
C1851 C 0.42175 0.90882 0.03796 0.0
H1852 H 0.34891 0.90939 0.07119 0.0
H1853 H 0.32753 0.85489 0.03683 0.0
H1854 H 0.41019 0.94609 0.0582 0.0
H1855 H 0.39038 0.95779 0.05345 0.0
H1856 H 0.38754 0.94406 0.07136 0.0
H1857 H 0.34737 0.86285 0.01393 0.0
H1858 H 0.35953 0.89393 0.00856 0.0
H1859 H 0.38003 0.88394 0.01477 0.0
H1860 H 0.41985 0.9838 0.01166 0.0
H1861 H 0.45859 0.9469 0.02407 0.0
H1862 H 0.3698 0.95564 0.03078 0.0
H1863 H 0.35838 0.93168 0.01725 0.0
H1864 H 0.37574 0.96276 0.0113 0.0
H1865 H 0.42033 0.91136 0.05011 0.0
H1866 H 0.43941 0.90919 0.03587 0.0
H1867 H 0.40634 0.89069 0.03491 0.0
C1868 C 0.13487 0.46458 0.03863 0.0
C1869 C 0.14076 0.46929 0.05387 0.0
C1870 C 0.11715 0.46889 0.0319 0.0
C1871 C 0.10438 0.47762 0.0406 0.0
C1872 C 0.10979 0.48191 0.05605 0.0
C1873 C 0.12803 0.47796 0.06245 0.0
C1874 C 0.11228 0.4643 0.01542 0.0
C1875 C 0.09629 0.49073 0.06586 0.0
C1876 C 0.07296 0.51057 0.02443 0.0
C1877 C 0.04834 0.49208 0.02369 0.0
C1878 C 0.09164 0.50576 0.02889 0.0
C1879 C 0.08531 0.48219 0.03366 0.0
C1880 C 0.06037 0.46342 0.03279 0.0
C1881 C 0.04223 0.46858 0.02772 0.0
C1882 C 0.11804 0.5261 0.02899 0.0
C1883 C 0.05259 0.43821 0.0381 0.0
H1884 H 0.14404 0.45734 0.0319 0.0
H1885 H 0.13252 0.48202 0.07417 0.0
H1886 H 0.09284 0.45013 0.0135 0.0
H1887 H 0.1152 0.48104 0.00996 0.0
H1888 H 0.12444 0.45847 0.01006 0.0
H1889 H 0.10174 0.49205 0.07778 0.0
H1890 H 0.1001 0.5088 0.06211 0.0
H1891 H 0.07611 0.47831 0.0649 0.0
H1892 H 0.07754 0.52888 0.02169 0.0
H1893 H 0.02302 0.45449 0.02762 0.0
H1894 H 0.13005 0.52025 0.02348 0.0
H1895 H 0.12459 0.53109 0.04067 0.0
H1896 H 0.12019 0.54241 0.02322 0.0
H1897 H 0.06386 0.43137 0.03275 0.0
H1898 H 0.03283 0.42532 0.03572 0.0
H1899 H 0.0557 0.4386 0.05032 0.0
C1900 C 0.5271 0.6633 0.04948 0.0
C1901 C 0.55042 0.68022 0.05502 0.0
C1902 C 0.52267 0.6411 0.04362 0.0
C1903 C 0.54211 0.63584 0.04319 0.0
C1904 C 0.5657 0.65285 0.04878 0.0
C1905 C 0.56954 0.67483 0.05471 0.0
C1906 C 0.49721 0.62328 0.03787 0.0
C1907 C 0.58692 0.64796 0.04831 0.0
C1908 C 0.52421 0.56992 0.03884 0.0
C1909 C 0.52621 0.56822 0.02339 0.0
C1910 C 0.52979 0.592 0.04553 0.0
C1911 C 0.53781 0.61275 0.03652 0.0
C1912 C 0.54077 0.61125 0.02098 0.0
C1913 C 0.53491 0.58895 0.01461 0.0
C1914 C 0.52625 0.59291 0.06213 0.0
C1915 C 0.54955 0.63303 0.01103 0.0
H1916 H 0.51223 0.66734 0.0499 0.0
H1917 H 0.58764 0.68801 0.05888 0.0
H1918 H 0.49805 0.6197 0.02582 0.0
H1919 H 0.49003 0.60579 0.04375 0.0
H1920 H 0.48397 0.6299 0.03936 0.0
H1921 H 0.60402 0.66294 0.05331 0.0
H1922 H 0.58203 0.63105 0.05438 0.0
H1923 H 0.59073 0.64531 0.03658 0.0
H1924 H 0.51739 0.55382 0.04562 0.0
H1925 H 0.53713 0.58773 1.00273 0.0
H1926 H 0.51156 0.59742 0.06423 0.0
H1927 H 0.54339 0.60733 0.06739 0.0
H1928 H 0.52108 0.57546 0.06764 0.0
H1929 H 0.53599 0.63938 0.01113 0.0
H1930 H 0.55209 0.62904 0.9993 0.0
H1931 H 0.56728 0.64809 0.01527 0.0
C1932 C 0.85635 0.33255 0.96645 0.0
C1933 C 0.86338 0.31693 0.95995 0.0
C1934 C 0.87387 0.35445 0.97304 0.0
C1935 C 0.89898 0.36073 0.97328 0.0
C1936 C 0.90613 0.34481 0.96697 0.0
C1937 C 0.88824 0.32315 0.96026 0.0
C1938 C 0.86559 0.37114 0.97942 0.0
C1939 C 0.93269 0.35077 0.96717 0.0
C1940 C 0.94655 0.42735 0.97572 0.0
C1941 C 0.9524 0.43039 0.99099 0.0
C1942 C 0.92932 0.40476 0.96983 0.0
C1943 C 0.91788 0.38457 0.9794 0.0
C1944 C 0.92399 0.38736 0.99479 0.0
C1945 C 0.94104 0.41034 1.00044 0.0
C1946 C 0.923 0.40263 0.95341 0.0
C1947 C 0.91241 0.36613 0.00527 0.0
H1948 H 0.83716 0.32785 0.9661 0.0
H1949 H 0.89364 0.31095 0.95538 0.0
H1950 H 0.87132 0.37528 0.99128 0.0
H1951 H 0.87455 0.38853 0.97331 0.0
H1952 H 0.84529 0.36329 0.9787 0.0
H1953 H 0.93499 0.33586 0.96255 0.0
H1954 H 0.94406 0.36729 0.96054 0.0
H1955 H 0.93998 0.35464 0.97876 0.0
H1956 H 0.95505 0.4428 0.96835 0.0
H1957 H 0.94556 0.41256 0.01223 0.0
H1958 H 0.90308 0.39628 0.95195 0.0
H1959 H 0.92661 0.38903 0.94805 0.0
H1960 H 0.93372 0.42007 0.94747 0.0
H1961 H 0.8922 0.35876 0.00567 0.0
H1962 H 0.91996 0.37111 0.01678 0.0
H1963 H 0.91549 0.35146 1.00113 0.0
C1964 C 0.66464 0.52353 0.9706 0.0
C1965 C 0.67311 0.5361 0.95702 0.0
C1966 C 0.64333 0.52071 0.97766 0.0
C1967 C 0.62897 0.52933 0.97066 0.0
C1968 C 0.63638 0.54074 0.95661 0.0
C1969 C 0.65858 0.54464 0.95022 0.0
C1970 C 0.63691 0.50947 0.99296 0.0
C1971 C 0.62089 0.54904 0.94831 0.0
C1972 C 0.56234 0.50415 0.98297 0.0
C1973 C 0.56351 0.52418 0.99022 0.0
C1974 C 0.58348 0.50546 0.97662 0.0
C1975 C 0.60654 0.52701 0.97812 0.0
C1976 C 0.60793 0.54683 0.98614 0.0
C1977 C 0.58625 0.54549 0.99159 0.0
C1978 C 0.58084 0.48422 0.96766 0.0
C1979 C 0.63226 0.56961 0.98881 0.0
H1980 H 0.67461 0.51584 0.97597 0.0
H1981 H 0.66448 0.55477 0.93997 0.0
H1982 H 0.64134 0.52393 1.00133 0.0
H1983 H 0.61696 0.49625 0.99387 0.0
H1984 H 0.64744 0.50028 0.99589 0.0
H1985 H 0.62746 0.55478 0.93674 0.0
H1986 H 0.60137 0.5343 0.94783 0.0
H1987 H 0.62134 0.56449 0.95429 0.0
H1988 H 0.54463 0.48791 0.98146 0.0
H1989 H 0.58705 0.56106 0.99703 0.0
H1990 H 0.59351 0.47824 0.972 0.0
H1991 H 0.58603 0.48978 0.9559 0.0
H1992 H 0.56174 0.46861 0.96786 0.0
H1993 H 0.6461 0.56507 0.99309 0.0
H1994 H 0.63061 0.58192 0.99692 0.0
H1995 H 0.63932 0.57941 0.97816 0.0
C1996 C 0.43214 0.10203 0.95065 0.0
C1997 C 0.44906 0.12607 0.94711 0.0
C1998 C 0.43964 0.08779 0.95848 0.0
C1999 C 0.46473 0.09774 0.96259 0.0
C2000 C 0.4819 0.12202 0.959 0.0
C2001 C 0.4738 0.13598 0.95141 0.0
C2002 C 0.42073 0.06209 0.96233 0.0
C2003 C 0.50887 0.1331 0.96295 0.0
C2004 C 0.48087 0.06675 0.9931 0.0
C2005 C 0.487 0.05201 0.98472 0.0
C2006 C 0.47374 0.08192 0.98606 0.0
C2007 C 0.47309 0.0825 0.97027 0.0
C2008 C 0.47987 0.06803 0.96177 0.0
C2009 C 0.4865 0.05276 0.96912 0.0
C2010 C 0.46624 0.09679 0.9955 0.0
C2011 C 0.4799 0.06848 0.94493 0.0
H2012 H 0.41297 0.09449 0.94744 0.0
H2013 H 0.4869 0.15454 0.94857 0.0
H2014 H 0.42541 0.04937 0.95678 0.0
H2015 H 0.42086 0.05929 0.97454 0.0
H2016 H 0.4018 0.05743 0.95888 0.0
H2017 H 0.51979 0.15229 0.95946 0.0
H2018 H 0.51111 0.13213 0.97517 0.0
H2019 H 0.5166 0.12273 0.9575 0.0
H2020 H 0.48071 0.06575 0.00514 0.0
H2021 H 0.49143 0.04144 0.96264 0.0
H2022 H 0.44662 0.09103 0.9933 0.0
H2023 H 0.47727 0.11616 0.99249 0.0
H2024 H 0.46864 0.09493 0.00762 0.0
H2025 H 0.46095 0.06204 0.94069 0.0
H2026 H 0.48678 0.05698 0.94001 0.0
H2027 H 0.4916 0.08728 0.94094 0.0
C2028 C 0.67329 0.1224 0.96739 0.0
C2029 C 0.67166 0.1237 0.9518 0.0
C2030 C 0.6527 0.10659 0.97589 0.0
C2031 C 0.62999 0.09141 0.96863 0.0
C2032 C 0.62807 0.09286 0.95296 0.0
C2033 C 0.64883 0.1091 0.94477 0.0
C2034 C 0.65528 0.10604 0.99261 0.0
C2035 C 0.60419 0.07681 0.94477 0.0
C2036 C 0.58412 0.03066 0.98476 0.0
C2037 C 0.56499 0.03461 0.98914 0.0
C2038 C 0.60589 0.04935 0.9787 0.0
C2039 C 0.60867 0.07263 0.97713 0.0
C2040 C 0.59002 0.0771 0.98243 0.0
C2041 C 0.56814 0.05788 0.98812 0.0
C2042 C 0.62531 0.04378 0.9732 0.0
C2043 C 0.59258 0.10183 0.98143 0.0
H2044 H 0.69082 0.13336 0.97298 0.0
H2045 H 0.64715 0.1103 0.93281 0.0
H2046 H 0.6433 0.112 0.99805 0.0
H2047 H 0.64907 0.08736 0.99642 0.0
H2048 H 0.67454 0.118 0.99648 0.0
H2049 H 0.60559 0.08053 0.93261 0.0
H2050 H 0.59879 0.05756 0.94639 0.0
H2051 H 0.58921 0.07933 0.94939 0.0
H2052 H 0.5816 0.01261 0.98549 0.0
H2053 H 0.5532 0.0609 0.99126 0.0
H2054 H 0.64356 0.05679 0.97803 0.0
H2055 H 0.62685 0.04576 0.96089 0.0
H2056 H 0.62099 0.02517 0.97608 0.0
H2057 H 0.61118 0.11596 0.98519 0.0
H2058 H 0.57856 0.10321 0.98827 0.0
H2059 H 0.59032 0.10566 0.96965 0.0
C2060 C 0.89617 0.54769 0.94584 0.0
C2061 C 0.87711 0.54948 0.95296 0.0
C2062 C 0.91304 0.54362 0.95392 0.0
C2063 C 0.91015 0.53971 0.9695 0.0
C2064 C 0.89068 0.54075 0.97678 0.0
C2065 C 0.87485 0.54616 0.96854 0.0
C2066 C 0.93412 0.54368 0.94572 0.0
C2067 C 0.8862 0.53564 0.99324 0.0
C2068 C 0.94287 0.50712 0.98418 0.0
C2069 C 0.96363 0.52587 0.99126 0.0
C2070 C 0.92439 0.51097 0.97808 0.0
C2071 C 0.92762 0.53458 0.97804 0.0
C2072 C 0.94877 0.55367 0.98504 0.0
C2073 C 0.96633 0.549 0.99171 0.0
C2074 C 0.9017 0.48986 0.97134 0.0
C2075 C 0.95371 0.57935 0.98463 0.0
H2076 H 0.89805 0.54929 0.93385 0.0
H2077 H 0.86081 0.54789 0.97449 0.0
H2078 H 0.95186 0.55604 0.95137 0.0
H2079 H 0.93189 0.52534 0.94583 0.0
H2080 H 0.93527 0.54942 0.93392 0.0
H2081 H 0.87127 0.5386 0.99748 0.0
H2082 H 0.88099 0.51657 0.9953 0.0
H2083 H 0.90323 0.54715 0.99975 0.0
H2084 H 0.94146 0.48958 0.98298 0.0
H2085 H 0.98287 0.56373 0.99667 0.0
H2086 H 0.90115 0.49232 0.95914 0.0
H2087 H 0.88491 0.48888 0.97614 0.0
H2088 H 0.90107 0.47239 0.97333 0.0
H2089 H 0.95615 0.58556 0.97289 0.0
H2090 H 0.97047 0.59195 0.99109 0.0
H2091 H 0.9378 0.58037 0.98916 0.0
C2092 C 0.46719 0.34127 0.94317 0.0
C2093 C 0.45528 0.32052 0.95201 0.0
C2094 C 0.47301 0.364 0.94887 0.0
C2095 C 0.46651 0.36591 0.96372 0.0
C2096 C 0.45428 0.34498 0.97266 0.0
C2097 C 0.44891 0.32252 0.96671 0.0
C2098 C 0.48636 0.386 0.9391 0.0
C2099 C 0.44687 0.34631 0.9885 0.0
C2100 C 0.50095 0.42594 0.98406 0.0
C2101 C 0.48437 0.43461 0.98293 0.0
C2102 C 0.4955 0.40375 0.97771 0.0
C2103 C 0.47289 0.38987 0.97002 0.0
C2104 C 0.45625 0.39868 0.9686 0.0
C2105 C 0.46226 0.42105 0.97502 0.0
C2106 C 0.51381 0.39506 0.97938 0.0
C2107 C 0.43188 0.38426 0.96057 0.0
H2108 H 0.47234 0.33977 0.93185 0.0
H2109 H 0.43944 0.30643 0.9735 0.0
H2110 H 0.47542 0.39524 0.93802 0.0
H2111 H 0.50425 0.39908 0.94432 0.0
H2112 H 0.48991 0.38139 0.92775 0.0
H2113 H 0.4371 0.32828 0.99388 0.0
H2114 H 0.46343 0.35831 0.99528 0.0
H2115 H 0.43467 0.35428 0.98867 0.0
H2116 H 0.51828 0.4365 0.98996 0.0
H2117 H 0.44937 0.42761 0.97412 0.0
H2118 H 0.51881 0.39121 0.96825 0.0
H2119 H 0.5054 0.37795 0.98577 0.0
H2120 H 0.53093 0.40847 0.98524 0.0
H2121 H 0.43496 0.38034 0.94896 0.0
H2122 H 0.42119 0.39385 0.96024 0.0
H2123 H 0.42064 0.36664 0.9662 0.0
C2124 C 0.11739 0.67884 0.05235 0.0
C2125 C 0.14214 0.68489 0.05146 0.0
C2126 C 0.09865 0.65697 0.04637 0.0
C2127 C 0.10487 0.64063 0.03967 0.0
C2128 C 0.12988 0.64667 0.0388 0.0
C2129 C 0.14826 0.66889 0.04457 0.0
C2130 C 0.07223 0.65134 0.04723 0.0
C2131 C 0.13717 0.62948 0.032 0.0
C2132 C 0.05608 0.57427 0.03767 0.0
C2133 C 0.04942 0.57163 0.02259 0.0
C2134 C 0.07399 0.59672 0.04342 0.0
C2135 C 0.08521 0.61696 0.03384 0.0
C2136 C 0.07809 0.61441 0.01863 0.0
C2137 C 0.06037 0.59164 0.01315 0.0
C2138 C 0.08143 0.59859 0.05963 0.0
C2139 C 0.08933 0.63565 0.00814 0.0
H2140 H 0.11275 0.69136 0.05761 0.0
H2141 H 0.16743 0.67355 0.04403 0.0
H2142 H 0.06393 0.64762 0.03589 0.0
H2143 H 0.06128 0.63483 0.05396 0.0
H2144 H 0.0706 0.66638 0.0523 0.0
H2145 H 0.15743 0.63691 0.03222 0.0
H2146 H 0.12823 0.61213 0.03815 0.0
H2147 H 0.13067 0.62537 0.02027 0.0
H2148 H 0.04793 0.55857 0.04484 0.0
H2149 H 0.05494 0.58949 1.00151 0.0
H2150 H 0.07896 0.61266 0.06535 0.0
H2151 H 0.10125 0.60417 0.06047 0.0
H2152 H 0.07055 0.58123 0.06563 0.0
H2153 H 0.08697 0.65056 0.01265 0.0
H2154 H 0.08097 0.63082 0.99681 0.0
H2155 H 0.10942 0.64261 0.00716 0.0
C2156 C 0.33954 0.475 0.04445 0.0
C2157 C 0.33447 0.46308 0.05833 0.0
C2158 C 0.35942 0.47817 0.03554 0.0
C2159 C 0.37587 0.4708 0.04093 0.0
C2160 C 0.37162 0.45967 0.05506 0.0
C2161 C 0.35068 0.45518 0.06326 0.0
C2162 C 0.36255 0.48906 0.02022 0.0
C2163 C 0.38919 0.45232 0.06158 0.0
C2164 C 0.41662 0.45557 0.01735 0.0
C2165 C 0.43926 0.47711 0.01799 0.0
C2166 C 0.39533 0.45405 0.02356 0.0
C2167 C 0.39716 0.47394 0.03173 0.0
C2168 C 0.42004 0.49588 0.03228 0.0
C2169 C 0.44069 0.49736 0.0251 0.0
C2170 C 0.37107 0.43086 0.02179 0.0
C2171 C 0.42332 0.51714 0.04148 0.0
H2172 H 0.32811 0.482 0.04035 0.0
H2173 H 0.34717 0.44519 0.07352 0.0
H2174 H 0.37997 0.5066 0.01973 0.0
H2175 H 0.36375 0.47697 0.01175 0.0
H2176 H 0.3471 0.49207 0.01713 0.0
H2177 H 0.38525 0.44706 0.07349 0.0
H2178 H 0.3878 0.43675 0.05523 0.0
H2179 H 0.40849 0.46737 0.0607 0.0
H2180 H 0.4156 0.43985 0.01198 0.0
H2181 H 0.45838 0.51386 0.02594 0.0
H2182 H 0.3561 0.43476 0.0191 0.0
H2183 H 0.36624 0.42066 0.03239 0.0
H2184 H 0.37182 0.41914 0.01285 0.0
H2185 H 0.40849 0.52132 0.03908 0.0
H2186 H 0.4414 0.53362 0.03946 0.0
H2187 H 0.42212 0.51252 0.05349 0.0
C2188 C 0.5303 0.87787 0.06799 0.0
C2189 C 0.54398 0.8686 0.06118 0.0
C2190 C 0.52373 0.89275 0.06009 0.0
C2191 C 0.5313 0.89871 0.04509 0.0
C2192 C 0.5448 0.88911 0.03809 0.0
C2193 C 0.55089 0.87406 0.04621 0.0
C2194 C 0.50908 0.90246 0.06787 0.0
C2195 C 0.55344 0.8953 0.02217 0.0
C2196 C 0.50025 0.92482 0.02105 0.0
C2197 C 0.51692 0.94968 0.02234 0.0
C2198 C 0.50471 0.90793 0.02833 0.0
C2199 C 0.52639 0.91616 0.03703 0.0
C2200 C 0.5434 0.94122 0.03821 0.0
C2201 C 0.53839 0.95767 0.03092 0.0
C2202 C 0.48605 0.88136 0.0269 0.0
C2203 C 0.56685 0.95069 0.04725 0.0
H2204 H 0.52468 0.8734 0.07951 0.0
H2205 H 0.56165 0.86707 0.04097 0.0
H2206 H 0.52027 0.92243 0.06876 0.0
H2207 H 0.49236 0.89814 0.06125 0.0
H2208 H 0.50336 0.89494 0.07925 0.0
H2209 H 0.5627 0.88539 0.01813 0.0
H2210 H 0.53763 0.89104 0.01468 0.0
H2211 H 0.56656 0.91499 0.02128 0.0
H2212 H 0.48347 0.91853 0.01458 0.0
H2213 H 0.55141 0.97685 0.03192 0.0
H2214 H 0.4785 0.87389 0.03805 0.0
H2215 H 0.49503 0.87136 0.0226 0.0
H2216 H 0.47053 0.87792 0.01934 0.0
H2217 H 0.56235 0.94544 0.0591 0.0
H2218 H 0.57847 0.97068 0.0467 0.0
H2219 H 0.5778 0.94253 0.04318 0.0
C2220 C 0.00521 0.2013 0.37647 0.0
C2221 C 1.00081 0.20797 0.39068 0.0
C2222 C 0.02496 0.21768 0.36755 0.0
C2223 C 0.04174 0.24092 0.3732 0.0
C2224 C 0.03809 0.24758 0.38764 0.0
C2225 C 0.01737 0.23148 0.3959 0.0
C2226 C 0.02745 0.21037 0.35188 0.0
C2227 C 0.05606 0.27187 0.39439 0.0
C2228 C 0.10654 0.27845 0.35792 0.0
C2229 C 0.10534 0.29792 0.35168 0.0
C2230 C 0.08566 0.25905 0.36438 0.0
C2231 C 0.06287 0.25874 0.36407 0.0
C2232 C 0.06123 0.27742 0.35659 0.0
C2233 C 0.0827 0.29725 0.35101 0.0
C2234 C 0.08867 0.24018 0.37274 0.0
C2235 C 0.03706 0.27709 0.35513 0.0
H2236 H 0.99335 0.18329 0.37215 0.0
H2237 H 0.01426 0.23775 0.40644 0.0
H2238 H 0.02488 0.22204 0.34378 0.0
H2239 H 0.04618 0.2131 0.35007 0.0
H2240 H 0.01371 0.19121 0.34937 0.0
H2241 H 0.0524 0.27304 0.4064 0.0
H2242 H 0.07524 0.27544 0.39326 0.0
H2243 H 0.05484 0.2864 0.38839 0.0
H2244 H 0.1242 0.27929 0.35883 0.0
H2245 H 0.08186 0.31243 0.34626 0.0
H2246 H 0.07343 0.22174 0.3701 0.0
H2247 H 0.08804 0.24311 0.38491 0.0
H2248 H 0.10646 0.24108 0.37018 0.0
H2249 H 0.02194 0.25867 0.35224 0.0
H2250 H 0.03789 0.28988 0.34647 0.0
H2251 H 0.0324 0.28232 0.36592 0.0
C2252 C 0.80085 0.80312 0.3699 0.0
C2253 C 0.79696 0.79146 0.38377 0.0
C2254 C 0.78254 0.80639 0.36299 0.0
C2255 C 0.75991 0.79895 0.37033 0.0
C2256 C 0.75614 0.78825 0.3846 0.0
C2257 C 0.77428 0.78404 0.39093 0.0
C2258 C 0.78719 0.81683 0.34749 0.0
C2259 C 0.73286 0.78122 0.39325 0.0
C2260 C 0.72107 0.82665 0.35779 0.0
C2261 C 0.70097 0.80691 0.35086 0.0
C2262 C 0.74034 0.82435 0.36419 0.0
C2263 C 0.74005 0.80204 0.36307 0.0
C2264 C 0.72027 0.78241 0.35544 0.0
C2265 C 0.70052 0.78481 0.34994 0.0
C2266 C 0.76054 0.84555 0.3726 0.0
C2267 C 0.71994 0.75884 0.35308 0.0
H2268 H 0.81827 0.80983 0.36424 0.0
H2269 H 0.77032 0.77464 0.40145 0.0
H2270 H 0.77743 0.80177 0.33941 0.0
H2271 H 0.78002 0.82943 0.34609 0.0
H2272 H 0.8071 0.82651 0.34467 0.0
H2273 H 0.7339 0.77573 0.40486 0.0
H2274 H 0.72925 0.79657 0.39366 0.0
H2275 H 0.71688 0.76595 0.38759 0.0
H2276 H 0.72114 0.84359 0.35888 0.0
H2277 H 0.68486 0.76951 0.34469 0.0
H2278 H 0.77866 0.85109 0.36744 0.0
H2279 H 0.76138 0.84021 0.38427 0.0
H2280 H 0.75773 0.8614 0.37279 0.0
H2281 H 0.73771 0.76231 0.34826 0.0
H2282 H 0.70473 0.74638 0.34553 0.0
H2283 H 0.71773 0.7497 0.36393 0.0
C2284 C 0.18623 0.99408 0.38084 0.0
C2285 C 0.20911 0.00987 0.38742 0.0
C2286 C 0.18122 0.97163 0.37501 0.0
C2287 C 0.1996 0.96491 0.37569 0.0
C2288 C 0.22274 0.98079 0.3823 0.0
C2289 C 0.22719 0.00305 0.38813 0.0
C2290 C 0.15627 0.9551 0.36811 0.0
C2291 C 0.2429 0.97439 0.38305 0.0
C2292 C 0.1796 0.89833 0.37111 0.0
C2293 C 0.18398 0.89717 0.35591 0.0
C2294 C 0.18481 0.92034 0.37778 0.0
C2295 C 0.19486 0.94159 0.36903 0.0
C2296 C 0.20003 0.94052 0.35377 0.0
C2297 C 0.19456 0.9183 0.34743 0.0
C2298 C 0.17896 0.92075 0.39406 0.0
C2299 C 0.21102 0.96277 0.34409 0.0
H2300 H 0.1721 0.99915 0.38044 0.0
H2301 H 0.24499 0.01531 0.39307 0.0
H2302 H 0.15842 0.95174 0.35621 0.0
H2303 H 0.14741 0.93734 0.3738 0.0
H2304 H 0.14379 0.96274 0.36879 0.0
H2305 H 0.25971 0.98855 0.38881 0.0
H2306 H 0.23625 0.95705 0.38902 0.0
H2307 H 0.24797 0.97184 0.37161 0.0
H2308 H 0.17138 0.88189 0.37764 0.0
H2309 H 0.19876 0.91748 0.33582 0.0
H2310 H 0.16487 0.92633 0.39523 0.0
H2311 H 0.19566 0.93424 0.40019 0.0
H2312 H 0.17195 0.90284 0.39941 0.0
H2313 H 0.19826 0.97007 0.34347 0.0
H2314 H 0.21468 0.95897 0.33256 0.0
H2315 H 0.22854 0.97707 0.34906 0.0
C2316 C 0.55522 0.65786 0.28543 0.0
C2317 C 0.53042 0.65184 0.28549 0.0
C2318 C 0.57369 0.68015 0.29116 0.0
C2319 C 0.5672 0.69698 0.29678 0.0
C2320 C 0.5422 0.69113 0.29658 0.0
C2321 C 0.52409 0.66853 0.29108 0.0
C2322 C 0.60005 0.68551 0.29147 0.0
C2323 C 0.53458 0.70873 0.30223 0.0
C2324 C 0.60791 0.74492 0.32506 0.0
C2325 C 0.62027 0.76546 0.31612 0.0
C2326 C 0.59114 0.72238 0.31885 0.0
C2327 C 0.58637 0.72043 0.3033 0.0
C2328 C 0.59923 0.74107 0.29415 0.0
C2329 C 0.61627 0.76334 0.30067 0.0
C2330 C 0.57822 0.70076 0.32897 0.0
C2331 C 0.59437 0.73982 0.27758 0.0
H2332 H 0.56009 0.64488 0.28118 0.0
H2333 H 0.50493 0.66398 0.29096 0.0
H2334 H 0.61198 0.70235 0.28525 0.0
H2335 H 0.60691 0.6885 0.30315 0.0
H2336 H 0.60207 0.67061 0.28654 0.0
H2337 H 0.51455 0.70185 0.30069 0.0
H2338 H 0.5391 0.71242 0.31428 0.0
H2339 H 0.54498 0.72621 0.29631 0.0
H2340 H 0.61148 0.74644 0.33696 0.0
H2341 H 0.62579 0.77928 0.29376 0.0
H2342 H 0.58083 0.68581 0.32482 0.0
H2343 H 0.55813 0.69411 0.32893 0.0
H2344 H 0.58506 0.70506 0.34066 0.0
H2345 H 0.59714 0.72559 0.27236 0.0
H2346 H 0.60651 0.75727 0.27196 0.0
H2347 H 0.57489 0.7348 0.27556 0.0
C2348 C 0.31895 0.87046 0.28224 0.0
C2349 C 0.33419 0.86287 0.28916 0.0
C2350 C 0.29671 0.86628 0.28873 0.0
C2351 C 0.28992 0.85558 0.30301 0.0
C2352 C 0.305 0.84794 0.31016 0.0
C2353 C 0.32633 0.85095 0.303 0.0
C2354 C 0.28058 0.87363 0.28029 0.0
C2355 C 0.2993 0.8376 0.3257 0.0
C2356 C 0.24736 0.87266 0.32326 0.0
C2357 C 0.22468 0.85114 0.32259 0.0
C2358 C 0.269 0.87374 0.31799 0.0
C2359 C 0.26762 0.85341 0.31063 0.0
C2360 C 0.24461 0.8316 0.30982 0.0
C2361 C 0.22354 0.83057 0.31615 0.0
C2362 C 0.29326 0.89684 0.32006 0.0
C2363 C 0.2419 0.80984 0.30146 0.0
H2364 H 0.32429 0.88009 0.2718 0.0
H2365 H 0.33678 0.84393 0.30851 0.0
H2366 H 0.26106 0.85889 0.28051 0.0
H2367 H 0.2815 0.88971 0.28568 0.0
H2368 H 0.28633 0.87813 0.26848 0.0
H2369 H 0.31095 0.82978 0.32904 0.0
H2370 H 0.30265 0.85223 0.33371 0.0
H2371 H 0.27968 0.82345 0.3267 0.0
H2372 H 0.24817 0.88865 0.32806 0.0
H2373 H 0.20586 0.81409 0.3152 0.0
H2374 H 0.29962 0.90617 0.30921 0.0
H2375 H 0.30755 0.89282 0.3242 0.0
H2376 H 0.29178 0.90939 0.32805 0.0
H2377 H 0.24641 0.81452 0.28953 0.0
H2378 H 0.22292 0.79409 0.30218 0.0
H2379 H 0.255 0.80445 0.30584 0.0
C2380 C 0.13749 0.46701 0.28299 0.0
C2381 C 0.1129 0.45784 0.27857 0.0
C2382 C 0.14477 0.45262 0.2909 0.0
C2383 C 0.12692 0.42866 0.29473 0.0
C2384 C 0.10198 0.41946 0.2905 0.0
C2385 C 0.09532 0.43409 0.28235 0.0
C2386 C 0.17159 0.46295 0.29499 0.0
C2387 C 0.08234 0.39416 0.29458 0.0
C2388 C 0.14677 0.38247 0.30295 0.0
C2389 C 0.14732 0.38264 0.31858 0.0
C2390 C 0.1406 0.39767 0.29504 0.0
C2391 C 0.13435 0.41306 0.30298 0.0
C2392 C 0.13478 0.4132 0.31878 0.0
C2393 C 0.14142 0.39807 0.32638 0.0
C2394 C 0.14081 0.39727 0.2782 0.0
C2395 C 0.12784 0.42902 0.32767 0.0
H2396 H 0.15114 0.48531 0.27996 0.0
H2397 H 0.07625 0.42707 0.27908 0.0
H2398 H 0.17365 0.46248 0.30726 0.0
H2399 H 0.1787 0.45174 0.28995 0.0
H2400 H 0.18317 0.48188 0.29116 0.0
H2401 H 0.06368 0.39001 0.29087 0.0
H2402 H 0.08652 0.3808 0.28944 0.0
H2403 H 0.08211 0.39178 0.30685 0.0
H2404 H 0.15152 0.37066 0.29688 0.0
H2405 H 0.14128 0.39783 0.33843 0.0
H2406 H 0.15325 0.41573 0.27391 0.0
H2407 H 0.12209 0.39144 0.27379 0.0
H2408 H 0.14696 0.3849 0.27373 0.0
H2409 H 0.13977 0.44823 0.32455 0.0
H2410 H 0.12953 0.4273 0.33989 0.0
H2411 H 0.10855 0.42409 0.32505 0.0
C2412 C 0.31555 0.43703 0.27931 0.0
C2413 C 0.33248 0.46069 0.28414 0.0
C2414 C 0.29495 0.42148 0.28786 0.0
C2415 C 0.2918 0.42887 0.30219 0.0
C2416 C 0.30889 0.4523 0.30743 0.0
C2417 C 0.32849 0.46812 0.29821 0.0
C2418 C 0.27663 0.39695 0.28155 0.0
C2419 C 0.30691 0.46039 0.32297 0.0
C2420 C 0.2277 0.39258 0.31879 0.0
C2421 C 0.22911 0.37344 0.32537 0.0
C2422 C 0.24825 0.41138 0.31164 0.0
C2423 C 0.27098 0.41155 0.31173 0.0
C2424 C 0.27288 0.39327 0.31952 0.0
C2425 C 0.25168 0.37391 0.3257 0.0
C2426 C 0.24493 0.42972 0.30288 0.0
C2427 C 0.29704 0.3935 0.32073 0.0
H2428 H 0.31829 0.43017 0.26889 0.0
H2429 H 0.34059 0.48628 0.30222 0.0
H2430 H 0.27802 0.38264 0.2877 0.0
H2431 H 0.25754 0.39352 0.28289 0.0
H2432 H 0.27981 0.39526 0.26953 0.0
H2433 H 0.32136 0.47937 0.32532 0.0
H2434 H 0.28859 0.4587 0.32465 0.0
H2435 H 0.30867 0.44849 0.33129 0.0
H2436 H 0.21006 0.39188 0.3182 0.0
H2437 H 0.25266 0.35897 0.3307 0.0
H2438 H 0.24539 0.42622 0.29078 0.0
H2439 H 0.26014 0.44831 0.30519 0.0
H2440 H 0.22713 0.42883 0.30538 0.0
H2441 H 0.30112 0.38762 0.30999 0.0
H2442 H 0.29655 0.38117 0.32961 0.0
H2443 H 0.31236 0.41203 0.32318 0.0
C2444 C 0.55088 0.86441 0.27507 0.0
C2445 C 0.53581 0.87163 0.28248 0.0
C2446 C 0.56842 0.86095 0.28283 0.0
C2447 C 0.57068 0.86411 0.29852 0.0
C2448 C 0.55492 0.87041 0.30617 0.0
C2449 C 0.5379 0.87431 0.29809 0.0
C2450 C 0.58504 0.85458 0.27415 0.0
C2451 C 0.55611 0.87318 0.32291 0.0
C2452 C 0.60714 0.83821 0.31747 0.0
C2453 C 0.63038 0.8589 0.31924 0.0
C2454 C 0.5871 0.83976 0.31156 0.0
C2455 C 0.59068 0.86239 0.30666 0.0
C2456 C 0.61412 0.88334 0.30856 0.0
C2457 C 0.63357 0.88134 0.3149 0.0
C2458 C 0.56231 0.81708 0.31021 0.0
C2459 C 0.61896 0.90778 0.30333 0.0
H2460 H 0.54911 0.86155 0.26311 0.0
H2461 H 0.52664 0.88003 0.30403 0.0
H2462 H 0.60455 0.86889 0.27577 0.0
H2463 H 0.58325 0.83746 0.27835 0.0
H2464 H 0.58081 0.85253 0.26201 0.0
H2465 H 0.5433 0.87906 0.32718 0.0
H2466 H 0.55128 0.85561 0.32807 0.0
H2467 H 0.57511 0.8865 0.32654 0.0
H2468 H 0.6047 0.82072 0.32049 0.0
H2469 H 0.65158 0.89735 0.3161 0.0
H2470 H 0.55796 0.812 0.29829 0.0
H2471 H 0.54766 0.82023 0.31471 0.0
H2472 H 0.56179 0.80166 0.31625 0.0
H2473 H 0.61616 0.90732 0.29108 0.0
H2474 H 0.63797 0.9224 0.30601 0.0
H2475 H 0.60573 0.9123 0.30856 0.0
C2476 C 0.14293 0.6701 0.28535 0.0
C2477 C 0.11931 0.65307 0.28025 0.0
C2478 C 0.14755 0.69211 0.2917 0.0
C2479 C 0.12798 0.69706 0.29319 0.0
C2480 C 0.10414 0.68004 0.28791 0.0
C2481 C 0.10014 0.65831 0.2814 0.0
C2482 C 0.17329 0.70995 0.297 0.0
C2483 C 0.08274 0.68448 0.2895 0.0
C2484 C 0.13514 0.74137 0.32383 0.0
C2485 C 0.14223 0.76254 0.31576 0.0
C2486 C 0.13006 0.71985 0.31659 0.0
C2487 C 0.13227 0.71956 0.30088 0.0
C2488 C 0.13903 0.74086 0.29264 0.0
C2489 C 0.14374 0.76209 0.30019 0.0
C2490 C 0.12253 0.69747 0.32579 0.0
C2491 C 0.14188 0.74138 0.27591 0.0
H2492 H 0.15784 0.6662 0.28432 0.0
H2493 H 0.08181 0.64508 0.27759 0.0
H2494 H 0.17961 0.72785 0.29183 0.0
H2495 H 0.17333 0.71243 0.30926 0.0
H2496 H 0.18672 0.70395 0.2943 0.0
H2497 H 0.06554 0.66979 0.2844 0.0
H2498 H 0.07933 0.68599 0.30149 0.0
H2499 H 0.08714 0.70184 0.28419 0.0
H2500 H 0.13323 0.74154 0.33579 0.0
H2501 H 0.14933 0.77854 0.29396 0.0
H2502 H 0.13627 0.69148 0.32452 0.0
H2503 H 0.10456 0.68251 0.32176 0.0
H2504 H 0.12092 0.70056 0.33784 0.0
H2505 H 0.15653 0.73717 0.27295 0.0
H2506 H 0.14672 0.75923 0.27112 0.0
H2507 H 0.12455 0.72733 0.27061 0.0
C2508 C 0.79603 0.99311 0.39569 0.0
C2509 C 0.80515 0.01401 0.38694 0.0
C2510 C 0.77821 0.97046 0.39007 0.0
C2511 C 0.76931 0.96861 0.37532 0.0
C2512 C 0.7783 0.98962 0.36644 0.0
C2513 C 0.7961 0.01206 0.37236 0.0
C2514 C 0.76919 0.94846 0.39985 0.0
C2515 C 0.76923 0.98835 0.35065 0.0
C2516 C 0.74221 0.90809 0.35534 0.0
C2517 C 0.7168 0.89947 0.35634 0.0
C2518 C 0.75945 0.93049 0.36148 0.0
C2519 C 0.75112 0.94458 0.36901 0.0
C2520 C 0.7255 0.93574 0.37041 0.0
C2521 C 0.70862 0.91325 0.36408 0.0
C2522 C 0.78659 0.93919 0.35974 0.0
C2523 C 0.71592 0.9502 0.37842 0.0
H2524 H 0.80318 0.99438 0.40689 0.0
H2525 H 0.8028 0.02815 0.36559 0.0
H2526 H 0.74884 0.93915 0.40083 0.0
H2527 H 0.77387 0.93544 0.3947 0.0
H2528 H 0.77738 0.95307 0.41124 0.0
H2529 H 0.77781 0.00639 0.34528 0.0
H2530 H 0.77334 0.97629 0.34382 0.0
H2531 H 0.74893 0.9805 0.35057 0.0
H2532 H 0.74873 0.89734 0.34968 0.0
H2533 H 0.68906 0.9067 0.365 0.0
H2534 H 0.79571 0.94319 0.37084 0.0
H2535 H 0.79545 0.95622 0.35328 0.0
H2536 H 0.78998 0.92572 0.35394 0.0
H2537 H 0.72313 0.95414 0.39002 0.0
H2538 H 0.69547 0.94062 0.37877 0.0
H2539 H 0.72257 0.96781 0.37278 0.0
C2540 C 0.99965 0.80373 0.37524 0.0
C2541 C 0.99555 0.79369 0.38968 0.0
C2542 C 0.01982 0.80703 0.36653 0.0
C2543 C 0.03723 0.80137 0.37255 0.0
C2544 C 0.03385 0.7921 0.38721 0.0
C2545 C 0.01284 0.78768 0.39532 0.0
C2546 C 0.02196 0.81575 0.35067 0.0
C2547 C 0.05238 0.78659 0.39436 0.0
C2548 C 0.07844 0.78486 0.35042 0.0
C2549 C 0.10086 0.8067 0.35037 0.0
C2550 C 0.05706 0.78349 0.35638 0.0
C2551 C 0.0585 0.80402 0.36348 0.0
C2552 C 0.08108 0.82629 0.36322 0.0
C2553 C 0.10188 0.82746 0.3564 0.0
C2554 C 0.03314 0.75976 0.35557 0.0
C2555 C 0.08384 0.84844 0.37111 0.0
H2556 H 0.98718 0.80907 0.37057 0.0
H2557 H 0.01006 0.77913 0.40608 0.0
H2558 H 0.04081 0.83079 0.34839 0.0
H2559 H 0.01845 0.80076 0.34292 0.0
H2560 H 0.00856 0.82185 0.34812 0.0
H2561 H 0.04885 0.78258 0.40644 0.0
H2562 H 0.05169 0.77074 0.38878 0.0
H2563 H 0.07133 0.80211 0.39303 0.0
H2564 H 0.0777 0.76879 0.34581 0.0
H2565 H 0.11935 0.84426 0.35666 0.0
H2566 H 0.01777 0.76275 0.35229 0.0
H2567 H 0.02876 0.7511 0.36669 0.0
H2568 H 0.03407 0.74705 0.34745 0.0
H2569 H 0.06898 0.85207 0.36768 0.0
H2570 H 0.10193 0.86477 0.36885 0.0
H2571 H 0.08214 0.84521 0.38332 0.0
C2572 C 0.19928 0.21331 0.40261 0.0
C2573 C 0.21312 0.20453 0.39545 0.0
C2574 C 0.19314 0.22901 0.39529 0.0
C2575 C 0.20138 0.23638 0.38053 0.0
C2576 C 0.21528 0.22748 0.37321 0.0
C2577 C 0.22083 0.21149 0.38073 0.0
C2578 C 0.17791 0.23776 0.40338 0.0
C2579 C 0.22464 0.23517 0.35754 0.0
C2580 C 0.1687 0.26144 0.35707 0.0
C2581 C 0.18431 0.28645 0.35881 0.0
C2582 C 0.17407 0.24494 0.36401 0.0
C2583 C 0.19566 0.25365 0.37284 0.0
C2584 C 0.21158 0.27888 0.37456 0.0
C2585 C 0.20562 0.29499 0.36761 0.0
C2586 C 0.15646 0.21819 0.36203 0.0
C2587 C 0.23493 0.28887 0.38374 0.0
H2588 H 0.19307 0.20772 0.41394 0.0
H2589 H 0.2317 0.20486 0.37522 0.0
H2590 H 0.18853 0.25772 0.40455 0.0
H2591 H 0.16107 0.23316 0.39681 0.0
H2592 H 0.17233 0.22974 0.41466 0.0
H2593 H 0.23499 0.22643 0.35337 0.0
H2594 H 0.20901 0.23062 0.34983 0.0
H2595 H 0.23691 0.25507 0.3572 0.0
H2596 H 0.15202 0.25468 0.35044 0.0
H2597 H 0.21781 0.31429 0.36895 0.0
H2598 H 0.14918 0.20982 0.37305 0.0
H2599 H 0.16625 0.2093 0.35726 0.0
H2600 H 0.14067 0.21441 0.35461 0.0
H2601 H 0.23038 0.28287 0.39548 0.0
H2602 H 0.24571 0.30894 0.3836 0.0
H2603 H 0.24671 0.28177 0.37946 0.0
C2604 C 0.6734 0.53216 0.70792 0.0
C2605 C 0.6701 0.5383 0.72254 0.0
C2606 C 0.69294 0.54865 0.69891 0.0
C2607 C 0.71048 0.5714 0.70485 0.0
C2608 C 0.70786 0.57749 0.71966 0.0
C2609 C 0.6874 0.56133 0.72806 0.0
C2610 C 0.69434 0.54201 0.6829 0.0
C2611 C 0.72664 0.60124 0.72668 0.0
C2612 C 0.77492 0.60877 0.6892 0.0
C2613 C 0.77413 0.62902 0.68399 0.0
C2614 C 0.75391 0.58906 0.69531 0.0
C2615 C 0.73142 0.58935 0.69568 0.0
C2616 C 0.73014 0.60886 0.68913 0.0
C2617 C 0.75174 0.62889 0.68388 0.0
C2618 C 0.75647 0.56916 0.70262 0.0
C2619 C 0.70625 0.60921 0.6884 0.0
H2620 H 0.66081 0.51449 0.70336 0.0
H2621 H 0.68505 0.56716 0.73897 0.0
H2622 H 0.69082 0.55378 0.67541 0.0
H2623 H 0.713 0.54517 0.68027 0.0
H2624 H 0.68063 0.52286 0.68032 0.0
H2625 H 0.72362 0.60191 0.73883 0.0
H2626 H 0.74555 0.60433 0.725 0.0
H2627 H 0.72566 0.61634 0.72128 0.0
H2628 H 0.79239 0.60912 0.68961 0.0
H2629 H 0.75123 0.64464 0.67987 0.0
H2630 H 0.74092 0.55113 0.69951 0.0
H2631 H 0.75607 0.571 0.71492 0.0
H2632 H 0.77402 0.56989 0.69958 0.0
H2633 H 0.69077 0.59115 0.6852 0.0
H2634 H 0.7072 0.62274 0.68026 0.0
H2635 H 0.70207 0.61386 0.69953 0.0
C2636 C 0.46641 0.12739 0.7028 0.0
C2637 C 0.47118 0.13132 0.71818 0.0
C2638 C 0.44744 0.12967 0.69596 0.0
C2639 C 0.43266 0.13603 0.70464 0.0
C2640 C 0.43731 0.14 0.72018 0.0
C2641 C 0.45651 0.1377 0.72674 0.0
C2642 C 0.44381 0.12583 0.67935 0.0
C2643 C 0.42185 0.14651 0.72993 0.0
C2644 C 0.39505 0.16197 0.68727 0.0
C2645 C 0.37142 0.14155 0.68649 0.0
C2646 C 0.41537 0.16029 0.6925 0.0
C2647 C 0.41183 0.13781 0.69766 0.0
C2648 C 0.38803 0.11709 0.69673 0.0
C2649 C 0.36818 0.11921 0.69115 0.0
C2650 C 0.44051 0.18267 0.69278 0.0
C2651 C 0.38341 0.09274 0.70196 0.0
H2652 H 0.47731 0.12216 0.69605 0.0
H2653 H 0.46015 0.14114 0.73858 0.0
H2654 H 0.42398 0.11608 0.67628 0.0
H2655 H 0.45266 0.14378 0.67392 0.0
H2656 H 0.45244 0.11559 0.67487 0.0
H2657 H 0.42772 0.14894 0.74182 0.0
H2658 H 0.42303 0.16348 0.72594 0.0
H2659 H 0.40221 0.13212 0.7292 0.0
H2660 H 0.39764 0.17941 0.68408 0.0
H2661 H 0.3499 0.10342 0.69071 0.0
H2662 H 0.45396 0.17911 0.68692 0.0
H2663 H 0.44697 0.18759 0.70448 0.0
H2664 H 0.44048 0.19832 0.68741 0.0
H2665 H 0.39552 0.08762 0.69584 0.0
H2666 H 0.36395 0.07831 0.70027 0.0
H2667 H 0.38805 0.0937 0.71399 0.0
C2668 C 0.8698 0.32725 0.7277 0.0
C2669 C 0.88338 0.34861 0.71958 0.0
C2670 C 0.86398 0.30479 0.72156 0.0
C2671 C 0.87212 0.30374 0.70701 0.0
C2672 C 0.88595 0.32525 0.69879 0.0
C2673 C 0.89134 0.34746 0.70516 0.0
C2674 C 0.84897 0.28218 0.7306 0.0
C2675 C 0.89511 0.32479 0.68329 0.0
C2676 C 0.8756 0.24783 0.69682 0.0
C2677 C 0.8539 0.23453 0.68848 0.0
C2678 C 0.88193 0.27055 0.70277 0.0
C2679 C 0.86606 0.28006 0.7004 0.0
C2680 C 0.84414 0.26674 0.69197 0.0
C2681 C 0.83832 0.24412 0.68612 0.0
C2682 C 0.90554 0.28435 0.71164 0.0
C2683 C 0.82669 0.27622 0.68926 0.0
H2684 H 0.86338 0.32809 0.73878 0.0
H2685 H 0.90205 0.364 0.69894 0.0
H2686 H 0.83174 0.26973 0.7245 0.0
H2687 H 0.85942 0.27254 0.73219 0.0
H2688 H 0.84403 0.28614 0.74173 0.0
H2689 H 0.90574 0.34315 0.67842 0.0
H2690 H 0.90704 0.31653 0.68359 0.0
H2691 H 0.87931 0.31344 0.67581 0.0
H2692 H 0.88776 0.24057 0.69867 0.0
H2693 H 0.82134 0.23382 0.67985 0.0
H2694 H 0.90133 0.28736 0.7232 0.0
H2695 H 0.91733 0.30239 0.70662 0.0
H2696 H 0.91616 0.27469 0.71213 0.0
H2697 H 0.81973 0.27884 0.70007 0.0
H2698 H 0.81067 0.26381 0.68219 0.0
H2699 H 0.83652 0.29409 0.68375 0.0
C2700 C 0.20959 0.98526 0.6349 0.0
C2701 C 0.19996 0.98347 0.6205 0.0
C2702 C 0.22708 0.00773 0.64093 0.0
C2703 C 0.23511 0.02893 0.63236 0.0
C2704 C 0.22572 0.02721 0.61775 0.0
C2705 C 0.20828 0.00451 0.61199 0.0
C2706 C 0.23675 0.00883 0.65654 0.0
C2707 C 0.23372 0.04942 0.60829 0.0
C2708 C 0.26039 0.08886 0.65285 0.0
C2709 C 0.28591 0.09872 0.65125 0.0
C2710 C 0.2437 0.06616 0.64682 0.0
C2711 C 0.2527 0.053 0.63886 0.0
C2712 C 0.27842 0.06292 0.63706 0.0
C2713 C 0.29474 0.08569 0.64326 0.0
C2714 C 0.21642 0.05626 0.64899 0.0
C2715 C 0.2887 0.04944 0.62863 0.0
H2716 H 0.20348 0.96903 0.64147 0.0
H2717 H 0.20068 0.00332 0.60094 0.0
H2718 H 0.25714 0.01764 0.65642 0.0
H2719 H 0.23194 0.01999 0.66378 0.0
H2720 H 0.22914 0.99064 0.66159 0.0
H2721 H 0.22536 0.04491 0.59696 0.0
H2722 H 0.22841 0.06172 0.6138 0.0
H2723 H 0.25407 0.05947 0.60718 0.0
H2724 H 0.25335 0.09896 0.65876 0.0
H2725 H 0.31441 0.09317 0.64194 0.0
H2726 H 0.20828 0.03874 0.65492 0.0
H2727 H 0.20704 0.0528 0.63799 0.0
H2728 H 0.21246 0.06879 0.65548 0.0
H2729 H 0.28266 0.03169 0.63395 0.0
H2730 H 0.30916 0.05963 0.62824 0.0
H2731 H 0.28145 0.04578 0.61704 0.0
C2732 C 0.98579 0.19398 0.61663 0.0
C2733 C 0.00721 0.20053 0.62504 0.0
C2734 C 0.9643 0.19135 0.62335 0.0
C2735 C 0.96401 0.1952 0.63892 0.0
C2736 C 0.98544 0.20154 0.64749 0.0
C2737 C 0.00669 0.20413 0.64048 0.0
C2738 C 0.94196 0.18473 0.61373 0.0
C2739 C 0.98595 0.20533 0.66413 0.0
C2740 C 0.91714 0.21267 0.65201 0.0
C2741 C 0.8975 0.19045 0.65665 0.0
C2742 C 0.93913 0.21458 0.64669 0.0
C2743 C 0.94164 0.19373 0.64598 0.0
C2744 C 0.9222 0.1714 0.65122 0.0
C2745 C 0.90022 0.16995 0.65625 0.0
C2746 C 0.95941 0.23879 0.64138 0.0
C2747 C 0.92429 0.14887 0.65111 0.0
H2748 H 0.98573 0.19073 0.60475 0.0
H2749 H 0.02311 0.20943 0.64713 0.0
H2750 H 0.92589 0.16793 0.61791 0.0
H2751 H 0.93714 0.19925 0.61437 0.0
H2752 H 0.94497 0.18197 0.60185 0.0
H2753 H 0.00495 0.21403 0.66878 0.0
H2754 H 0.97765 0.2166 0.66706 0.0
H2755 H 0.9749 0.1875 0.66955 0.0
H2756 H 0.91503 0.22852 0.65217 0.0
H2757 H 0.88495 0.15261 0.65949 0.0
H2758 H 0.9626 0.23775 0.6293 0.0
H2759 H 0.97688 0.24368 0.64731 0.0
H2760 H 0.95499 0.25343 0.64319 0.0
H2761 H 0.92518 0.14357 0.63943 0.0
H2762 H 0.90845 0.13347 0.65671 0.0
H2763 H 0.94154 0.1524 0.65679 0.0
C2764 C 0.79807 0.78461 0.60767 0.0
C2765 C 0.78268 0.79202 0.61431 0.0
C2766 C 0.80501 0.76985 0.61535 0.0
C2767 C 0.79618 0.76222 0.62998 0.0
C2768 C 0.78073 0.76972 0.63678 0.0
C2769 C 0.77423 0.78465 0.62887 0.0
C2770 C 0.8217 0.76236 0.6078 0.0
C2771 C 0.7708 0.76172 0.65232 0.0
C2772 C 0.7946 0.70518 0.64317 0.0
C2773 C 0.81583 0.71456 0.65213 0.0
C2774 C 0.78777 0.7205 0.63612 0.0
C2775 C 0.80263 0.74582 0.63798 0.0
C2776 C 0.82396 0.75542 0.64712 0.0
C2777 C 0.83031 0.73965 0.65409 0.0
C2778 C 0.76477 0.70961 0.62654 0.0
C2779 C 0.84034 0.78233 0.6493 0.0
H2780 H 0.80492 0.79061 0.59649 0.0
H2781 H 0.76218 0.79023 0.63397 0.0
H2782 H 0.83844 0.76793 0.61471 0.0
H2783 H 0.81214 0.74239 0.60668 0.0
H2784 H 0.82748 0.77039 0.59653 0.0
H2785 H 0.75943 0.76959 0.65612 0.0
H2786 H 0.75935 0.74172 0.65263 0.0
H2787 H 0.78622 0.76704 0.66034 0.0
H2788 H 0.78326 0.68581 0.64164 0.0
H2789 H 0.8469 0.74705 0.66086 0.0
H2790 H 0.76968 0.71565 0.61484 0.0
H2791 H 0.75215 0.71595 0.63044 0.0
H2792 H 0.75474 0.68953 0.62671 0.0
H2793 H 0.84825 0.79094 0.63843 0.0
H2794 H 0.8557 0.78679 0.65725 0.0
H2795 H 0.8294 0.7904 0.65351 0.0
C2796 C 0.98427 0.77008 0.61276 0.0
C2797 C 1.00156 0.79334 0.61798 0.0
C2798 C 0.96366 0.75437 0.62123 0.0
C2799 C 0.96089 0.76114 0.63582 0.0
C2800 C 0.97838 0.78415 0.64145 0.0
C2801 C 0.99802 0.80019 0.63234 0.0
C2802 C 0.94491 0.73032 0.61451 0.0
C2803 C 0.97682 0.79152 0.65726 0.0
C2804 C 0.89651 0.7246 0.65174 0.0
C2805 C 0.89734 0.70465 0.65746 0.0
C2806 C 0.91746 0.74393 0.64529 0.0
C2807 C 0.93994 0.74361 0.64515 0.0
C2808 C 0.94127 0.72447 0.65221 0.0
C2809 C 0.91971 0.70475 0.65775 0.0
C2810 C 0.91482 0.76336 0.63739 0.0
C2811 C 0.96516 0.72416 0.6532 0.0
H2812 H 0.98672 0.76371 0.60207 0.0
H2813 H 0.01052 0.81806 0.63666 0.0
H2814 H 0.94592 0.71548 0.62024 0.0
H2815 H 0.92599 0.72727 0.61605 0.0
H2816 H 0.94796 0.72916 0.60241 0.0
H2817 H 0.99069 0.8107 0.65962 0.0
H2818 H 0.95822 0.78874 0.65961 0.0
H2819 H 0.97996 0.77991 0.66512 0.0
H2820 H 0.87903 0.72423 0.65119 0.0
H2821 H 0.92023 0.68921 0.66215 0.0
H2822 H 0.91499 0.7607 0.62516 0.0
H2823 H 0.93044 0.78156 0.64009 0.0
H2824 H 0.89734 0.76286 0.64032 0.0
H2825 H 0.96927 0.71891 0.64224 0.0
H2826 H 0.96425 0.71107 0.66167 0.0
H2827 H 0.98066 0.74238 0.65609 0.0
C2828 C 0.22069 0.19689 0.60887 0.0
C2829 C 0.20555 0.20398 0.61629 0.0
C2830 C 0.23827 0.1935 0.61664 0.0
C2831 C 0.24066 0.19685 0.63232 0.0
C2832 C 0.22495 0.20326 0.63995 0.0
C2833 C 0.2077 0.2068 0.63187 0.0
C2834 C 0.25475 0.1869 0.60798 0.0
C2835 C 0.22619 0.20623 0.65668 0.0
C2836 C 0.27684 0.17072 0.6513 0.0
C2837 C 0.30034 0.19121 0.65266 0.0
C2838 C 0.25684 0.17247 0.64553 0.0
C2839 C 0.26064 0.19507 0.64044 0.0
C2840 C 0.28426 0.21586 0.64207 0.0
C2841 C 0.30375 0.21367 0.64818 0.0
C2842 C 0.23184 0.14998 0.6445 0.0
C2843 C 0.2892 0.24032 0.63685 0.0
H2844 H 0.2189 0.19405 0.5969 0.0
H2845 H 0.1963 0.21238 0.6378 0.0
H2846 H 0.27428 0.20125 0.60943 0.0
H2847 H 0.25301 0.16988 0.61234 0.0
H2848 H 0.25031 0.18454 0.59587 0.0
H2849 H 0.21579 0.21504 0.66066 0.0
H2850 H 0.21806 0.18811 0.66184 0.0
H2851 H 0.24555 0.21703 0.66061 0.0
H2852 H 0.27415 0.15321 0.65438 0.0
H2853 H 0.32195 0.22951 0.64908 0.0
H2854 H 0.22677 0.14504 0.63262 0.0
H2855 H 0.21764 0.15337 0.64948 0.0
H2856 H 0.23138 0.13439 0.65028 0.0
H2857 H 0.28619 0.23982 0.62461 0.0
H2858 H 0.30831 0.25486 0.63941 0.0
H2859 H 0.27614 0.24497 0.6422 0.0
C2860 C 0.77642 0.98486 0.63768 0.0
C2861 C 0.78467 0.98378 0.62333 0.0
C2862 C 0.78257 0.00711 0.64431 0.0
C2863 C 0.79739 0.02875 0.6364 0.0
C2864 C 0.80574 0.02777 0.6219 0.0
C2865 C 0.79922 0.00527 0.61552 0.0
C2866 C 0.77318 0.00748 0.65975 0.0
C2867 C 0.82169 0.0505 0.61317 0.0
C2868 C 0.79551 0.08531 0.647 0.0
C2869 C 0.81708 0.09797 0.65558 0.0
C2870 C 0.78876 0.06264 0.64083 0.0
C2871 C 0.804 0.05244 0.64323 0.0
C2872 C 0.82574 0.06506 0.65193 0.0
C2873 C 0.83204 0.08771 0.65798 0.0
C2874 C 0.76539 0.04966 0.63166 0.0
C2875 C 0.84248 0.05478 0.6547 0.0
H2876 H 0.76496 0.96825 0.64368 0.0
H2877 H 0.80592 0.00451 0.60451 0.0
H2878 H 0.7889 0.01825 0.66742 0.0
H2879 H 0.7618 0.01635 0.65945 0.0
H2880 H 0.76191 0.98905 0.66441 0.0
H2881 H 0.82669 0.04661 0.60204 0.0
H2882 H 0.81193 0.06082 0.61159 0.0
H2883 H 0.83888 0.06231 0.61949 0.0
H2884 H 0.78381 0.09308 0.64511 0.0
H2885 H 0.84892 0.09751 0.66441 0.0
H2886 H 0.75299 0.03157 0.63645 0.0
H2887 H 0.76981 0.04678 0.62012 0.0
H2888 H 0.7553 0.05984 0.63112 0.0
H2889 H 0.83199 0.03671 0.65992 0.0
H2890 H 0.85833 0.06659 0.66207 0.0
H2891 H 0.8497 0.05234 0.64394 0.0
C2892 C 0.46307 0.32747 0.72786 0.0
C2893 C 0.47107 0.3487 0.71959 0.0
C2894 C 0.44571 0.30484 0.72198 0.0
C2895 C 0.43611 0.30337 0.70745 0.0
C2896 C 0.44381 0.32474 0.69912 0.0
C2897 C 0.4612 0.34714 0.70528 0.0
C2898 C 0.43803 0.28245 0.73119 0.0
C2899 C 0.43391 0.3239 0.68361 0.0
C2900 C 0.41099 0.24384 0.68648 0.0
C2901 C 0.38547 0.23374 0.68828 0.0
C2902 C 0.42763 0.26652 0.69257 0.0
C2903 C 0.41858 0.27938 0.70081 0.0
C2904 C 0.39286 0.26922 0.70279 0.0
C2905 C 0.37661 0.2465 0.69651 0.0
C2906 C 0.45491 0.27668 0.6902 0.0
C2907 C 0.38252 0.28238 0.71152 0.0
H2908 H 0.47086 0.32846 0.73883 0.0
H2909 H 0.46706 0.36349 0.6989 0.0
H2910 H 0.4177 0.27221 0.73239 0.0
H2911 H 0.44344 0.2704 0.72544 0.0
H2912 H 0.44654 0.28676 0.74249 0.0
H2913 H 0.4413 0.34219 0.67874 0.0
H2914 H 0.43877 0.31302 0.67615 0.0
H2915 H 0.41351 0.31492 0.68384 0.0
H2916 H 0.41808 0.23396 0.68037 0.0
H2917 H 0.35693 0.23885 0.69798 0.0
H2918 H 0.46443 0.27981 0.70113 0.0
H2919 H 0.46286 0.29441 0.68453 0.0
H2920 H 0.4589 0.26448 0.68339 0.0
H2921 H 0.38991 0.28581 0.72309 0.0
H2922 H 0.36207 0.27205 0.71199 0.0
H2923 H 0.38838 0.30022 0.70639 0.0
C2924 C 0.66602 0.12652 0.7082 0.0
C2925 C 0.66723 0.12965 0.72378 0.0
C2926 C 0.68676 0.13024 0.69996 0.0
C2927 C 0.70931 0.13716 0.70743 0.0
C2928 C 0.71084 0.14101 0.72307 0.0
C2929 C 0.68994 0.1374 0.731 0.0
C2930 C 0.68446 0.12663 0.68327 0.0
C2931 C 0.73444 0.14827 0.73155 0.0
C2932 C 0.75506 0.11972 0.69243 0.0
C2933 C 0.77453 0.142 0.68774 0.0
C2934 C 0.7333 0.11773 0.69818 0.0
C2935 C 0.73081 0.13855 0.69926 0.0
C2936 C 0.74992 0.16091 0.69381 0.0
C2937 C 0.77173 0.16245 0.68836 0.0
C2938 C 0.71344 0.09351 0.70379 0.0
C2939 C 0.74782 0.18342 0.6943 0.0
H2940 H 0.64867 0.12048 0.70244 0.0
H2941 H 0.69141 0.14053 0.74294 0.0
H2942 H 0.69576 0.14434 0.67777 0.0
H2943 H 0.6916 0.11465 0.67964 0.0
H2944 H 0.66512 0.11878 0.67932 0.0
H2945 H 0.73289 0.15133 0.7436 0.0
H2946 H 0.73941 0.13392 0.73041 0.0
H2947 H 0.74978 0.16505 0.72679 0.0
H2948 H 0.75724 0.10391 0.69207 0.0
H2949 H 0.78687 0.17983 0.68506 0.0
H2950 H 0.69544 0.08874 0.69862 0.0
H2951 H 0.71149 0.09449 0.71604 0.0
H2952 H 0.71754 0.07881 0.70135 0.0
H2953 H 0.72981 0.17966 0.68963 0.0
H2954 H 0.76279 0.19851 0.68796 0.0
H2955 H 0.74869 0.18932 0.70605 0.0
C2956 C 0.8951 0.54828 0.71369 0.0
C2957 C 0.88688 0.54137 0.72833 0.0
C2958 C 0.88884 0.5633 0.70568 0.0
C2959 C 0.87381 0.57134 0.71246 0.0
C2960 C 0.86521 0.56417 0.72718 0.0
C2961 C 0.87198 0.54936 0.73498 0.0
C2962 C 0.89856 0.57083 0.69005 0.0
C2963 C 0.84892 0.57219 0.73471 0.0
C2964 C 0.87638 0.62859 0.6987 0.0
C2965 C 0.85513 0.61932 0.68977 0.0
C2966 C 0.88288 0.61315 0.70594 0.0
C2967 C 0.86762 0.58783 0.70433 0.0
C2968 C 0.84624 0.57834 0.69523 0.0
C2969 C 0.84028 0.59422 0.68803 0.0
C2970 C 0.90596 0.62393 0.71543 0.0
C2971 C 0.82943 0.55144 0.69332 0.0
H2972 H 0.90678 0.54225 0.70858 0.0
H2973 H 0.86535 0.54375 0.74624 0.0
H2974 H 0.88305 0.5655 0.68211 0.0
H2975 H 0.91022 0.59079 0.68955 0.0
H2976 H 0.90966 0.56263 0.6863 0.0
H2977 H 0.84321 0.56442 0.74604 0.0
H2978 H 0.85879 0.59219 0.73567 0.0
H2979 H 0.83215 0.56674 0.72785 0.0
H2980 H 0.88802 0.64797 0.70004 0.0
H2981 H 0.82368 0.58692 0.68127 0.0
H2982 H 0.9183 0.61722 0.71158 0.0
H2983 H 0.90113 0.61819 0.72719 0.0
H2984 H 0.91628 0.644 0.71509 0.0
H2985 H 0.84 0.54295 0.68916 0.0
H2986 H 0.814 0.54704 0.68544 0.0
H2987 H 0.8216 0.54319 0.70428 0.0
C2988 C 0.45771 0.95675 0.17101 0.0
C2989 C 0.46151 0.93764 0.17508 0.0
C2990 C 0.46554 0.96823 0.1571 0.0
C2991 C 0.47729 0.96032 0.14687 0.0
C2992 C 0.48073 0.94071 0.15079 0.0
C2993 C 0.47296 0.92973 0.16485 0.0
C2994 C 0.46176 0.98924 0.15351 0.0
C2995 C 0.49286 0.93147 0.14018 0.0
C2996 C 0.48058 0.97983 0.10624 0.0
C2997 C 0.50455 -0.00018 0.10545 0.0
C2998 C 0.47164 0.96646 0.1195 0.0
C2999 C 0.4869 0.97329 0.13238 0.0
C3000 C 0.51124 0.9931 0.13157 0.0
C3001 C 0.51979 0.00594 0.11815 0.0
C3002 C 0.44566 0.94531 0.11981 0.0
C3003 C 0.52818 0.00108 0.145 0.0
H3004 H 0.44916 0.9632 0.17888 0.0
H3005 H 0.47572 0.91481 0.16782 0.0
H3006 H 0.47988 0.00581 0.15189 0.0
H3007 H 0.45126 0.98571 0.14292 0.0
H3008 H 0.45171 0.99277 0.16246 0.0
H3009 H 0.49311 0.91535 0.14458 0.0
H3010 H 0.48304 0.92668 0.12929 0.0
H3011 H 0.51211 0.94586 0.13806 0.0
H3012 H 0.4685 0.97498 0.09661 0.0
H3013 H 0.53851 0.02094 0.11765 0.0
H3014 H 0.43443 0.94917 0.1277 0.0
H3015 H 0.44567 0.92892 0.12387 0.0
H3016 H 0.43667 0.94134 0.10865 0.0
H3017 H 0.51998 0.00637 0.15419 0.0
H3018 H 0.54671 0.01662 0.1425 0.0
H3019 H 0.5304 0.9859 0.1491 0.0
C3020 C 0.0048 0.4918 0.17207 0.0
C3021 C 0.0255 0.51487 0.17386 0.0
C3022 C 0.99278 0.48415 0.15819 0.0
C3023 C 1.00187 0.49984 0.14578 0.0
C3024 C 0.02305 0.52297 0.14748 0.0
C3025 C 0.03451 0.53026 0.16151 0.0
C3026 C 0.97009 0.45946 0.15688 0.0
C3027 C 0.03354 0.54009 0.13448 0.0
C3028 C 0.98292 0.47289 0.10677 0.0
C3029 C 0.96458 0.47856 0.10308 0.0
C3030 C 0.99526 0.47975 0.12058 0.0
C3031 C 0.98891 0.49231 0.13109 0.0
C3032 C 0.97032 0.49793 0.12752 0.0
C3033 C 0.95854 0.49117 0.11355 0.0
C3034 C 0.01515 0.47361 0.12392 0.0
C3035 C 0.96291 0.51119 0.13845 0.0
H3036 H 0.99767 0.47994 0.18162 0.0
H3037 H 0.0507 0.54798 0.16282 0.0
H3038 H 0.95406 0.46132 0.15349 0.0
H3039 H 0.97273 0.44871 0.14809 0.0
H3040 H 0.96563 0.44929 0.16752 0.0
H3041 H 0.05058 0.55712 0.13754 0.0
H3042 H 0.0378 0.53127 0.12518 0.0
H3043 H 0.01971 0.54468 0.13025 0.0
H3044 H 0.9875 0.46283 0.0989 0.0
H3045 H 0.94474 0.49606 0.11076 0.0
H3046 H 0.01015 0.46195 0.13393 0.0
H3047 H 0.03275 0.49036 0.12648 0.0
H3048 H 0.01818 0.46412 0.11447 0.0
H3049 H 0.95708 0.50116 0.14912 0.0
H3050 H 0.94759 0.51355 0.13414 0.0
H3051 H 0.97891 0.52928 0.14096 0.0
C3052 C 0.48055 0.53806 0.16311 0.0
C3053 C 0.47003 0.52129 0.17472 0.0
C3054 C 0.48558 0.5313 0.14921 0.0
C3055 C 0.48003 0.50716 0.14682 0.0
C3056 C 0.46872 0.48996 0.15833 0.0
C3057 C 0.4638 0.49721 0.17213 0.0
C3058 C 0.49742 0.55016 0.13721 0.0
C3059 C 0.46257 0.46406 0.15625 0.0
C3060 C 0.47809 0.48576 0.10681 0.0
C3061 C 0.50159 0.48828 0.10534 0.0
C3062 C 0.47074 0.49168 0.12025 0.0
C3063 C 0.48723 0.50028 0.13255 0.0
C3064 C 0.51091 0.50276 0.13116 0.0
C3065 C 0.5178 0.4968 0.11759 0.0
C3066 C 0.44535 0.48879 0.12127 0.0
C3067 C 0.52909 0.51193 0.14398 0.0
H3068 H 0.48506 0.55662 0.16495 0.0
H3069 H 0.45587 0.4842 0.18107 0.0
H3070 H 0.51599 0.55296 0.13465 0.0
H3071 H 0.48636 0.54391 0.12677 0.0
H3072 H 0.49935 0.5678 0.14054 0.0
H3073 H 0.45248 0.45259 0.16593 0.0
H3074 H 0.45118 0.45624 0.14605 0.0
H3075 H 0.47979 0.4634 0.1547 0.0
H3076 H 0.4653 0.47889 0.0975 0.0
H3077 H 0.53611 0.49918 0.11652 0.0
H3078 H 0.44685 0.50645 0.12398 0.0
H3079 H 0.4349 0.4762 0.13042 0.0
H3080 H 0.43468 0.4818 0.11073 0.0
H3081 H 0.53346 0.53048 0.14712 0.0
H3082 H 0.54655 0.5123 0.14121 0.0
H3083 H 0.52088 0.50032 0.15389 0.0
C3084 C 0.95196 0.45466 0.84498 0.0
C3085 C 0.96074 0.47145 0.83332 0.0
C3086 C 0.96287 0.46082 0.85919 0.0
C3087 C 0.98315 0.48427 0.86175 0.0
C3088 C 0.99196 0.50136 0.85006 0.0
C3089 C 0.98059 0.49476 0.83598 0.0
C3090 C 0.95283 0.4422 0.87143 0.0
C3091 C 0.01366 0.52647 0.85234 0.0
C3092 C 0.99972 0.50729 0.9016 0.0
C3093 C 0.01916 0.50297 0.9047 0.0
C3094 C 0.98776 0.50122 0.88768 0.0
C3095 C 0.99554 0.49074 0.87657 0.0
C3096 C 0.01521 0.48643 0.87959 0.0
C3097 C 0.02672 0.49251 0.89363 0.0
C3098 C 0.96681 0.50604 0.88486 0.0
C3099 C 0.02404 0.4753 0.86799 0.0
H3100 H 0.93642 0.43672 0.84299 0.0
H3101 H 0.98759 0.50768 0.82695 0.0
H3102 H 0.96731 0.43827 0.87531 0.0
H3103 H 0.9475 0.44934 0.88115 0.0
H3104 H 0.93654 0.425 0.86772 0.0
H3105 H 0.01785 0.5378 0.8422 0.0
H3106 H 0.00997 0.53564 0.86169 0.0
H3107 H 0.03023 0.52535 0.85542 0.0
H3108 H 0.99399 0.51566 0.91002 0.0
H3109 H 0.04146 0.48878 0.89601 0.0
H3110 H 0.94989 0.48898 0.88177 0.0
H3111 H 0.97134 0.51861 0.87535 0.0
H3112 H 0.96279 0.514 0.89475 0.0
H3113 H 0.00878 0.45715 0.86475 0.0
H3114 H 0.03979 0.47344 0.87205 0.0
H3115 H 0.02979 0.48655 0.85779 0.0
C3116 C 0.56218 0.47722 0.84472 0.0
C3117 C 0.54178 0.46906 0.83513 0.0
C3118 C 0.56145 0.48471 0.85938 0.0
C3119 C 0.53982 0.48409 0.86458 0.0
C3120 C 0.51902 0.47551 0.85504 0.0
C3121 C 0.52025 0.4681 0.84045 0.0
C3122 C 0.584 0.49367 0.86921 0.0
C3123 C 0.49567 0.47471 0.86013 0.0
C3124 C 0.5318 0.48778 0.90649 0.0
C3125 C 0.53987 0.51244 0.90843 0.0
C3126 C 0.53156 0.47822 0.89228 0.0
C3127 C 0.53943 0.49367 0.87972 0.0
C3128 C 0.54722 0.51849 0.8816 0.0
C3129 C 0.54736 0.52754 0.89591 0.0
C3130 C 0.52317 0.45167 0.89073 0.0
C3131 C 0.55554 0.53555 0.86851 0.0
H3132 H 0.57876 0.4777 0.84077 0.0
H3133 H 0.50451 0.46212 0.83306 0.0
H3134 H 0.59113 0.51294 0.87215 0.0
H3135 H 0.57911 0.48338 0.8798 0.0
H3136 H 0.59896 0.492 0.86373 0.0
H3137 H 0.48072 0.4664 0.85164 0.0
H3138 H 0.48907 0.46431 0.87063 0.0
H3139 H 0.49943 0.49332 0.86252 0.0
H3140 H 0.52615 0.47605 0.91613 0.0
H3141 H 0.55322 0.54654 0.89729 0.0
H3142 H 0.53839 0.4494 0.88623 0.0
H3143 H 0.50763 0.44302 0.88266 0.0
H3144 H 0.51719 0.442 0.90153 0.0
H3145 H 0.57166 0.53594 0.86313 0.0
H3146 H 0.56071 0.55428 0.87183 0.0
H3147 H 0.54064 0.5291 0.86001 0.0
C3148 C 0.52976 0.03815 0.83362 0.0
C3149 C 0.52493 0.05703 0.83087 0.0
C3150 C 0.5249 0.02679 0.84763 0.0
C3151 C 0.51509 0.03453 0.85925 0.0
C3152 C 0.51086 0.05403 0.85667 0.0
C3153 C 0.51576 0.06498 0.84254 0.0
C3154 C 0.52959 0.006 0.84986 0.0
C3155 C 0.50066 0.06305 0.86875 0.0
C3156 C 0.47749 0.98899 0.88935 0.0
C3157 C 0.49453 0.99559 0.90114 0.0
C3158 C 0.48394 0.00152 0.87575 0.0
C3159 C 0.50802 0.02139 0.87382 0.0
C3160 C 0.52522 0.02848 0.88574 0.0
C3161 C 0.5183 0.0155 0.89923 0.0
C3162 C 0.46497 0.99336 0.86338 0.0
C3163 C 0.55103 0.04961 0.88419 0.0
H3164 H 0.53662 0.03171 0.82467 0.0
H3165 H 0.51235 0.07981 0.84061 0.0
H3166 H 0.5416 0.00941 0.85976 0.0
H3167 H 0.51191 0.9892 0.85202 0.0
H3168 H 0.53844 0.00296 0.84 0.0
H3169 H 0.49967 0.07922 0.86524 0.0
H3170 H 0.48187 0.04858 0.87179 0.0
H3171 H 0.51227 0.06767 0.87895 0.0
H3172 H 0.45894 0.97397 0.89076 0.0
H3173 H 0.53172 0.02066 0.90816 0.0
H3174 H 0.47184 0.98839 0.85335 0.0
H3175 H 0.46182 0.00838 0.86018 0.0
H3176 H 0.44706 0.97759 0.86664 0.0
H3177 H 0.56073 0.04593 0.87512 0.0
H3178 H 0.56196 0.05337 0.89465 0.0
H3179 H 0.55039 0.06608 0.88106 0.0
C3180 C 0.13062 0.2981 0.50797 0.0
C3181 C 0.13398 0.2786 0.51171 0.0
C3182 C 0.13752 0.30922 0.49392 0.0
C3183 C 0.148 0.30064 0.48324 0.0
C3184 C 0.15126 0.28082 0.48688 0.0
C3185 C 0.14431 0.27012 0.50106 0.0
C3186 C 0.1339 0.33041 0.4906 0.0
C3187 C 0.16218 0.27098 0.4758 0.0
C3188 C 0.14719 0.31854 0.44269 0.0
C3189 C 0.17104 0.33844 0.44106 0.0
C3190 C 0.13962 0.3057 0.4562 0.0
C3191 C 0.1562 0.31294 0.46846 0.0
C3192 C 0.18045 0.33263 0.46678 0.0
C3193 C 0.18757 0.34502 0.45314 0.0
C3194 C 0.11365 0.28474 0.45747 0.0
C3195 C 0.19878 0.34095 0.47951 0.0
H3196 H 0.12298 0.30502 0.51616 0.0
H3197 H 0.14672 0.25489 0.50376 0.0
H3198 H 0.15197 0.34668 0.48829 0.0
H3199 H 0.12232 0.32663 0.48045 0.0
H3200 H 0.12504 0.33459 0.49997 0.0
H3201 H 0.16294 0.25511 0.48018 0.0
H3202 H 0.15113 0.26557 0.46534 0.0
H3203 H 0.18113 0.28522 0.47286 0.0
H3204 H 0.13416 0.31338 0.43352 0.0
H3205 H 0.20619 0.36001 0.45195 0.0
H3206 H 0.10338 0.28905 0.46584 0.0
H3207 H 0.11391 0.26842 0.46142 0.0
H3208 H 0.1035 0.28041 0.44668 0.0
H3209 H 0.1918 0.34695 0.48901 0.0
H3210 H 0.21713 0.3561 0.47629 0.0
H3211 H 0.20106 0.32575 0.4835 0.0
C3212 C 0.7372 0.859 0.49678 0.0
C3213 C 0.72514 0.86797 0.50568 0.0
C3214 C 0.72972 0.85161 0.48202 0.0
C3215 C 0.70975 0.85332 0.47599 0.0
C3216 C 0.69811 0.86325 0.4847 0.0
C3217 C 0.70595 0.87046 0.49948 0.0
C3218 C 0.74265 0.84118 0.47307 0.0
C3219 C 0.67679 0.8654 0.47861 0.0
C3220 C 0.70119 0.84733 0.4339 0.0
C3221 C 0.68335 0.82282 0.43233 0.0
C3222 C 0.70966 0.85769 0.44807 0.0
C3223 C 0.70007 0.84317 0.46093 0.0
C3224 C 0.68183 0.81851 0.4594 0.0
C3225 C 0.67368 0.80866 0.44513 0.0
C3226 C 0.72913 0.88404 0.44928 0.0
C3227 C 0.67111 0.80244 0.47285 0.0
H3228 H 0.75235 0.85746 0.50144 0.0
H3229 H 0.69647 0.87724 0.50634 0.0
H3230 H 0.72958 0.82188 0.4705 0.0
H3231 H 0.74901 0.85074 0.46228 0.0
H3232 H 0.75878 0.84242 0.4791 0.0
H3233 H 0.67111 0.87534 0.48635 0.0
H3234 H 0.68173 0.87484 0.46773 0.0
H3235 H 0.66076 0.8471 0.47664 0.0
H3236 H 0.70886 0.85831 0.42404 0.0
H3237 H 0.65956 0.78983 0.44399 0.0
H3238 H 0.74613 0.88576 0.45432 0.0
H3239 H 0.72275 0.89369 0.45674 0.0
H3240 H 0.73381 0.89313 0.43826 0.0
H3241 H 0.68592 0.80138 0.47904 0.0
H3242 H 0.65659 0.78382 0.46976 0.0
H3243 H 0.66306 0.81023 0.48058 0.0
C3244 C 0.14581 0.87414 0.49576 0.0
C3245 C 0.13589 0.85751 0.50747 0.0
C3246 C 0.15057 0.86731 0.4818 0.0
C3247 C 0.14542 0.84327 0.4795 0.0
C3248 C 0.13476 0.82622 0.49115 0.0
C3249 C 0.13006 0.83352 0.50497 0.0
C3250 C 0.16168 0.88598 0.46963 0.0
C3251 C 0.12911 0.80046 0.48917 0.0
C3252 C 0.1424 0.82055 0.43976 0.0
C3253 C 0.16599 0.8234 0.43807 0.0
C3254 C 0.13543 0.82697 0.45315 0.0
C3255 C 0.15239 0.83633 0.46519 0.0
C3256 C 0.1762 0.83921 0.46357 0.0
C3257 C 0.18272 0.83281 0.45004 0.0
C3258 C 0.10991 0.82369 0.45443 0.0
C3259 C 0.19485 0.84915 0.47613 0.0
H3260 H 0.15005 0.89263 0.49756 0.0
H3261 H 0.12262 0.82064 0.51402 0.0
H3262 H 0.18034 0.88918 0.46689 0.0
H3263 H 0.15034 0.8793 0.45933 0.0
H3264 H 0.16324 0.90349 0.47291 0.0
H3265 H 0.11957 0.78908 0.499 0.0
H3266 H 0.1174 0.79224 0.47914 0.0
H3267 H 0.1465 0.80018 0.4874 0.0
H3268 H 0.12921 0.813 0.43067 0.0
H3269 H 0.20112 0.83547 0.44879 0.0
H3270 H 0.11115 0.84122 0.45716 0.0
H3271 H 0.09982 0.8111 0.46366 0.0
H3272 H 0.099 0.81648 0.44398 0.0
H3273 H 0.19884 0.86763 0.47914 0.0
H3274 H 0.21244 0.84993 0.47317 0.0
H3275 H 0.18724 0.83776 0.4862 0.0
C3276 C 0.65457 0.83649 0.16626 0.0
C3277 C 0.63558 0.81262 0.164 0.0
C3278 C 0.66665 0.844 0.1801 0.0
C3279 C 0.65939 0.82726 0.19196 0.0
C3280 C 0.63998 0.80323 0.1898 0.0
C3281 C 0.62836 0.79618 0.17582 0.0
C3282 C 0.68738 0.86972 0.18198 0.0
C3283 C 0.63154 0.78494 0.20223 0.0
C3284 C 0.7038 0.83768 0.22378 0.0
C3285 C 0.69499 0.84674 0.23499 0.0
C3286 C 0.69268 0.83172 0.20961 0.0
C3287 C 0.67218 0.83475 0.20663 0.0
C3288 C 0.66341 0.8442 0.21782 0.0
C3289 C 0.67499 0.85018 0.23184 0.0
C3290 C 0.70258 0.82174 0.19793 0.0
C3291 C 0.64155 0.84763 0.21506 0.0
H3292 H 0.66033 0.84916 0.15709 0.0
H3293 H 0.61345 0.7778 0.17415 0.0
H3294 H 0.68327 0.87862 0.1913 0.0
H3295 H 0.70468 0.86985 0.18491 0.0
H3296 H 0.69055 0.88057 0.17172 0.0
H3297 H 0.61593 0.76708 0.19878 0.0
H3298 H 0.64701 0.78243 0.20597 0.0
H3299 H 0.62573 0.79162 0.21197 0.0
H3300 H 0.71904 0.8347 0.22618 0.0
H3301 H 0.66836 0.85757 0.24037 0.0
H3302 H 0.70707 0.83267 0.18761 0.0
H3303 H 0.6883 0.803 0.19495 0.0
H3304 H 0.71936 0.82157 0.20179 0.0
H3305 H 0.64508 0.85955 0.2053 0.0
H3306 H 0.63733 0.85563 0.22484 0.0
H3307 H 0.62504 0.82997 0.21237 0.0
C3308 C 0.21805 0.82648 0.17353 0.0
C3309 C 0.19939 0.8065 0.1657 0.0
C3310 C 0.21321 0.8345 0.18704 0.0
C3311 C 0.18958 0.82136 0.19352 0.0
C3312 C 0.17098 0.80059 0.18616 0.0
C3313 C 0.17582 0.79395 0.17219 0.0
C3314 C 0.23326 0.85741 0.1942 0.0
C3315 C 0.14581 0.78538 0.19299 0.0
C3316 C 0.18417 0.83119 0.23491 0.0
C3317 C 0.1716 0.84436 0.23479 0.0
C3318 C 0.18962 0.82313 0.22162 0.0
C3319 C 0.18395 0.82971 0.20774 0.0
C3320 C 0.17225 0.84376 0.20743 0.0
C3321 C 0.16549 0.85015 0.22086 0.0
C3322 C 0.20103 0.80717 0.22247 0.0
C3323 C 0.1668 0.85206 0.19286 0.0
H3324 H 0.23657 0.83615 0.16917 0.0
H3325 H 0.16075 0.77902 0.16635 0.0
H3326 H 0.22641 0.87019 0.19624 0.0
H3327 H 0.23851 0.85332 0.20516 0.0
H3328 H 0.25003 0.86654 0.18718 0.0
H3329 H 0.13465 0.76801 0.18693 0.0
H3330 H 0.1476 0.78138 0.20483 0.0
H3331 H 0.13562 0.79543 0.19282 0.0
H3332 H 0.18991 0.82705 0.24535 0.0
H3333 H 0.15519 0.85958 0.22028 0.0
H3334 H 0.21988 0.8167 0.21779 0.0
H3335 H 0.19007 0.79054 0.2157 0.0
H3336 H 0.20216 0.80183 0.2341 0.0
H3337 H 0.18343 0.86029 0.1857 0.0
H3338 H 0.16066 0.86548 0.19458 0.0
H3339 H 0.15211 0.83637 0.18669 0.0
C3340 C 0.21451 0.39659 0.17535 0.0
C3341 C 0.19529 0.39712 0.16745 0.0
C3342 C 0.21029 0.38426 0.18899 0.0
C3343 C 0.18659 0.3733 0.19549 0.0
C3344 C 0.16738 0.37466 0.18805 0.0
C3345 C 0.17172 0.38579 0.174 0.0
C3346 C 0.23112 0.38247 0.19624 0.0
C3347 C 0.14207 0.36417 0.19485 0.0
C3348 C 0.16642 0.32111 0.2227 0.0
C3349 C 0.17251 0.33283 0.23671 0.0
C3350 C 0.17156 0.3341 0.20931 0.0
C3351 C 0.18158 0.35945 0.20973 0.0
C3352 C 0.18671 0.37141 0.22372 0.0
C3353 C 0.18281 0.35814 0.23695 0.0
C3354 C 0.16655 0.32061 0.19466 0.0
C3355 C 0.19631 0.39827 0.22475 0.0
H3356 H 0.23303 0.40569 0.17097 0.0
H3357 H 0.15627 0.38514 0.16816 0.0
H3358 H 0.23562 0.39161 0.20727 0.0
H3359 H 0.22542 0.36322 0.19816 0.0
H3360 H 0.24807 0.39074 0.18934 0.0
H3361 H 0.13026 0.36976 0.18876 0.0
H3362 H 0.13275 0.34416 0.19467 0.0
H3363 H 0.14354 0.36994 0.20668 0.0
H3364 H 0.15759 0.30163 0.22203 0.0
H3365 H 0.1882 0.3679 0.24744 0.0
H3366 H 0.18326 0.32916 0.18757 0.0
H3367 H 0.15167 0.32151 0.18848 0.0
H3368 H 0.16096 0.3013 0.19622 0.0
H3369 H 0.21539 0.4083 0.22044 0.0
H3370 H 0.19639 0.40431 0.2364 0.0
H3371 H 0.18487 0.40325 0.21777 0.0
C3372 C 0.79632 0.62958 0.83943 0.0
C3373 C 0.80138 0.61141 0.84382 0.0
C3374 C 0.80348 0.6406 0.82537 0.0
C3375 C 0.81586 0.63318 0.8153 0.0
C3376 C 0.82071 0.61459 0.81957 0.0
C3377 C 0.81357 0.60406 0.83379 0.0
C3378 C 0.7982 0.66054 0.82139 0.0
C3379 C 0.83356 0.6059 0.80913 0.0
C3380 C 0.81649 0.65013 0.77437 0.0
C3381 C 0.8398 0.67096 0.77313 0.0
C3382 C 0.8087 0.63728 0.78788 0.0
C3383 C 0.82444 0.64551 0.80055 0.0
C3384 C 0.84816 0.66619 0.79928 0.0
C3385 C 0.85557 0.6785 0.78563 0.0
C3386 C 0.78336 0.6152 0.78868 0.0
C3387 C 0.86556 0.67565 0.81248 0.0
H3388 H 0.78719 0.6356 0.84716 0.0
H3389 H 0.81732 0.58986 0.83701 0.0
H3390 H 0.81576 0.67753 0.81935 0.0
H3391 H 0.78719 0.65589 0.81094 0.0
H3392 H 0.78802 0.66391 0.83033 0.0
H3393 H 0.83516 0.59069 0.81388 0.0
H3394 H 0.82336 0.59992 0.79838 0.0
H3395 H 0.85232 0.62095 0.80662 0.0
H3396 H 0.804 0.64419 0.7649 0.0
H3397 H 0.87382 0.6942 0.78477 0.0
H3398 H 0.77175 0.61861 0.79652 0.0
H3399 H 0.78462 0.59962 0.79305 0.0
H3400 H 0.774 0.61017 0.77763 0.0
H3401 H 0.85712 0.68081 0.8216 0.0
H3402 H 0.88356 0.69164 0.8096 0.0
H3403 H 0.86892 0.66132 0.81686 0.0
C3404 C 0.37082 0.17592 0.83339 0.0
C3405 C 0.36351 0.1878 0.84362 0.0
C3406 C 0.36042 0.16984 0.81903 0.0
C3407 C 0.34242 0.17592 0.81477 0.0
C3408 C 0.33467 0.18754 0.82511 0.0
C3409 C 0.34522 0.19323 0.83942 0.0
C3410 C 0.36905 0.15734 0.80831 0.0
C3411 C 0.3155 0.19431 0.82098 0.0
C3412 C 0.33321 0.18372 0.77372 0.0
C3413 C 0.31135 0.16218 0.77047 0.0
C3414 C 0.3437 0.18827 0.78805 0.0
C3415 C 0.33211 0.17079 0.79937 0.0
C3416 C 0.31027 0.14883 0.79608 0.0
C3417 C 0.30009 0.14482 0.78167 0.0
C3418 C 0.3669 0.212 0.79116 0.0
C3419 C 0.29755 0.12967 0.80782 0.0
H3420 H 0.38512 0.17189 0.83649 0.0
H3421 H 0.33914 0.202 0.84734 0.0
H3422 H 0.35306 0.14048 0.80398 0.0
H3423 H 0.37812 0.16917 0.7986 0.0
H3424 H 0.38226 0.15276 0.8136 0.0
H3425 H 0.31122 0.20295 0.8304 0.0
H3426 H 0.32209 0.20701 0.81145 0.0
H3427 H 0.29823 0.17801 0.81736 0.0
H3428 H 0.34183 0.19728 0.76512 0.0
H3429 H 0.28336 0.12802 0.77914 0.0
H3430 H 0.38149 0.20868 0.79561 0.0
H3431 H 0.36324 0.22228 0.7998 0.0
H3432 H 0.374 0.22338 0.78103 0.0
H3433 H 0.31058 0.12443 0.81258 0.0
H3434 H 0.28121 0.11322 0.80332 0.0
H3435 H 0.29149 0.13696 0.81712 0.0
C3436 C 0.82337 0.213 0.83378 0.0
C3437 C 0.81518 0.19563 0.84512 0.0
C3438 C 0.82878 0.20792 0.81948 0.0
C3439 C 0.82613 0.18496 0.81645 0.0
C3440 C 0.81728 0.16714 0.82774 0.0
C3441 C 0.81181 0.17265 0.84192 0.0
C3442 C 0.83787 0.22732 0.80771 0.0
C3443 C 0.81435 0.14249 0.82499 0.0
C3444 C 0.8245 0.1651 0.7761 0.0
C3445 C 0.84893 0.17045 0.77399 0.0
C3446 C 0.81682 0.16985 0.78981 0.0
C3447 C 0.83391 0.18005 0.80174 0.0
C3448 C 0.85859 0.18561 0.79966 0.0
C3449 C 0.86581 0.18087 0.78583 0.0
C3450 C 0.79038 0.16381 0.79155 0.0
C3451 C 0.87741 0.19652 0.81209 0.0
H3452 H 0.82565 0.23067 0.83612 0.0
H3453 H 0.80568 0.15922 0.85066 0.0
H3454 H 0.85705 0.23266 0.80461 0.0
H3455 H 0.82641 0.2203 0.79746 0.0
H3456 H 0.83749 0.24369 0.81156 0.0
H3457 H 0.80605 0.13025 0.83466 0.0
H3458 H 0.8026 0.13396 0.81502 0.0
H3459 H 0.83262 0.14436 0.8227 0.0
H3460 H 0.81122 0.15678 0.76712 0.0
H3461 H 0.88482 0.18551 0.78426 0.0
H3462 H 0.78969 0.18016 0.79499 0.0
H3463 H 0.78143 0.15019 0.80047 0.0
H3464 H 0.77955 0.15658 0.78108 0.0
H3465 H 0.87939 0.21407 0.81563 0.0
H3466 H 0.8958 0.19955 0.80872 0.0
H3467 H 0.87112 0.18446 0.82193 0.0
C3468 C 0.31478 0.16095 0.50053 0.0
C3469 C 0.29461 0.13776 0.49809 0.0
C3470 C 0.32682 0.16748 0.51443 0.0
C3471 C 0.31831 0.15046 0.52617 0.0
C3472 C 0.29762 0.12719 0.52385 0.0
C3473 C 0.28608 0.12109 0.50981 0.0
C3474 C 0.34894 0.19241 0.51647 0.0
C3475 C 0.28783 0.10865 0.53615 0.0
C3476 C 0.36228 0.15688 0.55741 0.0
C3477 C 0.35533 0.1673 0.56884 0.0
C3478 C 0.35062 0.15164 0.54341 0.0
C3479 C 0.33138 0.15674 0.54079 0.0
C3480 C 0.32432 0.16735 0.55223 0.0
C3481 C 0.33646 0.17261 0.56608 0.0
C3482 C 0.35871 0.14038 0.53147 0.0
C3483 C 0.30383 0.17297 0.54986 0.0
H3484 H 0.32155 0.1738 0.49145 0.0
H3485 H 0.27028 0.10325 0.50801 0.0
H3486 H 0.346 0.20176 0.52601 0.0
H3487 H 0.36545 0.19092 0.51911 0.0
H3488 H 0.35279 0.20374 0.50636 0.0
H3489 H 0.2711 0.09164 0.53266 0.0
H3490 H 0.30218 0.1043 0.53964 0.0
H3491 H 0.28326 0.11608 0.54606 0.0
H3492 H 0.37659 0.15241 0.5595 0.0
H3493 H 0.33124 0.18103 0.57476 0.0
H3494 H 0.36405 0.15163 0.52126 0.0
H3495 H 0.34317 0.1223 0.52838 0.0
H3496 H 0.37453 0.13833 0.53511 0.0
H3497 H 0.30824 0.18547 0.54032 0.0
H3498 H 0.30063 0.18131 0.55988 0.0
H3499 H 0.28646 0.15615 0.54703 0.0
C3500 C 0.83709 0.13564 0.50275 0.0
C3501 C 0.8608 0.14012 0.49913 0.0
C3502 C 0.83192 0.14159 0.51684 0.0
C3503 C 0.85097 0.15263 0.52762 0.0
C3504 C 0.87511 0.15775 0.52397 0.0
C3505 C 0.87973 0.15139 0.50978 0.0
C3506 C 0.80593 0.13582 0.52024 0.0
C3507 C 0.89595 0.16968 0.53513 0.0
C3508 C 0.83832 0.18503 0.55907 0.0
C3509 C 0.82979 0.1676 0.57038 0.0
C3510 C 0.84622 0.1808 0.54531 0.0
C3511 C 0.84535 0.15849 0.54272 0.0
C3512 C 0.83735 0.14108 0.55424 0.0
C3513 C 0.82977 0.14589 0.56794 0.0
C3514 C 0.85488 0.19995 0.5334 0.0
C3515 C 0.83593 0.11699 0.55189 0.0
H3516 H 0.82245 0.12747 0.49451 0.0
H3517 H 0.89806 0.15478 0.50715 0.0
H3518 H 0.79877 0.12352 0.52995 0.0
H3519 H 0.80578 0.1526 0.52328 0.0
H3520 H 0.79319 0.12714 0.51064 0.0
H3521 H 0.91385 0.17331 0.53038 0.0
H3522 H 0.8978 0.187 0.53906 0.0
H3523 H 0.89188 0.15793 0.54503 0.0
H3524 H 0.83874 0.202 0.56097 0.0
H3525 H 0.82303 0.13227 0.57659 0.0
H3526 H 0.84186 0.19322 0.52381 0.0
H3527 H 0.87316 0.20398 0.52916 0.0
H3528 H 0.85626 0.217 0.53755 0.0
H3529 H 0.822 0.10656 0.54314 0.0
H3530 H 0.83083 0.10605 0.56224 0.0
H3531 H 0.85388 0.11968 0.54792 0.0
C3532 C 0.87738 0.73689 0.50937 0.0
C3533 C 0.85789 0.72991 0.49915 0.0
C3534 C 0.87359 0.72566 0.52339 0.0
C3535 C 0.84972 0.70697 0.52736 0.0
C3536 C 0.82997 0.69996 0.51714 0.0
C3537 C 0.8343 0.7114 0.50321 0.0
C3538 C 0.89516 0.7337 0.53394 0.0
C3539 C 0.80425 0.68008 0.52084 0.0
C3540 C 0.84091 0.65974 0.55633 0.0
C3541 C 0.83305 0.66725 0.56888 0.0
C3542 C 0.84708 0.67287 0.54294 0.0
C3543 C 0.84536 0.69412 0.54197 0.0
C3544 C 0.83815 0.70222 0.55472 0.0
C3545 C 0.83214 0.68874 0.56801 0.0
C3546 C 0.85488 0.66364 0.52971 0.0
C3547 C 0.836 0.72472 0.55419 0.0
H3548 H 0.89563 0.75132 0.50647 0.0
H3549 H 0.81915 0.70548 0.49535 0.0
H3550 H 0.8912 0.73967 0.5447 0.0
H3551 H 0.89809 0.71829 0.53638 0.0
H3552 H 0.91246 0.74873 0.52932 0.0
H3553 H 0.79073 0.67727 0.5119 0.0
H3554 H 0.80421 0.66286 0.52257 0.0
H3555 H 0.79803 0.68441 0.53139 0.0
H3556 H 0.84212 0.64341 0.55695 0.0
H3557 H 0.82593 0.69463 0.57758 0.0
H3558 H 0.87283 0.67804 0.52542 0.0
H3559 H 0.84119 0.65861 0.52055 0.0
H3560 H 0.85659 0.6476 0.53249 0.0
H3561 H 0.85338 0.74021 0.55006 0.0
H3562 H 0.83178 0.72953 0.56529 0.0
H3563 H 0.82115 0.72194 0.54626 0.0
loop_
_geom_bond_atom_site_label_1
_geom_bond_atom_site_label_2
_geom_bond_distance
_geom_bond_site_symmetry_2
_ccdc_geom_bond_type
C0 C1 1.391 . S
C0 C4 1.391 . S
C0 H42 0.948 . S
C1 C0 1.391 . S
C1 C2 1.391 . S
C2 C1 1.391 . S
C2 H58 0.947 . S
C2 C59 1.392 . S
C3 C4 1.391 . S
C3 C7 1.397 . S
C3 C59 1.419 . S
C4 C0 1.391 . S
C4 C3 1.391 . S
C4 C5 1.399 . S
C5 C4 1.399 . S
C5 C8 1.396 . S
C5 C17 1.453 . S
C5 C18 1.684 . S
H6 C30 0.948 . S
C7 C3 1.397 . S
C7 C8 1.394 . S
C7 C26 1.723 . S
C8 C5 1.396 . S
C8 C7 1.394 . S
C8 C38 1.723 . S
H9 C32 0.947 . S
H10 C33 0.948 . S
H11 C39 0.982 . S
H12 C40 0.979 . S
H13 C40 0.980 . S
H14 C40 0.983 . S
H15 C39 0.979 . S
H16 C39 0.977 . S
C17 C5 1.453 . S
C17 H46 0.982 . S
C17 H47 0.979 . S
C17 H48 0.977 . S
C18 C5 1.684 . S
C18 H43 0.979 . S
C18 H44 0.980 . S
C18 H45 0.983 . S
C19 C20 1.391 . S
C19 C24 1.391 . S
C19 H49 0.948 . S
C20 C19 1.391 . S
C20 C21 1.391 . S
C21 C20 1.391 . S
C21 C22 1.392 . S
C21 H50 0.947 . S
C22 C21 1.392 . S
C22 C23 1.419 . S
C22 H51 0.948 . S
C23 C22 1.419 . S
C23 C24 1.391 . S
C23 C27 1.397 . S
C24 C19 1.391 . S
C24 C23 1.391 . S
C24 C25 1.399 . S
C25 C24 1.399 . S
C25 C26 1.396 . S
C25 C28 1.453 . S
C25 C29 1.684 . S
C26 C7 1.723 . S
C26 C25 1.396 . S
C26 C27 1.394 . S
C27 C23 1.397 . S
C27 C26 1.394 . S
C27 C37 1.723 . S
C28 C25 1.453 . S
C28 H52 0.982 . S
C28 H53 0.979 . S
C28 H54 0.977 . S
C29 C25 1.684 . S
C29 H55 0.979 . S
C29 H56 0.980 . S
C29 H57 0.983 . S
C30 H6 0.948 . S
C30 C31 1.391 . S
C30 C35 1.391 . S
C31 C30 1.391 . S
C31 C32 1.391 . S
C32 H9 0.947 . S
C32 C31 1.391 . S
C32 C33 1.392 . S
C33 H10 0.948 . S
C33 C32 1.392 . S
C33 C34 1.419 . S
C34 C33 1.419 . S
C34 C35 1.391 . S
C34 C38 1.397 . S
C35 C30 1.391 . S
C35 C34 1.391 . S
C35 C36 1.399 . S
C36 C35 1.399 . S
C36 C37 1.396 . S
C36 C39 1.453 . S
C36 C40 1.684 . S
C37 C27 1.723 . S
C37 C36 1.396 . S
C37 C38 1.394 . S
C38 C8 1.723 . S
C38 C34 1.397 . S
C38 C37 1.394 . S
C39 H11 0.982 . S
C39 H15 0.979 . S
C39 H16 0.977 . S
C39 C36 1.453 . S
C40 H12 0.979 . S
C40 H13 0.980 . S
C40 H14 0.983 . S
C40 C36 1.684 . S
H41 C59 0.948 . S
H42 C0 0.948 . S
H43 C18 0.979 . S
H44 C18 0.980 . S
H45 C18 0.983 . S
H46 C17 0.982 . S
H47 C17 0.979 . S
H48 C17 0.977 . S
H49 C19 0.948 . S
H50 C21 0.947 . S
H51 C22 0.948 . S
H52 C28 0.982 . S
H53 C28 0.979 . S
H54 C28 0.977 . S
H55 C29 0.979 . S
H56 C29 0.980 . S
H57 C29 0.983 . S
H58 C2 0.947 . S
C59 C2 1.392 . S
C59 C3 1.419 . S
C59 H41 0.948 . S
C60 C61 1.391 . S
C60 C64 1.391 . S
C60 H102 0.948 . S
C61 C60 1.391 . S
C61 C62 1.391 . S
C62 C61 1.391 . S
C62 H118 0.947 . S
C62 C119 1.392 . S
C63 C64 1.391 . S
C63 C67 1.397 . S
C63 C119 1.419 . S
C64 C60 1.391 . S
C64 C63 1.391 . S
C64 C65 1.399 . S
C65 C64 1.399 . S
C65 C68 1.396 . S
C65 C77 1.453 . S
C65 C78 1.684 . S
H66 C90 0.948 . S
C67 C63 1.397 . S
C67 C68 1.394 . S
C67 C86 1.723 . S
C68 C65 1.396 . S
C68 C67 1.394 . S
C68 C98 1.723 . S
H69 C92 0.947 . S
H70 C93 0.948 . S
H71 C99 0.982 . S
H72 C100 0.979 . S
H73 C100 0.980 . S
H74 C100 0.983 . S
H75 C99 0.979 . S
H76 C99 0.977 . S
C77 C65 1.453 . S
C77 H106 0.982 . S
C77 H107 0.979 . S
C77 H108 0.977 . S
C78 C65 1.684 . S
C78 H103 0.979 . S
C78 H104 0.980 . S
C78 H105 0.983 . S
C79 C80 1.391 . S
C79 C84 1.391 . S
C79 H109 0.948 . S
C80 C79 1.391 . S
C80 C81 1.391 . S
C81 C80 1.391 . S
C81 C82 1.392 . S
C81 H110 0.947 . S
C82 C81 1.392 . S
C82 C83 1.419 . S
C82 H111 0.948 . S
C83 C82 1.419 . S
C83 C84 1.391 . S
C83 C87 1.397 . S
C84 C79 1.391 . S
C84 C83 1.391 . S
C84 C85 1.399 . S
C85 C84 1.399 . S
C85 C86 1.396 . S
C85 C88 1.453 . S
C85 C89 1.684 . S
C86 C67 1.723 . S
C86 C85 1.396 . S
C86 C87 1.394 . S
C87 C83 1.397 . S
C87 C86 1.394 . S
C87 C97 1.723 . S
C88 C85 1.453 . S
C88 H112 0.982 . S
C88 H113 0.979 . S
C88 H114 0.977 . S
C89 C85 1.684 . S
C89 H115 0.979 . S
C89 H116 0.980 . S
C89 H117 0.983 . S
C90 H66 0.948 . S
C90 C91 1.391 . S
C90 C95 1.391 . S
C91 C90 1.391 . S
C91 C92 1.391 . S
C92 H69 0.947 . S
C92 C91 1.391 . S
C92 C93 1.392 . S
C93 H70 0.948 . S
C93 C92 1.392 . S
C93 C94 1.419 . S
C94 C93 1.419 . S
C94 C95 1.391 . S
C94 C98 1.397 . S
C95 C90 1.391 . S
C95 C94 1.391 . S
C95 C96 1.399 . S
C96 C95 1.399 . S
C96 C97 1.396 . S
C96 C99 1.453 . S
C96 C100 1.684 . S
C97 C87 1.723 . S
C97 C96 1.396 . S
C97 C98 1.394 . S
C98 C68 1.723 . S
C98 C94 1.397 . S
C98 C97 1.394 . S
C99 H71 0.982 . S
C99 H75 0.979 . S
C99 H76 0.977 . S
C99 C96 1.453 . S
C100 H72 0.979 . S
C100 H73 0.980 . S
C100 H74 0.983 . S
C100 C96 1.684 . S
H101 C119 0.948 . S
H102 C60 0.948 . S
H103 C78 0.979 . S
H104 C78 0.980 . S
H105 C78 0.983 . S
H106 C77 0.982 . S
H107 C77 0.979 . S
H108 C77 0.977 . S
H109 C79 0.948 . S
H110 C81 0.947 . S
H111 C82 0.948 . S
H112 C88 0.982 . S
H113 C88 0.979 . S
H114 C88 0.977 . S
H115 C89 0.979 . S
H116 C89 0.980 . S
H117 C89 0.983 . S
H118 C62 0.947 . S
C119 C62 1.392 . S
C119 C63 1.419 . S
C119 H101 0.948 . S
C120 C121 1.391 . S
C120 C124 1.391 . S
C120 H162 0.948 . S
C121 C120 1.391 . S
C121 C122 1.391 . S
C122 C121 1.391 . S
C122 H178 0.947 . S
C122 C179 1.392 . S
C123 C124 1.391 . S
C123 C127 1.397 . S
C123 C179 1.419 . S
C124 C120 1.391 . S
C124 C123 1.391 . S
C124 C125 1.399 . S
C125 C124 1.399 . S
C125 C128 1.396 . S
C125 C137 1.453 . S
C125 C138 1.684 . S
H126 C150 0.948 . S
C127 C123 1.397 . S
C127 C128 1.394 . S
C127 C146 1.723 . S
C128 C125 1.396 . S
C128 C127 1.394 . S
C128 C158 1.723 . S
H129 C152 0.947 . S
H130 C153 0.948 . S
H131 C159 0.982 . S
H132 C160 0.979 . S
H133 C160 0.980 . S
H134 C160 0.983 . S
H135 C159 0.979 . S
H136 C159 0.977 . S
C137 C125 1.453 . S
C137 H166 0.982 . S
C137 H167 0.979 . S
C137 H168 0.977 . S
C138 C125 1.684 . S
C138 H163 0.979 . S
C138 H164 0.980 . S
C138 H165 0.983 . S
C139 C140 1.391 . S
C139 C144 1.391 . S
C139 H169 0.948 . S
C140 C139 1.391 . S
C140 C141 1.391 . S
C141 C140 1.391 . S
C141 C142 1.392 . S
C141 H170 0.947 . S
C142 C141 1.392 . S
C142 C143 1.419 . S
C142 H171 0.948 . S
C143 C142 1.419 . S
C143 C144 1.391 . S
C143 C147 1.397 . S
C144 C139 1.391 . S
C144 C143 1.391 . S
C144 C145 1.399 . S
C145 C144 1.399 . S
C145 C146 1.396 . S
C145 C148 1.453 . S
C145 C149 1.684 . S
C146 C127 1.723 . S
C146 C145 1.396 . S
C146 C147 1.394 . S
C147 C143 1.397 . S
C147 C146 1.394 . S
C147 C157 1.723 . S
C148 C145 1.453 . S
C148 H172 0.982 . S
C148 H173 0.979 . S
C148 H174 0.977 . S
C149 C145 1.684 . S
C149 H175 0.979 . S
C149 H176 0.980 . S
C149 H177 0.983 . S
C150 H126 0.948 . S
C150 C151 1.391 . S
C150 C155 1.391 . S
C151 C150 1.391 . S
C151 C152 1.391 . S
C152 H129 0.947 . S
C152 C151 1.391 . S
C152 C153 1.392 . S
C153 H130 0.948 . S
C153 C152 1.392 . S
C153 C154 1.419 . S
C154 C153 1.419 . S
C154 C155 1.391 . S
C154 C158 1.397 . S
C155 C150 1.391 . S
C155 C154 1.391 . S
C155 C156 1.399 . S
C156 C155 1.399 . S
C156 C157 1.396 . S
C156 C159 1.453 . S
C156 C160 1.684 . S
C157 C147 1.723 . S
C157 C156 1.396 . S
C157 C158 1.394 . S
C158 C128 1.723 . S
C158 C154 1.397 . S
C158 C157 1.394 . S
C159 H131 0.982 . S
C159 H135 0.979 . S
C159 H136 0.977 . S
C159 C156 1.453 . S
C160 H132 0.979 . S
C160 H133 0.980 . S
C160 H134 0.983 . S
C160 C156 1.684 . S
H161 C179 0.948 . S
H162 C120 0.948 . S
H163 C138 0.979 . S
H164 C138 0.980 . S
H165 C138 0.983 . S
H166 C137 0.982 . S
H167 C137 0.979 . S
H168 C137 0.977 . S
H169 C139 0.948 . S
H170 C141 0.947 . S
H171 C142 0.948 . S
H172 C148 0.982 . S
H173 C148 0.979 . S
H174 C148 0.977 . S
H175 C149 0.979 . S
H176 C149 0.980 . S
H177 C149 0.983 . S
H178 C122 0.947 . S
C179 C122 1.392 . S
C179 C123 1.419 . S
C179 H161 0.948 . S
C180 C181 1.391 . S
C180 C184 1.391 . S
C180 H222 0.948 . S
C181 C180 1.391 . S
C181 C182 1.391 . S
C182 C181 1.391 . S
C182 H238 0.947 . S
C182 C239 1.392 . S
C183 C184 1.391 . S
C183 C187 1.397 . S
C183 C239 1.419 . S
C184 C180 1.391 . S
C184 C183 1.391 . S
C184 C185 1.399 . S
C185 C184 1.399 . S
C185 C188 1.396 . S
C185 C197 1.453 . S
C185 C198 1.684 . S
H186 C210 0.948 . S
C187 C183 1.397 . S
C187 C188 1.394 . S
C187 C206 1.723 . S
C188 C185 1.396 . S
C188 C187 1.394 . S
C188 C218 1.723 . S
H189 C212 0.947 . S
H190 C213 0.948 . S
H191 C219 0.982 . S
H192 C220 0.979 . S
H193 C220 0.980 . S
H194 C220 0.983 . S
H195 C219 0.979 . S
H196 C219 0.977 . S
C197 C185 1.453 . S
C197 H226 0.982 . S
C197 H227 0.979 . S
C197 H228 0.977 . S
C198 C185 1.684 . S
C198 H223 0.979 . S
C198 H224 0.980 . S
C198 H225 0.983 . S
C199 C200 1.391 . S
C199 C204 1.391 . S
C199 H229 0.948 . S
C200 C199 1.391 . S
C200 C201 1.391 . S
C201 C200 1.391 . S
C201 C202 1.392 . S
C201 H230 0.947 . S
C202 C201 1.392 . S
C202 C203 1.419 . S
C202 H231 0.948 . S
C203 C202 1.419 . S
C203 C204 1.391 . S
C203 C207 1.397 . S
C204 C199 1.391 . S
C204 C203 1.391 . S
C204 C205 1.399 . S
C205 C204 1.399 . S
C205 C206 1.396 . S
C205 C208 1.453 . S
C205 C209 1.684 . S
C206 C187 1.723 . S
C206 C205 1.396 . S
C206 C207 1.394 . S
C207 C203 1.397 . S
C207 C206 1.394 . S
C207 C217 1.723 . S
C208 C205 1.453 . S
C208 H232 0.982 . S
C208 H233 0.979 . S
C208 H234 0.977 . S
C209 C205 1.684 . S
C209 H235 0.979 . S
C209 H236 0.980 . S
C209 H237 0.983 . S
C210 H186 0.948 . S
C210 C211 1.391 . S
C210 C215 1.391 . S
C211 C210 1.391 . S
C211 C212 1.391 . S
C212 H189 0.947 . S
C212 C211 1.391 . S
C212 C213 1.392 . S
C213 H190 0.948 . S
C213 C212 1.392 . S
C213 C214 1.419 . S
C214 C213 1.419 . S
C214 C215 1.391 . S
C214 C218 1.397 . S
C215 C210 1.391 . S
C215 C214 1.391 . S
C215 C216 1.399 . S
C216 C215 1.399 . S
C216 C217 1.396 . S
C216 C219 1.453 . S
C216 C220 1.684 . S
C217 C207 1.723 . S
C217 C216 1.396 . S
C217 C218 1.394 . S
C218 C188 1.723 . S
C218 C214 1.397 . S
C218 C217 1.394 . S
C219 H191 0.982 . S
C219 H195 0.979 . S
C219 H196 0.977 . S
C219 C216 1.453 . S
C220 H192 0.979 . S
C220 H193 0.980 . S
C220 H194 0.983 . S
C220 C216 1.684 . S
H221 C239 0.948 . S
H222 C180 0.948 . S
H223 C198 0.979 . S
H224 C198 0.980 . S
H225 C198 0.983 . S
H226 C197 0.982 . S
H227 C197 0.979 . S
H228 C197 0.977 . S
H229 C199 0.948 . S
H230 C201 0.947 . S
H231 C202 0.948 . S
H232 C208 0.982 . S
H233 C208 0.979 . S
H234 C208 0.977 . S
H235 C209 0.979 . S
H236 C209 0.980 . S
H237 C209 0.983 . S
H238 C182 0.947 . S
C239 C182 1.392 . S
C239 C183 1.419 . S
C239 H221 0.948 . S
C240 C241 1.391 . S
C240 C244 1.391 . S
C240 H282 0.948 . S
C241 C240 1.391 . S
C241 C242 1.391 . S
C242 C241 1.391 . S
C242 H298 0.947 . S
C242 C299 1.392 . S
C243 C244 1.391 . S
C243 C247 1.397 . S
C243 C299 1.419 . S
C244 C240 1.391 . S
C244 C243 1.391 . S
C244 C245 1.399 . S
C245 C244 1.399 . S
C245 C248 1.396 . S
C245 C257 1.453 . S
C245 C258 1.684 . S
H246 C270 0.948 . S
C247 C243 1.397 . S
C247 C248 1.394 . S
C247 C266 1.723 . S
C248 C245 1.396 . S
C248 C247 1.394 . S
C248 C278 1.723 . S
H249 C272 0.947 . S
H250 C273 0.948 . S
H251 C279 0.982 . S
H252 C280 0.979 . S
H253 C280 0.980 . S
H254 C280 0.983 . S
H255 C279 0.979 . S
H256 C279 0.977 . S
C257 C245 1.453 . S
C257 H286 0.982 . S
C257 H287 0.979 . S
C257 H288 0.977 . S
C258 C245 1.684 . S
C258 H283 0.979 . S
C258 H284 0.980 . S
C258 H285 0.983 . S
C259 C260 1.391 . S
C259 C264 1.391 . S
C259 H289 0.948 . S
C260 C259 1.391 . S
C260 C261 1.391 . S
C261 C260 1.391 . S
C261 C262 1.392 . S
C261 H290 0.947 . S
C262 C261 1.392 . S
C262 C263 1.419 . S
C262 H291 0.948 . S
C263 C262 1.419 . S
C263 C264 1.391 . S
C263 C267 1.397 . S
C264 C259 1.391 . S
C264 C263 1.391 . S
C264 C265 1.399 . S
C265 C264 1.399 . S
C265 C266 1.396 . S
C265 C268 1.453 . S
C265 C269 1.684 . S
C266 C247 1.723 . S
C266 C265 1.396 . S
C266 C267 1.394 . S
C267 C263 1.397 . S
C267 C266 1.394 . S
C267 C277 1.723 . S
C268 C265 1.453 . S
C268 H292 0.982 . S
C268 H293 0.979 . S
C268 H294 0.977 . S
C269 C265 1.684 . S
C269 H295 0.979 . S
C269 H296 0.980 . S
C269 H297 0.983 . S
C270 H246 0.948 . S
C270 C271 1.391 . S
C270 C275 1.391 . S
C271 C270 1.391 . S
C271 C272 1.391 . S
C272 H249 0.947 . S
C272 C271 1.391 . S
C272 C273 1.392 . S
C273 H250 0.948 . S
C273 C272 1.392 . S
C273 C274 1.419 . S
C274 C273 1.419 . S
C274 C275 1.391 . S
C274 C278 1.397 . S
C275 C270 1.391 . S
C275 C274 1.391 . S
C275 C276 1.399 . S
C276 C275 1.399 . S
C276 C277 1.396 . S
C276 C279 1.453 . S
C276 C280 1.684 . S
C277 C267 1.723 . S
C277 C276 1.396 . S
C277 C278 1.394 . S
C278 C248 1.723 . S
C278 C274 1.397 . S
C278 C277 1.394 . S
C279 H251 0.982 . S
C279 H255 0.979 . S
C279 H256 0.977 . S
C279 C276 1.453 . S
C280 H252 0.979 . S
C280 H253 0.980 . S
C280 H254 0.983 . S
C280 C276 1.684 . S
H281 C299 0.948 . S
H282 C240 0.948 . S
H283 C258 0.979 . S
H284 C258 0.980 . S
H285 C258 0.983 . S
H286 C257 0.982 . S
H287 C257 0.979 . S
H288 C257 0.977 . S
H289 C259 0.948 . S
H290 C261 0.947 . S
H291 C262 0.948 . S
H292 C268 0.982 . S
H293 C268 0.979 . S
H294 C268 0.977 . S
H295 C269 0.979 . S
H296 C269 0.980 . S
H297 C269 0.983 . S
H298 C242 0.947 . S
C299 C242 1.392 . S
C299 C243 1.419 . S
C299 H281 0.948 . S
C300 C301 1.391 . S
C300 C304 1.391 . S
C300 H342 0.948 . S
C301 C300 1.391 . S
C301 C302 1.391 . S
C302 C301 1.391 . S
C302 H358 0.947 . S
C302 C359 1.392 . S
C303 C304 1.391 . S
C303 C307 1.397 . S
C303 C359 1.419 . S
C304 C300 1.391 . S
C304 C303 1.391 . S
C304 C305 1.399 . S
C305 C304 1.399 . S
C305 C308 1.396 . S
C305 C317 1.453 . S
C305 C318 1.684 . S
H306 C330 0.948 . S
C307 C303 1.397 . S
C307 C308 1.394 . S
C307 C326 1.723 . S
C308 C305 1.396 . S
C308 C307 1.394 . S
C308 C338 1.723 . S
H309 C332 0.947 . S
H310 C333 0.948 . S
H311 C339 0.982 . S
H312 C340 0.979 . S
H313 C340 0.980 . S
H314 C340 0.983 . S
H315 C339 0.979 . S
H316 C339 0.977 . S
C317 C305 1.453 . S
C317 H346 0.982 . S
C317 H347 0.979 . S
C317 H348 0.977 . S
C318 C305 1.684 . S
C318 H343 0.979 . S
C318 H344 0.980 . S
C318 H345 0.983 . S
C319 C320 1.391 . S
C319 C324 1.391 . S
C319 H349 0.948 . S
C320 C319 1.391 . S
C320 C321 1.391 . S
C321 C320 1.391 . S
C321 C322 1.392 . S
C321 H350 0.947 . S
C322 C321 1.392 . S
C322 C323 1.419 . S
C322 H351 0.948 . S
C323 C322 1.419 . S
C323 C324 1.391 . S
C323 C327 1.397 . S
C324 C319 1.391 . S
C324 C323 1.391 . S
C324 C325 1.399 . S
C325 C324 1.399 . S
C325 C326 1.396 . S
C325 C328 1.453 . S
C325 C329 1.684 . S
C326 C307 1.723 . S
C326 C325 1.396 . S
C326 C327 1.394 . S
C327 C323 1.397 . S
C327 C326 1.394 . S
C327 C337 1.723 . S
C328 C325 1.453 . S
C328 H352 0.982 . S
C328 H353 0.979 . S
C328 H354 0.977 . S
C329 C325 1.684 . S
C329 H355 0.979 . S
C329 H356 0.980 . S
C329 H357 0.983 . S
C330 H306 0.948 . S
C330 C331 1.391 . S
C330 C335 1.391 . S
C331 C330 1.391 . S
C331 C332 1.391 . S
C332 H309 0.947 . S
C332 C331 1.391 . S
C332 C333 1.392 . S
C333 H310 0.948 . S
C333 C332 1.392 . S
C333 C334 1.419 . S
C334 C333 1.419 . S
C334 C335 1.391 . S
C334 C338 1.397 . S
C335 C330 1.391 . S
C335 C334 1.391 . S
C335 C336 1.399 . S
C336 C335 1.399 . S
C336 C337 1.396 . S
C336 C339 1.453 . S
C336 C340 1.684 . S
C337 C327 1.723 . S
C337 C336 1.396 . S
C337 C338 1.394 . S
C338 C308 1.723 . S
C338 C334 1.397 . S
C338 C337 1.394 . S
C339 H311 0.982 . S
C339 H315 0.979 . S
C339 H316 0.977 . S
C339 C336 1.453 . S
C340 H312 0.979 . S
C340 H313 0.980 . S
C340 H314 0.983 . S
C340 C336 1.684 . S
H341 C359 0.948 . S
H342 C300 0.948 . S
H343 C318 0.979 . S
H344 C318 0.980 . S
H345 C318 0.983 . S
H346 C317 0.982 . S
H347 C317 0.979 . S
H348 C317 0.977 . S
H349 C319 0.948 . S
H350 C321 0.947 . S
H351 C322 0.948 . S
H352 C328 0.982 . S
H353 C328 0.979 . S
H354 C328 0.977 . S
H355 C329 0.979 . S
H356 C329 0.980 . S
H357 C329 0.983 . S
H358 C302 0.947 . S
C359 C302 1.392 . S
C359 C303 1.419 . S
C359 H341 0.948 . S
C360 C361 1.391 . S
C360 C364 1.391 . S
C360 H402 0.948 . S
C361 C360 1.391 . S
C361 C362 1.391 . S
C362 C361 1.391 . S
C362 H418 0.947 . S
C362 C419 1.392 . S
C363 C364 1.391 . S
C363 C367 1.397 . S
C363 C419 1.419 . S
C364 C360 1.391 . S
C364 C363 1.391 . S
C364 C365 1.399 . S
C365 C364 1.399 . S
C365 C368 1.396 . S
C365 C377 1.453 . S
C365 C378 1.684 . S
H366 C390 0.948 . S
C367 C363 1.397 . S
C367 C368 1.394 . S
C367 C386 1.723 . S
C368 C365 1.396 . S
C368 C367 1.394 . S
C368 C398 1.723 . S
H369 C392 0.947 . S
H370 C393 0.948 . S
H371 C399 0.982 . S
H372 C400 0.979 . S
H373 C400 0.980 . S
H374 C400 0.983 . S
H375 C399 0.979 . S
H376 C399 0.977 . S
C377 C365 1.453 . S
C377 H406 0.982 . S
C377 H407 0.979 . S
C377 H408 0.977 . S
C378 C365 1.684 . S
C378 H403 0.979 . S
C378 H404 0.980 . S
C378 H405 0.983 . S
C379 C380 1.391 . S
C379 C384 1.391 . S
C379 H409 0.948 . S
C380 C379 1.391 . S
C380 C381 1.391 . S
C381 C380 1.391 . S
C381 C382 1.392 . S
C381 H410 0.947 . S
C382 C381 1.392 . S
C382 C383 1.419 . S
C382 H411 0.948 . S
C383 C382 1.419 . S
C383 C384 1.391 . S
C383 C387 1.397 . S
C384 C379 1.391 . S
C384 C383 1.391 . S
C384 C385 1.399 . S
C385 C384 1.399 . S
C385 C386 1.396 . S
C385 C388 1.453 . S
C385 C389 1.684 . S
C386 C367 1.723 . S
C386 C385 1.396 . S
C386 C387 1.394 . S
C387 C383 1.397 . S
C387 C386 1.394 . S
C387 C397 1.723 . S
C388 C385 1.453 . S
C388 H412 0.982 . S
C388 H413 0.979 . S
C388 H414 0.977 . S
C389 C385 1.684 . S
C389 H415 0.979 . S
C389 H416 0.980 . S
C389 H417 0.983 . S
C390 H366 0.948 . S
C390 C391 1.391 . S
C390 C395 1.391 . S
C391 C390 1.391 . S
C391 C392 1.391 . S
C392 H369 0.947 . S
C392 C391 1.391 . S
C392 C393 1.392 . S
C393 H370 0.948 . S
C393 C392 1.392 . S
C393 C394 1.419 . S
C394 C393 1.419 . S
C394 C395 1.391 . S
C394 C398 1.397 . S
C395 C390 1.391 . S
C395 C394 1.391 . S
C395 C396 1.399 . S
C396 C395 1.399 . S
C396 C397 1.396 . S
C396 C399 1.453 . S
C396 C400 1.684 . S
C397 C387 1.723 . S
C397 C396 1.396 . S
C397 C398 1.394 . S
C398 C368 1.723 . S
C398 C394 1.397 . S
C398 C397 1.394 . S
C399 H371 0.982 . S
C399 H375 0.979 . S
C399 H376 0.977 . S
C399 C396 1.453 . S
C400 H372 0.979 . S
C400 H373 0.980 . S
C400 H374 0.983 . S
C400 C396 1.684 . S
H401 C419 0.948 . S
H402 C360 0.948 . S
H403 C378 0.979 . S
H404 C378 0.980 . S
H405 C378 0.983 . S
H406 C377 0.982 . S
H407 C377 0.979 . S
H408 C377 0.977 . S
H409 C379 0.948 . S
H410 C381 0.947 . S
H411 C382 0.948 . S
H412 C388 0.982 . S
H413 C388 0.979 . S
H414 C388 0.977 . S
H415 C389 0.979 . S
H416 C389 0.980 . S
H417 C389 0.983 . S
H418 C362 0.947 . S
C419 C362 1.392 . S
C419 C363 1.419 . S
C419 H401 0.948 . S
C420 C421 1.391 . S
C420 C424 1.391 . S
C420 H462 0.948 . S
C421 C420 1.391 . S
C421 C422 1.391 . S
C422 C421 1.391 . S
C422 H478 0.947 . S
C422 C479 1.392 . S
C423 C424 1.391 . S
C423 C427 1.397 . S
C423 C479 1.419 . S
C424 C420 1.391 . S
C424 C423 1.391 . S
C424 C425 1.399 . S
C425 C424 1.399 . S
C425 C428 1.396 . S
C425 C437 1.453 . S
C425 C438 1.684 . S
H426 C450 0.948 . S
C427 C423 1.397 . S
C427 C428 1.394 . S
C427 C446 1.723 . S
C428 C425 1.396 . S
C428 C427 1.394 . S
C428 C458 1.723 . S
H429 C452 0.947 . S
H430 C453 0.948 . S
H431 C459 0.982 . S
H432 C460 0.979 . S
H433 C460 0.980 . S
H434 C460 0.983 . S
H435 C459 0.979 . S
H436 C459 0.977 . S
C437 C425 1.453 . S
C437 H466 0.982 . S
C437 H467 0.979 . S
C437 H468 0.977 . S
C438 C425 1.684 . S
C438 H463 0.979 . S
C438 H464 0.980 . S
C438 H465 0.983 . S
C439 C440 1.391 . S
C439 C444 1.391 . S
C439 H469 0.948 . S
C440 C439 1.391 . S
C440 C441 1.391 . S
C441 C440 1.391 . S
C441 C442 1.392 . S
C441 H470 0.947 . S
C442 C441 1.392 . S
C442 C443 1.419 . S
C442 H471 0.948 . S
C443 C442 1.419 . S
C443 C444 1.391 . S
C443 C447 1.397 . S
C444 C439 1.391 . S
C444 C443 1.391 . S
C444 C445 1.399 . S
C445 C444 1.399 . S
C445 C446 1.396 . S
C445 C448 1.453 . S
C445 C449 1.684 . S
C446 C427 1.723 . S
C446 C445 1.396 . S
C446 C447 1.394 . S
C447 C443 1.397 . S
C447 C446 1.394 . S
C447 C457 1.723 . S
C448 C445 1.453 . S
C448 H472 0.982 . S
C448 H473 0.979 . S
C448 H474 0.977 . S
C449 C445 1.684 . S
C449 H475 0.979 . S
C449 H476 0.980 . S
C449 H477 0.983 . S
C450 H426 0.948 . S
C450 C451 1.391 . S
C450 C455 1.391 . S
C451 C450 1.391 . S
C451 C452 1.391 . S
C452 H429 0.947 . S
C452 C451 1.391 . S
C452 C453 1.392 . S
C453 H430 0.948 . S
C453 C452 1.392 . S
C453 C454 1.419 . S
C454 C453 1.419 . S
C454 C455 1.391 . S
C454 C458 1.397 . S
C455 C450 1.391 . S
C455 C454 1.391 . S
C455 C456 1.399 . S
C456 C455 1.399 . S
C456 C457 1.396 . S
C456 C459 1.453 . S
C456 C460 1.684 . S
C457 C447 1.723 . S
C457 C456 1.396 . S
C457 C458 1.394 . S
C458 C428 1.723 . S
C458 C454 1.397 . S
C458 C457 1.394 . S
C459 H431 0.982 . S
C459 H435 0.979 . S
C459 H436 0.977 . S
C459 C456 1.453 . S
C460 H432 0.979 . S
C460 H433 0.980 . S
C460 H434 0.983 . S
C460 C456 1.684 . S
H461 C479 0.948 . S
H462 C420 0.948 . S
H463 C438 0.979 . S
H464 C438 0.980 . S
H465 C438 0.983 . S
H466 C437 0.982 . S
H467 C437 0.979 . S
H468 C437 0.977 . S
H469 C439 0.948 . S
H470 C441 0.947 . S
H471 C442 0.948 . S
H472 C448 0.982 . S
H473 C448 0.979 . S
H474 C448 0.977 . S
H475 C449 0.979 . S
H476 C449 0.980 . S
H477 C449 0.983 . S
H478 C422 0.947 . S
C479 C422 1.392 . S
C479 C423 1.419 . S
C479 H461 0.948 . S
C480 C481 1.391 . S
C480 C484 1.391 . S
C480 H522 0.948 . S
C481 C480 1.391 . S
C481 C482 1.391 . S
C482 C481 1.391 . S
C482 H538 0.947 . S
C482 C539 1.392 . S
C483 C484 1.391 . S
C483 C487 1.397 . S
C483 C539 1.419 . S
C484 C480 1.391 . S
C484 C483 1.391 . S
C484 C485 1.399 . S
C485 C484 1.399 . S
C485 C488 1.396 . S
C485 C497 1.453 . S
C485 C498 1.684 . S
H486 C510 0.948 . S
C487 C483 1.397 . S
C487 C488 1.394 . S
C487 C506 1.723 . S
C488 C485 1.396 . S
C488 C487 1.394 . S
C488 C518 1.723 . S
H489 C512 0.947 . S
H490 C513 0.948 . S
H491 C519 0.982 . S
H492 C520 0.979 . S
H493 C520 0.980 . S
H494 C520 0.983 . S
H495 C519 0.979 . S
H496 C519 0.977 . S
C497 C485 1.453 . S
C497 H526 0.982 . S
C497 H527 0.979 . S
C497 H528 0.977 . S
C498 C485 1.684 . S
C498 H523 0.979 . S
C498 H524 0.980 . S
C498 H525 0.983 . S
C499 C500 1.391 . S
C499 C504 1.391 . S
C499 H529 0.948 . S
C500 C499 1.391 . S
C500 C501 1.391 . S
C501 C500 1.391 . S
C501 C502 1.392 . S
C501 H530 0.947 . S
C502 C501 1.392 . S
C502 C503 1.419 . S
C502 H531 0.948 . S
C503 C502 1.419 . S
C503 C504 1.391 . S
C503 C507 1.397 . S
C504 C499 1.391 . S
C504 C503 1.391 . S
C504 C505 1.399 . S
C505 C504 1.399 . S
C505 C506 1.396 . S
C505 C508 1.453 . S
C505 C509 1.684 . S
C506 C487 1.723 . S
C506 C505 1.396 . S
C506 C507 1.394 . S
C507 C503 1.397 . S
C507 C506 1.394 . S
C507 C517 1.723 . S
C508 C505 1.453 . S
C508 H532 0.982 . S
C508 H533 0.979 . S
C508 H534 0.977 . S
C509 C505 1.684 . S
C509 H535 0.979 . S
C509 H536 0.980 . S
C509 H537 0.983 . S
C510 H486 0.948 . S
C510 C511 1.391 . S
C510 C515 1.391 . S
C511 C510 1.391 . S
C511 C512 1.391 . S
C512 H489 0.947 . S
C512 C511 1.391 . S
C512 C513 1.392 . S
C513 H490 0.948 . S
C513 C512 1.392 . S
C513 C514 1.419 . S
C514 C513 1.419 . S
C514 C515 1.391 . S
C514 C518 1.397 . S
C515 C510 1.391 . S
C515 C514 1.391 . S
C515 C516 1.399 . S
C516 C515 1.399 . S
C516 C517 1.396 . S
C516 C519 1.453 . S
C516 C520 1.684 . S
C517 C507 1.723 . S
C517 C516 1.396 . S
C517 C518 1.394 . S
C518 C488 1.723 . S
C518 C514 1.397 . S
C518 C517 1.394 . S
C519 H491 0.982 . S
C519 H495 0.979 . S
C519 H496 0.977 . S
C519 C516 1.453 . S
C520 H492 0.979 . S
C520 H493 0.980 . S
C520 H494 0.983 . S
C520 C516 1.684 . S
H521 C539 0.948 . S
H522 C480 0.948 . S
H523 C498 0.979 . S
H524 C498 0.980 . S
H525 C498 0.983 . S
H526 C497 0.982 . S
H527 C497 0.979 . S
H528 C497 0.977 . S
H529 C499 0.948 . S
H530 C501 0.947 . S
H531 C502 0.948 . S
H532 C508 0.982 . S
H533 C508 0.979 . S
H534 C508 0.977 . S
H535 C509 0.979 . S
H536 C509 0.980 . S
H537 C509 0.983 . S
H538 C482 0.947 . S
C539 C482 1.392 . S
C539 C483 1.419 . S
C539 H521 0.948 . S
C540 C541 1.391 . S
C540 C544 1.391 . S
C540 H582 0.948 . S
C541 C540 1.391 . S
C541 C542 1.391 . S
C542 C541 1.391 . S
C542 H598 0.947 . S
C542 C599 1.392 . S
C543 C544 1.391 . S
C543 C547 1.397 . S
C543 C599 1.419 . S
C544 C540 1.391 . S
C544 C543 1.391 . S
C544 C545 1.399 . S
C545 C544 1.399 . S
C545 C548 1.396 . S
C545 C557 1.453 . S
C545 C558 1.684 . S
H546 C570 0.948 . S
C547 C543 1.397 . S
C547 C548 1.394 . S
C547 C566 1.723 . S
C548 C545 1.396 . S
C548 C547 1.394 . S
C548 C578 1.723 . S
H549 C572 0.947 . S
H550 C573 0.948 . S
H551 C579 0.982 . S
H552 C580 0.979 . S
H553 C580 0.980 . S
H554 C580 0.983 . S
H555 C579 0.979 . S
H556 C579 0.977 . S
C557 C545 1.453 . S
C557 H586 0.982 . S
C557 H587 0.979 . S
C557 H588 0.977 . S
C558 C545 1.684 . S
C558 H583 0.979 . S
C558 H584 0.980 . S
C558 H585 0.983 . S
C559 C560 1.391 . S
C559 C564 1.391 . S
C559 H589 0.948 . S
C560 C559 1.391 . S
C560 C561 1.391 . S
C561 C560 1.391 . S
C561 C562 1.392 . S
C561 H590 0.947 . S
C562 C561 1.392 . S
C562 C563 1.419 . S
C562 H591 0.948 . S
C563 C562 1.419 . S
C563 C564 1.391 . S
C563 C567 1.397 . S
C564 C559 1.391 . S
C564 C563 1.391 . S
C564 C565 1.399 . S
C565 C564 1.399 . S
C565 C566 1.396 . S
C565 C568 1.453 . S
C565 C569 1.684 . S
C566 C547 1.723 . S
C566 C565 1.396 . S
C566 C567 1.394 . S
C567 C563 1.397 . S
C567 C566 1.394 . S
C567 C577 1.723 . S
C568 C565 1.453 . S
C568 H592 0.982 . S
C568 H593 0.979 . S
C568 H594 0.977 . S
C569 C565 1.684 . S
C569 H595 0.979 . S
C569 H596 0.980 . S
C569 H597 0.983 . S
C570 H546 0.948 . S
C570 C571 1.391 . S
C570 C575 1.391 . S
C571 C570 1.391 . S
C571 C572 1.391 . S
C572 H549 0.947 . S
C572 C571 1.391 . S
C572 C573 1.392 . S
C573 H550 0.948 . S
C573 C572 1.392 . S
C573 C574 1.419 . S
C574 C573 1.419 . S
C574 C575 1.391 . S
C574 C578 1.397 . S
C575 C570 1.391 . S
C575 C574 1.391 . S
C575 C576 1.399 . S
C576 C575 1.399 . S
C576 C577 1.396 . S
C576 C579 1.453 . S
C576 C580 1.684 . S
C577 C567 1.723 . S
C577 C576 1.396 . S
C577 C578 1.394 . S
C578 C548 1.723 . S
C578 C574 1.397 . S
C578 C577 1.394 . S
C579 H551 0.982 . S
C579 H555 0.979 . S
C579 H556 0.977 . S
C579 C576 1.453 . S
C580 H552 0.979 . S
C580 H553 0.980 . S
C580 H554 0.983 . S
C580 C576 1.684 . S
H581 C599 0.948 . S
H582 C540 0.948 . S
H583 C558 0.979 . S
H584 C558 0.980 . S
H585 C558 0.983 . S
H586 C557 0.982 . S
H587 C557 0.979 . S
H588 C557 0.977 . S
H589 C559 0.948 . S
H590 C561 0.947 . S
H591 C562 0.948 . S
H592 C568 0.982 . S
H593 C568 0.979 . S
H594 C568 0.977 . S
H595 C569 0.979 . S
H596 C569 0.980 . S
H597 C569 0.983 . S
H598 C542 0.947 . S
C599 C542 1.392 . S
C599 C543 1.419 . S
C599 H581 0.948 . S
C600 C601 1.391 . S
C600 C604 1.391 . S
C600 H642 0.948 . S
C601 C600 1.391 . S
C601 C602 1.391 . S
C602 C601 1.391 . S
C602 H658 0.947 . S
C602 C659 1.392 . S
C603 C604 1.391 . S
C603 C607 1.397 . S
C603 C659 1.419 . S
C604 C600 1.391 . S
C604 C603 1.391 . S
C604 C605 1.399 . S
C605 C604 1.399 . S
C605 C608 1.396 . S
C605 C617 1.453 . S
C605 C618 1.684 . S
H606 C630 0.948 . S
C607 C603 1.397 . S
C607 C608 1.394 . S
C607 C626 1.723 . S
C608 C605 1.396 . S
C608 C607 1.394 . S
C608 C638 1.723 . S
H609 C632 0.947 . S
H610 C633 0.948 . S
H611 C639 0.982 . S
H612 C640 0.979 . S
H613 C640 0.980 . S
H614 C640 0.983 . S
H615 C639 0.979 . S
H616 C639 0.977 . S
C617 C605 1.453 . S
C617 H646 0.982 . S
C617 H647 0.979 . S
C617 H648 0.977 . S
C618 C605 1.684 . S
C618 H643 0.979 . S
C618 H644 0.980 . S
C618 H645 0.983 . S
C619 C620 1.391 . S
C619 C624 1.391 . S
C619 H649 0.948 . S
C620 C619 1.391 . S
C620 C621 1.391 . S
C621 C620 1.391 . S
C621 C622 1.392 . S
C621 H650 0.947 . S
C622 C621 1.392 . S
C622 C623 1.419 . S
C622 H651 0.948 . S
C623 C622 1.419 . S
C623 C624 1.391 . S
C623 C627 1.397 . S
C624 C619 1.391 . S
C624 C623 1.391 . S
C624 C625 1.399 . S
C625 C624 1.399 . S
C625 C626 1.396 . S
C625 C628 1.453 . S
C625 C629 1.684 . S
C626 C607 1.723 . S
C626 C625 1.396 . S
C626 C627 1.394 . S
C627 C623 1.397 . S
C627 C626 1.394 . S
C627 C637 1.723 . S
C628 C625 1.453 . S
C628 H652 0.982 . S
C628 H653 0.979 . S
C628 H654 0.977 . S
C629 C625 1.684 . S
C629 H655 0.979 . S
C629 H656 0.980 . S
C629 H657 0.983 . S
C630 H606 0.948 . S
C630 C631 1.391 . S
C630 C635 1.391 . S
C631 C630 1.391 . S
C631 C632 1.391 . S
C632 H609 0.947 . S
C632 C631 1.391 . S
C632 C633 1.392 . S
C633 H610 0.948 . S
C633 C632 1.392 . S
C633 C634 1.419 . S
C634 C633 1.419 . S
C634 C635 1.391 . S
C634 C638 1.397 . S
C635 C630 1.391 . S
C635 C634 1.391 . S
C635 C636 1.399 . S
C636 C635 1.399 . S
C636 C637 1.396 . S
C636 C639 1.453 . S
C636 C640 1.684 . S
C637 C627 1.723 . S
C637 C636 1.396 . S
C637 C638 1.394 . S
C638 C608 1.723 . S
C638 C634 1.397 . S
C638 C637 1.394 . S
C639 H611 0.982 . S
C639 H615 0.979 . S
C639 H616 0.977 . S
C639 C636 1.453 . S
C640 H612 0.979 . S
C640 H613 0.980 . S
C640 H614 0.983 . S
C640 C636 1.684 . S
H641 C659 0.948 . S
H642 C600 0.948 . S
H643 C618 0.979 . S
H644 C618 0.980 . S
H645 C618 0.983 . S
H646 C617 0.982 . S
H647 C617 0.979 . S
H648 C617 0.977 . S
H649 C619 0.948 . S
H650 C621 0.947 . S
H651 C622 0.948 . S
H652 C628 0.982 . S
H653 C628 0.979 . S
H654 C628 0.977 . S
H655 C629 0.979 . S
H656 C629 0.980 . S
H657 C629 0.983 . S
H658 C602 0.947 . S
C659 C602 1.392 . S
C659 C603 1.419 . S
C659 H641 0.948 . S
C660 C661 1.391 . S
C660 C664 1.391 . S
C660 H702 0.948 . S
C661 C660 1.391 . S
C661 C662 1.391 . S
C662 C661 1.391 . S
C662 H718 0.947 . S
C662 C719 1.392 . S
C663 C664 1.391 . S
C663 C667 1.397 . S
C663 C719 1.419 . S
C664 C660 1.391 . S
C664 C663 1.391 . S
C664 C665 1.399 . S
C665 C664 1.399 . S
C665 C668 1.396 . S
C665 C677 1.453 . S
C665 C678 1.684 . S
H666 C690 0.948 . S
C667 C663 1.397 . S
C667 C668 1.394 . S
C667 C686 1.723 . S
C668 C665 1.396 . S
C668 C667 1.394 . S
C668 C698 1.723 . S
H669 C692 0.947 . S
H670 C693 0.948 . S
H671 C699 0.982 . S
H672 C700 0.979 . S
H673 C700 0.980 . S
H674 C700 0.983 . S
H675 C699 0.979 . S
H676 C699 0.977 . S
C677 C665 1.453 . S
C677 H706 0.982 . S
C677 H707 0.979 . S
C677 H708 0.977 . S
C678 C665 1.684 . S
C678 H703 0.979 . S
C678 H704 0.980 . S
C678 H705 0.983 . S
C679 C680 1.391 . S
C679 C684 1.391 . S
C679 H709 0.948 . S
C680 C679 1.391 . S
C680 C681 1.391 . S
C681 C680 1.391 . S
C681 C682 1.392 . S
C681 H710 0.947 . S
C682 C681 1.392 . S
C682 C683 1.419 . S
C682 H711 0.948 . S
C683 C682 1.419 . S
C683 C684 1.391 . S
C683 C687 1.397 . S
C684 C679 1.391 . S
C684 C683 1.391 . S
C684 C685 1.399 . S
C685 C684 1.399 . S
C685 C686 1.396 . S
C685 C688 1.453 . S
C685 C689 1.684 . S
C686 C667 1.723 . S
C686 C685 1.396 . S
C686 C687 1.394 . S
C687 C683 1.397 . S
C687 C686 1.394 . S
C687 C697 1.723 . S
C688 C685 1.453 . S
C688 H712 0.982 . S
C688 H713 0.979 . S
C688 H714 0.977 . S
C689 C685 1.684 . S
C689 H715 0.979 . S
C689 H716 0.980 . S
C689 H717 0.983 . S
C690 H666 0.948 . S
C690 C691 1.391 . S
C690 C695 1.391 . S
C691 C690 1.391 . S
C691 C692 1.391 . S
C692 H669 0.947 . S
C692 C691 1.391 . S
C692 C693 1.392 . S
C693 H670 0.948 . S
C693 C692 1.392 . S
C693 C694 1.419 . S
C694 C693 1.419 . S
C694 C695 1.391 . S
C694 C698 1.397 . S
C695 C690 1.391 . S
C695 C694 1.391 . S
C695 C696 1.399 . S
C696 C695 1.399 . S
C696 C697 1.396 . S
C696 C699 1.453 . S
C696 C700 1.684 . S
C697 C687 1.723 . S
C697 C696 1.396 . S
C697 C698 1.394 . S
C698 C668 1.723 . S
C698 C694 1.397 . S
C698 C697 1.394 . S
C699 H671 0.982 . S
C699 H675 0.979 . S
C699 H676 0.977 . S
C699 C696 1.453 . S
C700 H672 0.979 . S
C700 H673 0.980 . S
C700 H674 0.983 . S
C700 C696 1.684 . S
H701 C719 0.948 . S
H702 C660 0.948 . S
H703 C678 0.979 . S
H704 C678 0.980 . S
H705 C678 0.983 . S
H706 C677 0.982 . S
H707 C677 0.979 . S
H708 C677 0.977 . S
H709 C679 0.948 . S
H710 C681 0.947 . S
H711 C682 0.948 . S
H712 C688 0.982 . S
H713 C688 0.979 . S
H714 C688 0.977 . S
H715 C689 0.979 . S
H716 C689 0.980 . S
H717 C689 0.983 . S
H718 C662 0.947 . S
C719 C662 1.392 . S
C719 C663 1.419 . S
C719 H701 0.948 . S
C720 C721 1.391 . S
C720 C724 1.391 . S
C720 H762 0.948 . S
C721 C720 1.391 . S
C721 C722 1.391 . S
C722 C721 1.391 . S
C722 H778 0.947 . S
C722 C779 1.392 . S
C723 C724 1.391 . S
C723 C727 1.397 . S
C723 C779 1.419 . S
C724 C720 1.391 . S
C724 C723 1.391 . S
C724 C725 1.399 . S
C725 C724 1.399 . S
C725 C728 1.396 . S
C725 C737 1.453 . S
C725 C738 1.684 . S
H726 C750 0.948 . S
C727 C723 1.397 . S
C727 C728 1.394 . S
C727 C746 1.723 . S
C728 C725 1.396 . S
C728 C727 1.394 . S
C728 C758 1.723 . S
H729 C752 0.947 . S
H730 C753 0.948 . S
H731 C759 0.982 . S
H732 C760 0.979 . S
H733 C760 0.980 . S
H734 C760 0.983 . S
H735 C759 0.979 . S
H736 C759 0.977 . S
C737 C725 1.453 . S
C737 H766 0.982 . S
C737 H767 0.979 . S
C737 H768 0.977 . S
C738 C725 1.684 . S
C738 H763 0.979 . S
C738 H764 0.980 . S
C738 H765 0.983 . S
C739 C740 1.391 . S
C739 C744 1.391 . S
C739 H769 0.948 . S
C740 C739 1.391 . S
C740 C741 1.391 . S
C741 C740 1.391 . S
C741 C742 1.392 . S
C741 H770 0.947 . S
C742 C741 1.392 . S
C742 C743 1.419 . S
C742 H771 0.948 . S
C743 C742 1.419 . S
C743 C744 1.391 . S
C743 C747 1.397 . S
C744 C739 1.391 . S
C744 C743 1.391 . S
C744 C745 1.399 . S
C745 C744 1.399 . S
C745 C746 1.396 . S
C745 C748 1.453 . S
C745 C749 1.684 . S
C746 C727 1.723 . S
C746 C745 1.396 . S
C746 C747 1.394 . S
C747 C743 1.397 . S
C747 C746 1.394 . S
C747 C757 1.723 . S
C748 C745 1.453 . S
C748 H772 0.982 . S
C748 H773 0.979 . S
C748 H774 0.977 . S
C749 C745 1.684 . S
C749 H775 0.979 . S
C749 H776 0.980 . S
C749 H777 0.983 . S
C750 H726 0.948 . S
C750 C751 1.391 . S
C750 C755 1.391 . S
C751 C750 1.391 . S
C751 C752 1.391 . S
C752 H729 0.947 . S
C752 C751 1.391 . S
C752 C753 1.392 . S
C753 H730 0.948 . S
C753 C752 1.392 . S
C753 C754 1.419 . S
C754 C753 1.419 . S
C754 C755 1.391 . S
C754 C758 1.397 . S
C755 C750 1.391 . S
C755 C754 1.391 . S
C755 C756 1.399 . S
C756 C755 1.399 . S
C756 C757 1.396 . S
C756 C759 1.453 . S
C756 C760 1.684 . S
C757 C747 1.723 . S
C757 C756 1.396 . S
C757 C758 1.394 . S
C758 C728 1.723 . S
C758 C754 1.397 . S
C758 C757 1.394 . S
C759 H731 0.982 . S
C759 H735 0.979 . S
C759 H736 0.977 . S
C759 C756 1.453 . S
C760 H732 0.979 . S
C760 H733 0.980 . S
C760 H734 0.983 . S
C760 C756 1.684 . S
H761 C779 0.948 . S
H762 C720 0.948 . S
H763 C738 0.979 . S
H764 C738 0.980 . S
H765 C738 0.983 . S
H766 C737 0.982 . S
H767 C737 0.979 . S
H768 C737 0.977 . S
H769 C739 0.948 . S
H770 C741 0.947 . S
H771 C742 0.948 . S
H772 C748 0.982 . S
H773 C748 0.979 . S
H774 C748 0.977 . S
H775 C749 0.979 . S
H776 C749 0.980 . S
H777 C749 0.983 . S
H778 C722 0.947 . S
C779 C722 1.392 . S
C779 C723 1.419 . S
C779 H761 0.948 . S
C780 C781 1.391 . S
C780 C784 1.391 . S
C780 H822 0.948 . S
C781 C780 1.391 . S
C781 C782 1.391 . S
C782 C781 1.391 . S
C782 H838 0.947 . S
C782 C839 1.392 . S
C783 C784 1.391 . S
C783 C787 1.397 . S
C783 C839 1.419 . S
C784 C780 1.391 . S
C784 C783 1.391 . S
C784 C785 1.399 . S
C785 C784 1.399 . S
C785 C788 1.396 . S
C785 C797 1.453 . S
C785 C798 1.684 . S
H786 C810 0.948 . S
C787 C783 1.397 . S
C787 C788 1.394 . S
C787 C806 1.723 . S
C788 C785 1.396 . S
C788 C787 1.394 . S
C788 C818 1.723 . S
H789 C812 0.947 . S
H790 C813 0.948 . S
H791 C819 0.982 . S
H792 C820 0.979 . S
H793 C820 0.980 . S
H794 C820 0.983 . S
H795 C819 0.979 . S
H796 C819 0.977 . S
C797 C785 1.453 . S
C797 H826 0.982 . S
C797 H827 0.979 . S
C797 H828 0.977 . S
C798 C785 1.684 . S
C798 H823 0.979 . S
C798 H824 0.980 . S
C798 H825 0.983 . S
C799 C800 1.391 . S
C799 C804 1.391 . S
C799 H829 0.948 . S
C800 C799 1.391 . S
C800 C801 1.391 . S
C801 C800 1.391 . S
C801 C802 1.392 . S
C801 H830 0.947 . S
C802 C801 1.392 . S
C802 C803 1.419 . S
C802 H831 0.948 . S
C803 C802 1.419 . S
C803 C804 1.391 . S
C803 C807 1.397 . S
C804 C799 1.391 . S
C804 C803 1.391 . S
C804 C805 1.399 . S
C805 C804 1.399 . S
C805 C806 1.396 . S
C805 C808 1.453 . S
C805 C809 1.684 . S
C806 C787 1.723 . S
C806 C805 1.396 . S
C806 C807 1.394 . S
C807 C803 1.397 . S
C807 C806 1.394 . S
C807 C817 1.723 . S
C808 C805 1.453 . S
C808 H832 0.982 . S
C808 H833 0.979 . S
C808 H834 0.977 . S
C809 C805 1.684 . S
C809 H835 0.979 . S
C809 H836 0.980 . S
C809 H837 0.983 . S
C810 H786 0.948 . S
C810 C811 1.391 . S
C810 C815 1.391 . S
C811 C810 1.391 . S
C811 C812 1.391 . S
C812 H789 0.947 . S
C812 C811 1.391 . S
C812 C813 1.392 . S
C813 H790 0.948 . S
C813 C812 1.392 . S
C813 C814 1.419 . S
C814 C813 1.419 . S
C814 C815 1.391 . S
C814 C818 1.397 . S
C815 C810 1.391 . S
C815 C814 1.391 . S
C815 C816 1.399 . S
C816 C815 1.399 . S
C816 C817 1.396 . S
C816 C819 1.453 . S
C816 C820 1.684 . S
C817 C807 1.723 . S
C817 C816 1.396 . S
C817 C818 1.394 . S
C818 C788 1.723 . S
C818 C814 1.397 . S
C818 C817 1.394 . S
C819 H791 0.982 . S
C819 H795 0.979 . S
C819 H796 0.977 . S
C819 C816 1.453 . S
C820 H792 0.979 . S
C820 H793 0.980 . S
C820 H794 0.983 . S
C820 C816 1.684 . S
H821 C839 0.948 . S
H822 C780 0.948 . S
H823 C798 0.979 . S
H824 C798 0.980 . S
H825 C798 0.983 . S
H826 C797 0.982 . S
H827 C797 0.979 . S
H828 C797 0.977 . S
H829 C799 0.948 . S
H830 C801 0.947 . S
H831 C802 0.948 . S
H832 C808 0.982 . S
H833 C808 0.979 . S
H834 C808 0.977 . S
H835 C809 0.979 . S
H836 C809 0.980 . S
H837 C809 0.983 . S
H838 C782 0.947 . S
C839 C782 1.392 . S
C839 C783 1.419 . S
C839 H821 0.948 . S
C840 C841 1.391 . S
C840 C844 1.391 . S
C840 H882 0.948 . S
C841 C840 1.391 . S
C841 C842 1.391 . S
C842 C841 1.391 . S
C842 H898 0.947 . S
C842 C899 1.392 . S
C843 C844 1.391 . S
C843 C847 1.397 . S
C843 C899 1.419 . S
C844 C840 1.391 . S
C844 C843 1.391 . S
C844 C845 1.399 . S
C845 C844 1.399 . S
C845 C848 1.396 . S
C845 C857 1.453 . S
C845 C858 1.684 . S
H846 C870 0.948 . S
C847 C843 1.397 . S
C847 C848 1.394 . S
C847 C866 1.723 . S
C848 C845 1.396 . S
C848 C847 1.394 . S
C848 C878 1.723 . S
H849 C872 0.947 . S
H850 C873 0.948 . S
H851 C879 0.982 . S
H852 C880 0.979 . S
H853 C880 0.980 . S
H854 C880 0.983 . S
H855 C879 0.979 . S
H856 C879 0.977 . S
C857 C845 1.453 . S
C857 H886 0.982 . S
C857 H887 0.979 . S
C857 H888 0.977 . S
C858 C845 1.684 . S
C858 H883 0.979 . S
C858 H884 0.980 . S
C858 H885 0.983 . S
C859 C860 1.391 . S
C859 C864 1.391 . S
C859 H889 0.948 . S
C860 C859 1.391 . S
C860 C861 1.391 . S
C861 C860 1.391 . S
C861 C862 1.392 . S
C861 H890 0.947 . S
C862 C861 1.392 . S
C862 C863 1.419 . S
C862 H891 0.948 . S
C863 C862 1.419 . S
C863 C864 1.391 . S
C863 C867 1.397 . S
C864 C859 1.391 . S
C864 C863 1.391 . S
C864 C865 1.399 . S
C865 C864 1.399 . S
C865 C866 1.396 . S
C865 C868 1.453 . S
C865 C869 1.684 . S
C866 C847 1.723 . S
C866 C865 1.396 . S
C866 C867 1.394 . S
C867 C863 1.397 . S
C867 C866 1.394 . S
C867 C877 1.723 . S
C868 C865 1.453 . S
C868 H892 0.982 . S
C868 H893 0.979 . S
C868 H894 0.977 . S
C869 C865 1.684 . S
C869 H895 0.979 . S
C869 H896 0.980 . S
C869 H897 0.983 . S
C870 H846 0.948 . S
C870 C871 1.391 . S
C870 C875 1.391 . S
C871 C870 1.391 . S
C871 C872 1.391 . S
C872 H849 0.947 . S
C872 C871 1.391 . S
C872 C873 1.392 . S
C873 H850 0.948 . S
C873 C872 1.392 . S
C873 C874 1.419 . S
C874 C873 1.419 . S
C874 C875 1.391 . S
C874 C878 1.397 . S
C875 C870 1.391 . S
C875 C874 1.391 . S
C875 C876 1.399 . S
C876 C875 1.399 . S
C876 C877 1.396 . S
C876 C879 1.453 . S
C876 C880 1.684 . S
C877 C867 1.723 . S
C877 C876 1.396 . S
C877 C878 1.394 . S
C878 C848 1.723 . S
C878 C874 1.397 . S
C878 C877 1.394 . S
C879 H851 0.982 . S
C879 H855 0.979 . S
C879 H856 0.977 . S
C879 C876 1.453 . S
C880 H852 0.979 . S
C880 H853 0.980 . S
C880 H854 0.983 . S
C880 C876 1.684 . S
H881 C899 0.948 . S
H882 C840 0.948 . S
H883 C858 0.979 . S
H884 C858 0.980 . S
H885 C858 0.983 . S
H886 C857 0.982 . S
H887 C857 0.979 . S
H888 C857 0.977 . S
H889 C859 0.948 . S
H890 C861 0.947 . S
H891 C862 0.948 . S
H892 C868 0.982 . S
H893 C868 0.979 . S
H894 C868 0.977 . S
H895 C869 0.979 . S
H896 C869 0.980 . S
H897 C869 0.983 . S
H898 C842 0.947 . S
C899 C842 1.392 . S
C899 C843 1.419 . S
C899 H881 0.948 . S
C900 C901 1.391 . S
C900 C904 1.391 . S
C900 H942 0.948 . S
C901 C900 1.391 . S
C901 C902 1.391 . S
C902 C901 1.391 . S
C902 H958 0.947 . S
C902 C959 1.392 . S
C903 C904 1.391 . S
C903 C907 1.397 . S
C903 C959 1.419 . S
C904 C900 1.391 . S
C904 C903 1.391 . S
C904 C905 1.399 . S
C905 C904 1.399 . S
C905 C908 1.396 . S
C905 C917 1.453 . S
C905 C918 1.684 . S
H906 C930 0.948 . S
C907 C903 1.397 . S
C907 C908 1.394 . S
C907 C926 1.723 . S
C908 C905 1.396 . S
C908 C907 1.394 . S
C908 C938 1.723 . S
H909 C932 0.947 . S
H910 C933 0.948 . S
H911 C939 0.982 . S
H912 C940 0.979 . S
H913 C940 0.980 . S
H914 C940 0.983 . S
H915 C939 0.979 . S
H916 C939 0.977 . S
C917 C905 1.453 . S
C917 H946 0.982 . S
C917 H947 0.979 . S
C917 H948 0.977 . S
C918 C905 1.684 . S
C918 H943 0.979 . S
C918 H944 0.980 . S
C918 H945 0.983 . S
C919 C920 1.391 . S
C919 C924 1.391 . S
C919 H949 0.948 . S
C920 C919 1.391 . S
C920 C921 1.391 . S
C921 C920 1.391 . S
C921 C922 1.392 . S
C921 H950 0.947 . S
C922 C921 1.392 . S
C922 C923 1.419 . S
C922 H951 0.948 . S
C923 C922 1.419 . S
C923 C924 1.391 . S
C923 C927 1.397 . S
C924 C919 1.391 . S
C924 C923 1.391 . S
C924 C925 1.399 . S
C925 C924 1.399 . S
C925 C926 1.396 . S
C925 C928 1.453 . S
C925 C929 1.684 . S
C926 C907 1.723 . S
C926 C925 1.396 . S
C926 C927 1.394 . S
C927 C923 1.397 . S
C927 C926 1.394 . S
C927 C937 1.723 . S
C928 C925 1.453 . S
C928 H952 0.982 . S
C928 H953 0.979 . S
C928 H954 0.977 . S
C929 C925 1.684 . S
C929 H955 0.979 . S
C929 H956 0.980 . S
C929 H957 0.983 . S
C930 H906 0.948 . S
C930 C931 1.391 . S
C930 C935 1.391 . S
C931 C930 1.391 . S
C931 C932 1.391 . S
C932 H909 0.947 . S
C932 C931 1.391 . S
C932 C933 1.392 . S
C933 H910 0.948 . S
C933 C932 1.392 . S
C933 C934 1.419 . S
C934 C933 1.419 . S
C934 C935 1.391 . S
C934 C938 1.397 . S
C935 C930 1.391 . S
C935 C934 1.391 . S
C935 C936 1.399 . S
C936 C935 1.399 . S
C936 C937 1.396 . S
C936 C939 1.453 . S
C936 C940 1.684 . S
C937 C927 1.723 . S
C937 C936 1.396 . S
C937 C938 1.394 . S
C938 C908 1.723 . S
C938 C934 1.397 . S
C938 C937 1.394 . S
C939 H911 0.982 . S
C939 H915 0.979 . S
C939 H916 0.977 . S
C939 C936 1.453 . S
C940 H912 0.979 . S
C940 H913 0.980 . S
C940 H914 0.983 . S
C940 C936 1.684 . S
H941 C959 0.948 . S
H942 C900 0.948 . S
H943 C918 0.979 . S
H944 C918 0.980 . S
H945 C918 0.983 . S
H946 C917 0.982 . S
H947 C917 0.979 . S
H948 C917 0.977 . S
H949 C919 0.948 . S
H950 C921 0.947 . S
H951 C922 0.948 . S
H952 C928 0.982 . S
H953 C928 0.979 . S
H954 C928 0.977 . S
H955 C929 0.979 . S
H956 C929 0.980 . S
H957 C929 0.983 . S
H958 C902 0.947 . S
C959 C902 1.392 . S
C959 C903 1.419 . S
C959 H941 0.948 . S
C960 C961 1.391 . S
C960 C964 1.391 . S
C960 H1002 0.948 . S
C961 C960 1.391 . S
C961 C962 1.391 . S
C962 C961 1.391 . S
C962 H1018 0.947 . S
C962 C1019 1.392 . S
C963 C964 1.391 . S
C963 C967 1.397 . S
C963 C1019 1.419 . S
C964 C960 1.391 . S
C964 C963 1.391 . S
C964 C965 1.399 . S
C965 C964 1.399 . S
C965 C968 1.396 . S
C965 C977 1.453 . S
C965 C978 1.684 . S
H966 C990 0.948 . S
C967 C963 1.397 . S
C967 C968 1.394 . S
C967 C986 1.723 . S
C968 C965 1.396 . S
C968 C967 1.394 . S
C968 C998 1.723 . S
H969 C992 0.947 . S
H970 C993 0.948 . S
H971 C999 0.982 . S
H972 C1000 0.979 . S
H973 C1000 0.980 . S
H974 C1000 0.983 . S
H975 C999 0.979 . S
H976 C999 0.977 . S
C977 C965 1.453 . S
C977 H1006 0.982 . S
C977 H1007 0.979 . S
C977 H1008 0.977 . S
C978 C965 1.684 . S
C978 H1003 0.979 . S
C978 H1004 0.980 . S
C978 H1005 0.983 . S
C979 C980 1.391 . S
C979 C984 1.391 . S
C979 H1009 0.948 . S
C980 C979 1.391 . S
C980 C981 1.391 . S
C981 C980 1.391 . S
C981 C982 1.392 . S
C981 H1010 0.947 . S
C982 C981 1.392 . S
C982 C983 1.419 . S
C982 H1011 0.948 . S
C983 C982 1.419 . S
C983 C984 1.391 . S
C983 C987 1.397 . S
C984 C979 1.391 . S
C984 C983 1.391 . S
C984 C985 1.399 . S
C985 C984 1.399 . S
C985 C986 1.396 . S
C985 C988 1.453 . S
C985 C989 1.684 . S
C986 C967 1.723 . S
C986 C985 1.396 . S
C986 C987 1.394 . S
C987 C983 1.397 . S
C987 C986 1.394 . S
C987 C997 1.723 . S
C988 C985 1.453 . S
C988 H1012 0.982 . S
C988 H1013 0.979 . S
C988 H1014 0.977 . S
C989 C985 1.684 . S
C989 H1015 0.979 . S
C989 H1016 0.980 . S
C989 H1017 0.983 . S
C990 H966 0.948 . S
C990 C991 1.391 . S
C990 C995 1.391 . S
C991 C990 1.391 . S
C991 C992 1.391 . S
C992 H969 0.947 . S
C992 C991 1.391 . S
C992 C993 1.392 . S
C993 H970 0.948 . S
C993 C992 1.392 . S
C993 C994 1.419 . S
C994 C993 1.419 . S
C994 C995 1.391 . S
C994 C998 1.397 . S
C995 C990 1.391 . S
C995 C994 1.391 . S
C995 C996 1.399 . S
C996 C995 1.399 . S
C996 C997 1.396 . S
C996 C999 1.453 . S
C996 C1000 1.684 . S
C997 C987 1.723 . S
C997 C996 1.396 . S
C997 C998 1.394 . S
C998 C968 1.723 . S
C998 C994 1.397 . S
C998 C997 1.394 . S
C999 H971 0.982 . S
C999 H975 0.979 . S
C999 H976 0.977 . S
C999 C996 1.453 . S
C1000 H972 0.979 . S
C1000 H973 0.980 . S
C1000 H974 0.983 . S
C1000 C996 1.684 . S
H1001 C1019 0.948 . S
H1002 C960 0.948 . S
H1003 C978 0.979 . S
H1004 C978 0.980 . S
H1005 C978 0.983 . S
H1006 C977 0.982 . S
H1007 C977 0.979 . S
H1008 C977 0.977 . S
H1009 C979 0.948 . S
H1010 C981 0.947 . S
H1011 C982 0.948 . S
H1012 C988 0.982 . S
H1013 C988 0.979 . S
H1014 C988 0.977 . S
H1015 C989 0.979 . S
H1016 C989 0.980 . S
H1017 C989 0.983 . S
H1018 C962 0.947 . S
C1019 C962 1.392 . S
C1019 C963 1.419 . S
C1019 H1001 0.948 . S
C1020 C1021 1.391 . S
C1020 C1024 1.391 . S
C1020 H1062 0.948 . S
C1021 C1020 1.391 . S
C1021 C1022 1.391 . S
C1022 C1021 1.391 . S
C1022 H1078 0.947 . S
C1022 C1079 1.392 . S
C1023 C1024 1.391 . S
C1023 C1027 1.397 . S
C1023 C1079 1.419 . S
C1024 C1020 1.391 . S
C1024 C1023 1.391 . S
C1024 C1025 1.399 . S
C1025 C1024 1.399 . S
C1025 C1028 1.396 . S
C1025 C1037 1.453 . S
C1025 C1038 1.684 . S
H1026 C1050 0.948 . S
C1027 C1023 1.397 . S
C1027 C1028 1.394 . S
C1027 C1046 1.723 . S
C1028 C1025 1.396 . S
C1028 C1027 1.394 . S
C1028 C1058 1.723 . S
H1029 C1052 0.947 . S
H1030 C1053 0.948 . S
H1031 C1059 0.982 . S
H1032 C1060 0.979 . S
H1033 C1060 0.980 . S
H1034 C1060 0.983 . S
H1035 C1059 0.979 . S
H1036 C1059 0.977 . S
C1037 C1025 1.453 . S
C1037 H1066 0.982 . S
C1037 H1067 0.979 . S
C1037 H1068 0.977 . S
C1038 C1025 1.684 . S
C1038 H1063 0.979 . S
C1038 H1064 0.980 . S
C1038 H1065 0.983 . S
C1039 C1040 1.391 . S
C1039 C1044 1.391 . S
C1039 H1069 0.948 . S
C1040 C1039 1.391 . S
C1040 C1041 1.391 . S
C1041 C1040 1.391 . S
C1041 C1042 1.392 . S
C1041 H1070 0.947 . S
C1042 C1041 1.392 . S
C1042 C1043 1.419 . S
C1042 H1071 0.948 . S
C1043 C1042 1.419 . S
C1043 C1044 1.391 . S
C1043 C1047 1.397 . S
C1044 C1039 1.391 . S
C1044 C1043 1.391 . S
C1044 C1045 1.399 . S
C1045 C1044 1.399 . S
C1045 C1046 1.396 . S
C1045 C1048 1.453 . S
C1045 C1049 1.684 . S
C1046 C1027 1.723 . S
C1046 C1045 1.396 . S
C1046 C1047 1.394 . S
C1047 C1043 1.397 . S
C1047 C1046 1.394 . S
C1047 C1057 1.723 . S
C1048 C1045 1.453 . S
C1048 H1072 0.982 . S
C1048 H1073 0.979 . S
C1048 H1074 0.977 . S
C1049 C1045 1.684 . S
C1049 H1075 0.979 . S
C1049 H1076 0.980 . S
C1049 H1077 0.983 . S
C1050 H1026 0.948 . S
C1050 C1051 1.391 . S
C1050 C1055 1.391 . S
C1051 C1050 1.391 . S
C1051 C1052 1.391 . S
C1052 H1029 0.947 . S
C1052 C1051 1.391 . S
C1052 C1053 1.392 . S
C1053 H1030 0.948 . S
C1053 C1052 1.392 . S
C1053 C1054 1.419 . S
C1054 C1053 1.419 . S
C1054 C1055 1.391 . S
C1054 C1058 1.397 . S
C1055 C1050 1.391 . S
C1055 C1054 1.391 . S
C1055 C1056 1.399 . S
C1056 C1055 1.399 . S
C1056 C1057 1.396 . S
C1056 C1059 1.453 . S
C1056 C1060 1.684 . S
C1057 C1047 1.723 . S
C1057 C1056 1.396 . S
C1057 C1058 1.394 . S
C1058 C1028 1.723 . S
C1058 C1054 1.397 . S
C1058 C1057 1.394 . S
C1059 H1031 0.982 . S
C1059 H1035 0.979 . S
C1059 H1036 0.977 . S
C1059 C1056 1.453 . S
C1060 H1032 0.979 . S
C1060 H1033 0.980 . S
C1060 H1034 0.983 . S
C1060 C1056 1.684 . S
H1061 C1079 0.948 . S
H1062 C1020 0.948 . S
H1063 C1038 0.979 . S
H1064 C1038 0.980 . S
H1065 C1038 0.983 . S
H1066 C1037 0.982 . S
H1067 C1037 0.979 . S
H1068 C1037 0.977 . S
H1069 C1039 0.948 . S
H1070 C1041 0.947 . S
H1071 C1042 0.948 . S
H1072 C1048 0.982 . S
H1073 C1048 0.979 . S
H1074 C1048 0.977 . S
H1075 C1049 0.979 . S
H1076 C1049 0.980 . S
H1077 C1049 0.983 . S
H1078 C1022 0.947 . S
C1079 C1022 1.392 . S
C1079 C1023 1.419 . S
C1079 H1061 0.948 . S
Eu1080 N1111 2.657 . S
Eu1080 N1118 2.609 . S
Eu1080 O1124 2.558 . S
Eu1080 O1125 2.612 1_565 S
Eu1080 O1127 2.339 1_565 S
Eu1080 O1128 2.563 1_565 S
Eu1080 O1129 2.419 . S
Eu1080 O1131 2.380 1_556 S
Eu1080 O1132 2.432 . S
Eu1080 C1144 2.848 . S
C1081 C1084 1.429 . S
C1081 C1085 1.411 . S
C1081 N1088 1.377 . S
C1082 C1084 1.420 . S
C1082 C1086 1.423 . S
C1082 C1094 1.392 . S
C1083 C1085 1.420 . S
C1083 C1086 1.351 . S
C1083 H1106 0.931 . S
C1084 C1081 1.429 . S
C1084 C1082 1.420 . S
C1084 N1092 1.362 . S
C1085 C1081 1.411 . S
C1085 C1083 1.420 . S
C1085 C1090 1.395 . S
C1086 C1082 1.423 . S
C1086 C1083 1.351 . S
C1086 H1098 0.930 . S
C1087 C1089 1.400 . S
C1087 C1090 1.386 . S
C1087 H1099 0.930 . S
N1088 C1081 1.377 . S
N1088 C1089 1.321 . S
N1088 Eu1091 2.609 . S
C1089 C1087 1.400 . S
C1089 N1088 1.321 . S
C1089 H1096 0.930 . S
C1090 C1085 1.395 . S
C1090 C1087 1.386 . S
C1090 H1109 0.930 . S
Eu1091 N1088 2.609 . S
Eu1091 N1092 2.657 . S
Eu1091 O1125 2.380 1_554 S
Eu1091 O1126 2.432 . S
Eu1091 O1130 2.558 . S
Eu1091 O1131 2.612 1_545 S
Eu1091 O1133 2.339 1_545 S
Eu1091 O1134 2.563 1_545 S
Eu1091 O1135 2.419 . S
Eu1091 C1155 2.848 . S
N1092 C1084 1.362 . S
N1092 Eu1091 2.657 . S
N1092 C1093 1.334 . S
C1093 N1092 1.334 . S
C1093 C1095 1.413 . S
C1093 H1100 0.929 . S
C1094 C1082 1.392 . S
C1094 C1095 1.367 . S
C1094 H1102 0.930 . S
C1095 C1093 1.413 . S
C1095 C1094 1.367 . S
C1095 H1097 0.930 . S
H1096 C1089 0.930 . S
H1097 C1095 0.930 . S
H1098 C1086 0.930 . S
H1099 C1087 0.930 . S
H1100 C1093 0.929 . S
H1101 C1115 0.930 . S
H1102 C1094 0.930 . S
H1103 C1121 0.930 . S
H1104 C1112 0.929 . S
H1105 C1119 0.930 . S
H1106 C1083 0.931 . S
H1107 C1113 0.930 . S
H1108 C1146 0.930 . S
H1109 C1090 0.930 . S
H1110 C1145 0.931 . S
N1111 Eu1080 2.657 . S
N1111 C1112 1.334 . S
N1111 C1116 1.362 . S
C1112 H1104 0.929 . S
C1112 N1111 1.334 . S
C1112 C1115 1.413 . S
C1113 H1107 0.930 . S
C1113 C1114 1.392 . S
C1113 C1115 1.367 . S
C1114 C1113 1.392 . S
C1114 C1116 1.420 . S
C1114 C1146 1.423 . S
C1115 H1101 0.930 . S
C1115 C1112 1.413 . S
C1115 C1113 1.367 . S
C1116 N1111 1.362 . S
C1116 C1114 1.420 . S
C1116 C1120 1.429 . S
H1117 C1122 0.930 . S
N1118 Eu1080 2.609 . S
N1118 C1120 1.377 . S
N1118 C1121 1.321 . S
C1119 H1105 0.930 . S
C1119 C1121 1.400 . S
C1119 C1122 1.386 . S
C1120 C1116 1.429 . S
C1120 N1118 1.377 . S
C1120 C1123 1.411 . S
C1121 H1103 0.930 . S
C1121 N1118 1.321 . S
C1121 C1119 1.400 . S
C1122 H1117 0.930 . S
C1122 C1119 1.386 . S
C1122 C1123 1.395 . S
C1123 C1120 1.411 . S
C1123 C1122 1.395 . S
C1123 C1145 1.420 . S
O1124 Eu1080 2.558 . S
O1124 C1144 1.257 . S
O1125 Eu1080 2.612 1_545 S
O1125 Eu1091 2.380 1_556 S
O1125 C1136 1.276 . S
O1126 Eu1091 2.432 . S
O1126 C1143 1.264 1_554 S
O1127 Eu1080 2.339 1_545 S
O1127 C1143 1.254 . S
O1128 Eu1080 2.563 1_545 S
O1128 C1136 1.235 . S
O1129 Eu1080 2.419 . S
O1129 C1144 1.249 . S
O1130 Eu1091 2.558 . S
O1130 C1155 1.257 . S
O1131 Eu1080 2.380 1_554 S
O1131 Eu1091 2.612 1_565 S
O1131 C1147 1.276 . S
O1132 Eu1080 2.432 . S
O1132 C1154 1.264 1_556 S
O1133 Eu1091 2.339 1_565 S
O1133 C1154 1.254 . S
O1134 Eu1091 2.563 1_565 S
O1134 C1147 1.235 . S
O1135 Eu1091 2.419 . S
O1135 C1155 1.249 . S
C1136 O1125 1.276 . S
C1136 O1128 1.235 . S
C1137 C1139 1.393 1_565 S
C1137 C1141 1.395 . S
C1137 C1144 1.492 . S
C1138 C1139 1.392 . S
C1138 C1140 1.386 1_545 S
C1139 C1137 1.393 1_545 S
C1139 C1138 1.392 . S
C1139 H1156 0.930 . S
C1140 C1138 1.386 1_565 S
C1140 C1142 1.395 . S
C1140 H1157 0.930 . S
C1141 C1137 1.395 . S
C1141 C1142 1.379 . S
C1141 H1158 0.930 . S
C1142 C1140 1.395 . S
C1142 C1141 1.379 . S
C1142 H1159 0.930 . S
C1143 O1126 1.264 1_556 S
C1143 O1127 1.254 . S
C1144 Eu1080 2.848 . S
C1144 O1124 1.257 . S
C1144 O1129 1.249 . S
C1144 C1137 1.492 . S
C1145 H1110 0.931 . S
C1145 C1123 1.420 . S
C1145 C1146 1.351 . S
C1146 H1108 0.930 . S
C1146 C1114 1.423 . S
C1146 C1145 1.351 . S
C1147 O1131 1.276 . S
C1147 O1134 1.235 . S
C1148 C1149 1.393 1_545 S
C1148 C1152 1.395 . S
C1148 C1155 1.492 . S
C1149 C1148 1.393 1_565 S
C1149 C1150 1.392 . S
C1149 H1160 0.930 . S
C1150 C1149 1.392 . S
C1150 C1151 1.386 1_565 S
C1151 C1150 1.386 1_545 S
C1151 C1153 1.395 . S
C1151 H1161 0.930 . S
C1152 C1148 1.395 . S
C1152 C1153 1.379 . S
C1152 H1162 0.930 . S
C1153 C1151 1.395 . S
C1153 C1152 1.379 . S
C1153 H1163 0.930 . S
C1154 O1132 1.264 1_554 S
C1154 O1133 1.254 . S
C1155 Eu1091 2.848 . S
C1155 O1130 1.257 . S
C1155 O1135 1.249 . S
C1155 C1148 1.492 . S
H1156 C1139 0.930 . S
H1157 C1140 0.930 . S
H1158 C1141 0.930 . S
H1159 C1142 0.930 . S
H1160 C1149 0.930 . S
H1161 C1151 0.930 . S
H1162 C1152 0.930 . S
H1163 C1153 0.930 . S
Eu1164 N1195 2.657 . S
Eu1164 N1202 2.609 . S
Eu1164 O1208 2.558 . S
Eu1164 O1209 2.612 1_455 S
Eu1164 O1211 2.339 1_455 S
Eu1164 O1212 2.563 1_455 S
Eu1164 O1213 2.419 . S
Eu1164 O1215 2.380 1_556 S
Eu1164 O1216 2.432 . S
Eu1164 C1228 2.848 . S
C1165 C1168 1.429 . S
C1165 C1169 1.411 . S
C1165 N1172 1.377 . S
C1166 C1168 1.420 . S
C1166 C1170 1.423 . S
C1166 C1178 1.392 . S
C1167 C1169 1.420 . S
C1167 C1170 1.351 . S
C1167 H1190 0.931 . S
C1168 C1165 1.429 . S
C1168 C1166 1.420 . S
C1168 N1176 1.362 . S
C1169 C1165 1.411 . S
C1169 C1167 1.420 . S
C1169 C1174 1.395 . S
C1170 C1166 1.423 . S
C1170 C1167 1.351 . S
C1170 H1182 0.930 . S
C1171 C1173 1.400 . S
C1171 C1174 1.386 . S
C1171 H1183 0.930 . S
N1172 C1165 1.377 . S
N1172 C1173 1.321 . S
N1172 Eu1175 2.609 . S
C1173 C1171 1.400 . S
C1173 N1172 1.321 . S
C1173 H1180 0.930 . S
C1174 C1169 1.395 . S
C1174 C1171 1.386 . S
C1174 H1193 0.930 . S
Eu1175 N1172 2.609 . S
Eu1175 N1176 2.657 . S
Eu1175 O1209 2.380 1_554 S
Eu1175 O1210 2.432 . S
Eu1175 O1214 2.558 . S
Eu1175 O1215 2.612 1_655 S
Eu1175 O1217 2.339 1_655 S
Eu1175 O1218 2.563 1_655 S
Eu1175 O1219 2.419 . S
Eu1175 C1239 2.848 . S
N1176 C1168 1.362 . S
N1176 Eu1175 2.657 . S
N1176 C1177 1.334 . S
C1177 N1176 1.334 . S
C1177 C1179 1.413 . S
C1177 H1184 0.929 . S
C1178 C1166 1.392 . S
C1178 C1179 1.367 . S
C1178 H1186 0.930 . S
C1179 C1177 1.413 . S
C1179 C1178 1.367 . S
C1179 H1181 0.930 . S
H1180 C1173 0.930 . S
H1181 C1179 0.930 . S
H1182 C1170 0.930 . S
H1183 C1171 0.930 . S
H1184 C1177 0.929 . S
H1185 C1199 0.930 . S
H1186 C1178 0.930 . S
H1187 C1205 0.930 . S
H1188 C1196 0.929 . S
H1189 C1203 0.930 . S
H1190 C1167 0.931 . S
H1191 C1197 0.930 . S
H1192 C1230 0.930 . S
H1193 C1174 0.930 . S
H1194 C1229 0.931 . S
N1195 Eu1164 2.657 . S
N1195 C1196 1.334 . S
N1195 C1200 1.362 . S
C1196 H1188 0.929 . S
C1196 N1195 1.334 . S
C1196 C1199 1.413 . S
C1197 H1191 0.930 . S
C1197 C1198 1.392 . S
C1197 C1199 1.367 . S
C1198 C1197 1.392 . S
C1198 C1200 1.420 . S
C1198 C1230 1.423 . S
C1199 H1185 0.930 . S
C1199 C1196 1.413 . S
C1199 C1197 1.367 . S
C1200 N1195 1.362 . S
C1200 C1198 1.420 . S
C1200 C1204 1.429 . S
H1201 C1206 0.930 . S
N1202 Eu1164 2.609 . S
N1202 C1204 1.377 . S
N1202 C1205 1.321 . S
C1203 H1189 0.930 . S
C1203 C1205 1.400 . S
C1203 C1206 1.386 . S
C1204 C1200 1.429 . S
C1204 N1202 1.377 . S
C1204 C1207 1.411 . S
C1205 H1187 0.930 . S
C1205 N1202 1.321 . S
C1205 C1203 1.400 . S
C1206 H1201 0.930 . S
C1206 C1203 1.386 . S
C1206 C1207 1.395 . S
C1207 C1204 1.411 . S
C1207 C1206 1.395 . S
C1207 C1229 1.420 . S
O1208 Eu1164 2.558 . S
O1208 C1228 1.257 . S
O1209 Eu1164 2.612 1_655 S
O1209 Eu1175 2.380 1_556 S
O1209 C1220 1.276 . S
O1210 Eu1175 2.432 . S
O1210 C1227 1.264 1_554 S
O1211 Eu1164 2.339 1_655 S
O1211 C1227 1.254 . S
O1212 Eu1164 2.563 1_655 S
O1212 C1220 1.235 . S
O1213 Eu1164 2.419 . S
O1213 C1228 1.249 . S
O1214 Eu1175 2.558 . S
O1214 C1239 1.257 . S
O1215 Eu1164 2.380 1_554 S
O1215 Eu1175 2.612 1_455 S
O1215 C1231 1.276 . S
O1216 Eu1164 2.432 . S
O1216 C1238 1.264 1_556 S
O1217 Eu1175 2.339 1_455 S
O1217 C1238 1.254 . S
O1218 Eu1175 2.563 1_455 S
O1218 C1231 1.235 . S
O1219 Eu1175 2.419 . S
O1219 C1239 1.249 . S
C1220 O1209 1.276 . S
C1220 O1212 1.235 . S
C1221 C1223 1.393 1_455 S
C1221 C1225 1.395 . S
C1221 C1228 1.492 . S
C1222 C1223 1.392 . S
C1222 C1224 1.386 1_655 S
C1223 C1221 1.393 1_655 S
C1223 C1222 1.392 . S
C1223 H1240 0.930 . S
C1224 C1222 1.386 1_455 S
C1224 C1226 1.395 . S
C1224 H1241 0.930 . S
C1225 C1221 1.395 . S
C1225 C1226 1.379 . S
C1225 H1242 0.930 . S
C1226 C1224 1.395 . S
C1226 C1225 1.379 . S
C1226 H1243 0.930 . S
C1227 O1210 1.264 1_556 S
C1227 O1211 1.254 . S
C1228 Eu1164 2.848 . S
C1228 O1208 1.257 . S
C1228 O1213 1.249 . S
C1228 C1221 1.492 . S
C1229 H1194 0.931 . S
C1229 C1207 1.420 . S
C1229 C1230 1.351 . S
C1230 H1192 0.930 . S
C1230 C1198 1.423 . S
C1230 C1229 1.351 . S
C1231 O1215 1.276 . S
C1231 O1218 1.235 . S
C1232 C1233 1.393 1_655 S
C1232 C1236 1.395 . S
C1232 C1239 1.492 . S
C1233 C1232 1.393 1_455 S
C1233 C1234 1.392 . S
C1233 H1244 0.930 . S
C1234 C1233 1.392 . S
C1234 C1235 1.386 1_455 S
C1235 C1234 1.386 1_655 S
C1235 C1237 1.395 . S
C1235 H1245 0.930 . S
C1236 C1232 1.395 . S
C1236 C1237 1.379 . S
C1236 H1246 0.930 . S
C1237 C1235 1.395 . S
C1237 C1236 1.379 . S
C1237 H1247 0.930 . S
C1238 O1216 1.264 1_554 S
C1238 O1217 1.254 . S
C1239 Eu1175 2.848 . S
C1239 O1214 1.257 . S
C1239 O1219 1.249 . S
C1239 C1232 1.492 . S
H1240 C1223 0.930 . S
H1241 C1224 0.930 . S
H1242 C1225 0.930 . S
H1243 C1226 0.930 . S
H1244 C1233 0.930 . S
H1245 C1235 0.930 . S
H1246 C1236 0.930 . S
H1247 C1237 0.930 . S
Eu1248 N1279 2.657 . S
Eu1248 N1286 2.609 . S
Eu1248 O1292 2.558 . S
Eu1248 O1293 2.612 . S
Eu1248 O1295 2.339 . S
Eu1248 O1296 2.563 . S
Eu1248 O1297 2.419 . S
Eu1248 O1299 2.380 1_554 S
Eu1248 O1300 2.432 . S
Eu1248 C1312 2.848 . S
C1249 C1252 1.429 . S
C1249 C1253 1.411 . S
C1249 N1256 1.377 . S
C1250 C1252 1.420 . S
C1250 C1254 1.423 . S
C1250 C1262 1.392 . S
C1251 C1253 1.420 . S
C1251 C1254 1.351 . S
C1251 H1274 0.931 . S
C1252 C1249 1.429 . S
C1252 C1250 1.420 . S
C1252 N1260 1.362 . S
C1253 C1249 1.411 . S
C1253 C1251 1.420 . S
C1253 C1258 1.395 . S
C1254 C1250 1.423 . S
C1254 C1251 1.351 . S
C1254 H1266 0.930 . S
C1255 C1257 1.400 . S
C1255 C1258 1.386 . S
C1255 H1267 0.930 . S
N1256 C1249 1.377 . S
N1256 C1257 1.321 . S
N1256 Eu1259 2.609 . S
C1257 C1255 1.400 . S
C1257 N1256 1.321 . S
C1257 H1264 0.930 . S
C1258 C1253 1.395 . S
C1258 C1255 1.386 . S
C1258 H1277 0.930 . S
Eu1259 N1256 2.609 . S
Eu1259 N1260 2.657 . S
Eu1259 O1293 2.380 1_556 S
Eu1259 O1294 2.432 . S
Eu1259 O1298 2.558 . S
Eu1259 O1299 2.612 . S
Eu1259 O1301 2.339 . S
Eu1259 O1302 2.563 . S
Eu1259 O1303 2.419 . S
Eu1259 C1323 2.848 . S
N1260 C1252 1.362 . S
N1260 Eu1259 2.657 . S
N1260 C1261 1.334 . S
C1261 N1260 1.334 . S
C1261 C1263 1.413 . S
C1261 H1268 0.929 . S
C1262 C1250 1.392 . S
C1262 C1263 1.367 . S
C1262 H1270 0.930 . S
C1263 C1261 1.413 . S
C1263 C1262 1.367 . S
C1263 H1265 0.930 . S
H1264 C1257 0.930 . S
H1265 C1263 0.930 . S
H1266 C1254 0.930 . S
H1267 C1255 0.930 . S
H1268 C1261 0.929 . S
H1269 C1283 0.930 . S
H1270 C1262 0.930 . S
H1271 C1289 0.930 . S
H1272 C1280 0.929 . S
H1273 C1287 0.930 . S
H1274 C1251 0.931 . S
H1275 C1281 0.930 . S
H1276 C1314 0.930 . S
H1277 C1258 0.930 . S
H1278 C1313 0.931 . S
N1279 Eu1248 2.657 . S
N1279 C1280 1.334 . S
N1279 C1284 1.362 . S
C1280 H1272 0.929 . S
C1280 N1279 1.334 . S
C1280 C1283 1.413 . S
C1281 H1275 0.930 . S
C1281 C1282 1.392 . S
C1281 C1283 1.367 . S
C1282 C1281 1.392 . S
C1282 C1284 1.420 . S
C1282 C1314 1.423 . S
C1283 H1269 0.930 . S
C1283 C1280 1.413 . S
C1283 C1281 1.367 . S
C1284 N1279 1.362 . S
C1284 C1282 1.420 . S
C1284 C1288 1.429 . S
H1285 C1290 0.930 . S
N1286 Eu1248 2.609 . S
N1286 C1288 1.377 . S
N1286 C1289 1.321 . S
C1287 H1273 0.930 . S
C1287 C1289 1.400 . S
C1287 C1290 1.386 . S
C1288 C1284 1.429 . S
C1288 N1286 1.377 . S
C1288 C1291 1.411 . S
C1289 H1271 0.930 . S
C1289 N1286 1.321 . S
C1289 C1287 1.400 . S
C1290 H1285 0.930 . S
C1290 C1287 1.386 . S
C1290 C1291 1.395 . S
C1291 C1288 1.411 . S
C1291 C1290 1.395 . S
C1291 C1313 1.420 . S
O1292 Eu1248 2.558 . S
O1292 C1312 1.257 . S
O1293 Eu1248 2.612 . S
O1293 Eu1259 2.380 1_554 S
O1293 C1304 1.276 . S
O1294 Eu1259 2.432 . S
O1294 C1311 1.264 1_556 S
O1295 Eu1248 2.339 . S
O1295 C1311 1.254 . S
O1296 Eu1248 2.563 . S
O1296 C1304 1.235 . S
O1297 Eu1248 2.419 . S
O1297 C1312 1.249 . S
O1298 Eu1259 2.558 . S
O1298 C1323 1.257 . S
O1299 Eu1248 2.380 1_556 S
O1299 Eu1259 2.612 . S
O1299 C1315 1.276 . S
O1300 Eu1248 2.432 . S
O1300 C1322 1.264 1_554 S
O1301 Eu1259 2.339 . S
O1301 C1322 1.254 . S
O1302 Eu1259 2.563 . S
O1302 C1315 1.235 . S
O1303 Eu1259 2.419 . S
O1303 C1323 1.249 . S
C1304 O1293 1.276 . S
C1304 O1296 1.235 . S
C1305 C1307 1.393 . S
C1305 C1309 1.395 . S
C1305 C1312 1.492 . S
C1306 C1307 1.392 . S
C1306 C1308 1.386 . S
C1307 C1305 1.393 . S
C1307 C1306 1.392 . S
C1307 H1324 0.930 . S
C1308 C1306 1.386 . S
C1308 C1310 1.395 . S
C1308 H1325 0.930 . S
C1309 C1305 1.395 . S
C1309 C1310 1.379 . S
C1309 H1326 0.930 . S
C1310 C1308 1.395 . S
C1310 C1309 1.379 . S
C1310 H1327 0.930 . S
C1311 O1294 1.264 1_554 S
C1311 O1295 1.254 . S
C1312 Eu1248 2.848 . S
C1312 O1292 1.257 . S
C1312 O1297 1.249 . S
C1312 C1305 1.492 . S
C1313 H1278 0.931 . S
C1313 C1291 1.420 . S
C1313 C1314 1.351 . S
C1314 H1276 0.930 . S
C1314 C1282 1.423 . S
C1314 C1313 1.351 . S
C1315 O1299 1.276 . S
C1315 O1302 1.235 . S
C1316 C1317 1.393 . S
C1316 C1320 1.395 . S
C1316 C1323 1.492 . S
C1317 C1316 1.393 . S
C1317 C1318 1.392 . S
C1317 H1328 0.930 . S
C1318 C1317 1.392 . S
C1318 C1319 1.386 . S
C1319 C1318 1.386 . S
C1319 C1321 1.395 . S
C1319 H1329 0.930 . S
C1320 C1316 1.395 . S
C1320 C1321 1.379 . S
C1320 H1330 0.930 . S
C1321 C1319 1.395 . S
C1321 C1320 1.379 . S
C1321 H1331 0.930 . S
C1322 O1300 1.264 1_556 S
C1322 O1301 1.254 . S
C1323 Eu1259 2.848 . S
C1323 O1298 1.257 . S
C1323 O1303 1.249 . S
C1323 C1316 1.492 . S
H1324 C1307 0.930 . S
H1325 C1308 0.930 . S
H1326 C1309 0.930 . S
H1327 C1310 0.930 . S
H1328 C1317 0.930 . S
H1329 C1319 0.930 . S
H1330 C1320 0.930 . S
H1331 C1321 0.930 . S
Eu1332 N1363 2.657 . S
Eu1332 N1370 2.609 . S
Eu1332 O1376 2.558 . S
Eu1332 O1377 2.612 . S
Eu1332 O1379 2.339 . S
Eu1332 O1380 2.563 . S
Eu1332 O1381 2.419 . S
Eu1332 O1383 2.380 . S
Eu1332 O1384 2.432 . S
Eu1332 C1396 2.848 . S
C1333 C1336 1.429 . S
C1333 C1337 1.411 . S
C1333 N1340 1.377 . S
C1334 C1336 1.420 . S
C1334 C1338 1.423 . S
C1334 C1346 1.392 . S
C1335 C1337 1.420 . S
C1335 C1338 1.351 . S
C1335 H1358 0.931 . S
C1336 C1333 1.429 . S
C1336 C1334 1.420 . S
C1336 N1344 1.362 . S
C1337 C1333 1.411 . S
C1337 C1335 1.420 . S
C1337 C1342 1.395 . S
C1338 C1334 1.423 . S
C1338 C1335 1.351 . S
C1338 H1350 0.930 . S
C1339 C1341 1.400 . S
C1339 C1342 1.386 . S
C1339 H1351 0.930 . S
N1340 C1333 1.377 . S
N1340 C1341 1.321 . S
N1340 Eu1343 2.609 . S
C1341 C1339 1.400 . S
C1341 N1340 1.321 . S
C1341 H1348 0.930 . S
C1342 C1337 1.395 . S
C1342 C1339 1.386 . S
C1342 H1361 0.930 . S
Eu1343 N1340 2.609 . S
Eu1343 N1344 2.657 . S
Eu1343 O1377 2.380 . S
Eu1343 O1378 2.432 . S
Eu1343 O1382 2.558 . S
Eu1343 O1383 2.612 . S
Eu1343 O1385 2.339 . S
Eu1343 O1386 2.563 . S
Eu1343 O1387 2.419 . S
Eu1343 C1407 2.848 . S
N1344 C1336 1.362 . S
N1344 Eu1343 2.657 . S
N1344 C1345 1.334 . S
C1345 N1344 1.334 . S
C1345 C1347 1.413 . S
C1345 H1352 0.929 . S
C1346 C1334 1.392 . S
C1346 C1347 1.367 . S
C1346 H1354 0.930 . S
C1347 C1345 1.413 . S
C1347 C1346 1.367 . S
C1347 H1349 0.930 . S
H1348 C1341 0.930 . S
H1349 C1347 0.930 . S
H1350 C1338 0.930 . S
H1351 C1339 0.930 . S
H1352 C1345 0.929 . S
H1353 C1367 0.930 . S
H1354 C1346 0.930 . S
H1355 C1373 0.930 . S
H1356 C1364 0.929 . S
H1357 C1371 0.930 . S
H1358 C1335 0.931 . S
H1359 C1365 0.930 . S
H1360 C1398 0.930 . S
H1361 C1342 0.930 . S
H1362 C1397 0.931 . S
N1363 Eu1332 2.657 . S
N1363 C1364 1.334 . S
N1363 C1368 1.362 . S
C1364 H1356 0.929 . S
C1364 N1363 1.334 . S
C1364 C1367 1.413 . S
C1365 H1359 0.930 . S
C1365 C1366 1.392 . S
C1365 C1367 1.367 . S
C1366 C1365 1.392 . S
C1366 C1368 1.420 . S
C1366 C1398 1.423 . S
C1367 H1353 0.930 . S
C1367 C1364 1.413 . S
C1367 C1365 1.367 . S
C1368 N1363 1.362 . S
C1368 C1366 1.420 . S
C1368 C1372 1.429 . S
H1369 C1374 0.930 . S
N1370 Eu1332 2.609 . S
N1370 C1372 1.377 . S
N1370 C1373 1.321 . S
C1371 H1357 0.930 . S
C1371 C1373 1.400 . S
C1371 C1374 1.386 . S
C1372 C1368 1.429 . S
C1372 N1370 1.377 . S
C1372 C1375 1.411 . S
C1373 H1355 0.930 . S
C1373 N1370 1.321 . S
C1373 C1371 1.400 . S
C1374 H1369 0.930 . S
C1374 C1371 1.386 . S
C1374 C1375 1.395 . S
C1375 C1372 1.411 . S
C1375 C1374 1.395 . S
C1375 C1397 1.420 . S
O1376 Eu1332 2.558 . S
O1376 C1396 1.257 . S
O1377 Eu1332 2.612 . S
O1377 Eu1343 2.380 . S
O1377 C1388 1.276 . S
O1378 Eu1343 2.432 . S
O1378 C1395 1.264 . S
O1379 Eu1332 2.339 . S
O1379 C1395 1.254 . S
O1380 Eu1332 2.563 . S
O1380 C1388 1.235 . S
O1381 Eu1332 2.419 . S
O1381 C1396 1.249 . S
O1382 Eu1343 2.558 . S
O1382 C1407 1.257 . S
O1383 Eu1332 2.380 . S
O1383 Eu1343 2.612 . S
O1383 C1399 1.276 . S
O1384 Eu1332 2.432 . S
O1384 C1406 1.264 . S
O1385 Eu1343 2.339 . S
O1385 C1406 1.254 . S
O1386 Eu1343 2.563 . S
O1386 C1399 1.235 . S
O1387 Eu1343 2.419 . S
O1387 C1407 1.249 . S
C1388 O1377 1.276 . S
C1388 O1380 1.235 . S
C1389 C1391 1.393 . S
C1389 C1393 1.395 . S
C1389 C1396 1.492 . S
C1390 C1391 1.392 . S
C1390 C1392 1.386 . S
C1391 C1389 1.393 . S
C1391 C1390 1.392 . S
C1391 H1408 0.930 . S
C1392 C1390 1.386 . S
C1392 C1394 1.395 . S
C1392 H1409 0.930 . S
C1393 C1389 1.395 . S
C1393 C1394 1.379 . S
C1393 H1410 0.930 . S
C1394 C1392 1.395 . S
C1394 C1393 1.379 . S
C1394 H1411 0.930 . S
C1395 O1378 1.264 . S
C1395 O1379 1.254 . S
C1396 Eu1332 2.848 . S
C1396 O1376 1.257 . S
C1396 O1381 1.249 . S
C1396 C1389 1.492 . S
C1397 H1362 0.931 . S
C1397 C1375 1.420 . S
C1397 C1398 1.351 . S
C1398 H1360 0.930 . S
C1398 C1366 1.423 . S
C1398 C1397 1.351 . S
C1399 O1383 1.276 . S
C1399 O1386 1.235 . S
C1400 C1401 1.393 . S
C1400 C1404 1.395 . S
C1400 C1407 1.492 . S
C1401 C1400 1.393 . S
C1401 C1402 1.392 . S
C1401 H1412 0.930 . S
C1402 C1401 1.392 . S
C1402 C1403 1.386 . S
C1403 C1402 1.386 . S
C1403 C1405 1.395 . S
C1403 H1413 0.930 . S
C1404 C1400 1.395 . S
C1404 C1405 1.379 . S
C1404 H1414 0.930 . S
C1405 C1403 1.395 . S
C1405 C1404 1.379 . S
C1405 H1415 0.930 . S
C1406 O1384 1.264 . S
C1406 O1385 1.254 . S
C1407 Eu1343 2.848 . S
C1407 O1382 1.257 . S
C1407 O1387 1.249 . S
C1407 C1400 1.492 . S
H1408 C1391 0.930 . S
H1409 C1392 0.930 . S
H1410 C1393 0.930 . S
H1411 C1394 0.930 . S
H1412 C1401 0.930 . S
H1413 C1403 0.930 . S
H1414 C1404 0.930 . S
H1415 C1405 0.930 . S
Eu1416 N1447 2.657 . S
Eu1416 N1454 2.609 . S
Eu1416 O1460 2.558 . S
Eu1416 O1461 2.612 . S
Eu1416 O1463 2.339 . S
Eu1416 O1464 2.563 . S
Eu1416 O1465 2.419 . S
Eu1416 O1467 2.380 . S
Eu1416 O1468 2.432 . S
Eu1416 C1480 2.848 . S
C1417 C1420 1.429 . S
C1417 C1421 1.411 . S
C1417 N1424 1.377 . S
C1418 C1420 1.420 . S
C1418 C1422 1.423 . S
C1418 C1430 1.392 . S
C1419 C1421 1.420 . S
C1419 C1422 1.351 . S
C1419 H1442 0.931 . S
C1420 C1417 1.429 . S
C1420 C1418 1.420 . S
C1420 N1428 1.362 . S
C1421 C1417 1.411 . S
C1421 C1419 1.420 . S
C1421 C1426 1.395 . S
C1422 C1418 1.423 . S
C1422 C1419 1.351 . S
C1422 H1434 0.930 . S
C1423 C1425 1.400 . S
C1423 C1426 1.386 . S
C1423 H1435 0.930 . S
N1424 C1417 1.377 . S
N1424 C1425 1.321 . S
N1424 Eu1427 2.609 . S
C1425 C1423 1.400 . S
C1425 N1424 1.321 . S
C1425 H1432 0.930 . S
C1426 C1421 1.395 . S
C1426 C1423 1.386 . S
C1426 H1445 0.930 . S
Eu1427 N1424 2.609 . S
Eu1427 N1428 2.657 . S
Eu1427 O1461 2.380 . S
Eu1427 O1462 2.432 . S
Eu1427 O1466 2.558 . S
Eu1427 O1467 2.612 . S
Eu1427 O1469 2.339 . S
Eu1427 O1470 2.563 . S
Eu1427 O1471 2.419 . S
Eu1427 C1491 2.848 . S
N1428 C1420 1.362 . S
N1428 Eu1427 2.657 . S
N1428 C1429 1.334 . S
C1429 N1428 1.334 . S
C1429 C1431 1.413 . S
C1429 H1436 0.929 . S
C1430 C1418 1.392 . S
C1430 C1431 1.367 . S
C1430 H1438 0.930 . S
C1431 C1429 1.413 . S
C1431 C1430 1.367 . S
C1431 H1433 0.930 . S
H1432 C1425 0.930 . S
H1433 C1431 0.930 . S
H1434 C1422 0.930 . S
H1435 C1423 0.930 . S
H1436 C1429 0.929 . S
H1437 C1451 0.930 . S
H1438 C1430 0.930 . S
H1439 C1457 0.930 . S
H1440 C1448 0.929 . S
H1441 C1455 0.930 . S
H1442 C1419 0.931 . S
H1443 C1449 0.930 . S
H1444 C1482 0.930 . S
H1445 C1426 0.930 . S
H1446 C1481 0.931 . S
N1447 Eu1416 2.657 . S
N1447 C1448 1.334 . S
N1447 C1452 1.362 . S
C1448 H1440 0.929 . S
C1448 N1447 1.334 . S
C1448 C1451 1.413 . S
C1449 H1443 0.930 . S
C1449 C1450 1.392 . S
C1449 C1451 1.367 . S
C1450 C1449 1.392 . S
C1450 C1452 1.420 . S
C1450 C1482 1.423 . S
C1451 H1437 0.930 . S
C1451 C1448 1.413 . S
C1451 C1449 1.367 . S
C1452 N1447 1.362 . S
C1452 C1450 1.420 . S
C1452 C1456 1.429 . S
H1453 C1458 0.930 . S
N1454 Eu1416 2.609 . S
N1454 C1456 1.377 . S
N1454 C1457 1.321 . S
C1455 H1441 0.930 . S
C1455 C1457 1.400 . S
C1455 C1458 1.386 . S
C1456 C1452 1.429 . S
C1456 N1454 1.377 . S
C1456 C1459 1.411 . S
C1457 H1439 0.930 . S
C1457 N1454 1.321 . S
C1457 C1455 1.400 . S
C1458 H1453 0.930 . S
C1458 C1455 1.386 . S
C1458 C1459 1.395 . S
C1459 C1456 1.411 . S
C1459 C1458 1.395 . S
C1459 C1481 1.420 . S
O1460 Eu1416 2.558 . S
O1460 C1480 1.257 . S
O1461 Eu1416 2.612 . S
O1461 Eu1427 2.380 . S
O1461 C1472 1.276 . S
O1462 Eu1427 2.432 . S
O1462 C1479 1.264 . S
O1463 Eu1416 2.339 . S
O1463 C1479 1.254 . S
O1464 Eu1416 2.563 . S
O1464 C1472 1.235 . S
O1465 Eu1416 2.419 . S
O1465 C1480 1.249 . S
O1466 Eu1427 2.558 . S
O1466 C1491 1.257 . S
O1467 Eu1416 2.380 . S
O1467 Eu1427 2.612 . S
O1467 C1483 1.276 . S
O1468 Eu1416 2.432 . S
O1468 C1490 1.264 . S
O1469 Eu1427 2.339 . S
O1469 C1490 1.254 . S
O1470 Eu1427 2.563 . S
O1470 C1483 1.235 . S
O1471 Eu1427 2.419 . S
O1471 C1491 1.249 . S
C1472 O1461 1.276 . S
C1472 O1464 1.235 . S
C1473 C1475 1.393 . S
C1473 C1477 1.395 . S
C1473 C1480 1.492 . S
C1474 C1475 1.392 . S
C1474 C1476 1.386 . S
C1475 C1473 1.393 . S
C1475 C1474 1.392 . S
C1475 H1492 0.930 . S
C1476 C1474 1.386 . S
C1476 C1478 1.395 . S
C1476 H1493 0.930 . S
C1477 C1473 1.395 . S
C1477 C1478 1.379 . S
C1477 H1494 0.930 . S
C1478 C1476 1.395 . S
C1478 C1477 1.379 . S
C1478 H1495 0.930 . S
C1479 O1462 1.264 . S
C1479 O1463 1.254 . S
C1480 Eu1416 2.848 . S
C1480 O1460 1.257 . S
C1480 O1465 1.249 . S
C1480 C1473 1.492 . S
C1481 H1446 0.931 . S
C1481 C1459 1.420 . S
C1481 C1482 1.351 . S
C1482 H1444 0.930 . S
C1482 C1450 1.423 . S
C1482 C1481 1.351 . S
C1483 O1467 1.276 . S
C1483 O1470 1.235 . S
C1484 C1485 1.393 . S
C1484 C1488 1.395 . S
C1484 C1491 1.492 . S
C1485 C1484 1.393 . S
C1485 C1486 1.392 . S
C1485 H1496 0.930 . S
C1486 C1485 1.392 . S
C1486 C1487 1.386 . S
C1487 C1486 1.386 . S
C1487 C1489 1.395 . S
C1487 H1497 0.930 . S
C1488 C1484 1.395 . S
C1488 C1489 1.379 . S
C1488 H1498 0.930 . S
C1489 C1487 1.395 . S
C1489 C1488 1.379 . S
C1489 H1499 0.930 . S
C1490 O1468 1.264 . S
C1490 O1469 1.254 . S
C1491 Eu1427 2.848 . S
C1491 O1466 1.257 . S
C1491 O1471 1.249 . S
C1491 C1484 1.492 . S
H1492 C1475 0.930 . S
H1493 C1476 0.930 . S
H1494 C1477 0.930 . S
H1495 C1478 0.930 . S
H1496 C1485 0.930 . S
H1497 C1487 0.930 . S
H1498 C1488 0.930 . S
H1499 C1489 0.930 . S
Eu1500 N1531 2.657 . S
Eu1500 N1538 2.609 . S
Eu1500 O1544 2.558 . S
Eu1500 O1545 2.612 . S
Eu1500 O1547 2.339 . S
Eu1500 O1548 2.563 . S
Eu1500 O1549 2.419 . S
Eu1500 O1551 2.380 . S
Eu1500 O1552 2.432 . S
Eu1500 C1564 2.848 . S
C1501 C1504 1.429 . S
C1501 C1505 1.411 . S
C1501 N1508 1.377 . S
C1502 C1504 1.420 . S
C1502 C1506 1.423 . S
C1502 C1514 1.392 . S
C1503 C1505 1.420 . S
C1503 C1506 1.351 . S
C1503 H1526 0.931 . S
C1504 C1501 1.429 . S
C1504 C1502 1.420 . S
C1504 N1512 1.362 . S
C1505 C1501 1.411 . S
C1505 C1503 1.420 . S
C1505 C1510 1.395 . S
C1506 C1502 1.423 . S
C1506 C1503 1.351 . S
C1506 H1518 0.930 . S
C1507 C1509 1.400 . S
C1507 C1510 1.386 . S
C1507 H1519 0.930 . S
N1508 C1501 1.377 . S
N1508 C1509 1.321 . S
N1508 Eu1511 2.609 . S
C1509 C1507 1.400 . S
C1509 N1508 1.321 . S
C1509 H1516 0.930 . S
C1510 C1505 1.395 . S
C1510 C1507 1.386 . S
C1510 H1529 0.930 . S
Eu1511 N1508 2.609 . S
Eu1511 N1512 2.657 . S
Eu1511 O1545 2.380 . S
Eu1511 O1546 2.432 . S
Eu1511 O1550 2.558 . S
Eu1511 O1551 2.612 . S
Eu1511 O1553 2.339 . S
Eu1511 O1554 2.563 . S
Eu1511 O1555 2.419 . S
Eu1511 C1575 2.848 . S
N1512 C1504 1.362 . S
N1512 Eu1511 2.657 . S
N1512 C1513 1.334 . S
C1513 N1512 1.334 . S
C1513 C1515 1.413 . S
C1513 H1520 0.929 . S
C1514 C1502 1.392 . S
C1514 C1515 1.367 . S
C1514 H1522 0.930 . S
C1515 C1513 1.413 . S
C1515 C1514 1.367 . S
C1515 H1517 0.930 . S
H1516 C1509 0.930 . S
H1517 C1515 0.930 . S
H1518 C1506 0.930 . S
H1519 C1507 0.930 . S
H1520 C1513 0.929 . S
H1521 C1535 0.930 . S
H1522 C1514 0.930 . S
H1523 C1541 0.930 . S
H1524 C1532 0.929 . S
H1525 C1539 0.930 . S
H1526 C1503 0.931 . S
H1527 C1533 0.930 . S
H1528 C1566 0.930 . S
H1529 C1510 0.930 . S
H1530 C1565 0.931 . S
N1531 Eu1500 2.657 . S
N1531 C1532 1.334 . S
N1531 C1536 1.362 . S
C1532 H1524 0.929 . S
C1532 N1531 1.334 . S
C1532 C1535 1.413 . S
C1533 H1527 0.930 . S
C1533 C1534 1.392 . S
C1533 C1535 1.367 . S
C1534 C1533 1.392 . S
C1534 C1536 1.420 . S
C1534 C1566 1.423 . S
C1535 H1521 0.930 . S
C1535 C1532 1.413 . S
C1535 C1533 1.367 . S
C1536 N1531 1.362 . S
C1536 C1534 1.420 . S
C1536 C1540 1.429 . S
H1537 C1542 0.930 . S
N1538 Eu1500 2.609 . S
N1538 C1540 1.377 . S
N1538 C1541 1.321 . S
C1539 H1525 0.930 . S
C1539 C1541 1.400 . S
C1539 C1542 1.386 . S
C1540 C1536 1.429 . S
C1540 N1538 1.377 . S
C1540 C1543 1.411 . S
C1541 H1523 0.930 . S
C1541 N1538 1.321 . S
C1541 C1539 1.400 . S
C1542 H1537 0.930 . S
C1542 C1539 1.386 . S
C1542 C1543 1.395 . S
C1543 C1540 1.411 . S
C1543 C1542 1.395 . S
C1543 C1565 1.420 . S
O1544 Eu1500 2.558 . S
O1544 C1564 1.257 . S
O1545 Eu1500 2.612 . S
O1545 Eu1511 2.380 . S
O1545 C1556 1.276 . S
O1546 Eu1511 2.432 . S
O1546 C1563 1.264 . S
O1547 Eu1500 2.339 . S
O1547 C1563 1.254 . S
O1548 Eu1500 2.563 . S
O1548 C1556 1.235 . S
O1549 Eu1500 2.419 . S
O1549 C1564 1.249 . S
O1550 Eu1511 2.558 . S
O1550 C1575 1.257 . S
O1551 Eu1500 2.380 . S
O1551 Eu1511 2.612 . S
O1551 C1567 1.276 . S
O1552 Eu1500 2.432 . S
O1552 C1574 1.264 . S
O1553 Eu1511 2.339 . S
O1553 C1574 1.254 . S
O1554 Eu1511 2.563 . S
O1554 C1567 1.235 . S
O1555 Eu1511 2.419 . S
O1555 C1575 1.249 . S
C1556 O1545 1.276 . S
C1556 O1548 1.235 . S
C1557 C1559 1.393 . S
C1557 C1561 1.395 . S
C1557 C1564 1.492 . S
C1558 C1559 1.392 . S
C1558 C1560 1.386 . S
C1559 C1557 1.393 . S
C1559 C1558 1.392 . S
C1559 H1576 0.930 . S
C1560 C1558 1.386 . S
C1560 C1562 1.395 . S
C1560 H1577 0.930 . S
C1561 C1557 1.395 . S
C1561 C1562 1.379 . S
C1561 H1578 0.930 . S
C1562 C1560 1.395 . S
C1562 C1561 1.379 . S
C1562 H1579 0.930 . S
C1563 O1546 1.264 . S
C1563 O1547 1.254 . S
C1564 Eu1500 2.848 . S
C1564 O1544 1.257 . S
C1564 O1549 1.249 . S
C1564 C1557 1.492 . S
C1565 H1530 0.931 . S
C1565 C1543 1.420 . S
C1565 C1566 1.351 . S
C1566 H1528 0.930 . S
C1566 C1534 1.423 . S
C1566 C1565 1.351 . S
C1567 O1551 1.276 . S
C1567 O1554 1.235 . S
C1568 C1569 1.393 . S
C1568 C1572 1.395 . S
C1568 C1575 1.492 . S
C1569 C1568 1.393 . S
C1569 C1570 1.392 . S
C1569 H1580 0.930 . S
C1570 C1569 1.392 . S
C1570 C1571 1.386 . S
C1571 C1570 1.386 . S
C1571 C1573 1.395 . S
C1571 H1581 0.930 . S
C1572 C1568 1.395 . S
C1572 C1573 1.379 . S
C1572 H1582 0.930 . S
C1573 C1571 1.395 . S
C1573 C1572 1.379 . S
C1573 H1583 0.930 . S
C1574 O1552 1.264 . S
C1574 O1553 1.254 . S
C1575 Eu1511 2.848 . S
C1575 O1550 1.257 . S
C1575 O1555 1.249 . S
C1575 C1568 1.492 . S
H1576 C1559 0.930 . S
H1577 C1560 0.930 . S
H1578 C1561 0.930 . S
H1579 C1562 0.930 . S
H1580 C1569 0.930 . S
H1581 C1571 0.930 . S
H1582 C1572 0.930 . S
H1583 C1573 0.930 . S
Eu1584 N1615 2.657 . S
Eu1584 N1622 2.609 . S
Eu1584 O1628 2.558 . S
Eu1584 O1629 2.612 . S
Eu1584 O1631 2.339 . S
Eu1584 O1632 2.563 . S
Eu1584 O1633 2.419 . S
Eu1584 O1635 2.380 . S
Eu1584 O1636 2.432 . S
Eu1584 C1648 2.848 . S
C1585 C1588 1.429 . S
C1585 C1589 1.411 . S
C1585 N1592 1.377 . S
C1586 C1588 1.420 . S
C1586 C1590 1.423 . S
C1586 C1598 1.392 . S
C1587 C1589 1.420 . S
C1587 C1590 1.351 . S
C1587 H1610 0.931 . S
C1588 C1585 1.429 . S
C1588 C1586 1.420 . S
C1588 N1596 1.362 . S
C1589 C1585 1.411 . S
C1589 C1587 1.420 . S
C1589 C1594 1.395 . S
C1590 C1586 1.423 . S
C1590 C1587 1.351 . S
C1590 H1602 0.930 . S
C1591 C1593 1.400 . S
C1591 C1594 1.386 . S
C1591 H1603 0.930 . S
N1592 C1585 1.377 . S
N1592 C1593 1.321 . S
N1592 Eu1595 2.609 . S
C1593 C1591 1.400 . S
C1593 N1592 1.321 . S
C1593 H1600 0.930 . S
C1594 C1589 1.395 . S
C1594 C1591 1.386 . S
C1594 H1613 0.930 . S
Eu1595 N1592 2.609 . S
Eu1595 N1596 2.657 . S
Eu1595 O1629 2.380 . S
Eu1595 O1630 2.432 . S
Eu1595 O1634 2.558 . S
Eu1595 O1635 2.612 . S
Eu1595 O1637 2.339 . S
Eu1595 O1638 2.563 . S
Eu1595 O1639 2.419 . S
Eu1595 C1659 2.848 . S
N1596 C1588 1.362 . S
N1596 Eu1595 2.657 . S
N1596 C1597 1.334 . S
C1597 N1596 1.334 . S
C1597 C1599 1.413 . S
C1597 H1604 0.929 . S
C1598 C1586 1.392 . S
C1598 C1599 1.367 . S
C1598 H1606 0.930 . S
C1599 C1597 1.413 . S
C1599 C1598 1.367 . S
C1599 H1601 0.930 . S
H1600 C1593 0.930 . S
H1601 C1599 0.930 . S
H1602 C1590 0.930 . S
H1603 C1591 0.930 . S
H1604 C1597 0.929 . S
H1605 C1619 0.930 . S
H1606 C1598 0.930 . S
H1607 C1625 0.930 . S
H1608 C1616 0.929 . S
H1609 C1623 0.930 . S
H1610 C1587 0.931 . S
H1611 C1617 0.930 . S
H1612 C1650 0.930 . S
H1613 C1594 0.930 . S
H1614 C1649 0.931 . S
N1615 Eu1584 2.657 . S
N1615 C1616 1.334 . S
N1615 C1620 1.362 . S
C1616 H1608 0.929 . S
C1616 N1615 1.334 . S
C1616 C1619 1.413 . S
C1617 H1611 0.930 . S
C1617 C1618 1.392 . S
C1617 C1619 1.367 . S
C1618 C1617 1.392 . S
C1618 C1620 1.420 . S
C1618 C1650 1.423 . S
C1619 H1605 0.930 . S
C1619 C1616 1.413 . S
C1619 C1617 1.367 . S
C1620 N1615 1.362 . S
C1620 C1618 1.420 . S
C1620 C1624 1.429 . S
H1621 C1626 0.930 . S
N1622 Eu1584 2.609 . S
N1622 C1624 1.377 . S
N1622 C1625 1.321 . S
C1623 H1609 0.930 . S
C1623 C1625 1.400 . S
C1623 C1626 1.386 . S
C1624 C1620 1.429 . S
C1624 N1622 1.377 . S
C1624 C1627 1.411 . S
C1625 H1607 0.930 . S
C1625 N1622 1.321 . S
C1625 C1623 1.400 . S
C1626 H1621 0.930 . S
C1626 C1623 1.386 . S
C1626 C1627 1.395 . S
C1627 C1624 1.411 . S
C1627 C1626 1.395 . S
C1627 C1649 1.420 . S
O1628 Eu1584 2.558 . S
O1628 C1648 1.257 . S
O1629 Eu1584 2.612 . S
O1629 Eu1595 2.380 . S
O1629 C1640 1.276 . S
O1630 Eu1595 2.432 . S
O1630 C1647 1.264 . S
O1631 Eu1584 2.339 . S
O1631 C1647 1.254 . S
O1632 Eu1584 2.563 . S
O1632 C1640 1.235 . S
O1633 Eu1584 2.419 . S
O1633 C1648 1.249 . S
O1634 Eu1595 2.558 . S
O1634 C1659 1.257 . S
O1635 Eu1584 2.380 . S
O1635 Eu1595 2.612 . S
O1635 C1651 1.276 . S
O1636 Eu1584 2.432 . S
O1636 C1658 1.264 . S
O1637 Eu1595 2.339 . S
O1637 C1658 1.254 . S
O1638 Eu1595 2.563 . S
O1638 C1651 1.235 . S
O1639 Eu1595 2.419 . S
O1639 C1659 1.249 . S
C1640 O1629 1.276 . S
C1640 O1632 1.235 . S
C1641 C1643 1.393 . S
C1641 C1645 1.395 . S
C1641 C1648 1.492 . S
C1642 C1643 1.392 . S
C1642 C1644 1.386 . S
C1643 C1641 1.393 . S
C1643 C1642 1.392 . S
C1643 H1660 0.930 . S
C1644 C1642 1.386 . S
C1644 C1646 1.395 . S
C1644 H1661 0.930 . S
C1645 C1641 1.395 . S
C1645 C1646 1.379 . S
C1645 H1662 0.930 . S
C1646 C1644 1.395 . S
C1646 C1645 1.379 . S
C1646 H1663 0.930 . S
C1647 O1630 1.264 . S
C1647 O1631 1.254 . S
C1648 Eu1584 2.848 . S
C1648 O1628 1.257 . S
C1648 O1633 1.249 . S
C1648 C1641 1.492 . S
C1649 H1614 0.931 . S
C1649 C1627 1.420 . S
C1649 C1650 1.351 . S
C1650 H1612 0.930 . S
C1650 C1618 1.423 . S
C1650 C1649 1.351 . S
C1651 O1635 1.276 . S
C1651 O1638 1.235 . S
C1652 C1653 1.393 . S
C1652 C1656 1.395 . S
C1652 C1659 1.492 . S
C1653 C1652 1.393 . S
C1653 C1654 1.392 . S
C1653 H1664 0.930 . S
C1654 C1653 1.392 . S
C1654 C1655 1.386 . S
C1655 C1654 1.386 . S
C1655 C1657 1.395 . S
C1655 H1665 0.930 . S
C1656 C1652 1.395 . S
C1656 C1657 1.379 . S
C1656 H1666 0.930 . S
C1657 C1655 1.395 . S
C1657 C1656 1.379 . S
C1657 H1667 0.930 . S
C1658 O1636 1.264 . S
C1658 O1637 1.254 . S
C1659 Eu1595 2.848 . S
C1659 O1634 1.257 . S
C1659 O1639 1.249 . S
C1659 C1652 1.492 . S
H1660 C1643 0.930 . S
H1661 C1644 0.930 . S
H1662 C1645 0.930 . S
H1663 C1646 0.930 . S
H1664 C1653 0.930 . S
H1665 C1655 0.930 . S
H1666 C1656 0.930 . S
H1667 C1657 0.930 . S
Eu1668 N1699 2.657 . S
Eu1668 N1706 2.609 . S
Eu1668 O1712 2.558 . S
Eu1668 O1713 2.612 . S
Eu1668 O1715 2.339 . S
Eu1668 O1716 2.563 . S
Eu1668 O1717 2.419 . S
Eu1668 O1719 2.380 . S
Eu1668 O1720 2.432 . S
Eu1668 C1732 2.848 . S
C1669 C1672 1.429 . S
C1669 C1673 1.411 . S
C1669 N1676 1.377 . S
C1670 C1672 1.420 . S
C1670 C1674 1.423 . S
C1670 C1682 1.392 . S
C1671 C1673 1.420 . S
C1671 C1674 1.351 . S
C1671 H1694 0.931 . S
C1672 C1669 1.429 . S
C1672 C1670 1.420 . S
C1672 N1680 1.362 . S
C1673 C1669 1.411 . S
C1673 C1671 1.420 . S
C1673 C1678 1.395 . S
C1674 C1670 1.423 . S
C1674 C1671 1.351 . S
C1674 H1686 0.930 . S
C1675 C1677 1.400 . S
C1675 C1678 1.386 . S
C1675 H1687 0.930 . S
N1676 C1669 1.377 . S
N1676 C1677 1.321 . S
N1676 Eu1679 2.609 . S
C1677 C1675 1.400 . S
C1677 N1676 1.321 . S
C1677 H1684 0.930 . S
C1678 C1673 1.395 . S
C1678 C1675 1.386 . S
C1678 H1697 0.930 . S
Eu1679 N1676 2.609 . S
Eu1679 N1680 2.657 . S
Eu1679 O1713 2.380 . S
Eu1679 O1714 2.432 . S
Eu1679 O1718 2.558 . S
Eu1679 O1719 2.612 . S
Eu1679 O1721 2.339 . S
Eu1679 O1722 2.563 . S
Eu1679 O1723 2.419 . S
Eu1679 C1743 2.848 . S
N1680 C1672 1.362 . S
N1680 Eu1679 2.657 . S
N1680 C1681 1.334 . S
C1681 N1680 1.334 . S
C1681 C1683 1.413 . S
C1681 H1688 0.929 . S
C1682 C1670 1.392 . S
C1682 C1683 1.367 . S
C1682 H1690 0.930 . S
C1683 C1681 1.413 . S
C1683 C1682 1.367 . S
C1683 H1685 0.930 . S
H1684 C1677 0.930 . S
H1685 C1683 0.930 . S
H1686 C1674 0.930 . S
H1687 C1675 0.930 . S
H1688 C1681 0.929 . S
H1689 C1703 0.930 . S
H1690 C1682 0.930 . S
H1691 C1709 0.930 . S
H1692 C1700 0.929 . S
H1693 C1707 0.930 . S
H1694 C1671 0.931 . S
H1695 C1701 0.930 . S
H1696 C1734 0.930 . S
H1697 C1678 0.930 . S
H1698 C1733 0.931 . S
N1699 Eu1668 2.657 . S
N1699 C1700 1.334 . S
N1699 C1704 1.362 . S
C1700 H1692 0.929 . S
C1700 N1699 1.334 . S
C1700 C1703 1.413 . S
C1701 H1695 0.930 . S
C1701 C1702 1.392 . S
C1701 C1703 1.367 . S
C1702 C1701 1.392 . S
C1702 C1704 1.420 . S
C1702 C1734 1.423 . S
C1703 H1689 0.930 . S
C1703 C1700 1.413 . S
C1703 C1701 1.367 . S
C1704 N1699 1.362 . S
C1704 C1702 1.420 . S
C1704 C1708 1.429 . S
H1705 C1710 0.930 . S
N1706 Eu1668 2.609 . S
N1706 C1708 1.377 . S
N1706 C1709 1.321 . S
C1707 H1693 0.930 . S
C1707 C1709 1.400 . S
C1707 C1710 1.386 . S
C1708 C1704 1.429 . S
C1708 N1706 1.377 . S
C1708 C1711 1.411 . S
C1709 H1691 0.930 . S
C1709 N1706 1.321 . S
C1709 C1707 1.400 . S
C1710 H1705 0.930 . S
C1710 C1707 1.386 . S
C1710 C1711 1.395 . S
C1711 C1708 1.411 . S
C1711 C1710 1.395 . S
C1711 C1733 1.420 . S
O1712 Eu1668 2.558 . S
O1712 C1732 1.257 . S
O1713 Eu1668 2.612 . S
O1713 Eu1679 2.380 . S
O1713 C1724 1.276 . S
O1714 Eu1679 2.432 . S
O1714 C1731 1.264 . S
O1715 Eu1668 2.339 . S
O1715 C1731 1.254 . S
O1716 Eu1668 2.563 . S
O1716 C1724 1.235 . S
O1717 Eu1668 2.419 . S
O1717 C1732 1.249 . S
O1718 Eu1679 2.558 . S
O1718 C1743 1.257 . S
O1719 Eu1668 2.380 . S
O1719 Eu1679 2.612 . S
O1719 C1735 1.276 . S
O1720 Eu1668 2.432 . S
O1720 C1742 1.264 . S
O1721 Eu1679 2.339 . S
O1721 C1742 1.254 . S
O1722 Eu1679 2.563 . S
O1722 C1735 1.235 . S
O1723 Eu1679 2.419 . S
O1723 C1743 1.249 . S
C1724 O1713 1.276 . S
C1724 O1716 1.235 . S
C1725 C1727 1.393 . S
C1725 C1729 1.395 . S
C1725 C1732 1.492 . S
C1726 C1727 1.392 . S
C1726 C1728 1.386 . S
C1727 C1725 1.393 . S
C1727 C1726 1.392 . S
C1727 H1744 0.930 . S
C1728 C1726 1.386 . S
C1728 C1730 1.395 . S
C1728 H1745 0.930 . S
C1729 C1725 1.395 . S
C1729 C1730 1.379 . S
C1729 H1746 0.930 . S
C1730 C1728 1.395 . S
C1730 C1729 1.379 . S
C1730 H1747 0.930 . S
C1731 O1714 1.264 . S
C1731 O1715 1.254 . S
C1732 Eu1668 2.848 . S
C1732 O1712 1.257 . S
C1732 O1717 1.249 . S
C1732 C1725 1.492 . S
C1733 H1698 0.931 . S
C1733 C1711 1.420 . S
C1733 C1734 1.351 . S
C1734 H1696 0.930 . S
C1734 C1702 1.423 . S
C1734 C1733 1.351 . S
C1735 O1719 1.276 . S
C1735 O1722 1.235 . S
C1736 C1737 1.393 . S
C1736 C1740 1.395 . S
C1736 C1743 1.492 . S
C1737 C1736 1.393 . S
C1737 C1738 1.392 . S
C1737 H1748 0.930 . S
C1738 C1737 1.392 . S
C1738 C1739 1.386 . S
C1739 C1738 1.386 . S
C1739 C1741 1.395 . S
C1739 H1749 0.930 . S
C1740 C1736 1.395 . S
C1740 C1741 1.379 . S
C1740 H1750 0.930 . S
C1741 C1739 1.395 . S
C1741 C1740 1.379 . S
C1741 H1751 0.930 . S
C1742 O1720 1.264 . S
C1742 O1721 1.254 . S
C1743 Eu1679 2.848 . S
C1743 O1718 1.257 . S
C1743 O1723 1.249 . S
C1743 C1736 1.492 . S
H1744 C1727 0.930 . S
H1745 C1728 0.930 . S
H1746 C1729 0.930 . S
H1747 C1730 0.930 . S
H1748 C1737 0.930 . S
H1749 C1739 0.930 . S
H1750 C1740 0.930 . S
H1751 C1741 0.930 . S
Eu1752 N1783 2.657 . S
Eu1752 N1790 2.609 . S
Eu1752 O1796 2.558 . S
Eu1752 O1797 2.612 . S
Eu1752 O1799 2.339 . S
Eu1752 O1800 2.563 . S
Eu1752 O1801 2.419 . S
Eu1752 O1803 2.380 . S
Eu1752 O1804 2.432 . S
Eu1752 C1816 2.848 . S
C1753 C1756 1.429 . S
C1753 C1757 1.411 . S
C1753 N1760 1.377 . S
C1754 C1756 1.420 . S
C1754 C1758 1.423 . S
C1754 C1766 1.392 . S
C1755 C1757 1.420 . S
C1755 C1758 1.351 . S
C1755 H1778 0.931 . S
C1756 C1753 1.429 . S
C1756 C1754 1.420 . S
C1756 N1764 1.362 . S
C1757 C1753 1.411 . S
C1757 C1755 1.420 . S
C1757 C1762 1.395 . S
C1758 C1754 1.423 . S
C1758 C1755 1.351 . S
C1758 H1770 0.930 . S
C1759 C1761 1.400 . S
C1759 C1762 1.386 . S
C1759 H1771 0.930 . S
N1760 C1753 1.377 . S
N1760 C1761 1.321 . S
N1760 Eu1763 2.609 . S
C1761 C1759 1.400 . S
C1761 N1760 1.321 . S
C1761 H1768 0.930 . S
C1762 C1757 1.395 . S
C1762 C1759 1.386 . S
C1762 H1781 0.930 . S
Eu1763 N1760 2.609 . S
Eu1763 N1764 2.657 . S
Eu1763 O1797 2.380 . S
Eu1763 O1798 2.432 . S
Eu1763 O1802 2.558 . S
Eu1763 O1803 2.612 . S
Eu1763 O1805 2.339 . S
Eu1763 O1806 2.563 . S
Eu1763 O1807 2.419 . S
Eu1763 C1827 2.848 . S
N1764 C1756 1.362 . S
N1764 Eu1763 2.657 . S
N1764 C1765 1.334 . S
C1765 N1764 1.334 . S
C1765 C1767 1.413 . S
C1765 H1772 0.929 . S
C1766 C1754 1.392 . S
C1766 C1767 1.367 . S
C1766 H1774 0.930 . S
C1767 C1765 1.413 . S
C1767 C1766 1.367 . S
C1767 H1769 0.930 . S
H1768 C1761 0.930 . S
H1769 C1767 0.930 . S
H1770 C1758 0.930 . S
H1771 C1759 0.930 . S
H1772 C1765 0.929 . S
H1773 C1787 0.930 . S
H1774 C1766 0.930 . S
H1775 C1793 0.930 . S
H1776 C1784 0.929 . S
H1777 C1791 0.930 . S
H1778 C1755 0.931 . S
H1779 C1785 0.930 . S
H1780 C1818 0.930 . S
H1781 C1762 0.930 . S
H1782 C1817 0.931 . S
N1783 Eu1752 2.657 . S
N1783 C1784 1.334 . S
N1783 C1788 1.362 . S
C1784 H1776 0.929 . S
C1784 N1783 1.334 . S
C1784 C1787 1.413 . S
C1785 H1779 0.930 . S
C1785 C1786 1.392 . S
C1785 C1787 1.367 . S
C1786 C1785 1.392 . S
C1786 C1788 1.420 . S
C1786 C1818 1.423 . S
C1787 H1773 0.930 . S
C1787 C1784 1.413 . S
C1787 C1785 1.367 . S
C1788 N1783 1.362 . S
C1788 C1786 1.420 . S
C1788 C1792 1.429 . S
H1789 C1794 0.930 . S
N1790 Eu1752 2.609 . S
N1790 C1792 1.377 . S
N1790 C1793 1.321 . S
C1791 H1777 0.930 . S
C1791 C1793 1.400 . S
C1791 C1794 1.386 . S
C1792 C1788 1.429 . S
C1792 N1790 1.377 . S
C1792 C1795 1.411 . S
C1793 H1775 0.930 . S
C1793 N1790 1.321 . S
C1793 C1791 1.400 . S
C1794 H1789 0.930 . S
C1794 C1791 1.386 . S
C1794 C1795 1.395 . S
C1795 C1792 1.411 . S
C1795 C1794 1.395 . S
C1795 C1817 1.420 . S
O1796 Eu1752 2.558 . S
O1796 C1816 1.257 . S
O1797 Eu1752 2.612 . S
O1797 Eu1763 2.380 . S
O1797 C1808 1.276 . S
O1798 Eu1763 2.432 . S
O1798 C1815 1.264 . S
O1799 Eu1752 2.339 . S
O1799 C1815 1.254 . S
O1800 Eu1752 2.563 . S
O1800 C1808 1.235 . S
O1801 Eu1752 2.419 . S
O1801 C1816 1.249 . S
O1802 Eu1763 2.558 . S
O1802 C1827 1.257 . S
O1803 Eu1752 2.380 . S
O1803 Eu1763 2.612 . S
O1803 C1819 1.276 . S
O1804 Eu1752 2.432 . S
O1804 C1826 1.264 . S
O1805 Eu1763 2.339 . S
O1805 C1826 1.254 . S
O1806 Eu1763 2.563 . S
O1806 C1819 1.235 . S
O1807 Eu1763 2.419 . S
O1807 C1827 1.249 . S
C1808 O1797 1.276 . S
C1808 O1800 1.235 . S
C1809 C1811 1.393 . S
C1809 C1813 1.395 . S
C1809 C1816 1.492 . S
C1810 C1811 1.392 . S
C1810 C1812 1.386 . S
C1811 C1809 1.393 . S
C1811 C1810 1.392 . S
C1811 H1828 0.930 . S
C1812 C1810 1.386 . S
C1812 C1814 1.395 . S
C1812 H1829 0.930 . S
C1813 C1809 1.395 . S
C1813 C1814 1.379 . S
C1813 H1830 0.930 . S
C1814 C1812 1.395 . S
C1814 C1813 1.379 . S
C1814 H1831 0.930 . S
C1815 O1798 1.264 . S
C1815 O1799 1.254 . S
C1816 Eu1752 2.848 . S
C1816 O1796 1.257 . S
C1816 O1801 1.249 . S
C1816 C1809 1.492 . S
C1817 H1782 0.931 . S
C1817 C1795 1.420 . S
C1817 C1818 1.351 . S
C1818 H1780 0.930 . S
C1818 C1786 1.423 . S
C1818 C1817 1.351 . S
C1819 O1803 1.276 . S
C1819 O1806 1.235 . S
C1820 C1821 1.393 . S
C1820 C1824 1.395 . S
C1820 C1827 1.492 . S
C1821 C1820 1.393 . S
C1821 C1822 1.392 . S
C1821 H1832 0.930 . S
C1822 C1821 1.392 . S
C1822 C1823 1.386 . S
C1823 C1822 1.386 . S
C1823 C1825 1.395 . S
C1823 H1833 0.930 . S
C1824 C1820 1.395 . S
C1824 C1825 1.379 . S
C1824 H1834 0.930 . S
C1825 C1823 1.395 . S
C1825 C1824 1.379 . S
C1825 H1835 0.930 . S
C1826 O1804 1.264 . S
C1826 O1805 1.254 . S
C1827 Eu1763 2.848 . S
C1827 O1802 1.257 . S
C1827 O1807 1.249 . S
C1827 C1820 1.492 . S
H1828 C1811 0.930 . S
H1829 C1812 0.930 . S
H1830 C1813 0.930 . S
H1831 C1814 0.930 . S
H1832 C1821 0.930 . S
H1833 C1823 0.930 . S
H1834 C1824 0.930 . S
H1835 C1825 0.930 . S
C1836 C1837 1.391 . S
C1836 C1838 1.394 . S
C1836 H1852 0.931 . S
C1837 C1836 1.391 . S
C1837 C1841 1.376 . S
C1838 C1836 1.394 . S
C1838 C1839 1.369 . S
C1838 C1842 1.531 . S
C1839 C1838 1.369 . S
C1839 C1840 1.410 . S
C1839 C1847 1.503 . S
C1840 C1839 1.410 . S
C1840 C1841 1.392 . S
C1840 C1843 1.511 . S
C1841 C1837 1.376 . S
C1841 C1840 1.392 . S
C1841 H1853 0.929 . S
C1842 C1838 1.531 . S
C1842 H1854 0.960 . S
C1842 H1855 0.962 . S
C1842 H1856 0.960 . S
C1843 C1840 1.511 . S
C1843 H1857 0.961 . S
C1843 H1858 0.961 . S
C1843 H1859 0.961 . S
C1844 C1845 1.370 . S
C1844 C1846 1.363 . S
C1844 H1860 0.859 1_554 S
C1845 C1844 1.370 . S
C1845 C1849 1.408 . S
C1846 C1844 1.363 . S
C1846 C1847 1.370 . S
C1846 C1850 1.524 . S
C1847 C1839 1.503 . S
C1847 C1846 1.370 . S
C1847 C1848 1.403 . S
C1848 C1847 1.403 . S
C1848 C1849 1.404 . S
C1848 C1851 1.539 . S
C1849 C1845 1.408 . S
C1849 C1848 1.404 . S
C1849 H1861 0.930 . S
C1850 C1846 1.524 . S
C1850 H1862 0.956 . S
C1850 H1863 0.961 . S
C1850 H1864 0.961 1_554 S
C1851 C1848 1.539 . S
C1851 H1865 0.958 . S
C1851 H1866 0.961 . S
C1851 H1867 0.960 . S
H1852 C1836 0.931 . S
H1853 C1841 0.929 . S
H1854 C1842 0.960 . S
H1855 C1842 0.962 . S
H1856 C1842 0.960 . S
H1857 C1843 0.961 . S
H1858 C1843 0.961 . S
H1859 C1843 0.961 . S
H1860 C1844 0.859 1_556 S
H1861 C1849 0.930 . S
H1862 C1850 0.956 . S
H1863 C1850 0.961 . S
H1864 C1850 0.961 1_556 S
H1865 C1851 0.958 . S
H1866 C1851 0.961 . S
H1867 C1851 0.960 . S
C1868 C1869 1.391 . S
C1868 C1870 1.394 . S
C1868 H1884 0.931 . S
C1869 C1868 1.391 . S
C1869 C1873 1.376 . S
C1870 C1868 1.394 . S
C1870 C1871 1.369 . S
C1870 C1874 1.531 . S
C1871 C1870 1.369 . S
C1871 C1872 1.410 . S
C1871 C1879 1.503 . S
C1872 C1871 1.410 . S
C1872 C1873 1.392 . S
C1872 C1875 1.511 . S
C1873 C1869 1.376 . S
C1873 C1872 1.392 . S
C1873 H1885 0.929 . S
C1874 C1870 1.531 . S
C1874 H1886 0.960 . S
C1874 H1887 0.962 . S
C1874 H1888 0.960 . S
C1875 C1872 1.511 . S
C1875 H1889 0.961 . S
C1875 H1890 0.961 . S
C1875 H1891 0.961 . S
C1876 C1877 1.370 . S
C1876 C1878 1.363 . S
C1876 H1892 0.931 . S
C1877 C1876 1.370 . S
C1877 C1881 1.408 . S
C1878 C1876 1.363 . S
C1878 C1879 1.370 . S
C1878 C1882 1.524 . S
C1879 C1871 1.503 . S
C1879 C1878 1.370 . S
C1879 C1880 1.403 . S
C1880 C1879 1.403 . S
C1880 C1881 1.404 . S
C1880 C1883 1.539 . S
C1881 C1877 1.408 . S
C1881 C1880 1.404 . S
C1881 H1893 0.930 . S
C1882 C1878 1.524 . S
C1882 H1894 0.956 . S
C1882 H1895 0.961 . S
C1882 H1896 0.961 . S
C1883 C1880 1.539 . S
C1883 H1897 0.958 . S
C1883 H1898 0.961 . S
C1883 H1899 0.960 . S
H1884 C1868 0.931 . S
H1885 C1873 0.929 . S
H1886 C1874 0.960 . S
H1887 C1874 0.962 . S
H1888 C1874 0.960 . S
H1889 C1875 0.961 . S
H1890 C1875 0.961 . S
H1891 C1875 0.961 . S
H1892 C1876 0.931 . S
H1893 C1881 0.930 . S
H1894 C1882 0.956 . S
H1895 C1882 0.961 . S
H1896 C1882 0.961 . S
H1897 C1883 0.958 . S
H1898 C1883 0.961 . S
H1899 C1883 0.960 . S
C1900 C1901 1.391 . S
C1900 C1902 1.394 . S
C1900 H1916 0.931 . S
C1901 C1900 1.391 . S
C1901 C1905 1.376 . S
C1902 C1900 1.394 . S
C1902 C1903 1.369 . S
C1902 C1906 1.531 . S
C1903 C1902 1.369 . S
C1903 C1904 1.410 . S
C1903 C1911 1.503 . S
C1904 C1903 1.410 . S
C1904 C1905 1.392 . S
C1904 C1907 1.511 . S
C1905 C1901 1.376 . S
C1905 C1904 1.392 . S
C1905 H1917 0.929 . S
C1906 C1902 1.531 . S
C1906 H1918 0.960 . S
C1906 H1919 0.962 . S
C1906 H1920 0.960 . S
C1907 C1904 1.511 . S
C1907 H1921 0.961 . S
C1907 H1922 0.961 . S
C1907 H1923 0.961 . S
C1908 C1909 1.370 . S
C1908 C1910 1.363 . S
C1908 H1924 0.931 . S
C1909 C1908 1.370 . S
C1909 C1913 1.408 . S
C1910 C1908 1.363 . S
C1910 C1911 1.370 . S
C1910 C1914 1.524 . S
C1911 C1903 1.503 . S
C1911 C1910 1.370 . S
C1911 C1912 1.403 . S
C1912 C1911 1.403 . S
C1912 C1913 1.404 . S
C1912 C1915 1.539 . S
C1913 C1909 1.408 . S
C1913 C1912 1.404 . S
C1913 H1925 0.930 1_554 S
C1914 C1910 1.524 . S
C1914 H1926 0.956 . S
C1914 H1927 0.961 . S
C1914 H1928 0.961 . S
C1915 C1912 1.539 . S
C1915 H1929 0.958 1_554 S
C1915 H1930 0.961 1_554 S
C1915 H1931 0.960 . S
H1916 C1900 0.931 . S
H1917 C1905 0.929 . S
H1918 C1906 0.960 . S
H1919 C1906 0.962 . S
H1920 C1906 0.960 . S
H1921 C1907 0.961 . S
H1922 C1907 0.961 . S
H1923 C1907 0.961 . S
H1924 C1908 0.931 . S
H1925 C1913 0.930 1_556 S
H1926 C1914 0.956 . S
H1927 C1914 0.961 . S
H1928 C1914 0.961 . S
H1929 C1915 0.958 1_556 S
H1930 C1915 0.961 1_556 S
H1931 C1915 0.960 . S
C1932 C1933 1.391 . S
C1932 C1934 1.394 . S
C1932 H1948 0.931 . S
C1933 C1932 1.391 . S
C1933 C1937 1.376 . S
C1934 C1932 1.394 . S
C1934 C1935 1.369 . S
C1934 C1938 1.531 . S
C1935 C1934 1.369 . S
C1935 C1936 1.410 . S
C1935 C1943 1.503 . S
C1936 C1935 1.410 . S
C1936 C1937 1.392 . S
C1936 C1939 1.511 . S
C1937 C1933 1.376 . S
C1937 C1936 1.392 . S
C1937 H1949 0.929 . S
C1938 C1934 1.531 . S
C1938 H1950 0.960 . S
C1938 H1951 0.962 . S
C1938 H1952 0.960 . S
C1939 C1936 1.511 . S
C1939 H1953 0.961 . S
C1939 H1954 0.961 . S
C1939 H1955 0.961 . S
C1940 C1941 1.370 . S
C1940 C1942 1.363 . S
C1940 H1956 0.931 . S
C1941 C1940 1.370 . S
C1941 C1945 1.408 . S
C1942 C1940 1.363 . S
C1942 C1943 1.370 . S
C1942 C1946 1.524 . S
C1943 C1935 1.503 . S
C1943 C1942 1.370 . S
C1943 C1944 1.403 . S
C1944 C1943 1.403 . S
C1944 C1945 1.404 . S
C1944 C1947 1.528 1_556 S
C1945 C1941 1.408 . S
C1945 C1944 1.404 . S
C1945 H1957 0.930 1_556 S
C1946 C1942 1.524 . S
C1946 H1958 0.956 . S
C1946 H1959 0.961 . S
C1946 H1960 0.961 . S
C1947 C1944 1.528 1_554 S
C1947 H1961 0.969 . S
C1947 H1962 0.972 . S
C1947 H1963 0.950 1_554 S
H1948 C1932 0.931 . S
H1949 C1937 0.929 . S
H1950 C1938 0.960 . S
H1951 C1938 0.962 . S
H1952 C1938 0.960 . S
H1953 C1939 0.961 . S
H1954 C1939 0.961 . S
H1955 C1939 0.961 . S
H1956 C1940 0.931 . S
H1957 C1945 0.930 1_554 S
H1958 C1946 0.956 . S
H1959 C1946 0.961 . S
H1960 C1946 0.961 . S
H1961 C1947 0.969 . S
H1962 C1947 0.972 . S
H1963 C1947 0.950 1_556 S
C1964 C1965 1.391 . S
C1964 C1966 1.394 . S
C1964 H1980 0.931 . S
C1965 C1964 1.391 . S
C1965 C1969 1.376 . S
C1966 C1964 1.394 . S
C1966 C1967 1.369 . S
C1966 C1970 1.531 . S
C1967 C1966 1.369 . S
C1967 C1968 1.410 . S
C1967 C1975 1.503 . S
C1968 C1967 1.410 . S
C1968 C1969 1.392 . S
C1968 C1971 1.511 . S
C1969 C1965 1.376 . S
C1969 C1968 1.392 . S
C1969 H1981 0.929 . S
C1970 C1966 1.531 . S
C1970 H1982 0.960 . S
C1970 H1983 0.962 . S
C1970 H1984 0.960 . S
C1971 C1968 1.511 . S
C1971 H1985 0.961 . S
C1971 H1986 0.961 . S
C1971 H1987 0.961 . S
C1972 C1973 1.370 . S
C1972 C1974 1.363 . S
C1972 H1988 0.931 . S
C1973 C1972 1.370 . S
C1973 C1977 1.408 . S
C1974 C1972 1.363 . S
C1974 C1975 1.370 . S
C1974 C1978 1.524 . S
C1975 C1967 1.503 . S
C1975 C1974 1.370 . S
C1975 C1976 1.403 . S
C1976 C1975 1.403 . S
C1976 C1977 1.404 . S
C1976 C1979 1.539 . S
C1977 C1973 1.408 . S
C1977 C1976 1.404 . S
C1977 H1989 0.930 . S
C1978 C1974 1.524 . S
C1978 H1990 0.956 . S
C1978 H1991 0.961 . S
C1978 H1992 0.961 . S
C1979 C1976 1.539 . S
C1979 H1993 0.958 . S
C1979 H1994 0.961 . S
C1979 H1995 0.960 . S
H1980 C1964 0.931 . S
H1981 C1969 0.929 . S
H1982 C1970 0.960 . S
H1983 C1970 0.962 . S
H1984 C1970 0.960 . S
H1985 C1971 0.961 . S
H1986 C1971 0.961 . S
H1987 C1971 0.961 . S
H1988 C1972 0.931 . S
H1989 C1977 0.930 . S
H1990 C1978 0.956 . S
H1991 C1978 0.961 . S
H1992 C1978 0.961 . S
H1993 C1979 0.958 . S
H1994 C1979 0.961 . S
H1995 C1979 0.960 . S
C1996 C1997 1.391 . S
C1996 C1998 1.394 . S
C1996 H2012 0.931 . S
C1997 C1996 1.391 . S
C1997 C2001 1.376 . S
C1998 C1996 1.394 . S
C1998 C1999 1.369 . S
C1998 C2002 1.531 . S
C1999 C1998 1.369 . S
C1999 C2000 1.410 . S
C1999 C2007 1.503 . S
C2000 C1999 1.410 . S
C2000 C2001 1.392 . S
C2000 C2003 1.511 . S
C2001 C1997 1.376 . S
C2001 C2000 1.392 . S
C2001 H2013 0.929 . S
C2002 C1998 1.531 . S
C2002 H2014 0.960 . S
C2002 H2015 0.962 . S
C2002 H2016 0.960 . S
C2003 C2000 1.511 . S
C2003 H2017 0.961 . S
C2003 H2018 0.961 . S
C2003 H2019 0.961 . S
C2004 C2005 1.370 . S
C2004 C2006 1.363 . S
C2004 H2020 0.931 . S
C2005 C2004 1.370 . S
C2005 C2009 1.408 . S
C2006 C2004 1.363 . S
C2006 C2007 1.370 . S
C2006 C2010 1.524 . S
C2007 C1999 1.503 . S
C2007 C2006 1.370 . S
C2007 C2008 1.403 . S
C2008 C2007 1.403 . S
C2008 C2009 1.404 . S
C2008 C2011 1.539 . S
C2009 C2005 1.408 . S
C2009 C2008 1.404 . S
C2009 H2021 0.930 . S
C2010 C2006 1.524 . S
C2010 H2022 0.956 . S
C2010 H2023 0.961 . S
C2010 H2024 0.961 . S
C2011 C2008 1.539 . S
C2011 H2025 0.958 . S
C2011 H2026 0.961 . S
C2011 H2027 0.960 . S
H2012 C1996 0.931 . S
H2013 C2001 0.929 . S
H2014 C2002 0.960 . S
H2015 C2002 0.962 . S
H2016 C2002 0.960 . S
H2017 C2003 0.961 . S
H2018 C2003 0.961 . S
H2019 C2003 0.961 . S
H2020 C2004 0.931 . S
H2021 C2009 0.930 . S
H2022 C2010 0.956 . S
H2023 C2010 0.961 . S
H2024 C2010 0.961 . S
H2025 C2011 0.958 . S
H2026 C2011 0.961 . S
H2027 C2011 0.960 . S
C2028 C2029 1.391 . S
C2028 C2030 1.394 . S
C2028 H2044 0.931 . S
C2029 C2028 1.391 . S
C2029 C2033 1.376 . S
C2030 C2028 1.394 . S
C2030 C2031 1.369 . S
C2030 C2034 1.531 . S
C2031 C2030 1.369 . S
C2031 C2032 1.410 . S
C2031 C2039 1.503 . S
C2032 C2031 1.410 . S
C2032 C2033 1.392 . S
C2032 C2035 1.511 . S
C2033 C2029 1.376 . S
C2033 C2032 1.392 . S
C2033 H2045 0.929 . S
C2034 C2030 1.531 . S
C2034 H2046 0.960 . S
C2034 H2047 0.962 . S
C2034 H2048 0.960 . S
C2035 C2032 1.511 . S
C2035 H2049 0.961 . S
C2035 H2050 0.961 . S
C2035 H2051 0.961 . S
C2036 C2037 1.370 . S
C2036 C2038 1.363 . S
C2036 H2052 0.931 . S
C2037 C2036 1.370 . S
C2037 C2041 1.408 . S
C2038 C2036 1.363 . S
C2038 C2039 1.370 . S
C2038 C2042 1.524 . S
C2039 C2031 1.503 . S
C2039 C2038 1.370 . S
C2039 C2040 1.403 . S
C2040 C2039 1.403 . S
C2040 C2041 1.404 . S
C2040 C2043 1.539 . S
C2041 C2037 1.408 . S
C2041 C2040 1.404 . S
C2041 H2053 0.930 . S
C2042 C2038 1.524 . S
C2042 H2054 0.956 . S
C2042 H2055 0.961 . S
C2042 H2056 0.961 . S
C2043 C2040 1.539 . S
C2043 H2057 0.958 . S
C2043 H2058 0.961 . S
C2043 H2059 0.960 . S
H2044 C2028 0.931 . S
H2045 C2033 0.929 . S
H2046 C2034 0.960 . S
H2047 C2034 0.962 . S
H2048 C2034 0.960 . S
H2049 C2035 0.961 . S
H2050 C2035 0.961 . S
H2051 C2035 0.961 . S
H2052 C2036 0.931 . S
H2053 C2041 0.930 . S
H2054 C2042 0.956 . S
H2055 C2042 0.961 . S
H2056 C2042 0.961 . S
H2057 C2043 0.958 . S
H2058 C2043 0.961 . S
H2059 C2043 0.960 . S
C2060 C2061 1.391 . S
C2060 C2062 1.394 . S
C2060 H2076 0.931 . S
C2061 C2060 1.391 . S
C2061 C2065 1.376 . S
C2062 C2060 1.394 . S
C2062 C2063 1.369 . S
C2062 C2066 1.531 . S
C2063 C2062 1.369 . S
C2063 C2064 1.410 . S
C2063 C2071 1.503 . S
C2064 C2063 1.410 . S
C2064 C2065 1.392 . S
C2064 C2067 1.511 . S
C2065 C2061 1.376 . S
C2065 C2064 1.392 . S
C2065 H2077 0.929 . S
C2066 C2062 1.531 . S
C2066 H2078 0.960 . S
C2066 H2079 0.962 . S
C2066 H2080 0.960 . S
C2067 C2064 1.511 . S
C2067 H2081 0.961 . S
C2067 H2082 0.961 . S
C2067 H2083 0.961 . S
C2068 C2069 1.370 . S
C2068 C2070 1.363 . S
C2068 H2084 0.957 . S
C2069 C2068 1.370 . S
C2069 C2073 1.408 . S
C2070 C2068 1.363 . S
C2070 C2071 1.370 . S
C2070 C2074 1.524 . S
C2071 C2063 1.503 . S
C2071 C2070 1.370 . S
C2071 C2072 1.403 . S
C2072 C2071 1.403 . S
C2072 C2073 1.404 . S
C2072 C2075 1.539 . S
C2073 C2069 1.408 . S
C2073 C2072 1.404 . S
C2073 H2085 0.930 . S
C2074 C2070 1.524 . S
C2074 H2086 0.956 . S
C2074 H2087 0.961 . S
C2074 H2088 0.961 1_556 S
C2075 C2072 1.539 . S
C2075 H2089 0.958 . S
C2075 H2090 0.961 . S
C2075 H2091 0.960 . S
H2076 C2060 0.931 . S
H2077 C2065 0.929 . S
H2078 C2066 0.960 . S
H2079 C2066 0.962 . S
H2080 C2066 0.960 . S
H2081 C2067 0.961 . S
H2082 C2067 0.961 . S
H2083 C2067 0.961 . S
H2084 C2068 0.957 . S
H2085 C2073 0.930 . S
H2086 C2074 0.956 . S
H2087 C2074 0.961 . S
H2088 C2074 0.961 1_554 S
H2089 C2075 0.958 . S
H2090 C2075 0.961 . S
H2091 C2075 0.960 . S
C2092 C2093 1.391 . S
C2092 C2094 1.394 . S
C2092 H2108 0.931 . S
C2093 C2092 1.391 . S
C2093 C2097 1.376 . S
C2094 C2092 1.394 . S
C2094 C2095 1.369 . S
C2094 C2098 1.531 . S
C2095 C2094 1.369 . S
C2095 C2096 1.410 . S
C2095 C2103 1.503 . S
C2096 C2095 1.410 . S
C2096 C2097 1.392 . S
C2096 C2099 1.511 . S
C2097 C2093 1.376 . S
C2097 C2096 1.392 . S
C2097 H2109 0.929 . S
C2098 C2094 1.531 . S
C2098 H2110 0.960 . S
C2098 H2111 0.962 . S
C2098 H2112 0.960 . S
C2099 C2096 1.511 . S
C2099 H2113 0.961 . S
C2099 H2114 0.961 . S
C2099 H2115 0.961 . S
C2100 C2101 1.370 . S
C2100 C2102 1.363 . S
C2100 H2116 0.931 . S
C2101 C2100 1.370 . S
C2101 C2105 1.408 . S
C2102 C2100 1.363 . S
C2102 C2103 1.370 . S
C2102 C2106 1.524 . S
C2103 C2095 1.503 . S
C2103 C2102 1.370 . S
C2103 C2104 1.403 . S
C2104 C2103 1.403 . S
C2104 C2105 1.404 . S
C2104 C2107 1.539 . S
C2105 C2101 1.408 . S
C2105 C2104 1.404 . S
C2105 H2117 0.930 . S
C2106 C2102 1.524 . S
C2106 H2118 0.956 . S
C2106 H2119 0.961 . S
C2106 H2120 1.007 . S
C2107 C2104 1.539 . S
C2107 H2121 0.958 . S
C2107 H2122 0.961 . S
C2107 H2123 0.960 . S
H2108 C2092 0.931 . S
H2109 C2097 0.929 . S
H2110 C2098 0.960 . S
H2111 C2098 0.962 . S
H2112 C2098 0.960 . S
H2113 C2099 0.961 . S
H2114 C2099 0.961 . S
H2115 C2099 0.961 . S
H2116 C2100 0.931 . S
H2117 C2105 0.930 . S
H2118 C2106 0.956 . S
H2119 C2106 0.961 . S
H2120 C2106 1.007 . S
H2121 C2107 0.958 . S
H2122 C2107 0.961 . S
H2123 C2107 0.960 . S
C2124 C2125 1.391 . S
C2124 C2126 1.394 . S
C2124 H2140 0.931 . S
C2125 C2124 1.391 . S
C2125 C2129 1.376 . S
C2126 C2124 1.394 . S
C2126 C2127 1.369 . S
C2126 C2130 1.531 . S
C2127 C2126 1.369 . S
C2127 C2128 1.410 . S
C2127 C2135 1.503 . S
C2128 C2127 1.410 . S
C2128 C2129 1.392 . S
C2128 C2131 1.511 . S
C2129 C2125 1.376 . S
C2129 C2128 1.392 . S
C2129 H2141 0.929 . S
C2130 C2126 1.531 . S
C2130 H2142 0.960 . S
C2130 H2143 0.962 . S
C2130 H2144 0.960 . S
C2131 C2128 1.511 . S
C2131 H2145 0.961 . S
C2131 H2146 0.961 . S
C2131 H2147 0.961 . S
C2132 C2133 1.370 . S
C2132 C2134 1.363 . S
C2132 H2148 0.931 . S
C2133 C2132 1.370 . S
C2133 C2137 1.408 . S
C2134 C2132 1.363 . S
C2134 C2135 1.370 . S
C2134 C2138 1.524 . S
C2135 C2127 1.503 . S
C2135 C2134 1.370 . S
C2135 C2136 1.403 . S
C2136 C2135 1.403 . S
C2136 C2137 1.404 . S
C2136 C2139 1.586 . S
C2137 C2133 1.408 . S
C2137 C2136 1.404 . S
C2137 H2149 0.930 1_554 S
C2138 C2134 1.524 . S
C2138 H2150 0.956 . S
C2138 H2151 0.961 . S
C2138 H2152 0.961 . S
C2139 C2136 1.586 . S
C2139 H2153 0.922 1_554 S
C2139 H2154 0.919 1_554 S
C2139 H2155 0.997 . S
H2140 C2124 0.931 . S
H2141 C2129 0.929 . S
H2142 C2130 0.960 . S
H2143 C2130 0.962 . S
H2144 C2130 0.960 . S
H2145 C2131 0.961 . S
H2146 C2131 0.961 . S
H2147 C2131 0.961 . S
H2148 C2132 0.931 . S
H2149 C2137 0.930 1_556 S
H2150 C2138 0.956 . S
H2151 C2138 0.961 . S
H2152 C2138 0.961 . S
H2153 C2139 0.922 1_556 S
H2154 C2139 0.919 1_556 S
H2155 C2139 0.997 . S
C2156 C2157 1.391 . S
C2156 C2158 1.394 . S
C2156 H2172 0.931 . S
C2157 C2156 1.391 . S
C2157 C2161 1.376 . S
C2158 C2156 1.394 . S
C2158 C2159 1.369 . S
C2158 C2162 1.531 . S
C2159 C2158 1.369 . S
C2159 C2160 1.410 . S
C2159 C2167 1.503 . S
C2160 C2159 1.410 . S
C2160 C2161 1.392 . S
C2160 C2163 1.511 . S
C2161 C2157 1.376 . S
C2161 C2160 1.392 . S
C2161 H2173 0.929 . S
C2162 C2158 1.531 . S
C2162 H2174 0.960 . S
C2162 H2175 0.962 . S
C2162 H2176 0.960 . S
C2163 C2160 1.511 . S
C2163 H2177 0.961 . S
C2163 H2178 0.961 . S
C2163 H2179 0.961 . S
C2164 C2165 1.370 . S
C2164 C2166 1.363 . S
C2164 H2180 0.931 . S
C2165 C2164 1.370 . S
C2165 C2169 1.408 . S
C2166 C2164 1.363 . S
C2166 C2167 1.370 . S
C2166 C2170 1.524 . S
C2167 C2159 1.503 . S
C2167 C2166 1.370 . S
C2167 C2168 1.403 . S
C2168 C2167 1.403 . S
C2168 C2169 1.404 . S
C2168 C2171 1.539 . S
C2169 C2165 1.408 . S
C2169 C2168 1.404 . S
C2169 H2181 0.930 . S
C2170 C2166 1.524 . S
C2170 H2182 0.956 . S
C2170 H2183 0.961 . S
C2170 H2184 0.961 . S
C2171 C2168 1.539 . S
C2171 H2185 0.958 . S
C2171 H2186 0.961 . S
C2171 H2187 0.960 . S
H2172 C2156 0.931 . S
H2173 C2161 0.929 . S
H2174 C2162 0.960 . S
H2175 C2162 0.962 . S
H2176 C2162 0.960 . S
H2177 C2163 0.961 . S
H2178 C2163 0.961 . S
H2179 C2163 0.961 . S
H2180 C2164 0.931 . S
H2181 C2169 0.930 . S
H2182 C2170 0.956 . S
H2183 C2170 0.961 . S
H2184 C2170 0.961 . S
H2185 C2171 0.958 . S
H2186 C2171 0.961 . S
H2187 C2171 0.960 . S
C2188 C2189 1.391 . S
C2188 C2190 1.394 . S
C2188 H2204 0.931 . S
C2189 C2188 1.391 . S
C2189 C2193 1.376 . S
C2190 C2188 1.394 . S
C2190 C2191 1.369 . S
C2190 C2194 1.531 . S
C2191 C2190 1.369 . S
C2191 C2192 1.410 . S
C2191 C2199 1.503 . S
C2192 C2191 1.410 . S
C2192 C2193 1.392 . S
C2192 C2195 1.511 . S
C2193 C2189 1.376 . S
C2193 C2192 1.392 . S
C2193 H2205 0.929 . S
C2194 C2190 1.531 . S
C2194 H2206 0.960 . S
C2194 H2207 0.962 . S
C2194 H2208 0.960 . S
C2195 C2192 1.511 . S
C2195 H2209 0.961 . S
C2195 H2210 0.961 . S
C2195 H2211 0.961 . S
C2196 C2197 1.370 . S
C2196 C2198 1.363 . S
C2196 H2212 0.931 . S
C2197 C2196 1.370 . S
C2197 C2201 1.408 . S
C2198 C2196 1.363 . S
C2198 C2199 1.370 . S
C2198 C2202 1.524 . S
C2199 C2191 1.503 . S
C2199 C2198 1.370 . S
C2199 C2200 1.403 . S
C2200 C2199 1.403 . S
C2200 C2201 1.404 . S
C2200 C2203 1.539 . S
C2201 C2197 1.408 . S
C2201 C2200 1.404 . S
C2201 H2213 0.930 . S
C2202 C2198 1.524 . S
C2202 H2214 0.956 . S
C2202 H2215 0.961 . S
C2202 H2216 0.961 . S
C2203 C2200 1.539 . S
C2203 H2217 0.958 . S
C2203 H2218 0.961 . S
C2203 H2219 0.960 . S
H2204 C2188 0.931 . S
H2205 C2193 0.929 . S
H2206 C2194 0.960 . S
H2207 C2194 0.962 . S
H2208 C2194 0.960 . S
H2209 C2195 0.961 . S
H2210 C2195 0.961 . S
H2211 C2195 0.961 . S
H2212 C2196 0.931 . S
H2213 C2201 0.930 . S
H2214 C2202 0.956 . S
H2215 C2202 0.961 . S
H2216 C2202 0.961 . S
H2217 C2203 0.958 . S
H2218 C2203 0.961 . S
H2219 C2203 0.960 . S
C2220 C2221 1.391 . S
C2220 C2222 1.394 1_655 S
C2220 H2236 0.931 . S
C2221 C2220 1.391 . S
C2221 C2225 1.376 1_655 S
C2222 C2220 1.394 1_455 S
C2222 C2223 1.369 . S
C2222 C2226 1.531 . S
C2223 C2222 1.369 . S
C2223 C2224 1.410 . S
C2223 C2231 1.503 . S
C2224 C2223 1.410 . S
C2224 C2225 1.392 . S
C2224 C2227 1.511 . S
C2225 C2221 1.376 1_455 S
C2225 C2224 1.392 . S
C2225 H2237 0.933 . S
C2226 C2222 1.531 . S
C2226 H2238 0.960 . S
C2226 H2239 0.962 . S
C2226 H2240 0.960 . S
C2227 C2224 1.511 . S
C2227 H2241 0.961 . S
C2227 H2242 0.961 . S
C2227 H2243 0.961 . S
C2228 C2229 1.370 . S
C2228 C2230 1.363 . S
C2228 H2244 0.931 . S
C2229 C2228 1.370 . S
C2229 C2233 1.408 . S
C2230 C2228 1.363 . S
C2230 C2231 1.370 . S
C2230 C2234 1.524 . S
C2231 C2223 1.503 . S
C2231 C2230 1.370 . S
C2231 C2232 1.403 . S
C2232 C2231 1.403 . S
C2232 C2233 1.404 . S
C2232 C2235 1.539 . S
C2233 C2229 1.408 . S
C2233 C2232 1.404 . S
C2233 H2245 0.930 . S
C2234 C2230 1.524 . S
C2234 H2246 0.956 . S
C2234 H2247 0.961 . S
C2234 H2248 0.961 . S
C2235 C2232 1.539 . S
C2235 H2249 0.958 . S
C2235 H2250 0.961 . S
C2235 H2251 0.960 . S
H2236 C2220 0.931 . S
H2237 C2225 0.933 . S
H2238 C2226 0.960 . S
H2239 C2226 0.962 . S
H2240 C2226 0.960 . S
H2241 C2227 0.961 . S
H2242 C2227 0.961 . S
H2243 C2227 0.961 . S
H2244 C2228 0.931 . S
H2245 C2233 0.930 . S
H2246 C2234 0.956 . S
H2247 C2234 0.961 . S
H2248 C2234 0.961 . S
H2249 C2235 0.958 . S
H2250 C2235 0.961 . S
H2251 C2235 0.960 . S
C2252 C2253 1.391 . S
C2252 C2254 1.394 . S
C2252 H2268 0.931 . S
C2253 C2252 1.391 . S
C2253 C2257 1.376 . S
C2254 C2252 1.394 . S
C2254 C2255 1.369 . S
C2254 C2258 1.531 . S
C2255 C2254 1.369 . S
C2255 C2256 1.410 . S
C2255 C2263 1.503 . S
C2256 C2255 1.410 . S
C2256 C2257 1.392 . S
C2256 C2259 1.511 . S
C2257 C2253 1.376 . S
C2257 C2256 1.392 . S
C2257 H2269 0.929 . S
C2258 C2254 1.531 . S
C2258 H2270 0.960 . S
C2258 H2271 0.962 . S
C2258 H2272 0.960 . S
C2259 C2256 1.511 . S
C2259 H2273 0.961 . S
C2259 H2274 0.961 . S
C2259 H2275 0.961 . S
C2260 C2261 1.370 . S
C2260 C2262 1.363 . S
C2260 H2276 0.931 . S
C2261 C2260 1.370 . S
C2261 C2265 1.408 . S
C2262 C2260 1.363 . S
C2262 C2263 1.370 . S
C2262 C2266 1.524 . S
C2263 C2255 1.503 . S
C2263 C2262 1.370 . S
C2263 C2264 1.403 . S
C2264 C2263 1.403 . S
C2264 C2265 1.404 . S
C2264 C2267 1.539 . S
C2265 C2261 1.408 . S
C2265 C2264 1.404 . S
C2265 H2277 0.930 . S
C2266 C2262 1.524 . S
C2266 H2278 0.956 . S
C2266 H2279 0.961 . S
C2266 H2280 0.961 . S
C2267 C2264 1.539 . S
C2267 H2281 0.958 . S
C2267 H2282 0.961 . S
C2267 H2283 0.960 . S
H2268 C2252 0.931 . S
H2269 C2257 0.929 . S
H2270 C2258 0.960 . S
H2271 C2258 0.962 . S
H2272 C2258 0.960 . S
H2273 C2259 0.961 . S
H2274 C2259 0.961 . S
H2275 C2259 0.961 . S
H2276 C2260 0.931 . S
H2277 C2265 0.930 . S
H2278 C2266 0.956 . S
H2279 C2266 0.961 . S
H2280 C2266 0.961 . S
H2281 C2267 0.958 . S
H2282 C2267 0.961 . S
H2283 C2267 0.960 . S
C2284 C2285 1.391 . S
C2284 C2286 1.394 1_545 S
C2284 H2300 0.931 . S
C2285 C2284 1.391 . S
C2285 C2289 1.376 . S
C2286 C2284 1.394 1_565 S
C2286 C2287 1.369 . S
C2286 C2290 1.531 . S
C2287 C2286 1.369 . S
C2287 C2288 1.410 . S
C2287 C2295 1.503 . S
C2288 C2287 1.410 . S
C2288 C2289 1.392 1_565 S
C2288 C2291 1.511 . S
C2289 C2285 1.376 . S
C2289 C2288 1.392 1_545 S
C2289 H2301 0.929 . S
C2290 C2286 1.531 . S
C2290 H2302 0.960 . S
C2290 H2303 0.962 . S
C2290 H2304 0.960 . S
C2291 C2288 1.511 . S
C2291 H2305 0.961 . S
C2291 H2306 0.961 . S
C2291 H2307 0.961 . S
C2292 C2293 1.370 . S
C2292 C2294 1.363 . S
C2292 H2308 0.931 . S
C2293 C2292 1.370 . S
C2293 C2297 1.408 . S
C2294 C2292 1.363 . S
C2294 C2295 1.370 . S
C2294 C2298 1.524 . S
C2295 C2287 1.503 . S
C2295 C2294 1.370 . S
C2295 C2296 1.403 . S
C2296 C2295 1.403 . S
C2296 C2297 1.404 . S
C2296 C2299 1.539 . S
C2297 C2293 1.408 . S
C2297 C2296 1.404 . S
C2297 H2309 0.930 . S
C2298 C2294 1.524 . S
C2298 H2310 0.956 . S
C2298 H2311 0.961 . S
C2298 H2312 0.961 . S
C2299 C2296 1.539 . S
C2299 H2313 0.958 . S
C2299 H2314 0.961 . S
C2299 H2315 0.960 . S
H2300 C2284 0.931 . S
H2301 C2289 0.929 . S
H2302 C2290 0.960 . S
H2303 C2290 0.962 . S
H2304 C2290 0.960 . S
H2305 C2291 0.961 . S
H2306 C2291 0.961 . S
H2307 C2291 0.961 . S
H2308 C2292 0.931 . S
H2309 C2297 0.930 . S
H2310 C2298 0.956 . S
H2311 C2298 0.961 . S
H2312 C2298 0.961 . S
H2313 C2299 0.958 . S
H2314 C2299 0.961 . S
H2315 C2299 0.960 . S
C2316 C2317 1.391 . S
C2316 C2318 1.394 . S
C2316 H2332 0.931 . S
C2317 C2316 1.391 . S
C2317 C2321 1.376 . S
C2318 C2316 1.394 . S
C2318 C2319 1.369 . S
C2318 C2322 1.531 . S
C2319 C2318 1.369 . S
C2319 C2320 1.410 . S
C2319 C2327 1.503 . S
C2320 C2319 1.410 . S
C2320 C2321 1.392 . S
C2320 C2323 1.511 . S
C2321 C2317 1.376 . S
C2321 C2320 1.392 . S
C2321 H2333 0.929 . S
C2322 C2318 1.531 . S
C2322 H2334 0.960 . S
C2322 H2335 0.962 . S
C2322 H2336 0.960 . S
C2323 C2320 1.511 . S
C2323 H2337 0.961 . S
C2323 H2338 0.961 . S
C2323 H2339 0.961 . S
C2324 C2325 1.370 . S
C2324 C2326 1.363 . S
C2324 H2340 0.931 . S
C2325 C2324 1.370 . S
C2325 C2329 1.408 . S
C2326 C2324 1.363 . S
C2326 C2327 1.370 . S
C2326 C2330 1.524 . S
C2327 C2319 1.503 . S
C2327 C2326 1.370 . S
C2327 C2328 1.403 . S
C2328 C2327 1.403 . S
C2328 C2329 1.404 . S
C2328 C2331 1.539 . S
C2329 C2325 1.408 . S
C2329 C2328 1.404 . S
C2329 H2341 0.930 . S
C2330 C2326 1.524 . S
C2330 H2342 0.956 . S
C2330 H2343 0.961 . S
C2330 H2344 0.961 . S
C2331 C2328 1.539 . S
C2331 H2345 0.958 . S
C2331 H2346 0.961 . S
C2331 H2347 0.960 . S
H2332 C2316 0.931 . S
H2333 C2321 0.929 . S
H2334 C2322 0.960 . S
H2335 C2322 0.962 . S
H2336 C2322 0.960 . S
H2337 C2323 0.961 . S
H2338 C2323 0.961 . S
H2339 C2323 0.961 . S
H2340 C2324 0.931 . S
H2341 C2329 0.930 . S
H2342 C2330 0.956 . S
H2343 C2330 0.961 . S
H2344 C2330 0.961 . S
H2345 C2331 0.958 . S
H2346 C2331 0.961 . S
H2347 C2331 0.960 . S
C2348 C2349 1.391 . S
C2348 C2350 1.394 . S
C2348 H2364 0.931 . S
C2349 C2348 1.391 . S
C2349 C2353 1.376 . S
C2350 C2348 1.394 . S
C2350 C2351 1.369 . S
C2350 C2354 1.531 . S
C2351 C2350 1.369 . S
C2351 C2352 1.410 . S
C2351 C2359 1.503 . S
C2352 C2351 1.410 . S
C2352 C2353 1.392 . S
C2352 C2355 1.511 . S
C2353 C2349 1.376 . S
C2353 C2352 1.392 . S
C2353 H2365 0.929 . S
C2354 C2350 1.531 . S
C2354 H2366 0.960 . S
C2354 H2367 0.962 . S
C2354 H2368 0.960 . S
C2355 C2352 1.511 . S
C2355 H2369 0.961 . S
C2355 H2370 0.961 . S
C2355 H2371 0.961 . S
C2356 C2357 1.370 . S
C2356 C2358 1.363 . S
C2356 H2372 0.931 . S
C2357 C2356 1.370 . S
C2357 C2361 1.408 . S
C2358 C2356 1.363 . S
C2358 C2359 1.370 . S
C2358 C2362 1.524 . S
C2359 C2351 1.503 . S
C2359 C2358 1.370 . S
C2359 C2360 1.403 . S
C2360 C2359 1.403 . S
C2360 C2361 1.404 . S
C2360 C2363 1.539 . S
C2361 C2357 1.408 . S
C2361 C2360 1.404 . S
C2361 H2373 0.930 . S
C2362 C2358 1.524 . S
C2362 H2374 0.956 . S
C2362 H2375 0.961 . S
C2362 H2376 0.961 . S
C2363 C2360 1.539 . S
C2363 H2377 0.958 . S
C2363 H2378 0.961 . S
C2363 H2379 0.960 . S
H2364 C2348 0.931 . S
H2365 C2353 0.929 . S
H2366 C2354 0.960 . S
H2367 C2354 0.962 . S
H2368 C2354 0.960 . S
H2369 C2355 0.961 . S
H2370 C2355 0.961 . S
H2371 C2355 0.961 . S
H2372 C2356 0.931 . S
H2373 C2361 0.930 . S
H2374 C2362 0.956 . S
H2375 C2362 0.961 . S
H2376 C2362 0.961 . S
H2377 C2363 0.958 . S
H2378 C2363 0.961 . S
H2379 C2363 0.960 . S
C2380 C2381 1.391 . S
C2380 C2382 1.394 . S
C2380 H2396 0.931 . S
C2381 C2380 1.391 . S
C2381 C2385 1.376 . S
C2382 C2380 1.394 . S
C2382 C2383 1.369 . S
C2382 C2386 1.531 . S
C2383 C2382 1.369 . S
C2383 C2384 1.410 . S
C2383 C2391 1.503 . S
C2384 C2383 1.410 . S
C2384 C2385 1.392 . S
C2384 C2387 1.511 . S
C2385 C2381 1.376 . S
C2385 C2384 1.392 . S
C2385 H2397 0.929 . S
C2386 C2382 1.531 . S
C2386 H2398 0.960 . S
C2386 H2399 0.962 . S
C2386 H2400 0.960 . S
C2387 C2384 1.511 . S
C2387 H2401 0.961 . S
C2387 H2402 0.961 . S
C2387 H2403 0.961 . S
C2388 C2389 1.370 . S
C2388 C2390 1.363 . S
C2388 H2404 0.931 . S
C2389 C2388 1.370 . S
C2389 C2393 1.408 . S
C2390 C2388 1.363 . S
C2390 C2391 1.370 . S
C2390 C2394 1.524 . S
C2391 C2383 1.503 . S
C2391 C2390 1.370 . S
C2391 C2392 1.403 . S
C2392 C2391 1.403 . S
C2392 C2393 1.404 . S
C2392 C2395 1.539 . S
C2393 C2389 1.408 . S
C2393 C2392 1.404 . S
C2393 H2405 0.930 . S
C2394 C2390 1.524 . S
C2394 H2406 0.956 . S
C2394 H2407 0.961 . S
C2394 H2408 0.961 . S
C2395 C2392 1.539 . S
C2395 H2409 0.958 . S
C2395 H2410 0.961 . S
C2395 H2411 0.960 . S
H2396 C2380 0.931 . S
H2397 C2385 0.929 . S
H2398 C2386 0.960 . S
H2399 C2386 0.962 . S
H2400 C2386 0.960 . S
H2401 C2387 0.961 . S
H2402 C2387 0.961 . S
H2403 C2387 0.961 . S
H2404 C2388 0.931 . S
H2405 C2393 0.930 . S
H2406 C2394 0.956 . S
H2407 C2394 0.961 . S
H2408 C2394 0.961 . S
H2409 C2395 0.958 . S
H2410 C2395 0.961 . S
H2411 C2395 0.960 . S
C2412 C2413 1.391 . S
C2412 C2414 1.394 . S
C2412 H2428 0.931 . S
C2413 C2412 1.391 . S
C2413 C2417 1.376 . S
C2414 C2412 1.394 . S
C2414 C2415 1.369 . S
C2414 C2418 1.531 . S
C2415 C2414 1.369 . S
C2415 C2416 1.410 . S
C2415 C2423 1.503 . S
C2416 C2415 1.410 . S
C2416 C2417 1.392 . S
C2416 C2419 1.511 . S
C2417 C2413 1.376 . S
C2417 C2416 1.392 . S
C2417 H2429 0.929 . S
C2418 C2414 1.531 . S
C2418 H2430 0.960 . S
C2418 H2431 0.962 . S
C2418 H2432 0.960 . S
C2419 C2416 1.511 . S
C2419 H2433 0.961 . S
C2419 H2434 0.961 . S
C2419 H2435 0.961 . S
C2420 C2421 1.370 . S
C2420 C2422 1.363 . S
C2420 H2436 0.931 . S
C2421 C2420 1.370 . S
C2421 C2425 1.408 . S
C2422 C2420 1.363 . S
C2422 C2423 1.370 . S
C2422 C2426 1.524 . S
C2423 C2415 1.503 . S
C2423 C2422 1.370 . S
C2423 C2424 1.403 . S
C2424 C2423 1.403 . S
C2424 C2425 1.404 . S
C2424 C2427 1.539 . S
C2425 C2421 1.408 . S
C2425 C2424 1.404 . S
C2425 H2437 0.930 . S
C2426 C2422 1.524 . S
C2426 H2438 0.956 . S
C2426 H2439 0.961 . S
C2426 H2440 0.961 . S
C2427 C2424 1.539 . S
C2427 H2441 0.958 . S
C2427 H2442 0.961 . S
C2427 H2443 0.960 . S
H2428 C2412 0.931 . S
H2429 C2417 0.929 . S
H2430 C2418 0.960 . S
H2431 C2418 0.962 . S
H2432 C2418 0.960 . S
H2433 C2419 0.961 . S
H2434 C2419 0.961 . S
H2435 C2419 0.961 . S
H2436 C2420 0.931 . S
H2437 C2425 0.930 . S
H2438 C2426 0.956 . S
H2439 C2426 0.961 . S
H2440 C2426 0.961 . S
H2441 C2427 0.958 . S
H2442 C2427 0.961 . S
H2443 C2427 0.960 . S
C2444 C2445 1.391 . S
C2444 C2446 1.394 . S
C2444 H2460 0.931 . S
C2445 C2444 1.391 . S
C2445 C2449 1.376 . S
C2446 C2444 1.394 . S
C2446 C2447 1.369 . S
C2446 C2450 1.531 . S
C2447 C2446 1.369 . S
C2447 C2448 1.410 . S
C2447 C2455 1.503 . S
C2448 C2447 1.410 . S
C2448 C2449 1.392 . S
C2448 C2451 1.511 . S
C2449 C2445 1.376 . S
C2449 C2448 1.392 . S
C2449 H2461 0.929 . S
C2450 C2446 1.531 . S
C2450 H2462 0.960 . S
C2450 H2463 0.962 . S
C2450 H2464 0.960 . S
C2451 C2448 1.511 . S
C2451 H2465 0.961 . S
C2451 H2466 0.961 . S
C2451 H2467 0.961 . S
C2452 C2453 1.370 . S
C2452 C2454 1.363 . S
C2452 H2468 0.931 . S
C2453 C2452 1.370 . S
C2453 C2457 1.408 . S
C2454 C2452 1.363 . S
C2454 C2455 1.370 . S
C2454 C2458 1.524 . S
C2455 C2447 1.503 . S
C2455 C2454 1.370 . S
C2455 C2456 1.403 . S
C2456 C2455 1.403 . S
C2456 C2457 1.404 . S
C2456 C2459 1.539 . S
C2457 C2453 1.408 . S
C2457 C2456 1.404 . S
C2457 H2469 0.930 . S
C2458 C2454 1.524 . S
C2458 H2470 0.956 . S
C2458 H2471 0.961 . S
C2458 H2472 0.961 . S
C2459 C2456 1.539 . S
C2459 H2473 0.958 . S
C2459 H2474 0.961 . S
C2459 H2475 0.960 . S
H2460 C2444 0.931 . S
H2461 C2449 0.929 . S
H2462 C2450 0.960 . S
H2463 C2450 0.962 . S
H2464 C2450 0.960 . S
H2465 C2451 0.961 . S
H2466 C2451 0.961 . S
H2467 C2451 0.961 . S
H2468 C2452 0.931 . S
H2469 C2457 0.930 . S
H2470 C2458 0.956 . S
H2471 C2458 0.961 . S
H2472 C2458 0.961 . S
H2473 C2459 0.958 . S
H2474 C2459 0.961 . S
H2475 C2459 0.960 . S
C2476 C2477 1.391 . S
C2476 C2478 1.394 . S
C2476 H2492 0.931 . S
C2477 C2476 1.391 . S
C2477 C2481 1.376 . S
C2478 C2476 1.394 . S
C2478 C2479 1.369 . S
C2478 C2482 1.531 . S
C2479 C2478 1.369 . S
C2479 C2480 1.410 . S
C2479 C2487 1.503 . S
C2480 C2479 1.410 . S
C2480 C2481 1.392 . S
C2480 C2483 1.511 . S
C2481 C2477 1.376 . S
C2481 C2480 1.392 . S
C2481 H2493 0.929 . S
C2482 C2478 1.531 . S
C2482 H2494 0.960 . S
C2482 H2495 0.962 . S
C2482 H2496 0.960 . S
C2483 C2480 1.511 . S
C2483 H2497 0.961 . S
C2483 H2498 0.961 . S
C2483 H2499 0.961 . S
C2484 C2485 1.370 . S
C2484 C2486 1.363 . S
C2484 H2500 0.931 . S
C2485 C2484 1.370 . S
C2485 C2489 1.408 . S
C2486 C2484 1.363 . S
C2486 C2487 1.370 . S
C2486 C2490 1.524 . S
C2487 C2479 1.503 . S
C2487 C2486 1.370 . S
C2487 C2488 1.403 . S
C2488 C2487 1.403 . S
C2488 C2489 1.404 . S
C2488 C2491 1.539 . S
C2489 C2485 1.408 . S
C2489 C2488 1.404 . S
C2489 H2501 0.930 . S
C2490 C2486 1.524 . S
C2490 H2502 0.956 . S
C2490 H2503 0.961 . S
C2490 H2504 0.961 . S
C2491 C2488 1.539 . S
C2491 H2505 0.958 . S
C2491 H2506 0.961 . S
C2491 H2507 0.960 . S
H2492 C2476 0.931 . S
H2493 C2481 0.929 . S
H2494 C2482 0.960 . S
H2495 C2482 0.962 . S
H2496 C2482 0.960 . S
H2497 C2483 0.961 . S
H2498 C2483 0.961 . S
H2499 C2483 0.961 . S
H2500 C2484 0.931 . S
H2501 C2489 0.930 . S
H2502 C2490 0.956 . S
H2503 C2490 0.961 . S
H2504 C2490 0.961 . S
H2505 C2491 0.958 . S
H2506 C2491 0.961 . S
H2507 C2491 0.960 . S
C2508 C2509 1.391 1_565 S
C2508 C2510 1.394 . S
C2508 H2524 0.931 . S
C2509 C2508 1.391 1_545 S
C2509 C2513 1.376 . S
C2510 C2508 1.394 . S
C2510 C2511 1.369 . S
C2510 C2514 1.531 . S
C2511 C2510 1.369 . S
C2511 C2512 1.410 . S
C2511 C2519 1.503 . S
C2512 C2511 1.410 . S
C2512 C2513 1.392 1_565 S
C2512 C2515 1.511 . S
C2513 C2509 1.376 . S
C2513 C2512 1.392 1_545 S
C2513 H2525 0.929 . S
C2514 C2510 1.531 . S
C2514 H2526 0.960 . S
C2514 H2527 0.962 . S
C2514 H2528 0.960 . S
C2515 C2512 1.511 . S
C2515 H2529 0.963 1_565 S
C2515 H2530 0.961 . S
C2515 H2531 0.961 . S
C2516 C2517 1.370 . S
C2516 C2518 1.363 . S
C2516 H2532 0.931 . S
C2517 C2516 1.370 . S
C2517 C2521 1.408 . S
C2518 C2516 1.363 . S
C2518 C2519 1.370 . S
C2518 C2522 1.524 . S
C2519 C2511 1.503 . S
C2519 C2518 1.370 . S
C2519 C2520 1.403 . S
C2520 C2519 1.403 . S
C2520 C2521 1.404 . S
C2520 C2523 1.539 . S
C2521 C2517 1.408 . S
C2521 C2520 1.404 . S
C2521 H2533 0.930 . S
C2522 C2518 1.524 . S
C2522 H2534 0.956 . S
C2522 H2535 0.961 . S
C2522 H2536 0.961 . S
C2523 C2520 1.539 . S
C2523 H2537 0.958 . S
C2523 H2538 0.961 . S
C2523 H2539 0.960 . S
H2524 C2508 0.931 . S
H2525 C2513 0.929 . S
H2526 C2514 0.960 . S
H2527 C2514 0.962 . S
H2528 C2514 0.960 . S
H2529 C2515 0.963 1_545 S
H2530 C2515 0.961 . S
H2531 C2515 0.961 . S
H2532 C2516 0.931 . S
H2533 C2521 0.930 . S
H2534 C2522 0.956 . S
H2535 C2522 0.961 . S
H2536 C2522 0.961 . S
H2537 C2523 0.958 . S
H2538 C2523 0.961 . S
H2539 C2523 0.960 . S
C2540 C2541 1.391 1_455 S
C2540 C2542 1.394 . S
C2540 H2556 0.931 . S
C2541 C2540 1.391 1_655 S
C2541 C2545 1.376 . S
C2542 C2540 1.394 . S
C2542 C2543 1.369 . S
C2542 C2546 1.531 . S
C2543 C2542 1.369 . S
C2543 C2544 1.410 . S
C2543 C2551 1.503 . S
C2544 C2543 1.410 . S
C2544 C2545 1.392 1_455 S
C2544 C2547 1.511 . S
C2545 C2541 1.376 . S
C2545 C2544 1.392 1_655 S
C2545 H2557 0.929 . S
C2546 C2542 1.531 . S
C2546 H2558 0.960 . S
C2546 H2559 0.962 . S
C2546 H2560 0.960 . S
C2547 C2544 1.511 . S
C2547 H2561 0.961 . S
C2547 H2562 0.961 . S
C2547 H2563 0.961 . S
C2548 C2549 1.370 . S
C2548 C2550 1.363 . S
C2548 H2564 0.931 . S
C2549 C2548 1.370 . S
C2549 C2553 1.408 . S
C2550 C2548 1.363 . S
C2550 C2551 1.370 . S
C2550 C2554 1.524 . S
C2551 C2543 1.503 . S
C2551 C2550 1.370 . S
C2551 C2552 1.403 . S
C2552 C2551 1.403 . S
C2552 C2553 1.404 . S
C2552 C2555 1.539 . S
C2553 C2549 1.408 . S
C2553 C2552 1.404 . S
C2553 H2565 0.930 . S
C2554 C2550 1.524 . S
C2554 H2566 0.956 . S
C2554 H2567 0.961 . S
C2554 H2568 0.961 . S
C2555 C2552 1.539 . S
C2555 H2569 0.958 . S
C2555 H2570 0.961 . S
C2555 H2571 0.960 . S
H2556 C2540 0.931 . S
H2557 C2545 0.929 . S
H2558 C2546 0.960 . S
H2559 C2546 0.962 . S
H2560 C2546 0.960 . S
H2561 C2547 0.961 . S
H2562 C2547 0.961 . S
H2563 C2547 0.961 . S
H2564 C2548 0.931 . S
H2565 C2553 0.930 . S
H2566 C2554 0.956 . S
H2567 C2554 0.961 . S
H2568 C2554 0.961 . S
H2569 C2555 0.958 . S
H2570 C2555 0.961 . S
H2571 C2555 0.960 . S
C2572 C2573 1.391 . S
C2572 C2574 1.394 . S
C2572 H2588 0.931 . S
C2573 C2572 1.391 . S
C2573 C2577 1.376 . S
C2574 C2572 1.394 . S
C2574 C2575 1.369 . S
C2574 C2578 1.531 . S
C2575 C2574 1.369 . S
C2575 C2576 1.410 . S
C2575 C2583 1.503 . S
C2576 C2575 1.410 . S
C2576 C2577 1.392 . S
C2576 C2579 1.511 . S
C2577 C2573 1.376 . S
C2577 C2576 1.392 . S
C2577 H2589 0.929 . S
C2578 C2574 1.531 . S
C2578 H2590 0.960 . S
C2578 H2591 0.962 . S
C2578 H2592 0.960 . S
C2579 C2576 1.511 . S
C2579 H2593 0.961 . S
C2579 H2594 0.961 . S
C2579 H2595 0.961 . S
C2580 C2581 1.370 . S
C2580 C2582 1.363 . S
C2580 H2596 0.931 . S
C2581 C2580 1.370 . S
C2581 C2585 1.408 . S
C2582 C2580 1.363 . S
C2582 C2583 1.370 . S
C2582 C2586 1.524 . S
C2583 C2575 1.503 . S
C2583 C2582 1.370 . S
C2583 C2584 1.403 . S
C2584 C2583 1.403 . S
C2584 C2585 1.404 . S
C2584 C2587 1.539 . S
C2585 C2581 1.408 . S
C2585 C2584 1.404 . S
C2585 H2597 0.930 . S
C2586 C2582 1.524 . S
C2586 H2598 0.956 . S
C2586 H2599 0.961 . S
C2586 H2600 0.961 . S
C2587 C2584 1.539 . S
C2587 H2601 0.958 . S
C2587 H2602 0.961 . S
C2587 H2603 0.960 . S
H2588 C2572 0.931 . S
H2589 C2577 0.929 . S
H2590 C2578 0.960 . S
H2591 C2578 0.962 . S
H2592 C2578 0.960 . S
H2593 C2579 0.961 . S
H2594 C2579 0.961 . S
H2595 C2579 0.961 . S
H2596 C2580 0.931 . S
H2597 C2585 0.930 . S
H2598 C2586 0.956 . S
H2599 C2586 0.961 . S
H2600 C2586 0.961 . S
H2601 C2587 0.958 . S
H2602 C2587 0.961 . S
H2603 C2587 0.960 . S
C2604 C2605 1.391 . S
C2604 C2606 1.394 . S
C2604 H2620 0.931 . S
C2605 C2604 1.391 . S
C2605 C2609 1.376 . S
C2606 C2604 1.394 . S
C2606 C2607 1.369 . S
C2606 C2610 1.531 . S
C2607 C2606 1.369 . S
C2607 C2608 1.410 . S
C2607 C2615 1.503 . S
C2608 C2607 1.410 . S
C2608 C2609 1.392 . S
C2608 C2611 1.511 . S
C2609 C2605 1.376 . S
C2609 C2608 1.392 . S
C2609 H2621 0.929 . S
C2610 C2606 1.531 . S
C2610 H2622 0.960 . S
C2610 H2623 0.962 . S
C2610 H2624 0.960 . S
C2611 C2608 1.511 . S
C2611 H2625 0.961 . S
C2611 H2626 0.961 . S
C2611 H2627 0.961 . S
C2612 C2613 1.370 . S
C2612 C2614 1.363 . S
C2612 H2628 0.931 . S
C2613 C2612 1.370 . S
C2613 C2617 1.408 . S
C2614 C2612 1.363 . S
C2614 C2615 1.370 . S
C2614 C2618 1.524 . S
C2615 C2607 1.503 . S
C2615 C2614 1.370 . S
C2615 C2616 1.403 . S
C2616 C2615 1.403 . S
C2616 C2617 1.404 . S
C2616 C2619 1.539 . S
C2617 C2613 1.408 . S
C2617 C2616 1.404 . S
C2617 H2629 0.930 . S
C2618 C2614 1.524 . S
C2618 H2630 0.956 . S
C2618 H2631 0.961 . S
C2618 H2632 0.961 . S
C2619 C2616 1.539 . S
C2619 H2633 0.958 . S
C2619 H2634 0.961 . S
C2619 H2635 0.960 . S
H2620 C2604 0.931 . S
H2621 C2609 0.929 . S
H2622 C2610 0.960 . S
H2623 C2610 0.962 . S
H2624 C2610 0.960 . S
H2625 C2611 0.961 . S
H2626 C2611 0.961 . S
H2627 C2611 0.961 . S
H2628 C2612 0.931 . S
H2629 C2617 0.930 . S
H2630 C2618 0.956 . S
H2631 C2618 0.961 . S
H2632 C2618 0.961 . S
H2633 C2619 0.958 . S
H2634 C2619 0.961 . S
H2635 C2619 0.960 . S
C2636 C2637 1.391 . S
C2636 C2638 1.394 . S
C2636 H2652 0.931 . S
C2637 C2636 1.391 . S
C2637 C2641 1.376 . S
C2638 C2636 1.394 . S
C2638 C2639 1.369 . S
C2638 C2642 1.531 . S
C2639 C2638 1.369 . S
C2639 C2640 1.410 . S
C2639 C2647 1.503 . S
C2640 C2639 1.410 . S
C2640 C2641 1.392 . S
C2640 C2643 1.511 . S
C2641 C2637 1.376 . S
C2641 C2640 1.392 . S
C2641 H2653 0.929 . S
C2642 C2638 1.531 . S
C2642 H2654 0.960 . S
C2642 H2655 0.962 . S
C2642 H2656 0.960 . S
C2643 C2640 1.511 . S
C2643 H2657 0.961 . S
C2643 H2658 0.961 . S
C2643 H2659 0.961 . S
C2644 C2645 1.370 . S
C2644 C2646 1.363 . S
C2644 H2660 0.931 . S
C2645 C2644 1.370 . S
C2645 C2649 1.408 . S
C2646 C2644 1.363 . S
C2646 C2647 1.370 . S
C2646 C2650 1.524 . S
C2647 C2639 1.503 . S
C2647 C2646 1.370 . S
C2647 C2648 1.403 . S
C2648 C2647 1.403 . S
C2648 C2649 1.404 . S
C2648 C2651 1.539 . S
C2649 C2645 1.408 . S
C2649 C2648 1.404 . S
C2649 H2661 0.930 . S
C2650 C2646 1.524 . S
C2650 H2662 0.956 . S
C2650 H2663 0.961 . S
C2650 H2664 0.961 . S
C2651 C2648 1.539 . S
C2651 H2665 0.958 . S
C2651 H2666 0.961 . S
C2651 H2667 0.960 . S
H2652 C2636 0.931 . S
H2653 C2641 0.929 . S
H2654 C2642 0.960 . S
H2655 C2642 0.962 . S
H2656 C2642 0.960 . S
H2657 C2643 0.961 . S
H2658 C2643 0.961 . S
H2659 C2643 0.961 . S
H2660 C2644 0.931 . S
H2661 C2649 0.930 . S
H2662 C2650 0.956 . S
H2663 C2650 0.961 . S
H2664 C2650 0.961 . S
H2665 C2651 0.958 . S
H2666 C2651 0.961 . S
H2667 C2651 0.960 . S
C2668 C2669 1.391 . S
C2668 C2670 1.394 . S
C2668 H2684 0.931 . S
C2669 C2668 1.391 . S
C2669 C2673 1.376 . S
C2670 C2668 1.394 . S
C2670 C2671 1.369 . S
C2670 C2674 1.531 . S
C2671 C2670 1.369 . S
C2671 C2672 1.410 . S
C2671 C2679 1.503 . S
C2672 C2671 1.410 . S
C2672 C2673 1.392 . S
C2672 C2675 1.511 . S
C2673 C2669 1.376 . S
C2673 C2672 1.392 . S
C2673 H2685 0.929 . S
C2674 C2670 1.531 . S
C2674 H2686 0.960 . S
C2674 H2687 0.962 . S
C2674 H2688 0.960 . S
C2675 C2672 1.511 . S
C2675 H2689 0.961 . S
C2675 H2690 0.961 . S
C2675 H2691 0.961 . S
C2676 C2677 1.370 . S
C2676 C2678 1.363 . S
C2676 H2692 0.931 . S
C2677 C2676 1.370 . S
C2677 C2681 1.408 . S
C2678 C2676 1.363 . S
C2678 C2679 1.370 . S
C2678 C2682 1.524 . S
C2679 C2671 1.503 . S
C2679 C2678 1.370 . S
C2679 C2680 1.403 . S
C2680 C2679 1.403 . S
C2680 C2681 1.404 . S
C2680 C2683 1.539 . S
C2681 C2677 1.408 . S
C2681 C2680 1.404 . S
C2681 H2693 0.930 . S
C2682 C2678 1.524 . S
C2682 H2694 0.956 . S
C2682 H2695 0.961 . S
C2682 H2696 0.961 . S
C2683 C2680 1.539 . S
C2683 H2697 0.958 . S
C2683 H2698 0.961 . S
C2683 H2699 0.960 . S
H2684 C2668 0.931 . S
H2685 C2673 0.929 . S
H2686 C2674 0.960 . S
H2687 C2674 0.962 . S
H2688 C2674 0.960 . S
H2689 C2675 0.961 . S
H2690 C2675 0.961 . S
H2691 C2675 0.961 . S
H2692 C2676 0.931 . S
H2693 C2681 0.930 . S
H2694 C2682 0.956 . S
H2695 C2682 0.961 . S
H2696 C2682 0.961 . S
H2697 C2683 0.958 . S
H2698 C2683 0.961 . S
H2699 C2683 0.960 . S
C2700 C2701 1.391 . S
C2700 C2702 1.394 1_565 S
C2700 H2716 0.931 . S
C2701 C2700 1.391 . S
C2701 C2705 1.376 1_565 S
C2702 C2700 1.394 1_545 S
C2702 C2703 1.369 . S
C2702 C2706 1.531 . S
C2703 C2702 1.369 . S
C2703 C2704 1.410 . S
C2703 C2711 1.503 . S
C2704 C2703 1.410 . S
C2704 C2705 1.392 . S
C2704 C2707 1.511 . S
C2705 C2701 1.376 1_545 S
C2705 C2704 1.392 . S
C2705 H2717 0.929 . S
C2706 C2702 1.531 . S
C2706 H2718 0.960 . S
C2706 H2719 0.962 . S
C2706 H2720 0.960 . S
C2707 C2704 1.511 . S
C2707 H2721 0.961 . S
C2707 H2722 0.961 . S
C2707 H2723 0.961 . S
C2708 C2709 1.370 . S
C2708 C2710 1.363 . S
C2708 H2724 0.931 . S
C2709 C2708 1.370 . S
C2709 C2713 1.408 . S
C2710 C2708 1.363 . S
C2710 C2711 1.370 . S
C2710 C2714 1.524 . S
C2711 C2703 1.503 . S
C2711 C2710 1.370 . S
C2711 C2712 1.403 . S
C2712 C2711 1.403 . S
C2712 C2713 1.404 . S
C2712 C2715 1.539 . S
C2713 C2709 1.408 . S
C2713 C2712 1.404 . S
C2713 H2725 0.930 . S
C2714 C2710 1.524 . S
C2714 H2726 0.956 . S
C2714 H2727 0.961 . S
C2714 H2728 0.961 . S
C2715 C2712 1.539 . S
C2715 H2729 0.958 . S
C2715 H2730 0.961 . S
C2715 H2731 0.960 . S
H2716 C2700 0.931 . S
H2717 C2705 0.929 . S
H2718 C2706 0.960 . S
H2719 C2706 0.962 . S
H2720 C2706 0.960 . S
H2721 C2707 0.961 . S
H2722 C2707 0.961 . S
H2723 C2707 0.961 . S
H2724 C2708 0.931 . S
H2725 C2713 0.930 . S
H2726 C2714 0.956 . S
H2727 C2714 0.961 . S
H2728 C2714 0.961 . S
H2729 C2715 0.958 . S
H2730 C2715 0.961 . S
H2731 C2715 0.960 . S
C2732 C2733 1.391 1_655 S
C2732 C2734 1.394 . S
C2732 H2748 0.931 . S
C2733 C2732 1.391 1_455 S
C2733 C2737 1.376 . S
C2734 C2732 1.394 . S
C2734 C2735 1.369 . S
C2734 C2738 1.531 . S
C2735 C2734 1.369 . S
C2735 C2736 1.410 . S
C2735 C2743 1.503 . S
C2736 C2735 1.410 . S
C2736 C2737 1.392 1_655 S
C2736 C2739 1.511 . S
C2737 C2733 1.376 . S
C2737 C2736 1.392 1_455 S
C2737 H2749 0.929 . S
C2738 C2734 1.531 . S
C2738 H2750 0.960 . S
C2738 H2751 0.962 . S
C2738 H2752 0.960 . S
C2739 C2736 1.511 . S
C2739 H2753 0.961 . S
C2739 H2754 0.961 . S
C2739 H2755 0.961 . S
C2740 C2741 1.370 . S
C2740 C2742 1.363 . S
C2740 H2756 0.931 . S
C2741 C2740 1.370 . S
C2741 C2745 1.408 . S
C2742 C2740 1.363 . S
C2742 C2743 1.370 . S
C2742 C2746 1.524 . S
C2743 C2735 1.503 . S
C2743 C2742 1.370 . S
C2743 C2744 1.403 . S
C2744 C2743 1.403 . S
C2744 C2745 1.404 . S
C2744 C2747 1.539 . S
C2745 C2741 1.408 . S
C2745 C2744 1.404 . S
C2745 H2757 0.930 . S
C2746 C2742 1.524 . S
C2746 H2758 0.956 . S
C2746 H2759 0.961 . S
C2746 H2760 0.961 . S
C2747 C2744 1.539 . S
C2747 H2761 0.958 . S
C2747 H2762 0.961 . S
C2747 H2763 0.960 . S
H2748 C2732 0.931 . S
H2749 C2737 0.929 . S
H2750 C2738 0.960 . S
H2751 C2738 0.962 . S
H2752 C2738 0.960 . S
H2753 C2739 0.961 . S
H2754 C2739 0.961 . S
H2755 C2739 0.961 . S
H2756 C2740 0.931 . S
H2757 C2745 0.930 . S
H2758 C2746 0.956 . S
H2759 C2746 0.961 . S
H2760 C2746 0.961 . S
H2761 C2747 0.958 . S
H2762 C2747 0.961 . S
H2763 C2747 0.960 . S
C2764 C2765 1.391 . S
C2764 C2766 1.394 . S
C2764 H2780 0.931 . S
C2765 C2764 1.391 . S
C2765 C2769 1.376 . S
C2766 C2764 1.394 . S
C2766 C2767 1.369 . S
C2766 C2770 1.531 . S
C2767 C2766 1.369 . S
C2767 C2768 1.410 . S
C2767 C2775 1.503 . S
C2768 C2767 1.410 . S
C2768 C2769 1.392 . S
C2768 C2771 1.511 . S
C2769 C2765 1.376 . S
C2769 C2768 1.392 . S
C2769 H2781 0.929 . S
C2770 C2766 1.531 . S
C2770 H2782 0.960 . S
C2770 H2783 0.962 . S
C2770 H2784 0.960 . S
C2771 C2768 1.511 . S
C2771 H2785 0.961 . S
C2771 H2786 0.961 . S
C2771 H2787 0.961 . S
C2772 C2773 1.370 . S
C2772 C2774 1.363 . S
C2772 H2788 0.931 . S
C2773 C2772 1.370 . S
C2773 C2777 1.408 . S
C2774 C2772 1.363 . S
C2774 C2775 1.370 . S
C2774 C2778 1.524 . S
C2775 C2767 1.503 . S
C2775 C2774 1.370 . S
C2775 C2776 1.403 . S
C2776 C2775 1.403 . S
C2776 C2777 1.404 . S
C2776 C2779 1.539 . S
C2777 C2773 1.408 . S
C2777 C2776 1.404 . S
C2777 H2789 0.930 . S
C2778 C2774 1.524 . S
C2778 H2790 0.956 . S
C2778 H2791 0.961 . S
C2778 H2792 0.961 . S
C2779 C2776 1.539 . S
C2779 H2793 0.958 . S
C2779 H2794 0.961 . S
C2779 H2795 0.960 . S
H2780 C2764 0.931 . S
H2781 C2769 0.929 . S
H2782 C2770 0.960 . S
H2783 C2770 0.962 . S
H2784 C2770 0.960 . S
H2785 C2771 0.961 . S
H2786 C2771 0.961 . S
H2787 C2771 0.961 . S
H2788 C2772 0.931 . S
H2789 C2777 0.930 . S
H2790 C2778 0.956 . S
H2791 C2778 0.961 . S
H2792 C2778 0.961 . S
H2793 C2779 0.958 . S
H2794 C2779 0.961 . S
H2795 C2779 0.960 . S
C2796 C2797 1.391 . S
C2796 C2798 1.394 1_455 S
C2796 H2812 0.931 . S
C2797 C2796 1.391 . S
C2797 C2801 1.376 1_455 S
C2798 C2796 1.394 1_655 S
C2798 C2799 1.369 . S
C2798 C2802 1.531 . S
C2799 C2798 1.369 . S
C2799 C2800 1.410 . S
C2799 C2807 1.503 . S
C2800 C2799 1.410 . S
C2800 C2801 1.392 . S
C2800 C2803 1.511 . S
C2801 C2797 1.376 1_655 S
C2801 C2800 1.392 . S
C2801 H2813 0.929 1_655 S
C2802 C2798 1.531 . S
C2802 H2814 0.960 . S
C2802 H2815 0.962 . S
C2802 H2816 0.960 . S
C2803 C2800 1.511 . S
C2803 H2817 0.961 . S
C2803 H2818 0.961 . S
C2803 H2819 0.961 . S
C2804 C2805 1.370 . S
C2804 C2806 1.363 . S
C2804 H2820 0.931 . S
C2805 C2804 1.370 . S
C2805 C2809 1.408 . S
C2806 C2804 1.363 . S
C2806 C2807 1.370 . S
C2806 C2810 1.524 . S
C2807 C2799 1.503 . S
C2807 C2806 1.370 . S
C2807 C2808 1.403 . S
C2808 C2807 1.403 . S
C2808 C2809 1.404 . S
C2808 C2811 1.539 . S
C2809 C2805 1.408 . S
C2809 C2808 1.404 . S
C2809 H2821 0.930 . S
C2810 C2806 1.524 . S
C2810 H2822 0.956 . S
C2810 H2823 0.961 . S
C2810 H2824 0.961 . S
C2811 C2808 1.539 . S
C2811 H2825 0.958 . S
C2811 H2826 0.961 . S
C2811 H2827 0.960 . S
H2812 C2796 0.931 . S
H2813 C2801 0.929 1_455 S
H2814 C2802 0.960 . S
H2815 C2802 0.962 . S
H2816 C2802 0.960 . S
H2817 C2803 0.961 . S
H2818 C2803 0.961 . S
H2819 C2803 0.961 . S
H2820 C2804 0.931 . S
H2821 C2809 0.930 . S
H2822 C2810 0.956 . S
H2823 C2810 0.961 . S
H2824 C2810 0.961 . S
H2825 C2811 0.958 . S
H2826 C2811 0.961 . S
H2827 C2811 0.960 . S
C2828 C2829 1.391 . S
C2828 C2830 1.394 . S
C2828 H2844 0.931 . S
C2829 C2828 1.391 . S
C2829 C2833 1.376 . S
C2830 C2828 1.394 . S
C2830 C2831 1.369 . S
C2830 C2834 1.531 . S
C2831 C2830 1.369 . S
C2831 C2832 1.410 . S
C2831 C2839 1.503 . S
C2832 C2831 1.410 . S
C2832 C2833 1.392 . S
C2832 C2835 1.511 . S
C2833 C2829 1.376 . S
C2833 C2832 1.392 . S
C2833 H2845 0.929 . S
C2834 C2830 1.531 . S
C2834 H2846 0.960 . S
C2834 H2847 0.962 . S
C2834 H2848 0.960 . S
C2835 C2832 1.511 . S
C2835 H2849 0.961 . S
C2835 H2850 0.961 . S
C2835 H2851 0.961 . S
C2836 C2837 1.370 . S
C2836 C2838 1.363 . S
C2836 H2852 0.931 . S
C2837 C2836 1.370 . S
C2837 C2841 1.408 . S
C2838 C2836 1.363 . S
C2838 C2839 1.370 . S
C2838 C2842 1.524 . S
C2839 C2831 1.503 . S
C2839 C2838 1.370 . S
C2839 C2840 1.403 . S
C2840 C2839 1.403 . S
C2840 C2841 1.404 . S
C2840 C2843 1.539 . S
C2841 C2837 1.408 . S
C2841 C2840 1.404 . S
C2841 H2853 0.930 . S
C2842 C2838 1.524 . S
C2842 H2854 0.956 . S
C2842 H2855 0.961 . S
C2842 H2856 0.961 . S
C2843 C2840 1.539 . S
C2843 H2857 0.958 . S
C2843 H2858 0.961 . S
C2843 H2859 0.960 . S
H2844 C2828 0.931 . S
H2845 C2833 0.929 . S
H2846 C2834 0.960 . S
H2847 C2834 0.962 . S
H2848 C2834 0.960 . S
H2849 C2835 0.961 . S
H2850 C2835 0.961 . S
H2851 C2835 0.961 . S
H2852 C2836 0.931 . S
H2853 C2841 0.930 . S
H2854 C2842 0.956 . S
H2855 C2842 0.961 . S
H2856 C2842 0.961 . S
H2857 C2843 0.958 . S
H2858 C2843 0.961 . S
H2859 C2843 0.960 . S
C2860 C2861 1.391 . S
C2860 C2862 1.394 1_565 S
C2860 H2876 0.931 . S
C2861 C2860 1.391 . S
C2861 C2865 1.357 1_565 S
C2862 C2860 1.394 1_545 S
C2862 C2863 1.369 . S
C2862 C2866 1.531 . S
C2863 C2862 1.369 . S
C2863 C2864 1.410 . S
C2863 C2871 1.503 . S
C2864 C2863 1.410 . S
C2864 C2865 1.421 . S
C2864 C2867 1.511 . S
C2865 C2861 1.357 1_545 S
C2865 C2864 1.421 . S
C2865 H2877 0.920 1_545 S
C2866 C2862 1.531 . S
C2866 H2878 0.960 . S
C2866 H2879 0.962 . S
C2866 H2880 0.922 1_545 S
C2867 C2864 1.511 . S
C2867 H2881 0.961 . S
C2867 H2882 0.961 . S
C2867 H2883 0.961 . S
C2868 C2869 1.370 . S
C2868 C2870 1.363 . S
C2868 H2884 0.931 . S
C2869 C2868 1.370 . S
C2869 C2873 1.408 . S
C2870 C2868 1.363 . S
C2870 C2871 1.370 . S
C2870 C2874 1.524 . S
C2871 C2863 1.503 . S
C2871 C2870 1.370 . S
C2871 C2872 1.403 . S
C2872 C2871 1.403 . S
C2872 C2873 1.404 . S
C2872 C2875 1.539 . S
C2873 C2869 1.408 . S
C2873 C2872 1.404 . S
C2873 H2885 0.930 . S
C2874 C2870 1.524 . S
C2874 H2886 0.956 . S
C2874 H2887 0.961 . S
C2874 H2888 0.961 . S
C2875 C2872 1.539 . S
C2875 H2889 0.958 . S
C2875 H2890 0.961 . S
C2875 H2891 0.960 . S
H2876 C2860 0.931 . S
H2877 C2865 0.920 1_565 S
H2878 C2866 0.960 . S
H2879 C2866 0.962 . S
H2880 C2866 0.922 1_565 S
H2881 C2867 0.961 . S
H2882 C2867 0.961 . S
H2883 C2867 0.961 . S
H2884 C2868 0.931 . S
H2885 C2873 0.930 . S
H2886 C2874 0.956 . S
H2887 C2874 0.961 . S
H2888 C2874 0.961 . S
H2889 C2875 0.958 . S
H2890 C2875 0.961 . S
H2891 C2875 0.960 . S
C2892 C2893 1.391 . S
C2892 C2894 1.394 . S
C2892 H2908 0.931 . S
C2893 C2892 1.391 . S
C2893 C2897 1.376 . S
C2894 C2892 1.394 . S
C2894 C2895 1.369 . S
C2894 C2898 1.531 . S
C2895 C2894 1.369 . S
C2895 C2896 1.410 . S
C2895 C2903 1.503 . S
C2896 C2895 1.410 . S
C2896 C2897 1.392 . S
C2896 C2899 1.511 . S
C2897 C2893 1.376 . S
C2897 C2896 1.392 . S
C2897 H2909 0.929 . S
C2898 C2894 1.531 . S
C2898 H2910 0.960 . S
C2898 H2911 0.962 . S
C2898 H2912 0.960 . S
C2899 C2896 1.511 . S
C2899 H2913 0.961 . S
C2899 H2914 0.961 . S
C2899 H2915 0.961 . S
C2900 C2901 1.370 . S
C2900 C2902 1.363 . S
C2900 H2916 0.931 . S
C2901 C2900 1.370 . S
C2901 C2905 1.408 . S
C2902 C2900 1.363 . S
C2902 C2903 1.370 . S
C2902 C2906 1.524 . S
C2903 C2895 1.503 . S
C2903 C2902 1.370 . S
C2903 C2904 1.403 . S
C2904 C2903 1.403 . S
C2904 C2905 1.404 . S
C2904 C2907 1.539 . S
C2905 C2901 1.408 . S
C2905 C2904 1.404 . S
C2905 H2917 0.930 . S
C2906 C2902 1.524 . S
C2906 H2918 0.956 . S
C2906 H2919 0.961 . S
C2906 H2920 0.961 . S
C2907 C2904 1.539 . S
C2907 H2921 0.958 . S
C2907 H2922 0.961 . S
C2907 H2923 0.960 . S
H2908 C2892 0.931 . S
H2909 C2897 0.929 . S
H2910 C2898 0.960 . S
H2911 C2898 0.962 . S
H2912 C2898 0.960 . S
H2913 C2899 0.961 . S
H2914 C2899 0.961 . S
H2915 C2899 0.961 . S
H2916 C2900 0.931 . S
H2917 C2905 0.930 . S
H2918 C2906 0.956 . S
H2919 C2906 0.961 . S
H2920 C2906 0.961 . S
H2921 C2907 0.958 . S
H2922 C2907 0.961 . S
H2923 C2907 0.960 . S
C2924 C2925 1.391 . S
C2924 C2926 1.394 . S
C2924 H2940 0.931 . S
C2925 C2924 1.391 . S
C2925 C2929 1.376 . S
C2926 C2924 1.394 . S
C2926 C2927 1.369 . S
C2926 C2930 1.531 . S
C2927 C2926 1.369 . S
C2927 C2928 1.410 . S
C2927 C2935 1.503 . S
C2928 C2927 1.410 . S
C2928 C2929 1.392 . S
C2928 C2931 1.511 . S
C2929 C2925 1.376 . S
C2929 C2928 1.392 . S
C2929 H2941 0.929 . S
C2930 C2926 1.531 . S
C2930 H2942 0.960 . S
C2930 H2943 0.962 . S
C2930 H2944 0.960 . S
C2931 C2928 1.511 . S
C2931 H2945 0.961 . S
C2931 H2946 0.961 . S
C2931 H2947 0.961 . S
C2932 C2933 1.370 . S
C2932 C2934 1.363 . S
C2932 H2948 0.931 . S
C2933 C2932 1.370 . S
C2933 C2937 1.408 . S
C2934 C2932 1.363 . S
C2934 C2935 1.370 . S
C2934 C2938 1.524 . S
C2935 C2927 1.503 . S
C2935 C2934 1.370 . S
C2935 C2936 1.403 . S
C2936 C2935 1.403 . S
C2936 C2937 1.404 . S
C2936 C2939 1.539 . S
C2937 C2933 1.408 . S
C2937 C2936 1.404 . S
C2937 H2949 0.930 . S
C2938 C2934 1.524 . S
C2938 H2950 0.956 . S
C2938 H2951 0.961 . S
C2938 H2952 0.961 . S
C2939 C2936 1.539 . S
C2939 H2953 0.958 . S
C2939 H2954 0.961 . S
C2939 H2955 0.960 . S
H2940 C2924 0.931 . S
H2941 C2929 0.929 . S
H2942 C2930 0.960 . S
H2943 C2930 0.962 . S
H2944 C2930 0.960 . S
H2945 C2931 0.961 . S
H2946 C2931 0.961 . S
H2947 C2931 0.961 . S
H2948 C2932 0.931 . S
H2949 C2937 0.930 . S
H2950 C2938 0.956 . S
H2951 C2938 0.961 . S
H2952 C2938 0.961 . S
H2953 C2939 0.958 . S
H2954 C2939 0.961 . S
H2955 C2939 0.960 . S
C2956 C2957 1.391 . S
C2956 C2958 1.394 . S
C2956 H2972 0.931 . S
C2957 C2956 1.391 . S
C2957 C2961 1.376 . S
C2958 C2956 1.394 . S
C2958 C2959 1.369 . S
C2958 C2962 1.531 . S
C2959 C2958 1.369 . S
C2959 C2960 1.410 . S
C2959 C2967 1.503 . S
C2960 C2959 1.410 . S
C2960 C2961 1.392 . S
C2960 C2963 1.511 . S
C2961 C2957 1.376 . S
C2961 C2960 1.392 . S
C2961 H2973 0.929 . S
C2962 C2958 1.531 . S
C2962 H2974 0.960 . S
C2962 H2975 0.962 . S
C2962 H2976 0.960 . S
C2963 C2960 1.511 . S
C2963 H2977 0.961 . S
C2963 H2978 0.961 . S
C2963 H2979 0.961 . S
C2964 C2965 1.370 . S
C2964 C2966 1.363 . S
C2964 H2980 0.931 . S
C2965 C2964 1.370 . S
C2965 C2969 1.408 . S
C2966 C2964 1.363 . S
C2966 C2967 1.370 . S
C2966 C2970 1.524 . S
C2967 C2959 1.503 . S
C2967 C2966 1.370 . S
C2967 C2968 1.403 . S
C2968 C2967 1.403 . S
C2968 C2969 1.404 . S
C2968 C2971 1.539 . S
C2969 C2965 1.408 . S
C2969 C2968 1.404 . S
C2969 H2981 0.930 . S
C2970 C2966 1.524 . S
C2970 H2982 0.956 . S
C2970 H2983 0.961 . S
C2970 H2984 0.961 . S
C2971 C2968 1.539 . S
C2971 H2985 0.958 . S
C2971 H2986 0.961 . S
C2971 H2987 0.960 . S
H2972 C2956 0.931 . S
H2973 C2961 0.929 . S
H2974 C2962 0.960 . S
H2975 C2962 0.962 . S
H2976 C2962 0.960 . S
H2977 C2963 0.961 . S
H2978 C2963 0.961 . S
H2979 C2963 0.961 . S
H2980 C2964 0.931 . S
H2981 C2969 0.930 . S
H2982 C2970 0.956 . S
H2983 C2970 0.961 . S
H2984 C2970 0.961 . S
H2985 C2971 0.958 . S
H2986 C2971 0.961 . S
H2987 C2971 0.960 . S
C2988 C2989 1.391 . S
C2988 C2990 1.394 . S
C2988 H3004 0.931 . S
C2989 C2988 1.391 . S
C2989 C2993 1.376 . S
C2990 C2988 1.394 . S
C2990 C2991 1.369 . S
C2990 C2994 1.531 . S
C2991 C2990 1.369 . S
C2991 C2992 1.410 . S
C2991 C2999 1.503 . S
C2992 C2991 1.410 . S
C2992 C2993 1.392 . S
C2992 C2995 1.511 . S
C2993 C2989 1.376 . S
C2993 C2992 1.392 . S
C2993 H3005 0.929 . S
C2994 C2990 1.531 . S
C2994 H3006 0.960 . S
C2994 H3007 0.962 . S
C2994 H3008 0.960 . S
C2995 C2992 1.511 . S
C2995 H3009 0.961 . S
C2995 H3010 0.961 . S
C2995 H3011 0.961 . S
C2996 C2997 1.370 . S
C2996 C2998 1.363 . S
C2996 H3012 0.931 . S
C2997 C2996 1.370 . S
C2997 C3001 1.408 . S
C2998 C2996 1.363 . S
C2998 C2999 1.370 . S
C2998 C3002 1.524 . S
C2999 C2991 1.503 . S
C2999 C2998 1.370 . S
C2999 C3000 1.403 . S
C3000 C2999 1.403 . S
C3000 C3001 1.404 . S
C3000 C3003 1.539 1_565 S
C3001 C2997 1.408 . S
C3001 C3000 1.404 . S
C3001 H3013 0.930 1_565 S
C3002 C2998 1.524 . S
C3002 H3014 0.956 . S
C3002 H3015 0.961 . S
C3002 H3016 0.961 . S
C3003 C3000 1.539 1_545 S
C3003 H3017 0.958 . S
C3003 H3018 0.961 . S
C3003 H3019 0.960 1_545 S
H3004 C2988 0.931 . S
H3005 C2993 0.929 . S
H3006 C2994 0.960 . S
H3007 C2994 0.962 . S
H3008 C2994 0.960 . S
H3009 C2995 0.961 . S
H3010 C2995 0.961 . S
H3011 C2995 0.961 . S
H3012 C2996 0.931 . S
H3013 C3001 0.930 1_545 S
H3014 C3002 0.956 . S
H3015 C3002 0.961 . S
H3016 C3002 0.961 . S
H3017 C3003 0.958 . S
H3018 C3003 0.961 . S
H3019 C3003 0.960 1_565 S
C3020 C3021 1.391 . S
C3020 C3022 1.394 . S
C3020 H3036 0.931 . S
C3021 C3020 1.391 . S
C3021 C3025 1.376 . S
C3022 C3020 1.394 . S
C3022 C3023 1.369 . S
C3022 C3026 1.531 1_455 S
C3023 C3022 1.369 . S
C3023 C3024 1.410 . S
C3023 C3031 1.503 . S
C3024 C3023 1.410 . S
C3024 C3025 1.392 . S
C3024 C3027 1.511 . S
C3025 C3021 1.376 . S
C3025 C3024 1.392 . S
C3025 H3037 0.929 . S
C3026 C3022 1.531 1_655 S
C3026 H3038 0.960 . S
C3026 H3039 0.962 1_655 S
C3026 H3040 0.960 . S
C3027 C3024 1.511 . S
C3027 H3041 0.961 . S
C3027 H3042 0.961 . S
C3027 H3043 0.961 . S
C3028 C3029 1.370 . S
C3028 C3030 1.363 . S
C3028 H3044 0.931 . S
C3029 C3028 1.370 . S
C3029 C3033 1.408 . S
C3030 C3028 1.363 . S
C3030 C3031 1.370 . S
C3030 C3034 1.524 . S
C3031 C3023 1.503 . S
C3031 C3030 1.370 . S
C3031 C3032 1.403 . S
C3032 C3031 1.403 . S
C3032 C3033 1.404 . S
C3032 C3035 1.539 . S
C3033 C3029 1.408 . S
C3033 C3032 1.404 . S
C3033 H3045 0.908 1_455 S
C3034 C3030 1.524 . S
C3034 H3046 0.956 . S
C3034 H3047 0.961 . S
C3034 H3048 0.961 . S
C3035 C3032 1.539 . S
C3035 H3049 0.958 1_455 S
C3035 H3050 0.984 . S
C3035 H3051 0.960 . S
H3036 C3020 0.931 . S
H3037 C3025 0.929 . S
H3038 C3026 0.960 . S
H3039 C3026 0.962 1_455 S
H3040 C3026 0.960 . S
H3041 C3027 0.961 . S
H3042 C3027 0.961 . S
H3043 C3027 0.961 . S
H3044 C3028 0.931 . S
H3045 C3033 0.908 1_655 S
H3046 C3034 0.956 . S
H3047 C3034 0.961 . S
H3048 C3034 0.961 . S
H3049 C3035 0.958 1_655 S
H3050 C3035 0.984 . S
H3051 C3035 0.960 . S
C3052 C3053 1.391 . S
C3052 C3054 1.394 . S
C3052 H3068 0.931 . S
C3053 C3052 1.391 . S
C3053 C3057 1.376 . S
C3054 C3052 1.394 . S
C3054 C3055 1.369 . S
C3054 C3058 1.531 . S
C3055 C3054 1.369 . S
C3055 C3056 1.410 . S
C3055 C3063 1.503 . S
C3056 C3055 1.410 . S
C3056 C3057 1.392 . S
C3056 C3059 1.511 . S
C3057 C3053 1.376 . S
C3057 C3056 1.392 . S
C3057 H3069 0.929 . S
C3058 C3054 1.531 . S
C3058 H3070 0.960 . S
C3058 H3071 0.962 . S
C3058 H3072 0.960 . S
C3059 C3056 1.511 . S
C3059 H3073 0.961 . S
C3059 H3074 0.961 . S
C3059 H3075 0.961 . S
C3060 C3061 1.370 . S
C3060 C3062 1.363 . S
C3060 H3076 0.931 . S
C3061 C3060 1.370 . S
C3061 C3065 1.408 . S
C3062 C3060 1.363 . S
C3062 C3063 1.370 . S
C3062 C3066 1.524 . S
C3063 C3055 1.503 . S
C3063 C3062 1.370 . S
C3063 C3064 1.403 . S
C3064 C3063 1.403 . S
C3064 C3065 1.404 . S
C3064 C3067 1.539 . S
C3065 C3061 1.408 . S
C3065 C3064 1.404 . S
C3065 H3077 0.930 . S
C3066 C3062 1.524 . S
C3066 H3078 0.956 . S
C3066 H3079 0.961 . S
C3066 H3080 0.961 . S
C3067 C3064 1.539 . S
C3067 H3081 0.958 . S
C3067 H3082 0.961 . S
C3067 H3083 0.960 . S
H3068 C3052 0.931 . S
H3069 C3057 0.929 . S
H3070 C3058 0.960 . S
H3071 C3058 0.962 . S
H3072 C3058 0.960 . S
H3073 C3059 0.961 . S
H3074 C3059 0.961 . S
H3075 C3059 0.961 . S
H3076 C3060 0.931 . S
H3077 C3065 0.930 . S
H3078 C3066 0.956 . S
H3079 C3066 0.961 . S
H3080 C3066 0.961 . S
H3081 C3067 0.958 . S
H3082 C3067 0.961 . S
H3083 C3067 0.960 . S
C3084 C3085 1.391 . S
C3084 C3086 1.394 . S
C3084 H3100 0.931 . S
C3085 C3084 1.391 . S
C3085 C3089 1.376 . S
C3086 C3084 1.394 . S
C3086 C3087 1.369 . S
C3086 C3090 1.531 . S
C3087 C3086 1.369 . S
C3087 C3088 1.410 . S
C3087 C3095 1.503 . S
C3088 C3087 1.410 . S
C3088 C3089 1.392 . S
C3088 C3091 1.511 1_655 S
C3089 C3085 1.376 . S
C3089 C3088 1.392 . S
C3089 H3101 0.929 . S
C3090 C3086 1.531 . S
C3090 H3102 0.960 . S
C3090 H3103 0.962 . S
C3090 H3104 0.960 . S
C3091 C3088 1.511 1_455 S
C3091 H3105 0.961 . S
C3091 H3106 0.961 . S
C3091 H3107 0.961 . S
C3092 C3093 1.370 . S
C3092 C3094 1.363 . S
C3092 H3108 0.931 . S
C3093 C3092 1.370 . S
C3093 C3097 1.408 . S
C3094 C3092 1.363 . S
C3094 C3095 1.370 . S
C3094 C3098 1.524 . S
C3095 C3087 1.503 . S
C3095 C3094 1.370 . S
C3095 C3096 1.403 . S
C3096 C3095 1.403 . S
C3096 C3097 1.404 . S
C3096 C3099 1.539 . S
C3097 C3093 1.408 . S
C3097 C3096 1.404 . S
C3097 H3109 0.930 . S
C3098 C3094 1.524 . S
C3098 H3110 0.956 . S
C3098 H3111 0.961 . S
C3098 H3112 0.961 . S
C3099 C3096 1.539 . S
C3099 H3113 0.958 . S
C3099 H3114 0.961 . S
C3099 H3115 0.960 . S
H3100 C3084 0.931 . S
H3101 C3089 0.929 . S
H3102 C3090 0.960 . S
H3103 C3090 0.962 . S
H3104 C3090 0.960 . S
H3105 C3091 0.961 . S
H3106 C3091 0.961 . S
H3107 C3091 0.961 . S
H3108 C3092 0.931 . S
H3109 C3097 0.930 . S
H3110 C3098 0.956 . S
H3111 C3098 0.961 . S
H3112 C3098 0.961 . S
H3113 C3099 0.958 . S
H3114 C3099 0.961 . S
H3115 C3099 0.960 . S
C3116 C3117 1.391 . S
C3116 C3118 1.394 . S
C3116 H3132 0.931 . S
C3117 C3116 1.391 . S
C3117 C3121 1.376 . S
C3118 C3116 1.394 . S
C3118 C3119 1.369 . S
C3118 C3122 1.531 . S
C3119 C3118 1.369 . S
C3119 C3120 1.410 . S
C3119 C3127 1.503 . S
C3120 C3119 1.410 . S
C3120 C3121 1.392 . S
C3120 C3123 1.511 . S
C3121 C3117 1.376 . S
C3121 C3120 1.392 . S
C3121 H3133 0.929 . S
C3122 C3118 1.531 . S
C3122 H3134 0.960 . S
C3122 H3135 0.962 . S
C3122 H3136 0.960 . S
C3123 C3120 1.511 . S
C3123 H3137 0.961 . S
C3123 H3138 0.961 . S
C3123 H3139 0.961 . S
C3124 C3125 1.370 . S
C3124 C3126 1.363 . S
C3124 H3140 0.931 . S
C3125 C3124 1.370 . S
C3125 C3129 1.408 . S
C3126 C3124 1.363 . S
C3126 C3127 1.370 . S
C3126 C3130 1.524 . S
C3127 C3119 1.503 . S
C3127 C3126 1.370 . S
C3127 C3128 1.403 . S
C3128 C3127 1.403 . S
C3128 C3129 1.404 . S
C3128 C3131 1.539 . S
C3129 C3125 1.408 . S
C3129 C3128 1.404 . S
C3129 H3141 0.930 . S
C3130 C3126 1.524 . S
C3130 H3142 0.956 . S
C3130 H3143 0.961 . S
C3130 H3144 0.961 . S
C3131 C3128 1.539 . S
C3131 H3145 0.958 . S
C3131 H3146 0.961 . S
C3131 H3147 0.960 . S
H3132 C3116 0.931 . S
H3133 C3121 0.929 . S
H3134 C3122 0.960 . S
H3135 C3122 0.962 . S
H3136 C3122 0.960 . S
H3137 C3123 0.961 . S
H3138 C3123 0.961 . S
H3139 C3123 0.961 . S
H3140 C3124 0.931 . S
H3141 C3129 0.930 . S
H3142 C3130 0.956 . S
H3143 C3130 0.961 . S
H3144 C3130 0.961 . S
H3145 C3131 0.958 . S
H3146 C3131 0.961 . S
H3147 C3131 0.960 . S
C3148 C3149 1.391 . S
C3148 C3150 1.394 . S
C3148 H3164 0.931 . S
C3149 C3148 1.391 . S
C3149 C3153 1.376 . S
C3150 C3148 1.394 . S
C3150 C3151 1.369 . S
C3150 C3154 1.531 . S
C3151 C3150 1.369 . S
C3151 C3152 1.410 . S
C3151 C3159 1.503 . S
C3152 C3151 1.410 . S
C3152 C3153 1.392 . S
C3152 C3155 1.511 . S
C3153 C3149 1.376 . S
C3153 C3152 1.392 . S
C3153 H3165 0.929 . S
C3154 C3150 1.531 . S
C3154 H3166 0.960 . S
C3154 H3167 0.962 . S
C3154 H3168 0.960 . S
C3155 C3152 1.511 . S
C3155 H3169 0.961 . S
C3155 H3170 0.961 . S
C3155 H3171 0.961 . S
C3156 C3157 1.370 . S
C3156 C3158 1.363 . S
C3156 H3172 0.931 . S
C3157 C3156 1.370 . S
C3157 C3161 1.408 . S
C3158 C3156 1.363 . S
C3158 C3159 1.370 . S
C3158 C3162 1.524 . S
C3159 C3151 1.503 . S
C3159 C3158 1.370 . S
C3159 C3160 1.403 . S
C3160 C3159 1.403 . S
C3160 C3161 1.404 . S
C3160 C3163 1.539 . S
C3161 C3157 1.408 . S
C3161 C3160 1.404 . S
C3161 H3173 0.930 . S
C3162 C3158 1.524 . S
C3162 H3174 0.956 . S
C3162 H3175 0.961 . S
C3162 H3176 0.961 . S
C3163 C3160 1.539 . S
C3163 H3177 0.958 . S
C3163 H3178 0.961 . S
C3163 H3179 0.960 . S
H3164 C3148 0.931 . S
H3165 C3153 0.929 . S
H3166 C3154 0.960 . S
H3167 C3154 0.962 . S
H3168 C3154 0.960 . S
H3169 C3155 0.961 . S
H3170 C3155 0.961 . S
H3171 C3155 0.961 . S
H3172 C3156 0.931 . S
H3173 C3161 0.930 . S
H3174 C3162 0.956 . S
H3175 C3162 0.961 . S
H3176 C3162 0.961 . S
H3177 C3163 0.958 . S
H3178 C3163 0.961 . S
H3179 C3163 0.960 . S
C3180 C3181 1.391 . S
C3180 C3182 1.394 . S
C3180 H3196 0.931 . S
C3181 C3180 1.391 . S
C3181 C3185 1.376 . S
C3182 C3180 1.394 . S
C3182 C3183 1.369 . S
C3182 C3186 1.531 . S
C3183 C3182 1.369 . S
C3183 C3184 1.410 . S
C3183 C3191 1.503 . S
C3184 C3183 1.410 . S
C3184 C3185 1.392 . S
C3184 C3187 1.511 . S
C3185 C3181 1.376 . S
C3185 C3184 1.392 . S
C3185 H3197 0.929 . S
C3186 C3182 1.531 . S
C3186 H3198 0.960 . S
C3186 H3199 0.962 . S
C3186 H3200 0.960 . S
C3187 C3184 1.511 . S
C3187 H3201 0.961 . S
C3187 H3202 0.961 . S
C3187 H3203 0.961 . S
C3188 C3189 1.370 . S
C3188 C3190 1.363 . S
C3188 H3204 0.931 . S
C3189 C3188 1.370 . S
C3189 C3193 1.408 . S
C3190 C3188 1.363 . S
C3190 C3191 1.370 . S
C3190 C3194 1.524 . S
C3191 C3183 1.503 . S
C3191 C3190 1.370 . S
C3191 C3192 1.403 . S
C3192 C3191 1.403 . S
C3192 C3193 1.404 . S
C3192 C3195 1.539 . S
C3193 C3189 1.408 . S
C3193 C3192 1.404 . S
C3193 H3205 0.930 . S
C3194 C3190 1.524 . S
C3194 H3206 0.956 . S
C3194 H3207 0.961 . S
C3194 H3208 0.961 . S
C3195 C3192 1.539 . S
C3195 H3209 0.958 . S
C3195 H3210 0.961 . S
C3195 H3211 0.960 . S
H3196 C3180 0.931 . S
H3197 C3185 0.929 . S
H3198 C3186 0.960 . S
H3199 C3186 0.962 . S
H3200 C3186 0.960 . S
H3201 C3187 0.961 . S
H3202 C3187 0.961 . S
H3203 C3187 0.961 . S
H3204 C3188 0.931 . S
H3205 C3193 0.930 . S
H3206 C3194 0.956 . S
H3207 C3194 0.961 . S
H3208 C3194 0.961 . S
H3209 C3195 0.958 . S
H3210 C3195 0.961 . S
H3211 C3195 0.960 . S
C3212 C3213 1.391 . S
C3212 C3214 1.394 . S
C3212 H3228 0.931 . S
C3213 C3212 1.391 . S
C3213 C3217 1.376 . S
C3214 C3212 1.394 . S
C3214 C3215 1.369 . S
C3214 C3218 1.531 . S
C3215 C3214 1.369 . S
C3215 C3216 1.410 . S
C3215 C3223 1.503 . S
C3216 C3215 1.410 . S
C3216 C3217 1.392 . S
C3216 C3219 1.511 . S
C3217 C3213 1.376 . S
C3217 C3216 1.392 . S
C3217 H3229 0.929 . S
C3218 C3214 1.531 . S
C3218 H3230 0.960 . S
C3218 H3231 0.962 . S
C3218 H3232 0.960 . S
C3219 C3216 1.511 . S
C3219 H3233 0.961 . S
C3219 H3234 0.961 . S
C3219 H3235 0.961 . S
C3220 C3221 1.370 . S
C3220 C3222 1.363 . S
C3220 H3236 0.931 . S
C3221 C3220 1.370 . S
C3221 C3225 1.408 . S
C3222 C3220 1.363 . S
C3222 C3223 1.370 . S
C3222 C3226 1.524 . S
C3223 C3215 1.503 . S
C3223 C3222 1.370 . S
C3223 C3224 1.403 . S
C3224 C3223 1.403 . S
C3224 C3225 1.404 . S
C3224 C3227 1.539 . S
C3225 C3221 1.408 . S
C3225 C3224 1.404 . S
C3225 H3237 0.930 . S
C3226 C3222 1.524 . S
C3226 H3238 0.956 . S
C3226 H3239 0.961 . S
C3226 H3240 0.961 . S
C3227 C3224 1.539 . S
C3227 H3241 0.958 . S
C3227 H3242 0.961 . S
C3227 H3243 0.960 . S
H3228 C3212 0.931 . S
H3229 C3217 0.929 . S
H3230 C3218 0.960 . S
H3231 C3218 0.962 . S
H3232 C3218 0.960 . S
H3233 C3219 0.961 . S
H3234 C3219 0.961 . S
H3235 C3219 0.961 . S
H3236 C3220 0.931 . S
H3237 C3225 0.930 . S
H3238 C3226 0.956 . S
H3239 C3226 0.961 . S
H3240 C3226 0.961 . S
H3241 C3227 0.958 . S
H3242 C3227 0.961 . S
H3243 C3227 0.960 . S
C3244 C3245 1.391 . S
C3244 C3246 1.394 . S
C3244 H3260 0.931 . S
C3245 C3244 1.391 . S
C3245 C3249 1.376 . S
C3246 C3244 1.394 . S
C3246 C3247 1.369 . S
C3246 C3250 1.531 . S
C3247 C3246 1.369 . S
C3247 C3248 1.410 . S
C3247 C3255 1.503 . S
C3248 C3247 1.410 . S
C3248 C3249 1.392 . S
C3248 C3251 1.511 . S
C3249 C3245 1.376 . S
C3249 C3248 1.392 . S
C3249 H3261 0.929 . S
C3250 C3246 1.531 . S
C3250 H3262 0.960 . S
C3250 H3263 0.962 . S
C3250 H3264 0.960 . S
C3251 C3248 1.511 . S
C3251 H3265 0.961 . S
C3251 H3266 0.961 . S
C3251 H3267 0.961 . S
C3252 C3253 1.370 . S
C3252 C3254 1.363 . S
C3252 H3268 0.931 . S
C3253 C3252 1.370 . S
C3253 C3257 1.408 . S
C3254 C3252 1.363 . S
C3254 C3255 1.370 . S
C3254 C3258 1.524 . S
C3255 C3247 1.503 . S
C3255 C3254 1.370 . S
C3255 C3256 1.403 . S
C3256 C3255 1.403 . S
C3256 C3257 1.404 . S
C3256 C3259 1.539 . S
C3257 C3253 1.408 . S
C3257 C3256 1.404 . S
C3257 H3269 0.930 . S
C3258 C3254 1.524 . S
C3258 H3270 0.956 . S
C3258 H3271 0.961 . S
C3258 H3272 0.961 . S
C3259 C3256 1.539 . S
C3259 H3273 0.958 . S
C3259 H3274 0.961 . S
C3259 H3275 0.960 . S
H3260 C3244 0.931 . S
H3261 C3249 0.929 . S
H3262 C3250 0.960 . S
H3263 C3250 0.962 . S
H3264 C3250 0.960 . S
H3265 C3251 0.961 . S
H3266 C3251 0.961 . S
H3267 C3251 0.961 . S
H3268 C3252 0.931 . S
H3269 C3257 0.930 . S
H3270 C3258 0.956 . S
H3271 C3258 0.961 . S
H3272 C3258 0.961 . S
H3273 C3259 0.958 . S
H3274 C3259 0.961 . S
H3275 C3259 0.960 . S
C3276 C3277 1.391 . S
C3276 C3278 1.394 . S
C3276 H3292 0.931 . S
C3277 C3276 1.391 . S
C3277 C3281 1.376 . S
C3278 C3276 1.394 . S
C3278 C3279 1.369 . S
C3278 C3282 1.531 . S
C3279 C3278 1.369 . S
C3279 C3280 1.410 . S
C3279 C3287 1.503 . S
C3280 C3279 1.410 . S
C3280 C3281 1.392 . S
C3280 C3283 1.511 . S
C3281 C3277 1.376 . S
C3281 C3280 1.392 . S
C3281 H3293 0.929 . S
C3282 C3278 1.531 . S
C3282 H3294 0.960 . S
C3282 H3295 0.962 . S
C3282 H3296 0.960 . S
C3283 C3280 1.511 . S
C3283 H3297 0.961 . S
C3283 H3298 0.961 . S
C3283 H3299 0.961 . S
C3284 C3285 1.370 . S
C3284 C3286 1.363 . S
C3284 H3300 0.931 . S
C3285 C3284 1.370 . S
C3285 C3289 1.408 . S
C3286 C3284 1.363 . S
C3286 C3287 1.370 . S
C3286 C3290 1.524 . S
C3287 C3279 1.503 . S
C3287 C3286 1.370 . S
C3287 C3288 1.403 . S
C3288 C3287 1.403 . S
C3288 C3289 1.404 . S
C3288 C3291 1.539 . S
C3289 C3285 1.408 . S
C3289 C3288 1.404 . S
C3289 H3301 0.930 . S
C3290 C3286 1.524 . S
C3290 H3302 0.956 . S
C3290 H3303 0.961 . S
C3290 H3304 0.961 . S
C3291 C3288 1.539 . S
C3291 H3305 0.958 . S
C3291 H3306 0.961 . S
C3291 H3307 0.960 . S
H3292 C3276 0.931 . S
H3293 C3281 0.929 . S
H3294 C3282 0.960 . S
H3295 C3282 0.962 . S
H3296 C3282 0.960 . S
H3297 C3283 0.961 . S
H3298 C3283 0.961 . S
H3299 C3283 0.961 . S
H3300 C3284 0.931 . S
H3301 C3289 0.930 . S
H3302 C3290 0.956 . S
H3303 C3290 0.961 . S
H3304 C3290 0.961 . S
H3305 C3291 0.958 . S
H3306 C3291 0.961 . S
H3307 C3291 0.960 . S
C3308 C3309 1.391 . S
C3308 C3310 1.394 . S
C3308 H3324 0.931 . S
C3309 C3308 1.391 . S
C3309 C3313 1.376 . S
C3310 C3308 1.394 . S
C3310 C3311 1.369 . S
C3310 C3314 1.531 . S
C3311 C3310 1.369 . S
C3311 C3312 1.410 . S
C3311 C3319 1.503 . S
C3312 C3311 1.410 . S
C3312 C3313 1.392 . S
C3312 C3315 1.511 . S
C3313 C3309 1.376 . S
C3313 C3312 1.392 . S
C3313 H3325 0.929 . S
C3314 C3310 1.531 . S
C3314 H3326 0.960 . S
C3314 H3327 0.962 . S
C3314 H3328 0.960 . S
C3315 C3312 1.511 . S
C3315 H3329 0.961 . S
C3315 H3330 0.961 . S
C3315 H3331 0.961 . S
C3316 C3317 1.370 . S
C3316 C3318 1.363 . S
C3316 H3332 0.931 . S
C3317 C3316 1.370 . S
C3317 C3321 1.408 . S
C3318 C3316 1.363 . S
C3318 C3319 1.370 . S
C3318 C3322 1.524 . S
C3319 C3311 1.503 . S
C3319 C3318 1.370 . S
C3319 C3320 1.403 . S
C3320 C3319 1.403 . S
C3320 C3321 1.404 . S
C3320 C3323 1.539 . S
C3321 C3317 1.408 . S
C3321 C3320 1.404 . S
C3321 H3333 0.930 . S
C3322 C3318 1.524 . S
C3322 H3334 0.956 . S
C3322 H3335 0.961 . S
C3322 H3336 0.961 . S
C3323 C3320 1.539 . S
C3323 H3337 0.958 . S
C3323 H3338 0.961 . S
C3323 H3339 0.960 . S
H3324 C3308 0.931 . S
H3325 C3313 0.929 . S
H3326 C3314 0.960 . S
H3327 C3314 0.962 . S
H3328 C3314 0.960 . S
H3329 C3315 0.961 . S
H3330 C3315 0.961 . S
H3331 C3315 0.961 . S
H3332 C3316 0.931 . S
H3333 C3321 0.930 . S
H3334 C3322 0.956 . S
H3335 C3322 0.961 . S
H3336 C3322 0.961 . S
H3337 C3323 0.958 . S
H3338 C3323 0.961 . S
H3339 C3323 0.960 . S
C3340 C3341 1.391 . S
C3340 C3342 1.394 . S
C3340 H3356 0.931 . S
C3341 C3340 1.391 . S
C3341 C3345 1.376 . S
C3342 C3340 1.394 . S
C3342 C3343 1.369 . S
C3342 C3346 1.531 . S
C3343 C3342 1.369 . S
C3343 C3344 1.410 . S
C3343 C3351 1.503 . S
C3344 C3343 1.410 . S
C3344 C3345 1.392 . S
C3344 C3347 1.511 . S
C3345 C3341 1.376 . S
C3345 C3344 1.392 . S
C3345 H3357 0.929 . S
C3346 C3342 1.531 . S
C3346 H3358 0.960 . S
C3346 H3359 0.962 . S
C3346 H3360 0.960 . S
C3347 C3344 1.511 . S
C3347 H3361 0.961 . S
C3347 H3362 0.961 . S
C3347 H3363 0.961 . S
C3348 C3349 1.370 . S
C3348 C3350 1.363 . S
C3348 H3364 0.931 . S
C3349 C3348 1.370 . S
C3349 C3353 1.408 . S
C3350 C3348 1.363 . S
C3350 C3351 1.370 . S
C3350 C3354 1.524 . S
C3351 C3343 1.503 . S
C3351 C3350 1.370 . S
C3351 C3352 1.403 . S
C3352 C3351 1.403 . S
C3352 C3353 1.404 . S
C3352 C3355 1.539 . S
C3353 C3349 1.408 . S
C3353 C3352 1.404 . S
C3353 H3365 0.930 . S
C3354 C3350 1.524 . S
C3354 H3366 0.956 . S
C3354 H3367 0.961 . S
C3354 H3368 0.961 . S
C3355 C3352 1.539 . S
C3355 H3369 0.958 . S
C3355 H3370 0.961 . S
C3355 H3371 0.960 . S
H3356 C3340 0.931 . S
H3357 C3345 0.929 . S
H3358 C3346 0.960 . S
H3359 C3346 0.962 . S
H3360 C3346 0.960 . S
H3361 C3347 0.961 . S
H3362 C3347 0.961 . S
H3363 C3347 0.961 . S
H3364 C3348 0.931 . S
H3365 C3353 0.930 . S
H3366 C3354 0.956 . S
H3367 C3354 0.961 . S
H3368 C3354 0.961 . S
H3369 C3355 0.958 . S
H3370 C3355 0.961 . S
H3371 C3355 0.960 . S
C3372 C3373 1.391 . S
C3372 C3374 1.394 . S
C3372 H3388 0.931 . S
C3373 C3372 1.391 . S
C3373 C3377 1.376 . S
C3374 C3372 1.394 . S
C3374 C3375 1.369 . S
C3374 C3378 1.531 . S
C3375 C3374 1.369 . S
C3375 C3376 1.410 . S
C3375 C3383 1.503 . S
C3376 C3375 1.410 . S
C3376 C3377 1.392 . S
C3376 C3379 1.511 . S
C3377 C3373 1.376 . S
C3377 C3376 1.392 . S
C3377 H3389 0.929 . S
C3378 C3374 1.531 . S
C3378 H3390 0.960 . S
C3378 H3391 0.962 . S
C3378 H3392 0.960 . S
C3379 C3376 1.511 . S
C3379 H3393 0.961 . S
C3379 H3394 0.961 . S
C3379 H3395 0.961 . S
C3380 C3381 1.370 . S
C3380 C3382 1.363 . S
C3380 H3396 0.931 . S
C3381 C3380 1.370 . S
C3381 C3385 1.408 . S
C3382 C3380 1.363 . S
C3382 C3383 1.370 . S
C3382 C3386 1.524 . S
C3383 C3375 1.503 . S
C3383 C3382 1.370 . S
C3383 C3384 1.403 . S
C3384 C3383 1.403 . S
C3384 C3385 1.404 . S
C3384 C3387 1.539 . S
C3385 C3381 1.408 . S
C3385 C3384 1.404 . S
C3385 H3397 0.930 . S
C3386 C3382 1.524 . S
C3386 H3398 0.956 . S
C3386 H3399 0.961 . S
C3386 H3400 0.961 . S
C3387 C3384 1.539 . S
C3387 H3401 0.958 . S
C3387 H3402 0.961 . S
C3387 H3403 0.960 . S
H3388 C3372 0.931 . S
H3389 C3377 0.929 . S
H3390 C3378 0.960 . S
H3391 C3378 0.962 . S
H3392 C3378 0.960 . S
H3393 C3379 0.961 . S
H3394 C3379 0.961 . S
H3395 C3379 0.961 . S
H3396 C3380 0.931 . S
H3397 C3385 0.930 . S
H3398 C3386 0.956 . S
H3399 C3386 0.961 . S
H3400 C3386 0.961 . S
H3401 C3387 0.958 . S
H3402 C3387 0.961 . S
H3403 C3387 0.960 . S
C3404 C3405 1.391 . S
C3404 C3406 1.394 . S
C3404 H3420 0.931 . S
C3405 C3404 1.391 . S
C3405 C3409 1.376 . S
C3406 C3404 1.394 . S
C3406 C3407 1.369 . S
C3406 C3410 1.531 . S
C3407 C3406 1.369 . S
C3407 C3408 1.410 . S
C3407 C3415 1.503 . S
C3408 C3407 1.410 . S
C3408 C3409 1.392 . S
C3408 C3411 1.511 . S
C3409 C3405 1.376 . S
C3409 C3408 1.392 . S
C3409 H3421 0.929 . S
C3410 C3406 1.531 . S
C3410 H3422 0.960 . S
C3410 H3423 0.962 . S
C3410 H3424 0.960 . S
C3411 C3408 1.511 . S
C3411 H3425 0.961 . S
C3411 H3426 0.961 . S
C3411 H3427 0.961 . S
C3412 C3413 1.370 . S
C3412 C3414 1.363 . S
C3412 H3428 0.931 . S
C3413 C3412 1.370 . S
C3413 C3417 1.408 . S
C3414 C3412 1.363 . S
C3414 C3415 1.370 . S
C3414 C3418 1.524 . S
C3415 C3407 1.503 . S
C3415 C3414 1.370 . S
C3415 C3416 1.403 . S
C3416 C3415 1.403 . S
C3416 C3417 1.404 . S
C3416 C3419 1.539 . S
C3417 C3413 1.408 . S
C3417 C3416 1.404 . S
C3417 H3429 0.930 . S
C3418 C3414 1.524 . S
C3418 H3430 0.956 . S
C3418 H3431 0.961 . S
C3418 H3432 0.961 . S
C3419 C3416 1.539 . S
C3419 H3433 0.958 . S
C3419 H3434 0.961 . S
C3419 H3435 0.960 . S
H3420 C3404 0.931 . S
H3421 C3409 0.929 . S
H3422 C3410 0.960 . S
H3423 C3410 0.962 . S
H3424 C3410 0.960 . S
H3425 C3411 0.961 . S
H3426 C3411 0.961 . S
H3427 C3411 0.961 . S
H3428 C3412 0.931 . S
H3429 C3417 0.930 . S
H3430 C3418 0.956 . S
H3431 C3418 0.961 . S
H3432 C3418 0.961 . S
H3433 C3419 0.958 . S
H3434 C3419 0.961 . S
H3435 C3419 0.960 . S
C3436 C3437 1.391 . S
C3436 C3438 1.394 . S
C3436 H3452 0.931 . S
C3437 C3436 1.391 . S
C3437 C3441 1.376 . S
C3438 C3436 1.394 . S
C3438 C3439 1.369 . S
C3438 C3442 1.531 . S
C3439 C3438 1.369 . S
C3439 C3440 1.410 . S
C3439 C3447 1.503 . S
C3440 C3439 1.410 . S
C3440 C3441 1.392 . S
C3440 C3443 1.511 . S
C3441 C3437 1.376 . S
C3441 C3440 1.392 . S
C3441 H3453 0.929 . S
C3442 C3438 1.531 . S
C3442 H3454 0.960 . S
C3442 H3455 0.962 . S
C3442 H3456 0.960 . S
C3443 C3440 1.511 . S
C3443 H3457 0.961 . S
C3443 H3458 0.961 . S
C3443 H3459 0.961 . S
C3444 C3445 1.370 . S
C3444 C3446 1.363 . S
C3444 H3460 0.931 . S
C3445 C3444 1.370 . S
C3445 C3449 1.408 . S
C3446 C3444 1.363 . S
C3446 C3447 1.370 . S
C3446 C3450 1.524 . S
C3447 C3439 1.503 . S
C3447 C3446 1.370 . S
C3447 C3448 1.403 . S
C3448 C3447 1.403 . S
C3448 C3449 1.404 . S
C3448 C3451 1.539 . S
C3449 C3445 1.408 . S
C3449 C3448 1.404 . S
C3449 H3461 0.930 . S
C3450 C3446 1.524 . S
C3450 H3462 0.956 . S
C3450 H3463 0.961 . S
C3450 H3464 0.961 . S
C3451 C3448 1.539 . S
C3451 H3465 0.958 . S
C3451 H3466 0.961 . S
C3451 H3467 0.960 . S
H3452 C3436 0.931 . S
H3453 C3441 0.929 . S
H3454 C3442 0.960 . S
H3455 C3442 0.962 . S
H3456 C3442 0.960 . S
H3457 C3443 0.961 . S
H3458 C3443 0.961 . S
H3459 C3443 0.961 . S
H3460 C3444 0.931 . S
H3461 C3449 0.930 . S
H3462 C3450 0.956 . S
H3463 C3450 0.961 . S
H3464 C3450 0.961 . S
H3465 C3451 0.958 . S
H3466 C3451 0.961 . S
H3467 C3451 0.960 . S
C3468 C3469 1.391 . S
C3468 C3470 1.394 . S
C3468 H3484 0.931 . S
C3469 C3468 1.391 . S
C3469 C3473 1.376 . S
C3470 C3468 1.394 . S
C3470 C3471 1.369 . S
C3470 C3474 1.531 . S
C3471 C3470 1.369 . S
C3471 C3472 1.410 . S
C3471 C3479 1.503 . S
C3472 C3471 1.410 . S
C3472 C3473 1.392 . S
C3472 C3475 1.511 . S
C3473 C3469 1.376 . S
C3473 C3472 1.392 . S
C3473 H3485 0.929 . S
C3474 C3470 1.531 . S
C3474 H3486 0.960 . S
C3474 H3487 0.962 . S
C3474 H3488 0.960 . S
C3475 C3472 1.511 . S
C3475 H3489 0.961 . S
C3475 H3490 0.961 . S
C3475 H3491 0.961 . S
C3476 C3477 1.370 . S
C3476 C3478 1.363 . S
C3476 H3492 0.931 . S
C3477 C3476 1.370 . S
C3477 C3481 1.408 . S
C3478 C3476 1.363 . S
C3478 C3479 1.370 . S
C3478 C3482 1.524 . S
C3479 C3471 1.503 . S
C3479 C3478 1.370 . S
C3479 C3480 1.403 . S
C3480 C3479 1.403 . S
C3480 C3481 1.404 . S
C3480 C3483 1.539 . S
C3481 C3477 1.408 . S
C3481 C3480 1.404 . S
C3481 H3493 0.930 . S
C3482 C3478 1.524 . S
C3482 H3494 0.956 . S
C3482 H3495 0.961 . S
C3482 H3496 0.961 . S
C3483 C3480 1.539 . S
C3483 H3497 0.958 . S
C3483 H3498 0.961 . S
C3483 H3499 0.960 . S
H3484 C3468 0.931 . S
H3485 C3473 0.929 . S
H3486 C3474 0.960 . S
H3487 C3474 0.962 . S
H3488 C3474 0.960 . S
H3489 C3475 0.961 . S
H3490 C3475 0.961 . S
H3491 C3475 0.961 . S
H3492 C3476 0.931 . S
H3493 C3481 0.930 . S
H3494 C3482 0.956 . S
H3495 C3482 0.961 . S
H3496 C3482 0.961 . S
H3497 C3483 0.958 . S
H3498 C3483 0.961 . S
H3499 C3483 0.960 . S
C3500 C3501 1.391 . S
C3500 C3502 1.394 . S
C3500 H3516 0.931 . S
C3501 C3500 1.391 . S
C3501 C3505 1.376 . S
C3502 C3500 1.394 . S
C3502 C3503 1.369 . S
C3502 C3506 1.531 . S
C3503 C3502 1.369 . S
C3503 C3504 1.410 . S
C3503 C3511 1.503 . S
C3504 C3503 1.410 . S
C3504 C3505 1.392 . S
C3504 C3507 1.511 . S
C3505 C3501 1.376 . S
C3505 C3504 1.392 . S
C3505 H3517 0.929 . S
C3506 C3502 1.531 . S
C3506 H3518 0.960 . S
C3506 H3519 0.962 . S
C3506 H3520 0.960 . S
C3507 C3504 1.511 . S
C3507 H3521 0.961 . S
C3507 H3522 0.961 . S
C3507 H3523 0.961 . S
C3508 C3509 1.370 . S
C3508 C3510 1.363 . S
C3508 H3524 0.931 . S
C3509 C3508 1.370 . S
C3509 C3513 1.408 . S
C3510 C3508 1.363 . S
C3510 C3511 1.370 . S
C3510 C3514 1.524 . S
C3511 C3503 1.503 . S
C3511 C3510 1.370 . S
C3511 C3512 1.403 . S
C3512 C3511 1.403 . S
C3512 C3513 1.404 . S
C3512 C3515 1.539 . S
C3513 C3509 1.408 . S
C3513 C3512 1.404 . S
C3513 H3525 0.930 . S
C3514 C3510 1.524 . S
C3514 H3526 0.956 . S
C3514 H3527 0.961 . S
C3514 H3528 0.961 . S
C3515 C3512 1.539 . S
C3515 H3529 0.958 . S
C3515 H3530 0.961 . S
C3515 H3531 0.960 . S
H3516 C3500 0.931 . S
H3517 C3505 0.929 . S
H3518 C3506 0.960 . S
H3519 C3506 0.962 . S
H3520 C3506 0.960 . S
H3521 C3507 0.961 . S
H3522 C3507 0.961 . S
H3523 C3507 0.961 . S
H3524 C3508 0.931 . S
H3525 C3513 0.930 . S
H3526 C3514 0.956 . S
H3527 C3514 0.961 . S
H3528 C3514 0.961 . S
H3529 C3515 0.958 . S
H3530 C3515 0.961 . S
H3531 C3515 0.960 . S
C3532 C3533 1.391 . S
C3532 C3534 1.394 . S
C3532 H3548 0.931 . S
C3533 C3532 1.391 . S
C3533 C3537 1.376 . S
C3534 C3532 1.394 . S
C3534 C3535 1.369 . S
C3534 C3538 1.531 . S
C3535 C3534 1.369 . S
C3535 C3536 1.410 . S
C3535 C3543 1.503 . S
C3536 C3535 1.410 . S
C3536 C3537 1.392 . S
C3536 C3539 1.511 . S
C3537 C3533 1.376 . S
C3537 C3536 1.392 . S
C3537 H3549 0.929 . S
C3538 C3534 1.531 . S
C3538 H3550 0.960 . S
C3538 H3551 0.962 . S
C3538 H3552 0.960 . S
C3539 C3536 1.511 . S
C3539 H3553 0.961 . S
C3539 H3554 0.961 . S
C3539 H3555 0.961 . S
C3540 C3541 1.370 . S
C3540 C3542 1.363 . S
C3540 H3556 0.931 . S
C3541 C3540 1.370 . S
C3541 C3545 1.408 . S
C3542 C3540 1.363 . S
C3542 C3543 1.370 . S
C3542 C3546 1.524 . S
C3543 C3535 1.503 . S
C3543 C3542 1.370 . S
C3543 C3544 1.403 . S
C3544 C3543 1.403 . S
C3544 C3545 1.404 . S
C3544 C3547 1.539 . S
C3545 C3541 1.408 . S
C3545 C3544 1.404 . S
C3545 H3557 0.930 . S
C3546 C3542 1.524 . S
C3546 H3558 0.956 . S
C3546 H3559 0.961 . S
C3546 H3560 0.961 . S
C3547 C3544 1.539 . S
C3547 H3561 0.958 . S
C3547 H3562 0.961 . S
C3547 H3563 0.960 . S
H3548 C3532 0.931 . S
H3549 C3537 0.929 . S
H3550 C3538 0.960 . S
H3551 C3538 0.962 . S
H3552 C3538 0.960 . S
H3553 C3539 0.961 . S
H3554 C3539 0.961 . S
H3555 C3539 0.961 . S
H3556 C3540 0.931 . S
H3557 C3545 0.930 . S
H3558 C3546 0.956 . S
H3559 C3546 0.961 . S
H3560 C3546 0.961 . S
H3561 C3547 0.958 . S
H3562 C3547 0.961 . S
H3563 C3547 0.960 . S
C1837 C781 1.401 . S
C1845 C1147 1.357 . S
C1869 C871 1.456 . S
C1877 C1231 1.376 . S
C1901 C751 1.453 . S
C1909 C1311 1.420 . S
C1933 C691 1.402 . S
C1941 C1227 1.381 . S
C1973 C1315 1.323 . S
C1965 C571 1.387 . S
C1997 C601 1.390 . S
C2005 C1143 1.382 . S
C2037 C1136 1.369 . S
C2029 C661 1.372 . S
C2069 C1220 1.380 . S
C2061 C541 1.403 . S
C2093 C631 1.485 . S
C2101 C1322 1.426 . S
C2125 C811 1.407 . S
C2133 C1238 1.390 . S
C2157 C841 1.335 . S
C2165 C1304 1.322 . S
C2197 C1154 1.359 . S
C2189 C721 1.376 . S
C2229 C1399 1.358 . S
C2221 C61 1.421 . S
C2253 C151 1.441 . S
C2261 C1483 1.397 . S
C2285 C31 1.443 . S
C2293 C1563 1.423 . S
C2317 C1051 1.382 . S
C2325 C1479 1.403 . S
C2349 C931 1.359 . S
C2357 C1567 1.328 . S
C2381 C961 1.403 . S
C2389 C1395 1.358 . S
C2413 C1021 1.425 . S
C2421 C1388 1.370 . S
C2445 C901 1.435 . S
C2453 C1472 1.389 . S
C2485 C1574 1.435 . S
C2477 C991 1.484 . S
C2509 C91 1.431 . S
C2517 C1490 1.380 . S
C2549 C1556 1.312 . S
C2541 C121 1.336 . S
C2573 C1 1.382 . S
C2581 C1406 1.358 . S
C2613 C1651 1.376 . S
C2605 C421 1.440 . S
C2637 C511 1.455 . S
C2645 C1735 1.380 . S
C2677 C1815 1.444 . S
C2669 C391 1.413 . S
C2709 C1731 1.390 . S
C2701 C331 1.420 . S
C2741 C1819 1.337 . S
C2733 C211 1.347 . S
C2765 C241 1.402 . S
C2773 C1647 1.384 . S
C2797 C301 1.425 . S
C2805 C1640 1.379 . S
C2829 C181 1.408 . S
C2837 C1724 1.380 . S
C2869 C1826 1.443 . S
C2861 C271 1.461 . S
C2893 C451 1.436 . S
C2901 C1742 1.385 . S
C2925 C481 1.364 . S
C2933 C1808 1.342 . S
C2957 C361 1.381 . S
C2965 C1658 1.378 . S
C2989 C920 1.440 . S
C2997 C1150 1.326 . S
C3029 C1234 1.361 . S
C3021 C980 1.469 . S
C3053 C1040 1.426 . S
C3061 C1306 1.347 . S
C3085 C380 1.462 . S
C3093 C1222 1.364 . S
C3117 C440 1.447 . S
C3125 C1318 1.323 . S
C3157 C1138 1.346 . S
C3149 C500 1.431 . S
C3181 C200 1.445 . S
C3189 C1402 1.332 . S
C3213 C260 1.488 . S
C3221 C1486 1.343 . S
C3245 C320 1.430 . S
C3253 C1558 1.343 . S
C3277 C740 1.486 . S
C3285 C1474 1.368 . S
C3317 C1570 1.323 . S
C3309 C800 1.447 . S
C3341 C860 1.409 . S
C3349 C1390 1.356 . S
C3373 C560 1.444 . S
C3381 C1654 1.329 . S
C3405 C620 1.496 . S
C3413 C1738 1.344 . S
C3445 C1810 1.347 . S
C3437 C680 1.427 . S
C3469 C20 1.486 . S
C3477 C1726 1.369 . S
C3501 C80 1.431 . S
C3509 C1822 1.355 . S
C3533 C140 1.408 . S
C3541 C1642 1.356 . S
