# Generated by pormake.
# Topology eea, (3,6)-cn, num edge types: 1
# Building blocks:
#     Node 0, Type 0, BuildingBlock: ESEHIV_clean_linker_0, # of connection points: 3
#     Node 1, Type 0, BuildingBlock: ESEHIV_clean_linker_0, # of connection points: 3
#     Node 2, Type 0, BuildingBlock: ESEHIV_clean_linker_0, # of connection points: 3
#     Node 3, Type 0, BuildingBlock: ESEHIV_clean_linker_0, # of connection points: 3
#     Node 4, Type 0, BuildingBlock: ESEHIV_clean_linker_0, # of connection points: 3
#     Node 5, Type 0, BuildingBlock: ESEHIV_clean_linker_0, # of connection points: 3
#     Node 6, Type 0, BuildingBlock: ESEHIV_clean_linker_0, # of connection points: 3
#     Node 7, Type 0, BuildingBlock: ESEHIV_clean_linker_0, # of connection points: 3
#     Node 8, Type 0, BuildingBlock: ESEHIV_clean_linker_0, # of connection points: 3
#     Node 9, Type 0, BuildingBlock: ESEHIV_clean_linker_0, # of connection points: 3
#     Node 10, Type 0, BuildingBlock: ESEHIV_clean_linker_0, # of connection points: 3
#     Node 11, Type 0, BuildingBlock: ESEHIV_clean_linker_0, # of connection points: 3
#     Node 12, Type 0, BuildingBlock: ESEHIV_clean_linker_0, # of connection points: 3
#     Node 13, Type 0, BuildingBlock: ESEHIV_clean_linker_0, # of connection points: 3
#     Node 14, Type 0, BuildingBlock: ESEHIV_clean_linker_0, # of connection points: 3
#     Node 15, Type 0, BuildingBlock: ESEHIV_clean_linker_0, # of connection points: 3
#     Node 16, Type 0, BuildingBlock: ESEHIV_clean_linker_0, # of connection points: 3
#     Node 17, Type 0, BuildingBlock: ESEHIV_clean_linker_0, # of connection points: 3
#     Node 18, Type 1, BuildingBlock: CUKXOW_clean_sbu_0, # of connection points: 6
#     Node 19, Type 1, BuildingBlock: CUKXOW_clean_sbu_0, # of connection points: 6
#     Node 20, Type 1, BuildingBlock: CUKXOW_clean_sbu_0, # of connection points: 6
#     Node 21, Type 1, BuildingBlock: CUKXOW_clean_sbu_0, # of connection points: 6
#     Node 22, Type 1, BuildingBlock: CUKXOW_clean_sbu_0, # of connection points: 6
#     Node 23, Type 1, BuildingBlock: CUKXOW_clean_sbu_0, # of connection points: 6
#     Node 24, Type 1, BuildingBlock: CUKXOW_clean_sbu_0, # of connection points: 6
#     Node 25, Type 1, BuildingBlock: CUKXOW_clean_sbu_0, # of connection points: 6
#     Node 26, Type 1, BuildingBlock: CUKXOW_clean_sbu_0, # of connection points: 6
#     Edge 27, Type (0, 1), BuildingBlock: EZIPEK_clean_linker_0, # of connection points: 2
#     Edge 28, Type (0, 1), BuildingBlock: EZIPEK_clean_linker_0, # of connection points: 2
#     Edge 29, Type (0, 1), BuildingBlock: EZIPEK_clean_linker_0, # of connection points: 2
#     Edge 30, Type (0, 1), BuildingBlock: EZIPEK_clean_linker_0, # of connection points: 2
#     Edge 31, Type (0, 1), BuildingBlock: EZIPEK_clean_linker_0, # of connection points: 2
#     Edge 32, Type (0, 1), BuildingBlock: EZIPEK_clean_linker_0, # of connection points: 2
#     Edge 33, Type (0, 1), BuildingBlock: EZIPEK_clean_linker_0, # of connection points: 2
#     Edge 34, Type (0, 1), BuildingBlock: EZIPEK_clean_linker_0, # of connection points: 2
#     Edge 35, Type (0, 1), BuildingBlock: EZIPEK_clean_linker_0, # of connection points: 2
#     Edge 36, Type (0, 1), BuildingBlock: EZIPEK_clean_linker_0, # of connection points: 2
#     Edge 37, Type (0, 1), BuildingBlock: EZIPEK_clean_linker_0, # of connection points: 2
#     Edge 38, Type (0, 1), BuildingBlock: EZIPEK_clean_linker_0, # of connection points: 2
#     Edge 39, Type (0, 1), BuildingBlock: EZIPEK_clean_linker_0, # of connection points: 2
#     Edge 40, Type (0, 1), BuildingBlock: EZIPEK_clean_linker_0, # of connection points: 2
#     Edge 41, Type (0, 1), BuildingBlock: EZIPEK_clean_linker_0, # of connection points: 2
#     Edge 42, Type (0, 1), BuildingBlock: EZIPEK_clean_linker_0, # of connection points: 2
#     Edge 43, Type (0, 1), BuildingBlock: EZIPEK_clean_linker_0, # of connection points: 2
#     Edge 44, Type (0, 1), BuildingBlock: EZIPEK_clean_linker_0, # of connection points: 2
#     Edge 45, Type (0, 1), BuildingBlock: EZIPEK_clean_linker_0, # of connection points: 2
#     Edge 46, Type (0, 1), BuildingBlock: EZIPEK_clean_linker_0, # of connection points: 2
#     Edge 47, Type (0, 1), BuildingBlock: EZIPEK_clean_linker_0, # of connection points: 2
#     Edge 48, Type (0, 1), BuildingBlock: EZIPEK_clean_linker_0, # of connection points: 2
#     Edge 49, Type (0, 1), BuildingBlock: EZIPEK_clean_linker_0, # of connection points: 2
#     Edge 50, Type (0, 1), BuildingBlock: EZIPEK_clean_linker_0, # of connection points: 2
#     Edge 51, Type (0, 1), BuildingBlock: EZIPEK_clean_linker_0, # of connection points: 2
#     Edge 52, Type (0, 1), BuildingBlock: EZIPEK_clean_linker_0, # of connection points: 2
#     Edge 53, Type (0, 1), BuildingBlock: EZIPEK_clean_linker_0, # of connection points: 2
#     Edge 54, Type (0, 1), BuildingBlock: EZIPEK_clean_linker_0, # of connection points: 2
#     Edge 55, Type (0, 1), BuildingBlock: EZIPEK_clean_linker_0, # of connection points: 2
#     Edge 56, Type (0, 1), BuildingBlock: EZIPEK_clean_linker_0, # of connection points: 2
#     Edge 57, Type (0, 1), BuildingBlock: EZIPEK_clean_linker_0, # of connection points: 2
#     Edge 58, Type (0, 1), BuildingBlock: EZIPEK_clean_linker_0, # of connection points: 2
#     Edge 59, Type (0, 1), BuildingBlock: EZIPEK_clean_linker_0, # of connection points: 2
#     Edge 60, Type (0, 1), BuildingBlock: EZIPEK_clean_linker_0, # of connection points: 2
#     Edge 61, Type (0, 1), BuildingBlock: EZIPEK_clean_linker_0, # of connection points: 2
#     Edge 62, Type (0, 1), BuildingBlock: EZIPEK_clean_linker_0, # of connection points: 2
#     Edge 63, Type (0, 1), BuildingBlock: EZIPEK_clean_linker_0, # of connection points: 2
#     Edge 64, Type (0, 1), BuildingBlock: EZIPEK_clean_linker_0, # of connection points: 2
#     Edge 65, Type (0, 1), BuildingBlock: EZIPEK_clean_linker_0, # of connection points: 2
#     Edge 66, Type (0, 1), BuildingBlock: EZIPEK_clean_linker_0, # of connection points: 2
#     Edge 67, Type (0, 1), BuildingBlock: EZIPEK_clean_linker_0, # of connection points: 2
#     Edge 68, Type (0, 1), BuildingBlock: EZIPEK_clean_linker_0, # of connection points: 2
#     Edge 69, Type (0, 1), BuildingBlock: EZIPEK_clean_linker_0, # of connection points: 2
#     Edge 70, Type (0, 1), BuildingBlock: EZIPEK_clean_linker_0, # of connection points: 2
#     Edge 71, Type (0, 1), BuildingBlock: EZIPEK_clean_linker_0, # of connection points: 2
#     Edge 72, Type (0, 1), BuildingBlock: EZIPEK_clean_linker_0, # of connection points: 2
#     Edge 73, Type (0, 1), BuildingBlock: EZIPEK_clean_linker_0, # of connection points: 2
#     Edge 74, Type (0, 1), BuildingBlock: EZIPEK_clean_linker_0, # of connection points: 2
#     Edge 75, Type (0, 1), BuildingBlock: EZIPEK_clean_linker_0, # of connection points: 2
#     Edge 76, Type (0, 1), BuildingBlock: EZIPEK_clean_linker_0, # of connection points: 2
#     Edge 77, Type (0, 1), BuildingBlock: EZIPEK_clean_linker_0, # of connection points: 2
#     Edge 78, Type (0, 1), BuildingBlock: EZIPEK_clean_linker_0, # of connection points: 2
#     Edge 79, Type (0, 1), BuildingBlock: EZIPEK_clean_linker_0, # of connection points: 2
#     Edge 80, Type (0, 1), BuildingBlock: EZIPEK_clean_linker_0, # of connection points: 2
# Relax obj value: 0.018
# Max RMSD: 0.122
# Mean RMSD: 0.066
data_MOF--net-eea--node1-CUKXOW_clean_sbu_0--node2-ESEHIV_clean_linker_0--edge1-EZIPEK_clean_linker_0
_symmetry_space_group_name_H-M    P1
_symmetry_Int_Tables_number       1
_symmetry_cell_setting            triclinic
loop_
_symmetry_equiv_pos_as_xyz
'x, y, z'
_cell_length_a     38.449925
_cell_length_b     35.126452
_cell_length_c     38.926912
_cell_angle_alpha  93.301233
_cell_angle_beta   93.2358
_cell_angle_gamma 120.08837
loop_
_atom_site_label
_atom_site_type_symbol
_atom_site_fract_x
_atom_site_fract_y
_atom_site_fract_z
_atom_type_partial_charge
H0 H 0.28552 0.22442 0.47431 0.0
H1 H 0.2944 0.10698 0.47445 0.0
H2 H 0.2333 0.12582 0.38695 0.0
C3 C 0.28082 0.19398 0.46107 0.0
C4 C 0.25981 0.17912 0.42783 0.0
C5 C 0.29327 0.16781 0.47806 0.0
C6 C 0.28578 0.12768 0.46107 0.0
C7 C 0.26369 0.11206 0.42832 0.0
C8 C 0.25108 0.13812 0.41189 0.0
H9 H 0.81014 0.07802 0.47706 0.0
H10 H 0.91504 0.20815 0.4784 0.0
H11 H 0.88867 0.10712 0.39642 0.0
C12 C 0.83677 0.1016 0.46563 0.0
C13 C 0.84545 0.08872 0.43406 0.0
C14 C 0.86136 0.14474 0.48206 0.0
C15 C 0.89586 0.17457 0.46656 0.0
C16 C 0.90663 0.16042 0.43647 0.0
C17 C 0.88095 0.11778 0.42004 0.0
H18 H 0.81333 0.69633 0.47201 0.0
H19 H 0.92463 0.69443 0.48305 0.0
H20 H 0.89415 0.74062 0.39263 0.0
C21 C 0.84021 0.70017 0.46131 0.0
C22 C 0.85023 0.71799 0.42957 0.0
C23 C 0.86649 0.69059 0.4805 0.0
C24 C 0.90298 0.69903 0.4675 0.0
C25 C 0.91285 0.717 0.43563 0.0
C26 C 0.88591 0.72532 0.41658 0.0
H27 H 0.08067 0.29347 0.53834 0.0
H28 H 0.19766 0.3047 0.55436 0.0
H29 H 0.11263 0.24955 0.62951 0.0
C30 C 0.10281 0.29007 0.55426 0.0
C31 C 0.09302 0.27189 0.58613 0.0
C32 C 0.14099 0.30274 0.54269 0.0
C33 C 0.16873 0.29649 0.56334 0.0
C34 C 0.15817 0.27658 0.5942 0.0
C35 C 0.12081 0.26529 0.60575 0.0
H36 H 0.73224 0.91372 0.54855 0.0
H37 H 0.73107 0.79088 0.55352 0.0
H38 H 0.77863 0.88843 0.64189 0.0
C39 C 0.73818 0.89164 0.56285 0.0
C40 C 0.75577 0.90522 0.59711 0.0
C41 C 0.72814 0.84998 0.54691 0.0
C42 C 0.73784 0.82271 0.56565 0.0
C43 C 0.75715 0.83684 0.59972 0.0
C44 C 0.76446 0.87746 0.61556 0.0
H45 H 0.09626 0.78558 0.55794 0.0
H46 H 0.20322 0.9131 0.55843 0.0
H47 H 0.1315 0.88403 0.64434 0.0
C48 C 0.11786 0.8176 0.57136 0.0
C49 C 0.10963 0.8313 0.60324 0.0
C50 C 0.15188 0.84707 0.55516 0.0
C51 C 0.17818 0.88963 0.57156 0.0
C52 C 0.17139 0.90283 0.60404 0.0
C53 C 0.13745 0.87328 0.61982 0.0
H54 H 0.95268 0.54809 0.80748 0.0
H55 H 0.94065 0.41942 0.80333 0.0
H56 H 0.89874 0.45851 0.71478 0.0
C57 C 0.94443 0.517 0.79294 0.0
C58 C 0.92456 0.50674 0.75921 0.0
C59 C 0.95091 0.48571 0.80875 0.0
C60 C 0.93739 0.4443 0.79065 0.0
C61 C 0.91909 0.43454 0.75653 0.0
C62 C 0.91371 0.46634 0.7408 0.0
H63 H 0.4803 0.4274 0.81621 0.0
H64 H 0.58791 0.55311 0.8089 0.0
H65 H 0.54833 0.44596 0.72899 0.0
C66 C 0.50578 0.4489 0.80255 0.0
C67 C 0.51019 0.43286 0.77033 0.0
C68 C 0.5333 0.49238 0.81697 0.0
C69 C 0.56632 0.51945 0.7985 0.0
C70 C 0.5725 0.50213 0.76732 0.0
C71 C 0.54399 0.45916 0.75322 0.0
H72 H 0.47583 0.04779 0.81707 0.0
H73 H 0.57676 0.02588 0.81376 0.0
H74 H 0.5531 0.09338 0.73542 0.0
C75 C 0.50145 0.05047 0.80475 0.0
C76 C 0.51071 0.07016 0.77364 0.0
C77 C 0.52498 0.03402 0.81975 0.0
C78 C 0.55818 0.03824 0.80293 0.0
C79 C 0.56917 0.06129 0.77341 0.0
C80 C 0.54495 0.07627 0.75859 0.0
H81 H 0.76167 0.64878 0.89099 0.0
H82 H 0.87458 0.65052 0.89113 0.0
H83 H 0.80022 0.59915 0.97431 0.0
C84 C 0.78474 0.64409 0.90398 0.0
C85 C 0.77775 0.62437 0.93523 0.0
C86 C 0.82022 0.65464 0.88824 0.0
C87 C 0.84852 0.64521 0.90411 0.0
C88 C 0.8412 0.6252 0.93519 0.0
C89 C 0.80639 0.61589 0.95091 0.0
H90 H 0.40333 0.25493 0.88583 0.0
H91 H 0.39296 0.12731 0.88935 0.0
H92 H 0.45475 0.22768 0.97509 0.0
C93 C 0.4089 0.23202 0.89929 0.0
C94 C 0.42968 0.24565 0.93244 0.0
C95 C 0.39459 0.18906 0.88361 0.0
C96 C 0.40334 0.16036 0.90124 0.0
C97 C 0.42621 0.17449 0.93384 0.0
C98 C 0.43798 0.21674 0.9497 0.0
H99 H 0.74906 0.12124 0.88359 0.0
H100 H 0.86398 0.24122 0.88635 0.0
H101 H 0.79564 0.21418 0.97461 0.0
C102 C 0.77338 0.15115 0.8978 0.0
C103 C 0.76848 0.16452 0.93119 0.0
C104 C 0.8087 0.17812 0.88194 0.0
C105 C 0.83821 0.21899 0.89939 0.0
C106 C 0.83378 0.23225 0.93288 0.0
C107 C 0.79956 0.20389 0.94901 0.0
H108 H 0.61931 0.88589 0.14142 0.0
H109 H 0.62817 0.76948 0.13452 0.0
H110 H 0.56527 0.79318 0.05156 0.0
C111 C 0.61452 0.85639 0.12643 0.0
C112 C 0.5928 0.84339 0.09348 0.0
C113 C 0.62686 0.82907 0.14114 0.0
C114 C 0.62074 0.79108 0.1214 0.0
C115 C 0.60285 0.77966 0.08679 0.0
C116 C 0.58549 0.80422 0.07498 0.0
H117 H 0.14796 0.74965 0.15368 0.0
H118 H 0.24851 0.87932 0.14324 0.0
H119 H 0.21595 0.771 0.06605 0.0
C120 C 0.17267 0.77195 0.13965 0.0
C121 C 0.17793 0.75639 0.10756 0.0
C122 C 0.19805 0.81635 0.15309 0.0
C123 C 0.22919 0.8448 0.13367 0.0
C124 C 0.2368 0.82828 0.10279 0.0
C125 C 0.21094 0.78394 0.09005 0.0
H126 H 0.15452 0.38553 0.15097 0.0
H127 H 0.25544 0.36319 0.14809 0.0
H128 H 0.23458 0.43477 0.07181 0.0
C129 C 0.18074 0.38885 0.13936 0.0
C130 C 0.19113 0.40998 0.10903 0.0
C131 C 0.20288 0.37048 0.15381 0.0
C132 C 0.23766 0.37691 0.13815 0.0
C133 C 0.24998 0.40177 0.10949 0.0
C134 C 0.22593 0.41697 0.09461 0.0
H135 H 0.43189 0.98077 0.22742 0.0
H136 H 0.5402 0.97405 0.22059 0.0
H137 H 0.46754 0.92085 0.30458 0.0
C138 C 0.45393 0.97319 0.23857 0.0
C139 C 0.44653 0.95116 0.26879 0.0
C140 C 0.48802 0.98198 0.22111 0.0
C141 C 0.51498 0.96929 0.23464 0.0
C142 C 0.50763 0.94721 0.26477 0.0
C143 C 0.47382 0.93896 0.28191 0.0
H144 H 0.07668 0.58944 0.21595 0.0
H145 H 0.06348 0.46076 0.22187 0.0
H146 H 0.12461 0.56165 0.30718 0.0
C147 C 0.08146 0.5664 0.22998 0.0
C148 C 0.10142 0.58007 0.26353 0.0
C149 C 0.06667 0.523 0.21479 0.0
C150 C 0.07425 0.49412 0.23328 0.0
C151 C 0.09644 0.5083 0.26613 0.0
C152 C 0.10854 0.55082 0.28151 0.0
H153 H 0.42429 0.46263 0.21483 0.0
H154 H 0.54589 0.57082 0.23227 0.0
H155 H 0.46327 0.54371 0.31034 0.0
C156 C 0.44861 0.48911 0.23208 0.0
C157 C 0.44108 0.49976 0.26496 0.0
C158 C 0.48683 0.51486 0.22058 0.0
C159 C 0.51779 0.54981 0.2429 0.0
C160 C 0.51181 0.55916 0.27733 0.0
C161 C 0.47201 0.53499 0.28676 0.0
Tb162 Tb 0.54529 0.03898 0.01816 0.0
C163 C 0.52558 0.94311 0.03311 0.0
Tb164 Tb 0.45703 0.9667 0.01599 0.0
O165 O 0.54425 0.06529 0.07137 0.0
O166 O 0.50589 1.00097 0.05454 0.0
O167 O 0.55184 0.98099 0.02183 0.0
C168 C 0.38087 0.92874 0.0337 0.0
O169 O 0.48761 0.93257 0.03689 0.0
C170 C 0.48687 0.9723 0.95567 0.0
C171 C 0.47925 0.06307 0.99765 0.0
O172 O 0.39726 0.90779 0.01959 0.0
O173 O 0.4072 0.97054 0.0374 0.0
O174 O 0.45578 0.93693 0.96439 0.0
O175 O 0.4959 0.003 0.97906 0.0
O176 O 0.45383 0.02737 1.01215 0.0
O177 O 0.516 0.07086 0.99247 0.0
C178 C 0.62092 0.08369 0.99978 0.0
O179 O 0.60198 0.1016 0.01399 0.0
O180 O 0.59788 0.04123 0.99747 0.0
C181 C 0.51276 0.02931 0.07912 0.0
Tb182 Tb 0.96852 0.50862 0.01747 0.0
C183 C 0.06045 0.58344 0.04071 0.0
Tb184 Tb 0.03687 0.48536 0.01405 0.0
O185 O 0.95101 0.47914 0.06624 0.0
O186 O 0.00938 0.50366 0.05302 0.0
O187 O 0.02198 0.57293 0.03568 0.0
C188 C 0.08899 0.46091 0.03511 0.0
O189 O 0.07273 0.55458 0.03498 0.0
C190 C 0.0126 0.49699 0.95128 0.0
C191 C 0.94693 0.41013 0.9972 0.0
O192 O 0.09869 0.49765 0.02181 0.0
O193 O 0.05014 0.43744 0.03502 0.0
O194 O 0.04087 0.48728 0.95703 0.0
O195 O 1.00115 0.49894 0.98054 0.0
O196 O 0.98279 0.42038 1.01204 0.0
O197 O 0.93639 0.44037 0.99313 0.0
C198 C 0.92819 0.54874 0.99857 0.0
O199 O 0.91472 0.5154 0.01719 0.0
O200 O 0.96418 0.55953 0.99111 0.0
C201 C 0.98592 0.48297 0.07527 0.0
Tb202 Tb 0.46726 0.50248 0.0149 0.0
C203 C 0.48348 0.42359 0.99263 0.0
Tb204 Tb 0.55344 0.52042 0.01725 0.0
O205 O 0.46858 0.52821 0.96492 0.0
O206 O 0.5055 0.50241 0.97775 0.0
O207 O 0.45688 0.43553 1.00076 0.0
C208 C 0.62907 0.55338 1.00041 0.0
O209 O 0.5227 0.45248 0.99374 0.0
C210 C 0.52043 0.50334 0.07715 0.0
C211 C 0.53908 0.60118 0.02906 0.0
O212 O 0.60794 0.51539 1.0125 0.0
O213 O 0.60816 0.57277 0.99912 0.0
O214 O 0.5505 0.49812 0.06973 0.0
O215 O 0.51557 0.52315 0.05324 0.0
O216 O 0.56415 0.58743 0.02088 0.0
O217 O 0.49999 0.57382 0.03113 0.0
C218 C 0.39541 0.46619 0.04019 0.0
O219 O 0.40695 0.49478 0.01728 0.0
O220 O 0.42402 0.45818 0.04848 0.0
C221 C 0.49843 0.52344 0.95568 0.0
Tb222 Tb 0.21496 0.37144 0.34541 0.0
C223 C 0.1942 0.27298 0.35742 0.0
Tb224 Tb 0.12716 0.29934 0.34796 0.0
O225 O 0.21791 0.39916 0.39894 0.0
O226 O 0.17925 0.33346 0.38293 0.0
O227 O 0.22047 0.31235 0.34793 0.0
C228 C 0.05661 0.25779 0.37472 0.0
O229 O 0.15742 0.26388 0.3643 0.0
C230 C 0.15373 0.30394 0.28623 0.0
C231 C 0.1467 0.39452 0.32899 0.0
O232 O 0.06544 0.24298 0.34712 0.0
O233 O 0.08715 0.29579 0.38684 0.0
O234 O 0.12308 0.26859 0.29568 0.0
O235 O 0.1634 0.33506 0.30935 0.0
O236 O 0.12159 0.35838 0.34328 0.0
O237 O 0.18339 0.40279 0.3227 0.0
C238 C 0.28874 0.41538 0.32437 0.0
O239 O 0.27161 0.43365 0.34107 0.0
O240 O 0.26486 0.37309 0.32049 0.0
C241 C 0.18807 0.36247 0.40739 0.0
Tb242 Tb 0.64225 0.83478 0.34251 0.0
C243 C 0.73273 0.91409 0.36624 0.0
Tb244 Tb 0.7116 0.81749 0.34274 0.0
O245 O 0.62398 0.80717 0.39169 0.0
O246 O 0.68415 0.83614 0.38142 0.0
O247 O 0.6948 0.90232 0.35563 0.0
C248 C 0.76049 0.78642 0.35895 0.0
O249 O 0.7449 0.8849 0.36699 0.0
C250 C 0.68912 0.8331 0.28181 0.0
C251 C 0.62272 0.73673 0.3316 0.0
O252 O 0.77221 0.82578 0.35004 0.0
O253 O 0.72158 0.76444 0.35722 0.0
O254 O 0.72492 0.83948 0.29032 0.0
O255 O 0.66792 0.81364 0.30531 0.0
O256 O 0.66032 0.75134 0.34429 0.0
O257 O 0.60925 0.76402 0.32455 0.0
C258 C 0.59787 0.86793 0.31794 0.0
O259 O 0.59054 0.84519 0.34459 0.0
O260 O 0.62974 0.87164 0.30526 0.0
C261 C 0.6597 0.8147 0.40296 0.0
Tb262 Tb 0.13569 0.83299 0.34978 0.0
C263 C 0.15567 0.75703 0.32728 0.0
Tb264 Tb 0.2233 0.8548 0.35377 0.0
O265 O 0.13764 0.8599 0.30036 0.0
O266 O 0.17557 0.83552 0.31357 0.0
O267 O 0.12803 0.76742 0.33514 0.0
C268 C 0.29923 0.88832 0.33672 0.0
O269 O 0.19473 0.78704 0.3295 0.0
C270 C 0.1878 0.83376 0.41281 0.0
C271 C 0.20592 0.933 0.36837 0.0
O272 O 0.279 0.85162 0.35083 0.0
O273 O 0.27723 0.90635 0.33351 0.0
O274 O 0.21944 0.83116 0.40605 0.0
O275 O 0.18297 0.85369 0.38899 0.0
O276 O 0.23261 0.92159 0.36002 0.0
O277 O 0.16695 0.90358 0.3693 0.0
C278 C 0.06152 0.79157 0.37078 0.0
O279 O 0.07457 0.82338 0.35057 0.0
O280 O 0.08996 0.78312 0.37865 0.0
C281 C 0.16792 0.8559 0.29133 0.0
Tb282 Tb 0.88322 0.70975 0.68691 0.0
C283 C 0.86318 0.61255 0.7005 0.0
Tb284 Tb 0.79452 0.63542 0.6811 0.0
O285 O 0.88179 0.73362 0.74018 0.0
O286 O 0.84234 0.66921 0.72124 0.0
O287 O 0.89048 0.65266 0.69364 0.0
C288 C 0.71737 0.58909 0.6962 0.0
O289 O 0.82421 0.59993 0.70088 0.0
C290 C 0.82907 0.64983 0.62184 0.0
C291 C 0.81448 0.73302 0.67015 0.0
O292 O 0.73593 0.5733 0.67857 0.0
O293 O 0.74192 0.63103 0.70414 0.0
O294 O 0.79709 0.61305 0.6274 0.0
O295 O 0.83518 0.67685 0.64728 0.0
O296 O 0.78829 0.69416 0.68024 0.0
O297 O 0.85319 0.74534 0.66881 0.0
C298 C 0.95656 0.74472 0.66394 0.0
O299 O 0.94506 0.76601 0.68473 0.0
O300 O 0.92711 0.70445 0.65687 0.0
C301 C 0.8492 0.69739 0.74626 0.0
Tb302 Tb 0.29924 0.18125 0.68569 0.0
C303 C 0.39024 0.25787 0.70863 0.0
Tb304 Tb 0.36639 0.16091 0.68335 0.0
O305 O 0.28096 0.15231 0.73452 0.0
O306 O 0.34041 0.17942 0.72324 0.0
O307 O 0.3527 0.24768 0.69855 0.0
C308 C 0.41514 0.12987 0.70013 0.0
O309 O 0.40109 0.22759 0.70889 0.0
C310 C 0.34603 0.18248 0.62362 0.0
C311 C 0.27729 0.08264 0.66691 0.0
O312 O 0.42622 0.16676 0.68667 0.0
O313 O 0.37673 0.10994 0.70227 0.0
O314 O 0.38071 0.18573 0.63201 0.0
O315 O 0.32398 0.16144 0.64629 0.0
O316 O 0.31403 0.09442 0.68034 0.0
O317 O 0.26612 0.11234 0.6627 0.0
C318 C 0.25465 0.21647 0.66626 0.0
O319 O 0.24382 0.18478 0.68631 0.0
O320 O 0.29063 0.22871 0.65787 0.0
C321 C 0.3161 0.15748 0.74455 0.0
Tb322 Tb 0.78422 0.158 0.67747 0.0
C323 C 0.80459 0.08133 0.65822 0.0
Tb324 Tb 0.87515 0.17909 0.67877 0.0
O325 O 0.77389 0.16177 0.62171 0.0
O326 O 0.8275 0.17035 0.6438 0.0
O327 O 0.77707 0.09251 0.66474 0.0
C328 C 0.94609 0.20481 0.65381 0.0
O329 O 0.84406 0.10931 0.66197 0.0
C330 C 0.84075 0.15967 0.73836 0.0
C331 C 0.85719 0.25749 0.69034 0.0
O332 O 0.91102 0.17499 0.63889 0.0
O333 O 0.94155 0.21917 0.68391 0.0
O334 O 0.87201 0.15613 0.73127 0.0
O335 O 0.83466 0.1779 0.71372 0.0
O336 O 0.88257 0.24494 0.6799 0.0
O337 O 0.81815 0.22941 0.69261 0.0
C338 C 0.71413 0.1247 0.70452 0.0
O339 O 0.72707 0.15599 0.68379 0.0
O340 O 0.74058 0.11249 0.7099 0.0
C341 C 0.80931 0.16825 0.61513 0.0
C342 C 0.26932 0.86108 0.0486 0.0
C343 C 0.27301 0.85657 0.08455 0.0
C344 C 0.34487 0.91056 0.08737 0.0
C345 C 0.3429 0.9079 0.05077 0.0
N346 N 0.30272 0.87799 0.9958 0.0
N347 N 0.31799 0.86706 0.13476 0.0
C348 C 0.30492 0.88208 0.03106 0.0
C349 C 0.31183 0.87861 0.1031 0.0
N350 N 0.23227 0.8471 0.03158 0.0
N351 N 0.37756 0.94363 0.10739 0.0
H352 H 0.29564 0.83948 0.145 0.0
H353 H 0.34658 0.88078 0.14815 0.0
H354 H 0.40093 0.97026 0.09719 0.0
H355 H 0.37853 0.94754 0.13426 0.0
H356 H 0.22831 0.85289 1.00611 0.0
H357 H 0.20592 0.83396 0.04405 0.0
H358 H 0.27628 0.85592 0.98028 0.0
H359 H 0.32797 0.89486 0.98224 0.0
C360 C 0.134 0.39287 0.06516 0.0
C361 C 0.16463 0.42327 0.09087 0.0
C362 C 0.14576 0.4789 0.08028 0.0
C363 C 0.11723 0.44966 0.05268 0.0
N364 N 0.08883 0.38213 0.01481 0.0
N365 N 0.20412 0.49692 0.11989 0.0
C366 C 0.11255 0.40747 0.04405 0.0
C367 C 0.17193 0.46689 0.09746 0.0
N368 N 0.12511 0.34987 0.06123 0.0
N369 N 0.14623 0.51678 0.0916 0.0
H370 H 0.22288 0.48875 0.13408 0.0
H371 H 0.21393 0.53057 0.12266 0.0
H372 H 0.12674 0.52632 0.08076 0.0
H373 H 0.1632 0.53672 0.114 0.0
H374 H 0.10008 0.32493 0.04579 0.0
H375 H 0.14103 0.3382 0.07544 0.0
H376 H 0.08739 0.35307 1.00511 0.0
H377 H 0.07338 0.39221 0.99824 0.0
C378 C 0.61074 0.71167 0.07894 0.0
C379 C 0.59693 0.73875 0.06541 0.0
C380 C 0.55175 0.67759 0.02183 0.0
C381 C 0.55778 0.64836 0.04158 0.0
N382 N 0.59275 0.63789 0.09065 0.0
N383 N 0.58151 0.75343 1.00866 0.0
C384 C 0.58745 0.66548 0.07048 0.0
C385 C 0.57476 0.72378 0.03222 0.0
N386 N 0.64877 0.73033 0.09527 0.0
N387 N 0.52447 0.66155 0.9932 0.0
H388 H 0.6041 0.78659 0.01387 0.0
H389 H 0.56914 0.74428 0.98297 0.0
H390 H 0.50825 0.62809 0.98408 0.0
H391 H 0.51619 0.68124 0.98001 0.0
H392 H 0.66169 0.71179 0.10284 0.0
H393 H 0.66883 0.7644 0.0968 0.0
H394 H 0.61186 0.64947 0.11361 0.0
H395 H 0.57541 0.60353 0.08631 0.0
C396 C 0.90505 0.29259 0.95435 0.0
C397 C 0.8631 0.27748 0.95005 0.0
C398 C 0.87616 0.34544 0.98334 0.0
C399 C 0.91838 0.36363 0.98241 0.0
N400 N 0.97151 0.35687 0.95682 0.0
N401 N 0.81094 0.29683 0.95216 0.0
C402 C 0.93262 0.33791 0.96519 0.0
C403 C 0.84919 0.30599 0.96214 0.0
N404 N 0.91874 0.26384 0.94881 0.0
N405 N 0.86153 0.36468 1.00519 0.0
H406 H 0.79114 0.27025 0.93435 0.0
H407 H 0.80088 0.31876 0.95829 0.0
H408 H 0.88015 0.39159 0.02322 0.0
H409 H 0.83085 0.35035 1.00832 0.0
H410 H 0.94891 0.273 0.95451 0.0
H411 H 0.89943 0.23001 0.94222 0.0
H412 H 0.98177 0.33959 0.94189 0.0
H413 H 0.9919 0.39075 0.96052 0.0
C414 C 0.70815 0.56188 0.94162 0.0
C415 C 0.73841 0.60696 0.95001 0.0
C416 C 0.69947 0.61412 0.99508 0.0
C417 C 0.66786 0.57004 0.98498 0.0
N418 N 0.63866 0.50465 0.9442 0.0
N419 N 0.76108 0.67794 0.98101 0.0
C420 C 0.67129 0.54445 0.95719 0.0
C421 C 0.73345 0.63371 0.97561 0.0
N422 N 0.71492 0.53546 0.91911 0.0
N423 N 0.69769 0.6366 0.02418 0.0
H424 H 0.78662 0.69307 0.96753 0.0
H425 H 0.75717 0.70027 0.99667 0.0
H426 H 0.67375 0.6229 0.03956 0.0
H427 H 0.72141 0.66716 0.03494 0.0
H428 H 0.69649 0.5012 0.91544 0.0
H429 H 0.74048 0.5474 0.90564 0.0
H430 H 0.63798 0.48707 0.92146 0.0
H431 H 0.61068 0.49087 0.95404 0.0
C432 C 0.48079 0.16266 0.96185 0.0
C433 C 0.4393 0.14589 0.95097 0.0
C434 C 0.42458 0.0731 0.96673 0.0
C435 C 0.46475 0.09167 0.9828 0.0
N436 N 0.52753 0.15847 1.00336 0.0
N437 N 0.3703 0.08711 0.95242 0.0
C438 C 0.49184 0.13779 0.98271 0.0
C439 C 0.41069 0.10172 0.95636 0.0
N440 N 0.50999 0.20124 0.9511 0.0
N441 N 0.40033 0.02848 0.95895 0.0
H442 H 0.35889 0.1076 0.94651 0.0
H443 H 0.34864 0.05614 0.95891 0.0
H444 H 0.41018 0.00609 0.96218 0.0
H445 H 0.37212 0.01436 0.9448 0.0
H446 H 0.54073 0.21255 0.95617 0.0
H447 H 0.50367 0.21905 0.93379 0.0
H448 H 0.54662 0.1927 1.00592 0.0
H449 H 0.53554 0.14234 0.02106 0.0
C450 C 0.72271 0.10948 0.97002 0.0
C451 C 0.72913 0.14121 0.94652 0.0
C452 C 0.66425 0.13537 0.95757 0.0
C453 C 0.6595 0.10644 0.98333 0.0
N454 N 0.68684 0.07087 0.01774 0.0
N455 N 0.70858 0.18828 0.92026 0.0
C456 C 0.6894 0.09467 0.99042 0.0
C457 C 0.70061 0.15528 0.94102 0.0
N458 N 0.7483 0.09314 0.97247 0.0
N459 N 0.63313 0.14183 0.94727 0.0
H460 H 0.73331 0.20155 0.90575 0.0
H461 H 0.69208 0.20437 0.91893 0.0
H462 H 0.60553 0.12717 0.95777 0.0
H463 H 0.63296 0.15826 0.9259 0.0
H464 H 0.74315 0.06661 0.98633 0.0
H465 H 0.77319 0.10379 0.9582 0.0
H466 H 0.70951 0.06482 0.02653 0.0
H467 H 0.66356 0.06052 0.03382 0.0
C468 C 0.89953 0.63363 0.97411 0.0
C469 C 0.86615 0.6073 0.94924 0.0
C470 C 0.87019 0.54148 0.96016 0.0
C471 C 0.90507 0.56821 0.98368 0.0
N472 N 0.95586 0.64025 1.01075 0.0
N473 N 0.82379 0.53853 0.91384 0.0
C474 C 0.92072 0.61453 0.98984 0.0
C475 C 0.85269 0.56188 0.9409 0.0
N476 N 0.91003 0.67646 0.98346 0.0
N477 N 0.85352 0.49656 0.95626 0.0
H478 H 0.80999 0.55223 0.89934 0.0
H479 H 0.81593 0.50688 0.90367 0.0
H480 H 0.8661 0.48004 0.96841 0.0
H481 H 0.82544 0.47498 0.94283 0.0
H482 H 0.9309 0.69607 1.00428 0.0
H483 H 0.8961 0.69185 0.97146 0.0
H484 H 0.97159 0.67465 0.01286 0.0
H485 H 0.97053 0.62722 0.025 0.0
C486 C 0.42702 0.29753 0.97846 0.0
C487 C 0.44371 0.2911 0.94854 0.0
C488 C 0.48093 0.37099 0.94479 0.0
C489 C 0.46855 0.37781 0.97717 0.0
N490 N 0.43503 0.34752 0.02781 0.0
N491 N 0.49306 0.32238 0.90737 0.0
C492 C 0.44293 0.34106 0.99486 0.0
C493 C 0.47263 0.32806 0.93292 0.0
N494 N 0.39506 0.26234 0.99053 0.0
N495 N 0.49881 0.40494 0.92445 0.0
H496 H 0.48862 0.29152 0.89849 0.0
H497 H 0.51723 0.34869 0.89748 0.0
H498 H 0.50351 0.43643 0.93119 0.0
H499 H 0.50472 0.40057 0.89917 0.0
H500 H 0.37902 0.26574 1.01 0.0
H501 H 0.38212 0.23004 0.97895 0.0
H502 H 0.41996 0.32182 0.04317 0.0
H503 H 0.44675 0.3788 0.04104 0.0
C504 C 0.1438 0.67358 0.10438 0.0
C505 C 0.14732 0.71189 0.09102 0.0
C506 C 0.09606 0.66611 0.04314 0.0
C507 C 0.09017 0.62768 0.05803 0.0
N508 N 0.10156 0.59493 0.10733 0.0
N509 N 0.12077 0.74462 0.05234 0.0
C510 C 0.11215 0.63136 0.08993 0.0
C511 C 0.12167 0.70817 0.06172 0.0
N512 N 0.17125 0.67745 0.13028 0.0
N513 N 0.07843 0.6626 1.01071 0.0
H514 H 0.13851 0.77594 0.0657 0.0
H515 H 0.09968 0.74304 0.03344 0.0
H516 H 0.05994 0.63237 0.996 0.0
H517 H 0.08511 0.68978 0.99712 0.0
H518 H 0.1727 0.65052 0.13848 0.0
H519 H 0.19483 0.7079 0.14159 0.0
H520 H 0.11368 0.59654 0.13236 0.0
H521 H 0.07774 0.56354 0.09834 0.0
C522 C 0.32076 0.46003 0.10285 0.0
C523 C 0.28935 0.41537 0.09549 0.0
C524 C 0.32898 0.40302 0.05362 0.0
C525 C 0.35791 0.44903 0.05785 0.0
N526 N 0.37968 0.52247 0.08406 0.0
N527 N 0.26132 0.34472 0.06219 0.0
C528 C 0.35332 0.47789 0.08177 0.0
C529 C 0.29298 0.38678 0.0706 0.0
N530 N 0.31967 0.4851 0.13053 0.0
N531 N 0.33592 0.37485 0.03338 0.0
H532 H 0.23513 0.33145 0.07489 0.0
H533 H 0.25996 0.32384 0.0414 0.0
H534 H 0.36066 0.38569 0.01893 0.0
H535 H 0.31848 0.34056 0.03244 0.0
H536 H 0.34353 0.51642 0.13962 0.0
H537 H 0.29632 0.47283 0.14661 0.0
H538 H 0.37545 0.54559 0.09829 0.0
H539 H 0.4043 0.53695 0.06956 0.0
C540 C 0.58482 0.88363 0.04452 0.0
C541 C 0.57595 0.86947 0.07814 0.0
C542 C 0.53933 0.90908 0.08346 0.0
C543 C 0.54183 0.9164 0.048 0.0
N544 N 0.56243 0.90424 0.99306 0.0
N545 N 0.53516 0.85986 0.1257 0.0
C546 C 0.56323 0.9017 0.02793 0.0
C547 C 0.55012 0.87928 0.09642 0.0
N548 N 0.61502 0.88173 0.02907 0.0
N549 N 0.53048 0.93369 0.10564 0.0
H550 H 0.54049 0.83591 0.13523 0.0
H551 H 0.51387 0.86414 0.13816 0.0
H552 H 0.52938 0.9609 0.09792 0.0
H553 H 0.53096 0.93156 0.13226 0.0
H554 H 0.6249 0.89519 1.00594 0.0
H555 H 0.63317 0.8712 0.04117 0.0
H556 H 0.57461 0.89033 0.97679 0.0
H557 H 0.54605 0.91629 0.98008 0.0
C558 C 0.98202 0.19462 0.43902 0.0
C559 C 0.94571 0.18913 0.42242 0.0
C560 C 0.98186 0.22709 0.37374 0.0
C561 C 0.01846 0.23439 0.39113 0.0
N562 N 0.05507 0.23162 0.44259 0.0
N563 N 0.91173 0.20632 0.37743 0.0
C564 C 0.01909 0.22049 0.42462 0.0
C565 C 0.94585 0.20718 0.39071 0.0
N566 N 0.98075 0.17291 0.46743 0.0
N567 N 0.98152 0.23913 0.34098 0.0
H568 H 0.88502 0.1923 0.38943 0.0
H569 H 0.91066 0.22261 0.35625 0.0
H570 H 0.00761 0.25619 0.3285 0.0
H571 H 0.95521 0.23013 0.32531 0.0
H572 H 0.00534 0.17148 0.47842 0.0
H573 H 0.9542 0.15309 0.47855 0.0
H574 H 0.05795 0.2277 0.46873 0.0
H575 H 0.08269 0.24734 0.43211 0.0
C576 C 0.79621 0.70855 0.38502 0.0
C577 C 0.82681 0.73538 0.4119 0.0
C578 C 0.81467 0.79656 0.404 0.0
C579 C 0.78616 0.7709 0.37524 0.0
N580 N 0.75495 0.70574 0.33439 0.0
N581 N 0.87063 0.80714 0.44318 0.0
C582 C 0.77832 0.72772 0.36465 0.0
C583 C 0.83779 0.78013 0.42015 0.0
N584 N 0.78393 0.66465 0.37931 0.0
N585 N 0.81792 0.83519 0.41748 0.0
H586 H 0.88744 0.79605 0.45678 0.0
H587 H 0.88315 0.84129 0.44686 0.0
H588 H 0.80027 0.84776 0.408 0.0
H589 H 0.83521 0.85272 0.44052 0.0
H590 H 0.75881 0.64222 0.3626 0.0
H591 H 0.79703 0.64984 0.39339 0.0
H592 H 0.75119 0.67597 0.32354 0.0
H593 H 0.74232 0.71932 0.31828 0.0
C594 C 0.22649 0.02978 0.43133 0.0
C595 C 0.24987 0.0664 0.41267 0.0
C596 C 0.24094 0.01503 0.36281 0.0
C597 C 0.22168 0.97919 0.38318 0.0
N598 N 0.21084 0.956 0.44063 0.0
N599 N 0.28669 0.09387 0.36291 0.0
C600 C 0.2186 0.98749 0.41856 0.0
C601 C 0.25926 0.05908 0.37895 0.0
N602 N 0.21048 0.03473 0.46055 0.0
N603 N 0.24099 0.00707 0.32808 0.0
H604 H 0.30182 0.12635 0.37445 0.0
H605 H 0.29736 0.08996 0.33972 0.0
H606 H 0.22744 0.97518 0.31556 0.0
H607 H 0.25123 0.03187 0.3114 0.0
H608 H 0.19057 0.00788 0.47317 0.0
H609 H 0.21322 0.06464 0.46983 0.0
H610 H 0.21124 0.9618 0.46727 0.0
H611 H 0.20964 0.92648 0.43283 0.0
C612 C 0.53802 0.61732 0.33026 0.0
C613 C 0.54548 0.59794 0.30075 0.0
C614 C 0.61041 0.66576 0.29992 0.0
C615 C 0.59685 0.68846 0.32213 0.0
N616 N 0.54859 0.68433 0.36126 0.0
N617 N 0.6012 0.59449 0.27944 0.0
C618 C 0.56077 0.66387 0.33805 0.0
C619 C 0.58565 0.61933 0.29193 0.0
N620 N 0.51605 0.5913 0.35453 0.0
N621 N 0.64567 0.6883 0.28497 0.0
H622 H 0.58429 0.55996 0.27704 0.0
H623 H 0.63158 0.60755 0.27571 0.0
H624 H 0.66536 0.72224 0.28972 0.0
H625 H 0.65392 0.67358 0.26556 0.0
H626 H 0.51258 0.60399 0.37813 0.0
H627 H 0.50712 0.55779 0.35312 0.0
H628 H 0.52041 0.66778 0.3708 0.0
H629 H 0.56561 0.71799 0.36955 0.0
C630 C 0.37603 0.89131 0.27713 0.0
C631 C 0.40796 0.9358 0.28495 0.0
C632 C 0.37039 0.94715 0.32958 0.0
C633 C 0.33751 0.90351 0.32036 0.0
N634 N 0.30571 0.83697 0.2808 0.0
N635 N 0.43402 0.00797 0.31517 0.0
C636 C 0.33948 0.87623 0.29303 0.0
C637 C 0.4046 0.96433 0.31013 0.0
N638 N 0.38082 0.86321 0.2547 0.0
N639 N 0.3695 0.97154 0.35784 0.0
H640 H 0.45993 0.02126 0.30209 0.0
H641 H 0.43155 0.03173 0.33032 0.0
H642 H 0.3452 0.95983 0.37287 0.0
H643 H 0.39397 1.00179 0.36822 0.0
H644 H 0.36109 0.82917 0.25137 0.0
H645 H 0.40599 0.87343 0.24089 0.0
H646 H 0.30385 0.81813 0.25838 0.0
H647 H 0.27801 0.82495 0.29098 0.0
C648 C 0.07918 0.43535 0.28909 0.0
C649 C 0.10849 0.47935 0.28394 0.0
C650 C 0.15976 0.4698 0.31619 0.0
C651 C 0.13221 0.4237 0.3155 0.0
N652 N 0.06729 0.36145 0.29142 0.0
N653 N 0.17961 0.53391 0.28513 0.0
C654 C 0.09219 0.40595 0.29939 0.0
C655 C 0.14969 0.49542 0.2954 0.0
N656 N 0.03898 0.42162 0.28484 0.0
N657 N 0.19505 0.48963 0.33735 0.0
H658 H 0.17411 0.5522 0.26773 0.0
H659 H 0.21018 0.54466 0.29069 0.0
H660 H 0.20231 0.47276 0.35492 0.0
H661 H 0.21449 0.5238 0.34043 0.0
H662 H 0.01679 0.39079 0.29111 0.0
H663 H 0.02827 0.44273 0.27889 0.0
H664 H 0.03921 0.34799 0.27716 0.0
H665 H 0.07637 0.33843 0.29471 0.0
C666 C 0.37286 0.49097 0.27145 0.0
C667 C 0.40025 0.47551 0.27711 0.0
C668 C 0.3566 0.42469 0.31683 0.0
C669 C 0.32797 0.43814 0.30954 0.0
N670 N 0.30476 0.47708 0.27444 0.0
N671 N 0.4157 0.42297 0.30018 0.0
C672 C 0.33498 0.46953 0.28545 0.0
C673 C 0.39123 0.44078 0.29821 0.0
N674 N 0.38344 0.5268 0.25332 0.0
N675 N 0.35159 0.39812 0.3427 0.0
H676 H 0.44163 0.43443 0.2872 0.0
H677 H 0.40859 0.39453 0.31214 0.0
H678 H 0.32722 0.38667 0.35763 0.0
H679 H 0.37331 0.39069 0.35163 0.0
H680 H 0.36702 0.54299 0.25192 0.0
H681 H 0.41018 0.54223 0.24145 0.0
H682 H 0.30655 0.49564 0.25399 0.0
H683 H 0.2763 0.46153 0.28348 0.0
C684 C 0.52988 0.89101 0.25837 0.0
C685 C 0.53291 0.92865 0.27713 0.0
C686 C 0.57562 0.9239 0.32409 0.0
C687 C 0.57468 0.88807 0.30432 0.0
N688 N 0.55631 0.84163 0.25053 0.0
N689 N 0.56387 0.98572 0.32471 0.0
C690 C 0.55367 0.8731 0.27071 0.0
C691 C 0.55724 0.94641 0.30918 0.0
N692 N 0.50265 0.87087 0.22976 0.0
N693 N 0.59415 0.93648 0.35711 0.0
H694 H 0.55124 0.00329 0.31425 0.0
H695 H 0.58451 0.00295 0.34623 0.0
H696 H 0.60995 0.92262 0.36829 0.0
H697 H 0.59181 0.95874 0.37428 0.0
H698 H 0.49576 0.84055 0.21724 0.0
H699 H 0.48425 0.88245 0.22 0.0
H700 H 0.54619 0.83364 0.22431 0.0
H701 H 0.57094 0.82531 0.25937 0.0
C702 C 0.14541 0.66287 0.2655 0.0
C703 C 0.11526 0.62547 0.27987 0.0
C704 C 0.11486 0.67425 0.32742 0.0
C705 C 0.14179 0.71172 0.31104 0.0
N706 N 0.17423 0.74078 0.2595 0.0
N707 N 0.06497 0.5961 0.32044 0.0
C708 C 0.1548 0.70585 0.27867 0.0
C709 C 0.09813 0.63129 0.3097 0.0
N710 N 0.16601 0.65754 0.23994 0.0
N711 N 0.10639 0.67944 0.36042 0.0
H712 H 0.05126 0.56427 0.30774 0.0
H713 H 0.04874 0.5993 0.33983 0.0
H714 H 0.1189 0.71021 0.37471 0.0
H715 H 0.09016 0.65299 0.37482 0.0
H716 H 0.19102 0.68393 0.23101 0.0
H717 H 0.16071 0.62666 0.23003 0.0
H718 H 0.18055 0.73727 0.23422 0.0
H719 H 0.18004 0.77248 0.26719 0.0
C720 C 0.81138 0.00621 0.43134 0.0
C721 C 0.81715 0.04423 0.41593 0.0
C722 C 0.76929 0.9971 0.36634 0.0
C723 C 0.76051 0.95919 0.38354 0.0
N724 N 0.76567 0.92909 0.43677 0.0
N725 N 0.79603 0.07625 0.37196 0.0
C726 C 0.77947 0.9641 0.41728 0.0
C727 C 0.79453 0.03984 0.38428 0.0
N728 N 0.83695 0.01015 0.45897 0.0
N729 N 0.75487 0.99245 0.33253 0.0
H730 H 0.81377 0.10806 0.3845 0.0
H731 H 0.77696 0.07439 0.35102 0.0
H732 H 0.73665 0.96175 0.31839 0.0
H733 H 0.76388 0.01897 0.31765 0.0
H734 H 0.83652 0.98304 0.46896 0.0
H735 H 0.86119 0.04049 0.46974 0.0
H736 H 0.77578 0.93205 0.46273 0.0
H737 H 0.74089 0.89818 0.42836 0.0
C738 C 0.98211 0.77947 0.43025 0.0
C739 C 0.95349 0.73372 0.42346 0.0
C740 C 0.99677 0.72535 0.38336 0.0
C741 C 0.02306 0.77204 0.38714 0.0
N742 N 0.03873 0.84439 0.41169 0.0
N743 N 0.93136 0.66298 0.39238 0.0
C744 C 0.01514 0.79937 0.40985 0.0
C745 C 0.96039 0.7065 0.39988 0.0
N746 N 0.97792 0.80375 0.45673 0.0
N747 N 0.00651 0.69904 0.36381 0.0
H748 H 0.90533 0.64785 0.40525 0.0
H749 H 0.93196 0.64241 0.37237 0.0
H750 H 0.03103 0.71155 0.34905 0.0
H751 H 0.99145 0.66476 0.36346 0.0
H752 H 0.99993 0.83605 0.46569 0.0
H753 H 0.954 0.79017 0.47211 0.0
H754 H 0.03161 0.86599 0.42461 0.0
H755 H 0.06402 0.86072 0.39824 0.0
C756 C 0.26851 0.23845 0.39018 0.0
C757 C 0.24346 0.20396 0.40993 0.0
C758 C 0.18394 0.20452 0.38447 0.0
C759 C 0.20939 0.2429 0.3683 0.0
N760 N 0.2719 0.28013 0.34187 0.0
N761 N 0.17812 0.15762 0.4296 0.0
C762 C 0.2508 0.25567 0.36729 0.0
C763 C 0.20137 0.18796 0.40808 0.0
N764 N 0.30931 0.25506 0.39355 0.0
N765 N 0.1434 0.18117 0.37455 0.0
H766 H 0.18985 0.14475 0.44732 0.0
H767 H 0.14818 0.1485 0.43218 0.0
H768 H 0.13064 0.18811 0.3532 0.0
H769 H 0.12364 0.15111 0.38359 0.0
H770 H 0.3298 0.28372 0.38318 0.0
H771 H 0.32314 0.24225 0.40912 0.0
H772 H 0.30134 0.28824 0.33817 0.0
H773 H 0.25791 0.28635 0.32107 0.0
C774 C 0.64008 0.51428 0.75447 0.0
C775 C 0.61032 0.52662 0.75021 0.0
C776 C 0.64965 0.57828 0.70879 0.0
C777 C 0.67814 0.56366 0.71129 0.0
N778 N 0.69577 0.51098 0.7318 0.0
N779 N 0.58334 0.56567 0.72035 0.0
C780 C 0.67185 0.52948 0.73253 0.0
C781 C 0.6142 0.55745 0.7266 0.0
N782 N 0.63873 0.48911 0.78049 0.0
N783 N 0.65645 0.61206 0.68926 0.0
H784 H 0.5576 0.55196 0.73367 0.0
H785 H 0.58193 0.58379 0.70064 0.0
H786 H 0.67968 0.62518 0.67312 0.0
H787 H 0.64003 0.62827 0.68992 0.0
H788 H 0.66209 0.48342 0.78776 0.0
H789 H 0.616 0.47738 0.79716 0.0
H790 H 0.68916 0.48236 0.74331 0.0
H791 H 0.72059 0.52168 0.71767 0.0
C792 C 0.4905 0.12701 0.76611 0.0
C793 C 0.48486 0.08472 0.75596 0.0
C794 C 0.43494 0.07305 0.70823 0.0
C795 C 0.44182 0.11618 0.71736 0.0
N796 N 0.47665 0.18537 0.75402 0.0
N797 N 0.45457 0.01818 0.71676 0.0
C798 C 0.46995 0.14363 0.7459 0.0
C799 C 0.45773 0.05786 0.72689 0.0
N800 N 0.51474 0.15065 0.79566 0.0
N801 N 0.40616 0.04645 0.68187 0.0
H802 H 0.46877 0.00465 0.73101 0.0
H803 H 0.4394 0.99927 0.69353 0.0
H804 H 0.39133 0.05759 0.66566 0.0
H805 H 0.39567 0.01287 0.67663 0.0
H806 H 0.51693 0.17938 0.80705 0.0
H807 H 0.53126 0.14014 0.8104 0.0
H808 H 0.5001 0.20906 0.77147 0.0
H809 H 0.45958 0.19753 0.74256 0.0
C810 C 0.92972 0.37248 0.7354 0.0
C811 C 0.90385 0.39014 0.73772 0.0
C812 C 0.85125 0.32524 0.70125 0.0
C813 C 0.87436 0.30419 0.70471 0.0
N814 N 0.9313 0.30515 0.73648 0.0
N815 N 0.83532 0.37637 0.73007 0.0
C816 C 0.91261 0.32699 0.72479 0.0
C817 C 0.86319 0.36464 0.72264 0.0
N818 N 0.9705 0.39881 0.74302 0.0
N819 N 0.8186 0.30852 0.67718 0.0
H820 H 0.84179 0.40296 0.74786 0.0
H821 H 0.80469 0.35646 0.72165 0.0
H822 H 0.81056 0.28145 0.65932 0.0
H823 H 0.80277 0.3249 0.67234 0.0
H824 H 0.99044 0.38735 0.7391 0.0
H825 H 0.98453 0.43289 0.74938 0.0
H826 H 0.95788 0.32086 0.75314 0.0
H827 H 0.91772 0.27085 0.73409 0.0
C828 C 0.18228 0.97558 0.6313 0.0
C829 C 0.19846 0.94873 0.62064 0.0
C830 C 0.26632 0.01205 0.63523 0.0
C831 C 0.25012 0.03618 0.65173 0.0
N832 N 0.19122 0.03435 0.67268 0.0
N833 N 0.2567 0.93933 0.6218 0.0
C834 C 0.20762 0.01605 0.65198 0.0
C835 C 0.24075 0.96622 0.6256 0.0
N836 N 0.14345 0.96377 0.62053 0.0
N837 N 0.305 0.03285 0.62622 0.0
H838 H 0.23889 0.9051 0.61641 0.0
H839 H 0.28732 0.9507 0.6279 0.0
H840 H 0.32349 0.06711 0.62818 0.0
H841 H 0.31651 0.01626 0.61207 0.0
H842 H 0.13176 0.98443 0.62558 0.0
H843 H 0.12466 0.93609 0.60321 0.0
H844 H 0.16034 0.01865 0.67531 0.0
H845 H 0.20863 0.06209 0.69034 0.0
C846 C 0.0252 0.21001 0.59673 0.0
C847 C 0.05274 0.25613 0.59893 0.0
C848 C 0.00832 0.26931 0.63439 0.0
C849 C 0.98391 0.22298 0.63636 0.0
N850 N 0.97269 0.14938 0.62328 0.0
N851 N 0.07321 0.33001 0.62267 0.0
C852 C 0.99318 0.19331 0.61838 0.0
C853 C 0.04501 0.28593 0.61849 0.0
N854 N 0.02965 0.18222 0.57372 0.0
N855 N 0.99559 0.29736 0.64594 0.0
H856 H 0.09966 0.34358 0.61031 0.0
H857 H 0.07158 0.35257 0.6401 0.0
H858 H 0.96829 0.28675 0.65652 0.0
H859 H 0.01013 0.33069 0.6418 0.0
H860 H 0.00829 0.14875 0.56835 0.0
H861 H 0.05282 0.19357 0.55746 0.0
H862 H 0.98077 0.12696 0.61354 0.0
H863 H 0.95015 0.13601 0.64002 0.0
C864 C 0.81195 0.83022 0.63372 0.0
C865 C 0.77132 0.81023 0.6186 0.0
C866 C 0.76058 0.73868 0.6335 0.0
C867 C 0.7987 0.75977 0.65391 0.0
N868 N 0.85578 0.82875 0.67996 0.0
N869 N 0.70396 0.74636 0.61376 0.0
C870 C 0.82294 0.80655 0.65607 0.0
C871 C 0.7446 0.76478 0.62161 0.0
N872 N 0.8407 0.87077 0.62555 0.0
N873 N 0.74082 0.6945 0.62278 0.0
H874 H 0.69075 0.76477 0.60664 0.0
H875 H 0.68334 0.71395 0.61825 0.0
H876 H 0.75348 0.67464 0.62608 0.0
H877 H 0.71435 0.67913 0.60599 0.0
H878 H 0.87125 0.88473 0.63392 0.0
H879 H 0.8349 0.88787 0.60719 0.0
H880 H 0.87243 0.86318 0.68397 0.0
H881 H 0.86324 0.81304 0.69847 0.0
C882 C 0.03316 0.79174 0.59806 0.0
C883 C 0.0701 0.80467 0.61803 0.0
C884 C 0.03268 0.77999 0.66929 0.0
C885 C 0.99572 0.7635 0.64828 0.0
N886 N 0.9619 0.73965 0.59011 0.0
N887 N 0.10319 0.80039 0.67102 0.0
C888 C 0.99623 0.76468 0.61188 0.0
C889 C 0.06934 0.79562 0.65327 0.0
N890 N 0.03279 0.80737 0.56681 0.0
N891 N 0.03288 0.78023 0.70439 0.0
H892 H 0.12986 0.80974 0.65957 0.0
H893 H 0.10353 0.79067 0.69575 0.0
H894 H 0.00652 0.76674 0.71685 0.0
H895 H 0.05933 0.79624 0.72116 0.0
H896 H 0.00632 0.80181 0.55305 0.0
H897 H 0.05885 0.83028 0.55669 0.0
H898 H 0.96189 0.73718 0.56328 0.0
H899 H 0.93474 0.71689 0.59864 0.0
C900 C 0.17347 0.21714 0.60642 0.0
C901 C 0.18367 0.26193 0.6125 0.0
C902 C 0.24025 0.27691 0.65435 0.0
C903 C 0.22834 0.23138 0.65002 0.0
N904 N 0.18092 0.15679 0.62495 0.0
N905 N 0.22302 0.3335 0.64472 0.0
C906 C 0.19401 0.20104 0.6271 0.0
C907 C 0.21611 0.29163 0.63712 0.0
N908 N 0.14507 0.19037 0.57989 0.0
N909 N 0.27482 0.3061 0.67477 0.0
H910 H 0.20652 0.34559 0.63194 0.0
H911 H 0.24319 0.35537 0.66508 0.0
H912 H 0.29172 0.29623 0.68975 0.0
H913 H 0.28797 0.34028 0.67568 0.0
H914 H 0.13974 0.15916 0.57117 0.0
H915 H 0.12884 0.20063 0.56446 0.0
H916 H 0.15334 0.13261 0.61214 0.0
H917 H 0.1961 0.14342 0.63784 0.0
C918 C 0.74833 0.95535 0.64143 0.0
C919 C 0.76763 0.95011 0.61297 0.0
C920 C 0.80593 0.03025 0.61137 0.0
C921 C 0.79069 0.03588 0.64253 0.0
N922 N 0.75232 0.00358 0.69052 0.0
N923 N 0.82127 0.98305 0.57569 0.0
C924 C 0.76309 0.99836 0.65849 0.0
C925 C 0.79832 0.98771 0.59933 0.0
N926 N 0.71525 0.91949 0.65155 0.0
N927 N 0.82616 0.06509 0.59229 0.0
H928 H 0.81747 0.9525 0.56677 0.0
H929 H 0.84671 0.00983 0.56764 0.0
H930 H 0.83112 0.0966 0.59926 0.0
H931 H 0.83408 0.0616 0.56762 0.0
H932 H 0.69751 0.92199 0.6698 0.0
H933 H 0.70333 0.88758 0.63944 0.0
H934 H 0.73553 0.97723 0.70482 0.0
H935 H 0.76333 0.03444 0.70425 0.0
C936 C 0.45526 0.3833 0.72356 0.0
C937 C 0.47914 0.38809 0.7545 0.0
C938 C 0.43956 0.30842 0.7581 0.0
C939 C 0.41954 0.30296 0.72478 0.0
N940 N 0.41333 0.33485 0.6731 0.0
N941 N 0.49919 0.35433 0.79772 0.0
C942 C 0.42864 0.34031 0.70674 0.0
C943 C 0.47281 0.35037 0.77078 0.0
N944 N 0.45697 0.41962 0.71085 0.0
N945 N 0.42572 0.27416 0.77837 0.0
H946 H 0.52452 0.38444 0.80734 0.0
H947 H 0.49813 0.32718 0.80823 0.0
H948 H 0.40012 0.24345 0.77089 0.0
H949 H 0.43684 0.2777 0.80411 0.0
H950 H 0.43719 0.41753 0.69042 0.0
H951 H 0.47552 0.45166 0.72276 0.0
H952 H 0.42244 0.36088 0.65767 0.0
H953 H 0.3944 0.3039 0.65954 0.0
C954 C 0.61139 0.04606 0.73418 0.0
C955 C 0.60824 0.07465 0.75934 0.0
C956 C 0.6727 0.13674 0.74649 0.0
C957 C 0.67691 0.10783 0.72228 0.0
N958 N 0.65348 0.03388 0.69617 0.0
N959 N 0.63904 0.14391 0.79515 0.0
C960 C 0.64734 0.06203 0.71727 0.0
C961 C 0.63998 0.119 0.76727 0.0
N962 N 0.57933 0.00428 0.72548 0.0
N963 N 0.69949 0.18125 0.74932 0.0
H964 H 0.61535 0.13195 0.81085 0.0
H965 H 0.66327 0.17477 0.80474 0.0
H966 H 0.72454 0.19584 0.73536 0.0
H967 H 0.69529 0.20437 0.76358 0.0
H968 H 0.5776 0.98346 0.70449 0.0
H969 H 0.55317 0.99117 0.73824 0.0
H970 H 0.63563 0.99959 0.69475 0.0
H971 H 0.67778 0.0446 0.68122 0.0
C972 C 0.88236 0.54289 0.76131 0.0
C973 C 0.91023 0.53522 0.74429 0.0
C974 C 0.90268 0.57303 0.6956 0.0
C975 C 0.8787 0.58494 0.71483 0.0
N976 N 0.86008 0.5949 0.77128 0.0
N977 N 0.95276 0.55021 0.69766 0.0
C978 C 0.87244 0.57364 0.74917 0.0
C979 C 0.92213 0.55239 0.71203 0.0
N980 N 0.86404 0.51983 0.78827 0.0
N981 N 0.9062 0.58056 0.66159 0.0
H982 H 0.96834 0.53646 0.70949 0.0
H983 H 0.9652 0.56572 0.67584 0.0
H984 H 0.89211 0.5953 0.64882 0.0
H985 H 0.92008 0.56875 0.64538 0.0
H986 H 0.84118 0.52233 0.79951 0.0
H987 H 0.86808 0.49453 0.79651 0.0
H988 H 0.85811 0.59017 0.79746 0.0
H989 H 0.85821 0.62197 0.76443 0.0
C990 C 0.46818 0.96269 0.15742 0.0
C991 C 0.49091 0.99551 0.18513 0.0
C992 C 0.51679 0.0521 0.14378 0.0
C993 C 0.49964 0.01851 0.11547 0.0
N994 N 0.4531 0.94126 0.09652 0.0
N995 N 0.53851 0.07139 0.20538 0.0
C996 C 0.47326 0.97383 0.12279 0.0
C997 C 0.51564 0.04024 0.1785 0.0
N998 N 0.44085 0.92058 0.16419 0.0
N999 N 0.53178 0.09524 0.13774 0.0
H1000 H 0.53719 0.0641 0.23105 0.0
H1001 H 0.5607 0.10356 0.20203 0.0
H1002 H 0.52882 0.10455 0.1133 0.0
H1003 H 0.54191 0.12098 0.15732 0.0
H1004 H 0.41902 0.89645 0.14584 0.0
H1005 H 0.43807 0.9098 0.18879 0.0
H1006 H 0.44159 0.90773 0.09874 0.0
H1007 H 0.44673 0.94823 0.07251 0.0
C1008 C 0.01157 0.51808 0.17264 0.0
C1009 C 0.04274 0.50824 0.17982 0.0
C1010 C 0.02528 0.46905 0.12164 0.0
C1011 C 1.00157 0.48795 0.11226 0.0
N1012 N 0.98056 0.54052 0.12905 0.0
N1013 N 0.08452 0.4813 0.15649 0.0
C1014 C 0.99681 0.5152 0.13778 0.0
C1015 C 0.05107 0.48541 0.15307 0.0
N1016 N 0.9951 0.52895 0.19892 0.0
N1017 N 0.02227 0.43459 0.10115 0.0
H1018 H 0.1068 0.497 0.17722 0.0
H1019 H 0.09229 0.46649 0.13677 0.0
H1020 H 1.00092 0.41976 0.07966 0.0
H1021 H 0.03702 0.41765 0.10804 0.0
H1022 H 0.97032 0.53326 0.1946 0.0
H1023 H 1.00285 0.52817 0.22488 0.0
H1024 H 0.97995 0.56342 0.14694 0.0
H1025 H 0.97228 0.54286 0.10369 0.0
C1026 C 0.50831 0.48204 0.17244 0.0
C1027 C 0.4929 0.50939 0.1835 0.0
C1028 C 0.48868 0.52726 0.12401 0.0
C1029 C 0.50522 0.50075 0.1126 0.0
N1030 N 0.51622 0.44078 0.12438 0.0
N1031 N 0.46273 0.55303 0.16959 0.0
C1032 C 0.51097 0.47469 0.13643 0.0
C1033 C 0.4817 0.53073 0.15922 0.0
N1034 N 0.52098 0.46356 0.19644 0.0
N1035 N 0.47891 0.54897 0.10118 0.0
H1036 H 0.45886 0.55847 0.19533 0.0
H1037 H 0.44875 0.56428 0.15264 0.0
H1038 H 0.46722 0.53484 0.0762 0.0
H1039 H 0.47785 0.57746 0.10801 0.0
H1040 H 0.53682 0.44753 0.1906 0.0
H1041 H 0.51828 0.46713 0.22279 0.0
H1042 H 0.51718 0.41816 0.13997 0.0
H1043 H 0.51434 0.43169 0.09806 0.0
C1044 C 0.94091 0.48367 0.87192 0.0
C1045 C 0.96749 0.49378 0.84576 0.0
C1046 C 0.02459 0.51844 0.89026 0.0
C1047 C 0.99742 0.50284 0.91626 0.0
N1048 N 0.92977 0.47604 0.93178 0.0
N1049 N 0.03422 0.51817 0.82907 0.0
C1050 C 0.95573 0.48757 0.90705 0.0
C1051 C 0.00928 0.51063 0.85468 0.0
N1052 N 0.90136 0.47109 0.86322 0.0
N1053 N 0.0652 0.54314 0.8998 0.0
H1054 H 0.02434 0.51433 0.8029 0.0
H1055 H 0.06393 0.52526 0.83352 0.0
H1056 H 0.07718 0.55254 0.92561 0.0
H1057 H 0.08661 0.55882 0.88253 0.0
H1058 H 0.88149 0.4693 0.881 0.0
H1059 H 0.88845 0.46409 0.83775 0.0
H1060 H 0.89872 0.45459 0.92709 0.0
H1061 H 0.93974 0.49065 0.95675 0.0
C1062 C 0.55712 0.52872 0.87934 0.0
C1063 C 0.52622 0.50798 0.85132 0.0
C1064 C 0.47612 0.4979 0.89166 0.0
C1065 C 0.5074 0.52189 0.9189 0.0
N1066 N 0.57763 0.57593 0.93297 0.0
N1067 N 0.45883 0.48994 0.83002 0.0
C1068 C 0.548 0.54225 0.91103 0.0
C1069 C 0.48651 0.49824 0.8572 0.0
N1070 N 0.59432 0.53342 0.87692 0.0
N1071 N 0.43681 0.47267 0.89828 0.0
H1072 H 0.46614 0.49258 0.80451 0.0
H1073 H 0.43043 0.48573 0.83334 0.0
H1074 H 0.42764 0.46848 0.92311 0.0
H1075 H 0.41393 0.45185 0.87903 0.0
H1076 H 0.61667 0.54661 0.89768 0.0
H1077 H 0.60137 0.51984 0.85584 0.0
H1078 H 0.60757 0.59383 0.9273 0.0
H1079 H 0.57071 0.58947 0.95422 0.0
C1080 C 0.47457 0.98245 0.8586 0.0
C1081 C 0.51519 0.01367 0.85343 0.0
C1082 C 0.53572 0.00274 0.91098 0.0
C1083 C 0.49524 0.9811 0.91906 0.0
N1084 N 0.42527 0.95646 0.90009 0.0
N1085 N 0.58398 0.06053 0.87996 0.0
C1086 C 0.46421 0.97235 0.89274 0.0
C1087 C 0.54585 0.02571 0.88102 0.0
N1088 N 0.44609 0.96123 0.83102 0.0
N1089 N 0.56428 1.00002 0.93119 0.0
H1090 H 0.59179 0.08227 0.86089 0.0
H1091 H 0.60649 0.07077 0.90034 0.0
H1092 H 0.55657 0.97998 0.95146 0.0
H1093 H 0.59389 0.01275 0.92496 0.0
H1094 H 0.41686 0.93578 0.83357 0.0
H1095 H 0.45309 0.96525 0.80548 0.0
H1096 H 0.40291 0.95387 0.88203 0.0
H1097 H 0.41601 0.95013 0.92474 0.0
C1098 C 0.16272 0.29535 0.48416 0.0
C1099 C 0.15131 0.31859 0.50764 0.0
C1100 C 0.16332 0.37192 0.46474 0.0
C1101 C 0.17922 0.35126 0.44353 0.0
N1102 N 0.2071 0.30321 0.44043 0.0
N1103 N 0.14786 0.38429 0.52254 0.0
C1104 C 0.18269 0.3158 0.45536 0.0
C1105 C 0.15348 0.35842 0.49857 0.0
N1106 N 0.15354 0.25314 0.48868 0.0
N1107 N 0.15674 0.40361 0.4524 0.0
H1108 H 0.1416 0.37615 0.54767 0.0
H1109 H 0.15295 0.41564 0.51842 0.0
H1110 H 0.16437 0.41475 0.42815 0.0
H1111 H 0.1412 0.41643 0.46517 0.0
H1112 H 0.15848 0.2338 0.47048 0.0
H1113 H 0.13679 0.23588 0.50837 0.0
H1114 H 0.21281 0.27947 0.44985 0.0
H1115 H 0.22584 0.32083 0.42187 0.0
C1116 C 0.67375 0.84078 0.50169 0.0
C1117 C 0.70763 0.83594 0.51059 0.0
C1118 C 0.70043 0.80455 0.45094 0.0
C1119 C 0.67307 0.81865 0.44064 0.0
N1120 N 0.64145 0.86094 0.45737 0.0
N1121 N 0.75838 0.8211 0.48995 0.0
C1122 C 0.66159 0.8396 0.46629 0.0
C1123 C 0.72248 0.8199 0.48419 0.0
N1124 N 0.65249 0.84556 0.52685 0.0
N1125 N 0.70411 0.77498 0.4296 0.0
H1126 H 0.77759 0.83596 0.51264 0.0
H1127 H 0.77101 0.81167 0.47065 0.0
H1128 H 0.6845 0.75935 0.40727 0.0
H1129 H 0.72189 0.76146 0.43667 0.0
H1130 H 0.62579 0.84586 0.52122 0.0
H1131 H 0.65882 0.84381 0.55294 0.0
H1132 H 0.63579 0.87966 0.47555 0.0
H1133 H 0.63489 0.8648 0.43195 0.0
C1134 C 0.13924 0.85189 0.4923 0.0
C1135 C 0.15597 0.83749 0.51818 0.0
C1136 C 0.18078 0.80753 0.47317 0.0
C1137 C 0.17059 0.82888 0.44777 0.0
N1138 N 0.13356 0.86607 0.43358 0.0
N1139 N 0.19433 0.80322 0.53419 0.0
C1140 C 0.14743 0.84887 0.45741 0.0
C1141 C 0.17704 0.81554 0.50886 0.0
N1142 N 0.11456 0.86785 0.50098 0.0
N1143 N 0.19161 0.77736 0.46302 0.0
H1144 H 0.19108 0.80738 0.56035 0.0
H1145 H 0.21409 0.79179 0.52948 0.0
H1146 H 0.19041 0.76716 0.43708 0.0
H1147 H 0.19636 0.75814 0.47993 0.0
H1148 H 0.09586 0.87201 0.48308 0.0
H1149 H 0.11075 0.87474 0.5264 0.0
H1150 H 0.12623 0.89031 0.4396 0.0
H1151 H 0.12849 0.85531 0.40775 0.0
C1152 C 0.68126 0.86919 0.19162 0.0
C1153 C 0.64145 0.83591 0.17864 0.0
C1154 C 0.6344 0.79939 0.23137 0.0
C1155 C 0.67287 0.8344 0.24615 0.0
N1156 N 0.72896 0.90794 0.24236 0.0
N1157 N 0.57621 0.77772 0.19079 0.0
C1158 C 0.69519 0.87099 0.22687 0.0
C1159 C 0.61668 0.80413 0.20028 0.0
N1160 N 0.70621 0.89807 0.17011 0.0
N1161 N 0.61628 0.75966 0.24482 0.0
H1162 H 0.56214 0.7806 0.16817 0.0
H1163 H 0.55625 0.75663 0.20722 0.0
H1164 H 0.63097 0.75209 0.26398 0.0
H1165 H 0.5897 0.73216 0.23334 0.0
H1166 H 0.7369 0.91984 0.17703 0.0
H1167 H 0.69675 0.89811 0.14447 0.0
H1168 H 0.74411 0.9371 0.23058 0.0
H1169 H 0.73962 0.91092 0.26817 0.0
C1170 C 0.22307 0.85604 0.21415 0.0
C1171 C 0.1911 0.83229 0.18728 0.0
C1172 C 0.14271 0.82411 0.22872 0.0
C1173 C 0.17502 0.85165 0.25443 0.0
N1174 N 0.24535 0.90665 0.26601 0.0
N1175 N 0.12195 0.80904 0.16739 0.0
C1176 C 0.21507 0.87183 0.24533 0.0
C1177 C 0.15134 0.82133 0.19401 0.0
N1178 N 0.26027 0.86103 0.21132 0.0
N1179 N 0.10422 0.79838 0.23722 0.0
H1180 H 0.12777 0.80927 0.14152 0.0
H1181 H 0.09333 0.80388 0.17121 0.0
H1182 H 0.09642 0.79627 0.26249 0.0
H1183 H 0.08086 0.77515 0.21931 0.0
H1184 H 0.28364 0.87634 0.23122 0.0
H1185 H 0.26607 0.84505 0.19112 0.0
H1186 H 0.27486 0.92447 0.25929 0.0
H1187 H 0.23939 0.92076 0.28751 0.0
C1188 C 0.21789 0.35159 0.21306 0.0
C1189 C 0.18944 0.34566 0.18548 0.0
C1190 C 0.13506 0.30706 0.22294 0.0
C1191 C 0.16384 0.31165 0.2498 0.0
N1192 N 0.22845 0.31805 0.26198 0.0
N1193 N 0.11997 0.30022 0.16094 0.0
C1194 C 0.20418 0.328 0.24246 0.0
C1195 C 0.14758 0.31789 0.18934 0.0
N1196 N 0.25765 0.38135 0.21156 0.0
N1197 N 0.09629 0.29389 0.22931 0.0
H1198 H 0.12851 0.30424 0.13583 0.0
H1199 H 0.08956 0.27731 0.16234 0.0
H1200 H 0.08577 0.28587 0.25344 0.0
H1201 H 0.07561 0.29446 0.21113 0.0
H1202 H 0.27997 0.3897 0.23183 0.0
H1203 H 0.27997 0.3897 0.23183 0.0
H1204 H 0.25721 0.32587 0.25585 0.0
H1205 H 0.21734 0.29719 0.28154 0.0
C1206 C 0.84518 0.71138 0.84455 0.0
C1207 C 0.82361 0.66662 0.8519 0.0
C1208 C 0.80816 0.64267 0.78982 0.0
C1209 C 0.83434 0.68696 0.78196 0.0
N1210 N 0.86148 0.76385 0.80158 0.0
N1211 N 0.78742 0.58908 0.83182 0.0
C1212 C 0.84837 0.72159 0.80934 0.0
C1213 C 0.80554 0.63226 0.82461 0.0
N1214 N 0.86366 0.74405 0.87129 0.0
N1215 N 0.78393 0.6103 0.76438 0.0
H1216 H 0.78266 0.57944 0.85673 0.0
H1217 H 0.77988 0.56278 0.81335 0.0
H1218 H 0.78398 0.61559 0.73876 0.0
H1219 H 0.76056 0.57939 0.76902 0.0
H1220 H 0.88396 0.77694 0.86807 0.0
H1221 H 0.86065 0.73767 0.89714 0.0
H1222 H 0.86931 0.79021 0.82001 0.0
H1223 H 0.85925 0.77153 0.77639 0.0
C1224 C 0.37923 0.15439 0.82105 0.0
C1225 C 0.37026 0.17503 0.8489 0.0
C1226 C 0.32387 0.18352 0.80842 0.0
C1227 C 0.33007 0.15912 0.7815 0.0
N1228 N 0.35049 0.10606 0.76801 0.0
N1229 N 0.32167 0.193 0.87005 0.0
C1230 C 0.35372 0.13978 0.78958 0.0
C1231 C 0.33854 0.18437 0.84294 0.0
N1232 N 0.41298 0.15077 0.82346 0.0
N1233 N 0.30619 0.20795 0.80141 0.0
H1234 H 0.32967 0.19094 0.89564 0.0
H1235 H 0.29652 0.1968 0.86665 0.0
H1236 H 0.29711 0.21095 0.77651 0.0
H1237 H 0.30465 0.22918 0.82033 0.0
H1238 H 0.4212 0.13791 0.80272 0.0
H1239 H 0.43497 0.16508 0.84447 0.0
H1240 H 0.36538 0.08894 0.77388 0.0
H1241 H 0.32858 0.09176 0.74688 0.0
C1242 C 0.79881 0.18614 0.81924 0.0
C1243 C 0.81205 0.16803 0.84476 0.0
C1244 C 0.83275 0.13385 0.79912 0.0
C1245 C 0.82541 0.15762 0.77401 0.0
N1246 N 0.79741 0.20392 0.76113 0.0
N1247 N 0.84405 0.12671 0.86001 0.0
C1248 C 0.80717 0.18281 0.78444 0.0
C1249 C 0.82958 0.1423 0.83497 0.0
N1250 N 0.77657 0.20523 0.82796 0.0
N1251 N 0.84044 0.10127 0.78853 0.0
H1252 H 0.84103 0.13112 0.88619 0.0
H1253 H 0.86137 0.11219 0.85511 0.0
H1254 H 0.83937 0.09154 0.7625 0.0
H1255 H 0.84277 0.08024 0.80509 0.0
H1256 H 0.76167 0.21428 0.80993 0.0
H1257 H 0.77032 0.20924 0.85318 0.0
H1258 H 0.79567 0.23209 0.76765 0.0
H1259 H 0.78592 0.18912 0.73636 0.0
C1260 C 0.27742 0.16116 0.53962 0.0
C1261 C 0.3069 0.17753 0.51578 0.0
C1262 C 0.3605 0.20986 0.56413 0.0
C1263 C 0.33161 0.18674 0.58765 0.0
N1264 N 0.26102 0.14626 0.59767 0.0
N1265 N 0.37667 0.21617 0.5045 0.0
C1266 C 0.28966 0.16439 0.57534 0.0
C1267 C 0.34852 0.20169 0.52781 0.0
N1268 N 0.23749 0.14368 0.52822 0.0
N1269 N 0.39886 0.24174 0.57662 0.0
H1270 H 0.36889 0.21216 0.47788 0.0
H1271 H 0.40743 0.22941 0.5114 0.0
H1272 H 0.40743 0.25178 0.60296 0.0
H1273 H 0.42046 0.26219 0.56101 0.0
H1274 H 0.21485 0.13636 0.54452 0.0
H1275 H 0.22687 0.13907 0.50222 0.0
H1276 H 0.23158 0.12057 0.59046 0.0
H1277 H 0.26633 0.1596 0.62302 0.0
C1278 C 0.80861 0.14468 0.51775 0.0
C1279 C 0.84967 0.15752 0.5151 0.0
C1280 C 0.86449 0.19112 0.57484 0.0
C1281 C 0.82289 0.1675 0.57991 0.0
N1282 N 0.75517 0.11226 0.55468 0.0
N1283 N 0.91607 0.18637 0.54595 0.0
C1284 C 0.79464 0.14181 0.55094 0.0
C1285 C 0.87772 0.1792 0.54492 0.0
N1286 N 0.78294 0.13558 0.4888 0.0
N1287 N 0.89113 0.22629 0.59738 0.0
H1288 H 0.92612 0.17412 0.52628 0.0
H1289 H 0.93619 0.20001 0.56825 0.0
H1290 H 0.8815 0.23854 0.61736 0.0
H1291 H 0.92139 0.24623 0.59316 0.0
H1292 H 0.75338 0.12888 0.48999 0.0
H1293 H 0.79275 0.14005 0.46411 0.0
H1294 H 0.735 0.09105 0.53395 0.0
H1295 H 0.7438 0.10438 0.57848 0.0
C1296 C 0.87144 0.71526 0.54309 0.0
C1297 C 0.85936 0.68011 0.51695 0.0
C1298 C 0.83751 0.62714 0.56096 0.0
C1299 C 0.84466 0.6614 0.58671 0.0
N1300 N 0.87641 0.73975 0.60284 0.0
N1301 N 0.8279 0.60219 0.49975 0.0
C1302 C 0.86338 0.70582 0.57774 0.0
C1303 C 0.84163 0.63592 0.52555 0.0
N1304 N 0.89295 0.75808 0.53514 0.0
N1305 N 0.82954 0.58697 0.57063 0.0
H1306 H 0.83133 0.60759 0.47376 0.0
H1307 H 0.81049 0.56896 0.50377 0.0
H1308 H 0.83013 0.58072 0.59645 0.0
H1309 H 0.82744 0.56178 0.5536 0.0
H1310 H 0.90667 0.78558 0.55335 0.0
H1311 H 0.89935 0.7666 0.51013 0.0
H1312 H 0.87964 0.77036 0.59875 0.0
H1313 H 0.88952 0.73836 0.62636 0.0
loop_
_geom_bond_atom_site_label_1
_geom_bond_atom_site_label_2
_geom_bond_distance
_geom_bond_site_symmetry_2
_ccdc_geom_bond_type
H0 C3 0.931 . S
H1 C6 0.928 . S
H2 C8 0.930 . S
C3 H0 0.931 . S
C3 C4 1.413 . S
C3 C5 1.360 . S
C4 C3 1.413 . S
C4 C8 1.429 . S
C5 C3 1.360 . S
C5 C6 1.372 . S
C6 H1 0.928 . S
C6 C5 1.372 . S
C6 C7 1.404 . S
C7 C6 1.404 . S
C7 C8 1.391 . S
C8 H2 0.930 . S
C8 C4 1.429 . S
C8 C7 1.391 . S
H9 C12 0.931 . S
H10 C15 0.928 . S
H11 C17 0.930 . S
C12 H9 0.931 . S
C12 C13 1.413 . S
C12 C14 1.360 . S
C13 C12 1.413 . S
C13 C17 1.429 . S
C14 C12 1.360 . S
C14 C15 1.372 . S
C15 H10 0.928 . S
C15 C14 1.372 . S
C15 C16 1.404 . S
C16 C15 1.404 . S
C16 C17 1.391 . S
C17 H11 0.930 . S
C17 C13 1.429 . S
C17 C16 1.391 . S
H18 C21 0.931 . S
H19 C24 0.928 . S
H20 C26 0.930 . S
C21 H18 0.931 . S
C21 C22 1.413 . S
C21 C23 1.360 . S
C22 C21 1.413 . S
C22 C26 1.429 . S
C23 C21 1.360 . S
C23 C24 1.372 . S
C24 H19 0.928 . S
C24 C23 1.372 . S
C24 C25 1.404 . S
C25 C24 1.404 . S
C25 C26 1.391 . S
C26 H20 0.930 . S
C26 C22 1.429 . S
C26 C25 1.391 . S
H27 C30 0.931 . S
H28 C33 0.928 . S
H29 C35 0.930 . S
C30 H27 0.931 . S
C30 C31 1.413 . S
C30 C32 1.360 . S
C31 C30 1.413 . S
C31 C35 1.429 . S
C32 C30 1.360 . S
C32 C33 1.372 . S
C33 H28 0.928 . S
C33 C32 1.372 . S
C33 C34 1.404 . S
C34 C33 1.404 . S
C34 C35 1.391 . S
C35 H29 0.930 . S
C35 C31 1.429 . S
C35 C34 1.391 . S
H36 C39 0.931 . S
H37 C42 0.928 . S
H38 C44 0.930 . S
C39 H36 0.931 . S
C39 C40 1.413 . S
C39 C41 1.360 . S
C40 C39 1.413 . S
C40 C44 1.429 . S
C41 C39 1.360 . S
C41 C42 1.372 . S
C42 H37 0.928 . S
C42 C41 1.372 . S
C42 C43 1.404 . S
C43 C42 1.404 . S
C43 C44 1.391 . S
C44 H38 0.930 . S
C44 C40 1.429 . S
C44 C43 1.391 . S
H45 C48 0.931 . S
H46 C51 0.928 . S
H47 C53 0.930 . S
C48 H45 0.931 . S
C48 C49 1.413 . S
C48 C50 1.360 . S
C49 C48 1.413 . S
C49 C53 1.429 . S
C50 C48 1.360 . S
C50 C51 1.372 . S
C51 H46 0.928 . S
C51 C50 1.372 . S
C51 C52 1.404 . S
C52 C51 1.404 . S
C52 C53 1.391 . S
C53 H47 0.930 . S
C53 C49 1.429 . S
C53 C52 1.391 . S
H54 C57 0.931 . S
H55 C60 0.928 . S
H56 C62 0.930 . S
C57 H54 0.931 . S
C57 C58 1.413 . S
C57 C59 1.360 . S
C58 C57 1.413 . S
C58 C62 1.429 . S
C59 C57 1.360 . S
C59 C60 1.372 . S
C60 H55 0.928 . S
C60 C59 1.372 . S
C60 C61 1.404 . S
C61 C60 1.404 . S
C61 C62 1.391 . S
C62 H56 0.930 . S
C62 C58 1.429 . S
C62 C61 1.391 . S
H63 C66 0.931 . S
H64 C69 0.928 . S
H65 C71 0.930 . S
C66 H63 0.931 . S
C66 C67 1.413 . S
C66 C68 1.360 . S
C67 C66 1.413 . S
C67 C71 1.429 . S
C68 C66 1.360 . S
C68 C69 1.372 . S
C69 H64 0.928 . S
C69 C68 1.372 . S
C69 C70 1.404 . S
C70 C69 1.404 . S
C70 C71 1.391 . S
C71 H65 0.930 . S
C71 C67 1.429 . S
C71 C70 1.391 . S
H72 C75 0.931 . S
H73 C78 0.928 . S
H74 C80 0.930 . S
C75 H72 0.931 . S
C75 C76 1.413 . S
C75 C77 1.360 . S
C76 C75 1.413 . S
C76 C80 1.429 . S
C77 C75 1.360 . S
C77 C78 1.372 . S
C78 H73 0.928 . S
C78 C77 1.372 . S
C78 C79 1.404 . S
C79 C78 1.404 . S
C79 C80 1.391 . S
C80 H74 0.930 . S
C80 C76 1.429 . S
C80 C79 1.391 . S
H81 C84 0.931 . S
H82 C87 0.928 . S
H83 C89 0.930 . S
C84 H81 0.931 . S
C84 C85 1.413 . S
C84 C86 1.360 . S
C85 C84 1.413 . S
C85 C89 1.429 . S
C86 C84 1.360 . S
C86 C87 1.372 . S
C87 H82 0.928 . S
C87 C86 1.372 . S
C87 C88 1.404 . S
C88 C87 1.404 . S
C88 C89 1.391 . S
C89 H83 0.930 . S
C89 C85 1.429 . S
C89 C88 1.391 . S
H90 C93 0.931 . S
H91 C96 0.928 . S
H92 C98 0.930 . S
C93 H90 0.931 . S
C93 C94 1.413 . S
C93 C95 1.360 . S
C94 C93 1.413 . S
C94 C98 1.429 . S
C95 C93 1.360 . S
C95 C96 1.372 . S
C96 H91 0.928 . S
C96 C95 1.372 . S
C96 C97 1.404 . S
C97 C96 1.404 . S
C97 C98 1.391 . S
C98 H92 0.930 . S
C98 C94 1.429 . S
C98 C97 1.391 . S
H99 C102 0.931 . S
H100 C105 0.928 . S
H101 C107 0.930 . S
C102 H99 0.931 . S
C102 C103 1.413 . S
C102 C104 1.360 . S
C103 C102 1.413 . S
C103 C107 1.429 . S
C104 C102 1.360 . S
C104 C105 1.372 . S
C105 H100 0.928 . S
C105 C104 1.372 . S
C105 C106 1.404 . S
C106 C105 1.404 . S
C106 C107 1.391 . S
C107 H101 0.930 . S
C107 C103 1.429 . S
C107 C106 1.391 . S
H108 C111 0.931 . S
H109 C114 0.928 . S
H110 C116 0.930 . S
C111 H108 0.931 . S
C111 C112 1.413 . S
C111 C113 1.360 . S
C112 C111 1.413 . S
C112 C116 1.429 . S
C113 C111 1.360 . S
C113 C114 1.372 . S
C114 H109 0.928 . S
C114 C113 1.372 . S
C114 C115 1.404 . S
C115 C114 1.404 . S
C115 C116 1.391 . S
C116 H110 0.930 . S
C116 C112 1.429 . S
C116 C115 1.391 . S
H117 C120 0.931 . S
H118 C123 0.928 . S
H119 C125 0.930 . S
C120 H117 0.931 . S
C120 C121 1.413 . S
C120 C122 1.360 . S
C121 C120 1.413 . S
C121 C125 1.429 . S
C122 C120 1.360 . S
C122 C123 1.372 . S
C123 H118 0.928 . S
C123 C122 1.372 . S
C123 C124 1.404 . S
C124 C123 1.404 . S
C124 C125 1.391 . S
C125 H119 0.930 . S
C125 C121 1.429 . S
C125 C124 1.391 . S
H126 C129 0.931 . S
H127 C132 0.928 . S
H128 C134 0.930 . S
C129 H126 0.931 . S
C129 C130 1.413 . S
C129 C131 1.360 . S
C130 C129 1.413 . S
C130 C134 1.429 . S
C131 C129 1.360 . S
C131 C132 1.372 . S
C132 H127 0.928 . S
C132 C131 1.372 . S
C132 C133 1.404 . S
C133 C132 1.404 . S
C133 C134 1.391 . S
C134 H128 0.930 . S
C134 C130 1.429 . S
C134 C133 1.391 . S
H135 C138 0.931 . S
H136 C141 0.928 . S
H137 C143 0.930 . S
C138 H135 0.931 . S
C138 C139 1.413 . S
C138 C140 1.360 . S
C139 C138 1.413 . S
C139 C143 1.429 . S
C140 C138 1.360 . S
C140 C141 1.372 . S
C141 H136 0.928 . S
C141 C140 1.372 . S
C141 C142 1.404 . S
C142 C141 1.404 . S
C142 C143 1.391 . S
C143 H137 0.930 . S
C143 C139 1.429 . S
C143 C142 1.391 . S
H144 C147 0.931 . S
H145 C150 0.928 . S
H146 C152 0.930 . S
C147 H144 0.931 . S
C147 C148 1.413 . S
C147 C149 1.360 . S
C148 C147 1.413 . S
C148 C152 1.429 . S
C149 C147 1.360 . S
C149 C150 1.372 . S
C150 H145 0.928 . S
C150 C149 1.372 . S
C150 C151 1.404 . S
C151 C150 1.404 . S
C151 C152 1.391 . S
C152 H146 0.930 . S
C152 C148 1.429 . S
C152 C151 1.391 . S
H153 C156 0.931 . S
H154 C159 0.928 . S
H155 C161 0.930 . S
C156 H153 0.931 . S
C156 C157 1.413 . S
C156 C158 1.360 . S
C157 C156 1.413 . S
C157 C161 1.429 . S
C158 C156 1.360 . S
C158 C159 1.372 . S
C159 H154 0.928 . S
C159 C158 1.372 . S
C159 C160 1.404 . S
C160 C159 1.404 . S
C160 C161 1.391 . S
C161 H155 0.930 . S
C161 C157 1.429 . S
C161 C160 1.391 . S
Tb162 O165 2.453 . S
Tb162 O166 2.596 1_545 S
Tb162 O167 2.374 1_545 S
Tb162 O175 2.343 1_554 S
Tb162 O177 2.353 . S
Tb162 O179 2.427 1_554 S
Tb162 O180 2.513 1_554 S
C163 O167 1.251 . S
C163 O169 1.250 1_554 S
Tb164 O166 2.343 1_556 S
Tb164 O169 2.359 . S
Tb164 O172 2.427 1_556 S
Tb164 O173 2.513 1_556 S
Tb164 O174 2.453 . S
Tb164 O175 2.596 1_565 S
Tb164 O176 2.374 1_565 S
O165 Tb162 2.453 . S
O165 C181 1.245 . S
O166 Tb162 2.596 1_565 S
O166 Tb164 2.343 1_554 S
O166 C181 1.259 1_565 S
O167 Tb162 2.374 1_565 S
O167 C163 1.251 . S
C168 O172 1.275 . S
C168 O173 1.246 . S
O169 C163 1.250 1_556 S
O169 Tb164 2.359 . S
C170 O174 1.245 . S
C170 O175 1.259 1_565 S
C171 O176 1.250 . S
C171 O177 1.263 1_556 S
O172 Tb164 2.427 1_554 S
O172 C168 1.275 . S
O173 Tb164 2.513 1_554 S
O173 C168 1.246 . S
O174 Tb164 2.453 . S
O174 C170 1.245 . S
O175 Tb162 2.343 1_556 S
O175 Tb164 2.596 1_545 S
O175 C170 1.259 1_545 S
O176 Tb164 2.374 1_545 S
O176 C171 1.250 . S
O177 Tb162 2.353 . S
O177 C171 1.263 1_554 S
C178 O179 1.275 . S
C178 O180 1.246 . S
O179 Tb162 2.427 1_556 S
O179 C178 1.275 . S
O180 Tb162 2.513 1_556 S
O180 C178 1.246 . S
C181 O165 1.245 . S
C181 O166 1.259 1_545 S
Tb182 O185 2.453 . S
Tb182 O186 2.596 1_655 S
Tb182 O187 2.374 1_655 S
Tb182 O195 2.343 1_554 S
Tb182 O197 2.359 . S
Tb182 O199 2.427 1_554 S
Tb182 O200 2.513 1_554 S
C183 O187 1.251 . S
C183 O189 1.263 . S
Tb184 O186 2.343 1_556 S
Tb184 O189 2.353 1_556 S
Tb184 O192 2.427 1_556 S
Tb184 O193 2.513 1_556 S
Tb184 O194 2.453 . S
Tb184 O195 2.596 1_455 S
Tb184 O196 2.374 1_455 S
O185 Tb182 2.453 . S
O185 C201 1.245 1_655 S
O186 Tb182 2.596 1_455 S
O186 Tb184 2.343 1_554 S
O186 C201 1.259 . S
O187 Tb182 2.374 1_455 S
O187 C183 1.251 . S
C188 O192 1.275 . S
C188 O193 1.246 . S
O189 C183 1.263 . S
O189 Tb184 2.353 1_554 S
C190 O194 1.245 1_655 S
C190 O195 1.259 . S
C191 O196 1.250 . S
C191 O197 1.245 1_556 S
O192 Tb184 2.427 1_554 S
O192 C188 1.275 . S
O193 Tb184 2.513 1_554 S
O193 C188 1.246 . S
O194 Tb184 2.453 . S
O194 C190 1.245 1_455 S
O195 Tb182 2.343 1_556 S
O195 Tb184 2.596 1_655 S
O195 C190 1.259 . S
O196 Tb184 2.374 1_655 S
O196 C191 1.250 . S
O197 Tb182 2.359 . S
O197 C191 1.245 1_554 S
C198 O199 1.275 . S
C198 O200 1.246 . S
O199 Tb182 2.427 1_556 S
O199 C198 1.275 . S
O200 Tb182 2.513 1_556 S
O200 C198 1.246 . S
C201 O185 1.245 1_455 S
C201 O186 1.259 . S
Tb202 O205 2.453 . S
Tb202 O206 2.596 . S
Tb202 O207 2.374 . S
Tb202 O215 2.343 1_556 S
Tb202 O217 2.353 1_556 S
Tb202 O219 2.427 1_556 S
Tb202 O220 2.513 1_556 S
C203 O207 1.251 . S
C203 O209 1.263 1_556 S
Tb204 O206 2.343 1_554 S
Tb204 O209 2.353 . S
Tb204 O212 2.427 1_554 S
Tb204 O213 2.513 1_554 S
Tb204 O214 2.453 . S
Tb204 O215 2.596 . S
Tb204 O216 2.374 . S
O205 Tb202 2.453 . S
O205 C221 1.245 . S
O206 Tb202 2.596 . S
O206 Tb204 2.343 1_556 S
O206 C221 1.259 . S
O207 Tb202 2.374 . S
O207 C203 1.251 . S
C208 O212 1.275 . S
C208 O213 1.246 . S
O209 C203 1.263 1_554 S
O209 Tb204 2.353 . S
C210 O214 1.245 . S
C210 O215 1.259 . S
C211 O216 1.250 . S
C211 O217 1.263 . S
O212 Tb204 2.427 1_556 S
O212 C208 1.275 . S
O213 Tb204 2.513 1_556 S
O213 C208 1.246 . S
O214 Tb204 2.453 . S
O214 C210 1.245 . S
O215 Tb202 2.343 1_554 S
O215 Tb204 2.596 . S
O215 C210 1.259 . S
O216 Tb204 2.374 . S
O216 C211 1.250 . S
O217 Tb202 2.353 1_554 S
O217 C211 1.263 . S
C218 O219 1.275 . S
C218 O220 1.246 . S
O219 Tb202 2.427 1_554 S
O219 C218 1.275 . S
O220 Tb202 2.513 1_554 S
O220 C218 1.246 . S
C221 O205 1.245 . S
C221 O206 1.259 . S
Tb222 O225 2.453 . S
Tb222 O226 2.596 . S
Tb222 O227 2.374 . S
Tb222 O235 2.343 . S
Tb222 O237 2.353 . S
Tb222 O239 2.427 . S
Tb222 O240 2.513 . S
C223 O227 1.251 . S
C223 O229 1.263 . S
Tb224 O226 2.343 . S
Tb224 O229 2.353 . S
Tb224 O232 2.427 . S
Tb224 O233 2.513 . S
Tb224 O234 2.453 . S
Tb224 O235 2.596 . S
Tb224 O236 2.374 . S
O225 Tb222 2.453 . S
O225 C241 1.245 . S
O226 Tb222 2.596 . S
O226 Tb224 2.343 . S
O226 C241 1.259 . S
O227 Tb222 2.374 . S
O227 C223 1.251 . S
C228 O232 1.275 . S
C228 O233 1.246 . S
O229 C223 1.263 . S
O229 Tb224 2.353 . S
C230 O234 1.245 . S
C230 O235 1.259 . S
C231 O236 1.250 . S
C231 O237 1.263 . S
O232 Tb224 2.427 . S
O232 C228 1.275 . S
O233 Tb224 2.513 . S
O233 C228 1.246 . S
O234 Tb224 2.453 . S
O234 C230 1.245 . S
O235 Tb222 2.343 . S
O235 Tb224 2.596 . S
O235 C230 1.259 . S
O236 Tb224 2.374 . S
O236 C231 1.250 . S
O237 Tb222 2.353 . S
O237 C231 1.263 . S
C238 O239 1.275 . S
C238 O240 1.246 . S
O239 Tb222 2.427 . S
O239 C238 1.275 . S
O240 Tb222 2.513 . S
O240 C238 1.246 . S
C241 O225 1.245 . S
C241 O226 1.259 . S
Tb242 O245 2.453 . S
Tb242 O246 2.596 . S
Tb242 O247 2.374 . S
Tb242 O255 2.343 . S
Tb242 O257 2.353 . S
Tb242 O259 2.427 . S
Tb242 O260 2.513 . S
C243 O247 1.251 . S
C243 O249 1.263 . S
Tb244 O246 2.343 . S
Tb244 O249 2.353 . S
Tb244 O252 2.427 . S
Tb244 O253 2.513 . S
Tb244 O254 2.453 . S
Tb244 O255 2.596 . S
Tb244 O256 2.374 . S
O245 Tb242 2.453 . S
O245 C261 1.245 . S
O246 Tb242 2.596 . S
O246 Tb244 2.343 . S
O246 C261 1.259 . S
O247 Tb242 2.374 . S
O247 C243 1.251 . S
C248 O252 1.275 . S
C248 O253 1.246 . S
O249 C243 1.263 . S
O249 Tb244 2.353 . S
C250 O254 1.245 . S
C250 O255 1.259 . S
C251 O256 1.250 . S
C251 O257 1.263 . S
O252 Tb244 2.427 . S
O252 C248 1.275 . S
O253 Tb244 2.513 . S
O253 C248 1.246 . S
O254 Tb244 2.453 . S
O254 C250 1.245 . S
O255 Tb242 2.343 . S
O255 Tb244 2.596 . S
O255 C250 1.259 . S
O256 Tb244 2.374 . S
O256 C251 1.250 . S
O257 Tb242 2.353 . S
O257 C251 1.263 . S
C258 O259 1.275 . S
C258 O260 1.246 . S
O259 Tb242 2.427 . S
O259 C258 1.275 . S
O260 Tb242 2.513 . S
O260 C258 1.246 . S
C261 O245 1.245 . S
C261 O246 1.259 . S
Tb262 O265 2.453 . S
Tb262 O266 2.596 . S
Tb262 O267 2.374 . S
Tb262 O275 2.343 . S
Tb262 O277 2.353 . S
Tb262 O279 2.427 . S
Tb262 O280 2.513 . S
C263 O267 1.251 . S
C263 O269 1.263 . S
Tb264 O266 2.343 . S
Tb264 O269 2.353 . S
Tb264 O272 2.427 . S
Tb264 O273 2.513 . S
Tb264 O274 2.453 . S
Tb264 O275 2.596 . S
Tb264 O276 2.374 . S
O265 Tb262 2.453 . S
O265 C281 1.245 . S
O266 Tb262 2.596 . S
O266 Tb264 2.343 . S
O266 C281 1.259 . S
O267 Tb262 2.374 . S
O267 C263 1.251 . S
C268 O272 1.275 . S
C268 O273 1.246 . S
O269 C263 1.263 . S
O269 Tb264 2.353 . S
C270 O274 1.245 . S
C270 O275 1.259 . S
C271 O276 1.250 . S
C271 O277 1.263 . S
O272 Tb264 2.427 . S
O272 C268 1.275 . S
O273 Tb264 2.513 . S
O273 C268 1.246 . S
O274 Tb264 2.453 . S
O274 C270 1.245 . S
O275 Tb262 2.343 . S
O275 Tb264 2.596 . S
O275 C270 1.259 . S
O276 Tb264 2.374 . S
O276 C271 1.250 . S
O277 Tb262 2.353 . S
O277 C271 1.263 . S
C278 O279 1.275 . S
C278 O280 1.246 . S
O279 Tb262 2.427 . S
O279 C278 1.275 . S
O280 Tb262 2.513 . S
O280 C278 1.246 . S
C281 O265 1.245 . S
C281 O266 1.259 . S
Tb282 O285 2.453 . S
Tb282 O286 2.596 . S
Tb282 O287 2.374 . S
Tb282 O295 2.343 . S
Tb282 O297 2.353 . S
Tb282 O299 2.427 . S
Tb282 O300 2.513 . S
C283 O287 1.251 . S
C283 O289 1.263 . S
Tb284 O286 2.343 . S
Tb284 O289 2.353 . S
Tb284 O292 2.427 . S
Tb284 O293 2.513 . S
Tb284 O294 2.453 . S
Tb284 O295 2.596 . S
Tb284 O296 2.374 . S
O285 Tb282 2.453 . S
O285 C301 1.245 . S
O286 Tb282 2.596 . S
O286 Tb284 2.343 . S
O286 C301 1.259 . S
O287 Tb282 2.374 . S
O287 C283 1.251 . S
C288 O292 1.275 . S
C288 O293 1.246 . S
O289 C283 1.263 . S
O289 Tb284 2.353 . S
C290 O294 1.245 . S
C290 O295 1.259 . S
C291 O296 1.250 . S
C291 O297 1.263 . S
O292 Tb284 2.427 . S
O292 C288 1.275 . S
O293 Tb284 2.513 . S
O293 C288 1.246 . S
O294 Tb284 2.453 . S
O294 C290 1.245 . S
O295 Tb282 2.343 . S
O295 Tb284 2.596 . S
O295 C290 1.259 . S
O296 Tb284 2.374 . S
O296 C291 1.250 . S
O297 Tb282 2.353 . S
O297 C291 1.263 . S
C298 O299 1.275 . S
C298 O300 1.246 . S
O299 Tb282 2.427 . S
O299 C298 1.275 . S
O300 Tb282 2.513 . S
O300 C298 1.246 . S
C301 O285 1.245 . S
C301 O286 1.259 . S
Tb302 O305 2.453 . S
Tb302 O306 2.596 . S
Tb302 O307 2.374 . S
Tb302 O315 2.343 . S
Tb302 O317 2.353 . S
Tb302 O319 2.427 . S
Tb302 O320 2.513 . S
C303 O307 1.251 . S
C303 O309 1.263 . S
Tb304 O306 2.343 . S
Tb304 O309 2.353 . S
Tb304 O312 2.427 . S
Tb304 O313 2.513 . S
Tb304 O314 2.453 . S
Tb304 O315 2.596 . S
Tb304 O316 2.374 . S
O305 Tb302 2.453 . S
O305 C321 1.245 . S
O306 Tb302 2.596 . S
O306 Tb304 2.343 . S
O306 C321 1.259 . S
O307 Tb302 2.374 . S
O307 C303 1.251 . S
C308 O312 1.275 . S
C308 O313 1.246 . S
O309 C303 1.263 . S
O309 Tb304 2.353 . S
C310 O314 1.245 . S
C310 O315 1.259 . S
C311 O316 1.250 . S
C311 O317 1.263 . S
O312 Tb304 2.427 . S
O312 C308 1.275 . S
O313 Tb304 2.513 . S
O313 C308 1.246 . S
O314 Tb304 2.453 . S
O314 C310 1.245 . S
O315 Tb302 2.343 . S
O315 Tb304 2.596 . S
O315 C310 1.259 . S
O316 Tb304 2.374 . S
O316 C311 1.250 . S
O317 Tb302 2.353 . S
O317 C311 1.263 . S
C318 O319 1.275 . S
C318 O320 1.246 . S
O319 Tb302 2.427 . S
O319 C318 1.275 . S
O320 Tb302 2.513 . S
O320 C318 1.246 . S
C321 O305 1.245 . S
C321 O306 1.259 . S
Tb322 O325 2.453 . S
Tb322 O326 2.596 . S
Tb322 O327 2.374 . S
Tb322 O335 2.343 . S
Tb322 O337 2.353 . S
Tb322 O339 2.427 . S
Tb322 O340 2.513 . S
C323 O327 1.251 . S
C323 O329 1.263 . S
Tb324 O326 2.343 . S
Tb324 O329 2.353 . S
Tb324 O332 2.427 . S
Tb324 O333 2.513 . S
Tb324 O334 2.453 . S
Tb324 O335 2.596 . S
Tb324 O336 2.374 . S
O325 Tb322 2.453 . S
O325 C341 1.245 . S
O326 Tb322 2.596 . S
O326 Tb324 2.343 . S
O326 C341 1.259 . S
O327 Tb322 2.374 . S
O327 C323 1.251 . S
C328 O332 1.275 . S
C328 O333 1.246 . S
O329 C323 1.263 . S
O329 Tb324 2.353 . S
C330 O334 1.245 . S
C330 O335 1.259 . S
C331 O336 1.250 . S
C331 O337 1.263 . S
O332 Tb324 2.427 . S
O332 C328 1.275 . S
O333 Tb324 2.513 . S
O333 C328 1.246 . S
O334 Tb324 2.453 . S
O334 C330 1.245 . S
O335 Tb322 2.343 . S
O335 Tb324 2.596 . S
O335 C330 1.259 . S
O336 Tb324 2.374 . S
O336 C331 1.250 . S
O337 Tb322 2.353 . S
O337 C331 1.263 . S
C338 O339 1.275 . S
C338 O340 1.246 . S
O339 Tb322 2.427 . S
O339 C338 1.275 . S
O340 Tb322 2.513 . S
O340 C338 1.246 . S
C341 O325 1.245 . S
C341 O326 1.259 . S
C342 C343 1.363 . S
C342 C348 1.379 . S
C342 N350 1.356 . S
C343 C342 1.363 . S
C343 C349 1.363 . S
C344 C345 1.363 . S
C344 C349 1.379 . S
C344 N351 1.356 . S
C345 C344 1.363 . S
C345 C348 1.363 . S
N346 C348 1.349 1_556 S
N346 H358 0.990 . S
N346 H359 0.986 . S
N347 C349 1.356 . S
N347 H352 0.984 . S
N347 H353 0.985 . S
C348 C342 1.379 . S
C348 C345 1.363 . S
C348 N346 1.349 1_554 S
C349 C343 1.363 . S
C349 C344 1.379 . S
C349 N347 1.356 . S
N350 C342 1.356 . S
N350 H356 0.984 . S
N350 H357 0.984 . S
N351 C344 1.356 . S
N351 H354 0.984 . S
N351 H355 0.985 . S
H352 N347 0.984 . S
H353 N347 0.985 . S
H354 N351 0.984 . S
H355 N351 0.985 . S
H356 N350 0.984 . S
H357 N350 0.984 . S
H358 N346 0.990 . S
H359 N346 0.986 . S
C360 C361 1.363 . S
C360 C366 1.379 . S
C360 N368 1.356 . S
C361 C360 1.363 . S
C361 C367 1.363 . S
C362 C363 1.363 . S
C362 C367 1.379 . S
C362 N369 1.356 . S
C363 C362 1.363 . S
C363 C366 1.363 . S
N364 C366 1.356 . S
N364 H376 0.984 1_554 S
N364 H377 0.985 . S
N365 C367 1.356 . S
N365 H370 0.984 . S
N365 H371 0.985 . S
C366 C360 1.379 . S
C366 C363 1.363 . S
C366 N364 1.356 . S
C367 C361 1.363 . S
C367 C362 1.379 . S
C367 N365 1.356 . S
N368 C360 1.356 . S
N368 H374 0.984 . S
N368 H375 0.984 . S
N369 C362 1.356 . S
N369 H372 0.984 . S
N369 H373 0.985 . S
H370 N365 0.984 . S
H371 N365 0.985 . S
H372 N369 0.984 . S
H373 N369 0.985 . S
H374 N368 0.984 . S
H375 N368 0.984 . S
H376 N364 0.984 1_556 S
H377 N364 0.985 . S
C378 C379 1.363 . S
C378 C384 1.379 . S
C378 N386 1.356 . S
C379 C378 1.363 . S
C379 C385 1.363 . S
C380 C381 1.363 . S
C380 C385 1.379 . S
C380 N387 1.356 1_554 S
C381 C380 1.363 . S
C381 C384 1.363 . S
N382 C384 1.356 . S
N382 H394 0.984 . S
N382 H395 0.985 . S
N383 C385 1.356 . S
N383 H388 0.984 . S
N383 H389 0.985 1_554 S
C384 C378 1.379 . S
C384 C381 1.363 . S
C384 N382 1.356 . S
C385 C379 1.363 . S
C385 C380 1.379 . S
C385 N383 1.356 . S
N386 C378 1.356 . S
N386 H392 0.984 . S
N386 H393 0.984 . S
N387 C380 1.356 1_556 S
N387 H390 0.984 . S
N387 H391 0.985 . S
H388 N383 0.984 . S
H389 N383 0.985 1_556 S
H390 N387 0.984 . S
H391 N387 0.985 . S
H392 N386 0.984 . S
H393 N386 0.984 . S
H394 N382 0.984 . S
H395 N382 0.985 . S
C396 C397 1.363 . S
C396 C402 1.379 . S
C396 N404 1.356 . S
C397 C396 1.363 . S
C397 C403 1.363 . S
C398 C399 1.363 . S
C398 C403 1.379 . S
C398 N405 1.356 . S
C399 C398 1.363 . S
C399 C402 1.363 . S
N400 C402 1.356 . S
N400 H412 0.984 . S
N400 H413 0.985 . S
N401 C403 1.356 . S
N401 H406 0.984 . S
N401 H407 0.985 . S
C402 C396 1.379 . S
C402 C399 1.363 . S
C402 N400 1.356 . S
C403 C397 1.363 . S
C403 C398 1.379 . S
C403 N401 1.356 . S
N404 C396 1.356 . S
N404 H410 0.984 . S
N404 H411 0.984 . S
N405 C398 1.356 . S
N405 H408 0.984 . S
N405 H409 0.985 1_556 S
H406 N401 0.984 . S
H407 N401 0.985 . S
H408 N405 0.984 . S
H409 N405 0.985 1_554 S
H410 N404 0.984 . S
H411 N404 0.984 . S
H412 N400 0.984 . S
H413 N400 0.985 . S
C414 C415 1.363 . S
C414 C420 1.379 . S
C414 N422 1.356 . S
C415 C414 1.363 . S
C415 C421 1.363 . S
C416 C417 1.363 . S
C416 C421 1.379 . S
C416 N423 1.356 . S
C417 C416 1.363 . S
C417 C420 1.363 . S
N418 C420 1.356 . S
N418 H430 0.984 . S
N418 H431 0.985 . S
N419 C421 1.356 . S
N419 H424 0.984 . S
N419 H425 0.985 . S
C420 C414 1.379 . S
C420 C417 1.363 . S
C420 N418 1.356 . S
C421 C415 1.363 . S
C421 C416 1.379 . S
C421 N419 1.356 . S
N422 C414 1.356 . S
N422 H428 0.984 . S
N422 H429 0.984 . S
N423 C416 1.356 . S
N423 H426 0.984 . S
N423 H427 0.985 1_556 S
H424 N419 0.984 . S
H425 N419 0.985 . S
H426 N423 0.984 . S
H427 N423 0.985 1_554 S
H428 N422 0.984 . S
H429 N422 0.984 . S
H430 N418 0.984 . S
H431 N418 0.985 . S
C432 C433 1.363 . S
C432 C438 1.379 . S
C432 N440 1.356 . S
C433 C432 1.363 . S
C433 C439 1.363 . S
C434 C435 1.363 . S
C434 C439 1.379 . S
C434 N441 1.356 . S
C435 C434 1.363 . S
C435 C438 1.363 . S
N436 C438 1.356 1_554 S
N436 H448 0.984 . S
N436 H449 0.985 . S
N437 C439 1.356 . S
N437 H442 0.984 . S
N437 H443 0.985 . S
C438 C432 1.379 . S
C438 C435 1.363 . S
C438 N436 1.356 1_556 S
C439 C433 1.363 . S
C439 C434 1.379 . S
C439 N437 1.356 . S
N440 C432 1.356 . S
N440 H446 0.984 . S
N440 H447 0.984 . S
N441 C434 1.356 . S
N441 H444 0.984 . S
N441 H445 0.985 . S
H442 N437 0.984 . S
H443 N437 0.985 . S
H444 N441 0.984 . S
H445 N441 0.985 . S
H446 N440 0.984 . S
H447 N440 0.984 . S
H448 N436 0.984 . S
H449 N436 0.985 . S
C450 C451 1.363 . S
C450 C456 1.379 . S
C450 N458 1.356 . S
C451 C450 1.363 . S
C451 C457 1.363 . S
C452 C453 1.363 . S
C452 C457 1.379 . S
C452 N459 1.356 . S
C453 C452 1.363 . S
C453 C456 1.363 . S
N454 C456 1.356 . S
N454 H466 0.984 . S
N454 H467 0.985 . S
N455 C457 1.356 . S
N455 H460 0.984 . S
N455 H461 0.985 . S
C456 C450 1.379 . S
C456 C453 1.363 . S
C456 N454 1.356 . S
C457 C451 1.363 . S
C457 C452 1.379 . S
C457 N455 1.356 . S
N458 C450 1.356 . S
N458 H464 0.984 . S
N458 H465 0.984 . S
N459 C452 1.356 . S
N459 H462 0.984 . S
N459 H463 0.985 . S
H460 N455 0.984 . S
H461 N455 0.985 . S
H462 N459 0.984 . S
H463 N459 0.985 . S
H464 N458 0.984 . S
H465 N458 0.984 . S
H466 N454 0.984 . S
H467 N454 0.985 . S
C468 C469 1.363 . S
C468 C474 1.379 . S
C468 N476 1.356 . S
C469 C468 1.363 . S
C469 C475 1.363 . S
C470 C471 1.363 . S
C470 C475 1.379 . S
C470 N477 1.356 . S
C471 C470 1.363 . S
C471 C474 1.363 . S
N472 C474 1.356 . S
N472 H484 0.984 . S
N472 H485 0.985 . S
N473 C475 1.356 . S
N473 H478 0.984 . S
N473 H479 0.985 . S
C474 C468 1.379 . S
C474 C471 1.363 . S
C474 N472 1.356 . S
C475 C469 1.363 . S
C475 C470 1.379 . S
C475 N473 1.356 . S
N476 C468 1.356 . S
N476 H482 0.984 . S
N476 H483 0.984 . S
N477 C470 1.356 . S
N477 H480 0.984 . S
N477 H481 0.985 . S
H478 N473 0.984 . S
H479 N473 0.985 . S
H480 N477 0.984 . S
H481 N477 0.985 . S
H482 N476 0.984 . S
H483 N476 0.984 . S
H484 N472 0.984 . S
H485 N472 0.985 . S
C486 C487 1.363 . S
C486 C492 1.379 . S
C486 N494 1.356 . S
C487 C486 1.363 . S
C487 C493 1.363 . S
C488 C489 1.363 . S
C488 C493 1.379 . S
C488 N495 1.356 . S
C489 C488 1.363 . S
C489 C492 1.363 . S
N490 C492 1.356 1_554 S
N490 H502 0.984 . S
N490 H503 0.985 . S
N491 C493 1.356 . S
N491 H496 0.984 . S
N491 H497 0.985 . S
C492 C486 1.379 . S
C492 C489 1.363 . S
C492 N490 1.356 1_556 S
C493 C487 1.363 . S
C493 C488 1.379 . S
C493 N491 1.356 . S
N494 C486 1.356 . S
N494 H500 0.984 1_556 S
N494 H501 0.984 . S
N495 C488 1.356 . S
N495 H498 0.984 . S
N495 H499 0.985 . S
H496 N491 0.984 . S
H497 N491 0.985 . S
H498 N495 0.984 . S
H499 N495 0.985 . S
H500 N494 0.984 1_554 S
H501 N494 0.984 . S
H502 N490 0.984 . S
H503 N490 0.985 . S
C504 C505 1.363 . S
C504 C510 1.379 . S
C504 N512 1.356 . S
C505 C504 1.363 . S
C505 C511 1.363 . S
C506 C507 1.363 . S
C506 C511 1.379 . S
C506 N513 1.356 . S
C507 C506 1.363 . S
C507 C510 1.363 . S
N508 C510 1.356 . S
N508 H520 0.984 . S
N508 H521 0.985 . S
N509 C511 1.356 . S
N509 H514 0.984 . S
N509 H515 0.985 . S
C510 C504 1.379 . S
C510 C507 1.363 . S
C510 N508 1.356 . S
C511 C505 1.363 . S
C511 C506 1.379 . S
C511 N509 1.356 . S
N512 C504 1.356 . S
N512 H518 0.984 . S
N512 H519 0.984 . S
N513 C506 1.356 . S
N513 H516 0.984 . S
N513 H517 0.985 . S
H514 N509 0.984 . S
H515 N509 0.985 . S
H516 N513 0.984 . S
H517 N513 0.985 . S
H518 N512 0.984 . S
H519 N512 0.984 . S
H520 N508 0.984 . S
H521 N508 0.985 . S
C522 C523 1.363 . S
C522 C528 1.379 . S
C522 N530 1.356 . S
C523 C522 1.363 . S
C523 C529 1.363 . S
C524 C525 1.363 . S
C524 C529 1.379 . S
C524 N531 1.356 . S
C525 C524 1.363 . S
C525 C528 1.363 . S
N526 C528 1.356 . S
N526 H538 0.984 . S
N526 H539 0.985 . S
N527 C529 1.356 . S
N527 H532 0.984 . S
N527 H533 0.985 . S
C528 C522 1.379 . S
C528 C525 1.363 . S
C528 N526 1.356 . S
C529 C523 1.363 . S
C529 C524 1.379 . S
C529 N527 1.356 . S
N530 C522 1.356 . S
N530 H536 0.984 . S
N530 H537 0.984 . S
N531 C524 1.356 . S
N531 H534 0.984 . S
N531 H535 0.985 . S
H532 N527 0.984 . S
H533 N527 0.985 . S
H534 N531 0.984 . S
H535 N531 0.985 . S
H536 N530 0.984 . S
H537 N530 0.984 . S
H538 N526 0.984 . S
H539 N526 0.985 . S
C540 C541 1.363 . S
C540 C546 1.379 . S
C540 N548 1.356 . S
C541 C540 1.363 . S
C541 C547 1.363 . S
C542 C543 1.363 . S
C542 C547 1.379 . S
C542 N549 1.356 . S
C543 C542 1.363 . S
C543 C546 1.363 . S
N544 C546 1.356 1_556 S
N544 H556 0.984 . S
N544 H557 0.985 . S
N545 C547 1.356 . S
N545 H550 0.984 . S
N545 H551 0.985 . S
C546 C540 1.379 . S
C546 C543 1.363 . S
C546 N544 1.356 1_554 S
C547 C541 1.363 . S
C547 C542 1.379 . S
C547 N545 1.356 . S
N548 C540 1.356 . S
N548 H554 0.984 1_554 S
N548 H555 0.984 . S
N549 C542 1.356 . S
N549 H552 0.984 . S
N549 H553 0.985 . S
H550 N545 0.984 . S
H551 N545 0.985 . S
H552 N549 0.984 . S
H553 N549 0.985 . S
H554 N548 0.984 1_556 S
H555 N548 0.984 . S
H556 N544 0.984 . S
H557 N544 0.985 . S
C558 C559 1.363 . S
C558 C564 1.379 1_655 S
C558 N566 1.356 . S
C559 C558 1.363 . S
C559 C565 1.363 . S
C560 C561 1.363 1_655 S
C560 C565 1.379 . S
C560 N567 1.356 1_655 S
C561 C560 1.363 1_455 S
C561 C564 1.363 . S
N562 C564 1.356 . S
N562 H574 0.984 . S
N562 H575 0.985 . S
N563 C565 1.356 . S
N563 H568 0.984 . S
N563 H569 0.985 . S
C564 C558 1.379 1_455 S
C564 C561 1.363 . S
C564 N562 1.356 . S
C565 C559 1.363 . S
C565 C560 1.379 . S
C565 N563 1.356 . S
N566 C558 1.356 . S
N566 H572 0.984 . S
N566 H573 0.984 . S
N567 C560 1.356 1_455 S
N567 H570 0.984 . S
N567 H571 0.985 1_455 S
H568 N563 0.984 . S
H569 N563 0.985 . S
H570 N567 0.984 . S
H571 N567 0.985 1_655 S
H572 N566 0.984 . S
H573 N566 0.984 . S
H574 N562 0.984 . S
H575 N562 0.985 . S
C576 C577 1.363 . S
C576 C582 1.379 . S
C576 N584 1.356 . S
C577 C576 1.363 . S
C577 C583 1.363 . S
C578 C579 1.363 . S
C578 C583 1.379 . S
C578 N585 1.356 . S
C579 C578 1.363 . S
C579 C582 1.363 . S
N580 C582 1.356 . S
N580 H592 0.984 . S
N580 H593 0.985 . S
N581 C583 1.356 . S
N581 H586 0.984 . S
N581 H587 0.985 . S
C582 C576 1.379 . S
C582 C579 1.363 . S
C582 N580 1.356 . S
C583 C577 1.363 . S
C583 C578 1.379 . S
C583 N581 1.356 . S
N584 C576 1.356 . S
N584 H590 0.984 . S
N584 H591 0.984 . S
N585 C578 1.356 . S
N585 H588 0.984 . S
N585 H589 0.985 . S
H586 N581 0.984 . S
H587 N581 0.985 . S
H588 N585 0.984 . S
H589 N585 0.985 . S
H590 N584 0.984 . S
H591 N584 0.984 . S
H592 N580 0.984 . S
H593 N580 0.985 . S
C594 C595 1.363 . S
C594 C600 1.379 1_545 S
C594 N602 1.356 . S
C595 C594 1.363 . S
C595 C601 1.363 . S
C596 C597 1.363 . S
C596 C601 1.379 1_565 S
C596 N603 1.356 . S
C597 C596 1.363 . S
C597 C600 1.363 . S
N598 C600 1.356 . S
N598 H610 0.984 . S
N598 H611 0.985 . S
N599 C601 1.356 . S
N599 H604 0.984 . S
N599 H605 0.985 . S
C600 C594 1.379 1_565 S
C600 C597 1.363 . S
C600 N598 1.356 . S
C601 C595 1.363 . S
C601 C596 1.379 1_545 S
C601 N599 1.356 . S
N602 C594 1.356 . S
N602 H608 0.984 . S
N602 H609 0.984 . S
N603 C596 1.356 . S
N603 H606 0.984 . S
N603 H607 0.985 . S
H604 N599 0.984 . S
H605 N599 0.985 . S
H606 N603 0.984 . S
H607 N603 0.985 . S
H608 N602 0.984 . S
H609 N602 0.984 . S
H610 N598 0.984 . S
H611 N598 0.985 . S
C612 C613 1.363 . S
C612 C618 1.379 . S
C612 N620 1.356 . S
C613 C612 1.363 . S
C613 C619 1.363 . S
C614 C615 1.363 . S
C614 C619 1.379 . S
C614 N621 1.356 . S
C615 C614 1.363 . S
C615 C618 1.363 . S
N616 C618 1.356 . S
N616 H628 0.984 . S
N616 H629 0.985 . S
N617 C619 1.356 . S
N617 H622 0.984 . S
N617 H623 0.985 . S
C618 C612 1.379 . S
C618 C615 1.363 . S
C618 N616 1.356 . S
C619 C613 1.363 . S
C619 C614 1.379 . S
C619 N617 1.356 . S
N620 C612 1.356 . S
N620 H626 0.984 . S
N620 H627 0.984 . S
N621 C614 1.356 . S
N621 H624 0.984 . S
N621 H625 0.985 . S
H622 N617 0.984 . S
H623 N617 0.985 . S
H624 N621 0.984 . S
H625 N621 0.985 . S
H626 N620 0.984 . S
H627 N620 0.984 . S
H628 N616 0.984 . S
H629 N616 0.985 . S
C630 C631 1.363 . S
C630 C636 1.379 . S
C630 N638 1.356 . S
C631 C630 1.363 . S
C631 C637 1.363 . S
C632 C633 1.363 . S
C632 C637 1.379 . S
C632 N639 1.356 . S
C633 C632 1.363 . S
C633 C636 1.363 . S
N634 C636 1.356 . S
N634 H646 0.984 . S
N634 H647 0.985 . S
N635 C637 1.356 . S
N635 H640 0.984 . S
N635 H641 0.985 . S
C636 C630 1.379 . S
C636 C633 1.363 . S
C636 N634 1.356 . S
C637 C631 1.363 . S
C637 C632 1.379 . S
C637 N635 1.356 . S
N638 C630 1.356 . S
N638 H644 0.984 . S
N638 H645 0.984 . S
N639 C632 1.356 . S
N639 H642 0.984 . S
N639 H643 0.985 . S
H640 N635 0.984 . S
H641 N635 0.985 . S
H642 N639 0.984 . S
H643 N639 0.985 . S
H644 N638 0.984 . S
H645 N638 0.984 . S
H646 N634 0.984 . S
H647 N634 0.985 . S
C648 C649 1.363 . S
C648 C654 1.379 . S
C648 N656 1.356 . S
C649 C648 1.363 . S
C649 C655 1.363 . S
C650 C651 1.363 . S
C650 C655 1.379 . S
C650 N657 1.356 . S
C651 C650 1.363 . S
C651 C654 1.363 . S
N652 C654 1.356 . S
N652 H664 0.984 . S
N652 H665 0.985 . S
N653 C655 1.356 . S
N653 H658 0.984 . S
N653 H659 0.985 . S
C654 C648 1.379 . S
C654 C651 1.363 . S
C654 N652 1.356 . S
C655 C649 1.363 . S
C655 C650 1.379 . S
C655 N653 1.356 . S
N656 C648 1.356 . S
N656 H662 0.984 . S
N656 H663 0.984 . S
N657 C650 1.356 . S
N657 H660 0.984 . S
N657 H661 0.985 . S
H658 N653 0.984 . S
H659 N653 0.985 . S
H660 N657 0.984 . S
H661 N657 0.985 . S
H662 N656 0.984 . S
H663 N656 0.984 . S
H664 N652 0.984 . S
H665 N652 0.985 . S
C666 C667 1.363 . S
C666 C672 1.379 . S
C666 N674 1.356 . S
C667 C666 1.363 . S
C667 C673 1.363 . S
C668 C669 1.363 . S
C668 C673 1.379 . S
C668 N675 1.356 . S
C669 C668 1.363 . S
C669 C672 1.363 . S
N670 C672 1.356 . S
N670 H682 0.984 . S
N670 H683 0.985 . S
N671 C673 1.356 . S
N671 H676 0.984 . S
N671 H677 0.985 . S
C672 C666 1.379 . S
C672 C669 1.363 . S
C672 N670 1.356 . S
C673 C667 1.363 . S
C673 C668 1.379 . S
C673 N671 1.356 . S
N674 C666 1.356 . S
N674 H680 0.984 . S
N674 H681 0.984 . S
N675 C668 1.356 . S
N675 H678 0.984 . S
N675 H679 0.985 . S
H676 N671 0.984 . S
H677 N671 0.985 . S
H678 N675 0.984 . S
H679 N675 0.985 . S
H680 N674 0.984 . S
H681 N674 0.984 . S
H682 N670 0.984 . S
H683 N670 0.985 . S
C684 C685 1.363 . S
C684 C690 1.379 . S
C684 N692 1.356 . S
C685 C684 1.363 . S
C685 C691 1.363 . S
C686 C687 1.363 . S
C686 C691 1.379 . S
C686 N693 1.356 . S
C687 C686 1.363 . S
C687 C690 1.363 . S
N688 C690 1.356 . S
N688 H700 0.984 . S
N688 H701 0.985 . S
N689 C691 1.356 . S
N689 H694 0.984 . S
N689 H695 0.985 . S
C690 C684 1.379 . S
C690 C687 1.363 . S
C690 N688 1.356 . S
C691 C685 1.363 . S
C691 C686 1.379 . S
C691 N689 1.356 . S
N692 C684 1.356 . S
N692 H698 0.984 . S
N692 H699 0.984 . S
N693 C686 1.356 . S
N693 H696 0.984 . S
N693 H697 0.985 . S
H694 N689 0.984 . S
H695 N689 0.985 . S
H696 N693 0.984 . S
H697 N693 0.985 . S
H698 N692 0.984 . S
H699 N692 0.984 . S
H700 N688 0.984 . S
H701 N688 0.985 . S
C702 C703 1.363 . S
C702 C708 1.379 . S
C702 N710 1.356 . S
C703 C702 1.363 . S
C703 C709 1.363 . S
C704 C705 1.363 . S
C704 C709 1.379 . S
C704 N711 1.356 . S
C705 C704 1.363 . S
C705 C708 1.363 . S
N706 C708 1.356 . S
N706 H718 0.984 . S
N706 H719 0.985 . S
N707 C709 1.356 . S
N707 H712 0.984 . S
N707 H713 0.985 . S
C708 C702 1.379 . S
C708 C705 1.363 . S
C708 N706 1.356 . S
C709 C703 1.363 . S
C709 C704 1.379 . S
C709 N707 1.356 . S
N710 C702 1.356 . S
N710 H716 0.984 . S
N710 H717 0.984 . S
N711 C704 1.356 . S
N711 H714 0.984 . S
N711 H715 0.985 . S
H712 N707 0.984 . S
H713 N707 0.985 . S
H714 N711 0.984 . S
H715 N711 0.985 . S
H716 N710 0.984 . S
H717 N710 0.984 . S
H718 N706 0.984 . S
H719 N706 0.985 . S
C720 C721 1.363 . S
C720 C726 1.379 1_545 S
C720 N728 1.356 . S
C721 C720 1.363 . S
C721 C727 1.363 . S
C722 C723 1.363 . S
C722 C727 1.379 1_565 S
C722 N729 1.356 . S
C723 C722 1.363 . S
C723 C726 1.363 . S
N724 C726 1.356 . S
N724 H736 0.984 . S
N724 H737 0.985 . S
N725 C727 1.356 . S
N725 H730 0.984 . S
N725 H731 0.985 . S
C726 C720 1.379 1_565 S
C726 C723 1.363 . S
C726 N724 1.356 . S
C727 C721 1.363 . S
C727 C722 1.379 1_545 S
C727 N725 1.356 . S
N728 C720 1.356 . S
N728 H734 0.984 . S
N728 H735 0.984 . S
N729 C722 1.356 . S
N729 H732 0.984 . S
N729 H733 0.985 . S
H730 N725 0.984 . S
H731 N725 0.985 . S
H732 N729 0.984 . S
H733 N729 0.985 . S
H734 N728 0.984 . S
H735 N728 0.984 . S
H736 N724 0.984 . S
H737 N724 0.985 . S
C738 C739 1.363 . S
C738 C744 1.379 1_655 S
C738 N746 1.356 . S
C739 C738 1.363 . S
C739 C745 1.363 . S
C740 C741 1.363 1_655 S
C740 C745 1.379 . S
C740 N747 1.356 1_655 S
C741 C740 1.363 1_455 S
C741 C744 1.363 . S
N742 C744 1.356 . S
N742 H754 0.984 . S
N742 H755 0.985 . S
N743 C745 1.356 . S
N743 H748 0.984 . S
N743 H749 0.985 . S
C744 C738 1.379 1_455 S
C744 C741 1.363 . S
C744 N742 1.356 . S
C745 C739 1.363 . S
C745 C740 1.379 . S
C745 N743 1.356 . S
N746 C738 1.356 . S
N746 H752 0.984 . S
N746 H753 0.984 . S
N747 C740 1.356 1_455 S
N747 H750 0.984 . S
N747 H751 0.985 1_455 S
H748 N743 0.984 . S
H749 N743 0.985 . S
H750 N747 0.984 . S
H751 N747 0.985 1_655 S
H752 N746 0.984 . S
H753 N746 0.984 . S
H754 N742 0.984 . S
H755 N742 0.985 . S
C756 C757 1.363 . S
C756 C762 1.379 . S
C756 N764 1.356 . S
C757 C756 1.363 . S
C757 C763 1.363 . S
C758 C759 1.363 . S
C758 C763 1.379 . S
C758 N765 1.356 . S
C759 C758 1.363 . S
C759 C762 1.363 . S
N760 C762 1.356 . S
N760 H772 0.984 . S
N760 H773 0.985 . S
N761 C763 1.356 . S
N761 H766 0.984 . S
N761 H767 0.985 . S
C762 C756 1.379 . S
C762 C759 1.363 . S
C762 N760 1.356 . S
C763 C757 1.363 . S
C763 C758 1.379 . S
C763 N761 1.356 . S
N764 C756 1.356 . S
N764 H770 0.984 . S
N764 H771 0.984 . S
N765 C758 1.356 . S
N765 H768 0.984 . S
N765 H769 0.985 . S
H766 N761 0.984 . S
H767 N761 0.985 . S
H768 N765 0.984 . S
H769 N765 0.985 . S
H770 N764 0.984 . S
H771 N764 0.984 . S
H772 N760 0.984 . S
H773 N760 0.985 . S
C774 C775 1.363 . S
C774 C780 1.379 . S
C774 N782 1.356 . S
C775 C774 1.363 . S
C775 C781 1.363 . S
C776 C777 1.363 . S
C776 C781 1.379 . S
C776 N783 1.356 . S
C777 C776 1.363 . S
C777 C780 1.363 . S
N778 C780 1.356 . S
N778 H790 0.984 . S
N778 H791 0.985 . S
N779 C781 1.356 . S
N779 H784 0.984 . S
N779 H785 0.985 . S
C780 C774 1.379 . S
C780 C777 1.363 . S
C780 N778 1.356 . S
C781 C775 1.363 . S
C781 C776 1.379 . S
C781 N779 1.356 . S
N782 C774 1.356 . S
N782 H788 0.984 . S
N782 H789 0.984 . S
N783 C776 1.356 . S
N783 H786 0.984 . S
N783 H787 0.985 . S
H784 N779 0.984 . S
H785 N779 0.985 . S
H786 N783 0.984 . S
H787 N783 0.985 . S
H788 N782 0.984 . S
H789 N782 0.984 . S
H790 N778 0.984 . S
H791 N778 0.985 . S
C792 C793 1.363 . S
C792 C798 1.379 . S
C792 N800 1.356 . S
C793 C792 1.363 . S
C793 C799 1.363 . S
C794 C795 1.363 . S
C794 C799 1.379 . S
C794 N801 1.356 . S
C795 C794 1.363 . S
C795 C798 1.363 . S
N796 C798 1.356 . S
N796 H808 0.984 . S
N796 H809 0.985 . S
N797 C799 1.356 . S
N797 H802 0.984 . S
N797 H803 0.985 . S
C798 C792 1.379 . S
C798 C795 1.363 . S
C798 N796 1.356 . S
C799 C793 1.363 . S
C799 C794 1.379 . S
C799 N797 1.356 . S
N800 C792 1.356 . S
N800 H806 0.984 . S
N800 H807 0.984 . S
N801 C794 1.356 . S
N801 H804 0.984 . S
N801 H805 0.985 . S
H802 N797 0.984 . S
H803 N797 0.985 . S
H804 N801 0.984 . S
H805 N801 0.985 . S
H806 N800 0.984 . S
H807 N800 0.984 . S
H808 N796 0.984 . S
H809 N796 0.985 . S
C810 C811 1.363 . S
C810 C816 1.379 . S
C810 N818 1.356 . S
C811 C810 1.363 . S
C811 C817 1.363 . S
C812 C813 1.363 . S
C812 C817 1.379 . S
C812 N819 1.356 . S
C813 C812 1.363 . S
C813 C816 1.363 . S
N814 C816 1.356 . S
N814 H826 0.984 . S
N814 H827 0.985 . S
N815 C817 1.356 . S
N815 H820 0.984 . S
N815 H821 0.985 . S
C816 C810 1.379 . S
C816 C813 1.363 . S
C816 N814 1.356 . S
C817 C811 1.363 . S
C817 C812 1.379 . S
C817 N815 1.356 . S
N818 C810 1.356 . S
N818 H824 0.984 . S
N818 H825 0.984 . S
N819 C812 1.356 . S
N819 H822 0.984 . S
N819 H823 0.985 . S
H820 N815 0.984 . S
H821 N815 0.985 . S
H822 N819 0.984 . S
H823 N819 0.985 . S
H824 N818 0.984 . S
H825 N818 0.984 . S
H826 N814 0.984 . S
H827 N814 0.985 . S
C828 C829 1.363 . S
C828 C834 1.379 1_565 S
C828 N836 1.356 . S
C829 C828 1.363 . S
C829 C835 1.363 . S
C830 C831 1.363 . S
C830 C835 1.379 1_545 S
C830 N837 1.356 . S
C831 C830 1.363 . S
C831 C834 1.363 . S
N832 C834 1.356 . S
N832 H844 0.984 . S
N832 H845 0.985 . S
N833 C835 1.356 . S
N833 H838 0.984 . S
N833 H839 0.985 . S
C834 C828 1.379 1_545 S
C834 C831 1.363 . S
C834 N832 1.356 . S
C835 C829 1.363 . S
C835 C830 1.379 1_565 S
C835 N833 1.356 . S
N836 C828 1.356 . S
N836 H842 0.984 . S
N836 H843 0.984 . S
N837 C830 1.356 . S
N837 H840 0.984 . S
N837 H841 0.985 . S
H838 N833 0.984 . S
H839 N833 0.985 . S
H840 N837 0.984 . S
H841 N837 0.985 . S
H842 N836 0.984 . S
H843 N836 0.984 . S
H844 N832 0.984 . S
H845 N832 0.985 . S
C846 C847 1.363 . S
C846 C852 1.379 . S
C846 N854 1.356 . S
C847 C846 1.363 . S
C847 C853 1.363 . S
C848 C849 1.363 . S
C848 C853 1.379 1_655 S
C848 N855 1.356 . S
C849 C848 1.363 . S
C849 C852 1.363 1_655 S
N850 C852 1.356 1_655 S
N850 H862 0.984 . S
N850 H863 0.985 . S
N851 C853 1.356 . S
N851 H856 0.984 . S
N851 H857 0.985 . S
C852 C846 1.379 . S
C852 C849 1.363 1_455 S
C852 N850 1.356 1_455 S
C853 C847 1.363 . S
C853 C848 1.379 1_455 S
C853 N851 1.356 . S
N854 C846 1.356 . S
N854 H860 0.984 . S
N854 H861 0.984 . S
N855 C848 1.356 . S
N855 H858 0.984 . S
N855 H859 0.985 . S
H856 N851 0.984 . S
H857 N851 0.985 . S
H858 N855 0.984 . S
H859 N855 0.985 . S
H860 N854 0.984 . S
H861 N854 0.984 . S
H862 N850 0.984 . S
H863 N850 0.985 . S
C864 C865 1.363 . S
C864 C870 1.379 . S
C864 N872 1.356 . S
C865 C864 1.363 . S
C865 C871 1.363 . S
C866 C867 1.363 . S
C866 C871 1.379 . S
C866 N873 1.356 . S
C867 C866 1.363 . S
C867 C870 1.363 . S
N868 C870 1.356 . S
N868 H880 0.984 . S
N868 H881 0.985 . S
N869 C871 1.356 . S
N869 H874 0.984 . S
N869 H875 0.985 . S
C870 C864 1.379 . S
C870 C867 1.363 . S
C870 N868 1.356 . S
C871 C865 1.363 . S
C871 C866 1.379 . S
C871 N869 1.356 . S
N872 C864 1.356 . S
N872 H878 0.984 . S
N872 H879 0.984 . S
N873 C866 1.356 . S
N873 H876 0.984 . S
N873 H877 0.985 . S
H874 N869 0.984 . S
H875 N869 0.985 . S
H876 N873 0.984 . S
H877 N873 0.985 . S
H878 N872 0.984 . S
H879 N872 0.984 . S
H880 N868 0.984 . S
H881 N868 0.985 . S
C882 C883 1.363 . S
C882 C888 1.379 1_455 S
C882 N890 1.356 . S
C883 C882 1.363 . S
C883 C889 1.363 . S
C884 C885 1.363 1_455 S
C884 C889 1.379 . S
C884 N891 1.356 . S
C885 C884 1.363 1_655 S
C885 C888 1.363 . S
N886 C888 1.356 . S
N886 H898 0.984 . S
N886 H899 0.985 . S
N887 C889 1.356 . S
N887 H892 0.984 . S
N887 H893 0.985 . S
C888 C882 1.379 1_655 S
C888 C885 1.363 . S
C888 N886 1.356 . S
C889 C883 1.363 . S
C889 C884 1.379 . S
C889 N887 1.356 . S
N890 C882 1.356 . S
N890 H896 0.984 . S
N890 H897 0.984 . S
N891 C884 1.356 . S
N891 H894 0.984 1_455 S
N891 H895 0.985 . S
H892 N887 0.984 . S
H893 N887 0.985 . S
H894 N891 0.984 1_655 S
H895 N891 0.985 . S
H896 N890 0.984 . S
H897 N890 0.984 . S
H898 N886 0.984 . S
H899 N886 0.985 . S
C900 C901 1.363 . S
C900 C906 1.379 . S
C900 N908 1.356 . S
C901 C900 1.363 . S
C901 C907 1.363 . S
C902 C903 1.363 . S
C902 C907 1.379 . S
C902 N909 1.356 . S
C903 C902 1.363 . S
C903 C906 1.363 . S
N904 C906 1.356 . S
N904 H916 0.984 . S
N904 H917 0.985 . S
N905 C907 1.356 . S
N905 H910 0.984 . S
N905 H911 0.985 . S
C906 C900 1.379 . S
C906 C903 1.363 . S
C906 N904 1.356 . S
C907 C901 1.363 . S
C907 C902 1.379 . S
C907 N905 1.356 . S
N908 C900 1.356 . S
N908 H914 0.984 . S
N908 H915 0.984 . S
N909 C902 1.356 . S
N909 H912 0.984 . S
N909 H913 0.985 . S
H910 N905 0.984 . S
H911 N905 0.985 . S
H912 N909 0.984 . S
H913 N909 0.985 . S
H914 N908 0.984 . S
H915 N908 0.984 . S
H916 N904 0.984 . S
H917 N904 0.985 . S
C918 C919 1.363 . S
C918 C924 1.379 1_565 S
C918 N926 1.356 . S
C919 C918 1.363 . S
C919 C925 1.363 . S
C920 C921 1.363 . S
C920 C925 1.379 1_545 S
C920 N927 1.356 . S
C921 C920 1.363 . S
C921 C924 1.363 . S
N922 C924 1.356 . S
N922 H934 0.984 . S
N922 H935 0.985 . S
N923 C925 1.356 . S
N923 H928 0.984 . S
N923 H929 0.985 . S
C924 C918 1.379 1_545 S
C924 C921 1.363 . S
C924 N922 1.356 . S
C925 C919 1.363 . S
C925 C920 1.379 1_565 S
C925 N923 1.356 . S
N926 C918 1.356 . S
N926 H932 0.984 . S
N926 H933 0.984 . S
N927 C920 1.356 . S
N927 H930 0.984 . S
N927 H931 0.985 . S
H928 N923 0.984 . S
H929 N923 0.985 . S
H930 N927 0.984 . S
H931 N927 0.985 . S
H932 N926 0.984 . S
H933 N926 0.984 . S
H934 N922 0.984 . S
H935 N922 0.985 . S
C936 C937 1.363 . S
C936 C942 1.379 . S
C936 N944 1.356 . S
C937 C936 1.363 . S
C937 C943 1.363 . S
C938 C939 1.363 . S
C938 C943 1.379 . S
C938 N945 1.356 . S
C939 C938 1.363 . S
C939 C942 1.363 . S
N940 C942 1.356 . S
N940 H952 0.984 . S
N940 H953 0.985 . S
N941 C943 1.356 . S
N941 H946 0.984 . S
N941 H947 0.985 . S
C942 C936 1.379 . S
C942 C939 1.363 . S
C942 N940 1.356 . S
C943 C937 1.363 . S
C943 C938 1.379 . S
C943 N941 1.356 . S
N944 C936 1.356 . S
N944 H950 0.984 . S
N944 H951 0.984 . S
N945 C938 1.356 . S
N945 H948 0.984 . S
N945 H949 0.985 . S
H946 N941 0.984 . S
H947 N941 0.985 . S
H948 N945 0.984 . S
H949 N945 0.985 . S
H950 N944 0.984 . S
H951 N944 0.984 . S
H952 N940 0.984 . S
H953 N940 0.985 . S
C954 C955 1.363 . S
C954 C960 1.379 . S
C954 N962 1.356 . S
C955 C954 1.363 . S
C955 C961 1.363 . S
C956 C957 1.363 . S
C956 C961 1.379 . S
C956 N963 1.356 . S
C957 C956 1.363 . S
C957 C960 1.363 . S
N958 C960 1.356 . S
N958 H970 0.984 . S
N958 H971 0.985 . S
N959 C961 1.356 . S
N959 H964 0.984 . S
N959 H965 0.985 . S
C960 C954 1.379 . S
C960 C957 1.363 . S
C960 N958 1.356 . S
C961 C955 1.363 . S
C961 C956 1.379 . S
C961 N959 1.356 . S
N962 C954 1.356 . S
N962 H968 0.984 1_545 S
N962 H969 0.984 . S
N963 C956 1.356 . S
N963 H966 0.984 . S
N963 H967 0.985 . S
H964 N959 0.984 . S
H965 N959 0.985 . S
H966 N963 0.984 . S
H967 N963 0.985 . S
H968 N962 0.984 1_565 S
H969 N962 0.984 . S
H970 N958 0.984 . S
H971 N958 0.985 . S
C972 C973 1.363 . S
C972 C978 1.379 . S
C972 N980 1.356 . S
C973 C972 1.363 . S
C973 C979 1.363 . S
C974 C975 1.363 . S
C974 C979 1.379 . S
C974 N981 1.356 . S
C975 C974 1.363 . S
C975 C978 1.363 . S
N976 C978 1.356 . S
N976 H988 0.984 . S
N976 H989 0.985 . S
N977 C979 1.356 . S
N977 H982 0.984 . S
N977 H983 0.985 . S
C978 C972 1.379 . S
C978 C975 1.363 . S
C978 N976 1.356 . S
C979 C973 1.363 . S
C979 C974 1.379 . S
C979 N977 1.356 . S
N980 C972 1.356 . S
N980 H986 0.984 . S
N980 H987 0.984 . S
N981 C974 1.356 . S
N981 H984 0.984 . S
N981 H985 0.985 . S
H982 N977 0.984 . S
H983 N977 0.985 . S
H984 N981 0.984 . S
H985 N981 0.985 . S
H986 N980 0.984 . S
H987 N980 0.984 . S
H988 N976 0.984 . S
H989 N976 0.985 . S
C990 C991 1.363 . S
C990 C996 1.379 . S
C990 N998 1.356 . S
C991 C990 1.363 . S
C991 C997 1.363 1_565 S
C992 C993 1.363 1_545 S
C992 C997 1.379 . S
C992 N999 1.356 . S
C993 C992 1.363 1_565 S
C993 C996 1.363 . S
N994 C996 1.356 . S
N994 H1006 0.984 . S
N994 H1007 0.985 . S
N995 C997 1.356 . S
N995 H1000 0.984 . S
N995 H1001 0.985 . S
C996 C990 1.379 . S
C996 C993 1.363 . S
C996 N994 1.356 . S
C997 C991 1.363 1_545 S
C997 C992 1.379 . S
C997 N995 1.356 . S
N998 C990 1.356 . S
N998 H1004 0.984 . S
N998 H1005 0.984 . S
N999 C992 1.356 . S
N999 H1002 0.984 . S
N999 H1003 0.985 . S
H1000 N995 0.984 . S
H1001 N995 0.985 . S
H1002 N999 0.984 . S
H1003 N999 0.985 . S
H1004 N998 0.984 . S
H1005 N998 0.984 . S
H1006 N994 0.984 . S
H1007 N994 0.985 . S
C1008 C1009 1.363 . S
C1008 C1014 1.379 . S
C1008 N1016 1.356 . S
C1009 C1008 1.363 . S
C1009 C1015 1.363 . S
C1010 C1011 1.363 . S
C1010 C1015 1.379 . S
C1010 N1017 1.356 . S
C1011 C1010 1.363 . S
C1011 C1014 1.363 . S
N1012 C1014 1.356 . S
N1012 H1024 0.984 . S
N1012 H1025 0.985 . S
N1013 C1015 1.356 . S
N1013 H1018 0.984 . S
N1013 H1019 0.985 . S
C1014 C1008 1.379 . S
C1014 C1011 1.363 . S
C1014 N1012 1.356 . S
C1015 C1009 1.363 . S
C1015 C1010 1.379 . S
C1015 N1013 1.356 . S
N1016 C1008 1.356 . S
N1016 H1022 0.984 . S
N1016 H1023 0.984 . S
N1017 C1010 1.356 . S
N1017 H1020 0.984 . S
N1017 H1021 0.985 . S
H1018 N1013 0.984 . S
H1019 N1013 0.985 . S
H1020 N1017 0.984 . S
H1021 N1017 0.985 . S
H1022 N1016 0.984 . S
H1023 N1016 0.984 . S
H1024 N1012 0.984 . S
H1025 N1012 0.985 . S
C1026 C1027 1.363 . S
C1026 C1032 1.379 . S
C1026 N1034 1.356 . S
C1027 C1026 1.363 . S
C1027 C1033 1.363 . S
C1028 C1029 1.363 . S
C1028 C1033 1.379 . S
C1028 N1035 1.356 . S
C1029 C1028 1.363 . S
C1029 C1032 1.363 . S
N1030 C1032 1.356 . S
N1030 H1042 0.984 . S
N1030 H1043 0.985 . S
N1031 C1033 1.356 . S
N1031 H1036 0.984 . S
N1031 H1037 0.985 . S
C1032 C1026 1.379 . S
C1032 C1029 1.363 . S
C1032 N1030 1.356 . S
C1033 C1027 1.363 . S
C1033 C1028 1.379 . S
C1033 N1031 1.356 . S
N1034 C1026 1.356 . S
N1034 H1040 0.984 . S
N1034 H1041 0.984 . S
N1035 C1028 1.356 . S
N1035 H1038 0.984 . S
N1035 H1039 0.985 . S
H1036 N1031 0.984 . S
H1037 N1031 0.985 . S
H1038 N1035 0.984 . S
H1039 N1035 0.985 . S
H1040 N1034 0.984 . S
H1041 N1034 0.984 . S
H1042 N1030 0.984 . S
H1043 N1030 0.985 . S
C1044 C1045 1.363 . S
C1044 C1050 1.379 . S
C1044 N1052 1.356 . S
C1045 C1044 1.363 . S
C1045 C1051 1.363 . S
C1046 C1047 1.363 1_455 S
C1046 C1051 1.379 1_455 S
C1046 N1053 1.356 . S
C1047 C1046 1.363 1_655 S
C1047 C1050 1.363 . S
N1048 C1050 1.356 . S
N1048 H1060 0.984 . S
N1048 H1061 0.985 . S
N1049 C1051 1.356 1_455 S
N1049 H1054 0.984 1_455 S
N1049 H1055 0.985 . S
C1050 C1044 1.379 . S
C1050 C1047 1.363 . S
C1050 N1048 1.356 . S
C1051 C1045 1.363 . S
C1051 C1046 1.379 1_655 S
C1051 N1049 1.356 1_655 S
N1052 C1044 1.356 . S
N1052 H1058 0.984 . S
N1052 H1059 0.984 . S
N1053 C1046 1.356 . S
N1053 H1056 0.984 . S
N1053 H1057 0.985 . S
H1054 N1049 0.984 1_655 S
H1055 N1049 0.985 . S
H1056 N1053 0.984 . S
H1057 N1053 0.985 . S
H1058 N1052 0.984 . S
H1059 N1052 0.984 . S
H1060 N1048 0.984 . S
H1061 N1048 0.985 . S
C1062 C1063 1.363 . S
C1062 C1068 1.379 . S
C1062 N1070 1.356 . S
C1063 C1062 1.363 . S
C1063 C1069 1.363 . S
C1064 C1065 1.363 . S
C1064 C1069 1.379 . S
C1064 N1071 1.356 . S
C1065 C1064 1.363 . S
C1065 C1068 1.363 . S
N1066 C1068 1.356 . S
N1066 H1078 0.984 . S
N1066 H1079 0.985 . S
N1067 C1069 1.356 . S
N1067 H1072 0.984 . S
N1067 H1073 0.985 . S
C1068 C1062 1.379 . S
C1068 C1065 1.363 . S
C1068 N1066 1.356 . S
C1069 C1063 1.363 . S
C1069 C1064 1.379 . S
C1069 N1067 1.356 . S
N1070 C1062 1.356 . S
N1070 H1076 0.984 . S
N1070 H1077 0.984 . S
N1071 C1064 1.356 . S
N1071 H1074 0.984 . S
N1071 H1075 0.985 . S
H1072 N1067 0.984 . S
H1073 N1067 0.985 . S
H1074 N1071 0.984 . S
H1075 N1071 0.985 . S
H1076 N1070 0.984 . S
H1077 N1070 0.984 . S
H1078 N1066 0.984 . S
H1079 N1066 0.985 . S
C1080 C1081 1.363 . S
C1080 C1086 1.379 1_545 S
C1080 N1088 1.356 1_545 S
C1081 C1080 1.363 . S
C1081 C1087 1.363 . S
C1082 C1083 1.363 . S
C1082 C1087 1.379 . S
C1082 N1089 1.356 . S
C1083 C1082 1.363 . S
C1083 C1086 1.363 1_545 S
N1084 C1086 1.356 . S
N1084 H1096 0.984 . S
N1084 H1097 0.985 . S
N1085 C1087 1.356 . S
N1085 H1090 0.984 . S
N1085 H1091 0.985 . S
C1086 C1080 1.379 1_565 S
C1086 C1083 1.363 1_565 S
C1086 N1084 1.356 . S
C1087 C1081 1.363 . S
C1087 C1082 1.379 . S
C1087 N1085 1.356 . S
N1088 C1080 1.356 1_565 S
N1088 H1094 0.984 . S
N1088 H1095 0.984 1_565 S
N1089 C1082 1.356 . S
N1089 H1092 0.984 . S
N1089 H1093 0.985 . S
H1090 N1085 0.984 . S
H1091 N1085 0.985 . S
H1092 N1089 0.984 . S
H1093 N1089 0.985 . S
H1094 N1088 0.984 . S
H1095 N1088 0.984 1_545 S
H1096 N1084 0.984 . S
H1097 N1084 0.985 . S
C1098 C1099 1.363 . S
C1098 C1104 1.379 . S
C1098 N1106 1.356 . S
C1099 C1098 1.363 . S
C1099 C1105 1.363 . S
C1100 C1101 1.363 . S
C1100 C1105 1.379 . S
C1100 N1107 1.356 . S
C1101 C1100 1.363 . S
C1101 C1104 1.363 . S
N1102 C1104 1.356 . S
N1102 H1114 0.984 . S
N1102 H1115 0.985 . S
N1103 C1105 1.356 . S
N1103 H1108 0.984 . S
N1103 H1109 0.985 . S
C1104 C1098 1.379 . S
C1104 C1101 1.363 . S
C1104 N1102 1.356 . S
C1105 C1099 1.363 . S
C1105 C1100 1.379 . S
C1105 N1103 1.356 . S
N1106 C1098 1.356 . S
N1106 H1112 0.984 . S
N1106 H1113 0.984 . S
N1107 C1100 1.356 . S
N1107 H1110 0.984 . S
N1107 H1111 0.985 . S
H1108 N1103 0.984 . S
H1109 N1103 0.985 . S
H1110 N1107 0.984 . S
H1111 N1107 0.985 . S
H1112 N1106 0.984 . S
H1113 N1106 0.984 . S
H1114 N1102 0.984 . S
H1115 N1102 0.985 . S
C1116 C1117 1.363 . S
C1116 C1122 1.379 . S
C1116 N1124 1.356 . S
C1117 C1116 1.363 . S
C1117 C1123 1.363 . S
C1118 C1119 1.363 . S
C1118 C1123 1.379 . S
C1118 N1125 1.356 . S
C1119 C1118 1.363 . S
C1119 C1122 1.363 . S
N1120 C1122 1.356 . S
N1120 H1132 0.984 . S
N1120 H1133 0.985 . S
N1121 C1123 1.356 . S
N1121 H1126 0.984 . S
N1121 H1127 0.985 . S
C1122 C1116 1.379 . S
C1122 C1119 1.363 . S
C1122 N1120 1.356 . S
C1123 C1117 1.363 . S
C1123 C1118 1.379 . S
C1123 N1121 1.356 . S
N1124 C1116 1.356 . S
N1124 H1130 0.984 . S
N1124 H1131 0.984 . S
N1125 C1118 1.356 . S
N1125 H1128 0.984 . S
N1125 H1129 0.985 . S
H1126 N1121 0.984 . S
H1127 N1121 0.985 . S
H1128 N1125 0.984 . S
H1129 N1125 0.985 . S
H1130 N1124 0.984 . S
H1131 N1124 0.984 . S
H1132 N1120 0.984 . S
H1133 N1120 0.985 . S
C1134 C1135 1.363 . S
C1134 C1140 1.379 . S
C1134 N1142 1.356 . S
C1135 C1134 1.363 . S
C1135 C1141 1.363 . S
C1136 C1137 1.363 . S
C1136 C1141 1.379 . S
C1136 N1143 1.356 . S
C1137 C1136 1.363 . S
C1137 C1140 1.363 . S
N1138 C1140 1.356 . S
N1138 H1150 0.984 . S
N1138 H1151 0.985 . S
N1139 C1141 1.356 . S
N1139 H1144 0.984 . S
N1139 H1145 0.985 . S
C1140 C1134 1.379 . S
C1140 C1137 1.363 . S
C1140 N1138 1.356 . S
C1141 C1135 1.363 . S
C1141 C1136 1.379 . S
C1141 N1139 1.356 . S
N1142 C1134 1.356 . S
N1142 H1148 0.984 . S
N1142 H1149 0.984 . S
N1143 C1136 1.356 . S
N1143 H1146 0.984 . S
N1143 H1147 0.985 . S
H1144 N1139 0.984 . S
H1145 N1139 0.985 . S
H1146 N1143 0.984 . S
H1147 N1143 0.985 . S
H1148 N1142 0.984 . S
H1149 N1142 0.984 . S
H1150 N1138 0.984 . S
H1151 N1138 0.985 . S
C1152 C1153 1.363 . S
C1152 C1158 1.379 . S
C1152 N1160 1.356 . S
C1153 C1152 1.363 . S
C1153 C1159 1.363 . S
C1154 C1155 1.363 . S
C1154 C1159 1.379 . S
C1154 N1161 1.356 . S
C1155 C1154 1.363 . S
C1155 C1158 1.363 . S
N1156 C1158 1.356 . S
N1156 H1168 0.984 . S
N1156 H1169 0.985 . S
N1157 C1159 1.356 . S
N1157 H1162 0.984 . S
N1157 H1163 0.985 . S
C1158 C1152 1.379 . S
C1158 C1155 1.363 . S
C1158 N1156 1.356 . S
C1159 C1153 1.363 . S
C1159 C1154 1.379 . S
C1159 N1157 1.356 . S
N1160 C1152 1.356 . S
N1160 H1166 0.984 . S
N1160 H1167 0.984 . S
N1161 C1154 1.356 . S
N1161 H1164 0.984 . S
N1161 H1165 0.985 . S
H1162 N1157 0.984 . S
H1163 N1157 0.985 . S
H1164 N1161 0.984 . S
H1165 N1161 0.985 . S
H1166 N1160 0.984 . S
H1167 N1160 0.984 . S
H1168 N1156 0.984 . S
H1169 N1156 0.985 . S
C1170 C1171 1.363 . S
C1170 C1176 1.379 . S
C1170 N1178 1.356 . S
C1171 C1170 1.363 . S
C1171 C1177 1.363 . S
C1172 C1173 1.363 . S
C1172 C1177 1.379 . S
C1172 N1179 1.356 . S
C1173 C1172 1.363 . S
C1173 C1176 1.363 . S
N1174 C1176 1.356 . S
N1174 H1186 0.984 . S
N1174 H1187 0.985 . S
N1175 C1177 1.356 . S
N1175 H1180 0.984 . S
N1175 H1181 0.985 . S
C1176 C1170 1.379 . S
C1176 C1173 1.363 . S
C1176 N1174 1.356 . S
C1177 C1171 1.363 . S
C1177 C1172 1.379 . S
C1177 N1175 1.356 . S
N1178 C1170 1.356 . S
N1178 H1184 0.984 . S
N1178 H1185 0.984 . S
N1179 C1172 1.356 . S
N1179 H1182 0.984 . S
N1179 H1183 0.985 . S
H1180 N1175 0.984 . S
H1181 N1175 0.985 . S
H1182 N1179 0.984 . S
H1183 N1179 0.985 . S
H1184 N1178 0.984 . S
H1185 N1178 0.984 . S
H1186 N1174 0.984 . S
H1187 N1174 0.985 . S
C1188 C1189 1.363 . S
C1188 C1194 1.379 . S
C1188 N1196 1.356 . S
C1189 C1188 1.363 . S
C1189 C1195 1.363 . S
C1190 C1191 1.363 . S
C1190 C1195 1.379 . S
C1190 N1197 1.356 . S
C1191 C1190 1.363 . S
C1191 C1194 1.363 . S
N1192 C1194 1.356 . S
N1192 H1204 0.984 . S
N1192 H1205 0.985 . S
N1193 C1195 1.356 . S
N1193 H1198 0.984 . S
N1193 H1199 0.985 . S
C1194 C1188 1.379 . S
C1194 C1191 1.363 . S
C1194 N1192 1.356 . S
C1195 C1189 1.363 . S
C1195 C1190 1.379 . S
C1195 N1193 1.356 . S
N1196 C1188 1.356 . S
N1196 H1202 0.984 . S
N1196 H1203 0.984 . S
N1197 C1190 1.356 . S
N1197 H1200 0.984 . S
N1197 H1201 0.985 . S
H1198 N1193 0.984 . S
H1199 N1193 0.985 . S
H1200 N1197 0.984 . S
H1201 N1197 0.985 . S
H1202 N1196 0.984 . S
H1203 N1196 0.984 . S
H1204 N1192 0.984 . S
H1205 N1192 0.985 . S
C1206 C1207 1.363 . S
C1206 C1212 1.379 . S
C1206 N1214 1.356 . S
C1207 C1206 1.363 . S
C1207 C1213 1.363 . S
C1208 C1209 1.363 . S
C1208 C1213 1.379 . S
C1208 N1215 1.356 . S
C1209 C1208 1.363 . S
C1209 C1212 1.363 . S
N1210 C1212 1.356 . S
N1210 H1222 0.984 . S
N1210 H1223 0.985 . S
N1211 C1213 1.356 . S
N1211 H1216 0.984 . S
N1211 H1217 0.985 . S
C1212 C1206 1.379 . S
C1212 C1209 1.363 . S
C1212 N1210 1.356 . S
C1213 C1207 1.363 . S
C1213 C1208 1.379 . S
C1213 N1211 1.356 . S
N1214 C1206 1.356 . S
N1214 H1220 0.984 . S
N1214 H1221 0.984 . S
N1215 C1208 1.356 . S
N1215 H1218 0.984 . S
N1215 H1219 0.985 . S
H1216 N1211 0.984 . S
H1217 N1211 0.985 . S
H1218 N1215 0.984 . S
H1219 N1215 0.985 . S
H1220 N1214 0.984 . S
H1221 N1214 0.984 . S
H1222 N1210 0.984 . S
H1223 N1210 0.985 . S
C1224 C1225 1.363 . S
C1224 C1230 1.379 . S
C1224 N1232 1.356 . S
C1225 C1224 1.363 . S
C1225 C1231 1.363 . S
C1226 C1227 1.363 . S
C1226 C1231 1.379 . S
C1226 N1233 1.356 . S
C1227 C1226 1.363 . S
C1227 C1230 1.363 . S
N1228 C1230 1.356 . S
N1228 H1240 0.984 . S
N1228 H1241 0.985 . S
N1229 C1231 1.356 . S
N1229 H1234 0.984 . S
N1229 H1235 0.985 . S
C1230 C1224 1.379 . S
C1230 C1227 1.363 . S
C1230 N1228 1.356 . S
C1231 C1225 1.363 . S
C1231 C1226 1.379 . S
C1231 N1229 1.356 . S
N1232 C1224 1.356 . S
N1232 H1238 0.984 . S
N1232 H1239 0.984 . S
N1233 C1226 1.356 . S
N1233 H1236 0.984 . S
N1233 H1237 0.985 . S
H1234 N1229 0.984 . S
H1235 N1229 0.985 . S
H1236 N1233 0.984 . S
H1237 N1233 0.985 . S
H1238 N1232 0.984 . S
H1239 N1232 0.984 . S
H1240 N1228 0.984 . S
H1241 N1228 0.985 . S
C1242 C1243 1.363 . S
C1242 C1248 1.379 . S
C1242 N1250 1.356 . S
C1243 C1242 1.363 . S
C1243 C1249 1.363 . S
C1244 C1245 1.363 . S
C1244 C1249 1.379 . S
C1244 N1251 1.356 . S
C1245 C1244 1.363 . S
C1245 C1248 1.363 . S
N1246 C1248 1.356 . S
N1246 H1258 0.984 . S
N1246 H1259 0.985 . S
N1247 C1249 1.356 . S
N1247 H1252 0.984 . S
N1247 H1253 0.985 . S
C1248 C1242 1.379 . S
C1248 C1245 1.363 . S
C1248 N1246 1.356 . S
C1249 C1243 1.363 . S
C1249 C1244 1.379 . S
C1249 N1247 1.356 . S
N1250 C1242 1.356 . S
N1250 H1256 0.984 . S
N1250 H1257 0.984 . S
N1251 C1244 1.356 . S
N1251 H1254 0.984 . S
N1251 H1255 0.985 . S
H1252 N1247 0.984 . S
H1253 N1247 0.985 . S
H1254 N1251 0.984 . S
H1255 N1251 0.985 . S
H1256 N1250 0.984 . S
H1257 N1250 0.984 . S
H1258 N1246 0.984 . S
H1259 N1246 0.985 . S
C1260 C1261 1.363 . S
C1260 C1266 1.379 . S
C1260 N1268 1.356 . S
C1261 C1260 1.363 . S
C1261 C1267 1.363 . S
C1262 C1263 1.363 . S
C1262 C1267 1.379 . S
C1262 N1269 1.356 . S
C1263 C1262 1.363 . S
C1263 C1266 1.363 . S
N1264 C1266 1.356 . S
N1264 H1276 0.984 . S
N1264 H1277 0.985 . S
N1265 C1267 1.356 . S
N1265 H1270 0.984 . S
N1265 H1271 0.985 . S
C1266 C1260 1.379 . S
C1266 C1263 1.363 . S
C1266 N1264 1.356 . S
C1267 C1261 1.363 . S
C1267 C1262 1.379 . S
C1267 N1265 1.356 . S
N1268 C1260 1.356 . S
N1268 H1274 0.984 . S
N1268 H1275 0.984 . S
N1269 C1262 1.356 . S
N1269 H1272 0.984 . S
N1269 H1273 0.985 . S
H1270 N1265 0.984 . S
H1271 N1265 0.985 . S
H1272 N1269 0.984 . S
H1273 N1269 0.985 . S
H1274 N1268 0.984 . S
H1275 N1268 0.984 . S
H1276 N1264 0.984 . S
H1277 N1264 0.985 . S
C1278 C1279 1.363 . S
C1278 C1284 1.379 . S
C1278 N1286 1.356 . S
C1279 C1278 1.363 . S
C1279 C1285 1.363 . S
C1280 C1281 1.363 . S
C1280 C1285 1.379 . S
C1280 N1287 1.356 . S
C1281 C1280 1.363 . S
C1281 C1284 1.363 . S
N1282 C1284 1.356 . S
N1282 H1294 0.984 . S
N1282 H1295 0.985 . S
N1283 C1285 1.356 . S
N1283 H1288 0.984 . S
N1283 H1289 0.985 . S
C1284 C1278 1.379 . S
C1284 C1281 1.363 . S
C1284 N1282 1.356 . S
C1285 C1279 1.363 . S
C1285 C1280 1.379 . S
C1285 N1283 1.356 . S
N1286 C1278 1.356 . S
N1286 H1292 0.984 . S
N1286 H1293 0.984 . S
N1287 C1280 1.356 . S
N1287 H1290 0.984 . S
N1287 H1291 0.985 . S
H1288 N1283 0.984 . S
H1289 N1283 0.985 . S
H1290 N1287 0.984 . S
H1291 N1287 0.985 . S
H1292 N1286 0.984 . S
H1293 N1286 0.984 . S
H1294 N1282 0.984 . S
H1295 N1282 0.985 . S
C1296 C1297 1.363 . S
C1296 C1302 1.379 . S
C1296 N1304 1.356 . S
C1297 C1296 1.363 . S
C1297 C1303 1.363 . S
C1298 C1299 1.363 . S
C1298 C1303 1.379 . S
C1298 N1305 1.356 . S
C1299 C1298 1.363 . S
C1299 C1302 1.363 . S
N1300 C1302 1.356 . S
N1300 H1312 0.984 . S
N1300 H1313 0.985 . S
N1301 C1303 1.356 . S
N1301 H1306 0.984 . S
N1301 H1307 0.985 . S
C1302 C1296 1.379 . S
C1302 C1299 1.363 . S
C1302 N1300 1.356 . S
C1303 C1297 1.363 . S
C1303 C1298 1.379 . S
C1303 N1301 1.356 . S
N1304 C1296 1.356 . S
N1304 H1310 0.984 . S
N1304 H1311 0.984 . S
N1305 C1298 1.356 . S
N1305 H1308 0.984 . S
N1305 H1309 0.985 . S
H1306 N1301 0.984 . S
H1307 N1301 0.985 . S
H1308 N1305 0.984 . S
H1309 N1305 0.985 . S
H1310 N1304 0.984 . S
H1311 N1304 0.984 . S
H1312 N1300 0.984 . S
H1313 N1300 0.985 . S
C343 C124 1.532 . S
C345 C168 1.513 . S
C361 C130 1.477 . S
C363 C188 1.454 . S
C379 C115 1.502 . S
C381 C211 1.497 . S
C397 C106 1.463 . S
C399 C191 1.459 . S
C417 C208 1.463 . S
C415 C85 1.475 . S
C433 C97 1.501 . S
C435 C171 1.494 . S
C453 C178 1.527 . S
C451 C103 1.544 . S
C471 C198 1.442 . S
C469 C88 1.464 . S
C487 C94 1.501 . S
C489 C203 1.496 . S
C505 C121 1.462 . S
C507 C183 1.458 . S
C523 C133 1.462 . S
C525 C218 1.450 . S
C543 C163 1.510 . S
C541 C112 1.515 . S
C561 C228 1.513 . S
C559 C16 1.532 . S
C577 C22 1.477 . S
C579 C248 1.454 . S
C595 C7 1.502 . S
C597 C271 1.497 . S
C613 C160 1.463 . S
C615 C251 1.459 . S
C631 C139 1.475 . S
C633 C268 1.463 . S
C649 C151 1.501 . S
C651 C231 1.494 . S
C667 C157 1.544 . S
C669 C238 1.527 . S
C685 C142 1.464 . S
C687 C258 1.442 . S
C705 C263 1.496 . S
C703 C148 1.501 . S
C721 C13 1.462 . S
C723 C243 1.458 . S
C741 C278 1.450 . S
C739 C25 1.462 . S
C757 C4 1.515 . S
C759 C223 1.510 . S
C777 C288 1.513 . S
C775 C70 1.532 . S
C793 C76 1.477 . S
C795 C308 1.454 . S
C813 C331 1.497 . S
C811 C61 1.502 . S
C831 C311 1.459 . S
C829 C52 1.463 . S
C849 C328 1.463 . S
C847 C31 1.475 . S
C865 C43 1.501 . S
C867 C291 1.494 . S
C883 C49 1.544 . S
C885 C298 1.527 . S
C901 C34 1.464 . S
C903 C318 1.442 . S
C921 C323 1.496 . S
C919 C40 1.501 . S
C937 C67 1.462 . S
C939 C303 1.458 . S
C955 C79 1.462 . S
C957 C338 1.450 . S
C973 C58 1.515 . S
C975 C283 1.510 . S
C991 C140 1.371 . S
C993 C181 1.343 1_565 S
C1011 C201 1.520 . S
C1009 C149 1.570 . S
C1027 C158 1.493 . S
C1029 C210 1.454 . S
C1045 C59 1.586 . S
C1047 C190 1.535 . S
C1063 C68 1.476 . S
C1065 C221 1.437 . S
C1083 C170 1.340 1_545 S
C1081 C77 1.370 . S
C1099 C32 1.371 . S
C1101 C241 1.343 . S
C1117 C41 1.571 . S
C1119 C261 1.520 . S
C1135 C50 1.493 . S
C1137 C270 1.454 . S
C1153 C113 1.586 . S
C1155 C250 1.535 . S
C1173 C281 1.437 . S
C1171 C122 1.476 . S
C1189 C131 1.369 . S
C1191 C230 1.340 . S
C1207 C86 1.371 . S
C1209 C301 1.343 . S
C1225 C95 1.570 . S
C1227 C321 1.520 . S
C1245 C330 1.454 . S
C1243 C104 1.493 . S
C1261 C5 1.586 . S
C1263 C310 1.535 . S
C1279 C14 1.476 . S
C1281 C341 1.437 . S
C1297 C23 1.370 . S
C1299 C290 1.340 . S
