# Generated by pormake.
# Topology ctn, (3,4)-cn, num edge types: 1
# Building blocks:
#     Node 0, Type 0, BuildingBlock: BETDAH_clean_linker_0, # of connection points: 3
#     Node 1, Type 0, BuildingBlock: BETDAH_clean_linker_0, # of connection points: 3
#     Node 2, Type 0, BuildingBlock: BETDAH_clean_linker_0, # of connection points: 3
#     Node 3, Type 0, BuildingBlock: BETDAH_clean_linker_0, # of connection points: 3
#     Node 4, Type 0, BuildingBlock: BETDAH_clean_linker_0, # of connection points: 3
#     Node 5, Type 0, BuildingBlock: BETDAH_clean_linker_0, # of connection points: 3
#     Node 6, Type 0, BuildingBlock: BETDAH_clean_linker_0, # of connection points: 3
#     Node 7, Type 0, BuildingBlock: BETDAH_clean_linker_0, # of connection points: 3
#     Node 8, Type 0, BuildingBlock: BETDAH_clean_linker_0, # of connection points: 3
#     Node 9, Type 0, BuildingBlock: BETDAH_clean_linker_0, # of connection points: 3
#     Node 10, Type 0, BuildingBlock: BETDAH_clean_linker_0, # of connection points: 3
#     Node 11, Type 0, BuildingBlock: BETDAH_clean_linker_0, # of connection points: 3
#     Node 12, Type 0, BuildingBlock: BETDAH_clean_linker_0, # of connection points: 3
#     Node 13, Type 0, BuildingBlock: BETDAH_clean_linker_0, # of connection points: 3
#     Node 14, Type 0, BuildingBlock: BETDAH_clean_linker_0, # of connection points: 3
#     Node 15, Type 0, BuildingBlock: BETDAH_clean_linker_0, # of connection points: 3
#     Node 16, Type 1, BuildingBlock: QUQFOY_clean_sbu_1, # of connection points: 4
#     Node 17, Type 1, BuildingBlock: QUQFOY_clean_sbu_1, # of connection points: 4
#     Node 18, Type 1, BuildingBlock: QUQFOY_clean_sbu_1, # of connection points: 4
#     Node 19, Type 1, BuildingBlock: QUQFOY_clean_sbu_1, # of connection points: 4
#     Node 20, Type 1, BuildingBlock: QUQFOY_clean_sbu_1, # of connection points: 4
#     Node 21, Type 1, BuildingBlock: QUQFOY_clean_sbu_1, # of connection points: 4
#     Node 22, Type 1, BuildingBlock: QUQFOY_clean_sbu_1, # of connection points: 4
#     Node 23, Type 1, BuildingBlock: QUQFOY_clean_sbu_1, # of connection points: 4
#     Node 24, Type 1, BuildingBlock: QUQFOY_clean_sbu_1, # of connection points: 4
#     Node 25, Type 1, BuildingBlock: QUQFOY_clean_sbu_1, # of connection points: 4
#     Node 26, Type 1, BuildingBlock: QUQFOY_clean_sbu_1, # of connection points: 4
#     Node 27, Type 1, BuildingBlock: QUQFOY_clean_sbu_1, # of connection points: 4
#     Edge 28, Type (0, 1), BuildingBlock: AJUNOK_clean_linker_0, # of connection points: 2
#     Edge 29, Type (0, 1), BuildingBlock: AJUNOK_clean_linker_0, # of connection points: 2
#     Edge 30, Type (0, 1), BuildingBlock: AJUNOK_clean_linker_0, # of connection points: 2
#     Edge 31, Type (0, 1), BuildingBlock: AJUNOK_clean_linker_0, # of connection points: 2
#     Edge 32, Type (0, 1), BuildingBlock: AJUNOK_clean_linker_0, # of connection points: 2
#     Edge 33, Type (0, 1), BuildingBlock: AJUNOK_clean_linker_0, # of connection points: 2
#     Edge 34, Type (0, 1), BuildingBlock: AJUNOK_clean_linker_0, # of connection points: 2
#     Edge 35, Type (0, 1), BuildingBlock: AJUNOK_clean_linker_0, # of connection points: 2
#     Edge 36, Type (0, 1), BuildingBlock: AJUNOK_clean_linker_0, # of connection points: 2
#     Edge 37, Type (0, 1), BuildingBlock: AJUNOK_clean_linker_0, # of connection points: 2
#     Edge 38, Type (0, 1), BuildingBlock: AJUNOK_clean_linker_0, # of connection points: 2
#     Edge 39, Type (0, 1), BuildingBlock: AJUNOK_clean_linker_0, # of connection points: 2
#     Edge 40, Type (0, 1), BuildingBlock: AJUNOK_clean_linker_0, # of connection points: 2
#     Edge 41, Type (0, 1), BuildingBlock: AJUNOK_clean_linker_0, # of connection points: 2
#     Edge 42, Type (0, 1), BuildingBlock: AJUNOK_clean_linker_0, # of connection points: 2
#     Edge 43, Type (0, 1), BuildingBlock: AJUNOK_clean_linker_0, # of connection points: 2
#     Edge 44, Type (0, 1), BuildingBlock: AJUNOK_clean_linker_0, # of connection points: 2
#     Edge 45, Type (0, 1), BuildingBlock: AJUNOK_clean_linker_0, # of connection points: 2
#     Edge 46, Type (0, 1), BuildingBlock: AJUNOK_clean_linker_0, # of connection points: 2
#     Edge 47, Type (0, 1), BuildingBlock: AJUNOK_clean_linker_0, # of connection points: 2
#     Edge 48, Type (0, 1), BuildingBlock: AJUNOK_clean_linker_0, # of connection points: 2
#     Edge 49, Type (0, 1), BuildingBlock: AJUNOK_clean_linker_0, # of connection points: 2
#     Edge 50, Type (0, 1), BuildingBlock: AJUNOK_clean_linker_0, # of connection points: 2
#     Edge 51, Type (0, 1), BuildingBlock: AJUNOK_clean_linker_0, # of connection points: 2
#     Edge 52, Type (0, 1), BuildingBlock: AJUNOK_clean_linker_0, # of connection points: 2
#     Edge 53, Type (0, 1), BuildingBlock: AJUNOK_clean_linker_0, # of connection points: 2
#     Edge 54, Type (0, 1), BuildingBlock: AJUNOK_clean_linker_0, # of connection points: 2
#     Edge 55, Type (0, 1), BuildingBlock: AJUNOK_clean_linker_0, # of connection points: 2
#     Edge 56, Type (0, 1), BuildingBlock: AJUNOK_clean_linker_0, # of connection points: 2
#     Edge 57, Type (0, 1), BuildingBlock: AJUNOK_clean_linker_0, # of connection points: 2
#     Edge 58, Type (0, 1), BuildingBlock: AJUNOK_clean_linker_0, # of connection points: 2
#     Edge 59, Type (0, 1), BuildingBlock: AJUNOK_clean_linker_0, # of connection points: 2
#     Edge 60, Type (0, 1), BuildingBlock: AJUNOK_clean_linker_0, # of connection points: 2
#     Edge 61, Type (0, 1), BuildingBlock: AJUNOK_clean_linker_0, # of connection points: 2
#     Edge 62, Type (0, 1), BuildingBlock: AJUNOK_clean_linker_0, # of connection points: 2
#     Edge 63, Type (0, 1), BuildingBlock: AJUNOK_clean_linker_0, # of connection points: 2
#     Edge 64, Type (0, 1), BuildingBlock: AJUNOK_clean_linker_0, # of connection points: 2
#     Edge 65, Type (0, 1), BuildingBlock: AJUNOK_clean_linker_0, # of connection points: 2
#     Edge 66, Type (0, 1), BuildingBlock: AJUNOK_clean_linker_0, # of connection points: 2
#     Edge 67, Type (0, 1), BuildingBlock: AJUNOK_clean_linker_0, # of connection points: 2
#     Edge 68, Type (0, 1), BuildingBlock: AJUNOK_clean_linker_0, # of connection points: 2
#     Edge 69, Type (0, 1), BuildingBlock: AJUNOK_clean_linker_0, # of connection points: 2
#     Edge 70, Type (0, 1), BuildingBlock: AJUNOK_clean_linker_0, # of connection points: 2
#     Edge 71, Type (0, 1), BuildingBlock: AJUNOK_clean_linker_0, # of connection points: 2
#     Edge 72, Type (0, 1), BuildingBlock: AJUNOK_clean_linker_0, # of connection points: 2
#     Edge 73, Type (0, 1), BuildingBlock: AJUNOK_clean_linker_0, # of connection points: 2
#     Edge 74, Type (0, 1), BuildingBlock: AJUNOK_clean_linker_0, # of connection points: 2
#     Edge 75, Type (0, 1), BuildingBlock: AJUNOK_clean_linker_0, # of connection points: 2
# Relax obj value: 0.076
# Max RMSD: 0.182
# Mean RMSD: 0.116
data_MOF--net-ctn--node1-QUQFOY_clean_sbu_1--node2-BETDAH_clean_linker_0--edge1-AJUNOK_clean_linker_0
_symmetry_space_group_name_H-M    P1
_symmetry_Int_Tables_number       1
_symmetry_cell_setting            triclinic
loop_
_symmetry_equiv_pos_as_xyz
'x, y, z'
_cell_length_a     39.694854
_cell_length_b     39.362128
_cell_length_c     40.670709
_cell_angle_alpha  102.68349
_cell_angle_beta   89.674594
_cell_angle_gamma 100.1029
loop_
_atom_site_label
_atom_site_type_symbol
_atom_site_fract_x
_atom_site_fract_y
_atom_site_fract_z
_atom_type_partial_charge
H0 H 0.06027 0.03396 0.10862 0.0
H1 H 0.10235 0.09742 0.03903 0.0
H2 H 0.03842 0.13852 0.11771 0.0
C3 C 0.06251 0.05777 0.09902 0.0
C4 C 0.04568 0.08501 0.11551 0.0
C5 C 0.08318 0.06163 0.07133 0.0
C6 C 0.08624 0.09339 0.05992 0.0
C7 C 0.07017 0.12104 0.07676 0.0
C8 C 0.05005 0.11671 0.10439 0.0
N9 N 0.07766 0.15498 0.06931 0.0
C10 C 0.07005 0.16168 0.03832 0.0
H11 H 0.33964 0.69943 0.27505 0.0
H12 H 0.36218 0.80946 0.27151 0.0
H13 H 0.25958 0.75231 0.25178 0.0
C14 C 0.33145 0.72286 0.27039 0.0
C15 C 0.29661 0.72194 0.26362 0.0
C16 C 0.35541 0.75428 0.27385 0.0
C17 C 0.34454 0.78448 0.26769 0.0
C18 C 0.31044 0.78316 0.25795 0.0
C19 C 0.28638 0.75204 0.25633 0.0
N20 N 0.30002 0.81456 0.25367 0.0
C21 C 0.28429 0.81664 0.22394 0.0
H22 H 0.03201 0.45757 0.08583 0.0
H23 H 0.01486 0.56367 0.12477 0.0
H24 H 0.98235 0.51056 0.0232 0.0
C25 C 0.02213 0.48064 0.08256 0.0
C26 C 0.00756 0.48076 0.0512 0.0
C27 C 0.02499 0.51039 0.10932 0.0
C28 C 0.01221 0.54012 0.10463 0.0
C29 C 0.99617 0.54011 0.07412 0.0
C30 C 0.99384 0.51035 0.04723 0.0
N31 N 0.98451 0.57134 0.07103 0.0
C32 C 0.95756 0.57251 0.0499 0.0
H33 H 0.80641 0.82971 0.1813 0.0
H34 H 0.76365 0.73564 0.21504 0.0
H35 H 0.7812 0.83639 0.2854 0.0
C36 C 0.79674 0.81705 0.20145 0.0
C37 C 0.7963 0.83741 0.23436 0.0
C38 C 0.78537 0.78038 0.19431 0.0
C39 C 0.77287 0.76396 0.22033 0.0
C40 C 0.77038 0.78419 0.25287 0.0
C41 C 0.78204 0.82098 0.25991 0.0
N42 N 0.75641 0.76695 0.27825 0.0
C43 C 0.73056 0.77872 0.29833 0.0
H44 H 0.06416 0.06976 0.44816 0.0
H45 H 0.07524 0.98678 0.49856 0.0
H46 H 0.98067 0.98332 0.44593 0.0
C47 C 0.05327 0.04545 0.45564 0.0
C48 C 0.01989 0.02859 0.44484 0.0
C49 C 0.07349 0.03027 0.4745 0.0
C50 C 0.05953 0.99884 0.4844 0.0
C51 C 0.02557 0.98244 0.4747 0.0
C52 C 0.00625 0.99708 0.45458 0.0
N53 N 0.01076 0.94984 0.48247 0.0
C54 C 0.01747 0.93966 0.51201 0.0
H55 H 0.27216 0.72698 0.87409 0.0
H56 H 0.23246 0.79877 0.82489 0.0
H57 H 0.2815 0.71755 0.76714 0.0
C58 C 0.2675 0.73595 0.85145 0.0
C59 C 0.27949 0.71911 0.82061 0.0
C60 C 0.25034 0.76473 0.85349 0.0
C61 C 0.24442 0.77587 0.8238 0.0
C62 C 0.25543 0.75866 0.79267 0.0
C63 C 0.27334 0.73079 0.79132 0.0
N64 N 0.24891 0.76909 0.76242 0.0
C65 C 0.21902 0.78115 0.75691 0.0
H66 H 0.92806 0.59346 0.5616 0.0
H67 H 0.02673 0.59035 0.51772 0.0
H68 H 0.95288 0.49446 0.50826 0.0
C69 C 0.94565 0.57874 0.54663 0.0
C70 C 0.93614 0.54209 0.53487 0.0
C71 C 0.9782 0.59634 0.5405 0.0
C72 C 0.00142 0.57695 0.52218 0.0
C73 C 0.99217 0.54007 0.51056 0.0
C74 C 0.95984 0.52287 0.51741 0.0
N75 N 0.01499 0.51931 0.4927 0.0
C76 C 0.03895 0.53128 0.47093 0.0
H77 H 0.86289 0.77053 0.82656 0.0
H78 H 0.81231 0.81988 0.76075 0.0
H79 H 0.7548 0.77039 0.83227 0.0
C80 C 0.84008 0.778 0.81784 0.0
C81 C 0.80885 0.76857 0.83269 0.0
C82 C 0.84201 0.79661 0.79174 0.0
C83 C 0.81205 0.80684 0.7816 0.0
C84 C 0.78081 0.7979 0.79671 0.0
C85 C 0.77927 0.77826 0.82161 0.0
N86 N 0.75004 0.80592 0.78544 0.0
C87 C 0.7465 0.83982 0.78313 0.0
H88 H 0.3581 0.26122 0.31623 0.0
H89 H 0.30795 0.32643 0.26697 0.0
H90 H 0.25359 0.27106 0.33663 0.0
C91 C 0.33593 0.27266 0.31231 0.0
C92 C 0.30625 0.26463 0.33001 0.0
C93 C 0.33701 0.29521 0.28959 0.0
C94 C 0.30764 0.3093 0.28453 0.0
C95 C 0.27747 0.3003 0.30135 0.0
C96 C 0.27694 0.27787 0.32372 0.0
N97 N 0.24676 0.31202 0.29531 0.0
C98 C 0.24541 0.34554 0.29025 0.0
H99 H 0.53745 0.96296 0.57714 0.0
H100 H 0.4664 0.0236 0.63144 0.0
H101 H 0.44368 0.96969 0.52812 0.0
C102 C 0.51378 0.97326 0.57779 0.0
C103 C 0.49165 0.96374 0.54919 0.0
C104 C 0.50517 0.9953 0.60744 0.0
C105 C 0.47394 0.00746 0.60837 0.0
C106 C 0.45225 0.99929 0.57972 0.0
C107 C 0.461 0.97721 0.55003 0.0
N108 N 0.42106 0.01231 0.58228 0.0
C109 C 0.40679 0.02416 0.55676 0.0
H110 H 0.30665 0.32616 0.68202 0.0
H111 H 0.25876 0.23006 0.70945 0.0
H112 H 0.27194 0.32855 0.7829 0.0
C113 C 0.29478 0.31261 0.70079 0.0
C114 C 0.29106 0.33194 0.73358 0.0
C115 C 0.28351 0.27592 0.69192 0.0
C116 C 0.2682 0.25833 0.71618 0.0
C117 C 0.26301 0.27737 0.74859 0.0
C118 C 0.27465 0.31416 0.75736 0.0
N119 N 0.24579 0.25898 0.77187 0.0
C120 C 0.22147 0.27273 0.79292 0.0
H121 H 0.84112 0.19761 0.77417 0.0
H122 H 0.85806 0.30746 0.76991 0.0
H123 H 0.75792 0.24442 0.7476 0.0
C124 C 0.8317 0.22019 0.76892 0.0
C125 C 0.79673 0.21729 0.76156 0.0
C126 C 0.85403 0.25267 0.77283 0.0
C127 C 0.84167 0.2817 0.76569 0.0
C128 C 0.80751 0.27821 0.75484 0.0
C129 C 0.78491 0.24606 0.7531 0.0
N130 N 0.79508 0.30872 0.75094 0.0
C131 C 0.78271 0.3122 0.72019 0.0
H132 H 0.56912 0.53554 0.61605 0.0
H133 H 0.59723 0.59859 0.54237 0.0
H134 H 0.52432 0.62735 0.61669 0.0
C135 C 0.56597 0.55728 0.60468 0.0
C136 C 0.54265 0.57921 0.61839 0.0
C137 C 0.58595 0.56365 0.57717 0.0
C138 C 0.58261 0.59317 0.56376 0.0
C139 C 0.56117 0.61663 0.5789 0.0
C140 C 0.54134 0.60943 0.60588 0.0
N141 N 0.56091 0.64926 0.56967 0.0
C142 C 0.56111 0.65416 0.53687 0.0
H143 H 0.57188 0.55327 0.9446 0.0
H144 H 0.59443 0.46913 0.98818 0.0
H145 H 0.49644 0.45924 0.93928 0.0
C146 C 0.56379 0.5278 0.95101 0.0
C147 C 0.53098 0.5086 0.94092 0.0
C148 C 0.58681 0.51378 0.96801 0.0
C149 C 0.57658 0.48046 0.97567 0.0
C150 C 0.54367 0.46114 0.96578 0.0
C151 C 0.52122 0.47505 0.94813 0.0
N152 N 0.53388 0.42617 0.97018 0.0
C153 C 0.53322 0.41764 0.00155 0.0
H154 H 0.77249 0.23576 0.3671 0.0
H155 H 0.73558 0.31285 0.32301 0.0
H156 H 0.77736 0.22868 0.26019 0.0
C157 C 0.76791 0.24606 0.34524 0.0
C158 C 0.77727 0.22883 0.31339 0.0
C159 C 0.75369 0.277 0.34928 0.0
C160 C 0.74649 0.28907 0.32046 0.0
C161 C 0.75495 0.27152 0.28836 0.0
C162 C 0.77095 0.24202 0.28507 0.0
N163 N 0.74795 0.28339 0.25908 0.0
C164 C 0.71709 0.29387 0.25415 0.0
H165 H 0.42652 0.0785 0.06941 0.0
H166 H 0.51496 0.08157 0.00741 0.0
H167 H 0.43313 0.99135 0.98658 0.0
C168 C 0.44063 0.06605 0.04862 0.0
C169 C 0.42617 0.03307 0.02879 0.0
C170 C 0.47259 0.0837 0.04098 0.0
C171 C 0.49029 0.06794 0.0133 0.0
C172 C 0.47616 0.03414 0.99395 0.0
C173 C 0.44417 0.01713 0.0018 0.0
N174 N 0.49316 0.01587 0.96673 0.0
C175 C 0.52123 0.03064 0.95086 0.0
O176 O 0.24224 0.85233 0.00866 0.0
Cd177 Cd 0.25228 0.88519 0.056 0.0
Cd178 Cd 0.21811 0.92695 0.01947 0.0
O179 O 0.2129 0.88151 0.98176 0.0
O180 O 0.2758 0.85509 0.07856 0.0
O181 O 0.22984 0.87519 0.09881 0.0
C182 C 0.25366 0.85745 0.10172 0.0
C183 C 0.17401 0.95995 0.02966 0.0
C184 C 0.22647 0.85464 0.98229 0.0
C185 C 0.29228 0.95368 0.04427 0.0
O186 O 0.26673 0.9567 0.02717 0.0
O187 O 0.29082 0.92823 0.05902 0.0
O188 O 0.19265 0.96034 0.00371 0.0
O189 O 0.1794 0.93975 0.04945 0.0
O190 O 0.21258 0.5798 0.30311 0.0
Cd191 Cd 0.18587 0.53499 0.31614 0.0
Cd192 Cd 0.1316 0.55476 0.28613 0.0
O193 O 0.16904 0.5966 0.28143 0.0
O194 O 0.22056 0.5074 0.32637 0.0
O195 O 0.18194 0.48719 0.28458 0.0
C196 C 0.20719 0.48206 0.30171 0.0
C197 C 0.09688 0.53194 0.23772 0.0
C198 C 0.20071 0.60134 0.28916 0.0
C199 C 0.12457 0.54646 0.35823 0.0
O200 O 0.11071 0.55208 0.33231 0.0
O201 O 0.15491 0.54012 0.35728 0.0
O202 O 0.09257 0.56034 0.25879 0.0
O203 O 0.12031 0.51541 0.2448 0.0
O204 O 0.78516 0.69295 0.96188 0.0
Cd205 Cd 0.77209 0.66737 0.00043 0.0
Cd206 Cd 0.7949 0.61429 0.95578 0.0
O207 O 0.80099 0.64973 0.92421 0.0
O208 O 0.75769 0.70533 0.03555 0.0
O209 O 0.79994 0.67823 0.04401 0.0
C210 C 0.78077 0.70111 0.05561 0.0
C211 C 0.84212 0.60287 0.98245 0.0
C212 C 0.79555 0.68138 0.93265 0.0
C213 C 0.72348 0.59721 0.97752 0.0
O214 O 0.7468 0.58502 0.95948 0.0
O215 O 0.72909 0.62889 0.99455 0.0
O216 O 0.83203 0.58519 0.9524 0.0
O217 O 0.82529 0.62701 0.99691 0.0
O218 O 0.94653 0.05525 0.3141 0.0
Cd219 Cd 0.92115 0.04479 0.26813 0.0
Cd220 Cd 0.86889 0.0586 0.31137 0.0
O221 O 0.90479 0.06326 0.34924 0.0
O222 O 0.96034 0.03416 0.23919 0.0
O223 O 0.93236 0.07666 0.2349 0.0
C224 C 0.95691 0.05963 0.22519 0.0
C225 C 0.84277 0.10641 0.30858 0.0
C226 C 0.93597 0.06093 0.34398 0.0
C227 C 0.85908 0.98663 0.26689 0.0
O228 O 0.84573 0.00772 0.28925 0.0
O229 O 0.88793 0.99705 0.2553 0.0
O230 O 0.83292 0.08635 0.32932 0.0
O231 O 0.86759 0.09901 0.2891 0.0
O232 O 0.28503 0.18883 0.45867 0.0
Cd233 Cd 0.27055 0.16464 0.49792 0.0
Cd234 Cd 0.28524 0.10834 0.45105 0.0
O235 O 0.29626 0.14395 0.4199 0.0
O236 O 0.25988 0.20509 0.53255 0.0
O237 O 0.29883 0.1741 0.54123 0.0
C238 C 0.28193 0.19913 0.55263 0.0
C239 C 0.32687 0.08738 0.47693 0.0
C240 C 0.29408 0.17655 0.42904 0.0
C241 C 0.21466 0.0998 0.47608 0.0
O242 O 0.2349 0.08533 0.45546 0.0
O243 O 0.22461 0.13048 0.49433 0.0
O244 O 0.31588 0.07242 0.44642 0.0
O245 O 0.31506 0.11517 0.49193 0.0
O246 O 0.45073 0.53805 0.81699 0.0
Cd247 Cd 0.4236 0.5327 0.77267 0.0
Cd248 Cd 0.37416 0.55043 0.81821 0.0
O249 O 0.41135 0.55122 0.85381 0.0
O250 O 0.45771 0.51932 0.73824 0.0
O251 O 0.43614 0.56809 0.7431 0.0
C252 C 0.45606 0.54753 0.72781 0.0
C253 C 0.34952 0.60003 0.81836 0.0
C254 C 0.44125 0.54476 0.84728 0.0
C255 C 0.35757 0.47964 0.77207 0.0
O256 O 0.34705 0.50119 0.7962 0.0
O257 O 0.38627 0.48816 0.75932 0.0
O258 O 0.34051 0.57994 0.83925 0.0
O259 O 0.37312 0.59208 0.79749 0.0
O260 O 0.74974 0.36007 0.50768 0.0
Cd261 Cd 0.76005 0.39117 0.55561 0.0
Cd262 Cd 0.72754 0.43613 0.52187 0.0
O263 O 0.72331 0.39257 0.48189 0.0
O264 O 0.78177 0.35954 0.578 0.0
O265 O 0.7361 0.38067 0.59752 0.0
C266 C 0.75917 0.36215 0.60074 0.0
C267 C 0.68341 0.46901 0.53358 0.0
C268 C 0.73571 0.36475 0.48136 0.0
C269 C 0.80168 0.46058 0.54738 0.0
O270 O 0.77599 0.46585 0.53201 0.0
O271 O 0.79983 0.4332 0.55945 0.0
O272 O 0.70245 0.47095 0.50809 0.0
O273 O 0.68824 0.44711 0.55178 0.0
O274 O 0.71167 0.07293 0.7994 0.0
Cd275 Cd 0.68239 0.02811 0.81016 0.0
Cd276 Cd 0.63116 0.05007 0.77525 0.0
O277 O 0.67203 0.08853 0.77086 0.0
O278 O 0.7151 0.99979 0.82329 0.0
O279 O 0.68016 0.98057 0.77844 0.0
C280 C 0.70365 0.97497 0.79746 0.0
C281 C 0.59458 0.03304 0.72752 0.0
C282 C 0.70244 0.09367 0.78266 0.0
C283 C 0.6191 0.04343 0.84767 0.0
O284 O 0.60845 0.05079 0.8211 0.0
O285 O 0.64797 0.03382 0.84847 0.0
O286 O 0.59574 0.06292 0.74846 0.0
O287 O 0.61369 0.01186 0.73418 0.0
O288 O 0.01252 0.32912 0.94907 0.0
Cd289 Cd 0.01546 0.28081 0.91765 0.0
Cd290 Cd 0.04805 0.32289 0.87942 0.0
O291 O 0.04277 0.36357 0.91953 0.0
O292 O 1.00035 0.2457 0.94595 0.0
O293 O 0.05237 0.25407 0.92639 0.0
C294 C 0.03058 0.2379 0.94402 0.0
C295 C 0.10136 0.31348 0.85928 0.0
C296 C 0.02559 0.35989 0.94537 0.0
C297 C 0.98183 0.27892 0.85077 0.0
O298 O 0.00606 0.3034 0.84716 0.0
O299 O 0.98199 0.26513 0.87628 0.0
O300 O 0.0873 0.33836 0.85234 0.0
O301 O 0.08528 0.29444 0.87861 0.0
O302 O 0.51266 0.82021 0.44428 0.0
Cd303 Cd 0.51889 0.77336 0.41214 0.0
Cd304 Cd 0.55071 0.8189 0.37699 0.0
O305 O 0.54434 0.85765 0.4185 0.0
O306 O 0.50229 0.73681 0.43851 0.0
O307 O 0.55563 0.74702 0.4227 0.0
C308 C 0.53272 0.72967 0.43836 0.0
C309 C 0.60477 0.80965 0.35928 0.0
C310 C 0.52568 0.85173 0.44283 0.0
C311 C 0.48571 0.77382 0.34593 0.0
O312 O 0.50895 0.79992 0.34401 0.0
O313 O 0.48673 0.75801 0.36993 0.0
O314 O 0.59156 0.83498 0.35204 0.0
O315 O 0.58714 0.78983 0.37705 0.0
O316 O 0.98874 0.79356 0.71748 0.0
Cd317 Cd 0.03096 0.78525 0.68891 0.0
Cd318 Cd 0.99469 0.81469 0.6453 0.0
O319 O 0.9632 0.82144 0.68609 0.0
O320 O 0.0599 0.76854 0.71966 0.0
O321 O 0.0782 0.81532 0.69864 0.0
C322 C 0.08431 0.79381 0.71678 0.0
C323 C 0.00467 0.85904 0.61448 0.0
C324 C 0.96446 0.80919 0.71239 0.0
C325 C 0.00627 0.73942 0.62092 0.0
O326 O 0.99166 0.76413 0.61582 0.0
O327 O 0.02393 0.74342 0.64785 0.0
O328 O 0.97509 0.83942 0.61439 0.0
O329 O 0.02891 0.8543 0.6331 0.0
O330 O 0.48325 0.29433 0.21755 0.0
Cd331 Cd 0.52394 0.27935 0.18976 0.0
Cd332 Cd 0.49017 0.29987 0.13949 0.0
O333 O 0.45453 0.30672 0.17674 0.0
O334 O 0.55545 0.27118 0.22392 0.0
O335 O 0.57065 0.31011 0.19246 0.0
C336 C 0.57875 0.29441 0.21525 0.0
C337 C 0.50303 0.34268 0.10728 0.0
C338 C 0.45689 0.30353 0.20705 0.0
C339 C 0.50287 0.22496 0.12515 0.0
O340 O 0.49212 0.2489 0.11388 0.0
O341 O 0.51545 0.23162 0.15501 0.0
O342 O 0.47382 0.32184 0.1044 0.0
O343 O 0.52518 0.33982 0.12921 0.0
C344 C 0.26481 0.79201 0.91451 0.0
C345 C 0.24133 0.78482 0.88699 0.0
C346 C 0.25869 0.81305 0.94564 0.0
C347 C 0.22915 0.8285 0.95052 0.0
H348 H 0.28887 0.78244 0.91176 0.0
H349 H 0.27821 0.81863 0.96556 0.0
S350 S 0.15763 0.81499 0.88812 0.0
N351 N 0.18545 0.79198 0.86795 0.0
N352 N 0.17491 0.83323 0.92615 0.0
C353 C 0.20487 0.82078 0.92371 0.0
C354 C 0.21074 0.7986 0.89207 0.0
C355 C 0.0499 0.54929 0.4172 0.0
C356 C 0.06216 0.53918 0.44515 0.0
C357 C 0.07067 0.55263 0.38969 0.0
C358 C 0.10443 0.54578 0.38914 0.0
H359 H 0.02375 0.55367 0.41615 0.0
H360 H 0.05978 0.55979 0.36836 0.0
S361 S 0.14852 0.52006 0.4579 0.0
N362 N 0.10986 0.5236 0.47188 0.0
N363 N 0.14933 0.52986 0.42041 0.0
C364 C 0.11719 0.53672 0.41777 0.0
C365 C 0.0959 0.53337 0.44573 0.0
C366 C 0.81868 0.71522 0.85297 0.0
C367 C 0.80682 0.7476 0.85907 0.0
C368 C 0.81525 0.69411 0.87694 0.0
C369 C 0.80016 0.70479 0.9081 0.0
H370 H 0.83001 0.70575 0.82917 0.0
H371 H 0.82431 0.66914 0.87085 0.0
S372 S 0.76695 0.78881 0.93683 0.0
N373 N 0.78082 0.79021 0.89874 0.0
N374 N 0.77436 0.75103 0.94393 0.0
C375 C 0.78896 0.7377 0.9147 0.0
C376 C 0.79225 0.75894 0.89017 0.0
C377 C 0.96563 0.0446 0.42665 0.0
C378 C 1.0002 0.04207 0.42113 0.0
C379 C 0.94549 0.05328 0.40256 0.0
C380 C 0.95915 0.05947 0.37194 0.0
H381 H 0.95381 0.03886 0.44935 0.0
H382 H 0.91862 0.05332 0.40731 0.0
S383 S 0.04921 0.05897 0.34659 0.0
N384 N 0.04775 0.04826 0.38365 0.0
N385 N 0.01035 0.06545 0.33884 0.0
C386 C 0.99427 0.05903 0.36705 0.0
C387 C 0.01467 0.05007 0.39149 0.0
C388 C 0.27178 0.26884 0.63056 0.0
C389 C 0.28559 0.25666 0.65658 0.0
C390 C 0.27176 0.25054 0.59698 0.0
C391 C 0.28581 0.21947 0.58801 0.0
H392 H 0.26006 0.29225 0.63629 0.0
H393 H 0.26011 0.26063 0.57796 0.0
S394 S 0.32722 0.17793 0.64673 0.0
N395 N 0.31515 0.21273 0.67132 0.0
N396 N 0.31528 0.17814 0.60793 0.0
C397 C 0.30072 0.20758 0.61372 0.0
C398 C 0.30046 0.22616 0.64808 0.0
C399 C 0.51407 0.59783 0.67333 0.0
C400 C 0.51982 0.57079 0.64587 0.0
C401 C 0.49256 0.59038 0.69935 0.0
C402 C 0.47659 0.55557 0.69919 0.0
H403 H 0.52669 0.62491 0.67505 0.0
H404 H 0.48923 0.61185 0.7202 0.0
S405 S 0.4802 0.47577 0.63194 0.0
N406 N 0.50497 0.5082 0.61897 0.0
N407 N 0.46611 0.49414 0.66866 0.0
C408 C 0.4816 0.52841 0.6718 0.0
C409 C 0.50285 0.53602 0.64498 0.0
C410 C 0.79287 0.31326 0.66072 0.0
C411 C 0.77307 0.32066 0.68914 0.0
C412 C 0.78715 0.32563 0.63179 0.0
C413 C 0.7615 0.34602 0.63031 0.0
H414 H 0.81367 0.29882 0.66123 0.0
H415 H 0.80373 0.31999 0.6108 0.0
S416 S 0.70151 0.37063 0.69822 0.0
N417 N 0.72604 0.34795 0.71415 0.0
N418 N 0.71497 0.3713 0.65981 0.0
C419 C 0.74065 0.35235 0.65837 0.0
C420 C 0.74658 0.33969 0.68784 0.0
C421 C 0.54223 0.97948 0.64948 0.0
C422 C 0.52858 0.00541 0.63761 0.0
C423 C 0.56378 0.98858 0.67847 0.0
C424 C 0.57229 0.02389 0.69665 0.0
H425 H 0.53577 0.9519 0.63658 0.0
H426 H 0.57342 0.96773 0.68692 0.0
S427 S 0.54568 0.10202 0.67402 0.0
N428 N 0.527 0.068 0.64474 0.0
N429 N 0.56692 0.08517 0.69941 0.0
C430 C 0.5593 0.05012 0.68458 0.0
C431 C 0.53759 0.04086 0.65503 0.0
C432 C 0.89041 0.24361 0.8188 0.0
C433 C 0.88809 0.25721 0.78981 0.0
C434 C 0.92123 0.2493 0.83718 0.0
C435 C 0.95115 0.26927 0.8277 0.0
H436 H 0.86788 0.22943 0.82822 0.0
H437 H 0.9211 0.23905 0.85983 0.0
S438 S 0.95962 0.30784 0.75181 0.0
N439 N 0.9189 0.28912 0.75082 0.0
N440 N 0.9771 0.30061 0.78582 0.0
C441 C 0.94959 0.28202 0.79802 0.0
C442 C 0.91802 0.27594 0.77908 0.0
C443 C 0.47747 0.90434 0.51059 0.0
C444 C 0.4995 0.93717 0.51979 0.0
C445 C 0.4863 0.87692 0.48573 0.0
C446 C 0.51726 0.88152 0.46878 0.0
H447 H 0.45375 0.89945 0.5235 0.0
H448 H 0.46868 0.85189 0.47976 0.0
S449 S 0.58303 0.96331 0.48291 0.0
N450 N 0.55308 0.97331 0.50985 0.0
N451 N 0.5695 0.922 0.46243 0.0
C452 C 0.53906 0.91466 0.47714 0.0
C453 C 0.53026 0.94241 0.50286 0.0
C454 C 0.17866 0.26903 0.83669 0.0
C455 C 0.19366 0.28563 0.81169 0.0
C456 C 0.14935 0.27895 0.85272 0.0
C457 C 0.1341 0.30577 0.84416 0.0
H458 H 0.18912 0.24768 0.84332 0.0
H459 H 0.13818 0.26493 0.8714 0.0
S460 S 0.16508 0.35767 0.78037 0.0
N461 N 0.19227 0.33018 0.77928 0.0
N462 N 0.13746 0.34936 0.80935 0.0
C463 C 0.14974 0.32314 0.81964 0.0
C464 C 0.17947 0.31287 0.80336 0.0
C465 C 0.58196 0.69006 0.49571 0.0
C466 C 0.55599 0.66628 0.50654 0.0
C467 C 0.57483 0.70876 0.47158 0.0
C468 C 0.54134 0.70468 0.45815 0.0
H469 H 0.60745 0.6957 0.50726 0.0
H470 H 0.59517 0.72815 0.46511 0.0
S471 S 0.46549 0.64225 0.47596 0.0
N472 N 0.49661 0.63707 0.50017 0.0
N473 N 0.48288 0.67219 0.45513 0.0
C474 C 0.51574 0.6792 0.4674 0.0
C475 C 0.52316 0.66002 0.49161 0.0
C476 C 0.89424 0.77512 0.76629 0.0
C477 C 0.87455 0.80224 0.77339 0.0
C478 C 0.92403 0.77846 0.74785 0.0
C479 C 0.93508 0.80868 0.73493 0.0
H480 H 0.88612 0.75048 0.77416 0.0
H481 H 0.93773 0.75646 0.74248 0.0
S482 S 0.89499 0.88867 0.74836 0.0
N483 N 0.8703 0.86187 0.76823 0.0
N484 N 0.92534 0.86708 0.73173 0.0
C485 C 0.91619 0.8363 0.74211 0.0
C486 C 0.88618 0.83333 0.76171 0.0
C487 C 0.98482 0.91476 0.5548 0.0
C488 C 0.01664 0.92443 0.54123 0.0
C489 C 0.98165 0.89509 0.57977 0.0
C490 C 0.01026 0.88448 0.59215 0.0
H491 H 0.96192 0.92124 0.54513 0.0
H492 H 0.95632 0.88721 0.58868 0.0
S493 S 0.09984 0.90558 0.56588 0.0
N494 N 0.0776 0.92391 0.54256 0.0
N495 N 0.07198 0.88707 0.58998 0.0
C496 C 0.04264 0.89562 0.57983 0.0
C497 C 0.04574 0.91553 0.55412 0.0
C498 C 0.18113 0.8079 0.72605 0.0
C499 C 0.18582 0.78898 0.75065 0.0
C500 C 0.14811 0.81137 0.71661 0.0
C501 C 0.11891 0.79562 0.73126 0.0
H502 H 0.20292 0.81892 0.71317 0.0
H503 H 0.14541 0.82486 0.69651 0.0
S504 S 0.11871 0.74647 0.79951 0.0
N505 N 0.15955 0.75676 0.79132 0.0
N506 N 0.09751 0.76309 0.77385 0.0
C507 C 0.12373 0.77821 0.7572 0.0
C508 C 0.15726 0.7749 0.76681 0.0
C509 C 0.0165 0.64588 0.57893 0.0
C510 C 0.98835 0.63446 0.55603 0.0
C511 C 0.02284 0.68037 0.59885 0.0
C512 C 0.00142 0.7048 0.5964 0.0
H513 H 0.03266 0.62749 0.58278 0.0
H514 H 0.04413 0.68753 0.61705 0.0
S515 S 0.92653 0.68861 0.5371 0.0
N516 N 0.94059 0.65066 0.52973 0.0
N517 N 0.95247 0.71567 0.56692 0.0
C518 C 0.97437 0.69422 0.572 0.0
C519 C 0.96782 0.65899 0.55193 0.0
C520 C 0.79468 0.90121 0.26023 0.0
C521 C 0.81219 0.87544 0.24193 0.0
C522 C 0.80959 0.93724 0.26738 0.0
C523 C 0.84256 0.94881 0.25651 0.0
H524 H 0.76924 0.89349 0.26895 0.0
H525 H 0.79523 0.95608 0.28182 0.0
S526 S 0.89959 0.89118 0.20898 0.0
N527 N 0.86463 0.86359 0.21421 0.0
N528 N 0.8924 0.93099 0.22687 0.0
C529 C 0.86022 0.92311 0.23804 0.0
C530 C 0.84513 0.88654 0.231 0.0
C531 C 0.77971 0.16992 0.32617 0.0
C532 C 0.79373 0.19714 0.31013 0.0
C533 C 0.79555 0.14059 0.32507 0.0
C534 C 0.82605 0.13717 0.3078 0.0
H535 H 0.75628 0.17132 0.3398 0.0
H536 H 0.78375 0.12051 0.33805 0.0
S537 S 0.87355 0.20157 0.26211 0.0
N538 N 0.84018 0.21919 0.27686 0.0
N539 N 0.86973 0.16376 0.27428 0.0
C540 C 0.84015 0.164 0.29125 0.0
C541 C 0.82404 0.19402 0.29251 0.0
C542 C 0.36513 0.01085 0.01087 0.0
C543 C 0.39153 0.01569 0.03514 0.0
C544 C 0.33251 0.99234 0.01504 0.0
C545 C 0.32539 0.97741 0.04332 0.0
H546 H 0.36992 0.02099 0.98826 0.0
H547 H 0.3132 0.98843 0.99519 0.0
S548 S 0.38573 0.98477 0.11496 0.0
N549 N 0.4084 0.00616 0.08917 0.0
N550 N 0.34717 0.97045 0.09685 0.0
C551 C 0.35146 0.98302 0.06826 0.0
C552 C 0.38453 0.00243 0.06422 0.0
C553 C 0.2557 0.40991 0.31258 0.0
C554 C 0.2392 0.38028 0.28893 0.0
C555 C 0.24608 0.44304 0.31549 0.0
C556 C 0.21941 0.44762 0.29497 0.0
H557 H 0.27532 0.40722 0.32978 0.0
H558 H 0.25894 0.46493 0.33481 0.0
S559 S 0.16988 0.37779 0.22749 0.0
N560 N 0.19643 0.35724 0.24352 0.0
N561 N 0.17814 0.41942 0.24868 0.0
C562 C 0.20373 0.41818 0.2702 0.0
C563 C 0.21365 0.38447 0.2673 0.0
C564 C 0.13493 0.02814 0.46337 0.0
C565 C 0.11008 0.04608 0.48038 0.0
C566 C 0.16889 0.04546 0.46258 0.0
C567 C 0.17914 0.08129 0.47893 0.0
H568 H 0.12769 0.00109 0.44918 0.0
H569 H 0.18698 0.03087 0.4484 0.0
S570 S 0.12351 0.13879 0.52922 0.0
N571 N 0.09784 0.10048 0.51538 0.0
N572 N 0.16149 0.13327 0.51453 0.0
C573 C 0.15457 0.09891 0.49737 0.0
C574 C 0.12008 0.08126 0.49791 0.0
C575 C 0.74634 0.16813 0.74324 0.0
C576 C 0.77253 0.18589 0.76716 0.0
C577 C 0.72379 0.13816 0.74837 0.0
C578 C 0.7269 0.12477 0.77742 0.0
H579 H 0.74347 0.17723 0.72031 0.0
H580 H 0.704 0.12516 0.72927 0.0
S581 S 0.78871 0.16396 0.84939 0.0
N582 N 0.79815 0.18979 0.82248 0.0
N583 N 0.75674 0.13282 0.83129 0.0
C584 C 0.75261 0.1426 0.80172 0.0
C585 C 0.77513 0.17335 0.79682 0.0
C586 C 0.38018 0.07331 0.54828 0.0
C587 C 0.38971 0.04055 0.5349 0.0
C588 C 0.36094 0.0888 0.52886 0.0
C589 C 0.35046 0.07199 0.49531 0.0
H590 H 0.38696 0.08672 0.57426 0.0
H591 H 0.35352 0.11375 0.54063 0.0
S592 S 0.37104 0.98624 0.44836 0.0
N593 N 0.38899 0.9922 0.48622 0.0
N594 N 0.3528 0.02106 0.44923 0.0
C595 C 0.36097 0.03954 0.48136 0.0
C596 C 0.38058 0.02382 0.50132 0.0
C597 C 0.6017 0.50293 0.56163 0.0
C598 C 0.61068 0.53972 0.56366 0.0
C599 C 0.62527 0.48011 0.55192 0.0
C600 C 0.6584 0.49297 0.5428 0.0
H601 H 0.57626 0.49157 0.56789 0.0
H602 H 0.61742 0.45219 0.5513 0.0
S603 S 0.69574 0.58653 0.5445 0.0
N604 N 0.65622 0.58774 0.55696 0.0
N605 N 0.69949 0.54443 0.5366 0.0
C606 C 0.66766 0.52934 0.54391 0.0
C607 C 0.64405 0.55279 0.55474 0.0
C608 C 0.71844 0.31248 0.3907 0.0
C609 C 0.74832 0.29775 0.38365 0.0
C610 C 0.71394 0.33356 0.42259 0.0
C611 C 0.73887 0.34008 0.44873 0.0
H612 H 0.69846 0.30787 0.37138 0.0
H613 H 0.6909 0.3449 0.42677 0.0
S614 S 0.82282 0.31017 0.44268 0.0
N615 N 0.8042 0.29349 0.40506 0.0
N616 N 0.79506 0.33143 0.46506 0.0
C617 C 0.76871 0.32536 0.44208 0.0
C618 C 0.7736 0.30462 0.40956 0.0
C619 C 0.54125 0.05341 0.90137 0.0
C620 C 0.54838 0.0395 0.9289 0.0
C621 C 0.56494 0.05593 0.87596 0.0
C622 C 0.59654 0.04436 0.87709 0.0
H623 H 0.51663 0.06102 0.89872 0.0
H624 H 0.55782 0.06592 0.8547 0.0
S625 S 0.62766 0.00802 0.94591 0.0
N626 N 0.58922 0.01574 0.95733 0.0
N627 N 0.63416 0.02045 0.90981 0.0
C628 C 0.60443 0.03187 0.9056 0.0
C629 C 0.58018 0.02937 0.93143 0.0
C630 C 0.31207 0.20837 0.34737 0.0
C631 C 0.30575 0.24323 0.35587 0.0
C632 C 0.30905 0.18717 0.37131 0.0
C633 C 0.29996 0.20021 0.4047 0.0
H634 H 0.31841 0.19712 0.32182 0.0
H635 H 0.31327 0.16017 0.36337 0.0
S636 S 0.28417 0.29144 0.43997 0.0
N637 N 0.29233 0.29077 0.40004 0.0
N638 N 0.28696 0.2516 0.44517 0.0
C639 C 0.29496 0.2357 0.41365 0.0
C640 C 0.29776 0.257 0.38921 0.0
C641 C 0.52088 0.53204 0.89035 0.0
C642 C 0.50834 0.52198 0.91983 0.0
C643 C 0.49929 0.54123 0.86797 0.0
C644 C 0.46434 0.541 0.87428 0.0
H645 H 0.54728 0.53137 0.88379 0.0
H646 H 0.50991 0.54747 0.84496 0.0
S647 S 0.41991 0.5202 0.94998 0.0
N648 N 0.45967 0.51495 0.9557 0.0
N649 N 0.41883 0.53233 0.91367 0.0
C650 C 0.45191 0.53284 0.90467 0.0
C651 C 0.47393 0.52317 0.92735 0.0
C652 C 0.76912 0.7703 0.1335 0.0
C653 C 0.78535 0.75979 0.15923 0.0
C654 C 0.76831 0.75138 0.10007 0.0
C655 C 0.784 0.72141 0.09098 0.0
H656 H 0.7565 0.79308 0.13937 0.0
H657 H 0.75512 0.76033 0.08122 0.0
S658 S 0.83084 0.68376 0.14903 0.0
N659 N 0.81816 0.71819 0.17362 0.0
N660 N 0.81676 0.68241 0.11054 0.0
C661 C 0.80082 0.71091 0.11644 0.0
C662 C 0.80137 0.7301 0.15064 0.0
C663 C 0.99103 0.08895 0.14645 0.0
C664 C 0.0242 0.08064 0.14491 0.0
C665 C 0.9696 0.08309 0.17302 0.0
C666 C 0.98052 0.06844 0.19878 0.0
H667 H 0.98123 0.09919 0.12651 0.0
H668 H 0.94399 0.08905 0.17281 0.0
S669 S 0.06668 0.04683 0.20899 0.0
N670 N 0.06817 0.06077 0.17349 0.0
N671 N 0.02773 0.04884 0.22278 0.0
C672 C 0.01407 0.0613 0.1982 0.0
C673 C 0.03594 0.06762 0.17143 0.0
C674 C 0.25 0.84613 0.1922 0.0
C675 C 0.2724 0.82226 0.19242 0.0
C676 C 0.24242 0.85596 0.16224 0.0
C677 C 0.25742 0.84255 0.13175 0.0
H678 H 0.2393 0.85827 0.21549 0.0
H679 H 0.22606 0.87548 0.16337 0.0
S680 S 0.3154 0.77652 0.11926 0.0
N681 N 0.30754 0.78349 0.15988 0.0
N682 N 0.29365 0.80178 0.10355 0.0
C683 C 0.27863 0.81729 0.13164 0.0
C684 C 0.28608 0.80722 0.16206 0.0
C685 C 0.02746 0.52533 0.17238 0.0
C686 C 0.04214 0.51128 0.14198 0.0
C687 C 0.0447 0.53027 0.20344 0.0
C688 C 0.07707 0.52084 0.20538 0.0
H689 H 0.00276 0.53342 0.17213 0.0
H690 H 0.03293 0.5424 0.22607 0.0
S691 S 0.12636 0.48194 0.13347 0.0
N692 N 0.0909 0.48745 0.11588 0.0
N693 N 0.12272 0.49561 0.17451 0.0
C694 C 0.09139 0.50517 0.17542 0.0
C695 C 0.07407 0.50065 0.14365 0.0
C696 C 0.39317 0.74142 0.31673 0.0
C697 C 0.39009 0.75648 0.28878 0.0
C698 C 0.42465 0.74539 0.33357 0.0
C699 C 0.45449 0.76511 0.32363 0.0
H700 H 0.37079 0.72758 0.32671 0.0
H701 H 0.42507 0.73426 0.35565 0.0
S702 S 0.46118 0.80642 0.24952 0.0
N703 N 0.42023 0.78889 0.24976 0.0
N704 N 0.47955 0.79738 0.28215 0.0
C705 C 0.45219 0.77908 0.29481 0.0
C706 C 0.41999 0.77464 0.27733 0.0
C707 C 0.99811 0.41581 0.0261 0.0
C708 C 0.00917 0.45064 0.02241 0.0
C709 C 0.00328 0.38678 0.00095 0.0
C710 C 0.01998 0.3914 0.97116 0.0
H711 H 0.98584 0.41096 0.04891 0.0
H712 H 0.99453 0.36051 0.00526 0.0
S713 S 0.05331 0.47766 0.9492 0.0
N714 N 0.03712 0.48842 0.98674 0.0
N715 N 0.04672 0.43398 0.9392 0.0
C716 C 0.03057 0.42624 0.9669 0.0
C717 C 0.02512 0.45581 0.99254 0.0
C718 C 0.68647 0.8161 0.31007 0.0
C719 C 0.70112 0.78824 0.31652 0.0
C720 C 0.65576 0.8234 0.32479 0.0
C721 C 0.6386 0.80292 0.34632 0.0
H722 H 0.69838 0.8318 0.29292 0.0
H723 H 0.64504 0.84477 0.31856 0.0
S724 S 0.66823 0.72778 0.372 0.0
N725 N 0.69765 0.74082 0.34632 0.0
N726 N 0.63992 0.75429 0.37423 0.0
C727 C 0.6538 0.77549 0.35357 0.0
C728 C 0.68509 0.76818 0.33856 0.0
C729 C 0.08506 0.19603 0.99474 0.0
C730 C 0.06037 0.17498 0.01003 0.0
C731 C 0.07532 0.21476 0.97173 0.0
C732 C 0.04053 0.2134 0.96375 0.0
H733 H 0.11194 0.19931 0.0017 0.0
H734 H 0.09511 0.23184 0.96156 0.0
S735 S 0.96651 0.15884 0.99503 0.0
N736 N 1.00026 0.15141 0.01406 0.0
N737 N 0.98162 0.1865 0.97103 0.0
C738 C 0.0158 0.1908 0.97773 0.0
C739 C 0.02582 0.17163 0.0009 0.0
C740 C 0.36496 0.29832 0.23461 0.0
C741 C 0.36812 0.30216 0.26975 0.0
C742 C 0.39391 0.30066 0.21474 0.0
C743 C 0.42719 0.30664 0.22917 0.0
H744 H 0.33989 0.29194 0.22213 0.0
H745 H 0.39004 0.29607 0.18767 0.0
S746 S 0.44952 0.32402 0.32057 0.0
N747 N 0.40726 0.31659 0.31859 0.0
N748 N 0.46165 0.32009 0.28121 0.0
C749 C 0.43075 0.31241 0.26448 0.0
C750 C 0.40126 0.31036 0.28474 0.0
C751 C 0.55284 0.39429 0.04847 0.0
C752 C 0.52662 0.40418 0.03166 0.0
C753 C 0.54534 0.37619 0.07459 0.0
C754 C 0.51134 0.36703 0.08415 0.0
H755 H 0.57902 0.39934 0.04057 0.0
H756 H 0.56602 0.36769 0.08607 0.0
S757 S 0.43433 0.3905 0.04957 0.0
N758 N 0.46617 0.40633 0.02774 0.0
N759 N 0.4518 0.37212 0.07642 0.0
C760 C 0.48527 0.37848 0.06841 0.0
C761 C 0.49301 0.3971 0.04219 0.0
C762 C 0.67582 0.31186 0.21924 0.0
C763 C 0.68312 0.29969 0.24787 0.0
C764 C 0.6419 0.31228 0.20994 0.0
C765 C 0.61434 0.30004 0.2288 0.0
H766 H 0.69626 0.31973 0.2032 0.0
H767 H 0.63718 0.32041 0.18686 0.0
S768 S 0.62117 0.26916 0.30811 0.0
N769 N 0.66112 0.278 0.29654 0.0
N770 N 0.59732 0.27849 0.27928 0.0
C771 C 0.62178 0.28961 0.25856 0.0
C772 C 0.65626 0.28946 0.26803 0.0
C773 C 0.48784 0.14909 0.04779 0.0
C774 C 0.48612 0.11922 0.06168 0.0
C775 C 0.49423 0.18329 0.06843 0.0
C776 C 0.49948 0.18876 0.10361 0.0
H777 H 0.48254 0.14592 0.02108 0.0
H778 H 0.49427 0.20555 0.05679 0.0
S779 S 0.50007 0.1186 0.15148 0.0
N780 N 0.49186 0.09683 0.11197 0.0
N781 N 0.50449 0.16097 0.1509 0.0
C782 C 0.4995 0.15894 0.11743 0.0
C783 C 0.49261 0.12419 0.09643 0.0
C784 C 0.33968 0.38141 0.73314 0.0
C785 C 0.30631 0.37017 0.74297 0.0
C786 C 0.35535 0.41696 0.74172 0.0
C787 C 0.3385 0.44292 0.76086 0.0
H788 H 0.35422 0.36242 0.7192 0.0
H789 H 0.38135 0.42386 0.73399 0.0
S790 S 0.24978 0.42771 0.79093 0.0
N791 N 0.25601 0.38805 0.77114 0.0
N792 N 0.28579 0.45507 0.78813 0.0
C793 C 0.30482 0.43222 0.77041 0.0
C794 C 0.2887 0.39583 0.76136 0.0
C795 C 0.28485 0.66186 0.83573 0.0
C796 C 0.29794 0.68899 0.8192 0.0
C797 C 0.30181 0.63342 0.83533 0.0
C798 C 0.33251 0.63075 0.81822 0.0
H799 H 0.26109 0.66242 0.84889 0.0
H800 H 0.29049 0.61319 0.84835 0.0
S801 S 0.37844 0.69573 0.77227 0.0
N802 N 0.34423 0.71216 0.78635 0.0
N803 N 0.37577 0.65829 0.78496 0.0
C804 C 0.34596 0.65771 0.80159 0.0
C805 C 0.32876 0.68688 0.8022 0.0
C806 C 0.89769 0.49303 0.55372 0.0
C807 C 0.90148 0.52371 0.54077 0.0
C808 C 0.86523 0.47381 0.55736 0.0
C809 C 0.83523 0.48436 0.54791 0.0
H810 H 0.92005 0.48351 0.56068 0.0
H811 H 0.86381 0.44981 0.56658 0.0
S812 S 0.83146 0.56426 0.51445 0.0
N813 N 0.87275 0.56476 0.51975 0.0
N814 N 0.81162 0.52895 0.52683 0.0
C815 C 0.83871 0.51586 0.53612 0.0
C816 C 0.87184 0.53545 0.53249 0.0
C817 C 0.75246 0.90327 0.80937 0.0
C818 C 0.73849 0.87434 0.78362 0.0
C819 C 0.7417 0.93596 0.81296 0.0
C820 C 0.71642 0.94081 0.791 0.0
H821 H 0.77113 0.90036 0.82744 0.0
H822 H 0.75275 0.95732 0.83368 0.0
S823 S 0.67321 0.87274 0.71841 0.0
N824 N 0.69929 0.85223 0.73514 0.0
N825 N 0.67889 0.91356 0.74155 0.0
C826 C 0.70307 0.91205 0.76445 0.0
C827 C 0.71413 0.87879 0.76088 0.0
C828 C 0.64956 0.51894 0.95876 0.0
C829 C 0.62225 0.5333 0.97499 0.0
C830 C 0.68246 0.53948 0.9603 0.0
C831 C 0.68916 0.57504 0.97828 0.0
H832 H 0.64511 0.49218 0.94353 0.0
H833 H 0.7025 0.52762 0.94659 0.0
S834 S 0.62622 0.62348 0.02781 0.0
N835 N 0.60402 0.58388 0.01127 0.0
N836 N 0.66559 0.62264 0.01478 0.0
C837 C 0.66212 0.58902 0.99596 0.0
C838 C 0.62873 0.56812 0.99413 0.0
C839 C 0.27557 0.67699 0.29736 0.0
C840 C 0.27116 0.69122 0.26905 0.0
C841 C 0.25275 0.6479 0.30348 0.0
C842 C 0.22407 0.63227 0.28201 0.0
H843 H 0.29679 0.68859 0.31525 0.0
H844 H 0.25739 0.63791 0.32552 0.0
S845 S 0.20079 0.65865 0.20414 0.0
N846 N 0.23622 0.68669 0.21883 0.0
N847 N 0.19239 0.63265 0.2311 0.0
C848 C 0.21889 0.64636 0.25385 0.0
C849 C 0.24259 0.67572 0.24724 0.0
C850 C 0.91587 0.55896 0.00158 0.0
C851 C 0.92877 0.57993 0.03291 0.0
C852 C 0.88788 0.56664 0.9853 0.0
C853 C 0.87194 0.59548 -7e-05 0.0
H854 H 0.92742 0.53657 0.98963 0.0
H855 H 0.87863 0.54974 0.96116 0.0
S856 S 0.8974 0.65846 0.08194 0.0
N857 N 0.92446 0.63051 0.078 0.0
N858 N 0.87203 0.64519 0.04783 0.0
C859 C 0.88501 0.61659 0.0314 0.0
C860 C 0.91342 0.60872 0.04779 0.0
C861 C 0.13889 0.0452 0.04952 0.0
C862 C 0.10452 0.03436 0.05716 0.0
C863 C 0.16076 0.02069 0.03968 0.0
C864 C 0.14949 0.98447 0.03795 0.0
H865 H 0.1495 0.073 0.05228 0.0
H866 H 0.18713 0.03035 0.03461 0.0
S867 S 0.06146 0.9412 0.0511 0.0
N868 N 0.05948 0.98375 0.05818 0.0
N869 N 0.10161 0.93824 0.04208 0.0
C870 C 0.11524 0.97291 0.04458 0.0
C871 C 0.09252 0.9977 0.05358 0.0
loop_
_geom_bond_atom_site_label_1
_geom_bond_atom_site_label_2
_geom_bond_distance
_geom_bond_site_symmetry_2
_ccdc_geom_bond_type
H0 C3 0.929 . S
H1 C6 0.929 . S
H2 C8 0.930 . S
C3 H0 0.929 . S
C3 C4 1.398 . S
C3 C5 1.396 . S
C4 C3 1.398 . S
C4 C8 1.407 . S
C5 C3 1.396 . S
C5 C6 1.394 . S
C6 H1 0.929 . S
C6 C5 1.394 . S
C6 C7 1.382 . S
C7 C6 1.382 . S
C7 C8 1.392 . S
C7 N9 1.420 . S
C8 H2 0.930 . S
C8 C4 1.407 . S
C8 C7 1.392 . S
N9 C7 1.420 . S
N9 C10 1.244 . S
C10 N9 1.244 . S
H11 C14 0.929 . S
H12 C17 0.929 . S
H13 C19 0.930 . S
C14 H11 0.929 . S
C14 C15 1.398 . S
C14 C16 1.396 . S
C15 C14 1.398 . S
C15 C19 1.407 . S
C16 C14 1.396 . S
C16 C17 1.394 . S
C17 H12 0.929 . S
C17 C16 1.394 . S
C17 C18 1.382 . S
C18 C17 1.382 . S
C18 C19 1.392 . S
C18 N20 1.420 . S
C19 H13 0.930 . S
C19 C15 1.407 . S
C19 C18 1.392 . S
N20 C18 1.420 . S
N20 C21 1.244 . S
C21 N20 1.244 . S
H22 C25 0.929 . S
H23 C28 0.929 . S
H24 C30 0.930 . S
C25 H22 0.929 . S
C25 C26 1.398 . S
C25 C27 1.396 . S
C26 C25 1.398 . S
C26 C30 1.407 . S
C27 C25 1.396 . S
C27 C28 1.394 . S
C28 H23 0.929 . S
C28 C27 1.394 . S
C28 C29 1.382 . S
C29 C28 1.382 . S
C29 C30 1.392 . S
C29 N31 1.420 . S
C30 H24 0.930 . S
C30 C26 1.407 . S
C30 C29 1.392 . S
N31 C29 1.420 . S
N31 C32 1.244 . S
C32 N31 1.244 . S
H33 C36 0.929 . S
H34 C39 0.929 . S
H35 C41 0.930 . S
C36 H33 0.929 . S
C36 C37 1.398 . S
C36 C38 1.396 . S
C37 C36 1.398 . S
C37 C41 1.407 . S
C38 C36 1.396 . S
C38 C39 1.394 . S
C39 H34 0.929 . S
C39 C38 1.394 . S
C39 C40 1.382 . S
C40 C39 1.382 . S
C40 C41 1.392 . S
C40 N42 1.420 . S
C41 H35 0.930 . S
C41 C37 1.407 . S
C41 C40 1.392 . S
N42 C40 1.420 . S
N42 C43 1.244 . S
C43 N42 1.244 . S
H44 C47 0.929 1_545 S
H45 C50 0.929 . S
H46 C52 0.930 . S
C47 H44 0.929 1_565 S
C47 C48 1.398 . S
C47 C49 1.396 . S
C48 C47 1.398 . S
C48 C52 1.407 . S
C49 C47 1.396 . S
C49 C50 1.394 . S
C50 H45 0.929 . S
C50 C49 1.394 . S
C50 C51 1.382 . S
C51 C50 1.382 . S
C51 C52 1.392 . S
C51 N53 1.420 . S
C52 H46 0.930 . S
C52 C48 1.407 . S
C52 C51 1.392 . S
N53 C51 1.420 . S
N53 C54 1.244 . S
C54 N53 1.244 . S
H55 C58 0.929 . S
H56 C61 0.929 . S
H57 C63 0.930 . S
C58 H55 0.929 . S
C58 C59 1.398 . S
C58 C60 1.396 . S
C59 C58 1.398 . S
C59 C63 1.407 . S
C60 C58 1.396 . S
C60 C61 1.394 . S
C61 H56 0.929 . S
C61 C60 1.394 . S
C61 C62 1.382 . S
C62 C61 1.382 . S
C62 C63 1.392 . S
C62 N64 1.420 . S
C63 H57 0.930 . S
C63 C59 1.407 . S
C63 C62 1.392 . S
N64 C62 1.420 . S
N64 C65 1.244 . S
C65 N64 1.244 . S
H66 C69 0.929 . S
H67 C72 0.929 . S
H68 C74 0.930 . S
C69 H66 0.929 . S
C69 C70 1.398 . S
C69 C71 1.396 . S
C70 C69 1.398 . S
C70 C74 1.407 . S
C71 C69 1.396 . S
C71 C72 1.394 . S
C72 H67 0.929 . S
C72 C71 1.394 . S
C72 C73 1.382 . S
C73 C72 1.382 . S
C73 C74 1.392 . S
C73 N75 1.420 . S
C74 H68 0.930 . S
C74 C70 1.407 . S
C74 C73 1.392 . S
N75 C73 1.420 . S
N75 C76 1.244 . S
C76 N75 1.244 . S
H77 C80 0.929 . S
H78 C83 0.929 . S
H79 C85 0.930 . S
C80 H77 0.929 . S
C80 C81 1.398 . S
C80 C82 1.396 . S
C81 C80 1.398 . S
C81 C85 1.407 . S
C82 C80 1.396 . S
C82 C83 1.394 . S
C83 H78 0.929 . S
C83 C82 1.394 . S
C83 C84 1.382 . S
C84 C83 1.382 . S
C84 C85 1.392 . S
C84 N86 1.420 . S
C85 H79 0.930 . S
C85 C81 1.407 . S
C85 C84 1.392 . S
N86 C84 1.420 . S
N86 C87 1.244 . S
C87 N86 1.244 . S
H88 C91 0.929 . S
H89 C94 0.929 . S
H90 C96 0.930 . S
C91 H88 0.929 . S
C91 C92 1.398 . S
C91 C93 1.396 . S
C92 C91 1.398 . S
C92 C96 1.407 . S
C93 C91 1.396 . S
C93 C94 1.394 . S
C94 H89 0.929 . S
C94 C93 1.394 . S
C94 C95 1.382 . S
C95 C94 1.382 . S
C95 C96 1.392 . S
C95 N97 1.420 . S
C96 H90 0.930 . S
C96 C92 1.407 . S
C96 C95 1.392 . S
N97 C95 1.420 . S
N97 C98 1.244 . S
C98 N97 1.244 . S
H99 C102 0.929 . S
H100 C105 0.929 . S
H101 C107 0.930 . S
C102 H99 0.929 . S
C102 C103 1.398 . S
C102 C104 1.396 . S
C103 C102 1.398 . S
C103 C107 1.407 . S
C104 C102 1.396 . S
C104 C105 1.394 . S
C105 H100 0.929 . S
C105 C104 1.394 . S
C105 C106 1.382 . S
C106 C105 1.382 . S
C106 C107 1.392 . S
C106 N108 1.420 . S
C107 H101 0.930 . S
C107 C103 1.407 . S
C107 C106 1.392 . S
N108 C106 1.420 . S
N108 C109 1.244 . S
C109 N108 1.244 . S
H110 C113 0.929 . S
H111 C116 0.929 . S
H112 C118 0.930 . S
C113 H110 0.929 . S
C113 C114 1.398 . S
C113 C115 1.396 . S
C114 C113 1.398 . S
C114 C118 1.407 . S
C115 C113 1.396 . S
C115 C116 1.394 . S
C116 H111 0.929 . S
C116 C115 1.394 . S
C116 C117 1.382 . S
C117 C116 1.382 . S
C117 C118 1.392 . S
C117 N119 1.420 . S
C118 H112 0.930 . S
C118 C114 1.407 . S
C118 C117 1.392 . S
N119 C117 1.420 . S
N119 C120 1.244 . S
C120 N119 1.244 . S
H121 C124 0.929 . S
H122 C127 0.929 . S
H123 C129 0.930 . S
C124 H121 0.929 . S
C124 C125 1.398 . S
C124 C126 1.396 . S
C125 C124 1.398 . S
C125 C129 1.407 . S
C126 C124 1.396 . S
C126 C127 1.394 . S
C127 H122 0.929 . S
C127 C126 1.394 . S
C127 C128 1.382 . S
C128 C127 1.382 . S
C128 C129 1.392 . S
C128 N130 1.420 . S
C129 H123 0.930 . S
C129 C125 1.407 . S
C129 C128 1.392 . S
N130 C128 1.420 . S
N130 C131 1.244 . S
C131 N130 1.244 . S
H132 C135 0.929 . S
H133 C138 0.929 . S
H134 C140 0.930 . S
C135 H132 0.929 . S
C135 C136 1.398 . S
C135 C137 1.396 . S
C136 C135 1.398 . S
C136 C140 1.407 . S
C137 C135 1.396 . S
C137 C138 1.394 . S
C138 H133 0.929 . S
C138 C137 1.394 . S
C138 C139 1.382 . S
C139 C138 1.382 . S
C139 C140 1.392 . S
C139 N141 1.420 . S
C140 H134 0.930 . S
C140 C136 1.407 . S
C140 C139 1.392 . S
N141 C139 1.420 . S
N141 C142 1.244 . S
C142 N141 1.244 . S
H143 C146 0.929 . S
H144 C149 0.929 . S
H145 C151 0.930 . S
C146 H143 0.929 . S
C146 C147 1.398 . S
C146 C148 1.396 . S
C147 C146 1.398 . S
C147 C151 1.407 . S
C148 C146 1.396 . S
C148 C149 1.394 . S
C149 H144 0.929 . S
C149 C148 1.394 . S
C149 C150 1.382 . S
C150 C149 1.382 . S
C150 C151 1.392 . S
C150 N152 1.420 . S
C151 H145 0.930 . S
C151 C147 1.407 . S
C151 C150 1.392 . S
N152 C150 1.420 . S
N152 C153 1.244 . S
C153 N152 1.244 . S
H154 C157 0.929 . S
H155 C160 0.929 . S
H156 C162 0.930 . S
C157 H154 0.929 . S
C157 C158 1.398 . S
C157 C159 1.396 . S
C158 C157 1.398 . S
C158 C162 1.407 . S
C159 C157 1.396 . S
C159 C160 1.394 . S
C160 H155 0.929 . S
C160 C159 1.394 . S
C160 C161 1.382 . S
C161 C160 1.382 . S
C161 C162 1.392 . S
C161 N163 1.420 . S
C162 H156 0.930 . S
C162 C158 1.407 . S
C162 C161 1.392 . S
N163 C161 1.420 . S
N163 C164 1.244 . S
C164 N163 1.244 . S
H165 C168 0.929 1_554 S
H166 C171 0.929 . S
H167 C173 0.930 . S
C168 H165 0.929 1_556 S
C168 C169 1.398 . S
C168 C170 1.396 . S
C169 C168 1.398 . S
C169 C173 1.407 . S
C170 C168 1.396 . S
C170 C171 1.394 . S
C171 H166 0.929 . S
C171 C170 1.394 . S
C171 C172 1.382 . S
C172 C171 1.382 . S
C172 C173 1.392 . S
C172 N174 1.420 . S
C173 H167 0.930 . S
C173 C169 1.407 . S
C173 C172 1.392 . S
N174 C172 1.420 . S
N174 C175 1.244 . S
C175 N174 1.244 . S
O176 Cd177 2.223 . S
O176 C184 1.315 . S
Cd177 O176 2.223 . S
Cd177 O180 2.297 . S
Cd177 O181 2.439 . S
Cd177 O187 2.240 . S
Cd178 O179 2.240 . S
Cd178 O186 2.223 . S
Cd178 O188 2.297 1_565 S
Cd178 O189 2.439 . S
O179 Cd178 2.240 . S
O179 C184 1.279 . S
O180 Cd177 2.297 . S
O180 C182 1.247 . S
O181 Cd177 2.439 . S
O181 C182 1.208 . S
C182 O180 1.247 . S
C182 O181 1.208 . S
C183 O188 1.247 . S
C183 O189 1.208 1_545 S
C184 O176 1.315 . S
C184 O179 1.279 . S
C185 O186 1.315 . S
C185 O187 1.279 . S
O186 Cd178 2.223 . S
O186 C185 1.315 . S
O187 Cd177 2.240 . S
O187 C185 1.279 . S
O188 Cd178 2.297 1_545 S
O188 C183 1.247 . S
O189 Cd178 2.439 . S
O189 C183 1.208 1_565 S
O190 Cd191 2.223 . S
O190 C198 1.315 . S
Cd191 O190 2.223 . S
Cd191 O194 2.297 . S
Cd191 O195 2.439 . S
Cd191 O201 2.240 . S
Cd192 O193 2.240 . S
Cd192 O200 2.223 . S
Cd192 O202 2.297 . S
Cd192 O203 2.439 . S
O193 Cd192 2.240 . S
O193 C198 1.279 . S
O194 Cd191 2.297 . S
O194 C196 1.247 . S
O195 Cd191 2.439 . S
O195 C196 1.208 . S
C196 O194 1.247 . S
C196 O195 1.208 . S
C197 O202 1.247 . S
C197 O203 1.208 . S
C198 O190 1.315 . S
C198 O193 1.279 . S
C199 O200 1.315 . S
C199 O201 1.279 . S
O200 Cd192 2.223 . S
O200 C199 1.315 . S
O201 Cd191 2.240 . S
O201 C199 1.279 . S
O202 Cd192 2.297 . S
O202 C197 1.247 . S
O203 Cd192 2.439 . S
O203 C197 1.208 . S
O204 Cd205 2.223 1_556 S
O204 C212 1.315 . S
Cd205 O204 2.223 1_554 S
Cd205 O208 2.297 . S
Cd205 O209 2.439 . S
Cd205 O215 2.240 1_554 S
Cd206 O207 2.240 . S
Cd206 O214 2.223 . S
Cd206 O216 2.297 . S
Cd206 O217 2.439 1_556 S
O207 Cd206 2.240 . S
O207 C212 1.279 . S
O208 Cd205 2.297 . S
O208 C210 1.247 . S
O209 Cd205 2.439 . S
O209 C210 1.208 . S
C210 O208 1.247 . S
C210 O209 1.208 . S
C211 O216 1.247 1_554 S
C211 O217 1.208 . S
C212 O204 1.315 . S
C212 O207 1.279 . S
C213 O214 1.315 . S
C213 O215 1.279 . S
O214 Cd206 2.223 . S
O214 C213 1.315 . S
O215 Cd205 2.240 1_556 S
O215 C213 1.279 . S
O216 Cd206 2.297 . S
O216 C211 1.247 1_556 S
O217 Cd206 2.439 1_554 S
O217 C211 1.208 . S
O218 Cd219 2.223 . S
O218 C226 1.315 . S
Cd219 O218 2.223 . S
Cd219 O222 2.297 1_655 S
Cd219 O223 2.439 . S
Cd219 O229 2.240 . S
Cd220 O221 2.240 . S
Cd220 O228 2.223 . S
Cd220 O230 2.297 . S
Cd220 O231 2.439 . S
O221 Cd220 2.240 . S
O221 C226 1.279 . S
O222 Cd219 2.297 1_455 S
O222 C224 1.247 . S
O223 Cd219 2.439 . S
O223 C224 1.208 1_655 S
C224 O222 1.247 . S
C224 O223 1.208 1_455 S
C225 O230 1.247 . S
C225 O231 1.208 . S
C226 O218 1.315 . S
C226 O221 1.279 . S
C227 O228 1.315 . S
C227 O229 1.279 . S
O228 Cd220 2.223 . S
O228 C227 1.315 . S
O229 Cd219 2.240 . S
O229 C227 1.279 . S
O230 Cd220 2.297 . S
O230 C225 1.247 . S
O231 Cd220 2.439 . S
O231 C225 1.208 . S
O232 Cd233 2.223 . S
O232 C240 1.315 . S
Cd233 O232 2.223 . S
Cd233 O236 2.297 . S
Cd233 O237 2.439 . S
Cd233 O243 2.240 . S
Cd234 O235 2.240 . S
Cd234 O242 2.223 . S
Cd234 O244 2.297 . S
Cd234 O245 2.439 . S
O235 Cd234 2.240 . S
O235 C240 1.279 . S
O236 Cd233 2.297 . S
O236 C238 1.247 . S
O237 Cd233 2.439 . S
O237 C238 1.208 . S
C238 O236 1.247 . S
C238 O237 1.208 . S
C239 O244 1.247 . S
C239 O245 1.208 . S
C240 O232 1.315 . S
C240 O235 1.279 . S
C241 O242 1.315 . S
C241 O243 1.279 . S
O242 Cd234 2.223 . S
O242 C241 1.315 . S
O243 Cd233 2.240 . S
O243 C241 1.279 . S
O244 Cd234 2.297 . S
O244 C239 1.247 . S
O245 Cd234 2.439 . S
O245 C239 1.208 . S
O246 Cd247 2.223 . S
O246 C254 1.315 . S
Cd247 O246 2.223 . S
Cd247 O250 2.297 . S
Cd247 O251 2.439 . S
Cd247 O257 2.240 . S
Cd248 O249 2.240 . S
Cd248 O256 2.223 . S
Cd248 O258 2.297 . S
Cd248 O259 2.439 . S
O249 Cd248 2.240 . S
O249 C254 1.279 . S
O250 Cd247 2.297 . S
O250 C252 1.247 . S
O251 Cd247 2.439 . S
O251 C252 1.208 . S
C252 O250 1.247 . S
C252 O251 1.208 . S
C253 O258 1.247 . S
C253 O259 1.208 . S
C254 O246 1.315 . S
C254 O249 1.279 . S
C255 O256 1.315 . S
C255 O257 1.279 . S
O256 Cd248 2.223 . S
O256 C255 1.315 . S
O257 Cd247 2.240 . S
O257 C255 1.279 . S
O258 Cd248 2.297 . S
O258 C253 1.247 . S
O259 Cd248 2.439 . S
O259 C253 1.208 . S
O260 Cd261 2.223 . S
O260 C268 1.315 . S
Cd261 O260 2.223 . S
Cd261 O264 2.297 . S
Cd261 O265 2.439 . S
Cd261 O271 2.240 . S
Cd262 O263 2.240 . S
Cd262 O270 2.223 . S
Cd262 O272 2.297 . S
Cd262 O273 2.439 . S
O263 Cd262 2.240 . S
O263 C268 1.279 . S
O264 Cd261 2.297 . S
O264 C266 1.247 . S
O265 Cd261 2.439 . S
O265 C266 1.208 . S
C266 O264 1.247 . S
C266 O265 1.208 . S
C267 O272 1.247 . S
C267 O273 1.208 . S
C268 O260 1.315 . S
C268 O263 1.279 . S
C269 O270 1.315 . S
C269 O271 1.279 . S
O270 Cd262 2.223 . S
O270 C269 1.315 . S
O271 Cd261 2.240 . S
O271 C269 1.279 . S
O272 Cd262 2.297 . S
O272 C267 1.247 . S
O273 Cd262 2.439 . S
O273 C267 1.208 . S
O274 Cd275 2.223 1_545 S
O274 C282 1.315 . S
Cd275 O274 2.223 1_565 S
Cd275 O278 2.297 . S
Cd275 O279 2.439 . S
Cd275 O285 2.240 1_565 S
Cd276 O277 2.240 . S
Cd276 O284 2.223 . S
Cd276 O286 2.297 . S
Cd276 O287 2.439 1_545 S
O277 Cd276 2.240 . S
O277 C282 1.279 . S
O278 Cd275 2.297 . S
O278 C280 1.247 . S
O279 Cd275 2.439 . S
O279 C280 1.208 . S
C280 O278 1.247 . S
C280 O279 1.208 . S
C281 O286 1.247 1_565 S
C281 O287 1.208 . S
C282 O274 1.315 . S
C282 O277 1.279 . S
C283 O284 1.315 . S
C283 O285 1.279 . S
O284 Cd276 2.223 . S
O284 C283 1.315 . S
O285 Cd275 2.240 1_545 S
O285 C283 1.279 . S
O286 Cd276 2.297 . S
O286 C281 1.247 1_545 S
O287 Cd276 2.439 1_565 S
O287 C281 1.208 . S
O288 Cd289 2.223 . S
O288 C296 1.315 . S
Cd289 O288 2.223 . S
Cd289 O292 2.297 1_655 S
Cd289 O293 2.439 1_655 S
Cd289 O299 2.240 . S
Cd290 O291 2.240 . S
Cd290 O298 2.223 1_455 S
Cd290 O300 2.297 . S
Cd290 O301 2.439 . S
O291 Cd290 2.240 . S
O291 C296 1.279 1_455 S
O292 Cd289 2.297 1_455 S
O292 C294 1.247 . S
O293 Cd289 2.439 1_455 S
O293 C294 1.208 . S
C294 O292 1.247 . S
C294 O293 1.208 . S
C295 O300 1.247 . S
C295 O301 1.208 . S
C296 O288 1.315 . S
C296 O291 1.279 1_655 S
C297 O298 1.315 . S
C297 O299 1.279 . S
O298 Cd290 2.223 1_655 S
O298 C297 1.315 . S
O299 Cd289 2.240 . S
O299 C297 1.279 . S
O300 Cd290 2.297 . S
O300 C295 1.247 . S
O301 Cd290 2.439 . S
O301 C295 1.208 . S
O302 Cd303 2.223 . S
O302 C310 1.315 . S
Cd303 O302 2.223 . S
Cd303 O306 2.297 . S
Cd303 O307 2.439 . S
Cd303 O313 2.240 . S
Cd304 O305 2.240 . S
Cd304 O312 2.223 . S
Cd304 O314 2.297 . S
Cd304 O315 2.439 . S
O305 Cd304 2.240 . S
O305 C310 1.279 . S
O306 Cd303 2.297 . S
O306 C308 1.247 . S
O307 Cd303 2.439 . S
O307 C308 1.208 . S
C308 O306 1.247 . S
C308 O307 1.208 . S
C309 O314 1.247 . S
C309 O315 1.208 . S
C310 O302 1.315 . S
C310 O305 1.279 . S
C311 O312 1.315 . S
C311 O313 1.279 . S
O312 Cd304 2.223 . S
O312 C311 1.315 . S
O313 Cd303 2.240 . S
O313 C311 1.279 . S
O314 Cd304 2.297 . S
O314 C309 1.247 . S
O315 Cd304 2.439 . S
O315 C309 1.208 . S
O316 Cd317 2.223 1_655 S
O316 C324 1.315 . S
Cd317 O316 2.223 1_455 S
Cd317 O320 2.297 . S
Cd317 O321 2.439 . S
Cd317 O327 2.240 . S
Cd318 O319 2.240 . S
Cd318 O326 2.223 . S
Cd318 O328 2.297 1_655 S
Cd318 O329 2.439 1_655 S
O319 Cd318 2.240 . S
O319 C324 1.279 . S
O320 Cd317 2.297 . S
O320 C322 1.247 . S
O321 Cd317 2.439 . S
O321 C322 1.208 . S
C322 O320 1.247 . S
C322 O321 1.208 . S
C323 O328 1.247 . S
C323 O329 1.208 . S
C324 O316 1.315 . S
C324 O319 1.279 . S
C325 O326 1.315 . S
C325 O327 1.279 1_655 S
O326 Cd318 2.223 . S
O326 C325 1.315 . S
O327 Cd317 2.240 . S
O327 C325 1.279 1_455 S
O328 Cd318 2.297 1_455 S
O328 C323 1.247 . S
O329 Cd318 2.439 1_455 S
O329 C323 1.208 . S
O330 Cd331 2.223 . S
O330 C338 1.315 . S
Cd331 O330 2.223 . S
Cd331 O334 2.297 . S
Cd331 O335 2.439 . S
Cd331 O341 2.240 . S
Cd332 O333 2.240 . S
Cd332 O340 2.223 . S
Cd332 O342 2.297 . S
Cd332 O343 2.439 . S
O333 Cd332 2.240 . S
O333 C338 1.279 . S
O334 Cd331 2.297 . S
O334 C336 1.247 . S
O335 Cd331 2.439 . S
O335 C336 1.208 . S
C336 O334 1.247 . S
C336 O335 1.208 . S
C337 O342 1.247 . S
C337 O343 1.208 . S
C338 O330 1.315 . S
C338 O333 1.279 . S
C339 O340 1.315 . S
C339 O341 1.279 . S
O340 Cd332 2.223 . S
O340 C339 1.315 . S
O341 Cd331 2.240 . S
O341 C339 1.279 . S
O342 Cd332 2.297 . S
O342 C337 1.247 . S
O343 Cd332 2.439 . S
O343 C337 1.208 . S
C344 C345 1.369 . S
C344 C346 1.419 . S
C344 H348 0.930 . S
C345 C344 1.369 . S
C345 C354 1.429 . S
C346 C344 1.419 . S
C346 C347 1.363 . S
C346 H349 0.929 . S
C347 C346 1.363 . S
C347 C353 1.428 . S
H348 C344 0.930 . S
H349 C346 0.929 . S
S350 N351 1.613 . S
S350 N352 1.610 . S
N351 S350 1.613 . S
N351 C354 1.350 . S
N352 S350 1.610 . S
N352 C353 1.351 . S
C353 C347 1.428 . S
C353 N352 1.351 . S
C353 C354 1.434 . S
C354 C345 1.429 . S
C354 N351 1.350 . S
C354 C353 1.434 . S
C355 C356 1.367 1_455 S
C355 C357 1.419 . S
C355 H359 0.930 1_455 S
C356 C355 1.367 1_655 S
C356 C365 1.424 1_655 S
C357 C355 1.419 . S
C357 C358 1.363 . S
C357 H360 0.929 . S
C358 C357 1.363 . S
C358 C364 1.428 . S
H359 C355 0.930 1_655 S
H360 C357 0.929 . S
S361 N362 1.613 . S
S361 N363 1.610 . S
N362 S361 1.613 . S
N362 C365 1.350 . S
N363 S361 1.610 . S
N363 C364 1.351 . S
C364 C358 1.428 . S
C364 N363 1.351 . S
C364 C365 1.434 . S
C365 C356 1.424 1_455 S
C365 N362 1.350 . S
C365 C364 1.434 . S
C366 C367 1.369 . S
C366 C368 1.419 . S
C366 H370 0.930 . S
C367 C366 1.369 . S
C367 C376 1.429 . S
C368 C366 1.419 . S
C368 C369 1.363 . S
C368 H371 0.929 . S
C369 C368 1.363 . S
C369 C375 1.428 . S
H370 C366 0.930 . S
H371 C368 0.929 . S
S372 N373 1.613 . S
S372 N374 1.610 . S
N373 S372 1.613 . S
N373 C376 1.350 . S
N374 S372 1.610 . S
N374 C375 1.351 . S
C375 C369 1.428 . S
C375 N374 1.351 . S
C375 C376 1.434 . S
C376 C367 1.429 . S
C376 N373 1.350 . S
C376 C375 1.434 . S
C377 C378 1.369 1_545 S
C377 C379 1.419 . S
C377 H381 0.930 . S
C378 C377 1.369 1_565 S
C378 C387 1.429 . S
C379 C377 1.419 . S
C379 C380 1.363 . S
C379 H382 0.929 . S
C380 C379 1.363 . S
C380 C386 1.402 1_545 S
H381 C377 0.930 . S
H382 C379 0.929 . S
S383 N384 1.613 . S
S383 N385 1.610 1_455 S
N384 S383 1.613 . S
N384 C387 1.350 . S
N385 S383 1.610 1_655 S
N385 C386 1.357 1_655 S
C386 C380 1.402 1_565 S
C386 N385 1.357 1_455 S
C386 C387 1.458 . S
C387 C378 1.429 . S
C387 N384 1.350 . S
C387 C386 1.458 . S
C388 C389 1.369 . S
C388 C390 1.419 . S
C388 H392 0.930 . S
C389 C388 1.369 . S
C389 C398 1.429 . S
C390 C388 1.419 . S
C390 C391 1.363 . S
C390 H393 0.929 . S
C391 C390 1.363 . S
C391 C397 1.428 . S
H392 C388 0.930 . S
H393 C390 0.929 . S
S394 N395 1.613 . S
S394 N396 1.610 . S
N395 S394 1.613 . S
N395 C398 1.350 . S
N396 S394 1.610 . S
N396 C397 1.351 . S
C397 C391 1.428 . S
C397 N396 1.351 . S
C397 C398 1.434 . S
C398 C389 1.429 . S
C398 N395 1.350 . S
C398 C397 1.434 . S
C399 C400 1.369 . S
C399 C401 1.419 . S
C399 H403 0.930 . S
C400 C399 1.369 . S
C400 C409 1.429 . S
C401 C399 1.419 . S
C401 C402 1.363 . S
C401 H404 0.929 . S
C402 C401 1.363 . S
C402 C408 1.428 . S
H403 C399 0.930 . S
H404 C401 0.929 . S
S405 N406 1.613 . S
S405 N407 1.610 . S
N406 S405 1.613 . S
N406 C409 1.350 . S
N407 S405 1.610 . S
N407 C408 1.351 . S
C408 C402 1.428 . S
C408 N407 1.351 . S
C408 C409 1.434 . S
C409 C400 1.429 . S
C409 N406 1.350 . S
C409 C408 1.434 . S
C410 C411 1.369 . S
C410 C412 1.419 . S
C410 H414 0.930 . S
C411 C410 1.369 . S
C411 C420 1.429 . S
C412 C410 1.419 . S
C412 C413 1.363 . S
C412 H415 0.929 . S
C413 C412 1.363 . S
C413 C419 1.428 . S
H414 C410 0.930 . S
H415 C412 0.929 . S
S416 N417 1.613 . S
S416 N418 1.610 . S
N417 S416 1.613 . S
N417 C420 1.350 . S
N418 S416 1.610 . S
N418 C419 1.351 . S
C419 C413 1.428 . S
C419 N418 1.351 . S
C419 C420 1.434 . S
C420 C411 1.429 . S
C420 N417 1.350 . S
C420 C419 1.434 . S
C421 C422 1.369 . S
C421 C423 1.419 . S
C421 H425 0.930 . S
C422 C421 1.369 . S
C422 C431 1.429 . S
C423 C421 1.419 . S
C423 C424 1.363 . S
C423 H426 0.929 . S
C424 C423 1.363 . S
C424 C430 1.428 . S
H425 C421 0.930 . S
H426 C423 0.929 . S
S427 N428 1.613 1_545 S
S427 N429 1.610 . S
N428 S427 1.613 1_565 S
N428 C431 1.350 . S
N429 S427 1.610 . S
N429 C430 1.351 1_545 S
C430 C424 1.428 . S
C430 N429 1.351 1_565 S
C430 C431 1.434 . S
C431 C422 1.429 . S
C431 N428 1.350 . S
C431 C430 1.434 . S
C432 C433 1.369 . S
C432 C434 1.419 . S
C432 H436 0.930 . S
C433 C432 1.369 . S
C433 C442 1.429 . S
C434 C432 1.419 . S
C434 C435 1.363 . S
C434 H437 0.929 . S
C435 C434 1.363 . S
C435 C441 1.428 . S
H436 C432 0.930 . S
H437 C434 0.929 . S
S438 N439 1.613 . S
S438 N440 1.610 . S
N439 S438 1.613 . S
N439 C442 1.350 . S
N440 S438 1.610 . S
N440 C441 1.351 . S
C441 C435 1.428 . S
C441 N440 1.351 . S
C441 C442 1.434 . S
C442 C433 1.429 . S
C442 N439 1.350 . S
C442 C441 1.434 . S
C443 C444 1.369 . S
C443 C445 1.419 . S
C443 H447 0.930 . S
C444 C443 1.369 . S
C444 C453 1.429 . S
C445 C443 1.419 . S
C445 C446 1.363 . S
C445 H448 0.929 . S
C446 C445 1.363 . S
C446 C452 1.428 . S
H447 C443 0.930 . S
H448 C445 0.929 . S
S449 N450 1.613 . S
S449 N451 1.610 . S
N450 S449 1.613 . S
N450 C453 1.350 . S
N451 S449 1.610 . S
N451 C452 1.351 . S
C452 C446 1.428 . S
C452 N451 1.351 . S
C452 C453 1.434 . S
C453 C444 1.429 . S
C453 N450 1.350 . S
C453 C452 1.434 . S
C454 C455 1.369 . S
C454 C456 1.419 . S
C454 H458 0.930 . S
C455 C454 1.369 . S
C455 C464 1.429 . S
C456 C454 1.419 . S
C456 C457 1.363 . S
C456 H459 0.929 . S
C457 C456 1.363 . S
C457 C463 1.428 . S
H458 C454 0.930 . S
H459 C456 0.929 . S
S460 N461 1.613 . S
S460 N462 1.610 . S
N461 S460 1.613 . S
N461 C464 1.350 . S
N462 S460 1.610 . S
N462 C463 1.351 . S
C463 C457 1.428 . S
C463 N462 1.351 . S
C463 C464 1.434 . S
C464 C455 1.429 . S
C464 N461 1.350 . S
C464 C463 1.434 . S
C465 C466 1.369 . S
C465 C467 1.419 . S
C465 H469 0.930 . S
C466 C465 1.369 . S
C466 C475 1.429 . S
C467 C465 1.419 . S
C467 C468 1.363 . S
C467 H470 0.929 . S
C468 C467 1.363 . S
C468 C474 1.428 . S
H469 C465 0.930 . S
H470 C467 0.929 . S
S471 N472 1.613 . S
S471 N473 1.610 . S
N472 S471 1.613 . S
N472 C475 1.350 . S
N473 S471 1.610 . S
N473 C474 1.351 . S
C474 C468 1.428 . S
C474 N473 1.351 . S
C474 C475 1.434 . S
C475 C466 1.429 . S
C475 N472 1.350 . S
C475 C474 1.434 . S
C476 C477 1.369 . S
C476 C478 1.419 . S
C476 H480 0.930 . S
C477 C476 1.369 . S
C477 C486 1.429 . S
C478 C476 1.419 . S
C478 C479 1.363 . S
C478 H481 0.929 . S
C479 C478 1.363 . S
C479 C485 1.428 . S
H480 C476 0.930 . S
H481 C478 0.929 . S
S482 N483 1.613 . S
S482 N484 1.610 . S
N483 S482 1.613 . S
N483 C486 1.350 . S
N484 S482 1.610 . S
N484 C485 1.351 . S
C485 C479 1.428 . S
C485 N484 1.351 . S
C485 C486 1.434 . S
C486 C477 1.429 . S
C486 N483 1.350 . S
C486 C485 1.434 . S
C487 C488 1.369 . S
C487 C489 1.419 . S
C487 H491 0.930 . S
C488 C487 1.369 . S
C488 C497 1.429 . S
C489 C487 1.419 . S
C489 C490 1.363 . S
C489 H492 0.929 . S
C490 C489 1.363 . S
C490 C496 1.428 . S
H491 C487 0.930 . S
H492 C489 0.929 . S
S493 N494 1.613 . S
S493 N495 1.610 . S
N494 S493 1.613 . S
N494 C497 1.350 . S
N495 S493 1.610 . S
N495 C496 1.351 . S
C496 C490 1.428 . S
C496 N495 1.351 . S
C496 C497 1.434 . S
C497 C488 1.429 . S
C497 N494 1.350 . S
C497 C496 1.434 . S
C498 C499 1.369 . S
C498 C500 1.419 . S
C498 H502 0.930 . S
C499 C498 1.369 . S
C499 C508 1.429 . S
C500 C498 1.419 . S
C500 C501 1.363 . S
C500 H503 0.929 . S
C501 C500 1.363 . S
C501 C507 1.428 . S
H502 C498 0.930 . S
H503 C500 0.929 . S
S504 N505 1.613 . S
S504 N506 1.610 . S
N505 S504 1.613 . S
N505 C508 1.350 . S
N506 S504 1.610 . S
N506 C507 1.351 . S
C507 C501 1.428 . S
C507 N506 1.351 . S
C507 C508 1.434 . S
C508 C499 1.429 . S
C508 N505 1.350 . S
C508 C507 1.434 . S
C509 C510 1.369 . S
C509 C511 1.419 . S
C509 H513 0.930 . S
C510 C509 1.369 . S
C510 C519 1.429 . S
C511 C509 1.419 . S
C511 C512 1.363 . S
C511 H514 0.929 . S
C512 C511 1.363 . S
C512 C518 1.428 . S
H513 C509 0.930 . S
H514 C511 0.929 . S
S515 N516 1.613 . S
S515 N517 1.610 . S
N516 S515 1.613 . S
N516 C519 1.350 . S
N517 S515 1.610 . S
N517 C518 1.351 . S
C518 C512 1.428 . S
C518 N517 1.351 . S
C518 C519 1.434 . S
C519 C510 1.429 . S
C519 N516 1.350 . S
C519 C518 1.434 . S
C520 C521 1.369 . S
C520 C522 1.419 . S
C520 H524 0.930 . S
C521 C520 1.369 . S
C521 C530 1.429 . S
C522 C520 1.419 . S
C522 C523 1.363 . S
C522 H525 0.929 1_565 S
C523 C522 1.363 . S
C523 C529 1.428 . S
H524 C520 0.930 . S
H525 C522 0.929 1_545 S
S526 N527 1.613 . S
S526 N528 1.610 . S
N527 S526 1.613 . S
N527 C530 1.350 . S
N528 S526 1.610 . S
N528 C529 1.351 . S
C529 C523 1.428 . S
C529 N528 1.351 . S
C529 C530 1.434 . S
C530 C521 1.429 . S
C530 N527 1.350 . S
C530 C529 1.434 . S
C531 C532 1.369 . S
C531 C533 1.419 . S
C531 H535 0.930 . S
C532 C531 1.369 . S
C532 C541 1.429 . S
C533 C531 1.419 . S
C533 C534 1.363 . S
C533 H536 0.929 . S
C534 C533 1.363 . S
C534 C540 1.428 . S
H535 C531 0.930 . S
H536 C533 0.929 . S
S537 N538 1.613 . S
S537 N539 1.610 . S
N538 S537 1.613 . S
N538 C541 1.350 . S
N539 S537 1.610 . S
N539 C540 1.351 . S
C540 C534 1.428 . S
C540 N539 1.351 . S
C540 C541 1.434 . S
C541 C532 1.429 . S
C541 N538 1.350 . S
C541 C540 1.434 . S
C542 C543 1.369 . S
C542 C544 1.419 . S
C542 H546 0.930 . S
C543 C542 1.369 . S
C543 C552 1.429 1_556 S
C544 C542 1.419 . S
C544 C545 1.363 1_556 S
C544 H547 0.929 1_545 S
C545 C544 1.363 1_554 S
C545 C551 1.428 . S
H546 C542 0.930 . S
H547 C544 0.929 1_565 S
S548 N549 1.613 . S
S548 N550 1.610 . S
N549 S548 1.613 . S
N549 C552 1.350 . S
N550 S548 1.610 . S
N550 C551 1.351 . S
C551 C545 1.428 . S
C551 N550 1.351 . S
C551 C552 1.434 . S
C552 C543 1.429 1_554 S
C552 N549 1.350 . S
C552 C551 1.434 . S
C553 C554 1.369 . S
C553 C555 1.419 . S
C553 H557 0.930 . S
C554 C553 1.369 . S
C554 C563 1.429 . S
C555 C553 1.419 . S
C555 C556 1.363 . S
C555 H558 0.929 . S
C556 C555 1.363 . S
C556 C562 1.428 . S
H557 C553 0.930 . S
H558 C555 0.929 . S
S559 N560 1.613 . S
S559 N561 1.610 . S
N560 S559 1.613 . S
N560 C563 1.350 . S
N561 S559 1.610 . S
N561 C562 1.351 . S
C562 C556 1.428 . S
C562 N561 1.351 . S
C562 C563 1.434 . S
C563 C554 1.429 . S
C563 N560 1.350 . S
C563 C562 1.434 . S
C564 C565 1.369 . S
C564 C566 1.419 . S
C564 H568 0.930 . S
C565 C564 1.369 . S
C565 C574 1.429 . S
C566 C564 1.419 . S
C566 C567 1.363 . S
C566 H569 0.929 . S
C567 C566 1.363 . S
C567 C573 1.428 . S
H568 C564 0.930 . S
H569 C566 0.929 . S
S570 N571 1.613 . S
S570 N572 1.610 . S
N571 S570 1.613 . S
N571 C574 1.350 . S
N572 S570 1.610 . S
N572 C573 1.351 . S
C573 C567 1.428 . S
C573 N572 1.351 . S
C573 C574 1.434 . S
C574 C565 1.429 . S
C574 N571 1.350 . S
C574 C573 1.434 . S
C575 C576 1.369 . S
C575 C577 1.419 . S
C575 H579 0.930 . S
C576 C575 1.369 . S
C576 C585 1.429 . S
C577 C575 1.419 . S
C577 C578 1.363 . S
C577 H580 0.929 . S
C578 C577 1.363 . S
C578 C584 1.428 . S
H579 C575 0.930 . S
H580 C577 0.929 . S
S581 N582 1.613 . S
S581 N583 1.610 . S
N582 S581 1.613 . S
N582 C585 1.350 . S
N583 S581 1.610 . S
N583 C584 1.351 . S
C584 C578 1.428 . S
C584 N583 1.351 . S
C584 C585 1.434 . S
C585 C576 1.429 . S
C585 N582 1.350 . S
C585 C584 1.434 . S
C586 C587 1.369 . S
C586 C588 1.419 . S
C586 H590 0.930 . S
C587 C586 1.369 . S
C587 C596 1.429 . S
C588 C586 1.419 . S
C588 C589 1.363 . S
C588 H591 0.929 . S
C589 C588 1.363 . S
C589 C595 1.428 . S
H590 C586 0.930 . S
H591 C588 0.929 . S
S592 N593 1.613 1_545 S
S592 N594 1.610 . S
N593 S592 1.613 1_565 S
N593 C596 1.350 1_565 S
N594 S592 1.610 . S
N594 C595 1.351 . S
C595 C589 1.428 . S
C595 N594 1.351 . S
C595 C596 1.434 . S
C596 C587 1.429 . S
C596 N593 1.350 1_545 S
C596 C595 1.434 . S
C597 C598 1.369 . S
C597 C599 1.419 . S
C597 H601 0.930 . S
C598 C597 1.369 . S
C598 C607 1.429 . S
C599 C597 1.419 . S
C599 C600 1.363 . S
C599 H602 0.929 . S
C600 C599 1.363 . S
C600 C606 1.428 . S
H601 C597 0.930 . S
H602 C599 0.929 . S
S603 N604 1.613 . S
S603 N605 1.610 . S
N604 S603 1.613 . S
N604 C607 1.350 . S
N605 S603 1.610 . S
N605 C606 1.351 . S
C606 C600 1.428 . S
C606 N605 1.351 . S
C606 C607 1.434 . S
C607 C598 1.429 . S
C607 N604 1.350 . S
C607 C606 1.434 . S
C608 C609 1.369 . S
C608 C610 1.419 . S
C608 H612 0.930 . S
C609 C608 1.369 . S
C609 C618 1.429 . S
C610 C608 1.419 . S
C610 C611 1.363 . S
C610 H613 0.929 . S
C611 C610 1.363 . S
C611 C617 1.428 . S
H612 C608 0.930 . S
H613 C610 0.929 . S
S614 N615 1.613 . S
S614 N616 1.610 . S
N615 S614 1.613 . S
N615 C618 1.350 . S
N616 S614 1.610 . S
N616 C617 1.351 . S
C617 C611 1.428 . S
C617 N616 1.351 . S
C617 C618 1.434 . S
C618 C609 1.429 . S
C618 N615 1.350 . S
C618 C617 1.434 . S
C619 C620 1.369 . S
C619 C621 1.419 . S
C619 H623 0.930 . S
C620 C619 1.369 . S
C620 C629 1.429 . S
C621 C619 1.419 . S
C621 C622 1.363 . S
C621 H624 0.929 . S
C622 C621 1.363 . S
C622 C628 1.428 . S
H623 C619 0.930 . S
H624 C621 0.929 . S
S625 N626 1.613 . S
S625 N627 1.610 . S
N626 S625 1.613 . S
N626 C629 1.350 . S
N627 S625 1.610 . S
N627 C628 1.351 . S
C628 C622 1.428 . S
C628 N627 1.351 . S
C628 C629 1.434 . S
C629 C620 1.429 . S
C629 N626 1.350 . S
C629 C628 1.434 . S
C630 C631 1.369 . S
C630 C632 1.419 . S
C630 H634 0.930 . S
C631 C630 1.369 . S
C631 C640 1.429 . S
C632 C630 1.419 . S
C632 C633 1.363 . S
C632 H635 0.929 . S
C633 C632 1.363 . S
C633 C639 1.428 . S
H634 C630 0.930 . S
H635 C632 0.929 . S
S636 N637 1.613 . S
S636 N638 1.610 . S
N637 S636 1.613 . S
N637 C640 1.350 . S
N638 S636 1.610 . S
N638 C639 1.351 . S
C639 C633 1.428 . S
C639 N638 1.351 . S
C639 C640 1.434 . S
C640 C631 1.429 . S
C640 N637 1.350 . S
C640 C639 1.434 . S
C641 C642 1.369 . S
C641 C643 1.419 . S
C641 H645 0.930 . S
C642 C641 1.369 . S
C642 C651 1.429 . S
C643 C641 1.419 . S
C643 C644 1.363 . S
C643 H646 0.929 . S
C644 C643 1.363 . S
C644 C650 1.428 . S
H645 C641 0.930 . S
H646 C643 0.929 . S
S647 N648 1.613 . S
S647 N649 1.610 . S
N648 S647 1.613 . S
N648 C651 1.350 . S
N649 S647 1.610 . S
N649 C650 1.351 . S
C650 C644 1.428 . S
C650 N649 1.351 . S
C650 C651 1.434 . S
C651 C642 1.429 . S
C651 N648 1.350 . S
C651 C650 1.434 . S
C652 C653 1.369 . S
C652 C654 1.419 . S
C652 H656 0.930 . S
C653 C652 1.369 . S
C653 C662 1.429 . S
C654 C652 1.419 . S
C654 C655 1.363 . S
C654 H657 0.929 . S
C655 C654 1.363 . S
C655 C661 1.428 . S
H656 C652 0.930 . S
H657 C654 0.929 . S
S658 N659 1.613 . S
S658 N660 1.610 . S
N659 S658 1.613 . S
N659 C662 1.350 . S
N660 S658 1.610 . S
N660 C661 1.351 . S
C661 C655 1.428 . S
C661 N660 1.351 . S
C661 C662 1.434 . S
C662 C653 1.429 . S
C662 N659 1.350 . S
C662 C661 1.434 . S
C663 C664 1.369 . S
C663 C665 1.419 . S
C663 H667 0.930 . S
C664 C663 1.369 . S
C664 C673 1.429 . S
C665 C663 1.419 . S
C665 C666 1.363 . S
C665 H668 0.929 . S
C666 C665 1.363 . S
C666 C672 1.428 . S
H667 C663 0.930 . S
H668 C665 0.929 . S
S669 N670 1.613 . S
S669 N671 1.610 . S
N670 S669 1.613 . S
N670 C673 1.350 . S
N671 S669 1.610 . S
N671 C672 1.351 . S
C672 C666 1.428 . S
C672 N671 1.351 . S
C672 C673 1.434 . S
C673 C664 1.429 . S
C673 N670 1.350 . S
C673 C672 1.434 . S
C674 C675 1.369 . S
C674 C676 1.419 . S
C674 H678 0.930 . S
C675 C674 1.369 . S
C675 C684 1.429 . S
C676 C674 1.419 . S
C676 C677 1.363 . S
C676 H679 0.929 . S
C677 C676 1.363 . S
C677 C683 1.428 . S
H678 C674 0.930 . S
H679 C676 0.929 . S
S680 N681 1.613 . S
S680 N682 1.610 . S
N681 S680 1.613 . S
N681 C684 1.350 . S
N682 S680 1.610 . S
N682 C683 1.351 . S
C683 C677 1.428 . S
C683 N682 1.351 . S
C683 C684 1.434 . S
C684 C675 1.429 . S
C684 N681 1.350 . S
C684 C683 1.434 . S
C685 C686 1.369 . S
C685 C687 1.419 . S
C685 H689 0.930 . S
C686 C685 1.369 . S
C686 C695 1.429 . S
C687 C685 1.419 . S
C687 C688 1.363 1_655 S
C687 H690 0.929 . S
C688 C687 1.363 1_455 S
C688 C694 1.428 . S
H689 C685 0.930 . S
H690 C687 0.929 . S
S691 N692 1.613 1_455 S
S691 N693 1.610 . S
N692 S691 1.613 1_655 S
N692 C695 1.350 . S
N693 S691 1.610 . S
N693 C694 1.351 . S
C694 C688 1.428 . S
C694 N693 1.351 . S
C694 C695 1.434 1_455 S
C695 C686 1.429 . S
C695 N692 1.350 . S
C695 C694 1.434 1_655 S
C696 C697 1.369 . S
C696 C698 1.419 . S
C696 H700 0.930 . S
C697 C696 1.369 . S
C697 C706 1.429 . S
C698 C696 1.419 . S
C698 C699 1.363 . S
C698 H701 0.929 . S
C699 C698 1.363 . S
C699 C705 1.428 . S
H700 C696 0.930 . S
H701 C698 0.929 . S
S702 N703 1.613 . S
S702 N704 1.610 . S
N703 S702 1.613 . S
N703 C706 1.350 . S
N704 S702 1.610 . S
N704 C705 1.351 . S
C705 C699 1.428 . S
C705 N704 1.351 . S
C705 C706 1.434 . S
C706 C697 1.429 . S
C706 N703 1.350 . S
C706 C705 1.434 . S
C707 C708 1.369 . S
C707 C709 1.419 1_554 S
C707 H711 0.930 . S
C708 C707 1.369 . S
C708 C717 1.429 . S
C709 C707 1.419 1_556 S
C709 C710 1.363 . S
C709 H712 0.929 . S
C710 C709 1.363 . S
C710 C716 1.428 . S
H711 C707 0.930 . S
H712 C709 0.929 . S
S713 N714 1.613 1_456 S
S713 N715 1.610 . S
N714 S713 1.613 1_654 S
N714 C717 1.350 . S
N715 S713 1.610 . S
N715 C716 1.351 1_455 S
C716 C710 1.428 . S
C716 N715 1.351 1_655 S
C716 C717 1.434 1_556 S
C717 C708 1.429 . S
C717 N714 1.350 . S
C717 C716 1.434 1_554 S
C718 C719 1.369 . S
C718 C720 1.419 . S
C718 H722 0.930 . S
C719 C718 1.369 . S
C719 C728 1.429 . S
C720 C718 1.419 . S
C720 C721 1.363 . S
C720 H723 0.929 . S
C721 C720 1.363 . S
C721 C727 1.428 . S
H722 C718 0.930 . S
H723 C720 0.929 . S
S724 N725 1.613 . S
S724 N726 1.610 . S
N725 S724 1.613 . S
N725 C728 1.350 . S
N726 S724 1.610 . S
N726 C727 1.351 . S
C727 C721 1.428 . S
C727 N726 1.351 . S
C727 C728 1.434 . S
C728 C719 1.429 . S
C728 N725 1.350 . S
C728 C727 1.434 . S
C729 C730 1.369 . S
C729 C731 1.419 . S
C729 H733 0.930 . S
C730 C729 1.369 . S
C730 C739 1.429 . S
C731 C729 1.419 . S
C731 C732 1.363 1_554 S
C731 H734 0.929 . S
C732 C731 1.363 1_556 S
C732 C738 1.428 1_556 S
H733 C729 0.930 . S
H734 C731 0.929 . S
S735 N736 1.613 . S
S735 N737 1.610 1_554 S
N736 S735 1.613 . S
N736 C739 1.350 . S
N737 S735 1.610 1_556 S
N737 C738 1.351 1_556 S
C738 C732 1.428 1_554 S
C738 N737 1.351 1_554 S
C738 C739 1.434 . S
C739 C730 1.429 . S
C739 N736 1.350 . S
C739 C738 1.434 . S
C740 C741 1.369 . S
C740 C742 1.419 . S
C740 H744 0.930 . S
C741 C740 1.369 . S
C741 C750 1.429 . S
C742 C740 1.419 . S
C742 C743 1.363 . S
C742 H745 0.929 . S
C743 C742 1.363 . S
C743 C749 1.428 . S
H744 C740 0.930 . S
H745 C742 0.929 . S
S746 N747 1.613 . S
S746 N748 1.610 . S
N747 S746 1.613 . S
N747 C750 1.350 . S
N748 S746 1.610 . S
N748 C749 1.351 . S
C749 C743 1.428 . S
C749 N748 1.351 . S
C749 C750 1.434 . S
C750 C741 1.429 . S
C750 N747 1.350 . S
C750 C749 1.434 . S
C751 C752 1.369 . S
C751 C753 1.419 . S
C751 H755 0.930 . S
C752 C751 1.369 . S
C752 C761 1.428 . S
C753 C751 1.419 . S
C753 C754 1.363 . S
C753 H756 0.929 . S
C754 C753 1.363 . S
C754 C760 1.428 . S
H755 C751 0.930 . S
H756 C753 0.929 . S
S757 N758 1.613 . S
S757 N759 1.610 1_556 S
N758 S757 1.613 . S
N758 C761 1.344 1_556 S
N759 S757 1.610 1_554 S
N759 C760 1.351 . S
C760 C754 1.428 . S
C760 N759 1.351 . S
C760 C761 1.441 . S
C761 C752 1.428 . S
C761 N758 1.344 1_554 S
C761 C760 1.441 . S
C762 C763 1.369 . S
C762 C764 1.419 . S
C762 H766 0.930 . S
C763 C762 1.369 . S
C763 C772 1.429 . S
C764 C762 1.419 . S
C764 C765 1.363 . S
C764 H767 0.929 . S
C765 C764 1.363 . S
C765 C771 1.428 . S
H766 C762 0.930 . S
H767 C764 0.929 . S
S768 N769 1.613 . S
S768 N770 1.610 . S
N769 S768 1.613 . S
N769 C772 1.350 . S
N770 S768 1.610 . S
N770 C771 1.351 . S
C771 C765 1.428 . S
C771 N770 1.351 . S
C771 C772 1.434 . S
C772 C763 1.429 . S
C772 N769 1.350 . S
C772 C771 1.434 . S
C773 C774 1.369 . S
C773 C775 1.419 . S
C773 H777 0.930 . S
C774 C773 1.369 . S
C774 C783 1.429 . S
C775 C773 1.419 . S
C775 C776 1.363 . S
C775 H778 0.929 . S
C776 C775 1.363 . S
C776 C782 1.428 . S
H777 C773 0.930 . S
H778 C775 0.929 . S
S779 N780 1.613 . S
S779 N781 1.610 . S
N780 S779 1.613 . S
N780 C783 1.350 . S
N781 S779 1.610 . S
N781 C782 1.351 . S
C782 C776 1.428 . S
C782 N781 1.351 . S
C782 C783 1.434 . S
C783 C774 1.429 . S
C783 N780 1.350 . S
C783 C782 1.434 . S
C784 C785 1.369 . S
C784 C786 1.419 . S
C784 H788 0.930 . S
C785 C784 1.369 . S
C785 C794 1.429 . S
C786 C784 1.419 . S
C786 C787 1.363 . S
C786 H789 0.929 . S
C787 C786 1.363 . S
C787 C793 1.428 . S
H788 C784 0.930 . S
H789 C786 0.929 . S
S790 N791 1.613 . S
S790 N792 1.610 . S
N791 S790 1.613 . S
N791 C794 1.350 . S
N792 S790 1.610 . S
N792 C793 1.351 . S
C793 C787 1.428 . S
C793 N792 1.351 . S
C793 C794 1.434 . S
C794 C785 1.429 . S
C794 N791 1.350 . S
C794 C793 1.434 . S
C795 C796 1.369 . S
C795 C797 1.419 . S
C795 H799 0.930 . S
C796 C795 1.369 . S
C796 C805 1.429 . S
C797 C795 1.419 . S
C797 C798 1.363 . S
C797 H800 0.929 . S
C798 C797 1.363 . S
C798 C804 1.428 . S
H799 C795 0.930 . S
H800 C797 0.929 . S
S801 N802 1.613 . S
S801 N803 1.610 . S
N802 S801 1.613 . S
N802 C805 1.350 . S
N803 S801 1.610 . S
N803 C804 1.351 . S
C804 C798 1.428 . S
C804 N803 1.351 . S
C804 C805 1.434 . S
C805 C796 1.429 . S
C805 N802 1.350 . S
C805 C804 1.434 . S
C806 C807 1.369 . S
C806 C808 1.419 . S
C806 H810 0.930 . S
C807 C806 1.369 . S
C807 C816 1.429 . S
C808 C806 1.419 . S
C808 C809 1.363 . S
C808 H811 0.929 . S
C809 C808 1.363 . S
C809 C815 1.428 . S
H810 C806 0.930 . S
H811 C808 0.929 . S
S812 N813 1.613 . S
S812 N814 1.610 . S
N813 S812 1.613 . S
N813 C816 1.350 . S
N814 S812 1.610 . S
N814 C815 1.351 . S
C815 C809 1.428 . S
C815 N814 1.351 . S
C815 C816 1.434 . S
C816 C807 1.429 . S
C816 N813 1.350 . S
C816 C815 1.434 . S
C817 C818 1.369 . S
C817 C819 1.419 . S
C817 H821 0.930 . S
C818 C817 1.369 . S
C818 C827 1.429 . S
C819 C817 1.419 . S
C819 C820 1.363 . S
C819 H822 0.929 . S
C820 C819 1.363 . S
C820 C826 1.428 . S
H821 C817 0.930 . S
H822 C819 0.929 . S
S823 N824 1.613 . S
S823 N825 1.610 . S
N824 S823 1.613 . S
N824 C827 1.350 . S
N825 S823 1.610 . S
N825 C826 1.351 . S
C826 C820 1.428 . S
C826 N825 1.351 . S
C826 C827 1.434 . S
C827 C818 1.429 . S
C827 N824 1.350 . S
C827 C826 1.434 . S
C828 C829 1.369 . S
C828 C830 1.419 . S
C828 H832 0.930 . S
C829 C828 1.369 . S
C829 C838 1.429 . S
C830 C828 1.419 . S
C830 C831 1.363 . S
C830 H833 0.929 . S
C831 C830 1.363 . S
C831 C837 1.428 . S
H832 C828 0.930 . S
H833 C830 0.929 . S
S834 N835 1.613 . S
S834 N836 1.610 . S
N835 S834 1.613 . S
N835 C838 1.350 . S
N836 S834 1.610 . S
N836 C837 1.351 . S
C837 C831 1.428 . S
C837 N836 1.351 . S
C837 C838 1.434 . S
C838 C829 1.429 . S
C838 N835 1.350 . S
C838 C837 1.434 . S
C839 C840 1.369 . S
C839 C841 1.419 . S
C839 H843 0.930 . S
C840 C839 1.369 . S
C840 C849 1.429 . S
C841 C839 1.419 . S
C841 C842 1.363 . S
C841 H844 0.929 . S
C842 C841 1.363 . S
C842 C848 1.428 . S
H843 C839 0.930 . S
H844 C841 0.929 . S
S845 N846 1.613 . S
S845 N847 1.610 . S
N846 S845 1.613 . S
N846 C849 1.350 . S
N847 S845 1.610 . S
N847 C848 1.351 . S
C848 C842 1.428 . S
C848 N847 1.351 . S
C848 C849 1.434 . S
C849 C840 1.429 . S
C849 N846 1.350 . S
C849 C848 1.434 . S
C850 C851 1.369 . S
C850 C852 1.419 . S
C850 H854 0.930 . S
C851 C850 1.369 . S
C851 C860 1.429 . S
C852 C850 1.419 . S
C852 C853 1.363 . S
C852 H855 0.929 . S
C853 C852 1.363 . S
C853 C859 1.428 . S
H854 C850 0.930 . S
H855 C852 0.929 . S
S856 N857 1.613 . S
S856 N858 1.610 . S
N857 S856 1.613 . S
N857 C860 1.350 . S
N858 S856 1.610 . S
N858 C859 1.351 . S
C859 C853 1.428 . S
C859 N858 1.351 . S
C859 C860 1.434 . S
C860 C851 1.429 . S
C860 N857 1.350 . S
C860 C859 1.434 . S
C861 C862 1.369 . S
C861 C863 1.419 . S
C861 H865 0.930 . S
C862 C861 1.369 . S
C862 C871 1.429 . S
C863 C861 1.419 . S
C863 C864 1.363 . S
C863 H866 0.929 . S
C864 C863 1.363 . S
C864 C870 1.428 . S
H865 C861 0.930 . S
H866 C863 0.929 . S
S867 N868 1.613 . S
S867 N869 1.610 . S
N868 S867 1.613 . S
N868 C871 1.350 . S
N869 S867 1.610 . S
N869 C870 1.351 . S
C870 C864 1.428 . S
C870 N869 1.351 . S
C870 C871 1.434 . S
C871 C862 1.429 . S
C871 N868 1.350 . S
C871 C870 1.434 . S
C347 C184 1.685 1_556 S
C345 C60 1.686 . S
C358 C199 1.580 . S
C356 C76 1.601 . S
C367 C81 1.774 . S
C369 C212 1.770 . S
C380 C226 1.531 1_455 S
C378 C48 1.563 . S
C391 C238 1.633 . S
C389 C115 1.745 . S
C402 C252 1.419 . S
C400 C136 1.436 . S
C411 C131 1.557 . S
C413 C266 1.527 . S
C424 C281 1.436 . S
C422 C104 1.453 . S
C433 C126 1.610 . S
C435 C297 1.577 . S
C446 C310 1.438 . S
C444 C103 1.419 . S
C455 C120 1.523 . S
C457 C295 1.452 . S
C468 C308 1.619 . S
C466 C142 1.567 . S
C477 C82 1.803 . S
C479 C324 1.799 . S
C488 C54 1.723 . S
C490 C323 1.701 . S
C499 C65 1.604 . S
C501 C322 1.547 . S
C510 C71 1.384 . S
C512 C325 1.383 . S
C521 C37 1.719 . S
C523 C227 1.724 1_565 S
C532 C158 1.750 . S
C534 C225 1.730 . S
C545 C185 1.434 1_545 S
C543 C169 1.444 . S
C556 C196 1.509 . S
C554 C98 1.543 . S
C565 C49 1.694 1_545 S
C567 C241 1.694 . S
C578 C282 1.812 . S
C576 C125 1.812 . S
C589 C239 1.575 . S
C587 C109 1.562 1_545 S
C600 C267 1.633 . S
C598 C137 1.662 . S
C611 C268 1.682 . S
C609 C159 1.684 . S
C620 C175 1.595 . S
C622 C283 1.581 . S
C631 C92 1.773 . S
C633 C240 1.771 . S
C644 C254 1.538 . S
C642 C147 1.558 . S
C653 C38 1.741 . S
C655 C210 1.639 . S
C666 C224 1.423 . S
C664 C4 1.441 . S
C677 C182 1.526 . S
C675 C21 1.556 . S
C688 C197 1.443 . S
C686 C27 1.449 . S
C697 C16 1.609 . S
C699 C311 1.578 . S
C708 C26 1.418 . S
C710 C296 1.438 . S
C719 C43 1.521 . S
C721 C309 1.455 . S
C730 C10 1.568 . S
C732 C294 1.620 . S
C743 C338 1.798 . S
C741 C93 1.802 . S
C754 C337 1.696 . S
C752 C153 1.728 1_554 S
C765 C336 1.543 . S
C763 C164 1.607 . S
C774 C170 1.373 1_554 S
C776 C339 1.390 . S
C785 C114 1.719 . S
C787 C255 1.722 . S
C798 C253 1.730 . S
C796 C59 1.750 . S
C809 C269 1.430 . S
C807 C70 1.447 . S
C820 C280 1.508 . S
C818 C87 1.544 . S
C829 C148 1.694 . S
C831 C213 1.694 . S
C842 C198 1.813 . S
C840 C15 1.812 . S
C851 C32 1.564 . S
C853 C211 1.575 . S
C864 C183 1.637 . S
C862 C5 1.655 . S
