# Generated by pormake.
# Topology cml, (3,6)-cn, num edge types: 1
# Building blocks:
#     Node 0, Type 0, BuildingBlock: BELTOD_clean_linker_0, # of connection points: 3
#     Node 1, Type 0, BuildingBlock: BELTOD_clean_linker_0, # of connection points: 3
#     Node 2, Type 0, BuildingBlock: BELTOD_clean_linker_0, # of connection points: 3
#     Node 3, Type 0, BuildingBlock: BELTOD_clean_linker_0, # of connection points: 3
#     Node 4, Type 0, BuildingBlock: BELTOD_clean_linker_0, # of connection points: 3
#     Node 5, Type 0, BuildingBlock: BELTOD_clean_linker_0, # of connection points: 3
#     Node 6, Type 0, BuildingBlock: BELTOD_clean_linker_0, # of connection points: 3
#     Node 7, Type 0, BuildingBlock: BELTOD_clean_linker_0, # of connection points: 3
#     Node 8, Type 1, BuildingBlock: IZENUY_clean_sbu_0, # of connection points: 6
#     Node 9, Type 1, BuildingBlock: IZENUY_clean_sbu_0, # of connection points: 6
#     Node 10, Type 1, BuildingBlock: IZENUY_clean_sbu_0, # of connection points: 6
#     Node 11, Type 1, BuildingBlock: IZENUY_clean_sbu_0, # of connection points: 6
#     Edge 12, Type (0, 1), BuildingBlock: CIFDUS_clean_linker_0, # of connection points: 2
#     Edge 13, Type (0, 1), BuildingBlock: CIFDUS_clean_linker_0, # of connection points: 2
#     Edge 14, Type (0, 1), BuildingBlock: CIFDUS_clean_linker_0, # of connection points: 2
#     Edge 15, Type (0, 1), BuildingBlock: CIFDUS_clean_linker_0, # of connection points: 2
#     Edge 16, Type (0, 1), BuildingBlock: CIFDUS_clean_linker_0, # of connection points: 2
#     Edge 17, Type (0, 1), BuildingBlock: CIFDUS_clean_linker_0, # of connection points: 2
#     Edge 18, Type (0, 1), BuildingBlock: CIFDUS_clean_linker_0, # of connection points: 2
#     Edge 19, Type (0, 1), BuildingBlock: CIFDUS_clean_linker_0, # of connection points: 2
#     Edge 20, Type (0, 1), BuildingBlock: CIFDUS_clean_linker_0, # of connection points: 2
#     Edge 21, Type (0, 1), BuildingBlock: CIFDUS_clean_linker_0, # of connection points: 2
#     Edge 22, Type (0, 1), BuildingBlock: CIFDUS_clean_linker_0, # of connection points: 2
#     Edge 23, Type (0, 1), BuildingBlock: CIFDUS_clean_linker_0, # of connection points: 2
#     Edge 24, Type (0, 1), BuildingBlock: CIFDUS_clean_linker_0, # of connection points: 2
#     Edge 25, Type (0, 1), BuildingBlock: CIFDUS_clean_linker_0, # of connection points: 2
#     Edge 26, Type (0, 1), BuildingBlock: CIFDUS_clean_linker_0, # of connection points: 2
#     Edge 27, Type (0, 1), BuildingBlock: CIFDUS_clean_linker_0, # of connection points: 2
#     Edge 28, Type (0, 1), BuildingBlock: CIFDUS_clean_linker_0, # of connection points: 2
#     Edge 29, Type (0, 1), BuildingBlock: CIFDUS_clean_linker_0, # of connection points: 2
#     Edge 30, Type (0, 1), BuildingBlock: CIFDUS_clean_linker_0, # of connection points: 2
#     Edge 31, Type (0, 1), BuildingBlock: CIFDUS_clean_linker_0, # of connection points: 2
#     Edge 32, Type (0, 1), BuildingBlock: CIFDUS_clean_linker_0, # of connection points: 2
#     Edge 33, Type (0, 1), BuildingBlock: CIFDUS_clean_linker_0, # of connection points: 2
#     Edge 34, Type (0, 1), BuildingBlock: CIFDUS_clean_linker_0, # of connection points: 2
#     Edge 35, Type (0, 1), BuildingBlock: CIFDUS_clean_linker_0, # of connection points: 2
# Relax obj value: 0.048
# Max RMSD: 0.064
# Mean RMSD: 0.062
data_MOF--net-cml--node1-IZENUY_clean_sbu_0--node2-BELTOD_clean_linker_0--edge1-CIFDUS_clean_linker_0
_symmetry_space_group_name_H-M    P1
_symmetry_Int_Tables_number       1
_symmetry_cell_setting            triclinic
loop_
_symmetry_equiv_pos_as_xyz
'x, y, z'
_cell_length_a     36.084161
_cell_length_b     41.710572
_cell_length_c     38.532423
_cell_angle_alpha  89.648433
_cell_angle_beta   89.748356
_cell_angle_gamma 89.877132
loop_
_atom_site_label
_atom_site_type_symbol
_atom_site_fract_x
_atom_site_fract_y
_atom_site_fract_z
_atom_type_partial_charge
P0 P 0.30283 0.35637 0.99797 0.0
H1 H 0.2793 0.31586 0.05577 0.0
H2 H 0.28541 0.3218 0.11845 0.0
H3 H 0.32385 0.41903 0.10303 0.0
H4 H 0.31498 0.41372 0.04119 0.0
H5 H 0.28972 0.32843 0.93051 0.0
H6 H 0.23841 0.29683 0.90779 0.0
H7 H 0.17376 0.31858 0.99935 0.0
H8 H 0.22518 0.35021 0.02187 0.0
H9 H 0.37806 0.37908 0.99267 0.0
H10 H 0.26996 0.41133 0.96012 0.0
O11 O 0.33429 0.32713 0.99477 0.0
H12 H 0.4049 0.42991 0.97397 0.0
H13 H 0.29711 0.46264 0.9407 0.0
C14 C 0.29727 0.36406 0.04366 0.0
C15 C 0.28773 0.33881 0.06606 0.0
C16 C 0.29157 0.3422 0.1019 0.0
C17 C 0.30619 0.37061 0.11586 0.0
C18 C 0.31247 0.3968 0.09345 0.0
C19 C 0.30786 0.39359 0.0577 0.0
C20 C 0.26146 0.34129 0.97802 0.0
C21 C 0.26414 0.32705 0.94528 0.0
C22 C 0.23479 0.30896 0.93235 0.0
C23 C 0.20225 0.30476 0.95207 0.0
C24 C 0.19879 0.32083 0.98391 0.0
C25 C 0.22813 0.33909 0.99672 0.0
C26 C 0.32218 0.39121 0.97708 0.0
C27 C 0.36023 0.39683 0.98064 0.0
C28 C 0.37549 0.42604 0.97037 0.0
C29 C 0.35299 0.45023 0.95622 0.0
C30 C 0.31499 0.44427 0.95149 0.0
C31 C 0.29955 0.41499 0.96232 0.0
P32 P 0.75201 0.59106 0.5176 0.0
H33 H 0.76411 0.53315 0.47701 0.0
H34 H 0.72425 0.5027 0.43807 0.0
H35 H 0.63562 0.57063 0.45521 0.0
H36 H 0.67568 0.60098 0.49436 0.0
H37 H 0.81686 0.62935 0.53307 0.0
H38 H 0.85151 0.66937 0.49974 0.0
H39 H 0.77145 0.66296 0.41698 0.0
H40 H 0.73727 0.62268 0.4502 0.0
H41 H 0.71527 0.55713 0.57355 0.0
H42 H 0.72992 0.65558 0.54176 0.0
O43 O 0.78466 0.56637 0.53282 0.0
H44 H 0.67896 0.57448 0.62361 0.0
H45 H 0.69429 0.67332 0.59242 0.0
C46 C 0.72246 0.5688 0.48916 0.0
C47 C 0.73605 0.54139 0.47256 0.0
C48 C 0.71333 0.5241 0.45024 0.0
C49 C 0.67685 0.53428 0.44376 0.0
C50 C 0.6637 0.56238 0.4596 0.0
C51 C 0.68637 0.5795 0.48222 0.0
C52 C 0.77481 0.62275 0.49401 0.0
C53 C 0.80667 0.63672 0.50784 0.0
C54 C 0.82632 0.6597 0.48881 0.0
C55 C 0.81429 0.66922 0.45561 0.0
C56 C 0.7817 0.65577 0.44223 0.0
C57 C 0.76203 0.63281 0.46136 0.0
C58 C 0.72555 0.60504 0.55421 0.0
C59 C 0.7109 0.58254 0.57758 0.0
C60 C 0.69036 0.59254 0.60633 0.0
C61 C 0.68404 0.62534 0.61231 0.0
C62 C 0.69852 0.64788 0.58852 0.0
C63 C 0.71908 0.63779 0.55964 0.0
P64 P 0.76435 0.39933 0.02398 0.0
H65 H 0.78123 0.37606 0.09391 0.0
H66 H 0.74201 0.35969 0.14306 0.0
H67 H 0.64476 0.37314 0.07966 0.0
H68 H 0.68383 0.38941 0.03091 0.0
H69 H 0.80988 0.39893 0.96147 0.0
H70 H 0.84333 0.35626 0.93117 0.0
H71 H 0.79385 0.28615 1.00008 0.0
H72 H 0.76116 0.32888 0.03052 0.0
H73 H 0.7592 0.46931 0.02466 0.0
H74 H 0.71245 0.39154 0.96635 0.0
O75 O 0.8003 0.41844 0.04137 0.0
H76 H 0.72265 0.50774 0.99127 0.0
H77 H 0.67407 0.42954 0.93404 0.0
C78 C 0.73543 0.38485 0.05903 0.0
C79 C 0.75145 0.37537 0.0906 0.0
C80 C 0.72908 0.36577 0.11857 0.0
C81 C 0.6903 0.36554 0.11533 0.0
C82 C 0.67453 0.37364 0.08311 0.0
C83 C 0.6969 0.383 0.05518 0.0
C84 C 0.78304 0.36714 0.99822 0.0
C85 C 0.80575 0.37429 0.9696 0.0
C86 C 0.82476 0.34984 0.95223 0.0
C87 C 0.82152 0.31777 0.96335 0.0
C88 C 0.79742 0.31064 0.99118 0.0
C89 C 0.77847 0.3351 0.00851 0.0
C90 C 0.73894 0.42762 0.9976 0.0
C91 C 0.74111 0.46051 0.00451 0.0
C92 C 0.71976 0.48248 0.98563 0.0
C93 C 0.69516 0.47193 0.95984 0.0
C94 C 0.69315 0.43878 0.95311 0.0
C95 C 0.71496 0.4169 0.97169 0.0
P96 P 0.33497 0.65552 0.47831 0.0
H97 H 0.34994 0.62196 0.41364 0.0
H98 H 0.35957 0.56543 0.40058 0.0
H99 H 0.32522 0.54011 0.50478 0.0
H100 H 0.31589 0.59693 0.51771 0.0
H101 H 0.30849 0.7175 0.50211 0.0
H102 H 0.25567 0.75081 0.48645 0.0
H103 H 0.22117 0.67911 0.41269 0.0
H104 H 0.27296 0.64503 0.43035 0.0
H105 H 0.40474 0.64819 0.51435 0.0
H106 H 0.2906 0.66629 0.54188 0.0
O107 O 0.36955 0.67219 0.45572 0.0
H108 H 0.42173 0.64957 0.57571 0.0
H109 H 0.30784 0.66881 0.60338 0.0
C110 C 0.33294 0.61371 0.46679 0.0
C111 C 0.34372 0.60422 0.43345 0.0
C112 C 0.34903 0.57178 0.42599 0.0
C113 C 0.34356 0.54817 0.45178 0.0
C114 C 0.33026 0.5577 0.48452 0.0
C115 C 0.32478 0.59021 0.49189 0.0
C116 C 0.2939 0.67828 0.46833 0.0
C117 C 0.28897 0.70857 0.48323 0.0
C118 C 0.25902 0.72789 0.47376 0.0
C119 C 0.23392 0.71779 0.44825 0.0
C120 C 0.23932 0.68747 0.433 0.0
C121 C 0.26905 0.66791 0.44298 0.0
C122 C 0.34669 0.65817 0.52352 0.0
C123 C 0.38346 0.65296 0.53355 0.0
C124 C 0.39308 0.65359 0.56853 0.0
C125 C 0.36607 0.65958 0.59402 0.0
C126 C 0.32915 0.66461 0.58404 0.0
C127 C 0.3194 0.66333 0.54897 0.0
P128 P 0.79449 0.87323 0.00797 0.0
H129 H 0.78844 0.81978 0.05628 0.0
H130 H 0.79997 0.81557 0.11852 0.0
H131 H 0.80901 0.91884 0.12392 0.0
H132 H 0.79439 0.92281 0.06269 0.0
H133 H 0.78238 0.83915 0.94359 0.0
H134 H 0.72985 0.8093 0.92135 0.0
H135 H 0.66266 0.8425 0.00721 0.0
H136 H 0.71623 0.8715 0.02999 0.0
H137 H 0.85766 0.91287 0.02296 0.0
H138 H 0.75953 0.92015 0.95988 0.0
O139 O 0.82958 0.84933 0.99655 0.0
H140 H 0.87782 0.96551 0.00267 0.0
H141 H 0.78025 0.97297 0.93861 0.0
C142 C 0.79202 0.87147 0.05462 0.0
C143 C 0.79179 0.84152 0.07118 0.0
C144 C 0.79877 0.83918 0.10673 0.0
C145 C 0.80688 0.86678 0.12614 0.0
C146 C 0.80319 0.89698 0.10999 0.0
C147 C 0.79538 0.89929 0.07459 0.0
C148 C 0.75333 0.85701 0.98871 0.0
C149 C 0.75622 0.84032 0.95741 0.0
C150 C 0.72596 0.82339 0.94459 0.0
C151 C 0.69195 0.82317 0.96262 0.0
C152 C 0.68861 0.84158 0.99303 0.0
C153 C 0.7191 0.8584 0.00595 0.0
C154 C 0.80695 0.91281 0.99323 0.0
C155 C 0.84024 0.92603 0.00498 0.0
C156 C 0.85163 0.95619 0.99355 0.0
C157 C 0.83035 0.97348 0.96943 0.0
C158 C 0.79699 0.96017 0.95743 0.0
C159 C 0.78519 0.93006 0.96949 0.0
P160 P 0.25667 0.09153 0.51304 0.0
H161 H 0.27428 0.0352 0.47135 0.0
H162 H 0.23779 0.00336 0.43087 0.0
H163 H 0.14732 0.07082 0.44061 0.0
H164 H 0.1838 0.10217 0.48159 0.0
H165 H 0.32897 0.11746 0.53014 0.0
H166 H 0.3662 0.16069 0.50525 0.0
H167 H 0.28069 0.17924 0.42952 0.0
H168 H 0.24363 0.13558 0.45445 0.0
H169 H 0.19418 0.06304 0.54956 0.0
H170 H 0.2527 0.15308 0.55054 0.0
O171 O 0.28523 0.06549 0.53231 0.0
H172 H 0.15517 0.08115 0.5975 0.0
H173 H 0.21432 0.17111 0.59914 0.0
C174 C 0.23125 0.07044 0.48022 0.0
C175 C 0.24666 0.04321 0.4646 0.0
C176 C 0.22593 0.02522 0.44116 0.0
C177 C 0.18948 0.03434 0.43283 0.0
C178 C 0.17506 0.06283 0.447 0.0
C179 C 0.19583 0.08076 0.47042 0.0
C180 C 0.28393 0.12294 0.49369 0.0
C181 C 0.31835 0.13064 0.508 0.0
C182 C 0.33945 0.15554 0.49394 0.0
C183 C 0.32637 0.17334 0.4654 0.0
C184 C 0.29168 0.16566 0.45121 0.0
C185 C 0.27048 0.14076 0.46546 0.0
C186 C 0.22597 0.10682 0.5461 0.0
C187 C 0.1984 0.08684 0.55989 0.0
C188 C 0.17637 0.09713 0.58756 0.0
C189 C 0.18181 0.12752 0.60238 0.0
C190 C 0.20918 0.14771 0.58814 0.0
C191 C 0.23121 0.13736 0.56034 0.0
P192 P 0.25 0.89554 0.01994 0.0
H193 H 0.26119 0.87986 0.09348 0.0
H194 H 0.21773 0.86828 0.14086 0.0
H195 H 0.12746 0.86769 0.06761 0.0
H196 H 0.17098 0.87947 0.02046 0.0
H197 H 0.30807 0.89486 0.9677 0.0
H198 H 0.34091 0.85157 0.93834 0.0
H199 H 0.26539 0.78284 0.98423 0.0
H200 H 0.23351 0.82634 0.01443 0.0
H201 H 0.2387 0.96341 0.03188 0.0
H202 H 0.20613 0.89408 0.95542 0.0
O203 O 0.28604 0.91315 0.03895 0.0
H204 H 0.20023 0.00396 0.00378 0.0
H205 H 0.16664 0.93457 0.92733 0.0
C206 C 0.21916 0.88132 0.05359 0.0
C207 C 0.23211 0.87683 0.08755 0.0
C208 C 0.20727 0.87001 0.11461 0.0
C209 C 0.16908 0.86756 0.10806 0.0
C210 C 0.15663 0.87005 0.07358 0.0
C211 C 0.18149 0.87673 0.04658 0.0
C212 C 0.26858 0.86383 0.99342 0.0
C213 C 0.29824 0.8705 0.97098 0.0
C214 C 0.3169 0.84565 0.95404 0.0
C215 C 0.30608 0.81352 0.95906 0.0
C216 C 0.27498 0.80717 0.98025 0.0
C217 C 0.25647 0.8321 0.99736 0.0
C218 C 0.22578 0.92591 0.99539 0.0
C219 C 0.2237 0.95706 0.00863 0.0
C220 C 0.20134 0.98016 0.99273 0.0
C221 C 0.1801 0.97249 0.96342 0.0
C222 C 0.18293 0.94137 0.94963 0.0
C223 C 0.20547 0.9182 0.96564 0.0
P224 P 0.816 0.14738 0.47964 0.0
H225 H 0.8516 0.1326 0.41359 0.0
H226 H 0.86405 0.08216 0.3843 0.0
H227 H 0.79611 0.0322 0.45976 0.0
H228 H 0.78417 0.08311 0.48934 0.0
H229 H 0.80214 0.21564 0.48613 0.0
H230 H 0.74965 0.24986 0.47079 0.0
H231 H 0.68831 0.16633 0.43866 0.0
H232 H 0.7413 0.13224 0.4537 0.0
H233 H 0.86135 0.10027 0.51541 0.0
H234 H 0.78165 0.17299 0.54348 0.0
O235 O 0.85326 0.16925 0.46963 0.0
H236 H 0.87451 0.09052 0.57649 0.0
H237 H 0.79496 0.16342 0.60493 0.0
C238 C 0.81772 0.11142 0.45405 0.0
C239 C 0.83884 0.11091 0.42351 0.0
C240 C 0.84573 0.08199 0.40664 0.0
C241 C 0.83141 0.05302 0.41992 0.0
C242 C 0.80805 0.054 0.44923 0.0
C243 C 0.80107 0.08307 0.46604 0.0
C244 C 0.77581 0.17153 0.47045 0.0
C245 C 0.77734 0.20469 0.47584 0.0
C246 C 0.7472 0.2242 0.46732 0.0
C247 C 0.71488 0.21086 0.45328 0.0
C248 C 0.71305 0.17739 0.4489 0.0
C249 C 0.74326 0.15786 0.45759 0.0
C250 C 0.82008 0.13697 0.52484 0.0
C251 C 0.84588 0.11351 0.53476 0.0
C252 C 0.85331 0.10787 0.56975 0.0
C253 C 0.83561 0.12608 0.59553 0.0
C254 C 0.809 0.14903 0.58559 0.0
C255 C 0.80133 0.15446 0.55047 0.0
Fe256 Fe 0.00016 0.8116 0.32358 0.0
Fe257 Fe 0.00015 0.85303 0.38901 0.0
O258 O 0.99856 0.84995 0.34323 0.0
Fe259 Fe 0.99521 0.88497 0.31722 0.0
O260 O 0.95219 0.87145 0.29788 0.0
O261 O 0.97128 0.82268 0.28647 0.0
O262 O 0.95793 0.79912 0.34589 0.0
C263 C 0.9538 0.79972 0.37845 0.0
C264 C 0.04532 0.8454 0.27947 0.0
O265 O 0.97602 0.81525 0.39722 0.0
C266 C 0.04266 0.90655 0.36678 0.0
O267 O 0.02939 0.79334 0.35708 0.0
O268 O 0.04541 0.83357 0.39035 0.0
O269 O 0.02296 0.8688 0.28137 0.0
O270 O 0.04241 0.82164 0.29983 0.0
C271 C 0.94707 0.89792 0.37393 0.0
O272 O 0.02394 0.89152 0.38932 0.0
O273 O 0.03796 0.90157 0.33482 0.0
C274 C 0.05133 0.80579 0.37865 0.0
O275 O 0.9552 0.87277 0.39072 0.0
O276 O 0.96661 0.90707 0.34836 0.0
C277 C 0.94834 0.84528 0.28213 0.0
Fe278 Fe 0.00116 0.14679 0.87556 0.0
Fe279 Fe 0.9973 0.10845 0.80765 0.0
O280 O 0.00041 0.14575 0.82941 0.0
Fe281 Fe 0.00269 0.18197 0.80489 0.0
O282 O 0.03211 0.20299 0.83575 0.0
O283 O 0.04567 0.16719 0.87592 0.0
O284 O 0.02669 0.10883 0.88057 0.0
C285 C 0.04598 0.09256 0.85945 0.0
C286 C 0.95546 0.19983 0.85746 0.0
O287 O 0.03988 0.09403 0.82727 0.0
C288 C 0.95049 0.14499 0.76803 0.0
O289 O 0.95661 0.1266 0.87902 0.0
O290 O 0.96882 0.08907 0.84086 0.0
O291 O 0.96067 0.19729 0.82516 0.0
O292 O 0.97576 0.1848 0.87883 0.0
C293 C 0.04859 0.14316 0.7667 0.0
O294 O 0.95447 0.12005 0.78632 0.0
O295 O 0.9736 0.16767 0.76954 0.0
C296 C 0.94873 0.10034 0.86479 0.0
O297 O 0.02525 0.12086 0.77039 0.0
O298 O 0.04498 0.16932 0.7827 0.0
C299 C 0.05264 0.19308 0.86006 0.0
Fe300 Fe 0.4985 0.31926 0.30902 0.0
Fe301 Fe 0.49543 0.35293 0.38003 0.0
O302 O 0.49439 0.35474 0.33395 0.0
Fe303 Fe 0.48916 0.39226 0.31243 0.0
O304 O 0.4459 0.37955 0.29272 0.0
O305 O 0.46794 0.33344 0.27449 0.0
O306 O 0.45771 0.30183 0.32936 0.0
C307 C 0.45231 0.29884 0.3616 0.0
C308 C 0.54025 0.35983 0.26904 0.0
O309 O 0.47134 0.31448 0.38318 0.0
C310 C 0.53942 0.40671 0.36304 0.0
O311 O 0.52938 0.29852 0.33922 0.0
O312 O 0.54059 0.33352 0.38018 0.0
O313 O 0.51573 0.38101 0.27395 0.0
O314 O 0.53979 0.33411 0.2865 0.0
C315 C 0.4418 0.39881 0.37025 0.0
O316 O 0.52 0.39088 0.38452 0.0
O317 O 0.53202 0.40715 0.33101 0.0
C318 C 0.549 0.30829 0.36406 0.0
O319 O 0.45023 0.37233 0.38414 0.0
O320 O 0.46158 0.4108 0.3465 0.0
C321 C 0.44274 0.3546 0.27455 0.0
Fe322 Fe 0.50326 0.65237 0.88824 0.0
Fe323 Fe 0.51296 0.61037 0.82375 0.0
O324 O 0.50797 0.6487 0.84256 0.0
Fe325 Fe 0.50771 0.68315 0.81538 0.0
O326 O 0.54776 0.69943 0.83697 0.0
O327 O 0.52878 0.69059 0.89059 0.0
O328 O 0.54723 0.63222 0.89606 0.0
C329 C 0.55537 0.60465 0.88511 0.0
C330 C 0.45348 0.69804 0.8668 0.0
O331 O 0.53725 0.59225 0.86065 0.0
C332 C 0.46674 0.64287 0.77578 0.0
O333 O 0.47692 0.61469 0.89364 0.0
O334 O 0.46827 0.59797 0.84022 0.0
O335 O 0.47574 0.70631 0.84286 0.0
O336 O 0.45902 0.6728 0.88425 0.0
C337 C 0.56308 0.64343 0.78483 0.0
O338 O 0.48964 0.62091 0.78316 0.0
O339 O 0.46743 0.66915 0.79177 0.0
C340 C 0.45917 0.59798 0.87184 0.0
O341 O 0.55796 0.62067 0.80601 0.0
O342 O 0.53995 0.66633 0.78286 0.0
C343 C 0.55031 0.70445 0.86912 0.0
H344 H 0.1742 0.29822 0.88708 0.0
H345 H 0.16557 0.25994 0.99103 0.0
H346 H 0.11989 0.22083 0.97167 0.0
H347 H 0.08217 0.19744 0.92499 0.0
H348 H 0.09015 0.23687 0.82144 0.0
H349 H 0.13677 0.27502 0.84066 0.0
C350 C 0.16242 0.28123 0.90545 0.0
C351 C 0.1732 0.28208 0.94043 0.0
C352 C 0.13626 0.25877 0.89414 0.0
C353 C 0.15734 0.26014 0.96403 0.0
C354 C 0.13145 0.23756 0.95293 0.0
C355 C 0.09445 0.21417 0.90662 0.0
C356 C 0.08283 0.21426 0.87184 0.0
C357 C 0.12074 0.23659 0.91801 0.0
C358 C 0.09858 0.23638 0.84839 0.0
C359 C 0.1252 0.25825 0.85935 0.0
H360 H 0.84631 0.72392 0.47816 0.0
H361 H 0.83168 0.66675 0.38637 0.0
H362 H 0.87159 0.70328 0.35334 0.0
H363 H 0.914 0.74975 0.35167 0.0
H364 H 0.9295 0.80524 0.44475 0.0
H365 H 0.88623 0.77098 0.47604 0.0
C366 C 0.85194 0.71939 0.45095 0.0
C367 C 0.8363 0.69254 0.43486 0.0
C368 C 0.8753 0.74011 0.43233 0.0
C369 C 0.84319 0.68739 0.39935 0.0
C370 C 0.86621 0.70815 0.3805 0.0
C371 C 0.90765 0.75445 0.3787 0.0
C372 C 0.92533 0.77981 0.39589 0.0
C373 C 0.88288 0.73436 0.39685 0.0
C374 C 0.91671 0.78563 0.43095 0.0
C375 C 0.89188 0.7661 0.44893 0.0
H376 H 0.83883 0.30827 0.89478 0.0
H377 H 0.85846 0.2702 0.99753 0.0
H378 H 0.90014 0.22992 0.97365 0.0
H379 H 0.93298 0.20674 0.92429 0.0
H380 H 0.91462 0.24447 0.8212 0.0
H381 H 0.8707 0.28366 0.84458 0.0
C382 C 0.85227 0.29117 0.91192 0.0
C383 C 0.84533 0.29228 0.94793 0.0
C384 C 0.8766 0.26808 0.89801 0.0
C385 C 0.86271 0.26966 0.96969 0.0
C386 C 0.88684 0.24673 0.9561 0.0
C387 C 0.9194 0.22348 0.90682 0.0
C388 C 0.92743 0.22276 0.87104 0.0
C389 C 0.89424 0.24589 0.92038 0.0
C390 C 0.90913 0.24448 0.84886 0.0
C391 C 0.88402 0.26695 0.86223 0.0
H392 H 0.16394 0.70029 0.42974 0.0
H393 H 0.23371 0.78348 0.44162 0.0
H394 H 0.18277 0.81823 0.42381 0.0
H395 H 0.11867 0.82505 0.40265 0.0
H396 H 0.05135 0.74119 0.38624 0.0
H397 H 0.10115 0.70681 0.40741 0.0
C398 C 0.1683 0.72597 0.42806 0.0
C399 C 0.20277 0.73905 0.4372 0.0
C400 C 0.13922 0.74583 0.41683 0.0
C401 C 0.20737 0.77257 0.43544 0.0
C402 C 0.17829 0.79255 0.42495 0.0
C403 C 0.11494 0.79928 0.40399 0.0
C404 C 0.08143 0.7857 0.39296 0.0
C405 C 0.1441 0.77946 0.41545 0.0
C406 C 0.077 0.75223 0.39441 0.0
C407 C 0.10544 0.73252 0.40655 0.0
H408 H 0.67078 0.81091 0.89608 0.0
H409 H 0.64398 0.78763 0.00258 0.0
H410 H 0.59701 0.74984 0.98322 0.0
H411 H 0.56574 0.72117 0.93602 0.0
H412 H 0.59519 0.74282 0.82965 0.0
H413 H 0.63942 0.78277 0.84913 0.0
C414 C 0.65485 0.79748 0.91513 0.0
C415 C 0.66114 0.80218 0.95077 0.0
C416 C 0.62855 0.77513 0.90386 0.0
C417 C 0.63952 0.78497 0.97498 0.0
C418 C 0.61285 0.76304 0.96394 0.0
C419 C 0.58177 0.73465 0.91708 0.0
C420 C 0.57709 0.72881 0.8814 0.0
C421 C 0.60747 0.7576 0.92843 0.0
C422 C 0.59819 0.74661 0.85728 0.0
C423 C 0.62351 0.76958 0.86837 0.0
H424 H 0.34021 0.1869 0.39724 0.0
H425 H 0.36315 0.21945 0.50105 0.0
H426 H 0.40328 0.26148 0.47789 0.0
H427 H 0.43317 0.28787 0.42868 0.0
H428 H 0.41085 0.25593 0.32446 0.0
H429 H 0.36869 0.21502 0.34731 0.0
C430 C 0.35367 0.20345 0.41472 0.0
C431 C 0.34895 0.19991 0.45082 0.0
C432 C 0.37682 0.22759 0.40121 0.0
C433 C 0.36682 0.22135 0.47319 0.0
C434 C 0.38963 0.24547 0.45998 0.0
C435 C 0.4191 0.27205 0.41084 0.0
C436 C 0.42545 0.27487 0.3749 0.0
C437 C 0.39513 0.24857 0.4241 0.0
C438 C 0.40663 0.25425 0.35226 0.0
C439 C 0.38253 0.23082 0.3653 0.0
H440 H 0.34062 0.81096 0.89566 0.0
H441 H 0.32345 0.75598 0.98966 0.0
H442 H 0.36488 0.71431 0.9682 0.0
H443 H 0.40973 0.6952 0.92482 0.0
H444 H 0.42943 0.75149 0.83218 0.0
H445 H 0.38373 0.79088 0.85127 0.0
C446 C 0.34595 0.78991 0.91153 0.0
C447 C 0.32884 0.78685 0.94434 0.0
C448 C 0.3706 0.76627 0.89941 0.0
C449 C 0.33566 0.75898 0.96413 0.0
C450 C 0.3597 0.73517 0.95201 0.0
C451 C 0.40381 0.71591 0.9086 0.0
C452 C 0.4233 0.72038 0.87718 0.0
C453 C 0.37782 0.7388 0.91996 0.0
C454 C 0.41514 0.74746 0.8566 0.0
C455 C 0.38896 0.77006 0.86749 0.0
H456 H 0.67497 0.20676 0.39394 0.0
H457 H 0.68561 0.26276 0.4871 0.0
H458 H 0.63627 0.29866 0.4673 0.0
H459 H 0.58962 0.31387 0.42358 0.0
H460 H 0.57896 0.25685 0.33096 0.0
H461 H 0.62857 0.22167 0.35063 0.0
C462 C 0.66619 0.22657 0.41014 0.0
C463 C 0.68388 0.23196 0.442 0.0
C464 C 0.63783 0.24706 0.39864 0.0
C465 C 0.67265 0.25819 0.46232 0.0
C466 C 0.64436 0.27869 0.45107 0.0
C467 C 0.59825 0.29383 0.40764 0.0
C468 C 0.5804 0.28804 0.37588 0.0
C469 C 0.62677 0.2734 0.41922 0.0
C470 C 0.59198 0.26188 0.35561 0.0
C471 C 0.6204 0.24166 0.36682 0.0
H472 H 0.34898 0.48264 0.89492 0.0
H473 H 0.39475 0.48781 0.99785 0.0
H474 H 0.42875 0.53636 0.98192 0.0
H475 H 0.44997 0.57429 0.93726 0.0
H476 H 0.40694 0.56749 0.83325 0.0
H477 H 0.36711 0.52305 0.85109 0.0
C478 C 0.36591 0.4948 0.91392 0.0
C479 C 0.36963 0.48167 0.94737 0.0
C480 C 0.38609 0.52229 0.90432 0.0
C481 C 0.39185 0.49739 0.9718 0.0
C482 C 0.41125 0.52513 0.96273 0.0
C483 C 0.43144 0.56345 0.91863 0.0
C484 C 0.43166 0.57406 0.88394 0.0
C485 C 0.40929 0.53735 0.92883 0.0
C486 C 0.40757 0.55959 0.86008 0.0
C487 C 0.38479 0.53414 0.87023 0.0
H488 H 0.66598 0.47059 0.44912 0.0
H489 H 0.63143 0.55391 0.39091 0.0
H490 H 0.58788 0.52108 0.35784 0.0
H491 H 0.55713 0.4688 0.34802 0.0
H492 H 0.58956 0.387 0.40984 0.0
H493 H 0.63697 0.41883 0.4385 0.0
C494 C 0.6493 0.48145 0.42882 0.0
C495 C 0.65192 0.51449 0.4223 0.0
C496 C 0.62399 0.46263 0.41057 0.0
C497 C 0.62967 0.52846 0.39644 0.0
C498 C 0.60489 0.50971 0.37751 0.0
C499 C 0.57506 0.45801 0.36738 0.0
C500 C 0.57015 0.42574 0.37686 0.0
C501 C 0.60147 0.4768 0.38465 0.0
C502 C 0.59297 0.41191 0.40231 0.0
C503 C 0.61998 0.43006 0.41872 0.0
H504 H 0.66241 0.52694 0.9841 0.0
H505 H 0.67413 0.46973 0.89155 0.0
H506 H 0.63251 0.50581 0.8606 0.0
H507 H 0.59164 0.5528 0.85991 0.0
H508 H 0.58237 0.61193 0.95104 0.0
H509 H 0.62514 0.57638 0.98204 0.0
C510 C 0.65649 0.52255 0.95699 0.0
C511 C 0.67128 0.49522 0.94047 0.0
C512 C 0.63302 0.54384 0.93898 0.0
C513 C 0.66259 0.48997 0.90538 0.0
C514 C 0.63898 0.51079 0.88747 0.0
C515 C 0.59905 0.558 0.88654 0.0
C516 C 0.58354 0.58483 0.90322 0.0
C517 C 0.62376 0.5376 0.9041 0.0
C518 C 0.59388 0.59145 0.93756 0.0
C519 C 0.61822 0.57105 0.95535 0.0
H520 H 0.33313 0.51263 0.39352 0.0
H521 H 0.3816 0.50816 0.49557 0.0
H522 H 0.41108 0.45713 0.48145 0.0
H523 H 0.4314 0.41842 0.43679 0.0
H524 H 0.38677 0.42593 0.33354 0.0
H525 H 0.34736 0.47064 0.35135 0.0
C526 C 0.34979 0.5003 0.41281 0.0
C527 C 0.35548 0.51449 0.44536 0.0
C528 C 0.36759 0.47143 0.40417 0.0
C529 C 0.37655 0.49782 0.47032 0.0
C530 C 0.39374 0.46869 0.46217 0.0
C531 C 0.41202 0.42919 0.41868 0.0
C532 C 0.41167 0.41894 0.38403 0.0
C533 C 0.39056 0.45585 0.42876 0.0
C534 C 0.38719 0.43344 0.36042 0.0
C535 C 0.36492 0.45915 0.37051 0.0
H536 H 0.83796 0.98958 0.90172 0.0
H537 H 0.85708 0.02485 0.00497 0.0
H538 H 0.89176 0.07041 0.98124 0.0
H539 H 0.92319 0.09627 0.93144 0.0
H540 H 0.90728 0.05822 0.82876 0.0
H541 H 0.86443 0.01814 0.85174 0.0
C542 C 0.8489 0.00773 0.91892 0.0
C543 C 0.84512 0.0039 0.95497 0.0
C544 C 0.86977 0.03321 0.90516 0.0
C545 C 0.8599 0.02728 0.97708 0.0
C546 C 0.87978 0.05325 0.96354 0.0
C547 C 0.90969 0.07962 0.9141 0.0
C548 C 0.91856 0.07999 0.87855 0.0
C549 C 0.88592 0.05591 0.92766 0.0
C550 C 0.90114 0.05814 0.85631 0.0
C551 C 0.87666 0.03521 0.86941 0.0
H552 H 0.11876 0.01838 0.44737 0.0
H553 H 0.20645 1.00055 0.37359 0.0
H554 H 0.16778 0.96074 0.34437 0.0
H555 H 0.10978 0.92845 0.34235 0.0
H556 H 0.02435 0.94635 0.4186 0.0
H557 H 0.061 0.98905 0.44373 0.0
C558 C 0.1292 0.00636 0.42442 0.0
C559 C 0.16534 0.01256 0.41261 0.0
C560 C 0.10717 0.98332 0.40823 0.0
C561 C 0.17873 0.99608 0.38334 0.0
C562 C 0.15662 0.97336 0.3666 0.0
C563 C 0.0992 0.94205 0.36416 0.0
C564 C 0.06462 0.93411 0.3788 0.0
C565 C 0.12092 0.96636 0.37917 0.0
C566 C 0.05115 0.95174 0.40718 0.0
C567 C 0.07202 0.97622 0.42157 0.0
H568 H 0.16627 0.98635 0.895 0.0
H569 H 0.13404 0.01242 0.9991 0.0
H570 H 0.09095 0.05221 0.97624 0.0
H571 H 0.0617 0.07925 0.92703 0.0
H572 H 0.0926 0.05321 0.82255 0.0
H573 H 0.13665 0.0138 0.84524 0.0
C574 C 0.14965 1.00062 0.91264 0.0
C575 C 0.15368 0.99648 0.94875 0.0
C576 C 0.12463 0.02351 0.89929 0.0
C577 C 0.13209 0.01542 0.97123 0.0
C578 C 0.10722 0.03809 0.95818 0.0
C579 C 0.07808 0.06506 0.90911 0.0
C580 C 0.07365 0.06925 0.87309 0.0
C581 C 0.10326 0.04237 0.92229 0.0
C582 C 0.09527 0.05053 0.8504 0.0
C583 C 0.1205 0.02792 0.86336 0.0
H584 H 0.85154 0.99884 0.45504 0.0
H585 H 0.8403 0.03761 0.35147 0.0
H586 H 0.87211 0.99088 0.32776 0.0
H587 H 0.90935 0.94246 0.33715 0.0
H588 H 0.92067 0.9033 0.44045 0.0
H589 H 0.88163 0.94633 0.46349 0.0
C590 C 0.8551 0.99669 0.42719 0.0
C591 C 0.84405 0.02199 0.40512 0.0
C592 C 0.87366 0.96981 0.41373 0.0
C593 C 0.84921 0.01883 0.36911 0.0
C594 C 0.86734 0.99208 0.35552 0.0
C595 C 0.90284 0.9431 0.36466 0.0
C596 C 0.91834 0.92008 0.38715 0.0
C597 C 0.88077 0.96801 0.3777 0.0
C598 C 0.90917 0.92082 0.42261 0.0
C599 C 0.88704 0.94553 0.43582 0.0
H600 H 0.34027 0.32188 0.14973 0.0
H601 H 0.30726 0.42068 0.16252 0.0
H602 H 0.34457 0.42397 0.21525 0.0
H603 H 0.3926 0.40031 0.25346 0.0
H604 H 0.42404 0.30122 0.23913 0.0
H605 H 0.38037 0.29645 0.19177 0.0
C606 C 0.33996 0.34391 0.16452 0.0
C607 C 0.32119 0.37107 0.15179 0.0
C608 C 0.36164 0.34572 0.19443 0.0
C609 C 0.32199 0.39951 0.1713 0.0
C610 C 0.34332 0.40142 0.20148 0.0
C611 C 0.38947 0.37759 0.24027 0.0
C612 C 0.41226 0.35143 0.2493 0.0
C613 C 0.36435 0.37497 0.21259 0.0
C614 C 0.4075 0.322 0.23225 0.0
C615 C 0.38243 0.31916 0.20517 0.0
H616 H 0.68655 0.60136 0.67817 0.0
H617 H 0.63123 0.67257 0.61519 0.0
H618 H 0.59142 0.68673 0.66421 0.0
H619 H 0.569 0.67591 0.72346 0.0
H620 H 0.62242 0.60272 0.78533 0.0
H621 H 0.66612 0.59229 0.7382 0.0
C622 C 0.66572 0.61993 0.6751 0.0
C623 C 0.66173 0.63566 0.64289 0.0
C624 C 0.64244 0.62753 0.70319 0.0
C625 C 0.63514 0.6602 0.63969 0.0
C626 C 0.61217 0.66818 0.66767 0.0
C627 C 0.59052 0.65798 0.72685 0.0
C628 C 0.59224 0.64 0.75787 0.0
C629 C 0.61515 0.65163 0.69936 0.0
C630 C 0.62026 0.61677 0.76169 0.0
C631 C 0.64526 0.61074 0.73471 0.0
H632 H 0.63117 0.4002 0.13584 0.0
H633 H 0.69575 0.31704 0.16381 0.0
H634 H 0.65526 0.30747 0.2142 0.0
H635 H 0.60064 0.32296 0.2501 0.0
H636 H 0.5382 0.40743 0.22086 0.0
H637 H 0.57849 0.41596 0.17131 0.0
C638 C 0.63618 0.37976 0.15275 0.0
C639 C 0.66609 0.35916 0.14589 0.0
C640 C 0.61313 0.37463 0.18159 0.0
C641 C 0.67283 0.33326 0.16857 0.0
C642 C 0.64964 0.32775 0.19731 0.0
C643 C 0.59591 0.34319 0.23287 0.0
C644 C 0.56621 0.36438 0.23938 0.0
C645 C 0.61958 0.3483 0.20409 0.0
C646 C 0.56071 0.39062 0.21677 0.0
C647 C 0.58375 0.39561 0.18823 0.0
H648 H 0.4003 0.61237 0.62927 0.0
H649 H 0.35582 0.70761 0.64088 0.0
H650 H 0.38058 0.71025 0.70004 0.0
H651 H 0.41976 0.68689 0.74623 0.0
H652 H 0.46308 0.59095 0.73364 0.0
H653 H 0.43356 0.58707 0.67733 0.0
C654 C 0.3958 0.63355 0.64498 0.0
C655 C 0.3768 0.65989 0.63092 0.0
C656 C 0.41003 0.63481 0.67868 0.0
C657 C 0.3705 0.68709 0.65141 0.0
C658 C 0.38477 0.68862 0.68507 0.0
C659 C 0.42235 0.66501 0.73136 0.0
C660 C 0.4442 0.63951 0.74399 0.0
C661 C 0.40531 0.66286 0.6987 0.0
C662 C 0.44687 0.61116 0.72449 0.0
C663 C 0.43003 0.60886 0.69217 0.0
H664 H 0.85556 0.82128 0.14773 0.0
H665 H 0.79893 0.90655 0.18278 0.0
H666 H 0.83681 0.90681 0.23521 0.0
H667 H 0.88972 0.88515 0.2686 0.0
H668 H 0.94391 0.79875 0.23322 0.0
H669 H 0.90237 0.79627 0.18388 0.0
C670 C 0.85044 0.83943 0.1672 0.0
C671 C 0.82447 0.864 0.16096 0.0
C672 C 0.87215 0.83941 0.19722 0.0
C673 C 0.81914 0.88763 0.18646 0.0
C674 C 0.84076 0.88777 0.21653 0.0
C675 C 0.8922 0.86565 0.25024 0.0
C676 C 0.9203 0.84247 0.2544 0.0
C677 C 0.86806 0.86424 0.22172 0.0
C678 C 0.92277 0.81708 0.23064 0.0
C679 C 0.89904 0.81562 0.2023 0.0
H680 H 0.16366 0.09115 0.65838 0.0
H681 H 0.15052 0.18637 0.61589 0.0
H682 H 0.11127 0.20122 0.6653 0.0
H683 H 0.0765 0.18551 0.7186 0.0
H684 H 0.08763 0.08894 0.7579 0.0
H685 H 0.13176 0.07628 0.71189 0.0
C686 C 0.15206 0.11513 0.65976 0.0
C687 C 0.15962 0.13744 0.63319 0.0
C688 C 0.1291 0.12327 0.6878 0.0
C689 C 0.14519 0.16869 0.63599 0.0
C690 C 0.1226 0.17717 0.66418 0.0
C691 C 0.08918 0.16194 0.7173 0.0
C692 C 0.07888 0.13814 0.74147 0.0
C693 C 0.11387 0.15448 0.69002 0.0
C694 C 0.09507 0.10755 0.7394 0.0
C695 C 0.12021 0.10027 0.71309 0.0
H696 H 0.17188 0.82911 0.16608 0.0
H697 H 0.10576 0.90202 0.11577 0.0
H698 H 0.06212 0.90138 0.16412 0.0
H699 H 0.0432 0.88127 0.22086 0.0
H700 H 0.10749 0.80767 0.27197 0.0
H701 H 0.15149 0.80756 0.22324 0.0
C702 C 0.14789 0.84481 0.16578 0.0
C703 C 0.14202 0.86546 0.13721 0.0
C704 C 0.12271 0.84434 0.19384 0.0
C705 C 0.11066 0.88552 0.13708 0.0
C706 C 0.0858 0.88536 0.16487 0.0
C707 C 0.06689 0.86522 0.22153 0.0
C708 C 0.07218 0.84469 0.25021 0.0
C709 C 0.09165 0.86504 0.19341 0.0
C710 C 0.10278 0.82375 0.25025 0.0
C711 C 0.12794 0.82371 0.2224 0.0
H712 H 0.85214 0.17504 0.63829 0.0
H713 H 0.84928 0.07181 0.63386 0.0
H714 H 0.88106 0.06837 0.68976 0.0
H715 H 0.9161 0.09493 0.73626 0.0
H716 H 0.92122 0.19828 0.73826 0.0
H717 H 0.88149 0.20146 0.68737 0.0
C718 C 0.85753 0.15179 0.65 0.0
C719 C 0.84851 0.12374 0.63195 0.0
C720 C 0.87657 0.15003 0.68159 0.0
C721 C 0.85628 0.09376 0.64718 0.0
C722 C 0.87447 0.09179 0.67909 0.0
C723 C 0.9079 0.11811 0.72592 0.0
C724 C 0.92192 0.14631 0.74072 0.0
C725 C 0.88578 0.11979 0.69601 0.0
C726 C 0.91117 0.17621 0.72702 0.0
C727 C 0.88846 0.17807 0.69792 0.0
loop_
_geom_bond_atom_site_label_1
_geom_bond_atom_site_label_2
_geom_bond_distance
_geom_bond_site_symmetry_2
_ccdc_geom_bond_type
P0 O11 1.490 . S
P0 C14 1.812 1_556 S
P0 C20 1.803 . S
P0 C26 1.819 . S
H1 C15 0.941 . S
H2 C16 0.939 . S
H3 C18 0.940 . S
H4 C19 0.940 . S
H5 C21 0.939 . S
H6 C22 0.942 . S
H7 C24 0.940 1_554 S
H8 C25 0.950 . S
H9 C27 0.941 . S
H10 C31 0.939 . S
O11 P0 1.490 . S
H12 C28 0.939 . S
H13 C30 0.940 . S
C14 P0 1.812 1_554 S
C14 C15 1.389 . S
C14 C19 1.391 . S
C15 H1 0.941 . S
C15 C14 1.389 . S
C15 C16 1.397 . S
C16 H2 0.939 . S
C16 C15 1.397 . S
C16 C17 1.378 . S
C17 C16 1.378 . S
C17 C18 1.378 . S
C18 H3 0.940 . S
C18 C17 1.378 . S
C18 C19 1.396 . S
C19 H4 0.940 . S
C19 C14 1.391 . S
C19 C18 1.396 . S
C20 P0 1.803 . S
C20 C21 1.378 . S
C20 C25 1.393 1_556 S
C21 H5 0.939 . S
C21 C20 1.378 . S
C21 C22 1.361 . S
C22 H6 0.942 . S
C22 C21 1.361 . S
C22 C23 1.369 . S
C23 C22 1.369 . S
C23 C24 1.404 . S
C24 H7 0.940 1_556 S
C24 C23 1.404 . S
C24 C25 1.386 1_556 S
C25 H8 0.950 . S
C25 C20 1.393 1_554 S
C25 C24 1.386 1_554 S
C26 P0 1.819 . S
C26 C27 1.391 . S
C26 C31 1.391 . S
C27 H9 0.941 . S
C27 C26 1.391 . S
C27 C28 1.396 . S
C28 H12 0.939 . S
C28 C27 1.396 . S
C28 C29 1.397 . S
C29 C28 1.397 . S
C29 C30 1.385 . S
C30 H13 0.940 . S
C30 C29 1.385 . S
C30 C31 1.388 . S
C31 H10 0.939 . S
C31 C26 1.391 . S
C31 C30 1.388 . S
P32 O43 1.490 . S
P32 C46 1.812 . S
P32 C52 1.803 . S
P32 C58 1.819 . S
H33 C47 0.941 . S
H34 C48 0.939 . S
H35 C50 0.940 . S
H36 C51 0.940 . S
H37 C53 0.939 . S
H38 C54 0.942 . S
H39 C56 0.940 . S
H40 C57 0.939 . S
H41 C59 0.941 . S
H42 C63 0.939 . S
O43 P32 1.490 . S
H44 C60 0.939 . S
H45 C62 0.940 . S
C46 P32 1.812 . S
C46 C47 1.389 . S
C46 C51 1.391 . S
C47 H33 0.941 . S
C47 C46 1.389 . S
C47 C48 1.397 . S
C48 H34 0.939 . S
C48 C47 1.397 . S
C48 C49 1.378 . S
C49 C48 1.378 . S
C49 C50 1.378 . S
C50 H35 0.940 . S
C50 C49 1.378 . S
C50 C51 1.396 . S
C51 H36 0.940 . S
C51 C46 1.391 . S
C51 C50 1.396 . S
C52 P32 1.803 . S
C52 C53 1.378 . S
C52 C57 1.400 . S
C53 H37 0.939 . S
C53 C52 1.378 . S
C53 C54 1.361 . S
C54 H38 0.942 . S
C54 C53 1.361 . S
C54 C55 1.369 . S
C55 C54 1.369 . S
C55 C56 1.404 . S
C56 H39 0.940 . S
C56 C55 1.404 . S
C56 C57 1.389 . S
C57 H40 0.939 . S
C57 C52 1.400 . S
C57 C56 1.389 . S
C58 P32 1.819 . S
C58 C59 1.391 . S
C58 C63 1.391 . S
C59 H41 0.941 . S
C59 C58 1.391 . S
C59 C60 1.396 . S
C60 H44 0.939 . S
C60 C59 1.396 . S
C60 C61 1.397 . S
C61 C60 1.397 . S
C61 C62 1.385 . S
C62 H45 0.940 . S
C62 C61 1.385 . S
C62 C63 1.388 . S
C63 H42 0.939 . S
C63 C58 1.391 . S
C63 C62 1.388 . S
P64 O75 1.490 . S
P64 C78 1.812 . S
P64 C84 1.803 . S
P64 C90 1.819 1_554 S
H65 C79 0.941 . S
H66 C80 0.939 . S
H67 C82 0.940 . S
H68 C83 0.940 . S
H69 C85 0.939 . S
H70 C86 0.942 . S
H71 C88 0.940 . S
H72 C89 0.939 1_554 S
H73 C91 0.941 . S
H74 C95 0.939 . S
O75 P64 1.490 . S
H76 C92 0.939 . S
H77 C94 0.940 . S
C78 P64 1.812 . S
C78 C79 1.389 . S
C78 C83 1.391 . S
C79 H65 0.941 . S
C79 C78 1.389 . S
C79 C80 1.397 . S
C80 H66 0.939 . S
C80 C79 1.397 . S
C80 C81 1.378 . S
C81 C80 1.378 . S
C81 C82 1.378 . S
C82 H67 0.940 . S
C82 C81 1.378 . S
C82 C83 1.396 . S
C83 H68 0.940 . S
C83 C78 1.391 . S
C83 C82 1.396 . S
C84 P64 1.803 . S
C84 C85 1.378 1_554 S
C84 C89 1.400 1_554 S
C85 H69 0.939 . S
C85 C84 1.378 1_556 S
C85 C86 1.361 . S
C86 H70 0.942 . S
C86 C85 1.361 . S
C86 C87 1.369 . S
C87 C86 1.369 . S
C87 C88 1.404 . S
C88 H71 0.940 . S
C88 C87 1.404 . S
C88 C89 1.389 . S
C89 H72 0.939 1_556 S
C89 C84 1.400 1_556 S
C89 C88 1.389 . S
C90 P64 1.819 1_556 S
C90 C91 1.391 1_556 S
C90 C95 1.391 . S
C91 H73 0.941 . S
C91 C90 1.391 1_554 S
C91 C92 1.396 1_554 S
C92 H76 0.939 . S
C92 C91 1.396 1_556 S
C92 C93 1.397 . S
C93 C92 1.397 . S
C93 C94 1.385 . S
C94 H77 0.940 . S
C94 C93 1.385 . S
C94 C95 1.388 . S
C95 H74 0.939 . S
C95 C90 1.391 . S
C95 C94 1.388 . S
P96 O107 1.490 . S
P96 C110 1.812 . S
P96 C116 1.803 . S
P96 C122 1.819 . S
H97 C111 0.941 . S
H98 C112 0.939 . S
H99 C114 0.940 . S
H100 C115 0.940 . S
H101 C117 0.939 . S
H102 C118 0.942 . S
H103 C120 0.940 . S
H104 C121 0.939 . S
H105 C123 0.941 . S
H106 C127 0.939 . S
O107 P96 1.490 . S
H108 C124 0.939 . S
H109 C126 0.940 . S
C110 P96 1.812 . S
C110 C111 1.389 . S
C110 C115 1.391 . S
C111 H97 0.941 . S
C111 C110 1.389 . S
C111 C112 1.397 . S
C112 H98 0.939 . S
C112 C111 1.397 . S
C112 C113 1.378 . S
C113 C112 1.378 . S
C113 C114 1.378 . S
C114 H99 0.940 . S
C114 C113 1.378 . S
C114 C115 1.396 . S
C115 H100 0.940 . S
C115 C110 1.391 . S
C115 C114 1.396 . S
C116 P96 1.803 . S
C116 C117 1.378 . S
C116 C121 1.400 . S
C117 H101 0.939 . S
C117 C116 1.378 . S
C117 C118 1.361 . S
C118 H102 0.942 . S
C118 C117 1.361 . S
C118 C119 1.369 . S
C119 C118 1.369 . S
C119 C120 1.404 . S
C120 H103 0.940 . S
C120 C119 1.404 . S
C120 C121 1.389 . S
C121 H104 0.939 . S
C121 C116 1.400 . S
C121 C120 1.389 . S
C122 P96 1.819 . S
C122 C123 1.391 . S
C122 C127 1.391 . S
C123 H105 0.941 . S
C123 C122 1.391 . S
C123 C124 1.396 . S
C124 H108 0.939 . S
C124 C123 1.396 . S
C124 C125 1.397 . S
C125 C124 1.397 . S
C125 C126 1.385 . S
C126 H109 0.940 . S
C126 C125 1.385 . S
C126 C127 1.388 . S
C127 H106 0.939 . S
C127 C122 1.391 . S
C127 C126 1.388 . S
P128 O139 1.490 . S
P128 C142 1.812 1_556 S
P128 C148 1.803 . S
P128 C154 1.819 . S
H129 C143 0.941 . S
H130 C144 0.939 . S
H131 C146 0.940 . S
H132 C147 0.940 . S
H133 C149 0.939 . S
H134 C150 0.942 . S
H135 C152 0.940 1_554 S
H136 C153 0.950 . S
H137 C155 0.941 . S
H138 C159 0.939 . S
O139 P128 1.490 . S
H140 C156 0.939 . S
H141 C158 0.940 . S
C142 P128 1.812 1_554 S
C142 C143 1.389 . S
C142 C147 1.391 . S
C143 H129 0.941 . S
C143 C142 1.389 . S
C143 C144 1.397 . S
C144 H130 0.939 . S
C144 C143 1.397 . S
C144 C145 1.378 . S
C145 C144 1.378 . S
C145 C146 1.378 . S
C146 H131 0.940 . S
C146 C145 1.378 . S
C146 C147 1.396 . S
C147 H132 0.940 . S
C147 C142 1.391 . S
C147 C146 1.396 . S
C148 P128 1.803 . S
C148 C149 1.378 . S
C148 C153 1.393 1_556 S
C149 H133 0.939 . S
C149 C148 1.378 . S
C149 C150 1.361 . S
C150 H134 0.942 . S
C150 C149 1.361 . S
C150 C151 1.369 . S
C151 C150 1.369 . S
C151 C152 1.404 . S
C152 H135 0.940 1_556 S
C152 C151 1.404 . S
C152 C153 1.386 1_556 S
C153 H136 0.950 . S
C153 C148 1.393 1_554 S
C153 C152 1.386 1_554 S
C154 P128 1.819 . S
C154 C155 1.391 . S
C154 C159 1.391 . S
C155 H137 0.941 . S
C155 C154 1.391 . S
C155 C156 1.396 . S
C156 H140 0.939 . S
C156 C155 1.396 . S
C156 C157 1.397 . S
C157 C156 1.397 . S
C157 C158 1.385 . S
C158 H141 0.940 . S
C158 C157 1.385 . S
C158 C159 1.388 . S
C159 H138 0.939 . S
C159 C154 1.391 . S
C159 C158 1.388 . S
P160 O171 1.490 . S
P160 C174 1.812 . S
P160 C180 1.803 . S
P160 C186 1.819 . S
H161 C175 0.941 . S
H162 C176 0.939 1_565 S
H163 C178 0.940 . S
H164 C179 0.940 . S
H165 C181 0.939 . S
H166 C182 0.942 . S
H167 C184 0.940 . S
H168 C185 0.939 . S
H169 C187 0.941 . S
H170 C191 0.939 . S
O171 P160 1.490 . S
H172 C188 0.939 . S
H173 C190 0.940 . S
C174 P160 1.812 . S
C174 C175 1.389 . S
C174 C179 1.391 . S
C175 H161 0.941 . S
C175 C174 1.389 . S
C175 C176 1.397 . S
C176 H162 0.939 1_545 S
C176 C175 1.397 . S
C176 C177 1.378 . S
C177 C176 1.378 . S
C177 C178 1.378 . S
C178 H163 0.940 . S
C178 C177 1.378 . S
C178 C179 1.396 . S
C179 H164 0.940 . S
C179 C174 1.391 . S
C179 C178 1.396 . S
C180 P160 1.803 . S
C180 C181 1.378 . S
C180 C185 1.400 . S
C181 H165 0.939 . S
C181 C180 1.378 . S
C181 C182 1.361 . S
C182 H166 0.942 . S
C182 C181 1.361 . S
C182 C183 1.369 . S
C183 C182 1.369 . S
C183 C184 1.404 . S
C184 H167 0.940 . S
C184 C183 1.404 . S
C184 C185 1.389 . S
C185 H168 0.939 . S
C185 C180 1.400 . S
C185 C184 1.389 . S
C186 P160 1.819 . S
C186 C187 1.391 . S
C186 C191 1.391 . S
C187 H169 0.941 . S
C187 C186 1.391 . S
C187 C188 1.396 . S
C188 H172 0.939 . S
C188 C187 1.396 . S
C188 C189 1.397 . S
C189 C188 1.397 . S
C189 C190 1.385 . S
C190 H173 0.940 . S
C190 C189 1.385 . S
C190 C191 1.388 . S
C191 H170 0.939 . S
C191 C186 1.391 . S
C191 C190 1.388 . S
P192 O203 1.490 . S
P192 C206 1.812 . S
P192 C212 1.803 . S
P192 C218 1.819 1_554 S
H193 C207 0.941 . S
H194 C208 0.939 . S
H195 C210 0.940 . S
H196 C211 0.940 . S
H197 C213 0.939 . S
H198 C214 0.942 . S
H199 C216 0.940 . S
H200 C217 0.939 1_554 S
H201 C219 0.941 . S
H202 C223 0.939 . S
O203 P192 1.490 . S
H204 C220 0.939 1_545 S
H205 C222 0.940 . S
C206 P192 1.812 . S
C206 C207 1.389 . S
C206 C211 1.391 . S
C207 H193 0.941 . S
C207 C206 1.389 . S
C207 C208 1.397 . S
C208 H194 0.939 . S
C208 C207 1.397 . S
C208 C209 1.378 . S
C209 C208 1.378 . S
C209 C210 1.378 . S
C210 H195 0.940 . S
C210 C209 1.378 . S
C210 C211 1.396 . S
C211 H196 0.940 . S
C211 C206 1.391 . S
C211 C210 1.396 . S
C212 P192 1.803 . S
C212 C213 1.378 1_554 S
C212 C217 1.400 1_554 S
C213 H197 0.939 . S
C213 C212 1.378 1_556 S
C213 C214 1.361 . S
C214 H198 0.942 . S
C214 C213 1.361 . S
C214 C215 1.369 . S
C215 C214 1.369 . S
C215 C216 1.404 . S
C216 H199 0.940 . S
C216 C215 1.404 . S
C216 C217 1.389 . S
C217 H200 0.939 1_556 S
C217 C212 1.400 1_556 S
C217 C216 1.389 . S
C218 P192 1.819 1_556 S
C218 C219 1.391 1_556 S
C218 C223 1.391 . S
C219 H201 0.941 . S
C219 C218 1.391 1_554 S
C219 C220 1.396 1_554 S
C220 H204 0.939 1_565 S
C220 C219 1.396 1_556 S
C220 C221 1.397 . S
C221 C220 1.397 . S
C221 C222 1.385 . S
C222 H205 0.940 . S
C222 C221 1.385 . S
C222 C223 1.388 . S
C223 H202 0.939 . S
C223 C218 1.391 . S
C223 C222 1.388 . S
P224 O235 1.490 . S
P224 C238 1.812 . S
P224 C244 1.803 . S
P224 C250 1.819 . S
H225 C239 0.941 . S
H226 C240 0.939 . S
H227 C242 0.940 . S
H228 C243 0.940 . S
H229 C245 0.939 . S
H230 C246 0.942 . S
H231 C248 0.940 . S
H232 C249 0.939 . S
H233 C251 0.941 . S
H234 C255 0.939 . S
O235 P224 1.490 . S
H236 C252 0.939 . S
H237 C254 0.940 . S
C238 P224 1.812 . S
C238 C239 1.389 . S
C238 C243 1.391 . S
C239 H225 0.941 . S
C239 C238 1.389 . S
C239 C240 1.397 . S
C240 H226 0.939 . S
C240 C239 1.397 . S
C240 C241 1.378 . S
C241 C240 1.378 . S
C241 C242 1.378 . S
C242 H227 0.940 . S
C242 C241 1.378 . S
C242 C243 1.396 . S
C243 H228 0.940 . S
C243 C238 1.391 . S
C243 C242 1.396 . S
C244 P224 1.803 . S
C244 C245 1.378 . S
C244 C249 1.400 . S
C245 H229 0.939 . S
C245 C244 1.378 . S
C245 C246 1.361 . S
C246 H230 0.942 . S
C246 C245 1.361 . S
C246 C247 1.369 . S
C247 C246 1.369 . S
C247 C248 1.404 . S
C248 H231 0.940 . S
C248 C247 1.404 . S
C248 C249 1.389 . S
C249 H232 0.939 . S
C249 C244 1.400 . S
C249 C248 1.389 . S
C250 P224 1.819 . S
C250 C251 1.391 . S
C250 C255 1.391 . S
C251 H233 0.941 . S
C251 C250 1.391 . S
C251 C252 1.396 . S
C252 H236 0.939 . S
C252 C251 1.396 . S
C252 C253 1.397 . S
C253 C252 1.397 . S
C253 C254 1.385 . S
C254 H237 0.940 . S
C254 C253 1.385 . S
C254 C255 1.388 . S
C255 H234 0.939 . S
C255 C250 1.391 . S
C255 C254 1.388 . S
Fe256 O258 1.918 . S
Fe256 O261 1.997 1_455 S
Fe256 O262 2.002 1_455 S
Fe256 O267 1.976 . S
Fe256 O270 1.996 . S
Fe257 O258 1.918 . S
Fe257 O265 1.997 1_455 S
Fe257 O268 1.996 . S
Fe257 O272 1.976 . S
Fe257 O275 2.002 1_455 S
O258 Fe256 1.918 . S
O258 Fe257 1.918 . S
O258 Fe259 1.918 . S
Fe259 O258 1.918 . S
Fe259 O260 2.002 1_455 S
Fe259 O269 1.976 . S
Fe259 O273 1.996 . S
Fe259 O276 1.997 1_455 S
O260 Fe259 2.002 1_655 S
O260 C277 1.295 . S
O261 Fe256 1.997 1_655 S
O261 C277 1.235 . S
O262 Fe256 2.002 1_655 S
O262 C263 1.295 . S
C263 O262 1.295 . S
C263 O265 1.235 . S
C264 O269 1.287 . S
C264 O270 1.255 . S
O265 Fe257 1.997 1_655 S
O265 C263 1.235 . S
C266 O272 1.287 . S
C266 O273 1.255 . S
O267 Fe256 1.976 . S
O267 C274 1.287 . S
O268 Fe257 1.996 . S
O268 C274 1.255 . S
O269 Fe259 1.976 . S
O269 C264 1.287 . S
O270 Fe256 1.996 . S
O270 C264 1.255 . S
C271 O275 1.295 . S
C271 O276 1.235 . S
O272 Fe257 1.976 . S
O272 C266 1.287 . S
O273 Fe259 1.996 . S
O273 C266 1.255 . S
C274 O267 1.287 . S
C274 O268 1.255 . S
O275 Fe257 2.002 1_655 S
O275 C271 1.295 . S
O276 Fe259 1.997 1_655 S
O276 C271 1.235 . S
C277 O260 1.295 . S
C277 O261 1.235 . S
Fe278 O280 1.919 . S
Fe278 O283 1.974 1_655 S
Fe278 O284 1.979 1_655 S
Fe278 O289 1.999 . S
Fe278 O292 2.018 . S
Fe279 O280 1.919 . S
Fe279 O287 1.974 1_655 S
Fe279 O290 2.018 . S
Fe279 O294 1.998 . S
Fe279 O297 1.980 1_655 S
O280 Fe278 1.919 . S
O280 Fe279 1.919 . S
O280 Fe281 1.919 . S
Fe281 O280 1.919 . S
Fe281 O282 1.980 1_655 S
Fe281 O291 1.998 . S
Fe281 O295 2.018 . S
Fe281 O298 1.974 1_655 S
O282 Fe281 1.980 1_455 S
O282 C299 1.295 . S
O283 Fe278 1.974 1_455 S
O283 C299 1.235 . S
O284 Fe278 1.979 1_455 S
O284 C285 1.295 . S
C285 O284 1.295 . S
C285 O287 1.235 . S
C286 O291 1.287 . S
C286 O292 1.255 . S
O287 Fe279 1.974 1_455 S
O287 C285 1.235 . S
C288 O294 1.287 . S
C288 O295 1.255 . S
O289 Fe278 1.999 . S
O289 C296 1.287 . S
O290 Fe279 2.018 . S
O290 C296 1.255 . S
O291 Fe281 1.998 . S
O291 C286 1.287 . S
O292 Fe278 2.018 . S
O292 C286 1.255 . S
C293 O297 1.295 . S
C293 O298 1.235 . S
O294 Fe279 1.998 . S
O294 C288 1.287 . S
O295 Fe281 2.018 . S
O295 C288 1.255 . S
C296 O289 1.287 . S
C296 O290 1.255 . S
O297 Fe279 1.980 1_455 S
O297 C293 1.295 . S
O298 Fe281 1.974 1_455 S
O298 C293 1.235 . S
C299 O282 1.295 . S
C299 O283 1.235 . S
Fe300 O302 1.918 . S
Fe300 O305 1.997 . S
Fe300 O306 2.002 . S
Fe300 O311 1.976 . S
Fe300 O314 1.996 . S
Fe301 O302 1.918 . S
Fe301 O309 1.997 . S
Fe301 O312 1.996 . S
Fe301 O316 1.976 . S
Fe301 O319 2.002 . S
O302 Fe300 1.918 . S
O302 Fe301 1.918 . S
O302 Fe303 1.918 . S
Fe303 O302 1.918 . S
Fe303 O304 2.002 . S
Fe303 O313 1.976 . S
Fe303 O317 1.996 . S
Fe303 O320 1.997 . S
O304 Fe303 2.002 . S
O304 C321 1.295 . S
O305 Fe300 1.997 . S
O305 C321 1.235 . S
O306 Fe300 2.002 . S
O306 C307 1.295 . S
C307 O306 1.295 . S
C307 O309 1.235 . S
C308 O313 1.287 . S
C308 O314 1.255 . S
O309 Fe301 1.997 . S
O309 C307 1.235 . S
C310 O316 1.287 . S
C310 O317 1.255 . S
O311 Fe300 1.976 . S
O311 C318 1.287 . S
O312 Fe301 1.996 . S
O312 C318 1.255 . S
O313 Fe303 1.976 . S
O313 C308 1.287 . S
O314 Fe300 1.996 . S
O314 C308 1.255 . S
C315 O319 1.295 . S
C315 O320 1.235 . S
O316 Fe301 1.976 . S
O316 C310 1.287 . S
O317 Fe303 1.996 . S
O317 C310 1.255 . S
C318 O311 1.287 . S
C318 O312 1.255 . S
O319 Fe301 2.002 . S
O319 C315 1.295 . S
O320 Fe303 1.997 . S
O320 C315 1.235 . S
C321 O304 1.295 . S
C321 O305 1.235 . S
Fe322 O324 1.918 . S
Fe322 O327 1.997 . S
Fe322 O328 2.002 . S
Fe322 O333 1.976 . S
Fe322 O336 1.996 . S
Fe323 O324 1.918 . S
Fe323 O331 1.997 . S
Fe323 O334 1.996 . S
Fe323 O338 1.976 . S
Fe323 O341 2.002 . S
O324 Fe322 1.918 . S
O324 Fe323 1.918 . S
O324 Fe325 1.918 . S
Fe325 O324 1.918 . S
Fe325 O326 2.002 . S
Fe325 O335 1.976 . S
Fe325 O339 1.996 . S
Fe325 O342 1.997 . S
O326 Fe325 2.002 . S
O326 C343 1.295 . S
O327 Fe322 1.997 . S
O327 C343 1.235 . S
O328 Fe322 2.002 . S
O328 C329 1.295 . S
C329 O328 1.295 . S
C329 O331 1.235 . S
C330 O335 1.287 . S
C330 O336 1.255 . S
O331 Fe323 1.997 . S
O331 C329 1.235 . S
C332 O338 1.287 . S
C332 O339 1.255 . S
O333 Fe322 1.976 . S
O333 C340 1.287 . S
O334 Fe323 1.996 . S
O334 C340 1.255 . S
O335 Fe325 1.976 . S
O335 C330 1.287 . S
O336 Fe322 1.996 . S
O336 C330 1.255 . S
C337 O341 1.295 . S
C337 O342 1.235 . S
O338 Fe323 1.976 . S
O338 C332 1.287 . S
O339 Fe325 1.996 . S
O339 C332 1.255 . S
C340 O333 1.287 . S
C340 O334 1.255 . S
O341 Fe323 2.002 . S
O341 C337 1.295 . S
O342 Fe325 1.997 . S
O342 C337 1.235 . S
C343 O326 1.295 . S
C343 O327 1.235 . S
H344 C350 0.930 . S
H345 C353 0.930 . S
H346 C354 0.930 . S
H347 C355 0.930 . S
H348 C358 0.930 . S
H349 C359 0.930 . S
C350 H344 0.930 . S
C350 C351 1.355 . S
C350 C352 1.415 . S
C351 C350 1.355 . S
C351 C353 1.419 . S
C352 C350 1.415 . S
C352 C357 1.425 . S
C352 C359 1.409 . S
C353 H345 0.930 . S
C353 C351 1.419 . S
C353 C354 1.362 . S
C354 H346 0.930 . S
C354 C353 1.362 . S
C354 C357 1.409 . S
C355 H347 0.930 . S
C355 C356 1.355 . S
C355 C357 1.415 . S
C356 C355 1.355 . S
C356 C358 1.419 . S
C357 C352 1.425 . S
C357 C354 1.409 . S
C357 C355 1.415 . S
C358 H348 0.930 . S
C358 C356 1.419 . S
C358 C359 1.362 . S
C359 H349 0.930 . S
C359 C352 1.409 . S
C359 C358 1.362 . S
H360 C366 0.930 . S
H361 C369 0.930 . S
H362 C370 0.930 . S
H363 C371 0.930 . S
H364 C374 0.930 . S
H365 C375 0.930 . S
C366 H360 0.930 . S
C366 C367 1.355 . S
C366 C368 1.415 . S
C367 C366 1.355 . S
C367 C369 1.419 . S
C368 C366 1.415 . S
C368 C373 1.425 . S
C368 C375 1.409 . S
C369 H361 0.930 . S
C369 C367 1.419 . S
C369 C370 1.362 . S
C370 H362 0.930 . S
C370 C369 1.362 . S
C370 C373 1.409 . S
C371 H363 0.930 . S
C371 C372 1.355 . S
C371 C373 1.415 . S
C372 C371 1.355 . S
C372 C374 1.419 . S
C373 C368 1.425 . S
C373 C370 1.409 . S
C373 C371 1.415 . S
C374 H364 0.930 . S
C374 C372 1.419 . S
C374 C375 1.362 . S
C375 H365 0.930 . S
C375 C368 1.409 . S
C375 C374 1.362 . S
H376 C382 0.930 . S
H377 C385 0.930 . S
H378 C386 0.930 . S
H379 C387 0.930 . S
H380 C390 0.930 . S
H381 C391 0.930 . S
C382 H376 0.930 . S
C382 C383 1.355 . S
C382 C384 1.415 . S
C383 C382 1.355 . S
C383 C385 1.419 . S
C384 C382 1.415 . S
C384 C389 1.425 . S
C384 C391 1.409 . S
C385 H377 0.930 . S
C385 C383 1.419 . S
C385 C386 1.362 . S
C386 H378 0.930 . S
C386 C385 1.362 . S
C386 C389 1.409 . S
C387 H379 0.930 . S
C387 C388 1.355 . S
C387 C389 1.415 . S
C388 C387 1.355 . S
C388 C390 1.419 . S
C389 C384 1.425 . S
C389 C386 1.409 . S
C389 C387 1.415 . S
C390 H380 0.930 . S
C390 C388 1.419 . S
C390 C391 1.362 . S
C391 H381 0.930 . S
C391 C384 1.409 . S
C391 C390 1.362 . S
H392 C398 0.930 . S
H393 C401 0.930 . S
H394 C402 0.930 . S
H395 C403 0.930 . S
H396 C406 0.930 . S
H397 C407 0.930 . S
C398 H392 0.930 . S
C398 C399 1.355 . S
C398 C400 1.415 . S
C399 C398 1.355 . S
C399 C401 1.419 . S
C400 C398 1.415 . S
C400 C405 1.425 . S
C400 C407 1.409 . S
C401 H393 0.930 . S
C401 C399 1.419 . S
C401 C402 1.362 . S
C402 H394 0.930 . S
C402 C401 1.362 . S
C402 C405 1.409 . S
C403 H395 0.930 . S
C403 C404 1.355 . S
C403 C405 1.415 . S
C404 C403 1.355 . S
C404 C406 1.419 . S
C405 C400 1.425 . S
C405 C402 1.409 . S
C405 C403 1.415 . S
C406 H396 0.930 . S
C406 C404 1.419 . S
C406 C407 1.362 . S
C407 H397 0.930 . S
C407 C400 1.409 . S
C407 C406 1.362 . S
H408 C414 0.930 . S
H409 C417 0.930 . S
H410 C418 0.930 . S
H411 C419 0.930 . S
H412 C422 0.930 . S
H413 C423 0.930 . S
C414 H408 0.930 . S
C414 C415 1.355 . S
C414 C416 1.415 . S
C415 C414 1.355 . S
C415 C417 1.419 . S
C416 C414 1.415 . S
C416 C421 1.425 . S
C416 C423 1.409 . S
C417 H409 0.930 . S
C417 C415 1.419 . S
C417 C418 1.362 . S
C418 H410 0.930 . S
C418 C417 1.362 . S
C418 C421 1.409 . S
C419 H411 0.930 . S
C419 C420 1.355 . S
C419 C421 1.415 . S
C420 C419 1.355 . S
C420 C422 1.419 . S
C421 C416 1.425 . S
C421 C418 1.409 . S
C421 C419 1.415 . S
C422 H412 0.930 . S
C422 C420 1.419 . S
C422 C423 1.362 . S
C423 H413 0.930 . S
C423 C416 1.409 . S
C423 C422 1.362 . S
H424 C430 0.930 . S
H425 C433 0.930 . S
H426 C434 0.930 . S
H427 C435 0.930 . S
H428 C438 0.930 . S
H429 C439 0.930 . S
C430 H424 0.930 . S
C430 C431 1.355 . S
C430 C432 1.415 . S
C431 C430 1.355 . S
C431 C433 1.419 . S
C432 C430 1.415 . S
C432 C437 1.425 . S
C432 C439 1.409 . S
C433 H425 0.930 . S
C433 C431 1.419 . S
C433 C434 1.362 . S
C434 H426 0.930 . S
C434 C433 1.362 . S
C434 C437 1.409 . S
C435 H427 0.930 . S
C435 C436 1.355 . S
C435 C437 1.415 . S
C436 C435 1.355 . S
C436 C438 1.419 . S
C437 C432 1.425 . S
C437 C434 1.409 . S
C437 C435 1.415 . S
C438 H428 0.930 . S
C438 C436 1.419 . S
C438 C439 1.362 . S
C439 H429 0.930 . S
C439 C432 1.409 . S
C439 C438 1.362 . S
H440 C446 0.930 . S
H441 C449 0.930 . S
H442 C450 0.930 . S
H443 C451 0.930 . S
H444 C454 0.930 . S
H445 C455 0.930 . S
C446 H440 0.930 . S
C446 C447 1.355 . S
C446 C448 1.415 . S
C447 C446 1.355 . S
C447 C449 1.419 . S
C448 C446 1.415 . S
C448 C453 1.425 . S
C448 C455 1.409 . S
C449 H441 0.930 . S
C449 C447 1.419 . S
C449 C450 1.362 . S
C450 H442 0.930 . S
C450 C449 1.362 . S
C450 C453 1.409 . S
C451 H443 0.930 . S
C451 C452 1.355 . S
C451 C453 1.415 . S
C452 C451 1.355 . S
C452 C454 1.419 . S
C453 C448 1.425 . S
C453 C450 1.409 . S
C453 C451 1.415 . S
C454 H444 0.930 . S
C454 C452 1.419 . S
C454 C455 1.362 . S
C455 H445 0.930 . S
C455 C448 1.409 . S
C455 C454 1.362 . S
H456 C462 0.930 . S
H457 C465 0.930 . S
H458 C466 0.930 . S
H459 C467 0.930 . S
H460 C470 0.930 . S
H461 C471 0.930 . S
C462 H456 0.930 . S
C462 C463 1.355 . S
C462 C464 1.415 . S
C463 C462 1.355 . S
C463 C465 1.419 . S
C464 C462 1.415 . S
C464 C469 1.425 . S
C464 C471 1.409 . S
C465 H457 0.930 . S
C465 C463 1.419 . S
C465 C466 1.362 . S
C466 H458 0.930 . S
C466 C465 1.362 . S
C466 C469 1.409 . S
C467 H459 0.930 . S
C467 C468 1.355 . S
C467 C469 1.415 . S
C468 C467 1.355 . S
C468 C470 1.419 . S
C469 C464 1.425 . S
C469 C466 1.409 . S
C469 C467 1.415 . S
C470 H460 0.930 . S
C470 C468 1.419 . S
C470 C471 1.362 . S
C471 H461 0.930 . S
C471 C464 1.409 . S
C471 C470 1.362 . S
H472 C478 0.930 . S
H473 C481 0.930 . S
H474 C482 0.930 . S
H475 C483 0.930 . S
H476 C486 0.930 . S
H477 C487 0.930 . S
C478 H472 0.930 . S
C478 C479 1.355 . S
C478 C480 1.415 . S
C479 C478 1.355 . S
C479 C481 1.419 . S
C480 C478 1.415 . S
C480 C485 1.425 . S
C480 C487 1.409 . S
C481 H473 0.930 . S
C481 C479 1.419 . S
C481 C482 1.362 . S
C482 H474 0.930 . S
C482 C481 1.362 . S
C482 C485 1.409 . S
C483 H475 0.930 . S
C483 C484 1.355 . S
C483 C485 1.415 . S
C484 C483 1.355 . S
C484 C486 1.419 . S
C485 C480 1.425 . S
C485 C482 1.409 . S
C485 C483 1.415 . S
C486 H476 0.930 . S
C486 C484 1.419 . S
C486 C487 1.362 . S
C487 H477 0.930 . S
C487 C480 1.409 . S
C487 C486 1.362 . S
H488 C494 0.930 . S
H489 C497 0.930 . S
H490 C498 0.930 . S
H491 C499 0.930 . S
H492 C502 0.930 . S
H493 C503 0.930 . S
C494 H488 0.930 . S
C494 C495 1.355 . S
C494 C496 1.415 . S
C495 C494 1.355 . S
C495 C497 1.419 . S
C496 C494 1.415 . S
C496 C501 1.425 . S
C496 C503 1.409 . S
C497 H489 0.930 . S
C497 C495 1.419 . S
C497 C498 1.362 . S
C498 H490 0.930 . S
C498 C497 1.362 . S
C498 C501 1.409 . S
C499 H491 0.930 . S
C499 C500 1.355 . S
C499 C501 1.415 . S
C500 C499 1.355 . S
C500 C502 1.419 . S
C501 C496 1.425 . S
C501 C498 1.409 . S
C501 C499 1.415 . S
C502 H492 0.930 . S
C502 C500 1.419 . S
C502 C503 1.362 . S
C503 H493 0.930 . S
C503 C496 1.409 . S
C503 C502 1.362 . S
H504 C510 0.930 . S
H505 C513 0.930 . S
H506 C514 0.930 . S
H507 C515 0.930 . S
H508 C518 0.930 . S
H509 C519 0.930 . S
C510 H504 0.930 . S
C510 C511 1.355 . S
C510 C512 1.415 . S
C511 C510 1.355 . S
C511 C513 1.419 . S
C512 C510 1.415 . S
C512 C517 1.425 . S
C512 C519 1.409 . S
C513 H505 0.930 . S
C513 C511 1.419 . S
C513 C514 1.362 . S
C514 H506 0.930 . S
C514 C513 1.362 . S
C514 C517 1.409 . S
C515 H507 0.930 . S
C515 C516 1.355 . S
C515 C517 1.415 . S
C516 C515 1.355 . S
C516 C518 1.419 . S
C517 C512 1.425 . S
C517 C514 1.409 . S
C517 C515 1.415 . S
C518 H508 0.930 . S
C518 C516 1.419 . S
C518 C519 1.362 . S
C519 H509 0.930 . S
C519 C512 1.409 . S
C519 C518 1.362 . S
H520 C526 0.930 . S
H521 C529 0.930 . S
H522 C530 0.930 . S
H523 C531 0.930 . S
H524 C534 0.930 . S
H525 C535 0.930 . S
C526 H520 0.930 . S
C526 C527 1.355 . S
C526 C528 1.415 . S
C527 C526 1.355 . S
C527 C529 1.419 . S
C528 C526 1.415 . S
C528 C533 1.425 . S
C528 C535 1.409 . S
C529 H521 0.930 . S
C529 C527 1.419 . S
C529 C530 1.362 . S
C530 H522 0.930 . S
C530 C529 1.362 . S
C530 C533 1.409 . S
C531 H523 0.930 . S
C531 C532 1.355 . S
C531 C533 1.415 . S
C532 C531 1.355 . S
C532 C534 1.419 . S
C533 C528 1.425 . S
C533 C530 1.409 . S
C533 C531 1.415 . S
C534 H524 0.930 . S
C534 C532 1.419 . S
C534 C535 1.362 . S
C535 H525 0.930 . S
C535 C528 1.409 . S
C535 C534 1.362 . S
H536 C542 0.930 1_565 S
H537 C545 0.930 . S
H538 C546 0.930 . S
H539 C547 0.930 . S
H540 C550 0.930 . S
H541 C551 0.930 . S
C542 H536 0.930 1_545 S
C542 C543 1.351 1_545 S
C542 C544 1.415 . S
C543 C542 1.351 1_565 S
C543 C545 1.404 1_565 S
C544 C542 1.415 . S
C544 C549 1.425 . S
C544 C551 1.409 . S
C545 H537 0.930 . S
C545 C543 1.404 1_545 S
C545 C546 1.362 . S
C546 H538 0.930 . S
C546 C545 1.362 . S
C546 C549 1.409 . S
C547 H539 0.930 . S
C547 C548 1.355 . S
C547 C549 1.415 . S
C548 C547 1.355 . S
C548 C550 1.419 . S
C549 C544 1.425 . S
C549 C546 1.409 . S
C549 C547 1.415 . S
C550 H540 0.930 . S
C550 C548 1.419 . S
C550 C551 1.362 . S
C551 H541 0.930 . S
C551 C544 1.409 . S
C551 C550 1.362 . S
H552 C558 0.930 . S
H553 C561 0.930 . S
H554 C562 0.930 . S
H555 C563 0.930 . S
H556 C566 0.930 . S
H557 C567 0.930 . S
C558 H552 0.930 . S
C558 C559 1.369 . S
C558 C560 1.415 . S
C559 C558 1.369 . S
C559 C561 1.418 1_565 S
C560 C558 1.415 . S
C560 C565 1.425 . S
C560 C567 1.409 . S
C561 H553 0.930 . S
C561 C559 1.418 1_545 S
C561 C562 1.362 1_545 S
C562 H554 0.930 . S
C562 C561 1.362 1_565 S
C562 C565 1.409 . S
C563 H555 0.930 . S
C563 C564 1.355 . S
C563 C565 1.415 . S
C564 C563 1.355 . S
C564 C566 1.419 . S
C565 C560 1.425 . S
C565 C562 1.409 . S
C565 C563 1.415 . S
C566 H556 0.930 . S
C566 C564 1.419 . S
C566 C567 1.362 . S
C567 H557 0.930 . S
C567 C560 1.409 . S
C567 C566 1.362 . S
H568 C574 0.930 . S
H569 C577 0.949 . S
H570 C578 0.930 . S
H571 C579 0.930 . S
H572 C582 0.930 . S
H573 C583 0.930 . S
C574 H568 0.930 . S
C574 C575 1.355 . S
C574 C576 1.415 . S
C575 C574 1.355 . S
C575 C577 1.417 1_545 S
C576 C574 1.415 . S
C576 C581 1.425 . S
C576 C583 1.409 . S
C577 H569 0.949 . S
C577 C575 1.417 1_565 S
C577 C578 1.346 1_565 S
C578 H570 0.930 . S
C578 C577 1.346 1_545 S
C578 C581 1.409 . S
C579 H571 0.930 . S
C579 C580 1.355 . S
C579 C581 1.415 . S
C580 C579 1.355 . S
C580 C582 1.419 . S
C581 C576 1.425 . S
C581 C578 1.409 . S
C581 C579 1.415 . S
C582 H572 0.930 . S
C582 C580 1.419 . S
C582 C583 1.362 . S
C583 H573 0.930 . S
C583 C576 1.409 . S
C583 C582 1.362 . S
H584 C590 0.930 . S
H585 C593 0.930 . S
H586 C594 0.930 . S
H587 C595 0.930 . S
H588 C598 0.930 . S
H589 C599 0.930 . S
C590 H584 0.930 . S
C590 C591 1.355 . S
C590 C592 1.415 . S
C591 C590 1.355 . S
C591 C593 1.419 1_565 S
C592 C590 1.415 . S
C592 C597 1.425 . S
C592 C599 1.409 . S
C593 H585 0.930 . S
C593 C591 1.419 1_545 S
C593 C594 1.362 1_545 S
C594 H586 0.930 . S
C594 C593 1.362 1_565 S
C594 C597 1.409 . S
C595 H587 0.930 . S
C595 C596 1.355 . S
C595 C597 1.415 . S
C596 C595 1.355 . S
C596 C598 1.419 . S
C597 C592 1.425 . S
C597 C594 1.409 . S
C597 C595 1.415 . S
C598 H588 0.930 . S
C598 C596 1.419 . S
C598 C599 1.362 . S
C599 H589 0.930 . S
C599 C592 1.409 . S
C599 C598 1.362 . S
H600 C606 0.930 . S
H601 C609 0.930 . S
H602 C610 0.930 . S
H603 C611 0.930 . S
H604 C614 0.930 . S
H605 C615 0.930 . S
C606 H600 0.930 . S
C606 C607 1.355 . S
C606 C608 1.415 . S
C607 C606 1.355 . S
C607 C609 1.419 . S
C608 C606 1.415 . S
C608 C613 1.425 . S
C608 C615 1.409 . S
C609 H601 0.930 . S
C609 C607 1.419 . S
C609 C610 1.362 . S
C610 H602 0.930 . S
C610 C609 1.362 . S
C610 C613 1.409 . S
C611 H603 0.930 . S
C611 C612 1.355 . S
C611 C613 1.415 . S
C612 C611 1.355 . S
C612 C614 1.419 . S
C613 C608 1.425 . S
C613 C610 1.409 . S
C613 C611 1.415 . S
C614 H604 0.930 . S
C614 C612 1.419 . S
C614 C615 1.362 . S
C615 H605 0.930 . S
C615 C608 1.409 . S
C615 C614 1.362 . S
H616 C622 0.930 . S
H617 C625 0.930 . S
H618 C626 0.930 . S
H619 C627 0.930 . S
H620 C630 0.930 . S
H621 C631 0.930 . S
C622 H616 0.930 . S
C622 C623 1.355 . S
C622 C624 1.415 . S
C623 C622 1.355 . S
C623 C625 1.419 . S
C624 C622 1.415 . S
C624 C629 1.425 . S
C624 C631 1.409 . S
C625 H617 0.930 . S
C625 C623 1.419 . S
C625 C626 1.362 . S
C626 H618 0.930 . S
C626 C625 1.362 . S
C626 C629 1.409 . S
C627 H619 0.930 . S
C627 C628 1.355 . S
C627 C629 1.415 . S
C628 C627 1.355 . S
C628 C630 1.419 . S
C629 C624 1.425 . S
C629 C626 1.409 . S
C629 C627 1.415 . S
C630 H620 0.930 . S
C630 C628 1.419 . S
C630 C631 1.362 . S
C631 H621 0.930 . S
C631 C624 1.409 . S
C631 C630 1.362 . S
H632 C638 0.930 . S
H633 C641 0.930 . S
H634 C642 0.930 . S
H635 C643 0.930 . S
H636 C646 0.930 . S
H637 C647 0.930 . S
C638 H632 0.930 . S
C638 C639 1.355 . S
C638 C640 1.415 . S
C639 C638 1.355 . S
C639 C641 1.419 . S
C640 C638 1.415 . S
C640 C645 1.425 . S
C640 C647 1.409 . S
C641 H633 0.930 . S
C641 C639 1.419 . S
C641 C642 1.362 . S
C642 H634 0.930 . S
C642 C641 1.362 . S
C642 C645 1.409 . S
C643 H635 0.930 . S
C643 C644 1.355 . S
C643 C645 1.415 . S
C644 C643 1.355 . S
C644 C646 1.419 . S
C645 C640 1.425 . S
C645 C642 1.409 . S
C645 C643 1.415 . S
C646 H636 0.930 . S
C646 C644 1.419 . S
C646 C647 1.362 . S
C647 H637 0.930 . S
C647 C640 1.409 . S
C647 C646 1.362 . S
H648 C654 0.930 . S
H649 C657 0.930 . S
H650 C658 0.930 . S
H651 C659 0.930 . S
H652 C662 0.930 . S
H653 C663 0.930 . S
C654 H648 0.930 . S
C654 C655 1.355 . S
C654 C656 1.415 . S
C655 C654 1.355 . S
C655 C657 1.419 . S
C656 C654 1.415 . S
C656 C661 1.425 . S
C656 C663 1.409 . S
C657 H649 0.930 . S
C657 C655 1.419 . S
C657 C658 1.362 . S
C658 H650 0.930 . S
C658 C657 1.362 . S
C658 C661 1.409 . S
C659 H651 0.930 . S
C659 C660 1.355 . S
C659 C661 1.415 . S
C660 C659 1.355 . S
C660 C662 1.419 . S
C661 C656 1.425 . S
C661 C658 1.409 . S
C661 C659 1.415 . S
C662 H652 0.930 . S
C662 C660 1.419 . S
C662 C663 1.362 . S
C663 H653 0.930 . S
C663 C656 1.409 . S
C663 C662 1.362 . S
H664 C670 0.930 . S
H665 C673 0.930 . S
H666 C674 0.930 . S
H667 C675 0.930 . S
H668 C678 0.930 . S
H669 C679 0.930 . S
C670 H664 0.930 . S
C670 C671 1.355 . S
C670 C672 1.415 . S
C671 C670 1.355 . S
C671 C673 1.419 . S
C672 C670 1.415 . S
C672 C677 1.425 . S
C672 C679 1.409 . S
C673 H665 0.930 . S
C673 C671 1.419 . S
C673 C674 1.362 . S
C674 H666 0.930 . S
C674 C673 1.362 . S
C674 C677 1.409 . S
C675 H667 0.930 . S
C675 C676 1.355 . S
C675 C677 1.415 . S
C676 C675 1.355 . S
C676 C678 1.419 . S
C677 C672 1.425 . S
C677 C674 1.409 . S
C677 C675 1.415 . S
C678 H668 0.930 . S
C678 C676 1.419 . S
C678 C679 1.362 . S
C679 H669 0.930 . S
C679 C672 1.409 . S
C679 C678 1.362 . S
H680 C686 0.930 . S
H681 C689 0.930 . S
H682 C690 0.930 . S
H683 C691 0.930 . S
H684 C694 0.930 . S
H685 C695 0.930 . S
C686 H680 0.930 . S
C686 C687 1.355 . S
C686 C688 1.415 . S
C687 C686 1.355 . S
C687 C689 1.419 . S
C688 C686 1.415 . S
C688 C693 1.425 . S
C688 C695 1.409 . S
C689 H681 0.930 . S
C689 C687 1.419 . S
C689 C690 1.362 . S
C690 H682 0.930 . S
C690 C689 1.362 . S
C690 C693 1.409 . S
C691 H683 0.930 . S
C691 C692 1.355 . S
C691 C693 1.415 . S
C692 C691 1.355 . S
C692 C694 1.419 . S
C693 C688 1.425 . S
C693 C690 1.409 . S
C693 C691 1.415 . S
C694 H684 0.930 . S
C694 C692 1.419 . S
C694 C695 1.362 . S
C695 H685 0.930 . S
C695 C688 1.409 . S
C695 C694 1.362 . S
H696 C702 0.930 . S
H697 C705 0.930 . S
H698 C706 0.930 . S
H699 C707 0.930 . S
H700 C710 0.930 . S
H701 C711 0.930 . S
C702 H696 0.930 . S
C702 C703 1.355 . S
C702 C704 1.415 . S
C703 C702 1.355 . S
C703 C705 1.419 . S
C704 C702 1.415 . S
C704 C709 1.425 . S
C704 C711 1.409 . S
C705 H697 0.930 . S
C705 C703 1.419 . S
C705 C706 1.362 . S
C706 H698 0.930 . S
C706 C705 1.362 . S
C706 C709 1.409 . S
C707 H699 0.930 . S
C707 C708 1.355 . S
C707 C709 1.415 . S
C708 C707 1.355 . S
C708 C710 1.419 . S
C709 C704 1.425 . S
C709 C706 1.409 . S
C709 C707 1.415 . S
C710 H700 0.930 . S
C710 C708 1.419 . S
C710 C711 1.362 . S
C711 H701 0.930 . S
C711 C704 1.409 . S
C711 C710 1.362 . S
H712 C718 0.930 . S
H713 C721 0.930 . S
H714 C722 0.930 . S
H715 C723 0.930 . S
H716 C726 0.930 . S
H717 C727 0.930 . S
C718 H712 0.930 . S
C718 C719 1.355 . S
C718 C720 1.415 . S
C719 C718 1.355 . S
C719 C721 1.419 . S
C720 C718 1.415 . S
C720 C725 1.425 . S
C720 C727 1.409 . S
C721 H713 0.930 . S
C721 C719 1.419 . S
C721 C722 1.362 . S
C722 H714 0.930 . S
C722 C721 1.362 . S
C722 C725 1.409 . S
C723 H715 0.930 . S
C723 C724 1.355 . S
C723 C725 1.415 . S
C724 C723 1.355 . S
C724 C726 1.419 . S
C725 C720 1.425 . S
C725 C722 1.409 . S
C725 C723 1.415 . S
C726 H716 0.930 . S
C726 C724 1.419 . S
C726 C727 1.362 . S
C727 H717 0.930 . S
C727 C720 1.409 . S
C727 C726 1.362 . S
C351 C23 1.535 . S
C356 C299 1.573 . S
C372 C263 1.482 . S
C367 C55 1.527 . S
C388 C286 1.555 . S
C383 C87 1.551 . S
C404 C274 1.482 . S
C399 C119 1.392 . S
C420 C343 1.556 . S
C415 C151 1.500 . S
C436 C307 1.530 . S
C431 C183 1.526 . S
C447 C215 1.552 . S
C452 C330 1.555 . S
C468 C318 1.492 . S
C463 C247 1.402 . S
C479 C29 1.453 . S
C484 C340 1.542 . S
C500 C310 1.479 . S
C495 C49 1.483 . S
C511 C93 1.566 . S
C516 C329 1.552 . S
C527 C113 1.432 . S
C532 C315 1.506 . S
C548 C296 1.541 . S
C543 C157 1.482 . S
C559 C177 1.467 1_565 S
C564 C266 1.475 . S
C580 C285 1.574 . S
C575 C221 1.552 1_545 S
C596 C271 1.497 . S
C591 C241 1.416 1_565 S
C612 C321 1.501 . S
C607 C17 1.492 . S
C628 C337 1.523 . S
C623 C61 1.525 . S
C639 C81 1.495 . S
C644 C308 1.490 . S
C660 C332 1.494 . S
C655 C125 1.449 . S
C676 C277 1.501 . S
C671 C145 1.492 . S
C687 C189 1.530 . S
C692 C293 1.513 . S
C703 C209 1.491 . S
C708 C264 1.501 . S
C719 C253 1.445 . S
C724 C288 1.502 . S
