# Generated by pormake.
# Topology zzz, (3,6)-cn, num edge types: 1
# Building blocks:
#     Node 0, Type 0, BuildingBlock: QEWDON_clean_linker_0, # of connection points: 3
#     Node 1, Type 0, BuildingBlock: QEWDON_clean_linker_0, # of connection points: 3
#     Node 2, Type 0, BuildingBlock: QEWDON_clean_linker_0, # of connection points: 3
#     Node 3, Type 0, BuildingBlock: QEWDON_clean_linker_0, # of connection points: 3
#     Node 4, Type 0, BuildingBlock: QEWDON_clean_linker_0, # of connection points: 3
#     Node 5, Type 0, BuildingBlock: QEWDON_clean_linker_0, # of connection points: 3
#     Node 6, Type 0, BuildingBlock: QEWDON_clean_linker_0, # of connection points: 3
#     Node 7, Type 0, BuildingBlock: QEWDON_clean_linker_0, # of connection points: 3
#     Node 8, Type 1, BuildingBlock: KUMJIN_clean_sbu_0, # of connection points: 6
#     Node 9, Type 1, BuildingBlock: KUMJIN_clean_sbu_0, # of connection points: 6
#     Node 10, Type 1, BuildingBlock: KUMJIN_clean_sbu_0, # of connection points: 6
#     Node 11, Type 1, BuildingBlock: KUMJIN_clean_sbu_0, # of connection points: 6
#     Edge 12, Type (0, 1), BuildingBlock: XIVTED_clean_linker_0, # of connection points: 2
#     Edge 13, Type (0, 1), BuildingBlock: XIVTED_clean_linker_0, # of connection points: 2
#     Edge 14, Type (0, 1), BuildingBlock: XIVTED_clean_linker_0, # of connection points: 2
#     Edge 15, Type (0, 1), BuildingBlock: XIVTED_clean_linker_0, # of connection points: 2
#     Edge 16, Type (0, 1), BuildingBlock: XIVTED_clean_linker_0, # of connection points: 2
#     Edge 17, Type (0, 1), BuildingBlock: XIVTED_clean_linker_0, # of connection points: 2
#     Edge 18, Type (0, 1), BuildingBlock: XIVTED_clean_linker_0, # of connection points: 2
#     Edge 19, Type (0, 1), BuildingBlock: XIVTED_clean_linker_0, # of connection points: 2
#     Edge 20, Type (0, 1), BuildingBlock: XIVTED_clean_linker_0, # of connection points: 2
#     Edge 21, Type (0, 1), BuildingBlock: XIVTED_clean_linker_0, # of connection points: 2
#     Edge 22, Type (0, 1), BuildingBlock: XIVTED_clean_linker_0, # of connection points: 2
#     Edge 23, Type (0, 1), BuildingBlock: XIVTED_clean_linker_0, # of connection points: 2
#     Edge 24, Type (0, 1), BuildingBlock: XIVTED_clean_linker_0, # of connection points: 2
#     Edge 25, Type (0, 1), BuildingBlock: XIVTED_clean_linker_0, # of connection points: 2
#     Edge 26, Type (0, 1), BuildingBlock: XIVTED_clean_linker_0, # of connection points: 2
#     Edge 27, Type (0, 1), BuildingBlock: XIVTED_clean_linker_0, # of connection points: 2
#     Edge 28, Type (0, 1), BuildingBlock: XIVTED_clean_linker_0, # of connection points: 2
#     Edge 29, Type (0, 1), BuildingBlock: XIVTED_clean_linker_0, # of connection points: 2
#     Edge 30, Type (0, 1), BuildingBlock: XIVTED_clean_linker_0, # of connection points: 2
#     Edge 31, Type (0, 1), BuildingBlock: XIVTED_clean_linker_0, # of connection points: 2
#     Edge 32, Type (0, 1), BuildingBlock: XIVTED_clean_linker_0, # of connection points: 2
#     Edge 33, Type (0, 1), BuildingBlock: XIVTED_clean_linker_0, # of connection points: 2
#     Edge 34, Type (0, 1), BuildingBlock: XIVTED_clean_linker_0, # of connection points: 2
#     Edge 35, Type (0, 1), BuildingBlock: XIVTED_clean_linker_0, # of connection points: 2
# Relax obj value: 0.114
# Max RMSD: 0.151
# Mean RMSD: 0.075
data_MOF--net-zzz--node1-KUMJIN_clean_sbu_0--node2-QEWDON_clean_linker_0--edge1-XIVTED_clean_linker_0
_symmetry_space_group_name_H-M    P1
_symmetry_Int_Tables_number       1
_symmetry_cell_setting            triclinic
loop_
_symmetry_equiv_pos_as_xyz
'x, y, z'
_cell_length_a     54.213229
_cell_length_b     54.430365
_cell_length_c     14.378959
_cell_angle_alpha  91.199395
_cell_angle_beta   89.91631
_cell_angle_gamma 90.004645
loop_
_atom_site_label
_atom_site_type_symbol
_atom_site_fract_x
_atom_site_fract_y
_atom_site_fract_z
_atom_type_partial_charge
H0 H 0.75766 0.56684 0.12007 0.0
C1 C 0.77172 0.56127 0.16867 0.0
C2 C 0.79583 0.56948 0.15483 0.0
C3 C 0.76582 0.54636 0.24463 0.0
H4 H 0.83318 0.56903 0.20393 0.0
C5 C 0.81444 0.56292 0.21685 0.0
C6 C 0.80989 0.54741 0.29127 0.0
C7 C 0.78532 0.53936 0.30597 0.0
C8 C 0.7393 0.53885 0.2598 0.0
H9 H 0.78169 0.52711 0.36271 0.0
C10 C 0.72215 0.53596 0.1849 0.0
C11 C 0.69698 0.53032 0.20159 0.0
C12 C 0.73054 0.53584 0.35098 0.0
H13 H 0.74257 0.53851 0.41033 0.0
C14 C 0.70586 0.5302 0.36769 0.0
H15 H 0.72827 0.53761 0.11365 0.0
C16 C 0.68926 0.52754 0.2942 0.0
H17 H 0.67014 0.52364 0.31027 0.0
H18 H 0.69944 0.5282 0.43847 0.0
H19 H 0.99171 0.77376 0.09498 0.0
C20 C 0.99569 0.78678 0.15078 0.0
C21 C 0.99193 0.81178 0.13434 0.0
C22 C 1.00434 0.77869 0.23719 0.0
H23 H 0.99329 0.84857 0.19297 0.0
C24 C 0.99572 0.82918 0.20638 0.0
C25 C 1.00434 0.82229 0.29362 0.0
C26 C 1.00906 0.79697 0.30852 0.0
C27 C 1.00753 0.75127 0.25204 0.0
H28 H 1.01647 0.79177 0.37507 0.0
C29 C 1.01168 0.73385 0.1771 0.0
C30 C 1.0134 0.70819 0.19328 0.0
C31 C 1.00515 0.74203 0.34231 0.0
H32 H 1.00118 0.75407 0.40122 0.0
C33 C 1.00703 0.71693 0.35844 0.0
H34 H 1.01414 0.74 0.10669 0.0
C35 C 1.01107 0.70023 0.28522 0.0
H36 H 1.01206 0.68085 0.30063 0.0
H37 H 1.00503 0.71029 0.42851 0.0
H38 H 0.78084 0.98672 0.12606 0.0
C39 C 0.76724 0.99144 0.1785 0.0
C40 C 0.74234 0.9903 0.15305 0.0
C41 C 0.77452 0.99864 0.26905 0.0
H42 H 0.70478 0.99406 0.20106 0.0
C43 C 0.72408 0.99458 0.22068 0.0
C44 C 0.73024 1.00127 0.31216 0.0
C45 C 0.75551 1.00387 0.33586 0.0
C46 C 0.80179 0.99996 0.2923 0.0
H47 H 0.76009 1.01004 0.4057 0.0
C48 C 0.82036 1.00322 0.22265 0.0
C49 C 0.84588 1.00189 0.24412 0.0
C50 C 0.80968 0.99649 0.38429 0.0
H51 H 0.79663 0.99332 0.43968 0.0
C52 C 0.83472 0.99626 0.4065 0.0
H53 H 0.8152 1.00636 0.15134 0.0
C54 C 0.8526 0.99879 0.33755 0.0
H55 H 0.87182 0.99837 0.35785 0.0
H56 H 0.84035 0.99365 0.47782 0.0
H57 H 0.56888 0.7895 0.15064 0.0
C58 C 0.56504 0.77657 0.20475 0.0
C59 C 0.57077 0.7519 0.18647 0.0
C60 C 0.55504 0.78427 0.29142 0.0
H61 H 0.57155 0.71535 0.24007 0.0
C62 C 0.56736 0.73451 0.25549 0.0
C63 C 0.55727 0.74099 0.34197 0.0
C64 C 0.55057 0.76583 0.35924 0.0
C65 C 0.55035 0.81141 0.31099 0.0
H66 H 0.54213 0.7705 0.42542 0.0
C67 C 0.54779 0.82881 0.23842 0.0
C68 C 0.54574 0.85441 0.258 0.0
C69 C 0.54988 0.82052 0.40345 0.0
H70 H 0.55253 0.80858 0.46168 0.0
C71 C 0.54671 0.84552 0.42317 0.0
H72 H 0.54777 0.82277 0.16647 0.0
C73 C 0.54469 0.86227 0.35166 0.0
H74 H 0.54222 0.88149 0.37011 0.0
H75 H 0.54622 0.85205 0.4948 0.0
H76 H 0.29154 0.48734 0.18983 0.0
C77 C 0.27788 0.49083 0.137 0.0
C78 C 0.25372 0.48313 0.15346 0.0
C79 C 0.28434 0.50234 0.05344 0.0
H80 H 0.21679 0.48068 0.10004 0.0
C81 C 0.2356 0.48626 0.08547 0.0
C82 C 0.24083 0.49775 1.00156 0.0
C83 C 0.26523 0.50627 0.98642 0.0
C84 C 0.3111 0.50895 0.03598 0.0
H85 H 0.26916 0.51563 0.92247 0.0
C86 C 0.32835 0.51318 0.10991 0.0
C87 C 0.35369 0.51756 0.09174 0.0
C88 C 0.32006 0.50957 0.9441 0.0
H89 H 0.30815 0.50573 0.88533 0.0
C90 C 0.34488 0.51427 0.92594 0.0
H91 H 0.32227 0.51352 0.18157 0.0
C92 C 0.36152 0.51812 0.99857 0.0
H93 H 0.38075 0.52109 0.98153 0.0
H94 H 0.35136 0.51453 0.85472 0.0
H95 H 0.05876 0.28236 0.22033 0.0
C96 C 0.05454 0.2692 0.16523 0.0
C97 C 0.05961 0.24435 0.18036 0.0
C98 C 0.04427 0.27698 0.08094 0.0
H99 H 0.05898 0.2076 0.12112 0.0
C100 C 0.05556 0.22689 0.1087 0.0
C101 C 0.04529 0.23348 0.02362 0.0
C102 C 0.03919 0.25858 0.01048 0.0
C103 C 0.03978 0.30425 0.06702 0.0
H104 H 0.03052 0.26353 0.94581 0.0
C105 C 0.03584 0.32148 0.14274 0.0
C106 C 0.03283 0.34704 0.12697 0.0
C107 C 0.04072 0.31358 0.97652 0.0
H108 H 0.04448 0.30171 0.91694 0.0
C109 C 0.03762 0.33859 0.9609 0.0
H110 H 0.03451 0.31521 0.21345 0.0
C111 C 0.03372 0.35509 0.03484 0.0
H112 H 0.03168 0.37441 0.01981 0.0
H113 H 0.03851 0.34531 0.89063 0.0
H114 H 0.27142 0.07412 0.18114 0.0
C115 C 0.28509 0.06867 0.12994 0.0
C116 C 0.30986 0.07409 0.14916 0.0
C117 C 0.27809 0.05643 0.04673 0.0
H118 H 0.34718 0.07228 0.09738 0.0
C119 C 0.32793 0.06863 0.08188 0.0
C120 C 0.32203 0.05664 0.99782 0.0
C121 C 0.2971 0.04997 0.9814 0.0
C122 C 0.25099 0.05135 0.02816 0.0
H123 H 0.29275 0.03989 0.91792 0.0
C124 C 0.23315 0.04947 0.10124 0.0
C125 C 0.20754 0.04726 0.08186 0.0
C126 C 0.2424 0.04991 0.93586 0.0
H127 H 0.25482 0.05189 0.87757 0.0
C128 C 0.2174 0.04672 0.91651 0.0
H129 H 0.2389 0.05013 0.17319 0.0
C130 C 0.20017 0.04554 0.98827 0.0
H131 H 0.18092 0.04319 0.97015 0.0
H132 H 0.21125 0.0456 0.84495 0.0
H133 H 0.48092 0.26194 0.1488 0.0
C134 C 0.48489 0.27482 0.09469 0.0
C135 C 0.47837 0.29936 0.11152 0.0
C136 C 0.49594 0.26722 0.00969 0.0
H137 H 0.47718 0.33578 0.05689 0.0
C138 C 0.48197 0.31671 0.04249 0.0
C139 C 0.4931 0.31037 0.9577 0.0
C140 C 0.50064 0.2857 0.94218 0.0
C141 C 0.50163 0.24018 0.99148 0.0
H142 H 0.50994 0.28123 0.8775 0.0
C143 C 0.50327 0.22277 0.06453 0.0
C144 C 0.50645 0.19727 0.0454 0.0
C145 C 0.5041 0.23111 0.89935 0.0
H146 H 0.5022 0.24294 0.84043 0.0
C147 C 0.50847 0.20626 0.88051 0.0
H148 H 0.50174 0.22867 0.13639 0.0
C149 C 0.50965 0.18954 0.95235 0.0
H150 H 0.51314 0.17043 0.93475 0.0
H151 H 0.51056 0.1998 0.8092 0.0
Eu152 Eu 0.04709 0.02169 0.75338 0.0
C153 C 0.97506 0.98557 0.48605 0.0
C154 C 1.00021 0.96632 0.3658 0.0
C155 C 0.96119 0.94783 0.40787 0.0
C156 C 0.99639 0.98521 0.43354 0.0
C157 C 0.95688 0.96721 0.4717 0.0
C158 C 0.98282 0.94739 0.35497 0.0
C159 C 0.93008 0.98998 0.57538 0.0
N160 N 0.97136 1.00456 0.54711 0.0
C161 C 0.94847 1.00778 0.58637 0.0
C162 C 0.9345 0.96929 0.51943 0.0
Eu163 Eu 1.00447 0.03341 0.56823 0.0
N164 N 1.01305 1.00365 0.44628 0.0
C165 C 0.03242 1.00549 0.38539 0.0
C166 C 0.02117 0.96721 0.30954 0.0
C167 C 0.03707 0.98715 0.31823 0.0
H168 H 0.94389 0.02434 0.62508 0.0
H169 H 0.05275 0.98868 0.27199 0.0
H170 H 0.98569 0.93261 0.30446 0.0
H171 H 0.91233 0.9925 0.60879 0.0
H172 H 0.04415 0.02129 0.38458 0.0
H173 H 0.99669 0.05902 0.05865 0.0
H174 H 0.02476 0.95307 0.25707 0.0
H175 H 0.10653 0.03664 0.69524 0.0
H176 H 1.00811 0.02807 0.9427 0.0
H177 H 0.13517 0.07088 0.7148 0.0
H178 H 0.94761 0.93344 0.39711 0.0
H179 H 0.0211 0.0971 0.07578 0.0
H180 H 0.05816 0.12121 0.03035 0.0
H181 H 0.92013 0.95562 0.51018 0.0
H182 H 0.09597 0.12436 0.9372 0.0
N183 N 0.03645 0.04947 0.87958 0.0
C184 C 1.01789 0.04517 0.94203 0.0
C185 C 0.02571 0.08382 0.02131 0.0
C186 C 0.04628 0.08705 0.96442 0.0
C187 C 1.01179 0.06248 0.01137 0.0
C188 C 0.05147 0.06918 0.89407 0.0
H189 H 0.12471 0.10584 0.81966 0.0
N190 N 0.07766 0.05313 0.77688 0.0
C191 C 0.11741 0.07151 0.74928 0.0
C192 C 0.07264 0.07107 0.8412 0.0
C193 C 0.10056 0.05234 0.73617 0.0
C194 C 0.11152 0.0911 0.80887 0.0
C195 C 0.08928 0.09072 0.8579 0.0
O196 O 0.08076 1.005 0.80656 0.0
O197 O 0.02154 1.00277 0.64916 0.0
O198 O 0.98161 0.03042 0.69977 0.0
O199 O 1.00799 1.00984 0.79784 0.0
O200 O 0.05757 0.98998 0.65679 0.0
O201 O 0.04574 0.99697 0.8707 0.0
O202 O 0.97219 0.05149 0.51001 0.0
O203 O 0.03011 0.05227 0.67201 0.0
O204 O 0.07033 0.02487 0.62297 0.0
O205 O 0.04369 0.04377 0.52071 0.0
O206 O 0.99401 0.06494 0.66573 0.0
O207 O 1.00819 0.0582 0.45173 0.0
C208 C 0.03635 0.98625 0.61874 0.0
C209 C 0.07381 0.96421 0.84771 0.0
C210 C 0.05962 0.92298 0.80308 0.0
C211 C 0.05519 0.94829 0.81495 0.0
C212 C 0.08371 0.91415 0.81825 0.0
C213 C 0.09756 0.95503 0.86273 0.0
C214 C 0.10253 0.93014 0.84683 0.0
C215 C 0.98578 0.01834 0.77659 0.0
C216 C 0.06881 0.99059 0.86161 0.0
C217 C 0.08359 0.10902 0.92466 0.0
C218 C 0.06209 0.10722 0.97768 0.0
C219 C 1.01533 0.06876 0.70306 0.0
C220 C 0.98126 0.0921 0.4721 0.0
C221 C 1.00055 0.10753 0.50255 0.0
C222 C 0.99672 0.13289 0.51656 0.0
C223 C 0.97268 0.14227 0.50539 0.0
C224 C 0.95758 0.10187 0.46084 0.0
C225 C 0.95329 0.1268 0.47858 0.0
C226 C 0.06603 0.03605 0.54424 0.0
C227 C 0.98535 0.06556 0.45766 0.0
H228 H 0.03708 0.95562 0.80025 0.0
H229 H 0.08794 0.89476 0.81221 0.0
H230 H 0.11225 0.96712 0.8863 0.0
H231 H 0.12088 0.92309 0.85898 0.0
H232 H 0.01868 0.09984 0.51407 0.0
H233 H 0.96892 0.16172 0.51319 0.0
H234 H 0.94238 0.09018 0.43902 0.0
H235 H 0.93497 0.13428 0.46945 0.0
Eu236 Eu 0.53234 0.0493 0.74639 0.0
C237 C 0.55887 0.96403 0.47743 0.0
C238 C 0.58484 0.98433 0.36581 0.0
C239 C 0.59219 0.94151 0.40005 0.0
C240 C 0.56506 0.98493 0.43019 0.0
C241 C 0.57191 0.94186 0.46077 0.0
C242 C 0.59868 0.96274 0.3528 0.0
C243 C 0.54222 0.92121 0.55644 0.0
N244 N 0.53908 0.96486 0.53495 0.0
C245 C 0.52987 0.94352 0.57018 0.0
C246 C 0.56365 0.92045 0.50292 0.0
Eu247 Eu 0.51942 1.00368 0.56158 0.0
N248 N 0.55126 1.00555 0.44438 0.0
C249 C 0.55554 0.02562 0.39033 0.0
C250 C 0.58989 1.00528 0.31483 0.0
C251 C 0.57493 0.02586 0.3262 0.0
H252 H 0.51286 0.9438 0.60944 0.0
H253 H 0.57838 0.04207 0.28581 0.0
H254 H 0.61405 0.9621 0.30453 0.0
H255 H 0.53506 0.90458 0.58645 0.0
H256 H 0.54479 0.04208 0.39631 0.0
H257 H 0.47085 1.012 0.01876 0.0
H258 H 0.60494 1.00557 0.26517 0.0
H259 H 0.54101 0.10879 0.69967 0.0
H260 H 0.50426 1.01055 0.90869 0.0
H261 H 0.51994 0.14871 0.7227 0.0
H262 H 0.60254 0.92474 0.3872 0.0
H263 H 0.44631 0.04973 0.04171 0.0
H264 H 0.43913 0.09353 1.00402 0.0
H265 H 0.57313 0.90311 0.4917 0.0
H266 H 0.45189 0.13049 0.92171 0.0
N267 N 0.50031 0.04783 0.86356 0.0
C268 C 0.49472 0.0277 0.91585 0.0
C269 C 0.46144 0.04949 0.99239 0.0
C270 C 0.46756 0.07034 0.94258 0.0
C271 C 0.47527 0.02821 0.97973 0.0
C272 C 0.48742 0.06907 0.87853 0.0
H273 H 0.48183 0.1512 0.81702 0.0
N274 N 0.51412 0.08859 0.77395 0.0
C275 C 0.51231 0.13229 0.7527 0.0
C276 C 0.49438 0.08991 0.83168 0.0
C277 C 0.52401 0.10964 0.73895 0.0
C278 C 0.49087 0.13361 0.80606 0.0
C279 C 0.48201 0.11246 0.84836 0.0
O280 O 0.55332 0.07591 0.83088 0.0
O281 O 0.54928 0.02419 0.63745 0.0
O282 O 0.53073 0.9821 0.68944 0.0
O283 O 0.53598 1.01136 0.80899 0.0
O284 O 0.56053 0.06064 0.63883 0.0
O285 O 0.56513 0.0383 0.82393 0.0
O286 O 0.49491 0.97604 0.49977 0.0
O287 O 0.50253 0.02931 0.66866 0.0
O288 O 0.52105 0.07123 0.61965 0.0
O289 O 0.51384 0.04196 0.50184 0.0
O290 O 0.4894 0.99364 0.66429 0.0
O291 O 0.49245 1.01347 0.45568 0.0
C292 C 0.56459 0.03909 0.60267 0.0
C293 C 0.59577 0.06848 0.80336 0.0
C294 C 0.63698 0.05651 0.74942 0.0
C295 C 0.61531 0.05159 0.79997 0.0
C296 C 0.63892 0.07886 0.70269 0.0
C297 C 0.59847 0.09103 0.75824 0.0
C298 C 0.61986 0.09605 0.70795 0.0
C299 C 0.53533 0.98831 0.77736 0.0
C300 C 0.57164 0.06092 0.84192 0.0
C301 C 0.46173 0.11342 0.90891 0.0
C302 C 0.45453 0.0924 0.95596 0.0
C303 C 0.48626 1.01517 0.70156 0.0
C304 C 0.455 0.99218 0.48404 0.0
C305 C 0.44199 1.01433 0.49764 0.0
C306 C 0.41697 1.0143 0.5241 0.0
C307 C 0.40558 0.99162 0.54235 0.0
C308 C 0.44304 0.96984 0.50118 0.0
C309 C 0.41862 0.96965 0.53149 0.0
C310 C 0.51522 0.06505 0.53281 0.0
C311 C 0.48144 0.99222 0.45868 0.0
H312 H 0.61348 0.03456 0.83705 0.0
H313 H 0.65518 0.08311 0.66228 0.0
H314 H 0.58379 0.10449 0.75906 0.0
H315 H 0.62155 0.11324 0.67199 0.0
H316 H 0.45132 0.03163 0.48687 0.0
H317 H 0.38627 0.99059 0.56091 0.0
H318 H 0.4527 0.95252 0.49232 0.0
H319 H 0.40956 0.95234 0.54471 0.0
Eu320 Eu 0.54995 0.51806 0.56294 0.0
C321 C 0.44637 0.50981 0.76015 0.0
C322 C 0.41777 0.53197 0.6639 0.0
C323 C 0.40295 0.49847 0.75807 0.0
C324 C 0.44194 0.52793 0.69668 0.0
C325 C 0.42686 0.49518 0.79313 0.0
C326 C 0.39842 0.51682 0.69344 0.0
C327 C 0.45566 0.47644 0.89822 0.0
N328 N 0.46957 0.50732 0.7933 0.0
C329 C 0.47434 0.49143 0.86354 0.0
C330 C 0.43184 0.47813 0.86218 0.0
Eu331 Eu 0.50074 0.53264 0.73004 0.0
N332 N 0.46101 0.54243 0.67074 0.0
C333 C 0.4567 0.56248 0.61738 0.0
C334 C 0.41363 0.55157 0.6046 0.0
C335 C 0.43313 0.5671 0.58235 0.0
H336 H 0.49275 0.48989 0.89136 0.0
H337 H 0.43006 0.58262 0.53799 0.0
H338 H 0.37978 0.51956 0.66853 0.0
H339 H 0.45965 0.46358 0.95258 0.0
H340 H 0.4714 0.5747 0.59886 0.0
H341 H 0.62073 0.46769 0.75303 0.0
H342 H 0.39538 0.55524 0.57759 0.0
H343 H 0.55782 0.56114 0.4028 0.0
H344 H 0.57933 0.47585 0.69327 0.0
H345 H 0.59093 0.58738 0.34123 0.0
H346 H 0.38777 0.48729 0.78201 0.0
H347 H 0.65546 0.49492 0.71282 0.0
H348 H 0.67108 0.53054 0.62167 0.0
H349 H 0.41736 0.46659 0.8894 0.0
H350 H 0.66307 0.56292 0.50875 0.0
N351 N 0.58972 0.50815 0.62165 0.0
C352 C 0.59404 0.48803 0.67459 0.0
C353 C 0.63718 0.49872 0.68639 0.0
C354 C 0.63302 0.51839 0.62747 0.0
C355 C 0.61765 0.48327 0.70897 0.0
C356 C 0.60881 0.5226 0.59545 0.0
H357 H 0.63334 0.58403 0.40304 0.0
N358 N 0.5811 0.54347 0.49994 0.0
C359 C 0.59497 0.57442 0.39523 0.0
C360 C 0.60435 0.54082 0.53241 0.0
C361 C 0.57628 0.55948 0.43013 0.0
C362 C 0.61885 0.57254 0.43049 0.0
C363 C 0.62388 0.55537 0.49905 0.0
O364 O 0.55168 0.50993 0.41408 0.0
O365 O 0.50904 0.52078 0.58463 0.0
O366 O 0.49835 0.49166 0.69482 0.0
O367 O 0.53862 0.48398 0.64594 0.0
O368 O 0.52264 0.53552 0.46411 0.0
O369 O 0.55397 0.48024 0.5114 0.0
O370 O 0.49904 0.54099 0.87878 0.0
O371 O 0.5416 0.52982 0.70827 0.0
O372 O 0.55243 0.55901 0.59896 0.0
O373 O 0.51209 0.56666 0.64691 0.0
O374 O 0.52805 0.51518 0.82899 0.0
O375 O 0.49675 0.57054 0.78087 0.0
C376 C 0.50282 0.5309 0.50982 0.0
C377 C 0.52768 0.47466 0.38091 0.0
C378 C 0.49647 0.44215 0.37622 0.0
C379 C 0.51801 0.45258 0.4148 0.0
C380 C 0.48434 0.45462 0.30454 0.0
C381 C 0.51534 0.48649 0.30842 0.0
C382 C 0.49369 0.47663 0.27142 0.0
C383 C 0.51693 0.47635 0.67777 0.0
C384 C 0.54936 0.48637 0.42582 0.0
C385 C 0.64785 0.55186 0.53318 0.0
C386 C 0.65241 0.53343 0.59745 0.0
C387 C 0.54785 0.51971 0.78303 0.0
C388 C 0.52329 0.57623 0.91029 0.0
C389 C 0.5321 0.59888 0.8785 0.0
C390 C 0.55398 0.60921 0.91456 0.0
C391 C 0.56726 0.59619 0.98178 0.0
C392 C 0.53675 0.56385 0.97861 0.0
C393 C 0.55869 0.57369 0.01318 0.0
C394 C 0.53384 0.57432 0.61582 0.0
C395 C 0.50145 0.56452 0.86648 0.0
H396 H 0.52724 0.44356 0.47148 0.0
H397 H 0.46808 0.447 0.27118 0.0
H398 H 0.52218 0.50359 0.28113 0.0
H399 H 0.48426 0.48593 0.21593 0.0
H400 H 0.52199 0.60838 0.82518 0.0
H401 H 0.58384 0.60374 0.01297 0.0
H402 H 0.53061 0.54631 1.00428 0.0
H403 H 0.56899 0.56394 0.06527 0.0
Eu404 Eu 0.03463 0.54957 0.56658 0.0
C405 C 0.03634 0.4525 0.79272 0.0
C406 C 1.01343 0.42295 0.69922 0.0
C407 C 0.04574 0.4089 0.80222 0.0
C408 C 1.01832 0.44749 0.72731 0.0
C409 C 0.04991 0.43324 0.83244 0.0
C410 C 0.02756 0.40377 0.73553 0.0
C411 C 0.0694 0.46326 0.93423 0.0
N412 N 0.03976 0.47613 0.82105 0.0
C413 C 0.05548 0.48168 0.89292 0.0
C414 C 0.06681 0.43894 0.90314 0.0
Eu415 Eu 1.01633 0.50681 0.74633 0.0
N416 N 1.00475 0.46644 0.69464 0.0
C417 C 0.98486 0.46172 0.63851 0.0
C418 C 0.99402 0.4183 0.63749 0.0
C419 C 0.97947 0.43775 0.60809 0.0
H420 H 0.05774 0.50052 0.91669 0.0
H421 H 0.96409 0.43431 0.56169 0.0
H422 H 0.02416 0.38486 0.71425 0.0
H423 H 0.08215 0.46785 0.98978 0.0
H424 H 0.97326 0.47623 0.61409 0.0
H425 H 0.08269 0.62276 0.76279 0.0
H426 H 0.98974 0.39975 0.61395 0.0
H427 H 1.00024 0.55672 0.37647 0.0
H428 H 0.07553 0.58091 0.70385 0.0
H429 H 0.97603 0.5889 0.29942 0.0
H430 H 0.05607 0.39388 0.83146 0.0
H431 H 0.05591 0.65675 0.71264 0.0
H432 H 0.02204 0.67119 0.60807 0.0
H433 H 0.07756 0.42466 0.93542 0.0
H434 H 0.99297 0.66201 0.48068 0.0
N435 N 0.04411 0.59019 0.62259 0.0
C436 C 0.06355 0.59523 0.68047 0.0
C437 C 0.05255 0.63824 0.68645 0.0
C438 C 0.03394 0.63339 0.62149 0.0
C439 C 0.06776 0.61913 0.71454 0.0
C440 C 0.03031 0.60891 0.58996 0.0
H441 H 0.97607 0.63145 0.36369 0.0
N442 N 1.01278 0.58044 0.48578 0.0
C443 C 0.98645 0.59336 0.36168 0.0
C444 C 1.01404 0.60383 0.51897 0.0
C445 C 1.00013 0.57517 0.40561 0.0
C446 C 0.98646 0.61731 0.39829 0.0
C447 C 1.0008 0.62293 0.47672 0.0
O448 O 0.04632 0.54724 0.42134 0.0
O449 O 0.03024 0.50979 0.6017 0.0
O450 O 0.0577 0.50188 0.72156 0.0
O451 O 0.0673 0.53998 0.66192 0.0
O452 O 1.01799 0.51986 0.47242 0.0
O453 O 0.07373 0.55028 0.52922 0.0
O454 O 1.00863 0.50841 0.89516 0.0
O455 O 0.01977 0.54697 0.7115 0.0
O456 O 0.9925 0.55016 0.56731 0.0
O457 O 0.98242 0.51633 0.65757 0.0
O458 O 0.0346 0.53613 0.83647 0.0
O459 O 0.97837 0.50641 0.7976 0.0
C460 C 0.02096 0.50152 0.52639 0.0
C461 C 0.08068 0.52066 0.4094 0.0
C462 C 0.11355 0.48998 0.41956 0.0
C463 C 0.10295 0.51254 0.44812 0.0
C464 C 0.10076 0.47514 0.35406 0.0
C465 C 0.06853 0.50558 0.34333 0.0
C466 C 0.07839 0.48286 0.317 0.0
C467 C 0.07393 0.51926 0.7022 0.0
C468 C 0.06932 0.54391 0.44303 0.0
C469 C 1.00316 0.64712 0.51152 0.0
C470 C 0.0197 0.65234 0.58401 0.0
C471 C 0.02989 0.55481 0.78609 0.0
C472 C 0.97454 0.53443 0.9257 0.0
C473 C 0.95166 0.54332 0.89556 0.0
C474 C 0.94165 0.56532 0.93265 0.0
C475 C 0.95542 0.57862 0.99987 0.0
C476 C 0.98776 0.54804 0.99328 0.0
C477 C 0.97831 0.57007 0.02932 0.0
C478 C 0.97637 0.53407 0.59967 0.0
C479 C 0.98511 0.51178 0.88281 0.0
H480 H 0.11203 0.52391 0.50042 0.0
H481 H 0.1084 0.45796 0.32806 0.0
H482 H 0.05121 0.51113 0.31275 0.0
H483 H 0.06886 0.47134 0.26637 0.0
H484 H 0.94172 0.53297 0.84295 0.0
H485 H 0.94828 0.59525 0.03246 0.0
H486 H 1.00554 0.54183 0.01777 0.0
H487 H 0.98864 0.58042 0.08125 0.0
H488 H 0.20771 0.02394 0.25207 0.0
H489 H 0.06894 0.06498 0.38841 0.0
H490 H 0.16253 0.07065 0.0837 0.0
H491 H 0.11188 1.01426 0.54826 0.0
H492 H 0.10377 0.06886 0.28045 0.0
H493 H 0.17404 0.02223 0.3666 0.0
C494 C 0.19087 0.03402 0.23934 0.0
C495 C 0.18807 0.04726 0.15703 0.0
C496 C 0.10564 0.05698 0.33948 0.0
C497 C 0.14913 0.04525 0.28831 0.0
C498 C 0.08568 0.05475 0.40134 0.0
C499 C 0.08733 0.03941 0.47858 0.0
C500 C 0.12761 0.0438 0.35438 0.0
C501 C 0.10968 0.02662 0.49091 0.0
C502 C 0.17153 0.0329 0.30462 0.0
C503 C 0.16555 0.05978 0.14483 0.0
N504 N 0.12879 0.02908 0.42985 0.0
N505 N 0.1471 0.05842 0.20909 0.0
H506 H 0.48606 0.15089 0.03817 0.0
H507 H 0.52945 0.11359 0.54911 0.0
H508 H 0.52535 0.19999 0.22511 0.0
H509 H 0.49445 0.06279 0.35699 0.0
H510 H 0.52585 0.14583 0.43545 0.0
H511 H 0.48713 0.11926 0.1558 0.0
C512 C 0.49505 0.15509 0.10376 0.0
C513 C 0.5059 0.17832 0.12048 0.0
C514 C 0.51877 0.1277 0.41811 0.0
C515 C 0.50678 0.14181 0.25766 0.0
C516 C 0.52058 0.10918 0.48392 0.0
C517 C 0.51192 0.08526 0.46431 0.0
C518 C 0.50825 0.12252 0.33074 0.0
C519 C 0.50135 0.08086 0.3761 0.0
C520 C 0.4955 0.13694 0.17139 0.0
C521 C 0.51661 0.18258 0.20847 0.0
N522 N 0.49983 0.09923 0.31292 0.0
N523 N 0.51685 0.16455 0.27322 0.0
H524 H 0.36068 0.49109 0.25287 0.0
H525 H 0.48681 0.56227 0.38065 0.0
H526 H 0.3902 0.55231 0.10335 0.0
H527 H 0.4636 0.4981 0.52757 0.0
H528 H 0.44903 0.56041 0.28905 0.0
H529 H 0.39517 0.49495 0.36423 0.0
C530 C 0.37415 0.50556 0.24412 0.0
C531 C 0.3725 0.52128 0.16777 0.0
C532 C 0.45191 0.54677 0.3417 0.0
C533 C 0.41222 0.52569 0.29481 0.0
C534 C 0.47354 0.54789 0.39435 0.0
C535 C 0.47826 0.5306 0.46303 0.0
C536 C 0.43467 0.52791 0.35599 0.0
C537 C 0.46049 0.51213 0.47665 0.0
C538 C 0.39396 0.50763 0.30738 0.0
C539 C 0.39073 0.53953 0.15998 0.0
N540 N 0.43952 0.51123 0.42347 0.0
N541 N 0.40967 0.54112 0.22193 0.0
H542 H 0.99587 0.38099 0.1385 0.0
H543 H 0.05285 0.46233 0.56206 0.0
H544 H 0.06023 0.35739 0.28735 0.0
H545 H 0.99036 0.48256 0.39583 0.0
H546 H 0.05461 0.42239 0.47635 0.0
H547 H 0.99198 0.41613 0.24538 0.0
C548 C 1.00906 0.38302 0.19467 0.0
C549 C 0.02841 0.36602 0.20335 0.0
C550 C 0.04033 0.43546 0.45955 0.0
C551 C 0.02434 0.40714 0.32712 0.0
C552 C 0.0392 0.45819 0.50907 0.0
C553 C 0.02114 0.47575 0.48727 0.0
C554 C 0.02334 0.43027 0.38739 0.0
C555 C 1.00444 0.46959 0.41584 0.0
C556 C 1.0069 0.40327 0.25586 0.0
C557 C 0.04489 0.36983 0.27813 0.0
N558 N 1.00595 0.44761 0.36911 0.0
N559 N 0.04266 0.39005 0.33637 0.0
H560 H 0.88906 0.97525 0.23195 0.0
H561 H 0.94146 0.04286 0.78119 0.0
H562 H 0.84856 0.03094 0.08733 0.0
H563 H 0.98143 0.98651 0.92402 0.0
H564 H 0.90715 0.03806 0.88954 0.0
H565 H 0.92242 0.97864 0.11885 0.0
C566 C 0.88711 0.98832 0.17669 0.0
C567 C 0.86578 1.00303 0.17063 0.0
C568 C 0.92333 0.02663 0.89715 0.0
C569 C 0.90437 1.00675 0.0385 0.0
C570 C 0.94301 0.02923 0.83465 0.0
C571 C 0.96452 1.01491 0.84228 0.0
C572 C 0.92494 1.0096 0.96898 0.0
C573 C 0.96535 0.99798 0.91489 0.0
C574 C 0.90626 0.99012 0.11151 0.0
C575 C 0.86442 0.01911 0.09531 0.0
N576 N 0.94595 0.99584 0.97513 0.0
N577 N 0.8834 0.0206 0.03286 0.0
H578 H 0.52375 0.85167 0.08347 0.0
H579 H 0.55641 0.99101 0.95173 0.0
H580 H 0.56682 0.90059 0.2589 0.0
H581 H 0.52072 0.93975 0.76327 0.0
H582 H 0.55983 0.95834 0.06584 0.0
H583 H 0.52236 0.88352 0.96547 0.0
C584 C 0.53307 0.86895 0.09731 0.0
C585 C 0.54525 0.87325 0.18247 0.0
C586 C 0.55142 0.95417 0.99909 0.0
C587 C 0.54342 0.91021 0.04704 0.0
C588 C 0.54945 0.97288 0.93368 0.0
C589 C 0.53857 0.96822 0.84628 0.0
C590 C 0.54224 0.93051 0.97794 0.0
C591 C 0.52979 0.94426 0.82798 0.0
C592 C 0.53213 0.88725 0.02984 0.0
C593 C 0.5567 0.89636 0.19576 0.0
N594 N 0.53173 0.92645 0.89292 0.0
N595 N 0.55541 0.91384 0.12941 0.0
H596 H 0.68895 0.55939 0.0476 0.0
H597 H 0.56395 0.48769 0.9096 0.0
H598 H 0.66177 0.49455 0.18091 0.0
H599 H 0.58712 0.55251 0.76669 0.0
H600 H 0.60179 0.48907 1.00078 0.0
H601 H 0.65453 0.55627 0.93561 0.0
C602 C 0.67602 0.54432 0.05265 0.0
C603 C 0.67827 0.52734 0.1248 0.0
C604 C 0.5989 0.50295 0.94908 0.0
C605 C 0.63863 0.52377 0.99709 0.0
C606 C 0.57723 0.50211 0.89668 0.0
C607 C 0.57248 0.51973 0.82924 0.0
C608 C 0.61614 0.52188 0.93597 0.0
C609 C 0.59026 0.53824 0.81662 0.0
C610 C 0.65625 0.54265 0.98902 0.0
C611 C 0.66073 0.50832 0.12783 0.0
N612 N 0.61125 0.5389 0.86971 0.0
N613 N 0.6418 0.50717 0.06578 0.0
H614 H 0.98852 0.7004 0.02538 0.0
H615 H 0.0598 0.57268 0.92034 0.0
H616 H 0.04772 0.67138 0.18962 0.0
H617 H 0.99692 0.59393 0.75803 0.0
H618 H 0.05707 0.61122 0.00852 0.0
H619 H 0.99278 0.66476 0.91663 0.0
C620 C 1.0027 0.68685 0.03777 0.0
C621 C 1.01777 0.68904 0.11737 0.0
C622 C 0.04387 0.60777 0.95334 0.0
C623 C 0.02258 0.64794 0.99339 0.0
C624 C 0.04548 0.58565 0.90251 0.0
C625 C 0.02882 0.58003 0.83048 0.0
C626 C 0.02516 0.62479 0.93396 0.0
C627 C 1.01047 0.5976 0.81172 0.0
C628 C 1.00497 0.66636 0.97602 0.0
C629 C 0.03556 0.67058 0.12997 0.0
N630 N 1.00908 0.61914 0.86323 0.0
N631 N 0.03737 0.65104 0.06947 0.0
H632 H 0.0942 0.21032 0.23189 0.0
H633 H 0.99921 0.17754 0.61259 0.0
H634 H 0.03784 0.25834 0.34446 0.0
H635 H 0.04383 0.12737 0.44722 0.0
H636 H 0.02823 0.21044 0.57753 0.0
H637 H 0.09148 0.18564 0.37149 0.0
C638 C 0.08185 0.21614 0.28741 0.0
C639 C 0.06542 0.2357 0.27495 0.0
C640 C 0.03203 0.19199 0.55166 0.0
C641 C 0.06186 0.20739 0.43336 0.0
C642 C 1.01531 0.17323 0.57072 0.0
C643 C 1.01808 0.14995 0.52774 0.0
C644 C 0.05153 0.18733 0.48936 0.0
C645 C 0.04019 0.14512 0.47952 0.0
C646 C 0.08032 0.20209 0.3672 0.0
C647 C 0.05038 0.24297 0.35014 0.0
N648 N 0.05568 0.16381 0.45946 0.0
N649 N 0.04835 0.22832 0.42503 0.0
H650 H 0.29347 0.05636 0.31449 0.0
H651 H 0.37581 0.02815 0.62802 0.0
H652 H 0.34473 0.10846 0.20135 0.0
H653 H 0.42346 0.05347 0.40854 0.0
H654 H 0.3445 0.05748 0.57907 0.0
H655 H 0.31749 0.05554 0.45604 0.0
C656 C 0.30918 0.06856 0.32102 0.0
C657 C 0.31778 0.08163 0.24435 0.0
C658 C 0.36202 0.05685 0.54292 0.0
C659 C 0.34583 0.08046 0.40631 0.0
C660 C 0.37992 0.04003 0.57055 0.0
C661 C 0.40183 0.03711 0.51881 0.0
C662 C 0.36617 0.07071 0.46305 0.0
C663 C 0.40671 0.05424 0.44934 0.0
C664 C 0.32304 0.06811 0.40262 0.0
C665 C 0.33811 0.09726 0.2575 0.0
N666 N 0.38879 0.06985 0.42219 0.0
N667 N 0.35199 0.09556 0.33559 0.0
H668 H 0.43613 0.32358 0.16158 0.0
H669 H 0.52489 0.40288 0.42932 0.0
H670 H 0.50471 0.2969 0.27129 0.0
H671 H 0.449 0.42374 0.3847 0.0
H672 H 0.5127 0.36017 0.42474 0.0
H673 H 0.43386 0.35367 0.2893 0.0
C674 C 0.45014 0.32337 0.21526 0.0
C675 C 0.471 0.30836 0.20493 0.0
C676 C 0.49852 0.37403 0.41809 0.0
C677 C 0.46928 0.34343 0.34814 0.0
C678 C 0.50549 0.39867 0.42113 0.0
C679 C 0.48817 0.41711 0.40228 0.0
C680 C 0.47426 0.36774 0.39288 0.0
C681 C 0.4633 0.41013 0.39379 0.0
C682 C 0.44898 0.34067 0.28802 0.0
C683 C 0.48856 0.30856 0.27623 0.0
N684 N 0.4572 0.38597 0.38588 0.0
N685 N 0.48779 0.3265 0.34324 0.0
H686 H 0.25847 0.50735 0.31951 0.0
H687 H 0.1341 0.44379 0.44119 0.0
H688 H 0.23037 0.44027 0.19571 0.0
H689 H 0.15216 0.52104 0.46483 0.0
H690 H 0.1781 0.43447 0.43089 0.0
H691 H 0.23026 0.50236 0.45063 0.0
C692 C 0.24723 0.49091 0.3223 0.0
C693 C 0.24598 0.47461 0.24575 0.0
C694 C 0.17231 0.45336 0.44181 0.0
C695 C 0.21351 0.46913 0.39341 0.0
C696 C 0.14717 0.45879 0.44626 0.0
C697 C 0.13915 0.48338 0.44776 0.0
C698 C 0.18945 0.47264 0.43993 0.0
C699 C 0.15709 0.50181 0.46065 0.0
C700 C 0.23106 0.48813 0.39689 0.0
C701 C 0.23126 0.45357 0.25268 0.0
N702 N 0.18136 0.49609 0.45381 0.0
N703 N 0.21501 0.45176 0.32405 0.0
H704 H 0.95881 0.84632 0.07579 0.0
H705 H 0.05894 0.87751 0.71211 0.0
H706 H 1.01585 0.79732 0.97534 0.0
H707 H 1.01154 0.92831 0.86291 0.0
H708 H 0.02969 0.8446 0.74437 0.0
H709 H 0.96362 0.87057 0.93585 0.0
C710 C 0.97178 0.84022 0.02276 0.0
C711 C 0.9877 0.82046 0.03874 0.0
C712 C 0.02539 0.86317 0.7676 0.0
C713 C 0.99373 0.84832 0.88025 0.0
C714 C 0.04223 0.88195 0.75019 0.0
C715 C 0.03865 0.9055 0.79 0.0
C716 C 1.00493 0.86808 0.82504 0.0
C717 C 1.01582 0.91042 0.83316 0.0
C718 C 0.97451 0.85402 0.9428 0.0
C719 C 1.00365 0.81284 0.96678 0.0
N720 N 1.00019 0.89173 0.8517 0.0
N721 N 1.00686 0.82727 0.89185 0.0
H722 H 0.7637 1.01329 0.0065 0.0
H723 H 0.63637 1.00581 0.74992 0.0
H724 H 0.70457 0.96352 0.07291 0.0
H725 H 0.68627 0.06767 0.75772 0.0
H726 H 0.66951 0.9798 0.80758 0.0
H727 H 0.74424 0.02088 0.85732 0.0
C728 C 0.74709 1.00323 0.98843 0.0
C729 C 0.73523 0.98841 0.05362 0.0
C730 C 0.67333 0.99891 0.79378 0.0
C731 C 0.71267 0.99752 0.88395 0.0
C732 C 0.65439 1.01385 0.76173 0.0
C733 C 0.65816 0.03927 0.75358 0.0
C734 C 0.69613 1.00951 0.81724 0.0
C735 C 0.68222 0.04835 0.76507 0.0
C736 C 0.73593 1.00769 0.90325 0.0
C737 C 0.71382 0.97579 0.0259 0.0
N738 N 0.70014 0.0336 0.79857 0.0
N739 N 0.70283 0.98113 0.94398 0.0
H740 H 0.54359 0.75549 0.02907 0.0
H741 H 0.60102 0.62794 0.89587 0.0
H742 H 0.6121 0.72676 0.13203 0.0
H743 H 0.52433 0.64879 0.87762 0.0
H744 H 0.61213 0.67141 0.90776 0.0
H745 H 0.54514 0.72553 0.89998 0.0
C746 C 0.5596 0.74369 0.02172 0.0
C747 C 0.57739 0.74296 0.09217 0.0
C748 C 0.59295 0.6664 0.89803 0.0
C749 C 0.57895 0.70844 0.94715 0.0
C750 C 0.58654 0.64159 0.8923 0.0
C751 C 0.56158 0.63459 0.89074 0.0
C752 C 0.57428 0.68424 0.90209 0.0
C753 C 0.54378 0.65312 0.88116 0.0
C754 C 0.5604 0.72647 0.94849 0.0
C755 C 0.59777 0.72741 0.07974 0.0
N756 N 0.55043 0.67709 0.88964 0.0
N757 N 0.59768 0.71022 0.01001 0.0
H758 H 0.79295 0.55045 0.97969 0.0
H759 H 0.922 0.61238 0.92864 0.0
H760 H 0.81772 0.61433 0.13449 0.0
H761 H 0.90219 0.53625 0.87851 0.0
H762 H 0.87818 0.6229 0.92956 0.0
H763 H 0.82506 0.55759 0.8641 0.0
C764 C 0.80421 0.56684 0.98642 0.0
C765 C 0.80345 0.58132 0.06805 0.0
C766 C 0.88365 0.60405 0.91523 0.0
C767 C 0.84051 0.58905 0.93877 0.0
C768 C 0.90867 0.59788 0.91633 0.0
C769 C 0.91607 0.57313 0.90821 0.0
C770 C 0.86597 0.58541 0.90453 0.0
C771 C 0.89781 0.55553 0.8868 0.0
C772 C 0.82273 0.57076 0.92095 0.0
C773 C 0.81831 0.60239 0.07333 0.0
N774 N 0.87367 0.56197 0.88754 0.0
N775 N 0.83693 0.60517 0.01122 0.0
H776 H 1.00052 0.21365 0.97142 0.0
H777 H 0.05623 0.09885 0.67389 0.0
H778 H 0.07848 0.20505 0.92469 0.0
H779 H 0.98665 0.09676 0.818 0.0
H780 H 0.06312 0.1408 0.73819 0.0
H781 H 0.99335 0.17449 0.88666 0.0
C782 C 1.01607 0.20395 0.94075 0.0
C783 C 0.04011 0.21305 0.95381 0.0
C784 C 0.04641 0.13109 0.75615 0.0
C785 C 0.03211 0.16762 0.8578 0.0
C786 C 0.04259 0.10703 0.7201 0.0
C787 C 0.02129 0.09374 0.74374 0.0
C788 C 0.02852 0.14232 0.81437 0.0
C789 C 1.00367 0.10594 0.80001 0.0
C790 C 1.01202 0.18137 0.89337 0.0
C791 C 0.05961 0.19905 0.91494 0.0
N792 N 1.00769 0.12927 0.83348 0.0
N793 N 0.05522 0.17719 0.86897 0.0
H794 H 0.33685 1.01118 0.92935 0.0
H795 H 0.46244 0.06033 0.69518 0.0
H796 H 0.35585 0.08794 0.92258 0.0
H797 H 0.45253 0.98611 0.78619 0.0
H798 H 0.42088 0.0705 0.75429 0.0
H799 H 0.376 1.00127 0.84976 0.0
C800 C 0.34892 0.02598 0.90896 0.0
C801 C 0.34289 0.05044 0.93234 0.0
C802 C 0.42784 0.052 0.76161 0.0
C803 C 0.38811 0.03923 0.84244 0.0
C804 C 0.45167 0.04626 0.72858 0.0
C805 C 0.46143 0.02255 0.73882 0.0
C806 C 0.41328 0.03374 0.80296 0.0
C807 C 0.44607 1.00478 0.77882 0.0
C808 C 0.37145 0.02032 0.86456 0.0
C809 C 0.35964 0.06883 0.90568 0.0
N810 N 0.42295 1.01071 0.80948 0.0
N811 N 0.38138 0.06289 0.86266 0.0
H812 H 0.45776 0.33933 0.88231 0.0
H813 H 0.55255 0.44018 0.69173 0.0
H814 H 0.53644 0.32867 0.88355 0.0
H815 H 0.47406 0.45135 0.71715 0.0
H816 H 0.54716 0.39781 0.74297 0.0
H817 H 0.46348 0.37803 0.8017 0.0
C818 C 0.47627 0.34487 0.86345 0.0
C819 C 0.49663 0.33054 0.88927 0.0
C820 C 0.53111 0.4095 0.73703 0.0
C821 C 0.50348 0.37559 0.79847 0.0
C822 C 0.53415 0.4338 0.7076 0.0
C823 C 0.5138 0.44978 0.70149 0.0
C824 C 0.50748 0.40083 0.76006 0.0
C825 C 0.49042 0.44008 0.72238 0.0
C826 C 0.47956 0.36715 0.81807 0.0
C827 C 0.5202 0.33889 0.86397 0.0
N828 N 0.48796 0.41645 0.75095 0.0
N829 N 0.523 0.36095 0.82093 0.0
H830 H 0.21014 0.46193 0.93375 0.0
H831 H 0.11125 0.55394 0.71149 0.0
H832 H 0.22267 0.53988 0.91918 0.0
H833 H 0.09751 0.47723 0.75963 0.0
H834 H 0.15343 0.54887 0.76969 0.0
H835 H 0.1711 0.46686 0.85149 0.0
C836 C 0.20489 0.4801 0.9116 0.0
C837 C 0.2199 0.5005 0.93369 0.0
C838 C 0.14121 0.53313 0.76741 0.0
C839 C 0.17444 0.50644 0.83986 0.0
C840 C 0.117 0.53599 0.734 0.0
C841 C 0.10034 0.5161 0.73189 0.0
C842 C 0.14916 0.51011 0.79846 0.0
C843 C 0.10929 0.49328 0.76142 0.0
C844 C 0.18242 0.48293 0.86503 0.0
C845 C 0.21193 0.52358 0.90309 0.0
N846 N 0.13288 0.49098 0.7935 0.0
N847 N 0.1897 0.52595 0.85868 0.0
H848 H 0.97089 0.84906 0.39772 0.0
H849 H 0.06577 0.95879 0.50537 0.0
H850 H 0.04864 0.84378 0.341 0.0
H851 H 0.9949 0.95611 0.63993 0.0
H852 H 0.05884 0.91743 0.44047 0.0
H853 H 0.97812 0.88806 0.48359 0.0
C854 C 0.9896 0.85571 0.40584 0.0
C855 C 1.00927 0.8426 0.36413 0.0
C856 C 0.04467 0.92579 0.48381 0.0
C857 C 1.01762 0.88813 0.45929 0.0
C858 C 0.04856 0.94957 0.52056 0.0
C859 C 0.03053 0.9615 0.57546 0.0
C860 C 0.02252 0.91334 0.502 0.0
C861 C 1.00893 0.94814 0.59498 0.0
C862 C 0.9937 0.87815 0.45422 0.0
C863 C 0.03301 0.85276 0.37399 0.0
N864 N 1.00541 0.92499 0.55752 0.0
N865 N 0.03644 0.87486 0.41943 0.0
H866 H 0.69932 0.9683 0.39364 0.0
H867 H 0.59616 0.06927 0.51261 0.0
H868 H 0.71209 0.04599 0.37215 0.0
H869 H 0.5909 0.9953 0.61124 0.0
H870 H 0.63798 0.06054 0.45648 0.0
H871 H 0.65968 0.97701 0.4711 0.0
C872 C 0.6941 0.98722 0.40785 0.0
C873 C 0.70939 1.00645 0.37838 0.0
C874 C 0.62772 0.04611 0.48992 0.0
C875 C 0.66335 0.01663 0.46361 0.0
C876 C 0.60373 0.05105 0.52164 0.0
C877 C 0.58961 0.0328 0.56445 0.0
C878 C 0.63799 0.02263 0.50065 0.0
C879 C 0.60074 1.00973 0.57619 0.0
C880 C 0.67134 0.99219 0.45133 0.0
C881 C 0.70124 0.03062 0.39568 0.0
N882 N 0.62409 1.00522 0.54361 0.0
N883 N 0.67877 0.035 0.4361 0.0
H884 H 0.59284 0.71184 0.41463 0.0
H885 H 0.4983 0.61059 0.60387 0.0
H886 H 0.5142 0.72275 0.41808 0.0
H887 H 0.57674 0.59936 0.57662 0.0
H888 H 0.5037 0.65312 0.55458 0.0
H889 H 0.5873 0.6729 0.49393 0.0
C890 C 0.57439 0.70631 0.43441 0.0
C891 C 0.55398 0.72079 0.41036 0.0
C892 C 0.51974 0.64138 0.55967 0.0
C893 C 0.54733 0.67545 0.49936 0.0
C894 C 0.51669 0.61698 0.58795 0.0
C895 C 0.53702 0.60095 0.59298 0.0
C896 C 0.54336 0.6501 0.53666 0.0
C897 C 0.56039 0.61067 0.57216 0.0
C898 C 0.5712 0.68389 0.47895 0.0
C899 C 0.53048 0.71243 0.43646 0.0
N900 N 0.56286 0.6344 0.54466 0.0
N901 N 0.52777 0.69024 0.47858 0.0
H902 H 0.85228 0.5271 0.22375 0.0
H903 H 0.93209 0.52507 0.69003 0.0
H904 H 0.81858 0.54996 0.48298 0.0
H905 H 0.96149 0.5425 0.42142 0.0
H906 H 0.89009 0.52578 0.62364 0.0
H907 H 0.89171 0.52275 0.30323 0.0
C908 C 0.85304 0.53077 0.29806 0.0
C909 C 0.83194 0.53916 0.34623 0.0
C910 C 0.90579 0.52966 0.57965 0.0
C911 C 0.87762 0.53416 0.43861 0.0
C912 C 0.92979 0.52932 0.61755 0.0
C913 C 0.95052 0.53456 0.56219 0.0
C914 C 0.90252 0.53429 0.48458 0.0
C915 C 0.94626 0.53928 0.46789 0.0
C916 C 0.87569 0.52845 0.3433 0.0
C917 C 0.83424 0.54338 0.44288 0.0
N918 N 0.92297 0.53883 0.43226 0.0
N919 N 0.8567 0.54099 0.48587 0.0
loop_
_geom_bond_atom_site_label_1
_geom_bond_atom_site_label_2
_geom_bond_distance
_geom_bond_site_symmetry_2
_ccdc_geom_bond_type
H0 C1 0.949 . S
C1 H0 0.949 . S
C1 C2 1.395 . S
C1 C3 1.391 . S
C2 C1 1.395 . S
C2 C5 1.390 . S
C3 C1 1.391 . S
C3 C7 1.387 . S
C3 C8 1.491 . S
H4 C5 0.950 . S
C5 C2 1.390 . S
C5 H4 0.950 . S
C5 C6 1.378 . S
C6 C5 1.378 . S
C6 C7 1.409 . S
C7 C3 1.387 . S
C7 C6 1.409 . S
C7 H9 0.951 . S
C8 C3 1.491 . S
C8 C10 1.382 . S
C8 C12 1.404 . S
H9 C7 0.951 . S
C10 C8 1.382 . S
C10 C11 1.390 . S
C10 H15 0.949 . S
C11 C10 1.390 . S
C11 C16 1.399 . S
C12 C8 1.404 . S
C12 H13 0.950 . S
C12 C14 1.375 . S
H13 C12 0.950 . S
C14 C12 1.375 . S
C14 C16 1.382 . S
C14 H18 0.950 . S
H15 C10 0.949 . S
C16 C11 1.399 . S
C16 C14 1.382 . S
C16 H17 0.952 . S
H17 C16 0.952 . S
H18 C14 0.950 . S
H19 C20 0.949 . S
C20 H19 0.949 . S
C20 C21 1.395 . S
C20 C22 1.391 . S
C21 C20 1.395 . S
C21 C24 1.390 . S
C22 C20 1.391 . S
C22 C26 1.387 . S
C22 C27 1.491 . S
H23 C24 0.950 . S
C24 C21 1.390 . S
C24 H23 0.950 . S
C24 C25 1.378 . S
C25 C24 1.378 . S
C25 C26 1.409 . S
C26 C22 1.387 . S
C26 C25 1.409 . S
C26 H28 0.951 . S
C27 C22 1.491 . S
C27 C29 1.382 . S
C27 C31 1.404 . S
H28 C26 0.951 . S
C29 C27 1.382 . S
C29 C30 1.390 . S
C29 H34 0.949 . S
C30 C29 1.390 . S
C30 C35 1.399 . S
C31 C27 1.404 . S
C31 H32 0.950 . S
C31 C33 1.375 . S
H32 C31 0.950 . S
C33 C31 1.375 . S
C33 C35 1.382 . S
C33 H37 0.950 . S
H34 C29 0.949 . S
C35 C30 1.399 . S
C35 C33 1.382 . S
C35 H36 0.952 . S
H36 C35 0.952 . S
H37 C33 0.950 . S
H38 C39 0.949 . S
C39 H38 0.949 . S
C39 C40 1.395 . S
C39 C41 1.391 . S
C40 C39 1.395 . S
C40 C43 1.390 . S
C41 C39 1.391 . S
C41 C45 1.387 . S
C41 C46 1.491 . S
H42 C43 0.950 . S
C43 C40 1.390 . S
C43 H42 0.950 . S
C43 C44 1.378 . S
C44 C43 1.378 . S
C44 C45 1.409 . S
C45 C41 1.387 . S
C45 C44 1.409 . S
C45 H47 0.951 . S
C46 C41 1.491 . S
C46 C48 1.382 . S
C46 C50 1.404 . S
H47 C45 0.951 . S
C48 C46 1.382 . S
C48 C49 1.390 . S
C48 H53 0.949 . S
C49 C48 1.390 . S
C49 C54 1.399 . S
C50 C46 1.404 . S
C50 H51 0.950 . S
C50 C52 1.375 . S
H51 C50 0.950 . S
C52 C50 1.375 . S
C52 C54 1.382 . S
C52 H56 0.950 . S
H53 C48 0.949 . S
C54 C49 1.399 . S
C54 C52 1.382 . S
C54 H55 0.952 . S
H55 C54 0.952 . S
H56 C52 0.950 . S
H57 C58 0.949 . S
C58 H57 0.949 . S
C58 C59 1.395 . S
C58 C60 1.391 . S
C59 C58 1.395 . S
C59 C62 1.390 . S
C60 C58 1.391 . S
C60 C64 1.387 . S
C60 C65 1.491 . S
H61 C62 0.950 . S
C62 C59 1.390 . S
C62 H61 0.950 . S
C62 C63 1.378 . S
C63 C62 1.378 . S
C63 C64 1.409 . S
C64 C60 1.387 . S
C64 C63 1.409 . S
C64 H66 0.951 . S
C65 C60 1.491 . S
C65 C67 1.382 . S
C65 C69 1.404 . S
H66 C64 0.951 . S
C67 C65 1.382 . S
C67 C68 1.390 . S
C67 H72 0.949 . S
C68 C67 1.390 . S
C68 C73 1.399 . S
C69 C65 1.404 . S
C69 H70 0.950 . S
C69 C71 1.375 . S
H70 C69 0.950 . S
C71 C69 1.375 . S
C71 C73 1.382 . S
C71 H75 0.950 . S
H72 C67 0.949 . S
C73 C68 1.399 . S
C73 C71 1.382 . S
C73 H74 0.952 . S
H74 C73 0.952 . S
H75 C71 0.950 . S
H76 C77 0.949 . S
C77 H76 0.949 . S
C77 C78 1.395 . S
C77 C79 1.391 1_554 S
C78 C77 1.395 . S
C78 C81 1.390 1_554 S
C79 C77 1.391 1_556 S
C79 C83 1.387 . S
C79 C84 1.491 . S
H80 C81 0.950 . S
C81 C78 1.390 1_556 S
C81 H80 0.950 . S
C81 C82 1.378 . S
C82 C81 1.378 . S
C82 C83 1.409 . S
C83 C79 1.387 . S
C83 C82 1.409 . S
C83 H85 0.951 . S
C84 C79 1.491 . S
C84 C86 1.382 1_556 S
C84 C88 1.404 . S
H85 C83 0.951 . S
C86 C84 1.382 1_554 S
C86 C87 1.390 . S
C86 H91 0.949 . S
C87 C86 1.390 . S
C87 C92 1.399 1_554 S
C88 C84 1.404 . S
C88 H89 0.950 . S
C88 C90 1.375 . S
H89 C88 0.950 . S
C90 C88 1.375 . S
C90 C92 1.382 . S
C90 H94 0.950 . S
H91 C86 0.949 . S
C92 C87 1.399 1_556 S
C92 C90 1.382 . S
C92 H93 0.952 . S
H93 C92 0.952 . S
H94 C90 0.950 . S
H95 C96 0.949 . S
C96 H95 0.949 . S
C96 C97 1.395 . S
C96 C98 1.391 1_554 S
C97 C96 1.395 . S
C97 C100 1.390 1_554 S
C98 C96 1.391 1_556 S
C98 C102 1.387 . S
C98 C103 1.491 . S
H99 C100 0.950 . S
C100 C97 1.390 1_556 S
C100 H99 0.950 . S
C100 C101 1.378 . S
C101 C100 1.378 . S
C101 C102 1.409 . S
C102 C98 1.387 . S
C102 C101 1.409 . S
C102 H104 0.951 . S
C103 C98 1.491 . S
C103 C105 1.382 1_556 S
C103 C107 1.404 . S
H104 C102 0.951 . S
C105 C103 1.382 1_554 S
C105 C106 1.390 . S
C105 H110 0.949 . S
C106 C105 1.390 . S
C106 C111 1.399 1_554 S
C107 C103 1.404 . S
C107 H108 0.950 . S
C107 C109 1.375 . S
H108 C107 0.950 . S
C109 C107 1.375 . S
C109 C111 1.382 . S
C109 H113 0.950 . S
H110 C105 0.949 . S
C111 C106 1.399 1_556 S
C111 C109 1.382 . S
C111 H112 0.952 . S
H112 C111 0.952 . S
H113 C109 0.950 . S
H114 C115 0.949 . S
C115 H114 0.949 . S
C115 C116 1.395 . S
C115 C117 1.391 1_554 S
C116 C115 1.395 . S
C116 C119 1.390 1_554 S
C117 C115 1.391 1_556 S
C117 C121 1.387 . S
C117 C122 1.491 . S
H118 C119 0.950 . S
C119 C116 1.390 1_556 S
C119 H118 0.950 . S
C119 C120 1.378 . S
C120 C119 1.378 . S
C120 C121 1.409 . S
C121 C117 1.387 . S
C121 C120 1.409 . S
C121 H123 0.951 . S
C122 C117 1.491 . S
C122 C124 1.382 1_556 S
C122 C126 1.404 . S
H123 C121 0.951 . S
C124 C122 1.382 1_554 S
C124 C125 1.390 . S
C124 H129 0.949 . S
C125 C124 1.390 . S
C125 C130 1.399 1_554 S
C126 C122 1.404 . S
C126 H127 0.950 . S
C126 C128 1.375 . S
H127 C126 0.950 . S
C128 C126 1.375 . S
C128 C130 1.382 . S
C128 H132 0.950 . S
H129 C124 0.949 . S
C130 C125 1.399 1_556 S
C130 C128 1.382 . S
C130 H131 0.952 . S
H131 C130 0.952 . S
H132 C128 0.950 . S
H133 C134 0.949 . S
C134 H133 0.949 . S
C134 C135 1.395 . S
C134 C136 1.391 1_554 S
C135 C134 1.395 . S
C135 C138 1.390 1_554 S
C136 C134 1.391 1_556 S
C136 C140 1.387 . S
C136 C141 1.491 . S
H137 C138 0.950 . S
C138 C135 1.390 1_556 S
C138 H137 0.950 . S
C138 C139 1.378 . S
C139 C138 1.378 . S
C139 C140 1.409 . S
C140 C136 1.387 . S
C140 C139 1.409 . S
C140 H142 0.951 . S
C141 C136 1.491 . S
C141 C143 1.382 1_556 S
C141 C145 1.404 . S
H142 C140 0.951 . S
C143 C141 1.382 1_554 S
C143 C144 1.390 . S
C143 H148 0.949 . S
C144 C143 1.390 . S
C144 C149 1.399 1_554 S
C145 C141 1.404 . S
C145 H146 0.950 . S
C145 C147 1.375 . S
H146 C145 0.950 . S
C147 C145 1.375 . S
C147 C149 1.382 . S
C147 H151 0.950 . S
H148 C143 0.949 . S
C149 C144 1.399 1_556 S
C149 C147 1.382 . S
C149 H150 0.952 . S
H150 C149 0.952 . S
H151 C147 0.950 . S
Eu152 N183 2.657 1_565 S
Eu152 N190 2.609 1_565 S
Eu152 O196 2.558 . S
Eu152 O197 2.612 1_455 S
Eu152 O199 2.339 1_465 S
Eu152 O200 2.563 . S
Eu152 O201 2.419 . S
Eu152 O203 2.380 1_565 S
Eu152 O204 2.439 . S
Eu152 C216 2.848 . S
C153 C156 1.429 1_545 S
C153 C157 1.411 . S
C153 N160 1.377 . S
C154 C156 1.420 . S
C154 C158 1.423 . S
C154 C166 1.392 . S
C155 C157 1.420 1_565 S
C155 C158 1.351 . S
C155 H178 0.931 . S
C156 C153 1.429 1_565 S
C156 C154 1.420 . S
C156 N164 1.362 1_565 S
C157 C153 1.411 . S
C157 C155 1.420 1_545 S
C157 C162 1.395 . S
C158 C154 1.423 . S
C158 C155 1.351 . S
C158 H170 0.930 . S
C159 C161 1.400 . S
C159 C162 1.386 . S
C159 H171 0.930 . S
N160 C153 1.377 . S
N160 C161 1.321 . S
N160 Eu163 2.609 . S
C161 C159 1.400 . S
C161 N160 1.321 . S
C161 H168 0.930 . S
C162 C157 1.395 . S
C162 C159 1.386 . S
C162 H181 0.930 . S
Eu163 N160 2.609 . S
Eu163 N164 2.657 . S
Eu163 O197 2.380 1_545 S
Eu163 O198 2.432 . S
Eu163 O202 2.558 . S
Eu163 O203 2.612 1_655 S
Eu163 O205 2.339 1_655 S
Eu163 O206 2.563 1_655 S
Eu163 O207 2.422 . S
Eu163 C227 2.848 . S
N164 C156 1.362 1_545 S
N164 Eu163 2.657 . S
N164 C165 1.334 1_645 S
C165 N164 1.334 1_465 S
C165 C167 1.413 . S
C165 H172 0.929 . S
C166 C154 1.392 . S
C166 C167 1.367 1_655 S
C166 H174 0.930 . S
C167 C165 1.413 . S
C167 C166 1.367 1_455 S
C167 H169 0.930 . S
H168 C161 0.930 . S
H169 C167 0.930 . S
H170 C158 0.930 . S
H171 C159 0.930 . S
H172 C165 0.929 . S
H173 C187 0.930 1_655 S
H174 C166 0.930 . S
H175 C193 0.930 . S
H176 C184 0.929 1_655 S
H177 C191 0.930 . S
H178 C155 0.931 . S
H179 C185 0.930 . S
H180 C218 0.930 . S
H181 C162 0.930 . S
H182 C217 0.931 . S
N183 Eu152 2.657 1_545 S
N183 C184 1.334 . S
N183 C188 1.362 . S
C184 H176 0.929 1_455 S
C184 N183 1.334 . S
C184 C187 1.413 1_556 S
C185 H179 0.930 . S
C185 C186 1.392 . S
C185 C187 1.367 . S
C186 C185 1.392 . S
C186 C188 1.420 1_554 S
C186 C218 1.423 . S
C187 H173 0.930 1_455 S
C187 C184 1.413 1_554 S
C187 C185 1.367 . S
C188 N183 1.362 . S
C188 C186 1.420 1_556 S
C188 C192 1.429 . S
H189 C194 0.930 . S
N190 Eu152 2.609 1_545 S
N190 C192 1.377 . S
N190 C193 1.321 1_545 S
C191 H177 0.930 . S
C191 C193 1.400 . S
C191 C194 1.386 1_565 S
C192 C188 1.429 . S
C192 N190 1.377 . S
C192 C195 1.411 . S
C193 H175 0.930 . S
C193 N190 1.321 1_565 S
C193 C191 1.400 . S
C194 H189 0.930 . S
C194 C191 1.386 1_545 S
C194 C195 1.395 . S
C195 C192 1.411 . S
C195 C194 1.395 . S
C195 C217 1.420 1_556 S
O196 Eu152 2.558 . S
O196 C216 1.257 . S
O197 Eu152 2.612 1_655 S
O197 Eu163 2.380 1_565 S
O197 C208 1.276 . S
O198 Eu163 2.432 . S
O198 C215 1.264 . S
O199 Eu152 2.339 1_645 S
O199 C215 1.252 . S
O200 Eu152 2.563 . S
O200 C208 1.235 1_455 S
O201 Eu152 2.419 . S
O201 C216 1.249 . S
O202 Eu163 2.558 . S
O202 C227 1.257 . S
O203 Eu152 2.380 1_545 S
O203 Eu163 2.612 1_455 S
O203 C219 1.276 . S
O204 Eu152 2.439 . S
O204 C226 1.234 1_565 S
O205 Eu163 2.339 1_455 S
O205 C226 1.254 . S
O206 Eu163 2.563 1_455 S
O206 C219 1.235 . S
O207 Eu163 2.422 . S
O207 C227 1.259 . S
C208 O197 1.276 . S
C208 O200 1.235 1_655 S
C209 C211 1.393 . S
C209 C213 1.395 . S
C209 C216 1.492 . S
C210 C211 1.392 . S
C210 C212 1.386 1_556 S
C211 C209 1.393 . S
C211 C210 1.392 . S
C211 H228 0.899 1_455 S
C212 C210 1.386 1_554 S
C212 C214 1.395 1_554 S
C212 H229 0.930 . S
C213 C209 1.395 . S
C213 C214 1.379 . S
C213 H230 0.930 . S
C214 C212 1.395 1_556 S
C214 C213 1.379 . S
C214 H231 0.933 . S
C215 O198 1.264 . S
C215 O199 1.252 . S
C216 Eu152 2.848 . S
C216 O196 1.257 . S
C216 O201 1.249 . S
C216 C209 1.492 . S
C217 H182 0.931 . S
C217 C195 1.420 1_554 S
C217 C218 1.351 . S
C218 H180 0.930 . S
C218 C186 1.423 . S
C218 C217 1.351 . S
C219 O203 1.276 . S
C219 O206 1.235 . S
C220 C221 1.395 . S
C220 C224 1.395 . S
C220 C227 1.492 . S
C221 C220 1.395 . S
C221 C222 1.393 . S
C221 H232 0.928 1_655 S
C222 C221 1.393 . S
C222 C223 1.386 . S
C223 C222 1.386 . S
C223 C225 1.395 . S
C223 H233 0.930 . S
C224 C220 1.395 . S
C224 C225 1.379 . S
C224 H234 0.930 . S
C225 C223 1.395 . S
C225 C224 1.379 . S
C225 H235 0.930 . S
C226 O204 1.234 1_545 S
C226 O205 1.254 . S
C227 Eu163 2.848 . S
C227 O202 1.257 . S
C227 O207 1.259 . S
C227 C220 1.492 . S
H228 C211 0.899 1_655 S
H229 C212 0.930 . S
H230 C213 0.930 . S
H231 C214 0.933 . S
H232 C221 0.928 1_455 S
H233 C223 0.930 . S
H234 C224 0.930 . S
H235 C225 0.930 . S
Eu236 N267 2.657 . S
Eu236 N274 2.609 . S
Eu236 O280 2.558 . S
Eu236 O281 2.625 . S
Eu236 O283 2.339 1_545 S
Eu236 O284 2.563 . S
Eu236 O285 2.419 . S
Eu236 O287 2.380 . S
Eu236 O288 2.432 . S
Eu236 C300 2.848 . S
C237 C240 1.429 . S
C237 C241 1.411 . S
C237 N244 1.377 . S
C238 C240 1.420 . S
C238 C242 1.423 . S
C238 C250 1.392 . S
C239 C241 1.420 . S
C239 C242 1.351 . S
C239 H262 0.931 . S
C240 C237 1.429 . S
C240 C238 1.420 . S
C240 N248 1.362 . S
C241 C237 1.411 . S
C241 C239 1.420 . S
C241 C246 1.395 . S
C242 C238 1.423 . S
C242 C239 1.351 . S
C242 H254 0.930 . S
C243 C245 1.400 . S
C243 C246 1.386 . S
C243 H255 0.930 . S
N244 C237 1.377 . S
N244 C245 1.321 . S
N244 Eu247 2.609 . S
C245 C243 1.400 . S
C245 N244 1.321 . S
C245 H252 0.930 . S
C246 C241 1.395 . S
C246 C243 1.386 . S
C246 H265 0.930 . S
Eu247 N244 2.609 . S
Eu247 N248 2.657 . S
Eu247 O281 2.377 1_565 S
Eu247 O282 2.432 . S
Eu247 O286 2.558 . S
Eu247 O287 2.612 1_565 S
Eu247 O289 2.339 1_565 S
Eu247 O290 2.563 1_565 S
Eu247 O291 2.419 1_565 S
Eu247 C311 2.848 . S
N248 C240 1.362 . S
N248 Eu247 2.657 . S
N248 C249 1.334 1_565 S
C249 N248 1.334 1_545 S
C249 C251 1.413 . S
C249 H256 0.929 . S
C250 C238 1.392 . S
C250 C251 1.367 1_565 S
C250 H258 0.930 . S
C251 C249 1.413 . S
C251 C250 1.367 1_545 S
C251 H253 0.930 . S
H252 C245 0.930 . S
H253 C251 0.930 . S
H254 C242 0.930 . S
H255 C243 0.930 . S
H256 C249 0.929 . S
H257 C271 0.930 1_565 S
H258 C250 0.930 . S
H259 C277 0.930 . S
H260 C268 0.929 1_565 S
H261 C275 0.930 . S
H262 C239 0.931 . S
H263 C269 0.930 . S
H264 C302 0.930 . S
H265 C246 0.930 . S
H266 C301 0.931 . S
N267 Eu236 2.657 . S
N267 C268 1.334 . S
N267 C272 1.362 . S
C268 H260 0.929 1_545 S
C268 N267 1.334 . S
C268 C271 1.413 1_556 S
C269 H263 0.930 . S
C269 C270 1.392 . S
C269 C271 1.367 . S
C270 C269 1.392 . S
C270 C272 1.420 1_554 S
C270 C302 1.423 . S
C271 H257 0.930 1_545 S
C271 C268 1.413 1_554 S
C271 C269 1.367 . S
C272 N267 1.362 . S
C272 C270 1.420 1_556 S
C272 C276 1.429 . S
H273 C278 0.930 . S
N274 Eu236 2.609 . S
N274 C276 1.377 . S
N274 C277 1.321 . S
C275 H261 0.930 . S
C275 C277 1.400 . S
C275 C278 1.386 . S
C276 C272 1.429 . S
C276 N274 1.377 . S
C276 C279 1.411 . S
C277 H259 0.930 . S
C277 N274 1.321 . S
C277 C275 1.400 . S
C278 H273 0.930 . S
C278 C275 1.386 . S
C278 C279 1.395 . S
C279 C276 1.411 . S
C279 C278 1.395 . S
C279 C301 1.420 1_556 S
O280 Eu236 2.558 . S
O280 C300 1.257 . S
O281 Eu236 2.625 . S
O281 Eu247 2.377 1_545 S
O281 C292 1.277 . S
O282 Eu247 2.432 . S
O282 C299 1.264 . S
O283 Eu236 2.339 1_565 S
O283 C299 1.254 . S
O284 Eu236 2.563 . S
O284 C292 1.235 . S
O285 Eu236 2.419 . S
O285 C300 1.249 . S
O286 Eu247 2.558 . S
O286 C311 1.257 . S
O287 Eu236 2.380 . S
O287 Eu247 2.612 1_545 S
O287 C303 1.276 . S
O288 Eu236 2.432 . S
O288 C310 1.264 . S
O289 Eu247 2.339 1_545 S
O289 C310 1.254 . S
O290 Eu247 2.563 1_545 S
O290 C303 1.235 . S
O291 Eu247 2.419 1_545 S
O291 C311 1.249 1_545 S
C292 O281 1.277 . S
C292 O284 1.235 . S
C293 C295 1.393 . S
C293 C297 1.395 . S
C293 C300 1.492 . S
C294 C295 1.392 . S
C294 C296 1.386 1_556 S
C295 C293 1.393 . S
C295 C294 1.392 . S
C295 H312 0.930 . S
C296 C294 1.386 1_554 S
C296 C298 1.395 1_554 S
C296 H313 0.930 . S
C297 C293 1.395 . S
C297 C298 1.379 . S
C297 H314 0.930 . S
C298 C296 1.395 1_556 S
C298 C297 1.379 . S
C298 H315 0.930 1_556 S
C299 O282 1.264 . S
C299 O283 1.254 . S
C300 Eu236 2.848 . S
C300 O280 1.257 . S
C300 O285 1.249 . S
C300 C293 1.492 . S
C301 H266 0.931 . S
C301 C279 1.420 1_554 S
C301 C302 1.351 . S
C302 H264 0.930 . S
C302 C270 1.423 . S
C302 C301 1.351 . S
C303 O287 1.276 . S
C303 O290 1.235 . S
C304 C305 1.393 1_565 S
C304 C308 1.395 . S
C304 C311 1.492 . S
C305 C304 1.393 1_545 S
C305 C306 1.394 . S
C305 H316 0.930 . S
C306 C305 1.394 . S
C306 C307 1.363 1_545 S
C307 C306 1.363 1_565 S
C307 C309 1.395 . S
C307 H317 0.930 . S
C308 C304 1.395 . S
C308 C309 1.379 . S
C308 H318 0.930 . S
C309 C307 1.395 . S
C309 C308 1.379 . S
C309 H319 0.930 . S
C310 O288 1.264 . S
C310 O289 1.254 . S
C311 Eu247 2.848 . S
C311 O286 1.257 . S
C311 O291 1.249 1_565 S
C311 C304 1.492 . S
H312 C295 0.930 . S
H313 C296 0.930 . S
H314 C297 0.930 . S
H315 C298 0.930 1_554 S
H316 C305 0.930 . S
H317 C307 0.930 . S
H318 C308 0.930 . S
H319 C309 0.930 . S
Eu320 N351 2.657 . S
Eu320 N358 2.609 . S
Eu320 O364 2.558 . S
Eu320 O365 2.612 . S
Eu320 O367 2.339 . S
Eu320 O368 2.563 . S
Eu320 O369 2.419 . S
Eu320 O371 2.380 . S
Eu320 O372 2.432 . S
Eu320 C384 2.848 . S
C321 C324 1.429 . S
C321 C325 1.411 . S
C321 N328 1.377 . S
C322 C324 1.420 . S
C322 C326 1.423 . S
C322 C334 1.392 . S
C323 C325 1.420 . S
C323 C326 1.351 . S
C323 H346 0.931 . S
C324 C321 1.429 . S
C324 C322 1.420 . S
C324 N332 1.362 . S
C325 C321 1.411 . S
C325 C323 1.420 . S
C325 C330 1.395 . S
C326 C322 1.423 . S
C326 C323 1.351 . S
C326 H338 0.930 . S
C327 C329 1.400 . S
C327 C330 1.386 . S
C327 H339 0.930 . S
N328 C321 1.377 . S
N328 C329 1.321 . S
N328 Eu331 2.609 . S
C329 C327 1.400 . S
C329 N328 1.321 . S
C329 H336 0.930 . S
C330 C325 1.395 . S
C330 C327 1.386 . S
C330 H349 0.930 . S
Eu331 N328 2.609 . S
Eu331 N332 2.657 . S
Eu331 O365 2.380 . S
Eu331 O366 2.432 . S
Eu331 O370 2.558 . S
Eu331 O371 2.612 . S
Eu331 O373 2.339 . S
Eu331 O374 2.563 . S
Eu331 O375 2.419 . S
Eu331 C395 2.848 . S
N332 C324 1.362 . S
N332 Eu331 2.657 . S
N332 C333 1.334 . S
C333 N332 1.334 . S
C333 C335 1.413 . S
C333 H340 0.929 . S
C334 C322 1.392 . S
C334 C335 1.367 . S
C334 H342 0.930 . S
C335 C333 1.413 . S
C335 C334 1.367 . S
C335 H337 0.930 . S
H336 C329 0.930 . S
H337 C335 0.930 . S
H338 C326 0.930 . S
H339 C327 0.930 . S
H340 C333 0.929 . S
H341 C355 0.930 . S
H342 C334 0.930 . S
H343 C361 0.930 . S
H344 C352 0.929 . S
H345 C359 0.930 . S
H346 C323 0.931 . S
H347 C353 0.930 . S
H348 C386 0.930 . S
H349 C330 0.930 . S
H350 C385 0.931 . S
N351 Eu320 2.657 . S
N351 C352 1.334 . S
N351 C356 1.362 . S
C352 H344 0.929 . S
C352 N351 1.334 . S
C352 C355 1.413 . S
C353 H347 0.930 . S
C353 C354 1.392 . S
C353 C355 1.367 . S
C354 C353 1.392 . S
C354 C356 1.420 . S
C354 C386 1.423 . S
C355 H341 0.930 . S
C355 C352 1.413 . S
C355 C353 1.367 . S
C356 N351 1.362 . S
C356 C354 1.420 . S
C356 C360 1.429 . S
H357 C362 0.930 . S
N358 Eu320 2.609 . S
N358 C360 1.377 . S
N358 C361 1.321 . S
C359 H345 0.930 . S
C359 C361 1.400 . S
C359 C362 1.386 . S
C360 C356 1.429 . S
C360 N358 1.377 . S
C360 C363 1.411 . S
C361 H343 0.930 . S
C361 N358 1.321 . S
C361 C359 1.400 . S
C362 H357 0.930 . S
C362 C359 1.386 . S
C362 C363 1.395 . S
C363 C360 1.411 . S
C363 C362 1.395 . S
C363 C385 1.420 . S
O364 Eu320 2.558 . S
O364 C384 1.257 . S
O365 Eu320 2.612 . S
O365 Eu331 2.380 . S
O365 C376 1.276 . S
O366 Eu331 2.432 . S
O366 C383 1.264 . S
O367 Eu320 2.339 . S
O367 C383 1.254 . S
O368 Eu320 2.563 . S
O368 C376 1.235 . S
O369 Eu320 2.419 . S
O369 C384 1.249 . S
O370 Eu331 2.558 . S
O370 C395 1.257 . S
O371 Eu320 2.380 . S
O371 Eu331 2.612 . S
O371 C387 1.276 . S
O372 Eu320 2.432 . S
O372 C394 1.264 . S
O373 Eu331 2.339 . S
O373 C394 1.254 . S
O374 Eu331 2.563 . S
O374 C387 1.235 . S
O375 Eu331 2.419 . S
O375 C395 1.249 . S
C376 O365 1.276 . S
C376 O368 1.235 . S
C377 C379 1.393 . S
C377 C381 1.395 . S
C377 C384 1.492 . S
C378 C379 1.392 . S
C378 C380 1.386 . S
C379 C377 1.393 . S
C379 C378 1.392 . S
C379 H396 0.930 . S
C380 C378 1.386 . S
C380 C382 1.395 . S
C380 H397 0.930 . S
C381 C377 1.395 . S
C381 C382 1.379 . S
C381 H398 0.930 . S
C382 C380 1.395 . S
C382 C381 1.379 . S
C382 H399 0.930 . S
C383 O366 1.264 . S
C383 O367 1.254 . S
C384 Eu320 2.848 . S
C384 O364 1.257 . S
C384 O369 1.249 . S
C384 C377 1.492 . S
C385 H350 0.931 . S
C385 C363 1.420 . S
C385 C386 1.351 . S
C386 H348 0.930 . S
C386 C354 1.423 . S
C386 C385 1.351 . S
C387 O371 1.276 . S
C387 O374 1.235 . S
C388 C389 1.393 . S
C388 C392 1.395 1_556 S
C388 C395 1.492 . S
C389 C388 1.393 . S
C389 C390 1.392 1_556 S
C389 H400 0.930 . S
C390 C389 1.392 1_554 S
C390 C391 1.386 . S
C391 C390 1.386 . S
C391 C393 1.395 . S
C391 H401 0.930 . S
C392 C388 1.395 1_554 S
C392 C393 1.379 . S
C392 H402 0.930 . S
C393 C391 1.395 . S
C393 C392 1.379 . S
C393 H403 0.930 . S
C394 O372 1.264 . S
C394 O373 1.254 . S
C395 Eu331 2.848 . S
C395 O370 1.257 . S
C395 O375 1.249 . S
C395 C388 1.492 . S
H396 C379 0.930 . S
H397 C380 0.930 . S
H398 C381 0.930 . S
H399 C382 0.930 . S
H400 C389 0.930 . S
H401 C391 0.930 . S
H402 C392 0.930 . S
H403 C393 0.930 . S
Eu404 N435 2.657 . S
Eu404 N442 2.609 . S
Eu404 O448 2.558 . S
Eu404 O449 2.612 . S
Eu404 O451 2.339 . S
Eu404 O452 2.563 . S
Eu404 O453 2.419 . S
Eu404 O455 2.380 . S
Eu404 O456 2.432 1_455 S
Eu404 C468 2.848 . S
C405 C408 1.429 . S
C405 C409 1.411 . S
C405 N412 1.377 . S
C406 C408 1.420 . S
C406 C410 1.423 . S
C406 C418 1.392 . S
C407 C409 1.420 . S
C407 C410 1.351 . S
C407 H430 0.931 . S
C408 C405 1.429 . S
C408 C406 1.420 . S
C408 N416 1.362 . S
C409 C405 1.411 . S
C409 C407 1.420 . S
C409 C414 1.395 1_655 S
C410 C406 1.423 . S
C410 C407 1.351 . S
C410 H422 0.930 . S
C411 C413 1.400 . S
C411 C414 1.386 . S
C411 H423 0.930 . S
N412 C405 1.377 . S
N412 C413 1.321 1_655 S
N412 Eu415 2.609 . S
C413 C411 1.400 . S
C413 N412 1.321 1_455 S
C413 H420 0.930 . S
C414 C409 1.395 1_455 S
C414 C411 1.386 . S
C414 H433 0.930 . S
Eu415 N412 2.609 . S
Eu415 N416 2.657 . S
Eu415 O449 2.380 1_655 S
Eu415 O450 2.432 1_655 S
Eu415 O454 2.558 . S
Eu415 O455 2.612 1_655 S
Eu415 O457 2.339 . S
Eu415 O458 2.563 . S
Eu415 O459 2.419 . S
Eu415 C479 2.848 . S
N416 C408 1.362 . S
N416 Eu415 2.657 . S
N416 C417 1.334 . S
C417 N416 1.334 . S
C417 C419 1.413 . S
C417 H424 0.929 . S
C418 C406 1.392 . S
C418 C419 1.367 . S
C418 H426 0.930 . S
C419 C417 1.413 . S
C419 C418 1.367 . S
C419 H421 0.930 . S
H420 C413 0.930 . S
H421 C419 0.930 . S
H422 C410 0.930 . S
H423 C411 0.930 . S
H424 C417 0.929 . S
H425 C439 0.930 . S
H426 C418 0.930 . S
H427 C445 0.930 1_655 S
H428 C436 0.929 . S
H429 C443 0.930 . S
H430 C407 0.931 . S
H431 C437 0.930 . S
H432 C470 0.930 . S
H433 C414 0.930 . S
H434 C469 0.931 . S
N435 Eu404 2.657 . S
N435 C436 1.334 . S
N435 C440 1.362 . S
C436 H428 0.929 . S
C436 N435 1.334 . S
C436 C439 1.413 . S
C437 H431 0.930 . S
C437 C438 1.392 . S
C437 C439 1.367 . S
C438 C437 1.392 . S
C438 C440 1.420 . S
C438 C470 1.423 . S
C439 H425 0.930 . S
C439 C436 1.413 . S
C439 C437 1.367 . S
C440 N435 1.362 . S
C440 C438 1.420 . S
C440 C444 1.429 . S
H441 C446 0.930 . S
N442 Eu404 2.609 . S
N442 C444 1.377 . S
N442 C445 1.321 . S
C443 H429 0.930 . S
C443 C445 1.400 1_655 S
C443 C446 1.386 1_655 S
C444 C440 1.429 . S
C444 N442 1.377 . S
C444 C447 1.411 . S
C445 H427 0.930 1_455 S
C445 N442 1.321 . S
C445 C443 1.400 1_455 S
C446 H441 0.930 . S
C446 C443 1.386 1_455 S
C446 C447 1.395 . S
C447 C444 1.411 . S
C447 C446 1.395 . S
C447 C469 1.420 . S
O448 Eu404 2.558 . S
O448 C468 1.257 . S
O449 Eu404 2.612 . S
O449 Eu415 2.380 1_455 S
O449 C460 1.276 . S
O450 Eu415 2.432 1_455 S
O450 C467 1.264 . S
O451 Eu404 2.339 . S
O451 C467 1.254 . S
O452 Eu404 2.563 . S
O452 C460 1.235 . S
O453 Eu404 2.419 . S
O453 C468 1.249 . S
O454 Eu415 2.558 . S
O454 C479 1.257 . S
O455 Eu404 2.380 . S
O455 Eu415 2.612 1_455 S
O455 C471 1.276 1_455 S
O456 Eu404 2.432 1_655 S
O456 C478 1.264 . S
O457 Eu415 2.339 . S
O457 C478 1.254 . S
O458 Eu415 2.563 . S
O458 C471 1.235 . S
O459 Eu415 2.419 . S
O459 C479 1.249 . S
C460 O449 1.276 . S
C460 O452 1.235 . S
C461 C463 1.393 . S
C461 C465 1.395 . S
C461 C468 1.492 . S
C462 C463 1.392 . S
C462 C464 1.386 . S
C463 C461 1.393 . S
C463 C462 1.392 . S
C463 H480 0.930 . S
C464 C462 1.386 . S
C464 C466 1.395 . S
C464 H481 0.930 . S
C465 C461 1.395 . S
C465 C466 1.379 . S
C465 H482 0.930 . S
C466 C464 1.395 . S
C466 C465 1.379 . S
C466 H483 0.930 . S
C467 O450 1.264 . S
C467 O451 1.254 . S
C468 Eu404 2.848 . S
C468 O448 1.257 . S
C468 O453 1.249 . S
C468 C461 1.492 . S
C469 H434 0.931 . S
C469 C447 1.420 . S
C469 C470 1.351 . S
C470 H432 0.930 . S
C470 C438 1.423 . S
C470 C469 1.351 . S
C471 O455 1.276 1_655 S
C471 O458 1.235 . S
C472 C473 1.393 . S
C472 C476 1.395 1_556 S
C472 C479 1.492 . S
C473 C472 1.393 . S
C473 C474 1.392 1_556 S
C473 H484 0.930 . S
C474 C473 1.392 1_554 S
C474 C475 1.386 . S
C475 C474 1.386 . S
C475 C477 1.395 . S
C475 H485 0.930 . S
C476 C472 1.395 1_554 S
C476 C477 1.379 . S
C476 H486 0.930 . S
C477 C475 1.395 . S
C477 C476 1.379 . S
C477 H487 0.930 . S
C478 O456 1.264 . S
C478 O457 1.254 . S
C479 Eu415 2.848 . S
C479 O454 1.257 . S
C479 O459 1.249 . S
C479 C472 1.492 . S
H480 C463 0.930 . S
H481 C464 0.930 . S
H482 C465 0.930 . S
H483 C466 0.930 . S
H484 C473 0.930 . S
H485 C475 0.930 . S
H486 C476 0.930 . S
H487 C477 0.930 . S
H488 C494 0.930 . S
H489 C498 0.930 . S
H490 C503 0.929 . S
H491 C501 0.929 1_565 S
H492 C496 0.929 . S
H493 C502 0.929 . S
C494 H488 0.930 . S
C494 C495 1.367 . S
C494 C502 1.378 . S
C495 C494 1.367 . S
C495 C503 1.433 . S
C496 H492 0.929 . S
C496 C498 1.378 . S
C496 C500 1.350 . S
C497 C500 1.463 . S
C497 C502 1.350 . S
C497 N505 1.427 . S
C498 H489 0.930 . S
C498 C496 1.378 . S
C498 C499 1.367 . S
C499 C498 1.367 . S
C499 C501 1.433 . S
C500 C496 1.350 . S
C500 C497 1.463 . S
C500 N504 1.427 . S
C501 H491 0.929 1_545 S
C501 C499 1.433 . S
C501 N504 1.384 . S
C502 H493 0.929 . S
C502 C494 1.378 . S
C502 C497 1.350 . S
C503 H490 0.929 . S
C503 C495 1.433 . S
C503 N505 1.384 . S
N504 C500 1.427 . S
N504 C501 1.384 . S
N505 C497 1.427 . S
N505 C503 1.384 . S
H506 C512 0.930 . S
H507 C516 0.930 . S
H508 C521 0.929 . S
H509 C519 0.929 . S
H510 C514 0.929 . S
H511 C520 0.929 . S
C512 H506 0.930 . S
C512 C513 1.367 . S
C512 C520 1.378 . S
C513 C512 1.367 . S
C513 C521 1.433 . S
C514 H510 0.929 . S
C514 C516 1.378 . S
C514 C518 1.350 . S
C515 C518 1.463 . S
C515 C520 1.350 . S
C515 N523 1.427 . S
C516 H507 0.930 . S
C516 C514 1.378 . S
C516 C517 1.367 . S
C517 C516 1.367 . S
C517 C519 1.433 . S
C518 C514 1.350 . S
C518 C515 1.463 . S
C518 N522 1.427 . S
C519 H509 0.929 . S
C519 C517 1.433 . S
C519 N522 1.384 . S
C520 H511 0.929 . S
C520 C512 1.378 . S
C520 C515 1.350 . S
C521 H508 0.929 . S
C521 C513 1.433 . S
C521 N523 1.384 . S
N522 C518 1.427 . S
N522 C519 1.384 . S
N523 C515 1.427 . S
N523 C521 1.384 . S
H524 C530 0.930 . S
H525 C534 0.930 . S
H526 C539 0.929 . S
H527 C537 0.929 . S
H528 C532 0.929 . S
H529 C538 0.929 . S
C530 H524 0.930 . S
C530 C531 1.367 . S
C530 C538 1.378 . S
C531 C530 1.367 . S
C531 C539 1.433 . S
C532 H528 0.929 . S
C532 C534 1.378 . S
C532 C536 1.350 . S
C533 C536 1.463 . S
C533 C538 1.350 . S
C533 N541 1.427 . S
C534 H525 0.930 . S
C534 C532 1.378 . S
C534 C535 1.367 . S
C535 C534 1.367 . S
C535 C537 1.433 . S
C536 C532 1.350 . S
C536 C533 1.463 . S
C536 N540 1.427 . S
C537 H527 0.929 . S
C537 C535 1.433 . S
C537 N540 1.384 . S
C538 H529 0.929 . S
C538 C530 1.378 . S
C538 C533 1.350 . S
C539 H526 0.929 . S
C539 C531 1.433 . S
C539 N541 1.384 . S
N540 C536 1.427 . S
N540 C537 1.384 . S
N541 C533 1.427 . S
N541 C539 1.384 . S
H542 C548 0.930 . S
H543 C552 0.930 . S
H544 C557 0.929 . S
H545 C555 0.929 1_655 S
H546 C550 0.929 . S
H547 C556 0.929 . S
C548 H542 0.930 . S
C548 C549 1.367 . S
C548 C556 1.378 . S
C549 C548 1.367 . S
C549 C557 1.433 . S
C550 H546 0.929 . S
C550 C552 1.378 . S
C550 C554 1.350 . S
C551 C554 1.463 . S
C551 C556 1.350 . S
C551 N559 1.427 . S
C552 H543 0.930 . S
C552 C550 1.378 . S
C552 C553 1.367 . S
C553 C552 1.367 . S
C553 C555 1.433 . S
C554 C550 1.350 . S
C554 C551 1.463 . S
C554 N558 1.427 . S
C555 H545 0.929 1_455 S
C555 C553 1.433 . S
C555 N558 1.384 . S
C556 H547 0.929 . S
C556 C548 1.378 . S
C556 C551 1.350 . S
C557 H544 0.929 . S
C557 C549 1.433 . S
C557 N559 1.384 . S
N558 C554 1.427 . S
N558 C555 1.384 . S
N559 C551 1.427 . S
N559 C557 1.384 . S
H560 C566 0.930 . S
H561 C570 0.930 . S
H562 C575 0.929 1_545 S
H563 C573 0.929 . S
H564 C568 0.929 . S
H565 C574 0.929 1_556 S
C566 H560 0.930 . S
C566 C567 1.367 . S
C566 C574 1.378 . S
C567 C566 1.367 . S
C567 C575 1.433 . S
C568 H564 0.929 . S
C568 C570 1.378 . S
C568 C572 1.350 1_545 S
C569 C572 1.463 1_554 S
C569 C574 1.350 . S
C569 N577 1.427 . S
C570 H561 0.930 . S
C570 C568 1.378 . S
C570 C571 1.367 1_545 S
C571 C570 1.367 1_565 S
C571 C573 1.433 . S
C572 C568 1.350 1_565 S
C572 C569 1.463 1_556 S
C572 N576 1.427 . S
C573 H563 0.929 . S
C573 C571 1.433 . S
C573 N576 1.384 . S
C574 H565 0.929 1_554 S
C574 C566 1.378 . S
C574 C569 1.350 . S
C575 H562 0.929 1_565 S
C575 C567 1.433 . S
C575 N577 1.384 . S
N576 C572 1.427 . S
N576 C573 1.384 . S
N577 C569 1.427 . S
N577 C575 1.384 . S
H578 C584 0.930 . S
H579 C588 0.930 . S
H580 C593 0.929 . S
H581 C591 0.929 . S
H582 C586 0.929 1_554 S
H583 C592 0.928 1_556 S
C584 H578 0.930 . S
C584 C585 1.367 . S
C584 C592 1.378 . S
C585 C584 1.367 . S
C585 C593 1.433 . S
C586 H582 0.929 1_556 S
C586 C588 1.378 . S
C586 C590 1.350 . S
C587 C590 1.463 1_554 S
C587 C592 1.350 . S
C587 N595 1.427 . S
C588 H579 0.930 . S
C588 C586 1.378 . S
C588 C589 1.367 . S
C589 C588 1.367 . S
C589 C591 1.433 . S
C590 C586 1.350 . S
C590 C587 1.463 1_556 S
C590 N594 1.427 . S
C591 H581 0.929 . S
C591 C589 1.433 . S
C591 N594 1.384 . S
C592 H583 0.928 1_554 S
C592 C584 1.378 . S
C592 C587 1.350 . S
C593 H580 0.929 . S
C593 C585 1.433 . S
C593 N595 1.384 . S
N594 C590 1.427 . S
N594 C591 1.384 . S
N595 C587 1.427 . S
N595 C593 1.384 . S
H596 C602 0.930 . S
H597 C606 0.930 . S
H598 C611 0.929 . S
H599 C609 0.929 . S
H600 C604 0.929 1_554 S
H601 C610 0.929 . S
C602 H596 0.930 . S
C602 C603 1.367 . S
C602 C610 1.378 1_554 S
C603 C602 1.367 . S
C603 C611 1.433 . S
C604 H600 0.929 1_556 S
C604 C606 1.378 . S
C604 C608 1.350 . S
C605 C608 1.463 1_554 S
C605 C610 1.350 1_554 S
C605 N613 1.427 . S
C606 H597 0.930 . S
C606 C604 1.378 . S
C606 C607 1.367 . S
C607 C606 1.367 . S
C607 C609 1.433 . S
C608 C604 1.350 . S
C608 C605 1.463 1_556 S
C608 N612 1.427 . S
C609 H599 0.929 . S
C609 C607 1.433 . S
C609 N612 1.384 . S
C610 H601 0.929 . S
C610 C602 1.378 1_556 S
C610 C605 1.350 1_556 S
C611 H598 0.929 . S
C611 C603 1.433 . S
C611 N613 1.384 . S
N612 C608 1.427 . S
N612 C609 1.384 . S
N613 C605 1.427 . S
N613 C611 1.384 . S
H614 C620 0.930 . S
H615 C624 0.930 . S
H616 C629 0.929 . S
H617 C627 0.929 . S
H618 C622 0.929 1_554 S
H619 C628 0.929 . S
C620 H614 0.930 . S
C620 C621 1.367 . S
C620 C628 1.378 1_554 S
C621 C620 1.367 . S
C621 C629 1.433 . S
C622 H618 0.929 1_556 S
C622 C624 1.378 . S
C622 C626 1.350 . S
C623 C626 1.463 1_554 S
C623 C628 1.350 1_554 S
C623 N631 1.427 . S
C624 H615 0.930 . S
C624 C622 1.378 . S
C624 C625 1.367 . S
C625 C624 1.367 . S
C625 C627 1.433 . S
C626 C622 1.350 . S
C626 C623 1.463 1_556 S
C626 N630 1.427 . S
C627 H617 0.929 . S
C627 C625 1.433 . S
C627 N630 1.384 . S
C628 H619 0.929 . S
C628 C620 1.378 1_556 S
C628 C623 1.350 1_556 S
C629 H616 0.929 . S
C629 C621 1.433 . S
C629 N631 1.384 . S
N630 C626 1.427 . S
N630 C627 1.384 . S
N631 C623 1.427 . S
N631 C629 1.384 . S
H632 C638 0.930 . S
H633 C642 0.930 . S
H634 C647 0.929 . S
H635 C645 0.929 . S
H636 C640 0.921 1_655 S
H637 C646 0.929 . S
C638 H632 0.930 . S
C638 C639 1.367 . S
C638 C646 1.378 . S
C639 C638 1.367 . S
C639 C647 1.433 . S
C640 H636 0.921 1_455 S
C640 C642 1.378 1_455 S
C640 C644 1.350 . S
C641 C644 1.463 . S
C641 C646 1.350 . S
C641 N649 1.427 . S
C642 H633 0.930 . S
C642 C640 1.378 1_655 S
C642 C643 1.367 1_655 S
C643 C642 1.367 1_455 S
C643 C645 1.433 . S
C644 C640 1.350 . S
C644 C641 1.463 . S
C644 N648 1.427 . S
C645 H635 0.929 . S
C645 C643 1.433 . S
C645 N648 1.384 . S
C646 H637 0.929 . S
C646 C638 1.378 . S
C646 C641 1.350 . S
C647 H634 0.929 . S
C647 C639 1.433 . S
C647 N649 1.384 . S
N648 C644 1.427 . S
N648 C645 1.384 . S
N649 C641 1.427 . S
N649 C647 1.384 . S
H650 C656 0.930 1_556 S
H651 C660 0.930 . S
H652 C665 0.929 . S
H653 C663 0.929 1_565 S
H654 C658 0.929 . S
H655 C664 0.929 . S
C656 H650 0.930 1_554 S
C656 C657 1.367 . S
C656 C664 1.378 . S
C657 C656 1.367 . S
C657 C665 1.433 . S
C658 H654 0.929 . S
C658 C660 1.378 . S
C658 C662 1.350 . S
C659 C662 1.463 . S
C659 C664 1.350 . S
C659 N667 1.427 . S
C660 H651 0.930 . S
C660 C658 1.378 . S
C660 C661 1.367 . S
C661 C660 1.367 . S
C661 C663 1.433 . S
C662 C658 1.350 . S
C662 C659 1.463 . S
C662 N666 1.427 . S
C663 H653 0.929 1_545 S
C663 C661 1.433 . S
C663 N666 1.384 . S
C664 H655 0.929 . S
C664 C656 1.378 . S
C664 C659 1.350 . S
C665 H652 0.929 . S
C665 C657 1.433 . S
C665 N667 1.384 . S
N666 C662 1.427 . S
N666 C663 1.384 . S
N667 C659 1.427 . S
N667 C665 1.384 . S
H668 C674 0.930 . S
H669 C678 0.930 . S
H670 C683 0.929 . S
H671 C681 0.929 . S
H672 C676 0.929 . S
H673 C682 0.929 . S
C674 H668 0.930 . S
C674 C675 1.367 . S
C674 C682 1.378 . S
C675 C674 1.367 . S
C675 C683 1.433 . S
C676 H672 0.929 . S
C676 C678 1.378 . S
C676 C680 1.350 . S
C677 C680 1.463 . S
C677 C682 1.350 . S
C677 N685 1.427 . S
C678 H669 0.930 . S
C678 C676 1.378 . S
C678 C679 1.367 . S
C679 C678 1.367 . S
C679 C681 1.433 . S
C680 C676 1.350 . S
C680 C677 1.463 . S
C680 N684 1.427 . S
C681 H671 0.929 . S
C681 C679 1.433 . S
C681 N684 1.384 . S
C682 H673 0.929 . S
C682 C674 1.378 . S
C682 C677 1.350 . S
C683 H670 0.929 . S
C683 C675 1.433 . S
C683 N685 1.384 . S
N684 C680 1.427 . S
N684 C681 1.384 . S
N685 C677 1.427 . S
N685 C683 1.384 . S
H686 C692 0.930 1_556 S
H687 C696 0.930 . S
H688 C701 0.929 . S
H689 C699 0.929 . S
H690 C694 0.929 . S
H691 C700 0.929 . S
C692 H686 0.930 1_554 S
C692 C693 1.367 . S
C692 C700 1.378 . S
C693 C692 1.367 . S
C693 C701 1.433 . S
C694 H690 0.929 . S
C694 C696 1.378 . S
C694 C698 1.350 . S
C695 C698 1.463 . S
C695 C700 1.350 . S
C695 N703 1.427 . S
C696 H687 0.930 . S
C696 C694 1.378 . S
C696 C697 1.367 . S
C697 C696 1.367 . S
C697 C699 1.433 . S
C698 C694 1.350 . S
C698 C695 1.463 . S
C698 N702 1.427 . S
C699 H689 0.929 . S
C699 C697 1.433 . S
C699 N702 1.384 . S
C700 H691 0.929 . S
C700 C692 1.378 . S
C700 C695 1.350 . S
C701 H688 0.929 . S
C701 C693 1.433 . S
C701 N703 1.384 . S
N702 C698 1.427 . S
N702 C699 1.384 . S
N703 C695 1.427 . S
N703 C701 1.384 . S
H704 C710 0.930 . S
H705 C714 0.930 1_556 S
H706 C719 0.929 . S
H707 C717 0.929 . S
H708 C712 0.929 . S
H709 C718 0.929 . S
C710 H704 0.930 . S
C710 C711 1.367 . S
C710 C718 1.378 . S
C711 C710 1.367 . S
C711 C719 1.433 . S
C712 H708 0.929 . S
C712 C714 1.378 . S
C712 C716 1.350 1_455 S
C713 C716 1.463 . S
C713 C718 1.350 . S
C713 N721 1.427 . S
C714 H705 0.930 1_554 S
C714 C712 1.378 . S
C714 C715 1.367 1_554 S
C715 C714 1.367 1_556 S
C715 C717 1.433 1_456 S
C716 C712 1.350 1_655 S
C716 C713 1.463 . S
C716 N720 1.427 . S
C717 H707 0.929 . S
C717 C715 1.433 1_654 S
C717 N720 1.384 . S
C718 H709 0.929 . S
C718 C710 1.378 . S
C718 C713 1.350 . S
C719 H706 0.929 . S
C719 C711 1.433 . S
C719 N721 1.384 . S
N720 C716 1.427 . S
N720 C717 1.384 . S
N721 C713 1.427 . S
N721 C719 1.384 . S
H722 C728 0.930 . S
H723 C732 0.930 . S
H724 C737 0.929 . S
H725 C735 0.929 . S
H726 C730 0.929 . S
H727 C736 0.929 1_545 S
C728 H722 0.930 . S
C728 C729 1.367 . S
C728 C736 1.378 . S
C729 C728 1.367 . S
C729 C737 1.433 . S
C730 H726 0.929 . S
C730 C732 1.378 1_554 S
C730 C734 1.350 . S
C731 C734 1.463 . S
C731 C736 1.350 . S
C731 N739 1.427 . S
C732 H723 0.930 . S
C732 C730 1.378 1_556 S
C732 C733 1.367 1_565 S
C733 C732 1.367 1_545 S
C733 C735 1.433 1_556 S
C734 C730 1.350 . S
C734 C731 1.463 . S
C734 N738 1.427 1_565 S
C735 H725 0.929 . S
C735 C733 1.433 1_554 S
C735 N738 1.384 . S
C736 H727 0.929 1_565 S
C736 C728 1.378 . S
C736 C731 1.350 . S
C737 H724 0.929 . S
C737 C729 1.433 . S
C737 N739 1.384 . S
N738 C734 1.427 1_545 S
N738 C735 1.384 . S
N739 C731 1.427 . S
N739 C737 1.384 . S
H740 C746 0.930 . S
H741 C750 0.930 . S
H742 C755 0.929 . S
H743 C753 0.929 . S
H744 C748 0.929 . S
H745 C754 0.929 . S
C746 H740 0.930 . S
C746 C747 1.367 . S
C746 C754 1.378 . S
C747 C746 1.367 . S
C747 C755 1.433 . S
C748 H744 0.929 . S
C748 C750 1.378 . S
C748 C752 1.350 . S
C749 C752 1.463 . S
C749 C754 1.350 . S
C749 N757 1.427 . S
C750 H741 0.930 . S
C750 C748 1.378 . S
C750 C751 1.367 . S
C751 C750 1.367 . S
C751 C753 1.433 1_554 S
C752 C748 1.350 . S
C752 C749 1.463 . S
C752 N756 1.427 1_554 S
C753 H743 0.929 . S
C753 C751 1.433 1_556 S
C753 N756 1.384 . S
C754 H745 0.929 . S
C754 C746 1.378 . S
C754 C749 1.350 . S
C755 H742 0.929 . S
C755 C747 1.433 . S
C755 N757 1.384 . S
N756 C752 1.427 1_556 S
N756 C753 1.384 . S
N757 C749 1.427 . S
N757 C755 1.384 . S
H758 C764 0.930 . S
H759 C768 0.930 . S
H760 C773 0.929 . S
H761 C771 0.929 . S
H762 C766 0.929 . S
H763 C772 0.929 . S
C764 H758 0.930 . S
C764 C765 1.367 . S
C764 C772 1.378 . S
C765 C764 1.367 . S
C765 C773 1.433 . S
C766 H762 0.929 . S
C766 C768 1.378 . S
C766 C770 1.350 . S
C767 C770 1.463 . S
C767 C772 1.350 . S
C767 N775 1.427 . S
C768 H759 0.930 . S
C768 C766 1.378 . S
C768 C769 1.367 . S
C769 C768 1.367 . S
C769 C771 1.433 1_554 S
C770 C766 1.350 . S
C770 C767 1.463 . S
C770 N774 1.427 . S
C771 H761 0.929 . S
C771 C769 1.433 1_556 S
C771 N774 1.384 1_556 S
C772 H763 0.929 . S
C772 C764 1.378 . S
C772 C767 1.350 . S
C773 H760 0.929 . S
C773 C765 1.433 . S
C773 N775 1.384 . S
N774 C770 1.427 . S
N774 C771 1.384 1_554 S
N775 C767 1.427 . S
N775 C773 1.384 . S
H776 C782 0.930 . S
H777 C786 0.930 . S
H778 C791 0.929 . S
H779 C789 0.929 . S
H780 C784 0.929 . S
H781 C790 0.929 . S
C782 H776 0.930 . S
C782 C783 1.367 . S
C782 C790 1.378 . S
C783 C782 1.367 . S
C783 C791 1.433 . S
C784 H780 0.929 . S
C784 C786 1.378 . S
C784 C788 1.350 . S
C785 C788 1.463 . S
C785 C790 1.350 . S
C785 N793 1.427 . S
C786 H777 0.930 . S
C786 C784 1.378 . S
C786 C787 1.367 . S
C787 C786 1.367 . S
C787 C789 1.433 . S
C788 C784 1.350 . S
C788 C785 1.463 . S
C788 N792 1.427 . S
C789 H779 0.929 . S
C789 C787 1.433 . S
C789 N792 1.384 . S
C790 H781 0.929 . S
C790 C782 1.378 . S
C790 C785 1.350 . S
C791 H778 0.929 . S
C791 C783 1.433 . S
C791 N793 1.384 . S
N792 C788 1.427 . S
N792 C789 1.384 . S
N793 C785 1.427 . S
N793 C791 1.384 . S
H794 C800 0.930 . S
H795 C804 0.930 . S
H796 C809 0.929 . S
H797 C807 0.929 . S
H798 C802 0.929 . S
H799 C808 0.929 . S
C800 H794 0.930 . S
C800 C801 1.367 . S
C800 C808 1.378 . S
C801 C800 1.367 . S
C801 C809 1.433 . S
C802 H798 0.929 . S
C802 C804 1.378 . S
C802 C806 1.350 . S
C803 C806 1.463 . S
C803 C808 1.350 . S
C803 N811 1.427 . S
C804 H795 0.930 . S
C804 C802 1.378 . S
C804 C805 1.367 . S
C805 C804 1.367 . S
C805 C807 1.433 . S
C806 C802 1.350 . S
C806 C803 1.463 . S
C806 N810 1.427 . S
C807 H797 0.929 . S
C807 C805 1.433 . S
C807 N810 1.384 . S
C808 H799 0.929 . S
C808 C800 1.378 . S
C808 C803 1.350 . S
C809 H796 0.929 . S
C809 C801 1.433 . S
C809 N811 1.384 . S
N810 C806 1.427 . S
N810 C807 1.384 . S
N811 C803 1.427 . S
N811 C809 1.384 . S
H812 C818 0.930 . S
H813 C822 0.930 . S
H814 C827 0.929 . S
H815 C825 0.929 . S
H816 C820 0.929 . S
H817 C826 0.929 . S
C818 H812 0.930 . S
C818 C819 1.367 . S
C818 C826 1.378 . S
C819 C818 1.367 . S
C819 C827 1.433 . S
C820 H816 0.929 . S
C820 C822 1.378 . S
C820 C824 1.350 . S
C821 C824 1.463 . S
C821 C826 1.350 . S
C821 N829 1.427 . S
C822 H813 0.930 . S
C822 C820 1.378 . S
C822 C823 1.367 . S
C823 C822 1.367 . S
C823 C825 1.433 . S
C824 C820 1.350 . S
C824 C821 1.463 . S
C824 N828 1.427 . S
C825 H815 0.929 . S
C825 C823 1.433 . S
C825 N828 1.384 . S
C826 H817 0.929 . S
C826 C818 1.378 . S
C826 C821 1.350 . S
C827 H814 0.929 . S
C827 C819 1.433 . S
C827 N829 1.384 . S
N828 C824 1.427 . S
N828 C825 1.384 . S
N829 C821 1.427 . S
N829 C827 1.384 . S
H830 C836 0.930 . S
H831 C840 0.930 . S
H832 C845 0.929 . S
H833 C843 0.929 . S
H834 C838 0.929 . S
H835 C844 0.929 . S
C836 H830 0.930 . S
C836 C837 1.367 . S
C836 C844 1.378 . S
C837 C836 1.367 . S
C837 C845 1.433 . S
C838 H834 0.929 . S
C838 C840 1.378 . S
C838 C842 1.350 . S
C839 C842 1.463 . S
C839 C844 1.350 . S
C839 N847 1.427 . S
C840 H831 0.930 . S
C840 C838 1.378 . S
C840 C841 1.367 . S
C841 C840 1.367 . S
C841 C843 1.433 . S
C842 C838 1.350 . S
C842 C839 1.463 . S
C842 N846 1.427 . S
C843 H833 0.929 . S
C843 C841 1.433 . S
C843 N846 1.384 . S
C844 H835 0.929 . S
C844 C836 1.378 . S
C844 C839 1.350 . S
C845 H832 0.929 . S
C845 C837 1.433 . S
C845 N847 1.384 . S
N846 C842 1.427 . S
N846 C843 1.384 . S
N847 C839 1.427 . S
N847 C845 1.384 . S
H848 C854 0.930 . S
H849 C858 0.930 1_455 S
H850 C863 0.929 . S
H851 C861 0.929 . S
H852 C856 0.929 . S
H853 C862 0.929 . S
C854 H848 0.930 . S
C854 C855 1.367 . S
C854 C862 1.378 . S
C855 C854 1.367 . S
C855 C863 1.433 . S
C856 H852 0.929 . S
C856 C858 1.378 . S
C856 C860 1.350 . S
C857 C860 1.463 . S
C857 C862 1.350 . S
C857 N865 1.427 . S
C858 H849 0.930 1_655 S
C858 C856 1.378 . S
C858 C859 1.367 . S
C859 C858 1.367 . S
C859 C861 1.433 . S
C860 C856 1.350 . S
C860 C857 1.463 . S
C860 N864 1.427 . S
C861 H851 0.929 . S
C861 C859 1.433 . S
C861 N864 1.384 . S
C862 H853 0.929 . S
C862 C854 1.378 . S
C862 C857 1.350 . S
C863 H850 0.929 . S
C863 C855 1.433 . S
C863 N865 1.384 . S
N864 C860 1.427 . S
N864 C861 1.384 . S
N865 C857 1.427 . S
N865 C863 1.384 . S
H866 C872 0.930 . S
H867 C876 0.930 . S
H868 C881 0.929 1_545 S
H869 C879 0.929 . S
H870 C874 0.929 . S
H871 C880 0.929 . S
C872 H866 0.930 . S
C872 C873 1.367 . S
C872 C880 1.378 . S
C873 C872 1.367 . S
C873 C881 1.433 . S
C874 H870 0.929 . S
C874 C876 1.378 . S
C874 C878 1.350 1_545 S
C875 C878 1.463 . S
C875 C880 1.350 . S
C875 N883 1.427 . S
C876 H867 0.930 . S
C876 C874 1.378 . S
C876 C877 1.367 1_545 S
C877 C876 1.367 1_565 S
C877 C879 1.433 . S
C878 C874 1.350 1_565 S
C878 C875 1.463 . S
C878 N882 1.427 . S
C879 H869 0.929 . S
C879 C877 1.433 . S
C879 N882 1.384 . S
C880 H871 0.929 . S
C880 C872 1.378 . S
C880 C875 1.350 . S
C881 H868 0.929 1_565 S
C881 C873 1.433 . S
C881 N883 1.384 . S
N882 C878 1.427 . S
N882 C879 1.384 . S
N883 C875 1.427 . S
N883 C881 1.384 . S
H884 C890 0.930 . S
H885 C894 0.930 . S
H886 C899 0.929 . S
H887 C897 0.929 . S
H888 C892 0.929 . S
H889 C898 0.929 . S
C890 H884 0.930 . S
C890 C891 1.367 . S
C890 C898 1.378 . S
C891 C890 1.367 . S
C891 C899 1.433 . S
C892 H888 0.929 . S
C892 C894 1.378 . S
C892 C896 1.350 . S
C893 C896 1.463 . S
C893 C898 1.350 . S
C893 N901 1.427 . S
C894 H885 0.930 . S
C894 C892 1.378 . S
C894 C895 1.367 . S
C895 C894 1.367 . S
C895 C897 1.433 . S
C896 C892 1.350 . S
C896 C893 1.463 . S
C896 N900 1.427 . S
C897 H887 0.929 . S
C897 C895 1.433 . S
C897 N900 1.384 . S
C898 H889 0.929 . S
C898 C890 1.378 . S
C898 C893 1.350 . S
C899 H886 0.929 . S
C899 C891 1.433 . S
C899 N901 1.384 . S
N900 C896 1.427 . S
N900 C897 1.384 . S
N901 C893 1.427 . S
N901 C899 1.384 . S
H902 C908 0.930 . S
H903 C912 0.930 . S
H904 C917 0.929 . S
H905 C915 0.929 . S
H906 C910 0.929 . S
H907 C916 0.929 . S
C908 H902 0.930 . S
C908 C909 1.367 . S
C908 C916 1.378 . S
C909 C908 1.367 . S
C909 C917 1.433 . S
C910 H906 0.929 . S
C910 C912 1.378 . S
C910 C914 1.350 . S
C911 C914 1.463 . S
C911 C916 1.350 . S
C911 N919 1.427 . S
C912 H903 0.930 . S
C912 C910 1.378 . S
C912 C913 1.367 . S
C913 C912 1.367 . S
C913 C915 1.433 . S
C914 C910 1.350 . S
C914 C911 1.463 . S
C914 N918 1.427 . S
C915 H905 0.929 . S
C915 C913 1.433 . S
C915 N918 1.384 . S
C916 H907 0.929 . S
C916 C908 1.378 . S
C916 C911 1.350 . S
C917 H904 0.929 . S
C917 C909 1.433 . S
C917 N919 1.384 . S
N918 C914 1.427 . S
N918 C915 1.384 . S
N919 C911 1.427 . S
N919 C917 1.384 . S
C495 C125 1.898 . S
C499 C226 1.944 . S
C517 C310 1.967 . S
C513 C144 1.913 . S
C535 C376 1.951 . S
C531 C87 2.012 . S
C553 C460 1.931 . S
C549 C106 1.989 . S
C571 C215 1.935 1_565 S
C567 C49 1.996 . S
C585 C68 2.021 . S
C589 C299 1.960 . S
C603 C11 2.117 . S
C607 C387 1.942 . S
C621 C30 2.100 . S
C625 C471 1.921 . S
C643 C222 0.681 1_455 S
C639 C97 0.699 . S
C661 C306 0.700 . S
C657 C116 0.650 . S
C679 C378 0.642 . S
C675 C135 0.656 . S
C693 C78 0.661 . S
C697 C462 0.689 . S
C711 C21 0.702 . S
C715 C210 0.679 . S
C733 C294 0.682 . S
C729 C40 0.657 . S
C751 C390 0.630 . S
C747 C59 0.670 . S
C765 C2 0.685 . S
C769 C474 0.670 . S
C783 C101 2.025 . S
C787 C219 2.078 . S
C801 C120 1.994 . S
C805 C303 2.043 . S
C823 C383 2.088 . S
C819 C139 1.924 . S
C841 C467 2.115 . S
C837 C82 1.948 . S
C855 C25 2.032 . S
C859 C208 2.074 . S
C877 C292 2.045 1_565 S
C873 C44 2.009 . S
C895 C394 2.086 . S
C891 C63 1.913 . S
C909 C6 1.942 . S
C913 C478 2.120 . S
