# Generated by pormake.
# Topology tsx, (6,3)-cn, num edge types: 1
# Building blocks:
#     Node 0, Type 0, BuildingBlock: MIDCAF_clean_sbu_0, # of connection points: 6
#     Node 1, Type 0, BuildingBlock: MIDCAF_clean_sbu_0, # of connection points: 6
#     Node 2, Type 1, BuildingBlock: CUQRIR_clean_linker_1, # of connection points: 3
#     Node 3, Type 1, BuildingBlock: CUQRIR_clean_linker_1, # of connection points: 3
#     Node 4, Type 1, BuildingBlock: CUQRIR_clean_linker_1, # of connection points: 3
#     Node 5, Type 1, BuildingBlock: CUQRIR_clean_linker_1, # of connection points: 3
#     Edge 6, Type (0, 1), BuildingBlock: TEMPAE_clean_linker_10, # of connection points: 2
#     Edge 7, Type (0, 1), BuildingBlock: TEMPAE_clean_linker_10, # of connection points: 2
#     Edge 8, Type (0, 1), BuildingBlock: TEMPAE_clean_linker_10, # of connection points: 2
#     Edge 9, Type (0, 1), BuildingBlock: TEMPAE_clean_linker_10, # of connection points: 2
#     Edge 10, Type (0, 1), BuildingBlock: TEMPAE_clean_linker_10, # of connection points: 2
#     Edge 11, Type (0, 1), BuildingBlock: TEMPAE_clean_linker_10, # of connection points: 2
#     Edge 12, Type (0, 1), BuildingBlock: TEMPAE_clean_linker_10, # of connection points: 2
#     Edge 13, Type (0, 1), BuildingBlock: TEMPAE_clean_linker_10, # of connection points: 2
#     Edge 14, Type (0, 1), BuildingBlock: TEMPAE_clean_linker_10, # of connection points: 2
#     Edge 15, Type (0, 1), BuildingBlock: TEMPAE_clean_linker_10, # of connection points: 2
#     Edge 16, Type (0, 1), BuildingBlock: TEMPAE_clean_linker_10, # of connection points: 2
#     Edge 17, Type (0, 1), BuildingBlock: TEMPAE_clean_linker_10, # of connection points: 2
# Relax obj value: 0.118
# Max RMSD: 0.170
# Mean RMSD: 0.151
data_MOF--net-tsx--node1-MIDCAF_clean_sbu_0--node2-CUQRIR_clean_linker_1--edge1-TEMPAE_clean_linker_10
_symmetry_space_group_name_H-M    P1
_symmetry_Int_Tables_number       1
_symmetry_cell_setting            triclinic
loop_
_symmetry_equiv_pos_as_xyz
'x, y, z'
_cell_length_a     18.323004
_cell_length_b     19.401434
_cell_length_c     33.734153
_cell_angle_alpha  79.713382
_cell_angle_beta   96.815224
_cell_angle_gamma 90.542661
loop_
_atom_site_label
_atom_site_type_symbol
_atom_site_fract_x
_atom_site_fract_y
_atom_site_fract_z
_atom_type_partial_charge
Zn0 Zn 0.92363 0.97563 0.95839 0.0
Zn1 Zn 0.1481 0.99052 0.05824 0.0
Zn2 Zn 0.03145 0.99328 0.00902 0.0
C3 C 0.09681 0.13031 0.03789 0.0
C4 C 0.19843 0.94219 0.99746 0.0
O5 O 0.95164 0.92003 0.04097 0.0
O6 O 0.8627 0.91326 0.99168 0.0
C7 C 0.92573 0.11947 0.96121 0.0
O8 O 0.04899 0.10468 0.01351 0.0
O9 O 0.14277 0.09056 0.06205 0.0
O10 O 0.22619 0.96176 0.02953 0.0
O11 O 0.12852 0.94945 0.98633 0.0
O12 O 0.89135 0.07392 0.94422 0.0
O13 O 0.98248 0.10085 0.98739 0.0
O14 O 0.06872 0.95664 0.95564 0.0
O15 O 0.96773 0.93762 0.91664 0.0
C16 C 0.03684 0.93854 0.9229 0.0
O17 O 1.0112 0.93331 0.06987 0.0
O18 O 0.12189 0.92284 0.10459 0.0
C19 C 0.88897 0.89568 0.02831 0.0
C20 C 0.0541 0.91038 0.10276 0.0
Zn21 Zn 0.70042 0.48331 0.56812 0.0
Zn22 Zn 0.48467 0.4865 0.46087 0.0
Zn23 Zn 0.58973 0.49096 0.51457 0.0
C24 C 0.59406 0.42997 0.43082 0.0
C25 C 0.50467 0.62744 0.46103 0.0
O26 O 0.55687 0.43456 0.57373 0.0
O27 O 0.661 0.42786 0.61464 0.0
C28 C 0.75153 0.41925 0.51257 0.0
O29 O 0.62819 0.44969 0.46258 0.0
O30 O 0.52502 0.43335 0.42446 0.0
O31 O 0.46998 0.58735 0.44008 0.0
O32 O 0.55138 0.60155 0.49165 0.0
O33 O 0.77493 0.43539 0.54629 0.0
O34 O 0.68566 0.43734 0.49584 0.0
O35 O 0.61359 0.60116 0.5203 0.0
O36 O 0.70904 0.58474 0.56767 0.0
C37 C 0.66392 0.62578 0.54375 0.0
O38 O 0.50015 0.42607 0.54257 0.0
O39 O 0.4102 0.43935 0.49215 0.0
C40 C 0.59337 0.41531 0.60914 0.0
C41 C 0.4336 0.41378 0.52838 0.0
C42 C 0.11546 0.04868 0.41939 0.0
N43 N 0.13234 -0.00049 0.39791 0.0
N44 N 0.04649 0.07456 0.40628 0.0
C45 C 0.1648 0.06801 0.45461 0.0
C46 C 0.02236 0.03932 0.3761 0.0
N47 N 0.0739 0.99293 0.37153 0.0
C48 C 0.95131 0.05479 0.34851 0.0
H49 H 0.19244 0.02056 0.47346 0.0
H50 H 0.13438 0.09497 0.4739 0.0
H51 H 0.20794 0.10378 0.44282 0.0
H52 H 0.95812 0.04835 0.31712 0.0
H53 H 0.93134 0.10885 0.34777 0.0
H54 H 0.90913 0.01725 0.35972 0.0
C55 C 0.01781 0.04736 0.57518 0.0
N56 N 0.06337 0.06011 0.6078 0.0
N57 N 0.95668 0.01409 0.58699 0.0
C58 C 0.03153 0.06773 0.53175 0.0
C59 C 0.9671 0.00553 0.62792 0.0
N60 N 0.03137 0.03414 0.6405 0.0
C61 C 0.91759 0.9639 0.65569 0.0
H62 H 0.97908 0.07085 0.51155 0.0
H63 H 0.06652 0.02682 0.5241 0.0
H64 H 0.05983 0.11873 0.52654 0.0
H65 H 0.88677 0.92407 0.64086 0.0
H66 H 0.87737 0.00017 0.66353 0.0
H67 H 0.94952 0.93723 0.68423 0.0
C68 C 0.59603 0.60037 0.91234 0.0
N69 N 0.61645 0.55049 0.89239 0.0
N70 N 0.5335 0.6334 0.89282 0.0
C71 C 0.63875 0.61818 0.94998 0.0
C72 C 0.51616 0.60092 0.86066 0.0
N73 N 0.56641 0.55051 0.86053 0.0
C74 C 0.44889 0.617 0.83015 0.0
H75 H 0.62501 0.58054 0.97673 0.0
H76 H 0.62562 0.67202 0.95402 0.0
H77 H 0.69863 0.61325 0.94852 0.0
H78 H 0.46032 0.66261 0.80687 0.0
H79 H 0.40156 0.63075 0.84504 0.0
H80 H 0.43384 0.57228 0.81459 0.0
C81 C 0.52257 0.48657 0.08012 0.0
N82 N 0.57086 0.49823 0.11198 0.0
N83 N 0.47145 0.43964 0.09283 0.0
C84 C 0.52343 0.52234 0.03689 0.0
C85 C 0.4898 0.4232 0.13339 0.0
N86 N 0.54981 0.45902 0.14508 0.0
C87 C 0.44695 0.37454 0.16182 0.0
H88 H 0.54248 0.57708 0.03549 0.0
H89 H 0.46826 0.5221 0.01941 0.0
H90 H 0.56191 0.49355 0.02251 0.0
H91 H 0.48274 0.35078 0.18969 0.0
H92 H 0.42122 0.33226 0.14701 0.0
H93 H 0.40239 0.40488 0.17064 0.0
C94 C 0.12675 0.23195 0.07071 0.0
C95 C 0.10946 0.20597 0.03466 0.0
C96 C 0.17393 0.28887 0.0722 0.0
C97 C 0.20416 0.32025 0.03665 0.0
C98 C 0.17671 0.30178 0.99894 0.0
C99 C 0.12948 0.24423 0.99835 0.0
C100 C 0.19979 0.3081 0.11297 0.0
C101 C 0.20446 0.33655 0.96004 0.0
C102 C 0.34508 0.45736 0.05862 0.0
C103 C 0.40852 0.41542 0.06984 0.0
C104 C 0.27848 0.42907 0.04385 0.0
C105 C 0.27565 0.35697 0.04128 0.0
C106 C 0.34146 0.31618 0.04972 0.0
C107 C 0.40714 0.34621 0.06373 0.0
C108 C 0.2107 0.47527 0.03392 0.0
C109 C 0.34158 0.23915 0.04731 0.0
H110 H 0.11067 0.20247 0.09873 0.0
H111 H 0.11585 0.2243 0.97036 0.0
H112 H 0.25642 0.28731 0.12335 0.0
H113 H 0.20143 0.36577 0.11071 0.0
H114 H 0.16378 0.28616 0.13631 0.0
H115 H 0.16499 0.33069 0.93322 0.0
H116 H 0.21436 0.3931 0.95996 0.0
H117 H 0.25739 0.31172 0.95709 0.0
H118 H 0.34685 0.51115 0.06343 0.0
H119 H 0.45675 0.31447 0.07256 0.0
H120 H 0.1829 0.47286 0.0616 0.0
H121 H 0.17114 0.45818 0.01014 0.0
H122 H 0.22529 0.53076 0.02357 0.0
H123 H 0.30964 0.21 0.07077 0.0
H124 H 0.39804 0.21641 0.05214 0.0
H125 H 0.31492 0.23083 0.0173 0.0
C126 C 0.21894 0.85501 0.95345 0.0
C127 C 0.24649 0.90719 0.97475 0.0
C128 C 0.26601 0.8157 0.93597 0.0
C129 C 0.34269 0.82738 0.94118 0.0
C130 C 0.37061 0.88139 0.96164 0.0
C131 C 0.32207 0.92088 0.97802 0.0
C132 C 0.23401 0.75919 0.91385 0.0
C133 C 0.45208 0.89506 0.96808 0.0
C134 C 0.46658 0.6709 0.94421 0.0
C135 C 0.48988 0.68465 0.90566 0.0
C136 C 0.41936 0.71743 0.95632 0.0
C137 C 0.39419 0.77884 0.92881 0.0
C138 C 0.41809 0.79335 0.88982 0.0
C139 C 0.46626 0.74613 0.87881 0.0
C140 C 0.39548 0.7003 0.99828 0.0
C141 C 0.39185 0.85798 0.85962 0.0
H142 H 0.16112 0.84244 0.95211 0.0
H143 H 0.34366 0.9611 0.9946 0.0
H144 H 0.2568 0.76218 0.88456 0.0
H145 H 0.2492 0.70701 0.93237 0.0
H146 H 0.17311 0.76311 0.90776 0.0
H147 H 0.46429 0.94271 0.98158 0.0
H148 H 0.48027 0.84957 0.98865 0.0
H149 H 0.47579 0.90118 0.93891 0.0
H150 H 0.48406 0.62269 0.96439 0.0
H151 H 0.48488 0.75659 0.84904 0.0
H152 H 0.33485 0.69513 0.99604 0.0
H153 H 0.41051 0.74351 0.01515 0.0
H154 H 0.42087 0.65093 0.01614 0.0
H155 H 0.33101 0.85793 0.85329 0.0
H156 H 0.41549 0.86144 0.8305 0.0
H157 H 0.40693 0.90566 0.87248 0.0
C158 C 0.88271 0.79313 0.08538 0.0
C159 C 0.84741 0.84355 0.05421 0.0
C160 C 0.84396 0.73485 0.10326 0.0
C161 C 0.769 0.72652 0.08886 0.0
C162 C 0.73232 0.77973 0.05924 0.0
C163 C 0.77172 0.83775 0.04277 0.0
C164 C 0.88443 0.68037 0.13569 0.0
C165 C 0.6526 0.77317 0.04268 0.0
C166 C 0.68035 0.55096 0.08349 0.0
C167 C 0.62876 0.54922 0.11108 0.0
C168 C 0.7301 0.60627 0.07782 0.0
C169 C 0.72956 0.66009 0.10124 0.0
C170 C 0.68166 0.65526 0.13158 0.0
C171 C 0.63083 0.60055 0.13561 0.0
C172 C 0.77939 0.60969 0.04471 0.0
C173 C 0.68053 0.71039 0.1579 0.0
H174 H 0.94125 0.7967 0.09403 0.0
H175 H 0.74384 0.87701 0.01899 0.0
H176 H 0.84934 0.66073 0.15985 0.0
H177 H 0.89902 0.63513 0.12207 0.0
H178 H 0.93594 0.70139 0.14967 0.0
H179 H 0.63151 0.82065 0.02092 0.0
H180 H 0.64633 0.72755 0.02687 0.0
H181 H 0.61768 0.76383 0.06775 0.0
H182 H 0.67946 0.51048 0.06509 0.0
H183 H 0.59039 0.59992 0.1566 0.0
H184 H 0.83718 0.61787 0.05677 0.0
H185 H 0.76274 0.65498 0.02025 0.0
H186 H 0.77678 0.5614 0.03118 0.0
H187 H 0.73723 0.72594 0.16791 0.0
H188 H 0.65213 0.6918 0.18511 0.0
H189 H 0.65113 0.75781 0.14018 0.0
C190 C 0.83707 0.20807 0.92 0.0
C191 C 0.89596 0.19242 0.95106 0.0
C192 C 0.80041 0.27279 0.91216 0.0
C193 C 0.82407 0.32469 0.93521 0.0
C194 C 0.88621 0.31125 0.965 0.0
C195 C 0.92084 0.24474 0.97301 0.0
C196 C 0.73403 0.28425 0.88032 0.0
C197 C 0.91464 0.36607 0.98931 0.0
C198 C 0.73569 0.49942 0.88551 0.0
C199 C 0.67399 0.49908 0.90623 0.0
C200 C 0.78923 0.44592 0.89702 0.0
C201 C 0.7795 0.39033 0.9294 0.0
C202 C 0.71881 0.3922 0.95167 0.0
C203 C 0.66697 0.44695 0.93988 0.0
C204 C 0.85399 0.44692 0.87317 0.0
C205 C 0.70556 0.3338 0.98602 0.0
H206 H 0.81752 0.16862 0.90236 0.0
H207 H 0.96571 0.23328 0.99713 0.0
H208 H 0.68448 0.29404 0.89459 0.0
H209 H 0.74171 0.33104 0.85704 0.0
H210 H 0.72331 0.23864 0.86477 0.0
H211 H 0.9709 0.35295 0.00503 0.0
H212 H 0.91545 0.41824 0.96951 0.0
H213 H 0.87761 0.37007 0.01255 0.0
H214 H 0.74115 0.54085 0.8599 0.0
H215 H 0.619 0.44762 0.95578 0.0
H216 H 0.84583 0.40784 0.85277 0.0
H217 H 0.90539 0.4324 0.89384 0.0
H218 H 0.86087 0.49916 0.8543 0.0
H219 H 0.69076 0.2855 0.97369 0.0
H220 H 0.66049 0.34677 0.00287 0.0
H221 H 0.75621 0.32203 0.00764 0.0
C222 C 0.70471 0.72396 0.57791 0.0
C223 C 0.6744 0.70161 0.54235 0.0
C224 C 0.73652 0.78987 0.57667 0.0
C225 C 0.73727 0.83518 0.5388 0.0
C226 C 0.69849 0.81637 0.50342 0.0
C227 C 0.66775 0.74912 0.50552 0.0
C228 C 0.77599 0.80763 0.61548 0.0
C229 C 0.69439 0.8644 0.46282 0.0
C230 C 0.82651 0.00043 0.56255 0.0
C231 C 0.90044 0.98247 0.563 0.0
C232 C 0.77036 0.95764 0.54872 0.0
C233 C 0.78937 0.89471 0.53649 0.0
C234 C 0.86384 0.88138 0.53235 0.0
C235 C 0.91859 0.9258 0.5456 0.0
C236 C 0.69151 0.97608 0.55123 0.0
C237 C 0.88676 0.81565 0.51874 0.0
H238 H 0.70842 0.68761 0.60654 0.0
H239 H 0.64388 0.73214 0.47796 0.0
H240 H 0.83609 0.80956 0.61363 0.0
H241 H 0.75817 0.85986 0.61991 0.0
H242 H 0.76594 0.7686 0.6426 0.0
H243 H 0.64301 0.85576 0.44336 0.0
H244 H 0.69686 0.92032 0.46607 0.0
H245 H 0.74142 0.85294 0.44702 0.0
H246 H 0.81301 0.04526 0.57553 0.0
H247 H 0.97605 0.91268 0.5459 0.0
H248 H 0.67528 0.94972 0.5808 0.0
H249 H 0.65406 0.95831 0.5268 0.0
H250 H 0.68413 0.03346 0.54908 0.0
H251 H 0.88037 0.76971 0.54288 0.0
H252 H 0.94492 0.81748 0.51234 0.0
H253 H 0.85122 0.80753 0.49103 0.0
C254 C 0.79876 0.37751 0.45405 0.0
C255 C 0.79805 0.37257 0.49577 0.0
C256 C 0.83994 0.33004 0.43849 0.0
C257 C 0.88342 0.27792 0.46567 0.0
C258 C 0.88551 0.27479 0.50801 0.0
C259 C 0.84241 0.32182 0.5225 0.0
C260 C 0.83572 0.33482 0.3931 0.0
C261 C 0.93223 0.22115 0.53811 0.0
C262 C 0.93437 0.11159 0.43055 0.0
C263 C 1.00621 0.12566 0.42142 0.0
C264 C 0.89344 0.16101 0.44453 0.0
C265 C 0.92565 0.22578 0.44997 0.0
C266 C 0.99853 0.24005 0.44111 0.0
C267 C 0.03767 0.19001 0.42645 0.0
C268 C 0.81624 0.14339 0.45409 0.0
C269 C 0.03507 0.30806 0.44714 0.0
H270 H 0.76845 0.41931 0.43378 0.0
H271 H 0.84254 0.31808 0.55497 0.0
H272 H 0.89166 0.33703 0.38352 0.0
H273 H 0.80912 0.2872 0.38441 0.0
H274 H 0.80376 0.38145 0.37617 0.0
H275 H 0.9318 0.2291 0.56988 0.0
H276 H 0.91154 0.16792 0.53592 0.0
H277 H 0.9899 0.22345 0.53106 0.0
H278 H 0.91069 0.06125 0.42727 0.0
H279 H 0.09285 0.20109 0.41877 0.0
H280 H 0.77719 0.18472 0.43714 0.0
H281 H 0.81311 0.14154 0.4869 0.0
H282 H 0.79817 0.09209 0.44634 0.0
H283 H 0.09334 0.30941 0.44095 0.0
H284 H 0.03313 0.31623 0.47873 0.0
H285 H 1.0049 0.35251 0.42672 0.0
C286 C 0.41181 0.31443 0.58491 0.0
C287 C 0.38443 0.36572 0.55186 0.0
C288 C 0.36572 0.26163 0.60208 0.0
C289 C 0.29144 0.25927 0.58492 0.0
C290 C 0.26296 0.31284 0.55282 0.0
C291 C 0.30943 0.36572 0.53718 0.0
C292 C 0.39745 0.20668 0.63718 0.0
C293 C 0.18425 0.31231 0.5333 0.0
C294 C 0.18283 0.09286 0.58331 0.0
C295 C 0.12831 0.10266 0.60758 0.0
C296 C 0.23974 0.14121 0.57768 0.0
C297 C 0.24354 0.19924 0.59809 0.0
C298 C 0.19257 0.20541 0.6257 0.0
C299 C 0.13472 0.15774 0.62952 0.0
C300 C 0.29197 0.13322 0.54734 0.0
C301 C 0.19578 0.26525 0.64892 0.0
H302 H 0.46972 0.31332 0.59608 0.0
H303 H 0.28743 0.40556 0.51191 0.0
H304 H 0.35854 0.19501 0.66026 0.0
H305 H 0.40703 0.15743 0.62609 0.0
H306 H 0.45059 0.22329 0.65192 0.0
H307 H 0.17047 0.3587 0.50908 0.0
H308 H 0.17466 0.26439 0.51978 0.0
H309 H 0.14574 0.31119 0.55639 0.0
H310 H 0.17891 0.04912 0.56725 0.0
H311 H 0.09235 0.16566 0.64814 0.0
H312 H 0.34959 0.13987 0.56025 0.0
H313 H 0.27988 0.17464 0.52007 0.0
H314 H 0.28704 0.08142 0.53762 0.0
H315 H 0.25337 0.27536 0.66057 0.0
H316 H 0.16264 0.25469 0.67483 0.0
H317 H 0.17389 0.31363 0.62839 0.0
C318 C 0.46004 0.73306 0.41189 0.0
C319 C 0.48214 0.70192 0.45228 0.0
C320 C 0.41408 0.79246 0.40249 0.0
C321 C 0.3891 0.82088 0.43435 0.0
C322 C 0.41832 0.79459 0.47506 0.0
C323 C 0.46507 0.73529 0.4836 0.0
C324 C 0.38577 0.81956 0.35863 0.0
C325 C 0.39393 0.82397 0.50991 0.0
C326 C 0.26743 0.98477 0.40666 0.0
C327 C 0.19716 0.95548 0.40555 0.0
C328 C 0.33085 0.94195 0.41658 0.0
C329 C 0.32339 0.86826 0.42539 0.0
C330 C 0.2522 0.83871 0.42394 0.0
C331 C 0.19005 0.88277 0.41397 0.0
C332 C 0.40558 0.97538 0.41742 0.0
C333 C 0.24154 0.76041 0.43299 0.0
H334 H 0.47379 0.70746 0.38762 0.0
H335 H 0.482 0.71117 0.51485 0.0
H336 H 0.3287 0.8013 0.35226 0.0
H337 H 0.38436 0.87765 0.35216 0.0
H338 H 0.41995 0.80062 0.33758 0.0
H339 H 0.43181 0.80798 0.53828 0.0
H340 H 0.39042 0.88199 0.50275 0.0
H341 H 0.33828 0.80429 0.51537 0.0
H342 H 0.27254 0.04117 0.39965 0.0
H343 H 0.13551 0.86059 0.41349 0.0
H344 H 0.43607 0.95871 0.39416 0.0
H345 H 0.4383 0.95765 0.44731 0.0
H346 H 0.40189 0.03351 0.41159 0.0
H347 H 0.26709 0.73528 0.41087 0.0
H348 H 0.18256 0.74608 0.43158 0.0
H349 H 0.26918 0.73844 0.46367 0.0
C350 C 0.97517 0.92778 0.15444 0.0
C351 C 0.02537 0.88508 0.14161 0.0
C352 C 0.97441 0.92857 0.19595 0.0
C353 C 0.02342 0.88397 0.22486 0.0
C354 C 0.06443 0.83236 0.21204 0.0
C355 C 0.0658 0.83419 0.17036 0.0
C356 C 0.92891 0.98384 0.20829 0.0
C357 C 0.1139 0.78105 0.242 0.0
C358 C 0.11525 0.97455 0.30795 0.0
C359 C 0.07098 0.9543 0.33881 0.0
C360 C 0.10196 0.94964 0.27126 0.0
C361 C 0.04381 0.90202 0.26582 0.0
C362 C 1.00272 0.87714 0.29836 0.0
C363 C 0.01613 0.90455 0.33436 0.0
C364 C 0.14721 0.9779 0.23743 0.0
C365 C 0.94211 0.82471 0.29461 0.0
H366 H 0.94392 0.96718 0.13219 0.0
H367 H 0.10421 0.80063 0.16036 0.0
H368 H 0.9013 0.96153 0.23514 0.0
H369 H 0.96545 0.02616 0.21678 0.0
H370 H 0.88652 0.00738 0.18334 0.0
H371 H 0.1278 0.73507 0.22874 0.0
H372 H 0.16585 0.80725 0.25087 0.0
H373 H 0.08765 0.76251 0.26993 0.0
H374 H 0.15697 0.01364 0.31163 0.0
H375 H 0.98194 0.88938 0.35851 0.0
H376 H 0.11103 0.00686 0.21111 0.0
H377 H 0.17354 0.93418 0.22703 0.0
H378 H 0.19089 0.01377 0.24687 0.0
H379 H 0.89068 0.85264 0.27994 0.0
H380 H 0.93147 0.79585 0.32487 0.0
H381 H 0.95549 0.78636 0.27569 0.0
C382 C 0.05024 0.88912 0.86143 0.0
C383 C 0.0782 0.93165 0.88893 0.0
C384 C 0.0683 0.90137 0.82164 0.0
C385 C 0.1146 0.95805 0.80928 0.0
C386 C 0.15227 0.99328 0.83875 0.0
C387 C 0.13344 0.97969 0.87856 0.0
C388 C 0.02935 0.86028 0.79158 0.0
C389 C 0.20494 0.05153 0.82722 0.0
C390 C 0.12648 0.98662 0.69615 0.0
C391 C 0.0636 0.02828 0.68189 0.0
C392 C 0.14872 0.96771 0.73803 0.0
C393 C 0.10648 0.99108 0.7657 0.0
C394 C 0.04698 0.03865 0.75089 0.0
C395 C 0.02622 0.0564 0.70908 0.0
C396 C 0.21347 0.91845 0.7523 0.0
C397 C 1.00102 0.06614 0.77916 0.0
H398 H 1.00872 0.85083 0.86985 0.0
H399 H 0.15596 0.01206 0.90002 0.0
H400 H 0.98409 0.89283 0.7727 0.0
H401 H 0.06759 0.84663 0.77098 0.0
H402 H 1.00546 0.81128 0.80696 0.0
H403 H 0.24391 0.0595 0.85383 0.0
H404 H 0.2366 0.04058 0.80292 0.0
H405 H 0.17342 0.10103 0.8156 0.0
H406 H 0.15519 0.96521 0.6747 0.0
H407 H 0.97802 0.08908 0.69748 0.0
H408 H 0.19396 0.86364 0.7557 0.0
H409 H 0.24166 0.92646 0.78208 0.0
H410 H 0.25383 0.92508 0.72983 0.0
H411 H 0.96969 0.02253 0.79497 0.0
H412 H 0.96127 0.10742 0.76279 0.0
H413 H 0.03674 0.08818 0.80262 0.0
C414 C 0.49828 0.43405 0.65248 0.0
C415 C 0.55701 0.3935 0.646 0.0
C416 C 0.48795 0.44206 0.69205 0.0
C417 C 0.53712 0.40806 0.72529 0.0
C418 C 0.58711 0.35707 0.71908 0.0
C419 C 0.59656 0.35041 0.67929 0.0
C420 C 0.43183 0.49482 0.69758 0.0
C421 C 0.63838 0.31739 0.7538 0.0
C422 C 0.60768 0.52851 0.79781 0.0
C423 C 0.56735 0.50726 0.83026 0.0
C424 C 0.59979 0.49492 0.76413 0.0
C425 C 0.5497 0.4388 0.76292 0.0
C426 C 0.51114 0.41509 0.7967 0.0
C427 C 0.52027 0.45005 0.83005 0.0
C428 C 0.64297 0.52155 0.72912 0.0
C429 C 0.45764 0.35551 0.79696 0.0
H430 H 0.46706 0.46688 0.62678 0.0
H431 H 0.64127 0.318 0.67424 0.0
H432 H 0.4049 0.47612 0.72522 0.0
H433 H 0.45978 0.54467 0.70132 0.0
H434 H 0.38898 0.50575 0.67097 0.0
H435 H 0.6613 0.26965 0.74569 0.0
H436 H 0.68484 0.35159 0.76159 0.0
H437 H 0.6099 0.30202 0.78124 0.0
H438 H 0.64304 0.57355 0.7982 0.0
H439 H 0.4885 0.43474 0.85527 0.0
H440 H 0.60471 0.5418 0.70153 0.0
H441 H 0.6756 0.47819 0.72225 0.0
H442 H 0.68109 0.56416 0.73551 0.0
H443 H 0.40425 0.37567 0.78004 0.0
H444 H 0.4479 0.33183 0.82836 0.0
H445 H 0.47734 0.31403 0.7819 0.0
C446 C 0.61404 0.36247 0.37743 0.0
C447 C 0.63222 0.41975 0.39645 0.0
C448 C 0.62313 0.36532 0.33648 0.0
C449 C 0.64975 0.42747 0.31424 0.0
C450 C 0.67743 0.48138 0.33486 0.0
C451 C 0.66747 0.47726 0.37579 0.0
C452 C 0.59459 0.30591 0.31584 0.0
C453 C 0.70853 0.54741 0.31258 0.0
C454 C 0.65092 0.43297 0.20087 0.0
C455 C 0.58023 0.45958 0.18625 0.0
C456 C 0.67652 0.42476 0.24249 0.0
C457 C 0.62972 0.44341 0.26954 0.0
C458 C 0.55971 0.4739 0.25414 0.0
C459 C 0.53607 0.48165 0.21266 0.0
C460 C 0.75176 0.39308 0.25753 0.0
C461 C 0.50811 0.49555 0.28164 0.0
H462 H 0.58615 0.31836 0.39341 0.0
H463 H 0.68082 0.52194 0.39047 0.0
H464 H 0.53991 0.32077 0.29859 0.0
H465 H 0.63181 0.29513 0.29399 0.0
H466 H 0.58855 0.25713 0.33808 0.0
H467 H 0.74292 0.57571 0.33373 0.0
H468 H 0.74208 0.53556 0.28927 0.0
H469 H 0.6627 0.58273 0.29684 0.0
H470 H 0.6847 0.41614 0.18001 0.0
H471 H 0.48182 0.503 0.20073 0.0
H472 H 0.74625 0.33631 0.26918 0.0
H473 H 0.77905 0.41722 0.28277 0.0
H474 H 0.78761 0.399 0.23281 0.0
H475 H 0.4931 0.449 0.30328 0.0
H476 H 0.45674 0.52048 0.26448 0.0
H477 H 0.53551 0.53306 0.29967 0.0
loop_
_geom_bond_atom_site_label_1
_geom_bond_atom_site_label_2
_geom_bond_distance
_geom_bond_site_symmetry_2
_ccdc_geom_bond_type
Zn0 O6 1.920 1_545 S
Zn0 O12 1.898 . S
Zn0 O15 1.905 1_545 S
Zn1 O9 1.905 1_565 S
Zn1 O10 1.898 . S
Zn1 O18 1.920 . S
Zn2 O5 2.080 1_445 S
Zn2 O8 2.114 1_554 S
Zn2 O11 2.120 1_545 S
Zn2 O13 2.120 1_455 S
Zn2 O14 2.114 1_554 S
Zn2 O17 2.080 . S
C3 O8 1.166 1_554 S
C3 O9 1.182 . S
C4 O10 1.167 . S
C4 O11 1.299 . S
O5 Zn2 2.080 1_665 S
O5 C19 1.305 . S
O6 Zn0 1.920 1_565 S
O6 C19 1.234 1_556 S
C7 O12 1.167 . S
C7 O13 1.299 1_556 S
O8 Zn2 2.114 1_556 S
O8 C3 1.166 1_556 S
O9 Zn1 1.905 1_545 S
O9 C3 1.182 . S
O10 Zn1 1.898 . S
O10 C4 1.167 . S
O11 Zn2 2.120 1_565 S
O11 C4 1.299 . S
O12 Zn0 1.898 . S
O12 C7 1.167 . S
O13 Zn2 2.120 1_655 S
O13 C7 1.299 1_554 S
O14 Zn2 2.114 1_556 S
O14 C16 1.166 1_545 S
O15 Zn0 1.905 1_565 S
O15 C16 1.182 1_655 S
C16 O14 1.166 1_565 S
C16 O15 1.182 1_455 S
O17 Zn2 2.080 . S
O17 C20 1.304 1_545 S
O18 Zn1 1.920 . S
O18 C20 1.234 . S
C19 O5 1.305 . S
C19 O6 1.234 1_554 S
C20 O17 1.304 1_565 S
C20 O18 1.234 . S
Zn21 O27 1.920 . S
Zn21 O33 1.898 . S
Zn21 O36 1.905 . S
Zn22 O30 1.905 . S
Zn22 O31 1.898 . S
Zn22 O39 1.920 . S
Zn23 O26 2.080 . S
Zn23 O29 2.114 . S
Zn23 O32 2.120 . S
Zn23 O34 2.120 . S
Zn23 O35 2.114 . S
Zn23 O38 2.080 . S
C24 O29 1.166 . S
C24 O30 1.182 . S
C25 O31 1.167 . S
C25 O32 1.299 . S
O26 Zn23 2.080 . S
O26 C40 1.305 . S
O27 Zn21 1.920 . S
O27 C40 1.234 . S
C28 O33 1.167 . S
C28 O34 1.299 . S
O29 Zn23 2.114 . S
O29 C24 1.166 . S
O30 Zn22 1.905 . S
O30 C24 1.182 . S
O31 Zn22 1.898 . S
O31 C25 1.167 . S
O32 Zn23 2.120 . S
O32 C25 1.299 . S
O33 Zn21 1.898 . S
O33 C28 1.167 . S
O34 Zn23 2.120 . S
O34 C28 1.299 . S
O35 Zn23 2.114 . S
O35 C37 1.166 . S
O36 Zn21 1.905 . S
O36 C37 1.182 . S
C37 O35 1.166 . S
C37 O36 1.182 . S
O38 Zn23 2.080 . S
O38 C41 1.305 . S
O39 Zn22 1.920 . S
O39 C41 1.234 . S
C40 O26 1.305 . S
C40 O27 1.234 . S
C41 O38 1.305 . S
C41 O39 1.234 . S
C42 N43 1.317 1_545 S
C42 N44 1.348 . S
C42 C45 1.485 . S
N43 C42 1.317 1_565 S
N43 N47 1.370 1_565 S
N44 C42 1.348 . S
N44 C46 1.346 . S
C45 C42 1.485 . S
C45 H49 0.960 1_545 S
C45 H50 0.961 . S
C45 H51 0.960 1_545 S
C46 N44 1.346 . S
C46 N47 1.307 . S
C46 C48 1.486 1_455 S
N47 N43 1.370 1_545 S
N47 C46 1.307 . S
C48 C46 1.486 1_655 S
C48 H52 0.960 . S
C48 H53 0.960 . S
C48 H54 0.959 . S
H49 C45 0.960 1_565 S
H50 C45 0.961 . S
H51 C45 0.960 1_565 S
H52 C48 0.960 . S
H53 C48 0.960 . S
H54 C48 0.959 . S
C55 N56 1.317 . S
C55 N57 1.348 1_445 S
C55 C58 1.485 . S
N56 C55 1.317 . S
N56 N60 1.370 . S
N57 C55 1.348 1_665 S
N57 C59 1.346 . S
C58 C55 1.485 . S
C58 H62 0.960 1_455 S
C58 H63 0.961 1_545 S
C58 H64 0.960 . S
C59 N57 1.346 . S
C59 N60 1.307 1_665 S
C59 C61 1.486 . S
N60 N56 1.370 . S
N60 C59 1.307 1_445 S
C61 C59 1.486 . S
C61 H65 0.960 . S
C61 H66 0.960 . S
C61 H67 0.959 . S
H62 C58 0.960 1_655 S
H63 C58 0.961 1_565 S
H64 C58 0.960 . S
H65 C61 0.960 . S
H66 C61 0.960 . S
H67 C61 0.959 . S
C68 N69 1.317 . S
C68 N70 1.348 . S
C68 C71 1.485 . S
N69 C68 1.317 . S
N69 N73 1.370 . S
N70 C68 1.348 . S
N70 C72 1.346 . S
C71 C68 1.485 . S
C71 H75 0.960 1_556 S
C71 H76 0.961 1_556 S
C71 H77 0.960 . S
C72 N70 1.346 . S
C72 N73 1.307 . S
C72 C74 1.486 . S
N73 N69 1.370 . S
N73 C72 1.307 . S
C74 C72 1.486 . S
C74 H78 0.960 . S
C74 H79 0.960 . S
C74 H80 0.959 . S
H75 C71 0.960 1_554 S
H76 C71 0.961 1_554 S
H77 C71 0.960 . S
H78 C74 0.960 . S
H79 C74 0.960 . S
H80 C74 0.959 . S
C81 N82 1.317 . S
C81 N83 1.348 . S
C81 C84 1.485 . S
N82 C81 1.317 . S
N82 N86 1.370 . S
N83 C81 1.348 . S
N83 C85 1.346 . S
C84 C81 1.485 . S
C84 H88 0.960 . S
C84 H89 0.961 . S
C84 H90 0.960 . S
C85 N83 1.346 . S
C85 N86 1.307 . S
C85 C87 1.486 . S
N86 N82 1.370 . S
N86 C85 1.307 . S
C87 C85 1.486 . S
C87 H91 0.960 . S
C87 H92 0.960 . S
C87 H93 0.959 . S
H88 C84 0.960 . S
H89 C84 0.961 . S
H90 C84 0.960 . S
H91 C87 0.960 . S
H92 C87 0.960 . S
H93 C87 0.959 . S
C94 C95 1.391 . S
C94 C96 1.394 . S
C94 H110 0.931 . S
C95 C94 1.391 . S
C95 C99 1.376 . S
C96 C94 1.394 . S
C96 C97 1.369 . S
C96 C100 1.531 . S
C97 C96 1.369 . S
C97 C98 1.410 . S
C97 C105 1.503 . S
C98 C97 1.410 . S
C98 C99 1.392 . S
C98 C101 1.511 . S
C99 C95 1.376 . S
C99 C98 1.392 . S
C99 H111 0.929 1_554 S
C100 C96 1.531 . S
C100 H112 0.960 . S
C100 H113 0.962 . S
C100 H114 0.960 . S
C101 C98 1.511 . S
C101 H115 0.961 1_554 S
C101 H116 0.961 . S
C101 H117 0.961 . S
C102 C103 1.370 . S
C102 C104 1.363 . S
C102 H118 0.931 . S
C103 C102 1.370 . S
C103 C107 1.408 . S
C104 C102 1.363 . S
C104 C105 1.370 . S
C104 C108 1.524 1_554 S
C105 C97 1.503 . S
C105 C104 1.370 . S
C105 C106 1.403 . S
C106 C105 1.403 . S
C106 C107 1.404 . S
C106 C109 1.539 . S
C107 C103 1.408 . S
C107 C106 1.404 . S
C107 H119 0.930 . S
C108 C104 1.524 1_556 S
C108 H120 0.956 . S
C108 H121 0.961 . S
C108 H122 0.961 . S
C109 C106 1.539 . S
C109 H123 0.958 . S
C109 H124 0.961 . S
C109 H125 0.960 . S
H110 C94 0.931 . S
H111 C99 0.929 1_556 S
H112 C100 0.960 . S
H113 C100 0.962 . S
H114 C100 0.960 . S
H115 C101 0.961 1_556 S
H116 C101 0.961 . S
H117 C101 0.961 . S
H118 C102 0.931 . S
H119 C107 0.930 . S
H120 C108 0.956 . S
H121 C108 0.961 . S
H122 C108 0.961 . S
H123 C109 0.958 . S
H124 C109 0.961 . S
H125 C109 0.960 . S
C126 C127 1.391 . S
C126 C128 1.394 . S
C126 H142 0.931 . S
C127 C126 1.391 . S
C127 C131 1.373 1_556 S
C128 C126 1.394 . S
C128 C129 1.369 . S
C128 C132 1.531 . S
C129 C128 1.369 . S
C129 C130 1.410 . S
C129 C137 1.503 . S
C130 C129 1.410 . S
C130 C131 1.389 1_556 S
C130 C133 1.511 1_556 S
C131 C127 1.373 1_554 S
C131 C130 1.389 1_554 S
C131 H143 0.935 . S
C132 C128 1.531 . S
C132 H144 0.960 . S
C132 H145 0.962 . S
C132 H146 0.960 . S
C133 C130 1.511 1_554 S
C133 H147 0.961 . S
C133 H148 0.961 . S
C133 H149 0.961 1_554 S
C134 C135 1.370 . S
C134 C136 1.363 . S
C134 H150 0.931 . S
C135 C134 1.370 . S
C135 C139 1.408 . S
C136 C134 1.363 . S
C136 C137 1.370 . S
C136 C140 1.524 1_556 S
C137 C129 1.503 . S
C137 C136 1.370 . S
C137 C138 1.403 . S
C138 C137 1.403 . S
C138 C139 1.404 . S
C138 C141 1.539 . S
C139 C135 1.408 . S
C139 C138 1.404 . S
C139 H151 0.930 . S
C140 C136 1.524 1_554 S
C140 H152 0.956 . S
C140 H153 0.961 . S
C140 H154 0.961 . S
C141 C138 1.539 . S
C141 H155 0.958 . S
C141 H156 0.961 . S
C141 H157 0.960 . S
H142 C126 0.931 . S
H143 C131 0.935 . S
H144 C132 0.960 . S
H145 C132 0.962 . S
H146 C132 0.960 . S
H147 C133 0.961 . S
H148 C133 0.961 . S
H149 C133 0.961 1_556 S
H150 C134 0.931 . S
H151 C139 0.930 . S
H152 C140 0.956 . S
H153 C140 0.961 . S
H154 C140 0.961 . S
H155 C141 0.958 . S
H156 C141 0.961 . S
H157 C141 0.960 . S
C158 C159 1.391 . S
C158 C160 1.394 . S
C158 H174 0.931 . S
C159 C158 1.391 . S
C159 C163 1.376 . S
C160 C158 1.394 . S
C160 C161 1.369 . S
C160 C164 1.531 . S
C161 C160 1.369 . S
C161 C162 1.410 . S
C161 C169 1.503 . S
C162 C161 1.410 . S
C162 C163 1.392 . S
C162 C165 1.511 . S
C163 C159 1.376 . S
C163 C162 1.392 . S
C163 H175 0.929 . S
C164 C160 1.531 . S
C164 H176 0.960 . S
C164 H177 0.962 . S
C164 H178 0.960 . S
C165 C162 1.511 . S
C165 H179 0.961 1_554 S
C165 H180 0.961 . S
C165 H181 0.961 . S
C166 C167 1.370 . S
C166 C168 1.363 . S
C166 H182 0.931 . S
C167 C166 1.370 . S
C167 C171 1.408 . S
C168 C166 1.363 . S
C168 C169 1.370 . S
C168 C172 1.524 . S
C169 C161 1.503 . S
C169 C168 1.370 . S
C169 C170 1.403 . S
C170 C169 1.403 . S
C170 C171 1.404 . S
C170 C173 1.539 . S
C171 C167 1.408 . S
C171 C170 1.404 . S
C171 H183 0.930 . S
C172 C168 1.524 . S
C172 H184 0.956 . S
C172 H185 0.961 1_554 S
C172 H186 0.961 1_554 S
C173 C170 1.539 . S
C173 H187 0.958 . S
C173 H188 0.961 . S
C173 H189 0.960 . S
H174 C158 0.931 . S
H175 C163 0.929 . S
H176 C164 0.960 . S
H177 C164 0.962 . S
H178 C164 0.960 . S
H179 C165 0.961 1_556 S
H180 C165 0.961 . S
H181 C165 0.961 . S
H182 C166 0.931 . S
H183 C171 0.930 . S
H184 C172 0.956 . S
H185 C172 0.961 1_556 S
H186 C172 0.961 1_556 S
H187 C173 0.958 . S
H188 C173 0.961 . S
H189 C173 0.960 . S
C190 C191 1.391 . S
C190 C192 1.394 . S
C190 H206 0.931 . S
C191 C190 1.391 . S
C191 C195 1.376 . S
C192 C190 1.394 . S
C192 C193 1.369 . S
C192 C196 1.531 . S
C193 C192 1.369 . S
C193 C194 1.410 . S
C193 C201 1.503 . S
C194 C193 1.410 . S
C194 C195 1.392 . S
C194 C197 1.511 . S
C195 C191 1.376 . S
C195 C194 1.392 . S
C195 H207 0.929 . S
C196 C192 1.531 . S
C196 H208 0.960 . S
C196 H209 0.962 . S
C196 H210 0.960 . S
C197 C194 1.511 . S
C197 H211 0.961 . S
C197 H212 0.961 . S
C197 H213 0.961 . S
C198 C199 1.370 . S
C198 C200 1.363 . S
C198 H214 0.931 . S
C199 C198 1.370 . S
C199 C203 1.408 . S
C200 C198 1.363 . S
C200 C201 1.370 . S
C200 C204 1.524 . S
C201 C193 1.503 . S
C201 C200 1.370 . S
C201 C202 1.403 . S
C202 C201 1.403 . S
C202 C203 1.404 . S
C202 C205 1.539 1_556 S
C203 C199 1.408 . S
C203 C202 1.404 . S
C203 H215 0.930 . S
C204 C200 1.524 . S
C204 H216 0.956 . S
C204 H217 0.961 . S
C204 H218 0.961 . S
C205 C202 1.539 1_554 S
C205 H219 0.958 . S
C205 H220 0.961 . S
C205 H221 0.960 . S
H206 C190 0.931 . S
H207 C195 0.929 . S
H208 C196 0.960 . S
H209 C196 0.962 . S
H210 C196 0.960 . S
H211 C197 0.961 . S
H212 C197 0.961 . S
H213 C197 0.961 . S
H214 C198 0.931 . S
H215 C203 0.930 . S
H216 C204 0.956 . S
H217 C204 0.961 . S
H218 C204 0.961 . S
H219 C205 0.958 . S
H220 C205 0.961 . S
H221 C205 0.960 . S
C222 C223 1.391 . S
C222 C224 1.394 . S
C222 H238 0.931 . S
C223 C222 1.391 . S
C223 C227 1.376 . S
C224 C222 1.394 . S
C224 C225 1.369 . S
C224 C228 1.531 . S
C225 C224 1.369 . S
C225 C226 1.410 . S
C225 C233 1.503 . S
C226 C225 1.410 . S
C226 C227 1.392 . S
C226 C229 1.511 . S
C227 C223 1.376 . S
C227 C226 1.392 . S
C227 H239 0.929 . S
C228 C224 1.531 . S
C228 H240 0.960 . S
C228 H241 0.962 . S
C228 H242 0.960 . S
C229 C226 1.511 . S
C229 H243 0.961 . S
C229 H244 0.961 . S
C229 H245 0.961 . S
C230 C231 1.370 . S
C230 C232 1.363 . S
C230 H246 0.931 . S
C231 C230 1.370 . S
C231 C235 1.408 . S
C232 C230 1.363 . S
C232 C233 1.370 . S
C232 C236 1.524 . S
C233 C225 1.503 . S
C233 C232 1.370 . S
C233 C234 1.403 . S
C234 C233 1.403 . S
C234 C235 1.404 . S
C234 C237 1.539 . S
C235 C231 1.408 . S
C235 C234 1.404 . S
C235 H247 0.930 . S
C236 C232 1.524 . S
C236 H248 0.956 . S
C236 H249 0.961 . S
C236 H250 0.961 . S
C237 C234 1.539 . S
C237 H251 0.958 . S
C237 H252 0.961 . S
C237 H253 0.960 . S
H238 C222 0.931 . S
H239 C227 0.929 . S
H240 C228 0.960 . S
H241 C228 0.962 . S
H242 C228 0.960 . S
H243 C229 0.961 . S
H244 C229 0.961 . S
H245 C229 0.961 . S
H246 C230 0.931 . S
H247 C235 0.930 . S
H248 C236 0.956 . S
H249 C236 0.961 . S
H250 C236 0.961 . S
H251 C237 0.958 . S
H252 C237 0.961 . S
H253 C237 0.960 . S
C254 C255 1.391 . S
C254 C256 1.394 . S
C254 H270 0.931 . S
C255 C254 1.391 . S
C255 C259 1.376 . S
C256 C254 1.394 . S
C256 C257 1.369 . S
C256 C260 1.531 . S
C257 C256 1.369 . S
C257 C258 1.410 . S
C257 C265 1.503 . S
C258 C257 1.410 . S
C258 C259 1.392 . S
C258 C261 1.511 . S
C259 C255 1.376 . S
C259 C258 1.392 . S
C259 H271 0.929 . S
C260 C256 1.531 . S
C260 H272 0.960 . S
C260 H273 0.962 . S
C260 H274 0.960 . S
C261 C258 1.511 . S
C261 H275 0.961 . S
C261 H276 0.961 . S
C261 H277 0.961 . S
C262 C263 1.370 . S
C262 C264 1.363 . S
C262 H278 0.931 . S
C263 C262 1.370 . S
C263 C267 1.408 1_655 S
C264 C262 1.363 . S
C264 C265 1.370 . S
C264 C268 1.524 . S
C265 C257 1.503 . S
C265 C264 1.370 . S
C265 C266 1.403 . S
C266 C265 1.403 . S
C266 C267 1.404 1_655 S
C266 C269 1.539 . S
C267 C263 1.408 1_455 S
C267 C266 1.404 1_455 S
C267 H279 0.930 . S
C268 C264 1.524 . S
C268 H280 0.956 . S
C268 H281 0.961 . S
C268 H282 0.961 . S
C269 C266 1.539 . S
C269 H283 0.958 1_655 S
C269 H284 0.961 1_655 S
C269 H285 0.960 . S
H270 C254 0.931 . S
H271 C259 0.929 . S
H272 C260 0.960 . S
H273 C260 0.962 . S
H274 C260 0.960 . S
H275 C261 0.961 . S
H276 C261 0.961 . S
H277 C261 0.961 . S
H278 C262 0.931 . S
H279 C267 0.930 . S
H280 C268 0.956 . S
H281 C268 0.961 . S
H282 C268 0.961 . S
H283 C269 0.958 1_455 S
H284 C269 0.961 1_455 S
H285 C269 0.960 . S
C286 C287 1.391 . S
C286 C288 1.394 . S
C286 H302 0.931 . S
C287 C286 1.391 . S
C287 C291 1.376 . S
C288 C286 1.394 . S
C288 C289 1.369 . S
C288 C292 1.531 . S
C289 C288 1.369 . S
C289 C290 1.410 . S
C289 C297 1.503 . S
C290 C289 1.410 . S
C290 C291 1.392 . S
C290 C293 1.511 . S
C291 C287 1.376 . S
C291 C290 1.392 . S
C291 H303 0.929 . S
C292 C288 1.531 . S
C292 H304 0.960 . S
C292 H305 0.962 . S
C292 H306 0.960 . S
C293 C290 1.511 . S
C293 H307 0.961 . S
C293 H308 0.961 . S
C293 H309 0.961 . S
C294 C295 1.370 . S
C294 C296 1.363 . S
C294 H310 0.931 . S
C295 C294 1.370 . S
C295 C299 1.408 . S
C296 C294 1.363 . S
C296 C297 1.370 . S
C296 C300 1.524 . S
C297 C289 1.503 . S
C297 C296 1.370 . S
C297 C298 1.403 . S
C298 C297 1.403 . S
C298 C299 1.404 . S
C298 C301 1.539 . S
C299 C295 1.408 . S
C299 C298 1.404 . S
C299 H311 0.930 . S
C300 C296 1.524 . S
C300 H312 0.956 . S
C300 H313 0.961 . S
C300 H314 0.961 . S
C301 C298 1.539 . S
C301 H315 0.958 . S
C301 H316 0.961 . S
C301 H317 0.960 . S
H302 C286 0.931 . S
H303 C291 0.929 . S
H304 C292 0.960 . S
H305 C292 0.962 . S
H306 C292 0.960 . S
H307 C293 0.961 . S
H308 C293 0.961 . S
H309 C293 0.961 . S
H310 C294 0.931 . S
H311 C299 0.930 . S
H312 C300 0.956 . S
H313 C300 0.961 . S
H314 C300 0.961 . S
H315 C301 0.958 . S
H316 C301 0.961 . S
H317 C301 0.960 . S
C318 C319 1.391 . S
C318 C320 1.394 . S
C318 H334 0.931 . S
C319 C318 1.391 . S
C319 C323 1.376 . S
C320 C318 1.394 . S
C320 C321 1.369 . S
C320 C324 1.531 . S
C321 C320 1.369 . S
C321 C322 1.410 . S
C321 C329 1.503 . S
C322 C321 1.410 . S
C322 C323 1.392 . S
C322 C325 1.511 . S
C323 C319 1.376 . S
C323 C322 1.392 . S
C323 H335 0.929 . S
C324 C320 1.531 . S
C324 H336 0.960 . S
C324 H337 0.962 . S
C324 H338 0.960 . S
C325 C322 1.511 . S
C325 H339 0.961 . S
C325 H340 0.961 . S
C325 H341 0.961 . S
C326 C327 1.370 . S
C326 C328 1.363 . S
C326 H342 0.931 . S
C327 C326 1.370 . S
C327 C331 1.408 . S
C328 C326 1.363 . S
C328 C329 1.370 . S
C328 C332 1.524 . S
C329 C321 1.503 . S
C329 C328 1.370 . S
C329 C330 1.403 . S
C330 C329 1.403 . S
C330 C331 1.404 . S
C330 C333 1.539 . S
C331 C327 1.408 . S
C331 C330 1.404 . S
C331 H343 0.930 . S
C332 C328 1.524 . S
C332 H344 0.956 . S
C332 H345 0.961 . S
C332 H346 0.961 . S
C333 C330 1.539 . S
C333 H347 0.958 . S
C333 H348 0.961 . S
C333 H349 0.960 . S
H334 C318 0.931 . S
H335 C323 0.929 . S
H336 C324 0.960 . S
H337 C324 0.962 . S
H338 C324 0.960 . S
H339 C325 0.961 . S
H340 C325 0.961 . S
H341 C325 0.961 . S
H342 C326 0.931 . S
H343 C331 0.930 . S
H344 C332 0.956 . S
H345 C332 0.961 . S
H346 C332 0.961 . S
H347 C333 0.958 . S
H348 C333 0.961 . S
H349 C333 0.960 . S
C350 C351 1.391 . S
C350 C352 1.394 . S
C350 H366 0.931 . S
C351 C350 1.391 . S
C351 C355 1.376 . S
C352 C350 1.394 . S
C352 C353 1.369 . S
C352 C356 1.531 1_455 S
C353 C352 1.369 . S
C353 C354 1.410 1_565 S
C353 C361 1.503 . S
C354 C353 1.410 1_545 S
C354 C355 1.392 1_545 S
C354 C357 1.511 . S
C355 C351 1.376 . S
C355 C354 1.392 1_565 S
C355 H367 0.929 1_565 S
C356 C352 1.531 1_655 S
C356 H368 0.960 1_655 S
C356 H369 0.962 . S
C356 H370 0.960 . S
C357 C354 1.511 . S
C357 H371 0.961 . S
C357 H372 0.961 . S
C357 H373 0.961 . S
C358 C359 1.370 . S
C358 C360 1.363 . S
C358 H374 0.931 . S
C359 C358 1.370 . S
C359 C363 1.408 1_545 S
C360 C358 1.363 . S
C360 C361 1.370 1_545 S
C360 C364 1.524 1_455 S
C361 C353 1.503 . S
C361 C360 1.370 1_565 S
C361 C362 1.403 . S
C362 C361 1.403 . S
C362 C363 1.404 . S
C362 C365 1.539 . S
C363 C359 1.408 1_565 S
C363 C362 1.404 . S
C363 H375 0.930 . S
C364 C360 1.524 1_655 S
C364 H376 0.956 . S
C364 H377 0.961 1_655 S
C364 H378 0.961 . S
C365 C362 1.539 . S
C365 H379 0.958 . S
C365 H380 0.961 . S
C365 H381 0.960 . S
H366 C350 0.931 . S
H367 C355 0.929 1_545 S
H368 C356 0.960 1_455 S
H369 C356 0.962 . S
H370 C356 0.960 . S
H371 C357 0.961 . S
H372 C357 0.961 . S
H373 C357 0.961 . S
H374 C358 0.931 . S
H375 C363 0.930 . S
H376 C364 0.956 . S
H377 C364 0.961 1_455 S
H378 C364 0.961 . S
H379 C365 0.958 . S
H380 C365 0.961 . S
H381 C365 0.960 . S
C382 C383 1.391 . S
C382 C384 1.394 . S
C382 H398 0.931 . S
C383 C382 1.391 . S
C383 C387 1.380 1_565 S
C384 C382 1.394 . S
C384 C385 1.369 . S
C384 C388 1.531 . S
C385 C384 1.369 . S
C385 C386 1.410 1_465 S
C385 C393 1.503 1_565 S
C386 C385 1.410 1_645 S
C386 C387 1.392 1_655 S
C386 C389 1.511 . S
C387 C383 1.380 1_545 S
C387 C386 1.392 1_455 S
C387 H399 0.925 1_455 S
C388 C384 1.531 . S
C388 H400 0.960 . S
C388 H401 0.962 . S
C388 H402 0.960 . S
C389 C386 1.511 . S
C389 H403 0.961 . S
C389 H404 0.961 . S
C389 H405 0.961 . S
C390 C391 1.370 . S
C390 C392 1.363 . S
C390 H406 0.931 . S
C391 C390 1.370 . S
C391 C395 1.408 1_445 S
C392 C390 1.363 . S
C392 C393 1.370 . S
C392 C396 1.524 . S
C393 C385 1.503 1_545 S
C393 C392 1.370 . S
C393 C394 1.403 1_445 S
C394 C393 1.403 1_665 S
C394 C395 1.404 . S
C394 C397 1.539 . S
C395 C391 1.408 1_665 S
C395 C394 1.404 . S
C395 H407 0.930 . S
C396 C392 1.524 . S
C396 H408 0.956 . S
C396 H409 0.961 . S
C396 H410 0.961 . S
C397 C394 1.539 . S
C397 H411 0.958 . S
C397 H412 0.961 . S
C397 H413 0.960 . S
H398 C382 0.931 . S
H399 C387 0.925 1_655 S
H400 C388 0.960 . S
H401 C388 0.962 . S
H402 C388 0.960 . S
H403 C389 0.961 . S
H404 C389 0.961 . S
H405 C389 0.961 . S
H406 C390 0.931 . S
H407 C395 0.930 . S
H408 C396 0.956 . S
H409 C396 0.961 . S
H410 C396 0.961 . S
H411 C397 0.958 . S
H412 C397 0.961 . S
H413 C397 0.960 . S
C414 C415 1.391 . S
C414 C416 1.394 . S
C414 H430 0.931 . S
C415 C414 1.391 . S
C415 C419 1.376 . S
C416 C414 1.394 . S
C416 C417 1.369 . S
C416 C420 1.531 . S
C417 C416 1.369 . S
C417 C418 1.410 . S
C417 C425 1.503 . S
C418 C417 1.410 . S
C418 C419 1.392 . S
C418 C421 1.511 . S
C419 C415 1.376 . S
C419 C418 1.392 . S
C419 H431 0.929 . S
C420 C416 1.531 . S
C420 H432 0.960 . S
C420 H433 0.962 . S
C420 H434 0.960 . S
C421 C418 1.511 . S
C421 H435 0.961 . S
C421 H436 0.961 . S
C421 H437 0.961 . S
C422 C423 1.370 . S
C422 C424 1.363 . S
C422 H438 0.931 . S
C423 C422 1.370 . S
C423 C427 1.408 . S
C424 C422 1.363 . S
C424 C425 1.370 . S
C424 C428 1.524 . S
C425 C417 1.503 . S
C425 C424 1.370 . S
C425 C426 1.403 . S
C426 C425 1.403 . S
C426 C427 1.404 . S
C426 C429 1.539 . S
C427 C423 1.408 . S
C427 C426 1.404 . S
C427 H439 0.930 . S
C428 C424 1.524 . S
C428 H440 0.956 . S
C428 H441 0.961 . S
C428 H442 0.961 . S
C429 C426 1.539 . S
C429 H443 0.958 . S
C429 H444 0.961 . S
C429 H445 0.960 . S
H430 C414 0.931 . S
H431 C419 0.929 . S
H432 C420 0.960 . S
H433 C420 0.962 . S
H434 C420 0.960 . S
H435 C421 0.961 . S
H436 C421 0.961 . S
H437 C421 0.961 . S
H438 C422 0.931 . S
H439 C427 0.930 . S
H440 C428 0.956 . S
H441 C428 0.961 . S
H442 C428 0.961 . S
H443 C429 0.958 . S
H444 C429 0.961 . S
H445 C429 0.960 . S
C446 C447 1.391 . S
C446 C448 1.394 . S
C446 H462 0.931 . S
C447 C446 1.391 . S
C447 C451 1.376 . S
C448 C446 1.394 . S
C448 C449 1.369 . S
C448 C452 1.531 . S
C449 C448 1.369 . S
C449 C450 1.410 . S
C449 C457 1.503 . S
C450 C449 1.410 . S
C450 C451 1.392 . S
C450 C453 1.511 . S
C451 C447 1.376 . S
C451 C450 1.392 . S
C451 H463 0.929 . S
C452 C448 1.531 . S
C452 H464 0.960 . S
C452 H465 0.962 . S
C452 H466 0.960 . S
C453 C450 1.511 . S
C453 H467 0.961 . S
C453 H468 0.961 . S
C453 H469 0.961 . S
C454 C455 1.370 . S
C454 C456 1.363 . S
C454 H470 0.931 . S
C455 C454 1.370 . S
C455 C459 1.408 . S
C456 C454 1.363 . S
C456 C457 1.370 . S
C456 C460 1.524 . S
C457 C449 1.503 . S
C457 C456 1.370 . S
C457 C458 1.403 . S
C458 C457 1.403 . S
C458 C459 1.404 . S
C458 C461 1.539 . S
C459 C455 1.408 . S
C459 C458 1.404 . S
C459 H471 0.930 . S
C460 C456 1.524 . S
C460 H472 0.956 . S
C460 H473 0.961 . S
C460 H474 0.961 . S
C461 C458 1.539 . S
C461 H475 0.958 . S
C461 H476 0.961 . S
C461 H477 0.960 . S
H462 C446 0.931 . S
H463 C451 0.929 . S
H464 C452 0.960 . S
H465 C452 0.962 . S
H466 C452 0.960 . S
H467 C453 0.961 . S
H468 C453 0.961 . S
H469 C453 0.961 . S
H470 C454 0.931 . S
H471 C459 0.930 . S
H472 C460 0.956 . S
H473 C460 0.961 . S
H474 C460 0.961 . S
H475 C461 0.958 . S
H476 C461 0.961 . S
H477 C461 0.960 . S
C103 N83 1.236 . S
C95 C3 1.051 . S
C127 C4 1.449 1_556 S
C135 N70 1.512 . S
C159 C19 1.550 . S
C167 N82 1.666 . S
C191 C7 1.216 . S
C199 N69 1.355 . S
C223 C37 1.131 . S
C231 N57 1.249 . S
C255 C28 1.409 . S
C263 N44 1.517 1_655 S
C295 N56 1.667 . S
C287 C41 1.538 . S
C327 N43 1.356 . S
C319 C25 1.196 . S
C351 C20 1.338 . S
C359 N47 1.527 . S
C383 C16 1.335 . S
C391 N60 1.479 . S
C423 N73 1.524 . S
C415 C40 1.386 . S
C447 C24 1.339 . S
C455 N86 1.479 . S
