# Generated by pormake.
# Topology zzz, (3,6)-cn, num edge types: 1
# Building blocks:
#     Node 0, Type 0, BuildingBlock: MIDCAF_clean_linker_0, # of connection points: 3
#     Node 1, Type 0, BuildingBlock: MIDCAF_clean_linker_0, # of connection points: 3
#     Node 2, Type 0, BuildingBlock: MIDCAF_clean_linker_0, # of connection points: 3
#     Node 3, Type 0, BuildingBlock: MIDCAF_clean_linker_0, # of connection points: 3
#     Node 4, Type 0, BuildingBlock: MIDCAF_clean_linker_0, # of connection points: 3
#     Node 5, Type 0, BuildingBlock: MIDCAF_clean_linker_0, # of connection points: 3
#     Node 6, Type 0, BuildingBlock: MIDCAF_clean_linker_0, # of connection points: 3
#     Node 7, Type 0, BuildingBlock: MIDCAF_clean_linker_0, # of connection points: 3
#     Node 8, Type 1, BuildingBlock: PAMTOO_clean_sbu_0, # of connection points: 6
#     Node 9, Type 1, BuildingBlock: PAMTOO_clean_sbu_0, # of connection points: 6
#     Node 10, Type 1, BuildingBlock: PAMTOO_clean_sbu_0, # of connection points: 6
#     Node 11, Type 1, BuildingBlock: PAMTOO_clean_sbu_0, # of connection points: 6
#     Edge 12, Type (0, 1), BuildingBlock: XIVTED_clean_linker_0, # of connection points: 2
#     Edge 13, Type (0, 1), BuildingBlock: XIVTED_clean_linker_0, # of connection points: 2
#     Edge 14, Type (0, 1), BuildingBlock: XIVTED_clean_linker_0, # of connection points: 2
#     Edge 15, Type (0, 1), BuildingBlock: XIVTED_clean_linker_0, # of connection points: 2
#     Edge 16, Type (0, 1), BuildingBlock: XIVTED_clean_linker_0, # of connection points: 2
#     Edge 17, Type (0, 1), BuildingBlock: XIVTED_clean_linker_0, # of connection points: 2
#     Edge 18, Type (0, 1), BuildingBlock: XIVTED_clean_linker_0, # of connection points: 2
#     Edge 19, Type (0, 1), BuildingBlock: XIVTED_clean_linker_0, # of connection points: 2
#     Edge 20, Type (0, 1), BuildingBlock: XIVTED_clean_linker_0, # of connection points: 2
#     Edge 21, Type (0, 1), BuildingBlock: XIVTED_clean_linker_0, # of connection points: 2
#     Edge 22, Type (0, 1), BuildingBlock: XIVTED_clean_linker_0, # of connection points: 2
#     Edge 23, Type (0, 1), BuildingBlock: XIVTED_clean_linker_0, # of connection points: 2
#     Edge 24, Type (0, 1), BuildingBlock: XIVTED_clean_linker_0, # of connection points: 2
#     Edge 25, Type (0, 1), BuildingBlock: XIVTED_clean_linker_0, # of connection points: 2
#     Edge 26, Type (0, 1), BuildingBlock: XIVTED_clean_linker_0, # of connection points: 2
#     Edge 27, Type (0, 1), BuildingBlock: XIVTED_clean_linker_0, # of connection points: 2
#     Edge 28, Type (0, 1), BuildingBlock: XIVTED_clean_linker_0, # of connection points: 2
#     Edge 29, Type (0, 1), BuildingBlock: XIVTED_clean_linker_0, # of connection points: 2
#     Edge 30, Type (0, 1), BuildingBlock: XIVTED_clean_linker_0, # of connection points: 2
#     Edge 31, Type (0, 1), BuildingBlock: XIVTED_clean_linker_0, # of connection points: 2
#     Edge 32, Type (0, 1), BuildingBlock: XIVTED_clean_linker_0, # of connection points: 2
#     Edge 33, Type (0, 1), BuildingBlock: XIVTED_clean_linker_0, # of connection points: 2
#     Edge 34, Type (0, 1), BuildingBlock: XIVTED_clean_linker_0, # of connection points: 2
#     Edge 35, Type (0, 1), BuildingBlock: XIVTED_clean_linker_0, # of connection points: 2
# Relax obj value: 0.351
# Max RMSD: 0.278
# Mean RMSD: 0.220
data_MOF--net-zzz--node1-PAMTOO_clean_sbu_0--node2-MIDCAF_clean_linker_0--edge1-XIVTED_clean_linker_0
_symmetry_space_group_name_H-M    P1
_symmetry_Int_Tables_number       1
_symmetry_cell_setting            triclinic
loop_
_symmetry_equiv_pos_as_xyz
'x, y, z'
_cell_length_a     64.36839
_cell_length_b     55.718565
_cell_length_c     21.031546
_cell_angle_alpha  91.21661
_cell_angle_beta   81.685241
_cell_angle_gamma 84.616294
loop_
_atom_site_label
_atom_site_type_symbol
_atom_site_fract_x
_atom_site_fract_y
_atom_site_fract_z
_atom_type_partial_charge
C0 C 0.81525 0.53887 0.57251 0.0
C1 C 0.82915 0.51773 0.55899 0.0
C2 C 0.82407 0.50023 0.51583 0.0
C3 C 0.80662 0.50472 0.48311 0.0
H4 H 0.74013 0.49046 0.37886 0.0
H5 H 0.71017 0.47852 0.32906 0.0
H6 H 0.68932 0.55367 0.30994 0.0
H7 H 0.7188 0.56527 0.35967 0.0
H8 H 0.76842 0.57214 0.23595 0.0
H9 H 0.79236 0.57651 0.13718 0.0
H10 H 0.84439 0.57647 0.24611 0.0
H11 H 0.82056 0.57296 0.34434 0.0
H12 H 0.78863 0.5607 0.54712 0.0
H13 H 0.8183 0.55256 0.60636 0.0
H14 H 0.83442 0.48381 0.50368 0.0
H15 H 0.80421 0.4919 0.44605 0.0
N16 N 0.76234 0.52765 0.43529 0.0
N17 N 0.76154 0.55186 0.34497 0.0
N18 N 0.79037 0.55082 0.40064 0.0
C19 C 0.75215 0.53648 0.38657 0.0
C20 C 0.78068 0.55901 0.35123 0.0
C21 C 0.7814 0.53545 0.44297 0.0
C22 C 0.73169 0.52879 0.37356 0.0
C23 C 0.72864 0.50431 0.3661 0.0
C24 C 0.71167 0.49752 0.33666 0.0
C25 C 0.69733 0.51511 0.31486 0.0
C26 C 0.69976 0.53956 0.32655 0.0
C27 C 0.71673 0.54626 0.35514 0.0
C28 C 0.79278 0.57094 0.29766 0.0
C29 C 0.78484 0.57403 0.23916 0.0
C30 C 0.79858 0.57649 0.18237 0.0
C31 C 0.82043 0.57574 0.18331 0.0
C32 C 0.82772 0.5768 0.24312 0.0
C33 C 0.81399 0.57451 0.29984 0.0
C34 C 0.79383 0.5267 0.49313 0.0
C35 C 0.79795 0.54337 0.53956 0.0
C36 C 0.00833 0.77012 0.50449 0.0
C37 C 0.98813 0.78267 0.5182 0.0
C38 C 0.97142 0.77372 0.49147 0.0
C39 C 0.97521 0.75377 0.44807 0.0
H40 H 0.99911 0.65154 0.34124 0.0
H41 H 0.99196 0.61547 0.2825 0.0
H42 H 0.96066 0.66062 0.15371 0.0
H43 H 0.96806 0.69646 0.21206 0.0
H44 H 0.03513 0.70381 0.14524 0.0
H45 H 0.05732 0.72216 0.05955 0.0
H46 H 0.06718 0.77831 0.19394 0.0
H47 H 0.04581 0.75967 0.27936 0.0
H48 H 0.0282 0.74239 0.4473 0.0
H49 H 0.02161 0.77658 0.52362 0.0
H50 H 0.95563 0.78287 0.5016 0.0
H51 H 0.96241 0.7483 0.42459 0.0
N52 N 0.98997 0.70917 0.35688 0.0
N53 N 0.01098 0.70361 0.25516 0.0
N54 N 0.01737 0.73363 0.32676 0.0
C55 C 0.99504 0.69704 0.29887 0.0
C56 C 0.02227 0.72187 0.26878 0.0
C57 C 1.00137 0.72753 0.37086 0.0
C58 C 0.98392 0.67662 0.28132 0.0
C59 C 0.98976 0.65361 0.30243 0.0
C60 C 0.98585 0.63303 0.26845 0.0
C61 C 0.97594 0.63525 0.21313 0.0
C62 C 0.96814 0.6583 0.19641 0.0
C63 C 0.97232 0.67883 0.22984 0.0
C64 C 0.03832 0.73051 0.21904 0.0
C65 C 0.0424 0.7198 0.15675 0.0
C66 C 0.05507 0.73036 0.1075 0.0
C67 C 0.06386 0.7519 0.11946 0.0
C68 C 0.06093 0.7616 0.18277 0.0
C69 C 0.0484 0.751 0.23192 0.0
C70 C 0.99581 0.74275 0.4302 0.0
C71 C 0.01214 0.75051 0.46066 0.0
C72 C 0.70167 0.97874 0.38226 0.0
C73 C 0.70076 0.98606 0.44714 0.0
C74 C 0.7183 0.99634 0.46562 0.0
C75 C 0.73554 0.00074 0.41962 0.0
H76 H 0.80381 0.96853 0.21768 0.0
H77 H 0.83992 0.96015 0.1599 0.0
H78 H 0.8463 0.03659 0.15671 0.0
H79 H 0.81048 0.04479 0.21334 0.0
H80 H 0.7632 0.05164 0.10294 0.0
H81 H 0.74142 0.07403 0.03372 0.0
H82 H 0.689 0.08045 0.18873 0.0
H83 H 0.71065 0.05868 0.25755 0.0
H84 H 0.71815 0.9792 0.28624 0.0
H85 H 0.68847 0.97107 0.36574 0.0
H86 H 0.7183 0.00197 0.51522 0.0
H87 H 0.74803 0.01032 0.4344 0.0
N88 N 0.77028 0.0012 0.28892 0.0
N89 N 0.77115 0.03028 0.20883 0.0
N90 N 0.73917 0.02408 0.27107 0.0
C91 C 0.78143 0.01312 0.24107 0.0
C92 C 0.75006 0.03587 0.22364 0.0
C93 C 0.74898 0.00696 0.30408 0.0
C94 C 0.80439 0.0073 0.22017 0.0
C95 C 0.81322 0.98341 0.20624 0.0
C96 C 0.83378 0.97867 0.17256 0.0
C97 C 0.84599 0.99772 0.15335 0.0
C98 C 0.8375 0.02147 0.17115 0.0
C99 C 0.81693 0.02619 0.20357 0.0
C100 C 0.73852 0.05301 0.18535 0.0
C101 C 0.74718 0.0584 0.12261 0.0
C102 C 0.7347 0.07113 0.08288 0.0
C103 C 0.71343 0.07887 0.10546 0.0
C104 C 0.70536 0.07503 0.16979 0.0
C105 C 0.71774 0.06225 0.20919 0.0
C106 C 0.73556 0.99496 0.35433 0.0
C107 C 0.71877 0.98328 0.33652 0.0
C108 C 0.47844 0.666 0.21138 0.0
C109 C 0.47845 0.66499 0.14465 0.0
C110 C 0.48338 0.68529 0.10895 0.0
C111 C 0.48948 0.70561 0.13884 0.0
H112 H 0.50809 0.77184 0.10764 0.0
H113 H 0.51557 0.80653 0.04489 0.0
H114 H 0.54261 0.83748 0.20027 0.0
H115 H 0.53473 0.80238 0.26487 0.0
H116 H 0.49266 0.74465 0.43783 0.0
H117 H 0.49625 0.71637 0.52348 0.0
H118 H 0.55774 0.68867 0.42564 0.0
H119 H 0.55416 0.71737 0.34094 0.0
H120 H 0.48498 0.68602 0.29252 0.0
H121 H 0.47433 0.65081 0.24029 0.0
H122 H 0.48366 0.68499 0.05731 0.0
H123 H 0.49412 0.72049 0.10953 0.0
N124 N 0.50531 0.74554 0.20309 0.0
N125 N 0.52157 0.75921 0.28871 0.0
N126 N 0.50604 0.72262 0.29424 0.0
C127 C 0.51571 0.76258 0.22929 0.0
C128 C 0.5165 0.73916 0.32119 0.0
C129 C 0.50038 0.72556 0.23532 0.0
C130 C 0.52082 0.78413 0.19164 0.0
C131 C 0.51568 0.78587 0.12898 0.0
C132 C 0.52015 0.8058 0.09246 0.0
C133 C 0.52995 0.82469 0.11711 0.0
C134 C 0.53502 0.82321 0.17993 0.0
C135 C 0.53057 0.80306 0.21677 0.0
C136 C 0.5232 0.73327 0.38324 0.0
C137 C 0.5075 0.73363 0.437 0.0
C138 C 0.50942 0.7171 0.48538 0.0
C139 C 0.52702 0.6998 0.48034 0.0
C140 C 0.54398 0.70173 0.43103 0.0
C141 C 0.54205 0.71836 0.38272 0.0
C142 C 0.49078 0.70597 0.205 0.0
C143 C 0.48451 0.68625 0.24121 0.0
C144 C 0.20943 0.46591 0.89585 0.0
C145 C 0.1944 0.48503 0.92066 0.0
C146 C 0.1981 0.49842 0.97483 0.0
C147 C 0.21527 0.49143 0.00685 0.0
H148 H 0.28082 0.49631 0.10828 0.0
H149 H 0.30943 0.50719 0.16592 0.0
H150 H 0.31706 0.43434 0.23098 0.0
H151 H 0.28914 0.42355 0.17367 0.0
H152 H 0.23177 0.41808 0.23489 0.0
H153 H 0.19909 0.40778 0.29484 0.0
H154 H 0.17822 0.38585 0.11797 0.0
H155 H 0.21078 0.39732 0.05761 0.0
H156 H 0.23638 0.44242 0.91191 0.0
H157 H 0.20706 0.45506 0.85464 0.0
H158 H 0.18698 0.51341 0.99483 0.0
H159 H 0.21652 0.50064 0.05184 0.0
N160 N 0.25649 0.46478 0.0585 0.0
N161 N 0.25413 0.43311 0.13106 0.0
N162 N 0.23047 0.43789 0.05716 0.0
C163 C 0.26415 0.45214 0.10681 0.0
C164 C 0.23735 0.42586 0.10637 0.0
C165 C 0.23977 0.45718 0.03286 0.0
C166 C 0.28255 0.45908 0.13638 0.0
C167 C 0.28883 0.48261 0.13423 0.0
C168 C 0.30511 0.48887 0.16769 0.0
C169 C 0.31565 0.47163 0.20311 0.0
C170 C 0.30962 0.44804 0.20363 0.0
C171 C 0.29337 0.4419 0.17099 0.0
C172 C 0.22341 0.40944 0.14147 0.0
C173 C 0.22068 0.41001 0.20891 0.0
C174 C 0.20179 0.40399 0.24347 0.0
C175 C 0.18552 0.39704 0.21096 0.0
C176 C 0.19006 0.39212 0.14427 0.0
C177 C 0.20879 0.39853 0.10966 0.0
C178 C 0.22899 0.47083 0.98559 0.0
C179 C 0.2264 0.45878 0.92831 0.0
C180 C 0.99891 0.22 0.95501 0.0
C181 C 0.01929 0.20793 0.94088 0.0
C182 C 0.03568 0.21684 0.96943 0.0
C183 C 0.03146 0.23649 0.01392 0.0
H184 H 1.00056 0.34245 0.17207 0.0
H185 H 0.01587 0.37098 0.23668 0.0
H186 H 0.06487 0.31558 0.2659 0.0
H187 H 0.0494 0.28701 0.20016 0.0
H188 H 0.96687 0.29331 0.30459 0.0
H189 H 0.94494 0.27455 0.38993 0.0
H190 H 0.933 0.22051 0.25262 0.0
H191 H 0.95397 0.23969 0.16766 0.0
H192 H 0.97857 0.24737 0.0117 0.0
H193 H 0.98581 0.21359 0.93479 0.0
H194 H 0.05161 0.20812 0.95907 0.0
H195 H 0.04409 0.24216 0.03783 0.0
N196 N 0.01744 0.28041 0.10502 0.0
N197 N 0.99281 0.29125 0.19778 0.0
N198 N 0.9865 0.26087 0.12718 0.0
C199 C 0.0111 0.29457 0.15941 0.0
C200 C 0.98046 0.2743 0.18225 0.0
C201 C 1.00474 0.26379 0.08816 0.0
C202 C 0.02401 0.31274 0.18063 0.0
C203 C 0.01513 0.33673 0.19004 0.0
C204 C 0.02391 0.35303 0.22716 0.0
C205 C 0.04154 0.34552 0.25682 0.0
C206 C 0.05123 0.32185 0.24394 0.0
C207 C 0.04257 0.3056 0.20578 0.0
C208 C 0.9628 0.26752 0.2296 0.0
C209 C 0.95901 0.27787 0.29228 0.0
C210 C 0.94651 0.26703 0.34137 0.0
C211 C 0.9377 0.24555 0.32878 0.0
C212 C 0.93948 0.23698 0.26462 0.0
C213 C 0.95179 0.24791 0.2156 0.0
C214 C 0.01074 0.2473 0.03104 0.0
C215 C 0.9947 0.23935 0.99953 0.0
C216 C 0.30634 0.99631 0.01846 0.0
C217 C 0.3168 0.01723 0.00606 0.0
C218 C 0.30649 0.0395 0.03143 0.0
C219 C 0.28731 0.04058 0.07282 0.0
H220 H 0.21153 0.97525 0.21211 0.0
H221 H 0.17568 0.96963 0.26356 0.0
H222 H 0.16398 0.04634 0.30608 0.0
H223 H 0.19951 0.05168 0.25402 0.0
H224 H 0.25076 0.0053 0.38278 0.0
H225 H 0.27317 0.00201 0.46754 0.0
H226 H 0.31746 0.04434 0.35676 0.0
H227 H 0.29519 0.04775 0.27339 0.0
H228 H 0.28044 0.98079 0.07383 0.0
H229 H 0.31383 0.97883 1.00006 0.0
H230 H 0.31384 0.05603 0.02209 0.0
H231 H 0.28077 0.05775 0.09596 0.0
N232 N 0.24267 0.01595 0.15719 0.0
N233 N 0.24017 0.02045 0.27009 0.0
N234 N 0.27226 0.0239 0.20509 0.0
C235 C 0.23092 0.01662 0.21717 0.0
C236 C 0.26082 0.02411 0.26428 0.0
C237 C 0.26355 0.01979 0.15157 0.0
C238 C 0.20807 0.01396 0.22783 0.0
C239 C 0.20089 0.99094 0.22995 0.0
C240 C 0.18048 0.98773 0.26051 0.0
C241 C 0.16689 0.0075 0.28981 0.0
C242 C 0.17376 0.0307 0.28362 0.0
C243 C 0.19413 0.03384 0.25343 0.0
C244 C 0.27146 0.02644 0.32119 0.0
C245 C 0.26498 0.01449 0.37773 0.0
C246 C 0.27783 0.0125 0.426 0.0
C247 C 0.29715 0.02274 0.41863 0.0
C248 C 0.3026 0.03643 0.36444 0.0
C249 C 0.28993 0.03819 0.31619 0.0
C250 C 0.27777 0.01949 0.08958 0.0
C251 C 0.28706 0.99742 0.06015 0.0
C252 C 0.5648 0.328 0.28422 0.0
C253 C 0.56192 0.33091 0.35146 0.0
C254 C 0.55394 0.31231 0.38899 0.0
C255 C 0.54732 0.29214 0.35982 0.0
H256 H 0.50164 0.23917 0.39406 0.0
H257 H 0.49337 0.20536 0.46102 0.0
H258 H 0.51113 0.15656 0.29518 0.0
H259 H 0.51799 0.19096 0.22757 0.0
H260 H 0.48178 0.2677 0.14206 0.0
H261 H 0.47196 0.2933 0.05556 0.0
H262 H 0.53804 0.29589 0.98282 0.0
H263 H 0.54752 0.27034 0.06801 0.0
H264 H 0.55977 0.30684 0.20311 0.0
H265 H 0.57125 0.34185 0.2541 0.0
H266 H 0.55143 0.3141 0.44099 0.0
H267 H 0.54006 0.27885 0.39016 0.0
N268 N 0.52984 0.25338 0.29533 0.0
N269 N 0.51373 0.24154 0.20738 0.0
N270 N 0.53339 0.27508 0.20135 0.0
C271 C 0.51821 0.23792 0.26816 0.0
C272 C 0.52148 0.26023 0.17386 0.0
C273 C 0.53765 0.27191 0.26186 0.0
C274 C 0.51056 0.21761 0.30583 0.0
C275 C 0.5034 0.22122 0.37185 0.0
C276 C 0.4989 0.20173 0.41034 0.0
C277 C 0.50208 0.17796 0.38422 0.0
C278 C 0.50834 0.17451 0.31728 0.0
C279 C 0.51234 0.1942 0.27838 0.0
C280 C 0.51539 0.26705 0.11136 0.0
C281 C 0.49407 0.27281 0.10549 0.0
C282 C 0.48849 0.28779 0.05658 0.0
C283 C 0.50419 0.29705 0.01271 0.0
C284 C 0.52545 0.28906 0.0151 0.0
C285 C 0.53096 0.27433 0.06399 0.0
C286 C 0.54853 0.29028 0.29261 0.0
C287 C 0.5582 0.30791 0.2551 0.0
Dy288 Dy 0.98948 0.00651 0.67663 0.0
Dy289 Dy 0.02377 0.98513 0.76685 0.0
C290 C 0.03804 0.99696 0.62056 0.0
O291 O 0.99558 0.96735 0.64794 0.0
O292 O 0.00849 0.953 0.73775 0.0
O293 O 0.97922 0.01447 0.58525 0.0
O294 O 0.95787 0.02264 0.67417 0.0
O295 O 0.99387 0.99831 0.83197 0.0
O296 O 0.97222 0.98926 0.76081 0.0
O297 O 0.02787 0.0244 0.76427 0.0
O298 O 0.99609 0.03842 0.73439 0.0
O299 O 0.03063 0.97099 0.85685 0.0
O300 O 0.05617 0.9751 0.78011 0.0
C301 C 1.00057 0.94945 0.68446 0.0
O302 O 0.02132 0.01266 0.62407 0.0
O303 O 0.03927 0.98059 0.66424 0.0
C304 C 0.95469 0.04904 0.59074 0.0
C305 C 0.94131 0.09613 0.55767 0.0
C306 C 0.96202 0.09032 0.57066 0.0
C307 C 0.96861 0.06701 0.5874 0.0
C308 C 0.93408 0.05463 0.5778 0.0
C309 C 0.92742 0.07798 0.56142 0.0
C310 C 0.96096 0.02492 0.61212 0.0
C311 C 0.97528 0.9932 0.82018 0.0
C312 C 0.01352 0.04213 0.7573 0.0
C313 C 0.05943 0.94124 0.84424 0.0
C314 C 0.07511 0.89382 0.86787 0.0
C315 C 0.05514 0.89849 0.84832 0.0
C316 C 0.04745 0.92192 0.83632 0.0
C317 C 0.07963 0.9367 0.86137 0.0
C318 C 0.08745 0.91316 0.87293 0.0
C319 C 0.05069 0.9661 0.836 0.0
H320 H 0.97326 0.10369 0.56718 0.0
H321 H 0.98453 0.06304 0.59807 0.0
H322 H 0.92305 0.04101 0.58119 0.0
H323 H 0.91131 0.08188 0.55254 0.0
H324 H 0.04498 0.88423 0.84492 0.0
H325 H 0.03185 0.92504 0.82271 0.0
H326 H 0.08918 0.9514 0.86696 0.0
H327 H 0.103 0.91019 0.88693 0.0
Dy328 Dy 0.50707 0.98042 0.69848 0.0
Dy329 Dy 0.51723 0.02082 0.80231 0.0
C330 C 0.50238 0.03619 0.67168 0.0
O331 O 0.54221 0.97577 0.68915 0.0
O332 O 0.54672 0.01317 0.7302 0.0
O333 O 0.50937 0.96604 0.60111 0.0
O334 O 0.49002 0.95018 0.67878 0.0
O335 O 0.52927 0.98602 0.84125 0.0
O336 O 0.5132 0.95932 0.78373 0.0
O337 O 0.48465 0.01188 0.84083 0.0
O338 O 0.47574 0.99822 0.7459 0.0
O339 O 0.52144 0.03434 0.89626 0.0
O340 O 0.52437 0.05749 0.81475 0.0
C341 C 0.55426 0.99303 0.69746 0.0
O342 O 0.51012 0.01489 0.64711 0.0
O343 O 0.49849 0.03995 0.73407 0.0
C344 C 0.47501 0.95892 0.5872 0.0
C345 C 0.43499 0.97202 0.55245 0.0
C346 C 0.44704 0.98966 0.57278 0.0
C347 C 0.46681 0.9832 0.58969 0.0
C348 C 0.46336 0.94115 0.56591 0.0
C349 C 0.44347 0.94767 0.54826 0.0
C350 C 0.49394 0.95268 0.61686 0.0
C351 C 0.52369 0.96435 0.83069 0.0
C352 C 0.4704 0.00576 0.80621 0.0
C353 C 0.54686 0.06241 0.89046 0.0
C354 C 0.5856 0.07785 0.91363 0.0
C355 C 0.58432 0.05382 0.89357 0.0
C356 C 0.56514 0.04622 0.88174 0.0
C357 C 0.54799 0.08636 0.91018 0.0
C358 C 0.5672 0.09404 0.92167 0.0
C359 C 0.52695 0.05494 0.87455 0.0
H360 H 0.4409 0.00848 0.57823 0.0
H361 H 0.47531 0.99716 0.60756 0.0
H362 H 0.46932 0.92228 0.56486 0.0
H363 H 0.43463 0.93367 0.53226 0.0
H364 H 0.59805 0.04074 0.88796 0.0
H365 H 0.5646 0.02771 0.8656 0.0
H366 H 0.53404 0.09917 0.91602 0.0
H367 H 0.56767 0.11272 0.93627 0.0
Dy368 Dy 0.53421 0.49744 0.77193 0.0
Dy369 Dy 0.48687 0.49716 0.7193 0.0
C370 C 0.50472 0.45464 0.80097 0.0
O371 O 0.54225 0.48572 0.66857 0.0
O372 O 0.50998 0.47425 0.649 0.0
O373 O 0.56461 0.48008 0.78799 0.0
O374 O 0.55535 0.51738 0.8184 0.0
O375 O 0.5039 0.52383 0.65967 0.0
O376 O 0.52762 0.53286 0.72679 0.0
O377 O 0.48367 0.52369 0.80173 0.0
O378 O 0.50904 0.50591 0.85598 0.0
O379 O 0.45774 0.5163 0.69887 0.0
O380 O 0.46254 0.47735 0.68864 0.0
C381 C 0.53053 0.47438 0.63379 0.0
O382 O 0.52399 0.46049 0.78404 0.0
O383 O 0.48808 0.4696 0.79532 0.0
C384 C 0.58012 0.49561 0.87496 0.0
C385 C 0.60243 0.49318 0.98207 0.0
C386 C 0.58051 0.50002 0.9904 0.0
C387 C 0.56947 0.50124 0.9374 0.0
C388 C 0.60179 0.4882 0.8667 0.0
C389 C 0.61282 0.487 0.91942 0.0
C390 C 0.56964 0.49911 0.81715 0.0
C391 C 0.51714 0.53808 0.67878 0.0
C392 C 0.49241 0.52128 0.85415 0.0
C393 C 0.43915 0.49749 0.62447 0.0
C394 C 0.41594 0.49628 0.5196 0.0
C395 C 0.43748 0.48749 0.51201 0.0
C396 C 0.44897 0.48809 0.5639 0.0
C397 C 0.41789 0.50674 0.63183 0.0
C398 C 0.40642 0.50616 0.58019 0.0
C399 C 0.45012 0.49669 0.68173 0.0
H400 H 0.57187 0.5046 0.03785 0.0
H401 H 0.55272 0.50702 0.94509 0.0
H402 H 0.61038 0.48397 0.81895 0.0
H403 H 0.62968 0.48204 0.91057 0.0
H404 H 0.44548 0.48005 0.46599 0.0
H405 H 0.4654 0.48089 0.55696 0.0
H406 H 0.40995 0.51396 0.6782 0.0
H407 H 0.38986 0.51276 0.58852 0.0
Dy408 Dy 0.02017 0.51419 0.68125 0.0
Dy409 Dy 0.00785 0.46971 0.77153 0.0
C410 C 0.03011 0.45929 0.62897 0.0
O411 O 0.98481 0.51725 0.69663 0.0
O412 O 0.9819 0.47724 0.7119 0.0
O413 O 0.01504 0.53457 0.5977 0.0
O414 O 0.03937 0.54316 0.65278 0.0
O415 O 0.99148 0.50342 0.823 0.0
O416 O 0.01441 0.52996 0.78119 0.0
O417 O 0.03841 0.47981 0.79827 0.0
O418 O 0.05091 0.49637 0.70353 0.0
O419 O 1.005 0.45375 0.86467 0.0
O420 O 0.99462 0.43554 0.78485 0.0
C421 C 0.97374 0.49858 0.69753 0.0
O422 O 0.02251 0.48119 0.6177 0.0
O423 O 0.02971 0.45196 0.68799 0.0
C424 C 0.04889 0.53641 0.5403 0.0
C425 C 0.07474 0.50318 0.45367 0.0
C426 C 0.05505 0.5128 0.43946 0.0
C427 C 0.04224 0.52938 0.48238 0.0
C428 C 0.06978 0.52936 0.54951 0.0
C429 C 0.08252 0.51278 0.50678 0.0
C430 C 0.03287 0.54402 0.59671 0.0
C431 C 1.00006 0.52375 0.82711 0.0
C432 C 0.05397 0.4877 0.75941 0.0
C433 C 0.97108 0.44119 0.88256 0.0
C434 C 0.93319 0.46685 0.94083 0.0
C435 C 0.93516 0.45804 0.87704 0.0
C436 C 0.95392 0.44525 0.84816 0.0
C437 C 0.96801 0.44718 0.94866 0.0
C438 C 0.94924 0.46005 0.97751 0.0
C439 C 0.99278 0.43816 0.84734 0.0
H440 H 0.04876 0.50595 0.39834 0.0
H441 H 0.02631 0.53467 0.47355 0.0
H442 H 0.07565 0.53471 0.5929 0.0
H443 H 0.09799 0.50634 0.51755 0.0
H444 H 0.92301 0.46286 0.84763 0.0
H445 H 0.95563 0.44076 0.7972 0.0
H446 H 0.9809 0.44417 0.97638 0.0
H447 H 0.94786 0.4661 0.02737 0.0
H448 H 0.15886 0.97121 0.37391 0.0
H449 H 0.04268 0.02935 0.52337 0.0
H450 H 0.12874 0.03584 0.304 0.0
H451 H 0.07448 0.96636 0.59601 0.0
H452 H 0.07298 0.03081 0.43874 0.0
H453 H 0.12699 0.96764 0.45007 0.0
C454 C 0.14546 0.98448 0.37368 0.0
C455 C 0.14665 0.00388 0.33206 0.0
C456 C 0.07329 0.01662 0.47307 0.0
C457 C 0.10996 0.00012 0.42085 0.0
C458 C 0.05596 0.01576 0.52148 0.0
C459 C 0.05596 0.99774 0.56726 0.0
C460 C 0.09081 0.99932 0.47012 0.0
C461 C 0.0737 0.98064 0.5621 0.0
C462 C 0.12726 0.98254 0.41783 0.0
C463 C 0.12875 0.02073 0.33547 0.0
N464 N 0.09034 0.98189 0.5147 0.0
N465 N 0.11125 0.01851 0.37911 0.0
H466 H 0.51135 0.17471 0.50748 0.0
H467 H 0.5012 0.03476 0.54151 0.0
H468 H 0.48914 0.13292 0.36001 0.0
H469 H 0.49721 0.08431 0.70438 0.0
H470 H 0.49926 0.06927 0.47113 0.0
H471 H 0.50885 0.14069 0.57728 0.0
C472 C 0.50561 0.15857 0.48978 0.0
C473 C 0.5002 0.15703 0.42746 0.0
C474 C 0.49862 0.07251 0.52235 0.0
C475 C 0.49804 0.11736 0.50747 0.0
C476 C 0.49979 0.05286 0.56251 0.0
C477 C 0.49947 0.05665 0.62893 0.0
C478 C 0.4975 0.09605 0.54871 0.0
C479 C 0.4975 0.08049 0.65355 0.0
C480 C 0.50436 0.13901 0.52982 0.0
C481 C 0.49369 0.13504 0.40719 0.0
N482 N 0.49683 0.09924 0.6134 0.0
N483 N 0.49291 0.11603 0.44692 0.0
H484 H 0.3166 0.51261 0.27836 0.0
H485 H 0.41829 0.45935 0.42886 0.0
H486 H 0.35279 0.44491 0.21647 0.0
H487 H 0.38409 0.52849 0.48755 0.0
H488 H 0.39576 0.45517 0.34617 0.0
H489 H 0.34235 0.52023 0.34989 0.0
C490 C 0.33009 0.49949 0.27905 0.0
C491 C 0.33234 0.47795 0.24157 0.0
C492 C 0.39323 0.47134 0.37687 0.0
C493 C 0.36181 0.48644 0.32427 0.0
C494 C 0.40624 0.47383 0.42401 0.0
C495 C 0.40315 0.49428 0.46587 0.0
C496 C 0.37685 0.48937 0.3712 0.0
C497 C 0.38692 0.51219 0.4574 0.0
C498 C 0.34473 0.50378 0.32032 0.0
C499 C 0.35011 0.46155 0.24522 0.0
N500 N 0.37437 0.50927 0.41141 0.0
N501 N 0.36401 0.46606 0.28596 0.0
H502 H 0.05075 0.33314 0.37572 0.0
H503 H 0.03882 0.47034 0.50281 0.0
H504 H 0.04552 0.39419 0.25427 0.0
H505 H 0.03921 0.40991 0.62772 0.0
H506 H 0.04801 0.44254 0.40992 0.0
H507 H 0.05358 0.36057 0.46568 0.0
C508 C 0.05074 0.35227 0.36748 0.0
C509 C 0.04766 0.3614 0.30742 0.0
C510 C 0.04623 0.4353 0.45758 0.0
C511 C 0.05046 0.39296 0.41073 0.0
C512 C 0.04096 0.4512 0.51079 0.0
C513 C 0.03788 0.44245 0.57326 0.0
C514 C 0.04822 0.41035 0.46654 0.0
C515 C 0.04122 0.41745 0.58047 0.0
C516 C 0.05216 0.36795 0.41911 0.0
C517 C 0.04751 0.38639 0.29996 0.0
N518 N 0.04593 0.40225 0.5277 0.0
N519 N 0.04863 0.4013 0.35112 0.0
H520 H 0.856 0.96762 0.0462 0.0
H521 H 0.97226 0.00871 0.94683 0.0
H522 H 0.88285 0.01839 0.16054 0.0
H523 H 0.93773 0.97446 0.81503 0.0
H524 H 0.94197 0.00747 0.03199 0.0
H525 H 0.88837 0.96449 0.96823 0.0
C526 C 0.86884 0.97779 0.05555 0.0
C527 C 0.86662 0.99335 0.11005 0.0
C528 C 0.94109 0.00015 0.98445 0.0
C529 C 0.90376 0.99005 0.02032 0.0
C530 C 0.95839 0.00081 0.93583 0.0
C531 C 0.95754 0.99181 0.87345 0.0
C532 C 0.92288 0.99015 0.97089 0.0
C533 C 0.9391 0.98178 0.86216 0.0
C534 C 0.88726 0.97618 0.01064 0.0
C535 C 0.88376 0.00635 0.11894 0.0
N536 N 0.92258 0.98121 0.91025 0.0
N537 N 0.90154 0.00446 0.07456 0.0
H538 H 0.54524 0.82452 0.98886 0.0
H539 H 0.53071 0.96778 0.95649 0.0
H540 H 0.52456 0.87307 0.15314 0.0
H541 H 0.52837 0.91605 0.80269 0.0
H542 H 0.53609 0.93423 0.02851 0.0
H543 H 0.54724 0.85904 0.91975 0.0
C544 C 0.54121 0.84247 0.01052 0.0
C545 C 0.53427 0.84584 0.07683 0.0
C546 C 0.53457 0.93033 0.97883 0.0
C547 C 0.53676 0.88558 0.99768 0.0
C548 C 0.5316 0.94941 0.93769 0.0
C549 C 0.52892 0.94468 0.87366 0.0
C550 C 0.53524 0.90644 0.95527 0.0
C551 C 0.53013 0.92055 0.85185 0.0
C552 C 0.54241 0.86218 0.97098 0.0
C553 C 0.5299 0.86961 0.1023 0.0
N554 N 0.53319 0.90238 0.8925 0.0
N555 N 0.53101 0.88861 0.06256 0.0
H556 H 0.65669 0.5361 0.31725 0.0
H557 H 0.63627 0.46192 0.00471 0.0
H558 H 0.70089 0.47932 0.22028 0.0
H559 H 0.59684 0.52523 0.08636 0.0
H560 H 0.65787 0.46488 0.09054 0.0
H561 H 0.63237 0.52892 0.24133 0.0
C562 C 0.66127 0.522 0.28029 0.0
C563 C 0.68107 0.50848 0.27507 0.0
C564 C 0.64442 0.47804 0.0899 0.0
C565 C 0.65307 0.50008 0.18761 0.0
C566 C 0.63209 0.47645 0.04059 0.0
C567 C 0.61469 0.49348 0.03751 0.0
C568 C 0.6394 0.49676 0.137 0.0
C569 C 0.60991 0.51153 0.08664 0.0
C570 C 0.64732 0.51789 0.23692 0.0
C571 C 0.68581 0.49012 0.22674 0.0
N572 N 0.62222 0.51276 0.13392 0.0
N573 N 0.67203 0.48661 0.1847 0.0
H574 H 0.01074 0.60486 0.16912 0.0
H575 H 0.96332 0.52773 0.91353 0.0
H576 H 0.94515 0.61963 0.14781 0.0
H577 H 0.02461 0.55433 0.8762 0.0
H578 H 0.95576 0.55269 0.01405 0.0
H579 H 0.01541 0.57599 0.07804 0.0
C580 C 0.99716 0.60155 0.1464 0.0
C581 C 0.9775 0.61465 0.16615 0.0
C582 C 0.9708 0.55299 0.98351 0.0
C583 C 0.98286 0.58179 0.06143 0.0
C584 C 0.97513 0.53883 0.92641 0.0
C585 C 0.99456 0.53917 0.88632 0.0
C586 C 0.98629 0.56686 1.00121 0.0
C587 C 0.00935 0.55374 0.90525 0.0
C588 C 0.99992 0.58529 0.09399 0.0
C589 C 0.96057 0.60993 0.13388 0.0
N590 N 1.00499 0.5668 0.96159 0.0
N591 N 0.96363 0.59386 0.08284 0.0
H592 H 0.95342 0.23883 0.44218 0.0
H593 H 0.91595 0.1092 0.46726 0.0
H594 H 0.90578 0.21536 0.33635 0.0
H595 H 0.95111 0.13947 0.60414 0.0
H596 H 0.9082 0.14945 0.42828 0.0
H597 H 0.94837 0.20542 0.51293 0.0
C598 C 0.9414 0.22714 0.43475 0.0
C599 C 0.93038 0.22971 0.38188 0.0
C600 C 0.91734 0.14736 0.46753 0.0
C601 C 0.92514 0.19063 0.46188 0.0
C602 C 0.92175 0.12434 0.48998 0.0
C603 C 0.93454 0.12081 0.53838 0.0
C604 C 0.92599 0.16701 0.49304 0.0
C605 C 0.94172 0.14118 0.56546 0.0
C606 C 0.93869 0.20781 0.47505 0.0
C607 C 0.91517 0.21367 0.37504 0.0
N608 N 0.93761 0.16333 0.54179 0.0
N609 N 0.91336 0.19448 0.41357 0.0
H610 H 0.30779 0.97852 0.46555 0.0
H611 H 0.42146 0.0125 0.49297 0.0
H612 H 0.32362 0.05211 0.46569 0.0
H613 H 0.39923 0.94834 0.58014 0.0
H614 H 0.38557 0.02612 0.47818 0.0
H615 H 0.34026 0.96619 0.50876 0.0
C616 C 0.31774 0.99222 0.47651 0.0
C617 C 0.3132 0.01635 0.46085 0.0
C618 C 0.3885 0.00914 0.50103 0.0
C619 C 0.35058 0.00218 0.50807 0.0
C620 C 0.40902 0.0013 0.50941 0.0
C621 C 0.41341 0.97931 0.5384 0.0
C622 C 0.37219 0.99472 0.5205 0.0
C623 C 0.39664 0.96528 0.55693 0.0
C624 C 0.33637 0.9851 0.50061 0.0
C625 C 0.32679 0.03324 0.47554 0.0
N626 N 0.37673 0.97318 0.54733 0.0
N627 N 0.3451 0.02576 0.49708 0.0
H628 H 0.57978 0.34016 0.45966 0.0
H629 H 0.51599 0.4664 0.52104 0.0
H630 H 0.54853 0.37545 0.31376 0.0
H631 H 0.56791 0.4461 0.6237 0.0
H632 H 0.5292 0.43408 0.4411 0.0
H633 H 0.57739 0.37907 0.51844 0.0
C634 C 0.57277 0.35615 0.43949 0.0
C635 C 0.5642 0.35455 0.38204 0.0
C636 C 0.53801 0.43699 0.48026 0.0
C637 C 0.56123 0.39887 0.44901 0.0
C638 C 0.53046 0.45542 0.52581 0.0
C639 C 0.54087 0.45877 0.57887 0.0
C640 C 0.55572 0.42135 0.48899 0.0
C641 C 0.55952 0.44409 0.58314 0.0
C642 C 0.57151 0.37834 0.47279 0.0
C643 C 0.55544 0.37585 0.35769 0.0
N644 N 0.56612 0.42559 0.5395 0.0
N645 N 0.55384 0.39702 0.39187 0.0
H646 H 0.15125 0.41596 0.15861 0.0
H647 H 0.0933 0.46294 0.50206 0.0
H648 H 0.16876 0.38931 0.33685 0.0
H649 H 0.08167 0.49412 0.32297 0.0
H650 H 0.11447 0.42891 0.44209 0.0
H651 H 0.1188 0.43563 0.21736 0.0
C652 C 0.14805 0.41344 0.20986 0.0
C653 C 0.16323 0.40142 0.24293 0.0
C654 C 0.10715 0.44307 0.41588 0.0
C655 C 0.12616 0.42495 0.3109 0.0
C656 C 0.09529 0.46265 0.45 0.0
C657 C 0.08633 0.48178 0.41727 0.0
C658 C 0.1102 0.44265 0.34846 0.0
C659 C 0.08859 0.47995 0.35003 0.0
C660 C 0.12951 0.42506 0.24357 0.0
C661 C 0.15791 0.39906 0.30952 0.0
N662 N 0.10059 0.46091 0.31778 0.0
N663 N 0.14004 0.41125 0.34157 0.0
H664 H 0.05196 0.75735 1.00011 0.0
H665 H 0.09673 0.88197 0.96797 0.0
H666 H 0.09742 0.77938 0.11631 0.0
H667 H 0.06872 0.84965 0.81655 0.0
H668 H 0.10147 0.8426 0.01437 0.0
H669 H 0.06202 0.78784 0.92377 0.0
C670 C 0.06449 0.7681 0.00886 0.0
C671 C 0.07348 0.7661 0.06577 0.0
C672 C 0.09466 0.844 0.97027 0.0
C673 C 0.0846 0.80171 0.97911 0.0
C674 C 0.09203 0.86654 0.9434 0.0
C675 C 0.08186 0.86934 0.88889 0.0
C676 C 0.08673 0.82415 0.94318 0.0
C677 C 0.07599 0.84856 0.85982 0.0
C678 C 0.07014 0.78569 0.96524 0.0
C679 C 0.08954 0.78079 0.07425 0.0
N680 N 0.0781 0.82694 0.88807 0.0
N681 N 0.09424 0.79834 0.03219 0.0
H682 H 0.71212 0.06203 0.98302 0.0
H683 H 0.59187 0.10832 0.0118 0.0
H684 H 0.68076 0.11495 0.12664 0.0
H685 H 0.62564 0.06494 0.85019 0.0
H686 H 0.6254 0.11647 0.04418 0.0
H687 H 0.68268 0.06874 0.92267 0.0
C688 C 0.69935 0.07561 1.00101 0.0
C689 C 0.6987 0.08755 0.06083 0.0
C690 C 0.62552 0.10545 1.00106 0.0
C691 C 0.66458 0.09475 0.99282 0.0
C692 C 0.60632 0.10086 0.98233 0.0
C693 C 0.60587 0.08552 0.92882 0.0
C694 C 0.64444 0.0944 0.96657 0.0
C695 C 0.62519 0.07626 0.89292 0.0
C696 C 0.6824 0.07928 0.9667 0.0
C697 C 0.68162 0.10483 0.08168 0.0
N698 N 0.64367 0.08053 0.91302 0.0
N699 N 0.66503 0.10754 0.04842 0.0
H700 H 0.45565 0.65831 0.04597 0.0
H701 H 0.5074 0.52377 0.96956 0.0
H702 H 0.49481 0.61954 0.16747 0.0
H703 H 0.46161 0.55902 0.86228 0.0
H704 H 0.49984 0.55695 0.04965 0.0
H705 H 0.45474 0.62081 0.98421 0.0
C706 C 0.46388 0.64186 0.05999 0.0
C707 C 0.47543 0.64208 0.11162 0.0
C708 C 0.49122 0.55726 0.00906 0.0
C709 C 0.47454 0.59916 0.04124 0.0
C710 C 0.49551 0.53827 0.96332 0.0
C711 C 0.48537 0.53877 0.90857 0.0
C712 C 0.47684 0.57699 0.99964 0.0
C713 C 0.47001 0.55798 0.90333 0.0
C714 C 0.46328 0.62044 0.02498 0.0
C715 C 0.48558 0.62019 0.12829 0.0
N716 N 0.46645 0.57649 0.94776 0.0
N717 N 0.48512 0.59969 0.09273 0.0
H718 H 0.86049 0.58905 0.14509 0.0
H719 H 0.89116 0.46797 0.92915 0.0
H720 H 0.81537 0.54283 0.08998 0.0
H721 H 0.93607 0.5087 0.00703 0.0
H722 H 0.86324 0.49986 0.96884 0.0
H723 H 0.88829 0.5652 0.07249 0.0
C724 C 0.85631 0.57431 0.11662 0.0
C725 C 0.83561 0.56761 0.12509 0.0
C726 C 0.87923 0.50185 0.977 0.0
C727 C 0.86731 0.54018 0.04248 0.0
C728 C 0.89512 0.48362 0.9546 0.0
C729 C 0.91585 0.48545 0.96609 0.0
C730 C 0.88413 0.52209 0.01088 0.0
C731 C 0.92017 0.50622 0.99882 0.0
C732 C 0.8722 0.56063 0.07539 0.0
C733 C 0.83105 0.5487 0.0856 0.0
N734 N 0.90443 0.52365 0.02039 0.0
N735 N 0.84684 0.53535 0.04705 0.0
H736 H 1.00215 0.19663 0.8328 0.0
H737 H 0.04351 0.05634 0.82664 0.0
H738 H 0.04344 0.16619 0.96103 0.0
H739 H 0.99134 0.08474 0.73363 0.0
H740 H 0.04789 0.0973 0.86294 0.0
H741 H 1.00263 0.15669 0.78206 0.0
C742 C 0.01149 0.18161 0.84997 0.0
C743 C 0.02255 0.18482 0.90199 0.0
C744 C 0.03555 0.09456 0.83436 0.0
C745 C 0.02323 0.13894 0.84365 0.0
C746 C 0.03304 0.07117 0.81349 0.0
C747 C 0.0169 0.067 0.7774 0.0
C748 C 0.02196 0.11403 0.81864 0.0
C749 C 1.00386 0.08701 0.76185 0.0
C750 C 0.01174 0.15879 0.8209 0.0
C751 C 0.03474 0.16471 0.921 0.0
N752 N 1.00665 0.10961 0.78263 0.0
N753 N 0.0346 0.14261 0.89225 0.0
H754 H 0.33564 0.9898 0.89801 0.0
H755 H 0.45191 0.02676 0.92277 0.0
H756 H 0.3493 0.04074 0.03996 0.0
H757 H 0.43688 0.98943 0.75592 0.0
H758 H 0.41466 0.02968 0.96952 0.0
H759 H 0.37284 0.98704 0.84832 0.0
C760 C 0.3464 0.00043 0.91867 0.0
C761 C 0.33917 0.0157 0.97302 0.0
C762 C 0.41948 0.02088 0.92261 0.0
C763 C 0.38188 0.01246 0.91667 0.0
C764 C 0.44082 0.01916 0.89587 0.0
C765 C 0.44767 0.00785 0.83514 0.0
C766 C 0.40474 0.01103 0.8889 0.0
C767 C 0.4324 0.99837 0.80276 0.0
C768 C 0.36764 0.99891 0.89015 0.0
C769 C 0.35394 0.02906 0.99751 0.0
N770 N 0.41174 8e-05 0.83008 0.0
N771 N 0.37449 0.02704 0.96947 0.0
H772 H 0.47447 0.33598 0.04192 0.0
H773 H 0.53273 0.41468 0.77846 0.0
H774 H 0.52263 0.30551 0.88978 0.0
H775 H 0.47071 0.43889 0.87845 0.0
H776 H 0.52918 0.37469 0.82089 0.0
H777 H 0.47173 0.37332 0.98346 0.0
C778 C 0.4841 0.33683 0.99549 0.0
C779 C 0.49905 0.31755 0.97131 0.0
C780 C 0.51625 0.38865 0.83325 0.0
C781 C 0.49639 0.36065 0.90519 0.0
C782 C 0.51833 0.41158 0.80946 0.0
C783 C 0.50206 0.43023 0.82546 0.0
C784 C 0.49791 0.38431 0.87447 0.0
C785 C 0.48365 0.42503 0.86509 0.0
C786 C 0.48263 0.3583 0.9624 0.0
C787 C 0.51125 0.32002 0.9112 0.0
N788 N 0.48217 0.4026 0.88903 0.0
N789 N 0.50991 0.34128 0.88084 0.0
H790 H 0.15481 0.49271 0.98986 0.0
H791 H 0.09201 0.49509 0.68713 0.0
H792 H 0.18675 0.48467 0.79454 0.0
H793 H 0.06419 0.48073 0.88011 0.0
H794 H 0.12632 0.49619 0.72483 0.0
H795 H 0.12096 0.49419 0.94978 0.0
C796 C 0.15474 0.49169 0.93841 0.0
C797 C 0.17377 0.48866 0.89559 0.0
C798 C 0.11269 0.49275 0.75878 0.0
C799 C 0.13481 0.48996 0.84919 0.0
C800 C 0.09309 0.49212 0.73733 0.0
C801 C 0.07513 0.48768 0.78039 0.0
C802 C 0.11432 0.48931 0.82398 0.0
C803 C 0.07755 0.48403 0.84495 0.0
C804 C 0.13536 0.49225 0.91557 0.0
C805 C 0.17253 0.48691 0.8294 0.0
N806 N 0.09668 0.48505 0.86472 0.0
N807 N 0.15342 0.48761 0.80824 0.0
H808 H 0.96627 0.82431 0.48761 0.0
H809 H 0.0118 0.90705 0.74066 0.0
H810 H 1.00462 0.79585 0.62598 0.0
H811 H 0.98062 0.93502 0.58539 0.0
H812 H 1.00578 0.86626 0.70776 0.0
H813 H 0.96707 0.86485 0.53312 0.0
C814 C 0.97447 0.8265 0.52852 0.0
C815 C 0.98547 0.8066 0.5528 0.0
C816 C 1.0002 0.88133 0.68102 0.0
C817 C 0.98687 0.85315 0.60427 0.0
C818 C 1.00364 0.90467 0.69975 0.0
C819 C 0.99683 0.92458 0.66554 0.0
C820 C 0.98977 0.8778 0.62783 0.0
C821 C 0.98629 0.92028 0.61301 0.0
C822 C 0.97514 0.84972 0.55401 0.0
C823 C 0.99614 0.81068 0.60521 0.0
N824 N 0.98313 0.89739 0.59575 0.0
N825 N 0.99669 0.83349 0.62887 0.0
H826 H 0.68216 0.01982 0.54066 0.0
H827 H 0.57556 0.95525 0.62084 0.0
H828 H 0.67318 0.95074 0.4576 0.0
H829 H 0.58451 0.02453 0.70291 0.0
H830 H 0.61197 0.95209 0.56619 0.0
H831 H 0.64758 0.02036 0.60656 0.0
C832 C 0.67313 0.00454 0.53694 0.0
C833 C 0.68075 0.98521 0.49306 0.0
C834 C 0.60601 0.96795 0.59636 0.0
C835 C 0.64066 0.986 0.56798 0.0
C836 C 0.58516 0.96978 0.62772 0.0
C837 C 0.57677 0.99027 0.66647 0.0
C838 C 0.61872 0.98674 0.60355 0.0
C839 C 0.59014 0.00844 0.67339 0.0
C840 C 0.65322 0.00499 0.57429 0.0
C841 C 0.66796 0.96619 0.48991 0.0
N842 N 0.61035 0.00628 0.64212 0.0
N843 N 0.64858 0.96713 0.52645 0.0
H844 H 0.55798 0.67467 0.53804 0.0
H845 H 0.49214 0.56055 0.59858 0.0
H846 H 0.49359 0.67313 0.50391 0.0
H847 H 0.54712 0.5694 0.68927 0.0
H848 H 0.49469 0.60041 0.55397 0.0
H849 H 0.55621 0.63501 0.58665 0.0
C850 C 0.54342 0.66616 0.54147 0.0
C851 C 0.52584 0.6774 0.51748 0.0
C852 C 0.50621 0.59364 0.58361 0.0
C853 C 0.52387 0.63195 0.57155 0.0
C854 C 0.50486 0.57077 0.60875 0.0
C855 C 0.51941 0.56157 0.64789 0.0
C856 C 0.52237 0.60741 0.59699 0.0
C857 C 0.53549 0.57579 0.65957 0.0
C858 C 0.54243 0.64355 0.5691 0.0
C859 C 0.50741 0.66546 0.52287 0.0
N860 N 0.53658 0.59798 0.63412 0.0
N861 N 0.50698 0.64338 0.54877 0.0
H862 H 0.85531 0.55287 0.57569 0.0
H863 H 0.9461 0.46393 0.69525 0.0
H864 H 0.85063 0.47672 0.59951 0.0
H865 H 0.95133 0.53943 0.66199 0.0
H866 H 0.91063 0.46847 0.66544 0.0
H867 H 0.88957 0.54849 0.61275 0.0
C868 C 0.86129 0.53523 0.58955 0.0
C869 C 0.84978 0.51517 0.58474 0.0
C870 C 0.91951 0.48406 0.66471 0.0
C871 C 0.88963 0.50995 0.62635 0.0
C872 C 0.93983 0.4815 0.68179 0.0
C873 C 0.95189 0.50131 0.68096 0.0
C874 C 0.91104 0.50662 0.6466 0.0
C875 C 0.94274 0.52361 0.66324 0.0
C876 C 0.88105 0.53272 0.61022 0.0
C877 C 0.85886 0.4927 0.6019 0.0
N878 N 0.92295 0.52563 0.64671 0.0
N879 N 0.87819 0.49072 0.62187 0.0
loop_
_geom_bond_atom_site_label_1
_geom_bond_atom_site_label_2
_geom_bond_distance
_geom_bond_site_symmetry_2
_ccdc_geom_bond_type
C0 C1 1.384 . S
C0 H13 0.947 . S
C0 C35 1.382 . S
C1 C0 1.384 . S
C1 C2 1.378 . S
C2 C1 1.378 . S
C2 C3 1.378 . S
C2 H14 0.952 . S
C3 C2 1.378 . S
C3 H15 0.950 . S
C3 C34 1.383 . S
H4 C23 0.947 . S
H5 C24 0.946 . S
H6 C26 0.953 . S
H7 C27 0.945 . S
H8 C29 0.952 . S
H9 C30 0.949 . S
H10 C32 0.950 . S
H11 C33 0.948 . S
H12 C35 0.951 . S
H13 C0 0.947 . S
H14 C2 0.952 . S
H15 C3 0.950 . S
N16 C19 1.382 . S
N16 C21 1.363 . S
N17 C19 1.371 . S
N17 C20 1.372 . S
N18 C20 1.361 . S
N18 C21 1.377 . S
C19 N16 1.382 . S
C19 N17 1.371 . S
C19 C22 1.480 . S
C20 N17 1.372 . S
C20 N18 1.361 . S
C20 C28 1.457 . S
C21 N16 1.363 . S
C21 N18 1.377 . S
C21 C34 1.479 . S
C22 C19 1.480 . S
C22 C23 1.383 . S
C22 C27 1.385 . S
C23 H4 0.947 . S
C23 C22 1.383 . S
C23 C24 1.388 . S
C24 H5 0.946 . S
C24 C23 1.388 . S
C24 C25 1.384 . S
C25 C24 1.384 . S
C25 C26 1.377 . S
C26 H6 0.953 . S
C26 C25 1.377 . S
C26 C27 1.369 . S
C27 H7 0.945 . S
C27 C22 1.385 . S
C27 C26 1.369 . S
C28 C20 1.457 . S
C28 C29 1.372 . S
C28 C33 1.364 . S
C29 H8 0.952 . S
C29 C28 1.372 . S
C29 C30 1.389 . S
C30 H9 0.949 . S
C30 C29 1.389 . S
C30 C31 1.387 . S
C31 C30 1.387 . S
C31 C32 1.372 . S
C32 H10 0.950 . S
C32 C31 1.372 . S
C32 C33 1.379 . S
C33 H11 0.948 . S
C33 C28 1.364 . S
C33 C32 1.379 . S
C34 C3 1.383 . S
C34 C21 1.479 . S
C34 C35 1.398 . S
C35 C0 1.382 . S
C35 H12 0.951 . S
C35 C34 1.398 . S
C36 C37 1.384 . S
C36 H49 0.947 . S
C36 C71 1.382 . S
C37 C36 1.384 . S
C37 C38 1.378 . S
C38 C37 1.378 . S
C38 C39 1.374 . S
C38 H50 0.952 . S
C39 C38 1.374 . S
C39 H51 0.948 1_655 S
C39 C70 1.391 . S
H40 C59 0.947 . S
H41 C60 0.946 . S
H42 C62 0.953 . S
H43 C63 0.942 1_455 S
H44 C65 0.952 . S
H45 C66 0.949 . S
H46 C68 0.947 1_455 S
H47 C69 0.951 . S
H48 C71 0.951 . S
H49 C36 0.947 . S
H50 C38 0.952 . S
H51 C39 0.948 1_455 S
N52 C55 1.382 . S
N52 C57 1.363 . S
N53 C55 1.371 . S
N53 C56 1.383 . S
N54 C56 1.357 . S
N54 C57 1.377 . S
C55 N52 1.382 . S
C55 N53 1.371 . S
C55 C58 1.480 . S
C56 N53 1.383 . S
C56 N54 1.357 . S
C56 C64 1.460 . S
C57 N52 1.363 . S
C57 N54 1.377 . S
C57 C70 1.479 . S
C58 C55 1.480 . S
C58 C59 1.383 . S
C58 C63 1.383 . S
C59 H40 0.947 . S
C59 C58 1.383 . S
C59 C60 1.388 . S
C60 H41 0.946 . S
C60 C59 1.388 . S
C60 C61 1.384 . S
C61 C60 1.384 . S
C61 C62 1.377 . S
C62 H42 0.953 . S
C62 C61 1.377 . S
C62 C63 1.375 . S
C63 H43 0.942 1_655 S
C63 C58 1.383 . S
C63 C62 1.375 . S
C64 C56 1.460 . S
C64 C65 1.372 . S
C64 C69 1.362 1_655 S
C65 H44 0.952 . S
C65 C64 1.372 . S
C65 C66 1.389 . S
C66 H45 0.949 . S
C66 C65 1.389 . S
C66 C67 1.387 . S
C67 C66 1.387 . S
C67 C68 1.372 . S
C68 H46 0.947 1_655 S
C68 C67 1.372 . S
C68 C69 1.378 1_655 S
C69 H47 0.951 . S
C69 C64 1.362 1_455 S
C69 C68 1.378 1_455 S
C70 C39 1.391 . S
C70 C57 1.479 . S
C70 C71 1.398 . S
C71 C36 1.382 . S
C71 H48 0.951 . S
C71 C70 1.398 . S
C72 C73 1.383 1_565 S
C72 H85 0.948 . S
C72 C107 1.381 1_565 S
C73 C72 1.383 1_545 S
C73 C74 1.378 . S
C74 C73 1.378 . S
C74 C75 1.378 . S
C74 H86 0.952 . S
C75 C74 1.378 . S
C75 H87 0.950 . S
C75 C106 1.383 . S
H76 C95 0.947 . S
H77 C96 0.951 . S
H78 C98 0.953 . S
H79 C99 0.945 . S
H80 C101 0.951 1_565 S
H81 C102 0.954 . S
H82 C104 0.950 . S
H83 C105 0.948 . S
H84 C107 0.951 1_565 S
H85 C72 0.948 . S
H86 C74 0.952 . S
H87 C75 0.950 . S
N88 C91 1.382 . S
N88 C93 1.363 . S
N89 C91 1.371 . S
N89 C92 1.372 . S
N90 C92 1.361 . S
N90 C93 1.377 . S
C91 N88 1.382 . S
C91 N89 1.371 . S
C91 C94 1.480 . S
C92 N89 1.372 . S
C92 N90 1.361 . S
C92 C100 1.457 . S
C93 N88 1.363 . S
C93 N90 1.377 . S
C93 C106 1.479 . S
C94 C91 1.480 . S
C94 C95 1.383 . S
C94 C99 1.385 . S
C95 H76 0.947 . S
C95 C94 1.383 . S
C95 C96 1.389 1_545 S
C96 H77 0.951 . S
C96 C95 1.389 1_565 S
C96 C97 1.380 1_565 S
C97 C96 1.380 1_545 S
C97 C98 1.377 . S
C98 H78 0.953 . S
C98 C97 1.377 . S
C98 C99 1.369 . S
C99 H79 0.945 . S
C99 C94 1.385 . S
C99 C98 1.369 . S
C100 C92 1.457 . S
C100 C101 1.375 . S
C100 C105 1.364 . S
C101 H80 0.951 1_545 S
C101 C100 1.375 . S
C101 C102 1.384 1_545 S
C102 H81 0.954 . S
C102 C101 1.384 1_565 S
C102 C103 1.387 1_565 S
C103 C102 1.387 1_545 S
C103 C104 1.372 . S
C104 H82 0.950 . S
C104 C103 1.372 . S
C104 C105 1.379 . S
C105 H83 0.948 . S
C105 C100 1.364 . S
C105 C104 1.379 . S
C106 C75 1.383 . S
C106 C93 1.479 . S
C106 C107 1.398 . S
C107 C72 1.381 1_545 S
C107 H84 0.951 1_545 S
C107 C106 1.398 . S
C108 C109 1.384 . S
C108 H121 0.947 . S
C108 C143 1.382 1_556 S
C109 C108 1.384 . S
C109 C110 1.378 . S
C110 C109 1.378 . S
C110 C111 1.378 . S
C110 H122 0.952 . S
C111 C110 1.378 . S
C111 H123 0.950 . S
C111 C142 1.383 1_556 S
H112 C131 0.947 1_556 S
H113 C132 0.946 1_556 S
H114 C134 0.953 . S
H115 C135 0.945 . S
H116 C137 0.952 . S
H117 C138 0.949 . S
H118 C140 0.950 . S
H119 C141 0.948 . S
H120 C143 0.951 . S
H121 C108 0.947 . S
H122 C110 0.952 . S
H123 C111 0.950 . S
N124 C127 1.382 . S
N124 C129 1.363 . S
N125 C127 1.371 . S
N125 C128 1.372 . S
N126 C128 1.361 . S
N126 C129 1.377 . S
C127 N124 1.382 . S
C127 N125 1.371 . S
C127 C130 1.480 . S
C128 N125 1.372 . S
C128 N126 1.361 . S
C128 C136 1.457 . S
C129 N124 1.363 . S
C129 N126 1.377 . S
C129 C142 1.479 . S
C130 C127 1.480 . S
C130 C131 1.383 . S
C130 C135 1.385 . S
C131 H112 0.947 1_554 S
C131 C130 1.383 . S
C131 C132 1.388 . S
C132 H113 0.946 1_554 S
C132 C131 1.388 . S
C132 C133 1.384 . S
C133 C132 1.384 . S
C133 C134 1.377 . S
C134 H114 0.953 . S
C134 C133 1.377 . S
C134 C135 1.369 . S
C135 H115 0.945 . S
C135 C130 1.385 . S
C135 C134 1.369 . S
C136 C128 1.457 . S
C136 C137 1.372 . S
C136 C141 1.364 . S
C137 H116 0.952 . S
C137 C136 1.372 . S
C137 C138 1.389 . S
C138 H117 0.949 . S
C138 C137 1.389 . S
C138 C139 1.387 . S
C139 C138 1.387 . S
C139 C140 1.372 . S
C140 H118 0.950 . S
C140 C139 1.372 . S
C140 C141 1.379 . S
C141 H119 0.948 . S
C141 C136 1.364 . S
C141 C140 1.379 . S
C142 C111 1.383 1_554 S
C142 C129 1.479 . S
C142 C143 1.398 . S
C143 C108 1.382 1_554 S
C143 H120 0.951 . S
C143 C142 1.398 . S
C144 C145 1.384 . S
C144 H157 0.947 . S
C144 C179 1.382 . S
C145 C144 1.384 . S
C145 C146 1.378 . S
C146 C145 1.378 . S
C146 C147 1.378 . S
C146 H158 0.952 . S
C147 C146 1.378 . S
C147 H159 0.950 . S
C147 C178 1.383 . S
H148 C167 0.947 . S
H149 C168 0.946 . S
H150 C170 0.953 . S
H151 C171 0.945 . S
H152 C173 0.952 . S
H153 C174 0.949 . S
H154 C176 0.950 . S
H155 C177 0.948 . S
H156 C179 0.951 . S
H157 C144 0.947 . S
H158 C146 0.952 . S
H159 C147 0.950 . S
N160 C163 1.382 1_556 S
N160 C165 1.363 . S
N161 C163 1.371 . S
N161 C164 1.372 . S
N162 C164 1.361 1_556 S
N162 C165 1.377 . S
C163 N160 1.382 1_554 S
C163 N161 1.371 . S
C163 C166 1.480 . S
C164 N161 1.372 . S
C164 N162 1.361 1_554 S
C164 C172 1.457 . S
C165 N160 1.363 . S
C165 N162 1.377 . S
C165 C178 1.479 . S
C166 C163 1.480 . S
C166 C167 1.383 1_554 S
C166 C171 1.385 . S
C167 H148 0.947 . S
C167 C166 1.383 1_556 S
C167 C168 1.388 . S
C168 H149 0.946 . S
C168 C167 1.388 . S
C168 C169 1.384 1_556 S
C169 C168 1.384 1_554 S
C169 C170 1.377 . S
C170 H150 0.953 . S
C170 C169 1.377 . S
C170 C171 1.369 . S
C171 H151 0.945 . S
C171 C166 1.385 . S
C171 C170 1.369 . S
C172 C164 1.457 . S
C172 C173 1.372 . S
C172 C177 1.364 . S
C173 H152 0.952 . S
C173 C172 1.372 . S
C173 C174 1.389 . S
C174 H153 0.949 . S
C174 C173 1.389 . S
C174 C175 1.387 . S
C175 C174 1.387 . S
C175 C176 1.372 . S
C176 H154 0.950 . S
C176 C175 1.372 . S
C176 C177 1.379 . S
C177 H155 0.948 . S
C177 C172 1.364 . S
C177 C176 1.379 . S
C178 C147 1.383 . S
C178 C165 1.479 . S
C178 C179 1.398 . S
C179 C144 1.382 . S
C179 H156 0.951 . S
C179 C178 1.398 . S
C180 C181 1.384 . S
C180 H193 0.947 . S
C180 C215 1.382 . S
C181 C180 1.384 . S
C181 C182 1.378 . S
C182 C181 1.378 . S
C182 C183 1.378 . S
C182 H194 0.952 . S
C183 C182 1.378 . S
C183 H195 0.950 . S
C183 C214 1.383 . S
H184 C203 0.947 . S
H185 C204 0.946 . S
H186 C206 0.953 . S
H187 C207 0.945 . S
H188 C209 0.952 . S
H189 C210 0.949 . S
H190 C212 0.950 . S
H191 C213 0.948 . S
H192 C215 0.951 1_554 S
H193 C180 0.947 . S
H194 C182 0.952 . S
H195 C183 0.950 . S
N196 C199 1.382 . S
N196 C201 1.363 . S
N197 C199 1.371 . S
N197 C200 1.372 . S
N198 C200 1.361 . S
N198 C201 1.377 . S
C199 N196 1.382 . S
C199 N197 1.371 . S
C199 C202 1.480 . S
C200 N197 1.372 . S
C200 N198 1.361 . S
C200 C208 1.457 . S
C201 N196 1.363 . S
C201 N198 1.377 . S
C201 C214 1.479 1_554 S
C202 C199 1.480 . S
C202 C203 1.383 . S
C202 C207 1.385 . S
C203 H184 0.947 . S
C203 C202 1.383 . S
C203 C204 1.388 . S
C204 H185 0.946 . S
C204 C203 1.388 . S
C204 C205 1.384 . S
C205 C204 1.384 . S
C205 C206 1.377 . S
C206 H186 0.953 . S
C206 C205 1.377 . S
C206 C207 1.369 . S
C207 H187 0.945 . S
C207 C202 1.385 . S
C207 C206 1.369 . S
C208 C200 1.457 . S
C208 C209 1.372 . S
C208 C213 1.364 . S
C209 H188 0.952 . S
C209 C208 1.372 . S
C209 C210 1.389 . S
C210 H189 0.949 . S
C210 C209 1.389 . S
C210 C211 1.387 . S
C211 C210 1.387 . S
C211 C212 1.372 . S
C212 H190 0.950 . S
C212 C211 1.372 . S
C212 C213 1.379 . S
C213 H191 0.948 . S
C213 C208 1.364 . S
C213 C212 1.379 . S
C214 C183 1.383 . S
C214 C201 1.479 1_556 S
C214 C215 1.398 . S
C215 C180 1.382 . S
C215 H192 0.951 1_556 S
C215 C214 1.398 . S
C216 C217 1.384 . S
C216 H229 0.947 1_545 S
C216 C251 1.383 1_556 S
C217 C216 1.384 . S
C217 C218 1.378 . S
C218 C217 1.378 . S
C218 C219 1.378 1_556 S
C218 H230 0.952 . S
C219 C218 1.378 1_554 S
C219 H231 0.950 . S
C219 C250 1.383 . S
H220 C239 0.947 . S
H221 C240 0.950 . S
H222 C242 0.953 . S
H223 C243 0.945 . S
H224 C245 0.944 1_565 S
H225 C246 0.956 . S
H226 C248 0.950 . S
H227 C249 0.948 . S
H228 C251 0.951 1_565 S
H229 C216 0.947 1_565 S
H230 C218 0.952 . S
H231 C219 0.950 . S
N232 C235 1.382 . S
N232 C237 1.363 . S
N233 C235 1.371 . S
N233 C236 1.372 . S
N234 C236 1.361 . S
N234 C237 1.377 . S
C235 N232 1.382 . S
C235 N233 1.371 . S
C235 C238 1.480 . S
C236 N233 1.372 . S
C236 N234 1.361 . S
C236 C244 1.457 . S
C237 N232 1.363 . S
C237 N234 1.377 . S
C237 C250 1.479 . S
C238 C235 1.480 . S
C238 C239 1.383 . S
C238 C243 1.385 . S
C239 H220 0.947 . S
C239 C238 1.383 . S
C239 C240 1.385 1_545 S
C240 H221 0.950 . S
C240 C239 1.385 1_565 S
C240 C241 1.383 1_565 S
C241 C240 1.383 1_545 S
C241 C242 1.377 . S
C242 H222 0.953 . S
C242 C241 1.377 . S
C242 C243 1.369 . S
C243 H223 0.945 . S
C243 C238 1.385 . S
C243 C242 1.369 . S
C244 C236 1.457 . S
C244 C245 1.381 . S
C244 C249 1.364 . S
C245 H224 0.944 1_545 S
C245 C244 1.381 . S
C245 C246 1.390 1_545 S
C246 H225 0.956 . S
C246 C245 1.390 1_565 S
C246 C247 1.380 1_565 S
C247 C246 1.380 1_545 S
C247 C248 1.372 . S
C248 H226 0.950 . S
C248 C247 1.372 . S
C248 C249 1.379 . S
C249 H227 0.948 . S
C249 C244 1.364 . S
C249 C248 1.379 . S
C250 C219 1.383 . S
C250 C237 1.479 . S
C250 C251 1.398 . S
C251 C216 1.383 1_554 S
C251 H228 0.951 1_545 S
C251 C250 1.398 . S
C252 C253 1.384 . S
C252 H265 0.947 . S
C252 C287 1.382 . S
C253 C252 1.384 . S
C253 C254 1.378 . S
C254 C253 1.378 . S
C254 C255 1.378 . S
C254 H266 0.952 . S
C255 C254 1.378 . S
C255 H267 0.950 . S
C255 C286 1.383 . S
H256 C275 0.947 . S
H257 C276 0.946 . S
H258 C278 0.953 . S
H259 C279 0.945 . S
H260 C281 0.952 . S
H261 C282 0.949 . S
H262 C284 0.950 . S
H263 C285 0.948 . S
H264 C287 0.951 . S
H265 C252 0.947 . S
H266 C254 0.952 . S
H267 C255 0.950 . S
N268 C271 1.382 . S
N268 C273 1.363 . S
N269 C271 1.371 . S
N269 C272 1.372 . S
N270 C272 1.361 . S
N270 C273 1.377 . S
C271 N268 1.382 . S
C271 N269 1.371 . S
C271 C274 1.480 . S
C272 N269 1.372 . S
C272 N270 1.361 . S
C272 C280 1.457 . S
C273 N268 1.363 . S
C273 N270 1.377 . S
C273 C286 1.479 . S
C274 C271 1.480 . S
C274 C275 1.383 . S
C274 C279 1.385 . S
C275 H256 0.947 . S
C275 C274 1.383 . S
C275 C276 1.388 . S
C276 H257 0.946 . S
C276 C275 1.388 . S
C276 C277 1.384 . S
C277 C276 1.384 . S
C277 C278 1.377 . S
C278 H258 0.953 . S
C278 C277 1.377 . S
C278 C279 1.369 . S
C279 H259 0.945 . S
C279 C274 1.385 . S
C279 C278 1.369 . S
C280 C272 1.457 . S
C280 C281 1.372 . S
C280 C285 1.364 . S
C281 H260 0.952 . S
C281 C280 1.372 . S
C281 C282 1.389 . S
C282 H261 0.949 . S
C282 C281 1.389 . S
C282 C283 1.387 . S
C283 C282 1.387 . S
C283 C284 1.372 . S
C284 H262 0.950 . S
C284 C283 1.372 . S
C284 C285 1.379 . S
C285 H263 0.948 . S
C285 C280 1.364 . S
C285 C284 1.379 . S
C286 C255 1.383 . S
C286 C273 1.479 . S
C286 C287 1.398 . S
C287 C252 1.382 . S
C287 H264 0.951 . S
C287 C286 1.398 . S
Dy288 O291 2.307 1_545 S
Dy288 O293 2.395 1_655 S
Dy288 O294 2.379 . S
Dy288 O296 2.339 . S
Dy288 O298 2.298 . S
Dy288 O302 2.275 1_655 S
Dy288 C310 2.738 . S
Dy289 O292 2.298 . S
Dy289 O295 2.275 1_455 S
Dy289 O297 2.307 1_565 S
Dy289 O299 2.397 1_455 S
Dy289 O300 2.379 . S
Dy289 O303 2.339 . S
Dy289 C319 2.738 . S
C290 O302 1.254 1_565 S
C290 O303 1.257 . S
O291 Dy288 2.307 1_565 S
O291 C301 1.266 . S
O292 Dy289 2.298 . S
O292 C301 1.236 1_455 S
O293 Dy288 2.395 1_455 S
O293 C310 1.255 1_455 S
O294 Dy288 2.379 . S
O294 C310 1.249 . S
O295 Dy289 2.275 1_655 S
O295 C311 1.254 1_565 S
O296 Dy288 2.339 . S
O296 C311 1.257 . S
O297 Dy289 2.307 1_545 S
O297 C312 1.266 . S
O298 Dy288 2.298 . S
O298 C312 1.236 1_655 S
O299 Dy289 2.397 1_655 S
O299 C319 1.260 1_655 S
O300 Dy289 2.379 . S
O300 C319 1.249 . S
C301 O291 1.266 . S
C301 O292 1.236 1_655 S
O302 Dy288 2.275 1_455 S
O302 C290 1.254 1_545 S
O303 Dy289 2.339 . S
O303 C290 1.257 . S
C304 C307 1.344 1_655 S
C304 C308 1.328 . S
C304 C310 1.516 . S
C305 C306 1.304 1_655 S
C305 C309 1.323 . S
C306 C305 1.304 1_455 S
C306 C307 1.371 . S
C306 H320 0.930 . S
C307 C304 1.344 1_455 S
C307 C306 1.371 . S
C307 H321 0.931 . S
C308 C304 1.328 . S
C308 C309 1.433 . S
C308 H322 0.931 . S
C309 C305 1.323 . S
C309 C308 1.433 . S
C309 H323 0.933 . S
C310 Dy288 2.738 . S
C310 O293 1.255 1_655 S
C310 O294 1.249 . S
C310 C304 1.516 . S
C311 O295 1.254 1_545 S
C311 O296 1.257 . S
C312 O297 1.266 . S
C312 O298 1.236 1_455 S
C313 C316 1.344 . S
C313 C317 1.328 . S
C313 C319 1.516 . S
C314 C315 1.304 . S
C314 C318 1.323 . S
C315 C314 1.304 . S
C315 C316 1.371 . S
C315 H324 0.930 1_455 S
C316 C313 1.344 . S
C316 C315 1.371 . S
C316 H325 0.931 1_455 S
C317 C313 1.328 . S
C317 C318 1.433 . S
C317 H326 0.931 . S
C318 C314 1.323 . S
C318 C317 1.433 . S
C318 H327 0.933 . S
C319 Dy289 2.738 . S
C319 O299 1.260 1_455 S
C319 O300 1.249 . S
C319 C313 1.516 . S
H320 C306 0.930 . S
H321 C307 0.931 . S
H322 C308 0.931 . S
H323 C309 0.933 . S
H324 C315 0.930 1_655 S
H325 C316 0.931 1_655 S
H326 C317 0.931 . S
H327 C318 0.933 . S
Dy328 O331 2.307 . S
Dy328 O333 2.395 1_565 S
Dy328 O334 2.379 . S
Dy328 O336 2.339 . S
Dy328 O338 2.298 . S
Dy328 O342 2.275 1_565 S
Dy328 C350 2.738 . S
Dy329 O332 2.298 . S
Dy329 O335 2.275 1_545 S
Dy329 O337 2.307 . S
Dy329 O339 2.395 1_545 S
Dy329 O340 2.379 . S
Dy329 O343 2.339 . S
Dy329 C359 2.738 . S
C330 O342 1.254 . S
C330 O343 1.257 . S
O331 Dy328 2.307 . S
O331 C341 1.266 . S
O332 Dy329 2.298 . S
O332 C341 1.236 1_545 S
O333 Dy328 2.395 1_545 S
O333 C350 1.255 1_545 S
O334 Dy328 2.379 . S
O334 C350 1.249 . S
O335 Dy329 2.275 1_565 S
O335 C351 1.254 . S
O336 Dy328 2.339 . S
O336 C351 1.257 . S
O337 Dy329 2.307 . S
O337 C352 1.266 . S
O338 Dy328 2.298 . S
O338 C352 1.236 1_565 S
O339 Dy329 2.395 1_565 S
O339 C359 1.255 1_565 S
O340 Dy329 2.379 . S
O340 C359 1.249 . S
C341 O331 1.266 . S
C341 O332 1.236 1_565 S
O342 Dy328 2.275 1_545 S
O342 C330 1.254 . S
O343 Dy329 2.339 . S
O343 C330 1.257 . S
C344 C347 1.332 1_565 S
C344 C348 1.328 . S
C344 C350 1.516 . S
C345 C346 1.304 . S
C345 C349 1.323 . S
C346 C345 1.304 . S
C346 C347 1.369 1_565 S
C346 H360 0.930 1_565 S
C347 C344 1.332 1_545 S
C347 C346 1.369 1_545 S
C347 H361 0.945 . S
C348 C344 1.328 . S
C348 C349 1.433 . S
C348 H362 0.931 . S
C349 C345 1.323 . S
C349 C348 1.433 . S
C349 H363 0.933 . S
C350 Dy328 2.738 . S
C350 O333 1.255 1_565 S
C350 O334 1.249 . S
C350 C344 1.516 . S
C351 O335 1.254 . S
C351 O336 1.257 . S
C352 O337 1.266 . S
C352 O338 1.236 1_545 S
C353 C356 1.341 1_545 S
C353 C357 1.328 . S
C353 C359 1.516 . S
C354 C355 1.304 . S
C354 C358 1.323 . S
C355 C354 1.304 . S
C355 C356 1.370 1_545 S
C355 H364 0.930 1_545 S
C356 C353 1.341 1_565 S
C356 C355 1.370 1_565 S
C356 H365 0.935 . S
C357 C353 1.328 . S
C357 C358 1.433 . S
C357 H366 0.931 . S
C358 C354 1.323 . S
C358 C357 1.433 . S
C358 H367 0.933 . S
C359 Dy329 2.738 . S
C359 O339 1.255 1_545 S
C359 O340 1.249 . S
C359 C353 1.516 . S
H360 C346 0.930 1_545 S
H361 C347 0.945 . S
H362 C348 0.931 . S
H363 C349 0.933 . S
H364 C355 0.930 1_565 S
H365 C356 0.935 . S
H366 C357 0.931 . S
H367 C358 0.933 . S
Dy368 O371 2.307 . S
Dy368 O373 2.395 . S
Dy368 O374 2.379 . S
Dy368 O376 2.339 . S
Dy368 O378 2.298 . S
Dy368 O382 2.275 . S
Dy368 C390 2.738 . S
Dy369 O372 2.298 . S
Dy369 O375 2.275 . S
Dy369 O377 2.307 . S
Dy369 O379 2.395 . S
Dy369 O380 2.379 . S
Dy369 O383 2.339 . S
Dy369 C399 2.738 . S
C370 O382 1.254 . S
C370 O383 1.257 . S
O371 Dy368 2.307 . S
O371 C381 1.266 . S
O372 Dy369 2.298 . S
O372 C381 1.236 . S
O373 Dy368 2.395 . S
O373 C390 1.255 . S
O374 Dy368 2.379 . S
O374 C390 1.249 . S
O375 Dy369 2.275 . S
O375 C391 1.254 . S
O376 Dy368 2.339 . S
O376 C391 1.257 . S
O377 Dy369 2.307 . S
O377 C392 1.266 . S
O378 Dy368 2.298 . S
O378 C392 1.236 . S
O379 Dy369 2.395 . S
O379 C399 1.255 . S
O380 Dy369 2.379 . S
O380 C399 1.249 . S
C381 O371 1.266 . S
C381 O372 1.236 . S
O382 Dy368 2.275 . S
O382 C370 1.254 . S
O383 Dy369 2.339 . S
O383 C370 1.257 . S
C384 C387 1.344 . S
C384 C388 1.328 . S
C384 C390 1.516 . S
C385 C386 1.304 . S
C385 C389 1.323 . S
C386 C385 1.304 . S
C386 C387 1.371 . S
C386 H400 0.930 . S
C387 C384 1.344 . S
C387 C386 1.371 . S
C387 H401 0.931 . S
C388 C384 1.328 . S
C388 C389 1.433 . S
C388 H402 0.931 . S
C389 C385 1.323 . S
C389 C388 1.433 . S
C389 H403 0.933 . S
C390 Dy368 2.738 . S
C390 O373 1.255 . S
C390 O374 1.249 . S
C390 C384 1.516 . S
C391 O375 1.254 . S
C391 O376 1.257 . S
C392 O377 1.266 . S
C392 O378 1.236 . S
C393 C396 1.344 . S
C393 C397 1.328 . S
C393 C399 1.516 . S
C394 C395 1.304 . S
C394 C398 1.323 . S
C395 C394 1.304 . S
C395 C396 1.371 . S
C395 H404 0.930 . S
C396 C393 1.344 . S
C396 C395 1.371 . S
C396 H405 0.931 . S
C397 C393 1.328 . S
C397 C398 1.433 . S
C397 H406 0.931 . S
C398 C394 1.323 . S
C398 C397 1.433 . S
C398 H407 0.933 . S
C399 Dy369 2.738 . S
C399 O379 1.255 . S
C399 O380 1.249 . S
C399 C393 1.516 . S
H400 C386 0.930 . S
H401 C387 0.931 . S
H402 C388 0.931 . S
H403 C389 0.933 . S
H404 C395 0.930 . S
H405 C396 0.931 . S
H406 C397 0.931 . S
H407 C398 0.933 . S
Dy408 O411 2.307 1_455 S
Dy408 O413 2.395 . S
Dy408 O414 2.379 . S
Dy408 O416 2.339 . S
Dy408 O418 2.298 . S
Dy408 O422 2.275 . S
Dy408 C430 2.738 . S
Dy409 O412 2.298 . S
Dy409 O415 2.275 . S
Dy409 O417 2.307 1_655 S
Dy409 O419 2.395 . S
Dy409 O420 2.379 . S
Dy409 O423 2.339 . S
Dy409 C439 2.738 . S
C410 O422 1.254 . S
C410 O423 1.257 1_455 S
O411 Dy408 2.307 1_655 S
O411 C421 1.266 . S
O412 Dy409 2.298 . S
O412 C421 1.236 . S
O413 Dy408 2.395 . S
O413 C430 1.255 . S
O414 Dy408 2.379 . S
O414 C430 1.249 . S
O415 Dy409 2.275 . S
O415 C431 1.254 1_655 S
O416 Dy408 2.339 . S
O416 C431 1.257 . S
O417 Dy409 2.307 1_455 S
O417 C432 1.266 . S
O418 Dy408 2.298 . S
O418 C432 1.236 . S
O419 Dy409 2.395 . S
O419 C439 1.255 . S
O420 Dy409 2.379 . S
O420 C439 1.249 . S
C421 O411 1.266 . S
C421 O412 1.236 . S
O422 Dy408 2.275 . S
O422 C410 1.254 . S
O423 Dy409 2.339 . S
O423 C410 1.257 1_655 S
C424 C427 1.344 . S
C424 C428 1.328 . S
C424 C430 1.516 . S
C425 C426 1.304 . S
C425 C429 1.323 . S
C426 C425 1.304 . S
C426 C427 1.371 . S
C426 H440 0.930 . S
C427 C424 1.344 . S
C427 C426 1.371 . S
C427 H441 0.931 . S
C428 C424 1.328 . S
C428 C429 1.433 . S
C428 H442 0.931 . S
C429 C425 1.323 . S
C429 C428 1.433 . S
C429 H443 0.933 . S
C430 Dy408 2.738 . S
C430 O413 1.255 . S
C430 O414 1.249 . S
C430 C424 1.516 . S
C431 O415 1.254 1_455 S
C431 O416 1.257 . S
C432 O417 1.266 . S
C432 O418 1.236 . S
C433 C436 1.344 . S
C433 C437 1.328 . S
C433 C439 1.516 . S
C434 C435 1.304 1_554 S
C434 C438 1.323 1_554 S
C435 C434 1.304 1_556 S
C435 C436 1.371 . S
C435 H444 0.930 1_556 S
C436 C433 1.344 . S
C436 C435 1.371 . S
C436 H445 0.931 . S
C437 C433 1.328 . S
C437 C438 1.433 . S
C437 H446 0.931 . S
C438 C434 1.323 1_556 S
C438 C437 1.433 . S
C438 H447 0.933 . S
C439 Dy409 2.738 . S
C439 O419 1.255 . S
C439 O420 1.249 . S
C439 C433 1.516 . S
H440 C426 0.930 . S
H441 C427 0.931 . S
H442 C428 0.931 . S
H443 C429 0.933 . S
H444 C435 0.930 1_554 S
H445 C436 0.931 . S
H446 C437 0.931 . S
H447 C438 0.933 . S
H448 C454 0.930 . S
H449 C458 0.930 . S
H450 C463 0.929 . S
H451 C461 0.929 . S
H452 C456 0.929 . S
H453 C462 0.929 . S
C454 H448 0.930 . S
C454 C455 1.377 . S
C454 C462 1.378 . S
C455 C454 1.377 . S
C455 C463 1.424 1_565 S
C456 H452 0.929 . S
C456 C458 1.378 . S
C456 C460 1.350 . S
C457 C460 1.463 1_565 S
C457 C462 1.363 . S
C457 N465 1.413 1_565 S
C458 H449 0.930 . S
C458 C456 1.378 . S
C458 C459 1.367 . S
C459 C458 1.367 . S
C459 C461 1.433 1_545 S
C460 C456 1.350 . S
C460 C457 1.463 1_545 S
C460 N464 1.427 1_545 S
C461 H451 0.929 . S
C461 C459 1.433 1_565 S
C461 N464 1.384 . S
C462 H453 0.929 . S
C462 C454 1.378 . S
C462 C457 1.363 . S
C463 H450 0.929 . S
C463 C455 1.424 1_545 S
C463 N465 1.384 . S
N464 C460 1.427 1_565 S
N464 C461 1.384 . S
N465 C457 1.413 1_545 S
N465 C463 1.384 . S
H466 C472 0.930 . S
H467 C476 0.930 . S
H468 C481 0.929 . S
H469 C479 0.929 . S
H470 C474 0.929 . S
H471 C480 0.929 . S
C472 H466 0.930 . S
C472 C473 1.367 . S
C472 C480 1.378 . S
C473 C472 1.367 . S
C473 C481 1.433 . S
C474 H470 0.929 . S
C474 C476 1.378 . S
C474 C478 1.350 . S
C475 C478 1.463 . S
C475 C480 1.350 . S
C475 N483 1.427 . S
C476 H467 0.930 . S
C476 C474 1.378 . S
C476 C477 1.367 . S
C477 C476 1.367 . S
C477 C479 1.433 . S
C478 C474 1.350 . S
C478 C475 1.463 . S
C478 N482 1.427 . S
C479 H469 0.929 . S
C479 C477 1.433 . S
C479 N482 1.384 . S
C480 H471 0.929 . S
C480 C472 1.378 . S
C480 C475 1.350 . S
C481 H468 0.929 . S
C481 C473 1.433 . S
C481 N483 1.384 . S
N482 C478 1.427 . S
N482 C479 1.384 . S
N483 C475 1.427 . S
N483 C481 1.384 . S
H484 C490 0.930 . S
H485 C494 0.930 . S
H486 C499 0.929 . S
H487 C497 0.929 . S
H488 C492 0.929 . S
H489 C498 0.929 . S
C490 H484 0.930 . S
C490 C491 1.367 . S
C490 C498 1.378 . S
C491 C490 1.367 . S
C491 C499 1.433 . S
C492 H488 0.929 . S
C492 C494 1.378 . S
C492 C496 1.350 . S
C493 C496 1.463 . S
C493 C498 1.350 . S
C493 N501 1.427 . S
C494 H485 0.930 . S
C494 C492 1.378 . S
C494 C495 1.367 . S
C495 C494 1.367 . S
C495 C497 1.433 . S
C496 C492 1.350 . S
C496 C493 1.463 . S
C496 N500 1.427 . S
C497 H487 0.929 . S
C497 C495 1.433 . S
C497 N500 1.384 . S
C498 H489 0.929 . S
C498 C490 1.378 . S
C498 C493 1.350 . S
C499 H486 0.929 . S
C499 C491 1.433 . S
C499 N501 1.384 . S
N500 C496 1.427 . S
N500 C497 1.384 . S
N501 C493 1.427 . S
N501 C499 1.384 . S
H502 C508 0.930 . S
H503 C512 0.930 . S
H504 C517 0.929 . S
H505 C515 0.929 . S
H506 C510 0.929 . S
H507 C516 0.929 . S
C508 H502 0.930 . S
C508 C509 1.367 1_655 S
C508 C516 1.378 . S
C509 C508 1.367 1_455 S
C509 C517 1.433 . S
C510 H506 0.929 . S
C510 C512 1.378 . S
C510 C514 1.350 . S
C511 C514 1.463 . S
C511 C516 1.350 1_455 S
C511 N519 1.427 . S
C512 H503 0.930 . S
C512 C510 1.378 . S
C512 C513 1.367 . S
C513 C512 1.367 . S
C513 C515 1.433 1_455 S
C514 C510 1.350 . S
C514 C511 1.463 . S
C514 N518 1.427 1_455 S
C515 H505 0.929 . S
C515 C513 1.433 1_655 S
C515 N518 1.384 . S
C516 H507 0.929 . S
C516 C508 1.378 . S
C516 C511 1.350 1_655 S
C517 H504 0.929 . S
C517 C509 1.433 . S
C517 N519 1.384 . S
N518 C514 1.427 1_655 S
N518 C515 1.384 . S
N519 C511 1.427 . S
N519 C517 1.384 . S
H520 C526 0.930 . S
H521 C530 0.930 . S
H522 C535 0.929 . S
H523 C533 0.929 . S
H524 C528 0.929 . S
H525 C534 0.929 . S
C526 H520 0.930 . S
C526 C527 1.380 . S
C526 C534 1.378 . S
C527 C526 1.380 . S
C527 C535 1.419 1_565 S
C528 H524 0.929 . S
C528 C530 1.378 . S
C528 C532 1.365 . S
C529 C532 1.456 1_564 S
C529 C534 1.379 . S
C529 N537 1.401 1_565 S
C530 H521 0.930 . S
C530 C528 1.378 . S
C530 C531 1.367 . S
C531 C530 1.367 . S
C531 C533 1.433 1_545 S
C532 C528 1.365 . S
C532 C529 1.456 1_546 S
C532 N536 1.413 1_545 S
C533 H523 0.929 . S
C533 C531 1.433 1_565 S
C533 N536 1.384 . S
C534 H525 0.929 . S
C534 C526 1.378 . S
C534 C529 1.379 . S
C535 H522 0.929 . S
C535 C527 1.419 1_545 S
C535 N537 1.384 . S
N536 C532 1.413 1_565 S
N536 C533 1.384 . S
N537 C529 1.401 1_545 S
N537 C535 1.384 . S
H538 C544 0.930 . S
H539 C548 0.930 . S
H540 C553 0.929 . S
H541 C551 0.929 . S
H542 C546 0.929 . S
H543 C552 0.929 . S
C544 H538 0.930 . S
C544 C545 1.367 1_556 S
C544 C552 1.378 . S
C545 C544 1.367 1_554 S
C545 C553 1.433 . S
C546 H542 0.929 . S
C546 C548 1.378 . S
C546 C550 1.350 . S
C547 C550 1.463 . S
C547 C552 1.350 . S
C547 N555 1.426 1_556 S
C548 H539 0.930 . S
C548 C546 1.378 . S
C548 C549 1.367 . S
C549 C548 1.367 . S
C549 C551 1.433 . S
C550 C546 1.350 . S
C550 C547 1.463 . S
C550 N554 1.427 . S
C551 H541 0.929 . S
C551 C549 1.433 . S
C551 N554 1.384 . S
C552 H543 0.929 . S
C552 C544 1.378 . S
C552 C547 1.350 . S
C553 H540 0.929 . S
C553 C545 1.433 . S
C553 N555 1.385 . S
N554 C550 1.427 . S
N554 C551 1.384 . S
N555 C547 1.426 1_554 S
N555 C553 1.385 . S
H556 C562 0.930 . S
H557 C566 0.930 . S
H558 C571 0.929 . S
H559 C569 0.929 . S
H560 C564 0.929 . S
H561 C570 0.929 . S
C562 H556 0.930 . S
C562 C563 1.367 . S
C562 C570 1.378 . S
C563 C562 1.367 . S
C563 C571 1.433 . S
C564 H560 0.929 . S
C564 C566 1.378 . S
C564 C568 1.350 . S
C565 C568 1.463 . S
C565 C570 1.350 . S
C565 N573 1.427 . S
C566 H557 0.930 . S
C566 C564 1.378 . S
C566 C567 1.367 . S
C567 C566 1.367 . S
C567 C569 1.433 . S
C568 C564 1.350 . S
C568 C565 1.463 . S
C568 N572 1.427 . S
C569 H559 0.929 . S
C569 C567 1.433 . S
C569 N572 1.384 . S
C570 H561 0.929 . S
C570 C562 1.378 . S
C570 C565 1.350 . S
C571 H558 0.929 . S
C571 C563 1.433 . S
C571 N573 1.384 . S
N572 C568 1.427 . S
N572 C569 1.384 . S
N573 C565 1.427 . S
N573 C571 1.384 . S
H574 C580 0.930 . S
H575 C584 0.930 . S
H576 C589 0.929 . S
H577 C587 0.929 . S
H578 C582 0.929 1_554 S
H579 C588 0.929 . S
C580 H574 0.930 . S
C580 C581 1.367 1_455 S
C580 C588 1.378 . S
C581 C580 1.367 1_655 S
C581 C589 1.433 . S
C582 H578 0.929 1_556 S
C582 C584 1.378 . S
C582 C586 1.350 1_556 S
C583 C586 1.463 . S
C583 C588 1.350 1_655 S
C583 N591 1.427 . S
C584 H575 0.930 . S
C584 C582 1.378 . S
C584 C585 1.367 . S
C585 C584 1.367 . S
C585 C587 1.433 1_655 S
C586 C582 1.350 1_554 S
C586 C583 1.463 . S
C586 N590 1.427 1_654 S
C587 H577 0.929 . S
C587 C585 1.433 1_455 S
C587 N590 1.384 . S
C588 H579 0.929 . S
C588 C580 1.378 . S
C588 C583 1.350 1_455 S
C589 H576 0.929 . S
C589 C581 1.433 . S
C589 N591 1.384 . S
N590 C586 1.427 1_456 S
N590 C587 1.384 . S
N591 C583 1.427 . S
N591 C589 1.384 . S
H592 C598 0.930 . S
H593 C602 0.930 . S
H594 C607 0.929 1_655 S
H595 C605 0.929 . S
H596 C600 0.929 . S
H597 C606 0.929 . S
C598 H592 0.930 . S
C598 C599 1.367 . S
C598 C606 1.378 . S
C599 C598 1.367 . S
C599 C607 1.433 . S
C600 H596 0.929 . S
C600 C602 1.378 . S
C600 C604 1.350 . S
C601 C604 1.455 1_455 S
C601 C606 1.365 . S
C601 N609 1.419 1_455 S
C602 H593 0.930 . S
C602 C600 1.378 . S
C602 C603 1.367 . S
C603 C602 1.367 . S
C603 C605 1.433 . S
C604 C600 1.350 . S
C604 C601 1.455 1_655 S
C604 N608 1.427 . S
C605 H595 0.929 . S
C605 C603 1.433 . S
C605 N608 1.384 . S
C606 H597 0.929 . S
C606 C598 1.378 . S
C606 C601 1.365 . S
C607 H594 0.929 1_455 S
C607 C599 1.433 . S
C607 N609 1.384 1_455 S
N608 C604 1.427 . S
N608 C605 1.384 . S
N609 C601 1.419 1_655 S
N609 C607 1.384 1_655 S
H610 C616 0.930 . S
H611 C620 0.930 . S
H612 C625 0.929 . S
H613 C623 0.929 . S
H614 C618 0.929 1_545 S
H615 C624 0.929 . S
C616 H610 0.930 . S
C616 C617 1.348 1_565 S
C616 C624 1.378 . S
C617 C616 1.348 1_545 S
C617 C625 1.449 . S
C618 H614 0.929 1_565 S
C618 C620 1.378 . S
C618 C622 1.350 . S
C619 C622 1.463 . S
C619 C624 1.350 . S
C619 N627 1.427 1_565 S
C620 H611 0.930 . S
C620 C618 1.378 . S
C620 C621 1.367 . S
C621 C620 1.367 . S
C621 C623 1.433 . S
C622 C618 1.350 . S
C622 C619 1.463 . S
C622 N626 1.427 . S
C623 H613 0.929 . S
C623 C621 1.433 . S
C623 N626 1.384 . S
C624 H615 0.929 . S
C624 C616 1.378 . S
C624 C619 1.350 . S
C625 H612 0.929 . S
C625 C617 1.449 . S
C625 N627 1.384 . S
N626 C622 1.427 . S
N626 C623 1.384 . S
N627 C619 1.427 1_545 S
N627 C625 1.384 . S
H628 C634 0.930 . S
H629 C638 0.930 . S
H630 C643 0.929 . S
H631 C641 0.929 . S
H632 C636 0.929 . S
H633 C642 0.929 . S
C634 H628 0.930 . S
C634 C635 1.367 . S
C634 C642 1.378 . S
C635 C634 1.367 . S
C635 C643 1.433 . S
C636 H632 0.929 . S
C636 C638 1.378 . S
C636 C640 1.350 . S
C637 C640 1.463 . S
C637 C642 1.350 . S
C637 N645 1.427 . S
C638 H629 0.930 . S
C638 C636 1.378 . S
C638 C639 1.367 . S
C639 C638 1.367 . S
C639 C641 1.433 . S
C640 C636 1.350 . S
C640 C637 1.463 . S
C640 N644 1.427 . S
C641 H631 0.929 . S
C641 C639 1.433 . S
C641 N644 1.384 . S
C642 H633 0.929 . S
C642 C634 1.378 . S
C642 C637 1.350 . S
C643 H630 0.929 . S
C643 C635 1.433 . S
C643 N645 1.384 . S
N644 C640 1.427 . S
N644 C641 1.384 . S
N645 C637 1.427 . S
N645 C643 1.384 . S
H646 C652 0.930 . S
H647 C656 0.930 . S
H648 C661 0.929 . S
H649 C659 0.929 . S
H650 C654 0.929 . S
H651 C660 0.929 . S
C652 H646 0.930 . S
C652 C653 1.367 . S
C652 C660 1.378 . S
C653 C652 1.367 . S
C653 C661 1.433 . S
C654 H650 0.929 . S
C654 C656 1.378 . S
C654 C658 1.350 . S
C655 C658 1.463 . S
C655 C660 1.350 . S
C655 N663 1.427 . S
C656 H647 0.930 . S
C656 C654 1.378 . S
C656 C657 1.367 . S
C657 C656 1.367 . S
C657 C659 1.433 . S
C658 C654 1.350 . S
C658 C655 1.463 . S
C658 N662 1.427 . S
C659 H649 0.929 . S
C659 C657 1.433 . S
C659 N662 1.384 . S
C660 H651 0.929 . S
C660 C652 1.378 . S
C660 C655 1.350 . S
C661 H648 0.929 . S
C661 C653 1.433 . S
C661 N663 1.384 . S
N662 C658 1.427 . S
N662 C659 1.384 . S
N663 C655 1.427 . S
N663 C661 1.384 . S
H664 C670 0.930 . S
H665 C674 0.930 . S
H666 C679 0.929 . S
H667 C677 0.929 . S
H668 C672 0.929 . S
H669 C678 0.929 . S
C670 H664 0.930 . S
C670 C671 1.367 . S
C670 C678 1.378 . S
C671 C670 1.367 . S
C671 C679 1.433 1_655 S
C672 H668 0.929 . S
C672 C674 1.378 . S
C672 C676 1.350 . S
C673 C676 1.463 . S
C673 C678 1.350 1_455 S
C673 N681 1.427 . S
C674 H665 0.930 . S
C674 C672 1.378 . S
C674 C675 1.367 1_554 S
C675 C674 1.367 1_556 S
C675 C677 1.433 . S
C676 C672 1.350 . S
C676 C673 1.463 . S
C676 N680 1.427 1_554 S
C677 H667 0.929 . S
C677 C675 1.433 . S
C677 N680 1.384 . S
C678 H669 0.929 . S
C678 C670 1.378 . S
C678 C673 1.350 1_655 S
C679 H666 0.929 . S
C679 C671 1.433 1_455 S
C679 N681 1.384 . S
N680 C676 1.427 1_556 S
N680 C677 1.384 . S
N681 C673 1.427 . S
N681 C679 1.384 . S
H682 C688 0.930 . S
H683 C692 0.930 . S
H684 C697 0.929 . S
H685 C695 0.929 1_565 S
H686 C690 0.929 . S
H687 C696 0.929 1_556 S
C688 H682 0.930 . S
C688 C689 1.367 . S
C688 C696 1.378 . S
C689 C688 1.367 . S
C689 C697 1.433 1_565 S
C690 H686 0.929 . S
C690 C692 1.378 1_554 S
C690 C694 1.350 . S
C691 C694 1.463 . S
C691 C696 1.350 1_545 S
C691 N699 1.427 . S
C692 H683 0.930 . S
C692 C690 1.378 1_556 S
C692 C693 1.367 . S
C693 C692 1.367 . S
C693 C695 1.433 . S
C694 C690 1.350 . S
C694 C691 1.463 . S
C694 N698 1.427 1_544 S
C695 H685 0.929 1_545 S
C695 C693 1.433 . S
C695 N698 1.384 1_545 S
C696 H687 0.929 1_554 S
C696 C688 1.378 . S
C696 C691 1.350 1_565 S
C697 H684 0.929 . S
C697 C689 1.433 1_545 S
C697 N699 1.384 . S
N698 C694 1.427 1_566 S
N698 C695 1.384 1_565 S
N699 C691 1.427 . S
N699 C697 1.384 . S
H700 C706 0.930 . S
H701 C710 0.930 . S
H702 C715 0.929 . S
H703 C713 0.929 . S
H704 C708 0.929 . S
H705 C714 0.929 . S
C706 H700 0.930 . S
C706 C707 1.367 . S
C706 C714 1.378 . S
C707 C706 1.367 . S
C707 C715 1.433 . S
C708 H704 0.929 . S
C708 C710 1.378 . S
C708 C712 1.350 . S
C709 C712 1.463 . S
C709 C714 1.350 . S
C709 N717 1.427 . S
C710 H701 0.930 . S
C710 C708 1.378 . S
C710 C711 1.367 . S
C711 C710 1.367 . S
C711 C713 1.433 . S
C712 C708 1.350 . S
C712 C709 1.463 . S
C712 N716 1.427 . S
C713 H703 0.929 . S
C713 C711 1.433 . S
C713 N716 1.384 . S
C714 H705 0.929 . S
C714 C706 1.378 . S
C714 C709 1.350 . S
C715 H702 0.929 . S
C715 C707 1.433 . S
C715 N717 1.384 . S
N716 C712 1.427 . S
N716 C713 1.384 . S
N717 C709 1.427 . S
N717 C715 1.384 . S
H718 C724 0.930 . S
H719 C728 0.930 . S
H720 C733 0.929 . S
H721 C731 0.929 . S
H722 C726 0.929 . S
H723 C732 0.929 . S
C724 H718 0.930 . S
C724 C725 1.367 . S
C724 C732 1.378 . S
C725 C724 1.367 . S
C725 C733 1.433 . S
C726 H722 0.929 . S
C726 C728 1.378 . S
C726 C730 1.350 . S
C727 C730 1.463 . S
C727 C732 1.350 . S
C727 N735 1.427 . S
C728 H719 0.930 . S
C728 C726 1.378 . S
C728 C729 1.367 . S
C729 C728 1.367 . S
C729 C731 1.433 . S
C730 C726 1.350 . S
C730 C727 1.463 . S
C730 N734 1.427 . S
C731 H721 0.929 . S
C731 C729 1.433 . S
C731 N734 1.384 . S
C732 H723 0.929 . S
C732 C724 1.378 . S
C732 C727 1.350 . S
C733 H720 0.929 . S
C733 C725 1.433 . S
C733 N735 1.384 . S
N734 C730 1.427 . S
N734 C731 1.384 . S
N735 C727 1.427 . S
N735 C733 1.384 . S
H736 C742 0.930 . S
H737 C746 0.930 . S
H738 C751 0.929 . S
H739 C749 0.929 . S
H740 C744 0.929 . S
H741 C750 0.929 . S
C742 H736 0.930 . S
C742 C743 1.367 1_655 S
C742 C750 1.378 . S
C743 C742 1.367 1_455 S
C743 C751 1.433 . S
C744 H740 0.929 . S
C744 C746 1.378 . S
C744 C748 1.350 . S
C745 C748 1.463 . S
C745 C750 1.350 1_455 S
C745 N753 1.427 . S
C746 H737 0.930 . S
C746 C744 1.378 . S
C746 C747 1.367 . S
C747 C746 1.367 . S
C747 C749 1.433 1_455 S
C748 C744 1.350 . S
C748 C745 1.463 . S
C748 N752 1.427 1_455 S
C749 H739 0.929 . S
C749 C747 1.433 1_655 S
C749 N752 1.384 . S
C750 H741 0.929 . S
C750 C742 1.378 . S
C750 C745 1.350 1_655 S
C751 H738 0.929 . S
C751 C743 1.433 . S
C751 N753 1.384 . S
N752 C748 1.427 1_655 S
N752 C749 1.384 . S
N753 C745 1.427 . S
N753 C751 1.384 . S
H754 C760 0.930 . S
H755 C764 0.930 . S
H756 C769 0.929 . S
H757 C767 0.929 . S
H758 C762 0.929 . S
H759 C768 0.929 . S
C760 H754 0.930 . S
C760 C761 1.367 1_565 S
C760 C768 1.378 . S
C761 C760 1.367 1_545 S
C761 C769 1.433 . S
C762 H758 0.929 . S
C762 C764 1.378 . S
C762 C766 1.350 . S
C763 C766 1.463 . S
C763 C768 1.350 1_545 S
C763 N771 1.427 . S
C764 H755 0.930 . S
C764 C762 1.378 . S
C764 C765 1.367 . S
C765 C764 1.367 . S
C765 C767 1.433 1_545 S
C766 C762 1.350 . S
C766 C763 1.463 . S
C766 N770 1.427 1_545 S
C767 H757 0.929 . S
C767 C765 1.433 1_565 S
C767 N770 1.384 . S
C768 H759 0.929 . S
C768 C760 1.378 . S
C768 C763 1.350 1_565 S
C769 H756 0.929 . S
C769 C761 1.433 . S
C769 N771 1.384 . S
N770 C766 1.427 1_565 S
N770 C767 1.384 . S
N771 C763 1.427 . S
N771 C769 1.384 . S
H772 C778 0.930 . S
H773 C782 0.930 . S
H774 C787 0.929 . S
H775 C785 0.929 . S
H776 C780 0.929 . S
H777 C786 0.929 . S
C778 H772 0.930 . S
C778 C779 1.367 . S
C778 C786 1.378 . S
C779 C778 1.367 . S
C779 C787 1.433 1_554 S
C780 H776 0.929 . S
C780 C782 1.378 . S
C780 C784 1.350 . S
C781 C784 1.463 . S
C781 C786 1.350 1_556 S
C781 N789 1.427 . S
C782 H773 0.930 . S
C782 C780 1.378 . S
C782 C783 1.367 . S
C783 C782 1.367 . S
C783 C785 1.433 . S
C784 C780 1.350 . S
C784 C781 1.463 . S
C784 N788 1.427 . S
C785 H775 0.929 . S
C785 C783 1.433 . S
C785 N788 1.384 . S
C786 H777 0.929 . S
C786 C778 1.378 . S
C786 C781 1.350 1_554 S
C787 H774 0.929 . S
C787 C779 1.433 1_556 S
C787 N789 1.384 . S
N788 C784 1.427 . S
N788 C785 1.384 . S
N789 C781 1.427 . S
N789 C787 1.384 . S
H790 C796 0.930 . S
H791 C800 0.930 . S
H792 C805 0.929 . S
H793 C803 0.929 . S
H794 C798 0.929 . S
H795 C804 0.929 . S
C796 H790 0.930 . S
C796 C797 1.367 . S
C796 C804 1.378 . S
C797 C796 1.367 . S
C797 C805 1.433 . S
C798 H794 0.929 . S
C798 C800 1.378 . S
C798 C802 1.350 . S
C799 C802 1.463 . S
C799 C804 1.350 . S
C799 N807 1.427 . S
C800 H791 0.930 . S
C800 C798 1.378 . S
C800 C801 1.367 . S
C801 C800 1.367 . S
C801 C803 1.433 . S
C802 C798 1.350 . S
C802 C799 1.463 . S
C802 N806 1.427 . S
C803 H793 0.929 . S
C803 C801 1.433 . S
C803 N806 1.384 . S
C804 H795 0.929 . S
C804 C796 1.378 . S
C804 C799 1.350 . S
C805 H792 0.929 . S
C805 C797 1.433 . S
C805 N807 1.384 . S
N806 C802 1.427 . S
N806 C803 1.384 . S
N807 C799 1.427 . S
N807 C805 1.384 . S
H808 C814 0.930 . S
H809 C818 0.947 . S
H810 C823 0.930 . S
H811 C821 0.929 . S
H812 C816 0.937 . S
H813 C822 0.929 . S
C814 H808 0.930 . S
C814 C815 1.367 . S
C814 C822 1.378 . S
C815 C814 1.367 . S
C815 C823 1.433 . S
C816 H812 0.937 . S
C816 C818 1.378 . S
C816 C820 1.350 . S
C817 C820 1.463 . S
C817 C822 1.350 . S
C817 N825 1.427 . S
C818 H809 0.947 . S
C818 C816 1.378 . S
C818 C819 1.367 . S
C819 C818 1.367 . S
C819 C821 1.433 . S
C820 C816 1.350 . S
C820 C817 1.463 . S
C820 N824 1.427 . S
C821 H811 0.929 . S
C821 C819 1.433 . S
C821 N824 1.384 . S
C822 H813 0.929 . S
C822 C814 1.378 . S
C822 C817 1.350 . S
C823 H810 0.930 . S
C823 C815 1.433 . S
C823 N825 1.384 . S
N824 C820 1.427 . S
N824 C821 1.384 . S
N825 C817 1.427 . S
N825 C823 1.384 . S
H826 C832 0.930 . S
H827 C836 0.930 . S
H828 C841 0.929 . S
H829 C839 0.929 . S
H830 C834 0.929 . S
H831 C840 0.929 . S
C832 H826 0.930 . S
C832 C833 1.367 1_545 S
C832 C840 1.378 . S
C833 C832 1.367 1_565 S
C833 C841 1.433 . S
C834 H830 0.929 . S
C834 C836 1.378 . S
C834 C838 1.350 . S
C835 C838 1.463 . S
C835 C840 1.350 1_565 S
C835 N843 1.427 . S
C836 H827 0.930 . S
C836 C834 1.378 . S
C836 C837 1.367 . S
C837 C836 1.367 . S
C837 C839 1.433 1_565 S
C838 C834 1.350 . S
C838 C835 1.463 . S
C838 N842 1.427 1_565 S
C839 H829 0.929 . S
C839 C837 1.433 1_545 S
C839 N842 1.384 . S
C840 H831 0.929 . S
C840 C832 1.378 . S
C840 C835 1.350 1_545 S
C841 H828 0.929 . S
C841 C833 1.433 . S
C841 N843 1.384 . S
N842 C838 1.427 1_545 S
N842 C839 1.384 . S
N843 C835 1.427 . S
N843 C841 1.384 . S
H844 C850 0.930 . S
H845 C854 0.930 . S
H846 C859 0.929 . S
H847 C857 0.929 . S
H848 C852 0.929 . S
H849 C858 0.929 . S
C850 H844 0.930 . S
C850 C851 1.367 . S
C850 C858 1.378 . S
C851 C850 1.367 . S
C851 C859 1.433 . S
C852 H848 0.929 . S
C852 C854 1.378 . S
C852 C856 1.350 . S
C853 C856 1.463 . S
C853 C858 1.350 . S
C853 N861 1.427 . S
C854 H845 0.930 . S
C854 C852 1.378 . S
C854 C855 1.367 . S
C855 C854 1.367 . S
C855 C857 1.433 . S
C856 C852 1.350 . S
C856 C853 1.463 . S
C856 N860 1.427 . S
C857 H847 0.929 . S
C857 C855 1.433 . S
C857 N860 1.384 . S
C858 H849 0.929 . S
C858 C850 1.378 . S
C858 C853 1.350 . S
C859 H846 0.929 . S
C859 C851 1.433 . S
C859 N861 1.384 . S
N860 C856 1.427 . S
N860 C857 1.384 . S
N861 C853 1.427 . S
N861 C859 1.384 . S
H862 C868 0.930 . S
H863 C872 0.930 . S
H864 C877 0.929 . S
H865 C875 0.929 . S
H866 C870 0.929 . S
H867 C876 0.929 . S
C868 H862 0.930 . S
C868 C869 1.367 . S
C868 C876 1.378 . S
C869 C868 1.367 . S
C869 C877 1.433 . S
C870 H866 0.929 . S
C870 C872 1.378 . S
C870 C874 1.350 . S
C871 C874 1.463 . S
C871 C876 1.350 . S
C871 N879 1.427 . S
C872 H863 0.930 . S
C872 C870 1.378 . S
C872 C873 1.367 . S
C873 C872 1.367 . S
C873 C875 1.433 . S
C874 C870 1.350 . S
C874 C871 1.463 . S
C874 N878 1.427 . S
C875 H865 0.929 . S
C875 C873 1.433 . S
C875 N878 1.384 . S
C876 H867 0.929 . S
C876 C868 1.378 . S
C876 C871 1.350 . S
C877 H864 0.929 . S
C877 C869 1.433 . S
C877 N879 1.384 . S
N878 C874 1.427 . S
N878 C875 1.384 . S
N879 C871 1.427 . S
N879 C877 1.384 . S
C455 C241 2.001 1_565 S
C459 C290 2.135 1_545 S
C477 C330 2.154 . S
C473 C277 2.070 . S
C495 C394 2.498 . S
C491 C169 2.375 . S
C513 C410 2.177 . S
C509 C205 1.917 . S
C531 C311 2.130 . S
C527 C97 2.002 1_565 S
C545 C133 2.113 . S
C549 C351 2.156 . S
C563 C25 2.350 . S
C567 C385 2.510 1_554 S
C581 C61 1.907 . S
C585 C431 2.175 1_655 S
C603 C305 0.425 . S
C599 C211 0.313 . S
C621 C345 0.560 . S
C617 C247 0.575 . S
C639 C381 0.551 . S
C635 C253 0.544 . S
C653 C175 0.638 . S
C657 C425 0.668 . S
C671 C67 0.420 . S
C675 C314 0.431 . S
C693 C354 0.582 . S
C689 C103 0.588 1_565 S
C711 C392 0.554 . S
C707 C109 0.477 . S
C725 C31 0.692 . S
C729 C434 0.705 . S
C743 C181 2.632 . S
C747 C312 2.929 . S
C761 C217 2.451 . S
C765 C352 2.716 . S
C783 C370 1.967 . S
C779 C283 1.869 . S
C801 C432 3.329 . S
C797 C145 2.976 . S
C815 C37 2.620 . S
C819 C301 2.933 . S
C837 C341 2.716 . S
C833 C73 2.455 1_565 S
C855 C391 1.972 . S
C851 C139 1.908 . S
C869 C1 2.964 . S
C873 C421 3.328 . S
