# Generated by pormake.
# Topology pyr, (3,6)-cn, num edge types: 1
# Building blocks:
#     Node 0, Type 0, BuildingBlock: ESEHIV_clean_linker_0, # of connection points: 3
#     Node 1, Type 0, BuildingBlock: ESEHIV_clean_linker_0, # of connection points: 3
#     Node 2, Type 0, BuildingBlock: ESEHIV_clean_linker_0, # of connection points: 3
#     Node 3, Type 0, BuildingBlock: ESEHIV_clean_linker_0, # of connection points: 3
#     Node 4, Type 0, BuildingBlock: ESEHIV_clean_linker_0, # of connection points: 3
#     Node 5, Type 0, BuildingBlock: ESEHIV_clean_linker_0, # of connection points: 3
#     Node 6, Type 0, BuildingBlock: ESEHIV_clean_linker_0, # of connection points: 3
#     Node 7, Type 0, BuildingBlock: ESEHIV_clean_linker_0, # of connection points: 3
#     Node 8, Type 1, BuildingBlock: BETFEN_clean_sbu_0, # of connection points: 6
#     Node 9, Type 1, BuildingBlock: BETFEN_clean_sbu_0, # of connection points: 6
#     Node 10, Type 1, BuildingBlock: BETFEN_clean_sbu_0, # of connection points: 6
#     Node 11, Type 1, BuildingBlock: BETFEN_clean_sbu_0, # of connection points: 6
#     Edge 12, Type (0, 1), BuildingBlock: OJICUG_clean_linker_0, # of connection points: 2
#     Edge 13, Type (0, 1), BuildingBlock: OJICUG_clean_linker_0, # of connection points: 2
#     Edge 14, Type (0, 1), BuildingBlock: OJICUG_clean_linker_0, # of connection points: 2
#     Edge 15, Type (0, 1), BuildingBlock: OJICUG_clean_linker_0, # of connection points: 2
#     Edge 16, Type (0, 1), BuildingBlock: OJICUG_clean_linker_0, # of connection points: 2
#     Edge 17, Type (0, 1), BuildingBlock: OJICUG_clean_linker_0, # of connection points: 2
#     Edge 18, Type (0, 1), BuildingBlock: OJICUG_clean_linker_0, # of connection points: 2
#     Edge 19, Type (0, 1), BuildingBlock: OJICUG_clean_linker_0, # of connection points: 2
#     Edge 20, Type (0, 1), BuildingBlock: OJICUG_clean_linker_0, # of connection points: 2
#     Edge 21, Type (0, 1), BuildingBlock: OJICUG_clean_linker_0, # of connection points: 2
#     Edge 22, Type (0, 1), BuildingBlock: OJICUG_clean_linker_0, # of connection points: 2
#     Edge 23, Type (0, 1), BuildingBlock: OJICUG_clean_linker_0, # of connection points: 2
#     Edge 24, Type (0, 1), BuildingBlock: OJICUG_clean_linker_0, # of connection points: 2
#     Edge 25, Type (0, 1), BuildingBlock: OJICUG_clean_linker_0, # of connection points: 2
#     Edge 26, Type (0, 1), BuildingBlock: OJICUG_clean_linker_0, # of connection points: 2
#     Edge 27, Type (0, 1), BuildingBlock: OJICUG_clean_linker_0, # of connection points: 2
#     Edge 28, Type (0, 1), BuildingBlock: OJICUG_clean_linker_0, # of connection points: 2
#     Edge 29, Type (0, 1), BuildingBlock: OJICUG_clean_linker_0, # of connection points: 2
#     Edge 30, Type (0, 1), BuildingBlock: OJICUG_clean_linker_0, # of connection points: 2
#     Edge 31, Type (0, 1), BuildingBlock: OJICUG_clean_linker_0, # of connection points: 2
#     Edge 32, Type (0, 1), BuildingBlock: OJICUG_clean_linker_0, # of connection points: 2
#     Edge 33, Type (0, 1), BuildingBlock: OJICUG_clean_linker_0, # of connection points: 2
#     Edge 34, Type (0, 1), BuildingBlock: OJICUG_clean_linker_0, # of connection points: 2
#     Edge 35, Type (0, 1), BuildingBlock: OJICUG_clean_linker_0, # of connection points: 2
# Relax obj value: 0.256
# Max RMSD: 0.303
# Mean RMSD: 0.149
data_MOF--net-pyr--node1-BETFEN_clean_sbu_0--node2-ESEHIV_clean_linker_0--edge1-OJICUG_clean_linker_0
_symmetry_space_group_name_H-M    P1
_symmetry_Int_Tables_number       1
_symmetry_cell_setting            triclinic
loop_
_symmetry_equiv_pos_as_xyz
'x, y, z'
_cell_length_a     24.9428
_cell_length_b     28.004382
_cell_length_c     24.856598
_cell_angle_alpha  91.427123
_cell_angle_beta   99.269387
_cell_angle_gamma 113.5863
loop_
_atom_site_label
_atom_site_type_symbol
_atom_site_fract_x
_atom_site_fract_y
_atom_site_fract_z
_atom_type_partial_charge
H0 H 0.38238 0.47809 0.28821 0.0
H1 H 0.40615 0.35603 0.37317 0.0
H2 H 0.49602 0.40948 0.23929 0.0
C3 C 0.4079 0.45471 0.29669 0.0
C4 C 0.44286 0.44933 0.25946 0.0
C5 C 0.39577 0.42193 0.33865 0.0
C6 C 0.42054 0.38509 0.34451 0.0
C7 C 0.45767 0.38085 0.30987 0.0
C8 C 0.47165 0.41544 0.26933 0.0
H9 H 0.27119 0.90832 0.77097 0.0
H10 H 0.35014 0.80099 0.74343 0.0
H11 H 0.2671 0.85346 0.6066 0.0
C12 C 0.27958 0.88251 0.74349 0.0
C13 C 0.26158 0.88122 0.68681 0.0
C14 C 0.31301 0.85481 0.76431 0.0
C15 C 0.32435 0.82269 0.72786 0.0
C16 C 0.30902 0.82292 0.6712 0.0
C17 C 0.278 0.85255 0.65046 0.0
H18 H 0.67984 0.31828 0.94321 0.0
H19 H 0.70339 0.44432 0.84352 0.0
H20 H 0.55392 0.29454 0.79326 0.0
C21 C 0.66391 0.33324 0.90709 0.0
C22 C 0.61256 0.29963 0.87066 0.0
C23 C 0.69717 0.38452 0.89696 0.0
C24 C 0.67762 0.40407 0.85009 0.0
C25 C 0.62648 0.37275 0.81131 0.0
C26 C 0.5929 0.31991 0.82247 0.0
H27 H 0.86929 0.72073 0.43491 0.0
H28 H 0.982 0.73967 0.31664 0.0
H29 H 0.85347 0.585 0.33737 0.0
C30 C 0.88424 0.70325 0.40433 0.0
C31 C 0.85664 0.64877 0.39088 0.0
C32 C 0.92984 0.73646 0.37915 0.0
C33 C 0.94675 0.71424 0.33625 0.0
C34 C 0.92002 0.65905 0.32027 0.0
C35 C 0.87471 0.62689 0.34846 0.0
H36 H 0.68885 0.71866 0.72436 0.0
H37 H 0.70117 0.58457 0.79178 0.0
H38 H 0.59101 0.65269 0.85037 0.0
C39 C 0.67235 0.68689 0.74976 0.0
C40 C 0.63536 0.68907 0.78546 0.0
C41 C 0.69377 0.6478 0.75018 0.0
C42 C 0.67819 0.61031 0.78741 0.0
C43 C 0.64192 0.61238 0.82495 0.0
C44 C 0.61678 0.64943 0.82039 0.0
H45 H 0.74377 0.27908 0.35194 0.0
H46 H 0.82374 0.17221 0.32589 0.0
H47 H 0.81966 0.22207 0.48956 0.0
C48 C 0.76872 0.25681 0.36791 0.0
C49 C 0.78093 0.25463 0.42455 0.0
C50 C 0.78169 0.22565 0.3317 0.0
C51 C 0.81414 0.19734 0.35315 0.0
C52 C 0.82951 0.19698 0.40994 0.0
C53 C 0.81103 0.2244 0.44577 0.0
H54 H 0.42285 0.76128 0.15263 0.0
H55 H 0.37682 0.64439 0.26503 0.0
H56 H 0.53981 0.78432 0.30704 0.0
C57 C 0.43171 0.74787 0.19216 0.0
C58 C 0.48305 0.78045 0.22899 0.0
C59 C 0.39074 0.70072 0.20585 0.0
C60 C 0.40697 0.68159 0.25484 0.0
C61 C 0.46151 0.70956 0.2914 0.0
C62 C 0.4995 0.76036 0.27847 0.0
H63 H 0.10563 0.33249 0.77929 0.0
H64 H 0.21867 0.35329 0.66101 0.0
H65 H 0.23353 0.48787 0.75991 0.0
C66 C 0.14087 0.35829 0.7599 0.0
C67 C 0.16731 0.41335 0.77641 0.0
C68 C 0.158 0.33665 0.71675 0.0
C69 C 0.20352 0.37033 0.6918 0.0
C70 C 0.23079 0.42476 0.70572 0.0
C71 C 0.21253 0.44603 0.74845 0.0
Pr72 Pr 1.00332 1.01268 0.58128 0.0
Pr73 Pr 0.08407 0.06093 0.51302 0.0
C74 C 0.91469 0.94904 0.62769 0.0
C75 C 0.89852 0.89525 0.64263 0.0
C76 C 0.88538 0.88376 0.69465 0.0
C77 C 0.86946 0.83294 0.70953 0.0
C78 C 0.86611 0.79254 0.67249 0.0
C79 C 0.88132 0.80446 0.62098 0.0
C80 C 0.89795 0.85559 0.60632 0.0
C81 C 0.07406 0.11788 0.62521 0.0
C82 C 0.12571 0.99733 0.60709 0.0
C83 C 0.17256 0.12344 0.4656 0.0
C84 C 0.18947 0.17696 0.44969 0.0
C85 C 0.20362 0.18744 0.39784 0.0
C86 C 0.22012 0.23792 0.3819 0.0
C87 C 0.22303 0.27904 0.41767 0.0
C88 C 0.20708 0.26819 0.4691 0.0
C89 C 0.18986 0.21736 0.48483 0.0
C90 C 1.01325 0.9555 0.46973 0.0
C91 C 0.96253 0.07787 0.4883 0.0
O92 O 0.90795 0.95491 0.5753 0.0
O93 O 0.96403 0.98429 0.65635 0.0
O94 O 0.05211 0.10255 0.57503 0.0
O95 O 0.06112 0.07815 0.65399 0.0
O96 O 0.14587 0.03776 0.57884 0.0
O97 O 0.06877 0.97455 0.60825 0.0
O98 O 0.17947 0.11834 0.51814 0.0
O99 O 0.12282 0.08829 0.43746 0.0
O100 O 1.03583 0.9712 0.51974 0.0
O101 O 1.02538 0.99507 0.44076 0.0
O102 O 0.94193 0.03723 0.51621 0.0
O103 O 1.01946 0.10004 0.48694 0.0
H104 H 0.88623 0.91391 0.72339 0.0
H105 H 0.85652 0.82473 0.74901 0.0
H106 H 0.87856 0.77396 0.59157 0.0
H107 H 0.90913 0.8638 0.56623 0.0
H108 H 0.20299 0.15672 0.37002 0.0
H109 H 0.23365 0.24524 0.34254 0.0
H110 H 0.20944 0.29922 0.49755 0.0
H111 H 0.17795 0.20991 0.52478 0.0
Pr112 Pr 0.50102 0.04246 0.06718 0.0
Pr113 Pr 0.59852 0.03513 1.02974 0.0
C114 C 0.4323 0.05445 0.13414 0.0
C115 C 0.44261 0.10059 0.17004 0.0
C116 C 0.47838 0.15047 0.15717 0.0
C117 C 0.49046 0.1947 0.19191 0.0
C118 C 0.46752 0.18982 0.24051 0.0
C119 C 0.43391 0.13945 0.25448 0.0
C120 C 0.42146 0.0951 0.21935 0.0
C121 C 0.53292 0.10965 0.98331 0.0
C122 C 0.63818 0.12334 0.12751 0.0
C123 C 0.66772 1.02165 0.96416 0.0
C124 C 0.65794 0.97451 0.93027 0.0
C125 C 0.62005 0.9254 0.94323 0.0
C126 C 0.60883 0.88016 0.91052 0.0
C127 C 0.63486 0.88329 0.86391 0.0
C128 C 0.67075 0.93291 0.84977 0.0
C129 C 0.68231 0.97824 0.88286 0.0
C130 C 0.56617 0.96822 0.11368 0.0
C131 C 0.46108 0.95568 0.96817 0.0
O132 O 0.46994 0.03337 0.14826 0.0
O133 O 0.42228 0.05853 0.08151 0.0
O134 O 0.56946 0.10403 1.022 0.0
O135 O 0.47852 0.08087 0.98803 0.0
O136 O 0.65762 0.11159 0.08541 0.0
O137 O 0.58243 0.09772 0.13249 0.0
O138 O 0.6295 0.04186 0.94863 0.0
O139 O 0.67795 1.01938 1.01711 0.0
O140 O 0.52996 0.97362 0.07453 0.0
O141 O 0.62065 0.99712 0.10941 0.0
O142 O 0.44169 0.96693 1.01052 0.0
O143 O 0.51703 0.981 0.96358 0.0
H144 H 0.49657 0.15529 0.1199 0.0
H145 H 0.5157 0.23278 0.17938 0.0
H146 H 0.41625 0.13442 0.292 0.0
H147 H 0.39524 0.05666 0.23053 0.0
H148 H 0.59958 0.92202 0.97907 0.0
H149 H 0.58165 0.84267 0.92302 0.0
H150 H 0.69071 0.9366 0.81363 0.0
H151 H 0.71032 1.01606 0.87161 0.0
Pr152 Pr 0.57312 0.58241 0.58245 0.0
Pr153 Pr 0.51421 0.49425 0.51441 0.0
C154 C 0.59719 0.67705 0.63121 0.0
C155 C 0.55756 0.70439 0.6323 0.0
C156 C 0.51783 0.69192 0.66908 0.0
C157 C 0.47324 0.7103 0.66405 0.0
C158 C 0.46713 0.74145 0.62202 0.0
C159 C 0.5087 0.75632 0.58699 0.0
C160 C 0.55363 0.738 0.59214 0.0
C161 C 0.59112 0.49995 0.63476 0.0
C162 C 0.42845 0.51323 0.58854 0.0
C163 C 0.49059 0.39986 0.46553 0.0
C164 C 0.53055 0.37299 0.46327 0.0
C165 C 0.57303 0.38882 0.42913 0.0
C166 C 0.6171 0.36982 0.43343 0.0
C167 C 0.62006 0.3348 0.47217 0.0
C168 C 0.57594 0.31697 0.50453 0.0
C169 C 0.53146 0.33582 0.50001 0.0
C170 C 0.49646 0.57736 0.463 0.0
C171 C 0.65849 0.56264 0.50785 0.0
O172 O 0.61094 0.67086 0.58388 0.0
O173 O 0.58478 0.63505 0.65709 0.0
O174 O 0.54207 0.49781 0.60871 0.0
O175 O 0.63361 0.54561 0.63285 0.0
O176 O 0.42978 0.47892 0.55243 0.0
O177 O 0.47569 0.55782 0.6031 0.0
O178 O 0.47801 0.4059 0.51346 0.0
O179 O 0.50141 0.44165 0.43941 0.0
O180 O 0.54543 0.57883 0.48839 0.0
O181 O 0.45373 0.53173 0.46467 0.0
O182 O 0.65714 0.59719 0.54364 0.0
O183 O 0.61126 0.5181 0.49352 0.0
H184 H 0.51975 0.6664 0.70069 0.0
H185 H 0.4432 0.69977 0.69299 0.0
H186 H 0.50545 0.78082 0.55467 0.0
H187 H 0.58381 0.7485 0.56332 0.0
H188 H 0.57345 0.41708 0.40005 0.0
H189 H 0.64912 0.38283 0.40642 0.0
H190 H 0.57675 0.2896 0.53436 0.0
H191 H 0.49914 0.3228 0.52673 0.0
Pr192 Pr 1.03899 0.57701 1.01618 0.0
Pr193 Pr 0.04738 0.49235 0.08192 0.0
C194 C 0.98934 0.63715 0.96788 0.0
C195 C 0.92945 0.63161 0.9724 0.0
C196 C 0.90612 0.66592 0.94982 0.0
C197 C 0.8464 0.65549 0.9493 0.0
C198 C 0.80948 0.61036 0.97084 0.0
C199 C 0.83383 0.57749 0.99562 0.0
C200 C 0.89363 0.58853 0.99697 0.0
C201 C 0.15473 0.60252 0.07006 0.0
C202 C 1.00042 0.56969 0.1438 0.0
C203 C 0.09316 0.42835 0.12786 0.0
C204 C 0.1486 0.4262 0.11821 0.0
C205 C 0.16909 0.39079 0.14264 0.0
C206 C 0.22656 0.39558 0.14001 0.0
C207 C 0.26406 0.43613 0.11329 0.0
C208 C 0.24172 0.46906 0.08572 0.0
C209 C 0.18436 0.46392 0.08801 0.0
C210 C 0.93243 0.46941 1.02845 0.0
C211 C 0.08528 0.49999 0.95353 0.0
O212 O 0.99043 0.59674 0.94134 0.0
O213 O 1.02848 0.65364 1.01348 0.0
O214 O 0.10875 0.57958 0.09029 0.0
O215 O 0.14193 0.61775 1.02251 0.0
O216 O 1.02028 0.53257 0.15214 0.0
O217 O 0.99943 0.5886 0.09535 0.0
O218 O 0.10045 0.47253 0.15341 0.0
O219 O 0.04946 0.41232 0.08564 0.0
O220 O 0.97869 0.48992 1.00807 0.0
O221 O 0.94406 0.45633 0.07743 0.0
O222 O 0.06735 0.53828 0.94603 0.0
O223 O 0.08413 0.47956 1.00116 0.0
H224 H 0.93315 0.69926 0.93071 0.0
H225 H 0.82806 0.68076 0.92868 0.0
H226 H 0.80607 0.5422 1.01159 0.0
H227 H 0.91132 0.56193 1.01486 0.0
H228 H 0.14219 0.36155 0.16618 0.0
H229 H 0.24331 0.37032 0.16272 0.0
H230 H 0.26999 0.50101 0.06573 0.0
H231 H 0.16993 0.4923 0.06974 0.0
C232 C 0.28718 0.38493 0.32995 0.0
C233 C 0.34308 0.41185 0.36386 0.0
H234 H 0.20259 0.31991 0.32148 0.0
C235 C 0.34843 0.40774 0.42044 0.0
H236 H 0.28163 0.38785 0.28616 0.0
C237 C 0.30342 0.36842 0.44067 0.0
C238 C 0.25277 0.33349 0.40421 0.0
H239 H 0.39071 0.42877 0.44745 0.0
H240 H 0.31247 0.36072 0.48291 0.0
C241 C 0.24212 0.34551 0.35005 0.0
C242 C 0.32178 0.88032 0.8642 0.0
C243 C 0.34635 0.86813 0.82148 0.0
H244 H 0.33922 0.91764 0.9453 0.0
C245 C 0.40685 0.87693 0.83167 0.0
H246 H 0.27511 0.8732 0.85782 0.0
C247 C 0.44305 0.90167 0.8815 0.0
C248 C 0.41978 0.91857 0.9221 0.0
H249 H 0.42777 0.86873 0.7998 0.0
H250 H 0.49016 0.91057 0.88671 0.0
C251 C 0.35833 0.90542 0.91431 0.0
C252 C 0.6611 0.43062 0.73567 0.0
C253 C 0.61329 0.39749 0.75961 0.0
H254 H 0.69199 0.48867 0.67983 0.0
C255 C 0.55621 0.39496 0.73791 0.0
H256 H 0.7057 0.43326 0.74975 0.0
C257 C 0.5482 0.42651 0.69603 0.0
C258 C 0.59711 0.46201 0.67513 0.0
H259 H 0.51819 0.37048 0.75495 0.0
H260 H 0.50399 0.42465 0.68163 0.0
C261 C 0.65336 0.46266 0.69512 0.0
C262 C 0.95275 0.66039 0.22691 0.0
C263 C 0.93988 0.63535 0.27486 0.0
H264 H 0.98015 0.65982 0.14908 0.0
C265 C 0.94688 0.58769 0.27875 0.0
H266 H 0.9477 0.69669 0.2213 0.0
C267 C 0.96665 0.56665 0.23715 0.0
C268 C 0.97917 0.59168 0.18913 0.0
H269 H 0.93813 0.5669 0.3147 0.0
H270 H 0.97179 0.53037 0.2426 0.0
C271 C 0.97131 0.63886 0.18493 0.0
C272 C 0.41792 0.28366 0.30502 0.0
C273 C 0.46666 0.33182 0.30543 0.0
H274 H 0.38018 0.20133 0.28436 0.0
C275 C 0.51971 0.33184 0.29331 0.0
H276 H 0.37578 0.28198 0.31293 0.0
C277 C 0.52222 0.28479 0.27682 0.0
C278 C 0.47146 0.23722 0.27165 0.0
H279 H 0.5581 0.36834 0.29389 0.0
H280 H 0.56271 0.28597 0.26514 0.0
C281 C 0.42036 0.23699 0.28848 0.0
C282 C 0.24713 0.94786 0.62772 0.0
C283 C 0.2281 0.91219 0.66657 0.0
H284 H 0.23022 1.00437 0.57928 0.0
C285 C 0.17767 0.90732 0.68797 0.0
H286 H 0.28646 0.95266 0.61129 0.0
C287 C 0.14583 0.93667 0.66995 0.0
C288 C 0.16418 0.97189 0.6306 0.0
H289 H 0.16232 0.88009 0.71806 0.0
H290 H 0.10623 0.93117 0.68628 0.0
C291 C 0.21557 0.97787 0.61011 0.0
C292 C 0.8064 0.44062 0.90845 0.0
C293 C 0.7563 0.41478 0.93235 0.0
H294 H 0.90144 0.47802 0.92024 0.0
C295 C 0.76459 0.41192 0.98938 0.0
H296 H 0.80173 0.44325 0.86463 0.0
C297 C 0.8219 0.43092 1.02105 0.0
C298 C 0.87187 0.45356 0.99634 0.0
H299 H 0.72687 0.3932 1.00918 0.0
H300 H 0.82707 0.42661 0.06449 0.0
C301 C 0.86361 0.45992 0.94017 0.0
C302 C 0.81565 0.63203 0.47887 0.0
C303 C 0.80881 0.61739 0.42244 0.0
H304 H 0.77451 0.62728 0.54922 0.0
C305 C 0.75337 0.57842 0.39646 0.0
H306 H 0.85782 0.66073 0.50119 0.0
C307 C 0.70543 0.5579 0.42506 0.0
C308 C 0.7114 0.57635 0.48011 0.0
H309 H 0.7459 0.566 0.35329 0.0
H310 H 0.66266 0.52992 0.40304 0.0
C311 C 0.76774 0.61264 0.50681 0.0
C312 C 0.40035 0.41691 0.16256 0.0
C313 C 0.42758 0.46043 0.20241 0.0
H314 H 0.32335 0.37433 0.10119 0.0
C315 C 0.4154 0.5047 0.19343 0.0
H316 H 0.40987 0.38257 0.16685 0.0
C317 C 0.36535 0.49973 0.15535 0.0
C318 C 0.32872 0.45087 0.12585 0.0
H319 H 0.43708 0.53938 0.22243 0.0
H320 H 0.35037 0.53108 0.15584 0.0
C321 C 0.35015 0.41177 0.12487 0.0
C322 C 0.62279 0.21788 0.90154 0.0
C323 C 0.58509 0.24379 0.88565 0.0
H324 H 0.63721 0.15756 0.94561 0.0
C325 C 0.5273 0.22143 0.89769 0.0
H326 H 0.66771 0.23368 0.89334 0.0
C327 C 0.50937 0.17662 0.92721 0.0
C328 C 0.54916 0.15366 0.94675 0.0
H329 H 0.49726 0.24039 0.88735 0.0
H330 H 0.46528 0.16165 0.93728 0.0
C331 C 0.6056 0.17436 0.9322 0.0
C332 C 0.97461 0.80833 0.45767 0.0
C333 C 0.95849 0.7939 0.40054 0.0
H334 H 1.00352 0.86912 0.52381 0.0
C335 C 0.96248 0.83391 0.3661 0.0
H336 H 0.97226 0.77887 0.48574 0.0
C337 C 0.9801 0.88619 0.38829 0.0
C338 C 0.99448 0.90002 0.44554 0.0
H339 H 0.94976 0.82449 0.32212 0.0
H340 H 0.98171 0.91571 0.36052 0.0
C341 C 0.99223 0.86026 0.47971 0.0
C342 C 0.38937 0.8323 0.62085 0.0
C343 C 0.33609 0.79943 0.63644 0.0
H344 H 0.47385 0.83955 0.60468 0.0
C345 C 0.32101 0.74553 0.6354 0.0
H346 H 0.40211 0.8742 0.6224 0.0
C347 C 0.36188 0.72566 0.62532 0.0
C348 C 0.4186 0.75962 0.61695 0.0
H349 H 0.28032 0.71974 0.64791 0.0
H350 H 0.35093 0.6844 0.62844 0.0
C351 C 0.4306 0.81252 0.61125 0.0
C352 C 0.73933 0.66468 0.66783 0.0
C353 C 0.74572 0.65823 0.72391 0.0
H354 H 0.77463 0.71363 0.60653 0.0
C355 C 0.80212 0.68378 0.75736 0.0
H356 H 0.69633 0.64557 0.64152 0.0
C357 C 0.84708 0.72387 0.73779 0.0
C358 C 0.83589 0.73768 0.68449 0.0
H359 H 0.80824 0.67927 0.80082 0.0
H360 H 0.88716 0.74847 0.76637 0.0
C361 C 0.78433 0.70429 0.64802 0.0
C362 C 0.69009 0.2052 0.26181 0.0
C363 C 0.75035 0.21333 0.2738 0.0
H364 H 0.60786 0.17129 0.20539 0.0
C365 C 0.77598 0.20047 0.23227 0.0
H366 H 0.66828 0.21396 0.29256 0.0
C367 C 0.7404 0.17471 0.18198 0.0
C368 C 0.67897 0.16175 0.17281 0.0
H369 H 0.82255 0.20722 0.2399 0.0
H370 H 0.7601 0.16161 0.15216 0.0
C371 C 0.65494 0.17992 0.2118 0.0
C372 C 0.42817 0.65281 0.36875 0.0
C373 C 0.47492 0.68363 0.34222 0.0
H374 H 0.39769 0.59518 0.42523 0.0
C375 C 0.53111 0.68264 0.36029 0.0
H376 H 0.38451 0.65315 0.35798 0.0
C377 C 0.53899 0.64991 0.40085 0.0
C378 C 0.49075 0.61645 0.42399 0.0
H379 H 0.56835 0.70525 0.34129 0.0
H380 H 0.58238 0.64913 0.41235 0.0
C381 C 0.43563 0.61936 0.40787 0.0
C382 C 0.13372 0.4105 0.86951 0.0
C383 C 0.1471 0.43634 0.82208 0.0
H384 H 0.10546 0.4098 0.94709 0.0
C385 C 0.14016 0.48404 0.81888 0.0
H386 H 0.13872 0.37413 0.87461 0.0
C387 C 0.11999 0.50441 0.86063 0.0
C388 C 0.10686 0.47855 0.90809 0.0
H389 H 0.14927 0.50542 0.78334 0.0
H390 H 0.11496 0.54079 0.85572 0.0
C391 C 0.11466 0.43131 0.91164 0.0
C392 C 0.68204 0.78625 0.80167 0.0
C393 C 0.63059 0.73931 0.79656 0.0
H394 H 0.72353 0.8679 0.82682 0.0
C395 C 0.57812 0.74099 0.80822 0.0
H396 H 0.72387 0.78642 0.79468 0.0
C397 C 0.578 0.78853 0.82682 0.0
C398 C 0.63055 0.83488 0.83457 0.0
H399 H 0.53786 0.70545 0.8045 0.0
H400 H 0.53744 0.7887 0.83694 0.0
C401 C 0.68196 0.83334 0.82025 0.0
C402 C 0.91361 0.17096 0.41003 0.0
C403 C 0.86251 0.16565 0.43048 0.0
H404 H 0.98454 0.14654 0.41167 0.0
C405 C 0.84218 0.1289 0.46809 0.0
H406 H 0.93006 0.19903 0.38096 0.0
C407 C 0.873 0.09813 0.48524 0.0
C408 C 0.92486 0.10434 0.46545 0.0
H409 H 0.80233 0.12373 0.48378 0.0
H410 H 0.8573 0.07072 0.51506 0.0
C411 C 0.94457 0.14077 0.42746 0.0
C412 C 0.30654 0.70289 0.13501 0.0
C413 C 0.32995 0.67402 0.17012 0.0
H414 H 0.23478 0.70236 0.07451 0.0
C415 C 0.29331 0.62065 0.17195 0.0
H416 H 0.33013 0.74456 0.13381 0.0
C417 C 0.23564 0.59775 0.14068 0.0
C418 C 0.21471 0.62635 0.104 0.0
H419 H 0.30834 0.59606 0.19739 0.0
H420 H 0.2077 0.55756 0.14493 0.0
C421 C 0.25074 0.67897 0.10126 0.0
C422 C 0.27154 0.44261 0.61768 0.0
C423 C 0.27842 0.45674 0.67424 0.0
H424 H 0.31257 0.44827 0.54713 0.0
C425 C 0.33374 0.49583 0.70031 0.0
H426 H 0.22947 0.41383 0.59529 0.0
C427 C 0.38154 0.51698 0.67164 0.0
C428 C 0.37556 0.49907 0.6164 0.0
H429 H 0.34123 0.50787 0.74358 0.0
H430 H 0.42425 0.54501 0.69373 0.0
C431 C 0.31933 0.46262 0.58965 0.0
C432 C 0.67295 0.62877 0.92548 0.0
C433 C 0.65107 0.59204 0.87877 0.0
H434 H 0.74439 0.66385 0.99379 0.0
C435 C 0.66384 0.54746 0.88098 0.0
H436 H 0.66237 0.66261 0.92705 0.0
C437 C 0.71157 0.54849 0.91981 0.0
C438 C 0.74456 0.59329 0.95691 0.0
H439 H 0.64547 0.51713 0.84693 0.0
H440 H 0.72847 0.51889 0.9147 0.0
C441 C 0.72056 0.62986 0.96412 0.0
C442 C 0.56963 0.85609 0.19981 0.0
C443 C 0.51249 0.8358 0.21338 0.0
H444 H 0.63174 0.91392 0.15844 0.0
C445 C 0.4761 0.86302 0.19801 0.0
H446 H 0.59851 0.83593 0.20956 0.0
C447 C 0.49378 0.90589 0.16659 0.0
C448 C 0.54955 0.9247 0.15075 0.0
H449 H 0.43156 0.84857 0.2071 0.0
H450 H 0.46305 0.92369 0.15364 0.0
C451 C 0.58821 0.90042 0.16961 0.0
C452 C 0.11418 0.26523 0.63777 0.0
C453 C 0.12957 0.27934 0.69496 0.0
H454 H 0.08564 0.20472 0.57142 0.0
C455 C 0.1246 0.23905 0.72924 0.0
H456 H 0.11715 0.29488 0.60981 0.0
C457 C 0.10676 0.18682 0.70686 0.0
C458 C 0.09311 0.17331 0.64959 0.0
H459 H 0.13666 0.24821 0.77328 0.0
H460 H 0.10437 0.15706 0.73453 0.0
C461 C 0.09636 0.21335 0.61555 0.0
C462 C 0.76715 0.33066 0.46178 0.0
C463 C 0.75146 0.2766 0.45818 0.0
H464 H 0.73777 0.39189 0.47076 0.0
C465 C 0.69654 0.24289 0.47021 0.0
H466 H 0.8091 0.35712 0.45194 0.0
C467 C 0.6549 0.26239 0.47925 0.0
C468 C 0.66805 0.31588 0.47662 0.0
H469 H 0.6833 0.2009 0.46652 0.0
H470 H 0.6108 0.23495 0.48323 0.0
C471 C 0.72588 0.35025 0.47143 0.0
loop_
_geom_bond_atom_site_label_1
_geom_bond_atom_site_label_2
_geom_bond_distance
_geom_bond_site_symmetry_2
_ccdc_geom_bond_type
H0 C3 0.931 . S
H1 C6 0.928 . S
H2 C8 0.930 . S
C3 H0 0.931 . S
C3 C4 1.413 . S
C3 C5 1.360 . S
C4 C3 1.413 . S
C4 C8 1.429 . S
C5 C3 1.360 . S
C5 C6 1.372 . S
C6 H1 0.928 . S
C6 C5 1.372 . S
C6 C7 1.404 . S
C7 C6 1.404 . S
C7 C8 1.391 . S
C8 H2 0.930 . S
C8 C4 1.429 . S
C8 C7 1.391 . S
H9 C12 0.931 . S
H10 C15 0.928 . S
H11 C17 0.930 . S
C12 H9 0.931 . S
C12 C13 1.413 . S
C12 C14 1.360 . S
C13 C12 1.413 . S
C13 C17 1.429 . S
C14 C12 1.360 . S
C14 C15 1.372 . S
C15 H10 0.928 . S
C15 C14 1.372 . S
C15 C16 1.404 . S
C16 C15 1.404 . S
C16 C17 1.391 . S
C17 H11 0.930 . S
C17 C13 1.429 . S
C17 C16 1.391 . S
H18 C21 0.931 . S
H19 C24 0.928 . S
H20 C26 0.930 . S
C21 H18 0.931 . S
C21 C22 1.413 . S
C21 C23 1.360 . S
C22 C21 1.413 . S
C22 C26 1.429 . S
C23 C21 1.360 . S
C23 C24 1.372 . S
C24 H19 0.928 . S
C24 C23 1.372 . S
C24 C25 1.404 . S
C25 C24 1.404 . S
C25 C26 1.391 . S
C26 H20 0.930 . S
C26 C22 1.429 . S
C26 C25 1.391 . S
H27 C30 0.931 . S
H28 C33 0.928 . S
H29 C35 0.930 . S
C30 H27 0.931 . S
C30 C31 1.413 . S
C30 C32 1.360 . S
C31 C30 1.413 . S
C31 C35 1.429 . S
C32 C30 1.360 . S
C32 C33 1.372 . S
C33 H28 0.928 . S
C33 C32 1.372 . S
C33 C34 1.404 . S
C34 C33 1.404 . S
C34 C35 1.391 . S
C35 H29 0.930 . S
C35 C31 1.429 . S
C35 C34 1.391 . S
H36 C39 0.931 . S
H37 C42 0.928 . S
H38 C44 0.930 . S
C39 H36 0.931 . S
C39 C40 1.413 . S
C39 C41 1.360 . S
C40 C39 1.413 . S
C40 C44 1.429 . S
C41 C39 1.360 . S
C41 C42 1.372 . S
C42 H37 0.928 . S
C42 C41 1.372 . S
C42 C43 1.404 . S
C43 C42 1.404 . S
C43 C44 1.391 . S
C44 H38 0.930 . S
C44 C40 1.429 . S
C44 C43 1.391 . S
H45 C48 0.931 . S
H46 C51 0.928 . S
H47 C53 0.930 . S
C48 H45 0.931 . S
C48 C49 1.413 . S
C48 C50 1.360 . S
C49 C48 1.413 . S
C49 C53 1.429 . S
C50 C48 1.360 . S
C50 C51 1.372 . S
C51 H46 0.928 . S
C51 C50 1.372 . S
C51 C52 1.404 . S
C52 C51 1.404 . S
C52 C53 1.391 . S
C53 H47 0.930 . S
C53 C49 1.429 . S
C53 C52 1.391 . S
H54 C57 0.931 . S
H55 C60 0.928 . S
H56 C62 0.930 . S
C57 H54 0.931 . S
C57 C58 1.413 . S
C57 C59 1.360 . S
C58 C57 1.413 . S
C58 C62 1.429 . S
C59 C57 1.360 . S
C59 C60 1.372 . S
C60 H55 0.928 . S
C60 C59 1.372 . S
C60 C61 1.404 . S
C61 C60 1.404 . S
C61 C62 1.391 . S
C62 H56 0.930 . S
C62 C58 1.429 . S
C62 C61 1.391 . S
H63 C66 0.931 . S
H64 C69 0.928 . S
H65 C71 0.930 . S
C66 H63 0.931 . S
C66 C67 1.413 . S
C66 C68 1.360 . S
C67 C66 1.413 . S
C67 C71 1.429 . S
C68 C66 1.360 . S
C68 C69 1.372 . S
C69 H64 0.928 . S
C69 C68 1.372 . S
C69 C70 1.404 . S
C70 C69 1.404 . S
C70 C71 1.391 . S
C71 H65 0.930 . S
C71 C67 1.429 . S
C71 C70 1.391 . S
Pr72 C74 2.880 . S
Pr72 O92 2.562 . S
Pr72 O93 2.490 . S
Pr72 O94 2.695 1_665 S
Pr72 O95 2.512 1_565 S
Pr72 O97 2.437 1_655 S
Pr72 O100 2.436 . S
Pr72 O102 2.438 1_565 S
Pr73 C83 2.880 . S
Pr73 O94 2.436 . S
Pr73 O96 2.438 1_545 S
Pr73 O98 2.562 . S
Pr73 O99 2.490 . S
Pr73 O100 2.695 1_445 S
Pr73 O101 2.512 1_545 S
Pr73 O103 2.437 1_455 S
C74 Pr72 2.880 . S
C74 C75 1.491 . S
C74 O92 1.254 . S
C74 O93 1.225 . S
C75 C74 1.491 . S
C75 C76 1.392 . S
C75 C80 1.356 . S
C76 C75 1.392 . S
C76 C77 1.368 . S
C76 H104 0.929 . S
C77 C76 1.368 . S
C77 C78 1.386 . S
C77 H105 0.929 . S
C78 C77 1.386 . S
C78 C79 1.373 . S
C79 C78 1.373 . S
C79 C80 1.409 . S
C79 H106 0.931 . S
C80 C75 1.356 . S
C80 C79 1.409 . S
C80 H107 0.930 . S
C81 O94 1.270 . S
C81 O95 1.248 1_455 S
C82 O96 1.267 . S
C82 O97 1.278 . S
C83 Pr73 2.880 . S
C83 C84 1.491 . S
C83 O98 1.254 . S
C83 O99 1.225 . S
C84 C83 1.491 . S
C84 C85 1.392 . S
C84 C89 1.356 . S
C85 C84 1.392 . S
C85 C86 1.368 . S
C85 H108 0.929 . S
C86 C85 1.368 . S
C86 C87 1.386 . S
C86 H109 0.929 . S
C87 C86 1.386 . S
C87 C88 1.373 . S
C88 C87 1.373 . S
C88 C89 1.409 . S
C88 H110 0.931 . S
C89 C84 1.356 . S
C89 C88 1.409 . S
C89 H111 0.930 . S
C90 O100 1.270 . S
C90 O101 1.248 1_655 S
C91 O102 1.267 . S
C91 O103 1.278 . S
O92 Pr72 2.562 . S
O92 C74 1.254 . S
O93 Pr72 2.490 . S
O93 C74 1.225 . S
O94 Pr72 2.695 1_445 S
O94 Pr73 2.436 . S
O94 C81 1.270 . S
O95 Pr72 2.512 1_545 S
O95 C81 1.248 1_655 S
O96 Pr73 2.438 1_565 S
O96 C82 1.267 . S
O97 Pr72 2.437 1_455 S
O97 C82 1.278 . S
O98 Pr73 2.562 . S
O98 C83 1.254 . S
O99 Pr73 2.490 . S
O99 C83 1.225 . S
O100 Pr72 2.436 . S
O100 Pr73 2.695 1_665 S
O100 C90 1.270 . S
O101 Pr73 2.512 1_565 S
O101 C90 1.248 1_455 S
O102 Pr72 2.438 1_545 S
O102 C91 1.267 . S
O103 Pr73 2.437 1_655 S
O103 C91 1.278 . S
H104 C76 0.929 . S
H105 C77 0.929 . S
H106 C79 0.931 . S
H107 C80 0.930 . S
H108 C85 0.929 . S
H109 C86 0.929 . S
H110 C88 0.931 . S
H111 C89 0.930 . S
Pr112 C114 2.880 . S
Pr112 O132 2.562 . S
Pr112 O133 2.490 . S
Pr112 O134 2.695 1_554 S
Pr112 O135 2.512 1_554 S
Pr112 O137 2.437 . S
Pr112 O140 2.436 1_545 S
Pr112 O142 2.438 1_544 S
Pr113 C123 2.880 . S
Pr113 O134 2.436 1_565 S
Pr113 O136 2.438 1_566 S
Pr113 O138 2.562 . S
Pr113 O139 2.490 . S
Pr113 O140 2.695 1_556 S
Pr113 O141 2.512 1_556 S
Pr113 O143 2.437 . S
C114 Pr112 2.880 . S
C114 C115 1.491 . S
C114 O132 1.254 . S
C114 O133 1.225 . S
C115 C114 1.491 . S
C115 C116 1.392 . S
C115 C120 1.356 . S
C116 C115 1.392 . S
C116 C117 1.368 . S
C116 H144 0.929 . S
C117 C116 1.368 . S
C117 C118 1.386 . S
C117 H145 0.929 . S
C118 C117 1.386 . S
C118 C119 1.373 . S
C119 C118 1.373 . S
C119 C120 1.409 . S
C119 H146 0.931 . S
C120 C115 1.356 . S
C120 C119 1.409 . S
C120 H147 0.930 . S
C121 O134 1.270 . S
C121 O135 1.248 . S
C122 O136 1.267 . S
C122 O137 1.278 . S
C123 Pr113 2.880 . S
C123 C124 1.491 . S
C123 O138 1.254 . S
C123 O139 1.225 . S
C124 C123 1.491 . S
C124 C125 1.392 . S
C124 C129 1.356 . S
C125 C124 1.392 . S
C125 C126 1.368 . S
C125 H148 0.929 . S
C126 C125 1.368 . S
C126 C127 1.386 . S
C126 H149 0.929 . S
C127 C126 1.386 . S
C127 C128 1.373 . S
C128 C127 1.373 . S
C128 C129 1.409 . S
C128 H150 0.931 . S
C129 C124 1.356 . S
C129 C128 1.409 . S
C129 H151 0.930 . S
C130 O140 1.270 . S
C130 O141 1.248 . S
C131 O142 1.267 . S
C131 O143 1.278 . S
O132 Pr112 2.562 . S
O132 C114 1.254 . S
O133 Pr112 2.490 . S
O133 C114 1.225 . S
O134 Pr112 2.695 1_556 S
O134 Pr113 2.436 1_545 S
O134 C121 1.270 . S
O135 Pr112 2.512 1_556 S
O135 C121 1.248 . S
O136 Pr113 2.438 1_544 S
O136 C122 1.267 . S
O137 Pr112 2.437 . S
O137 C122 1.278 . S
O138 Pr113 2.562 . S
O138 C123 1.254 . S
O139 Pr113 2.490 . S
O139 C123 1.225 . S
O140 Pr112 2.436 1_565 S
O140 Pr113 2.695 1_554 S
O140 C130 1.270 . S
O141 Pr113 2.512 1_554 S
O141 C130 1.248 . S
O142 Pr112 2.438 1_566 S
O142 C131 1.267 . S
O143 Pr113 2.437 . S
O143 C131 1.278 . S
H144 C116 0.929 . S
H145 C117 0.929 . S
H146 C119 0.931 . S
H147 C120 0.930 . S
H148 C125 0.929 . S
H149 C126 0.929 . S
H150 C128 0.931 . S
H151 C129 0.930 . S
Pr152 C154 2.880 . S
Pr152 O172 2.562 . S
Pr152 O173 2.490 . S
Pr152 O174 2.695 . S
Pr152 O175 2.512 . S
Pr152 O177 2.437 . S
Pr152 O180 2.436 . S
Pr152 O182 2.438 . S
Pr153 C163 2.880 . S
Pr153 O174 2.436 . S
Pr153 O176 2.438 . S
Pr153 O178 2.562 . S
Pr153 O179 2.490 . S
Pr153 O180 2.695 . S
Pr153 O181 2.512 . S
Pr153 O183 2.437 . S
C154 Pr152 2.880 . S
C154 C155 1.491 . S
C154 O172 1.254 . S
C154 O173 1.225 . S
C155 C154 1.491 . S
C155 C156 1.392 . S
C155 C160 1.356 . S
C156 C155 1.392 . S
C156 C157 1.368 . S
C156 H184 0.929 . S
C157 C156 1.368 . S
C157 C158 1.386 . S
C157 H185 0.929 . S
C158 C157 1.386 . S
C158 C159 1.373 . S
C159 C158 1.373 . S
C159 C160 1.409 . S
C159 H186 0.931 . S
C160 C155 1.356 . S
C160 C159 1.409 . S
C160 H187 0.930 . S
C161 O174 1.270 . S
C161 O175 1.248 . S
C162 O176 1.267 . S
C162 O177 1.278 . S
C163 Pr153 2.880 . S
C163 C164 1.491 . S
C163 O178 1.254 . S
C163 O179 1.225 . S
C164 C163 1.491 . S
C164 C165 1.392 . S
C164 C169 1.356 . S
C165 C164 1.392 . S
C165 C166 1.368 . S
C165 H188 0.929 . S
C166 C165 1.368 . S
C166 C167 1.386 . S
C166 H189 0.929 . S
C167 C166 1.386 . S
C167 C168 1.373 . S
C168 C167 1.373 . S
C168 C169 1.409 . S
C168 H190 0.931 . S
C169 C164 1.356 . S
C169 C168 1.409 . S
C169 H191 0.930 . S
C170 O180 1.270 . S
C170 O181 1.248 . S
C171 O182 1.267 . S
C171 O183 1.278 . S
O172 Pr152 2.562 . S
O172 C154 1.254 . S
O173 Pr152 2.490 . S
O173 C154 1.225 . S
O174 Pr152 2.695 . S
O174 Pr153 2.436 . S
O174 C161 1.270 . S
O175 Pr152 2.512 . S
O175 C161 1.248 . S
O176 Pr153 2.438 . S
O176 C162 1.267 . S
O177 Pr152 2.437 . S
O177 C162 1.278 . S
O178 Pr153 2.562 . S
O178 C163 1.254 . S
O179 Pr153 2.490 . S
O179 C163 1.225 . S
O180 Pr152 2.436 . S
O180 Pr153 2.695 . S
O180 C170 1.270 . S
O181 Pr153 2.512 . S
O181 C170 1.248 . S
O182 Pr152 2.438 . S
O182 C171 1.267 . S
O183 Pr153 2.437 . S
O183 C171 1.278 . S
H184 C156 0.929 . S
H185 C157 0.929 . S
H186 C159 0.931 . S
H187 C160 0.930 . S
H188 C165 0.929 . S
H189 C166 0.929 . S
H190 C168 0.931 . S
H191 C169 0.930 . S
Pr192 C194 2.880 . S
Pr192 O212 2.562 . S
Pr192 O213 2.490 . S
Pr192 O214 2.695 1_656 S
Pr192 O215 2.512 1_656 S
Pr192 O217 2.437 1_556 S
Pr192 O220 2.436 . S
Pr192 O222 2.438 1_655 S
Pr193 C203 2.880 . S
Pr193 O214 2.436 . S
Pr193 O216 2.438 1_455 S
Pr193 O218 2.562 . S
Pr193 O219 2.490 . S
Pr193 O220 2.695 1_454 S
Pr193 O221 2.512 1_454 S
Pr193 O223 2.437 1_554 S
C194 Pr192 2.880 . S
C194 C195 1.491 . S
C194 O212 1.254 . S
C194 O213 1.225 . S
C195 C194 1.491 . S
C195 C196 1.392 . S
C195 C200 1.356 . S
C196 C195 1.392 . S
C196 C197 1.368 . S
C196 H224 0.929 . S
C197 C196 1.368 . S
C197 C198 1.386 . S
C197 H225 0.929 . S
C198 C197 1.386 . S
C198 C199 1.373 . S
C199 C198 1.373 . S
C199 C200 1.409 . S
C199 H226 0.931 . S
C200 C195 1.356 . S
C200 C199 1.409 . S
C200 H227 0.930 . S
C201 O214 1.270 . S
C201 O215 1.248 . S
C202 O216 1.267 . S
C202 O217 1.278 . S
C203 Pr193 2.880 . S
C203 C204 1.491 . S
C203 O218 1.254 . S
C203 O219 1.225 . S
C204 C203 1.491 . S
C204 C205 1.392 . S
C204 C209 1.356 . S
C205 C204 1.392 . S
C205 C206 1.368 . S
C205 H228 0.929 . S
C206 C205 1.368 . S
C206 C207 1.386 . S
C206 H229 0.929 . S
C207 C206 1.386 . S
C207 C208 1.373 . S
C208 C207 1.373 . S
C208 C209 1.409 . S
C208 H230 0.931 . S
C209 C204 1.356 . S
C209 C208 1.409 . S
C209 H231 0.930 . S
C210 O220 1.270 . S
C210 O221 1.248 . S
C211 O222 1.267 . S
C211 O223 1.278 . S
O212 Pr192 2.562 . S
O212 C194 1.254 . S
O213 Pr192 2.490 . S
O213 C194 1.225 . S
O214 Pr192 2.695 1_454 S
O214 Pr193 2.436 . S
O214 C201 1.270 . S
O215 Pr192 2.512 1_454 S
O215 C201 1.248 . S
O216 Pr193 2.438 1_655 S
O216 C202 1.267 . S
O217 Pr192 2.437 1_554 S
O217 C202 1.278 . S
O218 Pr193 2.562 . S
O218 C203 1.254 . S
O219 Pr193 2.490 . S
O219 C203 1.225 . S
O220 Pr192 2.436 . S
O220 Pr193 2.695 1_656 S
O220 C210 1.270 . S
O221 Pr193 2.512 1_656 S
O221 C210 1.248 . S
O222 Pr192 2.438 1_455 S
O222 C211 1.267 . S
O223 Pr193 2.437 1_556 S
O223 C211 1.278 . S
H224 C196 0.929 . S
H225 C197 0.929 . S
H226 C199 0.931 . S
H227 C200 0.930 . S
H228 C205 0.929 . S
H229 C206 0.929 . S
H230 C208 0.931 . S
H231 C209 0.930 . S
C232 C233 1.387 . S
C232 H236 0.950 . S
C232 C241 1.390 . S
C233 C232 1.387 . S
C233 C235 1.387 . S
H234 C241 0.950 . S
C235 C233 1.387 . S
C235 C237 1.390 . S
C235 H239 0.950 . S
H236 C232 0.950 . S
C237 C235 1.390 . S
C237 C238 1.387 . S
C237 H240 0.950 . S
C238 C237 1.387 . S
C238 C241 1.387 . S
H239 C235 0.950 . S
H240 C237 0.950 . S
C241 C232 1.390 . S
C241 H234 0.950 . S
C241 C238 1.387 . S
C242 C243 1.387 . S
C242 H246 0.950 . S
C242 C251 1.390 . S
C243 C242 1.387 . S
C243 C245 1.387 . S
H244 C251 0.950 . S
C245 C243 1.387 . S
C245 C247 1.390 . S
C245 H249 0.950 . S
H246 C242 0.950 . S
C247 C245 1.390 . S
C247 C248 1.387 . S
C247 H250 0.950 . S
C248 C247 1.387 . S
C248 C251 1.387 . S
H249 C245 0.950 . S
H250 C247 0.950 . S
C251 C242 1.390 . S
C251 H244 0.950 . S
C251 C248 1.387 . S
C252 C253 1.387 . S
C252 H256 0.950 . S
C252 C261 1.390 . S
C253 C252 1.387 . S
C253 C255 1.387 . S
H254 C261 0.950 . S
C255 C253 1.387 . S
C255 C257 1.390 . S
C255 H259 0.950 . S
H256 C252 0.950 . S
C257 C255 1.390 . S
C257 C258 1.387 . S
C257 H260 0.950 . S
C258 C257 1.387 . S
C258 C261 1.387 . S
H259 C255 0.950 . S
H260 C257 0.950 . S
C261 C252 1.390 . S
C261 H254 0.950 . S
C261 C258 1.387 . S
C262 C263 1.387 . S
C262 H266 0.950 . S
C262 C271 1.390 . S
C263 C262 1.387 . S
C263 C265 1.387 . S
H264 C271 0.950 . S
C265 C263 1.387 . S
C265 C267 1.390 . S
C265 H269 0.950 . S
H266 C262 0.950 . S
C267 C265 1.390 . S
C267 C268 1.387 . S
C267 H270 0.950 . S
C268 C267 1.387 . S
C268 C271 1.387 . S
H269 C265 0.950 . S
H270 C267 0.950 . S
C271 C262 1.390 . S
C271 H264 0.950 . S
C271 C268 1.387 . S
C272 C273 1.387 . S
C272 H276 0.950 . S
C272 C281 1.390 . S
C273 C272 1.387 . S
C273 C275 1.387 . S
H274 C281 0.950 . S
C275 C273 1.387 . S
C275 C277 1.390 . S
C275 H279 0.950 . S
H276 C272 0.950 . S
C277 C275 1.390 . S
C277 C278 1.387 . S
C277 H280 0.950 . S
C278 C277 1.387 . S
C278 C281 1.387 . S
H279 C275 0.950 . S
H280 C277 0.950 . S
C281 C272 1.390 . S
C281 H274 0.950 . S
C281 C278 1.387 . S
C282 C283 1.387 . S
C282 H286 0.950 . S
C282 C291 1.390 . S
C283 C282 1.387 . S
C283 C285 1.387 . S
H284 C291 0.950 . S
C285 C283 1.387 . S
C285 C287 1.390 . S
C285 H289 0.950 . S
H286 C282 0.950 . S
C287 C285 1.390 . S
C287 C288 1.387 . S
C287 H290 0.950 . S
C288 C287 1.387 . S
C288 C291 1.387 . S
H289 C285 0.950 . S
H290 C287 0.950 . S
C291 C282 1.390 . S
C291 H284 0.950 . S
C291 C288 1.387 . S
C292 C293 1.387 . S
C292 H296 0.950 . S
C292 C301 1.390 . S
C293 C292 1.387 . S
C293 C295 1.387 . S
H294 C301 0.950 . S
C295 C293 1.387 . S
C295 C297 1.390 . S
C295 H299 0.950 . S
H296 C292 0.950 . S
C297 C295 1.390 . S
C297 C298 1.387 . S
C297 H300 0.950 . S
C298 C297 1.387 . S
C298 C301 1.387 . S
H299 C295 0.950 . S
H300 C297 0.950 . S
C301 C292 1.390 . S
C301 H294 0.950 . S
C301 C298 1.387 . S
C302 C303 1.387 . S
C302 H306 0.950 . S
C302 C311 1.390 . S
C303 C302 1.387 . S
C303 C305 1.387 . S
H304 C311 0.950 . S
C305 C303 1.387 . S
C305 C307 1.390 . S
C305 H309 0.950 . S
H306 C302 0.950 . S
C307 C305 1.390 . S
C307 C308 1.387 . S
C307 H310 0.950 . S
C308 C307 1.387 . S
C308 C311 1.387 . S
H309 C305 0.950 . S
H310 C307 0.950 . S
C311 C302 1.390 . S
C311 H304 0.950 . S
C311 C308 1.387 . S
C312 C313 1.387 . S
C312 H316 0.950 . S
C312 C321 1.390 . S
C313 C312 1.387 . S
C313 C315 1.387 . S
H314 C321 0.950 . S
C315 C313 1.387 . S
C315 C317 1.390 . S
C315 H319 0.950 . S
H316 C312 0.950 . S
C317 C315 1.390 . S
C317 C318 1.387 . S
C317 H320 0.950 . S
C318 C317 1.387 . S
C318 C321 1.387 . S
H319 C315 0.950 . S
H320 C317 0.950 . S
C321 C312 1.390 . S
C321 H314 0.950 . S
C321 C318 1.387 . S
C322 C323 1.387 . S
C322 H326 0.950 . S
C322 C331 1.390 . S
C323 C322 1.387 . S
C323 C325 1.387 . S
H324 C331 0.950 . S
C325 C323 1.387 . S
C325 C327 1.390 . S
C325 H329 0.950 . S
H326 C322 0.950 . S
C327 C325 1.390 . S
C327 C328 1.387 . S
C327 H330 0.950 . S
C328 C327 1.387 . S
C328 C331 1.387 . S
H329 C325 0.950 . S
H330 C327 0.950 . S
C331 C322 1.390 . S
C331 H324 0.950 . S
C331 C328 1.387 . S
C332 C333 1.387 . S
C332 H336 0.950 . S
C332 C341 1.390 . S
C333 C332 1.387 . S
C333 C335 1.387 . S
H334 C341 0.950 . S
C335 C333 1.387 . S
C335 C337 1.390 . S
C335 H339 0.950 . S
H336 C332 0.950 . S
C337 C335 1.390 . S
C337 C338 1.387 . S
C337 H340 0.950 . S
C338 C337 1.387 . S
C338 C341 1.387 . S
H339 C335 0.950 . S
H340 C337 0.950 . S
C341 C332 1.390 . S
C341 H334 0.950 . S
C341 C338 1.387 . S
C342 C343 1.387 . S
C342 H346 0.950 . S
C342 C351 1.390 . S
C343 C342 1.387 . S
C343 C345 1.387 . S
H344 C351 0.950 . S
C345 C343 1.387 . S
C345 C347 1.390 . S
C345 H349 0.950 . S
H346 C342 0.950 . S
C347 C345 1.390 . S
C347 C348 1.387 . S
C347 H350 0.950 . S
C348 C347 1.387 . S
C348 C351 1.387 . S
H349 C345 0.950 . S
H350 C347 0.950 . S
C351 C342 1.390 . S
C351 H344 0.950 . S
C351 C348 1.387 . S
C352 C353 1.387 . S
C352 H356 0.950 . S
C352 C361 1.390 . S
C353 C352 1.387 . S
C353 C355 1.387 . S
H354 C361 0.950 . S
C355 C353 1.387 . S
C355 C357 1.390 . S
C355 H359 0.950 . S
H356 C352 0.950 . S
C357 C355 1.390 . S
C357 C358 1.387 . S
C357 H360 0.950 . S
C358 C357 1.387 . S
C358 C361 1.387 . S
H359 C355 0.950 . S
H360 C357 0.950 . S
C361 C352 1.390 . S
C361 H354 0.950 . S
C361 C358 1.387 . S
C362 C363 1.387 . S
C362 H366 0.950 . S
C362 C371 1.390 . S
C363 C362 1.387 . S
C363 C365 1.387 . S
H364 C371 0.950 . S
C365 C363 1.387 . S
C365 C367 1.390 . S
C365 H369 0.950 . S
H366 C362 0.950 . S
C367 C365 1.390 . S
C367 C368 1.387 . S
C367 H370 0.950 . S
C368 C367 1.387 . S
C368 C371 1.387 . S
H369 C365 0.950 . S
H370 C367 0.950 . S
C371 C362 1.390 . S
C371 H364 0.950 . S
C371 C368 1.387 . S
C372 C373 1.387 . S
C372 H376 0.950 . S
C372 C381 1.390 . S
C373 C372 1.387 . S
C373 C375 1.387 . S
H374 C381 0.950 . S
C375 C373 1.387 . S
C375 C377 1.390 . S
C375 H379 0.950 . S
H376 C372 0.950 . S
C377 C375 1.390 . S
C377 C378 1.387 . S
C377 H380 0.950 . S
C378 C377 1.387 . S
C378 C381 1.387 . S
H379 C375 0.950 . S
H380 C377 0.950 . S
C381 C372 1.390 . S
C381 H374 0.950 . S
C381 C378 1.387 . S
C382 C383 1.387 . S
C382 H386 0.950 . S
C382 C391 1.390 . S
C383 C382 1.387 . S
C383 C385 1.387 . S
H384 C391 0.950 . S
C385 C383 1.387 . S
C385 C387 1.390 . S
C385 H389 0.950 . S
H386 C382 0.950 . S
C387 C385 1.390 . S
C387 C388 1.387 . S
C387 H390 0.950 . S
C388 C387 1.387 . S
C388 C391 1.387 . S
H389 C385 0.950 . S
H390 C387 0.950 . S
C391 C382 1.390 . S
C391 H384 0.950 . S
C391 C388 1.387 . S
C392 C393 1.387 . S
C392 H396 0.950 . S
C392 C401 1.390 . S
C393 C392 1.387 . S
C393 C395 1.387 . S
H394 C401 0.950 . S
C395 C393 1.387 . S
C395 C397 1.390 . S
C395 H399 0.950 . S
H396 C392 0.950 . S
C397 C395 1.390 . S
C397 C398 1.387 . S
C397 H400 0.950 . S
C398 C397 1.387 . S
C398 C401 1.387 . S
H399 C395 0.950 . S
H400 C397 0.950 . S
C401 C392 1.390 . S
C401 H394 0.950 . S
C401 C398 1.387 . S
C402 C403 1.387 . S
C402 H406 0.950 . S
C402 C411 1.390 . S
C403 C402 1.387 . S
C403 C405 1.387 . S
H404 C411 0.950 . S
C405 C403 1.387 . S
C405 C407 1.390 . S
C405 H409 0.950 . S
H406 C402 0.950 . S
C407 C405 1.390 . S
C407 C408 1.387 . S
C407 H410 0.950 . S
C408 C407 1.387 . S
C408 C411 1.387 . S
H409 C405 0.950 . S
H410 C407 0.950 . S
C411 C402 1.390 . S
C411 H404 0.950 . S
C411 C408 1.387 . S
C412 C413 1.387 . S
C412 H416 0.950 . S
C412 C421 1.390 . S
C413 C412 1.387 . S
C413 C415 1.387 . S
H414 C421 0.950 . S
C415 C413 1.387 . S
C415 C417 1.390 . S
C415 H419 0.950 . S
H416 C412 0.950 . S
C417 C415 1.390 . S
C417 C418 1.387 . S
C417 H420 0.950 . S
C418 C417 1.387 . S
C418 C421 1.387 . S
H419 C415 0.950 . S
H420 C417 0.950 . S
C421 C412 1.390 . S
C421 H414 0.950 . S
C421 C418 1.387 . S
C422 C423 1.387 . S
C422 H426 0.950 . S
C422 C431 1.390 . S
C423 C422 1.387 . S
C423 C425 1.387 . S
H424 C431 0.950 . S
C425 C423 1.387 . S
C425 C427 1.390 . S
C425 H429 0.950 . S
H426 C422 0.950 . S
C427 C425 1.390 . S
C427 C428 1.387 . S
C427 H430 0.950 . S
C428 C427 1.387 . S
C428 C431 1.387 . S
H429 C425 0.950 . S
H430 C427 0.950 . S
C431 C422 1.390 . S
C431 H424 0.950 . S
C431 C428 1.387 . S
C432 C433 1.387 . S
C432 H436 0.950 . S
C432 C441 1.390 . S
C433 C432 1.387 . S
C433 C435 1.387 . S
H434 C441 0.950 . S
C435 C433 1.387 . S
C435 C437 1.390 . S
C435 H439 0.950 . S
H436 C432 0.950 . S
C437 C435 1.390 . S
C437 C438 1.387 . S
C437 H440 0.950 . S
C438 C437 1.387 . S
C438 C441 1.387 . S
H439 C435 0.950 . S
H440 C437 0.950 . S
C441 C432 1.390 . S
C441 H434 0.950 . S
C441 C438 1.387 . S
C442 C443 1.387 . S
C442 H446 0.950 . S
C442 C451 1.390 . S
C443 C442 1.387 . S
C443 C445 1.387 . S
H444 C451 0.950 . S
C445 C443 1.387 . S
C445 C447 1.390 . S
C445 H449 0.950 . S
H446 C442 0.950 . S
C447 C445 1.390 . S
C447 C448 1.387 . S
C447 H450 0.950 . S
C448 C447 1.387 . S
C448 C451 1.387 . S
H449 C445 0.950 . S
H450 C447 0.950 . S
C451 C442 1.390 . S
C451 H444 0.950 . S
C451 C448 1.387 . S
C452 C453 1.387 . S
C452 H456 0.950 . S
C452 C461 1.390 . S
C453 C452 1.387 . S
C453 C455 1.387 . S
H454 C461 0.950 . S
C455 C453 1.387 . S
C455 C457 1.390 . S
C455 H459 0.950 . S
H456 C452 0.950 . S
C457 C455 1.390 . S
C457 C458 1.387 . S
C457 H460 0.950 . S
C458 C457 1.387 . S
C458 C461 1.387 . S
H459 C455 0.950 . S
H460 C457 0.950 . S
C461 C452 1.390 . S
C461 H454 0.950 . S
C461 C458 1.387 . S
C462 C463 1.387 . S
C462 H466 0.950 . S
C462 C471 1.390 . S
C463 C462 1.387 . S
C463 C465 1.387 . S
H464 C471 0.950 . S
C465 C463 1.387 . S
C465 C467 1.390 . S
C465 H469 0.950 . S
H466 C462 0.950 . S
C467 C465 1.390 . S
C467 C468 1.387 . S
C467 H470 0.950 . S
C468 C467 1.387 . S
C468 C471 1.387 . S
H469 C465 0.950 . S
H470 C467 0.950 . S
C471 C462 1.390 . S
C471 H464 0.950 . S
C471 C468 1.387 . S
C233 C5 1.095 . S
C238 C87 1.152 . S
C243 C14 1.314 . S
C248 C131 1.350 . S
C258 C161 2.334 . S
C253 C25 2.289 . S
C263 C34 2.764 . S
C268 C202 2.708 . S
C278 C118 0.921 . S
C273 C7 0.889 . S
C288 C82 2.192 . S
C283 C13 2.147 . S
C298 C210 1.156 . S
C293 C23 1.137 . S
C308 C171 2.288 . S
C303 C31 2.363 . S
C313 C4 1.450 . S
C318 C207 1.522 . S
C328 C121 2.072 . S
C323 C22 2.115 . S
C333 C32 1.954 . S
C338 C90 1.908 . S
C343 C16 1.998 . S
C348 C158 1.995 . S
C358 C78 1.146 . S
C353 C41 1.085 . S
C363 C50 1.318 . S
C368 C122 1.355 . S
C373 C61 2.292 . S
C378 C170 2.332 . S
C383 C67 2.773 . S
C388 C211 2.718 . S
C393 C40 0.901 . S
C398 C127 0.935 . S
C408 C91 2.174 . S
C403 C52 2.121 . S
C418 C201 1.158 . S
C413 C59 1.145 . S
C428 C162 2.298 . S
C423 C70 2.363 . S
C433 C43 1.442 . S
C438 C198 1.513 . S
C448 C130 2.085 . S
C443 C58 2.133 . S
C458 C81 1.897 . S
C453 C68 1.937 . S
C463 C49 2.016 . S
C468 C167 2.000 . S
