# Generated by pormake.
# Topology pth, (4,4)-cn, num edge types: 1
# Building blocks:
#     Node 0, Type 0, BuildingBlock: QUQFOY_clean_sbu_3, # of connection points: 4
#     Node 1, Type 0, BuildingBlock: QUQFOY_clean_sbu_3, # of connection points: 4
#     Node 2, Type 0, BuildingBlock: QUQFOY_clean_sbu_3, # of connection points: 4
#     Node 3, Type 1, BuildingBlock: MUDLON_clean_linker_0, # of connection points: 4
#     Node 4, Type 1, BuildingBlock: MUDLON_clean_linker_0, # of connection points: 4
#     Node 5, Type 1, BuildingBlock: MUDLON_clean_linker_0, # of connection points: 4
#     Edge 6, Type (0, 1), BuildingBlock: TEMPAE_clean_linker_10, # of connection points: 2
#     Edge 7, Type (0, 1), BuildingBlock: TEMPAE_clean_linker_10, # of connection points: 2
#     Edge 8, Type (0, 1), BuildingBlock: TEMPAE_clean_linker_10, # of connection points: 2
#     Edge 9, Type (0, 1), BuildingBlock: TEMPAE_clean_linker_10, # of connection points: 2
#     Edge 10, Type (0, 1), BuildingBlock: TEMPAE_clean_linker_10, # of connection points: 2
#     Edge 11, Type (0, 1), BuildingBlock: TEMPAE_clean_linker_10, # of connection points: 2
#     Edge 12, Type (0, 1), BuildingBlock: TEMPAE_clean_linker_10, # of connection points: 2
#     Edge 13, Type (0, 1), BuildingBlock: TEMPAE_clean_linker_10, # of connection points: 2
#     Edge 14, Type (0, 1), BuildingBlock: TEMPAE_clean_linker_10, # of connection points: 2
#     Edge 15, Type (0, 1), BuildingBlock: TEMPAE_clean_linker_10, # of connection points: 2
#     Edge 16, Type (0, 1), BuildingBlock: TEMPAE_clean_linker_10, # of connection points: 2
#     Edge 17, Type (0, 1), BuildingBlock: TEMPAE_clean_linker_10, # of connection points: 2
# Relax obj value: 0.038
# Max RMSD: 0.098
# Mean RMSD: 0.090
data_MOF--net-pth--node1-QUQFOY_clean_sbu_3--node2-MUDLON_clean_linker_0--edge1-TEMPAE_clean_linker_10
_symmetry_space_group_name_H-M    P1
_symmetry_Int_Tables_number       1
_symmetry_cell_setting            triclinic
loop_
_symmetry_equiv_pos_as_xyz
'x, y, z'
_cell_length_a     34.194388
_cell_length_b     34.01335
_cell_length_c     71.09146
_cell_angle_alpha  90.062905
_cell_angle_beta   90.676728
_cell_angle_gamma 120.68752
loop_
_atom_site_label
_atom_site_type_symbol
_atom_site_fract_x
_atom_site_fract_y
_atom_site_fract_z
_atom_type_partial_charge
C0 C 0.97392 0.10631 0.06224 0.0
O1 O 0.95235 0.10803 0.04791 0.0
Cd2 Cd 0.9409 0.06447 0.01986 0.0
O3 O 0.98847 0.07849 0.06268 0.0
Cd4 Cd 0.9874 0.01818 0.04264 0.0
C5 C 0.05238 0.09816 0.01086 0.0
O6 O 0.91149 0.9864 0.02865 0.0
O7 O 0.95543 0.96596 0.01589 0.0
O8 O 0.96754 0.96695 0.06922 0.0
C9 C 0.91634 0.96149 0.01673 0.0
O10 O 0.01684 0.09957 0.00659 0.0
C11 C 0.00191 0.96212 0.06827 0.0
O12 O 0.05185 0.07236 0.02394 0.0
O13 O 0.03043 0.98425 0.0555 0.0
C14 C 0.10703 0.03517 0.38827 0.0
O15 O 0.12516 0.05662 0.37324 0.0
Cd16 Cd 0.08504 0.06869 0.3482 0.0
O17 O 0.0648 0.01886 0.39119 0.0
Cd18 Cd -0.00112 0.01643 0.37502 0.0
C19 C 0.00438 0.95749 0.3378 0.0
O20 O 0.04071 0.09448 0.36359 0.0
O21 O 0.97192 0.05406 0.35313 0.0
O22 O 0.97389 0.02841 0.40518 0.0
C23 C 0.0084 0.09258 0.354 0.0
O24 O 0.03811 0.99516 0.33242 0.0
C25 C 0.93328 0.9952 0.4036 0.0
O26 O 0.98559 0.95459 0.3535 0.0
O27 O 0.92345 0.97036 0.38894 0.0
C28 C 0.94508 0.07419 0.69075 0.0
O29 O 0.94816 0.09428 0.70624 0.0
Cd30 Cd 0.99127 0.09285 0.73281 0.0
O31 O 0.96593 0.05244 0.68847 0.0
Cd32 Cd 0.0169 0.03374 0.70632 0.0
C33 C 0.93618 0.97639 0.73886 0.0
O34 O 0.06379 0.10806 0.72203 0.0
O35 O 0.07397 0.05297 0.73071 0.0
O36 O 0.05812 0.04726 0.67729 0.0
C37 C 0.08619 0.09488 0.73182 0.0
O38 O 0.94526 0.0157 0.74456 0.0
C39 C 0.06002 0.01097 0.67774 0.0
O40 O 0.95584 0.97211 0.72455 0.0
O41 O 0.03991 0.98376 0.69121 0.0
H42 H 0.90683 0.67024 0.20541 0.0
N43 N 0.9612 0.63645 0.201 0.0
H44 H 0.90363 0.71338 0.23203 0.0
H45 H 0.00272 0.64666 0.23614 0.0
H46 H -0.003 0.68651 0.26304 0.0
H47 H 0.03839 0.72105 0.20085 0.0
H48 H 0.0618 0.7776 0.17591 0.0
H49 H 0.92311 0.62503 0.16717 0.0
H50 H 0.94456 0.68216 0.14254 0.0
H51 H 0.91392 0.54582 0.20011 0.0
H52 H 0.05067 0.66056 0.20553 0.0
H53 H 0.94255 0.49335 0.20347 0.0
H54 H 0.0794 0.60889 0.20974 0.0
H55 H 0.00047 0.33972 0.2221 0.0
H56 H 0.98851 0.28941 0.24843 0.0
H57 H 0.11866 0.38941 0.27228 0.0
H58 H 0.13151 0.43984 0.24531 0.0
H59 H 0.13604 0.40147 0.19864 0.0
H60 H 0.12058 0.34974 0.17185 0.0
H61 H 0.98615 0.33079 0.16583 0.0
H62 H 0.00143 0.38168 0.19254 0.0
H63 H -0.00063 0.41206 0.22932 0.0
H64 H 0.97308 0.46568 0.22608 0.0
H65 H 0.09312 0.55584 0.19442 0.0
N66 N 0.07848 0.42145 0.21486 0.0
H67 H 0.12063 0.50276 0.19868 0.0
C68 C 0.95577 0.65594 0.21824 0.0
C69 C 0.92649 0.67351 0.21799 0.0
C70 C 0.92436 0.69785 0.23337 0.0
C71 C 0.95057 0.70413 0.24971 0.0
C72 C 0.97744 0.68372 0.2505 0.0
C73 C 0.9805 0.66041 0.23493 0.0
C74 C 0.97909 0.66857 0.18573 0.0
C75 C 0.01867 0.71179 0.18789 0.0
C76 C 0.03161 0.74437 0.17371 0.0
C77 C 0.00491 0.7347 0.15723 0.0
C78 C 0.96641 0.69072 0.15486 0.0
C79 C 0.95385 0.65803 0.16895 0.0
C80 C 0.97988 0.60693 0.20255 0.0
C81 C 0.95009 0.5596 0.20207 0.0
C82 C 0.96655 0.52978 0.20418 0.0
C83 C 0.01334 0.54682 0.20704 0.0
C84 C 0.04328 0.59444 0.20729 0.0
C85 C 0.02682 0.62419 0.2049 0.0
C86 C 0.06758 0.39351 0.23149 0.0
C87 C 0.02661 0.35121 0.23289 0.0
C88 C 0.0196 0.32243 0.248 0.0
C89 C 0.05285 0.33555 0.26218 0.0
C90 C 0.09256 0.37874 0.26145 0.0
C91 C 0.09992 0.4074 0.24612 0.0
C92 C 0.07019 0.39564 0.19762 0.0
C93 C 0.10358 0.38671 0.1913 0.0
C94 C 0.0947 0.35724 0.17604 0.0
C95 C 0.05201 0.33599 0.1669 0.0
C96 C 0.01912 0.34622 0.17279 0.0
C97 C 0.02805 0.37574 0.18797 0.0
C98 C 0.06267 0.45358 0.21442 0.0
C99 C 0.02068 0.44357 0.22198 0.0
C100 C 0.0052 0.47418 0.21986 0.0
C101 C 0.03074 0.51507 0.20986 0.0
C102 C 0.07279 0.52509 0.20246 0.0
C103 C 0.08857 0.49476 0.20481 0.0
H104 H 0.76725 0.13119 0.54127 0.0
N105 N 0.68011 0.07482 0.53323 0.0
H106 H 0.80984 0.13117 0.56901 0.0
H107 H 0.64481 0.01787 0.56338 0.0
H108 H 0.68626 0.01934 0.59187 0.0
H109 H 0.65964 0.98599 0.53114 0.0
H110 H 0.68348 0.95283 0.50644 0.0
H111 H 0.71765 0.11267 0.50083 0.0
H112 H 0.74324 0.08081 0.47644 0.0
H113 H 0.6656 0.14037 0.54437 0.0
H114 H 0.5952 -0.0013 0.52719 0.0
H115 H 0.59302 0.13622 0.54871 0.0
H116 H 0.52254 0.99493 0.53021 0.0
H117 H 0.38447 0.1155 0.57388 0.0
H118 H 0.33029 0.09249 0.59954 0.0
H119 H 0.26649 0.95192 0.58072 0.0
H120 H 0.32038 0.97542 0.555 0.0
H121 H 0.34113 0.98772 0.52334 0.0
H122 H 0.29281 0.977 0.49584 0.0
H123 H 0.32549 0.11736 0.50126 0.0
H124 H 0.37087 0.12629 0.52945 0.0
H125 H 0.46246 0.13227 0.53505 0.0
H126 H 0.53377 0.13342 0.53147 0.0
H127 H 0.46885 0.99372 0.55088 0.0
N128 N 0.38335 0.06369 0.54583 0.0
H129 H 0.39694 0.99224 0.55317 0.0
C130 C 0.70301 0.07507 0.55039 0.0
C131 C 0.7495 0.10688 0.55235 0.0
C132 C 0.77362 0.10696 0.56831 0.0
C133 C 0.75151 0.07553 0.58286 0.0
C134 C 0.70459 0.04372 0.5809 0.0
C135 C 0.68065 0.04314 0.56471 0.0
C136 C 0.68686 0.05184 0.51769 0.0
C137 C 0.67671 0.00633 0.51895 0.0
C138 C 0.69076 0.9876 0.50491 0.0
C139 C 0.71557 0.01418 0.48948 0.0
C140 C 0.72358 0.05896 0.48791 0.0
C141 C 0.7092 0.07742 0.50186 0.0
C142 C 0.63611 0.07036 0.53517 0.0
C143 C 0.63439 0.10854 0.54129 0.0
C144 C 0.59279 0.1061 0.54361 0.0
C145 C 0.55166 0.06539 0.53954 0.0
C146 C 0.55338 0.02676 0.53364 0.0
C147 C 0.59516 0.02904 0.53166 0.0
C148 C 0.3565 0.04743 0.56254 0.0
C149 C 0.3595 0.07962 0.57563 0.0
C150 C 0.32857 0.06632 0.59028 0.0
C151 C 0.29388 0.02035 0.59209 0.0
C152 C 0.29248 0.98765 0.57955 0.0
C153 C 0.32352 0.00105 0.56488 0.0
C154 C 0.35861 0.05758 0.52857 0.0
C155 C 0.33741 0.0159 0.51864 0.0
C156 C 0.31026 0.01006 0.5028 0.0
C157 C 0.30461 0.04611 0.49645 0.0
C158 C 0.32785 0.08841 0.50602 0.0
C159 C 0.35421 0.09384 0.52199 0.0
C160 C 0.42472 0.06263 0.54463 0.0
C161 C 0.46381 0.10199 0.53854 0.0
C162 C 0.50461 0.1026 0.53666 0.0
C163 C 0.50749 0.06386 0.54115 0.0
C164 C 0.46796 0.02409 0.54715 0.0
C165 C 0.42678 0.02332 0.54869 0.0
H166 H 0.62016 0.75198 0.8821 0.0
N167 N 0.62148 0.67873 0.87017 0.0
H168 H 0.65877 0.79937 0.90997 0.0
H169 H 0.6684 0.66118 0.89742 0.0
H170 H 0.70686 0.70804 0.92488 0.0
H171 H 0.70383 0.68395 0.86635 0.0
H172 H 0.75567 0.71748 0.84021 0.0
H173 H 0.60778 0.71176 0.83867 0.0
H174 H 0.66059 0.74778 0.81279 0.0
H175 H 0.53154 0.63546 0.87031 0.0
H176 H 0.64385 0.6117 0.87215 0.0
H177 H 0.47823 0.55326 0.87231 0.0
H178 H 0.59163 0.53052 0.87568 0.0
H179 H 0.32179 0.33466 0.88314 0.0
H180 H 0.26803 0.2957 0.90835 0.0
H181 H 0.36527 0.27003 0.93643 0.0
H182 H 0.41906 0.30812 0.91067 0.0
H183 H 0.37914 0.25882 0.86506 0.0
H184 H 0.32969 0.22111 0.83757 0.0
H185 H 0.32696 0.34396 0.82554 0.0
H186 H 0.3748 0.38105 0.85327 0.0
H187 H 0.39469 0.41053 0.89423 0.0
H188 H 0.44864 0.49164 0.89252 0.0
H189 H 0.53883 0.46428 0.86028 0.0
N190 N 0.40453 0.34109 0.879 0.0
H191 H 0.48577 0.38244 0.86333 0.0
C192 C 0.641 0.70292 0.88762 0.0
C193 C 0.63849 0.74193 0.89159 0.0
C194 C 0.66068 0.76899 0.90741 0.0
C195 C 0.68577 0.75734 0.9196 0.0
C196 C 0.68721 0.71751 0.91591 0.0
C197 C 0.66522 0.69065 0.90006 0.0
C198 C 0.6516 0.69509 0.85439 0.0
C199 C 0.6935 0.69665 0.85454 0.0
C200 C 0.72346 0.71638 0.83961 0.0
C201 C 0.7125 0.73558 0.82439 0.0
C202 C 0.66994 0.73269 0.82409 0.0
C203 C 0.63982 0.71247 0.83891 0.0
C204 C 0.59158 0.62998 0.87131 0.0
C205 C 0.54464 0.6125 0.87138 0.0
C206 C 0.51432 0.56552 0.87272 0.0
C207 C 0.53046 0.53495 0.87436 0.0
C208 C 0.57772 0.55269 0.87419 0.0
C209 C 0.60791 0.59957 0.87243 0.0
C210 C 0.37435 0.32352 0.89484 0.0
C211 C 0.3318 0.3208 0.89467 0.0
C212 C 0.3011 0.29865 0.90908 0.0
C213 C 0.31255 0.27961 0.92412 0.0
C214 C 0.35586 0.28452 0.92491 0.0
C215 C 0.38643 0.30613 0.91028 0.0
C216 C 0.38115 0.32275 0.86122 0.0
C217 C 0.36855 0.27784 0.8563 0.0
C218 C 0.34028 0.25638 0.84071 0.0
C219 C 0.32483 0.27987 0.82957 0.0
C220 C 0.33894 0.32547 0.83389 0.0
C221 C 0.36644 0.34666 0.84972 0.0
C222 C 0.43641 0.38984 0.87912 0.0
C223 C 0.4263 0.42153 0.88709 0.0
C224 C 0.45714 0.4684 0.88584 0.0
C225 C 0.49824 0.4849 0.87619 0.0
C226 C 0.50808 0.45311 0.86818 0.0
C227 C 0.47769 0.40623 0.8698 0.0
C228 C 0.97198 0.17206 0.07701 0.0
C229 C 0.98397 0.13834 0.07817 0.0
C230 C 0.98319 0.20407 0.09156 0.0
C231 C 0.00677 0.2022 0.1077 0.0
C232 C 0.01849 0.16796 0.1091 0.0
C233 C 0.00701 0.13646 0.0943 0.0
C234 C 0.97017 0.24016 0.08959 0.0
C235 C 0.04341 0.16481 0.12618 0.0
C236 C 0.07173 0.31014 0.13736 0.0
C237 C 0.04094 0.30168 0.1518 0.0
C238 C 0.06121 0.27786 0.12296 0.0
C239 C 0.01904 0.23612 0.12313 0.0
C240 C 0.9881 0.22717 0.13782 0.0
C241 C -0.0006 0.26012 0.15197 0.0
C242 C 0.09492 0.28863 0.10744 0.0
C243 C 0.94299 0.18289 0.13856 0.0
H244 H 0.95427 0.17388 0.0646 0.0
H245 H 0.01639 0.11052 0.09533 0.0
H246 H 0.94817 0.23779 0.1014 0.0
H247 H 0.0011 0.27469 0.09029 0.0
H248 H 0.95182 0.23687 0.07614 0.0
H249 H 0.04944 0.13572 0.12521 0.0
H250 H 0.07669 0.19691 0.1279 0.0
H251 H 0.02363 0.16073 0.13904 0.0
H252 H 0.10374 0.34236 0.13716 0.0
H253 H 0.97586 0.25316 0.16331 0.0
H254 H 0.07932 0.28888 0.0937 0.0
H255 H 0.10407 0.26174 0.10661 0.0
H256 H 0.12655 0.32227 0.10956 0.0
H257 H 0.92232 0.17931 0.12582 0.0
H258 H 0.92322 0.18086 0.15118 0.0
H259 H 0.94853 0.15347 0.13863 0.0
C260 C 0.85429 0.95014 0.41626 0.0
C261 C 0.89837 0.98847 0.41739 0.0
C262 C 0.81983 0.94617 0.42809 0.0
C263 C 0.82964 0.98174 0.44107 0.0
C264 C 0.87445 0.01974 0.44266 0.0
C265 C 0.90831 0.02243 0.43091 0.0
C266 C 0.7727 0.90467 0.42632 0.0
C267 C 0.88629 0.05859 0.45624 0.0
C268 C 0.7416 0.00991 0.45708 0.0
C269 C 0.73727 -0.00241 0.47611 0.0
C270 C 0.76951 0.00237 0.44514 0.0
C271 C 0.79299 0.9812 0.4523 0.0
C272 C 0.78565 0.96506 0.47101 0.0
C273 C 0.75819 0.9738 0.48275 0.0
C274 C 0.77646 0.02015 0.42527 0.0
C275 C 0.8093 0.94144 0.47904 0.0
H276 H 0.84647 0.92365 0.40588 0.0
H277 H 0.94227 0.05215 0.43186 0.0
H278 H 0.75972 0.89 0.44038 0.0
H279 H 0.74909 0.91474 0.42024 0.0
H280 H 0.77192 0.87776 0.41718 0.0
H281 H 0.92302 0.08506 0.4561 0.0
H282 H 0.86635 0.07505 0.45258 0.0
H283 H 0.87718 0.04541 0.47076 0.0
H284 H 0.72466 0.02727 0.45171 0.0
H285 H 0.7554 0.96432 0.49743 0.0
H286 H 0.77223 0.99342 0.41513 0.0
H287 H 0.81168 0.04949 0.4239 0.0
H288 H 0.75241 0.0317 0.42131 0.0
H289 H 0.80783 0.91586 0.46891 0.0
H290 H 0.79406 0.92404 0.49249 0.0
H291 H 0.8457 0.96701 0.48172 0.0
C292 C 0.90028 0.89363 0.7476 0.0
C293 C 0.90212 0.93566 0.74917 0.0
C294 C 0.8696 0.85589 0.75835 0.0
C295 C 0.83988 0.86035 0.7707 0.0
C296 C 0.84063 0.90227 0.77183 0.0
C297 C 0.87187 0.9394 0.76115 0.0
C298 C 0.86994 0.81179 0.75693 0.0
C299 C 0.8091 0.9083 0.78466 0.0
C300 C 0.73315 0.76116 0.79096 0.0
C301 C 0.74664 0.76207 0.80976 0.0
C302 C 0.76394 0.79113 0.77768 0.0
C303 C 0.80938 0.8224 0.7833 0.0
C304 C 0.82398 0.82128 0.80189 0.0
C305 C 0.7924 0.79138 0.81493 0.0
C306 C 0.74708 0.79133 0.75798 0.0
C307 C 0.87227 0.85386 0.80841 0.0
H308 H 0.92363 0.89057 0.73838 0.0
H309 H 0.87269 0.9716 0.76227 0.0
H310 H 0.8815 0.80498 0.77054 0.0
H311 H 0.83508 0.78271 0.75408 0.0
H312 H 0.89273 0.8128 0.7457 0.0
H313 H 0.81237 0.94235 0.78313 0.0
H314 H 0.77326 0.88156 0.78164 0.0
H315 H 0.81664 0.90434 0.79952 0.0
H316 H 0.69809 0.73797 0.78675 0.0
H317 H 0.8032 0.79283 0.82943 0.0
H318 H 0.77103 0.79196 0.74743 0.0
H319 H 0.74521 0.82268 0.75599 0.0
H320 H 0.71281 0.76113 0.75514 0.0
H321 H 0.89678 0.85455 0.79814 0.0
H322 H 0.87972 0.84451 0.82241 0.0
H323 H 0.87799 0.88898 0.80938 0.0
C324 C 0.04873 0.93164 0.08226 0.0
C325 C 0.00745 0.93105 0.08109 0.0
C326 C 0.05376 0.90165 0.09426 0.0
C327 C 0.0164 0.86999 0.10509 0.0
C328 C 0.97464 0.86916 0.10387 0.0
C329 C 0.97079 0.89991 0.09201 0.0
C330 C 0.09899 0.90396 0.09544 0.0
C331 C 0.93383 0.83556 0.11504 0.0
C332 C 0.00628 0.76109 0.12409 0.0
C333 C 0.01446 0.77126 0.14339 0.0
C334 C 0.00884 0.79364 0.11127 0.0
C335 C 0.02053 0.83766 0.11785 0.0
C336 C 0.03166 0.8491 0.13708 0.0
C337 C 0.02813 0.8157 0.14964 0.0
C338 C -0.00343 0.78008 0.09086 0.0
C339 C 0.04485 0.89587 0.14461 0.0
H340 H 0.07721 0.95574 0.07388 0.0
H341 H 0.93871 0.89909 0.09109 0.0
H342 H 0.11209 0.91114 0.11016 0.0
H343 H 0.09477 0.87051 0.09136 0.0
H344 H 0.12479 0.93078 0.08622 0.0
H345 H 0.90356 0.83879 0.11221 0.0
H346 H 0.92494 0.80009 0.11159 0.0
H347 H 0.94199 0.84099 0.13031 0.0
H348 H -0.00339 0.72718 0.11906 0.0
H349 H 0.03401 0.82393 0.16451 0.0
H350 H 0.02311 0.80584 0.08159 0.0
H351 H 0.96426 0.77884 0.08733 0.0
H352 H 0.99228 0.74609 0.08768 0.0
H353 H 0.07112 0.92296 0.13566 0.0
H354 H 0.05808 0.9012 0.15931 0.0
H355 H 0.01472 0.90005 0.1443 0.0
C356 C 0.1162 -0.00222 0.41692 0.0
C357 C 0.13576 0.03118 0.40295 0.0
C358 C 0.14289 0.99569 0.43159 0.0
C359 C 0.18998 0.02844 0.43251 0.0
C360 C 0.21007 0.0615 0.41819 0.0
C361 C 0.18278 0.06216 0.40347 0.0
C362 C 0.1205 0.95929 0.44638 0.0
C363 C 0.26001 0.09752 0.41887 0.0
C364 C 0.24758 0.06064 0.48046 0.0
C365 C 0.27391 0.03972 0.48025 0.0
C366 C 0.21996 0.05692 0.46506 0.0
C367 C 0.21759 0.03064 0.44919 0.0
C368 C 0.24275 0.00809 0.44907 0.0
C369 C 0.27099 0.01325 0.46453 0.0
C370 C 0.19396 0.08188 0.46566 0.0
C371 C 0.24036 0.9791 0.4325 0.0
H372 H 0.07993 0.97345 0.41646 0.0
H373 H 0.19807 0.08815 0.39275 0.0
H374 H 0.13973 0.9414 0.44851 0.0
H375 H 0.1208 0.97535 0.46001 0.0
H376 H 0.08471 0.93361 0.44259 0.0
H377 H 0.27082 0.11933 0.40615 0.0
H378 H 0.26731 0.11978 0.43142 0.0
H379 H 0.28096 0.08129 0.42024 0.0
H380 H 0.24854 0.08011 0.49271 0.0
H381 H 0.29141 -0.00276 0.46413 0.0
H382 H 0.157 0.05728 0.4639 0.0
H383 H 0.20439 0.10635 0.45384 0.0
H384 H 0.19968 0.10104 0.47905 0.0
H385 H 0.20441 0.95333 0.42908 0.0
H386 H 0.25931 0.96109 0.43519 0.0
H387 H 0.25477 0.00089 0.41993 0.0
C388 C 0.15745 0.11616 0.74956 0.0
C389 C 0.1238 0.12619 0.74447 0.0
C390 C 0.19231 0.1441 0.76231 0.0
C391 C 0.19276 0.18226 0.77051 0.0
C392 C 0.15933 0.19306 0.76514 0.0
C393 C 0.12546 0.16512 0.75196 0.0
C394 C 0.22797 0.13208 0.76735 0.0
C395 C 0.15822 0.23294 0.7739 0.0
C396 C 0.24945 0.21693 0.81858 0.0
C397 C 0.29123 0.25567 0.81436 0.0
C398 C 0.21659 0.19353 0.80447 0.0
C399 C 0.22634 0.20873 0.78565 0.0
C400 C 0.2686 0.24796 0.78132 0.0
C401 C 0.30045 0.2714 0.79584 0.0
C402 C 0.17156 0.1524 0.80971 0.0
C403 C 0.28048 0.26452 0.76136 0.0
H404 H 0.15645 0.0863 0.74359 0.0
H405 H 0.09931 0.17276 0.74806 0.0
H406 H 0.26252 0.16241 0.76579 0.0
H407 H 0.22444 0.12151 0.78229 0.0
H408 H 0.22516 0.10385 0.75846 0.0
H409 H 0.13149 0.23819 0.76746 0.0
H410 H 0.15166 0.22694 0.78918 0.0
H411 H 0.19162 0.2648 0.77242 0.0
H412 H 0.24232 0.2053 0.83301 0.0
H413 H 0.33293 0.30145 0.79269 0.0
H414 H 0.16759 0.1213 0.80278 0.0
H415 H 0.14317 0.15672 0.80464 0.0
H416 H 0.16842 0.14673 0.82514 0.0
H417 H 0.28026 0.23747 0.75253 0.0
H418 H 0.31446 0.29604 0.76042 0.0
H419 H 0.25462 0.27152 0.75531 0.0
C420 C 0.9249 0.06929 0.65664 0.0
C421 C 0.91628 0.07519 0.67534 0.0
C422 C 0.89764 0.06981 0.64186 0.0
C423 C 0.86022 0.07521 0.64596 0.0
C424 C 0.85106 0.08071 0.66484 0.0
C425 C 0.87959 0.0812 0.6793 0.0
C426 C 0.90906 0.0649 0.62186 0.0
C427 C 0.81085 0.08551 0.66977 0.0
C428 C 0.81373 0.11675 0.60703 0.0
C429 C 0.77774 0.0755 0.59973 0.0
C430 C 0.84077 0.11715 0.62209 0.0
C431 C 0.83086 0.07539 0.63044 0.0
C432 C 0.79369 0.03375 0.62363 0.0
C433 C 0.76791 0.03424 0.60822 0.0
C434 C 0.88053 0.16222 0.62881 0.0
C435 C 0.7816 0.98859 0.63242 0.0
H436 H 0.95341 0.06489 0.65352 0.0
H437 H 0.87257 0.08533 0.69377 0.0
H438 H 0.88022 0.03405 0.6152 0.0
H439 H 0.9146 0.09481 0.6135 0.0
H440 H 0.93999 0.06212 0.62105 0.0
H441 H 0.80792 0.08856 0.68518 0.0
H442 H 0.8138 0.11615 0.66289 0.0
H443 H 0.77898 0.05541 0.6644 0.0
H444 H 0.82104 0.14892 0.60091 0.0
H445 H 0.74069 0.0021 0.60259 0.0
H446 H 0.91257 0.16172 0.62743 0.0
H447 H 0.87684 0.16763 0.64392 0.0
H448 H 0.88372 0.19167 0.62076 0.0
H449 H 0.8096 0.98162 0.63031 0.0
H450 H 0.74979 0.95966 0.62633 0.0
H451 H 0.77739 0.98997 0.64782 0.0
C452 C 0.83642 0.92702 0.00451 0.0
C453 C 0.87931 0.93113 0.00353 0.0
C454 C 0.80138 0.89887 0.99179 0.0
C455 C 0.80959 0.87447 0.97777 0.0
C456 C 0.85271 0.87824 0.97683 0.0
C457 C 0.88701 0.90646 0.98974 0.0
C458 C 0.75574 0.89548 0.99324 0.0
C459 C 0.86278 0.85279 0.96205 0.0
C460 C 0.71456 0.77008 0.95292 0.0
C461 C 0.71315 0.7881 0.93536 0.0
C462 C 0.74438 0.79823 0.96722 0.0
C463 C 0.77356 0.84543 0.96381 0.0
C464 C 0.77085 0.86415 0.94642 0.0
C465 C 0.74062 0.83524 0.93239 0.0
C466 C 0.74602 0.77712 0.98567 0.0
C467 C 0.80151 0.91432 0.94225 0.0
H468 H 0.83024 0.94594 0.01517 0.0
H469 H 0.92005 0.90944 0.98892 0.0
H470 H 0.74803 0.90782 0.98006 0.0
H471 H 0.72855 0.85926 -0.00505 0.0
H472 H 0.75451 0.91576 0.00523 0.0
H473 H 0.89796 0.85914 0.96334 0.0
H474 H 0.83857 0.8155 0.96318 0.0
H475 H 0.85818 0.86328 0.94781 0.0
H476 H 0.69292 0.73373 0.95533 0.0
H477 H 0.74001 0.84926 0.91878 0.0
H478 H 0.74353 0.79666 -0.00237 0.0
H479 H 0.77908 0.77859 0.98715 0.0
H480 H 0.71826 0.74086 0.98672 0.0
H481 H 0.79979 0.93557 0.95369 0.0
H482 H 0.79243 0.92417 0.92872 0.0
H483 H 0.83728 0.92245 0.94156 0.0
C484 C 0.99443 0.92104 0.30637 0.0
C485 C 0.98836 0.91644 0.32586 0.0
C486 C 0.983 0.88306 0.2949 0.0
C487 C 0.96618 0.83963 0.30321 0.0
C488 C 0.95874 0.8345 0.32283 0.0
C489 C 0.96946 0.873 0.33393 0.0
C490 C 0.99042 0.88975 0.27396 0.0
C491 C 0.94172 0.78891 0.33221 0.0
C492 C 0.91451 0.73829 0.26952 0.0
C493 C 0.95262 0.73479 0.26518 0.0
C494 C 0.91788 0.77129 0.28237 0.0
C495 C 0.96006 0.80073 0.29144 0.0
C496 C -0.00212 0.79559 0.28801 0.0
C497 C 0.99389 0.7632 0.27476 0.0
C498 C 0.87695 0.77615 0.28552 0.0
C499 C 0.04329 0.82581 0.29767 0.0
H500 H 0.00858 0.95455 0.30009 0.0
H501 H 0.96496 0.86943 0.34902 0.0
H502 H 0.01826 0.8839 0.26985 0.0
H503 H 0.95932 0.86454 0.26612 0.0
H504 H -0.00049 0.92469 0.26954 0.0
H505 H 0.9338 0.78974 0.34727 0.0
H506 H 0.91078 0.76187 0.32488 0.0
H507 H 0.96802 0.7791 0.33131 0.0
H508 H 0.88218 0.71591 0.26257 0.0
H509 H 0.02386 0.7616 0.27138 0.0
H510 H 0.88353 0.80925 0.27975 0.0
H511 H 0.87073 0.77648 0.30078 0.0
H512 H 0.8457 0.74818 0.27866 0.0
H513 H 0.05842 0.86129 0.29242 0.0
H514 H 0.06765 0.81398 0.29512 0.0
H515 H 0.03887 0.82684 0.31306 0.0
C516 C 0.09614 0.96713 0.66651 0.0
C517 C 0.08777 0.00315 0.66411 0.0
C518 C 0.12703 0.96308 0.65498 0.0
C519 C 0.14997 0.99584 0.64078 0.0
C520 C 0.14011 0.03105 0.63779 0.0
C521 C 0.10913 0.03424 0.64948 0.0
C522 C 0.13644 0.92488 0.65845 0.0
C523 C 0.16364 0.06652 0.62272 0.0
C524 C 0.26695 0.02744 0.62386 0.0
C525 C 0.25696 0.00778 0.6058 0.0
C526 C 0.23214 0.02159 0.63586 0.0
C527 C 0.18626 0.99537 0.62966 0.0
C528 C 0.17582 0.97305 0.61194 0.0
C529 C 0.21133 0.97961 0.60019 0.0
C530 C 0.24466 0.04573 0.65472 0.0
C531 C 0.12733 0.94462 0.60488 0.0
H532 H 0.07972 0.94297 0.67779 0.0
H533 H 0.10267 0.06203 0.64747 0.0
H534 H 0.13376 0.90669 0.6451 0.0
H535 H 0.17171 0.93933 0.66393 0.0
H536 H 0.11268 0.89975 0.66876 0.0
H537 H 0.15041 0.09024 0.62159 0.0
H538 H 0.20068 0.0869 0.62588 0.0
H539 H 0.15931 0.04966 0.60886 0.0
H540 H 0.30213 0.04863 0.62837 0.0
H541 H 0.2033 0.96463 0.5862 0.0
H542 H 0.22449 0.02163 0.66602 0.0
H543 H 0.2365 0.0734 0.65463 0.0
H544 H 0.28138 0.06103 0.6582 0.0
H545 H 0.10535 0.92082 0.61591 0.0
H546 H 0.12456 0.92449 0.59209 0.0
H547 H 0.11393 0.96739 0.60139 0.0
C548 C 0.12745 0.11398 -0.00121 0.0
C549 C 0.09449 0.12664 0.00028 0.0
C550 C 0.16591 0.1391 0.9876 0.0
C551 C 0.17182 0.17822 0.97803 0.0
C552 C 0.13963 0.19226 0.98018 0.0
C553 C 0.1011 0.166 0.99112 0.0
C554 C 0.19912 0.12267 0.98536 0.0
C555 C 0.14518 0.23428 0.97048 0.0
C556 C 0.2862 0.26384 0.9574 0.0
C557 C 0.27803 0.25237 0.93827 0.0
C558 C 0.25214 0.23953 0.97066 0.0
C559 C 0.20953 0.20249 0.96457 0.0
C560 C 0.2019 0.1899 0.9453 0.0
C561 C 0.23613 0.21531 0.93236 0.0
C562 C 0.26115 0.25438 0.99104 0.0
C563 C 0.15723 0.15013 0.93829 0.0
H564 H 0.12238 0.08349 0.00583 0.0
H565 H 0.07596 0.17623 0.99243 0.0
H566 H 0.19817 0.11169 0.97057 0.0
H567 H 0.2343 0.15085 0.98842 0.0
H568 H 0.19133 0.09352 -0.00527 0.0
H569 H 0.11938 0.24285 0.97498 0.0
H570 H 0.17955 0.26408 0.97345 0.0
H571 H 0.14195 0.22864 0.95503 0.0
H572 H 0.31869 0.29267 0.96187 0.0
H573 H 0.23019 0.20629 0.91754 0.0
H574 H 0.25415 0.22507 0.00013 0.0
H575 H 0.23788 0.26636 -0.00461 0.0
H576 H 0.29676 0.28239 0.99362 0.0
H577 H 0.14862 0.1189 0.94637 0.0
H578 H 0.15799 0.14289 0.9231 0.0
H579 H 0.12957 0.15756 0.9405 0.0
C580 C 0.97745 0.13287 0.3352 0.0
C581 C 0.01498 0.13156 0.34252 0.0
C582 C 0.98346 0.16861 0.32345 0.0
C583 C 0.02801 0.20316 0.31863 0.0
C584 C 0.06602 0.2025 0.32633 0.0
C585 C 0.05903 0.16691 0.33835 0.0
C586 C 0.94214 0.16869 0.31578 0.0
C587 C 0.11401 0.23823 0.32122 0.0
C588 C 0.04071 0.25991 0.27151 0.0
C589 C 0.04728 0.30251 0.27685 0.0
C590 C 0.03492 0.22753 0.28502 0.0
C591 C 0.03478 0.23775 0.30431 0.0
C592 C 0.04125 0.28077 0.30979 0.0
C593 C 0.048 0.313 0.29594 0.0
C594 C 0.02913 0.18246 0.27862 0.0
C595 C 0.04047 0.29244 0.33022 0.0
H596 H 0.94336 0.10578 0.33856 0.0
H597 H 0.08815 0.16594 0.34396 0.0
H598 H 0.94556 0.20256 0.31818 0.0
H599 H 0.93931 0.16254 0.30037 0.0
H600 H 0.91019 0.14201 0.32233 0.0
H601 H 0.13987 0.23431 0.32925 0.0
H602 H 0.11909 0.23565 0.30598 0.0
H603 H 0.11995 0.27301 0.32388 0.0
H604 H 0.04063 0.25217 0.2567 0.0
H605 H 0.05291 0.346 0.29997 0.0
H606 H -0.00437 0.1539 0.28309 0.0
H607 H 0.05563 0.17728 0.28531 0.0
H608 H 0.0314 0.18049 0.26311 0.0
H609 H 0.00744 0.26715 0.33643 0.0
H610 H 0.04555 0.32719 0.33211 0.0
H611 H 0.06746 0.29052 0.33824 0.0
loop_
_geom_bond_atom_site_label_1
_geom_bond_atom_site_label_2
_geom_bond_distance
_geom_bond_site_symmetry_2
_ccdc_geom_bond_type
C0 O1 1.306 1_455 S
C0 O3 1.160 . S
O1 C0 1.306 1_655 S
O1 Cd2 2.228 . S
Cd2 O1 2.228 . S
Cd2 O6 2.273 . S
Cd2 O10 2.277 1_655 S
O3 C0 1.160 . S
O3 Cd4 2.203 . S
Cd4 O3 2.203 . S
Cd4 O6 2.411 1_455 S
Cd4 O7 2.333 1_445 S
Cd4 O8 2.352 1_445 S
Cd4 O12 2.277 . S
Cd4 O13 2.356 1_545 S
C5 O10 1.209 . S
C5 O12 1.226 . S
O6 Cd2 2.273 . S
O6 Cd4 2.411 1_655 S
O6 C9 1.320 1_545 S
O7 Cd4 2.333 1_665 S
O7 C9 1.214 . S
O8 Cd4 2.352 1_665 S
O8 C11 1.258 1_655 S
C9 O6 1.320 1_565 S
C9 O7 1.214 . S
O10 Cd2 2.277 1_455 S
O10 C5 1.209 . S
C11 O8 1.258 1_455 S
C11 O13 1.282 . S
O12 Cd4 2.277 . S
O12 C5 1.226 . S
O13 Cd4 2.356 1_565 S
O13 C11 1.282 . S
C14 O15 1.306 . S
C14 O17 1.160 . S
O15 C14 1.306 . S
O15 Cd16 2.228 . S
Cd16 O15 2.228 . S
Cd16 O20 2.273 . S
Cd16 O24 2.277 1_545 S
O17 C14 1.160 . S
O17 Cd18 2.203 1_455 S
Cd18 O17 2.203 1_655 S
Cd18 O20 2.411 1_655 S
Cd18 O21 2.333 . S
Cd18 O22 2.352 . S
Cd18 O26 2.277 1_545 S
Cd18 O27 2.356 1_545 S
C19 O24 1.209 . S
C19 O26 1.226 1_455 S
O20 Cd16 2.273 . S
O20 Cd18 2.411 1_455 S
O20 C23 1.320 . S
O21 Cd18 2.333 . S
O21 C23 1.214 1_655 S
O22 Cd18 2.352 . S
O22 C25 1.258 . S
C23 O20 1.320 . S
C23 O21 1.214 1_455 S
O24 Cd16 2.277 1_565 S
O24 C19 1.209 . S
C25 O22 1.258 . S
C25 O27 1.282 1_545 S
O26 Cd18 2.277 1_565 S
O26 C19 1.226 1_655 S
O27 Cd18 2.356 1_565 S
O27 C25 1.282 1_565 S
C28 O29 1.306 . S
C28 O31 1.160 . S
O29 C28 1.306 . S
O29 Cd30 2.228 . S
Cd30 O29 2.228 . S
Cd30 O34 2.273 1_655 S
Cd30 O38 2.277 . S
O31 C28 1.160 . S
O31 Cd32 2.203 1_655 S
Cd32 O31 2.203 1_455 S
Cd32 O34 2.411 . S
Cd32 O35 2.333 . S
Cd32 O36 2.352 . S
Cd32 O40 2.277 1_445 S
Cd32 O41 2.356 1_545 S
C33 O38 1.209 1_565 S
C33 O40 1.226 . S
O34 Cd30 2.273 1_455 S
O34 Cd32 2.411 . S
O34 C37 1.320 . S
O35 Cd32 2.333 . S
O35 C37 1.214 . S
O36 Cd32 2.352 . S
O36 C39 1.258 . S
C37 O34 1.320 . S
C37 O35 1.214 . S
O38 Cd30 2.277 . S
O38 C33 1.209 1_545 S
C39 O36 1.258 . S
C39 O41 1.282 1_545 S
O40 Cd32 2.277 1_665 S
O40 C33 1.226 . S
O41 Cd32 2.356 1_565 S
O41 C39 1.282 1_565 S
H42 C69 0.948 . S
N43 C68 1.433 . S
N43 C74 1.435 . S
N43 C80 1.423 . S
H44 C70 0.930 1_655 S
H45 C73 0.931 . S
H46 C72 0.929 . S
H47 C75 0.930 . S
H48 C76 0.932 . S
H49 C79 0.929 . S
H50 C78 0.921 1_655 S
H51 C81 0.929 . S
H52 C85 0.932 . S
H53 C82 0.931 . S
H54 C84 0.929 . S
H55 C87 0.934 . S
H56 C88 0.930 1_655 S
H57 C90 0.929 . S
H58 C91 0.931 . S
H59 C93 0.930 . S
H60 C94 0.932 . S
H61 C96 0.918 1_655 S
H62 C97 0.929 . S
H63 C99 0.929 . S
H64 C100 0.931 . S
H65 C102 0.929 . S
N66 C86 1.433 . S
N66 C92 1.435 . S
N66 C98 1.423 . S
H67 C103 0.932 . S
C68 N43 1.433 . S
C68 C69 1.343 1_455 S
C68 C73 1.370 . S
C69 H42 0.948 . S
C69 C68 1.343 1_655 S
C69 C70 1.388 1_655 S
C70 H44 0.930 1_455 S
C70 C69 1.388 1_455 S
C70 C71 1.357 . S
C71 C70 1.357 . S
C71 C72 1.406 . S
C72 H46 0.929 . S
C72 C71 1.406 . S
C72 C73 1.391 . S
C73 H45 0.931 . S
C73 C68 1.370 . S
C73 C72 1.391 . S
C74 N43 1.435 . S
C74 C75 1.358 . S
C74 C79 1.371 1_455 S
C75 H47 0.930 . S
C75 C74 1.358 . S
C75 C76 1.405 . S
C76 H48 0.932 . S
C76 C75 1.405 . S
C76 C77 1.383 . S
C77 C76 1.383 . S
C77 C78 1.398 . S
C78 H50 0.921 1_455 S
C78 C77 1.398 . S
C78 C79 1.387 1_455 S
C79 H49 0.929 . S
C79 C74 1.371 1_655 S
C79 C78 1.387 1_655 S
C80 N43 1.423 . S
C80 C81 1.362 1_455 S
C80 C85 1.388 . S
C81 H51 0.929 . S
C81 C80 1.362 1_655 S
C81 C82 1.376 . S
C82 H53 0.931 . S
C82 C81 1.376 . S
C82 C83 1.383 1_655 S
C83 C82 1.383 1_455 S
C83 C84 1.352 . S
C83 C101 1.472 . S
C84 H54 0.929 . S
C84 C83 1.352 . S
C84 C85 1.443 . S
C85 H52 0.932 . S
C85 C80 1.388 . S
C85 C84 1.443 . S
C86 N66 1.433 . S
C86 C87 1.366 1_455 S
C86 C91 1.370 . S
C87 H55 0.934 . S
C87 C86 1.366 1_655 S
C87 C88 1.379 1_655 S
C88 H56 0.930 1_455 S
C88 C87 1.379 1_455 S
C88 C89 1.357 . S
C89 C88 1.357 . S
C89 C90 1.406 . S
C90 H57 0.929 . S
C90 C89 1.406 . S
C90 C91 1.391 . S
C91 H58 0.931 . S
C91 C86 1.370 . S
C91 C90 1.391 . S
C92 N66 1.435 . S
C92 C93 1.358 . S
C92 C97 1.371 1_455 S
C93 H59 0.930 . S
C93 C92 1.358 . S
C93 C94 1.405 . S
C94 H60 0.932 . S
C94 C93 1.405 . S
C94 C95 1.383 . S
C95 C94 1.383 . S
C95 C96 1.417 . S
C96 H61 0.918 1_455 S
C96 C95 1.417 . S
C96 C97 1.371 1_455 S
C97 H62 0.929 . S
C97 C92 1.371 1_655 S
C97 C96 1.371 1_655 S
C98 N66 1.423 . S
C98 C99 1.362 1_455 S
C98 C103 1.388 . S
C99 H63 0.929 . S
C99 C98 1.362 1_655 S
C99 C100 1.376 . S
C100 H64 0.931 . S
C100 C99 1.376 . S
C100 C101 1.392 1_655 S
C101 C83 1.472 . S
C101 C100 1.392 1_455 S
C101 C102 1.361 . S
C102 H65 0.929 . S
C102 C101 1.361 . S
C102 C103 1.443 . S
C103 H67 0.932 . S
C103 C98 1.388 . S
C103 C102 1.443 . S
H104 C131 0.929 . S
N105 C130 1.433 . S
N105 C136 1.435 . S
N105 C142 1.423 . S
H106 C132 0.930 . S
H107 C135 0.931 1_565 S
H108 C134 0.929 1_565 S
H109 C137 0.930 1_565 S
H110 C138 0.932 . S
H111 C141 0.929 . S
H112 C140 0.931 . S
H113 C143 0.929 . S
H114 C147 0.932 . S
H115 C144 0.931 . S
H116 C146 0.929 . S
H117 C149 0.929 . S
H118 C150 0.930 . S
H119 C152 0.929 1_565 S
H120 C153 0.931 1_565 S
H121 C155 0.930 1_565 S
H122 C156 0.932 . S
H123 C158 0.931 . S
H124 C159 0.929 . S
H125 C161 0.929 . S
H126 C162 0.931 . S
H127 C164 0.929 . S
N128 C148 1.433 . S
N128 C154 1.435 . S
N128 C160 1.423 . S
H129 C165 0.932 . S
C130 N105 1.433 . S
C130 C131 1.363 . S
C130 C135 1.370 . S
C131 H104 0.929 . S
C131 C130 1.363 . S
C131 C132 1.385 . S
C132 H106 0.930 . S
C132 C131 1.385 . S
C132 C133 1.357 . S
C133 C132 1.357 . S
C133 C134 1.406 . S
C134 H108 0.929 1_545 S
C134 C133 1.406 . S
C134 C135 1.391 . S
C135 H107 0.931 1_545 S
C135 C130 1.370 . S
C135 C134 1.391 . S
C136 N105 1.435 . S
C136 C137 1.358 . S
C136 C141 1.371 . S
C137 H109 0.930 1_545 S
C137 C136 1.358 . S
C137 C138 1.405 1_545 S
C138 H110 0.932 . S
C138 C137 1.405 1_565 S
C138 C139 1.383 1_565 S
C139 C138 1.383 1_545 S
C139 C140 1.393 . S
C140 H112 0.931 . S
C140 C139 1.393 . S
C140 C141 1.382 . S
C141 H111 0.929 . S
C141 C136 1.371 . S
C141 C140 1.382 . S
C142 N105 1.423 . S
C142 C143 1.362 . S
C142 C147 1.388 . S
C143 H113 0.929 . S
C143 C142 1.362 . S
C143 C144 1.376 . S
C144 H115 0.931 . S
C144 C143 1.376 . S
C144 C145 1.396 . S
C145 C144 1.396 . S
C145 C146 1.348 . S
C145 C163 1.472 . S
C146 H116 0.929 . S
C146 C145 1.348 . S
C146 C147 1.443 . S
C147 H114 0.932 . S
C147 C142 1.388 . S
C147 C146 1.443 . S
C148 N128 1.433 . S
C148 C149 1.363 . S
C148 C153 1.370 . S
C149 H117 0.929 . S
C149 C148 1.363 . S
C149 C150 1.385 . S
C150 H118 0.930 . S
C150 C149 1.385 . S
C150 C151 1.357 . S
C151 C150 1.357 . S
C151 C152 1.406 . S
C152 H119 0.929 1_545 S
C152 C151 1.406 . S
C152 C153 1.391 . S
C153 H120 0.931 1_545 S
C153 C148 1.370 . S
C153 C152 1.391 . S
C154 N128 1.435 . S
C154 C155 1.358 . S
C154 C159 1.371 . S
C155 H121 0.930 1_545 S
C155 C154 1.358 . S
C155 C156 1.405 1_545 S
C156 H122 0.932 . S
C156 C155 1.405 1_565 S
C156 C157 1.383 1_565 S
C157 C156 1.383 1_545 S
C157 C158 1.393 . S
C158 H123 0.931 . S
C158 C157 1.393 . S
C158 C159 1.382 . S
C159 H124 0.929 . S
C159 C154 1.371 . S
C159 C158 1.382 . S
C160 N128 1.423 . S
C160 C161 1.362 . S
C160 C165 1.388 . S
C161 H125 0.929 . S
C161 C160 1.362 . S
C161 C162 1.376 . S
C162 H126 0.931 . S
C162 C161 1.376 . S
C162 C163 1.396 . S
C163 C145 1.472 . S
C163 C162 1.396 . S
C163 C164 1.348 . S
C164 H127 0.929 . S
C164 C163 1.348 . S
C164 C165 1.443 . S
C165 H129 0.932 . S
C165 C160 1.388 . S
C165 C164 1.443 . S
H166 C193 0.929 . S
N167 C192 1.433 . S
N167 C198 1.435 . S
N167 C204 1.423 . S
H168 C194 0.930 . S
H169 C197 0.931 . S
H170 C196 0.929 . S
H171 C199 0.930 . S
H172 C200 0.932 . S
H173 C203 0.929 . S
H174 C202 0.931 . S
H175 C205 0.929 . S
H176 C209 0.932 . S
H177 C206 0.931 . S
H178 C208 0.929 . S
H179 C211 0.929 . S
H180 C212 0.930 . S
H181 C214 0.929 . S
H182 C215 0.931 . S
H183 C217 0.930 . S
H184 C218 0.932 . S
H185 C220 0.931 . S
H186 C221 0.929 . S
H187 C223 0.929 . S
H188 C224 0.931 . S
H189 C226 0.929 . S
N190 C210 1.433 . S
N190 C216 1.435 . S
N190 C222 1.423 . S
H191 C227 0.932 . S
C192 N167 1.433 . S
C192 C193 1.363 . S
C192 C197 1.370 . S
C193 H166 0.929 . S
C193 C192 1.363 . S
C193 C194 1.385 . S
C194 H168 0.930 . S
C194 C193 1.385 . S
C194 C195 1.357 . S
C195 C194 1.357 . S
C195 C196 1.406 . S
C196 H170 0.929 . S
C196 C195 1.406 . S
C196 C197 1.391 . S
C197 H169 0.931 . S
C197 C192 1.370 . S
C197 C196 1.391 . S
C198 N167 1.435 . S
C198 C199 1.358 . S
C198 C203 1.371 . S
C199 H171 0.930 . S
C199 C198 1.358 . S
C199 C200 1.405 . S
C200 H172 0.932 . S
C200 C199 1.405 . S
C200 C201 1.383 . S
C201 C200 1.383 . S
C201 C202 1.393 . S
C202 H174 0.931 . S
C202 C201 1.393 . S
C202 C203 1.382 . S
C203 H173 0.929 . S
C203 C198 1.371 . S
C203 C202 1.382 . S
C204 N167 1.423 . S
C204 C205 1.362 . S
C204 C209 1.388 . S
C205 H175 0.929 . S
C205 C204 1.362 . S
C205 C206 1.376 . S
C206 H177 0.931 . S
C206 C205 1.376 . S
C206 C207 1.396 . S
C207 C206 1.396 . S
C207 C208 1.348 . S
C207 C225 1.472 . S
C208 H178 0.929 . S
C208 C207 1.348 . S
C208 C209 1.443 . S
C209 H176 0.932 . S
C209 C204 1.388 . S
C209 C208 1.443 . S
C210 N190 1.433 . S
C210 C211 1.363 . S
C210 C215 1.370 . S
C211 H179 0.929 . S
C211 C210 1.363 . S
C211 C212 1.385 . S
C212 H180 0.930 . S
C212 C211 1.385 . S
C212 C213 1.357 . S
C213 C212 1.357 . S
C213 C214 1.406 . S
C214 H181 0.929 . S
C214 C213 1.406 . S
C214 C215 1.391 . S
C215 H182 0.931 . S
C215 C210 1.370 . S
C215 C214 1.391 . S
C216 N190 1.435 . S
C216 C217 1.358 . S
C216 C221 1.371 . S
C217 H183 0.930 . S
C217 C216 1.358 . S
C217 C218 1.405 . S
C218 H184 0.932 . S
C218 C217 1.405 . S
C218 C219 1.383 . S
C219 C218 1.383 . S
C219 C220 1.393 . S
C220 H185 0.931 . S
C220 C219 1.393 . S
C220 C221 1.382 . S
C221 H186 0.929 . S
C221 C216 1.371 . S
C221 C220 1.382 . S
C222 N190 1.423 . S
C222 C223 1.362 . S
C222 C227 1.388 . S
C223 H187 0.929 . S
C223 C222 1.362 . S
C223 C224 1.376 . S
C224 H188 0.931 . S
C224 C223 1.376 . S
C224 C225 1.396 . S
C225 C207 1.472 . S
C225 C224 1.396 . S
C225 C226 1.348 . S
C226 H189 0.929 . S
C226 C225 1.348 . S
C226 C227 1.443 . S
C227 H191 0.932 . S
C227 C222 1.388 . S
C227 C226 1.443 . S
C228 C229 1.391 1_655 S
C228 C230 1.394 . S
C228 H244 0.931 . S
C229 C228 1.391 1_455 S
C229 C233 1.376 . S
C230 C228 1.394 . S
C230 C231 1.369 1_655 S
C230 C234 1.531 . S
C231 C230 1.369 1_455 S
C231 C232 1.410 . S
C231 C239 1.503 . S
C232 C231 1.410 . S
C232 C233 1.392 . S
C232 C235 1.511 . S
C233 C229 1.376 . S
C233 C232 1.392 . S
C233 H245 0.929 . S
C234 C230 1.531 . S
C234 H246 0.960 . S
C234 H247 0.962 . S
C234 H248 0.960 . S
C235 C232 1.511 . S
C235 H249 0.961 . S
C235 H250 0.961 . S
C235 H251 0.961 . S
C236 C237 1.370 . S
C236 C238 1.363 . S
C236 H252 0.931 . S
C237 C236 1.370 . S
C237 C241 1.408 . S
C238 C236 1.363 . S
C238 C239 1.370 . S
C238 C242 1.524 . S
C239 C231 1.503 . S
C239 C238 1.370 . S
C239 C240 1.403 . S
C240 C239 1.403 . S
C240 C241 1.404 . S
C240 C243 1.539 . S
C241 C237 1.408 . S
C241 C240 1.404 . S
C241 H253 0.930 . S
C242 C238 1.524 . S
C242 H254 0.956 . S
C242 H255 0.961 . S
C242 H256 0.961 . S
C243 C240 1.539 . S
C243 H257 0.958 1_455 S
C243 H258 0.961 . S
C243 H259 0.960 . S
H244 C228 0.931 . S
H245 C233 0.929 . S
H246 C234 0.960 . S
H247 C234 0.962 . S
H248 C234 0.960 . S
H249 C235 0.961 . S
H250 C235 0.961 . S
H251 C235 0.961 . S
H252 C236 0.931 . S
H253 C241 0.930 . S
H254 C242 0.956 . S
H255 C242 0.961 . S
H256 C242 0.961 . S
H257 C243 0.958 1_655 S
H258 C243 0.961 . S
H259 C243 0.960 . S
C260 C261 1.391 1_565 S
C260 C262 1.394 . S
C260 H276 0.931 . S
C261 C260 1.391 1_545 S
C261 C265 1.376 . S
C262 C260 1.394 . S
C262 C263 1.369 1_565 S
C262 C266 1.531 . S
C263 C262 1.369 1_545 S
C263 C264 1.410 . S
C263 C271 1.503 . S
C264 C263 1.410 . S
C264 C265 1.392 . S
C264 C267 1.511 . S
C265 C261 1.376 . S
C265 C264 1.392 . S
C265 H277 0.929 . S
C266 C262 1.531 . S
C266 H278 0.960 . S
C266 H279 0.962 . S
C266 H280 0.960 . S
C267 C264 1.511 . S
C267 H281 0.961 . S
C267 H282 0.961 . S
C267 H283 0.961 . S
C268 C269 1.370 . S
C268 C270 1.363 . S
C268 H284 0.931 1_545 S
C269 C268 1.370 . S
C269 C273 1.408 . S
C270 C268 1.363 . S
C270 C271 1.370 . S
C270 C274 1.524 1_545 S
C271 C263 1.503 . S
C271 C270 1.370 . S
C271 C272 1.403 . S
C272 C271 1.403 . S
C272 C273 1.404 . S
C272 C275 1.539 . S
C273 C269 1.408 . S
C273 C272 1.404 . S
C273 H285 0.930 . S
C274 C270 1.524 1_565 S
C274 H286 0.956 . S
C274 H287 0.961 1_565 S
C274 H288 0.961 . S
C275 C272 1.539 . S
C275 H289 0.958 . S
C275 H290 0.961 . S
C275 H291 0.960 . S
H276 C260 0.931 . S
H277 C265 0.929 . S
H278 C266 0.960 . S
H279 C266 0.962 . S
H280 C266 0.960 . S
H281 C267 0.961 . S
H282 C267 0.961 . S
H283 C267 0.961 . S
H284 C268 0.931 1_565 S
H285 C273 0.930 . S
H286 C274 0.956 . S
H287 C274 0.961 1_545 S
H288 C274 0.961 . S
H289 C275 0.958 . S
H290 C275 0.961 . S
H291 C275 0.960 . S
C292 C293 1.391 . S
C292 C294 1.394 . S
C292 H308 0.931 . S
C293 C292 1.391 . S
C293 C297 1.376 . S
C294 C292 1.394 . S
C294 C295 1.369 . S
C294 C298 1.531 . S
C295 C294 1.369 . S
C295 C296 1.410 . S
C295 C303 1.503 . S
C296 C295 1.410 . S
C296 C297 1.392 . S
C296 C299 1.511 . S
C297 C293 1.376 . S
C297 C296 1.392 . S
C297 H309 0.929 . S
C298 C294 1.531 . S
C298 H310 0.960 . S
C298 H311 0.962 . S
C298 H312 0.960 . S
C299 C296 1.511 . S
C299 H313 0.961 . S
C299 H314 0.961 . S
C299 H315 0.961 . S
C300 C301 1.370 . S
C300 C302 1.363 . S
C300 H316 0.931 . S
C301 C300 1.370 . S
C301 C305 1.408 . S
C302 C300 1.363 . S
C302 C303 1.370 . S
C302 C306 1.524 . S
C303 C295 1.503 . S
C303 C302 1.370 . S
C303 C304 1.403 . S
C304 C303 1.403 . S
C304 C305 1.404 . S
C304 C307 1.539 . S
C305 C301 1.408 . S
C305 C304 1.404 . S
C305 H317 0.930 . S
C306 C302 1.524 . S
C306 H318 0.956 . S
C306 H319 0.961 . S
C306 H320 0.961 . S
C307 C304 1.539 . S
C307 H321 0.958 . S
C307 H322 0.961 . S
C307 H323 0.960 . S
H308 C292 0.931 . S
H309 C297 0.929 . S
H310 C298 0.960 . S
H311 C298 0.962 . S
H312 C298 0.960 . S
H313 C299 0.961 . S
H314 C299 0.961 . S
H315 C299 0.961 . S
H316 C300 0.931 . S
H317 C305 0.930 . S
H318 C306 0.956 . S
H319 C306 0.961 . S
H320 C306 0.961 . S
H321 C307 0.958 . S
H322 C307 0.961 . S
H323 C307 0.960 . S
C324 C325 1.391 . S
C324 C326 1.394 . S
C324 H340 0.931 . S
C325 C324 1.391 . S
C325 C329 1.376 1_455 S
C326 C324 1.394 . S
C326 C327 1.369 . S
C326 C330 1.531 . S
C327 C326 1.369 . S
C327 C328 1.410 1_455 S
C327 C335 1.503 . S
C328 C327 1.410 1_655 S
C328 C329 1.392 . S
C328 C331 1.511 . S
C329 C325 1.376 1_655 S
C329 C328 1.392 . S
C329 H341 0.929 . S
C330 C326 1.531 . S
C330 H342 0.960 . S
C330 H343 0.962 . S
C330 H344 0.960 . S
C331 C328 1.511 . S
C331 H345 0.961 . S
C331 H346 0.961 . S
C331 H347 0.961 . S
C332 C333 1.370 . S
C332 C334 1.363 . S
C332 H348 0.931 . S
C333 C332 1.370 . S
C333 C337 1.408 . S
C334 C332 1.363 . S
C334 C335 1.370 . S
C334 C338 1.524 . S
C335 C327 1.503 . S
C335 C334 1.370 . S
C335 C336 1.403 . S
C336 C335 1.403 . S
C336 C337 1.404 . S
C336 C339 1.539 1_455 S
C337 C333 1.408 . S
C337 C336 1.404 . S
C337 H349 0.930 . S
C338 C334 1.524 . S
C338 H350 0.956 . S
C338 H351 0.961 . S
C338 H352 0.961 . S
C339 C336 1.539 1_655 S
C339 H353 0.958 1_655 S
C339 H354 0.961 . S
C339 H355 0.960 . S
H340 C324 0.931 . S
H341 C329 0.929 . S
H342 C330 0.960 . S
H343 C330 0.962 . S
H344 C330 0.960 . S
H345 C331 0.961 . S
H346 C331 0.961 . S
H347 C331 0.961 . S
H348 C332 0.931 . S
H349 C337 0.930 . S
H350 C338 0.956 . S
H351 C338 0.961 . S
H352 C338 0.961 . S
H353 C339 0.958 1_455 S
H354 C339 0.961 . S
H355 C339 0.960 . S
C356 C357 1.391 . S
C356 C358 1.394 . S
C356 H372 0.931 . S
C357 C356 1.391 . S
C357 C361 1.376 . S
C358 C356 1.394 . S
C358 C359 1.369 . S
C358 C362 1.531 . S
C359 C358 1.369 . S
C359 C360 1.410 . S
C359 C367 1.503 . S
C360 C359 1.410 . S
C360 C361 1.392 . S
C360 C363 1.511 . S
C361 C357 1.376 . S
C361 C360 1.392 . S
C361 H373 0.929 . S
C362 C358 1.531 . S
C362 H374 0.960 1_545 S
C362 H375 0.962 . S
C362 H376 0.960 . S
C363 C360 1.511 . S
C363 H377 0.961 . S
C363 H378 0.961 . S
C363 H379 0.961 1_545 S
C364 C365 1.370 . S
C364 C366 1.363 . S
C364 H380 0.931 . S
C365 C364 1.370 . S
C365 C369 1.408 1_545 S
C366 C364 1.363 . S
C366 C367 1.370 . S
C366 C370 1.524 . S
C367 C359 1.503 . S
C367 C366 1.370 . S
C367 C368 1.403 1_545 S
C368 C367 1.403 1_565 S
C368 C369 1.404 . S
C368 C371 1.539 . S
C369 C365 1.408 1_565 S
C369 C368 1.404 . S
C369 H381 0.930 . S
C370 C366 1.524 . S
C370 H382 0.956 . S
C370 H383 0.961 . S
C370 H384 0.961 . S
C371 C368 1.539 . S
C371 H385 0.958 . S
C371 H386 0.961 . S
C371 H387 0.960 . S
H372 C356 0.931 . S
H373 C361 0.929 . S
H374 C362 0.960 1_565 S
H375 C362 0.962 . S
H376 C362 0.960 . S
H377 C363 0.961 . S
H378 C363 0.961 . S
H379 C363 0.961 1_565 S
H380 C364 0.931 . S
H381 C369 0.930 . S
H382 C370 0.956 . S
H383 C370 0.961 . S
H384 C370 0.961 . S
H385 C371 0.958 . S
H386 C371 0.961 . S
H387 C371 0.960 . S
C388 C389 1.391 . S
C388 C390 1.394 . S
C388 H404 0.931 . S
C389 C388 1.391 . S
C389 C393 1.376 . S
C390 C388 1.394 . S
C390 C391 1.369 . S
C390 C394 1.531 . S
C391 C390 1.369 . S
C391 C392 1.410 . S
C391 C399 1.503 . S
C392 C391 1.410 . S
C392 C393 1.392 . S
C392 C395 1.511 . S
C393 C389 1.376 . S
C393 C392 1.392 . S
C393 H405 0.929 . S
C394 C390 1.531 . S
C394 H406 0.960 . S
C394 H407 0.962 . S
C394 H408 0.960 . S
C395 C392 1.511 . S
C395 H409 0.961 . S
C395 H410 0.961 . S
C395 H411 0.961 . S
C396 C397 1.370 . S
C396 C398 1.363 . S
C396 H412 0.931 . S
C397 C396 1.370 . S
C397 C401 1.408 . S
C398 C396 1.363 . S
C398 C399 1.370 . S
C398 C402 1.524 . S
C399 C391 1.503 . S
C399 C398 1.370 . S
C399 C400 1.403 . S
C400 C399 1.403 . S
C400 C401 1.404 . S
C400 C403 1.539 . S
C401 C397 1.408 . S
C401 C400 1.404 . S
C401 H413 0.930 . S
C402 C398 1.524 . S
C402 H414 0.956 . S
C402 H415 0.961 . S
C402 H416 0.961 . S
C403 C400 1.539 . S
C403 H417 0.958 . S
C403 H418 0.961 . S
C403 H419 0.960 . S
H404 C388 0.931 . S
H405 C393 0.929 . S
H406 C394 0.960 . S
H407 C394 0.962 . S
H408 C394 0.960 . S
H409 C395 0.961 . S
H410 C395 0.961 . S
H411 C395 0.961 . S
H412 C396 0.931 . S
H413 C401 0.930 . S
H414 C402 0.956 . S
H415 C402 0.961 . S
H416 C402 0.961 . S
H417 C403 0.958 . S
H418 C403 0.961 . S
H419 C403 0.960 . S
C420 C421 1.391 . S
C420 C422 1.394 . S
C420 H436 0.931 1_545 S
C421 C420 1.391 . S
C421 C425 1.376 . S
C422 C420 1.394 . S
C422 C423 1.369 . S
C422 C426 1.531 1_545 S
C423 C422 1.369 . S
C423 C424 1.410 . S
C423 C431 1.503 . S
C424 C423 1.410 . S
C424 C425 1.392 . S
C424 C427 1.511 . S
C425 C421 1.376 . S
C425 C424 1.392 . S
C425 H437 0.929 . S
C426 C422 1.531 1_565 S
C426 H438 0.960 . S
C426 H439 0.962 1_565 S
C426 H440 0.960 . S
C427 C424 1.511 . S
C427 H441 0.961 . S
C427 H442 0.961 . S
C427 H443 0.961 . S
C428 C429 1.370 . S
C428 C430 1.363 . S
C428 H444 0.931 . S
C429 C428 1.370 . S
C429 C433 1.408 1_545 S
C430 C428 1.363 . S
C430 C431 1.370 . S
C430 C434 1.524 . S
C431 C423 1.503 . S
C431 C430 1.370 . S
C431 C432 1.403 1_545 S
C432 C431 1.403 1_565 S
C432 C433 1.404 . S
C432 C435 1.539 . S
C433 C429 1.408 1_565 S
C433 C432 1.404 . S
C433 H445 0.930 . S
C434 C430 1.524 . S
C434 H446 0.956 . S
C434 H447 0.961 . S
C434 H448 0.961 . S
C435 C432 1.539 . S
C435 H449 0.958 . S
C435 H450 0.961 . S
C435 H451 0.960 . S
H436 C420 0.931 1_565 S
H437 C425 0.929 . S
H438 C426 0.960 . S
H439 C426 0.962 1_545 S
H440 C426 0.960 . S
H441 C427 0.961 . S
H442 C427 0.961 . S
H443 C427 0.961 . S
H444 C428 0.931 . S
H445 C433 0.930 . S
H446 C434 0.956 . S
H447 C434 0.961 . S
H448 C434 0.961 . S
H449 C435 0.958 . S
H450 C435 0.961 . S
H451 C435 0.960 . S
C452 C453 1.391 . S
C452 C454 1.394 1_554 S
C452 H468 0.931 . S
C453 C452 1.391 . S
C453 C457 1.376 1_554 S
C454 C452 1.394 1_556 S
C454 C455 1.369 . S
C454 C458 1.531 . S
C455 C454 1.369 . S
C455 C456 1.410 . S
C455 C463 1.503 . S
C456 C455 1.410 . S
C456 C457 1.392 . S
C456 C459 1.511 . S
C457 C453 1.376 1_556 S
C457 C456 1.392 . S
C457 H469 0.929 . S
C458 C454 1.531 . S
C458 H470 0.960 . S
C458 H471 0.962 . S
C458 H472 0.960 . S
C459 C456 1.511 . S
C459 H473 0.961 . S
C459 H474 0.961 . S
C459 H475 0.961 . S
C460 C461 1.370 . S
C460 C462 1.363 . S
C460 H476 0.931 . S
C461 C460 1.370 . S
C461 C465 1.408 . S
C462 C460 1.363 . S
C462 C463 1.370 . S
C462 C466 1.524 1_556 S
C463 C455 1.503 . S
C463 C462 1.370 . S
C463 C464 1.403 . S
C464 C463 1.403 . S
C464 C465 1.404 . S
C464 C467 1.539 . S
C465 C461 1.408 . S
C465 C464 1.404 . S
C465 H477 0.930 . S
C466 C462 1.524 1_554 S
C466 H478 0.956 . S
C466 H479 0.961 . S
C466 H480 0.961 . S
C467 C464 1.539 . S
C467 H481 0.958 . S
C467 H482 0.961 . S
C467 H483 0.960 . S
H468 C452 0.931 . S
H469 C457 0.929 . S
H470 C458 0.960 . S
H471 C458 0.962 . S
H472 C458 0.960 . S
H473 C459 0.961 . S
H474 C459 0.961 . S
H475 C459 0.961 . S
H476 C460 0.931 . S
H477 C465 0.930 . S
H478 C466 0.956 . S
H479 C466 0.961 . S
H480 C466 0.961 . S
H481 C467 0.958 . S
H482 C467 0.961 . S
H483 C467 0.960 . S
C484 C485 1.391 1_655 S
C484 C486 1.378 1_655 S
C484 H500 0.931 . S
C485 C484 1.391 1_455 S
C485 C489 1.376 . S
C486 C484 1.378 1_455 S
C486 C487 1.395 . S
C486 C490 1.520 1_455 S
C487 C486 1.395 . S
C487 C488 1.410 . S
C487 C495 1.503 . S
C488 C487 1.410 . S
C488 C489 1.392 . S
C488 C491 1.511 . S
C489 C485 1.376 . S
C489 C488 1.392 . S
C489 H501 0.929 . S
C490 C486 1.520 1_655 S
C490 H502 0.960 . S
C490 H503 0.962 . S
C490 H504 0.960 . S
C491 C488 1.511 . S
C491 H505 0.961 . S
C491 H506 0.961 . S
C491 H507 0.961 . S
C492 C493 1.370 1_655 S
C492 C494 1.363 . S
C492 H508 0.931 . S
C493 C492 1.370 1_455 S
C493 C497 1.408 . S
C494 C492 1.363 . S
C494 C495 1.370 1_655 S
C494 C498 1.524 . S
C495 C487 1.503 . S
C495 C494 1.370 1_455 S
C495 C496 1.403 . S
C496 C495 1.403 . S
C496 C497 1.404 . S
C496 C499 1.539 . S
C497 C493 1.408 . S
C497 C496 1.404 . S
C497 H509 0.930 . S
C498 C494 1.524 . S
C498 H510 0.956 . S
C498 H511 0.961 . S
C498 H512 0.961 . S
C499 C496 1.539 . S
C499 H513 0.958 . S
C499 H514 0.961 . S
C499 H515 0.960 . S
H500 C484 0.931 . S
H501 C489 0.929 . S
H502 C490 0.960 . S
H503 C490 0.962 . S
H504 C490 0.960 . S
H505 C491 0.961 . S
H506 C491 0.961 . S
H507 C491 0.961 . S
H508 C492 0.931 . S
H509 C497 0.930 . S
H510 C498 0.956 . S
H511 C498 0.961 . S
H512 C498 0.961 . S
H513 C499 0.958 . S
H514 C499 0.961 . S
H515 C499 0.960 . S
C516 C517 1.391 . S
C516 C518 1.394 . S
C516 H532 0.931 . S
C517 C516 1.391 . S
C517 C521 1.376 . S
C518 C516 1.394 . S
C518 C519 1.369 . S
C518 C522 1.531 . S
C519 C518 1.369 . S
C519 C520 1.410 . S
C519 C527 1.503 . S
C520 C519 1.410 . S
C520 C521 1.392 . S
C520 C523 1.511 . S
C521 C517 1.376 . S
C521 C520 1.392 . S
C521 H533 0.929 . S
C522 C518 1.531 . S
C522 H534 0.960 1_545 S
C522 H535 0.962 . S
C522 H536 0.960 1_545 S
C523 C520 1.511 . S
C523 H537 0.961 . S
C523 H538 0.961 . S
C523 H539 0.961 1_545 S
C524 C525 1.370 . S
C524 C526 1.363 . S
C524 H540 0.931 . S
C525 C524 1.370 . S
C525 C529 1.408 1_545 S
C526 C524 1.363 . S
C526 C527 1.370 . S
C526 C530 1.524 . S
C527 C519 1.503 . S
C527 C526 1.370 . S
C527 C528 1.403 1_545 S
C528 C527 1.403 1_565 S
C528 C529 1.404 . S
C528 C531 1.539 . S
C529 C525 1.408 1_565 S
C529 C528 1.404 . S
C529 H541 0.930 . S
C530 C526 1.524 . S
C530 H542 0.956 . S
C530 H543 0.961 . S
C530 H544 0.961 . S
C531 C528 1.539 . S
C531 H545 0.958 . S
C531 H546 0.961 . S
C531 H547 0.960 . S
H532 C516 0.931 . S
H533 C521 0.929 . S
H534 C522 0.960 1_565 S
H535 C522 0.962 . S
H536 C522 0.960 1_565 S
H537 C523 0.961 . S
H538 C523 0.961 . S
H539 C523 0.961 1_565 S
H540 C524 0.931 . S
H541 C529 0.930 . S
H542 C530 0.956 . S
H543 C530 0.961 . S
H544 C530 0.961 . S
H545 C531 0.958 . S
H546 C531 0.961 . S
H547 C531 0.960 . S
C548 C549 1.391 1_556 S
C548 C550 1.394 . S
C548 H564 0.931 . S
C549 C548 1.391 1_554 S
C549 C553 1.376 . S
C550 C548 1.394 . S
C550 C551 1.369 . S
C550 C554 1.531 . S
C551 C550 1.369 . S
C551 C552 1.410 . S
C551 C559 1.503 . S
C552 C551 1.410 . S
C552 C553 1.392 1_556 S
C552 C555 1.511 . S
C553 C549 1.376 . S
C553 C552 1.392 1_554 S
C553 H565 0.929 . S
C554 C550 1.531 . S
C554 H566 0.960 . S
C554 H567 0.962 . S
C554 H568 0.960 . S
C555 C552 1.511 . S
C555 H569 0.961 1_556 S
C555 H570 0.961 . S
C555 H571 0.961 . S
C556 C557 1.370 . S
C556 C558 1.363 . S
C556 H572 0.931 . S
C557 C556 1.370 . S
C557 C561 1.408 . S
C558 C556 1.363 . S
C558 C559 1.370 . S
C558 C562 1.524 . S
C559 C551 1.503 . S
C559 C558 1.370 . S
C559 C560 1.403 . S
C560 C559 1.403 . S
C560 C561 1.404 . S
C560 C563 1.539 . S
C561 C557 1.408 . S
C561 C560 1.404 . S
C561 H573 0.930 . S
C562 C558 1.524 . S
C562 H574 0.956 . S
C562 H575 0.961 1_556 S
C562 H576 0.961 1_556 S
C563 C560 1.539 . S
C563 H577 0.958 . S
C563 H578 0.961 . S
C563 H579 0.960 . S
H564 C548 0.931 . S
H565 C553 0.929 . S
H566 C554 0.960 . S
H567 C554 0.962 . S
H568 C554 0.960 . S
H569 C555 0.961 1_554 S
H570 C555 0.961 . S
H571 C555 0.961 . S
H572 C556 0.931 . S
H573 C561 0.930 . S
H574 C562 0.956 . S
H575 C562 0.961 1_554 S
H576 C562 0.961 1_554 S
H577 C563 0.958 . S
H578 C563 0.961 . S
H579 C563 0.960 . S
C580 C581 1.391 1_655 S
C580 C582 1.394 . S
C580 H596 0.931 . S
C581 C580 1.391 1_455 S
C581 C585 1.376 . S
C582 C580 1.394 . S
C582 C583 1.369 1_655 S
C582 C586 1.531 . S
C583 C582 1.369 1_455 S
C583 C584 1.410 . S
C583 C591 1.503 . S
C584 C583 1.410 . S
C584 C585 1.392 . S
C584 C587 1.511 . S
C585 C581 1.376 . S
C585 C584 1.392 . S
C585 H597 0.929 . S
C586 C582 1.531 . S
C586 H598 0.960 . S
C586 H599 0.962 . S
C586 H600 0.960 . S
C587 C584 1.511 . S
C587 H601 0.961 . S
C587 H602 0.961 . S
C587 H603 0.961 . S
C588 C589 1.370 . S
C588 C590 1.363 . S
C588 H604 0.931 1_455 S
C589 C588 1.370 . S
C589 C593 1.408 . S
C590 C588 1.363 . S
C590 C591 1.370 . S
C590 C594 1.524 1_455 S
C591 C583 1.503 . S
C591 C590 1.370 . S
C591 C592 1.403 . S
C592 C591 1.403 . S
C592 C593 1.404 . S
C592 C595 1.539 . S
C593 C589 1.408 . S
C593 C592 1.404 . S
C593 H605 0.930 . S
C594 C590 1.524 1_655 S
C594 H606 0.956 . S
C594 H607 0.961 1_655 S
C594 H608 0.961 . S
C595 C592 1.539 . S
C595 H609 0.958 . S
C595 H610 0.961 . S
C595 H611 0.960 . S
H596 C580 0.931 . S
H597 C585 0.929 . S
H598 C586 0.960 . S
H599 C586 0.962 . S
H600 C586 0.960 . S
H601 C587 0.961 . S
H602 C587 0.961 . S
H603 C587 0.961 . S
H604 C588 0.931 1_655 S
H605 C593 0.930 . S
H606 C594 0.956 . S
H607 C594 0.961 1_455 S
H608 C594 0.961 . S
H609 C595 0.958 . S
H610 C595 0.961 . S
H611 C595 0.960 . S
C237 C95 1.345 . S
C229 C0 1.362 . S
C261 C25 1.402 . S
C269 C139 1.389 . S
C293 C33 1.430 . S
C301 C201 1.427 . S
C325 C11 1.364 . S
C333 C77 1.349 . S
C365 C157 1.383 . S
C357 C14 1.382 . S
C389 C37 1.445 . S
C397 C219 1.442 . S
C429 C133 1.611 . S
C421 C28 1.678 . S
C453 C9 1.743 . S
C461 C195 1.635 . S
C493 C71 1.662 . S
C485 C19 1.769 . S
C525 C151 1.615 . S
C517 C39 1.709 . S
C557 C213 1.629 . S
C549 C5 1.731 . S
C581 C23 1.767 . S
C589 C89 1.692 . S
