# Generated by pormake.
# Topology hwx, (6,3)-cn, num edge types: 1
# Building blocks:
#     Node 0, Type 0, BuildingBlock: OJICUG_clean_sbu_0, # of connection points: 6
#     Node 1, Type 0, BuildingBlock: OJICUG_clean_sbu_0, # of connection points: 6
#     Node 2, Type 0, BuildingBlock: OJICUG_clean_sbu_0, # of connection points: 6
#     Node 3, Type 0, BuildingBlock: OJICUG_clean_sbu_0, # of connection points: 6
#     Node 4, Type 1, BuildingBlock: BETDIP_clean_linker_0, # of connection points: 3
#     Node 5, Type 1, BuildingBlock: BETDIP_clean_linker_0, # of connection points: 3
#     Node 6, Type 1, BuildingBlock: BETDIP_clean_linker_0, # of connection points: 3
#     Node 7, Type 1, BuildingBlock: BETDIP_clean_linker_0, # of connection points: 3
#     Node 8, Type 1, BuildingBlock: BETDIP_clean_linker_0, # of connection points: 3
#     Node 9, Type 1, BuildingBlock: BETDIP_clean_linker_0, # of connection points: 3
#     Node 10, Type 1, BuildingBlock: BETDIP_clean_linker_0, # of connection points: 3
#     Node 11, Type 1, BuildingBlock: BETDIP_clean_linker_0, # of connection points: 3
#     Edge 12, Type (0, 1), BuildingBlock: OJICUG_clean_linker_0, # of connection points: 2
#     Edge 13, Type (0, 1), BuildingBlock: OJICUG_clean_linker_0, # of connection points: 2
#     Edge 14, Type (0, 1), BuildingBlock: OJICUG_clean_linker_0, # of connection points: 2
#     Edge 15, Type (0, 1), BuildingBlock: OJICUG_clean_linker_0, # of connection points: 2
#     Edge 16, Type (0, 1), BuildingBlock: OJICUG_clean_linker_0, # of connection points: 2
#     Edge 17, Type (0, 1), BuildingBlock: OJICUG_clean_linker_0, # of connection points: 2
#     Edge 18, Type (0, 1), BuildingBlock: OJICUG_clean_linker_0, # of connection points: 2
#     Edge 19, Type (0, 1), BuildingBlock: OJICUG_clean_linker_0, # of connection points: 2
#     Edge 20, Type (0, 1), BuildingBlock: OJICUG_clean_linker_0, # of connection points: 2
#     Edge 21, Type (0, 1), BuildingBlock: OJICUG_clean_linker_0, # of connection points: 2
#     Edge 22, Type (0, 1), BuildingBlock: OJICUG_clean_linker_0, # of connection points: 2
#     Edge 23, Type (0, 1), BuildingBlock: OJICUG_clean_linker_0, # of connection points: 2
#     Edge 24, Type (0, 1), BuildingBlock: OJICUG_clean_linker_0, # of connection points: 2
#     Edge 25, Type (0, 1), BuildingBlock: OJICUG_clean_linker_0, # of connection points: 2
#     Edge 26, Type (0, 1), BuildingBlock: OJICUG_clean_linker_0, # of connection points: 2
#     Edge 27, Type (0, 1), BuildingBlock: OJICUG_clean_linker_0, # of connection points: 2
#     Edge 28, Type (0, 1), BuildingBlock: OJICUG_clean_linker_0, # of connection points: 2
#     Edge 29, Type (0, 1), BuildingBlock: OJICUG_clean_linker_0, # of connection points: 2
#     Edge 30, Type (0, 1), BuildingBlock: OJICUG_clean_linker_0, # of connection points: 2
#     Edge 31, Type (0, 1), BuildingBlock: OJICUG_clean_linker_0, # of connection points: 2
#     Edge 32, Type (0, 1), BuildingBlock: OJICUG_clean_linker_0, # of connection points: 2
#     Edge 33, Type (0, 1), BuildingBlock: OJICUG_clean_linker_0, # of connection points: 2
#     Edge 34, Type (0, 1), BuildingBlock: OJICUG_clean_linker_0, # of connection points: 2
#     Edge 35, Type (0, 1), BuildingBlock: OJICUG_clean_linker_0, # of connection points: 2
# Relax obj value: 0.006
# Max RMSD: 0.040
# Mean RMSD: 0.038
data_MOF--net-hwx--node1-OJICUG_clean_sbu_0--node2-BETDIP_clean_linker_0--edge1-OJICUG_clean_linker_0
_symmetry_space_group_name_H-M    P1
_symmetry_Int_Tables_number       1
_symmetry_cell_setting            triclinic
loop_
_symmetry_equiv_pos_as_xyz
'x, y, z'
_cell_length_a     39.257665
_cell_length_b     39.25791
_cell_length_c     15.271007
_cell_angle_alpha  92.359313
_cell_angle_beta   92.17266
_cell_angle_gamma 89.896829
loop_
_atom_site_label
_atom_site_type_symbol
_atom_site_fract_x
_atom_site_fract_y
_atom_site_fract_z
_atom_type_partial_charge
Sc0 Sc 0.23259 0.23338 0.12944 0.0
Sc1 Sc 0.17795 0.1775 0.00291 0.0
Sc2 Sc 0.23282 0.23359 0.90043 0.0
O3 O 0.21442 0.21479 0.01092 0.0
C4 C 0.2274 0.30113 0.02196 0.0
C5 C 0.15293 0.22566 0.16057 0.0
C6 C 0.1533 0.226 0.85103 0.0
C7 C 0.22691 0.15357 0.1596 0.0
C8 C 0.3005 0.23004 0.02148 0.0
C9 C 0.22696 0.15396 0.85039 0.0
O10 O 0.22838 0.28566 0.09347 0.0
O11 O 0.14742 0.20289 0.10017 0.0
O12 O 0.18262 0.23877 0.84214 0.0
O13 O 0.23899 0.18315 0.17765 0.0
O14 O 0.28501 0.23087 0.94705 0.0
O15 O 0.20421 0.14783 0.9046 0.0
O16 O 0.285 0.23073 0.09309 0.0
O17 O 0.20415 0.14758 0.09959 0.0
O18 O 0.23916 0.18353 0.84179 0.0
O19 O 0.18224 0.23839 0.17846 0.0
O20 O 0.22884 0.2857 0.94744 0.0
O21 O 0.14764 0.20316 0.90523 0.0
Sc22 Sc 0.26535 0.73504 0.37766 0.0
Sc23 Sc 0.31816 0.67712 0.49072 0.0
Sc24 Sc 0.25976 0.72941 0.60464 0.0
O25 O 0.28113 0.71382 0.49101 0.0
C26 C 0.26661 0.79977 0.51098 0.0
C27 C 0.3455 0.72921 0.35467 0.0
C28 C 0.33868 0.72229 0.66188 0.0
C29 C 0.27322 0.65623 0.31967 0.0
C30 C 0.19506 0.72752 0.47166 0.0
C31 C 0.26634 0.64929 0.62697 0.0
O32 O 0.26655 0.78623 0.43394 0.0
O33 O 0.34983 0.70442 0.40489 0.0
O34 O 0.30858 0.73326 0.67271 0.0
O35 O 0.262 0.68623 0.30921 0.0
O36 O 0.20856 0.72772 0.54867 0.0
O37 O 0.29116 0.64518 0.57649 0.0
O38 O 0.21239 0.72956 0.40357 0.0
O39 O 0.29378 0.64874 0.38225 0.0
O40 O 0.25244 0.67805 0.64215 0.0
O41 O 0.31661 0.74286 0.33986 0.0
O42 O 0.26473 0.78246 0.57903 0.0
O43 O 0.34632 0.70176 0.59914 0.0
Sc44 Sc 0.7616 0.76288 0.85394 0.0
Sc45 Sc 0.81759 0.81664 -0.01755 0.0
Sc46 Sc 0.76124 0.76131 0.08278 0.0
O47 O 0.78018 0.78032 0.9731 0.0
C48 C 0.6938 0.76763 0.96164 0.0
C49 C 0.76966 0.84269 0.82627 0.0
C50 C 0.76908 0.84065 0.13566 0.0
C51 C 0.84144 0.76835 0.82381 0.0
C52 C 0.76474 0.69426 0.95843 0.0
C53 C 0.84087 0.76682 0.13289 0.0
O54 O 0.70938 0.76709 0.89021 0.0
O55 O 0.79246 0.84784 0.88663 0.0
O56 O 0.75616 0.8113 0.1434 0.0
O57 O 0.81182 0.75653 0.80539 0.0
O58 O 0.76398 0.70927 0.03367 0.0
O59 O 0.84707 0.7898 0.0795 0.0
O60 O 0.76399 0.71026 0.88776 0.0
O61 O 0.84754 0.79082 0.88465 0.0
O62 O 0.81126 0.75459 0.14112 0.0
O63 O 0.75682 0.81351 0.80729 0.0
O64 O 0.70911 0.76563 0.03605 0.0
O65 O 0.79193 0.84648 0.08146 0.0
Sc66 Sc 0.72669 0.26159 0.59799 0.0
Sc67 Sc 0.67763 0.32069 0.48012 0.0
Sc68 Sc 0.73533 0.26632 0.37178 0.0
O69 O 0.7132 0.2829 0.48326 0.0
C70 C 0.79823 0.26765 0.51186 0.0
C71 C 0.71817 0.34039 0.6563 0.0
C72 C 0.73258 0.34634 0.34873 0.0
C73 C 0.64684 0.2686 0.61253 0.0
C74 C 0.72688 0.19656 0.46441 0.0
C75 C 0.65737 0.27641 0.30802 0.0
O76 O 0.78014 0.26897 0.57925 0.0
O77 O 0.70246 0.34927 0.58688 0.0
O78 O 0.74647 0.31736 0.33702 0.0
O79 O 0.67453 0.25241 0.62514 0.0
O80 O 0.72679 0.21361 0.39559 0.0
O81 O 0.64939 0.29598 0.37233 0.0
O82 O 0.72869 0.21046 0.54107 0.0
O83 O 0.64472 0.29512 0.5673 0.0
O84 O 0.68753 0.26545 0.29768 0.0
O85 O 0.72616 0.30972 0.67112 0.0
O86 O 0.78548 0.26488 0.43404 0.0
O87 O 0.70628 0.35089 0.39385 0.0
H88 H 0.23156 0.5032 0.82301 0.0
H89 H 0.23726 0.51162 0.10605 0.0
H90 H 0.2414 0.60126 0.95633 0.0
H91 H 0.21327 0.46087 0.09803 0.0
C92 C 0.22098 0.44807 0.03766 0.0
C93 C 0.23328 0.51864 0.8835 0.0
C94 C 0.2358 0.55413 0.8807 0.0
C95 C 0.23257 0.503 0.96442 0.0
C96 C 0.23614 0.52315 0.04294 0.0
C97 C 0.23876 0.55868 0.04014 0.0
C98 C 0.23826 0.57386 0.95892 0.0
N99 N 0.22926 0.46701 0.96409 0.0
H100 H 0.98731 0.73214 0.63007 0.0
H101 H 0.98598 0.73255 0.34719 0.0
H102 H 0.89238 0.73653 0.4819 0.0
H103 H 0.03799 0.71252 0.36088 0.0
C104 C 0.04868 0.72037 0.42507 0.0
C105 C 0.97334 0.73222 0.56747 0.0
C106 C 0.93769 0.73377 0.56483 0.0
C107 C 0.99113 0.73055 0.48943 0.0
C108 C 0.97292 0.73204 0.40815 0.0
C109 C 0.93723 0.7335 0.40545 0.0
C110 C 0.91994 0.73402 0.4838 0.0
N111 N 0.02724 0.72847 0.49581 0.0
H112 H 0.7706 0.49242 0.15373 0.0
H113 H 0.74987 0.48268 0.87466 0.0
H114 H 0.75985 0.39346 0.02666 0.0
H115 H 0.77262 0.53438 0.87242 0.0
C116 C 0.76842 0.54703 0.93562 0.0
C117 C 0.76694 0.47659 0.09428 0.0
C118 C 0.76583 0.44111 0.09899 0.0
C119 C 0.76316 0.49179 0.01296 0.0
C120 C 0.75572 0.47122 0.93658 0.0
C121 C 0.75377 0.4356 0.94138 0.0
C122 C 0.76061 0.42094 0.02221 0.0
N123 N 0.76507 0.52787 0.0117 0.0
H124 H 0.00597 0.25889 0.35441 0.0
H125 H 0.00745 0.25788 0.63729 0.0
H126 H 0.101 0.25486 0.50235 0.0
H127 H 0.95565 0.27866 0.62408 0.0
C128 C 0.9448 0.2707 0.56013 0.0
C129 C 0.01997 0.25869 0.41696 0.0
C130 C 0.05566 0.25741 0.41948 0.0
C131 C 0.0022 0.26012 0.49515 0.0
C132 C 0.02047 0.25855 0.57629 0.0
C133 C 0.05616 0.25733 0.57881 0.0
C134 C 0.07342 0.25708 0.50047 0.0
N135 N 0.96609 0.26226 0.48921 0.0
H136 H 0.73665 0.98982 0.63235 0.0
H137 H 0.73743 0.98673 0.34931 0.0
H138 H 0.74096 0.89401 0.48717 0.0
H139 H 0.71577 0.03827 0.36164 0.0
C140 C 0.72392 0.04965 0.42489 0.0
C141 C 0.7369 0.97549 0.57016 0.0
C142 C 0.7383 0.93981 0.56863 0.0
C143 C 0.7353 0.99279 0.49143 0.0
C144 C 0.73689 0.97405 0.41073 0.0
C145 C 0.73828 0.93836 0.40921 0.0
C146 C 0.73867 0.92158 0.48816 0.0
N147 N 0.73292 0.02892 0.49632 0.0
H148 H 0.50061 0.23729 0.81586 0.0
H149 H 0.51257 0.24253 0.09838 0.0
H150 H 0.60015 0.24683 0.94013 0.0
H151 H 0.46078 0.22181 0.09631 0.0
C152 C 0.44767 0.22805 0.03526 0.0
C153 C 0.51676 0.23897 0.87504 0.0
C154 C 0.55213 0.24138 0.86906 0.0
C155 C 0.50215 0.23831 0.9574 0.0
C156 C 0.52327 0.24162 0.03419 0.0
C157 C 0.55876 0.24422 0.02823 0.0
C158 C 0.57285 0.24379 0.94547 0.0
N159 N 0.46617 0.23518 0.95995 0.0
H160 H 0.26245 0.00747 0.35202 0.0
H161 H 0.26081 0.00885 0.63477 0.0
H162 H 0.25776 0.10244 0.50086 0.0
H163 H 0.28131 0.95702 0.62108 0.0
C164 C 0.27344 0.94622 0.55698 0.0
C165 C 0.26215 0.02145 0.4147 0.0
C166 C 0.2607 0.05712 0.41759 0.0
C167 C 0.26344 0.00366 0.49262 0.0
C168 C 0.26164 0.02189 0.57395 0.0
C169 C 0.2603 0.05758 0.5769 0.0
C170 C 0.26018 0.07488 0.49874 0.0
N171 N 0.26547 0.96755 0.48616 0.0
H172 H 0.4912 0.76438 0.15803 0.0
H173 H 0.48328 0.75888 0.87499 0.0
H174 H 0.39333 0.75507 0.02437 0.0
H175 H 0.53433 0.78242 0.88367 0.0
C176 C 0.5469 0.77465 0.94414 0.0
C177 C 0.47585 0.7628 0.09748 0.0
C178 C 0.44035 0.76046 0.10016 0.0
C179 C 0.49164 0.76347 0.01668 0.0
C180 C 0.47163 0.76006 0.93804 0.0
C181 C 0.43606 0.75758 0.94068 0.0
C182 C 0.42074 0.75815 0.02187 0.0
N183 N 0.52766 0.7665 0.01734 0.0
C184 C 0.09438 0.21789 0.21786 0.0
C185 C 0.12449 0.23717 0.21524 0.0
H186 H 0.04825 0.20965 0.28517 0.0
C187 C 0.12828 0.26665 0.27008 0.0
H188 H 0.09057 0.19521 0.17582 0.0
C189 C 0.10395 0.27504 0.33135 0.0
C190 C 0.07541 0.2541 0.33928 0.0
H191 H 0.15078 0.28252 0.26842 0.0
H192 H 0.10848 0.29677 0.37635 0.0
C193 C 0.06999 0.22629 0.27971 0.0
C194 C 0.2239 0.62275 0.72056 0.0
C195 C 0.25449 0.6201 0.6758 0.0
H196 H 0.19352 0.6028 0.81987 0.0
C197 C 0.27504 0.59102 0.686 0.0
H198 H 0.20713 0.64445 0.71282 0.0
C199 C 0.26693 0.56694 0.74698 0.0
C200 C 0.23817 0.57169 0.79788 0.0
H201 H 0.29861 0.5881 0.65183 0.0
H202 H 0.2846 0.54634 0.75965 0.0
C203 C 0.21586 0.59877 0.78113 0.0
C204 C 0.86389 0.7259 0.24107 0.0
C205 C 0.86879 0.75474 0.19147 0.0
H206 H 0.88256 0.69598 0.34647 0.0
C207 C 0.89954 0.77304 0.20323 0.0
H208 H 0.84085 0.7108 0.23247 0.0
C209 C 0.92355 0.76435 0.2686 0.0
C210 C 0.91713 0.73723 0.32273 0.0
H211 H 0.90422 0.7952 0.16548 0.0
H212 H 0.94589 0.78025 0.2808 0.0
C213 C 0.88785 0.71723 0.30594 0.0
C214 C 0.74434 0.3957 0.71032 0.0
C215 C 0.7255 0.36635 0.72591 0.0
H216 H 0.76905 0.44051 0.76722 0.0
C217 C 0.71398 0.36126 0.80981 0.0
H218 H 0.75327 0.4 0.64543 0.0
C219 C 0.7218 0.38475 0.87811 0.0
C220 C 0.74253 0.4132 0.86489 0.0
H221 H 0.69879 0.33909 0.82248 0.0
H222 H 0.71188 0.38024 0.94183 0.0
C223 C 0.75314 0.41887 0.77971 0.0
C224 C 0.63705 0.24005 0.17843 0.0
C225 C 0.63056 0.26604 0.24163 0.0
H226 H 0.61887 0.21205 0.06316 0.0
C227 C 0.59859 0.28234 0.2394 0.0
H228 H 0.66112 0.22652 0.17911 0.0
C229 C 0.57435 0.27403 0.17251 0.0
C230 C 0.58164 0.24922 0.107 0.0
H231 H 0.5927 0.30232 0.28749 0.0
H232 H 0.55061 0.28812 0.16974 0.0
C233 C 0.61281 0.23167 0.11211 0.0
C234 C 0.22037 0.09542 0.77907 0.0
C235 C 0.23891 0.126 0.79149 0.0
H236 H 0.213 0.0492 0.70069 0.0
C237 C 0.26794 0.13072 0.74228 0.0
H238 H 0.19805 0.0909 0.81651 0.0
C239 C 0.2766 0.10677 0.67715 0.0
C240 C 0.2564 0.07767 0.65971 0.0
H241 H 0.28322 0.15363 0.75145 0.0
H242 H 0.29802 0.11192 0.63697 0.0
C243 C 0.22905 0.07141 0.71341 0.0
C244 C 0.37153 0.77179 0.26071 0.0
C245 C 0.37453 0.74131 0.30557 0.0
H246 H 0.39111 0.80223 0.16112 0.0
C247 C 0.40383 0.72106 0.29518 0.0
H248 H 0.34965 0.78835 0.26861 0.0
C249 C 0.42779 0.72934 0.23394 0.0
C250 C 0.42269 0.75794 0.18294 0.0
H251 H 0.40703 0.69759 0.32943 0.0
H252 H 0.44859 0.71188 0.22119 0.0
C253 C 0.39539 0.77999 0.19985 0.0
C254 C 0.77807 0.9011 0.76909 0.0
C255 C 0.75824 0.87139 0.77277 0.0
H256 H 0.7868 0.94685 0.70086 0.0
C257 C 0.72833 0.86813 0.71961 0.0
H258 H 0.8011 0.90448 0.80983 0.0
C259 C 0.72004 0.89247 0.65862 0.0
C260 C 0.74151 0.92051 0.64932 0.0
H261 H 0.71206 0.84595 0.7222 0.0
H262 H 0.69799 0.88826 0.61462 0.0
C263 C 0.76976 0.92551 0.70747 0.0
C264 C 0.86509 0.72651 0.71501 0.0
C265 C 0.86958 0.75607 0.76928 0.0
H266 H 0.88409 0.69567 0.60904 0.0
C267 C 0.90007 0.77468 0.76611 0.0
H268 H 0.84226 0.71115 0.71721 0.0
C269 C 0.92417 0.76559 0.70412 0.0
C270 C 0.91806 0.73775 0.64502 0.0
H271 H 0.90439 0.79739 0.80773 0.0
H272 H 0.94624 0.78174 0.69816 0.0
C273 C 0.88912 0.71743 0.65361 0.0
C274 C 0.72758 0.40584 0.29555 0.0
C275 C 0.7462 0.37534 0.30202 0.0
H276 H 0.72015 0.45173 0.22593 0.0
C277 C 0.77644 0.37149 0.25607 0.0
H278 H 0.70446 0.40986 0.33108 0.0
C279 C 0.78559 0.3957 0.19704 0.0
C280 C 0.7647 0.42413 0.18304 0.0
H281 H 0.79186 0.34869 0.26108 0.0
H282 H 0.80724 0.39067 0.15647 0.0
C283 C 0.73679 0.4301 0.2363 0.0
C284 C 0.09481 0.21833 0.78056 0.0
C285 C 0.12507 0.2374 0.79252 0.0
H286 H 0.04864 0.2101 0.70282 0.0
C287 C 0.12924 0.26645 0.74324 0.0
H288 H 0.09072 0.19597 0.81809 0.0
C289 C 0.10508 0.27463 0.67845 0.0
C290 C 0.07632 0.25392 0.66145 0.0
H291 H 0.15188 0.28214 0.75206 0.0
H292 H 0.10981 0.29608 0.63812 0.0
C293 C 0.07058 0.22653 0.71524 0.0
C294 C 0.23454 0.63519 0.1959 0.0
C295 C 0.26195 0.62913 0.25505 0.0
H296 H 0.20508 0.61701 0.08311 0.0
C297 C 0.27893 0.59755 0.24957 0.0
H298 H 0.22042 0.65892 0.19933 0.0
C299 C 0.27002 0.57346 0.18262 0.0
C300 C 0.24396 0.58059 0.12052 0.0
H301 H 0.29999 0.59201 0.29465 0.0
H302 H 0.28468 0.55014 0.17664 0.0
C303 C 0.2256 0.61115 0.12955 0.0
C304 C 0.35959 0.76135 0.78525 0.0
C305 C 0.36575 0.73382 0.72621 0.0
H306 H 0.37768 0.79111 0.89773 0.0
C307 C 0.3974 0.717 0.73148 0.0
H308 H 0.3358 0.77535 0.78194 0.0
C309 C 0.42146 0.72614 0.79819 0.0
C310 C 0.41425 0.75228 0.86025 0.0
H311 H 0.40302 0.69587 0.68648 0.0
H312 H 0.44483 0.71155 0.80406 0.0
C313 C 0.38361 0.77052 0.85133 0.0
C314 C 0.77656 0.89929 0.206 0.0
C315 C 0.75787 0.86873 0.19537 0.0
H316 H 0.78463 0.94585 0.28258 0.0
C317 C 0.72936 0.86428 0.24662 0.0
H318 H 0.79849 0.90364 0.16699 0.0
C319 C 0.72131 0.88854 0.31165 0.0
C320 C 0.74162 0.9177 0.32699 0.0
H321 H 0.71397 0.8414 0.23899 0.0
H322 H 0.70023 0.88364 0.3532 0.0
C323 C 0.7685 0.92361 0.27153 0.0
C324 C 0.61758 0.22638 0.7014 0.0
C325 C 0.6169 0.2578 0.66032 0.0
H326 H 0.59648 0.19624 0.79955 0.0
C327 C 0.58953 0.28027 0.67497 0.0
H328 H 0.63793 0.20821 0.69033 0.0
C329 C 0.56552 0.27307 0.73705 0.0
C330 C 0.56862 0.24333 0.78457 0.0
H331 H 0.58814 0.30455 0.64385 0.0
H332 H 0.54649 0.29206 0.75344 0.0
C333 C 0.5937 0.21929 0.76323 0.0
C334 C 0.2205 0.09487 0.21633 0.0
C335 C 0.23911 0.12539 0.21381 0.0
H336 H 0.21323 0.04862 0.28348 0.0
C337 C 0.26851 0.12984 0.26845 0.0
H338 H 0.19791 0.09055 0.17442 0.0
C339 C 0.2774 0.10574 0.3296 0.0
C340 C 0.25705 0.07677 0.33755 0.0
H341 H 0.28387 0.15268 0.2668 0.0
H342 H 0.29902 0.11075 0.37451 0.0
C343 C 0.2294 0.07071 0.27804 0.0
C344 C 0.22975 0.35712 0.94977 0.0
C345 C 0.22501 0.33875 0.0255 0.0
H346 H 0.23237 0.40603 0.89396 0.0
C347 C 0.2184 0.35672 0.10464 0.0
H348 H 0.23492 0.34412 0.88775 0.0
C349 C 0.21677 0.39229 0.10795 0.0
C350 C 0.22196 0.41051 0.03255 0.0
H351 H 0.21447 0.34337 0.16409 0.0
H352 H 0.21175 0.40557 0.16973 0.0
C353 C 0.22836 0.39266 0.95333 0.0
C354 C 0.13677 0.72947 0.53308 0.0
C355 C 0.15756 0.72507 0.46051 0.0
H356 H 0.08601 0.73165 0.57911 0.0
C357 C 0.14213 0.71865 0.37681 0.0
H358 H 0.14781 0.73449 0.59841 0.0
C359 C 0.10672 0.71684 0.36592 0.0
C360 C 0.08605 0.72168 0.43822 0.0
H361 H 0.15738 0.71494 0.31954 0.0
H362 H 0.09546 0.71193 0.30075 0.0
C363 C 0.10133 0.72793 0.522 0.0
C364 C 0.76389 0.63773 0.02886 0.0
C365 C 0.76618 0.65653 0.95288 0.0
H366 H 0.76268 0.58849 0.08335 0.0
C367 C 0.76952 0.63889 0.87155 0.0
H368 H 0.76128 0.65043 0.09258 0.0
C369 C 0.7704 0.60328 0.86641 0.0
C370 C 0.76785 0.58464 0.94224 0.0
H371 H 0.77145 0.65252 0.81171 0.0
H372 H 0.77293 0.5903 0.80299 0.0
C373 C 0.76465 0.60216 0.02358 0.0
C374 C 0.85666 0.26275 0.45227 0.0
C375 C 0.83579 0.26892 0.52411 0.0
H376 H 0.90737 0.25828 0.407 0.0
C377 C 0.85122 0.27593 0.60754 0.0
H378 H 0.84569 0.2572 0.3871 0.0
C379 C 0.8867 0.27667 0.61875 0.0
C380 C 0.90738 0.27021 0.54705 0.0
H381 H 0.83593 0.2809 0.66425 0.0
H382 H 0.89798 0.28211 0.68367 0.0
C383 C 0.89208 0.26329 0.46366 0.0
C384 C 0.73147 0.13882 0.5281 0.0
C385 C 0.72542 0.15891 0.45493 0.0
H386 H 0.73598 0.08856 0.5763 0.0
C387 C 0.71848 0.14263 0.37241 0.0
H388 H 0.73695 0.15049 0.59259 0.0
C389 C 0.71778 0.10709 0.36328 0.0
C390 C 0.72423 0.08715 0.43618 0.0
H391 H 0.71357 0.15729 0.31472 0.0
H392 H 0.71244 0.09517 0.29897 0.0
C393 C 0.73101 0.10329 0.51876 0.0
C394 C 0.35635 0.23306 0.94824 0.0
C395 C 0.3382 0.22881 0.02471 0.0
H396 H 0.40506 0.23633 0.89132 0.0
C397 C 0.35649 0.22385 0.1042 0.0
H398 H 0.34313 0.23697 0.88591 0.0
C399 C 0.3921 0.22335 0.10709 0.0
C400 C 0.41007 0.228 0.03086 0.0
H401 H 0.34334 0.22036 0.16427 0.0
H402 H 0.40561 0.21958 0.16913 0.0
C403 C 0.39191 0.23277 0.95134 0.0
C404 C 0.26435 0.85794 0.44948 0.0
C405 C 0.26879 0.83729 0.52212 0.0
H406 H 0.26212 0.9086 0.40323 0.0
C407 C 0.27512 0.85288 0.60574 0.0
H408 H 0.2594 0.84678 0.38421 0.0
C409 C 0.27687 0.88831 0.61646 0.0
C410 C 0.27206 0.90883 0.54406 0.0
H411 H 0.27885 0.83773 0.66305 0.0
H412 H 0.28175 0.8997 0.68156 0.0
C413 C 0.26583 0.89339 0.4604 0.0
C414 C 0.63851 0.77719 0.87877 0.0
C415 C 0.65619 0.77021 0.95788 0.0
H416 H 0.58991 0.78422 0.8132 0.0
C417 C 0.63754 0.76528 0.03313 0.0
H418 H 0.65207 0.78129 0.81966 0.0
C419 C 0.602 0.7668 0.02909 0.0
C420 C 0.58444 0.77353 0.94985 0.0
H421 H 0.65032 0.75983 0.0951 0.0
H422 H 0.5884 0.76263 0.08808 0.0
C423 C 0.60296 0.77894 0.87497 0.0
loop_
_geom_bond_atom_site_label_1
_geom_bond_atom_site_label_2
_geom_bond_distance
_geom_bond_site_symmetry_2
_ccdc_geom_bond_type
Sc0 O3 2.025 . S
Sc0 O10 2.105 . S
Sc0 O13 2.105 . S
Sc0 O16 2.105 . S
Sc0 O19 2.105 . S
Sc1 O3 2.025 . S
Sc1 O11 2.114 . S
Sc1 O15 2.096 1_554 S
Sc1 O17 2.114 . S
Sc1 O21 2.096 1_554 S
Sc2 O3 2.025 1_556 S
Sc2 O12 2.105 . S
Sc2 O14 2.105 . S
Sc2 O18 2.105 . S
Sc2 O20 2.105 . S
O3 Sc0 2.025 . S
O3 Sc1 2.025 . S
O3 Sc2 2.025 1_554 S
C4 O10 1.268 . S
C4 O20 1.268 1_554 S
C5 O11 1.268 . S
C5 O19 1.268 . S
C6 O12 1.268 . S
C6 O21 1.268 . S
C7 O13 1.268 . S
C7 O17 1.268 . S
C8 O14 1.268 1_554 S
C8 O16 1.268 . S
C9 O15 1.268 . S
C9 O18 1.268 . S
O10 Sc0 2.105 . S
O10 C4 1.268 . S
O11 Sc1 2.114 . S
O11 C5 1.268 . S
O12 Sc2 2.105 . S
O12 C6 1.268 . S
O13 Sc0 2.105 . S
O13 C7 1.268 . S
O14 Sc2 2.105 . S
O14 C8 1.268 1_556 S
O15 Sc1 2.096 1_556 S
O15 C9 1.268 . S
O16 Sc0 2.105 . S
O16 C8 1.268 . S
O17 Sc1 2.114 . S
O17 C7 1.268 . S
O18 Sc2 2.105 . S
O18 C9 1.268 . S
O19 Sc0 2.105 . S
O19 C5 1.268 . S
O20 Sc2 2.105 . S
O20 C4 1.268 1_556 S
O21 Sc1 2.096 1_556 S
O21 C6 1.268 . S
Sc22 O25 2.025 . S
Sc22 O32 2.105 . S
Sc22 O35 2.105 . S
Sc22 O38 2.105 . S
Sc22 O41 2.105 . S
Sc23 O25 2.025 . S
Sc23 O33 2.105 . S
Sc23 O37 2.105 . S
Sc23 O39 2.105 . S
Sc23 O43 2.105 . S
Sc24 O25 2.025 . S
Sc24 O34 2.105 . S
Sc24 O36 2.105 . S
Sc24 O40 2.105 . S
Sc24 O42 2.105 . S
O25 Sc22 2.025 . S
O25 Sc23 2.025 . S
O25 Sc24 2.025 . S
C26 O32 1.268 . S
C26 O42 1.268 . S
C27 O33 1.268 . S
C27 O41 1.268 . S
C28 O34 1.268 . S
C28 O43 1.268 . S
C29 O35 1.268 . S
C29 O39 1.268 . S
C30 O36 1.268 . S
C30 O38 1.268 . S
C31 O37 1.268 . S
C31 O40 1.268 . S
O32 Sc22 2.105 . S
O32 C26 1.268 . S
O33 Sc23 2.105 . S
O33 C27 1.268 . S
O34 Sc24 2.105 . S
O34 C28 1.268 . S
O35 Sc22 2.105 . S
O35 C29 1.268 . S
O36 Sc24 2.105 . S
O36 C30 1.268 . S
O37 Sc23 2.105 . S
O37 C31 1.268 . S
O38 Sc22 2.105 . S
O38 C30 1.268 . S
O39 Sc23 2.105 . S
O39 C29 1.268 . S
O40 Sc24 2.105 . S
O40 C31 1.268 . S
O41 Sc22 2.105 . S
O41 C27 1.268 . S
O42 Sc24 2.105 . S
O42 C26 1.268 . S
O43 Sc23 2.105 . S
O43 C28 1.268 . S
Sc44 O47 2.025 1_556 S
Sc44 O54 2.105 . S
Sc44 O57 2.105 . S
Sc44 O60 2.105 . S
Sc44 O63 2.105 . S
Sc45 O47 2.025 . S
Sc45 O55 2.105 1_554 S
Sc45 O59 2.105 . S
Sc45 O61 2.105 1_554 S
Sc45 O65 2.105 . S
Sc46 O47 2.025 . S
Sc46 O56 2.105 . S
Sc46 O58 2.105 . S
Sc46 O62 2.105 . S
Sc46 O64 2.105 . S
O47 Sc44 2.025 1_554 S
O47 Sc45 2.025 . S
O47 Sc46 2.025 . S
C48 O54 1.268 1_554 S
C48 O64 1.268 . S
C49 O55 1.268 . S
C49 O63 1.268 . S
C50 O56 1.268 . S
C50 O65 1.268 . S
C51 O57 1.268 . S
C51 O61 1.268 . S
C52 O58 1.268 . S
C52 O60 1.268 1_554 S
C53 O59 1.268 . S
C53 O62 1.268 . S
O54 Sc44 2.105 . S
O54 C48 1.268 1_556 S
O55 Sc45 2.105 1_556 S
O55 C49 1.268 . S
O56 Sc46 2.105 . S
O56 C50 1.268 . S
O57 Sc44 2.105 . S
O57 C51 1.268 . S
O58 Sc46 2.105 . S
O58 C52 1.268 . S
O59 Sc45 2.105 . S
O59 C53 1.268 . S
O60 Sc44 2.105 . S
O60 C52 1.268 1_556 S
O61 Sc45 2.105 1_556 S
O61 C51 1.268 . S
O62 Sc46 2.105 . S
O62 C53 1.268 . S
O63 Sc44 2.105 . S
O63 C49 1.268 . S
O64 Sc46 2.105 . S
O64 C48 1.268 . S
O65 Sc45 2.105 . S
O65 C50 1.268 . S
Sc66 O69 2.025 . S
Sc66 O76 2.105 . S
Sc66 O79 2.105 . S
Sc66 O82 2.105 . S
Sc66 O85 2.105 . S
Sc67 O69 2.025 . S
Sc67 O77 2.105 . S
Sc67 O81 2.105 . S
Sc67 O83 2.105 . S
Sc67 O87 2.105 . S
Sc68 O69 2.025 . S
Sc68 O78 2.105 . S
Sc68 O80 2.105 . S
Sc68 O84 2.105 . S
Sc68 O86 2.105 . S
O69 Sc66 2.025 . S
O69 Sc67 2.025 . S
O69 Sc68 2.025 . S
C70 O76 1.268 . S
C70 O86 1.268 . S
C71 O77 1.268 . S
C71 O85 1.268 . S
C72 O78 1.268 . S
C72 O87 1.268 . S
C73 O79 1.268 . S
C73 O83 1.268 . S
C74 O80 1.268 . S
C74 O82 1.268 . S
C75 O81 1.268 . S
C75 O84 1.268 . S
O76 Sc66 2.105 . S
O76 C70 1.268 . S
O77 Sc67 2.105 . S
O77 C71 1.268 . S
O78 Sc68 2.105 . S
O78 C72 1.268 . S
O79 Sc66 2.105 . S
O79 C73 1.268 . S
O80 Sc68 2.105 . S
O80 C74 1.268 . S
O81 Sc67 2.105 . S
O81 C75 1.268 . S
O82 Sc66 2.105 . S
O82 C74 1.268 . S
O83 Sc67 2.105 . S
O83 C73 1.268 . S
O84 Sc68 2.105 . S
O84 C75 1.268 . S
O85 Sc66 2.105 . S
O85 C71 1.268 . S
O86 Sc68 2.105 . S
O86 C70 1.268 . S
O87 Sc67 2.105 . S
O87 C72 1.268 . S
H88 C93 0.930 . S
H89 C96 0.930 . S
H90 C98 0.930 . S
H91 C92 1.016 . S
C92 H91 1.016 . S
C92 N99 1.286 1_554 S
C93 H88 0.930 . S
C93 C94 1.397 . S
C93 C95 1.361 . S
C94 C93 1.397 . S
C94 C98 1.390 1_556 S
C95 C93 1.361 . S
C95 C96 1.393 1_556 S
C95 N99 1.413 . S
C96 H89 0.930 . S
C96 C95 1.393 1_554 S
C96 C97 1.399 . S
C97 C96 1.399 . S
C97 C98 1.381 . S
C98 H90 0.930 . S
C98 C94 1.390 1_554 S
C98 C97 1.381 . S
N99 C92 1.286 1_556 S
N99 C95 1.413 . S
H100 C105 0.930 . S
H101 C108 0.930 . S
H102 C110 0.930 . S
H103 C104 1.016 . S
C104 H103 1.016 . S
C104 N111 1.286 . S
C105 H100 0.930 . S
C105 C106 1.397 . S
C105 C107 1.361 1_655 S
C106 C105 1.397 . S
C106 C110 1.390 . S
C107 C105 1.361 1_455 S
C107 C108 1.393 1_455 S
C107 N111 1.413 . S
C108 H101 0.930 . S
C108 C107 1.393 1_655 S
C108 C109 1.399 . S
C109 C108 1.399 . S
C109 C110 1.381 . S
C110 H102 0.930 . S
C110 C106 1.390 . S
C110 C109 1.381 . S
N111 C104 1.286 . S
N111 C107 1.413 . S
H112 C117 0.930 . S
H113 C120 0.930 . S
H114 C122 0.930 . S
H115 C116 1.018 . S
C116 H115 1.018 . S
C116 N123 1.285 1_556 S
C117 H112 0.930 . S
C117 C118 1.397 . S
C117 C119 1.361 . S
C118 C117 1.397 . S
C118 C122 1.390 . S
C119 C117 1.361 . S
C119 C120 1.393 1_554 S
C119 N123 1.413 . S
C120 H113 0.930 . S
C120 C119 1.393 1_556 S
C120 C121 1.399 . S
C121 C120 1.399 . S
C121 C122 1.381 1_556 S
C122 H114 0.930 . S
C122 C118 1.390 . S
C122 C121 1.381 1_554 S
N123 C116 1.285 1_554 S
N123 C119 1.413 . S
H124 C129 0.930 . S
H125 C132 0.930 . S
H126 C134 0.930 . S
H127 C128 1.016 . S
C128 H127 1.016 . S
C128 N135 1.286 . S
C129 H124 0.930 . S
C129 C130 1.397 . S
C129 C131 1.361 . S
C130 C129 1.397 . S
C130 C134 1.390 . S
C131 C129 1.361 . S
C131 C132 1.393 . S
C131 N135 1.413 1_455 S
C132 H125 0.930 . S
C132 C131 1.393 . S
C132 C133 1.399 . S
C133 C132 1.399 . S
C133 C134 1.381 . S
C134 H126 0.930 . S
C134 C130 1.390 . S
C134 C133 1.381 . S
N135 C128 1.286 . S
N135 C131 1.413 1_655 S
H136 C141 0.930 . S
H137 C144 0.930 . S
H138 C146 0.930 . S
H139 C140 1.016 . S
C140 H139 1.016 . S
C140 N147 1.286 . S
C141 H136 0.930 . S
C141 C142 1.397 . S
C141 C143 1.361 . S
C142 C141 1.397 . S
C142 C146 1.390 . S
C143 C141 1.361 . S
C143 C144 1.393 . S
C143 N147 1.413 1_565 S
C144 H137 0.930 . S
C144 C143 1.393 . S
C144 C145 1.399 . S
C145 C144 1.399 . S
C145 C146 1.381 . S
C146 H138 0.930 . S
C146 C142 1.390 . S
C146 C145 1.381 . S
N147 C140 1.286 . S
N147 C143 1.413 1_545 S
H148 C153 0.930 . S
H149 C156 0.930 . S
H150 C158 0.930 . S
H151 C152 1.016 . S
C152 H151 1.016 . S
C152 N159 1.286 1_554 S
C153 H148 0.930 . S
C153 C154 1.397 . S
C153 C155 1.361 . S
C154 C153 1.397 . S
C154 C158 1.390 1_556 S
C155 C153 1.361 . S
C155 C156 1.393 1_556 S
C155 N159 1.413 . S
C156 H149 0.930 . S
C156 C155 1.393 1_554 S
C156 C157 1.399 . S
C157 C156 1.399 . S
C157 C158 1.381 . S
C158 H150 0.930 . S
C158 C154 1.390 1_554 S
C158 C157 1.381 . S
N159 C152 1.286 1_556 S
N159 C155 1.413 . S
H160 C165 0.930 . S
H161 C168 0.930 . S
H162 C170 0.930 . S
H163 C164 1.016 . S
C164 H163 1.016 . S
C164 N171 1.286 . S
C165 H160 0.930 . S
C165 C166 1.397 . S
C165 C167 1.341 1_545 S
C166 C165 1.397 . S
C166 C170 1.390 . S
C167 C165 1.341 1_565 S
C167 C168 1.379 1_565 S
C167 N171 1.447 . S
C168 H161 0.930 . S
C168 C167 1.379 1_545 S
C168 C169 1.399 . S
C169 C168 1.399 . S
C169 C170 1.381 . S
C170 H162 0.930 . S
C170 C166 1.390 . S
C170 C169 1.381 . S
N171 C164 1.286 . S
N171 C167 1.447 . S
H172 C177 0.930 . S
H173 C180 0.930 . S
H174 C182 0.930 . S
H175 C176 1.020 . S
C176 H175 1.020 . S
C176 N183 1.284 1_556 S
C177 H172 0.930 . S
C177 C178 1.397 . S
C177 C179 1.361 . S
C178 C177 1.397 . S
C178 C182 1.390 . S
C179 C177 1.361 . S
C179 C180 1.393 1_554 S
C179 N183 1.413 . S
C180 H173 0.930 . S
C180 C179 1.393 1_556 S
C180 C181 1.399 . S
C181 C180 1.399 . S
C181 C182 1.381 1_556 S
C182 H174 0.930 . S
C182 C178 1.390 . S
C182 C181 1.381 1_554 S
N183 C176 1.284 1_554 S
N183 C179 1.413 . S
C184 C185 1.387 . S
C184 H188 0.950 . S
C184 C193 1.390 . S
C185 C184 1.387 . S
C185 C187 1.387 . S
H186 C193 0.950 . S
C187 C185 1.387 . S
C187 C189 1.390 . S
C187 H191 0.950 . S
H188 C184 0.950 . S
C189 C187 1.390 . S
C189 C190 1.387 . S
C189 H192 0.950 . S
C190 C189 1.387 . S
C190 C193 1.387 . S
H191 C187 0.950 . S
H192 C189 0.950 . S
C193 C184 1.390 . S
C193 H186 0.950 . S
C193 C190 1.387 . S
C194 C195 1.387 . S
C194 H198 0.950 . S
C194 C203 1.390 . S
C195 C194 1.387 . S
C195 C197 1.387 . S
H196 C203 0.950 . S
C197 C195 1.387 . S
C197 C199 1.390 . S
C197 H201 0.950 . S
H198 C194 0.950 . S
C199 C197 1.390 . S
C199 C200 1.387 . S
C199 H202 0.950 . S
C200 C199 1.387 . S
C200 C203 1.387 . S
H201 C197 0.950 . S
H202 C199 0.950 . S
C203 C194 1.390 . S
C203 H196 0.950 . S
C203 C200 1.387 . S
C204 C205 1.387 . S
C204 H208 0.950 . S
C204 C213 1.390 . S
C205 C204 1.387 . S
C205 C207 1.387 . S
H206 C213 0.950 . S
C207 C205 1.387 . S
C207 C209 1.390 . S
C207 H211 0.950 . S
H208 C204 0.950 . S
C209 C207 1.390 . S
C209 C210 1.387 . S
C209 H212 0.950 . S
C210 C209 1.387 . S
C210 C213 1.387 . S
H211 C207 0.950 . S
H212 C209 0.950 . S
C213 C204 1.390 . S
C213 H206 0.950 . S
C213 C210 1.387 . S
C214 C215 1.387 . S
C214 H218 0.950 . S
C214 C223 1.390 . S
C215 C214 1.387 . S
C215 C217 1.387 . S
H216 C223 0.950 . S
C217 C215 1.387 . S
C217 C219 1.390 . S
C217 H221 0.950 . S
H218 C214 0.950 . S
C219 C217 1.390 . S
C219 C220 1.387 . S
C219 H222 0.950 . S
C220 C219 1.387 . S
C220 C223 1.387 . S
H221 C217 0.950 . S
H222 C219 0.950 . S
C223 C214 1.390 . S
C223 H216 0.950 . S
C223 C220 1.387 . S
C224 C225 1.387 . S
C224 H228 0.950 . S
C224 C233 1.390 . S
C225 C224 1.387 . S
C225 C227 1.387 . S
H226 C233 0.950 . S
C227 C225 1.387 . S
C227 C229 1.390 . S
C227 H231 0.950 . S
H228 C224 0.950 . S
C229 C227 1.390 . S
C229 C230 1.387 . S
C229 H232 0.950 . S
C230 C229 1.387 . S
C230 C233 1.387 . S
H231 C227 0.950 . S
H232 C229 0.950 . S
C233 C224 1.390 . S
C233 H226 0.950 . S
C233 C230 1.387 . S
C234 C235 1.387 . S
C234 H238 0.950 . S
C234 C243 1.390 . S
C235 C234 1.387 . S
C235 C237 1.387 . S
H236 C243 0.950 . S
C237 C235 1.387 . S
C237 C239 1.390 . S
C237 H241 0.950 . S
H238 C234 0.950 . S
C239 C237 1.390 . S
C239 C240 1.387 . S
C239 H242 0.950 . S
C240 C239 1.387 . S
C240 C243 1.387 . S
H241 C237 0.950 . S
H242 C239 0.950 . S
C243 C234 1.390 . S
C243 H236 0.950 . S
C243 C240 1.387 . S
C244 C245 1.387 . S
C244 H248 0.950 . S
C244 C253 1.390 . S
C245 C244 1.387 . S
C245 C247 1.387 . S
H246 C253 0.950 . S
C247 C245 1.387 . S
C247 C249 1.390 . S
C247 H251 0.950 . S
H248 C244 0.950 . S
C249 C247 1.390 . S
C249 C250 1.387 . S
C249 H252 0.950 . S
C250 C249 1.387 . S
C250 C253 1.387 . S
H251 C247 0.950 . S
H252 C249 0.950 . S
C253 C244 1.390 . S
C253 H246 0.950 . S
C253 C250 1.387 . S
C254 C255 1.387 . S
C254 H258 0.950 . S
C254 C263 1.390 . S
C255 C254 1.387 . S
C255 C257 1.387 . S
H256 C263 0.950 . S
C257 C255 1.387 . S
C257 C259 1.390 . S
C257 H261 0.950 . S
H258 C254 0.950 . S
C259 C257 1.390 . S
C259 C260 1.387 . S
C259 H262 0.950 . S
C260 C259 1.387 . S
C260 C263 1.387 . S
H261 C257 0.950 . S
H262 C259 0.950 . S
C263 C254 1.390 . S
C263 H256 0.950 . S
C263 C260 1.387 . S
C264 C265 1.387 . S
C264 H268 0.950 . S
C264 C273 1.390 . S
C265 C264 1.387 . S
C265 C267 1.387 . S
H266 C273 0.950 . S
C267 C265 1.387 . S
C267 C269 1.390 . S
C267 H271 0.950 . S
H268 C264 0.950 . S
C269 C267 1.390 . S
C269 C270 1.387 . S
C269 H272 0.950 . S
C270 C269 1.387 . S
C270 C273 1.387 . S
H271 C267 0.950 . S
H272 C269 0.950 . S
C273 C264 1.390 . S
C273 H266 0.950 . S
C273 C270 1.387 . S
C274 C275 1.387 . S
C274 H278 0.950 . S
C274 C283 1.390 . S
C275 C274 1.387 . S
C275 C277 1.387 . S
H276 C283 0.950 . S
C277 C275 1.387 . S
C277 C279 1.390 . S
C277 H281 0.950 . S
H278 C274 0.950 . S
C279 C277 1.390 . S
C279 C280 1.387 . S
C279 H282 0.950 . S
C280 C279 1.387 . S
C280 C283 1.387 . S
H281 C277 0.950 . S
H282 C279 0.950 . S
C283 C274 1.390 . S
C283 H276 0.950 . S
C283 C280 1.387 . S
C284 C285 1.387 . S
C284 H288 0.950 . S
C284 C293 1.390 . S
C285 C284 1.387 . S
C285 C287 1.387 . S
H286 C293 0.950 . S
C287 C285 1.387 . S
C287 C289 1.390 . S
C287 H291 0.950 . S
H288 C284 0.950 . S
C289 C287 1.390 . S
C289 C290 1.387 . S
C289 H292 0.950 . S
C290 C289 1.387 . S
C290 C293 1.387 . S
H291 C287 0.950 . S
H292 C289 0.950 . S
C293 C284 1.390 . S
C293 H286 0.950 . S
C293 C290 1.387 . S
C294 C295 1.387 . S
C294 H298 0.950 . S
C294 C303 1.390 . S
C295 C294 1.387 . S
C295 C297 1.387 . S
H296 C303 0.950 . S
C297 C295 1.387 . S
C297 C299 1.390 . S
C297 H301 0.950 . S
H298 C294 0.950 . S
C299 C297 1.390 . S
C299 C300 1.387 . S
C299 H302 0.950 . S
C300 C299 1.387 . S
C300 C303 1.387 . S
H301 C297 0.950 . S
H302 C299 0.950 . S
C303 C294 1.390 . S
C303 H296 0.950 . S
C303 C300 1.387 . S
C304 C305 1.387 . S
C304 H308 0.950 . S
C304 C313 1.390 . S
C305 C304 1.387 . S
C305 C307 1.387 . S
H306 C313 0.950 . S
C307 C305 1.387 . S
C307 C309 1.390 . S
C307 H311 0.950 . S
H308 C304 0.950 . S
C309 C307 1.390 . S
C309 C310 1.387 . S
C309 H312 0.950 . S
C310 C309 1.387 . S
C310 C313 1.387 . S
H311 C307 0.950 . S
H312 C309 0.950 . S
C313 C304 1.390 . S
C313 H306 0.950 . S
C313 C310 1.387 . S
C314 C315 1.387 . S
C314 H318 0.950 . S
C314 C323 1.390 . S
C315 C314 1.387 . S
C315 C317 1.387 . S
H316 C323 0.950 . S
C317 C315 1.387 . S
C317 C319 1.390 . S
C317 H321 0.950 . S
H318 C314 0.950 . S
C319 C317 1.390 . S
C319 C320 1.387 . S
C319 H322 0.950 . S
C320 C319 1.387 . S
C320 C323 1.387 . S
H321 C317 0.950 . S
H322 C319 0.950 . S
C323 C314 1.390 . S
C323 H316 0.950 . S
C323 C320 1.387 . S
C324 C325 1.387 . S
C324 H328 0.950 . S
C324 C333 1.390 . S
C325 C324 1.387 . S
C325 C327 1.387 . S
H326 C333 0.950 . S
C327 C325 1.387 . S
C327 C329 1.390 . S
C327 H331 0.950 . S
H328 C324 0.950 . S
C329 C327 1.390 . S
C329 C330 1.387 . S
C329 H332 0.950 . S
C330 C329 1.387 . S
C330 C333 1.387 . S
H331 C327 0.950 . S
H332 C329 0.950 . S
C333 C324 1.390 . S
C333 H326 0.950 . S
C333 C330 1.387 . S
C334 C335 1.387 . S
C334 H338 0.950 . S
C334 C343 1.390 . S
C335 C334 1.387 . S
C335 C337 1.387 . S
H336 C343 0.950 . S
C337 C335 1.387 . S
C337 C339 1.390 . S
C337 H341 0.950 . S
H338 C334 0.950 . S
C339 C337 1.390 . S
C339 C340 1.387 . S
C339 H342 0.950 . S
C340 C339 1.387 . S
C340 C343 1.387 . S
H341 C337 0.950 . S
H342 C339 0.950 . S
C343 C334 1.390 . S
C343 H336 0.950 . S
C343 C340 1.387 . S
C344 C345 1.387 1_556 S
C344 H348 0.950 . S
C344 C353 1.390 . S
C345 C344 1.387 1_554 S
C345 C347 1.387 . S
H346 C353 0.950 . S
C347 C345 1.387 . S
C347 C349 1.390 . S
C347 H351 0.950 . S
H348 C344 0.950 . S
C349 C347 1.390 . S
C349 C350 1.387 . S
C349 H352 0.950 . S
C350 C349 1.387 . S
C350 C353 1.387 1_554 S
H351 C347 0.950 . S
H352 C349 0.950 . S
C353 C344 1.390 . S
C353 H346 0.950 . S
C353 C350 1.387 1_556 S
C354 C355 1.387 . S
C354 H358 0.950 . S
C354 C363 1.390 . S
C355 C354 1.387 . S
C355 C357 1.387 . S
H356 C363 0.950 . S
C357 C355 1.387 . S
C357 C359 1.390 . S
C357 H361 0.950 . S
H358 C354 0.950 . S
C359 C357 1.390 . S
C359 C360 1.387 . S
C359 H362 0.950 . S
C360 C359 1.387 . S
C360 C363 1.387 . S
H361 C357 0.950 . S
H362 C359 0.950 . S
C363 C354 1.390 . S
C363 H356 0.950 . S
C363 C360 1.387 . S
C364 C365 1.387 . S
C364 H368 0.950 . S
C364 C373 1.390 . S
C365 C364 1.387 . S
C365 C367 1.387 1_554 S
H366 C373 0.950 . S
C367 C365 1.387 1_556 S
C367 C369 1.390 . S
C367 H371 0.950 . S
H368 C364 0.950 . S
C369 C367 1.390 . S
C369 C370 1.387 1_556 S
C369 H372 0.950 . S
C370 C369 1.387 1_554 S
C370 C373 1.387 . S
H371 C367 0.950 . S
H372 C369 0.950 . S
C373 C364 1.390 . S
C373 H366 0.950 . S
C373 C370 1.387 . S
C374 C375 1.387 . S
C374 H378 0.950 . S
C374 C383 1.390 . S
C375 C374 1.387 . S
C375 C377 1.387 . S
H376 C383 0.950 . S
C377 C375 1.387 . S
C377 C379 1.390 . S
C377 H381 0.950 . S
H378 C374 0.950 . S
C379 C377 1.390 . S
C379 C380 1.387 . S
C379 H382 0.950 . S
C380 C379 1.387 . S
C380 C383 1.387 . S
H381 C377 0.950 . S
H382 C379 0.950 . S
C383 C374 1.390 . S
C383 H376 0.950 . S
C383 C380 1.387 . S
C384 C385 1.387 . S
C384 H388 0.950 . S
C384 C393 1.390 . S
C385 C384 1.387 . S
C385 C387 1.387 . S
H386 C393 0.950 . S
C387 C385 1.387 . S
C387 C389 1.390 . S
C387 H391 0.950 . S
H388 C384 0.950 . S
C389 C387 1.390 . S
C389 C390 1.387 . S
C389 H392 0.950 . S
C390 C389 1.387 . S
C390 C393 1.387 . S
H391 C387 0.950 . S
H392 C389 0.950 . S
C393 C384 1.390 . S
C393 H386 0.950 . S
C393 C390 1.387 . S
C394 C395 1.387 1_556 S
C394 H398 0.950 . S
C394 C403 1.390 . S
C395 C394 1.387 1_554 S
C395 C397 1.387 . S
H396 C403 0.950 . S
C397 C395 1.387 . S
C397 C399 1.390 . S
C397 H401 0.950 . S
H398 C394 0.950 . S
C399 C397 1.390 . S
C399 C400 1.387 . S
C399 H402 0.950 . S
C400 C399 1.387 . S
C400 C403 1.387 1_554 S
H401 C397 0.950 . S
H402 C399 0.950 . S
C403 C394 1.390 . S
C403 H396 0.950 . S
C403 C400 1.387 1_556 S
C404 C405 1.387 . S
C404 H408 0.950 . S
C404 C413 1.390 . S
C405 C404 1.387 . S
C405 C407 1.387 . S
H406 C413 0.950 . S
C407 C405 1.387 . S
C407 C409 1.390 . S
C407 H411 0.950 . S
H408 C404 0.950 . S
C409 C407 1.390 . S
C409 C410 1.387 . S
C409 H412 0.950 . S
C410 C409 1.387 . S
C410 C413 1.387 . S
H411 C407 0.950 . S
H412 C409 0.950 . S
C413 C404 1.390 . S
C413 H406 0.950 . S
C413 C410 1.387 . S
C414 C415 1.387 1_556 S
C414 H418 0.950 . S
C414 C423 1.390 . S
C415 C414 1.387 1_554 S
C415 C417 1.387 . S
H416 C423 0.950 . S
C417 C415 1.387 . S
C417 C419 1.390 . S
C417 H421 0.950 . S
H418 C414 0.950 . S
C419 C417 1.390 . S
C419 C420 1.387 . S
C419 H422 0.950 . S
C420 C419 1.387 . S
C420 C423 1.387 1_554 S
H421 C417 0.950 . S
H422 C419 0.950 . S
C423 C414 1.390 . S
C423 H416 0.950 . S
C423 C420 1.387 1_556 S
C185 C5 1.460 . S
C190 C130 1.472 . S
C195 C31 1.476 . S
C200 C94 1.484 . S
C210 C109 1.479 . S
C205 C53 1.497 . S
C215 C71 1.482 . S
C220 C121 1.467 . S
C230 C157 1.468 . S
C225 C75 1.481 . S
C240 C169 1.477 . S
C235 C9 1.499 . S
C250 C178 1.485 . S
C245 C27 1.475 . S
C260 C142 1.472 . S
C255 C49 1.461 . S
C265 C51 1.461 . S
C270 C106 1.463 . S
C275 C72 1.475 . S
C280 C118 1.475 . S
C285 C6 1.498 . S
C290 C133 1.484 . S
C300 C97 1.471 . S
C295 C29 1.482 . S
C305 C28 1.482 . S
C310 C181 1.471 . S
C320 C145 1.485 . S
C315 C50 1.497 . S
C330 C154 1.474 . S
C325 C73 1.476 . S
C335 C7 1.460 . S
C340 C166 1.463 . S
C350 C92 1.505 . S
C345 C4 1.507 . S
C360 C104 1.510 . S
C355 C30 1.508 . S
C365 C52 1.509 . S
C370 C116 1.511 1_554 S
C375 C70 1.507 . S
C380 C128 1.504 . S
C390 C140 1.505 . S
C385 C74 1.507 . S
C395 C8 1.509 . S
C400 C152 1.511 . S
C405 C26 1.508 . S
C410 C164 1.510 . S
C415 C48 1.509 . S
C420 C176 1.504 1_554 S
