# Generated by pormake.
# Topology anh, (6,3)-cn, num edge types: 1
# Building blocks:
#     Node 0, Type 0, BuildingBlock: GEDQOX_clean_sbu_0, # of connection points: 6
#     Node 1, Type 0, BuildingBlock: GEDQOX_clean_sbu_0, # of connection points: 6
#     Node 2, Type 0, BuildingBlock: GEDQOX_clean_sbu_0, # of connection points: 6
#     Node 3, Type 1, BuildingBlock: BELTOD_clean_linker_0, # of connection points: 3
#     Node 4, Type 1, BuildingBlock: BELTOD_clean_linker_0, # of connection points: 3
#     Node 5, Type 1, BuildingBlock: BELTOD_clean_linker_0, # of connection points: 3
#     Node 6, Type 1, BuildingBlock: BELTOD_clean_linker_0, # of connection points: 3
#     Node 7, Type 1, BuildingBlock: BELTOD_clean_linker_0, # of connection points: 3
#     Node 8, Type 1, BuildingBlock: BELTOD_clean_linker_0, # of connection points: 3
#     Edge 9, Type (0, 1), BuildingBlock: CIFDUS_clean_linker_0, # of connection points: 2
#     Edge 10, Type (0, 1), BuildingBlock: CIFDUS_clean_linker_0, # of connection points: 2
#     Edge 11, Type (0, 1), BuildingBlock: CIFDUS_clean_linker_0, # of connection points: 2
#     Edge 12, Type (0, 1), BuildingBlock: CIFDUS_clean_linker_0, # of connection points: 2
#     Edge 13, Type (0, 1), BuildingBlock: CIFDUS_clean_linker_0, # of connection points: 2
#     Edge 14, Type (0, 1), BuildingBlock: CIFDUS_clean_linker_0, # of connection points: 2
#     Edge 15, Type (0, 1), BuildingBlock: CIFDUS_clean_linker_0, # of connection points: 2
#     Edge 16, Type (0, 1), BuildingBlock: CIFDUS_clean_linker_0, # of connection points: 2
#     Edge 17, Type (0, 1), BuildingBlock: CIFDUS_clean_linker_0, # of connection points: 2
#     Edge 18, Type (0, 1), BuildingBlock: CIFDUS_clean_linker_0, # of connection points: 2
#     Edge 19, Type (0, 1), BuildingBlock: CIFDUS_clean_linker_0, # of connection points: 2
#     Edge 20, Type (0, 1), BuildingBlock: CIFDUS_clean_linker_0, # of connection points: 2
#     Edge 21, Type (0, 1), BuildingBlock: CIFDUS_clean_linker_0, # of connection points: 2
#     Edge 22, Type (0, 1), BuildingBlock: CIFDUS_clean_linker_0, # of connection points: 2
#     Edge 23, Type (0, 1), BuildingBlock: CIFDUS_clean_linker_0, # of connection points: 2
#     Edge 24, Type (0, 1), BuildingBlock: CIFDUS_clean_linker_0, # of connection points: 2
#     Edge 25, Type (0, 1), BuildingBlock: CIFDUS_clean_linker_0, # of connection points: 2
#     Edge 26, Type (0, 1), BuildingBlock: CIFDUS_clean_linker_0, # of connection points: 2
# Relax obj value: 0.190
# Max RMSD: 0.216
# Mean RMSD: 0.154
data_MOF--net-anh--node1-GEDQOX_clean_sbu_0--node2-BELTOD_clean_linker_0--edge1-CIFDUS_clean_linker_0
_symmetry_space_group_name_H-M    P1
_symmetry_Int_Tables_number       1
_symmetry_cell_setting            triclinic
loop_
_symmetry_equiv_pos_as_xyz
'x, y, z'
_cell_length_a     31.799997
_cell_length_b     30.071975
_cell_length_c     54.642466
_cell_angle_alpha  93.333625
_cell_angle_beta   90.242179
_cell_angle_gamma 105.297
loop_
_atom_site_label
_atom_site_type_symbol
_atom_site_fract_x
_atom_site_fract_y
_atom_site_fract_z
_atom_type_partial_charge
Nd0 Nd 0.07218 0.56328 0.13793 0.0
Nd1 Nd 1.04574 0.45896 0.13275 0.0
C2 C 0.10924 0.65235 0.1341 0.0
C3 C 0.14883 0.68668 0.14418 0.0
C4 C 0.18018 0.71059 0.12821 0.0
C5 C 0.21789 0.74298 0.13747 0.0
C6 C 0.22482 0.75242 0.1629 0.0
C7 C 0.19339 0.72842 0.17884 0.0
C8 C 0.15592 0.69584 0.16961 0.0
C9 C 0.05973 0.5223 0.18187 0.0
C10 C 0.15179 0.50584 0.13296 0.0
C11 C 1.01118 0.37032 0.13948 0.0
C12 C 0.97201 0.34051 0.1504 0.0
C13 C 0.92971 0.34414 0.14521 0.0
C14 C 0.8935 0.31607 0.15649 0.0
C15 C 0.89899 0.28418 0.17329 0.0
C16 C 0.94138 0.28053 0.17821 0.0
C17 C 0.97738 0.3083 0.16688 0.0
C18 C 0.0621 0.50201 0.08961 0.0
C19 C 0.96659 0.51429 0.13523 0.0
O20 O 0.11538 0.62025 0.11836 0.0
O21 O 0.07815 0.63649 0.14945 0.0
O22 O 1.04942 0.56017 0.1778 0.0
O23 O 0.07822 0.50906 0.16357 0.0
O24 O 0.14134 0.54619 0.1336 0.0
O25 O 0.12039 0.46677 0.1337 0.0
O26 O 1.03901 0.3981 0.15489 0.0
O27 O 1.00617 0.38942 0.11911 0.0
O28 O 0.07303 0.46423 0.09353 0.0
O29 O 1.0413 0.51343 0.10734 0.0
O30 O 0.97919 0.4771 0.1407 0.0
O31 O 0.9969 0.55223 0.12987 0.0
H32 H 0.17547 0.70421 0.10854 0.0
H33 H 0.24133 0.76111 0.12471 0.0
H34 H 0.19804 0.73437 0.19853 0.0
H35 H 0.13262 0.67778 0.18246 0.0
H36 H 0.92463 0.36886 0.13264 0.0
H37 H 0.86135 0.31997 0.15242 0.0
H38 H 0.94676 0.25587 0.19075 0.0
H39 H 1.00962 0.30479 0.17113 0.0
Nd40 Nd 0.51726 0.96807 0.5273 0.0
Nd41 Nd 0.61302 1.00095 0.52012 0.0
C42 C 0.4357 0.92699 0.53798 0.0
C43 C 0.40076 0.88873 0.52662 0.0
C44 C 0.37816 0.85316 0.54093 0.0
C45 C 0.34615 0.81574 0.53024 0.0
C46 C 0.33592 0.81343 0.50505 0.0
C47 C 0.35825 0.84938 0.49081 0.0
C48 C 0.39051 0.88653 0.50145 0.0
C49 C 0.54094 0.98103 0.47907 0.0
C50 C 0.57516 0.89088 0.52169 0.0
C51 C 0.69256 0.04214 0.50592 0.0
C52 C 0.71885 0.08794 0.49897 0.0
C53 C 0.7185 0.10085 0.47466 0.0
C54 C 0.74608 0.14248 0.46779 0.0
C55 C 0.77481 0.17202 0.48503 0.0
C56 C 0.77434 0.15961 0.50946 0.0
C57 C 0.74681 0.11799 0.51633 0.0
C58 C 0.59112 0.9809 0.56736 0.0
C59 C 0.55753 0.07698 0.53132 0.0
O60 O 0.46919 0.91569 0.5472 0.0
O61 O 0.44696 0.96487 0.52623 0.0
O62 O 0.5074 0.99173 0.48849 0.0
O63 O 0.55908 0.96258 0.49452 0.0
O64 O 0.53904 0.90029 0.52977 0.0
O65 O 0.60754 0.9237 0.51364 0.0
O66 O 0.66129 0.01925 0.49077 0.0
O67 O 0.68188 0.038 0.52893 0.0
O68 O 0.62388 0.97106 0.55634 0.0
O69 O 0.57181 1.00253 0.55395 0.0
O70 O 0.58879 0.06717 0.51793 0.0
O71 O 0.52899 0.04369 0.54173 0.0
H72 H 0.38559 0.85412 0.56036 0.0
H73 H 0.32927 0.78867 0.54168 0.0
H74 H 0.35151 0.84823 0.4713 0.0
H75 H 0.40774 0.91321 0.48988 0.0
H76 H 0.6977 0.07832 0.46076 0.0
H77 H 0.74604 0.15065 0.44875 0.0
H78 H 0.79571 0.18183 0.52324 0.0
H79 H 0.74809 0.10895 0.53517 0.0
Nd80 Nd 0.47776 0.46406 0.83108 0.0
Nd81 Nd 0.57586 0.49901 0.85255 0.0
C82 C 0.40386 0.45249 0.80651 0.0
C83 C 0.38363 0.48578 0.79596 0.0
C84 C 0.40971 0.52811 0.78864 0.0
C85 C 0.39161 0.56515 0.78597 0.0
C86 C 0.34735 0.56042 0.7908 0.0
C87 C 0.32053 0.51653 0.79546 0.0
C88 C 0.33862 0.4795 0.79808 0.0
C89 C 0.48963 0.45736 0.88054 0.0
C90 C 0.5222 0.57607 0.84363 0.0
C91 C 0.6452 0.52247 0.88192 0.0
C92 C 0.69258 0.53142 0.87975 0.0
C93 C 0.7181 0.5305 0.90055 0.0
C94 C 0.76353 0.54392 0.89941 0.0
C95 C 0.78404 0.55872 0.87745 0.0
C96 C 0.75827 0.55793 0.85639 0.0
C97 C 0.71283 0.5442 0.85751 0.0
C98 C 0.57555 0.49603 0.80182 0.0
C99 C 0.53098 0.38753 0.83789 0.0
O100 O 0.4394 0.44688 0.79619 0.0
O101 O 0.40673 0.4561 0.83049 0.0
O102 O 0.46021 0.42745 0.86717 0.0
O103 O 0.50929 0.49012 0.86805 0.0
O104 O 0.49173 0.54388 0.83122 0.0
O105 O 0.55431 0.56606 0.85573 0.0
O106 O 0.622 0.47961 0.87789 0.0
O107 O 0.62794 0.5524 0.87211 0.0
O108 O 0.6112 0.50855 0.81506 0.0
O109 O 0.54388 0.48581 0.81585 0.0
O110 O 0.55949 0.41913 0.85191 0.0
O111 O 0.49942 0.39747 0.8252 0.0
H112 H 0.44461 0.53371 0.78688 0.0
H113 H 0.41282 0.5984 0.78199 0.0
H114 H 0.28636 0.5118 0.79946 0.0
H115 H 0.31808 0.44716 0.80387 0.0
H116 H 0.7029 0.52083 0.91786 0.0
H117 H 0.78256 0.54462 0.91598 0.0
H118 H 0.77325 0.56871 0.83918 0.0
H119 H 0.69354 0.54491 0.84122 0.0
P120 P 0.59058 0.97391 0.25082 0.0
H121 H 0.56643 0.96207 0.19864 0.0
H122 H 0.4982 0.92363 0.17661 0.0
H123 H 0.43325 0.89933 0.24581 0.0
H124 H 0.50073 0.93908 0.26746 0.0
H125 H 0.68403 0.01035 0.2562 0.0
H126 H 0.73671 0.07447 0.23894 0.0
H127 H 0.63161 0.11417 0.20342 0.0
H128 H 0.57886 0.04911 0.2207 0.0
H129 H 0.58965 0.91526 0.29157 0.0
H130 H 0.57313 0.05073 0.28132 0.0
O131 O 0.61455 0.93098 0.24669 0.0
H132 H 0.57647 0.92441 0.33519 0.0
H133 H 0.56039 0.06058 0.32539 0.0
C134 C 0.53866 0.95454 0.23469 0.0
C135 C 0.53713 0.94972 0.209 0.0
C136 C 0.49817 0.92711 0.19645 0.0
C137 C 0.46003 0.90809 0.20938 0.0
C138 C 0.46156 0.91415 0.23514 0.0
C139 C 0.50043 0.93697 0.24763 0.0
C140 C 0.62765 0.02439 0.23934 0.0
C141 C 0.67226 0.03297 0.24479 0.0
C142 C 0.70238 0.06996 0.23502 0.0
C143 C 0.68853 0.09955 0.21967 0.0
C144 C 0.64348 0.09169 0.21486 0.0
C145 C 0.61325 0.05456 0.22477 0.0
C146 C 0.58328 0.98271 0.28329 0.0
C147 C 0.58386 0.94736 0.29879 0.0
C148 C 0.5764 0.9527 0.32381 0.0
C149 C 0.56784 0.99345 0.33391 0.0
C150 C 0.56678 0.02873 0.31822 0.0
C151 C 0.57438 0.02333 0.29309 0.0
P152 P 0.62177 0.50245 0.5728 0.0
H153 H 0.65506 0.4547 0.5324 0.0
H154 H 0.63983 0.37386 0.5188 0.0
H155 H 0.52597 0.34355 0.5643 0.0
H156 H 0.5434 0.42501 0.57895 0.0
H157 H 0.67004 0.59828 0.57019 0.0
H158 H 0.65116 0.66749 0.55894 0.0
H159 H 0.51957 0.58702 0.54114 0.0
H160 H 0.53903 0.51685 0.55285 0.0
H161 H 0.6493 0.44676 0.60776 0.0
H162 H 0.5736 0.54658 0.6091 0.0
O163 O 0.67588 0.5145 0.5703 0.0
H164 H 0.64391 0.4435 0.65222 0.0
H165 H 0.56839 0.54376 0.65378 0.0
C166 C 0.60068 0.44615 0.55689 0.0
C167 C 0.62624 0.43095 0.53911 0.0
C168 C 0.61726 0.38419 0.53123 0.0
C169 C 0.58181 0.35116 0.54058 0.0
C170 C 0.55425 0.36729 0.55708 0.0
C171 C 0.5637 0.41422 0.56521 0.0
C172 C 0.60633 0.55189 0.56175 0.0
C173 C 0.63726 0.59501 0.5634 0.0
C174 C 0.62639 0.63489 0.55689 0.0
C175 C 0.58396 0.63313 0.54873 0.0
C176 C 0.55262 0.58981 0.5473 0.0
C177 C 0.56373 0.54954 0.55378 0.0
C178 C 0.61227 0.49719 0.60514 0.0
C179 C 0.63122 0.46773 0.61763 0.0
C180 C 0.62831 0.46608 0.64306 0.0
C181 C 0.60619 0.49382 0.65656 0.0
C182 C 0.58555 0.5219 0.64387 0.0
C183 C 0.58867 0.52368 0.61833 0.0
P184 P 0.16166 0.77475 0.92188 0.0
H185 H 0.22299 0.82781 0.88785 0.0
H186 H 0.27473 0.8059 0.85922 0.0
H187 H 0.24667 0.67136 0.8885 0.0
H188 H 0.19502 0.69272 0.9167 0.0
H189 H 0.08829 0.81308 0.91091 0.0
H190 H 1.01572 0.77665 0.89321 0.0
H191 H 0.05558 0.65254 0.87425 0.0
H192 H 0.12702 0.68831 0.89257 0.0
H193 H 0.21576 0.73949 0.95649 0.0
H194 H 0.08295 0.74855 0.95053 0.0
O195 O 0.17145 0.8316 0.92803 0.0
H196 H 0.19659 0.69343 0.99244 0.0
H197 H 0.06401 0.70342 0.98622 0.0
C198 C 0.20609 0.76239 0.90494 0.0
C199 C 0.22897 0.79409 0.88861 0.0
C200 C 0.25828 0.78164 0.87224 0.0
C201 C 0.26455 0.73724 0.872 0.0
C202 C 0.24251 0.70601 0.8887 0.0
C203 C 0.21335 0.7184 0.90497 0.0
C204 C 0.11332 0.75367 0.90288 0.0
C205 C 0.0818 0.77856 0.90227 0.0
C206 C 1.04033 0.75769 0.89212 0.0
C207 C 1.02985 0.71154 0.88255 0.0
C208 C 0.0625 0.6879 0.88178 0.0
C209 C 0.10368 0.70864 0.89204 0.0
C210 C 0.15036 0.74581 0.95011 0.0
C211 C 0.18252 0.73145 0.96275 0.0
C212 C 0.17159 0.70522 0.9833 0.0
C213 C 0.12867 0.69435 0.99193 0.0
C214 C 0.09733 0.71119 0.98003 0.0
C215 C 0.10814 0.73679 0.95944 0.0
P216 P 0.10204 0.44498 0.40279 0.0
H217 H 0.19563 0.47539 0.4135 0.0
H218 H 0.24167 0.54234 0.4369 0.0
H219 H 0.12875 0.59259 0.45259 0.0
H220 H 0.0825 0.52486 0.42926 0.0
H221 H 1.01334 0.39448 0.3862 0.0
H222 H 0.95192 0.34805 0.40761 0.0
H223 H 1.0216 0.39148 0.47668 0.0
H224 H 0.08384 0.43657 0.45492 0.0
H225 H 0.08141 0.38875 0.357 0.0
H226 H 0.09488 0.53082 0.38148 0.0
O227 O 0.12987 0.40508 0.40011 0.0
H228 H 0.06434 0.40549 0.31552 0.0
H229 H 0.07987 0.54844 0.33991 0.0
C230 C 0.13559 0.49492 0.4199 0.0
C231 C 0.18064 0.50058 0.42208 0.0
C232 C 0.20694 0.53881 0.43551 0.0
C233 C 0.18874 0.57248 0.44671 0.0
C234 C 0.14364 0.56721 0.4441 0.0
C235 C 0.11722 0.52854 0.43088 0.0
C236 C 1.05312 0.41963 0.41895 0.0
C237 C 1.01522 0.39495 0.40598 0.0
C238 C 0.97983 0.36843 0.41832 0.0
C239 C 0.98175 0.36584 0.44392 0.0
C240 C 1.01918 0.39221 0.45694 0.0
C241 C 0.05465 0.41848 0.44454 0.0
C242 C 0.09 0.4586 0.37229 0.0
C243 C 0.08115 0.4237 0.35338 0.0
C244 C 0.07159 0.43342 0.32961 0.0
C245 C 0.07102 0.47844 0.32422 0.0
C246 C 0.07948 0.51325 0.34337 0.0
C247 C 0.08854 0.50331 0.36721 0.0
P248 P 0.56058 0.98759 0.79524 0.0
H249 H 0.58574 0.05242 0.83821 0.0
H250 H 0.56748 0.1245 0.84992 0.0
H251 H 0.46713 0.09339 0.79307 0.0
H252 H 0.4839 0.02021 0.78267 0.0
H253 H 0.60885 0.92927 0.8172 0.0
H254 H 0.58973 0.84883 0.82666 0.0
H255 H 0.45492 0.83706 0.80785 0.0
H256 H 0.47493 0.91859 0.79772 0.0
H257 H 0.57004 0.06024 0.76121 0.0
H258 H 0.53767 0.91127 0.75658 0.0
O259 O 0.61434 0.00704 0.80016 0.0
H260 H 0.56393 0.05995 0.71668 0.0
H261 H 0.53178 0.9109 0.71192 0.0
C262 C 0.53684 0.03126 0.80921 0.0
C263 C 0.55886 0.06044 0.8288 0.0
C264 C 0.54882 0.10224 0.83519 0.0
C265 C 0.51674 0.11605 0.82195 0.0
C266 C 0.4921 0.08449 0.80378 0.0
C267 C 0.50172 0.04234 0.79771 0.0
C268 C 0.54331 0.93039 0.8069 0.0
C269 C 0.57494 0.90995 0.81553 0.0
C270 C 0.56384 0.86355 0.82107 0.0
C271 C 0.52065 0.83599 0.81814 0.0
C272 C 0.48859 0.85695 0.81016 0.0
C273 C 0.49984 0.90374 0.80462 0.0
C274 C 0.553 0.98579 0.76239 0.0
C275 C 0.56074 0.02739 0.75067 0.0
C276 C 0.5572 0.02722 0.72519 0.0
C277 C 0.54687 0.98539 0.71082 0.0
C278 C 0.53963 0.94367 0.72255 0.0
C279 C 0.54273 0.94387 0.74813 0.0
P280 P 0.5547 0.48991 0.10974 0.0
H281 H 0.61144 0.4632 0.14705 0.0
H282 H 0.69026 0.47526 0.15185 0.0
H283 H 0.71076 0.57326 0.09566 0.0
H284 H 0.63242 0.56182 0.09144 0.0
H285 H 0.47326 0.43829 0.13327 0.0
H286 H 0.40111 0.44957 0.13863 0.0
H287 H 0.4466 0.58645 0.11264 0.0
H288 H 0.51978 0.57553 0.10841 0.0
H289 H 0.5436 0.41621 0.0703 0.0
H290 H 0.56061 0.56362 0.07551 0.0
O291 O 0.54446 0.43431 0.11581 0.0
H292 H 0.53858 0.41578 0.0258 0.0
H293 H 0.55426 0.56317 0.03102 0.0
C294 C 0.61409 0.5117 0.11897 0.0
C295 C 0.63265 0.4884 0.13613 0.0
C296 C 0.67856 0.49477 0.13858 0.0
C297 C 0.70873 0.52502 0.12403 0.0
C298 C 0.69005 0.54983 0.10761 0.0
C299 C 0.64416 0.54334 0.10516 0.0
C300 C 0.50396 0.50589 0.1204 0.0
C301 C 0.46866 0.47145 0.12915 0.0
C302 C 0.42612 0.4777 0.13185 0.0
C303 C 0.41585 0.51878 0.12575 0.0
C304 C 0.45166 0.55405 0.11781 0.0
C305 C 0.49448 0.54779 0.11525 0.0
C306 C 0.55198 0.48994 0.07653 0.0
C307 C 0.54598 0.44856 0.06201 0.0
C308 C 0.54284 0.44825 0.03642 0.0
C309 C 0.54573 0.48938 0.02472 0.0
C310 C 0.55222 0.53086 0.03932 0.0
C311 C 0.55534 0.53109 0.0649 0.0
H312 H 0.23217 0.57615 0.13484 0.0
H313 H 0.18104 0.42801 0.12708 0.0
H314 H 0.25462 0.41893 0.12415 0.0
H315 H 0.33462 0.45152 0.1233 0.0
H316 H 0.3876 0.59935 0.1325 0.0
H317 H 0.31396 0.60911 0.13485 0.0
C318 C 0.23689 0.54178 0.13251 0.0
C319 C 0.19948 0.50287 0.13124 0.0
C320 C 0.28058 0.53634 0.13091 0.0
C321 C 0.20786 0.45897 0.12823 0.0
C322 C 0.25054 0.45357 0.1265 0.0
C323 C 0.33076 0.48614 0.12612 0.0
C324 C 0.36867 0.52447 0.12756 0.0
C325 C 0.28741 0.49183 0.12783 0.0
C326 C 0.36064 0.56862 0.13078 0.0
C327 C 0.31782 0.57441 0.13236 0.0
H328 H 0.86022 0.20292 0.49874 0.0
H329 H 0.76211 0.23497 0.45334 0.0
H330 H 0.81695 0.29987 0.43779 0.0
H331 H 0.89355 0.34498 0.43559 0.0
H332 H 0.9914 0.31061 0.48032 0.0
H333 H 0.93555 0.25039 0.49828 0.0
C334 C 0.85058 0.2246 0.4858 0.0
C335 C 0.80711 0.21394 0.47717 0.0
C336 C 0.88225 0.26165 0.47687 0.0
C337 C 0.79545 0.24202 0.46005 0.0
C338 C 0.82676 0.27924 0.45122 0.0
C339 C 0.90266 0.32436 0.44928 0.0
C340 C 0.94675 0.33245 0.45651 0.0
C341 C 0.87042 0.2889 0.4592 0.0
C342 C 0.95776 0.3058 0.47461 0.0
C343 C 0.92586 0.27093 0.48475 0.0
H344 H 0.47554 0.61668 0.8134 0.0
H345 H 0.56783 0.64748 0.87421 0.0
H346 H 0.57239 0.72937 0.87301 0.0
H347 H 0.55385 0.79308 0.85346 0.0
H348 H 0.4645 0.76397 0.79136 0.0
H349 H 0.45444 0.68121 0.79472 0.0
C350 C 0.49624 0.64122 0.82656 0.0
C351 C 0.52148 0.62556 0.84376 0.0
C352 C 0.49927 0.68887 0.82559 0.0
C353 C 0.54827 0.65819 0.8606 0.0
C354 C 0.5509 0.70524 0.85997 0.0
C355 C 0.53215 0.76874 0.8406 0.0
C356 C 0.51037 0.78524 0.82202 0.0
C357 C 0.5272 0.72109 0.84229 0.0
C358 C 0.48153 0.75271 0.80599 0.0
C359 C 0.47599 0.70515 0.80778 0.0
H360 H 0.92105 0.58001 0.12308 0.0
H361 H 0.89857 0.44113 0.14628 0.0
H362 H 0.82023 0.43206 0.14518 0.0
H363 H 0.75587 0.46196 0.13716 0.0
H364 H 0.77742 0.6014 0.11486 0.0
H365 H 0.8559 0.61076 0.11593 0.0
C366 C 0.89922 0.54771 0.12799 0.0
C367 C 0.91733 0.51137 0.13476 0.0
C368 C 0.85278 0.54234 0.12737 0.0
C369 C 0.88709 0.47005 0.14092 0.0
C370 C 0.84157 0.46467 0.14032 0.0
C371 C 0.77733 0.49477 0.13271 0.0
C372 C 0.75873 0.53061 0.12568 0.0
C373 C 0.82367 0.50041 0.13353 0.0
C374 C 0.78893 0.5723 0.11985 0.0
C375 C 0.83463 0.578 0.12064 0.0
H376 H 0.32805 0.72264 0.51113 0.0
H377 H 0.27041 0.81381 0.47261 0.0
H378 H 0.21844 0.74733 0.45192 0.0
H379 H 0.19107 0.66311 0.4437 0.0
H380 H 0.25018 0.5723 0.48153 0.0
H381 H 0.29966 0.63869 0.50369 0.0
C382 C 0.30373 0.72791 0.49844 0.0
C383 C 0.30304 0.77305 0.49343 0.0
C384 C 0.27433 0.68958 0.48643 0.0
C385 C 0.27182 0.77938 0.47662 0.0
C386 C 0.24203 0.7414 0.46485 0.0
C387 C 0.21448 0.65794 0.457 0.0
C388 C 0.21706 0.61293 0.46096 0.0
C389 C 0.24322 0.69633 0.46945 0.0
C390 C 0.24789 0.60667 0.47801 0.0
C391 C 0.27609 0.64459 0.49073 0.0
H392 H 0.46682 0.30788 0.82707 0.0
H393 H 0.60371 0.35829 0.846 0.0
H394 H 0.61115 0.27939 0.84322 0.0
H395 H 0.5796 0.19648 0.83409 0.0
H396 H 0.44152 0.14493 0.8181 0.0
H397 H 0.43407 0.22371 0.82074 0.0
C398 C 0.49829 0.30158 0.83056 0.0
C399 C 0.53473 0.33914 0.83657 0.0
C400 C 0.50223 0.25584 0.82937 0.0
C401 C 0.5751 0.33018 0.84137 0.0
C402 C 0.57941 0.28499 0.83975 0.0
C403 C 0.54757 0.20203 0.83168 0.0
C404 C 0.51127 0.16413 0.82575 0.0
C405 C 0.54324 0.24754 0.8337 0.0
C406 C 0.47036 0.17298 0.82221 0.0
C407 C 0.46595 0.21821 0.82386 0.0
H408 H 0.51892 0.8145 0.54003 0.0
H409 H 0.64401 0.8593 0.50586 0.0
H410 H 0.65627 0.78345 0.50986 0.0
H411 H 0.63347 0.70533 0.52455 0.0
H412 H 0.50947 0.66003 0.5596 0.0
H413 H 0.49457 0.73437 0.55324 0.0
C414 C 0.54874 0.80763 0.53328 0.0
C415 C 0.58055 0.84308 0.52275 0.0
C416 C 0.55585 0.7636 0.53575 0.0
C417 C 0.61892 0.83313 0.51412 0.0
C418 C 0.62605 0.78958 0.51641 0.0
C419 C 0.60316 0.71161 0.53088 0.0
C420 C 0.57286 0.67689 0.54276 0.0
C421 C 0.59506 0.75475 0.52748 0.0
C422 C 0.53335 0.68568 0.55026 0.0
C423 C 0.52494 0.72847 0.54679 0.0
H424 H 0.8287 0.63778 0.85775 0.0
H425 H 0.84655 0.52331 0.89687 0.0
H426 H 0.92495 0.55939 0.90028 0.0
H427 H 0.98699 0.62592 0.895 0.0
H428 H 0.96961 0.74133 0.85653 0.0
H429 H 0.89214 0.70225 0.84991 0.0
C430 C 0.84991 0.62034 0.86659 0.0
C431 C 0.83194 0.57803 0.87712 0.0
C432 C 0.8948 0.64158 0.86877 0.0
C433 C 0.85964 0.55612 0.88886 0.0
C434 C 0.90441 0.57668 0.89077 0.0
C435 C 0.96652 0.64214 0.88467 0.0
C436 C 0.98403 0.68642 0.8762 0.0
C437 C 0.92216 0.61977 0.8812 0.0
C438 C 0.9568 0.7074 0.86337 0.0
C439 C 0.91259 0.68505 0.85956 0.0
H440 H 0.30894 0.76354 0.14866 0.0
H441 H 0.23008 0.81902 0.19981 0.0
H442 H 0.29539 0.87352 0.21781 0.0
H443 H 0.37502 0.90407 0.21982 0.0
H444 H 0.45416 0.84644 0.1697 0.0
H445 H 0.3887 0.79541 0.15009 0.0
C446 C 0.30603 0.78794 0.16355 0.0
C447 C 0.26465 0.78699 0.17293 0.0
C448 C 0.34381 0.81906 0.17395 0.0
C449 C 0.26154 0.81853 0.19245 0.0
C450 C 0.29887 0.84988 0.20269 0.0
C451 C 0.37806 0.88026 0.20467 0.0
C452 C 0.41973 0.87934 0.19634 0.0
C453 C 0.34023 0.85013 0.19377 0.0
C454 C 0.42271 0.84867 0.17634 0.0
C455 C 0.38521 0.81904 0.16522 0.0
H456 H 0.58529 0.14848 0.50153 0.0
H457 H 0.52659 0.1155 0.57144 0.0
H458 H 0.52772 0.1965 0.5803 0.0
H459 H 0.54867 0.27742 0.56908 0.0
H460 H 0.60083 0.30898 0.49733 0.0
H461 H 0.5993 0.22835 0.48858 0.0
C462 C 0.5726 0.15903 0.51867 0.0
C463 C 0.55619 0.12592 0.53587 0.0
C464 C 0.57245 0.20565 0.52344 0.0
C465 C 0.53935 0.14014 0.55784 0.0
C466 C 0.54009 0.18656 0.56296 0.0
C467 C 0.55889 0.26686 0.55128 0.0
C468 C 0.57567 0.30032 0.53418 0.0
C469 C 0.55685 0.21977 0.54597 0.0
C470 C 0.58904 0.28499 0.51134 0.0
C471 C 0.58787 0.23852 0.50615 0.0
H472 H 0.38802 0.63729 0.81837 0.0
H473 H 0.26946 0.57488 0.77673 0.0
H474 H 0.2351 0.63159 0.79586 0.0
H475 H 0.23481 0.68857 0.83001 0.0
H476 H 0.35204 0.74777 0.87303 0.0
H477 H 0.39173 0.70363 0.84724 0.0
C478 C 0.35533 0.6373 0.81265 0.0
C479 C 0.33114 0.60173 0.7963 0.0
C480 C 0.33551 0.66908 0.82425 0.0
C481 C 0.28849 0.60166 0.78948 0.0
C482 C 0.26882 0.63392 0.80048 0.0
C483 C 0.2694 0.69274 0.83312 0.0
C484 C 0.29079 0.72098 0.85318 0.0
C485 C 0.29133 0.66621 0.81876 0.0
C486 C 0.33534 0.72621 0.85749 0.0
C487 C 0.35778 0.70076 0.8429 0.0
H488 H 0.81926 0.23692 0.15357 0.0
H489 H 0.89349 0.26567 0.22161 0.0
H490 H 0.83415 0.21346 0.24218 0.0
H491 H 0.76264 0.15702 0.24058 0.0
H492 H 0.68861 0.12626 0.1725 0.0
H493 H 0.74565 0.18272 0.15249 0.0
C494 C 0.82219 0.2322 0.17296 0.0
C495 C 0.86107 0.25487 0.18593 0.0
C496 C 0.78788 0.20179 0.18473 0.0
C497 C 0.86435 0.24806 0.21105 0.0
C498 C 0.83031 0.21835 0.22288 0.0
C499 C 0.75895 0.16255 0.22134 0.0
C500 C 0.72139 0.13705 0.20808 0.0
C501 C 0.79223 0.19447 0.20983 0.0
C502 C 0.71688 0.14557 0.18328 0.0
C503 C 0.74971 0.17764 0.17174 0.0
H504 H 1.0464 0.58412 0.08238 0.0
H505 H 0.11416 0.48773 0.05184 0.0
H506 H 0.14271 0.53991 0.0194 0.0
H507 H 0.14742 0.61282 -0.00049 0.0
H508 H 0.08026 0.70906 0.03103 0.0
H509 H 1.05295 0.65732 0.06357 0.0
C510 C 0.0674 0.57449 0.06861 0.0
C511 C 0.0781 0.53216 0.06941 0.0
C512 C 0.08404 0.60481 0.05033 0.0
C513 C 0.10535 0.52012 0.0515 0.0
C514 C 0.1218 0.55001 0.03304 0.0
C515 C 0.12731 0.62266 0.01372 0.0
C516 C 0.11575 0.66463 0.01284 0.0
C517 C 0.1114 0.59251 0.0323 0.0
C518 C 0.08923 0.67674 0.03118 0.0
C519 C 0.07361 0.6472 0.04978 0.0
H520 H 0.50215 0.01471 0.44231 0.0
H521 H 0.60634 0.9522 0.45721 0.0
H522 H 0.62516 0.95274 0.41398 0.0
H523 H 0.61077 0.96852 0.37175 0.0
H524 H 0.50569 0.02926 0.35613 0.0
H525 H 0.48899 0.0326 0.39976 0.0
C526 C 0.52903 1.00137 0.43605 0.0
C527 C 0.5527 0.98328 0.45292 0.0
C528 C 0.53959 1.00154 0.41103 0.0
C529 C 0.58758 0.96628 0.4446 0.0
C530 C 0.59835 0.96652 0.41987 0.0
C531 C 0.58407 0.98232 0.37785 0.0
C532 C 0.55936 0.9983 0.36061 0.0
C533 C 0.57433 0.98361 0.40289 0.0
C534 C 0.52549 0.01702 0.36897 0.0
C535 C 0.51571 0.01865 0.39392 0.0
H536 H 0.64188 0.49971 0.77074 0.0
H537 H 0.50461 0.49108 0.77238 0.0
H538 H 0.50152 0.48978 0.72754 0.0
H539 H 0.5384 0.49103 0.68768 0.0
H540 H 0.67601 0.49971 0.68666 0.0
H541 H 0.67849 0.50101 0.7313 0.0
C542 C 0.61129 0.49748 0.76125 0.0
C543 C 0.57335 0.49491 0.77477 0.0
C544 C 0.6099 0.49678 0.73553 0.0
C545 C 0.53398 0.49214 0.7623 0.0
C546 C 0.53233 0.49175 0.73668 0.0
C547 C 0.56892 0.49344 0.69728 0.0
C548 C 0.6069 0.49499 0.68382 0.0
C549 C 0.57013 0.494 0.72307 0.0
C550 C 0.64616 0.49776 0.69652 0.0
C551 C 0.64769 0.49875 0.72208 0.0
H552 H 0.54176 0.02057 0.59792 0.0
H553 H 0.62122 0.92426 0.5953 0.0
H554 H 0.61186 0.91451 0.63913 0.0
H555 H 0.58516 0.93697 0.67867 0.0
H556 H 0.50812 0.03551 0.68213 0.0
H557 H 0.5125 0.04092 0.63764 0.0
C558 C 0.55664 0.99719 0.60697 0.0
C559 C 0.58233 0.97336 0.59349 0.0
C560 C 0.55181 0.99239 0.63235 0.0
C561 C 0.60157 0.94325 0.60537 0.0
C562 C 0.59623 0.93763 0.63042 0.0
C563 C 0.56872 0.95903 0.66963 0.0
C564 C 0.54634 0.98575 0.68365 0.0
C565 C 0.57198 0.96251 0.64416 0.0
C566 C 0.52583 0.01483 0.67172 0.0
C567 C 0.52827 0.01789 0.6463 0.0
H568 H 0.54831 0.51877 0.91065 0.0
H569 H 0.44612 0.39171 0.91032 0.0
H570 H 0.45491 0.38987 0.95471 0.0
H571 H 0.48991 0.42571 0.99382 0.0
H572 H 0.5928 0.55236 0.99412 0.0
H573 H 0.58509 0.55325 0.94968 0.0
C574 C 0.52807 0.49062 0.92031 0.0
C575 C 0.49645 0.45552 0.90725 0.0
C576 C 0.53321 0.48988 0.94587 0.0
C577 C 0.47059 0.41919 0.91997 0.0
C578 C 0.47558 0.41815 0.94536 0.0
C579 C 0.51104 0.45325 0.98417 0.0
C580 C 0.54177 0.48903 -0.00255 0.0
C581 C 0.50658 0.45347 0.95854 0.0
C582 C 0.56838 0.52475 0.98453 0.0
C583 C 0.56418 0.52516 0.95905 0.0
H584 H 1.02639 0.55123 0.22352 0.0
H585 H 0.09795 0.45626 0.19564 0.0
H586 H 0.10689 0.43351 0.23718 0.0
H587 H 0.09807 0.44402 0.28153 0.0
H588 H 1.02431 0.53716 0.30933 0.0
H589 H 1.0133 0.55782 0.26773 0.0
C590 C 1.04368 0.52532 0.22655 0.0
C591 C 0.06178 0.5057 0.20662 0.0
C592 C 1.04879 0.51252 0.25047 0.0
C593 C 0.08383 0.47194 0.21073 0.0
C594 C 0.08907 0.45904 0.23448 0.0
C595 C 0.07892 0.46825 0.27854 0.0
C596 C 0.06238 0.48922 0.29869 0.0
C597 C 0.07217 0.47956 0.25452 0.0
C598 C 1.03825 0.52113 0.29431 0.0
C599 C 1.03162 0.53274 0.27048 0.0
loop_
_geom_bond_atom_site_label_1
_geom_bond_atom_site_label_2
_geom_bond_distance
_geom_bond_site_symmetry_2
_ccdc_geom_bond_type
Nd0 C2 2.836 . S
Nd0 O20 2.500 . S
Nd0 O21 2.492 . S
Nd0 O22 2.487 . S
Nd0 O23 2.682 . S
Nd0 O24 2.410 . S
Nd0 O29 2.414 . S
Nd0 O31 2.424 1_455 S
Nd1 C11 2.836 . S
Nd1 O23 2.414 1_655 S
Nd1 O25 2.424 1_655 S
Nd1 O26 2.500 . S
Nd1 O27 2.492 . S
Nd1 O28 2.487 1_655 S
Nd1 O29 2.682 1_655 S
Nd1 O30 2.410 . S
C2 Nd0 2.836 . S
C2 C3 1.498 . S
C2 O20 1.258 . S
C2 O21 1.239 . S
C3 C2 1.498 . S
C3 C4 1.366 . S
C3 C8 1.407 . S
C4 C3 1.366 . S
C4 C5 1.392 . S
C4 H32 0.930 . S
C5 C4 1.392 . S
C5 C6 1.398 . S
C5 H33 0.929 . S
C6 C5 1.398 . S
C6 C7 1.352 . S
C7 C6 1.352 . S
C7 C8 1.384 . S
C7 H34 0.930 . S
C8 C3 1.407 . S
C8 C7 1.384 . S
C8 H35 0.929 . S
C9 O22 1.241 . S
C9 O23 1.273 . S
C10 O24 1.251 . S
C10 O25 1.268 . S
C11 Nd1 2.836 . S
C11 C12 1.498 . S
C11 O26 1.258 . S
C11 O27 1.239 . S
C12 C11 1.498 . S
C12 C13 1.366 . S
C12 C17 1.407 . S
C13 C12 1.366 . S
C13 C14 1.392 . S
C13 H36 0.930 . S
C14 C13 1.392 . S
C14 C15 1.398 . S
C14 H37 0.929 . S
C15 C14 1.398 . S
C15 C16 1.352 . S
C16 C15 1.352 . S
C16 C17 1.384 . S
C16 H38 0.930 . S
C17 C12 1.407 . S
C17 C16 1.384 . S
C17 H39 0.929 . S
C18 O28 1.245 . S
C18 O29 1.273 . S
C19 O30 1.251 . S
C19 O31 1.268 . S
O20 Nd0 2.500 . S
O20 C2 1.258 . S
O21 Nd0 2.492 . S
O21 C2 1.239 . S
O22 Nd0 2.487 . S
O22 C9 1.241 . S
O23 Nd0 2.682 . S
O23 Nd1 2.414 1_455 S
O23 C9 1.273 . S
O24 Nd0 2.410 . S
O24 C10 1.251 . S
O25 Nd1 2.424 1_455 S
O25 C10 1.268 . S
O26 Nd1 2.500 . S
O26 C11 1.258 . S
O27 Nd1 2.492 . S
O27 C11 1.239 . S
O28 Nd1 2.487 1_455 S
O28 C18 1.245 . S
O29 Nd0 2.414 . S
O29 Nd1 2.682 1_455 S
O29 C18 1.273 . S
O30 Nd1 2.410 . S
O30 C19 1.251 . S
O31 Nd0 2.424 1_655 S
O31 C19 1.268 . S
H32 C4 0.930 . S
H33 C5 0.929 . S
H34 C7 0.930 . S
H35 C8 0.929 . S
H36 C13 0.930 . S
H37 C14 0.929 . S
H38 C16 0.930 . S
H39 C17 0.929 . S
Nd40 C42 2.830 1_545 S
Nd40 O60 2.494 1_545 S
Nd40 O61 2.487 1_545 S
Nd40 O62 2.487 1_545 S
Nd40 O63 2.683 . S
Nd40 O64 2.401 1_545 S
Nd40 O69 2.413 . S
Nd40 O71 2.433 . S
Nd41 C51 2.836 . S
Nd41 O63 2.414 . S
Nd41 O65 2.424 1_545 S
Nd41 O66 2.500 . S
Nd41 O67 2.492 . S
Nd41 O68 2.487 . S
Nd41 O69 2.682 . S
Nd41 O70 2.410 . S
C42 Nd40 2.830 1_565 S
C42 C43 1.498 . S
C42 O60 1.258 . S
C42 O61 1.239 . S
C43 C42 1.498 . S
C43 C44 1.366 . S
C43 C48 1.407 . S
C44 C43 1.366 . S
C44 C45 1.392 . S
C44 H72 0.930 . S
C45 C44 1.392 . S
C45 C46 1.398 . S
C45 H73 0.929 . S
C46 C45 1.398 . S
C46 C47 1.352 . S
C47 C46 1.352 . S
C47 C48 1.384 . S
C47 H74 0.930 . S
C48 C43 1.407 . S
C48 C47 1.384 . S
C48 H75 0.929 . S
C49 O62 1.241 1_545 S
C49 O63 1.273 . S
C50 O64 1.251 . S
C50 O65 1.268 . S
C51 Nd41 2.836 . S
C51 C52 1.498 . S
C51 O66 1.258 . S
C51 O67 1.239 . S
C52 C51 1.498 . S
C52 C53 1.366 . S
C52 C57 1.407 . S
C53 C52 1.366 . S
C53 C54 1.392 . S
C53 H76 0.930 . S
C54 C53 1.392 . S
C54 C55 1.398 . S
C54 H77 0.929 . S
C55 C54 1.398 . S
C55 C56 1.352 . S
C56 C55 1.352 . S
C56 C57 1.384 . S
C56 H78 0.930 . S
C57 C52 1.407 . S
C57 C56 1.384 . S
C57 H79 0.929 . S
C58 O68 1.241 . S
C58 O69 1.273 . S
C59 O70 1.251 . S
C59 O71 1.268 . S
O60 Nd40 2.494 1_565 S
O60 C42 1.258 . S
O61 Nd40 2.487 1_565 S
O61 C42 1.239 . S
O62 Nd40 2.487 1_565 S
O62 C49 1.241 1_565 S
O63 Nd40 2.683 . S
O63 Nd41 2.414 . S
O63 C49 1.273 . S
O64 Nd40 2.401 1_565 S
O64 C50 1.251 . S
O65 Nd41 2.424 1_565 S
O65 C50 1.268 . S
O66 Nd41 2.500 . S
O66 C51 1.258 . S
O67 Nd41 2.492 . S
O67 C51 1.239 . S
O68 Nd41 2.487 . S
O68 C58 1.241 . S
O69 Nd40 2.413 . S
O69 Nd41 2.682 . S
O69 C58 1.273 . S
O70 Nd41 2.410 . S
O70 C59 1.251 . S
O71 Nd40 2.433 . S
O71 C59 1.268 . S
H72 C44 0.930 . S
H73 C45 0.929 . S
H74 C47 0.930 . S
H75 C48 0.929 . S
H76 C53 0.930 . S
H77 C54 0.929 . S
H78 C56 0.930 . S
H79 C57 0.929 . S
Nd80 C82 2.836 . S
Nd80 O100 2.500 . S
Nd80 O101 2.492 . S
Nd80 O102 2.487 . S
Nd80 O103 2.682 . S
Nd80 O104 2.410 . S
Nd80 O109 2.414 . S
Nd80 O111 2.424 . S
Nd81 C91 2.836 . S
Nd81 O103 2.414 . S
Nd81 O105 2.424 . S
Nd81 O106 2.500 . S
Nd81 O107 2.492 . S
Nd81 O108 2.487 . S
Nd81 O109 2.682 . S
Nd81 O110 2.410 . S
C82 Nd80 2.836 . S
C82 C83 1.498 . S
C82 O100 1.258 . S
C82 O101 1.239 . S
C83 C82 1.498 . S
C83 C84 1.366 . S
C83 C88 1.407 . S
C84 C83 1.366 . S
C84 C85 1.392 . S
C84 H112 0.930 . S
C85 C84 1.392 . S
C85 C86 1.398 . S
C85 H113 0.929 . S
C86 C85 1.398 . S
C86 C87 1.352 . S
C87 C86 1.352 . S
C87 C88 1.384 . S
C87 H114 0.930 . S
C88 C83 1.407 . S
C88 C87 1.384 . S
C88 H115 0.929 . S
C89 O102 1.241 . S
C89 O103 1.273 . S
C90 O104 1.251 . S
C90 O105 1.268 . S
C91 Nd81 2.836 . S
C91 C92 1.498 . S
C91 O106 1.258 . S
C91 O107 1.239 . S
C92 C91 1.498 . S
C92 C93 1.366 . S
C92 C97 1.407 . S
C93 C92 1.366 . S
C93 C94 1.392 . S
C93 H116 0.930 . S
C94 C93 1.392 . S
C94 C95 1.398 . S
C94 H117 0.929 . S
C95 C94 1.398 . S
C95 C96 1.352 . S
C96 C95 1.352 . S
C96 C97 1.384 . S
C96 H118 0.930 . S
C97 C92 1.407 . S
C97 C96 1.384 . S
C97 H119 0.929 . S
C98 O108 1.241 . S
C98 O109 1.273 . S
C99 O110 1.251 . S
C99 O111 1.268 . S
O100 Nd80 2.500 . S
O100 C82 1.258 . S
O101 Nd80 2.492 . S
O101 C82 1.239 . S
O102 Nd80 2.487 . S
O102 C89 1.241 . S
O103 Nd80 2.682 . S
O103 Nd81 2.414 . S
O103 C89 1.273 . S
O104 Nd80 2.410 . S
O104 C90 1.251 . S
O105 Nd81 2.424 . S
O105 C90 1.268 . S
O106 Nd81 2.500 . S
O106 C91 1.258 . S
O107 Nd81 2.492 . S
O107 C91 1.239 . S
O108 Nd81 2.487 . S
O108 C98 1.241 . S
O109 Nd80 2.414 . S
O109 Nd81 2.682 . S
O109 C98 1.273 . S
O110 Nd81 2.410 . S
O110 C99 1.251 . S
O111 Nd80 2.424 . S
O111 C99 1.268 . S
H112 C84 0.930 . S
H113 C85 0.929 . S
H114 C87 0.930 . S
H115 C88 0.929 . S
H116 C93 0.930 . S
H117 C94 0.929 . S
H118 C96 0.930 . S
H119 C97 0.929 . S
P120 O131 1.490 . S
P120 C134 1.812 . S
P120 C140 1.803 1_565 S
P120 C146 1.819 1_565 S
H121 C135 0.941 . S
H122 C136 0.939 . S
H123 C138 0.940 . S
H124 C139 0.940 1_545 S
H125 C141 0.939 . S
H126 C142 0.942 . S
H127 C144 0.940 . S
H128 C145 0.939 . S
H129 C147 0.941 . S
H130 C151 0.939 . S
O131 P120 1.490 . S
H132 C148 0.939 . S
H133 C150 0.940 . S
C134 P120 1.812 . S
C134 C135 1.389 . S
C134 C139 1.391 . S
C135 H121 0.941 . S
C135 C134 1.389 . S
C135 C136 1.397 . S
C136 H122 0.939 . S
C136 C135 1.397 . S
C136 C137 1.378 . S
C137 C136 1.378 . S
C137 C138 1.378 . S
C138 H123 0.940 . S
C138 C137 1.378 . S
C138 C139 1.396 . S
C139 H124 0.940 1_565 S
C139 C134 1.391 . S
C139 C138 1.396 . S
C140 P120 1.803 1_545 S
C140 C141 1.378 . S
C140 C145 1.400 . S
C141 H125 0.939 . S
C141 C140 1.378 . S
C141 C142 1.361 . S
C142 H126 0.942 . S
C142 C141 1.361 . S
C142 C143 1.369 . S
C143 C142 1.369 . S
C143 C144 1.404 . S
C144 H127 0.940 . S
C144 C143 1.404 . S
C144 C145 1.389 . S
C145 H128 0.939 . S
C145 C140 1.400 . S
C145 C144 1.389 . S
C146 P120 1.819 1_545 S
C146 C147 1.391 1_545 S
C146 C151 1.391 . S
C147 H129 0.941 . S
C147 C146 1.391 1_565 S
C147 C148 1.396 . S
C148 H132 0.939 . S
C148 C147 1.396 . S
C148 C149 1.397 1_565 S
C149 C148 1.397 1_545 S
C149 C150 1.385 . S
C150 H133 0.940 . S
C150 C149 1.385 . S
C150 C151 1.388 . S
C151 H130 0.939 . S
C151 C146 1.391 . S
C151 C150 1.388 . S
P152 O163 1.490 . S
P152 C166 1.812 . S
P152 C172 1.803 . S
P152 C178 1.819 . S
H153 C167 0.941 . S
H154 C168 0.939 . S
H155 C170 0.940 . S
H156 C171 0.940 . S
H157 C173 0.939 . S
H158 C174 0.942 . S
H159 C176 0.940 . S
H160 C177 0.939 . S
H161 C179 0.941 . S
H162 C183 0.939 . S
O163 P152 1.490 . S
H164 C180 0.939 . S
H165 C182 0.940 . S
C166 P152 1.812 . S
C166 C167 1.389 . S
C166 C171 1.391 . S
C167 H153 0.941 . S
C167 C166 1.389 . S
C167 C168 1.397 . S
C168 H154 0.939 . S
C168 C167 1.397 . S
C168 C169 1.378 . S
C169 C168 1.378 . S
C169 C170 1.378 . S
C170 H155 0.940 . S
C170 C169 1.378 . S
C170 C171 1.396 . S
C171 H156 0.940 . S
C171 C166 1.391 . S
C171 C170 1.396 . S
C172 P152 1.803 . S
C172 C173 1.378 . S
C172 C177 1.400 . S
C173 H157 0.939 . S
C173 C172 1.378 . S
C173 C174 1.361 . S
C174 H158 0.942 . S
C174 C173 1.361 . S
C174 C175 1.369 . S
C175 C174 1.369 . S
C175 C176 1.404 . S
C176 H159 0.940 . S
C176 C175 1.404 . S
C176 C177 1.389 . S
C177 H160 0.939 . S
C177 C172 1.400 . S
C177 C176 1.389 . S
C178 P152 1.819 . S
C178 C179 1.391 . S
C178 C183 1.391 . S
C179 H161 0.941 . S
C179 C178 1.391 . S
C179 C180 1.396 . S
C180 H164 0.939 . S
C180 C179 1.396 . S
C180 C181 1.397 . S
C181 C180 1.397 . S
C181 C182 1.385 . S
C182 H165 0.940 . S
C182 C181 1.385 . S
C182 C183 1.388 . S
C183 H162 0.939 . S
C183 C178 1.391 . S
C183 C182 1.388 . S
P184 O195 1.490 . S
P184 C198 1.812 . S
P184 C204 1.819 . S
P184 C210 1.819 . S
H185 C199 0.941 . S
H186 C200 0.939 . S
H187 C202 0.940 . S
H188 C203 0.940 . S
H189 C205 0.939 . S
H190 C206 0.942 . S
H191 C208 0.940 . S
H192 C209 0.939 1_455 S
H193 C211 0.941 . S
H194 C215 0.939 1_655 S
O195 P184 1.490 . S
H196 C212 0.939 . S
H197 C214 0.940 1_655 S
C198 P184 1.812 . S
C198 C199 1.389 . S
C198 C203 1.391 . S
C199 H185 0.941 . S
C199 C198 1.389 . S
C199 C200 1.397 . S
C200 H186 0.939 . S
C200 C199 1.397 . S
C200 C201 1.378 . S
C201 C200 1.378 . S
C201 C202 1.378 . S
C202 H187 0.940 . S
C202 C201 1.378 . S
C202 C203 1.396 . S
C203 H188 0.940 . S
C203 C198 1.391 . S
C203 C202 1.396 . S
C204 P184 1.819 . S
C204 C205 1.362 1_455 S
C204 C209 1.399 1_455 S
C205 H189 0.939 . S
C205 C204 1.362 1_655 S
C205 C206 1.361 . S
C206 H190 0.942 . S
C206 C205 1.361 . S
C206 C207 1.369 . S
C207 C206 1.369 . S
C207 C208 1.404 . S
C208 H191 0.940 . S
C208 C207 1.404 . S
C208 C209 1.389 . S
C209 H192 0.939 1_655 S
C209 C204 1.399 1_655 S
C209 C208 1.389 . S
C210 P184 1.819 . S
C210 C211 1.391 . S
C210 C215 1.391 . S
C211 H193 0.941 . S
C211 C210 1.391 . S
C211 C212 1.396 . S
C212 H196 0.939 . S
C212 C211 1.396 . S
C212 C213 1.397 . S
C213 C212 1.397 . S
C213 C214 1.385 . S
C214 H197 0.940 1_455 S
C214 C213 1.385 . S
C214 C215 1.388 . S
C215 H194 0.939 1_455 S
C215 C210 1.391 . S
C215 C214 1.388 . S
P216 O227 1.490 . S
P216 C230 1.812 . S
P216 C236 1.803 1_455 S
P216 C242 1.819 . S
H217 C231 0.941 . S
H218 C232 0.939 . S
H219 C234 0.940 . S
H220 C235 0.940 . S
H221 C237 0.939 . S
H222 C238 0.942 . S
H223 C240 0.940 . S
H224 C241 0.939 . S
H225 C243 0.941 . S
H226 C247 0.939 . S
O227 P216 1.490 . S
H228 C244 0.939 . S
H229 C246 0.940 . S
C230 P216 1.812 . S
C230 C231 1.389 . S
C230 C235 1.391 . S
C231 H217 0.941 . S
C231 C230 1.389 . S
C231 C232 1.397 . S
C232 H218 0.939 . S
C232 C231 1.397 . S
C232 C233 1.378 . S
C233 C232 1.378 . S
C233 C234 1.378 . S
C234 H219 0.940 . S
C234 C233 1.378 . S
C234 C235 1.396 . S
C235 H220 0.940 . S
C235 C230 1.391 . S
C235 C234 1.396 . S
C236 P216 1.803 1_655 S
C236 C237 1.378 . S
C236 C241 1.400 . S
C237 H221 0.939 . S
C237 C236 1.378 . S
C237 C238 1.361 . S
C238 H222 0.942 . S
C238 C237 1.361 . S
C238 C239 1.369 . S
C239 C238 1.369 . S
C239 C240 1.404 . S
C240 H223 0.940 . S
C240 C239 1.404 . S
C240 C241 1.389 . S
C241 H224 0.939 . S
C241 C236 1.400 . S
C241 C240 1.389 . S
C242 P216 1.819 . S
C242 C243 1.391 . S
C242 C247 1.391 1_455 S
C243 H225 0.941 . S
C243 C242 1.391 . S
C243 C244 1.396 . S
C244 H228 0.939 . S
C244 C243 1.396 . S
C244 C245 1.397 . S
C245 C244 1.397 . S
C245 C246 1.385 1_455 S
C246 H229 0.940 . S
C246 C245 1.385 1_655 S
C246 C247 1.388 . S
C247 H226 0.939 . S
C247 C242 1.391 1_655 S
C247 C246 1.388 . S
P248 O259 1.490 . S
P248 C262 1.812 . S
P248 C268 1.803 1_545 S
P248 C274 1.819 . S
H249 C263 0.941 . S
H250 C264 0.939 . S
H251 C266 0.940 . S
H252 C267 0.940 . S
H253 C269 0.939 . S
H254 C270 0.942 . S
H255 C272 0.940 . S
H256 C273 0.939 . S
H257 C275 0.941 . S
H258 C279 0.939 . S
O259 P248 1.490 . S
H260 C276 0.939 . S
H261 C278 0.940 . S
C262 P248 1.812 . S
C262 C263 1.389 . S
C262 C267 1.391 . S
C263 H249 0.941 . S
C263 C262 1.389 . S
C263 C264 1.397 . S
C264 H250 0.939 . S
C264 C263 1.397 . S
C264 C265 1.378 . S
C265 C264 1.378 . S
C265 C266 1.378 . S
C266 H251 0.940 . S
C266 C265 1.378 . S
C266 C267 1.396 . S
C267 H252 0.940 . S
C267 C262 1.391 . S
C267 C266 1.396 . S
C268 P248 1.803 1_565 S
C268 C269 1.378 . S
C268 C273 1.400 . S
C269 H253 0.939 . S
C269 C268 1.378 . S
C269 C270 1.361 . S
C270 H254 0.942 . S
C270 C269 1.361 . S
C270 C271 1.369 . S
C271 C270 1.369 . S
C271 C272 1.404 . S
C272 H255 0.940 . S
C272 C271 1.404 . S
C272 C273 1.389 . S
C273 H256 0.939 . S
C273 C268 1.400 . S
C273 C272 1.389 . S
C274 P248 1.819 . S
C274 C275 1.391 . S
C274 C279 1.391 1_545 S
C275 H257 0.941 . S
C275 C274 1.391 . S
C275 C276 1.396 . S
C276 H260 0.939 . S
C276 C275 1.396 . S
C276 C277 1.397 . S
C277 C276 1.397 . S
C277 C278 1.385 1_545 S
C278 H261 0.940 . S
C278 C277 1.385 1_565 S
C278 C279 1.388 . S
C279 H258 0.939 . S
C279 C274 1.391 1_565 S
C279 C278 1.388 . S
P280 O291 1.490 . S
P280 C294 1.812 . S
P280 C300 1.803 . S
P280 C306 1.819 . S
H281 C295 0.941 . S
H282 C296 0.939 . S
H283 C298 0.940 . S
H284 C299 0.940 . S
H285 C301 0.939 . S
H286 C302 0.942 . S
H287 C304 0.940 . S
H288 C305 0.939 . S
H289 C307 0.941 . S
H290 C311 0.939 . S
O291 P280 1.490 . S
H292 C308 0.939 . S
H293 C310 0.940 . S
C294 P280 1.812 . S
C294 C295 1.389 . S
C294 C299 1.391 . S
C295 H281 0.941 . S
C295 C294 1.389 . S
C295 C296 1.397 . S
C296 H282 0.939 . S
C296 C295 1.397 . S
C296 C297 1.378 . S
C297 C296 1.378 . S
C297 C298 1.378 . S
C298 H283 0.940 . S
C298 C297 1.378 . S
C298 C299 1.396 . S
C299 H284 0.940 . S
C299 C294 1.391 . S
C299 C298 1.396 . S
C300 P280 1.803 . S
C300 C301 1.378 . S
C300 C305 1.400 . S
C301 H285 0.939 . S
C301 C300 1.378 . S
C301 C302 1.361 . S
C302 H286 0.942 . S
C302 C301 1.361 . S
C302 C303 1.369 . S
C303 C302 1.369 . S
C303 C304 1.404 . S
C304 H287 0.940 . S
C304 C303 1.404 . S
C304 C305 1.389 . S
C305 H288 0.939 . S
C305 C300 1.400 . S
C305 C304 1.389 . S
C306 P280 1.819 . S
C306 C307 1.391 . S
C306 C311 1.391 . S
C307 H289 0.941 . S
C307 C306 1.391 . S
C307 C308 1.396 . S
C308 H292 0.939 . S
C308 C307 1.396 . S
C308 C309 1.397 . S
C309 C308 1.397 . S
C309 C310 1.385 . S
C310 H293 0.940 . S
C310 C309 1.385 . S
C310 C311 1.388 . S
C311 H290 0.939 . S
C311 C306 1.391 . S
C311 C310 1.388 . S
H312 C318 0.930 . S
H313 C321 0.930 . S
H314 C322 0.930 . S
H315 C323 0.930 . S
H316 C326 0.930 . S
H317 C327 0.930 . S
C318 H312 0.930 . S
C318 C319 1.355 . S
C318 C320 1.415 . S
C319 C318 1.355 . S
C319 C321 1.419 . S
C320 C318 1.415 . S
C320 C325 1.425 . S
C320 C327 1.409 . S
C321 H313 0.930 . S
C321 C319 1.419 . S
C321 C322 1.362 . S
C322 H314 0.930 . S
C322 C321 1.362 . S
C322 C325 1.409 . S
C323 H315 0.930 . S
C323 C324 1.355 . S
C323 C325 1.415 . S
C324 C323 1.355 . S
C324 C326 1.419 . S
C325 C320 1.425 . S
C325 C322 1.409 . S
C325 C323 1.415 . S
C326 H316 0.930 . S
C326 C324 1.419 . S
C326 C327 1.362 . S
C327 H317 0.930 . S
C327 C320 1.409 . S
C327 C326 1.362 . S
H328 C334 0.930 . S
H329 C337 0.930 . S
H330 C338 0.930 . S
H331 C339 0.930 . S
H332 C342 0.930 . S
H333 C343 0.930 . S
C334 H328 0.930 . S
C334 C335 1.355 . S
C334 C336 1.415 . S
C335 C334 1.355 . S
C335 C337 1.419 . S
C336 C334 1.415 . S
C336 C341 1.425 . S
C336 C343 1.409 . S
C337 H329 0.930 . S
C337 C335 1.419 . S
C337 C338 1.362 . S
C338 H330 0.930 . S
C338 C337 1.362 . S
C338 C341 1.409 . S
C339 H331 0.930 . S
C339 C340 1.355 . S
C339 C341 1.415 . S
C340 C339 1.355 . S
C340 C342 1.419 . S
C341 C336 1.425 . S
C341 C338 1.409 . S
C341 C339 1.415 . S
C342 H332 0.930 . S
C342 C340 1.419 . S
C342 C343 1.362 . S
C343 H333 0.930 . S
C343 C336 1.409 . S
C343 C342 1.362 . S
H344 C350 0.930 . S
H345 C353 0.930 . S
H346 C354 0.930 . S
H347 C355 0.930 . S
H348 C358 0.930 . S
H349 C359 0.930 . S
C350 H344 0.930 . S
C350 C351 1.355 . S
C350 C352 1.415 . S
C351 C350 1.355 . S
C351 C353 1.419 . S
C352 C350 1.415 . S
C352 C357 1.425 . S
C352 C359 1.409 . S
C353 H345 0.930 . S
C353 C351 1.419 . S
C353 C354 1.362 . S
C354 H346 0.930 . S
C354 C353 1.362 . S
C354 C357 1.409 . S
C355 H347 0.930 . S
C355 C356 1.355 . S
C355 C357 1.415 . S
C356 C355 1.355 . S
C356 C358 1.419 . S
C357 C352 1.425 . S
C357 C354 1.409 . S
C357 C355 1.415 . S
C358 H348 0.930 . S
C358 C356 1.419 . S
C358 C359 1.362 . S
C359 H349 0.930 . S
C359 C352 1.409 . S
C359 C358 1.362 . S
H360 C366 0.930 . S
H361 C369 0.930 . S
H362 C370 0.930 . S
H363 C371 0.930 . S
H364 C374 0.930 . S
H365 C375 0.930 . S
C366 H360 0.930 . S
C366 C367 1.355 . S
C366 C368 1.415 . S
C367 C366 1.355 . S
C367 C369 1.419 . S
C368 C366 1.415 . S
C368 C373 1.425 . S
C368 C375 1.409 . S
C369 H361 0.930 . S
C369 C367 1.419 . S
C369 C370 1.362 . S
C370 H362 0.930 . S
C370 C369 1.362 . S
C370 C373 1.409 . S
C371 H363 0.930 . S
C371 C372 1.355 . S
C371 C373 1.415 . S
C372 C371 1.355 . S
C372 C374 1.419 . S
C373 C368 1.425 . S
C373 C370 1.409 . S
C373 C371 1.415 . S
C374 H364 0.930 . S
C374 C372 1.419 . S
C374 C375 1.362 . S
C375 H365 0.930 . S
C375 C368 1.409 . S
C375 C374 1.362 . S
H376 C382 0.930 . S
H377 C385 0.930 . S
H378 C386 0.930 . S
H379 C387 0.930 . S
H380 C390 0.930 . S
H381 C391 0.930 . S
C382 H376 0.930 . S
C382 C383 1.355 . S
C382 C384 1.415 . S
C383 C382 1.355 . S
C383 C385 1.419 . S
C384 C382 1.415 . S
C384 C389 1.425 . S
C384 C391 1.409 . S
C385 H377 0.930 . S
C385 C383 1.419 . S
C385 C386 1.362 . S
C386 H378 0.930 . S
C386 C385 1.362 . S
C386 C389 1.409 . S
C387 H379 0.930 . S
C387 C388 1.355 . S
C387 C389 1.415 . S
C388 C387 1.355 . S
C388 C390 1.419 . S
C389 C384 1.425 . S
C389 C386 1.409 . S
C389 C387 1.415 . S
C390 H380 0.930 . S
C390 C388 1.419 . S
C390 C391 1.362 . S
C391 H381 0.930 . S
C391 C384 1.409 . S
C391 C390 1.362 . S
H392 C398 0.930 . S
H393 C401 0.930 . S
H394 C402 0.930 . S
H395 C403 0.930 . S
H396 C406 0.930 . S
H397 C407 0.930 . S
C398 H392 0.930 . S
C398 C399 1.355 . S
C398 C400 1.415 . S
C399 C398 1.355 . S
C399 C401 1.419 . S
C400 C398 1.415 . S
C400 C405 1.425 . S
C400 C407 1.409 . S
C401 H393 0.930 . S
C401 C399 1.419 . S
C401 C402 1.362 . S
C402 H394 0.930 . S
C402 C401 1.362 . S
C402 C405 1.409 . S
C403 H395 0.930 . S
C403 C404 1.355 . S
C403 C405 1.415 . S
C404 C403 1.355 . S
C404 C406 1.419 . S
C405 C400 1.425 . S
C405 C402 1.409 . S
C405 C403 1.415 . S
C406 H396 0.930 . S
C406 C404 1.419 . S
C406 C407 1.362 . S
C407 H397 0.930 . S
C407 C400 1.409 . S
C407 C406 1.362 . S
H408 C414 0.930 . S
H409 C417 0.930 . S
H410 C418 0.930 . S
H411 C419 0.930 . S
H412 C422 0.930 . S
H413 C423 0.930 . S
C414 H408 0.930 . S
C414 C415 1.355 . S
C414 C416 1.415 . S
C415 C414 1.355 . S
C415 C417 1.419 . S
C416 C414 1.415 . S
C416 C421 1.425 . S
C416 C423 1.409 . S
C417 H409 0.930 . S
C417 C415 1.419 . S
C417 C418 1.362 . S
C418 H410 0.930 . S
C418 C417 1.362 . S
C418 C421 1.409 . S
C419 H411 0.930 . S
C419 C420 1.355 . S
C419 C421 1.415 . S
C420 C419 1.355 . S
C420 C422 1.419 . S
C421 C416 1.425 . S
C421 C418 1.409 . S
C421 C419 1.415 . S
C422 H412 0.930 . S
C422 C420 1.419 . S
C422 C423 1.362 . S
C423 H413 0.930 . S
C423 C416 1.409 . S
C423 C422 1.362 . S
H424 C430 0.930 . S
H425 C433 0.930 . S
H426 C434 0.930 . S
H427 C435 0.930 . S
H428 C438 0.930 . S
H429 C439 0.930 . S
C430 H424 0.930 . S
C430 C431 1.355 . S
C430 C432 1.415 . S
C431 C430 1.355 . S
C431 C433 1.419 . S
C432 C430 1.415 . S
C432 C437 1.425 . S
C432 C439 1.409 . S
C433 H425 0.930 . S
C433 C431 1.419 . S
C433 C434 1.362 . S
C434 H426 0.930 . S
C434 C433 1.362 . S
C434 C437 1.409 . S
C435 H427 0.930 . S
C435 C436 1.355 . S
C435 C437 1.415 . S
C436 C435 1.355 . S
C436 C438 1.419 . S
C437 C432 1.425 . S
C437 C434 1.409 . S
C437 C435 1.415 . S
C438 H428 0.930 . S
C438 C436 1.419 . S
C438 C439 1.362 . S
C439 H429 0.930 . S
C439 C432 1.409 . S
C439 C438 1.362 . S
H440 C446 0.930 . S
H441 C449 0.930 . S
H442 C450 0.930 . S
H443 C451 0.930 . S
H444 C454 0.930 . S
H445 C455 0.930 . S
C446 H440 0.930 . S
C446 C447 1.355 . S
C446 C448 1.415 . S
C447 C446 1.355 . S
C447 C449 1.419 . S
C448 C446 1.415 . S
C448 C453 1.425 . S
C448 C455 1.409 . S
C449 H441 0.930 . S
C449 C447 1.419 . S
C449 C450 1.362 . S
C450 H442 0.930 . S
C450 C449 1.362 . S
C450 C453 1.409 . S
C451 H443 0.930 . S
C451 C452 1.355 . S
C451 C453 1.415 . S
C452 C451 1.355 . S
C452 C454 1.419 . S
C453 C448 1.425 . S
C453 C450 1.409 . S
C453 C451 1.415 . S
C454 H444 0.930 . S
C454 C452 1.419 . S
C454 C455 1.362 . S
C455 H445 0.930 . S
C455 C448 1.409 . S
C455 C454 1.362 . S
H456 C462 0.930 . S
H457 C465 0.930 . S
H458 C466 0.930 . S
H459 C467 0.930 . S
H460 C470 0.930 . S
H461 C471 0.930 . S
C462 H456 0.930 . S
C462 C463 1.355 . S
C462 C464 1.415 . S
C463 C462 1.355 . S
C463 C465 1.419 . S
C464 C462 1.415 . S
C464 C469 1.425 . S
C464 C471 1.409 . S
C465 H457 0.930 . S
C465 C463 1.419 . S
C465 C466 1.362 . S
C466 H458 0.930 . S
C466 C465 1.362 . S
C466 C469 1.409 . S
C467 H459 0.930 . S
C467 C468 1.355 . S
C467 C469 1.415 . S
C468 C467 1.355 . S
C468 C470 1.419 . S
C469 C464 1.425 . S
C469 C466 1.409 . S
C469 C467 1.415 . S
C470 H460 0.930 . S
C470 C468 1.419 . S
C470 C471 1.362 . S
C471 H461 0.930 . S
C471 C464 1.409 . S
C471 C470 1.362 . S
H472 C478 0.930 . S
H473 C481 0.930 . S
H474 C482 0.930 . S
H475 C483 0.930 . S
H476 C486 0.930 . S
H477 C487 0.930 . S
C478 H472 0.930 . S
C478 C479 1.355 . S
C478 C480 1.415 . S
C479 C478 1.355 . S
C479 C481 1.419 . S
C480 C478 1.415 . S
C480 C485 1.425 . S
C480 C487 1.409 . S
C481 H473 0.930 . S
C481 C479 1.419 . S
C481 C482 1.362 . S
C482 H474 0.930 . S
C482 C481 1.362 . S
C482 C485 1.409 . S
C483 H475 0.930 . S
C483 C484 1.355 . S
C483 C485 1.415 . S
C484 C483 1.355 . S
C484 C486 1.419 . S
C485 C480 1.425 . S
C485 C482 1.409 . S
C485 C483 1.415 . S
C486 H476 0.930 . S
C486 C484 1.419 . S
C486 C487 1.362 . S
C487 H477 0.930 . S
C487 C480 1.409 . S
C487 C486 1.362 . S
H488 C494 0.930 . S
H489 C497 0.930 . S
H490 C498 0.930 . S
H491 C499 0.930 . S
H492 C502 0.930 . S
H493 C503 0.930 . S
C494 H488 0.930 . S
C494 C495 1.355 . S
C494 C496 1.415 . S
C495 C494 1.355 . S
C495 C497 1.419 . S
C496 C494 1.415 . S
C496 C501 1.425 . S
C496 C503 1.409 . S
C497 H489 0.930 . S
C497 C495 1.419 . S
C497 C498 1.362 . S
C498 H490 0.930 . S
C498 C497 1.362 . S
C498 C501 1.409 . S
C499 H491 0.930 . S
C499 C500 1.355 . S
C499 C501 1.415 . S
C500 C499 1.355 . S
C500 C502 1.419 . S
C501 C496 1.425 . S
C501 C498 1.409 . S
C501 C499 1.415 . S
C502 H492 0.930 . S
C502 C500 1.419 . S
C502 C503 1.362 . S
C503 H493 0.930 . S
C503 C496 1.409 . S
C503 C502 1.362 . S
H504 C510 0.930 1_655 S
H505 C513 0.930 . S
H506 C514 0.930 . S
H507 C515 0.930 . S
H508 C518 0.930 . S
H509 C519 0.930 . S
C510 H504 0.930 1_455 S
C510 C511 1.355 . S
C510 C512 1.415 . S
C511 C510 1.355 . S
C511 C513 1.419 . S
C512 C510 1.415 . S
C512 C517 1.425 . S
C512 C519 1.409 1_455 S
C513 H505 0.930 . S
C513 C511 1.419 . S
C513 C514 1.362 . S
C514 H506 0.930 . S
C514 C513 1.362 . S
C514 C517 1.409 . S
C515 H507 0.930 . S
C515 C516 1.355 . S
C515 C517 1.415 . S
C516 C515 1.355 . S
C516 C518 1.419 1_455 S
C517 C512 1.425 . S
C517 C514 1.409 . S
C517 C515 1.415 . S
C518 H508 0.930 . S
C518 C516 1.419 1_655 S
C518 C519 1.362 . S
C519 H509 0.930 . S
C519 C512 1.409 1_655 S
C519 C518 1.362 . S
H520 C526 0.930 . S
H521 C529 0.930 . S
H522 C530 0.930 . S
H523 C531 0.930 1_565 S
H524 C534 0.930 . S
H525 C535 0.930 . S
C526 H520 0.930 . S
C526 C527 1.355 . S
C526 C528 1.415 . S
C527 C526 1.355 . S
C527 C529 1.419 1_545 S
C528 C526 1.415 . S
C528 C533 1.425 . S
C528 C535 1.409 . S
C529 H521 0.930 . S
C529 C527 1.419 1_565 S
C529 C530 1.362 . S
C530 H522 0.930 . S
C530 C529 1.362 . S
C530 C533 1.409 1_565 S
C531 H523 0.930 1_545 S
C531 C532 1.355 . S
C531 C533 1.415 . S
C532 C531 1.355 . S
C532 C534 1.419 . S
C533 C528 1.425 . S
C533 C530 1.409 1_545 S
C533 C531 1.415 . S
C534 H524 0.930 . S
C534 C532 1.419 . S
C534 C535 1.362 . S
C535 H525 0.930 . S
C535 C528 1.409 . S
C535 C534 1.362 . S
H536 C542 0.930 . S
H537 C545 0.930 . S
H538 C546 0.930 . S
H539 C547 0.930 . S
H540 C550 0.930 . S
H541 C551 0.930 . S
C542 H536 0.930 . S
C542 C543 1.355 . S
C542 C544 1.415 . S
C543 C542 1.355 . S
C543 C545 1.419 . S
C544 C542 1.415 . S
C544 C549 1.425 . S
C544 C551 1.409 . S
C545 H537 0.930 . S
C545 C543 1.419 . S
C545 C546 1.362 . S
C546 H538 0.930 . S
C546 C545 1.362 . S
C546 C549 1.409 . S
C547 H539 0.930 . S
C547 C548 1.355 . S
C547 C549 1.415 . S
C548 C547 1.355 . S
C548 C550 1.419 . S
C549 C544 1.425 . S
C549 C546 1.409 . S
C549 C547 1.415 . S
C550 H540 0.930 . S
C550 C548 1.419 . S
C550 C551 1.362 . S
C551 H541 0.930 . S
C551 C544 1.409 . S
C551 C550 1.362 . S
H552 C558 0.930 . S
H553 C561 0.930 . S
H554 C562 0.930 . S
H555 C563 0.930 . S
H556 C566 0.930 . S
H557 C567 0.930 . S
C558 H552 0.930 . S
C558 C559 1.355 . S
C558 C560 1.415 . S
C559 C558 1.355 . S
C559 C561 1.419 1_545 S
C560 C558 1.415 . S
C560 C565 1.425 1_545 S
C560 C567 1.409 . S
C561 H553 0.930 . S
C561 C559 1.419 1_565 S
C561 C562 1.362 . S
C562 H554 0.930 . S
C562 C561 1.362 . S
C562 C565 1.409 . S
C563 H555 0.930 . S
C563 C564 1.355 1_565 S
C563 C565 1.415 . S
C564 C563 1.355 1_545 S
C564 C566 1.419 . S
C565 C560 1.425 1_565 S
C565 C562 1.409 . S
C565 C563 1.415 . S
C566 H556 0.930 . S
C566 C564 1.419 . S
C566 C567 1.362 . S
C567 H557 0.930 . S
C567 C560 1.409 . S
C567 C566 1.362 . S
H568 C574 0.930 . S
H569 C577 0.930 . S
H570 C578 0.930 . S
H571 C579 0.930 . S
H572 C582 0.930 1_554 S
H573 C583 0.930 . S
C574 H568 0.930 . S
C574 C575 1.355 . S
C574 C576 1.415 . S
C575 C574 1.355 . S
C575 C577 1.419 . S
C576 C574 1.415 . S
C576 C581 1.425 . S
C576 C583 1.409 . S
C577 H569 0.930 . S
C577 C575 1.419 . S
C577 C578 1.362 . S
C578 H570 0.930 . S
C578 C577 1.362 . S
C578 C581 1.409 . S
C579 H571 0.930 . S
C579 C580 1.339 1_556 S
C579 C581 1.415 . S
C580 C579 1.339 1_554 S
C580 C582 1.414 1_554 S
C581 C576 1.425 . S
C581 C578 1.409 . S
C581 C579 1.415 . S
C582 H572 0.930 1_556 S
C582 C580 1.414 1_556 S
C582 C583 1.362 . S
C583 H573 0.930 . S
C583 C576 1.409 . S
C583 C582 1.362 . S
H584 C590 0.930 . S
H585 C593 0.930 . S
H586 C594 0.930 . S
H587 C595 0.930 . S
H588 C598 0.930 . S
H589 C599 0.930 . S
C590 H584 0.930 . S
C590 C591 1.355 1_655 S
C590 C592 1.415 . S
C591 C590 1.355 1_455 S
C591 C593 1.419 . S
C592 C590 1.415 . S
C592 C597 1.425 1_655 S
C592 C599 1.409 . S
C593 H585 0.930 . S
C593 C591 1.419 . S
C593 C594 1.362 . S
C594 H586 0.930 . S
C594 C593 1.362 . S
C594 C597 1.409 . S
C595 H587 0.930 . S
C595 C596 1.362 . S
C595 C597 1.415 . S
C596 C595 1.362 . S
C596 C598 1.411 1_455 S
C597 C592 1.425 1_455 S
C597 C594 1.409 . S
C597 C595 1.415 . S
C598 H588 0.930 . S
C598 C596 1.411 1_655 S
C598 C599 1.362 . S
C599 H589 0.930 . S
C599 C592 1.409 . S
C599 C598 1.362 . S
C319 C10 3.077 . S
C324 C303 3.022 . S
C335 C55 1.287 . S
C340 C239 1.254 . S
C351 C90 1.905 . S
C356 C271 1.903 . S
C367 C19 3.017 . S
C372 C297 2.992 . S
C388 C233 1.293 . S
C383 C46 1.265 . S
C404 C265 1.970 . S
C399 C99 2.045 . S
C415 C50 1.909 . S
C420 C175 1.880 . S
C431 C95 0.830 . S
C436 C207 0.737 . S
C447 C6 1.298 . S
C452 C137 1.278 . S
C468 C169 1.955 . S
C463 C59 1.987 . S
C484 C201 0.534 . S
C479 C86 0.661 . S
C495 C15 1.313 . S
C500 C143 1.336 . S
C516 C213 1.078 1_554 S
C511 C18 1.090 . S
C527 C49 1.451 . S
C532 C149 1.476 . S
C543 C98 1.357 . S
C548 C181 1.300 . S
C564 C277 1.341 . S
C559 C58 1.338 . S
C580 C309 1.781 . S
C575 C89 1.717 . S
C591 C9 1.416 . S
C596 C245 1.473 . S
