# Generated by pormake.
# Topology pto, (3,4)-cn, num edge types: 1
# Building blocks:
#     Node 0, Type 0, BuildingBlock: BELTOD_clean_linker_0, # of connection points: 3
#     Node 1, Type 0, BuildingBlock: BELTOD_clean_linker_0, # of connection points: 3
#     Node 2, Type 0, BuildingBlock: BELTOD_clean_linker_0, # of connection points: 3
#     Node 3, Type 0, BuildingBlock: BELTOD_clean_linker_0, # of connection points: 3
#     Node 4, Type 0, BuildingBlock: BELTOD_clean_linker_0, # of connection points: 3
#     Node 5, Type 0, BuildingBlock: BELTOD_clean_linker_0, # of connection points: 3
#     Node 6, Type 0, BuildingBlock: BELTOD_clean_linker_0, # of connection points: 3
#     Node 7, Type 0, BuildingBlock: BELTOD_clean_linker_0, # of connection points: 3
#     Node 8, Type 1, BuildingBlock: NAWXER_clean_sbu_0, # of connection points: 4
#     Node 9, Type 1, BuildingBlock: NAWXER_clean_sbu_0, # of connection points: 4
#     Node 10, Type 1, BuildingBlock: NAWXER_clean_sbu_0, # of connection points: 4
#     Node 11, Type 1, BuildingBlock: NAWXER_clean_sbu_0, # of connection points: 4
#     Node 12, Type 1, BuildingBlock: NAWXER_clean_sbu_0, # of connection points: 4
#     Node 13, Type 1, BuildingBlock: NAWXER_clean_sbu_0, # of connection points: 4
#     Edge 14, Type (0, 1), BuildingBlock: OJICUG_clean_linker_0, # of connection points: 2
#     Edge 15, Type (0, 1), BuildingBlock: OJICUG_clean_linker_0, # of connection points: 2
#     Edge 16, Type (0, 1), BuildingBlock: OJICUG_clean_linker_0, # of connection points: 2
#     Edge 17, Type (0, 1), BuildingBlock: OJICUG_clean_linker_0, # of connection points: 2
#     Edge 18, Type (0, 1), BuildingBlock: OJICUG_clean_linker_0, # of connection points: 2
#     Edge 19, Type (0, 1), BuildingBlock: OJICUG_clean_linker_0, # of connection points: 2
#     Edge 20, Type (0, 1), BuildingBlock: OJICUG_clean_linker_0, # of connection points: 2
#     Edge 21, Type (0, 1), BuildingBlock: OJICUG_clean_linker_0, # of connection points: 2
#     Edge 22, Type (0, 1), BuildingBlock: OJICUG_clean_linker_0, # of connection points: 2
#     Edge 23, Type (0, 1), BuildingBlock: OJICUG_clean_linker_0, # of connection points: 2
#     Edge 24, Type (0, 1), BuildingBlock: OJICUG_clean_linker_0, # of connection points: 2
#     Edge 25, Type (0, 1), BuildingBlock: OJICUG_clean_linker_0, # of connection points: 2
#     Edge 26, Type (0, 1), BuildingBlock: OJICUG_clean_linker_0, # of connection points: 2
#     Edge 27, Type (0, 1), BuildingBlock: OJICUG_clean_linker_0, # of connection points: 2
#     Edge 28, Type (0, 1), BuildingBlock: OJICUG_clean_linker_0, # of connection points: 2
#     Edge 29, Type (0, 1), BuildingBlock: OJICUG_clean_linker_0, # of connection points: 2
#     Edge 30, Type (0, 1), BuildingBlock: OJICUG_clean_linker_0, # of connection points: 2
#     Edge 31, Type (0, 1), BuildingBlock: OJICUG_clean_linker_0, # of connection points: 2
#     Edge 32, Type (0, 1), BuildingBlock: OJICUG_clean_linker_0, # of connection points: 2
#     Edge 33, Type (0, 1), BuildingBlock: OJICUG_clean_linker_0, # of connection points: 2
#     Edge 34, Type (0, 1), BuildingBlock: OJICUG_clean_linker_0, # of connection points: 2
#     Edge 35, Type (0, 1), BuildingBlock: OJICUG_clean_linker_0, # of connection points: 2
#     Edge 36, Type (0, 1), BuildingBlock: OJICUG_clean_linker_0, # of connection points: 2
#     Edge 37, Type (0, 1), BuildingBlock: OJICUG_clean_linker_0, # of connection points: 2
# Relax obj value: 0.000
# Max RMSD: 0.007
# Mean RMSD: 0.005
data_MOF--net-pto--node1-NAWXER_clean_sbu_0--node2-BELTOD_clean_linker_0--edge1-OJICUG_clean_linker_0
_symmetry_space_group_name_H-M    P1
_symmetry_Int_Tables_number       1
_symmetry_cell_setting            triclinic
loop_
_symmetry_equiv_pos_as_xyz
'x, y, z'
_cell_length_a     37.396186
_cell_length_b     35.311913
_cell_length_c     32.95003
_cell_angle_alpha  89.117736
_cell_angle_beta   91.533759
_cell_angle_gamma 92.144406
loop_
_atom_site_label
_atom_site_type_symbol
_atom_site_fract_x
_atom_site_fract_y
_atom_site_fract_z
_atom_type_partial_charge
P0 P 0.26995 0.32082 0.32705 0.0
H1 H 0.34489 0.34645 0.31823 0.0
H2 H 0.38421 0.35099 0.26016 0.0
H3 H 0.29717 0.31011 0.18189 0.0
H4 H 0.25777 0.30587 0.24016 0.0
H5 H 0.2509 0.39601 0.35368 0.0
H6 H 0.19651 0.43198 0.34466 0.0
H7 H 0.1478 0.34078 0.27401 0.0
H8 H 0.20229 0.30505 0.28307 0.0
H9 H 0.27857 0.24723 0.28661 0.0
H10 H 0.22977 0.28832 0.39371 0.0
O11 O 0.29248 0.33758 0.36778 0.0
H12 H 0.2606 0.18243 0.3056 0.0
H13 H 0.21305 0.22346 0.41396 0.0
C14 C 0.29838 0.32555 0.28363 0.0
C15 C 0.33409 0.33871 0.28857 0.0
C16 C 0.35656 0.34154 0.25529 0.0
C17 C 0.34383 0.33087 0.21646 0.0
C18 C 0.30783 0.31827 0.2115 0.0
C19 C 0.28526 0.31591 0.24475 0.0
C20 C 0.2305 0.34782 0.31919 0.0
C21 C 0.22849 0.38374 0.33632 0.0
C22 C 0.1973 0.40415 0.33141 0.0
C23 C 0.16779 0.38909 0.30887 0.0
C24 C 0.17015 0.35321 0.29137 0.0
C25 C 0.20126 0.33277 0.2965 0.0
C26 C 0.2558 0.27265 0.33898 0.0
C27 C 0.26385 0.24243 0.31412 0.0
C28 C 0.25363 0.20523 0.32516 0.0
C29 C 0.23549 0.19751 0.3615 0.0
C30 C 0.22646 0.22817 0.3855 0.0
C31 C 0.23644 0.26531 0.37424 0.0
P32 P 0.26422 0.7034 0.71368 0.0
H33 H 0.19339 0.68113 0.68353 0.0
H34 H 0.14181 0.64962 0.71478 0.0
H35 H 0.19831 0.64984 0.83093 0.0
H36 H 0.25016 0.68146 0.79923 0.0
H37 H 0.30985 0.75428 0.66679 0.0
H38 H 0.30074 0.81523 0.63308 0.0
H39 H 0.19413 0.81671 0.68034 0.0
H40 H 0.20346 0.75541 0.71403 0.0
H41 H 0.3197 0.64833 0.72839 0.0
H42 H 0.29382 0.75789 0.77282 0.0
O43 O 0.27159 0.67549 0.67459 0.0
H44 H 0.37297 0.6481 0.77306 0.0
H45 H 0.34649 0.75756 0.81839 0.0
C46 C 0.22555 0.68366 0.73894 0.0
C47 C 0.19453 0.67487 0.71582 0.0
C48 C 0.16497 0.65707 0.73386 0.0
C49 C 0.16585 0.64747 0.77549 0.0
C50 C 0.19688 0.65681 0.79882 0.0
C51 C 0.22648 0.67498 0.78069 0.0
C52 C 0.25743 0.75021 0.69285 0.0
C53 C 0.28464 0.76789 0.67028 0.0
C54 C 0.2794 0.80285 0.65113 0.0
C55 C 0.24668 0.82096 0.65407 0.0
C56 C 0.21949 0.80336 0.67718 0.0
C57 C 0.22489 0.76832 0.69658 0.0
C58 C 0.30336 0.70353 0.74669 0.0
C59 C 0.32559 0.67241 0.74771 0.0
C60 C 0.35588 0.67217 0.77352 0.0
C61 C 0.36427 0.70297 0.79905 0.0
C62 C 0.34134 0.73376 0.79846 0.0
C63 C 0.31112 0.73398 0.77256 0.0
P64 P 0.76082 0.78049 0.23541 0.0
H65 H 0.81022 0.83034 0.2791 0.0
H66 H 0.80395 0.87341 0.33511 0.0
H67 H 0.69368 0.83452 0.34713 0.0
H68 H 0.70015 0.79164 0.29005 0.0
H69 H 0.82083 0.75832 0.18786 0.0
H70 H 0.86452 0.70949 0.19692 0.0
H71 H 0.8166 0.67468 0.31015 0.0
H72 H 0.77322 0.72498 0.3013 0.0
H73 H 0.69482 0.81358 0.20745 0.0
H74 H 0.73717 0.70172 0.21572 0.0
O75 O 0.77601 0.81086 0.19999 0.0
H76 H 0.64359 0.78882 0.16788 0.0
H77 H 0.68537 0.67636 0.17684 0.0
C78 C 0.75569 0.80798 0.2803 0.0
C79 C 0.78479 0.83075 0.29406 0.0
C80 C 0.78115 0.85528 0.32631 0.0
C81 C 0.74828 0.85744 0.34583 0.0
C82 C 0.71923 0.83386 0.33251 0.0
C83 C 0.72296 0.80919 0.30002 0.0
C84 C 0.79407 0.74552 0.24414 0.0
C85 C 0.81988 0.74055 0.21491 0.0
C86 C 0.84469 0.71227 0.21995 0.0
C87 C 0.84389 0.68787 0.25409 0.0
C88 C 0.81814 0.69319 0.28369 0.0
C89 C 0.79331 0.72179 0.27865 0.0
C90 C 0.7197 0.7596 0.21481 0.0
C91 C 0.69251 0.78343 0.20179 0.0
C92 C 0.66309 0.76908 0.17923 0.0
C93 C 0.66022 0.73044 0.1691 0.0
C94 C 0.68686 0.70627 0.18374 0.0
C95 C 0.71641 0.72076 0.20632 0.0
P96 P 0.7391 0.24989 0.81487 0.0
H97 H 0.66926 0.21709 0.83341 0.0
H98 H 0.61625 0.24303 0.86212 0.0
H99 H 0.66503 0.35575 0.85412 0.0
H100 H 0.71829 0.32934 0.8256 0.0
H101 H 0.78423 0.19318 0.78343 0.0
H102 H 0.7827 0.15676 0.7211 0.0
H103 H 0.68568 0.2107 0.68179 0.0
H104 H 0.6874 0.24732 0.7448 0.0
H105 H 0.77573 0.29558 0.87712 0.0
H106 H 0.7831 0.28032 0.74806 0.0
O107 O 0.74885 0.21972 0.85268 0.0
H108 H 0.82591 0.34194 0.8756 0.0
H109 H 0.83428 0.3248 0.74652 0.0
C110 C 0.69781 0.27111 0.82761 0.0
C111 C 0.66825 0.24747 0.83701 0.0
C112 C 0.63784 0.26248 0.85331 0.0
C113 C 0.63632 0.3016 0.86058 0.0
C114 C 0.66546 0.32549 0.84937 0.0
C115 C 0.69592 0.31037 0.83288 0.0
C116 C 0.73579 0.22263 0.76894 0.0
C117 C 0.76249 0.19705 0.76154 0.0
C118 C 0.76171 0.17645 0.72573 0.0
C119 C 0.73416 0.18098 0.69634 0.0
C120 C 0.7071 0.20642 0.70396 0.0
C121 C 0.70809 0.22737 0.73991 0.0
C122 C 0.77577 0.2844 0.8128 0.0
C123 C 0.78837 0.30204 0.8485 0.0
C124 C 0.81728 0.3283 0.84762 0.0
C125 C 0.83438 0.33718 0.81096 0.0
C126 C 0.82153 0.31926 0.77523 0.0
C127 C 0.79233 0.29342 0.7761 0.0
P128 P 0.82714 0.79805 0.80381 0.0
H129 H 0.79592 0.83067 0.87527 0.0
H130 H 0.7364 0.82491 0.90393 0.0
H131 H 0.70301 0.74676 0.80937 0.0
H132 H 0.76299 0.75222 0.78131 0.0
H133 H 0.87011 0.74568 0.85089 0.0
H134 H 0.89608 0.68551 0.8356 0.0
H135 H 0.84819 0.68968 0.71485 0.0
H136 H 0.82242 0.75063 0.73046 0.0
H137 H 0.7739 0.85315 0.77925 0.0
H138 H 0.87314 0.81399 0.73435 0.0
O139 O 0.85542 0.81941 0.83698 0.0
H140 H 0.76986 0.89794 0.7229 0.0
H141 H 0.86881 0.85863 0.67676 0.0
C142 C 0.78412 0.79113 0.82675 0.0
C143 C 0.77596 0.81189 0.86101 0.0
C144 C 0.74171 0.80897 0.87707 0.0
C145 C 0.71486 0.78539 0.85897 0.0
C146 C 0.72318 0.76476 0.82442 0.0
C147 C 0.75747 0.76776 0.80838 0.0
C148 C 0.84499 0.753 0.79158 0.0
C149 C 0.86521 0.73375 0.82108 0.0
C150 C 0.87981 0.69911 0.81236 0.0
C151 C 0.8742 0.68266 0.77395 0.0
C152 C 0.85336 0.70177 0.74453 0.0
C153 C 0.83858 0.73654 0.75343 0.0
C154 C 0.82323 0.82924 0.76032 0.0
C155 C 0.79454 0.85359 0.75685 0.0
C156 C 0.79225 0.87933 0.72448 0.0
C157 C 0.81875 0.88152 0.69496 0.0
C158 C 0.84797 0.85766 0.69899 0.0
C159 C 0.85026 0.83186 0.7316 0.0
P160 P 0.79439 0.23087 0.17591 0.0
H161 H 0.8659 0.25238 0.14764 0.0
H162 H 0.90265 0.31097 0.15171 0.0
H163 H 0.81726 0.36503 0.21175 0.0
H164 H 0.78066 0.30611 0.20769 0.0
H165 H 0.78831 0.15059 0.19683 0.0
H166 H 0.79018 0.11562 0.26153 0.0
H167 H 0.8134 0.2201 0.32484 0.0
H168 H 0.81059 0.25522 0.2602 0.0
H169 H 0.75802 0.2869 0.12493 0.0
H170 H 0.72783 0.18844 0.19711 0.0
O171 O 0.80994 0.2042 0.13941 0.0
H172 H 0.69552 0.29365 0.10353 0.0
H173 H 0.66538 0.19494 0.17555 0.0
C174 C 0.82036 0.27504 0.17689 0.0
C175 C 0.85488 0.27696 0.16122 0.0
C176 C 0.87585 0.31055 0.16342 0.0
C177 C 0.86285 0.34275 0.18188 0.0
C178 C 0.82814 0.34069 0.19751 0.0
C179 C 0.80711 0.30713 0.19502 0.0
C180 C 0.79947 0.20549 0.22355 0.0
C181 C 0.79414 0.16599 0.22455 0.0
C182 C 0.79512 0.14605 0.26147 0.0
C183 C 0.802 0.16523 0.29804 0.0
C184 C 0.80836 0.20468 0.29697 0.0
C185 C 0.80667 0.22474 0.26001 0.0
C186 C 0.74768 0.23788 0.16364 0.0
C187 C 0.73794 0.26716 0.13685 0.0
C188 C 0.70215 0.27092 0.12453 0.0
C189 C 0.67543 0.24496 0.13811 0.0
C190 C 0.68533 0.21533 0.16453 0.0
C191 C 0.72111 0.21183 0.17715 0.0
P192 P 0.28129 0.30882 0.70932 0.0
H193 H 0.31003 0.28862 0.63081 0.0
H194 H 0.3131 0.22821 0.59607 0.0
H195 H 0.25409 0.17274 0.69262 0.0
H196 H 0.2506 0.23336 0.7267 0.0
H197 H 0.25164 0.37536 0.66861 0.0
H198 H 0.19406 0.40521 0.67163 0.0
H199 H 0.15625 0.3157 0.75242 0.0
H200 H 0.21454 0.28658 0.75011 0.0
H201 H 0.33736 0.2591 0.73718 0.0
H202 H 0.26727 0.33737 0.79103 0.0
O203 O 0.30984 0.33985 0.68751 0.0
H204 H 0.36662 0.24825 0.80292 0.0
H205 H 0.29609 0.32603 0.85749 0.0
C206 C 0.27985 0.26548 0.68119 0.0
C207 C 0.29743 0.26353 0.64428 0.0
C208 C 0.29956 0.22886 0.62469 0.0
C209 C 0.2841 0.19555 0.64171 0.0
C210 C 0.26601 0.19787 0.67846 0.0
C211 C 0.26386 0.23254 0.69794 0.0
C212 C 0.23763 0.32905 0.70969 0.0
C213 C 0.23097 0.36205 0.68693 0.0
C214 C 0.19779 0.37895 0.68834 0.0
C215 C 0.17041 0.36305 0.71242 0.0
C216 C 0.17684 0.32911 0.73405 0.0
C217 C 0.21012 0.31227 0.73263 0.0
C218 C 0.29954 0.29838 0.75928 0.0
C219 C 0.32762 0.27327 0.76339 0.0
C220 C 0.34429 0.26692 0.80116 0.0
C221 C 0.33355 0.28598 0.83566 0.0
C222 C 0.30509 0.31094 0.83152 0.0
C223 C 0.28839 0.31726 0.79357 0.0
P224 P 0.2872 0.73334 0.24811 0.0
H225 H 0.3364 0.68464 0.20876 0.0
H226 H 0.37619 0.69434 0.15201 0.0
H227 H 0.33844 0.8077 0.13386 0.0
H228 H 0.29868 0.79783 0.19134 0.0
H229 H 0.33095 0.75525 0.31912 0.0
H230 H 0.333 0.81099 0.36204 0.0
H231 H 0.25181 0.86132 0.2849 0.0
H232 H 0.2493 0.80481 0.24266 0.0
H233 H 0.25943 0.68301 0.18422 0.0
H234 H 0.21664 0.74597 0.2817 0.0
O235 O 0.30397 0.69834 0.2765 0.0
H236 H 0.20117 0.65108 0.1727 0.0
H237 H 0.15788 0.71599 0.2689 0.0
C238 C 0.31501 0.74069 0.20473 0.0
C239 C 0.33661 0.7116 0.19266 0.0
C240 C 0.35919 0.71712 0.15994 0.0
C241 C 0.36046 0.75183 0.13837 0.0
C242 C 0.33833 0.78082 0.15016 0.0
C243 C 0.31554 0.77516 0.18294 0.0
C244 C 0.28921 0.77546 0.27841 0.0
C245 C 0.31348 0.77821 0.3115 0.0
C246 C 0.31496 0.81035 0.33578 0.0
C247 C 0.29238 0.84055 0.32714 0.0
C248 C 0.2691 0.83827 0.29286 0.0
C249 C 0.26763 0.80604 0.26864 0.0
C250 C 0.24236 0.71757 0.23324 0.0
C251 C 0.23717 0.69107 0.20215 0.0
C252 C 0.20367 0.67283 0.19551 0.0
C253 C 0.17465 0.68065 0.22001 0.0
C254 C 0.17965 0.70867 0.24984 0.0
C255 C 0.21326 0.72643 0.25681 0.0
C256 C 0.95879 0.47411 0.20485 0.0
C257 C 0.04944 0.57824 0.21501 0.0
O258 O 0.96479 0.48558 0.24124 0.0
Zn259 Zn 0.99779 0.52742 0.27254 0.0
O260 O 0.97558 0.49013 0.1758 0.0
Zn261 Zn 1.00343 0.52691 0.20801 0.0
O262 O 0.03844 0.49119 0.24211 0.0
O263 O 0.02809 0.49657 0.30738 0.0
O264 O 0.03758 0.56256 0.18257 0.0
O265 O 0.03645 0.56758 0.24911 0.0
O266 O 0.96309 0.55965 0.29604 0.0
O267 O 0.96334 0.56293 0.2291 0.0
C268 C 0.04554 0.48214 0.27919 0.0
C269 C 0.95052 0.57306 0.26281 0.0
C270 C 0.95473 0.44538 0.80264 0.0
C271 C 0.04992 0.54425 0.80671 0.0
O272 O 0.97307 0.45586 0.83385 0.0
Zn273 Zn 1.00416 0.49308 0.80677 0.0
O274 O 0.96216 0.45968 0.76774 0.0
Zn275 Zn 0.99892 0.50017 0.74167 0.0
O276 O 0.0294 0.47009 0.70797 0.0
O277 O 0.03815 0.459 0.77335 0.0
O278 O 0.03683 0.53733 0.77122 0.0
O279 O 0.03947 0.52459 0.83716 0.0
O280 O 0.96697 0.53432 0.78549 0.0
O281 O 0.96668 0.53747 0.71841 0.0
C282 C 0.04584 0.45267 0.7365 0.0
C283 C 0.95519 0.54884 0.75203 0.0
C284 C 0.2357 0.95428 0.5515 0.0
C285 C 0.22912 0.05424 0.44599 0.0
O286 O 0.20701 0.96649 0.53518 0.0
Zn287 Zn 0.22954 1.00376 0.49824 0.0
O288 O 0.26602 0.96797 0.53999 0.0
Zn289 Zn 0.28758 0.00825 0.49794 0.0
O290 O 0.31252 0.04521 0.53303 0.0
O291 O 0.25377 0.04424 0.53845 0.0
O292 O 0.26076 0.04503 0.45691 0.0
O293 O 0.20216 0.03758 0.46229 0.0
O294 O 0.25405 0.96835 0.45623 0.0
O295 O 0.31281 0.97651 0.46112 0.0
C296 C 0.28478 0.05802 0.54883 0.0
C297 C 0.28525 0.96017 0.44471 0.0
C298 C 0.55954 0.70719 0.03822 0.0
C299 C 0.48267 0.70882 0.91561 0.0
O300 O 0.54968 0.67829 0.01758 0.0
Zn301 Zn 0.5232 0.70597 0.97535 0.0
O302 O 0.55126 0.74036 0.02591 0.0
Zn303 Zn 0.52305 0.76699 0.9771 0.0
O304 O 0.48677 0.79207 0.00725 0.0
O305 O 0.48141 0.72949 0.009 0.0
O306 O 0.49149 0.74184 0.92903 0.0
O307 O 0.49539 0.67965 0.93304 0.0
O308 O 0.56554 0.73405 0.94358 0.0
O309 O 0.56097 0.79574 0.94951 0.0
C310 C 0.47021 0.76183 0.01898 0.0
C311 C 0.57746 0.76785 0.93612 0.0
C312 C 0.80124 0.99101 0.56397 0.0
C313 C 0.79429 0.07967 0.44883 0.0
O314 O 0.76915 0.99761 0.55191 0.0
Zn315 Zn 0.74169 0.03181 0.50755 0.0
O316 O 0.82747 0.0086 0.54732 0.0
Zn317 Zn 0.79904 0.03728 0.5084 0.0
O318 O 0.77384 0.07553 0.54689 0.0
O319 O 0.71541 0.06577 0.54143 0.0
O320 O 0.82233 0.07012 0.46848 0.0
O321 O 0.76353 0.06747 0.46067 0.0
O322 O 0.71678 0.99258 0.47525 0.0
O323 O 0.77575 0.99215 0.47234 0.0
C324 C 0.7423 0.0837 0.55725 0.0
C325 C 0.7448 0.97787 0.46226 0.0
C326 C 0.53334 0.26465 0.06888 0.0
C327 C 0.42968 0.27713 0.97544 0.0
O328 O 0.51399 0.23758 0.05402 0.0
Zn329 Zn 0.4794 0.26855 0.02418 0.0
O330 O 0.5247 0.29886 0.06159 0.0
Zn331 Zn 0.48562 0.32942 0.02822 0.0
O332 O 0.45986 0.35463 0.07037 0.0
O333 O 0.44887 0.29284 0.07008 0.0
O334 O 0.44341 0.30877 0.98811 0.0
O335 O 0.44225 0.24614 0.98877 0.0
O336 O 0.51257 0.29555 0.97999 0.0
O337 O 0.51691 0.35732 0.99024 0.0
C338 C 0.44342 0.32544 0.0848 0.0
C339 C 0.52497 0.32854 0.96995 0.0
C340 C 0.12048 0.43106 0.33431 0.0
C341 C 0.13516 0.41131 0.30233 0.0
H342 H 0.08014 0.4686 0.35236 0.0
C343 C 0.11901 0.41365 0.26348 0.0
H344 H 0.1322 0.42945 0.36468 0.0
C345 C 0.08941 0.43592 0.25647 0.0
C346 C 0.07505 0.45628 0.28818 0.0
H347 H 0.12987 0.39909 0.23814 0.0
H348 H 0.07809 0.43759 0.22592 0.0
C349 C 0.09055 0.4532 0.32735 0.0
C350 C 0.14054 0.59311 0.81745 0.0
C351 C 0.13511 0.62565 0.7931 0.0
H352 H 0.11692 0.54142 0.84184 0.0
C353 C 0.10002 0.63434 0.78105 0.0
H354 H 0.16729 0.58561 0.82711 0.0
C355 C 0.07155 0.60906 0.7892 0.0
C356 C 0.07743 0.57491 0.81021 0.0
H357 H 0.09487 0.65959 0.76306 0.0
H358 H 0.04519 0.61503 0.77675 0.0
C359 C 0.11177 0.56787 0.82605 0.0
C360 C 0.8779 0.63642 0.22309 0.0
C361 C 0.86945 0.65662 0.25775 0.0
H362 H 0.9098 0.59445 0.19763 0.0
C363 C 0.88645 0.64747 0.29508 0.0
H364 H 0.86468 0.64197 0.19408 0.0
C365 C 0.91226 0.61963 0.29725 0.0
C366 C 0.92159 0.6006 0.2621 0.0
H367 H 0.88062 0.6626 0.32232 0.0
H368 H 0.92555 0.61377 0.32615 0.0
C369 C 0.90371 0.60896 0.22519 0.0
C370 C 0.86931 0.38964 0.77588 0.0
C371 C 0.86516 0.36526 0.80969 0.0
H372 H 0.90065 0.43359 0.74722 0.0
C373 C 0.8907 0.36794 0.84188 0.0
H374 H 0.84983 0.38921 0.75096 0.0
C375 C 0.91971 0.39417 0.84006 0.0
C376 C 0.92402 0.41789 0.80581 0.0
H377 H 0.88866 0.34935 0.86822 0.0
H378 H 0.93904 0.39543 0.86513 0.0
C379 C 0.89844 0.41534 0.77384 0.0
C380 C 0.19935 0.14687 0.39936 0.0
C381 C 0.22961 0.1578 0.37669 0.0
H382 H 0.17491 0.10484 0.43876 0.0
C383 C 0.25646 0.13151 0.37224 0.0
H384 H 0.17786 0.16618 0.40284 0.0
C385 C 0.2545 0.0965 0.3923 0.0
C386 C 0.22572 0.08676 0.41748 0.0
H387 H 0.2803 0.1388 0.35545 0.0
H388 H 0.27669 0.07786 0.38989 0.0
C389 C 0.19738 0.11157 0.41953 0.0
C390 C 0.41719 0.73686 0.83218 0.0
C391 C 0.39667 0.70316 0.82632 0.0
H392 H 0.46063 0.76483 0.86434 0.0
C393 C 0.40683 0.67016 0.84755 0.0
H394 H 0.41072 0.76255 0.81564 0.0
C395 C 0.43595 0.67133 0.87525 0.0
C396 C 0.45533 0.70554 0.88237 0.0
H397 H 0.3915 0.64375 0.84392 0.0
H398 H 0.4423 0.64585 0.89226 0.0
C399 C 0.44605 0.73806 0.8599 0.0
C400 C 0.77334 0.89186 0.40676 0.0
C401 C 0.7447 0.88515 0.37903 0.0
H402 H 0.79563 0.92617 0.45454 0.0
C403 C 0.71413 0.90707 0.38158 0.0
H404 H 0.79688 0.87491 0.4065 0.0
C405 C 0.71316 0.93636 0.40986 0.0
C406 C 0.74289 0.94438 0.4357 0.0
H407 H 0.69163 0.90276 0.36058 0.0
H408 H 0.68992 0.95375 0.41022 0.0
C409 C 0.77256 0.92121 0.43446 0.0
C410 C 0.57095 0.30066 0.876 0.0
C411 C 0.60566 0.31627 0.88287 0.0
H412 H 0.51792 0.29298 0.89827 0.0
C413 C 0.61139 0.34233 0.91463 0.0
H414 H 0.56531 0.28128 0.85127 0.0
C415 C 0.5838 0.34975 0.94111 0.0
C416 C 0.55024 0.33099 0.93635 0.0
H417 H 0.63782 0.35477 0.92093 0.0
H418 H 0.58961 0.36748 0.96718 0.0
C419 C 0.54368 0.30766 0.90265 0.0
C420 C 0.2692 0.88518 0.631 0.0
C421 C 0.24121 0.85758 0.63214 0.0
H422 H 0.28907 0.93735 0.60521 0.0
C423 C 0.2093 0.86426 0.60988 0.0
H424 H 0.29378 0.88143 0.64851 0.0
C425 C 0.20641 0.8968 0.58511 0.0
C426 C 0.23544 0.92306 0.58212 0.0
H427 H 0.18725 0.84349 0.61005 0.0
H428 H 0.18223 0.90039 0.56684 0.0
C429 C 0.2664 0.91737 0.60626 0.0
C430 C 0.63869 0.69199 0.1087 0.0
C431 C 0.6313 0.7168 0.14032 0.0
H432 H 0.62098 0.66871 0.05135 0.0
C433 C 0.59725 0.73229 0.14109 0.0
H434 H 0.66469 0.67971 0.10696 0.0
C435 C 0.5727 0.72646 0.109 0.0
C436 C 0.58126 0.70426 0.07593 0.0
H437 H 0.59024 0.75064 0.16545 0.0
H438 H 0.54767 0.74099 0.10899 0.0
C439 C 0.61371 0.68561 0.07681 0.0
C440 C 0.76686 0.15613 0.63769 0.0
C441 C 0.73455 0.15939 0.65788 0.0
H442 H 0.79442 0.13038 0.59011 0.0
C443 C 0.7036 0.1402 0.6423 0.0
H444 H 0.79101 0.17115 0.64836 0.0
C445 C 0.70549 0.11662 0.6085 0.0
C446 C 0.73834 0.11199 0.58963 0.0
H447 H 0.67831 0.14214 0.65725 0.0
H448 H 0.68158 0.10103 0.59812 0.0
C449 C 0.76874 0.1328 0.6041 0.0
C450 C 0.39261 0.36151 0.17422 0.0
C451 C 0.36852 0.33077 0.18179 0.0
H452 H 0.43497 0.38435 0.13722 0.0
C453 C 0.36892 0.29898 0.15678 0.0
H454 H 0.39279 0.38648 0.19293 0.0
C455 C 0.39316 0.29761 0.12539 0.0
C456 C 0.41742 0.32817 0.11781 0.0
H457 H 0.35102 0.27468 0.16208 0.0
H458 H 0.39286 0.2724 0.10703 0.0
C459 C 0.41664 0.36037 0.14228 0.0
C460 C 0.90785 0.64028 0.72832 0.0
C461 C 0.89069 0.646 0.76516 0.0
H462 H 0.94172 0.60475 0.69492 0.0
C463 C 0.89159 0.61731 0.79514 0.0
H464 H 0.90771 0.66188 0.70462 0.0
C465 C 0.91114 0.58499 0.78972 0.0
C466 C 0.9301 0.58023 0.754 0.0
H467 H 0.87793 0.62028 0.82343 0.0
H468 H 0.91222 0.56416 0.81416 0.0
C469 C 0.92735 0.6076 0.72274 0.0
C470 C 0.88793 0.39671 0.22374 0.0
C471 C 0.8861 0.37766 0.1866 0.0
H472 H 0.91215 0.44181 0.25854 0.0
C473 C 0.90757 0.39143 0.15474 0.0
H474 H 0.87211 0.38662 0.24904 0.0
C475 C 0.93064 0.42329 0.16015 0.0
C476 C 0.93298 0.44177 0.19766 0.0
H477 H 0.90654 0.37754 0.12563 0.0
H478 H 0.94708 0.43296 0.13521 0.0
C479 C 0.91113 0.42825 0.22924 0.0
C480 C 0.12006 0.40259 0.68417 0.0
C481 C 0.13635 0.38319 0.71708 0.0
H482 H 0.07846 0.43946 0.66416 0.0
C483 C 0.12098 0.38499 0.75541 0.0
H484 H 0.1309 0.40146 0.65409 0.0
C485 C 0.09096 0.40646 0.76105 0.0
C486 C 0.07534 0.42689 0.72856 0.0
H487 H 0.13294 0.37096 0.78159 0.0
H488 H 0.08057 0.40778 0.79135 0.0
C489 C 0.08983 0.42415 0.68984 0.0
C490 C 0.1229 0.64635 0.25311 0.0
C491 C 0.14063 0.65709 0.21741 0.0
H492 H 0.08052 0.61381 0.28022 0.0
C493 C 0.12677 0.64311 0.1801 0.0
H494 H 0.13301 0.65569 0.28253 0.0
C495 C 0.09655 0.61827 0.17882 0.0
C496 C 0.07952 0.60696 0.2148 0.0
H497 H 0.13946 0.65106 0.15191 0.0
H498 H 0.08698 0.6074 0.14979 0.0
C499 C 0.09279 0.62187 0.25181 0.0
C500 C 0.84499 0.93018 0.64617 0.0
C501 C 0.81532 0.9085 0.66015 0.0
H502 H 0.86394 0.97358 0.6048 0.0
C503 C 0.78166 0.91345 0.64132 0.0
H504 H 0.87125 0.92716 0.66024 0.0
C505 C 0.77745 0.94007 0.61012 0.0
C506 C 0.80683 0.96238 0.59661 0.0
H507 H 0.7584 0.89667 0.6507 0.0
H508 H 0.75097 0.94311 0.59661 0.0
C509 C 0.84078 0.9569 0.61462 0.0
C510 C 0.6225 0.28458 0.12276 0.0
C511 C 0.63756 0.24877 0.12413 0.0
H512 H 0.57781 0.31741 0.10524 0.0
C513 C 0.61669 0.21722 0.11047 0.0
H514 H 0.63762 0.3093 0.13371 0.0
C515 C 0.58209 0.2218 0.09398 0.0
C516 C 0.56768 0.25799 0.0911 0.0
H517 H 0.62763 0.18925 0.11105 0.0
H518 H 0.56719 0.19727 0.08226 0.0
C519 C 0.58805 0.28911 0.1066 0.0
C520 C 0.31712 0.14842 0.60132 0.0
C521 C 0.28584 0.15874 0.62064 0.0
H522 H 0.34171 0.10803 0.56388 0.0
C523 C 0.25557 0.13404 0.61873 0.0
H524 H 0.34108 0.16661 0.60274 0.0
C525 C 0.25607 0.10056 0.59694 0.0
C526 C 0.28683 0.09082 0.57638 0.0
H527 H 0.23094 0.14118 0.63288 0.0
H528 H 0.23183 0.08281 0.5953 0.0
C529 C 0.31765 0.11469 0.57946 0.0
C530 C 0.40682 0.79068 0.10008 0.0
C531 C 0.3853 0.75732 0.10417 0.0
H532 H 0.45078 0.81857 0.06953 0.0
C533 C 0.38945 0.72773 0.07692 0.0
H534 H 0.40426 0.81395 0.12071 0.0
C535 C 0.416 0.73028 0.04809 0.0
C536 C 0.43897 0.76259 0.04549 0.0
H537 H 0.37272 0.70206 0.07859 0.0
H538 H 0.41915 0.70633 0.0285 0.0
C539 C 0.43345 0.79334 0.07086 0.0
C540 C 0.8289 0.14635 0.36582 0.0
C541 C 0.80036 0.14422 0.33722 0.0
H542 H 0.84973 0.12701 0.42361 0.0
C543 C 0.76986 0.12156 0.34599 0.0
H544 H 0.85272 0.16364 0.35962 0.0
C545 C 0.76785 0.10131 0.38258 0.0
C546 C 0.79658 0.1027 0.411 0.0
H547 H 0.7474 0.1197 0.32455 0.0
H548 H 0.74394 0.08398 0.38825 0.0
C549 C 0.82722 0.12537 0.40226 0.0
C550 C 0.36314 0.31458 0.8977 0.0
C551 C 0.35419 0.28226 0.87472 0.0
H552 H 0.39355 0.33816 0.94751 0.0
C553 C 0.36768 0.24721 0.88761 0.0
H554 H 0.35362 0.34208 0.88852 0.0
C555 C 0.39096 0.24495 0.92153 0.0
C556 C 0.40129 0.27772 0.94316 0.0
H557 H 0.3609 0.22165 0.87089 0.0
H558 H 0.40187 0.21784 0.92984 0.0
C559 C 0.38636 0.31234 0.93144 0.0
C560 C 0.32297 0.88863 0.3737 0.0
C561 C 0.29145 0.87304 0.35525 0.0
H562 H 0.34597 0.92865 0.41631 0.0
C563 C 0.25844 0.88745 0.36544 0.0
H564 H 0.34888 0.87837 0.3662 0.0
C565 C 0.25681 0.91612 0.39384 0.0
C566 C 0.28815 0.93124 0.41296 0.0
H567 H 0.2336 0.87577 0.35239 0.0
H568 H 0.23072 0.92598 0.40123 0.0
C569 C 0.32135 0.91754 0.40223 0.0
C570 C 0.66184 0.81339 0.89182 0.0
C571 C 0.67862 0.78167 0.87665 0.0
H572 H 0.61655 0.83415 0.92212 0.0
C573 C 0.66094 0.74597 0.87953 0.0
H574 H 0.67452 0.84139 0.88959 0.0
C575 C 0.62778 0.74189 0.8979 0.0
C576 C 0.61131 0.77339 0.91389 0.0
H577 H 0.67319 0.72089 0.86862 0.0
H578 H 0.61537 0.71375 0.90019 0.0
C579 C 0.62849 0.80931 0.91018 0.0
loop_
_geom_bond_atom_site_label_1
_geom_bond_atom_site_label_2
_geom_bond_distance
_geom_bond_site_symmetry_2
_ccdc_geom_bond_type
P0 O11 1.490 . S
P0 C14 1.812 . S
P0 C20 1.803 . S
P0 C26 1.819 . S
H1 C15 0.941 . S
H2 C16 0.939 . S
H3 C18 0.940 . S
H4 C19 0.940 . S
H5 C21 0.939 . S
H6 C22 0.942 . S
H7 C24 0.940 . S
H8 C25 0.939 . S
H9 C27 0.941 . S
H10 C31 0.939 . S
O11 P0 1.490 . S
H12 C28 0.939 . S
H13 C30 0.940 . S
C14 P0 1.812 . S
C14 C15 1.389 . S
C14 C19 1.391 . S
C15 H1 0.941 . S
C15 C14 1.389 . S
C15 C16 1.397 . S
C16 H2 0.939 . S
C16 C15 1.397 . S
C16 C17 1.378 . S
C17 C16 1.378 . S
C17 C18 1.378 . S
C18 H3 0.940 . S
C18 C17 1.378 . S
C18 C19 1.396 . S
C19 H4 0.940 . S
C19 C14 1.391 . S
C19 C18 1.396 . S
C20 P0 1.803 . S
C20 C21 1.378 . S
C20 C25 1.400 . S
C21 H5 0.939 . S
C21 C20 1.378 . S
C21 C22 1.361 . S
C22 H6 0.942 . S
C22 C21 1.361 . S
C22 C23 1.369 . S
C23 C22 1.369 . S
C23 C24 1.404 . S
C24 H7 0.940 . S
C24 C23 1.404 . S
C24 C25 1.389 . S
C25 H8 0.939 . S
C25 C20 1.400 . S
C25 C24 1.389 . S
C26 P0 1.819 . S
C26 C27 1.391 . S
C26 C31 1.391 . S
C27 H9 0.941 . S
C27 C26 1.391 . S
C27 C28 1.396 . S
C28 H12 0.939 . S
C28 C27 1.396 . S
C28 C29 1.397 . S
C29 C28 1.397 . S
C29 C30 1.385 . S
C30 H13 0.940 . S
C30 C29 1.385 . S
C30 C31 1.388 . S
C31 H10 0.939 . S
C31 C26 1.391 . S
C31 C30 1.388 . S
P32 O43 1.490 . S
P32 C46 1.812 . S
P32 C52 1.803 . S
P32 C58 1.819 . S
H33 C47 0.941 . S
H34 C48 0.939 . S
H35 C50 0.940 . S
H36 C51 0.940 . S
H37 C53 0.939 . S
H38 C54 0.942 . S
H39 C56 0.940 . S
H40 C57 0.939 . S
H41 C59 0.941 . S
H42 C63 0.939 . S
O43 P32 1.490 . S
H44 C60 0.939 . S
H45 C62 0.940 . S
C46 P32 1.812 . S
C46 C47 1.389 . S
C46 C51 1.391 . S
C47 H33 0.941 . S
C47 C46 1.389 . S
C47 C48 1.397 . S
C48 H34 0.939 . S
C48 C47 1.397 . S
C48 C49 1.378 . S
C49 C48 1.378 . S
C49 C50 1.378 . S
C50 H35 0.940 . S
C50 C49 1.378 . S
C50 C51 1.396 . S
C51 H36 0.940 . S
C51 C46 1.391 . S
C51 C50 1.396 . S
C52 P32 1.803 . S
C52 C53 1.378 . S
C52 C57 1.400 . S
C53 H37 0.939 . S
C53 C52 1.378 . S
C53 C54 1.361 . S
C54 H38 0.942 . S
C54 C53 1.361 . S
C54 C55 1.369 . S
C55 C54 1.369 . S
C55 C56 1.404 . S
C56 H39 0.940 . S
C56 C55 1.404 . S
C56 C57 1.389 . S
C57 H40 0.939 . S
C57 C52 1.400 . S
C57 C56 1.389 . S
C58 P32 1.819 . S
C58 C59 1.391 . S
C58 C63 1.391 . S
C59 H41 0.941 . S
C59 C58 1.391 . S
C59 C60 1.396 . S
C60 H44 0.939 . S
C60 C59 1.396 . S
C60 C61 1.397 . S
C61 C60 1.397 . S
C61 C62 1.385 . S
C62 H45 0.940 . S
C62 C61 1.385 . S
C62 C63 1.388 . S
C63 H42 0.939 . S
C63 C58 1.391 . S
C63 C62 1.388 . S
P64 O75 1.490 . S
P64 C78 1.812 . S
P64 C84 1.803 . S
P64 C90 1.819 . S
H65 C79 0.941 . S
H66 C80 0.939 . S
H67 C82 0.940 . S
H68 C83 0.940 . S
H69 C85 0.939 . S
H70 C86 0.942 . S
H71 C88 0.940 . S
H72 C89 0.939 . S
H73 C91 0.941 . S
H74 C95 0.939 . S
O75 P64 1.490 . S
H76 C92 0.939 . S
H77 C94 0.940 . S
C78 P64 1.812 . S
C78 C79 1.389 . S
C78 C83 1.391 . S
C79 H65 0.941 . S
C79 C78 1.389 . S
C79 C80 1.397 . S
C80 H66 0.939 . S
C80 C79 1.397 . S
C80 C81 1.378 . S
C81 C80 1.378 . S
C81 C82 1.378 . S
C82 H67 0.940 . S
C82 C81 1.378 . S
C82 C83 1.396 . S
C83 H68 0.940 . S
C83 C78 1.391 . S
C83 C82 1.396 . S
C84 P64 1.803 . S
C84 C85 1.378 . S
C84 C89 1.400 . S
C85 H69 0.939 . S
C85 C84 1.378 . S
C85 C86 1.361 . S
C86 H70 0.942 . S
C86 C85 1.361 . S
C86 C87 1.369 . S
C87 C86 1.369 . S
C87 C88 1.404 . S
C88 H71 0.940 . S
C88 C87 1.404 . S
C88 C89 1.389 . S
C89 H72 0.939 . S
C89 C84 1.400 . S
C89 C88 1.389 . S
C90 P64 1.819 . S
C90 C91 1.391 . S
C90 C95 1.391 . S
C91 H73 0.941 . S
C91 C90 1.391 . S
C91 C92 1.396 . S
C92 H76 0.939 . S
C92 C91 1.396 . S
C92 C93 1.397 . S
C93 C92 1.397 . S
C93 C94 1.385 . S
C94 H77 0.940 . S
C94 C93 1.385 . S
C94 C95 1.388 . S
C95 H74 0.939 . S
C95 C90 1.391 . S
C95 C94 1.388 . S
P96 O107 1.490 . S
P96 C110 1.812 . S
P96 C116 1.803 . S
P96 C122 1.819 . S
H97 C111 0.941 . S
H98 C112 0.939 . S
H99 C114 0.940 . S
H100 C115 0.940 . S
H101 C117 0.939 . S
H102 C118 0.942 . S
H103 C120 0.940 . S
H104 C121 0.939 . S
H105 C123 0.941 . S
H106 C127 0.939 . S
O107 P96 1.490 . S
H108 C124 0.939 . S
H109 C126 0.940 . S
C110 P96 1.812 . S
C110 C111 1.389 . S
C110 C115 1.391 . S
C111 H97 0.941 . S
C111 C110 1.389 . S
C111 C112 1.397 . S
C112 H98 0.939 . S
C112 C111 1.397 . S
C112 C113 1.378 . S
C113 C112 1.378 . S
C113 C114 1.378 . S
C114 H99 0.940 . S
C114 C113 1.378 . S
C114 C115 1.396 . S
C115 H100 0.940 . S
C115 C110 1.391 . S
C115 C114 1.396 . S
C116 P96 1.803 . S
C116 C117 1.378 . S
C116 C121 1.400 . S
C117 H101 0.939 . S
C117 C116 1.378 . S
C117 C118 1.361 . S
C118 H102 0.942 . S
C118 C117 1.361 . S
C118 C119 1.369 . S
C119 C118 1.369 . S
C119 C120 1.404 . S
C120 H103 0.940 . S
C120 C119 1.404 . S
C120 C121 1.389 . S
C121 H104 0.939 . S
C121 C116 1.400 . S
C121 C120 1.389 . S
C122 P96 1.819 . S
C122 C123 1.391 . S
C122 C127 1.391 . S
C123 H105 0.941 . S
C123 C122 1.391 . S
C123 C124 1.396 . S
C124 H108 0.939 . S
C124 C123 1.396 . S
C124 C125 1.397 . S
C125 C124 1.397 . S
C125 C126 1.385 . S
C126 H109 0.940 . S
C126 C125 1.385 . S
C126 C127 1.388 . S
C127 H106 0.939 . S
C127 C122 1.391 . S
C127 C126 1.388 . S
P128 O139 1.490 . S
P128 C142 1.812 . S
P128 C148 1.803 . S
P128 C154 1.819 . S
H129 C143 0.941 . S
H130 C144 0.939 . S
H131 C146 0.940 . S
H132 C147 0.940 . S
H133 C149 0.939 . S
H134 C150 0.942 . S
H135 C152 0.940 . S
H136 C153 0.939 . S
H137 C155 0.941 . S
H138 C159 0.939 . S
O139 P128 1.490 . S
H140 C156 0.939 . S
H141 C158 0.940 . S
C142 P128 1.812 . S
C142 C143 1.389 . S
C142 C147 1.391 . S
C143 H129 0.941 . S
C143 C142 1.389 . S
C143 C144 1.397 . S
C144 H130 0.939 . S
C144 C143 1.397 . S
C144 C145 1.378 . S
C145 C144 1.378 . S
C145 C146 1.378 . S
C146 H131 0.940 . S
C146 C145 1.378 . S
C146 C147 1.396 . S
C147 H132 0.940 . S
C147 C142 1.391 . S
C147 C146 1.396 . S
C148 P128 1.803 . S
C148 C149 1.378 . S
C148 C153 1.400 . S
C149 H133 0.939 . S
C149 C148 1.378 . S
C149 C150 1.361 . S
C150 H134 0.942 . S
C150 C149 1.361 . S
C150 C151 1.369 . S
C151 C150 1.369 . S
C151 C152 1.404 . S
C152 H135 0.940 . S
C152 C151 1.404 . S
C152 C153 1.389 . S
C153 H136 0.939 . S
C153 C148 1.400 . S
C153 C152 1.389 . S
C154 P128 1.819 . S
C154 C155 1.391 . S
C154 C159 1.391 . S
C155 H137 0.941 . S
C155 C154 1.391 . S
C155 C156 1.396 . S
C156 H140 0.939 . S
C156 C155 1.396 . S
C156 C157 1.397 . S
C157 C156 1.397 . S
C157 C158 1.385 . S
C158 H141 0.940 . S
C158 C157 1.385 . S
C158 C159 1.388 . S
C159 H138 0.939 . S
C159 C154 1.391 . S
C159 C158 1.388 . S
P160 O171 1.490 . S
P160 C174 1.812 . S
P160 C180 1.803 . S
P160 C186 1.819 . S
H161 C175 0.941 . S
H162 C176 0.939 . S
H163 C178 0.940 . S
H164 C179 0.940 . S
H165 C181 0.939 . S
H166 C182 0.942 . S
H167 C184 0.940 . S
H168 C185 0.939 . S
H169 C187 0.941 . S
H170 C191 0.939 . S
O171 P160 1.490 . S
H172 C188 0.939 . S
H173 C190 0.940 . S
C174 P160 1.812 . S
C174 C175 1.389 . S
C174 C179 1.391 . S
C175 H161 0.941 . S
C175 C174 1.389 . S
C175 C176 1.397 . S
C176 H162 0.939 . S
C176 C175 1.397 . S
C176 C177 1.378 . S
C177 C176 1.378 . S
C177 C178 1.378 . S
C178 H163 0.940 . S
C178 C177 1.378 . S
C178 C179 1.396 . S
C179 H164 0.940 . S
C179 C174 1.391 . S
C179 C178 1.396 . S
C180 P160 1.803 . S
C180 C181 1.378 . S
C180 C185 1.400 . S
C181 H165 0.939 . S
C181 C180 1.378 . S
C181 C182 1.361 . S
C182 H166 0.942 . S
C182 C181 1.361 . S
C182 C183 1.369 . S
C183 C182 1.369 . S
C183 C184 1.404 . S
C184 H167 0.940 . S
C184 C183 1.404 . S
C184 C185 1.389 . S
C185 H168 0.939 . S
C185 C180 1.400 . S
C185 C184 1.389 . S
C186 P160 1.819 . S
C186 C187 1.391 . S
C186 C191 1.391 . S
C187 H169 0.941 . S
C187 C186 1.391 . S
C187 C188 1.396 . S
C188 H172 0.939 . S
C188 C187 1.396 . S
C188 C189 1.397 . S
C189 C188 1.397 . S
C189 C190 1.385 . S
C190 H173 0.940 . S
C190 C189 1.385 . S
C190 C191 1.388 . S
C191 H170 0.939 . S
C191 C186 1.391 . S
C191 C190 1.388 . S
P192 O203 1.490 . S
P192 C206 1.812 . S
P192 C212 1.803 . S
P192 C218 1.819 . S
H193 C207 0.941 . S
H194 C208 0.939 . S
H195 C210 0.940 . S
H196 C211 0.940 . S
H197 C213 0.939 . S
H198 C214 0.942 . S
H199 C216 0.940 . S
H200 C217 0.939 . S
H201 C219 0.941 . S
H202 C223 0.939 . S
O203 P192 1.490 . S
H204 C220 0.939 . S
H205 C222 0.940 . S
C206 P192 1.812 . S
C206 C207 1.389 . S
C206 C211 1.391 . S
C207 H193 0.941 . S
C207 C206 1.389 . S
C207 C208 1.397 . S
C208 H194 0.939 . S
C208 C207 1.397 . S
C208 C209 1.378 . S
C209 C208 1.378 . S
C209 C210 1.378 . S
C210 H195 0.940 . S
C210 C209 1.378 . S
C210 C211 1.396 . S
C211 H196 0.940 . S
C211 C206 1.391 . S
C211 C210 1.396 . S
C212 P192 1.803 . S
C212 C213 1.378 . S
C212 C217 1.400 . S
C213 H197 0.939 . S
C213 C212 1.378 . S
C213 C214 1.361 . S
C214 H198 0.942 . S
C214 C213 1.361 . S
C214 C215 1.369 . S
C215 C214 1.369 . S
C215 C216 1.404 . S
C216 H199 0.940 . S
C216 C215 1.404 . S
C216 C217 1.389 . S
C217 H200 0.939 . S
C217 C212 1.400 . S
C217 C216 1.389 . S
C218 P192 1.819 . S
C218 C219 1.391 . S
C218 C223 1.391 . S
C219 H201 0.941 . S
C219 C218 1.391 . S
C219 C220 1.396 . S
C220 H204 0.939 . S
C220 C219 1.396 . S
C220 C221 1.397 . S
C221 C220 1.397 . S
C221 C222 1.385 . S
C222 H205 0.940 . S
C222 C221 1.385 . S
C222 C223 1.388 . S
C223 H202 0.939 . S
C223 C218 1.391 . S
C223 C222 1.388 . S
P224 O235 1.490 . S
P224 C238 1.812 . S
P224 C244 1.803 . S
P224 C250 1.819 . S
H225 C239 0.941 . S
H226 C240 0.939 . S
H227 C242 0.940 . S
H228 C243 0.940 . S
H229 C245 0.939 . S
H230 C246 0.942 . S
H231 C248 0.940 . S
H232 C249 0.939 . S
H233 C251 0.941 . S
H234 C255 0.939 . S
O235 P224 1.490 . S
H236 C252 0.939 . S
H237 C254 0.940 . S
C238 P224 1.812 . S
C238 C239 1.389 . S
C238 C243 1.391 . S
C239 H225 0.941 . S
C239 C238 1.389 . S
C239 C240 1.397 . S
C240 H226 0.939 . S
C240 C239 1.397 . S
C240 C241 1.378 . S
C241 C240 1.378 . S
C241 C242 1.378 . S
C242 H227 0.940 . S
C242 C241 1.378 . S
C242 C243 1.396 . S
C243 H228 0.940 . S
C243 C238 1.391 . S
C243 C242 1.396 . S
C244 P224 1.803 . S
C244 C245 1.378 . S
C244 C249 1.400 . S
C245 H229 0.939 . S
C245 C244 1.378 . S
C245 C246 1.361 . S
C246 H230 0.942 . S
C246 C245 1.361 . S
C246 C247 1.369 . S
C247 C246 1.369 . S
C247 C248 1.404 . S
C248 H231 0.940 . S
C248 C247 1.404 . S
C248 C249 1.389 . S
C249 H232 0.939 . S
C249 C244 1.400 . S
C249 C248 1.389 . S
C250 P224 1.819 . S
C250 C251 1.391 . S
C250 C255 1.391 . S
C251 H233 0.941 . S
C251 C250 1.391 . S
C251 C252 1.396 . S
C252 H236 0.939 . S
C252 C251 1.396 . S
C252 C253 1.397 . S
C253 C252 1.397 . S
C253 C254 1.385 . S
C254 H237 0.940 . S
C254 C253 1.385 . S
C254 C255 1.388 . S
C255 H234 0.939 . S
C255 C250 1.391 . S
C255 C254 1.388 . S
C256 O258 1.247 . S
C256 O260 1.258 . S
C257 O264 1.247 . S
C257 O265 1.258 . S
O258 C256 1.247 . S
O258 Zn259 2.028 1_655 S
Zn259 O258 2.028 1_455 S
Zn259 O263 2.035 . S
Zn259 O265 2.035 . S
Zn259 O266 2.028 1_455 S
O260 C256 1.258 . S
O260 Zn261 2.035 1_655 S
Zn261 O260 2.035 1_455 S
Zn261 O262 2.028 . S
Zn261 O264 2.028 . S
Zn261 O267 2.035 1_455 S
O262 Zn261 2.028 . S
O262 C268 1.247 . S
O263 Zn259 2.035 . S
O263 C268 1.258 . S
O264 C257 1.247 . S
O264 Zn261 2.028 . S
O265 C257 1.258 . S
O265 Zn259 2.035 . S
O266 Zn259 2.028 1_655 S
O266 C269 1.247 . S
O267 Zn261 2.035 1_655 S
O267 C269 1.258 . S
C268 O262 1.247 . S
C268 O263 1.258 . S
C269 O266 1.247 . S
C269 O267 1.258 . S
C270 O272 1.247 . S
C270 O274 1.258 . S
C271 O278 1.247 . S
C271 O279 1.258 . S
O272 C270 1.247 . S
O272 Zn273 2.028 1_655 S
Zn273 O272 2.028 1_455 S
Zn273 O277 2.035 . S
Zn273 O279 2.035 . S
Zn273 O280 2.028 1_455 S
O274 C270 1.258 . S
O274 Zn275 2.035 . S
Zn275 O274 2.035 . S
Zn275 O276 2.028 1_655 S
Zn275 O278 2.028 1_655 S
Zn275 O281 2.035 . S
O276 Zn275 2.028 1_455 S
O276 C282 1.247 . S
O277 Zn273 2.035 . S
O277 C282 1.258 . S
O278 C271 1.247 . S
O278 Zn275 2.028 1_455 S
O279 C271 1.258 . S
O279 Zn273 2.035 . S
O280 Zn273 2.028 1_655 S
O280 C283 1.247 . S
O281 Zn275 2.035 . S
O281 C283 1.258 . S
C282 O276 1.247 . S
C282 O277 1.258 . S
C283 O280 1.247 . S
C283 O281 1.258 . S
C284 O286 1.247 . S
C284 O288 1.258 . S
C285 O292 1.247 . S
C285 O293 1.258 . S
O286 C284 1.247 . S
O286 Zn287 2.028 1_565 S
Zn287 O286 2.028 1_545 S
Zn287 O291 2.035 . S
Zn287 O293 2.035 . S
Zn287 O294 2.028 1_545 S
O288 C284 1.258 . S
O288 Zn289 2.035 1_565 S
Zn289 O288 2.035 1_545 S
Zn289 O290 2.028 . S
Zn289 O292 2.028 . S
Zn289 O295 2.035 1_545 S
O290 Zn289 2.028 . S
O290 C296 1.247 . S
O291 Zn287 2.035 . S
O291 C296 1.258 . S
O292 C285 1.247 . S
O292 Zn289 2.028 . S
O293 C285 1.258 . S
O293 Zn287 2.035 . S
O294 Zn287 2.028 1_565 S
O294 C297 1.247 . S
O295 Zn289 2.035 1_565 S
O295 C297 1.258 . S
C296 O290 1.247 . S
C296 O291 1.258 . S
C297 O294 1.247 . S
C297 O295 1.258 . S
C298 O300 1.247 . S
C298 O302 1.258 . S
C299 O306 1.247 . S
C299 O307 1.258 . S
O300 C298 1.247 . S
O300 Zn301 2.028 . S
Zn301 O300 2.028 . S
Zn301 O305 2.035 . S
Zn301 O307 2.035 1_554 S
Zn301 O308 2.028 1_554 S
O302 C298 1.258 . S
O302 Zn303 2.052 . S
Zn303 O302 2.052 . S
Zn303 O304 2.045 . S
Zn303 O306 2.011 1_554 S
Zn303 O309 2.018 1_554 S
O304 Zn303 2.045 . S
O304 C310 1.247 . S
O305 Zn301 2.035 . S
O305 C310 1.258 . S
O306 C299 1.247 . S
O306 Zn303 2.011 1_556 S
O307 C299 1.258 . S
O307 Zn301 2.035 1_556 S
O308 Zn301 2.028 1_556 S
O308 C311 1.247 . S
O309 Zn303 2.018 1_556 S
O309 C311 1.258 . S
C310 O304 1.247 . S
C310 O305 1.258 . S
C311 O308 1.247 . S
C311 O309 1.258 . S
C312 O314 1.247 . S
C312 O316 1.258 . S
C313 O320 1.247 . S
C313 O321 1.258 . S
O314 C312 1.247 . S
O314 Zn315 2.014 1_565 S
Zn315 O314 2.014 1_545 S
Zn315 O319 2.049 . S
Zn315 O321 2.049 . S
Zn315 O322 2.014 1_545 S
O316 C312 1.258 . S
O316 Zn317 2.035 1_565 S
Zn317 O316 2.035 1_545 S
Zn317 O318 2.028 . S
Zn317 O320 2.028 . S
Zn317 O323 2.035 1_545 S
O318 Zn317 2.028 . S
O318 C324 1.247 . S
O319 Zn315 2.049 . S
O319 C324 1.258 . S
O320 C313 1.247 . S
O320 Zn317 2.028 . S
O321 C313 1.258 . S
O321 Zn315 2.049 . S
O322 Zn315 2.014 1_565 S
O322 C325 1.247 . S
O323 Zn317 2.035 1_565 S
O323 C325 1.258 . S
C324 O318 1.247 . S
C324 O319 1.258 . S
C325 O322 1.247 . S
C325 O323 1.258 . S
C326 O328 1.247 . S
C326 O330 1.258 . S
C327 O334 1.247 . S
C327 O335 1.258 . S
O328 C326 1.247 . S
O328 Zn329 2.028 . S
Zn329 O328 2.028 . S
Zn329 O333 2.035 . S
Zn329 O335 2.035 1_554 S
Zn329 O336 2.028 1_554 S
O330 C326 1.258 . S
O330 Zn331 2.029 1_554 S
Zn331 O330 2.029 1_556 S
Zn331 O332 2.021 1_556 S
Zn331 O334 2.034 . S
Zn331 O337 2.042 . S
O332 Zn331 2.021 1_554 S
O332 C338 1.247 . S
O333 Zn329 2.035 . S
O333 C338 1.258 . S
O334 C327 1.247 . S
O334 Zn331 2.034 . S
O335 C327 1.258 . S
O335 Zn329 2.035 1_556 S
O336 Zn329 2.028 1_556 S
O336 C339 1.247 . S
O337 Zn331 2.042 . S
O337 C339 1.258 . S
C338 O332 1.247 . S
C338 O333 1.258 . S
C339 O336 1.247 . S
C339 O337 1.258 . S
C340 C341 1.387 . S
C340 H344 0.950 . S
C340 C349 1.390 . S
C341 C340 1.387 . S
C341 C343 1.387 . S
H342 C349 0.950 . S
C343 C341 1.387 . S
C343 C345 1.390 . S
C343 H347 0.950 . S
H344 C340 0.950 . S
C345 C343 1.390 . S
C345 C346 1.387 . S
C345 H348 0.950 . S
C346 C345 1.387 . S
C346 C349 1.387 . S
H347 C343 0.950 . S
H348 C345 0.950 . S
C349 C340 1.390 . S
C349 H342 0.950 . S
C349 C346 1.387 . S
C350 C351 1.387 . S
C350 H354 0.950 . S
C350 C359 1.390 . S
C351 C350 1.387 . S
C351 C353 1.387 . S
H352 C359 0.950 . S
C353 C351 1.387 . S
C353 C355 1.390 . S
C353 H357 0.950 . S
H354 C350 0.950 . S
C355 C353 1.390 . S
C355 C356 1.387 . S
C355 H358 0.950 . S
C356 C355 1.387 . S
C356 C359 1.387 . S
H357 C353 0.950 . S
H358 C355 0.950 . S
C359 C350 1.390 . S
C359 H352 0.950 . S
C359 C356 1.387 . S
C360 C361 1.387 . S
C360 H364 0.950 . S
C360 C369 1.390 . S
C361 C360 1.387 . S
C361 C363 1.387 . S
H362 C369 0.950 . S
C363 C361 1.387 . S
C363 C365 1.390 . S
C363 H367 0.950 . S
H364 C360 0.950 . S
C365 C363 1.390 . S
C365 C366 1.387 . S
C365 H368 0.950 . S
C366 C365 1.387 . S
C366 C369 1.387 . S
H367 C363 0.950 . S
H368 C365 0.950 . S
C369 C360 1.390 . S
C369 H362 0.950 . S
C369 C366 1.387 . S
C370 C371 1.387 . S
C370 H374 0.950 . S
C370 C379 1.390 . S
C371 C370 1.387 . S
C371 C373 1.387 . S
H372 C379 0.950 . S
C373 C371 1.387 . S
C373 C375 1.390 . S
C373 H377 0.950 . S
H374 C370 0.950 . S
C375 C373 1.390 . S
C375 C376 1.387 . S
C375 H378 0.950 . S
C376 C375 1.387 . S
C376 C379 1.387 . S
H377 C373 0.950 . S
H378 C375 0.950 . S
C379 C370 1.390 . S
C379 H372 0.950 . S
C379 C376 1.387 . S
C380 C381 1.387 . S
C380 H384 0.950 . S
C380 C389 1.390 . S
C381 C380 1.387 . S
C381 C383 1.387 . S
H382 C389 0.950 . S
C383 C381 1.387 . S
C383 C385 1.390 . S
C383 H387 0.950 . S
H384 C380 0.950 . S
C385 C383 1.390 . S
C385 C386 1.387 . S
C385 H388 0.950 . S
C386 C385 1.387 . S
C386 C389 1.387 . S
H387 C383 0.950 . S
H388 C385 0.950 . S
C389 C380 1.390 . S
C389 H382 0.950 . S
C389 C386 1.387 . S
C390 C391 1.387 . S
C390 H394 0.950 . S
C390 C399 1.390 . S
C391 C390 1.387 . S
C391 C393 1.387 . S
H392 C399 0.950 . S
C393 C391 1.387 . S
C393 C395 1.390 . S
C393 H397 0.950 . S
H394 C390 0.950 . S
C395 C393 1.390 . S
C395 C396 1.387 . S
C395 H398 0.950 . S
C396 C395 1.387 . S
C396 C399 1.387 . S
H397 C393 0.950 . S
H398 C395 0.950 . S
C399 C390 1.390 . S
C399 H392 0.950 . S
C399 C396 1.387 . S
C400 C401 1.387 . S
C400 H404 0.950 . S
C400 C409 1.390 . S
C401 C400 1.387 . S
C401 C403 1.387 . S
H402 C409 0.950 . S
C403 C401 1.387 . S
C403 C405 1.390 . S
C403 H407 0.950 . S
H404 C400 0.950 . S
C405 C403 1.390 . S
C405 C406 1.387 . S
C405 H408 0.950 . S
C406 C405 1.387 . S
C406 C409 1.387 . S
H407 C403 0.950 . S
H408 C405 0.950 . S
C409 C400 1.390 . S
C409 H402 0.950 . S
C409 C406 1.387 . S
C410 C411 1.387 . S
C410 H414 0.950 . S
C410 C419 1.390 . S
C411 C410 1.387 . S
C411 C413 1.387 . S
H412 C419 0.950 . S
C413 C411 1.387 . S
C413 C415 1.390 . S
C413 H417 0.950 . S
H414 C410 0.950 . S
C415 C413 1.390 . S
C415 C416 1.387 . S
C415 H418 0.950 . S
C416 C415 1.387 . S
C416 C419 1.387 . S
H417 C413 0.950 . S
H418 C415 0.950 . S
C419 C410 1.390 . S
C419 H412 0.950 . S
C419 C416 1.387 . S
C420 C421 1.387 . S
C420 H424 0.950 . S
C420 C429 1.390 . S
C421 C420 1.387 . S
C421 C423 1.387 . S
H422 C429 0.950 . S
C423 C421 1.387 . S
C423 C425 1.390 . S
C423 H427 0.950 . S
H424 C420 0.950 . S
C425 C423 1.390 . S
C425 C426 1.387 . S
C425 H428 0.950 . S
C426 C425 1.387 . S
C426 C429 1.387 . S
H427 C423 0.950 . S
H428 C425 0.950 . S
C429 C420 1.390 . S
C429 H422 0.950 . S
C429 C426 1.387 . S
C430 C431 1.387 . S
C430 H434 0.950 . S
C430 C439 1.390 . S
C431 C430 1.387 . S
C431 C433 1.387 . S
H432 C439 0.950 . S
C433 C431 1.387 . S
C433 C435 1.390 . S
C433 H437 0.950 . S
H434 C430 0.950 . S
C435 C433 1.390 . S
C435 C436 1.387 . S
C435 H438 0.950 . S
C436 C435 1.387 . S
C436 C439 1.387 . S
H437 C433 0.950 . S
H438 C435 0.950 . S
C439 C430 1.390 . S
C439 H432 0.950 . S
C439 C436 1.387 . S
C440 C441 1.387 . S
C440 H444 0.950 . S
C440 C449 1.390 . S
C441 C440 1.387 . S
C441 C443 1.387 . S
H442 C449 0.950 . S
C443 C441 1.387 . S
C443 C445 1.390 . S
C443 H447 0.950 . S
H444 C440 0.950 . S
C445 C443 1.390 . S
C445 C446 1.387 . S
C445 H448 0.950 . S
C446 C445 1.387 . S
C446 C449 1.387 . S
H447 C443 0.950 . S
H448 C445 0.950 . S
C449 C440 1.390 . S
C449 H442 0.950 . S
C449 C446 1.387 . S
C450 C451 1.387 . S
C450 H454 0.950 . S
C450 C459 1.390 . S
C451 C450 1.387 . S
C451 C453 1.387 . S
H452 C459 0.950 . S
C453 C451 1.387 . S
C453 C455 1.390 . S
C453 H457 0.950 . S
H454 C450 0.950 . S
C455 C453 1.390 . S
C455 C456 1.387 . S
C455 H458 0.950 . S
C456 C455 1.387 . S
C456 C459 1.387 . S
H457 C453 0.950 . S
H458 C455 0.950 . S
C459 C450 1.390 . S
C459 H452 0.950 . S
C459 C456 1.387 . S
C460 C461 1.387 . S
C460 H464 0.950 . S
C460 C469 1.390 . S
C461 C460 1.387 . S
C461 C463 1.387 . S
H462 C469 0.950 . S
C463 C461 1.387 . S
C463 C465 1.390 . S
C463 H467 0.950 . S
H464 C460 0.950 . S
C465 C463 1.390 . S
C465 C466 1.387 . S
C465 H468 0.950 . S
C466 C465 1.387 . S
C466 C469 1.387 . S
H467 C463 0.950 . S
H468 C465 0.950 . S
C469 C460 1.390 . S
C469 H462 0.950 . S
C469 C466 1.387 . S
C470 C471 1.387 . S
C470 H474 0.950 . S
C470 C479 1.390 . S
C471 C470 1.387 . S
C471 C473 1.387 . S
H472 C479 0.950 . S
C473 C471 1.387 . S
C473 C475 1.390 . S
C473 H477 0.950 . S
H474 C470 0.950 . S
C475 C473 1.390 . S
C475 C476 1.387 . S
C475 H478 0.950 . S
C476 C475 1.387 . S
C476 C479 1.387 . S
H477 C473 0.950 . S
H478 C475 0.950 . S
C479 C470 1.390 . S
C479 H472 0.950 . S
C479 C476 1.387 . S
C480 C481 1.387 . S
C480 H484 0.950 . S
C480 C489 1.390 . S
C481 C480 1.387 . S
C481 C483 1.387 . S
H482 C489 0.950 . S
C483 C481 1.387 . S
C483 C485 1.390 . S
C483 H487 0.950 . S
H484 C480 0.950 . S
C485 C483 1.390 . S
C485 C486 1.387 . S
C485 H488 0.950 . S
C486 C485 1.387 . S
C486 C489 1.387 . S
H487 C483 0.950 . S
H488 C485 0.950 . S
C489 C480 1.390 . S
C489 H482 0.950 . S
C489 C486 1.387 . S
C490 C491 1.387 . S
C490 H494 0.950 . S
C490 C499 1.390 . S
C491 C490 1.387 . S
C491 C493 1.387 . S
H492 C499 0.950 . S
C493 C491 1.387 . S
C493 C495 1.390 . S
C493 H497 0.950 . S
H494 C490 0.950 . S
C495 C493 1.390 . S
C495 C496 1.387 . S
C495 H498 0.950 . S
C496 C495 1.387 . S
C496 C499 1.387 . S
H497 C493 0.950 . S
H498 C495 0.950 . S
C499 C490 1.390 . S
C499 H492 0.950 . S
C499 C496 1.387 . S
C500 C501 1.387 . S
C500 H504 0.950 . S
C500 C509 1.390 . S
C501 C500 1.387 . S
C501 C503 1.387 . S
H502 C509 0.950 . S
C503 C501 1.387 . S
C503 C505 1.390 . S
C503 H507 0.950 . S
H504 C500 0.950 . S
C505 C503 1.390 . S
C505 C506 1.387 . S
C505 H508 0.950 . S
C506 C505 1.387 . S
C506 C509 1.387 . S
H507 C503 0.950 . S
H508 C505 0.950 . S
C509 C500 1.390 . S
C509 H502 0.950 . S
C509 C506 1.387 . S
C510 C511 1.387 . S
C510 H514 0.950 . S
C510 C519 1.390 . S
C511 C510 1.387 . S
C511 C513 1.387 . S
H512 C519 0.950 . S
C513 C511 1.387 . S
C513 C515 1.390 . S
C513 H517 0.950 . S
H514 C510 0.950 . S
C515 C513 1.390 . S
C515 C516 1.387 . S
C515 H518 0.950 . S
C516 C515 1.387 . S
C516 C519 1.387 . S
H517 C513 0.950 . S
H518 C515 0.950 . S
C519 C510 1.390 . S
C519 H512 0.950 . S
C519 C516 1.387 . S
C520 C521 1.387 . S
C520 H524 0.950 . S
C520 C529 1.390 . S
C521 C520 1.387 . S
C521 C523 1.387 . S
H522 C529 0.950 . S
C523 C521 1.387 . S
C523 C525 1.390 . S
C523 H527 0.950 . S
H524 C520 0.950 . S
C525 C523 1.390 . S
C525 C526 1.387 . S
C525 H528 0.950 . S
C526 C525 1.387 . S
C526 C529 1.387 . S
H527 C523 0.950 . S
H528 C525 0.950 . S
C529 C520 1.390 . S
C529 H522 0.950 . S
C529 C526 1.387 . S
C530 C531 1.387 . S
C530 H534 0.950 . S
C530 C539 1.390 . S
C531 C530 1.387 . S
C531 C533 1.387 . S
H532 C539 0.950 . S
C533 C531 1.387 . S
C533 C535 1.390 . S
C533 H537 0.950 . S
H534 C530 0.950 . S
C535 C533 1.390 . S
C535 C536 1.387 . S
C535 H538 0.950 . S
C536 C535 1.387 . S
C536 C539 1.387 . S
H537 C533 0.950 . S
H538 C535 0.950 . S
C539 C530 1.390 . S
C539 H532 0.950 . S
C539 C536 1.387 . S
C540 C541 1.387 . S
C540 H544 0.950 . S
C540 C549 1.390 . S
C541 C540 1.387 . S
C541 C543 1.387 . S
H542 C549 0.950 . S
C543 C541 1.387 . S
C543 C545 1.390 . S
C543 H547 0.950 . S
H544 C540 0.950 . S
C545 C543 1.390 . S
C545 C546 1.387 . S
C545 H548 0.950 . S
C546 C545 1.387 . S
C546 C549 1.387 . S
H547 C543 0.950 . S
H548 C545 0.950 . S
C549 C540 1.390 . S
C549 H542 0.950 . S
C549 C546 1.387 . S
C550 C551 1.387 . S
C550 H554 0.950 . S
C550 C559 1.390 . S
C551 C550 1.387 . S
C551 C553 1.387 . S
H552 C559 0.950 . S
C553 C551 1.387 . S
C553 C555 1.390 . S
C553 H557 0.950 . S
H554 C550 0.950 . S
C555 C553 1.390 . S
C555 C556 1.387 . S
C555 H558 0.950 . S
C556 C555 1.387 . S
C556 C559 1.387 . S
H557 C553 0.950 . S
H558 C555 0.950 . S
C559 C550 1.390 . S
C559 H552 0.950 . S
C559 C556 1.387 . S
C560 C561 1.387 . S
C560 H564 0.950 . S
C560 C569 1.390 . S
C561 C560 1.387 . S
C561 C563 1.387 . S
H562 C569 0.950 . S
C563 C561 1.387 . S
C563 C565 1.390 . S
C563 H567 0.950 . S
H564 C560 0.950 . S
C565 C563 1.390 . S
C565 C566 1.387 . S
C565 H568 0.950 . S
C566 C565 1.387 . S
C566 C569 1.387 . S
H567 C563 0.950 . S
H568 C565 0.950 . S
C569 C560 1.390 . S
C569 H562 0.950 . S
C569 C566 1.387 . S
C570 C571 1.387 . S
C570 H574 0.950 . S
C570 C579 1.390 . S
C571 C570 1.387 . S
C571 C573 1.387 . S
H572 C579 0.950 . S
C573 C571 1.387 . S
C573 C575 1.390 . S
C573 H577 0.950 . S
H574 C570 0.950 . S
C575 C573 1.390 . S
C575 C576 1.387 . S
C575 H578 0.950 . S
C576 C575 1.387 . S
C576 C579 1.387 . S
H577 C573 0.950 . S
H578 C575 0.950 . S
C579 C570 1.390 . S
C579 H572 0.950 . S
C579 C576 1.387 . S
C346 C268 1.513 . S
C341 C23 1.501 . S
C356 C271 1.500 . S
C351 C49 1.487 . S
C366 C269 1.508 . S
C361 C87 1.473 . S
C376 C270 1.511 . S
C371 C125 1.474 . S
C386 C285 1.511 . S
C381 C29 1.490 . S
C396 C299 1.499 . S
C391 C61 1.472 . S
C401 C81 1.472 . S
C406 C325 1.503 . S
C416 C339 1.503 . S
C411 C113 1.485 . S
C426 C284 1.494 . S
C421 C55 1.475 . S
C431 C93 1.476 . S
C436 C298 1.512 . S
C446 C324 1.499 . S
C441 C119 1.471 . S
C456 C338 1.508 . S
C451 C17 1.493 . S
C461 C151 1.474 . S
C466 C283 1.513 . S
C476 C256 1.500 . S
C471 C177 1.472 . S
C481 C215 1.496 . S
C486 C282 1.508 . S
C491 C253 1.488 . S
C496 C257 1.511 . S
C506 C312 1.512 . S
C501 C157 1.466 . S
C516 C326 1.499 . S
C511 C189 1.471 . S
C526 C296 1.503 . S
C521 C209 1.486 . S
C531 C241 1.482 . S
C536 C310 1.502 . S
C546 C313 1.494 . S
C541 C183 1.461 . S
C556 C327 1.513 . S
C551 C221 1.486 . S
C566 C297 1.499 . S
C561 C247 1.476 . S
C571 C145 1.479 . S
C576 C311 1.508 . S
