# Generated by pormake.
# Topology apo, (3,6)-cn, num edge types: 1
# Building blocks:
#     Node 0, Type 0, BuildingBlock: PAMTOO_clean_linker_0, # of connection points: 3
#     Node 1, Type 0, BuildingBlock: PAMTOO_clean_linker_0, # of connection points: 3
#     Node 2, Type 0, BuildingBlock: PAMTOO_clean_linker_0, # of connection points: 3
#     Node 3, Type 0, BuildingBlock: PAMTOO_clean_linker_0, # of connection points: 3
#     Node 4, Type 0, BuildingBlock: PAMTOO_clean_linker_0, # of connection points: 3
#     Node 5, Type 0, BuildingBlock: PAMTOO_clean_linker_0, # of connection points: 3
#     Node 6, Type 0, BuildingBlock: PAMTOO_clean_linker_0, # of connection points: 3
#     Node 7, Type 0, BuildingBlock: PAMTOO_clean_linker_0, # of connection points: 3
#     Node 8, Type 1, BuildingBlock: KUMBUR_clean_sbu_1, # of connection points: 6
#     Node 9, Type 1, BuildingBlock: KUMBUR_clean_sbu_1, # of connection points: 6
#     Node 10, Type 1, BuildingBlock: KUMBUR_clean_sbu_1, # of connection points: 6
#     Node 11, Type 1, BuildingBlock: KUMBUR_clean_sbu_1, # of connection points: 6
#     Edge 12, Type (0, 1), None
#     Edge 13, Type (0, 1), None
#     Edge 14, Type (0, 1), None
#     Edge 15, Type (0, 1), None
#     Edge 16, Type (0, 1), None
#     Edge 17, Type (0, 1), None
#     Edge 18, Type (0, 1), None
#     Edge 19, Type (0, 1), None
#     Edge 20, Type (0, 1), None
#     Edge 21, Type (0, 1), None
#     Edge 22, Type (0, 1), None
#     Edge 23, Type (0, 1), None
#     Edge 24, Type (0, 1), None
#     Edge 25, Type (0, 1), None
#     Edge 26, Type (0, 1), None
#     Edge 27, Type (0, 1), None
#     Edge 28, Type (0, 1), None
#     Edge 29, Type (0, 1), None
#     Edge 30, Type (0, 1), None
#     Edge 31, Type (0, 1), None
#     Edge 32, Type (0, 1), None
#     Edge 33, Type (0, 1), None
#     Edge 34, Type (0, 1), None
#     Edge 35, Type (0, 1), None
# Relax obj value: 0.037
# Max RMSD: 0.294
# Mean RMSD: 0.203
data_MOF--net-apo--node1-KUMBUR_clean_sbu_1--node2-PAMTOO_clean_linker_0--edge1-none
_symmetry_space_group_name_H-M    P1
_symmetry_Int_Tables_number       1
_symmetry_cell_setting            triclinic
loop_
_symmetry_equiv_pos_as_xyz
'x, y, z'
_cell_length_a     12.64367
_cell_length_b     18.637771
_cell_length_c     26.275385
_cell_angle_alpha  89.714305
_cell_angle_beta   89.755893
_cell_angle_gamma 89.073176
loop_
_atom_site_label
_atom_site_type_symbol
_atom_site_fract_x
_atom_site_fract_y
_atom_site_fract_z
_atom_type_partial_charge
H0 H 0.38348 0.49415 0.41741 0.0
H1 H 0.35382 0.33582 0.30108 0.0
H2 H 0.18837 0.30948 0.44216 0.0
H3 H 0.28304 0.17365 0.37567 0.0
C4 C 0.25541 0.19691 0.33892 0.0
O5 O 0.2078 0.26278 0.34737 0.0
H6 H 0.32416 0.20346 0.31281 0.0
C7 C 0.34976 0.44465 0.40378 0.0
C8 C 0.28749 0.40295 0.43625 0.0
C9 C 0.37075 0.42213 0.35432 0.0
C10 C 0.3302 0.35723 0.33735 0.0
C11 C 0.26037 0.3183 0.36777 0.0
C12 C 0.24099 0.34006 0.41806 0.0
H13 H 0.14415 0.98757 0.92873 0.0
H14 H 0.28611 0.19486 0.93928 0.0
H15 H 0.17425 0.12184 0.79522 0.0
H16 H 0.3882 0.18318 0.79298 0.0
C17 C 0.38022 0.22029 0.82572 0.0
O18 O 0.27601 0.2235 0.84195 0.0
H19 H 0.43044 0.20002 0.85726 0.0
C20 C 0.1638 0.0384 0.9112 0.0
C21 C 0.14894 0.04875 0.85839 0.0
C22 C 0.21259 0.09081 0.94094 0.0
C23 C 0.24472 0.15499 0.91744 0.0
C24 C 0.23183 0.16578 0.86496 0.0
C25 C 0.18264 0.11318 0.83577 0.0
H26 H 0.89056 0.98295 0.63589 0.0
H27 H 0.77555 0.11415 0.76032 0.0
H28 H 0.66808 0.15315 0.60758 0.0
H29 H 0.66785 0.2817 0.65646 0.0
C30 C 0.68154 0.26497 0.69659 0.0
O31 O 0.6542 0.19441 0.7021 0.0
H32 H 0.76644 0.27223 0.7063 0.0
C33 C 0.84428 0.02776 0.65046 0.0
C34 C 0.78374 0.06777 0.61575 0.0
C35 C 0.84163 0.04285 0.70325 0.0
C36 C 0.77925 0.1009 0.7203 0.0
C37 C 0.71769 0.14068 0.68552 0.0
C38 C 0.71859 0.12338 0.63369 0.0
H39 H 0.66146 0.45886 0.13266 0.0
H40 H 0.82128 0.25649 0.11236 0.0
H41 H 0.72393 0.32042 0.26173 0.0
H42 H 0.96311 0.27403 0.23791 0.0
C43 C 0.94178 0.22644 0.21505 0.0
O44 O 0.83297 0.22493 0.20911 0.0
H45 H 0.98038 0.23076 0.17715 0.0
C46 C 0.6889 0.40848 0.14886 0.0
C47 C 0.68386 0.39661 0.20188 0.0
C48 C 0.73571 0.35745 0.11639 0.0
C49 C 0.78 0.29432 0.13692 0.0
C50 C 0.77889 0.28221 0.18949 0.0
C51 C 0.7275 0.33196 0.22157 0.0
H52 H 0.64915 0.48769 0.63193 0.0
H53 H 0.85129 0.66968 0.62106 0.0
H54 H 0.71189 0.61589 0.7648 0.0
H55 H 0.72508 0.7732 0.73801 0.0
C56 C 0.80459 0.77118 0.71966 0.0
O57 O 0.84017 0.70141 0.71742 0.0
H58 H 0.79841 0.79411 0.68061 0.0
C59 C 0.68367 0.53417 0.64951 0.0
C60 C 0.6702 0.54673 0.7024 0.0
C61 C 0.74853 0.57799 0.61955 0.0
C62 C 0.79811 0.63621 0.64282 0.0
C63 C 0.78404 0.64965 0.69486 0.0
C64 C 0.7199 0.60543 0.72447 0.0
H65 H 0.85874 -0.00148 0.15224 0.0
H66 H 0.90161 0.82286 0.25646 0.0
H67 H 0.72934 0.79166 0.11775 0.0
H68 H 0.66672 0.76715 0.25489 0.0
C69 C 0.72746 0.7235 0.25077 0.0
O70 O 0.78392 0.73279 0.20609 0.0
H71 H 0.7841 0.72602 0.28284 0.0
C72 C 0.84331 0.94334 0.16296 0.0
C73 C 0.7927 0.89776 0.12879 0.0
C74 C 0.88115 0.91686 0.20923 0.0
C75 C 0.86869 0.84428 0.22145 0.0
C76 C 0.80871 0.79985 0.19002 0.0
C77 C 0.7719 0.82647 0.14312 0.0
H78 H 0.16687 0.96394 0.43051 0.0
H79 H 0.31572 0.75849 0.45524 0.0
H80 H 0.22922 0.8222 0.30409 0.0
H81 H 0.47041 0.72092 0.394 0.0
C82 C 0.43642 0.72141 0.3551 0.0
O83 O 0.32735 0.72421 0.359 0.0
H84 H 0.46389 0.7694 0.33385 0.0
C85 C 0.19383 0.91286 0.41531 0.0
C86 C 0.18883 0.89944 0.36261 0.0
C87 C 0.23801 0.86196 0.4488 0.0
C88 C 0.2779 0.7969 0.42979 0.0
C89 C 0.27724 0.78355 0.37741 0.0
C90 C 0.23083 0.83401 0.34413 0.0
H91 H 0.39209 0.48121 0.92524 0.0
H92 H 0.31286 0.61898 0.79821 0.0
H93 H 0.23671 0.68422 0.95064 0.0
H94 H 0.06928 0.70428 0.88048 0.0
C95 C 0.11242 0.71853 0.84498 0.0
O96 O 0.22017 0.71823 0.85391 0.0
H97 H 0.095 0.67866 0.81493 0.0
C98 C 0.36168 0.53156 0.91005 0.0
C99 C 0.31861 0.58214 0.94389 0.0
C100 C 0.36138 0.54385 0.85725 0.0
C101 C 0.31579 0.60831 0.83862 0.0
C102 C 0.27092 0.65893 0.87224 0.0
C103 C 0.27396 0.64613 0.9249 0.0
Tb104 Tb 0.15546 0.03302 0.21809 0.0
C105 C 0.7113 0.09733 0.33876 0.0
N106 N 0.80229 0.13508 0.34141 0.0
C107 C 0.70199 0.24421 0.35347 0.0
C108 C 0.61176 0.13218 0.34295 0.0
C109 C 0.79915 0.20759 0.34944 0.0
C110 C 0.60798 0.20661 0.34937 0.0
C111 C 0.62463 0.982 0.33741 0.0
C112 C 0.71752 0.02278 0.33535 0.0
C113 C 0.52568 0.01668 0.34102 0.0
C114 C 0.51939 0.09148 0.34327 0.0
Tb115 Tb 0.9524 0.06569 0.34135 0.0
N116 N 0.81458 0.98994 0.33371 0.0
C117 C 0.63387 0.90729 0.33695 0.0
C118 C 0.82411 0.91687 0.33708 0.0
C119 C 0.73378 0.87486 0.33617 0.0
H120 H 0.87158 0.23686 0.35428 0.0
H121 H 0.74071 0.81758 0.33545 0.0
H122 H 0.2929 0.8816 0.23612 0.0
H123 H 0.27813 0.27209 0.12379 0.0
H124 H 0.90166 0.89162 0.33921 0.0
H125 H 0.56435 0.87424 0.33786 0.0
H126 H 0.15052 0.188 0.16177 0.0
H127 H 0.69915 0.30117 0.36087 0.0
H128 H 0.45351 0.98609 0.34248 0.0
H129 H 0.44273 0.11706 0.34688 0.0
H130 H 0.47893 0.84186 0.23936 0.0
H131 H 0.53299 0.23519 0.35304 0.0
H132 H 0.46995 0.25393 0.13831 0.0
N133 N 0.32714 0.99201 0.22675 0.0
C134 C 0.40421 0.04024 0.21714 0.0
C135 C 0.45917 0.89808 0.23386 0.0
C136 C 0.51214 0.01938 0.21609 0.0
C137 C 0.3534 0.92119 0.2336 0.0
C138 C 0.539 0.94741 0.22511 0.0
N139 N 0.26847 0.12207 0.19609 0.0
C140 C 0.23383 0.17996 0.16858 0.0
C141 C 0.44955 0.15562 0.18126 0.0
C142 C 0.37366 0.10764 0.20035 0.0
C143 C 0.41429 0.21666 0.15476 0.0
C144 C 0.30612 0.22695 0.14637 0.0
H145 H 0.62074 0.92903 0.22384 0.0
H146 H 0.67227 0.05509 0.20264 0.0
H147 H 0.61704 0.17425 0.17103 0.0
O148 O 0.09326 0.05349 0.14432 0.0
O149 O 0.20891 0.11314 0.27345 0.0
O150 O 0.08881 0.13716 0.34124 0.0
O151 O 0.19703 0.96406 0.15789 0.0
O152 O 0.01154 0.10358 0.21487 0.0
O153 O 0.96866 0.15862 0.29175 0.0
O154 O 0.96695 0.00253 0.40776 0.0
O155 O 0.89872 0.01183 0.27071 0.0
O156 O 0.04615 0.95168 0.24169 0.0
O157 O 0.91606 0.11304 0.41233 0.0
O158 O 0.10955 0.01562 0.34715 0.0
O159 O 0.15311 0.94799 0.27778 0.0
C160 C 0.17841 0.14658 0.31566 0.0
C161 C 0.22164 0.02653 0.08016 0.0
C162 C 0.24932 0.07283 0.99337 0.0
C163 C 0.35809 0.07689 1.00345 0.0
C164 C 0.33175 0.02723 0.08722 0.0
C165 C 0.39865 0.05372 0.04984 0.0
C166 C 0.18049 0.04799 0.03224 0.0
C167 C 0.9826 0.16038 0.24205 0.0
C168 C 0.15226 0.00399 0.12323 0.0
C169 C 0.58895 0.0697 0.20256 0.0
C170 C 0.55759 0.13772 0.18483 0.0
C171 C 0.94468 0.96292 0.24159 0.0
C172 C 0.85016 0.03436 0.47599 0.0
C173 C 0.77727 0.04402 0.56228 0.0
C174 C 0.69553 -0.00188 0.54877 0.0
C175 C 0.7686 0.98708 0.46406 0.0
C176 C 0.85459 0.06241 0.52576 0.0
C177 C 0.69134 0.9698 0.4999 0.0
C178 C 0.14386 0.95527 0.3277 0.0
C179 C 0.93176 0.05359 0.43758 0.0
H180 H 0.41269 0.09588 0.97476 0.0
H181 H 0.36713 0.00701 0.12171 0.0
H182 H 0.48258 0.05551 0.05687 0.0
H183 H 0.09619 0.0456 1.02531 0.0
H184 H 0.63656 0.98281 0.57661 0.0
H185 H 0.7648 0.96232 0.42749 0.0
H186 H 0.91831 0.09759 0.53621 0.0
H187 H 0.62895 0.93337 0.48997 0.0
Tb188 Tb 0.403 0.40899 0.71545 0.0
C189 C 0.85836 0.42621 0.83001 0.0
N190 N 0.7892 0.37182 0.82421 0.0
C191 C 0.93332 0.28603 0.82244 0.0
C192 C 0.96837 0.412 0.83313 0.0
C193 C 0.82529 0.3024 0.82024 0.0
C194 C 1.00513 0.34099 0.82958 0.0
C195 C 0.88768 0.54938 0.8554 0.0
C196 C 0.81823 0.49413 0.84184 0.0
C197 C 0.99742 0.53646 0.85442 0.0
C198 C 0.03766 0.46804 0.84339 0.0
Tb199 Tb 0.61468 0.40233 0.83583 0.0
N200 N 0.7118 0.50259 0.84797 0.0
C201 C 0.84485 0.61341 0.87471 0.0
C202 C 0.67032 0.56341 0.8697 0.0
C203 C 0.7361 0.61962 0.88305 0.0
H204 H 0.76968 0.25952 0.8159 0.0
H205 H 0.70346 0.66655 0.90163 0.0
H206 H 0.45499 0.57869 0.68746 0.0
H207 H 0.03576 0.26593 0.71318 0.0
H208 H 0.58643 0.56773 0.87735 0.0
H209 H 0.89535 0.6566 0.8864 0.0
H210 H 0.2291 0.27673 0.72063 0.0
H211 H 0.96099 0.23093 0.81949 0.0
H212 H 0.05186 0.57734 0.86582 0.0
H213 H 0.12229 0.4582 0.84542 0.0
H214 H 0.354 0.69218 0.6771 0.0
H215 H 0.08876 0.328 0.83255 0.0
H216 H 0.92215 0.37505 0.70909 0.0
N217 N 0.32115 0.51868 0.71096 0.0
C218 C 0.21379 0.51752 0.71472 0.0
C219 C 0.31403 0.64385 0.68875 0.0
C220 C 0.15308 0.58072 0.70774 0.0
C221 C 0.37117 0.57973 0.69504 0.0
C222 C 0.20471 0.64466 0.69628 0.0
N223 N 0.22545 0.391 0.72212 0.0
C224 C 0.18023 0.32478 0.7205 0.0
C225 C 0.05343 0.44767 0.71532 0.0
C226 C 0.16448 0.45157 0.7192 0.0
C227 C 1.00703 0.38013 0.71289 0.0
C228 C 0.07085 0.31842 0.7153 0.0
H229 H 0.16003 0.69397 0.69043 0.0
H230 H 0.99636 0.62563 0.70285 0.0
H231 H 0.90727 0.50907 0.70943 0.0
O232 O 0.3379 0.35661 0.65187 0.0
O233 O 0.36746 0.32832 0.77494 0.0
O234 O 0.51911 0.30615 0.82487 0.0
O235 O 0.4499 0.44009 0.64174 0.0
O236 O 0.51092 0.31503 0.71991 0.0
O237 O 0.66178 0.34659 0.76587 0.0
O238 O 0.58688 0.43206 0.91247 0.0
O239 O 0.61197 0.497 0.78406 0.0
O240 O 0.56464 0.44348 0.70951 0.0
O241 O 0.66327 0.33213 0.89476 0.0
O242 O 0.44731 0.42942 0.84157 0.0
O243 O 0.39524 0.49452 0.77319 0.0
C244 C 0.42121 0.29224 0.8103 0.0
C245 C 0.32105 0.42807 0.57754 0.0
C246 C 0.26985 0.42852 0.48831 0.0
C247 C 0.21565 0.49385 0.49538 0.0
C248 C 0.26456 0.49289 0.58384 0.0
C249 C 0.21163 0.52527 0.54324 0.0
C250 C 0.32202 0.39529 0.52951 0.0
C251 C 0.61327 0.31008 0.73024 0.0
C252 C 0.3857 0.39702 0.61912 0.0
C253 C 0.04268 0.57735 0.7082 0.0
C254 C 0.99264 0.51106 0.71158 0.0
C255 C 0.60819 0.49596 0.73376 0.0
C256 C 0.71048 0.38563 0.97302 0.0
C257 C 0.75868 0.37643 0.06295 0.0
C258 C 0.86051 0.40016 0.05107 0.0
C259 C 0.81345 0.40842 0.9625 0.0
C260 C 0.68298 0.36975 1.02394 0.0
C261 C 0.88751 0.41626 1.00105 0.0
C262 C 0.40562 0.48795 0.82254 0.0
C263 C 0.63374 0.37517 0.93109 0.0
H264 H 0.17872 0.52133 0.46346 0.0
H265 H 0.26359 0.52017 0.61933 0.0
H266 H 0.17004 0.57594 0.54858 0.0
H267 H 0.36801 0.34642 0.5235 0.0
H268 H 0.91941 0.4057 0.08061 0.0
H269 H 0.83795 0.41915 0.92458 0.0
H270 H 0.60437 0.35103 0.03303 0.0
H271 H 0.96655 0.434 0.99195 0.0
Tb272 Tb 0.10519 0.89813 0.72698 0.0
C273 C 0.68766 0.00562 0.85813 0.0
N274 N 0.7933 0.01788 0.85451 0.0
C275 C 0.76382 0.14099 0.87758 0.0
C276 C 0.61535 0.06197 0.8691 0.0
C277 C 0.83243 0.08415 0.86539 0.0
C278 C 0.65476 0.13055 0.8779 0.0
C279 C 0.54598 0.91973 0.86684 0.0
C280 C 0.6533 0.93518 0.8575 0.0
C281 C 0.47296 0.97605 0.87447 0.0
C282 C 0.50765 0.04682 0.87577 0.0
Tb283 Tb 0.8975 0.91731 0.84911 0.0
N284 N 0.72621 0.88155 0.85201 0.0
C285 C 0.51559 0.84797 0.86971 0.0
C286 C 0.6972 0.81127 0.85515 0.0
C287 C 0.59132 0.79351 0.86319 0.0
H288 H 0.91696 0.092 0.8666 0.0
H289 H 0.56787 0.73799 0.86475 0.0
H290 H 0.28433 0.76796 0.75203 0.0
H291 H 0.15691 0.17064 0.66221 0.0
H292 H 0.75662 0.76923 0.85173 0.0
H293 H 0.43386 0.83405 0.87664 0.0
H294 H 0.05814 0.05914 0.67723 0.0
H295 H 0.79536 0.19191 0.88901 0.0
H296 H 0.39007 0.96531 0.88122 0.0
H297 H 0.45094 0.08868 0.88471 0.0
H298 H 0.47733 0.75787 0.7594 0.0
H299 H 0.60253 0.17466 0.88841 0.0
H300 H 0.34551 0.17655 0.68651 0.0
N301 N 0.28158 0.88208 0.74473 0.0
C302 C 0.34106 0.94199 0.73986 0.0
C303 C 0.4399 0.81013 0.7547 0.0
C304 C 0.45225 0.93842 0.74424 0.0
C305 C 0.32991 0.81638 0.75135 0.0
C306 C 0.50132 0.87144 0.75129 0.0
N307 N 0.18718 0.00467 0.71288 0.0
C308 C 0.13955 0.06191 0.68888 0.0
C309 C 0.35206 0.06732 0.71489 0.0
C310 C 0.29222 0.00542 0.72376 0.0
C311 C 0.30181 0.12805 0.694 0.0
C312 C 0.19546 0.12491 0.68016 0.0
H313 H 0.58664 0.86644 0.75347 0.0
H314 H 0.59656 -0.00034 0.7431 0.0
H315 H 0.50701 0.11309 0.71935 0.0
O316 O 0.07452 0.91614 0.64894 0.0
O317 O 0.11023 0.99264 0.77713 0.0
O318 O 0.06636 0.93372 0.84826 0.0
O319 O 0.17658 0.83026 0.6724 0.0
O320 O 0.94587 0.93859 0.71773 0.0
O321 O 0.89538 0.00232 0.7888 0.0
O322 O 0.86183 0.8636 0.91788 0.0
O323 O 0.83784 0.85655 0.78475 0.0
O324 O 0.98095 0.81545 0.73423 0.0
O325 O 0.93932 0.96525 0.91846 0.0
O326 O 0.98011 0.81294 0.84304 0.0
O327 O 0.12957 0.82038 0.78935 0.0
C328 C 0.10528 0.99028 0.82679 0.0
C329 C 0.21202 0.88277 0.5922 0.0
C330 C 0.25901 0.88165 0.50201 0.0
C331 C 0.35341 0.91662 0.51318 0.0
C332 C 0.30785 0.91658 0.60251 0.0
C333 C 0.3775 0.93396 0.56326 0.0
C334 C 0.18784 0.86506 0.54155 0.0
C335 C 0.90106 0.99466 0.73869 0.0
C336 C 0.13773 0.86505 0.63377 0.0
C337 C 0.51142 0.00105 0.7385 0.0
C338 C 0.46092 0.06553 0.72463 0.0
C339 C 0.88027 0.81487 0.74943 0.0
C340 C 0.82664 0.93845 0.98878 0.0
C341 C 0.76972 0.92539 0.07732 0.0
C342 C 0.70356 0.98603 0.07189 0.0
C343 C 0.76187 3e-05 0.98495 0.0
C344 C 0.82966 0.90081 0.03533 0.0
C345 C 0.69981 0.02304 1.02578 0.0
C346 C 0.07381 0.7903 0.82623 0.0
C347 C 0.89601 0.91531 0.94608 0.0
H348 H 0.40883 0.92989 0.48312 0.0
H349 H 0.3297 0.92906 0.64076 0.0
H350 H 0.45062 0.96056 0.57178 0.0
H351 H 0.11466 0.83819 0.53296 0.0
H352 H 0.65867 0.00653 0.10402 0.0
H353 H 0.76114 0.03205 0.95123 0.0
H354 H 0.88324 0.85521 0.03981 0.0
H355 H 0.65202 0.07145 1.02211 0.0
Tb356 Tb 0.45485 0.57052 0.2225 0.0
C357 C 0.90364 0.54449 0.34355 0.0
N358 N 0.82929 0.49472 0.33353 0.0
C359 C 0.96642 0.40493 0.32327 0.0
C360 C 0.0126 0.52658 0.3432 0.0
C361 C 0.85946 0.42524 0.32445 0.0
C362 C 0.04338 0.45591 0.33255 0.0
C363 C 0.94342 0.66178 0.37697 0.0
C364 C 0.86974 0.61116 0.36012 0.0
C365 C 0.05215 0.64608 0.37324 0.0
C366 C 0.08681 0.57857 0.35626 0.0
Tb367 Tb 0.65608 0.53108 0.34425 0.0
N368 N 0.76393 0.62376 0.36416 0.0
C369 C 0.9055 0.72426 0.40051 0.0
C370 C 0.72687 0.68297 0.38918 0.0
C371 C 0.79692 0.73345 0.40837 0.0
H372 H 0.80136 0.38447 0.32081 0.0
H373 H 0.76691 0.77991 0.42874 0.0
H374 H 0.35319 0.7375 0.22105 0.0
H375 H 0.27346 0.31164 0.21929 0.0
H376 H 0.6436 0.68993 0.39617 0.0
H377 H 0.95941 0.76395 0.41483 0.0
H378 H 0.42428 0.39494 0.21765 0.0
H379 H 0.98935 0.34962 0.31639 0.0
H380 H 0.10975 0.68442 0.38574 0.0
H381 H 0.17083 0.56603 0.35554 0.0
H382 H 0.1741 0.79342 0.21738 0.0
H383 H 0.12606 0.43997 0.33237 0.0
H384 H 0.09064 0.35814 0.21394 0.0
N385 N 0.29575 0.63074 0.22419 0.0
C386 C 0.2093 0.58839 0.22311 0.0
C387 C 0.18349 0.7358 0.21985 0.0
C388 C 0.10624 0.61834 0.22014 0.0
C389 C 0.28439 0.70384 0.22226 0.0
C390 C 0.09416 0.69295 0.21935 0.0
N391 N 0.32498 0.48745 0.22425 0.0
C392 C 0.34387 0.41564 0.21849 0.0
C393 C 0.13695 0.46906 0.21772 0.0
C394 C 0.22427 0.51458 0.22263 0.0
C395 C 0.15549 0.39508 0.21606 0.0
C396 C 0.25906 0.36849 0.21712 0.0
H397 H 0.01643 0.7179 0.21697 0.0
H398 H 0.93923 0.59523 0.2139 0.0
H399 H 0.96634 0.46436 0.21073 0.0
O400 O 0.48735 0.5216 0.15207 0.0
O401 O 0.39509 0.51251 0.2903 0.0
O402 O 0.54001 0.45265 0.32337 0.0
O403 O 0.41639 0.62679 0.15475 0.0
O404 O 0.60958 0.51545 0.21654 0.0
O405 O 0.64754 0.4457 0.28606 0.0
O406 O 0.60685 0.55014 0.42047 0.0
O407 O 0.71418 0.60408 0.28409 0.0
O408 O 0.57514 0.65236 0.23423 0.0
O409 O 0.70197 0.45817 0.40165 0.0
O410 O 0.51298 0.60109 0.35294 0.0
O411 O 0.46547 0.65832 0.2766 0.0
C412 C 0.43864 0.46552 0.32181 0.0
C413 C 0.36872 0.55303 0.08531 0.0
C414 C 0.30485 0.56108 0.99767 0.0
C415 C 0.22596 0.51157 1.00936 0.0
C416 C 0.29132 0.5015 0.09513 0.0
C417 C 0.21934 0.48201 0.05791 0.0
C418 C 0.37548 0.58275 0.0359 0.0
C419 C 0.63918 0.4535 0.23615 0.0
C420 C 0.4446 0.57369 0.12551 0.0
C421 C 0.01889 0.57312 0.21625 0.0
C422 C 0.03431 0.49865 0.21441 0.0
C423 C 0.67212 0.65319 0.25328 0.0
C424 C 0.73995 0.5147 0.48017 0.0
C425 C 0.77965 0.55602 0.56691 0.0
C426 C 0.88802 0.54901 0.55576 0.0
C427 C 0.84919 0.5064 0.47147 0.0
C428 C 0.7051 0.53868 0.52873 0.0
C429 C 0.92188 0.52423 0.50858 0.0
C430 C 0.47298 0.65596 0.32666 0.0
C431 C 0.66461 0.49755 0.4385 0.0
H432 H 0.17161 0.49404 0.98032 0.0
H433 H 0.28732 0.47462 0.131 0.0
H434 H 0.15997 0.44241 0.06639 0.0
H435 H 0.43718 0.62049 1.0268 0.0
H436 H 0.94704 0.56072 0.58422 0.0
H437 H 0.87943 0.48525 0.43607 0.0
H438 H 0.62118 0.54396 0.53666 0.0
H439 H 1.00503 0.51779 0.50079 0.0
loop_
_geom_bond_atom_site_label_1
_geom_bond_atom_site_label_2
_geom_bond_distance
_geom_bond_site_symmetry_2
_ccdc_geom_bond_type
H0 C7 0.929 . S
H1 C10 0.930 . S
H2 C12 0.929 . S
H3 C4 0.969 . S
C4 H3 0.969 . S
C4 O5 1.550 . S
C4 H6 0.973 . S
O5 C4 1.550 . S
O5 C11 1.412 . S
H6 C4 0.973 . S
C7 H0 0.929 . S
C7 C8 1.400 . S
C7 C9 1.364 . S
C8 C7 1.400 . S
C8 C12 1.377 . S
C9 C7 1.364 . S
C9 C10 1.374 . S
C10 H1 0.930 . S
C10 C9 1.374 . S
C10 C11 1.383 . S
C11 O5 1.412 . S
C11 C10 1.383 . S
C11 C12 1.394 . S
C12 H2 0.929 . S
C12 C8 1.377 . S
C12 C11 1.394 . S
H13 C20 0.929 . S
H14 C23 0.930 . S
H15 C25 0.929 . S
H16 C17 0.969 . S
C17 H16 0.969 . S
C17 O18 1.550 . S
C17 H19 0.973 . S
O18 C17 1.550 . S
O18 C24 1.412 . S
H19 C17 0.973 . S
C20 H13 0.929 . S
C20 C21 1.400 . S
C20 C22 1.364 . S
C21 C20 1.400 . S
C21 C25 1.377 . S
C22 C20 1.364 . S
C22 C23 1.374 . S
C23 H14 0.930 . S
C23 C22 1.374 . S
C23 C24 1.383 . S
C24 O18 1.412 . S
C24 C23 1.383 . S
C24 C25 1.394 . S
C25 H15 0.929 . S
C25 C21 1.377 . S
C25 C24 1.394 . S
H26 C33 0.929 . S
H27 C36 0.930 . S
H28 C38 0.929 . S
H29 C30 0.969 . S
C30 H29 0.969 . S
C30 O31 1.550 . S
C30 H32 0.973 . S
O31 C30 1.550 . S
O31 C37 1.412 . S
H32 C30 0.973 . S
C33 H26 0.929 . S
C33 C34 1.400 . S
C33 C35 1.364 . S
C34 C33 1.400 . S
C34 C38 1.377 . S
C35 C33 1.364 . S
C35 C36 1.374 . S
C36 H27 0.930 . S
C36 C35 1.374 . S
C36 C37 1.383 . S
C37 O31 1.412 . S
C37 C36 1.383 . S
C37 C38 1.394 . S
C38 H28 0.929 . S
C38 C34 1.377 . S
C38 C37 1.394 . S
H39 C46 0.929 . S
H40 C49 0.930 . S
H41 C51 0.929 . S
H42 C43 0.969 . S
C43 H42 0.969 . S
C43 O44 1.550 . S
C43 H45 0.973 . S
O44 C43 1.550 . S
O44 C50 1.412 . S
H45 C43 0.973 . S
C46 H39 0.929 . S
C46 C47 1.400 . S
C46 C48 1.364 . S
C47 C46 1.400 . S
C47 C51 1.377 . S
C48 C46 1.364 . S
C48 C49 1.374 . S
C49 H40 0.930 . S
C49 C48 1.374 . S
C49 C50 1.383 . S
C50 O44 1.412 . S
C50 C49 1.383 . S
C50 C51 1.394 . S
C51 H41 0.929 . S
C51 C47 1.377 . S
C51 C50 1.394 . S
H52 C59 0.929 . S
H53 C62 0.930 . S
H54 C64 0.929 . S
H55 C56 0.969 . S
C56 H55 0.969 . S
C56 O57 1.550 . S
C56 H58 0.973 . S
O57 C56 1.550 . S
O57 C63 1.412 . S
H58 C56 0.973 . S
C59 H52 0.929 . S
C59 C60 1.400 . S
C59 C61 1.364 . S
C60 C59 1.400 . S
C60 C64 1.377 . S
C61 C59 1.364 . S
C61 C62 1.374 . S
C62 H53 0.930 . S
C62 C61 1.374 . S
C62 C63 1.383 . S
C63 O57 1.412 . S
C63 C62 1.383 . S
C63 C64 1.394 . S
C64 H54 0.929 . S
C64 C60 1.377 . S
C64 C63 1.394 . S
H65 C72 0.929 . S
H66 C75 0.930 . S
H67 C77 0.929 . S
H68 C69 0.969 . S
C69 H68 0.969 . S
C69 O70 1.550 . S
C69 H71 0.973 . S
O70 C69 1.550 . S
O70 C76 1.412 . S
H71 C69 0.973 . S
C72 H65 0.929 . S
C72 C73 1.400 . S
C72 C74 1.364 . S
C73 C72 1.400 . S
C73 C77 1.377 . S
C74 C72 1.364 . S
C74 C75 1.374 . S
C75 H66 0.930 . S
C75 C74 1.374 . S
C75 C76 1.383 . S
C76 O70 1.412 . S
C76 C75 1.383 . S
C76 C77 1.394 . S
C77 H67 0.929 . S
C77 C73 1.377 . S
C77 C76 1.394 . S
H78 C85 0.929 . S
H79 C88 0.930 . S
H80 C90 0.929 . S
H81 C82 0.969 . S
C82 H81 0.969 . S
C82 O83 1.550 . S
C82 H84 0.973 . S
O83 C82 1.550 . S
O83 C89 1.412 . S
H84 C82 0.973 . S
C85 H78 0.929 . S
C85 C86 1.400 . S
C85 C87 1.364 . S
C86 C85 1.400 . S
C86 C90 1.377 . S
C87 C85 1.364 . S
C87 C88 1.374 . S
C88 H79 0.930 . S
C88 C87 1.374 . S
C88 C89 1.383 . S
C89 O83 1.412 . S
C89 C88 1.383 . S
C89 C90 1.394 . S
C90 H80 0.929 . S
C90 C86 1.377 . S
C90 C89 1.394 . S
H91 C98 0.929 . S
H92 C101 0.930 . S
H93 C103 0.929 . S
H94 C95 0.969 . S
C95 H94 0.969 . S
C95 O96 1.550 . S
C95 H97 0.973 . S
O96 C95 1.550 . S
O96 C102 1.412 . S
H97 C95 0.973 . S
C98 H91 0.929 . S
C98 C99 1.400 . S
C98 C100 1.364 . S
C99 C98 1.400 . S
C99 C103 1.377 . S
C100 C98 1.364 . S
C100 C101 1.374 . S
C101 H92 0.930 . S
C101 C100 1.374 . S
C101 C102 1.383 . S
C102 O96 1.412 . S
C102 C101 1.383 . S
C102 C103 1.394 . S
C103 H93 0.929 . S
C103 C99 1.377 . S
C103 C102 1.394 . S
Tb104 N133 2.617 . S
Tb104 N139 2.572 . S
Tb104 O148 2.465 . S
Tb104 O149 2.387 . S
Tb104 O151 2.428 . S
Tb104 O152 2.308 . S
Tb104 O156 2.349 . S
Tb104 O159 2.393 1_545 S
Tb104 C168 2.802 . S
C105 N106 1.379 . S
C105 C108 1.416 . S
C105 C112 1.424 1_545 S
N106 C105 1.379 . S
N106 C109 1.334 . S
N106 Tb115 2.617 . S
C107 C109 1.390 . S
C107 C110 1.339 . S
C107 H127 0.930 . S
C108 C105 1.416 . S
C108 C110 1.416 . S
C108 C114 1.448 1_545 S
C109 N106 1.334 . S
C109 C107 1.390 . S
C109 H120 0.930 . S
C110 C107 1.339 . S
C110 C108 1.416 . S
C110 H131 0.930 . S
C111 C112 1.413 . S
C111 C113 1.427 . S
C111 C117 1.416 . S
C112 C105 1.424 1_565 S
C112 C111 1.413 . S
C112 N116 1.361 . S
C113 C111 1.427 . S
C113 C114 1.328 . S
C113 H128 0.929 . S
C114 C108 1.448 1_565 S
C114 C113 1.328 . S
C114 H129 0.930 . S
Tb115 N106 2.617 . S
Tb115 N116 2.572 1_545 S
Tb115 O150 2.349 1_655 S
Tb115 O153 2.393 . S
Tb115 O154 2.465 . S
Tb115 O155 2.387 . S
Tb115 O157 2.428 . S
Tb115 O158 2.308 1_655 S
Tb115 C179 2.802 . S
N116 C112 1.361 . S
N116 Tb115 2.572 1_565 S
N116 C118 1.340 . S
C117 C111 1.416 . S
C117 C119 1.332 . S
C117 H125 0.931 . S
C118 N116 1.340 . S
C118 C119 1.407 . S
C118 H124 0.930 . S
C119 C117 1.332 . S
C119 C118 1.407 . S
C119 H121 0.929 . S
H120 C109 0.930 . S
H121 C119 0.929 . S
H122 C137 0.930 1_565 S
H123 C144 0.929 . S
H124 C118 0.930 . S
H125 C117 0.931 . S
H126 C140 0.930 . S
H127 C107 0.930 . S
H128 C113 0.929 . S
H129 C114 0.930 . S
H130 C135 0.930 1_565 S
H131 C110 0.930 . S
H132 C143 0.931 . S
N133 Tb104 2.617 . S
N133 C134 1.379 . S
N133 C137 1.334 . S
C134 N133 1.379 . S
C134 C136 1.416 . S
C134 C142 1.424 . S
C135 H130 0.930 1_545 S
C135 C137 1.390 . S
C135 C138 1.339 . S
C136 C134 1.416 . S
C136 C138 1.416 . S
C136 C169 1.448 . S
C137 H122 0.930 1_545 S
C137 N133 1.334 . S
C137 C135 1.390 . S
C138 C135 1.339 . S
C138 C136 1.416 . S
C138 H145 0.930 . S
N139 Tb104 2.572 . S
N139 C140 1.340 . S
N139 C142 1.361 . S
C140 H126 0.930 . S
C140 N139 1.340 . S
C140 C144 1.407 . S
C141 C142 1.413 . S
C141 C143 1.416 . S
C141 C170 1.427 . S
C142 C134 1.424 . S
C142 N139 1.361 . S
C142 C141 1.413 . S
C143 H132 0.931 . S
C143 C141 1.416 . S
C143 C144 1.332 . S
C144 H123 0.929 . S
C144 C140 1.407 . S
C144 C143 1.332 . S
H145 C138 0.930 . S
H146 C169 0.930 . S
H147 C170 0.929 . S
O148 Tb104 2.465 . S
O148 C168 1.264 . S
O149 Tb104 2.387 . S
O149 C160 1.264 . S
O150 Tb115 2.349 1_455 S
O150 C160 1.243 . S
O151 Tb104 2.428 . S
O151 C168 1.256 . S
O152 Tb104 2.308 . S
O152 C167 1.266 1_455 S
O153 Tb115 2.393 . S
O153 C167 1.248 . S
O154 Tb115 2.465 . S
O154 C179 1.264 . S
O155 Tb115 2.387 . S
O155 C171 1.264 1_545 S
O156 Tb104 2.349 . S
O156 C171 1.243 1_445 S
O157 Tb115 2.428 . S
O157 C179 1.256 . S
O158 Tb115 2.308 1_455 S
O158 C178 1.266 1_545 S
O159 Tb104 2.393 1_565 S
O159 C178 1.248 . S
C160 O149 1.264 . S
C160 O150 1.243 . S
C161 C164 1.399 1_545 S
C161 C166 1.383 . S
C161 C168 1.496 . S
C162 C163 1.399 . S
C162 C166 1.389 1_556 S
C163 C162 1.399 . S
C163 C165 1.380 1_545 S
C163 H180 0.929 1_545 S
C164 C161 1.399 1_565 S
C164 C165 1.392 1_554 S
C164 H181 0.929 . S
C165 C163 1.380 1_565 S
C165 C164 1.392 1_556 S
C165 H182 0.929 . S
C166 C161 1.383 . S
C166 C162 1.389 1_554 S
C166 H183 0.931 . S
C167 O152 1.266 1_655 S
C167 O153 1.248 . S
C168 Tb104 2.802 . S
C168 O148 1.264 . S
C168 O151 1.256 . S
C168 C161 1.496 . S
C169 C136 1.448 . S
C169 H146 0.930 . S
C169 C170 1.328 . S
C170 C141 1.427 . S
C170 H147 0.929 . S
C170 C169 1.328 . S
C171 O155 1.264 1_565 S
C171 O156 1.243 1_665 S
C172 C175 1.399 . S
C172 C176 1.383 . S
C172 C179 1.496 . S
C173 C174 1.399 . S
C173 C176 1.389 . S
C174 C173 1.399 . S
C174 C177 1.380 . S
C174 H184 0.929 . S
C175 C172 1.399 . S
C175 C177 1.392 . S
C175 H185 0.929 . S
C176 C172 1.383 . S
C176 C173 1.389 . S
C176 H186 0.931 . S
C177 C174 1.380 . S
C177 C175 1.392 . S
C177 H187 0.929 . S
C178 O158 1.266 1_565 S
C178 O159 1.248 . S
C179 Tb115 2.802 . S
C179 O154 1.264 . S
C179 O157 1.256 . S
C179 C172 1.496 . S
H180 C163 0.929 1_565 S
H181 C164 0.929 . S
H182 C165 0.929 . S
H183 C166 0.931 . S
H184 C174 0.929 . S
H185 C175 0.929 . S
H186 C176 0.931 . S
H187 C177 0.929 . S
Tb188 N217 2.617 . S
Tb188 N223 2.572 . S
Tb188 O232 2.465 . S
Tb188 O233 2.387 . S
Tb188 O235 2.428 . S
Tb188 O236 2.308 . S
Tb188 O240 2.349 . S
Tb188 O243 2.393 . S
Tb188 C252 2.802 . S
C189 N190 1.379 . S
C189 C192 1.416 1_655 S
C189 C196 1.424 . S
N190 C189 1.379 . S
N190 C193 1.334 . S
N190 Tb199 2.617 . S
C191 C193 1.399 . S
C191 C194 1.334 1_655 S
C191 H211 0.926 1_655 S
C192 C189 1.416 1_455 S
C192 C194 1.416 . S
C192 C198 1.448 . S
C193 N190 1.334 . S
C193 C191 1.399 . S
C193 H204 0.930 . S
C194 C191 1.334 1_455 S
C194 C192 1.416 . S
C194 H215 0.930 . S
C195 C196 1.413 . S
C195 C197 1.427 1_655 S
C195 C201 1.416 . S
C196 C189 1.424 . S
C196 C195 1.413 . S
C196 N200 1.361 . S
C197 C195 1.427 1_455 S
C197 C198 1.328 . S
C197 H212 0.929 . S
C198 C192 1.448 . S
C198 C197 1.328 . S
C198 H213 0.930 . S
Tb199 N190 2.617 . S
Tb199 N200 2.572 . S
Tb199 O234 2.349 . S
Tb199 O237 2.393 . S
Tb199 O238 2.465 . S
Tb199 O239 2.387 . S
Tb199 O241 2.428 . S
Tb199 O242 2.308 . S
Tb199 C263 2.802 . S
N200 C196 1.361 . S
N200 Tb199 2.572 . S
N200 C202 1.340 . S
C201 C195 1.416 . S
C201 C203 1.332 . S
C201 H209 0.931 . S
C202 N200 1.340 . S
C202 C203 1.407 . S
C202 H208 0.930 . S
C203 C201 1.332 . S
C203 C202 1.407 . S
C203 H205 0.929 . S
H204 C193 0.930 . S
H205 C203 0.929 . S
H206 C221 0.930 . S
H207 C228 0.929 . S
H208 C202 0.930 . S
H209 C201 0.931 . S
H210 C224 0.930 . S
H211 C191 0.926 1_455 S
H212 C197 0.929 . S
H213 C198 0.930 . S
H214 C219 0.930 . S
H215 C194 0.930 . S
H216 C227 0.931 . S
N217 Tb188 2.617 . S
N217 C218 1.379 . S
N217 C221 1.334 . S
C218 N217 1.379 . S
C218 C220 1.416 . S
C218 C226 1.424 . S
C219 H214 0.930 . S
C219 C221 1.390 . S
C219 C222 1.339 1_455 S
C220 C218 1.416 . S
C220 C222 1.416 1_455 S
C220 C253 1.448 1_455 S
C221 H206 0.930 . S
C221 N217 1.334 . S
C221 C219 1.390 . S
C222 C219 1.339 1_655 S
C222 C220 1.416 1_655 S
C222 H229 0.930 . S
N223 Tb188 2.572 . S
N223 C224 1.340 . S
N223 C226 1.361 . S
C224 H210 0.930 . S
C224 N223 1.340 . S
C224 C228 1.407 . S
C225 C226 1.413 . S
C225 C227 1.416 . S
C225 C254 1.427 . S
C226 C218 1.424 . S
C226 N223 1.361 . S
C226 C225 1.413 . S
C227 H216 0.931 . S
C227 C225 1.416 . S
C227 C228 1.332 . S
C228 H207 0.929 . S
C228 C224 1.407 . S
C228 C227 1.332 . S
H229 C222 0.930 . S
H230 C253 0.930 . S
H231 C254 0.929 1_655 S
O232 Tb188 2.465 . S
O232 C252 1.264 . S
O233 Tb188 2.387 . S
O233 C244 1.264 . S
O234 Tb199 2.349 . S
O234 C244 1.243 . S
O235 Tb188 2.428 . S
O235 C252 1.256 . S
O236 Tb188 2.308 . S
O236 C251 1.266 . S
O237 Tb199 2.393 . S
O237 C251 1.248 . S
O238 Tb199 2.465 . S
O238 C263 1.264 . S
O239 Tb199 2.387 . S
O239 C255 1.264 . S
O240 Tb188 2.349 . S
O240 C255 1.243 . S
O241 Tb199 2.428 . S
O241 C263 1.256 . S
O242 Tb199 2.308 . S
O242 C262 1.266 . S
O243 Tb188 2.393 . S
O243 C262 1.248 . S
C244 O233 1.264 . S
C244 O234 1.243 . S
C245 C248 1.399 . S
C245 C250 1.383 . S
C245 C252 1.496 . S
C246 C247 1.399 . S
C246 C250 1.389 . S
C247 C246 1.399 . S
C247 C249 1.380 . S
C247 H264 0.929 . S
C248 C245 1.399 . S
C248 C249 1.392 . S
C248 H265 0.929 . S
C249 C247 1.380 . S
C249 C248 1.392 . S
C249 H266 0.929 . S
C250 C245 1.383 . S
C250 C246 1.389 . S
C250 H267 0.931 . S
C251 O236 1.266 . S
C251 O237 1.248 . S
C252 Tb188 2.802 . S
C252 O232 1.264 . S
C252 O235 1.256 . S
C252 C245 1.496 . S
C253 C220 1.448 1_655 S
C253 H230 0.930 . S
C253 C254 1.328 1_655 S
C254 C225 1.427 . S
C254 H231 0.929 1_455 S
C254 C253 1.328 1_455 S
C255 O239 1.264 . S
C255 O240 1.243 . S
C256 C259 1.399 . S
C256 C260 1.383 . S
C256 C263 1.496 . S
C257 C258 1.399 . S
C257 C260 1.389 1_554 S
C258 C257 1.399 . S
C258 C261 1.380 . S
C258 H268 0.929 . S
C259 C256 1.399 . S
C259 C261 1.392 1_556 S
C259 H269 0.929 . S
C260 C256 1.383 . S
C260 C257 1.389 1_556 S
C260 H270 0.931 . S
C261 C258 1.380 . S
C261 C259 1.392 1_554 S
C261 H271 0.929 . S
C262 O242 1.266 . S
C262 O243 1.248 . S
C263 Tb199 2.802 . S
C263 O238 1.264 . S
C263 O241 1.256 . S
C263 C256 1.496 . S
H264 C247 0.929 . S
H265 C248 0.929 . S
H266 C249 0.929 . S
H267 C250 0.931 . S
H268 C258 0.929 . S
H269 C259 0.929 . S
H270 C260 0.931 . S
H271 C261 0.929 . S
Tb272 N301 2.617 . S
Tb272 N307 2.572 1_565 S
Tb272 O316 2.465 . S
Tb272 O317 2.387 . S
Tb272 O319 2.428 . S
Tb272 O320 2.308 . S
Tb272 O324 2.349 . S
Tb272 O327 2.393 . S
Tb272 C336 2.802 . S
C273 N274 1.379 . S
C273 C276 1.416 . S
C273 C280 1.424 . S
N274 C273 1.379 . S
N274 C277 1.334 . S
N274 Tb283 2.617 . S
C275 C277 1.390 . S
C275 C278 1.339 . S
C275 H295 0.930 1_565 S
C276 C273 1.416 . S
C276 C278 1.416 . S
C276 C282 1.448 . S
C277 N274 1.334 . S
C277 C275 1.390 . S
C277 H288 0.930 1_565 S
C278 C275 1.339 . S
C278 C276 1.416 . S
C278 H299 0.930 . S
C279 C280 1.413 . S
C279 C281 1.427 . S
C279 C285 1.416 . S
C280 C273 1.424 . S
C280 C279 1.413 . S
C280 N284 1.361 . S
C281 C279 1.427 . S
C281 C282 1.328 . S
C281 H296 0.929 . S
C282 C276 1.448 . S
C282 C281 1.328 . S
C282 H297 0.930 . S
Tb283 N274 2.617 . S
Tb283 N284 2.572 . S
Tb283 O318 2.349 1_655 S
Tb283 O321 2.393 1_565 S
Tb283 O322 2.465 . S
Tb283 O323 2.387 . S
Tb283 O325 2.428 . S
Tb283 O326 2.308 1_655 S
Tb283 C347 2.802 . S
N284 C280 1.361 . S
N284 Tb283 2.572 . S
N284 C286 1.340 . S
C285 C279 1.416 . S
C285 C287 1.332 . S
C285 H293 0.931 . S
C286 N284 1.340 . S
C286 C287 1.407 . S
C286 H292 0.930 . S
C287 C285 1.332 . S
C287 C286 1.407 . S
C287 H289 0.929 . S
H288 C277 0.930 1_545 S
H289 C287 0.929 . S
H290 C305 0.930 . S
H291 C312 0.929 . S
H292 C286 0.930 . S
H293 C285 0.931 . S
H294 C308 0.930 . S
H295 C275 0.930 1_545 S
H296 C281 0.929 . S
H297 C282 0.930 . S
H298 C303 0.930 . S
H299 C278 0.930 . S
H300 C311 0.931 . S
N301 Tb272 2.617 . S
N301 C302 1.379 . S
N301 C305 1.334 . S
C302 N301 1.379 . S
C302 C304 1.416 . S
C302 C310 1.424 1_565 S
C303 H298 0.930 . S
C303 C305 1.390 . S
C303 C306 1.339 . S
C304 C302 1.416 . S
C304 C306 1.416 . S
C304 C337 1.448 1_565 S
C305 H290 0.930 . S
C305 N301 1.334 . S
C305 C303 1.390 . S
C306 C303 1.339 . S
C306 C304 1.416 . S
C306 H313 0.930 . S
N307 Tb272 2.572 1_545 S
N307 C308 1.340 . S
N307 C310 1.361 . S
C308 H294 0.930 . S
C308 N307 1.340 . S
C308 C312 1.407 . S
C309 C310 1.413 . S
C309 C311 1.416 . S
C309 C338 1.427 . S
C310 C302 1.424 1_545 S
C310 N307 1.361 . S
C310 C309 1.413 . S
C311 H300 0.931 . S
C311 C309 1.416 . S
C311 C312 1.332 . S
C312 H291 0.929 . S
C312 C308 1.407 . S
C312 C311 1.332 . S
H313 C306 0.930 . S
H314 C337 0.930 . S
H315 C338 0.929 . S
O316 Tb272 2.465 . S
O316 C336 1.264 . S
O317 Tb272 2.387 . S
O317 C328 1.264 1_565 S
O318 Tb283 2.349 1_455 S
O318 C328 1.243 1_565 S
O319 Tb272 2.428 . S
O319 C336 1.256 . S
O320 Tb272 2.308 . S
O320 C335 1.266 1_465 S
O321 Tb283 2.393 1_545 S
O321 C335 1.248 . S
O322 Tb283 2.465 . S
O322 C347 1.264 . S
O323 Tb283 2.387 . S
O323 C339 1.264 . S
O324 Tb272 2.349 . S
O324 C339 1.243 1_455 S
O325 Tb283 2.428 . S
O325 C347 1.256 . S
O326 Tb283 2.308 1_455 S
O326 C346 1.266 . S
O327 Tb272 2.393 . S
O327 C346 1.248 . S
C328 O317 1.264 1_545 S
C328 O318 1.243 1_545 S
C329 C332 1.399 . S
C329 C334 1.383 . S
C329 C336 1.496 . S
C330 C331 1.399 . S
C330 C334 1.389 . S
C331 C330 1.399 . S
C331 C333 1.380 . S
C331 H348 0.929 . S
C332 C329 1.399 . S
C332 C333 1.392 . S
C332 H349 0.929 . S
C333 C331 1.380 . S
C333 C332 1.392 . S
C333 H350 0.929 . S
C334 C329 1.383 . S
C334 C330 1.389 . S
C334 H351 0.931 . S
C335 O320 1.266 1_645 S
C335 O321 1.248 . S
C336 Tb272 2.802 . S
C336 O316 1.264 . S
C336 O319 1.256 . S
C336 C329 1.496 . S
C337 C304 1.448 1_545 S
C337 H314 0.930 . S
C337 C338 1.328 . S
C338 C309 1.427 . S
C338 H315 0.929 . S
C338 C337 1.328 . S
C339 O323 1.264 . S
C339 O324 1.243 1_655 S
C340 C343 1.399 1_565 S
C340 C344 1.383 . S
C340 C347 1.496 . S
C341 C342 1.399 . S
C341 C344 1.389 1_554 S
C342 C341 1.399 . S
C342 C345 1.380 1_564 S
C342 H352 0.931 . S
C343 C340 1.399 1_545 S
C343 C345 1.392 . S
C343 H353 0.929 . S
C344 C340 1.383 . S
C344 C341 1.389 1_556 S
C344 H354 0.931 . S
C345 C342 1.380 1_546 S
C345 C343 1.392 . S
C345 H355 0.929 1_556 S
C346 O326 1.266 . S
C346 O327 1.248 . S
C347 Tb283 2.802 . S
C347 O322 1.264 . S
C347 O325 1.256 . S
C347 C340 1.496 . S
H348 C331 0.929 . S
H349 C332 0.929 . S
H350 C333 0.929 . S
H351 C334 0.931 . S
H352 C342 0.931 . S
H353 C343 0.929 . S
H354 C344 0.931 . S
H355 C345 0.929 1_554 S
Tb356 N385 2.617 . S
Tb356 N391 2.572 . S
Tb356 O400 2.465 . S
Tb356 O401 2.387 . S
Tb356 O403 2.428 . S
Tb356 O404 2.308 . S
Tb356 O408 2.349 . S
Tb356 O411 2.393 . S
Tb356 C420 2.802 . S
C357 N358 1.379 . S
C357 C360 1.416 1_655 S
C357 C364 1.424 . S
N358 C357 1.379 . S
N358 C361 1.334 . S
N358 Tb367 2.617 . S
C359 C361 1.390 . S
C359 C362 1.339 1_655 S
C359 H379 0.930 1_655 S
C360 C357 1.416 1_455 S
C360 C362 1.416 . S
C360 C366 1.448 . S
C361 N358 1.334 . S
C361 C359 1.390 . S
C361 H372 0.930 . S
C362 C359 1.339 1_455 S
C362 C360 1.416 . S
C362 H383 0.930 . S
C363 C364 1.413 . S
C363 C365 1.427 1_655 S
C363 C369 1.416 . S
C364 C357 1.424 . S
C364 C363 1.413 . S
C364 N368 1.361 . S
C365 C363 1.427 1_455 S
C365 C366 1.328 . S
C365 H380 0.929 . S
C366 C360 1.448 . S
C366 C365 1.328 . S
C366 H381 0.930 . S
Tb367 N358 2.617 . S
Tb367 N368 2.572 . S
Tb367 O402 2.349 . S
Tb367 O405 2.393 . S
Tb367 O406 2.465 . S
Tb367 O407 2.387 . S
Tb367 O409 2.428 . S
Tb367 O410 2.308 . S
Tb367 C431 2.802 . S
N368 C364 1.361 . S
N368 Tb367 2.572 . S
N368 C370 1.340 . S
C369 C363 1.416 . S
C369 C371 1.332 . S
C369 H377 0.931 . S
C370 N368 1.340 . S
C370 C371 1.407 . S
C370 H376 0.930 . S
C371 C369 1.332 . S
C371 C370 1.407 . S
C371 H373 0.929 . S
H372 C361 0.930 . S
H373 C371 0.929 . S
H374 C389 0.930 . S
H375 C396 0.929 . S
H376 C370 0.930 . S
H377 C369 0.931 . S
H378 C392 0.930 . S
H379 C359 0.930 1_455 S
H380 C365 0.929 . S
H381 C366 0.930 . S
H382 C387 0.930 . S
H383 C362 0.930 . S
H384 C395 0.931 . S
N385 Tb356 2.617 . S
N385 C386 1.379 . S
N385 C389 1.334 . S
C386 N385 1.379 . S
C386 C388 1.416 . S
C386 C394 1.424 . S
C387 H382 0.930 . S
C387 C389 1.390 . S
C387 C390 1.339 1_455 S
C388 C386 1.416 . S
C388 C390 1.416 1_455 S
C388 C421 1.448 1_455 S
C389 H374 0.930 . S
C389 N385 1.334 . S
C389 C387 1.390 . S
C390 C387 1.339 1_655 S
C390 C388 1.416 1_655 S
C390 H397 0.930 . S
N391 Tb356 2.572 . S
N391 C392 1.340 . S
N391 C394 1.361 . S
C392 H378 0.930 . S
C392 N391 1.340 . S
C392 C396 1.407 . S
C393 C394 1.413 . S
C393 C395 1.416 . S
C393 C422 1.427 . S
C394 C386 1.424 . S
C394 N391 1.361 . S
C394 C393 1.413 . S
C395 H384 0.931 . S
C395 C393 1.416 . S
C395 C396 1.332 . S
C396 H375 0.929 . S
C396 C392 1.407 . S
C396 C395 1.332 . S
H397 C390 0.930 . S
H398 C421 0.930 . S
H399 C422 0.929 1_655 S
O400 Tb356 2.465 . S
O400 C420 1.264 . S
O401 Tb356 2.387 . S
O401 C412 1.264 . S
O402 Tb367 2.349 . S
O402 C412 1.243 . S
O403 Tb356 2.428 . S
O403 C420 1.256 . S
O404 Tb356 2.308 . S
O404 C419 1.266 . S
O405 Tb367 2.393 . S
O405 C419 1.248 . S
O406 Tb367 2.465 . S
O406 C431 1.264 . S
O407 Tb367 2.387 . S
O407 C423 1.264 . S
O408 Tb356 2.349 . S
O408 C423 1.243 . S
O409 Tb367 2.428 . S
O409 C431 1.256 . S
O410 Tb367 2.308 . S
O410 C430 1.266 . S
O411 Tb356 2.393 . S
O411 C430 1.248 . S
C412 O401 1.264 . S
C412 O402 1.243 . S
C413 C416 1.399 . S
C413 C418 1.383 . S
C413 C420 1.496 . S
C414 C415 1.399 . S
C414 C418 1.389 1_556 S
C415 C414 1.399 . S
C415 C417 1.380 1_556 S
C415 H432 0.929 . S
C416 C413 1.399 . S
C416 C417 1.392 . S
C416 H433 0.929 . S
C417 C415 1.380 1_554 S
C417 C416 1.392 . S
C417 H434 0.929 1_554 S
C418 C413 1.383 . S
C418 C414 1.389 1_554 S
C418 H435 0.931 . S
C419 O404 1.266 . S
C419 O405 1.248 . S
C420 Tb356 2.802 . S
C420 O400 1.264 . S
C420 O403 1.256 . S
C420 C413 1.496 . S
C421 C388 1.448 1_655 S
C421 H398 0.930 . S
C421 C422 1.328 1_655 S
C422 C393 1.427 . S
C422 H399 0.929 1_455 S
C422 C421 1.328 1_455 S
C423 O407 1.264 . S
C423 O408 1.243 . S
C424 C427 1.399 . S
C424 C428 1.383 . S
C424 C431 1.496 . S
C425 C426 1.399 . S
C425 C428 1.389 . S
C426 C425 1.399 . S
C426 C429 1.380 . S
C426 H436 0.929 . S
C427 C424 1.399 . S
C427 C429 1.392 . S
C427 H437 0.929 . S
C428 C424 1.383 . S
C428 C425 1.389 . S
C428 H438 0.931 . S
C429 C426 1.380 . S
C429 C427 1.392 . S
C429 H439 0.929 . S
C430 O410 1.266 . S
C430 O411 1.248 . S
C431 Tb367 2.802 . S
C431 O406 1.264 . S
C431 O409 1.256 . S
C431 C424 1.496 . S
H432 C415 0.929 . S
H433 C416 0.929 . S
H434 C417 0.929 1_556 S
H435 C418 0.931 . S
H436 C426 0.929 . S
H437 C427 0.929 . S
H438 C428 0.931 . S
H439 C429 0.929 . S
C86 C178 1.892 . S
C262 C100 1.886 . S
C255 C60 1.809 . S
C74 C171 1.848 . S
C335 C35 1.881 . S
C419 C47 1.904 . S
C9 C412 1.843 . S
C21 C328 1.821 . S
C162 C22 1.574 . S
C246 C8 1.503 . S
C257 C48 1.292 . S
C173 C34 1.301 . S
C341 C73 1.493 . S
C61 C425 1.578 . S
C414 C99 1.301 . S
C87 C330 1.290 . S
C160 C4 1.501 . S
C244 C17 1.588 . S
C30 C251 1.379 . S
C167 C43 1.597 . S
C339 C56 1.440 . S
C69 C423 1.625 . S
C82 C430 1.502 . S
C95 C346 1.465 . S
