# Generated by pormake.
# Topology tsx, (6,3)-cn, num edge types: 1
# Building blocks:
#     Node 0, Type 0, BuildingBlock: LEVNOQ01_clean_sbu_1, # of connection points: 6
#     Node 1, Type 0, BuildingBlock: LEVNOQ01_clean_sbu_1, # of connection points: 6
#     Node 2, Type 1, BuildingBlock: MIDCAF_clean_linker_0, # of connection points: 3
#     Node 3, Type 1, BuildingBlock: MIDCAF_clean_linker_0, # of connection points: 3
#     Node 4, Type 1, BuildingBlock: MIDCAF_clean_linker_0, # of connection points: 3
#     Node 5, Type 1, BuildingBlock: MIDCAF_clean_linker_0, # of connection points: 3
#     Edge 6, Type (0, 1), BuildingBlock: UVAHIK_clean_linker_0, # of connection points: 2
#     Edge 7, Type (0, 1), BuildingBlock: UVAHIK_clean_linker_0, # of connection points: 2
#     Edge 8, Type (0, 1), BuildingBlock: UVAHIK_clean_linker_0, # of connection points: 2
#     Edge 9, Type (0, 1), BuildingBlock: UVAHIK_clean_linker_0, # of connection points: 2
#     Edge 10, Type (0, 1), BuildingBlock: UVAHIK_clean_linker_0, # of connection points: 2
#     Edge 11, Type (0, 1), BuildingBlock: UVAHIK_clean_linker_0, # of connection points: 2
#     Edge 12, Type (0, 1), BuildingBlock: UVAHIK_clean_linker_0, # of connection points: 2
#     Edge 13, Type (0, 1), BuildingBlock: UVAHIK_clean_linker_0, # of connection points: 2
#     Edge 14, Type (0, 1), BuildingBlock: UVAHIK_clean_linker_0, # of connection points: 2
#     Edge 15, Type (0, 1), BuildingBlock: UVAHIK_clean_linker_0, # of connection points: 2
#     Edge 16, Type (0, 1), BuildingBlock: UVAHIK_clean_linker_0, # of connection points: 2
#     Edge 17, Type (0, 1), BuildingBlock: UVAHIK_clean_linker_0, # of connection points: 2
# Relax obj value: 0.132
# Max RMSD: 0.159
# Mean RMSD: 0.121
data_MOF--net-tsx--node1-LEVNOQ01_clean_sbu_1--node2-MIDCAF_clean_linker_0--edge1-UVAHIK_clean_linker_0
_symmetry_space_group_name_H-M    P1
_symmetry_Int_Tables_number       1
_symmetry_cell_setting            triclinic
loop_
_symmetry_equiv_pos_as_xyz
'x, y, z'
_cell_length_a     27.371234
_cell_length_b     34.420575
_cell_length_c     56.165149
_cell_angle_alpha  96.881288
_cell_angle_beta   91.865285
_cell_angle_gamma 90.49594
loop_
_atom_site_label
_atom_site_type_symbol
_atom_site_fract_x
_atom_site_fract_y
_atom_site_fract_z
_atom_type_partial_charge
O0 O 0.13437 0.01706 0.05331 0.0
Mg1 Mg 0.16223 0.02833 0.0201 0.0
O2 O 0.05599 0.01526 0.04151 0.0
Mg3 Mg 0.05452 0.02169 0.00053 0.0
O4 O 0.11897 0.0663 0.00411 0.0
O5 O 0.19622 0.08038 0.01647 0.0
O6 O 0.05545 0.02715 0.95984 0.0
O7 O 0.0102 0.08156 0.00938 0.0
Mg8 Mg 0.96151 0.02379 0.98598 0.0
O9 O 0.99052 0.97336 -0.00352 0.0
O10 O 0.97968 0.04412 0.95309 0.0
O11 O 0.93461 0.0633 0.01333 0.0
O12 O 0.91628 0.97749 0.97842 0.0
C13 C 0.1463 0.95508 0.98925 0.0
C14 C 0.0895 0.01317 0.05767 0.0
C15 C 0.15598 0.09048 0.00645 0.0
C16 C 0.02262 0.03869 0.94588 0.0
C17 C 0.96697 0.08977 0.01617 0.0
C18 C 0.94865 0.95752 0.98865 0.0
O19 O 0.17994 -0.02044 -0.00368 0.0
O20 O 0.10134 0.96418 -0.00836 0.0
O21 O 0.62061 0.49989 0.54625 0.0
Mg22 Mg 0.64318 0.51568 0.51305 0.0
O23 O 0.54259 0.50742 0.5368 0.0
Mg24 Mg 0.54532 0.51301 0.49576 0.0
O25 O 0.60821 0.56138 0.49995 0.0
O26 O 0.68533 0.56418 0.51516 0.0
O27 O 0.55646 0.52113 0.45452 0.0
O28 O 0.49561 0.56803 0.50268 0.0
Mg29 Mg 0.47338 0.49767 0.46614 0.0
O30 O 0.47914 0.4655 0.49443 0.0
O31 O 0.50822 0.47701 0.43481 0.0
O32 O 0.44646 0.55509 0.47103 0.0
O33 O 0.4151 0.46325 0.46813 0.0
C34 C 0.63538 0.44643 0.48292 0.0
C35 C 0.5762 0.50039 0.55192 0.0
C36 C 0.64931 0.58055 0.50499 0.0
C37 C 0.54337 0.50071 0.43484 0.0
C38 C 0.46047 0.57792 0.48933 0.0
C39 C 0.43681 0.45074 0.48636 0.0
O40 O 0.66834 0.47214 0.48778 0.0
O41 O 0.59115 0.45479 0.48768 0.0
C42 C 0.93717 0.10495 0.42564 0.0
C43 C 0.91754 0.10539 0.44843 0.0
C44 C 0.92856 0.07468 0.46207 0.0
C45 C 0.95871 0.04402 0.4529 0.0
H46 H 0.09314 0.97345 0.46812 0.0
H47 H 0.14578 0.93235 0.49063 0.0
H48 H 0.15015 0.84625 0.42822 0.0
H49 H 0.09823 0.88684 0.40579 0.0
H50 H 0.10567 0.94389 0.35468 0.0
H51 H 0.1091 0.94143 0.31098 0.0
H52 H 0.96381 -0.01124 0.3083 0.0
H53 H 0.9605 -0.00811 0.35188 0.0
H54 H 0.98037 0.07499 0.39863 0.0
H55 H 0.92879 0.12786 0.41454 0.0
H56 H 0.91384 0.07439 0.47972 0.0
H57 H 0.96635 0.02041 0.46355 0.0
N58 N 0.03348 -0.01237 0.43199 0.0
N59 N 0.06032 0.9518 0.39656 0.0
N60 N 0.00562 0.00306 0.39435 0.0
C61 C 0.06079 0.95822 0.42097 0.0
C62 C 0.03255 0.97402 0.38317 0.0
C63 C 0.00588 0.01022 0.41862 0.0
C64 C 0.09145 0.93344 0.43514 0.0
C65 C 0.10519 0.94566 0.45927 0.0
C66 C 0.1355 0.92232 0.47211 0.0
C67 C 0.15178 0.88609 0.46118 0.0
C68 C 0.13769 0.87384 0.43718 0.0
C69 C 0.10813 0.89728 0.42429 0.0
C70 C 0.03295 0.9683 0.35668 0.0
C71 C 0.07424 0.95325 0.34472 0.0
C72 C 0.07632 0.95202 0.31978 0.0
C73 C 0.03674 0.965 0.30639 0.0
C74 C 0.99466 -0.02161 0.31823 0.0
C75 C 0.99295 -0.01964 0.34316 0.0
C76 C 0.97723 0.04336 0.42978 0.0
C77 C 0.96644 0.07437 0.41643 0.0
C78 C 0.84853 0.97179 0.56465 0.0
C79 C 0.85582 0.9499 0.54229 0.0
C80 C 0.89931 0.95605 0.53042 0.0
C81 C 0.9358 -0.01833 0.5414 0.0
H82 H 0.04353 0.08118 0.53369 0.0
H83 H 0.10446 0.12166 0.51681 0.0
H84 H 0.18705 0.13333 0.58421 0.0
H85 H 0.12762 0.09272 0.60077 0.0
H86 H 0.05375 0.0984 0.64843 0.0
H87 H 0.06136 0.09824 0.69164 0.0
H88 H 0.98548 -0.01355 0.68503 0.0
H89 H 0.97548 -0.01203 0.64193 0.0
H90 H 0.87888 0.012 0.59335 0.0
H91 H 0.81499 0.9688 0.57401 0.0
H92 H 0.9063 0.93961 0.51323 0.0
H93 H 0.96979 -0.01548 0.53236 0.0
N94 N 0.00509 0.04225 0.56691 0.0
N95 N 0.04422 0.06237 0.60425 0.0
N96 N 0.97333 0.02372 0.60238 0.0
C97 C 0.04225 0.06205 0.58004 0.0
C98 C 0.01019 0.04323 0.61552 0.0
C99 C 0.9703 0.02321 0.57814 0.0
C100 C 0.08032 0.08389 0.56866 0.0
C101 C 0.07503 0.092 0.54477 0.0
C102 C 0.1098 0.11537 0.53515 0.0
C103 C 0.15065 0.13079 0.54918 0.0
C104 C 0.15652 0.12156 0.57276 0.0
C105 C 0.12194 0.09847 0.58235 0.0
C106 C 0.01397 0.04322 0.64181 0.0
C107 C 0.03854 0.07388 0.65626 0.0
C108 C 0.04325 0.07358 0.68106 0.0
C109 C 0.02438 0.04219 0.69199 0.0
C110 C 0.99977 0.01149 0.67743 0.0
C111 C 0.9942 0.01221 0.65266 0.0
C112 C 0.92965 0.00114 0.56453 0.0
C113 C 0.88511 -0.00324 0.57571 0.0
C114 C 0.44412 0.60999 0.92402 0.0
C115 C 0.42455 0.61048 0.94683 0.0
C116 C 0.43559 0.57965 0.96041 0.0
C117 C 0.46575 0.54892 0.95118 0.0
H118 H 0.5934 0.47239 0.9668 0.0
H119 H 0.64773 0.43112 0.98828 0.0
H120 H 0.67286 0.35852 0.92177 0.0
H121 H 0.61892 0.39886 0.90048 0.0
H122 H 0.60893 0.44711 0.85133 0.0
H123 H 0.60962 0.44311 0.80751 0.0
H124 H 0.46644 0.49453 0.80657 0.0
H125 H 0.46581 0.49909 0.85026 0.0
H126 H 0.48723 0.58008 0.89698 0.0
H127 H 0.43581 0.63295 0.91295 0.0
H128 H 0.42098 0.57936 0.97808 0.0
H129 H 0.4734 0.52526 0.96179 0.0
N130 N 0.54159 0.4927 0.9297 0.0
N131 N 0.56739 0.45751 0.89383 0.0
N132 N 0.51148 0.50805 0.89237 0.0
C133 C 0.56908 0.46367 0.91826 0.0
C134 C 0.53843 0.47941 0.8808 0.0
C135 C 0.5128 0.51511 0.91667 0.0
C136 C 0.60149 0.43901 0.93187 0.0
C137 C 0.61041 0.44755 0.95679 0.0
C138 C 0.64177 0.42408 0.96909 0.0
C139 C 0.66437 0.39141 0.95675 0.0
C140 C 0.65549 0.38308 0.93189 0.0
C141 C 0.62461 0.4065 0.91964 0.0
C142 C 0.53744 0.47362 0.85426 0.0
C143 C 0.5774 0.45717 0.84175 0.0
C144 C 0.57793 0.45505 0.81673 0.0
C145 C 0.53811 0.4686 0.80374 0.0
C146 C 0.49745 0.48368 0.81616 0.0
C147 C 0.49728 0.48647 0.84116 0.0
C148 C 0.48427 0.54829 0.92806 0.0
C149 C 0.47337 0.57939 0.91477 0.0
C150 C 0.37896 0.45945 0.06719 0.0
C151 C 0.37347 0.45414 0.04203 0.0
C152 C 0.40397 0.47589 0.02868 0.0
C153 C 0.44004 0.5013 0.0402 0.0
H154 H 0.546 0.59686 0.03306 0.0
H155 H 0.60429 0.63673 0.01385 0.0
H156 H 0.70938 0.62819 0.07196 0.0
H157 H 0.65183 0.58875 0.09102 0.0
H158 H 0.60991 0.58273 0.14157 0.0
H159 H 0.62337 0.58374 0.18465 0.0
H160 H 0.486 0.52271 0.18883 0.0
H161 H 0.47198 0.52195 0.14567 0.0
H162 H 0.4183 0.48723 0.09805 0.0
H163 H 0.35685 0.44282 0.07811 0.0
H164 H 0.40039 0.47294 0.00929 0.0
H165 H 0.46349 0.51695 0.02934 0.0
N166 N 0.51947 0.54888 0.06521 0.0
N167 N 0.5641 0.56978 0.10091 0.0
N168 N 0.49387 0.53107 0.102 0.0
C169 C 0.55815 0.56896 0.07678 0.0
C170 C 0.53215 0.55114 0.1137 0.0
C171 C 0.48718 0.52965 0.07779 0.0
C172 C 0.5941 0.58993 0.06366 0.0
C173 C 0.58179 0.60312 0.04152 0.0
C174 C 0.61501 0.62607 0.0306 0.0
C175 C 0.66137 0.63558 0.04143 0.0
C176 C 0.67419 0.62105 0.06305 0.0
C177 C 0.64093 0.5987 0.07407 0.0
C178 C 0.53984 0.55217 0.14004 0.0
C179 C 0.58238 0.56958 0.15159 0.0
C180 C 0.59032 0.57 0.17631 0.0
C181 C 0.55583 0.55325 0.19012 0.0
C182 C 0.51304 0.53621 0.17868 0.0
C183 C 0.50517 0.53558 0.15391 0.0
C184 C 0.44646 0.50553 0.06535 0.0
C185 C 0.41476 0.48481 0.07867 0.0
C186 C 0.18537 0.13785 0.98038 0.0
C187 C 0.15402 0.12945 -0.00163 0.0
C188 C 0.19791 0.17652 0.97791 0.0
C189 C 0.17723 0.28151 0.00083 0.0
H190 H 0.3185 0.28693 -0.00165 0.0
C191 C 0.29357 0.41671 0.04025 0.0
C192 C 0.33858 0.42384 0.03002 0.0
C193 C 0.26436 0.3844 0.03118 0.0
C194 C 0.27895 0.28627 -0.00148 0.0
H195 H 0.10842 0.15438 0.02685 0.0
H196 H 0.13086 0.22227 0.02293 0.0
H197 H 0.2772 0.22412 -0.00911 0.0
H198 H 0.38632 0.40374 0.00111 0.0
H199 H 0.3347 0.34839 0.98482 0.0
H200 H 0.17963 0.34397 0.00933 0.0
C201 C 0.1451 0.19918 0.01033 0.0
C202 C 0.25509 0.25003 -0.00579 0.0
C203 C 0.13205 0.16033 0.01257 0.0
C204 C 0.35193 0.39935 0.00946 0.0
C205 C 0.32255 0.36722 0.00028 0.0
C206 C 0.20122 0.31799 0.00512 0.0
C207 C 0.18027 0.20754 -0.00618 0.0
C208 C 0.204 0.247 -0.00438 0.0
C209 C 0.27924 0.35852 0.01153 0.0
C210 C 0.25253 0.32073 0.00439 0.0
H211 H 0.20306 0.11436 0.9694 0.0
H212 H 0.22411 0.18194 0.96461 0.0
H213 H 0.13782 0.28027 0.00191 0.0
H214 H 0.28158 0.4354 0.05581 0.0
H215 H 0.23139 0.37868 0.04038 0.0
C216 C 0.13448 0.88194 0.98501 0.0
C217 C 0.16089 0.91502 0.97993 0.0
C218 C 0.15416 0.84439 0.98003 0.0
C219 C 0.25067 0.78968 0.94557 0.0
H220 H 0.25965 0.72713 -0.00142 0.0
C221 C 0.40425 0.68149 0.95204 0.0
C222 C 0.39167 0.64293 0.95545 0.0
C223 C 0.37025 0.71134 0.95556 0.0
C224 C 0.25684 0.74402 0.98353 0.0
H225 H 0.22683 0.93469 0.96444 0.0
H226 H 0.26048 0.86984 0.95546 0.0
H227 H 0.2069 0.7847 0.00128 0.0
H228 H 0.33462 0.60597 0.96689 0.0
H229 H 0.27493 0.65886 0.97353 0.0
H230 H 0.30191 0.7502 0.92821 0.0
C231 C 0.22485 0.87247 0.96331 0.0
C232 C 0.2265 0.77683 0.98499 0.0
C233 C 0.20565 0.90973 0.96855 0.0
C234 C 0.34535 0.63545 0.9642 0.0
C235 C 0.31117 0.6656 0.96787 0.0
C236 C 0.28101 0.75721 0.94418 0.0
C237 C 0.20003 0.8394 0.96949 0.0
C238 C 0.22437 0.80072 0.96632 0.0
C239 C 0.32284 0.70352 0.96272 0.0
C240 C 0.28568 0.73478 0.96343 0.0
H241 H 0.10006 0.88526 -0.00603 0.0
H242 H 0.13408 0.81941 0.98487 0.0
H243 H 0.24907 0.80699 0.93068 0.0
H244 H 0.43996 0.68829 0.94575 0.0
H245 H 0.38069 0.74051 0.95206 0.0
C246 C 0.91428 0.89302 0.97172 0.0
C247 C 0.93646 0.91657 -0.00874 0.0
C248 C 0.89271 0.85721 0.97482 0.0
C249 C 0.87361 0.78544 0.01883 0.0
H250 H 0.74973 0.76897 0.98336 0.0
C251 C 0.74568 0.6548 0.03044 0.0
C252 C 0.6954 0.66262 0.0313 0.0
C253 C 0.77844 0.68229 0.02335 0.0
C254 C 0.78403 0.77318 -0.00645 0.0
H255 H 0.95591 0.92071 0.02911 0.0
H256 H 0.91638 0.85861 0.03494 0.0
H257 H 0.80287 0.82251 0.97601 0.0
H258 H 0.63997 0.70516 0.02515 0.0
H259 H 0.69688 0.75335 0.01316 0.0
H260 H 0.85304 0.7373 0.03737 0.0
C261 C 0.91666 0.86716 0.01701 0.0
C262 C 0.81511 0.80361 0.98903 0.0
C263 C 0.93934 0.90275 0.01374 0.0
C264 C 0.6784 0.69805 0.02431 0.0
C265 C 0.71115 0.72567 0.01743 0.0
C266 C 0.84218 0.75513 0.02353 0.0
C267 C 0.89146 0.84464 -0.00228 0.0
C268 C 0.86023 0.81039 0.0017 0.0
C269 C 0.76171 0.71839 0.01713 0.0
C270 C 0.79671 0.7489 0.01112 0.0
H271 H 0.91199 0.90306 0.95416 0.0
H272 H 0.87524 0.84015 0.95937 0.0
H273 H 0.90819 0.78946 0.02878 0.0
H274 H 0.75976 0.62754 0.03551 0.0
H275 H 0.81692 0.67531 0.02289 0.0
C276 C 0.91107 0.13861 0.0366 0.0
C277 C 0.95073 0.13059 0.02164 0.0
C278 C 0.88545 0.17349 0.03643 0.0
C279 C 0.81283 0.22504 0.01499 0.0
H280 H 0.86154 0.32396 -0.00172 0.0
C281 C 0.6929 0.32467 0.9638 0.0
C282 C 0.6968 0.36548 0.96944 0.0
C283 C 0.72497 0.29995 0.97436 0.0
C284 C 0.84733 0.29672 0.00326 0.0
H285 H 0.99737 0.15408 -0.00371 0.0
H286 H 0.95179 0.21456 -0.00465 0.0
H287 H 0.91905 0.27609 0.01132 0.0
H288 H 0.73716 0.41233 -0.00905 0.0
H289 H 0.7933 0.36887 0.0097 0.0
H290 H 0.74135 0.24535 0.00691 0.0
C291 C 0.9408 0.19435 0.00759 0.0
C292 C 0.88034 0.26909 0.01051 0.0
C293 C 0.96709 0.15965 0.00813 0.0
C294 C 0.73306 0.38099 0.98635 0.0
C295 C 0.76548 0.35613 -0.00311 0.0
C296 C 0.78002 0.25256 0.00784 0.0
C297 C 0.89813 0.20078 0.02084 0.0
C298 C 0.86356 0.23254 0.01604 0.0
C299 C 0.7619 0.31528 -0.00907 0.0
C300 C 0.79683 0.28834 0.00131 0.0
H301 H 0.89794 0.11678 0.04732 0.0
H302 H 0.85386 0.17796 0.04751 0.0
H303 H 0.79825 0.19712 0.01867 0.0
H304 H 0.66507 0.31173 0.95104 0.0
H305 H 0.72146 0.26871 0.96908 0.0
C306 C 0.6176 0.64738 0.49888 0.0
C307 C 0.65642 0.621 0.49928 0.0
C308 C 0.627 0.68698 0.49669 0.0
C309 C 0.66798 0.76969 0.51356 0.0
H310 H 0.77571 0.80116 0.47663 0.0
C311 C 0.79819 0.89526 0.54845 0.0
C312 C 0.82011 0.91847 0.53267 0.0
C313 C 0.76703 0.86415 0.53978 0.0
C314 C 0.74486 0.79329 0.48674 0.0
H315 H 0.73474 0.61455 0.49596 0.0
H316 H 0.75091 0.68266 0.49204 0.0
H317 H 0.73991 0.73585 0.46735 0.0
H318 H 0.82509 0.92751 0.49526 0.0
H319 H 0.77087 0.87251 0.48002 0.0
H320 H 0.674 0.8267 0.53347 0.0
C321 C 0.71332 0.67334 0.49343 0.0
C322 C 0.72459 0.75569 0.48154 0.0
C323 C 0.70408 0.63426 0.49595 0.0
C324 C 0.80926 0.91003 0.50791 0.0
C325 C 0.77807 0.87861 0.49919 0.0
C326 C 0.6882 0.80734 0.51873 0.0
C327 C 0.67519 0.70045 0.49437 0.0
C328 C 0.6875 0.74285 0.49563 0.0
C329 C 0.75696 0.85507 0.51505 0.0
C330 C 0.72839 0.81893 0.50611 0.0
H331 H 0.58051 0.63785 0.50137 0.0
H332 H 0.59683 0.7072 0.49741 0.0
H333 H 0.63949 0.76077 0.52477 0.0
H334 H 0.8065 0.90011 0.56756 0.0
H335 H 0.75255 0.84611 0.5525 0.0
C336 C 0.62398 0.37361 0.48077 0.0
C337 C 0.65005 0.40609 0.47456 0.0
C338 C 0.64355 0.33598 0.47656 0.0
C339 C 0.73945 0.27925 0.443 0.0
H340 H 0.75082 0.22223 0.49846 0.0
C341 C 0.89621 0.17605 0.4535 0.0
C342 C 0.88415 0.13741 0.45689 0.0
C343 C 0.86142 0.20534 0.45648 0.0
C344 C 0.7473 0.23758 0.48276 0.0
H345 H 0.71506 0.42456 0.45774 0.0
H346 H 0.74869 0.35949 0.4502 0.0
H347 H 0.69704 0.27904 0.49942 0.0
H348 H 0.82744 0.09968 0.46789 0.0
H349 H 0.76636 0.15164 0.47363 0.0
H350 H 0.79135 0.23915 0.42678 0.0
C351 C 0.71338 0.36268 0.45833 0.0
C352 C 0.71638 0.2699 0.48322 0.0
C353 C 0.69424 0.40007 0.46276 0.0
C354 C 0.83769 0.12927 0.46523 0.0
C355 C 0.80275 0.15885 0.46838 0.0
C356 C 0.77045 0.24732 0.44262 0.0
C357 C 0.68897 0.33032 0.4657 0.0
C358 C 0.71349 0.29183 0.46362 0.0
C359 C 0.81389 0.19674 0.46308 0.0
C360 C 0.77591 0.22701 0.46277 0.0
H361 H 0.58993 0.37752 0.49001 0.0
H362 H 0.62382 0.31151 0.48228 0.0
H363 H 0.73725 0.29506 0.42745 0.0
H364 H 0.93202 0.18328 0.4475 0.0
H365 H 0.87123 0.23457 0.45284 0.0
C366 C 0.36194 0.41334 0.49335 0.0
C367 C 0.41269 0.41866 0.49703 0.0
C368 C 0.33862 0.38018 0.49961 0.0
C369 C 0.34647 0.29811 0.5353 0.0
H370 H 0.25389 0.2507 0.48624 0.0
C371 C 0.23595 0.1571 0.54595 0.0
C372 C 0.18563 0.15842 0.54009 0.0
C373 C 0.26805 0.18584 0.53981 0.0
C374 C 0.27938 0.26365 0.50018 0.0
H375 H 0.4785 0.39446 0.51152 0.0
H376 H 0.43719 0.33569 0.52265 0.0
H377 H 0.30236 0.30733 0.4788 0.0
H378 H 0.12993 0.19061 0.52268 0.0
H379 H 0.18583 0.24043 0.51176 0.0
H380 H 0.32258 0.25466 0.55686 0.0
C381 C 0.41574 0.35749 0.51478 0.0
C382 C 0.3072 0.29608 0.49592 0.0
C383 C 0.43932 0.39108 0.5085 0.0
C384 C 0.1685 0.18833 0.52715 0.0
C385 C 0.2006 0.21699 0.52096 0.0
C386 C 0.31848 0.26552 0.5396 0.0
C387 C 0.36536 0.35123 0.50964 0.0
C388 C 0.34017 0.31428 0.51363 0.0
C389 C 0.25062 0.21643 0.52753 0.0
C390 C 0.28385 0.24848 0.52225 0.0
H391 H 0.3402 0.4344 0.48493 0.0
H392 H 0.29956 0.3768 0.49608 0.0
H393 H 0.3715 0.31157 0.54928 0.0
H394 H 0.25049 0.13409 0.55559 0.0
H395 H 0.30648 0.18423 0.54478 0.0
C396 C 0.45462 0.64773 0.5088 0.0
C397 C 0.4331 0.61437 0.49548 0.0
C398 C 0.4278 0.68233 0.51319 0.0
C399 C 0.30183 0.7185 0.51588 0.0
H400 H 0.34803 0.80956 0.48839 0.0
C401 C 0.17283 0.82061 0.47317 0.0
C402 C 0.1836 0.86074 0.47439 0.0
C403 C 0.2051 0.79556 0.48325 0.0
C404 C 0.33497 0.78484 0.49674 0.0
H405 H 0.36639 0.59059 0.47718 0.0
H406 H 0.31991 0.65007 0.48523 0.0
H407 H 0.40378 0.75559 0.49309 0.0
H408 H 0.23576 0.90647 0.48786 0.0
H409 H 0.29277 0.86235 0.50554 0.0
H410 H 0.23252 0.74661 0.51851 0.0
C411 C 0.35733 0.64983 0.49214 0.0
C412 C 0.36693 0.75398 0.49943 0.0
C413 C 0.38417 0.61585 0.48734 0.0
C414 C 0.22653 0.87563 0.48676 0.0
C415 C 0.25923 0.85039 0.49671 0.0
C416 C 0.27005 0.7493 0.51331 0.0
C417 C 0.37882 0.6835 0.50492 0.0
C418 C 0.34992 0.71983 0.508 0.0
C419 C 0.24914 0.80996 0.49474 0.0
C420 C 0.28559 0.78199 0.50265 0.0
H421 H 0.4923 0.64734 0.51526 0.0
H422 H 0.44518 0.70807 0.523 0.0
H423 H 0.28802 0.69262 0.5228 0.0
H424 H 0.13982 0.80842 0.46389 0.0
H425 H 0.19646 0.76454 0.48108 0.0
C426 C 0.1074 -0.02134 0.09312 0.0
C427 C 0.07718 0.00397 0.08171 0.0
C428 C 0.09922 0.97168 0.11658 0.0
C429 C 0.0107 -0.01359 0.16599 0.0
H430 H 0.12825 0.97371 0.20454 0.0
C431 C 0.00335 0.95107 0.26411 0.0
C432 C 0.04036 0.967 0.28036 0.0
C433 C 0.00624 0.95437 0.23961 0.0
C434 C 0.09496 -0.02227 0.19423 0.0
H435 H 0.01378 0.04102 0.08542 0.0
H436 H 1.00068 0.03057 0.12715 0.0
H437 H 0.13487 -0.01705 0.16286 0.0
H438 H 0.10857 -0.00024 0.28405 0.0
H439 H 0.11292 0.00697 0.24162 0.0
H440 H 0.97112 -0.01644 0.19798 0.0
C441 C 0.03 0.01515 0.11776 0.0
C442 C 0.09868 -0.01773 0.17003 0.0
C443 C 0.03753 0.02135 0.09392 0.0
C444 C 0.08004 -0.01342 0.27178 0.0
C445 C 0.08251 -0.00946 0.24741 0.0
C446 C 0.00702 -0.01743 0.19041 0.0
C447 C 0.06142 -0.00923 0.12955 0.0
C448 C 0.05665 -0.01365 0.15547 0.0
C449 C 0.0458 0.97432 0.23093 0.0
C450 C 0.04916 -0.02187 0.20486 0.0
H451 H 0.1377 0.96431 0.08388 0.0
H452 H 0.12309 0.95159 0.1246 0.0
H453 H 0.97746 -0.01087 0.15537 0.0
H454 H 0.97241 0.93576 0.27036 0.0
H455 H 0.97769 0.94092 0.2275 0.0
C456 C 0.00437 0.06785 0.90803 0.0
C457 C 0.03323 0.04324 0.92078 0.0
C458 C 0.01113 0.06944 0.88364 0.0
C459 C 0.04314 0.00862 0.8305 0.0
H460 H 0.05735 0.10492 0.8017 0.0
C461 C 0.99384 0.02511 0.73134 0.0
C462 C 0.03041 0.04153 0.71842 0.0
C463 C 0.99944 0.0247 0.75611 0.0
C464 C 0.05369 0.07785 0.80956 0.0
H465 H 0.09242 0.00164 0.91821 0.0
H466 H 0.10312 0.00356 0.87518 0.0
H467 H 0.05932 0.10697 0.84555 0.0
H468 H 0.10215 0.06968 0.72174 0.0
H469 H 0.11046 0.07056 0.76517 0.0
H470 H 0.0353 -0.0203 0.79455 0.0
C471 C 0.07582 0.02192 0.88427 0.0
C472 C 0.0547 0.07903 0.83453 0.0
C473 C 0.06983 0.02099 0.90882 0.0
C474 C 0.07266 0.05757 0.73104 0.0
C475 C 0.07774 0.05784 0.75589 0.0
C476 C 0.04108 0.00753 0.80555 0.0
C477 C 0.04615 0.04586 0.87146 0.0
C478 C 0.04915 0.04445 0.84517 0.0
C479 C 0.04122 0.04133 0.76859 0.0
C480 C 0.04602 0.04217 0.79491 0.0
H481 H 0.97601 0.0854 0.91684 0.0
H482 H 0.98764 0.08794 0.87407 0.0
H483 H 0.03834 -0.01836 0.83836 0.0
H484 H 0.96037 0.01319 0.72245 0.0
H485 H 0.97054 0.01218 0.76564 0.0
C486 C 0.52745 0.51235 0.58916 0.0
C487 C 0.56449 0.49225 0.5763 0.0
C488 C 0.52117 0.50751 0.61332 0.0
C489 C 0.59074 0.4733 0.66489 0.0
H490 H 0.46616 0.48376 0.69567 0.0
C491 C 0.58023 0.4856 0.76751 0.0
C492 C 0.53988 0.46891 0.77744 0.0
C493 C 0.58123 0.48768 0.74286 0.0
C494 C 0.5012 0.48022 0.68733 0.0
H495 H 0.62146 0.44925 0.57781 0.0
H496 H 0.60889 0.43908 0.61919 0.0
H497 H 0.4696 0.48637 0.65262 0.0
H498 H 0.4692 0.4408 0.76949 0.0
H499 H 0.47165 0.4428 0.72621 0.0
H500 H 0.62216 0.46532 0.69916 0.0
C501 C 0.5862 0.46011 0.61131 0.0
C502 C 0.50327 0.48233 0.66263 0.0
C503 C 0.59317 0.46564 0.58748 0.0
C504 C 0.50067 0.45397 0.76223 0.0
C505 C 0.50198 0.45543 0.73747 0.0
C506 C 0.58857 0.47056 0.68941 0.0
C507 C 0.55123 0.48188 0.62486 0.0
C508 C 0.54815 0.47899 0.65107 0.0
C509 C 0.54224 0.47246 0.72744 0.0
C510 C 0.54388 0.47431 0.70106 0.0
H511 H 0.50496 0.53312 0.58091 0.0
H512 H 0.49406 0.525 0.62313 0.0
H513 H 0.62622 0.47141 0.65689 0.0
H514 H 0.61055 0.49795 0.77892 0.0
H515 H 0.61234 0.50188 0.736 0.0
C516 C 0.58403 0.54429 0.40846 0.0
C517 C 0.56405 0.50765 0.41176 0.0
C518 C 0.59559 0.55249 0.38545 0.0
C519 C 0.61465 0.50703 0.32322 0.0
H520 H 0.55131 0.59958 0.30447 0.0
C521 C 0.52712 0.56178 0.23239 0.0
C522 C 0.56484 0.55301 0.21631 0.0
C523 C 0.53529 0.56051 0.25697 0.0
C524 C 0.56936 0.57372 0.30947 0.0
H525 H 0.5439 0.45003 0.39404 0.0
H526 H 0.56459 0.46409 0.35415 0.0
H527 H 0.5546 0.5885 0.34664 0.0
H528 H 0.64081 0.53623 0.21342 0.0
H529 H 0.65508 0.53407 0.25639 0.0
H530 H 0.62757 0.49138 0.28595 0.0
C531 C 0.57113 0.48659 0.36916 0.0
C532 C 0.57177 0.56762 0.33364 0.0
C533 C 0.55897 0.47861 0.392 0.0
C534 C 0.61111 0.54342 0.22538 0.0
C535 C 0.6192 0.5419 0.24995 0.0
C536 C 0.61253 0.51326 0.29909 0.0
C537 C 0.58817 0.52394 0.3655 0.0
C538 C 0.59327 0.53367 0.34067 0.0
C539 C 0.58129 0.5502 0.266 0.0
C540 C 0.58871 0.54615 0.29188 0.0
H541 H 0.58825 0.56722 0.4234 0.0
H542 H 0.60901 0.58145 0.38314 0.0
H543 H 0.6317 0.48073 0.32816 0.0
H544 H 0.49123 0.56964 0.22597 0.0
H545 H 0.50518 0.56661 0.26884 0.0
loop_
_geom_bond_atom_site_label_1
_geom_bond_atom_site_label_2
_geom_bond_distance
_geom_bond_site_symmetry_2
_ccdc_geom_bond_type
O0 Mg1 1.990 . S
O0 C14 1.253 . S
Mg1 O0 1.990 . S
Mg1 O4 2.180 . S
Mg1 O5 2.117 . S
Mg1 O19 2.030 1_545 S
O2 Mg3 2.072 . S
O2 C14 1.260 . S
Mg3 O2 2.072 . S
Mg3 O4 2.099 . S
Mg3 O6 2.079 1_554 S
Mg3 O7 2.072 . S
Mg3 O9 2.099 1_444 S
Mg3 O20 2.079 1_544 S
O4 Mg1 2.180 . S
O4 Mg3 2.099 . S
O4 C15 1.279 . S
O5 Mg1 2.117 . S
O5 C15 1.250 . S
O6 Mg3 2.079 1_556 S
O6 C16 1.264 . S
O7 Mg3 2.072 . S
O7 C17 1.260 1_455 S
Mg8 O9 2.180 1_545 S
Mg8 O10 2.030 . S
Mg8 O11 1.990 . S
Mg8 O12 2.117 1_545 S
O9 Mg3 2.099 1_666 S
O9 Mg8 2.180 1_565 S
O9 C18 1.279 1_556 S
O10 Mg8 2.030 . S
O10 C16 1.248 1_655 S
O11 Mg8 1.990 . S
O11 C17 1.253 1_556 S
O12 Mg8 2.117 1_565 S
O12 C18 1.250 1_556 S
C13 O19 1.248 . S
C13 O20 1.240 1_554 S
C14 O0 1.253 . S
C14 O2 1.260 . S
C15 O4 1.279 . S
C15 O5 1.250 . S
C16 O6 1.264 . S
C16 O10 1.248 1_455 S
C17 O7 1.260 1_655 S
C17 O11 1.253 1_554 S
C18 O9 1.279 1_554 S
C18 O12 1.250 1_554 S
O19 Mg1 2.030 1_565 S
O19 C13 1.248 . S
O20 Mg3 2.079 1_566 S
O20 C13 1.240 1_556 S
O21 Mg22 1.990 . S
O21 C35 1.253 . S
Mg22 O21 1.990 . S
Mg22 O25 2.180 . S
Mg22 O26 2.117 . S
Mg22 O40 2.030 . S
O23 Mg24 2.072 . S
O23 C35 1.260 . S
Mg24 O23 2.072 . S
Mg24 O25 2.099 . S
Mg24 O27 2.079 . S
Mg24 O28 2.072 . S
Mg24 O30 2.099 . S
Mg24 O41 2.079 . S
O25 Mg22 2.180 . S
O25 Mg24 2.099 . S
O25 C36 1.279 . S
O26 Mg22 2.117 . S
O26 C36 1.250 . S
O27 Mg24 2.079 . S
O27 C37 1.264 . S
O28 Mg24 2.072 . S
O28 C38 1.260 . S
Mg29 O30 2.180 . S
Mg29 O31 2.030 . S
Mg29 O32 1.990 . S
Mg29 O33 2.117 . S
O30 Mg24 2.099 . S
O30 Mg29 2.180 . S
O30 C39 1.279 . S
O31 Mg29 2.030 . S
O31 C37 1.248 . S
O32 Mg29 1.990 . S
O32 C38 1.253 . S
O33 Mg29 2.117 . S
O33 C39 1.250 . S
C34 O40 1.248 . S
C34 O41 1.264 . S
C35 O21 1.253 . S
C35 O23 1.260 . S
C36 O25 1.279 . S
C36 O26 1.250 . S
C37 O27 1.264 . S
C37 O31 1.248 . S
C38 O28 1.260 . S
C38 O32 1.253 . S
C39 O30 1.279 . S
C39 O33 1.250 . S
O40 Mg22 2.030 . S
O40 C34 1.248 . S
O41 Mg24 2.079 . S
O41 C34 1.264 . S
C42 C43 1.384 . S
C42 H55 0.947 . S
C42 C77 1.382 . S
C43 C42 1.384 . S
C43 C44 1.378 . S
C44 C43 1.378 . S
C44 C45 1.378 . S
C44 H56 0.952 . S
C45 C44 1.378 . S
C45 H57 0.950 1_655 S
C45 C76 1.383 . S
H46 C65 0.947 . S
H47 C66 0.946 . S
H48 C68 0.953 . S
H49 C69 0.945 . S
H50 C71 0.952 . S
H51 C72 0.949 . S
H52 C74 0.950 . S
H53 C75 0.948 . S
H54 C77 0.951 . S
H55 C42 0.947 . S
H56 C44 0.952 . S
H57 C45 0.950 1_455 S
N58 C61 1.382 1_545 S
N58 C63 1.363 . S
N59 C61 1.371 . S
N59 C62 1.372 1_565 S
N60 C62 1.361 . S
N60 C63 1.377 . S
C61 N58 1.382 1_565 S
C61 N59 1.371 . S
C61 C64 1.480 . S
C62 N59 1.372 1_545 S
C62 N60 1.361 . S
C62 C70 1.457 . S
C63 N58 1.363 . S
C63 N60 1.377 . S
C63 C76 1.479 1_455 S
C64 C61 1.480 . S
C64 C65 1.383 . S
C64 C69 1.385 . S
C65 H46 0.947 . S
C65 C64 1.383 . S
C65 C66 1.388 . S
C66 H47 0.946 . S
C66 C65 1.388 . S
C66 C67 1.384 . S
C67 C66 1.384 . S
C67 C68 1.377 . S
C68 H48 0.953 . S
C68 C67 1.377 . S
C68 C69 1.369 . S
C69 H49 0.945 . S
C69 C64 1.385 . S
C69 C68 1.369 . S
C70 C62 1.457 . S
C70 C71 1.372 1_545 S
C70 C75 1.364 . S
C71 H50 0.952 . S
C71 C70 1.372 1_565 S
C71 C72 1.389 . S
C72 H51 0.949 . S
C72 C71 1.389 . S
C72 C73 1.389 1_565 S
C73 C72 1.389 1_545 S
C73 C74 1.370 . S
C74 H52 0.950 . S
C74 C73 1.370 . S
C74 C75 1.379 . S
C75 H53 0.948 . S
C75 C70 1.364 . S
C75 C74 1.379 . S
C76 C45 1.383 . S
C76 C63 1.479 1_655 S
C76 C77 1.398 . S
C77 C42 1.382 . S
C77 H54 0.951 . S
C77 C76 1.398 . S
C78 C79 1.384 . S
C78 H91 0.947 . S
C78 C113 1.382 . S
C79 C78 1.384 . S
C79 C80 1.378 . S
C80 C79 1.378 . S
C80 C81 1.378 1_565 S
C80 H92 0.952 . S
C81 C80 1.378 1_545 S
C81 H93 0.950 . S
C81 C112 1.383 . S
H82 C101 0.947 . S
H83 C102 0.946 . S
H84 C104 0.953 . S
H85 C105 0.945 . S
H86 C107 0.952 . S
H87 C108 0.949 . S
H88 C110 0.950 . S
H89 C111 0.948 . S
H90 C113 0.951 . S
H91 C78 0.947 . S
H92 C80 0.952 . S
H93 C81 0.950 . S
N94 C97 1.382 . S
N94 C99 1.363 1_455 S
N95 C97 1.371 . S
N95 C98 1.372 . S
N96 C98 1.361 1_655 S
N96 C99 1.377 . S
C97 N94 1.382 . S
C97 N95 1.371 . S
C97 C100 1.480 . S
C98 N95 1.372 . S
C98 N96 1.361 1_455 S
C98 C106 1.457 . S
C99 N94 1.363 1_655 S
C99 N96 1.377 . S
C99 C112 1.479 . S
C100 C97 1.480 . S
C100 C101 1.383 . S
C100 C105 1.385 . S
C101 H82 0.947 . S
C101 C100 1.383 . S
C101 C102 1.388 . S
C102 H83 0.946 . S
C102 C101 1.388 . S
C102 C103 1.384 . S
C103 C102 1.384 . S
C103 C104 1.377 . S
C104 H84 0.953 . S
C104 C103 1.377 . S
C104 C105 1.369 . S
C105 H85 0.945 . S
C105 C100 1.385 . S
C105 C104 1.369 . S
C106 C98 1.457 . S
C106 C107 1.372 . S
C106 C111 1.364 1_455 S
C107 H86 0.952 . S
C107 C106 1.372 . S
C107 C108 1.389 . S
C108 H87 0.949 . S
C108 C107 1.389 . S
C108 C109 1.387 . S
C109 C108 1.387 . S
C109 C110 1.372 1_455 S
C110 H88 0.950 . S
C110 C109 1.372 1_655 S
C110 C111 1.379 . S
C111 H89 0.948 . S
C111 C106 1.364 1_655 S
C111 C110 1.379 . S
C112 C81 1.383 . S
C112 C99 1.479 . S
C112 C113 1.398 1_545 S
C113 C78 1.382 . S
C113 H90 0.951 . S
C113 C112 1.398 1_565 S
C114 C115 1.384 . S
C114 H127 0.947 . S
C114 C149 1.382 . S
C115 C114 1.384 . S
C115 C116 1.378 . S
C116 C115 1.378 . S
C116 C117 1.378 . S
C116 H128 0.952 1_556 S
C117 C116 1.378 . S
C117 H129 0.950 . S
C117 C148 1.383 . S
H118 C137 0.947 . S
H119 C138 0.946 . S
H120 C140 0.953 . S
H121 C141 0.945 . S
H122 C143 0.952 . S
H123 C144 0.949 . S
H124 C146 0.950 . S
H125 C147 0.948 . S
H126 C149 0.951 . S
H127 C114 0.947 . S
H128 C116 0.952 1_554 S
H129 C117 0.950 . S
N130 C133 1.382 . S
N130 C135 1.363 . S
N131 C133 1.371 . S
N131 C134 1.372 . S
N132 C134 1.361 . S
N132 C135 1.377 . S
C133 N130 1.382 . S
C133 N131 1.371 . S
C133 C136 1.480 . S
C134 N131 1.372 . S
C134 N132 1.361 . S
C134 C142 1.457 . S
C135 N130 1.363 . S
C135 N132 1.377 . S
C135 C148 1.479 . S
C136 C133 1.480 . S
C136 C137 1.383 . S
C136 C141 1.385 . S
C137 H118 0.947 . S
C137 C136 1.383 . S
C137 C138 1.388 . S
C138 H119 0.946 . S
C138 C137 1.388 . S
C138 C139 1.384 . S
C139 C138 1.384 . S
C139 C140 1.377 . S
C140 H120 0.953 . S
C140 C139 1.377 . S
C140 C141 1.369 . S
C141 H121 0.945 . S
C141 C136 1.385 . S
C141 C140 1.369 . S
C142 C134 1.457 . S
C142 C143 1.372 . S
C142 C147 1.364 . S
C143 H122 0.952 . S
C143 C142 1.372 . S
C143 C144 1.389 . S
C144 H123 0.949 . S
C144 C143 1.389 . S
C144 C145 1.387 . S
C145 C144 1.387 . S
C145 C146 1.372 . S
C146 H124 0.950 . S
C146 C145 1.372 . S
C146 C147 1.379 . S
C147 H125 0.948 . S
C147 C142 1.364 . S
C147 C146 1.379 . S
C148 C117 1.383 . S
C148 C135 1.479 . S
C148 C149 1.398 . S
C149 C114 1.382 . S
C149 H126 0.951 . S
C149 C148 1.398 . S
C150 C151 1.384 . S
C150 H163 0.947 . S
C150 C185 1.382 . S
C151 C150 1.384 . S
C151 C152 1.378 . S
C152 C151 1.378 . S
C152 C153 1.378 . S
C152 H164 0.952 . S
C153 C152 1.378 . S
C153 H165 0.950 . S
C153 C184 1.383 . S
H154 C173 0.947 . S
H155 C174 0.946 . S
H156 C176 0.953 . S
H157 C177 0.945 . S
H158 C179 0.952 . S
H159 C180 0.949 . S
H160 C182 0.950 . S
H161 C183 0.948 . S
H162 C185 0.951 . S
H163 C150 0.947 . S
H164 C152 0.952 . S
H165 C153 0.950 . S
N166 C169 1.382 . S
N166 C171 1.363 . S
N167 C169 1.371 . S
N167 C170 1.372 . S
N168 C170 1.361 . S
N168 C171 1.377 . S
C169 N166 1.382 . S
C169 N167 1.371 . S
C169 C172 1.480 . S
C170 N167 1.372 . S
C170 N168 1.361 . S
C170 C178 1.457 . S
C171 N166 1.363 . S
C171 N168 1.377 . S
C171 C184 1.479 . S
C172 C169 1.480 . S
C172 C173 1.383 . S
C172 C177 1.385 . S
C173 H154 0.947 . S
C173 C172 1.383 . S
C173 C174 1.388 . S
C174 H155 0.946 . S
C174 C173 1.388 . S
C174 C175 1.384 . S
C175 C174 1.384 . S
C175 C176 1.377 . S
C176 H156 0.953 . S
C176 C175 1.377 . S
C176 C177 1.369 . S
C177 H157 0.945 . S
C177 C172 1.385 . S
C177 C176 1.369 . S
C178 C170 1.457 . S
C178 C179 1.372 . S
C178 C183 1.364 . S
C179 H158 0.952 . S
C179 C178 1.372 . S
C179 C180 1.389 . S
C180 H159 0.949 . S
C180 C179 1.389 . S
C180 C181 1.387 . S
C181 C180 1.387 . S
C181 C182 1.372 . S
C182 H160 0.950 . S
C182 C181 1.372 . S
C182 C183 1.379 . S
C183 H161 0.948 . S
C183 C178 1.364 . S
C183 C182 1.379 . S
C184 C153 1.383 . S
C184 C171 1.479 . S
C184 C185 1.398 . S
C185 C150 1.382 . S
C185 H162 0.951 . S
C185 C184 1.398 . S
C186 C187 1.349 . S
C186 C188 1.327 . S
C186 H211 0.950 . S
C187 C186 1.349 . S
C187 C203 1.349 1_554 S
C188 C186 1.327 . S
C188 C207 1.429 . S
C188 H212 0.950 . S
C189 C206 1.574 . S
C189 C208 1.368 . S
C189 H213 0.949 1_554 S
H190 C194 0.949 . S
C191 C192 1.349 . S
C191 C193 1.327 . S
C191 H214 0.950 . S
C192 C191 1.349 . S
C192 C204 1.349 . S
C193 C191 1.327 . S
C193 C209 1.429 . S
C193 H215 0.950 . S
C194 H190 0.949 . S
C194 C202 1.574 . S
C194 C210 1.368 . S
H195 C203 0.950 . S
H196 C201 0.949 1_556 S
H197 C202 0.949 . S
H198 C204 0.950 . S
H199 C205 0.950 . S
H200 C206 0.972 . S
C201 H196 0.949 1_554 S
C201 C203 1.327 1_554 S
C201 C207 1.429 . S
C202 C194 1.574 . S
C202 H197 0.949 . S
C202 C208 1.368 . S
C203 C187 1.349 1_556 S
C203 H195 0.950 . S
C203 C201 1.327 1_556 S
C204 C192 1.349 . S
C204 H198 0.950 . S
C204 C205 1.327 . S
C205 H199 0.950 . S
C205 C204 1.327 . S
C205 C209 1.429 . S
C206 C189 1.574 . S
C206 H200 0.972 . S
C206 C210 1.368 . S
C207 C188 1.429 . S
C207 C201 1.429 . S
C207 C208 1.523 . S
C208 C189 1.368 . S
C208 C202 1.368 . S
C208 C207 1.523 . S
C209 C193 1.429 . S
C209 C205 1.429 . S
C209 C210 1.523 . S
C210 C194 1.368 . S
C210 C206 1.368 . S
C210 C209 1.523 . S
H211 C186 0.950 . S
H212 C188 0.950 . S
H213 C189 0.949 1_556 S
H214 C191 0.950 . S
H215 C193 0.950 . S
C216 C217 1.349 . S
C216 C218 1.327 . S
C216 H241 0.950 . S
C217 C216 1.349 . S
C217 C233 1.349 1_554 S
C218 C216 1.327 . S
C218 C237 1.404 1_554 S
C218 H242 0.950 . S
C219 C236 1.574 . S
C219 C238 1.368 . S
C219 H243 0.949 . S
H220 C224 0.949 . S
C221 C222 1.349 . S
C221 C223 1.327 . S
C221 H244 0.950 . S
C222 C221 1.349 . S
C222 C234 1.349 . S
C223 C221 1.327 . S
C223 C239 1.429 . S
C223 H245 0.950 . S
C224 H220 0.949 . S
C224 C232 1.574 . S
C224 C240 1.368 1_554 S
H225 C233 0.950 . S
H226 C231 0.950 . S
H227 C232 0.949 . S
H228 C234 0.950 1_554 S
H229 C235 0.950 . S
H230 C236 0.949 . S
C231 H226 0.950 . S
C231 C233 1.327 . S
C231 C237 1.453 . S
C232 C224 1.574 . S
C232 H227 0.949 . S
C232 C238 1.368 1_554 S
C233 C217 1.349 1_556 S
C233 H225 0.950 . S
C233 C231 1.327 . S
C234 C222 1.349 . S
C234 H228 0.950 1_556 S
C234 C235 1.327 1_556 S
C235 H229 0.950 . S
C235 C234 1.327 1_554 S
C235 C239 1.429 1_554 S
C236 C219 1.574 . S
C236 H230 0.949 . S
C236 C240 1.368 . S
C237 C218 1.404 1_556 S
C237 C231 1.453 . S
C237 C238 1.524 . S
C238 C219 1.368 . S
C238 C232 1.368 1_556 S
C238 C237 1.524 . S
C239 C223 1.429 . S
C239 C235 1.429 1_556 S
C239 C240 1.523 . S
C240 C224 1.368 1_556 S
C240 C236 1.368 . S
C240 C239 1.523 . S
H241 C216 0.950 . S
H242 C218 0.950 . S
H243 C219 0.949 . S
H244 C221 0.950 . S
H245 C223 0.950 . S
C246 C247 1.349 1_556 S
C246 C248 1.327 . S
C246 H271 0.950 . S
C247 C246 1.349 1_554 S
C247 C263 1.349 . S
C248 C246 1.327 . S
C248 C267 1.429 1_556 S
C248 H272 0.950 . S
C249 C266 1.574 . S
C249 C268 1.368 . S
C249 H273 0.949 . S
H250 C254 0.949 1_556 S
C251 C252 1.349 . S
C251 C253 1.327 . S
C251 H274 0.950 . S
C252 C251 1.349 . S
C252 C264 1.349 . S
C253 C251 1.327 . S
C253 C269 1.429 . S
C253 H275 0.950 . S
C254 H250 0.949 1_554 S
C254 C262 1.574 . S
C254 C270 1.368 . S
H255 C263 0.950 . S
H256 C261 0.950 . S
H257 C262 0.949 1_556 S
H258 C264 0.950 . S
H259 C265 0.950 . S
H260 C266 0.949 . S
C261 H256 0.950 . S
C261 C263 1.327 . S
C261 C267 1.429 . S
C262 C254 1.574 . S
C262 H257 0.949 1_554 S
C262 C268 1.368 . S
C263 C247 1.349 . S
C263 H255 0.950 . S
C263 C261 1.327 . S
C264 C252 1.349 . S
C264 H258 0.950 . S
C264 C265 1.327 . S
C265 H259 0.950 . S
C265 C264 1.327 . S
C265 C269 1.429 . S
C266 C249 1.574 . S
C266 H260 0.949 . S
C266 C270 1.368 . S
C267 C248 1.429 1_554 S
C267 C261 1.429 . S
C267 C268 1.523 . S
C268 C249 1.368 . S
C268 C262 1.368 . S
C268 C267 1.523 . S
C269 C253 1.429 . S
C269 C265 1.429 . S
C269 C270 1.523 . S
C270 C254 1.368 . S
C270 C266 1.368 . S
C270 C269 1.523 . S
H271 C246 0.950 . S
H272 C248 0.950 . S
H273 C249 0.949 . S
H274 C251 0.950 . S
H275 C253 0.950 . S
C276 C277 1.349 . S
C276 C278 1.327 . S
C276 H301 0.950 . S
C277 C276 1.349 . S
C277 C293 1.349 1_554 S
C278 C276 1.327 . S
C278 C297 1.429 1_554 S
C278 H302 0.950 . S
C279 C296 1.574 . S
C279 C298 1.368 . S
C279 H303 0.949 . S
H280 C284 0.967 . S
C281 C282 1.349 . S
C281 C283 1.327 . S
C281 H304 0.950 . S
C282 C281 1.349 . S
C282 C294 1.349 . S
C283 C281 1.327 . S
C283 C299 1.429 . S
C283 H305 0.950 . S
C284 H280 0.967 . S
C284 C292 1.585 . S
C284 C300 1.340 1_554 S
H285 C293 0.950 . S
H286 C291 0.950 . S
H287 C292 0.949 . S
H288 C294 0.950 . S
H289 C295 0.950 1_554 S
H290 C296 0.949 . S
C291 H286 0.950 . S
C291 C293 1.327 . S
C291 C297 1.429 . S
C292 C284 1.585 . S
C292 H287 0.949 . S
C292 C298 1.368 1_554 S
C293 C277 1.349 1_556 S
C293 H285 0.950 . S
C293 C291 1.327 . S
C294 C282 1.349 . S
C294 H288 0.950 . S
C294 C295 1.327 . S
C295 H289 0.950 1_556 S
C295 C294 1.327 . S
C295 C299 1.429 . S
C296 C279 1.574 . S
C296 H290 0.949 . S
C296 C300 1.368 . S
C297 C278 1.429 1_556 S
C297 C291 1.429 . S
C297 C298 1.523 . S
C298 C279 1.368 . S
C298 C292 1.368 1_556 S
C298 C297 1.523 . S
C299 C283 1.429 . S
C299 C295 1.429 . S
C299 C300 1.523 . S
C300 C284 1.340 1_556 S
C300 C296 1.368 . S
C300 C299 1.523 . S
H301 C276 0.950 . S
H302 C278 0.950 . S
H303 C279 0.949 . S
H304 C281 0.950 . S
H305 C283 0.950 . S
C306 C307 1.349 . S
C306 C308 1.327 . S
C306 H331 0.950 . S
C307 C306 1.349 . S
C307 C323 1.349 . S
C308 C306 1.327 . S
C308 C327 1.429 . S
C308 H332 0.950 . S
C309 C326 1.574 . S
C309 C328 1.368 . S
C309 H333 0.949 . S
H310 C314 0.949 . S
C311 C312 1.349 . S
C311 C313 1.327 . S
C311 H334 0.950 . S
C312 C311 1.349 . S
C312 C324 1.349 . S
C313 C311 1.327 . S
C313 C329 1.429 . S
C313 H335 0.950 . S
C314 H310 0.949 . S
C314 C322 1.574 . S
C314 C330 1.368 . S
H315 C323 0.950 . S
H316 C321 0.950 . S
H317 C322 0.949 . S
H318 C324 0.950 . S
H319 C325 0.950 . S
H320 C326 0.949 . S
C321 H316 0.950 . S
C321 C323 1.327 . S
C321 C327 1.429 . S
C322 C314 1.574 . S
C322 H317 0.949 . S
C322 C328 1.368 . S
C323 C307 1.349 . S
C323 H315 0.950 . S
C323 C321 1.327 . S
C324 C312 1.349 . S
C324 H318 0.950 . S
C324 C325 1.327 . S
C325 H319 0.950 . S
C325 C324 1.327 . S
C325 C329 1.429 . S
C326 C309 1.574 . S
C326 H320 0.949 . S
C326 C330 1.368 . S
C327 C308 1.429 . S
C327 C321 1.429 . S
C327 C328 1.523 . S
C328 C309 1.368 . S
C328 C322 1.368 . S
C328 C327 1.523 . S
C329 C313 1.429 . S
C329 C325 1.429 . S
C329 C330 1.523 . S
C330 C314 1.368 . S
C330 C326 1.368 . S
C330 C329 1.523 . S
H331 C306 0.950 . S
H332 C308 0.950 . S
H333 C309 0.949 . S
H334 C311 0.950 . S
H335 C313 0.950 . S
C336 C337 1.349 . S
C336 C338 1.327 . S
C336 H361 0.950 . S
C337 C336 1.349 . S
C337 C353 1.349 . S
C338 C336 1.327 . S
C338 C357 1.429 . S
C338 H362 0.950 . S
C339 C356 1.574 . S
C339 C358 1.368 . S
C339 H363 0.949 . S
H340 C344 0.949 . S
C341 C342 1.349 . S
C341 C343 1.327 . S
C341 H364 0.950 . S
C342 C341 1.349 . S
C342 C354 1.349 . S
C343 C341 1.327 . S
C343 C359 1.429 . S
C343 H365 0.950 . S
C344 H340 0.949 . S
C344 C352 1.574 . S
C344 C360 1.368 . S
H345 C353 0.950 . S
H346 C351 0.950 . S
H347 C352 0.949 . S
H348 C354 0.950 . S
H349 C355 0.950 . S
H350 C356 0.949 . S
C351 H346 0.950 . S
C351 C353 1.327 . S
C351 C357 1.429 . S
C352 C344 1.574 . S
C352 H347 0.949 . S
C352 C358 1.368 . S
C353 C337 1.349 . S
C353 H345 0.950 . S
C353 C351 1.327 . S
C354 C342 1.349 . S
C354 H348 0.950 . S
C354 C355 1.327 . S
C355 H349 0.950 . S
C355 C354 1.327 . S
C355 C359 1.429 . S
C356 C339 1.574 . S
C356 H350 0.949 . S
C356 C360 1.368 . S
C357 C338 1.429 . S
C357 C351 1.429 . S
C357 C358 1.523 . S
C358 C339 1.368 . S
C358 C352 1.368 . S
C358 C357 1.523 . S
C359 C343 1.429 . S
C359 C355 1.429 . S
C359 C360 1.523 . S
C360 C344 1.368 . S
C360 C356 1.368 . S
C360 C359 1.523 . S
H361 C336 0.950 . S
H362 C338 0.950 . S
H363 C339 0.949 . S
H364 C341 0.950 . S
H365 C343 0.950 . S
C366 C367 1.349 . S
C366 C368 1.327 . S
C366 H391 0.950 . S
C367 C366 1.349 . S
C367 C383 1.349 . S
C368 C366 1.327 . S
C368 C387 1.429 . S
C368 H392 0.950 . S
C369 C386 1.574 . S
C369 C388 1.368 . S
C369 H393 0.949 . S
H370 C374 0.949 . S
C371 C372 1.349 . S
C371 C373 1.327 . S
C371 H394 0.950 . S
C372 C371 1.349 . S
C372 C384 1.349 . S
C373 C371 1.327 . S
C373 C389 1.429 . S
C373 H395 0.950 . S
C374 H370 0.949 . S
C374 C382 1.574 . S
C374 C390 1.368 . S
H375 C383 0.950 . S
H376 C381 0.950 . S
H377 C382 0.949 . S
H378 C384 0.950 . S
H379 C385 0.950 . S
H380 C386 0.949 . S
C381 H376 0.950 . S
C381 C383 1.327 . S
C381 C387 1.429 . S
C382 C374 1.574 . S
C382 H377 0.949 . S
C382 C388 1.368 . S
C383 C367 1.349 . S
C383 H375 0.950 . S
C383 C381 1.327 . S
C384 C372 1.349 . S
C384 H378 0.950 . S
C384 C385 1.327 . S
C385 H379 0.950 . S
C385 C384 1.327 . S
C385 C389 1.429 . S
C386 C369 1.574 . S
C386 H380 0.949 . S
C386 C390 1.368 . S
C387 C368 1.429 . S
C387 C381 1.429 . S
C387 C388 1.523 . S
C388 C369 1.368 . S
C388 C382 1.368 . S
C388 C387 1.523 . S
C389 C373 1.429 . S
C389 C385 1.429 . S
C389 C390 1.523 . S
C390 C374 1.368 . S
C390 C386 1.368 . S
C390 C389 1.523 . S
H391 C366 0.950 . S
H392 C368 0.950 . S
H393 C369 0.949 . S
H394 C371 0.950 . S
H395 C373 0.950 . S
C396 C397 1.349 . S
C396 C398 1.327 . S
C396 H421 0.950 . S
C397 C396 1.349 . S
C397 C413 1.349 . S
C398 C396 1.327 . S
C398 C417 1.429 . S
C398 H422 0.950 . S
C399 C416 1.574 . S
C399 C418 1.368 . S
C399 H423 0.949 . S
H400 C404 0.949 . S
C401 C402 1.349 . S
C401 C403 1.327 . S
C401 H424 0.950 . S
C402 C401 1.349 . S
C402 C414 1.349 . S
C403 C401 1.327 . S
C403 C419 1.429 . S
C403 H425 0.950 . S
C404 H400 0.949 . S
C404 C412 1.574 . S
C404 C420 1.368 . S
H405 C413 0.950 . S
H406 C411 0.950 . S
H407 C412 0.949 . S
H408 C414 0.950 . S
H409 C415 0.950 . S
H410 C416 0.949 . S
C411 H406 0.950 . S
C411 C413 1.327 . S
C411 C417 1.429 . S
C412 C404 1.574 . S
C412 H407 0.949 . S
C412 C418 1.368 . S
C413 C397 1.349 . S
C413 H405 0.950 . S
C413 C411 1.327 . S
C414 C402 1.349 . S
C414 H408 0.950 . S
C414 C415 1.327 . S
C415 H409 0.950 . S
C415 C414 1.327 . S
C415 C419 1.429 . S
C416 C399 1.574 . S
C416 H410 0.949 . S
C416 C420 1.368 . S
C417 C398 1.429 . S
C417 C411 1.429 . S
C417 C418 1.523 . S
C418 C399 1.368 . S
C418 C412 1.368 . S
C418 C417 1.523 . S
C419 C403 1.429 . S
C419 C415 1.429 . S
C419 C420 1.523 . S
C420 C404 1.368 . S
C420 C416 1.368 . S
C420 C419 1.523 . S
H421 C396 0.950 . S
H422 C398 0.950 . S
H423 C399 0.949 . S
H424 C401 0.950 . S
H425 C403 0.950 . S
C426 C427 1.349 1_565 S
C426 C428 1.327 . S
C426 H451 0.950 . S
C427 C426 1.349 1_545 S
C427 C443 1.349 . S
C428 C426 1.327 . S
C428 C447 1.429 1_565 S
C428 H452 0.950 . S
C429 C446 1.574 . S
C429 C448 1.368 . S
C429 H453 0.949 . S
H430 C434 0.949 . S
C431 C432 1.349 1_545 S
C431 C433 1.327 . S
C431 H454 0.950 . S
C432 C431 1.349 1_565 S
C432 C444 1.349 . S
C433 C431 1.327 . S
C433 C449 1.429 . S
C433 H455 0.950 . S
C434 H430 0.949 . S
C434 C442 1.574 . S
C434 C450 1.368 1_565 S
H435 C443 0.950 . S
H436 C441 0.950 . S
H437 C442 0.949 . S
H438 C444 0.950 . S
H439 C445 0.950 . S
H440 C446 0.949 . S
C441 H436 0.950 . S
C441 C443 1.327 . S
C441 C447 1.429 . S
C442 C434 1.574 . S
C442 H437 0.949 . S
C442 C448 1.368 1_565 S
C443 C427 1.349 . S
C443 H435 0.950 . S
C443 C441 1.327 . S
C444 C432 1.349 . S
C444 H438 0.950 . S
C444 C445 1.327 . S
C445 H439 0.950 . S
C445 C444 1.327 . S
C445 C449 1.429 1_565 S
C446 C429 1.574 . S
C446 H440 0.949 . S
C446 C450 1.368 . S
C447 C428 1.429 1_545 S
C447 C441 1.429 . S
C447 C448 1.523 . S
C448 C429 1.368 . S
C448 C442 1.368 1_545 S
C448 C447 1.523 . S
C449 C433 1.429 . S
C449 C445 1.429 1_545 S
C449 C450 1.523 . S
C450 C434 1.368 1_545 S
C450 C446 1.368 . S
C450 C449 1.523 . S
H451 C426 0.950 . S
H452 C428 0.950 . S
H453 C429 0.949 . S
H454 C431 0.950 . S
H455 C433 0.950 . S
C456 C457 1.349 . S
C456 C458 1.327 . S
C456 H481 0.950 . S
C457 C456 1.349 . S
C457 C473 1.349 . S
C458 C456 1.327 . S
C458 C477 1.429 . S
C458 H482 0.950 . S
C459 C476 1.574 1_455 S
C459 C478 1.368 . S
C459 H483 0.949 1_455 S
H460 C464 0.949 . S
C461 C462 1.349 1_655 S
C461 C463 1.327 . S
C461 H484 0.950 . S
C462 C461 1.349 1_455 S
C462 C474 1.349 . S
C463 C461 1.327 . S
C463 C479 1.429 1_655 S
C463 H485 0.950 . S
C464 H460 0.949 . S
C464 C472 1.574 . S
C464 C480 1.368 . S
H465 C473 0.960 1_565 S
H466 C471 0.950 1_655 S
H467 C472 0.949 . S
H468 C474 0.950 . S
H469 C475 0.950 . S
H470 C476 0.949 . S
C471 H466 0.950 1_455 S
C471 C473 1.327 . S
C471 C477 1.429 . S
C472 C464 1.574 . S
C472 H467 0.949 . S
C472 C478 1.368 . S
C473 C457 1.349 . S
C473 H465 0.960 1_545 S
C473 C471 1.327 . S
C474 C462 1.349 . S
C474 H468 0.950 . S
C474 C475 1.327 . S
C475 H469 0.950 . S
C475 C474 1.327 . S
C475 C479 1.429 . S
C476 C459 1.574 1_655 S
C476 H470 0.949 . S
C476 C480 1.368 1_655 S
C477 C458 1.429 . S
C477 C471 1.429 . S
C477 C478 1.523 . S
C478 C459 1.368 . S
C478 C472 1.368 . S
C478 C477 1.523 . S
C479 C463 1.429 1_455 S
C479 C475 1.429 . S
C479 C480 1.523 . S
C480 C464 1.368 . S
C480 C476 1.368 1_455 S
C480 C479 1.523 . S
H481 C456 0.950 . S
H482 C458 0.950 . S
H483 C459 0.949 1_655 S
H484 C461 0.950 . S
H485 C463 0.950 . S
C486 C487 1.349 . S
C486 C488 1.327 . S
C486 H511 0.950 . S
C487 C486 1.349 . S
C487 C503 1.349 . S
C488 C486 1.327 . S
C488 C507 1.429 . S
C488 H512 0.950 . S
C489 C506 1.574 . S
C489 C508 1.368 . S
C489 H513 0.949 . S
H490 C494 0.949 . S
C491 C492 1.349 . S
C491 C493 1.327 . S
C491 H514 0.950 . S
C492 C491 1.349 . S
C492 C504 1.349 . S
C493 C491 1.327 . S
C493 C509 1.429 . S
C493 H515 0.950 . S
C494 H490 0.949 . S
C494 C502 1.574 . S
C494 C510 1.368 . S
H495 C503 0.950 . S
H496 C501 0.950 . S
H497 C502 0.949 . S
H498 C504 0.950 . S
H499 C505 0.950 . S
H500 C506 0.949 . S
C501 H496 0.950 . S
C501 C503 1.327 . S
C501 C507 1.429 . S
C502 C494 1.574 . S
C502 H497 0.949 . S
C502 C508 1.368 . S
C503 C487 1.349 . S
C503 H495 0.950 . S
C503 C501 1.327 . S
C504 C492 1.349 . S
C504 H498 0.950 . S
C504 C505 1.327 . S
C505 H499 0.950 . S
C505 C504 1.327 . S
C505 C509 1.429 . S
C506 C489 1.574 . S
C506 H500 0.949 . S
C506 C510 1.368 . S
C507 C488 1.429 . S
C507 C501 1.429 . S
C507 C508 1.523 . S
C508 C489 1.368 . S
C508 C502 1.368 . S
C508 C507 1.523 . S
C509 C493 1.429 . S
C509 C505 1.429 . S
C509 C510 1.523 . S
C510 C494 1.368 . S
C510 C506 1.368 . S
C510 C509 1.523 . S
H511 C486 0.950 . S
H512 C488 0.950 . S
H513 C489 0.949 . S
H514 C491 0.950 . S
H515 C493 0.950 . S
C516 C517 1.349 . S
C516 C518 1.327 . S
C516 H541 0.950 . S
C517 C516 1.349 . S
C517 C533 1.349 . S
C518 C516 1.327 . S
C518 C537 1.429 . S
C518 H542 0.950 . S
C519 C536 1.574 . S
C519 C538 1.368 . S
C519 H543 0.949 . S
H520 C524 0.949 . S
C521 C522 1.349 . S
C521 C523 1.327 . S
C521 H544 0.950 . S
C522 C521 1.349 . S
C522 C534 1.349 . S
C523 C521 1.327 . S
C523 C539 1.429 . S
C523 H545 0.950 . S
C524 H520 0.949 . S
C524 C532 1.574 . S
C524 C540 1.368 . S
H525 C533 0.950 . S
H526 C531 0.950 . S
H527 C532 0.949 . S
H528 C534 0.950 . S
H529 C535 0.950 . S
H530 C536 0.949 . S
C531 H526 0.950 . S
C531 C533 1.327 . S
C531 C537 1.429 . S
C532 C524 1.574 . S
C532 H527 0.949 . S
C532 C538 1.368 . S
C533 C517 1.349 . S
C533 H525 0.950 . S
C533 C531 1.327 . S
C534 C522 1.349 . S
C534 H528 0.950 . S
C534 C535 1.327 . S
C535 H529 0.950 . S
C535 C534 1.327 . S
C535 C539 1.429 . S
C536 C519 1.574 . S
C536 H530 0.949 . S
C536 C540 1.368 . S
C537 C518 1.429 . S
C537 C531 1.429 . S
C537 C538 1.523 . S
C538 C519 1.368 . S
C538 C532 1.368 . S
C538 C537 1.523 . S
C539 C523 1.429 . S
C539 C535 1.429 . S
C539 C540 1.523 . S
C540 C524 1.368 . S
C540 C536 1.368 . S
C540 C539 1.523 . S
H541 C516 0.950 . S
H542 C518 0.950 . S
H543 C519 0.949 . S
H544 C521 0.950 . S
H545 C523 0.950 . S
C192 C151 1.397 . S
C187 C15 1.248 . S
C217 C13 1.464 . S
C222 C115 1.459 . S
C247 C18 1.269 . S
C252 C175 1.420 . S
C277 C17 1.276 . S
C282 C139 1.306 . S
C307 C36 1.248 . S
C312 C79 1.398 . S
C337 C34 1.464 . S
C342 C43 1.459 . S
C372 C103 1.420 . S
C367 C39 1.268 . S
C402 C67 1.306 . S
C397 C38 1.276 . S
C427 C14 1.515 . S
C432 C73 1.557 1_565 S
C457 C16 1.365 . S
C462 C109 1.403 . S
C492 C145 1.557 . S
C487 C35 1.515 . S
C517 C37 1.365 . S
C522 C181 1.403 . S
