# Generated by pormake.
# Topology anh, (6,3)-cn, num edge types: 1
# Building blocks:
#     Node 0, Type 0, BuildingBlock: MIFKUJ_clean_sbu_0, # of connection points: 6
#     Node 1, Type 0, BuildingBlock: MIFKUJ_clean_sbu_0, # of connection points: 6
#     Node 2, Type 0, BuildingBlock: MIFKUJ_clean_sbu_0, # of connection points: 6
#     Node 3, Type 1, BuildingBlock: BETDIP_clean_linker_0, # of connection points: 3
#     Node 4, Type 1, BuildingBlock: BETDIP_clean_linker_0, # of connection points: 3
#     Node 5, Type 1, BuildingBlock: BETDIP_clean_linker_0, # of connection points: 3
#     Node 6, Type 1, BuildingBlock: BETDIP_clean_linker_0, # of connection points: 3
#     Node 7, Type 1, BuildingBlock: BETDIP_clean_linker_0, # of connection points: 3
#     Node 8, Type 1, BuildingBlock: BETDIP_clean_linker_0, # of connection points: 3
#     Edge 9, Type (0, 1), BuildingBlock: ZUJKAS_clean_linker_0, # of connection points: 2
#     Edge 10, Type (0, 1), BuildingBlock: ZUJKAS_clean_linker_0, # of connection points: 2
#     Edge 11, Type (0, 1), BuildingBlock: ZUJKAS_clean_linker_0, # of connection points: 2
#     Edge 12, Type (0, 1), BuildingBlock: ZUJKAS_clean_linker_0, # of connection points: 2
#     Edge 13, Type (0, 1), BuildingBlock: ZUJKAS_clean_linker_0, # of connection points: 2
#     Edge 14, Type (0, 1), BuildingBlock: ZUJKAS_clean_linker_0, # of connection points: 2
#     Edge 15, Type (0, 1), BuildingBlock: ZUJKAS_clean_linker_0, # of connection points: 2
#     Edge 16, Type (0, 1), BuildingBlock: ZUJKAS_clean_linker_0, # of connection points: 2
#     Edge 17, Type (0, 1), BuildingBlock: ZUJKAS_clean_linker_0, # of connection points: 2
#     Edge 18, Type (0, 1), BuildingBlock: ZUJKAS_clean_linker_0, # of connection points: 2
#     Edge 19, Type (0, 1), BuildingBlock: ZUJKAS_clean_linker_0, # of connection points: 2
#     Edge 20, Type (0, 1), BuildingBlock: ZUJKAS_clean_linker_0, # of connection points: 2
#     Edge 21, Type (0, 1), BuildingBlock: ZUJKAS_clean_linker_0, # of connection points: 2
#     Edge 22, Type (0, 1), BuildingBlock: ZUJKAS_clean_linker_0, # of connection points: 2
#     Edge 23, Type (0, 1), BuildingBlock: ZUJKAS_clean_linker_0, # of connection points: 2
#     Edge 24, Type (0, 1), BuildingBlock: ZUJKAS_clean_linker_0, # of connection points: 2
#     Edge 25, Type (0, 1), BuildingBlock: ZUJKAS_clean_linker_0, # of connection points: 2
#     Edge 26, Type (0, 1), BuildingBlock: ZUJKAS_clean_linker_0, # of connection points: 2
# Relax obj value: 0.085
# Max RMSD: 0.182
# Mean RMSD: 0.116
data_MOF--net-anh--node1-MIFKUJ_clean_sbu_0--node2-BETDIP_clean_linker_0--edge1-ZUJKAS_clean_linker_0
_symmetry_space_group_name_H-M    P1
_symmetry_Int_Tables_number       1
_symmetry_cell_setting            triclinic
loop_
_symmetry_equiv_pos_as_xyz
'x, y, z'
_cell_length_a     40.331926
_cell_length_b     40.408024
_cell_length_c     62.253657
_cell_angle_alpha  97.439287
_cell_angle_beta   90.757714
_cell_angle_gamma 119.7779
loop_
_atom_site_label
_atom_site_type_symbol
_atom_site_fract_x
_atom_site_fract_y
_atom_site_fract_z
_atom_type_partial_charge
Zn0 Zn 0.06816 0.58954 0.16347 0.0
Zn1 Zn 0.97701 0.51116 0.15677 0.0
C2 C 0.12737 0.57414 0.1745 0.0
O3 O 0.12658 0.59368 0.19289 0.0
C4 C 0.92598 0.5358 0.14332 0.0
O5 O 0.92258 0.51168 0.12597 0.0
O6 O 0.10445 0.64608 0.16542 0.0
O7 O 0.03287 0.57792 0.13692 0.0
O8 O 0.00482 0.51492 0.12979 0.0
C9 C 0.12368 0.65586 0.14906 0.0
O10 O 0.11854 0.62894 0.13289 0.0
O11 O 0.1028 0.56617 0.15872 0.0
C12 C 0.90969 0.45396 0.16867 0.0
O13 O 0.92072 0.48273 0.18478 0.0
O14 O 0.93132 0.45791 0.15339 0.0
O15 O 0.00415 0.51765 0.1857 0.0
O16 O 0.04676 0.58016 0.19252 0.0
O17 O 0.95127 0.544 0.15871 0.0
C18 C 0.02195 0.54744 0.12337 0.0
C19 C 0.02607 0.54802 0.19902 0.0
Zn20 Zn 0.53016 0.07678 0.50117 0.0
Zn21 Zn 0.51449 0.97791 0.49474 0.0
C22 C 0.60651 0.1378 0.50931 0.0
O23 O 0.59215 0.14032 0.52787 0.0
C24 C 0.43815 0.91542 0.47842 0.0
O25 O 0.45657 0.91067 0.46214 0.0
O26 O 0.51101 0.11417 0.5038 0.0
O27 O 0.49736 0.03551 0.47607 0.0
O28 O 0.53045 0.00639 0.46912 0.0
C29 C 0.51311 0.12979 0.48702 0.0
O30 O 0.52524 0.11892 0.4695 0.0
O31 O 0.5854 0.10993 0.49427 0.0
C32 C 0.52547 0.91764 0.50461 0.0
O33 O 0.50477 0.91918 0.52042 0.0
O34 O 0.53438 0.94121 0.49117 0.0
O35 O 0.53248 0.00657 0.52526 0.0
O36 O 0.53067 0.0611 0.53048 0.0
O37 O 0.45657 0.94377 0.49366 0.0
C38 C 0.51445 0.02407 0.4628 0.0
C39 C 0.53501 0.03538 0.53776 0.0
Zn40 Zn 0.55548 0.49499 0.83695 0.0
Zn41 Zn 0.47223 0.51038 0.83027 0.0
C42 C 0.53478 0.42155 0.84758 0.0
O43 O 0.5485 0.44366 0.86662 0.0
C44 C 0.48108 0.57442 0.8108 0.0
O45 O 0.45623 0.54574 0.79616 0.0
O46 O 0.61204 0.51565 0.84045 0.0
O47 O 0.54822 0.51619 0.8109 0.0
O48 O 0.48547 0.4821 0.80609 0.0
C49 C 0.62757 0.51173 0.8234 0.0
O50 O 0.60613 0.4951 0.80486 0.0
O51 O 0.53278 0.43672 0.83125 0.0
C52 C 0.39293 0.48131 0.84051 0.0
O53 O 0.40569 0.48197 0.86017 0.0
O54 O 0.41561 0.48974 0.82559 0.0
O55 O 0.48549 0.50957 0.86147 0.0
O56 O 0.54021 0.50939 0.86564 0.0
O57 O 0.49479 0.56672 0.82672 0.0
C58 C 0.51742 0.50224 0.79873 0.0
C59 C 0.51238 0.51168 0.87353 0.0
H60 H 0.45862 0.05833 0.17728 0.0
H61 H 0.53178 0.11277 0.23691 0.0
H62 H 0.43055 0.0016 0.23379 0.0
H63 H 0.54108 0.1674 0.22239 0.0
C64 C 0.54627 0.15868 0.20611 0.0
C65 C 0.46497 0.05783 0.19417 0.0
C66 C 0.44039 0.02621 0.20416 0.0
C67 C 0.49731 0.08949 0.206 0.0
C68 C 0.50591 0.08909 0.22791 0.0
C69 C 0.48203 0.05732 0.23801 0.0
C70 C 0.44922 0.02615 0.22605 0.0
N71 N 0.52169 0.1206 0.19519 0.0
H72 H 0.56017 0.52432 0.51031 0.0
H73 H 0.5711 0.59129 0.5724 0.0
H74 H 0.52314 0.4686 0.56664 0.0
H75 H 0.56998 0.5757 0.49668 0.0
C76 C 0.58062 0.60065 0.50931 0.0
C77 C 0.55604 0.52616 0.52744 0.0
C78 C 0.5398 0.49225 0.53684 0.0
C79 C 0.56709 0.56195 0.5403 0.0
C80 C 0.5625 0.56363 0.56258 0.0
C81 C 0.54594 0.53 0.57211 0.0
C82 C 0.53458 0.49445 0.55913 0.0
N83 N 0.58236 0.59695 0.53162 0.0
H84 H 0.03447 0.59609 0.83758 0.0
H85 H 0.10434 0.60688 0.89376 0.0
H86 H 0.98992 0.5858 0.9003 0.0
H87 H 0.15318 0.64636 0.87177 0.0
C88 C 0.14111 0.6234 0.85783 0.0
C89 C 0.03829 0.59703 0.85496 0.0
C90 C 0.00811 0.59076 0.86791 0.0
C91 C 0.0732 0.60345 0.86419 0.0
C92 C 0.07783 0.60309 0.8866 0.0
C93 C 0.04785 0.5967 0.89974 0.0
C94 C 0.01329 0.59098 0.89028 0.0
N95 N 0.10196 0.60679 0.8503 0.0
H96 H 0.04505 0.56115 0.49281 0.0
H97 H 0.98043 0.49616 0.43153 0.0
H98 H 0.09365 0.59357 0.43265 0.0
H99 H 0.93195 0.49658 0.45347 0.0
C100 C 0.93867 0.48392 0.46604 0.0
C101 C 0.04277 0.55628 0.47519 0.0
C102 C 0.07365 0.58049 0.46399 0.0
C103 C 0.0087 0.526 0.46354 0.0
C104 C 0.00607 0.52003 0.44063 0.0
C105 C 0.03662 0.5441 0.42935 0.0
C106 C 0.07026 0.5741 0.44119 0.0
N107 N 0.9775 0.50126 0.47483 0.0
H108 H 0.51117 0.02953 0.82872 0.0
H109 H 0.51481 0.97159 0.7664 0.0
H110 H 0.5365 0.08782 0.77281 0.0
H111 H 0.46241 0.92096 0.78188 0.0
C112 C 0.48075 0.92523 0.79616 0.0
C113 C 0.51557 0.0297 0.81159 0.0
C114 C 0.5244 0.06279 0.80226 0.0
C115 C 0.51193 0.99657 0.79868 0.0
C116 C 0.51749 0.99694 0.77641 0.0
C117 C 0.5261 0.02964 0.76693 0.0
C118 C 0.52981 0.06242 0.78003 0.0
N119 N 0.50308 0.96313 0.80814 0.0
H120 H 0.49184 0.54924 0.16794 0.0
H121 H 0.54776 0.53971 0.11098 0.0
H122 H 0.44131 0.53896 0.10422 0.0
H123 H 0.54579 0.49071 0.13744 0.0
C124 C 0.5655 0.5179 0.14768 0.0
C125 C 0.49273 0.54672 0.15044 0.0
C126 C 0.46254 0.54393 0.13714 0.0
C127 C 0.52301 0.54402 0.14093 0.0
C128 C 0.52386 0.54056 0.11823 0.0
C129 C 0.4949 0.53942 0.10494 0.0
C130 C 0.46423 0.54072 0.1145 0.0
N131 N 0.55261 0.54452 0.15396 0.0
H132 H 0.14983 0.55073 0.13674 0.0
H133 H 0.2059 0.54245 0.13275 0.0
H134 H 0.23288 0.5704 0.20227 0.0
H135 H 0.17718 0.57873 0.2064 0.0
H136 H 0.2845 0.60135 0.14754 0.0
H137 H 0.23689 0.46948 0.18546 0.0
H138 H 0.20379 0.48309 0.17553 0.0
H139 H 0.23205 0.50729 0.20105 0.0
C140 C 0.16736 0.55454 0.15119 0.0
C141 C 0.15891 0.56531 0.17189 0.0
C142 C 0.1995 0.54997 0.14889 0.0
C143 C 0.22344 0.55552 0.16723 0.0
C144 C 0.21458 0.56546 0.18791 0.0
H145 H 0.45969 0.59805 0.16749 0.0
H146 H 0.40214 0.60139 0.17689 0.0
C147 C 0.18273 0.57034 0.19022 0.0
C148 C 0.25872 0.55279 0.16476 0.0
H149 H 0.3016 0.50193 0.17704 0.0
C150 C 0.28826 0.57963 0.15399 0.0
C151 C 0.26356 0.52439 0.17315 0.0
C152 C 0.23234 0.49417 0.18431 0.0
C153 C 0.32255 0.57896 0.15148 0.0
C154 C 0.3276 0.55085 0.1601 0.0
C155 C 0.29793 0.52381 0.17073 0.0
C156 C 0.36225 0.54733 0.15668 0.0
C157 C 0.35282 0.60776 0.13917 0.0
C158 C 0.35879 0.51521 0.14293 0.0
C159 C 0.39142 0.51332 0.1376 0.0
C160 C 0.42825 0.5433 0.14608 0.0
C161 C 0.43165 0.57446 0.16085 0.0
C162 C 0.39886 0.57652 0.16605 0.0
H163 H 0.34189 0.62317 0.1304 0.0
H164 H 0.37748 0.6295 0.15077 0.0
H165 H 0.36351 0.59317 0.12723 0.0
H166 H 0.3309 0.4923 0.13558 0.0
H167 H 0.388 0.48894 0.1262 0.0
H168 H 0.65927 0.19707 0.5393 0.0
H169 H 0.71857 0.25382 0.53288 0.0
H170 H 0.6998 0.20863 0.46446 0.0
H171 H 0.64021 0.1512 0.47076 0.0
H172 H 0.77817 0.24401 0.48254 0.0
H173 H 0.71555 0.33803 0.50335 0.0
H174 H 0.71345 0.30979 0.52387 0.0
H175 H 0.68669 0.28607 0.49786 0.0
C176 C 0.66783 0.19889 0.52288 0.0
C177 C 0.64473 0.16968 0.5055 0.0
C178 C 0.70174 0.2315 0.51925 0.0
C179 C 0.71325 0.23584 0.49815 0.0
C180 C 0.69132 0.20595 0.48087 0.0
H181 H 0.86438 0.44757 0.45063 0.0
H182 H 0.81135 0.3871 0.45887 0.0
C183 C 0.6573 0.17313 0.4845 0.0
C184 C 0.74717 0.27237 0.49411 0.0
H185 H 0.78154 0.36929 0.49782 0.0
C186 C 0.77898 0.27143 0.48587 0.0
C187 C 0.74799 0.30807 0.49826 0.0
C188 C 0.71401 0.3107 0.50613 0.0
C189 C 0.81174 0.30532 0.48184 0.0
C190 C 0.81285 0.34114 0.48643 0.0
C191 C 0.78089 0.34193 0.49454 0.0
C192 C 0.84575 0.37786 0.48168 0.0
C193 C 0.84447 0.30238 0.4722 0.0
C194 C 0.88282 0.39319 0.49197 0.0
C195 C 0.91333 0.42797 0.48726 0.0
C196 C 0.90712 0.44798 0.47227 0.0
C197 C 0.86997 0.43279 0.46227 0.0
C198 C 0.83964 0.39821 0.46695 0.0
H199 H 0.83571 0.2722 0.46514 0.0
H200 H 0.85576 0.32083 0.45932 0.0
H201 H 0.8681 0.31254 0.48514 0.0
H202 H 0.8881 0.37841 0.50371 0.0
H203 H 0.94166 0.43901 0.49524 0.0
H204 H 0.45151 0.59836 0.78061 0.0
H205 H 0.457 0.66152 0.78181 0.0
H206 H 0.53162 0.70376 0.84112 0.0
H207 H 0.52629 0.64036 0.84011 0.0
H208 H 0.43509 0.69728 0.81843 0.0
H209 H 0.58693 0.78876 0.80125 0.0
H210 H 0.56122 0.73687 0.79371 0.0
H211 H 0.57764 0.7581 0.82163 0.0
C212 C 0.46958 0.62114 0.79378 0.0
C213 C 0.4884 0.61417 0.8103 0.0
C214 C 0.4726 0.65726 0.79445 0.0
C215 C 0.4948 0.68738 0.81149 0.0
C216 C 0.51467 0.68103 0.82768 0.0
H217 H 0.52641 0.92228 0.82866 0.0
H218 H 0.53039 0.86548 0.83517 0.0
C219 C 0.51153 0.64475 0.82709 0.0
C220 C 0.49488 0.7244 0.81287 0.0
H221 H 0.55018 0.81922 0.807 0.0
C222 C 0.46032 0.72401 0.81607 0.0
C223 C 0.52792 0.75932 0.81006 0.0
C224 C 0.5656 0.76109 0.80634 0.0
C225 C 0.45766 0.75736 0.81608 0.0
C226 C 0.49023 0.79193 0.81227 0.0
C227 C 0.52521 0.79272 0.80987 0.0
C228 C 0.48761 0.82642 0.80895 0.0
C229 C 0.41985 0.75517 0.82012 0.0
C230 C 0.4626 0.82344 0.79196 0.0
C231 C 0.46024 0.8556 0.78829 0.0
C232 C 0.48302 0.8916 0.8014 0.0
C233 C 0.50827 0.89481 0.8184 0.0
C234 C 0.51065 0.86244 0.82208 0.0
H235 H 0.40235 0.73172 0.82959 0.0
H236 H 0.42419 0.78287 0.82903 0.0
H237 H 0.40327 0.74881 0.80429 0.0
H238 H 0.44521 0.79627 0.78129 0.0
H239 H 0.44083 0.85239 0.77495 0.0
H240 H 0.87312 0.5284 0.11244 0.0
H241 H 0.8179 0.53696 0.11788 0.0
H242 H 0.85458 0.57584 0.18629 0.0
H243 H 0.91005 0.567 0.18099 0.0
H244 H 0.77889 0.51768 0.17844 0.0
H245 H 0.80514 0.63134 0.12905 0.0
H246 H 0.80917 0.5926 0.11414 0.0
H247 H 0.84247 0.62214 0.13744 0.0
C248 C 0.86998 0.53954 0.1286 0.0
C249 C 0.89617 0.54708 0.14627 0.0
C250 C 0.83839 0.54462 0.13166 0.0
C251 C 0.83219 0.5575 0.15245 0.0
C252 C 0.85887 0.56614 0.17006 0.0
H253 H 0.62948 0.58728 0.16567 0.0
H254 H 0.69603 0.60069 0.17013 0.0
C255 C 0.8907 0.56126 0.16699 0.0
C256 C 0.79608 0.55837 0.15592 0.0
H257 H 0.73975 0.59148 0.13696 0.0
C258 C 0.77064 0.53435 0.16965 0.0
C259 C 0.78532 0.5804 0.14468 0.0
C260 C 0.81214 0.60838 0.13067 0.0
C261 C 0.73407 0.53016 0.17149 0.0
C262 C 0.72232 0.55016 0.15909 0.0
C263 C 0.74853 0.57585 0.14632 0.0
C264 C 0.68202 0.54223 0.15772 0.0
C265 C 0.70803 0.50376 0.18643 0.0
C266 C 0.65209 0.50508 0.1492 0.0
C267 C 0.61437 0.49748 0.14661 0.0
C268 C 0.60553 0.52679 0.15245 0.0
C269 C 0.63534 0.564 0.16123 0.0
C270 C 0.67336 0.57171 0.1637 0.0
H271 H 0.72469 0.50042 0.19949 0.0
H272 H 0.6899 0.51474 0.19404 0.0
H273 H 0.68889 0.47475 0.17689 0.0
H274 H 0.65804 0.48205 0.14403 0.0
H275 H 0.59205 0.46863 0.13962 0.0
H276 H 0.38864 0.8562 0.44705 0.0
H277 H 0.32422 0.80364 0.4508 0.0
H278 H 0.33189 0.85337 0.51752 0.0
H279 H 0.39648 0.90633 0.51392 0.0
H280 H 0.30829 0.77165 0.51012 0.0
H281 H 0.22267 0.80647 0.45652 0.0
H282 H 0.2632 0.80674 0.44469 0.0
H283 H 0.27082 0.84171 0.46805 0.0
C284 C 0.37651 0.8563 0.46246 0.0
C285 C 0.39774 0.88559 0.48016 0.0
C286 C 0.3396 0.82626 0.46455 0.0
C287 C 0.32314 0.82474 0.48439 0.0
C288 C 0.344 0.8541 0.50204 0.0
H289 H 0.08232 0.64608 0.48812 0.0
H290 H 0.1429 0.70758 0.498 0.0
C291 C 0.38085 0.88442 0.49991 0.0
C292 C 0.28494 0.79138 0.48682 0.0
H293 H 0.19139 0.74286 0.46569 0.0
C294 C 0.28259 0.7656 0.50065 0.0
C295 C 0.25135 0.78374 0.47467 0.0
C296 C 0.25188 0.81127 0.46028 0.0
C297 C 0.24792 0.73137 0.50178 0.0
C298 C 0.21483 0.72266 0.48867 0.0
C299 C 0.21677 0.74945 0.4757 0.0
C300 C 0.17893 0.68456 0.48654 0.0
C301 C 0.24711 0.70449 0.51672 0.0
C302 C 0.17914 0.65106 0.47734 0.0
C303 C 0.14472 0.61615 0.4717 0.0
C304 C 0.10942 0.61398 0.47527 0.0
C305 C 0.10923 0.64688 0.48564 0.0
C306 C 0.14375 0.68202 0.4911 0.0
H307 H 0.27058 0.71998 0.53007 0.0
H308 H 0.21923 0.69037 0.52392 0.0
H309 H 0.25103 0.68162 0.50728 0.0
H310 H 0.20577 0.65241 0.47327 0.0
H311 H 0.1455 0.59133 0.46335 0.0
H312 H 0.52329 0.37192 0.80996 0.0
H313 H 0.51627 0.30764 0.8068 0.0
H314 H 0.51913 0.31495 0.8766 0.0
H315 H 0.52704 0.37938 0.8799 0.0
H316 H 0.56777 0.29342 0.86106 0.0
H317 H 0.42737 0.20305 0.81277 0.0
H318 H 0.45995 0.24274 0.79983 0.0
H319 H 0.4437 0.25199 0.82551 0.0
C320 C 0.52175 0.35954 0.8246 0.0
C321 C 0.52578 0.38083 0.84518 0.0
C322 C 0.51755 0.32268 0.82278 0.0
C323 C 0.51672 0.30615 0.84146 0.0
C324 C 0.51963 0.32698 0.86195 0.0
H325 H 0.47042 0.06695 0.82686 0.0
H326 H 0.4679 0.1255 0.84047 0.0
C327 C 0.5241 0.36385 0.8638 0.0
C328 C 0.51578 0.26858 0.83981 0.0
H329 H 0.46735 0.17484 0.81448 0.0
C330 C 0.54552 0.26739 0.85107 0.0
C331 C 0.48645 0.23435 0.82712 0.0
C332 C 0.45235 0.23291 0.81581 0.0
C333 C 0.54761 0.23347 0.84926 0.0
C334 C 0.51964 0.19993 0.83546 0.0
C335 C 0.48899 0.20061 0.82494 0.0
C336 C 0.52325 0.1649 0.83031 0.0
C337 C 0.57991 0.234 0.8621 0.0
C338 C 0.55552 0.16762 0.82057 0.0
C339 C 0.55708 0.1344 0.81299 0.0
C340 C 0.52627 0.09764 0.8148 0.0
C341 C 0.49477 0.09493 0.82553 0.0
C342 C 0.49317 0.12831 0.8331 0.0
H343 H 0.59034 0.25613 0.87696 0.0
H344 H 0.5709 0.20544 0.86697 0.0
H345 H 0.60431 0.24141 0.85193 0.0
H346 H 0.57875 0.19533 0.81782 0.0
H347 H 0.58163 0.13731 0.8047 0.0
H348 H 0.51102 0.86344 0.5306 0.0
H349 H 0.52713 0.81232 0.52544 0.0
H350 H 0.58032 0.85221 0.46727 0.0
H351 H 0.56467 0.90387 0.47239 0.0
H352 H 0.50318 0.75417 0.48826 0.0
H353 H 0.66221 0.84363 0.50342 0.0
H354 H 0.63092 0.862 0.51178 0.0
H355 H 0.63942 0.8565 0.48367 0.0
C356 C 0.52638 0.86158 0.51678 0.0
C357 C 0.53661 0.88773 0.50192 0.0
C358 C 0.53551 0.83233 0.51385 0.0
C359 C 0.55512 0.82876 0.49607 0.0
C360 C 0.56564 0.85489 0.48125 0.0
H361 H 0.56178 0.61272 0.4701 0.0
H362 H 0.55979 0.66979 0.46223 0.0
C363 C 0.55654 0.88426 0.48418 0.0
C364 C 0.56327 0.79673 0.4929 0.0
H365 H 0.63552 0.77621 0.49608 0.0
C366 C 0.5321 0.75886 0.48967 0.0
C367 C 0.60107 0.80322 0.4948 0.0
C368 C 0.63545 0.84348 0.49875 0.0
C369 C 0.53761 0.72717 0.48915 0.0
C370 C 0.57539 0.73364 0.49157 0.0
C371 C 0.60666 0.77147 0.494 0.0
C372 C 0.58252 0.70199 0.49461 0.0
C373 C 0.5029 0.68723 0.48727 0.0
C374 C 0.5977 0.70215 0.51503 0.0
C375 C 0.59898 0.66988 0.5195 0.0
C376 C 0.5851 0.63689 0.50358 0.0
C377 C 0.57236 0.63773 0.48266 0.0
C378 C 0.57108 0.67015 0.47819 0.0
H379 H 0.47591 0.68799 0.48907 0.0
H380 H 0.50035 0.67067 0.47105 0.0
H381 H 0.5059 0.67147 0.49981 0.0
H382 H 0.6068 0.72654 0.52788 0.0
H383 H 0.60947 0.67032 0.5357 0.0
H384 H 0.67035 0.51278 0.78958 0.0
H385 H 0.73781 0.53014 0.79161 0.0
H386 H 0.74503 0.55518 0.86156 0.0
H387 H 0.67789 0.53865 0.8597 0.0
H388 H 0.80785 0.60999 0.84346 0.0
H389 H 0.77492 0.46066 0.81167 0.0
H390 H 0.75692 0.4817 0.79445 0.0
H391 H 0.73843 0.47154 0.82037 0.0
C392 C 0.68634 0.52213 0.8054 0.0
C393 C 0.66874 0.52404 0.82451 0.0
C394 C 0.72481 0.53189 0.80651 0.0
C395 C 0.74612 0.54331 0.82674 0.0
C396 C 0.72895 0.54631 0.84579 0.0
H397 H 0.93704 0.53535 0.87575 0.0
H398 H 0.87523 0.52572 0.8625 0.0
C399 C 0.69059 0.53678 0.8447 0.0
C400 C 0.78604 0.55118 0.82832 0.0
H401 H 0.83986 0.50762 0.82079 0.0
C402 C 0.81503 0.5878 0.83831 0.0
C403 C 0.79505 0.52197 0.82167 0.0
C404 C 0.76473 0.48164 0.81159 0.0
C405 C 0.85271 0.59569 0.8425 0.0
C406 C 0.86161 0.56631 0.83612 0.0
C407 C 0.83288 0.5301 0.82547 0.0
C408 C 0.89927 0.57108 0.84263 0.0
C409 C 0.88216 0.63469 0.85472 0.0
C410 C 0.9332 0.59925 0.83544 0.0
C411 C 0.96872 0.60515 0.84322 0.0
C412 C 0.97067 0.58283 0.85821 0.0
C413 C 0.93647 0.55356 0.86459 0.0
C414 C 0.90114 0.54779 0.85689 0.0
H415 H 0.86887 0.65142 0.86193 0.0
H416 H 0.89861 0.63148 0.86794 0.0
H417 H 0.90271 0.65163 0.84337 0.0
H418 H 0.93223 0.61705 0.82413 0.0
H419 H 0.99463 0.62788 0.83802 0.0
H420 H 0.14009 0.71872 0.17912 0.0
H421 H 0.19112 0.78531 0.17943 0.0
H422 H 0.22365 0.75177 0.1183 0.0
H423 H 0.17272 0.68493 0.11785 0.0
H424 H 0.2835 0.79134 0.1515 0.0
H425 H 0.20467 0.86947 0.14372 0.0
H426 H 0.1878 0.83838 0.16403 0.0
H427 H 0.1827 0.8178 0.13593 0.0
C428 C 0.15774 0.72556 0.16559 0.0
C429 C 0.15253 0.69656 0.14853 0.0
C430 C 0.18664 0.76368 0.16569 0.0
C431 C 0.21067 0.77344 0.14871 0.0
C432 C 0.20507 0.74476 0.13142 0.0
H433 H 0.4334 0.98958 0.1627 0.0
H434 H 0.37721 0.93062 0.14405 0.0
C435 C 0.17606 0.70662 0.13125 0.0
C436 C 0.24419 0.81267 0.15043 0.0
H437 H 0.27007 0.90778 0.15967 0.0
C438 C 0.28078 0.8169 0.15279 0.0
C439 C 0.2403 0.84574 0.15204 0.0
C440 C 0.20174 0.8427 0.14858 0.0
C441 C 0.31352 0.85342 0.15838 0.0
C442 C 0.30942 0.88648 0.16118 0.0
C443 C 0.27304 0.88233 0.15752 0.0
C444 C 0.34162 0.92481 0.17064 0.0
C445 C 0.35178 0.85609 0.1627 0.0
C446 C 0.33946 0.94184 0.19127 0.0
C447 C 0.37117 0.97559 0.20179 0.0
C448 C 0.40568 0.99287 0.19189 0.0
C449 C 0.40717 0.97687 0.17072 0.0
C450 C 0.37527 0.94309 0.16013 0.0
H451 H 0.34877 0.8274 0.16343 0.0
H452 H 0.37005 0.86848 0.14945 0.0
H453 H 0.36684 0.87533 0.17827 0.0
H454 H 0.31364 0.92822 0.19959 0.0
H455 H 0.36892 0.98774 0.2179 0.0
H456 H 0.5144 0.16839 0.45387 0.0
H457 H 0.51324 0.22877 0.4566 0.0
H458 H 0.49735 0.22703 0.52487 0.0
H459 H 0.49853 0.16672 0.52239 0.0
H460 H 0.45662 0.25115 0.47453 0.0
H461 H 0.60203 0.32868 0.51891 0.0
H462 H 0.58231 0.28138 0.50283 0.0
H463 H 0.56708 0.28662 0.52941 0.0
C464 C 0.5101 0.18054 0.46941 0.0
C465 C 0.50702 0.16306 0.48799 0.0
C466 C 0.50934 0.21493 0.47089 0.0
C467 C 0.50565 0.23236 0.49097 0.0
C468 C 0.50053 0.214 0.50928 0.0
H469 H 0.47569 0.42207 0.5371 0.0
H470 H 0.4659 0.35896 0.52136 0.0
C471 C 0.50116 0.17956 0.50782 0.0
C472 C 0.51022 0.2712 0.49324 0.0
H473 H 0.56975 0.36395 0.51756 0.0
C474 C 0.48142 0.27597 0.48378 0.0
C475 C 0.54303 0.30346 0.50491 0.0
C476 C 0.57561 0.30006 0.51447 0.0
C477 C 0.4839 0.31221 0.48654 0.0
C478 C 0.51581 0.34409 0.49921 0.0
C479 C 0.54527 0.33945 0.50788 0.0
C480 C 0.51828 0.38192 0.5052 0.0
C481 C 0.45236 0.31603 0.47596 0.0
C482 C 0.55081 0.41578 0.50118 0.0
C483 C 0.55676 0.4519 0.51043 0.0
C484 C 0.53035 0.45467 0.52397 0.0
C485 C 0.49671 0.42076 0.52691 0.0
C486 C 0.49083 0.38469 0.5177 0.0
H487 H 0.43719 0.29326 0.46159 0.0
H488 H 0.43103 0.31274 0.48782 0.0
H489 H 0.46378 0.34475 0.47078 0.0
H490 H 0.57247 0.4142 0.49171 0.0
H491 H 0.58309 0.4775 0.50803 0.0
H492 H 0.34337 0.4789 0.87061 0.0
H493 H 0.29071 0.49144 0.86595 0.0
H494 H 0.30598 0.49309 0.79757 0.0
H495 H 0.35918 0.48119 0.80213 0.0
H496 H 0.31178 0.55912 0.81785 0.0
H497 H 0.18063 0.43504 0.83954 0.0
H498 H 0.22003 0.45218 0.85976 0.0
H499 H 0.22261 0.43214 0.83268 0.0
C500 C 0.33483 0.48077 0.85445 0.0
C501 C 0.35579 0.47956 0.83681 0.0
C502 C 0.30451 0.4877 0.85178 0.0
C503 C 0.29432 0.49302 0.83139 0.0
C504 C 0.31337 0.489 0.81343 0.0
H505 H 0.11848 0.56032 0.82616 0.0
H506 H 0.15464 0.52775 0.81562 0.0
C507 C 0.34377 0.48219 0.81609 0.0
C508 C 0.26824 0.50862 0.82967 0.0
H509 H 0.18177 0.4961 0.84372 0.0
C510 C 0.28303 0.54495 0.82308 0.0
C511 C 0.23064 0.48999 0.83626 0.0
C512 C 0.21241 0.44999 0.84224 0.0
C513 C 0.2621 0.5642 0.82417 0.0
C514 C 0.22575 0.54688 0.83239 0.0
C515 C 0.20991 0.50952 0.83768 0.0
C516 C 0.20507 0.5682 0.83726 0.0
C517 C 0.27949 0.60329 0.817 0.0
C518 C 0.22162 0.60178 0.85284 0.0
C519 C 0.2011 0.6204 0.85889 0.0
C520 C 0.16367 0.60563 0.84955 0.0
C521 C 0.14738 0.57246 0.83359 0.0
C522 C 0.16792 0.55377 0.82758 0.0
H523 H 0.30088 0.60692 0.80509 0.0
H524 H 0.2571 0.60773 0.80955 0.0
H525 H 0.29448 0.62607 0.83135 0.0
H526 H 0.24998 0.61292 0.86082 0.0
H527 H 0.2141 0.64574 0.87133 0.0
H528 H 0.87646 0.38899 0.13761 0.0
H529 H 0.81082 0.33386 0.13531 0.0
H530 H 0.79085 0.38667 0.19465 0.0
H531 H 0.85577 0.44139 0.19714 0.0
H532 H 0.77585 0.28435 0.16821 0.0
H533 H 0.70096 0.36242 0.15006 0.0
H534 H 0.7508 0.37981 0.14572 0.0
H535 H 0.73722 0.3877 0.17248 0.0
C536 C 0.85805 0.38873 0.15017 0.0
C537 C 0.87121 0.41956 0.16752 0.0
C538 C 0.82065 0.35736 0.14879 0.0
C539 C 0.79597 0.35678 0.16458 0.0
C540 C 0.80932 0.38711 0.18207 0.0
H541 H 0.59668 0.23259 0.2231 0.0
H542 H 0.65522 0.2779 0.20819 0.0
C543 C 0.84655 0.41821 0.18354 0.0
C544 C 0.75649 0.32408 0.16361 0.0
H545 H 0.66429 0.30473 0.16603 0.0
C546 C 0.7512 0.28829 0.16717 0.0
C547 C 0.72458 0.32953 0.16211 0.0
C548 C 0.72855 0.36685 0.15716 0.0
C549 C 0.71507 0.25867 0.17108 0.0
C550 C 0.68371 0.26518 0.17115 0.0
C551 C 0.68855 0.30004 0.16609 0.0
C552 C 0.64701 0.23821 0.17901 0.0
C553 C 0.71121 0.2217 0.1766 0.0
C554 C 0.62288 0.20127 0.16728 0.0
C555 C 0.58943 0.17539 0.17577 0.0
C556 C 0.57983 0.18628 0.19607 0.0
C557 C 0.60354 0.2236 0.20744 0.0
C558 C 0.63685 0.24942 0.19895 0.0
H559 H 0.73936 0.22313 0.17837 0.0
H560 H 0.69733 0.21509 0.19198 0.0
H561 H 0.69269 0.19748 0.16351 0.0
H562 H 0.63016 0.19235 0.15175 0.0
H563 H 0.57158 0.14676 0.16662 0.0
H564 H 1.00068 0.48846 0.08927 0.0
H565 H 0.00972 0.49398 0.05075 0.0
H566 H 0.0639 0.61785 0.06641 0.0
H567 H 0.05514 0.61277 0.10473 0.0
H568 H 0.98097 0.52771 0.0246 0.0
H569 H 0.13977 0.60195 0.02907 0.0
H570 H 0.11267 0.57708 0.05043 0.0
H571 H 0.12182 0.62483 0.04839 0.0
C572 C 0.01471 0.51687 0.08451 0.0
C573 C 0.02734 0.55017 0.10008 0.0
C574 C 0.0199 0.51996 0.06254 0.0
C575 C 0.0381 0.55636 0.05585 0.0
C576 C 0.0506 0.58956 0.07132 0.0
H577 H 0.02489 0.62746 0.93403 0.0
H578 H 0.02382 0.61604 0.97171 0.0
C579 C 0.04533 0.58653 0.09322 0.0
C580 C 0.04214 0.55982 0.03256 0.0
H581 H 0.10792 0.60294 0.9966 0.0
C582 C 0.00872 0.54376 0.01841 0.0
C583 C 0.07841 0.5805 0.02453 0.0
C584 C 0.11525 0.59678 0.03884 0.0
C585 C 0.01056 0.54915 0.99657 0.0
C586 C 0.04674 0.57151 0.98883 0.0
C587 C 0.08024 0.58623 0.00272 0.0
C588 C 0.05006 0.58055 0.96645 0.0
C589 C 0.97378 0.53117 0.98196 0.0
C590 C 0.06644 0.56547 0.9513 0.0
C591 C 0.06698 0.57183 0.92973 0.0
C592 C 0.05134 0.59357 0.92306 0.0
C593 C 0.03653 0.61004 0.93859 0.0
C594 C 0.03591 0.60358 0.96009 0.0
H595 H 0.94958 0.50762 0.98883 0.0
H596 H 0.96616 0.55358 0.98007 0.0
H597 H 0.97724 0.51937 0.96556 0.0
H598 H 0.07764 0.54776 0.956 0.0
H599 H 0.07827 0.55848 0.91811 0.0
H600 H 0.47342 0.05007 0.44238 0.0
H601 H 0.47185 0.05788 0.40417 0.0
H602 H 0.55188 0.01744 0.39278 0.0
H603 H 0.55413 0.01001 0.43109 0.0
H604 H 0.56852 0.08525 0.37418 0.0
H605 H 0.41793 0.96586 0.35363 0.0
H606 H 0.42498 0.00146 0.3765 0.0
H607 H 0.44602 0.97164 0.37811 0.0
C608 C 0.49087 0.04302 0.4318 0.0
C609 C 0.51384 0.02932 0.43976 0.0
C610 C 0.48976 0.04732 0.40996 0.0
C611 C 0.51142 0.03782 0.39568 0.0
C612 C 0.53489 0.0248 0.4036 0.0
H613 H 0.47855 0.99695 0.2552 0.0
H614 H 0.48876 0.99361 0.29347 0.0
C615 C 0.536 0.02044 0.42545 0.0
C616 C 0.50914 0.04095 0.37239 0.0
H617 H 0.44734 0.00456 0.32647 0.0
C618 C 0.5421 0.06761 0.36369 0.0
C619 C 0.47471 0.01751 0.35879 0.0
C620 C 0.43893 0.98724 0.36712 0.0
C621 C 0.54135 0.07189 0.34169 0.0
C622 C 0.50662 0.04915 0.32824 0.0
C623 C 0.47385 0.02212 0.3369 0.0
C624 C 0.50348 0.05253 0.30503 0.0
C625 C 0.57775 0.10023 0.33295 0.0
C626 C 0.50859 0.08687 0.29889 0.0
C627 C 0.50261 0.08882 0.27703 0.0
C628 C 0.49111 0.05633 0.261 0.0
C629 C 0.48683 0.02227 0.26721 0.0
C630 C 0.49283 0.02036 0.28902 0.0
H631 H 0.60357 0.1084 0.34384 0.0
H632 H 0.58069 0.08808 0.31651 0.0
H633 H 0.5768 0.12687 0.33158 0.0
H634 H 0.5161 0.11179 0.31106 0.0
H635 H 0.50571 0.11531 0.27276 0.0
H636 H 0.4586 0.46917 0.76632 0.0
H637 H 0.46292 0.47731 0.72797 0.0
H638 H 0.58413 0.55849 0.74118 0.0
H639 H 0.58036 0.54984 0.7793 0.0
H640 H 0.48642 0.54135 0.70778 0.0
H641 H 0.5817 0.47988 0.69264 0.0
H642 H 0.55707 0.47583 0.717 0.0
H643 H 0.6005 0.51981 0.7145 0.0
C644 C 0.48617 0.48872 0.76105 0.0
C645 C 0.51924 0.50841 0.77578 0.0
C646 C 0.48856 0.4934 0.73916 0.0
C647 C 0.52399 0.51787 0.73168 0.0
C648 C 0.55671 0.53868 0.74651 0.0
H649 H 0.59887 0.5797 0.6055 0.0
H650 H 0.59257 0.57942 0.64461 0.0
C651 C 0.55444 0.53381 0.76832 0.0
C652 C 0.5269 0.52131 0.70831 0.0
H653 H 0.57194 0.5093 0.66445 0.0
C654 C 0.50499 0.53422 0.69827 0.0
C655 C 0.55108 0.51183 0.69595 0.0
C656 C 0.57364 0.4957 0.70549 0.0
C657 C 0.50709 0.53845 0.67622 0.0
C658 C 0.53158 0.5294 0.66401 0.0
C659 C 0.55347 0.51653 0.67401 0.0
C660 C 0.5341 0.5318 0.64059 0.0
C661 C 0.48352 0.55296 0.66613 0.0
C662 C 0.50323 0.50517 0.62553 0.0
C663 C 0.5068 0.50514 0.60325 0.0
C664 C 0.54129 0.53183 0.59571 0.0
C665 C 0.57186 0.55909 0.61088 0.0
C666 C 0.56836 0.55888 0.63316 0.0
H667 H 0.47174 0.56552 0.67861 0.0
H668 H 0.50105 0.57513 0.65595 0.0
H669 H 0.45916 0.52859 0.65541 0.0
H670 H 0.47674 0.48377 0.631 0.0
H671 H 0.48273 0.48399 0.5919 0.0
H672 H 0.52893 0.08408 0.57032 0.0
H673 H 0.53379 0.08392 0.60943 0.0
H674 H 0.55982 0.992 0.59824 0.0
H675 H 0.55401 0.99118 0.55906 0.0
H676 H 0.50454 0.97636 0.62525 0.0
H677 H 0.6254 0.12442 0.65278 0.0
H678 H 0.58783 0.12416 0.63689 0.0
H679 H 0.61408 0.10254 0.62453 0.0
C680 C 0.53616 0.06414 0.57616 0.0
C681 C 0.54102 0.03761 0.56153 0.0
C682 C 0.53919 0.06427 0.59856 0.0
C683 C 0.54778 0.03837 0.60678 0.0
C684 C 0.55334 0.01236 0.59224 0.0
H685 H 0.56297 -6e-05 0.74125 0.0
H686 H 0.56987 0.00055 0.70217 0.0
C687 C 0.55001 0.01196 0.56985 0.0
C688 C 0.54822 0.03653 0.63039 0.0
H689 H 0.5865 0.09141 0.68036 0.0
C690 C 0.52288 0.00137 0.63728 0.0
C691 C 0.57224 0.06918 0.64607 0.0
C692 C 0.6017 0.10708 0.63969 0.0
C693 C 0.51994 0.99839 0.65945 0.0
C694 C 0.5429 0.03135 0.67503 0.0
C695 C 0.56887 0.06627 0.66824 0.0
C696 C 0.53878 0.03059 0.69848 0.0
C697 C 0.49147 0.96044 0.66618 0.0
C698 C 0.51896 0.04718 0.70912 0.0
C699 C 0.51455 0.04648 0.73127 0.0
C700 C 0.53029 0.02951 0.74324 0.0
C701 C 0.55017 0.01284 0.73245 0.0
C702 C 0.55434 0.01336 0.71021 0.0
H703 H 0.4737 0.93825 0.65203 0.0
H704 H 0.50703 0.94944 0.67511 0.0
H705 H 0.47223 0.96466 0.6774 0.0
H706 H 0.50659 0.06039 0.70022 0.0
H707 H 0.49847 0.05893 0.73896 0.0
H708 H 0.45672 0.51544 0.89674 0.0
H709 H 0.45413 0.52168 0.93617 0.0
H710 H 0.562 0.52471 0.94398 0.0
H711 H 0.56497 0.51835 0.90459 0.0
H712 H 0.45655 0.46997 0.96386 0.0
H713 H 0.57583 0.62166 0.9855 0.0
H714 H 0.55167 0.60161 0.95843 0.0
H715 H 0.5865 0.59006 0.9677 0.0
C716 C 0.47998 0.5175 0.90679 0.0
C717 C 0.51106 0.51637 0.89745 0.0
C718 C 0.47841 0.52108 0.92932 0.0
C719 C 0.50804 0.52401 0.94291 0.0
C720 C 0.53913 0.52301 0.93372 0.0
H721 H 0.51192 0.49221 0.07771 0.0
H722 H 0.51467 0.48836 0.03821 0.0
C723 C 0.54066 0.51924 0.9112 0.0
C724 C 0.5059 0.52701 0.96668 0.0
H725 H 0.54978 0.58687 0.01468 0.0
C726 C 0.47683 0.49552 0.97501 0.0
C727 C 0.53228 0.56054 0.98106 0.0
C728 C 0.5632 0.59559 0.97281 0.0
C729 C 0.47382 0.49644 -0.00253 0.0
C730 C 0.50074 0.52963 0.01186 0.0
C731 C 0.52941 0.56138 0.00353 0.0
C732 C 0.49932 0.53205 0.03567 0.0
C733 C 0.4417 0.46216 0.00567 0.0
C734 C 0.49039 0.55832 0.04724 0.0
C735 C 0.48885 0.56063 0.06974 0.0
C736 C 0.49661 0.53693 0.08106 0.0
C737 C 0.50602 0.51096 0.06942 0.0
C738 C 0.50732 0.50852 0.04689 0.0
H739 H 0.41909 0.4423 0.99245 0.0
H740 H 0.45345 0.4458 0.01267 0.0
H741 H 0.42839 0.47174 0.01871 0.0
H742 H 0.48436 0.57686 0.03882 0.0
H743 H 0.48201 0.58125 0.07833 0.0
H744 H 0.07519 0.60394 0.23205 0.0
H745 H 0.07631 0.60005 0.27091 0.0
H746 H 0.97999 0.48387 0.25818 0.0
H747 H 0.979 0.48714 0.21931 0.0
H748 H 0.01977 0.58786 0.29827 0.0
H749 H 0.05623 0.47186 0.29517 0.0
H750 H 0.06088 0.49733 0.2726 0.0
H751 H 0.01467 0.45912 0.27757 0.0
C752 C 0.05434 0.57748 0.23749 0.0
C753 C 0.02712 0.54579 0.22255 0.0
C754 C 0.05503 0.57532 0.25969 0.0
C755 C 0.02861 0.54147 0.26737 0.0
C756 C 1.0012 0.50993 0.25255 0.0
H757 H 0.97497 0.52862 0.40221 0.0
H758 H 0.97143 0.52555 0.36267 0.0
C759 C 1.00058 0.51197 0.23034 0.0
C760 C 0.02899 0.53965 0.29096 0.0
H761 H 0.03812 0.49006 0.32888 0.0
C762 C 0.02385 0.56654 0.30499 0.0
C763 C 0.03471 0.51203 0.29967 0.0
C764 C 0.04231 0.48366 0.28552 0.0
C765 C 0.02398 0.5664 0.3275 0.0
C766 C 0.02859 0.53807 0.33614 0.0
C767 C 0.0341 0.5114 0.32215 0.0
C768 C 0.02939 0.53674 0.35977 0.0
C769 C 0.02005 0.59711 0.34188 0.0
C770 C 0.06254 0.54236 0.37107 0.0
C771 C 0.06447 0.54358 0.39358 0.0
C772 C 0.03321 0.53912 0.40522 0.0
C773 C 0.99947 0.53198 0.39372 0.0
C774 C 0.99755 0.53068 0.37117 0.0
H775 H 0.02628 0.62194 0.33345 0.0
H776 H 0.9902 0.5846 0.34653 0.0
H777 H 0.03965 0.60797 0.35701 0.0
H778 H 0.0873 0.54675 0.36252 0.0
H779 H 0.09062 0.54846 0.40192 0.0
loop_
_geom_bond_atom_site_label_1
_geom_bond_atom_site_label_2
_geom_bond_distance
_geom_bond_site_symmetry_2
_ccdc_geom_bond_type
Zn0 O6 1.969 . S
Zn0 O7 1.965 . S
Zn0 O11 2.024 . S
Zn0 O16 1.969 . S
Zn1 O8 1.969 . S
Zn1 O14 1.969 . S
Zn1 O15 1.965 1_655 S
Zn1 O17 2.024 . S
C2 O3 1.229 . S
C2 O11 1.058 . S
O3 C2 1.229 . S
C4 O5 1.229 . S
C4 O17 1.058 . S
O5 C4 1.229 . S
O6 Zn0 1.969 . S
O6 C9 1.267 . S
O7 Zn0 1.965 . S
O7 C18 1.260 . S
O8 Zn1 1.969 . S
O8 C18 1.258 1_655 S
C9 O6 1.267 . S
C9 O10 1.228 . S
O10 C9 1.228 . S
O11 Zn0 2.024 . S
O11 C2 1.058 . S
C12 O13 1.228 . S
C12 O14 1.267 . S
O13 C12 1.228 . S
O14 Zn1 1.969 . S
O14 C12 1.267 . S
O15 Zn1 1.965 1_455 S
O15 C19 1.260 . S
O16 Zn0 1.969 . S
O16 C19 1.258 . S
O17 Zn1 2.024 . S
O17 C4 1.058 . S
C18 O7 1.260 . S
C18 O8 1.258 1_455 S
C19 O15 1.260 . S
C19 O16 1.258 . S
Zn20 O26 1.969 . S
Zn20 O27 1.965 . S
Zn20 O31 2.024 . S
Zn20 O36 1.969 . S
Zn21 O28 1.969 . S
Zn21 O34 1.969 . S
Zn21 O35 1.965 1_565 S
Zn21 O37 2.024 . S
C22 O23 1.229 . S
C22 O31 1.058 . S
O23 C22 1.229 . S
C24 O25 1.229 . S
C24 O37 1.058 . S
O25 C24 1.229 . S
O26 Zn20 1.969 . S
O26 C29 1.267 . S
O27 Zn20 1.965 . S
O27 C38 1.260 . S
O28 Zn21 1.969 . S
O28 C38 1.258 1_565 S
C29 O26 1.267 . S
C29 O30 1.228 . S
O30 C29 1.228 . S
O31 Zn20 2.024 . S
O31 C22 1.058 . S
C32 O33 1.228 . S
C32 O34 1.267 . S
O33 C32 1.228 . S
O34 Zn21 1.969 . S
O34 C32 1.267 . S
O35 Zn21 1.965 1_545 S
O35 C39 1.260 . S
O36 Zn20 1.969 . S
O36 C39 1.258 . S
O37 Zn21 2.024 . S
O37 C24 1.058 . S
C38 O27 1.260 . S
C38 O28 1.258 1_545 S
C39 O35 1.260 . S
C39 O36 1.258 . S
Zn40 O46 1.969 . S
Zn40 O47 1.965 . S
Zn40 O51 2.024 . S
Zn40 O56 1.969 . S
Zn41 O48 1.969 . S
Zn41 O54 1.969 . S
Zn41 O55 1.965 . S
Zn41 O57 2.024 . S
C42 O43 1.229 . S
C42 O51 1.058 . S
O43 C42 1.229 . S
C44 O45 1.229 . S
C44 O57 1.058 . S
O45 C44 1.229 . S
O46 Zn40 1.969 . S
O46 C49 1.267 . S
O47 Zn40 1.965 . S
O47 C58 1.260 . S
O48 Zn41 1.969 . S
O48 C58 1.258 . S
C49 O46 1.267 . S
C49 O50 1.228 . S
O50 C49 1.228 . S
O51 Zn40 2.024 . S
O51 C42 1.058 . S
C52 O53 1.228 . S
C52 O54 1.267 . S
O53 C52 1.228 . S
O54 Zn41 1.969 . S
O54 C52 1.267 . S
O55 Zn41 1.965 . S
O55 C59 1.260 . S
O56 Zn40 1.969 . S
O56 C59 1.258 . S
O57 Zn41 2.024 . S
O57 C44 1.058 . S
C58 O47 1.260 . S
C58 O48 1.258 . S
C59 O55 1.260 . S
C59 O56 1.258 . S
H60 C65 0.930 . S
H61 C68 0.930 . S
H62 C70 0.930 . S
H63 C64 1.016 . S
C64 H63 1.016 . S
C64 N71 1.286 . S
C65 H60 0.930 . S
C65 C66 1.397 . S
C65 C67 1.361 . S
C66 C65 1.397 . S
C66 C70 1.390 . S
C67 C65 1.361 . S
C67 C68 1.393 . S
C67 N71 1.413 . S
C68 H61 0.930 . S
C68 C67 1.393 . S
C68 C69 1.399 . S
C69 C68 1.399 . S
C69 C70 1.381 . S
C70 H62 0.930 . S
C70 C66 1.390 . S
C70 C69 1.381 . S
N71 C64 1.286 . S
N71 C67 1.413 . S
H72 C77 0.930 . S
H73 C80 0.930 . S
H74 C82 0.930 . S
H75 C76 1.016 . S
C76 H75 1.016 . S
C76 N83 1.286 . S
C77 H72 0.930 . S
C77 C78 1.397 . S
C77 C79 1.361 . S
C78 C77 1.397 . S
C78 C82 1.390 . S
C79 C77 1.361 . S
C79 C80 1.393 . S
C79 N83 1.413 . S
C80 H73 0.930 . S
C80 C79 1.393 . S
C80 C81 1.399 . S
C81 C80 1.399 . S
C81 C82 1.381 . S
C82 H74 0.930 . S
C82 C78 1.390 . S
C82 C81 1.381 . S
N83 C76 1.286 . S
N83 C79 1.413 . S
H84 C89 0.930 . S
H85 C92 0.930 . S
H86 C94 0.930 . S
H87 C88 1.016 . S
C88 H87 1.016 . S
C88 N95 1.286 . S
C89 H84 0.930 . S
C89 C90 1.397 1_455 S
C89 C91 1.361 . S
C90 C89 1.397 1_655 S
C90 C94 1.390 . S
C91 C89 1.361 . S
C91 C92 1.393 . S
C91 N95 1.413 . S
C92 H85 0.930 . S
C92 C91 1.393 . S
C92 C93 1.399 . S
C93 C92 1.399 . S
C93 C94 1.381 1_455 S
C94 H86 0.930 . S
C94 C90 1.390 . S
C94 C93 1.381 1_655 S
N95 C88 1.286 . S
N95 C91 1.413 . S
H96 C101 0.930 . S
H97 C104 0.930 . S
H98 C106 0.930 . S
H99 C100 1.016 . S
C100 H99 1.016 . S
C100 N107 1.286 . S
C101 H96 0.930 . S
C101 C102 1.397 . S
C101 C103 1.361 . S
C102 C101 1.397 . S
C102 C106 1.390 . S
C103 C101 1.361 . S
C103 C104 1.393 1_455 S
C103 N107 1.413 1_455 S
C104 H97 0.930 . S
C104 C103 1.393 1_655 S
C104 C105 1.399 1_655 S
C105 C104 1.399 1_455 S
C105 C106 1.381 . S
C106 H98 0.930 . S
C106 C102 1.390 . S
C106 C105 1.381 . S
N107 C100 1.286 . S
N107 C103 1.413 1_655 S
H108 C113 0.930 . S
H109 C116 0.930 1_565 S
H110 C118 0.930 . S
H111 C112 1.016 . S
C112 H111 1.016 . S
C112 N119 1.286 . S
C113 H108 0.930 . S
C113 C114 1.397 . S
C113 C115 1.361 . S
C114 C113 1.397 . S
C114 C118 1.390 . S
C115 C113 1.361 . S
C115 C116 1.393 . S
C115 N119 1.413 1_545 S
C116 H109 0.930 1_545 S
C116 C115 1.393 . S
C116 C117 1.399 . S
C117 C116 1.399 . S
C117 C118 1.381 . S
C118 H110 0.930 . S
C118 C114 1.390 . S
C118 C117 1.381 . S
N119 C112 1.286 . S
N119 C115 1.413 1_565 S
H120 C125 0.930 . S
H121 C128 0.930 . S
H122 C130 0.930 . S
H123 C124 1.016 . S
C124 H123 1.016 . S
C124 N131 1.286 . S
C125 H120 0.930 . S
C125 C126 1.397 . S
C125 C127 1.361 . S
C126 C125 1.397 . S
C126 C130 1.390 . S
C127 C125 1.361 . S
C127 C128 1.393 . S
C127 N131 1.413 . S
C128 H121 0.930 . S
C128 C127 1.393 . S
C128 C129 1.399 . S
C129 C128 1.399 . S
C129 C130 1.381 . S
C130 H122 0.930 . S
C130 C126 1.390 . S
C130 C129 1.381 . S
N131 C124 1.286 . S
N131 C127 1.413 . S
H132 C140 0.929 . S
H133 C142 0.930 . S
H134 C144 0.930 . S
H135 C147 0.929 . S
H136 C150 0.930 . S
H137 C152 0.960 . S
H138 C152 0.960 . S
H139 C152 0.960 . S
C140 H132 0.929 . S
C140 C141 1.377 . S
C140 C142 1.384 . S
C141 C140 1.377 . S
C141 C147 1.390 . S
C142 H133 0.930 . S
C142 C140 1.384 . S
C142 C143 1.372 . S
C143 C142 1.372 . S
C143 C144 1.400 . S
C143 C148 1.490 . S
C144 H134 0.930 . S
C144 C143 1.400 . S
C144 C147 1.386 . S
H145 C161 0.930 . S
H146 C162 0.931 . S
C147 H135 0.929 . S
C147 C141 1.390 . S
C147 C144 1.386 . S
C148 C143 1.490 . S
C148 C150 1.395 . S
C148 C151 1.403 . S
H149 C155 0.930 . S
C150 H136 0.930 . S
C150 C148 1.395 . S
C150 C153 1.403 . S
C151 C148 1.403 . S
C151 C152 1.524 . S
C151 C155 1.400 . S
C152 H137 0.960 . S
C152 H138 0.960 . S
C152 H139 0.960 . S
C152 C151 1.524 . S
C153 C150 1.403 . S
C153 C154 1.392 . S
C153 C157 1.495 . S
C154 C153 1.392 . S
C154 C155 1.385 . S
C154 C156 1.478 . S
C155 H149 0.930 . S
C155 C151 1.400 . S
C155 C154 1.385 . S
C156 C154 1.478 . S
C156 C158 1.381 . S
C156 C162 1.383 . S
C157 C153 1.495 . S
C157 H163 0.959 . S
C157 H164 0.961 . S
C157 H165 0.960 . S
C158 C156 1.381 . S
C158 C159 1.394 . S
C158 H166 0.930 . S
C159 C158 1.394 . S
C159 C160 1.383 . S
C159 H167 0.929 . S
C160 C159 1.383 . S
C160 C161 1.377 . S
C161 H145 0.930 . S
C161 C160 1.377 . S
C161 C162 1.379 . S
C162 H146 0.931 . S
C162 C156 1.383 . S
C162 C161 1.379 . S
H163 C157 0.959 . S
H164 C157 0.961 . S
H165 C157 0.960 . S
H166 C158 0.930 . S
H167 C159 0.929 . S
H168 C176 0.929 . S
H169 C178 0.930 . S
H170 C180 0.930 . S
H171 C183 0.929 . S
H172 C186 0.930 . S
H173 C188 0.960 . S
H174 C188 0.960 . S
H175 C188 0.960 . S
C176 H168 0.929 . S
C176 C177 1.377 . S
C176 C178 1.384 . S
C177 C176 1.377 . S
C177 C183 1.390 . S
C178 H169 0.930 . S
C178 C176 1.384 . S
C178 C179 1.372 . S
C179 C178 1.372 . S
C179 C180 1.400 . S
C179 C184 1.490 . S
C180 H170 0.930 . S
C180 C179 1.400 . S
C180 C183 1.386 . S
H181 C197 0.930 . S
H182 C198 0.931 . S
C183 H171 0.929 . S
C183 C177 1.390 . S
C183 C180 1.386 . S
C184 C179 1.490 . S
C184 C186 1.395 . S
C184 C187 1.403 . S
H185 C191 0.930 . S
C186 H172 0.930 . S
C186 C184 1.395 . S
C186 C189 1.403 . S
C187 C184 1.403 . S
C187 C188 1.524 . S
C187 C191 1.400 . S
C188 H173 0.960 . S
C188 H174 0.960 . S
C188 H175 0.960 . S
C188 C187 1.524 . S
C189 C186 1.403 . S
C189 C190 1.392 . S
C189 C193 1.495 . S
C190 C189 1.392 . S
C190 C191 1.385 . S
C190 C192 1.478 . S
C191 H185 0.930 . S
C191 C187 1.400 . S
C191 C190 1.385 . S
C192 C190 1.478 . S
C192 C194 1.381 . S
C192 C198 1.383 . S
C193 C189 1.495 . S
C193 H199 0.959 . S
C193 H200 0.961 . S
C193 H201 0.960 . S
C194 C192 1.381 . S
C194 C195 1.394 . S
C194 H202 0.930 . S
C195 C194 1.394 . S
C195 C196 1.383 . S
C195 H203 0.929 . S
C196 C195 1.383 . S
C196 C197 1.377 . S
C197 H181 0.930 . S
C197 C196 1.377 . S
C197 C198 1.379 . S
C198 H182 0.931 . S
C198 C192 1.383 . S
C198 C197 1.379 . S
H199 C193 0.959 . S
H200 C193 0.961 . S
H201 C193 0.960 . S
H202 C194 0.930 . S
H203 C195 0.929 . S
H204 C212 0.929 . S
H205 C214 0.930 . S
H206 C216 0.930 . S
H207 C219 0.929 . S
H208 C222 0.930 . S
H209 C224 0.960 . S
H210 C224 0.960 . S
H211 C224 0.960 . S
C212 H204 0.929 . S
C212 C213 1.377 . S
C212 C214 1.384 . S
C213 C212 1.377 . S
C213 C219 1.390 . S
C214 H205 0.930 . S
C214 C212 1.384 . S
C214 C215 1.372 . S
C215 C214 1.372 . S
C215 C216 1.400 . S
C215 C220 1.490 . S
C216 H206 0.930 . S
C216 C215 1.400 . S
C216 C219 1.386 . S
H217 C233 0.930 . S
H218 C234 0.931 . S
C219 H207 0.929 . S
C219 C213 1.390 . S
C219 C216 1.386 . S
C220 C215 1.490 . S
C220 C222 1.395 . S
C220 C223 1.403 . S
H221 C227 0.930 . S
C222 H208 0.930 . S
C222 C220 1.395 . S
C222 C225 1.403 . S
C223 C220 1.403 . S
C223 C224 1.524 . S
C223 C227 1.400 . S
C224 H209 0.960 . S
C224 H210 0.960 . S
C224 H211 0.960 . S
C224 C223 1.524 . S
C225 C222 1.403 . S
C225 C226 1.392 . S
C225 C229 1.495 . S
C226 C225 1.392 . S
C226 C227 1.385 . S
C226 C228 1.478 . S
C227 H221 0.930 . S
C227 C223 1.400 . S
C227 C226 1.385 . S
C228 C226 1.478 . S
C228 C230 1.381 . S
C228 C234 1.383 . S
C229 C225 1.495 . S
C229 H235 0.959 . S
C229 H236 0.961 . S
C229 H237 0.960 . S
C230 C228 1.381 . S
C230 C231 1.394 . S
C230 H238 0.930 . S
C231 C230 1.394 . S
C231 C232 1.383 . S
C231 H239 0.929 . S
C232 C231 1.383 . S
C232 C233 1.377 . S
C233 H217 0.930 . S
C233 C232 1.377 . S
C233 C234 1.379 . S
C234 H218 0.931 . S
C234 C228 1.383 . S
C234 C233 1.379 . S
H235 C229 0.959 . S
H236 C229 0.961 . S
H237 C229 0.960 . S
H238 C230 0.930 . S
H239 C231 0.929 . S
H240 C248 0.929 . S
H241 C250 0.930 . S
H242 C252 0.930 . S
H243 C255 0.929 . S
H244 C258 0.930 . S
H245 C260 0.960 . S
H246 C260 0.960 . S
H247 C260 0.960 . S
C248 H240 0.929 . S
C248 C249 1.377 . S
C248 C250 1.384 . S
C249 C248 1.377 . S
C249 C255 1.390 . S
C250 H241 0.930 . S
C250 C248 1.384 . S
C250 C251 1.372 . S
C251 C250 1.372 . S
C251 C252 1.400 . S
C251 C256 1.490 . S
C252 H242 0.930 . S
C252 C251 1.400 . S
C252 C255 1.386 . S
H253 C269 0.930 . S
H254 C270 0.931 . S
C255 H243 0.929 . S
C255 C249 1.390 . S
C255 C252 1.386 . S
C256 C251 1.490 . S
C256 C258 1.395 . S
C256 C259 1.403 . S
H257 C263 0.930 . S
C258 H244 0.930 . S
C258 C256 1.395 . S
C258 C261 1.403 . S
C259 C256 1.403 . S
C259 C260 1.524 . S
C259 C263 1.400 . S
C260 H245 0.960 . S
C260 H246 0.960 . S
C260 H247 0.960 . S
C260 C259 1.524 . S
C261 C258 1.403 . S
C261 C262 1.392 . S
C261 C265 1.495 . S
C262 C261 1.392 . S
C262 C263 1.385 . S
C262 C264 1.478 . S
C263 H257 0.930 . S
C263 C259 1.400 . S
C263 C262 1.385 . S
C264 C262 1.478 . S
C264 C266 1.381 . S
C264 C270 1.383 . S
C265 C261 1.495 . S
C265 H271 0.959 . S
C265 H272 0.961 . S
C265 H273 0.960 . S
C266 C264 1.381 . S
C266 C267 1.394 . S
C266 H274 0.930 . S
C267 C266 1.394 . S
C267 C268 1.383 . S
C267 H275 0.929 . S
C268 C267 1.383 . S
C268 C269 1.377 . S
C269 H253 0.930 . S
C269 C268 1.377 . S
C269 C270 1.379 . S
C270 H254 0.931 . S
C270 C264 1.383 . S
C270 C269 1.379 . S
H271 C265 0.959 . S
H272 C265 0.961 . S
H273 C265 0.960 . S
H274 C266 0.930 . S
H275 C267 0.929 . S
H276 C284 0.929 . S
H277 C286 0.930 . S
H278 C288 0.930 . S
H279 C291 0.929 . S
H280 C294 0.930 . S
H281 C296 0.960 . S
H282 C296 0.960 . S
H283 C296 0.960 . S
C284 H276 0.929 . S
C284 C285 1.377 . S
C284 C286 1.384 . S
C285 C284 1.377 . S
C285 C291 1.390 . S
C286 H277 0.930 . S
C286 C284 1.384 . S
C286 C287 1.372 . S
C287 C286 1.372 . S
C287 C288 1.400 . S
C287 C292 1.490 . S
C288 H278 0.930 . S
C288 C287 1.400 . S
C288 C291 1.386 . S
H289 C305 0.930 . S
H290 C306 0.931 . S
C291 H279 0.929 . S
C291 C285 1.390 . S
C291 C288 1.386 . S
C292 C287 1.490 . S
C292 C294 1.395 . S
C292 C295 1.403 . S
H293 C299 0.930 . S
C294 H280 0.930 . S
C294 C292 1.395 . S
C294 C297 1.403 . S
C295 C292 1.403 . S
C295 C296 1.524 . S
C295 C299 1.400 . S
C296 H281 0.960 . S
C296 H282 0.960 . S
C296 H283 0.960 . S
C296 C295 1.524 . S
C297 C294 1.403 . S
C297 C298 1.392 . S
C297 C301 1.495 . S
C298 C297 1.392 . S
C298 C299 1.385 . S
C298 C300 1.478 . S
C299 H293 0.930 . S
C299 C295 1.400 . S
C299 C298 1.385 . S
C300 C298 1.478 . S
C300 C302 1.381 . S
C300 C306 1.383 . S
C301 C297 1.495 . S
C301 H307 0.959 . S
C301 H308 0.961 . S
C301 H309 0.960 . S
C302 C300 1.381 . S
C302 C303 1.394 . S
C302 H310 0.930 . S
C303 C302 1.394 . S
C303 C304 1.383 . S
C303 H311 0.929 . S
C304 C303 1.383 . S
C304 C305 1.377 . S
C305 H289 0.930 . S
C305 C304 1.377 . S
C305 C306 1.379 . S
C306 H290 0.931 . S
C306 C300 1.383 . S
C306 C305 1.379 . S
H307 C301 0.959 . S
H308 C301 0.961 . S
H309 C301 0.960 . S
H310 C302 0.930 . S
H311 C303 0.929 . S
H312 C320 0.929 . S
H313 C322 0.930 . S
H314 C324 0.930 . S
H315 C327 0.929 . S
H316 C330 0.930 . S
H317 C332 0.960 . S
H318 C332 0.960 . S
H319 C332 0.960 . S
C320 H312 0.929 . S
C320 C321 1.377 . S
C320 C322 1.384 . S
C321 C320 1.377 . S
C321 C327 1.390 . S
C322 H313 0.930 . S
C322 C320 1.384 . S
C322 C323 1.372 . S
C323 C322 1.372 . S
C323 C324 1.400 . S
C323 C328 1.490 . S
C324 H314 0.930 . S
C324 C323 1.400 . S
C324 C327 1.386 . S
H325 C341 0.930 . S
H326 C342 0.931 . S
C327 H315 0.929 . S
C327 C321 1.390 . S
C327 C324 1.386 . S
C328 C323 1.490 . S
C328 C330 1.395 . S
C328 C331 1.403 . S
H329 C335 0.930 . S
C330 H316 0.930 . S
C330 C328 1.395 . S
C330 C333 1.403 . S
C331 C328 1.403 . S
C331 C332 1.524 . S
C331 C335 1.400 . S
C332 H317 0.960 . S
C332 H318 0.960 . S
C332 H319 0.960 . S
C332 C331 1.524 . S
C333 C330 1.403 . S
C333 C334 1.392 . S
C333 C337 1.495 . S
C334 C333 1.392 . S
C334 C335 1.385 . S
C334 C336 1.478 . S
C335 H329 0.930 . S
C335 C331 1.400 . S
C335 C334 1.385 . S
C336 C334 1.478 . S
C336 C338 1.381 . S
C336 C342 1.383 . S
C337 C333 1.495 . S
C337 H343 0.959 . S
C337 H344 0.961 . S
C337 H345 0.960 . S
C338 C336 1.381 . S
C338 C339 1.394 . S
C338 H346 0.930 . S
C339 C338 1.394 . S
C339 C340 1.383 . S
C339 H347 0.929 . S
C340 C339 1.383 . S
C340 C341 1.377 . S
C341 H325 0.930 . S
C341 C340 1.377 . S
C341 C342 1.379 . S
C342 H326 0.931 . S
C342 C336 1.383 . S
C342 C341 1.379 . S
H343 C337 0.959 . S
H344 C337 0.961 . S
H345 C337 0.960 . S
H346 C338 0.930 . S
H347 C339 0.929 . S
H348 C356 0.929 . S
H349 C358 0.930 . S
H350 C360 0.930 . S
H351 C363 0.929 . S
H352 C366 0.930 . S
H353 C368 0.960 . S
H354 C368 0.960 . S
H355 C368 0.960 . S
C356 H348 0.929 . S
C356 C357 1.377 . S
C356 C358 1.384 . S
C357 C356 1.377 . S
C357 C363 1.390 . S
C358 H349 0.930 . S
C358 C356 1.384 . S
C358 C359 1.372 . S
C359 C358 1.372 . S
C359 C360 1.400 . S
C359 C364 1.490 . S
C360 H350 0.930 . S
C360 C359 1.400 . S
C360 C363 1.386 . S
H361 C377 0.930 . S
H362 C378 0.931 . S
C363 H351 0.929 . S
C363 C357 1.390 . S
C363 C360 1.386 . S
C364 C359 1.490 . S
C364 C366 1.395 . S
C364 C367 1.403 . S
H365 C371 0.930 . S
C366 H352 0.930 . S
C366 C364 1.395 . S
C366 C369 1.403 . S
C367 C364 1.403 . S
C367 C368 1.524 . S
C367 C371 1.400 . S
C368 H353 0.960 . S
C368 H354 0.960 . S
C368 H355 0.960 . S
C368 C367 1.524 . S
C369 C366 1.403 . S
C369 C370 1.392 . S
C369 C373 1.495 . S
C370 C369 1.392 . S
C370 C371 1.385 . S
C370 C372 1.478 . S
C371 H365 0.930 . S
C371 C367 1.400 . S
C371 C370 1.385 . S
C372 C370 1.478 . S
C372 C374 1.381 . S
C372 C378 1.383 . S
C373 C369 1.495 . S
C373 H379 0.959 . S
C373 H380 0.961 . S
C373 H381 0.960 . S
C374 C372 1.381 . S
C374 C375 1.394 . S
C374 H382 0.930 . S
C375 C374 1.394 . S
C375 C376 1.383 . S
C375 H383 0.929 . S
C376 C375 1.383 . S
C376 C377 1.377 . S
C377 H361 0.930 . S
C377 C376 1.377 . S
C377 C378 1.379 . S
C378 H362 0.931 . S
C378 C372 1.383 . S
C378 C377 1.379 . S
H379 C373 0.959 . S
H380 C373 0.961 . S
H381 C373 0.960 . S
H382 C374 0.930 . S
H383 C375 0.929 . S
H384 C392 0.929 . S
H385 C394 0.930 . S
H386 C396 0.930 . S
H387 C399 0.929 . S
H388 C402 0.930 . S
H389 C404 0.960 . S
H390 C404 0.960 . S
H391 C404 0.960 . S
C392 H384 0.929 . S
C392 C393 1.377 . S
C392 C394 1.384 . S
C393 C392 1.377 . S
C393 C399 1.390 . S
C394 H385 0.930 . S
C394 C392 1.384 . S
C394 C395 1.372 . S
C395 C394 1.372 . S
C395 C396 1.400 . S
C395 C400 1.490 . S
C396 H386 0.930 . S
C396 C395 1.400 . S
C396 C399 1.386 . S
H397 C413 0.930 . S
H398 C414 0.931 . S
C399 H387 0.929 . S
C399 C393 1.390 . S
C399 C396 1.386 . S
C400 C395 1.490 . S
C400 C402 1.395 . S
C400 C403 1.403 . S
H401 C407 0.930 . S
C402 H388 0.930 . S
C402 C400 1.395 . S
C402 C405 1.403 . S
C403 C400 1.403 . S
C403 C404 1.524 . S
C403 C407 1.400 . S
C404 H389 0.960 . S
C404 H390 0.960 . S
C404 H391 0.960 . S
C404 C403 1.524 . S
C405 C402 1.403 . S
C405 C406 1.392 . S
C405 C409 1.495 . S
C406 C405 1.392 . S
C406 C407 1.385 . S
C406 C408 1.478 . S
C407 H401 0.930 . S
C407 C403 1.400 . S
C407 C406 1.385 . S
C408 C406 1.478 . S
C408 C410 1.381 . S
C408 C414 1.383 . S
C409 C405 1.495 . S
C409 H415 0.959 . S
C409 H416 0.961 . S
C409 H417 0.960 . S
C410 C408 1.381 . S
C410 C411 1.394 . S
C410 H418 0.930 . S
C411 C410 1.394 . S
C411 C412 1.383 . S
C411 H419 0.929 . S
C412 C411 1.383 . S
C412 C413 1.377 . S
C413 H397 0.930 . S
C413 C412 1.377 . S
C413 C414 1.379 . S
C414 H398 0.931 . S
C414 C408 1.383 . S
C414 C413 1.379 . S
H415 C409 0.959 . S
H416 C409 0.961 . S
H417 C409 0.960 . S
H418 C410 0.930 . S
H419 C411 0.929 . S
H420 C428 0.929 . S
H421 C430 0.930 . S
H422 C432 0.930 . S
H423 C435 0.929 . S
H424 C438 0.930 . S
H425 C440 0.960 . S
H426 C440 0.960 . S
H427 C440 0.960 . S
C428 H420 0.929 . S
C428 C429 1.377 . S
C428 C430 1.384 . S
C429 C428 1.377 . S
C429 C435 1.390 . S
C430 H421 0.930 . S
C430 C428 1.384 . S
C430 C431 1.372 . S
C431 C430 1.372 . S
C431 C432 1.400 . S
C431 C436 1.490 . S
C432 H422 0.930 . S
C432 C431 1.400 . S
C432 C435 1.386 . S
H433 C449 0.930 . S
H434 C450 0.931 . S
C435 H423 0.929 . S
C435 C429 1.390 . S
C435 C432 1.386 . S
C436 C431 1.490 . S
C436 C438 1.395 . S
C436 C439 1.403 . S
H437 C443 0.930 . S
C438 H424 0.930 . S
C438 C436 1.395 . S
C438 C441 1.403 . S
C439 C436 1.403 . S
C439 C440 1.524 . S
C439 C443 1.400 . S
C440 H425 0.960 . S
C440 H426 0.960 . S
C440 H427 0.960 . S
C440 C439 1.524 . S
C441 C438 1.403 . S
C441 C442 1.392 . S
C441 C445 1.495 . S
C442 C441 1.392 . S
C442 C443 1.385 . S
C442 C444 1.478 . S
C443 H437 0.930 . S
C443 C439 1.400 . S
C443 C442 1.385 . S
C444 C442 1.478 . S
C444 C446 1.381 . S
C444 C450 1.383 . S
C445 C441 1.495 . S
C445 H451 0.959 . S
C445 H452 0.961 . S
C445 H453 0.960 . S
C446 C444 1.381 . S
C446 C447 1.394 . S
C446 H454 0.930 . S
C447 C446 1.394 . S
C447 C448 1.383 . S
C447 H455 0.929 1_565 S
C448 C447 1.383 . S
C448 C449 1.377 . S
C449 H433 0.930 . S
C449 C448 1.377 . S
C449 C450 1.379 . S
C450 H434 0.931 . S
C450 C444 1.383 . S
C450 C449 1.379 . S
H451 C445 0.959 . S
H452 C445 0.961 . S
H453 C445 0.960 . S
H454 C446 0.930 . S
H455 C447 0.929 1_545 S
H456 C464 0.929 . S
H457 C466 0.930 . S
H458 C468 0.930 . S
H459 C471 0.929 . S
H460 C474 0.930 . S
H461 C476 0.960 . S
H462 C476 0.960 . S
H463 C476 0.960 . S
C464 H456 0.929 . S
C464 C465 1.377 . S
C464 C466 1.384 . S
C465 C464 1.377 . S
C465 C471 1.390 . S
C466 H457 0.930 . S
C466 C464 1.384 . S
C466 C467 1.372 . S
C467 C466 1.372 . S
C467 C468 1.400 . S
C467 C472 1.490 . S
C468 H458 0.930 . S
C468 C467 1.400 . S
C468 C471 1.386 . S
H469 C485 0.930 . S
H470 C486 0.931 . S
C471 H459 0.929 . S
C471 C465 1.390 . S
C471 C468 1.386 . S
C472 C467 1.490 . S
C472 C474 1.395 . S
C472 C475 1.403 . S
H473 C479 0.930 . S
C474 H460 0.930 . S
C474 C472 1.395 . S
C474 C477 1.403 . S
C475 C472 1.403 . S
C475 C476 1.524 . S
C475 C479 1.400 . S
C476 H461 0.960 . S
C476 H462 0.960 . S
C476 H463 0.960 . S
C476 C475 1.524 . S
C477 C474 1.403 . S
C477 C478 1.392 . S
C477 C481 1.495 . S
C478 C477 1.392 . S
C478 C479 1.385 . S
C478 C480 1.478 . S
C479 H473 0.930 . S
C479 C475 1.400 . S
C479 C478 1.385 . S
C480 C478 1.478 . S
C480 C482 1.381 . S
C480 C486 1.383 . S
C481 C477 1.495 . S
C481 H487 0.959 . S
C481 H488 0.961 . S
C481 H489 0.960 . S
C482 C480 1.381 . S
C482 C483 1.394 . S
C482 H490 0.930 . S
C483 C482 1.394 . S
C483 C484 1.383 . S
C483 H491 0.929 . S
C484 C483 1.383 . S
C484 C485 1.377 . S
C485 H469 0.930 . S
C485 C484 1.377 . S
C485 C486 1.379 . S
C486 H470 0.931 . S
C486 C480 1.383 . S
C486 C485 1.379 . S
H487 C481 0.959 . S
H488 C481 0.961 . S
H489 C481 0.960 . S
H490 C482 0.930 . S
H491 C483 0.929 . S
H492 C500 0.929 . S
H493 C502 0.930 . S
H494 C504 0.930 . S
H495 C507 0.929 . S
H496 C510 0.930 . S
H497 C512 0.960 . S
H498 C512 0.960 . S
H499 C512 0.960 . S
C500 H492 0.929 . S
C500 C501 1.377 . S
C500 C502 1.384 . S
C501 C500 1.377 . S
C501 C507 1.390 . S
C502 H493 0.930 . S
C502 C500 1.384 . S
C502 C503 1.372 . S
C503 C502 1.372 . S
C503 C504 1.400 . S
C503 C508 1.490 . S
C504 H494 0.930 . S
C504 C503 1.400 . S
C504 C507 1.386 . S
H505 C521 0.930 . S
H506 C522 0.931 . S
C507 H495 0.929 . S
C507 C501 1.390 . S
C507 C504 1.386 . S
C508 C503 1.490 . S
C508 C510 1.395 . S
C508 C511 1.403 . S
H509 C515 0.930 . S
C510 H496 0.930 . S
C510 C508 1.395 . S
C510 C513 1.403 . S
C511 C508 1.403 . S
C511 C512 1.524 . S
C511 C515 1.400 . S
C512 H497 0.960 . S
C512 H498 0.960 . S
C512 H499 0.960 . S
C512 C511 1.524 . S
C513 C510 1.403 . S
C513 C514 1.392 . S
C513 C517 1.495 . S
C514 C513 1.392 . S
C514 C515 1.385 . S
C514 C516 1.478 . S
C515 H509 0.930 . S
C515 C511 1.400 . S
C515 C514 1.385 . S
C516 C514 1.478 . S
C516 C518 1.381 . S
C516 C522 1.383 . S
C517 C513 1.495 . S
C517 H523 0.959 . S
C517 H524 0.961 . S
C517 H525 0.960 . S
C518 C516 1.381 . S
C518 C519 1.394 . S
C518 H526 0.930 . S
C519 C518 1.394 . S
C519 C520 1.383 . S
C519 H527 0.929 . S
C520 C519 1.383 . S
C520 C521 1.377 . S
C521 H505 0.930 . S
C521 C520 1.377 . S
C521 C522 1.379 . S
C522 H506 0.931 . S
C522 C516 1.383 . S
C522 C521 1.379 . S
H523 C517 0.959 . S
H524 C517 0.961 . S
H525 C517 0.960 . S
H526 C518 0.930 . S
H527 C519 0.929 . S
H528 C536 0.929 . S
H529 C538 0.930 . S
H530 C540 0.930 . S
H531 C543 0.929 . S
H532 C546 0.930 . S
H533 C548 0.960 . S
H534 C548 0.960 . S
H535 C548 0.960 . S
C536 H528 0.929 . S
C536 C537 1.377 . S
C536 C538 1.384 . S
C537 C536 1.377 . S
C537 C543 1.390 . S
C538 H529 0.930 . S
C538 C536 1.384 . S
C538 C539 1.372 . S
C539 C538 1.372 . S
C539 C540 1.400 . S
C539 C544 1.490 . S
C540 H530 0.930 . S
C540 C539 1.400 . S
C540 C543 1.386 . S
H541 C557 0.930 . S
H542 C558 0.931 . S
C543 H531 0.929 . S
C543 C537 1.390 . S
C543 C540 1.386 . S
C544 C539 1.490 . S
C544 C546 1.395 . S
C544 C547 1.403 . S
H545 C551 0.930 . S
C546 H532 0.930 . S
C546 C544 1.395 . S
C546 C549 1.403 . S
C547 C544 1.403 . S
C547 C548 1.524 . S
C547 C551 1.400 . S
C548 H533 0.960 . S
C548 H534 0.960 . S
C548 H535 0.960 . S
C548 C547 1.524 . S
C549 C546 1.403 . S
C549 C550 1.392 . S
C549 C553 1.495 . S
C550 C549 1.392 . S
C550 C551 1.385 . S
C550 C552 1.478 . S
C551 H545 0.930 . S
C551 C547 1.400 . S
C551 C550 1.385 . S
C552 C550 1.478 . S
C552 C554 1.381 . S
C552 C558 1.383 . S
C553 C549 1.495 . S
C553 H559 0.959 . S
C553 H560 0.961 . S
C553 H561 0.960 . S
C554 C552 1.381 . S
C554 C555 1.394 . S
C554 H562 0.930 . S
C555 C554 1.394 . S
C555 C556 1.383 . S
C555 H563 0.929 . S
C556 C555 1.383 . S
C556 C557 1.377 . S
C557 H541 0.930 . S
C557 C556 1.377 . S
C557 C558 1.379 . S
C558 H542 0.931 . S
C558 C552 1.383 . S
C558 C557 1.379 . S
H559 C553 0.959 . S
H560 C553 0.961 . S
H561 C553 0.960 . S
H562 C554 0.930 . S
H563 C555 0.929 . S
H564 C572 0.929 . S
H565 C574 0.930 . S
H566 C576 0.930 1_655 S
H567 C579 0.929 1_655 S
H568 C582 0.930 . S
H569 C584 0.960 . S
H570 C584 0.960 . S
H571 C584 0.960 . S
C572 H564 0.929 . S
C572 C573 1.377 . S
C572 C574 1.384 . S
C573 C572 1.377 . S
C573 C579 1.390 . S
C574 H565 0.930 . S
C574 C572 1.384 . S
C574 C575 1.372 . S
C575 C574 1.372 . S
C575 C576 1.400 . S
C575 C580 1.490 . S
C576 H566 0.930 1_455 S
C576 C575 1.400 . S
C576 C579 1.386 . S
H577 C593 0.930 1_655 S
H578 C594 0.931 1_655 S
C579 H567 0.929 1_455 S
C579 C573 1.390 . S
C579 C576 1.386 . S
C580 C575 1.490 . S
C580 C582 1.395 . S
C580 C583 1.403 . S
H581 C587 0.930 . S
C582 H568 0.930 . S
C582 C580 1.395 . S
C582 C585 1.403 . S
C583 C580 1.403 . S
C583 C584 1.524 . S
C583 C587 1.400 . S
C584 H569 0.960 . S
C584 H570 0.960 . S
C584 H571 0.960 . S
C584 C583 1.524 . S
C585 C582 1.403 . S
C585 C586 1.392 1_554 S
C585 C589 1.495 1_454 S
C586 C585 1.392 1_556 S
C586 C587 1.385 1_556 S
C586 C588 1.478 . S
C587 H581 0.930 . S
C587 C583 1.400 . S
C587 C586 1.385 1_554 S
C588 C586 1.478 . S
C588 C590 1.381 . S
C588 C594 1.383 . S
C589 C585 1.495 1_656 S
C589 H595 0.959 1_556 S
C589 H596 0.961 . S
C589 H597 0.960 1_655 S
C590 C588 1.381 . S
C590 C591 1.394 . S
C590 H598 0.930 . S
C591 C590 1.394 . S
C591 C592 1.383 . S
C591 H599 0.929 . S
C592 C591 1.383 . S
C592 C593 1.377 . S
C593 H577 0.930 1_455 S
C593 C592 1.377 . S
C593 C594 1.379 . S
C594 H578 0.931 1_455 S
C594 C588 1.383 . S
C594 C593 1.379 . S
H595 C589 0.959 1_554 S
H596 C589 0.961 . S
H597 C589 0.960 1_455 S
H598 C590 0.930 . S
H599 C591 0.929 . S
H600 C608 0.929 . S
H601 C610 0.930 . S
H602 C612 0.930 1_565 S
H603 C615 0.929 1_565 S
H604 C618 0.930 . S
H605 C620 0.960 . S
H606 C620 0.960 . S
H607 C620 0.960 . S
C608 H600 0.929 . S
C608 C609 1.377 . S
C608 C610 1.384 . S
C609 C608 1.377 . S
C609 C615 1.390 . S
C610 H601 0.930 . S
C610 C608 1.384 . S
C610 C611 1.372 . S
C611 C610 1.372 . S
C611 C612 1.400 . S
C611 C616 1.490 . S
C612 H602 0.930 1_545 S
C612 C611 1.400 . S
C612 C615 1.386 . S
H613 C629 0.930 . S
H614 C630 0.931 . S
C615 H603 0.929 1_545 S
C615 C609 1.390 . S
C615 C612 1.386 . S
C616 C611 1.490 . S
C616 C618 1.395 . S
C616 C619 1.403 . S
H617 C623 0.930 1_565 S
C618 H604 0.930 . S
C618 C616 1.395 . S
C618 C621 1.403 . S
C619 C616 1.403 . S
C619 C620 1.524 1_545 S
C619 C623 1.400 . S
C620 H605 0.960 . S
C620 H606 0.960 . S
C620 H607 0.960 . S
C620 C619 1.524 1_565 S
C621 C618 1.403 . S
C621 C622 1.392 . S
C621 C625 1.495 . S
C622 C621 1.392 . S
C622 C623 1.385 . S
C622 C624 1.478 . S
C623 H617 0.930 1_545 S
C623 C619 1.400 . S
C623 C622 1.385 . S
C624 C622 1.478 . S
C624 C626 1.381 . S
C624 C630 1.383 . S
C625 C621 1.495 . S
C625 H631 0.959 . S
C625 H632 0.961 . S
C625 H633 0.960 . S
C626 C624 1.381 . S
C626 C627 1.394 . S
C626 H634 0.930 . S
C627 C626 1.394 . S
C627 C628 1.383 . S
C627 H635 0.929 . S
C628 C627 1.383 . S
C628 C629 1.377 . S
C629 H613 0.930 . S
C629 C628 1.377 . S
C629 C630 1.379 . S
C630 H614 0.931 . S
C630 C624 1.383 . S
C630 C629 1.379 . S
H631 C625 0.959 . S
H632 C625 0.961 . S
H633 C625 0.960 . S
H634 C626 0.930 . S
H635 C627 0.929 . S
H636 C644 0.929 . S
H637 C646 0.930 . S
H638 C648 0.930 . S
H639 C651 0.929 . S
H640 C654 0.930 . S
H641 C656 0.960 . S
H642 C656 0.960 . S
H643 C656 0.960 . S
C644 H636 0.929 . S
C644 C645 1.377 . S
C644 C646 1.384 . S
C645 C644 1.377 . S
C645 C651 1.390 . S
C646 H637 0.930 . S
C646 C644 1.384 . S
C646 C647 1.372 . S
C647 C646 1.372 . S
C647 C648 1.400 . S
C647 C652 1.490 . S
C648 H638 0.930 . S
C648 C647 1.400 . S
C648 C651 1.386 . S
H649 C665 0.930 . S
H650 C666 0.931 . S
C651 H639 0.929 . S
C651 C645 1.390 . S
C651 C648 1.386 . S
C652 C647 1.490 . S
C652 C654 1.395 . S
C652 C655 1.403 . S
H653 C659 0.930 . S
C654 H640 0.930 . S
C654 C652 1.395 . S
C654 C657 1.403 . S
C655 C652 1.403 . S
C655 C656 1.524 . S
C655 C659 1.400 . S
C656 H641 0.960 . S
C656 H642 0.960 . S
C656 H643 0.960 . S
C656 C655 1.524 . S
C657 C654 1.403 . S
C657 C658 1.392 . S
C657 C661 1.495 . S
C658 C657 1.392 . S
C658 C659 1.385 . S
C658 C660 1.478 . S
C659 H653 0.930 . S
C659 C655 1.400 . S
C659 C658 1.385 . S
C660 C658 1.478 . S
C660 C662 1.381 . S
C660 C666 1.383 . S
C661 C657 1.495 . S
C661 H667 0.959 . S
C661 H668 0.961 . S
C661 H669 0.960 . S
C662 C660 1.381 . S
C662 C663 1.394 . S
C662 H670 0.930 . S
C663 C662 1.394 . S
C663 C664 1.383 . S
C663 H671 0.929 . S
C664 C663 1.383 . S
C664 C665 1.377 . S
C665 H649 0.930 . S
C665 C664 1.377 . S
C665 C666 1.379 . S
C666 H650 0.931 . S
C666 C660 1.383 . S
C666 C665 1.379 . S
H667 C661 0.959 . S
H668 C661 0.961 . S
H669 C661 0.960 . S
H670 C662 0.930 . S
H671 C663 0.929 . S
H672 C680 0.929 . S
H673 C682 0.930 . S
H674 C684 0.930 . S
H675 C687 0.929 . S
H676 C690 0.930 . S
H677 C692 0.960 . S
H678 C692 0.960 . S
H679 C692 0.960 . S
C680 H672 0.929 . S
C680 C681 1.377 . S
C680 C682 1.384 . S
C681 C680 1.377 . S
C681 C687 1.390 . S
C682 H673 0.930 . S
C682 C680 1.384 . S
C682 C683 1.372 . S
C683 C682 1.372 . S
C683 C684 1.400 . S
C683 C688 1.490 . S
C684 H674 0.930 . S
C684 C683 1.400 . S
C684 C687 1.386 . S
H685 C701 0.930 . S
H686 C702 0.931 . S
C687 H675 0.929 . S
C687 C681 1.390 . S
C687 C684 1.386 . S
C688 C683 1.490 . S
C688 C690 1.395 1_545 S
C688 C691 1.403 . S
H689 C695 0.930 . S
C690 H676 0.930 . S
C690 C688 1.395 1_565 S
C690 C693 1.403 . S
C691 C688 1.403 . S
C691 C692 1.524 . S
C691 C695 1.400 . S
C692 H677 0.960 . S
C692 H678 0.960 . S
C692 H679 0.960 . S
C692 C691 1.524 . S
C693 C690 1.403 . S
C693 C694 1.392 1_565 S
C693 C697 1.495 . S
C694 C693 1.392 1_545 S
C694 C695 1.385 . S
C694 C696 1.478 . S
C695 H689 0.930 . S
C695 C691 1.400 . S
C695 C694 1.385 . S
C696 C694 1.478 . S
C696 C698 1.381 . S
C696 C702 1.383 . S
C697 C693 1.495 . S
C697 H703 0.959 . S
C697 H704 0.961 . S
C697 H705 0.960 . S
C698 C696 1.381 . S
C698 C699 1.394 . S
C698 H706 0.930 . S
C699 C698 1.394 . S
C699 C700 1.383 . S
C699 H707 0.929 . S
C700 C699 1.383 . S
C700 C701 1.377 . S
C701 H685 0.930 . S
C701 C700 1.377 . S
C701 C702 1.379 . S
C702 H686 0.931 . S
C702 C696 1.383 . S
C702 C701 1.379 . S
H703 C697 0.959 . S
H704 C697 0.961 . S
H705 C697 0.960 . S
H706 C698 0.930 . S
H707 C699 0.929 . S
H708 C716 0.929 . S
H709 C718 0.930 . S
H710 C720 0.930 . S
H711 C723 0.929 . S
H712 C726 0.930 . S
H713 C728 0.960 . S
H714 C728 0.960 . S
H715 C728 0.960 . S
C716 H708 0.929 . S
C716 C717 1.377 . S
C716 C718 1.384 . S
C717 C716 1.377 . S
C717 C723 1.390 . S
C718 H709 0.930 . S
C718 C716 1.384 . S
C718 C719 1.372 . S
C719 C718 1.372 . S
C719 C720 1.400 . S
C719 C724 1.490 . S
C720 H710 0.930 . S
C720 C719 1.400 . S
C720 C723 1.386 . S
H721 C737 0.930 . S
H722 C738 0.931 . S
C723 H711 0.929 . S
C723 C717 1.390 . S
C723 C720 1.386 . S
C724 C719 1.490 . S
C724 C726 1.395 . S
C724 C727 1.403 . S
H725 C731 0.930 1_554 S
C726 H712 0.930 . S
C726 C724 1.395 . S
C726 C729 1.403 . S
C727 C724 1.403 . S
C727 C728 1.524 . S
C727 C731 1.400 . S
C728 H713 0.960 . S
C728 H714 0.960 . S
C728 H715 0.960 . S
C728 C727 1.524 . S
C729 C726 1.403 . S
C729 C730 1.392 1_556 S
C729 C733 1.495 . S
C730 C729 1.392 1_554 S
C730 C731 1.385 1_554 S
C730 C732 1.478 . S
C731 H725 0.930 1_556 S
C731 C727 1.400 . S
C731 C730 1.385 1_556 S
C732 C730 1.478 . S
C732 C734 1.381 . S
C732 C738 1.383 . S
C733 C729 1.495 . S
C733 H739 0.959 . S
C733 H740 0.961 1_556 S
C733 H741 0.960 1_556 S
C734 C732 1.381 . S
C734 C735 1.394 . S
C734 H742 0.930 . S
C735 C734 1.394 . S
C735 C736 1.383 . S
C735 H743 0.929 . S
C736 C735 1.383 . S
C736 C737 1.377 . S
C737 H721 0.930 . S
C737 C736 1.377 . S
C737 C738 1.379 . S
C738 H722 0.931 . S
C738 C732 1.383 . S
C738 C737 1.379 . S
H739 C733 0.959 . S
H740 C733 0.961 1_554 S
H741 C733 0.960 1_554 S
H742 C734 0.930 . S
H743 C735 0.929 . S
H744 C752 0.929 . S
H745 C754 0.930 . S
H746 C756 0.930 . S
H747 C759 0.929 . S
H748 C762 0.930 . S
H749 C764 0.960 . S
H750 C764 0.960 . S
H751 C764 0.960 . S
C752 H744 0.929 . S
C752 C753 1.377 . S
C752 C754 1.384 . S
C753 C752 1.377 . S
C753 C759 1.390 1_455 S
C754 H745 0.930 . S
C754 C752 1.384 . S
C754 C755 1.372 . S
C755 C754 1.372 . S
C755 C756 1.400 1_455 S
C755 C760 1.490 . S
C756 H746 0.930 . S
C756 C755 1.400 1_655 S
C756 C759 1.386 . S
H757 C773 0.930 . S
H758 C774 0.931 . S
C759 H747 0.929 . S
C759 C753 1.390 1_655 S
C759 C756 1.386 . S
C760 C755 1.490 . S
C760 C762 1.395 . S
C760 C763 1.403 1_455 S
H761 C767 0.930 . S
C762 H748 0.930 . S
C762 C760 1.395 . S
C762 C765 1.403 . S
C763 C760 1.403 1_655 S
C763 C764 1.524 . S
C763 C767 1.400 . S
C764 H749 0.960 . S
C764 H750 0.960 . S
C764 H751 0.960 . S
C764 C763 1.524 . S
C765 C762 1.403 . S
C765 C766 1.392 . S
C765 C769 1.495 . S
C766 C765 1.392 . S
C766 C767 1.385 1_455 S
C766 C768 1.478 . S
C767 H761 0.930 . S
C767 C763 1.400 . S
C767 C766 1.385 1_655 S
C768 C766 1.478 . S
C768 C770 1.381 . S
C768 C774 1.383 1_455 S
C769 C765 1.495 . S
C769 H775 0.959 . S
C769 H776 0.961 . S
C769 H777 0.960 . S
C770 C768 1.381 . S
C770 C771 1.394 . S
C770 H778 0.930 . S
C771 C770 1.394 . S
C771 C772 1.383 . S
C771 H779 0.929 . S
C772 C771 1.383 . S
C772 C773 1.377 1_455 S
C773 H757 0.930 . S
C773 C772 1.377 1_655 S
C773 C774 1.379 . S
C774 H758 0.931 . S
C774 C768 1.383 1_655 S
C774 C773 1.379 . S
H775 C769 0.959 . S
H776 C769 0.961 . S
H777 C769 0.960 . S
H778 C770 0.930 . S
H779 C771 0.929 . S
C141 C2 1.624 . S
C160 C126 1.688 . S
C177 C22 1.395 . S
C196 C100 1.447 . S
C213 C44 1.435 . S
C232 C112 1.462 . S
C249 C4 1.233 . S
C268 C124 1.231 . S
C304 C102 1.484 . S
C285 C24 1.400 . S
C340 C114 1.450 . S
C321 C42 1.350 . S
C357 C32 1.396 . S
C376 C76 1.344 . S
C393 C49 1.512 . S
C412 C90 1.522 . S
C429 C9 1.088 . S
C448 C66 1.071 1_565 S
C484 C78 1.128 . S
C465 C29 1.071 . S
C520 C88 0.972 . S
C501 C52 1.000 . S
C537 C12 1.296 . S
C556 C64 1.280 . S
C592 C93 1.489 . S
C573 C18 1.487 . S
C609 C38 1.473 . S
C628 C69 1.482 . S
C645 C58 1.467 . S
C664 C81 1.501 . S
C700 C117 1.521 . S
C681 C39 1.506 . S
C736 C129 1.570 . S
C717 C59 1.556 . S
C753 C19 1.500 . S
C772 C105 1.507 . S
