# Generated by pormake.
# Topology dag, (6,3)-cn, num edge types: 1
# Building blocks:
#     Node 0, Type 0, BuildingBlock: MIDCAF_clean_sbu_0, # of connection points: 6
#     Node 1, Type 0, BuildingBlock: MIDCAF_clean_sbu_0, # of connection points: 6
#     Node 2, Type 0, BuildingBlock: MIDCAF_clean_sbu_0, # of connection points: 6
#     Node 3, Type 0, BuildingBlock: MIDCAF_clean_sbu_0, # of connection points: 6
#     Node 4, Type 1, BuildingBlock: CUQRIR_clean_linker_1, # of connection points: 3
#     Node 5, Type 1, BuildingBlock: CUQRIR_clean_linker_1, # of connection points: 3
#     Node 6, Type 1, BuildingBlock: CUQRIR_clean_linker_1, # of connection points: 3
#     Node 7, Type 1, BuildingBlock: CUQRIR_clean_linker_1, # of connection points: 3
#     Node 8, Type 1, BuildingBlock: CUQRIR_clean_linker_1, # of connection points: 3
#     Node 9, Type 1, BuildingBlock: CUQRIR_clean_linker_1, # of connection points: 3
#     Node 10, Type 1, BuildingBlock: CUQRIR_clean_linker_1, # of connection points: 3
#     Node 11, Type 1, BuildingBlock: CUQRIR_clean_linker_1, # of connection points: 3
#     Edge 12, Type (0, 1), BuildingBlock: EZIPEK_clean_linker_0, # of connection points: 2
#     Edge 13, Type (0, 1), BuildingBlock: EZIPEK_clean_linker_0, # of connection points: 2
#     Edge 14, Type (0, 1), BuildingBlock: EZIPEK_clean_linker_0, # of connection points: 2
#     Edge 15, Type (0, 1), BuildingBlock: EZIPEK_clean_linker_0, # of connection points: 2
#     Edge 16, Type (0, 1), BuildingBlock: EZIPEK_clean_linker_0, # of connection points: 2
#     Edge 17, Type (0, 1), BuildingBlock: EZIPEK_clean_linker_0, # of connection points: 2
#     Edge 18, Type (0, 1), BuildingBlock: EZIPEK_clean_linker_0, # of connection points: 2
#     Edge 19, Type (0, 1), BuildingBlock: EZIPEK_clean_linker_0, # of connection points: 2
#     Edge 20, Type (0, 1), BuildingBlock: EZIPEK_clean_linker_0, # of connection points: 2
#     Edge 21, Type (0, 1), BuildingBlock: EZIPEK_clean_linker_0, # of connection points: 2
#     Edge 22, Type (0, 1), BuildingBlock: EZIPEK_clean_linker_0, # of connection points: 2
#     Edge 23, Type (0, 1), BuildingBlock: EZIPEK_clean_linker_0, # of connection points: 2
#     Edge 24, Type (0, 1), BuildingBlock: EZIPEK_clean_linker_0, # of connection points: 2
#     Edge 25, Type (0, 1), BuildingBlock: EZIPEK_clean_linker_0, # of connection points: 2
#     Edge 26, Type (0, 1), BuildingBlock: EZIPEK_clean_linker_0, # of connection points: 2
#     Edge 27, Type (0, 1), BuildingBlock: EZIPEK_clean_linker_0, # of connection points: 2
#     Edge 28, Type (0, 1), BuildingBlock: EZIPEK_clean_linker_0, # of connection points: 2
#     Edge 29, Type (0, 1), BuildingBlock: EZIPEK_clean_linker_0, # of connection points: 2
#     Edge 30, Type (0, 1), BuildingBlock: EZIPEK_clean_linker_0, # of connection points: 2
#     Edge 31, Type (0, 1), BuildingBlock: EZIPEK_clean_linker_0, # of connection points: 2
#     Edge 32, Type (0, 1), BuildingBlock: EZIPEK_clean_linker_0, # of connection points: 2
#     Edge 33, Type (0, 1), BuildingBlock: EZIPEK_clean_linker_0, # of connection points: 2
#     Edge 34, Type (0, 1), BuildingBlock: EZIPEK_clean_linker_0, # of connection points: 2
#     Edge 35, Type (0, 1), BuildingBlock: EZIPEK_clean_linker_0, # of connection points: 2
# Relax obj value: 0.118
# Max RMSD: 0.125
# Mean RMSD: 0.098
data_MOF--net-dag--node1-MIDCAF_clean_sbu_0--node2-CUQRIR_clean_linker_1--edge1-EZIPEK_clean_linker_0
_symmetry_space_group_name_H-M    P1
_symmetry_Int_Tables_number       1
_symmetry_cell_setting            triclinic
loop_
_symmetry_equiv_pos_as_xyz
'x, y, z'
_cell_length_a     27.068811
_cell_length_b     26.95627
_cell_length_c     21.255863
_cell_angle_alpha  90.237118
_cell_angle_beta   89.940686
_cell_angle_gamma 89.9263
loop_
_atom_site_label
_atom_site_type_symbol
_atom_site_fract_x
_atom_site_fract_y
_atom_site_fract_z
_atom_type_partial_charge
Zn0 Zn 0.11863 0.89442 0.10535 0.0
Zn1 Zn 0.08678 0.85672 0.82519 0.0
Zn2 Zn 0.11531 0.88384 0.00263 0.0
C3 C 0.1106 0.96116 0.8791 0.0
C4 C 0.04163 0.82054 0.93931 0.0
O5 O 0.17231 0.83488 0.04301 0.0
O6 O 0.13377 0.82792 0.13362 0.0
C7 C 0.15909 0.97672 0.05845 0.0
O8 O 0.12178 0.94692 0.9357 0.0
O9 O 0.09177 0.93214 0.83785 0.0
O10 O 0.07937 0.81457 0.90499 0.0
O11 O 0.04543 0.8496 0.98664 0.0
O12 O 0.17232 0.94534 0.09899 0.0
O13 O 0.13058 0.96207 0.01403 0.0
O14 O 0.04126 0.86885 0.04625 0.0
O15 O 0.05247 0.91019 0.13459 0.0
C16 C 0.02423 0.88613 0.09866 0.0
O17 O 0.17866 0.83727 0.97907 0.0
O18 O 0.13448 0.84327 0.89653 0.0
C19 C 0.16682 0.81342 0.09648 0.0
C20 C 0.17553 0.83089 0.91999 0.0
Zn21 Zn 0.63748 0.62899 0.39505 0.0
Zn22 Zn 0.62416 0.58351 0.60734 0.0
Zn23 Zn 0.62303 0.60192 0.49832 0.0
C24 C 0.63779 0.49408 0.56063 0.0
C25 C 0.53522 0.62901 0.58639 0.0
O26 O 0.68028 0.66077 0.48657 0.0
O27 O 0.66333 0.69596 0.39589 0.0
C28 C 0.67171 0.53455 0.39534 0.0
O29 O 0.6441 0.52226 0.51253 0.0
O30 O 0.62048 0.51207 0.61071 0.0
O31 O 0.56446 0.6187 0.63037 0.0
O32 O 0.54773 0.6214 0.52865 0.0
O33 O 0.68265 0.5745 0.36791 0.0
O34 O 0.6468 0.53583 0.44688 0.0
O35 O 0.54772 0.61959 0.46038 0.0
O36 O 0.57176 0.62679 0.36176 0.0
C37 C 0.53736 0.62466 0.40144 0.0
O38 O 0.67245 0.6518 0.55091 0.0
O39 O 0.68389 0.61427 0.64165 0.0
C40 C 0.68872 0.69447 0.44526 0.0
C41 C 0.69332 0.64963 0.6051 0.0
Zn42 Zn 0.92331 0.06867 0.85925 0.0
Zn43 Zn 0.84958 0.14029 0.10893 0.0
Zn44 Zn 0.8748 0.11029 0.01179 0.0
C45 C 0.94111 0.14718 0.13442 0.0
C46 C 0.81811 0.04325 0.09921 0.0
O47 O 0.82924 0.13578 0.9307 0.0
O48 O 0.85961 0.1036 0.84064 0.0
C49 C 0.96126 0.13608 0.95807 0.0
O50 O 0.93662 0.14171 0.07416 0.0
O51 O 0.90371 0.14334 0.16927 0.0
O52 O 0.80152 0.0842 0.11938 0.0
O53 O 0.85263 0.04285 0.05778 0.0
O54 O 0.93672 0.10238 0.9335 0.0
O55 O 0.9465 0.1482 0.01243 0.0
O56 O 0.86954 0.0306 0.98744 0.0
O57 O 0.90198 0.00478 0.89464 0.0
C58 C 0.879 -0.00328 0.94581 0.0
O59 O 0.81096 0.15691 0.99775 0.0
O60 O 0.83202 0.2061 0.07466 0.0
C61 C 0.82604 0.12692 0.87071 0.0
C62 C 0.80327 0.19637 0.03 0.0
Zn63 Zn 0.38734 0.40435 0.6003 0.0
Zn64 Zn 0.3393 0.33103 0.33559 0.0
Zn65 Zn 0.37243 0.37779 0.50518 0.0
C66 C 0.44915 0.34867 0.38948 0.0
C67 C 0.32206 0.42829 0.38066 0.0
O68 O 0.32235 0.33648 0.56768 0.0
O69 O 0.31949 0.39759 0.63516 0.0
C70 C 0.4616 0.34574 0.57221 0.0
O71 O 0.44123 0.36283 0.4473 0.0
O72 O 0.41422 0.33625 0.35232 0.0
O73 O 0.31283 0.40222 0.33199 0.0
O74 O 0.3414 0.40884 0.42845 0.0
O75 O 0.43209 0.3501 0.61761 0.0
O76 O 0.44985 0.36251 0.51791 0.0
O77 O 0.34796 0.45523 0.5275 0.0
O78 O 0.41349 0.47292 0.58332 0.0
C79 C 0.37287 0.48669 0.56004 0.0
O80 O 0.32709 0.31193 0.51348 0.0
O81 O 0.35903 0.31008 0.42153 0.0
C82 C 0.30137 0.35784 0.61504 0.0
C83 C 0.32813 0.29227 0.45904 0.0
C84 C 0.15026 0.19871 0.28606 0.0
N85 N 0.13485 0.17024 0.23781 0.0
N86 N 0.19899 0.19169 0.29613 0.0
C87 C 0.11773 0.23329 0.32358 0.0
C88 C 0.21298 0.15833 0.25162 0.0
N89 N 0.17381 0.14544 0.2155 0.0
C90 C 0.26356 0.13541 0.2472 0.0
H91 H 0.11821 0.27042 0.30133 0.0
H92 H 0.13137 0.23706 0.37257 0.0
H93 H 0.07888 0.2204 0.32429 0.0
H94 H 0.26269 0.09843 0.2699 0.0
H95 H 0.29158 0.15869 0.27127 0.0
H96 H 0.27472 0.12974 0.19758 0.0
C97 C 0.27247 0.68888 0.70672 0.0
N98 N 0.3093 0.66642 0.67414 0.0
N99 N 0.29033 0.72818 0.73928 0.0
C100 C 0.21997 0.67127 0.71009 0.0
C101 C 0.3387 0.72993 0.72432 0.0
N102 N 0.35008 0.69276 0.68424 0.0
C103 C 0.37496 0.76576 0.75276 0.0
H104 H 0.19483 0.70242 0.69831 0.0
H105 H 0.21138 0.65991 0.75902 0.0
H106 H 0.21333 0.63972 0.67753 0.0
H107 H 0.37272 0.76398 0.80483 0.0
H108 H 0.36469 0.80403 0.73878 0.0
H109 H 0.41344 0.758 0.73775 0.0
C110 C 0.77728 0.83958 0.2758 0.0
N111 N 0.80492 0.86419 0.23325 0.0
N112 N 0.80609 0.80914 0.31069 0.0
C113 C 0.72239 0.84531 0.28347 0.0
C114 C 0.85196 0.81531 0.28724 0.0
N115 N 0.851 0.84808 0.2397 0.0
C116 C 0.89787 0.7904 0.31127 0.0
H117 H 0.71449 0.86846 0.32555 0.0
H118 H 0.70516 0.80846 0.29102 0.0
H119 H 0.70578 0.86324 0.2416 0.0
H120 H 0.90803 0.75956 0.27902 0.0
H121 H 0.89224 0.77531 0.35922 0.0
H122 H 0.92903 0.81712 0.31168 0.0
C123 C 0.71632 0.28304 0.67997 0.0
N124 N 0.67555 0.30731 0.66008 0.0
N125 N 0.70341 0.24479 0.71666 0.0
C126 C 0.76888 0.2981 0.66685 0.0
C127 C 0.65355 0.24522 0.71764 0.0
N128 N 0.63577 0.28415 0.68369 0.0
C129 C 0.6242 0.20866 0.75573 0.0
H130 H 0.79265 0.26492 0.6607 0.0
H131 H 0.78339 0.31908 0.70785 0.0
H132 H 0.77148 0.32165 0.62431 0.0
H133 H 0.60133 0.22876 0.7908 0.0
H134 H 0.64762 0.18237 0.78214 0.0
H135 H 0.60221 0.18477 0.72403 0.0
C136 C 0.63545 0.29521 0.20869 0.0
N137 N 0.63249 0.32842 0.25621 0.0
N138 N 0.68107 0.29599 0.18278 0.0
C139 C 0.59315 0.26357 0.18645 0.0
C140 C 0.70571 0.33079 0.21664 0.0
N141 N 0.67584 0.35115 0.26081 0.0
C142 C 0.75806 0.34658 0.20471 0.0
H143 H 0.58579 0.23448 0.22203 0.0
H144 H 0.60118 0.2457 0.14049 0.0
H145 H 0.55915 0.28631 0.18225 0.0
H146 H 0.75839 0.37581 0.16814 0.0
H147 H 0.78043 0.31478 0.18744 0.0
H148 H 0.77482 0.36203 0.24819 0.0
C149 C 0.13991 0.23832 0.78218 0.0
N150 N 0.12266 0.19876 0.81329 0.0
N151 N 0.18324 0.22695 0.75449 0.0
C152 C 0.11482 0.28803 0.77903 0.0
C153 C 0.19197 0.17919 0.76975 0.0
N154 N 0.15444 0.16162 0.80509 0.0
C155 C 0.23647 0.14993 0.74944 0.0
H156 H 0.12175 0.30581 0.73286 0.0
H157 H 0.13031 0.31238 0.81629 0.0
H158 H 0.07444 0.28461 0.78681 0.0
H159 H 0.26929 0.17442 0.74612 0.0
H160 H 0.22954 0.13388 0.70213 0.0
H161 H 0.24393 0.11919 0.78269 0.0
C162 C 0.27975 0.63178 0.24013 0.0
N163 N 0.31616 0.61637 0.27845 0.0
N164 N 0.29312 0.67438 0.21194 0.0
C165 C 0.23059 0.60648 0.2318 0.0
C166 C 0.33891 0.68422 0.23394 0.0
N167 N 0.35316 0.64857 0.27402 0.0
C168 C 0.36799 0.73028 0.21982 0.0
H169 H 0.21668 0.61114 0.1832 0.0
H170 H 0.20331 0.62377 0.26414 0.0
H171 H 0.23312 0.56631 0.24249 0.0
H172 H 0.36077 0.75814 0.25728 0.0
H173 H 0.35681 0.74619 0.17391 0.0
H174 H 0.40819 0.72225 0.21953 0.0
C175 C 0.78476 0.81996 0.79742 0.0
N176 N 0.81471 0.82396 0.84883 0.0
N177 N 0.79367 0.77698 0.76679 0.0
C178 C 0.75813 0.86188 0.76481 0.0
C179 C 0.83312 0.75725 0.796 0.0
N180 N 0.84752 0.78681 0.84406 0.0
C181 C 0.86146 0.71277 0.77206 0.0
H182 H 0.71837 0.86159 0.77724 0.0
H183 H 0.76005 0.85678 0.713 0.0
H184 H 0.77496 0.89839 0.77545 0.0
H185 H 0.88944 0.72529 0.73745 0.0
H186 H 0.83646 0.68589 0.74864 0.0
H187 H 0.88134 0.6935 0.81021 0.0
C188 C 0.12461 0.03499 0.13399 0.0
C189 C 0.15664 0.02818 0.08249 0.0
C190 C 0.19701 0.10603 0.11216 0.0
C191 C 0.17128 0.10517 0.17056 0.0
N192 N 0.12813 0.05362 0.244 0.0
N193 N 0.22807 0.0556 0.02511 0.0
C194 C 0.13996 0.06521 0.18369 0.0
C195 C 0.19471 0.06318 0.07219 0.0
N196 N 0.08023 0.01173 0.136 0.0
N197 N 0.22234 0.14734 0.09465 0.0
H198 H 0.2251 0.02561 0.99407 0.0
H199 H 0.25891 0.07814 0.01873 0.0
H200 H 0.22334 0.17911 0.12286 0.0
H201 H 0.23884 0.15093 0.05057 0.0
H202 H 0.05552 0.01668 0.17326 0.0
H203 H 0.06666 0.99372 0.09614 0.0
H204 H 0.10691 0.02256 0.25519 0.0
H205 H 0.14471 0.07186 0.28188 0.0
C206 C 0.4592 0.61471 0.64742 0.0
C207 C 0.48571 0.64546 0.60528 0.0
C208 C 0.42242 0.70926 0.61624 0.0
C209 C 0.39835 0.67966 0.66152 0.0
N210 N 0.40677 0.61606 0.73921 0.0
N211 N 0.50219 0.72965 0.57259 0.0
C212 C 0.42066 0.63581 0.68305 0.0
C213 C 0.47027 0.69516 0.59589 0.0
N214 N 0.47104 0.56573 0.65394 0.0
N215 N 0.39985 0.7505 0.59295 0.0
H216 H 0.53832 0.72087 0.55935 0.0
H217 H 0.49358 0.76733 0.57073 0.0
H218 H 0.3645 0.76136 0.60704 0.0
H219 H 0.41498 0.77141 0.55657 0.0
H220 H 0.45033 0.54162 0.68167 0.0
H221 H 0.49839 0.54845 0.62697 0.0
H222 H 0.42465 0.58576 0.75938 0.0
H223 H 0.38082 0.63364 0.76806 0.0
C224 C 0.78517 0.95598 0.10393 0.0
C225 C 0.80529 -0.00197 0.13454 0.0
C226 C 0.7986 0.95481 0.23462 0.0
C227 C 0.79237 0.90965 0.20179 0.0
N228 N 0.77743 0.86633 0.1049 0.0
N229 N 0.83728 0.03489 0.23057 0.0
C230 C 0.78452 0.90994 0.13617 0.0
C231 C 0.81281 -0.00275 0.20062 0.0
N232 N 0.7642 0.96074 0.04614 0.0
N233 N 0.79371 0.95666 0.29841 0.0
H234 H 0.85212 0.06535 0.20738 0.0
H235 H 0.84788 0.03307 0.27763 0.0
H236 H 0.78485 0.92576 0.32512 0.0
H237 H 0.79382 0.98986 0.32373 0.0
H238 H 0.74452 0.93215 0.02458 0.0
H239 H 0.76203 -0.00502 0.02358 0.0
H240 H 0.7758 0.86396 0.05599 0.0
H241 H 0.77518 0.83254 0.12856 0.0
C242 C 0.51821 0.27951 0.60069 0.0
C243 C 0.51133 0.33058 0.58929 0.0
C244 C 0.5737 0.35009 0.66889 0.0
C245 C 0.58463 0.29933 0.67308 0.0
N246 N 0.53048 0.23069 0.6906 0.0
N247 N 0.53218 0.41575 0.61073 0.0
C248 C 0.54888 0.26537 0.65076 0.0
C249 C 0.5391 0.36652 0.62314 0.0
N250 N 0.48949 0.24483 0.5714 0.0
N251 N 0.59634 0.3808 0.71073 0.0
H252 H 0.50846 0.42786 0.57525 0.0
H253 H 0.55213 0.44424 0.63166 0.0
H254 H 0.58979 0.4188 0.71447 0.0
H255 H 0.58979 0.4188 0.71447 0.0
H256 H 0.49605 0.20688 0.57649 0.0
H257 H 0.46076 0.25402 0.54093 0.0
H258 H 0.50222 0.20621 0.67836 0.0
H259 H 0.53444 0.23505 0.73896 0.0
C260 C 0.65863 0.48446 0.29826 0.0
C261 C 0.67775 0.48755 0.36035 0.0
C262 C 0.69985 0.39947 0.35552 0.0
C263 C 0.68309 0.39789 0.29253 0.0
N264 N 0.66399 0.44312 0.19825 0.0
N265 N 0.72707 0.45131 0.44257 0.0
C266 C 0.66832 0.44181 0.26207 0.0
C267 C 0.70145 0.44592 0.3877 0.0
N268 N 0.62842 0.52061 0.27472 0.0
N269 N 0.71418 0.35666 0.38412 0.0
H270 H 0.73036 0.48541 0.46557 0.0
H271 H 0.74827 0.42316 0.46237 0.0
H272 H 0.71687 0.32321 0.3595 0.0
H273 H 0.72142 0.35415 0.43213 0.0
H274 H 0.60951 0.5167 0.23227 0.0
H275 H 0.61751 0.55185 0.30007 0.0
H276 H 0.65806 0.47584 0.17336 0.0
H277 H 0.67128 0.4125 0.17 0.0
C278 C 0.04478 0.1775 0.95122 0.0
C279 C -0.00026 0.1629 0.92281 0.0
C280 C 0.03369 0.1823 0.81961 0.0
C281 C 0.07805 0.19641 0.84901 0.0
N282 N 0.11875 0.22451 0.94393 0.0
N283 N 0.94569 0.1755 0.834 0.0
C284 C 0.08027 0.20161 0.91485 0.0
C285 C -0.00775 0.1725 0.85787 0.0
N286 N 0.05757 0.16452 0.01057 0.0
N287 N 0.03147 0.17753 0.75582 0.0
H288 H 0.91498 0.17595 0.86356 0.0
H289 H 0.93834 0.18499 0.78744 0.0
H290 H 0.06139 0.18601 0.72681 0.0
H291 H 0.00091 0.16261 0.73271 0.0
H292 H 0.03705 0.14005 0.03796 0.0
H293 H 0.03705 0.14005 0.03796 0.0
H294 H 0.14717 0.24205 0.91935 0.0
H295 H 0.14717 0.24205 0.91935 0.0
C296 C 0.36421 0.50023 0.34332 0.0
C297 C 0.32346 0.48155 0.37532 0.0
C298 C 0.28209 0.56029 0.36048 0.0
C299 C 0.3175 0.57111 0.31305 0.0
N300 N 0.37868 0.53628 0.24346 0.0
N301 N 0.24226 0.49371 0.41861 0.0
C302 C 0.35547 0.53725 0.30007 0.0
C303 C 0.28158 0.51158 0.38575 0.0
N304 N 0.41048 0.48277 0.35379 0.0
N305 N 0.25039 0.59596 0.38141 0.0
H306 H 0.24293 0.45862 0.43929 0.0
H307 H 0.20904 0.51301 0.42296 0.0
H308 H 0.25197 0.6323 0.36481 0.0
H309 H 0.22613 0.59033 0.41881 0.0
H310 H 0.44108 0.49806 0.33128 0.0
H311 H 0.41772 0.4569 0.38904 0.0
H312 H 0.40547 0.50963 0.23263 0.0
H313 H 0.3666 0.55846 0.20638 0.0
C314 C 0.96951 0.84582 0.87427 0.0
C315 C -0.00754 0.81022 0.91326 0.0
C316 C 0.92007 0.75652 0.90456 0.0
C317 C 0.89868 0.79109 0.8625 0.0
N318 N 0.91027 0.85954 0.79148 0.0
N319 N -0.00576 0.72781 0.95702 0.0
C320 C 0.92598 0.8327 0.84196 0.0
C321 C 0.96932 0.76409 0.92546 0.0
N322 N 0.98761 0.89296 0.8707 0.0
N323 N 0.89215 0.71853 0.92752 0.0
H324 H 0.02992 0.73278 0.97451 0.0
H325 H 0.98094 0.69179 0.96193 0.0
H326 H 0.85554 0.71303 0.91379 0.0
H327 H 0.90376 0.69521 0.96355 0.0
H328 H 0.96936 0.9215 0.8473 0.0
H329 H 0.01754 0.90489 0.89744 0.0
H330 H 0.931 0.88809 0.77173 0.0
H331 H 0.87946 0.84949 0.76504 0.0
C332 C 0.80422 0.95027 0.91354 0.0
C333 C 0.85025 0.95096 0.94586 0.0
C334 C 0.84888 0.86123 0.94797 0.0
C335 C 0.81465 0.86211 0.89827 0.0
N336 N 0.73424 0.89818 0.88891 0.0
N337 N 0.91539 0.90585 0.99733 0.0
C338 C 0.78375 0.90394 0.89664 0.0
C339 C 0.87173 0.90608 0.96588 0.0
N340 N 0.78111 0.99328 0.89697 0.0
N341 N 0.85492 0.81923 0.98205 0.0
H342 H 0.93285 0.93845 0.01179 0.0
H343 H 0.93514 0.87311 0.00396 0.0
H344 H 0.83278 0.78823 0.97352 0.0
H345 H 0.87764 0.8177 0.02149 0.0
H346 H 0.75009 0.99376 0.8679 0.0
H347 H 0.794 0.02809 0.91081 0.0
H348 H 0.70927 0.92753 0.89294 0.0
H349 H 0.71869 0.86279 0.88583 0.0
C350 C 0.50795 0.37621 0.30479 0.0
C351 C 0.49956 0.34826 0.36083 0.0
C352 C 0.58193 0.31046 0.34971 0.0
C353 C 0.58954 0.3383 0.29427 0.0
N354 N 0.55842 0.39024 0.21229 0.0
N355 N 0.52703 0.28713 0.43503 0.0
C356 C 0.55256 0.36998 0.27072 0.0
C357 C 0.53655 0.31538 0.38337 0.0
N358 N 0.4727 0.40803 0.28292 0.0
N359 N 0.6169 0.27643 0.36672 0.0
H360 H 0.49226 0.28601 0.45549 0.0
H361 H 0.55258 0.26461 0.45757 0.0
H362 H 0.64945 0.27121 0.34126 0.0
H363 H 0.61361 0.25182 0.40395 0.0
H364 H 0.47954 0.43577 0.25015 0.0
H365 H 0.43639 0.40795 0.29845 0.0
H366 H 0.53119 0.40959 0.18814 0.0
H367 H 0.58963 0.38393 0.18477 0.0
C368 C 0.12083 0.05236 0.90287 0.0
C369 C 0.1217 0.01295 0.85858 0.0
C370 C 0.13703 0.07437 0.77598 0.0
C371 C 0.14553 0.1108 0.8224 0.0
N372 N 0.16022 0.13057 0.9292 0.0
N373 N 0.14492 0.98787 0.75161 0.0
C374 C 0.14247 0.09811 0.88604 0.0
C375 C 0.13382 0.02409 0.79446 0.0
N376 N 0.09484 0.04827 0.95744 0.0
N377 N 0.1309 0.08759 0.71463 0.0
H378 H 0.14759 0.95051 0.76238 0.0
H379 H 0.15775 -0.00412 0.7065 0.0
H380 H 0.13117 0.12446 0.70017 0.0
H381 H 0.12031 0.06235 0.67988 0.0
H382 H 0.09264 0.07674 0.99043 0.0
H383 H 0.07037 0.01907 0.96534 0.0
H384 H 0.15979 0.12413 0.97747 0.0
H385 H 0.15979 0.12413 0.97747 0.0
C386 C 0.47832 0.60458 0.31645 0.0
C387 C 0.48647 0.62764 0.37567 0.0
C388 C 0.40417 0.66515 0.36849 0.0
C389 C 0.39942 0.64568 0.30702 0.0
N390 N 0.44186 0.61662 0.21444 0.0
N391 N 0.46281 0.69396 0.44585 0.0
C392 C 0.43982 0.62198 0.27817 0.0
C393 C 0.4507 0.66158 0.39923 0.0
N394 N 0.50672 0.56551 0.2971 0.0
N395 N 0.36518 0.68876 0.39604 0.0
H396 H 0.49864 0.6962 0.46304 0.0
H397 H 0.43956 0.72251 0.46071 0.0
H398 H 0.3313 0.69285 0.37329 0.0
H399 H 0.36585 0.70129 0.44247 0.0
H400 H 0.50014 0.54642 0.25515 0.0
H401 H 0.53207 0.54838 0.32693 0.0
H402 H 0.47291 0.60252 0.19137 0.0
H403 H 0.4141 0.62996 0.18497 0.0
C404 C 0.3385 0.57345 0.5499 0.0
C405 C 0.34857 0.53149 0.58779 0.0
C406 C 0.31439 0.57523 0.6805 0.0
C407 C 0.30925 0.61839 0.64348 0.0
N408 N 0.30236 0.6561 0.54271 0.0
N409 N 0.34716 0.49216 0.69045 0.0
C410 C 0.31657 0.61634 0.5778 0.0
C411 C 0.33598 0.53198 0.65332 0.0
N412 N 0.35361 0.57365 0.48861 0.0
N413 N 0.30211 0.57727 0.74294 0.0
H414 H 0.36977 0.46314 0.67647 0.0
H415 H 0.33603 0.48755 0.73677 0.0
H416 H 0.28746 0.6087 0.76427 0.0
H417 H 0.3057 0.54851 0.7749 0.0
H418 H 0.35089 0.60424 0.45934 0.0
H419 H 0.37192 0.54373 0.46786 0.0
H420 H 0.30093 0.65577 0.49383 0.0
H421 H 0.2871 0.68783 0.5634 0.0
C422 C 0.9498 0.91616 0.15395 0.0
C423 C 0.97332 0.87701 0.1209 0.0
C424 C 0.90659 0.82193 0.1539 0.0
C425 C 0.89095 0.85851 0.19747 0.0
N426 N 0.90797 0.93528 0.25074 0.0
N427 N 0.97619 0.78888 0.09629 0.0
C428 C 0.91512 0.90446 0.20067 0.0
C429 C 0.9521 0.8287 0.12179 0.0
N430 N 0.96042 0.96437 0.14061 0.0
N431 N 0.8784 0.7807 0.14418 0.0
H432 H 0.01078 0.79109 0.07528 0.0
H433 H 0.9637 0.75256 0.10116 0.0
H434 H 0.84478 0.77534 0.16719 0.0
H435 H 0.88607 0.75456 0.10924 0.0
H436 H 0.94095 0.99371 0.16099 0.0
H437 H 0.98349 0.97406 0.10332 0.0
H438 H 0.92786 0.9681 0.2567 0.0
H439 H 0.88633 0.92489 0.28911 0.0
C440 C 0.64182 0.40223 0.53808 0.0
C441 C 0.6618 0.44518 0.56655 0.0
C442 C 0.69669 0.39633 0.65136 0.0
C443 C 0.67594 0.35293 0.62446 0.0
N444 N 0.6416 0.31205 0.53411 0.0
N445 N 0.7245 0.48021 0.63322 0.0
C446 C 0.65331 0.35503 0.5644 0.0
C447 C 0.69566 0.44074 0.61671 0.0
N448 N 0.60974 0.4068 0.48904 0.0
N449 N 0.71235 0.39657 0.71241 0.0
H450 H 0.72393 0.51334 0.6079 0.0
H451 H 0.75214 0.47796 0.66722 0.0
H452 H 0.709 0.3659 0.74178 0.0
H453 H 0.72332 0.42877 0.73582 0.0
H454 H 0.58945 0.37724 0.47101 0.0
H455 H 0.60203 0.44101 0.46844 0.0
H456 H 0.62835 0.31118 0.48825 0.0
H457 H 0.64924 0.27735 0.55349 0.0
C458 C 0.00568 0.12521 0.21391 0.0
C459 C 0.98991 0.15589 0.16362 0.0
C460 C 0.07054 0.19675 0.16297 0.0
C461 C 0.08503 0.16733 0.21455 0.0
N462 N 0.0593 0.1191 0.304 0.0
N463 N 0.00189 0.23115 0.10429 0.0
C464 C 0.05029 0.1366 0.24498 0.0
C465 C 0.02056 0.1952 0.14265 0.0
N466 N 0.97972 0.08378 0.23031 0.0
N467 N 0.10456 0.22593 0.1336 0.0
H468 H 0.96507 0.23162 0.08986 0.0
H469 H 0.02173 0.26261 0.09143 0.0
H470 H 0.141 0.22872 0.14921 0.0
H471 H 0.0974 0.24465 0.09179 0.0
H472 H -0.007 0.0579 0.26248 0.0
H473 H 0.94767 0.07245 0.20742 0.0
H474 H 0.03285 0.10017 0.33026 0.0
H475 H 0.09153 0.12737 0.32867 0.0
C476 C 0.21062 0.73183 0.09182 0.0
C477 C 0.20299 0.77858 0.12085 0.0
C478 C 0.247 0.75173 0.21377 0.0
C479 C 0.26107 0.70836 0.18134 0.0
N480 N 0.26348 0.65938 0.08658 0.0
N481 N 0.22441 0.83743 0.20284 0.0
C482 C 0.24516 0.69903 0.11918 0.0
C483 C 0.22457 0.78999 0.17983 0.0
N484 N 0.18356 0.71796 0.04051 0.0
N485 N 0.25367 0.75555 0.27726 0.0
H486 H 0.21025 0.86738 0.17764 0.0
H487 H 0.2432 0.84768 0.24365 0.0
H488 H 0.26802 0.72663 0.30407 0.0
H489 H 0.23992 0.7851 0.30383 0.0
H490 H 0.1848 0.6823 0.02146 0.0
H491 H 0.15743 0.74115 0.01971 0.0
H492 H 0.25626 0.65333 0.03901 0.0
H493 H 0.2889 0.6348 0.1063 0.0
C494 C 0.76568 0.70674 0.6199 0.0
C495 C 0.71601 0.69403 0.63204 0.0
C496 C 0.7149 0.74379 0.727 0.0
C497 C 0.76521 0.7556 0.71664 0.0
N498 N 0.83177 0.76483 0.64265 0.0
N499 N 0.63844 0.71764 0.6789 0.0
C500 C 0.78836 0.7428 0.65902 0.0
C501 C 0.68886 0.71895 0.67918 0.0
N502 N 0.79158 0.68275 0.57387 0.0
N503 N 0.69308 0.75219 0.78402 0.0
H504 H 0.61865 0.70034 0.64289 0.0
H505 H 0.61683 0.73847 0.70991 0.0
H506 H 0.71167 0.7669 0.82262 0.0
H507 H 0.65766 0.73973 0.79491 0.0
H508 H 0.82937 0.68757 0.5669 0.0
H509 H 0.77539 0.65593 0.54504 0.0
H510 H 0.84873 0.75936 0.59913 0.0
H511 H 0.84794 0.79215 0.67083 0.0
C512 C 0.74668 0.26786 0.03227 0.0
C513 C 0.75326 0.21625 0.03876 0.0
C514 C 0.70327 0.21587 0.13361 0.0
C515 C 0.69891 0.26798 0.12966 0.0
N516 N 0.69885 0.33998 0.06335 0.0
N517 N 0.7186 0.13975 0.07658 0.0
C518 C 0.71464 0.2929 0.07462 0.0
C519 C 0.72382 0.18982 0.08214 0.0
N520 N 0.77359 0.29292 0.98848 0.0
N521 N 0.69186 0.19178 0.18806 0.0
H522 H 0.73439 0.11983 0.03959 0.0
H523 H 0.69494 0.11926 0.10515 0.0
H524 H 0.67965 0.21024 0.22837 0.0
H525 H 0.69906 0.15419 0.19489 0.0
H526 H 0.77462 0.33149 0.98587 0.0
H527 H 0.79601 0.2742 0.95609 0.0
H528 H 0.70709 0.35919 0.02223 0.0
H529 H 0.67279 0.35706 0.09234 0.0
C530 C 0.23132 0.29797 0.61771 0.0
C531 C 0.26089 0.33314 0.64967 0.0
C532 C 0.23825 0.29787 0.75059 0.0
C533 C 0.21284 0.25991 0.7185 0.0
N534 N 0.1836 0.22209 0.62304 0.0
N535 N 0.26779 0.38185 0.74534 0.0
C536 C 0.2088 0.25945 0.65229 0.0
C537 C 0.25746 0.3379 0.716 0.0
N538 N 0.221 0.305 0.55564 0.0
N539 N 0.24422 0.29511 0.81426 0.0
H540 H 0.27257 0.41486 0.7209 0.0
H541 H 0.26292 0.38763 0.79343 0.0
H542 H 0.23024 0.26575 0.84072 0.0
H543 H 0.26674 0.31926 0.83965 0.0
H544 H 0.19749 0.28269 0.52917 0.0
H545 H 0.23167 0.3375 0.5331 0.0
H546 H 0.18352 0.21649 0.57456 0.0
H547 H 0.16482 0.19475 0.64794 0.0
C548 C 0.73861 0.77043 0.45413 0.0
C549 C 0.73653 0.71908 0.44257 0.0
C550 C 0.79226 0.72575 0.35412 0.0
C551 C 0.79088 0.77789 0.36141 0.0
N552 N 0.77965 0.84806 0.42993 0.0
N553 N 0.77714 0.64622 0.40302 0.0
C554 C 0.76999 0.79967 0.41601 0.0
C555 C 0.77035 0.69633 0.40108 0.0
N556 N 0.70824 0.79094 0.49835 0.0
N557 N 0.80962 0.70472 0.2999 0.0
H558 H 0.75955 0.62432 0.43667 0.0
H559 H 0.80343 0.62775 0.37575 0.0
H560 H 0.8228 0.72552 0.26231 0.0
H561 H 0.80681 0.66694 0.29005 0.0
H562 H 0.70414 0.82903 0.50489 0.0
H563 H 0.68615 0.76884 0.52723 0.0
H564 H 0.76732 0.86559 0.47078 0.0
H565 H 0.80423 0.86884 0.40294 0.0
C566 C 0.75106 0.18124 0.85825 0.0
C567 C 0.78506 0.14781 0.83191 0.0
C568 C 0.75866 0.1731 0.72663 0.0
C569 C 0.73483 0.21439 0.75448 0.0
N570 N 0.70988 0.25979 0.84722 0.0
N571 N 0.79671 0.09278 0.7433 0.0
C572 C 0.73226 0.21951 0.8206 0.0
C573 C 0.78234 0.13802 0.76614 0.0
N574 N 0.72928 0.17032 0.91402 0.0
N575 N 0.75782 0.16745 0.66276 0.0
H576 H 0.80534 0.0633 0.773 0.0
H577 H 0.7937 0.08202 0.69642 0.0
H578 H 0.73801 0.19117 0.63343 0.0
H579 H 0.77866 0.14118 0.63844 0.0
H580 H 0.6994 0.19045 0.93184 0.0
H581 H 0.73571 0.1362 0.93548 0.0
H582 H 0.70849 0.26523 0.89579 0.0
H583 H 0.69616 0.28911 0.82048 0.0
C584 C 0.2542 0.29331 0.39177 0.0
C585 C 0.28483 0.26651 0.43312 0.0
C586 C 0.2498 0.18924 0.39297 0.0
C587 C 0.22861 0.21627 0.34266 0.0
N588 N 0.21834 0.29376 0.28824 0.0
N589 N 0.31187 0.18849 0.47545 0.0
C590 C 0.23272 0.26836 0.34053 0.0
C591 C 0.28231 0.21414 0.43502 0.0
N592 N 0.24569 0.3425 0.4016 0.0
N593 N 0.23801 0.1405 0.401 0.0
H594 H 0.33413 0.20632 0.50864 0.0
H595 H 0.31565 0.15004 0.47424 0.0
H596 H 0.21325 0.12207 0.3715 0.0
H597 H 0.24935 0.11986 0.43971 0.0
H598 H 0.22021 0.36279 0.37537 0.0
H599 H 0.26061 0.36126 0.44003 0.0
H600 H 0.22458 0.33166 0.28274 0.0
H601 H 0.20485 0.27599 0.24809 0.0
C602 C 0.24713 0.77216 0.89793 0.0
C603 C 0.21639 0.81209 0.87943 0.0
C604 C 0.24278 0.80166 0.77012 0.0
C605 C 0.26603 0.7569 0.78698 0.0
N606 N 0.2918 0.69836 0.86543 0.0
N607 N 0.2067 0.87875 0.80615 0.0
C608 C 0.26894 0.74195 0.85064 0.0
C609 C 0.22037 0.83096 0.81761 0.0
N610 N 0.25939 0.76605 0.95959 0.0
N611 N 0.24087 0.8151 0.70831 0.0
H612 H 0.19419 0.90216 0.84201 0.0
H613 H 0.21425 0.89678 0.76403 0.0
H614 H 0.25819 0.79456 0.67285 0.0
H615 H 0.21963 0.84453 0.6918 0.0
H616 H 0.28445 0.73954 0.97535 0.0
H617 H 0.25057 0.79217 0.99386 0.0
H618 H 0.29008 0.68226 0.90984 0.0
H619 H 0.30993 0.67664 0.83192 0.0
loop_
_geom_bond_atom_site_label_1
_geom_bond_atom_site_label_2
_geom_bond_distance
_geom_bond_site_symmetry_2
_ccdc_geom_bond_type
Zn0 O6 1.920 . S
Zn0 O12 1.898 . S
Zn0 O15 1.905 . S
Zn1 O9 1.905 . S
Zn1 O10 1.898 . S
Zn1 O18 1.920 . S
Zn2 O5 2.087 . S
Zn2 O8 2.108 1_554 S
Zn2 O11 2.113 1_554 S
Zn2 O13 2.127 . S
Zn2 O14 2.120 . S
Zn2 O17 2.074 1_554 S
C3 O8 1.166 . S
C3 O9 1.182 . S
C4 O10 1.167 . S
C4 O11 1.299 . S
O5 Zn2 2.087 . S
O5 C19 1.305 . S
O6 Zn0 1.920 . S
O6 C19 1.234 . S
C7 O12 1.167 . S
C7 O13 1.299 . S
O8 Zn2 2.108 1_556 S
O8 C3 1.166 . S
O9 Zn1 1.905 . S
O9 C3 1.182 . S
O10 Zn1 1.898 . S
O10 C4 1.167 . S
O11 Zn2 2.113 1_556 S
O11 C4 1.299 . S
O12 Zn0 1.898 . S
O12 C7 1.167 . S
O13 Zn2 2.127 . S
O13 C7 1.299 . S
O14 Zn2 2.120 . S
O14 C16 1.166 . S
O15 Zn0 1.905 . S
O15 C16 1.182 . S
C16 O14 1.166 . S
C16 O15 1.182 . S
O17 Zn2 2.074 1_556 S
O17 C20 1.305 . S
O18 Zn1 1.920 . S
O18 C20 1.234 . S
C19 O5 1.305 . S
C19 O6 1.234 . S
C20 O17 1.305 . S
C20 O18 1.234 . S
Zn21 O27 1.920 . S
Zn21 O33 1.898 . S
Zn21 O36 1.905 . S
Zn22 O30 1.905 . S
Zn22 O31 1.898 . S
Zn22 O39 1.920 . S
Zn23 O26 2.080 . S
Zn23 O29 2.114 . S
Zn23 O32 2.120 . S
Zn23 O34 2.120 . S
Zn23 O35 2.114 . S
Zn23 O38 2.080 . S
C24 O29 1.166 . S
C24 O30 1.182 . S
C25 O31 1.167 . S
C25 O32 1.299 . S
O26 Zn23 2.080 . S
O26 C40 1.305 . S
O27 Zn21 1.920 . S
O27 C40 1.234 . S
C28 O33 1.167 . S
C28 O34 1.299 . S
O29 Zn23 2.114 . S
O29 C24 1.166 . S
O30 Zn22 1.905 . S
O30 C24 1.182 . S
O31 Zn22 1.898 . S
O31 C25 1.167 . S
O32 Zn23 2.120 . S
O32 C25 1.299 . S
O33 Zn21 1.898 . S
O33 C28 1.167 . S
O34 Zn23 2.120 . S
O34 C28 1.299 . S
O35 Zn23 2.114 . S
O35 C37 1.166 . S
O36 Zn21 1.905 . S
O36 C37 1.182 . S
C37 O35 1.166 . S
C37 O36 1.182 . S
O38 Zn23 2.080 . S
O38 C41 1.305 . S
O39 Zn22 1.920 . S
O39 C41 1.234 . S
C40 O26 1.305 . S
C40 O27 1.234 . S
C41 O38 1.305 . S
C41 O39 1.234 . S
Zn42 O48 1.920 . S
Zn42 O54 1.898 . S
Zn42 O57 1.905 . S
Zn43 O51 1.905 . S
Zn43 O52 1.898 . S
Zn43 O60 1.920 . S
Zn44 O47 2.074 1_554 S
Zn44 O50 2.120 . S
Zn44 O53 2.127 . S
Zn44 O55 2.113 1_554 S
Zn44 O56 2.107 1_554 S
Zn44 O59 2.087 . S
C45 O50 1.166 . S
C45 O51 1.182 . S
C46 O52 1.167 . S
C46 O53 1.299 . S
O47 Zn44 2.074 1_556 S
O47 C61 1.305 . S
O48 Zn42 1.920 . S
O48 C61 1.234 . S
C49 O54 1.167 . S
C49 O55 1.299 . S
O50 Zn44 2.120 . S
O50 C45 1.166 . S
O51 Zn43 1.905 . S
O51 C45 1.182 . S
O52 Zn43 1.898 . S
O52 C46 1.167 . S
O53 Zn44 2.127 . S
O53 C46 1.299 . S
O54 Zn42 1.898 . S
O54 C49 1.167 . S
O55 Zn44 2.113 1_556 S
O55 C49 1.299 . S
O56 Zn44 2.107 1_556 S
O56 C58 1.166 . S
O57 Zn42 1.905 . S
O57 C58 1.182 . S
C58 O56 1.166 . S
C58 O57 1.182 . S
O59 Zn44 2.087 . S
O59 C62 1.305 . S
O60 Zn43 1.920 . S
O60 C62 1.234 . S
C61 O47 1.305 . S
C61 O48 1.234 . S
C62 O59 1.305 . S
C62 O60 1.234 . S
Zn63 O69 1.920 . S
Zn63 O75 1.898 . S
Zn63 O78 1.905 . S
Zn64 O72 1.905 . S
Zn64 O73 1.898 . S
Zn64 O81 1.920 . S
Zn65 O68 2.080 . S
Zn65 O71 2.114 . S
Zn65 O74 2.120 . S
Zn65 O76 2.120 . S
Zn65 O77 2.114 . S
Zn65 O80 2.080 . S
C66 O71 1.166 . S
C66 O72 1.182 . S
C67 O73 1.167 . S
C67 O74 1.299 . S
O68 Zn65 2.080 . S
O68 C82 1.305 . S
O69 Zn63 1.920 . S
O69 C82 1.234 . S
C70 O75 1.167 . S
C70 O76 1.299 . S
O71 Zn65 2.114 . S
O71 C66 1.166 . S
O72 Zn64 1.905 . S
O72 C66 1.182 . S
O73 Zn64 1.898 . S
O73 C67 1.167 . S
O74 Zn65 2.120 . S
O74 C67 1.299 . S
O75 Zn63 1.898 . S
O75 C70 1.167 . S
O76 Zn65 2.120 . S
O76 C70 1.299 . S
O77 Zn65 2.114 . S
O77 C79 1.166 . S
O78 Zn63 1.905 . S
O78 C79 1.182 . S
C79 O77 1.166 . S
C79 O78 1.182 . S
O80 Zn65 2.080 . S
O80 C83 1.305 . S
O81 Zn64 1.920 . S
O81 C83 1.234 . S
C82 O68 1.305 . S
C82 O69 1.234 . S
C83 O80 1.305 . S
C83 O81 1.234 . S
C84 N85 1.317 . S
C84 N86 1.348 . S
C84 C87 1.485 . S
N85 C84 1.317 . S
N85 N89 1.370 . S
N86 C84 1.348 . S
N86 C88 1.346 . S
C87 C84 1.485 . S
C87 H91 0.960 . S
C87 H92 0.961 . S
C87 H93 0.960 . S
C88 N86 1.346 . S
C88 N89 1.307 . S
C88 C90 1.486 . S
N89 N85 1.370 . S
N89 C88 1.307 . S
C90 C88 1.486 . S
C90 H94 0.960 . S
C90 H95 0.960 . S
C90 H96 0.959 . S
H91 C87 0.960 . S
H92 C87 0.961 . S
H93 C87 0.960 . S
H94 C90 0.960 . S
H95 C90 0.960 . S
H96 C90 0.959 . S
C97 N98 1.317 . S
C97 N99 1.348 . S
C97 C100 1.485 . S
N98 C97 1.317 . S
N98 N102 1.370 . S
N99 C97 1.348 . S
N99 C101 1.346 . S
C100 C97 1.485 . S
C100 H104 0.960 . S
C100 H105 0.961 . S
C100 H106 0.960 . S
C101 N99 1.346 . S
C101 N102 1.307 . S
C101 C103 1.486 . S
N102 N98 1.370 . S
N102 C101 1.307 . S
C103 C101 1.486 . S
C103 H107 0.960 . S
C103 H108 0.960 . S
C103 H109 0.959 . S
H104 C100 0.960 . S
H105 C100 0.961 . S
H106 C100 0.960 . S
H107 C103 0.960 . S
H108 C103 0.960 . S
H109 C103 0.959 . S
C110 N111 1.317 . S
C110 N112 1.348 . S
C110 C113 1.485 . S
N111 C110 1.317 . S
N111 N115 1.370 . S
N112 C110 1.348 . S
N112 C114 1.346 . S
C113 C110 1.485 . S
C113 H117 0.960 . S
C113 H118 0.961 . S
C113 H119 0.960 . S
C114 N112 1.346 . S
C114 N115 1.307 . S
C114 C116 1.486 . S
N115 N111 1.370 . S
N115 C114 1.307 . S
C116 C114 1.486 . S
C116 H120 0.960 . S
C116 H121 0.960 . S
C116 H122 0.959 . S
H117 C113 0.960 . S
H118 C113 0.961 . S
H119 C113 0.960 . S
H120 C116 0.960 . S
H121 C116 0.960 . S
H122 C116 0.959 . S
C123 N124 1.317 . S
C123 N125 1.348 . S
C123 C126 1.485 . S
N124 C123 1.317 . S
N124 N128 1.370 . S
N125 C123 1.348 . S
N125 C127 1.346 . S
C126 C123 1.485 . S
C126 H130 0.960 . S
C126 H131 0.961 . S
C126 H132 0.960 . S
C127 N125 1.346 . S
C127 N128 1.307 . S
C127 C129 1.486 . S
N128 N124 1.370 . S
N128 C127 1.307 . S
C129 C127 1.486 . S
C129 H133 0.960 . S
C129 H134 0.960 . S
C129 H135 0.959 . S
H130 C126 0.960 . S
H131 C126 0.961 . S
H132 C126 0.960 . S
H133 C129 0.960 . S
H134 C129 0.960 . S
H135 C129 0.959 . S
C136 N137 1.317 . S
C136 N138 1.348 . S
C136 C139 1.485 . S
N137 C136 1.317 . S
N137 N141 1.370 . S
N138 C136 1.348 . S
N138 C140 1.346 . S
C139 C136 1.485 . S
C139 H143 0.960 . S
C139 H144 0.961 . S
C139 H145 0.960 . S
C140 N138 1.346 . S
C140 N141 1.307 . S
C140 C142 1.486 . S
N141 N137 1.370 . S
N141 C140 1.307 . S
C142 C140 1.486 . S
C142 H146 0.960 . S
C142 H147 0.960 . S
C142 H148 0.959 . S
H143 C139 0.960 . S
H144 C139 0.961 . S
H145 C139 0.960 . S
H146 C142 0.960 . S
H147 C142 0.960 . S
H148 C142 0.959 . S
C149 N150 1.317 . S
C149 N151 1.348 . S
C149 C152 1.485 . S
N150 C149 1.317 . S
N150 N154 1.370 . S
N151 C149 1.348 . S
N151 C153 1.346 . S
C152 C149 1.485 . S
C152 H156 0.960 . S
C152 H157 0.961 . S
C152 H158 0.960 . S
C153 N151 1.346 . S
C153 N154 1.307 . S
C153 C155 1.486 . S
N154 N150 1.370 . S
N154 C153 1.307 . S
C155 C153 1.486 . S
C155 H159 0.960 . S
C155 H160 0.960 . S
C155 H161 0.959 . S
H156 C152 0.960 . S
H157 C152 0.961 . S
H158 C152 0.960 . S
H159 C155 0.960 . S
H160 C155 0.960 . S
H161 C155 0.959 . S
C162 N163 1.317 . S
C162 N164 1.348 . S
C162 C165 1.485 . S
N163 C162 1.317 . S
N163 N167 1.370 . S
N164 C162 1.348 . S
N164 C166 1.346 . S
C165 C162 1.485 . S
C165 H169 0.960 . S
C165 H170 0.961 . S
C165 H171 0.960 . S
C166 N164 1.346 . S
C166 N167 1.307 . S
C166 C168 1.486 . S
N167 N163 1.370 . S
N167 C166 1.307 . S
C168 C166 1.486 . S
C168 H172 0.960 . S
C168 H173 0.960 . S
C168 H174 0.959 . S
H169 C165 0.960 . S
H170 C165 0.961 . S
H171 C165 0.960 . S
H172 C168 0.960 . S
H173 C168 0.960 . S
H174 C168 0.959 . S
C175 N176 1.317 . S
C175 N177 1.348 . S
C175 C178 1.485 . S
N176 C175 1.317 . S
N176 N180 1.370 . S
N177 C175 1.348 . S
N177 C179 1.346 . S
C178 C175 1.485 . S
C178 H182 0.960 . S
C178 H183 0.961 . S
C178 H184 0.960 . S
C179 N177 1.346 . S
C179 N180 1.307 . S
C179 C181 1.486 . S
N180 N176 1.370 . S
N180 C179 1.307 . S
C181 C179 1.486 . S
C181 H185 0.960 . S
C181 H186 0.960 . S
C181 H187 0.959 . S
H182 C178 0.960 . S
H183 C178 0.961 . S
H184 C178 0.960 . S
H185 C181 0.960 . S
H186 C181 0.960 . S
H187 C181 0.959 . S
C188 C189 1.363 . S
C188 C194 1.379 1_565 S
C188 N196 1.356 . S
C189 C188 1.363 . S
C189 C195 1.363 1_565 S
C190 C191 1.363 . S
C190 C195 1.379 . S
C190 N197 1.356 . S
C191 C190 1.363 . S
C191 C194 1.363 . S
N192 C194 1.356 . S
N192 H204 0.984 . S
N192 H205 0.985 . S
N193 C195 1.356 . S
N193 H198 0.984 1_545 S
N193 H199 0.980 1_554 S
C194 C188 1.379 1_545 S
C194 C191 1.363 . S
C194 N192 1.356 . S
C195 C189 1.363 1_545 S
C195 C190 1.379 . S
C195 N193 1.356 . S
N196 C188 1.356 . S
N196 H202 0.984 . S
N196 H203 0.984 . S
N197 C190 1.356 . S
N197 H200 0.984 . S
N197 H201 0.985 . S
H198 N193 0.984 1_565 S
H199 N193 0.980 1_556 S
H200 N197 0.984 . S
H201 N197 0.985 . S
H202 N196 0.984 . S
H203 N196 0.984 . S
H204 N192 0.984 . S
H205 N192 0.985 . S
C206 C207 1.363 . S
C206 C212 1.379 . S
C206 N214 1.356 . S
C207 C206 1.363 . S
C207 C213 1.363 . S
C208 C209 1.363 . S
C208 C213 1.379 . S
C208 N215 1.356 . S
C209 C208 1.363 . S
C209 C212 1.363 . S
N210 C212 1.356 . S
N210 H222 0.984 . S
N210 H223 0.985 . S
N211 C213 1.356 . S
N211 H216 0.984 . S
N211 H217 0.985 . S
C212 C206 1.379 . S
C212 C209 1.363 . S
C212 N210 1.356 . S
C213 C207 1.363 . S
C213 C208 1.379 . S
C213 N211 1.356 . S
N214 C206 1.356 . S
N214 H220 0.984 . S
N214 H221 0.984 . S
N215 C208 1.356 . S
N215 H218 0.984 . S
N215 H219 0.985 . S
H216 N211 0.984 . S
H217 N211 0.985 . S
H218 N215 0.984 . S
H219 N215 0.985 . S
H220 N214 0.984 . S
H221 N214 0.984 . S
H222 N210 0.984 . S
H223 N210 0.985 . S
C224 C225 1.363 1_565 S
C224 C230 1.379 . S
C224 N232 1.356 1_565 S
C225 C224 1.363 1_545 S
C225 C231 1.363 . S
C226 C227 1.363 . S
C226 C231 1.379 1_565 S
C226 N233 1.356 . S
C227 C226 1.363 . S
C227 C230 1.363 . S
N228 C230 1.356 . S
N228 H240 0.984 . S
N228 H241 0.985 . S
N229 C231 1.356 . S
N229 H234 0.984 . S
N229 H235 0.985 . S
C230 C224 1.379 . S
C230 C227 1.363 . S
C230 N228 1.356 . S
C231 C225 1.363 . S
C231 C226 1.379 1_545 S
C231 N229 1.356 . S
N232 C224 1.356 1_545 S
N232 H238 0.984 1_545 S
N232 H239 0.984 . S
N233 C226 1.356 . S
N233 H236 0.984 . S
N233 H237 0.985 . S
H234 N229 0.984 . S
H235 N229 0.985 . S
H236 N233 0.984 . S
H237 N233 0.985 . S
H238 N232 0.984 1_565 S
H239 N232 0.984 . S
H240 N228 0.984 . S
H241 N228 0.985 . S
C242 C243 1.363 . S
C242 C248 1.379 . S
C242 N250 1.356 . S
C243 C242 1.363 . S
C243 C249 1.363 . S
C244 C245 1.363 . S
C244 C249 1.379 . S
C244 N251 1.356 . S
C245 C244 1.363 . S
C245 C248 1.363 . S
N246 C248 1.356 . S
N246 H258 0.984 . S
N246 H259 0.985 . S
N247 C249 1.356 . S
N247 H252 0.984 . S
N247 H253 0.985 . S
C248 C242 1.379 . S
C248 C245 1.363 . S
C248 N246 1.356 . S
C249 C243 1.363 . S
C249 C244 1.379 . S
C249 N247 1.356 . S
N250 C242 1.356 . S
N250 H256 0.984 . S
N250 H257 0.984 . S
N251 C244 1.356 . S
N251 H254 0.984 . S
N251 H255 0.985 . S
H252 N247 0.984 . S
H253 N247 0.985 . S
H254 N251 0.984 . S
H255 N251 0.985 . S
H256 N250 0.984 . S
H257 N250 0.984 . S
H258 N246 0.984 . S
H259 N246 0.985 . S
C260 C261 1.363 . S
C260 C266 1.379 . S
C260 N268 1.356 . S
C261 C260 1.363 . S
C261 C267 1.363 . S
C262 C263 1.363 . S
C262 C267 1.379 . S
C262 N269 1.356 . S
C263 C262 1.363 . S
C263 C266 1.363 . S
N264 C266 1.356 . S
N264 H276 0.984 . S
N264 H277 0.985 . S
N265 C267 1.356 . S
N265 H270 0.984 . S
N265 H271 0.985 . S
C266 C260 1.379 . S
C266 C263 1.363 . S
C266 N264 1.356 . S
C267 C261 1.363 . S
C267 C262 1.379 . S
C267 N265 1.356 . S
N268 C260 1.356 . S
N268 H274 0.984 . S
N268 H275 0.984 . S
N269 C262 1.356 . S
N269 H272 0.984 . S
N269 H273 0.985 . S
H270 N265 0.984 . S
H271 N265 0.985 . S
H272 N269 0.984 . S
H273 N269 0.985 . S
H274 N268 0.984 . S
H275 N268 0.984 . S
H276 N264 0.984 . S
H277 N264 0.985 . S
C278 C279 1.363 1_455 S
C278 C284 1.379 . S
C278 N286 1.356 . S
C279 C278 1.363 1_655 S
C279 C285 1.363 . S
C280 C281 1.363 . S
C280 C285 1.379 1_455 S
C280 N287 1.356 . S
C281 C280 1.363 . S
C281 C284 1.363 . S
N282 C284 1.356 . S
N282 H294 0.984 . S
N282 H295 0.985 . S
N283 C285 1.356 . S
N283 H288 0.984 . S
N283 H289 0.985 . S
C284 C278 1.379 . S
C284 C281 1.363 . S
C284 N282 1.356 . S
C285 C279 1.363 . S
C285 C280 1.379 1_655 S
C285 N283 1.356 . S
N286 C278 1.356 . S
N286 H292 0.984 . S
N286 H293 0.984 1_455 S
N287 C280 1.356 . S
N287 H290 0.984 . S
N287 H291 0.985 . S
H288 N283 0.984 . S
H289 N283 0.985 . S
H290 N287 0.984 . S
H291 N287 0.985 . S
H292 N286 0.984 . S
H293 N286 0.984 1_655 S
H294 N282 0.984 . S
H295 N282 0.985 . S
C296 C297 1.363 . S
C296 C302 1.379 . S
C296 N304 1.356 . S
C297 C296 1.363 . S
C297 C303 1.363 . S
C298 C299 1.363 . S
C298 C303 1.379 . S
C298 N305 1.356 . S
C299 C298 1.363 . S
C299 C302 1.363 . S
N300 C302 1.356 . S
N300 H312 0.984 . S
N300 H313 0.985 . S
N301 C303 1.356 . S
N301 H306 0.984 . S
N301 H307 0.985 . S
C302 C296 1.379 . S
C302 C299 1.363 . S
C302 N300 1.356 . S
C303 C297 1.363 . S
C303 C298 1.379 . S
C303 N301 1.356 . S
N304 C296 1.356 . S
N304 H310 0.984 . S
N304 H311 0.984 . S
N305 C298 1.356 . S
N305 H308 0.984 . S
N305 H309 0.985 . S
H306 N301 0.984 . S
H307 N301 0.985 . S
H308 N305 0.984 . S
H309 N305 0.985 . S
H310 N304 0.984 . S
H311 N304 0.984 . S
H312 N300 0.984 . S
H313 N300 0.985 . S
C314 C315 1.363 . S
C314 C320 1.379 1_455 S
C314 N322 1.356 . S
C315 C314 1.363 . S
C315 C321 1.363 1_455 S
C316 C317 1.363 . S
C316 C321 1.379 . S
C316 N323 1.356 . S
C317 C316 1.363 . S
C317 C320 1.363 . S
N318 C320 1.356 . S
N318 H330 0.984 . S
N318 H331 0.985 . S
N319 C321 1.356 . S
N319 H324 0.984 1_655 S
N319 H325 0.985 1_556 S
C320 C314 1.379 1_655 S
C320 C317 1.363 . S
C320 N318 1.356 . S
C321 C315 1.363 1_655 S
C321 C316 1.379 . S
C321 N319 1.356 . S
N322 C314 1.356 . S
N322 H328 0.984 . S
N322 H329 0.984 . S
N323 C316 1.356 . S
N323 H326 0.984 . S
N323 H327 0.985 . S
H324 N319 0.984 1_455 S
H325 N319 0.985 1_554 S
H326 N323 0.984 . S
H327 N323 0.985 . S
H328 N322 0.984 . S
H329 N322 0.984 . S
H330 N318 0.984 . S
H331 N318 0.985 . S
C332 C333 1.363 . S
C332 C338 1.379 . S
C332 N340 1.356 1_565 S
C333 C332 1.363 . S
C333 C339 1.363 . S
C334 C335 1.363 . S
C334 C339 1.379 . S
C334 N341 1.356 . S
C335 C334 1.363 . S
C335 C338 1.363 . S
N336 C338 1.356 . S
N336 H348 0.984 . S
N336 H349 0.985 . S
N337 C339 1.356 . S
N337 H342 0.984 1_565 S
N337 H343 0.985 . S
C338 C332 1.379 . S
C338 C335 1.363 . S
C338 N336 1.356 . S
C339 C333 1.363 . S
C339 C334 1.379 . S
C339 N337 1.356 . S
N340 C332 1.356 1_545 S
N340 H346 0.984 . S
N340 H347 0.984 . S
N341 C334 1.356 . S
N341 H344 0.984 . S
N341 H345 0.985 . S
H342 N337 0.984 1_545 S
H343 N337 0.985 . S
H344 N341 0.984 . S
H345 N341 0.985 . S
H346 N340 0.984 . S
H347 N340 0.984 . S
H348 N336 0.984 . S
H349 N336 0.985 . S
C350 C351 1.363 . S
C350 C356 1.379 . S
C350 N358 1.356 . S
C351 C350 1.363 . S
C351 C357 1.363 . S
C352 C353 1.363 . S
C352 C357 1.379 . S
C352 N359 1.356 . S
C353 C352 1.363 . S
C353 C356 1.363 . S
N354 C356 1.356 . S
N354 H366 0.984 . S
N354 H367 0.985 . S
N355 C357 1.356 . S
N355 H360 0.984 . S
N355 H361 0.985 . S
C356 C350 1.379 . S
C356 C353 1.363 . S
C356 N354 1.356 . S
C357 C351 1.363 . S
C357 C352 1.379 . S
C357 N355 1.356 . S
N358 C350 1.356 . S
N358 H364 0.984 . S
N358 H365 0.984 . S
N359 C352 1.356 . S
N359 H362 0.984 . S
N359 H363 0.985 . S
H360 N355 0.984 . S
H361 N355 0.985 . S
H362 N359 0.984 . S
H363 N359 0.985 . S
H364 N358 0.984 . S
H365 N358 0.984 . S
H366 N354 0.984 . S
H367 N354 0.985 . S
C368 C369 1.363 . S
C368 C374 1.379 . S
C368 N376 1.356 . S
C369 C368 1.363 . S
C369 C375 1.363 . S
C370 C371 1.363 . S
C370 C375 1.379 . S
C370 N377 1.356 . S
C371 C370 1.363 . S
C371 C374 1.363 . S
N372 C374 1.356 . S
N372 H384 0.984 . S
N372 H385 0.985 . S
N373 C375 1.356 1_565 S
N373 H378 0.984 . S
N373 H379 0.985 . S
C374 C368 1.379 . S
C374 C371 1.363 . S
C374 N372 1.356 . S
C375 C369 1.363 . S
C375 C370 1.379 . S
C375 N373 1.356 1_545 S
N376 C368 1.356 . S
N376 H382 0.984 . S
N376 H383 0.985 1_545 S
N377 C370 1.356 . S
N377 H380 0.984 . S
N377 H381 0.985 . S
H378 N373 0.984 . S
H379 N373 0.985 . S
H380 N377 0.984 . S
H381 N377 0.985 . S
H382 N376 0.984 . S
H383 N376 0.985 1_565 S
H384 N372 0.984 . S
H385 N372 0.985 . S
C386 C387 1.363 . S
C386 C392 1.379 . S
C386 N394 1.356 . S
C387 C386 1.363 . S
C387 C393 1.363 . S
C388 C389 1.363 . S
C388 C393 1.379 . S
C388 N395 1.356 . S
C389 C388 1.363 . S
C389 C392 1.363 . S
N390 C392 1.356 . S
N390 H402 0.984 . S
N390 H403 0.985 . S
N391 C393 1.356 . S
N391 H396 0.984 . S
N391 H397 0.985 . S
C392 C386 1.379 . S
C392 C389 1.363 . S
C392 N390 1.356 . S
C393 C387 1.363 . S
C393 C388 1.379 . S
C393 N391 1.356 . S
N394 C386 1.356 . S
N394 H400 0.984 . S
N394 H401 0.984 . S
N395 C388 1.356 . S
N395 H398 0.984 . S
N395 H399 0.985 . S
H396 N391 0.984 . S
H397 N391 0.985 . S
H398 N395 0.984 . S
H399 N395 0.985 . S
H400 N394 0.984 . S
H401 N394 0.984 . S
H402 N390 0.984 . S
H403 N390 0.985 . S
C404 C405 1.363 . S
C404 C410 1.379 . S
C404 N412 1.356 . S
C405 C404 1.363 . S
C405 C411 1.363 . S
C406 C407 1.363 . S
C406 C411 1.379 . S
C406 N413 1.356 . S
C407 C406 1.363 . S
C407 C410 1.363 . S
N408 C410 1.356 . S
N408 H420 0.984 . S
N408 H421 0.985 . S
N409 C411 1.356 . S
N409 H414 0.984 . S
N409 H415 0.985 . S
C410 C404 1.379 . S
C410 C407 1.363 . S
C410 N408 1.356 . S
C411 C405 1.363 . S
C411 C406 1.379 . S
C411 N409 1.356 . S
N412 C404 1.356 . S
N412 H418 0.984 . S
N412 H419 0.984 . S
N413 C406 1.356 . S
N413 H416 0.984 . S
N413 H417 0.985 . S
H414 N409 0.984 . S
H415 N409 0.985 . S
H416 N413 0.984 . S
H417 N413 0.985 . S
H418 N412 0.984 . S
H419 N412 0.984 . S
H420 N408 0.984 . S
H421 N408 0.985 . S
C422 C423 1.363 . S
C422 C428 1.379 . S
C422 N430 1.356 1_655 S
C423 C422 1.363 . S
C423 C429 1.363 . S
C424 C425 1.363 . S
C424 C429 1.379 . S
C424 N431 1.356 . S
C425 C424 1.363 . S
C425 C428 1.363 . S
N426 C428 1.356 . S
N426 H438 0.984 . S
N426 H439 0.985 . S
N427 C429 1.356 . S
N427 H432 0.984 1_655 S
N427 H433 0.985 . S
C428 C422 1.379 . S
C428 C425 1.363 . S
C428 N426 1.356 . S
C429 C423 1.363 . S
C429 C424 1.379 . S
C429 N427 1.356 . S
N430 C422 1.356 1_455 S
N430 H436 0.984 . S
N430 H437 0.984 . S
N431 C424 1.356 . S
N431 H434 0.984 . S
N431 H435 0.985 . S
H432 N427 0.984 1_455 S
H433 N427 0.985 . S
H434 N431 0.984 . S
H435 N431 0.985 . S
H436 N430 0.984 . S
H437 N430 0.984 . S
H438 N426 0.984 . S
H439 N426 0.985 . S
C440 C441 1.363 . S
C440 C446 1.379 . S
C440 N448 1.356 . S
C441 C440 1.363 . S
C441 C447 1.363 . S
C442 C443 1.363 . S
C442 C447 1.379 . S
C442 N449 1.356 . S
C443 C442 1.363 . S
C443 C446 1.363 . S
N444 C446 1.356 . S
N444 H456 0.984 . S
N444 H457 0.985 . S
N445 C447 1.356 . S
N445 H450 0.984 . S
N445 H451 0.985 . S
C446 C440 1.379 . S
C446 C443 1.363 . S
C446 N444 1.356 . S
C447 C441 1.363 . S
C447 C442 1.379 . S
C447 N445 1.356 . S
N448 C440 1.356 . S
N448 H454 0.984 . S
N448 H455 0.984 . S
N449 C442 1.356 . S
N449 H452 0.984 . S
N449 H453 0.985 . S
H450 N445 0.984 . S
H451 N445 0.985 . S
H452 N449 0.984 . S
H453 N449 0.985 . S
H454 N448 0.984 . S
H455 N448 0.984 . S
H456 N444 0.984 . S
H457 N444 0.985 . S
C458 C459 1.363 . S
C458 C464 1.379 . S
C458 N466 1.356 1_455 S
C459 C458 1.363 . S
C459 C465 1.363 . S
C460 C461 1.363 . S
C460 C465 1.379 . S
C460 N467 1.356 . S
C461 C460 1.363 . S
C461 C464 1.363 . S
N462 C464 1.356 . S
N462 H474 0.984 . S
N462 H475 0.985 . S
N463 C465 1.356 . S
N463 H468 0.984 . S
N463 H469 0.985 1_554 S
C464 C458 1.379 . S
C464 C461 1.363 . S
C464 N462 1.356 . S
C465 C459 1.363 . S
C465 C460 1.379 . S
C465 N463 1.356 . S
N466 C458 1.356 1_655 S
N466 H472 0.984 . S
N466 H473 0.984 . S
N467 C460 1.356 . S
N467 H470 0.984 . S
N467 H471 0.985 . S
H468 N463 0.984 . S
H469 N463 0.985 1_556 S
H470 N467 0.984 . S
H471 N467 0.985 . S
H472 N466 0.984 . S
H473 N466 0.984 . S
H474 N462 0.984 . S
H475 N462 0.985 . S
C476 C477 1.363 . S
C476 C482 1.379 . S
C476 N484 1.356 . S
C477 C476 1.363 . S
C477 C483 1.363 . S
C478 C479 1.363 . S
C478 C483 1.379 . S
C478 N485 1.356 . S
C479 C478 1.363 . S
C479 C482 1.363 . S
N480 C482 1.356 . S
N480 H492 0.984 . S
N480 H493 0.985 . S
N481 C483 1.356 . S
N481 H486 0.984 . S
N481 H487 0.985 . S
C482 C476 1.379 . S
C482 C479 1.363 . S
C482 N480 1.356 . S
C483 C477 1.363 . S
C483 C478 1.379 . S
C483 N481 1.356 . S
N484 C476 1.356 . S
N484 H490 0.984 . S
N484 H491 0.984 . S
N485 C478 1.356 . S
N485 H488 0.984 . S
N485 H489 0.985 . S
H486 N481 0.984 . S
H487 N481 0.985 . S
H488 N485 0.984 . S
H489 N485 0.985 . S
H490 N484 0.984 . S
H491 N484 0.984 . S
H492 N480 0.984 . S
H493 N480 0.985 . S
C494 C495 1.363 . S
C494 C500 1.379 . S
C494 N502 1.356 . S
C495 C494 1.363 . S
C495 C501 1.363 . S
C496 C497 1.363 . S
C496 C501 1.379 . S
C496 N503 1.356 . S
C497 C496 1.363 . S
C497 C500 1.363 . S
N498 C500 1.356 . S
N498 H510 0.984 . S
N498 H511 0.985 . S
N499 C501 1.356 . S
N499 H504 0.984 . S
N499 H505 0.985 . S
C500 C494 1.379 . S
C500 C497 1.363 . S
C500 N498 1.356 . S
C501 C495 1.363 . S
C501 C496 1.379 . S
C501 N499 1.356 . S
N502 C494 1.356 . S
N502 H508 0.984 . S
N502 H509 0.984 . S
N503 C496 1.356 . S
N503 H506 0.984 . S
N503 H507 0.985 . S
H504 N499 0.984 . S
H505 N499 0.985 . S
H506 N503 0.984 . S
H507 N503 0.985 . S
H508 N502 0.984 . S
H509 N502 0.984 . S
H510 N498 0.984 . S
H511 N498 0.985 . S
C512 C513 1.363 . S
C512 C518 1.379 . S
C512 N520 1.356 . S
C513 C512 1.363 . S
C513 C519 1.363 . S
C514 C515 1.363 . S
C514 C519 1.379 . S
C514 N521 1.356 . S
C515 C514 1.363 . S
C515 C518 1.363 . S
N516 C518 1.356 . S
N516 H528 0.984 . S
N516 H529 0.985 . S
N517 C519 1.356 . S
N517 H522 0.984 . S
N517 H523 0.985 . S
C518 C512 1.379 . S
C518 C515 1.363 . S
C518 N516 1.356 . S
C519 C513 1.363 . S
C519 C514 1.379 . S
C519 N517 1.356 . S
N520 C512 1.356 . S
N520 H526 0.984 . S
N520 H527 0.984 . S
N521 C514 1.356 . S
N521 H524 0.984 . S
N521 H525 0.985 . S
H522 N517 0.984 . S
H523 N517 0.985 . S
H524 N521 0.984 . S
H525 N521 0.985 . S
H526 N520 0.984 . S
H527 N520 0.984 . S
H528 N516 0.984 . S
H529 N516 0.985 . S
C530 C531 1.363 . S
C530 C536 1.379 . S
C530 N538 1.356 . S
C531 C530 1.363 . S
C531 C537 1.363 . S
C532 C533 1.363 . S
C532 C537 1.379 . S
C532 N539 1.356 . S
C533 C532 1.363 . S
C533 C536 1.363 . S
N534 C536 1.356 . S
N534 H546 0.984 . S
N534 H547 0.985 . S
N535 C537 1.356 . S
N535 H540 0.984 . S
N535 H541 0.985 . S
C536 C530 1.379 . S
C536 C533 1.363 . S
C536 N534 1.356 . S
C537 C531 1.363 . S
C537 C532 1.379 . S
C537 N535 1.356 . S
N538 C530 1.356 . S
N538 H544 0.984 . S
N538 H545 0.984 . S
N539 C532 1.356 . S
N539 H542 0.984 . S
N539 H543 0.985 . S
H540 N535 0.984 . S
H541 N535 0.985 . S
H542 N539 0.984 . S
H543 N539 0.985 . S
H544 N538 0.984 . S
H545 N538 0.984 . S
H546 N534 0.984 . S
H547 N534 0.985 . S
C548 C549 1.363 . S
C548 C554 1.379 . S
C548 N556 1.356 . S
C549 C548 1.363 . S
C549 C555 1.363 . S
C550 C551 1.363 . S
C550 C555 1.379 . S
C550 N557 1.356 . S
C551 C550 1.363 . S
C551 C554 1.363 . S
N552 C554 1.356 . S
N552 H564 0.984 . S
N552 H565 0.985 . S
N553 C555 1.356 . S
N553 H558 0.984 . S
N553 H559 0.985 . S
C554 C548 1.379 . S
C554 C551 1.363 . S
C554 N552 1.356 . S
C555 C549 1.363 . S
C555 C550 1.379 . S
C555 N553 1.356 . S
N556 C548 1.356 . S
N556 H562 0.984 . S
N556 H563 0.984 . S
N557 C550 1.356 . S
N557 H560 0.984 . S
N557 H561 0.985 . S
H558 N553 0.984 . S
H559 N553 0.985 . S
H560 N557 0.984 . S
H561 N557 0.985 . S
H562 N556 0.984 . S
H563 N556 0.984 . S
H564 N552 0.984 . S
H565 N552 0.985 . S
C566 C567 1.363 . S
C566 C572 1.379 . S
C566 N574 1.356 . S
C567 C566 1.363 . S
C567 C573 1.363 . S
C568 C569 1.363 . S
C568 C573 1.379 . S
C568 N575 1.356 . S
C569 C568 1.363 . S
C569 C572 1.363 . S
N570 C572 1.356 . S
N570 H582 0.984 . S
N570 H583 0.985 . S
N571 C573 1.356 . S
N571 H576 0.984 . S
N571 H577 0.985 . S
C572 C566 1.379 . S
C572 C569 1.363 . S
C572 N570 1.356 . S
C573 C567 1.363 . S
C573 C568 1.379 . S
C573 N571 1.356 . S
N574 C566 1.356 . S
N574 H580 0.984 1_556 S
N574 H581 0.984 . S
N575 C568 1.356 . S
N575 H578 0.984 . S
N575 H579 0.985 . S
H576 N571 0.984 . S
H577 N571 0.985 . S
H578 N575 0.984 . S
H579 N575 0.985 . S
H580 N574 0.984 1_554 S
H581 N574 0.984 . S
H582 N570 0.984 . S
H583 N570 0.985 . S
C584 C585 1.363 . S
C584 C590 1.379 . S
C584 N592 1.356 . S
C585 C584 1.363 . S
C585 C591 1.363 . S
C586 C587 1.363 . S
C586 C591 1.379 . S
C586 N593 1.356 . S
C587 C586 1.363 . S
C587 C590 1.363 . S
N588 C590 1.356 . S
N588 H600 0.984 . S
N588 H601 0.985 . S
N589 C591 1.356 . S
N589 H594 0.984 . S
N589 H595 0.985 . S
C590 C584 1.379 . S
C590 C587 1.363 . S
C590 N588 1.356 . S
C591 C585 1.363 . S
C591 C586 1.379 . S
C591 N589 1.356 . S
N592 C584 1.356 . S
N592 H598 0.984 . S
N592 H599 0.984 . S
N593 C586 1.356 . S
N593 H596 0.984 . S
N593 H597 0.985 . S
H594 N589 0.984 . S
H595 N589 0.985 . S
H596 N593 0.984 . S
H597 N593 0.985 . S
H598 N592 0.984 . S
H599 N592 0.984 . S
H600 N588 0.984 . S
H601 N588 0.985 . S
C602 C603 1.363 . S
C602 C608 1.379 . S
C602 N610 1.356 . S
C603 C602 1.363 . S
C603 C609 1.363 . S
C604 C605 1.363 . S
C604 C609 1.379 . S
C604 N611 1.356 . S
C605 C604 1.363 . S
C605 C608 1.363 . S
N606 C608 1.356 . S
N606 H618 0.984 . S
N606 H619 0.985 . S
N607 C609 1.356 . S
N607 H612 0.984 . S
N607 H613 0.985 . S
C608 C602 1.379 . S
C608 C605 1.363 . S
C608 N606 1.356 . S
C609 C603 1.363 . S
C609 C604 1.379 . S
C609 N607 1.356 . S
N610 C602 1.356 . S
N610 H616 0.984 . S
N610 H617 0.984 . S
N611 C604 1.356 . S
N611 H614 0.984 . S
N611 H615 0.985 . S
H612 N607 0.984 . S
H613 N607 0.985 . S
H614 N611 0.984 . S
H615 N611 0.985 . S
H616 N610 0.984 . S
H617 N610 0.984 . S
H618 N606 0.984 . S
H619 N606 0.985 . S
C189 C7 0.962 . S
C191 N89 1.038 . S
C207 C25 0.963 . S
C209 N102 1.039 . S
C225 C46 0.962 . S
C227 N111 1.034 . S
C245 N128 1.036 . S
C243 C70 0.961 . S
C263 N141 1.038 . S
C261 C28 0.963 . S
C279 C49 0.961 . S
C281 N150 1.034 . S
C297 C67 0.963 . S
C299 N163 1.037 . S
C315 C4 0.963 . S
C317 N180 1.039 . S
C333 C58 1.559 1_565 S
C335 N176 1.664 . S
C353 N137 1.663 . S
C351 C66 1.559 . S
C371 N154 1.671 . S
C369 C3 1.563 1_545 S
C387 C37 1.562 . S
C389 N167 1.671 . S
C407 N98 1.665 . S
C405 C79 1.561 . S
C423 C16 1.564 1_655 S
C425 N115 1.672 . S
C443 N124 1.664 . S
C441 C24 1.560 . S
C461 N85 1.664 . S
C459 C45 1.559 1_455 S
C479 N164 1.431 . S
C477 C19 1.279 . S
C497 N177 1.426 . S
C495 C41 1.278 . S
C513 C62 1.276 . S
C515 N138 1.425 . S
C533 N151 1.428 . S
C531 C82 1.276 . S
C551 N112 1.429 . S
C549 C40 1.277 . S
C567 C61 1.276 . S
C569 N125 1.424 . S
C587 N86 1.426 . S
C585 C83 1.278 . S
C605 N99 1.428 . S
C603 C20 1.279 . S
