# Generated by pormake.
# Topology anh, (6,3)-cn, num edge types: 1
# Building blocks:
#     Node 0, Type 0, BuildingBlock: BETDAH_clean_sbu_0, # of connection points: 6
#     Node 1, Type 0, BuildingBlock: BETDAH_clean_sbu_0, # of connection points: 6
#     Node 2, Type 0, BuildingBlock: BETDAH_clean_sbu_0, # of connection points: 6
#     Node 3, Type 1, BuildingBlock: CUQRIR_clean_linker_1, # of connection points: 3
#     Node 4, Type 1, BuildingBlock: CUQRIR_clean_linker_1, # of connection points: 3
#     Node 5, Type 1, BuildingBlock: CUQRIR_clean_linker_1, # of connection points: 3
#     Node 6, Type 1, BuildingBlock: CUQRIR_clean_linker_1, # of connection points: 3
#     Node 7, Type 1, BuildingBlock: CUQRIR_clean_linker_1, # of connection points: 3
#     Node 8, Type 1, BuildingBlock: CUQRIR_clean_linker_1, # of connection points: 3
#     Edge 9, Type (0, 1), BuildingBlock: CIFDUS_clean_linker_0, # of connection points: 2
#     Edge 10, Type (0, 1), BuildingBlock: CIFDUS_clean_linker_0, # of connection points: 2
#     Edge 11, Type (0, 1), BuildingBlock: CIFDUS_clean_linker_0, # of connection points: 2
#     Edge 12, Type (0, 1), BuildingBlock: CIFDUS_clean_linker_0, # of connection points: 2
#     Edge 13, Type (0, 1), BuildingBlock: CIFDUS_clean_linker_0, # of connection points: 2
#     Edge 14, Type (0, 1), BuildingBlock: CIFDUS_clean_linker_0, # of connection points: 2
#     Edge 15, Type (0, 1), BuildingBlock: CIFDUS_clean_linker_0, # of connection points: 2
#     Edge 16, Type (0, 1), BuildingBlock: CIFDUS_clean_linker_0, # of connection points: 2
#     Edge 17, Type (0, 1), BuildingBlock: CIFDUS_clean_linker_0, # of connection points: 2
#     Edge 18, Type (0, 1), BuildingBlock: CIFDUS_clean_linker_0, # of connection points: 2
#     Edge 19, Type (0, 1), BuildingBlock: CIFDUS_clean_linker_0, # of connection points: 2
#     Edge 20, Type (0, 1), BuildingBlock: CIFDUS_clean_linker_0, # of connection points: 2
#     Edge 21, Type (0, 1), BuildingBlock: CIFDUS_clean_linker_0, # of connection points: 2
#     Edge 22, Type (0, 1), BuildingBlock: CIFDUS_clean_linker_0, # of connection points: 2
#     Edge 23, Type (0, 1), BuildingBlock: CIFDUS_clean_linker_0, # of connection points: 2
#     Edge 24, Type (0, 1), BuildingBlock: CIFDUS_clean_linker_0, # of connection points: 2
#     Edge 25, Type (0, 1), BuildingBlock: CIFDUS_clean_linker_0, # of connection points: 2
#     Edge 26, Type (0, 1), BuildingBlock: CIFDUS_clean_linker_0, # of connection points: 2
# Relax obj value: 0.231
# Max RMSD: 0.221
# Mean RMSD: 0.169
data_MOF--net-anh--node1-BETDAH_clean_sbu_0--node2-CUQRIR_clean_linker_1--edge1-CIFDUS_clean_linker_0
_symmetry_space_group_name_H-M    P1
_symmetry_Int_Tables_number       1
_symmetry_cell_setting            triclinic
loop_
_symmetry_equiv_pos_as_xyz
'x, y, z'
_cell_length_a     26.357606
_cell_length_b     31.643375
_cell_length_c     40.525562
_cell_angle_alpha  88.664987
_cell_angle_beta   89.535048
_cell_angle_gamma 132.05517
loop_
_atom_site_label
_atom_site_type_symbol
_atom_site_fract_x
_atom_site_fract_y
_atom_site_fract_z
_atom_type_partial_charge
Ho0 Ho 0.13289 0.48406 0.15214 0.0
Ho1 Ho 1.05208 0.51231 0.14571 0.0
C2 C 0.20825 0.62 0.15588 0.0
C3 C 0.23218 0.48674 0.14695 0.0
C4 C 0.30356 0.53088 0.15655 0.0
C5 C 0.34198 0.58864 0.14778 0.0
C6 C 0.40924 0.63015 0.1577 0.0
C7 C 0.44033 0.61453 0.17555 0.0
C8 C 0.40014 0.55673 0.18566 0.0
C9 C 0.33251 0.51554 0.17636 0.0
C10 C 0.08362 0.48242 0.21141 0.0
C11 C 0.97611 0.37633 0.15111 0.0
C12 C 0.95255 0.50966 0.14751 0.0
C13 C 0.87859 0.46164 0.14462 0.0
C14 C 0.842 0.41241 0.16547 0.0
C15 C 0.77139 0.36815 0.16261 0.0
C16 C 0.73635 0.37237 0.13881 0.0
C17 C 0.77437 0.42018 0.11662 0.0
C18 C 0.84449 0.46427 0.11963 0.0
C19 C 0.10806 0.51861 0.08726 0.0
O20 O 0.21372 0.5816 0.15226 0.0
O21 O 0.14683 0.60321 0.15688 0.0
O22 O 0.18733 0.46031 0.17147 0.0
O23 O 0.21289 0.50006 0.12228 0.0
O24 O 0.0869 0.44519 0.20271 0.0
O25 O 0.10776 0.51945 0.18831 0.0
O26 O 0.9707 0.41469 0.15508 0.0
O27 O 1.03681 0.3938 0.14452 0.0
O28 O 0.98932 0.52336 0.12075 0.0
O29 O 0.98052 0.51009 0.17414 0.0
O30 O 0.10825 0.55711 0.09753 0.0
O31 O 0.07874 0.47824 0.10886 0.0
H32 H 0.32083 0.60189 0.13265 0.0
H33 H 0.43801 0.67406 0.14977 0.0
H34 H 0.42182 0.54215 0.19883 0.0
H35 H 0.30342 0.47135 0.18381 0.0
H36 H 0.86742 0.40864 0.18456 0.0
H37 H 0.74368 0.3321 0.18007 0.0
H38 H 0.74949 0.42597 0.09838 0.0
H39 H 0.87182 0.50136 0.10296 0.0
Ho40 Ho 0.72798 0.05489 0.46409 0.0
Ho41 Ho 0.6502 0.08982 0.45284 0.0
C42 C 0.56393 0.95648 0.45181 0.0
C43 C 0.77796 1.01287 0.48773 0.0
C44 C 0.75635 0.95935 0.50148 0.0
C45 C 0.68824 0.91294 0.51145 0.0
C46 C 0.67015 0.86325 0.52539 0.0
C47 C 0.72001 0.85945 0.52968 0.0
C48 C 0.78795 0.90611 0.5193 0.0
C49 C 0.80583 0.95548 0.5054 0.0
C50 C 0.72798 0.08036 0.39975 0.0
C51 C 0.81741 0.1903 0.4582 0.0
C52 C 0.60325 0.13726 0.43615 0.0
C53 C 0.61569 0.18649 0.44902 0.0
C54 C 0.59548 0.21147 0.43142 0.0
C55 C 0.60581 0.25737 0.44425 0.0
C56 C 0.63633 0.27889 0.47501 0.0
C57 C 0.65723 0.2539 0.49229 0.0
C58 C 0.64729 0.20838 0.47934 0.0
C59 C 0.65476 0.0668 0.51725 0.0
O60 O 0.61648 0.9689 0.4674 0.0
O61 O 0.57014 0.99837 0.43831 0.0
O62 O 0.76853 1.01466 0.45632 0.0
O63 O 0.76312 0.03737 0.50562 0.0
O64 O 0.77944 0.09145 0.41404 0.0
O65 O 0.67724 0.05316 0.41982 0.0
O66 O 0.75953 0.17661 0.44986 0.0
O67 O 0.81761 0.14994 0.46752 0.0
O68 O 0.57118 0.09318 0.45664 0.0
O69 O 0.65534 0.14866 0.42094 0.0
O70 O 0.60155 0.05321 0.50375 0.0
O71 O 0.70371 0.09429 0.49634 0.0
H72 H 0.64933 0.91528 0.50868 0.0
H73 H 0.61745 0.82821 0.53322 0.0
H74 H 0.82738 0.9043 0.52154 0.0
H75 H 0.85861 0.99085 0.49776 0.0
H76 H 0.57143 0.19532 0.40785 0.0
H77 H 0.59006 0.27608 0.43002 0.0
H78 H 0.67994 0.26861 0.51621 0.0
H79 H 0.66343 0.18967 0.49325 0.0
Ho80 Ho 0.64628 0.61405 0.84672 0.0
Ho81 Ho 0.54817 0.4922 0.84779 0.0
C82 C 0.474 0.54812 0.85312 0.0
C83 C 0.71261 0.71878 0.82709 0.0
C84 C 0.69916 0.75649 0.81793 0.0
C85 C 0.67921 0.75727 0.78591 0.0
C86 C 0.67296 0.7966 0.77649 0.0
C87 C 0.68695 0.83658 0.79873 0.0
C88 C 0.7053 0.83478 0.83098 0.0
C89 C 0.71159 0.79555 0.84037 0.0
C90 C 0.62221 0.56842 0.90719 0.0
C91 C 0.72082 0.55834 0.84875 0.0
C92 C 0.48672 0.38576 0.85666 0.0
C93 C 0.50684 0.35458 0.8449 0.0
C94 C 0.48177 0.30365 0.86086 0.0
C95 C 0.50208 0.27497 0.84976 0.0
C96 C 0.54808 0.29675 0.82247 0.0
C97 C 0.5728 0.34786 0.80661 0.0
C98 C 0.55268 0.37643 0.81774 0.0
C99 C 0.58343 0.54075 0.7863 0.0
O100 O 0.54115 0.59627 0.84875 0.0
O101 O 0.46312 0.49962 0.85567 0.0
O102 O 0.70467 0.7026 0.85817 0.0
O103 O 0.69107 0.67804 0.80716 0.0
O104 O 0.68238 0.61369 0.89599 0.0
O105 O 0.57636 0.55091 0.88657 0.0
O106 O 0.65362 0.50947 0.8497 0.0
O107 O 0.73109 0.60651 0.84658 0.0
O108 O 0.47098 0.40459 0.83369 0.0
O109 O 0.52589 0.42396 0.87859 0.0
O110 O 0.52144 0.49746 0.79611 0.0
O111 O 0.62324 0.55517 0.80941 0.0
H112 H 0.66992 0.72836 0.76774 0.0
H113 H 0.65942 0.79688 0.75138 0.0
H114 H 0.71541 0.86412 0.84904 0.0
H115 H 0.72751 0.79657 0.86512 0.0
H116 H 0.44675 0.28619 0.882 0.0
H117 H 0.48253 0.23621 0.8629 0.0
H118 H 0.60726 0.36568 0.78522 0.0
H119 H 0.57294 0.41574 0.805 0.0
C120 C 0.5748 1.00658 0.16594 0.0
N121 N 0.62356 0.0489 0.18613 0.0
N122 N 0.53083 0.95473 0.18262 0.0
C123 C 0.57097 0.01565 0.12991 0.0
C124 C 0.55443 0.96771 0.21376 0.0
N125 N 0.61018 0.02406 0.21585 0.0
C126 C 0.52023 0.92555 0.24278 0.0
H127 H 0.5405 0.02801 0.12709 0.0
H128 H 0.54568 0.97598 0.11651 0.0
H129 H 0.62284 0.05057 0.11893 0.0
H130 H 0.53883 0.90282 0.24352 0.0
H131 H 0.46395 0.89361 0.24027 0.0
H132 H 0.53208 0.94662 0.26658 0.0
C133 C 0.61084 0.53325 0.54045 0.0
N134 N 0.61047 0.56091 0.56537 0.0
N135 N 0.61432 0.49501 0.55249 0.0
C136 C 0.61228 0.54594 0.50428 0.0
C137 C 0.61642 0.50054 0.58559 0.0
N138 N 0.61494 0.5411 0.59342 0.0
C139 C 0.61423 0.46313 0.61039 0.0
H140 H 0.55914 0.52161 0.49638 0.0
H141 H 0.63524 0.5332 0.48927 0.0
H142 H 0.64174 0.59197 0.49951 0.0
H143 H 0.66706 0.48566 0.61805 0.0
H144 H 0.59264 0.42218 0.59977 0.0
H145 H 0.58329 0.45421 0.63272 0.0
C146 C 0.08612 0.5381 0.84828 0.0
N147 N 0.13695 0.54583 0.86765 0.0
N148 N 1.04675 0.54854 0.86431 0.0
C149 C 0.0751 0.5208 0.81325 0.0
C150 C 0.07534 0.56067 0.89457 0.0
N151 N 0.1263 0.55884 0.89656 0.0
C152 C 1.04939 0.57093 0.92385 0.0
H153 H 0.12422 0.53904 0.80098 0.0
H154 H 1.05176 0.53468 0.79964 0.0
H155 H 1.03979 0.47369 0.81291 0.0
H156 H 1.05902 0.56003 0.94774 0.0
H157 H 0.99362 0.54552 0.9226 0.0
H158 H 0.07577 0.61669 0.92357 0.0
C159 C 0.18737 0.57033 0.45014 0.0
N160 N 0.14144 0.52812 0.42913 0.0
N161 N 0.23806 0.62082 0.4332 0.0
C162 C 0.18097 0.56299 0.48703 0.0
C163 C 0.22132 0.60717 0.40124 0.0
N164 N 0.16276 0.55197 0.39881 0.0
C165 C 0.2661 0.64648 0.37213 0.0
H166 H 0.12641 0.53091 0.4953 0.0
H167 H 0.20625 0.60412 0.49865 0.0
H168 H 0.20632 0.54751 0.49522 0.0
H169 H 0.3206 0.67813 0.37878 0.0
H170 H 0.25017 0.66971 0.36397 0.0
H171 H 0.26131 0.62224 0.35113 0.0
C172 C 0.61183 0.06123 0.76352 0.0
N173 N 0.6201 0.03783 0.73874 0.0
N174 N 0.60455 0.0971 0.75121 0.0
C175 C 0.60797 0.04722 0.79968 0.0
C176 C 0.60795 0.09429 0.71811 0.0
N177 N 0.61722 0.05833 0.71044 0.0
C178 C 0.59657 0.1233 0.69343 0.0
H179 H 0.57952 1.00123 0.80373 0.0
H180 H 0.58323 0.05849 0.81451 0.0
H181 H 0.66055 0.07182 0.8085 0.0
H182 H 0.62509 0.1678 0.70034 0.0
H183 H 0.54139 0.10063 0.69384 0.0
H184 H 0.61267 0.12349 0.66802 0.0
C185 C 0.58618 0.49969 0.14006 0.0
N186 N 0.58794 0.47509 0.11367 0.0
N187 N 0.64117 0.55655 0.13957 0.0
C188 C 0.52398 0.46973 0.16257 0.0
C189 C 0.67534 0.56591 0.11126 0.0
N190 N 0.64245 0.51708 0.09509 0.0
C191 C 0.73909 0.62363 0.09816 0.0
H192 H 0.48058 0.4264 0.15414 0.0
H193 H 0.50813 0.49455 0.16319 0.0
H194 H 0.5363 0.46638 0.18806 0.0
H195 H 0.76251 0.65598 0.11732 0.0
H196 H 0.7265 0.63717 0.07664 0.0
H197 H 0.77709 0.62119 0.08957 0.0
H198 H 0.52036 0.62342 0.22341 0.0
H199 H 0.53473 0.69573 0.12841 0.0
H200 H 0.62675 0.70118 0.1112 0.0
H201 H 0.65669 0.64335 0.11398 0.0
H202 H 0.63561 0.56144 0.20597 0.0
H203 H 0.59064 0.59929 0.23316 0.0
C204 C 0.54576 0.64261 0.19944 0.0
C205 C 0.51612 0.6535 0.17607 0.0
C206 C 0.59458 0.64053 0.18847 0.0
C207 C 0.55318 0.6833 0.14639 0.0
C208 C 0.60551 0.68561 0.13614 0.0
C209 C 0.64691 0.63695 0.14043 0.0
C210 C 0.64636 0.59774 0.15775 0.0
C211 C 0.61982 0.65764 0.15543 0.0
C212 C 0.63356 0.58985 0.19205 0.0
C213 C 0.60793 0.61149 0.20752 0.0
H214 H 0.84025 0.286 0.43701 0.0
H215 H 0.94569 0.23601 0.47627 0.0
H216 H 1.05354 0.33533 0.47314 0.0
H217 H 0.12082 0.438 0.45723 0.0
H218 H 1.01557 0.48669 0.41642 0.0
H219 H 0.90635 0.3879 0.42235 0.0
C220 C 0.88662 0.29659 0.44505 0.0
C221 C 0.88365 0.25239 0.45688 0.0
C222 C 0.94941 0.35446 0.44297 0.0
C223 C 0.94528 0.26815 0.46701 0.0
C224 C 1.0075 0.3254 0.46524 0.0
C225 C 0.07371 0.42698 0.45024 0.0
C226 C 0.07652 0.47025 0.4368 0.0
C227 C 1.0106 0.36916 0.45312 0.0
C228 C 1.01492 0.45466 0.42715 0.0
C229 C 0.95239 0.39792 0.43038 0.0
H230 H 0.59597 0.82683 0.75831 0.0
H231 H 0.77552 0.94858 0.81483 0.0
H232 H 0.77294 0.022 0.79953 0.0
H233 H 0.71809 0.05178 0.77149 0.0
H234 H 0.53788 0.93101 0.71597 0.0
H235 H 0.5436 0.85801 0.72831 0.0
C236 C 0.63499 0.86953 0.76703 0.0
C237 C 0.68538 0.88151 0.78816 0.0
C238 C 0.6335 0.91212 0.75797 0.0
C239 C 0.7351 0.93732 0.79926 0.0
C240 C 0.7341 0.97969 0.79027 0.0
C241 C 0.68048 1.00951 0.76195 0.0
C242 C 0.62799 0.99689 0.74262 0.0
C243 C 0.68326 0.96753 0.76991 0.0
C244 C 0.57955 0.9421 0.73028 0.0
C245 C 0.58241 0.90018 0.73772 0.0
H246 H 0.64229 0.32588 0.09003 0.0
H247 H 0.65935 0.33932 0.19557 0.0
H248 H 0.58207 0.35583 0.19782 0.0
H249 H 0.56266 0.41076 0.1677 0.0
H250 H 0.55183 0.40565 0.06152 0.0
H251 H 0.57489 0.34313 0.06147 0.0
C252 C 0.6258 0.32917 0.11369 0.0
C253 C 0.66134 0.33707 0.1421 0.0
C254 C 0.58635 0.34415 0.11437 0.0
C255 C 0.63601 0.33667 0.1729 0.0
C256 C 0.59263 0.34736 0.17418 0.0
C257 C 0.56108 0.39378 0.14449 0.0
C258 C 0.562 0.41763 0.11439 0.0
C259 C 0.5754 0.3585 0.14467 0.0
C260 C 0.55757 0.39266 0.08496 0.0
C261 C 0.56984 0.35601 0.08491 0.0
H262 H 0.52401 0.85369 0.47629 0.0
H263 H 0.45164 0.92009 0.41899 0.0
H264 H 0.34427 0.824 0.41092 0.0
H265 H 0.27036 0.72002 0.41778 0.0
H266 H 0.33934 0.65027 0.47343 0.0
H267 H 0.44615 0.74723 0.48505 0.0
C268 C 0.48476 0.84724 0.46211 0.0
C269 C 0.49743 0.89538 0.44819 0.0
C270 C 0.42146 0.7906 0.4574 0.0
C271 C 0.44483 0.88502 0.43003 0.0
C272 C 0.3827 0.82959 0.42536 0.0
C273 C 0.30849 0.726 0.43276 0.0
C274 C 0.29626 0.67743 0.44474 0.0
C275 C 0.37041 0.78199 0.43867 0.0
C276 C 0.34653 0.6864 0.46421 0.0
C277 C 0.40814 0.74212 0.47053 0.0
H278 H 0.47232 0.18152 0.81898 0.0
H279 H 0.67524 0.34448 0.79883 0.0
H280 H 0.71097 0.29718 0.77579 0.0
H281 H 0.68397 0.20922 0.75942 0.0
H282 H 0.48306 0.04667 0.78056 0.0
H283 H 0.44743 0.09355 0.80569 0.0
C284 C 0.52465 0.20678 0.81003 0.0
C285 C 0.57052 0.2668 0.81039 0.0
C286 C 0.54534 0.17918 0.797 0.0
C287 C 0.63804 0.29844 0.79826 0.0
C288 C 0.65884 0.27137 0.78523 0.0
C289 C 0.63275 0.1844 0.76993 0.0
C290 C 0.58614 0.12477 0.76848 0.0
C291 C 0.61283 0.21182 0.78414 0.0
C292 C 0.51967 0.09262 0.78181 0.0
C293 C 0.49939 0.11948 0.79598 0.0
H294 H 0.60772 0.74863 0.51819 0.0
H295 H 0.79188 0.8523 0.57399 0.0
H296 H 0.7704 0.76757 0.59276 0.0
H297 H 0.70504 0.66482 0.589 0.0
H298 H 0.52136 0.56121 0.53357 0.0
H299 H 0.53581 0.6446 0.51945 0.0
C300 C 0.64244 0.75261 0.53498 0.0
C301 C 0.70192 0.80696 0.5442 0.0
C302 C 0.62991 0.70362 0.54564 0.0
C303 C 0.74653 0.81119 0.56585 0.0
C304 C 0.73414 0.7627 0.57676 0.0
C305 C 0.66756 0.66062 0.57451 0.0
C306 C 0.6127 0.60754 0.56199 0.0
C307 C 0.67691 0.70887 0.56618 0.0
C308 C 0.56439 0.60211 0.54303 0.0
C309 C 0.57276 0.64969 0.53496 0.0
H310 H 0.74691 0.47877 0.834 0.0
H311 H 0.85433 0.64587 0.87062 0.0
H312 H 0.95556 0.65822 0.87775 0.0
H313 H 1.02172 0.6244 0.87523 0.0
H314 H 0.91998 0.46051 0.83537 0.0
H315 H 0.81693 0.44679 0.82827 0.0
C316 C 0.79184 0.51853 0.84361 0.0
C317 C 0.78663 0.56114 0.85175 0.0
C318 C 0.85518 0.52686 0.84718 0.0
C319 C 0.85059 0.61105 0.86371 0.0
C320 C 0.91091 0.61846 0.86796 0.0
C321 C 0.97794 0.58523 0.8646 0.0
C322 C 0.9848 0.54402 0.85586 0.0
C323 C 0.91541 0.57718 0.85997 0.0
C324 C 0.92253 0.49471 0.84229 0.0
C325 C 0.86114 0.48643 0.83837 0.0
H326 H 0.23871 0.72298 0.14309 0.0
H327 H 0.32471 0.65569 0.18259 0.0
H328 H 0.43213 0.75152 0.19142 0.0
H329 H 0.50304 0.85557 0.18962 0.0
H330 H 0.4201 0.92591 0.15193 0.0
H331 H 0.3124 0.82961 0.14032 0.0
C332 C 0.2809 0.72928 0.15366 0.0
C333 C 0.27281 0.68103 0.16165 0.0
C334 C 0.34407 0.78582 0.1589 0.0
C335 C 0.32891 0.69107 0.17533 0.0
C336 C 0.39078 0.74631 0.18067 0.0
C337 C 0.46152 0.8499 0.1787 0.0
C338 C 0.47031 0.8985 0.17166 0.0
C339 C 0.39922 0.79412 0.17262 0.0
C340 C 0.41564 0.88984 0.15725 0.0
C341 C 0.35354 0.83443 0.15093 0.0
H342 H 0.548 0.2964 0.47315 0.0
H343 H 0.74406 0.3679 0.50981 0.0
H344 H 0.75466 0.44137 0.53698 0.0
H345 H 0.70678 0.48427 0.55163 0.0
H346 H 0.51342 0.4151 0.51354 0.0
H347 H 0.50362 0.34247 0.48496 0.0
C348 C 0.59365 0.32856 0.48658 0.0
C349 C 0.64483 0.32609 0.48958 0.0
C350 C 0.59985 0.37118 0.50188 0.0
C351 C 0.70313 0.36788 0.50758 0.0
C352 C 0.70951 0.41022 0.52299 0.0
C353 C 0.66287 0.45326 0.53691 0.0
C354 C 0.61077 0.45447 0.53455 0.0
C355 C 0.6579 0.41194 0.5206 0.0
C356 C 0.55405 0.41468 0.51538 0.0
C357 C 0.54845 0.37323 0.49923 0.0
H358 H 0.32278 0.47415 0.83469 0.0
H359 H 0.47994 0.63221 0.88118 0.0
H360 H 0.3992 0.64519 0.89003 0.0
H361 H 0.27997 0.61447 0.88593 0.0
H362 H 0.12475 0.46139 0.83489 0.0
H363 H 0.20436 0.44634 0.82728 0.0
C364 C 0.34098 0.51193 0.84698 0.0
C365 C 0.41319 0.55155 0.85739 0.0
C366 C 0.29174 0.521 0.85142 0.0
C367 C 0.42869 0.59945 0.8725 0.0
C368 C 0.38066 0.60727 0.87775 0.0
C369 C 0.26192 0.57734 0.87288 0.0
C370 C 0.19092 0.53953 0.86123 0.0
C371 C 0.3112 0.56882 0.86754 0.0
C372 C 0.17548 0.4929 0.8444 0.0
C373 C 0.22278 0.48382 0.84005 0.0
H374 H 0.83575 0.31536 0.1497 0.0
H375 H 0.9782 0.29329 0.16699 0.0
H376 H 0.8837 0.19218 0.17989 0.0
H377 H 0.75932 0.10814 0.18718 0.0
H378 H 0.6154 0.12677 0.16653 0.0
H379 H 0.71002 0.22943 0.1543 0.0
C380 C 0.84622 0.28849 0.15621 0.0
C381 C 0.91519 0.3131 0.15728 0.0
C382 C 0.79063 0.22897 0.16315 0.0
C383 C 0.92655 0.27654 0.16561 0.0
C384 C 0.87214 0.21824 0.17319 0.0
C385 C 0.74882 0.13475 0.17991 0.0
C386 C 0.68004 0.10954 0.17786 0.0
C387 C 0.80388 0.19377 0.17217 0.0
C388 C 0.66754 0.14479 0.1682 0.0
C389 C 0.72189 0.20367 0.16125 0.0
H390 H 0.19404 0.6069 0.04341 0.0
H391 H 1.04679 0.42351 0.05106 0.0
H392 H 1.05006 0.41966 0.99073 0.0
H393 H 0.08093 0.46919 0.93562 0.0
H394 H 0.22661 0.6521 0.92868 0.0
H395 H 0.24005 0.6559 0.98859 0.0
C396 C 0.16378 0.56608 0.03188 0.0
C397 C 0.11951 0.51553 0.05168 0.0
C398 C 0.16605 0.56432 -0.00281 0.0
C399 C 0.08112 0.46299 0.03644 0.0
C400 C 0.08282 0.46084 0.00188 0.0
C401 C 0.11808 0.50967 0.9472 0.0
C402 C 0.15358 0.56042 0.92778 0.0
C403 C 0.12339 0.51124 0.98193 0.0
C404 C 0.20006 0.61274 0.94307 0.0
C405 C 0.20664 0.61477 0.97739 0.0
H406 H 0.64606 0.08624 0.36344 0.0
H407 H 0.79745 0.07234 0.35447 0.0
H408 H 0.7807 0.06056 0.29506 0.0
H409 H 0.71368 0.04386 0.24644 0.0
H410 H 0.56741 0.06296 0.25439 0.0
H411 H 0.59222 0.08449 0.31296 0.0
C412 C 0.67587 0.08133 0.34833 0.0
C413 C 0.72216 0.07932 0.36337 0.0
C414 C 0.66712 0.0759 0.31391 0.0
C415 C 0.76124 0.07375 0.3435 0.0
C416 C 0.75167 0.06696 0.30949 0.0
C417 C 0.68942 0.05491 0.26086 0.0
C418 C 0.63946 0.05256 0.24637 0.0
C419 C 0.70379 0.06681 0.29451 0.0
C420 C 0.60693 0.06568 0.26518 0.0
C421 C 0.62044 0.07712 0.29868 0.0
H422 H 0.50729 0.5239 0.73491 0.0
H423 H 0.70834 0.59158 0.75892 0.0
H424 H 0.73921 0.6039 0.70016 0.0
H425 H 0.70396 0.58483 0.64205 0.0
H426 H 0.50456 0.51948 0.61795 0.0
H427 H 0.47806 0.51777 0.67645 0.0
C428 C 0.55814 0.5421 0.72718 0.0
C429 C 0.60511 0.55595 0.75108 0.0
C430 C 0.57564 0.5494 0.69336 0.0
C431 C 0.67119 0.58027 0.74091 0.0
C432 C 0.6888 0.58717 0.70733 0.0
C433 C 0.65554 0.57167 0.64979 0.0
C434 C 0.60599 0.55214 0.62618 0.0
C435 C 0.64083 0.57046 0.68338 0.0
C436 C 0.54326 0.53499 0.63597 0.0
C437 C 0.52804 0.53353 0.66934 0.0
H438 H 0.55187 0.9993 0.56294 0.0
H439 H 0.77152 0.12798 0.55268 0.0
H440 H 0.78029 0.13109 0.61293 0.0
H441 H 0.72394 0.10473 0.66866 0.0
H442 H 0.50483 0.97703 0.67814 0.0
H443 H 0.49687 0.96473 0.61837 0.0
C444 C 0.60169 0.0275 0.57393 0.0
C445 C 0.6609 0.06396 0.55343 0.0
C446 C 0.60624 0.02886 0.60854 0.0
C447 C 0.72516 0.09977 0.56795 0.0
C448 C 0.73016 0.1016 0.60241 0.0
C449 C 0.6749 0.07281 0.65755 0.0
C450 C 0.61498 0.04078 0.67759 0.0
C451 C 0.67096 0.06727 0.62298 0.0
C452 C 0.55137 1.00083 0.66309 0.0
C453 C 0.54693 0.9945 0.62894 0.0
H454 H 0.70947 0.5725 0.94409 0.0
H455 H 0.50694 0.51316 0.94595 0.0
H456 H 0.49311 0.487 0.0049 0.0
H457 H 0.54423 0.49098 0.05679 0.0
H458 H 0.74367 0.54508 0.05449 0.0
H459 H 0.75375 0.56341 0.99448 0.0
C460 C 0.66208 0.55324 0.95743 0.0
C461 C 0.60967 0.54557 0.94118 0.0
C462 C 0.65439 0.53781 0.99102 0.0
C463 C 0.54794 0.51964 0.95823 0.0
C464 C 0.5402 0.50492 0.99184 0.0
C465 C 0.589 0.50544 0.04283 0.0
C466 C 0.64349 0.51727 0.05963 0.0
C467 C 0.59376 0.51514 0.00859 0.0
C468 C 0.70165 0.53626 0.04178 0.0
C469 C 0.70727 0.54672 0.00765 0.0
H470 H 0.07941 0.42792 0.26568 0.0
H471 H 0.0861 0.56331 0.2356 0.0
H472 H 0.10163 0.59196 0.29285 0.0
H473 H 0.12646 0.58522 0.35026 0.0
H474 H 0.13035 0.45576 0.37916 0.0
H475 H 0.09558 0.41678 0.32396 0.0
C476 C 0.08315 0.46311 0.27174 0.0
C477 C 0.08226 0.49385 0.24643 0.0
C478 C 0.09411 0.48036 0.30454 0.0
C479 C 0.08707 0.53927 0.25465 0.0
C480 C 0.09611 0.55573 0.28734 0.0
C481 C 0.11887 0.54811 0.34438 0.0
C482 C 0.13138 0.52353 0.36842 0.0
C483 C 0.10178 0.52767 0.31228 0.0
C484 C 0.12057 0.475 0.36099 0.0
C485 C 0.10141 0.45319 0.32938 0.0
loop_
_geom_bond_atom_site_label_1
_geom_bond_atom_site_label_2
_geom_bond_distance
_geom_bond_site_symmetry_2
_ccdc_geom_bond_type
Ho0 C3 2.811 . S
Ho0 O20 2.322 . S
Ho0 O22 2.378 . S
Ho0 O23 2.524 . S
Ho0 O24 2.381 . S
Ho0 O25 2.669 1_455 S
Ho0 O27 2.346 1_455 S
Ho0 O31 2.305 . S
Ho1 C12 2.811 . S
Ho1 O21 2.346 1_655 S
Ho1 O25 2.305 . S
Ho1 O26 2.322 . S
Ho1 O28 2.378 . S
Ho1 O29 2.524 . S
Ho1 O30 2.381 . S
Ho1 O31 2.669 1_655 S
C2 O20 1.259 . S
C2 O21 1.268 . S
C3 Ho0 2.811 . S
C3 C4 1.488 . S
C3 O22 1.215 . S
C3 O23 1.289 . S
C4 C3 1.488 . S
C4 C5 1.348 . S
C4 C9 1.413 . S
C5 C4 1.348 . S
C5 C6 1.442 . S
C5 H32 0.930 . S
C6 C5 1.442 . S
C6 C7 1.381 . S
C6 H33 0.931 . S
C7 C6 1.381 . S
C7 C8 1.321 . S
C8 C7 1.321 . S
C8 C9 1.403 . S
C8 H34 0.934 . S
C9 C4 1.413 . S
C9 C8 1.403 . S
C9 H35 0.930 . S
C10 O24 1.275 . S
C10 O25 1.256 1_455 S
C11 O26 1.259 . S
C11 O27 1.268 . S
C12 Ho1 2.811 . S
C12 C13 1.488 . S
C12 O28 1.215 . S
C12 O29 1.289 . S
C13 C12 1.488 . S
C13 C14 1.348 . S
C13 C18 1.413 . S
C14 C13 1.348 . S
C14 C15 1.442 . S
C14 H36 0.930 . S
C15 C14 1.442 . S
C15 C16 1.381 . S
C15 H37 0.931 . S
C16 C15 1.381 . S
C16 C17 1.321 . S
C17 C16 1.321 . S
C17 C18 1.403 . S
C17 H38 0.934 . S
C18 C13 1.413 . S
C18 C17 1.403 . S
C18 H39 0.930 . S
C19 O30 1.275 1_455 S
C19 O31 1.256 . S
O20 Ho0 2.322 . S
O20 C2 1.259 . S
O21 Ho1 2.346 1_455 S
O21 C2 1.268 . S
O22 Ho0 2.378 . S
O22 C3 1.215 . S
O23 Ho0 2.524 . S
O23 C3 1.289 . S
O24 Ho0 2.381 . S
O24 C10 1.275 . S
O25 Ho0 2.669 1_655 S
O25 Ho1 2.305 . S
O25 C10 1.256 1_655 S
O26 Ho1 2.322 . S
O26 C11 1.259 . S
O27 Ho0 2.346 1_655 S
O27 C11 1.268 . S
O28 Ho1 2.378 . S
O28 C12 1.215 . S
O29 Ho1 2.524 . S
O29 C12 1.289 . S
O30 Ho1 2.381 . S
O30 C19 1.275 1_655 S
O31 Ho0 2.305 . S
O31 Ho1 2.669 1_455 S
O31 C19 1.256 . S
H32 C5 0.930 . S
H33 C6 0.931 . S
H34 C8 0.934 . S
H35 C9 0.930 . S
H36 C14 0.930 . S
H37 C15 0.931 . S
H38 C17 0.934 . S
H39 C18 0.930 . S
Ho40 C43 2.811 1_545 S
Ho40 O60 2.322 1_545 S
Ho40 O62 2.378 1_545 S
Ho40 O63 2.524 1_545 S
Ho40 O64 2.381 . S
Ho40 O65 2.669 . S
Ho40 O67 2.346 . S
Ho40 O71 2.305 . S
Ho41 C52 2.811 . S
Ho41 O61 2.346 1_545 S
Ho41 O65 2.305 . S
Ho41 O66 2.322 . S
Ho41 O68 2.378 . S
Ho41 O69 2.524 . S
Ho41 O70 2.381 . S
Ho41 O71 2.669 . S
C42 O60 1.259 . S
C42 O61 1.268 . S
C43 Ho40 2.811 1_565 S
C43 C44 1.488 . S
C43 O62 1.215 . S
C43 O63 1.289 . S
C44 C43 1.488 . S
C44 C45 1.348 . S
C44 C49 1.413 . S
C45 C44 1.348 . S
C45 C46 1.442 . S
C45 H72 0.930 . S
C46 C45 1.442 . S
C46 C47 1.381 . S
C46 H73 0.931 . S
C47 C46 1.381 . S
C47 C48 1.321 . S
C48 C47 1.321 . S
C48 C49 1.403 . S
C48 H74 0.934 . S
C49 C44 1.413 . S
C49 C48 1.403 . S
C49 H75 0.930 . S
C50 O64 1.275 . S
C50 O65 1.256 . S
C51 O66 1.259 . S
C51 O67 1.268 . S
C52 Ho41 2.811 . S
C52 C53 1.488 . S
C52 O68 1.215 . S
C52 O69 1.289 . S
C53 C52 1.488 . S
C53 C54 1.348 . S
C53 C58 1.413 . S
C54 C53 1.348 . S
C54 C55 1.442 . S
C54 H76 0.930 . S
C55 C54 1.442 . S
C55 C56 1.381 . S
C55 H77 0.931 . S
C56 C55 1.381 . S
C56 C57 1.321 . S
C57 C56 1.321 . S
C57 C58 1.403 . S
C57 H78 0.934 . S
C58 C53 1.413 . S
C58 C57 1.403 . S
C58 H79 0.930 . S
C59 O70 1.275 . S
C59 O71 1.256 . S
O60 Ho40 2.322 1_565 S
O60 C42 1.259 . S
O61 Ho41 2.346 1_565 S
O61 C42 1.268 . S
O62 Ho40 2.378 1_565 S
O62 C43 1.215 . S
O63 Ho40 2.524 1_565 S
O63 C43 1.289 . S
O64 Ho40 2.381 . S
O64 C50 1.275 . S
O65 Ho40 2.669 . S
O65 Ho41 2.305 . S
O65 C50 1.256 . S
O66 Ho41 2.322 . S
O66 C51 1.259 . S
O67 Ho40 2.346 . S
O67 C51 1.268 . S
O68 Ho41 2.378 . S
O68 C52 1.215 . S
O69 Ho41 2.524 . S
O69 C52 1.289 . S
O70 Ho41 2.381 . S
O70 C59 1.275 . S
O71 Ho40 2.305 . S
O71 Ho41 2.669 . S
O71 C59 1.256 . S
H72 C45 0.930 . S
H73 C46 0.931 . S
H74 C48 0.934 . S
H75 C49 0.930 . S
H76 C54 0.930 . S
H77 C55 0.931 . S
H78 C57 0.934 . S
H79 C58 0.930 . S
Ho80 C83 2.811 . S
Ho80 O100 2.322 . S
Ho80 O102 2.378 . S
Ho80 O103 2.524 . S
Ho80 O104 2.381 . S
Ho80 O105 2.669 . S
Ho80 O107 2.346 . S
Ho80 O111 2.305 . S
Ho81 C92 2.811 . S
Ho81 O101 2.346 . S
Ho81 O105 2.305 . S
Ho81 O106 2.322 . S
Ho81 O108 2.378 . S
Ho81 O109 2.524 . S
Ho81 O110 2.381 . S
Ho81 O111 2.669 . S
C82 O100 1.259 . S
C82 O101 1.268 . S
C83 Ho80 2.811 . S
C83 C84 1.488 . S
C83 O102 1.215 . S
C83 O103 1.289 . S
C84 C83 1.488 . S
C84 C85 1.348 . S
C84 C89 1.413 . S
C85 C84 1.348 . S
C85 C86 1.442 . S
C85 H112 0.930 . S
C86 C85 1.442 . S
C86 C87 1.381 . S
C86 H113 0.931 . S
C87 C86 1.381 . S
C87 C88 1.321 . S
C88 C87 1.321 . S
C88 C89 1.403 . S
C88 H114 0.934 . S
C89 C84 1.413 . S
C89 C88 1.403 . S
C89 H115 0.930 . S
C90 O104 1.275 . S
C90 O105 1.256 . S
C91 O106 1.259 . S
C91 O107 1.268 . S
C92 Ho81 2.811 . S
C92 C93 1.488 . S
C92 O108 1.215 . S
C92 O109 1.289 . S
C93 C92 1.488 . S
C93 C94 1.348 . S
C93 C98 1.413 . S
C94 C93 1.348 . S
C94 C95 1.442 . S
C94 H116 0.930 . S
C95 C94 1.442 . S
C95 C96 1.381 . S
C95 H117 0.931 . S
C96 C95 1.381 . S
C96 C97 1.321 . S
C97 C96 1.321 . S
C97 C98 1.403 . S
C97 H118 0.934 . S
C98 C93 1.413 . S
C98 C97 1.403 . S
C98 H119 0.930 . S
C99 O110 1.275 . S
C99 O111 1.256 . S
O100 Ho80 2.322 . S
O100 C82 1.259 . S
O101 Ho81 2.346 . S
O101 C82 1.268 . S
O102 Ho80 2.378 . S
O102 C83 1.215 . S
O103 Ho80 2.524 . S
O103 C83 1.289 . S
O104 Ho80 2.381 . S
O104 C90 1.275 . S
O105 Ho80 2.669 . S
O105 Ho81 2.305 . S
O105 C90 1.256 . S
O106 Ho81 2.322 . S
O106 C91 1.259 . S
O107 Ho80 2.346 . S
O107 C91 1.268 . S
O108 Ho81 2.378 . S
O108 C92 1.215 . S
O109 Ho81 2.524 . S
O109 C92 1.289 . S
O110 Ho81 2.381 . S
O110 C99 1.275 . S
O111 Ho80 2.305 . S
O111 Ho81 2.669 . S
O111 C99 1.256 . S
H112 C85 0.930 . S
H113 C86 0.931 . S
H114 C88 0.934 . S
H115 C89 0.930 . S
H116 C94 0.930 . S
H117 C95 0.931 . S
H118 C97 0.934 . S
H119 C98 0.930 . S
C120 N121 1.317 1_565 S
C120 N122 1.348 . S
C120 C123 1.485 1_565 S
N121 C120 1.317 1_545 S
N121 N125 1.370 . S
N122 C120 1.348 . S
N122 C124 1.346 . S
C123 C120 1.485 1_545 S
C123 H127 0.960 . S
C123 H128 0.961 1_545 S
C123 H129 0.960 . S
C124 N122 1.346 . S
C124 N125 1.307 1_565 S
C124 C126 1.486 . S
N125 N121 1.370 . S
N125 C124 1.307 1_545 S
C126 C124 1.486 . S
C126 H130 0.960 . S
C126 H131 0.960 . S
C126 H132 0.959 . S
H127 C123 0.960 . S
H128 C123 0.961 1_565 S
H129 C123 0.960 . S
H130 C126 0.960 . S
H131 C126 0.960 . S
H132 C126 0.959 . S
C133 N134 1.317 . S
C133 N135 1.348 . S
C133 C136 1.485 . S
N134 C133 1.317 . S
N134 N138 1.370 . S
N135 C133 1.348 . S
N135 C137 1.346 . S
C136 C133 1.485 . S
C136 H140 0.960 . S
C136 H141 0.961 . S
C136 H142 0.960 . S
C137 N135 1.346 . S
C137 N138 1.307 . S
C137 C139 1.486 . S
N138 N134 1.370 . S
N138 C137 1.307 . S
C139 C137 1.486 . S
C139 H143 0.960 . S
C139 H144 0.960 . S
C139 H145 0.959 . S
H140 C136 0.960 . S
H141 C136 0.961 . S
H142 C136 0.960 . S
H143 C139 0.960 . S
H144 C139 0.960 . S
H145 C139 0.959 . S
C146 N147 1.317 . S
C146 N148 1.348 . S
C146 C149 1.485 . S
N147 C146 1.317 . S
N147 N151 1.370 . S
N148 C146 1.348 . S
N148 C150 1.346 . S
C149 C146 1.485 . S
C149 H153 0.960 . S
C149 H154 0.961 . S
C149 H155 0.960 . S
C150 N148 1.346 . S
C150 N151 1.307 . S
C150 C152 1.486 1_455 S
N151 N147 1.370 . S
N151 C150 1.307 . S
C152 C150 1.486 1_655 S
C152 H156 0.960 . S
C152 H157 0.960 . S
C152 H158 0.965 . S
H153 C149 0.960 . S
H154 C149 0.961 . S
H155 C149 0.960 . S
H156 C152 0.960 . S
H157 C152 0.960 . S
H158 C152 0.965 . S
C159 N160 1.317 . S
C159 N161 1.348 . S
C159 C162 1.485 . S
N160 C159 1.317 . S
N160 N164 1.370 . S
N161 C159 1.348 . S
N161 C163 1.346 . S
C162 C159 1.485 . S
C162 H166 0.960 . S
C162 H167 0.961 . S
C162 H168 0.960 . S
C163 N161 1.346 . S
C163 N164 1.307 . S
C163 C165 1.486 . S
N164 N160 1.370 . S
N164 C163 1.307 . S
C165 C163 1.486 . S
C165 H169 0.960 . S
C165 H170 0.960 . S
C165 H171 0.959 . S
H166 C162 0.960 . S
H167 C162 0.961 . S
H168 C162 0.960 . S
H169 C165 0.960 . S
H170 C165 0.960 . S
H171 C165 0.959 . S
C172 N173 1.317 . S
C172 N174 1.348 . S
C172 C175 1.485 . S
N173 C172 1.317 . S
N173 N177 1.370 . S
N174 C172 1.348 . S
N174 C176 1.346 . S
C175 C172 1.485 . S
C175 H179 0.960 . S
C175 H180 0.961 . S
C175 H181 0.960 . S
C176 N174 1.346 . S
C176 N177 1.307 . S
C176 C178 1.486 . S
N177 N173 1.370 . S
N177 C176 1.307 . S
C178 C176 1.486 . S
C178 H182 0.960 . S
C178 H183 0.960 . S
C178 H184 0.959 . S
H179 C175 0.960 . S
H180 C175 0.961 . S
H181 C175 0.960 . S
H182 C178 0.960 . S
H183 C178 0.960 . S
H184 C178 0.959 . S
C185 N186 1.317 . S
C185 N187 1.348 . S
C185 C188 1.485 . S
N186 C185 1.317 . S
N186 N190 1.370 . S
N187 C185 1.348 . S
N187 C189 1.346 . S
C188 C185 1.485 . S
C188 H192 0.960 . S
C188 H193 0.961 . S
C188 H194 0.960 . S
C189 N187 1.346 . S
C189 N190 1.307 . S
C189 C191 1.486 . S
N190 N186 1.370 . S
N190 C189 1.307 . S
C191 C189 1.486 . S
C191 H195 0.960 . S
C191 H196 0.960 . S
C191 H197 0.959 . S
H192 C188 0.960 . S
H193 C188 0.961 . S
H194 C188 0.960 . S
H195 C191 0.960 . S
H196 C191 0.960 . S
H197 C191 0.959 . S
H198 C204 0.930 . S
H199 C207 0.930 . S
H200 C208 0.930 . S
H201 C209 0.930 . S
H202 C212 0.930 . S
H203 C213 0.930 . S
C204 H198 0.930 . S
C204 C205 1.355 . S
C204 C206 1.415 . S
C205 C204 1.355 . S
C205 C207 1.419 . S
C206 C204 1.415 . S
C206 C211 1.425 . S
C206 C213 1.409 . S
C207 H199 0.930 . S
C207 C205 1.419 . S
C207 C208 1.362 . S
C208 H200 0.930 . S
C208 C207 1.362 . S
C208 C211 1.409 . S
C209 H201 0.930 . S
C209 C210 1.355 . S
C209 C211 1.415 . S
C210 C209 1.355 . S
C210 C212 1.419 . S
C211 C206 1.425 . S
C211 C208 1.409 . S
C211 C209 1.415 . S
C212 H202 0.930 . S
C212 C210 1.419 . S
C212 C213 1.362 . S
C213 H203 0.930 . S
C213 C206 1.409 . S
C213 C212 1.362 . S
H214 C220 0.930 . S
H215 C223 0.930 . S
H216 C224 0.930 . S
H217 C225 0.930 . S
H218 C228 0.930 . S
H219 C229 0.930 . S
C220 H214 0.930 . S
C220 C221 1.355 . S
C220 C222 1.415 . S
C221 C220 1.355 . S
C221 C223 1.419 . S
C222 C220 1.415 . S
C222 C227 1.425 . S
C222 C229 1.409 . S
C223 H215 0.930 . S
C223 C221 1.419 . S
C223 C224 1.362 . S
C224 H216 0.930 . S
C224 C223 1.362 . S
C224 C227 1.409 . S
C225 H217 0.930 . S
C225 C226 1.355 . S
C225 C227 1.415 . S
C226 C225 1.355 . S
C226 C228 1.419 . S
C227 C222 1.425 . S
C227 C224 1.409 . S
C227 C225 1.415 . S
C228 H218 0.930 . S
C228 C226 1.419 . S
C228 C229 1.362 . S
C229 H219 0.930 . S
C229 C222 1.409 . S
C229 C228 1.362 . S
H230 C236 0.930 . S
H231 C239 0.930 . S
H232 C240 0.930 1_545 S
H233 C241 0.930 1_545 S
H234 C244 0.930 . S
H235 C245 0.930 . S
C236 H230 0.930 . S
C236 C237 1.355 . S
C236 C238 1.415 . S
C237 C236 1.355 . S
C237 C239 1.419 . S
C238 C236 1.415 . S
C238 C243 1.425 . S
C238 C245 1.409 . S
C239 H231 0.930 . S
C239 C237 1.419 . S
C239 C240 1.362 . S
C240 H232 0.930 1_565 S
C240 C239 1.362 . S
C240 C243 1.409 . S
C241 H233 0.930 1_565 S
C241 C242 1.355 . S
C241 C243 1.415 . S
C242 C241 1.355 . S
C242 C244 1.419 . S
C243 C238 1.425 . S
C243 C240 1.409 . S
C243 C241 1.415 . S
C244 H234 0.930 . S
C244 C242 1.419 . S
C244 C245 1.362 . S
C245 H235 0.930 . S
C245 C238 1.409 . S
C245 C244 1.362 . S
H246 C252 0.930 . S
H247 C255 0.930 . S
H248 C256 0.930 . S
H249 C257 0.930 . S
H250 C260 0.930 . S
H251 C261 0.930 . S
C252 H246 0.930 . S
C252 C253 1.355 . S
C252 C254 1.415 . S
C253 C252 1.355 . S
C253 C255 1.419 . S
C254 C252 1.415 . S
C254 C259 1.425 . S
C254 C261 1.409 . S
C255 H247 0.930 . S
C255 C253 1.419 . S
C255 C256 1.362 . S
C256 H248 0.930 . S
C256 C255 1.362 . S
C256 C259 1.409 . S
C257 H249 0.930 . S
C257 C258 1.355 . S
C257 C259 1.415 . S
C258 C257 1.355 . S
C258 C260 1.419 . S
C259 C254 1.425 . S
C259 C256 1.409 . S
C259 C257 1.415 . S
C260 H250 0.930 . S
C260 C258 1.419 . S
C260 C261 1.362 . S
C261 H251 0.930 . S
C261 C254 1.409 . S
C261 C260 1.362 . S
H262 C268 0.930 . S
H263 C271 0.930 . S
H264 C272 0.930 . S
H265 C273 0.930 . S
H266 C276 0.930 . S
H267 C277 0.930 . S
C268 H262 0.930 . S
C268 C269 1.355 . S
C268 C270 1.415 . S
C269 C268 1.355 . S
C269 C271 1.419 . S
C270 C268 1.415 . S
C270 C275 1.425 . S
C270 C277 1.409 . S
C271 H263 0.930 . S
C271 C269 1.419 . S
C271 C272 1.362 . S
C272 H264 0.930 . S
C272 C271 1.362 . S
C272 C275 1.409 . S
C273 H265 0.930 . S
C273 C274 1.355 . S
C273 C275 1.415 . S
C274 C273 1.355 . S
C274 C276 1.419 . S
C275 C270 1.425 . S
C275 C272 1.409 . S
C275 C273 1.415 . S
C276 H266 0.930 . S
C276 C274 1.419 . S
C276 C277 1.362 . S
C277 H267 0.930 . S
C277 C270 1.409 . S
C277 C276 1.362 . S
H278 C284 0.930 . S
H279 C287 0.930 . S
H280 C288 0.930 . S
H281 C289 0.930 . S
H282 C292 0.930 . S
H283 C293 0.930 . S
C284 H278 0.930 . S
C284 C285 1.355 . S
C284 C286 1.415 . S
C285 C284 1.355 . S
C285 C287 1.419 . S
C286 C284 1.415 . S
C286 C291 1.425 . S
C286 C293 1.409 . S
C287 H279 0.930 . S
C287 C285 1.419 . S
C287 C288 1.362 . S
C288 H280 0.930 . S
C288 C287 1.362 . S
C288 C291 1.409 . S
C289 H281 0.930 . S
C289 C290 1.355 . S
C289 C291 1.415 . S
C290 C289 1.355 . S
C290 C292 1.419 . S
C291 C286 1.425 . S
C291 C288 1.409 . S
C291 C289 1.415 . S
C292 H282 0.930 . S
C292 C290 1.419 . S
C292 C293 1.362 . S
C293 H283 0.930 . S
C293 C286 1.409 . S
C293 C292 1.362 . S
H294 C300 0.930 . S
H295 C303 0.930 . S
H296 C304 0.930 . S
H297 C305 0.930 . S
H298 C308 0.930 . S
H299 C309 0.930 . S
C300 H294 0.930 . S
C300 C301 1.355 . S
C300 C302 1.415 . S
C301 C300 1.355 . S
C301 C303 1.419 . S
C302 C300 1.415 . S
C302 C307 1.425 . S
C302 C309 1.409 . S
C303 H295 0.930 . S
C303 C301 1.419 . S
C303 C304 1.362 . S
C304 H296 0.930 . S
C304 C303 1.362 . S
C304 C307 1.409 . S
C305 H297 0.930 . S
C305 C306 1.355 . S
C305 C307 1.415 . S
C306 C305 1.355 . S
C306 C308 1.419 . S
C307 C302 1.425 . S
C307 C304 1.409 . S
C307 C305 1.415 . S
C308 H298 0.930 . S
C308 C306 1.419 . S
C308 C309 1.362 . S
C309 H299 0.930 . S
C309 C302 1.409 . S
C309 C308 1.362 . S
H310 C316 0.930 . S
H311 C319 0.930 . S
H312 C320 0.930 . S
H313 C321 0.930 . S
H314 C324 0.930 . S
H315 C325 0.930 . S
C316 H310 0.930 . S
C316 C317 1.355 . S
C316 C318 1.415 . S
C317 C316 1.355 . S
C317 C319 1.419 . S
C318 C316 1.415 . S
C318 C323 1.425 . S
C318 C325 1.409 . S
C319 H311 0.930 . S
C319 C317 1.419 . S
C319 C320 1.362 . S
C320 H312 0.930 . S
C320 C319 1.362 . S
C320 C323 1.409 . S
C321 H313 0.930 . S
C321 C322 1.355 . S
C321 C323 1.415 . S
C322 C321 1.355 . S
C322 C324 1.419 . S
C323 C318 1.425 . S
C323 C320 1.409 . S
C323 C321 1.415 . S
C324 H314 0.930 . S
C324 C322 1.419 . S
C324 C325 1.362 . S
C325 H315 0.930 . S
C325 C318 1.409 . S
C325 C324 1.362 . S
H326 C332 0.930 . S
H327 C335 0.930 . S
H328 C336 0.930 . S
H329 C337 0.930 . S
H330 C340 0.930 . S
H331 C341 0.930 . S
C332 H326 0.930 . S
C332 C333 1.355 . S
C332 C334 1.415 . S
C333 C332 1.355 . S
C333 C335 1.419 . S
C334 C332 1.415 . S
C334 C339 1.425 . S
C334 C341 1.409 . S
C335 H327 0.930 . S
C335 C333 1.419 . S
C335 C336 1.362 . S
C336 H328 0.930 . S
C336 C335 1.362 . S
C336 C339 1.409 . S
C337 H329 0.930 . S
C337 C338 1.355 . S
C337 C339 1.415 . S
C338 C337 1.355 . S
C338 C340 1.419 . S
C339 C334 1.425 . S
C339 C336 1.409 . S
C339 C337 1.415 . S
C340 H330 0.930 . S
C340 C338 1.419 . S
C340 C341 1.362 . S
C341 H331 0.930 . S
C341 C334 1.409 . S
C341 C340 1.362 . S
H342 C348 0.930 . S
H343 C351 0.930 . S
H344 C352 0.930 . S
H345 C353 0.930 . S
H346 C356 0.930 . S
H347 C357 0.930 . S
C348 H342 0.930 . S
C348 C349 1.355 . S
C348 C350 1.415 . S
C349 C348 1.355 . S
C349 C351 1.419 . S
C350 C348 1.415 . S
C350 C355 1.425 . S
C350 C357 1.409 . S
C351 H343 0.930 . S
C351 C349 1.419 . S
C351 C352 1.362 . S
C352 H344 0.930 . S
C352 C351 1.362 . S
C352 C355 1.409 . S
C353 H345 0.930 . S
C353 C354 1.355 . S
C353 C355 1.415 . S
C354 C353 1.355 . S
C354 C356 1.419 . S
C355 C350 1.425 . S
C355 C352 1.409 . S
C355 C353 1.415 . S
C356 H346 0.930 . S
C356 C354 1.419 . S
C356 C357 1.362 . S
C357 H347 0.930 . S
C357 C350 1.409 . S
C357 C356 1.362 . S
H358 C364 0.930 . S
H359 C367 0.930 . S
H360 C368 0.930 . S
H361 C369 0.930 . S
H362 C372 0.930 . S
H363 C373 0.930 . S
C364 H358 0.930 . S
C364 C365 1.355 . S
C364 C366 1.415 . S
C365 C364 1.355 . S
C365 C367 1.419 . S
C366 C364 1.415 . S
C366 C371 1.425 . S
C366 C373 1.409 . S
C367 H359 0.930 . S
C367 C365 1.419 . S
C367 C368 1.362 . S
C368 H360 0.930 . S
C368 C367 1.362 . S
C368 C371 1.409 . S
C369 H361 0.930 . S
C369 C370 1.355 . S
C369 C371 1.415 . S
C370 C369 1.355 . S
C370 C372 1.419 . S
C371 C366 1.425 . S
C371 C368 1.409 . S
C371 C369 1.415 . S
C372 H362 0.930 . S
C372 C370 1.419 . S
C372 C373 1.362 . S
C373 H363 0.930 . S
C373 C366 1.409 . S
C373 C372 1.362 . S
H374 C380 0.930 . S
H375 C383 0.930 . S
H376 C384 0.930 . S
H377 C385 0.930 . S
H378 C388 0.930 . S
H379 C389 0.930 . S
C380 H374 0.930 . S
C380 C381 1.355 . S
C380 C382 1.415 . S
C381 C380 1.355 . S
C381 C383 1.419 . S
C382 C380 1.415 . S
C382 C387 1.425 . S
C382 C389 1.409 . S
C383 H375 0.930 . S
C383 C381 1.419 . S
C383 C384 1.362 . S
C384 H376 0.930 . S
C384 C383 1.362 . S
C384 C387 1.409 . S
C385 H377 0.930 . S
C385 C386 1.355 . S
C385 C387 1.415 . S
C386 C385 1.355 . S
C386 C388 1.419 . S
C387 C382 1.425 . S
C387 C384 1.409 . S
C387 C385 1.415 . S
C388 H378 0.930 . S
C388 C386 1.419 . S
C388 C389 1.362 . S
C389 H379 0.930 . S
C389 C382 1.409 . S
C389 C388 1.362 . S
H390 C396 0.930 . S
H391 C399 0.930 . S
H392 C400 0.930 . S
H393 C401 0.930 1_655 S
H394 C404 0.930 . S
H395 C405 0.930 1_554 S
C396 H390 0.930 . S
C396 C397 1.355 . S
C396 C398 1.415 . S
C397 C396 1.355 . S
C397 C399 1.419 1_455 S
C398 C396 1.415 . S
C398 C403 1.425 1_554 S
C398 C405 1.409 1_554 S
C399 H391 0.930 . S
C399 C397 1.419 1_655 S
C399 C400 1.362 . S
C400 H392 0.930 . S
C400 C399 1.362 . S
C400 C403 1.409 1_654 S
C401 H393 0.930 1_455 S
C401 C402 1.355 . S
C401 C403 1.415 . S
C402 C401 1.355 . S
C402 C404 1.419 . S
C403 C398 1.425 1_556 S
C403 C400 1.409 1_456 S
C403 C401 1.415 . S
C404 H394 0.930 . S
C404 C402 1.419 . S
C404 C405 1.362 . S
C405 H395 0.930 1_556 S
C405 C398 1.409 1_556 S
C405 C404 1.362 . S
H406 C412 0.930 . S
H407 C415 0.930 . S
H408 C416 0.930 . S
H409 C417 0.930 . S
H410 C420 0.930 . S
H411 C421 0.930 . S
C412 H406 0.930 . S
C412 C413 1.355 . S
C412 C414 1.415 . S
C413 C412 1.355 . S
C413 C415 1.419 1_545 S
C414 C412 1.415 . S
C414 C419 1.424 . S
C414 C421 1.409 . S
C415 H407 0.930 . S
C415 C413 1.419 1_565 S
C415 C416 1.362 . S
C416 H408 0.930 . S
C416 C415 1.362 . S
C416 C419 1.410 1_565 S
C417 H409 0.930 . S
C417 C418 1.355 1_565 S
C417 C419 1.415 1_565 S
C418 C417 1.355 1_545 S
C418 C420 1.419 . S
C419 C414 1.424 . S
C419 C416 1.410 1_545 S
C419 C417 1.415 1_545 S
C420 H410 0.930 . S
C420 C418 1.419 . S
C420 C421 1.362 . S
C421 H411 0.930 . S
C421 C414 1.409 . S
C421 C420 1.362 . S
H422 C428 0.930 . S
H423 C431 0.930 . S
H424 C432 0.930 . S
H425 C433 0.930 . S
H426 C436 0.930 . S
H427 C437 0.930 . S
C428 H422 0.930 . S
C428 C429 1.355 . S
C428 C430 1.415 . S
C429 C428 1.355 . S
C429 C431 1.419 . S
C430 C428 1.415 . S
C430 C435 1.425 . S
C430 C437 1.409 . S
C431 H423 0.930 . S
C431 C429 1.419 . S
C431 C432 1.362 . S
C432 H424 0.930 . S
C432 C431 1.362 . S
C432 C435 1.409 . S
C433 H425 0.930 . S
C433 C434 1.355 . S
C433 C435 1.415 . S
C434 C433 1.355 . S
C434 C436 1.419 . S
C435 C430 1.425 . S
C435 C432 1.409 . S
C435 C433 1.415 . S
C436 H426 0.930 . S
C436 C434 1.419 . S
C436 C437 1.362 . S
C437 H427 0.930 . S
C437 C430 1.409 . S
C437 C436 1.362 . S
H438 C444 0.930 . S
H439 C447 0.930 . S
H440 C448 0.930 . S
H441 C449 0.930 1_565 S
H442 C452 0.930 . S
H443 C453 0.930 . S
C444 H438 0.930 . S
C444 C445 1.355 . S
C444 C446 1.415 . S
C445 C444 1.355 . S
C445 C447 1.419 1_545 S
C446 C444 1.415 . S
C446 C451 1.425 . S
C446 C453 1.409 . S
C447 H439 0.930 . S
C447 C445 1.419 1_565 S
C447 C448 1.362 . S
C448 H440 0.930 . S
C448 C447 1.362 . S
C448 C451 1.409 1_565 S
C449 H441 0.930 1_545 S
C449 C450 1.355 . S
C449 C451 1.415 . S
C450 C449 1.355 . S
C450 C452 1.419 . S
C451 C446 1.425 . S
C451 C448 1.409 1_545 S
C451 C449 1.415 . S
C452 H442 0.930 . S
C452 C450 1.419 . S
C452 C453 1.362 . S
C453 H443 0.930 . S
C453 C446 1.409 . S
C453 C452 1.362 . S
H454 C460 0.930 . S
H455 C463 0.930 . S
H456 C464 0.930 . S
H457 C465 0.930 . S
H458 C468 0.930 . S
H459 C469 0.930 . S
C460 H454 0.930 . S
C460 C461 1.355 . S
C460 C462 1.415 . S
C461 C460 1.355 . S
C461 C463 1.419 . S
C462 C460 1.415 . S
C462 C467 1.425 . S
C462 C469 1.409 1_556 S
C463 H455 0.930 . S
C463 C461 1.419 . S
C463 C464 1.362 . S
C464 H456 0.930 . S
C464 C463 1.362 . S
C464 C467 1.409 . S
C465 H457 0.930 . S
C465 C466 1.355 . S
C465 C467 1.415 1_554 S
C466 C465 1.355 . S
C466 C468 1.419 . S
C467 C462 1.425 . S
C467 C464 1.409 . S
C467 C465 1.415 1_556 S
C468 H458 0.930 . S
C468 C466 1.419 . S
C468 C469 1.362 . S
C469 H459 0.930 . S
C469 C462 1.409 1_554 S
C469 C468 1.362 . S
H470 C476 0.930 . S
H471 C479 0.930 . S
H472 C480 0.918 1_655 S
H473 C481 0.930 . S
H474 C484 0.930 . S
H475 C485 0.930 . S
C476 H470 0.930 . S
C476 C477 1.355 1_455 S
C476 C478 1.415 . S
C477 C476 1.355 1_655 S
C477 C479 1.419 . S
C478 C476 1.415 . S
C478 C483 1.425 . S
C478 C485 1.409 . S
C479 H471 0.930 . S
C479 C477 1.419 . S
C479 C480 1.364 1_655 S
C480 H472 0.918 1_455 S
C480 C479 1.364 1_455 S
C480 C483 1.419 . S
C481 H473 0.930 . S
C481 C482 1.355 . S
C481 C483 1.415 . S
C482 C481 1.355 . S
C482 C484 1.419 . S
C483 C478 1.425 . S
C483 C480 1.419 . S
C483 C481 1.415 . S
C484 H474 0.930 . S
C484 C482 1.419 . S
C484 C485 1.362 . S
C485 H475 0.930 . S
C485 C478 1.409 . S
C485 C484 1.362 . S
C205 C7 0.436 . S
C210 N187 0.452 . S
C221 C51 1.836 . S
C226 N160 1.832 1_655 S
C237 C87 1.263 . S
C242 N173 1.266 1_565 S
C253 C16 0.805 . S
C258 N186 0.862 . S
C274 N161 1.993 . S
C269 C42 1.964 . S
C290 N174 1.411 . S
C285 C96 1.344 . S
C301 C47 1.115 . S
C306 N134 1.133 . S
C317 C91 2.885 . S
C322 N148 2.836 1_655 S
C333 C2 2.031 . S
C338 N122 2.022 . S
C354 N135 1.476 . S
C349 C56 1.405 . S
C370 N147 3.273 . S
C365 C82 3.241 . S
C381 C11 1.823 . S
C386 N121 1.854 . S
C402 N151 1.768 . S
C397 C19 1.726 . S
C413 C50 1.453 . S
C418 N125 1.481 . S
C429 C99 1.538 . S
C434 N138 1.564 . S
C450 N177 1.516 . S
C445 C59 1.506 . S
C466 N190 1.187 . S
C461 C90 1.249 . S
C477 C10 1.450 1_655 S
C482 N164 1.441 . S
