# Generated by pormake.
# Topology tsx, (6,3)-cn, num edge types: 1
# Building blocks:
#     Node 0, Type 0, BuildingBlock: CIFDUS_clean_sbu_1, # of connection points: 6
#     Node 1, Type 0, BuildingBlock: CIFDUS_clean_sbu_1, # of connection points: 6
#     Node 2, Type 1, BuildingBlock: BETDIP_clean_linker_0, # of connection points: 3
#     Node 3, Type 1, BuildingBlock: BETDIP_clean_linker_0, # of connection points: 3
#     Node 4, Type 1, BuildingBlock: BETDIP_clean_linker_0, # of connection points: 3
#     Node 5, Type 1, BuildingBlock: BETDIP_clean_linker_0, # of connection points: 3
#     Edge 6, Type (0, 1), BuildingBlock: KIFKEQ_clean_linker_1, # of connection points: 2
#     Edge 7, Type (0, 1), BuildingBlock: KIFKEQ_clean_linker_1, # of connection points: 2
#     Edge 8, Type (0, 1), BuildingBlock: KIFKEQ_clean_linker_1, # of connection points: 2
#     Edge 9, Type (0, 1), BuildingBlock: KIFKEQ_clean_linker_1, # of connection points: 2
#     Edge 10, Type (0, 1), BuildingBlock: KIFKEQ_clean_linker_1, # of connection points: 2
#     Edge 11, Type (0, 1), BuildingBlock: KIFKEQ_clean_linker_1, # of connection points: 2
#     Edge 12, Type (0, 1), BuildingBlock: KIFKEQ_clean_linker_1, # of connection points: 2
#     Edge 13, Type (0, 1), BuildingBlock: KIFKEQ_clean_linker_1, # of connection points: 2
#     Edge 14, Type (0, 1), BuildingBlock: KIFKEQ_clean_linker_1, # of connection points: 2
#     Edge 15, Type (0, 1), BuildingBlock: KIFKEQ_clean_linker_1, # of connection points: 2
#     Edge 16, Type (0, 1), BuildingBlock: KIFKEQ_clean_linker_1, # of connection points: 2
#     Edge 17, Type (0, 1), BuildingBlock: KIFKEQ_clean_linker_1, # of connection points: 2
# Relax obj value: 0.096
# Max RMSD: 0.148
# Mean RMSD: 0.111
data_MOF--net-tsx--node1-CIFDUS_clean_sbu_1--node2-BETDIP_clean_linker_0--edge1-KIFKEQ_clean_linker_1
_symmetry_space_group_name_H-M    P1
_symmetry_Int_Tables_number       1
_symmetry_cell_setting            triclinic
loop_
_symmetry_equiv_pos_as_xyz
'x, y, z'
_cell_length_a     17.992736
_cell_length_b     23.229828
_cell_length_c     34.816619
_cell_angle_alpha  97.239421
_cell_angle_beta   105.04741
_cell_angle_gamma 91.741434
loop_
_atom_site_label
_atom_site_type_symbol
_atom_site_fract_x
_atom_site_fract_y
_atom_site_fract_z
_atom_type_partial_charge
O0 O 1.01256 0.08622 0.00812 0.0
Mn1 Mn 0.08179 0.01478 0.0072 0.0
O2 O 0.89616 0.05714 0.96651 0.0
Mn3 Mn 0.93224 0.99575 0.93922 0.0
O4 O 0.1531 0.94492 0.00711 0.0
O5 O 0.17299 0.0687 0.03767 0.0
Mn6 Mn 0.22754 0.03876 0.07933 0.0
O7 O 0.05843 0.99726 0.06075 0.0
O8 O 0.26006 0.96987 0.05811 0.0
O9 O 0.10453 0.0328 0.95364 0.0
O10 O 0.9913 0.01545 0.90612 0.0
O11 O 0.27693 0.10997 0.08006 0.0
O12 O 0.16211 0.03087 0.11158 0.0
C13 C 0.94018 0.91517 0.96258 0.0
C14 C 0.94083 0.09389 0.99337 0.0
C15 C 0.22052 0.93471 0.02808 0.0
C16 C 0.22185 0.11327 0.04822 0.0
C17 C 0.09304 0.00911 0.09834 0.0
C18 C 0.06301 0.03086 0.91731 0.0
O19 O 0.99064 0.95909 0.97624 0.0
O20 O 0.88459 0.92304 0.93194 0.0
O21 O 0.52261 0.60037 0.51105 0.0
Mn22 Mn 0.58977 0.52784 0.5087 0.0
O23 O 0.40331 0.57201 0.47278 0.0
Mn24 Mn 0.43593 0.5106 0.44387 0.0
O25 O 0.65942 0.45712 0.50738 0.0
O26 O 0.68284 0.58105 0.53745 0.0
Mn27 Mn 0.73892 0.55119 0.57875 0.0
O28 O 0.57037 0.511 0.56321 0.0
O29 O 0.76857 0.48143 0.5571 0.0
O30 O 0.60814 0.54462 0.45396 0.0
O31 O 0.49141 0.53017 0.40911 0.0
O32 O 0.78914 0.62152 0.57818 0.0
O33 O 0.6761 0.54504 0.61257 0.0
C34 C 0.44531 0.42953 0.46654 0.0
C35 C 0.45052 0.60864 0.49843 0.0
C36 C 0.72727 0.44636 0.52753 0.0
C37 C 0.73263 0.62505 0.54701 0.0
C38 C 0.60687 0.52338 0.6005 0.0
C39 C 0.56358 0.54379 0.4184 0.0
O40 O 0.49665 0.473 0.47945 0.0
O41 O 0.38767 0.43821 0.43713 0.0
H42 H 0.15751 0.00589 0.49137 0.0
H43 H 0.04193 0.06214 0.37937 0.0
H44 H 0.1435 0.89721 0.3799 0.0
H45 H 0.07925 0.15126 0.4176 0.0
C46 C 0.05825 0.14236 0.44298 0.0
C47 C 0.13877 -0.0017 0.45889 0.0
C48 C 0.15535 0.94662 0.43807 0.0
C49 C 0.09738 0.03998 0.43795 0.0
C50 C 0.07351 0.02999 0.39569 0.0
C51 C 0.09047 0.97892 0.37425 0.0
C52 C 0.13063 0.93716 0.39588 0.0
N53 N 0.07715 0.09031 0.45981 0.0
H54 H 0.04882 0.00493 0.52116 0.0
H55 H 0.17248 0.08619 0.63985 0.0
H56 H 0.98409 0.96043 0.62481 0.0
H57 H 0.17396 0.16314 0.60517 0.0
C58 C 0.1932 0.14213 0.58007 0.0
C59 C 0.05768 0.01025 0.55341 0.0
C60 C 1.00994 0.97789 0.57016 0.0
C61 C 0.11499 0.05093 0.57827 0.0
C62 C 0.12686 0.05652 0.62021 0.0
C63 C 0.07941 0.02463 0.63719 0.0
C64 C 1.02055 0.98584 0.6119 0.0
N65 N 0.15997 0.08606 0.56087 0.0
H66 H 0.6516 0.4931 0.99163 0.0
H67 H 0.54806 0.56099 0.88227 0.0
H68 H 0.64467 0.39425 0.8776 0.0
H69 H 0.58788 0.64706 0.9248 0.0
C70 C 0.56279 0.63603 0.94838 0.0
C71 C 0.6357 0.48865 0.95916 0.0
C72 C 0.65288 0.43853 0.93689 0.0
C73 C 0.59756 0.53285 0.93966 0.0
C74 C 0.57718 0.52686 0.89743 0.0
C75 C 0.59434 0.47726 0.87458 0.0
C76 C 0.63154 0.43304 0.89472 0.0
N77 N 0.57693 0.58171 0.96277 0.0
H78 H 0.53772 0.49161 0.01886 0.0
H79 H 0.66117 0.57802 0.13607 0.0
H80 H 0.47644 0.45026 0.12418 0.0
H81 H 0.65569 0.65395 0.0988 0.0
C82 C 0.67724 0.63218 0.07473 0.0
C83 C 0.5471 0.49802 0.05115 0.0
C84 C 0.50058 0.46603 0.0688 0.0
C85 C 0.60369 0.53991 0.07518 0.0
C86 C 0.61622 0.54711 0.11717 0.0
C87 C 0.57023 0.51545 0.13506 0.0
C88 C 0.51198 0.47538 0.1106 0.0
N89 N 0.64726 0.57482 0.05695 0.0
H90 H 0.26868 0.12707 0.98158 0.0
H91 H 0.17655 0.21695 0.07306 0.0
H92 H 0.31876 0.22002 0.96895 0.0
H93 H 0.22785 0.30913 0.06199 0.0
H94 H 0.34526 0.46975 0.05472 0.0
H95 H 0.24941 0.38761 0.03015 0.0
H96 H 0.42833 0.2779 0.00826 0.0
H97 H 0.52225 0.3611 0.03067 0.0
C98 C 0.25573 0.16706 0.99748 0.0
C99 C 0.21847 0.16525 0.02807 0.0
C100 C 0.28565 0.22029 0.99086 0.0
C101 C 0.2795 0.27234 0.01517 0.0
C102 C 0.23385 0.27053 0.04239 0.0
C103 C 0.20387 0.2175 0.04878 0.0
C104 C 0.36298 0.42842 0.04313 0.0
C105 C 0.44079 0.42135 0.04465 0.0
C106 C 0.30839 0.38116 0.0294 0.0
C107 C 0.33098 0.32542 0.01801 0.0
C108 C 0.40804 0.31991 0.01638 0.0
C109 C 0.4623 0.36753 0.02942 0.0
H110 H 0.19555 0.87078 0.95346 0.0
H111 H 0.32959 0.87885 0.07671 0.0
H112 H 0.27162 0.79206 0.93374 0.0
H113 H 0.40509 0.80078 0.05708 0.0
H114 H 0.49501 0.63086 0.01045 0.0
H115 H 0.40094 0.69563 0.02878 0.0
H116 H 0.41074 0.79256 0.93198 0.0
H117 H 0.5045 0.72809 0.91381 0.0
C118 C 0.24008 0.855 0.9764 0.0
C119 C 0.25711 0.88137 0.01654 0.0
C120 C 0.28396 0.8103 0.96511 0.0
C121 C 0.34474 0.79063 0.99385 0.0
C122 C 0.35848 0.81471 0.03429 0.0
C123 C 0.31547 0.85974 0.04546 0.0
C124 C 0.47684 0.66595 0.99311 0.0
C125 C 0.50703 0.67473 0.96076 0.0
C126 C 0.42305 0.70295 1.00356 0.0
C127 C 0.39792 0.74883 0.98155 0.0
C128 C 0.42787 0.75702 0.94904 0.0
C129 C 0.48213 0.72055 0.93892 0.0
H130 H 0.87593 0.81041 0.92443 0.0
H131 H 0.99486 0.89865 0.04187 0.0
H132 H 0.82989 0.73293 0.95448 0.0
H133 H 0.95077 0.81986 0.07249 0.0
H134 H 0.73508 0.74185 0.10286 0.0
H135 H 0.82385 0.80019 0.0792 0.0
H136 H 0.84016 0.654 0.9923 0.0
H137 H 0.749 0.59602 0.01556 0.0
C138 C 0.89476 0.81216 0.95678 0.0
C139 C 0.9377 0.86136 0.98088 0.0
C140 C 0.86856 0.76738 0.97408 0.0
C141 C 0.88487 0.77069 0.01601 0.0
C142 C 0.93545 0.81669 0.04005 0.0
C143 C 0.96171 0.86168 0.02256 0.0
C144 C 0.75816 0.7221 0.07888 0.0
C145 C 0.7345 0.66481 0.06071 0.0
C146 C 0.80999 0.75527 0.06566 0.0
C147 C 0.83976 0.73187 0.03392 0.0
C148 C 0.81795 0.6736 0.0166 0.0
C149 C 0.76566 0.64037 0.02984 0.0
H150 H 1.0058 0.20444 1.00212 0.0
H151 H 0.80093 0.10741 0.00697 0.0
H152 H 0.93548 0.29318 0.99897 0.0
H153 H 0.73156 0.19585 0.00537 0.0
H154 H 0.61246 0.32281 0.92062 0.0
H155 H 0.68646 0.24411 0.94702 0.0
H156 H 0.86018 0.36902 0.02561 0.0
H157 H 0.78569 0.44841 0.99828 0.0
C158 C 0.94677 0.20267 0.00425 0.0
C159 C 0.90825 0.14917 0.00416 0.0
C160 C 0.90639 0.25342 1.00242 0.0
C161 C 0.82729 0.25122 1.00088 0.0
C162 C 0.79178 0.19869 0.00539 0.0
C163 C 0.83161 0.14814 0.00662 0.0
C164 C 0.66603 0.33348 0.94383 0.0
C165 C 0.69369 0.39158 0.95713 0.0
C166 C 0.7082 0.28841 0.95934 0.0
C167 C 0.77932 0.30022 0.98858 0.0
C168 C 0.80583 0.35853 1.003 0.0
C169 C 0.76303 0.40388 0.9876 0.0
H170 H 0.78063 0.63934 0.48083 0.0
H171 H 0.68467 0.72813 0.57115 0.0
H172 H 0.83002 0.73262 0.46848 0.0
H173 H 0.73567 0.82069 0.56053 0.0
H174 H 0.85443 0.98173 0.55534 0.0
H175 H 0.7587 0.89967 0.52984 0.0
H176 H 0.9383 0.79075 0.50781 0.0
H177 H 1.03198 0.87392 0.53104 0.0
C178 C 0.76672 0.67915 0.49653 0.0
C179 C 0.72853 0.67692 0.52671 0.0
C180 C 0.7963 0.73261 0.4901 0.0
C181 C 0.78914 0.7845 0.51429 0.0
C182 C 0.74254 0.78225 0.54104 0.0
C183 C 0.7127 0.72898 0.54716 0.0
C184 C 0.87231 0.94063 0.54348 0.0
C185 C 0.95024 0.93375 0.54521 0.0
C186 C 0.81778 0.89338 0.52925 0.0
C187 C 0.84057 0.83781 0.51759 0.0
C188 C 0.91778 0.83259 0.51612 0.0
C189 C 0.97195 0.88022 0.52963 0.0
H190 H 0.8393 0.3912 0.57483 0.0
H191 H 0.69573 0.38028 0.45325 0.0
H192 H 0.91192 0.31204 0.55412 0.0
H193 H 0.76872 0.3002 0.43247 0.0
H194 H 0.99508 0.23187 0.40687 0.0
H195 H 0.90406 0.29771 0.42645 0.0
H196 H 0.90679 0.2072 0.52781 0.0
H197 H 0.99839 0.14129 0.50818 0.0
C198 C 0.82246 0.37124 0.54373 0.0
C199 C 0.76226 0.39243 0.51556 0.0
C200 C 0.86384 0.32554 0.53195 0.0
C201 C 0.84651 0.30018 0.49163 0.0
C202 C 0.78391 0.31942 0.46371 0.0
C203 C 0.74177 0.3649 0.47563 0.0
C204 C 0.97604 0.22604 0.43329 0.0
C205 C 1.00388 0.18177 0.45607 0.0
C206 C 0.9233 0.26328 0.44424 0.0
C207 C 0.89772 0.25737 0.47847 0.0
C208 C 0.92557 0.21286 0.50131 0.0
C209 C 0.97796 0.17518 0.4901 0.0
H210 H 0.37987 0.32532 0.42811 0.0
H211 H 0.50503 0.41142 0.54511 0.0
H212 H 0.33703 0.2467 0.45823 0.0
H213 H 0.4644 0.33127 0.57582 0.0
H214 H 0.25462 0.25055 0.60991 0.0
H215 H 0.34103 0.30992 0.58548 0.0
H216 H 0.3489 0.16686 0.49447 0.0
H217 H 0.25962 0.10807 0.51839 0.0
C218 C 0.40077 0.32631 0.46033 0.0
C219 C 0.44458 0.37518 0.48437 0.0
C220 C 0.37643 0.28086 0.47769 0.0
C221 C 0.39553 0.28309 0.51963 0.0
C222 C 0.4469 0.32887 0.54342 0.0
C223 C 0.47124 0.3746 0.52588 0.0
C224 C 0.27534 0.2317 0.58485 0.0
C225 C 0.24968 0.17514 0.56571 0.0
C226 C 0.32588 0.26546 0.57115 0.0
C227 C 0.35246 0.24334 0.53799 0.0
C228 C 0.32902 0.1856 0.51981 0.0
C229 C 0.27786 0.15185 0.53346 0.0
H230 H 0.31685 0.62456 0.51865 0.0
H231 H 0.514 0.71819 0.50169 0.0
H232 H 0.24725 0.71292 0.51691 0.0
H233 H 0.44325 0.80669 0.49834 0.0
H234 H 0.29311 0.96156 0.49613 0.0
H235 H 0.37156 0.88511 0.52527 0.0
H236 H 0.19353 0.75531 0.45665 0.0
H237 H 0.11586 0.83114 0.42839 0.0
C238 C 0.34601 0.66465 0.51573 0.0
C239 C 0.42026 0.66462 0.50985 0.0
C240 C 0.306 0.71513 0.51439 0.0
C241 C 0.33883 0.7664 0.50631 0.0
C242 C 0.41625 0.7679 0.50458 0.0
C243 C 0.4569 0.71729 0.50654 0.0
C244 C 0.27048 0.91665 0.48808 0.0
C245 C 0.19882 0.90203 0.4598 0.0
C246 C 0.31547 0.87298 0.50452 0.0
C247 C 0.28887 0.81411 0.49337 0.0
C248 C 0.21549 0.80015 0.46647 0.0
C249 C 0.17115 0.84352 0.44989 0.0
H250 H 0.07505 0.90291 0.12002 0.0
H251 H 1.0335 0.08341 0.1467 0.0
H252 H 0.05422 0.88445 0.18439 0.0
H253 H 1.01161 0.06522 0.21067 0.0
H254 H 0.95984 0.01038 0.32172 0.0
H255 H 0.93552 0.00866 0.24917 0.0
H256 H 0.14779 0.92543 0.25247 0.0
H257 H 0.17429 0.92944 0.3248 0.0
C258 C 0.05775 0.93789 0.13886 0.0
C259 C 0.0549 0.99436 0.12855 0.0
C260 C 0.04661 0.92754 0.17576 0.0
C261 C 1.03193 0.97352 0.20261 0.0
C262 C 1.02209 0.02887 0.19044 0.0
C263 C 1.03437 0.03932 0.15385 0.0
C264 C 1.00142 0.99168 0.30704 0.0
C265 C 0.06966 0.97074 0.32944 0.0
C266 C 0.98694 0.9902 0.26544 0.0
C267 C 1.03956 0.96672 0.24521 0.0
C268 C 0.10547 0.94287 0.26715 0.0
C269 C 0.12061 0.94518 0.30874 0.0
H270 H 1.02604 0.12008 0.87556 0.0
H271 H 0.16983 0.97472 0.88637 0.0
H272 H 0.04396 0.12724 0.8092 0.0
H273 H 0.18698 0.98096 0.81928 0.0
H274 H 0.21376 0.02589 0.69678 0.0
H275 H 0.22947 0.03892 0.76962 0.0
H276 H 0.98411 0.05459 0.74903 0.0
H277 H 0.96871 0.04214 0.67686 0.0
C278 C 0.06409 0.09119 0.86425 0.0
C279 C 0.09685 0.04704 0.88583 0.0
C280 C 0.07362 0.0948 0.82616 0.0
C281 C 0.11534 0.0538 0.80874 0.0
C282 C 0.15458 0.01317 0.83201 0.0
C283 C 0.14524 0.00975 0.87043 0.0
C284 C 0.16347 0.03263 0.70802 0.0
C285 C 0.08994 0.03288 0.68125 0.0
C286 C 0.17246 0.03984 0.74957 0.0
C287 C 0.10822 0.04842 0.765 0.0
C288 C 1.03496 0.04914 0.73811 0.0
C289 C 1.02591 0.04129 0.69675 0.0
H290 H 0.55688 0.5983 0.65267 0.0
H291 H 0.58376 0.41641 0.61999 0.0
H292 H 0.53379 0.57769 0.71597 0.0
H293 H 0.56203 0.39558 0.68372 0.0
H294 H 0.46815 0.51482 0.82224 0.0
H295 H 0.44866 0.51891 0.75055 0.0
H296 H 0.65829 0.43216 0.75361 0.0
H297 H 0.68046 0.43063 0.82534 0.0
C298 C 0.55463 0.55361 0.65846 0.0
C299 C 0.57091 0.50876 0.63155 0.0
C300 C 0.5416 0.54178 0.69461 0.0
C301 C 0.54659 0.48509 0.70475 0.0
C302 C 0.55797 0.43962 0.67656 0.0
C303 C 0.56965 0.45138 0.64005 0.0
C304 C 0.5103 0.49668 0.80775 0.0
C305 C 0.57651 0.47304 0.82995 0.0
C306 C 0.49853 0.49853 0.7666 0.0
C307 C 0.55174 0.47562 0.7466 0.0
C308 C 0.61562 0.44926 0.76818 0.0
C309 C 0.6282 0.44835 0.80938 0.0
H310 H 0.51826 0.62648 0.37158 0.0
H311 H 0.67311 0.48833 0.3892 0.0
H312 H 0.53297 0.62747 0.30401 0.0
H313 H 0.68691 0.48823 0.32085 0.0
H314 H 0.70582 0.52268 0.1945 0.0
H315 H 0.7229 0.54113 0.26736 0.0
H316 H 0.47647 0.54925 0.24726 0.0
H317 H 0.4597 0.53171 0.17503 0.0
C318 C 0.55781 0.59785 0.36139 0.0
C319 C 0.59459 0.55735 0.38531 0.0
C320 C 0.56554 0.59791 0.32262 0.0
C321 C 0.60944 0.5569 0.30685 0.0
C322 C 0.65262 0.52028 0.33225 0.0
C323 C 0.64521 0.52053 0.37139 0.0
C324 C 0.65553 0.52884 0.20582 0.0
C325 C 0.58136 0.5257 0.17916 0.0
C326 C 0.66532 0.53914 0.24741 0.0
C327 C 0.6012 0.54736 0.26296 0.0
C328 C 0.52721 0.54422 0.23618 0.0
C329 C 0.51741 0.53341 0.19482 0.0
loop_
_geom_bond_atom_site_label_1
_geom_bond_atom_site_label_2
_geom_bond_distance
_geom_bond_site_symmetry_2
_ccdc_geom_bond_type
O0 Mn1 2.163 1_554 S
O0 C14 1.243 1_454 S
Mn1 O0 2.163 1_556 S
Mn1 O4 2.160 1_545 S
Mn1 O5 2.221 1_556 S
Mn1 O7 2.163 1_556 S
Mn1 O9 2.160 . S
Mn1 O19 2.221 1_445 S
O2 Mn3 2.087 1_545 S
O2 C14 1.256 . S
Mn3 O2 2.087 1_565 S
Mn3 O10 2.089 1_565 S
Mn3 O19 2.290 . S
Mn3 O20 2.251 . S
O4 Mn1 2.160 1_565 S
O4 C15 1.239 1_556 S
O5 Mn1 2.221 1_554 S
O5 Mn6 2.290 . S
O5 C16 1.278 . S
Mn6 O5 2.290 . S
Mn6 O8 2.089 1_545 S
Mn6 O11 2.251 . S
Mn6 O12 2.087 . S
O7 Mn1 2.163 1_554 S
O7 C17 1.244 . S
O8 Mn6 2.089 1_565 S
O8 C15 1.256 . S
O9 Mn1 2.160 . S
O9 C18 1.239 . S
O10 Mn3 2.089 1_545 S
O10 C18 1.256 1_655 S
O11 Mn6 2.251 . S
O11 C16 1.241 . S
O12 Mn6 2.087 . S
O12 C17 1.256 . S
C13 O19 1.278 . S
C13 O20 1.241 . S
C14 O0 1.243 1_656 S
C14 O2 1.256 . S
C15 O4 1.239 1_554 S
C15 O8 1.256 . S
C16 O5 1.278 . S
C16 O11 1.241 . S
C17 O7 1.244 . S
C17 O12 1.256 . S
C18 O9 1.239 . S
C18 O10 1.256 1_455 S
O19 Mn1 2.221 1_665 S
O19 Mn3 2.290 . S
O19 C13 1.278 . S
O20 Mn3 2.251 . S
O20 C13 1.241 . S
O21 Mn22 2.163 . S
O21 C35 1.244 . S
Mn22 O21 2.163 . S
Mn22 O25 2.160 . S
Mn22 O26 2.221 . S
Mn22 O28 2.163 . S
Mn22 O30 2.160 . S
Mn22 O40 2.221 . S
O23 Mn24 2.087 . S
O23 C35 1.256 . S
Mn24 O23 2.087 . S
Mn24 O31 2.089 . S
Mn24 O40 2.290 . S
Mn24 O41 2.251 . S
O25 Mn22 2.160 . S
O25 C36 1.239 . S
O26 Mn22 2.221 . S
O26 Mn27 2.290 . S
O26 C37 1.278 . S
Mn27 O26 2.290 . S
Mn27 O29 2.089 . S
Mn27 O32 2.251 . S
Mn27 O33 2.087 . S
O28 Mn22 2.163 . S
O28 C38 1.244 . S
O29 Mn27 2.089 . S
O29 C36 1.256 . S
O30 Mn22 2.160 . S
O30 C39 1.239 . S
O31 Mn24 2.089 . S
O31 C39 1.256 . S
O32 Mn27 2.251 . S
O32 C37 1.241 . S
O33 Mn27 2.087 . S
O33 C38 1.256 . S
C34 O40 1.278 . S
C34 O41 1.241 . S
C35 O21 1.244 . S
C35 O23 1.256 . S
C36 O25 1.239 . S
C36 O29 1.256 . S
C37 O26 1.278 . S
C37 O32 1.241 . S
C38 O28 1.244 . S
C38 O33 1.256 . S
C39 O30 1.239 . S
C39 O31 1.256 . S
O40 Mn22 2.221 . S
O40 Mn24 2.290 . S
O40 C34 1.278 . S
O41 Mn24 2.251 . S
O41 C34 1.241 . S
H42 C47 0.930 . S
H43 C50 0.930 . S
H44 C52 0.930 . S
H45 C46 1.016 . S
C46 H45 1.016 . S
C46 N53 1.286 . S
C47 H42 0.930 . S
C47 C48 1.397 . S
C47 C49 1.361 1_565 S
C48 C47 1.397 . S
C48 C52 1.390 . S
C49 C47 1.361 1_545 S
C49 C50 1.393 . S
C49 N53 1.413 1_455 S
C50 H43 0.930 . S
C50 C49 1.393 . S
C50 C51 1.399 1_545 S
C51 C50 1.399 1_565 S
C51 C52 1.381 . S
C52 H44 0.930 . S
C52 C48 1.390 . S
C52 C51 1.381 . S
N53 C46 1.286 . S
N53 C49 1.413 1_655 S
H54 C59 0.930 . S
H55 C62 0.930 . S
H56 C64 0.930 1_565 S
H57 C58 1.016 . S
C58 H57 1.016 . S
C58 N65 1.286 . S
C59 H54 0.930 . S
C59 C60 1.397 1_545 S
C59 C61 1.361 1_655 S
C60 C59 1.397 1_565 S
C60 C64 1.390 1_565 S
C61 C59 1.361 1_455 S
C61 C62 1.393 . S
C61 N65 1.413 . S
C62 H55 0.930 . S
C62 C61 1.393 . S
C62 C63 1.399 1_455 S
C63 C62 1.399 1_655 S
C63 C64 1.381 . S
C64 H56 0.930 1_545 S
C64 C60 1.390 1_545 S
C64 C63 1.381 . S
N65 C58 1.286 . S
N65 C61 1.413 . S
H66 C71 0.930 . S
H67 C74 0.930 . S
H68 C76 0.930 . S
H69 C70 1.016 . S
C70 H69 1.016 . S
C70 N77 1.286 . S
C71 H66 0.930 . S
C71 C72 1.397 . S
C71 C73 1.361 . S
C72 C71 1.397 . S
C72 C76 1.390 . S
C73 C71 1.361 . S
C73 C74 1.393 . S
C73 N77 1.413 . S
C74 H67 0.930 . S
C74 C73 1.393 . S
C74 C75 1.399 . S
C75 C74 1.399 . S
C75 C76 1.381 . S
C76 H68 0.930 . S
C76 C72 1.390 . S
C76 C75 1.381 . S
N77 C70 1.286 . S
N77 C73 1.413 . S
H78 C83 0.930 . S
H79 C86 0.930 . S
H80 C88 0.930 . S
H81 C82 1.016 . S
C82 H81 1.016 . S
C82 N89 1.286 . S
C83 H78 0.930 . S
C83 C84 1.397 . S
C83 C85 1.361 . S
C84 C83 1.397 . S
C84 C88 1.390 . S
C85 C83 1.361 . S
C85 C86 1.393 . S
C85 N89 1.413 . S
C86 H79 0.930 . S
C86 C85 1.393 . S
C86 C87 1.399 . S
C87 C86 1.399 . S
C87 C88 1.381 . S
C88 H80 0.930 . S
C88 C84 1.390 . S
C88 C87 1.381 . S
N89 C82 1.286 . S
N89 C85 1.413 . S
H90 C98 0.950 . S
H91 C103 0.950 . S
H92 C100 0.950 1_556 S
H93 C102 0.950 . S
H94 C104 0.950 . S
H95 C106 0.950 . S
H96 C108 0.963 . S
H97 C109 0.950 . S
C98 H90 0.950 . S
C98 C99 1.386 1_556 S
C98 C100 1.391 1_556 S
C99 C98 1.386 1_554 S
C99 C103 1.393 . S
C100 H92 0.950 1_554 S
C100 C98 1.391 1_554 S
C100 C101 1.400 . S
C101 C100 1.400 . S
C101 C102 1.398 . S
C101 C107 1.491 . S
C102 H93 0.950 . S
C102 C101 1.398 . S
C102 C103 1.391 . S
C103 H91 0.950 . S
C103 C99 1.393 . S
C103 C102 1.391 . S
C104 H94 0.950 . S
C104 C105 1.386 . S
C104 C106 1.391 . S
C105 C104 1.386 . S
C105 C109 1.393 . S
C106 H95 0.950 . S
C106 C104 1.391 . S
C106 C107 1.400 . S
C107 C101 1.491 . S
C107 C106 1.400 . S
C107 C108 1.398 . S
C108 H96 0.963 . S
C108 C107 1.398 . S
C108 C109 1.391 . S
C109 H97 0.950 . S
C109 C105 1.393 . S
C109 C108 1.391 . S
H110 C118 0.950 . S
H111 C123 0.950 . S
H112 C120 0.950 . S
H113 C122 0.950 . S
H114 C124 0.950 . S
H115 C126 0.950 . S
H116 C128 0.950 . S
H117 C129 0.950 . S
C118 H110 0.950 . S
C118 C119 1.386 1_556 S
C118 C120 1.391 . S
C119 C118 1.386 1_554 S
C119 C123 1.393 . S
C120 H112 0.950 . S
C120 C118 1.391 . S
C120 C121 1.400 . S
C121 C120 1.400 . S
C121 C122 1.398 1_556 S
C121 C127 1.491 . S
C122 H113 0.950 . S
C122 C121 1.398 1_554 S
C122 C123 1.391 . S
C123 H111 0.950 . S
C123 C119 1.393 . S
C123 C122 1.391 . S
C124 H114 0.950 . S
C124 C125 1.386 1_554 S
C124 C126 1.391 . S
C125 C124 1.386 1_556 S
C125 C129 1.393 . S
C126 H115 0.950 . S
C126 C124 1.391 . S
C126 C127 1.400 1_554 S
C127 C121 1.491 . S
C127 C126 1.400 1_556 S
C127 C128 1.398 . S
C128 H116 0.950 . S
C128 C127 1.398 . S
C128 C129 1.391 . S
C129 H117 0.950 . S
C129 C125 1.393 . S
C129 C128 1.391 . S
H130 C138 0.950 1_556 S
H131 C143 0.950 . S
H132 C140 0.950 . S
H133 C142 0.950 . S
H134 C144 0.950 . S
H135 C146 0.950 . S
H136 C148 0.950 . S
H137 C149 0.950 . S
C138 H130 0.950 1_554 S
C138 C139 1.386 . S
C138 C140 1.391 . S
C139 C138 1.386 . S
C139 C143 1.393 . S
C140 H132 0.950 . S
C140 C138 1.391 . S
C140 C141 1.400 . S
C141 C140 1.400 . S
C141 C142 1.398 . S
C141 C147 1.491 . S
C142 H133 0.950 . S
C142 C141 1.398 . S
C142 C143 1.391 . S
C143 H131 0.950 . S
C143 C139 1.393 . S
C143 C142 1.391 . S
C144 H134 0.950 . S
C144 C145 1.386 . S
C144 C146 1.391 . S
C145 C144 1.386 . S
C145 C149 1.393 . S
C146 H135 0.950 . S
C146 C144 1.391 . S
C146 C147 1.400 . S
C147 C141 1.491 . S
C147 C146 1.400 . S
C147 C148 1.398 . S
C148 H136 0.950 . S
C148 C147 1.398 . S
C148 C149 1.391 . S
C149 H137 0.950 . S
C149 C145 1.393 . S
C149 C148 1.391 . S
H150 C158 0.950 . S
H151 C163 0.963 . S
H152 C160 0.950 . S
H153 C162 0.950 1_554 S
H154 C164 0.950 . S
H155 C166 0.950 . S
H156 C168 0.950 . S
H157 C169 0.950 . S
C158 H150 0.950 . S
C158 C159 1.386 . S
C158 C160 1.391 . S
C159 C158 1.386 . S
C159 C163 1.383 1_556 S
C160 H152 0.950 . S
C160 C158 1.391 . S
C160 C161 1.400 . S
C161 C160 1.400 . S
C161 C162 1.398 . S
C161 C167 1.491 . S
C162 H153 0.950 1_556 S
C162 C161 1.398 . S
C162 C163 1.388 1_556 S
C163 H151 0.963 . S
C163 C159 1.383 1_554 S
C163 C162 1.388 1_554 S
C164 H154 0.950 . S
C164 C165 1.386 . S
C164 C166 1.391 . S
C165 C164 1.386 . S
C165 C169 1.393 . S
C166 H155 0.950 . S
C166 C164 1.391 . S
C166 C167 1.400 . S
C167 C161 1.491 . S
C167 C166 1.400 . S
C167 C168 1.398 . S
C168 H156 0.950 . S
C168 C167 1.398 . S
C168 C169 1.391 . S
C169 H157 0.950 . S
C169 C165 1.393 . S
C169 C168 1.391 . S
H170 C178 0.950 . S
H171 C183 0.950 . S
H172 C180 0.950 . S
H173 C182 0.950 . S
H174 C184 0.950 . S
H175 C186 0.950 . S
H176 C188 0.950 . S
H177 C189 0.950 . S
C178 H170 0.950 . S
C178 C179 1.386 . S
C178 C180 1.391 . S
C179 C178 1.386 . S
C179 C183 1.393 . S
C180 H172 0.950 . S
C180 C178 1.391 . S
C180 C181 1.400 . S
C181 C180 1.400 . S
C181 C182 1.398 . S
C181 C187 1.491 . S
C182 H173 0.950 . S
C182 C181 1.398 . S
C182 C183 1.391 . S
C183 H171 0.950 . S
C183 C179 1.393 . S
C183 C182 1.391 . S
C184 H174 0.950 . S
C184 C185 1.386 . S
C184 C186 1.391 . S
C185 C184 1.386 . S
C185 C189 1.393 . S
C186 H175 0.950 . S
C186 C184 1.391 . S
C186 C187 1.400 . S
C187 C181 1.491 . S
C187 C186 1.400 . S
C187 C188 1.398 . S
C188 H176 0.950 . S
C188 C187 1.398 . S
C188 C189 1.391 . S
C189 H177 0.950 . S
C189 C185 1.393 . S
C189 C188 1.391 . S
H190 C198 0.950 . S
H191 C203 0.950 . S
H192 C200 0.950 . S
H193 C202 0.950 . S
H194 C204 0.950 . S
H195 C206 0.950 . S
H196 C208 0.950 . S
H197 C209 0.950 . S
C198 H190 0.950 . S
C198 C199 1.386 . S
C198 C200 1.391 . S
C199 C198 1.386 . S
C199 C203 1.393 . S
C200 H192 0.950 . S
C200 C198 1.391 . S
C200 C201 1.400 . S
C201 C200 1.400 . S
C201 C202 1.398 . S
C201 C207 1.491 . S
C202 H193 0.950 . S
C202 C201 1.398 . S
C202 C203 1.391 . S
C203 H191 0.950 . S
C203 C199 1.393 . S
C203 C202 1.391 . S
C204 H194 0.950 . S
C204 C205 1.386 . S
C204 C206 1.391 . S
C205 C204 1.386 . S
C205 C209 1.393 . S
C206 H195 0.950 . S
C206 C204 1.391 . S
C206 C207 1.400 . S
C207 C201 1.491 . S
C207 C206 1.400 . S
C207 C208 1.398 . S
C208 H196 0.950 . S
C208 C207 1.398 . S
C208 C209 1.391 . S
C209 H197 0.950 . S
C209 C205 1.393 . S
C209 C208 1.391 . S
H210 C218 0.950 . S
H211 C223 0.950 . S
H212 C220 0.950 . S
H213 C222 0.950 . S
H214 C224 0.950 . S
H215 C226 0.950 . S
H216 C228 0.950 . S
H217 C229 0.950 . S
C218 H210 0.950 . S
C218 C219 1.386 . S
C218 C220 1.391 . S
C219 C218 1.386 . S
C219 C223 1.393 . S
C220 H212 0.950 . S
C220 C218 1.391 . S
C220 C221 1.400 . S
C221 C220 1.400 . S
C221 C222 1.398 . S
C221 C227 1.491 . S
C222 H213 0.950 . S
C222 C221 1.398 . S
C222 C223 1.391 . S
C223 H211 0.950 . S
C223 C219 1.393 . S
C223 C222 1.391 . S
C224 H214 0.950 . S
C224 C225 1.386 . S
C224 C226 1.391 . S
C225 C224 1.386 . S
C225 C229 1.393 . S
C226 H215 0.950 . S
C226 C224 1.391 . S
C226 C227 1.400 . S
C227 C221 1.491 . S
C227 C226 1.400 . S
C227 C228 1.398 . S
C228 H216 0.950 . S
C228 C227 1.398 . S
C228 C229 1.391 . S
C229 H217 0.950 . S
C229 C225 1.393 . S
C229 C228 1.391 . S
H230 C238 0.950 . S
H231 C243 0.950 . S
H232 C240 0.950 . S
H233 C242 0.950 . S
H234 C244 0.950 . S
H235 C246 0.950 . S
H236 C248 0.950 . S
H237 C249 0.950 . S
C238 H230 0.950 . S
C238 C239 1.386 . S
C238 C240 1.391 . S
C239 C238 1.386 . S
C239 C243 1.393 . S
C240 H232 0.950 . S
C240 C238 1.391 . S
C240 C241 1.400 . S
C241 C240 1.400 . S
C241 C242 1.398 . S
C241 C247 1.491 . S
C242 H233 0.950 . S
C242 C241 1.398 . S
C242 C243 1.391 . S
C243 H231 0.950 . S
C243 C239 1.393 . S
C243 C242 1.391 . S
C244 H234 0.950 . S
C244 C245 1.386 . S
C244 C246 1.391 . S
C245 C244 1.386 . S
C245 C249 1.393 . S
C246 H235 0.950 . S
C246 C244 1.391 . S
C246 C247 1.400 . S
C247 C241 1.491 . S
C247 C246 1.400 . S
C247 C248 1.398 . S
C248 H236 0.950 . S
C248 C247 1.398 . S
C248 C249 1.391 . S
C249 H237 0.950 . S
C249 C245 1.393 . S
C249 C248 1.391 . S
H250 C258 0.950 . S
H251 C263 0.950 1_655 S
H252 C260 0.950 . S
H253 C262 0.950 1_655 S
H254 C264 0.950 1_655 S
H255 C266 0.950 1_655 S
H256 C268 0.950 . S
H257 C269 0.950 . S
C258 H250 0.950 . S
C258 C259 1.386 1_565 S
C258 C260 1.391 . S
C259 C258 1.386 1_545 S
C259 C263 1.393 . S
C260 H252 0.950 . S
C260 C258 1.391 . S
C260 C261 1.400 . S
C261 C260 1.400 . S
C261 C262 1.398 1_565 S
C261 C267 1.491 . S
C262 H253 0.950 1_455 S
C262 C261 1.398 1_545 S
C262 C263 1.391 . S
C263 H251 0.950 1_455 S
C263 C259 1.393 . S
C263 C262 1.391 . S
C264 H254 0.950 1_455 S
C264 C265 1.386 1_545 S
C264 C266 1.391 . S
C265 C264 1.386 1_565 S
C265 C269 1.393 . S
C266 H255 0.950 1_455 S
C266 C264 1.391 . S
C266 C267 1.400 1_545 S
C267 C261 1.491 . S
C267 C266 1.400 1_565 S
C267 C268 1.398 . S
C268 H256 0.950 . S
C268 C267 1.398 . S
C268 C269 1.391 . S
C269 H257 0.950 . S
C269 C265 1.393 . S
C269 C268 1.391 . S
H270 C278 0.950 . S
H271 C283 0.950 . S
H272 C280 0.950 . S
H273 C282 0.950 . S
H274 C284 0.950 . S
H275 C286 0.950 . S
H276 C288 0.950 . S
H277 C289 0.950 . S
C278 H270 0.950 . S
C278 C279 1.386 1_655 S
C278 C280 1.391 . S
C279 C278 1.386 1_455 S
C279 C283 1.393 . S
C280 H272 0.950 . S
C280 C278 1.391 . S
C280 C281 1.400 1_655 S
C281 C280 1.400 1_455 S
C281 C282 1.398 . S
C281 C287 1.491 . S
C282 H273 0.950 . S
C282 C281 1.398 . S
C282 C283 1.391 . S
C283 H271 0.950 . S
C283 C279 1.393 . S
C283 C282 1.391 . S
C284 H274 0.950 . S
C284 C285 1.386 1_455 S
C284 C286 1.391 . S
C285 C284 1.386 1_655 S
C285 C289 1.393 . S
C286 H275 0.950 . S
C286 C284 1.391 . S
C286 C287 1.400 . S
C287 C281 1.491 . S
C287 C286 1.400 . S
C287 C288 1.398 1_455 S
C288 H276 0.950 . S
C288 C287 1.398 1_655 S
C288 C289 1.391 . S
C289 H277 0.950 . S
C289 C285 1.393 . S
C289 C288 1.391 . S
H290 C298 0.950 . S
H291 C303 0.950 . S
H292 C300 0.950 . S
H293 C302 0.950 . S
H294 C304 0.950 . S
H295 C306 0.950 . S
H296 C308 0.950 . S
H297 C309 0.950 . S
C298 H290 0.950 . S
C298 C299 1.386 . S
C298 C300 1.391 . S
C299 C298 1.386 . S
C299 C303 1.393 . S
C300 H292 0.950 . S
C300 C298 1.391 . S
C300 C301 1.400 . S
C301 C300 1.400 . S
C301 C302 1.398 . S
C301 C307 1.491 . S
C302 H293 0.950 . S
C302 C301 1.398 . S
C302 C303 1.391 . S
C303 H291 0.950 . S
C303 C299 1.393 . S
C303 C302 1.391 . S
C304 H294 0.950 . S
C304 C305 1.386 . S
C304 C306 1.391 . S
C305 C304 1.386 . S
C305 C309 1.393 . S
C306 H295 0.950 . S
C306 C304 1.391 . S
C306 C307 1.400 . S
C307 C301 1.491 . S
C307 C306 1.400 . S
C307 C308 1.398 . S
C308 H296 0.950 . S
C308 C307 1.398 . S
C308 C309 1.391 . S
C309 H297 0.950 . S
C309 C305 1.393 . S
C309 C308 1.391 . S
H310 C318 0.950 . S
H311 C323 0.950 . S
H312 C320 0.950 . S
H313 C322 0.950 . S
H314 C324 0.950 . S
H315 C326 0.950 . S
H316 C328 0.950 . S
H317 C329 0.950 . S
C318 H310 0.950 . S
C318 C319 1.386 . S
C318 C320 1.391 . S
C319 C318 1.386 . S
C319 C323 1.393 . S
C320 H312 0.950 . S
C320 C318 1.391 . S
C320 C321 1.400 . S
C321 C320 1.400 . S
C321 C322 1.398 . S
C321 C327 1.491 . S
C322 H313 0.950 . S
C322 C321 1.398 . S
C322 C323 1.391 . S
C323 H311 0.950 . S
C323 C319 1.393 . S
C323 C322 1.391 . S
C324 H314 0.950 . S
C324 C325 1.386 . S
C324 C326 1.391 . S
C325 C324 1.386 . S
C325 C329 1.393 . S
C326 H315 0.950 . S
C326 C324 1.391 . S
C326 C327 1.400 . S
C327 C321 1.491 . S
C327 C326 1.400 . S
C327 C328 1.398 . S
C328 H316 0.950 . S
C328 C327 1.398 . S
C328 C329 1.391 . S
C329 H317 0.950 . S
C329 C325 1.393 . S
C329 C328 1.391 . S
C105 C84 1.443 . S
C99 C16 1.342 . S
C119 C15 1.418 . S
C125 C70 1.408 . S
C139 C13 1.287 1_554 S
C145 C82 1.429 . S
C159 C14 1.412 . S
C165 C72 1.460 . S
C179 C37 1.337 . S
C185 C60 1.446 . S
C199 C36 1.436 . S
C205 C46 1.401 . S
C225 C58 1.427 . S
C219 C34 1.277 . S
C245 C48 1.447 . S
C239 C35 1.434 . S
C259 C17 1.573 . S
C265 C51 1.618 . S
C279 C18 1.398 . S
C285 C63 1.413 . S
C305 C75 1.618 . S
C299 C38 1.585 . S
C319 C39 1.398 . S
C325 C87 1.413 . S
