# Generated by pormake.
# Topology rtl, (3,6)-cn, num edge types: 1
# Building blocks:
#     Node 0, Type 0, BuildingBlock: ESEHIV_clean_linker_0, # of connection points: 3
#     Node 1, Type 0, BuildingBlock: ESEHIV_clean_linker_0, # of connection points: 3
#     Node 2, Type 0, BuildingBlock: ESEHIV_clean_linker_0, # of connection points: 3
#     Node 3, Type 0, BuildingBlock: ESEHIV_clean_linker_0, # of connection points: 3
#     Node 4, Type 1, BuildingBlock: KUMJIN_clean_sbu_1, # of connection points: 6
#     Node 5, Type 1, BuildingBlock: KUMJIN_clean_sbu_1, # of connection points: 6
#     Edge 6, Type (0, 1), BuildingBlock: AJUNOK_clean_linker_0, # of connection points: 2
#     Edge 7, Type (0, 1), BuildingBlock: AJUNOK_clean_linker_0, # of connection points: 2
#     Edge 8, Type (0, 1), BuildingBlock: AJUNOK_clean_linker_0, # of connection points: 2
#     Edge 9, Type (0, 1), BuildingBlock: AJUNOK_clean_linker_0, # of connection points: 2
#     Edge 10, Type (0, 1), BuildingBlock: AJUNOK_clean_linker_0, # of connection points: 2
#     Edge 11, Type (0, 1), BuildingBlock: AJUNOK_clean_linker_0, # of connection points: 2
#     Edge 12, Type (0, 1), BuildingBlock: AJUNOK_clean_linker_0, # of connection points: 2
#     Edge 13, Type (0, 1), BuildingBlock: AJUNOK_clean_linker_0, # of connection points: 2
#     Edge 14, Type (0, 1), BuildingBlock: AJUNOK_clean_linker_0, # of connection points: 2
#     Edge 15, Type (0, 1), BuildingBlock: AJUNOK_clean_linker_0, # of connection points: 2
#     Edge 16, Type (0, 1), BuildingBlock: AJUNOK_clean_linker_0, # of connection points: 2
#     Edge 17, Type (0, 1), BuildingBlock: AJUNOK_clean_linker_0, # of connection points: 2
# Relax obj value: 0.019
# Max RMSD: 0.146
# Mean RMSD: 0.087
data_MOF--net-rtl--node1-KUMJIN_clean_sbu_1--node2-ESEHIV_clean_linker_0--edge1-AJUNOK_clean_linker_0
_symmetry_space_group_name_H-M    P1
_symmetry_Int_Tables_number       1
_symmetry_cell_setting            triclinic
loop_
_symmetry_equiv_pos_as_xyz
'x, y, z'
_cell_length_a     22.147336
_cell_length_b     23.240061
_cell_length_c     21.101575
_cell_angle_alpha  72.566954
_cell_angle_beta   99.079866
_cell_angle_gamma 92.864228
loop_
_atom_site_label
_atom_site_type_symbol
_atom_site_fract_x
_atom_site_fract_y
_atom_site_fract_z
_atom_type_partial_charge
H0 H 0.12083 0.88003 0.0272 0.0
H1 H 0.23726 0.73234 0.14307 0.0
H2 H 0.23445 0.80133 0.92881 0.0
C3 C 0.1549 0.84711 0.03 0.0
C4 C 0.17185 0.84103 0.97096 0.0
C5 C 0.18214 0.81008 0.0926 0.0
C6 C 0.22303 0.76504 0.09499 0.0
C7 C 0.24561 0.76279 0.0371 0.0
C8 C 0.21904 0.80144 0.97496 0.0
H9 H 0.65177 0.59197 0.69236 0.0
H10 H 0.76319 0.72778 0.57801 0.0
H11 H 0.71791 0.74277 0.76352 0.0
C12 C 0.67747 0.63374 0.68596 0.0
C13 C 0.68136 0.66449 0.73482 0.0
C14 C 0.70588 0.65734 0.62846 0.0
C15 C 0.73912 0.71118 0.62095 0.0
C16 C 0.7434 0.74296 0.66854 0.0
C17 C 0.71444 0.71917 0.72588 0.0
H18 H 0.89899 0.11871 0.13123 0.0
H19 H 0.78383 0.19273 0.23207 0.0
H20 H 0.76705 0.25487 0.01638 0.0
C21 C 0.86296 0.14953 0.12877 0.0
C22 C 0.83269 0.18434 0.06629 0.0
C23 C 0.84667 0.15494 0.18833 0.0
C24 C 0.79846 0.19269 0.18549 0.0
C25 C 0.76994 0.23008 0.12393 0.0
C26 C 0.78767 0.22558 0.06453 0.0
H27 H 0.38488 0.40846 0.43455 0.0
H28 H 0.25746 0.29731 0.55294 0.0
H29 H 0.28694 0.26863 0.36765 0.0
C30 C 0.35049 0.3733 0.44197 0.0
C31 C 0.33552 0.34362 0.39261 0.0
C32 C 0.32236 0.35774 0.50003 0.0
C33 C 0.28097 0.30904 0.50948 0.0
C34 C 0.2691 0.27506 0.4636 0.0
C35 C 0.29615 0.29327 0.40433 0.0
Eu36 Eu 0.04654 0.93828 0.54617 0.0
C37 C 0.92326 0.18635 0.50219 0.0
N38 N 0.97843 0.16693 0.53926 0.0
C39 C 0.02416 0.26193 0.48915 0.0
C40 C 0.91677 0.24463 0.45612 0.0
C41 C 0.02837 0.20382 0.53432 0.0
C42 C 0.96817 0.28239 0.44972 0.0
C43 C 0.8158 0.16608 0.47151 0.0
C44 C 0.8735 0.14708 0.50942 0.0
C45 C 0.80927 0.22401 0.42527 0.0
C46 C 0.85959 0.26313 0.41758 0.0
Eu47 Eu 0.98227 0.0675 0.61187 0.0
N48 N 0.8814 0.09073 0.5539 0.0
C49 C 0.76608 0.12663 0.48191 0.0
C50 C 0.83208 0.05401 0.56749 0.0
C51 C 0.77411 0.07075 0.53084 0.0
H52 H 0.07138 0.18852 0.56567 0.0
H53 H 0.73544 0.04086 0.54111 0.0
H54 H 0.96441 0.81474 0.60354 0.0
H55 H 0.293 0.97871 0.6031 0.0
H56 H 0.83629 0.01249 0.60772 0.0
H57 H 0.72101 0.13956 0.45383 0.0
H58 H 0.18993 1.0004 0.54017 0.0
H59 H 0.06405 0.29092 0.48489 0.0
H60 H 0.76529 0.23913 0.39562 0.0
H61 H 0.85381 0.30773 0.38189 0.0
H62 H 0.97898 0.71376 0.6869 0.0
H63 H 0.96507 0.32742 0.41468 0.0
H64 H 0.31392 0.88321 0.69431 0.0
N65 N 0.05704 0.8409 0.62304 0.0
C66 C 0.11379 0.82509 0.65796 0.0
C67 C 0.01722 0.74466 0.6793 0.0
C68 C 0.12415 0.7681 0.70604 0.0
C69 C 0.00902 0.80178 0.6324 0.0
C70 C 0.07498 0.72777 0.71639 0.0
N71 N 0.14956 0.92183 0.60021 0.0
C72 C 0.19674 0.96038 0.58233 0.0
C73 C 0.22037 0.85166 0.68264 0.0
C74 C 0.16112 0.86691 0.64678 0.0
C75 C 0.26779 0.89326 0.66797 0.0
C76 C 0.25608 0.94738 0.61683 0.0
H77 H 0.0811 0.6836 0.75296 0.0
H78 H 0.19157 0.71007 0.78021 0.0
H79 H 0.27587 0.78293 0.75936 0.0
O80 O 0.08649 0.9428 0.45631 0.0
O81 O 0.04803 0.91988 0.65846 0.0
O82 O 0.06676 0.01421 0.66756 0.0
O83 O 0.02341 0.87127 0.4925 0.0
O84 O 0.08617 0.03374 0.51139 0.0
O85 O 0.08275 0.07022 0.60114 0.0
O86 O 0.94065 0.05966 0.70145 0.0
O87 O 0.97628 0.08477 0.49892 0.0
O88 O 0.96111 0.98964 0.49082 0.0
O89 O 1.0036 0.13243 0.66864 0.0
O90 O 0.93851 0.97346 0.64359 0.0
O91 O 0.94591 0.93314 0.55693 0.0
C92 C 0.06577 0.95591 0.69519 0.0
C93 C 0.09951 0.85005 0.43632 0.0
C94 C 0.14424 0.81418 0.35684 0.0
C95 C 0.17516 0.76904 0.41085 0.0
C96 C 0.13095 0.80494 0.48965 0.0
C97 C 0.16843 0.76452 0.47683 0.0
C98 C 0.10591 0.8543 0.36991 0.0
C99 C 0.10307 0.07297 0.54495 0.0
C100 C 0.06037 0.89329 0.44902 0.0
C101 C 0.18278 0.7535 0.74275 0.0
C102 C 0.23074 0.79513 0.73106 0.0
C103 C 0.95956 0.04787 0.46294 0.0
C104 C 0.92486 0.15098 0.72319 0.0
C105 C 0.87782 0.18522 0.80233 0.0
C106 C 0.84528 0.22895 0.74816 0.0
C107 C 0.89229 0.19513 0.66975 0.0
C108 C 0.91767 0.14625 0.78946 0.0
C109 C 0.85272 0.23392 0.68228 0.0
C110 C 0.92193 0.93418 0.60994 0.0
C111 C 0.96566 0.10898 0.71068 0.0
H112 H 0.20444 0.7372 0.40191 0.0
H113 H 0.12648 0.80082 0.54103 0.0
H114 H 0.19246 0.7297 0.51813 0.0
H115 H 0.08204 0.88941 0.32861 0.0
H116 H 0.81441 0.25955 0.75689 0.0
H117 H 0.89735 0.19966 0.6185 0.0
H118 H 0.94228 0.11173 0.83081 0.0
H119 H 0.8277 0.26786 0.64083 0.0
Eu120 Eu 0.45345 0.46756 0.0103 0.0
C121 C 0.68098 0.61935 0.04923 0.0
N122 N 0.67167 0.56279 0.08897 0.0
C123 C 0.77091 0.53293 0.07896 0.0
C124 C 0.73502 0.63426 0.02025 0.0
C125 C 0.71619 0.52019 0.10571 0.0
C126 C 0.78006 0.59001 0.03525 0.0
C127 C 0.64509 0.72193 0.99802 0.0
C128 C 0.63638 0.66236 0.03812 0.0
C129 C 0.69772 0.73651 0.96685 0.0
C130 C 0.74261 0.69275 0.97797 0.0
Eu131 Eu 0.57626 0.54244 0.12796 0.0
N132 N 0.58591 0.6467 0.06895 0.0
C133 C 0.6015 0.76549 0.99195 0.0
C134 C 0.54609 0.69023 0.06733 0.0
C135 C 0.55243 0.74978 0.02789 0.0
H136 H 0.70914 0.47629 0.13907 0.0
H137 H 0.51984 0.78368 0.02599 0.0
H138 H 0.32886 0.55535 0.94074 0.0
H139 H 0.45074 0.22716 0.14699 0.0
H140 H 0.51011 0.67991 0.09735 0.0
H141 H 0.60652 0.81175 0.96174 0.0
H142 H 0.49094 0.32051 0.07351 0.0
H143 H 0.80574 0.4986 0.09167 0.0
H144 H 0.70478 0.78184 0.93528 0.0
H145 H 0.78347 0.70489 0.95459 0.0
H146 H 0.22505 0.56486 0.96616 0.0
H147 H 0.82225 0.59967 0.0141 0.0
H148 H 0.3521 0.22916 0.18752 0.0
N149 N 0.35001 0.47618 0.02189 0.0
C150 C 0.32662 0.42843 0.06617 0.0
C151 C 0.25362 0.52689 0.99587 0.0
C152 C 0.26688 0.43018 0.08077 0.0
C153 C 0.31289 0.52242 0.9827 0.0
C154 C 0.23113 0.48134 0.04662 0.0
N155 N 0.41651 0.37444 0.07426 0.0
C156 C 0.44777 0.3215 0.09083 0.0
C157 C 0.33577 0.32367 0.13422 0.0
C158 C 0.36036 0.37561 0.09217 0.0
C159 C 0.36941 0.27005 0.15516 0.0
C160 C 0.42513 0.26873 0.13236 0.0
H161 H 0.18498 0.48449 0.05629 0.0
H162 H 0.19834 0.3807 0.13893 0.0
H163 H 0.2589 0.28751 0.18613 0.0
O164 O 0.48494 0.45182 0.92316 0.0
O165 O 0.47491 0.42596 0.12365 0.0
O166 O 0.486 0.50729 0.16308 0.0
O167 O 0.39037 0.43871 0.93549 0.0
O168 O 0.54719 0.4234 0.04142 0.0
O169 O 0.59386 0.44406 0.1396 0.0
O170 O 0.61019 0.59023 0.20213 0.0
O171 O 0.59407 0.53309 0.02845 0.0
O172 O 0.50092 0.55595 0.96482 0.0
O173 O 0.61558 0.49287 0.22994 0.0
O174 O 0.47909 0.57756 0.10491 0.0
O175 O 0.43242 0.56489 1.0034 0.0
C176 C 0.46363 0.45339 0.16626 0.0
C177 C 0.41045 0.47793 0.82561 0.0
C178 C 0.37519 0.48173 0.70833 0.0
C179 C 0.35299 0.54042 0.69689 0.0
C180 C 0.39094 0.53747 0.81174 0.0
C181 C 0.36232 0.56843 0.74767 0.0
C182 C 0.40425 0.45089 0.77364 0.0
C183 C 0.58809 0.4121 0.0966 0.0
C184 C 0.43017 0.44198 0.89557 0.0
C185 C 0.24372 0.3798 0.12617 0.0
C186 C 0.2781 0.32663 0.15283 0.0
C187 C 0.56075 0.55881 0.97056 0.0
C188 C 0.67872 0.5409 0.30117 0.0
C189 C 0.71901 0.55623 0.40974 0.0
C190 C 0.7754 0.53261 0.40684 0.0
C191 C 0.7352 0.51733 0.29917 0.0
C192 C 0.67102 0.56064 0.35618 0.0
C193 C 0.78334 0.51345 0.35182 0.0
C194 C 0.43666 0.59131 0.0514 0.0
C195 C 0.62531 0.54071 0.25009 0.0
H196 H 0.3267 0.56453 0.64943 0.0
H197 H 0.39566 0.55907 0.8512 0.0
H198 H 0.34542 0.61365 0.73787 0.0
H199 H 0.4208 0.40531 0.78488 0.0
H200 H 0.81359 0.52977 0.44664 0.0
H201 H 0.74176 0.5013 0.25755 0.0
H202 H 0.62706 0.57814 0.35809 0.0
H203 H 0.82692 0.49527 0.35013 0.0
C204 C 0.2367 0.18097 0.54642 0.0
C205 C 0.22928 0.22023 0.48016 0.0
C206 C 0.19659 0.13261 0.5664 0.0
C207 C 0.14821 0.12041 0.52063 0.0
H208 H 0.27332 0.18836 0.58377 0.0
H209 H 0.20318 0.1048 0.61833 0.0
S210 S 0.1077 0.20833 0.3417 0.0
N211 N 0.1685 0.2433 0.369 0.0
N212 N 0.09484 0.15051 0.40622 0.0
C213 C 0.1412 0.15757 0.45377 0.0
C214 C 0.18135 0.20783 0.43357 0.0
C215 C 0.30124 0.69868 0.98669 0.0
C216 C 0.29634 0.72056 0.04133 0.0
C217 C 0.34836 0.65972 0.9892 0.0
C218 C 0.38975 0.63633 0.04823 0.0
H219 H 0.2685 0.71119 0.94112 0.0
H220 H 0.35199 0.64793 0.94418 0.0
S221 S 0.40187 0.68279 0.20406 0.0
N222 N 0.345 0.72293 0.15275 0.0
N223 N 0.42426 0.63982 0.16276 0.0
C224 C 0.38565 0.65756 0.10352 0.0
C225 C 0.34111 0.7015 0.09892 0.0
C226 C 0.829 0.8058 0.70778 0.0
C227 C 0.78109 0.79918 0.65784 0.0
C228 C 0.87293 0.85203 0.69325 0.0
C229 C 0.87065 0.89244 0.6282 0.0
H230 H 0.83463 0.77305 0.75714 0.0
H231 H 0.91082 0.85394 0.73193 0.0
S232 S 0.74964 0.90071 0.48302 0.0
N233 N 0.72976 0.84265 0.54346 0.0
N234 N 0.81368 0.92713 0.51581 0.0
C235 C 0.8212 0.88856 0.57923 0.0
C236 C 0.77598 0.84265 0.59421 0.0
C237 C 0.67202 0.28537 0.06912 0.0
C238 C 0.72218 0.27413 0.1212 0.0
C239 C 0.62831 0.32891 0.06263 0.0
C240 C 0.63157 0.3619 0.10917 0.0
H241 H 0.66653 0.26076 0.03237 0.0
H242 H 0.59208 0.33704 0.02005 0.0
S243 S 0.75017 0.34578 0.25905 0.0
N244 N 0.77217 0.29989 0.22079 0.0
N245 N 0.68514 0.37494 0.21411 0.0
C246 C 0.67906 0.3482 0.16428 0.0
C247 C 0.72551 0.3061 0.16894 0.0
C248 C 0.11219 0.81682 0.17337 0.0
C249 C 0.17144 0.81883 0.15673 0.0
C250 C 0.10326 0.81737 0.23775 0.0
C251 C 0.15335 0.81973 0.2872 0.0
H252 H 0.07285 0.81239 0.13746 0.0
H253 H 0.05716 0.81364 0.24975 0.0
S254 S 0.31667 0.83464 0.26509 0.0
N255 N 0.28017 0.83012 0.19222 0.0
N256 N 0.26336 0.83043 0.31288 0.0
C257 C 0.21237 0.82497 0.2698 0.0
C258 C 0.2214 0.82476 0.2046 0.0
C259 C 0.59778 0.66332 0.8035 0.0
C260 C 0.65177 0.63826 0.79584 0.0
C261 C 0.56774 0.63682 0.85949 0.0
C262 C 0.59133 0.58502 0.91028 0.0
H263 H 0.57825 0.70317 0.76551 0.0
H264 H 0.52632 0.65751 0.86356 0.0
S265 S 0.73101 0.50189 0.91285 0.0
N266 N 0.72698 0.55854 0.84285 0.0
N267 N 0.67154 0.50926 0.94815 0.0
C268 C 0.64547 0.55988 0.90304 0.0
C269 C 0.6754 0.58634 0.8458 0.0
C270 C 0.91133 0.16093 0.29311 0.0
C271 C 0.88156 0.12503 0.25464 0.0
C272 C 0.93777 0.13526 0.35976 0.0
C273 C 0.93454 0.07278 0.39089 0.0
H274 H 0.91301 0.20951 0.2718 0.0
H275 H 0.96019 0.16496 0.3871 0.0
S276 S 0.86326 0.95917 0.30979 0.0
N277 N 0.85203 0.0243 0.25032 0.0
N278 N 0.9011 0.97522 0.37638 0.0
C279 C 0.90641 0.0361 0.35197 0.0
C280 C 0.87999 0.06247 0.28363 0.0
C281 C 0.33917 0.35951 0.62042 0.0
C282 C 0.33681 0.391 0.55166 0.0
C283 C 0.35154 0.38903 0.67006 0.0
C284 C 0.36441 0.45131 0.65394 0.0
H285 H 0.33147 0.31129 0.63659 0.0
H286 H 0.34997 0.36244 0.72156 0.0
S287 S 0.3671 0.55503 0.48153 0.0
N288 N 0.34663 0.48927 0.47001 0.0
N289 N 0.37808 0.54288 0.5636 0.0
C290 C 0.36434 0.48319 0.58546 0.0
C291 C 0.34885 0.45359 0.53449 0.0
C292 C 0.68396 0.66073 0.50746 0.0
C293 C 0.70209 0.62713 0.57495 0.0
C294 C 0.68787 0.63673 0.45469 0.0
C295 C 0.71076 0.57837 0.46719 0.0
H296 H 0.668 0.70664 0.49529 0.0
H297 H 0.67489 0.66493 0.40355 0.0
S298 S 0.76038 0.47034 0.63506 0.0
N299 N 0.74086 0.53143 0.65159 0.0
N300 N 0.74813 0.48605 0.55237 0.0
C301 C 0.72708 0.54347 0.53454 0.0
C302 C 0.72258 0.56783 0.5884 0.0
C303 C 0.79842 0.17393 0.95182 0.0
C304 C 0.84685 0.17871 1.00194 0.0
C305 C 0.80911 0.17473 0.88799 0.0
C306 C 0.86869 0.17988 0.8719 0.0
H307 H 0.75162 0.17053 0.96172 0.0
H308 H 0.77034 0.17191 0.85065 0.0
S309 S 0.01149 0.19318 0.98489 0.0
N310 N 0.95678 0.18839 0.03119 0.0
N311 N 0.97695 0.18897 0.91106 0.0
C312 C 0.9178 0.18288 0.92193 0.0
C313 C 0.90687 0.18245 0.98704 0.0
C314 C 0.40317 0.33497 0.31038 0.0
C315 C 0.3608 0.368 0.32857 0.0
C316 C 0.43525 0.36229 0.2563 0.0
C317 C 0.42602 0.4234 0.21911 0.0
H318 H 0.41352 0.28875 0.33989 0.0
H319 H 0.46904 0.33612 0.24509 0.0
S320 S 0.31295 0.526 0.23996 0.0
N321 N 0.30652 0.46269 0.30053 0.0
N322 N 0.36628 0.51348 0.19916 0.0
C323 C 0.38126 0.45553 0.23449 0.0
C324 C 0.3487 0.42791 0.28909 0.0
C325 C 0.10821 0.83934 0.86398 0.0
C326 C 0.13934 0.87322 0.90402 0.0
C327 C 0.08284 0.86698 0.79737 0.0
C328 C 0.08893 0.92943 0.7676 0.0
H329 H 0.10432 0.79081 0.88413 0.0
H330 H 0.05897 0.83878 0.76893 0.0
S331 S 0.16377 0.03841 0.85336 0.0
N332 N 0.17241 0.9723 0.91152 0.0
N333 N 0.12584 0.02492 0.78531 0.0
C334 C 0.11828 0.96419 0.8081 0.0
C335 C 0.14338 0.93587 0.87654 0.0
loop_
_geom_bond_atom_site_label_1
_geom_bond_atom_site_label_2
_geom_bond_distance
_geom_bond_site_symmetry_2
_ccdc_geom_bond_type
H0 C3 0.931 1_556 S
H1 C6 0.928 . S
H2 C8 0.930 . S
C3 H0 0.931 1_554 S
C3 C4 1.413 1_554 S
C3 C5 1.360 . S
C4 C3 1.413 1_556 S
C4 C8 1.429 . S
C5 C3 1.360 . S
C5 C6 1.372 . S
C6 H1 0.928 . S
C6 C5 1.372 . S
C6 C7 1.404 . S
C7 C6 1.404 . S
C7 C8 1.391 1_554 S
C8 H2 0.930 . S
C8 C4 1.429 . S
C8 C7 1.391 1_556 S
H9 C12 0.931 . S
H10 C15 0.928 . S
H11 C17 0.930 . S
C12 H9 0.931 . S
C12 C13 1.413 . S
C12 C14 1.360 . S
C13 C12 1.413 . S
C13 C17 1.429 . S
C14 C12 1.360 . S
C14 C15 1.372 . S
C15 H10 0.928 . S
C15 C14 1.372 . S
C15 C16 1.404 . S
C16 C15 1.404 . S
C16 C17 1.391 . S
C17 H11 0.930 . S
C17 C13 1.429 . S
C17 C16 1.391 . S
H18 C21 0.931 . S
H19 C24 0.928 . S
H20 C26 0.930 . S
C21 H18 0.931 . S
C21 C22 1.413 . S
C21 C23 1.360 . S
C22 C21 1.413 . S
C22 C26 1.429 . S
C23 C21 1.360 . S
C23 C24 1.372 . S
C24 H19 0.928 . S
C24 C23 1.372 . S
C24 C25 1.404 . S
C25 C24 1.404 . S
C25 C26 1.391 . S
C26 H20 0.930 . S
C26 C22 1.429 . S
C26 C25 1.391 . S
H27 C30 0.931 . S
H28 C33 0.928 . S
H29 C35 0.930 . S
C30 H27 0.931 . S
C30 C31 1.413 . S
C30 C32 1.360 . S
C31 C30 1.413 . S
C31 C35 1.429 . S
C32 C30 1.360 . S
C32 C33 1.372 . S
C33 H28 0.928 . S
C33 C32 1.372 . S
C33 C34 1.404 . S
C34 C33 1.404 . S
C34 C35 1.391 . S
C35 H29 0.930 . S
C35 C31 1.429 . S
C35 C34 1.391 . S
Eu36 N65 2.600 . S
Eu36 N71 2.562 . S
Eu36 O80 2.462 . S
Eu36 O81 2.373 . S
Eu36 O83 2.432 . S
Eu36 O84 2.291 1_565 S
Eu36 O88 2.335 1_465 S
Eu36 O91 2.372 1_455 S
Eu36 C100 2.787 . S
C37 N38 1.365 . S
C37 C40 1.405 . S
C37 C44 1.448 . S
N38 C37 1.365 . S
N38 C41 1.319 . S
N38 Eu47 2.600 . S
C39 C41 1.397 . S
C39 C42 1.367 . S
C39 H59 0.931 1_655 S
C40 C37 1.405 . S
C40 C42 1.403 . S
C40 C46 1.439 . S
C41 N38 1.319 . S
C41 C39 1.397 . S
C41 H52 0.930 1_655 S
C42 C39 1.367 . S
C42 C40 1.403 . S
C42 H63 0.929 . S
C43 C44 1.430 . S
C43 C45 1.387 . S
C43 C49 1.404 . S
C44 C37 1.448 . S
C44 C43 1.430 . S
C44 N48 1.351 . S
C45 C43 1.387 . S
C45 C46 1.374 . S
C45 H60 0.931 . S
C46 C40 1.439 . S
C46 C45 1.374 . S
C46 H61 0.931 . S
Eu47 N38 2.600 . S
Eu47 N48 2.562 . S
Eu47 O82 2.335 1_655 S
Eu47 O85 2.372 1_655 S
Eu47 O86 2.462 . S
Eu47 O87 2.373 . S
Eu47 O89 2.432 . S
Eu47 O90 2.291 1_545 S
Eu47 C111 2.787 . S
N48 C44 1.351 . S
N48 Eu47 2.562 . S
N48 C50 1.325 . S
C49 C43 1.404 . S
C49 C51 1.366 . S
C49 H57 0.930 . S
C50 N48 1.325 . S
C50 C51 1.416 . S
C50 H56 0.929 . S
C51 C49 1.366 . S
C51 C50 1.416 . S
C51 H53 0.930 . S
H52 C41 0.930 1_455 S
H53 C51 0.930 . S
H54 C69 0.930 1_655 S
H55 C76 0.930 . S
H56 C50 0.929 . S
H57 C49 0.930 . S
H58 C72 0.929 . S
H59 C39 0.931 1_455 S
H60 C45 0.931 . S
H61 C46 0.931 . S
H62 C67 0.931 1_655 S
H63 C42 0.929 . S
H64 C75 0.930 . S
N65 Eu36 2.600 . S
N65 C66 1.365 . S
N65 C69 1.319 . S
C66 N65 1.365 . S
C66 C68 1.405 . S
C66 C74 1.448 . S
C67 H62 0.931 1_455 S
C67 C69 1.397 . S
C67 C70 1.367 . S
C68 C66 1.405 . S
C68 C70 1.403 . S
C68 C101 1.439 . S
C69 H54 0.930 1_455 S
C69 N65 1.319 . S
C69 C67 1.397 . S
C70 C67 1.367 . S
C70 C68 1.403 . S
C70 H77 0.929 . S
N71 Eu36 2.562 . S
N71 C72 1.325 . S
N71 C74 1.351 . S
C72 H58 0.929 . S
C72 N71 1.325 . S
C72 C76 1.416 . S
C73 C74 1.430 . S
C73 C75 1.404 . S
C73 C102 1.387 . S
C74 C66 1.448 . S
C74 N71 1.351 . S
C74 C73 1.430 . S
C75 H64 0.930 . S
C75 C73 1.404 . S
C75 C76 1.366 . S
C76 H55 0.930 . S
C76 C72 1.416 . S
C76 C75 1.366 . S
H77 C70 0.929 . S
H78 C101 0.931 . S
H79 C102 0.931 . S
O80 Eu36 2.462 . S
O80 C100 1.252 . S
O81 Eu36 2.373 . S
O81 C92 1.249 . S
O82 Eu47 2.335 1_455 S
O82 C92 1.264 1_545 S
O83 Eu36 2.432 . S
O83 C100 1.268 . S
O84 Eu36 2.291 1_545 S
O84 C99 1.255 . S
O85 Eu47 2.372 1_455 S
O85 C99 1.257 . S
O86 Eu47 2.462 . S
O86 C111 1.252 . S
O87 Eu47 2.373 . S
O87 C103 1.249 . S
O88 Eu36 2.335 1_645 S
O88 C103 1.264 . S
O89 Eu47 2.432 . S
O89 C111 1.268 . S
O90 Eu47 2.291 1_565 S
O90 C110 1.255 . S
O91 Eu36 2.372 1_655 S
O91 C110 1.257 . S
C92 O81 1.249 . S
C92 O82 1.264 1_565 S
C93 C96 1.382 . S
C93 C98 1.390 . S
C93 C100 1.506 . S
C94 C95 1.398 . S
C94 C98 1.392 . S
C95 C94 1.398 . S
C95 C97 1.372 . S
C95 H112 0.931 . S
C96 C93 1.382 . S
C96 C97 1.390 . S
C96 H113 0.931 . S
C97 C95 1.372 . S
C97 C96 1.390 . S
C97 H114 0.929 . S
C98 C93 1.390 . S
C98 C94 1.392 . S
C98 H115 0.930 . S
C99 O84 1.255 . S
C99 O85 1.257 . S
C100 Eu36 2.787 . S
C100 O80 1.252 . S
C100 O83 1.268 . S
C100 C93 1.506 . S
C101 C68 1.439 . S
C101 H78 0.931 . S
C101 C102 1.374 . S
C102 C73 1.387 . S
C102 H79 0.931 . S
C102 C101 1.374 . S
C103 O87 1.249 . S
C103 O88 1.264 . S
C104 C107 1.382 . S
C104 C108 1.390 . S
C104 C111 1.506 . S
C105 C106 1.398 . S
C105 C108 1.392 . S
C106 C105 1.398 . S
C106 C109 1.372 . S
C106 H116 0.931 . S
C107 C104 1.382 . S
C107 C109 1.390 . S
C107 H117 0.931 . S
C108 C104 1.390 . S
C108 C105 1.392 . S
C108 H118 0.930 . S
C109 C106 1.372 . S
C109 C107 1.390 . S
C109 H119 0.929 . S
C110 O90 1.255 . S
C110 O91 1.257 . S
C111 Eu47 2.787 . S
C111 O86 1.252 . S
C111 O89 1.268 . S
C111 C104 1.506 . S
H112 C95 0.931 . S
H113 C96 0.931 . S
H114 C97 0.929 . S
H115 C98 0.930 . S
H116 C106 0.931 . S
H117 C107 0.931 . S
H118 C108 0.930 . S
H119 C109 0.929 . S
Eu120 N149 2.600 . S
Eu120 N155 2.562 . S
Eu120 O164 2.462 1_554 S
Eu120 O165 2.373 . S
Eu120 O167 2.432 1_554 S
Eu120 O168 2.291 . S
Eu120 O172 2.335 1_554 S
Eu120 O175 2.372 . S
Eu120 C184 2.787 1_554 S
C121 N122 1.365 . S
C121 C124 1.405 . S
C121 C128 1.448 . S
N122 C121 1.365 . S
N122 C125 1.319 . S
N122 Eu131 2.600 . S
C123 C125 1.397 . S
C123 C126 1.367 . S
C123 H143 0.931 . S
C124 C121 1.405 . S
C124 C126 1.403 . S
C124 C130 1.439 . S
C125 N122 1.319 . S
C125 C123 1.397 . S
C125 H136 0.930 . S
C126 C123 1.367 . S
C126 C124 1.403 . S
C126 H147 0.929 . S
C127 C128 1.430 . S
C127 C129 1.387 . S
C127 C133 1.404 . S
C128 C121 1.448 . S
C128 C127 1.430 . S
C128 N132 1.351 . S
C129 C127 1.387 . S
C129 C130 1.374 . S
C129 H144 0.931 . S
C130 C124 1.439 . S
C130 C129 1.374 . S
C130 H145 0.931 . S
Eu131 N122 2.600 . S
Eu131 N132 2.562 . S
Eu131 O166 2.335 . S
Eu131 O169 2.372 . S
Eu131 O170 2.462 . S
Eu131 O171 2.373 . S
Eu131 O173 2.432 . S
Eu131 O174 2.291 . S
Eu131 C195 2.787 . S
N132 C128 1.351 . S
N132 Eu131 2.562 . S
N132 C134 1.325 . S
C133 C127 1.404 . S
C133 C135 1.366 . S
C133 H141 0.930 . S
C134 N132 1.325 . S
C134 C135 1.416 . S
C134 H140 0.929 . S
C135 C133 1.366 . S
C135 C134 1.416 . S
C135 H137 0.930 . S
H136 C125 0.930 . S
H137 C135 0.930 . S
H138 C153 0.930 . S
H139 C160 0.930 . S
H140 C134 0.929 . S
H141 C133 0.930 . S
H142 C156 0.929 . S
H143 C123 0.931 . S
H144 C129 0.931 . S
H145 C130 0.931 . S
H146 C151 0.931 . S
H147 C126 0.929 . S
H148 C159 0.930 . S
N149 Eu120 2.600 . S
N149 C150 1.365 . S
N149 C153 1.319 1_554 S
C150 N149 1.365 . S
C150 C152 1.405 . S
C150 C158 1.448 . S
C151 H146 0.931 . S
C151 C153 1.397 . S
C151 C154 1.367 1_556 S
C152 C150 1.405 . S
C152 C154 1.403 . S
C152 C185 1.439 . S
C153 H138 0.930 . S
C153 N149 1.319 1_556 S
C153 C151 1.397 . S
C154 C151 1.367 1_554 S
C154 C152 1.403 . S
C154 H161 0.929 . S
N155 Eu120 2.562 . S
N155 C156 1.325 . S
N155 C158 1.351 . S
C156 H142 0.929 . S
C156 N155 1.325 . S
C156 C160 1.416 . S
C157 C158 1.430 . S
C157 C159 1.404 . S
C157 C186 1.387 . S
C158 C150 1.448 . S
C158 N155 1.351 . S
C158 C157 1.430 . S
C159 H148 0.930 . S
C159 C157 1.404 . S
C159 C160 1.366 . S
C160 H139 0.930 . S
C160 C156 1.416 . S
C160 C159 1.366 . S
H161 C154 0.929 . S
H162 C185 0.931 . S
H163 C186 0.931 . S
O164 Eu120 2.462 1_556 S
O164 C184 1.252 . S
O165 Eu120 2.373 . S
O165 C176 1.249 . S
O166 Eu131 2.335 . S
O166 C176 1.264 . S
O167 Eu120 2.432 1_556 S
O167 C184 1.268 . S
O168 Eu120 2.291 . S
O168 C183 1.255 . S
O169 Eu131 2.372 . S
O169 C183 1.257 . S
O170 Eu131 2.462 . S
O170 C195 1.252 . S
O171 Eu131 2.373 . S
O171 C187 1.249 1_554 S
O172 Eu120 2.335 1_556 S
O172 C187 1.264 . S
O173 Eu131 2.432 . S
O173 C195 1.268 . S
O174 Eu131 2.291 . S
O174 C194 1.255 . S
O175 Eu120 2.372 . S
O175 C194 1.257 . S
C176 O165 1.249 . S
C176 O166 1.264 . S
C177 C180 1.382 . S
C177 C182 1.390 . S
C177 C184 1.506 . S
C178 C179 1.398 . S
C178 C182 1.392 . S
C179 C178 1.398 . S
C179 C181 1.372 . S
C179 H196 0.931 . S
C180 C177 1.382 . S
C180 C181 1.390 . S
C180 H197 0.931 . S
C181 C179 1.372 . S
C181 C180 1.390 . S
C181 H198 0.929 . S
C182 C177 1.390 . S
C182 C178 1.392 . S
C182 H199 0.930 . S
C183 O168 1.255 . S
C183 O169 1.257 . S
C184 Eu120 2.787 1_556 S
C184 O164 1.252 . S
C184 O167 1.268 . S
C184 C177 1.506 . S
C185 C152 1.439 . S
C185 H162 0.931 . S
C185 C186 1.374 . S
C186 C157 1.387 . S
C186 H163 0.931 . S
C186 C185 1.374 . S
C187 O171 1.249 1_556 S
C187 O172 1.264 . S
C188 C191 1.382 . S
C188 C192 1.390 . S
C188 C195 1.506 . S
C189 C190 1.398 . S
C189 C192 1.392 . S
C190 C189 1.398 . S
C190 C193 1.372 . S
C190 H200 0.931 . S
C191 C188 1.382 . S
C191 C193 1.390 . S
C191 H201 0.931 . S
C192 C188 1.390 . S
C192 C189 1.392 . S
C192 H202 0.930 . S
C193 C190 1.372 . S
C193 C191 1.390 . S
C193 H203 0.929 . S
C194 O174 1.255 . S
C194 O175 1.257 . S
C195 Eu131 2.787 . S
C195 O170 1.252 . S
C195 O173 1.268 . S
C195 C188 1.506 . S
H196 C179 0.931 . S
H197 C180 0.931 . S
H198 C181 0.929 . S
H199 C182 0.930 . S
H200 C190 0.931 . S
H201 C191 0.931 . S
H202 C192 0.930 . S
H203 C193 0.929 . S
C204 C205 1.369 . S
C204 C206 1.419 . S
C204 H208 0.930 . S
C205 C204 1.369 . S
C205 C214 1.429 . S
C206 C204 1.419 . S
C206 C207 1.363 . S
C206 H209 0.929 . S
C207 C206 1.363 . S
C207 C213 1.428 . S
H208 C204 0.930 . S
H209 C206 0.929 . S
S210 N211 1.613 . S
S210 N212 1.610 . S
N211 S210 1.613 . S
N211 C214 1.350 . S
N212 S210 1.610 . S
N212 C213 1.351 . S
C213 C207 1.428 . S
C213 N212 1.351 . S
C213 C214 1.434 . S
C214 C205 1.429 . S
C214 N211 1.350 . S
C214 C213 1.434 . S
C215 C216 1.369 . S
C215 C217 1.419 . S
C215 H219 0.930 . S
C216 C215 1.369 . S
C216 C225 1.429 . S
C217 C215 1.419 . S
C217 C218 1.363 . S
C217 H220 0.929 . S
C218 C217 1.363 . S
C218 C224 1.428 . S
H219 C215 0.930 . S
H220 C217 0.929 . S
S221 N222 1.613 . S
S221 N223 1.610 . S
N222 S221 1.613 . S
N222 C225 1.350 . S
N223 S221 1.610 . S
N223 C224 1.351 . S
C224 C218 1.428 . S
C224 N223 1.351 . S
C224 C225 1.434 . S
C225 C216 1.429 . S
C225 N222 1.350 . S
C225 C224 1.434 . S
C226 C227 1.369 . S
C226 C228 1.419 . S
C226 H230 0.930 . S
C227 C226 1.369 . S
C227 C236 1.429 . S
C228 C226 1.419 . S
C228 C229 1.363 . S
C228 H231 0.929 . S
C229 C228 1.363 . S
C229 C235 1.428 . S
H230 C226 0.930 . S
H231 C228 0.929 . S
S232 N233 1.613 . S
S232 N234 1.610 . S
N233 S232 1.613 . S
N233 C236 1.350 . S
N234 S232 1.610 . S
N234 C235 1.351 . S
C235 C229 1.428 . S
C235 N234 1.351 . S
C235 C236 1.434 . S
C236 C227 1.429 . S
C236 N233 1.350 . S
C236 C235 1.434 . S
C237 C238 1.369 . S
C237 C239 1.419 . S
C237 H241 0.930 . S
C238 C237 1.369 . S
C238 C247 1.429 . S
C239 C237 1.419 . S
C239 C240 1.363 . S
C239 H242 0.929 . S
C240 C239 1.363 . S
C240 C246 1.428 . S
H241 C237 0.930 . S
H242 C239 0.929 . S
S243 N244 1.613 . S
S243 N245 1.610 . S
N244 S243 1.613 . S
N244 C247 1.350 . S
N245 S243 1.610 . S
N245 C246 1.351 . S
C246 C240 1.428 . S
C246 N245 1.351 . S
C246 C247 1.434 . S
C247 C238 1.429 . S
C247 N244 1.350 . S
C247 C246 1.434 . S
C248 C249 1.369 . S
C248 C250 1.419 . S
C248 H252 0.930 . S
C249 C248 1.369 . S
C249 C258 1.429 . S
C250 C248 1.419 . S
C250 C251 1.363 . S
C250 H253 0.929 . S
C251 C250 1.363 . S
C251 C257 1.428 . S
H252 C248 0.930 . S
H253 C250 0.929 . S
S254 N255 1.613 . S
S254 N256 1.610 . S
N255 S254 1.613 . S
N255 C258 1.350 . S
N256 S254 1.610 . S
N256 C257 1.351 . S
C257 C251 1.428 . S
C257 N256 1.351 . S
C257 C258 1.434 . S
C258 C249 1.429 . S
C258 N255 1.350 . S
C258 C257 1.434 . S
C259 C260 1.369 . S
C259 C261 1.419 . S
C259 H263 0.930 . S
C260 C259 1.369 . S
C260 C269 1.429 . S
C261 C259 1.419 . S
C261 C262 1.363 . S
C261 H264 0.929 . S
C262 C261 1.363 . S
C262 C268 1.428 . S
H263 C259 0.930 . S
H264 C261 0.929 . S
S265 N266 1.613 . S
S265 N267 1.610 . S
N266 S265 1.613 . S
N266 C269 1.350 . S
N267 S265 1.610 . S
N267 C268 1.351 . S
C268 C262 1.428 . S
C268 N267 1.351 . S
C268 C269 1.434 . S
C269 C260 1.429 . S
C269 N266 1.350 . S
C269 C268 1.434 . S
C270 C271 1.369 . S
C270 C272 1.419 . S
C270 H274 0.930 . S
C271 C270 1.369 . S
C271 C280 1.429 . S
C272 C270 1.419 . S
C272 C273 1.363 . S
C272 H275 0.929 . S
C273 C272 1.363 . S
C273 C279 1.428 . S
H274 C270 0.930 . S
H275 C272 0.929 . S
S276 N277 1.613 1_565 S
S276 N278 1.610 . S
N277 S276 1.613 1_545 S
N277 C280 1.350 . S
N278 S276 1.610 . S
N278 C279 1.351 1_565 S
C279 C273 1.428 . S
C279 N278 1.351 1_545 S
C279 C280 1.434 . S
C280 C271 1.429 . S
C280 N277 1.350 . S
C280 C279 1.434 . S
C281 C282 1.369 . S
C281 C283 1.419 . S
C281 H285 0.930 . S
C282 C281 1.369 . S
C282 C291 1.429 . S
C283 C281 1.419 . S
C283 C284 1.363 . S
C283 H286 0.929 . S
C284 C283 1.363 . S
C284 C290 1.428 . S
H285 C281 0.930 . S
H286 C283 0.929 . S
S287 N288 1.613 . S
S287 N289 1.610 . S
N288 S287 1.613 . S
N288 C291 1.350 . S
N289 S287 1.610 . S
N289 C290 1.351 . S
C290 C284 1.428 . S
C290 N289 1.351 . S
C290 C291 1.434 . S
C291 C282 1.429 . S
C291 N288 1.350 . S
C291 C290 1.434 . S
C292 C293 1.369 . S
C292 C294 1.419 . S
C292 H296 0.930 . S
C293 C292 1.369 . S
C293 C302 1.429 . S
C294 C292 1.419 . S
C294 C295 1.363 . S
C294 H297 0.929 . S
C295 C294 1.363 . S
C295 C301 1.428 . S
H296 C292 0.930 . S
H297 C294 0.929 . S
S298 N299 1.613 . S
S298 N300 1.610 . S
N299 S298 1.613 . S
N299 C302 1.350 . S
N300 S298 1.610 . S
N300 C301 1.351 . S
C301 C295 1.428 . S
C301 N300 1.351 . S
C301 C302 1.434 . S
C302 C293 1.429 . S
C302 N299 1.350 . S
C302 C301 1.434 . S
C303 C304 1.369 1_556 S
C303 C305 1.419 . S
C303 H307 0.930 . S
C304 C303 1.369 1_554 S
C304 C313 1.429 . S
C305 C303 1.419 . S
C305 C306 1.363 . S
C305 H308 0.929 . S
C306 C305 1.363 . S
C306 C312 1.428 . S
H307 C303 0.930 . S
H308 C305 0.929 . S
S309 N310 1.613 . S
S309 N311 1.610 1_554 S
N310 S309 1.613 . S
N310 C313 1.350 . S
N311 S309 1.610 1_556 S
N311 C312 1.351 . S
C312 C306 1.428 . S
C312 N311 1.351 . S
C312 C313 1.434 1_556 S
C313 C304 1.429 . S
C313 N310 1.350 . S
C313 C312 1.434 1_554 S
C314 C315 1.369 . S
C314 C316 1.419 . S
C314 H318 0.930 . S
C315 C314 1.369 . S
C315 C324 1.429 . S
C316 C314 1.419 . S
C316 C317 1.363 . S
C316 H319 0.929 . S
C317 C316 1.363 . S
C317 C323 1.428 . S
H318 C314 0.930 . S
H319 C316 0.929 . S
S320 N321 1.613 . S
S320 N322 1.610 . S
N321 S320 1.613 . S
N321 C324 1.350 . S
N322 S320 1.610 . S
N322 C323 1.351 . S
C323 C317 1.428 . S
C323 N322 1.351 . S
C323 C324 1.434 . S
C324 C315 1.429 . S
C324 N321 1.350 . S
C324 C323 1.434 . S
C325 C326 1.369 . S
C325 C327 1.419 . S
C325 H329 0.930 . S
C326 C325 1.369 . S
C326 C335 1.429 . S
C327 C325 1.419 . S
C327 C328 1.363 . S
C327 H330 0.929 . S
C328 C327 1.363 . S
C328 C334 1.428 . S
H329 C325 0.930 . S
H330 C327 0.929 . S
S331 N332 1.613 . S
S331 N333 1.610 . S
N332 S331 1.613 . S
N332 C335 1.350 1_545 S
N333 S331 1.610 . S
N333 C334 1.351 1_545 S
C334 C328 1.428 . S
C334 N333 1.351 1_565 S
C334 C335 1.434 . S
C335 C326 1.429 . S
C335 N332 1.350 1_565 S
C335 C334 1.434 . S
C207 C99 1.559 . S
C205 C34 1.573 . S
C216 C7 1.550 . S
C218 C194 1.541 . S
C227 C16 1.570 . S
C229 C110 1.556 . S
C238 C25 1.544 . S
C240 C183 1.539 . S
C251 C94 1.361 . S
C249 C5 1.523 . S
C262 C187 1.569 . S
C260 C13 1.561 . S
C271 C23 1.548 . S
C273 C103 1.566 . S
C282 C32 1.515 . S
C284 C178 1.366 . S
C295 C189 1.359 . S
C293 C14 1.512 . S
C306 C105 1.352 . S
C304 C22 1.521 . S
C317 C176 1.567 . S
C315 C31 1.559 . S
C326 C4 1.546 . S
C328 C92 1.564 . S
