# Generated by pormake.
# Topology cml, (3,6)-cn, num edge types: 1
# Building blocks:
#     Node 0, Type 0, BuildingBlock: VETTIZ_charged_linker_0, # of connection points: 3
#     Node 1, Type 0, BuildingBlock: VETTIZ_charged_linker_0, # of connection points: 3
#     Node 2, Type 0, BuildingBlock: VETTIZ_charged_linker_0, # of connection points: 3
#     Node 3, Type 0, BuildingBlock: VETTIZ_charged_linker_0, # of connection points: 3
#     Node 4, Type 0, BuildingBlock: VETTIZ_charged_linker_0, # of connection points: 3
#     Node 5, Type 0, BuildingBlock: VETTIZ_charged_linker_0, # of connection points: 3
#     Node 6, Type 0, BuildingBlock: VETTIZ_charged_linker_0, # of connection points: 3
#     Node 7, Type 0, BuildingBlock: VETTIZ_charged_linker_0, # of connection points: 3
#     Node 8, Type 1, BuildingBlock: IZENUY_clean_sbu_0, # of connection points: 6
#     Node 9, Type 1, BuildingBlock: IZENUY_clean_sbu_0, # of connection points: 6
#     Node 10, Type 1, BuildingBlock: IZENUY_clean_sbu_0, # of connection points: 6
#     Node 11, Type 1, BuildingBlock: IZENUY_clean_sbu_0, # of connection points: 6
#     Edge 12, Type (0, 1), BuildingBlock: OJICUG_clean_linker_0, # of connection points: 2
#     Edge 13, Type (0, 1), BuildingBlock: OJICUG_clean_linker_0, # of connection points: 2
#     Edge 14, Type (0, 1), BuildingBlock: OJICUG_clean_linker_0, # of connection points: 2
#     Edge 15, Type (0, 1), BuildingBlock: OJICUG_clean_linker_0, # of connection points: 2
#     Edge 16, Type (0, 1), BuildingBlock: OJICUG_clean_linker_0, # of connection points: 2
#     Edge 17, Type (0, 1), BuildingBlock: OJICUG_clean_linker_0, # of connection points: 2
#     Edge 18, Type (0, 1), BuildingBlock: OJICUG_clean_linker_0, # of connection points: 2
#     Edge 19, Type (0, 1), BuildingBlock: OJICUG_clean_linker_0, # of connection points: 2
#     Edge 20, Type (0, 1), BuildingBlock: OJICUG_clean_linker_0, # of connection points: 2
#     Edge 21, Type (0, 1), BuildingBlock: OJICUG_clean_linker_0, # of connection points: 2
#     Edge 22, Type (0, 1), BuildingBlock: OJICUG_clean_linker_0, # of connection points: 2
#     Edge 23, Type (0, 1), BuildingBlock: OJICUG_clean_linker_0, # of connection points: 2
#     Edge 24, Type (0, 1), BuildingBlock: OJICUG_clean_linker_0, # of connection points: 2
#     Edge 25, Type (0, 1), BuildingBlock: OJICUG_clean_linker_0, # of connection points: 2
#     Edge 26, Type (0, 1), BuildingBlock: OJICUG_clean_linker_0, # of connection points: 2
#     Edge 27, Type (0, 1), BuildingBlock: OJICUG_clean_linker_0, # of connection points: 2
#     Edge 28, Type (0, 1), BuildingBlock: OJICUG_clean_linker_0, # of connection points: 2
#     Edge 29, Type (0, 1), BuildingBlock: OJICUG_clean_linker_0, # of connection points: 2
#     Edge 30, Type (0, 1), BuildingBlock: OJICUG_clean_linker_0, # of connection points: 2
#     Edge 31, Type (0, 1), BuildingBlock: OJICUG_clean_linker_0, # of connection points: 2
#     Edge 32, Type (0, 1), BuildingBlock: OJICUG_clean_linker_0, # of connection points: 2
#     Edge 33, Type (0, 1), BuildingBlock: OJICUG_clean_linker_0, # of connection points: 2
#     Edge 34, Type (0, 1), BuildingBlock: OJICUG_clean_linker_0, # of connection points: 2
#     Edge 35, Type (0, 1), BuildingBlock: OJICUG_clean_linker_0, # of connection points: 2
# Relax obj value: 0.059
# Max RMSD: 0.074
# Mean RMSD: 0.071
data_MOF--net-cml--node1-IZENUY_clean_sbu_0--node2-VETTIZ_charged_linker_0--edge1-OJICUG_clean_linker_0
_symmetry_space_group_name_H-M    P1
_symmetry_Int_Tables_number       1
_symmetry_cell_setting            triclinic
loop_
_symmetry_equiv_pos_as_xyz
'x, y, z'
_cell_length_a     33.269972
_cell_length_b     38.962367
_cell_length_c     36.421639
_cell_angle_alpha  89.997841
_cell_angle_beta   89.916246
_cell_angle_gamma 90.189358
loop_
_atom_site_label
_atom_site_type_symbol
_atom_site_fract_x
_atom_site_fract_y
_atom_site_fract_z
_atom_type_partial_charge
C0 C 0.33367 0.34666 0.12708 0.0
C1 C 0.36091 0.36705 0.14705 0.0
C2 C 0.37292 0.39906 0.13281 0.0
C3 C 0.33142 0.39015 0.07923 0.0
C4 C 0.31896 0.35894 0.09338 0.0
C5 C 0.28833 0.34177 0.06895 0.0
H6 H 0.18929 0.33768 0.9066 0.0
C7 C 0.31148 0.39532 0.04353 0.0
C8 C 0.28599 0.36723 0.03726 0.0
H9 H 0.1745 0.27022 1.00043 0.0
H10 H 0.22381 0.30251 0.0336 0.0
H11 H 0.18516 0.40598 0.95628 0.0
H12 H 0.28605 0.34988 0.9125 0.0
H13 H 0.29443 0.39404 0.90548 0.0
H14 H 0.25203 0.3735 0.88387 0.0
H15 H 0.19752 0.40659 0.90829 0.0
H16 H 0.22074 0.43586 0.94029 0.0
C17 C 0.24802 0.33912 0.09028 0.0
C18 C 0.30552 0.30679 0.05655 0.0
C19 C 0.34926 0.49933 0.96727 0.0
C20 C 0.33961 0.51003 0.93155 0.0
C21 C 0.31186 0.49045 0.91097 0.0
C22 C 0.29456 0.46045 0.92561 0.0
C23 C 0.30525 0.44975 0.96116 0.0
C24 C 0.33206 0.46928 0.98131 0.0
C25 C 0.34143 0.45358 0.0179 0.0
C26 C 0.31553 0.42153 0.01672 0.0
C27 C 0.2943 0.41931 0.98351 0.0
C28 C 0.32743 0.47885 0.04822 0.0
C29 C 0.38697 0.44499 0.01863 0.0
C30 C 0.19617 0.3298 0.93436 0.0
C31 C 0.17801 0.30049 0.95017 0.0
C32 C 0.18863 0.29165 0.98656 0.0
C33 C 0.21706 0.31079 0.00623 0.0
C34 C 0.23485 0.33968 0.98994 0.0
C35 C 0.22378 0.3492 0.95486 0.0
C36 C 0.24357 0.3823 0.94318 0.0
C37 C 0.26846 0.39081 0.97695 0.0
C38 C 0.26381 0.3653 0.00397 0.0
C39 C 0.21025 0.40922 0.93633 0.0
C40 C 0.27032 0.37486 0.90932 0.0
H41 H 0.36905 0.43519 0.08983 0.0
H42 H 0.3236 0.32214 0.13775 0.0
H43 H 0.33708 0.30984 0.0469 0.0
H44 H 0.28884 0.29535 0.03343 0.0
H45 H 0.30548 0.28816 0.07964 0.0
H46 H 0.24619 0.35847 0.11267 0.0
H47 H 0.24423 0.3134 0.10301 0.0
H48 H 0.22172 0.34457 0.07264 0.0
H49 H 0.37119 0.51322 0.98351 0.0
H50 H 0.30386 0.49816 0.88337 0.0
H51 H 0.27402 0.44647 0.90848 0.0
H52 H 0.30032 0.49331 0.03938 0.0
H53 H 0.35125 0.49793 0.05473 0.0
H54 H 0.31806 0.46572 0.07376 0.0
H55 H 0.39795 0.43764 0.99085 0.0
H56 H 0.39416 0.42267 0.03609 0.0
H57 H 0.40503 0.4674 0.02787 0.0
H58 H 0.39406 0.41504 0.14771 0.0
C59 C 0.35844 0.41067 0.0991 0.0
C60 C 0.81102 0.68358 0.43245 0.0
C61 C 0.8286 0.71305 0.44817 0.0
C62 C 0.81701 0.72265 0.48405 0.0
C63 C 0.77095 0.67445 0.48748 0.0
C64 C 0.78253 0.66472 0.45253 0.0
C65 C 0.76137 0.63258 0.44004 0.0
H66 H 0.62446 0.50759 0.47487 0.0
C67 C 0.7407 0.64951 0.50085 0.0
C68 C 0.73506 0.62479 0.47313 0.0
H69 H 0.69801 0.51925 0.37761 0.0
H70 H 0.72876 0.57011 0.40362 0.0
H71 H 0.69366 0.52114 0.53096 0.0
H72 H 0.60293 0.58578 0.48445 0.0
H73 H 0.60648 0.59733 0.5309 0.0
H74 H 0.59239 0.55403 0.51886 0.0
H75 H 0.6428 0.52075 0.54727 0.0
H76 H 0.68011 0.54946 0.56621 0.0
C77 C 0.79338 0.60442 0.43367 0.0
C78 C 0.73612 0.6414 0.40566 0.0
C79 C 0.6764 0.66378 0.62755 0.0
C80 C 0.64822 0.64363 0.64689 0.0
C81 C 0.63213 0.61413 0.62994 0.0
C82 C 0.64405 0.60444 0.59472 0.0
C83 C 0.67253 0.62436 0.57584 0.0
C84 C 0.68835 0.65346 0.59214 0.0
C85 C 0.71892 0.67081 0.56768 0.0
C86 C 0.71848 0.64732 0.5342 0.0
C87 C 0.69109 0.62033 0.53929 0.0
C88 C 0.76006 0.67034 0.58755 0.0
C89 C 0.70326 0.70717 0.55847 0.0
C90 C 0.64765 0.52062 0.45924 0.0
C91 C 0.6589 0.50905 0.42415 0.0
C92 C 0.6885 0.52763 0.40459 0.0
C93 C 0.70646 0.55709 0.41983 0.0
C94 C 0.69476 0.56818 0.45503 0.0
C95 C 0.66591 0.54981 0.47405 0.0
C96 C 0.65714 0.56479 0.51114 0.0
C97 C 0.68538 0.59537 0.5114 0.0
C98 C 0.70728 0.59744 0.47849 0.0
C99 C 0.66865 0.53776 0.54062 0.0
C100 C 0.6124 0.57593 0.51178 0.0
H101 H 0.78091 0.71233 0.53076 0.0
H102 H 0.81888 0.6755 0.40493 0.0
H103 H 0.72183 0.66703 0.40868 0.0
H104 H 0.71098 0.62336 0.40112 0.0
H105 H 0.75521 0.64209 0.38062 0.0
H106 H 0.81799 0.60648 0.45422 0.0
H107 H 0.8071 0.60677 0.40596 0.0
H108 H 0.78129 0.57819 0.4371 0.0
H109 H 0.68928 0.68658 0.63991 0.0
H110 H 0.6098 0.59857 0.64392 0.0
H111 H 0.63048 0.58174 0.58361 0.0
H112 H 0.76344 0.64662 0.60428 0.0
H113 H 0.76324 0.69264 0.60633 0.0
H114 H 0.78579 0.66993 0.56836 0.0
H115 H 0.6703 0.70658 0.55334 0.0
H116 H 0.71658 0.71792 0.5332 0.0
H117 H 0.70885 0.7252 0.58154 0.0
H118 H 0.83055 0.7447 0.49729 0.0
C119 C 0.78832 0.70363 0.50365 0.0
C120 C 0.66803 0.47769 0.93204 0.0
C121 C 0.64329 0.50222 0.94939 0.0
C122 C 0.63911 0.50107 0.98793 0.0
C123 C 0.67745 0.44871 0.99046 0.0
C124 C 0.68518 0.45135 0.9533 0.0
C125 C 0.71278 0.42314 0.94031 0.0
H126 H 0.81915 0.27959 0.98102 0.0
C127 C 0.69609 0.41703 0.00424 0.0
C128 C 0.7177 0.40214 0.97537 0.0
H129 H 0.81778 0.33662 0.87902 0.0
H130 H 0.76945 0.37593 0.90449 0.0
H131 H 0.81743 0.34386 0.0372 0.0
H132 H 0.72184 0.28228 0.99127 0.0
H133 H 0.70902 0.29177 0.03691 0.0
H134 H 0.7533 0.26656 0.02749 0.0
H135 H 0.81103 0.29901 0.04725 0.0
H136 H 0.78392 0.33121 0.0724 0.0
C137 C 0.7529 0.43979 0.92777 0.0
C138 C 0.69097 0.40246 0.91 0.0
C139 C 0.65753 0.37529 0.1309 0.0
C140 C 0.66558 0.34541 0.15111 0.0
C141 C 0.69171 0.3207 0.13593 0.0
C142 C 0.70941 0.3259 0.10117 0.0
C143 C 0.70052 0.35594 0.08125 0.0
C144 C 0.67502 0.37996 0.09645 0.0
C145 C 0.66775 0.40999 0.07166 0.0
C146 C 0.69239 0.39984 0.0384 0.0
C147 C 0.71178 0.36833 0.04407 0.0
C148 C 0.68457 0.44274 0.09061 0.0
C149 C 0.6221 0.41115 0.06312 0.0
C150 C 0.80823 0.3003 0.96396 0.0
C151 C 0.82296 0.30511 0.92801 0.0
C152 C 0.80786 0.33268 0.90703 0.0
C153 C 0.77963 0.35547 0.92181 0.0
C154 C 0.76602 0.35073 0.95796 0.0
C155 C 0.77986 0.32324 0.97827 0.0
C156 C 0.76117 0.32181 0.01594 0.0
C157 C 0.7357 0.35406 0.01557 0.0
C158 C 0.73849 0.37081 0.9814 0.0
C159 C 0.795 0.32388 0.04494 0.0
C160 C 0.73512 0.28885 0.01841 0.0
H161 H 0.65024 0.47469 0.03734 0.0
H162 H 0.67283 0.47826 0.90265 0.0
H163 H 0.65924 0.39732 0.91804 0.0
H164 H 0.70452 0.37706 0.90509 0.0
H165 H 0.69066 0.41689 0.88369 0.0
H166 H 0.75883 0.46422 0.94266 0.0
H167 H 0.75246 0.44577 0.89795 0.0
H168 H 0.77927 0.4236 0.9339 0.0
H169 H 0.63693 0.3945 0.1412 0.0
H170 H 0.69853 0.29746 0.15097 0.0
H171 H 0.72916 0.30631 0.09106 0.0
H172 H 0.70722 0.43647 0.11203 0.0
H173 H 0.66028 0.45758 0.10417 0.0
H174 H 0.70085 0.4597 0.07114 0.0
H175 H 0.61042 0.38493 0.0572 0.0
H176 H 0.6146 0.42653 0.03873 0.0
H177 H 0.60496 0.42148 0.08684 0.0
H178 H 0.62205 0.52047 0.0024 0.0
C179 C 0.65578 0.47449 0.00838 0.0
C180 C 0.19719 0.67483 0.43266 0.0
C181 C 0.18205 0.70554 0.4477 0.0
C182 C 0.19779 0.71732 0.4814 0.0
C183 C 0.24107 0.66764 0.48539 0.0
C184 C 0.2266 0.65637 0.45192 0.0
C185 C 0.24599 0.62321 0.44011 0.0
H186 H 0.37562 0.49399 0.47978 0.0
C187 C 0.27013 0.64214 0.49908 0.0
C188 C 0.2731 0.61584 0.47273 0.0
H189 H 0.31016 0.50898 0.37873 0.0
H190 H 0.27861 0.55982 0.4042 0.0
H191 H 0.40206 0.56932 0.48783 0.0
H192 H 0.30418 0.51224 0.53451 0.0
H193 H 0.31909 0.54098 0.56899 0.0
H194 H 0.35432 0.50944 0.5522 0.0
H195 H 0.40851 0.53849 0.52392 0.0
H196 H 0.3983 0.58299 0.53353 0.0
C197 C 0.27042 0.63017 0.40464 0.0
C198 C 0.21279 0.59564 0.43576 0.0
C199 C 0.33812 0.65919 0.62338 0.0
C200 C 0.36377 0.63798 0.64394 0.0
C201 C 0.37497 0.60579 0.6298 0.0
C202 C 0.36119 0.59477 0.59563 0.0
C203 C 0.33572 0.61608 0.57519 0.0
C204 C 0.32406 0.64747 0.58922 0.0
C205 C 0.29508 0.66555 0.56405 0.0
C206 C 0.29232 0.64015 0.53235 0.0
C207 C 0.31653 0.61151 0.53907 0.0
C208 C 0.31449 0.69993 0.55198 0.0
C209 C 0.25448 0.66937 0.58459 0.0
C210 C 0.35379 0.50768 0.46335 0.0
C211 C 0.34508 0.49725 0.42738 0.0
C212 C 0.31739 0.51654 0.40657 0.0
C213 C 0.29925 0.54608 0.42135 0.0
C214 C 0.30931 0.55667 0.45713 0.0
C215 C 0.33606 0.53733 0.4774 0.0
C216 C 0.34518 0.55291 0.51406 0.0
C217 C 0.31985 0.58509 0.51254 0.0
C218 C 0.29855 0.58721 0.47936 0.0
C219 C 0.39084 0.56125 0.51532 0.0
C220 C 0.3303 0.52768 0.54419 0.0
H221 H 0.2375 0.70895 0.5258 0.0
H222 H 0.18586 0.66498 0.40686 0.0
H223 H 0.19122 0.59689 0.45909 0.0
H224 H 0.22467 0.56924 0.43588 0.0
H225 H 0.19561 0.5996 0.40999 0.0
H226 H 0.28356 0.65647 0.40489 0.0
H227 H 0.25109 0.62799 0.3799 0.0
H228 H 0.29646 0.6129 0.40163 0.0
H229 H 0.3288 0.68393 0.63388 0.0
H230 H 0.395 0.58923 0.64511 0.0
H231 H 0.37118 0.5701 0.58646 0.0
H232 H 0.3472 0.69661 0.5467 0.0
H233 H 0.31111 0.71981 0.57362 0.0
H234 H 0.30209 0.70988 0.52599 0.0
H235 H 0.24938 0.6476 0.60384 0.0
H236 H 0.22829 0.6687 0.566 0.0
H237 H 0.2537 0.69343 0.60094 0.0
H238 H 0.18761 0.74127 0.49325 0.0
C239 C 0.22703 0.69859 0.50026 0.0
C240 C 0.84393 0.84146 0.12094 0.0
C241 C 0.87554 0.85963 0.1378 0.0
C242 C 0.8885 0.89094 0.12238 0.0
C243 C 0.84159 0.88426 0.07232 0.0
C244 C 0.82756 0.85421 0.08805 0.0
C245 C 0.79515 0.83774 0.06502 0.0
H246 H 0.68971 0.83381 0.90582 0.0
C247 C 0.82057 0.88943 0.03713 0.0
C248 C 0.79317 0.8624 0.03257 0.0
H249 H 0.67877 0.76629 0.99978 0.0
H250 H 0.72913 0.79887 0.03178 0.0
H251 H 0.69195 0.90397 0.95501 0.0
H252 H 0.78657 0.84251 0.90775 0.0
H253 H 0.79754 0.8861 0.89983 0.0
H254 H 0.75288 0.86747 0.88012 0.0
H255 H 0.70083 0.90232 0.9064 0.0
H256 H 0.72806 0.93162 0.9356 0.0
C257 C 0.75558 0.83753 0.08755 0.0
C258 C 0.80992 0.80171 0.05334 0.0
C259 C 0.86178 0.98953 0.95666 0.0
C260 C 0.85051 1.00071 0.92149 0.0
C261 C 0.82092 0.98196 0.90221 0.0
C262 C 0.80286 0.9527 0.91792 0.0
C263 C 0.81465 0.94193 0.95321 0.0
C264 C 0.84365 0.96043 0.97183 0.0
C265 C 0.85353 0.9452 0.00852 0.0
C266 C 0.82538 0.91458 0.00928 0.0
C267 C 0.80263 0.91262 0.97688 0.0
C268 C 0.84265 0.9719 0.03852 0.0
C269 C 0.89839 0.93428 0.00791 0.0
C270 C 0.69789 0.82612 0.93337 0.0
C271 C 0.68044 0.79692 0.94987 0.0
C272 C 0.69232 0.78799 0.98583 0.0
C273 C 0.72143 0.80714 0.00462 0.0
C274 C 0.73898 0.83578 0.98754 0.0
C275 C 0.72677 0.8452 0.95272 0.0
C276 C 0.74776 0.87726 0.93958 0.0
C277 C 0.77467 0.8853 0.97215 0.0
C278 C 0.76967 0.86061 1.00002 0.0
C279 C 0.71569 0.90539 0.93351 0.0
C280 C 0.77238 0.86819 0.90484 0.0
H281 H 0.88351 0.92705 0.07953 0.0
H282 H 0.83327 0.81741 0.13233 0.0
H283 H 0.84202 0.80276 0.04479 0.0
H284 H 0.79361 0.79121 0.0295 0.0
H285 H 0.80738 0.78319 0.07642 0.0
H286 H 0.7546 0.85934 0.10725 0.0
H287 H 0.75237 0.81347 0.10366 0.0
H288 H 0.72867 0.84098 0.07016 0.0
H289 H 0.88511 1.00268 0.97195 0.0
H290 H 0.8116 0.99003 0.87509 0.0
H291 H 0.78057 0.93949 0.90194 0.0
H292 H 0.81587 0.98716 0.03039 0.0
H293 H 0.8678 0.99019 0.04319 0.0
H294 H 0.83409 0.95996 0.06494 0.0
H295 H 0.90795 0.92653 0.97982 0.0
H296 H 0.90452 0.9115 0.02503 0.0
H297 H 0.91831 0.95565 0.01675 0.0
H298 H 0.91221 0.90574 0.13532 0.0
C299 C 0.87172 0.90334 0.08994 0.0
C300 C 0.31567 0.17701 0.43332 0.0
C301 C 0.33034 0.20815 0.44782 0.0
C302 C 0.3148 0.21992 0.48162 0.0
C303 C 0.27315 0.16911 0.48706 0.0
C304 C 0.28717 0.15798 0.45336 0.0
C305 C 0.26859 0.12419 0.44231 0.0
H306 H 0.1412 0.9932 0.48359 0.0
C307 C 0.24529 0.14285 0.50169 0.0
C308 C 0.24247 0.11634 0.47559 0.0
H309 H 0.2072 0.00871 0.3826 0.0
H310 H 0.23818 0.0598 0.40793 0.0
H311 H 0.21284 0.01104 0.5375 0.0
H312 H 0.11524 0.0697 0.49346 0.0
H313 H 0.11906 0.08054 0.54012 0.0
H314 H 0.10896 0.03671 0.52742 0.0
H315 H 0.16342 0.00915 0.55706 0.0
H316 H 0.20018 0.04033 0.57218 0.0
C317 C 0.30258 0.09754 0.43756 0.0
C318 C 0.24317 0.13018 0.40731 0.0
C319 C 0.18083 0.15849 0.62784 0.0
C320 C 0.1562 0.13688 0.64922 0.0
C321 C 0.14534 0.10437 0.63547 0.0
C322 C 0.15833 0.09354 0.60091 0.0
C323 C 0.18263 0.11535 0.57965 0.0
C324 C 0.19408 0.14699 0.59333 0.0
C325 C 0.22172 0.16574 0.56728 0.0
C326 C 0.2241 0.14037 0.53554 0.0
C327 C 0.20075 0.11118 0.54294 0.0
C328 C 0.26285 0.17054 0.58658 0.0
C329 C 0.20107 0.19964 0.55578 0.0
C330 C 0.16297 0.0071 0.46713 0.0
C331 C 0.17177 0.99679 0.43108 0.0
C332 C 0.19963 0.01624 0.41038 0.0
C333 C 0.21751 0.04594 0.4251 0.0
C334 C 0.20722 0.05651 0.46082 0.0
C335 C 0.18069 0.03688 0.48124 0.0
C336 C 0.17213 0.05219 0.51819 0.0
C337 C 0.19725 0.08468 0.51645 0.0
C338 C 0.21791 0.08716 0.4829 0.0
C339 C 0.18758 0.02696 0.54796 0.0
C340 C 0.1265 0.0601 0.52032 0.0
H341 H 0.27623 0.21094 0.52689 0.0
H342 H 0.32684 0.16717 0.40746 0.0
H343 H 0.22919 0.15608 0.40763 0.0
H344 H 0.21762 0.11217 0.40494 0.0
H345 H 0.26201 0.12839 0.38218 0.0
H346 H 0.32517 0.10021 0.45989 0.0
H347 H 0.31842 0.10118 0.41097 0.0
H348 H 0.29175 0.0708 0.43924 0.0
H349 H 0.18986 0.1835 0.63792 0.0
H350 H 0.12598 0.08748 0.65127 0.0
H351 H 0.14856 0.06867 0.59201 0.0
H352 H 0.2696 0.14839 0.60483 0.0
H353 H 0.26311 0.19407 0.60379 0.0
H354 H 0.28835 0.17153 0.56718 0.0
H355 H 0.16815 0.19572 0.55223 0.0
H356 H 0.21171 0.20943 0.52902 0.0
H357 H 0.20539 0.21985 0.57693 0.0
H358 H 0.32464 0.24418 0.49306 0.0
C359 C 0.28648 0.20062 0.50126 0.0
C360 C 0.18163 0.99 0.93665 0.0
C361 C 0.15505 0.0134 0.95341 0.0
C362 C 0.14456 0.00861 0.99055 0.0
C363 C 0.18404 0.95662 0.99288 0.0
C364 C 0.19588 0.96192 0.95695 0.0
C365 C 0.22389 0.93416 0.94367 0.0
H366 H 0.31768 0.78283 0.97706 0.0
C367 C 0.20145 0.92392 0.0055 0.0
C368 C 0.22506 0.91058 0.97698 0.0
H369 H 0.33084 0.84869 0.88211 0.0
H370 H 0.28238 0.88808 0.90761 0.0
H371 H 0.32013 0.84423 0.03703 0.0
H372 H 0.222 0.79039 0.98516 0.0
H373 H 0.20845 0.79751 0.03114 0.0
H374 H 0.25147 0.77106 0.02079 0.0
H375 H 0.30949 0.79966 0.04524 0.0
H376 H 0.28456 0.83287 0.07082 0.0
C377 C 0.26541 0.95071 0.9357 0.0
C378 C 0.20444 0.91637 0.91009 0.0
C379 C 0.162 0.87866 0.13073 0.0
C380 C 0.16899 0.8477 0.14928 0.0
C381 C 0.19308 0.82249 0.13245 0.0
C382 C 0.21029 0.82836 0.09769 0.0
C383 C 0.20284 0.85958 0.07945 0.0
C384 C 0.17879 0.88391 0.09605 0.0
C385 C 0.17181 0.91464 0.07215 0.0
C386 C 0.19616 0.90516 0.03851 0.0
C387 C 0.21455 0.87306 0.04289 0.0
C388 C 0.18939 0.94657 0.09196 0.0
C389 C 0.1261 0.91661 0.06377 0.0
C390 C 0.31046 0.80584 0.96179 0.0
C391 C 0.32847 0.81259 0.92751 0.0
C392 C 0.31727 0.84256 0.90835 0.0
C393 C 0.2894 0.86564 0.92338 0.0
C394 C 0.27251 0.85885 0.95805 0.0
C395 C 0.28306 0.82928 0.97659 0.0
C396 C 0.2628 0.82652 0.01344 0.0
C397 C 0.23921 0.85975 0.01442 0.0
C398 C 0.24466 0.87848 0.98173 0.0
C399 C 0.29574 0.82554 0.04342 0.0
C400 C 0.23485 0.79464 0.01299 0.0
H401 H 0.14902 0.97806 0.03821 0.0
H402 H 0.19066 0.99324 0.90828 0.0
H403 H 0.17192 0.91158 0.91516 0.0
H404 H 0.21755 0.89101 0.90408 0.0
H405 H 0.20711 0.93266 0.88517 0.0
H406 H 0.27099 0.97314 0.95392 0.0
H407 H 0.26741 0.95988 0.90688 0.0
H408 H 0.29066 0.93311 0.94128 0.0
H409 H 0.14269 0.89814 0.1425 0.0
H410 H 0.19866 0.79834 0.14625 0.0
H411 H 0.22846 0.8083 0.08625 0.0
H412 H 0.21659 0.93972 0.1081 0.0
H413 H 0.1672 0.95781 0.11131 0.0
H414 H 0.19979 0.96668 0.07273 0.0
H415 H 0.11233 0.89055 0.06279 0.0
H416 H 0.11947 0.92775 0.03659 0.0
H417 H 0.10995 0.93147 0.08519 0.0
H418 H 0.12383 0.02591 0.00404 0.0
C419 C 0.15891 0.98049 0.0103 0.0
C420 C 0.70153 0.17913 0.43028 0.0
C421 C 0.68426 0.20819 0.44699 0.0
C422 C 0.69615 0.21693 0.48301 0.0
C423 C 0.74244 0.16914 0.48445 0.0
C424 C 0.73032 0.15999 0.4495 0.0
C425 C 0.7515 0.12826 0.43599 0.0
H426 H 0.88884 1.00342 0.4678 0.0
C427 C 0.77294 0.14427 0.49682 0.0
C428 C 0.77814 0.11995 0.46864 0.0
H429 H 0.81738 0.0172 0.36992 0.0
H430 H 0.78544 0.06694 0.39735 0.0
H431 H 0.91088 0.08015 0.47789 0.0
H432 H 0.81893 0.01642 0.52484 0.0
H433 H 0.83434 0.04386 0.56035 0.0
H434 H 0.8702 0.01486 0.53985 0.0
H435 H 0.92092 0.04922 0.51315 0.0
H436 H 0.90716 0.0928 0.5239 0.0
C437 C 0.7764 0.13801 0.40159 0.0
C438 C 0.71959 0.09999 0.42922 0.0
C439 C 0.84579 0.16176 0.61887 0.0
C440 C 0.87663 0.14303 0.63606 0.0
C441 C 0.88891 0.1116 0.62059 0.0
C442 C 0.87252 0.09978 0.58772 0.0
C443 C 0.84338 0.11949 0.56975 0.0
C444 C 0.82969 0.14949 0.58562 0.0
C445 C 0.79782 0.16635 0.56242 0.0
C446 C 0.79595 0.14206 0.52963 0.0
C447 C 0.82293 0.11489 0.53418 0.0
C448 C 0.81322 0.20244 0.55133 0.0
C449 C 0.75795 0.1665 0.5845 0.0
C450 C 0.86579 0.01664 0.45236 0.0
C451 C 0.85533 0.006 0.41678 0.0
C452 C 0.82607 0.02485 0.39737 0.0
C453 C 0.80749 0.05364 0.41341 0.0
C454 C 0.81848 0.06385 0.44913 0.0
C455 C 0.84719 0.04525 0.46784 0.0
C456 C 0.85624 0.05977 0.50503 0.0
C457 C 0.8281 0.09022 0.50594 0.0
C458 C 0.80596 0.09265 0.47324 0.0
C459 C 0.9011 0.07094 0.50543 0.0
C460 C 0.84472 0.03242 0.53423 0.0
H461 H 0.73278 0.20579 0.52894 0.0
H462 H 0.6933 0.17166 0.40265 0.0
H463 H 0.6961 0.1005 0.45099 0.0
H464 H 0.73218 0.07385 0.4302 0.0
H465 H 0.70441 0.10376 0.40238 0.0
H466 H 0.79022 0.16387 0.40486 0.0
H467 H 0.75719 0.13862 0.37668 0.0
H468 H 0.80188 0.12054 0.39668 0.0
H469 H 0.83549 0.18583 0.63032 0.0
H470 H 0.91181 0.09624 0.63381 0.0
H471 H 0.88386 0.07599 0.57728 0.0
H472 H 0.84541 0.20135 0.54311 0.0
H473 H 0.81064 0.22072 0.57462 0.0
H474 H 0.79733 0.21326 0.52746 0.0
H475 H 0.75647 0.14457 0.60404 0.0
H476 H 0.73123 0.16322 0.56679 0.0
H477 H 0.75476 0.19046 0.60075 0.0
H478 H 0.68276 0.23859 0.49702 0.0
C479 C 0.72505 0.19767 0.50171 0.0
Fe480 Fe 0.00967 0.79991 0.31779 0.0
Fe481 Fe 0.00784 0.84438 0.38762 0.0
O482 O 0.01049 0.84085 0.33925 0.0
Fe483 Fe 0.01441 0.87847 0.31227 0.0
O484 O 0.98789 0.86055 0.27277 0.0
O485 O 0.96489 0.81054 0.29124 0.0
O486 O 0.97602 0.78004 0.35216 0.0
C487 C 0.95274 0.7933 0.37583 0.0
C488 C 0.06805 0.83736 0.27682 0.0
O489 O 0.95973 0.82272 0.38873 0.0
C490 C 0.06392 0.89397 0.37289 0.0
O491 O 0.05437 0.7864 0.34234 0.0
O492 O 0.03516 0.80439 0.39677 0.0
O493 O 0.0625 0.86492 0.29428 0.0
O494 O 0.0434 0.81256 0.27979 0.0
C495 C 0.95832 0.89867 0.3624 0.0
O496 O 0.05605 0.86655 0.38991 0.0
O497 O 0.04207 0.90349 0.34646 0.0
C498 C 0.05844 0.78678 0.37676 0.0
O499 O 0.97966 0.88482 0.3871 0.0
O500 O 0.96642 0.89439 0.32883 0.0
C501 C 0.96351 0.83581 0.26961 0.0
Fe502 Fe 1.00184 0.16482 0.88943 0.0
Fe503 Fe 0.00974 0.12648 0.81653 0.0
O504 O 0.00628 0.16561 0.84101 0.0
Fe505 Fe 0.00763 0.20531 0.81689 0.0
O506 O 0.052 0.21946 0.84163 0.0
O507 O 0.03112 0.20418 0.89675 0.0
O508 O 0.0488 0.14166 0.89457 0.0
C509 C 0.05638 0.11323 0.87965 0.0
C510 C 0.94946 0.21663 0.8728 0.0
O511 O 0.03555 0.10277 0.85289 0.0
C512 C 0.96149 0.16769 0.77005 0.0
O513 O 0.97183 0.12516 0.89066 0.0
O514 O 0.96084 0.11222 0.83272 0.0
O515 O 0.97405 0.22782 0.84899 0.0
O516 O 0.95471 0.1879 0.88793 0.0
C517 C 0.06541 0.16431 0.77942 0.0
O518 O 0.9849 0.1427 0.77532 0.0
O519 O 0.96319 0.19405 0.7901 0.0
C520 C 0.95152 0.10971 0.86623 0.0
O521 O 0.05877 0.1382 0.79902 0.0
O522 O 0.04175 0.1898 0.78045 0.0
C523 C 0.05559 0.21998 0.87609 0.0
Fe524 Fe 0.50649 0.30058 0.31921 0.0
Fe525 Fe 0.50886 0.34413 0.38964 0.0
O526 O 0.50796 0.34138 0.34116 0.0
Fe527 Fe 0.50809 0.37951 0.31486 0.0
O528 O 0.46081 0.36825 0.29396 0.0
O529 O 0.47573 0.31498 0.2799 0.0
O530 O 0.45974 0.28911 0.34231 0.0
C531 C 0.45534 0.28876 0.37673 0.0
C532 C 0.55972 0.33526 0.27515 0.0
O533 O 0.47972 0.30474 0.39722 0.0
C534 C 0.56135 0.39806 0.36799 0.0
O535 O 0.53739 0.27911 0.35455 0.0
O536 O 0.55592 0.32115 0.39131 0.0
O537 O 0.5372 0.36133 0.27696 0.0
O538 O 0.55299 0.309 0.29448 0.0
C539 C 0.45532 0.39504 0.37341 0.0
O540 O 0.53843 0.384 0.39138 0.0
O541 O 0.55548 0.39377 0.33415 0.0
C542 C 0.56148 0.29158 0.37814 0.0
O543 O 0.46159 0.36745 0.39067 0.0
O544 O 0.47888 0.40455 0.34803 0.0
C545 C 0.45374 0.34128 0.27606 0.0
Fe546 Fe 0.50044 0.66458 0.89108 0.0
Fe547 Fe 0.50405 0.62506 0.8189 0.0
O548 O 0.50361 0.66465 0.84255 0.0
Fe549 Fe 0.50592 0.70411 0.81802 0.0
O550 O 0.53578 0.72634 0.85363 0.0
O551 O 0.54857 0.68605 0.89449 0.0
O552 O 0.52705 0.62388 0.89708 0.0
C553 C 0.55127 0.60783 0.87658 0.0
C554 C 0.45157 0.72093 0.87159 0.0
O555 O 0.54949 0.61103 0.84221 0.0
C556 C 0.45391 0.66253 0.7749 0.0
O557 O 0.45193 0.64274 0.89037 0.0
O558 O 0.4714 0.60277 0.85174 0.0
O559 O 0.45852 0.71843 0.83766 0.0
O560 O 0.47327 0.70529 0.89455 0.0
C561 C 0.55953 0.66559 0.77843 0.0
O562 O 0.45891 0.63615 0.79433 0.0
O563 O 0.47672 0.68848 0.77835 0.0
C564 C 0.44629 0.61409 0.87488 0.0
O565 O 0.53623 0.64009 0.78163 0.0
O566 O 0.55332 0.693 0.79596 0.0
C567 C 0.55704 0.71447 0.87965 0.0
C568 C 0.12291 0.29448 0.90239 0.0
C569 C 0.14766 0.27954 0.92946 0.0
H570 H 0.0749 0.2871 0.86369 0.0
C571 C 0.14246 0.24432 0.9372 0.0
H572 H 0.12512 0.3215 0.89586 0.0
C573 C 0.11248 0.22518 0.91979 0.0
C574 C 0.08792 0.2403 0.89316 0.0
H575 H 0.1615 0.23126 0.95673 0.0
H576 H 0.10873 0.19834 0.92688 0.0
C577 C 0.09379 0.2749 0.88404 0.0
C578 C 0.88806 0.71761 0.40528 0.0
C579 C 0.85911 0.73364 0.42765 0.0
H580 H 0.94015 0.72379 0.37117 0.0
C581 C 0.8601 0.76959 0.431 0.0
H582 H 0.88852 0.68996 0.40231 0.0
C583 C 0.88997 0.78889 0.41354 0.0
C584 C 0.91947 0.77281 0.39195 0.0
H585 H 0.83778 0.78295 0.44723 0.0
H586 H 0.89008 0.81649 0.41722 0.0
C587 C 0.91779 0.73699 0.3875 0.0
C588 C 0.88529 0.29529 0.89018 0.0
C589 C 0.85454 0.28205 0.91274 0.0
H590 H 0.93905 0.28517 0.85979 0.0
C591 C 0.85481 0.2468 0.92118 0.0
H592 H 0.88656 0.32237 0.88357 0.0
C593 C 0.88537 0.22553 0.90796 0.0
C594 C 0.91625 0.2389 0.8857 0.0
H595 H 0.8313 0.23553 0.9379 0.0
H596 H 0.88476 0.19856 0.91519 0.0
C597 C 0.91561 0.27396 0.87668 0.0
C598 C 0.11919 0.74101 0.44972 0.0
C599 C 0.14967 0.72524 0.42897 0.0
H600 H 0.06685 0.7726 0.44971 0.0
C601 C 0.14916 0.72901 0.39054 0.0
H602 H 0.11803 0.73806 0.47927 0.0
C603 C 0.1193 0.74861 0.37343 0.0
C604 C 0.08938 0.76494 0.39438 0.0
H605 H 0.17234 0.71749 0.37372 0.0
H606 H 0.12009 0.75141 0.34385 0.0
C607 C 0.0896 0.7607 0.4327 0.0
C608 C 0.64877 0.73995 0.9348 0.0
C609 C 0.64991 0.77579 0.93009 0.0
H610 H 0.61875 0.69268 0.92269 0.0
C611 C 0.62114 0.79112 0.90705 0.0
H612 H 0.67097 0.72704 0.95151 0.0
C613 C 0.59153 0.77119 0.88986 0.0
C614 C 0.58975 0.73555 0.89567 0.0
H615 H 0.62075 0.81865 0.90303 0.0
H616 H 0.56938 0.78384 0.87286 0.0
C617 C 0.61894 0.72015 0.91805 0.0
C618 C 0.39325 0.24364 0.44949 0.0
C619 C 0.36263 0.22798 0.42882 0.0
H620 H 0.44601 0.27483 0.44948 0.0
C621 C 0.36322 0.23173 0.39036 0.0
H622 H 0.39438 0.24069 0.47904 0.0
C623 C 0.39341 0.2512 0.37316 0.0
C624 C 0.42357 0.26733 0.39408 0.0
H625 H 0.33996 0.22017 0.37362 0.0
H626 H 0.39284 0.25396 0.34357 0.0
C627 C 0.42312 0.26312 0.43242 0.0
C628 C 0.36248 0.7819 0.87484 0.0
C629 C 0.35986 0.78913 0.91265 0.0
H630 H 0.39337 0.75469 0.83209 0.0
C631 C 0.38787 0.77394 0.93646 0.0
H632 H 0.34118 0.79286 0.85573 0.0
C633 C 0.41735 0.75186 0.92302 0.0
C634 C 0.42 0.74454 0.88529 0.0
H635 H 0.38744 0.77943 0.96561 0.0
H636 H 0.43833 0.74074 0.94233 0.0
C637 C 0.39229 0.75989 0.86129 0.0
C638 C 0.62434 0.21429 0.40504 0.0
C639 C 0.65397 0.22948 0.42737 0.0
H640 H 0.57192 0.2219 0.37185 0.0
C641 C 0.65391 0.26535 0.43165 0.0
H642 H 0.62326 0.18673 0.40133 0.0
C643 C 0.62427 0.28539 0.41519 0.0
C644 C 0.59406 0.27017 0.39365 0.0
H645 H 0.67679 0.27808 0.44786 0.0
H646 H 0.62498 0.31289 0.41952 0.0
C647 C 0.59478 0.23443 0.38825 0.0
C648 C 0.36989 0.56925 0.93573 0.0
C649 C 0.36148 0.53956 0.91501 0.0
H650 H 0.40295 0.61653 0.93918 0.0
C651 C 0.37773 0.53672 0.87956 0.0
H652 H 0.35741 0.57233 0.96301 0.0
C653 C 0.40374 0.5619 0.86602 0.0
C654 C 0.41401 0.59062 0.88751 0.0
H655 H 0.37215 0.51412 0.86299 0.0
H656 H 0.41697 0.55821 0.83911 0.0
C657 C 0.39577 0.59464 0.92203 0.0
C658 C 0.62764 0.45059 0.4308 0.0
C659 C 0.63866 0.47834 0.40813 0.0
H660 H 0.59472 0.40358 0.43586 0.0
C661 C 0.62753 0.47747 0.37089 0.0
H662 H 0.63662 0.44985 0.45936 0.0
C663 C 0.60405 0.45045 0.35721 0.0
C664 C 0.5909 0.42397 0.38062 0.0
H665 H 0.63528 0.49844 0.35267 0.0
H666 H 0.5946 0.4512 0.32878 0.0
C667 C 0.6038 0.42391 0.41729 0.0
C668 C 0.58078 0.53632 0.94018 0.0
C669 C 0.61976 0.52797 0.92826 0.0
H670 H 0.52934 0.56812 0.93355 0.0
C671 C 0.63549 0.54489 0.89719 0.0
H672 H 0.56688 0.52296 0.96301 0.0
C673 C 0.6131 0.57056 0.87946 0.0
C674 C 0.57508 0.57989 0.89297 0.0
H675 H 0.66534 0.539 0.8872 0.0
H676 H 0.62592 0.58374 0.85599 0.0
C677 C 0.55905 0.56216 0.92314 0.0
C678 C 0.38631 0.47212 0.37659 0.0
C679 C 0.36802 0.46836 0.41111 0.0
H680 H 0.42819 0.45196 0.3377 0.0
C681 C 0.37587 0.43858 0.43175 0.0
H682 H 0.38117 0.49488 0.36019 0.0
C683 C 0.40304 0.41396 0.41898 0.0
C684 C 0.42317 0.41879 0.38543 0.0
H685 H 0.36188 0.43484 0.45833 0.0
H686 H 0.40937 0.39187 0.43604 0.0
C687 C 0.41363 0.44766 0.36393 0.0
C688 C 0.88074 0.05948 0.92726 0.0
C689 C 0.87102 0.03109 0.90511 0.0
H690 H 0.91347 0.10654 0.93227 0.0
C691 C 0.88426 0.03081 0.86841 0.0
H692 H 0.87022 0.06095 0.95538 0.0
C693 C 0.9088 0.0573 0.85495 0.0
C694 C 0.92073 0.08443 0.87804 0.0
H695 H 0.87743 0.00928 0.85065 0.0
H696 H 0.92002 0.05562 0.82708 0.0
C697 C 0.90543 0.0857 0.91397 0.0
C698 C 0.13269 0.97132 0.37905 0.0
C699 C 0.14894 0.96788 0.4144 0.0
H700 H 0.09336 0.9507 0.33831 0.0
C701 C 0.13974 0.9382 0.43488 0.0
H702 H 0.13879 0.99396 0.36268 0.0
C703 C 0.11335 0.91334 0.42097 0.0
C704 C 0.09543 0.9178 0.3864 0.0
H705 H 0.15219 0.93462 0.46207 0.0
H706 H 0.10592 0.89131 0.43784 0.0
C707 C 0.10625 0.94662 0.36524 0.0
C708 C 0.11868 0.03378 0.89744 0.0
C709 C 0.13528 0.04102 0.93201 0.0
H710 H 0.08084 0.05089 0.85381 0.0
C711 C 0.1289 0.07359 0.94761 0.0
H712 H 0.12276 0.00887 0.88481 0.0
C713 C 0.10459 0.0977 0.92997 0.0
C714 C 0.086 0.08965 0.89642 0.0
H715 H 0.14178 0.08007 0.97403 0.0
H716 H 0.09926 0.12213 0.94328 0.0
C717 C 0.0943 0.05781 0.87986 0.0
C718 C 0.88563 0.94747 0.42227 0.0
C719 C 0.87631 0.97603 0.40029 0.0
H720 H 0.91867 0.90078 0.42743 0.0
C721 C 0.89056 0.97691 0.3639 0.0
H722 H 0.87431 0.9455 0.45009 0.0
C723 C 0.9157 0.95084 0.35066 0.0
C724 C 0.92725 0.92365 0.37372 0.0
H725 H 0.88404 0.99858 0.3463 0.0
H726 H 0.9277 0.95292 0.32309 0.0
C727 C 0.91098 0.92177 0.40925 0.0
C728 C 0.37517 0.37795 0.21296 0.0
C729 C 0.37756 0.35584 0.18268 0.0
H730 H 0.39661 0.39018 0.26654 0.0
C731 C 0.40067 0.32584 0.18536 0.0
H732 H 0.35723 0.40109 0.2116 0.0
C733 C 0.42373 0.31959 0.21688 0.0
C734 C 0.4238 0.34329 0.24605 0.0
H735 H 0.40301 0.3085 0.16221 0.0
H736 H 0.44325 0.29741 0.21742 0.0
C737 C 0.39786 0.37169 0.24434 0.0
C738 C 0.61893 0.68537 0.69242 0.0
C739 C 0.63437 0.65263 0.68441 0.0
H740 H 0.58299 0.71552 0.72942 0.0
C741 C 0.63117 0.62664 0.71098 0.0
H742 H 0.62097 0.70583 0.67237 0.0
C743 C 0.60941 0.63205 0.74313 0.0
C744 C 0.59076 0.66371 0.7497 0.0
H745 H 0.64344 0.60136 0.70584 0.0
H746 H 0.60519 0.61078 0.76194 0.0
C747 C 0.59727 0.69092 0.72502 0.0
C748 C 0.6388 0.36846 0.21034 0.0
C749 C 0.64485 0.34024 0.18692 0.0
H750 H 0.60684 0.38885 0.25636 0.0
C751 C 0.62673 0.30863 0.19595 0.0
H752 H 0.65315 0.39292 0.20482 0.0
C753 C 0.6007 0.30613 0.22622 0.0
C754 C 0.59211 0.33532 0.24746 0.0
H755 H 0.63069 0.28644 0.17844 0.0
H756 H 0.58544 0.28205 0.23158 0.0
C757 C 0.61238 0.36614 0.23994 0.0
C758 C 0.37668 0.62622 0.70988 0.0
C759 C 0.3799 0.64866 0.67992 0.0
H760 H 0.39693 0.6134 0.76365 0.0
C761 C 0.40334 0.67853 0.68326 0.0
H762 H 0.35845 0.60319 0.708 0.0
C763 C 0.42585 0.68436 0.71517 0.0
C764 C 0.42505 0.66039 0.74408 0.0
H765 H 0.40632 0.69611 0.66037 0.0
H766 H 0.44551 0.70655 0.71629 0.0
C767 C 0.39887 0.63207 0.74167 0.0
C768 C 0.93919 0.84612 0.1701 0.0
C769 C 0.89701 0.84616 0.17034 0.0
H770 H 0.99305 0.84233 0.20163 0.0
C771 C 0.87656 0.83714 0.20282 0.0
H772 H 0.9557 0.85236 0.1453 0.0
C773 C 0.89818 0.83099 0.2353 0.0
C774 C 0.94027 0.83391 0.23535 0.0
H775 H 0.84401 0.837 0.20362 0.0
H776 H 0.88203 0.8263 0.26066 0.0
C777 C 0.96054 0.84026 0.20225 0.0
C778 C 0.14192 0.12544 0.71533 0.0
C779 C 0.14014 0.14788 0.68524 0.0
H780 H 0.12048 0.11344 0.76909 0.0
C781 C 0.11846 0.17859 0.68856 0.0
H782 H 0.15888 0.1018 0.71358 0.0
C783 C 0.09613 0.18528 0.72039 0.0
C784 C 0.09532 0.16139 0.74939 0.0
H785 H 0.11658 0.19626 0.66567 0.0
H786 H 0.07769 0.20812 0.7213 0.0
C787 C 0.1199 0.13217 0.74711 0.0
C788 C 0.12582 0.81214 0.19118 0.0
C789 C 0.1491 0.84175 0.18514 0.0
H790 H 0.08178 0.78739 0.22511 0.0
C791 C 0.14934 0.86773 0.21186 0.0
H792 H 0.12499 0.79181 0.1709 0.0
C793 C 0.12473 0.86529 0.24278 0.0
C794 C 0.0991 0.83687 0.24759 0.0
H795 H 0.16744 0.89063 0.20806 0.0
H796 H 0.12454 0.88646 0.26206 0.0
C797 C 0.10096 0.80973 0.22213 0.0
C798 C 0.87691 0.16705 0.70056 0.0
C799 C 0.89784 0.15593 0.66913 0.0
H800 H 0.88106 0.17995 0.75802 0.0
C801 C 0.93994 0.15385 0.67037 0.0
H802 H 0.84444 0.16892 0.70026 0.0
C803 C 0.96046 0.15974 0.70298 0.0
C804 C 0.9395 0.16841 0.73506 0.0
H805 H 0.95697 0.14616 0.64636 0.0
H806 H 0.99278 0.15623 0.70349 0.0
C807 C 0.89773 0.17335 0.73347 0.0
loop_
_geom_bond_atom_site_label_1
_geom_bond_atom_site_label_2
_geom_bond_distance
_geom_bond_site_symmetry_2
_ccdc_geom_bond_type
C0 C1 1.391 . S
C0 C4 1.391 . S
C0 H42 0.948 . S
C1 C0 1.391 . S
C1 C2 1.391 . S
C2 C1 1.391 . S
C2 H58 0.947 . S
C2 C59 1.392 . S
C3 C4 1.391 . S
C3 C7 1.397 . S
C3 C59 1.419 . S
C4 C0 1.391 . S
C4 C3 1.391 . S
C4 C5 1.399 . S
C5 C4 1.399 . S
C5 C8 1.396 . S
C5 C17 1.453 . S
C5 C18 1.684 . S
H6 C30 0.948 . S
C7 C3 1.397 . S
C7 C8 1.394 . S
C7 C26 1.723 . S
C8 C5 1.396 . S
C8 C7 1.394 . S
C8 C38 1.743 . S
H9 C32 0.937 1_554 S
H10 C33 0.948 . S
H11 C39 0.982 . S
H12 C40 0.979 . S
H13 C40 0.980 . S
H14 C40 0.983 . S
H15 C39 0.979 . S
H16 C39 0.977 . S
C17 C5 1.453 . S
C17 H46 0.982 . S
C17 H47 0.979 . S
C17 H48 0.977 . S
C18 C5 1.684 . S
C18 H43 0.979 . S
C18 H44 0.980 . S
C18 H45 0.983 . S
C19 C20 1.391 . S
C19 C24 1.391 . S
C19 H49 0.948 . S
C20 C19 1.391 . S
C20 C21 1.391 . S
C21 C20 1.391 . S
C21 C22 1.392 . S
C21 H50 0.947 . S
C22 C21 1.392 . S
C22 C23 1.419 . S
C22 H51 0.948 . S
C23 C22 1.419 . S
C23 C24 1.391 . S
C23 C27 1.397 . S
C24 C19 1.391 . S
C24 C23 1.391 . S
C24 C25 1.399 1_556 S
C25 C24 1.399 1_554 S
C25 C26 1.396 . S
C25 C28 1.453 . S
C25 C29 1.684 . S
C26 C7 1.723 . S
C26 C25 1.396 . S
C26 C27 1.394 1_554 S
C27 C23 1.397 . S
C27 C26 1.394 1_556 S
C27 C37 1.723 . S
C28 C25 1.453 . S
C28 H52 0.982 . S
C28 H53 0.979 . S
C28 H54 0.977 . S
C29 C25 1.684 . S
C29 H55 0.979 . S
C29 H56 0.980 . S
C29 H57 0.983 . S
C30 H6 0.948 . S
C30 C31 1.391 . S
C30 C35 1.391 . S
C31 C30 1.391 . S
C31 C32 1.391 . S
C32 H9 0.937 1_556 S
C32 C31 1.391 . S
C32 C33 1.392 1_556 S
C33 H10 0.948 . S
C33 C32 1.392 1_554 S
C33 C34 1.419 1_554 S
C34 C33 1.419 1_556 S
C34 C35 1.391 . S
C34 C38 1.390 1_556 S
C35 C30 1.391 . S
C35 C34 1.391 . S
C35 C36 1.399 . S
C36 C35 1.399 . S
C36 C37 1.396 . S
C36 C39 1.453 . S
C36 C40 1.684 . S
C37 C27 1.723 . S
C37 C36 1.396 . S
C37 C38 1.378 1_556 S
C38 C8 1.743 . S
C38 C34 1.390 1_554 S
C38 C37 1.378 1_554 S
C39 H11 0.982 . S
C39 H15 0.979 . S
C39 H16 0.977 . S
C39 C36 1.453 . S
C40 H12 0.979 . S
C40 H13 0.980 . S
C40 H14 0.983 . S
C40 C36 1.684 . S
H41 C59 0.948 . S
H42 C0 0.948 . S
H43 C18 0.979 . S
H44 C18 0.980 . S
H45 C18 0.983 . S
H46 C17 0.982 . S
H47 C17 0.979 . S
H48 C17 0.977 . S
H49 C19 0.948 . S
H50 C21 0.947 . S
H51 C22 0.948 . S
H52 C28 0.982 . S
H53 C28 0.979 . S
H54 C28 0.977 . S
H55 C29 0.979 . S
H56 C29 0.980 . S
H57 C29 0.983 . S
H58 C2 0.947 . S
C59 C2 1.392 . S
C59 C3 1.419 . S
C59 H41 0.948 . S
C60 C61 1.391 . S
C60 C64 1.391 . S
C60 H102 0.948 . S
C61 C60 1.391 . S
C61 C62 1.391 . S
C62 C61 1.391 . S
C62 H118 0.947 . S
C62 C119 1.392 . S
C63 C64 1.391 . S
C63 C67 1.397 . S
C63 C119 1.419 . S
C64 C60 1.391 . S
C64 C63 1.391 . S
C64 C65 1.399 . S
C65 C64 1.399 . S
C65 C68 1.396 . S
C65 C77 1.453 . S
C65 C78 1.684 . S
H66 C90 0.948 . S
C67 C63 1.397 . S
C67 C68 1.394 . S
C67 C86 1.723 . S
C68 C65 1.396 . S
C68 C67 1.394 . S
C68 C98 1.723 . S
H69 C92 0.947 . S
H70 C93 0.948 . S
H71 C99 0.982 . S
H72 C100 0.979 . S
H73 C100 0.980 . S
H74 C100 0.983 . S
H75 C99 0.979 . S
H76 C99 0.977 . S
C77 C65 1.453 . S
C77 H106 0.982 . S
C77 H107 0.979 . S
C77 H108 0.977 . S
C78 C65 1.684 . S
C78 H103 0.979 . S
C78 H104 0.980 . S
C78 H105 0.983 . S
C79 C80 1.391 . S
C79 C84 1.391 . S
C79 H109 0.948 . S
C80 C79 1.391 . S
C80 C81 1.391 . S
C81 C80 1.391 . S
C81 C82 1.392 . S
C81 H110 0.947 . S
C82 C81 1.392 . S
C82 C83 1.419 . S
C82 H111 0.948 . S
C83 C82 1.419 . S
C83 C84 1.391 . S
C83 C87 1.397 . S
C84 C79 1.391 . S
C84 C83 1.391 . S
C84 C85 1.399 . S
C85 C84 1.399 . S
C85 C86 1.396 . S
C85 C88 1.453 . S
C85 C89 1.684 . S
C86 C67 1.723 . S
C86 C85 1.396 . S
C86 C87 1.394 . S
C87 C83 1.397 . S
C87 C86 1.394 . S
C87 C97 1.723 . S
C88 C85 1.453 . S
C88 H112 0.982 . S
C88 H113 0.979 . S
C88 H114 0.977 . S
C89 C85 1.684 . S
C89 H115 0.979 . S
C89 H116 0.980 . S
C89 H117 0.983 . S
C90 H66 0.948 . S
C90 C91 1.391 . S
C90 C95 1.391 . S
C91 C90 1.391 . S
C91 C92 1.391 . S
C92 H69 0.947 . S
C92 C91 1.391 . S
C92 C93 1.392 . S
C93 H70 0.948 . S
C93 C92 1.392 . S
C93 C94 1.419 . S
C94 C93 1.419 . S
C94 C95 1.391 . S
C94 C98 1.397 . S
C95 C90 1.391 . S
C95 C94 1.391 . S
C95 C96 1.399 . S
C96 C95 1.399 . S
C96 C97 1.396 . S
C96 C99 1.453 . S
C96 C100 1.684 . S
C97 C87 1.723 . S
C97 C96 1.396 . S
C97 C98 1.394 . S
C98 C68 1.723 . S
C98 C94 1.397 . S
C98 C97 1.394 . S
C99 H71 0.982 . S
C99 H75 0.979 . S
C99 H76 0.977 . S
C99 C96 1.453 . S
C100 H72 0.979 . S
C100 H73 0.980 . S
C100 H74 0.983 . S
C100 C96 1.684 . S
H101 C119 0.948 . S
H102 C60 0.948 . S
H103 C78 0.979 . S
H104 C78 0.980 . S
H105 C78 0.983 . S
H106 C77 0.982 . S
H107 C77 0.979 . S
H108 C77 0.977 . S
H109 C79 0.948 . S
H110 C81 0.947 . S
H111 C82 0.948 . S
H112 C88 0.982 . S
H113 C88 0.979 . S
H114 C88 0.977 . S
H115 C89 0.979 . S
H116 C89 0.980 . S
H117 C89 0.983 . S
H118 C62 0.947 . S
C119 C62 1.392 . S
C119 C63 1.419 . S
C119 H101 0.948 . S
C120 C121 1.391 . S
C120 C124 1.391 . S
C120 H162 0.948 . S
C121 C120 1.391 . S
C121 C122 1.391 . S
C122 C121 1.391 . S
C122 H178 0.947 . S
C122 C179 1.392 . S
C123 C124 1.391 . S
C123 C127 1.397 . S
C123 C179 1.419 . S
C124 C120 1.391 . S
C124 C123 1.391 . S
C124 C125 1.399 . S
C125 C124 1.399 . S
C125 C128 1.396 . S
C125 C137 1.453 . S
C125 C138 1.684 . S
H126 C150 0.948 . S
C127 C123 1.397 . S
C127 C128 1.394 . S
C127 C146 1.723 1_556 S
C128 C125 1.396 . S
C128 C127 1.394 . S
C128 C158 1.723 . S
H129 C152 0.947 . S
H130 C153 0.948 . S
H131 C159 0.982 . S
H132 C160 0.979 . S
H133 C160 0.980 . S
H134 C160 0.983 . S
H135 C159 0.979 . S
H136 C159 0.977 . S
C137 C125 1.453 . S
C137 H166 0.982 . S
C137 H167 0.979 . S
C137 H168 0.977 . S
C138 C125 1.684 . S
C138 H163 0.979 . S
C138 H164 0.980 . S
C138 H165 0.983 . S
C139 C140 1.391 . S
C139 C144 1.391 . S
C139 H169 0.948 . S
C140 C139 1.391 . S
C140 C141 1.391 . S
C141 C140 1.391 . S
C141 C142 1.392 . S
C141 H170 0.947 . S
C142 C141 1.392 . S
C142 C143 1.419 . S
C142 H171 0.948 . S
C143 C142 1.419 . S
C143 C144 1.391 . S
C143 C147 1.397 . S
C144 C139 1.391 . S
C144 C143 1.391 . S
C144 C145 1.399 . S
C145 C144 1.399 . S
C145 C146 1.396 . S
C145 C148 1.453 . S
C145 C149 1.684 . S
C146 C127 1.723 1_554 S
C146 C145 1.396 . S
C146 C147 1.394 . S
C147 C143 1.397 . S
C147 C146 1.394 . S
C147 C157 1.723 . S
C148 C145 1.453 . S
C148 H172 0.982 . S
C148 H173 0.979 . S
C148 H174 0.977 . S
C149 C145 1.684 . S
C149 H175 0.979 . S
C149 H176 0.980 . S
C149 H177 0.983 . S
C150 H126 0.948 . S
C150 C151 1.391 . S
C150 C155 1.391 . S
C151 C150 1.391 . S
C151 C152 1.391 . S
C152 H129 0.947 . S
C152 C151 1.391 . S
C152 C153 1.392 . S
C153 H130 0.948 . S
C153 C152 1.392 . S
C153 C154 1.419 . S
C154 C153 1.419 . S
C154 C155 1.391 . S
C154 C158 1.397 . S
C155 C150 1.391 . S
C155 C154 1.391 . S
C155 C156 1.399 1_556 S
C156 C155 1.399 1_554 S
C156 C157 1.396 . S
C156 C159 1.453 . S
C156 C160 1.684 . S
C157 C147 1.723 . S
C157 C156 1.396 . S
C157 C158 1.394 1_554 S
C158 C128 1.723 . S
C158 C154 1.397 . S
C158 C157 1.394 1_556 S
C159 H131 0.982 . S
C159 H135 0.979 . S
C159 H136 0.977 . S
C159 C156 1.453 . S
C160 H132 0.979 . S
C160 H133 0.980 . S
C160 H134 0.983 . S
C160 C156 1.684 . S
H161 C179 0.948 1_554 S
H162 C120 0.948 . S
H163 C138 0.979 . S
H164 C138 0.980 . S
H165 C138 0.983 . S
H166 C137 0.982 . S
H167 C137 0.979 . S
H168 C137 0.977 . S
H169 C139 0.948 . S
H170 C141 0.947 . S
H171 C142 0.948 . S
H172 C148 0.982 . S
H173 C148 0.979 . S
H174 C148 0.977 . S
H175 C149 0.979 . S
H176 C149 0.980 . S
H177 C149 0.983 . S
H178 C122 0.947 . S
C179 C122 1.392 . S
C179 C123 1.419 . S
C179 H161 0.948 1_556 S
C180 C181 1.391 . S
C180 C184 1.391 . S
C180 H222 0.948 . S
C181 C180 1.391 . S
C181 C182 1.391 . S
C182 C181 1.391 . S
C182 H238 0.947 . S
C182 C239 1.392 . S
C183 C184 1.391 . S
C183 C187 1.397 . S
C183 C239 1.419 . S
C184 C180 1.391 . S
C184 C183 1.391 . S
C184 C185 1.399 . S
C185 C184 1.399 . S
C185 C188 1.396 . S
C185 C197 1.453 . S
C185 C198 1.684 . S
H186 C210 0.948 . S
C187 C183 1.397 . S
C187 C188 1.394 . S
C187 C206 1.723 . S
C188 C185 1.396 . S
C188 C187 1.394 . S
C188 C218 1.723 . S
H189 C212 0.947 . S
H190 C213 0.948 . S
H191 C219 0.982 . S
H192 C220 0.979 . S
H193 C220 0.980 . S
H194 C220 0.983 . S
H195 C219 0.979 . S
H196 C219 0.977 . S
C197 C185 1.453 . S
C197 H226 0.982 . S
C197 H227 0.979 . S
C197 H228 0.977 . S
C198 C185 1.684 . S
C198 H223 0.979 . S
C198 H224 0.980 . S
C198 H225 0.983 . S
C199 C200 1.391 . S
C199 C204 1.391 . S
C199 H229 0.948 . S
C200 C199 1.391 . S
C200 C201 1.391 . S
C201 C200 1.391 . S
C201 C202 1.392 . S
C201 H230 0.947 . S
C202 C201 1.392 . S
C202 C203 1.419 . S
C202 H231 0.948 . S
C203 C202 1.419 . S
C203 C204 1.391 . S
C203 C207 1.397 . S
C204 C199 1.391 . S
C204 C203 1.391 . S
C204 C205 1.399 . S
C205 C204 1.399 . S
C205 C206 1.396 . S
C205 C208 1.453 . S
C205 C209 1.684 . S
C206 C187 1.723 . S
C206 C205 1.396 . S
C206 C207 1.394 . S
C207 C203 1.397 . S
C207 C206 1.394 . S
C207 C217 1.723 . S
C208 C205 1.453 . S
C208 H232 0.982 . S
C208 H233 0.979 . S
C208 H234 0.977 . S
C209 C205 1.684 . S
C209 H235 0.979 . S
C209 H236 0.980 . S
C209 H237 0.983 . S
C210 H186 0.948 . S
C210 C211 1.391 . S
C210 C215 1.391 . S
C211 C210 1.391 . S
C211 C212 1.391 . S
C212 H189 0.947 . S
C212 C211 1.391 . S
C212 C213 1.392 . S
C213 H190 0.948 . S
C213 C212 1.392 . S
C213 C214 1.419 . S
C214 C213 1.419 . S
C214 C215 1.391 . S
C214 C218 1.397 . S
C215 C210 1.391 . S
C215 C214 1.391 . S
C215 C216 1.399 . S
C216 C215 1.399 . S
C216 C217 1.396 . S
C216 C219 1.453 . S
C216 C220 1.684 . S
C217 C207 1.723 . S
C217 C216 1.396 . S
C217 C218 1.394 . S
C218 C188 1.723 . S
C218 C214 1.397 . S
C218 C217 1.394 . S
C219 H191 0.982 . S
C219 H195 0.979 . S
C219 H196 0.977 . S
C219 C216 1.453 . S
C220 H192 0.979 . S
C220 H193 0.980 . S
C220 H194 0.983 . S
C220 C216 1.684 . S
H221 C239 0.948 . S
H222 C180 0.948 . S
H223 C198 0.979 . S
H224 C198 0.980 . S
H225 C198 0.983 . S
H226 C197 0.982 . S
H227 C197 0.979 . S
H228 C197 0.977 . S
H229 C199 0.948 . S
H230 C201 0.947 . S
H231 C202 0.948 . S
H232 C208 0.982 . S
H233 C208 0.979 . S
H234 C208 0.977 . S
H235 C209 0.979 . S
H236 C209 0.980 . S
H237 C209 0.983 . S
H238 C182 0.947 . S
C239 C182 1.392 . S
C239 C183 1.419 . S
C239 H221 0.948 . S
C240 C241 1.391 . S
C240 C244 1.391 . S
C240 H282 0.948 . S
C241 C240 1.391 . S
C241 C242 1.391 . S
C242 C241 1.391 . S
C242 H298 0.947 . S
C242 C299 1.392 . S
C243 C244 1.391 . S
C243 C247 1.397 . S
C243 C299 1.419 . S
C244 C240 1.391 . S
C244 C243 1.391 . S
C244 C245 1.399 . S
C245 C244 1.399 . S
C245 C248 1.396 . S
C245 C257 1.453 . S
C245 C258 1.684 . S
H246 C270 0.948 . S
C247 C243 1.397 . S
C247 C248 1.394 . S
C247 C266 1.723 . S
C248 C245 1.396 . S
C248 C247 1.394 . S
C248 C278 1.743 . S
H249 C272 0.937 1_554 S
H250 C273 0.948 . S
H251 C279 0.982 . S
H252 C280 0.979 . S
H253 C280 0.980 . S
H254 C280 0.983 . S
H255 C279 0.979 . S
H256 C279 0.977 . S
C257 C245 1.453 . S
C257 H286 0.982 . S
C257 H287 0.979 . S
C257 H288 0.977 . S
C258 C245 1.684 . S
C258 H283 0.979 . S
C258 H284 0.980 . S
C258 H285 0.983 . S
C259 C260 1.391 1_565 S
C259 C264 1.391 . S
C259 H289 0.948 1_565 S
C260 C259 1.391 1_545 S
C260 C261 1.391 1_545 S
C261 C260 1.391 1_565 S
C261 C262 1.392 . S
C261 H290 0.947 . S
C262 C261 1.392 . S
C262 C263 1.419 . S
C262 H291 0.948 . S
C263 C262 1.419 . S
C263 C264 1.391 . S
C263 C267 1.397 . S
C264 C259 1.391 . S
C264 C263 1.391 . S
C264 C265 1.399 1_556 S
C265 C264 1.399 1_554 S
C265 C266 1.396 . S
C265 C268 1.453 . S
C265 C269 1.684 . S
C266 C247 1.723 . S
C266 C265 1.396 . S
C266 C267 1.394 1_554 S
C267 C263 1.397 . S
C267 C266 1.394 1_556 S
C267 C277 1.723 . S
C268 C265 1.453 . S
C268 H292 0.982 . S
C268 H293 0.979 . S
C268 H294 0.977 . S
C269 C265 1.684 . S
C269 H295 0.979 . S
C269 H296 0.980 . S
C269 H297 0.983 . S
C270 H246 0.948 . S
C270 C271 1.391 . S
C270 C275 1.391 . S
C271 C270 1.391 . S
C271 C272 1.391 . S
C272 H249 0.937 1_556 S
C272 C271 1.391 . S
C272 C273 1.392 1_556 S
C273 H250 0.948 . S
C273 C272 1.392 1_554 S
C273 C274 1.419 1_554 S
C274 C273 1.419 1_556 S
C274 C275 1.391 . S
C274 C278 1.390 1_556 S
C275 C270 1.391 . S
C275 C274 1.391 . S
C275 C276 1.399 . S
C276 C275 1.399 . S
C276 C277 1.396 . S
C276 C279 1.453 . S
C276 C280 1.684 . S
C277 C267 1.723 . S
C277 C276 1.396 . S
C277 C278 1.378 1_556 S
C278 C248 1.743 . S
C278 C274 1.390 1_554 S
C278 C277 1.378 1_554 S
C279 H251 0.982 . S
C279 H255 0.979 . S
C279 H256 0.977 . S
C279 C276 1.453 . S
C280 H252 0.979 . S
C280 H253 0.980 . S
C280 H254 0.983 . S
C280 C276 1.684 . S
H281 C299 0.948 . S
H282 C240 0.948 . S
H283 C258 0.979 . S
H284 C258 0.980 . S
H285 C258 0.983 . S
H286 C257 0.982 . S
H287 C257 0.979 . S
H288 C257 0.977 . S
H289 C259 0.948 1_545 S
H290 C261 0.947 . S
H291 C262 0.948 . S
H292 C268 0.982 . S
H293 C268 0.979 . S
H294 C268 0.977 . S
H295 C269 0.979 . S
H296 C269 0.980 . S
H297 C269 0.983 . S
H298 C242 0.947 . S
C299 C242 1.392 . S
C299 C243 1.419 . S
C299 H281 0.948 . S
C300 C301 1.391 . S
C300 C304 1.391 . S
C300 H342 0.948 . S
C301 C300 1.391 . S
C301 C302 1.391 . S
C302 C301 1.391 . S
C302 H358 0.947 . S
C302 C359 1.392 . S
C303 C304 1.391 . S
C303 C307 1.397 . S
C303 C359 1.419 . S
C304 C300 1.391 . S
C304 C303 1.391 . S
C304 C305 1.399 . S
C305 C304 1.399 . S
C305 C308 1.396 . S
C305 C317 1.453 . S
C305 C318 1.684 . S
H306 C330 0.948 1_565 S
C307 C303 1.397 . S
C307 C308 1.394 . S
C307 C326 1.723 . S
C308 C305 1.396 . S
C308 C307 1.394 . S
C308 C338 1.723 . S
H309 C332 0.947 . S
H310 C333 0.948 . S
H311 C339 0.982 . S
H312 C340 0.979 . S
H313 C340 0.980 . S
H314 C340 0.983 . S
H315 C339 0.979 . S
H316 C339 0.977 . S
C317 C305 1.453 . S
C317 H346 0.982 . S
C317 H347 0.979 . S
C317 H348 0.977 . S
C318 C305 1.684 . S
C318 H343 0.979 . S
C318 H344 0.980 . S
C318 H345 0.983 . S
C319 C320 1.391 . S
C319 C324 1.391 . S
C319 H349 0.948 . S
C320 C319 1.391 . S
C320 C321 1.391 . S
C321 C320 1.391 . S
C321 C322 1.392 . S
C321 H350 0.947 . S
C322 C321 1.392 . S
C322 C323 1.419 . S
C322 H351 0.948 . S
C323 C322 1.419 . S
C323 C324 1.391 . S
C323 C327 1.397 . S
C324 C319 1.391 . S
C324 C323 1.391 . S
C324 C325 1.399 . S
C325 C324 1.399 . S
C325 C326 1.396 . S
C325 C328 1.453 . S
C325 C329 1.684 . S
C326 C307 1.723 . S
C326 C325 1.396 . S
C326 C327 1.394 . S
C327 C323 1.397 . S
C327 C326 1.394 . S
C327 C337 1.723 . S
C328 C325 1.453 . S
C328 H352 0.982 . S
C328 H353 0.979 . S
C328 H354 0.977 . S
C329 C325 1.684 . S
C329 H355 0.979 . S
C329 H356 0.980 . S
C329 H357 0.983 . S
C330 H306 0.948 1_545 S
C330 C331 1.391 1_545 S
C330 C335 1.391 . S
C331 C330 1.391 1_565 S
C331 C332 1.391 1_565 S
C332 H309 0.947 . S
C332 C331 1.391 1_545 S
C332 C333 1.392 . S
C333 H310 0.948 . S
C333 C332 1.392 . S
C333 C334 1.419 . S
C334 C333 1.419 . S
C334 C335 1.391 . S
C334 C338 1.397 . S
C335 C330 1.391 . S
C335 C334 1.391 . S
C335 C336 1.399 . S
C336 C335 1.399 . S
C336 C337 1.396 . S
C336 C339 1.453 . S
C336 C340 1.684 . S
C337 C327 1.723 . S
C337 C336 1.396 . S
C337 C338 1.394 . S
C338 C308 1.723 . S
C338 C334 1.397 . S
C338 C337 1.394 . S
C339 H311 0.982 . S
C339 H315 0.979 . S
C339 H316 0.977 . S
C339 C336 1.453 . S
C340 H312 0.979 . S
C340 H313 0.980 . S
C340 H314 0.983 . S
C340 C336 1.684 . S
H341 C359 0.948 . S
H342 C300 0.948 . S
H343 C318 0.979 . S
H344 C318 0.980 . S
H345 C318 0.983 . S
H346 C317 0.982 . S
H347 C317 0.979 . S
H348 C317 0.977 . S
H349 C319 0.948 . S
H350 C321 0.947 . S
H351 C322 0.948 . S
H352 C328 0.982 . S
H353 C328 0.979 . S
H354 C328 0.977 . S
H355 C329 0.979 . S
H356 C329 0.980 . S
H357 C329 0.983 . S
H358 C302 0.947 . S
C359 C302 1.392 . S
C359 C303 1.419 . S
C359 H341 0.948 . S
C360 C361 1.391 1_565 S
C360 C364 1.391 . S
C360 H402 0.948 . S
C361 C360 1.391 1_545 S
C361 C362 1.391 . S
C362 C361 1.391 . S
C362 H418 0.947 . S
C362 C419 1.392 1_545 S
C363 C364 1.391 . S
C363 C367 1.397 . S
C363 C419 1.419 . S
C364 C360 1.391 . S
C364 C363 1.391 . S
C364 C365 1.399 . S
C365 C364 1.399 . S
C365 C368 1.396 . S
C365 C377 1.453 . S
C365 C378 1.684 . S
H366 C390 0.948 . S
C367 C363 1.397 . S
C367 C368 1.394 . S
C367 C386 1.723 1_556 S
C368 C365 1.396 . S
C368 C367 1.394 . S
C368 C398 1.723 . S
H369 C392 0.947 . S
H370 C393 0.948 . S
H371 C399 0.982 . S
H372 C400 0.979 . S
H373 C400 0.980 . S
H374 C400 0.983 . S
H375 C399 0.979 . S
H376 C399 0.977 . S
C377 C365 1.453 . S
C377 H406 0.982 . S
C377 H407 0.979 . S
C377 H408 0.977 . S
C378 C365 1.684 . S
C378 H403 0.979 . S
C378 H404 0.980 . S
C378 H405 0.983 . S
C379 C380 1.391 . S
C379 C384 1.391 . S
C379 H409 0.948 . S
C380 C379 1.391 . S
C380 C381 1.391 . S
C381 C380 1.391 . S
C381 C382 1.392 . S
C381 H410 0.947 . S
C382 C381 1.392 . S
C382 C383 1.419 . S
C382 H411 0.948 . S
C383 C382 1.419 . S
C383 C384 1.391 . S
C383 C387 1.397 . S
C384 C379 1.391 . S
C384 C383 1.391 . S
C384 C385 1.399 . S
C385 C384 1.399 . S
C385 C386 1.396 . S
C385 C388 1.453 . S
C385 C389 1.684 . S
C386 C367 1.723 1_554 S
C386 C385 1.396 . S
C386 C387 1.394 . S
C387 C383 1.397 . S
C387 C386 1.394 . S
C387 C397 1.723 . S
C388 C385 1.453 . S
C388 H412 0.982 . S
C388 H413 0.979 . S
C388 H414 0.977 . S
C389 C385 1.684 . S
C389 H415 0.979 . S
C389 H416 0.980 . S
C389 H417 0.983 . S
C390 H366 0.948 . S
C390 C391 1.391 . S
C390 C395 1.391 . S
C391 C390 1.391 . S
C391 C392 1.391 . S
C392 H369 0.947 . S
C392 C391 1.391 . S
C392 C393 1.392 . S
C393 H370 0.948 . S
C393 C392 1.392 . S
C393 C394 1.419 . S
C394 C393 1.419 . S
C394 C395 1.391 . S
C394 C398 1.397 . S
C395 C390 1.391 . S
C395 C394 1.391 . S
C395 C396 1.399 1_556 S
C396 C395 1.399 1_554 S
C396 C397 1.396 . S
C396 C399 1.453 . S
C396 C400 1.684 . S
C397 C387 1.723 . S
C397 C396 1.396 . S
C397 C398 1.394 1_554 S
C398 C368 1.723 . S
C398 C394 1.397 . S
C398 C397 1.394 1_556 S
C399 H371 0.982 . S
C399 H375 0.979 . S
C399 H376 0.977 . S
C399 C396 1.453 . S
C400 H372 0.979 . S
C400 H373 0.980 . S
C400 H374 0.983 . S
C400 C396 1.684 . S
H401 C419 0.948 1_554 S
H402 C360 0.948 . S
H403 C378 0.979 . S
H404 C378 0.980 . S
H405 C378 0.983 . S
H406 C377 0.982 . S
H407 C377 0.979 . S
H408 C377 0.977 . S
H409 C379 0.948 . S
H410 C381 0.947 . S
H411 C382 0.948 . S
H412 C388 0.982 . S
H413 C388 0.979 . S
H414 C388 0.977 . S
H415 C389 0.979 . S
H416 C389 0.980 . S
H417 C389 0.983 . S
H418 C362 0.947 . S
C419 C362 1.392 1_565 S
C419 C363 1.419 . S
C419 H401 0.948 1_556 S
C420 C421 1.391 . S
C420 C424 1.391 . S
C420 H462 0.948 . S
C421 C420 1.391 . S
C421 C422 1.391 . S
C422 C421 1.391 . S
C422 H478 0.947 . S
C422 C479 1.392 . S
C423 C424 1.391 . S
C423 C427 1.397 . S
C423 C479 1.419 . S
C424 C420 1.391 . S
C424 C423 1.391 . S
C424 C425 1.399 . S
C425 C424 1.399 . S
C425 C428 1.396 . S
C425 C437 1.453 . S
C425 C438 1.684 . S
H426 C450 0.948 . S
C427 C423 1.397 . S
C427 C428 1.394 . S
C427 C446 1.723 . S
C428 C425 1.396 . S
C428 C427 1.394 . S
C428 C458 1.723 . S
H429 C452 0.947 1_565 S
H430 C453 0.948 . S
H431 C459 0.982 . S
H432 C460 0.964 1_565 S
H433 C460 0.980 . S
H434 C460 0.983 1_565 S
H435 C459 0.979 . S
H436 C459 0.977 . S
C437 C425 1.453 . S
C437 H466 0.982 . S
C437 H467 0.979 . S
C437 H468 0.977 . S
C438 C425 1.684 . S
C438 H463 0.979 . S
C438 H464 0.980 . S
C438 H465 0.983 . S
C439 C440 1.391 . S
C439 C444 1.391 . S
C439 H469 0.948 . S
C440 C439 1.391 . S
C440 C441 1.391 . S
C441 C440 1.391 . S
C441 C442 1.392 . S
C441 H470 0.947 . S
C442 C441 1.392 . S
C442 C443 1.419 . S
C442 H471 0.948 . S
C443 C442 1.419 . S
C443 C444 1.391 . S
C443 C447 1.397 . S
C444 C439 1.391 . S
C444 C443 1.391 . S
C444 C445 1.399 . S
C445 C444 1.399 . S
C445 C446 1.396 . S
C445 C448 1.453 . S
C445 C449 1.684 . S
C446 C427 1.723 . S
C446 C445 1.396 . S
C446 C447 1.394 . S
C447 C443 1.397 . S
C447 C446 1.394 . S
C447 C457 1.723 . S
C448 C445 1.453 . S
C448 H472 0.982 . S
C448 H473 0.979 . S
C448 H474 0.977 . S
C449 C445 1.684 . S
C449 H475 0.979 . S
C449 H476 0.980 . S
C449 H477 0.983 . S
C450 H426 0.948 . S
C450 C451 1.391 . S
C450 C455 1.391 1_565 S
C451 C450 1.391 . S
C451 C452 1.391 1_565 S
C452 H429 0.947 1_545 S
C452 C451 1.391 1_545 S
C452 C453 1.392 . S
C453 H430 0.948 . S
C453 C452 1.392 . S
C453 C454 1.419 . S
C454 C453 1.419 . S
C454 C455 1.391 . S
C454 C458 1.397 . S
C455 C450 1.391 1_545 S
C455 C454 1.391 . S
C455 C456 1.399 . S
C456 C455 1.399 . S
C456 C457 1.396 . S
C456 C459 1.453 . S
C456 C460 1.684 . S
C457 C447 1.723 . S
C457 C456 1.396 . S
C457 C458 1.394 . S
C458 C428 1.723 . S
C458 C454 1.397 . S
C458 C457 1.394 . S
C459 H431 0.982 . S
C459 H435 0.979 . S
C459 H436 0.977 . S
C459 C456 1.453 . S
C460 H432 0.964 1_545 S
C460 H433 0.980 . S
C460 H434 0.983 1_545 S
C460 C456 1.684 . S
H461 C479 0.948 . S
H462 C420 0.948 . S
H463 C438 0.979 . S
H464 C438 0.980 . S
H465 C438 0.983 . S
H466 C437 0.982 . S
H467 C437 0.979 . S
H468 C437 0.977 . S
H469 C439 0.948 . S
H470 C441 0.947 . S
H471 C442 0.948 . S
H472 C448 0.982 . S
H473 C448 0.979 . S
H474 C448 0.977 . S
H475 C449 0.979 . S
H476 C449 0.980 . S
H477 C449 0.983 . S
H478 C422 0.947 . S
C479 C422 1.392 . S
C479 C423 1.419 . S
C479 H461 0.948 . S
Fe480 O482 1.918 . S
Fe480 O485 1.997 1_455 S
Fe480 O486 2.002 1_455 S
Fe480 O491 1.976 . S
Fe480 O494 1.996 . S
Fe481 O482 1.918 . S
Fe481 O489 1.997 1_455 S
Fe481 O492 1.996 . S
Fe481 O496 1.976 . S
Fe481 O499 2.002 1_455 S
O482 Fe480 1.918 . S
O482 Fe481 1.918 . S
O482 Fe483 1.918 . S
Fe483 O482 1.918 . S
Fe483 O484 2.002 1_455 S
Fe483 O493 1.976 . S
Fe483 O497 1.996 . S
Fe483 O500 1.997 1_455 S
O484 Fe483 2.002 1_655 S
O484 C501 1.295 . S
O485 Fe480 1.997 1_655 S
O485 C501 1.235 . S
O486 Fe480 2.002 1_655 S
O486 C487 1.295 . S
C487 O486 1.295 . S
C487 O489 1.235 . S
C488 O493 1.287 . S
C488 O494 1.255 . S
O489 Fe481 1.997 1_655 S
O489 C487 1.235 . S
C490 O496 1.287 . S
C490 O497 1.255 . S
O491 Fe480 1.976 . S
O491 C498 1.287 . S
O492 Fe481 1.996 . S
O492 C498 1.255 . S
O493 Fe483 1.976 . S
O493 C488 1.287 . S
O494 Fe480 1.996 . S
O494 C488 1.255 . S
C495 O499 1.295 . S
C495 O500 1.235 . S
O496 Fe481 1.976 . S
O496 C490 1.287 . S
O497 Fe483 1.996 . S
O497 C490 1.255 . S
C498 O491 1.287 . S
C498 O492 1.255 . S
O499 Fe481 2.002 1_655 S
O499 C495 1.295 . S
O500 Fe483 1.997 1_655 S
O500 C495 1.235 . S
C501 O484 1.295 . S
C501 O485 1.235 . S
Fe502 O504 1.918 . S
Fe502 O507 1.997 1_655 S
Fe502 O508 2.002 1_655 S
Fe502 O513 1.976 . S
Fe502 O516 1.996 . S
Fe503 O504 1.918 . S
Fe503 O511 1.997 1_655 S
Fe503 O514 1.996 . S
Fe503 O518 1.976 . S
Fe503 O521 2.002 1_655 S
O504 Fe502 1.918 . S
O504 Fe503 1.918 . S
O504 Fe505 1.918 . S
Fe505 O504 1.918 . S
Fe505 O506 2.002 1_655 S
Fe505 O515 1.976 . S
Fe505 O519 1.996 . S
Fe505 O522 1.997 1_655 S
O506 Fe505 2.002 1_455 S
O506 C523 1.295 . S
O507 Fe502 1.997 1_455 S
O507 C523 1.235 . S
O508 Fe502 2.002 1_455 S
O508 C509 1.295 . S
C509 O508 1.295 . S
C509 O511 1.235 . S
C510 O515 1.287 . S
C510 O516 1.255 . S
O511 Fe503 1.997 1_455 S
O511 C509 1.235 . S
C512 O518 1.287 . S
C512 O519 1.255 . S
O513 Fe502 1.976 . S
O513 C520 1.287 . S
O514 Fe503 1.996 . S
O514 C520 1.255 . S
O515 Fe505 1.976 . S
O515 C510 1.287 . S
O516 Fe502 1.996 . S
O516 C510 1.255 . S
C517 O521 1.295 . S
C517 O522 1.235 . S
O518 Fe503 1.976 . S
O518 C512 1.287 . S
O519 Fe505 1.996 . S
O519 C512 1.255 . S
C520 O513 1.287 . S
C520 O514 1.255 . S
O521 Fe503 2.002 1_455 S
O521 C517 1.295 . S
O522 Fe505 1.997 1_455 S
O522 C517 1.235 . S
C523 O506 1.295 . S
C523 O507 1.235 . S
Fe524 O526 1.918 . S
Fe524 O529 1.997 . S
Fe524 O530 2.002 . S
Fe524 O535 1.976 . S
Fe524 O538 1.996 . S
Fe525 O526 1.918 . S
Fe525 O533 1.997 . S
Fe525 O536 1.996 . S
Fe525 O540 1.976 . S
Fe525 O543 2.002 . S
O526 Fe524 1.918 . S
O526 Fe525 1.918 . S
O526 Fe527 1.918 . S
Fe527 O526 1.918 . S
Fe527 O528 2.002 . S
Fe527 O537 1.976 . S
Fe527 O541 1.996 . S
Fe527 O544 1.997 . S
O528 Fe527 2.002 . S
O528 C545 1.295 . S
O529 Fe524 1.997 . S
O529 C545 1.235 . S
O530 Fe524 2.002 . S
O530 C531 1.295 . S
C531 O530 1.295 . S
C531 O533 1.235 . S
C532 O537 1.287 . S
C532 O538 1.255 . S
O533 Fe525 1.997 . S
O533 C531 1.235 . S
C534 O540 1.287 . S
C534 O541 1.255 . S
O535 Fe524 1.976 . S
O535 C542 1.287 . S
O536 Fe525 1.996 . S
O536 C542 1.255 . S
O537 Fe527 1.976 . S
O537 C532 1.287 . S
O538 Fe524 1.996 . S
O538 C532 1.255 . S
C539 O543 1.295 . S
C539 O544 1.235 . S
O540 Fe525 1.976 . S
O540 C534 1.287 . S
O541 Fe527 1.996 . S
O541 C534 1.255 . S
C542 O535 1.287 . S
C542 O536 1.255 . S
O543 Fe525 2.002 . S
O543 C539 1.295 . S
O544 Fe527 1.997 . S
O544 C539 1.235 . S
C545 O528 1.295 . S
C545 O529 1.235 . S
Fe546 O548 1.918 . S
Fe546 O551 1.997 . S
Fe546 O552 2.002 . S
Fe546 O557 1.976 . S
Fe546 O560 1.996 . S
Fe547 O548 1.918 . S
Fe547 O555 1.997 . S
Fe547 O558 1.996 . S
Fe547 O562 1.976 . S
Fe547 O565 2.002 . S
O548 Fe546 1.918 . S
O548 Fe547 1.918 . S
O548 Fe549 1.918 . S
Fe549 O548 1.918 . S
Fe549 O550 2.002 . S
Fe549 O559 1.976 . S
Fe549 O563 1.996 . S
Fe549 O566 1.997 . S
O550 Fe549 2.002 . S
O550 C567 1.295 . S
O551 Fe546 1.997 . S
O551 C567 1.235 . S
O552 Fe546 2.002 . S
O552 C553 1.295 . S
C553 O552 1.295 . S
C553 O555 1.235 . S
C554 O559 1.287 . S
C554 O560 1.255 . S
O555 Fe547 1.997 . S
O555 C553 1.235 . S
C556 O562 1.287 . S
C556 O563 1.255 . S
O557 Fe546 1.976 . S
O557 C564 1.287 . S
O558 Fe547 1.996 . S
O558 C564 1.255 . S
O559 Fe549 1.976 . S
O559 C554 1.287 . S
O560 Fe546 1.996 . S
O560 C554 1.255 . S
C561 O565 1.295 . S
C561 O566 1.235 . S
O562 Fe547 1.976 . S
O562 C556 1.287 . S
O563 Fe549 1.996 . S
O563 C556 1.255 . S
C564 O557 1.287 . S
C564 O558 1.255 . S
O565 Fe547 2.002 . S
O565 C561 1.295 . S
O566 Fe549 1.997 . S
O566 C561 1.235 . S
C567 O550 1.295 . S
C567 O551 1.235 . S
C568 C569 1.387 . S
C568 H572 0.950 . S
C568 C577 1.390 . S
C569 C568 1.387 . S
C569 C571 1.387 . S
H570 C577 0.950 . S
C571 C569 1.387 . S
C571 C573 1.390 . S
C571 H575 0.950 . S
H572 C568 0.950 . S
C573 C571 1.390 . S
C573 C574 1.387 . S
C573 H576 0.950 . S
C574 C573 1.387 . S
C574 C577 1.387 . S
H575 C571 0.950 . S
H576 C573 0.950 . S
C577 C568 1.390 . S
C577 H570 0.950 . S
C577 C574 1.387 . S
C578 C579 1.387 . S
C578 H582 0.950 . S
C578 C587 1.390 . S
C579 C578 1.387 . S
C579 C581 1.387 . S
H580 C587 0.950 . S
C581 C579 1.387 . S
C581 C583 1.390 . S
C581 H585 0.950 . S
H582 C578 0.950 . S
C583 C581 1.390 . S
C583 C584 1.387 . S
C583 H586 0.950 . S
C584 C583 1.387 . S
C584 C587 1.387 . S
H585 C581 0.950 . S
H586 C583 0.950 . S
C587 C578 1.390 . S
C587 H580 0.950 . S
C587 C584 1.387 . S
C588 C589 1.387 . S
C588 H592 0.950 . S
C588 C597 1.390 . S
C589 C588 1.387 . S
C589 C591 1.387 . S
H590 C597 0.950 . S
C591 C589 1.387 . S
C591 C593 1.390 . S
C591 H595 0.950 . S
H592 C588 0.950 . S
C593 C591 1.390 . S
C593 C594 1.387 . S
C593 H596 0.950 . S
C594 C593 1.387 . S
C594 C597 1.387 . S
H595 C591 0.950 . S
H596 C593 0.950 . S
C597 C588 1.390 . S
C597 H590 0.950 . S
C597 C594 1.387 . S
C598 C599 1.387 . S
C598 H602 0.950 . S
C598 C607 1.390 . S
C599 C598 1.387 . S
C599 C601 1.387 . S
H600 C607 0.950 . S
C601 C599 1.387 . S
C601 C603 1.390 . S
C601 H605 0.950 . S
H602 C598 0.950 . S
C603 C601 1.390 . S
C603 C604 1.387 . S
C603 H606 0.950 . S
C604 C603 1.387 . S
C604 C607 1.387 . S
H605 C601 0.950 . S
H606 C603 0.950 . S
C607 C598 1.390 . S
C607 H600 0.950 . S
C607 C604 1.387 . S
C608 C609 1.387 . S
C608 H612 0.950 . S
C608 C617 1.390 . S
C609 C608 1.387 . S
C609 C611 1.387 . S
H610 C617 0.950 . S
C611 C609 1.387 . S
C611 C613 1.390 . S
C611 H615 0.950 . S
H612 C608 0.950 . S
C613 C611 1.390 . S
C613 C614 1.387 . S
C613 H616 0.950 . S
C614 C613 1.387 . S
C614 C617 1.387 . S
H615 C611 0.950 . S
H616 C613 0.950 . S
C617 C608 1.390 . S
C617 H610 0.950 . S
C617 C614 1.387 . S
C618 C619 1.387 . S
C618 H622 0.950 . S
C618 C627 1.390 . S
C619 C618 1.387 . S
C619 C621 1.387 . S
H620 C627 0.950 . S
C621 C619 1.387 . S
C621 C623 1.390 . S
C621 H625 0.950 . S
H622 C618 0.950 . S
C623 C621 1.390 . S
C623 C624 1.387 . S
C623 H626 0.950 . S
C624 C623 1.387 . S
C624 C627 1.387 . S
H625 C621 0.950 . S
H626 C623 0.950 . S
C627 C618 1.390 . S
C627 H620 0.950 . S
C627 C624 1.387 . S
C628 C629 1.387 . S
C628 H632 0.950 . S
C628 C637 1.390 . S
C629 C628 1.387 . S
C629 C631 1.387 . S
H630 C637 0.950 . S
C631 C629 1.387 . S
C631 C633 1.390 . S
C631 H635 0.950 . S
H632 C628 0.950 . S
C633 C631 1.390 . S
C633 C634 1.387 . S
C633 H636 0.950 . S
C634 C633 1.387 . S
C634 C637 1.387 . S
H635 C631 0.950 . S
H636 C633 0.950 . S
C637 C628 1.390 . S
C637 H630 0.950 . S
C637 C634 1.387 . S
C638 C639 1.387 . S
C638 H642 0.950 . S
C638 C647 1.390 . S
C639 C638 1.387 . S
C639 C641 1.387 . S
H640 C647 0.950 . S
C641 C639 1.387 . S
C641 C643 1.390 . S
C641 H645 0.950 . S
H642 C638 0.950 . S
C643 C641 1.390 . S
C643 C644 1.387 . S
C643 H646 0.950 . S
C644 C643 1.387 . S
C644 C647 1.387 . S
H645 C641 0.950 . S
H646 C643 0.950 . S
C647 C638 1.390 . S
C647 H640 0.950 . S
C647 C644 1.387 . S
C648 C649 1.387 . S
C648 H652 0.950 . S
C648 C657 1.390 . S
C649 C648 1.387 . S
C649 C651 1.387 . S
H650 C657 0.950 . S
C651 C649 1.387 . S
C651 C653 1.390 . S
C651 H655 0.950 . S
H652 C648 0.950 . S
C653 C651 1.390 . S
C653 C654 1.387 . S
C653 H656 0.950 . S
C654 C653 1.387 . S
C654 C657 1.387 . S
H655 C651 0.950 . S
H656 C653 0.950 . S
C657 C648 1.390 . S
C657 H650 0.950 . S
C657 C654 1.387 . S
C658 C659 1.387 . S
C658 H662 0.950 . S
C658 C667 1.390 . S
C659 C658 1.387 . S
C659 C661 1.387 . S
H660 C667 0.950 . S
C661 C659 1.387 . S
C661 C663 1.390 . S
C661 H665 0.950 . S
H662 C658 0.950 . S
C663 C661 1.390 . S
C663 C664 1.387 . S
C663 H666 0.950 . S
C664 C663 1.387 . S
C664 C667 1.387 . S
H665 C661 0.950 . S
H666 C663 0.950 . S
C667 C658 1.390 . S
C667 H660 0.950 . S
C667 C664 1.387 . S
C668 C669 1.387 . S
C668 H672 0.950 . S
C668 C677 1.390 . S
C669 C668 1.387 . S
C669 C671 1.387 . S
H670 C677 0.950 . S
C671 C669 1.387 . S
C671 C673 1.390 . S
C671 H675 0.950 . S
H672 C668 0.950 . S
C673 C671 1.390 . S
C673 C674 1.387 . S
C673 H676 0.950 . S
C674 C673 1.387 . S
C674 C677 1.387 . S
H675 C671 0.950 . S
H676 C673 0.950 . S
C677 C668 1.390 . S
C677 H670 0.950 . S
C677 C674 1.387 . S
C678 C679 1.387 . S
C678 H682 0.950 . S
C678 C687 1.390 . S
C679 C678 1.387 . S
C679 C681 1.387 . S
H680 C687 0.950 . S
C681 C679 1.387 . S
C681 C683 1.390 . S
C681 H685 0.950 . S
H682 C678 0.950 . S
C683 C681 1.390 . S
C683 C684 1.387 . S
C683 H686 0.950 . S
C684 C683 1.387 . S
C684 C687 1.387 . S
H685 C681 0.950 . S
H686 C683 0.950 . S
C687 C678 1.390 . S
C687 H680 0.950 . S
C687 C684 1.387 . S
C688 C689 1.387 . S
C688 H692 0.950 . S
C688 C697 1.390 . S
C689 C688 1.387 . S
C689 C691 1.387 . S
H690 C697 0.950 . S
C691 C689 1.387 . S
C691 C693 1.390 . S
C691 H695 0.950 . S
H692 C688 0.950 . S
C693 C691 1.390 . S
C693 C694 1.387 . S
C693 H696 0.950 . S
C694 C693 1.387 . S
C694 C697 1.387 . S
H695 C691 0.950 . S
H696 C693 0.950 . S
C697 C688 1.390 . S
C697 H690 0.950 . S
C697 C694 1.387 . S
C698 C699 1.387 . S
C698 H702 0.950 . S
C698 C707 1.390 . S
C699 C698 1.387 . S
C699 C701 1.387 . S
H700 C707 0.950 . S
C701 C699 1.387 . S
C701 C703 1.390 . S
C701 H705 0.950 . S
H702 C698 0.950 . S
C703 C701 1.390 . S
C703 C704 1.387 . S
C703 H706 0.950 . S
C704 C703 1.387 . S
C704 C707 1.387 . S
H705 C701 0.950 . S
H706 C703 0.950 . S
C707 C698 1.390 . S
C707 H700 0.950 . S
C707 C704 1.387 . S
C708 C709 1.387 . S
C708 H712 0.950 . S
C708 C717 1.390 . S
C709 C708 1.387 . S
C709 C711 1.387 . S
H710 C717 0.950 . S
C711 C709 1.387 . S
C711 C713 1.390 . S
C711 H715 0.950 . S
H712 C708 0.950 . S
C713 C711 1.390 . S
C713 C714 1.387 . S
C713 H716 0.950 . S
C714 C713 1.387 . S
C714 C717 1.387 . S
H715 C711 0.950 . S
H716 C713 0.950 . S
C717 C708 1.390 . S
C717 H710 0.950 . S
C717 C714 1.387 . S
C718 C719 1.387 . S
C718 H722 0.950 . S
C718 C727 1.390 . S
C719 C718 1.387 . S
C719 C721 1.387 . S
H720 C727 0.950 . S
C721 C719 1.387 . S
C721 C723 1.390 . S
C721 H725 0.950 . S
H722 C718 0.950 . S
C723 C721 1.390 . S
C723 C724 1.387 . S
C723 H726 0.950 . S
C724 C723 1.387 . S
C724 C727 1.387 . S
H725 C721 0.950 . S
H726 C723 0.950 . S
C727 C718 1.390 . S
C727 H720 0.950 . S
C727 C724 1.387 . S
C728 C729 1.387 . S
C728 H732 0.950 . S
C728 C737 1.390 . S
C729 C728 1.387 . S
C729 C731 1.387 . S
H730 C737 0.950 . S
C731 C729 1.387 . S
C731 C733 1.390 . S
C731 H735 0.950 . S
H732 C728 0.950 . S
C733 C731 1.390 . S
C733 C734 1.387 . S
C733 H736 0.950 . S
C734 C733 1.387 . S
C734 C737 1.387 . S
H735 C731 0.950 . S
H736 C733 0.950 . S
C737 C728 1.390 . S
C737 H730 0.950 . S
C737 C734 1.387 . S
C738 C739 1.387 . S
C738 H742 0.950 . S
C738 C747 1.390 . S
C739 C738 1.387 . S
C739 C741 1.387 . S
H740 C747 0.950 . S
C741 C739 1.387 . S
C741 C743 1.390 . S
C741 H745 0.950 . S
H742 C738 0.950 . S
C743 C741 1.390 . S
C743 C744 1.387 . S
C743 H746 0.950 . S
C744 C743 1.387 . S
C744 C747 1.387 . S
H745 C741 0.950 . S
H746 C743 0.950 . S
C747 C738 1.390 . S
C747 H740 0.950 . S
C747 C744 1.387 . S
C748 C749 1.387 . S
C748 H752 0.950 . S
C748 C757 1.390 . S
C749 C748 1.387 . S
C749 C751 1.387 . S
H750 C757 0.950 . S
C751 C749 1.387 . S
C751 C753 1.390 . S
C751 H755 0.950 . S
H752 C748 0.950 . S
C753 C751 1.390 . S
C753 C754 1.387 . S
C753 H756 0.950 . S
C754 C753 1.387 . S
C754 C757 1.387 . S
H755 C751 0.950 . S
H756 C753 0.950 . S
C757 C748 1.390 . S
C757 H750 0.950 . S
C757 C754 1.387 . S
C758 C759 1.387 . S
C758 H762 0.950 . S
C758 C767 1.390 . S
C759 C758 1.387 . S
C759 C761 1.387 . S
H760 C767 0.950 . S
C761 C759 1.387 . S
C761 C763 1.390 . S
C761 H765 0.950 . S
H762 C758 0.950 . S
C763 C761 1.390 . S
C763 C764 1.387 . S
C763 H766 0.950 . S
C764 C763 1.387 . S
C764 C767 1.387 . S
H765 C761 0.950 . S
H766 C763 0.950 . S
C767 C758 1.390 . S
C767 H760 0.950 . S
C767 C764 1.387 . S
C768 C769 1.387 . S
C768 H772 0.950 . S
C768 C777 1.390 . S
C769 C768 1.387 . S
C769 C771 1.387 . S
H770 C777 0.950 . S
C771 C769 1.387 . S
C771 C773 1.390 . S
C771 H775 0.950 . S
H772 C768 0.950 . S
C773 C771 1.390 . S
C773 C774 1.387 . S
C773 H776 0.950 . S
C774 C773 1.387 . S
C774 C777 1.387 . S
H775 C771 0.950 . S
H776 C773 0.950 . S
C777 C768 1.390 . S
C777 H770 0.950 . S
C777 C774 1.387 . S
C778 C779 1.387 . S
C778 H782 0.950 . S
C778 C787 1.390 . S
C779 C778 1.387 . S
C779 C781 1.387 . S
H780 C787 0.950 . S
C781 C779 1.387 . S
C781 C783 1.390 . S
C781 H785 0.950 . S
H782 C778 0.950 . S
C783 C781 1.390 . S
C783 C784 1.387 . S
C783 H786 0.950 . S
C784 C783 1.387 . S
C784 C787 1.387 . S
H785 C781 0.950 . S
H786 C783 0.950 . S
C787 C778 1.390 . S
C787 H780 0.950 . S
C787 C784 1.387 . S
C788 C789 1.387 . S
C788 H792 0.950 . S
C788 C797 1.390 . S
C789 C788 1.387 . S
C789 C791 1.387 . S
H790 C797 0.950 . S
C791 C789 1.387 . S
C791 C793 1.390 . S
C791 H795 0.950 . S
H792 C788 0.950 . S
C793 C791 1.390 . S
C793 C794 1.387 . S
C793 H796 0.950 . S
C794 C793 1.387 . S
C794 C797 1.387 . S
H795 C791 0.950 . S
H796 C793 0.950 . S
C797 C788 1.390 . S
C797 H790 0.950 . S
C797 C794 1.387 . S
C798 C799 1.387 . S
C798 H802 0.950 . S
C798 C807 1.390 . S
C799 C798 1.387 . S
C799 C801 1.387 . S
H800 C807 0.950 . S
C801 C799 1.387 . S
C801 C803 1.390 . S
C801 H805 0.950 . S
H802 C798 0.950 . S
C803 C801 1.390 . S
C803 C804 1.387 . S
C803 H806 0.950 . S
C804 C803 1.387 . S
C804 C807 1.387 . S
H805 C801 0.950 . S
H806 C803 0.950 . S
C807 C798 1.390 . S
C807 H800 0.950 . S
C807 C804 1.387 . S
C569 C31 1.537 . S
C574 C523 1.554 . S
C584 C487 1.554 . S
C579 C61 1.538 . S
C594 C510 1.549 . S
C589 C151 1.489 . S
C604 C498 1.550 . S
C599 C181 1.564 . S
C614 C567 1.551 . S
C609 C271 1.536 . S
C624 C531 1.552 . S
C619 C301 1.535 . S
C629 C391 1.491 . S
C634 C554 1.550 . S
C644 C542 1.549 . S
C639 C421 1.563 . S
C649 C20 1.536 . S
C654 C564 1.579 . S
C664 C534 1.579 . S
C659 C91 1.536 . S
C669 C121 1.475 . S
C674 C553 1.609 . S
C679 C211 1.607 . S
C684 C539 1.609 . S
C694 C520 1.579 . S
C689 C260 1.536 . S
C699 C331 1.534 . S
C704 C490 1.578 . S
C714 C509 1.609 . S
C709 C361 1.479 . S
C724 C495 1.609 . S
C719 C451 1.606 . S
C734 C545 1.590 . S
C729 C1 1.467 . S
C744 C561 1.590 . S
C739 C80 1.472 . S
C749 C140 1.509 . S
C754 C532 1.569 . S
C764 C556 1.568 . S
C759 C200 1.505 . S
C774 C501 1.589 . S
C769 C241 1.468 . S
C779 C320 1.467 . S
C784 C517 1.590 . S
C789 C380 1.508 . S
C794 C488 1.569 . S
C799 C440 1.507 . S
C804 C512 1.569 . S
