# Generated by pormake.
# Topology tsx, (6,3)-cn, num edge types: 1
# Building blocks:
#     Node 0, Type 0, BuildingBlock: MIDCAF_clean_sbu_0, # of connection points: 6
#     Node 1, Type 0, BuildingBlock: MIDCAF_clean_sbu_0, # of connection points: 6
#     Node 2, Type 1, BuildingBlock: INOVEN_clean_linker_0, # of connection points: 3
#     Node 3, Type 1, BuildingBlock: INOVEN_clean_linker_0, # of connection points: 3
#     Node 4, Type 1, BuildingBlock: INOVEN_clean_linker_0, # of connection points: 3
#     Node 5, Type 1, BuildingBlock: INOVEN_clean_linker_0, # of connection points: 3
#     Edge 6, Type (0, 1), BuildingBlock: FUNLAD_clean_linker_0, # of connection points: 2
#     Edge 7, Type (0, 1), BuildingBlock: FUNLAD_clean_linker_0, # of connection points: 2
#     Edge 8, Type (0, 1), BuildingBlock: FUNLAD_clean_linker_0, # of connection points: 2
#     Edge 9, Type (0, 1), BuildingBlock: FUNLAD_clean_linker_0, # of connection points: 2
#     Edge 10, Type (0, 1), BuildingBlock: FUNLAD_clean_linker_0, # of connection points: 2
#     Edge 11, Type (0, 1), BuildingBlock: FUNLAD_clean_linker_0, # of connection points: 2
#     Edge 12, Type (0, 1), BuildingBlock: FUNLAD_clean_linker_0, # of connection points: 2
#     Edge 13, Type (0, 1), BuildingBlock: FUNLAD_clean_linker_0, # of connection points: 2
#     Edge 14, Type (0, 1), BuildingBlock: FUNLAD_clean_linker_0, # of connection points: 2
#     Edge 15, Type (0, 1), BuildingBlock: FUNLAD_clean_linker_0, # of connection points: 2
#     Edge 16, Type (0, 1), BuildingBlock: FUNLAD_clean_linker_0, # of connection points: 2
#     Edge 17, Type (0, 1), BuildingBlock: FUNLAD_clean_linker_0, # of connection points: 2
# Relax obj value: 0.077
# Max RMSD: 0.149
# Mean RMSD: 0.106
data_MOF--net-tsx--node1-MIDCAF_clean_sbu_0--node2-INOVEN_clean_linker_0--edge1-FUNLAD_clean_linker_0
_symmetry_space_group_name_H-M    P1
_symmetry_Int_Tables_number       1
_symmetry_cell_setting            triclinic
loop_
_symmetry_equiv_pos_as_xyz
'x, y, z'
_cell_length_a     22.872081
_cell_length_b     24.362881
_cell_length_c     41.729615
_cell_angle_alpha  91.000607
_cell_angle_beta   104.331
_cell_angle_gamma 89.764496
loop_
_atom_site_label
_atom_site_type_symbol
_atom_site_fract_x
_atom_site_fract_y
_atom_site_fract_z
_atom_type_partial_charge
Zn0 Zn 0.93798 0.03007 0.9493 0.0
Zn1 Zn 0.14493 0.00246 0.04309 0.0
Zn2 Zn 0.04263 0.01864 -0.00405 0.0
C3 C 0.12992 0.11671 0.03154 0.0
C4 C 0.15956 0.94858 0.98655 0.0
O5 O 0.96888 0.97729 0.01185 0.0
O6 O 0.88483 0.99331 0.97345 0.0
C7 C 0.98241 0.13549 0.96959 0.0
O8 O 0.08172 0.10083 0.01029 0.0
O9 O 0.16413 0.08206 0.04918 0.0
O10 O 0.18768 0.95698 0.01627 0.0
O11 O 0.10634 0.96858 0.97515 0.0
O12 O 0.94052 0.11151 0.94865 0.0
O13 O 0.02398 0.10755 0.9891 0.0
O14 O 0.05372 0.97779 0.95032 0.0
O15 O 0.96448 0.98634 0.91489 0.0
C16 C 0.0181 0.9688 0.92158 0.0
O17 O 0.0205 0.97948 0.03889 0.0
O18 O 0.10772 0.96624 0.07525 0.0
C19 C 0.91146 0.97132 0.0003 0.0
C20 C 0.05089 0.96263 0.06727 0.0
Zn21 Zn 0.66581 0.52463 0.54157 0.0
Zn22 Zn 0.44958 0.49561 0.4639 0.0
Zn23 Zn 0.55332 0.51442 0.50338 0.0
C24 C 0.53016 0.47052 0.42761 0.0
C25 C 0.45446 0.60675 0.48407 0.0
O26 O 0.55246 0.48161 0.55205 0.0
O27 O 0.6454 0.49761 0.58215 0.0
C28 C 0.67482 0.45561 0.49005 0.0
O29 O 0.56515 0.47663 0.45684 0.0
O30 O 0.47454 0.48084 0.4225 0.0
O31 O 0.41706 0.56891 0.47271 0.0
O32 O 0.51115 0.59581 0.49368 0.0
O33 O 0.70752 0.47452 0.51684 0.0
O34 O 0.61834 0.46845 0.48104 0.0
O35 O 0.57248 0.60342 0.50794 0.0
O36 O 0.66934 0.60493 0.53447 0.0
C37 C 0.62196 0.62982 0.51986 0.0
O38 O 0.50036 0.46198 0.52927 0.0
O39 O 0.42872 0.4314 0.48694 0.0
C40 C 0.59239 0.48068 0.5799 0.0
C41 C 0.45573 0.42944 0.51714 0.0
H42 H 0.11708 0.03004 0.43386 0.0
H43 H 0.12773 0.92169 0.35278 0.0
H44 H 0.97408 0.02684 0.34478 0.0
N45 N 1.01229 0.07499 0.40504 0.0
N46 N 0.96438 0.09589 0.38885 0.0
C47 C 0.09785 0.01324 0.40931 0.0
C48 C 0.12943 0.97318 0.39562 0.0
C49 C 0.04204 0.03299 0.39108 0.0
C50 C 0.01726 0.01195 0.35899 0.0
C51 C 0.04796 0.97187 0.34499 0.0
C52 C 0.10378 0.95255 0.36354 0.0
H53 H 0.99537 0.02265 0.55502 0.0
H54 H 0.96456 0.92469 0.63398 0.0
H55 H 0.11726 0.03313 0.6516 0.0
N56 N 0.09659 0.06953 0.58929 0.0
N57 N 0.14246 0.09104 0.60774 0.0
C58 C 1.00865 0.00959 0.58049 0.0
C59 C 0.97263 0.97222 0.59234 0.0
C60 C 0.06121 0.03127 0.60168 0.0
C61 C 0.07781 0.01513 0.63496 0.0
C62 C 0.04309 0.97695 0.64704 0.0
C63 C 0.99095 0.95537 0.62534 0.0
H64 H 0.63581 0.54501 0.9671 0.0
H65 H 0.70431 0.47288 0.8889 0.0
H66 H 0.53974 0.56549 0.86517 0.0
N67 N 0.53944 0.5925 0.92817 0.0
N68 N 0.49975 0.61787 0.90783 0.0
C69 C 0.63177 0.5375 0.94097 0.0
C70 C 0.67643 0.5072 0.93061 0.0
C71 C 0.58263 0.5594 0.91747 0.0
C72 C 0.57745 0.54896 0.88352 0.0
C73 C 0.62126 0.51796 0.87303 0.0
C74 C 0.6707 0.49766 0.89675 0.0
H75 H 0.49442 0.53134 0.05793 0.0
H76 H 0.50247 0.43763 0.14537 0.0
H77 H 0.60967 0.58353 0.15132 0.0
N78 N 0.57326 0.60818 0.08723 0.0
N79 N 0.59323 0.65054 0.10342 0.0
C80 C 0.5122 0.52532 0.08422 0.0
C81 C 0.49409 0.47972 0.09951 0.0
C82 C 0.55347 0.56317 0.10293 0.0
C83 C 0.57671 0.55503 0.13702 0.0
C84 C 0.55916 0.50957 0.15256 0.0
C85 C 0.51782 0.47212 0.13353 0.0
C86 C 0.18714 0.19375 0.06424 0.0
C87 C 0.14958 0.17463 0.03428 0.0
C88 C 0.21801 0.24319 0.06571 0.0
C89 C 0.21241 0.2745 0.03717 0.0
C90 C 0.17052 0.25825 0.00791 0.0
C91 C 0.13945 0.20831 0.00639 0.0
C92 C 0.25396 0.32128 0.03755 0.0
C93 C 0.31328 0.3155 0.05193 0.0
C94 C 0.35956 0.35965 0.05775 0.0
C95 C 0.41995 0.34424 0.07069 0.0
C96 C 0.46442 0.38369 0.08224 0.0
C97 C 0.44966 0.43961 0.08085 0.0
H98 H 0.2994 0.42964 0.04484 0.0
C99 C 0.39029 0.45565 0.06582 0.0
C100 C 0.34533 0.41595 0.05445 0.0
H101 H 0.37793 0.49868 0.0648 0.0
H102 H 0.1951 0.16906 0.08626 0.0
H103 H 0.24854 0.25572 0.0889 0.0
H104 H 0.16494 0.28218 0.98572 0.0
H105 H 0.1111 0.19435 0.98291 0.0
H106 H 0.23612 0.35888 0.02533 0.0
H107 H 0.32911 0.27521 0.06121 0.0
H108 H 0.43243 0.3013 0.07344 0.0
H109 H 0.50997 0.37043 0.09369 0.0
C110 C 0.17616 0.85607 0.96487 0.0
C111 C 0.18753 0.91263 0.96606 0.0
C112 C 0.21156 0.81994 0.9513 0.0
C113 C 0.25869 0.84007 0.9386 0.0
C114 C 0.26733 0.89704 0.93795 0.0
C115 C 0.23268 0.93305 0.95213 0.0
C116 C 0.30077 0.8026 0.92702 0.0
C117 C 0.32048 0.75544 0.94251 0.0
C118 C 0.36679 0.71978 0.93326 0.0
C119 C 0.40489 0.68802 0.95767 0.0
C120 C 0.44933 0.6544 0.9498 0.0
C121 C 0.45562 0.65141 0.91714 0.0
H122 H 0.34331 0.73871 0.88093 0.0
C123 C 0.41688 0.68214 0.8927 0.0
C124 C 0.37292 0.71611 0.90058 0.0
H125 H 0.42088 0.6798 0.86738 0.0
H126 H 0.14177 0.83966 0.97583 0.0
H127 H 0.20286 0.77629 0.95138 0.0
H128 H 0.30299 0.91352 0.92802 0.0
H129 H 0.24242 0.97662 0.9532 0.0
H130 H 0.32036 0.81691 0.90747 0.0
H131 H 0.30541 0.74448 0.9643 0.0
H132 H 0.40075 0.68976 0.98298 0.0
H133 H 0.47841 0.63076 0.96913 0.0
C134 C 0.81503 0.94461 0.01354 0.0
C135 C 0.87669 0.93489 0.01655 0.0
C136 C 0.78004 0.90663 0.02525 0.0
C137 C 0.80607 0.85791 0.03997 0.0
C138 C 0.86795 0.84872 0.04344 0.0
C139 C 0.90303 0.88696 0.03198 0.0
C140 C 0.76914 0.81421 0.04961 0.0
C141 C 0.71806 0.82434 0.05916 0.0
C142 C 0.68238 0.77971 0.0687 0.0
C143 C 0.65718 0.78781 0.09582 0.0
C144 C 0.62649 0.74515 0.10653 0.0
C145 C 0.61881 0.69446 0.08972 0.0
H146 H 0.69127 0.72236 0.02979 0.0
C147 C 0.64152 0.68696 0.06158 0.0
C148 C 0.67341 0.72924 0.05127 0.0
H149 H 0.63647 0.648 0.0483 0.0
H150 H 0.79352 0.981 0.0014 0.0
H151 H 0.73222 0.91452 0.02142 0.0
H152 H 0.88897 0.81134 0.05447 0.0
H153 H 0.95017 0.87787 0.03394 0.0
H154 H 0.78578 0.7723 0.0499 0.0
H155 H 0.70423 0.86638 0.06235 0.0
H156 H 0.66313 0.8265 0.10943 0.0
H157 H 0.60947 0.75131 0.12836 0.0
C158 C 0.96385 0.22713 0.9442 0.0
C159 C 0.97918 0.19559 0.97284 0.0
C160 C 0.94663 0.28185 0.94596 0.0
C161 C 0.94239 0.30553 0.97621 0.0
C162 C 0.96175 0.27513 0.00531 0.0
C163 C 0.98066 0.22054 0.00363 0.0
C164 C 0.91236 0.35977 0.97551 0.0
C165 C 0.87293 0.37165 0.99396 0.0
C166 C 0.82664 0.41562 0.98462 0.0
C167 C 0.83597 0.46168 0.9666 0.0
C168 C 0.78738 0.49474 0.9513 0.0
C169 C 0.72889 0.48313 0.95428 0.0
H170 H 0.7609 0.37293 0.00452 0.0
C171 C 0.72061 0.44111 0.97527 0.0
C172 C 0.76924 0.40765 0.9904 0.0
H173 H 0.67583 0.43134 0.97781 0.0
H174 H 0.96243 0.20866 0.92021 0.0
H175 H 0.93248 0.30451 0.92323 0.0
H176 H 0.96022 0.29276 0.02908 0.0
H177 H 0.9922 0.19677 0.02603 0.0
H178 H 0.91406 0.3858 0.9549 0.0
H179 H 0.86725 0.34268 0.01247 0.0
H180 H 0.88002 0.47067 0.96278 0.0
H181 H 0.79481 0.52739 0.93545 0.0
C182 C 0.65302 0.70737 0.49059 0.0
C183 C 0.62651 0.689 0.51535 0.0
C184 C 0.67623 0.7606 0.49214 0.0
C185 C 0.67408 0.79588 0.5189 0.0
C186 C 0.6418 0.77911 0.54167 0.0
C187 C 0.61866 0.72578 0.5401 0.0
C188 C 0.71108 0.84678 0.52641 0.0
C189 C 0.76501 0.85159 0.51891 0.0
C190 C 0.81265 0.89186 0.53501 0.0
C191 C 0.8634 0.89784 0.52197 0.0
C192 C 0.91437 0.9268 0.5396 0.0
C193 C 0.91577 0.94987 0.57083 0.0
H194 H 0.77571 0.9142 0.57686 0.0
C195 C 0.86382 0.94683 0.58297 0.0
C196 C 0.81291 0.91814 0.56538 0.0
H197 H 0.86345 0.96484 0.60684 0.0
H198 H 0.65967 0.6793 0.47136 0.0
H199 H 0.6986 0.77277 0.47337 0.0
H200 H 0.63885 0.80564 0.56232 0.0
H201 H 0.59888 0.71203 0.55963 0.0
H202 H 0.69745 0.87709 0.54247 0.0
H203 H 0.7782 0.821 0.50282 0.0
H204 H 0.86474 0.87789 0.49875 0.0
H205 H 0.95384 0.92838 0.52968 0.0
C206 C 0.76433 0.4177 0.47327 0.0
C207 C 0.70182 0.41671 0.47026 0.0
C208 C 0.79172 0.3774 0.45782 0.0
C209 C 0.75723 0.33465 0.43935 0.0
C210 C 0.69431 0.33523 0.43495 0.0
C211 C 0.66684 0.37566 0.45048 0.0
C212 C 0.78571 0.28876 0.4248 0.0
C213 C 0.84241 0.2714 0.43839 0.0
C214 C 0.87225 0.22481 0.42523 0.0
C215 C 0.92423 0.20161 0.44586 0.0
C216 C 0.95486 0.15876 0.43436 0.0
C217 C 0.93401 0.13842 0.40183 0.0
H218 H 0.81307 0.22175 0.37551 0.0
C219 C 0.88233 0.16134 0.38121 0.0
C220 C 0.85176 0.20429 0.39262 0.0
H221 H 0.8661 0.14629 0.356 0.0
H222 H 0.79234 0.44929 0.48802 0.0
H223 H 0.83997 0.37978 0.46063 0.0
H224 H 0.66659 0.30319 0.42049 0.0
H225 H 0.61867 0.37346 0.44803 0.0
H226 H 0.75762 0.26678 0.40379 0.0
H227 H 0.8678 0.29067 0.46124 0.0
H228 H 0.94132 0.21675 0.47101 0.0
H229 H 0.9948 0.14186 0.45082 0.0
C230 C 0.42496 0.33445 0.52485 0.0
C231 C 0.43534 0.38831 0.53734 0.0
C232 C 0.39513 0.29688 0.54001 0.0
C233 C 0.37406 0.31279 0.56771 0.0
C234 C 0.38773 0.36572 0.58141 0.0
C235 C 0.4177 0.40345 0.56612 0.0
C236 C 0.336 0.27556 0.58184 0.0
C237 C 0.29716 0.23961 0.56275 0.0
C238 C 0.25654 0.20258 0.57521 0.0
C239 C 0.20616 0.17991 0.55248 0.0
C240 C 0.16771 0.14351 0.56284 0.0
C241 C 0.17935 0.12882 0.59623 0.0
H242 H 0.30707 0.20283 0.62679 0.0
C243 C 0.22952 0.15118 0.61892 0.0
C244 C 0.26796 0.18763 0.60862 0.0
H245 H 0.23924 0.13981 0.64468 0.0
H246 H 0.43831 0.32191 0.50265 0.0
H247 H 0.38752 0.2558 0.52953 0.0
H248 H 0.37236 0.37885 0.60288 0.0
H249 H 0.42329 0.44524 0.57544 0.0
H250 H 0.3369 0.28097 0.60783 0.0
H251 H 0.29267 0.23878 0.53621 0.0
H252 H 0.19651 0.19034 0.52656 0.0
H253 H 0.12936 0.12667 0.54474 0.0
C254 C 0.461 0.70965 0.48135 0.0
C255 C 0.43101 0.66238 0.48763 0.0
C256 C 0.43346 0.76132 0.48106 0.0
C257 C 0.37588 0.76615 0.48744 0.0
C258 C 0.34835 0.71913 0.49593 0.0
C259 C 0.3752 0.66784 0.49566 0.0
C260 C 0.34014 0.81774 0.48298 0.0
C261 C 0.34379 0.8553 0.46024 0.0
C262 C 0.29411 0.89477 0.4469 0.0
C263 C 0.25053 0.9101 0.46409 0.0
C264 C 0.19822 0.93806 0.44795 0.0
C265 C 0.18876 0.95181 0.4145 0.0
H266 H 0.32015 0.90272 0.40072 0.0
C267 C 0.23493 0.94107 0.3984 0.0
C268 C 0.28696 0.91295 0.41444 0.0
H269 H 0.22992 0.9527 0.37293 0.0
H270 H 0.50413 0.7064 0.47514 0.0
H271 H 0.45669 0.79696 0.47521 0.0
H272 H 0.30433 0.72159 0.50122 0.0
H273 H 0.35153 0.63209 0.5011 0.0
H274 H 0.30267 0.81944 0.49461 0.0
H275 H 0.37882 0.85102 0.44691 0.0
H276 H 0.25541 0.8991 0.48961 0.0
H277 H 0.16388 0.94635 0.4612 0.0
C278 C 0.05012 0.90841 0.11706 0.0
C279 C 0.02028 0.94426 0.09241 0.0
C280 C 0.02879 0.90037 0.14517 0.0
C281 C 0.9769 0.92822 0.14924 0.0
C282 C 0.94446 0.96061 0.12324 0.0
C283 C 0.96598 0.96868 0.09509 0.0
C284 C 0.96185 0.93263 0.18194 0.0
C285 C 0.98806 0.90186 0.20814 0.0
C286 C 0.99217 0.91891 0.24304 0.0
C287 C 1.0124 0.88052 0.26809 0.0
C288 C 0.02797 0.89712 0.30135 0.0
C289 C 0.02388 0.95263 0.31027 0.0
H290 H 0.9717 0.00556 0.23387 0.0
C291 C 1.00085 0.99062 0.28537 0.0
C292 C 0.98534 0.97409 0.25215 0.0
H293 H 0.99799 0.03382 0.29138 0.0
H294 H 0.09209 0.88901 0.11553 0.0
H295 H 0.05602 0.87551 0.16442 0.0
H296 H 0.90453 0.98273 0.12564 0.0
H297 H 0.94247 -0.00286 0.07665 0.0
H298 H 0.93269 0.9664 0.18526 0.0
H299 H 1.01218 0.8648 0.20446 0.0
H300 H 0.0185 0.83787 0.26186 0.0
H301 H 0.04482 0.86674 0.32003 0.0
C302 C 0.09579 0.95313 0.88955 0.0
C303 C 0.03944 0.94052 0.8952 0.0
C304 C 0.10985 0.93578 0.86017 0.0
C305 C 0.06737 0.9057 0.83608 0.0
C306 C 1.01372 0.88873 0.8435 0.0
C307 C 0.99958 0.90644 0.87259 0.0
C308 C 0.07221 0.89759 0.80148 0.0
C309 C 0.10507 0.93022 0.78695 0.0
C310 C 0.0898 0.93652 0.75058 0.0
C311 C 0.13533 0.94617 0.73425 0.0
C312 C 0.12051 0.95762 0.70043 0.0
C313 C 0.05968 0.96127 0.68253 0.0
H314 H 0.99286 0.93405 0.74481 0.0
C315 C 1.01431 0.9517 0.69917 0.0
C316 C 0.02915 0.93916 0.73265 0.0
H317 H 0.96704 0.95573 0.68669 0.0
H318 H 0.127 0.97975 0.90659 0.0
H319 H 0.15255 0.94826 0.85589 0.0
H320 H 0.98043 0.86507 0.82564 0.0
H321 H 0.95602 0.89579 0.87661 0.0
H322 H 0.03971 0.86988 0.78581 0.0
H323 H 0.13913 0.95758 0.80149 0.0
H324 H 0.18236 0.94509 0.74769 0.0
H325 H 0.15678 0.96395 0.68843 0.0
C326 C 0.61638 0.43524 0.63437 0.0
C327 C 0.57596 0.46575 0.61048 0.0
C328 C 0.60824 0.43134 0.6663 0.0
C329 C 0.56022 0.45908 0.67508 0.0
C330 C 0.51728 0.48603 0.65044 0.0
C331 C 0.5254 0.48977 0.61841 0.0
C332 C 0.55679 0.46457 0.71008 0.0
C333 C 0.60703 0.46812 0.73505 0.0
C334 C 0.60791 0.48122 0.77009 0.0
C335 C 0.66283 0.49814 0.79128 0.0
C336 C 0.66681 0.5108 0.82445 0.0
C337 C 0.61591 0.50658 0.83737 0.0
H338 H 0.51381 0.46302 0.76778 0.0
C339 C 0.56072 0.48985 0.81628 0.0
C340 C 0.55671 0.47704 0.78296 0.0
H341 H 0.52096 0.48541 0.82571 0.0
H342 H 0.6557 0.41636 0.62871 0.0
H343 H 0.6409 0.40834 0.68435 0.0
H344 H 0.47965 0.50737 0.65649 0.0
H345 H 0.49455 0.5147 0.60056 0.0
H346 H 0.5128 0.47212 0.7147 0.0
H347 H 0.65073 0.46529 0.72927 0.0
H348 H 0.70301 0.50183 0.78212 0.0
H349 H 0.70983 0.52414 0.83999 0.0
C350 C 0.61005 0.47463 0.39626 0.0
C351 C 0.55447 0.45411 0.39935 0.0
C352 C 0.62781 0.46651 0.36676 0.0
C353 C 0.59025 0.43742 0.34011 0.0
C354 C 0.53721 0.41325 0.34436 0.0
C355 C 0.51906 0.42211 0.37355 0.0
C356 C 0.60129 0.43605 0.30659 0.0
C357 C 0.62226 0.48018 0.29395 0.0
C358 C 0.61423 0.48688 0.25784 0.0
C359 C 0.60384 0.53976 0.24484 0.0
C360 C 0.58758 0.5473 0.21069 0.0
C361 C 0.58214 0.50207 0.18878 0.0
H362 H 0.62187 0.40071 0.24522 0.0
C363 C 0.5962 0.44943 0.20183 0.0
C364 C 0.61215 0.44186 0.23602 0.0
H365 H 0.59408 0.41391 0.1856 0.0
H366 H 0.63814 0.4994 0.41589 0.0
H367 H 0.66974 0.48451 0.36444 0.0
H368 H 0.50778 0.39031 0.32429 0.0
H369 H 0.47626 0.40546 0.37553 0.0
H370 H 0.58143 0.40221 0.29028 0.0
H371 H 0.63647 0.51613 0.3097 0.0
H372 H 0.60538 0.57516 0.26111 0.0
H373 H 0.5768 0.58837 0.20153 0.0
loop_
_geom_bond_atom_site_label_1
_geom_bond_atom_site_label_2
_geom_bond_distance
_geom_bond_site_symmetry_2
_ccdc_geom_bond_type
Zn0 O6 1.920 1_545 S
Zn0 O12 1.898 . S
Zn0 O15 1.905 1_545 S
Zn1 O9 1.905 . S
Zn1 O10 1.898 1_545 S
Zn1 O18 1.920 1_545 S
Zn2 O5 2.080 1_445 S
Zn2 O8 2.114 . S
Zn2 O11 2.120 1_545 S
Zn2 O13 2.120 1_455 S
Zn2 O14 2.114 1_554 S
Zn2 O17 2.080 . S
C3 O8 1.166 . S
C3 O9 1.182 . S
C4 O10 1.167 . S
C4 O11 1.299 . S
O5 Zn2 2.080 1_665 S
O5 C19 1.305 . S
O6 Zn0 1.920 1_565 S
O6 C19 1.234 1_556 S
C7 O12 1.167 . S
C7 O13 1.299 1_556 S
O8 Zn2 2.114 . S
O8 C3 1.166 . S
O9 Zn1 1.905 . S
O9 C3 1.182 . S
O10 Zn1 1.898 1_565 S
O10 C4 1.167 . S
O11 Zn2 2.120 1_565 S
O11 C4 1.299 . S
O12 Zn0 1.898 . S
O12 C7 1.167 . S
O13 Zn2 2.120 1_655 S
O13 C7 1.299 1_554 S
O14 Zn2 2.114 1_556 S
O14 C16 1.166 1_545 S
O15 Zn0 1.905 1_565 S
O15 C16 1.182 1_655 S
C16 O14 1.166 1_565 S
C16 O15 1.182 1_455 S
O17 Zn2 2.080 . S
O17 C20 1.305 1_545 S
O18 Zn1 1.920 1_565 S
O18 C20 1.234 . S
C19 O5 1.305 . S
C19 O6 1.234 1_554 S
C20 O17 1.305 1_565 S
C20 O18 1.234 . S
Zn21 O27 1.920 . S
Zn21 O33 1.898 . S
Zn21 O36 1.905 . S
Zn22 O30 1.905 . S
Zn22 O31 1.898 . S
Zn22 O39 1.920 . S
Zn23 O26 2.080 . S
Zn23 O29 2.114 . S
Zn23 O32 2.120 . S
Zn23 O34 2.120 . S
Zn23 O35 2.114 . S
Zn23 O38 2.080 . S
C24 O29 1.166 . S
C24 O30 1.182 . S
C25 O31 1.167 . S
C25 O32 1.299 . S
O26 Zn23 2.080 . S
O26 C40 1.305 . S
O27 Zn21 1.920 . S
O27 C40 1.234 . S
C28 O33 1.167 . S
C28 O34 1.299 . S
O29 Zn23 2.114 . S
O29 C24 1.166 . S
O30 Zn22 1.905 . S
O30 C24 1.182 . S
O31 Zn22 1.898 . S
O31 C25 1.167 . S
O32 Zn23 2.120 . S
O32 C25 1.299 . S
O33 Zn21 1.898 . S
O33 C28 1.167 . S
O34 Zn23 2.120 . S
O34 C28 1.299 . S
O35 Zn23 2.114 . S
O35 C37 1.166 . S
O36 Zn21 1.905 . S
O36 C37 1.182 . S
C37 O35 1.166 . S
C37 O36 1.182 . S
O38 Zn23 2.080 . S
O38 C41 1.305 . S
O39 Zn22 1.920 . S
O39 C41 1.234 . S
C40 O26 1.305 . S
C40 O27 1.234 . S
C41 O38 1.305 . S
C41 O39 1.234 . S
H42 C47 0.929 . S
H43 C52 0.931 . S
H44 C50 0.930 . S
N45 N46 1.234 . S
N45 C49 1.453 . S
N46 N45 1.234 . S
C47 H42 0.929 . S
C47 C48 1.373 1_545 S
C47 C49 1.368 . S
C48 C47 1.373 1_565 S
C48 C52 1.397 . S
C49 N45 1.453 . S
C49 C47 1.368 . S
C49 C50 1.373 . S
C50 H44 0.930 . S
C50 C49 1.373 . S
C50 C51 1.371 . S
C51 C50 1.371 . S
C51 C52 1.383 1_545 S
C52 H43 0.931 . S
C52 C48 1.397 . S
C52 C51 1.383 1_565 S
H53 C58 0.927 1_565 S
H54 C63 0.931 . S
H55 C61 0.930 . S
N56 N57 1.234 . S
N56 C60 1.453 . S
N57 N56 1.234 . S
C58 H53 0.927 1_545 S
C58 C59 1.373 1_545 S
C58 C60 1.368 1_655 S
C59 C58 1.373 1_565 S
C59 C63 1.397 . S
C60 N56 1.453 . S
C60 C58 1.368 1_455 S
C60 C61 1.373 . S
C61 H55 0.930 . S
C61 C60 1.373 . S
C61 C62 1.371 1_455 S
C62 C61 1.371 1_655 S
C62 C63 1.383 1_545 S
C63 H54 0.931 . S
C63 C59 1.397 . S
C63 C62 1.383 1_565 S
H64 C69 0.929 . S
H65 C74 0.931 . S
H66 C72 0.930 . S
N67 N68 1.234 . S
N67 C71 1.453 . S
N68 N67 1.234 . S
C69 H64 0.929 . S
C69 C70 1.373 . S
C69 C71 1.368 . S
C70 C69 1.373 . S
C70 C74 1.397 . S
C71 N67 1.453 . S
C71 C69 1.368 . S
C71 C72 1.373 . S
C72 H66 0.930 . S
C72 C71 1.373 . S
C72 C73 1.371 . S
C73 C72 1.371 . S
C73 C74 1.383 . S
C74 H65 0.931 . S
C74 C70 1.397 . S
C74 C73 1.383 . S
H75 C80 0.929 . S
H76 C85 0.931 . S
H77 C83 0.930 . S
N78 N79 1.234 . S
N78 C82 1.453 . S
N79 N78 1.234 . S
C80 H75 0.929 . S
C80 C81 1.373 . S
C80 C82 1.368 . S
C81 C80 1.373 . S
C81 C85 1.397 . S
C82 N78 1.453 . S
C82 C80 1.368 . S
C82 C83 1.373 . S
C83 H77 0.930 . S
C83 C82 1.373 . S
C83 C84 1.371 . S
C84 C83 1.371 . S
C84 C85 1.383 . S
C85 H76 0.931 . S
C85 C81 1.397 . S
C85 C84 1.383 . S
C86 C87 1.386 . S
C86 C88 1.383 . S
C86 H102 0.951 . S
C87 C86 1.386 . S
C87 C91 1.383 . S
C88 C86 1.383 . S
C88 C89 1.402 . S
C88 H103 0.951 . S
C89 C88 1.402 . S
C89 C90 1.375 . S
C89 C92 1.481 . S
C90 C89 1.375 . S
C90 C91 1.367 . S
C90 H104 0.951 . S
C91 C87 1.383 . S
C91 C90 1.367 . S
C91 H105 0.950 . S
C92 C89 1.481 . S
C92 C93 1.297 . S
C92 H106 0.950 . S
C93 C92 1.297 . S
C93 C94 1.479 . S
C93 H107 0.950 . S
C94 C93 1.479 . S
C94 C95 1.375 . S
C94 C100 1.404 . S
C95 C94 1.375 . S
C95 C96 1.369 . S
C95 H108 0.950 . S
C96 C95 1.369 . S
C96 C97 1.392 . S
C96 H109 0.951 . S
C97 C96 1.392 . S
C97 C99 1.384 . S
H98 C100 0.949 . S
C99 C97 1.384 . S
C99 C100 1.385 . S
C99 H101 0.950 . S
C100 C94 1.404 . S
C100 H98 0.949 . S
C100 C99 1.385 . S
H101 C99 0.950 . S
H102 C86 0.951 . S
H103 C88 0.951 . S
H104 C90 0.951 . S
H105 C91 0.950 . S
H106 C92 0.950 . S
H107 C93 0.950 . S
H108 C95 0.950 . S
H109 C96 0.951 . S
C110 C111 1.386 . S
C110 C112 1.383 . S
C110 H126 0.951 . S
C111 C110 1.386 . S
C111 C115 1.383 1_556 S
C112 C110 1.383 . S
C112 C113 1.402 . S
C112 H127 0.951 . S
C113 C112 1.402 . S
C113 C114 1.375 1_556 S
C113 C116 1.481 . S
C114 C113 1.375 1_554 S
C114 C115 1.367 . S
C114 H128 0.951 . S
C115 C111 1.383 1_554 S
C115 C114 1.367 . S
C115 H129 0.950 . S
C116 C113 1.481 . S
C116 C117 1.297 . S
C116 H130 0.950 . S
C117 C116 1.297 . S
C117 C118 1.479 . S
C117 H131 0.950 . S
C118 C117 1.479 . S
C118 C119 1.375 . S
C118 C124 1.404 . S
C119 C118 1.375 . S
C119 C120 1.369 . S
C119 H132 0.950 . S
C120 C119 1.369 . S
C120 C121 1.392 . S
C120 H133 0.951 . S
C121 C120 1.392 . S
C121 C123 1.384 . S
H122 C124 0.949 . S
C123 C121 1.384 . S
C123 C124 1.385 . S
C123 H125 0.950 . S
C124 C118 1.404 . S
C124 H122 0.949 . S
C124 C123 1.385 . S
H125 C123 0.950 . S
H126 C110 0.951 . S
H127 C112 0.951 . S
H128 C114 0.951 . S
H129 C115 0.950 . S
H130 C116 0.950 . S
H131 C117 0.950 . S
H132 C119 0.950 . S
H133 C120 0.951 . S
C134 C135 1.386 . S
C134 C136 1.383 . S
C134 H150 0.951 . S
C135 C134 1.386 . S
C135 C139 1.383 1_554 S
C136 C134 1.383 . S
C136 C137 1.402 . S
C136 H151 0.951 . S
C137 C136 1.402 . S
C137 C138 1.375 1_554 S
C137 C140 1.481 . S
C138 C137 1.375 1_556 S
C138 C139 1.367 . S
C138 H152 0.951 . S
C139 C135 1.383 1_556 S
C139 C138 1.367 . S
C139 H153 0.950 . S
C140 C137 1.481 . S
C140 C141 1.297 . S
C140 H154 0.950 . S
C141 C140 1.297 . S
C141 C142 1.479 . S
C141 H155 0.950 . S
C142 C141 1.479 . S
C142 C143 1.375 . S
C142 C148 1.404 . S
C143 C142 1.375 . S
C143 C144 1.369 . S
C143 H156 0.950 . S
C144 C143 1.369 . S
C144 C145 1.392 . S
C144 H157 0.951 . S
C145 C144 1.392 . S
C145 C147 1.384 . S
H146 C148 0.949 . S
C147 C145 1.384 . S
C147 C148 1.385 . S
C147 H149 0.950 . S
C148 C142 1.404 . S
C148 H146 0.949 . S
C148 C147 1.385 . S
H149 C147 0.950 . S
H150 C134 0.951 . S
H151 C136 0.951 . S
H152 C138 0.951 . S
H153 C139 0.950 . S
H154 C140 0.950 . S
H155 C141 0.950 . S
H156 C143 0.950 . S
H157 C144 0.951 . S
C158 C159 1.386 . S
C158 C160 1.383 . S
C158 H174 0.951 . S
C159 C158 1.386 . S
C159 C163 1.383 1_556 S
C160 C158 1.383 . S
C160 C161 1.402 . S
C160 H175 0.951 . S
C161 C160 1.402 . S
C161 C162 1.375 1_556 S
C161 C164 1.481 . S
C162 C161 1.375 1_554 S
C162 C163 1.367 . S
C162 H176 0.951 . S
C163 C159 1.383 1_554 S
C163 C162 1.367 . S
C163 H177 0.950 . S
C164 C161 1.481 . S
C164 C165 1.297 . S
C164 H178 0.950 . S
C165 C164 1.297 . S
C165 C166 1.479 . S
C165 H179 0.950 . S
C166 C165 1.479 . S
C166 C167 1.375 . S
C166 C172 1.404 . S
C167 C166 1.375 . S
C167 C168 1.369 . S
C167 H180 0.950 . S
C168 C167 1.369 . S
C168 C169 1.392 . S
C168 H181 0.951 . S
C169 C168 1.392 . S
C169 C171 1.384 . S
H170 C172 0.949 . S
C171 C169 1.384 . S
C171 C172 1.385 . S
C171 H173 0.950 . S
C172 C166 1.404 . S
C172 H170 0.949 . S
C172 C171 1.385 . S
H173 C171 0.950 . S
H174 C158 0.951 . S
H175 C160 0.951 . S
H176 C162 0.951 . S
H177 C163 0.950 . S
H178 C164 0.950 . S
H179 C165 0.950 . S
H180 C167 0.950 . S
H181 C168 0.951 . S
C182 C183 1.386 . S
C182 C184 1.383 . S
C182 H198 0.951 . S
C183 C182 1.386 . S
C183 C187 1.383 . S
C184 C182 1.383 . S
C184 C185 1.402 . S
C184 H199 0.951 . S
C185 C184 1.402 . S
C185 C186 1.375 . S
C185 C188 1.481 . S
C186 C185 1.375 . S
C186 C187 1.367 . S
C186 H200 0.951 . S
C187 C183 1.383 . S
C187 C186 1.367 . S
C187 H201 0.950 . S
C188 C185 1.481 . S
C188 C189 1.297 . S
C188 H202 0.950 . S
C189 C188 1.297 . S
C189 C190 1.479 . S
C189 H203 0.950 . S
C190 C189 1.479 . S
C190 C191 1.375 . S
C190 C196 1.404 . S
C191 C190 1.375 . S
C191 C192 1.369 . S
C191 H204 0.950 . S
C192 C191 1.369 . S
C192 C193 1.392 . S
C192 H205 0.951 . S
C193 C192 1.392 . S
C193 C195 1.384 . S
H194 C196 0.949 . S
C195 C193 1.384 . S
C195 C196 1.385 . S
C195 H197 0.950 . S
C196 C190 1.404 . S
C196 H194 0.949 . S
C196 C195 1.385 . S
H197 C195 0.950 . S
H198 C182 0.951 . S
H199 C184 0.951 . S
H200 C186 0.951 . S
H201 C187 0.950 . S
H202 C188 0.950 . S
H203 C189 0.950 . S
H204 C191 0.950 . S
H205 C192 0.951 . S
C206 C207 1.386 . S
C206 C208 1.383 . S
C206 H222 0.951 . S
C207 C206 1.386 . S
C207 C211 1.383 . S
C208 C206 1.383 . S
C208 C209 1.402 . S
C208 H223 0.951 . S
C209 C208 1.402 . S
C209 C210 1.375 . S
C209 C212 1.481 . S
C210 C209 1.375 . S
C210 C211 1.367 . S
C210 H224 0.951 . S
C211 C207 1.383 . S
C211 C210 1.367 . S
C211 H225 0.950 . S
C212 C209 1.481 . S
C212 C213 1.297 . S
C212 H226 0.950 . S
C213 C212 1.297 . S
C213 C214 1.479 . S
C213 H227 0.950 . S
C214 C213 1.479 . S
C214 C215 1.375 . S
C214 C220 1.404 . S
C215 C214 1.375 . S
C215 C216 1.369 . S
C215 H228 0.950 . S
C216 C215 1.369 . S
C216 C217 1.392 . S
C216 H229 0.951 1_655 S
C217 C216 1.392 . S
C217 C219 1.384 . S
H218 C220 0.949 . S
C219 C217 1.384 . S
C219 C220 1.385 . S
C219 H221 0.950 . S
C220 C214 1.404 . S
C220 H218 0.949 . S
C220 C219 1.385 . S
H221 C219 0.950 . S
H222 C206 0.951 . S
H223 C208 0.951 . S
H224 C210 0.951 . S
H225 C211 0.950 . S
H226 C212 0.950 . S
H227 C213 0.950 . S
H228 C215 0.950 . S
H229 C216 0.951 1_455 S
C230 C231 1.386 . S
C230 C232 1.383 . S
C230 H246 0.951 . S
C231 C230 1.386 . S
C231 C235 1.383 . S
C232 C230 1.383 . S
C232 C233 1.402 . S
C232 H247 0.951 . S
C233 C232 1.402 . S
C233 C234 1.375 . S
C233 C236 1.481 . S
C234 C233 1.375 . S
C234 C235 1.367 . S
C234 H248 0.951 . S
C235 C231 1.383 . S
C235 C234 1.367 . S
C235 H249 0.950 . S
C236 C233 1.481 . S
C236 C237 1.297 . S
C236 H250 0.950 . S
C237 C236 1.297 . S
C237 C238 1.479 . S
C237 H251 0.950 . S
C238 C237 1.479 . S
C238 C239 1.375 . S
C238 C244 1.404 . S
C239 C238 1.375 . S
C239 C240 1.369 . S
C239 H252 0.950 . S
C240 C239 1.369 . S
C240 C241 1.392 . S
C240 H253 0.951 . S
C241 C240 1.392 . S
C241 C243 1.384 . S
H242 C244 0.949 . S
C243 C241 1.384 . S
C243 C244 1.385 . S
C243 H245 0.950 . S
C244 C238 1.404 . S
C244 H242 0.949 . S
C244 C243 1.385 . S
H245 C243 0.950 . S
H246 C230 0.951 . S
H247 C232 0.951 . S
H248 C234 0.951 . S
H249 C235 0.950 . S
H250 C236 0.950 . S
H251 C237 0.950 . S
H252 C239 0.950 . S
H253 C240 0.951 . S
C254 C255 1.386 . S
C254 C256 1.383 . S
C254 H270 0.951 . S
C255 C254 1.386 . S
C255 C259 1.383 . S
C256 C254 1.383 . S
C256 C257 1.402 . S
C256 H271 0.951 . S
C257 C256 1.402 . S
C257 C258 1.375 . S
C257 C260 1.481 . S
C258 C257 1.375 . S
C258 C259 1.367 . S
C258 H272 0.951 . S
C259 C255 1.383 . S
C259 C258 1.367 . S
C259 H273 0.950 . S
C260 C257 1.481 . S
C260 C261 1.297 . S
C260 H274 0.950 . S
C261 C260 1.297 . S
C261 C262 1.479 . S
C261 H275 0.950 . S
C262 C261 1.479 . S
C262 C263 1.375 . S
C262 C268 1.404 . S
C263 C262 1.375 . S
C263 C264 1.369 . S
C263 H276 0.950 . S
C264 C263 1.369 . S
C264 C265 1.392 . S
C264 H277 0.951 . S
C265 C264 1.392 . S
C265 C267 1.384 . S
H266 C268 0.949 . S
C267 C265 1.384 . S
C267 C268 1.385 . S
C267 H269 0.950 . S
C268 C262 1.404 . S
C268 H266 0.949 . S
C268 C267 1.385 . S
H269 C267 0.950 . S
H270 C254 0.951 . S
H271 C256 0.951 . S
H272 C258 0.951 . S
H273 C259 0.950 . S
H274 C260 0.950 . S
H275 C261 0.950 . S
H276 C263 0.950 . S
H277 C264 0.951 . S
C278 C279 1.386 . S
C278 C280 1.383 . S
C278 H294 0.951 . S
C279 C278 1.386 . S
C279 C283 1.383 1_565 S
C280 C278 1.383 . S
C280 C281 1.402 1_565 S
C280 H295 0.951 . S
C281 C280 1.402 1_545 S
C281 C282 1.375 . S
C281 C284 1.481 . S
C282 C281 1.375 . S
C282 C283 1.367 . S
C282 H296 0.951 1_455 S
C283 C279 1.383 1_545 S
C283 C282 1.367 . S
C283 H297 0.950 1_455 S
C284 C281 1.481 . S
C284 C285 1.297 . S
C284 H298 0.950 . S
C285 C284 1.297 . S
C285 C286 1.479 . S
C285 H299 0.950 . S
C286 C285 1.479 . S
C286 C287 1.375 . S
C286 C292 1.404 . S
C287 C286 1.375 . S
C287 C288 1.369 . S
C287 H300 0.950 1_545 S
C288 C287 1.369 . S
C288 C289 1.392 . S
C288 H301 0.951 1_545 S
C289 C288 1.392 . S
C289 C291 1.384 . S
H290 C292 0.949 . S
C291 C289 1.384 . S
C291 C292 1.385 . S
C291 H293 0.950 . S
C292 C286 1.404 . S
C292 H290 0.949 . S
C292 C291 1.385 . S
H293 C291 0.950 . S
H294 C278 0.951 . S
H295 C280 0.951 . S
H296 C282 0.951 1_655 S
H297 C283 0.950 1_655 S
H298 C284 0.950 . S
H299 C285 0.950 . S
H300 C287 0.950 1_565 S
H301 C288 0.951 1_565 S
C302 C303 1.386 . S
C302 C304 1.383 . S
C302 H318 0.951 . S
C303 C302 1.386 . S
C303 C307 1.383 1_455 S
C304 C302 1.383 . S
C304 C305 1.402 1_455 S
C304 H319 0.951 . S
C305 C304 1.402 1_655 S
C305 C306 1.375 . S
C305 C308 1.481 . S
C306 C305 1.375 . S
C306 C307 1.367 . S
C306 H320 0.951 . S
C307 C303 1.383 1_655 S
C307 C306 1.367 . S
C307 H321 0.950 . S
C308 C305 1.481 . S
C308 C309 1.297 1_655 S
C308 H322 0.950 . S
C309 C308 1.297 1_455 S
C309 C310 1.479 . S
C309 H323 0.950 . S
C310 C309 1.479 . S
C310 C311 1.376 . S
C310 C316 1.405 1_455 S
C311 C310 1.376 . S
C311 C312 1.366 1_565 S
C311 H324 0.952 . S
C312 C311 1.366 1_545 S
C312 C313 1.386 1_455 S
C312 H325 0.951 . S
C313 C312 1.386 1_655 S
C313 C315 1.391 . S
H314 C316 0.950 . S
C315 C313 1.391 . S
C315 C316 1.382 1_545 S
C315 H317 0.950 . S
C316 C310 1.405 1_655 S
C316 H314 0.950 . S
C316 C315 1.382 1_565 S
H317 C315 0.950 . S
H318 C302 0.951 . S
H319 C304 0.951 . S
H320 C306 0.951 . S
H321 C307 0.950 . S
H322 C308 0.950 . S
H323 C309 0.950 . S
H324 C311 0.952 . S
H325 C312 0.951 . S
C326 C327 1.386 . S
C326 C328 1.383 . S
C326 H342 0.951 . S
C327 C326 1.386 . S
C327 C331 1.383 . S
C328 C326 1.383 . S
C328 C329 1.402 . S
C328 H343 0.951 . S
C329 C328 1.402 . S
C329 C330 1.375 . S
C329 C332 1.481 . S
C330 C329 1.375 . S
C330 C331 1.367 . S
C330 H344 0.951 . S
C331 C327 1.383 . S
C331 C330 1.367 . S
C331 H345 0.950 . S
C332 C329 1.481 . S
C332 C333 1.297 . S
C332 H346 0.950 . S
C333 C332 1.297 . S
C333 C334 1.479 . S
C333 H347 0.950 . S
C334 C333 1.479 . S
C334 C335 1.375 . S
C334 C340 1.404 . S
C335 C334 1.375 . S
C335 C336 1.369 . S
C335 H348 0.950 . S
C336 C335 1.369 . S
C336 C337 1.392 . S
C336 H349 0.951 . S
C337 C336 1.392 . S
C337 C339 1.384 . S
H338 C340 0.949 . S
C339 C337 1.384 . S
C339 C340 1.385 . S
C339 H341 0.950 . S
C340 C334 1.404 . S
C340 H338 0.949 . S
C340 C339 1.385 . S
H341 C339 0.950 . S
H342 C326 0.951 . S
H343 C328 0.951 . S
H344 C330 0.951 . S
H345 C331 0.950 . S
H346 C332 0.950 . S
H347 C333 0.950 . S
H348 C335 0.950 . S
H349 C336 0.951 . S
C350 C351 1.386 . S
C350 C352 1.383 . S
C350 H366 0.951 . S
C351 C350 1.386 . S
C351 C355 1.383 . S
C352 C350 1.383 . S
C352 C353 1.402 . S
C352 H367 0.951 . S
C353 C352 1.402 . S
C353 C354 1.375 . S
C353 C356 1.481 . S
C354 C353 1.375 . S
C354 C355 1.367 . S
C354 H368 0.951 . S
C355 C351 1.383 . S
C355 C354 1.367 . S
C355 H369 0.950 . S
C356 C353 1.481 . S
C356 C357 1.297 . S
C356 H370 0.950 . S
C357 C356 1.297 . S
C357 C358 1.479 . S
C357 H371 0.950 . S
C358 C357 1.479 . S
C358 C359 1.375 . S
C358 C364 1.404 . S
C359 C358 1.375 . S
C359 C360 1.369 . S
C359 H372 0.950 . S
C360 C359 1.369 . S
C360 C361 1.392 . S
C360 H373 0.951 . S
C361 C360 1.392 . S
C361 C363 1.384 . S
H362 C364 0.949 . S
C363 C361 1.384 . S
C363 C364 1.385 . S
C363 H365 0.950 . S
C364 C358 1.404 . S
C364 H362 0.949 . S
C364 C363 1.385 . S
H365 C363 0.950 . S
H366 C350 0.951 . S
H367 C352 0.951 . S
H368 C354 0.951 . S
H369 C355 0.950 . S
H370 C356 0.950 . S
H371 C357 0.950 . S
H372 C359 0.950 . S
H373 C360 0.951 . S
C97 C81 1.311 . S
C87 C3 1.236 . S
C111 C4 1.421 1_556 S
C121 N68 1.479 . S
C135 C19 1.432 . S
C145 N79 1.535 . S
C159 C7 1.152 . S
C169 C70 1.270 . S
C183 C37 1.231 . S
C193 C59 1.320 . S
C207 C28 1.480 . S
C217 N46 1.526 1_655 S
C241 N57 1.496 . S
C231 C41 1.476 . S
C265 C48 1.274 . S
C255 C25 1.165 . S
C279 C20 1.332 . S
C289 C51 1.480 . S
C303 C16 1.370 . S
C313 C62 1.481 . S
C337 C73 1.489 . S
C327 C40 1.360 . S
C351 C24 1.404 . S
C361 C84 1.494 . S
