# Generated by pormake.
# Topology ssa, (4,4)-cn, num edge types: 1
# Building blocks:
#     Node 0, Type 0, BuildingBlock: NAWXER_clean_sbu_0, # of connection points: 4
#     Node 1, Type 0, BuildingBlock: NAWXER_clean_sbu_0, # of connection points: 4
#     Node 2, Type 0, BuildingBlock: NAWXER_clean_sbu_0, # of connection points: 4
#     Node 3, Type 0, BuildingBlock: NAWXER_clean_sbu_0, # of connection points: 4
#     Node 4, Type 0, BuildingBlock: NAWXER_clean_sbu_0, # of connection points: 4
#     Node 5, Type 0, BuildingBlock: NAWXER_clean_sbu_0, # of connection points: 4
#     Node 6, Type 1, BuildingBlock: MIFKUJ_clean_linker_1, # of connection points: 4
#     Node 7, Type 1, BuildingBlock: MIFKUJ_clean_linker_1, # of connection points: 4
#     Node 8, Type 1, BuildingBlock: MIFKUJ_clean_linker_1, # of connection points: 4
#     Node 9, Type 1, BuildingBlock: MIFKUJ_clean_linker_1, # of connection points: 4
#     Node 10, Type 1, BuildingBlock: MIFKUJ_clean_linker_1, # of connection points: 4
#     Node 11, Type 1, BuildingBlock: MIFKUJ_clean_linker_1, # of connection points: 4
#     Edge 12, Type (0, 1), BuildingBlock: CIFDUS_clean_linker_0, # of connection points: 2
#     Edge 13, Type (0, 1), BuildingBlock: CIFDUS_clean_linker_0, # of connection points: 2
#     Edge 14, Type (0, 1), BuildingBlock: CIFDUS_clean_linker_0, # of connection points: 2
#     Edge 15, Type (0, 1), BuildingBlock: CIFDUS_clean_linker_0, # of connection points: 2
#     Edge 16, Type (0, 1), BuildingBlock: CIFDUS_clean_linker_0, # of connection points: 2
#     Edge 17, Type (0, 1), BuildingBlock: CIFDUS_clean_linker_0, # of connection points: 2
#     Edge 18, Type (0, 1), BuildingBlock: CIFDUS_clean_linker_0, # of connection points: 2
#     Edge 19, Type (0, 1), BuildingBlock: CIFDUS_clean_linker_0, # of connection points: 2
#     Edge 20, Type (0, 1), BuildingBlock: CIFDUS_clean_linker_0, # of connection points: 2
#     Edge 21, Type (0, 1), BuildingBlock: CIFDUS_clean_linker_0, # of connection points: 2
#     Edge 22, Type (0, 1), BuildingBlock: CIFDUS_clean_linker_0, # of connection points: 2
#     Edge 23, Type (0, 1), BuildingBlock: CIFDUS_clean_linker_0, # of connection points: 2
#     Edge 24, Type (0, 1), BuildingBlock: CIFDUS_clean_linker_0, # of connection points: 2
#     Edge 25, Type (0, 1), BuildingBlock: CIFDUS_clean_linker_0, # of connection points: 2
#     Edge 26, Type (0, 1), BuildingBlock: CIFDUS_clean_linker_0, # of connection points: 2
#     Edge 27, Type (0, 1), BuildingBlock: CIFDUS_clean_linker_0, # of connection points: 2
#     Edge 28, Type (0, 1), BuildingBlock: CIFDUS_clean_linker_0, # of connection points: 2
#     Edge 29, Type (0, 1), BuildingBlock: CIFDUS_clean_linker_0, # of connection points: 2
#     Edge 30, Type (0, 1), BuildingBlock: CIFDUS_clean_linker_0, # of connection points: 2
#     Edge 31, Type (0, 1), BuildingBlock: CIFDUS_clean_linker_0, # of connection points: 2
#     Edge 32, Type (0, 1), BuildingBlock: CIFDUS_clean_linker_0, # of connection points: 2
#     Edge 33, Type (0, 1), BuildingBlock: CIFDUS_clean_linker_0, # of connection points: 2
#     Edge 34, Type (0, 1), BuildingBlock: CIFDUS_clean_linker_0, # of connection points: 2
#     Edge 35, Type (0, 1), BuildingBlock: CIFDUS_clean_linker_0, # of connection points: 2
# Relax obj value: 0.011
# Max RMSD: 0.026
# Mean RMSD: 0.026
data_MOF--net-ssa--node1-NAWXER_clean_sbu_0--node2-MIFKUJ_clean_linker_1--edge1-CIFDUS_clean_linker_0
_symmetry_space_group_name_H-M    P1
_symmetry_Int_Tables_number       1
_symmetry_cell_setting            triclinic
loop_
_symmetry_equiv_pos_as_xyz
'x, y, z'
_cell_length_a     53.212398
_cell_length_b     53.187566
_cell_length_c     33.632271
_cell_angle_alpha  89.863016
_cell_angle_beta   90.123487
_cell_angle_gamma 119.95336
loop_
_atom_site_label
_atom_site_type_symbol
_atom_site_fract_x
_atom_site_fract_y
_atom_site_fract_z
_atom_type_partial_charge
C0 C 0.0181 0.5559 0.05781 0.0
C1 C 0.96007 0.46303 0.99034 0.0
O2 O 0.99408 0.5348 0.06963 0.0
Zn3 Zn 0.98743 0.50979 0.02431 0.0
O4 O 0.02814 0.55473 0.02364 0.0
Zn5 Zn 0.01672 0.525 0.97489 0.0
O6 O 0.00859 0.54354 0.93056 0.0
O7 O 0.97611 0.53012 0.97844 0.0
O8 O 0.9821 0.48143 0.97035 0.0
O9 O 0.95474 0.47031 0.02391 0.0
O10 O 0.02384 0.50286 0.02833 0.0
O11 O 0.05008 0.51935 0.97366 0.0
C12 C 0.98551 0.54175 0.94431 0.0
C13 C 0.04596 0.50737 0.00769 0.0
C14 C 0.47335 0.01438 0.5858 0.0
C15 C 0.50711 0.95752 0.51244 0.0
O16 O 0.47353 0.99183 0.59822 0.0
Zn17 Zn 0.49072 0.98592 0.55108 0.0
O18 O 0.4834 0.02464 0.5512 0.0
Zn19 Zn 0.50294 0.01533 0.50155 0.0
O20 O 0.47492 0.00837 0.45941 0.0
O21 O 0.45767 0.97608 0.50802 0.0
O22 O 0.51043 0.97982 0.49323 0.0
O23 O 0.49682 0.95294 0.54748 0.0
O24 O 0.53302 0.02251 0.5546 0.0
O25 O 0.5419 0.04938 0.50075 0.0
C26 C 0.45393 0.98581 0.47498 0.0
C27 C 0.55003 0.04516 0.5345 0.0
C28 C 0.52405 0.46507 0.99198 0.0
C29 C 0.55629 0.55906 0.05545 0.0
O30 O 0.51652 0.48134 0.97348 0.0
Zn31 Zn 0.52178 0.52362 0.97746 0.0
O32 O 0.5398 0.47464 0.02297 0.0
Zn33 Zn 0.54309 0.51289 0.023 0.0
O34 O 0.49901 0.50198 0.03503 0.0
O35 O 0.48182 0.51419 0.9831 0.0
O36 O 0.56381 0.54067 0.0654 0.0
O37 O 0.54143 0.55513 0.02367 0.0
O38 O 0.54292 0.5421 0.92922 0.0
O39 O 0.56887 0.53257 0.97136 0.0
C40 C 0.47826 0.50361 0.018 0.0
C41 C 0.56636 0.54241 0.93766 0.0
C42 C 0.04419 0.53951 0.46996 0.0
C43 C 0.99387 0.44883 0.54448 0.0
O44 O 0.05217 0.53335 0.50242 0.0
Zn45 Zn 0.0207 0.49384 0.50629 0.0
O46 O 0.02156 0.52014 0.45181 0.0
Zn47 Zn 0.98955 0.47504 0.46016 0.0
O48 O 0.95405 0.47629 0.46055 0.0
O49 O 0.9833 0.49937 0.51105 0.0
O50 O 0.98225 0.4474 0.5105 0.0
O51 O 0.01706 0.47182 0.55408 0.0
O52 O 0.03181 0.47311 0.46063 0.0
O53 O 0.99659 0.45594 0.41631 0.0
C54 C 0.95958 0.49137 0.49202 0.0
C55 C 0.02101 0.45981 0.42781 0.0
C56 C 0.51577 0.95298 0.02873 0.0
C57 C 0.47834 0.00629 0.95462 0.0
O58 O 0.52055 0.97632 0.04633 0.0
Zn59 Zn 0.51169 0.01091 0.03654 0.0
O60 O 0.50291 0.9465 0.99529 0.0
Zn61 Zn 0.49693 0.97939 0.99044 0.0
O62 O 0.53983 0.01627 0.98187 0.0
O63 O 0.54927 0.04517 0.03366 0.0
O64 O 0.4764 0.98237 0.94447 0.0
O65 O 0.49071 0.01854 0.98733 0.0
O66 O 0.48658 0.00644 0.08081 0.0
O67 O 0.46612 0.97121 0.03669 0.0
C68 C 0.55681 0.03991 1.00028 0.0
C69 C 0.46473 0.98294 0.06925 0.0
C70 C 0.53582 0.49732 0.51486 0.0
C71 C 0.44832 0.45109 0.43274 0.0
O72 O 0.51354 0.49569 0.53196 0.0
Zn73 Zn 0.46837 0.4792 0.51984 0.0
O74 O 0.53329 0.48685 0.48015 0.0
Zn75 Zn 0.49217 0.47257 0.47361 0.0
O76 O 0.49064 0.51179 0.46989 0.0
O77 O 0.46632 0.51487 0.52104 0.0
O78 O 0.47288 0.45389 0.42446 0.0
O79 O 0.44414 0.45936 0.46662 0.0
O80 O 0.44969 0.44936 0.56075 0.0
O81 O 0.47409 0.43908 0.51715 0.0
C82 C 0.48029 0.52544 0.48887 0.0
C83 C 0.45877 0.43262 0.54884 0.0
H84 H 0.17596 0.4229 0.1302 0.0
H85 H 0.14114 0.43325 0.0965 0.0
H86 H 0.15828 0.49972 0.18307 0.0
H87 H 0.19377 0.49025 0.21565 0.0
H88 H 0.23166 0.45479 0.14097 0.0
H89 H 0.15017 0.40911 0.23301 0.0
H90 H 0.11286 0.40763 0.27724 0.0
H91 H 0.17952 0.47838 0.34547 0.0
H92 H 0.21645 0.47945 0.30175 0.0
H93 H 0.28863 0.48442 0.28923 0.0
H94 H 0.33111 0.4879 0.32244 0.0
H95 H 0.32134 0.41457 0.255 0.0
H96 H 0.27855 0.41114 0.22153 0.0
H97 H 0.23252 0.44132 0.2868 0.0
H98 H 0.31152 0.49268 0.19822 0.0
H99 H 0.35252 0.50143 0.15629 0.0
H100 H 0.2951 0.43029 0.08039 0.0
H101 H 0.25404 0.42089 0.12333 0.0
C102 C 0.18701 0.45527 0.17612 0.0
C103 C 0.17225 0.43973 0.14189 0.0
C104 C 0.15246 0.44569 0.12259 0.0
C105 C 0.14691 0.46711 0.13743 0.0
C106 C 0.16185 0.48279 0.1714 0.0
C107 C 0.18196 0.4772 0.19023 0.0
C108 C 0.20881 0.4497 0.19587 0.0
C109 C 0.2314 0.45105 0.17273 0.0
C110 C 0.20904 0.44577 0.23754 0.0
C111 C 0.18611 0.44438 0.2641 0.0
C112 C 0.15667 0.42427 0.25752 0.0
C113 C 0.13538 0.42351 0.28275 0.0
C114 C 0.1432 0.44275 0.31508 0.0
C115 C 0.17273 0.46282 0.32142 0.0
C116 C 0.19391 0.46354 0.29633 0.0
C117 C 0.28047 0.4476 0.2528 0.0
C118 C 0.29548 0.46895 0.28171 0.0
C119 C 0.31988 0.47107 0.30043 0.0
C120 C 0.32965 0.45165 0.29104 0.0
C121 C 0.31423 0.42978 0.2628 0.0
C122 C 0.28991 0.42787 0.24362 0.0
C123 C 0.25542 0.44677 0.23195 0.0
C124 C 0.23225 0.44418 0.25487 0.0
C125 C 0.25496 0.45021 0.19024 0.0
C126 C 0.27981 0.45559 0.16459 0.0
C127 C 0.30776 0.47856 0.17305 0.0
C128 C 0.33114 0.48369 0.14893 0.0
C129 C 0.32693 0.46639 0.11532 0.0
C130 C 0.29885 0.44395 0.1061 0.0
C131 C 0.27548 0.43854 0.13064 0.0
H132 H 0.73379 0.21497 0.85188 0.0
H133 H 0.69776 0.17842 0.89458 0.0
H134 H 0.6883 0.11183 0.81193 0.0
H135 H 0.72791 0.14845 0.77275 0.0
H136 H 0.78242 0.22956 0.83743 0.0
H137 H 0.70274 0.19752 0.75119 0.0
H138 H 0.65986 0.16386 0.713 0.0
H139 H 0.71289 0.14278 0.63897 0.0
H140 H 0.75575 0.17566 0.67823 0.0
H141 H 0.83837 0.24163 0.68825 0.0
H142 H 0.87733 0.27705 0.64582 0.0
H143 H 0.87095 0.34633 0.70265 0.0
H144 H 0.83135 0.31078 0.74432 0.0
H145 H 0.78329 0.23 0.69021 0.0
H146 H 0.86429 0.27105 0.7911 0.0
H147 H 0.90012 0.31166 0.83134 0.0
H148 H 0.83255 0.32769 0.87299 0.0
H149 H 0.7971 0.28701 0.83356 0.0
C150 C 0.7338 0.18481 0.80863 0.0
C151 C 0.72438 0.19245 0.84317 0.0
C152 C 0.70302 0.17126 0.8674 0.0
C153 C 0.68934 0.14166 0.85706 0.0
C154 C 0.69839 0.1341 0.82185 0.0
C155 C 0.72076 0.15528 0.79856 0.0
C156 C 0.7582 0.20771 0.78469 0.0
C157 C 0.78216 0.22963 0.80519 0.0
C158 C 0.75831 0.20834 0.74244 0.0
C159 C 0.73242 0.18864 0.7183 0.0
C160 C 0.70518 0.18545 0.72707 0.0
C161 C 0.68074 0.1664 0.70507 0.0
C162 C 0.68316 0.15074 0.67319 0.0
C163 C 0.71054 0.15477 0.66329 0.0
C164 C 0.73496 0.17346 0.68578 0.0
C165 C 0.83206 0.27348 0.71982 0.0
C166 C 0.84544 0.26445 0.69178 0.0
C167 C 0.86771 0.28468 0.66759 0.0
C168 C 0.87721 0.31442 0.67108 0.0
C169 C 0.86433 0.32357 0.69978 0.0
C170 C 0.84174 0.30326 0.72364 0.0
C171 C 0.807 0.25138 0.74319 0.0
C172 C 0.78312 0.22955 0.72246 0.0
C173 C 0.80595 0.25192 0.78516 0.0
C174 C 0.82811 0.27616 0.80924 0.0
C175 C 0.85732 0.28335 0.80899 0.0
C176 C 0.87771 0.30656 0.83195 0.0
C177 C 0.86917 0.32286 0.85556 0.0
C178 C 0.83982 0.31529 0.85588 0.0
C179 C 0.81954 0.29215 0.8331 0.0
H180 H 0.58471 0.85065 0.30408 0.0
H181 H 0.58093 0.88738 0.34298 0.0
H182 H 0.49669 0.82191 0.38531 0.0
H183 H 0.50044 0.78529 0.34607 0.0
H184 H 0.5342 0.76414 0.34895 0.0
H185 H 0.59838 0.84091 0.22003 0.0
H186 H 0.59778 0.87765 0.17596 0.0
H187 H 0.50582 0.83991 0.1958 0.0
H188 H 0.50664 0.80388 0.24065 0.0
H189 H 0.52423 0.72923 0.18405 0.0
H190 H 0.52403 0.69167 0.14334 0.0
H191 H 0.57373 0.67708 0.23304 0.0
H192 H 0.57601 0.71684 0.27243 0.0
H193 H 0.56058 0.77794 0.20609 0.0
H194 H 0.498 0.6908 0.27556 0.0
H195 H 0.48308 0.64479 0.30962 0.0
H196 H 0.54676 0.69029 0.4013 0.0
H197 H 0.56211 0.7363 0.36664 0.0
C198 C 0.54274 0.8152 0.32174 0.0
C199 C 0.56526 0.84424 0.32132 0.0
C200 C 0.56312 0.86521 0.3437 0.0
C201 C 0.53852 0.85754 0.36728 0.0
C202 C 0.51609 0.82843 0.3679 0.0
C203 C 0.51818 0.8075 0.34535 0.0
C204 C 0.54515 0.79274 0.29852 0.0
C205 C 0.54006 0.76714 0.31772 0.0
C206 C 0.55212 0.79628 0.25762 0.0
C207 C 0.55262 0.81995 0.23383 0.0
C208 C 0.57822 0.84087 0.21528 0.0
C209 C 0.57785 0.86172 0.19016 0.0
C210 C 0.55171 0.86134 0.18243 0.0
C211 C 0.52617 0.84046 0.20117 0.0
C212 C 0.52667 0.82007 0.22693 0.0
C213 C 0.54986 0.72585 0.23169 0.0
C214 C 0.53553 0.71836 0.19486 0.0
C215 C 0.53504 0.69641 0.17176 0.0
C216 C 0.54833 0.68075 0.18513 0.0
C217 C 0.5633 0.68865 0.22166 0.0
C218 C 0.56429 0.71116 0.24452 0.0
C219 C 0.54922 0.74885 0.25623 0.0
C220 C 0.55503 0.77486 0.23743 0.0
C221 C 0.54113 0.7448 0.29695 0.0
C222 C 0.53167 0.71693 0.31802 0.0
C223 C 0.50897 0.69088 0.30277 0.0
C224 C 0.50035 0.66464 0.32235 0.0
C225 C 0.51385 0.66401 0.35801 0.0
C226 C 0.53585 0.6902 0.37403 0.0
C227 C 0.54472 0.71643 0.35415 0.0
H228 H 0.72707 0.50979 0.64609 0.0
H229 H 0.68571 0.5003 0.60462 0.0
H230 H 0.69424 0.58214 0.64054 0.0
H231 H 0.73612 0.59169 0.68228 0.0
H232 H 0.78106 0.55356 0.63644 0.0
H233 H 0.7059 0.52308 0.73597 0.0
H234 H 0.67013 0.52546 0.77899 0.0
H235 H 0.73716 0.60643 0.8277 0.0
H236 H 0.77276 0.60467 0.78351 0.0
H237 H 0.84804 0.60076 0.78218 0.0
H238 H 0.88738 0.59938 0.81834 0.0
H239 H 0.8636 0.51696 0.76403 0.0
H240 H 0.82396 0.51808 0.7287 0.0
H241 H 0.7909 0.56702 0.7824 0.0
H242 H 0.86708 0.58939 0.68857 0.0
H243 H 0.90077 0.58125 0.64989 0.0
H244 H 0.8284 0.51262 0.58565 0.0
H245 H 0.79517 0.51784 0.6287 0.0
C246 C 0.73474 0.55147 0.66725 0.0
C247 C 0.72009 0.52575 0.64511 0.0
C248 C 0.69654 0.52041 0.62122 0.0
C249 C 0.68698 0.54066 0.61886 0.0
C250 C 0.70114 0.56614 0.64182 0.0
C251 C 0.72498 0.5716 0.66571 0.0
C252 C 0.76114 0.55729 0.68974 0.0
C253 C 0.78313 0.55608 0.66849 0.0
C254 C 0.76431 0.5622 0.73126 0.0
C255 C 0.74204 0.56396 0.7559 0.0
C256 C 0.71283 0.54179 0.75502 0.0
C257 C 0.69239 0.54309 0.77972 0.0
C258 C 0.7009 0.56619 0.8065 0.0
C259 C 0.73006 0.58837 0.80734 0.0
C260 C 0.75039 0.58733 0.78217 0.0
C261 C 0.83328 0.55977 0.75217 0.0
C262 C 0.85118 0.58231 0.77824 0.0
C263 C 0.87367 0.58152 0.79884 0.0
C264 C 0.87878 0.55822 0.79364 0.0
C265 C 0.86056 0.53547 0.76804 0.0
C266 C 0.83786 0.53607 0.74788 0.0
C267 C 0.80992 0.56102 0.72935 0.0
C268 C 0.78891 0.56435 0.75038 0.0
C269 C 0.80724 0.55736 0.68749 0.0
C270 C 0.82839 0.55382 0.6625 0.0
C271 C 0.85847 0.57199 0.66699 0.0
C272 C 0.87785 0.56769 0.64393 0.0
C273 C 0.86767 0.54604 0.61432 0.0
C274 C 0.83749 0.52882 0.60881 0.0
C275 C 0.81822 0.53223 0.63308 0.0
H276 H 0.24019 0.8436 0.17938 0.0
H277 H 0.28071 0.87896 0.13835 0.0
H278 H 0.34035 0.86484 0.20909 0.0
H279 H 0.3 0.82898 0.24891 0.0
H280 H 0.219 0.78681 0.1926 0.0
H281 H 0.26378 0.87288 0.27296 0.0
H282 H 0.30625 0.91404 0.30377 0.0
H283 H 0.31976 0.85441 0.37555 0.0
H284 H 0.27828 0.81353 0.344 0.0
H285 H 0.2215 0.74505 0.34867 0.0
H286 H 0.19433 0.70254 0.3899 0.0
H287 H 0.1157 0.68336 0.32692 0.0
H288 H 0.14255 0.72812 0.28936 0.0
H289 H 0.22448 0.79264 0.33975 0.0
H290 H 0.19953 0.71373 0.23973 0.0
H291 H 0.16546 0.67102 0.20102 0.0
H292 H 0.11792 0.71415 0.1684 0.0
H293 H 0.15241 0.75706 0.2065 0.0
C294 C 0.2671 0.83408 0.21776 0.0
C295 C 0.26199 0.8481 0.18595 0.0
C296 C 0.28509 0.8683 0.16265 0.0
C297 C 0.31365 0.87491 0.17103 0.0
C298 C 0.31864 0.86062 0.20257 0.0
C299 C 0.29557 0.84014 0.22532 0.0
C300 C 0.24287 0.81277 0.24297 0.0
C301 C 0.2199 0.78837 0.22479 0.0
C302 C 0.24401 0.81475 0.28498 0.0
C303 C 0.26784 0.84002 0.306 0.0
C304 C 0.27591 0.86868 0.29533 0.0
C305 C 0.30014 0.89216 0.31282 0.0
C306 C 0.31616 0.88733 0.342 0.0
C307 C 0.30756 0.85873 0.35342 0.0
C308 C 0.28375 0.83535 0.33553 0.0
C309 C 0.18434 0.73976 0.31509 0.0
C310 C 0.19828 0.73205 0.34419 0.0
C311 C 0.18268 0.70723 0.36741 0.0
C312 C 0.15271 0.68881 0.36151 0.0
C313 C 0.13864 0.69689 0.33286 0.0
C314 C 0.15417 0.72233 0.31051 0.0
C315 C 0.20192 0.76567 0.28947 0.0
C316 C 0.2233 0.79131 0.30756 0.0
C317 C 0.19969 0.76467 0.24745 0.0
C318 C 0.17835 0.73839 0.22593 0.0
C319 C 0.18166 0.71386 0.22441 0.0
C320 C 0.16227 0.68958 0.20236 0.0
C321 C 0.13909 0.68938 0.18194 0.0
C322 C 0.13546 0.71373 0.18423 0.0
C323 C 0.15517 0.73822 0.2057 0.0
H324 H 0.48909 0.27334 0.84581 0.0
H325 H 0.50199 0.31791 0.88213 0.0
H326 H 0.41652 0.30538 0.85905 0.0
H327 H 0.40401 0.26108 0.82212 0.0
H328 H 0.44626 0.21667 0.85579 0.0
H329 H 0.47766 0.28965 0.74891 0.0
H330 H 0.47739 0.32903 0.7112 0.0
H331 H 0.3844 0.27744 0.69867 0.0
H332 H 0.38485 0.23774 0.73588 0.0
H333 H 0.39216 0.15395 0.70762 0.0
H334 H 0.39445 0.11683 0.66682 0.0
H335 H 0.47979 0.14356 0.71339 0.0
H336 H 0.47801 0.18122 0.75264 0.0
H337 H 0.42462 0.21259 0.71154 0.0
H338 H 0.40408 0.13281 0.79801 0.0
H339 H 0.41581 0.09654 0.82195 0.0
H340 H 0.4937 0.16458 0.87695 0.0
H341 H 0.48315 0.20071 0.84998 0.0
C342 C 0.44571 0.2641 0.83092 0.0
C343 C 0.47305 0.28008 0.84894 0.0
C344 C 0.48035 0.30548 0.86987 0.0
C345 C 0.46035 0.31532 0.87337 0.0
C346 C 0.43261 0.2987 0.85633 0.0
C347 C 0.42538 0.27335 0.83527 0.0
C348 C 0.439 0.23825 0.80667 0.0
C349 C 0.44142 0.21563 0.82428 0.0
C350 C 0.43192 0.23663 0.76586 0.0
C351 C 0.43128 0.26087 0.74508 0.0
C352 C 0.45722 0.2869 0.73824 0.0
C353 C 0.45704 0.3093 0.71672 0.0
C354 C 0.43087 0.30618 0.7021 0.0
C355 C 0.4048 0.2804 0.70989 0.0
C356 C 0.40505 0.25774 0.73088 0.0
C357 C 0.43465 0.16995 0.73383 0.0
C358 C 0.41145 0.15197 0.70872 0.0
C359 C 0.4127 0.13074 0.68564 0.0
C360 C 0.43706 0.12707 0.68768 0.0
C361 C 0.46051 0.14556 0.71201 0.0
C362 C 0.4595 0.16707 0.73437 0.0
C363 C 0.43292 0.19134 0.76032 0.0
C364 C 0.42858 0.21301 0.74326 0.0
C365 C 0.43846 0.19212 0.80171 0.0
C366 C 0.44302 0.16962 0.82142 0.0
C367 C 0.42376 0.13989 0.81509 0.0
C368 C 0.43038 0.1191 0.82916 0.0
C369 C 0.45602 0.12755 0.85084 0.0
C370 C 0.47425 0.15722 0.85927 0.0
C371 C 0.46795 0.17799 0.84447 0.0
H372 H 0.04888 0.49337 0.08412 0.0
H373 H 0.09002 0.50395 0.97005 0.0
H374 H 0.12434 0.49125 0.99982 0.0
H375 H 0.14311 0.47795 0.05899 0.0
H376 H 0.10248 0.46954 0.17287 0.0
H377 H 0.06737 0.48053 0.14238 0.0
C378 C 0.06523 0.49277 0.06558 0.0
C379 C 0.06678 0.49948 0.02484 0.0
C380 C 0.08499 0.48588 0.08294 0.0
C381 C 0.08835 0.4989 0.00148 0.0
C382 C 0.10795 0.49161 0.01849 0.0
C383 C 0.1264 0.47834 0.07693 0.0
C384 C 0.12531 0.47296 0.11808 0.0
C385 C 0.10652 0.48514 0.05925 0.0
C386 C 0.10382 0.47383 0.1412 0.0
C387 C 0.08374 0.48004 0.12378 0.0
H388 H 0.56316 0.05018 0.61231 0.0
H389 H 0.59869 0.08943 0.49858 0.0
H390 H 0.64375 0.12537 0.53136 0.0
H391 H 0.67268 0.14578 0.59316 0.0
H392 H 0.63477 0.107 0.70616 0.0
H393 H 0.59085 0.07058 0.67278 0.0
C394 C 0.5808 0.06643 0.59448 0.0
C395 C 0.5777 0.06695 0.55299 0.0
C396 C 0.60613 0.08714 0.6135 0.0
C397 C 0.60059 0.08853 0.53056 0.0
C398 C 0.62631 0.10904 0.5493 0.0
C399 C 0.65476 0.12925 0.61027 0.0
C400 C 0.65683 0.12899 0.65202 0.0
C401 C 0.6293 0.10858 0.59083 0.0
C402 C 0.63349 0.1077 0.67405 0.0
C403 C 0.60846 0.08685 0.65499 0.0
H404 H 0.51792 0.57641 0.06905 0.0
H405 H 0.60294 0.59336 0.10385 0.0
H406 H 0.6082 0.6327 0.14776 0.0
H407 H 0.58864 0.66309 0.1743 0.0
H408 H 0.50132 0.64152 0.14269 0.0
H409 H 0.49712 0.60333 0.0992 0.0
C410 C 0.53773 0.58885 0.08607 0.0
C411 C 0.56028 0.58251 0.08271 0.0
C412 C 0.54018 0.61065 0.11169 0.0
C413 C 0.58542 0.59811 0.10578 0.0
C414 C 0.58838 0.62054 0.13081 0.0
C415 C 0.56856 0.64984 0.15831 0.0
C416 C 0.54563 0.65591 0.16117 0.0
C417 C 0.56589 0.62711 0.13385 0.0
C418 C 0.51978 0.63827 0.14015 0.0
C419 C 0.51719 0.61615 0.11544 0.0
H420 H 0.96971 0.54264 0.52185 0.0
H421 H 0.90184 0.45471 0.50048 0.0
H422 H 0.86743 0.46367 0.53731 0.0
H423 H 0.85808 0.49528 0.5794 0.0
H424 H 0.92411 0.58552 0.59279 0.0
H425 H 0.95815 0.57646 0.55638 0.0
C426 C 0.94725 0.52564 0.52487 0.0
C427 C 0.93816 0.49807 0.5088 0.0
C428 C 0.92753 0.53115 0.54527 0.0
C429 C 0.9091 0.47615 0.51246 0.0
C430 C 0.88956 0.48122 0.53373 0.0
C431 C 0.87953 0.51341 0.57361 0.0
C432 C 0.88821 0.54106 0.58971 0.0
C433 C 0.89868 0.50852 0.55075 0.0
C434 C 0.9167 0.56372 0.58226 0.0
C435 C 0.93624 0.5587 0.56086 0.0
H436 H 0.41089 0.94387 0.04384 0.0
H437 H 0.45874 0.98877 0.14895 0.0
H438 H 0.41552 0.96018 0.18975 0.0
H439 H 0.36503 0.92002 0.19587 0.0
H440 H 0.31728 0.87599 0.09033 0.0
H441 H 0.35952 0.90687 0.04919 0.0
C442 C 0.41182 0.94754 0.07566 0.0
C443 C 0.43804 0.96814 0.09345 0.0
C444 C 0.38694 0.93115 0.09878 0.0
C445 C 0.43881 0.97301 0.13459 0.0
C446 C 0.41415 0.95658 0.15792 0.0
C447 C 0.36391 0.91738 0.16382 0.0
C448 C 0.33824 0.89567 0.14609 0.0
C449 C 0.38826 0.93523 0.14041 0.0
C450 C 0.3368 0.89266 0.10456 0.0
C451 C 0.36097 0.91017 0.08109 0.0
H452 H 0.42339 0.40762 0.61377 0.0
H453 H 0.48459 0.40033 0.53729 0.0
H454 H 0.4812 0.36094 0.57773 0.0
H455 H 0.46236 0.32935 0.63585 0.0
H456 H 0.39977 0.33411 0.71168 0.0
H457 H 0.40207 0.37346 0.67058 0.0
C458 C 0.4358 0.39726 0.60586 0.0
C459 C 0.45429 0.40713 0.57254 0.0
C460 C 0.43363 0.37421 0.62925 0.0
C461 C 0.47012 0.3933 0.56264 0.0
C462 C 0.46832 0.37075 0.58585 0.0
C463 C 0.44927 0.33908 0.64334 0.0
C464 C 0.43121 0.32921 0.67685 0.0
C465 C 0.45042 0.36124 0.61939 0.0
C466 C 0.41389 0.3415 0.68596 0.0
C467 C 0.41526 0.36399 0.66253 0.0
H468 H 0.53096 0.96295 0.43949 0.0
H469 H 0.49772 0.90492 0.54014 0.0
H470 H 0.50512 0.8691 0.50444 0.0
H471 H 0.51944 0.85362 0.44357 0.0
H472 H 0.55191 0.91179 0.34303 0.0
H473 H 0.5466 0.94828 0.37997 0.0
C474 C 0.52546 0.94255 0.45383 0.0
C475 C 0.51367 0.93662 0.49244 0.0
C476 C 0.52958 0.92203 0.43308 0.0
C477 C 0.50682 0.91009 0.51048 0.0
C478 C 0.51097 0.88955 0.49002 0.0
C479 C 0.52524 0.87426 0.42973 0.0
C480 C 0.536 0.87992 0.39053 0.0
C481 C 0.52199 0.89515 0.45112 0.0
C482 C 0.54386 0.90695 0.37325 0.0
C483 C 0.54068 0.92779 0.39428 0.0
H484 H 0.62255 0.55846 0.95141 0.0
H485 H 0.56236 0.5454 0.85681 0.0
H486 H 0.5991 0.55259 0.80742 0.0
H487 H 0.64731 0.55893 0.7914 0.0
H488 H 0.70743 0.57303 0.88647 0.0
H489 H 0.6718 0.56916 0.93541 0.0
C490 C 0.61756 0.55752 0.91997 0.0
C491 C 0.58969 0.55117 0.90781 0.0
C492 C 0.63873 0.56163 0.89184 0.0
C493 C 0.58367 0.55034 0.86696 0.0
C494 C 0.60461 0.55424 0.83871 0.0
C495 C 0.65256 0.56131 0.82284 0.0
C496 C 0.67984 0.56607 0.8354 0.0
C497 C 0.63201 0.55928 0.85083 0.0
C498 C 0.68662 0.56948 0.87613 0.0
C499 C 0.66623 0.56716 0.90411 0.0
H500 H 0.10191 0.57002 0.45639 0.0
H501 H 0.02315 0.57347 0.44347 0.0
H502 H 0.05002 0.62098 0.41104 0.0
H503 H 0.09564 0.66078 0.3852 0.0
H504 H 0.17304 0.65356 0.38952 0.0
H505 H 0.1472 0.60882 0.42722 0.0
C506 C 0.09082 0.58142 0.44676 0.0
C507 C 0.06081 0.56868 0.45254 0.0
C508 C 0.10617 0.60808 0.42668 0.0
C509 C 0.04635 0.58313 0.43932 0.0
C510 C 0.06168 0.6102 0.42079 0.0
C511 C 0.10691 0.64936 0.39373 0.0
C512 C 0.13654 0.66111 0.38453 0.0
C513 C 0.09156 0.62274 0.4139 0.0
C514 C 0.15057 0.64586 0.39688 0.0
C515 C 0.1357 0.61993 0.41818 0.0
H516 H 0.51242 0.05594 0.91681 0.0
H517 H 0.42287 0.99187 0.93598 0.0
H518 H 0.40754 0.02352 0.90358 0.0
H519 H 0.42032 0.07158 0.87636 0.0
H520 H 0.5104 0.13429 0.85431 0.0
H521 H 0.52486 0.10111 0.88175 0.0
C522 C 0.48955 0.04873 0.91291 0.0
C523 C 0.4687 0.02178 0.92826 0.0
C524 C 0.48108 0.06701 0.89459 0.0
C525 C 0.43915 0.01248 0.92371 0.0
C526 C 0.43047 0.03067 0.9056 0.0
C527 C 0.44307 0.07785 0.87677 0.0
C528 C 0.46422 0.10585 0.86418 0.0
C529 C 0.45132 0.05833 0.89184 0.0
C530 C 0.49363 0.1134 0.86512 0.0
C531 C 0.50198 0.0943 0.88043 0.0
H532 H 0.44639 0.48896 0.38282 0.0
H533 H 0.40089 0.39864 0.4154 0.0
H534 H 0.36062 0.39002 0.37088 0.0
H535 H 0.33664 0.40962 0.3276 0.0
H536 H 0.38177 0.50088 0.29891 0.0
H537 H 0.42395 0.50786 0.33685 0.0
C538 C 0.4279 0.46729 0.3793 0.0
C539 C 0.42657 0.44431 0.40149 0.0
C540 C 0.40467 0.46285 0.3548 0.0
C541 C 0.40237 0.41644 0.39787 0.0
C542 C 0.37935 0.41163 0.37271 0.0
C543 C 0.35592 0.43088 0.32917 0.0
C544 C 0.35605 0.45475 0.31074 0.0
C545 C 0.37997 0.43484 0.35171 0.0
C546 C 0.38106 0.48227 0.31326 0.0
C547 C 0.40519 0.48626 0.33484 0.0
H548 H 0.96877 0.44165 0.92217 0.0
H549 H 0.90833 0.41912 0.01937 0.0
H550 H 0.87568 0.37266 0.98737 0.0
H551 H 0.86342 0.33971 0.93008 0.0
H552 H 0.92348 0.36399 0.83206 0.0
H553 H 0.9575 0.40834 0.86668 0.0
C554 C 0.94851 0.42659 0.93659 0.0
C555 C 0.9409 0.43399 0.97301 0.0
C556 C 0.92984 0.4002 0.91792 0.0
C557 C 0.91468 0.41403 0.9913 0.0
C558 C 0.896 0.38749 0.97297 0.0
C559 C 0.88393 0.35473 0.91625 0.0
C560 C 0.89079 0.34853 0.87838 0.0
C561 C 0.90319 0.38056 0.93598 0.0
C562 C 0.91773 0.36797 0.8613 0.0
C563 C 0.93711 0.39349 0.88094 0.0
H564 H 0.97966 0.54091 0.86371 0.0
H565 H 0.95104 0.56181 0.97217 0.0
H566 H 0.91685 0.57071 0.93479 0.0
H567 H 0.89234 0.56886 0.87204 0.0
H568 H 0.91864 0.54515 0.76388 0.0
H569 H 0.95623 0.54087 0.8002 0.0
C570 C 0.96631 0.54795 0.87897 0.0
C571 C 0.96795 0.55083 0.92059 0.0
C572 C 0.94595 0.55211 0.85738 0.0
C573 C 0.95015 0.55944 0.94013 0.0
C574 C 0.93053 0.56445 0.9188 0.0
C575 C 0.90658 0.56315 0.85635 0.0
C576 C 0.90266 0.55727 0.81537 0.0
C577 C 0.92781 0.56027 0.87754 0.0
C578 C 0.92102 0.54949 0.79553 0.0
C579 C 0.94259 0.54715 0.81624 0.0
H580 H 0.43983 0.98654 0.39648 0.0
H581 H 0.40324 0.94889 0.51069 0.0
H582 H 0.35666 0.91708 0.47984 0.0
H583 H 0.32745 0.89658 0.42024 0.0
H584 H 0.36289 0.93236 0.30523 0.0
H585 H 0.4085 0.96854 0.33643 0.0
C586 C 0.42151 0.97169 0.41457 0.0
C587 C 0.42516 0.96981 0.45572 0.0
C588 C 0.3946 0.95298 0.39649 0.0
C589 C 0.40119 0.95048 0.47885 0.0
C590 C 0.37447 0.93225 0.46128 0.0
C591 C 0.34511 0.91249 0.40209 0.0
C592 C 0.34208 0.9117 0.36063 0.0
C593 C 0.37116 0.93277 0.4201 0.0
C594 C 0.36483 0.93266 0.33732 0.0
C595 C 0.39092 0.95318 0.35513 0.0
H596 H 0.48949 0.44009 0.92836 0.0
H597 H 0.53616 0.42354 0.02029 0.0
H598 H 0.51987 0.37524 0.99236 0.0
H599 H 0.49276 0.33809 0.94098 0.0
H600 H 0.44763 0.3565 0.84868 0.0
H601 H 0.46264 0.40363 0.87819 0.0
C602 C 0.49617 0.42601 0.94249 0.0
C603 C 0.51414 0.43553 0.97635 0.0
C604 C 0.48685 0.39852 0.92631 0.0
C605 C 0.52239 0.41681 0.99418 0.0
C606 C 0.51308 0.38921 0.9782 0.0
C607 C 0.48632 0.35248 0.92725 0.0
C608 C 0.46893 0.34361 0.89272 0.0
C609 C 0.49541 0.3799 0.94411 0.0
C610 C 0.46052 0.36243 0.87561 0.0
C611 C 0.4693 0.38954 0.89228 0.0
H612 H 0.06855 0.45679 0.44912 0.0
H613 H 0.01224 0.44386 0.34935 0.0
H614 H 0.04423 0.43564 0.30586 0.0
H615 H 0.09039 0.43625 0.29527 0.0
H616 H 0.14589 0.44839 0.39585 0.0
H617 H 0.11208 0.45301 0.43979 0.0
C618 C 0.06309 0.45191 0.41793 0.0
C619 C 0.03819 0.45123 0.40246 0.0
C620 C 0.08162 0.44738 0.39312 0.0
C621 C 0.0313 0.44455 0.36205 0.0
C622 C 0.04965 0.43998 0.33711 0.0
C623 C 0.09484 0.43938 0.3269 0.0
C624 C 0.12092 0.44243 0.34207 0.0
C625 C 0.07519 0.44191 0.35218 0.0
C626 C 0.12636 0.44666 0.38316 0.0
C627 C 0.10695 0.44914 0.4084 0.0
H628 H 0.59362 0.03232 0.95251 0.0
H629 H 0.57769 0.09791 0.00146 0.0
H630 H 0.61639 0.1349 0.96042 0.0
H631 H 0.65215 0.14775 0.9079 0.0
H632 H 0.67336 0.08372 0.86581 0.0
H633 H 0.63438 0.04684 0.90575 0.0
C634 C 0.59899 0.05481 0.95453 0.0
C635 C 0.58292 0.06245 0.9799 0.0
C636 C 0.62171 0.07611 0.93146 0.0
C637 C 0.59002 0.09161 0.98245 0.0
C638 C 0.61196 0.1127 0.95874 0.0
C639 C 0.64913 0.12606 0.90794 0.0
C640 C 0.666 0.11899 0.88296 0.0
C641 C 0.6277 0.10512 0.93278 0.0
C642 C 0.66048 0.09013 0.88332 0.0
C643 C 0.63832 0.06889 0.90674 0.0
H644 H 0.48817 0.54009 0.41168 0.0
H645 H 0.48038 0.57146 0.52651 0.0
H646 H 0.48983 0.61743 0.49602 0.0
H647 H 0.50205 0.64914 0.43645 0.0
H648 H 0.50846 0.61599 0.32221 0.0
H649 H 0.49764 0.57006 0.35279 0.0
C650 C 0.48854 0.55697 0.43016 0.0
C651 C 0.48398 0.55259 0.47136 0.0
C652 C 0.49373 0.58296 0.41247 0.0
C653 C 0.48392 0.5744 0.49473 0.0
C654 C 0.48941 0.60066 0.47731 0.0
C655 C 0.50105 0.6318 0.4184 0.0
C656 C 0.50608 0.63592 0.37715 0.0
C657 C 0.49466 0.60529 0.43622 0.0
C658 C 0.50441 0.61323 0.35392 0.0
C659 C 0.49838 0.58703 0.3714 0.0
H660 H 0.45208 0.0485 0.56145 0.0
H661 H 0.47191 0.01553 0.66706 0.0
H662 H 0.46095 0.04671 0.70842 0.0
H663 H 0.44938 0.08614 0.71385 0.0
H664 H 0.42842 0.11793 0.6081 0.0
H665 H 0.43597 0.08422 0.56733 0.0
C666 C 0.45374 0.04795 0.59357 0.0
C667 C 0.46309 0.03003 0.61122 0.0
C668 C 0.44735 0.0658 0.617 0.0
C669 C 0.46473 0.02915 0.65284 0.0
C670 C 0.45863 0.04708 0.67643 0.0
C671 C 0.44628 0.08544 0.68189 0.0
C672 C 0.43865 0.10458 0.66381 0.0
C673 C 0.45051 0.06592 0.65875 0.0
C674 C 0.43425 0.10332 0.62254 0.0
C675 C 0.43869 0.08418 0.59927 0.0
H676 H 0.42607 0.49478 0.99 0.0
H677 H 0.46999 0.49282 0.09715 0.0
H678 H 0.42703 0.48068 0.13618 0.0
H679 H 0.37748 0.47188 0.14069 0.0
H680 H 0.33233 0.47244 0.03449 0.0
H681 H 0.37506 0.48356 0.99426 0.0
C682 C 0.42615 0.49158 0.02184 0.0
C683 C 0.45127 0.4948 0.04054 0.0
C684 C 0.40116 0.48436 0.04434 0.0
C685 C 0.45097 0.4904 0.08185 0.0
C686 C 0.42641 0.48353 0.10434 0.0
C687 C 0.37707 0.4745 0.10872 0.0
C688 C 0.35204 0.47165 0.09053 0.0
C689 C 0.40151 0.48069 0.08597 0.0
C690 C 0.35145 0.47451 0.04905 0.0
C691 C 0.37588 0.48098 0.02613 0.0
H692 H 0.95132 0.39395 0.52877 0.0
H693 H 0.00082 0.45035 0.62537 0.0
H694 H 0.96961 0.41327 0.67348 0.0
H695 H 0.92576 0.36608 0.68797 0.0
H696 H 0.87707 0.30999 0.59071 0.0
H697 H 0.91045 0.34564 0.54303 0.0
C698 C 0.95554 0.39803 0.56035 0.0
C699 C 0.97823 0.42497 0.57344 0.0
C700 C 0.93745 0.37673 0.58775 0.0
C701 C 0.98355 0.42977 0.61447 0.0
C702 C 0.96557 0.40865 0.64201 0.0
C703 C 0.92263 0.3617 0.65632 0.0
C704 C 0.89893 0.33553 0.64284 0.0
C705 C 0.94204 0.38229 0.62899 0.0
C706 C 0.89525 0.3299 0.6018 0.0
C707 C 0.91426 0.35031 0.57452 0.0
H708 H 0.55418 0.96533 0.08898 0.0
H709 H 0.49262 0.89489 0.01554 0.0
H710 H 0.49897 0.86025 0.05613 0.0
H711 H 0.51939 0.84967 0.11559 0.0
H712 H 0.5822 0.92018 0.18739 0.0
H713 H 0.57806 0.95522 0.14439 0.0
C714 C 0.54239 0.94243 0.08159 0.0
C715 C 0.52276 0.93266 0.0495 0.0
C716 C 0.5462 0.92267 0.10499 0.0
C717 C 0.50789 0.90298 0.04002 0.0
C718 C 0.51137 0.88313 0.06338 0.0
C719 C 0.53225 0.87275 0.12153 0.0
C720 C 0.55083 0.88248 0.15467 0.0
C721 C 0.53 0.89268 0.09641 0.0
C722 C 0.56775 0.91235 0.16199 0.0
C723 C 0.56532 0.93231 0.1375 0.0
H724 H 0.58582 0.49856 0.49288 0.0
H725 H 0.54843 0.52475 0.58659 0.0
H726 H 0.59255 0.54228 0.62584 0.0
H727 H 0.64058 0.54723 0.63577 0.0
H728 H 0.67782 0.52057 0.54264 0.0
H729 H 0.63508 0.50626 0.50115 0.0
C730 C 0.58742 0.50836 0.52171 0.0
C731 C 0.56371 0.51011 0.53677 0.0
C732 C 0.61282 0.51817 0.54447 0.0
C733 C 0.56623 0.5229 0.57425 0.0
C734 C 0.59149 0.53297 0.59682 0.0
C735 C 0.63951 0.53873 0.60615 0.0
C736 C 0.66221 0.53474 0.59247 0.0
C737 C 0.61475 0.5303 0.58253 0.0
C738 C 0.66041 0.52344 0.55412 0.0
C739 C 0.63602 0.51532 0.53031 0.0
H740 H 0.07622 0.58894 0.05694 0.0
H741 H 1.00034 0.57778 0.1186 0.0
H742 H 0.03112 0.61866 0.16239 0.0
H743 H 0.08003 0.6576 0.18303 0.0
H744 H 0.1554 0.66586 0.12324 0.0
H745 H 0.12442 0.62595 0.0788 0.0
C746 C 0.06636 0.59558 0.07976 0.0
C747 C 0.03605 0.58067 0.08424 0.0
C748 C 0.08415 0.61846 0.10524 0.0
C749 C 0.02363 0.58906 0.11452 0.0
C750 C 0.04122 0.6124 0.1395 0.0
C751 C 0.08952 0.65056 0.16021 0.0
C752 C 0.11988 0.66455 0.15625 0.0
C753 C 0.07154 0.62725 0.13515 0.0
C754 C 0.13209 0.6552 0.12692 0.0
C755 C 0.1144 0.63252 0.10145 0.0
loop_
_geom_bond_atom_site_label_1
_geom_bond_atom_site_label_2
_geom_bond_distance
_geom_bond_site_symmetry_2
_ccdc_geom_bond_type
C0 O2 1.247 . S
C0 O4 1.258 . S
C1 O8 1.247 . S
C1 O9 1.258 . S
O2 C0 1.247 . S
O2 Zn3 2.028 1_455 S
Zn3 O2 2.028 1_655 S
Zn3 O7 2.035 1_554 S
Zn3 O9 2.035 1_554 S
Zn3 O10 2.028 1_655 S
O4 C0 1.258 . S
O4 Zn5 2.035 1_554 S
Zn5 O4 2.035 1_556 S
Zn5 O6 2.028 1_455 S
Zn5 O8 2.028 1_455 S
Zn5 O11 2.035 1_556 S
O6 Zn5 2.028 1_655 S
O6 C12 1.247 . S
O7 Zn3 2.035 1_556 S
O7 C12 1.258 . S
O8 C1 1.247 . S
O8 Zn5 2.028 1_655 S
O9 C1 1.258 . S
O9 Zn3 2.035 1_556 S
O10 Zn3 2.028 1_455 S
O10 C13 1.247 . S
O11 Zn5 2.035 1_554 S
O11 C13 1.258 . S
C12 O6 1.247 . S
C12 O7 1.258 . S
C13 O10 1.247 . S
C13 O11 1.258 . S
C14 O16 1.247 . S
C14 O18 1.258 . S
C15 O22 1.247 . S
C15 O23 1.258 . S
O16 C14 1.247 . S
O16 Zn17 2.028 1_545 S
Zn17 O16 2.028 1_565 S
Zn17 O21 2.035 . S
Zn17 O23 2.035 . S
Zn17 O24 2.028 1_565 S
O18 C14 1.258 . S
O18 Zn19 2.035 . S
Zn19 O18 2.035 . S
Zn19 O20 2.028 1_545 S
Zn19 O22 2.028 1_545 S
Zn19 O25 2.035 . S
O20 Zn19 2.028 1_565 S
O20 C26 1.247 . S
O21 Zn17 2.035 . S
O21 C26 1.258 . S
O22 C15 1.247 . S
O22 Zn19 2.028 1_565 S
O23 C15 1.258 . S
O23 Zn17 2.035 . S
O24 Zn17 2.028 1_545 S
O24 C27 1.247 . S
O25 Zn19 2.035 . S
O25 C27 1.258 . S
C26 O20 1.247 . S
C26 O21 1.258 . S
C27 O24 1.247 . S
C27 O25 1.258 . S
C28 O30 1.247 . S
C28 O32 1.258 . S
C29 O36 1.247 . S
C29 O37 1.258 . S
O30 C28 1.247 . S
O30 Zn31 2.028 . S
Zn31 O30 2.028 . S
Zn31 O35 2.035 1_556 S
Zn31 O37 2.035 1_556 S
Zn31 O38 2.028 . S
O32 C28 1.258 . S
O32 Zn33 2.035 1_556 S
Zn33 O32 2.035 1_554 S
Zn33 O34 2.028 . S
Zn33 O36 2.028 . S
Zn33 O39 2.035 1_554 S
O34 Zn33 2.028 . S
O34 C40 1.247 . S
O35 Zn31 2.035 1_554 S
O35 C40 1.258 . S
O36 C29 1.247 . S
O36 Zn33 2.028 . S
O37 C29 1.258 . S
O37 Zn31 2.035 1_554 S
O38 Zn31 2.028 . S
O38 C41 1.247 . S
O39 Zn33 2.035 1_556 S
O39 C41 1.258 . S
C40 O34 1.247 . S
C40 O35 1.258 . S
C41 O38 1.247 . S
C41 O39 1.258 . S
C42 O44 1.247 . S
C42 O46 1.258 . S
C43 O50 1.247 . S
C43 O51 1.258 . S
O44 C42 1.247 . S
O44 Zn45 2.028 . S
Zn45 O44 2.028 . S
Zn45 O49 2.035 1_455 S
Zn45 O51 2.035 1_455 S
Zn45 O52 2.028 . S
O46 C42 1.258 . S
O46 Zn47 2.035 1_455 S
Zn47 O46 2.035 1_655 S
Zn47 O48 2.028 . S
Zn47 O50 2.028 . S
Zn47 O53 2.035 1_655 S
O48 Zn47 2.028 . S
O48 C54 1.247 . S
O49 Zn45 2.035 1_655 S
O49 C54 1.258 . S
O50 C43 1.247 . S
O50 Zn47 2.028 . S
O51 C43 1.258 . S
O51 Zn45 2.035 1_655 S
O52 Zn45 2.028 . S
O52 C55 1.247 . S
O53 Zn47 2.035 1_455 S
O53 C55 1.258 . S
C54 O48 1.247 . S
C54 O49 1.258 . S
C55 O52 1.247 . S
C55 O53 1.258 . S
C56 O58 1.247 . S
C56 O60 1.258 . S
C57 O64 1.247 . S
C57 O65 1.258 . S
O58 C56 1.247 . S
O58 Zn59 2.028 1_565 S
Zn59 O58 2.028 1_545 S
Zn59 O63 2.035 1_554 S
Zn59 O65 2.035 1_554 S
Zn59 O66 2.028 1_545 S
O60 C56 1.258 . S
O60 Zn61 2.035 1_554 S
Zn61 O60 2.035 1_556 S
Zn61 O62 2.028 1_565 S
Zn61 O64 2.028 1_565 S
Zn61 O67 2.035 1_556 S
O62 Zn61 2.028 1_545 S
O62 C68 1.247 . S
O63 Zn59 2.035 1_556 S
O63 C68 1.258 . S
O64 C57 1.247 . S
O64 Zn61 2.028 1_545 S
O65 C57 1.258 . S
O65 Zn59 2.035 1_556 S
O66 Zn59 2.028 1_565 S
O66 C69 1.247 . S
O67 Zn61 2.035 1_554 S
O67 C69 1.258 . S
C68 O62 1.247 . S
C68 O63 1.258 . S
C69 O66 1.247 . S
C69 O67 1.258 . S
C70 O72 1.247 . S
C70 O74 1.258 . S
C71 O78 1.247 . S
C71 O79 1.258 . S
O72 C70 1.247 . S
O72 Zn73 2.028 . S
Zn73 O72 2.028 . S
Zn73 O77 2.035 . S
Zn73 O79 2.035 . S
Zn73 O80 2.028 . S
O74 C70 1.258 . S
O74 Zn75 2.035 . S
Zn75 O74 2.035 . S
Zn75 O76 2.028 . S
Zn75 O78 2.028 . S
Zn75 O81 2.035 . S
O76 Zn75 2.028 . S
O76 C82 1.247 . S
O77 Zn73 2.035 . S
O77 C82 1.258 . S
O78 C71 1.247 . S
O78 Zn75 2.028 . S
O79 C71 1.258 . S
O79 Zn73 2.035 . S
O80 Zn73 2.028 . S
O80 C83 1.247 . S
O81 Zn75 2.035 . S
O81 C83 1.258 . S
C82 O76 1.247 . S
C82 O77 1.258 . S
C83 O80 1.247 . S
C83 O81 1.258 . S
H84 C103 0.949 . S
H85 C104 0.950 . S
H86 C106 0.950 . S
H87 C107 0.950 . S
H88 C109 0.950 . S
H89 C112 0.950 . S
H90 C113 0.950 . S
H91 C115 0.951 . S
H92 C116 0.949 . S
H93 C118 0.949 . S
H94 C119 0.950 . S
H95 C121 0.950 . S
H96 C122 0.950 . S
H97 C124 0.950 . S
H98 C127 0.950 . S
H99 C128 0.950 . S
H100 C130 0.951 . S
H101 C131 0.949 . S
C102 C103 1.376 . S
C102 C107 1.386 . S
C102 C108 1.483 . S
C103 H84 0.949 . S
C103 C102 1.376 . S
C103 C104 1.397 . S
C104 H85 0.950 . S
C104 C103 1.397 . S
C104 C105 1.391 . S
C105 C104 1.391 . S
C105 C106 1.405 . S
C106 H86 0.950 . S
C106 C105 1.405 . S
C106 C107 1.367 . S
C107 H87 0.950 . S
C107 C102 1.386 . S
C107 C106 1.367 . S
C108 C102 1.483 . S
C108 C109 1.382 . S
C108 C110 1.403 . S
C109 H88 0.950 . S
C109 C108 1.382 . S
C109 C125 1.411 . S
C110 C108 1.403 . S
C110 C111 1.489 . S
C110 C124 1.411 . S
C111 C110 1.489 . S
C111 C112 1.383 . S
C111 C116 1.382 . S
C112 H89 0.950 . S
C112 C111 1.383 . S
C112 C113 1.395 . S
C113 H90 0.950 . S
C113 C112 1.395 . S
C113 C114 1.288 . S
C114 C113 1.288 . S
C114 C115 1.392 . S
C115 H91 0.951 . S
C115 C114 1.392 . S
C115 C116 1.392 . S
C116 H92 0.949 . S
C116 C111 1.382 . S
C116 C115 1.392 . S
C117 C118 1.376 . S
C117 C122 1.386 . S
C117 C123 1.483 . S
C118 H93 0.949 . S
C118 C117 1.376 . S
C118 C119 1.397 . S
C119 H94 0.950 . S
C119 C118 1.397 . S
C119 C120 1.391 . S
C120 C119 1.391 . S
C120 C121 1.405 . S
C121 H95 0.950 . S
C121 C120 1.405 . S
C121 C122 1.367 . S
C122 H96 0.950 . S
C122 C117 1.386 . S
C122 C121 1.367 . S
C123 C117 1.483 . S
C123 C124 1.382 . S
C123 C125 1.403 . S
C124 H97 0.950 . S
C124 C110 1.411 . S
C124 C123 1.382 . S
C125 C109 1.411 . S
C125 C123 1.403 . S
C125 C126 1.489 . S
C126 C125 1.489 . S
C126 C127 1.383 . S
C126 C131 1.382 . S
C127 H98 0.950 . S
C127 C126 1.383 . S
C127 C128 1.395 . S
C128 H99 0.950 . S
C128 C127 1.395 . S
C128 C129 1.288 . S
C129 C128 1.288 . S
C129 C130 1.392 . S
C130 H100 0.951 . S
C130 C129 1.392 . S
C130 C131 1.392 . S
C131 H101 0.949 . S
C131 C126 1.382 . S
C131 C130 1.392 . S
H132 C151 0.949 . S
H133 C152 0.950 . S
H134 C154 0.950 . S
H135 C155 0.950 . S
H136 C157 0.950 . S
H137 C160 0.950 . S
H138 C161 0.950 . S
H139 C163 0.951 . S
H140 C164 0.949 . S
H141 C166 0.949 . S
H142 C167 0.950 . S
H143 C169 0.950 . S
H144 C170 0.950 . S
H145 C172 0.950 . S
H146 C175 0.950 . S
H147 C176 0.950 . S
H148 C178 0.951 . S
H149 C179 0.949 . S
C150 C151 1.376 . S
C150 C155 1.386 . S
C150 C156 1.483 . S
C151 H132 0.949 . S
C151 C150 1.376 . S
C151 C152 1.397 . S
C152 H133 0.950 . S
C152 C151 1.397 . S
C152 C153 1.391 . S
C153 C152 1.391 . S
C153 C154 1.405 . S
C154 H134 0.950 . S
C154 C153 1.405 . S
C154 C155 1.367 . S
C155 H135 0.950 . S
C155 C150 1.386 . S
C155 C154 1.367 . S
C156 C150 1.483 . S
C156 C157 1.382 . S
C156 C158 1.403 . S
C157 H136 0.950 . S
C157 C156 1.382 . S
C157 C173 1.411 . S
C158 C156 1.403 . S
C158 C159 1.489 . S
C158 C172 1.411 . S
C159 C158 1.489 . S
C159 C160 1.383 . S
C159 C164 1.382 . S
C160 H137 0.950 . S
C160 C159 1.383 . S
C160 C161 1.395 . S
C161 H138 0.950 . S
C161 C160 1.395 . S
C161 C162 1.288 . S
C162 C161 1.288 . S
C162 C163 1.392 . S
C163 H139 0.951 . S
C163 C162 1.392 . S
C163 C164 1.392 . S
C164 H140 0.949 . S
C164 C159 1.382 . S
C164 C163 1.392 . S
C165 C166 1.376 . S
C165 C170 1.386 . S
C165 C171 1.483 . S
C166 H141 0.949 . S
C166 C165 1.376 . S
C166 C167 1.397 . S
C167 H142 0.950 . S
C167 C166 1.397 . S
C167 C168 1.391 . S
C168 C167 1.391 . S
C168 C169 1.405 . S
C169 H143 0.950 . S
C169 C168 1.405 . S
C169 C170 1.367 . S
C170 H144 0.950 . S
C170 C165 1.386 . S
C170 C169 1.367 . S
C171 C165 1.483 . S
C171 C172 1.382 . S
C171 C173 1.403 . S
C172 H145 0.950 . S
C172 C158 1.411 . S
C172 C171 1.382 . S
C173 C157 1.411 . S
C173 C171 1.403 . S
C173 C174 1.489 . S
C174 C173 1.489 . S
C174 C175 1.383 . S
C174 C179 1.382 . S
C175 H146 0.950 . S
C175 C174 1.383 . S
C175 C176 1.395 . S
C176 H147 0.950 . S
C176 C175 1.395 . S
C176 C177 1.288 . S
C177 C176 1.288 . S
C177 C178 1.392 . S
C178 H148 0.951 . S
C178 C177 1.392 . S
C178 C179 1.392 . S
C179 H149 0.949 . S
C179 C174 1.382 . S
C179 C178 1.392 . S
H180 C199 0.949 . S
H181 C200 0.950 . S
H182 C202 0.950 . S
H183 C203 0.950 . S
H184 C205 0.950 . S
H185 C208 0.950 . S
H186 C209 0.950 . S
H187 C211 0.951 . S
H188 C212 0.949 . S
H189 C214 0.949 . S
H190 C215 0.950 . S
H191 C217 0.950 . S
H192 C218 0.950 . S
H193 C220 0.950 . S
H194 C223 0.950 . S
H195 C224 0.950 . S
H196 C226 0.951 . S
H197 C227 0.949 . S
C198 C199 1.376 . S
C198 C203 1.386 . S
C198 C204 1.483 . S
C199 H180 0.949 . S
C199 C198 1.376 . S
C199 C200 1.397 . S
C200 H181 0.950 . S
C200 C199 1.397 . S
C200 C201 1.391 . S
C201 C200 1.391 . S
C201 C202 1.405 . S
C202 H182 0.950 . S
C202 C201 1.405 . S
C202 C203 1.367 . S
C203 H183 0.950 . S
C203 C198 1.386 . S
C203 C202 1.367 . S
C204 C198 1.483 . S
C204 C205 1.382 . S
C204 C206 1.403 . S
C205 H184 0.950 . S
C205 C204 1.382 . S
C205 C221 1.411 . S
C206 C204 1.403 . S
C206 C207 1.489 . S
C206 C220 1.411 . S
C207 C206 1.489 . S
C207 C208 1.383 . S
C207 C212 1.382 . S
C208 H185 0.950 . S
C208 C207 1.383 . S
C208 C209 1.395 . S
C209 H186 0.950 . S
C209 C208 1.395 . S
C209 C210 1.288 . S
C210 C209 1.288 . S
C210 C211 1.392 . S
C211 H187 0.951 . S
C211 C210 1.392 . S
C211 C212 1.392 . S
C212 H188 0.949 . S
C212 C207 1.382 . S
C212 C211 1.392 . S
C213 C214 1.376 . S
C213 C218 1.386 . S
C213 C219 1.483 . S
C214 H189 0.949 . S
C214 C213 1.376 . S
C214 C215 1.397 . S
C215 H190 0.950 . S
C215 C214 1.397 . S
C215 C216 1.391 . S
C216 C215 1.391 . S
C216 C217 1.405 . S
C217 H191 0.950 . S
C217 C216 1.405 . S
C217 C218 1.367 . S
C218 H192 0.950 . S
C218 C213 1.386 . S
C218 C217 1.367 . S
C219 C213 1.483 . S
C219 C220 1.382 . S
C219 C221 1.403 . S
C220 H193 0.950 . S
C220 C206 1.411 . S
C220 C219 1.382 . S
C221 C205 1.411 . S
C221 C219 1.403 . S
C221 C222 1.489 . S
C222 C221 1.489 . S
C222 C223 1.383 . S
C222 C227 1.382 . S
C223 H194 0.950 . S
C223 C222 1.383 . S
C223 C224 1.395 . S
C224 H195 0.950 . S
C224 C223 1.395 . S
C224 C225 1.288 . S
C225 C224 1.288 . S
C225 C226 1.392 . S
C226 H196 0.951 . S
C226 C225 1.392 . S
C226 C227 1.392 . S
C227 H197 0.949 . S
C227 C222 1.382 . S
C227 C226 1.392 . S
H228 C247 0.949 . S
H229 C248 0.950 . S
H230 C250 0.950 . S
H231 C251 0.950 . S
H232 C253 0.950 . S
H233 C256 0.950 . S
H234 C257 0.950 . S
H235 C259 0.951 . S
H236 C260 0.949 . S
H237 C262 0.949 . S
H238 C263 0.950 . S
H239 C265 0.950 . S
H240 C266 0.950 . S
H241 C268 0.950 . S
H242 C271 0.950 . S
H243 C272 0.950 . S
H244 C274 0.951 . S
H245 C275 0.949 . S
C246 C247 1.376 . S
C246 C251 1.386 . S
C246 C252 1.483 . S
C247 H228 0.949 . S
C247 C246 1.376 . S
C247 C248 1.397 . S
C248 H229 0.950 . S
C248 C247 1.397 . S
C248 C249 1.391 . S
C249 C248 1.391 . S
C249 C250 1.405 . S
C250 H230 0.950 . S
C250 C249 1.405 . S
C250 C251 1.367 . S
C251 H231 0.950 . S
C251 C246 1.386 . S
C251 C250 1.367 . S
C252 C246 1.483 . S
C252 C253 1.382 . S
C252 C254 1.403 . S
C253 H232 0.950 . S
C253 C252 1.382 . S
C253 C269 1.411 . S
C254 C252 1.403 . S
C254 C255 1.489 . S
C254 C268 1.411 . S
C255 C254 1.489 . S
C255 C256 1.383 . S
C255 C260 1.382 . S
C256 H233 0.950 . S
C256 C255 1.383 . S
C256 C257 1.395 . S
C257 H234 0.950 . S
C257 C256 1.395 . S
C257 C258 1.288 . S
C258 C257 1.288 . S
C258 C259 1.392 . S
C259 H235 0.951 . S
C259 C258 1.392 . S
C259 C260 1.392 . S
C260 H236 0.949 . S
C260 C255 1.382 . S
C260 C259 1.392 . S
C261 C262 1.376 . S
C261 C266 1.386 . S
C261 C267 1.483 . S
C262 H237 0.949 . S
C262 C261 1.376 . S
C262 C263 1.397 . S
C263 H238 0.950 . S
C263 C262 1.397 . S
C263 C264 1.391 . S
C264 C263 1.391 . S
C264 C265 1.405 . S
C265 H239 0.950 . S
C265 C264 1.405 . S
C265 C266 1.367 . S
C266 H240 0.950 . S
C266 C261 1.386 . S
C266 C265 1.367 . S
C267 C261 1.483 . S
C267 C268 1.382 . S
C267 C269 1.403 . S
C268 H241 0.950 . S
C268 C254 1.411 . S
C268 C267 1.382 . S
C269 C253 1.411 . S
C269 C267 1.403 . S
C269 C270 1.489 . S
C270 C269 1.489 . S
C270 C271 1.383 . S
C270 C275 1.382 . S
C271 H242 0.950 . S
C271 C270 1.383 . S
C271 C272 1.395 . S
C272 H243 0.950 . S
C272 C271 1.395 . S
C272 C273 1.288 . S
C273 C272 1.288 . S
C273 C274 1.392 . S
C274 H244 0.951 . S
C274 C273 1.392 . S
C274 C275 1.392 . S
C275 H245 0.949 . S
C275 C270 1.382 . S
C275 C274 1.392 . S
H276 C295 0.949 . S
H277 C296 0.950 . S
H278 C298 0.950 . S
H279 C299 0.950 . S
H280 C301 0.950 . S
H281 C304 0.950 . S
H282 C305 0.950 . S
H283 C307 0.951 . S
H284 C308 0.949 . S
H285 C310 0.949 . S
H286 C311 0.950 . S
H287 C313 0.950 . S
H288 C314 0.950 . S
H289 C316 0.950 . S
H290 C319 0.950 . S
H291 C320 0.950 . S
H292 C322 0.951 . S
H293 C323 0.949 . S
C294 C295 1.376 . S
C294 C299 1.386 . S
C294 C300 1.483 . S
C295 H276 0.949 . S
C295 C294 1.376 . S
C295 C296 1.397 . S
C296 H277 0.950 . S
C296 C295 1.397 . S
C296 C297 1.391 . S
C297 C296 1.391 . S
C297 C298 1.405 . S
C298 H278 0.950 . S
C298 C297 1.405 . S
C298 C299 1.367 . S
C299 H279 0.950 . S
C299 C294 1.386 . S
C299 C298 1.367 . S
C300 C294 1.483 . S
C300 C301 1.382 . S
C300 C302 1.403 . S
C301 H280 0.950 . S
C301 C300 1.382 . S
C301 C317 1.411 . S
C302 C300 1.403 . S
C302 C303 1.489 . S
C302 C316 1.411 . S
C303 C302 1.489 . S
C303 C304 1.383 . S
C303 C308 1.382 . S
C304 H281 0.950 . S
C304 C303 1.383 . S
C304 C305 1.395 . S
C305 H282 0.950 . S
C305 C304 1.395 . S
C305 C306 1.288 . S
C306 C305 1.288 . S
C306 C307 1.392 . S
C307 H283 0.951 . S
C307 C306 1.392 . S
C307 C308 1.392 . S
C308 H284 0.949 . S
C308 C303 1.382 . S
C308 C307 1.392 . S
C309 C310 1.376 . S
C309 C314 1.386 . S
C309 C315 1.483 . S
C310 H285 0.949 . S
C310 C309 1.376 . S
C310 C311 1.397 . S
C311 H286 0.950 . S
C311 C310 1.397 . S
C311 C312 1.391 . S
C312 C311 1.391 . S
C312 C313 1.405 . S
C313 H287 0.950 . S
C313 C312 1.405 . S
C313 C314 1.367 . S
C314 H288 0.950 . S
C314 C309 1.386 . S
C314 C313 1.367 . S
C315 C309 1.483 . S
C315 C316 1.382 . S
C315 C317 1.403 . S
C316 H289 0.950 . S
C316 C302 1.411 . S
C316 C315 1.382 . S
C317 C301 1.411 . S
C317 C315 1.403 . S
C317 C318 1.489 . S
C318 C317 1.489 . S
C318 C319 1.383 . S
C318 C323 1.382 . S
C319 H290 0.950 . S
C319 C318 1.383 . S
C319 C320 1.395 . S
C320 H291 0.950 . S
C320 C319 1.395 . S
C320 C321 1.288 . S
C321 C320 1.288 . S
C321 C322 1.392 . S
C322 H292 0.951 . S
C322 C321 1.392 . S
C322 C323 1.392 . S
C323 H293 0.949 . S
C323 C318 1.382 . S
C323 C322 1.392 . S
H324 C343 0.949 . S
H325 C344 0.950 . S
H326 C346 0.950 . S
H327 C347 0.950 . S
H328 C349 0.950 . S
H329 C352 0.950 . S
H330 C353 0.950 . S
H331 C355 0.951 . S
H332 C356 0.949 . S
H333 C358 0.949 . S
H334 C359 0.950 . S
H335 C361 0.950 . S
H336 C362 0.950 . S
H337 C364 0.950 . S
H338 C367 0.950 . S
H339 C368 0.950 . S
H340 C370 0.951 . S
H341 C371 0.949 . S
C342 C343 1.376 . S
C342 C347 1.386 . S
C342 C348 1.483 . S
C343 H324 0.949 . S
C343 C342 1.376 . S
C343 C344 1.397 . S
C344 H325 0.950 . S
C344 C343 1.397 . S
C344 C345 1.391 . S
C345 C344 1.391 . S
C345 C346 1.405 . S
C346 H326 0.950 . S
C346 C345 1.405 . S
C346 C347 1.367 . S
C347 H327 0.950 . S
C347 C342 1.386 . S
C347 C346 1.367 . S
C348 C342 1.483 . S
C348 C349 1.382 . S
C348 C350 1.403 . S
C349 H328 0.950 . S
C349 C348 1.382 . S
C349 C365 1.411 . S
C350 C348 1.403 . S
C350 C351 1.489 . S
C350 C364 1.411 . S
C351 C350 1.489 . S
C351 C352 1.383 . S
C351 C356 1.382 . S
C352 H329 0.950 . S
C352 C351 1.383 . S
C352 C353 1.395 . S
C353 H330 0.950 . S
C353 C352 1.395 . S
C353 C354 1.288 . S
C354 C353 1.288 . S
C354 C355 1.392 . S
C355 H331 0.951 . S
C355 C354 1.392 . S
C355 C356 1.392 . S
C356 H332 0.949 . S
C356 C351 1.382 . S
C356 C355 1.392 . S
C357 C358 1.376 . S
C357 C362 1.386 . S
C357 C363 1.483 . S
C358 H333 0.949 . S
C358 C357 1.376 . S
C358 C359 1.397 . S
C359 H334 0.950 . S
C359 C358 1.397 . S
C359 C360 1.391 . S
C360 C359 1.391 . S
C360 C361 1.405 . S
C361 H335 0.950 . S
C361 C360 1.405 . S
C361 C362 1.367 . S
C362 H336 0.950 . S
C362 C357 1.386 . S
C362 C361 1.367 . S
C363 C357 1.483 . S
C363 C364 1.382 . S
C363 C365 1.403 . S
C364 H337 0.950 . S
C364 C350 1.411 . S
C364 C363 1.382 . S
C365 C349 1.411 . S
C365 C363 1.403 . S
C365 C366 1.489 . S
C366 C365 1.489 . S
C366 C367 1.383 . S
C366 C371 1.382 . S
C367 H338 0.950 . S
C367 C366 1.383 . S
C367 C368 1.395 . S
C368 H339 0.950 . S
C368 C367 1.395 . S
C368 C369 1.288 . S
C369 C368 1.288 . S
C369 C370 1.392 . S
C370 H340 0.951 . S
C370 C369 1.392 . S
C370 C371 1.392 . S
C371 H341 0.949 . S
C371 C366 1.382 . S
C371 C370 1.392 . S
H372 C378 0.930 . S
H373 C381 0.930 . S
H374 C382 0.930 . S
H375 C383 0.930 . S
H376 C386 0.930 . S
H377 C387 0.930 . S
C378 H372 0.930 . S
C378 C379 1.355 . S
C378 C380 1.415 . S
C379 C378 1.355 . S
C379 C381 1.419 . S
C380 C378 1.415 . S
C380 C385 1.425 . S
C380 C387 1.409 . S
C381 H373 0.930 . S
C381 C379 1.419 . S
C381 C382 1.362 . S
C382 H374 0.930 . S
C382 C381 1.362 . S
C382 C385 1.409 . S
C383 H375 0.930 . S
C383 C384 1.355 . S
C383 C385 1.415 . S
C384 C383 1.355 . S
C384 C386 1.419 . S
C385 C380 1.425 . S
C385 C382 1.409 . S
C385 C383 1.415 . S
C386 H376 0.930 . S
C386 C384 1.419 . S
C386 C387 1.362 . S
C387 H377 0.930 . S
C387 C380 1.409 . S
C387 C386 1.362 . S
H388 C394 0.930 . S
H389 C397 0.930 . S
H390 C398 0.930 . S
H391 C399 0.930 . S
H392 C402 0.930 . S
H393 C403 0.930 . S
C394 H388 0.930 . S
C394 C395 1.355 . S
C394 C396 1.415 . S
C395 C394 1.355 . S
C395 C397 1.419 . S
C396 C394 1.415 . S
C396 C401 1.425 . S
C396 C403 1.409 . S
C397 H389 0.930 . S
C397 C395 1.419 . S
C397 C398 1.362 . S
C398 H390 0.930 . S
C398 C397 1.362 . S
C398 C401 1.409 . S
C399 H391 0.930 . S
C399 C400 1.355 . S
C399 C401 1.415 . S
C400 C399 1.355 . S
C400 C402 1.419 . S
C401 C396 1.425 . S
C401 C398 1.409 . S
C401 C399 1.415 . S
C402 H392 0.930 . S
C402 C400 1.419 . S
C402 C403 1.362 . S
C403 H393 0.930 . S
C403 C396 1.409 . S
C403 C402 1.362 . S
H404 C410 0.930 . S
H405 C413 0.930 . S
H406 C414 0.930 . S
H407 C415 0.930 . S
H408 C418 0.930 . S
H409 C419 0.930 . S
C410 H404 0.930 . S
C410 C411 1.355 . S
C410 C412 1.415 . S
C411 C410 1.355 . S
C411 C413 1.419 . S
C412 C410 1.415 . S
C412 C417 1.425 . S
C412 C419 1.409 . S
C413 H405 0.930 . S
C413 C411 1.419 . S
C413 C414 1.362 . S
C414 H406 0.930 . S
C414 C413 1.362 . S
C414 C417 1.409 . S
C415 H407 0.930 . S
C415 C416 1.355 . S
C415 C417 1.415 . S
C416 C415 1.355 . S
C416 C418 1.419 . S
C417 C412 1.425 . S
C417 C414 1.409 . S
C417 C415 1.415 . S
C418 H408 0.930 . S
C418 C416 1.419 . S
C418 C419 1.362 . S
C419 H409 0.930 . S
C419 C412 1.409 . S
C419 C418 1.362 . S
H420 C426 0.930 . S
H421 C429 0.930 . S
H422 C430 0.930 . S
H423 C431 0.930 . S
H424 C434 0.930 . S
H425 C435 0.930 . S
C426 H420 0.930 . S
C426 C427 1.355 . S
C426 C428 1.415 . S
C427 C426 1.355 . S
C427 C429 1.419 . S
C428 C426 1.415 . S
C428 C433 1.425 . S
C428 C435 1.409 . S
C429 H421 0.930 . S
C429 C427 1.419 . S
C429 C430 1.362 . S
C430 H422 0.930 . S
C430 C429 1.362 . S
C430 C433 1.409 . S
C431 H423 0.930 . S
C431 C432 1.355 . S
C431 C433 1.415 . S
C432 C431 1.355 . S
C432 C434 1.419 . S
C433 C428 1.425 . S
C433 C430 1.409 . S
C433 C431 1.415 . S
C434 H424 0.930 . S
C434 C432 1.419 . S
C434 C435 1.362 . S
C435 H425 0.930 . S
C435 C428 1.409 . S
C435 C434 1.362 . S
H436 C442 0.930 . S
H437 C445 0.930 . S
H438 C446 0.930 . S
H439 C447 0.930 . S
H440 C450 0.930 . S
H441 C451 0.930 . S
C442 H436 0.930 . S
C442 C443 1.355 . S
C442 C444 1.415 . S
C443 C442 1.355 . S
C443 C445 1.419 . S
C444 C442 1.415 . S
C444 C449 1.425 . S
C444 C451 1.409 . S
C445 H437 0.930 . S
C445 C443 1.419 . S
C445 C446 1.362 . S
C446 H438 0.930 . S
C446 C445 1.362 . S
C446 C449 1.409 . S
C447 H439 0.930 . S
C447 C448 1.355 . S
C447 C449 1.415 . S
C448 C447 1.355 . S
C448 C450 1.419 . S
C449 C444 1.425 . S
C449 C446 1.409 . S
C449 C447 1.415 . S
C450 H440 0.930 . S
C450 C448 1.419 . S
C450 C451 1.362 . S
C451 H441 0.930 . S
C451 C444 1.409 . S
C451 C450 1.362 . S
H452 C458 0.930 . S
H453 C461 0.930 . S
H454 C462 0.930 . S
H455 C463 0.930 . S
H456 C466 0.930 . S
H457 C467 0.930 . S
C458 H452 0.930 . S
C458 C459 1.355 . S
C458 C460 1.415 . S
C459 C458 1.355 . S
C459 C461 1.419 . S
C460 C458 1.415 . S
C460 C465 1.425 . S
C460 C467 1.409 . S
C461 H453 0.930 . S
C461 C459 1.419 . S
C461 C462 1.362 . S
C462 H454 0.930 . S
C462 C461 1.362 . S
C462 C465 1.409 . S
C463 H455 0.930 . S
C463 C464 1.355 . S
C463 C465 1.415 . S
C464 C463 1.355 . S
C464 C466 1.419 . S
C465 C460 1.425 . S
C465 C462 1.409 . S
C465 C463 1.415 . S
C466 H456 0.930 . S
C466 C464 1.419 . S
C466 C467 1.362 . S
C467 H457 0.930 . S
C467 C460 1.409 . S
C467 C466 1.362 . S
H468 C474 0.930 . S
H469 C477 0.930 . S
H470 C478 0.930 . S
H471 C479 0.930 . S
H472 C482 0.930 . S
H473 C483 0.930 . S
C474 H468 0.930 . S
C474 C475 1.355 . S
C474 C476 1.415 . S
C475 C474 1.355 . S
C475 C477 1.419 . S
C476 C474 1.415 . S
C476 C481 1.425 . S
C476 C483 1.409 . S
C477 H469 0.930 . S
C477 C475 1.419 . S
C477 C478 1.362 . S
C478 H470 0.930 . S
C478 C477 1.362 . S
C478 C481 1.409 . S
C479 H471 0.930 . S
C479 C480 1.355 . S
C479 C481 1.415 . S
C480 C479 1.355 . S
C480 C482 1.419 . S
C481 C476 1.425 . S
C481 C478 1.409 . S
C481 C479 1.415 . S
C482 H472 0.930 . S
C482 C480 1.419 . S
C482 C483 1.362 . S
C483 H473 0.930 . S
C483 C476 1.409 . S
C483 C482 1.362 . S
H484 C490 0.930 . S
H485 C493 0.930 . S
H486 C494 0.930 . S
H487 C495 0.930 . S
H488 C498 0.930 . S
H489 C499 0.930 . S
C490 H484 0.930 . S
C490 C491 1.355 . S
C490 C492 1.415 . S
C491 C490 1.355 . S
C491 C493 1.419 . S
C492 C490 1.415 . S
C492 C497 1.425 . S
C492 C499 1.409 . S
C493 H485 0.930 . S
C493 C491 1.419 . S
C493 C494 1.362 . S
C494 H486 0.930 . S
C494 C493 1.362 . S
C494 C497 1.409 . S
C495 H487 0.930 . S
C495 C496 1.355 . S
C495 C497 1.415 . S
C496 C495 1.355 . S
C496 C498 1.419 . S
C497 C492 1.425 . S
C497 C494 1.409 . S
C497 C495 1.415 . S
C498 H488 0.930 . S
C498 C496 1.419 . S
C498 C499 1.362 . S
C499 H489 0.930 . S
C499 C492 1.409 . S
C499 C498 1.362 . S
H500 C506 0.930 . S
H501 C509 0.930 . S
H502 C510 0.930 . S
H503 C511 0.930 . S
H504 C514 0.930 . S
H505 C515 0.930 . S
C506 H500 0.930 . S
C506 C507 1.355 . S
C506 C508 1.415 . S
C507 C506 1.355 . S
C507 C509 1.419 . S
C508 C506 1.415 . S
C508 C513 1.425 . S
C508 C515 1.409 . S
C509 H501 0.930 . S
C509 C507 1.419 . S
C509 C510 1.362 . S
C510 H502 0.930 . S
C510 C509 1.362 . S
C510 C513 1.409 . S
C511 H503 0.930 . S
C511 C512 1.355 . S
C511 C513 1.415 . S
C512 C511 1.355 . S
C512 C514 1.419 . S
C513 C508 1.425 . S
C513 C510 1.409 . S
C513 C511 1.415 . S
C514 H504 0.930 . S
C514 C512 1.419 . S
C514 C515 1.362 . S
C515 H505 0.930 . S
C515 C508 1.409 . S
C515 C514 1.362 . S
H516 C522 0.930 . S
H517 C525 0.930 . S
H518 C526 0.930 . S
H519 C527 0.930 . S
H520 C530 0.930 . S
H521 C531 0.930 . S
C522 H516 0.930 . S
C522 C523 1.355 . S
C522 C524 1.415 . S
C523 C522 1.355 . S
C523 C525 1.419 . S
C524 C522 1.415 . S
C524 C529 1.425 . S
C524 C531 1.409 . S
C525 H517 0.930 . S
C525 C523 1.419 . S
C525 C526 1.362 . S
C526 H518 0.930 . S
C526 C525 1.362 . S
C526 C529 1.409 . S
C527 H519 0.930 . S
C527 C528 1.355 . S
C527 C529 1.415 . S
C528 C527 1.355 . S
C528 C530 1.419 . S
C529 C524 1.425 . S
C529 C526 1.409 . S
C529 C527 1.415 . S
C530 H520 0.930 . S
C530 C528 1.419 . S
C530 C531 1.362 . S
C531 H521 0.930 . S
C531 C524 1.409 . S
C531 C530 1.362 . S
H532 C538 0.930 . S
H533 C541 0.930 . S
H534 C542 0.930 . S
H535 C543 0.930 . S
H536 C546 0.930 . S
H537 C547 0.930 . S
C538 H532 0.930 . S
C538 C539 1.355 . S
C538 C540 1.415 . S
C539 C538 1.355 . S
C539 C541 1.419 . S
C540 C538 1.415 . S
C540 C545 1.425 . S
C540 C547 1.409 . S
C541 H533 0.930 . S
C541 C539 1.419 . S
C541 C542 1.362 . S
C542 H534 0.930 . S
C542 C541 1.362 . S
C542 C545 1.409 . S
C543 H535 0.930 . S
C543 C544 1.355 . S
C543 C545 1.415 . S
C544 C543 1.355 . S
C544 C546 1.419 . S
C545 C540 1.425 . S
C545 C542 1.409 . S
C545 C543 1.415 . S
C546 H536 0.930 . S
C546 C544 1.419 . S
C546 C547 1.362 . S
C547 H537 0.930 . S
C547 C540 1.409 . S
C547 C546 1.362 . S
H548 C554 0.930 . S
H549 C557 0.930 . S
H550 C558 0.930 . S
H551 C559 0.930 . S
H552 C562 0.930 . S
H553 C563 0.930 . S
C554 H548 0.930 . S
C554 C555 1.355 . S
C554 C556 1.415 . S
C555 C554 1.355 . S
C555 C557 1.419 . S
C556 C554 1.415 . S
C556 C561 1.425 . S
C556 C563 1.409 . S
C557 H549 0.930 . S
C557 C555 1.419 . S
C557 C558 1.362 . S
C558 H550 0.930 . S
C558 C557 1.362 . S
C558 C561 1.409 . S
C559 H551 0.930 . S
C559 C560 1.355 . S
C559 C561 1.415 . S
C560 C559 1.355 . S
C560 C562 1.419 . S
C561 C556 1.425 . S
C561 C558 1.409 . S
C561 C559 1.415 . S
C562 H552 0.930 . S
C562 C560 1.419 . S
C562 C563 1.362 . S
C563 H553 0.930 . S
C563 C556 1.409 . S
C563 C562 1.362 . S
H564 C570 0.930 . S
H565 C573 0.930 . S
H566 C574 0.930 . S
H567 C575 0.930 . S
H568 C578 0.930 . S
H569 C579 0.930 . S
C570 H564 0.930 . S
C570 C571 1.355 . S
C570 C572 1.415 . S
C571 C570 1.355 . S
C571 C573 1.419 . S
C572 C570 1.415 . S
C572 C577 1.425 . S
C572 C579 1.409 . S
C573 H565 0.930 . S
C573 C571 1.419 . S
C573 C574 1.362 . S
C574 H566 0.930 . S
C574 C573 1.362 . S
C574 C577 1.409 . S
C575 H567 0.930 . S
C575 C576 1.355 . S
C575 C577 1.415 . S
C576 C575 1.355 . S
C576 C578 1.419 . S
C577 C572 1.425 . S
C577 C574 1.409 . S
C577 C575 1.415 . S
C578 H568 0.930 . S
C578 C576 1.419 . S
C578 C579 1.362 . S
C579 H569 0.930 . S
C579 C572 1.409 . S
C579 C578 1.362 . S
H580 C586 0.930 . S
H581 C589 0.930 . S
H582 C590 0.930 . S
H583 C591 0.930 . S
H584 C594 0.930 . S
H585 C595 0.930 . S
C586 H580 0.930 . S
C586 C587 1.355 . S
C586 C588 1.415 . S
C587 C586 1.355 . S
C587 C589 1.419 . S
C588 C586 1.415 . S
C588 C593 1.425 . S
C588 C595 1.409 . S
C589 H581 0.930 . S
C589 C587 1.419 . S
C589 C590 1.362 . S
C590 H582 0.930 . S
C590 C589 1.362 . S
C590 C593 1.409 . S
C591 H583 0.930 . S
C591 C592 1.355 . S
C591 C593 1.415 . S
C592 C591 1.355 . S
C592 C594 1.419 . S
C593 C588 1.425 . S
C593 C590 1.409 . S
C593 C591 1.415 . S
C594 H584 0.930 . S
C594 C592 1.419 . S
C594 C595 1.362 . S
C595 H585 0.930 . S
C595 C588 1.409 . S
C595 C594 1.362 . S
H596 C602 0.930 . S
H597 C605 0.930 . S
H598 C606 0.930 . S
H599 C607 0.930 . S
H600 C610 0.930 . S
H601 C611 0.930 . S
C602 H596 0.930 . S
C602 C603 1.355 . S
C602 C604 1.415 . S
C603 C602 1.355 . S
C603 C605 1.419 . S
C604 C602 1.415 . S
C604 C609 1.425 . S
C604 C611 1.409 . S
C605 H597 0.930 . S
C605 C603 1.419 . S
C605 C606 1.362 . S
C606 H598 0.930 . S
C606 C605 1.362 . S
C606 C609 1.409 . S
C607 H599 0.930 . S
C607 C608 1.355 . S
C607 C609 1.415 . S
C608 C607 1.355 . S
C608 C610 1.419 . S
C609 C604 1.425 . S
C609 C606 1.409 . S
C609 C607 1.415 . S
C610 H600 0.930 . S
C610 C608 1.419 . S
C610 C611 1.362 . S
C611 H601 0.930 . S
C611 C604 1.409 . S
C611 C610 1.362 . S
H612 C618 0.930 . S
H613 C621 0.930 . S
H614 C622 0.930 . S
H615 C623 0.930 . S
H616 C626 0.930 . S
H617 C627 0.930 . S
C618 H612 0.930 . S
C618 C619 1.355 . S
C618 C620 1.415 . S
C619 C618 1.355 . S
C619 C621 1.419 . S
C620 C618 1.415 . S
C620 C625 1.425 . S
C620 C627 1.409 . S
C621 H613 0.930 . S
C621 C619 1.419 . S
C621 C622 1.362 . S
C622 H614 0.930 . S
C622 C621 1.362 . S
C622 C625 1.409 . S
C623 H615 0.930 . S
C623 C624 1.355 . S
C623 C625 1.415 . S
C624 C623 1.355 . S
C624 C626 1.419 . S
C625 C620 1.425 . S
C625 C622 1.409 . S
C625 C623 1.415 . S
C626 H616 0.930 . S
C626 C624 1.419 . S
C626 C627 1.362 . S
C627 H617 0.930 . S
C627 C620 1.409 . S
C627 C626 1.362 . S
H628 C634 0.930 . S
H629 C637 0.930 . S
H630 C638 0.930 . S
H631 C639 0.930 . S
H632 C642 0.930 . S
H633 C643 0.930 . S
C634 H628 0.930 . S
C634 C635 1.355 . S
C634 C636 1.415 . S
C635 C634 1.355 . S
C635 C637 1.419 . S
C636 C634 1.415 . S
C636 C641 1.425 . S
C636 C643 1.409 . S
C637 H629 0.930 . S
C637 C635 1.419 . S
C637 C638 1.362 . S
C638 H630 0.930 . S
C638 C637 1.362 . S
C638 C641 1.409 . S
C639 H631 0.930 . S
C639 C640 1.355 . S
C639 C641 1.415 . S
C640 C639 1.355 . S
C640 C642 1.419 . S
C641 C636 1.425 . S
C641 C638 1.409 . S
C641 C639 1.415 . S
C642 H632 0.930 . S
C642 C640 1.419 . S
C642 C643 1.362 . S
C643 H633 0.930 . S
C643 C636 1.409 . S
C643 C642 1.362 . S
H644 C650 0.930 . S
H645 C653 0.930 . S
H646 C654 0.930 . S
H647 C655 0.930 . S
H648 C658 0.930 . S
H649 C659 0.930 . S
C650 H644 0.930 . S
C650 C651 1.355 . S
C650 C652 1.415 . S
C651 C650 1.355 . S
C651 C653 1.419 . S
C652 C650 1.415 . S
C652 C657 1.425 . S
C652 C659 1.409 . S
C653 H645 0.930 . S
C653 C651 1.419 . S
C653 C654 1.362 . S
C654 H646 0.930 . S
C654 C653 1.362 . S
C654 C657 1.409 . S
C655 H647 0.930 . S
C655 C656 1.355 . S
C655 C657 1.415 . S
C656 C655 1.355 . S
C656 C658 1.419 . S
C657 C652 1.425 . S
C657 C654 1.409 . S
C657 C655 1.415 . S
C658 H648 0.930 . S
C658 C656 1.419 . S
C658 C659 1.362 . S
C659 H649 0.930 . S
C659 C652 1.409 . S
C659 C658 1.362 . S
H660 C666 0.930 . S
H661 C669 0.930 . S
H662 C670 0.930 . S
H663 C671 0.930 . S
H664 C674 0.930 . S
H665 C675 0.930 . S
C666 H660 0.930 . S
C666 C667 1.355 . S
C666 C668 1.415 . S
C667 C666 1.355 . S
C667 C669 1.419 . S
C668 C666 1.415 . S
C668 C673 1.425 . S
C668 C675 1.409 . S
C669 H661 0.930 . S
C669 C667 1.419 . S
C669 C670 1.362 . S
C670 H662 0.930 . S
C670 C669 1.362 . S
C670 C673 1.409 . S
C671 H663 0.930 . S
C671 C672 1.355 . S
C671 C673 1.415 . S
C672 C671 1.355 . S
C672 C674 1.419 . S
C673 C668 1.425 . S
C673 C670 1.409 . S
C673 C671 1.415 . S
C674 H664 0.930 . S
C674 C672 1.419 . S
C674 C675 1.362 . S
C675 H665 0.930 . S
C675 C668 1.409 . S
C675 C674 1.362 . S
H676 C682 0.930 . S
H677 C685 0.930 . S
H678 C686 0.930 . S
H679 C687 0.930 . S
H680 C690 0.930 . S
H681 C691 0.930 . S
C682 H676 0.930 . S
C682 C683 1.355 . S
C682 C684 1.415 . S
C683 C682 1.355 . S
C683 C685 1.419 . S
C684 C682 1.415 . S
C684 C689 1.425 . S
C684 C691 1.409 . S
C685 H677 0.930 . S
C685 C683 1.419 . S
C685 C686 1.362 . S
C686 H678 0.930 . S
C686 C685 1.362 . S
C686 C689 1.409 . S
C687 H679 0.930 . S
C687 C688 1.355 . S
C687 C689 1.415 . S
C688 C687 1.355 . S
C688 C690 1.419 . S
C689 C684 1.425 . S
C689 C686 1.409 . S
C689 C687 1.415 . S
C690 H680 0.930 . S
C690 C688 1.419 . S
C690 C691 1.362 . S
C691 H681 0.930 . S
C691 C684 1.409 . S
C691 C690 1.362 . S
H692 C698 0.930 . S
H693 C701 0.930 . S
H694 C702 0.930 . S
H695 C703 0.930 . S
H696 C706 0.930 . S
H697 C707 0.930 . S
C698 H692 0.930 . S
C698 C699 1.355 . S
C698 C700 1.415 . S
C699 C698 1.355 . S
C699 C701 1.419 . S
C700 C698 1.415 . S
C700 C705 1.425 . S
C700 C707 1.409 . S
C701 H693 0.930 . S
C701 C699 1.419 . S
C701 C702 1.362 . S
C702 H694 0.930 . S
C702 C701 1.362 . S
C702 C705 1.409 . S
C703 H695 0.930 . S
C703 C704 1.355 . S
C703 C705 1.415 . S
C704 C703 1.355 . S
C704 C706 1.419 . S
C705 C700 1.425 . S
C705 C702 1.409 . S
C705 C703 1.415 . S
C706 H696 0.930 . S
C706 C704 1.419 . S
C706 C707 1.362 . S
C707 H697 0.930 . S
C707 C700 1.409 . S
C707 C706 1.362 . S
H708 C714 0.930 . S
H709 C717 0.930 . S
H710 C718 0.930 . S
H711 C719 0.930 . S
H712 C722 0.930 . S
H713 C723 0.930 . S
C714 H708 0.930 . S
C714 C715 1.355 . S
C714 C716 1.415 . S
C715 C714 1.355 . S
C715 C717 1.419 . S
C716 C714 1.415 . S
C716 C721 1.425 . S
C716 C723 1.409 . S
C717 H709 0.930 . S
C717 C715 1.419 . S
C717 C718 1.362 . S
C718 H710 0.930 . S
C718 C717 1.362 . S
C718 C721 1.409 . S
C719 H711 0.930 . S
C719 C720 1.355 . S
C719 C721 1.415 . S
C720 C719 1.355 . S
C720 C722 1.419 . S
C721 C716 1.425 . S
C721 C718 1.409 . S
C721 C719 1.415 . S
C722 H712 0.930 . S
C722 C720 1.419 . S
C722 C723 1.362 . S
C723 H713 0.930 . S
C723 C716 1.409 . S
C723 C722 1.362 . S
H724 C730 0.930 . S
H725 C733 0.930 . S
H726 C734 0.930 . S
H727 C735 0.930 . S
H728 C738 0.930 . S
H729 C739 0.930 . S
C730 H724 0.930 . S
C730 C731 1.355 . S
C730 C732 1.415 . S
C731 C730 1.355 . S
C731 C733 1.419 . S
C732 C730 1.415 . S
C732 C737 1.425 . S
C732 C739 1.409 . S
C733 H725 0.930 . S
C733 C731 1.419 . S
C733 C734 1.362 . S
C734 H726 0.930 . S
C734 C733 1.362 . S
C734 C737 1.409 . S
C735 H727 0.930 . S
C735 C736 1.355 . S
C735 C737 1.415 . S
C736 C735 1.355 . S
C736 C738 1.419 . S
C737 C732 1.425 . S
C737 C734 1.409 . S
C737 C735 1.415 . S
C738 H728 0.930 . S
C738 C736 1.419 . S
C738 C739 1.362 . S
C739 H729 0.930 . S
C739 C732 1.409 . S
C739 C738 1.362 . S
H740 C746 0.930 . S
H741 C749 0.930 . S
H742 C750 0.930 . S
H743 C751 0.930 . S
H744 C754 0.930 . S
H745 C755 0.930 . S
C746 H740 0.930 . S
C746 C747 1.355 . S
C746 C748 1.415 . S
C747 C746 1.355 . S
C747 C749 1.419 . S
C748 C746 1.415 . S
C748 C753 1.425 . S
C748 C755 1.409 . S
C749 H741 0.930 . S
C749 C747 1.419 . S
C749 C750 1.362 . S
C750 H742 0.930 . S
C750 C749 1.362 . S
C750 C753 1.409 . S
C751 H743 0.930 . S
C751 C752 1.355 . S
C751 C753 1.415 . S
C752 C751 1.355 . S
C752 C754 1.419 . S
C753 C748 1.425 . S
C753 C750 1.409 . S
C753 C751 1.415 . S
C754 H744 0.930 . S
C754 C752 1.419 . S
C754 C755 1.362 . S
C755 H745 0.930 . S
C755 C748 1.409 . S
C755 C754 1.362 . S
C379 C13 1.747 . S
C384 C105 1.718 . S
C395 C27 1.734 . S
C400 C162 1.729 . S
C416 C216 1.660 . S
C411 C29 1.727 . S
C432 C273 1.701 . S
C427 C54 1.756 . S
C448 C297 1.715 . S
C443 C69 1.740 . S
C464 C354 1.752 . S
C459 C83 1.756 . S
C475 C15 1.761 . S
C480 C201 1.744 . S
C491 C41 1.728 . S
C496 C258 1.720 . S
C512 C312 1.660 . S
C507 C42 1.728 . S
C528 C369 1.638 . S
C523 C57 1.727 . S
C539 C71 1.727 . S
C544 C120 1.660 . S
C560 C177 1.628 . S
C555 C1 1.723 . S
C576 C264 1.692 . S
C571 C12 1.728 . S
C587 C26 1.725 . S
C592 C306 1.635 . S
C608 C345 1.669 . S
C603 C28 1.733 . S
C619 C55 1.756 . S
C624 C114 1.700 . S
C635 C68 1.758 . S
C640 C153 1.719 . S
C651 C82 1.729 . S
C656 C225 1.723 . S
C667 C14 1.759 . S
C672 C360 1.742 . S
C688 C129 1.731 . S
C683 C40 1.738 . S
C699 C43 1.744 . S
C704 C168 1.720 . S
C715 C56 1.741 . S
C720 C210 1.671 . S
C731 C70 1.741 . S
C736 C249 1.691 . S
C747 C0 1.722 . S
C752 C321 1.713 . S
