# Generated by pormake.
# Topology anh, (6,3)-cn, num edge types: 1
# Building blocks:
#     Node 0, Type 0, BuildingBlock: BETDIP_clean_sbu_0, # of connection points: 6
#     Node 1, Type 0, BuildingBlock: BETDIP_clean_sbu_0, # of connection points: 6
#     Node 2, Type 0, BuildingBlock: BETDIP_clean_sbu_0, # of connection points: 6
#     Node 3, Type 1, BuildingBlock: MIDCAF_clean_linker_0, # of connection points: 3
#     Node 4, Type 1, BuildingBlock: MIDCAF_clean_linker_0, # of connection points: 3
#     Node 5, Type 1, BuildingBlock: MIDCAF_clean_linker_0, # of connection points: 3
#     Node 6, Type 1, BuildingBlock: MIDCAF_clean_linker_0, # of connection points: 3
#     Node 7, Type 1, BuildingBlock: MIDCAF_clean_linker_0, # of connection points: 3
#     Node 8, Type 1, BuildingBlock: MIDCAF_clean_linker_0, # of connection points: 3
#     Edge 9, Type (0, 1), BuildingBlock: AJUNOK_clean_linker_0, # of connection points: 2
#     Edge 10, Type (0, 1), BuildingBlock: AJUNOK_clean_linker_0, # of connection points: 2
#     Edge 11, Type (0, 1), BuildingBlock: AJUNOK_clean_linker_0, # of connection points: 2
#     Edge 12, Type (0, 1), BuildingBlock: AJUNOK_clean_linker_0, # of connection points: 2
#     Edge 13, Type (0, 1), BuildingBlock: AJUNOK_clean_linker_0, # of connection points: 2
#     Edge 14, Type (0, 1), BuildingBlock: AJUNOK_clean_linker_0, # of connection points: 2
#     Edge 15, Type (0, 1), BuildingBlock: AJUNOK_clean_linker_0, # of connection points: 2
#     Edge 16, Type (0, 1), BuildingBlock: AJUNOK_clean_linker_0, # of connection points: 2
#     Edge 17, Type (0, 1), BuildingBlock: AJUNOK_clean_linker_0, # of connection points: 2
#     Edge 18, Type (0, 1), BuildingBlock: AJUNOK_clean_linker_0, # of connection points: 2
#     Edge 19, Type (0, 1), BuildingBlock: AJUNOK_clean_linker_0, # of connection points: 2
#     Edge 20, Type (0, 1), BuildingBlock: AJUNOK_clean_linker_0, # of connection points: 2
#     Edge 21, Type (0, 1), BuildingBlock: AJUNOK_clean_linker_0, # of connection points: 2
#     Edge 22, Type (0, 1), BuildingBlock: AJUNOK_clean_linker_0, # of connection points: 2
#     Edge 23, Type (0, 1), BuildingBlock: AJUNOK_clean_linker_0, # of connection points: 2
#     Edge 24, Type (0, 1), BuildingBlock: AJUNOK_clean_linker_0, # of connection points: 2
#     Edge 25, Type (0, 1), BuildingBlock: AJUNOK_clean_linker_0, # of connection points: 2
#     Edge 26, Type (0, 1), BuildingBlock: AJUNOK_clean_linker_0, # of connection points: 2
# Relax obj value: 0.307
# Max RMSD: 0.192
# Mean RMSD: 0.164
data_MOF--net-anh--node1-BETDIP_clean_sbu_0--node2-MIDCAF_clean_linker_0--edge1-AJUNOK_clean_linker_0
_symmetry_space_group_name_H-M    P1
_symmetry_Int_Tables_number       1
_symmetry_cell_setting            triclinic
loop_
_symmetry_equiv_pos_as_xyz
'x, y, z'
_cell_length_a     29.999844
_cell_length_b     29.964447
_cell_length_c     52.588904
_cell_angle_alpha  90.538185
_cell_angle_beta   89.7903
_cell_angle_gamma 119.6675
loop_
_atom_site_label
_atom_site_type_symbol
_atom_site_fract_x
_atom_site_fract_y
_atom_site_fract_z
_atom_type_partial_charge
Tb0 Tb 0.14274 0.6275 0.16305 0.0
Tb1 Tb 0.09428 0.5187 0.16394 0.0
C2 C 0.20164 0.72058 0.17031 0.0
C3 C 0.25629 0.74963 0.16452 0.0
C4 C 0.29134 0.77 0.18457 0.0
C5 C 0.34355 0.79517 0.17958 0.0
C6 C 0.36138 0.80081 0.15443 0.0
C7 C 0.32643 0.77913 0.13436 0.0
C8 C 0.27409 0.75321 0.13937 0.0
C9 C 0.11714 0.58438 0.11847 0.0
C10 C 0.219 0.57488 0.15788 0.0
C11 C 1.04348 0.42915 0.1477 0.0
C12 C 0.98919 0.39504 0.15273 0.0
C13 C 0.95535 0.37711 0.13197 0.0
C14 C 0.90409 0.36343 0.13534 0.0
C15 C 0.88637 0.36717 0.15953 0.0
C16 C 0.91923 0.38116 0.18056 0.0
C17 C 0.97028 0.39484 0.17722 0.0
C18 C 0.09668 0.54513 0.21321 0.0
C19 C 1.01947 0.5728 0.16005 0.0
O20 O 0.18915 0.68664 0.18833 0.0
O21 O 0.17112 0.70274 0.15069 0.0
O22 O 0.13768 0.57313 0.13618 0.0
O23 O 0.10924 0.62127 0.12551 0.0
O24 O 0.21441 0.61768 0.15762 0.0
O25 O 0.17525 0.53034 0.16103 0.0
O26 O 1.05118 0.4692 0.13459 0.0
O27 O 1.07492 0.44135 0.16711 0.0
O28 O 0.11392 0.57597 0.19449 0.0
O29 O 1.0783 0.49923 0.20412 0.0
O30 O 1.02387 0.53016 0.15783 0.0
O31 O 1.06265 0.61628 0.16573 0.0
H32 H 0.27831 0.76679 0.20406 0.0
H33 H 0.36999 0.81277 0.19532 0.0
H34 H 0.33966 0.78362 0.11486 0.0
H35 H 0.24779 0.73657 0.12353 0.0
H36 H 0.96957 0.3783 0.11287 0.0
H37 H 0.87903 0.35254 0.11893 0.0
H38 H 0.90579 0.38318 0.19947 0.0
H39 H 0.99556 0.40907 0.19354 0.0
Tb40 Tb 0.63775 1.05308 0.50224 0.0
Tb41 Tb 0.57881 0.09923 0.4995 0.0
C42 C 0.66859 0.99406 0.5156 0.0
C43 C 0.64515 0.93978 0.50916 0.0
C44 C 0.6349 0.90442 0.5285 0.0
C45 C 0.61021 0.8523 0.52275 0.0
C46 C 0.59588 0.83518 0.49756 0.0
C47 C 0.60394 0.87035 0.47838 0.0
C48 C 0.62805 0.92249 0.48419 0.0
C49 C 0.62292 0.07064 0.4554 0.0
C50 C 0.5092 0.97578 0.49433 0.0
C51 C 0.5423 0.15546 0.48805 0.0
C52 C 0.57018 0.20962 0.48106 0.0
C53 C 0.61102 0.22735 0.46357 0.0
C54 C 0.648 0.27914 0.46317 0.0
C55 C 0.64433 0.31326 0.48016 0.0
C56 C 0.60098 0.2966 0.49569 0.0
C57 C 0.56388 0.24489 0.49608 0.0
C58 C 0.59191 0.07871 0.54754 0.0
C59 C 0.70739 0.17414 0.49485 0.0
O60 O 0.64051 1.00564 0.53037 0.0
O61 O 0.68878 1.02555 0.49653 0.0
O62 O 0.59043 0.05363 0.47287 0.0
O63 O 0.66613 0.07631 0.46341 0.0
O64 O 0.55594 0.98024 0.49842 0.0
O65 O 0.5092 1.02033 0.49335 0.0
O66 O 0.54555 0.12373 0.47199 0.0
O67 O 0.54972 0.14663 0.5115 0.0
O68 O 0.62629 0.09851 0.53051 0.0
O69 O 0.54866 0.06879 0.5374 0.0
O70 O 0.66027 0.16777 0.49001 0.0
O71 O 0.7074 0.13256 0.50372 0.0
H72 H 0.64652 0.91719 0.54792 0.0
H73 H 0.60496 0.82553 0.53773 0.0
H74 H 0.59346 0.8576 0.45887 0.0
H75 H 0.6339 0.94922 0.4691 0.0
H76 H 0.61684 0.2009 0.45172 0.0
H77 H 0.68106 0.29206 0.45087 0.0
H78 H 0.598 0.32281 0.50901 0.0
H79 H 0.53292 0.23183 0.50978 0.0
Tb80 Tb 0.57692 0.5623 0.8366 0.0
Tb81 Tb 0.68223 0.62084 0.83133 0.0
C82 C 0.4895 0.52961 0.85397 0.0
C83 C 0.4537 0.54841 0.8516 0.0
C84 C 0.42666 0.54871 0.87311 0.0
C85 C 0.38921 0.56262 0.87091 0.0
C86 C 0.37834 0.57587 0.84707 0.0
C87 C 0.40859 0.57992 0.82596 0.0
C88 C 0.4466 0.56651 0.82825 0.0
C89 C 0.60558 0.57428 0.78917 0.0
C90 C 0.62675 0.68986 0.82786 0.0
C91 C 0.77328 0.65599 0.81737 0.0
C92 C 0.79988 0.62721 0.81184 0.0
C93 C 0.7777 0.58475 0.79506 0.0
C94 C 0.79081 0.54641 0.79683 0.0
C95 C 0.82606 0.5504 0.81524 0.0
C96 C 0.85267 0.59541 0.82979 0.0
C97 C 0.83981 0.63394 0.82799 0.0
C98 C 0.6526 0.60894 0.88017 0.0
C99 C 0.62817 0.49211 0.82781 0.0
O100 O 0.5309 0.55986 0.86696 0.0
O101 O 0.49858 0.51148 0.83307 0.0
O102 O 0.62259 0.60775 0.80642 0.0
O103 O 0.56832 0.53181 0.79781 0.0
O104 O 0.58507 0.64371 0.83299 0.0
O105 O 0.67104 0.68961 0.82559 0.0
O106 O 0.73614 0.6479 0.80185 0.0
O107 O 0.75987 0.65447 0.84115 0.0
O108 O 0.6361 0.57445 0.86291 0.0
O109 O 0.68659 0.65149 0.86993 0.0
O110 O 0.66872 0.53865 0.82242 0.0
O111 O 0.5873 0.49282 0.83732 0.0
H112 H 0.43291 0.53599 0.89132 0.0
H113 H 0.36575 0.5586 0.88739 0.0
H114 H 0.40041 0.58988 0.80747 0.0
H115 H 0.46865 0.56801 0.81159 0.0
H116 H 0.74686 0.57856 0.78228 0.0
H117 H 0.77077 0.51196 0.78529 0.0
H118 H 0.87991 0.59865 0.84418 0.0
H119 H 0.85716 0.66626 0.84109 0.0
C120 C 0.51439 0.96397 0.2088 0.0
C121 C 0.52876 0.97291 0.18305 0.0
C122 C 0.55843 1.02346 0.17454 0.0
C123 C 0.56988 0.0644 0.19104 0.0
H124 H 0.56565 0.21007 0.19177 0.0
H125 H 0.63279 0.27454 0.16507 0.0
H126 H 0.73055 0.33688 0.23102 0.0
H127 H 0.66349 0.27362 0.25765 0.0
H128 H 0.62418 0.2083 0.30976 0.0
H129 H 0.63466 0.19571 0.35482 0.0
H130 H 0.53395 1.03244 0.3454 0.0
H131 H 0.52271 1.04465 0.30076 0.0
H132 H 0.51292 0.99662 0.2448 0.0
H133 H 0.49062 0.92531 0.21581 0.0
H134 H 0.5702 1.03121 0.15484 0.0
H135 H 0.59119 0.10311 0.18375 0.0
N136 N 0.57385 0.14425 0.22314 0.0
N137 N 0.58491 0.18014 0.26397 0.0
N138 N 0.55875 0.09271 0.25868 0.0
C139 C 0.58541 0.18529 0.23832 0.0
C140 C 0.57045 0.13344 0.27421 0.0
C141 C 0.56081 0.09807 0.23313 0.0
C142 C 0.61038 0.236 0.22651 0.0
C143 C 0.60035 0.23965 0.20075 0.0
C144 C 0.63874 0.27628 0.18545 0.0
C145 C 0.68721 0.30898 0.1959 0.0
C146 C 0.69353 0.31164 0.22245 0.0
C147 C 0.65497 0.27533 0.23779 0.0
C148 C 0.57258 0.12745 0.3018 0.0
C149 C 0.60348 0.1699 0.31746 0.0
C150 C 0.60981 0.16275 0.3431 0.0
C151 C 0.58482 0.11324 0.3534 0.0
C152 C 0.55293 0.07108 0.33791 0.0
C153 C 0.54681 0.07811 0.31235 0.0
C154 C 0.55248 0.05524 0.21635 0.0
C155 C 0.52641 1.00479 0.22535 0.0
C156 C 0.77577 0.49182 0.55144 0.0
C157 C 0.78356 0.50228 0.52526 0.0
C158 C 0.79925 0.55205 0.51674 0.0
C159 C 0.79869 0.58808 0.53341 0.0
H160 H 0.67686 0.60559 0.51618 0.0
H161 H 0.62883 0.63173 0.48855 0.0
H162 H 0.59362 0.69838 0.55346 0.0
H163 H 0.6397 0.67107 0.58105 0.0
H164 H 0.68178 0.66478 0.63456 0.0
H165 H 0.65913 0.65602 0.67921 0.0
H166 H 0.71499 0.54911 0.68832 0.0
H167 H 0.73694 0.55684 0.64298 0.0
H168 H 0.76285 0.51661 0.5875 0.0
H169 H 0.76285 0.45354 0.55855 0.0
H170 H 0.80566 0.56097 0.49668 0.0
H171 H 0.80448 0.62404 0.52577 0.0
N172 N 0.72795 0.61217 0.55655 0.0
N173 N 0.69133 0.6266 0.59257 0.0
N174 N 0.7507 0.59772 0.597 0.0
C175 C 0.69534 0.62585 0.567 0.0
C176 C 0.71902 0.61295 0.60769 0.0
C177 C 0.75607 0.59858 0.5713 0.0
C178 C 0.66287 0.63735 0.55068 0.0
C179 C 0.65813 0.62515 0.52457 0.0
C180 C 0.63038 0.63961 0.50877 0.0
C181 C 0.60765 0.66695 0.51886 0.0
C182 C 0.60993 0.6764 0.5452 0.0
C183 C 0.63704 0.66147 0.56099 0.0
C184 C 0.71112 0.61145 0.63531 0.0
C185 C 0.68975 0.6397 0.64604 0.0
C186 C 0.67715 0.63508 0.67165 0.0
C187 C 0.68597 0.60241 0.68711 0.0
C188 C 0.70814 0.5747 0.67664 0.0
C189 C 0.72097 0.57943 0.65085 0.0
C190 C 0.78234 0.57444 0.55864 0.0
C191 C 0.77566 0.52805 0.56815 0.0
C192 C 0.84861 0.4033 0.89079 0.0
C193 C 0.85286 0.39773 0.86446 0.0
C194 C 0.87882 0.37277 0.85549 0.0
C195 C 0.90511 0.35882 0.87246 0.0
H196 H 1.04893 0.42779 0.86267 0.0
H197 H 0.12737 0.48225 0.83951 0.0
H198 H 0.21579 0.50445 0.90776 0.0
H199 H 0.13738 0.45108 0.93142 0.0
H200 H 1.0318 0.36904 0.99068 0.0
H201 H 1.05496 0.40676 0.0333 0.0
H202 H 1.00069 0.51194 0.01435 0.0
H203 H 0.97336 0.47067 0.97273 0.0
H204 H 0.87524 0.39899 0.9277 0.0
H205 H 0.8296 0.42342 0.89816 0.0
H206 H 0.88245 0.36815 0.83525 0.0
H207 H 0.92884 0.34396 0.86484 0.0
N208 N 0.99413 0.39011 0.90128 0.0
N209 N 1.04015 0.41483 0.93927 0.0
N210 N 0.95151 0.38495 0.93938 0.0
C211 C 1.03924 0.40926 0.91368 0.0
C212 C 0.9963 0.40183 0.9522 0.0
C213 C 0.95014 0.37751 0.91381 0.0
C214 C 0.08699 0.43501 0.89896 0.0
C215 C 0.08504 0.44374 0.8728 0.0
C216 C 0.1297 0.47525 0.8595 0.0
C217 C 0.17691 0.49799 0.87207 0.0
C218 C 0.17928 0.48818 0.89794 0.0
C219 C 0.13462 0.45702 0.91133 0.0
C220 C 1.00044 0.41679 0.97889 0.0
C221 C 1.02339 0.39905 -0.00385 0.0
C222 C 1.03755 0.4214 0.02025 0.0
C223 C 1.03126 0.46352 0.02691 0.0
C224 C 1.00595 0.47949 0.00988 0.0
C225 C 0.99017 0.45589 0.98611 0.0
C226 C 0.90631 0.37049 0.89853 0.0
C227 C 0.87483 0.38928 0.90778 0.0
C228 C 0.26437 0.76297 0.45554 0.0
C229 C 0.30065 0.76643 0.47416 0.0
C230 C 0.28282 0.71774 0.48668 0.0
C231 C 0.23433 0.67072 0.48083 0.0
H232 H 1.03885 0.47172 0.49776 0.0
H233 H 0.95949 0.39201 0.50875 0.0
H234 H 0.89348 0.39572 0.43697 0.0
H235 H 0.97091 0.47449 0.42655 0.0
H236 H 1.03147 0.50825 0.37811 0.0
H237 H 1.02986 0.5064 0.33184 0.0
H238 H 0.18121 0.63953 0.33039 0.0
H239 H 0.18192 0.64252 0.37692 0.0
H240 H 0.19358 0.71842 0.43437 0.0
H241 H 0.27327 0.79681 0.44464 0.0
H242 H 0.30639 0.71532 0.50149 0.0
H243 H 0.2257 0.63606 0.49093 0.0
N244 N 0.10862 0.57424 0.46346 0.0
N245 N 1.06866 0.53656 0.42407 0.0
N246 N 0.14684 0.61463 0.4243 0.0
C247 C 1.06659 0.53333 0.45005 0.0
C248 C 0.10761 0.57567 0.41095 0.0
C249 C 0.14974 0.61626 0.45034 0.0
C250 C 1.01501 0.4836 0.46079 0.0
C251 C 1.00763 0.45653 0.48418 0.0
C252 C 0.96049 0.4085 0.49045 0.0
C253 C 0.91596 0.3827 0.47402 0.0
C254 C 0.92369 0.41075 0.45106 0.0
C255 C 0.97027 0.45793 0.44483 0.0
C256 C 0.10685 0.57553 0.3819 0.0
C257 C 1.06449 0.53755 0.36811 0.0
C258 C 1.06368 0.53635 0.34122 0.0
C259 C 0.10527 0.57289 0.32659 0.0
C260 C 0.14763 0.61118 0.34038 0.0
C261 C 0.1483 0.61259 0.3674 0.0
C262 C 0.1988 0.66763 0.46175 0.0
C263 C 0.21676 0.71626 0.44951 0.0
C264 C 0.64399 0.27273 0.78371 0.0
C265 C 0.62625 0.28215 0.80727 0.0
C266 C 0.6096 0.23906 0.82426 0.0
C267 C 0.60996 0.19139 0.81793 0.0
H268 H 0.57062 0.97412 0.82553 0.0
H269 H 0.56975 0.8936 0.8363 0.0
H270 H 0.67933 0.92161 0.77704 0.0
H271 H 0.68024 1.00115 0.76665 0.0
H272 H 0.59516 1.00378 0.71143 0.0
H273 H 0.5905 1.00137 0.66489 0.0
H274 H 0.64289 0.16363 0.66406 0.0
H275 H 0.64694 0.16612 0.71068 0.0
H276 H 0.65815 0.22362 0.75873 0.0
H277 H 0.65731 0.30183 0.7692 0.0
H278 H 0.59629 0.24169 0.84302 0.0
H279 H 0.59568 0.16116 0.83192 0.0
N280 N 0.62388 0.08874 0.79678 0.0
N281 N 0.62275 1.04754 0.75768 0.0
N282 N 0.62384 0.12654 0.75731 0.0
C283 C 0.62349 1.04649 0.78371 0.0
C284 C 0.62262 0.08635 0.74429 0.0
C285 C 0.62437 0.13012 0.78329 0.0
C286 C 0.62655 0.99818 0.79516 0.0
C287 C 0.59565 0.96433 0.81495 0.0
C288 C 0.59446 0.91603 0.82092 0.0
C289 C 0.6241 0.89699 0.80775 0.0
C290 C 0.65547 0.93168 0.78843 0.0
C291 C 0.65611 0.97911 0.78233 0.0
C292 C 0.62122 0.08509 0.71533 0.0
C293 C 0.60585 1.03914 0.70147 0.0
C294 C 0.60292 1.03768 0.67458 0.0
C295 C 0.61598 0.08224 0.66032 0.0
C296 C 0.63258 0.12846 0.67411 0.0
C297 C 0.63463 0.12977 0.70104 0.0
C298 C 0.62707 0.18233 0.79396 0.0
C299 C 0.64421 0.22573 0.77746 0.0
C300 C 0.80939 0.61204 0.12367 0.0
C301 C 0.81219 0.5754 0.13988 0.0
C302 C 0.76251 0.5396 0.15003 0.0
C303 C 0.71518 0.5408 0.14453 0.0
H304 H 0.50339 0.52128 0.15658 0.0
H305 H 0.4221 0.52085 0.16628 0.0
H306 H 0.4552 0.63082 0.10713 0.0
H307 H 0.53496 0.63195 0.09813 0.0
H308 H 0.54643 0.55908 0.04229 0.0
H309 H 0.55075 0.56322 -0.00428 0.0
H310 H 0.71178 0.61112 -0.00112 0.0
H311 H 0.70752 0.60656 0.04534 0.0
H312 H 0.76522 0.64146 0.10476 0.0
H313 H 0.8437 0.63996 0.11405 0.0
H314 H 0.75977 0.50969 0.1624 0.0
H315 H 0.67962 0.511 0.15249 0.0
N316 N 0.6195 0.57386 0.12937 0.0
N317 N 0.58371 0.57812 0.08983 0.0
N318 N 0.6626 0.57898 0.09056 0.0
C319 C 0.57922 0.5755 0.11578 0.0
C320 C 0.6241 0.57955 0.077 0.0
C321 C 0.6624 0.57575 0.1165 0.0
C322 C 0.52993 0.57792 0.12663 0.0
C323 C 0.49465 0.5468 0.14598 0.0
C324 C 0.44624 0.54608 0.15143 0.0
C325 C 0.42885 0.57671 0.13827 0.0
C326 C 0.46449 0.60744 0.11909 0.0
C327 C 0.51198 0.60781 0.11359 0.0
C328 C 0.62656 0.58229 0.04808 0.0
C329 C 0.58286 0.57037 0.03317 0.0
C330 C 0.58523 0.57235 0.00624 0.0
C331 C 0.63156 0.58707 0.99309 0.0
C332 C 0.67531 0.59957 0.00803 0.0
C333 C 0.67278 0.59677 0.03488 0.0
C334 C 0.71309 0.57785 0.12823 0.0
C335 C 0.76255 0.61288 0.11807 0.0
C336 C 0.28058 0.53282 0.15692 0.0
C337 C 0.27304 0.5761 0.15321 0.0
C338 C 0.32906 0.53325 0.15268 0.0
C339 C 0.37539 0.57677 0.14377 0.0
H340 H 0.2482 0.49733 0.16338 0.0
H341 H 0.32965 0.498 0.15614 0.0
S342 S 0.37983 0.70148 0.1305 0.0
N343 N 0.31983 0.66465 0.13962 0.0
N344 N 0.40741 0.6657 0.13195 0.0
C345 C 0.36815 0.62021 0.13993 0.0
C346 C 0.31896 0.61985 0.14448 0.0
C347 C 0.76701 0.26517 0.47158 0.0
C348 C 0.76075 0.22732 0.48985 0.0
C349 C 0.81501 0.31294 0.46689 0.0
C350 C 0.86293 0.32885 0.47988 0.0
H351 H 0.73401 0.25765 0.46027 0.0
H352 H 0.81371 0.33821 0.45275 0.0
S353 S 0.87209 0.24304 0.52854 0.0
N354 N 0.81113 0.21028 0.5201 0.0
N355 N 0.89797 0.29626 0.51169 0.0
C356 C 0.85733 0.29046 0.49786 0.0
C357 C 0.80833 0.24169 0.50253 0.0
C358 C 0.66637 0.7875 0.81263 0.0
C359 C 0.62442 0.74195 0.82308 0.0
C360 C 0.66571 0.83509 0.80793 0.0
C361 C 0.62328 0.84321 0.81346 0.0
H362 H 0.70098 0.78659 0.8077 0.0
H363 H 0.70012 0.86655 0.79998 0.0
S364 S 0.50112 0.73694 0.84031 0.0
N365 N 0.53746 0.70993 0.83805 0.0
N366 N 0.53615 0.79628 0.82987 0.0
C367 C 0.58083 0.79767 0.82387 0.0
C368 C 0.58137 0.74886 0.82837 0.0
C369 C 0.91639 0.52838 0.15419 0.0
C370 C 0.96633 0.57318 0.15515 0.0
C371 C 0.86847 0.52915 0.15004 0.0
C372 C 0.86528 0.57476 0.14545 0.0
H373 H 0.91416 0.49158 0.15666 0.0
H374 H 0.83318 0.49264 0.14991 0.0
S375 S 0.98398 0.70413 0.14427 0.0
N376 N 1.00714 0.66546 0.15009 0.0
N377 N 0.92117 0.6671 0.1421 0.0
C378 C 0.9153 0.61974 0.14588 0.0
C379 C 0.96375 0.61893 0.15063 0.0
C380 C 0.41028 0.91802 0.47982 0.0
C381 C 0.45669 0.92154 0.48944 0.0
C382 C 0.36246 0.86999 0.47509 0.0
C383 C 0.35474 0.81939 0.47978 0.0
H384 H 0.41065 0.95348 0.47556 0.0
H385 H 0.33049 0.87315 0.46779 0.0
S386 S 0.46271 0.80316 0.50451 0.0
N387 N 0.48952 0.86623 0.50284 0.0
N388 N 0.40294 0.77919 0.49465 0.0
C389 C 0.40105 0.82242 0.4894 0.0
C390 C 0.45007 0.87151 0.4939 0.0
C391 C 0.65744 0.43081 0.80394 0.0
C392 C 0.62737 0.43838 0.82285 0.0
C393 C 0.65691 0.38239 0.79939 0.0
C394 C 0.6259 0.33554 0.8131 0.0
H395 H 0.68193 0.46303 0.79208 0.0
H396 H 0.68232 0.38247 0.78475 0.0
S397 S 0.53554 0.33041 0.86389 0.0
N398 N 0.56283 0.39081 0.8547 0.0
N399 N 0.56117 0.30288 0.84639 0.0
C400 C 0.59456 0.34244 0.83172 0.0
C401 C 0.59521 0.3919 0.83631 0.0
C402 C 0.54416 0.74195 0.50452 0.0
C403 C 0.58369 0.78279 0.49123 0.0
C404 C 0.54702 0.69786 0.50954 0.0
C405 C 0.59055 0.6948 0.50227 0.0
H406 H 0.51475 0.74674 0.514 0.0
H407 H 0.51915 0.6698 0.52241 0.0
S408 S 0.69782 0.78689 0.46186 0.0
N409 N 0.66123 0.81312 0.46612 0.0
N410 N 0.66846 0.73138 0.47674 0.0
C411 C 0.62591 0.73172 0.48549 0.0
C412 C 0.6221 0.77588 0.47977 0.0
C413 C 0.87286 0.50231 0.81943 0.0
C414 C 0.82788 0.50471 0.82296 0.0
C415 C 0.87883 0.46404 0.83122 0.0
C416 C 0.83995 0.42746 0.8469 0.0
H417 H 0.90455 0.53181 0.80875 0.0
H418 H 0.91557 0.46555 0.82962 0.0
S419 S 0.7151 0.41787 0.86183 0.0
N420 N 0.74409 0.46814 0.84301 0.0
N421 N 0.75437 0.3944 0.86417 0.0
C422 C 0.79372 0.42791 0.84931 0.0
C423 C 0.78792 0.46718 0.83761 0.0
C424 C 0.45328 0.8366 0.16398 0.0
C425 C 0.41508 0.83873 0.14959 0.0
C426 C 0.49707 0.88184 0.17144 0.0
C427 C 0.50291 0.92986 0.16491 0.0
H428 H 0.44589 0.80074 0.17246 0.0
H429 H 0.52241 0.87946 0.18532 0.0
S430 S 0.4203 0.95367 0.12119 0.0
N431 N 0.39145 0.89067 0.12389 0.0
N432 N 0.47314 0.97606 0.13835 0.0
C433 C 0.46964 0.9316 0.14668 0.0
C434 C 0.4255 0.88553 0.13885 0.0
C435 C 0.68589 0.40783 0.48015 0.0
C436 C 0.68884 0.36364 0.48519 0.0
C437 C 0.72137 0.45492 0.49091 0.0
C438 C 0.76052 0.45886 0.50714 0.0
H439 H 0.6538 0.40516 0.46948 0.0
H440 H 0.71486 0.48712 0.4885 0.0
S441 S 0.78613 0.3544 0.52452 0.0
N442 N 0.73469 0.32647 0.50618 0.0
N443 N 0.80308 0.41585 0.52552 0.0
C444 C 0.76632 0.41568 0.51041 0.0
C445 C 0.72985 0.36764 0.49971 0.0
C446 C 0.3131 0.59735 0.86118 0.0
C447 C 0.32802 0.57143 0.8438 0.0
C448 C 0.26188 0.57599 0.86837 0.0
C449 C 0.22468 0.52867 0.8581 0.0
H450 H 0.34182 0.63041 0.87165 0.0
H451 H 0.2522 0.59379 0.88384 0.0
S452 S 0.24333 0.45184 0.80801 0.0
N453 N 0.30112 0.50105 0.81336 0.0
N454 N 0.20438 0.46106 0.8268 0.0
C455 C 0.23806 0.50644 0.83807 0.0
C456 C 0.29018 0.5281 0.83078 0.0
C457 C 0.82398 0.39141 0.17664 0.0
C458 C 0.83349 0.35614 0.16328 0.0
C459 C 0.77453 0.378 0.18456 0.0
C460 C 0.73342 0.32844 0.17995 0.0
H461 H 0.85531 0.42839 0.18243 0.0
H462 H 0.76914 0.40502 0.19617 0.0
S463 S 0.73897 0.2228 0.14503 0.0
N464 N 0.79835 0.27121 0.14447 0.0
N465 N 0.70525 0.24456 0.16025 0.0
C466 C 0.74209 0.29383 0.16524 0.0
C467 C 0.79235 0.308 0.15678 0.0
C468 C 1.04725 0.54158 0.0868 0.0
C469 C 0.09623 0.55361 0.09531 0.0
C470 C 1.02591 0.51108 0.06509 0.0
C471 C 1.05343 0.49279 0.0508 0.0
H472 H 1.02489 0.55499 0.09727 0.0
H473 H 0.98755 0.50182 0.05948 0.0
S474 S 0.18526 0.51757 0.06467 0.0
N475 N 0.17215 0.5461 0.0882 0.0
N476 N 0.13396 0.49187 0.04622 0.0
C477 C 0.10303 0.50546 0.05908 0.0
C478 C 0.12399 0.5352 0.08163 0.0
C479 C 0.65331 0.11093 0.41308 0.0
C480 C 0.61244 0.08152 0.42961 0.0
C481 C 0.64414 0.12251 0.38861 0.0
C482 C 0.59381 0.10473 0.37994 0.0
H483 H 0.6926 0.12514 0.41909 0.0
H484 H 0.67651 0.14445 0.37618 0.0
S485 S 0.47367 1.02746 0.41602 0.0
N486 N 0.51981 1.03525 0.43567 0.0
N487 N 0.50284 0.05793 0.3898 0.0
C488 C 0.5527 0.07593 0.39637 0.0
C489 C 0.56196 0.06408 0.42121 0.0
C490 C 0.61477 0.53965 0.7475 0.0
C491 C 0.62695 0.58215 0.76337 0.0
C492 C 0.6357 0.54633 0.72306 0.0
C493 C 0.66929 0.59571 0.71383 0.0
H494 H 0.58891 0.50103 0.75396 0.0
H495 H 0.62445 0.51281 0.71108 0.0
S496 S 0.71454 0.71928 0.74817 0.0
N497 N 0.67495 0.67524 0.76817 0.0
N498 N 0.71558 0.68747 0.72259 0.0
C499 C 0.68257 0.63837 0.72969 0.0
C500 C 0.661 0.63167 0.7544 0.0
C501 C 0.64589 0.11302 0.58842 0.0
C502 C 0.59969 0.07786 0.57607 0.0
C503 C 0.65097 0.11455 0.61541 0.0
C504 C 0.61062 0.08013 0.6314 0.0
H505 H 0.67799 0.14053 0.57722 0.0
H506 H 0.68701 0.14285 0.62382 0.0
S507 S 0.48226 0.97962 0.60875 0.0
N508 N 0.51314 1.00744 0.58236 0.0
N509 N 0.52298 1.0095 0.63223 0.0
C510 C 0.5648 1.04425 0.61915 0.0
C511 C 0.55932 1.04335 0.59186 0.0
C512 C 0.67962 0.64005 0.92561 0.0
C513 C 0.64537 0.60111 0.90879 0.0
C514 C 0.675 0.63496 0.9524 0.0
C515 C 0.63511 0.59103 0.96413 0.0
H516 H 0.71094 0.67507 0.91802 0.0
H517 H 0.70279 0.66631 0.96409 0.0
S518 S 0.53454 0.47723 0.92921 0.0
N519 N 0.57006 0.51619 0.90633 0.0
N520 N 0.5604 0.5073 0.95628 0.0
C521 C 0.60014 0.55184 0.94758 0.0
C522 C 0.60551 0.55662 0.92018 0.0
C523 C 1.07993 0.51394 0.25865 0.0
C524 C 0.10009 0.55601 0.2418 0.0
C525 C 0.0821 0.52006 0.28541 0.0
C526 C 0.10454 0.5688 0.2974 0.0
H527 H 1.0622 0.47514 0.2511 0.0
H528 H 1.06643 0.48568 0.29681 0.0
S529 S 0.1623 0.69268 0.26245 0.0
N530 N 0.14315 0.64897 0.23951 0.0
N531 N 0.14677 0.66079 0.28948 0.0
C532 C 0.12494 0.61161 0.28081 0.0
C533 C 0.12271 0.60521 0.2533 0.0
loop_
_geom_bond_atom_site_label_1
_geom_bond_atom_site_label_2
_geom_bond_distance
_geom_bond_site_symmetry_2
_ccdc_geom_bond_type
Tb0 C2 2.809 . S
Tb0 O20 2.484 . S
Tb0 O21 2.440 . S
Tb0 O22 2.658 . S
Tb0 O23 2.409 . S
Tb0 O24 2.378 . S
Tb0 O28 2.325 . S
Tb0 O31 2.341 1_455 S
Tb1 C11 2.809 . S
Tb1 O22 2.325 1_655 S
Tb1 O25 2.341 1_655 S
Tb1 O26 2.484 . S
Tb1 O27 2.440 . S
Tb1 O28 2.658 1_655 S
Tb1 O29 2.408 . S
Tb1 O30 2.378 . S
C2 Tb0 2.809 . S
C2 C3 1.514 . S
C2 O20 1.248 . S
C2 O21 1.266 . S
C3 C2 1.514 . S
C3 C4 1.359 . S
C3 C8 1.348 . S
C4 C3 1.359 . S
C4 C5 1.380 . S
C4 H32 0.929 . S
C5 C4 1.380 . S
C5 C6 1.347 . S
C5 H33 0.931 . S
C6 C5 1.347 . S
C6 C7 1.369 . S
C7 C6 1.369 . S
C7 C8 1.408 . S
C7 H34 0.930 . S
C8 C3 1.348 . S
C8 C7 1.408 . S
C8 H35 0.930 . S
C9 O22 1.281 . S
C9 O23 1.254 . S
C10 O24 1.236 . S
C10 O25 1.266 . S
C11 Tb1 2.809 . S
C11 C12 1.514 . S
C11 O26 1.248 . S
C11 O27 1.266 . S
C12 C11 1.514 . S
C12 C13 1.359 . S
C12 C17 1.348 . S
C13 C12 1.359 . S
C13 C14 1.380 . S
C13 H36 0.929 . S
C14 C13 1.380 . S
C14 C15 1.347 . S
C14 H37 0.931 . S
C15 C14 1.347 . S
C15 C16 1.369 . S
C16 C15 1.369 . S
C16 C17 1.408 . S
C16 H38 0.930 . S
C17 C12 1.348 . S
C17 C16 1.408 . S
C17 H39 0.930 . S
C18 O28 1.281 . S
C18 O29 1.252 1_455 S
C19 O30 1.236 . S
C19 O31 1.266 . S
O20 Tb0 2.484 . S
O20 C2 1.248 . S
O21 Tb0 2.440 . S
O21 C2 1.266 . S
O22 Tb0 2.658 . S
O22 Tb1 2.325 1_455 S
O22 C9 1.281 . S
O23 Tb0 2.409 . S
O23 C9 1.254 . S
O24 Tb0 2.378 . S
O24 C10 1.236 . S
O25 Tb1 2.341 1_455 S
O25 C10 1.266 . S
O26 Tb1 2.484 . S
O26 C11 1.248 . S
O27 Tb1 2.440 . S
O27 C11 1.266 . S
O28 Tb0 2.325 . S
O28 Tb1 2.658 1_455 S
O28 C18 1.281 . S
O29 Tb1 2.408 . S
O29 C18 1.252 1_655 S
O30 Tb1 2.378 . S
O30 C19 1.236 . S
O31 Tb0 2.341 1_655 S
O31 C19 1.266 . S
H32 C4 0.929 . S
H33 C5 0.931 . S
H34 C7 0.930 . S
H35 C8 0.930 . S
H36 C13 0.929 . S
H37 C14 0.931 . S
H38 C16 0.930 . S
H39 C17 0.930 . S
Tb40 C42 2.809 . S
Tb40 O60 2.484 . S
Tb40 O61 2.440 . S
Tb40 O62 2.658 1_565 S
Tb40 O63 2.405 1_565 S
Tb40 O64 2.378 . S
Tb40 O68 2.325 1_565 S
Tb40 O71 2.341 1_565 S
Tb41 C51 2.809 . S
Tb41 O62 2.325 . S
Tb41 O65 2.341 1_545 S
Tb41 O66 2.484 . S
Tb41 O67 2.440 . S
Tb41 O68 2.658 . S
Tb41 O69 2.409 . S
Tb41 O70 2.378 . S
C42 Tb40 2.809 . S
C42 C43 1.514 . S
C42 O60 1.248 . S
C42 O61 1.266 . S
C43 C42 1.514 . S
C43 C44 1.359 . S
C43 C48 1.348 . S
C44 C43 1.359 . S
C44 C45 1.380 . S
C44 H72 0.929 . S
C45 C44 1.380 . S
C45 C46 1.347 . S
C45 H73 0.931 . S
C46 C45 1.347 . S
C46 C47 1.369 . S
C47 C46 1.369 . S
C47 C48 1.408 . S
C47 H74 0.930 . S
C48 C43 1.348 . S
C48 C47 1.408 . S
C48 H75 0.930 . S
C49 O62 1.281 . S
C49 O63 1.273 . S
C50 O64 1.236 . S
C50 O65 1.266 . S
C51 Tb41 2.809 . S
C51 C52 1.514 . S
C51 O66 1.248 . S
C51 O67 1.266 . S
C52 C51 1.514 . S
C52 C53 1.359 . S
C52 C57 1.348 . S
C53 C52 1.359 . S
C53 C54 1.380 . S
C53 H76 0.929 . S
C54 C53 1.380 . S
C54 C55 1.347 . S
C54 H77 0.931 . S
C55 C54 1.347 . S
C55 C56 1.369 . S
C56 C55 1.369 . S
C56 C57 1.408 . S
C56 H78 0.930 . S
C57 C52 1.348 . S
C57 C56 1.408 . S
C57 H79 0.930 . S
C58 O68 1.281 . S
C58 O69 1.254 . S
C59 O70 1.236 . S
C59 O71 1.266 . S
O60 Tb40 2.484 . S
O60 C42 1.248 . S
O61 Tb40 2.440 . S
O61 C42 1.266 . S
O62 Tb40 2.658 1_545 S
O62 Tb41 2.325 . S
O62 C49 1.281 . S
O63 Tb40 2.405 1_545 S
O63 C49 1.273 . S
O64 Tb40 2.378 . S
O64 C50 1.236 . S
O65 Tb41 2.341 1_565 S
O65 C50 1.266 . S
O66 Tb41 2.484 . S
O66 C51 1.248 . S
O67 Tb41 2.440 . S
O67 C51 1.266 . S
O68 Tb40 2.325 1_545 S
O68 Tb41 2.658 . S
O68 C58 1.281 . S
O69 Tb41 2.409 . S
O69 C58 1.254 . S
O70 Tb41 2.378 . S
O70 C59 1.236 . S
O71 Tb40 2.341 1_545 S
O71 C59 1.266 . S
H72 C44 0.929 . S
H73 C45 0.931 . S
H74 C47 0.930 . S
H75 C48 0.930 . S
H76 C53 0.929 . S
H77 C54 0.931 . S
H78 C56 0.930 . S
H79 C57 0.930 . S
Tb80 C82 2.809 . S
Tb80 O100 2.484 . S
Tb80 O101 2.440 . S
Tb80 O102 2.658 . S
Tb80 O103 2.409 . S
Tb80 O104 2.378 . S
Tb80 O108 2.325 . S
Tb80 O111 2.341 . S
Tb81 C91 2.809 . S
Tb81 O102 2.325 . S
Tb81 O105 2.341 . S
Tb81 O106 2.484 . S
Tb81 O107 2.440 . S
Tb81 O108 2.658 . S
Tb81 O109 2.409 . S
Tb81 O110 2.378 . S
C82 Tb80 2.809 . S
C82 C83 1.514 . S
C82 O100 1.248 . S
C82 O101 1.266 . S
C83 C82 1.514 . S
C83 C84 1.359 . S
C83 C88 1.348 . S
C84 C83 1.359 . S
C84 C85 1.380 . S
C84 H112 0.929 . S
C85 C84 1.380 . S
C85 C86 1.347 . S
C85 H113 0.931 . S
C86 C85 1.347 . S
C86 C87 1.369 . S
C87 C86 1.369 . S
C87 C88 1.408 . S
C87 H114 0.930 . S
C88 C83 1.348 . S
C88 C87 1.408 . S
C88 H115 0.930 . S
C89 O102 1.281 . S
C89 O103 1.254 . S
C90 O104 1.236 . S
C90 O105 1.266 . S
C91 Tb81 2.809 . S
C91 C92 1.514 . S
C91 O106 1.248 . S
C91 O107 1.266 . S
C92 C91 1.514 . S
C92 C93 1.359 . S
C92 C97 1.348 . S
C93 C92 1.359 . S
C93 C94 1.380 . S
C93 H116 0.929 . S
C94 C93 1.380 . S
C94 C95 1.347 . S
C94 H117 0.931 . S
C95 C94 1.347 . S
C95 C96 1.369 . S
C96 C95 1.369 . S
C96 C97 1.408 . S
C96 H118 0.930 . S
C97 C92 1.348 . S
C97 C96 1.408 . S
C97 H119 0.930 . S
C98 O108 1.281 . S
C98 O109 1.254 . S
C99 O110 1.236 . S
C99 O111 1.266 . S
O100 Tb80 2.484 . S
O100 C82 1.248 . S
O101 Tb80 2.440 . S
O101 C82 1.266 . S
O102 Tb80 2.658 . S
O102 Tb81 2.325 . S
O102 C89 1.281 . S
O103 Tb80 2.409 . S
O103 C89 1.254 . S
O104 Tb80 2.378 . S
O104 C90 1.236 . S
O105 Tb81 2.341 . S
O105 C90 1.266 . S
O106 Tb81 2.484 . S
O106 C91 1.248 . S
O107 Tb81 2.440 . S
O107 C91 1.266 . S
O108 Tb80 2.325 . S
O108 Tb81 2.658 . S
O108 C98 1.281 . S
O109 Tb81 2.409 . S
O109 C98 1.254 . S
O110 Tb81 2.378 . S
O110 C99 1.236 . S
O111 Tb80 2.341 . S
O111 C99 1.266 . S
H112 C84 0.929 . S
H113 C85 0.931 . S
H114 C87 0.930 . S
H115 C88 0.930 . S
H116 C93 0.929 . S
H117 C94 0.931 . S
H118 C96 0.930 . S
H119 C97 0.930 . S
C120 C121 1.384 . S
C120 H133 0.947 . S
C120 C155 1.382 . S
C121 C120 1.384 . S
C121 C122 1.378 . S
C122 C121 1.378 . S
C122 C123 1.378 . S
C122 H134 0.952 . S
C123 C122 1.378 . S
C123 H135 0.950 . S
C123 C154 1.383 . S
H124 C143 0.947 . S
H125 C144 0.946 . S
H126 C146 0.953 . S
H127 C147 0.945 . S
H128 C149 0.952 . S
H129 C150 0.949 . S
H130 C152 0.952 . S
H131 C153 0.948 . S
H132 C155 0.951 . S
H133 C120 0.947 . S
H134 C122 0.952 . S
H135 C123 0.950 . S
N136 C139 1.382 . S
N136 C141 1.363 . S
N137 C139 1.371 . S
N137 C140 1.372 . S
N138 C140 1.361 . S
N138 C141 1.377 . S
C139 N136 1.382 . S
C139 N137 1.371 . S
C139 C142 1.480 . S
C140 N137 1.372 . S
C140 N138 1.361 . S
C140 C148 1.457 . S
C141 N136 1.363 . S
C141 N138 1.377 . S
C141 C154 1.479 1_545 S
C142 C139 1.480 . S
C142 C143 1.383 . S
C142 C147 1.385 . S
C143 H124 0.947 . S
C143 C142 1.383 . S
C143 C144 1.388 . S
C144 H125 0.946 . S
C144 C143 1.388 . S
C144 C145 1.384 . S
C145 C144 1.384 . S
C145 C146 1.377 . S
C146 H126 0.953 . S
C146 C145 1.377 . S
C146 C147 1.369 . S
C147 H127 0.945 . S
C147 C142 1.385 . S
C147 C146 1.369 . S
C148 C140 1.457 . S
C148 C149 1.372 . S
C148 C153 1.364 1_545 S
C149 H128 0.952 . S
C149 C148 1.372 . S
C149 C150 1.389 . S
C150 H129 0.949 . S
C150 C149 1.389 . S
C150 C151 1.387 . S
C151 C150 1.387 . S
C151 C152 1.370 1_545 S
C152 H130 0.952 . S
C152 C151 1.370 1_565 S
C152 C153 1.379 . S
C153 H131 0.948 . S
C153 C148 1.364 1_565 S
C153 C152 1.379 . S
C154 C123 1.383 . S
C154 C141 1.479 1_565 S
C154 C155 1.398 . S
C155 C120 1.382 . S
C155 H132 0.951 . S
C155 C154 1.398 . S
C156 C157 1.384 . S
C156 H169 0.947 . S
C156 C191 1.382 . S
C157 C156 1.384 . S
C157 C158 1.378 . S
C158 C157 1.378 . S
C158 C159 1.378 . S
C158 H170 0.952 . S
C159 C158 1.378 . S
C159 H171 0.950 . S
C159 C190 1.383 . S
H160 C179 0.947 . S
H161 C180 0.946 . S
H162 C182 0.953 . S
H163 C183 0.945 . S
H164 C185 0.952 . S
H165 C186 0.949 . S
H166 C188 0.950 . S
H167 C189 0.948 . S
H168 C191 0.951 . S
H169 C156 0.947 . S
H170 C158 0.952 . S
H171 C159 0.950 . S
N172 C175 1.382 . S
N172 C177 1.363 . S
N173 C175 1.371 . S
N173 C176 1.372 . S
N174 C176 1.361 . S
N174 C177 1.377 . S
C175 N172 1.382 . S
C175 N173 1.371 . S
C175 C178 1.480 . S
C176 N173 1.372 . S
C176 N174 1.361 . S
C176 C184 1.457 . S
C177 N172 1.363 . S
C177 N174 1.377 . S
C177 C190 1.479 . S
C178 C175 1.480 . S
C178 C179 1.383 . S
C178 C183 1.385 . S
C179 H160 0.947 . S
C179 C178 1.383 . S
C179 C180 1.388 . S
C180 H161 0.946 . S
C180 C179 1.388 . S
C180 C181 1.384 . S
C181 C180 1.384 . S
C181 C182 1.377 . S
C182 H162 0.953 . S
C182 C181 1.377 . S
C182 C183 1.369 . S
C183 H163 0.945 . S
C183 C178 1.385 . S
C183 C182 1.369 . S
C184 C176 1.457 . S
C184 C185 1.372 . S
C184 C189 1.364 . S
C185 H164 0.952 . S
C185 C184 1.372 . S
C185 C186 1.389 . S
C186 H165 0.949 . S
C186 C185 1.389 . S
C186 C187 1.387 . S
C187 C186 1.387 . S
C187 C188 1.372 . S
C188 H166 0.950 . S
C188 C187 1.372 . S
C188 C189 1.379 . S
C189 H167 0.948 . S
C189 C184 1.364 . S
C189 C188 1.379 . S
C190 C159 1.383 . S
C190 C177 1.479 . S
C190 C191 1.398 . S
C191 C156 1.382 . S
C191 H168 0.951 . S
C191 C190 1.398 . S
C192 C193 1.384 . S
C192 H205 0.947 . S
C192 C227 1.382 . S
C193 C192 1.384 . S
C193 C194 1.378 . S
C194 C193 1.378 . S
C194 C195 1.378 . S
C194 H206 0.952 . S
C195 C194 1.378 . S
C195 H207 0.950 . S
C195 C226 1.383 . S
H196 C215 0.947 . S
H197 C216 0.946 . S
H198 C218 0.953 . S
H199 C219 0.945 . S
H200 C221 0.952 . S
H201 C222 0.949 . S
H202 C224 0.950 . S
H203 C225 0.948 . S
H204 C227 0.951 . S
H205 C192 0.947 . S
H206 C194 0.952 . S
H207 C195 0.950 . S
N208 C211 1.382 1_655 S
N208 C213 1.363 . S
N209 C211 1.371 . S
N209 C212 1.372 1_455 S
N210 C212 1.360 . S
N210 C213 1.377 . S
C211 N208 1.382 1_455 S
C211 N209 1.371 . S
C211 C214 1.480 . S
C212 N209 1.372 1_655 S
C212 N210 1.360 . S
C212 C220 1.456 . S
C213 N208 1.363 . S
C213 N210 1.377 . S
C213 C226 1.479 . S
C214 C211 1.480 . S
C214 C215 1.383 . S
C214 C219 1.385 . S
C215 H196 0.947 . S
C215 C214 1.383 . S
C215 C216 1.388 . S
C216 H197 0.946 . S
C216 C215 1.388 . S
C216 C217 1.384 . S
C217 C216 1.384 . S
C217 C218 1.377 . S
C218 H198 0.953 . S
C218 C217 1.377 . S
C218 C219 1.369 . S
C219 H199 0.945 . S
C219 C214 1.385 . S
C219 C218 1.369 . S
C220 C212 1.456 . S
C220 C221 1.359 1_655 S
C220 C225 1.378 . S
C221 H200 0.952 . S
C221 C220 1.359 1_455 S
C221 C222 1.389 1_556 S
C222 H201 0.949 . S
C222 C221 1.389 1_554 S
C222 C223 1.387 . S
C223 C222 1.387 . S
C223 C224 1.372 1_455 S
C224 H202 0.950 . S
C224 C223 1.372 1_655 S
C224 C225 1.379 1_554 S
C225 H203 0.948 . S
C225 C220 1.378 . S
C225 C224 1.379 1_556 S
C226 C195 1.383 . S
C226 C213 1.479 . S
C226 C227 1.398 . S
C227 C192 1.382 . S
C227 H204 0.951 . S
C227 C226 1.398 . S
C228 C229 1.384 . S
C228 H241 0.947 . S
C228 C263 1.382 . S
C229 C228 1.384 . S
C229 C230 1.378 . S
C230 C229 1.378 . S
C230 C231 1.378 . S
C230 H242 0.952 . S
C231 C230 1.378 . S
C231 H243 0.950 . S
C231 C262 1.383 . S
H232 C251 0.947 1_455 S
H233 C252 0.946 . S
H234 C254 0.953 . S
H235 C255 0.945 . S
H236 C257 0.952 1_655 S
H237 C258 0.949 1_655 S
H238 C260 0.950 . S
H239 C261 0.948 . S
H240 C263 0.951 . S
H241 C228 0.947 . S
H242 C230 0.952 . S
H243 C231 0.950 . S
N244 C247 1.382 . S
N244 C249 1.363 . S
N245 C247 1.371 . S
N245 C248 1.372 . S
N246 C248 1.361 . S
N246 C249 1.377 . S
C247 N244 1.382 . S
C247 N245 1.371 . S
C247 C250 1.480 1_455 S
C248 N245 1.372 . S
C248 N246 1.361 . S
C248 C256 1.457 . S
C249 N244 1.363 . S
C249 N246 1.377 . S
C249 C262 1.479 . S
C250 C247 1.480 1_655 S
C250 C251 1.383 . S
C250 C255 1.385 . S
C251 H232 0.947 1_655 S
C251 C250 1.383 . S
C251 C252 1.388 . S
C252 H233 0.946 . S
C252 C251 1.388 . S
C252 C253 1.384 . S
C253 C252 1.384 . S
C253 C254 1.377 . S
C254 H234 0.953 . S
C254 C253 1.377 . S
C254 C255 1.369 . S
C255 H235 0.945 . S
C255 C250 1.385 . S
C255 C254 1.369 . S
C256 C248 1.457 . S
C256 C257 1.372 . S
C256 C261 1.364 . S
C257 H236 0.952 1_455 S
C257 C256 1.372 . S
C257 C258 1.389 . S
C258 H237 0.949 1_455 S
C258 C257 1.389 . S
C258 C259 1.387 . S
C259 C258 1.387 . S
C259 C260 1.372 . S
C260 H238 0.950 . S
C260 C259 1.372 . S
C260 C261 1.379 . S
C261 H239 0.948 . S
C261 C256 1.364 . S
C261 C260 1.379 . S
C262 C231 1.383 . S
C262 C249 1.479 . S
C262 C263 1.398 . S
C263 C228 1.382 . S
C263 H240 0.951 . S
C263 C262 1.398 . S
C264 C265 1.384 . S
C264 H277 0.947 . S
C264 C299 1.382 . S
C265 C264 1.384 . S
C265 C266 1.378 . S
C266 C265 1.378 . S
C266 C267 1.378 . S
C266 H278 0.952 . S
C267 C266 1.378 . S
C267 H279 0.950 . S
C267 C298 1.383 . S
H268 C287 0.947 . S
H269 C288 0.946 . S
H270 C290 0.953 . S
H271 C291 0.945 . S
H272 C293 0.952 . S
H273 C294 0.949 . S
H274 C296 0.950 . S
H275 C297 0.948 . S
H276 C299 0.951 . S
H277 C264 0.947 . S
H278 C266 0.952 . S
H279 C267 0.950 . S
N280 C283 1.382 1_545 S
N280 C285 1.363 . S
N281 C283 1.371 . S
N281 C284 1.372 1_565 S
N282 C284 1.361 . S
N282 C285 1.377 . S
C283 N280 1.382 1_565 S
C283 N281 1.371 . S
C283 C286 1.480 . S
C284 N281 1.372 1_545 S
C284 N282 1.361 . S
C284 C292 1.457 . S
C285 N280 1.363 . S
C285 N282 1.377 . S
C285 C298 1.479 . S
C286 C283 1.480 . S
C286 C287 1.383 . S
C286 C291 1.385 . S
C287 H268 0.947 . S
C287 C286 1.383 . S
C287 C288 1.388 . S
C288 H269 0.946 . S
C288 C287 1.388 . S
C288 C289 1.384 . S
C289 C288 1.384 . S
C289 C290 1.377 . S
C290 H270 0.953 . S
C290 C289 1.377 . S
C290 C291 1.369 . S
C291 H271 0.945 . S
C291 C286 1.385 . S
C291 C290 1.369 . S
C292 C284 1.457 . S
C292 C293 1.372 1_545 S
C292 C297 1.364 . S
C293 H272 0.952 . S
C293 C292 1.372 1_565 S
C293 C294 1.389 . S
C294 H273 0.949 . S
C294 C293 1.389 . S
C294 C295 1.387 1_565 S
C295 C294 1.387 1_545 S
C295 C296 1.372 . S
C296 H274 0.950 . S
C296 C295 1.372 . S
C296 C297 1.379 . S
C297 H275 0.948 . S
C297 C292 1.364 . S
C297 C296 1.379 . S
C298 C267 1.383 . S
C298 C285 1.479 . S
C298 C299 1.398 . S
C299 C264 1.382 . S
C299 H276 0.951 . S
C299 C298 1.398 . S
C300 C301 1.384 . S
C300 H313 0.947 . S
C300 C335 1.382 . S
C301 C300 1.384 . S
C301 C302 1.378 . S
C302 C301 1.378 . S
C302 C303 1.378 . S
C302 H314 0.952 . S
C303 C302 1.378 . S
C303 H315 0.950 . S
C303 C334 1.383 . S
H304 C323 0.947 . S
H305 C324 0.946 . S
H306 C326 0.953 . S
H307 C327 0.945 . S
H308 C329 0.952 . S
H309 C330 0.949 . S
H310 C332 0.950 . S
H311 C333 0.948 . S
H312 C335 0.951 . S
H313 C300 0.947 . S
H314 C302 0.952 . S
H315 C303 0.950 . S
N316 C319 1.382 . S
N316 C321 1.363 . S
N317 C319 1.371 . S
N317 C320 1.372 . S
N318 C320 1.361 . S
N318 C321 1.377 . S
C319 N316 1.382 . S
C319 N317 1.371 . S
C319 C322 1.480 . S
C320 N317 1.372 . S
C320 N318 1.361 . S
C320 C328 1.457 . S
C321 N316 1.363 . S
C321 N318 1.377 . S
C321 C334 1.479 . S
C322 C319 1.480 . S
C322 C323 1.383 . S
C322 C327 1.385 . S
C323 H304 0.947 . S
C323 C322 1.383 . S
C323 C324 1.388 . S
C324 H305 0.946 . S
C324 C323 1.388 . S
C324 C325 1.384 . S
C325 C324 1.384 . S
C325 C326 1.377 . S
C326 H306 0.953 . S
C326 C325 1.377 . S
C326 C327 1.369 . S
C327 H307 0.945 . S
C327 C322 1.385 . S
C327 C326 1.369 . S
C328 C320 1.457 . S
C328 C329 1.372 . S
C328 C333 1.364 . S
C329 H308 0.952 . S
C329 C328 1.372 . S
C329 C330 1.389 . S
C330 H309 0.949 . S
C330 C329 1.389 . S
C330 C331 1.387 . S
C331 C330 1.387 . S
C331 C332 1.372 . S
C332 H310 0.950 . S
C332 C331 1.372 . S
C332 C333 1.379 . S
C333 H311 0.948 . S
C333 C328 1.364 . S
C333 C332 1.379 . S
C334 C303 1.383 . S
C334 C321 1.479 . S
C334 C335 1.398 . S
C335 C300 1.382 . S
C335 H312 0.951 . S
C335 C334 1.398 . S
C336 C337 1.369 . S
C336 C338 1.419 . S
C336 H340 0.930 . S
C337 C336 1.369 . S
C337 C346 1.429 . S
C338 C336 1.419 . S
C338 C339 1.363 . S
C338 H341 0.929 . S
C339 C338 1.363 . S
C339 C345 1.428 . S
H340 C336 0.930 . S
H341 C338 0.929 . S
S342 N343 1.613 . S
S342 N344 1.610 . S
N343 S342 1.613 . S
N343 C346 1.350 . S
N344 S342 1.610 . S
N344 C345 1.351 . S
C345 C339 1.428 . S
C345 N344 1.351 . S
C345 C346 1.434 . S
C346 C337 1.429 . S
C346 N343 1.350 . S
C346 C345 1.434 . S
C347 C348 1.369 . S
C347 C349 1.419 . S
C347 H351 0.930 . S
C348 C347 1.369 . S
C348 C357 1.429 . S
C349 C347 1.419 . S
C349 C350 1.363 . S
C349 H352 0.929 . S
C350 C349 1.363 . S
C350 C356 1.428 . S
H351 C347 0.930 . S
H352 C349 0.929 . S
S353 N354 1.613 . S
S353 N355 1.610 . S
N354 S353 1.613 . S
N354 C357 1.350 . S
N355 S353 1.610 . S
N355 C356 1.351 . S
C356 C350 1.428 . S
C356 N355 1.351 . S
C356 C357 1.434 . S
C357 C348 1.429 . S
C357 N354 1.350 . S
C357 C356 1.434 . S
C358 C359 1.369 . S
C358 C360 1.419 . S
C358 H362 0.930 . S
C359 C358 1.369 . S
C359 C368 1.429 . S
C360 C358 1.419 . S
C360 C361 1.363 . S
C360 H363 0.929 . S
C361 C360 1.363 . S
C361 C367 1.428 . S
H362 C358 0.930 . S
H363 C360 0.929 . S
S364 N365 1.613 . S
S364 N366 1.610 . S
N365 S364 1.613 . S
N365 C368 1.350 . S
N366 S364 1.610 . S
N366 C367 1.351 . S
C367 C361 1.428 . S
C367 N366 1.351 . S
C367 C368 1.434 . S
C368 C359 1.429 . S
C368 N365 1.350 . S
C368 C367 1.434 . S
C369 C370 1.369 . S
C369 C371 1.419 . S
C369 H373 0.930 . S
C370 C369 1.369 . S
C370 C379 1.429 . S
C371 C369 1.419 . S
C371 C372 1.363 . S
C371 H374 0.929 . S
C372 C371 1.363 . S
C372 C378 1.428 . S
H373 C369 0.930 . S
H374 C371 0.929 . S
S375 N376 1.613 . S
S375 N377 1.610 . S
N376 S375 1.613 . S
N376 C379 1.350 . S
N377 S375 1.610 . S
N377 C378 1.351 . S
C378 C372 1.428 . S
C378 N377 1.351 . S
C378 C379 1.434 . S
C379 C370 1.429 . S
C379 N376 1.350 . S
C379 C378 1.434 . S
C380 C381 1.369 . S
C380 C382 1.419 . S
C380 H384 0.930 . S
C381 C380 1.369 . S
C381 C390 1.429 . S
C382 C380 1.419 . S
C382 C383 1.363 . S
C382 H385 0.929 . S
C383 C382 1.363 . S
C383 C389 1.428 . S
H384 C380 0.930 . S
H385 C382 0.929 . S
S386 N387 1.613 . S
S386 N388 1.610 . S
N387 S386 1.613 . S
N387 C390 1.350 . S
N388 S386 1.610 . S
N388 C389 1.351 . S
C389 C383 1.428 . S
C389 N388 1.351 . S
C389 C390 1.434 . S
C390 C381 1.429 . S
C390 N387 1.350 . S
C390 C389 1.434 . S
C391 C392 1.369 . S
C391 C393 1.419 . S
C391 H395 0.930 . S
C392 C391 1.369 . S
C392 C401 1.429 . S
C393 C391 1.419 . S
C393 C394 1.363 . S
C393 H396 0.929 . S
C394 C393 1.363 . S
C394 C400 1.428 . S
H395 C391 0.930 . S
H396 C393 0.929 . S
S397 N398 1.613 . S
S397 N399 1.610 . S
N398 S397 1.613 . S
N398 C401 1.350 . S
N399 S397 1.610 . S
N399 C400 1.351 . S
C400 C394 1.428 . S
C400 N399 1.351 . S
C400 C401 1.434 . S
C401 C392 1.429 . S
C401 N398 1.350 . S
C401 C400 1.434 . S
C402 C403 1.369 . S
C402 C404 1.419 . S
C402 H406 0.930 . S
C403 C402 1.369 . S
C403 C412 1.429 . S
C404 C402 1.419 . S
C404 C405 1.363 . S
C404 H407 0.929 . S
C405 C404 1.363 . S
C405 C411 1.428 . S
H406 C402 0.930 . S
H407 C404 0.929 . S
S408 N409 1.613 . S
S408 N410 1.610 . S
N409 S408 1.613 . S
N409 C412 1.350 . S
N410 S408 1.610 . S
N410 C411 1.351 . S
C411 C405 1.428 . S
C411 N410 1.351 . S
C411 C412 1.434 . S
C412 C403 1.429 . S
C412 N409 1.350 . S
C412 C411 1.434 . S
C413 C414 1.369 . S
C413 C415 1.419 . S
C413 H417 0.930 . S
C414 C413 1.369 . S
C414 C423 1.429 . S
C415 C413 1.419 . S
C415 C416 1.363 . S
C415 H418 0.929 . S
C416 C415 1.363 . S
C416 C422 1.428 . S
H417 C413 0.930 . S
H418 C415 0.929 . S
S419 N420 1.613 . S
S419 N421 1.610 . S
N420 S419 1.613 . S
N420 C423 1.350 . S
N421 S419 1.610 . S
N421 C422 1.351 . S
C422 C416 1.428 . S
C422 N421 1.351 . S
C422 C423 1.434 . S
C423 C414 1.429 . S
C423 N420 1.350 . S
C423 C422 1.434 . S
C424 C425 1.369 . S
C424 C426 1.419 . S
C424 H428 0.930 . S
C425 C424 1.369 . S
C425 C434 1.429 . S
C426 C424 1.419 . S
C426 C427 1.363 . S
C426 H429 0.929 . S
C427 C426 1.363 . S
C427 C433 1.428 . S
H428 C424 0.930 . S
H429 C426 0.929 . S
S430 N431 1.613 . S
S430 N432 1.610 . S
N431 S430 1.613 . S
N431 C434 1.350 . S
N432 S430 1.610 . S
N432 C433 1.351 . S
C433 C427 1.428 . S
C433 N432 1.351 . S
C433 C434 1.434 . S
C434 C425 1.429 . S
C434 N431 1.350 . S
C434 C433 1.434 . S
C435 C436 1.369 . S
C435 C437 1.419 . S
C435 H439 0.930 . S
C436 C435 1.369 . S
C436 C445 1.429 . S
C437 C435 1.419 . S
C437 C438 1.363 . S
C437 H440 0.929 . S
C438 C437 1.363 . S
C438 C444 1.428 . S
H439 C435 0.930 . S
H440 C437 0.929 . S
S441 N442 1.613 . S
S441 N443 1.610 . S
N442 S441 1.613 . S
N442 C445 1.350 . S
N443 S441 1.610 . S
N443 C444 1.351 . S
C444 C438 1.428 . S
C444 N443 1.351 . S
C444 C445 1.434 . S
C445 C436 1.429 . S
C445 N442 1.350 . S
C445 C444 1.434 . S
C446 C447 1.369 . S
C446 C448 1.419 . S
C446 H450 0.930 . S
C447 C446 1.369 . S
C447 C456 1.429 . S
C448 C446 1.419 . S
C448 C449 1.363 . S
C448 H451 0.929 . S
C449 C448 1.363 . S
C449 C455 1.428 . S
H450 C446 0.930 . S
H451 C448 0.929 . S
S452 N453 1.613 . S
S452 N454 1.610 . S
N453 S452 1.613 . S
N453 C456 1.350 . S
N454 S452 1.610 . S
N454 C455 1.351 . S
C455 C449 1.428 . S
C455 N454 1.351 . S
C455 C456 1.434 . S
C456 C447 1.429 . S
C456 N453 1.350 . S
C456 C455 1.434 . S
C457 C458 1.369 . S
C457 C459 1.419 . S
C457 H461 0.930 . S
C458 C457 1.369 . S
C458 C467 1.429 . S
C459 C457 1.419 . S
C459 C460 1.363 . S
C459 H462 0.929 . S
C460 C459 1.363 . S
C460 C466 1.428 . S
H461 C457 0.930 . S
H462 C459 0.929 . S
S463 N464 1.613 . S
S463 N465 1.610 . S
N464 S463 1.613 . S
N464 C467 1.350 . S
N465 S463 1.610 . S
N465 C466 1.351 . S
C466 C460 1.428 . S
C466 N465 1.351 . S
C466 C467 1.434 . S
C467 C458 1.429 . S
C467 N464 1.350 . S
C467 C466 1.434 . S
C468 C469 1.369 1_655 S
C468 C470 1.419 . S
C468 H472 0.930 . S
C469 C468 1.369 1_455 S
C469 C478 1.429 . S
C470 C468 1.419 . S
C470 C471 1.363 1_655 S
C470 H473 0.929 . S
C471 C470 1.363 1_455 S
C471 C477 1.428 . S
H472 C468 0.930 . S
H473 C470 0.929 . S
S474 N475 1.613 . S
S474 N476 1.610 . S
N475 S474 1.613 . S
N475 C478 1.350 . S
N476 S474 1.610 . S
N476 C477 1.351 . S
C477 C471 1.428 . S
C477 N476 1.351 . S
C477 C478 1.434 . S
C478 C469 1.429 . S
C478 N475 1.350 . S
C478 C477 1.434 . S
C479 C480 1.369 . S
C479 C481 1.419 . S
C479 H483 0.930 . S
C480 C479 1.369 . S
C480 C489 1.429 1_545 S
C481 C479 1.419 . S
C481 C482 1.363 . S
C481 H484 0.929 . S
C482 C481 1.363 . S
C482 C488 1.428 1_545 S
H483 C479 0.930 . S
H484 C481 0.929 . S
S485 N486 1.613 . S
S485 N487 1.610 . S
N486 S485 1.613 . S
N486 C489 1.350 . S
N487 S485 1.610 . S
N487 C488 1.351 . S
C488 C482 1.428 1_565 S
C488 N487 1.351 . S
C488 C489 1.434 . S
C489 C480 1.429 1_565 S
C489 N486 1.350 . S
C489 C488 1.434 . S
C490 C491 1.369 . S
C490 C492 1.419 . S
C490 H494 0.930 . S
C491 C490 1.369 . S
C491 C500 1.429 . S
C492 C490 1.419 . S
C492 C493 1.363 . S
C492 H495 0.929 . S
C493 C492 1.363 . S
C493 C499 1.428 . S
H494 C490 0.930 . S
H495 C492 0.929 . S
S496 N497 1.613 . S
S496 N498 1.610 . S
N497 S496 1.613 . S
N497 C500 1.350 . S
N498 S496 1.610 . S
N498 C499 1.351 . S
C499 C493 1.428 . S
C499 N498 1.351 . S
C499 C500 1.434 . S
C500 C491 1.429 . S
C500 N497 1.350 . S
C500 C499 1.434 . S
C501 C502 1.369 . S
C501 C503 1.419 . S
C501 H505 0.930 . S
C502 C501 1.369 . S
C502 C511 1.429 1_545 S
C503 C501 1.419 . S
C503 C504 1.363 . S
C503 H506 0.929 . S
C504 C503 1.363 . S
C504 C510 1.428 1_545 S
H505 C501 0.930 . S
H506 C503 0.929 . S
S507 N508 1.613 . S
S507 N509 1.610 . S
N508 S507 1.613 . S
N508 C511 1.350 . S
N509 S507 1.610 . S
N509 C510 1.351 . S
C510 C504 1.428 1_565 S
C510 N509 1.351 . S
C510 C511 1.434 . S
C511 C502 1.429 1_565 S
C511 N508 1.350 . S
C511 C510 1.434 . S
C512 C513 1.369 . S
C512 C514 1.419 . S
C512 H516 0.930 . S
C513 C512 1.369 . S
C513 C522 1.429 . S
C514 C512 1.419 . S
C514 C515 1.363 . S
C514 H517 0.929 . S
C515 C514 1.363 . S
C515 C521 1.428 . S
H516 C512 0.930 . S
H517 C514 0.929 . S
S518 N519 1.613 . S
S518 N520 1.610 . S
N519 S518 1.613 . S
N519 C522 1.350 . S
N520 S518 1.610 . S
N520 C521 1.351 . S
C521 C515 1.428 . S
C521 N520 1.351 . S
C521 C522 1.434 . S
C522 C513 1.429 . S
C522 N519 1.350 . S
C522 C521 1.434 . S
C523 C524 1.369 . S
C523 C525 1.419 . S
C523 H527 0.930 1_455 S
C524 C523 1.369 . S
C524 C533 1.429 . S
C525 C523 1.419 . S
C525 C526 1.363 . S
C525 H528 0.929 . S
C526 C525 1.363 . S
C526 C532 1.428 . S
H527 C523 0.930 1_655 S
H528 C525 0.929 . S
S529 N530 1.613 . S
S529 N531 1.610 . S
N530 S529 1.613 . S
N530 C533 1.350 . S
N531 S529 1.610 . S
N531 C532 1.351 . S
C532 C526 1.428 . S
C532 N531 1.351 . S
C532 C533 1.434 . S
C533 C524 1.429 . S
C533 N530 1.350 . S
C533 C532 1.434 . S
C337 C10 3.114 . S
C339 C325 3.019 . S
C348 C59 3.169 . S
C350 C253 3.079 . S
C359 C90 3.115 . S
C361 C289 3.021 . S
C370 C19 3.168 . S
C372 C301 3.119 . S
C383 C229 3.060 . S
C381 C50 3.113 . S
C394 C265 3.119 . S
C392 C99 3.169 . S
C403 C46 0.658 . S
C405 C181 0.621 . S
C414 C95 0.602 . S
C416 C193 0.534 . S
C425 C6 0.652 . S
C427 C121 0.635 . S
C438 C157 0.534 . S
C436 C55 0.597 . S
C449 C217 0.621 . S
C447 C86 0.653 . S
C458 C15 0.611 . S
C460 C145 0.525 . S
C471 C223 1.035 . S
C469 C9 1.022 . S
C480 C49 1.021 . S
C482 C151 1.021 . S
C491 C89 1.029 . S
C493 C187 1.035 . S
C504 C295 1.808 . S
C502 C58 1.727 . S
C515 C331 1.808 1_556 S
C513 C98 1.728 . S
C524 C18 1.730 . S
C526 C259 1.812 . S
