# Generated by pormake.
# Topology ssa, (4,4)-cn, num edge types: 1
# Building blocks:
#     Node 0, Type 0, BuildingBlock: IZENUY_clean_linker_0, # of connection points: 4
#     Node 1, Type 0, BuildingBlock: IZENUY_clean_linker_0, # of connection points: 4
#     Node 2, Type 0, BuildingBlock: IZENUY_clean_linker_0, # of connection points: 4
#     Node 3, Type 0, BuildingBlock: IZENUY_clean_linker_0, # of connection points: 4
#     Node 4, Type 0, BuildingBlock: IZENUY_clean_linker_0, # of connection points: 4
#     Node 5, Type 0, BuildingBlock: IZENUY_clean_linker_0, # of connection points: 4
#     Node 6, Type 1, BuildingBlock: ESEHIV_clean_sbu_0, # of connection points: 4
#     Node 7, Type 1, BuildingBlock: ESEHIV_clean_sbu_0, # of connection points: 4
#     Node 8, Type 1, BuildingBlock: ESEHIV_clean_sbu_0, # of connection points: 4
#     Node 9, Type 1, BuildingBlock: ESEHIV_clean_sbu_0, # of connection points: 4
#     Node 10, Type 1, BuildingBlock: ESEHIV_clean_sbu_0, # of connection points: 4
#     Node 11, Type 1, BuildingBlock: ESEHIV_clean_sbu_0, # of connection points: 4
#     Edge 12, Type (0, 1), BuildingBlock: CIFDUS_clean_linker_0, # of connection points: 2
#     Edge 13, Type (0, 1), BuildingBlock: CIFDUS_clean_linker_0, # of connection points: 2
#     Edge 14, Type (0, 1), BuildingBlock: CIFDUS_clean_linker_0, # of connection points: 2
#     Edge 15, Type (0, 1), BuildingBlock: CIFDUS_clean_linker_0, # of connection points: 2
#     Edge 16, Type (0, 1), BuildingBlock: CIFDUS_clean_linker_0, # of connection points: 2
#     Edge 17, Type (0, 1), BuildingBlock: CIFDUS_clean_linker_0, # of connection points: 2
#     Edge 18, Type (0, 1), BuildingBlock: CIFDUS_clean_linker_0, # of connection points: 2
#     Edge 19, Type (0, 1), BuildingBlock: CIFDUS_clean_linker_0, # of connection points: 2
#     Edge 20, Type (0, 1), BuildingBlock: CIFDUS_clean_linker_0, # of connection points: 2
#     Edge 21, Type (0, 1), BuildingBlock: CIFDUS_clean_linker_0, # of connection points: 2
#     Edge 22, Type (0, 1), BuildingBlock: CIFDUS_clean_linker_0, # of connection points: 2
#     Edge 23, Type (0, 1), BuildingBlock: CIFDUS_clean_linker_0, # of connection points: 2
#     Edge 24, Type (0, 1), BuildingBlock: CIFDUS_clean_linker_0, # of connection points: 2
#     Edge 25, Type (0, 1), BuildingBlock: CIFDUS_clean_linker_0, # of connection points: 2
#     Edge 26, Type (0, 1), BuildingBlock: CIFDUS_clean_linker_0, # of connection points: 2
#     Edge 27, Type (0, 1), BuildingBlock: CIFDUS_clean_linker_0, # of connection points: 2
#     Edge 28, Type (0, 1), BuildingBlock: CIFDUS_clean_linker_0, # of connection points: 2
#     Edge 29, Type (0, 1), BuildingBlock: CIFDUS_clean_linker_0, # of connection points: 2
#     Edge 30, Type (0, 1), BuildingBlock: CIFDUS_clean_linker_0, # of connection points: 2
#     Edge 31, Type (0, 1), BuildingBlock: CIFDUS_clean_linker_0, # of connection points: 2
#     Edge 32, Type (0, 1), BuildingBlock: CIFDUS_clean_linker_0, # of connection points: 2
#     Edge 33, Type (0, 1), BuildingBlock: CIFDUS_clean_linker_0, # of connection points: 2
#     Edge 34, Type (0, 1), BuildingBlock: CIFDUS_clean_linker_0, # of connection points: 2
#     Edge 35, Type (0, 1), BuildingBlock: CIFDUS_clean_linker_0, # of connection points: 2
# Relax obj value: 0.011
# Max RMSD: 0.094
# Mean RMSD: 0.063
data_MOF--net-ssa--node1-ESEHIV_clean_sbu_0--node2-IZENUY_clean_linker_0--edge1-CIFDUS_clean_linker_0
_symmetry_space_group_name_H-M    P1
_symmetry_Int_Tables_number       1
_symmetry_cell_setting            triclinic
loop_
_symmetry_equiv_pos_as_xyz
'x, y, z'
_cell_length_a     47.363727
_cell_length_b     47.398239
_cell_length_c     33.630157
_cell_angle_alpha  89.47407
_cell_angle_beta   91.635538
_cell_angle_gamma 120.39439
loop_
_atom_site_label
_atom_site_type_symbol
_atom_site_fract_x
_atom_site_fract_y
_atom_site_fract_z
_atom_type_partial_charge
H0 H 0.97944 0.4357 1.04421 0.0
H1 H 0.96731 0.51995 1.04426 0.0
H2 H 0.91024 0.43963 0.96304 0.0
H3 H 0.04098 0.54189 0.12547 0.0
H4 H 0.03972 0.45057 0.13797 0.0
H5 H 0.10109 0.5313 0.21584 0.0
N6 N 1.00042 0.49453 0.07955 0.0
N7 N 0.01366 0.48017 0.09605 0.0
C8 C 0.96764 0.44871 1.03273 0.0
C9 C 0.94344 0.43423 1.00262 0.0
C10 C 0.97628 0.47967 1.04819 0.0
C11 C 0.96062 0.49615 1.03234 0.0
C12 C 0.93624 0.48185 1.00166 0.0
C13 C 0.92802 0.45078 0.98735 0.0
C14 C 0.04974 0.52721 0.14011 0.0
C15 C 0.07255 0.54065 0.17212 0.0
C16 C 0.03769 0.49464 0.12756 0.0
C17 C 0.04911 0.47569 0.14719 0.0
C18 C 0.07162 0.4887 0.17961 0.0
C19 C 0.08324 0.52113 0.19144 0.0
H20 H 0.55712 0.03713 0.58122 0.0
H21 H 0.47722 0.05515 0.5913 0.0
H22 H 0.57048 0.11837 0.65061 0.0
H23 H 0.44995 0.98818 0.49908 0.0
H24 H 0.52018 0.95676 0.5167 0.0
H25 H 0.43963 0.90686 0.43213 0.0
N26 N 0.49528 0.01776 0.55467 0.0
N27 N 0.50482 0.99955 0.54129 0.0
C28 C 0.5471 0.05138 0.59284 0.0
C29 C 0.56686 0.07824 0.6176 0.0
C30 C 0.51494 0.04355 0.58226 0.0
C31 C 0.50235 0.06214 0.59852 0.0
C32 C 0.52182 0.08908 0.62421 0.0
C33 C 0.55442 0.09722 0.63237 0.0
C34 C 0.45846 0.97143 0.49257 0.0
C35 C 0.44233 0.94758 0.46275 0.0
C36 C 0.48647 0.97445 0.5125 0.0
C37 C 0.49793 0.95331 0.50221 0.0
C38 C 0.48147 0.92862 0.47297 0.0
C39 C 0.45336 0.92592 0.45405 0.0
H40 H 0.48516 0.45087 0.99913 0.0
H41 H 0.57237 0.54505 1.01507 0.0
H42 H 0.57381 0.47365 0.93961 0.0
H43 H 0.54648 0.59095 0.09253 0.0
H44 H 0.45491 0.50763 0.05281 0.0
H45 H 0.45502 0.58601 0.115 0.0
N46 N 0.50801 0.50951 1.03186 0.0
N47 N 0.52127 0.53681 1.04888 0.0
C48 C 0.51064 0.46744 0.99277 0.0
C49 C 0.52756 0.45734 0.96782 0.0
C50 C 0.52644 0.4991 1.00973 0.0
C51 C 0.55976 0.5206 1.00245 0.0
C52 C 0.57662 0.51122 0.97729 0.0
C53 C 0.56048 0.47998 0.95989 0.0
C54 C 0.52003 0.57858 0.08987 0.0
C55 C 0.50287 0.592 0.10806 0.0
C56 C 0.50304 0.54857 0.06883 0.0
C57 C 0.46848 0.53136 0.06721 0.0
C58 C 0.45142 0.54513 0.08396 0.0
C59 C 0.46875 0.57566 0.10277 0.0
H60 H 0.04807 0.5016 0.51209 0.0
H61 H 0.05466 0.59589 0.51176 0.0
H62 H 0.11721 0.57859 0.43835 0.0
H63 H 0.98591 0.5458 0.58803 0.0
H64 H 0.97105 0.44826 0.58585 0.0
H65 H 0.91281 0.47163 0.66031 0.0
N66 N 0.02226 0.53652 0.54263 0.0
N67 N 1.00716 0.50796 0.55578 0.0
C68 C 0.05879 0.52642 0.50124 0.0
C69 C 0.08364 0.53777 0.47328 0.0
C70 C 0.04784 0.54725 0.51484 0.0
C71 C 0.06275 0.57975 0.50093 0.0
C72 C 0.08834 0.5915 0.47374 0.0
C73 C 0.09793 0.57 0.4598 0.0
C74 C 0.97318 0.52063 0.59796 0.0
C75 C 0.9479 0.51068 0.62479 0.0
C76 C 0.98167 0.49816 0.58364 0.0
C77 C 0.96457 0.4655 0.59713 0.0
C78 C 0.93914 0.4552 0.62471 0.0
C79 C 0.9313 0.47833 0.63817 0.0
H80 H 0.49308 0.03982 1.0206 0.0
H81 H 0.59059 0.05691 1.00696 0.0
H82 H 0.56103 0.12081 0.95129 0.0
H83 H 0.55009 0.98495 0.09203 0.0
H84 H 0.45053 0.96423 0.09021 0.0
H85 H 0.47913 0.90717 0.16336 0.0
N86 N 0.53523 0.01968 1.0444 0.0
N87 N 0.50788 1.00269 0.05966 0.0
C88 C 0.51733 0.05397 1.00858 0.0
C89 C 0.52449 0.08088 0.98446 0.0
C90 C 0.54152 0.0458 1.0178 0.0
C91 C 0.57259 0.06415 1.00085 0.0
C92 C 0.58011 0.0912 0.97588 0.0
C93 C 0.55586 0.09965 0.96907 0.0
C94 C 0.52513 0.9705 0.1018 0.0
C95 C 0.5173 0.94587 0.13018 0.0
C96 C 0.50083 0.97701 0.08717 0.0
C97 C 0.46872 0.95838 0.10097 0.0
C98 C 0.4602 0.93292 0.1287 0.0
C99 C 0.48494 0.927 0.14282 0.0
H100 H 0.44103 0.45922 0.50223 0.0
H101 H 0.53529 0.54745 0.51431 0.0
H102 H 0.45723 0.548 0.44646 0.0
H103 H 0.58464 0.52114 0.59396 0.0
H104 H 0.49259 0.43261 0.57122 0.0
H105 H 0.56692 0.42917 0.64276 0.0
N106 N 0.50018 0.48378 0.5365 0.0
N107 N 0.52769 0.49711 0.55389 0.0
C108 C 0.4571 0.48488 0.49571 0.0
C109 C 0.44518 0.50173 0.47252 0.0
C110 C 0.48946 0.50129 0.51158 0.0
C111 C 0.51029 0.53462 0.50272 0.0
C112 C 0.49874 0.55163 0.47932 0.0
C113 C 0.46616 0.53505 0.4648 0.0
C114 C 0.56915 0.495 0.59767 0.0
C115 C 0.58004 0.47746 0.62181 0.0
C116 C 0.53783 0.47898 0.57867 0.0
C117 C 0.51697 0.44525 0.58474 0.0
C118 C 0.52754 0.42751 0.60793 0.0
C119 C 0.55905 0.44351 0.62554 0.0
Cu120 Cu 0.24427 0.45733 0.30666 0.0
N121 N 0.27324 0.48207 0.26735 0.0
N122 N 0.30504 0.49425 0.21487 0.0
C123 C 0.28463 0.47052 0.23945 0.0
C124 C 0.3062 0.52181 0.22737 0.0
C125 C 0.28643 0.51417 0.2598 0.0
O126 O 0.26646 0.44125 0.34277 0.0
C127 C 0.17494 0.41957 0.2898 0.0
O128 O 0.17073 0.41845 0.32836 0.0
H129 H 0.27803 0.44519 0.23699 0.0
H130 H 0.28228 0.53085 0.27699 0.0
N131 N 0.2369 0.48457 0.33901 0.0
N132 N 0.20813 0.50185 0.37183 0.0
C133 C 0.21138 0.48966 0.33729 0.0
C134 C 0.25119 0.49544 0.37511 0.0
C135 C 0.2335 0.5061 0.39545 0.0
C136 C 0.28369 0.4285 0.33429 0.0
O137 O 0.2817 0.41719 0.29823 0.0
H138 H 0.19388 0.48191 0.31266 0.0
H139 H 0.27147 0.4933 0.387 0.0
O140 O 0.20329 0.42784 0.27737 0.0
H141 H 0.3213 0.54592 0.21499 0.0
H142 H 0.23795 0.51459 0.42601 0.0
Cu143 Cu 0.78677 0.23643 0.79011 0.0
N144 N 0.77746 0.2027 0.75484 0.0
N145 N 0.74579 0.16713 0.70736 0.0
C146 C 0.75816 0.1975 0.72248 0.0
C147 C 0.75828 0.15269 0.73108 0.0
C148 C 0.77786 0.17477 0.76047 0.0
O149 O 0.74624 0.22128 0.81924 0.0
C150 C 0.82807 0.28645 0.73985 0.0
O151 O 0.84271 0.26918 0.74202 0.0
H152 H 0.75017 0.21436 0.71329 0.0
H153 H 0.78886 0.16973 0.78613 0.0
N154 N 0.8201 0.24534 0.82743 0.0
N155 N 0.85271 0.27124 0.88 0.0
C156 C 0.82461 0.26339 0.86003 0.0
C157 C 0.84625 0.2413 0.82653 0.0
C158 C 0.86662 0.25752 0.859 0.0
C159 C 0.73993 0.20003 0.84648 0.0
O160 O 0.76139 0.19088 0.85471 0.0
H161 H 0.80856 0.27254 0.86733 0.0
H162 H 0.85101 0.22905 0.80292 0.0
O163 O 0.80161 0.2764 0.75872 0.0
H164 H 0.7518 0.12732 0.72922 0.0
H165 H 0.89028 0.26006 0.86575 0.0
Cu166 Cu 0.56026 0.7852 0.31819 0.0
N167 N 0.58942 0.82463 0.29366 0.0
N168 N 0.60093 0.87063 0.26156 0.0
C169 C 0.58091 0.84736 0.28684 0.0
C170 C 0.62334 0.86245 0.25193 0.0
C171 C 0.61637 0.83412 0.27218 0.0
O172 O 0.52955 0.79495 0.34391 0.0
C173 C 0.55694 0.74247 0.25841 0.0
O174 O 0.58887 0.75925 0.2637 0.0
H175 H 0.55853 0.84524 0.29733 0.0
H176 H 0.62892 0.82055 0.26937 0.0
N177 N 0.57848 0.76998 0.35648 0.0
N178 N 0.57648 0.73292 0.39977 0.0
C179 C 0.55957 0.74501 0.38048 0.0
C180 C 0.6087 0.77414 0.3606 0.0
C181 C 0.60754 0.75122 0.3874 0.0
C182 C 0.53861 0.81174 0.3761 0.0
O183 O 0.56626 0.81794 0.39383 0.0
H184 H 0.53325 0.73418 0.38107 0.0
H185 H 0.62948 0.79103 0.34343 0.0
O186 O 0.53931 0.75026 0.27835 0.0
H187 H 0.64232 0.8751 0.23049 0.0
H188 H 0.62761 0.74742 0.39569 0.0
Cu189 Cu 0.79065 0.5537 0.82024 0.0
N190 N 0.82392 0.57724 0.78475 0.0
N191 N 0.85629 0.58386 0.73442 0.0
C192 C 0.82881 0.5631 0.75344 0.0
C193 C 0.86942 0.61239 0.75469 0.0
C194 C 0.8491 0.60831 0.78571 0.0
O195 O 0.80501 0.52953 0.8556 0.0
C196 C 0.74355 0.5397 0.75895 0.0
O197 O 0.76467 0.57027 0.75036 0.0
H198 H 0.81343 0.53738 0.74623 0.0
H199 H 0.85317 0.62615 0.80834 0.0
N200 N 0.78158 0.58061 0.85084 0.0
N201 N 0.74846 0.59355 0.88164 0.0
C202 C 0.75163 0.57707 0.85136 0.0
C203 C 0.79833 0.60045 0.88181 0.0
C204 C 0.7778 0.60835 0.90108 0.0
C205 C 0.83368 0.54493 0.87194 0.0
O206 O 0.85232 0.57625 0.86464 0.0
H207 H 0.73142 0.55995 0.83238 0.0
H208 H 0.82278 0.60673 0.89154 0.0
O209 O 0.75029 0.52634 0.78816 0.0
H210 H 0.89244 0.63419 0.74832 0.0
H211 H 0.78335 0.62214 0.92852 0.0
Cu212 Cu 0.2383 0.79339 0.28977 0.0
N213 N 0.2045 0.77348 0.25135 0.0
N214 N 0.16552 0.73174 0.21548 0.0
C215 C 0.18824 0.74097 0.24512 0.0
C216 C 0.16764 0.75967 0.20211 0.0
C217 C 0.19162 0.78549 0.22462 0.0
O218 O 0.2257 0.76179 0.33312 0.0
C219 C 0.28804 0.82285 0.2347 0.0
O220 O 0.26656 0.82939 0.21813 0.0
H221 H 0.19353 0.72439 0.26165 0.0
H222 H 0.19932 0.8111 0.22145 0.0
N223 N 0.24481 0.83236 0.31168 0.0
N224 N 0.27419 0.87658 0.35024 0.0
C225 C 0.27489 0.85539 0.32444 0.0
C226 C 0.22406 0.83951 0.32952 0.0
C227 C 0.24219 0.86675 0.35363 0.0
C228 C 0.19724 0.75118 0.34701 0.0
O229 O 0.17904 0.76257 0.33218 0.0
H230 H 0.29663 0.85415 0.31877 0.0
H231 H 0.19767 0.82442 0.32814 0.0
O232 O 0.28016 0.80522 0.26594 0.0
H233 H 0.15283 0.76127 0.17806 0.0
H234 H 0.23252 0.87696 0.37422 0.0
Cu235 Cu 0.459 0.2337 0.80876 0.0
N236 N 0.43226 0.23997 0.77249 0.0
N237 N 0.42276 0.26589 0.72284 0.0
C238 C 0.44484 0.26004 0.74141 0.0
C239 C 0.39491 0.24862 0.74314 0.0
C240 C 0.40082 0.23241 0.77378 0.0
O241 O 0.48471 0.27518 0.83809 0.0
C242 C 0.46962 0.19771 0.75142 0.0
O243 O 0.43886 0.18815 0.74261 0.0
H244 H 0.4706 0.27235 0.73476 0.0
H245 H 0.38411 0.21805 0.79682 0.0
N246 N 0.43633 0.20114 0.84576 0.0
N247 N 0.43408 0.16772 0.89446 0.0
C248 C 0.45183 0.19732 0.87753 0.0
C249 C 0.40738 0.1731 0.84236 0.0
C250 C 0.4059 0.15237 0.87251 0.0
C251 C 0.46851 0.28642 0.85491 0.0
O252 O 0.43639 0.26935 0.85229 0.0
H253 H 0.47724 0.21454 0.88514 0.0
H254 H 0.39001 0.16702 0.81776 0.0
O255 O 0.48439 0.21896 0.77909 0.0
H256 H 0.3725 0.24904 0.73756 0.0
H257 H 0.38666 0.12721 0.87617 0.0
H258 H 0.10647 0.46038 0.15501 0.0
H259 H 0.06235 0.47407 0.25779 0.0
H260 H 0.08696 0.44976 0.30034 0.0
H261 H 0.12541 0.42992 0.30958 0.0
H262 H 0.17314 0.41954 0.20804 0.0
H263 H 0.1424 0.43642 0.16393 0.0
C264 C 0.10167 0.45725 0.18655 0.0
C265 C 0.08243 0.46883 0.20319 0.0
C266 C 0.11673 0.44393 0.21119 0.0
C267 C 0.07692 0.46521 0.24428 0.0
C268 C 0.09109 0.45139 0.26865 0.0
C269 C 0.12858 0.43052 0.27771 0.0
C270 C 0.15164 0.4233 0.26232 0.0
C271 C 0.11165 0.44135 0.25263 0.0
C272 C 0.15558 0.42483 0.22086 0.0
C273 C 0.13811 0.43471 0.19557 0.0
H274 H 0.62312 0.13357 0.60079 0.0
H275 H 0.5853 0.04161 0.66162 0.0
H276 H 0.63965 0.05946 0.69155 0.0
H277 H 0.69578 0.10429 0.70723 0.0
H278 H 0.73346 0.19593 0.64525 0.0
H279 H 0.68152 0.17505 0.60839 0.0
C280 C 0.62709 0.11728 0.61996 0.0
C281 C 0.6005 0.08653 0.62938 0.0
C282 C 0.65825 0.12777 0.63703 0.0
C283 C 0.60563 0.0654 0.65403 0.0
C284 C 0.6366 0.07568 0.67126 0.0
C285 C 0.693 0.11934 0.68483 0.0
C286 C 0.71829 0.1519 0.67958 0.0
C287 C 0.66287 0.10723 0.66393 0.0
C288 C 0.71413 0.17104 0.65041 0.0
C289 C 0.68443 0.15915 0.62936 0.0
H290 H 0.47909 0.60477 0.17443 0.0
H291 H 0.56407 0.64743 0.10077 0.0
H292 H 0.58842 0.69746 0.14114 0.0
H293 H 0.5845 0.72981 0.19606 0.0
H294 H 0.49626 0.68842 0.26352 0.0
H295 H 0.47345 0.63763 0.2252 0.0
C296 C 0.5026 0.62515 0.16619 0.0
C297 C 0.51929 0.62218 0.13374 0.0
C298 C 0.51565 0.65433 0.18812 0.0
C299 C 0.55055 0.64863 0.12546 0.0
C300 C 0.56436 0.67746 0.14833 0.0
C301 C 0.56018 0.70972 0.20215 0.0
C302 C 0.54206 0.71291 0.23263 0.0
C303 C 0.54695 0.6807 0.17946 0.0
C304 C 0.51056 0.68675 0.24006 0.0
C305 C 0.49763 0.65761 0.21835 0.0
H306 H 0.88907 0.50576 0.61591 0.0
H307 H 0.98556 0.56665 0.66764 0.0
H308 H 0.96654 0.59888 0.70277 0.0
H309 H 0.92021 0.60403 0.72592 0.0
H310 H 0.82379 0.54215 0.67417 0.0
H311 H 0.84496 0.51625 0.63127 0.0
C312 C 0.90598 0.52654 0.63428 0.0
C313 C 0.93843 0.53381 0.63972 0.0
C314 C 0.89478 0.54453 0.65451 0.0
C315 C 0.96042 0.56079 0.66322 0.0
C316 C 0.94949 0.57903 0.68339 0.0
C317 C 0.90413 0.58559 0.70439 0.0
C318 C 0.87042 0.57456 0.70357 0.0
C319 C 0.91643 0.57039 0.6803 0.0
C320 C 0.84973 0.55054 0.6757 0.0
C321 C 0.86179 0.53572 0.65126 0.0
H322 H 0.4395 0.90423 0.20206 0.0
H323 H 0.40242 0.91435 0.08707 0.0
H324 H 0.34658 0.88103 0.1095 0.0
H325 H 0.30794 0.84903 0.16157 0.0
H326 H 0.34456 0.83542 0.27469 0.0
H327 H 0.40084 0.8689 0.25239 0.0
C328 C 0.41939 0.89878 0.1814 0.0
C329 C 0.42573 0.91229 0.14272 0.0
C330 C 0.38707 0.87854 0.19402 0.0
C331 C 0.39881 0.90523 0.11722 0.0
C332 C 0.36667 0.88574 0.12988 0.0
C333 C 0.32822 0.85312 0.18127 0.0
C334 C 0.32197 0.83968 0.2198 0.0
C335 C 0.3605 0.87232 0.16819 0.0
C336 C 0.34858 0.84516 0.2448 0.0
C337 C 0.3808 0.86455 0.23214 0.0
H338 H 0.46773 0.39941 0.64061 0.0
H339 H 0.53865 0.3776 0.59469 0.0
H340 H 0.50795 0.322 0.62073 0.0
H341 H 0.46614 0.28312 0.6652 0.0
H342 H 0.39787 0.30631 0.71627 0.0
H343 H 0.42139 0.35727 0.67855 0.0
C344 C 0.47584 0.38209 0.63543 0.0
C345 C 0.50542 0.39242 0.61611 0.0
C346 C 0.45863 0.35055 0.65166 0.0
C347 C 0.51602 0.37006 0.60977 0.0
C348 C 0.49854 0.33839 0.62471 0.0
C349 C 0.45611 0.29913 0.66752 0.0
C350 C 0.43076 0.29129 0.69398 0.0
C351 C 0.47062 0.32888 0.64709 0.0
C352 C 0.41739 0.31178 0.69611 0.0
C353 C 0.43109 0.34111 0.67487 0.0
H354 H 0.47627 0.90021 0.39985 0.0
H355 H 0.5143 0.90552 0.51971 0.0
H356 H 0.53442 0.8695 0.50064 0.0
H357 H 0.54182 0.83673 0.44977 0.0
H358 H 0.49934 0.82769 0.33203 0.0
H359 H 0.47897 0.86366 0.35123 0.0
C360 C 0.48818 0.89305 0.42239 0.0
C361 C 0.49359 0.90603 0.46142 0.0
C362 C 0.49862 0.8712 0.41169 0.0
C363 C 0.51021 0.89682 0.48928 0.0
C364 C 0.52146 0.87579 0.47851 0.0
C365 C 0.52772 0.84229 0.42846 0.0
C366 C 0.52212 0.82947 0.38948 0.0
C367 C 0.51588 0.86289 0.43979 0.0
C368 C 0.50375 0.83689 0.3623 0.0
C369 C 0.49234 0.85773 0.37318 0.0
H370 H 0.60009 0.5369 0.90581 0.0
H371 H 0.62976 0.53615 1.02782 0.0
H372 H 0.68757 0.5669 1.0098 0.0
H373 H 0.72875 0.58693 0.9574 0.0
H374 H 0.69835 0.58713 0.83543 0.0
H375 H 0.64172 0.56429 0.85525 0.0
C376 C 0.61936 0.54408 0.92843 0.0
C377 C 0.61107 0.53417 0.96786 0.0
C378 C 0.65226 0.56151 0.91778 0.0
C379 C 0.63589 0.54362 0.99724 0.0
C380 C 0.66881 0.56104 0.9869 0.0
C381 C 0.70989 0.58297 0.93543 0.0
C382 C 0.71755 0.58826 0.89494 0.0
C383 C 0.67725 0.56923 0.94702 0.0
C384 C 0.69283 0.5828 0.86669 0.0
C385 C 0.66049 0.56963 0.87797 0.0
H386 H 0.15366 0.6318 0.46343 0.0
H387 H 0.0609 0.6277 0.44809 0.0
H388 H 0.08743 0.6787 0.41028 0.0
H389 H 0.13546 0.72051 0.37513 0.0
H390 H 0.22722 0.72191 0.38621 0.0
H391 H 0.20236 0.67537 0.43151 0.0
C392 C 0.13921 0.64213 0.45198 0.0
C393 C 0.10515 0.6256 0.45809 0.0
C394 C 0.15435 0.6706 0.42889 0.0
C395 C 0.08707 0.63986 0.44399 0.0
C396 C 0.1022 0.66882 0.42194 0.0
C397 C 0.1502 0.71088 0.38767 0.0
C398 C 0.18319 0.7246 0.37693 0.0
C399 C 0.13558 0.68378 0.41315 0.0
C400 C 0.2018 0.71177 0.39368 0.0
C401 C 0.18758 0.68516 0.41963 0.0
H402 H 0.52616 0.1377 0.99888 0.0
H403 H 0.46657 0.0427 0.94482 0.0
H404 H 0.42966 0.05992 0.91571 0.0
H405 H 0.41934 0.1046 0.89825 0.0
H406 H 0.47883 0.19938 0.95334 0.0
H407 H 0.51056 0.1796 0.98993 0.0
C408 C 0.50467 0.12066 0.98138 0.0
C409 C 0.49909 0.08917 0.97357 0.0
C410 C 0.48379 0.13079 0.96468 0.0
C411 C 0.47118 0.06707 0.95115 0.0
C412 C 0.45025 0.07698 0.93436 0.0
C413 C 0.43857 0.12065 0.91912 0.0
C414 C 0.44714 0.15366 0.9224 0.0
C415 C 0.45693 0.10915 0.93987 0.0
C416 C 0.47224 0.17409 0.94962 0.0
C417 C 0.49041 0.16281 0.97054 0.0
H418 H 0.41488 0.45105 0.41906 0.0
H419 H 0.39908 0.51742 0.48868 0.0
H420 H 0.3457 0.49769 0.45545 0.0
H421 H 0.30614 0.46582 0.402 0.0
H422 H 0.32312 0.40184 0.32885 0.0
H423 H 0.37282 0.4159 0.36814 0.0
C424 C 0.39935 0.46058 0.42746 0.0
C425 C 0.41082 0.48555 0.45644 0.0
C426 C 0.36893 0.44974 0.40727 0.0
C427 C 0.39072 0.49813 0.46658 0.0
C428 C 0.36025 0.48694 0.44746 0.0
C429 C 0.32031 0.45443 0.395 0.0
C430 C 0.31073 0.43281 0.36226 0.0
C431 C 0.34944 0.46334 0.41706 0.0
C432 C 0.32976 0.41858 0.35373 0.0
C433 C 0.35835 0.42673 0.37615 0.0
H434 H 0.88437 0.37959 1.00529 0.0
H435 H 0.98146 0.41729 0.9615 0.0
H436 H 0.96269 0.36703 0.92255 0.0
H437 H 0.9166 0.3159 0.89406 0.0
H438 H 0.81968 0.27888 0.93861 0.0
H439 H 0.84038 0.32503 0.98462 0.0
C440 C 0.90148 0.37635 0.98787 0.0
C441 C 0.93406 0.40187 0.98586 0.0
C442 C 0.89043 0.34769 0.96546 0.0
C443 C 0.95624 0.39771 0.96342 0.0
C444 C 0.94545 0.36913 0.94101 0.0
C445 C 0.90026 0.31749 0.91464 0.0
C446 C 0.86654 0.29436 0.91243 0.0
C447 C 0.91232 0.34439 0.9408 0.0
C448 C 0.8456 0.29678 0.93922 0.0
C449 C 0.85741 0.32314 0.96552 0.0
H450 H 0.8724 0.4558 0.97453 0.0
H451 H 0.96387 0.54739 0.98526 0.0
H452 H 0.9397 0.57477 0.94796 0.0
H453 H 0.89398 0.57225 0.90852 0.0
H454 H 0.80329 0.48035 0.89476 0.0
H455 H 0.82612 0.45351 0.9362 0.0
C456 C 0.88724 0.48174 0.96862 0.0
C457 C 0.92023 0.4993 0.98269 0.0
C458 C 0.87341 0.49726 0.94611 0.0
C459 C 0.93847 0.53313 0.97542 0.0
C460 C 0.92472 0.5488 0.95363 0.0
C461 C 0.87903 0.54634 0.9146 0.0
C462 C 0.84686 0.52837 0.89819 0.0
C463 C 0.89242 0.53102 0.93826 0.0
C464 C 0.82806 0.49483 0.90672 0.0
C465 C 0.84115 0.47947 0.9305 0.0
H466 H 0.38106 0.93121 0.48582 0.0
H467 H 0.44267 0.95849 0.38407 0.0
H468 H 0.39557 0.94379 0.33953 0.0
H469 H 0.33607 0.91508 0.32913 0.0
H470 H 0.27338 0.88479 0.42984 0.0
H471 H 0.32136 0.90944 0.47522 0.0
C472 C 0.38413 0.93479 0.45399 0.0
C473 C 0.41508 0.94573 0.43805 0.0
C474 C 0.35667 0.92546 0.42841 0.0
C475 C 0.41894 0.95002 0.39679 0.0
C476 C 0.39204 0.9415 0.37136 0.0
C477 C 0.33305 0.91467 0.36102 0.0
C478 C 0.30137 0.89795 0.37615 0.0
C479 C 0.36065 0.92798 0.38674 0.0
C480 C 0.29755 0.89769 0.41748 0.0
C481 C 0.325 0.91145 0.44343 0.0
H482 H 0.55455 0.41946 0.94987 0.0
H483 H 0.46331 0.41948 0.94173 0.0
H484 H 0.43736 0.3667 0.90779 0.0
H485 H 0.44075 0.32146 0.87798 0.0
H486 H 0.53273 0.32315 0.88113 0.0
H487 H 0.5584 0.37494 0.91823 0.0
C488 C 0.52909 0.40833 0.94029 0.0
C489 C 0.51114 0.42399 0.94861 0.0
C490 C 0.51446 0.37832 0.91941 0.0
C491 C 0.47786 0.4082 0.93666 0.0
C492 C 0.46299 0.37802 0.91674 0.0
C493 C 0.46644 0.33306 0.8868 0.0
C494 C 0.48474 0.31825 0.87678 0.0
C495 C 0.4811 0.363 0.90768 0.0
C496 C 0.51805 0.33393 0.88826 0.0
C497 C 0.5327 0.36352 0.90961 0.0
H498 H 0.09198 0.52622 0.39732 0.0
H499 H 0.10823 0.5069 0.51874 0.0
H500 H 0.14744 0.49134 0.49705 0.0
H501 H 0.18306 0.49186 0.44498 0.0
H502 H 0.16924 0.51484 0.32417 0.0
H503 H 0.12313 0.52052 0.34407 0.0
C504 C 0.10348 0.51768 0.41882 0.0
C505 C 0.09762 0.51798 0.45955 0.0
C506 C 0.12709 0.51045 0.40635 0.0
C507 C 0.11229 0.50667 0.48724 0.0
C508 C 0.1351 0.49835 0.47489 0.0
C509 C 0.17011 0.49832 0.42306 0.0
C510 C 0.18017 0.50389 0.38335 0.0
C511 C 0.14384 0.50177 0.43481 0.0
C512 C 0.16225 0.51089 0.35498 0.0
C513 C 0.13588 0.51408 0.36634 0.0
H514 H 0.59406 0.12305 0.90373 0.0
H515 H 0.64083 0.10404 1.00435 0.0
H516 H 0.69371 0.13588 0.97334 0.0
H517 H 0.72702 0.16944 0.91792 0.0
H518 H 0.68108 0.19258 0.82054 0.0
H519 H 0.62771 0.16003 0.85117 0.0
C520 C 0.61571 0.12629 0.91965 0.0
C521 C 0.61286 0.11078 0.95675 0.0
C522 C 0.64642 0.1458 0.90237 0.0
C523 C 0.64164 0.11483 0.97561 0.0
C524 C 0.67213 0.13346 0.95805 0.0
C525 C 0.70536 0.16758 0.9035 0.0
C526 C 0.70808 0.1834 0.86686 0.0
C527 C 0.67482 0.14906 0.92148 0.0
C528 C 0.67978 0.18089 0.84881 0.0
C529 C 0.64922 0.16206 0.86621 0.0
H530 H 0.48619 0.60112 0.48635 0.0
H531 H 0.55996 0.58026 0.44865 0.0
H532 H 0.59264 0.63616 0.4236 0.0
H533 H 0.59729 0.68919 0.40651 0.0
H534 H 0.52325 0.70951 0.44508 0.0
H535 H 0.49365 0.6557 0.47562 0.0
C536 C 0.50958 0.60896 0.47295 0.0
C537 C 0.52052 0.58656 0.46896 0.0
C538 C 0.52804 0.64096 0.45846 0.0
C539 C 0.55108 0.59711 0.45212 0.0
C540 C 0.56965 0.629 0.43759 0.0
C541 C 0.57509 0.68214 0.42232 0.0
C542 C 0.56226 0.70325 0.4229 0.0
C543 C 0.55803 0.65094 0.4398 0.0
C544 C 0.53331 0.69352 0.44344 0.0
C545 C 0.51639 0.66276 0.46102 0.0
H546 H 0.539 0.12122 0.69668 0.0
H547 H 0.47475 0.10212 0.59385 0.0
H548 H 0.45346 0.13388 0.62397 0.0
H549 H 0.45293 0.16726 0.67937 0.0
H550 H 0.5207 0.1906 0.77894 0.0
H551 H 0.54184 0.15823 0.74912 0.0
C552 C 0.52091 0.12444 0.68008 0.0
C553 C 0.5087 0.10886 0.64265 0.0
C554 C 0.5096 0.14392 0.69686 0.0
C555 C 0.48436 0.11292 0.62289 0.0
C556 C 0.47235 0.13151 0.63994 0.0
C557 C 0.47253 0.1655 0.69442 0.0
C558 C 0.48515 0.18131 0.73146 0.0
C559 C 0.48476 0.14709 0.67689 0.0
C560 C 0.51069 0.17892 0.75036 0.0
C561 C 0.5226 0.1602 0.73341 0.0
H562 H 0.41665 0.49092 0.12702 0.0
H563 H 0.40739 0.56085 0.05363 0.0
H564 H 0.35656 0.54767 0.08588 0.0
H565 H 0.32251 0.52552 0.14497 0.0
H566 H 0.33347 0.45738 0.22011 0.0
H567 H 0.37565 0.46032 0.17735 0.0
C568 C 0.40251 0.50194 0.11674 0.0
C569 C 0.4156 0.52685 0.08826 0.0
C570 C 0.37425 0.49539 0.1368 0.0
C571 C 0.39748 0.54143 0.07541 0.0
C572 C 0.36879 0.53434 0.09437 0.0
C573 C 0.33378 0.51092 0.15138 0.0
C574 C 0.32544 0.49178 0.1859 0.0
C575 C 0.3582 0.51294 0.12679 0.0
C576 C 0.33962 0.47238 0.19371 0.0
C577 C 0.36381 0.47413 0.16935 0.0
H578 H 0.87466 0.41866 0.64594 0.0
H579 H 0.96355 0.41445 0.64154 0.0
H580 H 0.93643 0.36154 0.67465 0.0
H581 H 0.88888 0.31818 0.70885 0.0
H582 H 0.8015 0.32441 0.71822 0.0
H583 H 0.82714 0.37541 0.68035 0.0
C584 C 0.88841 0.4065 0.6525 0.0
C585 C 0.92148 0.42113 0.64131 0.0
C586 C 0.87303 0.37655 0.67301 0.0
C587 C 0.93813 0.40401 0.64913 0.0
C588 C 0.9227 0.37379 0.66857 0.0
C589 C 0.87529 0.33056 0.70255 0.0
C590 C 0.8432 0.31735 0.71652 0.0
C591 C 0.89037 0.36011 0.68123 0.0
C592 C 0.82619 0.33397 0.70808 0.0
C593 C 0.84085 0.36312 0.6863 0.0
H594 H 0.53411 0.94878 0.20767 0.0
H595 H 0.5559 0.92761 0.09207 0.0
H596 H 0.58898 0.90638 0.12308 0.0
H597 H 0.60447 0.88643 0.18371 0.0
H598 H 0.58074 0.90673 0.29872 0.0
H599 H 0.55611 0.93621 0.26761 0.0
C600 C 0.54673 0.94013 0.18935 0.0
C601 C 0.54247 0.93939 0.14781 0.0
C602 C 0.56513 0.92763 0.20738 0.0
C603 C 0.55896 0.92839 0.12416 0.0
C604 C 0.57765 0.91608 0.14191 0.0
C605 C 0.59486 0.89827 0.20185 0.0
C606 C 0.59415 0.89427 0.24342 0.0
C607 C 0.57998 0.91455 0.18357 0.0
C608 C 0.58129 0.90937 0.26667 0.0
C609 C 0.56709 0.92605 0.2489 0.0
H610 H 0.59669 0.4614 0.69428 0.0
H611 H 0.63828 0.53067 0.59838 0.0
H612 H 0.69189 0.55554 0.63215 0.0
H613 H 0.72743 0.55707 0.68817 0.0
H614 H 0.68656 0.48524 0.78124 0.0
H615 H 0.6325 0.46106 0.74821 0.0
C616 C 0.61743 0.48152 0.68006 0.0
C617 C 0.61294 0.49377 0.64327 0.0
C618 C 0.64856 0.49504 0.69896 0.0
C619 C 0.6404 0.52075 0.62669 0.0
C620 C 0.67131 0.53484 0.64585 0.0
C621 C 0.70675 0.53598 0.70118 0.0
C622 C 0.71119 0.523 0.73726 0.0
C623 C 0.67572 0.52208 0.68187 0.0
C624 C 0.68404 0.4956 0.75346 0.0
C625 C 0.65304 0.48191 0.73467 0.0
H626 H 0.09163 0.59589 0.12738 0.0
H627 H 0.08184 0.56246 0.24881 0.0
H628 H 0.10835 0.61868 0.27283 0.0
H629 H 0.13745 0.67748 0.25958 0.0
H630 H 0.14671 0.71191 0.13906 0.0
H631 H 0.11653 0.65526 0.11444 0.0
C632 C 0.0948 0.60087 0.1591 0.0
C633 C 0.08529 0.57489 0.18617 0.0
C634 C 0.11 0.63347 0.17288 0.0
C635 C 0.08966 0.58193 0.22721 0.0
C636 C 0.10468 0.6141 0.24105 0.0
C637 C 0.13272 0.67253 0.22793 0.0
C638 C 0.1446 0.69875 0.20112 0.0
C639 C 0.11555 0.64006 0.21417 0.0
C640 C 0.13773 0.69209 0.16024 0.0
C641 C 0.12067 0.65972 0.14621 0.0
loop_
_geom_bond_atom_site_label_1
_geom_bond_atom_site_label_2
_geom_bond_distance
_geom_bond_site_symmetry_2
_ccdc_geom_bond_type
H0 C8 0.940 . S
H1 C11 0.940 . S
H2 C13 0.940 . S
H3 C14 0.940 . S
H4 C17 0.940 . S
H5 C19 0.940 . S
N6 N7 1.190 1_655 S
N6 C10 1.477 1_554 S
N7 N6 1.190 1_455 S
N7 C16 1.477 . S
C8 H0 0.940 . S
C8 C9 1.390 . S
C8 C10 1.322 . S
C9 C8 1.390 . S
C9 C13 1.370 . S
C10 N6 1.477 1_556 S
C10 C8 1.322 . S
C10 C11 1.447 . S
C11 H1 0.940 . S
C11 C10 1.447 . S
C11 C12 1.373 . S
C12 C11 1.373 . S
C12 C13 1.417 . S
C13 H2 0.940 . S
C13 C9 1.370 . S
C13 C12 1.417 . S
C14 H3 0.940 . S
C14 C15 1.390 . S
C14 C16 1.322 . S
C15 C14 1.390 . S
C15 C19 1.370 . S
C16 N7 1.477 . S
C16 C14 1.322 . S
C16 C17 1.447 . S
C17 H4 0.940 . S
C17 C16 1.447 . S
C17 C18 1.373 . S
C18 C17 1.373 . S
C18 C19 1.417 . S
C19 H5 0.940 . S
C19 C15 1.370 . S
C19 C18 1.417 . S
H20 C28 0.940 . S
H21 C31 0.940 . S
H22 C33 0.940 . S
H23 C34 0.940 . S
H24 C37 0.940 . S
H25 C39 0.940 . S
N26 N27 1.190 . S
N26 C30 1.477 . S
N27 N26 1.190 . S
N27 C36 1.477 1_545 S
C28 H20 0.940 . S
C28 C29 1.390 . S
C28 C30 1.322 . S
C29 C28 1.390 . S
C29 C33 1.370 . S
C30 N26 1.477 . S
C30 C28 1.322 . S
C30 C31 1.447 . S
C31 H21 0.940 . S
C31 C30 1.447 . S
C31 C32 1.373 . S
C32 C31 1.373 . S
C32 C33 1.417 . S
C33 H22 0.940 . S
C33 C29 1.370 . S
C33 C32 1.417 . S
C34 H23 0.940 . S
C34 C35 1.390 . S
C34 C36 1.322 . S
C35 C34 1.390 . S
C35 C39 1.370 . S
C36 N27 1.477 1_565 S
C36 C34 1.322 . S
C36 C37 1.447 . S
C37 H24 0.940 . S
C37 C36 1.447 . S
C37 C38 1.373 . S
C38 C37 1.373 . S
C38 C39 1.417 . S
C39 H25 0.940 . S
C39 C35 1.370 . S
C39 C38 1.417 . S
H40 C48 0.940 . S
H41 C51 0.940 . S
H42 C53 0.940 . S
H43 C54 0.940 . S
H44 C57 0.940 . S
H45 C59 0.940 . S
N46 N47 1.180 1_556 S
N46 C50 1.477 . S
N47 N46 1.180 1_554 S
N47 C56 1.495 . S
C48 H40 0.940 . S
C48 C49 1.390 . S
C48 C50 1.322 . S
C49 C48 1.390 . S
C49 C53 1.370 . S
C50 N46 1.477 . S
C50 C48 1.322 . S
C50 C51 1.447 . S
C51 H41 0.940 . S
C51 C50 1.447 . S
C51 C52 1.373 . S
C52 C51 1.373 . S
C52 C53 1.417 . S
C53 H42 0.940 . S
C53 C49 1.370 . S
C53 C52 1.417 . S
C54 H43 0.940 . S
C54 C55 1.390 . S
C54 C56 1.322 . S
C55 C54 1.390 . S
C55 C59 1.370 . S
C56 N47 1.495 . S
C56 C54 1.322 . S
C56 C57 1.447 . S
C57 H44 0.940 . S
C57 C56 1.447 . S
C57 C58 1.373 . S
C58 C57 1.373 . S
C58 C59 1.417 . S
C59 H45 0.940 . S
C59 C55 1.370 . S
C59 C58 1.417 . S
H60 C68 0.940 . S
H61 C71 0.940 . S
H62 C73 0.940 . S
H63 C74 0.940 . S
H64 C77 0.940 . S
H65 C79 0.940 . S
N66 N67 1.189 . S
N66 C70 1.470 1_655 S
N67 N66 1.189 . S
N67 C76 1.477 . S
C68 H60 0.940 . S
C68 C69 1.390 . S
C68 C70 1.322 . S
C69 C68 1.390 . S
C69 C73 1.370 . S
C70 N66 1.470 1_455 S
C70 C68 1.322 . S
C70 C71 1.447 . S
C71 H61 0.940 . S
C71 C70 1.447 . S
C71 C72 1.373 . S
C72 C71 1.373 . S
C72 C73 1.417 . S
C73 H62 0.940 . S
C73 C69 1.370 . S
C73 C72 1.417 . S
C74 H63 0.940 . S
C74 C75 1.390 . S
C74 C76 1.322 . S
C75 C74 1.390 . S
C75 C79 1.370 . S
C76 N67 1.477 . S
C76 C74 1.322 . S
C76 C77 1.447 . S
C77 H64 0.940 . S
C77 C76 1.447 . S
C77 C78 1.373 . S
C78 C77 1.373 . S
C78 C79 1.417 . S
C79 H65 0.940 . S
C79 C75 1.370 . S
C79 C78 1.417 . S
H80 C88 0.940 . S
H81 C91 0.940 . S
H82 C93 0.940 . S
H83 C94 0.940 . S
H84 C97 0.940 . S
H85 C99 0.940 . S
N86 N87 1.190 . S
N86 C90 1.477 1_554 S
N87 N86 1.190 . S
N87 C96 1.477 1_545 S
C88 H80 0.940 . S
C88 C89 1.390 . S
C88 C90 1.322 . S
C89 C88 1.390 . S
C89 C93 1.370 . S
C90 N86 1.477 1_556 S
C90 C88 1.322 . S
C90 C91 1.447 . S
C91 H81 0.940 . S
C91 C90 1.447 . S
C91 C92 1.373 . S
C92 C91 1.373 . S
C92 C93 1.417 . S
C93 H82 0.940 . S
C93 C89 1.370 . S
C93 C92 1.417 . S
C94 H83 0.940 . S
C94 C95 1.390 . S
C94 C96 1.322 . S
C95 C94 1.390 . S
C95 C99 1.370 . S
C96 N87 1.477 1_565 S
C96 C94 1.322 . S
C96 C97 1.447 . S
C97 H84 0.940 . S
C97 C96 1.447 . S
C97 C98 1.373 . S
C98 C97 1.373 . S
C98 C99 1.417 . S
C99 H85 0.940 . S
C99 C95 1.370 . S
C99 C98 1.417 . S
H100 C108 0.940 . S
H101 C111 0.940 . S
H102 C113 0.940 . S
H103 C114 0.940 . S
H104 C117 0.940 . S
H105 C119 0.940 . S
N106 N107 1.190 . S
N106 C110 1.477 . S
N107 N106 1.190 . S
N107 C116 1.477 . S
C108 H100 0.940 . S
C108 C109 1.390 . S
C108 C110 1.322 . S
C109 C108 1.390 . S
C109 C113 1.370 . S
C110 N106 1.477 . S
C110 C108 1.322 . S
C110 C111 1.447 . S
C111 H101 0.940 . S
C111 C110 1.447 . S
C111 C112 1.373 . S
C112 C111 1.373 . S
C112 C113 1.417 . S
C113 H102 0.940 . S
C113 C109 1.370 . S
C113 C112 1.417 . S
C114 H103 0.940 . S
C114 C115 1.390 . S
C114 C116 1.322 . S
C115 C114 1.390 . S
C115 C119 1.370 . S
C116 N107 1.477 . S
C116 C114 1.322 . S
C116 C117 1.447 . S
C117 H104 0.940 . S
C117 C116 1.447 . S
C117 C118 1.373 . S
C118 C117 1.373 . S
C118 C119 1.417 . S
C119 H105 0.940 . S
C119 C115 1.370 . S
C119 C118 1.417 . S
Cu120 N121 1.999 . S
Cu120 O126 1.974 . S
Cu120 N131 1.985 . S
Cu120 O140 1.959 . S
N121 Cu120 1.999 . S
N121 C123 1.263 . S
N121 C125 1.389 . S
N122 C123 1.358 . S
N122 C124 1.400 . S
C123 N121 1.263 . S
C123 N122 1.358 . S
C123 H129 0.930 . S
C124 N122 1.400 . S
C124 C125 1.351 . S
C124 H141 0.930 . S
C125 N121 1.389 . S
C125 C124 1.351 . S
C125 H130 0.930 . S
O126 Cu120 1.974 . S
O126 C136 1.282 . S
C127 O128 1.261 . S
C127 O140 1.251 . S
O128 C127 1.261 . S
H129 C123 0.930 . S
H130 C125 0.930 . S
N131 Cu120 1.985 . S
N131 C133 1.335 . S
N131 C134 1.390 . S
N132 C133 1.345 . S
N132 C135 1.336 . S
C133 N131 1.335 . S
C133 N132 1.345 . S
C133 H138 0.930 . S
C134 N131 1.390 . S
C134 C135 1.346 . S
C134 H139 0.930 . S
C135 N132 1.336 . S
C135 C134 1.346 . S
C135 H142 0.929 . S
C136 O126 1.282 . S
C136 O137 1.216 . S
O137 C136 1.216 . S
H138 C133 0.930 . S
H139 C134 0.930 . S
O140 Cu120 1.959 . S
O140 C127 1.251 . S
H141 C124 0.930 . S
H142 C135 0.929 . S
Cu143 N144 1.999 . S
Cu143 O149 1.974 . S
Cu143 N154 1.985 . S
Cu143 O163 1.959 . S
N144 Cu143 1.999 . S
N144 C146 1.263 . S
N144 C148 1.389 . S
N145 C146 1.358 . S
N145 C147 1.400 . S
C146 N144 1.263 . S
C146 N145 1.358 . S
C146 H152 0.930 . S
C147 N145 1.400 . S
C147 C148 1.351 . S
C147 H164 0.930 . S
C148 N144 1.389 . S
C148 C147 1.351 . S
C148 H153 0.930 . S
O149 Cu143 1.974 . S
O149 C159 1.282 . S
C150 O151 1.261 . S
C150 O163 1.251 . S
O151 C150 1.261 . S
H152 C146 0.930 . S
H153 C148 0.930 . S
N154 Cu143 1.985 . S
N154 C156 1.335 . S
N154 C157 1.390 . S
N155 C156 1.345 . S
N155 C158 1.336 . S
C156 N154 1.335 . S
C156 N155 1.345 . S
C156 H161 0.930 . S
C157 N154 1.390 . S
C157 C158 1.346 . S
C157 H162 0.930 . S
C158 N155 1.336 . S
C158 C157 1.346 . S
C158 H165 0.929 . S
C159 O149 1.282 . S
C159 O160 1.216 . S
O160 C159 1.216 . S
H161 C156 0.930 . S
H162 C157 0.930 . S
O163 Cu143 1.959 . S
O163 C150 1.251 . S
H164 C147 0.930 . S
H165 C158 0.929 . S
Cu166 N167 1.999 . S
Cu166 O172 1.974 . S
Cu166 N177 1.985 . S
Cu166 O186 1.959 . S
N167 Cu166 1.999 . S
N167 C169 1.263 . S
N167 C171 1.389 . S
N168 C169 1.358 . S
N168 C170 1.400 . S
C169 N167 1.263 . S
C169 N168 1.358 . S
C169 H175 0.930 . S
C170 N168 1.400 . S
C170 C171 1.351 . S
C170 H187 0.930 . S
C171 N167 1.389 . S
C171 C170 1.351 . S
C171 H176 0.930 . S
O172 Cu166 1.974 . S
O172 C182 1.282 . S
C173 O174 1.261 . S
C173 O186 1.251 . S
O174 C173 1.261 . S
H175 C169 0.930 . S
H176 C171 0.930 . S
N177 Cu166 1.985 . S
N177 C179 1.335 . S
N177 C180 1.390 . S
N178 C179 1.345 . S
N178 C181 1.336 . S
C179 N177 1.335 . S
C179 N178 1.345 . S
C179 H184 0.930 . S
C180 N177 1.390 . S
C180 C181 1.346 . S
C180 H185 0.930 . S
C181 N178 1.336 . S
C181 C180 1.346 . S
C181 H188 0.929 . S
C182 O172 1.282 . S
C182 O183 1.216 . S
O183 C182 1.216 . S
H184 C179 0.930 . S
H185 C180 0.930 . S
O186 Cu166 1.959 . S
O186 C173 1.251 . S
H187 C170 0.930 . S
H188 C181 0.929 . S
Cu189 N190 1.999 . S
Cu189 O195 1.974 . S
Cu189 N200 1.985 . S
Cu189 O209 1.959 . S
N190 Cu189 1.999 . S
N190 C192 1.263 . S
N190 C194 1.389 . S
N191 C192 1.358 . S
N191 C193 1.400 . S
C192 N190 1.263 . S
C192 N191 1.358 . S
C192 H198 0.930 . S
C193 N191 1.400 . S
C193 C194 1.351 . S
C193 H210 0.930 . S
C194 N190 1.389 . S
C194 C193 1.351 . S
C194 H199 0.930 . S
O195 Cu189 1.974 . S
O195 C205 1.282 . S
C196 O197 1.261 . S
C196 O209 1.251 . S
O197 C196 1.261 . S
H198 C192 0.930 . S
H199 C194 0.930 . S
N200 Cu189 1.985 . S
N200 C202 1.335 . S
N200 C203 1.390 . S
N201 C202 1.345 . S
N201 C204 1.336 . S
C202 N200 1.335 . S
C202 N201 1.345 . S
C202 H207 0.930 . S
C203 N200 1.390 . S
C203 C204 1.346 . S
C203 H208 0.930 . S
C204 N201 1.336 . S
C204 C203 1.346 . S
C204 H211 0.929 . S
C205 O195 1.282 . S
C205 O206 1.216 . S
O206 C205 1.216 . S
H207 C202 0.930 . S
H208 C203 0.930 . S
O209 Cu189 1.959 . S
O209 C196 1.251 . S
H210 C193 0.930 . S
H211 C204 0.929 . S
Cu212 N213 1.999 . S
Cu212 O218 1.974 . S
Cu212 N223 1.985 . S
Cu212 O232 1.959 . S
N213 Cu212 1.999 . S
N213 C215 1.263 . S
N213 C217 1.389 . S
N214 C215 1.358 . S
N214 C216 1.400 . S
C215 N213 1.263 . S
C215 N214 1.358 . S
C215 H221 0.930 . S
C216 N214 1.400 . S
C216 C217 1.351 . S
C216 H233 0.930 . S
C217 N213 1.389 . S
C217 C216 1.351 . S
C217 H222 0.930 . S
O218 Cu212 1.974 . S
O218 C228 1.282 . S
C219 O220 1.261 . S
C219 O232 1.251 . S
O220 C219 1.261 . S
H221 C215 0.930 . S
H222 C217 0.930 . S
N223 Cu212 1.985 . S
N223 C225 1.335 . S
N223 C226 1.390 . S
N224 C225 1.345 . S
N224 C227 1.336 . S
C225 N223 1.335 . S
C225 N224 1.345 . S
C225 H230 0.930 . S
C226 N223 1.390 . S
C226 C227 1.346 . S
C226 H231 0.930 . S
C227 N224 1.336 . S
C227 C226 1.346 . S
C227 H234 0.929 . S
C228 O218 1.282 . S
C228 O229 1.216 . S
O229 C228 1.216 . S
H230 C225 0.930 . S
H231 C226 0.930 . S
O232 Cu212 1.959 . S
O232 C219 1.251 . S
H233 C216 0.930 . S
H234 C227 0.929 . S
Cu235 N236 1.999 . S
Cu235 O241 1.974 . S
Cu235 N246 1.985 . S
Cu235 O255 1.959 . S
N236 Cu235 1.999 . S
N236 C238 1.263 . S
N236 C240 1.389 . S
N237 C238 1.358 . S
N237 C239 1.400 . S
C238 N236 1.263 . S
C238 N237 1.358 . S
C238 H244 0.930 . S
C239 N237 1.400 . S
C239 C240 1.351 . S
C239 H256 0.930 . S
C240 N236 1.389 . S
C240 C239 1.351 . S
C240 H245 0.930 . S
O241 Cu235 1.974 . S
O241 C251 1.282 . S
C242 O243 1.261 . S
C242 O255 1.251 . S
O243 C242 1.261 . S
H244 C238 0.930 . S
H245 C240 0.930 . S
N246 Cu235 1.985 . S
N246 C248 1.335 . S
N246 C249 1.390 . S
N247 C248 1.345 . S
N247 C250 1.336 . S
C248 N246 1.335 . S
C248 N247 1.345 . S
C248 H253 0.930 . S
C249 N246 1.390 . S
C249 C250 1.346 . S
C249 H254 0.930 . S
C250 N247 1.336 . S
C250 C249 1.346 . S
C250 H257 0.929 . S
C251 O241 1.282 . S
C251 O252 1.216 . S
O252 C251 1.216 . S
H253 C248 0.930 . S
H254 C249 0.930 . S
O255 Cu235 1.959 . S
O255 C242 1.251 . S
H256 C239 0.930 . S
H257 C250 0.929 . S
H258 C264 0.930 . S
H259 C267 0.930 . S
H260 C268 0.930 . S
H261 C269 0.930 . S
H262 C272 0.930 . S
H263 C273 0.930 . S
C264 H258 0.930 . S
C264 C265 1.355 . S
C264 C266 1.415 . S
C265 C264 1.355 . S
C265 C267 1.419 . S
C266 C264 1.415 . S
C266 C271 1.425 . S
C266 C273 1.409 . S
C267 H259 0.930 . S
C267 C265 1.419 . S
C267 C268 1.362 . S
C268 H260 0.930 . S
C268 C267 1.362 . S
C268 C271 1.409 . S
C269 H261 0.930 . S
C269 C270 1.355 . S
C269 C271 1.415 . S
C270 C269 1.355 . S
C270 C272 1.419 . S
C271 C266 1.425 . S
C271 C268 1.409 . S
C271 C269 1.415 . S
C272 H262 0.930 . S
C272 C270 1.419 . S
C272 C273 1.362 . S
C273 H263 0.930 . S
C273 C266 1.409 . S
C273 C272 1.362 . S
H274 C280 0.930 . S
H275 C283 0.930 . S
H276 C284 0.930 . S
H277 C285 0.930 . S
H278 C288 0.930 . S
H279 C289 0.930 . S
C280 H274 0.930 . S
C280 C281 1.355 . S
C280 C282 1.415 . S
C281 C280 1.355 . S
C281 C283 1.419 . S
C282 C280 1.415 . S
C282 C287 1.425 . S
C282 C289 1.409 . S
C283 H275 0.930 . S
C283 C281 1.419 . S
C283 C284 1.362 . S
C284 H276 0.930 . S
C284 C283 1.362 . S
C284 C287 1.409 . S
C285 H277 0.930 . S
C285 C286 1.355 . S
C285 C287 1.415 . S
C286 C285 1.355 . S
C286 C288 1.419 . S
C287 C282 1.425 . S
C287 C284 1.409 . S
C287 C285 1.415 . S
C288 H278 0.930 . S
C288 C286 1.419 . S
C288 C289 1.362 . S
C289 H279 0.930 . S
C289 C282 1.409 . S
C289 C288 1.362 . S
H290 C296 0.930 . S
H291 C299 0.930 . S
H292 C300 0.930 . S
H293 C301 0.930 . S
H294 C304 0.930 . S
H295 C305 0.930 . S
C296 H290 0.930 . S
C296 C297 1.355 . S
C296 C298 1.415 . S
C297 C296 1.355 . S
C297 C299 1.419 . S
C298 C296 1.415 . S
C298 C303 1.425 . S
C298 C305 1.409 . S
C299 H291 0.930 . S
C299 C297 1.419 . S
C299 C300 1.362 . S
C300 H292 0.930 . S
C300 C299 1.362 . S
C300 C303 1.409 . S
C301 H293 0.930 . S
C301 C302 1.355 . S
C301 C303 1.415 . S
C302 C301 1.355 . S
C302 C304 1.419 . S
C303 C298 1.425 . S
C303 C300 1.409 . S
C303 C301 1.415 . S
C304 H294 0.930 . S
C304 C302 1.419 . S
C304 C305 1.362 . S
C305 H295 0.930 . S
C305 C298 1.409 . S
C305 C304 1.362 . S
H306 C312 0.930 . S
H307 C315 0.930 . S
H308 C316 0.930 . S
H309 C317 0.930 . S
H310 C320 0.930 . S
H311 C321 0.930 . S
C312 H306 0.930 . S
C312 C313 1.355 . S
C312 C314 1.415 . S
C313 C312 1.355 . S
C313 C315 1.419 . S
C314 C312 1.415 . S
C314 C319 1.425 . S
C314 C321 1.409 . S
C315 H307 0.930 . S
C315 C313 1.419 . S
C315 C316 1.362 . S
C316 H308 0.930 . S
C316 C315 1.362 . S
C316 C319 1.409 . S
C317 H309 0.930 . S
C317 C318 1.355 . S
C317 C319 1.415 . S
C318 C317 1.355 . S
C318 C320 1.419 . S
C319 C314 1.425 . S
C319 C316 1.409 . S
C319 C317 1.415 . S
C320 H310 0.930 . S
C320 C318 1.419 . S
C320 C321 1.362 . S
C321 H311 0.930 . S
C321 C314 1.409 . S
C321 C320 1.362 . S
H322 C328 0.930 . S
H323 C331 0.930 . S
H324 C332 0.930 . S
H325 C333 0.930 . S
H326 C336 0.930 . S
H327 C337 0.930 . S
C328 H322 0.930 . S
C328 C329 1.355 . S
C328 C330 1.415 . S
C329 C328 1.355 . S
C329 C331 1.419 . S
C330 C328 1.415 . S
C330 C335 1.425 . S
C330 C337 1.409 . S
C331 H323 0.930 . S
C331 C329 1.419 . S
C331 C332 1.362 . S
C332 H324 0.930 . S
C332 C331 1.362 . S
C332 C335 1.409 . S
C333 H325 0.930 . S
C333 C334 1.355 . S
C333 C335 1.415 . S
C334 C333 1.355 . S
C334 C336 1.419 . S
C335 C330 1.425 . S
C335 C332 1.409 . S
C335 C333 1.415 . S
C336 H326 0.930 . S
C336 C334 1.419 . S
C336 C337 1.362 . S
C337 H327 0.930 . S
C337 C330 1.409 . S
C337 C336 1.362 . S
H338 C344 0.930 . S
H339 C347 0.930 . S
H340 C348 0.930 . S
H341 C349 0.930 . S
H342 C352 0.930 . S
H343 C353 0.930 . S
C344 H338 0.930 . S
C344 C345 1.355 . S
C344 C346 1.415 . S
C345 C344 1.355 . S
C345 C347 1.419 . S
C346 C344 1.415 . S
C346 C351 1.425 . S
C346 C353 1.409 . S
C347 H339 0.930 . S
C347 C345 1.419 . S
C347 C348 1.362 . S
C348 H340 0.930 . S
C348 C347 1.362 . S
C348 C351 1.409 . S
C349 H341 0.930 . S
C349 C350 1.355 . S
C349 C351 1.415 . S
C350 C349 1.355 . S
C350 C352 1.419 . S
C351 C346 1.425 . S
C351 C348 1.409 . S
C351 C349 1.415 . S
C352 H342 0.930 . S
C352 C350 1.419 . S
C352 C353 1.362 . S
C353 H343 0.930 . S
C353 C346 1.409 . S
C353 C352 1.362 . S
H354 C360 0.930 . S
H355 C363 0.930 . S
H356 C364 0.930 . S
H357 C365 0.930 . S
H358 C368 0.930 . S
H359 C369 0.930 . S
C360 H354 0.930 . S
C360 C361 1.355 . S
C360 C362 1.415 . S
C361 C360 1.355 . S
C361 C363 1.419 . S
C362 C360 1.415 . S
C362 C367 1.425 . S
C362 C369 1.409 . S
C363 H355 0.930 . S
C363 C361 1.419 . S
C363 C364 1.362 . S
C364 H356 0.930 . S
C364 C363 1.362 . S
C364 C367 1.409 . S
C365 H357 0.930 . S
C365 C366 1.355 . S
C365 C367 1.415 . S
C366 C365 1.355 . S
C366 C368 1.419 . S
C367 C362 1.425 . S
C367 C364 1.409 . S
C367 C365 1.415 . S
C368 H358 0.930 . S
C368 C366 1.419 . S
C368 C369 1.362 . S
C369 H359 0.930 . S
C369 C362 1.409 . S
C369 C368 1.362 . S
H370 C376 0.930 . S
H371 C379 0.930 . S
H372 C380 0.930 . S
H373 C381 0.930 . S
H374 C384 0.930 . S
H375 C385 0.930 . S
C376 H370 0.930 . S
C376 C377 1.355 . S
C376 C378 1.415 . S
C377 C376 1.355 . S
C377 C379 1.419 . S
C378 C376 1.415 . S
C378 C383 1.425 . S
C378 C385 1.409 . S
C379 H371 0.930 . S
C379 C377 1.419 . S
C379 C380 1.362 . S
C380 H372 0.930 . S
C380 C379 1.362 . S
C380 C383 1.409 . S
C381 H373 0.930 . S
C381 C382 1.355 . S
C381 C383 1.415 . S
C382 C381 1.355 . S
C382 C384 1.419 . S
C383 C378 1.425 . S
C383 C380 1.409 . S
C383 C381 1.415 . S
C384 H374 0.930 . S
C384 C382 1.419 . S
C384 C385 1.362 . S
C385 H375 0.930 . S
C385 C378 1.409 . S
C385 C384 1.362 . S
H386 C392 0.930 . S
H387 C395 0.930 . S
H388 C396 0.930 . S
H389 C397 0.930 . S
H390 C400 0.930 . S
H391 C401 0.930 . S
C392 H386 0.930 . S
C392 C393 1.355 . S
C392 C394 1.415 . S
C393 C392 1.355 . S
C393 C395 1.419 . S
C394 C392 1.415 . S
C394 C399 1.425 . S
C394 C401 1.409 . S
C395 H387 0.930 . S
C395 C393 1.419 . S
C395 C396 1.362 . S
C396 H388 0.930 . S
C396 C395 1.362 . S
C396 C399 1.409 . S
C397 H389 0.930 . S
C397 C398 1.355 . S
C397 C399 1.415 . S
C398 C397 1.355 . S
C398 C400 1.419 . S
C399 C394 1.425 . S
C399 C396 1.409 . S
C399 C397 1.415 . S
C400 H390 0.930 . S
C400 C398 1.419 . S
C400 C401 1.362 . S
C401 H391 0.930 . S
C401 C394 1.409 . S
C401 C400 1.362 . S
H402 C408 0.930 . S
H403 C411 0.930 . S
H404 C412 0.930 . S
H405 C413 0.930 . S
H406 C416 0.930 . S
H407 C417 0.930 . S
C408 H402 0.930 . S
C408 C409 1.355 . S
C408 C410 1.415 . S
C409 C408 1.355 . S
C409 C411 1.419 . S
C410 C408 1.415 . S
C410 C415 1.425 . S
C410 C417 1.409 . S
C411 H403 0.930 . S
C411 C409 1.419 . S
C411 C412 1.362 . S
C412 H404 0.930 . S
C412 C411 1.362 . S
C412 C415 1.409 . S
C413 H405 0.930 . S
C413 C414 1.355 . S
C413 C415 1.415 . S
C414 C413 1.355 . S
C414 C416 1.419 . S
C415 C410 1.425 . S
C415 C412 1.409 . S
C415 C413 1.415 . S
C416 H406 0.930 . S
C416 C414 1.419 . S
C416 C417 1.362 . S
C417 H407 0.930 . S
C417 C410 1.409 . S
C417 C416 1.362 . S
H418 C424 0.930 . S
H419 C427 0.930 . S
H420 C428 0.930 . S
H421 C429 0.930 . S
H422 C432 0.930 . S
H423 C433 0.930 . S
C424 H418 0.930 . S
C424 C425 1.355 . S
C424 C426 1.415 . S
C425 C424 1.355 . S
C425 C427 1.419 . S
C426 C424 1.415 . S
C426 C431 1.425 . S
C426 C433 1.409 . S
C427 H419 0.930 . S
C427 C425 1.419 . S
C427 C428 1.362 . S
C428 H420 0.930 . S
C428 C427 1.362 . S
C428 C431 1.409 . S
C429 H421 0.930 . S
C429 C430 1.355 . S
C429 C431 1.415 . S
C430 C429 1.355 . S
C430 C432 1.419 . S
C431 C426 1.425 . S
C431 C428 1.409 . S
C431 C429 1.415 . S
C432 H422 0.930 . S
C432 C430 1.419 . S
C432 C433 1.362 . S
C433 H423 0.930 . S
C433 C426 1.409 . S
C433 C432 1.362 . S
H434 C440 0.930 . S
H435 C443 0.930 . S
H436 C444 0.930 . S
H437 C445 0.930 . S
H438 C448 0.930 . S
H439 C449 0.930 . S
C440 H434 0.930 . S
C440 C441 1.355 . S
C440 C442 1.415 . S
C441 C440 1.355 . S
C441 C443 1.419 . S
C442 C440 1.415 . S
C442 C447 1.425 . S
C442 C449 1.409 . S
C443 H435 0.930 . S
C443 C441 1.419 . S
C443 C444 1.362 . S
C444 H436 0.930 . S
C444 C443 1.362 . S
C444 C447 1.409 . S
C445 H437 0.930 . S
C445 C446 1.355 . S
C445 C447 1.415 . S
C446 C445 1.355 . S
C446 C448 1.419 . S
C447 C442 1.425 . S
C447 C444 1.409 . S
C447 C445 1.415 . S
C448 H438 0.930 . S
C448 C446 1.419 . S
C448 C449 1.362 . S
C449 H439 0.930 . S
C449 C442 1.409 . S
C449 C448 1.362 . S
H450 C456 0.930 . S
H451 C459 0.930 . S
H452 C460 0.930 . S
H453 C461 0.930 . S
H454 C464 0.930 . S
H455 C465 0.930 . S
C456 H450 0.930 . S
C456 C457 1.355 . S
C456 C458 1.415 . S
C457 C456 1.355 . S
C457 C459 1.419 . S
C458 C456 1.415 . S
C458 C463 1.425 . S
C458 C465 1.409 . S
C459 H451 0.930 . S
C459 C457 1.419 . S
C459 C460 1.362 . S
C460 H452 0.930 . S
C460 C459 1.362 . S
C460 C463 1.409 . S
C461 H453 0.930 . S
C461 C462 1.355 . S
C461 C463 1.415 . S
C462 C461 1.355 . S
C462 C464 1.419 . S
C463 C458 1.425 . S
C463 C460 1.409 . S
C463 C461 1.415 . S
C464 H454 0.930 . S
C464 C462 1.419 . S
C464 C465 1.362 . S
C465 H455 0.930 . S
C465 C458 1.409 . S
C465 C464 1.362 . S
H466 C472 0.930 . S
H467 C475 0.930 . S
H468 C476 0.930 . S
H469 C477 0.930 . S
H470 C480 0.930 . S
H471 C481 0.930 . S
C472 H466 0.930 . S
C472 C473 1.355 . S
C472 C474 1.415 . S
C473 C472 1.355 . S
C473 C475 1.419 . S
C474 C472 1.415 . S
C474 C479 1.425 . S
C474 C481 1.409 . S
C475 H467 0.930 . S
C475 C473 1.419 . S
C475 C476 1.362 . S
C476 H468 0.930 . S
C476 C475 1.362 . S
C476 C479 1.409 . S
C477 H469 0.930 . S
C477 C478 1.355 . S
C477 C479 1.415 . S
C478 C477 1.355 . S
C478 C480 1.419 . S
C479 C474 1.425 . S
C479 C476 1.409 . S
C479 C477 1.415 . S
C480 H470 0.930 . S
C480 C478 1.419 . S
C480 C481 1.362 . S
C481 H471 0.930 . S
C481 C474 1.409 . S
C481 C480 1.362 . S
H482 C488 0.930 . S
H483 C491 0.930 . S
H484 C492 0.930 . S
H485 C493 0.930 . S
H486 C496 0.930 . S
H487 C497 0.930 . S
C488 H482 0.930 . S
C488 C489 1.355 . S
C488 C490 1.415 . S
C489 C488 1.355 . S
C489 C491 1.419 . S
C490 C488 1.415 . S
C490 C495 1.425 . S
C490 C497 1.409 . S
C491 H483 0.930 . S
C491 C489 1.419 . S
C491 C492 1.362 . S
C492 H484 0.930 . S
C492 C491 1.362 . S
C492 C495 1.409 . S
C493 H485 0.930 . S
C493 C494 1.355 . S
C493 C495 1.415 . S
C494 C493 1.355 . S
C494 C496 1.419 . S
C495 C490 1.425 . S
C495 C492 1.409 . S
C495 C493 1.415 . S
C496 H486 0.930 . S
C496 C494 1.419 . S
C496 C497 1.362 . S
C497 H487 0.930 . S
C497 C490 1.409 . S
C497 C496 1.362 . S
H498 C504 0.930 . S
H499 C507 0.930 . S
H500 C508 0.930 . S
H501 C509 0.930 . S
H502 C512 0.930 . S
H503 C513 0.930 . S
C504 H498 0.930 . S
C504 C505 1.355 . S
C504 C506 1.415 . S
C505 C504 1.355 . S
C505 C507 1.419 . S
C506 C504 1.415 . S
C506 C511 1.425 . S
C506 C513 1.409 . S
C507 H499 0.930 . S
C507 C505 1.419 . S
C507 C508 1.362 . S
C508 H500 0.930 . S
C508 C507 1.362 . S
C508 C511 1.409 . S
C509 H501 0.930 . S
C509 C510 1.355 . S
C509 C511 1.415 . S
C510 C509 1.355 . S
C510 C512 1.419 . S
C511 C506 1.425 . S
C511 C508 1.409 . S
C511 C509 1.415 . S
C512 H502 0.930 . S
C512 C510 1.419 . S
C512 C513 1.362 . S
C513 H503 0.930 . S
C513 C506 1.409 . S
C513 C512 1.362 . S
H514 C520 0.930 . S
H515 C523 0.930 . S
H516 C524 0.930 . S
H517 C525 0.930 . S
H518 C528 0.930 . S
H519 C529 0.930 . S
C520 H514 0.930 . S
C520 C521 1.355 . S
C520 C522 1.415 . S
C521 C520 1.355 . S
C521 C523 1.419 . S
C522 C520 1.415 . S
C522 C527 1.425 . S
C522 C529 1.409 . S
C523 H515 0.930 . S
C523 C521 1.419 . S
C523 C524 1.362 . S
C524 H516 0.930 . S
C524 C523 1.362 . S
C524 C527 1.409 . S
C525 H517 0.930 . S
C525 C526 1.355 . S
C525 C527 1.415 . S
C526 C525 1.355 . S
C526 C528 1.419 . S
C527 C522 1.425 . S
C527 C524 1.409 . S
C527 C525 1.415 . S
C528 H518 0.930 . S
C528 C526 1.419 . S
C528 C529 1.362 . S
C529 H519 0.930 . S
C529 C522 1.409 . S
C529 C528 1.362 . S
H530 C536 0.930 . S
H531 C539 0.930 . S
H532 C540 0.930 . S
H533 C541 0.930 . S
H534 C544 0.930 . S
H535 C545 0.930 . S
C536 H530 0.930 . S
C536 C537 1.355 . S
C536 C538 1.415 . S
C537 C536 1.355 . S
C537 C539 1.419 . S
C538 C536 1.415 . S
C538 C543 1.425 . S
C538 C545 1.409 . S
C539 H531 0.930 . S
C539 C537 1.419 . S
C539 C540 1.362 . S
C540 H532 0.930 . S
C540 C539 1.362 . S
C540 C543 1.409 . S
C541 H533 0.930 . S
C541 C542 1.355 . S
C541 C543 1.415 . S
C542 C541 1.355 . S
C542 C544 1.419 . S
C543 C538 1.425 . S
C543 C540 1.409 . S
C543 C541 1.415 . S
C544 H534 0.930 . S
C544 C542 1.419 . S
C544 C545 1.362 . S
C545 H535 0.930 . S
C545 C538 1.409 . S
C545 C544 1.362 . S
H546 C552 0.930 . S
H547 C555 0.930 . S
H548 C556 0.930 . S
H549 C557 0.930 . S
H550 C560 0.930 . S
H551 C561 0.930 . S
C552 H546 0.930 . S
C552 C553 1.355 . S
C552 C554 1.415 . S
C553 C552 1.355 . S
C553 C555 1.419 . S
C554 C552 1.415 . S
C554 C559 1.425 . S
C554 C561 1.409 . S
C555 H547 0.930 . S
C555 C553 1.419 . S
C555 C556 1.362 . S
C556 H548 0.930 . S
C556 C555 1.362 . S
C556 C559 1.409 . S
C557 H549 0.930 . S
C557 C558 1.355 . S
C557 C559 1.415 . S
C558 C557 1.355 . S
C558 C560 1.419 . S
C559 C554 1.425 . S
C559 C556 1.409 . S
C559 C557 1.415 . S
C560 H550 0.930 . S
C560 C558 1.419 . S
C560 C561 1.362 . S
C561 H551 0.930 . S
C561 C554 1.409 . S
C561 C560 1.362 . S
H562 C568 0.930 . S
H563 C571 0.930 . S
H564 C572 0.930 . S
H565 C573 0.930 . S
H566 C576 0.930 . S
H567 C577 0.930 . S
C568 H562 0.930 . S
C568 C569 1.355 . S
C568 C570 1.415 . S
C569 C568 1.355 . S
C569 C571 1.419 . S
C570 C568 1.415 . S
C570 C575 1.425 . S
C570 C577 1.409 . S
C571 H563 0.930 . S
C571 C569 1.419 . S
C571 C572 1.362 . S
C572 H564 0.930 . S
C572 C571 1.362 . S
C572 C575 1.409 . S
C573 H565 0.930 . S
C573 C574 1.355 . S
C573 C575 1.415 . S
C574 C573 1.355 . S
C574 C576 1.419 . S
C575 C570 1.425 . S
C575 C572 1.409 . S
C575 C573 1.415 . S
C576 H566 0.930 . S
C576 C574 1.419 . S
C576 C577 1.362 . S
C577 H567 0.930 . S
C577 C570 1.409 . S
C577 C576 1.362 . S
H578 C584 0.930 . S
H579 C587 0.930 . S
H580 C588 0.930 . S
H581 C589 0.930 . S
H582 C592 0.930 . S
H583 C593 0.930 . S
C584 H578 0.930 . S
C584 C585 1.355 . S
C584 C586 1.415 . S
C585 C584 1.355 . S
C585 C587 1.419 . S
C586 C584 1.415 . S
C586 C591 1.425 . S
C586 C593 1.409 . S
C587 H579 0.930 . S
C587 C585 1.419 . S
C587 C588 1.362 . S
C588 H580 0.930 . S
C588 C587 1.362 . S
C588 C591 1.409 . S
C589 H581 0.930 . S
C589 C590 1.355 . S
C589 C591 1.415 . S
C590 C589 1.355 . S
C590 C592 1.419 . S
C591 C586 1.425 . S
C591 C588 1.409 . S
C591 C589 1.415 . S
C592 H582 0.930 . S
C592 C590 1.419 . S
C592 C593 1.362 . S
C593 H583 0.930 . S
C593 C586 1.409 . S
C593 C592 1.362 . S
H594 C600 0.930 . S
H595 C603 0.930 . S
H596 C604 0.930 . S
H597 C605 0.930 . S
H598 C608 0.930 . S
H599 C609 0.930 . S
C600 H594 0.930 . S
C600 C601 1.355 . S
C600 C602 1.415 . S
C601 C600 1.355 . S
C601 C603 1.419 . S
C602 C600 1.415 . S
C602 C607 1.425 . S
C602 C609 1.409 . S
C603 H595 0.930 . S
C603 C601 1.419 . S
C603 C604 1.362 . S
C604 H596 0.930 . S
C604 C603 1.362 . S
C604 C607 1.409 . S
C605 H597 0.930 . S
C605 C606 1.355 . S
C605 C607 1.415 . S
C606 C605 1.355 . S
C606 C608 1.419 . S
C607 C602 1.425 . S
C607 C604 1.409 . S
C607 C605 1.415 . S
C608 H598 0.930 . S
C608 C606 1.419 . S
C608 C609 1.362 . S
C609 H599 0.930 . S
C609 C602 1.409 . S
C609 C608 1.362 . S
H610 C616 0.930 . S
H611 C619 0.930 . S
H612 C620 0.930 . S
H613 C621 0.930 . S
H614 C624 0.930 . S
H615 C625 0.930 . S
C616 H610 0.930 . S
C616 C617 1.355 . S
C616 C618 1.415 . S
C617 C616 1.355 . S
C617 C619 1.419 . S
C618 C616 1.415 . S
C618 C623 1.425 . S
C618 C625 1.409 . S
C619 H611 0.930 . S
C619 C617 1.419 . S
C619 C620 1.362 . S
C620 H612 0.930 . S
C620 C619 1.362 . S
C620 C623 1.409 . S
C621 H613 0.930 . S
C621 C622 1.355 . S
C621 C623 1.415 . S
C622 C621 1.355 . S
C622 C624 1.419 . S
C623 C618 1.425 . S
C623 C620 1.409 . S
C623 C621 1.415 . S
C624 H614 0.930 . S
C624 C622 1.419 . S
C624 C625 1.362 . S
C625 H615 0.930 . S
C625 C618 1.409 . S
C625 C624 1.362 . S
H626 C632 0.930 . S
H627 C635 0.930 . S
H628 C636 0.930 . S
H629 C637 0.930 . S
H630 C640 0.930 . S
H631 C641 0.930 . S
C632 H626 0.930 . S
C632 C633 1.355 . S
C632 C634 1.415 . S
C633 C632 1.355 . S
C633 C635 1.419 . S
C634 C632 1.415 . S
C634 C639 1.425 . S
C634 C641 1.409 . S
C635 H627 0.930 . S
C635 C633 1.419 . S
C635 C636 1.362 . S
C636 H628 0.930 . S
C636 C635 1.362 . S
C636 C639 1.409 . S
C637 H629 0.930 . S
C637 C638 1.355 . S
C637 C639 1.415 . S
C638 C637 1.355 . S
C638 C640 1.419 . S
C639 C634 1.425 . S
C639 C636 1.409 . S
C639 C637 1.415 . S
C640 H630 0.930 . S
C640 C638 1.419 . S
C640 C641 1.362 . S
C641 H631 0.930 . S
C641 C634 1.409 . S
C641 C640 1.362 . S
C265 C18 1.783 . S
C270 C127 1.807 . S
C281 C29 1.178 . S
C286 N145 1.200 . S
C302 C173 1.859 . S
C297 C55 1.769 . S
C318 N191 1.191 . S
C313 C75 1.181 . S
C334 C219 1.831 . S
C329 C98 1.747 . S
C350 N237 1.135 . S
C345 C118 1.101 . S
C361 C38 1.735 . S
C366 C182 1.804 . S
C377 C52 1.185 . S
C382 N201 1.153 . S
C398 C228 1.811 . S
C393 C72 1.735 . S
C414 N247 1.176 . S
C409 C89 1.197 . S
C425 C109 1.703 . S
C430 C136 1.846 . S
C446 N155 1.167 . S
C441 C9 1.178 . S
C462 C205 1.782 . S
C457 C12 1.689 . S
C473 C35 1.047 . S
C478 N224 1.113 . S
C494 C251 1.826 . S
C489 C49 1.676 . S
C505 C69 1.164 . S
C510 N132 1.203 . S
C521 C92 1.752 . S
C526 C159 1.802 . S
C537 C112 1.144 . S
C542 N178 1.124 . S
C553 C32 1.752 . S
C558 C242 1.807 . S
C574 N122 1.145 . S
C569 C58 1.155 . S
C585 C78 1.722 . S
C590 C150 1.810 . S
C601 C95 1.061 . S
C606 N168 1.198 . S
C617 C115 1.744 . S
C622 C196 1.851 . S
C633 C15 1.021 . S
C638 N214 1.149 . S
