# Generated by pormake.
# Topology anh, (6,3)-cn, num edge types: 1
# Building blocks:
#     Node 0, Type 0, BuildingBlock: BETDAH_clean_sbu_0, # of connection points: 6
#     Node 1, Type 0, BuildingBlock: BETDAH_clean_sbu_0, # of connection points: 6
#     Node 2, Type 0, BuildingBlock: BETDAH_clean_sbu_0, # of connection points: 6
#     Node 3, Type 1, BuildingBlock: ESEHIV_clean_linker_0, # of connection points: 3
#     Node 4, Type 1, BuildingBlock: ESEHIV_clean_linker_0, # of connection points: 3
#     Node 5, Type 1, BuildingBlock: ESEHIV_clean_linker_0, # of connection points: 3
#     Node 6, Type 1, BuildingBlock: ESEHIV_clean_linker_0, # of connection points: 3
#     Node 7, Type 1, BuildingBlock: ESEHIV_clean_linker_0, # of connection points: 3
#     Node 8, Type 1, BuildingBlock: ESEHIV_clean_linker_0, # of connection points: 3
#     Edge 9, Type (0, 1), BuildingBlock: XIVTED_clean_linker_0, # of connection points: 2
#     Edge 10, Type (0, 1), BuildingBlock: XIVTED_clean_linker_0, # of connection points: 2
#     Edge 11, Type (0, 1), BuildingBlock: XIVTED_clean_linker_0, # of connection points: 2
#     Edge 12, Type (0, 1), BuildingBlock: XIVTED_clean_linker_0, # of connection points: 2
#     Edge 13, Type (0, 1), BuildingBlock: XIVTED_clean_linker_0, # of connection points: 2
#     Edge 14, Type (0, 1), BuildingBlock: XIVTED_clean_linker_0, # of connection points: 2
#     Edge 15, Type (0, 1), BuildingBlock: XIVTED_clean_linker_0, # of connection points: 2
#     Edge 16, Type (0, 1), BuildingBlock: XIVTED_clean_linker_0, # of connection points: 2
#     Edge 17, Type (0, 1), BuildingBlock: XIVTED_clean_linker_0, # of connection points: 2
#     Edge 18, Type (0, 1), BuildingBlock: XIVTED_clean_linker_0, # of connection points: 2
#     Edge 19, Type (0, 1), BuildingBlock: XIVTED_clean_linker_0, # of connection points: 2
#     Edge 20, Type (0, 1), BuildingBlock: XIVTED_clean_linker_0, # of connection points: 2
#     Edge 21, Type (0, 1), BuildingBlock: XIVTED_clean_linker_0, # of connection points: 2
#     Edge 22, Type (0, 1), BuildingBlock: XIVTED_clean_linker_0, # of connection points: 2
#     Edge 23, Type (0, 1), BuildingBlock: XIVTED_clean_linker_0, # of connection points: 2
#     Edge 24, Type (0, 1), BuildingBlock: XIVTED_clean_linker_0, # of connection points: 2
#     Edge 25, Type (0, 1), BuildingBlock: XIVTED_clean_linker_0, # of connection points: 2
#     Edge 26, Type (0, 1), BuildingBlock: XIVTED_clean_linker_0, # of connection points: 2
# Relax obj value: 0.215
# Max RMSD: 0.228
# Mean RMSD: 0.165
data_MOF--net-anh--node1-BETDAH_clean_sbu_0--node2-ESEHIV_clean_linker_0--edge1-XIVTED_clean_linker_0
_symmetry_space_group_name_H-M    P1
_symmetry_Int_Tables_number       1
_symmetry_cell_setting            triclinic
loop_
_symmetry_equiv_pos_as_xyz
'x, y, z'
_cell_length_a     28.264703
_cell_length_b     35.185428
_cell_length_c     51.905917
_cell_angle_alpha  92.366592
_cell_angle_beta   89.93984
_cell_angle_gamma 129.89983
loop_
_atom_site_label
_atom_site_type_symbol
_atom_site_fract_x
_atom_site_fract_y
_atom_site_fract_z
_atom_type_partial_charge
Ho0 Ho 0.12682 0.51395 0.13976 0.0
Ho1 Ho 1.05249 0.54404 0.15874 0.0
C2 C 0.19466 0.63242 0.1509 0.0
C3 C 0.20059 0.50565 0.11668 0.0
C4 C 0.26508 0.52733 0.12173 0.0
C5 C 0.31498 0.57768 0.11819 0.0
C6 C 0.3756 0.59674 0.12291 0.0
C7 C 0.38711 0.56592 0.13152 0.0
C8 C 0.337 0.51603 0.13566 0.0
C9 C 0.27679 0.49693 0.13067 0.0
C10 C 0.11457 0.51337 0.19118 0.0
C11 C 0.98527 0.42737 0.14668 0.0
C12 C 0.97978 0.54894 0.18582 0.0
C13 C 0.92175 0.51029 0.19824 0.0
C14 C 0.91082 0.46816 0.20718 0.0
C15 C 0.85101 0.42622 0.21284 0.0
C16 C 0.80132 0.42578 0.20952 0.0
C17 C 0.81395 0.47013 0.20337 0.0
C18 C 0.87362 0.5119 0.19767 0.0
C19 C 1.06686 0.54499 0.10725 0.0
O20 O 0.19782 0.59846 0.14138 0.0
O21 O 0.14364 0.62036 0.16062 0.0
O22 O 0.16143 0.47492 0.13363 0.0
O23 O 0.1908 0.53532 0.10929 0.0
O24 O 0.11797 0.48304 0.17823 0.0
O25 O 0.12336 0.54494 0.17663 0.0
O26 O 0.98768 0.46042 0.16122 0.0
O27 O 1.0317 0.4412 0.13204 0.0
O28 O 0.97703 0.54533 0.16057 0.0
O29 O 1.02953 0.55879 0.19545 0.0
O30 O 1.06489 0.57651 0.12005 0.0
O31 O 1.05652 0.51308 0.12197 0.0
H32 H 0.30737 0.60216 0.11146 0.0
H33 H 0.41346 0.63522 0.11936 0.0
H34 H 0.34433 0.49094 0.14158 0.0
H35 H 0.23926 0.458 0.13347 0.0
H36 H 0.94755 0.46627 0.20805 0.0
H37 H 0.84295 0.3929 0.21774 0.0
H38 H 0.77697 0.47126 0.20036 0.0
H39 H 0.8812 0.5441 0.1909 0.0
Ho40 Ho 0.66704 0.03581 0.47116 0.0
Ho41 Ho 0.58123 0.05605 0.45858 0.0
C42 C 0.52035 0.94386 0.45883 0.0
C43 C 0.71826 1.00351 0.49116 0.0
C44 C 0.70005 0.95489 0.49647 0.0
C45 C 0.70479 0.94522 0.52187 0.0
C46 C 0.68878 0.89984 0.52744 0.0
C47 C 0.66818 0.86334 0.50766 0.0
C48 C 0.66325 0.87293 0.48222 0.0
C49 C 0.67874 0.91821 0.47667 0.0
C50 C 0.65971 0.04828 0.42087 0.0
C51 C 0.72947 0.14882 0.46837 0.0
C52 C 0.53171 0.09212 0.4423 0.0
C53 C 0.54456 0.13827 0.45098 0.0
C54 C 0.52222 0.15725 0.43689 0.0
C55 C 0.53446 0.20105 0.44574 0.0
C56 C 0.56916 0.22641 0.46885 0.0
C57 C 0.59182 0.20717 0.48267 0.0
C58 C 0.57989 0.16375 0.47376 0.0
C59 C 0.59065 0.04503 0.50892 0.0
O60 O 0.57129 0.95971 0.47154 0.0
O61 O 0.51731 0.97519 0.44748 0.0
O62 O 0.72314 0.01429 0.46698 0.0
O63 O 0.69191 0.01704 0.50486 0.0
O64 O 0.71006 0.06367 0.43271 0.0
O65 O 0.61508 0.02462 0.43577 0.0
O66 O 0.67543 0.13232 0.4589 0.0
O67 O 0.73709 0.11843 0.47737 0.0
O68 O 0.50681 0.05847 0.45948 0.0
O69 O 0.57687 0.0979 0.43066 0.0
O70 O 0.53983 0.02908 0.49747 0.0
O71 O 0.63427 0.06841 0.49362 0.0
H72 H 0.72128 0.97298 0.53742 0.0
H73 H 0.69375 0.89371 0.54718 0.0
H74 H 0.647 0.84528 0.46665 0.0
H75 H 0.67421 0.92445 0.4569 0.0
H76 H 0.49526 0.13817 0.41915 0.0
H77 H 0.51696 0.21512 0.43444 0.0
H78 H 0.61767 0.22496 0.50075 0.0
H79 H 0.59768 0.14966 0.48487 0.0
Ho80 Ho 0.66168 0.57392 0.83822 0.0
Ho81 Ho 0.57092 0.46252 0.84436 0.0
C82 C 0.51424 0.51719 0.84703 0.0
C83 C 0.71801 0.66244 0.82322 0.0
C84 C 0.70141 0.69283 0.81566 0.0
C85 C 0.69227 0.69607 0.7895 0.0
C86 C 0.67868 0.72599 0.78218 0.0
C87 C 0.67434 0.75368 0.80084 0.0
C88 C 0.6834 0.7504 0.82701 0.0
C89 C 0.69689 0.72041 0.83435 0.0
C90 C 0.65471 0.54487 0.88605 0.0
C91 C 0.7206 0.52062 0.83887 0.0
C92 C 0.51518 0.37245 0.85655 0.0
C93 C 0.5277 0.33806 0.85163 0.0
C94 C 0.58693 0.35346 0.856 0.0
C95 C 0.60015 0.32281 0.84805 0.0
C96 C 0.55423 0.27596 0.8358 0.0
C97 C 0.49424 0.2597 0.83256 0.0
C98 C 0.48119 0.29056 0.84035 0.0
C99 C 0.58173 0.49133 0.79589 0.0
O100 O 0.56722 0.55513 0.83717 0.0
O101 O 0.50753 0.47867 0.85505 0.0
O102 O 0.7125 0.65194 0.84751 0.0
O103 O 0.69957 0.62481 0.80748 0.0
O104 O 0.7056 0.5827 0.87648 0.0
O105 O 0.60994 0.52679 0.87048 0.0
O106 O 0.66438 0.4798 0.84444 0.0
O107 O 0.73062 0.56168 0.83325 0.0
O108 O 0.50005 0.38351 0.83613 0.0
O109 O 0.55391 0.4112 0.87219 0.0
O110 O 0.53008 0.45431 0.80528 0.0
O111 O 0.62523 0.50948 0.81214 0.0
H112 H 0.69629 0.67588 0.7746 0.0
H113 H 0.67299 0.72831 0.76182 0.0
H114 H 0.67985 0.77092 0.84188 0.0
H115 H 0.70416 0.71913 0.85467 0.0
H116 H 0.62348 0.38968 0.86497 0.0
H117 H 0.64656 0.33607 0.85115 0.0
H118 H 0.458 0.22398 0.823 0.0
H119 H 0.43522 0.27796 0.83676 0.0
H120 H 0.54261 0.95542 0.22476 0.0
H121 H 0.68043 0.11422 0.22543 0.0
H122 H 0.59479 0.02961 0.15338 0.0
C123 C 0.57048 0.9894 0.21451 0.0
C124 C 0.56364 0.98697 0.18756 0.0
C125 C 0.61239 0.03508 0.22835 0.0
C126 C 0.64817 0.07871 0.21486 0.0
C127 C 0.64257 0.07728 0.18788 0.0
C128 C 0.59997 0.03112 0.17417 0.0
H129 H 0.61767 0.59652 0.60679 0.0
H130 H 0.62276 0.4773 0.59903 0.0
H131 H 0.61552 0.54003 0.5312 0.0
C132 C 0.61758 0.57077 0.59454 0.0
C133 C 0.61653 0.5727 0.56758 0.0
C134 C 0.62007 0.53667 0.60597 0.0
C135 C 0.62214 0.50441 0.59024 0.0
C136 C 0.61994 0.5051 0.56323 0.0
C137 C 0.61728 0.53943 0.55203 0.0
H138 H 1.04896 0.53893 0.90914 0.0
H139 H 0.19419 0.53186 0.91726 0.0
H140 H 0.12191 0.52029 0.84132 0.0
C141 C 1.08142 0.53596 0.90038 0.0
C142 C 1.08013 0.52988 0.87346 0.0
C143 C 0.12208 0.53667 0.91626 0.0
C144 C 0.16262 0.53112 0.90493 0.0
C145 C 0.16406 0.52557 0.87795 0.0
C146 C 0.12235 0.52517 0.86207 0.0
H147 H 1.04 0.45328 0.3899 0.0
H148 H 0.1927 0.60902 0.3856 0.0
H149 H 0.12978 0.54542 0.45965 0.0
C150 C 1.07607 0.48929 0.39931 0.0
C151 C 1.08078 0.49429 0.42637 0.0
C152 C 0.11613 0.53044 0.3844 0.0
C153 C 0.16112 0.57698 0.39693 0.0
C154 C 0.16649 0.5829 0.42395 0.0
C155 C 0.12666 0.54117 0.43878 0.0
H156 H 0.62213 0.09039 0.70691 0.0
H157 H 0.6273 0.97131 0.69806 0.0
H158 H 0.62194 0.02237 0.77402 0.0
C159 C 0.62399 0.06379 0.71551 0.0
C160 C 0.62221 0.0605 0.74243 0.0
C161 C 0.62486 0.03119 0.69947 0.0
C162 C 0.62531 0.99573 0.71051 0.0
C163 C 0.62509 0.99262 0.73743 0.0
C164 C 0.62309 0.02496 0.75326 0.0
H165 H 0.63385 0.4868 0.05176 0.0
H166 H 0.5843 0.3445 0.05877 0.0
H167 H 0.56702 0.41557 0.12349 0.0
C168 C 0.61623 0.45563 0.06348 0.0
C169 C 0.59848 0.45528 0.0887 0.0
C170 C 0.60983 0.4155 0.05258 0.0
C171 C 0.58861 0.3752 0.0674 0.0
C172 C 0.57509 0.37561 0.09352 0.0
C173 C 0.57868 0.41531 0.10369 0.0
H174 H 0.47548 0.61715 0.09573 0.0
H175 H 0.61714 0.49475 0.13882 0.0
H176 H 0.44144 0.55068 0.16878 0.0
H177 H 0.57497 0.50667 0.06093 0.0
H178 H 0.59451 0.5481 0.15436 0.0
H179 H 0.55912 0.61493 0.08919 0.0
C180 C 0.48721 0.60397 0.11091 0.0
C181 C 0.45014 0.58235 0.13239 0.0
C182 C 0.59213 0.53994 0.13383 0.0
C183 C 0.54436 0.57852 0.12468 0.0
C184 C 0.60405 0.50885 0.1249 0.0
C185 C 0.59654 0.49474 0.09847 0.0
C186 C 0.57372 0.5577 0.11617 0.0
C187 C 0.58195 0.51621 0.08142 0.0
C188 C 0.53467 0.60234 0.10706 0.0
C189 C 0.46775 0.5661 0.1515 0.0
N190 N 0.57044 0.54603 0.0906 0.0
N191 N 0.5126 0.56313 0.14687 0.0
H192 H 0.72663 0.2234 0.45965 0.0
H193 H 0.09263 0.43267 0.45015 0.0
H194 H 0.85332 0.19764 0.4764 0.0
H195 H 0.96229 0.45417 0.43347 0.0
H196 H 1.00794 0.35012 0.46544 0.0
H197 H 0.81386 0.31089 0.4553 0.0
C198 C 0.77285 0.23615 0.46257 0.0
C199 C 0.78253 0.20283 0.46814 0.0
C200 C 0.99801 0.37327 0.45892 0.0
C201 C 0.88331 0.30363 0.46302 0.0
C202 C 1.04638 0.42044 0.45044 0.0
C203 C 1.03416 0.45014 0.44088 0.0
C204 C 0.93715 0.35578 0.45756 0.0
C205 C 0.97344 0.43241 0.441 0.0
C206 C 0.82281 0.28631 0.46011 0.0
C207 C 0.84362 0.22189 0.47199 0.0
N208 N 0.92719 0.38631 0.449 0.0
N209 N 0.89171 0.27092 0.46909 0.0
H210 H 0.59282 0.73542 0.76328 0.0
H211 H 0.69384 0.00636 0.77963 0.0
H212 H 0.72795 0.84756 0.82027 0.0
H213 H 0.56291 0.89557 0.72121 0.0
H214 H 0.70179 0.94686 0.7967 0.0
H215 H 0.577 0.79203 0.74918 0.0
C216 C 0.61924 0.77198 0.77281 0.0
C217 C 0.66202 0.78681 0.79291 0.0
C218 C 0.67113 0.93549 0.78021 0.0
C219 C 0.64378 0.85177 0.77698 0.0
C220 C 0.66627 0.96936 0.77055 0.0
C221 C 0.62787 0.95604 0.74887 0.0
C222 C 0.63731 0.88787 0.76813 0.0
C223 C 0.59384 0.90773 0.7377 0.0
C224 C 0.60995 0.80421 0.76484 0.0
C225 C 0.69408 0.83433 0.80486 0.0
N226 N 0.5995 0.87549 0.7474 0.0
N227 N 0.68452 0.86517 0.79664 0.0
H228 H 0.7632 0.33998 0.18435 0.0
H229 H 0.50201 0.33585 0.13636 0.0
H230 H 0.69212 0.40244 0.22497 0.0
H231 H 0.62761 0.33151 0.09169 0.0
H232 H 0.52507 0.30898 0.17344 0.0
H233 H 0.66679 0.2846 0.15939 0.0
C234 C 0.72638 0.34059 0.189 0.0
C235 C 0.7372 0.37816 0.20564 0.0
C236 C 0.54551 0.31198 0.15516 0.0
C237 C 0.62741 0.31562 0.1766 0.0
C238 C 0.53309 0.32798 0.13402 0.0
C239 C 0.56629 0.33945 0.11133 0.0
C240 C 0.5908 0.30695 0.15337 0.0
C241 C 0.60255 0.32518 0.10898 0.0
C242 C 0.67115 0.30889 0.17454 0.0
C243 C 0.68683 0.37583 0.21124 0.0
N244 N 0.61522 0.31105 0.13 0.0
N245 N 0.63472 0.34646 0.19601 0.0
H246 H 0.40635 0.89993 0.43773 0.0
H247 H 0.26666 0.62017 0.45607 0.0
H248 H 0.5094 0.86502 0.47553 0.0
H249 H 0.17204 0.66151 0.41734 0.0
H250 H 0.35219 0.70853 0.46778 0.0
H251 H 0.31724 0.81209 0.43379 0.0
C252 C 0.41037 0.8738 0.44523 0.0
C253 C 0.46584 0.8901 0.45682 0.0
C254 C 0.31226 0.69814 0.45705 0.0
C255 C 0.363 0.78852 0.45236 0.0
C256 C 0.26335 0.64779 0.45061 0.0
C257 C 0.21247 0.6338 0.43576 0.0
C258 C 0.30988 0.73439 0.44855 0.0
C259 C 0.21058 0.67089 0.42879 0.0
C260 C 0.35917 0.82342 0.44303 0.0
C261 C 0.46769 0.85419 0.46635 0.0
N262 N 0.25863 0.71933 0.43507 0.0
N263 N 0.41712 0.80504 0.46378 0.0
H264 H 0.6554 0.30691 0.80859 0.0
H265 H 0.54479 0.03422 0.78239 0.0
H266 H 0.48771 0.17553 0.83799 0.0
H267 H 0.68723 0.16045 0.74005 0.0
H268 H 0.53219 0.08736 0.80768 0.0
H269 H 0.67659 0.25555 0.78821 0.0
C270 C 0.62342 0.26731 0.81104 0.0
C271 C 0.56959 0.24544 0.82497 0.0
C272 C 0.5664 0.10346 0.79294 0.0
C273 C 0.5933 0.18637 0.80146 0.0
C274 C 0.57391 0.07326 0.77863 0.0
C275 C 0.61698 0.09295 0.75904 0.0
C276 C 0.60254 0.15383 0.78775 0.0
C277 C 0.65299 0.14366 0.75478 0.0
C278 C 0.63532 0.23798 0.79923 0.0
C279 C 0.52938 0.19383 0.82719 0.0
N280 N 0.64492 0.17232 0.76899 0.0
N281 N 0.542 0.16603 0.81552 0.0
H282 H 0.70211 0.81517 0.48166 0.0
H283 H 0.54976 0.6012 0.58223 0.0
H284 H 0.60066 0.80388 0.5473 0.0
H285 H 0.68105 0.6294 0.52643 0.0
H286 H 0.55607 0.66811 0.56555 0.0
H287 H 0.68262 0.7397 0.49365 0.0
C288 C 0.67515 0.79647 0.49843 0.0
C289 C 0.6533 0.81594 0.51363 0.0
C290 C 0.58328 0.65952 0.55686 0.0
C291 C 0.63113 0.72991 0.52749 0.0
C292 C 0.5799 0.62144 0.56644 0.0
C293 C 0.61556 0.61007 0.55594 0.0
C294 C 0.6225 0.68648 0.53655 0.0
C295 C 0.65257 0.63674 0.53505 0.0
C296 C 0.66436 0.75361 0.50534 0.0
C297 C 0.6191 0.79051 0.53527 0.0
N298 N 0.65541 0.67395 0.52615 0.0
N299 N 0.6092 0.74889 0.54159 0.0
H300 H 0.71857 0.44131 0.8431 0.0
H301 H 0.08789 0.60682 0.85695 0.0
H302 H 0.84616 0.59978 0.83664 0.0
H303 H 0.9602 0.4481 0.86078 0.0
H304 H 1.00138 0.60447 0.84587 0.0
H305 H 0.8059 0.44248 0.84684 0.0
C306 C 0.7648 0.47646 0.84246 0.0
C307 C 0.77414 0.52052 0.83971 0.0
C308 C 0.99218 0.56992 0.84851 0.0
C309 C 0.87601 0.52216 0.8439 0.0
C310 C 1.04192 0.57122 0.85444 0.0
C311 C 1.03199 0.52743 0.85893 0.0
C312 C 0.93118 0.52449 0.84748 0.0
C313 C 0.9706 0.48264 0.85665 0.0
C314 C 0.81501 0.47706 0.84451 0.0
C315 C 0.83594 0.56471 0.83871 0.0
N316 N 0.92291 0.48237 0.8513 0.0
N317 N 0.88402 0.56439 0.84092 0.0
H318 H 0.20086 0.71323 0.15627 0.0
H319 H 0.56234 0.90889 0.18296 0.0
H320 H 0.3162 0.67342 0.14705 0.0
H321 H 0.45513 0.95233 0.16422 0.0
H322 H 0.47397 0.82267 0.1697 0.0
H323 H 0.29329 0.80074 0.15971 0.0
C324 C 0.24563 0.72286 0.15489 0.0
C325 C 0.25065 0.68575 0.15155 0.0
C326 C 0.47007 0.85113 0.16796 0.0
C327 C 0.35705 0.78627 0.15565 0.0
C328 C 0.52056 0.90031 0.17539 0.0
C329 C 0.51604 0.93767 0.17435 0.0
C330 C 0.41407 0.83902 0.1601 0.0
C331 C 0.46061 0.92463 0.16493 0.0
C332 C 0.29843 0.77293 0.15671 0.0
C333 C 0.31003 0.70067 0.14966 0.0
N334 N 0.41146 0.87627 0.15853 0.0
N335 N 0.36089 0.7497 0.15206 0.0
H336 H 0.49007 0.24676 0.4676 0.0
H337 H 0.69361 0.48033 0.56706 0.0
H338 H 0.67333 0.30955 0.49389 0.0
H339 H 0.54093 0.44633 0.52238 0.0
H340 H 0.68498 0.41595 0.5415 0.0
H341 H 0.50625 0.31831 0.48795 0.0
C342 C 0.53402 0.27581 0.47732 0.0
C343 C 0.58016 0.2717 0.47918 0.0
C344 C 0.6537 0.42285 0.53713 0.0
C345 C 0.59835 0.35326 0.50304 0.0
C346 C 0.65844 0.45938 0.55178 0.0
C347 C 0.61785 0.46852 0.54683 0.0
C348 C 0.60742 0.39473 0.51763 0.0
C349 C 0.5734 0.44064 0.52669 0.0
C350 C 0.54306 0.31655 0.48907 0.0
C351 C 0.63581 0.31037 0.49242 0.0
N352 N 0.56895 0.40464 0.51298 0.0
N353 N 0.64309 0.34921 0.50403 0.0
H354 H 0.50652 0.58784 0.83134 0.0
H355 H 0.16955 0.453 0.88859 0.0
H356 H 0.39992 0.44837 0.86806 0.0
H357 H 0.26428 0.58534 0.84627 0.0
H358 H 0.2524 0.45016 0.87975 0.0
H359 H 0.41982 0.58791 0.83566 0.0
C360 C 0.46506 0.55714 0.8403 0.0
C361 C 0.46137 0.51804 0.84936 0.0
C362 C 0.25508 0.47959 0.87204 0.0
C363 C 0.36072 0.51797 0.8544 0.0
C364 C 0.20725 0.48099 0.87692 0.0
C365 C 0.20892 0.51903 0.86788 0.0
C366 C 0.30654 0.51697 0.8582 0.0
C367 C 0.26004 0.55475 0.85326 0.0
C368 C 0.41528 0.55721 0.84272 0.0
C369 C 0.40573 0.47946 0.86075 0.0
N370 N 0.30676 0.55309 0.84909 0.0
N371 N 0.3583 0.48054 0.86296 0.0
H372 H 0.96895 0.34525 0.12727 0.0
H373 H 0.64586 0.15583 0.1953 0.0
H374 H 0.87459 0.38761 0.16784 0.0
H375 H 0.7313 0.10794 0.15231 0.0
H376 H 0.72435 0.23983 0.18105 0.0
H377 H 0.87909 0.25771 0.13227 0.0
C378 C 0.92924 0.33623 0.13705 0.0
C379 C 0.92978 0.37403 0.14748 0.0
C380 C 0.72573 0.21099 0.17436 0.0
C381 C 0.82677 0.27387 0.15327 0.0
C382 C 0.68063 0.16296 0.18238 0.0
C383 C 0.68211 0.12499 0.1749 0.0
C384 C 0.7736 0.22159 0.15904 0.0
C385 C 0.72835 0.13618 0.15831 0.0
C386 C 0.87794 0.28621 0.13991 0.0
C387 C 0.87687 0.35996 0.15988 0.0
N388 N 0.77282 0.18366 0.1512 0.0
N389 N 0.82794 0.31126 0.16256 0.0
H390 H 1.07425 0.48173 0.07927 0.0
H391 H 0.11574 0.60099 0.94432 0.0
H392 H 1.0857 0.60904 0.07196 0.0
H393 H 0.12402 0.484 0.95327 0.0
H394 H 0.10526 0.60488 0.99092 0.0
H395 H 0.09261 0.48212 0.03321 0.0
C396 C 1.08069 0.50983 0.06794 0.0
C397 C 1.07831 0.54536 0.07941 0.0
C398 C 0.10969 0.57853 0.98274 0.0
C399 C 0.09919 0.54597 0.02657 0.0
C400 C 0.11546 0.57615 0.95611 0.0
C401 C 0.12046 0.54191 0.94481 0.0
C402 C 0.10848 0.54621 -0.00169 0.0
C403 C 0.12074 0.51119 0.96112 0.0
C404 C 0.09129 0.51009 0.04163 0.0
C405 C 0.08705 0.58092 0.06384 0.0
N406 N 0.11439 0.51383 0.98699 0.0
N407 N 0.09687 0.58022 0.0382 0.0
H408 H 0.75133 0.09502 0.38621 0.0
H409 H 0.5201 0.98468 0.26308 0.0
H410 H 0.55392 1.00348 0.3917 0.0
H411 H 0.71834 0.0908 0.25865 0.0
H412 H 0.5312 0.98923 0.3101 0.0
H413 H 0.74002 0.09296 0.33935 0.0
C414 C 0.7056 0.07462 0.37751 0.0
C415 C 0.65345 0.04921 0.39276 0.0
C416 C 0.57227 0.0116 0.29885 0.0
C417 C 0.64003 0.04642 0.33919 0.0
C418 C 0.56598 0.00876 0.272 0.0
C419 C 0.61839 0.03735 0.25691 0.0
C420 C 0.63145 0.04305 0.31073 0.0
C421 C 0.67668 0.06847 0.26954 0.0
C422 C 0.69914 0.07345 0.35078 0.0
C423 C 0.59529 0.02348 0.38058 0.0
N424 N 0.68162 0.07036 0.29568 0.0
N425 N 0.59009 0.02252 0.35447 0.0
H426 H 0.49318 0.46663 0.76113 0.0
H427 H 0.69695 0.53715 0.63838 0.0
H428 H 0.68753 0.54185 0.76861 0.0
H429 H 0.53792 0.5288 0.63786 0.0
H430 H 0.69057 0.53049 0.68543 0.0
H431 H 0.5047 0.48112 0.71495 0.0
C432 C 0.53832 0.48639 0.75301 0.0
C433 C 0.58945 0.50298 0.76854 0.0
C434 C 0.65739 0.53044 0.67498 0.0
C435 C 0.60278 0.51895 0.71587 0.0
C436 C 0.66077 0.5339 0.64822 0.0
C437 C 0.6179 0.53354 0.63435 0.0
C438 C 0.61003 0.52552 0.68777 0.0
C439 C 0.57206 0.52955 0.64793 0.0
C440 C 0.54489 0.49474 0.72673 0.0
C441 C 0.64702 0.52854 0.75719 0.0
N442 N 0.56897 0.52522 0.67387 0.0
N443 N 0.65206 0.53527 0.7314 0.0
H444 H 0.49997 0.97985 0.54101 0.0
H445 H 0.70179 0.11146 0.67022 0.0
H446 H 0.69591 0.10121 0.5395 0.0
H447 H 0.54396 0.95537 0.6645 0.0
H448 H 0.69603 0.11387 0.62313 0.0
H449 H 0.5103 0.97516 0.5874 0.0
C450 C 0.54516 0.00546 0.5505 0.0
C451 C 0.59716 0.04103 0.53658 0.0
C452 C 0.66298 0.07909 0.63222 0.0
C453 C 0.60913 0.03638 0.58946 0.0
C454 C 0.66604 0.07777 0.65899 0.0
C455 C 0.62329 0.03314 0.6711 0.0
C456 C 0.61597 0.03574 0.61764 0.0
C457 C 0.57794 0.9904 0.65579 0.0
C458 C 0.55104 1.00264 0.57687 0.0
C459 C 0.65475 0.07324 0.54966 0.0
N460 N 0.57503 0.99285 0.62985 0.0
N461 N 0.65916 0.07055 0.57551 0.0
H462 H 0.74995 0.55603 0.90879 0.0
H463 H 0.7215 0.47422 0.0309 0.0
H464 H 0.55396 0.47385 0.91274 0.0
H465 H 0.52707 0.36374 0.01255 0.0
H466 H 0.73901 0.50043 0.9869 0.0
H467 H 0.74542 0.51238 0.94521 0.0
C468 C 0.70606 0.52919 0.91765 0.0
C469 C 0.65244 0.51918 0.90822 0.0
C470 C 0.69272 0.46897 0.99184 0.0
C471 C 0.6468 0.46968 0.95033 0.0
C472 C 0.68295 0.45382 0.01705 0.0
C473 C 0.62295 0.41667 0.0251 0.0
C474 C 0.64176 0.44701 0.9747 0.0
C475 C 0.57409 0.39218 0.00684 0.0
C476 C 0.70342 0.50422 0.93852 0.0
C477 C 0.59646 0.48306 0.91976 0.0
N478 N 0.58438 0.40855 0.98258 0.0
N479 N 0.59518 0.45988 0.94037 0.0
H480 H 0.12966 0.58526 0.22236 0.0
H481 H 0.09528 0.45634 0.3527 0.0
H482 H 0.09077 0.44516 0.22408 0.0
H483 H 0.1245 0.5926 0.35086 0.0
H484 H 0.09012 0.45016 0.30556 0.0
H485 H 0.12502 0.58753 0.26944 0.0
C486 C 0.1196 0.55479 0.23267 0.0
C487 C 0.11039 0.5149 0.21942 0.0
C488 C 0.09751 0.48135 0.31546 0.0
C489 C 0.1058 0.51745 0.27318 0.0
C490 C 0.10013 0.48476 0.34239 0.0
C491 C 0.11073 0.52521 0.35577 0.0
C492 C 0.10558 0.51869 0.30177 0.0
C493 C 0.11738 0.56123 0.34136 0.0
C494 C 0.11719 0.55615 0.25953 0.0
C495 C 0.09832 0.47667 0.23365 0.0
N496 N 0.11489 0.5572 0.31517 0.0
N497 N 0.09654 0.47894 0.25978 0.0
loop_
_geom_bond_atom_site_label_1
_geom_bond_atom_site_label_2
_geom_bond_distance
_geom_bond_site_symmetry_2
_ccdc_geom_bond_type
Ho0 C3 2.811 . S
Ho0 O20 2.322 . S
Ho0 O22 2.378 . S
Ho0 O23 2.524 . S
Ho0 O24 2.381 . S
Ho0 O25 2.669 . S
Ho0 O27 2.346 1_455 S
Ho0 O31 2.305 . S
Ho1 C12 2.811 . S
Ho1 O21 2.346 1_655 S
Ho1 O25 2.305 1_655 S
Ho1 O26 2.322 . S
Ho1 O28 2.378 . S
Ho1 O29 2.524 . S
Ho1 O30 2.381 . S
Ho1 O31 2.669 1_655 S
C2 O20 1.259 . S
C2 O21 1.268 . S
C3 Ho0 2.811 . S
C3 C4 1.488 . S
C3 O22 1.215 . S
C3 O23 1.289 . S
C4 C3 1.488 . S
C4 C5 1.348 . S
C4 C9 1.413 . S
C5 C4 1.348 . S
C5 C6 1.442 . S
C5 H32 0.930 . S
C6 C5 1.442 . S
C6 C7 1.381 . S
C6 H33 0.931 . S
C7 C6 1.381 . S
C7 C8 1.321 . S
C8 C7 1.321 . S
C8 C9 1.403 . S
C8 H34 0.934 . S
C9 C4 1.413 . S
C9 C8 1.403 . S
C9 H35 0.930 . S
C10 O24 1.275 . S
C10 O25 1.256 . S
C11 O26 1.259 . S
C11 O27 1.268 . S
C12 Ho1 2.811 . S
C12 C13 1.488 . S
C12 O28 1.215 . S
C12 O29 1.289 . S
C13 C12 1.488 . S
C13 C14 1.348 . S
C13 C18 1.413 . S
C14 C13 1.348 . S
C14 C15 1.442 . S
C14 H36 0.930 . S
C15 C14 1.442 . S
C15 C16 1.381 . S
C15 H37 0.931 . S
C16 C15 1.381 . S
C16 C17 1.321 . S
C17 C16 1.321 . S
C17 C18 1.403 . S
C17 H38 0.934 . S
C18 C13 1.413 . S
C18 C17 1.403 . S
C18 H39 0.930 . S
C19 O30 1.275 1_455 S
C19 O31 1.256 . S
O20 Ho0 2.322 . S
O20 C2 1.259 . S
O21 Ho1 2.346 1_455 S
O21 C2 1.268 . S
O22 Ho0 2.378 . S
O22 C3 1.215 . S
O23 Ho0 2.524 . S
O23 C3 1.289 . S
O24 Ho0 2.381 . S
O24 C10 1.275 . S
O25 Ho0 2.669 . S
O25 Ho1 2.305 1_455 S
O25 C10 1.256 . S
O26 Ho1 2.322 . S
O26 C11 1.259 . S
O27 Ho0 2.346 1_655 S
O27 C11 1.268 . S
O28 Ho1 2.378 . S
O28 C12 1.215 . S
O29 Ho1 2.524 . S
O29 C12 1.289 . S
O30 Ho1 2.381 . S
O30 C19 1.275 1_655 S
O31 Ho0 2.305 . S
O31 Ho1 2.669 1_455 S
O31 C19 1.256 . S
H32 C5 0.930 . S
H33 C6 0.931 . S
H34 C8 0.934 . S
H35 C9 0.930 . S
H36 C14 0.930 . S
H37 C15 0.931 . S
H38 C17 0.934 . S
H39 C18 0.930 . S
Ho40 C43 2.811 . S
Ho40 O60 2.322 . S
Ho40 O62 2.378 . S
Ho40 O63 2.524 . S
Ho40 O64 2.381 . S
Ho40 O65 2.669 1_565 S
Ho40 O67 2.346 1_565 S
Ho40 O71 2.317 . S
Ho41 C52 2.811 . S
Ho41 O61 2.346 1_545 S
Ho41 O65 2.305 . S
Ho41 O66 2.322 . S
Ho41 O68 2.378 . S
Ho41 O69 2.524 . S
Ho41 O70 2.381 . S
Ho41 O71 2.650 1_545 S
C42 O60 1.259 . S
C42 O61 1.268 . S
C43 Ho40 2.811 . S
C43 C44 1.488 . S
C43 O62 1.215 . S
C43 O63 1.289 . S
C44 C43 1.488 . S
C44 C45 1.348 . S
C44 C49 1.413 . S
C45 C44 1.348 . S
C45 C46 1.442 . S
C45 H72 0.930 . S
C46 C45 1.442 . S
C46 C47 1.381 . S
C46 H73 0.931 . S
C47 C46 1.381 . S
C47 C48 1.321 . S
C48 C47 1.321 . S
C48 C49 1.403 . S
C48 H74 0.934 . S
C49 C44 1.413 . S
C49 C48 1.403 . S
C49 H75 0.930 . S
C50 O64 1.275 1_545 S
C50 O65 1.256 . S
C51 O66 1.259 . S
C51 O67 1.268 . S
C52 Ho41 2.811 . S
C52 C53 1.488 . S
C52 O68 1.215 . S
C52 O69 1.289 . S
C53 C52 1.488 . S
C53 C54 1.348 . S
C53 C58 1.413 . S
C54 C53 1.348 . S
C54 C55 1.442 . S
C54 H76 0.930 . S
C55 C54 1.442 . S
C55 C56 1.381 . S
C55 H77 0.931 . S
C56 C55 1.381 . S
C56 C57 1.321 . S
C57 C56 1.321 . S
C57 C58 1.403 . S
C57 H78 0.934 . S
C58 C53 1.413 . S
C58 C57 1.403 . S
C58 H79 0.930 . S
C59 O70 1.275 . S
C59 O71 1.245 1_545 S
O60 Ho40 2.322 . S
O60 C42 1.259 . S
O61 Ho41 2.346 1_565 S
O61 C42 1.268 . S
O62 Ho40 2.378 . S
O62 C43 1.215 . S
O63 Ho40 2.524 . S
O63 C43 1.289 . S
O64 Ho40 2.381 . S
O64 C50 1.275 1_565 S
O65 Ho40 2.669 1_545 S
O65 Ho41 2.305 . S
O65 C50 1.256 . S
O66 Ho41 2.322 . S
O66 C51 1.259 . S
O67 Ho40 2.346 1_545 S
O67 C51 1.268 . S
O68 Ho41 2.378 . S
O68 C52 1.215 . S
O69 Ho41 2.524 . S
O69 C52 1.289 . S
O70 Ho41 2.381 . S
O70 C59 1.275 . S
O71 Ho40 2.317 . S
O71 Ho41 2.650 1_565 S
O71 C59 1.245 1_565 S
H72 C45 0.930 . S
H73 C46 0.931 . S
H74 C48 0.934 . S
H75 C49 0.930 . S
H76 C54 0.930 . S
H77 C55 0.931 . S
H78 C57 0.934 . S
H79 C58 0.930 . S
Ho80 C83 2.811 . S
Ho80 O100 2.322 . S
Ho80 O102 2.378 . S
Ho80 O103 2.524 . S
Ho80 O104 2.381 . S
Ho80 O105 2.669 . S
Ho80 O107 2.346 . S
Ho80 O111 2.305 . S
Ho81 C92 2.811 . S
Ho81 O101 2.346 . S
Ho81 O105 2.305 . S
Ho81 O106 2.322 . S
Ho81 O108 2.378 . S
Ho81 O109 2.524 . S
Ho81 O110 2.381 . S
Ho81 O111 2.669 . S
C82 O100 1.259 . S
C82 O101 1.268 . S
C83 Ho80 2.811 . S
C83 C84 1.488 . S
C83 O102 1.215 . S
C83 O103 1.289 . S
C84 C83 1.488 . S
C84 C85 1.348 . S
C84 C89 1.413 . S
C85 C84 1.348 . S
C85 C86 1.442 . S
C85 H112 0.930 . S
C86 C85 1.442 . S
C86 C87 1.381 . S
C86 H113 0.931 . S
C87 C86 1.381 . S
C87 C88 1.321 . S
C88 C87 1.321 . S
C88 C89 1.403 . S
C88 H114 0.934 . S
C89 C84 1.413 . S
C89 C88 1.403 . S
C89 H115 0.930 . S
C90 O104 1.275 . S
C90 O105 1.256 . S
C91 O106 1.259 . S
C91 O107 1.268 . S
C92 Ho81 2.811 . S
C92 C93 1.488 . S
C92 O108 1.215 . S
C92 O109 1.289 . S
C93 C92 1.488 . S
C93 C94 1.348 . S
C93 C98 1.413 . S
C94 C93 1.348 . S
C94 C95 1.442 . S
C94 H116 0.930 . S
C95 C94 1.442 . S
C95 C96 1.381 . S
C95 H117 0.931 . S
C96 C95 1.381 . S
C96 C97 1.321 . S
C97 C96 1.321 . S
C97 C98 1.403 . S
C97 H118 0.934 . S
C98 C93 1.413 . S
C98 C97 1.403 . S
C98 H119 0.930 . S
C99 O110 1.275 . S
C99 O111 1.256 . S
O100 Ho80 2.322 . S
O100 C82 1.259 . S
O101 Ho81 2.346 . S
O101 C82 1.268 . S
O102 Ho80 2.378 . S
O102 C83 1.215 . S
O103 Ho80 2.524 . S
O103 C83 1.289 . S
O104 Ho80 2.381 . S
O104 C90 1.275 . S
O105 Ho80 2.669 . S
O105 Ho81 2.305 . S
O105 C90 1.256 . S
O106 Ho81 2.322 . S
O106 C91 1.259 . S
O107 Ho80 2.346 . S
O107 C91 1.268 . S
O108 Ho81 2.378 . S
O108 C92 1.215 . S
O109 Ho81 2.524 . S
O109 C92 1.289 . S
O110 Ho81 2.381 . S
O110 C99 1.275 . S
O111 Ho80 2.305 . S
O111 Ho81 2.669 . S
O111 C99 1.256 . S
H112 C85 0.930 . S
H113 C86 0.931 . S
H114 C88 0.934 . S
H115 C89 0.930 . S
H116 C94 0.930 . S
H117 C95 0.931 . S
H118 C97 0.934 . S
H119 C98 0.930 . S
H120 C123 0.931 . S
H121 C126 0.928 . S
H122 C128 0.930 . S
C123 H120 0.931 . S
C123 C124 1.413 . S
C123 C125 1.360 1_565 S
C124 C123 1.413 . S
C124 C128 1.429 1_565 S
C125 C123 1.360 1_545 S
C125 C126 1.372 . S
C126 H121 0.928 . S
C126 C125 1.372 . S
C126 C127 1.404 . S
C127 C126 1.404 . S
C127 C128 1.391 . S
C128 H122 0.930 . S
C128 C124 1.429 1_545 S
C128 C127 1.391 . S
H129 C132 0.931 . S
H130 C135 0.928 . S
H131 C137 0.930 . S
C132 H129 0.931 . S
C132 C133 1.413 . S
C132 C134 1.360 . S
C133 C132 1.413 . S
C133 C137 1.429 . S
C134 C132 1.360 . S
C134 C135 1.372 . S
C135 H130 0.928 . S
C135 C134 1.372 . S
C135 C136 1.404 . S
C136 C135 1.404 . S
C136 C137 1.391 . S
C137 H131 0.930 . S
C137 C133 1.429 . S
C137 C136 1.391 . S
H138 C141 0.931 1_655 S
H139 C144 0.928 . S
H140 C146 0.930 . S
C141 H138 0.931 1_455 S
C141 C142 1.413 . S
C141 C143 1.360 . S
C142 C141 1.413 . S
C142 C146 1.429 . S
C143 C141 1.360 . S
C143 C144 1.372 . S
C144 H139 0.928 . S
C144 C143 1.372 . S
C144 C145 1.404 . S
C145 C144 1.404 . S
C145 C146 1.391 . S
C146 H140 0.930 . S
C146 C142 1.429 . S
C146 C145 1.391 . S
H147 C150 0.931 . S
H148 C153 0.928 . S
H149 C155 0.930 . S
C150 H147 0.931 . S
C150 C151 1.413 . S
C150 C152 1.359 1_655 S
C151 C150 1.413 . S
C151 C155 1.429 1_655 S
C152 C150 1.359 1_455 S
C152 C153 1.372 . S
C153 H148 0.928 . S
C153 C152 1.372 . S
C153 C154 1.404 . S
C154 C153 1.404 . S
C154 C155 1.391 . S
C155 H149 0.930 . S
C155 C151 1.429 1_455 S
C155 C154 1.391 . S
H156 C159 0.931 . S
H157 C162 0.928 . S
H158 C164 0.930 . S
C159 H156 0.931 . S
C159 C160 1.413 . S
C159 C161 1.332 1_545 S
C160 C159 1.413 . S
C160 C164 1.429 . S
C161 C159 1.332 1_565 S
C161 C162 1.400 . S
C162 H157 0.928 . S
C162 C161 1.400 . S
C162 C163 1.404 . S
C163 C162 1.404 . S
C163 C164 1.391 1_565 S
C164 H158 0.930 . S
C164 C160 1.429 . S
C164 C163 1.391 1_545 S
H165 C168 0.931 . S
H166 C171 0.928 . S
H167 C173 0.930 . S
C168 H165 0.931 . S
C168 C169 1.413 . S
C168 C170 1.360 . S
C169 C168 1.413 . S
C169 C173 1.429 . S
C170 C168 1.360 . S
C170 C171 1.372 . S
C171 H166 0.928 . S
C171 C170 1.372 . S
C171 C172 1.404 . S
C172 C171 1.404 . S
C172 C173 1.391 . S
C173 H167 0.930 . S
C173 C169 1.429 . S
C173 C172 1.391 . S
H174 C180 0.930 . S
H175 C184 0.930 . S
H176 C189 0.929 . S
H177 C187 0.929 . S
H178 C182 0.929 . S
H179 C188 0.929 . S
C180 H174 0.930 . S
C180 C181 1.367 . S
C180 C188 1.378 . S
C181 C180 1.367 . S
C181 C189 1.433 . S
C182 H178 0.929 . S
C182 C184 1.378 . S
C182 C186 1.350 . S
C183 C186 1.463 . S
C183 C188 1.350 . S
C183 N191 1.427 . S
C184 H175 0.930 . S
C184 C182 1.378 . S
C184 C185 1.367 . S
C185 C184 1.367 . S
C185 C187 1.433 . S
C186 C182 1.350 . S
C186 C183 1.463 . S
C186 N190 1.427 . S
C187 H177 0.929 . S
C187 C185 1.433 . S
C187 N190 1.384 . S
C188 H179 0.929 . S
C188 C180 1.378 . S
C188 C183 1.350 . S
C189 H176 0.929 . S
C189 C181 1.433 . S
C189 N191 1.384 . S
N190 C186 1.427 . S
N190 C187 1.384 . S
N191 C183 1.427 . S
N191 C189 1.384 . S
H192 C198 0.930 . S
H193 C202 0.930 . S
H194 C207 0.929 . S
H195 C205 0.929 . S
H196 C200 0.929 . S
H197 C206 0.929 . S
C198 H192 0.930 . S
C198 C199 1.367 . S
C198 C206 1.378 . S
C199 C198 1.367 . S
C199 C207 1.433 . S
C200 H196 0.929 . S
C200 C202 1.378 . S
C200 C204 1.350 . S
C201 C204 1.463 . S
C201 C206 1.350 . S
C201 N209 1.427 . S
C202 H193 0.930 . S
C202 C200 1.378 . S
C202 C203 1.367 . S
C203 C202 1.367 . S
C203 C205 1.433 . S
C204 C200 1.350 . S
C204 C201 1.463 . S
C204 N208 1.427 . S
C205 H195 0.929 . S
C205 C203 1.433 . S
C205 N208 1.384 . S
C206 H197 0.929 . S
C206 C198 1.378 . S
C206 C201 1.350 . S
C207 H194 0.929 . S
C207 C199 1.433 . S
C207 N209 1.384 . S
N208 C204 1.427 . S
N208 C205 1.384 . S
N209 C201 1.427 . S
N209 C207 1.384 . S
H210 C216 0.930 . S
H211 C220 0.930 . S
H212 C225 0.929 . S
H213 C223 0.929 . S
H214 C218 0.929 . S
H215 C224 0.929 . S
C216 H210 0.930 . S
C216 C217 1.367 . S
C216 C224 1.378 . S
C217 C216 1.367 . S
C217 C225 1.433 . S
C218 H214 0.929 . S
C218 C220 1.378 . S
C218 C222 1.350 . S
C219 C222 1.463 . S
C219 C224 1.350 . S
C219 N227 1.427 . S
C220 H211 0.930 . S
C220 C218 1.378 . S
C220 C221 1.367 . S
C221 C220 1.367 . S
C221 C223 1.433 . S
C222 C218 1.350 . S
C222 C219 1.463 . S
C222 N226 1.427 . S
C223 H213 0.929 . S
C223 C221 1.433 . S
C223 N226 1.384 . S
C224 H215 0.929 . S
C224 C216 1.378 . S
C224 C219 1.350 . S
C225 H212 0.929 . S
C225 C217 1.433 . S
C225 N227 1.384 . S
N226 C222 1.427 . S
N226 C223 1.384 . S
N227 C219 1.427 . S
N227 C225 1.384 . S
H228 C234 0.930 . S
H229 C238 0.930 . S
H230 C243 0.929 . S
H231 C241 0.929 . S
H232 C236 0.929 . S
H233 C242 0.929 . S
C234 H228 0.930 . S
C234 C235 1.367 . S
C234 C242 1.378 . S
C235 C234 1.367 . S
C235 C243 1.433 . S
C236 H232 0.929 . S
C236 C238 1.378 . S
C236 C240 1.350 . S
C237 C240 1.463 . S
C237 C242 1.350 . S
C237 N245 1.427 . S
C238 H229 0.930 . S
C238 C236 1.378 . S
C238 C239 1.367 . S
C239 C238 1.367 . S
C239 C241 1.433 . S
C240 C236 1.350 . S
C240 C237 1.463 . S
C240 N244 1.427 . S
C241 H231 0.929 . S
C241 C239 1.433 . S
C241 N244 1.384 . S
C242 H233 0.929 . S
C242 C234 1.378 . S
C242 C237 1.350 . S
C243 H230 0.929 . S
C243 C235 1.433 . S
C243 N245 1.384 . S
N244 C240 1.427 . S
N244 C241 1.384 . S
N245 C237 1.427 . S
N245 C243 1.384 . S
H246 C252 0.930 . S
H247 C256 0.930 . S
H248 C261 0.929 . S
H249 C259 0.929 . S
H250 C254 0.929 . S
H251 C260 0.929 . S
C252 H246 0.930 . S
C252 C253 1.367 . S
C252 C260 1.378 . S
C253 C252 1.367 . S
C253 C261 1.433 . S
C254 H250 0.929 . S
C254 C256 1.378 . S
C254 C258 1.350 . S
C255 C258 1.463 . S
C255 C260 1.350 . S
C255 N263 1.427 . S
C256 H247 0.930 . S
C256 C254 1.378 . S
C256 C257 1.367 . S
C257 C256 1.367 . S
C257 C259 1.433 . S
C258 C254 1.350 . S
C258 C255 1.463 . S
C258 N262 1.427 . S
C259 H249 0.929 . S
C259 C257 1.433 . S
C259 N262 1.384 . S
C260 H251 0.929 . S
C260 C252 1.378 . S
C260 C255 1.350 . S
C261 H248 0.929 . S
C261 C253 1.433 . S
C261 N263 1.384 . S
N262 C258 1.427 . S
N262 C259 1.384 . S
N263 C255 1.427 . S
N263 C261 1.384 . S
H264 C270 0.930 . S
H265 C274 0.930 . S
H266 C279 0.929 . S
H267 C277 0.929 . S
H268 C272 0.929 . S
H269 C278 0.929 . S
C270 H264 0.930 . S
C270 C271 1.367 . S
C270 C278 1.378 . S
C271 C270 1.367 . S
C271 C279 1.433 . S
C272 H268 0.929 . S
C272 C274 1.378 . S
C272 C276 1.350 . S
C273 C276 1.463 . S
C273 C278 1.350 . S
C273 N281 1.427 . S
C274 H265 0.930 . S
C274 C272 1.378 . S
C274 C275 1.367 . S
C275 C274 1.367 . S
C275 C277 1.433 . S
C276 C272 1.350 . S
C276 C273 1.463 . S
C276 N280 1.427 . S
C277 H267 0.929 . S
C277 C275 1.433 . S
C277 N280 1.384 . S
C278 H269 0.929 . S
C278 C270 1.378 . S
C278 C273 1.350 . S
C279 H266 0.929 . S
C279 C271 1.433 . S
C279 N281 1.384 . S
N280 C276 1.427 . S
N280 C277 1.384 . S
N281 C273 1.427 . S
N281 C279 1.384 . S
H282 C288 0.930 . S
H283 C292 0.930 . S
H284 C297 0.929 . S
H285 C295 0.929 . S
H286 C290 0.929 . S
H287 C296 0.929 . S
C288 H282 0.930 . S
C288 C289 1.367 . S
C288 C296 1.378 . S
C289 C288 1.367 . S
C289 C297 1.433 . S
C290 H286 0.929 . S
C290 C292 1.378 . S
C290 C294 1.350 . S
C291 C294 1.463 . S
C291 C296 1.350 . S
C291 N299 1.427 . S
C292 H283 0.930 . S
C292 C290 1.378 . S
C292 C293 1.367 . S
C293 C292 1.367 . S
C293 C295 1.433 . S
C294 C290 1.350 . S
C294 C291 1.463 . S
C294 N298 1.427 . S
C295 H285 0.929 . S
C295 C293 1.433 . S
C295 N298 1.384 . S
C296 H287 0.929 . S
C296 C288 1.378 . S
C296 C291 1.350 . S
C297 H284 0.929 . S
C297 C289 1.433 . S
C297 N299 1.384 . S
N298 C294 1.427 . S
N298 C295 1.384 . S
N299 C291 1.427 . S
N299 C297 1.384 . S
H300 C306 0.930 . S
H301 C310 0.930 . S
H302 C315 0.929 . S
H303 C313 0.929 . S
H304 C308 0.929 . S
H305 C314 0.929 . S
C306 H300 0.930 . S
C306 C307 1.367 . S
C306 C314 1.378 . S
C307 C306 1.367 . S
C307 C315 1.433 . S
C308 H304 0.929 . S
C308 C310 1.378 . S
C308 C312 1.350 . S
C309 C312 1.463 . S
C309 C314 1.350 . S
C309 N317 1.427 . S
C310 H301 0.930 . S
C310 C308 1.378 . S
C310 C311 1.367 . S
C311 C310 1.367 . S
C311 C313 1.433 . S
C312 C308 1.350 . S
C312 C309 1.463 . S
C312 N316 1.427 . S
C313 H303 0.929 . S
C313 C311 1.433 . S
C313 N316 1.384 . S
C314 H305 0.929 . S
C314 C306 1.378 . S
C314 C309 1.350 . S
C315 H302 0.929 . S
C315 C307 1.433 . S
C315 N317 1.384 . S
N316 C312 1.427 . S
N316 C313 1.384 . S
N317 C309 1.427 . S
N317 C315 1.384 . S
H318 C324 0.930 . S
H319 C328 0.930 . S
H320 C333 0.929 . S
H321 C331 0.929 . S
H322 C326 0.929 . S
H323 C332 0.929 . S
C324 H318 0.930 . S
C324 C325 1.367 . S
C324 C332 1.378 . S
C325 C324 1.367 . S
C325 C333 1.433 . S
C326 H322 0.929 . S
C326 C328 1.378 . S
C326 C330 1.350 . S
C327 C330 1.463 . S
C327 C332 1.350 . S
C327 N335 1.427 . S
C328 H319 0.930 . S
C328 C326 1.378 . S
C328 C329 1.367 . S
C329 C328 1.367 . S
C329 C331 1.433 . S
C330 C326 1.350 . S
C330 C327 1.463 . S
C330 N334 1.427 . S
C331 H321 0.929 . S
C331 C329 1.433 . S
C331 N334 1.384 . S
C332 H323 0.929 . S
C332 C324 1.378 . S
C332 C327 1.350 . S
C333 H320 0.929 . S
C333 C325 1.433 . S
C333 N335 1.384 . S
N334 C330 1.427 . S
N334 C331 1.384 . S
N335 C327 1.427 . S
N335 C333 1.384 . S
H336 C342 0.930 . S
H337 C346 0.930 . S
H338 C351 0.929 . S
H339 C349 0.929 . S
H340 C344 0.929 . S
H341 C350 0.929 . S
C342 H336 0.930 . S
C342 C343 1.367 . S
C342 C350 1.378 . S
C343 C342 1.367 . S
C343 C351 1.433 . S
C344 H340 0.929 . S
C344 C346 1.378 . S
C344 C348 1.350 . S
C345 C348 1.463 . S
C345 C350 1.350 . S
C345 N353 1.427 . S
C346 H337 0.930 . S
C346 C344 1.378 . S
C346 C347 1.367 . S
C347 C346 1.367 . S
C347 C349 1.433 . S
C348 C344 1.350 . S
C348 C345 1.463 . S
C348 N352 1.427 . S
C349 H339 0.929 . S
C349 C347 1.433 . S
C349 N352 1.384 . S
C350 H341 0.929 . S
C350 C342 1.378 . S
C350 C345 1.350 . S
C351 H338 0.929 . S
C351 C343 1.433 . S
C351 N353 1.384 . S
N352 C348 1.427 . S
N352 C349 1.384 . S
N353 C345 1.427 . S
N353 C351 1.384 . S
H354 C360 0.930 . S
H355 C364 0.930 . S
H356 C369 0.929 . S
H357 C367 0.929 . S
H358 C362 0.929 . S
H359 C368 0.929 . S
C360 H354 0.930 . S
C360 C361 1.367 . S
C360 C368 1.378 . S
C361 C360 1.367 . S
C361 C369 1.433 . S
C362 H358 0.929 . S
C362 C364 1.378 . S
C362 C366 1.350 . S
C363 C366 1.463 . S
C363 C368 1.350 . S
C363 N371 1.427 . S
C364 H355 0.930 . S
C364 C362 1.378 . S
C364 C365 1.367 . S
C365 C364 1.367 . S
C365 C367 1.433 . S
C366 C362 1.350 . S
C366 C363 1.463 . S
C366 N370 1.427 . S
C367 H357 0.929 . S
C367 C365 1.433 . S
C367 N370 1.384 . S
C368 H359 0.929 . S
C368 C360 1.378 . S
C368 C363 1.350 . S
C369 H356 0.929 . S
C369 C361 1.433 . S
C369 N371 1.384 . S
N370 C366 1.427 . S
N370 C367 1.384 . S
N371 C363 1.427 . S
N371 C369 1.384 . S
H372 C378 0.930 . S
H373 C382 0.930 . S
H374 C387 0.929 . S
H375 C385 0.929 . S
H376 C380 0.929 . S
H377 C386 0.929 . S
C378 H372 0.930 . S
C378 C379 1.367 . S
C378 C386 1.378 . S
C379 C378 1.367 . S
C379 C387 1.433 . S
C380 H376 0.929 . S
C380 C382 1.378 . S
C380 C384 1.350 . S
C381 C384 1.463 . S
C381 C386 1.350 . S
C381 N389 1.427 . S
C382 H373 0.930 . S
C382 C380 1.378 . S
C382 C383 1.367 . S
C383 C382 1.367 . S
C383 C385 1.433 . S
C384 C380 1.350 . S
C384 C381 1.463 . S
C384 N388 1.427 . S
C385 H375 0.929 . S
C385 C383 1.433 . S
C385 N388 1.384 . S
C386 H377 0.929 . S
C386 C378 1.378 . S
C386 C381 1.350 . S
C387 H374 0.929 . S
C387 C379 1.433 . S
C387 N389 1.384 . S
N388 C384 1.427 . S
N388 C385 1.384 . S
N389 C381 1.427 . S
N389 C387 1.384 . S
H390 C396 0.930 . S
H391 C400 0.930 . S
H392 C405 0.929 . S
H393 C403 0.929 . S
H394 C398 0.929 1_554 S
H395 C404 0.929 . S
C396 H390 0.930 . S
C396 C397 1.367 1_655 S
C396 C404 1.378 . S
C397 C396 1.367 1_455 S
C397 C405 1.433 . S
C398 H394 0.929 1_556 S
C398 C400 1.378 . S
C398 C402 1.350 1_556 S
C399 C402 1.463 . S
C399 C404 1.350 1_455 S
C399 N407 1.427 . S
C400 H391 0.930 . S
C400 C398 1.378 . S
C400 C401 1.367 . S
C401 C400 1.367 . S
C401 C403 1.433 1_455 S
C402 C398 1.350 1_554 S
C402 C399 1.463 . S
C402 N406 1.427 1_454 S
C403 H393 0.929 . S
C403 C401 1.433 1_655 S
C403 N406 1.384 . S
C404 H395 0.929 . S
C404 C396 1.378 . S
C404 C399 1.350 1_655 S
C405 H392 0.929 . S
C405 C397 1.433 . S
C405 N407 1.384 . S
N406 C402 1.427 1_656 S
N406 C403 1.384 . S
N407 C399 1.427 . S
N407 C405 1.384 . S
H408 C414 0.930 . S
H409 C418 0.930 . S
H410 C423 0.929 . S
H411 C421 0.929 . S
H412 C416 0.929 . S
H413 C422 0.929 . S
C414 H408 0.930 . S
C414 C415 1.367 . S
C414 C422 1.378 . S
C415 C414 1.367 . S
C415 C423 1.433 1_545 S
C416 H412 0.929 . S
C416 C418 1.378 . S
C416 C420 1.350 1_565 S
C417 C420 1.463 . S
C417 C422 1.350 . S
C417 N425 1.427 1_545 S
C418 H409 0.930 . S
C418 C416 1.378 . S
C418 C419 1.367 1_565 S
C419 C418 1.367 1_545 S
C419 C421 1.433 . S
C420 C416 1.350 1_545 S
C420 C417 1.463 . S
C420 N424 1.427 . S
C421 H411 0.929 . S
C421 C419 1.433 . S
C421 N424 1.384 . S
C422 H413 0.929 . S
C422 C414 1.378 . S
C422 C417 1.350 . S
C423 H410 0.929 . S
C423 C415 1.433 1_565 S
C423 N425 1.384 . S
N424 C420 1.427 . S
N424 C421 1.384 . S
N425 C417 1.427 1_565 S
N425 C423 1.384 . S
H426 C432 0.930 . S
H427 C436 0.930 . S
H428 C441 0.929 . S
H429 C439 0.929 . S
H430 C434 0.929 . S
H431 C440 0.929 . S
C432 H426 0.930 . S
C432 C433 1.367 . S
C432 C440 1.378 . S
C433 C432 1.367 . S
C433 C441 1.433 . S
C434 H430 0.929 . S
C434 C436 1.378 . S
C434 C438 1.350 . S
C435 C438 1.463 . S
C435 C440 1.350 . S
C435 N443 1.427 . S
C436 H427 0.930 . S
C436 C434 1.378 . S
C436 C437 1.367 . S
C437 C436 1.367 . S
C437 C439 1.433 . S
C438 C434 1.350 . S
C438 C435 1.463 . S
C438 N442 1.427 . S
C439 H429 0.929 . S
C439 C437 1.433 . S
C439 N442 1.384 . S
C440 H431 0.929 . S
C440 C432 1.378 . S
C440 C435 1.350 . S
C441 H428 0.929 . S
C441 C433 1.433 . S
C441 N443 1.384 . S
N442 C438 1.427 . S
N442 C439 1.384 . S
N443 C435 1.427 . S
N443 C441 1.384 . S
H444 C450 0.930 . S
H445 C454 0.930 . S
H446 C459 0.929 . S
H447 C457 0.929 . S
H448 C452 0.929 . S
H449 C458 0.929 . S
C450 H444 0.930 . S
C450 C451 1.367 1_565 S
C450 C458 1.378 . S
C451 C450 1.367 1_545 S
C451 C459 1.433 . S
C452 H448 0.929 . S
C452 C454 1.378 . S
C452 C456 1.350 . S
C453 C456 1.463 . S
C453 C458 1.350 1_545 S
C453 N461 1.427 . S
C454 H445 0.930 . S
C454 C452 1.378 . S
C454 C455 1.368 1_545 S
C455 C454 1.368 1_565 S
C455 C457 1.432 . S
C456 C452 1.350 . S
C456 C453 1.463 . S
C456 N460 1.427 1_545 S
C457 H447 0.929 . S
C457 C455 1.432 . S
C457 N460 1.384 . S
C458 H449 0.929 . S
C458 C450 1.378 . S
C458 C453 1.350 1_565 S
C459 H446 0.929 . S
C459 C451 1.433 . S
C459 N461 1.384 . S
N460 C456 1.427 1_565 S
N460 C457 1.384 . S
N461 C453 1.427 . S
N461 C459 1.384 . S
H462 C468 0.930 . S
H463 C472 0.930 . S
H464 C477 0.929 . S
H465 C475 0.929 . S
H466 C470 0.929 . S
H467 C476 0.929 . S
C468 H462 0.930 . S
C468 C469 1.367 . S
C468 C476 1.378 . S
C469 C468 1.367 . S
C469 C477 1.433 . S
C470 H466 0.929 . S
C470 C472 1.378 1_556 S
C470 C474 1.350 . S
C471 C474 1.463 . S
C471 C476 1.350 . S
C471 N479 1.427 . S
C472 H463 0.930 . S
C472 C470 1.378 1_554 S
C472 C473 1.367 . S
C473 C472 1.367 . S
C473 C475 1.433 . S
C474 C470 1.350 . S
C474 C471 1.463 . S
C474 N478 1.427 . S
C475 H465 0.929 . S
C475 C473 1.433 . S
C475 N478 1.384 1_554 S
C476 H467 0.929 . S
C476 C468 1.378 . S
C476 C471 1.350 . S
C477 H464 0.929 . S
C477 C469 1.433 . S
C477 N479 1.384 . S
N478 C474 1.427 . S
N478 C475 1.384 1_556 S
N479 C471 1.427 . S
N479 C477 1.384 . S
H480 C486 0.930 . S
H481 C490 0.930 . S
H482 C495 0.929 . S
H483 C493 0.929 . S
H484 C488 0.929 . S
H485 C494 0.929 . S
C486 H480 0.930 . S
C486 C487 1.367 1_655 S
C486 C494 1.378 . S
C487 C486 1.367 1_455 S
C487 C495 1.433 . S
C488 H484 0.929 . S
C488 C490 1.378 . S
C488 C492 1.350 . S
C489 C492 1.463 . S
C489 C494 1.350 1_455 S
C489 N497 1.427 . S
C490 H481 0.930 . S
C490 C488 1.378 . S
C490 C491 1.367 . S
C491 C490 1.367 . S
C491 C493 1.433 1_455 S
C492 C488 1.350 . S
C492 C489 1.463 . S
C492 N496 1.427 1_455 S
C493 H483 0.929 . S
C493 C491 1.433 1_655 S
C493 N496 1.384 . S
C494 H485 0.929 . S
C494 C486 1.378 . S
C494 C489 1.350 1_655 S
C495 H482 0.929 . S
C495 C487 1.433 . S
C495 N497 1.384 . S
N496 C492 1.427 1_655 S
N496 C493 1.384 . S
N497 C489 1.427 . S
N497 C495 1.384 . S
C181 C7 0.716 . S
C185 C169 0.723 . S
C199 C51 1.826 . S
C203 C151 1.803 . S
C217 C87 1.323 . S
C221 C163 1.369 . S
C235 C16 0.614 . S
C239 C172 0.543 . S
C257 C154 1.831 . S
C253 C42 1.845 . S
C275 C160 1.397 . S
C271 C96 1.353 . S
C289 C47 1.285 . S
C293 C133 1.316 . S
C307 C91 3.000 . S
C311 C142 2.968 1_655 S
C325 C2 1.877 . S
C329 C124 1.900 . S
C347 C136 1.389 . S
C343 C56 1.343 . S
C365 C145 2.901 . S
C361 C82 2.899 . S
C379 C11 1.811 . S
C383 C127 1.800 . S
C401 C143 1.792 . S
C397 C19 1.728 . S
C415 C50 1.323 . S
C419 C125 1.366 . S
C433 C99 1.451 . S
C437 C134 1.507 . S
C455 C161 1.478 . S
C451 C59 1.446 . S
C473 C170 1.053 . S
C469 C90 1.048 . S
C487 C10 1.325 . S
C491 C152 1.350 . S
