# Generated by pormake.
# Topology pyr, (3,6)-cn, num edge types: 1
# Building blocks:
#     Node 0, Type 0, BuildingBlock: BELTOD_clean_linker_0, # of connection points: 3
#     Node 1, Type 0, BuildingBlock: BELTOD_clean_linker_0, # of connection points: 3
#     Node 2, Type 0, BuildingBlock: BELTOD_clean_linker_0, # of connection points: 3
#     Node 3, Type 0, BuildingBlock: BELTOD_clean_linker_0, # of connection points: 3
#     Node 4, Type 0, BuildingBlock: BELTOD_clean_linker_0, # of connection points: 3
#     Node 5, Type 0, BuildingBlock: BELTOD_clean_linker_0, # of connection points: 3
#     Node 6, Type 0, BuildingBlock: BELTOD_clean_linker_0, # of connection points: 3
#     Node 7, Type 0, BuildingBlock: BELTOD_clean_linker_0, # of connection points: 3
#     Node 8, Type 1, BuildingBlock: JUFBIX_clean_sbu_0, # of connection points: 6
#     Node 9, Type 1, BuildingBlock: JUFBIX_clean_sbu_0, # of connection points: 6
#     Node 10, Type 1, BuildingBlock: JUFBIX_clean_sbu_0, # of connection points: 6
#     Node 11, Type 1, BuildingBlock: JUFBIX_clean_sbu_0, # of connection points: 6
#     Edge 12, Type (0, 1), BuildingBlock: XUDNAN_clean_linker_2, # of connection points: 2
#     Edge 13, Type (0, 1), BuildingBlock: XUDNAN_clean_linker_2, # of connection points: 2
#     Edge 14, Type (0, 1), BuildingBlock: XUDNAN_clean_linker_2, # of connection points: 2
#     Edge 15, Type (0, 1), BuildingBlock: XUDNAN_clean_linker_2, # of connection points: 2
#     Edge 16, Type (0, 1), BuildingBlock: XUDNAN_clean_linker_2, # of connection points: 2
#     Edge 17, Type (0, 1), BuildingBlock: XUDNAN_clean_linker_2, # of connection points: 2
#     Edge 18, Type (0, 1), BuildingBlock: XUDNAN_clean_linker_2, # of connection points: 2
#     Edge 19, Type (0, 1), BuildingBlock: XUDNAN_clean_linker_2, # of connection points: 2
#     Edge 20, Type (0, 1), BuildingBlock: XUDNAN_clean_linker_2, # of connection points: 2
#     Edge 21, Type (0, 1), BuildingBlock: XUDNAN_clean_linker_2, # of connection points: 2
#     Edge 22, Type (0, 1), BuildingBlock: XUDNAN_clean_linker_2, # of connection points: 2
#     Edge 23, Type (0, 1), BuildingBlock: XUDNAN_clean_linker_2, # of connection points: 2
#     Edge 24, Type (0, 1), BuildingBlock: XUDNAN_clean_linker_2, # of connection points: 2
#     Edge 25, Type (0, 1), BuildingBlock: XUDNAN_clean_linker_2, # of connection points: 2
#     Edge 26, Type (0, 1), BuildingBlock: XUDNAN_clean_linker_2, # of connection points: 2
#     Edge 27, Type (0, 1), BuildingBlock: XUDNAN_clean_linker_2, # of connection points: 2
#     Edge 28, Type (0, 1), BuildingBlock: XUDNAN_clean_linker_2, # of connection points: 2
#     Edge 29, Type (0, 1), BuildingBlock: XUDNAN_clean_linker_2, # of connection points: 2
#     Edge 30, Type (0, 1), BuildingBlock: XUDNAN_clean_linker_2, # of connection points: 2
#     Edge 31, Type (0, 1), BuildingBlock: XUDNAN_clean_linker_2, # of connection points: 2
#     Edge 32, Type (0, 1), BuildingBlock: XUDNAN_clean_linker_2, # of connection points: 2
#     Edge 33, Type (0, 1), BuildingBlock: XUDNAN_clean_linker_2, # of connection points: 2
#     Edge 34, Type (0, 1), BuildingBlock: XUDNAN_clean_linker_2, # of connection points: 2
#     Edge 35, Type (0, 1), BuildingBlock: XUDNAN_clean_linker_2, # of connection points: 2
# Relax obj value: 0.052
# Max RMSD: 0.092
# Mean RMSD: 0.040
data_MOF--net-pyr--node1-JUFBIX_clean_sbu_0--node2-BELTOD_clean_linker_0--edge1-XUDNAN_clean_linker_2
_symmetry_space_group_name_H-M    P1
_symmetry_Int_Tables_number       1
_symmetry_cell_setting            triclinic
loop_
_symmetry_equiv_pos_as_xyz
'x, y, z'
_cell_length_a     42.843498
_cell_length_b     40.88697
_cell_length_c     42.529073
_cell_angle_alpha  85.41638
_cell_angle_beta   90.617566
_cell_angle_gamma 91.596313
loop_
_atom_site_label
_atom_site_type_symbol
_atom_site_fract_x
_atom_site_fract_y
_atom_site_fract_z
_atom_type_partial_charge
P0 P 0.20504 0.18121 0.18639 0.0
H1 H 0.24973 0.20062 0.13574 0.0
H2 H 0.29155 0.17125 0.11193 0.0
H3 H 0.25979 0.08128 0.1629 0.0
H4 H 0.21781 0.11045 0.18605 0.0
H5 H 0.16444 0.22976 0.20847 0.0
H6 H 0.13204 0.27227 0.18256 0.0
H7 H 0.16073 0.2449 0.0916 0.0
H8 H 0.19276 0.20134 0.11782 0.0
H9 H 0.22073 0.14231 0.24535 0.0
H10 H 0.13731 0.16466 0.19142 0.0
O11 O 0.22987 0.20268 0.20777 0.0
H12 H 0.18933 0.1129 0.28682 0.0
H13 H 0.10563 0.13712 0.23323 0.0
C14 C 0.23002 0.15783 0.1624 0.0
C15 C 0.25095 0.17432 0.14086 0.0
C16 C 0.27502 0.1575 0.12729 0.0
C17 C 0.27922 0.12388 0.13554 0.0
C18 C 0.25739 0.10719 0.15608 0.0
C19 C 0.23315 0.12391 0.16928 0.0
C20 C 0.18094 0.21199 0.16527 0.0
C21 C 0.16375 0.23266 0.18293 0.0
C22 C 0.14528 0.25711 0.16807 0.0
C23 C 0.14382 0.26208 0.13499 0.0
C24 C 0.16158 0.24188 0.11712 0.0
C25 C 0.1798 0.21685 0.13214 0.0
C26 C 0.18154 0.15596 0.21515 0.0
C27 C 0.19561 0.14085 0.24237 0.0
C28 C 0.17747 0.12431 0.26637 0.0
C29 C 0.1446 0.12254 0.26395 0.0
C30 C 0.13074 0.13723 0.23618 0.0
C31 C 0.14894 0.15338 0.21207 0.0
P32 P 0.44589 0.89908 0.59497 0.0
H33 H 0.50266 0.92906 0.62072 0.0
H34 H 0.51534 0.94843 0.67226 0.0
H35 H 0.42251 0.9187 0.70441 0.0
H36 H 0.4111 0.89744 0.65373 0.0
H37 H 0.48829 0.84879 0.57751 0.0
H38 H 0.48388 0.78902 0.58026 0.0
H39 H 0.39337 0.79243 0.62375 0.0
H40 H 0.3976 0.85239 0.61987 0.0
H41 H 0.4045 0.95037 0.61481 0.0
H42 H 0.40668 0.8829 0.54199 0.0
O43 O 0.47342 0.91202 0.56906 0.0
H44 H 0.35156 0.96442 0.59968 0.0
H45 H 0.35453 0.89906 0.52461 0.0
C46 C 0.45571 0.91243 0.63323 0.0
C47 C 0.48517 0.92655 0.639 0.0
C48 C 0.49229 0.93788 0.66848 0.0
C49 C 0.46991 0.93554 0.69264 0.0
C50 C 0.44064 0.92056 0.68678 0.0
C51 C 0.43387 0.90863 0.65758 0.0
C52 C 0.44315 0.85497 0.59817 0.0
C53 C 0.46751 0.83668 0.58761 0.0
C54 C 0.46503 0.80244 0.58948 0.0
C55 C 0.43825 0.78585 0.6023 0.0
C56 C 0.41412 0.80439 0.61339 0.0
C57 C 0.4166 0.83866 0.61139 0.0
C58 C 0.40902 0.91443 0.58044 0.0
C59 C 0.39368 0.93864 0.59541 0.0
C60 C 0.3634 0.94719 0.58624 0.0
C61 C 0.34826 0.93246 0.5612 0.0
C62 C 0.36487 0.9101 0.54469 0.0
C63 C 0.39487 0.90105 0.55438 0.0
P64 P 0.70511 0.33155 0.84201 0.0
H65 H 0.7416 0.31986 0.9005 0.0
H66 H 0.78576 0.34995 0.92263 0.0
H67 H 0.77451 0.4285 0.8497 0.0
H68 H 0.73027 0.39853 0.8279 0.0
H69 H 0.68248 0.26505 0.83349 0.0
H70 H 0.65452 0.2234 0.86734 0.0
H71 H 0.64959 0.29141 0.93978 0.0
H72 H 0.67827 0.33294 0.90568 0.0
H73 H 0.71141 0.35956 0.77697 0.0
H74 H 0.64108 0.35477 0.84901 0.0
O75 O 0.72748 0.31026 0.81958 0.0
H76 H 0.67481 0.38575 0.73915 0.0
H77 H 0.60432 0.38156 0.8114 0.0
C78 C 0.73196 0.35722 0.86296 0.0
C79 C 0.74786 0.34409 0.88994 0.0
C80 C 0.77325 0.36127 0.90253 0.0
C81 C 0.78376 0.39158 0.88787 0.0
C82 C 0.76714 0.40512 0.86145 0.0
C83 C 0.74158 0.3881 0.84911 0.0
C84 C 0.68324 0.30179 0.86739 0.0
C85 C 0.6755 0.27101 0.8567 0.0
C86 C 0.65917 0.24726 0.87602 0.0
C87 C 0.64988 0.25387 0.90645 0.0
C88 C 0.65685 0.28523 0.91672 0.0
C89 C 0.67321 0.30904 0.89726 0.0
C90 C 0.67885 0.35466 0.81569 0.0
C91 C 0.68814 0.36446 0.78476 0.0
C92 C 0.66719 0.37968 0.76316 0.0
C93 C 0.63642 0.38556 0.77205 0.0
C94 C 0.62761 0.37687 0.80353 0.0
C95 C 0.64868 0.36169 0.82516 0.0
P96 P 0.87177 0.68792 0.39366 0.0
H97 H 0.87475 0.75576 0.40864 0.0
H98 H 0.91637 0.79026 0.42859 0.0
H99 H 0.97725 0.70747 0.43744 0.0
H100 H 0.93483 0.67254 0.41747 0.0
H101 H 0.85046 0.6252 0.37096 0.0
H102 H 0.86346 0.59873 0.3233 0.0
H103 H 0.93691 0.67162 0.30317 0.0
H104 H 0.92384 0.69799 0.35052 0.0
H105 H 0.81502 0.70147 0.42571 0.0
H106 H 0.88296 0.62534 0.43074 0.0
O107 O 0.84716 0.71341 0.3742 0.0
H108 H 0.78386 0.6704 0.4654 0.0
H109 H 0.85193 0.59388 0.47171 0.0
C110 C 0.90212 0.71195 0.41074 0.0
C111 C 0.897 0.74494 0.41476 0.0
C112 C 0.92085 0.76465 0.42607 0.0
C113 C 0.95026 0.75165 0.43372 0.0
C114 C 0.95488 0.71807 0.43135 0.0
C115 C 0.93081 0.69824 0.41991 0.0
C116 C 0.8867 0.66307 0.3647 0.0
C117 C 0.87014 0.63472 0.35696 0.0
C118 C 0.87749 0.61967 0.3297 0.0
C119 C 0.90103 0.63332 0.30957 0.0
C120 C 0.91853 0.66077 0.31825 0.0
C121 C 0.91128 0.67563 0.34549 0.0
C122 C 0.85071 0.66518 0.42471 0.0
C123 C 0.82335 0.67806 0.43562 0.0
C124 C 0.80578 0.66041 0.4588 0.0
C125 C 0.81547 0.62964 0.47194 0.0
C126 C 0.84376 0.61739 0.46188 0.0
C127 C 0.86142 0.63523 0.43851 0.0
P128 P 0.85132 0.87109 0.86651 0.0
H129 H 0.82554 0.86661 0.929 0.0
H130 H 0.77534 0.87778 0.95087 0.0
H131 H 0.73811 0.89924 0.85694 0.0
H132 H 0.78957 0.88837 0.83492 0.0
H133 H 0.89046 0.85721 0.92269 0.0
H134 H 0.91112 0.80729 0.94915 0.0
H135 H 0.86701 0.75007 0.87935 0.0
H136 H 0.84552 0.80067 0.85292 0.0
H137 H 0.83575 0.92244 0.81624 0.0
H138 H 0.89132 0.83586 0.82516 0.0
O139 O 0.87161 0.90154 0.8818 0.0
H140 H 0.86078 0.93927 0.76556 0.0
H141 H 0.91583 0.8523 0.77508 0.0
C142 C 0.81155 0.87597 0.88021 0.0
C143 C 0.80659 0.87319 0.91287 0.0
C144 C 0.77757 0.87965 0.92545 0.0
C145 C 0.75211 0.88908 0.90584 0.0
C146 C 0.75704 0.89216 0.8729 0.0
C147 C 0.78648 0.88565 0.86021 0.0
C148 C 0.86673 0.83304 0.88536 0.0
C149 C 0.88523 0.83412 0.91274 0.0
C150 C 0.89709 0.80541 0.92799 0.0
C151 C 0.89099 0.77465 0.91627 0.0
C152 C 0.87252 0.77342 0.88874 0.0
C153 C 0.8601 0.80231 0.87372 0.0
C154 C 0.86061 0.87717 0.82455 0.0
C155 C 0.8521 0.90615 0.80675 0.0
C156 C 0.86667 0.91596 0.77777 0.0
C157 C 0.89058 0.89732 0.76625 0.0
C158 C 0.89771 0.86745 0.78324 0.0
C159 C 0.88317 0.85769 0.81197 0.0
P160 P 0.65487 0.20133 0.3622 0.0
H161 H 0.68476 0.2443 0.40467 0.0
H162 H 0.66773 0.29261 0.42889 0.0
H163 H 0.57525 0.27904 0.38962 0.0
H164 H 0.59222 0.22978 0.36629 0.0
H165 H 0.71993 0.18409 0.35417 0.0
H166 H 0.75566 0.15027 0.38696 0.0
H167 H 0.68451 0.1329 0.45792 0.0
H168 H 0.64888 0.16775 0.42525 0.0
H169 H 0.60767 0.21225 0.31303 0.0
H170 H 0.63908 0.13054 0.3748 0.0
O171 O 0.67449 0.21979 0.33176 0.0
H172 H 0.57469 0.1746 0.28447 0.0
H173 H 0.60649 0.09314 0.34627 0.0
C174 C 0.63976 0.23329 0.38383 0.0
C175 C 0.66061 0.25123 0.40181 0.0
C176 C 0.65094 0.27909 0.41537 0.0
C177 C 0.62027 0.28992 0.41077 0.0
C178 C 0.599 0.27121 0.39368 0.0
C179 C 0.60874 0.24311 0.38019 0.0
C180 C 0.6818 0.17832 0.38733 0.0
C181 C 0.7121 0.17347 0.37695 0.0
C182 C 0.73253 0.15427 0.39573 0.0
C183 C 0.72275 0.13917 0.42492 0.0
C184 C 0.69249 0.14436 0.43549 0.0
C185 C 0.67226 0.16419 0.41693 0.0
C186 C 0.6258 0.17443 0.34619 0.0
C187 C 0.6068 0.18643 0.32107 0.0
C188 C 0.58792 0.16491 0.3048 0.0
C189 C 0.58814 0.13096 0.31316 0.0
C190 C 0.60601 0.11919 0.3393 0.0
C191 C 0.62463 0.14074 0.35572 0.0
P192 P 0.35261 0.64312 0.17979 0.0
H193 H 0.2935 0.67626 0.18984 0.0
H194 H 0.23902 0.66321 0.17582 0.0
H195 H 0.26806 0.57312 0.13982 0.0
H196 H 0.32197 0.58637 0.15345 0.0
H197 H 0.3837 0.65846 0.11953 0.0
H198 H 0.40074 0.70952 0.09063 0.0
H199 H 0.36169 0.76466 0.16243 0.0
H200 H 0.3439 0.71299 0.19129 0.0
H201 H 0.34204 0.59285 0.23144 0.0
H202 H 0.38985 0.68705 0.21881 0.0
O203 O 0.37398 0.61453 0.16502 0.0
H204 H 0.36668 0.58312 0.28325 0.0
H205 H 0.41215 0.67902 0.27119 0.0
C206 C 0.31196 0.63248 0.17255 0.0
C207 C 0.28806 0.65364 0.1791 0.0
C208 C 0.25689 0.64607 0.17113 0.0
C209 C 0.24911 0.61724 0.15632 0.0
C210 C 0.27316 0.59583 0.15056 0.0
C211 C 0.30413 0.60334 0.15861 0.0
C212 C 0.36323 0.68174 0.1581 0.0
C213 C 0.37869 0.68141 0.12923 0.0
C214 C 0.38836 0.7107 0.11258 0.0
C215 C 0.38284 0.7411 0.12442 0.0
C216 C 0.36666 0.74155 0.15299 0.0
C217 C 0.35643 0.71208 0.16942 0.0
C218 C 0.36335 0.641 0.22122 0.0
C219 C 0.35676 0.61208 0.24032 0.0
C220 C 0.37096 0.60656 0.27011 0.0
C221 C 0.39196 0.63003 0.28162 0.0
C222 C 0.39689 0.65984 0.26307 0.0
C223 C 0.38335 0.66492 0.23306 0.0
P224 P 0.11923 0.34001 0.65093 0.0
H225 H 0.11266 0.32133 0.58615 0.0
H226 H 0.07371 0.28706 0.56129 0.0
H227 H 0.01804 0.28233 0.64543 0.0
H228 H 0.0563 0.31831 0.66988 0.0
H229 H 0.18555 0.35225 0.65837 0.0
H230 H 0.22413 0.3849 0.62686 0.0
H231 H 0.1524 0.41454 0.55922 0.0
H232 H 0.11341 0.38243 0.59157 0.0
H233 H 0.10345 0.32431 0.7171 0.0
H234 H 0.10795 0.41032 0.65139 0.0
O235 O 0.1379 0.30796 0.66814 0.0
H236 H 0.09573 0.35908 0.76047 0.0
H237 H 0.10059 0.44516 0.69469 0.0
C238 C 0.08693 0.32343 0.62952 0.0
C239 C 0.09125 0.31476 0.59865 0.0
C240 C 0.06902 0.29505 0.58443 0.0
C241 C 0.04278 0.28272 0.60134 0.0
C242 C 0.0378 0.29231 0.63178 0.0
C243 C 0.05968 0.31276 0.64571 0.0
C244 C 0.14693 0.36386 0.62661 0.0
C245 C 0.17808 0.36564 0.63672 0.0
C246 C 0.20002 0.38459 0.61891 0.0
C247 C 0.19115 0.40212 0.59063 0.0
C248 C 0.15976 0.40098 0.58083 0.0
C249 C 0.13763 0.38242 0.59908 0.0
C250 C 0.10705 0.36485 0.68125 0.0
C251 C 0.10228 0.35061 0.71195 0.0
C252 C 0.09774 0.37045 0.73666 0.0
C253 C 0.09808 0.40477 0.73089 0.0
C254 C 0.10076 0.41877 0.69975 0.0
C255 C 0.10494 0.39889 0.67504 0.0
Co256 Co 0.99362 0.00866 0.50543 0.0
C257 C 0.02661 0.95147 0.50214 0.0
Co258 Co 0.04152 0.01078 0.52486 0.0
C259 C 0.92802 0.02095 0.49671 0.0
C260 C 0.94356 0.98515 0.46672 0.0
N261 N 0.95365 1.00512 0.48877 0.0
N262 N 0.90247 0.01138 0.48076 0.0
C263 C 0.91202 0.98883 0.46191 0.0
H264 H 0.92794 0.039 0.51398 0.0
H265 H 0.95816 0.96904 0.45472 0.0
C266 C 1.00842 0.06802 0.52814 0.0
N267 N 0.08151 0.01363 0.54132 0.0
C268 C 0.1067 0.99886 0.53088 0.0
C269 C 0.09195 0.02916 0.56637 0.0
N270 N 0.13236 1.00412 0.54854 0.0
C271 C 0.12333 0.02342 0.57082 0.0
C272 C 0.03829 0.03096 0.46023 0.0
O273 O 0.98696 0.05258 0.51426 0.0
O274 O 0.03408 0.05419 0.53494 0.0
O275 O 0.05691 0.02747 0.48376 0.0
O276 O 1.00939 0.02393 0.46453 0.0
O277 O 0.0486 0.96696 0.51506 0.0
H278 H 0.07754 0.04307 0.5809 0.0
H279 H 0.10618 0.98417 0.5108 0.0
O280 O 1.0008 0.96518 0.49649 0.0
O281 O 0.97801 0.99307 0.54675 0.0
O282 O 0.02589 0.99421 0.56537 0.0
C283 C 0.99687 0.98808 0.56992 0.0
H284 H 0.89741 0.97668 0.44521 0.0
H285 H 0.13801 0.03165 0.58966 0.0
Co286 Co 0.50212 1.00383 0.99828 0.0
C287 C 0.48706 0.94621 0.03695 0.0
Co288 Co 0.52603 0.9993 0.04442 0.0
C289 C 0.49314 0.00674 0.93073 0.0
C290 C 0.45046 0.9975 0.9561 0.0
N291 N 0.48116 1.00439 0.96008 0.0
N292 N 0.47121 1.00092 0.90875 0.0
C293 C 0.44431 0.99517 0.92457 0.0
H294 H 0.51778 0.01043 0.92578 0.0
H295 H 0.43395 0.99266 0.97507 0.0
C296 C 0.54088 0.057 1.00561 0.0
N297 N 0.54686 0.99863 0.08288 0.0
C298 C 0.53416 1.00049 0.11155 0.0
C299 C 0.57787 1.00233 0.08761 0.0
N300 N 0.55581 0.0064 0.13383 0.0
C301 C 0.58344 0.00709 0.11886 0.0
C302 C 0.56015 0.97225 0.99779 0.0
O303 O 0.52121 0.04541 0.98656 0.0
O304 O 0.5463 0.04075 0.03183 0.0
O305 O 0.5594 0.97666 0.02702 0.0
O306 O 0.53751 0.98239 0.98024 0.0
O307 O 0.50561 0.95825 0.0568 0.0
H308 H 0.59513 1.00402 0.06913 0.0
H309 H 0.50931 0.99942 0.11565 0.0
O310 O 0.48307 0.96189 0.01022 0.0
O311 O 0.46693 0.02532 0.0168 0.0
O312 O 0.49238 0.02146 0.06161 0.0
C313 C 0.46811 0.03009 0.04605 0.0
H314 H 0.42208 0.98852 0.91417 0.0
H315 H 0.60585 0.01349 0.12901 0.0
Co316 Co 0.52633 0.5338 0.53673 0.0
C317 C 0.4877 0.54864 0.48476 0.0
Co318 Co 0.48307 0.50353 0.5373 0.0
C319 C 0.59152 0.54849 0.5414 0.0
C320 C 0.56554 0.59238 0.53323 0.0
N321 N 0.56227 0.55945 0.53723 0.0
N322 N 0.61308 0.57318 0.53988 0.0
C323 C 0.59681 0.60092 0.53482 0.0
H324 H 0.59685 0.52275 0.54521 0.0
H325 H 0.5465 0.60902 0.52883 0.0
C326 C 0.5219 0.4885 0.58908 0.0
N327 N 0.44742 0.47717 0.53666 0.0
C328 C 0.41749 0.48635 0.53311 0.0
C329 C 0.44619 0.4441 0.53694 0.0
N330 N 0.39793 0.46034 0.53057 0.0
C331 C 0.41573 0.43371 0.53299 0.0
C332 C 0.53304 0.47755 0.50676 0.0
O333 O 0.53911 0.51086 0.57521 0.0
O334 O 0.49561 0.48138 0.57676 0.0
O335 O 0.50484 0.47226 0.515 0.0
O336 O 0.54695 0.50371 0.51383 0.0
O337 O 0.47074 0.52564 0.49802 0.0
H338 H 0.4662 0.42852 0.53947 0.0
H339 H 0.41022 0.51158 0.53172 0.0
O340 O 0.51333 0.5566 0.49794 0.0
O341 O 0.50579 0.564 0.55948 0.0
O342 O 0.46173 0.53543 0.55932 0.0
C343 C 0.47719 0.56075 0.56677 0.0
H344 H 0.60679 0.62552 0.53121 0.0
H345 H 0.40718 0.40859 0.53243 0.0
Co346 Co 0.02684 0.51599 1.00479 0.0
C347 C 0.96926 0.48634 0.99141 0.0
Co348 Co 0.99513 0.51115 0.04518 0.0
C349 C 0.05796 0.50083 0.94793 0.0
C350 C 0.07038 0.54851 0.96224 0.0
N351 N 0.05317 0.52121 0.9707 0.0
N352 N 0.07738 0.51447 0.92537 0.0
C353 C 0.08523 0.54449 0.93447 0.0
H354 H 0.04695 0.47671 0.94778 0.0
H355 H 0.07128 0.57039 0.97497 0.0
C356 C 0.05296 0.54078 0.05843 0.0
N357 N 0.96896 0.50726 0.07939 0.0
C358 C 0.96256 0.53186 0.09727 0.0
C359 C 0.95266 0.48095 0.09237 0.0
N360 N 0.94284 0.52224 0.12084 0.0
C361 C 0.93664 0.4901 0.11813 0.0
C362 C 0.03337 0.45711 0.04271 0.0
O363 O 0.05777 0.53648 0.02968 0.0
O364 O 0.0267 0.53168 0.07029 0.0
O365 O 0.01163 0.46956 0.05754 0.0
O366 O 0.04439 0.4732 0.01812 0.0
O367 O 0.96381 0.49072 0.02011 0.0
H368 H 0.95252 0.45677 0.08374 0.0
H369 H 0.97274 0.55636 0.09341 0.0
O370 O 0.99577 0.49533 0.98001 0.0
O371 O 1.00894 0.5586 0.9917 0.0
O372 O 0.97844 0.55284 0.03266 0.0
C373 C 0.98748 0.56981 0.00799 0.0
H374 H 0.09965 0.5629 0.92144 0.0
H375 H 0.92145 0.47452 0.13341 0.0
H376 H 0.15558 0.11729 0.32919 0.0
H377 H 0.08836 0.08862 0.2585 0.0
H378 H 0.05452 0.06341 0.30052 0.0
H379 H 0.14603 0.04193 0.38085 0.0
H380 H 0.15058 0.06258 0.41658 0.0
H381 H 0.16962 0.07913 0.38098 0.0
H382 H 0.14285 0.13454 0.38536 0.0
H383 H 0.12363 0.11812 0.42088 0.0
H384 H 0.10091 0.13531 0.38799 0.0
H385 H 0.02655 0.04263 0.3503 0.0
H386 H 1.00827 0.02483 0.40392 0.0
H387 H 0.09457 0.06289 0.44316 0.0
C388 C 0.13398 0.1054 0.32233 0.0
C389 C 0.12479 0.10568 0.29002 0.0
C390 C 0.09594 0.08988 0.28273 0.0
C391 C 0.07651 0.07511 0.30656 0.0
C392 C 0.08612 0.07569 0.33793 0.0
C393 C 0.11434 0.09008 0.34591 0.0
C394 C 0.11923 0.08677 0.38157 0.0
C395 C 0.14808 0.06639 0.39051 0.0
C396 C 0.1218 0.12071 0.39472 0.0
C397 C 0.08928 0.06848 0.39233 0.0
C398 C 0.07046 0.06256 0.3667 0.0
C399 C 0.04123 0.04694 0.3705 0.0
C400 C 0.03098 0.03698 0.40117 0.0
C401 C 0.0499 0.04226 0.42796 0.0
C402 C 0.07957 0.05821 0.42327 0.0
H403 H 0.4489 0.91207 0.75141 0.0
H404 H 0.50562 0.99062 0.70419 0.0
H405 H 0.5146 0.01439 0.75508 0.0
H406 H 0.40981 0.96346 0.80058 0.0
H407 H 0.40773 0.93315 0.83373 0.0
H408 H 0.4086 0.92037 0.79423 0.0
H409 H 0.45697 0.88538 0.80883 0.0
H410 H 0.45621 0.898 0.84843 0.0
H411 H 0.49117 0.90451 0.8253 0.0
H412 H 0.51639 0.03034 0.81161 0.0
H413 H 0.50812 0.03837 0.86819 0.0
H414 H 0.4464 0.95248 0.87613 0.0
C415 C 0.4631 0.93437 0.7515 0.0
C416 C 0.47662 0.94925 0.72354 0.0
C417 C 0.4955 0.97817 0.72522 0.0
C418 C 0.50057 0.99207 0.75404 0.0
C419 C 0.48639 0.977 0.78094 0.0
C420 C 0.46789 0.94889 0.77983 0.0
C421 C 0.45373 0.93847 0.81159 0.0
C422 C 0.41784 0.93891 0.80991 0.0
C423 C 0.46522 0.90458 0.82428 0.0
C424 C 0.4669 0.9653 0.83072 0.0
C425 C 0.4861 0.98704 0.81285 0.0
C426 C 0.50129 0.01353 0.82578 0.0
C427 C 0.49654 0.01791 0.85779 0.0
C428 C 0.47634 0.9963 0.87613 0.0
C429 C 0.46149 0.96968 0.86237 0.0
H430 H 0.6459 0.43443 0.72407 0.0
H431 H 0.57473 0.36707 0.76541 0.0
H432 H 0.53722 0.38721 0.72437 0.0
H433 H 0.59438 0.5015 0.70088 0.0
H434 H 0.61475 0.51287 0.6646 0.0
H435 H 0.63555 0.49425 0.69815 0.0
H436 H 0.65408 0.44874 0.66419 0.0
H437 H 0.63329 0.46719 0.63059 0.0
H438 H 0.62556 0.42478 0.6438 0.0
H439 H 0.50802 0.41277 0.67686 0.0
H440 H 0.48929 0.44294 0.62786 0.0
H441 H 0.5795 0.49349 0.61759 0.0
C442 C 0.62242 0.4239 0.72457 0.0
C443 C 0.61334 0.39918 0.7482 0.0
C444 C 0.58223 0.38638 0.74799 0.0
C445 C 0.56075 0.39751 0.7246 0.0
C446 C 0.5706 0.4216 0.70152 0.0
C447 C 0.60066 0.43478 0.70143 0.0
C448 C 0.60552 0.46002 0.67368 0.0
C449 C 0.61298 0.49418 0.68501 0.0
C450 C 0.63113 0.44954 0.65177 0.0
C451 C 0.57361 0.45873 0.65798 0.0
C452 C 0.55377 0.43644 0.67439 0.0
C453 C 0.52332 0.43044 0.66395 0.0
C454 C 0.51288 0.44768 0.63605 0.0
C455 C 0.5328 0.47072 0.61887 0.0
C456 C 0.56354 0.47625 0.63022 0.0
H457 H 0.90746 0.56978 0.29415 0.0
H458 H 0.90312 0.6705 0.25388 0.0
H459 H 0.90936 0.65193 0.20065 0.0
H460 H 0.96647 0.54571 0.2431 0.0
H461 H 0.95036 0.5049 0.23989 0.0
H462 H 0.94356 0.52577 0.27478 0.0
H463 H 0.88386 0.51749 0.26699 0.0
H464 H 0.8905 0.49675 0.23192 0.0
H465 H 0.86593 0.53195 0.23011 0.0
H466 H 0.91767 0.62351 0.15259 0.0
H467 H 0.93072 0.58668 0.11185 0.0
H468 H 0.93067 0.50402 0.18247 0.0
C469 C 0.90758 0.58777 0.27402 0.0
C470 C 0.90498 0.62154 0.27798 0.0
C471 C 0.90551 0.64455 0.25127 0.0
C472 C 0.90874 0.63423 0.22097 0.0
C473 C 0.9114 0.60084 0.21782 0.0
C474 C 0.91104 0.5779 0.24352 0.0
C475 C 0.91606 0.5437 0.2335 0.0
C476 C 0.94589 0.52918 0.24871 0.0
C477 C 0.88737 0.52114 0.24108 0.0
C478 C 0.91971 0.55118 0.19823 0.0
C479 C 0.91659 0.58427 0.18977 0.0
C480 C 0.92009 0.59752 0.15883 0.0
C481 C 0.92765 0.57647 0.13593 0.0
C482 C 0.93182 0.54261 0.14411 0.0
C483 C 0.92718 0.52972 0.17557 0.0
H484 H 0.30666 0.12289 0.07605 0.0
H485 H 0.31786 0.08741 0.17434 0.0
H486 H 0.36643 0.06077 0.16155 0.0
H487 H 0.33532 0.04892 0.04399 0.0
H488 H 0.35514 0.07081 0.01121 0.0
H489 H 0.32116 0.08784 0.02766 0.0
H490 H 0.35289 0.1411 0.03664 0.0
H491 H 0.38698 0.1242 0.02029 0.0
H492 H 0.38872 0.13868 0.05922 0.0
H493 H 0.41449 0.03984 0.13956 0.0
H494 H 0.45791 0.02162 0.10896 0.0
H495 H 0.41669 0.06669 0.02293 0.0
C496 C 0.31937 0.10945 0.0948 0.0
C497 C 0.30816 0.10717 0.12631 0.0
C498 C 0.32553 0.08922 0.15006 0.0
C499 C 0.35334 0.07412 0.14304 0.0
C500 C 0.36368 0.07672 0.11196 0.0
C501 C 0.34719 0.09356 0.08805 0.0
C502 C 0.36357 0.09155 0.05652 0.0
C503 C 0.34254 0.07372 0.03348 0.0
C504 C 0.37363 0.12594 0.04233 0.0
C505 C 0.39187 0.07124 0.06663 0.0
C506 C 0.39136 0.06336 0.09884 0.0
C507 C 0.41503 0.04568 0.1143 0.0
C508 C 0.43983 0.03554 0.09656 0.0
C509 C 0.44108 0.04258 0.06336 0.0
C510 C 0.41651 0.06069 0.04819 0.0
H511 H 0.31632 0.98989 0.56545 0.0
H512 H 0.30371 0.88908 0.54096 0.0
H513 H 0.24789 0.8982 0.53148 0.0
H514 H 0.24694 0.98997 0.60992 0.0
H515 H 0.23823 0.0321 0.5982 0.0
H516 H 0.2781 0.01922 0.59941 0.0
H517 H 0.28491 0.04103 0.54091 0.0
H518 H 0.24506 0.05407 0.53954 0.0
H519 H 0.25832 0.02686 0.51146 0.0
H520 H 0.19313 0.91687 0.5272 0.0
H521 H 0.14244 0.9435 0.53036 0.0
H522 H 0.18946 0.03077 0.56129 0.0
C523 C 0.30196 0.96965 0.55807 0.0
C524 C 0.31482 0.93883 0.55362 0.0
C525 C 0.29491 0.91323 0.54369 0.0
C526 C 0.26299 0.91805 0.53848 0.0
C527 C 0.25114 0.9485 0.54357 0.0
C528 C 0.26992 0.97383 0.55328 0.0
C529 C 0.25089 1.00342 0.5591 0.0
C530 C 0.25371 0.01164 0.59371 0.0
C531 C 0.26036 0.0331 0.53639 0.0
C532 C 0.21842 0.99052 0.55157 0.0
C533 C 0.21921 0.95894 0.54223 0.0
C534 C 0.1922 0.94166 0.53429 0.0
C535 C 0.16356 0.95703 0.53602 0.0
C536 C 0.16211 0.98921 0.54594 0.0
C537 C 0.18995 0.00611 0.55379 0.0
H538 H 0.80379 0.40232 0.94847 0.0
H539 H 0.83144 0.41626 0.85035 0.0
H540 H 0.88175 0.44095 0.86632 0.0
H541 H 0.83868 0.47866 0.97172 0.0
H542 H 0.85085 0.46147 0.0101 0.0
H543 H 0.81699 0.44453 0.9911 0.0
H544 H 0.84135 0.38706 0.99659 0.0
H545 H 0.87533 0.40386 0.01549 0.0
H546 H 0.87961 0.38183 0.9808 0.0
H547 H 0.92969 0.46261 0.89269 0.0
H548 H 0.97078 0.48343 0.92747 0.0
H549 H 0.91212 0.45761 0.00885 0.0
C550 C 0.82047 0.41058 0.93039 0.0
C551 C 0.81356 0.40747 0.89809 0.0
C552 C 0.83596 0.41878 0.87516 0.0
C553 C 0.86472 0.43264 0.88402 0.0
C554 C 0.87083 0.43531 0.91596 0.0
C555 C 0.84928 0.42491 0.93883 0.0
C556 C 0.86159 0.43138 0.97147 0.0
C557 C 0.84079 0.45544 0.98701 0.0
C558 C 0.86465 0.39911 0.99231 0.0
C559 C 0.89343 0.44688 0.96333 0.0
C560 C 0.89831 0.44864 0.93118 0.0
C561 C 0.92606 0.46151 0.9179 0.0
C562 C 0.94933 0.47322 0.93791 0.0
C563 C 0.94475 0.47231 0.97094 0.0
C564 C 0.91636 0.4588 0.98372 0.0
H565 H 0.77978 0.65056 0.51888 0.0
H566 H 0.80154 0.56386 0.47184 0.0
H567 H 0.75593 0.53469 0.49647 0.0
H568 H 0.73825 0.6066 0.59133 0.0
H569 H 0.70983 0.63839 0.58993 0.0
H570 H 0.74963 0.64829 0.57855 0.0
H571 H 0.72982 0.67425 0.52473 0.0
H572 H 0.69022 0.664 0.53554 0.0
H573 H 0.70579 0.64979 0.5 0.0
H574 H 0.70202 0.52038 0.51335 0.0
H575 H 0.64542 0.52176 0.52167 0.0
H576 H 0.65647 0.61855 0.5559 0.0
C577 C 0.77558 0.62502 0.51475 0.0
C578 C 0.79416 0.60953 0.49341 0.0
C579 C 0.78798 0.57612 0.4885 0.0
C580 C 0.76199 0.55935 0.50237 0.0
C581 C 0.74263 0.57624 0.52126 0.0
C582 C 0.7494 0.60827 0.52789 0.0
C583 C 0.72221 0.62305 0.54366 0.0
C584 C 0.73048 0.62945 0.57791 0.0
C585 C 0.71138 0.6546 0.52484 0.0
C586 C 0.6982 0.59538 0.54242 0.0
C587 C 0.71074 0.56817 0.53049 0.0
C588 C 0.69217 0.5411 0.52366 0.0
C589 C 0.65994 0.54213 0.52846 0.0
C590 C 0.64648 0.57029 0.53955 0.0
C591 C 0.6661 0.59672 0.54747 0.0
H592 H 0.15636 0.31384 0.08959 0.0
H593 H 0.08223 0.26695 0.14705 0.0
H594 H 0.04601 0.3095 0.12657 0.0
H595 H 0.13622 0.39604 0.10118 0.0
H596 H 0.14517 0.4128 0.06172 0.0
H597 H 0.16509 0.37722 0.0785 0.0
H598 H 0.14737 0.34503 0.03116 0.0
H599 H 0.12742 0.38057 0.0142 0.0
H600 H 0.10642 0.34193 0.02134 0.0
H601 H 0.01857 0.35802 0.1033 0.0
H602 H 1.00086 0.41066 0.0786 0.0
H603 H 0.09154 0.42888 0.03501 0.0
C604 C 0.13233 0.31231 0.09733 0.0
C605 C 0.12209 0.28689 0.11992 0.0
C606 C 0.09063 0.28612 0.1299 0.0
C607 C 0.06984 0.31016 0.1183 0.0
C608 C 0.08067 0.33513 0.09661 0.0
C609 C 0.11111 0.33653 0.08609 0.0
C610 C 0.11677 0.36732 0.06387 0.0
C611 C 0.14233 0.38967 0.07712 0.0
C612 C 0.12498 0.35816 0.03067 0.0
C613 C 0.0849 0.38308 0.06402 0.0
C614 C 0.06454 0.36376 0.08299 0.0
C615 C 0.03421 0.37323 0.08819 0.0
C616 C 0.02439 0.40335 0.07404 0.0
C617 C 0.04465 0.42408 0.05468 0.0
C618 C 0.0753 0.41348 0.04927 0.0
H619 H 0.60493 0.20807 0.89073 0.0
H620 H 0.65935 0.2398 0.97001 0.0
H621 H 0.63566 0.19453 1.00443 0.0
H622 H 0.53487 0.18208 0.93481 0.0
H623 H 0.52716 0.14721 0.91223 0.0
H624 H 0.547 0.18328 0.89426 0.0
H625 H 0.59295 0.14777 0.8794 0.0
H626 H 0.57327 0.11164 0.89736 0.0
H627 H 0.6123 0.12238 0.90983 0.0
H628 H 0.60849 0.1436 0.02956 0.0
H629 H 0.57875 0.09203 0.0438 0.0
H630 H 0.54201 0.0933 0.94818 0.0
C631 C 0.61187 0.20558 0.91534 0.0
C632 C 0.63404 0.2277 0.9276 0.0
C633 C 0.64212 0.22361 0.96008 0.0
C634 C 0.62891 0.1978 0.97981 0.0
C635 C 0.60751 0.17625 0.96683 0.0
C636 C 0.59889 0.17998 0.93538 0.0
C637 C 0.57594 0.15297 0.92714 0.0
C638 C 0.54437 0.16725 0.91649 0.0
C639 C 0.58943 0.13248 0.90195 0.0
C640 C 0.57332 0.13321 0.95876 0.0
C641 C 0.59167 0.14709 0.98136 0.0
C642 C 0.59384 0.13268 0.01211 0.0
C643 C 0.57689 0.10332 0.01996 0.0
C644 C 0.55788 0.08862 0.9972 0.0
C645 C 0.55605 0.10402 0.96624 0.0
H646 H 0.96711 0.81042 0.40464 0.0
H647 H 0.98916 0.74362 0.48546 0.0
H648 H 0.02301 0.7868 0.50697 0.0
H649 H 0.04336 0.86105 0.40174 0.0
H650 H 0.02214 0.89791 0.39155 0.0
H651 H 1.00819 0.85931 0.37821 0.0
H652 H 0.95456 0.86725 0.40389 0.0
H653 H 0.96831 0.9055 0.41742 0.0
H654 H 0.95308 0.87366 0.4453 0.0
H655 H 0.04475 0.84045 0.52471 0.0
H656 H 0.04987 0.89857 0.53753 0.0
H657 H 0.01031 0.92979 0.44639 0.0
C658 C 0.97998 0.80458 0.42633 0.0
C659 C 0.97566 0.77392 0.44348 0.0
C660 C 0.99256 0.76696 0.47185 0.0
C661 C 0.01182 0.79134 0.48417 0.0
C662 C 0.01409 0.82218 0.46753 0.0
C663 C 0.99877 0.82864 0.43897 0.0
C664 C 1.0001 0.86474 0.42823 0.0
C665 C 0.01962 0.87112 0.39815 0.0
C666 C 0.96707 0.87856 0.42348 0.0
C667 C 0.01663 0.87801 0.45617 0.0
C668 C 0.02562 0.85317 0.47816 0.0
C669 C 0.03852 0.86001 0.50732 0.0
C670 C 0.04135 0.89296 0.51445 0.0
C671 C 0.0305 0.91818 0.49277 0.0
C672 C 0.019 0.91068 0.46307 0.0
H673 H 0.48403 0.7414 0.61633 0.0
H674 H 0.38623 0.74796 0.58966 0.0
H675 H 0.38311 0.68789 0.58648 0.0
H676 H 0.50261 0.68677 0.56251 0.0
H677 H 0.53034 0.66452 0.58753 0.0
H678 H 0.52315 0.7067 0.59323 0.0
H679 H 0.50915 0.69044 0.65171 0.0
H680 H 0.51616 0.64804 0.64607 0.0
H681 H 0.47911 0.6595 0.66093 0.0
H682 H 0.3927 0.62803 0.57919 0.0
H683 H 0.41485 0.57542 0.56621 0.0
H684 H 0.50623 0.60917 0.59685 0.0
C685 C 0.46181 0.73021 0.61021 0.0
C686 C 0.43538 0.74944 0.60333 0.0
C687 C 0.40672 0.73372 0.59556 0.0
C688 C 0.40471 0.69958 0.59365 0.0
C689 C 0.43149 0.68147 0.59983 0.0
C690 C 0.45948 0.69633 0.60807 0.0
C691 C 0.48568 0.67226 0.6103 0.0
C692 C 0.51197 0.68321 0.587 0.0
C693 C 0.49825 0.66727 0.64428 0.0
C694 C 0.46842 0.64183 0.60074 0.0
C695 C 0.43705 0.64727 0.5954 0.0
C696 C 0.41711 0.62331 0.58386 0.0
C697 C 0.42982 0.59346 0.57666 0.0
C698 C 0.46219 0.58824 0.58064 0.0
C699 C 0.48133 0.61236 0.59381 0.0
H700 H 0.87341 0.92577 0.70665 0.0
H701 H 0.95404 0.899 0.76477 0.0
H702 H 0.98892 0.91973 0.72164 0.0
H703 H 0.90576 0.90292 0.63318 0.0
H704 H 0.88904 0.93643 0.60917 0.0
H705 H 0.86984 0.92027 0.64481 0.0
H706 H 0.871 0.97828 0.66518 0.0
H707 H 0.89022 0.99459 0.6296 0.0
H708 H 0.90771 1.00063 0.6675 0.0
H709 H 0.01564 0.94361 0.67299 0.0
H710 H 0.03263 0.96722 0.62072 0.0
H711 H 0.93574 0.97785 0.59154 0.0
C712 C 0.89841 0.92441 0.71026 0.0
C713 C 0.91087 0.91041 0.73923 0.0
C714 C 0.94378 0.90903 0.74281 0.0
C715 C 0.96388 0.92097 0.71845 0.0
C716 C 0.95097 0.93425 0.69023 0.0
C717 C 0.91903 0.93595 0.68581 0.0
C718 C 0.9116 0.95081 0.6526 0.0
C719 C 0.89295 0.92613 0.63383 0.0
C720 C 0.89409 0.98299 0.6538 0.0
C721 C 0.94431 0.95718 0.63925 0.0
C722 C 0.96658 0.94758 0.66158 0.0
C723 C 0.9984 0.95114 0.65528 0.0
C724 C 1.00784 0.96468 0.6254 0.0
C725 C 0.98568 0.97446 0.60173 0.0
C726 C 0.95337 0.9706 0.60895 0.0
H727 H 0.61456 0.07856 0.28969 0.0
H728 H 0.5289 0.13263 0.28797 0.0
H729 H 0.50738 0.0986 0.24684 0.0
H730 H 0.62067 0.07721 0.21066 0.0
H731 H 0.63646 0.03681 0.21054 0.0
H732 H 0.64236 0.06003 0.24431 0.0
H733 H 0.61739 0.01248 0.28035 0.0
H734 H 0.61158 0.98889 0.2466 0.0
H735 H 0.57896 0.9967 0.27108 0.0
H736 H 0.49863 0.06486 0.20099 0.0
H737 H 0.50402 0.03656 0.15263 0.0
H738 H 0.59574 1.00436 0.18388 0.0
C739 C 0.59078 0.0823 0.28158 0.0
C740 C 0.57312 0.10778 0.29229 0.0
C741 C 0.54262 0.113 0.28018 0.0
C742 C 0.5302 0.09367 0.257 0.0
C743 C 0.54859 0.06928 0.24629 0.0
C744 C 0.57822 0.06349 0.25828 0.0
C745 C 0.5949 0.03908 0.23992 0.0
C746 C 0.62537 0.05421 0.22551 0.0
C747 C 0.60106 0.0074 0.26073 0.0
C748 C 0.57062 0.03322 0.21477 0.0
C749 C 0.54379 0.05021 0.2193 0.0
C750 C 0.51923 0.05086 0.19758 0.0
C751 C 0.5225 0.0345 0.17013 0.0
C752 C 0.55033 0.018 0.16439 0.0
C753 C 0.5742 0.01665 0.18758 0.0
H754 H 0.37473 0.59184 0.3363 0.0
H755 H 0.45224 0.65032 0.29449 0.0
H756 H 0.48347 0.63807 0.34241 0.0
H757 H 0.38726 0.61145 0.41707 0.0
H758 H 0.37794 0.57043 0.43364 0.0
H759 H 0.36042 0.58549 0.39678 0.0
H760 H 0.38136 0.5359 0.36997 0.0
H761 H 0.3989 0.52068 0.40675 0.0
H762 H 0.42254 0.52792 0.37195 0.0
H763 H 0.50721 0.61899 0.39449 0.0
H764 H 0.52232 0.59223 0.44628 0.0
H765 H 0.43121 0.54309 0.45354 0.0
C766 C 0.39826 0.60209 0.33705 0.0
C767 C 0.41051 0.62271 0.31141 0.0
C768 C 0.44157 0.63545 0.31387 0.0
C769 C 0.45978 0.62835 0.34101 0.0
C770 C 0.44699 0.60806 0.36565 0.0
C771 C 0.41703 0.59489 0.36391 0.0
C772 C 0.40949 0.57261 0.39332 0.0
C773 C 0.38215 0.58579 0.41126 0.0
C774 C 0.40267 0.53718 0.38499 0.0
C775 C 0.43992 0.5753 0.41171 0.0
C776 C 0.46112 0.5961 0.39538 0.0
C777 C 0.49081 0.60261 0.40749 0.0
C778 C 0.49917 0.5873 0.43698 0.0
C779 C 0.47805 0.56547 0.45404 0.0
C780 C 0.44797 0.55956 0.44112 0.0
H781 H 0.05941 0.40103 0.78221 0.0
H782 H 0.13871 0.45549 0.73977 0.0
H783 H 0.14258 0.48877 0.78566 0.0
H784 H 0.02496 0.47043 0.81556 0.0
H785 H 0.01204 0.4467 0.8508 0.0
H786 H 0.01545 0.4273 0.81447 0.0
H787 H 0.05211 0.38448 0.84236 0.0
H788 H 0.04904 0.40394 0.87868 0.0
H789 H 0.08689 0.39834 0.86213 0.0
H790 H 0.13946 0.51418 0.83676 0.0
H791 H 0.12683 0.53381 0.8881 0.0
H792 H 0.04779 0.46475 0.89637 0.0
C793 C 0.07748 0.42006 0.78262 0.0
C794 C 0.0987 0.42588 0.7575 0.0
C795 C 0.12198 0.45102 0.75865 0.0
C796 C 0.12451 0.46984 0.78467 0.0
C797 C 0.10343 0.46332 0.80919 0.0
C798 C 0.08012 0.43934 0.80828 0.0
C799 C 0.06017 0.4378 0.83757 0.0
C800 C 0.02614 0.44606 0.82908 0.0
C801 C 0.06219 0.40414 0.85629 0.0
C802 C 0.07606 0.46454 0.8551 0.0
C803 C 0.10109 0.47871 0.8384 0.0
C804 C 0.11968 0.50356 0.84993 0.0
C805 C 0.11216 0.51467 0.87911 0.0
C806 C 0.08603 0.50122 0.89636 0.0
C807 C 0.06802 0.47554 0.88414 0.0
H808 H 0.70782 0.9371 0.88891 0.0
H809 H 0.72505 0.85387 0.95626 0.0
H810 H 0.67766 0.86537 0.98486 0.0
H811 H 0.67827 0.99012 0.9432 0.0
H812 H 0.64796 0.00714 0.91767 0.0
H813 H 0.68272 0.99206 0.90098 0.0
H814 H 0.64901 0.95332 0.86842 0.0
H815 H 0.61411 0.9684 0.88492 0.0
H816 H 0.6213 0.92503 0.88829 0.0
H817 H 0.63166 0.88819 0.00963 0.0
H818 H 0.58654 0.91839 0.02647 0.0
H819 H 0.59415 0.98496 0.94208 0.0
C820 C 0.70134 0.92095 0.90934 0.0
C821 C 0.72092 0.89481 0.92047 0.0
C822 C 0.7113 0.87453 0.9475 0.0
C823 C 0.68413 0.88072 0.96391 0.0
C824 C 0.66601 0.90705 0.95297 0.0
C825 C 0.67379 0.92662 0.92604 0.0
C826 C 0.64991 0.95354 0.91989 0.0
C827 C 0.66566 0.98774 0.92047 0.0
C828 C 0.63255 0.94984 0.88851 0.0
C829 C 0.62804 0.94632 0.94789 0.0
C830 C 0.63806 0.9194 0.96663 0.0
C831 C 0.62327 0.90894 0.99485 0.0
C832 C 0.59765 0.92634 1.00429 0.0
C833 C 0.58642 0.95374 0.98548 0.0
C834 C 0.60173 0.96367 0.95665 0.0
H835 H 0.78287 0.15124 0.4431 0.0
H836 H 0.70988 0.0756 0.44576 0.0
H837 H 0.74753 0.03475 0.46758 0.0
H838 H 0.84104 0.10616 0.41675 0.0
H839 H 0.87224 0.12264 0.44005 0.0
H840 H 0.83868 0.14683 0.42998 0.0
H841 H 0.82911 0.15359 0.48915 0.0
H842 H 0.86293 0.12959 0.49945 0.0
H843 H 0.82557 0.11768 0.51649 0.0
H844 H 0.79477 1.00095 0.47865 0.0
H845 H 0.84754 0.97752 0.48344 0.0
H846 H 0.88911 0.07544 0.47709 0.0
C847 C 0.77473 0.12625 0.44922 0.0
C848 C 0.74363 0.1164 0.44299 0.0
C849 C 0.73361 0.08354 0.45084 0.0
C850 C 0.75481 0.06024 0.46316 0.0
C851 C 0.78567 0.07048 0.46806 0.0
C852 C 0.79546 0.10288 0.46199 0.0
C853 C 0.8303 0.10711 0.46703 0.0
C854 C 0.8465 0.12151 0.43664 0.0
C855 C 0.83739 0.12824 0.49468 0.0
C856 C 0.83886 0.0718 0.47522 0.0
C857 C 0.81278 0.05104 0.47589 0.0
C858 C 0.81526 0.017 0.47918 0.0
C859 C 0.84516 1.0039 0.48169 0.0
C860 C 0.872 0.02483 0.4812 0.0
C861 C 0.86875 0.05912 0.47852 0.0
H862 H 0.2288 0.59219 0.10127 0.0
H863 H 0.19494 0.62443 0.18915 0.0
H864 H 0.14087 0.60959 0.17352 0.0
H865 H 0.16424 0.62071 0.05224 0.0
H866 H 0.16426 0.58608 0.02854 0.0
H867 H 0.20002 0.59985 0.04653 0.0
H868 H 0.20742 0.54154 0.07373 0.0
H869 H 0.1717 0.5276 0.05583 0.0
H870 H 0.1767 0.52254 0.09805 0.0
H871 H 0.09027 0.58835 0.14889 0.0
H872 H 0.0479 0.56531 0.11651 0.0
H873 H 0.11523 0.54832 0.0445 0.0
C874 C 0.21007 0.59604 0.11735 0.0
C875 C 0.21626 0.60941 0.14657 0.0
C876 C 0.19087 0.61451 0.16656 0.0
C877 C 0.16007 0.60598 0.15794 0.0
C878 C 0.15489 0.59256 0.12911 0.0
C879 C 0.17923 0.58785 0.10904 0.0
C880 C 0.16759 0.573 0.0794 0.0
C881 C 0.17443 0.59631 0.04994 0.0
C882 C 0.18169 0.53917 0.0766 0.0
C883 C 0.13288 0.56994 0.08589 0.0
C884 C 0.12595 0.58117 0.11475 0.0
C885 C 0.09547 0.57975 0.12617 0.0
C886 C 0.07154 0.56656 0.10763 0.0
C887 C 0.07812 0.5552 0.07784 0.0
C888 C 0.10928 0.55712 0.06697 0.0
H889 H 0.235 0.44621 0.60914 0.0
H890 H 0.20265 0.39594 0.52856 0.0
H891 H 0.25004 0.41542 0.49931 0.0
H892 H 0.27785 0.51754 0.56191 0.0
H893 H 0.30833 0.5178 0.59144 0.0
H894 H 0.26872 0.50689 0.60279 0.0
H895 H 0.28759 0.45201 0.63021 0.0
H896 H 0.32701 0.46247 0.61873 0.0
H897 H 0.30898 0.42462 0.60776 0.0
H898 H 0.30541 0.42756 0.48493 0.0
H899 H 0.36291 0.43621 0.48458 0.0
H900 H 0.35878 0.48163 0.57266 0.0
C901 C 0.23743 0.44048 0.58488 0.0
C902 C 0.21532 0.4198 0.57092 0.0
C903 C 0.21922 0.41221 0.53938 0.0
C904 C 0.24605 0.42314 0.52266 0.0
C905 C 0.26828 0.44221 0.53765 0.0
C906 C 0.26389 0.45151 0.56782 0.0
C907 C 0.29277 0.46867 0.58008 0.0
C908 C 0.28654 0.50488 0.58429 0.0
C909 C 0.30478 0.45086 0.61099 0.0
C910 C 0.31486 0.46544 0.55308 0.0
C911 C 0.30017 0.45053 0.5286 0.0
C912 C 0.31689 0.44041 0.5033 0.0
C913 C 0.3494 0.44522 0.50329 0.0
C914 C 0.36464 0.46026 0.52819 0.0
C915 C 0.34716 0.47125 0.55288 0.0
H916 H 0.92487 0.72366 0.89478 0.0
H917 H 0.88337 0.75705 0.9787 0.0
H918 H 0.90383 0.70906 0.01036 0.0
H919 H 0.91176 0.6357 0.91492 0.0
H920 H 0.94862 0.62428 0.89959 0.0
H921 H 0.92983 0.66064 0.8829 0.0
H922 H 0.9797 0.6953 0.89371 0.0
H923 H 0.99856 0.65907 0.9106 0.0
H924 H 0.9956 0.69432 0.93318 0.0
H925 H 0.92826 0.65799 0.03329 0.0
H926 H 0.95582 0.6067 0.04661 0.0
H927 H 0.98445 0.60544 0.94908 0.0
C928 C 0.91988 0.72059 0.91976 0.0
C929 C 0.90241 0.74422 0.93426 0.0
C930 C 0.89676 0.7395 0.96709 0.0
C931 C 0.90827 0.71224 0.98529 0.0
C932 C 0.92573 0.68974 0.97051 0.0
C933 C 0.93165 0.6935 0.93853 0.0
C934 C 0.95186 0.66583 0.92902 0.0
C935 C 0.93448 0.6454 0.90519 0.0
C936 C 0.9833 0.67945 0.91585 0.0
C937 C 0.95624 0.64601 0.96062 0.0
C938 C 0.94074 0.66034 0.98409 0.0
C939 C 0.94056 0.6466 0.01512 0.0
C940 C 0.95635 0.61735 0.02245 0.0
C941 C 0.97254 0.60191 0.99903 0.0
C942 C 0.97264 0.61674 0.96764 0.0
H943 H 0.41703 0.79278 0.14659 0.0
H944 H 0.37447 0.75858 0.06178 0.0
H945 H 0.39602 0.80747 0.03069 0.0
H946 H 0.40594 0.8806 0.12665 0.0
H947 H 0.44308 0.89258 0.1431 0.0
H948 H 0.42286 0.85584 0.1591 0.0
H949 H 0.47167 0.82208 0.1496 0.0
H950 H 0.49194 0.85866 0.13336 0.0
H951 H 0.48791 0.82344 0.11057 0.0
H952 H 0.42288 0.85903 0.00851 0.0
H953 H 0.4535 0.91028 0.99636 0.0
H954 H 0.48042 0.91117 0.09504 0.0
C955 C 0.41187 0.79593 0.12157 0.0
C956 C 0.39398 0.77194 0.10657 0.0
C957 C 0.3882 0.77658 0.07368 0.0
C958 C 0.40029 0.8043 0.05586 0.0
C959 C 0.41827 0.82718 0.07119 0.0
C960 C 0.42407 0.8234 0.10329 0.0
C961 C 0.44511 0.85119 0.11359 0.0
C962 C 0.42823 0.87124 0.137 0.0
C963 C 0.47599 0.83805 0.12761 0.0
C964 C 0.45032 0.87102 0.08226 0.0
C965 C 0.43443 0.85675 0.05819 0.0
C966 C 0.43541 0.87045 0.02716 0.0
C967 C 0.45293 0.89959 0.0205 0.0
C968 C 0.46951 0.91478 0.04468 0.0
C969 C 0.46821 0.9001 0.07598 0.0
H970 H 0.04617 0.22053 0.62569 0.0
H971 H 1.00346 0.28132 0.55008 0.0
H972 H 0.98297 0.23132 0.5264 0.0
H973 H 0.07539 0.16646 0.57802 0.0
H974 H 0.07075 0.1304 0.60502 0.0
H975 H 0.07522 0.17013 0.61999 0.0
H976 H 0.02327 0.16082 0.65052 0.0
H977 H 0.0188 0.12071 0.63598 0.0
H978 H 0.98813 0.14987 0.62967 0.0
H979 H 0.97212 0.17433 0.50848 0.0
H980 H 0.97569 0.11645 0.49549 0.0
H981 H 0.03069 0.09477 0.58034 0.0
C982 C 0.03129 0.22318 0.60492 0.0
C983 C 0.02533 0.25441 0.59012 0.0
C984 C 1.00736 0.25737 0.56204 0.0
C985 C 0.99572 0.22918 0.54854 0.0
C986 C 1.00279 0.19849 0.56327 0.0
C987 C 0.02031 0.19543 0.59084 0.0
C988 C 0.02899 0.16027 0.59947 0.0
C989 C 0.06469 0.15663 0.60067 0.0
C990 C 0.01388 0.14714 0.63076 0.0
C991 C 0.01453 0.14406 0.57197 0.0
C992 C 0.99871 0.1662 0.55179 0.0
C993 C 0.98425 0.15678 0.52425 0.0
C994 C 0.98641 0.12399 0.51704 0.0
C995 C 1.00369 0.10154 0.53685 0.0
C996 C 0.01753 0.11165 0.56475 0.0
H997 H 0.56561 0.30458 0.43967 0.0
H998 H 0.65474 0.34711 0.40729 0.0
H999 H 0.64133 0.39974 0.42732 0.0
H1000 H 0.52048 0.37791 0.42016 0.0
H1001 H 0.49606 0.37121 0.45445 0.0
H1002 H 0.51226 0.33675 0.43704 0.0
H1003 H 0.53717 0.31726 0.49086 0.0
H1004 H 0.52109 0.35167 0.50841 0.0
H1005 H 0.56251 0.34508 0.51072 0.0
H1006 H 0.61966 0.44679 0.45208 0.0
H1007 H 0.59028 0.48651 0.47971 0.0
H1008 H 0.5142 0.41468 0.4951 0.0
C1009 C 0.58213 0.32508 0.43654 0.0
C1010 C 0.61136 0.32164 0.42221 0.0
C1011 C 0.63248 0.34897 0.41876 0.0
C1012 C 0.625 0.37904 0.42983 0.0
C1013 C 0.59621 0.38151 0.44411 0.0
C1014 C 0.57501 0.3554 0.44743 0.0
C1015 C 0.54588 0.3647 0.4642 0.0
C1016 C 0.51696 0.36251 0.44267 0.0
C1017 C 0.54142 0.34341 0.4954 0.0
C1018 C 0.55425 0.39998 0.46998 0.0
C1019 C 0.58338 0.40909 0.45814 0.0
C1020 C 0.59671 0.44008 0.46129 0.0
C1021 C 0.57983 0.46244 0.47707 0.0
C1022 C 0.54989 0.45373 0.48945 0.0
C1023 C 0.53691 0.42211 0.48566 0.0
loop_
_geom_bond_atom_site_label_1
_geom_bond_atom_site_label_2
_geom_bond_distance
_geom_bond_site_symmetry_2
_ccdc_geom_bond_type
P0 O11 1.490 . S
P0 C14 1.812 . S
P0 C20 1.803 . S
P0 C26 1.819 . S
H1 C15 0.941 . S
H2 C16 0.939 . S
H3 C18 0.940 . S
H4 C19 0.940 . S
H5 C21 0.939 . S
H6 C22 0.942 . S
H7 C24 0.940 . S
H8 C25 0.939 . S
H9 C27 0.941 . S
H10 C31 0.939 . S
O11 P0 1.490 . S
H12 C28 0.939 . S
H13 C30 0.940 . S
C14 P0 1.812 . S
C14 C15 1.389 . S
C14 C19 1.391 . S
C15 H1 0.941 . S
C15 C14 1.389 . S
C15 C16 1.397 . S
C16 H2 0.939 . S
C16 C15 1.397 . S
C16 C17 1.378 . S
C17 C16 1.378 . S
C17 C18 1.378 . S
C18 H3 0.940 . S
C18 C17 1.378 . S
C18 C19 1.396 . S
C19 H4 0.940 . S
C19 C14 1.391 . S
C19 C18 1.396 . S
C20 P0 1.803 . S
C20 C21 1.378 . S
C20 C25 1.400 . S
C21 H5 0.939 . S
C21 C20 1.378 . S
C21 C22 1.361 . S
C22 H6 0.942 . S
C22 C21 1.361 . S
C22 C23 1.369 . S
C23 C22 1.369 . S
C23 C24 1.404 . S
C24 H7 0.940 . S
C24 C23 1.404 . S
C24 C25 1.389 . S
C25 H8 0.939 . S
C25 C20 1.400 . S
C25 C24 1.389 . S
C26 P0 1.819 . S
C26 C27 1.391 . S
C26 C31 1.391 . S
C27 H9 0.941 . S
C27 C26 1.391 . S
C27 C28 1.396 . S
C28 H12 0.939 . S
C28 C27 1.396 . S
C28 C29 1.397 . S
C29 C28 1.397 . S
C29 C30 1.385 . S
C30 H13 0.940 . S
C30 C29 1.385 . S
C30 C31 1.388 . S
C31 H10 0.939 . S
C31 C26 1.391 . S
C31 C30 1.388 . S
P32 O43 1.490 . S
P32 C46 1.812 . S
P32 C52 1.803 . S
P32 C58 1.819 . S
H33 C47 0.941 . S
H34 C48 0.939 . S
H35 C50 0.940 . S
H36 C51 0.940 . S
H37 C53 0.939 . S
H38 C54 0.942 . S
H39 C56 0.940 . S
H40 C57 0.939 . S
H41 C59 0.941 . S
H42 C63 0.939 . S
O43 P32 1.490 . S
H44 C60 0.939 . S
H45 C62 0.940 . S
C46 P32 1.812 . S
C46 C47 1.389 . S
C46 C51 1.391 . S
C47 H33 0.941 . S
C47 C46 1.389 . S
C47 C48 1.397 . S
C48 H34 0.939 . S
C48 C47 1.397 . S
C48 C49 1.378 . S
C49 C48 1.378 . S
C49 C50 1.378 . S
C50 H35 0.940 . S
C50 C49 1.378 . S
C50 C51 1.396 . S
C51 H36 0.940 . S
C51 C46 1.391 . S
C51 C50 1.396 . S
C52 P32 1.803 . S
C52 C53 1.378 . S
C52 C57 1.400 . S
C53 H37 0.939 . S
C53 C52 1.378 . S
C53 C54 1.361 . S
C54 H38 0.942 . S
C54 C53 1.361 . S
C54 C55 1.369 . S
C55 C54 1.369 . S
C55 C56 1.404 . S
C56 H39 0.940 . S
C56 C55 1.404 . S
C56 C57 1.389 . S
C57 H40 0.939 . S
C57 C52 1.400 . S
C57 C56 1.389 . S
C58 P32 1.819 . S
C58 C59 1.391 . S
C58 C63 1.391 . S
C59 H41 0.941 . S
C59 C58 1.391 . S
C59 C60 1.396 . S
C60 H44 0.939 . S
C60 C59 1.396 . S
C60 C61 1.397 . S
C61 C60 1.397 . S
C61 C62 1.385 . S
C62 H45 0.940 . S
C62 C61 1.385 . S
C62 C63 1.388 . S
C63 H42 0.939 . S
C63 C58 1.391 . S
C63 C62 1.388 . S
P64 O75 1.490 . S
P64 C78 1.812 . S
P64 C84 1.803 . S
P64 C90 1.819 . S
H65 C79 0.941 . S
H66 C80 0.939 . S
H67 C82 0.940 . S
H68 C83 0.940 . S
H69 C85 0.939 . S
H70 C86 0.942 . S
H71 C88 0.940 . S
H72 C89 0.939 . S
H73 C91 0.941 . S
H74 C95 0.939 . S
O75 P64 1.490 . S
H76 C92 0.939 . S
H77 C94 0.940 . S
C78 P64 1.812 . S
C78 C79 1.389 . S
C78 C83 1.391 . S
C79 H65 0.941 . S
C79 C78 1.389 . S
C79 C80 1.397 . S
C80 H66 0.939 . S
C80 C79 1.397 . S
C80 C81 1.378 . S
C81 C80 1.378 . S
C81 C82 1.378 . S
C82 H67 0.940 . S
C82 C81 1.378 . S
C82 C83 1.396 . S
C83 H68 0.940 . S
C83 C78 1.391 . S
C83 C82 1.396 . S
C84 P64 1.803 . S
C84 C85 1.378 . S
C84 C89 1.400 . S
C85 H69 0.939 . S
C85 C84 1.378 . S
C85 C86 1.361 . S
C86 H70 0.942 . S
C86 C85 1.361 . S
C86 C87 1.369 . S
C87 C86 1.369 . S
C87 C88 1.404 . S
C88 H71 0.940 . S
C88 C87 1.404 . S
C88 C89 1.389 . S
C89 H72 0.939 . S
C89 C84 1.400 . S
C89 C88 1.389 . S
C90 P64 1.819 . S
C90 C91 1.391 . S
C90 C95 1.391 . S
C91 H73 0.941 . S
C91 C90 1.391 . S
C91 C92 1.396 . S
C92 H76 0.939 . S
C92 C91 1.396 . S
C92 C93 1.397 . S
C93 C92 1.397 . S
C93 C94 1.385 . S
C94 H77 0.940 . S
C94 C93 1.385 . S
C94 C95 1.388 . S
C95 H74 0.939 . S
C95 C90 1.391 . S
C95 C94 1.388 . S
P96 O107 1.490 . S
P96 C110 1.812 . S
P96 C116 1.803 . S
P96 C122 1.819 . S
H97 C111 0.941 . S
H98 C112 0.939 . S
H99 C114 0.940 . S
H100 C115 0.940 . S
H101 C117 0.939 . S
H102 C118 0.942 . S
H103 C120 0.940 . S
H104 C121 0.939 . S
H105 C123 0.941 . S
H106 C127 0.939 . S
O107 P96 1.490 . S
H108 C124 0.939 . S
H109 C126 0.940 . S
C110 P96 1.812 . S
C110 C111 1.389 . S
C110 C115 1.391 . S
C111 H97 0.941 . S
C111 C110 1.389 . S
C111 C112 1.397 . S
C112 H98 0.939 . S
C112 C111 1.397 . S
C112 C113 1.378 . S
C113 C112 1.378 . S
C113 C114 1.378 . S
C114 H99 0.940 . S
C114 C113 1.378 . S
C114 C115 1.396 . S
C115 H100 0.940 . S
C115 C110 1.391 . S
C115 C114 1.396 . S
C116 P96 1.803 . S
C116 C117 1.378 . S
C116 C121 1.400 . S
C117 H101 0.939 . S
C117 C116 1.378 . S
C117 C118 1.361 . S
C118 H102 0.942 . S
C118 C117 1.361 . S
C118 C119 1.369 . S
C119 C118 1.369 . S
C119 C120 1.404 . S
C120 H103 0.940 . S
C120 C119 1.404 . S
C120 C121 1.389 . S
C121 H104 0.939 . S
C121 C116 1.400 . S
C121 C120 1.389 . S
C122 P96 1.819 . S
C122 C123 1.391 . S
C122 C127 1.391 . S
C123 H105 0.941 . S
C123 C122 1.391 . S
C123 C124 1.396 . S
C124 H108 0.939 . S
C124 C123 1.396 . S
C124 C125 1.397 . S
C125 C124 1.397 . S
C125 C126 1.385 . S
C126 H109 0.940 . S
C126 C125 1.385 . S
C126 C127 1.388 . S
C127 H106 0.939 . S
C127 C122 1.391 . S
C127 C126 1.388 . S
P128 O139 1.490 . S
P128 C142 1.812 . S
P128 C148 1.803 . S
P128 C154 1.819 . S
H129 C143 0.941 . S
H130 C144 0.939 . S
H131 C146 0.940 . S
H132 C147 0.940 . S
H133 C149 0.939 . S
H134 C150 0.942 . S
H135 C152 0.940 . S
H136 C153 0.939 . S
H137 C155 0.941 . S
H138 C159 0.939 . S
O139 P128 1.490 . S
H140 C156 0.939 . S
H141 C158 0.940 . S
C142 P128 1.812 . S
C142 C143 1.389 . S
C142 C147 1.391 . S
C143 H129 0.941 . S
C143 C142 1.389 . S
C143 C144 1.397 . S
C144 H130 0.939 . S
C144 C143 1.397 . S
C144 C145 1.378 . S
C145 C144 1.378 . S
C145 C146 1.378 . S
C146 H131 0.940 . S
C146 C145 1.378 . S
C146 C147 1.396 . S
C147 H132 0.940 . S
C147 C142 1.391 . S
C147 C146 1.396 . S
C148 P128 1.803 . S
C148 C149 1.378 . S
C148 C153 1.400 . S
C149 H133 0.939 . S
C149 C148 1.378 . S
C149 C150 1.361 . S
C150 H134 0.942 . S
C150 C149 1.361 . S
C150 C151 1.369 . S
C151 C150 1.369 . S
C151 C152 1.404 . S
C152 H135 0.940 . S
C152 C151 1.404 . S
C152 C153 1.389 . S
C153 H136 0.939 . S
C153 C148 1.400 . S
C153 C152 1.389 . S
C154 P128 1.819 . S
C154 C155 1.391 . S
C154 C159 1.391 . S
C155 H137 0.941 . S
C155 C154 1.391 . S
C155 C156 1.396 . S
C156 H140 0.939 . S
C156 C155 1.396 . S
C156 C157 1.397 . S
C157 C156 1.397 . S
C157 C158 1.385 . S
C158 H141 0.940 . S
C158 C157 1.385 . S
C158 C159 1.388 . S
C159 H138 0.939 . S
C159 C154 1.391 . S
C159 C158 1.388 . S
P160 O171 1.490 . S
P160 C174 1.812 . S
P160 C180 1.803 . S
P160 C186 1.819 . S
H161 C175 0.941 . S
H162 C176 0.939 . S
H163 C178 0.940 . S
H164 C179 0.940 . S
H165 C181 0.939 . S
H166 C182 0.942 . S
H167 C184 0.940 . S
H168 C185 0.939 . S
H169 C187 0.941 . S
H170 C191 0.939 . S
O171 P160 1.490 . S
H172 C188 0.939 . S
H173 C190 0.940 . S
C174 P160 1.812 . S
C174 C175 1.389 . S
C174 C179 1.391 . S
C175 H161 0.941 . S
C175 C174 1.389 . S
C175 C176 1.397 . S
C176 H162 0.939 . S
C176 C175 1.397 . S
C176 C177 1.378 . S
C177 C176 1.378 . S
C177 C178 1.378 . S
C178 H163 0.940 . S
C178 C177 1.378 . S
C178 C179 1.396 . S
C179 H164 0.940 . S
C179 C174 1.391 . S
C179 C178 1.396 . S
C180 P160 1.803 . S
C180 C181 1.378 . S
C180 C185 1.400 . S
C181 H165 0.939 . S
C181 C180 1.378 . S
C181 C182 1.361 . S
C182 H166 0.942 . S
C182 C181 1.361 . S
C182 C183 1.369 . S
C183 C182 1.369 . S
C183 C184 1.404 . S
C184 H167 0.940 . S
C184 C183 1.404 . S
C184 C185 1.389 . S
C185 H168 0.939 . S
C185 C180 1.400 . S
C185 C184 1.389 . S
C186 P160 1.819 . S
C186 C187 1.391 . S
C186 C191 1.391 . S
C187 H169 0.941 . S
C187 C186 1.391 . S
C187 C188 1.396 . S
C188 H172 0.939 . S
C188 C187 1.396 . S
C188 C189 1.397 . S
C189 C188 1.397 . S
C189 C190 1.385 . S
C190 H173 0.940 . S
C190 C189 1.385 . S
C190 C191 1.388 . S
C191 H170 0.939 . S
C191 C186 1.391 . S
C191 C190 1.388 . S
P192 O203 1.490 . S
P192 C206 1.812 . S
P192 C212 1.803 . S
P192 C218 1.819 . S
H193 C207 0.941 . S
H194 C208 0.939 . S
H195 C210 0.940 . S
H196 C211 0.940 . S
H197 C213 0.939 . S
H198 C214 0.942 . S
H199 C216 0.940 . S
H200 C217 0.939 . S
H201 C219 0.941 . S
H202 C223 0.939 . S
O203 P192 1.490 . S
H204 C220 0.939 . S
H205 C222 0.940 . S
C206 P192 1.812 . S
C206 C207 1.389 . S
C206 C211 1.391 . S
C207 H193 0.941 . S
C207 C206 1.389 . S
C207 C208 1.397 . S
C208 H194 0.939 . S
C208 C207 1.397 . S
C208 C209 1.378 . S
C209 C208 1.378 . S
C209 C210 1.378 . S
C210 H195 0.940 . S
C210 C209 1.378 . S
C210 C211 1.396 . S
C211 H196 0.940 . S
C211 C206 1.391 . S
C211 C210 1.396 . S
C212 P192 1.803 . S
C212 C213 1.378 . S
C212 C217 1.400 . S
C213 H197 0.939 . S
C213 C212 1.378 . S
C213 C214 1.361 . S
C214 H198 0.942 . S
C214 C213 1.361 . S
C214 C215 1.369 . S
C215 C214 1.369 . S
C215 C216 1.404 . S
C216 H199 0.940 . S
C216 C215 1.404 . S
C216 C217 1.389 . S
C217 H200 0.939 . S
C217 C212 1.400 . S
C217 C216 1.389 . S
C218 P192 1.819 . S
C218 C219 1.391 . S
C218 C223 1.391 . S
C219 H201 0.941 . S
C219 C218 1.391 . S
C219 C220 1.396 . S
C220 H204 0.939 . S
C220 C219 1.396 . S
C220 C221 1.397 . S
C221 C220 1.397 . S
C221 C222 1.385 . S
C222 H205 0.940 . S
C222 C221 1.385 . S
C222 C223 1.388 . S
C223 H202 0.939 . S
C223 C218 1.391 . S
C223 C222 1.388 . S
P224 O235 1.490 . S
P224 C238 1.812 . S
P224 C244 1.803 . S
P224 C250 1.819 . S
H225 C239 0.941 . S
H226 C240 0.939 . S
H227 C242 0.940 . S
H228 C243 0.940 . S
H229 C245 0.939 . S
H230 C246 0.942 . S
H231 C248 0.940 . S
H232 C249 0.939 . S
H233 C251 0.941 . S
H234 C255 0.939 . S
O235 P224 1.490 . S
H236 C252 0.939 . S
H237 C254 0.940 . S
C238 P224 1.812 . S
C238 C239 1.389 . S
C238 C243 1.391 . S
C239 H225 0.941 . S
C239 C238 1.389 . S
C239 C240 1.397 . S
C240 H226 0.939 . S
C240 C239 1.397 . S
C240 C241 1.378 . S
C241 C240 1.378 . S
C241 C242 1.378 . S
C242 H227 0.940 . S
C242 C241 1.378 . S
C242 C243 1.396 . S
C243 H228 0.940 . S
C243 C238 1.391 . S
C243 C242 1.396 . S
C244 P224 1.803 . S
C244 C245 1.378 . S
C244 C249 1.400 . S
C245 H229 0.939 . S
C245 C244 1.378 . S
C245 C246 1.361 . S
C246 H230 0.942 . S
C246 C245 1.361 . S
C246 C247 1.369 . S
C247 C246 1.369 . S
C247 C248 1.404 . S
C248 H231 0.940 . S
C248 C247 1.404 . S
C248 C249 1.389 . S
C249 H232 0.939 . S
C249 C244 1.400 . S
C249 C248 1.389 . S
C250 P224 1.819 . S
C250 C251 1.391 . S
C250 C255 1.391 . S
C251 H233 0.941 . S
C251 C250 1.391 . S
C251 C252 1.396 . S
C252 H236 0.939 . S
C252 C251 1.396 . S
C252 C253 1.397 . S
C253 C252 1.397 . S
C253 C254 1.385 . S
C254 H237 0.940 . S
C254 C253 1.385 . S
C254 C255 1.388 . S
C255 H234 0.939 . S
C255 C250 1.391 . S
C255 C254 1.388 . S
Co256 N261 2.057 . S
Co256 O273 2.021 . S
Co256 O276 2.062 . S
Co256 O280 2.117 1_545 S
Co256 O281 2.020 . S
C257 O277 1.259 1_655 S
C257 O280 1.258 . S
Co258 N267 2.057 . S
Co258 O274 2.117 1_565 S
Co258 O275 2.020 1_565 S
Co258 O277 2.021 . S
Co258 O282 2.062 . S
C259 N261 1.316 . S
C259 N262 1.347 . S
C259 H264 0.931 . S
C260 N261 1.396 . S
C260 C263 1.364 . S
C260 H265 0.900 1_545 S
N261 Co256 2.057 . S
N261 C259 1.316 . S
N261 C260 1.396 . S
N262 C259 1.347 . S
N262 C263 1.373 . S
C263 C260 1.364 . S
C263 N262 1.373 . S
C263 H284 0.931 . S
H264 C259 0.931 . S
H265 C260 0.900 1_565 S
C266 O273 1.259 1_455 S
C266 O274 1.258 . S
N267 Co258 2.057 . S
N267 C268 1.316 . S
N267 C269 1.375 1_565 S
C268 N267 1.316 . S
C268 N270 1.347 . S
C268 H279 0.931 . S
C269 N267 1.375 1_545 S
C269 C271 1.350 1_545 S
C269 H278 0.930 . S
N270 C268 1.347 . S
N270 C271 1.373 . S
C271 C269 1.350 1_565 S
C271 N270 1.373 . S
C271 H285 0.931 1_565 S
C272 O275 1.256 . S
C272 O276 1.255 1_455 S
O273 Co256 2.021 . S
O273 C266 1.259 1_655 S
O274 Co258 2.117 1_545 S
O274 C266 1.258 . S
O275 Co258 2.020 1_545 S
O275 C272 1.256 . S
O276 Co256 2.062 . S
O276 C272 1.255 1_655 S
O277 C257 1.259 1_455 S
O277 Co258 2.021 . S
H278 C269 0.930 . S
H279 C268 0.931 . S
O280 Co256 2.117 1_565 S
O280 C257 1.258 . S
O281 Co256 2.020 . S
O281 C283 1.256 1_545 S
O282 Co258 2.062 . S
O282 C283 1.255 1_455 S
C283 O281 1.256 1_565 S
C283 O282 1.255 1_655 S
H284 C263 0.931 . S
H285 C271 0.931 1_545 S
Co286 N291 2.057 1_545 S
Co286 O303 2.021 . S
Co286 O306 2.062 1_545 S
Co286 O310 2.117 1_546 S
Co286 O311 2.020 1_556 S
C287 O307 1.259 . S
C287 O310 1.258 . S
Co288 N297 2.057 . S
Co288 O304 2.117 . S
Co288 O305 2.020 1_545 S
Co288 O307 2.021 1_545 S
Co288 O312 2.062 . S
C289 N291 1.316 . S
C289 N292 1.347 . S
C289 H294 0.931 1_565 S
C290 N291 1.375 . S
C290 C293 1.350 . S
C290 H295 0.930 . S
N291 Co286 2.057 1_565 S
N291 C289 1.316 . S
N291 C290 1.375 . S
N292 C289 1.347 . S
N292 C293 1.373 . S
C293 C290 1.350 . S
C293 N292 1.373 . S
C293 H314 0.931 . S
H294 C289 0.931 1_545 S
H295 C290 0.930 . S
C296 O303 1.259 . S
C296 O304 1.258 1_556 S
N297 Co288 2.057 . S
N297 C298 1.316 . S
N297 C299 1.375 . S
C298 N297 1.316 . S
C298 N300 1.347 . S
C298 H309 0.931 . S
C299 N297 1.375 . S
C299 C301 1.350 . S
C299 H308 0.930 . S
N300 C298 1.347 . S
N300 C301 1.373 . S
C301 C299 1.350 . S
C301 N300 1.373 . S
C301 H315 0.931 . S
C302 O305 1.256 1_556 S
C302 O306 1.255 . S
O303 Co286 2.021 . S
O303 C296 1.259 . S
O304 Co288 2.117 . S
O304 C296 1.258 1_554 S
O305 Co288 2.020 1_565 S
O305 C302 1.256 1_554 S
O306 Co286 2.062 1_565 S
O306 C302 1.255 . S
O307 C287 1.259 . S
O307 Co288 2.021 1_565 S
H308 C299 0.930 . S
H309 C298 0.931 . S
O310 Co286 2.117 1_564 S
O310 C287 1.258 . S
O311 Co286 2.020 1_554 S
O311 C313 1.256 . S
O312 Co288 2.062 . S
O312 C313 1.255 . S
C313 O311 1.256 . S
C313 O312 1.255 . S
H314 C293 0.931 . S
H315 C301 0.931 . S
Co316 N321 2.057 . S
Co316 O333 2.021 . S
Co316 O336 2.062 . S
Co316 O340 2.117 . S
Co316 O341 2.020 . S
C317 O337 1.259 . S
C317 O340 1.258 . S
Co318 N327 2.057 . S
Co318 O334 2.117 . S
Co318 O335 2.020 . S
Co318 O337 2.021 . S
Co318 O342 2.062 . S
C319 N321 1.316 . S
C319 N322 1.347 . S
C319 H324 0.931 . S
C320 N321 1.375 . S
C320 C323 1.350 . S
C320 H325 0.930 . S
N321 Co316 2.057 . S
N321 C319 1.316 . S
N321 C320 1.375 . S
N322 C319 1.347 . S
N322 C323 1.373 . S
C323 C320 1.350 . S
C323 N322 1.373 . S
C323 H344 0.931 . S
H324 C319 0.931 . S
H325 C320 0.930 . S
C326 O333 1.259 . S
C326 O334 1.258 . S
N327 Co318 2.057 . S
N327 C328 1.316 . S
N327 C329 1.375 . S
C328 N327 1.316 . S
C328 N330 1.347 . S
C328 H339 0.931 . S
C329 N327 1.375 . S
C329 C331 1.350 . S
C329 H338 0.930 . S
N330 C328 1.347 . S
N330 C331 1.373 . S
C331 C329 1.350 . S
C331 N330 1.373 . S
C331 H345 0.931 . S
C332 O335 1.256 . S
C332 O336 1.255 . S
O333 Co316 2.021 . S
O333 C326 1.259 . S
O334 Co318 2.117 . S
O334 C326 1.258 . S
O335 Co318 2.020 . S
O335 C332 1.256 . S
O336 Co316 2.062 . S
O336 C332 1.255 . S
O337 C317 1.259 . S
O337 Co318 2.021 . S
H338 C329 0.930 . S
H339 C328 0.931 . S
O340 Co316 2.117 . S
O340 C317 1.258 . S
O341 Co316 2.020 . S
O341 C343 1.256 . S
O342 Co318 2.062 . S
O342 C343 1.255 . S
C343 O341 1.256 . S
C343 O342 1.255 . S
H344 C323 0.931 . S
H345 C331 0.931 . S
Co346 N351 2.057 . S
Co346 O363 2.021 . S
Co346 O366 2.050 1_556 S
Co346 O370 2.117 1_455 S
Co346 O371 2.020 1_455 S
C347 O367 1.281 . S
C347 O370 1.244 1_554 S
Co348 N357 2.057 . S
Co348 O364 2.117 1_655 S
Co348 O365 2.020 1_655 S
Co348 O367 2.021 . S
Co348 O372 2.062 . S
C349 N351 1.316 . S
C349 N352 1.347 . S
C349 H354 0.931 . S
C350 N351 1.375 1_655 S
C350 C353 1.350 1_655 S
C350 H355 0.930 . S
N351 Co346 2.057 . S
N351 C349 1.316 . S
N351 C350 1.375 1_455 S
N352 C349 1.347 . S
N352 C353 1.373 . S
C353 C350 1.350 1_455 S
C353 N352 1.373 . S
C353 H374 0.931 1_455 S
H354 C349 0.931 . S
H355 C350 0.930 . S
C356 O363 1.259 1_554 S
C356 O364 1.258 . S
N357 Co348 2.057 . S
N357 C358 1.316 . S
N357 C359 1.375 1_655 S
C358 N357 1.316 . S
C358 N360 1.347 . S
C358 H369 0.931 . S
C359 N357 1.375 1_455 S
C359 C361 1.350 1_455 S
C359 H368 0.930 . S
N360 C358 1.347 . S
N360 C361 1.373 . S
C361 C359 1.350 1_655 S
C361 N360 1.373 . S
C361 H375 0.931 1_655 S
C362 O365 1.256 . S
C362 O366 1.284 . S
O363 Co346 2.021 . S
O363 C356 1.259 1_556 S
O364 Co348 2.117 1_455 S
O364 C356 1.258 . S
O365 Co348 2.020 1_455 S
O365 C362 1.256 . S
O366 Co346 2.050 1_554 S
O366 C362 1.284 . S
O367 C347 1.281 . S
O367 Co348 2.021 . S
H368 C359 0.930 . S
H369 C358 0.931 . S
O370 Co346 2.117 1_655 S
O370 C347 1.244 1_556 S
O371 Co346 2.020 1_655 S
O371 C373 1.256 . S
O372 Co348 2.062 . S
O372 C373 1.255 1_554 S
C373 O371 1.256 . S
C373 O372 1.255 1_556 S
H374 C353 0.931 1_655 S
H375 C361 0.931 1_455 S
H376 C388 0.930 . S
H377 C390 0.930 . S
H378 C391 0.930 . S
H379 C395 0.959 . S
H380 C395 0.959 . S
H381 C395 0.961 . S
H382 C396 0.960 . S
H383 C396 0.961 . S
H384 C396 0.959 . S
H385 C399 0.929 1_565 S
H386 C400 0.931 1_565 S
H387 C402 0.930 . S
C388 H376 0.930 . S
C388 C389 1.399 . S
C388 C393 1.399 . S
C389 C388 1.399 . S
C389 C390 1.376 . S
C390 H377 0.930 . S
C390 C389 1.376 . S
C390 C391 1.388 . S
C391 H378 0.930 . S
C391 C390 1.388 . S
C391 C392 1.390 . S
C392 C391 1.390 . S
C392 C393 1.394 . S
C392 C398 1.465 . S
C393 C388 1.399 . S
C393 C392 1.394 . S
C393 C394 1.516 . S
C394 C393 1.516 . S
C394 C395 1.502 . S
C394 C396 1.561 . S
C394 C397 1.526 . S
C395 H379 0.959 . S
C395 H380 0.959 . S
C395 H381 0.961 . S
C395 C394 1.502 . S
C396 H382 0.960 . S
C396 H383 0.961 . S
C396 H384 0.959 . S
C396 C394 1.561 . S
C397 C394 1.526 . S
C397 C398 1.396 . S
C397 C402 1.390 . S
C398 C392 1.465 . S
C398 C397 1.396 . S
C398 C399 1.399 . S
C399 H385 0.929 1_545 S
C399 C398 1.399 . S
C399 C400 1.385 . S
C400 H386 0.931 1_545 S
C400 C399 1.385 . S
C400 C401 1.389 . S
C401 C400 1.389 . S
C401 C402 1.387 . S
C402 H387 0.930 . S
C402 C397 1.390 . S
C402 C401 1.387 . S
H403 C415 0.930 . S
H404 C417 0.930 . S
H405 C418 0.930 . S
H406 C422 0.959 . S
H407 C422 0.959 . S
H408 C422 0.961 . S
H409 C423 0.960 . S
H410 C423 0.961 . S
H411 C423 0.959 . S
H412 C426 0.929 1_545 S
H413 C427 0.931 1_545 S
H414 C429 0.930 . S
C415 H403 0.930 . S
C415 C416 1.399 . S
C415 C420 1.399 . S
C416 C415 1.399 . S
C416 C417 1.376 . S
C417 H404 0.930 . S
C417 C416 1.376 . S
C417 C418 1.388 . S
C418 H405 0.930 . S
C418 C417 1.388 . S
C418 C419 1.390 . S
C419 C418 1.390 . S
C419 C420 1.394 . S
C419 C425 1.465 . S
C420 C415 1.399 . S
C420 C419 1.394 . S
C420 C421 1.516 . S
C421 C420 1.516 . S
C421 C422 1.502 . S
C421 C423 1.561 . S
C421 C424 1.526 . S
C422 H406 0.959 . S
C422 H407 0.959 . S
C422 H408 0.961 . S
C422 C421 1.502 . S
C423 H409 0.960 . S
C423 H410 0.961 . S
C423 H411 0.959 . S
C423 C421 1.561 . S
C424 C421 1.526 . S
C424 C425 1.396 . S
C424 C429 1.390 . S
C425 C419 1.465 . S
C425 C424 1.396 . S
C425 C426 1.399 . S
C426 H412 0.929 1_565 S
C426 C425 1.399 . S
C426 C427 1.385 . S
C427 H413 0.931 1_565 S
C427 C426 1.385 . S
C427 C428 1.389 . S
C428 C427 1.389 . S
C428 C429 1.387 . S
C429 H414 0.930 . S
C429 C424 1.390 . S
C429 C428 1.387 . S
H430 C442 0.930 . S
H431 C444 0.930 . S
H432 C445 0.930 . S
H433 C449 0.959 . S
H434 C449 0.959 . S
H435 C449 0.961 . S
H436 C450 0.960 . S
H437 C450 0.961 . S
H438 C450 0.959 . S
H439 C453 0.929 . S
H440 C454 0.931 . S
H441 C456 0.930 . S
C442 H430 0.930 . S
C442 C443 1.399 . S
C442 C447 1.399 . S
C443 C442 1.399 . S
C443 C444 1.376 . S
C444 H431 0.930 . S
C444 C443 1.376 . S
C444 C445 1.388 . S
C445 H432 0.930 . S
C445 C444 1.388 . S
C445 C446 1.390 . S
C446 C445 1.390 . S
C446 C447 1.394 . S
C446 C452 1.465 . S
C447 C442 1.399 . S
C447 C446 1.394 . S
C447 C448 1.516 . S
C448 C447 1.516 . S
C448 C449 1.502 . S
C448 C450 1.561 . S
C448 C451 1.526 . S
C449 H433 0.959 . S
C449 H434 0.959 . S
C449 H435 0.961 . S
C449 C448 1.502 . S
C450 H436 0.960 . S
C450 H437 0.961 . S
C450 H438 0.959 . S
C450 C448 1.561 . S
C451 C448 1.526 . S
C451 C452 1.396 . S
C451 C456 1.390 . S
C452 C446 1.465 . S
C452 C451 1.396 . S
C452 C453 1.399 . S
C453 H439 0.929 . S
C453 C452 1.399 . S
C453 C454 1.385 . S
C454 H440 0.931 . S
C454 C453 1.385 . S
C454 C455 1.389 . S
C455 C454 1.389 . S
C455 C456 1.387 . S
C456 H441 0.930 . S
C456 C451 1.390 . S
C456 C455 1.387 . S
H457 C469 0.930 . S
H458 C471 0.930 . S
H459 C472 0.930 . S
H460 C476 0.959 . S
H461 C476 0.959 . S
H462 C476 0.961 . S
H463 C477 0.960 . S
H464 C477 0.961 . S
H465 C477 0.959 . S
H466 C480 0.929 . S
H467 C481 0.931 . S
H468 C483 0.930 . S
C469 H457 0.930 . S
C469 C470 1.399 . S
C469 C474 1.399 . S
C470 C469 1.399 . S
C470 C471 1.376 . S
C471 H458 0.930 . S
C471 C470 1.376 . S
C471 C472 1.388 . S
C472 H459 0.930 . S
C472 C471 1.388 . S
C472 C473 1.390 . S
C473 C472 1.390 . S
C473 C474 1.394 . S
C473 C479 1.465 . S
C474 C469 1.399 . S
C474 C473 1.394 . S
C474 C475 1.516 . S
C475 C474 1.516 . S
C475 C476 1.502 . S
C475 C477 1.561 . S
C475 C478 1.526 . S
C476 H460 0.959 . S
C476 H461 0.959 . S
C476 H462 0.961 . S
C476 C475 1.502 . S
C477 H463 0.960 . S
C477 H464 0.961 . S
C477 H465 0.959 . S
C477 C475 1.561 . S
C478 C475 1.526 . S
C478 C479 1.396 . S
C478 C483 1.390 . S
C479 C473 1.465 . S
C479 C478 1.396 . S
C479 C480 1.399 . S
C480 H466 0.929 . S
C480 C479 1.399 . S
C480 C481 1.385 . S
C481 H467 0.931 . S
C481 C480 1.385 . S
C481 C482 1.389 . S
C482 C481 1.389 . S
C482 C483 1.387 . S
C483 H468 0.930 . S
C483 C478 1.390 . S
C483 C482 1.387 . S
H484 C496 0.930 . S
H485 C498 0.930 . S
H486 C499 0.930 . S
H487 C503 0.959 . S
H488 C503 0.959 1_556 S
H489 C503 0.961 1_556 S
H490 C504 0.960 . S
H491 C504 0.961 1_556 S
H492 C504 0.959 . S
H493 C507 0.929 . S
H494 C508 0.931 . S
H495 C510 0.930 . S
C496 H484 0.930 . S
C496 C497 1.399 . S
C496 C501 1.399 . S
C497 C496 1.399 . S
C497 C498 1.376 . S
C498 H485 0.930 . S
C498 C497 1.376 . S
C498 C499 1.388 . S
C499 H486 0.930 . S
C499 C498 1.388 . S
C499 C500 1.390 . S
C500 C499 1.390 . S
C500 C501 1.394 . S
C500 C506 1.465 . S
C501 C496 1.399 . S
C501 C500 1.394 . S
C501 C502 1.516 . S
C502 C501 1.516 . S
C502 C503 1.502 . S
C502 C504 1.561 . S
C502 C505 1.526 . S
C503 H487 0.959 . S
C503 H488 0.959 1_554 S
C503 H489 0.961 1_554 S
C503 C502 1.502 . S
C504 H490 0.960 . S
C504 H491 0.961 1_554 S
C504 H492 0.959 . S
C504 C502 1.561 . S
C505 C502 1.526 . S
C505 C506 1.396 . S
C505 C510 1.390 . S
C506 C500 1.465 . S
C506 C505 1.396 . S
C506 C507 1.399 . S
C507 H493 0.929 . S
C507 C506 1.399 . S
C507 C508 1.385 . S
C508 H494 0.931 . S
C508 C507 1.385 . S
C508 C509 1.389 . S
C509 C508 1.389 . S
C509 C510 1.387 . S
C510 H495 0.930 . S
C510 C505 1.390 . S
C510 C509 1.387 . S
H511 C523 0.930 . S
H512 C525 0.930 . S
H513 C526 0.930 . S
H514 C530 0.959 . S
H515 C530 0.959 1_545 S
H516 C530 0.961 1_545 S
H517 C531 0.960 . S
H518 C531 0.961 . S
H519 C531 0.959 . S
H520 C534 0.929 . S
H521 C535 0.931 . S
H522 C537 0.930 . S
C523 H511 0.930 . S
C523 C524 1.399 . S
C523 C528 1.399 . S
C524 C523 1.399 . S
C524 C525 1.376 . S
C525 H512 0.930 . S
C525 C524 1.376 . S
C525 C526 1.388 . S
C526 H513 0.930 . S
C526 C525 1.388 . S
C526 C527 1.390 . S
C527 C526 1.390 . S
C527 C528 1.394 . S
C527 C533 1.465 . S
C528 C523 1.399 . S
C528 C527 1.394 . S
C528 C529 1.516 . S
C529 C528 1.516 . S
C529 C530 1.502 . S
C529 C531 1.561 . S
C529 C532 1.526 . S
C530 H514 0.959 . S
C530 H515 0.959 1_565 S
C530 H516 0.961 1_565 S
C530 C529 1.502 . S
C531 H517 0.960 . S
C531 H518 0.961 . S
C531 H519 0.959 . S
C531 C529 1.561 . S
C532 C529 1.526 . S
C532 C533 1.396 . S
C532 C537 1.390 . S
C533 C527 1.465 . S
C533 C532 1.396 . S
C533 C534 1.399 . S
C534 H520 0.929 . S
C534 C533 1.399 . S
C534 C535 1.385 . S
C535 H521 0.931 . S
C535 C534 1.385 . S
C535 C536 1.389 . S
C536 C535 1.389 . S
C536 C537 1.387 . S
C537 H522 0.930 . S
C537 C532 1.390 . S
C537 C536 1.387 . S
H538 C550 0.930 . S
H539 C552 0.930 . S
H540 C553 0.930 . S
H541 C557 0.959 . S
H542 C557 0.959 . S
H543 C557 0.961 . S
H544 C558 0.960 . S
H545 C558 0.961 1_554 S
H546 C558 0.959 . S
H547 C561 0.929 . S
H548 C562 0.931 . S
H549 C564 0.930 1_554 S
C550 H538 0.930 . S
C550 C551 1.399 . S
C550 C555 1.399 . S
C551 C550 1.399 . S
C551 C552 1.376 . S
C552 H539 0.930 . S
C552 C551 1.376 . S
C552 C553 1.388 . S
C553 H540 0.930 . S
C553 C552 1.388 . S
C553 C554 1.390 . S
C554 C553 1.390 . S
C554 C555 1.394 . S
C554 C560 1.465 . S
C555 C550 1.399 . S
C555 C554 1.394 . S
C555 C556 1.516 . S
C556 C555 1.516 . S
C556 C557 1.502 1_556 S
C556 C558 1.561 . S
C556 C559 1.526 . S
C557 H541 0.959 . S
C557 H542 0.959 . S
C557 H543 0.961 . S
C557 C556 1.502 1_554 S
C558 H544 0.960 . S
C558 H545 0.961 1_556 S
C558 H546 0.959 . S
C558 C556 1.561 . S
C559 C556 1.526 . S
C559 C560 1.396 . S
C559 C564 1.390 . S
C560 C554 1.465 . S
C560 C559 1.396 . S
C560 C561 1.399 . S
C561 H547 0.929 . S
C561 C560 1.399 . S
C561 C562 1.385 . S
C562 H548 0.931 . S
C562 C561 1.385 . S
C562 C563 1.389 . S
C563 C562 1.389 . S
C563 C564 1.387 . S
C564 H549 0.930 1_556 S
C564 C559 1.390 . S
C564 C563 1.387 . S
H565 C577 0.930 . S
H566 C579 0.930 . S
H567 C580 0.930 . S
H568 C584 0.959 . S
H569 C584 0.959 . S
H570 C584 0.961 . S
H571 C585 0.960 . S
H572 C585 0.961 . S
H573 C585 0.959 . S
H574 C588 0.929 . S
H575 C589 0.931 . S
H576 C591 0.930 . S
C577 H565 0.930 . S
C577 C578 1.399 . S
C577 C582 1.399 . S
C578 C577 1.399 . S
C578 C579 1.376 . S
C579 H566 0.930 . S
C579 C578 1.376 . S
C579 C580 1.388 . S
C580 H567 0.930 . S
C580 C579 1.388 . S
C580 C581 1.390 . S
C581 C580 1.390 . S
C581 C582 1.394 . S
C581 C587 1.465 . S
C582 C577 1.399 . S
C582 C581 1.394 . S
C582 C583 1.516 . S
C583 C582 1.516 . S
C583 C584 1.502 . S
C583 C585 1.561 . S
C583 C586 1.526 . S
C584 H568 0.959 . S
C584 H569 0.959 . S
C584 H570 0.961 . S
C584 C583 1.502 . S
C585 H571 0.960 . S
C585 H572 0.961 . S
C585 H573 0.959 . S
C585 C583 1.561 . S
C586 C583 1.526 . S
C586 C587 1.396 . S
C586 C591 1.390 . S
C587 C581 1.465 . S
C587 C586 1.396 . S
C587 C588 1.399 . S
C588 H574 0.929 . S
C588 C587 1.399 . S
C588 C589 1.385 . S
C589 H575 0.931 . S
C589 C588 1.385 . S
C589 C590 1.389 . S
C590 C589 1.389 . S
C590 C591 1.387 . S
C591 H576 0.930 . S
C591 C586 1.390 . S
C591 C590 1.387 . S
H592 C604 0.930 . S
H593 C606 0.930 . S
H594 C607 0.930 . S
H595 C611 0.959 . S
H596 C611 0.959 . S
H597 C611 0.961 . S
H598 C612 0.960 . S
H599 C612 0.961 . S
H600 C612 0.959 1_556 S
H601 C615 0.929 1_655 S
H602 C616 0.903 1_655 S
H603 C618 0.930 . S
C604 H592 0.930 . S
C604 C605 1.399 . S
C604 C609 1.399 . S
C605 C604 1.399 . S
C605 C606 1.376 . S
C606 H593 0.930 . S
C606 C605 1.376 . S
C606 C607 1.388 . S
C607 H594 0.930 . S
C607 C606 1.388 . S
C607 C608 1.390 . S
C608 C607 1.390 . S
C608 C609 1.394 . S
C608 C614 1.465 . S
C609 C604 1.399 . S
C609 C608 1.394 . S
C609 C610 1.516 . S
C610 C609 1.516 . S
C610 C611 1.502 . S
C610 C612 1.561 . S
C610 C613 1.526 . S
C611 H595 0.959 . S
C611 H596 0.959 . S
C611 H597 0.961 . S
C611 C610 1.502 . S
C612 H598 0.960 . S
C612 H599 0.961 . S
C612 H600 0.959 1_554 S
C612 C610 1.561 . S
C613 C610 1.526 . S
C613 C614 1.396 . S
C613 C618 1.390 . S
C614 C608 1.465 . S
C614 C613 1.396 . S
C614 C615 1.399 . S
C615 H601 0.929 1_455 S
C615 C614 1.399 . S
C615 C616 1.388 . S
C616 H602 0.903 1_455 S
C616 C615 1.388 . S
C616 C617 1.414 . S
C617 C616 1.414 . S
C617 C618 1.387 . S
C618 H603 0.930 . S
C618 C613 1.390 . S
C618 C617 1.387 . S
H619 C631 0.930 . S
H620 C633 0.930 . S
H621 C634 0.930 . S
H622 C638 0.959 1_554 S
H623 C638 0.959 . S
H624 C638 0.961 . S
H625 C639 0.960 . S
H626 C639 0.961 . S
H627 C639 0.959 . S
H628 C642 0.929 . S
H629 C643 0.931 . S
H630 C645 0.930 . S
C631 H619 0.930 . S
C631 C632 1.399 . S
C631 C636 1.399 . S
C632 C631 1.399 . S
C632 C633 1.376 . S
C633 H620 0.930 . S
C633 C632 1.376 . S
C633 C634 1.388 . S
C634 H621 0.930 . S
C634 C633 1.388 . S
C634 C635 1.390 . S
C635 C634 1.390 . S
C635 C636 1.394 . S
C635 C641 1.465 . S
C636 C631 1.399 . S
C636 C635 1.394 . S
C636 C637 1.516 . S
C637 C636 1.516 . S
C637 C638 1.502 . S
C637 C639 1.561 . S
C637 C640 1.526 . S
C638 H622 0.959 1_556 S
C638 H623 0.959 . S
C638 H624 0.961 . S
C638 C637 1.502 . S
C639 H625 0.960 . S
C639 H626 0.961 . S
C639 H627 0.959 . S
C639 C637 1.561 . S
C640 C637 1.526 . S
C640 C641 1.396 . S
C640 C645 1.390 . S
C641 C635 1.465 . S
C641 C640 1.396 . S
C641 C642 1.399 . S
C642 H628 0.929 . S
C642 C641 1.399 . S
C642 C643 1.385 . S
C643 H629 0.931 . S
C643 C642 1.385 . S
C643 C644 1.389 . S
C644 C643 1.389 . S
C644 C645 1.387 . S
C645 H630 0.930 . S
C645 C640 1.390 . S
C645 C644 1.387 . S
H646 C658 0.930 . S
H647 C660 0.930 . S
H648 C661 0.930 . S
H649 C665 0.959 . S
H650 C665 0.959 . S
H651 C665 0.961 . S
H652 C666 0.960 . S
H653 C666 0.961 . S
H654 C666 0.959 1_655 S
H655 C669 0.929 . S
H656 C670 0.931 . S
H657 C672 0.930 1_455 S
C658 H646 0.930 . S
C658 C659 1.399 . S
C658 C663 1.399 . S
C659 C658 1.399 . S
C659 C660 1.376 . S
C660 H647 0.930 . S
C660 C659 1.376 . S
C660 C661 1.388 . S
C661 H648 0.930 . S
C661 C660 1.388 . S
C661 C662 1.390 . S
C662 C661 1.390 . S
C662 C663 1.394 . S
C662 C668 1.465 . S
C663 C658 1.399 . S
C663 C662 1.394 . S
C663 C664 1.516 . S
C664 C663 1.516 . S
C664 C665 1.502 1_655 S
C664 C666 1.561 1_655 S
C664 C667 1.526 . S
C665 H649 0.959 . S
C665 H650 0.959 . S
C665 H651 0.961 . S
C665 C664 1.502 1_455 S
C666 H652 0.960 . S
C666 H653 0.961 . S
C666 H654 0.959 1_455 S
C666 C664 1.561 1_455 S
C667 C664 1.526 . S
C667 C668 1.396 . S
C667 C672 1.390 . S
C668 C662 1.465 . S
C668 C667 1.396 . S
C668 C669 1.399 . S
C669 H655 0.929 . S
C669 C668 1.399 . S
C669 C670 1.385 . S
C670 H656 0.931 . S
C670 C669 1.385 . S
C670 C671 1.389 . S
C671 C670 1.389 . S
C671 C672 1.387 . S
C672 H657 0.930 1_655 S
C672 C667 1.390 . S
C672 C671 1.387 . S
H673 C685 0.930 . S
H674 C687 0.930 . S
H675 C688 0.930 . S
H676 C692 0.959 . S
H677 C692 0.959 . S
H678 C692 0.961 . S
H679 C693 0.960 . S
H680 C693 0.961 . S
H681 C693 0.959 . S
H682 C696 0.929 . S
H683 C697 0.931 . S
H684 C699 0.930 . S
C685 H673 0.930 . S
C685 C686 1.399 . S
C685 C690 1.399 . S
C686 C685 1.399 . S
C686 C687 1.376 . S
C687 H674 0.930 . S
C687 C686 1.376 . S
C687 C688 1.388 . S
C688 H675 0.930 . S
C688 C687 1.388 . S
C688 C689 1.390 . S
C689 C688 1.390 . S
C689 C690 1.394 . S
C689 C695 1.465 . S
C690 C685 1.399 . S
C690 C689 1.394 . S
C690 C691 1.516 . S
C691 C690 1.516 . S
C691 C692 1.502 . S
C691 C693 1.561 . S
C691 C694 1.526 . S
C692 H676 0.959 . S
C692 H677 0.959 . S
C692 H678 0.961 . S
C692 C691 1.502 . S
C693 H679 0.960 . S
C693 H680 0.961 . S
C693 H681 0.959 . S
C693 C691 1.561 . S
C694 C691 1.526 . S
C694 C695 1.396 . S
C694 C699 1.390 . S
C695 C689 1.465 . S
C695 C694 1.396 . S
C695 C696 1.399 . S
C696 H682 0.929 . S
C696 C695 1.399 . S
C696 C697 1.385 . S
C697 H683 0.931 . S
C697 C696 1.385 . S
C697 C698 1.389 . S
C698 C697 1.389 . S
C698 C699 1.387 . S
C699 H684 0.930 . S
C699 C694 1.390 . S
C699 C698 1.387 . S
H700 C712 0.930 . S
H701 C714 0.930 . S
H702 C715 0.930 . S
H703 C719 0.959 1_565 S
H704 C719 0.959 . S
H705 C719 0.961 . S
H706 C720 0.960 . S
H707 C720 0.961 . S
H708 C720 0.959 . S
H709 C723 0.929 . S
H710 C724 0.931 . S
H711 C726 0.930 1_545 S
C712 H700 0.930 . S
C712 C713 1.399 . S
C712 C717 1.399 . S
C713 C712 1.399 . S
C713 C714 1.376 . S
C714 H701 0.930 . S
C714 C713 1.376 . S
C714 C715 1.388 . S
C715 H702 0.930 . S
C715 C714 1.388 . S
C715 C716 1.390 . S
C716 C715 1.390 . S
C716 C717 1.394 . S
C716 C722 1.465 . S
C717 C712 1.399 . S
C717 C716 1.394 . S
C717 C718 1.516 . S
C718 C717 1.516 . S
C718 C719 1.502 1_565 S
C718 C720 1.561 1_565 S
C718 C721 1.526 . S
C719 H703 0.959 1_545 S
C719 H704 0.959 . S
C719 H705 0.961 . S
C719 C718 1.502 1_545 S
C720 H706 0.960 . S
C720 H707 0.961 . S
C720 H708 0.959 . S
C720 C718 1.561 1_545 S
C721 C718 1.526 . S
C721 C722 1.396 . S
C721 C726 1.390 . S
C722 C716 1.465 . S
C722 C721 1.396 . S
C722 C723 1.399 . S
C723 H709 0.929 . S
C723 C722 1.399 . S
C723 C724 1.385 . S
C724 H710 0.931 . S
C724 C723 1.385 . S
C724 C725 1.389 . S
C725 C724 1.389 . S
C725 C726 1.387 . S
C726 H711 0.930 1_565 S
C726 C721 1.390 . S
C726 C725 1.387 . S
H727 C739 0.930 . S
H728 C741 0.930 . S
H729 C742 0.930 . S
H730 C746 0.959 . S
H731 C746 0.959 . S
H732 C746 0.961 . S
H733 C747 0.960 . S
H734 C747 0.961 . S
H735 C747 0.959 . S
H736 C750 0.929 . S
H737 C751 0.931 . S
H738 C753 0.930 . S
C739 H727 0.930 . S
C739 C740 1.399 . S
C739 C744 1.399 . S
C740 C739 1.399 . S
C740 C741 1.376 . S
C741 H728 0.930 . S
C741 C740 1.376 . S
C741 C742 1.388 . S
C742 H729 0.930 . S
C742 C741 1.388 . S
C742 C743 1.390 . S
C743 C742 1.390 . S
C743 C744 1.394 . S
C743 C749 1.465 . S
C744 C739 1.399 . S
C744 C743 1.394 . S
C744 C745 1.516 . S
C745 C744 1.516 . S
C745 C746 1.502 . S
C745 C747 1.561 . S
C745 C748 1.526 . S
C746 H730 0.959 . S
C746 H731 0.959 . S
C746 H732 0.961 . S
C746 C745 1.502 . S
C747 H733 0.960 . S
C747 H734 0.961 . S
C747 H735 0.959 . S
C747 C745 1.561 . S
C748 C745 1.526 . S
C748 C749 1.396 . S
C748 C753 1.390 . S
C749 C743 1.465 . S
C749 C748 1.396 . S
C749 C750 1.399 . S
C750 H736 0.929 . S
C750 C749 1.399 . S
C750 C751 1.385 . S
C751 H737 0.931 . S
C751 C750 1.385 . S
C751 C752 1.389 . S
C752 C751 1.389 . S
C752 C753 1.387 . S
C753 H738 0.930 . S
C753 C748 1.390 . S
C753 C752 1.387 . S
H754 C766 0.930 . S
H755 C768 0.930 . S
H756 C769 0.930 . S
H757 C773 0.959 . S
H758 C773 0.959 . S
H759 C773 0.961 . S
H760 C774 0.960 . S
H761 C774 0.961 . S
H762 C774 0.959 . S
H763 C777 0.929 . S
H764 C778 0.931 . S
H765 C780 0.930 . S
C766 H754 0.930 . S
C766 C767 1.399 . S
C766 C771 1.399 . S
C767 C766 1.399 . S
C767 C768 1.376 . S
C768 H755 0.930 . S
C768 C767 1.376 . S
C768 C769 1.388 . S
C769 H756 0.930 . S
C769 C768 1.388 . S
C769 C770 1.390 . S
C770 C769 1.390 . S
C770 C771 1.394 . S
C770 C776 1.465 . S
C771 C766 1.399 . S
C771 C770 1.394 . S
C771 C772 1.516 . S
C772 C771 1.516 . S
C772 C773 1.502 . S
C772 C774 1.561 . S
C772 C775 1.526 . S
C773 H757 0.959 . S
C773 H758 0.959 . S
C773 H759 0.961 . S
C773 C772 1.502 . S
C774 H760 0.960 . S
C774 H761 0.961 . S
C774 H762 0.959 . S
C774 C772 1.561 . S
C775 C772 1.526 . S
C775 C776 1.396 . S
C775 C780 1.390 . S
C776 C770 1.465 . S
C776 C775 1.396 . S
C776 C777 1.399 . S
C777 H763 0.929 . S
C777 C776 1.399 . S
C777 C778 1.385 . S
C778 H764 0.931 . S
C778 C777 1.385 . S
C778 C779 1.389 . S
C779 C778 1.389 . S
C779 C780 1.387 . S
C780 H765 0.930 . S
C780 C775 1.390 . S
C780 C779 1.387 . S
H781 C793 0.930 . S
H782 C795 0.930 . S
H783 C796 0.930 . S
H784 C800 0.964 . S
H785 C800 0.964 . S
H786 C800 0.964 . S
H787 C801 0.960 . S
H788 C801 0.961 . S
H789 C801 0.959 . S
H790 C804 0.929 . S
H791 C805 0.931 . S
H792 C807 0.930 . S
C793 H781 0.930 . S
C793 C794 1.399 . S
C793 C798 1.399 . S
C794 C793 1.399 . S
C794 C795 1.376 . S
C795 H782 0.930 . S
C795 C794 1.376 . S
C795 C796 1.388 . S
C796 H783 0.930 . S
C796 C795 1.388 . S
C796 C797 1.390 . S
C797 C796 1.390 . S
C797 C798 1.394 . S
C797 C803 1.465 . S
C798 C793 1.399 . S
C798 C797 1.394 . S
C798 C799 1.516 . S
C799 C798 1.516 . S
C799 C800 1.490 1_455 S
C799 C801 1.561 . S
C799 C802 1.526 . S
C800 H784 0.964 . S
C800 H785 0.964 . S
C800 H786 0.964 . S
C800 C799 1.490 1_655 S
C801 H787 0.960 . S
C801 H788 0.961 . S
C801 H789 0.959 . S
C801 C799 1.561 . S
C802 C799 1.526 . S
C802 C803 1.396 . S
C802 C807 1.390 . S
C803 C797 1.465 . S
C803 C802 1.396 . S
C803 C804 1.399 . S
C804 H790 0.929 . S
C804 C803 1.399 . S
C804 C805 1.385 . S
C805 H791 0.931 . S
C805 C804 1.385 . S
C805 C806 1.389 . S
C806 C805 1.389 . S
C806 C807 1.387 . S
C807 H792 0.930 . S
C807 C802 1.390 . S
C807 C806 1.387 . S
H808 C820 0.930 . S
H809 C822 0.930 . S
H810 C823 0.930 . S
H811 C827 0.959 . S
H812 C827 0.959 . S
H813 C827 0.961 . S
H814 C828 0.960 . S
H815 C828 0.961 . S
H816 C828 0.959 . S
H817 C831 0.929 1_554 S
H818 C832 0.931 . S
H819 C834 0.930 1_545 S
C820 H808 0.930 . S
C820 C821 1.399 . S
C820 C825 1.399 . S
C821 C820 1.399 . S
C821 C822 1.376 . S
C822 H809 0.930 . S
C822 C821 1.376 . S
C822 C823 1.388 . S
C823 H810 0.930 . S
C823 C822 1.388 . S
C823 C824 1.390 . S
C824 C823 1.390 . S
C824 C825 1.394 . S
C824 C830 1.465 . S
C825 C820 1.399 . S
C825 C824 1.394 . S
C825 C826 1.516 . S
C826 C825 1.516 . S
C826 C827 1.502 1_565 S
C826 C828 1.561 . S
C826 C829 1.526 . S
C827 H811 0.959 . S
C827 H812 0.959 . S
C827 H813 0.961 . S
C827 C826 1.502 1_545 S
C828 H814 0.960 . S
C828 H815 0.961 . S
C828 H816 0.959 . S
C828 C826 1.561 . S
C829 C826 1.526 . S
C829 C830 1.396 . S
C829 C834 1.390 . S
C830 C824 1.465 . S
C830 C829 1.396 . S
C830 C831 1.399 . S
C831 H817 0.929 1_556 S
C831 C830 1.399 . S
C831 C832 1.385 1_556 S
C832 H818 0.931 . S
C832 C831 1.385 1_554 S
C832 C833 1.389 1_554 S
C833 C832 1.389 1_556 S
C833 C834 1.387 . S
C834 H819 0.930 1_565 S
C834 C829 1.390 . S
C834 C833 1.387 . S
H835 C847 0.930 . S
H836 C849 0.930 . S
H837 C850 0.930 . S
H838 C854 0.959 . S
H839 C854 0.959 . S
H840 C854 0.961 . S
H841 C855 0.960 . S
H842 C855 0.961 . S
H843 C855 0.959 . S
H844 C858 0.929 . S
H845 C859 0.931 . S
H846 C861 0.930 . S
C847 H835 0.930 . S
C847 C848 1.399 . S
C847 C852 1.399 . S
C848 C847 1.399 . S
C848 C849 1.376 . S
C849 H836 0.930 . S
C849 C848 1.376 . S
C849 C850 1.388 . S
C850 H837 0.930 . S
C850 C849 1.388 . S
C850 C851 1.390 . S
C851 C850 1.390 . S
C851 C852 1.394 . S
C851 C857 1.465 . S
C852 C847 1.399 . S
C852 C851 1.394 . S
C852 C853 1.516 . S
C853 C852 1.516 . S
C853 C854 1.502 . S
C853 C855 1.561 . S
C853 C856 1.526 . S
C854 H838 0.959 . S
C854 H839 0.959 . S
C854 H840 0.961 . S
C854 C853 1.502 . S
C855 H841 0.960 . S
C855 H842 0.961 . S
C855 H843 0.959 . S
C855 C853 1.561 . S
C856 C853 1.526 . S
C856 C857 1.396 . S
C856 C861 1.390 . S
C857 C851 1.465 . S
C857 C856 1.396 . S
C857 C858 1.399 . S
C858 H844 0.929 . S
C858 C857 1.399 . S
C858 C859 1.385 . S
C859 H845 0.931 . S
C859 C858 1.385 . S
C859 C860 1.389 . S
C860 C859 1.389 . S
C860 C861 1.387 . S
C861 H846 0.930 . S
C861 C856 1.390 . S
C861 C860 1.387 . S
H862 C874 0.930 . S
H863 C876 0.930 . S
H864 C877 0.930 . S
H865 C881 0.959 . S
H866 C881 0.959 . S
H867 C881 0.961 . S
H868 C882 0.960 . S
H869 C882 0.961 . S
H870 C882 0.959 . S
H871 C885 0.932 . S
H872 C886 0.931 1_556 S
H873 C888 0.930 . S
C874 H862 0.930 . S
C874 C875 1.399 . S
C874 C879 1.399 . S
C875 C874 1.399 . S
C875 C876 1.376 . S
C876 H863 0.930 . S
C876 C875 1.376 . S
C876 C877 1.388 . S
C877 H864 0.930 . S
C877 C876 1.388 . S
C877 C878 1.390 . S
C878 C877 1.390 . S
C878 C879 1.394 . S
C878 C884 1.465 . S
C879 C874 1.399 . S
C879 C878 1.394 . S
C879 C880 1.516 . S
C880 C879 1.516 . S
C880 C881 1.502 . S
C880 C882 1.561 . S
C880 C883 1.526 . S
C881 H865 0.959 . S
C881 H866 0.959 . S
C881 H867 0.961 . S
C881 C880 1.502 . S
C882 H868 0.960 . S
C882 H869 0.961 . S
C882 H870 0.959 . S
C882 C880 1.561 . S
C883 C880 1.526 . S
C883 C884 1.396 . S
C883 C888 1.390 . S
C884 C878 1.465 . S
C884 C883 1.396 . S
C884 C885 1.399 . S
C885 H871 0.932 . S
C885 C884 1.399 . S
C885 C886 1.385 . S
C886 H872 0.931 1_554 S
C886 C885 1.385 . S
C886 C887 1.389 . S
C887 C886 1.389 . S
C887 C888 1.387 . S
C888 H873 0.930 . S
C888 C883 1.390 . S
C888 C887 1.387 . S
H889 C901 0.930 . S
H890 C903 0.930 . S
H891 C904 0.930 . S
H892 C908 0.959 . S
H893 C908 0.959 . S
H894 C908 0.961 . S
H895 C909 0.960 . S
H896 C909 0.961 . S
H897 C909 0.959 . S
H898 C912 0.929 . S
H899 C913 0.931 . S
H900 C915 0.930 . S
C901 H889 0.930 . S
C901 C902 1.399 . S
C901 C906 1.399 . S
C902 C901 1.399 . S
C902 C903 1.376 . S
C903 H890 0.930 . S
C903 C902 1.376 . S
C903 C904 1.388 . S
C904 H891 0.930 . S
C904 C903 1.388 . S
C904 C905 1.390 . S
C905 C904 1.390 . S
C905 C906 1.394 . S
C905 C911 1.465 . S
C906 C901 1.399 . S
C906 C905 1.394 . S
C906 C907 1.516 . S
C907 C906 1.516 . S
C907 C908 1.502 . S
C907 C909 1.561 . S
C907 C910 1.526 . S
C908 H892 0.959 . S
C908 H893 0.959 . S
C908 H894 0.961 . S
C908 C907 1.502 . S
C909 H895 0.960 . S
C909 H896 0.961 . S
C909 H897 0.959 . S
C909 C907 1.561 . S
C910 C907 1.526 . S
C910 C911 1.396 . S
C910 C915 1.390 . S
C911 C905 1.465 . S
C911 C910 1.396 . S
C911 C912 1.399 . S
C912 H898 0.929 . S
C912 C911 1.399 . S
C912 C913 1.385 . S
C913 H899 0.931 . S
C913 C912 1.385 . S
C913 C914 1.389 . S
C914 C913 1.389 . S
C914 C915 1.387 . S
C915 H900 0.930 . S
C915 C910 1.390 . S
C915 C914 1.387 . S
H916 C928 0.930 . S
H917 C930 0.930 . S
H918 C931 0.930 1_554 S
H919 C935 0.959 . S
H920 C935 0.959 . S
H921 C935 0.961 . S
H922 C936 0.960 . S
H923 C936 0.961 . S
H924 C936 0.959 . S
H925 C939 0.929 . S
H926 C940 0.931 . S
H927 C942 0.930 . S
C928 H916 0.930 . S
C928 C929 1.399 . S
C928 C933 1.399 . S
C929 C928 1.399 . S
C929 C930 1.376 . S
C930 H917 0.930 . S
C930 C929 1.376 . S
C930 C931 1.388 . S
C931 H918 0.930 1_556 S
C931 C930 1.388 . S
C931 C932 1.390 . S
C932 C931 1.390 . S
C932 C933 1.394 . S
C932 C938 1.465 . S
C933 C928 1.399 . S
C933 C932 1.394 . S
C933 C934 1.516 . S
C934 C933 1.516 . S
C934 C935 1.502 . S
C934 C936 1.561 . S
C934 C937 1.526 . S
C935 H919 0.959 . S
C935 H920 0.959 . S
C935 H921 0.961 . S
C935 C934 1.502 . S
C936 H922 0.960 . S
C936 H923 0.961 . S
C936 H924 0.959 . S
C936 C934 1.561 . S
C937 C934 1.526 . S
C937 C938 1.396 . S
C937 C942 1.390 . S
C938 C932 1.465 . S
C938 C937 1.396 . S
C938 C939 1.399 1_556 S
C939 H925 0.929 . S
C939 C938 1.399 1_554 S
C939 C940 1.385 . S
C940 H926 0.931 . S
C940 C939 1.385 . S
C940 C941 1.389 1_554 S
C941 C940 1.389 1_556 S
C941 C942 1.387 . S
C942 H927 0.930 . S
C942 C937 1.390 . S
C942 C941 1.387 . S
H943 C955 0.930 . S
H944 C957 0.930 . S
H945 C958 0.930 . S
H946 C962 0.959 . S
H947 C962 0.959 . S
H948 C962 0.961 . S
H949 C963 0.960 . S
H950 C963 0.961 . S
H951 C963 0.959 . S
H952 C966 0.929 . S
H953 C967 0.931 . S
H954 C969 0.930 . S
C955 H943 0.930 . S
C955 C956 1.399 . S
C955 C960 1.399 . S
C956 C955 1.399 . S
C956 C957 1.376 . S
C957 H944 0.930 . S
C957 C956 1.376 . S
C957 C958 1.388 . S
C958 H945 0.930 . S
C958 C957 1.388 . S
C958 C959 1.390 . S
C959 C958 1.390 . S
C959 C960 1.394 . S
C959 C965 1.465 . S
C960 C955 1.399 . S
C960 C959 1.394 . S
C960 C961 1.516 . S
C961 C960 1.516 . S
C961 C962 1.502 . S
C961 C963 1.561 . S
C961 C964 1.526 . S
C962 H946 0.959 . S
C962 H947 0.959 . S
C962 H948 0.961 . S
C962 C961 1.502 . S
C963 H949 0.960 . S
C963 H950 0.961 . S
C963 H951 0.959 . S
C963 C961 1.561 . S
C964 C961 1.526 . S
C964 C965 1.396 . S
C964 C969 1.390 . S
C965 C959 1.465 . S
C965 C964 1.396 . S
C965 C966 1.399 . S
C966 H952 0.929 . S
C966 C965 1.399 . S
C966 C967 1.385 . S
C967 H953 0.931 . S
C967 C966 1.385 . S
C967 C968 1.389 . S
C968 C967 1.389 . S
C968 C969 1.387 . S
C969 H954 0.930 . S
C969 C964 1.390 . S
C969 C968 1.387 . S
H970 C982 0.930 . S
H971 C984 0.930 . S
H972 C985 0.930 . S
H973 C989 0.959 . S
H974 C989 0.959 . S
H975 C989 0.961 . S
H976 C990 0.960 . S
H977 C990 0.961 . S
H978 C990 0.959 1_455 S
H979 C993 0.929 . S
H980 C994 0.931 . S
H981 C996 0.930 1_655 S
C982 H970 0.930 . S
C982 C983 1.399 . S
C982 C987 1.399 . S
C983 C982 1.399 . S
C983 C984 1.376 . S
C984 H971 0.930 . S
C984 C983 1.376 . S
C984 C985 1.388 . S
C985 H972 0.930 . S
C985 C984 1.388 . S
C985 C986 1.390 . S
C986 C985 1.390 . S
C986 C987 1.394 . S
C986 C992 1.465 . S
C987 C982 1.399 . S
C987 C986 1.394 . S
C987 C988 1.516 . S
C988 C987 1.516 . S
C988 C989 1.502 1_455 S
C988 C990 1.561 1_455 S
C988 C991 1.526 . S
C989 H973 0.959 . S
C989 H974 0.959 . S
C989 H975 0.961 . S
C989 C988 1.502 1_655 S
C990 H976 0.960 . S
C990 H977 0.961 . S
C990 H978 0.959 1_655 S
C990 C988 1.561 1_655 S
C991 C988 1.526 . S
C991 C992 1.396 . S
C991 C996 1.390 . S
C992 C986 1.465 . S
C992 C991 1.396 . S
C992 C993 1.399 . S
C993 H979 0.929 . S
C993 C992 1.399 . S
C993 C994 1.385 . S
C994 H980 0.931 . S
C994 C993 1.385 . S
C994 C995 1.389 . S
C995 C994 1.389 . S
C995 C996 1.387 . S
C996 H981 0.930 1_455 S
C996 C991 1.390 . S
C996 C995 1.387 . S
H997 C1009 0.930 . S
H998 C1011 0.930 . S
H999 C1012 0.930 . S
H1000 C1016 0.959 . S
H1001 C1016 0.959 . S
H1002 C1016 0.961 . S
H1003 C1017 0.960 . S
H1004 C1017 0.961 . S
H1005 C1017 0.959 . S
H1006 C1020 0.929 . S
H1007 C1021 0.931 . S
H1008 C1023 0.930 . S
C1009 H997 0.930 . S
C1009 C1010 1.399 . S
C1009 C1014 1.399 . S
C1010 C1009 1.399 . S
C1010 C1011 1.376 . S
C1011 H998 0.930 . S
C1011 C1010 1.376 . S
C1011 C1012 1.388 . S
C1012 H999 0.930 . S
C1012 C1011 1.388 . S
C1012 C1013 1.390 . S
C1013 C1012 1.390 . S
C1013 C1014 1.394 . S
C1013 C1019 1.465 . S
C1014 C1009 1.399 . S
C1014 C1013 1.394 . S
C1014 C1015 1.516 . S
C1015 C1014 1.516 . S
C1015 C1016 1.502 . S
C1015 C1017 1.561 . S
C1015 C1018 1.526 . S
C1016 H1000 0.959 . S
C1016 H1001 0.959 . S
C1016 H1002 0.961 . S
C1016 C1015 1.502 . S
C1017 H1003 0.960 . S
C1017 H1004 0.961 . S
C1017 H1005 0.959 . S
C1017 C1015 1.561 . S
C1018 C1015 1.526 . S
C1018 C1019 1.396 . S
C1018 C1023 1.390 . S
C1019 C1013 1.465 . S
C1019 C1018 1.396 . S
C1019 C1020 1.399 . S
C1020 H1006 0.929 . S
C1020 C1019 1.399 . S
C1020 C1021 1.385 . S
C1021 H1007 0.931 . S
C1021 C1020 1.385 . S
C1021 C1022 1.389 . S
C1022 C1021 1.389 . S
C1022 C1023 1.387 . S
C1023 H1008 0.930 . S
C1023 C1018 1.390 . S
C1023 C1022 1.387 . S
C389 C29 2.113 . S
C401 C272 2.192 . S
C416 C49 1.070 . S
C428 N292 1.100 . S
C455 C326 2.014 . S
C443 C93 1.871 . S
C470 C119 1.128 . S
C482 N360 1.232 . S
C509 C313 2.295 . S
C497 C17 2.178 . S
C536 N270 1.228 . S
C524 C61 1.241 . S
C563 C347 1.965 1_556 S
C551 C81 1.874 . S
C590 N322 1.051 . S
C578 C125 0.956 . S
C605 C23 1.734 . S
C617 C362 1.790 . S
C644 C296 1.681 . S
C632 C87 1.547 . S
C659 C113 1.349 . S
C671 C257 1.486 . S
C686 C55 1.430 . S
C698 C343 1.416 . S
C725 C283 2.134 . S
C713 C157 2.108 . S
C740 C189 1.135 . S
C752 N300 1.125 . S
C767 C221 1.962 . S
C779 C317 1.983 . S
C794 C253 1.195 . S
C806 N352 1.287 . S
C821 C145 2.336 . S
C833 C302 2.344 . S
C860 N262 1.054 . S
C848 C183 1.159 . S
C887 C356 2.003 . S
C875 C209 1.982 . S
C914 N330 0.998 . S
C902 C247 0.938 . S
C929 C151 1.798 . S
C941 C373 1.803 . S
C968 C287 1.674 . S
C956 C215 1.677 . S
C995 C266 1.481 . S
C983 C241 1.335 . S
C1010 C177 1.327 . S
C1022 C332 1.471 . S
