# Generated by pormake.
# Topology zzz, (3,6)-cn, num edge types: 1
# Building blocks:
#     Node 0, Type 0, BuildingBlock: KAKCAD_clean_linker_0, # of connection points: 3
#     Node 1, Type 0, BuildingBlock: KAKCAD_clean_linker_0, # of connection points: 3
#     Node 2, Type 0, BuildingBlock: KAKCAD_clean_linker_0, # of connection points: 3
#     Node 3, Type 0, BuildingBlock: KAKCAD_clean_linker_0, # of connection points: 3
#     Node 4, Type 0, BuildingBlock: KAKCAD_clean_linker_0, # of connection points: 3
#     Node 5, Type 0, BuildingBlock: KAKCAD_clean_linker_0, # of connection points: 3
#     Node 6, Type 0, BuildingBlock: KAKCAD_clean_linker_0, # of connection points: 3
#     Node 7, Type 0, BuildingBlock: KAKCAD_clean_linker_0, # of connection points: 3
#     Node 8, Type 1, BuildingBlock: BETGAK_clean_sbu_0, # of connection points: 6
#     Node 9, Type 1, BuildingBlock: BETGAK_clean_sbu_0, # of connection points: 6
#     Node 10, Type 1, BuildingBlock: BETGAK_clean_sbu_0, # of connection points: 6
#     Node 11, Type 1, BuildingBlock: BETGAK_clean_sbu_0, # of connection points: 6
#     Edge 12, Type (0, 1), BuildingBlock: CIFDUS_clean_linker_0, # of connection points: 2
#     Edge 13, Type (0, 1), BuildingBlock: CIFDUS_clean_linker_0, # of connection points: 2
#     Edge 14, Type (0, 1), BuildingBlock: CIFDUS_clean_linker_0, # of connection points: 2
#     Edge 15, Type (0, 1), BuildingBlock: CIFDUS_clean_linker_0, # of connection points: 2
#     Edge 16, Type (0, 1), BuildingBlock: CIFDUS_clean_linker_0, # of connection points: 2
#     Edge 17, Type (0, 1), BuildingBlock: CIFDUS_clean_linker_0, # of connection points: 2
#     Edge 18, Type (0, 1), BuildingBlock: CIFDUS_clean_linker_0, # of connection points: 2
#     Edge 19, Type (0, 1), BuildingBlock: CIFDUS_clean_linker_0, # of connection points: 2
#     Edge 20, Type (0, 1), BuildingBlock: CIFDUS_clean_linker_0, # of connection points: 2
#     Edge 21, Type (0, 1), BuildingBlock: CIFDUS_clean_linker_0, # of connection points: 2
#     Edge 22, Type (0, 1), BuildingBlock: CIFDUS_clean_linker_0, # of connection points: 2
#     Edge 23, Type (0, 1), BuildingBlock: CIFDUS_clean_linker_0, # of connection points: 2
#     Edge 24, Type (0, 1), BuildingBlock: CIFDUS_clean_linker_0, # of connection points: 2
#     Edge 25, Type (0, 1), BuildingBlock: CIFDUS_clean_linker_0, # of connection points: 2
#     Edge 26, Type (0, 1), BuildingBlock: CIFDUS_clean_linker_0, # of connection points: 2
#     Edge 27, Type (0, 1), BuildingBlock: CIFDUS_clean_linker_0, # of connection points: 2
#     Edge 28, Type (0, 1), BuildingBlock: CIFDUS_clean_linker_0, # of connection points: 2
#     Edge 29, Type (0, 1), BuildingBlock: CIFDUS_clean_linker_0, # of connection points: 2
#     Edge 30, Type (0, 1), BuildingBlock: CIFDUS_clean_linker_0, # of connection points: 2
#     Edge 31, Type (0, 1), BuildingBlock: CIFDUS_clean_linker_0, # of connection points: 2
#     Edge 32, Type (0, 1), BuildingBlock: CIFDUS_clean_linker_0, # of connection points: 2
#     Edge 33, Type (0, 1), BuildingBlock: CIFDUS_clean_linker_0, # of connection points: 2
#     Edge 34, Type (0, 1), BuildingBlock: CIFDUS_clean_linker_0, # of connection points: 2
#     Edge 35, Type (0, 1), BuildingBlock: CIFDUS_clean_linker_0, # of connection points: 2
# Relax obj value: 0.471
# Max RMSD: 0.267
# Mean RMSD: 0.253
data_MOF--net-zzz--node1-BETGAK_clean_sbu_0--node2-KAKCAD_clean_linker_0--edge1-CIFDUS_clean_linker_0
_symmetry_space_group_name_H-M    P1
_symmetry_Int_Tables_number       1
_symmetry_cell_setting            triclinic
loop_
_symmetry_equiv_pos_as_xyz
'x, y, z'
_cell_length_a     52.936792
_cell_length_b     52.829993
_cell_length_c     16.429465
_cell_angle_alpha  89.486028
_cell_angle_beta   90.056352
_cell_angle_gamma 89.896553
loop_
_atom_site_label
_atom_site_type_symbol
_atom_site_fract_x
_atom_site_fract_y
_atom_site_fract_z
_atom_type_partial_charge
C0 C 0.7774 0.5076 0.09524 0.0
C1 C 0.79208 0.48556 0.09749 0.0
C2 C 0.76041 0.51236 0.15791 0.0
C3 C 0.75847 0.49528 0.22357 0.0
C4 C 0.77125 0.47211 0.22151 0.0
C5 C 0.78781 0.46713 0.15792 0.0
C6 C 0.74662 0.50378 0.2989 0.0
C7 C 0.72145 0.51095 0.29789 0.0
C8 C 0.71069 0.52384 0.36312 0.0
C9 C 0.72626 0.52995 0.43164 0.0
C10 C 0.75213 0.52179 0.43382 0.0
C11 C 0.76162 0.50848 0.36704 0.0
C12 C 0.77135 0.52822 0.49828 0.0
C13 C 0.78463 0.55119 0.49292 0.0
C14 C 0.78213 0.50877 0.54647 0.0
C15 C 0.80574 0.51185 0.58545 0.0
C16 C 0.81995 0.53437 0.57629 0.0
C17 C 0.68369 0.53134 0.34923 0.0
C18 C 0.67877 0.55328 0.30257 0.0
C19 C 0.66527 0.51208 0.3486 0.0
C20 C 0.64409 0.51352 0.29657 0.0
C21 C 0.64059 0.53433 0.24317 0.0
C22 C 0.65758 0.55479 0.25067 0.0
C23 C 0.8084 0.5542 0.53079 0.0
H24 H 0.78099 0.52223 0.05007 0.0
H25 H 0.75071 0.53043 0.15921 0.0
H26 H 0.76988 0.45883 0.27194 0.0
H27 H 0.79948 0.45026 0.16109 0.0
H28 H 0.71031 0.50729 0.24369 0.0
H29 H 0.78145 0.50323 0.36561 0.0
H30 H 0.71855 0.54079 0.4814 0.0
H31 H 0.77757 0.56625 0.45388 0.0
H32 H 0.77293 0.49049 0.55006 0.0
H33 H 0.81309 0.49611 0.62079 0.0
H34 H 0.69276 0.5682 0.2995 0.0
H35 H 0.66873 0.49455 0.38151 0.0
H36 H 0.81825 0.57179 0.51971 0.0
H37 H 0.65537 0.57154 0.21288 0.0
H38 H 0.6317 0.49728 0.29353 0.0
C39 C 0.02245 0.77998 0.07693 0.0
C40 C 0.04412 0.79509 0.08467 0.0
C41 C 1.01275 0.76721 0.14489 0.0
C42 C 0.02436 0.76993 0.22121 0.0
C43 C 0.04617 0.78469 0.22835 0.0
C44 C 0.05597 0.7971 0.16083 0.0
C45 C 1.01505 0.75638 0.29352 0.0
C46 C 1.01254 0.73025 0.29137 0.0
C47 C 1.00926 0.71599 0.36276 0.0
C48 C 1.00731 0.72892 0.43886 0.0
C49 C 1.00899 0.75599 0.44056 0.0
C50 C 1.01258 0.76909 0.36706 0.0
C51 C 1.00862 0.77246 0.51485 0.0
C52 C 0.98547 0.78142 0.54511 0.0
C53 C 0.03051 0.78648 0.53374 0.0
C54 C 0.02903 0.80989 0.57411 0.0
C55 C 1.00555 0.82016 0.59752 0.0
C56 C 1.01021 0.68789 0.35044 0.0
C57 C 0.98771 0.67451 0.33572 0.0
C58 C 0.03291 0.6774 0.32078 0.0
C59 C 0.03286 0.65581 0.27122 0.0
C60 C 1.01012 0.64359 0.25096 0.0
C61 C 0.9877 0.6525 0.28748 0.0
C62 C 0.98398 0.80471 0.58641 0.0
H63 H 1.0128 0.77853 0.019 0.0
H64 H 0.99598 0.75568 0.13835 0.0
H65 H 0.05567 0.78666 0.28642 0.0
H66 H 0.07224 0.80922 0.16919 0.0
H67 H 1.01487 0.72066 0.23365 0.0
H68 H 1.01444 0.78955 0.36732 0.0
H69 H 1.00526 0.71825 0.49501 0.0
H70 H 0.96814 0.77156 0.53049 0.0
H71 H 0.04861 0.7806 0.50961 0.0
H72 H 0.04618 0.8208 0.58071 0.0
H73 H 0.9698 0.68236 0.35505 0.0
H74 H 0.05052 0.68752 0.32874 0.0
H75 H 0.96555 0.81124 0.60554 0.0
H76 H 0.9698 0.64366 0.27353 0.0
H77 H 0.05055 0.64941 0.24545 0.0
C78 C 0.75931 1.00025 0.11386 0.0
C79 C 0.7457 0.0224 0.09491 0.0
C80 C 0.77581 0.99989 0.18003 0.0
C81 C 0.77866 1.02165 0.22713 0.0
C82 C 0.76721 0.04437 0.20333 0.0
C83 C 0.75095 0.04483 0.13711 0.0
C84 C 0.79163 1.02037 0.30522 0.0
C85 C 0.81773 1.0196 0.30717 0.0
C86 C 0.83088 1.02083 0.38075 0.0
C87 C 0.81678 0.02213 0.45535 0.0
C88 C 0.78963 0.02221 0.45302 0.0
C89 C 0.77772 1.02155 0.37701 0.0
C90 C 0.77186 0.02339 0.52475 0.0
C91 C 0.75981 1.00108 0.55193 0.0
C92 C 0.76013 0.04656 0.54399 0.0
C93 C 0.73666 0.04737 0.58499 0.0
C94 C 0.72373 0.02499 0.60771 0.0
C95 C 0.85904 1.02177 0.37043 0.0
C96 C 0.87178 0.99931 0.34947 0.0
C97 C 0.86994 0.04481 0.34462 0.0
C98 C 0.89124 0.04528 0.29301 0.0
C99 C 0.90253 0.02268 0.26527 0.0
C100 C 0.89317 0.99974 0.2982 0.0
C101 C 0.73634 1.00185 0.59294 0.0
H102 H 0.75556 0.98279 0.08199 0.0
H103 H 0.78489 0.9823 0.19784 0.0
H104 H 0.76961 0.06134 0.23912 0.0
H105 H 0.74054 0.06211 0.12466 0.0
H106 H 0.82799 1.01894 0.24997 0.0
H107 H 0.75724 0.02214 0.37344 0.0
H108 H 0.82658 0.02316 0.51306 0.0
H109 H 0.76765 0.98283 0.53598 0.0
H110 H 0.76813 0.06411 0.52131 0.0
H111 H 0.7279 0.06567 0.59379 0.0
H112 H 0.86365 0.98116 0.36585 0.0
H113 H 0.86026 0.06246 0.35671 0.0
H114 H 0.72764 0.98408 0.61032 0.0
H115 H 0.90149 0.98185 0.281 0.0
H116 H 0.89745 0.06345 0.26971 0.0
C117 C 0.49706 0.74481 0.62843 0.0
C118 C 0.51836 0.72879 0.62227 0.0
C119 C 0.49638 0.76876 0.58907 0.0
C120 C 0.51714 0.77785 0.54363 0.0
C121 C 0.53919 0.7628 0.54395 0.0
C122 C 0.53977 0.73875 0.58212 0.0
C123 C 0.51248 0.79498 0.4712 0.0
C124 C 0.51812 0.82149 0.46396 0.0
C125 C 0.51518 0.83417 0.38671 0.0
C126 C 0.50801 0.81991 0.31911 0.0
C127 C 0.50422 0.79397 0.32556 0.0
C128 C 0.50475 0.78213 0.40163 0.0
C129 C 0.50551 0.77835 0.25229 0.0
C130 C 0.49065 0.78349 0.18331 0.0
C131 C 0.52315 0.75858 0.25074 0.0
C132 C 0.52502 0.74324 0.18338 0.0
C133 C 0.50946 0.74742 0.11527 0.0
C134 C 0.52203 0.86113 0.36632 0.0
C135 C 0.50289 0.87974 0.36201 0.0
C136 C 0.54394 0.86527 0.31929 0.0
C137 C 0.54556 0.8857 0.26386 0.0
C138 C 0.52558 0.90314 0.25471 0.0
C139 C 0.50478 0.90064 0.30779 0.0
C140 C 0.49251 0.76796 0.11508 0.0
H141 H 0.48011 0.73806 0.65831 0.0
H142 H 0.47872 0.77914 0.58789 0.0
H143 H 0.55527 0.76854 0.50746 0.0
H144 H 0.55673 0.7274 0.57671 0.0
H145 H 0.5251 0.83176 0.51605 0.0
H146 H 0.50141 0.76186 0.40528 0.0
H147 H 0.50757 0.82876 0.25921 0.0
H148 H 0.47723 0.799 0.18309 0.0
H149 H 0.53538 0.75472 0.30236 0.0
H150 H 0.53784 0.72726 0.18682 0.0
H151 H 0.48537 0.87686 0.39481 0.0
H152 H 0.55871 0.85104 0.31859 0.0
H153 H 0.48028 0.77153 0.06335 0.0
H154 H 0.48898 0.91361 0.30253 0.0
H155 H 0.56191 0.88699 0.22447 0.0
C156 C 0.26072 0.54093 0.3733 0.0
C157 C 0.24036 0.52411 0.37992 0.0
C158 C 0.27908 0.53706 0.31393 0.0
C159 C 0.277 0.51641 0.26119 0.0
C160 C 0.25871 0.49781 0.27563 0.0
C161 C 0.24057 0.50153 0.3355 0.0
C162 C 0.29063 0.51688 0.18363 0.0
C163 C 0.31673 0.51897 0.18289 0.0
C164 C 0.33002 0.52186 0.10993 0.0
C165 C 0.31613 0.52329 0.03487 0.0
C166 C 0.28909 0.52116 0.03568 0.0
C167 C 0.27703 0.51773 0.11077 0.0
C168 C 0.27159 0.52274 0.96309 0.0
C169 C 0.26167 0.54633 0.93776 0.0
C170 C 0.25823 0.50092 0.93961 0.0
C171 C 0.23516 0.50259 0.89663 0.0
C172 C 0.22429 0.52623 0.87574 0.0
C173 C 0.35815 0.52319 0.12072 0.0
C174 C 0.36891 0.54613 0.14664 0.0
C175 C 0.37118 0.50067 0.14054 0.0
C176 C 0.39278 0.50087 0.19086 0.0
C177 C 0.40221 0.52365 0.22319 0.0
C178 C 0.39063 0.54639 0.19662 0.0
C179 C 0.23857 0.54804 0.89439 0.0
H180 H 0.26078 0.55852 0.40672 0.0
H181 H 0.2932 0.55155 0.30355 0.0
H182 H 0.25712 0.48161 0.23596 0.0
H183 H 0.225 0.48831 0.34029 0.0
H184 H 0.32686 0.51843 0.24041 0.0
H185 H 0.25656 0.51666 0.11288 0.0
H186 H 0.32603 0.52586 0.9778 0.0
H187 H 0.27076 0.56361 0.95713 0.0
H188 H 0.2647 0.48245 0.95996 0.0
H189 H 0.22536 0.48521 0.88252 0.0
H190 H 0.35902 0.56379 0.13536 0.0
H191 H 0.36313 0.48258 0.12406 0.0
H192 H 0.23111 0.56667 0.88038 0.0
H193 H 0.39704 0.5644 0.21972 0.0
H194 H 0.40131 0.48295 0.20783 0.0
C195 C 1.00959 0.25906 0.3839 0.0
C196 C 0.02542 0.23776 0.38572 0.0
C197 C 1.01357 0.278 0.32581 0.0
C198 C 0.03338 0.27559 0.26969 0.0
C199 C 0.05133 0.25631 0.27994 0.0
C200 C 0.04744 0.2375 0.33824 0.0
C201 C 0.03224 0.28971 0.19251 0.0
C202 C 0.02999 0.31586 0.19214 0.0
C203 C 0.02714 0.32949 0.11929 0.0
C204 C 0.0261 0.31597 0.04404 0.0
C205 C 0.02792 0.28889 0.04473 0.0
C206 C 0.03117 0.27644 0.11953 0.0
C207 C 0.02702 0.27164 0.97224 0.0
C208 C 1.00427 0.2591 0.95292 0.0
C209 C 0.0497 0.26028 0.94647 0.0
C210 C 0.04983 0.23627 0.90971 0.0
C211 C 0.02724 0.22274 0.89665 0.0
C212 C 0.02654 0.35764 0.13003 0.0
C213 C 1.00487 0.36861 0.1655 0.0
C214 C 0.04976 0.37004 0.14159 0.0
C215 C 0.0518 0.39059 0.19514 0.0
C216 C 0.03062 0.39965 0.23811 0.0
C217 C 1.00686 0.38941 0.21852 0.0
C218 C 1.00435 0.23513 0.91497 0.0
H219 H 0.99246 0.25951 0.41992 0.0
H220 H 0.99959 0.29288 0.31887 0.0
H221 H 0.06695 0.25446 0.23778 0.0
H222 H 0.05992 0.22121 0.3394 0.0
H223 H 0.03072 0.32579 0.2497 0.0
H224 H 0.03227 0.25591 0.12116 0.0
H225 H 0.02399 0.32616 0.98698 0.0
H226 H 0.98647 0.26669 0.9743 0.0
H227 H 0.06762 0.26878 0.96249 0.0
H228 H 0.06785 0.2275 0.89639 0.0
H229 H 0.98679 0.35919 0.16013 0.0
H230 H 0.06693 0.36185 0.11739 0.0
H231 H 0.98659 0.22535 0.90667 0.0
H232 H 0.99013 0.39575 0.25038 0.0
H233 H 0.07039 0.39811 0.20797 0.0
C234 C 0.27893 1.01193 0.39384 0.0
C235 C 0.30047 0.0271 0.40051 0.0
C236 C 0.26162 1.01659 0.33172 0.0
C237 C 0.266 0.03625 0.27541 0.0
C238 C 0.28586 0.05324 0.28831 0.0
C239 C 0.30296 0.04879 0.3513 0.0
C240 C 0.25257 0.03607 0.19721 0.0
C241 C 0.22648 0.03386 0.19607 0.0
C242 C 0.21329 0.02999 0.12355 0.0
C243 C 0.22721 0.0284 0.04885 0.0
C244 C 0.25422 0.03082 0.04988 0.0
C245 C 0.26623 0.03482 0.12468 0.0
C246 C 0.27178 0.02931 0.97778 0.0
C247 C 0.28495 1.00656 0.9624 0.0
C248 C 0.28239 0.05186 0.9469 0.0
C249 C 0.30616 0.05196 0.90807 0.0
C250 C 0.32028 0.02948 0.89836 0.0
C251 C 0.18521 0.02812 0.13478 0.0
C252 C 0.17536 1.00587 0.17106 0.0
C253 C 0.17179 0.0508 0.14724 0.0
C254 C 0.15145 0.05184 0.20237 0.0
C255 C 0.1435 0.03014 0.24575 0.0
C256 C 0.15475 1.00685 0.22561 0.0
C257 C 0.30868 1.00661 0.92261 0.0
H258 H 0.277 0.99493 0.43068 0.0
H259 H 0.24637 1.00325 0.32267 0.0
H260 H 0.28933 0.06864 0.24577 0.0
H261 H 0.31972 0.06047 0.35507 0.0
H262 H 0.21625 0.03481 0.25327 0.0
H263 H 0.28669 0.03599 0.12682 0.0
H264 H 0.21739 0.02533 0.99198 0.0
H265 H 0.27797 0.98892 0.98774 0.0
H266 H 0.27339 0.06983 0.95962 0.0
H267 H 0.31419 0.06998 0.88987 0.0
H268 H 0.18558 0.9882 0.1653 0.0
H269 H 0.1791 0.06842 0.12267 0.0
H270 H 0.31887 0.98892 0.91705 0.0
H271 H 0.14934 0.98978 0.25812 0.0
H272 H 0.14327 0.07011 0.2162 0.0
C273 C 0.49509 0.30488 0.89411 0.0
C274 C 0.51667 0.32033 0.88393 0.0
C275 C 0.49664 0.28071 0.93135 0.0
C276 C 0.51981 0.27091 0.9598 0.0
C277 C 0.54167 0.28546 0.94382 0.0
C278 C 0.54017 0.30961 0.9059 0.0
C279 C 0.51973 0.25255 0.03085 0.0
C280 C 0.521 0.2254 0.02762 0.0
C281 C 0.52057 0.21077 0.10186 0.0
C282 C 0.51881 0.2234 0.17596 0.0
C283 C 0.51747 0.24949 0.17857 0.0
C284 C 0.51792 0.26392 0.10722 0.0
C285 C 0.51721 0.26221 0.25667 0.0
C286 C 0.49444 0.27132 0.28809 0.0
C287 C 0.54019 0.26898 0.29209 0.0
C288 C 0.54067 0.28744 0.35171 0.0
C289 C 0.51809 0.29932 0.37558 0.0
C290 C 0.52209 0.18252 0.11114 0.0
C291 C 0.4997 0.16921 0.1291 0.0
C292 C 0.54496 0.17193 0.13949 0.0
C293 C 0.54522 0.15035 0.19075 0.0
C294 C 0.52255 0.1385 0.2156 0.0
C295 C 0.49991 0.14758 0.18019 0.0
C296 C 0.49486 0.28961 0.34854 0.0
H297 H 0.47662 0.31207 0.87728 0.0
H298 H 0.47928 0.27066 0.94461 0.0
H299 H 0.55975 0.27913 0.96734 0.0
H300 H 0.55726 0.3207 0.89991 0.0
H301 H 0.52238 0.21599 0.96953 0.0
H302 H 0.51705 0.28441 0.11146 0.0
H303 H 0.51871 0.21277 0.23289 0.0
H304 H 0.47657 0.26593 0.2612 0.0
H305 H 0.55787 0.26184 0.26809 0.0
H306 H 0.55888 0.2945 0.37108 0.0
H307 H 0.48165 0.17708 0.11068 0.0
H308 H 0.56251 0.18204 0.12972 0.0
H309 H 0.47721 0.29819 0.36715 0.0
H310 H 0.48204 0.13882 0.19533 0.0
H311 H 0.56314 0.14433 0.21611 0.0
La312 La 0.03891 1.02088 0.7934 0.0
La313 La 0.99531 0.02258 0.69544 0.0
C314 C 0.07074 1.00825 0.89965 0.0
C315 C 0.0743 0.98237 0.93205 0.0
C316 C 0.09062 0.96554 0.89186 0.0
C317 C 0.08679 0.93947 0.89822 0.0
C318 C 0.06661 0.93007 0.94469 0.0
C319 C 0.05276 0.94668 0.99376 0.0
C320 C 0.05674 0.97262 0.98816 0.0
C321 C 0.05021 0.03113 0.6381 0.0
C322 C 1.01638 0.96849 0.72366 0.0
C323 C 0.96303 0.03278 0.58734 0.0
C324 C 0.96131 0.05454 0.53103 0.0
C325 C 0.94546 0.07503 0.54956 0.0
C326 C 0.94869 0.09825 0.51003 0.0
C327 C 0.96771 0.10119 0.4512 0.0
C328 C 0.98162 0.07996 0.42654 0.0
C329 C 0.97837 0.0568 0.46584 0.0
C330 C 0.98415 1.0104 0.84897 0.0
C331 C 1.01842 0.07479 0.7632 0.0
O332 O 0.0764 1.01133 0.82286 0.0
O333 O 0.04904 1.01879 0.91675 0.0
O334 O 0.06052 0.04172 0.70073 0.0
O335 O 0.03396 1.01542 0.66409 0.0
O336 O 0.03097 0.97971 0.7783 0.0
O337 O 1.00124 0.98222 0.6775 0.0
O338 O 0.95986 0.03787 0.66439 0.0
O339 O 0.98231 1.01774 0.57631 0.0
O340 O 0.97422 1.00053 0.78483 0.0
O341 O 0.99985 0.02714 0.82589 0.0
O342 O 1.00532 0.06358 0.70458 0.0
O343 O 0.03207 0.06089 0.81356 0.0
H344 H 0.10466 0.97252 0.84934 0.0
H345 H 0.0981 0.92693 0.86126 0.0
H346 H 0.03783 0.93971 0.03305 0.0
H347 H 0.04431 0.98502 0.02183 0.0
H348 H 0.93184 0.07363 0.59856 0.0
H349 H 0.93737 0.11427 0.52878 0.0
H350 H 0.99646 0.08165 0.38148 0.0
H351 H 0.99064 0.04126 0.44905 0.0
La352 La 0.52133 0.03948 0.77572 0.0
La353 La 0.51735 0.99683 0.66863 0.0
C354 C 0.53399 0.06997 0.88388 0.0
C355 C 0.55743 0.06743 0.92984 0.0
C356 C 0.57303 0.08843 0.94243 0.0
C357 C 0.59859 0.08481 0.96084 0.0
C358 C 0.60878 0.06016 0.96469 0.0
C359 C 0.59256 0.03935 0.95619 0.0
C360 C 0.56716 0.04295 0.94069 0.0
C361 C 0.50723 0.05268 0.62528 0.0
C362 C 0.57273 1.014 0.70594 0.0
C363 C 0.51022 0.97251 0.53982 0.0
C364 C 0.48949 0.97474 0.48153 0.0
C365 C 0.47582 0.95295 0.4614 0.0
C366 C 0.45083 0.95511 0.43512 0.0
C367 C 0.43956 0.97911 0.4288 0.0
C368 C 0.45435 1.00088 0.43869 0.0
C369 C 0.47916 0.99873 0.46522 0.0
C370 C 0.5237 0.97591 0.81577 0.0
C371 C 0.46709 1.01794 0.75177 0.0
O372 O 0.53764 0.0743 0.80638 0.0
O373 O 0.51757 0.05186 0.89627 0.0
O374 O 0.49794 0.0618 0.69158 0.0
O375 O 0.52381 0.03647 0.64533 0.0
O376 O 0.56241 0.03124 0.75435 0.0
O377 O 0.55827 0.99808 0.66601 0.0
O378 O 0.50286 0.96475 0.61159 0.0
O379 O 0.52557 0.99182 0.54457 0.0
O380 O 0.52251 0.96426 0.74738 0.0
O381 O 0.52282 0.99966 0.80104 0.0
O382 O 0.47694 1.00654 0.68748 0.0
O383 O 0.48198 0.03004 0.8027 0.0
H384 H 0.56586 0.10745 0.93291 0.0
H385 H 0.61048 0.10125 0.96876 0.0
H386 H 0.59956 1.02009 0.95617 0.0
H387 H 0.5557 0.02636 0.92933 0.0
H388 H 0.48353 0.9343 0.47408 0.0
H389 H 0.43977 0.93809 0.42703 0.0
H390 H 0.44613 1.01959 0.43205 0.0
H391 H 0.48929 1.01584 0.48042 0.0
La392 La 0.50347 0.52403 0.77843 0.0
La393 La 0.5446 0.52157 0.67565 0.0
C394 C 0.47382 0.53606 0.89083 0.0
C395 C 0.47561 0.55981 0.93482 0.0
C396 C 0.45406 0.57275 0.96048 0.0
C397 C 0.4557 0.59844 0.97978 0.0
C398 C 0.47866 0.61178 0.96915 0.0
C399 C 0.50032 0.59783 0.94752 0.0
C400 C 0.49892 0.57216 0.9336 0.0
C401 C 0.489 0.50997 0.62945 0.0
C402 C 0.52322 0.57545 0.69193 0.0
C403 C 0.57641 0.50956 0.56981 0.0
C404 C 0.57471 0.4867 0.52096 0.0
C405 C 0.59512 0.4698 0.51798 0.0
C406 C 0.591 0.44451 0.49757 0.0
C407 C 0.56637 0.43597 0.48115 0.0
C408 C 0.54643 0.45352 0.47876 0.0
C409 C 0.55061 0.47861 0.49722 0.0
C410 C 0.55859 0.53685 0.82378 0.0
C411 C 0.52333 0.46957 0.75061 0.0
O412 O 0.46842 0.53907 0.81381 0.0
O413 O 0.49301 0.52082 0.9014 0.0
O414 O 0.48052 0.50086 0.69739 0.0
O415 O 0.50521 0.52676 0.64628 0.0
O416 O 0.51152 0.56545 0.7561 0.0
O417 O 0.53572 0.56033 0.64333 0.0
O418 O 0.57957 0.50501 0.64733 0.0
O419 O 0.5586 0.52625 0.55691 0.0
O420 O 0.56624 0.54608 0.7552 0.0
O421 O 0.54293 0.5194 0.80799 0.0
O422 O 0.5354 0.48064 0.68934 0.0
O423 O 0.51038 0.48372 0.80137 0.0
H424 H 0.43587 0.56339 0.96189 0.0
H425 H 0.43868 0.60774 1.00013 0.0
H426 H 0.51843 0.6064 0.93584 0.0
H427 H 0.51591 0.56247 0.91419 0.0
H428 H 0.61378 0.47567 0.53729 0.0
H429 H 0.60682 0.43149 0.49846 0.0
H430 H 0.52709 0.44772 0.46852 0.0
H431 H 0.53433 0.49104 0.5006 0.0
La432 La 1.01887 0.50164 0.78501 0.0
La433 La 0.02281 0.54625 0.69362 0.0
C434 C 1.00712 0.46843 0.88845 0.0
C435 C 0.98561 0.46897 0.94421 0.0
C436 C 0.9682 0.44906 0.94412 0.0
C437 C 0.9444 0.45242 0.97869 0.0
C438 C 0.93781 0.47578 1.01323 0.0
C439 C 0.95602 0.49491 0.01892 0.0
C440 C 0.97973 0.49151 0.9848 0.0
C441 C 0.03092 0.49181 0.63021 0.0
C442 C 0.96789 0.52644 0.71632 0.0
C443 C 0.03421 0.57964 0.58993 0.0
C444 C 0.05549 0.58042 0.53272 0.0
C445 C 0.07485 0.59817 0.54368 0.0
C446 C 0.09792 0.59512 0.50401 0.0
C447 C 0.10171 0.57444 0.45239 0.0
C448 C 0.08159 0.55802 0.43598 0.0
C449 C 0.05867 0.56095 0.4758 0.0
C450 C 1.01012 0.55633 0.84866 0.0
C451 C 0.07367 0.52069 0.76583 0.0
O452 O 1.00099 0.46706 0.81166 0.0
O453 O 0.02435 0.4856 0.90086 0.0
O454 O 0.04004 0.48028 0.69348 0.0
O455 O 1.01543 0.50822 0.65534 0.0
O456 O 0.97833 0.51177 0.77288 0.0
O457 O 0.9823 0.54125 0.67119 0.0
O458 O 0.04038 0.581 0.66676 0.0
O459 O 1.01753 0.56193 0.57736 0.0
O460 O 1.00126 0.56731 0.78407 0.0
O461 O 0.02588 0.54005 0.8236 0.0
O462 O 0.06389 0.5354 0.70747 0.0
O463 O 0.05841 0.50698 0.81099 0.0
H464 H 0.97238 0.4316 0.9127 0.0
H465 H 0.93078 0.43719 0.97513 0.0
H466 H 0.95145 0.51315 0.04472 0.0
H467 H 0.99277 0.50727 0.98522 0.0
H468 H 0.07273 0.61337 0.58702 0.0
H469 H 0.11318 0.60814 0.51672 0.0
H470 H 0.08411 0.54178 0.397 0.0
H471 H 0.04414 0.54689 0.46587 0.0
H472 H 0.09728 1.00784 0.28673 0.0
H473 H 0.15446 0.05834 0.37719 0.0
H474 H 0.131 0.06343 0.50376 0.0
H475 H 0.09439 0.05371 0.59069 0.0
H476 H 0.03616 1.0041 0.50259 0.0
H477 H 0.05927 0.99899 0.37414 0.0
C478 C 0.10449 1.02003 0.33408 0.0
C479 C 0.12766 0.03289 0.32156 0.0
C480 C 0.09051 0.02324 0.40749 0.0
C481 C 0.13663 0.04852 0.38415 0.0
C482 C 0.1232 0.0514 0.45697 0.0
C483 C 0.0866 0.04187 0.54333 0.0
C484 C 0.06344 0.02929 0.55711 0.0
C485 C 0.1001 0.03896 0.46949 0.0
C486 C 0.05388 1.01402 0.49436 0.0
C487 C 0.06719 1.01103 0.42067 0.0
H488 H 0.48672 0.13016 0.33498 0.0
H489 H 0.55831 0.1014 0.25068 0.0
H490 H 0.55969 0.07168 0.36556 0.0
H491 H 0.5413 0.05463 0.49549 0.0
H492 H 0.4697 0.084 0.57681 0.0
H493 H 0.46742 0.11177 0.45767 0.0
C494 C 0.50247 0.11712 0.34016 0.0
C495 C 0.52239 0.11846 0.28278 0.0
C496 C 0.50317 0.09987 0.40684 0.0
C497 C 0.54277 0.10143 0.29343 0.0
C498 C 0.54354 0.08418 0.35939 0.0
C499 C 0.52506 0.06686 0.4865 0.0
C500 C 0.50567 0.0671 0.54592 0.0
C501 C 0.52398 0.08335 0.41734 0.0
C502 C 0.48492 0.08333 0.53286 0.0
C503 C 0.48362 0.09935 0.46449 0.0
H504 H 0.40878 0.48966 0.34966 0.0
H505 H 0.44118 0.55778 0.2481 0.0
H506 H 0.47157 0.55925 0.36046 0.0
H507 H 0.48818 0.54204 0.49298 0.0
H508 H 0.45486 0.47399 0.59189 0.0
H509 H 0.42635 0.47155 0.47572 0.0
C510 C 0.42272 0.50465 0.35078 0.0
C511 C 0.42235 0.52357 0.28921 0.0
C512 C 0.44021 0.50547 0.41617 0.0
C513 C 0.44052 0.54304 0.29424 0.0
C514 C 0.45809 0.54385 0.35875 0.0
C515 C 0.47489 0.52652 0.48855 0.0
C516 C 0.47381 0.50821 0.55206 0.0
C517 C 0.45802 0.52532 0.42091 0.0
C518 C 0.45623 0.48839 0.54475 0.0
C519 C 0.43978 0.48698 0.47804 0.0
H520 H 1.00574 0.44411 0.28249 0.0
H521 H 0.06314 0.3915 0.36294 0.0
H522 H 0.06881 0.41532 0.48791 0.0
H523 H 0.05708 0.45046 0.57761 0.0
H524 H 1.0008 0.50435 0.49885 0.0
H525 H 0.99547 0.48123 0.37097 0.0
C526 C 1.0196 0.438 0.32717 0.0
C527 C 0.03416 0.41599 0.31221 0.0
C528 C 0.02308 0.45216 0.39972 0.0
C529 C 0.05197 0.40847 0.37146 0.0
C530 C 0.05516 0.42207 0.44353 0.0
C531 C 0.04377 0.45732 0.53229 0.0
C532 C 0.0293 0.47917 0.54864 0.0
C533 C 0.04083 0.44389 0.45865 0.0
C534 C 1.0122 0.48765 0.48851 0.0
C535 C 1.00908 0.47431 0.41521 0.0
H536 H 0.91022 0.98767 0.14376 0.0
H537 H 0.93946 0.05867 0.23081 0.0
H538 H 0.96799 0.06107 0.11406 0.0
H539 H 0.98359 0.0439 0.98093 0.0
H540 H 0.95429 0.97231 0.89958 0.0
H541 H 0.92782 0.96913 0.02018 0.0
C542 C 0.92313 1.0035 0.13893 0.0
C543 C 0.92215 0.023 0.19743 0.0
C544 C 0.93979 1.00473 0.07146 0.0
C545 C 0.93905 0.04347 0.1871 0.0
C546 C 0.95565 0.04482 0.12004 0.0
C547 C 0.9717 0.02745 0.99029 0.0
C548 C 0.97101 1.00841 0.9301 0.0
C549 C 0.95602 0.02573 0.06081 0.0
C550 C 0.95526 0.98735 0.94388 0.0
C551 C 0.93996 0.9855 1.01316 0.0
H552 H 0.53116 0.89224 0.09492 0.0
H553 H 0.51865 0.9554 0.25329 0.0
H554 H 0.51814 0.98441 0.13477 0.0
H555 H 0.5204 0.99165 0.98159 0.0
H556 H 0.53126 0.92609 0.82988 0.0
H557 H 0.53291 0.8989 0.94827 0.0
C558 C 0.52848 0.9124 0.10381 0.0
C559 C 0.52521 0.9215 0.18345 0.0
C560 C 0.52773 0.92883 0.03537 0.0
C561 C 0.52125 0.94772 0.19297 0.0
C562 C 0.52098 0.96436 0.12486 0.0
C563 C 0.52337 0.97149 0.97464 0.0
C564 C 0.52588 0.96131 0.89524 0.0
C565 C 0.52411 0.95519 0.04499 0.0
C566 C 0.52938 0.93491 0.88885 0.0
C567 C 0.53033 0.91905 0.9571 0.0
H568 H 0.64434 0.55377 0.08804 0.0
H569 H 0.59263 0.51267 0.24268 0.0
H570 H 0.56274 0.50934 0.12929 0.0
H571 H 0.55127 0.51764 0.98236 0.0
H572 H 0.6035 0.56068 0.83454 0.0
H573 H 0.63248 0.56374 0.9481 0.0
C574 C 0.62636 0.54449 0.09821 0.0
C575 C 0.62108 0.53364 0.17526 0.0
C576 C 0.60907 0.54279 0.03273 0.0
C577 C 0.59769 0.52109 0.18465 0.0
C578 C 0.5804 0.51923 0.11945 0.0
C579 C 0.56893 0.52775 0.97524 0.0
C580 C 0.57497 0.53878 0.89868 0.0
C581 C 0.58589 0.52987 0.04256 0.0
C582 C 0.59803 0.55192 0.8917 0.0
C583 C 0.61483 0.55372 0.95706 0.0
H584 H 0.0338 0.6431 0.10244 0.0
H585 H 0.98473 0.59805 0.25432 0.0
H586 H 0.9816 0.5662 0.14704 0.0
H587 H 0.99074 0.55221 1.00506 0.0
H588 H 0.03938 0.59802 0.8543 0.0
H589 H 0.04453 0.62829 0.96474 0.0
C590 C 0.02268 0.62616 0.11272 0.0
C591 C 1.00951 0.62316 0.18707 0.0
C592 C 1.02069 0.608 0.05005 0.0
C593 C 0.99489 0.60114 0.19792 0.0
C594 C 0.99313 0.58283 0.13638 0.0
C595 C 1.00291 0.5685 0.99716 0.0
C596 C 1.01501 0.57252 0.92149 0.0
C597 C 1.00566 0.58615 0.06149 0.0
C598 C 0.03014 0.59421 0.91195 0.0
C599 C 0.03301 0.61164 0.97517 0.0
H600 H 1.01708 0.19746 0.29456 0.0
H601 H 1.00876 0.22523 0.53894 0.0
H602 H 0.98798 0.18553 0.57961 0.0
H603 H 0.9738 0.14256 0.54512 0.0
H604 H 0.98058 0.11636 0.29774 0.0
H605 H 1.00064 0.15615 0.25819 0.0
C606 C 1.01114 0.19456 0.35719 0.0
C607 C 1.01506 0.21361 0.41472 0.0
C608 C 0.99884 0.17224 0.37894 0.0
C609 C 1.00639 0.21035 0.49464 0.0
C610 C 0.99444 0.18782 0.51746 0.0
C611 C 0.97908 0.14581 0.48213 0.0
C612 C 0.97574 0.12661 0.42427 0.0
C613 C 0.99061 0.16865 0.45997 0.0
C614 C 0.98313 0.13085 0.34327 0.0
C615 C 0.99463 0.1535 0.32076 0.0
H616 H 0.32482 0.9877 0.34118 0.0
H617 H 0.32797 0.04336 0.53096 0.0
H618 H 0.37151 0.03053 0.56328 0.0
H619 H 0.40984 1.0077 0.52361 0.0
H620 H 0.40774 0.95564 0.32277 0.0
H621 H 0.36222 0.9627 0.30808 0.0
C622 C 0.33488 0.9964 0.39129 0.0
C623 C 0.3235 1.01608 0.4348 0.0
C624 C 0.36005 0.99 0.40566 0.0
C625 C 0.33657 0.02792 0.49795 0.0
C626 C 0.36139 1.02078 0.51553 0.0
C627 C 0.39936 0.99796 0.47652 0.0
C628 C 0.41198 0.98169 0.42281 0.0
C629 C 0.37356 1.0026 0.46741 0.0
C630 C 0.39828 0.96845 0.36396 0.0
C631 C 0.37238 0.97249 0.35566 0.0
H632 H 0.54899 0.31795 0.4938 0.0
H633 H 0.49131 0.33952 0.32 0.0
H634 H 0.50227 0.38364 0.3352 0.0
H635 H 0.53161 0.41515 0.38204 0.0
H636 H 0.58776 0.39568 0.5631 0.0
H637 H 0.57531 0.35122 0.55563 0.0
C638 C 0.53847 0.33243 0.46094 0.0
C639 C 0.51948 0.32543 0.40577 0.0
C640 C 0.54538 0.35788 0.46789 0.0
C641 C 0.50577 0.34431 0.36391 0.0
C642 C 0.51236 0.36957 0.37112 0.0
C643 C 0.54084 0.40138 0.42142 0.0
C644 C 0.5606 0.40877 0.47283 0.0
C645 C 0.53272 0.37637 0.42038 0.0
C646 C 0.57286 0.39043 0.52137 0.0
C647 C 0.56545 0.36509 0.51833 0.0
H648 H 0.19859 0.5292 0.29258 0.0
H649 H 0.22898 0.54211 0.53208 0.0
H650 H 0.1886 0.56102 0.5744 0.0
H651 H 0.14444 0.57247 0.54244 0.0
H652 H 0.11546 0.56035 0.30014 0.0
H653 H 0.15594 0.54245 0.25884 0.0
C654 C 0.19619 0.53576 0.35455 0.0
C655 C 0.21616 0.53365 0.41028 0.0
C656 C 0.17348 0.54697 0.37707 0.0
C657 C 0.21344 0.54312 0.48921 0.0
C658 C 0.19054 0.55403 0.51291 0.0
C659 C 0.14725 0.56647 0.4801 0.0
C660 C 0.12717 0.56774 0.42407 0.0
C661 C 0.17045 0.55603 0.45715 0.0
C662 C 0.13074 0.55946 0.34401 0.0
C663 C 0.15376 0.54916 0.3206 0.0
H664 H 1.01443 0.82656 0.9978 0.0
H665 H 0.09193 0.80325 0.02871 0.0
H666 H 0.10642 0.8435 0.97159 0.0
H667 H 0.09666 0.88843 0.94859 0.0
H668 H 1.01897 0.91214 0.925 0.0
H669 H 1.00484 0.86853 0.94255 0.0
C670 C 0.03445 0.8298 0.98821 0.0
C671 C 0.05216 0.81248 0.01923 0.0
C672 C 0.04256 0.85338 0.95929 0.0
C673 C 0.07805 0.81671 1.00631 0.0
C674 C 0.08631 0.83979 0.97463 0.0
C675 C 0.07671 0.8839 0.9452 0.0
C676 C 0.05881 0.90339 0.93922 0.0
C677 C 0.06872 0.85888 0.95678 0.0
C678 C 0.033 0.89739 0.93338 0.0
C679 C 0.02493 0.87249 0.94261 0.0
H680 H 0.72763 0.05544 0.98083 0.0
H681 H 0.70958 0.98682 0.11306 0.0
H682 H 0.66509 0.99275 0.08343 0.0
H683 H 0.63151 1.02117 0.04388 0.0
H684 H 0.64799 0.08875 0.90365 0.0
H685 H 0.69318 0.08039 0.91802 0.0
C686 C 0.71395 0.04141 1.00061 0.0
C687 C 0.72176 1.02097 0.04983 0.0
C688 C 0.68821 0.04541 0.98598 0.0
C689 C 0.70408 1.00266 0.07457 0.0
C690 C 0.67855 1.0063 0.05919 0.0
C691 C 0.64477 0.03378 1.01397 0.0
C692 C 0.63624 0.05566 0.97332 0.0
C693 C 0.67043 0.02825 0.01876 0.0
C694 C 0.65399 0.07212 0.93752 0.0
C695 C 0.67982 0.06713 0.94435 0.0
H696 H 0.46753 0.72772 0.04507 0.0
H697 H 0.54892 0.72216 0.04654 0.0
H698 H 0.54636 0.67869 0.99965 0.0
H699 H 0.52112 0.64124 0.99223 0.0
H700 H 0.4398 0.6474 0.96405 0.0
H701 H 0.44247 0.69217 0.99291 0.0
C702 C 0.48476 0.71748 0.03138 0.0
C703 C 0.50834 0.72759 0.05292 0.0
C704 C 0.48319 0.6925 1.00431 0.0
C705 C 0.5305 0.7143 0.03318 0.0
C706 C 0.52905 0.68942 1.00717 0.0
C707 C 0.50375 0.65188 0.98791 0.0
C708 C 0.48015 0.6399 0.97812 0.0
C709 C 0.50542 0.67795 0.99796 0.0
C710 C 0.45827 0.65521 0.97588 0.0
C711 C 0.45973 0.68114 0.99053 0.0
H712 H 0.83282 0.50586 0.16028 0.0
H713 H 0.80614 0.46485 0.95198 0.0
H714 H 0.8499 0.45949 0.90425 0.0
H715 H 0.89549 0.46349 0.93003 0.0
H716 H 0.92142 0.50088 0.14742 0.0
H717 H 0.87793 0.51088 0.18398 0.0
C718 C 0.83673 0.49616 0.10362 0.0
C719 C 0.81683 0.48581 0.05891 0.0
C720 C 0.8616 0.49222 0.07949 0.0
C721 C 0.82153 0.47302 0.98631 0.0
C722 C 0.8464 0.46982 0.95981 0.0
C723 C 0.89157 0.4735 0.98597 0.0
C724 C 0.91152 0.48111 0.0367 0.0
C725 C 0.86657 0.47868 1.00743 0.0
C726 C 0.90632 0.49481 0.10758 0.0
C727 C 0.88153 0.50052 0.12849 0.0
H728 H 1.00176 0.19534 0.77642 0.0
H729 H 0.05451 0.18654 0.97492 0.0
H730 H 0.05657 0.1411 0.95149 0.0
H731 H 0.04348 0.10332 0.87643 0.0
H732 H 0.99175 0.11093 0.67476 0.0
H733 H 0.9894 0.15671 0.69722 0.0
C734 C 1.01375 0.18347 0.81434 0.0
C735 C 0.02814 0.19474 0.87733 0.0
C736 C 1.01515 0.15689 0.79975 0.0
C737 C 0.04353 0.17877 0.92541 0.0
C738 C 0.04465 0.15261 0.91223 0.0
C739 C 0.03173 0.11489 0.8368 0.0
C740 C 1.01774 0.10323 0.77396 0.0
C741 C 0.03061 0.14139 0.84966 0.0
C742 C 1.00274 0.11899 0.72374 0.0
C743 C 1.00139 0.14536 0.73659 0.0
H744 H 0.3474 1.00034 0.78646 0.0
H745 H 0.35626 0.06109 0.9577 0.0
H746 H 0.40134 0.06298 0.92834 0.0
H747 H 0.43907 0.04702 0.85712 0.0
H748 H 0.4308 0.98807 0.67941 0.0
H749 H 0.38536 0.98609 0.70739 0.0
C750 C 0.35917 1.01404 0.81717 0.0
C751 C 0.348 0.0306 0.87454 0.0
C752 C 0.38552 1.01536 0.79889 0.0
C753 C 0.36389 0.04828 0.91283 0.0
C754 C 0.38988 0.0493 0.89633 0.0
C755 C 0.42742 0.03368 0.82432 0.0
C756 C 0.43883 1.01749 0.7667 0.0
C757 C 0.40103 0.03288 0.83992 0.0
C758 C 0.42295 1.00069 0.72443 0.0
C759 C 0.39678 0.99951 0.7406 0.0
H760 H 0.54635 0.35033 0.77985 0.0
H761 H 0.48124 0.35405 0.93708 0.0
H762 H 0.47727 0.39926 0.90968 0.0
H763 H 0.49286 0.43881 0.84558 0.0
H764 H 0.55646 0.4355 0.68232 0.0
H765 H 0.56027 0.38986 0.70743 0.0
C766 C 0.53123 0.36098 0.80801 0.0
C767 C 0.51411 0.34823 0.86079 0.0
C768 C 0.52878 0.38745 0.79117 0.0
C769 C 0.49458 0.36277 0.89557 0.0
C770 C 0.49236 0.3889 0.88032 0.0
C771 C 0.50756 0.42818 0.81514 0.0
C772 C 0.5245 0.44108 0.7626 0.0
C773 C 0.50943 0.40159 0.82885 0.0
C774 C 0.54313 0.42649 0.72329 0.0
C775 C 0.54537 0.4002 0.7378 0.0
H776 H 0.18298 0.49621 0.9092 0.0
H777 H 0.20455 0.56069 0.76267 0.0
H778 H 0.16103 0.56467 0.71251 0.0
H779 H 0.11541 0.55048 0.71366 0.0
H780 H 0.09614 0.48526 0.86158 0.0
H781 H 0.13949 0.48109 0.90534 0.0
C782 C 0.1785 0.51097 0.86525 0.0
C783 C 0.19762 0.52807 0.84051 0.0
C784 C 0.15329 0.51321 0.83644 0.0
C785 C 0.19059 0.5473 0.78444 0.0
C786 C 0.16552 0.54955 0.75517 0.0
C787 C 0.1207 0.53524 0.75487 0.0
C788 C 0.10178 0.51839 0.78411 0.0
C789 C 0.14644 0.53275 0.78126 0.0
C790 C 0.10961 0.49883 0.83776 0.0
C791 C 0.1347 0.49629 0.86332 0.0
H792 H 0.03937 0.85019 0.68547 0.0
H793 H 0.96647 0.85334 0.56719 0.0
H794 H 0.96299 0.89802 0.59834 0.0
H795 H 0.98115 0.93748 0.65225 0.0
H796 H 0.05429 0.93546 0.76665 0.0
H797 H 0.05714 0.88978 0.74346 0.0
C798 C 0.02267 0.86052 0.66624 0.0
C799 C 1.00317 0.84765 0.62391 0.0
C800 C 0.02083 0.88685 0.68332 0.0
C801 C 0.98168 0.86193 0.60115 0.0
C802 C 0.97973 0.88785 0.6182 0.0
C803 C 0.99771 0.92708 0.67252 0.0
C804 C 1.01743 0.94018 0.71216 0.0
C805 C 0.99926 0.90065 0.65831 0.0
C806 C 0.03863 0.92606 0.73762 0.0
C807 C 0.04034 0.89984 0.72357 0.0
H808 H 0.6847 0.99101 0.584 0.0
H809 H 0.7009 0.06093 0.70694 0.0
H810 H 0.65685 0.06371 0.75109 0.0
H811 H 0.61227 0.04703 0.75057 0.0
H812 H 0.59793 0.97648 0.62798 0.0
H813 H 0.64205 0.97328 0.59077 0.0
C814 C 0.67895 1.00673 0.62166 0.0
C815 C 0.69675 0.02576 0.64095 0.0
C816 C 0.65337 1.00825 0.6474 0.0
C817 C 0.68805 0.04607 0.68907 0.0
C818 C 0.66264 0.04764 0.71506 0.0
C819 C 0.61879 0.03086 0.71628 0.0
C820 C 0.60108 1.01219 0.69186 0.0
C821 C 0.64487 0.02899 0.69381 0.0
C822 C 0.61047 0.99141 0.64754 0.0
C823 C 0.63599 0.98947 0.62585 0.0
H824 H 0.53697 0.6868 0.54537 0.0
H825 H 0.49738 0.70813 0.76329 0.0
H826 H 0.49492 0.66347 0.80532 0.0
H827 H 0.50386 0.61726 0.77907 0.0
H828 H 0.54327 0.59792 0.55789 0.0
H829 H 0.54577 0.64214 0.51976 0.0
C830 C 0.52805 0.68188 0.60272 0.0
C831 C 0.51756 0.7013 0.65086 0.0
C832 C 0.52648 0.65603 0.62632 0.0
C833 C 0.50559 0.69394 0.72417 0.0
C834 C 0.50422 0.66822 0.74852 0.0
C835 C 0.51302 0.62269 0.72266 0.0
C836 C 0.52345 0.60361 0.67216 0.0
C837 C 0.5145 0.64889 0.6999 0.0
C838 C 0.5351 0.61158 0.59902 0.0
C839 C 0.5366 0.63715 0.57663 0.0
H840 H 0.85573 0.49668 0.61317 0.0
H841 H 0.84614 0.57794 0.61897 0.0
H842 H 0.89 0.58276 0.65904 0.0
H843 H 0.93247 0.56434 0.689 0.0
H844 H 0.94044 0.48325 0.70098 0.0
H845 H 0.89631 0.4782 0.65932 0.0
C846 C 0.86278 0.51555 0.62432 0.0
C847 C 0.84687 0.53689 0.60991 0.0
C848 C 0.88825 0.51835 0.65084 0.0
C849 C 0.85741 0.56096 0.6254 0.0
C850 C 0.88276 0.56384 0.64954 0.0
C851 C 0.92448 0.54556 0.68312 0.0
C852 C 0.94005 0.52419 0.69789 0.0
C853 C 0.89858 0.54274 0.66137 0.0
C854 C 0.92909 0.50006 0.69059 0.0
C855 C 0.90375 0.49715 0.66632 0.0
loop_
_geom_bond_atom_site_label_1
_geom_bond_atom_site_label_2
_geom_bond_distance
_geom_bond_site_symmetry_2
_ccdc_geom_bond_type
C0 C1 1.386 . S
C0 C2 1.397 . S
C0 H24 0.931 . S
C1 C0 1.386 . S
C1 C5 1.397 . S
C2 C0 1.397 . S
C2 C3 1.384 . S
C2 H25 0.930 . S
C3 C2 1.384 . S
C3 C4 1.377 . S
C3 C6 1.481 . S
C4 C3 1.377 . S
C4 C5 1.389 . S
C4 H26 0.929 . S
C5 C1 1.397 . S
C5 C4 1.389 . S
C5 H27 0.931 . S
C6 C3 1.481 . S
C6 C7 1.387 . S
C6 C11 1.390 . S
C7 C6 1.387 . S
C7 C8 1.401 . S
C7 H28 0.930 . S
C8 C7 1.401 . S
C8 C9 1.376 . S
C8 C17 1.511 . S
C9 C8 1.376 . S
C9 C10 1.392 . S
C9 H30 0.931 . S
C10 C9 1.392 . S
C10 C11 1.361 . S
C10 C12 1.500 . S
C11 C6 1.390 . S
C11 C10 1.361 . S
C11 H29 0.931 . S
C12 C10 1.500 . S
C12 C13 1.371 . S
C12 C14 1.365 . S
C13 C12 1.371 . S
C13 C23 1.386 . S
C13 H31 0.931 . S
C14 C12 1.365 . S
C14 C15 1.409 . S
C14 H32 0.929 . S
C15 C14 1.409 . S
C15 C16 1.380 . S
C15 H33 0.930 . S
C16 C15 1.380 . S
C16 C23 1.357 . S
C17 C8 1.511 . S
C17 C18 1.341 . S
C17 C19 1.371 . S
C18 C17 1.341 . S
C18 C22 1.394 . S
C18 H34 0.930 . S
C19 C17 1.371 . S
C19 C20 1.392 . S
C19 H35 0.931 . S
C20 C19 1.392 . S
C20 C21 1.331 . S
C20 H38 0.932 . S
C21 C20 1.331 . S
C21 C22 1.336 . S
C22 C18 1.394 . S
C22 C21 1.336 . S
C22 H37 0.929 . S
C23 C13 1.386 . S
C23 C16 1.357 . S
C23 H36 0.928 . S
H24 C0 0.931 . S
H25 C2 0.930 . S
H26 C4 0.929 . S
H27 C5 0.931 . S
H28 C7 0.930 . S
H29 C11 0.931 . S
H30 C9 0.931 . S
H31 C13 0.931 . S
H32 C14 0.929 . S
H33 C15 0.930 . S
H34 C18 0.930 . S
H35 C19 0.931 . S
H36 C23 0.928 . S
H37 C22 0.929 . S
H38 C20 0.932 . S
C39 C40 1.394 . S
C39 C41 1.397 . S
C39 H63 0.931 . S
C40 C39 1.394 . S
C40 C44 1.389 1_655 S
C41 C39 1.397 . S
C41 C42 1.389 . S
C41 H64 0.930 . S
C42 C41 1.389 . S
C42 C43 1.373 1_655 S
C42 C45 1.480 . S
C43 C42 1.373 1_455 S
C43 C44 1.389 . S
C43 H65 0.929 . S
C44 C40 1.389 1_455 S
C44 C43 1.389 . S
C44 H66 0.931 . S
C45 C42 1.480 . S
C45 C46 1.388 . S
C45 C50 1.390 . S
C46 C45 1.388 . S
C46 C47 1.402 . S
C46 H67 0.930 . S
C47 C46 1.402 . S
C47 C48 1.376 . S
C47 C56 1.513 . S
C48 C47 1.376 . S
C48 C49 1.392 . S
C48 H69 0.934 . S
C49 C48 1.392 . S
C49 C50 1.361 . S
C49 C51 1.499 1_655 S
C50 C45 1.390 . S
C50 C49 1.361 . S
C50 H68 0.931 . S
C51 C49 1.499 1_455 S
C51 C52 1.362 1_455 S
C51 C53 1.375 . S
C52 C51 1.362 1_655 S
C52 C62 1.386 . S
C52 H70 0.931 . S
C53 C51 1.375 . S
C53 C54 1.409 . S
C53 H71 0.929 . S
C54 C53 1.409 . S
C54 C55 1.379 . S
C54 H72 0.930 . S
C55 C54 1.379 . S
C55 C62 1.358 1_455 S
C56 C47 1.513 . S
C56 C57 1.341 . S
C56 C58 1.371 1_655 S
C57 C56 1.341 . S
C57 C61 1.394 . S
C57 H73 0.930 . S
C58 C56 1.371 1_455 S
C58 C59 1.392 . S
C58 H74 0.931 . S
C59 C58 1.392 . S
C59 C60 1.322 1_455 S
C59 H77 0.932 . S
C60 C59 1.322 1_655 S
C60 C61 1.345 . S
C61 C57 1.394 . S
C61 C60 1.345 . S
C61 H76 0.929 . S
C62 C52 1.386 . S
C62 C55 1.358 1_655 S
C62 H75 0.928 . S
H63 C39 0.931 . S
H64 C41 0.930 . S
H65 C43 0.929 . S
H66 C44 0.931 . S
H67 C46 0.930 . S
H68 C50 0.931 . S
H69 C48 0.934 . S
H70 C52 0.931 . S
H71 C53 0.929 . S
H72 C54 0.930 . S
H73 C57 0.930 . S
H74 C58 0.931 . S
H75 C62 0.928 . S
H76 C61 0.929 . S
H77 C59 0.932 . S
C78 C79 1.394 . S
C78 C80 1.397 . S
C78 H102 0.931 . S
C79 C78 1.394 . S
C79 C83 1.389 1_565 S
C80 C78 1.397 . S
C80 C81 1.389 . S
C80 H103 0.930 . S
C81 C80 1.389 . S
C81 C82 1.373 1_565 S
C81 C84 1.481 . S
C82 C81 1.373 1_545 S
C82 C83 1.389 . S
C82 H104 0.929 . S
C83 C79 1.389 1_545 S
C83 C82 1.389 . S
C83 H105 0.931 . S
C84 C81 1.481 . S
C84 C85 1.388 . S
C84 C89 1.390 . S
C85 C84 1.388 . S
C85 C86 1.402 . S
C85 H106 0.930 . S
C86 C85 1.402 . S
C86 C87 1.376 . S
C86 C95 1.513 . S
C87 C86 1.376 . S
C87 C88 1.392 . S
C87 H108 0.934 . S
C88 C87 1.392 . S
C88 C89 1.361 . S
C88 C90 1.499 1_565 S
C89 C84 1.390 . S
C89 C88 1.361 . S
C89 H107 0.931 . S
C90 C88 1.499 1_545 S
C90 C91 1.362 1_545 S
C90 C92 1.375 . S
C91 C90 1.362 1_565 S
C91 C101 1.386 . S
C91 H109 0.931 . S
C92 C90 1.375 . S
C92 C93 1.409 . S
C92 H110 0.929 . S
C93 C92 1.409 . S
C93 C94 1.379 . S
C93 H111 0.930 . S
C94 C93 1.379 . S
C94 C101 1.358 1_545 S
C95 C86 1.513 . S
C95 C96 1.341 . S
C95 C97 1.371 1_565 S
C96 C95 1.341 . S
C96 C100 1.394 . S
C96 H112 0.930 . S
C97 C95 1.371 1_545 S
C97 C98 1.392 . S
C97 H113 0.931 . S
C98 C97 1.392 . S
C98 C99 1.322 1_545 S
C98 H116 0.932 . S
C99 C98 1.322 1_565 S
C99 C100 1.345 . S
C100 C96 1.394 . S
C100 C99 1.345 . S
C100 H115 0.929 . S
C101 C91 1.386 . S
C101 C94 1.358 1_565 S
C101 H114 0.928 . S
H102 C78 0.931 . S
H103 C80 0.930 . S
H104 C82 0.929 . S
H105 C83 0.931 . S
H106 C85 0.930 . S
H107 C89 0.931 . S
H108 C87 0.934 . S
H109 C91 0.931 . S
H110 C92 0.929 . S
H111 C93 0.930 . S
H112 C96 0.930 . S
H113 C97 0.931 . S
H114 C101 0.928 . S
H115 C100 0.929 . S
H116 C98 0.932 . S
C117 C118 1.386 . S
C117 C119 1.397 . S
C117 H141 0.931 . S
C118 C117 1.386 . S
C118 C122 1.397 . S
C119 C117 1.397 . S
C119 C120 1.384 . S
C119 H142 0.930 . S
C120 C119 1.384 . S
C120 C121 1.377 . S
C120 C123 1.481 . S
C121 C120 1.377 . S
C121 C122 1.389 . S
C121 H143 0.929 . S
C122 C118 1.397 . S
C122 C121 1.389 . S
C122 H144 0.931 . S
C123 C120 1.481 . S
C123 C124 1.387 . S
C123 C128 1.390 . S
C124 C123 1.387 . S
C124 C125 1.401 . S
C124 H145 0.930 . S
C125 C124 1.401 . S
C125 C126 1.376 . S
C125 C134 1.511 . S
C126 C125 1.376 . S
C126 C127 1.392 . S
C126 H147 0.931 . S
C127 C126 1.392 . S
C127 C128 1.361 . S
C127 C129 1.500 . S
C128 C123 1.390 . S
C128 C127 1.361 . S
C128 H146 0.931 . S
C129 C127 1.500 . S
C129 C130 1.371 . S
C129 C131 1.365 . S
C130 C129 1.371 . S
C130 C140 1.386 . S
C130 H148 0.931 . S
C131 C129 1.365 . S
C131 C132 1.409 . S
C131 H149 0.929 . S
C132 C131 1.409 . S
C132 C133 1.380 . S
C132 H150 0.930 . S
C133 C132 1.380 . S
C133 C140 1.357 . S
C134 C125 1.511 . S
C134 C135 1.341 . S
C134 C136 1.371 . S
C135 C134 1.341 . S
C135 C139 1.394 . S
C135 H151 0.930 . S
C136 C134 1.371 . S
C136 C137 1.392 . S
C136 H152 0.931 . S
C137 C136 1.392 . S
C137 C138 1.331 . S
C137 H155 0.932 . S
C138 C137 1.331 . S
C138 C139 1.336 . S
C139 C135 1.394 . S
C139 C138 1.336 . S
C139 H154 0.929 . S
C140 C130 1.386 . S
C140 C133 1.357 . S
C140 H153 0.928 . S
H141 C117 0.931 . S
H142 C119 0.930 . S
H143 C121 0.929 . S
H144 C122 0.931 . S
H145 C124 0.930 . S
H146 C128 0.931 . S
H147 C126 0.931 . S
H148 C130 0.931 . S
H149 C131 0.929 . S
H150 C132 0.930 . S
H151 C135 0.930 . S
H152 C136 0.931 . S
H153 C140 0.928 . S
H154 C139 0.929 . S
H155 C137 0.932 . S
C156 C157 1.386 . S
C156 C158 1.397 . S
C156 H180 0.931 . S
C157 C156 1.386 . S
C157 C161 1.397 . S
C158 C156 1.397 . S
C158 C159 1.384 . S
C158 H181 0.930 . S
C159 C158 1.384 . S
C159 C160 1.377 . S
C159 C162 1.481 . S
C160 C159 1.377 . S
C160 C161 1.389 . S
C160 H182 0.929 . S
C161 C157 1.397 . S
C161 C160 1.389 . S
C161 H183 0.931 . S
C162 C159 1.481 . S
C162 C163 1.387 . S
C162 C167 1.390 . S
C163 C162 1.387 . S
C163 C164 1.401 . S
C163 H184 0.930 . S
C164 C163 1.401 . S
C164 C165 1.376 1_554 S
C164 C173 1.511 . S
C165 C164 1.376 1_556 S
C165 C166 1.392 . S
C165 H186 0.931 . S
C166 C165 1.392 . S
C166 C167 1.361 1_556 S
C166 C168 1.500 . S
C167 C162 1.390 . S
C167 C166 1.361 1_554 S
C167 H185 0.931 . S
C168 C166 1.500 . S
C168 C169 1.371 . S
C168 C170 1.365 . S
C169 C168 1.371 . S
C169 C179 1.386 . S
C169 H187 0.931 . S
C170 C168 1.365 . S
C170 C171 1.409 . S
C170 H188 0.929 . S
C171 C170 1.409 . S
C171 C172 1.380 . S
C171 H189 0.930 . S
C172 C171 1.380 . S
C172 C179 1.357 . S
C173 C164 1.511 . S
C173 C174 1.341 . S
C173 C175 1.371 . S
C174 C173 1.341 . S
C174 C178 1.394 . S
C174 H190 0.930 . S
C175 C173 1.371 . S
C175 C176 1.392 . S
C175 H191 0.931 1_554 S
C176 C175 1.392 . S
C176 C177 1.331 . S
C176 H194 0.932 . S
C177 C176 1.331 . S
C177 C178 1.336 . S
C178 C174 1.394 . S
C178 C177 1.336 . S
C178 H193 0.929 . S
C179 C169 1.386 . S
C179 C172 1.357 . S
C179 H192 0.928 . S
H180 C156 0.931 . S
H181 C158 0.930 . S
H182 C160 0.929 . S
H183 C161 0.931 . S
H184 C163 0.930 . S
H185 C167 0.931 . S
H186 C165 0.931 . S
H187 C169 0.931 . S
H188 C170 0.929 . S
H189 C171 0.930 . S
H190 C174 0.930 . S
H191 C175 0.931 1_556 S
H192 C179 0.928 . S
H193 C178 0.929 . S
H194 C176 0.932 . S
C195 C196 1.388 . S
C195 C197 1.397 . S
C195 H219 0.931 . S
C196 C195 1.388 . S
C196 C200 1.395 1_655 S
C197 C195 1.397 . S
C197 C198 1.382 . S
C197 H220 0.930 . S
C198 C197 1.382 . S
C198 C199 1.379 1_655 S
C198 C201 1.480 . S
C199 C198 1.379 1_455 S
C199 C200 1.389 . S
C199 H221 0.929 . S
C200 C196 1.395 1_455 S
C200 C199 1.389 . S
C200 H222 0.931 . S
C201 C198 1.480 . S
C201 C202 1.388 . S
C201 C206 1.390 . S
C202 C201 1.388 . S
C202 C203 1.402 . S
C202 H223 0.930 . S
C203 C202 1.402 . S
C203 C204 1.376 1_554 S
C203 C212 1.512 . S
C204 C203 1.376 1_556 S
C204 C205 1.392 1_655 S
C204 H225 0.933 . S
C205 C204 1.392 1_455 S
C205 C206 1.361 1_456 S
C205 C207 1.499 . S
C206 C201 1.390 . S
C206 C205 1.361 1_654 S
C206 H224 0.931 . S
C207 C205 1.499 . S
C207 C208 1.357 1_455 S
C207 C209 1.380 . S
C208 C207 1.357 1_655 S
C208 C218 1.386 . S
C208 H226 0.931 . S
C209 C207 1.380 . S
C209 C210 1.409 . S
C209 H227 0.929 . S
C210 C209 1.409 . S
C210 C211 1.384 . S
C210 H228 0.930 . S
C211 C210 1.384 . S
C211 C218 1.353 1_455 S
C212 C203 1.512 . S
C212 C213 1.341 . S
C212 C214 1.371 1_655 S
C213 C212 1.341 . S
C213 C217 1.394 . S
C213 H229 0.930 . S
C214 C212 1.371 1_455 S
C214 C215 1.392 . S
C214 H230 0.931 1_554 S
C215 C214 1.392 . S
C215 C216 1.325 1_455 S
C215 H233 0.932 . S
C216 C215 1.325 1_655 S
C216 C217 1.342 . S
C217 C213 1.394 . S
C217 C216 1.342 . S
C217 H232 0.929 . S
C218 C208 1.386 . S
C218 C211 1.353 1_655 S
C218 H231 0.928 . S
H219 C195 0.931 . S
H220 C197 0.930 . S
H221 C199 0.929 . S
H222 C200 0.931 . S
H223 C202 0.930 . S
H224 C206 0.931 . S
H225 C204 0.933 . S
H226 C208 0.931 . S
H227 C209 0.929 . S
H228 C210 0.930 . S
H229 C213 0.930 . S
H230 C214 0.931 1_556 S
H231 C218 0.928 . S
H232 C217 0.929 . S
H233 C215 0.932 . S
C234 C235 1.388 . S
C234 C236 1.397 . S
C234 H258 0.931 . S
C235 C234 1.388 . S
C235 C239 1.395 1_565 S
C236 C234 1.397 . S
C236 C237 1.382 . S
C236 H259 0.930 . S
C237 C236 1.382 . S
C237 C238 1.379 1_565 S
C237 C240 1.480 . S
C238 C237 1.379 1_545 S
C238 C239 1.389 . S
C238 H260 0.929 . S
C239 C235 1.395 1_545 S
C239 C238 1.389 . S
C239 H261 0.931 . S
C240 C237 1.480 . S
C240 C241 1.388 . S
C240 C245 1.390 . S
C241 C240 1.388 . S
C241 C242 1.402 . S
C241 H262 0.930 . S
C242 C241 1.402 . S
C242 C243 1.376 1_554 S
C242 C251 1.512 . S
C243 C242 1.376 1_556 S
C243 C244 1.392 1_565 S
C243 H264 0.933 . S
C244 C243 1.392 1_545 S
C244 C245 1.361 1_546 S
C244 C246 1.499 . S
C245 C240 1.390 . S
C245 C244 1.361 1_564 S
C245 H263 0.931 . S
C246 C244 1.499 . S
C246 C247 1.357 1_545 S
C246 C248 1.380 . S
C247 C246 1.357 1_565 S
C247 C257 1.386 . S
C247 H265 0.931 . S
C248 C246 1.380 . S
C248 C249 1.409 . S
C248 H266 0.929 . S
C249 C248 1.409 . S
C249 C250 1.384 . S
C249 H267 0.930 . S
C250 C249 1.384 . S
C250 C257 1.353 1_545 S
C251 C242 1.512 . S
C251 C252 1.341 . S
C251 C253 1.371 1_565 S
C252 C251 1.341 . S
C252 C256 1.394 . S
C252 H268 0.930 . S
C253 C251 1.371 1_545 S
C253 C254 1.392 . S
C253 H269 0.931 1_554 S
C254 C253 1.392 . S
C254 C255 1.326 1_545 S
C254 H272 0.932 . S
C255 C254 1.326 1_565 S
C255 C256 1.342 . S
C256 C252 1.394 . S
C256 C255 1.342 . S
C256 H271 0.929 . S
C257 C247 1.386 . S
C257 C250 1.353 1_565 S
C257 H270 0.928 . S
H258 C234 0.931 . S
H259 C236 0.930 . S
H260 C238 0.929 . S
H261 C239 0.931 . S
H262 C241 0.930 . S
H263 C245 0.931 . S
H264 C243 0.933 . S
H265 C247 0.931 . S
H266 C248 0.929 . S
H267 C249 0.930 . S
H268 C252 0.930 . S
H269 C253 0.931 1_556 S
H270 C257 0.928 . S
H271 C256 0.929 . S
H272 C254 0.932 . S
C273 C274 1.386 . S
C273 C275 1.397 . S
C273 H297 0.931 . S
C274 C273 1.386 . S
C274 C278 1.397 . S
C275 C273 1.397 . S
C275 C276 1.384 . S
C275 H298 0.930 . S
C276 C275 1.384 . S
C276 C277 1.377 . S
C276 C279 1.481 . S
C277 C276 1.377 . S
C277 C278 1.389 . S
C277 H299 0.929 . S
C278 C274 1.397 . S
C278 C277 1.389 . S
C278 H300 0.931 . S
C279 C276 1.481 . S
C279 C280 1.387 . S
C279 C284 1.390 1_556 S
C280 C279 1.387 . S
C280 C281 1.401 1_556 S
C280 H301 0.930 . S
C281 C280 1.401 1_554 S
C281 C282 1.376 . S
C281 C290 1.511 . S
C282 C281 1.376 . S
C282 C283 1.392 . S
C282 H303 0.931 . S
C283 C282 1.392 . S
C283 C284 1.361 . S
C283 C285 1.500 . S
C284 C279 1.390 1_554 S
C284 C283 1.361 . S
C284 H302 0.931 . S
C285 C283 1.500 . S
C285 C286 1.371 . S
C285 C287 1.365 . S
C286 C285 1.371 . S
C286 C296 1.386 . S
C286 H304 0.931 . S
C287 C285 1.365 . S
C287 C288 1.409 . S
C287 H305 0.929 . S
C288 C287 1.409 . S
C288 C289 1.380 . S
C288 H306 0.930 . S
C289 C288 1.380 . S
C289 C296 1.357 . S
C290 C281 1.511 . S
C290 C291 1.341 . S
C290 C292 1.371 . S
C291 C290 1.341 . S
C291 C295 1.394 . S
C291 H307 0.930 1_554 S
C292 C290 1.371 . S
C292 C293 1.392 . S
C292 H308 0.931 . S
C293 C292 1.392 . S
C293 C294 1.331 . S
C293 H311 0.932 . S
C294 C293 1.331 . S
C294 C295 1.336 . S
C295 C291 1.394 . S
C295 C294 1.336 . S
C295 H310 0.929 . S
C296 C286 1.386 . S
C296 C289 1.357 . S
C296 H309 0.928 . S
H297 C273 0.931 . S
H298 C275 0.930 . S
H299 C277 0.929 . S
H300 C278 0.931 . S
H301 C280 0.930 . S
H302 C284 0.931 . S
H303 C282 0.931 . S
H304 C286 0.931 . S
H305 C287 0.929 . S
H306 C288 0.930 . S
H307 C291 0.930 1_556 S
H308 C292 0.931 . S
H309 C296 0.928 . S
H310 C295 0.929 . S
H311 C293 0.932 . S
La312 C314 2.928 . S
La312 O332 2.521 . S
La312 O333 2.628 . S
La312 O334 2.554 . S
La312 O335 2.757 1_565 S
La312 O336 2.470 . S
La312 O341 2.482 1_455 S
La312 O343 2.503 1_565 S
La313 C323 2.928 . S
La313 O335 2.482 1_655 S
La313 O337 2.503 1_545 S
La313 O338 2.521 . S
La313 O339 2.628 . S
La313 O340 2.554 . S
La313 O341 2.757 1_545 S
La313 O342 2.470 . S
C314 La312 2.928 . S
C314 C315 1.503 . S
C314 O332 1.261 . S
C314 O333 1.243 . S
C315 C314 1.503 . S
C315 C316 1.394 . S
C315 C320 1.373 . S
C316 C315 1.394 . S
C316 C317 1.380 . S
C316 H344 0.930 . S
C317 C316 1.380 . S
C317 C318 1.376 . S
C317 H345 0.930 . S
C318 C317 1.376 . S
C318 C319 1.370 . S
C319 C318 1.370 . S
C319 C320 1.396 . S
C319 H346 0.929 1_556 S
C320 C315 1.373 . S
C320 C319 1.396 . S
C320 H347 0.929 1_455 S
C321 O334 1.240 . S
C321 O335 1.289 1_565 S
C322 O336 1.258 1_655 S
C322 O337 1.256 . S
C323 La313 2.928 . S
C323 C324 1.503 . S
C323 O338 1.261 . S
C323 O339 1.243 . S
C324 C323 1.503 . S
C324 C325 1.394 . S
C324 C329 1.373 . S
C325 C324 1.394 . S
C325 C326 1.380 . S
C325 H348 0.930 . S
C326 C325 1.380 . S
C326 C327 1.376 . S
C326 H349 0.930 . S
C327 C326 1.376 . S
C327 C328 1.370 . S
C328 C327 1.370 . S
C328 C329 1.396 . S
C328 H350 0.929 . S
C329 C324 1.373 . S
C329 C328 1.396 . S
C329 H351 0.929 1_655 S
C330 O340 1.240 . S
C330 O341 1.289 1_545 S
C331 O342 1.258 1_455 S
C331 O343 1.256 . S
O332 La312 2.521 . S
O332 C314 1.261 . S
O333 La312 2.628 . S
O333 C314 1.243 . S
O334 La312 2.554 . S
O334 C321 1.240 . S
O335 La312 2.757 1_545 S
O335 La313 2.482 1_455 S
O335 C321 1.289 1_545 S
O336 La312 2.470 . S
O336 C322 1.258 1_455 S
O337 La313 2.503 1_565 S
O337 C322 1.256 . S
O338 La313 2.521 . S
O338 C323 1.261 . S
O339 La313 2.628 . S
O339 C323 1.243 . S
O340 La313 2.554 . S
O340 C330 1.240 . S
O341 La312 2.482 1_655 S
O341 La313 2.757 1_565 S
O341 C330 1.289 1_565 S
O342 La313 2.470 . S
O342 C331 1.258 1_655 S
O343 La312 2.503 1_545 S
O343 C331 1.256 . S
H344 C316 0.930 . S
H345 C317 0.930 . S
H346 C319 0.929 1_554 S
H347 C320 0.929 1_655 S
H348 C325 0.930 . S
H349 C326 0.930 . S
H350 C328 0.929 . S
H351 C329 0.929 1_455 S
La352 C354 2.928 . S
La352 O372 2.521 . S
La352 O373 2.628 . S
La352 O374 2.554 . S
La352 O375 2.757 . S
La352 O376 2.470 . S
La352 O381 2.482 1_545 S
La352 O383 2.503 . S
La353 C363 2.928 . S
La353 O375 2.482 1_565 S
La353 O377 2.503 . S
La353 O378 2.521 . S
La353 O379 2.628 . S
La353 O380 2.554 . S
La353 O381 2.757 . S
La353 O382 2.470 . S
C354 La352 2.928 . S
C354 C355 1.503 . S
C354 O372 1.261 . S
C354 O373 1.243 . S
C355 C354 1.503 . S
C355 C356 1.394 . S
C355 C360 1.373 . S
C356 C355 1.394 . S
C356 C357 1.380 . S
C356 H384 0.930 . S
C357 C356 1.380 . S
C357 C358 1.376 . S
C357 H385 0.930 . S
C358 C357 1.376 . S
C358 C359 1.370 . S
C359 C358 1.370 . S
C359 C360 1.396 . S
C359 H386 0.955 1_556 S
C360 C355 1.373 . S
C360 C359 1.396 . S
C360 H387 0.929 1_545 S
C361 O374 1.240 . S
C361 O375 1.289 . S
C362 O376 1.258 1_565 S
C362 O377 1.256 . S
C363 La353 2.928 . S
C363 C364 1.503 . S
C363 O378 1.261 . S
C363 O379 1.243 . S
C364 C363 1.503 . S
C364 C365 1.394 . S
C364 C369 1.373 . S
C365 C364 1.394 . S
C365 C366 1.380 . S
C365 H388 0.930 . S
C366 C365 1.380 . S
C366 C367 1.376 . S
C366 H389 0.930 . S
C367 C366 1.376 . S
C367 C368 1.370 . S
C368 C367 1.370 . S
C368 C369 1.396 . S
C368 H390 0.947 . S
C369 C364 1.373 . S
C369 C368 1.396 . S
C369 H391 0.929 1_565 S
C370 O380 1.240 . S
C370 O381 1.289 . S
C371 O382 1.258 1_545 S
C371 O383 1.256 . S
O372 La352 2.521 . S
O372 C354 1.261 . S
O373 La352 2.628 . S
O373 C354 1.243 . S
O374 La352 2.554 . S
O374 C361 1.240 . S
O375 La352 2.757 . S
O375 La353 2.482 1_545 S
O375 C361 1.289 . S
O376 La352 2.470 . S
O376 C362 1.258 1_545 S
O377 La353 2.503 . S
O377 C362 1.256 . S
O378 La353 2.521 . S
O378 C363 1.261 . S
O379 La353 2.628 . S
O379 C363 1.243 . S
O380 La353 2.554 . S
O380 C370 1.240 . S
O381 La352 2.482 1_565 S
O381 La353 2.757 . S
O381 C370 1.289 . S
O382 La353 2.470 . S
O382 C371 1.258 1_565 S
O383 La352 2.503 . S
O383 C371 1.256 . S
H384 C356 0.930 . S
H385 C357 0.930 . S
H386 C359 0.955 1_554 S
H387 C360 0.929 1_565 S
H388 C365 0.930 . S
H389 C366 0.930 . S
H390 C368 0.947 . S
H391 C369 0.929 1_545 S
La392 C394 2.928 . S
La392 O412 2.521 . S
La392 O413 2.628 . S
La392 O414 2.554 . S
La392 O415 2.757 . S
La392 O416 2.470 . S
La392 O421 2.482 . S
La392 O423 2.503 . S
La393 C403 2.928 . S
La393 O415 2.482 . S
La393 O417 2.503 . S
La393 O418 2.521 . S
La393 O419 2.628 . S
La393 O420 2.554 . S
La393 O421 2.757 . S
La393 O422 2.470 . S
C394 La392 2.928 . S
C394 C395 1.503 . S
C394 O412 1.261 . S
C394 O413 1.243 . S
C395 C394 1.503 . S
C395 C396 1.394 . S
C395 C400 1.373 . S
C396 C395 1.394 . S
C396 C397 1.380 . S
C396 H424 0.930 . S
C397 C396 1.380 . S
C397 C398 1.376 . S
C397 H425 0.930 . S
C398 C397 1.376 . S
C398 C399 1.370 . S
C399 C398 1.370 . S
C399 C400 1.396 . S
C399 H426 0.929 1_556 S
C400 C395 1.373 . S
C400 C399 1.396 . S
C400 H427 0.929 . S
C401 O414 1.240 . S
C401 O415 1.289 . S
C402 O416 1.258 . S
C402 O417 1.256 . S
C403 La393 2.928 . S
C403 C404 1.503 . S
C403 O418 1.261 . S
C403 O419 1.243 . S
C404 C403 1.503 . S
C404 C405 1.394 . S
C404 C409 1.373 . S
C405 C404 1.394 . S
C405 C406 1.380 . S
C405 H428 0.930 . S
C406 C405 1.380 . S
C406 C407 1.376 . S
C406 H429 0.930 . S
C407 C406 1.376 . S
C407 C408 1.370 . S
C408 C407 1.370 . S
C408 C409 1.396 . S
C408 H430 0.929 . S
C409 C404 1.373 . S
C409 C408 1.396 . S
C409 H431 0.929 . S
C410 O420 1.240 . S
C410 O421 1.289 . S
C411 O422 1.258 . S
C411 O423 1.256 . S
O412 La392 2.521 . S
O412 C394 1.261 . S
O413 La392 2.628 . S
O413 C394 1.243 . S
O414 La392 2.554 . S
O414 C401 1.240 . S
O415 La392 2.757 . S
O415 La393 2.482 . S
O415 C401 1.289 . S
O416 La392 2.470 . S
O416 C402 1.258 . S
O417 La393 2.503 . S
O417 C402 1.256 . S
O418 La393 2.521 . S
O418 C403 1.261 . S
O419 La393 2.628 . S
O419 C403 1.243 . S
O420 La393 2.554 . S
O420 C410 1.240 . S
O421 La392 2.482 . S
O421 La393 2.757 . S
O421 C410 1.289 . S
O422 La393 2.470 . S
O422 C411 1.258 . S
O423 La392 2.503 . S
O423 C411 1.256 . S
H424 C396 0.930 . S
H425 C397 0.930 . S
H426 C399 0.929 1_554 S
H427 C400 0.929 . S
H428 C405 0.930 . S
H429 C406 0.930 . S
H430 C408 0.929 . S
H431 C409 0.929 . S
La432 C434 2.928 . S
La432 O452 2.521 . S
La432 O453 2.628 . S
La432 O454 2.554 . S
La432 O455 2.757 1_655 S
La432 O456 2.470 . S
La432 O461 2.482 . S
La432 O463 2.503 1_655 S
La433 C443 2.928 . S
La433 O455 2.482 . S
La433 O457 2.503 1_455 S
La433 O458 2.521 . S
La433 O459 2.628 . S
La433 O460 2.554 . S
La433 O461 2.757 1_455 S
La433 O462 2.470 . S
C434 La432 2.928 . S
C434 C435 1.503 . S
C434 O452 1.261 . S
C434 O453 1.243 . S
C435 C434 1.503 . S
C435 C436 1.394 . S
C435 C440 1.373 . S
C436 C435 1.394 . S
C436 C437 1.380 . S
C436 H464 0.930 . S
C437 C436 1.380 . S
C437 C438 1.376 . S
C437 H465 0.930 . S
C438 C437 1.376 . S
C438 C439 1.370 . S
C439 C438 1.370 . S
C439 C440 1.396 . S
C439 H466 0.929 1_556 S
C440 C435 1.373 . S
C440 C439 1.396 . S
C440 H467 0.929 . S
C441 O454 1.251 . S
C441 O455 1.283 1_655 S
C442 O456 1.258 . S
C442 O457 1.256 . S
C443 La433 2.928 . S
C443 C444 1.503 . S
C443 O458 1.261 . S
C443 O459 1.243 . S
C444 C443 1.503 . S
C444 C445 1.394 . S
C444 C449 1.373 . S
C445 C444 1.394 . S
C445 C446 1.380 . S
C445 H468 0.930 . S
C446 C445 1.380 . S
C446 C447 1.376 . S
C446 H469 0.930 . S
C447 C446 1.376 . S
C447 C448 1.370 . S
C448 C447 1.370 . S
C448 C449 1.396 . S
C448 H470 0.929 . S
C449 C444 1.373 . S
C449 C448 1.396 . S
C449 H471 0.929 . S
C450 O460 1.257 . S
C450 O461 1.279 1_455 S
C451 O462 1.258 . S
C451 O463 1.256 . S
O452 La432 2.521 . S
O452 C434 1.261 . S
O453 La432 2.628 . S
O453 C434 1.243 . S
O454 La432 2.554 . S
O454 C441 1.251 . S
O455 La432 2.757 1_455 S
O455 La433 2.482 . S
O455 C441 1.283 1_455 S
O456 La432 2.470 . S
O456 C442 1.258 . S
O457 La433 2.503 1_655 S
O457 C442 1.256 . S
O458 La433 2.521 . S
O458 C443 1.261 . S
O459 La433 2.628 . S
O459 C443 1.243 . S
O460 La433 2.554 . S
O460 C450 1.257 . S
O461 La432 2.482 . S
O461 La433 2.757 1_655 S
O461 C450 1.279 1_655 S
O462 La433 2.470 . S
O462 C451 1.258 . S
O463 La432 2.503 1_455 S
O463 C451 1.256 . S
H464 C436 0.930 . S
H465 C437 0.930 . S
H466 C439 0.929 1_554 S
H467 C440 0.929 . S
H468 C445 0.930 . S
H469 C446 0.930 . S
H470 C448 0.929 . S
H471 C449 0.929 . S
H472 C478 0.930 . S
H473 C481 0.930 . S
H474 C482 0.930 . S
H475 C483 0.930 . S
H476 C486 0.930 . S
H477 C487 0.930 . S
C478 H472 0.930 . S
C478 C479 1.360 . S
C478 C480 1.415 . S
C479 C478 1.360 . S
C479 C481 1.413 1_545 S
C480 C478 1.415 . S
C480 C485 1.425 1_545 S
C480 C487 1.409 . S
C481 H473 0.930 . S
C481 C479 1.413 1_565 S
C481 C482 1.362 . S
C482 H474 0.930 . S
C482 C481 1.362 . S
C482 C485 1.409 . S
C483 H475 0.930 . S
C483 C484 1.349 1_565 S
C483 C485 1.415 . S
C484 C483 1.349 1_545 S
C484 C486 1.426 . S
C485 C480 1.425 1_565 S
C485 C482 1.409 . S
C485 C483 1.415 . S
C486 H476 0.930 . S
C486 C484 1.426 . S
C486 C487 1.362 . S
C487 H477 0.930 . S
C487 C480 1.409 . S
C487 C486 1.362 . S
H488 C494 0.930 . S
H489 C497 0.930 . S
H490 C498 0.930 . S
H491 C499 0.930 . S
H492 C502 0.930 . S
H493 C503 0.930 . S
C494 H488 0.930 . S
C494 C495 1.355 . S
C494 C496 1.415 . S
C495 C494 1.355 . S
C495 C497 1.419 . S
C496 C494 1.415 . S
C496 C501 1.425 . S
C496 C503 1.409 . S
C497 H489 0.930 . S
C497 C495 1.419 . S
C497 C498 1.362 . S
C498 H490 0.930 . S
C498 C497 1.362 . S
C498 C501 1.409 . S
C499 H491 0.930 . S
C499 C500 1.355 . S
C499 C501 1.415 . S
C500 C499 1.355 . S
C500 C502 1.419 . S
C501 C496 1.425 . S
C501 C498 1.409 . S
C501 C499 1.415 . S
C502 H492 0.930 . S
C502 C500 1.419 . S
C502 C503 1.362 . S
C503 H493 0.930 . S
C503 C496 1.409 . S
C503 C502 1.362 . S
H504 C510 0.930 . S
H505 C513 0.930 . S
H506 C514 0.930 . S
H507 C515 0.930 . S
H508 C518 0.930 . S
H509 C519 0.930 . S
C510 H504 0.930 . S
C510 C511 1.355 . S
C510 C512 1.415 . S
C511 C510 1.355 . S
C511 C513 1.419 . S
C512 C510 1.415 . S
C512 C517 1.425 . S
C512 C519 1.409 . S
C513 H505 0.930 . S
C513 C511 1.419 . S
C513 C514 1.362 . S
C514 H506 0.930 . S
C514 C513 1.362 . S
C514 C517 1.409 . S
C515 H507 0.930 . S
C515 C516 1.355 . S
C515 C517 1.415 . S
C516 C515 1.355 . S
C516 C518 1.419 . S
C517 C512 1.425 . S
C517 C514 1.409 . S
C517 C515 1.415 . S
C518 H508 0.930 . S
C518 C516 1.419 . S
C518 C519 1.362 . S
C519 H509 0.930 . S
C519 C512 1.409 . S
C519 C518 1.362 . S
H520 C526 0.930 . S
H521 C529 0.930 . S
H522 C530 0.930 . S
H523 C531 0.930 . S
H524 C534 0.930 1_655 S
H525 C535 0.931 . S
C526 H520 0.930 . S
C526 C527 1.355 . S
C526 C528 1.416 . S
C527 C526 1.355 . S
C527 C529 1.419 . S
C528 C526 1.416 . S
C528 C533 1.427 . S
C528 C535 1.408 1_455 S
C529 H521 0.930 . S
C529 C527 1.419 . S
C529 C530 1.362 . S
C530 H522 0.930 . S
C530 C529 1.362 . S
C530 C533 1.409 . S
C531 H523 0.930 . S
C531 C532 1.356 . S
C531 C533 1.415 . S
C532 C531 1.356 . S
C532 C534 1.419 . S
C533 C528 1.427 . S
C533 C530 1.409 . S
C533 C531 1.415 . S
C534 H524 0.930 1_455 S
C534 C532 1.419 . S
C534 C535 1.362 1_455 S
C535 H525 0.931 . S
C535 C528 1.408 1_655 S
C535 C534 1.362 1_655 S
H536 C542 0.930 . S
H537 C545 0.930 . S
H538 C546 0.930 . S
H539 C547 0.930 . S
H540 C550 0.930 . S
H541 C551 0.930 . S
C542 H536 0.930 . S
C542 C543 1.355 1_565 S
C542 C544 1.415 . S
C543 C542 1.355 1_545 S
C543 C545 1.419 . S
C544 C542 1.415 . S
C544 C549 1.425 1_565 S
C544 C551 1.409 . S
C545 H537 0.930 . S
C545 C543 1.419 . S
C545 C546 1.362 . S
C546 H538 0.930 . S
C546 C545 1.362 . S
C546 C549 1.409 . S
C547 H539 0.930 . S
C547 C548 1.355 1_545 S
C547 C549 1.415 1_556 S
C548 C547 1.355 1_565 S
C548 C550 1.419 . S
C549 C544 1.425 1_545 S
C549 C546 1.409 . S
C549 C547 1.415 1_554 S
C550 H540 0.930 . S
C550 C548 1.419 . S
C550 C551 1.362 1_556 S
C551 H541 0.930 . S
C551 C544 1.409 . S
C551 C550 1.362 1_554 S
H552 C558 0.930 . S
H553 C561 0.930 . S
H554 C562 0.930 . S
H555 C563 0.930 . S
H556 C566 0.930 . S
H557 C567 0.930 1_554 S
C558 H552 0.930 . S
C558 C559 1.355 . S
C558 C560 1.415 . S
C559 C558 1.355 . S
C559 C561 1.419 . S
C560 C558 1.415 . S
C560 C565 1.425 . S
C560 C567 1.409 1_554 S
C561 H553 0.930 . S
C561 C559 1.419 . S
C561 C562 1.362 . S
C562 H554 0.930 . S
C562 C561 1.362 . S
C562 C565 1.409 . S
C563 H555 0.930 . S
C563 C564 1.355 . S
C563 C565 1.415 1_556 S
C564 C563 1.355 . S
C564 C566 1.419 . S
C565 C560 1.425 . S
C565 C562 1.409 . S
C565 C563 1.415 1_554 S
C566 H556 0.930 . S
C566 C564 1.419 . S
C566 C567 1.362 . S
C567 H557 0.930 1_556 S
C567 C560 1.409 1_556 S
C567 C566 1.362 . S
H568 C574 0.930 . S
H569 C577 0.930 . S
H570 C578 0.930 . S
H571 C579 0.930 . S
H572 C582 0.930 . S
H573 C583 0.930 . S
C574 H568 0.930 . S
C574 C575 1.355 . S
C574 C576 1.415 . S
C575 C574 1.355 . S
C575 C577 1.419 . S
C576 C574 1.415 . S
C576 C581 1.425 . S
C576 C583 1.409 1_554 S
C577 H569 0.930 . S
C577 C575 1.419 . S
C577 C578 1.362 . S
C578 H570 0.930 . S
C578 C577 1.362 . S
C578 C581 1.409 . S
C579 H571 0.930 . S
C579 C580 1.355 . S
C579 C581 1.415 1_556 S
C580 C579 1.355 . S
C580 C582 1.419 . S
C581 C576 1.425 . S
C581 C578 1.409 . S
C581 C579 1.415 1_554 S
C582 H572 0.930 . S
C582 C580 1.419 . S
C582 C583 1.362 . S
C583 H573 0.930 . S
C583 C576 1.409 1_556 S
C583 C582 1.362 . S
H584 C590 0.930 . S
H585 C593 0.930 . S
H586 C594 0.930 . S
H587 C595 0.930 . S
H588 C598 0.930 . S
H589 C599 0.930 . S
C590 H584 0.930 . S
C590 C591 1.355 1_455 S
C590 C592 1.415 . S
C591 C590 1.355 1_655 S
C591 C593 1.419 . S
C592 C590 1.415 . S
C592 C597 1.425 1_455 S
C592 C599 1.409 1_554 S
C593 H585 0.930 . S
C593 C591 1.419 . S
C593 C594 1.362 . S
C594 H586 0.930 . S
C594 C593 1.362 . S
C594 C597 1.409 . S
C595 H587 0.930 . S
C595 C596 1.357 . S
C595 C597 1.415 1_556 S
C596 C595 1.357 . S
C596 C598 1.417 1_655 S
C597 C592 1.425 1_655 S
C597 C594 1.409 . S
C597 C595 1.415 1_554 S
C598 H588 0.930 . S
C598 C596 1.417 1_455 S
C598 C599 1.362 . S
C599 H589 0.930 . S
C599 C592 1.409 1_556 S
C599 C598 1.362 . S
H600 C606 0.930 . S
H601 C609 0.930 . S
H602 C610 0.930 . S
H603 C611 0.930 . S
H604 C614 0.930 . S
H605 C615 0.930 1_455 S
C606 H600 0.930 . S
C606 C607 1.358 . S
C606 C608 1.415 1_455 S
C607 C606 1.358 . S
C607 C609 1.401 1_455 S
C608 C606 1.415 1_655 S
C608 C613 1.425 . S
C608 C615 1.409 . S
C609 H601 0.930 . S
C609 C607 1.401 1_655 S
C609 C610 1.362 . S
C610 H602 0.930 . S
C610 C609 1.362 . S
C610 C613 1.409 . S
C611 H603 0.930 . S
C611 C612 1.355 . S
C611 C613 1.415 . S
C612 C611 1.355 . S
C612 C614 1.419 . S
C613 C608 1.425 . S
C613 C610 1.409 . S
C613 C611 1.415 . S
C614 H604 0.930 . S
C614 C612 1.419 . S
C614 C615 1.362 . S
C615 H605 0.930 1_655 S
C615 C608 1.409 . S
C615 C614 1.362 . S
H616 C622 0.930 . S
H617 C625 0.930 . S
H618 C626 0.930 . S
H619 C627 0.930 . S
H620 C630 0.930 . S
H621 C631 0.930 . S
C622 H616 0.930 . S
C622 C623 1.355 1_565 S
C622 C624 1.415 . S
C623 C622 1.355 1_545 S
C623 C625 1.419 . S
C624 C622 1.415 . S
C624 C629 1.425 . S
C624 C631 1.409 . S
C625 H617 0.930 . S
C625 C623 1.419 . S
C625 C626 1.362 1_545 S
C626 H618 0.930 . S
C626 C625 1.362 1_565 S
C626 C629 1.409 . S
C627 H619 0.930 . S
C627 C628 1.355 . S
C627 C629 1.415 . S
C628 C627 1.355 . S
C628 C630 1.419 . S
C629 C624 1.425 . S
C629 C626 1.409 . S
C629 C627 1.415 . S
C630 H620 0.930 . S
C630 C628 1.419 . S
C630 C631 1.362 . S
C631 H621 0.930 . S
C631 C624 1.409 . S
C631 C630 1.362 . S
H632 C638 0.930 . S
H633 C641 0.930 . S
H634 C642 0.930 . S
H635 C643 0.930 . S
H636 C646 0.930 . S
H637 C647 0.930 . S
C638 H632 0.930 . S
C638 C639 1.355 . S
C638 C640 1.415 . S
C639 C638 1.355 . S
C639 C641 1.419 . S
C640 C638 1.415 . S
C640 C645 1.425 . S
C640 C647 1.409 . S
C641 H633 0.930 . S
C641 C639 1.419 . S
C641 C642 1.362 . S
C642 H634 0.930 . S
C642 C641 1.362 . S
C642 C645 1.409 . S
C643 H635 0.930 . S
C643 C644 1.355 . S
C643 C645 1.415 . S
C644 C643 1.355 . S
C644 C646 1.419 . S
C645 C640 1.425 . S
C645 C642 1.409 . S
C645 C643 1.415 . S
C646 H636 0.930 . S
C646 C644 1.419 . S
C646 C647 1.362 . S
C647 H637 0.930 . S
C647 C640 1.409 . S
C647 C646 1.362 . S
H648 C654 0.930 . S
H649 C657 0.930 . S
H650 C658 0.930 . S
H651 C659 0.930 . S
H652 C662 0.930 . S
H653 C663 0.930 . S
C654 H648 0.930 . S
C654 C655 1.355 . S
C654 C656 1.415 . S
C655 C654 1.355 . S
C655 C657 1.419 . S
C656 C654 1.415 . S
C656 C661 1.425 . S
C656 C663 1.409 . S
C657 H649 0.930 . S
C657 C655 1.419 . S
C657 C658 1.362 . S
C658 H650 0.930 . S
C658 C657 1.362 . S
C658 C661 1.409 . S
C659 H651 0.930 . S
C659 C660 1.355 . S
C659 C661 1.415 . S
C660 C659 1.355 . S
C660 C662 1.419 . S
C661 C656 1.425 . S
C661 C658 1.409 . S
C661 C659 1.415 . S
C662 H652 0.930 . S
C662 C660 1.419 . S
C662 C663 1.362 . S
C663 H653 0.930 . S
C663 C656 1.409 . S
C663 C662 1.362 . S
H664 C670 0.930 . S
H665 C673 0.930 . S
H666 C674 0.930 . S
H667 C675 0.930 . S
H668 C678 0.930 . S
H669 C679 0.930 1_655 S
C670 H664 0.930 . S
C670 C671 1.358 . S
C670 C672 1.415 1_655 S
C671 C670 1.358 . S
C671 C673 1.407 1_655 S
C672 C670 1.415 1_455 S
C672 C677 1.425 . S
C672 C679 1.409 1_554 S
C673 H665 0.930 . S
C673 C671 1.407 1_455 S
C673 C674 1.362 . S
C674 H666 0.930 . S
C674 C673 1.362 . S
C674 C677 1.409 . S
C675 H667 0.930 . S
C675 C676 1.355 . S
C675 C677 1.415 . S
C676 C675 1.355 . S
C676 C678 1.419 1_554 S
C677 C672 1.425 . S
C677 C674 1.409 . S
C677 C675 1.415 . S
C678 H668 0.930 . S
C678 C676 1.419 1_556 S
C678 C679 1.362 . S
C679 H669 0.930 1_455 S
C679 C672 1.409 1_556 S
C679 C678 1.362 . S
H680 C686 0.930 . S
H681 C689 0.930 . S
H682 C690 0.930 . S
H683 C691 0.930 . S
H684 C694 0.930 . S
H685 C695 0.930 . S
C686 H680 0.930 . S
C686 C687 1.355 1_545 S
C686 C688 1.415 . S
C687 C686 1.355 1_565 S
C687 C689 1.419 . S
C688 C686 1.415 . S
C688 C693 1.425 . S
C688 C695 1.409 1_554 S
C689 H681 0.930 . S
C689 C687 1.419 . S
C689 C690 1.362 . S
C690 H682 0.930 . S
C690 C689 1.362 . S
C690 C693 1.409 1_565 S
C691 H683 0.930 . S
C691 C692 1.355 . S
C691 C693 1.415 . S
C692 C691 1.355 . S
C692 C694 1.419 1_554 S
C693 C688 1.425 . S
C693 C690 1.409 1_545 S
C693 C691 1.415 . S
C694 H684 0.930 . S
C694 C692 1.419 1_556 S
C694 C695 1.362 . S
C695 H685 0.930 . S
C695 C688 1.409 1_556 S
C695 C694 1.362 . S
H696 C702 0.930 . S
H697 C705 0.930 . S
H698 C706 0.930 . S
H699 C707 0.930 . S
H700 C710 0.930 . S
H701 C711 0.930 . S
C702 H696 0.930 . S
C702 C703 1.355 . S
C702 C704 1.415 . S
C703 C702 1.355 . S
C703 C705 1.419 . S
C704 C702 1.415 . S
C704 C709 1.425 . S
C704 C711 1.409 1_554 S
C705 H697 0.930 . S
C705 C703 1.419 . S
C705 C706 1.362 . S
C706 H698 0.930 . S
C706 C705 1.362 . S
C706 C709 1.409 . S
C707 H699 0.930 . S
C707 C708 1.355 . S
C707 C709 1.415 . S
C708 C707 1.355 . S
C708 C710 1.419 1_554 S
C709 C704 1.425 . S
C709 C706 1.409 . S
C709 C707 1.415 . S
C710 H700 0.930 . S
C710 C708 1.419 1_556 S
C710 C711 1.362 . S
C711 H701 0.930 . S
C711 C704 1.409 1_556 S
C711 C710 1.362 . S
H712 C718 0.930 . S
H713 C721 0.930 . S
H714 C722 0.930 1_556 S
H715 C723 0.930 . S
H716 C726 0.930 . S
H717 C727 0.930 . S
C718 H712 0.930 . S
C718 C719 1.355 . S
C718 C720 1.415 . S
C719 C718 1.355 . S
C719 C721 1.419 . S
C720 C718 1.415 . S
C720 C725 1.425 . S
C720 C727 1.409 . S
C721 H713 0.930 . S
C721 C719 1.419 . S
C721 C722 1.362 . S
C722 H714 0.930 1_554 S
C722 C721 1.362 . S
C722 C725 1.409 . S
C723 H715 0.930 . S
C723 C724 1.355 1_556 S
C723 C725 1.415 1_556 S
C724 C723 1.355 1_554 S
C724 C726 1.419 . S
C725 C720 1.425 . S
C725 C722 1.409 . S
C725 C723 1.415 1_554 S
C726 H716 0.930 . S
C726 C724 1.419 . S
C726 C727 1.362 . S
C727 H717 0.930 . S
C727 C720 1.409 . S
C727 C726 1.362 . S
H728 C734 0.926 1_655 S
H729 C737 0.930 . S
H730 C738 0.930 . S
H731 C739 0.930 . S
H732 C742 0.930 . S
H733 C743 0.930 . S
C734 H728 0.926 1_455 S
C734 C735 1.355 . S
C734 C736 1.415 . S
C735 C734 1.355 . S
C735 C737 1.419 . S
C736 C734 1.415 . S
C736 C741 1.425 . S
C736 C743 1.409 . S
C737 H729 0.930 . S
C737 C735 1.419 . S
C737 C738 1.362 . S
C738 H730 0.930 . S
C738 C737 1.362 . S
C738 C741 1.409 . S
C739 H731 0.930 . S
C739 C740 1.355 . S
C739 C741 1.415 . S
C740 C739 1.355 . S
C740 C742 1.419 . S
C741 C736 1.425 . S
C741 C738 1.409 . S
C741 C739 1.415 . S
C742 H732 0.930 . S
C742 C740 1.419 . S
C742 C743 1.362 . S
C743 H733 0.930 . S
C743 C736 1.409 . S
C743 C742 1.362 . S
H744 C750 0.930 . S
H745 C753 0.930 . S
H746 C754 0.930 . S
H747 C755 0.930 . S
H748 C758 0.925 1_565 S
H749 C759 0.930 . S
C750 H744 0.930 . S
C750 C751 1.355 1_565 S
C750 C752 1.415 1_565 S
C751 C750 1.355 1_545 S
C751 C753 1.419 . S
C752 C750 1.415 1_545 S
C752 C757 1.425 . S
C752 C759 1.409 1_545 S
C753 H745 0.930 . S
C753 C751 1.419 . S
C753 C754 1.362 . S
C754 H746 0.930 . S
C754 C753 1.362 . S
C754 C757 1.409 . S
C755 H747 0.930 . S
C755 C756 1.355 . S
C755 C757 1.415 . S
C756 C755 1.355 . S
C756 C758 1.427 . S
C757 C752 1.425 . S
C757 C754 1.409 . S
C757 C755 1.415 . S
C758 H748 0.925 1_545 S
C758 C756 1.427 . S
C758 C759 1.359 1_545 S
C759 H749 0.930 . S
C759 C752 1.409 1_565 S
C759 C758 1.359 1_565 S
H760 C766 0.930 . S
H761 C769 0.930 . S
H762 C770 0.930 . S
H763 C771 0.930 . S
H764 C774 0.930 . S
H765 C775 0.930 . S
C766 H760 0.930 . S
C766 C767 1.355 . S
C766 C768 1.415 . S
C767 C766 1.355 . S
C767 C769 1.419 . S
C768 C766 1.415 . S
C768 C773 1.425 . S
C768 C775 1.409 . S
C769 H761 0.930 . S
C769 C767 1.419 . S
C769 C770 1.362 . S
C770 H762 0.930 . S
C770 C769 1.362 . S
C770 C773 1.409 . S
C771 H763 0.930 . S
C771 C772 1.355 . S
C771 C773 1.415 . S
C772 C771 1.355 . S
C772 C774 1.419 . S
C773 C768 1.425 . S
C773 C770 1.409 . S
C773 C771 1.415 . S
C774 H764 0.930 . S
C774 C772 1.419 . S
C774 C775 1.362 . S
C775 H765 0.930 . S
C775 C768 1.409 . S
C775 C774 1.362 . S
H776 C782 0.930 . S
H777 C785 0.930 . S
H778 C786 0.930 . S
H779 C787 0.930 . S
H780 C790 0.930 . S
H781 C791 0.930 . S
C782 H776 0.930 . S
C782 C783 1.355 . S
C782 C784 1.415 . S
C783 C782 1.355 . S
C783 C785 1.419 . S
C784 C782 1.415 . S
C784 C789 1.425 . S
C784 C791 1.409 . S
C785 H777 0.930 . S
C785 C783 1.419 . S
C785 C786 1.362 . S
C786 H778 0.930 . S
C786 C785 1.362 . S
C786 C789 1.409 . S
C787 H779 0.930 . S
C787 C788 1.355 . S
C787 C789 1.415 . S
C788 C787 1.355 . S
C788 C790 1.419 . S
C789 C784 1.425 . S
C789 C786 1.409 . S
C789 C787 1.415 . S
C790 H780 0.930 . S
C790 C788 1.419 . S
C790 C791 1.362 . S
C791 H781 0.930 . S
C791 C784 1.409 . S
C791 C790 1.362 . S
H792 C798 0.930 . S
H793 C801 0.930 . S
H794 C802 0.930 . S
H795 C803 0.930 . S
H796 C806 0.930 . S
H797 C807 0.930 . S
C798 H792 0.930 . S
C798 C799 1.355 1_455 S
C798 C800 1.415 . S
C799 C798 1.355 1_655 S
C799 C801 1.419 . S
C800 C798 1.415 . S
C800 C805 1.425 1_455 S
C800 C807 1.409 . S
C801 H793 0.930 . S
C801 C799 1.419 . S
C801 C802 1.362 . S
C802 H794 0.930 . S
C802 C801 1.362 . S
C802 C805 1.409 . S
C803 H795 0.930 . S
C803 C804 1.355 . S
C803 C805 1.415 . S
C804 C803 1.355 . S
C804 C806 1.419 1_655 S
C805 C800 1.425 1_655 S
C805 C802 1.409 . S
C805 C803 1.415 . S
C806 H796 0.930 . S
C806 C804 1.419 1_455 S
C806 C807 1.362 . S
C807 H797 0.930 . S
C807 C800 1.409 . S
C807 C806 1.362 . S
H808 C814 0.930 . S
H809 C817 0.930 . S
H810 C818 0.930 . S
H811 C819 0.930 . S
H812 C822 0.930 . S
H813 C823 0.930 . S
C814 H808 0.930 . S
C814 C815 1.355 . S
C814 C816 1.415 . S
C815 C814 1.355 . S
C815 C817 1.419 1_565 S
C816 C814 1.415 . S
C816 C821 1.425 1_565 S
C816 C823 1.409 . S
C817 H809 0.930 . S
C817 C815 1.419 1_545 S
C817 C818 1.362 . S
C818 H810 0.930 . S
C818 C817 1.362 . S
C818 C821 1.409 . S
C819 H811 0.930 . S
C819 C820 1.355 1_545 S
C819 C821 1.415 . S
C820 C819 1.355 1_565 S
C820 C822 1.419 . S
C821 C816 1.425 1_545 S
C821 C818 1.409 . S
C821 C819 1.415 . S
C822 H812 0.930 . S
C822 C820 1.419 . S
C822 C823 1.362 . S
C823 H813 0.930 . S
C823 C816 1.409 . S
C823 C822 1.362 . S
H824 C830 0.930 . S
H825 C833 0.930 . S
H826 C834 0.930 . S
H827 C835 0.930 . S
H828 C838 0.930 . S
H829 C839 0.930 . S
C830 H824 0.930 . S
C830 C831 1.355 . S
C830 C832 1.415 . S
C831 C830 1.355 . S
C831 C833 1.419 . S
C832 C830 1.415 . S
C832 C837 1.425 . S
C832 C839 1.409 . S
C833 H825 0.930 . S
C833 C831 1.419 . S
C833 C834 1.362 . S
C834 H826 0.930 . S
C834 C833 1.362 . S
C834 C837 1.409 . S
C835 H827 0.930 . S
C835 C836 1.355 . S
C835 C837 1.415 . S
C836 C835 1.355 . S
C836 C838 1.419 . S
C837 C832 1.425 . S
C837 C834 1.409 . S
C837 C835 1.415 . S
C838 H828 0.930 . S
C838 C836 1.419 . S
C838 C839 1.362 . S
C839 H829 0.930 . S
C839 C832 1.409 . S
C839 C838 1.362 . S
H840 C846 0.930 . S
H841 C849 0.930 . S
H842 C850 0.930 . S
H843 C851 0.930 . S
H844 C854 0.930 . S
H845 C855 0.930 . S
C846 H840 0.930 . S
C846 C847 1.355 . S
C846 C848 1.415 . S
C847 C846 1.355 . S
C847 C849 1.419 . S
C848 C846 1.415 . S
C848 C853 1.425 . S
C848 C855 1.409 . S
C849 H841 0.930 . S
C849 C847 1.419 . S
C849 C850 1.362 . S
C850 H842 0.930 . S
C850 C849 1.362 . S
C850 C853 1.409 . S
C851 H843 0.930 . S
C851 C852 1.355 . S
C851 C853 1.415 . S
C852 C851 1.355 . S
C852 C854 1.419 . S
C853 C848 1.425 . S
C853 C850 1.409 . S
C853 C851 1.415 . S
C854 H844 0.930 . S
C854 C852 1.419 . S
C854 C855 1.362 . S
C855 H845 0.930 . S
C855 C848 1.409 . S
C855 C854 1.362 . S
C479 C255 2.280 1_545 S
C484 C321 2.549 1_545 S
C500 C361 2.591 . S
C495 C294 2.303 . S
C516 C401 2.587 . S
C511 C177 2.362 . S
C532 C441 2.558 1_455 S
C527 C216 2.293 1_455 S
C548 C330 2.571 1_565 S
C543 C99 2.345 1_545 S
C559 C138 2.339 . S
C564 C370 2.586 . S
C575 C21 2.362 . S
C580 C410 2.576 . S
C591 C60 2.357 . S
C596 C450 2.570 1_655 S
C612 C327 0.495 . S
C607 C196 0.529 1_455 S
C628 C367 0.612 . S
C623 C235 0.640 1_545 S
C644 C407 0.632 . S
C639 C289 0.560 . S
C655 C157 0.503 . S
C660 C447 0.466 . S
C671 C40 0.476 . S
C676 C318 0.469 1_554 S
C692 C358 0.610 1_554 S
C687 C79 0.535 . S
C708 C398 0.585 1_554 S
C703 C133 0.505 . S
C719 C1 0.604 . S
C724 C438 0.579 1_554 S
C735 C211 2.973 . S
C740 C331 3.446 . S
C751 C250 2.941 . S
C756 C371 3.416 . S
C772 C411 3.405 . S
C767 C274 2.959 . S
C788 C451 3.441 . S
C783 C172 3.019 . S
C799 C55 3.013 1_655 S
C804 C322 3.444 . S
C820 C362 3.433 . S
C815 C94 2.962 1_565 S
C836 C402 3.423 . S
C831 C118 3.016 . S
C847 C16 3.013 . S
C852 C442 3.434 . S
