# Generated by pormake.
# Topology zzz, (3,6)-cn, num edge types: 1
# Building blocks:
#     Node 0, Type 0, BuildingBlock: QEWDON_clean_linker_0, # of connection points: 3
#     Node 1, Type 0, BuildingBlock: QEWDON_clean_linker_0, # of connection points: 3
#     Node 2, Type 0, BuildingBlock: QEWDON_clean_linker_0, # of connection points: 3
#     Node 3, Type 0, BuildingBlock: QEWDON_clean_linker_0, # of connection points: 3
#     Node 4, Type 0, BuildingBlock: QEWDON_clean_linker_0, # of connection points: 3
#     Node 5, Type 0, BuildingBlock: QEWDON_clean_linker_0, # of connection points: 3
#     Node 6, Type 0, BuildingBlock: QEWDON_clean_linker_0, # of connection points: 3
#     Node 7, Type 0, BuildingBlock: QEWDON_clean_linker_0, # of connection points: 3
#     Node 8, Type 1, BuildingBlock: BETDAH_clean_sbu_0, # of connection points: 6
#     Node 9, Type 1, BuildingBlock: BETDAH_clean_sbu_0, # of connection points: 6
#     Node 10, Type 1, BuildingBlock: BETDAH_clean_sbu_0, # of connection points: 6
#     Node 11, Type 1, BuildingBlock: BETDAH_clean_sbu_0, # of connection points: 6
#     Edge 12, Type (0, 1), BuildingBlock: KIFKEQ_clean_linker_1, # of connection points: 2
#     Edge 13, Type (0, 1), BuildingBlock: KIFKEQ_clean_linker_1, # of connection points: 2
#     Edge 14, Type (0, 1), BuildingBlock: KIFKEQ_clean_linker_1, # of connection points: 2
#     Edge 15, Type (0, 1), BuildingBlock: KIFKEQ_clean_linker_1, # of connection points: 2
#     Edge 16, Type (0, 1), BuildingBlock: KIFKEQ_clean_linker_1, # of connection points: 2
#     Edge 17, Type (0, 1), BuildingBlock: KIFKEQ_clean_linker_1, # of connection points: 2
#     Edge 18, Type (0, 1), BuildingBlock: KIFKEQ_clean_linker_1, # of connection points: 2
#     Edge 19, Type (0, 1), BuildingBlock: KIFKEQ_clean_linker_1, # of connection points: 2
#     Edge 20, Type (0, 1), BuildingBlock: KIFKEQ_clean_linker_1, # of connection points: 2
#     Edge 21, Type (0, 1), BuildingBlock: KIFKEQ_clean_linker_1, # of connection points: 2
#     Edge 22, Type (0, 1), BuildingBlock: KIFKEQ_clean_linker_1, # of connection points: 2
#     Edge 23, Type (0, 1), BuildingBlock: KIFKEQ_clean_linker_1, # of connection points: 2
#     Edge 24, Type (0, 1), BuildingBlock: KIFKEQ_clean_linker_1, # of connection points: 2
#     Edge 25, Type (0, 1), BuildingBlock: KIFKEQ_clean_linker_1, # of connection points: 2
#     Edge 26, Type (0, 1), BuildingBlock: KIFKEQ_clean_linker_1, # of connection points: 2
#     Edge 27, Type (0, 1), BuildingBlock: KIFKEQ_clean_linker_1, # of connection points: 2
#     Edge 28, Type (0, 1), BuildingBlock: KIFKEQ_clean_linker_1, # of connection points: 2
#     Edge 29, Type (0, 1), BuildingBlock: KIFKEQ_clean_linker_1, # of connection points: 2
#     Edge 30, Type (0, 1), BuildingBlock: KIFKEQ_clean_linker_1, # of connection points: 2
#     Edge 31, Type (0, 1), BuildingBlock: KIFKEQ_clean_linker_1, # of connection points: 2
#     Edge 32, Type (0, 1), BuildingBlock: KIFKEQ_clean_linker_1, # of connection points: 2
#     Edge 33, Type (0, 1), BuildingBlock: KIFKEQ_clean_linker_1, # of connection points: 2
#     Edge 34, Type (0, 1), BuildingBlock: KIFKEQ_clean_linker_1, # of connection points: 2
#     Edge 35, Type (0, 1), BuildingBlock: KIFKEQ_clean_linker_1, # of connection points: 2
# Relax obj value: 0.171
# Max RMSD: 0.173
# Mean RMSD: 0.126
data_MOF--net-zzz--node1-BETDAH_clean_sbu_0--node2-QEWDON_clean_linker_0--edge1-KIFKEQ_clean_linker_1
_symmetry_space_group_name_H-M    P1
_symmetry_Int_Tables_number       1
_symmetry_cell_setting            triclinic
loop_
_symmetry_equiv_pos_as_xyz
'x, y, z'
_cell_length_a     56.94424
_cell_length_b     56.966051
_cell_length_c     12.821253
_cell_angle_alpha  89.998954
_cell_angle_beta   89.985718
_cell_angle_gamma 90.195954
loop_
_atom_site_label
_atom_site_type_symbol
_atom_site_fract_x
_atom_site_fract_y
_atom_site_fract_z
_atom_type_partial_charge
H0 H 0.75434 0.52541 0.16224 0.0
C1 C 0.76761 0.52254 0.22113 0.0
C2 C 0.78971 0.51567 0.18726 0.0
C3 C 0.76286 0.5261 0.32781 0.0
H4 H 0.82554 0.50937 0.2292 0.0
C5 C 0.80818 0.51366 0.25836 0.0
C6 C 0.8051 0.5185 0.36457 0.0
C7 C 0.78217 0.52454 0.39971 0.0
C8 C 0.73794 0.53221 0.35945 0.0
H9 H 0.77953 0.52757 0.48212 0.0
C10 C 0.71834 0.52655 0.29431 0.0
C11 C 0.69536 0.53446 0.31694 0.0
C12 C 0.73343 0.54485 0.4515 0.0
H13 H 0.74751 0.55002 0.50324 0.0
C14 C 0.7106 0.55178 0.47693 0.0
H15 H 0.72065 0.51585 0.22549 0.0
C16 C 0.6918 0.54686 0.41023 0.0
H17 H 0.67455 0.55338 0.43054 0.0
H18 H 0.70753 0.56163 0.54782 0.0
H19 H 0.05477 0.74863 0.26453 0.0
C20 C 0.04728 0.76266 0.31051 0.0
C21 C 0.05997 0.78373 0.31974 0.0
C22 C 0.0252 0.75988 0.35951 0.0
H23 H 0.06027 0.81859 0.38552 0.0
C24 C 0.05091 0.80199 0.3809 0.0
C25 C 0.02898 0.80031 0.42854 0.0
C26 C 1.0159 0.77936 0.41641 0.0
C27 C 1.01231 0.73665 0.35322 0.0
H28 H 0.9986 0.77841 0.45116 0.0
C29 C 1.01518 0.72064 0.26834 0.0
C30 C 1.0032 0.69875 0.26666 0.0
C31 C 0.99747 0.72985 0.43588 0.0
H32 H 0.99533 0.7408 0.50413 0.0
C33 C 0.98555 0.70845 0.43386 0.0
H34 H 0.0262 0.7252 0.20261 0.0
C35 C 0.9883 0.69309 0.3503 0.0
H36 H 0.97902 0.67646 0.35205 0.0
H37 H 0.97426 0.7036 0.49837 0.0
H38 H 0.78647 0.98296 0.2229 0.0
C39 C 0.77272 0.98748 0.27749 0.0
C40 C 0.74969 0.9819 0.25026 0.0
C41 C 0.77783 0.99878 0.37274 0.0
H42 H 0.71333 0.98309 0.29518 0.0
C43 C 0.73127 0.98686 0.31888 0.0
C44 C 0.73521 0.99825 0.41354 0.0
C45 C 0.75863 1.00431 0.44084 0.0
C46 C 0.80319 1.00411 0.39931 0.0
H47 H 0.76166 1.01369 0.51298 0.0
C48 C 0.82068 1.00716 0.3205 0.0
C49 C 0.84485 1.00942 0.34554 0.0
C50 C 0.8105 1.00453 0.504 0.0
H51 H 0.79812 1.00183 0.5669 0.0
C52 C 0.83416 1.00749 0.5295 0.0
H53 H 0.81564 1.00795 0.23931 0.0
C54 C 0.85117 1.00967 0.45159 0.0
H55 H 0.86939 1.01095 0.47495 0.0
H56 H 0.83946 1.00749 0.61059 0.0
H57 H 0.48707 0.79464 0.24799 0.0
C58 C 0.49255 0.78018 0.29703 0.0
C59 C 0.48131 0.75854 0.28442 0.0
C60 C 0.51027 0.78326 0.37252 0.0
H61 H 0.47921 0.72267 0.33652 0.0
C62 C 0.48743 0.73966 0.34889 0.0
C63 C 0.505 0.74168 0.42453 0.0
C64 C 0.51672 0.76355 0.43547 0.0
C65 C 0.52048 0.80748 0.38838 0.0
H66 H 0.53051 0.76519 0.49311 0.0
C67 C 0.52212 0.8241 0.30534 0.0
C68 C 0.52839 0.84793 0.32378 0.0
C69 C 0.52648 0.81494 0.48934 0.0
H70 H 0.52509 0.80316 0.55531 0.0
C71 C 0.53317 0.83812 0.50802 0.0
H72 H 0.51852 0.81849 0.22639 0.0
C73 C 0.53376 0.85448 0.42709 0.0
H74 H 0.5379 0.87247 0.44702 0.0
H75 H 0.53726 0.84365 0.58676 0.0
H76 H 0.29131 0.55974 0.18053 0.0
C77 C 0.277 0.55317 0.1333 0.0
C78 C 0.25625 0.56631 0.12976 0.0
C79 C 0.27907 0.53184 0.07798 0.0
H80 H 0.22124 0.56838 0.06657 0.0
C81 C 0.23761 0.55868 0.06666 0.0
C82 C 0.23863 0.53762 0.01114 0.0
C83 C 0.25925 0.52392 0.01865 0.0
C84 C 0.30193 0.51832 0.08134 0.0
H85 H 0.25967 0.50724 0.97838 0.0
C86 C 0.31818 0.52021 0.16601 0.0
C87 C 0.33982 0.50793 0.16504 0.0
C88 C 0.30819 0.50394 0.99646 0.0
H89 H 0.29708 0.50248 0.92835 0.0
C90 C 0.3293 0.49161 0.99607 0.0
H91 H 0.31404 0.53072 0.23374 0.0
C92 C 0.34493 0.49352 0.07924 0.0
H93 H 0.36135 0.48401 0.07544 0.0
H94 H 0.33375 0.4807 0.92985 0.0
H95 H 0.03382 0.28263 0.26935 0.0
C96 C 0.0358 0.26943 0.20949 0.0
C97 C 0.04329 0.24722 0.24076 0.0
C98 C 0.02972 0.27414 0.10493 0.0
H99 H 0.04879 0.21142 0.19392 0.0
C100 C 0.04429 0.22896 0.16777 0.0
C101 C 0.0374 0.2322 0.06412 0.0
C102 C 0.03033 0.25498 0.03232 0.0
C103 C 0.02127 0.29856 0.07624 0.0
H104 H 0.02553 0.25748 0.95156 0.0
C105 C 0.02652 0.31867 0.1391 0.0
C106 C 1.01631 0.34088 0.11891 0.0
C107 C 1.00656 0.30187 0.98924 0.0
H108 H 1.00138 0.28739 0.93982 0.0
C109 C 0.99748 0.32396 0.9657 0.0
H110 H 0.0381 0.31721 0.20541 0.0
C111 C 1.00213 0.34319 0.02983 0.0
H112 H 0.99451 0.35996 0.00938 0.0
H113 H 0.98628 0.3261 0.89817 0.0
H114 H 0.24762 0.98399 0.19245 0.0
C115 C 0.26204 0.99094 0.14698 0.0
C116 C 0.28303 0.97817 0.14563 0.0
C117 C 0.2599 1.01232 0.09189 0.0
H118 H 0.31838 0.97668 0.08606 0.0
C119 C 0.30188 0.98614 0.08469 0.0
C120 C 0.30082 1.00721 0.02939 0.0
C121 C 0.27995 0.0206 0.03494 0.0
C122 C 0.23678 0.02552 0.09333 0.0
H123 H 0.27959 0.03731 0.99499 0.0
C124 C 0.21966 0.02249 0.17401 0.0
C125 C 0.19777 0.03432 0.17102 0.0
C126 C 0.23112 0.04075 0.0105 0.0
H127 H 0.24283 0.04315 0.94497 0.0
C128 C 0.20983 0.05278 0.00855 0.0
H129 H 0.22321 1.01135 0.24033 0.0
C130 C 0.19335 0.04965 0.08769 0.0
H131 H 0.17677 0.05885 0.08217 0.0
H132 H 0.2059 0.06436 0.94395 0.0
H133 H 0.50813 0.25737 0.27604 0.0
C134 C 0.50796 0.27064 0.21597 0.0
C135 C 0.50027 0.29294 0.24479 0.0
C136 C 0.51648 0.26606 0.11452 0.0
H137 H 0.49723 0.3291 0.19884 0.0
C138 C 0.50193 0.31152 0.17382 0.0
C139 C 0.51165 0.30851 0.07482 0.0
C140 C 0.51816 0.28554 0.04351 0.0
C141 C 0.5253 0.24154 0.08872 0.0
H142 H 0.52508 0.28336 0.96572 0.0
C143 C 0.51931 0.22148 0.15084 0.0
C144 C 0.5298 0.19925 0.13405 0.0
C145 C 0.54108 0.23804 0.00548 0.0
H146 H 0.54689 0.25235 0.95658 0.0
C147 C 0.55041 0.21591 0.98489 0.0
H148 H 0.50691 0.22293 0.21407 0.0
C149 C 0.54501 0.19679 0.04848 0.0
H150 H 0.55287 0.18 0.03035 0.0
H151 H 0.5624 0.21366 0.92014 0.0
Ho152 Ho 0.03225 1.00792 0.84417 0.0
Ho153 Ho 1.00716 0.02295 0.63936 0.0
C154 C 1.01395 0.96766 0.6834 0.0
C155 C 0.04706 0.99396 0.02289 0.0
C156 C 0.05425 0.96982 0.04863 0.0
C157 C 0.04211 0.951 0.00298 0.0
C158 C 0.0504 0.92822 0.01213 0.0
C159 C 0.07073 0.92336 0.07023 0.0
C160 C 0.08281 0.94218 0.11772 0.0
C161 C 0.0747 0.9653 0.10625 0.0
C162 C 0.05981 1.00918 0.67146 0.0
C163 C 0.02243 0.0638 0.80506 0.0
C164 C 1.00058 0.04213 0.46147 0.0
C165 C 1.00283 0.0677 0.44443 0.0
C166 C 0.02513 0.07769 0.42805 0.0
C167 C 0.02908 0.10136 0.44982 0.0
C168 C 1.01077 0.11554 0.48724 0.0
C169 C 0.98798 0.10615 0.49292 0.0
C170 C 0.98401 0.0825 0.47093 0.0
C171 C 0.97425 1.01526 0.79208 0.0
O172 O 1.01866 0.97315 0.78196 0.0
O173 O 1.01136 0.98406 0.61084 0.0
O174 O 0.06066 1.00469 0.95574 0.0
O175 O 0.0247 0.9967 0.00174 0.0
O176 O 0.06099 0.99335 0.74374 0.0
O177 O 0.04404 0.02393 0.69534 0.0
O178 O 1.01361 0.05855 0.71221 0.0
O179 O 0.03011 0.04734 0.87013 0.0
O180 O 0.98321 0.0358 0.52209 0.0
O181 O 0.02005 0.03105 0.48437 0.0
O182 O 0.96938 0.02084 0.69662 0.0
O183 O 0.99627 1.01336 0.79788 0.0
H184 H 0.02638 0.95388 0.95777 0.0
H185 H 0.04089 0.91442 0.97203 0.0
H186 H 0.09841 0.93907 0.16392 0.0
H187 H 0.08454 0.97962 0.14088 0.0
H188 H 0.03992 0.0669 0.40565 0.0
H189 H 0.04665 0.10838 0.44032 0.0
H190 H 0.97343 0.11667 0.52029 0.0
H191 H 0.96653 0.07546 0.48315 0.0
Ho192 Ho 0.52352 0.0325 0.80072 0.0
Ho193 Ho 0.51148 1.00672 0.61394 0.0
C194 C 0.5654 1.01434 0.6482 0.0
C195 C 0.54456 0.04567 0.96805 0.0
C196 C 0.5673 0.03662 0.00503 0.0
C197 C 0.56992 1.01252 0.02567 0.0
C198 C 0.59215 1.00252 0.02983 0.0
C199 C 0.61225 1.01642 0.01429 0.0
C200 C 0.60974 0.0408 0.00215 0.0
C201 C 0.58742 0.05084 0.99778 0.0
C202 C 0.51261 0.0612 0.6381 0.0
C203 C 0.46911 0.02375 0.77348 0.0
C204 C 0.49188 0.99155 0.44519 0.0
C205 C 0.46722 0.985 0.42533 0.0
C206 C 0.44906 0.99966 0.45952 0.0
C207 C 0.42581 0.99224 0.45453 0.0
C208 C 0.41992 0.97014 0.4129 0.0
C209 C 0.43813 0.9557 0.3756 0.0
C210 C 0.4616 0.96304 0.38237 0.0
C211 C 0.52303 0.97797 0.77503 0.0
O212 O 0.55866 1.01734 0.74622 0.0
O213 O 0.54941 1.01312 0.57401 0.0
O214 O 0.54563 0.05761 0.88121 0.0
O215 O 0.52708 0.03073 0.96847 0.0
O216 O 0.50605 0.06459 0.73376 0.0
O217 O 0.52494 0.04278 0.63357 0.0
O218 O 0.47526 1.01581 0.68003 0.0
O219 O 0.48527 0.03036 0.84106 0.0
O220 O 0.50301 0.97789 0.51004 0.0
O221 O 0.49595 1.01379 0.4634 0.0
O222 O 0.52913 0.97463 0.67882 0.0
O223 O 0.51054 0.99629 0.78115 0.0
H224 H 0.55484 1.00098 0.03158 0.0
H225 H 0.59348 0.98368 0.03913 0.0
H226 H 0.62499 0.05202 0.99257 0.0
H227 H 0.58588 0.06945 0.98182 0.0
H228 H 0.45279 1.01668 0.4934 0.0
H229 H 0.41251 1.00377 0.486 0.0
H230 H 0.43431 0.93878 0.34095 0.0
H231 H 0.47537 0.9514 0.35577 0.0
Ho232 Ho 0.50358 0.53067 0.84648 0.0
Ho233 Ho 0.52747 0.51857 0.63615 0.0
C234 C 0.51906 0.57322 0.68114 0.0
C235 C 0.49096 0.55124 0.01578 0.0
C236 C 0.48755 0.57657 0.03164 0.0
C237 C 0.50416 0.59257 0.99259 0.0
C238 C 0.49874 0.61628 0.98422 0.0
C239 C 0.47664 0.62469 0.01548 0.0
C240 C 0.46056 0.60881 0.0607 0.0
C241 C 0.46594 0.58494 0.06811 0.0
C242 C 0.47427 0.51822 0.68958 0.0
C243 C 0.51626 0.47693 0.80879 0.0
C244 C 0.53088 0.50027 0.45432 0.0
C245 C 0.53464 0.47524 0.43298 0.0
C246 C 0.51708 0.46295 0.37881 0.0
C247 C 0.51409 0.43894 0.39509 0.0
C248 C 0.52894 0.42688 0.46392 0.0
C249 C 0.54836 0.43851 0.50714 0.0
C250 C 0.55109 0.46263 0.49254 0.0
C251 C 0.56119 0.52134 0.78785 0.0
O252 O 0.51024 0.56669 0.77299 0.0
O253 O 0.5268 0.55769 0.61233 0.0
O254 O 0.47598 0.54166 0.95131 0.0
O255 O 0.51254 0.54436 0.99881 0.0
O256 O 0.47173 0.51156 0.78583 0.0
O257 O 0.4923 0.53122 0.68196 0.0
O258 O 0.51934 0.48275 0.70911 0.0
O259 O 0.51261 0.49311 0.88125 0.0
O260 O 0.54827 0.51189 0.49753 0.0
O261 O 0.51071 0.50434 0.4996 0.0
O262 O 0.56543 0.51693 0.69035 0.0
O263 O 0.53931 0.52428 0.79677 0.0
H264 H 0.52093 0.58666 0.96275 0.0
H265 H 0.51158 0.6277 0.94799 0.0
H266 H 0.44368 0.6147 0.08921 0.0
H267 H 0.45283 0.57287 0.09814 0.0
H268 H 0.50414 0.47232 0.33304 0.0
H269 H 0.49932 0.43008 0.35899 0.0
H270 H 0.56012 0.42942 0.55976 0.0
H271 H 0.5647 0.47164 0.53611 0.0
Ho272 Ho 1.01721 0.51001 0.77475 0.0
Ho273 Ho 0.02807 0.53519 0.58653 0.0
C274 C 0.97443 0.52471 0.61852 0.0
C275 C 0.99622 0.49637 0.94108 0.0
C276 C 0.97116 0.50052 0.96189 0.0
C277 C 0.96235 0.52353 0.95777 0.0
C278 C 0.93861 0.52744 0.93984 0.0
C279 C 0.9231 0.50847 0.92611 0.0
C280 C 0.93155 0.48551 0.94055 0.0
C281 C 0.95539 0.48157 0.95834 0.0
C282 C 0.02903 0.48098 0.61465 0.0
C283 C 0.07109 0.52018 0.74736 0.0
C284 C 0.04729 0.55096 0.41795 0.0
C285 C 0.07187 0.55782 0.39832 0.0
C286 C 0.09018 0.54332 0.43224 0.0
C287 C 0.11335 0.55102 0.42761 0.0
C288 C 0.11899 0.57327 0.38697 0.0
C289 C 0.10065 0.58757 0.35004 0.0
C290 C 0.07726 0.57993 0.3562 0.0
C291 C 1.0155 0.56407 0.7454 0.0
O292 O 0.98108 0.52209 0.71682 0.0
O293 O 0.99052 0.52688 0.54509 0.0
O294 O 1.00022 0.48234 0.86258 0.0
O295 O 1.00967 0.51502 0.93873 0.0
O296 O 0.0361 0.47848 0.71015 0.0
O297 O 1.01593 0.49883 0.60872 0.0
O298 O 0.06467 0.52715 0.65267 0.0
O299 O 0.05513 0.51386 0.81625 0.0
O300 O 0.03602 0.56433 0.48349 0.0
O301 O 0.04347 0.52864 0.43522 0.0
O302 O 1.00827 0.56615 0.65004 0.0
O303 O 0.02909 0.54658 0.7523 0.0
H304 H 0.97399 0.53862 0.95974 0.0
H305 H 0.9328 0.54538 0.92995 0.0
H306 H 0.91989 0.4705 0.93494 0.0
H307 H 0.96175 0.46368 0.96143 0.0
H308 H 0.08665 0.52622 0.46574 0.0
H309 H 0.12677 0.53959 0.45875 0.0
H310 H 0.10429 0.60461 0.31624 0.0
H311 H 0.06336 0.59146 0.32993 0.0
H312 H 0.17168 0.06738 0.27452 0.0
H313 H 0.18041 0.99254 0.24662 0.0
H314 H 0.1385 0.06141 0.39168 0.0
H315 H 0.14656 0.98631 0.36013 0.0
H316 H 0.0976 0.98109 0.6392 0.0
H317 H 0.13098 0.98717 0.52491 0.0
H318 H 0.09932 0.05096 0.40933 0.0
H319 H 0.06638 0.04536 0.52977 0.0
C320 C 0.16648 0.04958 0.29354 0.0
C321 C 0.17889 0.03045 0.25132 0.0
C322 C 0.14717 0.0461 0.36016 0.0
C323 C 0.13932 0.02332 0.38602 0.0
C324 C 0.15202 1.00417 0.34449 0.0
C325 C 0.17157 1.00769 0.27897 0.0
C326 C 0.09767 0.99643 0.58923 0.0
C327 C 0.07915 1.0127 0.59379 0.0
C328 C 0.1169 0.99986 0.52245 0.0
C329 C 0.11826 0.01958 0.45636 0.0
C330 C 0.0994 0.03571 0.45967 0.0
C331 C 0.08022 0.03239 0.52786 0.0
H332 H 0.48908 0.18534 0.23712 0.0
H333 H 0.56199 0.16654 0.19923 0.0
H334 H 0.48356 0.15172 0.35359 0.0
H335 H 0.55639 0.13304 0.31365 0.0
H336 H 0.53538 0.06216 0.44891 0.0
H337 H 0.53821 0.09484 0.32554 0.0
H338 H 0.49378 0.13664 0.52497 0.0
H339 H 0.49076 0.10385 0.64719 0.0
C340 C 0.50399 0.17419 0.25368 0.0
C341 C 0.52596 0.17879 0.2071 0.0
C342 C 0.5008 0.1548 0.32059 0.0
C343 C 0.51946 0.13933 0.34287 0.0
C344 C 0.54141 0.14408 0.29692 0.0
C345 C 0.54462 0.16344 0.23074 0.0
C346 C 0.52606 0.07825 0.46591 0.0
C347 C 0.51293 0.08036 0.55834 0.0
C348 C 0.5278 0.09712 0.39547 0.0
C349 C 0.51639 0.11865 0.41505 0.0
C350 C 0.50269 0.12041 0.50623 0.0
C351 C 0.50104 0.10159 0.57682 0.0
H352 H 0.35893 0.54795 0.25217 0.0
H353 H 0.36184 0.47244 0.26944 0.0
H354 H 0.39164 0.55067 0.37691 0.0
H355 H 0.39426 0.47506 0.39345 0.0
H356 H 0.43615 0.48925 0.69452 0.0
H357 H 0.40308 0.48743 0.57352 0.0
H358 H 0.43514 0.54157 0.38535 0.0
H359 H 0.46846 0.54327 0.50702 0.0
C360 C 0.36628 0.53195 0.28385 0.0
C361 C 0.35764 0.50998 0.25098 0.0
C362 C 0.38523 0.53348 0.35436 0.0
C363 C 0.39579 0.51308 0.39527 0.0
C364 C 0.3866 0.49117 0.3645 0.0
C365 C 0.36797 0.48965 0.29311 0.0
C366 C 0.43626 0.50067 0.62697 0.0
C367 C 0.45504 0.51635 0.61054 0.0
C368 C 0.41726 0.49961 0.55731 0.0
C369 C 0.41625 0.51441 0.46943 0.0
C370 C 0.43512 0.53009 0.45268 0.0
C371 C 0.45435 0.53092 0.5219 0.0
H372 H 0.05599 0.35522 0.22818 0.0
H373 H 0.98338 0.37349 0.17702 0.0
H374 H 0.06039 0.38926 0.34307 0.0
H375 H 0.9878 0.40732 0.2905 0.0
H376 H 1.00693 0.47873 0.42434 0.0
H377 H 1.00512 0.44552 0.30363 0.0
H378 H 0.04935 0.40527 0.51015 0.0
H379 H 0.05145 0.43866 0.62945 0.0
C380 C 0.04091 0.36633 0.24162 0.0
C381 C 1.01938 0.3615 0.19171 0.0
C382 C 0.04344 0.38597 0.30769 0.0
C383 C 0.02452 0.4014 0.32597 0.0
C384 C 1.00298 0.39635 0.2769 0.0
C385 C 1.00045 0.37679 0.21135 0.0
C386 C 1.01643 0.46286 0.44349 0.0
C387 C 0.02926 0.46139 0.53695 0.0
C388 C 1.01526 0.44367 0.37457 0.0
C389 C 0.02693 0.42241 0.39686 0.0
C390 C 0.04028 0.42127 0.48924 0.0
C391 C 0.0414 0.44044 0.55819 0.0
H392 H 0.84652 0.98646 0.15579 0.0
H393 H 0.88646 0.03467 0.3464 0.0
H394 H 0.87797 0.98656 0.02664 0.0
H395 H 0.918 0.03448 0.21789 0.0
H396 H 0.9801 1.01243 0.00689 0.0
H397 H 0.94914 1.01057 0.14043 0.0
H398 H 0.89645 1.0112 0.89831 0.0
H399 H 0.92715 1.01273 0.76667 0.0
C400 C 0.86182 0.99733 0.17 0.0
C401 C 0.86368 1.01054 0.26257 0.0
C402 C 0.88003 0.9973 0.09574 0.0
C403 C 0.90079 1.01043 0.11139 0.0
C404 C 0.9026 0.02376 0.20351 0.0
C405 C 0.88435 0.02389 0.27749 0.0
C406 C 0.96192 1.01184 0.98253 0.0
C407 C 0.95618 1.01256 0.87593 0.0
C408 C 0.94409 1.01102 0.05904 0.0
C409 C 0.92009 1.0107 0.03078 0.0
C410 C 0.91457 1.01107 0.92383 0.0
C411 C 0.93228 1.01207 0.84798 0.0
H412 H 0.55557 0.88834 0.30778 0.0
H413 H 0.50153 0.84986 0.14241 0.0
H414 H 0.55306 0.91976 0.17991 0.0
H415 H 0.5006 0.8808 0.01025 0.0
H416 H 0.53243 0.93146 0.74521 0.0
H417 H 0.53328 0.89989 0.87472 0.0
H418 H 0.51741 0.94974 0.11749 0.0
H419 H 0.51552 0.98133 0.98682 0.0
C420 C 0.54303 0.88642 0.24505 0.0
C421 C 0.52848 0.86629 0.23813 0.0
C422 C 0.54177 0.90453 0.17098 0.0
C423 C 0.5265 0.90291 0.0854 0.0
C424 C 0.51256 0.88258 0.07545 0.0
C425 C 0.51333 0.86467 0.15118 0.0
C426 C 0.52904 0.93575 0.82618 0.0
C427 C 0.52397 0.95902 0.8556 0.0
C428 C 0.52944 0.91758 0.90023 0.0
C429 C 0.5254 0.92226 0.00634 0.0
C430 C 0.52065 0.94557 0.03628 0.0
C431 C 0.51958 0.96368 0.96158 0.0
H432 H 0.64895 0.5232 0.35805 0.0
H433 H 0.69611 0.53847 0.1034 0.0
H434 H 0.61635 0.51962 0.23521 0.0
H435 H 0.66363 0.53547 0.98103 0.0
H436 H 0.60667 0.50848 0.7684 0.0
H437 H 0.63809 0.51026 0.89584 0.0
H438 H 0.58994 0.53919 0.12211 0.0
H439 H 0.55809 0.53647 0.99371 0.0
C440 C 0.6524 0.52588 0.27584 0.0
C441 C 0.67537 0.53099 0.24119 0.0
C442 C 0.63358 0.52394 0.20503 0.0
C443 C 0.63703 0.52718 0.09702 0.0
C444 C 0.66007 0.53229 0.06274 0.0
C445 C 0.67887 0.53404 0.13335 0.0
C446 C 0.60269 0.51519 0.84544 0.0
C447 C 0.57976 0.5224 0.87035 0.0
C448 C 0.62089 0.51641 0.91887 0.0
C449 C 0.61697 0.52516 0.02014 0.0
C450 C 0.59384 0.53213 0.04569 0.0
C451 C 0.57548 0.5307 0.97185 0.0
H452 H 0.96844 0.67692 0.15647 0.0
H453 H 0.04382 0.68007 0.18409 0.0
H454 H 0.97178 0.64456 0.03297 0.0
H455 H 0.0473 0.64745 0.05928 0.0
H456 H 0.04056 0.57064 0.92773 0.0
H457 H 0.03858 0.60419 0.04799 0.0
H458 H 0.9847 0.63536 0.85651 0.0
H459 H 0.98669 0.60203 0.7375 0.0
C460 C 0.98579 0.67088 0.13497 0.0
C461 C 1.00586 0.68123 0.18002 0.0
C462 C 0.98773 0.65228 0.06383 0.0
C463 C 1.00981 0.64317 0.03595 0.0
C464 C 0.02998 0.65379 0.07954 0.0
C465 C 0.02803 0.6727 0.15004 0.0
C466 C 0.02823 0.58463 0.9118 0.0
C467 C 1.01375 0.58359 0.82293 0.0
C468 C 0.02724 0.60399 0.98021 0.0
C469 C 1.01151 0.62266 0.96223 0.0
C470 C 0.99689 0.62134 0.87382 0.0
C471 C 0.99806 0.60219 0.8052 0.0
H472 H 0.07913 0.22338 0.33337 0.0
H473 H 1.01325 0.25735 0.40043 0.0
H474 H 0.0726 0.19644 0.47594 0.0
H475 H 1.00712 0.23104 0.54719 0.0
H476 H 0.98355 0.15397 0.45187 0.0
H477 H 0.99442 0.19448 0.47385 0.0
H478 H 0.05946 0.17362 0.62098 0.0
H479 H 0.04833 0.1325 0.59824 0.0
C480 C 0.06393 0.22598 0.3829 0.0
C481 C 0.04601 0.24135 0.35244 0.0
C482 C 0.06019 0.21061 0.46579 0.0
C483 C 0.03842 0.21055 0.51788 0.0
C484 C 0.02352 0.22997 0.50459 0.0
C485 C 0.02707 0.24514 0.4205 0.0
C486 C 0.99981 0.15793 0.49205 0.0
C487 C 1.0155 0.14007 0.51937 0.0
C488 C 1.00602 0.18135 0.50614 0.0
C489 C 0.0282 0.18744 0.54706 0.0
C490 C 0.04254 0.16953 0.58686 0.0
C491 C 0.03634 0.14601 0.57223 0.0
H492 H 0.30254 0.93476 0.11343 0.0
H493 H 0.27565 0.97998 0.35488 0.0
H494 H 0.33333 0.92155 0.23039 0.0
H495 H 0.30596 0.96621 0.4726 0.0
H496 H 0.38189 0.99813 0.37853 0.0
H497 H 0.34127 0.98715 0.36588 0.0
H498 H 0.35926 0.91427 0.40892 0.0
H499 H 0.4007 0.92547 0.4301 0.0
C500 C 0.30206 0.94048 0.19401 0.0
C501 C 0.28784 0.95953 0.22328 0.0
C502 C 0.31971 0.93281 0.26142 0.0
C503 C 0.32274 0.94402 0.35798 0.0
C504 C 0.30433 0.9579 0.3969 0.0
C505 C 0.28688 0.9658 0.3291 0.0
C506 C 0.37742 0.97984 0.39015 0.0
C507 C 0.39481 0.9628 0.40674 0.0
C508 C 0.35393 0.97352 0.38309 0.0
C509 C 0.34701 0.94989 0.38961 0.0
C510 C 0.36415 0.93265 0.40608 0.0
C511 C 0.38786 0.93909 0.41614 0.0
H512 H 0.46169 0.31519 0.32093 0.0
H513 H 0.52725 0.28432 0.41618 0.0
H514 H 0.46548 0.34448 0.45494 0.0
H515 H 0.5306 0.31294 0.55606 0.0
H516 H 0.55705 0.3884 0.46438 0.0
H517 H 0.54507 0.34809 0.49152 0.0
H518 H 0.47544 0.37146 0.57877 0.0
H519 H 0.48742 0.41185 0.54406 0.0
C520 C 0.47614 0.31374 0.37555 0.0
C521 C 0.49493 0.29866 0.35448 0.0
C522 C 0.47843 0.33064 0.45336 0.0
C523 C 0.49956 0.33236 0.5102 0.0
C524 C 0.51492 0.31304 0.50827 0.0
C525 C 0.51287 0.29639 0.42881 0.0
C526 C 0.53931 0.38483 0.49073 0.0
C527 C 0.52284 0.4029 0.49746 0.0
C528 C 0.5324 0.36168 0.50845 0.0
C529 C 0.50888 0.35622 0.53442 0.0
C530 C 0.49337 0.37483 0.55483 0.0
C531 C 0.50013 0.39792 0.53413 0.0
H532 H 0.26305 0.56453 0.3395 0.0
H533 H 0.23714 0.60991 0.09653 0.0
H534 H 0.23243 0.57838 0.45524 0.0
H535 H 0.20597 0.62314 0.21154 0.0
H536 H 0.13766 0.61807 0.40825 0.0
H537 H 0.17906 0.62978 0.39034 0.0
H538 H 0.19786 0.55731 0.34096 0.0
H539 H 0.15731 0.54587 0.35058 0.0
C540 C 0.25197 0.57875 0.313 0.0
C541 C 0.25134 0.58501 0.2071 0.0
C542 C 0.23433 0.58673 0.37974 0.0
C543 C 0.21606 0.60059 0.33954 0.0
C544 C 0.21947 0.61186 0.24338 0.0
C545 C 0.23733 0.60416 0.17709 0.0
C546 C 0.15068 0.60466 0.39356 0.0
C547 C 0.144 0.58093 0.38173 0.0
C548 C 0.17435 0.61138 0.38537 0.0
C549 C 0.1917 0.59437 0.3683 0.0
C550 C 0.18502 0.57072 0.3588 0.0
C551 C 0.16158 0.56415 0.36409 0.0
H552 H 0.062 0.77871 0.10916 0.0
H553 H 0.1027 0.80295 0.37159 0.0
H554 H 0.07725 0.81082 0.00469 0.0
H555 H 0.11717 0.83569 0.26822 0.0
H556 H 0.11596 0.9055 0.07971 0.0
H557 H 0.12732 0.86414 0.10248 0.0
H558 H 0.05408 0.8444 0.10764 0.0
H559 H 0.04282 0.88485 0.09195 0.0
C560 C 0.07554 0.78981 0.14254 0.0
C561 C 0.08 0.78941 0.25018 0.0
C562 C 0.08426 0.80834 0.08247 0.0
C563 C 0.0971 0.82646 0.13084 0.0
C564 C 0.10671 0.82232 0.22987 0.0
C565 C 0.09834 0.8035 0.28935 0.0
C566 C 0.10235 0.89225 0.08571 0.0
C567 C 0.07843 0.89857 0.08246 0.0
C568 C 0.1089 0.86862 0.0969 0.0
C569 C 0.09162 0.851 0.10244 0.0
C570 C 0.06786 0.85742 0.09863 0.0
C571 C 0.06138 0.88077 0.09001 0.0
H572 H 0.75248 1.0099 0.08248 0.0
H573 H 0.73121 0.94059 0.17851 0.0
H574 H 0.71942 1.01201 0.96579 0.0
H575 H 0.69882 0.94167 0.05472 0.0
H576 H 0.62958 0.9809 0.13335 0.0
H577 H 0.66802 0.96351 0.12557 0.0
H578 H 0.68602 1.00827 0.86423 0.0
H579 H 0.64747 0.02655 0.87632 0.0
C580 C 0.74177 0.99431 0.07207 0.0
C581 C 0.74343 0.97563 0.14273 0.0
C582 C 0.72256 0.9955 0.00503 0.0
C583 C 0.70538 0.97768 0.00747 0.0
C584 C 0.71102 0.95629 0.0564 0.0
C585 C 0.72982 0.95543 0.12605 0.0
C586 C 0.64158 0.98677 0.07311 0.0
C587 C 0.63558 1.00523 0.00617 0.0
C588 C 0.66366 0.9765 0.06718 0.0
C589 C 0.68034 0.98429 0.99345 0.0
C590 C 0.67381 1.00197 0.92272 0.0
C591 C 0.6518 1.01258 0.9302 0.0
H592 H 0.49048 0.7677 0.08029 0.0
H593 H 0.43785 0.738 0.28353 0.0
H594 H 0.47928 0.74015 0.94433 0.0
H595 H 0.4271 0.71009 0.14904 0.0
H596 H 0.43336 0.64462 0.9748 0.0
H597 H 0.42343 0.68634 0.98074 0.0
H598 H 0.49677 0.70327 0.02439 0.0
H599 H 0.50643 0.66242 0.02599 0.0
C600 C 0.47544 0.75639 0.09356 0.0
C601 C 0.46591 0.75388 0.19395 0.0
C602 C 0.46898 0.74058 0.01538 0.0
C603 C 0.45353 0.72202 0.03918 0.0
C604 C 0.4397 0.7237 0.12962 0.0
C605 C 0.44597 0.73964 0.2074 0.0
C606 C 0.44737 0.65729 0.98522 0.0
C607 C 0.47068 0.64995 0.00237 0.0
C608 C 0.44168 0.68118 0.98618 0.0
C609 C 0.45928 0.69813 0.00189 0.0
C610 C 0.48277 0.6908 0.0094 0.0
C611 C 0.48835 0.6671 0.01101 0.0
H612 H 0.80373 0.47592 0.09038 0.0
H613 H 0.78766 0.54873 0.03499 0.0
H614 H 0.82955 0.47575 0.94039 0.0
H615 H 0.81361 0.54871 0.88346 0.0
H616 H 0.89492 0.54455 0.98849 0.0
H617 H 0.85321 0.54779 0.96754 0.0
H618 H 0.85236 0.48499 0.77836 0.0
H619 H 0.89501 0.48228 0.79548 0.0
C620 C 0.80468 0.49148 0.04191 0.0
C621 C 0.79471 0.51258 0.07569 0.0
C622 C 0.81931 0.4914 0.95494 0.0
C623 C 0.8246 0.51265 0.90406 0.0
C624 C 0.81034 0.53229 0.92367 0.0
C625 C 0.79561 0.53236 0.01074 0.0
C626 C 0.88619 0.53192 0.93859 0.0
C627 C 0.89824 0.5126 0.89733 0.0
C628 C 0.86208 0.53393 0.92533 0.0
C629 C 0.84934 0.51634 0.87277 0.0
C630 C 0.86171 0.49861 0.82044 0.0
C631 C 0.88602 0.49676 0.83257 0.0
H632 H 0.99955 0.21377 0.95654 0.0
H633 H 0.07244 0.20084 0.02462 0.0
H634 H 0.99562 0.17368 0.88809 0.0
H635 H 0.06877 0.16113 0.95564 0.0
H636 H 0.04797 0.08362 0.96531 0.0
H637 H 0.05177 0.12497 0.01188 0.0
H638 H 1.00482 0.1436 0.76118 0.0
H639 H 1.00098 0.10212 0.71491 0.0
C640 C 1.01494 0.20267 0.95356 0.0
C641 C 0.03633 0.21067 0.99602 0.0
C642 C 1.01268 0.17952 0.91503 0.0
C643 C 0.03172 0.16367 0.91829 0.0
C644 C 0.05346 0.17235 0.95428 0.0
C645 C 0.0557 0.19536 0.99251 0.0
C646 C 0.03843 0.09647 0.91989 0.0
C647 C 0.02428 0.08928 0.83564 0.0
C648 C 0.04078 0.12037 0.94604 0.0
C649 C 0.02891 0.13802 0.88958 0.0
C650 C 1.01432 0.13076 0.80674 0.0
C651 C 1.01221 0.10684 0.77971 0.0
H652 H 0.32843 0.04678 0.05621 0.0
H653 H 0.32345 0.98296 0.87747 0.0
H654 H 0.36838 0.05323 0.98914 0.0
H655 H 0.36316 0.9888 0.81278 0.0
H656 H 0.43098 1.00923 0.6597 0.0
H657 H 0.3897 1.00908 0.70749 0.0
H658 H 0.40753 0.03853 0.00774 0.0
H659 H 0.44892 0.03949 0.95702 0.0
C660 C 0.3356 0.03449 1.00027 0.0
C661 C 0.32255 1.01453 0.97112 0.0
C662 C 0.35873 0.03792 0.96311 0.0
C663 C 0.36943 0.02149 0.89554 0.0
C664 C 0.35577 1.00213 0.86312 0.0
C665 C 0.33283 0.99873 0.90025 0.0
C666 C 0.42615 1.016 0.73515 0.0
C667 C 0.44354 0.02444 0.80355 0.0
C668 C 0.40231 1.0157 0.76352 0.0
C669 C 0.39487 0.02366 0.86231 0.0
C670 C 0.41225 0.0325 0.93049 0.0
C671 C 0.43617 0.03288 0.9016 0.0
H672 H 0.54085 0.34381 0.13188 0.0
H673 H 0.49327 0.32393 0.88588 0.0
H674 H 0.54291 0.38361 0.06293 0.0
H675 H 0.49535 0.36414 0.81531 0.0
H676 H 0.5178 0.43758 0.68318 0.0
H677 H 0.51952 0.39614 0.73561 0.0
H678 H 0.51647 0.41692 0.0584 0.0
H679 H 0.5156 0.45809 0.00665 0.0
C680 C 0.53126 0.34783 0.06113 0.0
C681 C 0.51701 0.33052 0.01424 0.0
C682 C 0.53217 0.37083 0.02228 0.0
C683 C 0.51892 0.37749 0.93455 0.0
C684 C 0.50579 0.3598 0.88316 0.0
C685 C 0.50472 0.33664 0.92296 0.0
C686 C 0.51769 0.43332 0.7653 0.0
C687 C 0.51677 0.45143 0.84023 0.0
C688 C 0.51836 0.40949 0.79527 0.0
C689 C 0.51809 0.40294 0.90118 0.0
C690 C 0.51704 0.42108 0.97602 0.0
C691 C 0.51637 0.44484 0.94615 0.0
H692 H 0.21141 0.49759 0.0312 0.0
H693 H 0.21604 0.56266 0.86123 0.0
H694 H 0.17177 0.49108 0.961 0.0
H695 H 0.1766 0.5567 0.79339 0.0
H696 H 0.10905 0.53611 0.63536 0.0
H697 H 0.15036 0.53668 0.68427 0.0
H698 H 0.13259 0.50546 0.9811 0.0
H699 H 0.09134 0.50412 0.92947 0.0
C700 C 0.20423 0.51017 0.9766 0.0
C701 C 0.21707 0.53052 0.95108 0.0
C702 C 0.18128 0.5067 0.9376 0.0
C703 C 0.17055 0.52344 0.87167 0.0
C704 C 0.18403 0.54317 0.84251 0.0
C705 C 0.2068 0.54664 0.88156 0.0
C706 C 0.11395 0.52903 0.7102 0.0
C707 C 0.09664 0.51998 0.77748 0.0
C708 C 0.13777 0.52957 0.73923 0.0
C709 C 0.14521 0.52118 0.83737 0.0
C710 C 0.12788 0.51179 0.90433 0.0
C711 C 0.10403 0.51121 0.87492 0.0
H712 H 0.04732 0.81988 0.60381 0.0
H713 H 0.99307 0.83003 0.37454 0.0
H714 H 0.04117 0.85955 0.6695 0.0
H715 H 0.98649 0.86992 0.44087 0.0
H716 H 1.0066 0.94868 0.48803 0.0
H717 H 1.00641 0.90741 0.43701 0.0
H718 H 1.01711 0.88732 0.75813 0.0
H719 H 1.01762 0.92853 0.80868 0.0
C720 C 0.03341 0.83036 0.57005 0.0
C721 C 0.02037 0.82158 0.48531 0.0
C722 C 0.02992 0.85325 0.60739 0.0
C723 C 1.0134 0.8683 0.56045 0.0
C724 C 0.99958 0.8591 0.47847 0.0
C725 C 1.00301 0.83604 0.44149 0.0
C726 C 1.00875 0.9355 0.54811 0.0
C727 C 1.01231 0.94222 0.65278 0.0
C728 C 1.00848 0.91168 0.51878 0.0
C729 C 1.01179 0.89372 0.59304 0.0
C730 C 1.01483 0.90047 0.69803 0.0
C731 C 1.01505 0.92426 0.72732 0.0
H732 H 0.70599 0.0351 0.38001 0.0
H733 H 0.7145 0.97431 0.57532 0.0
H734 H 0.66557 0.03947 0.44095 0.0
H735 H 0.67389 0.97828 0.63616 0.0
H736 H 0.60236 1.00149 0.77502 0.0
H737 H 0.64405 0.99851 0.72955 0.0
H738 H 0.62847 0.02082 0.41605 0.0
H739 H 0.58681 0.02289 0.45997 0.0
C740 C 0.69945 0.02315 0.43907 0.0
C741 C 0.71379 1.00478 0.47504 0.0
C742 C 0.67601 0.0253 0.47251 0.0
C743 C 0.66597 1.00903 0.54267 0.0
C744 C 0.68077 0.99132 0.58278 0.0
C745 C 0.70425 0.98913 0.54879 0.0
C746 C 0.60782 1.00581 0.69637 0.0
C747 C 0.59105 1.01252 0.62139 0.0
C748 C 0.63184 1.00418 0.67043 0.0
C749 C 0.64008 1.01005 0.56998 0.0
C750 C 0.62318 1.0167 0.49508 0.0
C751 C 0.59911 1.0177 0.52007 0.0
H752 H 0.54664 0.71702 0.44002 0.0
H753 H 0.47477 0.71641 0.54443 0.0
H754 H 0.55191 0.6772 0.50984 0.0
H755 H 0.47953 0.6768 0.61109 0.0
H756 H 0.49472 0.60898 0.77404 0.0
H757 H 0.4946 0.65058 0.73168 0.0
H758 H 0.54173 0.6374 0.47429 0.0
H759 H 0.54296 0.59586 0.52201 0.0
C760 C 0.53216 0.70865 0.48046 0.0
C761 C 0.51037 0.72011 0.4877 0.0
C762 C 0.535 0.68558 0.51896 0.0
C763 C 0.51611 0.6733 0.56596 0.0
C764 C 0.49469 0.68539 0.5772 0.0
C765 C 0.4919 0.70829 0.53881 0.0
C766 C 0.50561 0.61501 0.71038 0.0
C767 C 0.51921 0.5989 0.65335 0.0
C768 C 0.50521 0.63899 0.68439 0.0
C769 C 0.51811 0.64781 0.59877 0.0
C770 C 0.53182 0.63166 0.54173 0.0
C771 C 0.53235 0.60763 0.56852 0.0
H772 H 0.83676 0.48283 0.38162 0.0
H773 H 0.82359 0.55271 0.49558 0.0
H774 H 0.87669 0.48462 0.44947 0.0
H775 H 0.86387 0.5545 0.56519 0.0
H776 H 0.93669 0.54101 0.73197 0.0
H777 H 0.89471 0.53903 0.68785 0.0
H778 H 0.9122 0.50588 0.3956 0.0
H779 H 0.95391 0.50803 0.43985 0.0
C780 C 0.84221 0.49844 0.42355 0.0
C781 C 0.82677 0.51765 0.43248 0.0
C782 C 0.86532 0.49958 0.46154 0.0
C783 C 0.87397 0.51993 0.51081 0.0
C784 C 0.85801 0.53853 0.52732 0.0
C785 C 0.83477 0.53745 0.48821 0.0
C786 C 0.9315 0.53308 0.65892 0.0
C787 C 0.94877 0.52437 0.59043 0.0
C788 C 0.9074 0.53213 0.63304 0.0
C789 C 0.89975 0.52191 0.53871 0.0
C790 C 0.91716 0.51346 0.46989 0.0
C791 C 0.94121 0.51487 0.49485 0.0
loop_
_geom_bond_atom_site_label_1
_geom_bond_atom_site_label_2
_geom_bond_distance
_geom_bond_site_symmetry_2
_ccdc_geom_bond_type
H0 C1 0.949 . S
C1 H0 0.949 . S
C1 C2 1.395 . S
C1 C3 1.391 . S
C2 C1 1.395 . S
C2 C5 1.390 . S
C3 C1 1.391 . S
C3 C7 1.387 . S
C3 C8 1.491 . S
H4 C5 0.950 . S
C5 C2 1.390 . S
C5 H4 0.950 . S
C5 C6 1.378 . S
C6 C5 1.378 . S
C6 C7 1.409 . S
C7 C3 1.387 . S
C7 C6 1.409 . S
C7 H9 0.951 . S
C8 C3 1.491 . S
C8 C10 1.382 . S
C8 C12 1.404 . S
H9 C7 0.951 . S
C10 C8 1.382 . S
C10 C11 1.390 . S
C10 H15 0.949 . S
C11 C10 1.390 . S
C11 C16 1.399 . S
C12 C8 1.404 . S
C12 H13 0.950 . S
C12 C14 1.375 . S
H13 C12 0.950 . S
C14 C12 1.375 . S
C14 C16 1.382 . S
C14 H18 0.950 . S
H15 C10 0.949 . S
C16 C11 1.399 . S
C16 C14 1.382 . S
C16 H17 0.952 . S
H17 C16 0.952 . S
H18 C14 0.950 . S
H19 C20 0.949 . S
C20 H19 0.949 . S
C20 C21 1.399 . S
C20 C22 1.391 . S
C21 C20 1.399 . S
C21 C24 1.387 1_655 S
C22 C20 1.391 . S
C22 C26 1.387 . S
C22 C27 1.491 . S
H23 C24 0.959 . S
C24 C21 1.387 1_455 S
C24 H23 0.959 . S
C24 C25 1.374 1_455 S
C25 C24 1.374 1_655 S
C25 C26 1.416 . S
C26 C22 1.387 . S
C26 C25 1.416 . S
C26 H28 0.951 . S
C27 C22 1.491 . S
C27 C29 1.382 . S
C27 C31 1.404 . S
H28 C26 0.951 . S
C29 C27 1.382 . S
C29 C30 1.390 . S
C29 H34 0.949 1_655 S
C30 C29 1.390 . S
C30 C35 1.399 . S
C31 C27 1.404 . S
C31 H32 0.950 . S
C31 C33 1.375 . S
H32 C31 0.950 . S
C33 C31 1.375 . S
C33 C35 1.382 . S
C33 H37 0.950 . S
H34 C29 0.949 1_455 S
C35 C30 1.399 . S
C35 C33 1.382 . S
C35 H36 0.952 . S
H36 C35 0.952 . S
H37 C33 0.950 . S
H38 C39 0.949 . S
C39 H38 0.949 . S
C39 C40 1.398 . S
C39 C41 1.391 . S
C40 C39 1.398 . S
C40 C43 1.389 1_565 S
C41 C39 1.391 . S
C41 C45 1.387 . S
C41 C46 1.491 . S
H42 C43 0.950 . S
C43 C40 1.389 1_545 S
C43 H42 0.950 . S
C43 C44 1.376 1_545 S
C44 C43 1.376 1_565 S
C44 C45 1.416 . S
C45 C41 1.387 . S
C45 C44 1.416 . S
C45 H47 0.951 . S
C46 C41 1.491 . S
C46 C48 1.382 . S
C46 C50 1.404 . S
H47 C45 0.951 . S
C48 C46 1.382 . S
C48 C49 1.390 . S
C48 H53 0.949 1_565 S
C49 C48 1.390 . S
C49 C54 1.399 . S
C50 C46 1.404 . S
C50 H51 0.950 . S
C50 C52 1.375 . S
H51 C50 0.950 . S
C52 C50 1.375 . S
C52 C54 1.382 . S
C52 H56 0.950 . S
H53 C48 0.949 1_545 S
C54 C49 1.399 . S
C54 C52 1.382 . S
C54 H55 0.952 . S
H55 C54 0.952 . S
H56 C52 0.950 . S
H57 C58 0.949 . S
C58 H57 0.949 . S
C58 C59 1.395 . S
C58 C60 1.391 . S
C59 C58 1.395 . S
C59 C62 1.390 . S
C60 C58 1.391 . S
C60 C64 1.387 . S
C60 C65 1.491 . S
H61 C62 0.950 . S
C62 C59 1.390 . S
C62 H61 0.950 . S
C62 C63 1.378 . S
C63 C62 1.378 . S
C63 C64 1.409 . S
C64 C60 1.387 . S
C64 C63 1.409 . S
C64 H66 0.951 . S
C65 C60 1.491 . S
C65 C67 1.382 . S
C65 C69 1.404 . S
H66 C64 0.951 . S
C67 C65 1.382 . S
C67 C68 1.390 . S
C67 H72 0.949 . S
C68 C67 1.390 . S
C68 C73 1.399 . S
C69 C65 1.404 . S
C69 H70 0.950 . S
C69 C71 1.375 . S
H70 C69 0.950 . S
C71 C69 1.375 . S
C71 C73 1.382 . S
C71 H75 0.950 . S
H72 C67 0.949 . S
C73 C68 1.399 . S
C73 C71 1.382 . S
C73 H74 0.952 . S
H74 C73 0.952 . S
H75 C71 0.950 . S
H76 C77 0.949 . S
C77 H76 0.949 . S
C77 C78 1.395 . S
C77 C79 1.391 1_554 S
C78 C77 1.395 . S
C78 C81 1.390 1_554 S
C79 C77 1.391 1_556 S
C79 C83 1.387 . S
C79 C84 1.491 . S
H80 C81 0.950 . S
C81 C78 1.390 1_556 S
C81 H80 0.950 . S
C81 C82 1.378 . S
C82 C81 1.378 . S
C82 C83 1.409 . S
C83 C79 1.387 . S
C83 C82 1.409 . S
C83 H85 0.951 . S
C84 C79 1.491 . S
C84 C86 1.382 1_556 S
C84 C88 1.404 . S
H85 C83 0.951 . S
C86 C84 1.382 1_554 S
C86 C87 1.390 . S
C86 H91 0.949 . S
C87 C86 1.390 . S
C87 C92 1.399 1_554 S
C88 C84 1.404 . S
C88 H89 0.950 . S
C88 C90 1.375 . S
H89 C88 0.950 . S
C90 C88 1.375 . S
C90 C92 1.382 . S
C90 H94 0.950 . S
H91 C86 0.949 . S
C92 C87 1.399 1_556 S
C92 C90 1.382 . S
C92 H93 0.952 . S
H93 C92 0.952 . S
H94 C90 0.950 . S
H95 C96 0.949 . S
C96 H95 0.949 . S
C96 C97 1.391 1_655 S
C96 C98 1.391 1_554 S
C97 C96 1.391 1_455 S
C97 C100 1.392 1_554 S
C98 C96 1.391 1_556 S
C98 C102 1.387 . S
C98 C103 1.491 . S
H99 C100 0.950 . S
C100 C97 1.392 1_556 S
C100 H99 0.950 . S
C100 C101 1.379 . S
C101 C100 1.379 . S
C101 C102 1.408 1_455 S
C102 C98 1.387 . S
C102 C101 1.408 1_655 S
C102 H104 0.951 . S
C103 C98 1.491 . S
C103 C105 1.389 1_556 S
C103 C107 1.404 . S
H104 C102 0.951 . S
C105 C103 1.389 1_554 S
C105 C106 1.393 . S
C105 H110 0.938 1_655 S
C106 C105 1.393 . S
C106 C111 1.399 1_554 S
C107 C103 1.404 . S
C107 H108 0.950 . S
C107 C109 1.375 . S
H108 C107 0.950 . S
C109 C107 1.375 . S
C109 C111 1.382 . S
C109 H113 0.950 . S
H110 C105 0.938 1_455 S
C111 C106 1.399 1_556 S
C111 C109 1.382 . S
C111 H112 0.952 . S
H112 C111 0.952 . S
H113 C109 0.950 . S
H114 C115 0.949 . S
C115 H114 0.949 . S
C115 C116 1.391 1_565 S
C115 C117 1.391 1_554 S
C116 C115 1.391 1_545 S
C116 C119 1.392 1_554 S
C117 C115 1.391 1_556 S
C117 C121 1.387 . S
C117 C122 1.491 . S
H118 C119 0.950 . S
C119 C116 1.392 1_556 S
C119 H118 0.950 . S
C119 C120 1.379 . S
C120 C119 1.379 . S
C120 C121 1.408 1_545 S
C121 C117 1.387 . S
C121 C120 1.408 1_565 S
C121 H123 0.951 . S
C122 C117 1.491 . S
C122 C124 1.388 1_556 S
C122 C126 1.404 . S
H123 C121 0.951 . S
C124 C122 1.388 1_554 S
C124 C125 1.393 . S
C124 H129 0.940 1_565 S
C125 C124 1.393 . S
C125 C130 1.399 1_554 S
C126 C122 1.404 . S
C126 H127 0.950 . S
C126 C128 1.375 . S
H127 C126 0.950 . S
C128 C126 1.375 . S
C128 C130 1.382 . S
C128 H132 0.950 . S
H129 C124 0.940 1_545 S
C130 C125 1.399 1_556 S
C130 C128 1.382 . S
C130 H131 0.952 . S
H131 C130 0.952 . S
H132 C128 0.950 . S
H133 C134 0.949 . S
C134 H133 0.949 . S
C134 C135 1.395 . S
C134 C136 1.391 1_554 S
C135 C134 1.395 . S
C135 C138 1.390 1_554 S
C136 C134 1.391 1_556 S
C136 C140 1.387 . S
C136 C141 1.491 . S
H137 C138 0.950 . S
C138 C135 1.390 1_556 S
C138 H137 0.950 . S
C138 C139 1.378 . S
C139 C138 1.378 . S
C139 C140 1.409 . S
C140 C136 1.387 . S
C140 C139 1.409 . S
C140 H142 0.951 . S
C141 C136 1.491 . S
C141 C143 1.382 1_556 S
C141 C145 1.404 . S
H142 C140 0.951 . S
C143 C141 1.382 1_554 S
C143 C144 1.390 . S
C143 H148 0.949 . S
C144 C143 1.390 . S
C144 C149 1.399 1_554 S
C145 C141 1.404 . S
C145 H146 0.950 . S
C145 C147 1.375 . S
H146 C145 0.950 . S
C147 C145 1.375 . S
C147 C149 1.382 . S
C147 H151 0.950 . S
H148 C143 0.949 . S
C149 C144 1.399 1_556 S
C149 C147 1.382 . S
C149 H150 0.952 . S
H150 C149 0.952 . S
H151 C147 0.950 . S
Ho152 C155 2.811 . S
Ho152 O172 2.322 . S
Ho152 O174 2.378 . S
Ho152 O175 2.524 1_455 S
Ho152 O176 2.381 . S
Ho152 O177 2.669 1_565 S
Ho152 O179 2.346 1_565 S
Ho152 O183 2.305 1_455 S
Ho153 C164 2.811 . S
Ho153 O173 2.346 1_545 S
Ho153 O177 2.305 1_655 S
Ho153 O178 2.322 . S
Ho153 O180 2.378 . S
Ho153 O181 2.524 1_655 S
Ho153 O182 2.381 . S
Ho153 O183 2.669 1_545 S
C154 O172 1.259 1_655 S
C154 O173 1.268 . S
C155 Ho152 2.811 . S
C155 C156 1.488 . S
C155 O174 1.215 . S
C155 O175 1.289 1_455 S
C156 C155 1.488 . S
C156 C157 1.348 1_556 S
C156 C161 1.413 1_556 S
C157 C156 1.348 1_554 S
C157 C158 1.442 . S
C157 H184 0.930 1_455 S
C158 C157 1.442 . S
C158 C159 1.381 . S
C158 H185 0.931 1_455 S
C159 C158 1.381 . S
C159 C160 1.321 . S
C160 C159 1.321 . S
C160 C161 1.403 . S
C160 H186 0.934 . S
C161 C156 1.413 1_554 S
C161 C160 1.403 . S
C161 H187 0.930 1_554 S
C162 O176 1.294 . S
C162 O177 1.245 1_565 S
C163 O178 1.259 1_455 S
C163 O179 1.268 . S
C164 Ho153 2.811 . S
C164 C165 1.488 . S
C164 O180 1.215 . S
C164 O181 1.289 1_655 S
C165 C164 1.488 . S
C165 C166 1.348 . S
C165 C170 1.413 . S
C166 C165 1.348 . S
C166 C167 1.442 . S
C166 H188 0.930 1_655 S
C167 C166 1.442 . S
C167 C168 1.381 . S
C167 H189 0.931 1_655 S
C168 C167 1.381 . S
C168 C169 1.321 . S
C169 C168 1.321 . S
C169 C170 1.403 . S
C169 H190 0.934 . S
C170 C165 1.413 . S
C170 C169 1.403 . S
C170 H191 0.930 . S
C171 O182 1.300 . S
C171 O183 1.242 1_545 S
O172 Ho152 2.322 . S
O172 C154 1.259 1_455 S
O173 Ho153 2.346 1_565 S
O173 C154 1.268 . S
O174 Ho152 2.378 . S
O174 C155 1.215 . S
O175 Ho152 2.524 1_655 S
O175 C155 1.289 1_655 S
O176 Ho152 2.381 . S
O176 C162 1.294 . S
O177 Ho152 2.669 1_545 S
O177 Ho153 2.305 1_455 S
O177 C162 1.245 1_545 S
O178 Ho153 2.322 . S
O178 C163 1.259 1_655 S
O179 Ho152 2.346 1_545 S
O179 C163 1.268 . S
O180 Ho153 2.378 . S
O180 C164 1.215 . S
O181 Ho153 2.524 1_455 S
O181 C164 1.289 1_455 S
O182 Ho153 2.381 . S
O182 C171 1.300 . S
O183 Ho152 2.305 1_655 S
O183 Ho153 2.669 1_565 S
O183 C171 1.242 1_565 S
H184 C157 0.930 1_655 S
H185 C158 0.931 1_655 S
H186 C160 0.934 . S
H187 C161 0.930 1_556 S
H188 C166 0.930 1_455 S
H189 C167 0.931 1_455 S
H190 C169 0.934 . S
H191 C170 0.930 . S
Ho192 C195 2.811 . S
Ho192 O212 2.322 . S
Ho192 O214 2.378 . S
Ho192 O215 2.524 1_545 S
Ho192 O216 2.381 . S
Ho192 O217 2.669 . S
Ho192 O219 2.346 . S
Ho192 O223 2.305 1_545 S
Ho193 C204 2.811 . S
Ho193 O213 2.346 . S
Ho193 O217 2.305 1_565 S
Ho193 O218 2.322 . S
Ho193 O220 2.378 . S
Ho193 O221 2.524 1_565 S
Ho193 O222 2.381 . S
Ho193 O223 2.669 . S
C194 O212 1.259 1_565 S
C194 O213 1.268 . S
C195 Ho192 2.811 . S
C195 C196 1.488 . S
C195 O214 1.215 . S
C195 O215 1.289 1_545 S
C196 C195 1.488 . S
C196 C197 1.348 1_556 S
C196 C201 1.413 1_556 S
C197 C196 1.348 1_554 S
C197 C198 1.442 . S
C197 H224 0.930 1_545 S
C198 C197 1.442 . S
C198 C199 1.381 . S
C198 H225 0.931 1_545 S
C199 C198 1.381 . S
C199 C200 1.321 . S
C200 C199 1.321 . S
C200 C201 1.403 . S
C200 H226 0.934 . S
C201 C196 1.413 1_554 S
C201 C200 1.403 . S
C201 H227 0.930 1_554 S
C202 O216 1.275 . S
C202 O217 1.256 . S
C203 O218 1.259 1_545 S
C203 O219 1.268 . S
C204 Ho193 2.811 . S
C204 C205 1.488 . S
C204 O220 1.215 . S
C204 O221 1.289 1_565 S
C205 C204 1.488 . S
C205 C206 1.348 . S
C205 C210 1.413 . S
C206 C205 1.348 . S
C206 C207 1.442 . S
C206 H228 0.930 1_565 S
C207 C206 1.442 . S
C207 C208 1.381 . S
C207 H229 0.931 1_565 S
C208 C207 1.381 . S
C208 C209 1.321 . S
C209 C208 1.321 . S
C209 C210 1.403 . S
C209 H230 0.934 . S
C210 C205 1.413 . S
C210 C209 1.403 . S
C210 H231 0.930 . S
C211 O222 1.275 . S
C211 O223 1.256 . S
O212 Ho192 2.322 . S
O212 C194 1.259 1_545 S
O213 Ho193 2.346 . S
O213 C194 1.268 . S
O214 Ho192 2.378 . S
O214 C195 1.215 . S
O215 Ho192 2.524 1_565 S
O215 C195 1.289 1_565 S
O216 Ho192 2.381 . S
O216 C202 1.275 . S
O217 Ho192 2.669 . S
O217 Ho193 2.305 1_545 S
O217 C202 1.256 . S
O218 Ho193 2.322 . S
O218 C203 1.259 1_565 S
O219 Ho192 2.346 . S
O219 C203 1.268 . S
O220 Ho193 2.378 . S
O220 C204 1.215 . S
O221 Ho193 2.524 1_545 S
O221 C204 1.289 1_545 S
O222 Ho193 2.381 . S
O222 C211 1.275 . S
O223 Ho192 2.305 1_565 S
O223 Ho193 2.669 . S
O223 C211 1.256 . S
H224 C197 0.930 1_565 S
H225 C198 0.931 1_565 S
H226 C200 0.934 . S
H227 C201 0.930 1_556 S
H228 C206 0.930 1_545 S
H229 C207 0.931 1_545 S
H230 C209 0.934 . S
H231 C210 0.930 . S
Ho232 C235 2.811 . S
Ho232 O252 2.322 . S
Ho232 O254 2.378 . S
Ho232 O255 2.524 . S
Ho232 O256 2.381 . S
Ho232 O257 2.669 . S
Ho232 O259 2.346 . S
Ho232 O263 2.305 . S
Ho233 C244 2.811 . S
Ho233 O253 2.346 . S
Ho233 O257 2.305 . S
Ho233 O258 2.322 . S
Ho233 O260 2.378 . S
Ho233 O261 2.524 . S
Ho233 O262 2.381 . S
Ho233 O263 2.669 . S
C234 O252 1.259 . S
C234 O253 1.268 . S
C235 Ho232 2.811 . S
C235 C236 1.488 . S
C235 O254 1.215 . S
C235 O255 1.289 . S
C236 C235 1.488 . S
C236 C237 1.348 1_556 S
C236 C241 1.413 1_556 S
C237 C236 1.348 1_554 S
C237 C238 1.442 . S
C237 H264 0.930 . S
C238 C237 1.442 . S
C238 C239 1.381 . S
C238 H265 0.931 . S
C239 C238 1.381 . S
C239 C240 1.321 . S
C240 C239 1.321 . S
C240 C241 1.403 . S
C240 H266 0.934 . S
C241 C236 1.413 1_554 S
C241 C240 1.403 . S
C241 H267 0.930 1_554 S
C242 O256 1.275 . S
C242 O257 1.256 . S
C243 O258 1.259 . S
C243 O259 1.268 . S
C244 Ho233 2.811 . S
C244 C245 1.488 . S
C244 O260 1.215 . S
C244 O261 1.289 . S
C245 C244 1.488 . S
C245 C246 1.348 . S
C245 C250 1.413 . S
C246 C245 1.348 . S
C246 C247 1.442 . S
C246 H268 0.930 . S
C247 C246 1.442 . S
C247 C248 1.381 . S
C247 H269 0.931 . S
C248 C247 1.381 . S
C248 C249 1.321 . S
C249 C248 1.321 . S
C249 C250 1.403 . S
C249 H270 0.934 . S
C250 C245 1.413 . S
C250 C249 1.403 . S
C250 H271 0.930 . S
C251 O262 1.275 . S
C251 O263 1.256 . S
O252 Ho232 2.322 . S
O252 C234 1.259 . S
O253 Ho233 2.346 . S
O253 C234 1.268 . S
O254 Ho232 2.378 . S
O254 C235 1.215 . S
O255 Ho232 2.524 . S
O255 C235 1.289 . S
O256 Ho232 2.381 . S
O256 C242 1.275 . S
O257 Ho232 2.669 . S
O257 Ho233 2.305 . S
O257 C242 1.256 . S
O258 Ho233 2.322 . S
O258 C243 1.259 . S
O259 Ho232 2.346 . S
O259 C243 1.268 . S
O260 Ho233 2.378 . S
O260 C244 1.215 . S
O261 Ho233 2.524 . S
O261 C244 1.289 . S
O262 Ho233 2.381 . S
O262 C251 1.275 . S
O263 Ho232 2.305 . S
O263 Ho233 2.669 . S
O263 C251 1.256 . S
H264 C237 0.930 . S
H265 C238 0.931 . S
H266 C240 0.934 . S
H267 C241 0.930 1_556 S
H268 C246 0.930 . S
H269 C247 0.931 . S
H270 C249 0.934 . S
H271 C250 0.930 . S
Ho272 C275 2.811 . S
Ho272 O292 2.322 . S
Ho272 O294 2.378 . S
Ho272 O295 2.524 . S
Ho272 O296 2.381 . S
Ho272 O297 2.669 1_655 S
Ho272 O299 2.346 1_655 S
Ho272 O303 2.305 . S
Ho273 C284 2.811 . S
Ho273 O293 2.346 1_455 S
Ho273 O297 2.305 . S
Ho273 O298 2.322 . S
Ho273 O300 2.378 . S
Ho273 O301 2.524 . S
Ho273 O302 2.381 . S
Ho273 O303 2.669 1_455 S
C274 O292 1.259 . S
C274 O293 1.268 . S
C275 Ho272 2.811 . S
C275 C276 1.488 . S
C275 O294 1.215 . S
C275 O295 1.289 . S
C276 C275 1.488 . S
C276 C277 1.348 1_556 S
C276 C281 1.413 1_556 S
C277 C276 1.348 1_554 S
C277 C278 1.442 . S
C277 H304 0.930 . S
C278 C277 1.442 . S
C278 C279 1.381 . S
C278 H305 0.931 . S
C279 C278 1.381 . S
C279 C280 1.321 . S
C280 C279 1.321 . S
C280 C281 1.403 . S
C280 H306 0.934 . S
C281 C276 1.413 1_554 S
C281 C280 1.403 . S
C281 H307 0.930 1_554 S
C282 O296 1.294 . S
C282 O297 1.245 1_655 S
C283 O298 1.259 . S
C283 O299 1.268 . S
C284 Ho273 2.811 . S
C284 C285 1.488 . S
C284 O300 1.215 . S
C284 O301 1.289 . S
C285 C284 1.488 . S
C285 C286 1.348 . S
C285 C290 1.413 . S
C286 C285 1.348 . S
C286 C287 1.442 . S
C286 H308 0.930 . S
C287 C286 1.442 . S
C287 C288 1.381 . S
C287 H309 0.931 . S
C288 C287 1.381 . S
C288 C289 1.321 . S
C289 C288 1.321 . S
C289 C290 1.403 . S
C289 H310 0.934 . S
C290 C285 1.413 . S
C290 C289 1.403 . S
C290 H311 0.930 . S
C291 O302 1.300 . S
C291 O303 1.242 1_455 S
O292 Ho272 2.322 . S
O292 C274 1.259 . S
O293 Ho273 2.346 1_655 S
O293 C274 1.268 . S
O294 Ho272 2.378 . S
O294 C275 1.215 . S
O295 Ho272 2.524 . S
O295 C275 1.289 . S
O296 Ho272 2.381 . S
O296 C282 1.294 . S
O297 Ho272 2.669 1_455 S
O297 Ho273 2.305 . S
O297 C282 1.245 1_455 S
O298 Ho273 2.322 . S
O298 C283 1.259 . S
O299 Ho272 2.346 1_455 S
O299 C283 1.268 . S
O300 Ho273 2.378 . S
O300 C284 1.215 . S
O301 Ho273 2.524 . S
O301 C284 1.289 . S
O302 Ho273 2.381 . S
O302 C291 1.300 . S
O303 Ho272 2.305 . S
O303 Ho273 2.669 1_655 S
O303 C291 1.242 1_655 S
H304 C277 0.930 . S
H305 C278 0.931 . S
H306 C280 0.934 . S
H307 C281 0.930 1_556 S
H308 C286 0.930 . S
H309 C287 0.931 . S
H310 C289 0.934 . S
H311 C290 0.930 . S
H312 C320 0.950 . S
H313 C325 0.950 . S
H314 C322 0.950 . S
H315 C324 0.950 . S
H316 C326 0.950 . S
H317 C328 0.950 . S
H318 C330 0.950 . S
H319 C331 0.950 . S
C320 H312 0.950 . S
C320 C321 1.411 . S
C320 C322 1.391 . S
C321 C320 1.411 . S
C321 C325 1.368 1_545 S
C322 H314 0.950 . S
C322 C320 1.391 . S
C322 C323 1.444 . S
C323 C322 1.444 . S
C323 C324 1.354 1_545 S
C323 C329 1.492 . S
C324 H315 0.950 . S
C324 C323 1.354 1_565 S
C324 C325 1.391 . S
C325 H313 0.950 . S
C325 C321 1.368 1_565 S
C325 C324 1.391 . S
C326 H316 0.950 . S
C326 C327 1.386 1_565 S
C326 C328 1.391 . S
C327 C326 1.386 1_545 S
C327 C331 1.393 . S
C328 H317 0.950 . S
C328 C326 1.391 . S
C328 C329 1.400 1_565 S
C329 C323 1.492 . S
C329 C328 1.400 1_545 S
C329 C330 1.398 . S
C330 H318 0.950 . S
C330 C329 1.398 . S
C330 C331 1.391 . S
C331 H319 0.950 . S
C331 C327 1.393 . S
C331 C330 1.391 . S
H332 C340 0.950 . S
H333 C345 0.950 . S
H334 C342 0.950 . S
H335 C344 0.950 . S
H336 C346 0.950 . S
H337 C348 0.950 . S
H338 C350 0.950 . S
H339 C351 0.950 . S
C340 H332 0.950 . S
C340 C341 1.386 . S
C340 C342 1.391 . S
C341 C340 1.386 . S
C341 C345 1.393 . S
C342 H334 0.950 . S
C342 C340 1.391 . S
C342 C343 1.400 . S
C343 C342 1.400 . S
C343 C344 1.398 . S
C343 C349 1.491 . S
C344 H335 0.950 . S
C344 C343 1.398 . S
C344 C345 1.391 . S
C345 H333 0.950 . S
C345 C341 1.393 . S
C345 C344 1.391 . S
C346 H336 0.950 . S
C346 C347 1.386 . S
C346 C348 1.391 . S
C347 C346 1.386 . S
C347 C351 1.393 . S
C348 H337 0.950 . S
C348 C346 1.391 . S
C348 C349 1.400 . S
C349 C343 1.491 . S
C349 C348 1.400 . S
C349 C350 1.398 . S
C350 H338 0.950 . S
C350 C349 1.398 . S
C350 C351 1.391 . S
C351 H339 0.950 . S
C351 C347 1.393 . S
C351 C350 1.391 . S
H352 C360 0.950 . S
H353 C365 0.950 . S
H354 C362 0.950 . S
H355 C364 0.950 . S
H356 C366 0.950 . S
H357 C368 0.950 . S
H358 C370 0.950 . S
H359 C371 0.950 . S
C360 H352 0.950 . S
C360 C361 1.386 . S
C360 C362 1.391 . S
C361 C360 1.386 . S
C361 C365 1.393 . S
C362 H354 0.950 . S
C362 C360 1.391 . S
C362 C363 1.400 . S
C363 C362 1.400 . S
C363 C364 1.398 . S
C363 C369 1.491 . S
C364 H355 0.950 . S
C364 C363 1.398 . S
C364 C365 1.391 . S
C365 H353 0.950 . S
C365 C361 1.393 . S
C365 C364 1.391 . S
C366 H356 0.950 . S
C366 C367 1.386 . S
C366 C368 1.391 . S
C367 C366 1.386 . S
C367 C371 1.393 . S
C368 H357 0.950 . S
C368 C366 1.391 . S
C368 C369 1.400 . S
C369 C363 1.491 . S
C369 C368 1.400 . S
C369 C370 1.398 . S
C370 H358 0.950 . S
C370 C369 1.398 . S
C370 C371 1.391 . S
C371 H359 0.950 . S
C371 C367 1.393 . S
C371 C370 1.391 . S
H372 C380 0.950 . S
H373 C385 0.950 . S
H374 C382 0.950 . S
H375 C384 0.950 . S
H376 C386 0.950 . S
H377 C388 0.950 . S
H378 C390 0.950 . S
H379 C391 0.950 . S
C380 H372 0.950 . S
C380 C381 1.386 . S
C380 C382 1.391 . S
C381 C380 1.386 . S
C381 C385 1.393 1_455 S
C382 H374 0.950 . S
C382 C380 1.391 . S
C382 C383 1.400 . S
C383 C382 1.400 . S
C383 C384 1.398 1_455 S
C383 C389 1.491 . S
C384 H375 0.950 . S
C384 C383 1.398 1_655 S
C384 C385 1.391 . S
C385 H373 0.950 . S
C385 C381 1.393 1_655 S
C385 C384 1.391 . S
C386 H376 0.950 . S
C386 C387 1.386 1_655 S
C386 C388 1.391 . S
C387 C386 1.386 1_455 S
C387 C391 1.393 . S
C388 H377 0.950 . S
C388 C386 1.391 . S
C388 C389 1.400 1_655 S
C389 C383 1.491 . S
C389 C388 1.400 1_455 S
C389 C390 1.398 . S
C390 H378 0.950 . S
C390 C389 1.398 . S
C390 C391 1.391 . S
C391 H379 0.950 . S
C391 C387 1.393 . S
C391 C390 1.391 . S
H392 C400 0.950 . S
H393 C405 0.950 . S
H394 C402 0.950 . S
H395 C404 0.950 . S
H396 C406 0.950 . S
H397 C408 0.950 . S
H398 C410 0.950 1_554 S
H399 C411 0.950 . S
C400 H392 0.950 . S
C400 C401 1.388 . S
C400 C402 1.391 . S
C401 C400 1.388 . S
C401 C405 1.391 1_565 S
C402 H394 0.950 . S
C402 C400 1.391 . S
C402 C403 1.426 . S
C403 C402 1.426 . S
C403 C404 1.372 1_565 S
C403 C409 1.492 . S
C404 H395 0.950 . S
C404 C403 1.372 1_545 S
C404 C405 1.391 . S
C405 H393 0.950 . S
C405 C401 1.391 1_545 S
C405 C404 1.391 . S
C406 H396 0.950 . S
C406 C407 1.386 1_545 S
C406 C408 1.391 1_556 S
C407 C406 1.386 1_565 S
C407 C411 1.393 . S
C408 H397 0.950 . S
C408 C406 1.391 1_554 S
C408 C409 1.400 1_545 S
C409 C403 1.492 . S
C409 C408 1.400 1_565 S
C409 C410 1.398 1_554 S
C410 H398 0.950 1_556 S
C410 C409 1.398 1_556 S
C410 C411 1.391 . S
C411 H399 0.950 . S
C411 C407 1.393 . S
C411 C410 1.391 . S
H412 C420 0.950 . S
H413 C425 0.950 . S
H414 C422 0.950 . S
H415 C424 0.950 . S
H416 C426 0.950 . S
H417 C428 0.950 1_554 S
H418 C430 0.950 . S
H419 C431 0.950 . S
C420 H412 0.950 . S
C420 C421 1.386 . S
C420 C422 1.391 . S
C421 C420 1.386 . S
C421 C425 1.393 . S
C422 H414 0.950 . S
C422 C420 1.391 . S
C422 C423 1.400 . S
C423 C422 1.400 . S
C423 C424 1.398 . S
C423 C429 1.491 . S
C424 H415 0.950 . S
C424 C423 1.398 . S
C424 C425 1.391 . S
C425 H413 0.950 . S
C425 C421 1.393 . S
C425 C424 1.391 . S
C426 H416 0.950 . S
C426 C427 1.386 . S
C426 C428 1.391 . S
C427 C426 1.386 . S
C427 C431 1.393 . S
C428 H417 0.950 1_556 S
C428 C426 1.391 . S
C428 C429 1.400 1_556 S
C429 C423 1.491 . S
C429 C428 1.400 1_554 S
C429 C430 1.398 . S
C430 H418 0.950 . S
C430 C429 1.398 . S
C430 C431 1.391 1_554 S
C431 H419 0.950 . S
C431 C427 1.393 . S
C431 C430 1.391 1_556 S
H432 C440 0.950 . S
H433 C445 0.950 . S
H434 C442 0.950 . S
H435 C444 0.950 . S
H436 C446 0.950 . S
H437 C448 0.950 . S
H438 C450 0.950 . S
H439 C451 0.948 1_554 S
C440 H432 0.950 . S
C440 C441 1.386 . S
C440 C442 1.391 . S
C441 C440 1.386 . S
C441 C445 1.393 . S
C442 H434 0.950 . S
C442 C440 1.391 . S
C442 C443 1.400 . S
C443 C442 1.400 . S
C443 C444 1.398 . S
C443 C449 1.491 . S
C444 H435 0.950 . S
C444 C443 1.398 . S
C444 C445 1.391 . S
C445 H433 0.950 . S
C445 C441 1.393 . S
C445 C444 1.391 . S
C446 H436 0.950 . S
C446 C447 1.386 . S
C446 C448 1.391 . S
C447 C446 1.386 . S
C447 C451 1.399 . S
C448 H437 0.950 . S
C448 C446 1.391 . S
C448 C449 1.400 1_556 S
C449 C443 1.491 . S
C449 C448 1.400 1_554 S
C449 C450 1.398 . S
C450 H438 0.950 . S
C450 C449 1.398 . S
C450 C451 1.386 1_554 S
C451 H439 0.948 1_556 S
C451 C447 1.399 . S
C451 C450 1.386 1_556 S
H452 C460 0.950 . S
H453 C465 0.950 . S
H454 C462 0.950 . S
H455 C464 0.950 . S
H456 C466 0.950 . S
H457 C468 0.950 . S
H458 C470 0.950 . S
H459 C471 0.950 . S
C460 H452 0.950 . S
C460 C461 1.396 . S
C460 C462 1.391 . S
C461 C460 1.396 . S
C461 C465 1.383 1_655 S
C462 H454 0.950 . S
C462 C460 1.391 . S
C462 C463 1.432 . S
C463 C462 1.432 . S
C463 C464 1.366 1_655 S
C463 C469 1.492 . S
C464 H455 0.950 . S
C464 C463 1.366 1_455 S
C464 C465 1.391 . S
C465 H453 0.950 . S
C465 C461 1.383 1_455 S
C465 C464 1.391 . S
C466 H456 0.950 . S
C466 C467 1.386 1_455 S
C466 C468 1.391 1_556 S
C467 C466 1.386 1_655 S
C467 C471 1.393 . S
C468 H457 0.950 . S
C468 C466 1.391 1_554 S
C468 C469 1.400 1_455 S
C469 C463 1.492 . S
C469 C468 1.400 1_655 S
C469 C470 1.398 . S
C470 H458 0.950 . S
C470 C469 1.398 . S
C470 C471 1.391 1_554 S
C471 H459 0.950 . S
C471 C467 1.393 . S
C471 C470 1.391 1_556 S
H472 C480 0.950 . S
H473 C485 0.950 . S
H474 C482 0.950 . S
H475 C484 0.950 . S
H476 C486 0.950 . S
H477 C488 0.950 . S
H478 C490 0.950 1_455 S
H479 C491 0.950 . S
C480 H472 0.950 . S
C480 C481 1.386 . S
C480 C482 1.391 . S
C481 C480 1.386 . S
C481 C485 1.393 1_455 S
C482 H474 0.950 . S
C482 C480 1.391 . S
C482 C483 1.400 1_455 S
C483 C482 1.400 1_655 S
C483 C484 1.398 . S
C483 C489 1.491 . S
C484 H475 0.950 . S
C484 C483 1.398 . S
C484 C485 1.391 . S
C485 H473 0.950 . S
C485 C481 1.393 1_655 S
C485 C484 1.391 . S
C486 H476 0.950 . S
C486 C487 1.386 . S
C486 C488 1.391 . S
C487 C486 1.386 . S
C487 C491 1.393 . S
C488 H477 0.950 . S
C488 C486 1.391 . S
C488 C489 1.400 . S
C489 C483 1.491 . S
C489 C488 1.400 . S
C489 C490 1.398 . S
C490 H478 0.950 1_655 S
C490 C489 1.398 . S
C490 C491 1.391 . S
C491 H479 0.950 . S
C491 C487 1.393 . S
C491 C490 1.391 . S
H492 C500 0.950 . S
H493 C505 0.950 . S
H494 C502 0.950 . S
H495 C504 0.950 . S
H496 C506 0.950 . S
H497 C508 0.950 1_545 S
H498 C510 0.950 . S
H499 C511 0.950 . S
C500 H492 0.950 . S
C500 C501 1.386 1_565 S
C500 C502 1.391 . S
C501 C500 1.386 1_545 S
C501 C505 1.393 . S
C502 H494 0.950 . S
C502 C500 1.391 . S
C502 C503 1.400 . S
C503 C502 1.400 . S
C503 C504 1.398 1_565 S
C503 C509 1.491 . S
C504 H495 0.950 . S
C504 C503 1.398 1_545 S
C504 C505 1.391 . S
C505 H493 0.950 . S
C505 C501 1.393 . S
C505 C504 1.391 . S
C506 H496 0.950 . S
C506 C507 1.386 . S
C506 C508 1.391 . S
C507 C506 1.386 . S
C507 C511 1.393 . S
C508 H497 0.950 1_565 S
C508 C506 1.391 . S
C508 C509 1.400 . S
C509 C503 1.491 . S
C509 C508 1.400 . S
C509 C510 1.398 . S
C510 H498 0.950 . S
C510 C509 1.398 . S
C510 C511 1.391 . S
C511 H499 0.950 . S
C511 C507 1.393 . S
C511 C510 1.391 . S
H512 C520 0.950 . S
H513 C525 0.950 1_556 S
H514 C522 0.950 . S
H515 C524 0.950 . S
H516 C526 0.950 . S
H517 C528 0.950 . S
H518 C530 0.950 . S
H519 C531 0.950 . S
C520 H512 0.950 . S
C520 C521 1.386 . S
C520 C522 1.391 . S
C521 C520 1.386 . S
C521 C525 1.393 . S
C522 H514 0.950 . S
C522 C520 1.391 . S
C522 C523 1.400 . S
C523 C522 1.400 . S
C523 C524 1.398 . S
C523 C529 1.491 . S
C524 H515 0.950 . S
C524 C523 1.398 . S
C524 C525 1.391 . S
C525 H513 0.950 1_554 S
C525 C521 1.393 . S
C525 C524 1.391 . S
C526 H516 0.950 . S
C526 C527 1.386 . S
C526 C528 1.391 . S
C527 C526 1.386 . S
C527 C531 1.393 . S
C528 H517 0.950 . S
C528 C526 1.391 . S
C528 C529 1.400 . S
C529 C523 1.491 . S
C529 C528 1.400 . S
C529 C530 1.398 . S
C530 H518 0.950 . S
C530 C529 1.398 . S
C530 C531 1.391 . S
C531 H519 0.950 . S
C531 C527 1.393 . S
C531 C530 1.391 . S
H532 C540 0.950 . S
H533 C545 0.950 . S
H534 C542 0.950 . S
H535 C544 0.950 . S
H536 C546 0.950 . S
H537 C548 0.950 . S
H538 C550 0.950 . S
H539 C551 0.950 . S
C540 H532 0.950 . S
C540 C541 1.386 . S
C540 C542 1.391 . S
C541 C540 1.386 . S
C541 C545 1.393 . S
C542 H534 0.950 . S
C542 C540 1.391 . S
C542 C543 1.400 . S
C543 C542 1.400 . S
C543 C544 1.398 . S
C543 C549 1.491 . S
C544 H535 0.950 . S
C544 C543 1.398 . S
C544 C545 1.391 . S
C545 H533 0.950 . S
C545 C541 1.393 . S
C545 C544 1.391 . S
C546 H536 0.950 . S
C546 C547 1.386 . S
C546 C548 1.391 . S
C547 C546 1.386 . S
C547 C551 1.393 . S
C548 H537 0.950 . S
C548 C546 1.391 . S
C548 C549 1.400 . S
C549 C543 1.491 . S
C549 C548 1.400 . S
C549 C550 1.398 . S
C550 H538 0.950 . S
C550 C549 1.398 . S
C550 C551 1.391 . S
C551 H539 0.950 . S
C551 C547 1.393 . S
C551 C550 1.391 . S
H552 C560 0.950 . S
H553 C565 0.950 . S
H554 C562 0.950 . S
H555 C564 0.950 . S
H556 C566 0.950 . S
H557 C568 0.950 . S
H558 C570 0.950 1_655 S
H559 C571 0.950 . S
C560 H552 0.950 . S
C560 C561 1.409 . S
C560 C562 1.391 . S
C561 C560 1.409 . S
C561 C565 1.358 1_655 S
C562 H554 0.950 . S
C562 C560 1.391 . S
C562 C563 1.400 1_655 S
C563 C562 1.400 1_455 S
C563 C564 1.398 . S
C563 C569 1.491 . S
C564 H555 0.950 . S
C564 C563 1.398 . S
C564 C565 1.391 . S
C565 H553 0.950 . S
C565 C561 1.358 1_455 S
C565 C564 1.391 . S
C566 H556 0.950 . S
C566 C567 1.386 . S
C566 C568 1.391 . S
C567 C566 1.386 . S
C567 C571 1.393 . S
C568 H557 0.950 . S
C568 C566 1.391 . S
C568 C569 1.400 . S
C569 C563 1.491 . S
C569 C568 1.400 . S
C569 C570 1.398 . S
C570 H558 0.950 1_455 S
C570 C569 1.398 . S
C570 C571 1.391 . S
C571 H559 0.950 . S
C571 C567 1.393 . S
C571 C570 1.391 . S
H572 C580 0.950 . S
H573 C585 0.950 . S
H574 C582 0.950 . S
H575 C584 0.955 . S
H576 C586 0.950 . S
H577 C588 0.950 . S
H578 C590 0.950 . S
H579 C591 0.950 1_556 S
C580 H572 0.950 . S
C580 C581 1.386 1_545 S
C580 C582 1.391 . S
C581 C580 1.386 1_565 S
C581 C585 1.393 . S
C582 H574 0.950 . S
C582 C580 1.391 . S
C582 C583 1.400 . S
C583 C582 1.400 . S
C583 C584 1.388 1_545 S
C583 C589 1.491 . S
C584 H575 0.955 . S
C584 C583 1.388 1_565 S
C584 C585 1.397 . S
C585 H573 0.950 . S
C585 C581 1.393 . S
C585 C584 1.397 . S
C586 H576 0.950 . S
C586 C587 1.386 . S
C586 C588 1.391 . S
C587 C586 1.386 . S
C587 C591 1.393 . S
C588 H577 0.950 . S
C588 C586 1.391 . S
C588 C589 1.400 . S
C589 C583 1.491 . S
C589 C588 1.400 . S
C589 C590 1.398 . S
C590 H578 0.950 . S
C590 C589 1.398 . S
C590 C591 1.391 . S
C591 H579 0.950 1_554 S
C591 C587 1.393 . S
C591 C590 1.391 . S
H592 C600 0.950 . S
H593 C605 0.950 . S
H594 C602 0.950 . S
H595 C604 0.950 . S
H596 C606 0.950 . S
H597 C608 0.950 . S
H598 C610 0.950 . S
H599 C611 0.950 . S
C600 H592 0.950 . S
C600 C601 1.386 . S
C600 C602 1.391 . S
C601 C600 1.386 . S
C601 C605 1.393 . S
C602 H594 0.950 . S
C602 C600 1.391 . S
C602 C603 1.400 . S
C603 C602 1.400 . S
C603 C604 1.398 . S
C603 C609 1.491 . S
C604 H595 0.950 . S
C604 C603 1.398 . S
C604 C605 1.391 . S
C605 H593 0.950 . S
C605 C601 1.393 . S
C605 C604 1.391 . S
C606 H596 0.950 . S
C606 C607 1.386 . S
C606 C608 1.391 . S
C607 C606 1.386 . S
C607 C611 1.393 . S
C608 H597 0.950 . S
C608 C606 1.391 . S
C608 C609 1.400 . S
C609 C603 1.491 . S
C609 C608 1.400 . S
C609 C610 1.398 . S
C610 H598 0.950 . S
C610 C609 1.398 . S
C610 C611 1.391 . S
C611 H599 0.950 . S
C611 C607 1.393 . S
C611 C610 1.391 . S
H612 C620 0.950 . S
H613 C625 0.950 . S
H614 C622 0.950 . S
H615 C624 0.950 . S
H616 C626 0.950 . S
H617 C628 0.950 . S
H618 C630 0.950 . S
H619 C631 0.950 . S
C620 H612 0.950 . S
C620 C621 1.386 . S
C620 C622 1.391 . S
C621 C620 1.386 . S
C621 C625 1.393 . S
C622 H614 0.950 . S
C622 C620 1.391 . S
C622 C623 1.400 . S
C623 C622 1.400 . S
C623 C624 1.398 . S
C623 C629 1.491 . S
C624 H615 0.950 . S
C624 C623 1.398 . S
C624 C625 1.391 . S
C625 H613 0.950 . S
C625 C621 1.393 . S
C625 C624 1.391 . S
C626 H616 0.950 . S
C626 C627 1.386 . S
C626 C628 1.391 . S
C627 C626 1.386 . S
C627 C631 1.393 . S
C628 H617 0.950 . S
C628 C626 1.391 . S
C628 C629 1.400 . S
C629 C623 1.491 . S
C629 C628 1.400 . S
C629 C630 1.398 . S
C630 H618 0.950 . S
C630 C629 1.398 . S
C630 C631 1.391 . S
C631 H619 0.950 . S
C631 C627 1.393 . S
C631 C630 1.391 . S
H632 C640 0.950 . S
H633 C645 0.950 . S
H634 C642 0.950 . S
H635 C644 0.950 . S
H636 C646 0.950 . S
H637 C648 0.950 . S
H638 C650 0.950 . S
H639 C651 0.950 . S
C640 H632 0.950 . S
C640 C641 1.386 1_655 S
C640 C642 1.391 . S
C641 C640 1.386 1_455 S
C641 C645 1.393 . S
C642 H634 0.950 . S
C642 C640 1.391 . S
C642 C643 1.400 1_655 S
C643 C642 1.400 1_455 S
C643 C644 1.398 . S
C643 C649 1.491 . S
C644 H635 0.950 . S
C644 C643 1.398 . S
C644 C645 1.391 . S
C645 H633 0.950 . S
C645 C641 1.393 . S
C645 C644 1.391 . S
C646 H636 0.950 . S
C646 C647 1.386 . S
C646 C648 1.391 . S
C647 C646 1.386 . S
C647 C651 1.393 1_455 S
C648 H637 0.950 . S
C648 C646 1.391 . S
C648 C649 1.400 . S
C649 C643 1.491 . S
C649 C648 1.400 . S
C649 C650 1.398 1_455 S
C650 H638 0.950 . S
C650 C649 1.398 1_655 S
C650 C651 1.391 . S
C651 H639 0.950 . S
C651 C647 1.393 1_655 S
C651 C650 1.391 . S
H652 C660 0.950 . S
H653 C665 0.950 . S
H654 C662 0.950 . S
H655 C664 0.950 . S
H656 C666 0.950 . S
H657 C668 0.950 . S
H658 C670 0.950 . S
H659 C671 0.950 . S
C660 H652 0.950 . S
C660 C661 1.386 . S
C660 C662 1.391 . S
C661 C660 1.386 . S
C661 C665 1.393 1_545 S
C662 H654 0.950 . S
C662 C660 1.391 . S
C662 C663 1.400 . S
C663 C662 1.400 . S
C663 C664 1.398 1_545 S
C663 C669 1.491 . S
C664 H655 0.950 . S
C664 C663 1.398 1_565 S
C664 C665 1.391 . S
C665 H653 0.950 . S
C665 C661 1.393 1_565 S
C665 C664 1.391 . S
C666 H656 0.950 . S
C666 C667 1.386 1_565 S
C666 C668 1.391 . S
C667 C666 1.386 1_545 S
C667 C671 1.393 . S
C668 H657 0.950 . S
C668 C666 1.391 . S
C668 C669 1.400 1_565 S
C669 C663 1.491 . S
C669 C668 1.400 1_545 S
C669 C670 1.398 . S
C670 H658 0.950 . S
C670 C669 1.398 . S
C670 C671 1.391 . S
C671 H659 0.950 . S
C671 C667 1.393 . S
C671 C670 1.391 . S
H672 C680 0.950 . S
H673 C685 0.950 . S
H674 C682 0.950 . S
H675 C684 0.950 . S
H676 C686 0.950 . S
H677 C688 0.950 . S
H678 C690 0.950 . S
H679 C691 0.950 . S
C680 H672 0.950 . S
C680 C681 1.386 . S
C680 C682 1.391 . S
C681 C680 1.386 . S
C681 C685 1.393 . S
C682 H674 0.950 . S
C682 C680 1.391 . S
C682 C683 1.400 . S
C683 C682 1.400 . S
C683 C684 1.398 . S
C683 C689 1.491 . S
C684 H675 0.950 . S
C684 C683 1.398 . S
C684 C685 1.391 . S
C685 H673 0.950 . S
C685 C681 1.393 . S
C685 C684 1.391 . S
C686 H676 0.950 . S
C686 C687 1.386 . S
C686 C688 1.391 . S
C687 C686 1.386 . S
C687 C691 1.393 . S
C688 H677 0.950 . S
C688 C686 1.391 . S
C688 C689 1.400 . S
C689 C683 1.491 . S
C689 C688 1.400 . S
C689 C690 1.398 . S
C690 H678 0.950 . S
C690 C689 1.398 . S
C690 C691 1.391 . S
C691 H679 0.950 . S
C691 C687 1.393 . S
C691 C690 1.391 . S
H692 C700 0.950 . S
H693 C705 0.950 . S
H694 C702 0.950 . S
H695 C704 0.950 . S
H696 C706 0.950 . S
H697 C708 0.950 . S
H698 C710 0.950 . S
H699 C711 0.950 . S
C700 H692 0.950 . S
C700 C701 1.386 . S
C700 C702 1.391 . S
C701 C700 1.386 . S
C701 C705 1.393 . S
C702 H694 0.950 . S
C702 C700 1.391 . S
C702 C703 1.400 . S
C703 C702 1.400 . S
C703 C704 1.398 . S
C703 C709 1.491 . S
C704 H695 0.950 . S
C704 C703 1.398 . S
C704 C705 1.391 . S
C705 H693 0.950 . S
C705 C701 1.393 . S
C705 C704 1.391 . S
C706 H696 0.950 . S
C706 C707 1.386 . S
C706 C708 1.391 . S
C707 C706 1.386 . S
C707 C711 1.393 . S
C708 H697 0.950 . S
C708 C706 1.391 . S
C708 C709 1.400 . S
C709 C703 1.491 . S
C709 C708 1.400 . S
C709 C710 1.398 . S
C710 H698 0.950 . S
C710 C709 1.398 . S
C710 C711 1.391 . S
C711 H699 0.950 . S
C711 C707 1.393 . S
C711 C710 1.391 . S
H712 C720 0.950 . S
H713 C725 0.950 . S
H714 C722 0.950 . S
H715 C724 0.950 . S
H716 C726 0.950 . S
H717 C728 0.950 . S
H718 C730 0.950 . S
H719 C731 0.950 . S
C720 H712 0.950 . S
C720 C721 1.386 1_455 S
C720 C722 1.391 . S
C721 C720 1.386 1_655 S
C721 C725 1.393 . S
C722 H714 0.950 . S
C722 C720 1.391 . S
C722 C723 1.400 1_455 S
C723 C722 1.400 1_655 S
C723 C724 1.398 . S
C723 C729 1.491 . S
C724 H715 0.950 . S
C724 C723 1.398 . S
C724 C725 1.391 . S
C725 H713 0.950 . S
C725 C721 1.393 . S
C725 C724 1.391 . S
C726 H716 0.950 . S
C726 C727 1.386 . S
C726 C728 1.391 . S
C727 C726 1.386 . S
C727 C731 1.393 1_655 S
C728 H717 0.950 . S
C728 C726 1.391 . S
C728 C729 1.400 . S
C729 C723 1.491 . S
C729 C728 1.400 . S
C729 C730 1.398 1_655 S
C730 H718 0.950 . S
C730 C729 1.398 1_455 S
C730 C731 1.391 . S
C731 H719 0.950 . S
C731 C727 1.393 1_455 S
C731 C730 1.391 . S
H732 C740 0.950 . S
H733 C745 0.950 . S
H734 C742 0.950 . S
H735 C744 0.950 . S
H736 C746 0.950 . S
H737 C748 0.950 . S
H738 C750 0.950 . S
H739 C751 0.950 . S
C740 H732 0.950 . S
C740 C741 1.386 1_545 S
C740 C742 1.391 . S
C741 C740 1.386 1_565 S
C741 C745 1.393 . S
C742 H734 0.950 . S
C742 C740 1.391 . S
C742 C743 1.400 1_545 S
C743 C742 1.400 1_565 S
C743 C744 1.398 . S
C743 C749 1.491 . S
C744 H735 0.950 . S
C744 C743 1.398 . S
C744 C745 1.391 . S
C745 H733 0.950 . S
C745 C741 1.393 . S
C745 C744 1.391 . S
C746 H736 0.950 . S
C746 C747 1.386 . S
C746 C748 1.391 . S
C747 C746 1.386 . S
C747 C751 1.393 1_565 S
C748 H737 0.950 . S
C748 C746 1.391 . S
C748 C749 1.400 . S
C749 C743 1.491 . S
C749 C748 1.400 . S
C749 C750 1.398 1_565 S
C750 H738 0.950 . S
C750 C749 1.398 1_545 S
C750 C751 1.391 . S
C751 H739 0.950 . S
C751 C747 1.393 1_545 S
C751 C750 1.391 . S
H752 C760 0.950 . S
H753 C765 0.950 . S
H754 C762 0.950 . S
H755 C764 0.950 . S
H756 C766 0.950 . S
H757 C768 0.950 . S
H758 C770 0.950 . S
H759 C771 0.950 . S
C760 H752 0.950 . S
C760 C761 1.386 . S
C760 C762 1.391 . S
C761 C760 1.386 . S
C761 C765 1.393 . S
C762 H754 0.950 . S
C762 C760 1.391 . S
C762 C763 1.400 . S
C763 C762 1.400 . S
C763 C764 1.398 . S
C763 C769 1.491 . S
C764 H755 0.950 . S
C764 C763 1.398 . S
C764 C765 1.391 . S
C765 H753 0.950 . S
C765 C761 1.393 . S
C765 C764 1.391 . S
C766 H756 0.950 . S
C766 C767 1.386 . S
C766 C768 1.391 . S
C767 C766 1.386 . S
C767 C771 1.393 . S
C768 H757 0.950 . S
C768 C766 1.391 . S
C768 C769 1.400 . S
C769 C763 1.491 . S
C769 C768 1.400 . S
C769 C770 1.398 . S
C770 H758 0.950 . S
C770 C769 1.398 . S
C770 C771 1.391 . S
C771 H759 0.950 . S
C771 C767 1.393 . S
C771 C770 1.391 . S
H772 C780 0.950 . S
H773 C785 0.950 . S
H774 C782 0.950 . S
H775 C784 0.950 . S
H776 C786 0.950 . S
H777 C788 0.950 . S
H778 C790 0.950 . S
H779 C791 0.950 . S
C780 H772 0.950 . S
C780 C781 1.386 . S
C780 C782 1.391 . S
C781 C780 1.386 . S
C781 C785 1.393 . S
C782 H774 0.950 . S
C782 C780 1.391 . S
C782 C783 1.400 . S
C783 C782 1.400 . S
C783 C784 1.398 . S
C783 C789 1.491 . S
C784 H775 0.950 . S
C784 C783 1.398 . S
C784 C785 1.391 . S
C785 H773 0.950 . S
C785 C781 1.393 . S
C785 C784 1.391 . S
C786 H776 0.950 . S
C786 C787 1.386 . S
C786 C788 1.391 . S
C787 C786 1.386 . S
C787 C791 1.393 . S
C788 H777 0.950 . S
C788 C786 1.391 . S
C788 C789 1.400 . S
C789 C783 1.491 . S
C789 C788 1.400 . S
C789 C790 1.398 . S
C790 H778 0.950 . S
C790 C789 1.398 . S
C790 C791 1.391 . S
C791 H779 0.950 . S
C791 C787 1.393 . S
C791 C790 1.391 . S
C321 C125 1.894 1_545 S
C327 C162 1.939 1_545 S
C347 C202 1.941 . S
C341 C144 1.907 . S
C367 C242 1.947 . S
C361 C87 1.900 . S
C387 C282 1.936 1_455 S
C381 C106 1.904 1_455 S
C407 C171 1.943 1_565 S
C401 C49 1.906 . S
C421 C68 1.898 . S
C427 C211 1.944 . S
C441 C11 1.892 . S
C447 C251 1.941 . S
C461 C30 1.907 . S
C467 C291 1.944 1_655 S
C487 C168 0.518 . S
C481 C97 0.587 . S
C507 C208 0.511 . S
C501 C116 0.536 . S
C527 C248 0.515 . S
C521 C135 0.581 . S
C541 C78 0.608 . S
C547 C288 0.542 . S
C561 C21 0.536 . S
C567 C159 0.509 . S
C587 C199 0.560 . S
C581 C40 0.597 . S
C607 C239 0.508 . S
C601 C59 0.536 . S
C621 C2 0.603 . S
C627 C279 0.558 . S
C641 C101 2.059 . S
C647 C163 2.263 . S
C661 C120 2.035 . S
C667 C203 2.272 . S
C687 C243 2.276 . S
C681 C139 2.048 . S
C707 C283 2.274 . S
C701 C82 2.039 . S
C721 C25 2.033 . S
C727 C154 2.269 . S
C747 C194 2.263 . S
C741 C44 2.038 . S
C767 C234 2.263 . S
C761 C63 2.047 . S
C781 C6 2.035 . S
C787 C274 2.266 . S
