# Generated by pormake.
# Topology zzz, (3,6)-cn, num edge types: 1
# Building blocks:
#     Node 0, Type 0, BuildingBlock: BETDIP_clean_linker_0, # of connection points: 3
#     Node 1, Type 0, BuildingBlock: BETDIP_clean_linker_0, # of connection points: 3
#     Node 2, Type 0, BuildingBlock: BETDIP_clean_linker_0, # of connection points: 3
#     Node 3, Type 0, BuildingBlock: BETDIP_clean_linker_0, # of connection points: 3
#     Node 4, Type 0, BuildingBlock: BETDIP_clean_linker_0, # of connection points: 3
#     Node 5, Type 0, BuildingBlock: BETDIP_clean_linker_0, # of connection points: 3
#     Node 6, Type 0, BuildingBlock: BETDIP_clean_linker_0, # of connection points: 3
#     Node 7, Type 0, BuildingBlock: BETDIP_clean_linker_0, # of connection points: 3
#     Node 8, Type 1, BuildingBlock: VOLQOD_clean_sbu_1, # of connection points: 6
#     Node 9, Type 1, BuildingBlock: VOLQOD_clean_sbu_1, # of connection points: 6
#     Node 10, Type 1, BuildingBlock: VOLQOD_clean_sbu_1, # of connection points: 6
#     Node 11, Type 1, BuildingBlock: VOLQOD_clean_sbu_1, # of connection points: 6
#     Edge 12, Type (0, 1), BuildingBlock: TEMPAE_clean_linker_10, # of connection points: 2
#     Edge 13, Type (0, 1), BuildingBlock: TEMPAE_clean_linker_10, # of connection points: 2
#     Edge 14, Type (0, 1), BuildingBlock: TEMPAE_clean_linker_10, # of connection points: 2
#     Edge 15, Type (0, 1), BuildingBlock: TEMPAE_clean_linker_10, # of connection points: 2
#     Edge 16, Type (0, 1), BuildingBlock: TEMPAE_clean_linker_10, # of connection points: 2
#     Edge 17, Type (0, 1), BuildingBlock: TEMPAE_clean_linker_10, # of connection points: 2
#     Edge 18, Type (0, 1), BuildingBlock: TEMPAE_clean_linker_10, # of connection points: 2
#     Edge 19, Type (0, 1), BuildingBlock: TEMPAE_clean_linker_10, # of connection points: 2
#     Edge 20, Type (0, 1), BuildingBlock: TEMPAE_clean_linker_10, # of connection points: 2
#     Edge 21, Type (0, 1), BuildingBlock: TEMPAE_clean_linker_10, # of connection points: 2
#     Edge 22, Type (0, 1), BuildingBlock: TEMPAE_clean_linker_10, # of connection points: 2
#     Edge 23, Type (0, 1), BuildingBlock: TEMPAE_clean_linker_10, # of connection points: 2
#     Edge 24, Type (0, 1), BuildingBlock: TEMPAE_clean_linker_10, # of connection points: 2
#     Edge 25, Type (0, 1), BuildingBlock: TEMPAE_clean_linker_10, # of connection points: 2
#     Edge 26, Type (0, 1), BuildingBlock: TEMPAE_clean_linker_10, # of connection points: 2
#     Edge 27, Type (0, 1), BuildingBlock: TEMPAE_clean_linker_10, # of connection points: 2
#     Edge 28, Type (0, 1), BuildingBlock: TEMPAE_clean_linker_10, # of connection points: 2
#     Edge 29, Type (0, 1), BuildingBlock: TEMPAE_clean_linker_10, # of connection points: 2
#     Edge 30, Type (0, 1), BuildingBlock: TEMPAE_clean_linker_10, # of connection points: 2
#     Edge 31, Type (0, 1), BuildingBlock: TEMPAE_clean_linker_10, # of connection points: 2
#     Edge 32, Type (0, 1), BuildingBlock: TEMPAE_clean_linker_10, # of connection points: 2
#     Edge 33, Type (0, 1), BuildingBlock: TEMPAE_clean_linker_10, # of connection points: 2
#     Edge 34, Type (0, 1), BuildingBlock: TEMPAE_clean_linker_10, # of connection points: 2
#     Edge 35, Type (0, 1), BuildingBlock: TEMPAE_clean_linker_10, # of connection points: 2
# Relax obj value: 0.197
# Max RMSD: 0.236
# Mean RMSD: 0.111
data_MOF--net-zzz--node1-VOLQOD_clean_sbu_1--node2-BETDIP_clean_linker_0--edge1-TEMPAE_clean_linker_10
_symmetry_space_group_name_H-M    P1
_symmetry_Int_Tables_number       1
_symmetry_cell_setting            triclinic
loop_
_symmetry_equiv_pos_as_xyz
'x, y, z'
_cell_length_a     52.072499
_cell_length_b     51.743787
_cell_length_c     17.358391
_cell_angle_alpha  90.198016
_cell_angle_beta   89.937963
_cell_angle_gamma 90.805412
loop_
_atom_site_label
_atom_site_type_symbol
_atom_site_fract_x
_atom_site_fract_y
_atom_site_fract_z
_atom_type_partial_charge
H0 H 0.76926 0.51705 0.22138 0.0
H1 H 0.78271 0.47761 0.00621 0.0
H2 H 0.84107 0.47936 0.18014 0.0
H3 H 0.72641 0.51228 0.18513 0.0
C4 C 0.72604 0.51096 0.12271 0.0
C5 C 0.78113 0.50503 0.18517 0.0
C6 C 0.80586 0.49831 0.21029 0.0
C7 C 0.77249 0.49677 0.11184 0.0
C8 C 0.78897 0.48287 0.0638 0.0
C9 C 0.81355 0.47621 0.08851 0.0
C10 C 0.82158 0.48348 0.16227 0.0
N11 N 0.74812 0.5031 0.08127 0.0
H12 H 0.00285 0.75192 0.28201 0.0
H13 H 0.04115 0.76319 0.06451 0.0
H14 H 0.04119 0.82407 0.23355 0.0
H15 H 0.99115 0.74209 0.04846 0.0
C16 C 0.0009 0.72591 0.07479 0.0
C17 C 0.01469 0.76378 0.24442 0.0
C18 C 0.02206 0.78888 0.26721 0.0
C19 C 0.02166 0.75451 0.17126 0.0
C20 C 0.03613 0.77033 0.12125 0.0
C21 C 0.04375 0.79536 0.14382 0.0
C22 C 0.03681 0.80424 0.21719 0.0
N23 N 0.01336 0.72959 0.14684 0.0
H24 H 0.74469 0.00366 0.25193 0.0
H25 H 0.73289 0.04547 0.04078 0.0
H26 H 0.67355 0.04227 0.21231 0.0
H27 H 0.75636 0.01084 0.9962 0.0
C28 C 0.77185 0.01111 0.03813 0.0
C29 C 0.73294 0.01597 0.21642 0.0
C30 C 0.70848 0.0232 0.24193 0.0
C31 C 0.7418 0.02372 0.14355 0.0
C32 C 0.72614 0.03919 0.09676 0.0
C33 C 0.70145 0.04611 0.12117 0.0
C34 C 0.69306 0.03831 0.19432 0.0
N35 N 0.76613 0.01512 0.11737 0.0
H36 H 0.50605 0.74303 0.26752 0.0
H37 H 0.46074 0.73258 0.06193 0.0
H38 H 0.46386 0.67222 0.23042 0.0
H39 H 0.49903 0.75306 0.01562 0.0
C40 C 0.49823 0.76947 0.05483 0.0
C41 C 0.49268 0.73155 0.23344 0.0
C42 C 0.48481 0.70696 0.25895 0.0
C43 C 0.48422 0.74081 0.16201 0.0
C44 C 0.4674 0.72549 0.11691 0.0
C45 C 0.45984 0.70068 0.14113 0.0
C46 C 0.46834 0.69187 0.21283 0.0
N47 N 0.49362 0.76499 0.13449 0.0
H48 H 0.25478 0.50889 0.06294 0.0
H49 H 0.24158 0.55394 0.26846 0.0
H50 H 0.18059 0.5409 0.10612 0.0
H51 H 0.2852 0.56479 0.243 0.0
C52 C 0.29167 0.545 0.23687 0.0
C53 C 0.24229 0.52061 0.09825 0.0
C54 C 0.21681 0.52462 0.07552 0.0
C55 C 0.25169 0.53199 0.16651 0.0
C56 C 0.23494 0.5463 0.21373 0.0
C57 C 0.20922 0.54974 0.19225 0.0
C58 C 0.20062 0.53923 0.12232 0.0
N59 N 0.27749 0.52753 0.18923 0.0
H60 H 0.05293 0.2374 0.08375 0.0
H61 H 0.00932 0.22901 0.29447 0.0
H62 H 0.04447 0.16311 0.1928 0.0
H63 H 0.988 0.26285 0.24003 0.0
C64 C 0.00471 0.27486 0.22677 0.0
C65 C 0.04574 0.22553 0.13057 0.0
C66 C 0.05114 0.19895 0.13224 0.0
C67 C 0.03055 0.23665 0.18871 0.0
C68 C 0.02072 0.22091 0.2484 0.0
C69 C 0.02604 0.19454 0.24997 0.0
C70 C 0.04134 0.18381 0.19257 0.0
N71 N 0.02587 0.26369 0.18766 0.0
H72 H 0.2616 0.00834 0.0746 0.0
H73 H 0.27258 0.96646 0.2863 0.0
H74 H 0.33633 0.98049 0.13499 0.0
H75 H 0.2308 0.94956 0.23745 0.0
C76 C 0.22306 0.96896 0.23589 0.0
C77 C 0.27393 0.99787 0.11348 0.0
C78 C 0.3001 0.99512 0.09628 0.0
C79 C 0.26361 0.98651 0.18039 0.0
C80 C 0.28 0.97389 0.23228 0.0
C81 C 0.30619 0.97158 0.21571 0.0
C82 C 0.31592 0.98172 0.14704 0.0
N83 N 0.237 0.98872 0.19662 0.0
H84 H 0.46336 0.26206 0.09269 0.0
H85 H 0.50992 0.26917 0.2977 0.0
H86 H 0.47678 0.33645 0.19836 0.0
H87 H 0.52993 0.23336 0.22819 0.0
C88 C 0.5117 0.22286 0.22706 0.0
C89 C 0.47183 0.27385 0.13796 0.0
C90 C 0.46793 0.30069 0.13908 0.0
C91 C 0.48707 0.26228 0.19482 0.0
C92 C 0.49847 0.27777 0.25276 0.0
C93 C 0.49431 0.30439 0.25444 0.0
C94 C 0.47908 0.31563 0.19797 0.0
N95 N 0.48985 0.23501 0.19518 0.0
O96 O 0.0713 0.99519 0.64537 0.0
Zn97 Zn 0.04704 0.99707 0.73584 0.0
O98 O 0.01097 0.99523 0.7017 0.0
Zn99 Zn 0.99319 0.0257 0.73648 0.0
Zn100 Zn 0.00941 0.99277 0.58933 0.0
Zn101 Zn 0.99318 0.9656 0.7463 0.0
O102 O 0.96046 0.01749 0.7927 0.0
O103 O 0.95959 0.97473 0.79778 0.0
O104 O 0.05466 0.03091 0.7922 0.0
O105 O 0.01564 0.0474 0.80449 0.0
O106 O 0.98462 0.04785 0.64677 0.0
O107 O 0.99197 0.02383 0.54311 0.0
O108 O 0.9939 0.95854 0.55494 0.0
O109 O 0.05468 0.96702 0.80701 0.0
O110 O 0.98645 0.93836 0.66553 0.0
O111 O 0.01585 0.9493 0.824 0.0
C112 C 0.06769 0.99388 0.57288 0.0
C113 C 0.94944 0.99645 0.81255 0.0
C114 C 0.98444 0.04481 0.57403 0.0
C115 C 0.03965 0.0482 0.81786 0.0
C116 C 0.98708 0.93836 0.59219 0.0
C117 C 0.03972 0.95061 0.83932 0.0
O118 O 0.04513 0.99307 0.54475 0.0
O119 O 0.50105 0.06497 0.6267 0.0
Zn120 Zn 0.5005 0.03957 0.7152 0.0
O121 O 0.50428 0.00371 0.67726 0.0
Zn122 Zn 0.47461 0.98266 0.70589 0.0
Zn123 Zn 0.50774 0.00372 0.56514 0.0
Zn124 Zn 0.53435 0.98779 0.72279 0.0
O125 O 0.48378 0.95197 0.7703 0.0
O126 O 0.5262 0.95435 0.77793 0.0
O127 O 0.46642 0.04373 0.77159 0.0
O128 O 0.44971 0.0039 0.76475 0.0
O129 O 0.45577 0.96958 0.61309 0.0
O130 O 0.47894 0.9836 0.51392 0.0
O131 O 0.54242 0.99069 0.53264 0.0
O132 O 0.52987 0.04942 0.78743 0.0
O133 O 0.56172 0.9816 0.64297 0.0
O134 O 0.54997 0.01195 0.79941 0.0
C135 C 0.50322 0.06217 0.55401 0.0
C136 C 0.50501 0.94294 0.79348 0.0
C137 C 0.45951 0.97141 0.54091 0.0
C138 C 0.44848 0.0274 0.78573 0.0
C139 C 0.56212 0.98342 0.56984 0.0
C140 C 0.54731 0.03561 0.81733 0.0
O141 O 0.50579 0.03989 0.52392 0.0
O142 O 0.44044 0.50178 0.64146 0.0
Zn143 Zn 0.46444 0.50014 0.73279 0.0
O144 O 0.50068 0.50427 0.70047 0.0
Zn145 Zn 0.52059 0.47537 0.73742 0.0
Zn146 Zn 0.50255 0.50612 0.58812 0.0
Zn147 Zn 0.51611 0.53541 0.74418 0.0
O148 O 0.55159 0.48625 0.79998 0.0
O149 O 0.54891 0.52891 0.8024 0.0
O150 O 0.45858 0.46572 0.7873 0.0
O151 O 0.49865 0.45227 0.80253 0.0
O152 O 0.53189 0.45341 0.64881 0.0
O153 O 0.52083 0.47516 0.54422 0.0
O154 O 0.51815 0.54008 0.55286 0.0
O155 O 0.45455 0.52921 0.80576 0.0
O156 O 0.52318 0.56193 0.66215 0.0
O157 O 0.49152 0.551 0.81794 0.0
C158 C 0.4443 0.50406 0.56928 0.0
C159 C 0.56035 0.50827 0.82094 0.0
C160 C 0.53082 0.45548 0.57584 0.0
C161 C 0.47461 0.44965 0.81405 0.0
C162 C 0.52387 0.56089 0.58888 0.0
C163 C 0.46802 0.54742 0.83549 0.0
O164 O 0.46698 0.50567 0.54205 0.0
O165 O 0.97302 0.54172 0.53958 0.0
Zn166 Zn 0.00732 0.53845 0.59644 0.0
O167 O 0.01131 0.50318 0.63801 0.0
Zn168 Zn 0.01388 0.5047 0.75018 0.0
Zn169 Zn 0.98209 0.4815 0.60869 0.0
Zn170 Zn 0.04203 0.48689 0.59713 0.0
O171 O 0.04905 0.4941 0.78634 0.0
O172 O 0.06878 0.48178 0.67934 0.0
O173 O 0.00758 0.56497 0.68272 0.0
O174 O 0.00891 0.54102 0.78862 0.0
O175 O 0.98635 0.48293 0.80034 0.0
O176 O 0.96428 0.46682 0.70151 0.0
O177 O 0.99203 0.45219 0.53888 0.0
O178 O 0.03691 0.54747 0.52445 0.0
O179 O 0.03464 0.45292 0.5432 0.0
O180 O 0.05821 0.51046 0.52001 0.0
C181 C 0.95471 0.5254 0.52967 0.0
C182 C 0.0689 0.48574 0.75177 0.0
C183 C 0.96787 0.46922 0.7737 0.0
C184 C 0.00749 0.56292 0.75588 0.0
C185 C 0.01359 0.4426 0.52081 0.0
C186 C 0.05513 0.53369 0.49852 0.0
O187 O 0.95603 0.50227 0.55346 0.0
C188 C 0.1859 0.95356 0.31329 0.0
C189 C 0.19907 0.9742 0.27844 0.0
C190 C 0.16398 0.95773 0.35834 0.0
C191 C 0.15513 0.98323 0.36918 0.0
C192 C 0.16809 0.00415 0.3329 0.0
C193 C 0.18995 0.99938 0.2877 0.0
C194 C 0.15061 0.93488 0.39558 0.0
C195 C 0.1592 0.03159 0.34326 0.0
C196 C 0.08652 0.98957 0.44048 0.0
C197 C 0.09012 0.99265 0.52019 0.0
C198 C 0.10752 0.98716 0.39033 0.0
C199 C 0.13275 0.98789 0.4205 0.0
C200 C 0.13657 0.99163 0.50053 0.0
C201 C 0.11523 0.99393 0.5494 0.0
C202 C 0.10268 0.98315 0.30533 0.0
C203 C 0.16321 0.99258 0.53483 0.0
H204 H 0.19298 0.93409 0.30607 0.0
H205 H 0.20013 0.01541 0.26101 0.0
H206 H 0.15143 0.93687 0.45919 0.0
H207 H 0.13004 0.93429 0.379 0.0
H208 H 0.15939 0.91621 0.37907 0.0
H209 H 0.17075 0.04556 0.30869 0.0
H210 H 0.13874 0.03313 0.32638 0.0
H211 H 0.16059 0.03719 0.40488 0.0
H212 H 0.06723 0.98862 0.41717 0.0
H213 H 0.11826 0.99642 0.61076 0.0
H214 H 0.10952 0.96381 0.28757 0.0
H215 H 0.11363 0.99769 0.27128 0.0
H216 H 0.082 0.98454 0.29043 0.0
H217 H 0.17265 0.9737 0.52614 0.0
H218 H 0.16297 0.99701 0.59749 0.0
H219 H 0.17516 0.00743 0.50521 0.0
C220 C 0.48591 0.18513 0.27755 0.0
C221 C 0.50965 0.19781 0.26763 0.0
C222 C 0.48395 0.16246 0.32166 0.0
C223 C 0.50625 0.15229 0.35631 0.0
C224 C 0.53033 0.16472 0.34468 0.0
C225 C 0.53171 0.18736 0.30058 0.0
C226 C 0.45795 0.14971 0.33269 0.0
C227 C 0.55458 0.15441 0.38019 0.0
C228 C 0.49989 0.11004 0.53418 0.0
C229 C 0.50316 0.08521 0.50322 0.0
C230 C 0.50044 0.13199 0.48681 0.0
C231 C 0.50439 0.12908 0.40653 0.0
C232 C 0.5074 0.10409 0.37473 0.0
C233 C 0.50672 0.08248 0.42338 0.0
C234 C 0.49712 0.15834 0.52283 0.0
C235 C 0.51172 0.10021 0.28944 0.0
H236 H 0.46877 0.19316 0.25229 0.0
H237 H 0.55006 0.19719 0.29292 0.0
H238 H 0.4586 0.12915 0.31462 0.0
H239 H 0.45268 0.15004 0.39463 0.0
H240 H 0.44267 0.15945 0.29946 0.0
H241 H 0.57191 0.1658 0.36319 0.0
H242 H 0.55295 0.15479 0.44392 0.0
H243 H 0.5573 0.13399 0.3627 0.0
H244 H 0.49707 0.1124 0.59566 0.0
H245 H 0.50924 0.06341 0.3987 0.0
H246 H 0.48092 0.16843 0.49509 0.0
H247 H 0.51467 0.17032 0.51322 0.0
H248 H 0.49341 0.15726 0.58577 0.0
H249 H 0.49593 0.10905 0.25623 0.0
H250 H 0.51287 0.07945 0.27344 0.0
H251 H 0.52984 0.11006 0.27173 0.0
C252 C 0.32868 0.55564 0.32174 0.0
C253 C 0.31487 0.53704 0.27944 0.0
C254 C 0.35006 0.54885 0.36597 0.0
C255 C 0.35775 0.52273 0.36836 0.0
C256 C 0.34406 0.50385 0.32487 0.0
C257 C 0.32276 0.51124 0.2807 0.0
C258 C 0.36421 0.56962 0.41103 0.0
C259 C 0.35167 0.47581 0.32603 0.0
C260 C 0.42592 0.51171 0.43779 0.0
C261 C 0.42203 0.50642 0.51632 0.0
C262 C 0.40513 0.51619 0.38833 0.0
C263 C 0.37979 0.51529 0.41789 0.0
C264 C 0.37566 0.50904 0.49634 0.0
C265 C 0.3968 0.50472 0.54459 0.0
C266 C 0.41035 0.52282 0.30506 0.0
C267 C 0.34892 0.50778 0.53 0.0
H268 H 0.32258 0.57559 0.32077 0.0
H269 H 0.31209 0.49675 0.24825 0.0
H270 H 0.3632 0.56527 0.47352 0.0
H271 H 0.3848 0.57002 0.39459 0.0
H272 H 0.35619 0.58912 0.40135 0.0
H273 H 0.33955 0.46365 0.28727 0.0
H274 H 0.37205 0.47394 0.30838 0.0
H275 H 0.34999 0.46817 0.38549 0.0
H276 H 0.4453 0.51302 0.41513 0.0
H277 H 0.39352 0.50053 0.60497 0.0
H278 H 0.40463 0.54304 0.29386 0.0
H279 H 0.39872 0.51017 0.26649 0.0
H280 H 0.43095 0.52082 0.28965 0.0
H281 H 0.34028 0.52725 0.52853 0.0
H282 H 0.34882 0.50086 0.59052 0.0
H283 H 0.33647 0.49472 0.49503 0.0
C284 C 0.99234 0.3051 0.33069 0.0
C285 C 0.00697 0.30037 0.2646 0.0
C286 C 0.9946 0.3286 0.37062 0.0
C287 C 0.01128 0.34819 0.34213 0.0
C288 C 0.02573 0.34371 0.27424 0.0
C289 C 0.02371 0.31961 0.23683 0.0
C290 C 0.97936 0.33231 0.44385 0.0
C291 C 0.04307 0.36443 0.24082 0.0
C292 C 0.99549 0.41535 0.41483 0.0
C293 C 0.01404 0.41912 0.47235 0.0
C294 C 0.99518 0.39288 0.36934 0.0
C295 C 0.01332 0.37334 0.38364 0.0
C296 C 0.03225 0.37717 0.44129 0.0
C297 C 0.03265 0.40026 0.48414 0.0
C298 C 0.97518 0.38988 0.30689 0.0
C299 C 0.05143 0.35648 0.45982 0.0
H300 H 0.97952 0.29008 0.3523 0.0
H301 H 0.0349 0.31596 0.18532 0.0
H302 H 0.99248 0.33746 0.49204 0.0
H303 H 0.96586 0.34852 0.4369 0.0
H304 H 0.96816 0.31472 0.45999 0.0
H305 H 0.05242 0.35814 0.18649 0.0
H306 H 0.03185 0.38206 0.22911 0.0
H307 H 0.05823 0.36987 0.28292 0.0
H308 H 0.98128 0.4301 0.40504 0.0
H309 H 0.04694 0.40314 0.52886 0.0
H310 H 0.96145 0.37414 0.32223 0.0
H311 H 0.98441 0.3844 0.25165 0.0
H312 H 0.96421 0.40788 0.29799 0.0
H313 H 0.04114 0.33891 0.48059 0.0
H314 H 0.0654 0.3628 0.50463 0.0
H315 H 0.06218 0.35094 0.40727 0.0
C316 C 0.80264 0.00366 0.93156 0.0
C317 C 0.79836 0.00691 0.01061 0.0
C318 C 0.82754 0.00073 0.90231 0.0
C319 C 0.84868 0.00099 0.95352 0.0
C320 C 0.84442 0.00371 0.03376 0.0
C321 C 0.81925 0.0067 0.06145 0.0
C322 C 0.83125 0.99795 0.81637 0.0
C323 C 0.86649 0.004 0.09008 0.0
C324 C 0.91132 0.97468 0.87482 0.0
C325 C 0.9242 0.99744 0.85223 0.0
C326 C 0.887 0.97554 0.9098 0.0
C327 C 0.87525 0.99971 0.92228 0.0
C328 C 0.88835 0.02275 0.90111 0.0
C329 C 0.91264 0.02135 0.86648 0.0
C330 C 0.87362 0.95056 0.9319 0.0
C331 C 0.87646 0.04891 0.91333 0.0
H332 H 0.78646 0.0038 0.89228 0.0
H333 H 0.81602 0.00915 0.1227 0.0
H334 H 0.84278 0.01453 0.7943 0.0
H335 H 0.84206 0.98014 0.80333 0.0
H336 H 0.81272 0.99712 0.78473 0.0
H337 H 0.85986 0.00484 0.15088 0.0
H338 H 0.87828 0.98648 0.08223 0.0
H339 H 0.87917 0.02099 0.07892 0.0
H340 H 0.92011 0.95612 0.86441 0.0
H341 H 0.9224 0.03908 0.84959 0.0
H342 H 0.85586 0.948 0.89731 0.0
H343 H 0.8678 0.95118 0.99337 0.0
H344 H 0.88596 0.93349 0.92259 0.0
H345 H 0.85864 0.05031 0.87866 0.0
H346 H 0.88963 0.06504 0.89678 0.0
H347 H 0.87099 0.05141 0.97465 0.0
C348 C 0.49987 0.81787 0.06924 0.0
C349 C 0.5013 0.79575 0.02268 0.0
C350 C 0.50155 0.8427 0.03674 0.0
C351 C 0.50463 0.84532 0.956 0.0
C352 C 0.50657 0.82298 0.90919 0.0
C353 C 0.50491 0.79849 0.94318 0.0
C354 C 0.4995 0.86609 0.08845 0.0
C355 C 0.50981 0.82492 0.82289 0.0
C356 C 0.48174 0.90542 0.85369 0.0
C357 C 0.50495 0.91859 0.83851 0.0
C358 C 0.48134 0.88193 0.89376 0.0
C359 C 0.50469 0.87129 0.91949 0.0
C360 C 0.52813 0.88475 0.90612 0.0
C361 C 0.52799 0.90822 0.86569 0.0
C362 C 0.45595 0.86814 0.90677 0.0
C363 C 0.55341 0.87404 0.93294 0.0
H364 H 0.49711 0.81583 0.13082 0.0
H365 H 0.50603 0.78136 0.9072 0.0
H366 H 0.51622 0.87927 0.07939 0.0
H367 H 0.48201 0.87701 0.07362 0.0
H368 H 0.49856 0.86081 0.15037 0.0
H369 H 0.51192 0.80569 0.7951 0.0
H370 H 0.49291 0.83453 0.79747 0.0
H371 H 0.52697 0.83697 0.80888 0.0
H372 H 0.46381 0.91328 0.83332 0.0
H373 H 0.54601 0.91828 0.85468 0.0
H374 H 0.45329 0.86391 0.96889 0.0
H375 H 0.45578 0.84937 0.87569 0.0
H376 H 0.4394 0.87962 0.88659 0.0
H377 H 0.55252 0.86961 0.99538 0.0
H378 H 0.56972 0.88765 0.9225 0.0
H379 H 0.55729 0.85566 0.90227 0.0
C380 C 0.7008 0.51272 8e-05 0.0
C381 C 0.70134 0.51332 0.08092 0.0
C382 C 0.6775 0.51311 0.95973 0.0
C383 C 0.6541 0.51411 0.00108 0.0
C384 C 0.65452 0.51542 0.08265 0.0
C385 C 0.67819 0.51508 0.12165 0.0
C386 C 0.67792 0.51184 0.87277 0.0
C387 C 0.62995 0.51654 0.12871 0.0
C388 C 0.5951 0.53394 0.88775 0.0
C389 C 0.58402 0.50986 0.86861 0.0
C390 C 0.61759 0.53566 0.93225 0.0
C391 C 0.62927 0.51278 0.95854 0.0
C392 C 0.61796 0.48845 0.94055 0.0
C393 C 0.59555 0.48728 0.89571 0.0
C394 C 0.62913 0.56195 0.94991 0.0
C395 C 0.62979 0.4636 0.96764 0.0
H396 H 0.7186 0.51162 0.96795 0.0
H397 H 0.67858 0.51558 0.18408 0.0
H398 H 0.66815 0.49384 0.85288 0.0
H399 H 0.66727 0.52831 0.84831 0.0
H400 H 0.69777 0.51223 0.84918 0.0
H401 H 0.63359 0.51876 0.19145 0.0
H402 H 0.61812 0.53291 0.10904 0.0
H403 H 0.61849 0.49857 0.11919 0.0
H404 H 0.58635 0.55151 0.86733 0.0
H405 H 0.58709 0.46859 0.88177 0.0
H406 H 0.64844 0.56367 0.92316 0.0
H407 H 0.63168 0.56436 0.01298 0.0
H408 H 0.61708 0.57791 0.9283 0.0
H409 H 0.64917 0.46154 0.94191 0.0
H410 H 0.61799 0.44633 0.95186 0.0
H411 H 0.63221 0.46402 0.03113 0.0
C412 C 0.98194 0.69545 0.97899 0.0
C413 C 0.00081 0.70072 0.03443 0.0
C414 C 0.98216 0.67242 0.93606 0.0
C415 C 0.00225 0.65466 0.94714 0.0
C416 C 0.02134 0.65988 0.00346 0.0
C417 C 0.0202 0.68274 0.04725 0.0
C418 C 0.96104 0.66725 0.8782 0.0
C419 C 0.04342 0.64175 0.01567 0.0
C420 C 0.99406 0.58535 0.87678 0.0
C421 C 0.00592 0.58643 0.80426 0.0
C422 C 0.99245 0.60747 0.92356 0.0
C423 C 0.00367 0.63103 0.89817 0.0
C424 C 0.01599 0.63212 0.82539 0.0
C425 C 0.01661 0.60989 0.77878 0.0
C426 C 0.97849 0.6057 -0.00031 0.0
C427 C 0.02873 0.65671 0.79706 0.0
H428 H 0.96696 0.70941 0.96921 0.0
H429 H 0.03501 0.68697 0.08948 0.0
H430 H 0.96919 0.66692 0.81916 0.0
H431 H 0.95207 0.64801 0.88876 0.0
H432 H 0.94586 0.68211 0.88051 0.0
H433 H 0.05654 0.64847 0.06225 0.0
H434 H 0.03607 0.62216 0.0304 0.0
H435 H 0.05463 0.63995 0.96153 0.0
H436 H 0.98561 0.56727 0.89639 0.0
H437 H 0.026 0.61071 0.72304 0.0
H438 H 0.96266 0.61984 0.0012 0.0
H439 H 0.99176 0.61073 0.04754 0.0
H440 H 0.97031 0.58608 0.01023 0.0
H441 H 0.01426 0.67209 0.79108 0.0
H442 H 0.03842 0.65405 0.7406 0.0
H443 H 0.04316 0.66362 0.83967 0.0
C444 C 0.9882 0.17279 0.31072 0.0
C445 C 0.01476 0.1773 0.30866 0.0
C446 C 0.97776 0.1526 0.35525 0.0
C447 C 0.9944 0.1369 0.39869 0.0
C448 C 0.02111 0.14253 0.40016 0.0
C449 C 0.03098 0.16256 0.35454 0.0
C450 C 0.94925 0.14712 0.35202 0.0
C451 C 0.03948 0.12656 0.44687 0.0
C452 C 0.97552 0.09186 0.55989 0.0
C453 C 0.97979 0.06771 0.5252 0.0
C454 C 0.97801 0.11478 0.51764 0.0
C455 C 0.98463 0.11346 0.43877 0.0
C456 C 0.98606 0.08911 0.40157 0.0
C457 C 0.98368 0.06647 0.44534 0.0
C458 C 0.97611 0.14035 0.55928 0.0
C459 C 0.9925 0.08695 0.31698 0.0
H460 H 0.97578 0.18409 0.27417 0.0
H461 H 0.05154 0.16615 0.35238 0.0
H462 H 0.94563 0.1295 0.31687 0.0
H463 H 0.94143 0.14336 0.41045 0.0
H464 H 0.9386 0.16335 0.3259 0.0
H465 H 0.05933 0.1347 0.44616 0.0
H466 H 0.03289 0.12529 0.50756 0.0
H467 H 0.03996 0.10659 0.42345 0.0
H468 H 0.97208 0.09307 0.62139 0.0
H469 H 0.98662 0.04792 0.41773 0.0
H470 H 0.96626 0.13831 0.61578 0.0
H471 H 0.96568 0.15462 0.52404 0.0
H472 H 0.99573 0.14826 0.56966 0.0
H473 H 0.98107 0.10074 0.28282 0.0
H474 H 0.98894 0.06711 0.29439 0.0
H475 H 0.01309 0.09194 0.30815 0.0
C476 C 0.32774 0.97564 0.34228 0.0
C477 C 0.32449 0.96196 0.27329 0.0
C478 C 0.34952 0.97194 0.38804 0.0
C479 C 0.36811 0.95375 0.36466 0.0
C480 C 0.36353 0.93806 0.29904 0.0
C481 C 0.34189 0.94264 0.25328 0.0
C482 C 0.35377 0.98925 0.45726 0.0
C483 C 0.38241 0.91784 0.27384 0.0
C484 C 0.43568 0.97474 0.41718 0.0
C485 C 0.43886 0.96256 0.4884 0.0
C486 C 0.41317 0.97095 0.37421 0.0
C487 C 0.39369 0.95406 0.40237 0.0
C488 C 0.39781 0.93992 0.4707 0.0
C489 C 0.42025 0.94459 0.51355 0.0
C490 C 0.40944 0.98657 0.30176 0.0
C491 C 0.37791 0.92105 0.50101 0.0
H492 H 0.31437 0.99076 0.35704 0.0
H493 H 0.33927 0.9321 0.19969 0.0
H494 H 0.35895 0.97767 0.50839 0.0
H495 H 0.37002 0.00279 0.44558 0.0
H496 H 0.33653 0.00076 0.4714 0.0
H497 H 0.37363 0.90389 0.23246 0.0
H498 H 0.39906 0.92738 0.24528 0.0
H499 H 0.38978 0.90706 0.32415 0.0
H500 H 0.44995 0.98868 0.39751 0.0
H501 H 0.42276 0.93489 0.56824 0.0
H502 H 0.39354 0.00034 0.31048 0.0
H503 H 0.40399 0.97374 0.25299 0.0
H504 H 0.427 0.99771 0.28545 0.0
H505 H 0.36979 0.90907 0.45356 0.0
H506 H 0.36187 0.93184 0.52742 0.0
H507 H 0.38601 0.90808 0.54542 0.0
C508 C 0.48949 0.33505 0.36277 0.0
C509 C 0.50574 0.32124 0.31407 0.0
C510 C 0.49906 0.35526 0.4086 0.0
C511 C 0.52551 0.36197 0.40473 0.0
C512 C 0.5423 0.34702 0.35901 0.0
C513 C 0.53215 0.32669 0.31397 0.0
C514 C 0.48051 0.37044 0.45744 0.0
C515 C 0.57057 0.35351 0.35356 0.0
C516 C 0.5328 0.43305 0.44812 0.0
C517 C 0.53693 0.43259 0.52793 0.0
C518 C 0.53161 0.41004 0.40526 0.0
C519 C 0.53457 0.38609 0.44325 0.0
C520 C 0.54162 0.38571 0.52185 0.0
C521 C 0.5428 0.40901 0.5633 0.0
C522 C 0.52461 0.41128 0.32097 0.0
C523 C 0.54534 0.3606 0.56414 0.0
H524 H 0.46904 0.33075 0.36217 0.0
H525 H 0.54458 0.31609 0.27533 0.0
H526 H 0.48767 0.37209 0.51744 0.0
H527 H 0.47889 0.39032 0.43433 0.0
H528 H 0.46102 0.36143 0.45864 0.0
H529 H 0.58163 0.33732 0.32843 0.0
H530 H 0.57332 0.3707 0.31624 0.0
H531 H 0.57861 0.35839 0.41104 0.0
H532 H 0.52869 0.45118 0.41991 0.0
H533 H 0.54645 0.40842 0.62474 0.0
H534 H 0.50428 0.40502 0.31345 0.0
H535 H 0.53666 0.398 0.28662 0.0
H536 H 0.52688 0.43114 0.29753 0.0
H537 H 0.52628 0.35176 0.57701 0.0
H538 H 0.55571 0.3636 0.61943 0.0
H539 H 0.55612 0.34667 0.52827 0.0
C540 C 0.16969 0.57541 0.21782 0.0
C541 C 0.18997 0.56059 0.24621 0.0
C542 C 0.14701 0.57831 0.26045 0.0
C543 C 0.14485 0.56643 0.33343 0.0
C544 C 0.16662 0.55473 0.36672 0.0
C545 C 0.18894 0.5518 0.32244 0.0
C546 C 0.12446 0.59136 0.22338 0.0
C547 C 0.16536 0.5425 0.44547 0.0
C548 C 0.08565 0.56921 0.46155 0.0
C549 C 0.07457 0.54488 0.44641 0.0
C550 C 0.10801 0.57736 0.42248 0.0
C551 C 0.11907 0.56085 0.36667 0.0
C552 C 0.10661 0.5372 0.34714 0.0
C553 C 0.08469 0.5294 0.38792 0.0
C554 C 0.12069 0.60265 0.44501 0.0
C555 C 0.11732 0.51928 0.28646 0.0
H556 H 0.17069 0.58287 0.15958 0.0
H557 H 0.20453 0.54045 0.34511 0.0
H558 H 0.11138 0.5764 0.19851 0.0
H559 H 0.11336 0.60254 0.26631 0.0
H560 H 0.13069 0.6045 0.17624 0.0
H561 H 0.18479 0.53853 0.46857 0.0
H562 H 0.15511 0.55513 0.48672 0.0
H563 H 0.15452 0.52391 0.44168 0.0
H564 H 0.07791 0.58107 0.50741 0.0
H565 H 0.07595 0.51066 0.37605 0.0
H566 H 0.1288 0.61276 0.39404 0.0
H567 H 0.13678 0.5988 0.48501 0.0
H568 H 0.10703 0.61567 0.47464 0.0
H569 H 0.10406 0.50283 0.27348 0.0
H570 H 0.13583 0.51138 0.30657 0.0
H571 H 0.12115 0.52999 0.23229 0.0
C572 C 0.07339 0.83253 0.11377 0.0
C573 C 0.05531 0.81399 0.08839 0.0
C574 C 0.07827 0.85502 0.07104 0.0
C575 C 0.06499 0.85876 0.00107 0.0
C576 C 0.04956 0.83848 0.97024 0.0
C577 C 0.04476 0.81634 0.01455 0.0
C578 C 0.09529 0.87592 0.10521 0.0
C579 C 0.03561 0.84141 0.89463 0.0
C580 C 0.0353 0.92272 0.9539 0.0
C581 C 0.05004 0.93081 0.89085 0.0
C582 C 0.04132 0.90024 0.99405 0.0
C583 C 0.06233 0.88519 0.96933 0.0
C584 C 0.07844 0.89427 0.90917 0.0
C585 C 0.07216 0.91721 0.8707 0.0
C586 C 0.024 0.89165 0.05934 0.0
C587 C 0.10103 0.87887 0.88129 0.0
H588 H 0.08216 0.83044 0.16999 0.0
H589 H 0.03088 0.80209 0.99418 0.0
H590 H 0.10667 0.88592 0.0599 0.0
H591 H 0.08313 0.89055 0.13387 0.0
H592 H 0.10862 0.86802 0.14886 0.0
H593 H 0.02817 0.82257 0.8725 0.0
H594 H 0.0191 0.85448 0.90278 0.0
H595 H 0.04844 0.85017 0.85054 0.0
H596 H 0.01829 0.93341 0.96963 0.0
H597 H 0.08345 0.92341 0.82142 0.0
H598 H 0.03554 0.8866 0.11066 0.0
H599 H 0.01299 0.87409 0.04174 0.0
H600 H 0.01012 0.90679 0.07613 0.0
H601 H 0.11116 0.86965 0.92996 0.0
H602 H 0.11493 0.89113 0.84873 0.0
H603 H 0.09403 0.86324 0.84239 0.0
C604 C 0.66381 0.07449 0.09439 0.0
C605 C 0.68256 0.05746 0.06714 0.0
C606 C 0.64125 0.07867 0.05238 0.0
C607 C 0.63762 0.06573 0.98125 0.0
C608 C 0.65804 0.05154 0.94871 0.0
C609 C 0.68024 0.04743 0.99228 0.0
C610 C 0.62022 0.09446 0.0883 0.0
C611 C 0.65524 0.03802 0.87189 0.0
C612 C 0.57496 0.03245 0.93221 0.0
C613 C 0.56645 0.0471 0.86996 0.0
C614 C 0.59707 0.03966 0.973 0.0
C615 C 0.61131 0.06184 0.94979 0.0
C616 C 0.60171 0.07784 0.89067 0.0
C617 C 0.57917 0.07031 0.85146 0.0
C618 C 0.6062 0.02235 0.03708 0.0
C619 C 0.61621 0.10168 0.8645 0.0
H620 H 0.66584 0.08295 0.15134 0.0
H621 H 0.6946 0.03435 0.97034 0.0
H622 H 0.60984 0.10568 0.04409 0.0
H623 H 0.6061 0.08129 0.11646 0.0
H624 H 0.62793 0.10799 0.13271 0.0
H625 H 0.67406 0.03169 0.84884 0.0
H626 H 0.64265 0.02069 0.87867 0.0
H627 H 0.64615 0.05086 0.82911 0.0
H628 H 0.56494 0.01458 0.94665 0.0
H629 H 0.57264 0.08153 0.80281 0.0
H630 H 0.61095 0.03394 0.08916 0.0
H631 H 0.62394 0.0124 0.01865 0.0
H632 H 0.59161 0.00743 0.05296 0.0
H633 H 0.62531 0.11197 0.91379 0.0
H634 H 0.60345 0.11522 0.83371 0.0
H635 H 0.63172 0.09591 0.82435 0.0
C636 C 0.45625 0.67998 0.01146 0.0
C637 C 0.44726 0.68198 0.08739 0.0
C638 C 0.45133 0.65769 0.96761 0.0
C639 C 0.43737 0.63687 0.00096 0.0
C640 C 0.42521 0.64028 0.07307 0.0
C641 C 0.43021 0.66294 0.11544 0.0
C642 C 0.46399 0.65516 0.8897 0.0
C643 C 0.40953 0.61887 0.10964 0.0
C644 C 0.43308 0.57786 0.87083 0.0
C645 C 0.45641 0.56612 0.88857 0.0
C646 C 0.42531 0.60013 0.91082 0.0
C647 C 0.44125 0.61045 0.96979 0.0
C648 C 0.46354 0.59704 0.99241 0.0
C649 C 0.47094 0.57518 0.95097 0.0
C650 C 0.40129 0.61363 0.88553 0.0
C651 C 0.48082 0.60693 0.0563 0.0
H652 H 0.4693 0.69459 0.98878 0.0
H653 H 0.42249 0.66475 0.17322 0.0
H654 H 0.48123 0.6429 0.89498 0.0
H655 H 0.45078 0.64571 0.84785 0.0
H656 H 0.47015 0.67424 0.86639 0.0
H657 H 0.39632 0.62648 0.15433 0.0
H658 H 0.39815 0.60805 0.06586 0.0
H659 H 0.42264 0.60504 0.13767 0.0
H660 H 0.4219 0.57085 0.8222 0.0
H661 H 0.48887 0.56586 0.96493 0.0
H662 H 0.40651 0.62895 0.84355 0.0
H663 H 0.39146 0.62297 0.93484 0.0
H664 H 0.38765 0.59998 0.8569 0.0
H665 H 0.49039 0.62521 0.03803 0.0
H666 H 0.49592 0.59288 0.07155 0.0
H667 H 0.46942 0.61116 0.10875 0.0
C668 C 0.83794 0.47884 0.96608 0.0
C669 C 0.83254 0.46551 0.03429 0.0
C670 C 0.85991 0.4733 0.9229 0.0
C671 C 0.87655 0.4536 0.94802 0.0
C672 C 0.86981 0.4384 0.01276 0.0
C673 C 0.848 0.4448 0.05598 0.0
C674 C 0.86646 0.49013 0.85445 0.0
C675 C 0.88652 0.41663 0.03964 0.0
C676 C 0.92862 0.44229 0.80073 0.0
C677 C 0.94768 0.45966 0.82679 0.0
C678 C 0.90613 0.43798 0.84368 0.0
C679 C 0.90248 0.45186 0.91306 0.0
C680 C 0.92264 0.46757 0.94293 0.0
C681 C 0.94515 0.47103 0.89978 0.0
C682 C 0.88551 0.42019 0.81174 0.0
C683 C 0.91951 0.48277 0.01677 0.0
H684 H 0.8261 0.49501 0.94978 0.0
H685 H 0.84367 0.4344 0.10865 0.0
H686 H 0.88386 0.50198 0.86753 0.0
H687 H 0.87085 0.47804 0.80339 0.0
H688 H 0.85061 0.50334 0.83935 0.0
H689 H 0.87574 0.40301 0.07749 0.0
H690 H 0.89441 0.40573 0.99001 0.0
H691 H 0.90297 0.42468 0.07292 0.0
H692 H 0.93065 0.43307 0.7449 0.0
H693 H 0.95984 0.48434 0.92062 0.0
H694 H 0.87049 0.43184 0.78356 0.0
H695 H 0.87616 0.40888 0.85845 0.0
H696 H 0.89336 0.40661 0.76826 0.0
H697 H 0.9049 0.49791 0.00833 0.0
H698 H 0.93774 0.49231 0.03536 0.0
H699 H 0.91261 0.47002 0.06383 0.0
C700 C 0.08174 0.1662 0.084 0.0
C701 C 0.06368 0.18528 0.06754 0.0
C702 C 0.08501 0.14511 0.03424 0.0
C703 C 0.0702 0.14352 0.9661 0.0
C704 C 0.05557 0.16504 0.94303 0.0
C705 C 0.0523 0.18574 0.99454 0.0
C706 C 0.10124 0.12289 0.06053 0.0
C707 C 0.04044 0.16461 0.86899 0.0
C708 C 0.07198 0.08395 0.83615 0.0
C709 C 0.04993 0.07057 0.86122 0.0
C710 C 0.07932 0.10764 0.87028 0.0
C711 C 0.06447 0.11772 0.93156 0.0
C712 C 0.04298 0.10342 0.95948 0.0
C713 C 0.03581 0.08024 0.92322 0.0
C714 C 0.10203 0.12242 0.83788 0.0
C715 C 0.02698 0.11296 0.02626 0.0
H716 H 0.09091 0.16612 0.14008 0.0
H717 H 0.03851 0.20058 0.98125 0.0
H718 H 0.08862 0.10794 0.08722 0.0
H719 H 0.1113 0.1138 0.0113 0.0
H720 H 0.11568 0.12921 0.10399 0.0
H721 H 0.03485 0.18437 0.85138 0.0
H722 H 0.05167 0.15566 0.82183 0.0
H723 H 0.02266 0.15285 0.87715 0.0
H724 H 0.08268 0.0766 0.78733 0.0
H725 H 0.0188 0.0698 0.94263 0.0
H726 H 0.11482 0.10969 0.80389 0.0
H727 H 0.11343 0.13193 0.88417 0.0
H728 H 0.09499 0.13781 0.79924 0.0
H729 H 0.03941 0.11731 0.07667 0.0
H730 H 0.01203 0.09865 0.04406 0.0
H731 H 0.01731 0.13112 0.01001 0.0
C732 C 0.32407 0.99069 0.97452 0.0
C733 C 0.31234 0.00693 0.02818 0.0
C734 C 0.3437 1.0 0.92651 0.0
C735 C 0.3517 0.02623 0.93258 0.0
C736 C 0.33786 0.04334 0.98049 0.0
C737 C 0.31832 0.0334 0.02838 0.0
C738 C 0.35775 0.98106 0.87583 0.0
C739 C 0.34532 0.07152 0.98701 0.0
C740 C 0.42351 0.03002 0.90605 0.0
C741 C 0.42534 0.03516 0.82733 0.0
C742 C 0.39956 0.02949 0.943 0.0
C743 C 0.37701 0.03403 0.89959 0.0
C744 C 0.37911 0.04157 0.82149 0.0
C745 C 0.40336 0.04179 0.78591 0.0
C746 C 0.39825 0.0215 0.02656 0.0
C747 C 0.35566 0.04705 0.77364 0.0
H748 H 0.31949 0.97018 0.97517 0.0
H749 H 0.30938 0.04586 0.07067 0.0
H750 H 0.36051 0.98904 0.81717 0.0
H751 H 0.37706 0.97751 0.90033 0.0
H752 H 0.34734 0.96223 0.87102 0.0
H753 H 0.32939 0.08315 0.01096 0.0
H754 H 0.36207 0.07363 0.02608 0.0
H755 H 0.35097 0.07951 0.93012 0.0
H756 H 0.44059 0.02454 0.93739 0.0
H757 H 0.40489 0.04539 0.72455 0.0
H758 H 0.38982 0.00173 0.03075 0.0
H759 H 0.38568 0.03466 0.05958 0.0
H760 H 0.41751 0.02149 0.05406 0.0
H761 H 0.34665 0.02851 0.75497 0.0
H762 H 0.36065 0.05836 0.72131 0.0
H763 H 0.34119 0.05778 0.8076 0.0
C764 C 0.46489 0.31286 0.00087 0.0
C765 C 0.455 0.31451 0.07572 0.0
C766 C 0.46103 0.33294 0.94804 0.0
C767 C 0.4473 0.35508 0.97154 0.0
C768 C 0.43398 0.35478 0.0426 0.0
C769 C 0.43786 0.33433 0.09381 0.0
C770 C 0.47462 0.33203 0.87134 0.0
C771 C 0.41875 0.37771 0.06956 0.0
C772 C 0.4811 0.41761 0.91759 0.0
C773 C 0.46567 0.42693 0.8582 0.0
C774 C 0.47477 0.39468 0.95596 0.0
C775 C 0.45267 0.38027 0.93322 0.0
C776 C 0.43661 0.38985 0.87433 0.0
C777 C 0.44321 0.41329 0.83779 0.0
C778 C 0.49215 0.38563 0.01992 0.0
C779 C 0.41319 0.3749 0.84747 0.0
H780 H 0.47797 0.29745 0.98642 0.0
H781 H 0.42983 0.33534 0.1514 0.0
H782 H 0.46263 0.34058 0.82547 0.0
H783 H 0.49275 0.34351 0.87496 0.0
H784 H 0.47945 0.31192 0.85474 0.0
H785 H 0.40527 0.37236 0.11674 0.0
H786 H 0.43217 0.39285 0.09159 0.0
H787 H 0.40768 0.38617 0.02152 0.0
H788 H 0.49838 0.42825 0.93371 0.0
H789 H 0.43143 0.42035 0.79113 0.0
H790 H 0.50103 0.36704 0.0034 0.0
H791 H 0.48087 0.38223 0.07328 0.0
H792 H 0.50777 0.39981 0.03306 0.0
H793 H 0.41935 0.35867 0.81017 0.0
H794 H 0.40002 0.3872 0.8137 0.0
H795 H 0.40246 0.36646 0.89679 0.0
C796 C 0.19582 0.52859 0.94871 0.0
C797 C 0.20535 0.51252 0.00636 0.0
C798 C 0.17653 0.51981 0.89846 0.0
C799 C 0.16654 0.49434 0.90649 0.0
C800 C 0.17818 0.47718 0.95898 0.0
C801 C 0.19748 0.48655 0.0088 0.0
C802 C 0.16487 0.53874 0.84298 0.0
C803 C 0.1685 0.44976 0.96821 0.0
C804 C 0.09477 0.49158 0.87214 0.0
C805 C 0.0934 0.48355 0.79497 0.0
C806 C 0.11843 0.49381 0.91024 0.0
C807 C 0.14135 0.48763 0.87056 0.0
C808 C 0.13998 0.47776 0.79455 0.0
C809 C 0.11603 0.47595 0.75746 0.0
C810 C 0.11899 0.50434 0.99159 0.0
C811 C 0.1639 0.47049 0.75083 0.0
H812 H 0.20179 0.54876 0.94767 0.0
H813 H 0.20464 0.47425 0.05421 0.0
H814 H 0.16203 0.5297 0.78555 0.0
H815 H 0.14573 0.54456 0.86465 0.0
H816 H 0.177 0.55642 0.83618 0.0
H817 H 0.18278 0.43755 0.99788 0.0
H818 H 0.15064 0.44973 0.00314 0.0
H819 H 0.16381 0.44096 0.91148 0.0
H820 H 0.07746 0.49733 0.90195 0.0
H821 H 0.11521 0.4695 0.69803 0.0
H822 H 0.12887 0.52349 0.99231 0.0
H823 H 0.12996 0.49135 0.02968 0.0
H824 H 0.09942 0.50663 0.01601 0.0
H825 H 0.17424 0.48831 0.73234 0.0
H826 H 0.15934 0.45878 0.69873 0.0
H827 H 0.17711 0.45946 0.78804 0.0
C828 C 0.02935 0.81362 0.38803 0.0
C829 C 0.01206 0.8013 0.33777 0.0
C830 C 0.02113 0.83299 0.43859 0.0
C831 C 0.99498 0.84018 0.43865 0.0
C832 C 0.977 0.82582 0.39403 0.0
C833 C 0.98579 0.80648 0.34378 0.0
C834 C 0.04095 0.84755 0.48584 0.0
C835 C 0.9489 0.83251 0.39357 0.0
C836 C 0.97906 0.89037 0.59081 0.0
C837 C 0.98365 0.91346 0.55023 0.0
C838 C 0.98091 0.8662 0.55418 0.0
C839 C 0.98765 0.86509 0.47529 0.0
C840 C 0.99041 0.88831 0.43281 0.0
C841 C 0.98829 0.91218 0.47069 0.0
C842 C 0.97738 0.84193 0.60121 0.0
C843 C 0.99743 0.88801 0.34831 0.0
H844 H 0.04967 0.80961 0.38302 0.0
H845 H 0.97245 0.79711 0.30433 0.0
H846 H 0.04403 0.8671 0.46106 0.0
H847 H 0.03419 0.85007 0.54595 0.0
H848 H 0.05969 0.83754 0.48683 0.0
H849 H 0.93689 0.8165 0.36953 0.0
H850 H 0.94206 0.83709 0.45254 0.0
H851 H 0.94608 0.8499 0.35751 0.0
H852 H 0.97525 0.89108 0.65218 0.0
H853 H 0.99167 0.92982 0.43855 0.0
H854 H 0.99645 0.83373 0.61425 0.0
H855 H 0.96626 0.82708 0.56863 0.0
H856 H 0.96742 0.8458 0.65661 0.0
H857 H 0.01714 0.88046 0.34116 0.0
H858 H 0.99678 0.90756 0.32219 0.0
H859 H 0.98421 0.87498 0.31592 0.0
C860 C 0.68489 0.02954 0.36458 0.0
C861 C 0.69677 0.01263 0.31295 0.0
C862 C 0.66627 0.02051 0.41653 0.0
C863 C 0.65943 0.99392 0.41667 0.0
C864 C 0.67354 0.97637 0.37095 0.0
C865 C 0.6921 0.98598 0.3192 0.0
C866 C 0.65196 0.0399 0.46493 0.0
C867 C 0.66728 0.94782 0.37082 0.0
C868 C 0.60981 0.97669 0.56897 0.0
C869 C 0.58687 0.98063 0.52829 0.0
C870 C 0.6338 0.97908 0.53227 0.0
C871 C 0.63482 0.98571 0.45333 0.0
C872 C 0.61173 0.98774 0.41079 0.0
C873 C 0.58807 0.98506 0.4487 0.0
C874 C 0.65795 0.97624 0.57926 0.0
C875 C 0.61193 0.99462 0.32623 0.0
H876 H 0.68861 0.05015 0.35965 0.0
H877 H 0.7012 0.97291 0.27893 0.0
H878 H 0.63237 0.04233 0.44115 0.0
H879 H 0.64988 0.03297 0.52501 0.0
H880 H 0.66178 0.0591 0.46582 0.0
H881 H 0.6833 0.93638 0.34657 0.0
H882 H 0.66298 0.94088 0.42991 0.0
H883 H 0.64996 0.94416 0.33501 0.0
H884 H 0.60914 0.97302 0.63038 0.0
H885 H 0.57051 0.98785 0.41646 0.0
H886 H 0.66578 0.99569 0.59391 0.0
H887 H 0.6729 0.96591 0.54612 0.0
H888 H 0.6542 0.96568 0.63385 0.0
H889 H 0.61948 0.01463 0.31892 0.0
H890 H 0.59246 0.99343 0.3002 0.0
H891 H 0.62477 0.98156 0.29383 0.0
C892 C 0.52237 0.68998 0.33097 0.0
C893 C 0.49595 0.69469 0.32788 0.0
C894 C 0.53212 0.67127 0.38127 0.0
C895 C 0.51494 0.65703 0.42875 0.0
C896 C 0.48866 0.66372 0.43124 0.0
C897 C 0.47951 0.68253 0.38081 0.0
C898 C 0.56033 0.66515 0.37819 0.0
C899 C 0.46967 0.64922 0.48142 0.0
C900 C 0.52264 0.58559 0.46536 0.0
C901 C 0.52747 0.58524 0.54483 0.0
C902 C 0.5203 0.609 0.42571 0.0
C903 C 0.52313 0.63268 0.46628 0.0
C904 C 0.53034 0.63248 0.54481 0.0
C905 C 0.5323 0.60875 0.58333 0.0
C906 C 0.51274 0.60831 0.34168 0.0
C907 C 0.53415 0.65728 0.58962 0.0
H908 H 0.53507 0.69926 0.28963 0.0
H909 H 0.45908 0.68625 0.37831 0.0
H910 H 0.56788 0.661 0.43654 0.0
H911 H 0.56314 0.64766 0.34217 0.0
H912 H 0.57175 0.68128 0.35265 0.0
H913 H 0.45065 0.65868 0.48316 0.0
H914 H 0.46695 0.62929 0.4587 0.0
H915 H 0.47702 0.64766 0.54112 0.0
H916 H 0.51909 0.56759 0.4348 0.0
H917 H 0.53636 0.60873 0.64457 0.0
H918 H 0.52552 0.62122 0.30752 0.0
H919 H 0.49285 0.61544 0.33532 0.0
H920 H 0.51356 0.58852 0.31689 0.0
H921 H 0.54478 0.67186 0.55486 0.0
H922 H 0.54473 0.65407 0.64423 0.0
H923 H 0.51515 0.66545 0.60405 0.0
C924 C 0.8248 0.53497 0.28498 0.0
C925 C 0.81767 0.50877 0.28147 0.0
C926 C 0.84454 0.54347 0.33469 0.0
C927 C 0.85739 0.52524 0.38098 0.0
C928 C 0.84814 0.49937 0.38372 0.0
C929 C 0.82833 0.49148 0.33398 0.0
C930 C 0.85329 0.57135 0.33171 0.0
C931 C 0.86106 0.47926 0.4326 0.0
C932 C 0.92944 0.52752 0.40959 0.0
C933 C 0.93125 0.53255 0.48852 0.0
C934 C 0.90549 0.52702 0.37255 0.0
C935 C 0.88286 0.53164 0.41586 0.0
C936 C 0.8849 0.5387 0.49453 0.0
C937 C 0.90913 0.53877 0.53026 0.0
C938 C 0.90426 0.51937 0.28854 0.0
C939 C 0.86141 0.54421 0.54245 0.0
H940 H 0.81674 0.5483 0.2438 0.0
H941 H 0.82288 0.4712 0.33076 0.0
H942 H 0.85855 0.57856 0.38994 0.0
H943 H 0.87061 0.57301 0.29468 0.0
H944 H 0.83822 0.58392 0.30734 0.0
H945 H 0.84968 0.46097 0.43541 0.0
H946 H 0.8802 0.47493 0.40787 0.0
H947 H 0.86411 0.48657 0.49204 0.0
H948 H 0.94657 0.52225 0.37796 0.0
H949 H 0.9106 0.54221 0.59177 0.0
H950 H 0.89239 0.53316 0.25587 0.0
H951 H 0.89504 0.49998 0.28298 0.0
H952 H 0.92361 0.51866 0.26162 0.0
H953 H 0.84736 0.55567 0.50942 0.0
H954 H 0.86644 0.5548 0.59627 0.0
H955 H 0.85187 0.5257 0.55854 0.0
loop_
_geom_bond_atom_site_label_1
_geom_bond_atom_site_label_2
_geom_bond_distance
_geom_bond_site_symmetry_2
_ccdc_geom_bond_type
H0 C5 0.930 . S
H1 C8 0.930 . S
H2 C10 0.930 . S
H3 C4 1.016 . S
C4 H3 1.016 . S
C4 N11 1.286 1_556 S
C5 H0 0.930 . S
C5 C6 1.397 . S
C5 C7 1.361 . S
C6 C5 1.397 . S
C6 C10 1.390 . S
C7 C5 1.361 . S
C7 C8 1.393 1_554 S
C7 N11 1.413 . S
C8 H1 0.930 . S
C8 C7 1.393 1_556 S
C8 C9 1.399 . S
C9 C8 1.399 . S
C9 C10 1.381 1_556 S
C10 H2 0.930 . S
C10 C6 1.390 . S
C10 C9 1.381 1_554 S
N11 C4 1.286 1_554 S
N11 C7 1.413 . S
H12 C17 0.930 . S
H13 C20 0.930 . S
H14 C22 0.930 . S
H15 C16 1.006 1_556 S
C16 H15 1.006 1_554 S
C16 N23 1.286 1_655 S
C17 H12 0.930 . S
C17 C18 1.397 . S
C17 C19 1.361 . S
C18 C17 1.397 . S
C18 C22 1.390 1_455 S
C19 C17 1.361 . S
C19 C20 1.393 . S
C19 N23 1.413 . S
C20 H13 0.930 . S
C20 C19 1.393 . S
C20 C21 1.399 . S
C21 C20 1.399 . S
C21 C22 1.381 1_455 S
C22 H14 0.930 . S
C22 C18 1.390 1_655 S
C22 C21 1.381 1_655 S
N23 C16 1.286 1_455 S
N23 C19 1.413 . S
H24 C29 0.930 . S
H25 C32 0.930 1_556 S
H26 C34 0.930 . S
H27 C28 1.016 1_556 S
C28 H27 1.016 1_554 S
C28 N35 1.286 1_565 S
C29 H24 0.930 . S
C29 C30 1.397 . S
C29 C31 1.361 . S
C30 C29 1.397 . S
C30 C34 1.390 1_545 S
C31 C29 1.361 . S
C31 C32 1.393 . S
C31 N35 1.413 . S
C32 H25 0.930 1_554 S
C32 C31 1.393 . S
C32 C33 1.404 . S
C33 C32 1.404 . S
C33 C34 1.378 1_545 S
C34 H26 0.930 . S
C34 C30 1.390 1_565 S
C34 C33 1.378 1_565 S
N35 C28 1.286 1_545 S
N35 C31 1.413 . S
H36 C41 0.930 . S
H37 C44 0.930 . S
H38 C46 0.930 . S
H39 C40 1.016 . S
C40 H39 1.016 . S
C40 N47 1.286 1_556 S
C41 H36 0.930 . S
C41 C42 1.397 . S
C41 C43 1.361 . S
C42 C41 1.397 . S
C42 C46 1.390 . S
C43 C41 1.361 . S
C43 C44 1.393 1_554 S
C43 N47 1.413 . S
C44 H37 0.930 . S
C44 C43 1.393 1_556 S
C44 C45 1.399 . S
C45 C44 1.399 . S
C45 C46 1.381 1_556 S
C46 H38 0.930 . S
C46 C42 1.390 . S
C46 C45 1.381 1_554 S
N47 C40 1.286 1_554 S
N47 C43 1.413 . S
H48 C53 0.930 . S
H49 C56 0.930 . S
H50 C58 0.930 . S
H51 C52 1.016 . S
C52 H51 1.016 . S
C52 N59 1.286 . S
C53 H48 0.930 . S
C53 C54 1.397 . S
C53 C55 1.361 . S
C54 C53 1.397 . S
C54 C58 1.390 . S
C55 C53 1.361 . S
C55 C56 1.393 . S
C55 N59 1.413 . S
C56 H49 0.930 . S
C56 C55 1.393 . S
C56 C57 1.399 . S
C57 C56 1.399 . S
C57 C58 1.381 . S
C58 H50 0.930 . S
C58 C54 1.390 . S
C58 C57 1.381 . S
N59 C52 1.286 . S
N59 C55 1.413 . S
H60 C65 0.930 . S
H61 C68 0.930 . S
H62 C70 0.930 . S
H63 C64 1.016 . S
C64 H63 1.016 . S
C64 N71 1.286 . S
C65 H60 0.930 . S
C65 C66 1.397 . S
C65 C67 1.361 . S
C66 C65 1.397 . S
C66 C70 1.390 . S
C67 C65 1.361 . S
C67 C68 1.393 . S
C67 N71 1.413 . S
C68 H61 0.930 . S
C68 C67 1.393 . S
C68 C69 1.399 . S
C69 C68 1.399 . S
C69 C70 1.381 . S
C70 H62 0.930 . S
C70 C66 1.390 . S
C70 C69 1.381 . S
N71 C64 1.286 . S
N71 C67 1.413 . S
H72 C77 0.930 . S
H73 C80 0.930 . S
H74 C82 0.930 . S
H75 C76 1.016 . S
C76 H75 1.016 . S
C76 N83 1.286 . S
C77 H72 0.930 . S
C77 C78 1.397 . S
C77 C79 1.361 . S
C78 C77 1.397 . S
C78 C82 1.390 . S
C79 C77 1.361 . S
C79 C80 1.393 . S
C79 N83 1.413 . S
C80 H73 0.930 . S
C80 C79 1.393 . S
C80 C81 1.399 . S
C81 C80 1.399 . S
C81 C82 1.381 . S
C82 H74 0.930 . S
C82 C78 1.390 . S
C82 C81 1.381 . S
N83 C76 1.286 . S
N83 C79 1.413 . S
H84 C89 0.930 . S
H85 C92 0.930 . S
H86 C94 0.930 . S
H87 C88 1.016 . S
C88 H87 1.016 . S
C88 N95 1.286 . S
C89 H84 0.930 . S
C89 C90 1.397 . S
C89 C91 1.361 . S
C90 C89 1.397 . S
C90 C94 1.390 . S
C91 C89 1.361 . S
C91 C92 1.393 . S
C91 N95 1.413 . S
C92 H85 0.930 . S
C92 C91 1.393 . S
C92 C93 1.399 . S
C93 C92 1.399 . S
C93 C94 1.381 . S
C94 H86 0.930 . S
C94 C90 1.390 . S
C94 C93 1.381 . S
N95 C88 1.286 . S
N95 C91 1.413 . S
O96 Zn97 1.956 . S
O96 C112 1.225 1_545 S
Zn97 O96 1.956 . S
Zn97 O98 1.948 1_545 S
Zn97 O104 1.949 . S
Zn97 O109 1.888 1_545 S
O98 Zn97 1.948 1_565 S
O98 Zn99 1.901 1_465 S
O98 Zn100 1.952 . S
O98 Zn101 1.965 1_455 S
Zn99 O98 1.901 1_645 S
Zn99 O102 1.933 . S
Zn99 O105 1.941 1_655 S
Zn99 O106 1.965 . S
Zn100 O98 1.952 . S
Zn100 O107 1.938 1_565 S
Zn100 O108 1.906 . S
Zn100 O118 1.953 . S
Zn101 O98 1.965 1_655 S
Zn101 O103 1.932 . S
Zn101 O110 1.977 . S
Zn101 O111 1.910 1_655 S
O102 Zn99 1.933 . S
O102 C113 1.226 . S
O103 Zn101 1.932 . S
O103 C113 1.307 1_565 S
O104 Zn97 1.949 . S
O104 C115 1.253 . S
O105 Zn99 1.941 1_455 S
O105 C115 1.283 . S
O106 Zn99 1.965 . S
O106 C114 1.303 1_655 S
O107 Zn100 1.938 1_545 S
O107 C114 1.247 . S
O108 Zn100 1.906 . S
O108 C116 1.304 1_455 S
O109 Zn97 1.888 1_565 S
O109 C117 1.311 . S
O110 Zn101 1.977 . S
O110 C116 1.272 . S
O111 Zn101 1.910 1_455 S
O111 C117 1.231 . S
C112 O96 1.225 1_565 S
C112 O118 1.298 . S
C113 O102 1.226 . S
C113 O103 1.307 1_545 S
C114 O106 1.303 1_455 S
C114 O107 1.247 . S
C115 O104 1.253 . S
C115 O105 1.283 . S
C116 O108 1.304 1_655 S
C116 O110 1.272 . S
C117 O109 1.311 . S
C117 O111 1.231 . S
O118 Zn100 1.953 . S
O118 C112 1.298 . S
O119 Zn120 1.953 . S
O119 C135 1.225 . S
Zn120 O119 1.953 . S
Zn120 O121 1.949 . S
Zn120 O127 1.919 . S
Zn120 O132 1.924 . S
O121 Zn120 1.949 . S
O121 Zn122 1.923 1_545 S
O121 Zn123 1.950 . S
O121 Zn124 1.945 1_545 S
Zn122 O121 1.923 1_565 S
Zn122 O125 1.933 . S
Zn122 O128 1.941 . S
Zn122 O129 1.965 . S
Zn123 O121 1.950 . S
Zn123 O130 1.938 . S
Zn123 O131 1.906 . S
Zn123 O141 1.953 . S
Zn124 O121 1.945 1_565 S
Zn124 O126 1.932 . S
Zn124 O133 1.977 . S
Zn124 O134 1.910 1_565 S
O125 Zn122 1.933 . S
O125 C136 1.226 . S
O126 Zn124 1.932 . S
O126 C136 1.307 . S
O127 Zn120 1.919 . S
O127 C138 1.253 . S
O128 Zn122 1.941 . S
O128 C138 1.283 1_565 S
O129 Zn122 1.965 . S
O129 C137 1.303 1_565 S
O130 Zn123 1.938 . S
O130 C137 1.247 . S
O131 Zn123 1.906 . S
O131 C139 1.304 1_545 S
O132 Zn120 1.924 . S
O132 C140 1.311 . S
O133 Zn124 1.977 . S
O133 C139 1.272 . S
O134 Zn124 1.910 1_545 S
O134 C140 1.231 . S
C135 O119 1.225 . S
C135 O141 1.298 . S
C136 O125 1.226 . S
C136 O126 1.307 . S
C137 O129 1.303 1_545 S
C137 O130 1.247 . S
C138 O127 1.253 . S
C138 O128 1.283 1_545 S
C139 O131 1.304 1_565 S
C139 O133 1.272 . S
C140 O132 1.311 . S
C140 O134 1.231 . S
O141 Zn123 1.953 . S
O141 C135 1.298 . S
O142 Zn143 1.953 . S
O142 C158 1.225 . S
Zn143 O142 1.953 . S
Zn143 O144 1.949 . S
Zn143 O150 1.919 . S
Zn143 O155 1.924 . S
O144 Zn143 1.949 . S
O144 Zn145 1.923 . S
O144 Zn146 1.950 . S
O144 Zn147 1.945 . S
Zn145 O144 1.923 . S
Zn145 O148 1.933 . S
Zn145 O151 1.941 . S
Zn145 O152 1.965 . S
Zn146 O144 1.950 . S
Zn146 O153 1.938 . S
Zn146 O154 1.906 . S
Zn146 O164 1.953 . S
Zn147 O144 1.945 . S
Zn147 O149 1.932 . S
Zn147 O156 1.977 . S
Zn147 O157 1.910 . S
O148 Zn145 1.933 . S
O148 C159 1.226 . S
O149 Zn147 1.932 . S
O149 C159 1.307 . S
O150 Zn143 1.919 . S
O150 C161 1.253 . S
O151 Zn145 1.941 . S
O151 C161 1.283 . S
O152 Zn145 1.965 . S
O152 C160 1.303 . S
O153 Zn146 1.938 . S
O153 C160 1.247 . S
O154 Zn146 1.906 . S
O154 C162 1.304 . S
O155 Zn143 1.924 . S
O155 C163 1.311 . S
O156 Zn147 1.977 . S
O156 C162 1.272 . S
O157 Zn147 1.910 . S
O157 C163 1.231 . S
C158 O142 1.225 . S
C158 O164 1.298 . S
C159 O148 1.226 . S
C159 O149 1.307 . S
C160 O152 1.303 . S
C160 O153 1.247 . S
C161 O150 1.253 . S
C161 O151 1.283 . S
C162 O154 1.304 . S
C162 O156 1.272 . S
C163 O155 1.311 . S
C163 O157 1.231 . S
O164 Zn146 1.953 . S
O164 C158 1.298 . S
O165 Zn166 1.921 1_655 S
O165 C181 1.225 . S
Zn166 O165 1.921 1_455 S
Zn166 O167 1.949 . S
Zn166 O173 1.919 . S
Zn166 O178 1.958 . S
O167 Zn166 1.949 . S
O167 Zn168 1.918 1_455 S
O167 Zn169 1.929 1_455 S
O167 Zn170 1.973 . S
Zn168 O167 1.918 1_655 S
Zn168 O171 1.933 1_655 S
Zn168 O174 1.941 . S
Zn168 O175 1.965 . S
Zn169 O167 1.929 1_655 S
Zn169 O176 1.938 . S
Zn169 O177 1.906 . S
Zn169 O187 1.953 . S
Zn170 O167 1.973 . S
Zn170 O172 1.932 . S
Zn170 O179 1.977 . S
Zn170 O180 1.910 . S
O171 Zn168 1.933 1_455 S
O171 C182 1.226 . S
O172 Zn170 1.932 . S
O172 C182 1.307 . S
O173 Zn166 1.919 . S
O173 C184 1.253 . S
O174 Zn168 1.941 . S
O174 C184 1.284 1_655 S
O175 Zn168 1.965 . S
O175 C183 1.303 . S
O176 Zn169 1.938 . S
O176 C183 1.247 . S
O177 Zn169 1.906 . S
O177 C185 1.304 1_655 S
O178 Zn166 1.958 . S
O178 C186 1.311 . S
O179 Zn170 1.977 . S
O179 C185 1.272 . S
O180 Zn170 1.910 . S
O180 C186 1.231 . S
C181 O165 1.225 . S
C181 O187 1.298 . S
C182 O171 1.226 . S
C182 O172 1.307 . S
C183 O175 1.303 . S
C183 O176 1.247 . S
C184 O173 1.253 . S
C184 O174 1.284 1_455 S
C185 O177 1.304 1_455 S
C185 O179 1.272 . S
C186 O178 1.311 . S
C186 O180 1.231 . S
O187 Zn169 1.953 . S
O187 C181 1.298 . S
C188 C189 1.391 1_565 S
C188 C190 1.394 . S
C188 H204 0.931 . S
C189 C188 1.391 1_545 S
C189 C193 1.376 . S
C190 C188 1.394 . S
C190 C191 1.369 . S
C190 C194 1.531 . S
C191 C190 1.369 . S
C191 C192 1.410 1_565 S
C191 C199 1.503 . S
C192 C191 1.410 1_545 S
C192 C193 1.392 . S
C192 C195 1.511 . S
C193 C189 1.376 . S
C193 C192 1.392 . S
C193 H205 0.929 . S
C194 C190 1.531 . S
C194 H206 0.960 . S
C194 H207 0.962 . S
C194 H208 0.960 . S
C195 C192 1.511 . S
C195 H209 0.961 . S
C195 H210 0.961 . S
C195 H211 0.961 . S
C196 C197 1.370 1_545 S
C196 C198 1.363 . S
C196 H212 0.931 . S
C197 C196 1.370 1_565 S
C197 C201 1.408 . S
C198 C196 1.363 . S
C198 C199 1.370 1_545 S
C198 C202 1.524 . S
C199 C191 1.503 . S
C199 C198 1.370 1_565 S
C199 C200 1.403 . S
C200 C199 1.403 . S
C200 C201 1.404 . S
C200 C203 1.539 . S
C201 C197 1.408 . S
C201 C200 1.404 . S
C201 H213 0.930 . S
C202 C198 1.524 . S
C202 H214 0.956 . S
C202 H215 0.961 . S
C202 H216 0.961 . S
C203 C200 1.539 . S
C203 H217 0.958 . S
C203 H218 0.961 . S
C203 H219 0.960 . S
H204 C188 0.931 . S
H205 C193 0.929 . S
H206 C194 0.960 . S
H207 C194 0.962 . S
H208 C194 0.960 . S
H209 C195 0.961 . S
H210 C195 0.961 . S
H211 C195 0.961 . S
H212 C196 0.931 . S
H213 C201 0.930 . S
H214 C202 0.956 . S
H215 C202 0.961 . S
H216 C202 0.961 . S
H217 C203 0.958 . S
H218 C203 0.961 . S
H219 C203 0.960 . S
C220 C221 1.391 . S
C220 C222 1.394 . S
C220 H236 0.931 . S
C221 C220 1.391 . S
C221 C225 1.376 . S
C222 C220 1.394 . S
C222 C223 1.369 . S
C222 C226 1.531 . S
C223 C222 1.369 . S
C223 C224 1.410 . S
C223 C231 1.503 . S
C224 C223 1.410 . S
C224 C225 1.392 . S
C224 C227 1.511 . S
C225 C221 1.376 . S
C225 C224 1.392 . S
C225 H237 0.929 . S
C226 C222 1.531 . S
C226 H238 0.960 . S
C226 H239 0.962 . S
C226 H240 0.960 . S
C227 C224 1.511 . S
C227 H241 0.961 . S
C227 H242 0.961 . S
C227 H243 0.961 . S
C228 C229 1.370 . S
C228 C230 1.363 . S
C228 H244 0.931 . S
C229 C228 1.370 . S
C229 C233 1.408 . S
C230 C228 1.363 . S
C230 C231 1.370 . S
C230 C234 1.524 . S
C231 C223 1.503 . S
C231 C230 1.370 . S
C231 C232 1.403 . S
C232 C231 1.403 . S
C232 C233 1.404 . S
C232 C235 1.539 . S
C233 C229 1.408 . S
C233 C232 1.404 . S
C233 H245 0.930 . S
C234 C230 1.524 . S
C234 H246 0.956 . S
C234 H247 0.961 . S
C234 H248 0.961 . S
C235 C232 1.539 . S
C235 H249 0.958 . S
C235 H250 0.961 . S
C235 H251 0.960 . S
H236 C220 0.931 . S
H237 C225 0.929 . S
H238 C226 0.960 . S
H239 C226 0.962 . S
H240 C226 0.960 . S
H241 C227 0.961 . S
H242 C227 0.961 . S
H243 C227 0.961 . S
H244 C228 0.931 . S
H245 C233 0.930 . S
H246 C234 0.956 . S
H247 C234 0.961 . S
H248 C234 0.961 . S
H249 C235 0.958 . S
H250 C235 0.961 . S
H251 C235 0.960 . S
C252 C253 1.391 . S
C252 C254 1.394 . S
C252 H268 0.931 . S
C253 C252 1.391 . S
C253 C257 1.376 . S
C254 C252 1.394 . S
C254 C255 1.369 . S
C254 C258 1.531 . S
C255 C254 1.369 . S
C255 C256 1.410 . S
C255 C263 1.503 . S
C256 C255 1.410 . S
C256 C257 1.392 . S
C256 C259 1.511 . S
C257 C253 1.376 . S
C257 C256 1.392 . S
C257 H269 0.929 . S
C258 C254 1.531 . S
C258 H270 0.960 . S
C258 H271 0.962 . S
C258 H272 0.960 . S
C259 C256 1.511 . S
C259 H273 0.961 . S
C259 H274 0.961 . S
C259 H275 0.961 . S
C260 C261 1.370 . S
C260 C262 1.363 . S
C260 H276 0.931 . S
C261 C260 1.370 . S
C261 C265 1.408 . S
C262 C260 1.363 . S
C262 C263 1.370 . S
C262 C266 1.524 . S
C263 C255 1.503 . S
C263 C262 1.370 . S
C263 C264 1.403 . S
C264 C263 1.403 . S
C264 C265 1.404 . S
C264 C267 1.539 . S
C265 C261 1.408 . S
C265 C264 1.404 . S
C265 H277 0.930 . S
C266 C262 1.524 . S
C266 H278 0.956 . S
C266 H279 0.961 . S
C266 H280 0.961 . S
C267 C264 1.539 . S
C267 H281 0.958 . S
C267 H282 0.961 . S
C267 H283 0.960 . S
H268 C252 0.931 . S
H269 C257 0.929 . S
H270 C258 0.960 . S
H271 C258 0.962 . S
H272 C258 0.960 . S
H273 C259 0.961 . S
H274 C259 0.961 . S
H275 C259 0.961 . S
H276 C260 0.931 . S
H277 C265 0.930 . S
H278 C266 0.956 . S
H279 C266 0.961 . S
H280 C266 0.961 . S
H281 C267 0.958 . S
H282 C267 0.961 . S
H283 C267 0.960 . S
C284 C285 1.391 . S
C284 C286 1.394 . S
C284 H300 0.931 . S
C285 C284 1.391 . S
C285 C289 1.376 . S
C286 C284 1.394 . S
C286 C287 1.369 . S
C286 C290 1.531 1_455 S
C287 C286 1.369 . S
C287 C288 1.410 . S
C287 C295 1.503 . S
C288 C287 1.410 . S
C288 C289 1.392 . S
C288 C291 1.511 . S
C289 C285 1.376 . S
C289 C288 1.392 . S
C289 H301 0.929 . S
C290 C286 1.531 1_655 S
C290 H302 0.960 . S
C290 H303 0.962 . S
C290 H304 0.960 . S
C291 C288 1.511 . S
C291 H305 0.961 . S
C291 H306 0.961 . S
C291 H307 0.961 . S
C292 C293 1.370 . S
C292 C294 1.363 . S
C292 H308 0.931 1_455 S
C293 C292 1.370 . S
C293 C297 1.408 . S
C294 C292 1.363 . S
C294 C295 1.370 . S
C294 C298 1.531 . S
C295 C287 1.503 . S
C295 C294 1.370 . S
C295 C296 1.403 . S
C296 C295 1.403 . S
C296 C297 1.404 . S
C296 C299 1.539 . S
C297 C293 1.408 . S
C297 C296 1.404 . S
C297 H309 0.930 . S
C298 C294 1.531 . S
C298 H310 0.942 1_455 S
C298 H311 0.978 . S
C298 H312 0.951 1_455 S
C299 C296 1.539 . S
C299 H313 0.958 . S
C299 H314 0.961 . S
C299 H315 0.960 . S
H300 C284 0.931 . S
H301 C289 0.929 . S
H302 C290 0.960 . S
H303 C290 0.962 . S
H304 C290 0.960 . S
H305 C291 0.961 . S
H306 C291 0.961 . S
H307 C291 0.961 . S
H308 C292 0.931 1_655 S
H309 C297 0.930 . S
H310 C298 0.942 1_655 S
H311 C298 0.978 . S
H312 C298 0.951 1_655 S
H313 C299 0.958 . S
H314 C299 0.961 . S
H315 C299 0.960 . S
C316 C317 1.391 1_565 S
C316 C318 1.394 . S
C316 H332 0.931 . S
C317 C316 1.391 1_545 S
C317 C321 1.376 1_556 S
C318 C316 1.394 . S
C318 C319 1.369 1_565 S
C318 C322 1.531 . S
C319 C318 1.369 1_545 S
C319 C320 1.410 . S
C319 C327 1.503 . S
C320 C319 1.410 . S
C320 C321 1.392 1_556 S
C320 C323 1.511 1_556 S
C321 C317 1.376 1_554 S
C321 C320 1.392 1_554 S
C321 H333 0.929 . S
C322 C318 1.531 . S
C322 H334 0.960 . S
C322 H335 0.962 . S
C322 H336 0.960 . S
C323 C320 1.511 1_554 S
C323 H337 0.961 . S
C323 H338 0.961 . S
C323 H339 0.961 . S
C324 C325 1.370 1_565 S
C324 C326 1.363 . S
C324 H340 0.931 . S
C325 C324 1.370 1_545 S
C325 C329 1.408 . S
C326 C324 1.363 . S
C326 C327 1.370 1_565 S
C326 C330 1.524 . S
C327 C319 1.503 . S
C327 C326 1.370 1_545 S
C327 C328 1.403 . S
C328 C327 1.403 . S
C328 C329 1.404 . S
C328 C331 1.539 . S
C329 C325 1.408 . S
C329 C328 1.404 . S
C329 H341 0.930 . S
C330 C326 1.524 . S
C330 H342 0.956 . S
C330 H343 0.961 . S
C330 H344 0.961 . S
C331 C328 1.539 . S
C331 H345 0.958 . S
C331 H346 0.961 . S
C331 H347 0.960 . S
H332 C316 0.931 . S
H333 C321 0.929 . S
H334 C322 0.960 . S
H335 C322 0.962 . S
H336 C322 0.960 . S
H337 C323 0.961 . S
H338 C323 0.961 . S
H339 C323 0.961 . S
H340 C324 0.931 . S
H341 C329 0.930 . S
H342 C330 0.956 . S
H343 C330 0.961 . S
H344 C330 0.961 . S
H345 C331 0.958 . S
H346 C331 0.961 . S
H347 C331 0.960 . S
C348 C349 1.391 . S
C348 C350 1.394 . S
C348 H364 0.931 1_556 S
C349 C348 1.391 . S
C349 C353 1.376 . S
C350 C348 1.394 . S
C350 C351 1.369 . S
C350 C354 1.531 . S
C351 C350 1.369 . S
C351 C352 1.410 . S
C351 C359 1.503 . S
C352 C351 1.410 . S
C352 C353 1.392 . S
C352 C355 1.511 . S
C353 C349 1.376 . S
C353 C352 1.392 . S
C353 H365 0.929 . S
C354 C350 1.531 . S
C354 H366 0.960 . S
C354 H367 0.962 . S
C354 H368 0.960 1_556 S
C355 C352 1.511 . S
C355 H369 0.961 . S
C355 H370 0.961 . S
C355 H371 0.961 . S
C356 C357 1.370 . S
C356 C358 1.363 . S
C356 H372 0.931 . S
C357 C356 1.370 . S
C357 C361 1.408 . S
C358 C356 1.363 . S
C358 C359 1.370 . S
C358 C362 1.524 . S
C359 C351 1.503 . S
C359 C358 1.370 . S
C359 C360 1.403 . S
C360 C359 1.403 . S
C360 C361 1.404 . S
C360 C363 1.539 . S
C361 C357 1.408 . S
C361 C360 1.404 . S
C361 H373 0.930 . S
C362 C358 1.524 . S
C362 H374 0.956 . S
C362 H375 0.961 . S
C362 H376 0.961 . S
C363 C360 1.539 . S
C363 H377 0.958 . S
C363 H378 0.961 . S
C363 H379 0.960 . S
H364 C348 0.931 1_554 S
H365 C353 0.929 . S
H366 C354 0.960 . S
H367 C354 0.962 . S
H368 C354 0.960 1_554 S
H369 C355 0.961 . S
H370 C355 0.961 . S
H371 C355 0.961 . S
H372 C356 0.931 . S
H373 C361 0.930 . S
H374 C362 0.956 . S
H375 C362 0.961 . S
H376 C362 0.961 . S
H377 C363 0.958 . S
H378 C363 0.961 . S
H379 C363 0.960 . S
C380 C381 1.391 . S
C380 C382 1.394 . S
C380 H396 0.931 . S
C381 C380 1.391 . S
C381 C385 1.376 . S
C382 C380 1.394 . S
C382 C383 1.369 . S
C382 C386 1.531 . S
C383 C382 1.369 . S
C383 C384 1.410 . S
C383 C391 1.503 . S
C384 C383 1.410 . S
C384 C385 1.392 . S
C384 C387 1.511 . S
C385 C381 1.376 . S
C385 C384 1.392 . S
C385 H397 0.929 1_556 S
C386 C382 1.531 . S
C386 H398 0.960 . S
C386 H399 0.962 . S
C386 H400 0.960 . S
C387 C384 1.511 . S
C387 H401 0.961 . S
C387 H402 0.961 . S
C387 H403 0.954 1_556 S
C388 C389 1.370 . S
C388 C390 1.363 . S
C388 H404 0.931 . S
C389 C388 1.370 . S
C389 C393 1.408 . S
C390 C388 1.363 . S
C390 C391 1.370 . S
C390 C394 1.524 . S
C391 C383 1.503 . S
C391 C390 1.370 . S
C391 C392 1.403 . S
C392 C391 1.403 . S
C392 C393 1.404 . S
C392 C395 1.539 . S
C393 C389 1.408 . S
C393 C392 1.404 . S
C393 H405 0.930 . S
C394 C390 1.524 . S
C394 H406 0.956 . S
C394 H407 0.961 . S
C394 H408 0.961 . S
C395 C392 1.539 . S
C395 H409 0.958 . S
C395 H410 0.961 . S
C395 H411 0.960 . S
H396 C380 0.931 . S
H397 C385 0.929 1_554 S
H398 C386 0.960 . S
H399 C386 0.962 . S
H400 C386 0.960 . S
H401 C387 0.961 . S
H402 C387 0.961 . S
H403 C387 0.954 1_554 S
H404 C388 0.931 . S
H405 C393 0.930 . S
H406 C394 0.956 . S
H407 C394 0.961 . S
H408 C394 0.961 . S
H409 C395 0.958 . S
H410 C395 0.961 . S
H411 C395 0.960 . S
C412 C413 1.381 1_656 S
C412 C414 1.394 . S
C412 H428 0.931 . S
C413 C412 1.381 1_454 S
C413 C417 1.389 . S
C414 C412 1.394 . S
C414 C415 1.369 1_655 S
C414 C418 1.531 . S
C415 C414 1.369 1_455 S
C415 C416 1.410 . S
C415 C423 1.503 . S
C416 C415 1.410 . S
C416 C417 1.392 1_556 S
C416 C419 1.511 1_556 S
C417 C413 1.389 . S
C417 C416 1.392 1_554 S
C417 H429 0.929 . S
C418 C414 1.531 . S
C418 H430 0.960 . S
C418 H431 0.962 . S
C418 H432 0.960 . S
C419 C416 1.511 1_554 S
C419 H433 0.961 . S
C419 H434 0.961 1_554 S
C419 H435 0.961 1_554 S
C420 C421 1.370 1_655 S
C420 C422 1.363 . S
C420 H436 0.931 . S
C421 C420 1.370 1_455 S
C421 C425 1.408 . S
C422 C420 1.363 . S
C422 C423 1.370 1_655 S
C422 C426 1.524 . S
C423 C415 1.503 . S
C423 C422 1.370 1_455 S
C423 C424 1.403 . S
C424 C423 1.403 . S
C424 C425 1.404 . S
C424 C427 1.539 . S
C425 C421 1.408 . S
C425 C424 1.404 . S
C425 H437 0.930 . S
C426 C422 1.524 . S
C426 H438 0.956 . S
C426 H439 0.961 . S
C426 H440 0.961 . S
C427 C424 1.539 . S
C427 H441 0.958 . S
C427 H442 0.961 . S
C427 H443 0.960 . S
H428 C412 0.931 . S
H429 C417 0.929 . S
H430 C418 0.960 . S
H431 C418 0.962 . S
H432 C418 0.960 . S
H433 C419 0.961 . S
H434 C419 0.961 1_556 S
H435 C419 0.961 1_556 S
H436 C420 0.931 . S
H437 C425 0.930 . S
H438 C426 0.956 . S
H439 C426 0.961 . S
H440 C426 0.961 . S
H441 C427 0.958 . S
H442 C427 0.961 . S
H443 C427 0.960 . S
C444 C445 1.391 . S
C444 C446 1.394 . S
C444 H460 0.931 . S
C445 C444 1.391 . S
C445 C449 1.376 . S
C446 C444 1.394 . S
C446 C447 1.369 . S
C446 C450 1.531 1_455 S
C447 C446 1.369 . S
C447 C448 1.410 . S
C447 C455 1.503 . S
C448 C447 1.410 . S
C448 C449 1.392 . S
C448 C451 1.511 . S
C449 C445 1.376 . S
C449 C448 1.392 . S
C449 H461 0.929 . S
C450 C446 1.531 1_655 S
C450 H462 0.960 . S
C450 H463 0.962 . S
C450 H464 0.960 . S
C451 C448 1.511 . S
C451 H465 0.961 . S
C451 H466 0.961 . S
C451 H467 0.961 . S
C452 C453 1.370 . S
C452 C454 1.363 . S
C452 H468 0.931 . S
C453 C452 1.370 . S
C453 C457 1.408 . S
C454 C452 1.363 . S
C454 C455 1.370 . S
C454 C458 1.524 . S
C455 C447 1.503 . S
C455 C454 1.370 . S
C455 C456 1.403 . S
C456 C455 1.403 . S
C456 C457 1.404 . S
C456 C459 1.539 . S
C457 C453 1.408 . S
C457 C456 1.404 . S
C457 H469 0.930 . S
C458 C454 1.524 . S
C458 H470 0.956 . S
C458 H471 0.961 . S
C458 H472 0.961 . S
C459 C456 1.539 . S
C459 H473 0.958 . S
C459 H474 0.961 . S
C459 H475 0.960 . S
H460 C444 0.931 . S
H461 C449 0.929 . S
H462 C450 0.960 . S
H463 C450 0.962 . S
H464 C450 0.960 . S
H465 C451 0.961 . S
H466 C451 0.961 . S
H467 C451 0.961 . S
H468 C452 0.931 . S
H469 C457 0.930 . S
H470 C458 0.956 . S
H471 C458 0.961 . S
H472 C458 0.961 . S
H473 C459 0.958 . S
H474 C459 0.961 . S
H475 C459 0.960 . S
C476 C477 1.391 . S
C476 C478 1.394 . S
C476 H492 0.931 . S
C477 C476 1.391 . S
C477 C481 1.376 . S
C478 C476 1.394 . S
C478 C479 1.369 . S
C478 C482 1.531 . S
C479 C478 1.369 . S
C479 C480 1.410 . S
C479 C487 1.503 . S
C480 C479 1.410 . S
C480 C481 1.392 . S
C480 C483 1.511 . S
C481 C477 1.376 . S
C481 C480 1.392 . S
C481 H493 0.929 . S
C482 C478 1.531 . S
C482 H494 0.960 . S
C482 H495 0.962 . S
C482 H496 0.960 . S
C483 C480 1.511 . S
C483 H497 0.961 1_545 S
C483 H498 0.961 1_545 S
C483 H499 0.961 . S
C484 C485 1.370 1_565 S
C484 C486 1.363 . S
C484 H500 0.931 . S
C485 C484 1.370 1_545 S
C485 C489 1.408 . S
C486 C484 1.363 . S
C486 C487 1.370 1_565 S
C486 C490 1.524 . S
C487 C479 1.503 . S
C487 C486 1.370 1_545 S
C487 C488 1.403 . S
C488 C487 1.403 . S
C488 C489 1.404 . S
C488 C491 1.539 . S
C489 C485 1.408 . S
C489 C488 1.404 . S
C489 H501 0.930 . S
C490 C486 1.524 . S
C490 H502 0.956 . S
C490 H503 0.961 . S
C490 H504 0.961 . S
C491 C488 1.539 . S
C491 H505 0.958 . S
C491 H506 0.961 . S
C491 H507 0.960 . S
H492 C476 0.931 . S
H493 C481 0.929 . S
H494 C482 0.960 . S
H495 C482 0.962 . S
H496 C482 0.960 . S
H497 C483 0.961 1_565 S
H498 C483 0.961 1_565 S
H499 C483 0.961 . S
H500 C484 0.931 . S
H501 C489 0.930 . S
H502 C490 0.956 . S
H503 C490 0.961 . S
H504 C490 0.961 . S
H505 C491 0.958 . S
H506 C491 0.961 . S
H507 C491 0.960 . S
C508 C509 1.391 . S
C508 C510 1.394 . S
C508 H524 0.931 . S
C509 C508 1.391 . S
C509 C513 1.376 . S
C510 C508 1.394 . S
C510 C511 1.369 . S
C510 C514 1.531 . S
C511 C510 1.369 . S
C511 C512 1.410 . S
C511 C519 1.503 . S
C512 C511 1.410 . S
C512 C513 1.392 . S
C512 C515 1.511 . S
C513 C509 1.376 . S
C513 C512 1.392 . S
C513 H525 0.929 . S
C514 C510 1.531 . S
C514 H526 0.960 . S
C514 H527 0.962 . S
C514 H528 0.960 . S
C515 C512 1.511 . S
C515 H529 0.961 . S
C515 H530 0.961 . S
C515 H531 0.961 . S
C516 C517 1.370 . S
C516 C518 1.363 . S
C516 H532 0.931 . S
C517 C516 1.370 . S
C517 C521 1.408 . S
C518 C516 1.363 . S
C518 C519 1.370 . S
C518 C522 1.524 . S
C519 C511 1.503 . S
C519 C518 1.370 . S
C519 C520 1.403 . S
C520 C519 1.403 . S
C520 C521 1.404 . S
C520 C523 1.539 . S
C521 C517 1.408 . S
C521 C520 1.404 . S
C521 H533 0.930 . S
C522 C518 1.524 . S
C522 H534 0.956 . S
C522 H535 0.961 . S
C522 H536 0.961 . S
C523 C520 1.539 . S
C523 H537 0.958 . S
C523 H538 0.961 . S
C523 H539 0.960 . S
H524 C508 0.931 . S
H525 C513 0.929 . S
H526 C514 0.960 . S
H527 C514 0.962 . S
H528 C514 0.960 . S
H529 C515 0.961 . S
H530 C515 0.961 . S
H531 C515 0.961 . S
H532 C516 0.931 . S
H533 C521 0.930 . S
H534 C522 0.956 . S
H535 C522 0.961 . S
H536 C522 0.961 . S
H537 C523 0.958 . S
H538 C523 0.961 . S
H539 C523 0.960 . S
C540 C541 1.391 . S
C540 C542 1.394 . S
C540 H556 0.931 . S
C541 C540 1.391 . S
C541 C545 1.376 . S
C542 C540 1.394 . S
C542 C543 1.369 . S
C542 C546 1.531 . S
C543 C542 1.369 . S
C543 C544 1.410 . S
C543 C551 1.503 . S
C544 C543 1.410 . S
C544 C545 1.392 . S
C544 C547 1.511 . S
C545 C541 1.376 . S
C545 C544 1.392 . S
C545 H557 0.929 . S
C546 C542 1.531 . S
C546 H558 0.960 . S
C546 H559 0.962 . S
C546 H560 0.960 . S
C547 C544 1.511 . S
C547 H561 0.961 . S
C547 H562 0.961 . S
C547 H563 0.961 . S
C548 C549 1.370 . S
C548 C550 1.363 . S
C548 H564 0.931 . S
C549 C548 1.370 . S
C549 C553 1.408 . S
C550 C548 1.363 . S
C550 C551 1.370 . S
C550 C554 1.524 . S
C551 C543 1.503 . S
C551 C550 1.370 . S
C551 C552 1.403 . S
C552 C551 1.403 . S
C552 C553 1.404 . S
C552 C555 1.539 . S
C553 C549 1.408 . S
C553 C552 1.404 . S
C553 H565 0.930 . S
C554 C550 1.524 . S
C554 H566 0.956 . S
C554 H567 0.961 . S
C554 H568 0.961 . S
C555 C552 1.539 . S
C555 H569 0.958 . S
C555 H570 0.961 . S
C555 H571 0.960 . S
H556 C540 0.931 . S
H557 C545 0.929 . S
H558 C546 0.960 . S
H559 C546 0.962 . S
H560 C546 0.960 . S
H561 C547 0.961 . S
H562 C547 0.961 . S
H563 C547 0.961 . S
H564 C548 0.931 . S
H565 C553 0.930 . S
H566 C554 0.956 . S
H567 C554 0.961 . S
H568 C554 0.961 . S
H569 C555 0.958 . S
H570 C555 0.961 . S
H571 C555 0.960 . S
C572 C573 1.391 . S
C572 C574 1.394 . S
C572 H588 0.931 . S
C573 C572 1.391 . S
C573 C577 1.376 1_554 S
C574 C572 1.394 . S
C574 C575 1.369 1_554 S
C574 C578 1.531 . S
C575 C574 1.369 1_556 S
C575 C576 1.410 . S
C575 C583 1.503 . S
C576 C575 1.410 . S
C576 C577 1.392 . S
C576 C579 1.511 . S
C577 C573 1.376 1_556 S
C577 C576 1.392 . S
C577 H589 0.929 . S
C578 C574 1.531 . S
C578 H590 0.960 . S
C578 H591 0.962 . S
C578 H592 0.960 . S
C579 C576 1.511 . S
C579 H593 0.961 . S
C579 H594 0.961 . S
C579 H595 0.961 . S
C580 C581 1.370 . S
C580 C582 1.363 . S
C580 H596 0.931 1_455 S
C581 C580 1.370 . S
C581 C585 1.408 . S
C582 C580 1.363 . S
C582 C583 1.370 . S
C582 C586 1.524 1_455 S
C583 C575 1.503 . S
C583 C582 1.370 . S
C583 C584 1.403 . S
C584 C583 1.403 . S
C584 C585 1.404 . S
C584 C587 1.539 . S
C585 C581 1.408 . S
C585 C584 1.404 . S
C585 H597 0.930 . S
C586 C582 1.524 1_655 S
C586 H598 0.956 . S
C586 H599 0.961 . S
C586 H600 0.961 . S
C587 C584 1.539 . S
C587 H601 0.958 . S
C587 H602 0.961 . S
C587 H603 0.960 . S
H588 C572 0.931 . S
H589 C577 0.929 . S
H590 C578 0.960 . S
H591 C578 0.962 . S
H592 C578 0.960 . S
H593 C579 0.961 . S
H594 C579 0.961 . S
H595 C579 0.961 . S
H596 C580 0.931 1_655 S
H597 C585 0.930 . S
H598 C586 0.956 . S
H599 C586 0.961 . S
H600 C586 0.961 . S
H601 C587 0.958 . S
H602 C587 0.961 . S
H603 C587 0.960 . S
C604 C605 1.391 1_554 S
C604 C606 1.394 1_554 S
C604 H620 0.931 . S
C605 C604 1.391 1_556 S
C605 C609 1.376 1_545 S
C606 C604 1.394 1_556 S
C606 C607 1.369 . S
C606 C610 1.531 1_556 S
C607 C606 1.369 . S
C607 C608 1.439 . S
C607 C615 1.503 . S
C608 C607 1.439 . S
C608 C609 1.379 1_545 S
C608 C611 1.496 1_545 S
C609 C605 1.376 1_565 S
C609 C608 1.379 1_565 S
C609 H621 0.929 . S
C610 C606 1.531 1_554 S
C610 H622 0.960 1_554 S
C610 H623 0.962 . S
C610 H624 0.960 . S
C611 C608 1.496 1_565 S
C611 H625 0.961 . S
C611 H626 0.961 . S
C611 H627 0.961 1_565 S
C612 C613 1.370 . S
C612 C614 1.363 . S
C612 H628 0.931 . S
C613 C612 1.370 . S
C613 C617 1.408 . S
C614 C612 1.363 . S
C614 C615 1.370 . S
C614 C618 1.524 1_545 S
C615 C607 1.503 . S
C615 C614 1.370 . S
C615 C616 1.403 . S
C616 C615 1.403 . S
C616 C617 1.404 . S
C616 C619 1.539 . S
C617 C613 1.408 . S
C617 C616 1.404 . S
C617 H629 0.930 . S
C618 C614 1.524 1_565 S
C618 H630 0.956 . S
C618 H631 0.961 . S
C618 H632 0.961 . S
C619 C616 1.539 . S
C619 H633 0.958 . S
C619 H634 0.961 . S
C619 H635 0.960 . S
H620 C604 0.931 . S
H621 C609 0.929 . S
H622 C610 0.960 1_556 S
H623 C610 0.962 . S
H624 C610 0.960 . S
H625 C611 0.961 . S
H626 C611 0.961 . S
H627 C611 0.961 1_545 S
H628 C612 0.931 . S
H629 C617 0.930 . S
H630 C618 0.956 . S
H631 C618 0.961 . S
H632 C618 0.961 . S
H633 C619 0.958 . S
H634 C619 0.961 . S
H635 C619 0.960 . S
C636 C637 1.391 . S
C636 C638 1.394 . S
C636 H652 0.931 . S
C637 C636 1.391 . S
C637 C641 1.376 . S
C638 C636 1.394 . S
C638 C639 1.369 . S
C638 C642 1.531 . S
C639 C638 1.369 . S
C639 C640 1.410 . S
C639 C647 1.503 . S
C640 C639 1.410 . S
C640 C641 1.392 . S
C640 C643 1.511 . S
C641 C637 1.376 . S
C641 C640 1.392 . S
C641 H653 0.929 . S
C642 C638 1.531 . S
C642 H654 0.960 . S
C642 H655 0.962 . S
C642 H656 0.960 . S
C643 C640 1.511 . S
C643 H657 0.961 . S
C643 H658 0.961 . S
C643 H659 0.961 . S
C644 C645 1.370 . S
C644 C646 1.363 . S
C644 H660 0.931 . S
C645 C644 1.370 . S
C645 C649 1.408 . S
C646 C644 1.363 . S
C646 C647 1.370 . S
C646 C650 1.524 . S
C647 C639 1.503 . S
C647 C646 1.370 . S
C647 C648 1.403 . S
C648 C647 1.403 . S
C648 C649 1.404 . S
C648 C651 1.539 . S
C649 C645 1.408 . S
C649 C648 1.404 . S
C649 H661 0.930 . S
C650 C646 1.524 . S
C650 H662 0.956 . S
C650 H663 0.961 . S
C650 H664 0.961 . S
C651 C648 1.539 . S
C651 H665 0.958 1_556 S
C651 H666 0.961 . S
C651 H667 0.960 1_556 S
H652 C636 0.931 . S
H653 C641 0.929 . S
H654 C642 0.960 . S
H655 C642 0.962 . S
H656 C642 0.960 . S
H657 C643 0.961 . S
H658 C643 0.961 . S
H659 C643 0.961 . S
H660 C644 0.931 . S
H661 C649 0.930 . S
H662 C650 0.956 . S
H663 C650 0.961 . S
H664 C650 0.961 . S
H665 C651 0.958 1_554 S
H666 C651 0.961 . S
H667 C651 0.960 1_554 S
C668 C669 1.391 . S
C668 C670 1.394 . S
C668 H684 0.931 . S
C669 C668 1.391 . S
C669 C673 1.376 . S
C670 C668 1.394 . S
C670 C671 1.369 . S
C670 C674 1.531 . S
C671 C670 1.369 . S
C671 C672 1.410 . S
C671 C679 1.503 . S
C672 C671 1.410 . S
C672 C673 1.392 . S
C672 C675 1.511 1_556 S
C673 C669 1.376 . S
C673 C672 1.392 . S
C673 H685 0.929 1_556 S
C674 C670 1.531 . S
C674 H686 0.960 . S
C674 H687 0.962 . S
C674 H688 0.960 . S
C675 C672 1.511 1_554 S
C675 H689 0.961 . S
C675 H690 0.961 1_554 S
C675 H691 0.961 . S
C676 C677 1.370 . S
C676 C678 1.363 . S
C676 H692 0.931 . S
C677 C676 1.370 . S
C677 C681 1.408 . S
C678 C676 1.363 . S
C678 C679 1.370 . S
C678 C682 1.524 . S
C679 C671 1.503 . S
C679 C678 1.370 . S
C679 C680 1.403 . S
C680 C679 1.403 . S
C680 C681 1.404 . S
C680 C683 1.539 . S
C681 C677 1.408 . S
C681 C680 1.404 . S
C681 H693 0.930 . S
C682 C678 1.524 . S
C682 H694 0.956 . S
C682 H695 0.961 . S
C682 H696 0.961 . S
C683 C680 1.539 . S
C683 H697 0.958 . S
C683 H698 0.961 . S
C683 H699 0.960 . S
H684 C668 0.931 . S
H685 C673 0.929 1_554 S
H686 C674 0.960 . S
H687 C674 0.962 . S
H688 C674 0.960 . S
H689 C675 0.961 . S
H690 C675 0.961 1_556 S
H691 C675 0.961 . S
H692 C676 0.931 . S
H693 C681 0.930 . S
H694 C682 0.956 . S
H695 C682 0.961 . S
H696 C682 0.961 . S
H697 C683 0.958 . S
H698 C683 0.961 . S
H699 C683 0.960 . S
C700 C701 1.391 . S
C700 C702 1.394 . S
C700 H716 0.931 . S
C701 C700 1.391 . S
C701 C705 1.376 . S
C702 C700 1.394 . S
C702 C703 1.369 . S
C702 C706 1.531 . S
C703 C702 1.369 . S
C703 C704 1.410 . S
C703 C711 1.503 . S
C704 C703 1.410 . S
C704 C705 1.392 . S
C704 C707 1.511 1_455 S
C705 C701 1.376 . S
C705 C704 1.392 . S
C705 H717 0.929 . S
C706 C702 1.531 . S
C706 H718 0.960 . S
C706 H719 0.962 . S
C706 H720 0.960 . S
C707 C704 1.511 1_655 S
C707 H721 0.961 . S
C707 H722 0.961 . S
C707 H723 0.961 . S
C708 C709 1.370 . S
C708 C710 1.363 . S
C708 H724 0.931 . S
C709 C708 1.370 . S
C709 C713 1.408 1_556 S
C710 C708 1.363 . S
C710 C711 1.370 1_556 S
C710 C714 1.524 . S
C711 C703 1.503 . S
C711 C710 1.370 1_554 S
C711 C712 1.403 . S
C712 C711 1.403 . S
C712 C713 1.404 . S
C712 C715 1.539 . S
C713 C709 1.408 1_554 S
C713 C712 1.404 . S
C713 H725 0.930 . S
C714 C710 1.524 . S
C714 H726 0.956 . S
C714 H727 0.961 . S
C714 H728 0.961 . S
C715 C712 1.539 . S
C715 H729 0.958 . S
C715 H730 0.961 . S
C715 H731 0.960 . S
H716 C700 0.931 . S
H717 C705 0.929 . S
H718 C706 0.960 . S
H719 C706 0.962 . S
H720 C706 0.960 . S
H721 C707 0.961 . S
H722 C707 0.961 . S
H723 C707 0.961 . S
H724 C708 0.931 . S
H725 C713 0.930 . S
H726 C714 0.956 . S
H727 C714 0.961 . S
H728 C714 0.961 . S
H729 C715 0.958 . S
H730 C715 0.961 . S
H731 C715 0.960 . S
C732 C733 1.391 1_565 S
C732 C734 1.394 . S
C732 H748 0.931 . S
C733 C732 1.391 1_545 S
C733 C737 1.376 . S
C734 C732 1.394 . S
C734 C735 1.369 1_565 S
C734 C738 1.531 . S
C735 C734 1.369 1_545 S
C735 C736 1.410 . S
C735 C743 1.503 1_554 S
C736 C735 1.410 . S
C736 C737 1.392 . S
C736 C739 1.511 1_554 S
C737 C733 1.376 . S
C737 C736 1.392 . S
C737 H749 0.929 . S
C738 C734 1.531 . S
C738 H750 0.960 . S
C738 H751 0.962 . S
C738 H752 0.960 . S
C739 C736 1.511 1_556 S
C739 H753 0.961 . S
C739 H754 0.961 . S
C739 H755 0.961 . S
C740 C741 1.370 . S
C740 C742 1.363 . S
C740 H756 0.931 . S
C741 C740 1.370 . S
C741 C745 1.408 1_545 S
C742 C740 1.363 . S
C742 C743 1.370 . S
C742 C746 1.524 1_556 S
C743 C735 1.503 1_556 S
C743 C742 1.370 . S
C743 C744 1.403 1_545 S
C744 C743 1.403 1_565 S
C744 C745 1.404 . S
C744 C747 1.539 . S
C745 C741 1.408 1_565 S
C745 C744 1.404 . S
C745 H757 0.930 . S
C746 C742 1.524 1_554 S
C746 H758 0.956 . S
C746 H759 0.961 . S
C746 H760 0.961 . S
C747 C744 1.539 . S
C747 H761 0.958 . S
C747 H762 0.961 . S
C747 H763 0.960 . S
H748 C732 0.931 . S
H749 C737 0.929 . S
H750 C738 0.960 . S
H751 C738 0.962 . S
H752 C738 0.960 . S
H753 C739 0.961 . S
H754 C739 0.961 . S
H755 C739 0.961 . S
H756 C740 0.931 . S
H757 C745 0.930 . S
H758 C746 0.956 . S
H759 C746 0.961 . S
H760 C746 0.961 . S
H761 C747 0.958 . S
H762 C747 0.961 . S
H763 C747 0.960 . S
C764 C765 1.391 . S
C764 C766 1.394 1_554 S
C764 H780 0.931 . S
C765 C764 1.391 . S
C765 C769 1.376 . S
C766 C764 1.394 1_556 S
C766 C767 1.369 1_556 S
C766 C770 1.531 . S
C767 C766 1.369 1_554 S
C767 C768 1.410 . S
C767 C775 1.503 1_554 S
C768 C767 1.410 . S
C768 C769 1.392 . S
C768 C771 1.511 . S
C769 C765 1.376 . S
C769 C768 1.392 . S
C769 H781 0.929 . S
C770 C766 1.531 . S
C770 H782 0.960 . S
C770 H783 0.962 . S
C770 H784 0.960 . S
C771 C768 1.511 . S
C771 H785 0.961 . S
C771 H786 0.961 . S
C771 H787 0.961 . S
C772 C773 1.370 . S
C772 C774 1.363 . S
C772 H788 0.931 . S
C773 C772 1.370 . S
C773 C777 1.408 . S
C774 C772 1.363 . S
C774 C775 1.370 . S
C774 C778 1.524 1_556 S
C775 C767 1.503 1_556 S
C775 C774 1.370 . S
C775 C776 1.403 . S
C776 C775 1.403 . S
C776 C777 1.404 . S
C776 C779 1.539 . S
C777 C773 1.408 . S
C777 C776 1.404 . S
C777 H789 0.930 . S
C778 C774 1.524 1_554 S
C778 H790 0.956 . S
C778 H791 0.961 . S
C778 H792 0.961 . S
C779 C776 1.539 . S
C779 H793 0.958 . S
C779 H794 0.961 . S
C779 H795 0.960 . S
H780 C764 0.931 . S
H781 C769 0.929 . S
H782 C770 0.960 . S
H783 C770 0.962 . S
H784 C770 0.960 . S
H785 C771 0.961 . S
H786 C771 0.961 . S
H787 C771 0.961 . S
H788 C772 0.931 . S
H789 C777 0.930 . S
H790 C778 0.956 . S
H791 C778 0.961 . S
H792 C778 0.961 . S
H793 C779 0.958 . S
H794 C779 0.961 . S
H795 C779 0.960 . S
C796 C797 1.391 . S
C796 C798 1.394 1_554 S
C796 H812 0.931 . S
C797 C796 1.391 . S
C797 C801 1.376 . S
C798 C796 1.394 1_556 S
C798 C799 1.369 1_556 S
C798 C802 1.531 . S
C799 C798 1.369 1_554 S
C799 C800 1.410 . S
C799 C807 1.503 1_554 S
C800 C799 1.410 . S
C800 C801 1.392 . S
C800 C803 1.511 . S
C801 C797 1.376 . S
C801 C800 1.392 . S
C801 H813 0.929 . S
C802 C798 1.531 . S
C802 H814 0.960 . S
C802 H815 0.962 . S
C802 H816 0.960 . S
C803 C800 1.511 . S
C803 H817 0.961 . S
C803 H818 0.961 . S
C803 H819 0.961 . S
C804 C805 1.370 . S
C804 C806 1.363 . S
C804 H820 0.931 . S
C805 C804 1.370 . S
C805 C809 1.408 . S
C806 C804 1.363 . S
C806 C807 1.370 . S
C806 C810 1.524 1_556 S
C807 C799 1.503 1_556 S
C807 C806 1.370 . S
C807 C808 1.403 . S
C808 C807 1.403 . S
C808 C809 1.404 . S
C808 C811 1.539 . S
C809 C805 1.408 . S
C809 C808 1.404 . S
C809 H821 0.930 . S
C810 C806 1.524 1_554 S
C810 H822 0.956 . S
C810 H823 0.961 . S
C810 H824 0.961 . S
C811 C808 1.539 . S
C811 H825 0.958 . S
C811 H826 0.961 . S
C811 H827 0.960 . S
H812 C796 0.931 . S
H813 C801 0.929 . S
H814 C802 0.960 . S
H815 C802 0.962 . S
H816 C802 0.960 . S
H817 C803 0.961 . S
H818 C803 0.961 . S
H819 C803 0.961 . S
H820 C804 0.931 . S
H821 C809 0.930 . S
H822 C810 0.956 . S
H823 C810 0.961 . S
H824 C810 0.961 . S
H825 C811 0.958 . S
H826 C811 0.961 . S
H827 C811 0.960 . S
C828 C829 1.391 1_455 S
C828 C830 1.394 . S
C828 H844 0.931 . S
C829 C828 1.391 1_655 S
C829 C833 1.376 . S
C830 C828 1.394 . S
C830 C831 1.369 1_455 S
C830 C834 1.531 . S
C831 C830 1.369 1_655 S
C831 C832 1.410 . S
C831 C839 1.503 . S
C832 C831 1.410 . S
C832 C833 1.392 . S
C832 C835 1.511 . S
C833 C829 1.376 . S
C833 C832 1.392 . S
C833 H845 0.929 . S
C834 C830 1.531 . S
C834 H846 0.960 . S
C834 H847 0.962 . S
C834 H848 0.960 . S
C835 C832 1.511 . S
C835 H849 0.961 . S
C835 H850 0.961 . S
C835 H851 0.961 . S
C836 C837 1.370 . S
C836 C838 1.363 . S
C836 H852 0.931 1_655 S
C837 C836 1.370 . S
C837 C841 1.408 . S
C838 C836 1.363 . S
C838 C839 1.370 . S
C838 C842 1.524 1_655 S
C839 C831 1.503 . S
C839 C838 1.370 . S
C839 C840 1.403 . S
C840 C839 1.403 . S
C840 C841 1.404 . S
C840 C843 1.539 . S
C841 C837 1.408 . S
C841 C840 1.404 . S
C841 H853 0.930 . S
C842 C838 1.524 1_455 S
C842 H854 0.956 . S
C842 H855 0.961 1_455 S
C842 H856 0.961 . S
C843 C840 1.539 . S
C843 H857 0.958 . S
C843 H858 0.961 . S
C843 H859 0.960 . S
H844 C828 0.931 . S
H845 C833 0.929 . S
H846 C834 0.960 . S
H847 C834 0.962 . S
H848 C834 0.960 . S
H849 C835 0.961 . S
H850 C835 0.961 . S
H851 C835 0.961 . S
H852 C836 0.931 1_455 S
H853 C841 0.930 . S
H854 C842 0.956 . S
H855 C842 0.961 1_655 S
H856 C842 0.961 . S
H857 C843 0.958 . S
H858 C843 0.961 . S
H859 C843 0.960 . S
C860 C861 1.393 1_545 S
C860 C862 1.394 . S
C860 H876 0.931 . S
C861 C860 1.393 1_565 S
C861 C865 1.373 . S
C862 C860 1.394 . S
C862 C863 1.369 1_545 S
C862 C866 1.531 . S
C863 C862 1.369 1_565 S
C863 C864 1.410 . S
C863 C871 1.503 . S
C864 C863 1.410 . S
C864 C865 1.392 . S
C864 C867 1.511 . S
C865 C861 1.373 . S
C865 C864 1.392 . S
C865 H877 0.929 . S
C866 C862 1.531 . S
C866 H878 0.960 . S
C866 H879 0.962 . S
C866 H880 0.960 . S
C867 C864 1.511 . S
C867 H881 0.961 . S
C867 H882 0.961 . S
C867 H883 0.961 . S
C868 C869 1.370 . S
C868 C870 1.363 . S
C868 H884 0.931 . S
C869 C868 1.370 . S
C869 C873 1.408 1_565 S
C870 C868 1.363 . S
C870 C871 1.370 . S
C870 C874 1.524 . S
C871 C863 1.503 . S
C871 C870 1.370 . S
C871 C872 1.403 1_565 S
C872 C871 1.403 1_545 S
C872 C873 1.404 . S
C872 C875 1.539 . S
C873 C869 1.408 1_545 S
C873 C872 1.404 . S
C873 H885 0.930 . S
C874 C870 1.524 . S
C874 H886 0.956 . S
C874 H887 0.961 . S
C874 H888 0.961 . S
C875 C872 1.539 . S
C875 H889 0.958 . S
C875 H890 0.961 . S
C875 H891 0.960 . S
H876 C860 0.931 . S
H877 C865 0.929 . S
H878 C866 0.960 . S
H879 C866 0.962 . S
H880 C866 0.960 . S
H881 C867 0.961 . S
H882 C867 0.961 . S
H883 C867 0.961 . S
H884 C868 0.931 . S
H885 C873 0.930 . S
H886 C874 0.956 . S
H887 C874 0.961 . S
H888 C874 0.961 . S
H889 C875 0.958 . S
H890 C875 0.961 . S
H891 C875 0.960 . S
C892 C893 1.391 . S
C892 C894 1.394 . S
C892 H908 0.931 . S
C893 C892 1.391 . S
C893 C897 1.376 . S
C894 C892 1.394 . S
C894 C895 1.369 . S
C894 C898 1.531 . S
C895 C894 1.369 . S
C895 C896 1.410 . S
C895 C903 1.503 . S
C896 C895 1.410 . S
C896 C897 1.392 . S
C896 C899 1.511 . S
C897 C893 1.376 . S
C897 C896 1.392 . S
C897 H909 0.929 . S
C898 C894 1.531 . S
C898 H910 0.960 . S
C898 H911 0.962 . S
C898 H912 0.960 . S
C899 C896 1.511 . S
C899 H913 0.961 . S
C899 H914 0.961 . S
C899 H915 0.961 . S
C900 C901 1.370 . S
C900 C902 1.363 . S
C900 H916 0.931 . S
C901 C900 1.370 . S
C901 C905 1.408 . S
C902 C900 1.363 . S
C902 C903 1.370 . S
C902 C906 1.524 . S
C903 C895 1.503 . S
C903 C902 1.370 . S
C903 C904 1.403 . S
C904 C903 1.403 . S
C904 C905 1.404 . S
C904 C907 1.539 . S
C905 C901 1.408 . S
C905 C904 1.404 . S
C905 H917 0.930 . S
C906 C902 1.524 . S
C906 H918 0.956 . S
C906 H919 0.961 . S
C906 H920 0.961 . S
C907 C904 1.539 . S
C907 H921 0.958 . S
C907 H922 0.961 . S
C907 H923 0.960 . S
H908 C892 0.931 . S
H909 C897 0.929 . S
H910 C898 0.960 . S
H911 C898 0.962 . S
H912 C898 0.960 . S
H913 C899 0.961 . S
H914 C899 0.961 . S
H915 C899 0.961 . S
H916 C900 0.931 . S
H917 C905 0.930 . S
H918 C906 0.956 . S
H919 C906 0.961 . S
H920 C906 0.961 . S
H921 C907 0.958 . S
H922 C907 0.961 . S
H923 C907 0.960 . S
C924 C925 1.391 . S
C924 C926 1.394 . S
C924 H940 0.931 . S
C925 C924 1.391 . S
C925 C929 1.376 . S
C926 C924 1.394 . S
C926 C927 1.369 . S
C926 C930 1.531 . S
C927 C926 1.369 . S
C927 C928 1.410 . S
C927 C935 1.503 . S
C928 C927 1.410 . S
C928 C929 1.392 . S
C928 C931 1.511 . S
C929 C925 1.376 . S
C929 C928 1.392 . S
C929 H941 0.929 . S
C930 C926 1.531 . S
C930 H942 0.960 . S
C930 H943 0.962 . S
C930 H944 0.960 . S
C931 C928 1.511 . S
C931 H945 0.961 . S
C931 H946 0.961 . S
C931 H947 0.961 . S
C932 C933 1.370 . S
C932 C934 1.363 . S
C932 H948 0.931 . S
C933 C932 1.370 . S
C933 C937 1.408 . S
C934 C932 1.363 . S
C934 C935 1.370 . S
C934 C938 1.524 . S
C935 C927 1.503 . S
C935 C934 1.370 . S
C935 C936 1.403 . S
C936 C935 1.403 . S
C936 C937 1.404 . S
C936 C939 1.539 . S
C937 C933 1.408 . S
C937 C936 1.404 . S
C937 H949 0.930 . S
C938 C934 1.524 . S
C938 H950 0.956 . S
C938 H951 0.961 . S
C938 H952 0.961 . S
C939 C936 1.539 . S
C939 H953 0.958 . S
C939 H954 0.961 . S
C939 H955 0.960 . S
H940 C924 0.931 . S
H941 C929 0.929 . S
H942 C930 0.960 . S
H943 C930 0.962 . S
H944 C930 0.960 . S
H945 C931 0.961 . S
H946 C931 0.961 . S
H947 C931 0.961 . S
H948 C932 0.931 . S
H949 C937 0.930 . S
H950 C938 0.956 . S
H951 C938 0.961 . S
H952 C938 0.961 . S
H953 C939 0.958 . S
H954 C939 0.961 . S
H955 C939 0.960 . S
C189 C76 1.529 . S
C197 C112 1.598 . S
C229 C135 1.620 . S
C221 C88 1.604 . S
C261 C158 1.638 . S
C253 C52 1.604 . S
C293 C185 1.523 . S
C285 C64 1.530 . S
C325 C113 1.568 . S
C317 C28 1.519 1_546 S
C349 C40 1.490 . S
C357 C136 1.504 . S
C381 C4 1.477 . S
C389 C159 1.492 . S
C413 C16 1.543 1_455 S
C421 C184 1.598 . S
C453 C114 0.392 . S
C445 C69 0.377 . S
C485 C137 0.420 . S
C477 C81 0.474 . S
C517 C160 0.409 . S
C509 C93 0.515 . S
C541 C57 0.494 . S
C549 C186 0.645 . S
C573 C21 0.646 . S
C581 C117 0.729 . S
C613 C140 0.710 . S
C605 C33 0.676 1_556 S
C645 C163 0.673 . S
C637 C45 0.549 . S
C669 C9 0.473 . S
C677 C183 0.392 . S
C701 C66 1.550 . S
C709 C115 1.568 . S
C733 C78 1.545 . S
C741 C138 1.530 . S
C773 C161 1.533 . S
C765 C90 1.562 . S
C805 C182 1.391 . S
C797 C54 1.354 . S
C829 C18 1.575 1_655 S
C837 C116 1.562 . S
C869 C139 1.493 . S
C861 C30 1.544 1_565 S
C901 C162 1.466 . S
C893 C42 1.555 . S
C925 C6 1.666 . S
C933 C181 1.733 . S
