# Generated by pormake.
# Topology ctn, (3,4)-cn, num edge types: 1
# Building blocks:
#     Node 0, Type 0, BuildingBlock: PAMTOO_clean_linker_0, # of connection points: 3
#     Node 1, Type 0, BuildingBlock: PAMTOO_clean_linker_0, # of connection points: 3
#     Node 2, Type 0, BuildingBlock: PAMTOO_clean_linker_0, # of connection points: 3
#     Node 3, Type 0, BuildingBlock: PAMTOO_clean_linker_0, # of connection points: 3
#     Node 4, Type 0, BuildingBlock: PAMTOO_clean_linker_0, # of connection points: 3
#     Node 5, Type 0, BuildingBlock: PAMTOO_clean_linker_0, # of connection points: 3
#     Node 6, Type 0, BuildingBlock: PAMTOO_clean_linker_0, # of connection points: 3
#     Node 7, Type 0, BuildingBlock: PAMTOO_clean_linker_0, # of connection points: 3
#     Node 8, Type 0, BuildingBlock: PAMTOO_clean_linker_0, # of connection points: 3
#     Node 9, Type 0, BuildingBlock: PAMTOO_clean_linker_0, # of connection points: 3
#     Node 10, Type 0, BuildingBlock: PAMTOO_clean_linker_0, # of connection points: 3
#     Node 11, Type 0, BuildingBlock: PAMTOO_clean_linker_0, # of connection points: 3
#     Node 12, Type 0, BuildingBlock: PAMTOO_clean_linker_0, # of connection points: 3
#     Node 13, Type 0, BuildingBlock: PAMTOO_clean_linker_0, # of connection points: 3
#     Node 14, Type 0, BuildingBlock: PAMTOO_clean_linker_0, # of connection points: 3
#     Node 15, Type 0, BuildingBlock: PAMTOO_clean_linker_0, # of connection points: 3
#     Node 16, Type 1, BuildingBlock: KUFVIS_clean_sbu_0, # of connection points: 4
#     Node 17, Type 1, BuildingBlock: KUFVIS_clean_sbu_0, # of connection points: 4
#     Node 18, Type 1, BuildingBlock: KUFVIS_clean_sbu_0, # of connection points: 4
#     Node 19, Type 1, BuildingBlock: KUFVIS_clean_sbu_0, # of connection points: 4
#     Node 20, Type 1, BuildingBlock: KUFVIS_clean_sbu_0, # of connection points: 4
#     Node 21, Type 1, BuildingBlock: KUFVIS_clean_sbu_0, # of connection points: 4
#     Node 22, Type 1, BuildingBlock: KUFVIS_clean_sbu_0, # of connection points: 4
#     Node 23, Type 1, BuildingBlock: KUFVIS_clean_sbu_0, # of connection points: 4
#     Node 24, Type 1, BuildingBlock: KUFVIS_clean_sbu_0, # of connection points: 4
#     Node 25, Type 1, BuildingBlock: KUFVIS_clean_sbu_0, # of connection points: 4
#     Node 26, Type 1, BuildingBlock: KUFVIS_clean_sbu_0, # of connection points: 4
#     Node 27, Type 1, BuildingBlock: KUFVIS_clean_sbu_0, # of connection points: 4
#     Edge 28, Type (0, 1), BuildingBlock: ZUJKAS_clean_linker_0, # of connection points: 2
#     Edge 29, Type (0, 1), BuildingBlock: ZUJKAS_clean_linker_0, # of connection points: 2
#     Edge 30, Type (0, 1), BuildingBlock: ZUJKAS_clean_linker_0, # of connection points: 2
#     Edge 31, Type (0, 1), BuildingBlock: ZUJKAS_clean_linker_0, # of connection points: 2
#     Edge 32, Type (0, 1), BuildingBlock: ZUJKAS_clean_linker_0, # of connection points: 2
#     Edge 33, Type (0, 1), BuildingBlock: ZUJKAS_clean_linker_0, # of connection points: 2
#     Edge 34, Type (0, 1), BuildingBlock: ZUJKAS_clean_linker_0, # of connection points: 2
#     Edge 35, Type (0, 1), BuildingBlock: ZUJKAS_clean_linker_0, # of connection points: 2
#     Edge 36, Type (0, 1), BuildingBlock: ZUJKAS_clean_linker_0, # of connection points: 2
#     Edge 37, Type (0, 1), BuildingBlock: ZUJKAS_clean_linker_0, # of connection points: 2
#     Edge 38, Type (0, 1), BuildingBlock: ZUJKAS_clean_linker_0, # of connection points: 2
#     Edge 39, Type (0, 1), BuildingBlock: ZUJKAS_clean_linker_0, # of connection points: 2
#     Edge 40, Type (0, 1), BuildingBlock: ZUJKAS_clean_linker_0, # of connection points: 2
#     Edge 41, Type (0, 1), BuildingBlock: ZUJKAS_clean_linker_0, # of connection points: 2
#     Edge 42, Type (0, 1), BuildingBlock: ZUJKAS_clean_linker_0, # of connection points: 2
#     Edge 43, Type (0, 1), BuildingBlock: ZUJKAS_clean_linker_0, # of connection points: 2
#     Edge 44, Type (0, 1), BuildingBlock: ZUJKAS_clean_linker_0, # of connection points: 2
#     Edge 45, Type (0, 1), BuildingBlock: ZUJKAS_clean_linker_0, # of connection points: 2
#     Edge 46, Type (0, 1), BuildingBlock: ZUJKAS_clean_linker_0, # of connection points: 2
#     Edge 47, Type (0, 1), BuildingBlock: ZUJKAS_clean_linker_0, # of connection points: 2
#     Edge 48, Type (0, 1), BuildingBlock: ZUJKAS_clean_linker_0, # of connection points: 2
#     Edge 49, Type (0, 1), BuildingBlock: ZUJKAS_clean_linker_0, # of connection points: 2
#     Edge 50, Type (0, 1), BuildingBlock: ZUJKAS_clean_linker_0, # of connection points: 2
#     Edge 51, Type (0, 1), BuildingBlock: ZUJKAS_clean_linker_0, # of connection points: 2
#     Edge 52, Type (0, 1), BuildingBlock: ZUJKAS_clean_linker_0, # of connection points: 2
#     Edge 53, Type (0, 1), BuildingBlock: ZUJKAS_clean_linker_0, # of connection points: 2
#     Edge 54, Type (0, 1), BuildingBlock: ZUJKAS_clean_linker_0, # of connection points: 2
#     Edge 55, Type (0, 1), BuildingBlock: ZUJKAS_clean_linker_0, # of connection points: 2
#     Edge 56, Type (0, 1), BuildingBlock: ZUJKAS_clean_linker_0, # of connection points: 2
#     Edge 57, Type (0, 1), BuildingBlock: ZUJKAS_clean_linker_0, # of connection points: 2
#     Edge 58, Type (0, 1), BuildingBlock: ZUJKAS_clean_linker_0, # of connection points: 2
#     Edge 59, Type (0, 1), BuildingBlock: ZUJKAS_clean_linker_0, # of connection points: 2
#     Edge 60, Type (0, 1), BuildingBlock: ZUJKAS_clean_linker_0, # of connection points: 2
#     Edge 61, Type (0, 1), BuildingBlock: ZUJKAS_clean_linker_0, # of connection points: 2
#     Edge 62, Type (0, 1), BuildingBlock: ZUJKAS_clean_linker_0, # of connection points: 2
#     Edge 63, Type (0, 1), BuildingBlock: ZUJKAS_clean_linker_0, # of connection points: 2
#     Edge 64, Type (0, 1), BuildingBlock: ZUJKAS_clean_linker_0, # of connection points: 2
#     Edge 65, Type (0, 1), BuildingBlock: ZUJKAS_clean_linker_0, # of connection points: 2
#     Edge 66, Type (0, 1), BuildingBlock: ZUJKAS_clean_linker_0, # of connection points: 2
#     Edge 67, Type (0, 1), BuildingBlock: ZUJKAS_clean_linker_0, # of connection points: 2
#     Edge 68, Type (0, 1), BuildingBlock: ZUJKAS_clean_linker_0, # of connection points: 2
#     Edge 69, Type (0, 1), BuildingBlock: ZUJKAS_clean_linker_0, # of connection points: 2
#     Edge 70, Type (0, 1), BuildingBlock: ZUJKAS_clean_linker_0, # of connection points: 2
#     Edge 71, Type (0, 1), BuildingBlock: ZUJKAS_clean_linker_0, # of connection points: 2
#     Edge 72, Type (0, 1), BuildingBlock: ZUJKAS_clean_linker_0, # of connection points: 2
#     Edge 73, Type (0, 1), BuildingBlock: ZUJKAS_clean_linker_0, # of connection points: 2
#     Edge 74, Type (0, 1), BuildingBlock: ZUJKAS_clean_linker_0, # of connection points: 2
#     Edge 75, Type (0, 1), BuildingBlock: ZUJKAS_clean_linker_0, # of connection points: 2
# Relax obj value: 0.073
# Max RMSD: 0.179
# Mean RMSD: 0.122
data_MOF--net-ctn--node1-KUFVIS_clean_sbu_0--node2-PAMTOO_clean_linker_0--edge1-ZUJKAS_clean_linker_0
_symmetry_space_group_name_H-M    P1
_symmetry_Int_Tables_number       1
_symmetry_cell_setting            triclinic
loop_
_symmetry_equiv_pos_as_xyz
'x, y, z'
_cell_length_a     69.286889
_cell_length_b     69.614493
_cell_length_c     71.020644
_cell_angle_alpha  85.988382
_cell_angle_beta   92.367422
_cell_angle_gamma 98.645665
loop_
_atom_site_label
_atom_site_type_symbol
_atom_site_fract_x
_atom_site_fract_y
_atom_site_fract_z
_atom_type_partial_charge
H0 H 0.02208 0.07678 0.05812 0.0
H1 H 0.05335 0.02836 0.07201 0.0
H2 H 0.06468 0.06337 0.02049 0.0
H3 H 0.06111 0.02106 0.01762 0.0
C4 C 0.06859 0.01705 0.03119 0.0
O5 O 0.07369 0.03336 0.04136 0.0
H6 H 0.05814 0.00617 0.0393 0.0
C7 C 0.03279 0.06783 0.05471 0.0
C8 C 0.04294 0.07221 0.03781 0.0
C9 C 0.03629 0.05205 0.06726 0.0
C10 C 0.0502 0.04049 0.06257 0.0
C11 C 0.06035 0.04459 0.04573 0.0
C12 C 0.05681 0.06046 0.03349 0.0
H13 H 0.33437 0.67792 0.23511 0.0
H14 H 0.30282 0.69549 0.18484 0.0
H15 H 0.35414 0.73214 0.20382 0.0
H16 H 0.32352 0.75374 0.19061 0.0
C17 C 0.31533 0.74356 0.18067 0.0
O18 O 0.32571 0.72847 0.17841 0.0
H19 H 0.30098 0.73775 0.18693 0.0
C20 C 0.3328 0.68823 0.2232 0.0
C21 C 0.34629 0.70547 0.22121 0.0
C22 C 0.31709 0.68433 0.21013 0.0
C23 C 0.31502 0.69794 0.19487 0.0
C24 C 0.32829 0.71516 0.19275 0.0
C25 C 0.34394 0.7188 0.20576 0.0
H26 H 0.97318 0.51198 0.08144 0.0
H27 H 0.95701 0.48644 0.0283 0.0
H28 H 1.00175 0.46563 0.06386 0.0
H29 H 0.00894 0.4729 0.02287 0.0
C30 C 0.99458 0.46547 0.01758 0.0
O31 O 0.98175 0.46142 0.03221 0.0
H32 H 0.98873 0.47553 0.00669 0.0
C33 C 0.97495 0.50164 0.07117 0.0
C34 C 0.98917 0.48917 0.0747 0.0
C35 C 0.96307 0.50087 0.05451 0.0
C36 C 0.96565 0.48725 0.04136 0.0
C37 C 0.97964 0.4747 0.04476 0.0
C38 C 0.99123 0.47565 0.06136 0.0
H39 H 0.70021 0.84151 0.2356 0.0
H40 H 0.67656 0.78708 0.21221 0.0
H41 H 0.73022 0.8192 0.19193 0.0
H42 H 0.70022 0.80323 0.16372 0.0
C43 C 0.69726 0.7882 0.17046 0.0
O44 O 0.70498 0.78769 0.18871 0.0
H45 H 0.68114 0.78397 0.17083 0.0
C46 C 0.701 0.83045 0.22577 0.0
C47 C 0.71692 0.8325 0.21376 0.0
C48 C 0.68627 0.81417 0.22543 0.0
C49 C 0.68769 0.79976 0.21277 0.0
C50 C 0.70345 0.80173 0.20061 0.0
C51 C 0.71796 0.81805 0.20114 0.0
H52 H 0.08066 0.9644 0.51575 0.0
H53 H 0.028 0.95351 0.48131 0.0
H54 H 0.07034 0.00348 0.46781 0.0
H55 H 0.02965 0.01051 0.46637 0.0
C56 C 0.02257 0.99674 0.46036 0.0
O57 O 0.0363 0.9846 0.4585 0.0
H58 H 0.01126 0.98961 0.4703 0.0
C59 C 0.07174 0.96833 0.50362 0.0
C60 C 0.07797 0.98536 0.49227 0.0
C61 C 0.05378 0.95661 0.49983 0.0
C62 C 0.04182 0.96233 0.4846 0.0
C63 C 0.04778 0.9793 0.47326 0.0
C64 C 0.06583 0.99064 0.47699 0.0
H65 H 0.18808 0.7342 0.82134 0.0
H66 H 0.20798 0.68922 0.7918 0.0
H67 H 0.23968 0.71035 0.84116 0.0
H68 H 0.26519 0.70245 0.81198 0.0
C69 C 0.25514 0.69137 0.80437 0.0
O70 O 0.23828 0.68604 0.81437 0.0
H71 H 0.25157 0.69813 0.79022 0.0
C72 C 0.19821 0.72394 0.82016 0.0
C73 C 0.21398 0.72372 0.83327 0.0
C74 C 0.19585 0.71164 0.80506 0.0
C75 C 0.20957 0.69895 0.8032 0.0
C76 C 0.22533 0.69853 0.81619 0.0
C77 C 0.2275 0.71088 0.83116 0.0
H78 H 0.96197 0.56098 0.51105 0.0
H79 H 0.97913 0.52539 0.46926 0.0
H80 H 0.01846 0.57516 0.48619 0.0
H81 H 0.02069 0.56992 0.44576 0.0
C82 C 0.0136 0.55449 0.44564 0.0
O83 O 0.01319 0.54618 0.46389 0.0
H84 H 0.99842 0.55445 0.43979 0.0
C85 C 0.97265 0.55783 0.50145 0.0
C86 C 0.99076 0.57007 0.50019 0.0
C87 C 0.96815 0.54165 0.49038 0.0
C88 C 0.98212 0.53781 0.47787 0.0
C89 C 1.00015 0.54988 0.47637 0.0
C90 C 0.00452 0.56585 0.48762 0.0
H91 H 0.79545 0.82871 0.84939 0.0
H92 H 0.8424 0.80315 0.8279 0.0
H93 H 0.81934 0.84881 0.79514 0.0
H94 H 0.83053 0.82103 0.77085 0.0
C95 C 0.83954 0.81323 0.78124 0.0
O96 O 0.84478 0.82459 0.79634 0.0
H97 H 0.83041 0.7993 0.78602 0.0
C98 C 0.80574 0.828 0.83849 0.0
C99 C 0.8054 0.84038 0.82189 0.0
C100 C 0.81918 0.81459 0.84105 0.0
C101 C 0.83227 0.81363 0.82661 0.0
C102 C 0.83218 0.82587 0.81013 0.0
C103 C 0.81896 0.83929 0.80789 0.0
H104 H 0.29168 0.32339 0.34849 0.0
H105 H 0.33924 0.29974 0.3259 0.0
H106 H 0.31419 0.34478 0.29398 0.0
H107 H 0.32685 0.31859 0.26892 0.0
C108 C 0.33575 0.31064 0.27929 0.0
O109 O 0.34076 0.32176 0.29461 0.0
H110 H 0.32658 0.29664 0.28377 0.0
C111 C 0.30166 0.32297 0.33723 0.0
C112 C 0.30103 0.33581 0.32101 0.0
C113 C 0.31551 0.30998 0.3393 0.0
C114 C 0.32871 0.30984 0.32481 0.0
C115 C 0.32818 0.32237 0.30858 0.0
C116 C 0.31452 0.33538 0.30677 0.0
H117 H 0.47384 0.01205 0.58234 0.0
H118 H 0.45704 0.98526 0.53 0.0
H119 H 0.50286 0.96579 0.56516 0.0
H120 H 0.50965 0.97231 0.52408 0.0
C121 C 0.4952 0.96507 0.51882 0.0
O122 O 0.48263 0.96097 0.53368 0.0
H123 H 0.48921 0.97521 0.50811 0.0
C124 C 0.47542 1.0013 0.57241 0.0
C125 C 0.48987 0.9891 0.57595 0.0
C126 C 0.46348 1.00023 0.55581 0.0
C127 C 0.46617 0.98661 0.54273 0.0
C128 C 0.48044 0.97435 0.54611 0.0
C129 C 0.49214 0.9756 0.56265 0.0
H130 H 0.19691 0.34171 0.73887 0.0
H131 H 0.17543 0.2864 0.71612 0.0
H132 H 0.229 0.31944 0.69674 0.0
H133 H 0.19848 0.30178 0.6685 0.0
C134 C 0.19694 0.28677 0.67538 0.0
O135 O 0.20471 0.28728 0.69361 0.0
H136 H 0.18109 0.281 0.67581 0.0
C137 C 0.19829 0.33054 0.72934 0.0
C138 C 0.21459 0.33278 0.71778 0.0
C139 C 0.18396 0.31392 0.72893 0.0
C140 C 0.18623 0.29934 0.71673 0.0
C141 C 0.20237 0.30149 0.70504 0.0
C142 C 0.21642 0.31817 0.70556 0.0
H143 H 0.83568 0.17704 0.73241 0.0
H144 H 0.80773 0.19476 0.67995 0.0
H145 H 0.85701 0.23153 0.70251 0.0
H146 H 0.82312 0.2509 0.69022 0.0
C147 C 0.81752 0.2421 0.67812 0.0
O148 O 0.8297 0.22845 0.67595 0.0
H149 H 0.80254 0.2346 0.68125 0.0
C150 C 0.83506 0.18708 0.72012 0.0
C151 C 0.84863 0.20432 0.71889 0.0
C152 C 0.82003 0.18337 0.70628 0.0
C153 C 0.81899 0.19717 0.69092 0.0
C154 C 0.83206 0.21458 0.68983 0.0
C155 C 0.84694 0.21803 0.70363 0.0
H156 H 0.52356 0.57964 0.55863 0.0
H157 H 0.55279 0.52956 0.57062 0.0
H158 H 0.56696 0.56724 0.52124 0.0
H159 H 0.56423 0.52607 0.51494 0.0
C160 C 0.5692 0.52041 0.52907 0.0
O161 O 0.57419 0.53565 0.54064 0.0
H162 H 0.55688 0.51009 0.53526 0.0
C163 C 0.53434 0.57081 0.55508 0.0
C164 C 0.54493 0.57572 0.53848 0.0
C165 C 0.53701 0.55424 0.56685 0.0
C166 C 0.55039 0.54233 0.56172 0.0
C167 C 0.56106 0.547 0.54525 0.0
C168 C 0.55839 0.56367 0.53376 0.0
H169 H 0.57803 0.46487 0.01691 0.0
H170 H 0.52483 0.45574 0.98295 0.0
H171 H 0.5674 0.50591 0.97076 0.0
H172 H 0.52656 0.51297 0.96954 0.0
C173 C 0.51955 0.49944 0.96306 0.0
O174 O 0.53332 0.4874 0.96093 0.0
H175 H 0.5081 0.49197 0.97269 0.0
C176 C 0.56891 0.46937 0.00516 0.0
C177 C 0.5751 0.48677 0.99437 0.0
C178 C 0.55078 0.45799 1.00126 0.0
C179 C 0.53873 0.46435 0.98639 0.0
C180 C 0.54473 0.48167 0.97555 0.0
C181 C 0.56284 0.49276 0.97951 0.0
H182 H 0.69008 0.24013 0.31623 0.0
H183 H 0.71008 0.19428 0.28813 0.0
H184 H 0.74034 0.21512 0.33828 0.0
H185 H 0.76671 0.20716 0.31015 0.0
C186 C 0.75687 0.19623 0.30216 0.0
O187 O 0.73966 0.19087 0.31161 0.0
H188 H 0.75381 0.20319 0.28797 0.0
C189 C 0.70024 0.22982 0.31545 0.0
C190 C 0.71539 0.22927 0.32923 0.0
C191 C 0.69806 0.21723 0.30061 0.0
C192 C 0.71136 0.20397 0.29955 0.0
C193 C 0.7267 0.20343 0.31299 0.0
C194 C 0.7286 0.21593 0.32784 0.0
H195 H 0.46213 0.05919 0.01311 0.0
H196 H 0.47867 0.02356 0.97102 0.0
H197 H 0.51765 0.07416 0.98652 0.0
H198 H 0.51983 0.06866 0.94642 0.0
C199 C 0.51218 0.05344 0.94634 0.0
O200 O 0.51222 0.04494 0.96452 0.0
H201 H 0.4969 0.05408 0.94106 0.0
C202 C 0.47259 0.05614 0.00322 0.0
C203 C 0.49044 0.0687 1.00134 0.0
C204 C 0.46805 0.03977 0.9924 0.0
C205 C 0.4817 0.03609 0.97947 0.0
C206 C 0.49949 0.04847 0.97738 0.0
C207 C 0.50392 0.0646 0.98842 0.0
Mn208 Mn 0.25238 0.88507 0.99609 0.0
Mn209 Mn 0.25388 0.9104 0.95378 0.0
C210 C 0.23921 0.87004 0.96925 0.0
C211 C 0.26562 0.8658 0.02009 0.0
C212 C 0.22558 0.91539 0.98389 0.0
O213 O 0.27372 0.90808 1.00044 0.0
O214 O 0.27404 0.92333 0.97137 0.0
C215 C 0.29297 0.90431 0.94219 0.0
N216 N 0.27335 0.9029 0.9387 0.0
C217 C 0.27629 0.8916 0.90786 0.0
C218 C 0.29654 0.89299 0.91108 0.0
C219 C 0.3049 0.89925 0.92838 0.0
C220 C 0.26513 0.89662 0.92224 0.0
H221 H 0.29949 0.90934 0.95537 0.0
C222 C 0.28062 0.92166 0.98845 0.0
O223 O 0.2526 0.8766 0.02336 0.0
O224 O 0.27124 0.86633 1.0028 0.0
N225 N 0.23547 0.89939 0.93525 0.0
C226 C 0.21561 0.8975 0.93496 0.0
C227 C 0.20491 0.8906 0.91895 0.0
C228 C 0.21475 0.88606 0.90332 0.0
C229 C 0.23522 0.88821 0.90394 0.0
C230 C 0.24507 0.89482 0.92038 0.0
H231 H 0.20801 0.90127 0.94683 0.0
O232 O 0.23329 0.86347 0.98593 0.0
O233 O 0.25252 0.88538 0.96876 0.0
O234 O 0.23119 0.90271 0.99584 0.0
O235 O 0.23311 0.91941 0.96773 0.0
C236 C 0.24623 0.884 0.88892 0.0
C237 C 0.26673 0.88545 0.89096 0.0
H238 H 0.3058 0.88922 0.90041 0.0
H239 H 0.32051 0.90032 0.93099 0.0
H240 H 0.18912 0.88895 0.91859 0.0
H241 H 0.20646 0.88087 0.89095 0.0
H242 H 0.23906 0.8793 0.87584 0.0
H243 H 0.27499 0.88172 0.87947 0.0
Mn244 Mn 0.14876 0.49653 0.26728 0.0
Mn245 Mn 0.13869 0.54274 0.26342 0.0
C246 C 0.16942 0.52112 0.25123 0.0
C247 C 0.16408 0.47154 0.28251 0.0
C248 C 0.1176 0.51087 0.23985 0.0
O249 O 0.12923 0.49631 0.28835 0.0
O250 O 0.12444 0.52774 0.28464 0.0
C251 C 0.15764 0.55606 0.29931 0.0
N252 N 0.15575 0.55823 0.28015 0.0
C253 C 0.17991 0.58698 0.27906 0.0
C254 C 0.18204 0.5851 0.2988 0.0
C255 C 0.1709 0.56955 0.30896 0.0
C256 C 0.16648 0.57309 0.27023 0.0
H257 H 0.14911 0.54412 0.30717 0.0
C258 C 0.12137 0.51072 0.29307 0.0
O259 O 0.14912 0.46783 0.27101 0.0
O260 O 0.16943 0.48966 0.28594 0.0
N261 N 0.15166 0.55899 0.24352 0.0
C262 C 0.14838 0.55828 0.22451 0.0
C263 C 0.15844 0.57277 0.2123 0.0
C264 C 0.17164 0.58788 0.21975 0.0
C265 C 0.17478 0.5883 0.23936 0.0
C266 C 0.16417 0.57359 0.25084 0.0
H267 H 0.13814 0.54679 0.2187 0.0
O268 O 0.16922 0.50307 0.24768 0.0
O269 O 0.15744 0.52425 0.26387 0.0
O270 O 0.12686 0.49733 0.24678 0.0
O271 O 0.12077 0.52818 0.24533 0.0
C272 C 0.18813 0.60264 0.24795 0.0
C273 C 0.19076 0.60193 0.26779 0.0
H274 H 0.19228 0.59545 0.30629 0.0
H275 H 0.17252 0.56796 0.32418 0.0
H276 H 0.15597 0.57233 0.19718 0.0
H277 H 0.17927 0.59908 0.21027 0.0
H278 H 0.19661 0.61415 0.23943 0.0
H279 H 0.20125 0.61288 0.27422 0.0
Mn280 Mn 0.78335 0.63759 0.02174 0.0
Mn281 Mn 0.74263 0.64968 0.99902 0.0
C282 C 0.75386 0.61648 0.02363 0.0
C283 C 0.81193 0.62307 0.02228 0.0
C284 C 0.75946 0.66728 0.0353 0.0
O285 O 0.79414 0.65997 1.00272 0.0
O286 O 0.76609 0.66402 0.98664 0.0
C287 C 0.74663 0.63248 0.96266 0.0
N288 N 0.7359 0.63413 0.97794 0.0
C289 C 0.70826 0.61328 0.96531 0.0
C290 C 0.71889 0.6116 0.94927 0.0
C291 C 0.73823 0.62108 0.94804 0.0
C292 C 0.71752 0.62456 0.97955 0.0
H293 H 0.76148 0.63976 0.96169 0.0
C294 C 0.78465 0.66778 0.98912 0.0
O295 O 0.80983 0.63628 0.03376 0.0
O296 O 0.79779 0.61889 0.01001 0.0
N297 N 0.71864 0.63679 0.00931 0.0
C298 C 0.71068 0.63923 0.02605 0.0
C299 C 0.69166 0.63004 0.02987 0.0
C300 C 0.68085 0.6188 0.01629 0.0
C301 C 0.68922 0.6168 0.99902 0.0
C302 C 0.70832 0.62608 0.99611 0.0
H303 H 0.71877 0.64813 0.03642 0.0
O304 O 0.76772 0.61498 0.03626 0.0
O305 O 0.75774 0.63005 0.01032 0.0
O306 O 0.77326 0.65703 0.03804 0.0
O307 O 0.74791 0.66618 0.02079 0.0
C308 C 0.67932 0.60604 0.98455 0.0
C309 C 0.68887 0.60418 0.96774 0.0
H310 H 0.71241 0.60294 0.93791 0.0
H311 H 0.7466 0.61971 0.9358 0.0
H312 H 0.68528 0.63173 0.0432 0.0
H313 H 0.66615 0.6118 0.01925 0.0
H314 H 0.66446 0.59883 0.98633 0.0
H315 H 0.68124 0.59552 0.95689 0.0
Mn316 Mn 0.88628 0.0211 0.2563 0.0
Mn317 Mn 0.90065 0.97661 0.2599 0.0
C318 C 0.86659 0.99465 0.24392 0.0
C319 C 0.87042 0.04526 0.26765 0.0
C320 C 0.91644 0.00836 0.23087 0.0
O321 O 0.90754 0.02404 0.27719 0.0
O322 O 0.916 0.99403 0.27783 0.0
C323 C 0.88726 0.96474 0.29864 0.0
N324 N 0.88723 0.9612 0.28001 0.0
C325 C 0.86749 0.92996 0.28551 0.0
C326 C 0.86739 0.93321 0.30476 0.0
C327 C 0.87723 0.95074 0.31133 0.0
C328 C 0.87757 0.94454 0.2735 0.0
H329 H 0.89494 0.97811 0.30378 0.0
C330 C 0.91782 0.01117 0.28377 0.0
O331 O 0.88407 0.0494 0.25541 0.0
O332 O 0.86637 0.02713 0.27375 0.0
N333 N 0.88709 0.95784 0.24374 0.0
C334 C 0.88785 0.95735 0.22464 0.0
C335 C 0.87824 0.94103 0.21573 0.0
C336 C 0.86835 0.92521 0.22659 0.0
C337 C 0.86803 0.92592 0.24625 0.0
C338 C 0.87766 0.94266 0.25431 0.0
H339 H 0.89567 0.96936 0.21627 0.0
O340 O 0.86488 0.01229 0.23766 0.0
O341 O 0.87972 0.9929 0.25732 0.0
O342 O 0.90694 0.02127 0.23623 0.0
O343 O 0.91499 0.99112 0.23864 0.0
C344 C 0.85847 0.91072 0.25818 0.0
C345 C 0.858 0.91283 0.27776 0.0
H346 H 0.85976 0.92239 0.31462 0.0
H347 H 0.87718 0.95338 0.32617 0.0
H348 H 0.87857 0.94058 0.20055 0.0
H349 H 0.861 0.91263 0.21967 0.0
H350 H 0.85125 0.8974 0.25244 0.0
H351 H 0.85028 0.90119 0.28672 0.0
Mn352 Mn 0.28474 0.13846 0.52425 0.0
Mn353 Mn 0.24461 0.15297 0.50208 0.0
C354 C 0.255 0.11782 0.52475 0.0
C355 C 0.31297 0.12331 0.52484 0.0
C356 C 0.25974 0.16635 0.54028 0.0
O357 O 0.29665 0.1613 0.50648 0.0
O358 O 0.26868 0.16969 0.49342 0.0
C359 C 0.25255 0.14262 0.46369 0.0
N360 N 0.2403 0.14137 0.47838 0.0
C361 C 0.2146 0.12227 0.46106 0.0
C362 C 0.2269 0.12344 0.44569 0.0
C363 C 0.24598 0.1336 0.44705 0.0
C364 C 0.22199 0.1315 0.47729 0.0
H365 H 0.2672 0.15047 0.46467 0.0
C366 C 0.28729 0.17213 0.49537 0.0
O367 O 0.31075 0.136 0.53682 0.0
O368 O 0.29914 0.11999 0.51207 0.0
N369 N 0.21988 0.13847 0.50865 0.0
C370 C 0.21018 0.13808 0.525 0.0
C371 C 0.19086 0.12856 0.52599 0.0
C372 C 0.18169 0.11965 0.51015 0.0
C373 C 0.19195 0.12025 0.49348 0.0
C374 C 0.21106 0.13023 0.49323 0.0
H375 H 0.21708 0.14512 0.53713 0.0
O376 O 0.26853 0.11575 0.53759 0.0
O377 O 0.25917 0.13194 0.51186 0.0
O378 O 0.27463 0.1574 0.54142 0.0
O379 O 0.24756 0.16538 0.52628 0.0
C380 C 0.18405 0.11119 0.47717 0.0
C381 C 0.19541 0.1121 0.46101 0.0
H382 H 0.22189 0.1165 0.43283 0.0
H383 H 0.25558 0.13451 0.43527 0.0
H384 H 0.18302 0.12815 0.53892 0.0
H385 H 0.1668 0.11227 0.51098 0.0
H386 H 0.16934 0.10327 0.477 0.0
H387 H 0.18928 0.10484 0.44864 0.0
Mn388 Mn 0.38756 0.51908 0.75657 0.0
Mn389 Mn 0.40646 0.4769 0.7615 0.0
C390 C 0.37013 0.49074 0.74521 0.0
C391 C 0.3697 0.54202 0.76732 0.0
C392 C 0.41946 0.50894 0.73167 0.0
O393 O 0.40887 0.52459 0.77719 0.0
O394 O 0.41973 0.49561 0.77934 0.0
C395 C 0.39339 0.46403 0.80014 0.0
N396 N 0.39418 0.46049 0.78159 0.0
C397 C 0.37897 0.42734 0.78738 0.0
C398 C 0.378 0.43058 0.80656 0.0
C399 C 0.3851 0.44906 0.81294 0.0
C400 C 0.38699 0.44293 0.77524 0.0
H401 H 0.39914 0.47812 0.80514 0.0
C402 C 0.42006 0.51289 0.78453 0.0
O403 O 0.38293 0.54671 0.75474 0.0
O404 O 0.36705 0.524 0.774 0.0
N405 N 0.39512 0.45708 0.74541 0.0
C406 C 0.39626 0.45669 0.72634 0.0
C407 C 0.38944 0.43936 0.71761 0.0
C408 C 0.382 0.42254 0.72863 0.0
C409 C 0.38103 0.4233 0.74824 0.0
C410 C 0.38769 0.44105 0.75609 0.0
H411 H 0.40248 0.46944 0.71789 0.0
O412 O 0.36667 0.50776 0.7385 0.0
O413 O 0.38362 0.49071 0.75851 0.0
O414 O 0.40812 0.5206 0.73621 0.0
O415 O 0.42003 0.49234 0.7403 0.0
C416 C 0.37381 0.40713 0.76034 0.0
C417 C 0.37246 0.40922 0.77984 0.0
H418 H 0.37185 0.41899 0.81652 0.0
H419 H 0.3844 0.45168 0.82772 0.0
H420 H 0.39021 0.43889 0.70246 0.0
H421 H 0.37701 0.40913 0.72187 0.0
H422 H 0.36893 0.39308 0.75475 0.0
H423 H 0.36645 0.39679 0.78891 0.0
Mn424 Mn 0.75243 0.38631 0.49717 0.0
Mn425 Mn 0.75151 0.40877 0.45356 0.0
C426 C 0.7382 0.36942 0.47184 0.0
C427 C 0.7674 0.36853 0.52119 0.0
C428 C 0.72519 0.41603 0.48465 0.0
O429 O 0.77368 0.40989 0.49915 0.0
O430 O 0.77307 0.42271 0.46907 0.0
C431 C 0.78926 0.40097 0.44001 0.0
N432 N 0.76947 0.39947 0.43795 0.0
C433 C 0.7695 0.38321 0.40915 0.0
C434 C 0.78989 0.38466 0.41091 0.0
C435 C 0.7998 0.39353 0.42644 0.0
C436 C 0.75978 0.3909 0.4231 0.0
H437 H 0.79694 0.40778 0.45191 0.0
C438 C 0.78029 0.42236 0.48601 0.0
O439 O 0.75454 0.37943 0.52477 0.0
O440 O 0.77187 0.36822 0.50364 0.0
N441 N 0.73153 0.39634 0.43719 0.0
C442 C 0.71177 0.39491 0.43828 0.0
C443 C 0.69966 0.38573 0.42419 0.0
C444 C 0.70799 0.37826 0.40908 0.0
C445 C 0.72836 0.37999 0.40824 0.0
C446 C 0.73969 0.38927 0.42268 0.0
H447 H 0.70529 0.40063 0.44984 0.0
O448 O 0.73313 0.3637 0.48896 0.0
O449 O 0.75108 0.38498 0.47014 0.0
O450 O 0.73105 0.40375 0.4969 0.0
O451 O 0.73213 0.41926 0.46817 0.0
C452 C 0.73786 0.37264 0.39376 0.0
C453 C 0.75842 0.37418 0.39425 0.0
H454 H 0.79807 0.37889 0.4005 0.0
H455 H 0.81553 0.39463 0.42793 0.0
H456 H 0.68395 0.38441 0.42497 0.0
H457 H 0.6986 0.37112 0.39829 0.0
H458 H 0.72948 0.36548 0.38234 0.0
H459 H 0.76552 0.36814 0.38321 0.0
Mn460 Mn 0.64869 0.99873 0.76934 0.0
Mn461 Mn 0.6316 0.04162 0.77026 0.0
C462 C 0.66577 0.02702 0.75512 0.0
C463 C 0.66741 0.97518 0.78209 0.0
C464 C 0.61556 0.01121 0.74301 0.0
O465 O 0.62925 0.99314 0.79074 0.0
O466 O 0.61849 0.02221 0.78912 0.0
C467 C 0.64715 0.05148 0.80842 0.0
N468 N 0.64554 0.0563 0.78956 0.0
C469 C 0.66275 0.08851 0.79341 0.0
C470 C 0.66456 0.08393 0.81289 0.0
C471 C 0.65686 0.06527 0.8204 0.0
C472 C 0.65331 0.07402 0.78213 0.0
H473 H 0.64099 0.03726 0.81428 0.0
C474 C 0.61836 0.0048 0.79619 0.0
O475 O 0.65287 0.97086 0.77027 0.0
O476 O 0.67067 0.99302 0.78698 0.0
N477 N 0.64277 0.06219 0.75302 0.0
C478 C 0.64035 0.06402 0.73388 0.0
C479 C 0.6474 0.08175 0.72411 0.0
C480 C 0.65638 0.09755 0.73416 0.0
C481 C 0.65859 0.09534 0.75389 0.0
C482 C 0.65161 0.07723 0.7628 0.0
H483 H 0.63297 0.05208 0.72615 0.0
O484 O 0.66806 0.01002 0.74994 0.0
O485 O 0.6536 0.02707 0.76858 0.0
O486 O 0.62621 0.9985 0.74922 0.0
O487 O 0.61663 0.02785 0.74979 0.0
C488 C 0.66736 0.11043 0.76507 0.0
C489 C 0.66974 0.10693 0.78477 0.0
H490 H 0.67181 0.09463 0.82221 0.0
H491 H 0.6582 0.06162 0.83541 0.0
H492 H 0.64564 0.08335 0.7089 0.0
H493 H 0.66155 0.11129 0.7266 0.0
H494 H 0.67258 0.12473 0.75862 0.0
H495 H 0.67686 0.11853 0.79314 0.0
Mn496 Mn 0.01176 0.26916 0.88793 0.0
Mn497 Mn 0.96723 0.26241 0.90698 0.0
C498 C 0.98513 0.25172 0.87258 0.0
C499 C 0.03636 0.28535 0.86849 0.0
C500 C 0.99903 0.23901 0.92054 0.0
O501 O 0.01469 0.29065 0.90664 0.0
O502 O 0.98478 0.28374 0.91889 0.0
C503 C 0.95517 0.30015 0.89332 0.0
N504 N 0.95173 0.28033 0.89464 0.0
C505 C 0.92016 0.28008 0.87916 0.0
C506 C 0.92333 0.3005 0.87769 0.0
C507 C 0.94097 0.31057 0.88469 0.0
C508 C 0.93496 0.2705 0.88765 0.0
H509 H 0.96861 0.30796 0.89889 0.0
C510 C 1.00184 0.29379 0.91804 0.0
O511 O 0.04014 0.27376 0.88281 0.0
O512 O 0.01837 0.28847 0.86606 0.0
N513 N 0.94849 0.24251 0.89676 0.0
C514 C 0.94818 0.22285 0.89838 0.0
C515 C 0.93173 0.21064 0.89163 0.0
C516 C 0.91565 0.21874 0.88366 0.0
C517 C 0.91629 0.23903 0.88221 0.0
C518 C 0.93317 0.25046 0.88893 0.0
H519 H 0.96036 0.21654 0.90482 0.0
O520 O 1.0028 0.24882 0.86966 0.0
O521 O 0.98344 0.26458 0.88462 0.0
O522 O 0.01194 0.24812 0.90962 0.0
O523 O 0.98164 0.24294 0.92054 0.0
C524 C 0.90085 0.24836 0.87437 0.0
C525 C 0.90288 0.26887 0.8726 0.0
H526 H 0.91235 0.30859 0.87117 0.0
H527 H 0.94355 0.32633 0.88359 0.0
H528 H 0.93136 0.195 0.89277 0.0
H529 H 0.90291 0.20926 0.87864 0.0
H530 H 0.88744 0.2399 0.86939 0.0
H531 H 0.89106 0.27586 0.86618 0.0
Mn532 Mn 0.5158 0.77133 0.3858 0.0
Mn533 Mn 0.46998 0.76304 0.40207 0.0
C534 C 0.4906 0.75359 0.36889 0.0
C535 C 0.54094 0.78839 0.36754 0.0
C536 C 0.50219 0.74105 0.41795 0.0
O537 O 0.51665 0.79243 0.40482 0.0
O538 O 0.48557 0.78538 0.41431 0.0
C539 C 0.45638 0.79945 0.38651 0.0
N540 N 0.45419 0.77964 0.38806 0.0
C541 C 0.42454 0.77728 0.36892 0.0
C542 C 0.42644 0.79766 0.3672 0.0
C543 C 0.44247 0.80879 0.37597 0.0
C544 C 0.4389 0.7688 0.37955 0.0
H545 H 0.46863 0.80807 0.39329 0.0
C546 C 0.50256 0.79566 0.41474 0.0
O547 O 0.54444 0.77689 0.38204 0.0
O548 O 0.5229 0.7911 0.36445 0.0
N549 N 0.45327 0.74203 0.3911 0.0
C550 C 0.4542 0.72257 0.39322 0.0
C551 C 0.43958 0.70944 0.38475 0.0
C552 C 0.42405 0.7164 0.37442 0.0
C553 C 0.42333 0.73647 0.37259 0.0
C554 C 0.43836 0.74887 0.38124 0.0
H555 H 0.46605 0.71713 0.40123 0.0
O556 O 0.50859 0.7512 0.36684 0.0
O557 O 0.48785 0.76596 0.38101 0.0
O558 O 0.51537 0.75002 0.40725 0.0
O559 O 0.4847 0.74482 0.41726 0.0
C560 C 0.40836 0.74466 0.36239 0.0
C561 C 0.40905 0.76506 0.36041 0.0
H562 H 0.41574 0.80492 0.35909 0.0
H563 H 0.44407 0.82453 0.37466 0.0
H564 H 0.44026 0.69397 0.38621 0.0
H565 H 0.41281 0.70623 0.36789 0.0
H566 H 0.39638 0.73541 0.35578 0.0
H567 H 0.39765 0.77119 0.35222 0.0
Mn568 Mn 0.01602 0.75436 0.64174 0.0
Mn569 Mn 0.99398 0.71086 0.66008 0.0
C570 C 0.01636 0.72646 0.62574 0.0
C571 C 0.01576 0.78374 0.62366 0.0
C572 C 0.03372 0.72993 0.67392 0.0
O573 O 0.99839 0.76224 0.66132 0.0
O574 O 0.98451 0.73246 0.67224 0.0
C575 C 0.95381 0.71402 0.64563 0.0
N576 N 0.96944 0.7042 0.6471 0.0
C577 C 0.95212 0.67812 0.62978 0.0
C578 C 0.93579 0.68789 0.62816 0.0
C579 C 0.93668 0.70597 0.63605 0.0
C580 C 0.96883 0.68692 0.63937 0.0
H581 H 0.95439 0.72787 0.65175 0.0
C582 C 0.98664 0.75107 0.67211 0.0
O583 O 0.02869 0.7818 0.63713 0.0
O584 O 1.00262 0.76872 0.62096 0.0
N585 N 1.00131 0.68845 0.64972 0.0
C586 C 0.01857 0.68128 0.65187 0.0
C587 C 0.02029 0.66352 0.64431 0.0
C588 C 0.00416 0.65314 0.63499 0.0
C589 C 0.98644 0.66064 0.63325 0.0
C590 C 0.98565 0.67848 0.64092 0.0
H591 H 0.03095 0.6891 0.6592 0.0
O592 O 0.02933 0.74172 0.62256 0.0
O593 O 1.00334 0.72799 0.63807 0.0
O594 O 0.03443 0.74515 0.66271 0.0
O595 O 0.01927 0.71617 0.67414 0.0
C596 C 0.96957 0.65119 0.62411 0.0
C597 C 0.95249 0.66 0.62221 0.0
H598 H 0.92253 0.6817 0.62084 0.0
H599 H 0.92416 0.71364 0.63481 0.0
H600 H 0.034 0.6578 0.64575 0.0
H601 H 0.00555 0.63945 0.62917 0.0
H602 H 0.96962 0.6372 0.61836 0.0
H603 H 0.93973 0.65274 0.61488 0.0
Mn604 Mn 0.51425 0.25448 0.1409 0.0
Mn605 Mn 0.49292 0.21067 0.15921 0.0
C606 C 0.51508 0.22667 0.12489 0.0
C607 C 0.5136 0.28382 0.12287 0.0
C608 C 0.53246 0.23023 0.17293 0.0
O609 O 0.49638 0.26203 0.16041 0.0
O610 O 0.48336 0.23208 0.17162 0.0
C611 C 0.45254 0.21357 0.1452 0.0
N612 N 0.46827 0.20387 0.14646 0.0
C613 C 0.45089 0.17769 0.12931 0.0
C614 C 0.43447 0.18734 0.12791 0.0
C615 C 0.43534 0.20541 0.13581 0.0
C616 C 0.46767 0.18661 0.1387 0.0
H617 H 0.4531 0.22741 0.15133 0.0
C618 C 0.48504 0.25068 0.1714 0.0
O619 O 0.52653 0.28205 0.13637 0.0
O620 O 0.5007 0.26863 0.12008 0.0
N621 N 0.50029 0.18838 0.14866 0.0
C622 C 0.51763 0.18134 0.15058 0.0
C623 C 0.51937 0.1636 0.143 0.0
C624 C 0.50316 0.15309 0.13389 0.0
C625 C 0.48538 0.16047 0.13236 0.0
C626 C 0.48457 0.1783 0.14004 0.0
H627 H 0.53007 0.18926 0.15775 0.0
O628 O 0.52788 0.24209 0.12177 0.0
O629 O 0.50197 0.22796 0.13719 0.0
O630 O 0.53273 0.24559 0.16197 0.0
O631 O 0.51834 0.21613 0.17299 0.0
C632 C 0.46844 0.1509 0.12342 0.0
C633 C 0.45128 0.15959 0.12172 0.0
H634 H 0.42115 0.18105 0.12074 0.0
H635 H 0.42276 0.21298 0.13474 0.0
H636 H 0.53314 0.15798 0.14426 0.0
H637 H 0.50456 0.13941 0.12806 0.0
H638 H 0.46849 0.13692 0.11764 0.0
H639 H 0.43846 0.15224 0.11454 0.0
H640 H 0.24755 0.74613 0.84534 0.0
H641 H 0.25101 0.77046 0.86908 0.0
H642 H 0.18943 0.75702 0.87945 0.0
H643 H 0.1859 0.73251 0.85595 0.0
H644 H 0.23016 0.80328 0.86703 0.0
H645 H 0.21551 0.75666 0.93315 0.0
H646 H 0.22249 0.74729 0.91174 0.0
H647 H 0.19795 0.752 0.91405 0.0
C648 C 0.23482 0.74809 0.85294 0.0
C649 C 0.21645 0.73738 0.84874 0.0
C650 C 0.2368 0.76206 0.86643 0.0
C651 C 0.22052 0.76542 0.87617 0.0
C652 C 0.20225 0.75448 0.87232 0.0
H653 H 0.20454 0.84867 0.95904 0.0
H654 H 0.19905 0.82398 0.93549 0.0
C655 C 0.20023 0.7406 0.85875 0.0
C656 C 0.2224 0.78131 0.88936 0.0
H657 H 0.21811 0.79076 0.93548 0.0
C658 C 0.22763 0.80054 0.88202 0.0
C659 C 0.2188 0.77772 0.90885 0.0
C660 C 0.21351 0.7573 0.91753 0.0
C661 C 0.22927 0.81628 0.89361 0.0
C662 C 0.22604 0.81275 0.91316 0.0
C663 C 0.2206 0.7935 0.92049 0.0
C664 C 0.22889 0.82876 0.92633 0.0
C665 C 0.23387 0.83663 0.88474 0.0
C666 C 0.24744 0.83969 0.92899 0.0
C667 C 0.25056 0.85372 0.94242 0.0
C668 C 0.23515 0.85733 0.95327 0.0
C669 C 0.21656 0.84648 0.95054 0.0
C670 C 0.21345 0.83235 0.93716 0.0
H671 H 0.2316 0.83715 0.86915 0.0
H672 H 0.2245 0.8462 0.89064 0.0
H673 H 0.24938 0.84239 0.88795 0.0
H674 H 0.25972 0.83687 0.9212 0.0
H675 H 0.26524 0.86115 0.94487 0.0
H676 H 1.00073 0.53565 0.41373 0.0
H677 H 0.0201 0.52206 0.39141 0.0
H678 H 0.07162 0.53587 0.42698 0.0
H679 H 0.05223 0.54995 0.44917 0.0
H680 H 0.07809 0.54931 0.39165 0.0
H681 H 0.04335 0.47264 0.39013 0.0
H682 H 0.02568 0.48894 0.38602 0.0
H683 H 0.03882 0.48803 0.40842 0.0
C684 C 0.01611 0.53543 0.41696 0.0
C685 C 0.02499 0.54379 0.43321 0.0
C686 C 0.02716 0.5275 0.40426 0.0
C687 C 0.04731 0.52758 0.40761 0.0
C688 C 0.05609 0.53546 0.42414 0.0
H689 H 0.12202 0.48579 0.32508 0.0
H690 H 0.10467 0.48737 0.35443 0.0
C691 C 0.04503 0.54347 0.43682 0.0
C692 C 0.05945 0.52156 0.39285 0.0
H693 H 0.06205 0.48573 0.36278 0.0
C694 C 0.07478 0.53525 0.38562 0.0
C695 C 0.05537 0.50314 0.38502 0.0
C696 C 0.04004 0.48728 0.39295 0.0
C697 C 0.08533 0.53148 0.37019 0.0
C698 C 0.08028 0.51366 0.36149 0.0
C699 C 0.06574 0.49949 0.36932 0.0
C700 C 0.0889 0.51049 0.34335 0.0
C701 C 0.10154 0.54686 0.36299 0.0
C702 C 0.08514 0.52233 0.32726 0.0
C703 C 0.09494 0.52148 0.31066 0.0
C704 C 0.10868 0.50864 0.30966 0.0
C705 C 0.11149 0.49579 0.32539 0.0
C706 C 0.10166 0.49673 0.34217 0.0
H707 H 0.10714 0.55705 0.37399 0.0
H708 H 0.11388 0.54015 0.35814 0.0
H709 H 0.09587 0.55547 0.35081 0.0
H710 H 0.07509 0.5328 0.32776 0.0
H711 H 0.09221 0.53141 0.29875 0.0
H712 H 0.78786 0.79574 0.86094 0.0
H713 H 0.78824 0.77301 0.88873 0.0
H714 H 0.85107 0.77981 0.88824 0.0
H715 H 0.85093 0.80299 0.86072 0.0
H716 H 0.83238 0.74047 0.89055 0.0
H717 H 0.80543 0.78334 0.94413 0.0
H718 H 0.79068 0.78204 0.92272 0.0
H719 H 0.81543 0.79432 0.92214 0.0
C720 C 0.80181 0.79277 0.86693 0.0
C721 C 0.81937 0.80129 0.85851 0.0
C722 C 0.80199 0.77971 0.88284 0.0
C723 C 0.8197 0.77488 0.89071 0.0
C724 C 0.83724 0.78338 0.88245 0.0
H725 H 0.81661 0.6959 0.99474 0.0
H726 H 0.82962 0.72254 0.97182 0.0
C727 C 0.8371 0.79654 0.86661 0.0
C728 C 0.81971 0.76007 0.90685 0.0
H729 H 0.80374 0.74902 0.95176 0.0
C730 C 0.82644 0.74247 0.90405 0.0
C731 C 0.81221 0.76276 0.92456 0.0
C732 C 0.80569 0.78171 0.9287 0.0
C733 C 0.82471 0.72706 0.91806 0.0
C734 C 0.81603 0.72931 0.93529 0.0
C735 C 0.8104 0.74731 0.93854 0.0
C736 C 0.81009 0.71242 0.94882 0.0
C737 C 0.83159 0.70824 0.91412 0.0
C738 C 0.795 0.69794 0.94343 0.0
C739 C 0.78749 0.68304 0.95642 0.0
C740 C 0.79499 0.68209 0.97512 0.0
C741 C 0.8107 0.69613 0.98038 0.0
C742 C 0.81805 0.71137 0.96735 0.0
H743 H 0.84251 0.71044 0.90285 0.0
H744 H 0.83812 0.70159 0.92707 0.0
H745 H 0.81891 0.69781 0.90933 0.0
H746 H 0.78848 0.69859 0.92931 0.0
H747 H 0.77535 0.67252 0.95189 0.0
H748 H 0.03036 0.02942 0.43626 0.0
H749 H 0.0139 0.03681 0.4059 0.0
H750 H 0.97746 0.98084 0.41117 0.0
H751 H 0.99368 0.97361 0.44166 0.0
H752 H 0.01079 0.01832 0.37298 0.0
H753 H 0.93727 0.0176 0.40095 0.0
H754 H 0.95895 0.01831 0.41604 0.0
H755 H 0.9471 0.99559 0.40757 0.0
C756 C 0.01875 0.01878 0.43094 0.0
C757 C 0.01298 1.00111 0.44142 0.0
C758 C 0.00939 0.02299 0.41361 0.0
C759 C 0.99411 0.00959 0.40646 0.0
C760 C 0.9888 0.99165 0.41665 0.0
H761 H 0.94713 0.99097 0.29615 0.0
H762 H 0.96677 0.99418 0.32521 0.0
C763 C 0.99814 0.98746 0.43397 0.0
C764 C 0.98403 0.01409 0.38814 0.0
H765 H 0.93884 0.01574 0.36748 0.0
C766 C 0.99508 0.01799 0.37181 0.0
C767 C 0.96359 0.01411 0.38662 0.0
C768 C 0.95105 0.01139 0.40376 0.0
C769 C 0.98613 0.02087 0.35392 0.0
C770 C 0.96555 0.0195 0.35227 0.0
C771 C 0.9546 0.01663 0.3687 0.0
C772 C 0.95493 0.0192 0.33363 0.0
C773 C 0.99882 0.02516 0.33694 0.0
C774 C 0.94158 0.03218 0.32861 0.0
C775 C 0.93014 0.03034 0.31187 0.0
C776 C 0.93168 0.01529 0.30002 0.0
C777 C 0.94551 0.00273 0.30489 0.0
C778 C 0.95691 0.00463 0.32149 0.0
H779 H 0.01375 0.03224 0.34094 0.0
H780 H 1.00023 0.01129 0.33067 0.0
H781 H 0.99241 0.03475 0.326 0.0
H782 H 0.93971 0.04345 0.33785 0.0
H783 H 0.91955 0.04015 0.30864 0.0
H784 H 0.21521 0.29581 0.64161 0.0
H785 H 0.22849 0.27391 0.62172 0.0
H786 H 0.21433 0.22643 0.66356 0.0
H787 H 0.20059 0.2483 0.68333 0.0
H788 H 0.25789 0.25117 0.62698 0.0
H789 H 0.18596 0.20517 0.61649 0.0
H790 H 0.18843 0.22829 0.62701 0.0
H791 H 0.19412 0.20705 0.64071 0.0
C792 C 0.21509 0.28073 0.64663 0.0
C793 C 0.20688 0.27373 0.66402 0.0
C794 C 0.2227 0.26823 0.63527 0.0
C795 C 0.22218 0.24844 0.64099 0.0
C796 C 0.21458 0.24155 0.65866 0.0
H797 H 0.27902 0.17023 0.57502 0.0
H798 H 0.27123 0.18924 0.6008 0.0
C799 C 0.20688 0.25405 0.67001 0.0
C800 C 0.22887 0.23502 0.62803 0.0
H801 H 0.21284 0.19575 0.60224 0.0
C802 C 0.24809 0.23896 0.62166 0.0
C803 C 0.21602 0.2192 0.62094 0.0
C804 C 0.19493 0.21471 0.62647 0.0
C805 C 0.2547 0.22772 0.6082 0.0
C806 C 0.24183 0.21192 0.60112 0.0
C807 C 0.22274 0.20777 0.60777 0.0
C808 C 0.24717 0.20053 0.58562 0.0
C809 C 0.27514 0.23336 0.60111 0.0
C810 C 0.23611 0.20029 0.56863 0.0
C811 C 0.24039 0.18938 0.55401 0.0
C812 C 0.25589 0.17833 0.55593 0.0
C813 C 0.26707 0.17863 0.57296 0.0
C814 C 0.26269 0.18957 0.5877 0.0
H815 H 0.28168 0.24818 0.60497 0.0
H816 H 0.28453 0.22288 0.60746 0.0
H817 H 0.27521 0.23286 0.58552 0.0
H818 H 0.22407 0.20861 0.56666 0.0
H819 H 0.23141 0.1896 0.54117 0.0
H820 H 0.53018 0.57914 0.59314 0.0
H821 H 0.51075 0.57165 0.62147 0.0
H822 H 0.49889 0.51129 0.60874 0.0
H823 H 0.51819 0.51869 0.58023 0.0
H824 H 0.46496 0.5294 0.61781 0.0
H825 H 0.52615 0.5403 0.67098 0.0
H826 H 0.52554 0.55951 0.65275 0.0
H827 H 0.52983 0.53593 0.6467 0.0
C828 C 0.52342 0.56427 0.59635 0.0
C829 C 0.52574 0.5495 0.58442 0.0
C830 C 0.51244 0.56 0.61261 0.0
C831 C 0.50352 0.5409 0.61728 0.0
C832 C 0.50575 0.52612 0.60543 0.0
H833 H 0.4487 0.49035 0.72029 0.0
H834 H 0.46881 0.49859 0.69261 0.0
C835 C 0.51687 0.53034 0.58922 0.0
C836 C 0.49151 0.53646 0.63432 0.0
H837 H 0.4941 0.53514 0.68255 0.0
C838 C 0.47131 0.53064 0.63197 0.0
C839 C 0.49986 0.53799 0.65277 0.0
C840 C 0.52156 0.54363 0.65608 0.0
C841 C 0.4592 0.52652 0.6476 0.0
C842 C 0.46751 0.52835 0.66604 0.0
C843 C 0.48774 0.53393 0.66839 0.0
C844 C 0.4555 0.52385 0.68308 0.0
C845 C 0.43764 0.51993 0.64432 0.0
C846 C 0.44151 0.53552 0.68708 0.0
C847 C 0.43001 0.53094 0.70301 0.0
C848 C 0.43223 0.51453 0.71522 0.0
C849 C 0.44649 0.50306 0.71123 0.0
C850 C 0.45805 0.50774 0.6954 0.0
H851 H 0.43413 0.5158 0.6296 0.0
H852 H 0.43243 0.5073 0.65419 0.0
H853 H 0.42948 0.53195 0.64704 0.0
H854 H 0.43947 0.54816 0.67785 0.0
H855 H 0.4192 0.5401 0.7056 0.0
H856 H 0.80945 0.27917 0.67596 0.0
H857 H 0.80381 0.30018 0.64782 0.0
H858 H 0.81623 0.25587 0.61247 0.0
H859 H 0.82118 0.23452 0.64064 0.0
H860 H 0.82681 0.31586 0.61935 0.0
H861 H 0.76383 0.266 0.591 0.0
H862 H 0.77416 0.26218 0.61444 0.0
H863 H 0.78586 0.25537 0.59429 0.0
C864 C 0.81118 0.27402 0.66217 0.0
C865 C 0.81615 0.25539 0.66052 0.0
C866 C 0.80793 0.286 0.6461 0.0
C867 C 0.80939 0.27956 0.628 0.0
C868 C 0.81467 0.26105 0.62628 0.0
H869 H 0.78886 0.3391 0.5175 0.0
H870 H 0.80087 0.31763 0.54279 0.0
C871 C 0.81774 0.24895 0.64239 0.0
C872 C 0.80505 0.29222 0.61107 0.0
H873 H 0.77452 0.29468 0.57217 0.0
C874 C 0.81542 0.31118 0.60902 0.0
C875 C 0.79012 0.28616 0.59758 0.0
C876 C 0.77771 0.26639 0.59947 0.0
C877 C 0.81117 0.32425 0.59397 0.0
C878 C 0.79617 0.31822 0.58065 0.0
C879 C 0.7861 0.29917 0.5824 0.0
C880 C 0.78994 0.33181 0.56541 0.0
C881 C 0.82263 0.34447 0.59244 0.0
C882 C 0.77983 0.34685 0.5698 0.0
C883 C 0.77282 0.35899 0.55543 0.0
C884 C 0.77588 0.35639 0.53638 0.0
C885 C 0.78635 0.34153 0.53204 0.0
C886 C 0.79318 0.32924 0.54644 0.0
H887 H 0.83613 0.34566 0.60156 0.0
H888 H 0.82669 0.3487 0.57759 0.0
H889 H 0.81343 0.355 0.59687 0.0
H890 H 0.77702 0.34892 0.58436 0.0
H891 H 0.76481 0.37029 0.55925 0.0
H892 H 0.47966 0.99387 0.61215 0.0
H893 H 0.50091 0.99644 0.6406 0.0
H894 H 0.55014 0.98939 0.60791 0.0
H895 H 0.52918 0.98736 0.57936 0.0
H896 H 0.52433 0.96973 0.65794 0.0
H897 H 0.56916 0.03959 0.63449 0.0
H898 H 0.54614 0.03063 0.62304 0.0
H899 H 0.56784 0.0208 0.61819 0.0
C900 C 0.49505 0.99308 0.61096 0.0
C901 C 0.50269 0.99051 0.5934 0.0
C902 C 0.50715 0.99439 0.62728 0.0
C903 C 0.52717 0.99332 0.62638 0.0
C904 C 0.5348 0.99053 0.60893 0.0
H905 H 0.60937 0.97864 0.72219 0.0
H906 H 0.58778 0.97324 0.6942 0.0
C907 C 0.52273 0.98919 0.59263 0.0
C908 C 0.54009 0.99524 0.64364 0.0
H909 H 0.57963 0.02358 0.66272 0.0
C910 C 0.53643 0.98149 0.65901 0.0
C911 C 0.55577 0.01069 0.64508 0.0
C912 C 0.55992 0.02639 0.62941 0.0
C913 C 0.54811 0.98273 0.67572 0.0
C914 C 0.564 0.998 0.67702 0.0
C915 C 0.56757 0.01177 0.66167 0.0
C916 C 0.57657 1.00061 0.69445 0.0
C917 C 0.54306 0.96797 0.692 0.0
C918 C 0.57763 0.01783 0.70381 0.0
C919 C 0.58997 0.021 0.71971 0.0
C920 C 0.60171 0.00704 0.72666 0.0
C921 C 0.6005 0.98966 0.71735 0.0
C922 C 0.58809 0.98651 0.70138 0.0
H923 H 0.52801 0.95997 0.69037 0.0
H924 H 0.55339 0.95719 0.69268 0.0
H925 H 0.54437 0.97509 0.7056 0.0
H926 H 0.56893 0.02894 0.69874 0.0
H927 H 0.59044 0.03458 0.72639 0.0
H928 H 0.85974 0.23857 0.73579 0.0
H929 H 0.88358 0.24496 0.76179 0.0
H930 H 0.89519 0.18575 0.76304 0.0
H931 H 0.87159 0.17931 0.73673 0.0
H932 H 0.881 0.22429 0.79792 0.0
H933 H 0.95042 0.21872 0.76353 0.0
H934 H 0.92841 0.22262 0.7502 0.0
H935 H 0.9309 0.19887 0.76068 0.0
C936 C 0.86762 0.227 0.74133 0.0
C937 C 0.86381 0.20844 0.73413 0.0
C938 C 0.88117 0.23065 0.75626 0.0
C939 C 0.89132 0.21591 0.7642 0.0
C940 C 0.88775 0.19743 0.75692 0.0
H941 H 0.97717 0.21592 0.85833 0.0
H942 H 0.95338 0.20585 0.83292 0.0
C943 C 0.87413 0.19372 0.74202 0.0
C944 C 0.90461 0.21959 0.78089 0.0
H945 H 0.95228 0.22288 0.79636 0.0
C946 C 0.8966 0.22402 0.79758 0.0
C947 C 0.9249 0.21899 0.78046 0.0
C948 C 0.93428 0.21469 0.76274 0.0
C949 C 0.90831 0.22788 0.81386 0.0
C950 C 0.92868 0.22776 0.81339 0.0
C951 C 0.93667 0.223 0.79675 0.0
C952 C 0.94202 0.23325 0.82974 0.0
C953 C 0.89869 0.23162 0.83156 0.0
C954 C 0.94355 0.25196 0.83643 0.0
C955 C 0.95705 0.25766 0.85091 0.0
C956 C 0.96918 0.24473 0.85913 0.0
C957 C 0.96767 0.22601 0.85248 0.0
C958 C 0.95416 0.22029 0.83796 0.0
H959 H 0.88272 0.22644 0.83102 0.0
H960 H 0.90528 0.2242 0.84398 0.0
H961 H 0.90089 0.2475 0.83339 0.0
H962 H 0.93478 0.26242 0.82999 0.0
H963 H 0.95854 0.27246 0.85516 0.0
H964 H 0.52877 0.95488 0.50586 0.0
H965 H 0.53249 0.92669 0.48823 0.0
H966 H 0.47086 0.90601 0.49256 0.0
H967 H 0.46702 0.93448 0.50975 0.0
H968 H 0.52568 0.88751 0.49685 0.0
H969 H 0.47764 0.90663 0.43637 0.0
H970 H 0.48604 0.92334 0.45428 0.0
H971 H 0.46556 0.9045 0.45843 0.0
C972 C 0.51605 0.94421 0.50318 0.0
C973 C 0.49765 0.94673 0.50945 0.0
C974 C 0.51819 0.92812 0.49308 0.0
C975 C 0.50193 0.91432 0.4888 0.0
C976 C 0.48358 0.91664 0.49533 0.0
H977 H 0.4759 0.80582 0.43799 0.0
H978 H 0.47814 0.83476 0.45561 0.0
C979 C 0.48141 0.93279 0.50535 0.0
C980 C 0.50413 0.89761 0.4774 0.0
H981 H 0.48636 0.87464 0.4379 0.0
C982 C 0.51724 0.88482 0.48386 0.0
C983 C 0.4933 0.89417 0.4603 0.0
C984 C 0.48 0.908 0.45182 0.0
C985 C 0.51915 0.86828 0.47411 0.0
C986 C 0.50775 0.8645 0.45745 0.0
C987 C 0.49506 0.87754 0.45073 0.0
C988 C 0.50752 0.84635 0.44752 0.0
C989 C 0.53277 0.85455 0.48201 0.0
C990 C 0.52346 0.84308 0.43716 0.0
C991 C 0.52225 0.82638 0.42685 0.0
C992 C 0.50507 0.81268 0.42675 0.0
C993 C 0.4894 0.81594 0.43758 0.0
C994 C 0.4906 0.83255 0.44773 0.0
H995 H 0.53898 0.85838 0.49617 0.0
H996 H 0.52497 0.83938 0.48309 0.0
H997 H 0.545 0.855 0.4723 0.0
H998 H 0.53662 0.85366 0.43667 0.0
H999 H 0.53457 0.82443 0.41865 0.0
H1000 H 0.16721 0.28114 0.74944 0.0
H1001 H 0.14083 0.2784 0.77181 0.0
H1002 H 0.13626 0.33916 0.75996 0.0
H1003 H 0.1624 0.34198 0.73739 0.0
H1004 H 0.13871 0.3283 0.7986 0.0
H1005 H 0.08188 0.27816 0.76187 0.0
H1006 H 0.10511 0.26966 0.76499 0.0
H1007 H 0.10299 0.29126 0.7501 0.0
C1008 C 0.16035 0.29384 0.75131 0.0
C1009 C 0.167 0.31179 0.74161 0.0
C1010 C 0.14527 0.29225 0.76413 0.0
C1011 C 0.13645 0.30855 0.76746 0.0
C1012 C 0.14286 0.3264 0.75763 0.0
H1013 H 0.03145 0.3035 0.83346 0.0
H1014 H 0.05571 0.31122 0.8088 0.0
C1015 C 0.15788 0.328 0.74479 0.0
C1016 C 0.12119 0.30722 0.78182 0.0
H1017 H 0.07599 0.28373 0.79369 0.0
C1018 C 0.12494 0.31864 0.79747 0.0
C1019 C 0.10312 0.29482 0.78022 0.0
C1020 C 0.09789 0.28289 0.76331 0.0
C1021 C 0.11137 0.31757 0.81183 0.0
C1022 C 0.09364 0.3046 0.8106 0.0
C1023 C 0.08963 0.2936 0.79468 0.0
C1024 C 0.07939 0.30163 0.82601 0.0
C1025 C 0.1161 0.33038 0.82817 0.0
C1026 C 0.08469 0.29388 0.84392 0.0
C1027 C 0.07089 0.28946 0.858 0.0
C1028 C 0.05146 0.29267 0.85447 0.0
C1029 C 0.04632 0.301 0.83669 0.0
C1030 C 0.06013 0.30532 0.82256 0.0
H1031 H 0.12741 0.34304 0.82456 0.0
H1032 H 0.10285 0.33582 0.83266 0.0
H1033 H 0.12182 0.32178 0.84033 0.0
H1034 H 0.09936 0.29061 0.84683 0.0
H1035 H 0.07532 0.28296 0.87148 0.0
H1036 H 0.5392 0.61152 0.54919 0.0
H1037 H 0.53201 0.6396 0.529 0.0
H1038 H 0.53707 0.60832 0.47957 0.0
H1039 H 0.54341 0.57982 0.49967 0.0
H1040 H 0.55313 0.66222 0.50224 0.0
H1041 H 0.4842 0.6259 0.46994 0.0
H1042 H 0.49615 0.61519 0.49023 0.0
H1043 H 0.50476 0.61364 0.46691 0.0
C1044 C 0.53855 0.61048 0.53403 0.0
C1045 C 0.54167 0.59326 0.5261 0.0
C1046 C 0.53459 0.62664 0.52249 0.0
C1047 C 0.53363 0.62599 0.50276 0.0
C1048 C 0.53729 0.60905 0.49476 0.0
H1049 H 0.53678 0.72621 0.42169 0.0
H1050 H 0.54447 0.6988 0.4425 0.0
C1051 C 0.54118 0.59283 0.5063 0.0
C1052 C 0.5289 0.6431 0.49064 0.0
H1053 H 0.49665 0.65738 0.45669 0.0
C1054 C 0.54076 0.66117 0.49231 0.0
C1055 C 0.51256 0.64182 0.47789 0.0
C1056 C 0.49856 0.62315 0.47623 0.0
C1057 C 0.5369 0.6779 0.48141 0.0
C1058 C 0.52098 0.67647 0.46817 0.0
C1059 C 0.50896 0.65846 0.46671 0.0
C1060 C 0.51644 0.69346 0.45576 0.0
C1061 C 0.5497 0.69703 0.48449 0.0
C1062 C 0.49794 0.69937 0.45592 0.0
C1063 C 0.49339 0.71497 0.44387 0.0
C1064 C 0.50724 0.72499 0.43133 0.0
C1065 C 0.52578 0.71901 0.43125 0.0
C1066 C 0.53027 0.70336 0.44324 0.0
H1067 H 0.55732 0.69685 0.49856 0.0
H1068 H 0.561 0.69978 0.4736 0.0
H1069 H 0.54106 0.70928 0.4833 0.0
H1070 H 0.48698 0.6919 0.46539 0.0
H1071 H 0.47895 0.71906 0.44432 0.0
H1072 H 0.85566 0.77941 0.78385 0.0
H1073 H 0.88287 0.77165 0.7662 0.0
H1074 H 0.89088 0.8298 0.73963 0.0
H1075 H 0.86361 0.83761 0.75734 0.0
H1076 H 0.88322 0.77383 0.72584 0.0
H1077 H 0.94707 0.8208 0.75673 0.0
H1078 H 0.92423 0.81449 0.76866 0.0
H1079 H 0.92639 0.83257 0.74927 0.0
C1080 C 0.86338 0.79059 0.7744 0.0
C1081 C 0.85745 0.80905 0.77178 0.0
C1082 C 0.87891 0.78615 0.76434 0.0
C1083 C 0.88898 0.80016 0.75166 0.0
C1084 C 0.8835 0.81884 0.74951 0.0
H1085 H 0.9803 0.78929 0.67222 0.0
H1086 H 0.95702 0.8023 0.69122 0.0
C1087 C 0.8679 0.82326 0.75954 0.0
C1088 C 0.90415 0.79466 0.73973 0.0
H1089 H 0.95293 0.80317 0.73076 0.0
C1090 C 0.89846 0.78024 0.72693 0.0
C1091 C 0.92399 0.80322 0.74099 0.0
C1092 C 0.93092 0.81854 0.75473 0.0
C1093 C 0.91203 0.77405 0.71544 0.0
C1094 C 0.93199 0.78215 0.71708 0.0
C1095 C 0.93766 0.79691 0.72957 0.0
C1096 C 0.94716 0.77481 0.70647 0.0
C1097 C 0.9048 0.75899 0.70148 0.0
C1098 C 0.94978 0.75521 0.70914 0.0
C1099 C 0.96294 0.74773 0.69831 0.0
C1100 C 0.97401 0.75973 0.68464 0.0
C1101 C 0.97201 0.77961 0.68257 0.0
C1102 C 0.9587 0.78708 0.69341 0.0
H1103 H 0.88897 0.75862 0.698 0.0
H1104 H 0.91295 0.76186 0.68819 0.0
H1105 H 0.90697 0.74438 0.70773 0.0
H1106 H 0.9414 0.74556 0.71945 0.0
H1107 H 0.96421 0.73241 0.70053 0.0
H1108 H 0.01749 0.94277 0.51361 0.0
H1109 H 0.008 0.91323 0.53401 0.0
H1110 H 0.06684 0.90009 0.53381 0.0
H1111 H 0.07632 0.92925 0.51311 0.0
H1112 H 0.03776 0.86782 0.52791 0.0
H1113 H 0.02356 0.90655 0.59064 0.0
H1114 H 0.01076 0.91298 0.56913 0.0
H1115 H 0.0369 0.91867 0.57079 0.0
C1116 C 0.02836 0.9335 0.51778 0.0
C1117 C 0.04771 0.93845 0.51183 0.0
C1118 C 0.02296 0.91673 0.52959 0.0
C1119 C 0.03679 0.90462 0.53565 0.0
C1120 C 0.05597 0.9093 0.5294 0.0
H1121 H 0.04114 0.81746 0.62686 0.0
H1122 H 0.04446 0.84659 0.60524 0.0
C1123 C 0.06139 0.92605 0.51767 0.0
C1124 C 0.03143 0.88703 0.54852 0.0
H1125 H 0.01748 0.8722 0.59346 0.0
C1126 C 0.0332 0.86874 0.5422 0.0
C1127 C 0.02567 0.88832 0.56723 0.0
C1128 C 0.02423 0.90767 0.57499 0.0
C1129 C 0.02951 0.8517 0.55412 0.0
C1130 C 0.02367 0.85297 0.5728 0.0
C1131 C 0.02178 0.87125 0.57909 0.0
C1132 C 0.02067 0.83563 0.58637 0.0
C1133 C 0.03252 0.83255 0.54682 0.0
C1134 C 0.00589 0.81994 0.58317 0.0
C1135 C 0.00393 0.80322 0.59554 0.0
C1136 C 0.01671 0.80194 0.61134 0.0
C1137 C 0.0311 0.81794 0.61479 0.0
C1138 C 0.03301 0.83462 0.60246 0.0
H1139 H 0.04085 0.83462 0.53362 0.0
H1140 H 0.04043 0.82403 0.55756 0.0
H1141 H 0.01809 0.82386 0.54377 0.0
H1142 H 0.996 0.82054 0.571 0.0
H1143 H 0.99266 0.79119 0.59252 0.0
H1144 H 0.1963 0.71131 0.76645 0.0
H1145 H 0.16921 0.71433 0.74367 0.0
H1146 H 0.13077 0.71669 0.7894 0.0
H1147 H 0.15773 0.71372 0.81222 0.0
H1148 H 0.1335 0.69153 0.7387 0.0
H1149 H 0.12339 0.76552 0.75664 0.0
H1150 H 0.1446 0.75461 0.76451 0.0
H1151 H 0.12203 0.74821 0.77666 0.0
C1152 C 0.18204 0.71231 0.77166 0.0
C1153 C 0.17923 0.71244 0.79116 0.0
C1154 C 0.16659 0.71412 0.75862 0.0
C1155 C 0.14805 0.71614 0.7648 0.0
C1156 C 0.14506 0.71568 0.78427 0.0
H1157 H 0.03776 0.70037 0.70081 0.0
H1158 H 0.06567 0.69705 0.7223 0.0
C1159 C 0.16049 0.71395 0.7973 0.0
C1160 C 0.13179 0.71863 0.75093 0.0
H1161 H 0.09868 0.74894 0.7369 0.0
C1162 C 0.12593 0.70412 0.73824 0.0
C1163 C 0.12212 0.73522 0.75013 0.0
C1164 C 0.12845 0.75188 0.76258 0.0
C1165 C 0.1104 0.70551 0.72509 0.0
C1166 C 0.10019 0.7217 0.72484 0.0
C1167 C 0.10634 0.73642 0.73723 0.0
C1168 C 0.08317 0.72373 0.71177 0.0
C1169 C 0.10527 0.68978 0.71138 0.0
C1170 C 0.08344 0.74012 0.69904 0.0
C1171 C 0.06739 0.7422 0.68683 0.0
C1172 C 0.05066 0.72793 0.68712 0.0
C1173 C 0.05039 0.71161 0.70006 0.0
C1174 C 0.06642 0.7096 0.7123 0.0
H1175 H 0.11766 0.68163 0.70978 0.0
H1176 H 0.09275 0.67925 0.71674 0.0
H1177 H 0.101 0.69597 0.69726 0.0
H1178 H 0.09615 0.75128 0.69844 0.0
H1179 H 0.06818 0.75497 0.6771 0.0
H1180 H 0.02501 0.58342 0.51923 0.0
H1181 H 0.03106 0.61043 0.54016 0.0
H1182 H 0.9723 0.62243 0.52883 0.0
H1183 H 0.96622 0.59576 0.50776 0.0
H1184 H 0.02725 0.65141 0.53328 0.0
H1185 H 0.9765 0.61366 0.58711 0.0
H1186 H 0.98558 0.60104 0.56876 0.0
H1187 H 0.96604 0.61507 0.56357 0.0
C1188 C 0.01345 0.59196 0.52101 0.0
C1189 C 0.99503 0.58722 0.51199 0.0
C1190 C 0.01692 0.60734 0.53303 0.0
C1191 C 1.00202 0.61821 0.53631 0.0
C1192 C 0.98388 0.61397 0.52682 0.0
H1193 H 0.98414 0.71052 0.60609 0.0
H1194 H 0.9817 0.68448 0.58418 0.0
C1195 C 0.98041 0.59866 0.51482 0.0
C1196 C 0.00517 0.63374 0.54992 0.0
H1197 H 0.98846 0.64689 0.59091 0.0
C1198 C 0.0189 0.65039 0.54599 0.0
C1199 C 0.99426 0.63237 0.56648 0.0
C1200 C 0.97988 0.61451 0.57188 0.0
C1201 C 0.02153 0.666 0.55789 0.0
C1202 C 0.0104 0.66471 0.57435 0.0
C1203 C 0.99692 0.64791 0.57834 0.0
C1204 C 0.01214 0.6807 0.58748 0.0
C1205 C 0.03571 0.68397 0.55239 0.0
C1206 C 0.02999 0.68715 0.59678 0.0
C1207 C 0.03135 0.70199 0.60933 0.0
C1208 C 0.01476 0.7102 0.61322 0.0
C1209 C 0.99698 0.70393 0.60378 0.0
C1210 C 0.99563 0.68919 0.59117 0.0
H1211 H 0.0391 0.68476 0.53718 0.0
H1212 H 0.02984 0.69738 0.55542 0.0
H1213 H 0.04958 0.68361 0.5607 0.0
H1214 H 0.04285 0.68061 0.59446 0.0
H1215 H 0.04529 0.70684 0.61625 0.0
H1216 H 0.73495 0.85536 0.18459 0.0
H1217 H 0.76095 0.88338 0.18678 0.0
H1218 H 0.76012 0.87616 0.24754 0.0
H1219 H 0.73448 0.84808 0.2455 0.0
H1220 H 0.76051 0.91906 0.20662 0.0
H1221 H 0.81809 0.87616 0.23421 0.0
H1222 H 0.7959 0.86524 0.22251 0.0
H1223 H 0.79572 0.87101 0.24677 0.0
C1224 C 0.74043 0.85968 0.19841 0.0
C1225 C 0.73267 0.8495 0.21488 0.0
C1226 C 0.75516 0.87574 0.19963 0.0
C1227 C 0.76253 0.88171 0.21732 0.0
C1228 C 0.75475 0.87166 0.23375 0.0
H1229 H 0.84603 0.96776 0.26767 0.0
H1230 H 0.82075 0.94086 0.25941 0.0
C1231 C 0.73999 0.85571 0.23256 0.0
C1232 C 0.77843 0.8984 0.21882 0.0
H1233 H 0.82483 0.91042 0.23633 0.0
C1234 C 0.77469 0.91721 0.21293 0.0
C1235 C 0.79689 0.8959 0.22698 0.0
C1236 C 0.80203 0.87598 0.23284 0.0
C1237 C 0.7887 0.93369 0.21582 0.0
C1238 C 0.80697 0.93117 0.22455 0.0
C1239 C 0.81083 0.91231 0.22982 0.0
C1240 C 0.82198 0.94785 0.22926 0.0
C1241 C 0.78361 0.95366 0.21021 0.0
C1242 C 0.83113 0.96069 0.21506 0.0
C1243 C 0.8457 0.97598 0.21979 0.0
C1244 C 0.85162 0.97834 0.23874 0.0
C1245 C 0.84217 0.96578 0.25292 0.0
C1246 C 0.82763 0.95055 0.24822 0.0
H1247 H 0.7677 0.9533 0.20722 0.0
H1248 H 0.78825 0.96377 0.22152 0.0
H1249 H 0.79144 0.95958 0.19726 0.0
H1250 H 0.82717 0.95874 0.20033 0.0
H1251 H 0.8526 0.98572 0.20865 0.0
H1252 H 0.77651 0.17644 0.32959 0.0
H1253 H 0.79508 0.14955 0.32598 0.0
H1254 H 0.77877 0.1501 0.26668 0.0
H1255 H 0.75993 0.17666 0.27037 0.0
H1256 H 0.77653 0.113 0.28298 0.0
H1257 H 0.84794 0.15627 0.30148 0.0
H1258 H 0.83 0.15479 0.31926 0.0
H1259 H 0.82609 0.1672 0.29667 0.0
C1260 C 0.77684 0.17069 0.31584 0.0
C1261 C 0.76704 0.17876 0.30022 0.0
C1262 C 0.78755 0.15545 0.31375 0.0
C1263 C 0.78871 0.14808 0.29596 0.0
C1264 C 0.77824 0.15564 0.28051 0.0
H1265 H 0.87435 0.08373 0.25539 0.0
H1266 H 0.85435 0.10801 0.26318 0.0
C1267 C 0.7675 0.17081 0.28261 0.0
C1268 C 0.80099 0.13272 0.29328 0.0
H1269 H 0.848 0.12301 0.29661 0.0
C1270 C 0.79215 0.11516 0.28601 0.0
C1271 C 0.82144 0.13564 0.29699 0.0
C1272 C 0.83201 0.15454 0.30386 0.0
C1273 C 0.80314 0.10047 0.28237 0.0
C1274 C 0.82352 0.10324 0.28642 0.0
C1275 C 0.83236 0.1208 0.29368 0.0
C1276 C 0.83607 0.08849 0.28241 0.0
C1277 C 0.79289 0.08238 0.27364 0.0
C1278 C 0.83278 0.0695 0.29094 0.0
C1279 C 0.84418 0.05554 0.28646 0.0
C1280 C 0.85922 0.06033 0.27348 0.0
C1281 C 0.86288 0.07952 0.26542 0.0
C1282 C 0.85144 0.09344 0.26986 0.0
H1283 H 0.77851 0.08464 0.26706 0.0
H1284 H 0.80194 0.07776 0.26273 0.0
H1285 H 0.79032 0.07038 0.28478 0.0
H1286 H 0.82131 0.06544 0.301 0.0
H1287 H 0.84104 0.04093 0.293 0.0
H1288 H 0.44819 0.02781 0.0249 0.0
H1289 H 0.41624 0.00761 0.02795 0.0
H1290 H 0.41275 1.00173 0.96785 0.0
H1291 H 0.4444 0.02238 0.96452 0.0
H1292 H 0.3796 0.01504 0.00849 0.0
H1293 H 0.40204 0.94472 0.99258 0.0
H1294 H 0.41929 0.96513 0.99998 0.0
H1295 H 0.40979 0.96493 0.97608 0.0
C1296 C 0.4406 0.02237 0.01228 0.0
C1297 C 0.44894 0.02679 0.99444 0.0
C1298 C 0.42238 0.01072 0.01409 0.0
C1299 C 0.41224 0.00304 0.99816 0.0
C1300 C 0.4205 0.00728 0.98037 0.0
H1301 H 0.29415 0.95705 0.97105 0.0
H1302 H 0.32566 0.97715 0.97636 0.0
C1303 C 0.43865 0.01903 0.97851 0.0
C1304 C 0.39276 0.99102 1.00001 0.0
H1305 H 0.36791 0.9457 0.99321 0.0
C1306 C 0.37705 0.99983 0.00533 0.0
C1307 C 0.38954 0.97114 0.99609 0.0
C1308 C 0.40606 0.9608 0.99101 0.0
C1309 C 0.35803 0.98945 0.0061 0.0
C1310 C 0.35468 0.9698 1.00138 0.0
C1311 C 0.37052 0.96079 0.99678 0.0
C1312 C 0.33471 0.95871 0.99983 0.0
C1313 C 0.34162 0.99961 0.01177 0.0
C1314 C 0.32924 0.94173 0.0114 0.0
C1315 C 0.31111 0.9302 0.00848 0.0
C1316 C 0.2983 0.9353 0.99371 0.0
C1317 C 0.30363 0.95267 0.98256 0.0
C1318 C 0.32162 0.96425 0.98561 0.0
H1319 H 0.34717 0.01275 0.01952 0.0
H1320 H 0.33348 0.00429 0.99889 0.0
H1321 H 0.33124 0.98965 0.02077 0.0
H1322 H 0.33921 0.93715 0.02238 0.0
H1323 H 0.30755 0.91684 0.01721 0.0
H1324 H 0.30602 0.37367 0.3061 0.0
H1325 H 0.28162 0.39569 0.30153 0.0
H1326 H 0.23821 0.35132 0.32634 0.0
H1327 H 0.26245 0.32906 0.33074 0.0
H1328 H 0.24653 0.39033 0.28036 0.0
H1329 H 0.23311 0.39917 0.35559 0.0
H1330 H 0.25407 0.38931 0.34828 0.0
H1331 H 0.23056 0.37438 0.34918 0.0
C1332 C 0.29128 0.36851 0.31053 0.0
C1333 C 0.28627 0.34952 0.31881 0.0
C1334 C 0.27735 0.38118 0.30799 0.0
C1335 C 0.25812 0.37527 0.31379 0.0
C1336 C 0.25304 0.35637 0.3221 0.0
H1337 H 0.15859 0.43305 0.27472 0.0
H1338 H 0.18045 0.409 0.28315 0.0
C1339 C 0.26696 0.34365 0.32463 0.0
C1340 C 0.24328 0.38868 0.31046 0.0
H1341 H 0.21244 0.4131 0.33275 0.0
C1342 C 0.23907 0.39529 0.29182 0.0
C1343 C 0.23366 0.3953 0.32542 0.0
C1344 C 0.23814 0.38935 0.34577 0.0
C1345 C 0.22545 0.40819 0.28772 0.0
C1346 C 0.21554 0.41453 0.30264 0.0
C1347 C 0.21987 0.40807 0.32131 0.0
C1348 C 0.20122 0.42844 0.29909 0.0
C1349 C 0.2221 0.4153 0.26745 0.0
C1350 C 0.20518 0.44713 0.30591 0.0
C1351 C 0.19267 0.4609 0.30118 0.0
C1352 C 0.17584 0.45621 0.28964 0.0
C1353 C 0.17143 0.43718 0.28359 0.0
C1354 C 0.18398 0.42344 0.28829 0.0
H1355 H 0.2339 0.41259 0.25828 0.0
H1356 H 0.20808 0.4075 0.26196 0.0
H1357 H 0.22118 0.43113 0.26636 0.0
H1358 H 0.21834 0.4513 0.31434 0.0
H1359 H 0.19651 0.4754 0.3061 0.0
H1360 H 0.08655 0.02525 0.48973 0.0
H1361 H 0.11774 0.0453 0.49663 0.0
H1362 H 0.14348 0.99361 0.5125 0.0
H1363 H 0.11265 0.97339 0.50463 0.0
H1364 H 0.13846 0.04848 0.52954 0.0
H1365 H 0.183 0.02207 0.47648 0.0
H1366 H 0.15673 0.01643 0.47633 0.0
H1367 H 0.17137 0.00319 0.49251 0.0
C1368 C 0.09892 0.01809 0.49434 0.0
C1369 C 0.09703 0.99764 0.49649 0.0
C1370 C 0.11672 0.0296 0.49845 0.0
C1371 C 0.13307 0.02098 0.50484 0.0
C1372 C 0.13122 1.00061 0.50722 0.0
H1373 H 0.23343 0.09832 0.55334 0.0
H1374 H 0.20538 0.07253 0.55066 0.0
C1375 C 0.11345 0.98906 0.50296 0.0
C1376 C 0.15183 0.03344 0.50939 0.0
H1377 H 0.19984 0.04332 0.49816 0.0
C1378 C 0.1519 0.04752 0.52259 0.0
C1379 C 0.16936 0.03202 0.50042 0.0
C1380 C 0.17015 0.01774 0.48552 0.0
C1381 C 0.1688 0.06058 0.52676 0.0
C1382 C 0.18646 0.05929 0.51772 0.0
C1383 C 0.18643 0.04467 0.50497 0.0
C1384 C 0.20472 0.07359 0.52003 0.0
C1385 C 0.16703 0.07568 0.5406 0.0
C1386 C 0.21508 0.08159 0.50398 0.0
C1387 C 0.23172 0.09551 0.50567 0.0
C1388 C 0.23782 0.10257 0.52326 0.0
C1389 C 0.22837 0.0938 0.53947 0.0
C1390 C 0.21217 0.07922 0.5379 0.0
H1391 H 0.15189 0.07913 0.54064 0.0
H1392 H 0.17066 0.06983 0.55504 0.0
H1393 H 0.17696 0.08938 0.5375 0.0
H1394 H 0.21014 0.07737 0.49 0.0
H1395 H 0.23965 0.10101 0.49312 0.0
H1396 H 0.82388 0.14648 0.72149 0.0
H1397 H 0.79789 0.11936 0.72835 0.0
H1398 H 0.75542 0.15313 0.70242 0.0
H1399 H 0.78092 0.18072 0.69686 0.0
H1400 H 0.74382 0.1382 0.73508 0.0
H1401 H 0.7671 0.07931 0.69694 0.0
H1402 H 0.78539 0.08947 0.71353 0.0
H1403 H 0.77825 0.10439 0.69348 0.0
C1404 C 0.80901 0.14819 0.71727 0.0
C1405 C 0.80462 0.16594 0.70863 0.0
C1406 C 0.79417 0.13249 0.72091 0.0
C1407 C 0.77467 0.13403 0.71565 0.0
C1408 C 0.77035 0.1515 0.70653 0.0
H1409 H 0.67735 0.03847 0.7194 0.0
H1410 H 0.70326 0.065 0.70973 0.0
C1411 C 0.78507 0.16727 0.70316 0.0
C1412 C 0.75847 0.1183 0.72111 0.0
H1413 H 0.7412 0.06987 0.71839 0.0
C1414 C 0.74325 0.12328 0.73132 0.0
C1415 C 0.75755 0.09884 0.71609 0.0
C1416 C 0.77285 0.09269 0.70424 0.0
C1417 C 0.72717 0.10951 0.73658 0.0
C1418 C 0.72647 0.08989 0.73219 0.0
C1419 C 0.74171 0.08485 0.72193 0.0
C1420 C 0.71001 0.07447 0.73796 0.0
C1421 C 0.7106 0.11639 0.7459 0.0
C1422 C 0.70503 0.07093 0.75703 0.0
C1423 C 0.68999 0.05606 0.76246 0.0
C1424 C 0.67973 0.0443 0.74899 0.0
C1425 C 0.6848 0.04763 0.72998 0.0
C1426 C 0.69967 0.06268 0.72449 0.0
H1427 H 0.71108 0.13243 0.74387 0.0
H1428 H 0.69656 0.10931 0.7399 0.0
H1429 H 0.71129 0.1125 0.7613 0.0
H1430 H 0.71316 0.07927 0.76783 0.0
H1431 H 0.68687 0.05328 0.77731 0.0
H1432 H 0.43825 0.01047 0.5809 0.0
H1433 H 0.41338 0.03189 0.57487 0.0
H1434 H 0.42913 0.04093 0.5165 0.0
H1435 H 0.45427 0.01976 0.52247 0.0
H1436 H 0.42491 0.07584 0.53413 0.0
H1437 H 0.36089 0.0183 0.54521 0.0
H1438 H 0.37908 0.01951 0.56405 0.0
H1439 H 0.385 0.01281 0.54125 0.0
C1440 C 0.43652 0.01709 0.56679 0.0
C1441 C 0.44826 0.0133 0.55216 0.0
C1442 C 0.42216 0.02921 0.56333 0.0
C1443 C 0.4192 0.03786 0.54517 0.0
C1444 C 0.43105 0.03434 0.5306 0.0
H1445 H 0.31918 0.0932 0.5041 0.0
H1446 H 0.34546 0.07322 0.50839 0.0
C1447 C 0.44534 0.02212 0.53401 0.0
C1448 C 0.40386 0.05067 0.54142 0.0
H1449 H 0.35453 0.05089 0.54152 0.0
C1450 C 0.40952 0.07038 0.53571 0.0
C1451 C 0.38375 0.04353 0.54328 0.0
C1452 C 0.37671 0.02235 0.54862 0.0
C1453 C 0.39566 0.08318 0.53216 0.0
C1454 C 0.37558 0.07614 0.53448 0.0
C1455 C 0.36991 0.05635 0.53986 0.0
C1456 C 0.3602 0.089 0.53133 0.0
C1457 C 0.40259 0.10409 0.52569 0.0
C1458 C 0.3597 0.10458 0.54276 0.0
C1459 C 0.34465 0.11603 0.54036 0.0
C1460 C 0.32975 0.11215 0.52647 0.0
C1461 C 0.33045 0.09669 0.51487 0.0
C1462 C 0.34544 0.08519 0.51734 0.0
H1463 H 0.41762 0.10606 0.52026 0.0
H1464 H 0.39263 0.10929 0.51445 0.0
H1465 H 0.4027 0.11336 0.5378 0.0
H1466 H 0.37072 0.10763 0.55385 0.0
H1467 H 0.34451 0.12773 0.54962 0.0
H1468 H 0.57204 0.48162 0.53645 0.0
H1469 H 0.59924 0.46446 0.53005 0.0
H1470 H 0.63225 0.51855 0.50876 0.0
H1471 H 0.60501 0.5358 0.51523 0.0
H1472 H 0.61535 0.46234 0.49479 0.0
H1473 H 0.67126 0.49541 0.54596 0.0
H1474 H 0.64559 0.4969 0.54753 0.0
H1475 H 0.66012 0.51256 0.53064 0.0
C1476 C 0.58521 0.48989 0.53065 0.0
C1477 C 0.58654 0.51009 0.52655 0.0
C1478 C 0.60071 0.48006 0.52694 0.0
C1479 C 0.61789 0.49023 0.51913 0.0
C1480 C 0.6193 0.51045 0.51512 0.0
H1481 H 0.70582 0.44073 0.46163 0.0
H1482 H 0.67999 0.45866 0.47 0.0
C1483 C 0.60376 0.52028 0.51879 0.0
C1484 C 0.63389 0.47949 0.51438 0.0
H1485 H 0.68191 0.47533 0.52402 0.0
C1486 C 0.6299 0.46517 0.5012 0.0
C1487 C 0.65282 0.48304 0.52287 0.0
C1488 C 0.65775 0.49769 0.53767 0.0
C1489 C 0.64436 0.45449 0.49611 0.0
C1490 C 0.66341 0.45836 0.50427 0.0
C1491 C 0.66734 0.47249 0.51765 0.0
C1492 C 0.67936 0.44769 0.49926 0.0
C1493 C 0.63904 0.43893 0.48226 0.0
C1494 C 0.6879 0.43585 0.51301 0.0
C1495 C 0.70272 0.42555 0.50829 0.0
C1496 C 0.70947 0.42703 0.48973 0.0
C1497 C 0.70102 0.43916 0.47605 0.0
C1498 C 0.68615 0.44937 0.48078 0.0
H1499 H 0.62297 0.43462 0.48075 0.0
H1500 H 0.64458 0.44455 0.46819 0.0
H1501 H 0.6458 0.42578 0.4867 0.0
H1502 H 0.68294 0.43439 0.52737 0.0
H1503 H 0.70889 0.41646 0.51923 0.0
H1504 H 0.68635 0.23999 0.34957 0.0
H1505 H 0.68952 0.26384 0.37362 0.0
H1506 H 0.75211 0.27254 0.36892 0.0
H1507 H 0.74904 0.24927 0.34431 0.0
H1508 H 0.70885 0.26481 0.40836 0.0
H1509 H 0.7397 0.32783 0.3612 0.0
H1510 H 0.72874 0.30491 0.3523 0.0
H1511 H 0.75335 0.30781 0.36195 0.0
C1512 C 0.7008 0.24711 0.35349 0.0
C1513 C 0.71743 0.24285 0.3448 0.0
C1514 C 0.70258 0.26065 0.36736 0.0
C1515 C 0.72101 0.27027 0.37283 0.0
C1516 C 0.73769 0.26562 0.36464 0.0
H1517 H 0.76523 0.35742 0.45093 0.0
H1518 H 0.76016 0.33332 0.42708 0.0
C1519 C 0.73593 0.25211 0.35072 0.0
C1520 C 0.72274 0.28518 0.38708 0.0
H1521 H 0.74016 0.33275 0.39392 0.0
C1522 C 0.71551 0.27974 0.40517 0.0
C1523 C 0.73143 0.30466 0.38291 0.0
C1524 C 0.73859 0.31175 0.36349 0.0
C1525 C 0.71721 0.29311 0.41934 0.0
C1526 C 0.72605 0.31257 0.4152 0.0
C1527 C 0.7332 0.31796 0.39708 0.0
C1528 C 0.72876 0.32741 0.42958 0.0
C1529 C 0.71014 0.28606 0.43879 0.0
C1530 C 0.71279 0.33236 0.43882 0.0
C1531 C 0.71571 0.34617 0.45253 0.0
C1532 C 0.73457 0.35564 0.45677 0.0
C1533 C 0.75048 0.3507 0.44751 0.0
C1534 C 0.7476 0.33685 0.43397 0.0
H1535 H 0.70866 0.26995 0.44099 0.0
H1536 H 0.72025 0.29263 0.44992 0.0
H1537 H 0.69556 0.29036 0.44052 0.0
H1538 H 0.69807 0.3256 0.43542 0.0
H1539 H 0.70326 0.34961 0.45966 0.0
H1540 H 0.55112 0.05016 0.94624 0.0
H1541 H 0.5684 0.03552 0.9226 0.0
H1542 H 0.51363 0.0176 0.8933 0.0
H1543 H 0.49634 0.03205 0.91688 0.0
H1544 H 0.55867 0.99288 0.9059 0.0
H1545 H 0.55267 0.05825 0.8573 0.0
H1546 H 0.55191 0.05894 0.88264 0.0
H1547 H 0.53124 0.04713 0.8697 0.0
C1548 C 0.54279 0.04276 0.93493 0.0
C1549 C 0.52245 0.04235 0.93328 0.0
C1550 C 0.55264 0.03439 0.9215 0.0
C1551 C 0.54228 0.02554 0.90621 0.0
C1552 C 0.52187 0.02436 0.90501 0.0
H1553 H 0.57915 0.00273 0.79649 0.0
H1554 H 0.55962 0.00381 0.82421 0.0
C1555 C 0.51203 0.03264 0.91845 0.0
C1556 C 0.55285 0.01924 0.89053 0.0
H1557 H 0.56704 0.03329 0.84563 0.0
C1558 C 0.56053 1.00164 0.89268 0.0
C1559 C 0.55519 0.03071 0.87335 0.0
C1560 C 0.54745 0.04989 0.87048 0.0
C1561 C 0.57029 0.99507 0.87788 0.0
C1562 C 0.57273 0.00664 0.86067 0.0
C1563 C 0.56507 0.02429 0.8587 0.0
C1564 C 0.58344 1.00124 0.8445 0.0
C1565 C 0.57746 0.97564 0.8807 0.0
C1566 C 0.60314 0.99845 0.84662 0.0
C1567 C 0.61418 0.99728 0.83072 0.0
C1568 C 0.60576 0.9992 0.81248 0.0
C1569 C 0.58584 1.00083 0.81043 0.0
C1570 C 0.57475 1.00164 0.82627 0.0
H1571 H 0.56926 0.96609 0.89177 0.0
H1572 H 0.57613 0.968 0.86739 0.0
H1573 H 0.59308 0.97797 0.88533 0.0
H1574 H 0.61039 0.99859 0.86042 0.0
H1575 H 0.62967 0.99663 0.83261 0.0
H1576 H 0.34765 0.3013 0.36013 0.0
H1577 H 0.34861 0.27808 0.38764 0.0
H1578 H 0.2858 0.26482 0.3848 0.0
H1579 H 0.28471 0.28785 0.3572 0.0
H1580 H 0.32928 0.2776 0.42341 0.0
H1581 H 0.30563 0.21094 0.38494 0.0
H1582 H 0.31522 0.23403 0.37312 0.0
H1583 H 0.29038 0.22961 0.38056 0.0
C1584 C 0.33404 0.29336 0.3653 0.0
C1585 C 0.31609 0.29637 0.35641 0.0
C1586 C 0.33462 0.28017 0.38107 0.0
C1587 C 0.3173 0.26955 0.38811 0.0
C1588 C 0.29936 0.27268 0.37943 0.0
H1589 H 0.27814 0.20836 0.48895 0.0
H1590 H 0.29001 0.23262 0.464 0.0
C1591 C 0.29875 0.28598 0.36377 0.0
C1592 C 0.31786 0.25533 0.40466 0.0
H1593 H 0.30498 0.20729 0.41856 0.0
C1594 C 0.3242 0.26219 0.42233 0.0
C1595 C 0.31156 0.23519 0.40318 0.0
C1596 C 0.30547 0.2269 0.38441 0.0
C1597 C 0.32339 0.24956 0.43873 0.0
C1598 C 0.31598 0.22961 0.43741 0.0
C1599 C 0.31064 0.2226 0.41958 0.0
C1600 C 0.31147 0.21624 0.45441 0.0
C1601 C 0.33008 0.25774 0.4574 0.0
C1602 C 0.31983 0.19903 0.45758 0.0
C1603 C 0.31318 0.18515 0.4721 0.0
C1604 C 0.29781 0.18817 0.48332 0.0
C1605 C 0.29011 0.20576 0.48059 0.0
C1606 C 0.29692 0.21966 0.46636 0.0
H1607 H 0.34056 0.27141 0.45546 0.0
H1608 H 0.31726 0.26112 0.46469 0.0
H1609 H 0.33709 0.24707 0.46666 0.0
H1610 H 0.33095 0.19603 0.44839 0.0
H1611 H 0.31911 0.17157 0.47371 0.0
H1612 H 0.52497 0.53403 0.94134 0.0
H1613 H 0.50887 0.54201 0.91095 0.0
H1614 H 0.47759 0.48352 0.91154 0.0
H1615 H 0.49338 0.47567 0.94209 0.0
H1616 H 0.50929 0.52664 0.87691 0.0
H1617 H 0.43359 0.51568 0.90182 0.0
H1618 H 0.4546 0.5173 0.91785 0.0
H1619 H 0.44548 0.49473 0.90742 0.0
C1620 C 0.51455 0.52295 0.93499 0.0
C1621 C 0.51014 0.50432 0.94414 0.0
C1622 C 0.50539 0.5275 0.91765 0.0
C1623 C 0.49166 0.51352 0.90916 0.0
C1624 C 0.48768 0.49473 0.91806 0.0
H1625 H 0.45244 0.49732 0.79658 0.0
H1626 H 0.47072 0.50162 0.8263 0.0
C1627 C 0.49679 0.4902 0.93542 0.0
C1628 C 0.48191 0.5183 0.89072 0.0
H1629 H 0.43715 0.51628 0.86828 0.0
C1630 C 0.49352 0.52462 0.87508 0.0
C1631 C 0.46132 0.51614 0.88836 0.0
C1632 C 0.44802 0.5108 0.9048 0.0
C1633 C 0.4851 0.52775 0.85699 0.0
C1634 C 0.46453 0.52414 0.85439 0.0
C1635 C 0.45292 0.5189 0.8702 0.0
C1636 C 0.45487 0.52371 0.83529 0.0
C1637 C 0.49835 0.53467 0.84079 0.0
C1638 C 0.43978 0.53472 0.83031 0.0
C1639 C 0.42913 0.53224 0.81317 0.0
C1640 C 0.43323 0.51846 0.80091 0.0
C1641 C 0.44885 0.50806 0.80567 0.0
C1642 C 0.45947 0.5106 0.82265 0.0
H1643 H 0.51225 0.54318 0.84579 0.0
H1644 H 0.50204 0.52185 0.83401 0.0
H1645 H 0.49122 0.54382 0.82998 0.0
H1646 H 0.43587 0.54482 0.83992 0.0
H1647 H 0.41708 0.54034 0.81001 0.0
H1648 H 0.68026 0.75329 0.15707 0.0
H1649 H 0.6942 0.73282 0.13614 0.0
H1650 H 0.74854 0.77226 0.13672 0.0
H1651 H 0.73443 0.79296 0.15747 0.0
H1652 H 0.73628 0.76356 0.10106 0.0
H1653 H 0.73339 0.69536 0.1465 0.0
H1654 H 0.71018 0.70389 0.14399 0.0
H1655 H 0.73038 0.71826 0.15561 0.0
C1656 C 0.69525 0.75746 0.15288 0.0
C1657 C 0.70627 0.77473 0.1588 0.0
C1658 C 0.70326 0.74569 0.14102 0.0
C1659 C 0.72253 0.75083 0.13501 0.0
C1660 C 0.73368 0.76793 0.14121 0.0
H1661 H 0.77904 0.67322 0.0695 0.0
H1662 H 0.77199 0.69422 0.09388 0.0
C1663 C 0.72565 0.77972 0.15306 0.0
C1664 C 0.73056 0.73905 0.12132 0.0
H1665 H 0.73784 0.69279 0.1135 0.0
C1666 C 0.73681 0.74813 0.10388 0.0
C1667 C 0.73155 0.71896 0.12503 0.0
C1668 C 0.72621 0.70857 0.14388 0.0
C1669 C 0.74328 0.73756 0.08983 0.0
C1670 C 0.7432 0.71725 0.09315 0.0
C1671 C 0.7377 0.70831 0.11085 0.0
C1672 C 0.74796 0.70494 0.07816 0.0
C1673 C 0.75014 0.74826 0.07155 0.0
C1674 C 0.73672 0.70385 0.06127 0.0
C1675 C 0.74071 0.69192 0.04731 0.0
C1676 C 0.75598 0.68063 0.04993 0.0
C1677 C 0.76724 0.68175 0.0669 0.0
C1678 C 0.76321 0.69372 0.0809 0.0
H1679 H 0.75491 0.764 0.07335 0.0
H1680 H 0.76243 0.74204 0.06595 0.0
H1681 H 0.73791 0.74694 0.06091 0.0
H1682 H 0.72461 0.71202 0.05898 0.0
H1683 H 0.73158 0.69139 0.03455 0.0
H1684 H 0.02135 0.01628 0.08382 0.0
H1685 H 1.00201 0.00943 0.11228 0.0
H1686 H 0.00643 0.07094 0.11928 0.0
H1687 H 0.02619 0.07796 0.09121 0.0
H1688 H 0.01222 0.02266 0.15095 0.0
H1689 H 0.94626 0.04954 0.11797 0.0
H1690 H 0.96522 0.04276 0.10419 0.0
H1691 H 0.96906 0.06551 0.1152 0.0
C1692 C 0.01846 0.02837 0.09153 0.0
C1693 C 0.02524 0.0477 0.08506 0.0
C1694 C 0.00729 0.02442 0.10773 0.0
C1695 C 1.00255 0.03969 0.11771 0.0
C1696 C 0.00963 0.05895 0.11158 0.0
H1697 H 0.92792 0.04433 0.21285 0.0
H1698 H 0.9495 0.05216 0.18606 0.0
C1699 C 0.02087 0.06292 0.09547 0.0
C1700 C 0.99014 0.03552 0.13449 0.0
H1701 H 0.94536 0.04015 0.15053 0.0
C1702 C 0.99758 0.02642 0.15088 0.0
C1703 C 0.97112 0.0406 0.13438 0.0
C1704 C 0.96229 0.05002 0.11698 0.0
C1705 C 0.98658 0.02246 0.16728 0.0
C1706 C 0.9674 0.02726 0.16711 0.0
C1707 C 0.96003 0.03646 0.1507 0.0
C1708 C 0.95459 0.02252 0.18364 0.0
C1709 C 0.99583 0.0136 0.18475 0.0
C1710 C 0.95002 0.00323 0.19108 0.0
C1711 C 0.93781 0.99872 0.20647 0.0
C1712 C 0.92961 0.01337 0.21465 0.0
C1713 C 0.93398 0.03267 0.20698 0.0
C1714 C 0.94632 0.03718 0.19164 0.0
H1715 H 0.01203 0.01645 0.18444 0.0
H1716 H 0.99115 0.01935 0.19775 0.0
H1717 H 0.99134 0.99758 0.18552 0.0
H1718 H 0.95572 0.99157 0.18485 0.0
H1719 H 0.93464 0.98365 0.21179 0.0
H1720 H 0.34269 0.76748 0.15986 0.0
H1721 H 0.3375 0.78735 0.13061 0.0
H1722 H 0.27611 0.76434 0.13053 0.0
H1723 H 0.28135 0.74423 0.15947 0.0
H1724 H 0.29151 0.76691 0.09491 0.0
H1725 H 0.31176 0.83641 0.12986 0.0
H1726 H 0.33018 0.82072 0.13147 0.0
H1727 H 0.30742 0.81312 0.14299 0.0
C1728 C 0.32815 0.76661 0.15345 0.0
C1729 C 0.31238 0.75456 0.16199 0.0
C1730 C 0.32517 0.77801 0.13685 0.0
C1731 C 0.30634 0.77763 0.12859 0.0
C1732 C 0.29074 0.76496 0.13671 0.0
H1733 H 0.25549 0.86175 0.05696 0.0
H1734 H 0.26685 0.84016 0.08218 0.0
C1735 C 0.29372 0.75353 0.15325 0.0
C1736 C 0.30265 0.7908 0.11188 0.0
H1737 H 0.30387 0.83877 0.09727 0.0
C1738 C 0.29432 0.78263 0.09536 0.0
C1739 C 0.30614 0.81131 0.11258 0.0
C1740 C 0.3142 0.82098 0.1302 0.0
C1741 C 0.28916 0.7944 0.0796 0.0
C1742 C 0.29272 0.8149 0.08028 0.0
C1743 C 0.3013 0.82306 0.09671 0.0
C1744 C 0.28632 0.82815 0.06472 0.0
C1745 C 0.27925 0.78477 0.06264 0.0
C1746 C 0.29368 0.82879 0.0465 0.0
C1747 C 0.28714 0.84114 0.03195 0.0
C1748 C 0.27322 0.85313 0.03543 0.0
C1749 C 0.26619 0.85269 0.05377 0.0
C1750 C 0.27269 0.84036 0.06824 0.0
H1751 H 0.27377 0.76911 0.06595 0.0
H1752 H 0.26681 0.79215 0.05725 0.0
H1753 H 0.28987 0.78581 0.05121 0.0
H1754 H 0.3045 0.81978 0.04355 0.0
H1755 H 0.29291 0.84122 0.018 0.0
H1756 H 0.02828 0.48661 0.07811 0.0
H1757 H 0.04925 0.48804 0.10664 0.0
H1758 H 1.00052 0.49661 0.13931 0.0
H1759 H 0.97923 0.49445 0.11093 0.0
H1760 H 0.0588 0.51776 0.12959 0.0
H1761 H 0.02186 0.45295 0.17069 0.0
H1762 H 0.01692 0.4576 0.14576 0.0
H1763 H 0.00583 0.47008 0.1628 0.0
C1764 C 0.0219 0.48849 0.0914 0.0
C1765 C 1.00198 0.49028 0.09217 0.0
C1766 C 0.03397 0.48943 0.1077 0.0
C1767 C 0.02643 0.49212 0.12522 0.0
C1768 C 0.00661 0.49411 0.12606 0.0
H1769 H 0.09374 0.53538 0.22285 0.0
H1770 H 0.07167 0.53 0.19551 0.0
C1771 C 0.9945 0.49314 0.10974 0.0
C1772 C 0.03956 0.49365 0.14239 0.0
H1773 H 0.04605 0.47399 0.18731 0.0
C1774 C 0.05603 0.50813 0.14217 0.0
C1775 C 0.03615 0.48091 0.15875 0.0
C1776 C 0.01935 0.46438 0.15952 0.0
C1777 C 0.06891 0.51049 0.15792 0.0
C1778 C 0.06507 0.49827 0.17455 0.0
C1779 C 0.04887 0.48348 0.17465 0.0
C1780 C 0.07763 0.50087 0.19198 0.0
C1781 C 0.08668 0.52593 0.15653 0.0
C1782 C 0.0878 0.48598 0.19962 0.0
C1783 C 0.10044 0.48895 0.21545 0.0
C1784 C 0.10308 0.50686 0.224 0.0
C1785 C 0.09229 0.52145 0.21663 0.0
C1786 C 0.07969 0.51845 0.20088 0.0
H1787 H 0.09041 0.5302 0.1416 0.0
H1788 H 0.08368 0.5391 0.16315 0.0
H1789 H 0.09955 0.52083 0.16402 0.0
H1790 H 0.08633 0.47223 0.19305 0.0
H1791 H 0.10844 0.47736 0.22072 0.0
H1792 H 0.36918 0.68037 0.2392 0.0
H1793 H 0.39381 0.68723 0.26452 0.0
H1794 H 0.38476 0.74733 0.26084 0.0
H1795 H 0.3596 0.74047 0.23611 0.0
H1796 H 0.42858 0.71311 0.26553 0.0
H1797 H 0.37682 0.73149 0.31655 0.0
H1798 H 0.36874 0.71974 0.29516 0.0
H1799 H 0.3765 0.74562 0.29445 0.0
C1800 C 0.3723 0.69502 0.24388 0.0
C1801 C 0.36225 0.70983 0.23571 0.0
C1802 C 0.38649 0.69894 0.25826 0.0
C1803 C 0.39087 0.7177 0.26481 0.0
C1804 C 0.38133 0.73264 0.25628 0.0
H1805 H 0.46707 0.77571 0.34892 0.0
H1806 H 0.44316 0.76594 0.32377 0.0
C1807 C 0.36712 0.72874 0.24195 0.0
C1808 C 0.40529 0.72168 0.28064 0.0
H1809 H 0.4106 0.73908 0.32452 0.0
C1810 C 0.42464 0.71858 0.27855 0.0
C1811 C 0.40011 0.72878 0.29762 0.0
C1812 C 0.37937 0.73143 0.30121 0.0
C1813 C 0.43907 0.723 0.29276 0.0
C1814 C 0.43392 0.7304 0.30962 0.0
C1815 C 0.41453 0.73328 0.31172 0.0
C1816 C 0.44846 0.73601 0.32501 0.0
C1817 C 0.45983 0.7204 0.28926 0.0
C1818 C 0.45927 0.72239 0.33428 0.0
C1819 C 0.47295 0.72799 0.34871 0.0
C1820 C 0.47559 0.74712 0.35443 0.0
C1821 C 0.46484 0.76071 0.34513 0.0
C1822 C 0.45129 0.75517 0.33068 0.0
H1823 H 0.46226 0.71947 0.27401 0.0
H1824 H 0.47034 0.73261 0.29461 0.0
H1825 H 0.46301 0.70668 0.29681 0.0
H1826 H 0.45707 0.70743 0.33042 0.0
H1827 H 0.48129 0.71735 0.35556 0.0
H1828 H 0.96815 0.44278 0.99574 0.0
H1829 H 0.97269 0.41349 0.98005 0.0
H1830 H 0.03156 0.41762 0.00331 0.0
H1831 H 0.0269 0.44664 0.01927 0.0
H1832 H 0.99933 0.40963 0.95335 0.0
H1833 H 0.01004 0.36104 0.01708 0.0
H1834 H 1.00056 0.3837 0.01818 0.0
H1835 H 0.02633 0.3837 0.0161 0.0
C1836 C 0.98197 0.43727 0.99761 0.0
C1837 C 0.99716 0.44695 0.00868 0.0
C1838 C 0.98459 0.42061 0.98861 0.0
C1839 C 1.00241 0.41321 0.99062 0.0
C1840 C 0.01756 0.42281 1.00181 0.0
H1841 H 0.03012 0.32628 0.91452 0.0
H1842 H 0.03299 0.35564 0.9324 0.0
C1843 C 0.01493 0.43944 0.01084 0.0
C1844 C 0.00522 0.39577 0.98058 0.0
H1845 H 0.01478 0.34897 0.98756 0.0
C1846 C 1.00279 0.39639 0.96082 0.0
C1847 C 0.00965 0.37844 0.99034 0.0
C1848 C 0.01164 0.37653 0.0116 0.0
C1849 C 0.00443 0.38015 0.95059 0.0
C1850 C 0.00895 0.36286 0.96033 0.0
C1851 C 0.01159 0.3623 0.98007 0.0
C1852 C 0.00891 0.3446 0.95054 0.0
C1853 C 1.00053 0.38139 0.9295 0.0
C1854 C 0.99503 0.32836 0.95531 0.0
C1855 C 0.99345 0.31163 0.94526 0.0
C1856 C 0.00578 0.31062 0.93019 0.0
C1857 C 0.02039 0.32655 0.92602 0.0
C1858 C 0.02192 0.3434 0.93611 0.0
H1859 H 0.99354 0.39432 0.92473 0.0
H1860 H 0.01455 0.38249 0.92222 0.0
H1861 H 0.99094 0.36812 0.92507 0.0
H1862 H 0.98491 0.32885 0.96643 0.0
H1863 H 0.98213 0.29964 0.94903 0.0
H1864 H 0.66561 0.84253 0.2349 0.0
H1865 H 0.64059 0.84006 0.2586 0.0
H1866 H 0.64443 0.77906 0.26968 0.0
H1867 H 0.66965 0.78143 0.24607 0.0
H1868 H 0.60574 0.78756 0.26691 0.0
H1869 H 0.65197 0.8351 0.31594 0.0
H1870 H 0.64954 0.8457 0.29232 0.0
H1871 H 0.66186 0.82478 0.29649 0.0
C1872 C 0.66121 0.82859 0.24243 0.0
C1873 C 0.66983 0.81222 0.23871 0.0
C1874 C 0.6469 0.82721 0.25599 0.0
C1875 C 0.64091 0.80947 0.26619 0.0
C1876 C 0.64892 0.79293 0.26205 0.0
H1877 H 0.57971 0.78491 0.37067 0.0
H1878 H 0.6037 0.79144 0.34585 0.0
C1879 C 0.66326 0.79428 0.24847 0.0
C1880 C 0.62642 0.80821 0.28128 0.0
H1881 H 0.61895 0.82529 0.32398 0.0
C1882 C 0.60859 0.79583 0.27937 0.0
C1883 C 0.63027 0.81886 0.29764 0.0
C1884 C 0.6495 0.83174 0.30088 0.0
C1885 C 0.59446 0.7939 0.29331 0.0
C1886 C 0.59815 0.80484 0.30949 0.0
C1887 C 0.61604 0.81711 0.31146 0.0
C1888 C 0.58404 0.80287 0.32499 0.0
C1889 C 0.5759 0.77977 0.29082 0.0
C1890 C 0.56521 0.80784 0.32176 0.0
C1891 C 0.55145 0.8042 0.33598 0.0
C1892 C 0.55629 0.79554 0.3537 0.0
C1893 C 0.57548 0.79157 0.35719 0.0
C1894 C 0.58922 0.79526 0.34299 0.0
H1895 H 0.57717 0.76946 0.27984 0.0
H1896 H 0.57201 0.77127 0.3043 0.0
H1897 H 0.56376 0.788 0.28643 0.0
H1898 H 0.56101 0.81409 0.30808 0.0
H1899 H 0.53681 0.80744 0.33282 0.0
H1900 H 0.00759 0.08387 0.02795 0.0
H1901 H 1.00129 0.11245 0.008 0.0
H1902 H 0.06285 0.12735 0.9981 0.0
H1903 H 0.06937 0.09892 0.01832 0.0
H1904 H 0.01684 0.15201 0.01344 0.0
H1905 H 0.03721 0.12894 0.94451 0.0
H1906 H 0.03218 0.11202 0.96478 0.0
H1907 H 0.05519 0.12777 0.96338 0.0
C1908 C 0.01983 0.09324 0.02162 0.0
C1909 C 0.03901 0.08909 0.02483 0.0
C1910 C 0.01618 0.10953 0.01013 0.0
C1911 C 0.03157 0.12194 1.00143 0.0
C1912 C 0.05071 0.11778 0.00441 0.0
H1913 H 0.03506 0.22743 0.92695 0.0
H1914 H 0.04327 0.19973 0.94717 0.0
C1915 C 0.0544 0.1015 0.01596 0.0
C1916 C 0.02757 0.13956 0.98977 0.0
H1917 H 0.02966 0.16091 0.94495 0.0
C1918 C 0.01961 0.15396 0.99846 0.0
C1919 C 0.03129 0.14211 0.97025 0.0
C1920 C 0.03929 0.12685 0.96008 0.0
C1921 C 0.01542 0.17093 0.9882 0.0
C1922 C 0.01887 0.17338 0.96861 0.0
C1923 C 0.027 0.15904 0.95996 0.0
C1924 C 0.01389 0.19055 0.95677 0.0
C1925 C 0.0077 0.18625 0.99856 0.0
C1926 C 0.9946 0.19457 0.95531 0.0
C1927 C 0.98985 0.21047 0.94384 0.0
C1928 C 0.00426 0.22261 0.93337 0.0
C1929 C 0.02357 0.21847 0.93482 0.0
C1930 C 0.02831 0.2026 0.94636 0.0
H1931 H 0.01131 0.18493 0.01394 0.0
H1932 H 0.0137 0.20113 0.99292 0.0
H1933 H 0.99156 0.18439 0.99675 0.0
H1934 H 0.98312 0.18522 0.96283 0.0
H1935 H 0.97479 0.21303 0.94296 0.0
H1936 H 0.35262 0.27729 0.28269 0.0
H1937 H 0.3802 0.26976 0.26541 0.0
H1938 H 0.38708 0.3274 0.23771 0.0
H1939 H 0.35946 0.33498 0.25505 0.0
H1940 H 0.3808 0.27102 0.22518 0.0
H1941 H 0.44352 0.32011 0.25528 0.0
H1942 H 0.42065 0.31363 0.26713 0.0
H1943 H 0.42259 0.33127 0.24737 0.0
C1944 C 0.36017 0.28841 0.27306 0.0
C1945 C 0.35381 0.30663 0.27 0.0
C1946 C 0.37591 0.2841 0.26321 0.0
C1947 C 0.38577 0.29804 0.25034 0.0
C1948 C 0.37987 0.31651 0.24775 0.0
H1949 H 0.47758 0.28854 0.17119 0.0
H1950 H 0.45392 0.30102 0.19016 0.0
C1951 C 0.36406 0.3208 0.25757 0.0
C1952 C 0.4012 0.29265 0.23865 0.0
H1953 H 0.44993 0.30232 0.22959 0.0
C1954 C 0.39592 0.27785 0.22617 0.0
C1955 C 0.42087 0.30175 0.23978 0.0
C1956 C 0.42738 0.31749 0.25319 0.0
C1957 C 0.40973 0.27183 0.21484 0.0
C1958 C 0.42953 0.28052 0.21632 0.0
C1959 C 0.43478 0.29562 0.22852 0.0
C1960 C 0.44496 0.27353 0.20578 0.0
C1961 C 0.40292 0.25635 0.20119 0.0
C1962 C 0.44822 0.25413 0.20867 0.0
C1963 C 0.4616 0.24695 0.19786 0.0
C1964 C 0.47225 0.25906 0.18398 0.0
C1965 C 0.46963 0.27878 0.1817 0.0
C1966 C 0.4561 0.28594 0.19252 0.0
H1967 H 0.38703 0.25542 0.19776 0.0
H1968 H 0.41097 0.25923 0.18784 0.0
H1969 H 0.40559 0.24199 0.20769 0.0
H1970 H 0.44016 0.2444 0.21914 0.0
H1971 H 0.46335 0.23176 0.20023 0.0
H1972 H 0.57301 0.42989 0.01326 0.0
H1973 H 0.56329 0.40012 0.03305 0.0
H1974 H 0.50489 0.41415 0.03482 0.0
H1975 H 0.51463 0.44428 0.01533 0.0
H1976 H 0.52065 0.40317 0.0704 0.0
H1977 H 0.52895 0.34987 0.01794 0.0
H1978 H 0.55017 0.36784 0.02073 0.0
H1979 H 0.52771 0.37521 0.01137 0.0
C1980 C 0.5581 0.42669 0.01789 0.0
C1981 C 0.5446 0.43949 0.01272 0.0
C1982 C 0.55251 0.40955 0.02903 0.0
C1983 C 0.5333 0.40477 0.03519 0.0
C1984 C 0.51976 0.41749 0.03009 0.0
H1985 H 0.49077 0.29088 0.09143 0.0
H1986 H 0.49342 0.32052 0.07032 0.0
C1987 C 0.52532 0.43464 0.01887 0.0
C1988 C 0.52764 0.38688 0.04757 0.0
H1989 H 0.52616 0.33749 0.0501 0.0
C1990 C 0.52167 0.38879 0.06591 0.0
C1991 C 0.52871 0.3681 0.04162 0.0
C1992 C 0.53405 0.36504 0.02178 0.0
C1993 C 0.51748 0.37248 0.0787 0.0
C1994 C 0.51953 0.35382 0.07306 0.0
C1995 C 0.52476 0.35183 0.05448 0.0
C1996 C 0.51711 0.33628 0.08641 0.0
C1997 C 0.51092 0.37539 0.09815 0.0
C1998 C 0.52956 0.33527 0.10243 0.0
C1999 C 0.5281 0.31839 0.11447 0.0
C2000 C 0.5142 0.3021 0.11071 0.0
C2001 C 0.50158 0.3032 0.09477 0.0
C2002 C 0.5031 0.3201 0.08267 0.0
H2003 H 0.50474 0.38919 0.09846 0.0
H2004 H 0.49978 0.36311 0.10313 0.0
H2005 H 0.52367 0.37611 0.1082 0.0
H2006 H 0.54074 0.34742 0.10539 0.0
H2007 H 0.53811 0.318 0.12657 0.0
H2008 H 0.67303 0.18677 0.28683 0.0
H2009 H 0.64536 0.18835 0.26432 0.0
H2010 H 0.65859 0.25098 0.25986 0.0
H2011 H 0.6863 0.24953 0.28221 0.0
H2012 H 0.61264 0.21045 0.26929 0.0
H2013 H 0.65374 0.23394 0.204 0.0
H2014 H 0.66445 0.2222 0.2245 0.0
H2015 H 0.66143 0.24736 0.22442 0.0
C2016 C 0.67018 0.20085 0.28086 0.0
C2017 C 0.68184 0.21803 0.2863 0.0
C2018 C 0.65433 0.20173 0.2681 0.0
C2019 C 0.65004 0.21977 0.26034 0.0
C2020 C 0.66178 0.23691 0.26555 0.0
H2021 H 0.56275 0.25874 0.1816 0.0
H2022 H 0.59076 0.2558 0.20312 0.0
C2023 C 0.67751 0.23606 0.27841 0.0
C2024 C 0.63284 0.22077 0.24734 0.0
H2025 H 0.61956 0.23381 0.20195 0.0
C2026 C 0.6141 0.21543 0.25453 0.0
C2027 C 0.63485 0.22744 0.22817 0.0
C2028 C 0.65468 0.23295 0.21968 0.0
C2029 C 0.59726 0.21698 0.24313 0.0
C2030 C 0.59923 0.22354 0.22387 0.0
C2031 C 0.61803 0.22878 0.21669 0.0
C2032 C 0.58201 0.22522 0.21094 0.0
C2033 C 0.57756 0.21216 0.25202 0.0
C2034 C 0.56782 0.20897 0.20799 0.0
C2035 C 0.55166 0.21063 0.19582 0.0
C2036 C 0.54948 0.22854 0.18608 0.0
C2037 C 0.5639 0.24473 0.18885 0.0
C2038 C 0.57996 0.24307 0.20115 0.0
H2039 H 0.57877 0.21301 0.2676 0.0
H2040 H 0.56742 0.22216 0.24619 0.0
H2041 H 0.5711 0.19707 0.24906 0.0
H2042 H 0.56932 0.19491 0.21497 0.0
H2043 H 0.54101 0.19779 0.19389 0.0
H2044 H 0.52502 0.08304 0.01932 0.0
H2045 H 0.53111 0.11044 0.03978 0.0
H2046 H 0.47171 0.12101 0.02983 0.0
H2047 H 0.46557 0.09394 0.00923 0.0
H2048 H 0.52622 0.15121 0.03265 0.0
H2049 H 0.47773 0.11298 0.08809 0.0
H2050 H 0.48665 0.1004 0.0696 0.0
H2051 H 0.46656 0.11381 0.06483 0.0
C2052 C 0.51332 0.09134 0.0213 0.0
C2053 C 0.49472 0.08609 0.01282 0.0
C2054 C 0.51682 0.10695 0.03305 0.0
C2055 C 0.50177 0.11753 0.03659 0.0
C2056 C 0.48342 0.11278 0.02761 0.0
H2057 H 0.48301 0.21009 0.10545 0.0
H2058 H 0.48093 0.18388 0.08376 0.0
C2059 C 0.47993 0.09725 0.01588 0.0
C2060 C 0.50495 0.13326 0.04999 0.0
H2061 H 0.48892 0.14648 0.09125 0.0
C2062 C 0.51819 0.15015 0.04557 0.0
C2063 C 0.49448 0.13182 0.06683 0.0
C2064 C 0.48068 0.11372 0.07277 0.0
C2065 C 0.52073 0.16594 0.05725 0.0
C2066 C 0.50999 0.1646 0.07396 0.0
C2067 C 0.49704 0.14755 0.07847 0.0
C2068 C 0.51155 0.18079 0.08683 0.0
C2069 C 0.53437 0.18413 0.05129 0.0
C2070 C 0.52941 0.18771 0.09589 0.0
C2071 C 0.53056 0.20261 0.10835 0.0
C2072 C 0.51377 0.21046 0.11235 0.0
C2073 C 0.49601 0.20378 0.10307 0.0
C2074 C 0.49486 0.18895 0.09057 0.0
H2075 H 0.53759 0.18472 0.03604 0.0
H2076 H 0.52812 0.19738 0.05413 0.0
H2077 H 0.54839 0.18435 0.05947 0.0
H2078 H 0.54241 0.18144 0.0935 0.0
H2079 H 0.54448 0.20778 0.11513 0.0
H2080 H 0.23099 0.34893 0.7497 0.0
H2081 H 0.25706 0.37662 0.75206 0.0
H2082 H 0.25963 0.38306 0.69137 0.0
H2083 H 0.23329 0.35542 0.68885 0.0
H2084 H 0.29532 0.37738 0.73565 0.0
H2085 H 0.2578 0.43963 0.70885 0.0
H2086 H 0.24459 0.41685 0.7183 0.0
H2087 H 0.25465 0.41839 0.69529 0.0
C2088 C 0.23685 0.35643 0.73683 0.0
C2089 C 0.23002 0.35002 0.71908 0.0
C2090 C 0.25178 0.3722 0.73821 0.0
C2091 C 0.26008 0.38202 0.72189 0.0
C2092 C 0.2532 0.37585 0.70412 0.0
H2093 H 0.35465 0.4807 0.71076 0.0
H2094 H 0.32878 0.45358 0.704 0.0
C2095 C 0.23831 0.35995 0.70272 0.0
C2096 C 0.27696 0.39767 0.72368 0.0
H2097 H 0.29137 0.44674 0.71705 0.0
C2098 C 0.29447 0.39256 0.73159 0.0
C2099 C 0.27585 0.41738 0.71812 0.0
C2100 C 0.25721 0.42355 0.70975 0.0
C2101 C 0.31092 0.40662 0.73419 0.0
C2102 C 0.30977 0.42648 0.72922 0.0
C2103 C 0.2923 0.43156 0.72094 0.0
C2104 C 0.32631 0.44218 0.73308 0.0
C2105 C 0.32957 0.40001 0.74173 0.0
C2106 C 0.33354 0.44484 0.75165 0.0
C2107 C 0.34834 0.46022 0.75547 0.0
C2108 C 0.3563 0.47318 0.7408 0.0
C2109 C 0.34903 0.47063 0.72225 0.0
C2110 C 0.33422 0.45521 0.71841 0.0
H2111 H 0.32949 0.38419 0.74038 0.0
H2112 H 0.34208 0.40818 0.73398 0.0
H2113 H 0.33157 0.40282 0.75692 0.0
H2114 H 0.3273 0.43541 0.76331 0.0
H2115 H 0.35307 0.46238 0.76999 0.0
H2116 H 0.27571 0.67203 0.83137 0.0
H2117 H 0.29411 0.64508 0.82747 0.0
H2118 H 0.27582 0.6447 0.76868 0.0
H2119 H 0.25715 0.67132 0.77268 0.0
H2120 H 0.27429 0.60771 0.78549 0.0
H2121 H 0.34604 0.65183 0.80121 0.0
H2122 H 0.32872 0.65051 0.81955 0.0
H2123 H 0.32398 0.66252 0.79695 0.0
C2124 C 0.27557 0.66606 0.81768 0.0
C2125 C 0.26527 0.67391 0.80227 0.0
C2126 C 0.28617 0.65078 0.81541 0.0
C2127 C 0.28672 0.64313 0.79767 0.0
C2128 C 0.27575 0.65045 0.78247 0.0
H2129 H 0.37159 0.58012 0.75444 0.0
H2130 H 0.35111 0.6037 0.76276 0.0
C2131 C 0.26512 0.66567 0.78474 0.0
C2132 C 0.29897 0.62779 0.79476 0.0
H2133 H 0.34614 0.61858 0.7965 0.0
C2134 C 0.28999 0.61005 0.78796 0.0
C2135 C 0.31952 0.63094 0.79775 0.0
C2136 C 0.33021 0.65003 0.8041 0.0
C2137 C 0.30095 0.59542 0.78404 0.0
C2138 C 0.32146 0.59845 0.78731 0.0
C2139 C 0.33042 0.61617 0.79416 0.0
C2140 C 0.33403 0.58392 0.78272 0.0
C2141 C 0.29053 0.57711 0.77583 0.0
C2142 C 0.33151 0.56496 0.79138 0.0
C2143 C 0.34321 0.55136 0.78658 0.0
C2144 C 0.35777 0.55651 0.77314 0.0
C2145 C 0.36052 0.57563 0.76482 0.0
C2146 C 0.34881 0.58916 0.76958 0.0
H2147 H 0.27579 0.57904 0.76993 0.0
H2148 H 0.2991 0.57255 0.7645 0.0
H2149 H 0.28871 0.56519 0.78712 0.0
H2150 H 0.3205 0.56067 0.80186 0.0
H2151 H 0.34077 0.53679 0.79332 0.0
H2152 H 0.94518 0.52509 0.46162 0.0
H2153 H 0.91311 0.50499 0.46378 0.0
H2154 H 0.91471 0.50995 0.52398 0.0
H2155 H 0.94706 0.52959 0.52212 0.0
H2156 H 0.90255 0.46844 0.48799 0.0
H2157 H 0.86208 0.52874 0.50289 0.0
H2158 H 0.88566 0.53307 0.49215 0.0
H2159 H 0.88393 0.52635 0.51693 0.0
C2160 C 0.93888 0.52172 0.47538 0.0
C2161 C 0.94876 0.52905 0.49169 0.0
C2162 C 0.92048 0.51033 0.47655 0.0
C2163 C 0.91148 0.50618 0.494 0.0
C2164 C 0.92131 0.51324 0.51034 0.0
H2165 H 0.8068 0.42077 0.51575 0.0
H2166 H 0.8385 0.44141 0.51952 0.0
C2167 C 0.93977 0.52453 0.50921 0.0
C2168 C 0.89183 0.49439 0.49504 0.0
H2169 H 0.84389 0.49728 0.50215 0.0
C2170 C 0.88973 0.47468 0.49121 0.0
C2171 C 0.87516 0.50266 0.49914 0.0
C2172 C 0.87665 0.5239 0.50291 0.0
C2173 C 0.87134 0.463 0.49129 0.0
C2174 C 0.85466 0.47126 0.49535 0.0
C2175 C 0.85676 0.49097 0.49924 0.0
C2176 C 0.8348 0.45993 0.49429 0.0
C2177 C 0.86974 0.44202 0.48652 0.0
C2178 C 0.82204 0.46391 0.47919 0.0
C2179 C 0.80399 0.45216 0.47694 0.0
C2180 C 0.79824 0.43627 0.48989 0.0
C2181 C 0.81071 0.4329 0.50555 0.0
C2182 C 0.82887 0.4446 0.50768 0.0
H2183 H 0.8836 0.43859 0.4812 0.0
H2184 H 0.86593 0.43239 0.49936 0.0
H2185 H 0.85792 0.43862 0.47569 0.0
H2186 H 0.82634 0.47572 0.46874 0.0
H2187 H 0.79475 0.45526 0.46477 0.0
H2188 H 0.7856 0.84997 0.78907 0.0
H2189 H 0.76223 0.87298 0.7841 0.0
H2190 H 0.76782 0.8847 0.843 0.0
H2191 H 0.7917 0.86208 0.84809 0.0
H2192 H 0.72767 0.87733 0.82719 0.0
H2193 H 0.77612 0.93359 0.78487 0.0
H2194 H 0.77407 0.90923 0.77729 0.0
H2195 H 0.78536 0.91476 0.79988 0.0
C2196 C 0.78213 0.85761 0.80097 0.0
C2197 C 0.79077 0.8542 0.81898 0.0
C2198 C 0.76866 0.87072 0.79809 0.0
C2199 C 0.76342 0.88071 0.81313 0.0
C2200 C 0.77167 0.87715 0.83118 0.0
H2201 H 0.7014 0.98143 0.8033 0.0
H2202 H 0.72415 0.95834 0.81209 0.0
C2203 C 0.78527 0.86412 0.83407 0.0
C2204 C 0.74931 0.89486 0.80994 0.0
H2205 H 0.74301 0.93812 0.78639 0.0
C2206 C 0.73103 0.89066 0.81834 0.0
C2207 C 0.75379 0.91233 0.79853 0.0
C2208 C 0.77345 0.91792 0.78971 0.0
C2209 C 0.71694 0.90326 0.81526 0.0
C2210 C 0.72122 0.92047 0.80341 0.0
C2211 C 0.73968 0.92487 0.79538 0.0
C2212 C 0.70675 0.93409 0.79903 0.0
C2213 C 0.69764 0.89817 0.82482 0.0
C2214 C 0.68935 0.92816 0.78878 0.0
C2215 C 0.67634 0.94136 0.78366 0.0
C2216 C 0.68044 0.96078 0.78871 0.0
C2217 C 0.69772 0.96658 0.79925 0.0
C2218 C 0.71079 0.9534 0.80426 0.0
H2219 H 0.69833 0.88709 0.83678 0.0
H2220 H 0.69298 0.91132 0.83015 0.0
H2221 H 0.68633 0.89211 0.81444 0.0
H2222 H 0.68606 0.91342 0.78433 0.0
H2223 H 0.66322 0.93642 0.77547 0.0
H2224 H 0.58382 0.52646 0.9948 0.0
H2225 H 0.61565 0.54588 1.00087 0.0
H2226 H 0.6418 0.49343 0.00975 0.0
H2227 H 0.61003 0.47386 0.00356 0.0
H2228 H 0.65439 0.52082 0.03668 0.0
H2229 H 0.66038 0.55408 0.96356 0.0
H2230 H 0.63825 0.55716 0.97451 0.0
H2231 H 0.64263 0.53312 0.96992 0.0
C2232 C 0.59636 0.51904 0.9979 0.0
C2233 C 0.59438 0.4986 0.99854 0.0
C2234 C 0.61453 0.53016 1.00141 0.0
C2235 C 0.63114 0.52111 0.00553 0.0
C2236 C 0.62917 0.50071 0.0066 0.0
H2237 H 0.74523 0.593 0.99489 0.0
H2238 H 0.71761 0.56702 0.99166 0.0
C2239 C 0.61099 0.48956 0.0031 0.0
C2240 C 0.65058 0.53299 0.00831 0.0
H2241 H 0.68341 0.56753 0.98616 0.0
C2242 C 0.66074 0.5312 0.02571 0.0
C2243 C 0.65918 0.54594 0.99376 0.0
C2244 C 0.64967 0.54759 0.97432 0.0
C2245 C 0.67888 0.54269 0.02923 0.0
C2246 C 0.68684 0.55676 0.01511 0.0
C2247 C 0.6771 0.55758 0.99737 0.0
C2248 C 0.70491 0.57105 0.01827 0.0
C2249 C 0.68949 0.53906 0.04782 0.0
C2250 C 0.70745 0.58193 0.03443 0.0
C2251 C 0.72375 0.59629 0.03658 0.0
C2252 C 0.73716 0.6008 0.02212 0.0
C2253 C 0.73482 0.58995 0.00608 0.0
C2254 C 0.71899 0.57511 0.00425 0.0
H2255 H 0.68584 0.52363 0.05327 0.0
H2256 H 0.70557 0.54248 0.04655 0.0
H2257 H 0.6848 0.54823 0.05843 0.0
H2258 H 0.69657 0.57981 0.04517 0.0
H2259 H 0.72538 0.60448 0.04912 0.0
H2260 H 0.30049 0.66003 0.18319 0.0
H2261 H 0.27656 0.63051 0.18769 0.0
H2262 H 0.27706 0.63833 0.24741 0.0
H2263 H 0.30082 0.66788 0.24304 0.0
H2264 H 0.28023 0.60008 0.23874 0.0
H2265 H 0.21843 0.62791 0.19864 0.0
H2266 H 0.24062 0.62971 0.18596 0.0
H2267 H 0.24 0.64377 0.20614 0.0
C2268 C 0.29536 0.65557 0.19726 0.0
C2269 C 0.30258 0.66634 0.21276 0.0
C2270 C 0.28169 0.63869 0.1998 0.0
C2271 C 0.27488 0.63235 0.21785 0.0
C2272 C 0.28214 0.64297 0.23335 0.0
H2273 H 0.19388 0.54395 0.2737 0.0
H2274 H 0.22058 0.56947 0.26431 0.0
C2275 C 0.2958 0.65981 0.23084 0.0
C2276 C 0.26033 0.61453 0.22076 0.0
H2277 H 0.21319 0.59513 0.21045 0.0
C2278 C 0.26555 0.59899 0.23257 0.0
C2279 C 0.24126 0.61306 0.21254 0.0
C2280 C 0.23461 0.62953 0.20023 0.0
C2281 C 0.25213 0.58212 0.23658 0.0
C2282 C 0.23286 0.5809 0.22886 0.0
C2283 C 0.22788 0.59614 0.21651 0.0
C2284 C 0.21728 0.56466 0.23447 0.0
C2285 C 0.25882 0.56572 0.24898 0.0
C2286 C 0.20626 0.55365 0.22081 0.0
C2287 C 0.19077 0.53919 0.22619 0.0
C2288 C 0.18581 0.53597 0.24522 0.0
C2289 C 0.19717 0.54656 0.25888 0.0
C2290 C 0.21261 0.56092 0.25355 0.0
H2291 H 0.27483 0.5659 0.24826 0.0
H2292 H 0.25552 0.56746 0.26387 0.0
H2293 H 0.25126 0.55132 0.24489 0.0
H2294 H 0.20957 0.55633 0.206 0.0
H2295 H 0.18236 0.53092 0.21548 0.0
H2296 H 0.96545 0.53923 0.06303 0.0
H2297 H 0.94071 0.56079 0.05738 0.0
H2298 H 0.9022 0.51503 0.03134 0.0
H2299 H 0.92649 0.49306 0.03752 0.0
H2300 H 0.90894 0.55548 0.01057 0.0
H2301 H 0.88612 0.55411 0.08495 0.0
H2302 H 0.91191 0.55786 0.08075 0.0
H2303 H 0.89754 0.53488 0.07633 0.0
C2304 C 0.95164 0.53357 0.05635 0.0
C2305 C 0.94806 0.51425 0.05083 0.0
C2306 C 0.93754 0.546 0.05303 0.0
C2307 C 0.91957 0.53949 0.04403 0.0
C2308 C 0.91598 0.52037 0.03829 0.0
H2309 H 0.81702 0.59087 0.00418 0.0
H2310 H 0.84353 0.57136 0.00896 0.0
C2311 C 0.92999 0.50786 0.04175 0.0
C2312 C 0.90457 0.55265 0.04049 0.0
H2313 H 0.87159 0.57453 0.06258 0.0
C2314 C 0.90074 0.55966 0.02191 0.0
C2315 C 0.89404 0.55822 0.05532 0.0
C2316 C 0.89743 0.55085 0.07549 0.0
C2317 C 0.88678 0.57224 0.01778 0.0
C2318 C 0.87587 0.5775 0.03258 0.0
C2319 C 0.87987 0.57056 0.0512 0.0
C2320 C 0.86003 0.58986 0.02909 0.0
C2321 C 0.88424 0.58011 0.99763 0.0
C2322 C 0.86007 0.60659 0.03911 0.0
C2323 C 0.84471 0.61765 0.0366 0.0
C2324 C 0.82895 0.61224 0.02398 0.0
C2325 C 0.82903 0.59561 0.01382 0.0
C2326 C 0.84429 0.58447 0.01647 0.0
H2327 H 0.8976 0.58005 0.98951 0.0
H2328 H 0.87208 0.57072 0.9906 0.0
H2329 H 0.88075 0.5952 0.99697 0.0
H2330 H 0.87195 0.61105 0.049 0.0
H2331 H 0.84508 0.63031 0.04472 0.0
H2332 H 0.08626 0.99077 0.05378 0.0
H2333 H 0.11405 0.97467 0.04657 0.0
H2334 H 0.11874 0.00711 0.99252 0.0
H2335 H 0.09118 0.02339 0.99986 0.0
H2336 H 0.11611 0.95129 0.01715 0.0
H2337 H 0.17507 0.01462 0.01222 0.0
H2338 H 0.152 0.01568 0.02273 0.0
H2339 H 0.15396 0.01774 0.99747 0.0
C2340 C 0.0934 0.99456 0.04046 0.0
C2341 C 0.08649 0.00814 0.02728 0.0
C2342 C 0.10923 0.98536 0.03633 0.0
C2343 C 0.11862 0.98976 0.01906 0.0
C2344 C 0.11199 0.00369 0.00607 0.0
H2345 H 0.20892 0.94335 0.96242 0.0
H2346 H 0.18296 0.96097 0.97111 0.0
C2347 C 0.09617 0.0129 0.01021 0.0
C2348 C 0.1346 0.97902 0.01422 0.0
H2349 H 0.18222 0.98502 1.00119 0.0
C2350 C 0.1306 0.95866 0.0138 0.0
C2351 C 0.15351 0.98862 0.00974 0.0
C2352 C 0.159 0.01035 0.01072 0.0
C2353 C 0.14482 0.9477 0.00869 0.0
C2354 C 0.16371 0.95731 0.00417 0.0
C2355 C 0.16773 0.97766 0.00462 0.0
C2356 C 0.17948 0.94648 0.99897 0.0
C2357 C 0.13934 0.92597 0.00772 0.0
C2358 C 0.18633 0.93258 0.0118 0.0
C2359 C 0.20118 0.92244 0.00689 0.0
C2360 C 0.20963 0.92604 0.98904 0.0
C2361 C 0.2028 0.94012 0.97627 0.0
C2362 C 0.18795 0.95026 0.98122 0.0
H2363 H 0.12325 0.92159 0.00677 0.0
H2364 H 0.1459 0.92076 0.99538 0.0
H2365 H 0.14493 0.91855 0.02071 0.0
H2366 H 0.1803 0.92968 0.02572 0.0
H2367 H 0.2061 0.91184 0.01716 0.0
loop_
_geom_bond_atom_site_label_1
_geom_bond_atom_site_label_2
_geom_bond_distance
_geom_bond_site_symmetry_2
_ccdc_geom_bond_type
H0 C7 0.929 . S
H1 C10 0.930 . S
H2 C12 0.929 . S
H3 C4 0.970 . S
C4 H3 0.970 . S
C4 O5 1.549 1_565 S
C4 H6 0.973 . S
O5 C4 1.549 1_545 S
O5 C11 1.412 . S
H6 C4 0.973 . S
C7 H0 0.929 . S
C7 C8 1.400 . S
C7 C9 1.364 . S
C8 C7 1.400 . S
C8 C12 1.377 . S
C9 C7 1.364 . S
C9 C10 1.374 . S
C10 H1 0.930 . S
C10 C9 1.374 . S
C10 C11 1.383 . S
C11 O5 1.412 . S
C11 C10 1.383 . S
C11 C12 1.394 . S
C12 H2 0.929 . S
C12 C8 1.377 . S
C12 C11 1.394 . S
H13 C20 0.929 . S
H14 C23 0.930 . S
H15 C25 0.929 . S
H16 C17 0.969 . S
C17 H16 0.969 . S
C17 O18 1.550 . S
C17 H19 0.973 . S
O18 C17 1.550 . S
O18 C24 1.412 . S
H19 C17 0.973 . S
C20 H13 0.929 . S
C20 C21 1.400 . S
C20 C22 1.364 . S
C21 C20 1.400 . S
C21 C25 1.377 . S
C22 C20 1.364 . S
C22 C23 1.374 . S
C23 H14 0.930 . S
C23 C22 1.374 . S
C23 C24 1.383 . S
C24 O18 1.412 . S
C24 C23 1.383 . S
C24 C25 1.394 . S
C25 H15 0.929 . S
C25 C21 1.377 . S
C25 C24 1.394 . S
H26 C33 0.929 . S
H27 C36 0.930 . S
H28 C38 0.929 1_455 S
H29 C30 0.969 . S
C30 H29 0.969 . S
C30 O31 1.550 . S
C30 H32 0.973 . S
O31 C30 1.550 . S
O31 C37 1.412 . S
H32 C30 0.973 . S
C33 H26 0.929 . S
C33 C34 1.400 . S
C33 C35 1.364 . S
C34 C33 1.400 . S
C34 C38 1.377 . S
C35 C33 1.364 . S
C35 C36 1.374 . S
C36 H27 0.930 . S
C36 C35 1.374 . S
C36 C37 1.383 . S
C37 O31 1.412 . S
C37 C36 1.383 . S
C37 C38 1.394 . S
C38 H28 0.929 1_655 S
C38 C34 1.377 . S
C38 C37 1.394 . S
H39 C46 0.929 . S
H40 C49 0.930 . S
H41 C51 0.929 . S
H42 C43 0.969 . S
C43 H42 0.969 . S
C43 O44 1.550 . S
C43 H45 0.973 . S
O44 C43 1.550 . S
O44 C50 1.412 . S
H45 C43 0.973 . S
C46 H39 0.929 . S
C46 C47 1.400 . S
C46 C48 1.364 . S
C47 C46 1.400 . S
C47 C51 1.377 . S
C48 C46 1.364 . S
C48 C49 1.374 . S
C49 H40 0.930 . S
C49 C48 1.374 . S
C49 C50 1.383 . S
C50 O44 1.412 . S
C50 C49 1.383 . S
C50 C51 1.394 . S
C51 H41 0.929 . S
C51 C47 1.377 . S
C51 C50 1.394 . S
H52 C59 0.929 . S
H53 C62 0.930 . S
H54 C64 0.929 1_545 S
H55 C56 0.969 . S
C56 H55 0.969 . S
C56 O57 1.550 . S
C56 H58 0.973 . S
O57 C56 1.550 . S
O57 C63 1.412 . S
H58 C56 0.973 . S
C59 H52 0.929 . S
C59 C60 1.400 . S
C59 C61 1.364 . S
C60 C59 1.400 . S
C60 C64 1.377 . S
C61 C59 1.364 . S
C61 C62 1.374 . S
C62 H53 0.930 . S
C62 C61 1.374 . S
C62 C63 1.383 . S
C63 O57 1.412 . S
C63 C62 1.383 . S
C63 C64 1.394 . S
C64 H54 0.929 1_565 S
C64 C60 1.377 . S
C64 C63 1.394 . S
H65 C72 0.929 . S
H66 C75 0.930 . S
H67 C77 0.929 . S
H68 C69 0.969 . S
C69 H68 0.969 . S
C69 O70 1.550 . S
C69 H71 0.973 . S
O70 C69 1.550 . S
O70 C76 1.412 . S
H71 C69 0.973 . S
C72 H65 0.929 . S
C72 C73 1.400 . S
C72 C74 1.364 . S
C73 C72 1.400 . S
C73 C77 1.377 . S
C74 C72 1.364 . S
C74 C75 1.374 . S
C75 H66 0.930 . S
C75 C74 1.374 . S
C75 C76 1.383 . S
C76 O70 1.412 . S
C76 C75 1.383 . S
C76 C77 1.394 . S
C77 H67 0.929 . S
C77 C73 1.377 . S
C77 C76 1.394 . S
H78 C85 0.929 . S
H79 C88 0.930 . S
H80 C90 0.929 . S
H81 C82 0.969 . S
C82 H81 0.969 . S
C82 O83 1.550 . S
C82 H84 0.973 . S
O83 C82 1.550 . S
O83 C89 1.456 . S
H84 C82 0.973 . S
C85 H78 0.929 . S
C85 C86 1.400 . S
C85 C87 1.364 . S
C86 C85 1.400 . S
C86 C90 1.377 1_655 S
C87 C85 1.364 . S
C87 C88 1.374 . S
C88 H79 0.930 . S
C88 C87 1.374 . S
C88 C89 1.349 1_655 S
C89 O83 1.456 . S
C89 C88 1.349 1_455 S
C89 C90 1.395 . S
C90 H80 0.929 . S
C90 C86 1.377 1_455 S
C90 C89 1.395 . S
H91 C98 0.929 . S
H92 C101 0.930 . S
H93 C103 0.929 . S
H94 C95 0.969 . S
C95 H94 0.969 . S
C95 O96 1.550 . S
C95 H97 0.973 . S
O96 C95 1.550 . S
O96 C102 1.412 . S
H97 C95 0.973 . S
C98 H91 0.929 . S
C98 C99 1.400 . S
C98 C100 1.364 . S
C99 C98 1.400 . S
C99 C103 1.377 . S
C100 C98 1.364 . S
C100 C101 1.374 . S
C101 H92 0.930 . S
C101 C100 1.374 . S
C101 C102 1.383 . S
C102 O96 1.412 . S
C102 C101 1.383 . S
C102 C103 1.394 . S
C103 H93 0.929 . S
C103 C99 1.377 . S
C103 C102 1.394 . S
H104 C111 0.929 . S
H105 C114 0.930 . S
H106 C116 0.929 . S
H107 C108 0.969 . S
C108 H107 0.969 . S
C108 O109 1.550 . S
C108 H110 0.973 . S
O109 C108 1.550 . S
O109 C115 1.412 . S
H110 C108 0.973 . S
C111 H104 0.929 . S
C111 C112 1.400 . S
C111 C113 1.364 . S
C112 C111 1.400 . S
C112 C116 1.377 . S
C113 C111 1.364 . S
C113 C114 1.374 . S
C114 H105 0.930 . S
C114 C113 1.374 . S
C114 C115 1.383 . S
C115 O109 1.412 . S
C115 C114 1.383 . S
C115 C116 1.394 . S
C116 H106 0.929 . S
C116 C112 1.377 . S
C116 C115 1.394 . S
H117 C124 0.929 . S
H118 C127 0.930 . S
H119 C129 0.929 . S
H120 C121 0.969 . S
C121 H120 0.969 . S
C121 O122 1.550 . S
C121 H123 0.973 . S
O122 C121 1.550 . S
O122 C128 1.412 . S
H123 C121 0.973 . S
C124 H117 0.929 . S
C124 C125 1.400 . S
C124 C126 1.364 . S
C125 C124 1.400 . S
C125 C129 1.377 . S
C126 C124 1.364 . S
C126 C127 1.374 . S
C127 H118 0.930 . S
C127 C126 1.374 . S
C127 C128 1.383 . S
C128 O122 1.412 . S
C128 C127 1.383 . S
C128 C129 1.394 . S
C129 H119 0.929 . S
C129 C125 1.377 . S
C129 C128 1.394 . S
H130 C137 0.929 . S
H131 C140 0.930 . S
H132 C142 0.929 . S
H133 C134 0.969 . S
C134 H133 0.969 . S
C134 O135 1.550 . S
C134 H136 0.973 . S
O135 C134 1.550 . S
O135 C141 1.412 . S
H136 C134 0.973 . S
C137 H130 0.929 . S
C137 C138 1.400 . S
C137 C139 1.364 . S
C138 C137 1.400 . S
C138 C142 1.377 . S
C139 C137 1.364 . S
C139 C140 1.374 . S
C140 H131 0.930 . S
C140 C139 1.374 . S
C140 C141 1.383 . S
C141 O135 1.412 . S
C141 C140 1.383 . S
C141 C142 1.394 . S
C142 H132 0.929 . S
C142 C138 1.377 . S
C142 C141 1.394 . S
H143 C150 0.929 . S
H144 C153 0.930 . S
H145 C155 0.929 . S
H146 C147 0.969 . S
C147 H146 0.969 . S
C147 O148 1.550 . S
C147 H149 0.973 . S
O148 C147 1.550 . S
O148 C154 1.412 . S
H149 C147 0.973 . S
C150 H143 0.929 . S
C150 C151 1.400 . S
C150 C152 1.364 . S
C151 C150 1.400 . S
C151 C155 1.377 . S
C152 C150 1.364 . S
C152 C153 1.374 . S
C153 H144 0.930 . S
C153 C152 1.374 . S
C153 C154 1.383 . S
C154 O148 1.412 . S
C154 C153 1.383 . S
C154 C155 1.394 . S
C155 H145 0.929 . S
C155 C151 1.377 . S
C155 C154 1.394 . S
H156 C163 0.929 . S
H157 C166 0.930 . S
H158 C168 0.929 . S
H159 C160 0.969 . S
C160 H159 0.969 . S
C160 O161 1.550 . S
C160 H162 0.973 . S
O161 C160 1.550 . S
O161 C167 1.412 . S
H162 C160 0.973 . S
C163 H156 0.929 . S
C163 C164 1.400 . S
C163 C165 1.364 . S
C164 C163 1.400 . S
C164 C168 1.377 . S
C165 C163 1.364 . S
C165 C166 1.374 . S
C166 H157 0.930 . S
C166 C165 1.374 . S
C166 C167 1.383 . S
C167 O161 1.412 . S
C167 C166 1.383 . S
C167 C168 1.394 . S
C168 H158 0.929 . S
C168 C164 1.377 . S
C168 C167 1.394 . S
H169 C176 0.929 . S
H170 C179 0.930 . S
H171 C181 0.929 . S
H172 C173 0.969 . S
C173 H172 0.969 . S
C173 O174 1.550 . S
C173 H175 0.973 . S
O174 C173 1.550 . S
O174 C180 1.412 . S
H175 C173 0.973 . S
C176 H169 0.929 . S
C176 C177 1.400 . S
C176 C178 1.364 . S
C177 C176 1.400 . S
C177 C181 1.377 . S
C178 C176 1.364 . S
C178 C179 1.374 . S
C179 H170 0.930 . S
C179 C178 1.374 . S
C179 C180 1.383 . S
C180 O174 1.412 . S
C180 C179 1.383 . S
C180 C181 1.394 . S
C181 H171 0.929 . S
C181 C177 1.377 . S
C181 C180 1.394 . S
H182 C189 0.929 . S
H183 C192 0.930 . S
H184 C194 0.929 . S
H185 C186 0.969 . S
C186 H185 0.969 . S
C186 O187 1.550 . S
C186 H188 0.973 . S
O187 C186 1.550 . S
O187 C193 1.412 . S
H188 C186 0.973 . S
C189 H182 0.929 . S
C189 C190 1.400 . S
C189 C191 1.364 . S
C190 C189 1.400 . S
C190 C194 1.377 . S
C191 C189 1.364 . S
C191 C192 1.374 . S
C192 H183 0.930 . S
C192 C191 1.374 . S
C192 C193 1.383 . S
C193 O187 1.412 . S
C193 C192 1.383 . S
C193 C194 1.394 . S
C194 H184 0.929 . S
C194 C190 1.377 . S
C194 C193 1.394 . S
H195 C202 0.929 . S
H196 C205 0.930 . S
H197 C207 0.929 . S
H198 C199 0.969 . S
C199 H198 0.969 . S
C199 O200 1.550 . S
C199 H201 0.973 . S
O200 C199 1.550 . S
O200 C206 1.412 . S
H201 C199 0.973 . S
C202 H195 0.929 . S
C202 C203 1.400 . S
C202 C204 1.364 1_554 S
C203 C202 1.400 . S
C203 C207 1.349 1_554 S
C204 C202 1.364 1_556 S
C204 C205 1.374 . S
C205 H196 0.930 . S
C205 C204 1.374 . S
C205 C206 1.383 . S
C206 O200 1.412 . S
C206 C205 1.383 . S
C206 C207 1.394 . S
C207 H197 0.929 . S
C207 C203 1.349 1_556 S
C207 C206 1.394 . S
Mn208 O213 2.095 . S
Mn208 O223 2.162 . S
Mn208 O224 2.297 . S
Mn208 O232 2.385 1_554 S
Mn208 O233 2.209 1_554 S
Mn208 O234 2.094 . S
Mn209 O214 2.121 . S
Mn209 N216 2.257 . S
Mn209 N225 2.282 . S
Mn209 O233 2.215 . S
Mn209 O235 2.117 . S
C210 O232 1.234 . S
C210 O233 1.283 . S
C211 O223 1.281 . S
C211 O224 1.236 . S
C212 O234 1.240 1_556 S
C212 O235 1.264 . S
O213 Mn208 2.095 . S
O213 C222 1.250 1_554 S
O214 Mn209 2.121 . S
O214 C222 1.258 . S
C215 N216 1.326 . S
C215 C219 1.460 . S
C215 H221 0.929 . S
N216 Mn209 2.257 . S
N216 C215 1.326 . S
N216 C220 1.362 . S
C217 C218 1.258 . S
C217 C220 1.431 . S
C217 C237 1.449 . S
C218 C217 1.258 . S
C218 C219 1.477 . S
C218 H238 0.931 . S
C219 C215 1.460 . S
C219 C218 1.477 . S
C219 H239 0.930 . S
C220 N216 1.362 . S
C220 C217 1.431 . S
C220 C230 1.476 . S
H221 C215 0.929 . S
C222 O213 1.250 1_556 S
C222 O214 1.258 . S
O223 Mn208 2.162 . S
O223 C211 1.281 . S
O224 Mn208 2.297 . S
O224 C211 1.236 . S
N225 Mn209 2.282 . S
N225 C226 1.328 . S
N225 C230 1.318 . S
C226 N225 1.328 . S
C226 C227 1.457 . S
C226 H231 0.929 . S
C227 C226 1.457 . S
C227 C228 1.291 . S
C227 H240 0.931 . S
C228 C227 1.291 . S
C228 C229 1.373 . S
C228 H241 0.929 . S
C229 C228 1.373 . S
C229 C230 1.396 . S
C229 C236 1.403 . S
C230 C220 1.476 . S
C230 N225 1.318 . S
C230 C229 1.396 . S
H231 C226 0.929 . S
O232 Mn208 2.385 1_556 S
O232 C210 1.234 . S
O233 Mn208 2.209 1_556 S
O233 Mn209 2.215 . S
O233 C210 1.283 . S
O234 Mn208 2.094 . S
O234 C212 1.240 1_554 S
O235 Mn209 2.117 . S
O235 C212 1.264 . S
C236 C229 1.403 . S
C236 C237 1.399 . S
C236 H242 0.929 . S
C237 C217 1.449 . S
C237 C236 1.399 . S
C237 H243 0.930 . S
H238 C218 0.931 . S
H239 C219 0.930 . S
H240 C227 0.931 . S
H241 C228 0.929 . S
H242 C236 0.929 . S
H243 C237 0.930 . S
Mn244 O249 2.095 . S
Mn244 O259 2.162 . S
Mn244 O260 2.297 . S
Mn244 O268 2.385 . S
Mn244 O269 2.209 . S
Mn244 O270 2.094 . S
Mn245 O250 2.121 . S
Mn245 N252 2.257 . S
Mn245 N261 2.282 . S
Mn245 O269 2.215 . S
Mn245 O271 2.117 . S
C246 O268 1.234 . S
C246 O269 1.283 . S
C247 O259 1.281 . S
C247 O260 1.236 . S
C248 O270 1.240 . S
C248 O271 1.264 . S
O249 Mn244 2.095 . S
O249 C258 1.250 . S
O250 Mn245 2.121 . S
O250 C258 1.258 . S
C251 N252 1.326 . S
C251 C255 1.460 . S
C251 H257 0.929 . S
N252 Mn245 2.257 . S
N252 C251 1.326 . S
N252 C256 1.362 . S
C253 C254 1.258 . S
C253 C256 1.431 . S
C253 C273 1.449 . S
C254 C253 1.258 . S
C254 C255 1.477 . S
C254 H274 0.931 . S
C255 C251 1.460 . S
C255 C254 1.477 . S
C255 H275 0.930 . S
C256 N252 1.362 . S
C256 C253 1.431 . S
C256 C266 1.476 . S
H257 C251 0.929 . S
C258 O249 1.250 . S
C258 O250 1.258 . S
O259 Mn244 2.162 . S
O259 C247 1.281 . S
O260 Mn244 2.297 . S
O260 C247 1.236 . S
N261 Mn245 2.282 . S
N261 C262 1.328 . S
N261 C266 1.318 . S
C262 N261 1.328 . S
C262 C263 1.457 . S
C262 H267 0.929 . S
C263 C262 1.457 . S
C263 C264 1.291 . S
C263 H276 0.931 . S
C264 C263 1.291 . S
C264 C265 1.373 . S
C264 H277 0.929 . S
C265 C264 1.373 . S
C265 C266 1.396 . S
C265 C272 1.403 . S
C266 C256 1.476 . S
C266 N261 1.318 . S
C266 C265 1.396 . S
H267 C262 0.929 . S
O268 Mn244 2.385 . S
O268 C246 1.234 . S
O269 Mn244 2.209 . S
O269 Mn245 2.215 . S
O269 C246 1.283 . S
O270 Mn244 2.094 . S
O270 C248 1.240 . S
O271 Mn245 2.117 . S
O271 C248 1.264 . S
C272 C265 1.403 . S
C272 C273 1.399 . S
C272 H278 0.929 . S
C273 C253 1.449 . S
C273 C272 1.399 . S
C273 H279 0.930 . S
H274 C254 0.931 . S
H275 C255 0.930 . S
H276 C263 0.931 . S
H277 C264 0.929 . S
H278 C272 0.929 . S
H279 C273 0.930 . S
Mn280 O285 2.095 . S
Mn280 O295 2.162 . S
Mn280 O296 2.297 . S
Mn280 O304 2.385 . S
Mn280 O305 2.209 . S
Mn280 O306 2.094 . S
Mn281 O286 2.121 1_554 S
Mn281 N288 2.257 1_554 S
Mn281 N297 2.282 . S
Mn281 O305 2.215 . S
Mn281 O307 2.117 . S
C282 O304 1.234 . S
C282 O305 1.283 . S
C283 O295 1.281 . S
C283 O296 1.236 . S
C284 O306 1.240 . S
C284 O307 1.264 . S
O285 Mn280 2.095 . S
O285 C294 1.250 . S
O286 Mn281 2.121 1_556 S
O286 C294 1.258 1_556 S
C287 N288 1.326 . S
C287 C291 1.460 . S
C287 H293 0.929 . S
N288 Mn281 2.257 1_556 S
N288 C287 1.326 . S
N288 C292 1.362 . S
C289 C290 1.258 . S
C289 C292 1.431 . S
C289 C309 1.449 . S
C290 C289 1.258 . S
C290 C291 1.477 . S
C290 H310 0.931 . S
C291 C287 1.460 . S
C291 C290 1.477 . S
C291 H311 0.930 . S
C292 N288 1.362 . S
C292 C289 1.431 . S
C292 C302 1.476 1_556 S
H293 C287 0.929 . S
C294 O285 1.250 . S
C294 O286 1.258 1_554 S
O295 Mn280 2.162 . S
O295 C283 1.281 . S
O296 Mn280 2.297 . S
O296 C283 1.236 . S
N297 Mn281 2.282 . S
N297 C298 1.328 . S
N297 C302 1.318 . S
C298 N297 1.328 . S
C298 C299 1.457 . S
C298 H303 0.929 . S
C299 C298 1.457 . S
C299 C300 1.291 . S
C299 H312 0.931 . S
C300 C299 1.291 . S
C300 C301 1.373 . S
C300 H313 0.929 . S
C301 C300 1.373 . S
C301 C302 1.396 . S
C301 C308 1.403 1_554 S
C302 C292 1.476 1_554 S
C302 N297 1.318 . S
C302 C301 1.396 . S
H303 C298 0.929 . S
O304 Mn280 2.385 . S
O304 C282 1.234 . S
O305 Mn280 2.209 . S
O305 Mn281 2.215 . S
O305 C282 1.283 . S
O306 Mn280 2.094 . S
O306 C284 1.240 . S
O307 Mn281 2.117 . S
O307 C284 1.264 . S
C308 C301 1.403 1_556 S
C308 C309 1.399 . S
C308 H314 0.920 1_556 S
C309 C289 1.449 . S
C309 C308 1.399 . S
C309 H315 0.930 . S
H310 C290 0.931 . S
H311 C291 0.930 . S
H312 C299 0.931 . S
H313 C300 0.929 . S
H314 C308 0.920 1_554 S
H315 C309 0.930 . S
Mn316 O321 2.095 . S
Mn316 O331 2.162 . S
Mn316 O332 2.297 . S
Mn316 O340 2.385 . S
Mn316 O341 2.209 1_545 S
Mn316 O342 2.094 . S
Mn317 O322 2.143 . S
Mn317 N324 2.257 . S
Mn317 N333 2.282 . S
Mn317 O341 2.215 . S
Mn317 O343 2.117 1_565 S
C318 O340 1.234 1_565 S
C318 O341 1.283 . S
C319 O331 1.281 . S
C319 O332 1.236 . S
C320 O342 1.240 . S
C320 O343 1.264 . S
O321 Mn316 2.095 . S
O321 C330 1.250 . S
O322 Mn317 2.143 . S
O322 C330 1.209 1_565 S
C323 N324 1.326 . S
C323 C327 1.460 . S
C323 H329 0.929 . S
N324 Mn317 2.257 . S
N324 C323 1.326 . S
N324 C328 1.362 . S
C325 C326 1.258 . S
C325 C328 1.431 . S
C325 C345 1.449 . S
C326 C325 1.258 . S
C326 C327 1.477 . S
C326 H346 0.931 . S
C327 C323 1.460 . S
C327 C326 1.477 . S
C327 H347 0.930 . S
C328 N324 1.362 . S
C328 C325 1.431 . S
C328 C338 1.476 . S
H329 C323 0.929 . S
C330 O321 1.250 . S
C330 O322 1.209 1_545 S
O331 Mn316 2.162 . S
O331 C319 1.281 . S
O332 Mn316 2.297 . S
O332 C319 1.236 . S
N333 Mn317 2.282 . S
N333 C334 1.328 . S
N333 C338 1.318 . S
C334 N333 1.328 . S
C334 C335 1.457 . S
C334 H339 0.929 . S
C335 C334 1.457 . S
C335 C336 1.291 . S
C335 H348 0.931 . S
C336 C335 1.291 . S
C336 C337 1.373 . S
C336 H349 0.929 . S
C337 C336 1.373 . S
C337 C338 1.396 . S
C337 C344 1.403 . S
C338 C328 1.476 . S
C338 N333 1.318 . S
C338 C337 1.396 . S
H339 C334 0.929 . S
O340 Mn316 2.385 . S
O340 C318 1.234 1_545 S
O341 Mn316 2.209 1_565 S
O341 Mn317 2.215 . S
O341 C318 1.283 . S
O342 Mn316 2.094 . S
O342 C320 1.240 . S
O343 Mn317 2.117 1_545 S
O343 C320 1.264 . S
C344 C337 1.403 . S
C344 C345 1.399 . S
C344 H350 0.929 . S
C345 C325 1.449 . S
C345 C344 1.399 . S
C345 H351 0.930 . S
H346 C326 0.931 . S
H347 C327 0.930 . S
H348 C335 0.931 . S
H349 C336 0.929 . S
H350 C344 0.929 . S
H351 C345 0.930 . S
Mn352 O357 2.095 . S
Mn352 O367 2.162 . S
Mn352 O368 2.297 . S
Mn352 O376 2.385 . S
Mn352 O377 2.209 . S
Mn352 O378 2.094 . S
Mn353 O358 2.121 . S
Mn353 N360 2.257 . S
Mn353 N369 2.282 . S
Mn353 O377 2.215 . S
Mn353 O379 2.117 . S
C354 O376 1.234 . S
C354 O377 1.283 . S
C355 O367 1.281 . S
C355 O368 1.236 . S
C356 O378 1.240 . S
C356 O379 1.264 . S
O357 Mn352 2.095 . S
O357 C366 1.250 . S
O358 Mn353 2.121 . S
O358 C366 1.258 . S
C359 N360 1.326 . S
C359 C363 1.460 . S
C359 H365 0.929 . S
N360 Mn353 2.257 . S
N360 C359 1.326 . S
N360 C364 1.362 . S
C361 C362 1.258 . S
C361 C364 1.431 . S
C361 C381 1.449 . S
C362 C361 1.258 . S
C362 C363 1.477 . S
C362 H382 0.931 . S
C363 C359 1.460 . S
C363 C362 1.477 . S
C363 H383 0.930 . S
C364 N360 1.362 . S
C364 C361 1.431 . S
C364 C374 1.476 . S
H365 C359 0.929 . S
C366 O357 1.250 . S
C366 O358 1.258 . S
O367 Mn352 2.162 . S
O367 C355 1.281 . S
O368 Mn352 2.297 . S
O368 C355 1.236 . S
N369 Mn353 2.282 . S
N369 C370 1.328 . S
N369 C374 1.318 . S
C370 N369 1.328 . S
C370 C371 1.457 . S
C370 H375 0.929 . S
C371 C370 1.457 . S
C371 C372 1.291 . S
C371 H384 0.931 . S
C372 C371 1.291 . S
C372 C373 1.373 . S
C372 H385 0.929 . S
C373 C372 1.373 . S
C373 C374 1.396 . S
C373 C380 1.403 . S
C374 C364 1.476 . S
C374 N369 1.318 . S
C374 C373 1.396 . S
H375 C370 0.929 . S
O376 Mn352 2.385 . S
O376 C354 1.234 . S
O377 Mn352 2.209 . S
O377 Mn353 2.215 . S
O377 C354 1.283 . S
O378 Mn352 2.094 . S
O378 C356 1.240 . S
O379 Mn353 2.117 . S
O379 C356 1.264 . S
C380 C373 1.403 . S
C380 C381 1.399 . S
C380 H386 0.929 . S
C381 C361 1.449 . S
C381 C380 1.399 . S
C381 H387 0.930 . S
H382 C362 0.931 . S
H383 C363 0.930 . S
H384 C371 0.931 . S
H385 C372 0.929 . S
H386 C380 0.929 . S
H387 C381 0.930 . S
Mn388 O393 2.095 . S
Mn388 O403 2.162 . S
Mn388 O404 2.297 . S
Mn388 O412 2.385 . S
Mn388 O413 2.209 . S
Mn388 O414 2.094 . S
Mn389 O394 2.121 . S
Mn389 N396 2.257 . S
Mn389 N405 2.282 . S
Mn389 O413 2.215 . S
Mn389 O415 2.117 . S
C390 O412 1.234 . S
C390 O413 1.283 . S
C391 O403 1.281 . S
C391 O404 1.236 . S
C392 O414 1.240 . S
C392 O415 1.264 . S
O393 Mn388 2.095 . S
O393 C402 1.250 . S
O394 Mn389 2.121 . S
O394 C402 1.258 . S
C395 N396 1.326 . S
C395 C399 1.460 . S
C395 H401 0.929 . S
N396 Mn389 2.257 . S
N396 C395 1.326 . S
N396 C400 1.362 . S
C397 C398 1.258 . S
C397 C400 1.431 . S
C397 C417 1.449 . S
C398 C397 1.258 . S
C398 C399 1.477 . S
C398 H418 0.931 . S
C399 C395 1.460 . S
C399 C398 1.477 . S
C399 H419 0.930 . S
C400 N396 1.362 . S
C400 C397 1.431 . S
C400 C410 1.476 . S
H401 C395 0.929 . S
C402 O393 1.250 . S
C402 O394 1.258 . S
O403 Mn388 2.162 . S
O403 C391 1.281 . S
O404 Mn388 2.297 . S
O404 C391 1.236 . S
N405 Mn389 2.282 . S
N405 C406 1.328 . S
N405 C410 1.318 . S
C406 N405 1.328 . S
C406 C407 1.457 . S
C406 H411 0.929 . S
C407 C406 1.457 . S
C407 C408 1.291 . S
C407 H420 0.931 . S
C408 C407 1.291 . S
C408 C409 1.373 . S
C408 H421 0.929 . S
C409 C408 1.373 . S
C409 C410 1.396 . S
C409 C416 1.403 . S
C410 C400 1.476 . S
C410 N405 1.318 . S
C410 C409 1.396 . S
H411 C406 0.929 . S
O412 Mn388 2.385 . S
O412 C390 1.234 . S
O413 Mn388 2.209 . S
O413 Mn389 2.215 . S
O413 C390 1.283 . S
O414 Mn388 2.094 . S
O414 C392 1.240 . S
O415 Mn389 2.117 . S
O415 C392 1.264 . S
C416 C409 1.403 . S
C416 C417 1.399 . S
C416 H422 0.929 . S
C417 C397 1.449 . S
C417 C416 1.399 . S
C417 H423 0.930 . S
H418 C398 0.931 . S
H419 C399 0.930 . S
H420 C407 0.931 . S
H421 C408 0.929 . S
H422 C416 0.929 . S
H423 C417 0.930 . S
Mn424 O429 2.095 . S
Mn424 O439 2.162 . S
Mn424 O440 2.297 . S
Mn424 O448 2.385 . S
Mn424 O449 2.209 . S
Mn424 O450 2.094 . S
Mn425 O430 2.121 . S
Mn425 N432 2.257 . S
Mn425 N441 2.282 . S
Mn425 O449 2.215 . S
Mn425 O451 2.117 . S
C426 O448 1.234 . S
C426 O449 1.283 . S
C427 O439 1.281 . S
C427 O440 1.236 . S
C428 O450 1.240 . S
C428 O451 1.264 . S
O429 Mn424 2.095 . S
O429 C438 1.250 . S
O430 Mn425 2.121 . S
O430 C438 1.258 . S
C431 N432 1.326 . S
C431 C435 1.460 . S
C431 H437 0.929 . S
N432 Mn425 2.257 . S
N432 C431 1.326 . S
N432 C436 1.362 . S
C433 C434 1.258 . S
C433 C436 1.431 . S
C433 C453 1.449 . S
C434 C433 1.258 . S
C434 C435 1.477 . S
C434 H454 0.931 . S
C435 C431 1.460 . S
C435 C434 1.477 . S
C435 H455 0.930 . S
C436 N432 1.362 . S
C436 C433 1.431 . S
C436 C446 1.476 . S
H437 C431 0.929 . S
C438 O429 1.250 . S
C438 O430 1.258 . S
O439 Mn424 2.162 . S
O439 C427 1.281 . S
O440 Mn424 2.297 . S
O440 C427 1.236 . S
N441 Mn425 2.282 . S
N441 C442 1.328 . S
N441 C446 1.318 . S
C442 N441 1.328 . S
C442 C443 1.457 . S
C442 H447 0.929 . S
C443 C442 1.457 . S
C443 C444 1.291 . S
C443 H456 0.931 . S
C444 C443 1.291 . S
C444 C445 1.373 . S
C444 H457 0.929 . S
C445 C444 1.373 . S
C445 C446 1.396 . S
C445 C452 1.403 . S
C446 C436 1.476 . S
C446 N441 1.318 . S
C446 C445 1.396 . S
H447 C442 0.929 . S
O448 Mn424 2.385 . S
O448 C426 1.234 . S
O449 Mn424 2.209 . S
O449 Mn425 2.215 . S
O449 C426 1.283 . S
O450 Mn424 2.094 . S
O450 C428 1.240 . S
O451 Mn425 2.117 . S
O451 C428 1.264 . S
C452 C445 1.403 . S
C452 C453 1.399 . S
C452 H458 0.929 . S
C453 C433 1.449 . S
C453 C452 1.399 . S
C453 H459 0.930 . S
H454 C434 0.931 . S
H455 C435 0.930 . S
H456 C443 0.931 . S
H457 C444 0.929 . S
H458 C452 0.929 . S
H459 C453 0.930 . S
Mn460 O465 2.095 . S
Mn460 O475 2.162 . S
Mn460 O476 2.297 . S
Mn460 O484 2.385 1_565 S
Mn460 O485 2.209 1_565 S
Mn460 O486 2.094 . S
Mn461 O466 2.121 . S
Mn461 N468 2.257 . S
Mn461 N477 2.282 . S
Mn461 O485 2.215 . S
Mn461 O487 2.117 . S
C462 O484 1.234 . S
C462 O485 1.283 . S
C463 O475 1.281 . S
C463 O476 1.236 . S
C464 O486 1.240 . S
C464 O487 1.264 1_565 S
O465 Mn460 2.095 . S
O465 C474 1.250 1_565 S
O466 Mn461 2.121 . S
O466 C474 1.258 . S
C467 N468 1.326 . S
C467 C471 1.460 . S
C467 H473 0.929 . S
N468 Mn461 2.257 . S
N468 C467 1.326 . S
N468 C472 1.362 . S
C469 C470 1.258 . S
C469 C472 1.431 . S
C469 C489 1.449 . S
C470 C469 1.258 . S
C470 C471 1.477 . S
C470 H490 0.931 . S
C471 C467 1.460 . S
C471 C470 1.477 . S
C471 H491 0.930 . S
C472 N468 1.362 . S
C472 C469 1.431 . S
C472 C482 1.476 . S
H473 C467 0.929 . S
C474 O465 1.250 1_545 S
C474 O466 1.258 . S
O475 Mn460 2.162 . S
O475 C463 1.281 . S
O476 Mn460 2.297 . S
O476 C463 1.236 . S
N477 Mn461 2.282 . S
N477 C478 1.328 . S
N477 C482 1.318 . S
C478 N477 1.328 . S
C478 C479 1.457 . S
C478 H483 0.929 . S
C479 C478 1.457 . S
C479 C480 1.291 . S
C479 H492 0.931 . S
C480 C479 1.291 . S
C480 C481 1.373 . S
C480 H493 0.929 . S
C481 C480 1.373 . S
C481 C482 1.396 . S
C481 C488 1.403 . S
C482 C472 1.476 . S
C482 N477 1.318 . S
C482 C481 1.396 . S
H483 C478 0.929 . S
O484 Mn460 2.385 1_545 S
O484 C462 1.234 . S
O485 Mn460 2.209 1_545 S
O485 Mn461 2.215 . S
O485 C462 1.283 . S
O486 Mn460 2.094 . S
O486 C464 1.240 . S
O487 Mn461 2.117 . S
O487 C464 1.264 1_545 S
C488 C481 1.403 . S
C488 C489 1.399 . S
C488 H494 0.929 . S
C489 C469 1.449 . S
C489 C488 1.399 . S
C489 H495 0.930 . S
H490 C470 0.931 . S
H491 C471 0.930 . S
H492 C479 0.931 . S
H493 C480 0.929 . S
H494 C488 0.929 . S
H495 C489 0.930 . S
Mn496 O501 2.095 . S
Mn496 O511 2.162 . S
Mn496 O512 2.297 . S
Mn496 O520 2.385 1_455 S
Mn496 O521 2.209 1_455 S
Mn496 O522 2.094 . S
Mn497 O502 2.121 . S
Mn497 N504 2.257 . S
Mn497 N513 2.282 . S
Mn497 O521 2.215 . S
Mn497 O523 2.117 . S
C498 O520 1.234 . S
C498 O521 1.283 . S
C499 O511 1.281 . S
C499 O512 1.236 . S
C500 O522 1.240 1_655 S
C500 O523 1.264 . S
O501 Mn496 2.095 . S
O501 C510 1.250 1_455 S
O502 Mn497 2.121 . S
O502 C510 1.258 . S
C503 N504 1.326 . S
C503 C507 1.460 . S
C503 H509 0.929 . S
N504 Mn497 2.257 . S
N504 C503 1.326 . S
N504 C508 1.362 . S
C505 C506 1.258 . S
C505 C508 1.431 . S
C505 C525 1.449 . S
C506 C505 1.258 . S
C506 C507 1.477 . S
C506 H526 0.931 . S
C507 C503 1.460 . S
C507 C506 1.477 . S
C507 H527 0.930 . S
C508 N504 1.362 . S
C508 C505 1.431 . S
C508 C518 1.476 . S
H509 C503 0.929 . S
C510 O501 1.250 1_655 S
C510 O502 1.258 . S
O511 Mn496 2.162 . S
O511 C499 1.281 . S
O512 Mn496 2.297 . S
O512 C499 1.236 . S
N513 Mn497 2.282 . S
N513 C514 1.328 . S
N513 C518 1.318 . S
C514 N513 1.328 . S
C514 C515 1.457 . S
C514 H519 0.929 . S
C515 C514 1.457 . S
C515 C516 1.291 . S
C515 H528 0.931 . S
C516 C515 1.291 . S
C516 C517 1.373 . S
C516 H529 0.929 . S
C517 C516 1.373 . S
C517 C518 1.396 . S
C517 C524 1.403 . S
C518 C508 1.476 . S
C518 N513 1.318 . S
C518 C517 1.396 . S
H519 C514 0.929 . S
O520 Mn496 2.385 1_655 S
O520 C498 1.234 . S
O521 Mn496 2.209 1_655 S
O521 Mn497 2.215 . S
O521 C498 1.283 . S
O522 Mn496 2.094 . S
O522 C500 1.240 1_455 S
O523 Mn497 2.117 . S
O523 C500 1.264 . S
C524 C517 1.403 . S
C524 C525 1.399 . S
C524 H530 0.929 . S
C525 C505 1.449 . S
C525 C524 1.399 . S
C525 H531 0.930 . S
H526 C506 0.931 . S
H527 C507 0.930 . S
H528 C515 0.931 . S
H529 C516 0.929 . S
H530 C524 0.929 . S
H531 C525 0.930 . S
Mn532 O537 2.095 . S
Mn532 O547 2.162 . S
Mn532 O548 2.297 . S
Mn532 O556 2.385 . S
Mn532 O557 2.209 . S
Mn532 O558 2.094 . S
Mn533 O538 2.121 . S
Mn533 N540 2.257 . S
Mn533 N549 2.282 . S
Mn533 O557 2.215 . S
Mn533 O559 2.117 . S
C534 O556 1.234 . S
C534 O557 1.283 . S
C535 O547 1.281 . S
C535 O548 1.236 . S
C536 O558 1.240 . S
C536 O559 1.264 . S
O537 Mn532 2.095 . S
O537 C546 1.250 . S
O538 Mn533 2.121 . S
O538 C546 1.258 . S
C539 N540 1.326 . S
C539 C543 1.460 . S
C539 H545 0.929 . S
N540 Mn533 2.257 . S
N540 C539 1.326 . S
N540 C544 1.362 . S
C541 C542 1.258 . S
C541 C544 1.431 . S
C541 C561 1.449 . S
C542 C541 1.258 . S
C542 C543 1.477 . S
C542 H562 0.931 . S
C543 C539 1.460 . S
C543 C542 1.477 . S
C543 H563 0.930 . S
C544 N540 1.362 . S
C544 C541 1.431 . S
C544 C554 1.476 . S
H545 C539 0.929 . S
C546 O537 1.250 . S
C546 O538 1.258 . S
O547 Mn532 2.162 . S
O547 C535 1.281 . S
O548 Mn532 2.297 . S
O548 C535 1.236 . S
N549 Mn533 2.282 . S
N549 C550 1.328 . S
N549 C554 1.318 . S
C550 N549 1.328 . S
C550 C551 1.457 . S
C550 H555 0.929 . S
C551 C550 1.457 . S
C551 C552 1.291 . S
C551 H564 0.931 . S
C552 C551 1.291 . S
C552 C553 1.373 . S
C552 H565 0.929 . S
C553 C552 1.373 . S
C553 C554 1.396 . S
C553 C560 1.403 . S
C554 C544 1.476 . S
C554 N549 1.318 . S
C554 C553 1.396 . S
H555 C550 0.929 . S
O556 Mn532 2.385 . S
O556 C534 1.234 . S
O557 Mn532 2.209 . S
O557 Mn533 2.215 . S
O557 C534 1.283 . S
O558 Mn532 2.094 . S
O558 C536 1.240 . S
O559 Mn533 2.117 . S
O559 C536 1.264 . S
C560 C553 1.403 . S
C560 C561 1.399 . S
C560 H566 0.929 . S
C561 C541 1.449 . S
C561 C560 1.399 . S
C561 H567 0.930 . S
H562 C542 0.931 . S
H563 C543 0.930 . S
H564 C551 0.931 . S
H565 C552 0.929 . S
H566 C560 0.929 . S
H567 C561 0.930 . S
Mn568 O573 2.095 . S
Mn568 O583 2.162 . S
Mn568 O584 2.297 . S
Mn568 O592 2.385 . S
Mn568 O593 2.209 . S
Mn568 O594 2.094 . S
Mn569 O574 2.121 1_455 S
Mn569 N576 2.257 1_455 S
Mn569 N585 2.282 . S
Mn569 O593 2.215 . S
Mn569 O595 2.117 . S
C570 O592 1.234 . S
C570 O593 1.283 . S
C571 O583 1.281 . S
C571 O584 1.236 . S
C572 O594 1.240 . S
C572 O595 1.264 . S
O573 Mn568 2.095 . S
O573 C582 1.250 1_455 S
O574 Mn569 2.121 1_655 S
O574 C582 1.258 . S
C575 N576 1.326 . S
C575 C579 1.460 . S
C575 H581 0.929 . S
N576 Mn569 2.257 1_655 S
N576 C575 1.326 . S
N576 C580 1.362 . S
C577 C578 1.258 . S
C577 C580 1.431 . S
C577 C597 1.449 . S
C578 C577 1.258 . S
C578 C579 1.477 . S
C578 H598 0.931 . S
C579 C575 1.460 . S
C579 C578 1.477 . S
C579 H599 0.930 . S
C580 N576 1.362 . S
C580 C577 1.431 . S
C580 C590 1.476 1_655 S
H581 C575 0.929 . S
C582 O573 1.250 1_655 S
C582 O574 1.258 . S
O583 Mn568 2.162 . S
O583 C571 1.281 . S
O584 Mn568 2.297 . S
O584 C571 1.236 . S
N585 Mn569 2.282 . S
N585 C586 1.328 . S
N585 C590 1.318 . S
C586 N585 1.328 . S
C586 C587 1.457 . S
C586 H591 0.929 . S
C587 C586 1.457 . S
C587 C588 1.291 . S
C587 H600 0.931 . S
C588 C587 1.291 . S
C588 C589 1.373 . S
C588 H601 0.929 . S
C589 C588 1.373 . S
C589 C590 1.396 . S
C589 C596 1.403 1_455 S
C590 C580 1.476 1_455 S
C590 N585 1.318 . S
C590 C589 1.396 . S
H591 C586 0.929 . S
O592 Mn568 2.385 . S
O592 C570 1.234 . S
O593 Mn568 2.209 . S
O593 Mn569 2.215 . S
O593 C570 1.283 . S
O594 Mn568 2.094 . S
O594 C572 1.240 . S
O595 Mn569 2.117 . S
O595 C572 1.264 . S
C596 C589 1.403 1_655 S
C596 C597 1.399 . S
C596 H602 0.929 . S
C597 C577 1.449 . S
C597 C596 1.399 . S
C597 H603 0.930 . S
H598 C578 0.931 . S
H599 C579 0.930 . S
H600 C587 0.931 . S
H601 C588 0.929 . S
H602 C596 0.929 . S
H603 C597 0.930 . S
Mn604 O609 2.095 . S
Mn604 O619 2.162 . S
Mn604 O620 2.297 . S
Mn604 O628 2.385 . S
Mn604 O629 2.209 . S
Mn604 O630 2.094 . S
Mn605 O610 2.121 . S
Mn605 N612 2.257 . S
Mn605 N621 2.282 . S
Mn605 O629 2.215 . S
Mn605 O631 2.117 . S
C606 O628 1.234 . S
C606 O629 1.283 . S
C607 O619 1.281 . S
C607 O620 1.236 . S
C608 O630 1.240 . S
C608 O631 1.264 . S
O609 Mn604 2.095 . S
O609 C618 1.250 . S
O610 Mn605 2.121 . S
O610 C618 1.258 . S
C611 N612 1.326 . S
C611 C615 1.460 . S
C611 H617 0.929 . S
N612 Mn605 2.257 . S
N612 C611 1.326 . S
N612 C616 1.362 . S
C613 C614 1.258 . S
C613 C616 1.431 . S
C613 C633 1.449 . S
C614 C613 1.258 . S
C614 C615 1.477 . S
C614 H634 0.931 . S
C615 C611 1.460 . S
C615 C614 1.477 . S
C615 H635 0.930 . S
C616 N612 1.362 . S
C616 C613 1.431 . S
C616 C626 1.476 . S
H617 C611 0.929 . S
C618 O609 1.250 . S
C618 O610 1.258 . S
O619 Mn604 2.162 . S
O619 C607 1.281 . S
O620 Mn604 2.297 . S
O620 C607 1.236 . S
N621 Mn605 2.282 . S
N621 C622 1.328 . S
N621 C626 1.318 . S
C622 N621 1.328 . S
C622 C623 1.457 . S
C622 H627 0.929 . S
C623 C622 1.457 . S
C623 C624 1.291 . S
C623 H636 0.931 . S
C624 C623 1.291 . S
C624 C625 1.373 . S
C624 H637 0.929 . S
C625 C624 1.373 . S
C625 C626 1.396 . S
C625 C632 1.403 . S
C626 C616 1.476 . S
C626 N621 1.318 . S
C626 C625 1.396 . S
H627 C622 0.929 . S
O628 Mn604 2.385 . S
O628 C606 1.234 . S
O629 Mn604 2.209 . S
O629 Mn605 2.215 . S
O629 C606 1.283 . S
O630 Mn604 2.094 . S
O630 C608 1.240 . S
O631 Mn605 2.117 . S
O631 C608 1.264 . S
C632 C625 1.403 . S
C632 C633 1.399 . S
C632 H638 0.929 . S
C633 C613 1.449 . S
C633 C632 1.399 . S
C633 H639 0.930 . S
H634 C614 0.931 . S
H635 C615 0.930 . S
H636 C623 0.931 . S
H637 C624 0.929 . S
H638 C632 0.929 . S
H639 C633 0.930 . S
H640 C648 0.929 . S
H641 C650 0.930 . S
H642 C652 0.930 . S
H643 C655 0.929 . S
H644 C658 0.930 . S
H645 C660 0.960 . S
H646 C660 0.960 . S
H647 C660 0.960 . S
C648 H640 0.929 . S
C648 C649 1.377 . S
C648 C650 1.384 . S
C649 C648 1.377 . S
C649 C655 1.390 . S
C650 H641 0.930 . S
C650 C648 1.384 . S
C650 C651 1.372 . S
C651 C650 1.372 . S
C651 C652 1.400 . S
C651 C656 1.490 . S
C652 H642 0.930 . S
C652 C651 1.400 . S
C652 C655 1.386 . S
H653 C669 0.930 . S
H654 C670 0.931 . S
C655 H643 0.929 . S
C655 C649 1.390 . S
C655 C652 1.386 . S
C656 C651 1.490 . S
C656 C658 1.395 . S
C656 C659 1.403 . S
H657 C663 0.930 . S
C658 H644 0.930 . S
C658 C656 1.395 . S
C658 C661 1.403 . S
C659 C656 1.403 . S
C659 C660 1.524 . S
C659 C663 1.400 . S
C660 H645 0.960 . S
C660 H646 0.960 . S
C660 H647 0.960 . S
C660 C659 1.524 . S
C661 C658 1.403 . S
C661 C662 1.392 . S
C661 C665 1.495 . S
C662 C661 1.392 . S
C662 C663 1.385 . S
C662 C664 1.478 . S
C663 H657 0.930 . S
C663 C659 1.400 . S
C663 C662 1.385 . S
C664 C662 1.478 . S
C664 C666 1.381 . S
C664 C670 1.383 . S
C665 C661 1.495 . S
C665 H671 0.959 . S
C665 H672 0.961 . S
C665 H673 0.960 . S
C666 C664 1.381 . S
C666 C667 1.394 . S
C666 H674 0.930 . S
C667 C666 1.394 . S
C667 C668 1.383 . S
C667 H675 0.929 . S
C668 C667 1.383 . S
C668 C669 1.377 . S
C669 H653 0.930 . S
C669 C668 1.377 . S
C669 C670 1.379 . S
C670 H654 0.931 . S
C670 C664 1.383 . S
C670 C669 1.379 . S
H671 C665 0.959 . S
H672 C665 0.961 . S
H673 C665 0.960 . S
H674 C666 0.930 . S
H675 C667 0.929 . S
H676 C684 0.929 . S
H677 C686 0.930 . S
H678 C688 0.930 . S
H679 C691 0.929 . S
H680 C694 0.930 . S
H681 C696 0.960 . S
H682 C696 0.960 . S
H683 C696 0.960 . S
C684 H676 0.929 . S
C684 C685 1.377 . S
C684 C686 1.384 . S
C685 C684 1.377 . S
C685 C691 1.390 . S
C686 H677 0.930 . S
C686 C684 1.384 . S
C686 C687 1.372 . S
C687 C686 1.372 . S
C687 C688 1.400 . S
C687 C692 1.490 . S
C688 H678 0.930 . S
C688 C687 1.400 . S
C688 C691 1.386 . S
H689 C705 0.930 . S
H690 C706 0.931 . S
C691 H679 0.929 . S
C691 C685 1.390 . S
C691 C688 1.386 . S
C692 C687 1.490 . S
C692 C694 1.395 . S
C692 C695 1.403 . S
H693 C699 0.930 . S
C694 H680 0.930 . S
C694 C692 1.395 . S
C694 C697 1.403 . S
C695 C692 1.403 . S
C695 C696 1.524 . S
C695 C699 1.400 . S
C696 H681 0.960 . S
C696 H682 0.960 . S
C696 H683 0.960 . S
C696 C695 1.524 . S
C697 C694 1.403 . S
C697 C698 1.392 . S
C697 C701 1.495 . S
C698 C697 1.392 . S
C698 C699 1.385 . S
C698 C700 1.478 . S
C699 H693 0.930 . S
C699 C695 1.400 . S
C699 C698 1.385 . S
C700 C698 1.478 . S
C700 C702 1.381 . S
C700 C706 1.383 . S
C701 C697 1.495 . S
C701 H707 0.959 . S
C701 H708 0.961 . S
C701 H709 0.960 . S
C702 C700 1.381 . S
C702 C703 1.394 . S
C702 H710 0.930 . S
C703 C702 1.394 . S
C703 C704 1.383 . S
C703 H711 0.929 . S
C704 C703 1.383 . S
C704 C705 1.377 . S
C705 H689 0.930 . S
C705 C704 1.377 . S
C705 C706 1.379 . S
C706 H690 0.931 . S
C706 C700 1.383 . S
C706 C705 1.379 . S
H707 C701 0.959 . S
H708 C701 0.961 . S
H709 C701 0.960 . S
H710 C702 0.930 . S
H711 C703 0.929 . S
H712 C720 0.929 . S
H713 C722 0.930 . S
H714 C724 0.930 . S
H715 C727 0.929 . S
H716 C730 0.930 . S
H717 C732 0.960 . S
H718 C732 0.960 . S
H719 C732 0.960 . S
C720 H712 0.929 . S
C720 C721 1.377 . S
C720 C722 1.384 . S
C721 C720 1.377 . S
C721 C727 1.390 . S
C722 H713 0.930 . S
C722 C720 1.384 . S
C722 C723 1.372 . S
C723 C722 1.372 . S
C723 C724 1.400 . S
C723 C728 1.490 . S
C724 H714 0.930 . S
C724 C723 1.400 . S
C724 C727 1.386 . S
H725 C741 0.930 . S
H726 C742 0.931 . S
C727 H715 0.929 . S
C727 C721 1.390 . S
C727 C724 1.386 . S
C728 C723 1.490 . S
C728 C730 1.395 . S
C728 C731 1.403 . S
H729 C735 0.930 . S
C730 H716 0.930 . S
C730 C728 1.395 . S
C730 C733 1.403 . S
C731 C728 1.403 . S
C731 C732 1.524 . S
C731 C735 1.400 . S
C732 H717 0.960 . S
C732 H718 0.960 . S
C732 H719 0.960 . S
C732 C731 1.524 . S
C733 C730 1.403 . S
C733 C734 1.392 . S
C733 C737 1.495 . S
C734 C733 1.392 . S
C734 C735 1.385 . S
C734 C736 1.478 . S
C735 H729 0.930 . S
C735 C731 1.400 . S
C735 C734 1.385 . S
C736 C734 1.478 . S
C736 C738 1.381 . S
C736 C742 1.383 . S
C737 C733 1.495 . S
C737 H743 0.959 . S
C737 H744 0.961 . S
C737 H745 0.960 . S
C738 C736 1.381 . S
C738 C739 1.394 . S
C738 H746 0.930 . S
C739 C738 1.394 . S
C739 C740 1.383 . S
C739 H747 0.929 . S
C740 C739 1.383 . S
C740 C741 1.377 . S
C741 H725 0.930 . S
C741 C740 1.377 . S
C741 C742 1.379 . S
C742 H726 0.931 . S
C742 C736 1.383 . S
C742 C741 1.379 . S
H743 C737 0.959 . S
H744 C737 0.961 . S
H745 C737 0.960 . S
H746 C738 0.930 . S
H747 C739 0.929 . S
H748 C756 0.929 . S
H749 C758 0.922 1_455 S
H750 C760 0.930 . S
H751 C763 0.929 . S
H752 C766 0.924 1_565 S
H753 C768 0.960 . S
H754 C768 0.960 . S
H755 C768 0.960 1_565 S
C756 H748 0.929 . S
C756 C757 1.377 1_545 S
C756 C758 1.353 1_455 S
C757 C756 1.377 1_565 S
C757 C763 1.390 1_455 S
C758 H749 0.922 1_655 S
C758 C756 1.353 1_655 S
C758 C759 1.414 1_545 S
C759 C758 1.414 1_565 S
C759 C760 1.400 . S
C759 C764 1.489 . S
C760 H750 0.930 . S
C760 C759 1.400 . S
C760 C763 1.386 . S
H761 C777 0.909 1_565 S
H762 C778 0.931 . S
C763 H751 0.929 . S
C763 C757 1.390 1_655 S
C763 C760 1.386 . S
C764 C759 1.489 . S
C764 C766 1.394 1_565 S
C764 C767 1.404 1_565 S
H765 C771 0.930 . S
C766 H752 0.924 1_545 S
C766 C764 1.394 1_545 S
C766 C769 1.403 . S
C767 C764 1.404 1_545 S
C767 C768 1.524 . S
C767 C771 1.400 . S
C768 H753 0.960 . S
C768 H754 0.960 . S
C768 H755 0.960 1_545 S
C768 C767 1.524 . S
C769 C766 1.403 . S
C769 C770 1.392 . S
C769 C773 1.495 . S
C770 C769 1.392 . S
C770 C771 1.385 . S
C770 C772 1.478 . S
C771 H765 0.930 . S
C771 C767 1.400 . S
C771 C770 1.385 . S
C772 C770 1.478 . S
C772 C774 1.381 . S
C772 C778 1.383 1_545 S
C773 C769 1.495 . S
C773 H779 0.959 . S
C773 H780 0.961 1_545 S
C773 H781 0.960 . S
C774 C772 1.381 . S
C774 C775 1.394 . S
C774 H782 0.930 . S
C775 C774 1.394 . S
C775 C776 1.383 . S
C775 H783 0.929 . S
C776 C775 1.383 . S
C776 C777 1.406 . S
C777 H761 0.909 1_545 S
C777 C776 1.406 . S
C777 C778 1.372 1_545 S
C778 H762 0.931 . S
C778 C772 1.383 1_565 S
C778 C777 1.372 1_565 S
H779 C773 0.959 . S
H780 C773 0.961 1_565 S
H781 C773 0.960 . S
H782 C774 0.930 . S
H783 C775 0.929 . S
H784 C792 0.929 . S
H785 C794 0.930 . S
H786 C796 0.930 . S
H787 C799 0.929 . S
H788 C802 0.930 . S
H789 C804 0.960 . S
H790 C804 0.960 . S
H791 C804 0.960 . S
C792 H784 0.929 . S
C792 C793 1.377 . S
C792 C794 1.384 . S
C793 C792 1.377 . S
C793 C799 1.390 . S
C794 H785 0.930 . S
C794 C792 1.384 . S
C794 C795 1.372 . S
C795 C794 1.372 . S
C795 C796 1.400 . S
C795 C800 1.490 . S
C796 H786 0.930 . S
C796 C795 1.400 . S
C796 C799 1.386 . S
H797 C813 0.930 . S
H798 C814 0.931 . S
C799 H787 0.929 . S
C799 C793 1.390 . S
C799 C796 1.386 . S
C800 C795 1.490 . S
C800 C802 1.395 . S
C800 C803 1.403 . S
H801 C807 0.930 . S
C802 H788 0.930 . S
C802 C800 1.395 . S
C802 C805 1.403 . S
C803 C800 1.403 . S
C803 C804 1.524 . S
C803 C807 1.400 . S
C804 H789 0.960 . S
C804 H790 0.960 . S
C804 H791 0.960 . S
C804 C803 1.524 . S
C805 C802 1.403 . S
C805 C806 1.392 . S
C805 C809 1.495 . S
C806 C805 1.392 . S
C806 C807 1.385 . S
C806 C808 1.478 . S
C807 H801 0.930 . S
C807 C803 1.400 . S
C807 C806 1.385 . S
C808 C806 1.478 . S
C808 C810 1.381 . S
C808 C814 1.383 . S
C809 C805 1.495 . S
C809 H815 0.959 . S
C809 H816 0.961 . S
C809 H817 0.960 . S
C810 C808 1.381 . S
C810 C811 1.394 . S
C810 H818 0.930 . S
C811 C810 1.394 . S
C811 C812 1.383 . S
C811 H819 0.929 . S
C812 C811 1.383 . S
C812 C813 1.377 . S
C813 H797 0.930 . S
C813 C812 1.377 . S
C813 C814 1.379 . S
C814 H798 0.931 . S
C814 C808 1.383 . S
C814 C813 1.379 . S
H815 C809 0.959 . S
H816 C809 0.961 . S
H817 C809 0.960 . S
H818 C810 0.930 . S
H819 C811 0.929 . S
H820 C828 0.929 . S
H821 C830 0.930 . S
H822 C832 0.930 . S
H823 C835 0.929 . S
H824 C838 0.930 . S
H825 C840 0.960 . S
H826 C840 0.960 . S
H827 C840 0.960 . S
C828 H820 0.929 . S
C828 C829 1.377 . S
C828 C830 1.384 . S
C829 C828 1.377 . S
C829 C835 1.390 . S
C830 H821 0.930 . S
C830 C828 1.384 . S
C830 C831 1.372 . S
C831 C830 1.372 . S
C831 C832 1.400 . S
C831 C836 1.490 . S
C832 H822 0.930 . S
C832 C831 1.400 . S
C832 C835 1.386 . S
H833 C849 0.930 . S
H834 C850 0.931 . S
C835 H823 0.929 . S
C835 C829 1.390 . S
C835 C832 1.386 . S
C836 C831 1.490 . S
C836 C838 1.395 . S
C836 C839 1.403 . S
H837 C843 0.930 . S
C838 H824 0.930 . S
C838 C836 1.395 . S
C838 C841 1.403 . S
C839 C836 1.403 . S
C839 C840 1.524 . S
C839 C843 1.400 . S
C840 H825 0.960 . S
C840 H826 0.960 . S
C840 H827 0.960 . S
C840 C839 1.524 . S
C841 C838 1.403 . S
C841 C842 1.392 . S
C841 C845 1.495 . S
C842 C841 1.392 . S
C842 C843 1.385 . S
C842 C844 1.478 . S
C843 H837 0.930 . S
C843 C839 1.400 . S
C843 C842 1.385 . S
C844 C842 1.478 . S
C844 C846 1.381 . S
C844 C850 1.383 . S
C845 C841 1.495 . S
C845 H851 0.959 . S
C845 H852 0.961 . S
C845 H853 0.960 . S
C846 C844 1.381 . S
C846 C847 1.394 . S
C846 H854 0.930 . S
C847 C846 1.394 . S
C847 C848 1.383 . S
C847 H855 0.929 . S
C848 C847 1.383 . S
C848 C849 1.377 . S
C849 H833 0.930 . S
C849 C848 1.377 . S
C849 C850 1.379 . S
C850 H834 0.931 . S
C850 C844 1.383 . S
C850 C849 1.379 . S
H851 C845 0.959 . S
H852 C845 0.961 . S
H853 C845 0.960 . S
H854 C846 0.930 . S
H855 C847 0.929 . S
H856 C864 0.929 . S
H857 C866 0.930 . S
H858 C868 0.930 . S
H859 C871 0.929 . S
H860 C874 0.930 . S
H861 C876 0.960 . S
H862 C876 0.960 . S
H863 C876 0.960 . S
C864 H856 0.929 . S
C864 C865 1.377 . S
C864 C866 1.384 . S
C865 C864 1.377 . S
C865 C871 1.390 . S
C866 H857 0.930 . S
C866 C864 1.384 . S
C866 C867 1.372 . S
C867 C866 1.372 . S
C867 C868 1.400 . S
C867 C872 1.490 . S
C868 H858 0.930 . S
C868 C867 1.400 . S
C868 C871 1.386 . S
H869 C885 0.930 . S
H870 C886 0.931 . S
C871 H859 0.929 . S
C871 C865 1.390 . S
C871 C868 1.386 . S
C872 C867 1.490 . S
C872 C874 1.395 . S
C872 C875 1.403 . S
H873 C879 0.930 . S
C874 H860 0.930 . S
C874 C872 1.395 . S
C874 C877 1.403 . S
C875 C872 1.403 . S
C875 C876 1.524 . S
C875 C879 1.400 . S
C876 H861 0.960 . S
C876 H862 0.960 . S
C876 H863 0.960 . S
C876 C875 1.524 . S
C877 C874 1.403 . S
C877 C878 1.392 . S
C877 C881 1.495 . S
C878 C877 1.392 . S
C878 C879 1.385 . S
C878 C880 1.478 . S
C879 H873 0.930 . S
C879 C875 1.400 . S
C879 C878 1.385 . S
C880 C878 1.478 . S
C880 C882 1.381 . S
C880 C886 1.383 . S
C881 C877 1.495 . S
C881 H887 0.959 . S
C881 H888 0.961 . S
C881 H889 0.960 . S
C882 C880 1.381 . S
C882 C883 1.394 . S
C882 H890 0.930 . S
C883 C882 1.394 . S
C883 C884 1.383 . S
C883 H891 0.929 . S
C884 C883 1.383 . S
C884 C885 1.377 . S
C885 H869 0.930 . S
C885 C884 1.377 . S
C885 C886 1.379 . S
C886 H870 0.931 . S
C886 C880 1.383 . S
C886 C885 1.379 . S
H887 C881 0.959 . S
H888 C881 0.961 . S
H889 C881 0.960 . S
H890 C882 0.930 . S
H891 C883 0.929 . S
H892 C900 0.929 . S
H893 C902 0.930 . S
H894 C904 0.930 . S
H895 C907 0.929 . S
H896 C910 0.930 . S
H897 C912 0.960 . S
H898 C912 0.960 . S
H899 C912 0.960 . S
C900 H892 0.929 . S
C900 C901 1.377 . S
C900 C902 1.384 . S
C901 C900 1.377 . S
C901 C907 1.390 . S
C902 H893 0.930 . S
C902 C900 1.384 . S
C902 C903 1.372 . S
C903 C902 1.372 . S
C903 C904 1.400 . S
C903 C908 1.490 . S
C904 H894 0.930 . S
C904 C903 1.400 . S
C904 C907 1.386 . S
H905 C921 0.919 1_545 S
H906 C922 0.931 1_545 S
C907 H895 0.929 . S
C907 C901 1.390 . S
C907 C904 1.386 . S
C908 C903 1.490 . S
C908 C910 1.395 . S
C908 C911 1.403 . S
H909 C915 0.930 1_545 S
C910 H896 0.930 . S
C910 C908 1.395 . S
C910 C913 1.403 . S
C911 C908 1.403 . S
C911 C912 1.524 1_565 S
C911 C915 1.400 . S
C912 H897 0.960 . S
C912 H898 0.960 . S
C912 H899 0.960 . S
C912 C911 1.524 1_545 S
C913 C910 1.403 . S
C913 C914 1.392 . S
C913 C917 1.495 . S
C914 C913 1.392 . S
C914 C915 1.385 . S
C914 C916 1.478 . S
C915 H909 0.930 1_565 S
C915 C911 1.400 . S
C915 C914 1.385 . S
C916 C914 1.478 . S
C916 C918 1.381 . S
C916 C922 1.383 . S
C917 C913 1.495 . S
C917 H923 0.959 . S
C917 H924 0.961 . S
C917 H925 0.960 . S
C918 C916 1.381 . S
C918 C919 1.394 . S
C918 H926 0.930 . S
C919 C918 1.394 . S
C919 C920 1.383 . S
C919 H927 0.929 . S
C920 C919 1.383 . S
C920 C921 1.384 . S
C921 H905 0.919 1_565 S
C921 C920 1.384 . S
C921 C922 1.383 . S
C922 H906 0.931 1_565 S
C922 C916 1.383 . S
C922 C921 1.383 . S
H923 C917 0.959 . S
H924 C917 0.961 . S
H925 C917 0.960 . S
H926 C918 0.930 . S
H927 C919 0.929 . S
H928 C936 0.929 . S
H929 C938 0.930 . S
H930 C940 0.930 . S
H931 C943 0.929 . S
H932 C946 0.930 . S
H933 C948 0.960 . S
H934 C948 0.960 . S
H935 C948 0.960 . S
C936 H928 0.929 . S
C936 C937 1.377 . S
C936 C938 1.384 . S
C937 C936 1.377 . S
C937 C943 1.390 . S
C938 H929 0.930 . S
C938 C936 1.384 . S
C938 C939 1.372 . S
C939 C938 1.372 . S
C939 C940 1.400 . S
C939 C944 1.490 . S
C940 H930 0.930 . S
C940 C939 1.400 . S
C940 C943 1.386 . S
H941 C957 0.930 . S
H942 C958 0.931 . S
C943 H931 0.929 . S
C943 C937 1.390 . S
C943 C940 1.386 . S
C944 C939 1.490 . S
C944 C946 1.395 . S
C944 C947 1.403 . S
H945 C951 0.930 . S
C946 H932 0.930 . S
C946 C944 1.395 . S
C946 C949 1.403 . S
C947 C944 1.403 . S
C947 C948 1.524 . S
C947 C951 1.400 . S
C948 H933 0.960 . S
C948 H934 0.960 . S
C948 H935 0.960 . S
C948 C947 1.524 . S
C949 C946 1.403 . S
C949 C950 1.392 . S
C949 C953 1.495 . S
C950 C949 1.392 . S
C950 C951 1.385 . S
C950 C952 1.478 . S
C951 H945 0.930 . S
C951 C947 1.400 . S
C951 C950 1.385 . S
C952 C950 1.478 . S
C952 C954 1.381 . S
C952 C958 1.383 . S
C953 C949 1.495 . S
C953 H959 0.959 . S
C953 H960 0.961 . S
C953 H961 0.960 . S
C954 C952 1.381 . S
C954 C955 1.394 . S
C954 H962 0.930 . S
C955 C954 1.394 . S
C955 C956 1.383 . S
C955 H963 0.929 . S
C956 C955 1.383 . S
C956 C957 1.377 . S
C957 H941 0.930 . S
C957 C956 1.377 . S
C957 C958 1.379 . S
C958 H942 0.931 . S
C958 C952 1.383 . S
C958 C957 1.379 . S
H959 C953 0.959 . S
H960 C953 0.961 . S
H961 C953 0.960 . S
H962 C954 0.930 . S
H963 C955 0.929 . S
H964 C972 0.929 . S
H965 C974 0.930 . S
H966 C976 0.930 . S
H967 C979 0.929 . S
H968 C982 0.930 . S
H969 C984 0.960 . S
H970 C984 0.960 . S
H971 C984 0.960 . S
C972 H964 0.929 . S
C972 C973 1.377 . S
C972 C974 1.384 . S
C973 C972 1.377 . S
C973 C979 1.390 . S
C974 H965 0.930 . S
C974 C972 1.384 . S
C974 C975 1.372 . S
C975 C974 1.372 . S
C975 C976 1.400 . S
C975 C980 1.490 . S
C976 H966 0.930 . S
C976 C975 1.400 . S
C976 C979 1.386 . S
H977 C993 0.930 . S
H978 C994 0.931 . S
C979 H967 0.929 . S
C979 C973 1.390 . S
C979 C976 1.386 . S
C980 C975 1.490 . S
C980 C982 1.395 . S
C980 C983 1.403 . S
H981 C987 0.930 . S
C982 H968 0.930 . S
C982 C980 1.395 . S
C982 C985 1.403 . S
C983 C980 1.403 . S
C983 C984 1.524 . S
C983 C987 1.400 . S
C984 H969 0.960 . S
C984 H970 0.960 . S
C984 H971 0.960 . S
C984 C983 1.524 . S
C985 C982 1.403 . S
C985 C986 1.392 . S
C985 C989 1.495 . S
C986 C985 1.392 . S
C986 C987 1.385 . S
C986 C988 1.478 . S
C987 H981 0.930 . S
C987 C983 1.400 . S
C987 C986 1.385 . S
C988 C986 1.478 . S
C988 C990 1.381 . S
C988 C994 1.383 . S
C989 C985 1.495 . S
C989 H995 0.959 . S
C989 H996 0.961 . S
C989 H997 0.960 . S
C990 C988 1.381 . S
C990 C991 1.394 . S
C990 H998 0.930 . S
C991 C990 1.394 . S
C991 C992 1.383 . S
C991 H999 0.929 . S
C992 C991 1.383 . S
C992 C993 1.377 . S
C993 H977 0.930 . S
C993 C992 1.377 . S
C993 C994 1.379 . S
C994 H978 0.931 . S
C994 C988 1.383 . S
C994 C993 1.379 . S
H995 C989 0.959 . S
H996 C989 0.961 . S
H997 C989 0.960 . S
H998 C990 0.930 . S
H999 C991 0.929 . S
H1000 C1008 0.929 . S
H1001 C1010 0.930 . S
H1002 C1012 0.930 . S
H1003 C1015 0.929 . S
H1004 C1018 0.930 . S
H1005 C1020 0.960 . S
H1006 C1020 0.960 . S
H1007 C1020 0.960 . S
C1008 H1000 0.929 . S
C1008 C1009 1.377 . S
C1008 C1010 1.384 . S
C1009 C1008 1.377 . S
C1009 C1015 1.390 . S
C1010 H1001 0.930 . S
C1010 C1008 1.384 . S
C1010 C1011 1.372 . S
C1011 C1010 1.372 . S
C1011 C1012 1.400 . S
C1011 C1016 1.490 . S
C1012 H1002 0.930 . S
C1012 C1011 1.400 . S
C1012 C1015 1.386 . S
H1013 C1029 0.930 . S
H1014 C1030 0.931 . S
C1015 H1003 0.929 . S
C1015 C1009 1.390 . S
C1015 C1012 1.386 . S
C1016 C1011 1.490 . S
C1016 C1018 1.395 . S
C1016 C1019 1.403 . S
H1017 C1023 0.930 . S
C1018 H1004 0.930 . S
C1018 C1016 1.395 . S
C1018 C1021 1.403 . S
C1019 C1016 1.403 . S
C1019 C1020 1.524 . S
C1019 C1023 1.400 . S
C1020 H1005 0.960 . S
C1020 H1006 0.960 . S
C1020 H1007 0.960 . S
C1020 C1019 1.524 . S
C1021 C1018 1.403 . S
C1021 C1022 1.392 . S
C1021 C1025 1.495 . S
C1022 C1021 1.392 . S
C1022 C1023 1.385 . S
C1022 C1024 1.478 . S
C1023 H1017 0.930 . S
C1023 C1019 1.400 . S
C1023 C1022 1.385 . S
C1024 C1022 1.478 . S
C1024 C1026 1.381 . S
C1024 C1030 1.383 . S
C1025 C1021 1.495 . S
C1025 H1031 0.959 . S
C1025 H1032 0.961 . S
C1025 H1033 0.960 . S
C1026 C1024 1.381 . S
C1026 C1027 1.394 . S
C1026 H1034 0.930 . S
C1027 C1026 1.394 . S
C1027 C1028 1.383 . S
C1027 H1035 0.929 . S
C1028 C1027 1.383 . S
C1028 C1029 1.377 . S
C1029 H1013 0.930 . S
C1029 C1028 1.377 . S
C1029 C1030 1.379 . S
C1030 H1014 0.931 . S
C1030 C1024 1.383 . S
C1030 C1029 1.379 . S
H1031 C1025 0.959 . S
H1032 C1025 0.961 . S
H1033 C1025 0.960 . S
H1034 C1026 0.930 . S
H1035 C1027 0.929 . S
H1036 C1044 0.929 . S
H1037 C1046 0.930 . S
H1038 C1048 0.930 . S
H1039 C1051 0.929 . S
H1040 C1054 0.930 . S
H1041 C1056 0.960 . S
H1042 C1056 0.960 . S
H1043 C1056 0.960 . S
C1044 H1036 0.929 . S
C1044 C1045 1.377 . S
C1044 C1046 1.384 . S
C1045 C1044 1.377 . S
C1045 C1051 1.390 . S
C1046 H1037 0.930 . S
C1046 C1044 1.384 . S
C1046 C1047 1.372 . S
C1047 C1046 1.372 . S
C1047 C1048 1.400 . S
C1047 C1052 1.490 . S
C1048 H1038 0.930 . S
C1048 C1047 1.400 . S
C1048 C1051 1.386 . S
H1049 C1065 0.930 . S
H1050 C1066 0.931 . S
C1051 H1039 0.929 . S
C1051 C1045 1.390 . S
C1051 C1048 1.386 . S
C1052 C1047 1.490 . S
C1052 C1054 1.395 . S
C1052 C1055 1.403 . S
H1053 C1059 0.930 . S
C1054 H1040 0.930 . S
C1054 C1052 1.395 . S
C1054 C1057 1.403 . S
C1055 C1052 1.403 . S
C1055 C1056 1.524 . S
C1055 C1059 1.400 . S
C1056 H1041 0.960 . S
C1056 H1042 0.960 . S
C1056 H1043 0.960 . S
C1056 C1055 1.524 . S
C1057 C1054 1.403 . S
C1057 C1058 1.392 . S
C1057 C1061 1.495 . S
C1058 C1057 1.392 . S
C1058 C1059 1.385 . S
C1058 C1060 1.478 . S
C1059 H1053 0.930 . S
C1059 C1055 1.400 . S
C1059 C1058 1.385 . S
C1060 C1058 1.478 . S
C1060 C1062 1.381 . S
C1060 C1066 1.383 . S
C1061 C1057 1.495 . S
C1061 H1067 0.959 . S
C1061 H1068 0.961 . S
C1061 H1069 0.960 . S
C1062 C1060 1.381 . S
C1062 C1063 1.394 . S
C1062 H1070 0.930 . S
C1063 C1062 1.394 . S
C1063 C1064 1.383 . S
C1063 H1071 0.929 . S
C1064 C1063 1.383 . S
C1064 C1065 1.377 . S
C1065 H1049 0.930 . S
C1065 C1064 1.377 . S
C1065 C1066 1.379 . S
C1066 H1050 0.931 . S
C1066 C1060 1.383 . S
C1066 C1065 1.379 . S
H1067 C1061 0.959 . S
H1068 C1061 0.961 . S
H1069 C1061 0.960 . S
H1070 C1062 0.930 . S
H1071 C1063 0.929 . S
H1072 C1080 0.929 . S
H1073 C1082 0.930 . S
H1074 C1084 0.930 . S
H1075 C1087 0.929 . S
H1076 C1090 0.930 . S
H1077 C1092 0.960 . S
H1078 C1092 0.960 . S
H1079 C1092 0.960 . S
C1080 H1072 0.929 . S
C1080 C1081 1.377 . S
C1080 C1082 1.384 . S
C1081 C1080 1.377 . S
C1081 C1087 1.390 . S
C1082 H1073 0.930 . S
C1082 C1080 1.384 . S
C1082 C1083 1.372 . S
C1083 C1082 1.372 . S
C1083 C1084 1.400 . S
C1083 C1088 1.490 . S
C1084 H1074 0.930 . S
C1084 C1083 1.400 . S
C1084 C1087 1.386 . S
H1085 C1101 0.930 . S
H1086 C1102 0.931 . S
C1087 H1075 0.929 . S
C1087 C1081 1.390 . S
C1087 C1084 1.386 . S
C1088 C1083 1.490 . S
C1088 C1090 1.395 . S
C1088 C1091 1.403 . S
H1089 C1095 0.930 . S
C1090 H1076 0.930 . S
C1090 C1088 1.395 . S
C1090 C1093 1.403 . S
C1091 C1088 1.403 . S
C1091 C1092 1.524 . S
C1091 C1095 1.400 . S
C1092 H1077 0.960 . S
C1092 H1078 0.960 . S
C1092 H1079 0.960 . S
C1092 C1091 1.524 . S
C1093 C1090 1.403 . S
C1093 C1094 1.392 . S
C1093 C1097 1.495 . S
C1094 C1093 1.392 . S
C1094 C1095 1.385 . S
C1094 C1096 1.478 . S
C1095 H1089 0.930 . S
C1095 C1091 1.400 . S
C1095 C1094 1.385 . S
C1096 C1094 1.478 . S
C1096 C1098 1.381 . S
C1096 C1102 1.383 . S
C1097 C1093 1.495 . S
C1097 H1103 0.959 . S
C1097 H1104 0.961 . S
C1097 H1105 0.960 . S
C1098 C1096 1.381 . S
C1098 C1099 1.394 . S
C1098 H1106 0.930 . S
C1099 C1098 1.394 . S
C1099 C1100 1.383 . S
C1099 H1107 0.929 . S
C1100 C1099 1.383 . S
C1100 C1101 1.377 . S
C1101 H1085 0.930 . S
C1101 C1100 1.377 . S
C1101 C1102 1.379 . S
C1102 H1086 0.931 . S
C1102 C1096 1.383 . S
C1102 C1101 1.379 . S
H1103 C1097 0.959 . S
H1104 C1097 0.961 . S
H1105 C1097 0.960 . S
H1106 C1098 0.930 . S
H1107 C1099 0.929 . S
H1108 C1116 0.929 . S
H1109 C1118 0.930 . S
H1110 C1120 0.930 . S
H1111 C1123 0.929 . S
H1112 C1126 0.930 . S
H1113 C1128 0.960 . S
H1114 C1128 0.960 . S
H1115 C1128 0.960 . S
C1116 H1108 0.929 . S
C1116 C1117 1.377 . S
C1116 C1118 1.384 . S
C1117 C1116 1.377 . S
C1117 C1123 1.390 . S
C1118 H1109 0.930 . S
C1118 C1116 1.384 . S
C1118 C1119 1.372 . S
C1119 C1118 1.372 . S
C1119 C1120 1.400 . S
C1119 C1124 1.490 . S
C1120 H1110 0.930 . S
C1120 C1119 1.400 . S
C1120 C1123 1.386 . S
H1121 C1137 0.930 . S
H1122 C1138 0.931 . S
C1123 H1111 0.929 . S
C1123 C1117 1.390 . S
C1123 C1120 1.386 . S
C1124 C1119 1.490 . S
C1124 C1126 1.395 . S
C1124 C1127 1.403 . S
H1125 C1131 0.930 . S
C1126 H1112 0.930 . S
C1126 C1124 1.395 . S
C1126 C1129 1.403 . S
C1127 C1124 1.403 . S
C1127 C1128 1.524 . S
C1127 C1131 1.400 . S
C1128 H1113 0.960 . S
C1128 H1114 0.960 . S
C1128 H1115 0.960 . S
C1128 C1127 1.524 . S
C1129 C1126 1.403 . S
C1129 C1130 1.392 . S
C1129 C1133 1.495 . S
C1130 C1129 1.392 . S
C1130 C1131 1.385 . S
C1130 C1132 1.478 . S
C1131 H1125 0.930 . S
C1131 C1127 1.400 . S
C1131 C1130 1.385 . S
C1132 C1130 1.478 . S
C1132 C1134 1.381 . S
C1132 C1138 1.383 . S
C1133 C1129 1.495 . S
C1133 H1139 0.959 . S
C1133 H1140 0.961 . S
C1133 H1141 0.960 . S
C1134 C1132 1.381 . S
C1134 C1135 1.394 . S
C1134 H1142 0.930 . S
C1135 C1134 1.394 . S
C1135 C1136 1.383 . S
C1135 H1143 0.929 1_455 S
C1136 C1135 1.383 . S
C1136 C1137 1.377 . S
C1137 H1121 0.930 . S
C1137 C1136 1.377 . S
C1137 C1138 1.379 . S
C1138 H1122 0.931 . S
C1138 C1132 1.383 . S
C1138 C1137 1.379 . S
H1139 C1133 0.959 . S
H1140 C1133 0.961 . S
H1141 C1133 0.960 . S
H1142 C1134 0.930 . S
H1143 C1135 0.929 1_655 S
H1144 C1152 0.929 . S
H1145 C1154 0.930 . S
H1146 C1156 0.930 . S
H1147 C1159 0.929 . S
H1148 C1162 0.930 . S
H1149 C1164 0.960 . S
H1150 C1164 0.960 . S
H1151 C1164 0.960 . S
C1152 H1144 0.929 . S
C1152 C1153 1.377 . S
C1152 C1154 1.384 . S
C1153 C1152 1.377 . S
C1153 C1159 1.390 . S
C1154 H1145 0.930 . S
C1154 C1152 1.384 . S
C1154 C1155 1.372 . S
C1155 C1154 1.372 . S
C1155 C1156 1.400 . S
C1155 C1160 1.490 . S
C1156 H1146 0.930 . S
C1156 C1155 1.400 . S
C1156 C1159 1.386 . S
H1157 C1173 0.930 . S
H1158 C1174 0.931 . S
C1159 H1147 0.929 . S
C1159 C1153 1.390 . S
C1159 C1156 1.386 . S
C1160 C1155 1.490 . S
C1160 C1162 1.395 . S
C1160 C1163 1.403 . S
H1161 C1167 0.930 . S
C1162 H1148 0.930 . S
C1162 C1160 1.395 . S
C1162 C1165 1.403 . S
C1163 C1160 1.403 . S
C1163 C1164 1.524 . S
C1163 C1167 1.400 . S
C1164 H1149 0.960 . S
C1164 H1150 0.960 . S
C1164 H1151 0.960 . S
C1164 C1163 1.524 . S
C1165 C1162 1.403 . S
C1165 C1166 1.392 . S
C1165 C1169 1.495 . S
C1166 C1165 1.392 . S
C1166 C1167 1.385 . S
C1166 C1168 1.478 . S
C1167 H1161 0.930 . S
C1167 C1163 1.400 . S
C1167 C1166 1.385 . S
C1168 C1166 1.478 . S
C1168 C1170 1.381 . S
C1168 C1174 1.383 . S
C1169 C1165 1.495 . S
C1169 H1175 0.959 . S
C1169 H1176 0.961 . S
C1169 H1177 0.960 . S
C1170 C1168 1.381 . S
C1170 C1171 1.394 . S
C1170 H1178 0.930 . S
C1171 C1170 1.394 . S
C1171 C1172 1.383 . S
C1171 H1179 0.929 . S
C1172 C1171 1.383 . S
C1172 C1173 1.377 . S
C1173 H1157 0.930 . S
C1173 C1172 1.377 . S
C1173 C1174 1.379 . S
C1174 H1158 0.931 . S
C1174 C1168 1.383 . S
C1174 C1173 1.379 . S
H1175 C1169 0.959 . S
H1176 C1169 0.961 . S
H1177 C1169 0.960 . S
H1178 C1170 0.930 . S
H1179 C1171 0.929 . S
H1180 C1188 0.929 . S
H1181 C1190 0.930 . S
H1182 C1192 0.930 . S
H1183 C1195 0.929 . S
H1184 C1198 0.930 . S
H1185 C1200 0.960 . S
H1186 C1200 0.960 . S
H1187 C1200 0.960 . S
C1188 H1180 0.929 . S
C1188 C1189 1.377 1_455 S
C1188 C1190 1.384 . S
C1189 C1188 1.377 1_655 S
C1189 C1195 1.390 . S
C1190 H1181 0.930 . S
C1190 C1188 1.384 . S
C1190 C1191 1.372 1_455 S
C1191 C1190 1.372 1_655 S
C1191 C1192 1.400 . S
C1191 C1196 1.490 1_655 S
C1192 H1182 0.930 . S
C1192 C1191 1.400 . S
C1192 C1195 1.386 . S
H1193 C1209 0.928 1_655 S
H1194 C1210 0.931 1_655 S
C1195 H1183 0.929 . S
C1195 C1189 1.390 . S
C1195 C1192 1.386 . S
C1196 C1191 1.490 1_455 S
C1196 C1198 1.395 . S
C1196 C1199 1.403 1_455 S
H1197 C1203 0.930 . S
C1198 H1184 0.930 . S
C1198 C1196 1.395 . S
C1198 C1201 1.403 . S
C1199 C1196 1.403 1_655 S
C1199 C1200 1.524 . S
C1199 C1203 1.400 . S
C1200 H1185 0.960 . S
C1200 H1186 0.960 . S
C1200 H1187 0.960 . S
C1200 C1199 1.524 . S
C1201 C1198 1.403 . S
C1201 C1202 1.392 . S
C1201 C1205 1.495 . S
C1202 C1201 1.392 . S
C1202 C1203 1.385 1_455 S
C1202 C1204 1.478 . S
C1203 H1197 0.930 . S
C1203 C1199 1.400 . S
C1203 C1202 1.385 1_655 S
C1204 C1202 1.478 . S
C1204 C1206 1.381 . S
C1204 C1210 1.383 . S
C1205 C1201 1.495 . S
C1205 H1211 0.959 . S
C1205 H1212 0.961 . S
C1205 H1213 0.960 . S
C1206 C1204 1.381 . S
C1206 C1207 1.394 . S
C1206 H1214 0.930 . S
C1207 C1206 1.394 . S
C1207 C1208 1.383 . S
C1207 H1215 0.929 . S
C1208 C1207 1.383 . S
C1208 C1209 1.377 . S
C1209 H1193 0.928 1_455 S
C1209 C1208 1.377 . S
C1209 C1210 1.379 . S
C1210 H1194 0.931 1_455 S
C1210 C1204 1.383 . S
C1210 C1209 1.379 . S
H1211 C1205 0.959 . S
H1212 C1205 0.961 . S
H1213 C1205 0.960 . S
H1214 C1206 0.930 . S
H1215 C1207 0.929 . S
H1216 C1224 0.929 . S
H1217 C1226 0.930 . S
H1218 C1228 0.930 . S
H1219 C1231 0.929 . S
H1220 C1234 0.930 . S
H1221 C1236 0.960 . S
H1222 C1236 0.960 . S
H1223 C1236 0.960 . S
C1224 H1216 0.929 . S
C1224 C1225 1.377 . S
C1224 C1226 1.384 . S
C1225 C1224 1.377 . S
C1225 C1231 1.390 . S
C1226 H1217 0.930 . S
C1226 C1224 1.384 . S
C1226 C1227 1.372 . S
C1227 C1226 1.372 . S
C1227 C1228 1.400 . S
C1227 C1232 1.490 . S
C1228 H1218 0.930 . S
C1228 C1227 1.400 . S
C1228 C1231 1.386 . S
H1229 C1245 0.930 . S
H1230 C1246 0.931 . S
C1231 H1219 0.929 . S
C1231 C1225 1.390 . S
C1231 C1228 1.386 . S
C1232 C1227 1.490 . S
C1232 C1234 1.395 . S
C1232 C1235 1.403 . S
H1233 C1239 0.930 . S
C1234 H1220 0.930 . S
C1234 C1232 1.395 . S
C1234 C1237 1.403 . S
C1235 C1232 1.403 . S
C1235 C1236 1.524 . S
C1235 C1239 1.400 . S
C1236 H1221 0.960 . S
C1236 H1222 0.960 . S
C1236 H1223 0.960 . S
C1236 C1235 1.524 . S
C1237 C1234 1.403 . S
C1237 C1238 1.392 . S
C1237 C1241 1.495 . S
C1238 C1237 1.392 . S
C1238 C1239 1.385 . S
C1238 C1240 1.478 . S
C1239 H1233 0.930 . S
C1239 C1235 1.400 . S
C1239 C1238 1.385 . S
C1240 C1238 1.478 . S
C1240 C1242 1.381 . S
C1240 C1246 1.383 . S
C1241 C1237 1.495 . S
C1241 H1247 0.959 . S
C1241 H1248 0.961 . S
C1241 H1249 0.960 . S
C1242 C1240 1.381 . S
C1242 C1243 1.394 . S
C1242 H1250 0.930 . S
C1243 C1242 1.394 . S
C1243 C1244 1.383 . S
C1243 H1251 0.929 . S
C1244 C1243 1.383 . S
C1244 C1245 1.377 . S
C1245 H1229 0.930 . S
C1245 C1244 1.377 . S
C1245 C1246 1.379 . S
C1246 H1230 0.931 . S
C1246 C1240 1.383 . S
C1246 C1245 1.379 . S
H1247 C1241 0.959 . S
H1248 C1241 0.961 . S
H1249 C1241 0.960 . S
H1250 C1242 0.930 . S
H1251 C1243 0.929 . S
H1252 C1260 0.929 . S
H1253 C1262 0.930 . S
H1254 C1264 0.930 . S
H1255 C1267 0.929 . S
H1256 C1270 0.930 . S
H1257 C1272 0.960 . S
H1258 C1272 0.960 . S
H1259 C1272 0.960 . S
C1260 H1252 0.929 . S
C1260 C1261 1.377 . S
C1260 C1262 1.384 . S
C1261 C1260 1.377 . S
C1261 C1267 1.390 . S
C1262 H1253 0.930 . S
C1262 C1260 1.384 . S
C1262 C1263 1.372 . S
C1263 C1262 1.372 . S
C1263 C1264 1.400 . S
C1263 C1268 1.490 . S
C1264 H1254 0.930 . S
C1264 C1263 1.400 . S
C1264 C1267 1.386 . S
H1265 C1281 0.930 . S
H1266 C1282 0.931 . S
C1267 H1255 0.929 . S
C1267 C1261 1.390 . S
C1267 C1264 1.386 . S
C1268 C1263 1.490 . S
C1268 C1270 1.395 . S
C1268 C1271 1.403 . S
H1269 C1275 0.930 . S
C1270 H1256 0.930 . S
C1270 C1268 1.395 . S
C1270 C1273 1.403 . S
C1271 C1268 1.403 . S
C1271 C1272 1.524 . S
C1271 C1275 1.400 . S
C1272 H1257 0.960 . S
C1272 H1258 0.960 . S
C1272 H1259 0.960 . S
C1272 C1271 1.524 . S
C1273 C1270 1.403 . S
C1273 C1274 1.392 . S
C1273 C1277 1.495 . S
C1274 C1273 1.392 . S
C1274 C1275 1.385 . S
C1274 C1276 1.478 . S
C1275 H1269 0.930 . S
C1275 C1271 1.400 . S
C1275 C1274 1.385 . S
C1276 C1274 1.478 . S
C1276 C1278 1.381 . S
C1276 C1282 1.383 . S
C1277 C1273 1.495 . S
C1277 H1283 0.959 . S
C1277 H1284 0.961 . S
C1277 H1285 0.960 . S
C1278 C1276 1.381 . S
C1278 C1279 1.394 . S
C1278 H1286 0.930 . S
C1279 C1278 1.394 . S
C1279 C1280 1.383 . S
C1279 H1287 0.929 . S
C1280 C1279 1.383 . S
C1280 C1281 1.377 . S
C1281 H1265 0.930 . S
C1281 C1280 1.377 . S
C1281 C1282 1.379 . S
C1282 H1266 0.931 . S
C1282 C1276 1.383 . S
C1282 C1281 1.379 . S
H1283 C1277 0.959 . S
H1284 C1277 0.961 . S
H1285 C1277 0.960 . S
H1286 C1278 0.930 . S
H1287 C1279 0.929 . S
H1288 C1296 0.929 . S
H1289 C1298 0.930 1_565 S
H1290 C1300 0.930 . S
H1291 C1303 0.929 . S
H1292 C1306 0.930 1_545 S
H1293 C1308 0.960 . S
H1294 C1308 0.960 . S
H1295 C1308 0.960 . S
C1296 H1288 0.929 . S
C1296 C1297 1.377 1_554 S
C1296 C1298 1.384 . S
C1297 C1296 1.377 1_556 S
C1297 C1303 1.390 . S
C1298 H1289 0.930 1_545 S
C1298 C1296 1.384 . S
C1298 C1299 1.372 1_554 S
C1299 C1298 1.372 1_556 S
C1299 C1300 1.400 . S
C1299 C1304 1.490 1_545 S
C1300 H1290 0.930 . S
C1300 C1299 1.400 . S
C1300 C1303 1.386 . S
H1301 C1317 0.930 . S
H1302 C1318 0.931 . S
C1303 H1291 0.929 . S
C1303 C1297 1.390 . S
C1303 C1300 1.386 . S
C1304 C1299 1.490 1_565 S
C1304 C1306 1.395 1_556 S
C1304 C1307 1.403 . S
H1305 C1311 0.930 . S
C1306 H1292 0.930 1_565 S
C1306 C1304 1.395 1_554 S
C1306 C1309 1.403 . S
C1307 C1304 1.403 . S
C1307 C1308 1.524 . S
C1307 C1311 1.400 . S
C1308 H1293 0.960 . S
C1308 H1294 0.960 . S
C1308 H1295 0.960 . S
C1308 C1307 1.524 . S
C1309 C1306 1.403 . S
C1309 C1310 1.392 1_554 S
C1309 C1313 1.495 . S
C1310 C1309 1.392 1_556 S
C1310 C1311 1.385 . S
C1310 C1312 1.478 . S
C1311 H1305 0.930 . S
C1311 C1307 1.400 . S
C1311 C1310 1.385 . S
C1312 C1310 1.478 . S
C1312 C1314 1.381 1_556 S
C1312 C1318 1.383 . S
C1313 C1309 1.495 . S
C1313 H1319 0.959 . S
C1313 H1320 0.961 . S
C1313 H1321 0.960 . S
C1314 C1312 1.381 1_554 S
C1314 C1315 1.394 . S
C1314 H1322 0.930 . S
C1315 C1314 1.394 . S
C1315 C1316 1.383 1_554 S
C1315 H1323 0.929 . S
C1316 C1315 1.383 1_556 S
C1316 C1317 1.377 . S
C1317 H1301 0.930 . S
C1317 C1316 1.377 . S
C1317 C1318 1.379 . S
C1318 H1302 0.931 . S
C1318 C1312 1.383 . S
C1318 C1317 1.379 . S
H1319 C1313 0.959 . S
H1320 C1313 0.961 . S
H1321 C1313 0.960 . S
H1322 C1314 0.930 . S
H1323 C1315 0.929 . S
H1324 C1332 0.929 . S
H1325 C1334 0.930 . S
H1326 C1336 0.930 . S
H1327 C1339 0.929 . S
H1328 C1342 0.930 . S
H1329 C1344 0.960 . S
H1330 C1344 0.960 . S
H1331 C1344 0.960 . S
C1332 H1324 0.929 . S
C1332 C1333 1.377 . S
C1332 C1334 1.384 . S
C1333 C1332 1.377 . S
C1333 C1339 1.390 . S
C1334 H1325 0.930 . S
C1334 C1332 1.384 . S
C1334 C1335 1.372 . S
C1335 C1334 1.372 . S
C1335 C1336 1.400 . S
C1335 C1340 1.490 . S
C1336 H1326 0.930 . S
C1336 C1335 1.400 . S
C1336 C1339 1.386 . S
H1337 C1353 0.930 . S
H1338 C1354 0.931 . S
C1339 H1327 0.929 . S
C1339 C1333 1.390 . S
C1339 C1336 1.386 . S
C1340 C1335 1.490 . S
C1340 C1342 1.395 . S
C1340 C1343 1.403 . S
H1341 C1347 0.930 . S
C1342 H1328 0.930 . S
C1342 C1340 1.395 . S
C1342 C1345 1.403 . S
C1343 C1340 1.403 . S
C1343 C1344 1.524 . S
C1343 C1347 1.400 . S
C1344 H1329 0.960 . S
C1344 H1330 0.960 . S
C1344 H1331 0.960 . S
C1344 C1343 1.524 . S
C1345 C1342 1.403 . S
C1345 C1346 1.392 . S
C1345 C1349 1.495 . S
C1346 C1345 1.392 . S
C1346 C1347 1.385 . S
C1346 C1348 1.478 . S
C1347 H1341 0.930 . S
C1347 C1343 1.400 . S
C1347 C1346 1.385 . S
C1348 C1346 1.478 . S
C1348 C1350 1.381 . S
C1348 C1354 1.383 . S
C1349 C1345 1.495 . S
C1349 H1355 0.959 . S
C1349 H1356 0.961 . S
C1349 H1357 0.960 . S
C1350 C1348 1.381 . S
C1350 C1351 1.394 . S
C1350 H1358 0.930 . S
C1351 C1350 1.394 . S
C1351 C1352 1.383 . S
C1351 H1359 0.929 . S
C1352 C1351 1.383 . S
C1352 C1353 1.377 . S
C1353 H1337 0.930 . S
C1353 C1352 1.377 . S
C1353 C1354 1.379 . S
C1354 H1338 0.931 . S
C1354 C1348 1.383 . S
C1354 C1353 1.379 . S
H1355 C1349 0.959 . S
H1356 C1349 0.961 . S
H1357 C1349 0.960 . S
H1358 C1350 0.930 . S
H1359 C1351 0.929 . S
H1360 C1368 0.929 . S
H1361 C1370 0.930 . S
H1362 C1372 0.930 . S
H1363 C1375 0.929 . S
H1364 C1378 0.930 . S
H1365 C1380 0.960 . S
H1366 C1380 0.960 . S
H1367 C1380 0.960 . S
C1368 H1360 0.929 . S
C1368 C1369 1.377 . S
C1368 C1370 1.384 . S
C1369 C1368 1.377 . S
C1369 C1375 1.390 1_545 S
C1370 H1361 0.930 . S
C1370 C1368 1.384 . S
C1370 C1371 1.372 . S
C1371 C1370 1.372 . S
C1371 C1372 1.400 . S
C1371 C1376 1.490 . S
C1372 H1362 0.930 . S
C1372 C1371 1.400 . S
C1372 C1375 1.386 1_545 S
H1373 C1389 0.930 . S
H1374 C1390 0.931 . S
C1375 H1363 0.929 . S
C1375 C1369 1.390 1_565 S
C1375 C1372 1.386 1_565 S
C1376 C1371 1.490 . S
C1376 C1378 1.395 . S
C1376 C1379 1.403 . S
H1377 C1383 0.930 . S
C1378 H1364 0.930 . S
C1378 C1376 1.395 . S
C1378 C1381 1.403 . S
C1379 C1376 1.403 . S
C1379 C1380 1.524 . S
C1379 C1383 1.400 . S
C1380 H1365 0.960 . S
C1380 H1366 0.960 . S
C1380 H1367 0.960 . S
C1380 C1379 1.524 . S
C1381 C1378 1.403 . S
C1381 C1382 1.392 . S
C1381 C1385 1.495 . S
C1382 C1381 1.392 . S
C1382 C1383 1.385 . S
C1382 C1384 1.478 . S
C1383 H1377 0.930 . S
C1383 C1379 1.400 . S
C1383 C1382 1.385 . S
C1384 C1382 1.478 . S
C1384 C1386 1.381 . S
C1384 C1390 1.383 . S
C1385 C1381 1.495 . S
C1385 H1391 0.959 . S
C1385 H1392 0.961 . S
C1385 H1393 0.960 . S
C1386 C1384 1.381 . S
C1386 C1387 1.394 . S
C1386 H1394 0.930 . S
C1387 C1386 1.394 . S
C1387 C1388 1.383 . S
C1387 H1395 0.929 . S
C1388 C1387 1.383 . S
C1388 C1389 1.377 . S
C1389 H1373 0.930 . S
C1389 C1388 1.377 . S
C1389 C1390 1.379 . S
C1390 H1374 0.931 . S
C1390 C1384 1.383 . S
C1390 C1389 1.379 . S
H1391 C1385 0.959 . S
H1392 C1385 0.961 . S
H1393 C1385 0.960 . S
H1394 C1386 0.930 . S
H1395 C1387 0.929 . S
H1396 C1404 0.929 . S
H1397 C1406 0.930 . S
H1398 C1408 0.930 . S
H1399 C1411 0.929 . S
H1400 C1414 0.930 . S
H1401 C1416 0.960 . S
H1402 C1416 0.960 . S
H1403 C1416 0.960 . S
C1404 H1396 0.929 . S
C1404 C1405 1.377 . S
C1404 C1406 1.384 . S
C1405 C1404 1.377 . S
C1405 C1411 1.390 . S
C1406 H1397 0.930 . S
C1406 C1404 1.384 . S
C1406 C1407 1.372 . S
C1407 C1406 1.372 . S
C1407 C1408 1.400 . S
C1407 C1412 1.490 . S
C1408 H1398 0.930 . S
C1408 C1407 1.400 . S
C1408 C1411 1.386 . S
H1409 C1425 0.930 . S
H1410 C1426 0.931 . S
C1411 H1399 0.929 . S
C1411 C1405 1.390 . S
C1411 C1408 1.386 . S
C1412 C1407 1.490 . S
C1412 C1414 1.395 . S
C1412 C1415 1.403 . S
H1413 C1419 0.930 . S
C1414 H1400 0.930 . S
C1414 C1412 1.395 . S
C1414 C1417 1.403 . S
C1415 C1412 1.403 . S
C1415 C1416 1.524 . S
C1415 C1419 1.400 . S
C1416 H1401 0.960 . S
C1416 H1402 0.960 . S
C1416 H1403 0.960 . S
C1416 C1415 1.524 . S
C1417 C1414 1.403 . S
C1417 C1418 1.392 . S
C1417 C1421 1.495 . S
C1418 C1417 1.392 . S
C1418 C1419 1.385 . S
C1418 C1420 1.478 . S
C1419 H1413 0.930 . S
C1419 C1415 1.400 . S
C1419 C1418 1.385 . S
C1420 C1418 1.478 . S
C1420 C1422 1.381 . S
C1420 C1426 1.383 . S
C1421 C1417 1.495 . S
C1421 H1427 0.959 . S
C1421 H1428 0.961 . S
C1421 H1429 0.960 . S
C1422 C1420 1.381 . S
C1422 C1423 1.394 . S
C1422 H1430 0.930 . S
C1423 C1422 1.394 . S
C1423 C1424 1.383 . S
C1423 H1431 0.929 . S
C1424 C1423 1.383 . S
C1424 C1425 1.377 . S
C1425 H1409 0.930 . S
C1425 C1424 1.377 . S
C1425 C1426 1.379 . S
C1426 H1410 0.931 . S
C1426 C1420 1.383 . S
C1426 C1425 1.379 . S
H1427 C1421 0.959 . S
H1428 C1421 0.961 . S
H1429 C1421 0.960 . S
H1430 C1422 0.930 . S
H1431 C1423 0.929 . S
H1432 C1440 0.929 . S
H1433 C1442 0.930 1_565 S
H1434 C1444 0.930 . S
H1435 C1447 0.929 . S
H1436 C1450 0.930 . S
H1437 C1452 0.960 . S
H1438 C1452 0.960 . S
H1439 C1452 0.960 . S
C1440 H1432 0.929 . S
C1440 C1441 1.377 . S
C1440 C1442 1.384 1_565 S
C1441 C1440 1.377 . S
C1441 C1447 1.390 1_565 S
C1442 H1433 0.930 1_545 S
C1442 C1440 1.384 1_545 S
C1442 C1443 1.372 . S
C1443 C1442 1.372 . S
C1443 C1444 1.400 . S
C1443 C1448 1.490 . S
C1444 H1434 0.930 . S
C1444 C1443 1.400 . S
C1444 C1447 1.386 . S
H1445 C1461 0.930 . S
H1446 C1462 0.931 . S
C1447 H1435 0.929 . S
C1447 C1441 1.390 1_545 S
C1447 C1444 1.386 . S
C1448 C1443 1.490 . S
C1448 C1450 1.395 . S
C1448 C1451 1.403 . S
H1449 C1455 0.930 . S
C1450 H1436 0.930 . S
C1450 C1448 1.395 . S
C1450 C1453 1.403 . S
C1451 C1448 1.403 . S
C1451 C1452 1.524 . S
C1451 C1455 1.400 . S
C1452 H1437 0.960 . S
C1452 H1438 0.960 . S
C1452 H1439 0.960 . S
C1452 C1451 1.524 . S
C1453 C1450 1.403 . S
C1453 C1454 1.392 . S
C1453 C1457 1.495 . S
C1454 C1453 1.392 . S
C1454 C1455 1.385 . S
C1454 C1456 1.478 . S
C1455 H1449 0.930 . S
C1455 C1451 1.400 . S
C1455 C1454 1.385 . S
C1456 C1454 1.478 . S
C1456 C1458 1.381 . S
C1456 C1462 1.383 . S
C1457 C1453 1.495 . S
C1457 H1463 0.959 . S
C1457 H1464 0.961 . S
C1457 H1465 0.960 . S
C1458 C1456 1.381 . S
C1458 C1459 1.394 . S
C1458 H1466 0.930 . S
C1459 C1458 1.394 . S
C1459 C1460 1.383 . S
C1459 H1467 0.929 . S
C1460 C1459 1.383 . S
C1460 C1461 1.377 . S
C1461 H1445 0.930 . S
C1461 C1460 1.377 . S
C1461 C1462 1.379 . S
C1462 H1446 0.931 . S
C1462 C1456 1.383 . S
C1462 C1461 1.379 . S
H1463 C1457 0.959 . S
H1464 C1457 0.961 . S
H1465 C1457 0.960 . S
H1466 C1458 0.930 . S
H1467 C1459 0.929 . S
H1468 C1476 0.929 . S
H1469 C1478 0.930 . S
H1470 C1480 0.930 . S
H1471 C1483 0.929 . S
H1472 C1486 0.930 . S
H1473 C1488 0.960 . S
H1474 C1488 0.960 . S
H1475 C1488 0.960 . S
C1476 H1468 0.929 . S
C1476 C1477 1.377 . S
C1476 C1478 1.384 . S
C1477 C1476 1.377 . S
C1477 C1483 1.390 . S
C1478 H1469 0.930 . S
C1478 C1476 1.384 . S
C1478 C1479 1.372 . S
C1479 C1478 1.372 . S
C1479 C1480 1.400 . S
C1479 C1484 1.490 . S
C1480 H1470 0.930 . S
C1480 C1479 1.400 . S
C1480 C1483 1.386 . S
H1481 C1497 0.930 . S
H1482 C1498 0.931 . S
C1483 H1471 0.929 . S
C1483 C1477 1.390 . S
C1483 C1480 1.386 . S
C1484 C1479 1.490 . S
C1484 C1486 1.395 . S
C1484 C1487 1.403 . S
H1485 C1491 0.930 . S
C1486 H1472 0.930 . S
C1486 C1484 1.395 . S
C1486 C1489 1.403 . S
C1487 C1484 1.403 . S
C1487 C1488 1.524 . S
C1487 C1491 1.400 . S
C1488 H1473 0.960 . S
C1488 H1474 0.960 . S
C1488 H1475 0.960 . S
C1488 C1487 1.524 . S
C1489 C1486 1.403 . S
C1489 C1490 1.392 . S
C1489 C1493 1.495 . S
C1490 C1489 1.392 . S
C1490 C1491 1.385 . S
C1490 C1492 1.478 . S
C1491 H1485 0.930 . S
C1491 C1487 1.400 . S
C1491 C1490 1.385 . S
C1492 C1490 1.478 . S
C1492 C1494 1.381 . S
C1492 C1498 1.383 . S
C1493 C1489 1.495 . S
C1493 H1499 0.959 . S
C1493 H1500 0.961 . S
C1493 H1501 0.960 . S
C1494 C1492 1.381 . S
C1494 C1495 1.394 . S
C1494 H1502 0.930 . S
C1495 C1494 1.394 . S
C1495 C1496 1.383 . S
C1495 H1503 0.929 . S
C1496 C1495 1.383 . S
C1496 C1497 1.377 . S
C1497 H1481 0.930 . S
C1497 C1496 1.377 . S
C1497 C1498 1.379 . S
C1498 H1482 0.931 . S
C1498 C1492 1.383 . S
C1498 C1497 1.379 . S
H1499 C1493 0.959 . S
H1500 C1493 0.961 . S
H1501 C1493 0.960 . S
H1502 C1494 0.930 . S
H1503 C1495 0.929 . S
H1504 C1512 0.929 . S
H1505 C1514 0.930 . S
H1506 C1516 0.930 . S
H1507 C1519 0.929 . S
H1508 C1522 0.930 . S
H1509 C1524 0.960 . S
H1510 C1524 0.960 . S
H1511 C1524 0.960 . S
C1512 H1504 0.929 . S
C1512 C1513 1.377 . S
C1512 C1514 1.384 . S
C1513 C1512 1.377 . S
C1513 C1519 1.390 . S
C1514 H1505 0.930 . S
C1514 C1512 1.384 . S
C1514 C1515 1.372 . S
C1515 C1514 1.372 . S
C1515 C1516 1.400 . S
C1515 C1520 1.490 . S
C1516 H1506 0.930 . S
C1516 C1515 1.400 . S
C1516 C1519 1.386 . S
H1517 C1533 0.930 . S
H1518 C1534 0.931 . S
C1519 H1507 0.929 . S
C1519 C1513 1.390 . S
C1519 C1516 1.386 . S
C1520 C1515 1.490 . S
C1520 C1522 1.395 . S
C1520 C1523 1.403 . S
H1521 C1527 0.930 . S
C1522 H1508 0.930 . S
C1522 C1520 1.395 . S
C1522 C1525 1.403 . S
C1523 C1520 1.403 . S
C1523 C1524 1.524 . S
C1523 C1527 1.400 . S
C1524 H1509 0.960 . S
C1524 H1510 0.960 . S
C1524 H1511 0.960 . S
C1524 C1523 1.524 . S
C1525 C1522 1.403 . S
C1525 C1526 1.392 . S
C1525 C1529 1.495 . S
C1526 C1525 1.392 . S
C1526 C1527 1.385 . S
C1526 C1528 1.478 . S
C1527 H1521 0.930 . S
C1527 C1523 1.400 . S
C1527 C1526 1.385 . S
C1528 C1526 1.478 . S
C1528 C1530 1.381 . S
C1528 C1534 1.383 . S
C1529 C1525 1.495 . S
C1529 H1535 0.959 . S
C1529 H1536 0.961 . S
C1529 H1537 0.960 . S
C1530 C1528 1.381 . S
C1530 C1531 1.394 . S
C1530 H1538 0.930 . S
C1531 C1530 1.394 . S
C1531 C1532 1.383 . S
C1531 H1539 0.929 . S
C1532 C1531 1.383 . S
C1532 C1533 1.377 . S
C1533 H1517 0.930 . S
C1533 C1532 1.377 . S
C1533 C1534 1.379 . S
C1534 H1518 0.931 . S
C1534 C1528 1.383 . S
C1534 C1533 1.379 . S
H1535 C1529 0.959 . S
H1536 C1529 0.961 . S
H1537 C1529 0.960 . S
H1538 C1530 0.930 . S
H1539 C1531 0.929 . S
H1540 C1548 0.929 . S
H1541 C1550 0.930 . S
H1542 C1552 0.930 . S
H1543 C1555 0.929 . S
H1544 C1558 0.930 . S
H1545 C1560 0.960 . S
H1546 C1560 0.960 . S
H1547 C1560 0.960 . S
C1548 H1540 0.929 . S
C1548 C1549 1.377 . S
C1548 C1550 1.384 . S
C1549 C1548 1.377 . S
C1549 C1555 1.390 . S
C1550 H1541 0.930 . S
C1550 C1548 1.384 . S
C1550 C1551 1.372 . S
C1551 C1550 1.372 . S
C1551 C1552 1.400 . S
C1551 C1556 1.490 . S
C1552 H1542 0.930 . S
C1552 C1551 1.400 . S
C1552 C1555 1.386 . S
H1553 C1569 0.930 . S
H1554 C1570 0.931 . S
C1555 H1543 0.929 . S
C1555 C1549 1.390 . S
C1555 C1552 1.386 . S
C1556 C1551 1.490 . S
C1556 C1558 1.395 . S
C1556 C1559 1.403 . S
H1557 C1563 0.930 . S
C1558 H1544 0.930 . S
C1558 C1556 1.395 . S
C1558 C1561 1.403 . S
C1559 C1556 1.403 . S
C1559 C1560 1.524 . S
C1559 C1563 1.400 . S
C1560 H1545 0.960 . S
C1560 H1546 0.960 . S
C1560 H1547 0.960 . S
C1560 C1559 1.524 . S
C1561 C1558 1.403 . S
C1561 C1562 1.392 . S
C1561 C1565 1.495 . S
C1562 C1561 1.392 . S
C1562 C1563 1.385 . S
C1562 C1564 1.478 . S
C1563 H1557 0.930 . S
C1563 C1559 1.400 . S
C1563 C1562 1.385 . S
C1564 C1562 1.478 . S
C1564 C1566 1.381 . S
C1564 C1570 1.383 1_545 S
C1565 C1561 1.495 . S
C1565 H1571 0.959 . S
C1565 H1572 0.961 . S
C1565 H1573 0.960 . S
C1566 C1564 1.381 . S
C1566 C1567 1.394 . S
C1566 H1574 0.930 . S
C1567 C1566 1.394 . S
C1567 C1568 1.383 . S
C1567 H1575 0.929 . S
C1568 C1567 1.383 . S
C1568 C1569 1.377 1_545 S
C1569 H1553 0.930 . S
C1569 C1568 1.377 1_565 S
C1569 C1570 1.379 . S
C1570 H1554 0.931 . S
C1570 C1564 1.383 1_565 S
C1570 C1569 1.379 . S
H1571 C1565 0.959 . S
H1572 C1565 0.961 . S
H1573 C1565 0.960 . S
H1574 C1566 0.930 . S
H1575 C1567 0.929 . S
H1576 C1584 0.929 . S
H1577 C1586 0.930 . S
H1578 C1588 0.930 . S
H1579 C1591 0.929 . S
H1580 C1594 0.930 . S
H1581 C1596 0.960 . S
H1582 C1596 0.960 . S
H1583 C1596 0.960 . S
C1584 H1576 0.929 . S
C1584 C1585 1.377 . S
C1584 C1586 1.384 . S
C1585 C1584 1.377 . S
C1585 C1591 1.390 . S
C1586 H1577 0.930 . S
C1586 C1584 1.384 . S
C1586 C1587 1.372 . S
C1587 C1586 1.372 . S
C1587 C1588 1.400 . S
C1587 C1592 1.490 . S
C1588 H1578 0.930 . S
C1588 C1587 1.400 . S
C1588 C1591 1.386 . S
H1589 C1605 0.930 . S
H1590 C1606 0.931 . S
C1591 H1579 0.929 . S
C1591 C1585 1.390 . S
C1591 C1588 1.386 . S
C1592 C1587 1.490 . S
C1592 C1594 1.395 . S
C1592 C1595 1.403 . S
H1593 C1599 0.930 . S
C1594 H1580 0.930 . S
C1594 C1592 1.395 . S
C1594 C1597 1.403 . S
C1595 C1592 1.403 . S
C1595 C1596 1.524 . S
C1595 C1599 1.400 . S
C1596 H1581 0.960 . S
C1596 H1582 0.960 . S
C1596 H1583 0.960 . S
C1596 C1595 1.524 . S
C1597 C1594 1.403 . S
C1597 C1598 1.392 . S
C1597 C1601 1.495 . S
C1598 C1597 1.392 . S
C1598 C1599 1.385 . S
C1598 C1600 1.478 . S
C1599 H1593 0.930 . S
C1599 C1595 1.400 . S
C1599 C1598 1.385 . S
C1600 C1598 1.478 . S
C1600 C1602 1.381 . S
C1600 C1606 1.383 . S
C1601 C1597 1.495 . S
C1601 H1607 0.959 . S
C1601 H1608 0.961 . S
C1601 H1609 0.960 . S
C1602 C1600 1.381 . S
C1602 C1603 1.394 . S
C1602 H1610 0.930 . S
C1603 C1602 1.394 . S
C1603 C1604 1.383 . S
C1603 H1611 0.929 . S
C1604 C1603 1.383 . S
C1604 C1605 1.377 . S
C1605 H1589 0.930 . S
C1605 C1604 1.377 . S
C1605 C1606 1.379 . S
C1606 H1590 0.931 . S
C1606 C1600 1.383 . S
C1606 C1605 1.379 . S
H1607 C1601 0.959 . S
H1608 C1601 0.961 . S
H1609 C1601 0.960 . S
H1610 C1602 0.930 . S
H1611 C1603 0.929 . S
H1612 C1620 0.929 . S
H1613 C1622 0.930 . S
H1614 C1624 0.930 . S
H1615 C1627 0.929 . S
H1616 C1630 0.930 . S
H1617 C1632 0.960 . S
H1618 C1632 0.960 . S
H1619 C1632 0.960 . S
C1620 H1612 0.929 . S
C1620 C1621 1.377 . S
C1620 C1622 1.384 . S
C1621 C1620 1.377 . S
C1621 C1627 1.390 . S
C1622 H1613 0.930 . S
C1622 C1620 1.384 . S
C1622 C1623 1.372 . S
C1623 C1622 1.372 . S
C1623 C1624 1.400 . S
C1623 C1628 1.490 . S
C1624 H1614 0.930 . S
C1624 C1623 1.400 . S
C1624 C1627 1.386 . S
H1625 C1641 0.930 . S
H1626 C1642 0.931 . S
C1627 H1615 0.929 . S
C1627 C1621 1.390 . S
C1627 C1624 1.386 . S
C1628 C1623 1.490 . S
C1628 C1630 1.395 . S
C1628 C1631 1.403 . S
H1629 C1635 0.930 . S
C1630 H1616 0.930 . S
C1630 C1628 1.395 . S
C1630 C1633 1.403 . S
C1631 C1628 1.403 . S
C1631 C1632 1.524 . S
C1631 C1635 1.400 . S
C1632 H1617 0.960 . S
C1632 H1618 0.960 . S
C1632 H1619 0.960 . S
C1632 C1631 1.524 . S
C1633 C1630 1.403 . S
C1633 C1634 1.392 . S
C1633 C1637 1.495 . S
C1634 C1633 1.392 . S
C1634 C1635 1.385 . S
C1634 C1636 1.478 . S
C1635 H1629 0.930 . S
C1635 C1631 1.400 . S
C1635 C1634 1.385 . S
C1636 C1634 1.478 . S
C1636 C1638 1.381 . S
C1636 C1642 1.383 . S
C1637 C1633 1.495 . S
C1637 H1643 0.959 . S
C1637 H1644 0.961 . S
C1637 H1645 0.960 . S
C1638 C1636 1.381 . S
C1638 C1639 1.394 . S
C1638 H1646 0.930 . S
C1639 C1638 1.394 . S
C1639 C1640 1.383 . S
C1639 H1647 0.929 . S
C1640 C1639 1.383 . S
C1640 C1641 1.377 . S
C1641 H1625 0.930 . S
C1641 C1640 1.377 . S
C1641 C1642 1.379 . S
C1642 H1626 0.931 . S
C1642 C1636 1.383 . S
C1642 C1641 1.379 . S
H1643 C1637 0.959 . S
H1644 C1637 0.961 . S
H1645 C1637 0.960 . S
H1646 C1638 0.930 . S
H1647 C1639 0.929 . S
H1648 C1656 0.929 . S
H1649 C1658 0.930 . S
H1650 C1660 0.930 . S
H1651 C1663 0.929 . S
H1652 C1666 0.930 . S
H1653 C1668 0.960 . S
H1654 C1668 0.960 . S
H1655 C1668 0.960 . S
C1656 H1648 0.929 . S
C1656 C1657 1.377 . S
C1656 C1658 1.384 . S
C1657 C1656 1.377 . S
C1657 C1663 1.390 . S
C1658 H1649 0.930 . S
C1658 C1656 1.384 . S
C1658 C1659 1.372 . S
C1659 C1658 1.372 . S
C1659 C1660 1.400 . S
C1659 C1664 1.490 . S
C1660 H1650 0.930 . S
C1660 C1659 1.400 . S
C1660 C1663 1.386 . S
H1661 C1677 0.930 . S
H1662 C1678 0.931 . S
C1663 H1651 0.929 . S
C1663 C1657 1.390 . S
C1663 C1660 1.386 . S
C1664 C1659 1.490 . S
C1664 C1666 1.395 . S
C1664 C1667 1.403 . S
H1665 C1671 0.930 . S
C1666 H1652 0.930 . S
C1666 C1664 1.395 . S
C1666 C1669 1.403 . S
C1667 C1664 1.403 . S
C1667 C1668 1.524 . S
C1667 C1671 1.400 . S
C1668 H1653 0.960 . S
C1668 H1654 0.960 . S
C1668 H1655 0.960 . S
C1668 C1667 1.524 . S
C1669 C1666 1.403 . S
C1669 C1670 1.392 . S
C1669 C1673 1.495 . S
C1670 C1669 1.392 . S
C1670 C1671 1.385 . S
C1670 C1672 1.478 . S
C1671 H1665 0.930 . S
C1671 C1667 1.400 . S
C1671 C1670 1.385 . S
C1672 C1670 1.478 . S
C1672 C1674 1.381 . S
C1672 C1678 1.383 . S
C1673 C1669 1.495 . S
C1673 H1679 0.959 . S
C1673 H1680 0.961 . S
C1673 H1681 0.960 . S
C1674 C1672 1.381 . S
C1674 C1675 1.394 . S
C1674 H1682 0.930 . S
C1675 C1674 1.394 . S
C1675 C1676 1.383 . S
C1675 H1683 0.929 . S
C1676 C1675 1.383 . S
C1676 C1677 1.377 . S
C1677 H1661 0.930 . S
C1677 C1676 1.377 . S
C1677 C1678 1.379 . S
C1678 H1662 0.931 . S
C1678 C1672 1.383 . S
C1678 C1677 1.379 . S
H1679 C1673 0.959 . S
H1680 C1673 0.961 . S
H1681 C1673 0.960 . S
H1682 C1674 0.930 . S
H1683 C1675 0.929 . S
H1684 C1692 0.967 . S
H1685 C1694 0.930 . S
H1686 C1696 0.930 . S
H1687 C1699 0.929 . S
H1688 C1702 0.930 . S
H1689 C1704 0.960 . S
H1690 C1704 0.960 . S
H1691 C1704 0.960 . S
C1692 H1684 0.967 . S
C1692 C1693 1.376 . S
C1692 C1694 1.351 1_455 S
C1693 C1692 1.376 . S
C1693 C1699 1.390 1_455 S
C1694 H1685 0.930 . S
C1694 C1692 1.351 1_655 S
C1694 C1695 1.372 . S
C1695 C1694 1.372 . S
C1695 C1696 1.400 . S
C1695 C1700 1.490 . S
C1696 H1686 0.930 . S
C1696 C1695 1.400 . S
C1696 C1699 1.386 . S
H1697 C1713 0.930 . S
H1698 C1714 0.931 . S
C1699 H1687 0.929 . S
C1699 C1693 1.390 1_655 S
C1699 C1696 1.386 . S
C1700 C1695 1.490 . S
C1700 C1702 1.395 . S
C1700 C1703 1.403 . S
H1701 C1707 0.930 . S
C1702 H1688 0.930 . S
C1702 C1700 1.395 . S
C1702 C1705 1.403 . S
C1703 C1700 1.403 . S
C1703 C1704 1.524 . S
C1703 C1707 1.400 . S
C1704 H1689 0.960 . S
C1704 H1690 0.960 . S
C1704 H1691 0.960 . S
C1704 C1703 1.524 . S
C1705 C1702 1.403 . S
C1705 C1706 1.392 . S
C1705 C1709 1.495 . S
C1706 C1705 1.392 . S
C1706 C1707 1.385 . S
C1706 C1708 1.478 . S
C1707 H1701 0.930 . S
C1707 C1703 1.400 . S
C1707 C1706 1.385 . S
C1708 C1706 1.478 . S
C1708 C1710 1.381 . S
C1708 C1714 1.383 . S
C1709 C1705 1.495 . S
C1709 H1715 0.959 . S
C1709 H1716 0.961 . S
C1709 H1717 0.960 . S
C1710 C1708 1.381 . S
C1710 C1711 1.394 . S
C1710 H1718 0.930 . S
C1711 C1710 1.394 . S
C1711 C1712 1.383 . S
C1711 H1719 0.965 . S
C1712 C1711 1.383 . S
C1712 C1713 1.377 . S
C1713 H1697 0.930 . S
C1713 C1712 1.377 . S
C1713 C1714 1.379 . S
C1714 H1698 0.931 . S
C1714 C1708 1.383 . S
C1714 C1713 1.379 . S
H1715 C1709 0.959 . S
H1716 C1709 0.961 . S
H1717 C1709 0.960 . S
H1718 C1710 0.930 . S
H1719 C1711 0.965 . S
H1720 C1728 0.929 . S
H1721 C1730 0.930 . S
H1722 C1732 0.930 . S
H1723 C1735 0.929 . S
H1724 C1738 0.930 . S
H1725 C1740 0.960 . S
H1726 C1740 0.960 . S
H1727 C1740 0.960 . S
C1728 H1720 0.929 . S
C1728 C1729 1.377 . S
C1728 C1730 1.384 . S
C1729 C1728 1.377 . S
C1729 C1735 1.390 . S
C1730 H1721 0.930 . S
C1730 C1728 1.384 . S
C1730 C1731 1.372 . S
C1731 C1730 1.372 . S
C1731 C1732 1.400 . S
C1731 C1736 1.490 . S
C1732 H1722 0.930 . S
C1732 C1731 1.400 . S
C1732 C1735 1.386 . S
H1733 C1749 0.930 . S
H1734 C1750 0.931 . S
C1735 H1723 0.929 . S
C1735 C1729 1.390 . S
C1735 C1732 1.386 . S
C1736 C1731 1.490 . S
C1736 C1738 1.395 . S
C1736 C1739 1.403 . S
H1737 C1743 0.930 . S
C1738 H1724 0.930 . S
C1738 C1736 1.395 . S
C1738 C1741 1.403 . S
C1739 C1736 1.403 . S
C1739 C1740 1.524 . S
C1739 C1743 1.400 . S
C1740 H1725 0.960 . S
C1740 H1726 0.960 . S
C1740 H1727 0.960 . S
C1740 C1739 1.524 . S
C1741 C1738 1.403 . S
C1741 C1742 1.392 . S
C1741 C1745 1.495 . S
C1742 C1741 1.392 . S
C1742 C1743 1.385 . S
C1742 C1744 1.478 . S
C1743 H1737 0.930 . S
C1743 C1739 1.400 . S
C1743 C1742 1.385 . S
C1744 C1742 1.478 . S
C1744 C1746 1.381 . S
C1744 C1750 1.383 . S
C1745 C1741 1.495 . S
C1745 H1751 0.959 . S
C1745 H1752 0.961 . S
C1745 H1753 0.960 . S
C1746 C1744 1.381 . S
C1746 C1747 1.394 . S
C1746 H1754 0.930 . S
C1747 C1746 1.394 . S
C1747 C1748 1.383 . S
C1747 H1755 0.929 . S
C1748 C1747 1.383 . S
C1748 C1749 1.377 . S
C1749 H1733 0.930 . S
C1749 C1748 1.377 . S
C1749 C1750 1.379 . S
C1750 H1734 0.931 . S
C1750 C1744 1.383 . S
C1750 C1749 1.379 . S
H1751 C1745 0.959 . S
H1752 C1745 0.961 . S
H1753 C1745 0.960 . S
H1754 C1746 0.930 . S
H1755 C1747 0.929 . S
H1756 C1764 0.929 . S
H1757 C1766 0.930 . S
H1758 C1768 0.930 . S
H1759 C1771 0.929 1_655 S
H1760 C1774 0.930 . S
H1761 C1776 0.960 . S
H1762 C1776 0.960 . S
H1763 C1776 0.960 . S
C1764 H1756 0.929 . S
C1764 C1765 1.377 . S
C1764 C1766 1.384 . S
C1765 C1764 1.377 . S
C1765 C1771 1.390 . S
C1766 H1757 0.930 . S
C1766 C1764 1.384 . S
C1766 C1767 1.372 . S
C1767 C1766 1.372 . S
C1767 C1768 1.400 . S
C1767 C1772 1.490 . S
C1768 H1758 0.930 . S
C1768 C1767 1.400 . S
C1768 C1771 1.386 . S
H1769 C1785 0.930 . S
H1770 C1786 0.931 . S
C1771 H1759 0.929 1_455 S
C1771 C1765 1.390 . S
C1771 C1768 1.386 . S
C1772 C1767 1.490 . S
C1772 C1774 1.395 . S
C1772 C1775 1.403 . S
H1773 C1779 0.930 . S
C1774 H1760 0.930 . S
C1774 C1772 1.395 . S
C1774 C1777 1.403 . S
C1775 C1772 1.403 . S
C1775 C1776 1.524 . S
C1775 C1779 1.400 . S
C1776 H1761 0.960 . S
C1776 H1762 0.960 . S
C1776 H1763 0.960 . S
C1776 C1775 1.524 . S
C1777 C1774 1.403 . S
C1777 C1778 1.392 . S
C1777 C1781 1.495 . S
C1778 C1777 1.392 . S
C1778 C1779 1.385 . S
C1778 C1780 1.478 . S
C1779 H1773 0.930 . S
C1779 C1775 1.400 . S
C1779 C1778 1.385 . S
C1780 C1778 1.478 . S
C1780 C1782 1.381 . S
C1780 C1786 1.383 . S
C1781 C1777 1.495 . S
C1781 H1787 0.959 . S
C1781 H1788 0.961 . S
C1781 H1789 0.960 . S
C1782 C1780 1.381 . S
C1782 C1783 1.394 . S
C1782 H1790 0.930 . S
C1783 C1782 1.394 . S
C1783 C1784 1.383 . S
C1783 H1791 0.929 . S
C1784 C1783 1.383 . S
C1784 C1785 1.377 . S
C1785 H1769 0.930 . S
C1785 C1784 1.377 . S
C1785 C1786 1.379 . S
C1786 H1770 0.931 . S
C1786 C1780 1.383 . S
C1786 C1785 1.379 . S
H1787 C1781 0.959 . S
H1788 C1781 0.961 . S
H1789 C1781 0.960 . S
H1790 C1782 0.930 . S
H1791 C1783 0.929 . S
H1792 C1800 0.929 . S
H1793 C1802 0.930 . S
H1794 C1804 0.930 . S
H1795 C1807 0.929 . S
H1796 C1810 0.930 . S
H1797 C1812 0.960 . S
H1798 C1812 0.960 . S
H1799 C1812 0.960 . S
C1800 H1792 0.929 . S
C1800 C1801 1.377 . S
C1800 C1802 1.384 . S
C1801 C1800 1.377 . S
C1801 C1807 1.390 . S
C1802 H1793 0.930 . S
C1802 C1800 1.384 . S
C1802 C1803 1.372 . S
C1803 C1802 1.372 . S
C1803 C1804 1.400 . S
C1803 C1808 1.490 . S
C1804 H1794 0.930 . S
C1804 C1803 1.400 . S
C1804 C1807 1.386 . S
H1805 C1821 0.930 . S
H1806 C1822 0.931 . S
C1807 H1795 0.929 . S
C1807 C1801 1.390 . S
C1807 C1804 1.386 . S
C1808 C1803 1.490 . S
C1808 C1810 1.395 . S
C1808 C1811 1.403 . S
H1809 C1815 0.930 . S
C1810 H1796 0.930 . S
C1810 C1808 1.395 . S
C1810 C1813 1.403 . S
C1811 C1808 1.403 . S
C1811 C1812 1.524 . S
C1811 C1815 1.400 . S
C1812 H1797 0.960 . S
C1812 H1798 0.960 . S
C1812 H1799 0.960 . S
C1812 C1811 1.524 . S
C1813 C1810 1.403 . S
C1813 C1814 1.392 . S
C1813 C1817 1.495 . S
C1814 C1813 1.392 . S
C1814 C1815 1.385 . S
C1814 C1816 1.478 . S
C1815 H1809 0.930 . S
C1815 C1811 1.400 . S
C1815 C1814 1.385 . S
C1816 C1814 1.478 . S
C1816 C1818 1.381 . S
C1816 C1822 1.383 . S
C1817 C1813 1.495 . S
C1817 H1823 0.959 . S
C1817 H1824 0.961 . S
C1817 H1825 0.960 . S
C1818 C1816 1.381 . S
C1818 C1819 1.394 . S
C1818 H1826 0.930 . S
C1819 C1818 1.394 . S
C1819 C1820 1.383 . S
C1819 H1827 0.929 . S
C1820 C1819 1.383 . S
C1820 C1821 1.377 . S
C1821 H1805 0.930 . S
C1821 C1820 1.377 . S
C1821 C1822 1.379 . S
C1822 H1806 0.931 . S
C1822 C1816 1.383 . S
C1822 C1821 1.379 . S
H1823 C1817 0.959 . S
H1824 C1817 0.961 . S
H1825 C1817 0.960 . S
H1826 C1818 0.930 . S
H1827 C1819 0.929 . S
H1828 C1836 0.929 . S
H1829 C1838 0.930 . S
H1830 C1840 0.930 1_455 S
H1831 C1843 0.929 1_455 S
H1832 C1846 0.930 . S
H1833 C1848 0.960 . S
H1834 C1848 0.960 1_554 S
H1835 C1848 0.960 . S
C1836 H1828 0.929 . S
C1836 C1837 1.377 . S
C1836 C1838 1.384 1_554 S
C1837 C1836 1.377 . S
C1837 C1843 1.390 1_554 S
C1838 H1829 0.930 . S
C1838 C1836 1.384 1_556 S
C1838 C1839 1.372 . S
C1839 C1838 1.372 . S
C1839 C1840 1.400 . S
C1839 C1844 1.490 . S
C1840 H1830 0.930 1_655 S
C1840 C1839 1.400 . S
C1840 C1843 1.386 . S
H1841 C1857 0.930 . S
H1842 C1858 0.931 . S
C1843 H1831 0.929 1_655 S
C1843 C1837 1.390 1_556 S
C1843 C1840 1.386 . S
C1844 C1839 1.490 . S
C1844 C1846 1.395 . S
C1844 C1847 1.403 1_655 S
H1845 C1851 0.930 . S
C1846 H1832 0.930 . S
C1846 C1844 1.395 . S
C1846 C1849 1.403 . S
C1847 C1844 1.403 1_455 S
C1847 C1848 1.524 . S
C1847 C1851 1.400 . S
C1848 H1833 0.960 . S
C1848 H1834 0.960 1_556 S
C1848 H1835 0.960 . S
C1848 C1847 1.524 . S
C1849 C1846 1.403 . S
C1849 C1850 1.392 . S
C1849 C1853 1.495 . S
C1850 C1849 1.392 . S
C1850 C1851 1.385 1_655 S
C1850 C1852 1.478 . S
C1851 H1845 0.930 . S
C1851 C1847 1.400 . S
C1851 C1850 1.385 1_455 S
C1852 C1850 1.478 . S
C1852 C1854 1.381 . S
C1852 C1858 1.383 1_655 S
C1853 C1849 1.495 . S
C1853 H1859 0.959 . S
C1853 H1860 0.961 . S
C1853 H1861 0.960 . S
C1854 C1852 1.381 . S
C1854 C1855 1.394 . S
C1854 H1862 0.930 . S
C1855 C1854 1.394 . S
C1855 C1856 1.383 . S
C1855 H1863 0.929 . S
C1856 C1855 1.383 . S
C1856 C1857 1.377 1_655 S
C1857 H1841 0.930 . S
C1857 C1856 1.377 1_455 S
C1857 C1858 1.379 . S
C1858 H1842 0.931 . S
C1858 C1852 1.383 1_455 S
C1858 C1857 1.379 . S
H1859 C1853 0.959 . S
H1860 C1853 0.961 . S
H1861 C1853 0.960 . S
H1862 C1854 0.930 . S
H1863 C1855 0.929 . S
H1864 C1872 0.929 . S
H1865 C1874 0.930 . S
H1866 C1876 0.930 . S
H1867 C1879 0.929 . S
H1868 C1882 0.930 . S
H1869 C1884 0.960 . S
H1870 C1884 0.960 . S
H1871 C1884 0.960 . S
C1872 H1864 0.929 . S
C1872 C1873 1.377 . S
C1872 C1874 1.384 . S
C1873 C1872 1.377 . S
C1873 C1879 1.390 . S
C1874 H1865 0.930 . S
C1874 C1872 1.384 . S
C1874 C1875 1.372 . S
C1875 C1874 1.372 . S
C1875 C1876 1.400 . S
C1875 C1880 1.490 . S
C1876 H1866 0.930 . S
C1876 C1875 1.400 . S
C1876 C1879 1.386 . S
H1877 C1893 0.930 . S
H1878 C1894 0.931 . S
C1879 H1867 0.929 . S
C1879 C1873 1.390 . S
C1879 C1876 1.386 . S
C1880 C1875 1.490 . S
C1880 C1882 1.395 . S
C1880 C1883 1.403 . S
H1881 C1887 0.930 . S
C1882 H1868 0.930 . S
C1882 C1880 1.395 . S
C1882 C1885 1.403 . S
C1883 C1880 1.403 . S
C1883 C1884 1.524 . S
C1883 C1887 1.400 . S
C1884 H1869 0.960 . S
C1884 H1870 0.960 . S
C1884 H1871 0.960 . S
C1884 C1883 1.524 . S
C1885 C1882 1.403 . S
C1885 C1886 1.392 . S
C1885 C1889 1.495 . S
C1886 C1885 1.392 . S
C1886 C1887 1.385 . S
C1886 C1888 1.478 . S
C1887 H1881 0.930 . S
C1887 C1883 1.400 . S
C1887 C1886 1.385 . S
C1888 C1886 1.478 . S
C1888 C1890 1.381 . S
C1888 C1894 1.383 . S
C1889 C1885 1.495 . S
C1889 H1895 0.959 . S
C1889 H1896 0.961 . S
C1889 H1897 0.960 . S
C1890 C1888 1.381 . S
C1890 C1891 1.394 . S
C1890 H1898 0.930 . S
C1891 C1890 1.394 . S
C1891 C1892 1.383 . S
C1891 H1899 0.929 . S
C1892 C1891 1.383 . S
C1892 C1893 1.377 . S
C1893 H1877 0.930 . S
C1893 C1892 1.377 . S
C1893 C1894 1.379 . S
C1894 H1878 0.931 . S
C1894 C1888 1.383 . S
C1894 C1893 1.379 . S
H1895 C1889 0.959 . S
H1896 C1889 0.961 . S
H1897 C1889 0.960 . S
H1898 C1890 0.930 . S
H1899 C1891 0.929 . S
H1900 C1908 0.929 1_655 S
H1901 C1910 0.931 . S
H1902 C1912 0.930 . S
H1903 C1915 0.929 . S
H1904 C1918 0.930 . S
H1905 C1920 0.960 . S
H1906 C1920 0.960 . S
H1907 C1920 0.960 . S
C1908 H1900 0.929 1_455 S
C1908 C1909 1.377 1_556 S
C1908 C1910 1.383 1_455 S
C1909 C1908 1.377 1_554 S
C1909 C1915 1.390 . S
C1910 H1901 0.931 . S
C1910 C1908 1.383 1_655 S
C1910 C1911 1.371 1_655 S
C1911 C1910 1.371 1_455 S
C1911 C1912 1.400 . S
C1911 C1916 1.490 . S
C1912 H1902 0.930 . S
C1912 C1911 1.400 . S
C1912 C1915 1.386 1_556 S
H1913 C1929 0.930 . S
H1914 C1930 0.931 . S
C1915 H1903 0.929 . S
C1915 C1909 1.390 . S
C1915 C1912 1.386 1_554 S
C1916 C1911 1.490 . S
C1916 C1918 1.395 1_455 S
C1916 C1919 1.403 . S
H1917 C1923 0.930 . S
C1918 H1904 0.930 . S
C1918 C1916 1.395 1_655 S
C1918 C1921 1.403 . S
C1919 C1916 1.403 . S
C1919 C1920 1.524 . S
C1919 C1923 1.400 . S
C1920 H1905 0.960 . S
C1920 H1906 0.960 . S
C1920 H1907 0.960 . S
C1920 C1919 1.524 . S
C1921 C1918 1.403 . S
C1921 C1922 1.392 1_655 S
C1921 C1925 1.495 . S
C1922 C1921 1.392 1_455 S
C1922 C1923 1.385 . S
C1922 C1924 1.478 . S
C1923 H1917 0.930 . S
C1923 C1919 1.400 . S
C1923 C1922 1.385 . S
C1924 C1922 1.478 . S
C1924 C1926 1.381 1_455 S
C1924 C1930 1.383 . S
C1925 C1921 1.495 . S
C1925 H1931 0.959 . S
C1925 H1932 0.961 . S
C1925 H1933 0.960 . S
C1926 C1924 1.381 1_655 S
C1926 C1927 1.394 . S
C1926 H1934 0.930 . S
C1927 C1926 1.394 . S
C1927 C1928 1.393 . S
C1927 H1935 0.929 . S
C1928 C1927 1.393 . S
C1928 C1929 1.365 1_655 S
C1929 H1913 0.930 . S
C1929 C1928 1.365 1_455 S
C1929 C1930 1.379 . S
C1930 H1914 0.931 . S
C1930 C1924 1.383 . S
C1930 C1929 1.379 . S
H1931 C1925 0.959 . S
H1932 C1925 0.961 . S
H1933 C1925 0.960 . S
H1934 C1926 0.930 . S
H1935 C1927 0.929 . S
H1936 C1944 0.929 . S
H1937 C1946 0.930 . S
H1938 C1948 0.930 . S
H1939 C1951 0.929 . S
H1940 C1954 0.930 . S
H1941 C1956 0.960 . S
H1942 C1956 0.960 . S
H1943 C1956 0.960 . S
C1944 H1936 0.929 . S
C1944 C1945 1.377 . S
C1944 C1946 1.384 . S
C1945 C1944 1.377 . S
C1945 C1951 1.390 . S
C1946 H1937 0.930 . S
C1946 C1944 1.384 . S
C1946 C1947 1.372 . S
C1947 C1946 1.372 . S
C1947 C1948 1.400 . S
C1947 C1952 1.490 . S
C1948 H1938 0.930 . S
C1948 C1947 1.400 . S
C1948 C1951 1.386 . S
H1949 C1965 0.930 . S
H1950 C1966 0.931 . S
C1951 H1939 0.929 . S
C1951 C1945 1.390 . S
C1951 C1948 1.386 . S
C1952 C1947 1.490 . S
C1952 C1954 1.395 . S
C1952 C1955 1.403 . S
H1953 C1959 0.930 . S
C1954 H1940 0.930 . S
C1954 C1952 1.395 . S
C1954 C1957 1.403 . S
C1955 C1952 1.403 . S
C1955 C1956 1.524 . S
C1955 C1959 1.400 . S
C1956 H1941 0.960 . S
C1956 H1942 0.960 . S
C1956 H1943 0.960 . S
C1956 C1955 1.524 . S
C1957 C1954 1.403 . S
C1957 C1958 1.392 . S
C1957 C1961 1.495 . S
C1958 C1957 1.392 . S
C1958 C1959 1.385 . S
C1958 C1960 1.478 . S
C1959 H1953 0.930 . S
C1959 C1955 1.400 . S
C1959 C1958 1.385 . S
C1960 C1958 1.478 . S
C1960 C1962 1.381 . S
C1960 C1966 1.383 . S
C1961 C1957 1.495 . S
C1961 H1967 0.959 . S
C1961 H1968 0.961 . S
C1961 H1969 0.960 . S
C1962 C1960 1.381 . S
C1962 C1963 1.394 . S
C1962 H1970 0.930 . S
C1963 C1962 1.394 . S
C1963 C1964 1.383 . S
C1963 H1971 0.929 . S
C1964 C1963 1.383 . S
C1964 C1965 1.377 . S
C1965 H1949 0.930 . S
C1965 C1964 1.377 . S
C1965 C1966 1.379 . S
C1966 H1950 0.931 . S
C1966 C1960 1.383 . S
C1966 C1965 1.379 . S
H1967 C1961 0.959 . S
H1968 C1961 0.961 . S
H1969 C1961 0.960 . S
H1970 C1962 0.930 . S
H1971 C1963 0.929 . S
H1972 C1980 0.924 1_556 S
H1973 C1982 0.930 . S
H1974 C1984 0.930 . S
H1975 C1987 0.929 . S
H1976 C1990 0.930 . S
H1977 C1992 0.960 . S
H1978 C1992 0.960 . S
H1979 C1992 0.960 . S
C1980 H1972 0.924 1_554 S
C1980 C1981 1.377 1_554 S
C1980 C1982 1.384 . S
C1981 C1980 1.377 1_556 S
C1981 C1987 1.390 . S
C1982 H1973 0.930 . S
C1982 C1980 1.384 . S
C1982 C1983 1.372 . S
C1983 C1982 1.372 . S
C1983 C1984 1.400 . S
C1983 C1988 1.490 . S
C1984 H1974 0.930 . S
C1984 C1983 1.400 . S
C1984 C1987 1.386 1_554 S
H1985 C2001 0.930 . S
H1986 C2002 0.931 . S
C1987 H1975 0.929 . S
C1987 C1981 1.390 . S
C1987 C1984 1.386 1_556 S
C1988 C1983 1.490 . S
C1988 C1990 1.395 . S
C1988 C1991 1.403 . S
H1989 C1995 0.930 . S
C1990 H1976 0.930 . S
C1990 C1988 1.395 . S
C1990 C1993 1.403 . S
C1991 C1988 1.403 . S
C1991 C1992 1.524 . S
C1991 C1995 1.400 . S
C1992 H1977 0.960 . S
C1992 H1978 0.960 . S
C1992 H1979 0.960 . S
C1992 C1991 1.524 . S
C1993 C1990 1.403 . S
C1993 C1994 1.392 . S
C1993 C1997 1.495 . S
C1994 C1993 1.392 . S
C1994 C1995 1.385 . S
C1994 C1996 1.478 . S
C1995 H1989 0.930 . S
C1995 C1991 1.400 . S
C1995 C1994 1.385 . S
C1996 C1994 1.478 . S
C1996 C1998 1.381 . S
C1996 C2002 1.383 . S
C1997 C1993 1.495 . S
C1997 H2003 0.959 . S
C1997 H2004 0.961 . S
C1997 H2005 0.960 . S
C1998 C1996 1.381 . S
C1998 C1999 1.394 . S
C1998 H2006 0.930 . S
C1999 C1998 1.394 . S
C1999 C2000 1.383 . S
C1999 H2007 0.929 . S
C2000 C1999 1.383 . S
C2000 C2001 1.377 . S
C2001 H1985 0.930 . S
C2001 C2000 1.377 . S
C2001 C2002 1.379 . S
C2002 H1986 0.931 . S
C2002 C1996 1.383 . S
C2002 C2001 1.379 . S
H2003 C1997 0.959 . S
H2004 C1997 0.961 . S
H2005 C1997 0.960 . S
H2006 C1998 0.930 . S
H2007 C1999 0.929 . S
H2008 C2016 0.929 . S
H2009 C2018 0.930 . S
H2010 C2020 0.930 . S
H2011 C2023 0.929 . S
H2012 C2026 0.930 . S
H2013 C2028 0.960 . S
H2014 C2028 0.960 . S
H2015 C2028 0.960 . S
C2016 H2008 0.929 . S
C2016 C2017 1.377 . S
C2016 C2018 1.384 . S
C2017 C2016 1.377 . S
C2017 C2023 1.390 . S
C2018 H2009 0.930 . S
C2018 C2016 1.384 . S
C2018 C2019 1.372 . S
C2019 C2018 1.372 . S
C2019 C2020 1.400 . S
C2019 C2024 1.490 . S
C2020 H2010 0.930 . S
C2020 C2019 1.400 . S
C2020 C2023 1.386 . S
H2021 C2037 0.930 . S
H2022 C2038 0.931 . S
C2023 H2011 0.929 . S
C2023 C2017 1.390 . S
C2023 C2020 1.386 . S
C2024 C2019 1.490 . S
C2024 C2026 1.395 . S
C2024 C2027 1.403 . S
H2025 C2031 0.930 . S
C2026 H2012 0.930 . S
C2026 C2024 1.395 . S
C2026 C2029 1.403 . S
C2027 C2024 1.403 . S
C2027 C2028 1.524 . S
C2027 C2031 1.400 . S
C2028 H2013 0.960 . S
C2028 H2014 0.960 . S
C2028 H2015 0.960 . S
C2028 C2027 1.524 . S
C2029 C2026 1.403 . S
C2029 C2030 1.392 . S
C2029 C2033 1.495 . S
C2030 C2029 1.392 . S
C2030 C2031 1.385 . S
C2030 C2032 1.478 . S
C2031 H2025 0.930 . S
C2031 C2027 1.400 . S
C2031 C2030 1.385 . S
C2032 C2030 1.478 . S
C2032 C2034 1.381 . S
C2032 C2038 1.383 . S
C2033 C2029 1.495 . S
C2033 H2039 0.959 . S
C2033 H2040 0.961 . S
C2033 H2041 0.960 . S
C2034 C2032 1.381 . S
C2034 C2035 1.394 . S
C2034 H2042 0.930 . S
C2035 C2034 1.394 . S
C2035 C2036 1.383 . S
C2035 H2043 0.929 . S
C2036 C2035 1.383 . S
C2036 C2037 1.377 . S
C2037 H2021 0.930 . S
C2037 C2036 1.377 . S
C2037 C2038 1.379 . S
C2038 H2022 0.931 . S
C2038 C2032 1.383 . S
C2038 C2037 1.379 . S
H2039 C2033 0.959 . S
H2040 C2033 0.961 . S
H2041 C2033 0.960 . S
H2042 C2034 0.930 . S
H2043 C2035 0.929 . S
H2044 C2052 0.929 . S
H2045 C2054 0.930 . S
H2046 C2056 0.930 . S
H2047 C2059 0.929 . S
H2048 C2062 0.930 . S
H2049 C2064 0.960 . S
H2050 C2064 0.960 . S
H2051 C2064 0.960 . S
C2052 H2044 0.929 . S
C2052 C2053 1.377 . S
C2052 C2054 1.384 . S
C2053 C2052 1.377 . S
C2053 C2059 1.390 . S
C2054 H2045 0.930 . S
C2054 C2052 1.384 . S
C2054 C2055 1.372 . S
C2055 C2054 1.372 . S
C2055 C2056 1.400 . S
C2055 C2060 1.490 . S
C2056 H2046 0.930 . S
C2056 C2055 1.400 . S
C2056 C2059 1.386 . S
H2057 C2073 0.930 . S
H2058 C2074 0.931 . S
C2059 H2047 0.929 . S
C2059 C2053 1.390 . S
C2059 C2056 1.386 . S
C2060 C2055 1.490 . S
C2060 C2062 1.395 . S
C2060 C2063 1.403 . S
H2061 C2067 0.930 . S
C2062 H2048 0.930 . S
C2062 C2060 1.395 . S
C2062 C2065 1.403 . S
C2063 C2060 1.403 . S
C2063 C2064 1.524 . S
C2063 C2067 1.400 . S
C2064 H2049 0.960 . S
C2064 H2050 0.960 . S
C2064 H2051 0.960 . S
C2064 C2063 1.524 . S
C2065 C2062 1.403 . S
C2065 C2066 1.392 . S
C2065 C2069 1.495 . S
C2066 C2065 1.392 . S
C2066 C2067 1.385 . S
C2066 C2068 1.478 . S
C2067 H2061 0.930 . S
C2067 C2063 1.400 . S
C2067 C2066 1.385 . S
C2068 C2066 1.478 . S
C2068 C2070 1.381 . S
C2068 C2074 1.383 . S
C2069 C2065 1.495 . S
C2069 H2075 0.959 . S
C2069 H2076 0.961 . S
C2069 H2077 0.960 . S
C2070 C2068 1.381 . S
C2070 C2071 1.394 . S
C2070 H2078 0.930 . S
C2071 C2070 1.394 . S
C2071 C2072 1.383 . S
C2071 H2079 0.929 . S
C2072 C2071 1.383 . S
C2072 C2073 1.377 . S
C2073 H2057 0.930 . S
C2073 C2072 1.377 . S
C2073 C2074 1.379 . S
C2074 H2058 0.931 . S
C2074 C2068 1.383 . S
C2074 C2073 1.379 . S
H2075 C2069 0.959 . S
H2076 C2069 0.961 . S
H2077 C2069 0.960 . S
H2078 C2070 0.930 . S
H2079 C2071 0.929 . S
H2080 C2088 0.929 . S
H2081 C2090 0.930 . S
H2082 C2092 0.930 . S
H2083 C2095 0.929 . S
H2084 C2098 0.930 . S
H2085 C2100 0.960 . S
H2086 C2100 0.960 . S
H2087 C2100 0.960 . S
C2088 H2080 0.929 . S
C2088 C2089 1.377 . S
C2088 C2090 1.384 . S
C2089 C2088 1.377 . S
C2089 C2095 1.390 . S
C2090 H2081 0.930 . S
C2090 C2088 1.384 . S
C2090 C2091 1.372 . S
C2091 C2090 1.372 . S
C2091 C2092 1.400 . S
C2091 C2096 1.490 . S
C2092 H2082 0.930 . S
C2092 C2091 1.400 . S
C2092 C2095 1.386 . S
H2093 C2109 0.930 . S
H2094 C2110 0.931 . S
C2095 H2083 0.929 . S
C2095 C2089 1.390 . S
C2095 C2092 1.386 . S
C2096 C2091 1.490 . S
C2096 C2098 1.395 . S
C2096 C2099 1.403 . S
H2097 C2103 0.930 . S
C2098 H2084 0.930 . S
C2098 C2096 1.395 . S
C2098 C2101 1.403 . S
C2099 C2096 1.403 . S
C2099 C2100 1.524 . S
C2099 C2103 1.400 . S
C2100 H2085 0.960 . S
C2100 H2086 0.960 . S
C2100 H2087 0.960 . S
C2100 C2099 1.524 . S
C2101 C2098 1.403 . S
C2101 C2102 1.392 . S
C2101 C2105 1.495 . S
C2102 C2101 1.392 . S
C2102 C2103 1.385 . S
C2102 C2104 1.478 . S
C2103 H2097 0.930 . S
C2103 C2099 1.400 . S
C2103 C2102 1.385 . S
C2104 C2102 1.478 . S
C2104 C2106 1.381 . S
C2104 C2110 1.383 . S
C2105 C2101 1.495 . S
C2105 H2111 0.959 . S
C2105 H2112 0.961 . S
C2105 H2113 0.960 . S
C2106 C2104 1.381 . S
C2106 C2107 1.394 . S
C2106 H2114 0.930 . S
C2107 C2106 1.394 . S
C2107 C2108 1.383 . S
C2107 H2115 0.929 . S
C2108 C2107 1.383 . S
C2108 C2109 1.377 . S
C2109 H2093 0.930 . S
C2109 C2108 1.377 . S
C2109 C2110 1.379 . S
C2110 H2094 0.931 . S
C2110 C2104 1.383 . S
C2110 C2109 1.379 . S
H2111 C2105 0.959 . S
H2112 C2105 0.961 . S
H2113 C2105 0.960 . S
H2114 C2106 0.930 . S
H2115 C2107 0.929 . S
H2116 C2124 0.929 . S
H2117 C2126 0.930 . S
H2118 C2128 0.930 . S
H2119 C2131 0.929 . S
H2120 C2134 0.930 . S
H2121 C2136 0.960 . S
H2122 C2136 0.960 . S
H2123 C2136 0.960 . S
C2124 H2116 0.929 . S
C2124 C2125 1.377 . S
C2124 C2126 1.384 . S
C2125 C2124 1.377 . S
C2125 C2131 1.390 . S
C2126 H2117 0.930 . S
C2126 C2124 1.384 . S
C2126 C2127 1.372 . S
C2127 C2126 1.372 . S
C2127 C2128 1.400 . S
C2127 C2132 1.490 . S
C2128 H2118 0.930 . S
C2128 C2127 1.400 . S
C2128 C2131 1.386 . S
H2129 C2145 0.930 . S
H2130 C2146 0.931 . S
C2131 H2119 0.929 . S
C2131 C2125 1.390 . S
C2131 C2128 1.386 . S
C2132 C2127 1.490 . S
C2132 C2134 1.395 . S
C2132 C2135 1.403 . S
H2133 C2139 0.930 . S
C2134 H2120 0.930 . S
C2134 C2132 1.395 . S
C2134 C2137 1.403 . S
C2135 C2132 1.403 . S
C2135 C2136 1.524 . S
C2135 C2139 1.400 . S
C2136 H2121 0.960 . S
C2136 H2122 0.960 . S
C2136 H2123 0.960 . S
C2136 C2135 1.524 . S
C2137 C2134 1.403 . S
C2137 C2138 1.392 . S
C2137 C2141 1.495 . S
C2138 C2137 1.392 . S
C2138 C2139 1.385 . S
C2138 C2140 1.478 . S
C2139 H2133 0.930 . S
C2139 C2135 1.400 . S
C2139 C2138 1.385 . S
C2140 C2138 1.478 . S
C2140 C2142 1.381 . S
C2140 C2146 1.383 . S
C2141 C2137 1.495 . S
C2141 H2147 0.959 . S
C2141 H2148 0.961 . S
C2141 H2149 0.960 . S
C2142 C2140 1.381 . S
C2142 C2143 1.394 . S
C2142 H2150 0.930 . S
C2143 C2142 1.394 . S
C2143 C2144 1.383 . S
C2143 H2151 0.929 . S
C2144 C2143 1.383 . S
C2144 C2145 1.377 . S
C2145 H2129 0.930 . S
C2145 C2144 1.377 . S
C2145 C2146 1.379 . S
C2146 H2130 0.931 . S
C2146 C2140 1.383 . S
C2146 C2145 1.379 . S
H2147 C2141 0.959 . S
H2148 C2141 0.961 . S
H2149 C2141 0.960 . S
H2150 C2142 0.930 . S
H2151 C2143 0.929 . S
H2152 C2160 0.929 . S
H2153 C2162 0.930 . S
H2154 C2164 0.930 . S
H2155 C2167 0.929 . S
H2156 C2170 0.930 . S
H2157 C2172 0.960 . S
H2158 C2172 0.960 . S
H2159 C2172 0.960 . S
C2160 H2152 0.929 . S
C2160 C2161 1.377 . S
C2160 C2162 1.384 . S
C2161 C2160 1.377 . S
C2161 C2167 1.390 . S
C2162 H2153 0.930 . S
C2162 C2160 1.384 . S
C2162 C2163 1.372 . S
C2163 C2162 1.372 . S
C2163 C2164 1.400 . S
C2163 C2168 1.490 . S
C2164 H2154 0.930 . S
C2164 C2163 1.400 . S
C2164 C2167 1.386 . S
H2165 C2181 0.930 . S
H2166 C2182 0.931 . S
C2167 H2155 0.929 . S
C2167 C2161 1.390 . S
C2167 C2164 1.386 . S
C2168 C2163 1.490 . S
C2168 C2170 1.395 . S
C2168 C2171 1.403 . S
H2169 C2175 0.930 . S
C2170 H2156 0.930 . S
C2170 C2168 1.395 . S
C2170 C2173 1.403 . S
C2171 C2168 1.403 . S
C2171 C2172 1.524 . S
C2171 C2175 1.400 . S
C2172 H2157 0.960 . S
C2172 H2158 0.960 . S
C2172 H2159 0.960 . S
C2172 C2171 1.524 . S
C2173 C2170 1.403 . S
C2173 C2174 1.392 . S
C2173 C2177 1.495 . S
C2174 C2173 1.392 . S
C2174 C2175 1.385 . S
C2174 C2176 1.478 . S
C2175 H2169 0.930 . S
C2175 C2171 1.400 . S
C2175 C2174 1.385 . S
C2176 C2174 1.478 . S
C2176 C2178 1.381 . S
C2176 C2182 1.383 . S
C2177 C2173 1.495 . S
C2177 H2183 0.959 . S
C2177 H2184 0.961 . S
C2177 H2185 0.960 . S
C2178 C2176 1.381 . S
C2178 C2179 1.394 . S
C2178 H2186 0.930 . S
C2179 C2178 1.394 . S
C2179 C2180 1.383 . S
C2179 H2187 0.929 . S
C2180 C2179 1.383 . S
C2180 C2181 1.377 . S
C2181 H2165 0.930 . S
C2181 C2180 1.377 . S
C2181 C2182 1.379 . S
C2182 H2166 0.931 . S
C2182 C2176 1.383 . S
C2182 C2181 1.379 . S
H2183 C2177 0.959 . S
H2184 C2177 0.961 . S
H2185 C2177 0.960 . S
H2186 C2178 0.930 . S
H2187 C2179 0.929 . S
H2188 C2196 0.929 . S
H2189 C2198 0.930 . S
H2190 C2200 0.930 . S
H2191 C2203 0.929 . S
H2192 C2206 0.930 . S
H2193 C2208 0.960 . S
H2194 C2208 0.960 . S
H2195 C2208 0.960 . S
C2196 H2188 0.929 . S
C2196 C2197 1.377 . S
C2196 C2198 1.384 . S
C2197 C2196 1.377 . S
C2197 C2203 1.390 . S
C2198 H2189 0.930 . S
C2198 C2196 1.384 . S
C2198 C2199 1.372 . S
C2199 C2198 1.372 . S
C2199 C2200 1.400 . S
C2199 C2204 1.490 . S
C2200 H2190 0.930 . S
C2200 C2199 1.400 . S
C2200 C2203 1.386 . S
H2201 C2217 0.930 . S
H2202 C2218 0.931 . S
C2203 H2191 0.929 . S
C2203 C2197 1.390 . S
C2203 C2200 1.386 . S
C2204 C2199 1.490 . S
C2204 C2206 1.395 . S
C2204 C2207 1.403 . S
H2205 C2211 0.930 . S
C2206 H2192 0.930 . S
C2206 C2204 1.395 . S
C2206 C2209 1.403 . S
C2207 C2204 1.403 . S
C2207 C2208 1.524 . S
C2207 C2211 1.400 . S
C2208 H2193 0.960 . S
C2208 H2194 0.960 . S
C2208 H2195 0.960 . S
C2208 C2207 1.524 . S
C2209 C2206 1.403 . S
C2209 C2210 1.392 . S
C2209 C2213 1.495 . S
C2210 C2209 1.392 . S
C2210 C2211 1.385 . S
C2210 C2212 1.478 . S
C2211 H2205 0.930 . S
C2211 C2207 1.400 . S
C2211 C2210 1.385 . S
C2212 C2210 1.478 . S
C2212 C2214 1.381 . S
C2212 C2218 1.383 . S
C2213 C2209 1.495 . S
C2213 H2219 0.959 . S
C2213 H2220 0.961 . S
C2213 H2221 0.960 . S
C2214 C2212 1.381 . S
C2214 C2215 1.394 . S
C2214 H2222 0.930 . S
C2215 C2214 1.394 . S
C2215 C2216 1.383 . S
C2215 H2223 0.929 . S
C2216 C2215 1.383 . S
C2216 C2217 1.377 . S
C2217 H2201 0.930 . S
C2217 C2216 1.377 . S
C2217 C2218 1.379 . S
C2218 H2202 0.931 . S
C2218 C2212 1.383 . S
C2218 C2217 1.379 . S
H2219 C2213 0.959 . S
H2220 C2213 0.961 . S
H2221 C2213 0.960 . S
H2222 C2214 0.930 . S
H2223 C2215 0.929 . S
H2224 C2232 0.929 . S
H2225 C2234 0.930 . S
H2226 C2236 0.930 . S
H2227 C2239 0.929 . S
H2228 C2242 0.930 . S
H2229 C2244 0.960 . S
H2230 C2244 0.960 . S
H2231 C2244 0.960 . S
C2232 H2224 0.929 . S
C2232 C2233 1.377 . S
C2232 C2234 1.384 . S
C2233 C2232 1.377 . S
C2233 C2239 1.390 . S
C2234 H2225 0.930 . S
C2234 C2232 1.384 . S
C2234 C2235 1.372 . S
C2235 C2234 1.372 . S
C2235 C2236 1.400 . S
C2235 C2240 1.490 . S
C2236 H2226 0.930 . S
C2236 C2235 1.400 . S
C2236 C2239 1.386 . S
H2237 C2253 0.930 . S
H2238 C2254 0.931 . S
C2239 H2227 0.929 . S
C2239 C2233 1.390 . S
C2239 C2236 1.386 . S
C2240 C2235 1.490 . S
C2240 C2242 1.395 1_556 S
C2240 C2243 1.403 . S
H2241 C2247 0.930 . S
C2242 H2228 0.930 . S
C2242 C2240 1.395 1_554 S
C2242 C2245 1.403 . S
C2243 C2240 1.403 . S
C2243 C2244 1.524 . S
C2243 C2247 1.400 . S
C2244 H2229 0.960 . S
C2244 H2230 0.960 . S
C2244 H2231 0.960 . S
C2244 C2243 1.524 . S
C2245 C2242 1.403 . S
C2245 C2246 1.392 . S
C2245 C2249 1.495 . S
C2246 C2245 1.392 . S
C2246 C2247 1.385 1_554 S
C2246 C2248 1.478 . S
C2247 H2241 0.930 . S
C2247 C2243 1.400 . S
C2247 C2246 1.385 1_556 S
C2248 C2246 1.478 . S
C2248 C2250 1.381 . S
C2248 C2254 1.383 . S
C2249 C2245 1.495 . S
C2249 H2255 0.959 . S
C2249 H2256 0.961 . S
C2249 H2257 0.960 . S
C2250 C2248 1.381 . S
C2250 C2251 1.394 . S
C2250 H2258 0.930 . S
C2251 C2250 1.394 . S
C2251 C2252 1.383 . S
C2251 H2259 0.929 . S
C2252 C2251 1.383 . S
C2252 C2253 1.377 . S
C2253 H2237 0.930 . S
C2253 C2252 1.377 . S
C2253 C2254 1.379 . S
C2254 H2238 0.931 . S
C2254 C2248 1.383 . S
C2254 C2253 1.379 . S
H2255 C2249 0.959 . S
H2256 C2249 0.961 . S
H2257 C2249 0.960 . S
H2258 C2250 0.930 . S
H2259 C2251 0.929 . S
H2260 C2268 0.929 . S
H2261 C2270 0.930 . S
H2262 C2272 0.930 . S
H2263 C2275 0.929 . S
H2264 C2278 0.930 . S
H2265 C2280 0.960 . S
H2266 C2280 0.960 . S
H2267 C2280 0.960 . S
C2268 H2260 0.929 . S
C2268 C2269 1.377 . S
C2268 C2270 1.384 . S
C2269 C2268 1.377 . S
C2269 C2275 1.390 . S
C2270 H2261 0.930 . S
C2270 C2268 1.384 . S
C2270 C2271 1.372 . S
C2271 C2270 1.372 . S
C2271 C2272 1.400 . S
C2271 C2276 1.490 . S
C2272 H2262 0.930 . S
C2272 C2271 1.400 . S
C2272 C2275 1.386 . S
H2273 C2289 0.930 . S
H2274 C2290 0.931 . S
C2275 H2263 0.929 . S
C2275 C2269 1.390 . S
C2275 C2272 1.386 . S
C2276 C2271 1.490 . S
C2276 C2278 1.395 . S
C2276 C2279 1.403 . S
H2277 C2283 0.930 . S
C2278 H2264 0.930 . S
C2278 C2276 1.395 . S
C2278 C2281 1.403 . S
C2279 C2276 1.403 . S
C2279 C2280 1.524 . S
C2279 C2283 1.400 . S
C2280 H2265 0.960 . S
C2280 H2266 0.960 . S
C2280 H2267 0.960 . S
C2280 C2279 1.524 . S
C2281 C2278 1.403 . S
C2281 C2282 1.392 . S
C2281 C2285 1.495 . S
C2282 C2281 1.392 . S
C2282 C2283 1.385 . S
C2282 C2284 1.478 . S
C2283 H2277 0.930 . S
C2283 C2279 1.400 . S
C2283 C2282 1.385 . S
C2284 C2282 1.478 . S
C2284 C2286 1.381 . S
C2284 C2290 1.383 . S
C2285 C2281 1.495 . S
C2285 H2291 0.959 . S
C2285 H2292 0.961 . S
C2285 H2293 0.960 . S
C2286 C2284 1.381 . S
C2286 C2287 1.394 . S
C2286 H2294 0.930 . S
C2287 C2286 1.394 . S
C2287 C2288 1.383 . S
C2287 H2295 0.929 . S
C2288 C2287 1.383 . S
C2288 C2289 1.377 . S
C2289 H2273 0.930 . S
C2289 C2288 1.377 . S
C2289 C2290 1.379 . S
C2290 H2274 0.931 . S
C2290 C2284 1.383 . S
C2290 C2289 1.379 . S
H2291 C2285 0.959 . S
H2292 C2285 0.961 . S
H2293 C2285 0.960 . S
H2294 C2286 0.930 . S
H2295 C2287 0.929 . S
H2296 C2304 0.929 . S
H2297 C2306 0.930 . S
H2298 C2308 0.930 . S
H2299 C2311 0.929 . S
H2300 C2314 0.930 . S
H2301 C2316 0.960 . S
H2302 C2316 0.960 . S
H2303 C2316 0.960 . S
C2304 H2296 0.929 . S
C2304 C2305 1.377 . S
C2304 C2306 1.384 . S
C2305 C2304 1.377 . S
C2305 C2311 1.390 . S
C2306 H2297 0.930 . S
C2306 C2304 1.384 . S
C2306 C2307 1.372 . S
C2307 C2306 1.372 . S
C2307 C2308 1.400 . S
C2307 C2312 1.490 . S
C2308 H2298 0.930 . S
C2308 C2307 1.400 . S
C2308 C2311 1.386 . S
H2309 C2325 0.930 . S
H2310 C2326 0.931 . S
C2311 H2299 0.929 . S
C2311 C2305 1.390 . S
C2311 C2308 1.386 . S
C2312 C2307 1.490 . S
C2312 C2314 1.395 . S
C2312 C2315 1.403 . S
H2313 C2319 0.930 . S
C2314 H2300 0.930 . S
C2314 C2312 1.395 . S
C2314 C2317 1.403 . S
C2315 C2312 1.403 . S
C2315 C2316 1.524 . S
C2315 C2319 1.400 . S
C2316 H2301 0.960 . S
C2316 H2302 0.960 . S
C2316 H2303 0.960 . S
C2316 C2315 1.524 . S
C2317 C2314 1.403 . S
C2317 C2318 1.392 . S
C2317 C2321 1.495 . S
C2318 C2317 1.392 . S
C2318 C2319 1.385 . S
C2318 C2320 1.478 . S
C2319 H2313 0.930 . S
C2319 C2315 1.400 . S
C2319 C2318 1.385 . S
C2320 C2318 1.478 . S
C2320 C2322 1.381 . S
C2320 C2326 1.383 . S
C2321 C2317 1.495 . S
C2321 H2327 0.959 1_554 S
C2321 H2328 0.961 . S
C2321 H2329 0.960 . S
C2322 C2320 1.381 . S
C2322 C2323 1.394 . S
C2322 H2330 0.930 . S
C2323 C2322 1.394 . S
C2323 C2324 1.383 . S
C2323 H2331 0.929 . S
C2324 C2323 1.383 . S
C2324 C2325 1.377 . S
C2325 H2309 0.930 . S
C2325 C2324 1.377 . S
C2325 C2326 1.379 . S
C2326 H2310 0.931 . S
C2326 C2320 1.383 . S
C2326 C2325 1.379 . S
H2327 C2321 0.959 1_556 S
H2328 C2321 0.961 . S
H2329 C2321 0.960 . S
H2330 C2322 0.930 . S
H2331 C2323 0.929 . S
H2332 C2340 0.929 . S
H2333 C2342 0.930 . S
H2334 C2344 0.930 1_545 S
H2335 C2347 0.929 . S
H2336 C2350 0.930 . S
H2337 C2352 0.960 . S
H2338 C2352 0.960 . S
H2339 C2352 0.960 1_545 S
C2340 H2332 0.929 . S
C2340 C2341 1.377 . S
C2340 C2342 1.384 . S
C2341 C2340 1.377 . S
C2341 C2347 1.390 1_565 S
C2342 H2333 0.930 . S
C2342 C2340 1.384 . S
C2342 C2343 1.372 . S
C2343 C2342 1.372 . S
C2343 C2344 1.400 . S
C2343 C2348 1.490 . S
C2344 H2334 0.930 1_565 S
C2344 C2343 1.400 . S
C2344 C2347 1.386 1_565 S
H2345 C2361 0.930 . S
H2346 C2362 0.931 . S
C2347 H2335 0.929 . S
C2347 C2341 1.390 1_545 S
C2347 C2344 1.386 1_545 S
C2348 C2343 1.490 . S
C2348 C2350 1.395 . S
C2348 C2351 1.403 . S
H2349 C2355 0.930 . S
C2350 H2336 0.930 . S
C2350 C2348 1.395 . S
C2350 C2353 1.403 . S
C2351 C2348 1.403 . S
C2351 C2352 1.524 . S
C2351 C2355 1.400 . S
C2352 H2337 0.960 . S
C2352 H2338 0.960 . S
C2352 H2339 0.960 1_565 S
C2352 C2351 1.524 . S
C2353 C2350 1.403 . S
C2353 C2354 1.392 . S
C2353 C2357 1.495 1_554 S
C2354 C2353 1.392 . S
C2354 C2355 1.385 . S
C2354 C2356 1.478 . S
C2355 H2349 0.930 . S
C2355 C2351 1.400 . S
C2355 C2354 1.385 . S
C2356 C2354 1.478 . S
C2356 C2358 1.381 . S
C2356 C2362 1.383 1_554 S
C2357 C2353 1.495 1_556 S
C2357 H2363 0.959 . S
C2357 H2364 0.961 . S
C2357 H2365 0.960 1_556 S
C2358 C2356 1.381 . S
C2358 C2359 1.394 . S
C2358 H2366 0.930 . S
C2359 C2358 1.394 . S
C2359 C2360 1.416 . S
C2359 H2367 0.929 . S
C2360 C2359 1.416 . S
C2360 C2361 1.355 1_554 S
C2361 H2345 0.930 . S
C2361 C2360 1.355 1_556 S
C2361 C2362 1.379 . S
C2362 H2346 0.931 . S
C2362 C2356 1.383 1_556 S
C2362 C2361 1.379 . S
H2363 C2357 0.959 . S
H2364 C2357 0.961 . S
H2365 C2357 0.960 1_554 S
H2366 C2358 0.930 . S
H2367 C2359 0.929 . S
C668 C210 1.703 . S
C649 C73 1.704 . S
C704 C258 1.305 . S
C685 C82 1.337 . S
C721 C100 1.831 . S
C740 C294 1.745 1_556 S
C776 C330 1.354 . S
C757 C56 1.394 . S
C812 C356 1.306 . S
C793 C134 1.292 . S
C848 C392 1.775 . S
C829 C165 1.784 . S
C865 C147 1.072 . S
C884 C427 1.130 . S
C920 C464 1.992 . S
C901 C125 2.002 . S
C937 C151 1.254 . S
C956 C498 1.262 . S
C992 C546 1.489 . S
C973 C121 1.502 . S
C1009 C139 1.728 . S
C1028 C499 1.724 . S
C1064 C536 1.441 . S
C1045 C164 1.440 . S
C1081 C95 1.271 . S
C1100 C582 1.307 . S
C1117 C61 1.571 . S
C1136 C571 1.578 . S
C1153 C74 1.303 . S
C1172 C572 1.291 . S
C1189 C86 1.924 . S
C1208 C570 1.894 . S
C1225 C47 1.238 . S
C1244 C318 1.228 . S
C1261 C186 1.128 . S
C1280 C319 1.177 . S
C1316 C222 1.649 . S
C1297 C204 1.677 . S
C1352 C247 1.924 . S
C1333 C112 1.932 . S
C1369 C60 1.526 1_545 S
C1388 C354 1.517 . S
C1424 C462 1.329 . S
C1405 C152 1.317 . S
C1460 C355 2.014 . S
C1441 C126 2.017 . S
C1496 C428 1.353 . S
C1477 C160 1.332 . S
C1532 C426 1.682 . S
C1513 C190 1.703 . S
C1549 C199 1.343 . S
C1568 C474 1.355 . S
C1585 C113 1.831 . S
C1604 C366 1.747 . S
C1640 C402 1.372 . S
C1621 C173 1.391 . S
C1657 C43 1.286 . S
C1676 C284 1.271 . S
C1712 C320 1.783 . S
C1693 C9 1.788 . S
C1748 C211 1.129 . S
C1729 C17 1.085 . S
C1784 C248 1.978 . S
C1765 C34 2.001 1_455 S
C1801 C21 1.251 . S
C1820 C534 1.226 . S
C1837 C30 1.510 . S
C1856 C510 1.469 . S
C1873 C48 1.724 . S
C1892 C535 1.725 . S
C1909 C8 1.440 . S
C1928 C500 1.439 . S
C1964 C618 1.313 . S
C1945 C108 1.270 . S
C2000 C607 1.570 . S
C1981 C178 1.570 . S
C2036 C608 1.287 . S
C2017 C191 1.304 . S
C2053 C203 1.952 . S
C2072 C606 1.896 . S
C2089 C138 1.242 . S
C2108 C390 1.249 . S
C2144 C391 1.177 . S
C2125 C69 1.128 . S
C2180 C438 1.650 . S
C2161 C87 1.676 . S
C2216 C463 1.931 . S
C2197 C99 1.934 . S
C2233 C177 1.526 . S
C2252 C282 1.516 . S
C2288 C246 1.310 . S
C2269 C22 1.322 . S
C2305 C35 2.016 . S
C2324 C283 2.015 . S
C2360 C212 1.339 1_554 S
C2341 C4 1.335 . S
