# Generated by pormake.
# Topology ana-f, (3,3)-cn, num edge types: 1
# Building blocks:
#     Node 0, Type 0, BuildingBlock: WUSLED_clean_sbu_0, # of connection points: 3
#     Node 1, Type 0, BuildingBlock: WUSLED_clean_sbu_0, # of connection points: 3
#     Node 2, Type 0, BuildingBlock: WUSLED_clean_sbu_0, # of connection points: 3
#     Node 3, Type 0, BuildingBlock: WUSLED_clean_sbu_0, # of connection points: 3
#     Node 4, Type 0, BuildingBlock: WUSLED_clean_sbu_0, # of connection points: 3
#     Node 5, Type 0, BuildingBlock: WUSLED_clean_sbu_0, # of connection points: 3
#     Node 6, Type 0, BuildingBlock: WUSLED_clean_sbu_0, # of connection points: 3
#     Node 7, Type 0, BuildingBlock: WUSLED_clean_sbu_0, # of connection points: 3
#     Node 8, Type 0, BuildingBlock: WUSLED_clean_sbu_0, # of connection points: 3
#     Node 9, Type 0, BuildingBlock: WUSLED_clean_sbu_0, # of connection points: 3
#     Node 10, Type 0, BuildingBlock: WUSLED_clean_sbu_0, # of connection points: 3
#     Node 11, Type 0, BuildingBlock: WUSLED_clean_sbu_0, # of connection points: 3
#     Node 12, Type 0, BuildingBlock: WUSLED_clean_sbu_0, # of connection points: 3
#     Node 13, Type 0, BuildingBlock: WUSLED_clean_sbu_0, # of connection points: 3
#     Node 14, Type 0, BuildingBlock: WUSLED_clean_sbu_0, # of connection points: 3
#     Node 15, Type 0, BuildingBlock: WUSLED_clean_sbu_0, # of connection points: 3
#     Node 16, Type 0, BuildingBlock: WUSLED_clean_sbu_0, # of connection points: 3
#     Node 17, Type 0, BuildingBlock: WUSLED_clean_sbu_0, # of connection points: 3
#     Node 18, Type 0, BuildingBlock: WUSLED_clean_sbu_0, # of connection points: 3
#     Node 19, Type 0, BuildingBlock: WUSLED_clean_sbu_0, # of connection points: 3
#     Node 20, Type 0, BuildingBlock: WUSLED_clean_sbu_0, # of connection points: 3
#     Node 21, Type 0, BuildingBlock: WUSLED_clean_sbu_0, # of connection points: 3
#     Node 22, Type 0, BuildingBlock: WUSLED_clean_sbu_0, # of connection points: 3
#     Node 23, Type 0, BuildingBlock: WUSLED_clean_sbu_0, # of connection points: 3
#     Node 24, Type 0, BuildingBlock: WUSLED_clean_sbu_0, # of connection points: 3
#     Node 25, Type 0, BuildingBlock: WUSLED_clean_sbu_0, # of connection points: 3
#     Node 26, Type 0, BuildingBlock: WUSLED_clean_sbu_0, # of connection points: 3
#     Node 27, Type 0, BuildingBlock: WUSLED_clean_sbu_0, # of connection points: 3
#     Node 28, Type 0, BuildingBlock: WUSLED_clean_sbu_0, # of connection points: 3
#     Node 29, Type 0, BuildingBlock: WUSLED_clean_sbu_0, # of connection points: 3
#     Node 30, Type 0, BuildingBlock: WUSLED_clean_sbu_0, # of connection points: 3
#     Node 31, Type 0, BuildingBlock: WUSLED_clean_sbu_0, # of connection points: 3
#     Node 32, Type 0, BuildingBlock: WUSLED_clean_sbu_0, # of connection points: 3
#     Node 33, Type 0, BuildingBlock: WUSLED_clean_sbu_0, # of connection points: 3
#     Node 34, Type 0, BuildingBlock: WUSLED_clean_sbu_0, # of connection points: 3
#     Node 35, Type 0, BuildingBlock: WUSLED_clean_sbu_0, # of connection points: 3
#     Node 36, Type 0, BuildingBlock: WUSLED_clean_sbu_0, # of connection points: 3
#     Node 37, Type 0, BuildingBlock: WUSLED_clean_sbu_0, # of connection points: 3
#     Node 38, Type 0, BuildingBlock: WUSLED_clean_sbu_0, # of connection points: 3
#     Node 39, Type 0, BuildingBlock: WUSLED_clean_sbu_0, # of connection points: 3
#     Node 40, Type 0, BuildingBlock: WUSLED_clean_sbu_0, # of connection points: 3
#     Node 41, Type 0, BuildingBlock: WUSLED_clean_sbu_0, # of connection points: 3
#     Node 42, Type 0, BuildingBlock: WUSLED_clean_sbu_0, # of connection points: 3
#     Node 43, Type 0, BuildingBlock: WUSLED_clean_sbu_0, # of connection points: 3
#     Node 44, Type 0, BuildingBlock: WUSLED_clean_sbu_0, # of connection points: 3
#     Node 45, Type 0, BuildingBlock: WUSLED_clean_sbu_0, # of connection points: 3
#     Node 46, Type 0, BuildingBlock: WUSLED_clean_sbu_0, # of connection points: 3
#     Node 47, Type 0, BuildingBlock: WUSLED_clean_sbu_0, # of connection points: 3
#     Node 48, Type 0, BuildingBlock: WUSLED_clean_sbu_0, # of connection points: 3
#     Node 49, Type 0, BuildingBlock: WUSLED_clean_sbu_0, # of connection points: 3
#     Node 50, Type 0, BuildingBlock: WUSLED_clean_sbu_0, # of connection points: 3
#     Node 51, Type 0, BuildingBlock: WUSLED_clean_sbu_0, # of connection points: 3
#     Node 52, Type 0, BuildingBlock: WUSLED_clean_sbu_0, # of connection points: 3
#     Node 53, Type 0, BuildingBlock: WUSLED_clean_sbu_0, # of connection points: 3
#     Node 54, Type 0, BuildingBlock: WUSLED_clean_sbu_0, # of connection points: 3
#     Node 55, Type 0, BuildingBlock: WUSLED_clean_sbu_0, # of connection points: 3
#     Node 56, Type 0, BuildingBlock: WUSLED_clean_sbu_0, # of connection points: 3
#     Node 57, Type 0, BuildingBlock: WUSLED_clean_sbu_0, # of connection points: 3
#     Node 58, Type 0, BuildingBlock: WUSLED_clean_sbu_0, # of connection points: 3
#     Node 59, Type 0, BuildingBlock: WUSLED_clean_sbu_0, # of connection points: 3
#     Node 60, Type 0, BuildingBlock: WUSLED_clean_sbu_0, # of connection points: 3
#     Node 61, Type 0, BuildingBlock: WUSLED_clean_sbu_0, # of connection points: 3
#     Node 62, Type 0, BuildingBlock: WUSLED_clean_sbu_0, # of connection points: 3
#     Node 63, Type 0, BuildingBlock: WUSLED_clean_sbu_0, # of connection points: 3
#     Node 64, Type 0, BuildingBlock: WUSLED_clean_sbu_0, # of connection points: 3
#     Node 65, Type 0, BuildingBlock: WUSLED_clean_sbu_0, # of connection points: 3
#     Node 66, Type 0, BuildingBlock: WUSLED_clean_sbu_0, # of connection points: 3
#     Node 67, Type 0, BuildingBlock: WUSLED_clean_sbu_0, # of connection points: 3
#     Node 68, Type 0, BuildingBlock: WUSLED_clean_sbu_0, # of connection points: 3
#     Node 69, Type 0, BuildingBlock: WUSLED_clean_sbu_0, # of connection points: 3
#     Node 70, Type 0, BuildingBlock: WUSLED_clean_sbu_0, # of connection points: 3
#     Node 71, Type 0, BuildingBlock: WUSLED_clean_sbu_0, # of connection points: 3
#     Node 72, Type 0, BuildingBlock: WUSLED_clean_sbu_0, # of connection points: 3
#     Node 73, Type 0, BuildingBlock: WUSLED_clean_sbu_0, # of connection points: 3
#     Node 74, Type 0, BuildingBlock: WUSLED_clean_sbu_0, # of connection points: 3
#     Node 75, Type 0, BuildingBlock: WUSLED_clean_sbu_0, # of connection points: 3
#     Node 76, Type 0, BuildingBlock: WUSLED_clean_sbu_0, # of connection points: 3
#     Node 77, Type 0, BuildingBlock: WUSLED_clean_sbu_0, # of connection points: 3
#     Node 78, Type 0, BuildingBlock: WUSLED_clean_sbu_0, # of connection points: 3
#     Node 79, Type 0, BuildingBlock: WUSLED_clean_sbu_0, # of connection points: 3
#     Node 80, Type 0, BuildingBlock: WUSLED_clean_sbu_0, # of connection points: 3
#     Node 81, Type 0, BuildingBlock: WUSLED_clean_sbu_0, # of connection points: 3
#     Node 82, Type 0, BuildingBlock: WUSLED_clean_sbu_0, # of connection points: 3
#     Node 83, Type 0, BuildingBlock: WUSLED_clean_sbu_0, # of connection points: 3
#     Node 84, Type 0, BuildingBlock: WUSLED_clean_sbu_0, # of connection points: 3
#     Node 85, Type 0, BuildingBlock: WUSLED_clean_sbu_0, # of connection points: 3
#     Node 86, Type 0, BuildingBlock: WUSLED_clean_sbu_0, # of connection points: 3
#     Node 87, Type 0, BuildingBlock: WUSLED_clean_sbu_0, # of connection points: 3
#     Node 88, Type 0, BuildingBlock: WUSLED_clean_sbu_0, # of connection points: 3
#     Node 89, Type 0, BuildingBlock: WUSLED_clean_sbu_0, # of connection points: 3
#     Node 90, Type 0, BuildingBlock: WUSLED_clean_sbu_0, # of connection points: 3
#     Node 91, Type 0, BuildingBlock: WUSLED_clean_sbu_0, # of connection points: 3
#     Node 92, Type 0, BuildingBlock: WUSLED_clean_sbu_0, # of connection points: 3
#     Node 93, Type 0, BuildingBlock: WUSLED_clean_sbu_0, # of connection points: 3
#     Node 94, Type 0, BuildingBlock: WUSLED_clean_sbu_0, # of connection points: 3
#     Node 95, Type 0, BuildingBlock: WUSLED_clean_sbu_0, # of connection points: 3
#     Node 96, Type 1, BuildingBlock: BETDAH_clean_linker_0, # of connection points: 3
#     Node 97, Type 1, BuildingBlock: BETDAH_clean_linker_0, # of connection points: 3
#     Node 98, Type 1, BuildingBlock: BETDAH_clean_linker_0, # of connection points: 3
#     Node 99, Type 1, BuildingBlock: BETDAH_clean_linker_0, # of connection points: 3
#     Node 100, Type 1, BuildingBlock: BETDAH_clean_linker_0, # of connection points: 3
#     Node 101, Type 1, BuildingBlock: BETDAH_clean_linker_0, # of connection points: 3
#     Node 102, Type 1, BuildingBlock: BETDAH_clean_linker_0, # of connection points: 3
#     Node 103, Type 1, BuildingBlock: BETDAH_clean_linker_0, # of connection points: 3
#     Node 104, Type 1, BuildingBlock: BETDAH_clean_linker_0, # of connection points: 3
#     Node 105, Type 1, BuildingBlock: BETDAH_clean_linker_0, # of connection points: 3
#     Node 106, Type 1, BuildingBlock: BETDAH_clean_linker_0, # of connection points: 3
#     Node 107, Type 1, BuildingBlock: BETDAH_clean_linker_0, # of connection points: 3
#     Node 108, Type 1, BuildingBlock: BETDAH_clean_linker_0, # of connection points: 3
#     Node 109, Type 1, BuildingBlock: BETDAH_clean_linker_0, # of connection points: 3
#     Node 110, Type 1, BuildingBlock: BETDAH_clean_linker_0, # of connection points: 3
#     Node 111, Type 1, BuildingBlock: BETDAH_clean_linker_0, # of connection points: 3
#     Node 112, Type 1, BuildingBlock: BETDAH_clean_linker_0, # of connection points: 3
#     Node 113, Type 1, BuildingBlock: BETDAH_clean_linker_0, # of connection points: 3
#     Node 114, Type 1, BuildingBlock: BETDAH_clean_linker_0, # of connection points: 3
#     Node 115, Type 1, BuildingBlock: BETDAH_clean_linker_0, # of connection points: 3
#     Node 116, Type 1, BuildingBlock: BETDAH_clean_linker_0, # of connection points: 3
#     Node 117, Type 1, BuildingBlock: BETDAH_clean_linker_0, # of connection points: 3
#     Node 118, Type 1, BuildingBlock: BETDAH_clean_linker_0, # of connection points: 3
#     Node 119, Type 1, BuildingBlock: BETDAH_clean_linker_0, # of connection points: 3
#     Node 120, Type 1, BuildingBlock: BETDAH_clean_linker_0, # of connection points: 3
#     Node 121, Type 1, BuildingBlock: BETDAH_clean_linker_0, # of connection points: 3
#     Node 122, Type 1, BuildingBlock: BETDAH_clean_linker_0, # of connection points: 3
#     Node 123, Type 1, BuildingBlock: BETDAH_clean_linker_0, # of connection points: 3
#     Node 124, Type 1, BuildingBlock: BETDAH_clean_linker_0, # of connection points: 3
#     Node 125, Type 1, BuildingBlock: BETDAH_clean_linker_0, # of connection points: 3
#     Node 126, Type 1, BuildingBlock: BETDAH_clean_linker_0, # of connection points: 3
#     Node 127, Type 1, BuildingBlock: BETDAH_clean_linker_0, # of connection points: 3
#     Node 128, Type 1, BuildingBlock: BETDAH_clean_linker_0, # of connection points: 3
#     Node 129, Type 1, BuildingBlock: BETDAH_clean_linker_0, # of connection points: 3
#     Node 130, Type 1, BuildingBlock: BETDAH_clean_linker_0, # of connection points: 3
#     Node 131, Type 1, BuildingBlock: BETDAH_clean_linker_0, # of connection points: 3
#     Node 132, Type 1, BuildingBlock: BETDAH_clean_linker_0, # of connection points: 3
#     Node 133, Type 1, BuildingBlock: BETDAH_clean_linker_0, # of connection points: 3
#     Node 134, Type 1, BuildingBlock: BETDAH_clean_linker_0, # of connection points: 3
#     Node 135, Type 1, BuildingBlock: BETDAH_clean_linker_0, # of connection points: 3
#     Node 136, Type 1, BuildingBlock: BETDAH_clean_linker_0, # of connection points: 3
#     Node 137, Type 1, BuildingBlock: BETDAH_clean_linker_0, # of connection points: 3
#     Node 138, Type 1, BuildingBlock: BETDAH_clean_linker_0, # of connection points: 3
#     Node 139, Type 1, BuildingBlock: BETDAH_clean_linker_0, # of connection points: 3
#     Node 140, Type 1, BuildingBlock: BETDAH_clean_linker_0, # of connection points: 3
#     Node 141, Type 1, BuildingBlock: BETDAH_clean_linker_0, # of connection points: 3
#     Node 142, Type 1, BuildingBlock: BETDAH_clean_linker_0, # of connection points: 3
#     Node 143, Type 1, BuildingBlock: BETDAH_clean_linker_0, # of connection points: 3
#     Node 144, Type 1, BuildingBlock: BETDAH_clean_linker_0, # of connection points: 3
#     Node 145, Type 1, BuildingBlock: BETDAH_clean_linker_0, # of connection points: 3
#     Node 146, Type 1, BuildingBlock: BETDAH_clean_linker_0, # of connection points: 3
#     Node 147, Type 1, BuildingBlock: BETDAH_clean_linker_0, # of connection points: 3
#     Node 148, Type 1, BuildingBlock: BETDAH_clean_linker_0, # of connection points: 3
#     Node 149, Type 1, BuildingBlock: BETDAH_clean_linker_0, # of connection points: 3
#     Node 150, Type 1, BuildingBlock: BETDAH_clean_linker_0, # of connection points: 3
#     Node 151, Type 1, BuildingBlock: BETDAH_clean_linker_0, # of connection points: 3
#     Node 152, Type 1, BuildingBlock: BETDAH_clean_linker_0, # of connection points: 3
#     Node 153, Type 1, BuildingBlock: BETDAH_clean_linker_0, # of connection points: 3
#     Node 154, Type 1, BuildingBlock: BETDAH_clean_linker_0, # of connection points: 3
#     Node 155, Type 1, BuildingBlock: BETDAH_clean_linker_0, # of connection points: 3
#     Node 156, Type 1, BuildingBlock: BETDAH_clean_linker_0, # of connection points: 3
#     Node 157, Type 1, BuildingBlock: BETDAH_clean_linker_0, # of connection points: 3
#     Node 158, Type 1, BuildingBlock: BETDAH_clean_linker_0, # of connection points: 3
#     Node 159, Type 1, BuildingBlock: BETDAH_clean_linker_0, # of connection points: 3
#     Node 160, Type 1, BuildingBlock: BETDAH_clean_linker_0, # of connection points: 3
#     Node 161, Type 1, BuildingBlock: BETDAH_clean_linker_0, # of connection points: 3
#     Node 162, Type 1, BuildingBlock: BETDAH_clean_linker_0, # of connection points: 3
#     Node 163, Type 1, BuildingBlock: BETDAH_clean_linker_0, # of connection points: 3
#     Node 164, Type 1, BuildingBlock: BETDAH_clean_linker_0, # of connection points: 3
#     Node 165, Type 1, BuildingBlock: BETDAH_clean_linker_0, # of connection points: 3
#     Node 166, Type 1, BuildingBlock: BETDAH_clean_linker_0, # of connection points: 3
#     Node 167, Type 1, BuildingBlock: BETDAH_clean_linker_0, # of connection points: 3
#     Node 168, Type 1, BuildingBlock: BETDAH_clean_linker_0, # of connection points: 3
#     Node 169, Type 1, BuildingBlock: BETDAH_clean_linker_0, # of connection points: 3
#     Node 170, Type 1, BuildingBlock: BETDAH_clean_linker_0, # of connection points: 3
#     Node 171, Type 1, BuildingBlock: BETDAH_clean_linker_0, # of connection points: 3
#     Node 172, Type 1, BuildingBlock: BETDAH_clean_linker_0, # of connection points: 3
#     Node 173, Type 1, BuildingBlock: BETDAH_clean_linker_0, # of connection points: 3
#     Node 174, Type 1, BuildingBlock: BETDAH_clean_linker_0, # of connection points: 3
#     Node 175, Type 1, BuildingBlock: BETDAH_clean_linker_0, # of connection points: 3
#     Node 176, Type 1, BuildingBlock: BETDAH_clean_linker_0, # of connection points: 3
#     Node 177, Type 1, BuildingBlock: BETDAH_clean_linker_0, # of connection points: 3
#     Node 178, Type 1, BuildingBlock: BETDAH_clean_linker_0, # of connection points: 3
#     Node 179, Type 1, BuildingBlock: BETDAH_clean_linker_0, # of connection points: 3
#     Node 180, Type 1, BuildingBlock: BETDAH_clean_linker_0, # of connection points: 3
#     Node 181, Type 1, BuildingBlock: BETDAH_clean_linker_0, # of connection points: 3
#     Node 182, Type 1, BuildingBlock: BETDAH_clean_linker_0, # of connection points: 3
#     Node 183, Type 1, BuildingBlock: BETDAH_clean_linker_0, # of connection points: 3
#     Node 184, Type 1, BuildingBlock: BETDAH_clean_linker_0, # of connection points: 3
#     Node 185, Type 1, BuildingBlock: BETDAH_clean_linker_0, # of connection points: 3
#     Node 186, Type 1, BuildingBlock: BETDAH_clean_linker_0, # of connection points: 3
#     Node 187, Type 1, BuildingBlock: BETDAH_clean_linker_0, # of connection points: 3
#     Node 188, Type 1, BuildingBlock: BETDAH_clean_linker_0, # of connection points: 3
#     Node 189, Type 1, BuildingBlock: BETDAH_clean_linker_0, # of connection points: 3
#     Node 190, Type 1, BuildingBlock: BETDAH_clean_linker_0, # of connection points: 3
#     Node 191, Type 1, BuildingBlock: BETDAH_clean_linker_0, # of connection points: 3
#     Edge 192, Type (0, 1), BuildingBlock: OJICUG_clean_linker_0, # of connection points: 2
#     Edge 193, Type (0, 1), BuildingBlock: OJICUG_clean_linker_0, # of connection points: 2
#     Edge 194, Type (0, 1), BuildingBlock: OJICUG_clean_linker_0, # of connection points: 2
#     Edge 195, Type (0, 1), BuildingBlock: OJICUG_clean_linker_0, # of connection points: 2
#     Edge 196, Type (0, 1), BuildingBlock: OJICUG_clean_linker_0, # of connection points: 2
#     Edge 197, Type (0, 1), BuildingBlock: OJICUG_clean_linker_0, # of connection points: 2
#     Edge 198, Type (0, 1), BuildingBlock: OJICUG_clean_linker_0, # of connection points: 2
#     Edge 199, Type (0, 1), BuildingBlock: OJICUG_clean_linker_0, # of connection points: 2
#     Edge 200, Type (0, 1), BuildingBlock: OJICUG_clean_linker_0, # of connection points: 2
#     Edge 201, Type (0, 1), BuildingBlock: OJICUG_clean_linker_0, # of connection points: 2
#     Edge 202, Type (0, 1), BuildingBlock: OJICUG_clean_linker_0, # of connection points: 2
#     Edge 203, Type (0, 1), BuildingBlock: OJICUG_clean_linker_0, # of connection points: 2
#     Edge 204, Type (0, 1), BuildingBlock: OJICUG_clean_linker_0, # of connection points: 2
#     Edge 205, Type (0, 1), BuildingBlock: OJICUG_clean_linker_0, # of connection points: 2
#     Edge 206, Type (0, 1), BuildingBlock: OJICUG_clean_linker_0, # of connection points: 2
#     Edge 207, Type (0, 1), BuildingBlock: OJICUG_clean_linker_0, # of connection points: 2
#     Edge 208, Type (0, 1), BuildingBlock: OJICUG_clean_linker_0, # of connection points: 2
#     Edge 209, Type (0, 1), BuildingBlock: OJICUG_clean_linker_0, # of connection points: 2
#     Edge 210, Type (0, 1), BuildingBlock: OJICUG_clean_linker_0, # of connection points: 2
#     Edge 211, Type (0, 1), BuildingBlock: OJICUG_clean_linker_0, # of connection points: 2
#     Edge 212, Type (0, 1), BuildingBlock: OJICUG_clean_linker_0, # of connection points: 2
#     Edge 213, Type (0, 1), BuildingBlock: OJICUG_clean_linker_0, # of connection points: 2
#     Edge 214, Type (0, 1), BuildingBlock: OJICUG_clean_linker_0, # of connection points: 2
#     Edge 215, Type (0, 1), BuildingBlock: OJICUG_clean_linker_0, # of connection points: 2
#     Edge 216, Type (0, 1), BuildingBlock: OJICUG_clean_linker_0, # of connection points: 2
#     Edge 217, Type (0, 1), BuildingBlock: OJICUG_clean_linker_0, # of connection points: 2
#     Edge 218, Type (0, 1), BuildingBlock: OJICUG_clean_linker_0, # of connection points: 2
#     Edge 219, Type (0, 1), BuildingBlock: OJICUG_clean_linker_0, # of connection points: 2
#     Edge 220, Type (0, 1), BuildingBlock: OJICUG_clean_linker_0, # of connection points: 2
#     Edge 221, Type (0, 1), BuildingBlock: OJICUG_clean_linker_0, # of connection points: 2
#     Edge 222, Type (0, 1), BuildingBlock: OJICUG_clean_linker_0, # of connection points: 2
#     Edge 223, Type (0, 1), BuildingBlock: OJICUG_clean_linker_0, # of connection points: 2
#     Edge 224, Type (0, 1), BuildingBlock: OJICUG_clean_linker_0, # of connection points: 2
#     Edge 225, Type (0, 1), BuildingBlock: OJICUG_clean_linker_0, # of connection points: 2
#     Edge 226, Type (0, 1), BuildingBlock: OJICUG_clean_linker_0, # of connection points: 2
#     Edge 227, Type (0, 1), BuildingBlock: OJICUG_clean_linker_0, # of connection points: 2
#     Edge 228, Type (0, 1), BuildingBlock: OJICUG_clean_linker_0, # of connection points: 2
#     Edge 229, Type (0, 1), BuildingBlock: OJICUG_clean_linker_0, # of connection points: 2
#     Edge 230, Type (0, 1), BuildingBlock: OJICUG_clean_linker_0, # of connection points: 2
#     Edge 231, Type (0, 1), BuildingBlock: OJICUG_clean_linker_0, # of connection points: 2
#     Edge 232, Type (0, 1), BuildingBlock: OJICUG_clean_linker_0, # of connection points: 2
#     Edge 233, Type (0, 1), BuildingBlock: OJICUG_clean_linker_0, # of connection points: 2
#     Edge 234, Type (0, 1), BuildingBlock: OJICUG_clean_linker_0, # of connection points: 2
#     Edge 235, Type (0, 1), BuildingBlock: OJICUG_clean_linker_0, # of connection points: 2
#     Edge 236, Type (0, 1), BuildingBlock: OJICUG_clean_linker_0, # of connection points: 2
#     Edge 237, Type (0, 1), BuildingBlock: OJICUG_clean_linker_0, # of connection points: 2
#     Edge 238, Type (0, 1), BuildingBlock: OJICUG_clean_linker_0, # of connection points: 2
#     Edge 239, Type (0, 1), BuildingBlock: OJICUG_clean_linker_0, # of connection points: 2
#     Edge 240, Type (0, 1), BuildingBlock: OJICUG_clean_linker_0, # of connection points: 2
#     Edge 241, Type (0, 1), BuildingBlock: OJICUG_clean_linker_0, # of connection points: 2
#     Edge 242, Type (0, 1), BuildingBlock: OJICUG_clean_linker_0, # of connection points: 2
#     Edge 243, Type (0, 1), BuildingBlock: OJICUG_clean_linker_0, # of connection points: 2
#     Edge 244, Type (0, 1), BuildingBlock: OJICUG_clean_linker_0, # of connection points: 2
#     Edge 245, Type (0, 1), BuildingBlock: OJICUG_clean_linker_0, # of connection points: 2
#     Edge 246, Type (0, 1), BuildingBlock: OJICUG_clean_linker_0, # of connection points: 2
#     Edge 247, Type (0, 1), BuildingBlock: OJICUG_clean_linker_0, # of connection points: 2
#     Edge 248, Type (0, 1), BuildingBlock: OJICUG_clean_linker_0, # of connection points: 2
#     Edge 249, Type (0, 1), BuildingBlock: OJICUG_clean_linker_0, # of connection points: 2
#     Edge 250, Type (0, 1), BuildingBlock: OJICUG_clean_linker_0, # of connection points: 2
#     Edge 251, Type (0, 1), BuildingBlock: OJICUG_clean_linker_0, # of connection points: 2
#     Edge 252, Type (0, 1), BuildingBlock: OJICUG_clean_linker_0, # of connection points: 2
#     Edge 253, Type (0, 1), BuildingBlock: OJICUG_clean_linker_0, # of connection points: 2
#     Edge 254, Type (0, 1), BuildingBlock: OJICUG_clean_linker_0, # of connection points: 2
#     Edge 255, Type (0, 1), BuildingBlock: OJICUG_clean_linker_0, # of connection points: 2
#     Edge 256, Type (0, 1), BuildingBlock: OJICUG_clean_linker_0, # of connection points: 2
#     Edge 257, Type (0, 1), BuildingBlock: OJICUG_clean_linker_0, # of connection points: 2
#     Edge 258, Type (0, 1), BuildingBlock: OJICUG_clean_linker_0, # of connection points: 2
#     Edge 259, Type (0, 1), BuildingBlock: OJICUG_clean_linker_0, # of connection points: 2
#     Edge 260, Type (0, 1), BuildingBlock: OJICUG_clean_linker_0, # of connection points: 2
#     Edge 261, Type (0, 1), BuildingBlock: OJICUG_clean_linker_0, # of connection points: 2
#     Edge 262, Type (0, 1), BuildingBlock: OJICUG_clean_linker_0, # of connection points: 2
#     Edge 263, Type (0, 1), BuildingBlock: OJICUG_clean_linker_0, # of connection points: 2
#     Edge 264, Type (0, 1), BuildingBlock: OJICUG_clean_linker_0, # of connection points: 2
#     Edge 265, Type (0, 1), BuildingBlock: OJICUG_clean_linker_0, # of connection points: 2
#     Edge 266, Type (0, 1), BuildingBlock: OJICUG_clean_linker_0, # of connection points: 2
#     Edge 267, Type (0, 1), BuildingBlock: OJICUG_clean_linker_0, # of connection points: 2
#     Edge 268, Type (0, 1), BuildingBlock: OJICUG_clean_linker_0, # of connection points: 2
#     Edge 269, Type (0, 1), BuildingBlock: OJICUG_clean_linker_0, # of connection points: 2
#     Edge 270, Type (0, 1), BuildingBlock: OJICUG_clean_linker_0, # of connection points: 2
#     Edge 271, Type (0, 1), BuildingBlock: OJICUG_clean_linker_0, # of connection points: 2
#     Edge 272, Type (0, 1), BuildingBlock: OJICUG_clean_linker_0, # of connection points: 2
#     Edge 273, Type (0, 1), BuildingBlock: OJICUG_clean_linker_0, # of connection points: 2
#     Edge 274, Type (0, 1), BuildingBlock: OJICUG_clean_linker_0, # of connection points: 2
#     Edge 275, Type (0, 1), BuildingBlock: OJICUG_clean_linker_0, # of connection points: 2
#     Edge 276, Type (0, 1), BuildingBlock: OJICUG_clean_linker_0, # of connection points: 2
#     Edge 277, Type (0, 1), BuildingBlock: OJICUG_clean_linker_0, # of connection points: 2
#     Edge 278, Type (0, 1), BuildingBlock: OJICUG_clean_linker_0, # of connection points: 2
#     Edge 279, Type (0, 1), BuildingBlock: OJICUG_clean_linker_0, # of connection points: 2
#     Edge 280, Type (0, 1), BuildingBlock: OJICUG_clean_linker_0, # of connection points: 2
#     Edge 281, Type (0, 1), BuildingBlock: OJICUG_clean_linker_0, # of connection points: 2
#     Edge 282, Type (0, 1), BuildingBlock: OJICUG_clean_linker_0, # of connection points: 2
#     Edge 283, Type (0, 1), BuildingBlock: OJICUG_clean_linker_0, # of connection points: 2
#     Edge 284, Type (0, 1), BuildingBlock: OJICUG_clean_linker_0, # of connection points: 2
#     Edge 285, Type (0, 1), BuildingBlock: OJICUG_clean_linker_0, # of connection points: 2
#     Edge 286, Type (0, 1), BuildingBlock: OJICUG_clean_linker_0, # of connection points: 2
#     Edge 287, Type (0, 1), BuildingBlock: OJICUG_clean_linker_0, # of connection points: 2
#     Edge 288, Type (0, 1), BuildingBlock: OJICUG_clean_linker_0, # of connection points: 2
#     Edge 289, Type (0, 1), BuildingBlock: OJICUG_clean_linker_0, # of connection points: 2
#     Edge 290, Type (0, 1), BuildingBlock: OJICUG_clean_linker_0, # of connection points: 2
#     Edge 291, Type (0, 1), BuildingBlock: OJICUG_clean_linker_0, # of connection points: 2
#     Edge 292, Type (0, 1), BuildingBlock: OJICUG_clean_linker_0, # of connection points: 2
#     Edge 293, Type (0, 1), BuildingBlock: OJICUG_clean_linker_0, # of connection points: 2
#     Edge 294, Type (0, 1), BuildingBlock: OJICUG_clean_linker_0, # of connection points: 2
#     Edge 295, Type (0, 1), BuildingBlock: OJICUG_clean_linker_0, # of connection points: 2
#     Edge 296, Type (0, 1), BuildingBlock: OJICUG_clean_linker_0, # of connection points: 2
#     Edge 297, Type (0, 1), BuildingBlock: OJICUG_clean_linker_0, # of connection points: 2
#     Edge 298, Type (0, 1), BuildingBlock: OJICUG_clean_linker_0, # of connection points: 2
#     Edge 299, Type (0, 1), BuildingBlock: OJICUG_clean_linker_0, # of connection points: 2
#     Edge 300, Type (0, 1), BuildingBlock: OJICUG_clean_linker_0, # of connection points: 2
#     Edge 301, Type (0, 1), BuildingBlock: OJICUG_clean_linker_0, # of connection points: 2
#     Edge 302, Type (0, 1), BuildingBlock: OJICUG_clean_linker_0, # of connection points: 2
#     Edge 303, Type (0, 1), BuildingBlock: OJICUG_clean_linker_0, # of connection points: 2
#     Edge 304, Type (0, 1), BuildingBlock: OJICUG_clean_linker_0, # of connection points: 2
#     Edge 305, Type (0, 1), BuildingBlock: OJICUG_clean_linker_0, # of connection points: 2
#     Edge 306, Type (0, 1), BuildingBlock: OJICUG_clean_linker_0, # of connection points: 2
#     Edge 307, Type (0, 1), BuildingBlock: OJICUG_clean_linker_0, # of connection points: 2
#     Edge 308, Type (0, 1), BuildingBlock: OJICUG_clean_linker_0, # of connection points: 2
#     Edge 309, Type (0, 1), BuildingBlock: OJICUG_clean_linker_0, # of connection points: 2
#     Edge 310, Type (0, 1), BuildingBlock: OJICUG_clean_linker_0, # of connection points: 2
#     Edge 311, Type (0, 1), BuildingBlock: OJICUG_clean_linker_0, # of connection points: 2
#     Edge 312, Type (0, 1), BuildingBlock: OJICUG_clean_linker_0, # of connection points: 2
#     Edge 313, Type (0, 1), BuildingBlock: OJICUG_clean_linker_0, # of connection points: 2
#     Edge 314, Type (0, 1), BuildingBlock: OJICUG_clean_linker_0, # of connection points: 2
#     Edge 315, Type (0, 1), BuildingBlock: OJICUG_clean_linker_0, # of connection points: 2
#     Edge 316, Type (0, 1), BuildingBlock: OJICUG_clean_linker_0, # of connection points: 2
#     Edge 317, Type (0, 1), BuildingBlock: OJICUG_clean_linker_0, # of connection points: 2
#     Edge 318, Type (0, 1), BuildingBlock: OJICUG_clean_linker_0, # of connection points: 2
#     Edge 319, Type (0, 1), BuildingBlock: OJICUG_clean_linker_0, # of connection points: 2
#     Edge 320, Type (0, 1), BuildingBlock: OJICUG_clean_linker_0, # of connection points: 2
#     Edge 321, Type (0, 1), BuildingBlock: OJICUG_clean_linker_0, # of connection points: 2
#     Edge 322, Type (0, 1), BuildingBlock: OJICUG_clean_linker_0, # of connection points: 2
#     Edge 323, Type (0, 1), BuildingBlock: OJICUG_clean_linker_0, # of connection points: 2
#     Edge 324, Type (0, 1), BuildingBlock: OJICUG_clean_linker_0, # of connection points: 2
#     Edge 325, Type (0, 1), BuildingBlock: OJICUG_clean_linker_0, # of connection points: 2
#     Edge 326, Type (0, 1), BuildingBlock: OJICUG_clean_linker_0, # of connection points: 2
#     Edge 327, Type (0, 1), BuildingBlock: OJICUG_clean_linker_0, # of connection points: 2
#     Edge 328, Type (0, 1), BuildingBlock: OJICUG_clean_linker_0, # of connection points: 2
#     Edge 329, Type (0, 1), BuildingBlock: OJICUG_clean_linker_0, # of connection points: 2
#     Edge 330, Type (0, 1), BuildingBlock: OJICUG_clean_linker_0, # of connection points: 2
#     Edge 331, Type (0, 1), BuildingBlock: OJICUG_clean_linker_0, # of connection points: 2
#     Edge 332, Type (0, 1), BuildingBlock: OJICUG_clean_linker_0, # of connection points: 2
#     Edge 333, Type (0, 1), BuildingBlock: OJICUG_clean_linker_0, # of connection points: 2
#     Edge 334, Type (0, 1), BuildingBlock: OJICUG_clean_linker_0, # of connection points: 2
#     Edge 335, Type (0, 1), BuildingBlock: OJICUG_clean_linker_0, # of connection points: 2
#     Edge 336, Type (0, 1), BuildingBlock: OJICUG_clean_linker_0, # of connection points: 2
#     Edge 337, Type (0, 1), BuildingBlock: OJICUG_clean_linker_0, # of connection points: 2
#     Edge 338, Type (0, 1), BuildingBlock: OJICUG_clean_linker_0, # of connection points: 2
#     Edge 339, Type (0, 1), BuildingBlock: OJICUG_clean_linker_0, # of connection points: 2
#     Edge 340, Type (0, 1), BuildingBlock: OJICUG_clean_linker_0, # of connection points: 2
#     Edge 341, Type (0, 1), BuildingBlock: OJICUG_clean_linker_0, # of connection points: 2
#     Edge 342, Type (0, 1), BuildingBlock: OJICUG_clean_linker_0, # of connection points: 2
#     Edge 343, Type (0, 1), BuildingBlock: OJICUG_clean_linker_0, # of connection points: 2
#     Edge 344, Type (0, 1), BuildingBlock: OJICUG_clean_linker_0, # of connection points: 2
#     Edge 345, Type (0, 1), BuildingBlock: OJICUG_clean_linker_0, # of connection points: 2
#     Edge 346, Type (0, 1), BuildingBlock: OJICUG_clean_linker_0, # of connection points: 2
#     Edge 347, Type (0, 1), BuildingBlock: OJICUG_clean_linker_0, # of connection points: 2
#     Edge 348, Type (0, 1), BuildingBlock: OJICUG_clean_linker_0, # of connection points: 2
#     Edge 349, Type (0, 1), BuildingBlock: OJICUG_clean_linker_0, # of connection points: 2
#     Edge 350, Type (0, 1), BuildingBlock: OJICUG_clean_linker_0, # of connection points: 2
#     Edge 351, Type (0, 1), BuildingBlock: OJICUG_clean_linker_0, # of connection points: 2
#     Edge 352, Type (0, 1), BuildingBlock: OJICUG_clean_linker_0, # of connection points: 2
#     Edge 353, Type (0, 1), BuildingBlock: OJICUG_clean_linker_0, # of connection points: 2
#     Edge 354, Type (0, 1), BuildingBlock: OJICUG_clean_linker_0, # of connection points: 2
#     Edge 355, Type (0, 1), BuildingBlock: OJICUG_clean_linker_0, # of connection points: 2
#     Edge 356, Type (0, 1), BuildingBlock: OJICUG_clean_linker_0, # of connection points: 2
#     Edge 357, Type (0, 1), BuildingBlock: OJICUG_clean_linker_0, # of connection points: 2
#     Edge 358, Type (0, 1), BuildingBlock: OJICUG_clean_linker_0, # of connection points: 2
#     Edge 359, Type (0, 1), BuildingBlock: OJICUG_clean_linker_0, # of connection points: 2
#     Edge 360, Type (0, 1), BuildingBlock: OJICUG_clean_linker_0, # of connection points: 2
#     Edge 361, Type (0, 1), BuildingBlock: OJICUG_clean_linker_0, # of connection points: 2
#     Edge 362, Type (0, 1), BuildingBlock: OJICUG_clean_linker_0, # of connection points: 2
#     Edge 363, Type (0, 1), BuildingBlock: OJICUG_clean_linker_0, # of connection points: 2
#     Edge 364, Type (0, 1), BuildingBlock: OJICUG_clean_linker_0, # of connection points: 2
#     Edge 365, Type (0, 1), BuildingBlock: OJICUG_clean_linker_0, # of connection points: 2
#     Edge 366, Type (0, 1), BuildingBlock: OJICUG_clean_linker_0, # of connection points: 2
#     Edge 367, Type (0, 1), BuildingBlock: OJICUG_clean_linker_0, # of connection points: 2
#     Edge 368, Type (0, 1), BuildingBlock: OJICUG_clean_linker_0, # of connection points: 2
#     Edge 369, Type (0, 1), BuildingBlock: OJICUG_clean_linker_0, # of connection points: 2
#     Edge 370, Type (0, 1), BuildingBlock: OJICUG_clean_linker_0, # of connection points: 2
#     Edge 371, Type (0, 1), BuildingBlock: OJICUG_clean_linker_0, # of connection points: 2
#     Edge 372, Type (0, 1), BuildingBlock: OJICUG_clean_linker_0, # of connection points: 2
#     Edge 373, Type (0, 1), BuildingBlock: OJICUG_clean_linker_0, # of connection points: 2
#     Edge 374, Type (0, 1), BuildingBlock: OJICUG_clean_linker_0, # of connection points: 2
#     Edge 375, Type (0, 1), BuildingBlock: OJICUG_clean_linker_0, # of connection points: 2
#     Edge 376, Type (0, 1), BuildingBlock: OJICUG_clean_linker_0, # of connection points: 2
#     Edge 377, Type (0, 1), BuildingBlock: OJICUG_clean_linker_0, # of connection points: 2
#     Edge 378, Type (0, 1), BuildingBlock: OJICUG_clean_linker_0, # of connection points: 2
#     Edge 379, Type (0, 1), BuildingBlock: OJICUG_clean_linker_0, # of connection points: 2
#     Edge 380, Type (0, 1), BuildingBlock: OJICUG_clean_linker_0, # of connection points: 2
#     Edge 381, Type (0, 1), BuildingBlock: OJICUG_clean_linker_0, # of connection points: 2
#     Edge 382, Type (0, 1), BuildingBlock: OJICUG_clean_linker_0, # of connection points: 2
#     Edge 383, Type (0, 1), BuildingBlock: OJICUG_clean_linker_0, # of connection points: 2
#     Edge 384, Type (0, 1), BuildingBlock: OJICUG_clean_linker_0, # of connection points: 2
#     Edge 385, Type (0, 1), BuildingBlock: OJICUG_clean_linker_0, # of connection points: 2
#     Edge 386, Type (0, 1), BuildingBlock: OJICUG_clean_linker_0, # of connection points: 2
#     Edge 387, Type (0, 1), BuildingBlock: OJICUG_clean_linker_0, # of connection points: 2
#     Edge 388, Type (0, 1), BuildingBlock: OJICUG_clean_linker_0, # of connection points: 2
#     Edge 389, Type (0, 1), BuildingBlock: OJICUG_clean_linker_0, # of connection points: 2
#     Edge 390, Type (0, 1), BuildingBlock: OJICUG_clean_linker_0, # of connection points: 2
#     Edge 391, Type (0, 1), BuildingBlock: OJICUG_clean_linker_0, # of connection points: 2
#     Edge 392, Type (0, 1), BuildingBlock: OJICUG_clean_linker_0, # of connection points: 2
#     Edge 393, Type (0, 1), BuildingBlock: OJICUG_clean_linker_0, # of connection points: 2
#     Edge 394, Type (0, 1), BuildingBlock: OJICUG_clean_linker_0, # of connection points: 2
#     Edge 395, Type (0, 1), BuildingBlock: OJICUG_clean_linker_0, # of connection points: 2
#     Edge 396, Type (0, 1), BuildingBlock: OJICUG_clean_linker_0, # of connection points: 2
#     Edge 397, Type (0, 1), BuildingBlock: OJICUG_clean_linker_0, # of connection points: 2
#     Edge 398, Type (0, 1), BuildingBlock: OJICUG_clean_linker_0, # of connection points: 2
#     Edge 399, Type (0, 1), BuildingBlock: OJICUG_clean_linker_0, # of connection points: 2
#     Edge 400, Type (0, 1), BuildingBlock: OJICUG_clean_linker_0, # of connection points: 2
#     Edge 401, Type (0, 1), BuildingBlock: OJICUG_clean_linker_0, # of connection points: 2
#     Edge 402, Type (0, 1), BuildingBlock: OJICUG_clean_linker_0, # of connection points: 2
#     Edge 403, Type (0, 1), BuildingBlock: OJICUG_clean_linker_0, # of connection points: 2
#     Edge 404, Type (0, 1), BuildingBlock: OJICUG_clean_linker_0, # of connection points: 2
#     Edge 405, Type (0, 1), BuildingBlock: OJICUG_clean_linker_0, # of connection points: 2
#     Edge 406, Type (0, 1), BuildingBlock: OJICUG_clean_linker_0, # of connection points: 2
#     Edge 407, Type (0, 1), BuildingBlock: OJICUG_clean_linker_0, # of connection points: 2
#     Edge 408, Type (0, 1), BuildingBlock: OJICUG_clean_linker_0, # of connection points: 2
#     Edge 409, Type (0, 1), BuildingBlock: OJICUG_clean_linker_0, # of connection points: 2
#     Edge 410, Type (0, 1), BuildingBlock: OJICUG_clean_linker_0, # of connection points: 2
#     Edge 411, Type (0, 1), BuildingBlock: OJICUG_clean_linker_0, # of connection points: 2
#     Edge 412, Type (0, 1), BuildingBlock: OJICUG_clean_linker_0, # of connection points: 2
#     Edge 413, Type (0, 1), BuildingBlock: OJICUG_clean_linker_0, # of connection points: 2
#     Edge 414, Type (0, 1), BuildingBlock: OJICUG_clean_linker_0, # of connection points: 2
#     Edge 415, Type (0, 1), BuildingBlock: OJICUG_clean_linker_0, # of connection points: 2
#     Edge 416, Type (0, 1), BuildingBlock: OJICUG_clean_linker_0, # of connection points: 2
#     Edge 417, Type (0, 1), BuildingBlock: OJICUG_clean_linker_0, # of connection points: 2
#     Edge 418, Type (0, 1), BuildingBlock: OJICUG_clean_linker_0, # of connection points: 2
#     Edge 419, Type (0, 1), BuildingBlock: OJICUG_clean_linker_0, # of connection points: 2
#     Edge 420, Type (0, 1), BuildingBlock: OJICUG_clean_linker_0, # of connection points: 2
#     Edge 421, Type (0, 1), BuildingBlock: OJICUG_clean_linker_0, # of connection points: 2
#     Edge 422, Type (0, 1), BuildingBlock: OJICUG_clean_linker_0, # of connection points: 2
#     Edge 423, Type (0, 1), BuildingBlock: OJICUG_clean_linker_0, # of connection points: 2
#     Edge 424, Type (0, 1), BuildingBlock: OJICUG_clean_linker_0, # of connection points: 2
#     Edge 425, Type (0, 1), BuildingBlock: OJICUG_clean_linker_0, # of connection points: 2
#     Edge 426, Type (0, 1), BuildingBlock: OJICUG_clean_linker_0, # of connection points: 2
#     Edge 427, Type (0, 1), BuildingBlock: OJICUG_clean_linker_0, # of connection points: 2
#     Edge 428, Type (0, 1), BuildingBlock: OJICUG_clean_linker_0, # of connection points: 2
#     Edge 429, Type (0, 1), BuildingBlock: OJICUG_clean_linker_0, # of connection points: 2
#     Edge 430, Type (0, 1), BuildingBlock: OJICUG_clean_linker_0, # of connection points: 2
#     Edge 431, Type (0, 1), BuildingBlock: OJICUG_clean_linker_0, # of connection points: 2
#     Edge 432, Type (0, 1), BuildingBlock: OJICUG_clean_linker_0, # of connection points: 2
#     Edge 433, Type (0, 1), BuildingBlock: OJICUG_clean_linker_0, # of connection points: 2
#     Edge 434, Type (0, 1), BuildingBlock: OJICUG_clean_linker_0, # of connection points: 2
#     Edge 435, Type (0, 1), BuildingBlock: OJICUG_clean_linker_0, # of connection points: 2
#     Edge 436, Type (0, 1), BuildingBlock: OJICUG_clean_linker_0, # of connection points: 2
#     Edge 437, Type (0, 1), BuildingBlock: OJICUG_clean_linker_0, # of connection points: 2
#     Edge 438, Type (0, 1), BuildingBlock: OJICUG_clean_linker_0, # of connection points: 2
#     Edge 439, Type (0, 1), BuildingBlock: OJICUG_clean_linker_0, # of connection points: 2
#     Edge 440, Type (0, 1), BuildingBlock: OJICUG_clean_linker_0, # of connection points: 2
#     Edge 441, Type (0, 1), BuildingBlock: OJICUG_clean_linker_0, # of connection points: 2
#     Edge 442, Type (0, 1), BuildingBlock: OJICUG_clean_linker_0, # of connection points: 2
#     Edge 443, Type (0, 1), BuildingBlock: OJICUG_clean_linker_0, # of connection points: 2
#     Edge 444, Type (0, 1), BuildingBlock: OJICUG_clean_linker_0, # of connection points: 2
#     Edge 445, Type (0, 1), BuildingBlock: OJICUG_clean_linker_0, # of connection points: 2
#     Edge 446, Type (0, 1), BuildingBlock: OJICUG_clean_linker_0, # of connection points: 2
#     Edge 447, Type (0, 1), BuildingBlock: OJICUG_clean_linker_0, # of connection points: 2
#     Edge 448, Type (0, 1), BuildingBlock: OJICUG_clean_linker_0, # of connection points: 2
#     Edge 449, Type (0, 1), BuildingBlock: OJICUG_clean_linker_0, # of connection points: 2
#     Edge 450, Type (0, 1), BuildingBlock: OJICUG_clean_linker_0, # of connection points: 2
#     Edge 451, Type (0, 1), BuildingBlock: OJICUG_clean_linker_0, # of connection points: 2
#     Edge 452, Type (0, 1), BuildingBlock: OJICUG_clean_linker_0, # of connection points: 2
#     Edge 453, Type (0, 1), BuildingBlock: OJICUG_clean_linker_0, # of connection points: 2
#     Edge 454, Type (0, 1), BuildingBlock: OJICUG_clean_linker_0, # of connection points: 2
#     Edge 455, Type (0, 1), BuildingBlock: OJICUG_clean_linker_0, # of connection points: 2
#     Edge 456, Type (0, 1), BuildingBlock: OJICUG_clean_linker_0, # of connection points: 2
#     Edge 457, Type (0, 1), BuildingBlock: OJICUG_clean_linker_0, # of connection points: 2
#     Edge 458, Type (0, 1), BuildingBlock: OJICUG_clean_linker_0, # of connection points: 2
#     Edge 459, Type (0, 1), BuildingBlock: OJICUG_clean_linker_0, # of connection points: 2
#     Edge 460, Type (0, 1), BuildingBlock: OJICUG_clean_linker_0, # of connection points: 2
#     Edge 461, Type (0, 1), BuildingBlock: OJICUG_clean_linker_0, # of connection points: 2
#     Edge 462, Type (0, 1), BuildingBlock: OJICUG_clean_linker_0, # of connection points: 2
#     Edge 463, Type (0, 1), BuildingBlock: OJICUG_clean_linker_0, # of connection points: 2
#     Edge 464, Type (0, 1), BuildingBlock: OJICUG_clean_linker_0, # of connection points: 2
#     Edge 465, Type (0, 1), BuildingBlock: OJICUG_clean_linker_0, # of connection points: 2
#     Edge 466, Type (0, 1), BuildingBlock: OJICUG_clean_linker_0, # of connection points: 2
#     Edge 467, Type (0, 1), BuildingBlock: OJICUG_clean_linker_0, # of connection points: 2
#     Edge 468, Type (0, 1), BuildingBlock: OJICUG_clean_linker_0, # of connection points: 2
#     Edge 469, Type (0, 1), BuildingBlock: OJICUG_clean_linker_0, # of connection points: 2
#     Edge 470, Type (0, 1), BuildingBlock: OJICUG_clean_linker_0, # of connection points: 2
#     Edge 471, Type (0, 1), BuildingBlock: OJICUG_clean_linker_0, # of connection points: 2
#     Edge 472, Type (0, 1), BuildingBlock: OJICUG_clean_linker_0, # of connection points: 2
#     Edge 473, Type (0, 1), BuildingBlock: OJICUG_clean_linker_0, # of connection points: 2
#     Edge 474, Type (0, 1), BuildingBlock: OJICUG_clean_linker_0, # of connection points: 2
#     Edge 475, Type (0, 1), BuildingBlock: OJICUG_clean_linker_0, # of connection points: 2
#     Edge 476, Type (0, 1), BuildingBlock: OJICUG_clean_linker_0, # of connection points: 2
#     Edge 477, Type (0, 1), BuildingBlock: OJICUG_clean_linker_0, # of connection points: 2
#     Edge 478, Type (0, 1), BuildingBlock: OJICUG_clean_linker_0, # of connection points: 2
#     Edge 479, Type (0, 1), BuildingBlock: OJICUG_clean_linker_0, # of connection points: 2
# Relax obj value: 0.035
# Max RMSD: 0.061
# Mean RMSD: 0.036
data_MOF--net-ana-f--node1-WUSLED_clean_sbu_0--node2-BETDAH_clean_linker_0--edge1-OJICUG_clean_linker_0
_symmetry_space_group_name_H-M    P1
_symmetry_Int_Tables_number       1
_symmetry_cell_setting            triclinic
loop_
_symmetry_equiv_pos_as_xyz
'x, y, z'
_cell_length_a     145.25463
_cell_length_b     145.91467
_cell_length_c     145.76804
_cell_angle_alpha  89.991127
_cell_angle_beta   89.958008
_cell_angle_gamma 90.0199
loop_
_atom_site_label
_atom_site_type_symbol
_atom_site_fract_x
_atom_site_fract_y
_atom_site_fract_z
_atom_type_partial_charge
C0 C 0.07986 0.15205 0.43564 0.0
C1 C 0.08906 0.15389 0.4333 0.0
C2 C 0.09435 0.14552 0.44675 0.0
C3 C 0.09623 0.15062 0.43877 0.0
C4 C 0.08513 0.14383 0.44917 0.0
C5 C 0.07794 0.14704 0.44363 0.0
U6 U 0.07147 0.16894 0.41796 0.0
O7 O 0.06362 0.167 0.40522 0.0
O8 O 0.05815 0.17589 0.41607 0.0
C9 C 0.05658 0.17184 0.40817 0.0
C10 C 0.07233 0.15542 0.42978 0.0
C11 C 0.04757 0.16733 0.40727 0.0
C12 C 0.03713 0.15485 0.41096 0.0
C13 C 0.04555 0.15934 0.41222 0.0
C14 C 0.03262 0.16639 0.39988 0.0
C15 C 0.03059 0.15828 0.40471 0.0
C16 C 0.04104 0.17086 0.40115 0.0
C17 C 0.08979 0.18696 0.41048 0.0
C18 C 0.0951 0.19328 0.39595 0.0
C19 C 0.09923 0.20073 0.41021 0.0
C20 C 0.09419 0.19417 0.41508 0.0
C21 C 0.10002 0.20017 0.40061 0.0
C22 C 0.09002 0.18674 0.40083 0.0
C23 C 0.08617 0.17921 0.41591 0.0
O24 O 0.06912 0.16356 0.43191 0.0
O25 O 0.07366 0.15434 0.42092 0.0
O26 O 0.08491 0.17142 0.41155 0.0
O27 O 0.07967 0.18105 0.42192 0.0
H28 H 0.0907 0.15785 0.42723 0.0
H29 H 0.10325 0.15217 0.43681 0.0
H30 H 0.08348 0.13991 0.45526 0.0
H31 H 0.07088 0.1456 0.44556 0.0
H32 H 0.03586 0.14856 0.41469 0.0
H33 H 0.05055 0.15649 0.41694 0.0
H34 H 0.0277 0.16927 0.39511 0.0
H35 H 0.04249 0.17704 0.39728 0.0
H36 H 0.09549 0.19273 0.38855 0.0
H37 H 0.10301 0.20587 0.41403 0.0
H38 H 0.09416 0.19446 0.42251 0.0
H39 H 0.08665 0.18128 0.39708 0.0
C40 C 0.12014 0.82805 0.68466 0.0
C41 C 0.11821 0.8372 0.68239 0.0
C42 C 0.12651 0.84248 0.69589 0.0
C43 C 0.1214 0.84434 0.68791 0.0
C44 C 0.12834 0.8333 0.69821 0.0
C45 C 0.12521 0.82614 0.69262 0.0
U46 U 0.10264 0.81948 0.66763 0.0
O47 O 0.10413 0.81178 0.65476 0.0
O48 O 0.09579 0.80612 0.66596 0.0
C49 C 0.09952 0.80468 0.65787 0.0
C50 C 0.11672 0.82053 0.67883 0.0
C51 C 0.10413 0.79579 0.65667 0.0
C52 C 0.1168 0.78543 0.65995 0.0
C53 C 0.11223 0.79374 0.66148 0.0
C54 C 0.10513 0.7811 0.6489 0.0
C55 C 0.11334 0.77904 0.65358 0.0
C56 C 0.10057 0.78941 0.65043 0.0
C57 C 0.08378 0.83755 0.66142 0.0
C58 C 0.07722 0.84569 0.64838 0.0
C59 C 0.06864 0.84461 0.66257 0.0
C60 C 0.07574 0.83943 0.66644 0.0
C61 C 0.06945 0.84811 0.65362 0.0
C62 C 0.08431 0.84048 0.65224 0.0
C63 C 0.09196 0.83393 0.66627 0.0
O64 O 0.10873 0.81708 0.68128 0.0
O65 O 0.11737 0.82197 0.66995 0.0
O66 O 0.09954 0.83284 0.66145 0.0
O67 O 0.09059 0.82738 0.67232 0.0
H68 H 0.11419 0.83883 0.67634 0.0
H69 H 0.11974 0.85132 0.68602 0.0
H70 H 0.13229 0.83166 0.7043 0.0
H71 H 0.12673 0.81912 0.69451 0.0
H72 H 0.12317 0.78414 0.66358 0.0
H73 H 0.1151 0.79862 0.66629 0.0
H74 H 0.10223 0.7763 0.64403 0.0
H75 H 0.09431 0.79089 0.64668 0.0
H76 H 0.07812 0.84833 0.64149 0.0
H77 H 0.06269 0.84624 0.66675 0.0
H78 H 0.07515 0.83731 0.67354 0.0
H79 H 0.09042 0.83921 0.64817 0.0
C80 C 0.4441 0.86676 0.93488 0.0
C81 C 0.43489 0.86484 0.93268 0.0
C82 C 0.42969 0.87315 0.9462 0.0
C83 C 0.42776 0.86804 0.93825 0.0
C84 C 0.43893 0.87492 0.94849 0.0
C85 C 0.44608 0.87178 0.94284 0.0
U86 U 0.45246 0.84997 0.91708 0.0
O87 O 0.46 0.85204 0.90417 0.0
O88 O 0.46587 0.84327 0.91491 0.0
C89 C 0.46721 0.84738 0.90698 0.0
C90 C 0.45158 0.86349 0.9289 0.0
C91 C 0.47606 0.85216 0.90594 0.0
C92 C 0.48652 0.8644 0.91029 0.0
C93 C 0.47836 0.8595 0.91172 0.0
C94 C 0.49023 0.85458 0.89741 0.0
C95 C 0.49249 0.86208 0.90304 0.0
C96 C 0.48207 0.84967 0.89885 0.0
C97 C 0.43422 0.83172 0.90999 0.0
C98 C 0.42924 0.82521 0.89545 0.0
C99 C 0.42438 0.81824 0.90974 0.0
C100 C 0.42945 0.82476 0.91462 0.0
C101 C 0.42394 0.81859 0.90011 0.0
C102 C 0.43435 0.83171 0.90034 0.0
C103 C 0.43788 0.83948 0.91536 0.0
O104 O 0.45496 0.8554 0.93098 0.0
O105 O 0.45009 0.86453 0.92006 0.0
O106 O 0.43893 0.84729 0.91098 0.0
O107 O 0.44454 0.83771 0.92119 0.0
H108 H 0.43321 0.86087 0.92662 0.0
H109 H 0.42072 0.86643 0.93639 0.0
H110 H 0.44062 0.87885 0.95456 0.0
H111 H 0.45315 0.87329 0.94467 0.0
H112 H 0.48811 0.87004 0.91484 0.0
H113 H 0.47379 0.86151 0.91723 0.0
H114 H 0.49461 0.85267 0.8917 0.0
H115 H 0.48036 0.84405 0.8943 0.0
H116 H 0.42913 0.82558 0.88803 0.0
H117 H 0.42032 0.81332 0.91355 0.0
H118 H 0.42923 0.82466 0.92205 0.0
H119 H 0.43802 0.83697 0.89659 0.0
C120 C 0.4037 0.19132 0.1853 0.0
C121 C 0.40561 0.18217 0.18302 0.0
C122 C 0.39728 0.17691 0.19652 0.0
C123 C 0.40239 0.17504 0.18854 0.0
C124 C 0.3955 0.18609 0.19888 0.0
C125 C 0.39866 0.19324 0.19328 0.0
U126 U 0.42115 0.19984 0.16816 0.0
O127 O 0.4196 0.20743 0.15524 0.0
O128 O 0.42792 0.21323 0.16637 0.0
C129 C 0.42414 0.2146 0.15829 0.0
C130 C 0.40711 0.19882 0.17944 0.0
C131 C 0.41938 0.22341 0.15709 0.0
C132 C 0.40652 0.2335 0.16043 0.0
C133 C 0.41136 0.22537 0.16206 0.0
C134 C 0.4178 0.23788 0.14899 0.0
C135 C 0.40962 0.2398 0.15378 0.0
C136 C 0.42263 0.22974 0.15062 0.0
C137 C 0.43996 0.18171 0.1619 0.0
C138 C 0.44637 0.17331 0.14895 0.0
C139 C 0.45519 0.17482 0.16294 0.0
C140 C 0.4481 0.18003 0.16681 0.0
C141 C 0.45426 0.1711 0.15409 0.0
C142 C 0.43929 0.17854 0.15281 0.0
C143 C 0.43183 0.18538 0.16681 0.0
O144 O 0.41511 0.20228 0.18184 0.0
O145 O 0.40643 0.19736 0.17057 0.0
O146 O 0.42421 0.18644 0.16205 0.0
O147 O 0.43324 0.19198 0.1728 0.0
H148 H 0.40961 0.18053 0.17696 0.0
H149 H 0.40401 0.16805 0.18664 0.0
H150 H 0.39156 0.18773 0.20497 0.0
H151 H 0.39717 0.20027 0.19517 0.0
H152 H 0.40033 0.23482 0.16435 0.0
H153 H 0.40876 0.22056 0.16709 0.0
H154 H 0.42033 0.24253 0.14376 0.0
H155 H 0.4288 0.2283 0.1467 0.0
H156 H 0.44537 0.17049 0.14215 0.0
H157 H 0.46123 0.17337 0.16704 0.0
H158 H 0.4488 0.18232 0.17385 0.0
H159 H 0.4331 0.17965 0.14884 0.0
C160 C 0.08006 0.86659 0.08505 0.0
C161 C 0.08927 0.86481 0.08732 0.0
C162 C 0.09443 0.87311 0.07377 0.0
C163 C 0.09639 0.86809 0.08176 0.0
C164 C 0.08518 0.87472 0.07141 0.0
C165 C 0.07805 0.87152 0.07704 0.0
U166 U 0.07162 0.84979 0.10288 0.0
O167 O 0.06398 0.85191 0.11573 0.0
O168 O 0.05817 0.84313 0.10497 0.0
C169 C 0.05677 0.84727 0.11287 0.0
C170 C 0.07258 0.86329 0.09103 0.0
C171 C 0.04793 0.85208 0.1138 0.0
C172 C 0.0378 0.86469 0.10977 0.0
C173 C 0.04601 0.85984 0.10847 0.0
C174 C 0.03328 0.85396 0.12163 0.0
C175 C 0.03138 0.86186 0.11644 0.0
C176 C 0.04149 0.84912 0.12033 0.0
C177 C 0.08973 0.83149 0.11015 0.0
C178 C 0.09444 0.82491 0.12475 0.0
C179 C 0.09959 0.81804 0.11053 0.0
C180 C 0.0946 0.82456 0.10558 0.0
C181 C 0.09984 0.81834 0.12017 0.0
C182 C 0.08941 0.83143 0.11978 0.0
C183 C 0.08615 0.83926 0.10474 0.0
O184 O 0.06921 0.85519 0.08895 0.0
O185 O 0.07404 0.86434 0.09987 0.0
O186 O 0.08508 0.84708 0.10909 0.0
O187 O 0.07952 0.8375 0.09886 0.0
H188 H 0.09098 0.86092 0.09341 0.0
H189 H 0.10344 0.8666 0.08367 0.0
H190 H 0.08347 0.87859 0.0653 0.0
H191 H 0.07097 0.87292 0.07516 0.0
H192 H 0.0365 0.87066 0.10555 0.0
H193 H 0.05091 0.86221 0.10339 0.0
H194 H 0.02854 0.85165 0.12688 0.0
H195 H 0.0429 0.84315 0.12453 0.0
H196 H 0.0944 0.82525 0.13217 0.0
H197 H 0.10374 0.81315 0.10677 0.0
H198 H 0.09497 0.8245 0.09815 0.0
H199 H 0.08566 0.83667 0.12349 0.0
C200 C 0.40504 0.82818 0.33502 0.0
C201 C 0.40681 0.83738 0.33723 0.0
C202 C 0.39842 0.84242 0.3237 0.0
C203 C 0.40349 0.84442 0.33166 0.0
C204 C 0.39679 0.8332 0.3214 0.0
C205 C 0.40005 0.82613 0.32705 0.0
U206 U 0.42206 0.81992 0.35274 0.0
O207 O 0.42007 0.81237 0.36563 0.0
O208 O 0.42882 0.80656 0.35482 0.0
C209 C 0.42474 0.8052 0.36277 0.0
C210 C 0.40841 0.82077 0.341 0.0
C211 C 0.41996 0.79638 0.36381 0.0
C212 C 0.40721 0.78629 0.3601 0.0
C213 C 0.41207 0.79443 0.35863 0.0
C214 C 0.41819 0.78187 0.3718 0.0
C215 C 0.41013 0.77996 0.36679 0.0
C216 C 0.42305 0.79003 0.37033 0.0
C217 C 0.44041 0.83802 0.35987 0.0
C218 C 0.4469 0.84307 0.3744 0.0
C219 C 0.45407 0.84765 0.36012 0.0
C220 C 0.4475 0.84263 0.35524 0.0
C221 C 0.45364 0.84821 0.36974 0.0
C222 C 0.44035 0.83801 0.36952 0.0
C223 C 0.43259 0.83443 0.35449 0.0
O224 O 0.41655 0.81745 0.33886 0.0
O225 O 0.40742 0.82225 0.34984 0.0
O226 O 0.42475 0.83337 0.35888 0.0
O227 O 0.43435 0.82782 0.34861 0.0
H228 H 0.41075 0.83912 0.3433 0.0
H229 H 0.40499 0.85145 0.33353 0.0
H230 H 0.39289 0.83145 0.31532 0.0
H231 H 0.39865 0.81907 0.32521 0.0
H232 H 0.40112 0.78498 0.35603 0.0
H233 H 0.40961 0.79927 0.35356 0.0
H234 H 0.42058 0.7772 0.37706 0.0
H235 H 0.42911 0.79145 0.37441 0.0
H236 H 0.44646 0.84328 0.38182 0.0
H237 H 0.4591 0.8516 0.3563 0.0
H238 H 0.44766 0.84277 0.34781 0.0
H239 H 0.43499 0.83447 0.37328 0.0
C240 C 0.44374 0.15304 0.58464 0.0
C241 C 0.43451 0.15478 0.58689 0.0
C242 C 0.42942 0.14657 0.57327 0.0
C243 C 0.42742 0.15153 0.58129 0.0
C244 C 0.43869 0.14498 0.57093 0.0
C245 C 0.44579 0.14817 0.5766 0.0
U246 U 0.45195 0.16987 0.60247 0.0
O247 O 0.45941 0.16784 0.61542 0.0
O248 O 0.46534 0.1766 0.6047 0.0
C249 C 0.46661 0.17255 0.61266 0.0
C250 C 0.45118 0.15634 0.59065 0.0
C251 C 0.47551 0.1679 0.61385 0.0
C252 C 0.48583 0.15523 0.61054 0.0
C253 C 0.47755 0.15987 0.60897 0.0
C254 C 0.49017 0.16669 0.62177 0.0
C255 C 0.49221 0.15853 0.61703 0.0
C256 C 0.48189 0.17132 0.62019 0.0
C257 C 0.43373 0.1881 0.60953 0.0
C258 C 0.42913 0.19475 0.62413 0.0
C259 C 0.42378 0.20149 0.60992 0.0
C260 C 0.42876 0.19495 0.60497 0.0
C261 C 0.42364 0.20126 0.61957 0.0
C262 C 0.43415 0.18823 0.61916 0.0
C263 C 0.43735 0.18034 0.60414 0.0
O264 O 0.45455 0.16444 0.58858 0.0
O265 O 0.44965 0.1553 0.59948 0.0
O266 O 0.43839 0.17252 0.60851 0.0
O267 O 0.44405 0.18211 0.59832 0.0
H268 H 0.43277 0.15864 0.593 0.0
H269 H 0.42036 0.153 0.5832 0.0
H270 H 0.44042 0.14116 0.5648 0.0
H271 H 0.45288 0.1468 0.57473 0.0
H272 H 0.48711 0.14891 0.60686 0.0
H273 H 0.47267 0.15711 0.60408 0.0
H274 H 0.49496 0.16948 0.62672 0.0
H275 H 0.48041 0.17752 0.624 0.0
H276 H 0.42926 0.19447 0.63156 0.0
H277 H 0.41956 0.20632 0.60618 0.0
H278 H 0.42831 0.19496 0.59754 0.0
H279 H 0.43798 0.18305 0.62286 0.0
C280 C 0.11959 0.19098 0.83604 0.0
C281 C 0.11767 0.18181 0.83821 0.0
C282 C 0.12585 0.17671 0.82455 0.0
C283 C 0.12081 0.17474 0.83255 0.0
C284 C 0.12764 0.18592 0.82231 0.0
C285 C 0.12456 0.193 0.82804 0.0
U286 U 0.10277 0.19913 0.85395 0.0
O287 O 0.10477 0.20674 0.86681 0.0
O288 O 0.09581 0.21237 0.85608 0.0
C289 C 0.09989 0.21379 0.864 0.0
C290 C 0.11631 0.19841 0.84206 0.0
C291 C 0.10436 0.22276 0.8651 0.0
C292 C 0.11684 0.2333 0.86166 0.0
C293 C 0.11238 0.22493 0.86019 0.0
C294 C 0.10524 0.23747 0.87286 0.0
C295 C 0.11337 0.23964 0.86808 0.0
C296 C 0.10078 0.22909 0.87138 0.0
C297 C 0.08461 0.18083 0.86113 0.0
C298 C 0.07816 0.1754 0.87556 0.0
C299 C 0.07075 0.17148 0.86121 0.0
C300 C 0.07738 0.17653 0.85643 0.0
C301 C 0.07125 0.17059 0.8708 0.0
C302 C 0.08478 0.18049 0.87077 0.0
C303 C 0.09241 0.1845 0.85577 0.0
O304 O 0.10814 0.20171 0.84003 0.0
O305 O 0.11742 0.19693 0.85088 0.0
O306 O 0.10023 0.18567 0.86015 0.0
O307 O 0.09059 0.19107 0.84986 0.0
H308 H 0.11373 0.1801 0.84429 0.0
H309 H 0.11918 0.16773 0.83438 0.0
H310 H 0.13153 0.18764 0.81621 0.0
H311 H 0.12607 0.20005 0.82623 0.0
H312 H 0.12315 0.23469 0.85795 0.0
H313 H 0.11526 0.22009 0.85534 0.0
H314 H 0.10232 0.24223 0.87776 0.0
H315 H 0.09459 0.22752 0.87522 0.0
H316 H 0.07866 0.17494 0.88296 0.0
H317 H 0.06561 0.16778 0.85731 0.0
H318 H 0.07713 0.17665 0.849 0.0
H319 H 0.09025 0.18378 0.87459 0.0
C320 C 0.43954 0.07721 0.1555 0.0
C321 C 0.439 0.08578 0.15981 0.0
C322 C 0.45154 0.09153 0.1503 0.0
C323 C 0.44491 0.09287 0.15722 0.0
C324 C 0.45211 0.08287 0.14605 0.0
C325 C 0.44615 0.07577 0.14864 0.0
U326 U 0.42045 0.06925 0.17096 0.0
O327 O 0.40731 0.06237 0.16803 0.0
O328 O 0.41731 0.05589 0.17726 0.0
C329 C 0.40953 0.05501 0.17274 0.0
C330 C 0.43306 0.0699 0.15808 0.0
C331 C 0.40827 0.04629 0.16784 0.0
C332 C 0.41251 0.03579 0.15562 0.0
C333 C 0.41408 0.04387 0.16055 0.0
C334 C 0.3994 0.03239 0.16534 0.0
C335 C 0.40508 0.03 0.15788 0.0
C336 C 0.40099 0.04047 0.17026 0.0
C337 C 0.41321 0.08731 0.18927 0.0
C338 C 0.39842 0.0923 0.1953 0.0
C339 C 0.41253 0.09726 0.20262 0.0
C340 C 0.41763 0.09215 0.1963 0.0
C341 C 0.40288 0.09766 0.20199 0.0
C342 C 0.40354 0.08716 0.189 0.0
C343 C 0.41884 0.0836 0.18171 0.0
O344 O 0.4345 0.06617 0.16616 0.0
O345 O 0.42436 0.0719 0.15664 0.0
O346 O 0.41481 0.08291 0.17366 0.0
O347 O 0.42427 0.07665 0.18362 0.0
H348 H 0.43391 0.08703 0.1651 0.0
H349 H 0.44414 0.09947 0.16052 0.0
H350 H 0.45718 0.08157 0.14077 0.0
H351 H 0.44666 0.06918 0.14525 0.0
H352 H 0.4171 0.0341 0.15002 0.0
H353 H 0.41975 0.04829 0.1586 0.0
H354 H 0.39356 0.02816 0.1672 0.0
H355 H 0.39642 0.04226 0.17586 0.0
H356 H 0.39099 0.09237 0.19472 0.0
H357 H 0.4162 0.10138 0.2076 0.0
H358 H 0.42508 0.0924 0.19661 0.0
H359 H 0.39995 0.08342 0.18366 0.0
C360 C 0.19424 0.18611 0.40436 0.0
C361 C 0.18519 0.18427 0.40717 0.0
C362 C 0.17966 0.1977 0.39891 0.0
C363 C 0.17798 0.18996 0.40443 0.0
C364 C 0.18877 0.19953 0.39613 0.0
C365 C 0.196 0.19377 0.39884 0.0
U366 U 0.20253 0.16784 0.4205 0.0
O367 O 0.21002 0.15497 0.41816 0.0
O368 O 0.21586 0.16544 0.42728 0.0
C369 C 0.21716 0.15759 0.42303 0.0
C370 C 0.20177 0.18003 0.4073 0.0
C371 C 0.22613 0.15648 0.41849 0.0
C372 C 0.23655 0.15974 0.40586 0.0
C373 C 0.22819 0.16126 0.4104 0.0
C374 C 0.24092 0.14878 0.41756 0.0
C375 C 0.24298 0.15341 0.40934 0.0
C376 C 0.23257 0.1503 0.42208 0.0
C377 C 0.18417 0.16038 0.43849 0.0
C378 C 0.17923 0.1457 0.44468 0.0
C379 C 0.17425 0.15979 0.45191 0.0
C380 C 0.17932 0.16483 0.44551 0.0
C381 C 0.17387 0.15017 0.45137 0.0
C382 C 0.18435 0.15075 0.4383 0.0
C383 C 0.18787 0.16593 0.43086 0.0
O384 O 0.20521 0.18183 0.41545 0.0
O385 O 0.20023 0.17125 0.406 0.0
O386 O 0.18895 0.16175 0.42295 0.0
O387 O 0.19455 0.17169 0.43281 0.0
H388 H 0.18369 0.17839 0.41146 0.0
H389 H 0.17105 0.18821 0.40657 0.0
H390 H 0.19034 0.20548 0.39197 0.0
H391 H 0.20296 0.19532 0.39665 0.0
H392 H 0.23784 0.16333 0.39949 0.0
H393 H 0.22327 0.16603 0.40751 0.0
H394 H 0.24576 0.14395 0.42049 0.0
H395 H 0.23108 0.14657 0.42834 0.0
H396 H 0.17918 0.13829 0.44416 0.0
H397 H 0.17013 0.16347 0.45689 0.0
H398 H 0.17905 0.17225 0.44576 0.0
H399 H 0.18808 0.14714 0.43298 0.0
C400 C 0.08555 0.94202 0.65483 0.0
C401 C 0.08679 0.93315 0.65833 0.0
C402 C 0.07437 0.92745 0.64869 0.0
C403 C 0.08127 0.92594 0.65528 0.0
C404 C 0.07299 0.9364 0.64535 0.0
C405 C 0.07858 0.94363 0.64838 0.0
U406 U 0.10392 0.95027 0.67101 0.0
O407 O 0.11695 0.95753 0.66852 0.0
O408 O 0.10652 0.96364 0.67752 0.0
C409 C 0.11439 0.96478 0.67321 0.0
C410 C 0.09171 0.94946 0.65778 0.0
C411 C 0.11553 0.97355 0.66837 0.0
C412 C 0.11124 0.98399 0.65611 0.0
C413 C 0.10973 0.9759 0.66105 0.0
C414 C 0.12425 0.98755 0.66587 0.0
C415 C 0.1186 0.98986 0.65838 0.0
C416 C 0.12273 0.97946 0.67081 0.0
C417 C 0.11121 0.93211 0.68922 0.0
C418 C 0.12593 0.92717 0.69545 0.0
C419 C 0.11173 0.92208 0.70253 0.0
C420 C 0.1067 0.9272 0.69616 0.0
C421 C 0.12139 0.92173 0.70203 0.0
C422 C 0.12088 0.93232 0.68909 0.0
C423 C 0.10568 0.93581 0.68158 0.0
O424 O 0.08989 0.95296 0.6659 0.0
O425 O 0.10051 0.9478 0.65654 0.0
O426 O 0.10988 0.93673 0.67364 0.0
O427 O 0.1 0.94257 0.68346 0.0
H428 H 0.09209 0.93179 0.66337 0.0
H429 H 0.0824 0.91916 0.65809 0.0
H430 H 0.06775 0.93776 0.64025 0.0
H431 H 0.07753 0.95044 0.64561 0.0
H432 H 0.10667 0.98562 0.65048 0.0
H433 H 0.10413 0.97141 0.65907 0.0
H434 H 0.13004 0.99184 0.66774 0.0
H435 H 0.1273 0.97772 0.67642 0.0
H436 H 0.13337 0.92713 0.69496 0.0
H437 H 0.10801 0.91791 0.70743 0.0
H438 H 0.09925 0.9269 0.69636 0.0
H439 H 0.12454 0.9361 0.68383 0.0
C440 C 0.33017 0.83444 0.9033 0.0
C441 C 0.3394 0.83669 0.90505 0.0
C442 C 0.34451 0.82317 0.89671 0.0
C443 C 0.34649 0.83114 0.90175 0.0
C444 C 0.33525 0.82082 0.89512 0.0
C445 C 0.32813 0.82645 0.89836 0.0
U446 U 0.32193 0.85217 0.92024 0.0
O447 O 0.3144 0.86507 0.91828 0.0
O448 O 0.30856 0.85431 0.92704 0.0
C449 C 0.30723 0.86226 0.92301 0.0
C450 C 0.32272 0.84041 0.90665 0.0
C451 C 0.29831 0.86342 0.91838 0.0
C452 C 0.28803 0.86021 0.90564 0.0
C453 C 0.29632 0.85865 0.91027 0.0
C454 C 0.28357 0.8712 0.91728 0.0
C455 C 0.28159 0.86658 0.90905 0.0
C456 C 0.29187 0.86964 0.9219 0.0
C457 C 0.34021 0.85923 0.93844 0.0
C458 C 0.34495 0.87378 0.94507 0.0
C459 C 0.35016 0.85955 0.95184 0.0
C460 C 0.34514 0.85463 0.94531 0.0
C461 C 0.3504 0.86918 0.95159 0.0
C462 C 0.33989 0.86885 0.93856 0.0
C463 C 0.33656 0.85386 0.93067 0.0
O464 O 0.31939 0.8383 0.91477 0.0
O465 O 0.32421 0.84924 0.90564 0.0
O466 O 0.33548 0.85825 0.92287 0.0
O467 O 0.3299 0.84802 0.93245 0.0
H468 H 0.34113 0.84277 0.90896 0.0
H469 H 0.35355 0.83305 0.90322 0.0
H470 H 0.33352 0.81473 0.89124 0.0
H471 H 0.32105 0.82458 0.89698 0.0
H472 H 0.2868 0.85662 0.89926 0.0
H473 H 0.30125 0.85385 0.90744 0.0
H474 H 0.27873 0.87606 0.92016 0.0
H475 H 0.2933 0.87337 0.92817 0.0
H476 H 0.3449 0.8812 0.94477 0.0
H477 H 0.35435 0.85578 0.95669 0.0
H478 H 0.34551 0.84722 0.94533 0.0
H479 H 0.33609 0.87258 0.93337 0.0
C480 C 0.43759 0.94161 0.36548 0.0
C481 C 0.43587 0.93257 0.36271 0.0
C482 C 0.44939 0.92727 0.37105 0.0
C483 C 0.44167 0.92548 0.3655 0.0
C484 C 0.45111 0.93638 0.37378 0.0
C485 C 0.44525 0.94349 0.37101 0.0
U486 U 0.41921 0.94977 0.34928 0.0
O487 O 0.40623 0.95713 0.35165 0.0
O488 O 0.41671 0.96308 0.34259 0.0
C489 C 0.40883 0.96431 0.34686 0.0
C490 C 0.4314 0.94903 0.36252 0.0
C491 C 0.40774 0.97317 0.35153 0.0
C492 C 0.41152 0.98355 0.364 0.0
C493 C 0.41293 0.97527 0.35936 0.0
C494 C 0.39981 0.98775 0.35294 0.0
C495 C 0.40488 0.98987 0.36089 0.0
C496 C 0.40123 0.97947 0.34831 0.0
C497 C 0.41198 0.9316 0.33108 0.0
C498 C 0.3973 0.92672 0.32472 0.0
C499 C 0.41154 0.92173 0.31767 0.0
C500 C 0.41653 0.92677 0.32411 0.0
C501 C 0.40188 0.92137 0.31809 0.0
C502 C 0.40231 0.9318 0.33116 0.0
C503 C 0.41747 0.93527 0.33877 0.0
O504 O 0.43322 0.95252 0.3544 0.0
O505 O 0.42259 0.94738 0.36377 0.0
O506 O 0.4132 0.93624 0.34667 0.0
O507 O 0.42321 0.94199 0.33691 0.0
H508 H 0.43 0.93098 0.35841 0.0
H509 H 0.44001 0.91855 0.3634 0.0
H510 H 0.45705 0.93804 0.37795 0.0
H511 H 0.4467 0.95044 0.37317 0.0
H512 H 0.41545 0.98489 0.37016 0.0
H513 H 0.41796 0.97045 0.36197 0.0
H514 H 0.39473 0.9925 0.35029 0.0
H515 H 0.39718 0.97795 0.34226 0.0
H516 H 0.38986 0.92667 0.32515 0.0
H517 H 0.4153 0.91762 0.31274 0.0
H518 H 0.42399 0.92649 0.32396 0.0
H519 H 0.39862 0.93552 0.33643 0.0
C520 C 0.33012 0.18474 0.61739 0.0
C521 C 0.33933 0.18252 0.61552 0.0
C522 C 0.3445 0.196 0.62389 0.0
C523 C 0.34645 0.18806 0.61878 0.0
C524 C 0.33525 0.1983 0.62562 0.0
C525 C 0.32812 0.19268 0.62242 0.0
U526 U 0.32183 0.16716 0.60035 0.0
O527 O 0.31426 0.15426 0.60219 0.0
O528 O 0.30847 0.16512 0.59353 0.0
C529 C 0.3071 0.15713 0.59749 0.0
C530 C 0.32264 0.1788 0.61403 0.0
C531 C 0.29818 0.15596 0.6021 0.0
C532 C 0.28787 0.15915 0.61483 0.0
C533 C 0.29618 0.1607 0.61023 0.0
C534 C 0.28341 0.14822 0.60314 0.0
C535 C 0.28141 0.15282 0.61139 0.0
C536 C 0.29172 0.14978 0.59854 0.0
C537 C 0.34009 0.16024 0.58206 0.0
C538 C 0.34484 0.14575 0.57531 0.0
C539 C 0.34995 0.16004 0.56859 0.0
C540 C 0.34495 0.1649 0.57518 0.0
C541 C 0.35022 0.15041 0.56877 0.0
C542 C 0.3398 0.15061 0.5819 0.0
C543 C 0.33646 0.16554 0.58989 0.0
O544 O 0.3193 0.18098 0.60594 0.0
O545 O 0.32411 0.16996 0.61497 0.0
O546 O 0.33537 0.16108 0.59766 0.0
O547 O 0.32983 0.17142 0.58818 0.0
H548 H 0.34103 0.17648 0.61155 0.0
H549 H 0.35349 0.1862 0.6172 0.0
H550 H 0.33355 0.20437 0.62955 0.0
H551 H 0.32104 0.19452 0.62389 0.0
H552 H 0.28662 0.16272 0.62123 0.0
H553 H 0.30112 0.16548 0.61309 0.0
H554 H 0.27855 0.14339 0.60024 0.0
H555 H 0.29316 0.14607 0.59226 0.0
H556 H 0.34482 0.13833 0.57557 0.0
H557 H 0.35409 0.16386 0.56373 0.0
H558 H 0.3453 0.17232 0.57521 0.0
H559 H 0.33605 0.14684 0.58709 0.0
C560 C 0.08517 0.0762 0.86487 0.0
C561 C 0.08055 0.08157 0.85834 0.0
C562 C 0.0735 0.09064 0.87051 0.0
C563 C 0.07472 0.08867 0.86113 0.0
C564 C 0.07801 0.08512 0.87703 0.0
C565 C 0.08378 0.07796 0.87422 0.0
U566 U 0.10429 0.06886 0.84886 0.0
O567 O 0.11765 0.06236 0.85165 0.0
O568 O 0.10771 0.05558 0.84258 0.0
C569 C 0.11555 0.0549 0.84705 0.0
C570 C 0.09197 0.06924 0.86201 0.0
C571 C 0.11695 0.04627 0.85205 0.0
C572 C 0.1129 0.0359 0.86444 0.0
C573 C 0.11127 0.04393 0.85947 0.0
C574 C 0.12584 0.03238 0.85455 0.0
C575 C 0.12027 0.03007 0.86211 0.0
C576 C 0.12419 0.04042 0.84958 0.0
C577 C 0.11078 0.08697 0.83035 0.0
C578 C 0.12546 0.09198 0.82407 0.0
C579 C 0.11122 0.09717 0.81718 0.0
C580 C 0.10622 0.09197 0.82351 0.0
C581 C 0.12088 0.09751 0.8176 0.0
C582 C 0.12045 0.08675 0.83039 0.0
C583 C 0.10532 0.08318 0.83799 0.0
O584 O 0.0905 0.06529 0.85403 0.0
O585 O 0.1006 0.07162 0.86325 0.0
O586 O 0.10947 0.08267 0.84599 0.0
O587 O 0.10005 0.07606 0.83621 0.0
H588 H 0.08156 0.08041 0.85107 0.0
H589 H 0.07125 0.09266 0.85592 0.0
H590 H 0.07734 0.0865 0.88429 0.0
H591 H 0.08735 0.07395 0.87936 0.0
H592 H 0.10839 0.03426 0.87013 0.0
H593 H 0.10563 0.04836 0.86146 0.0
H594 H 0.13163 0.02812 0.85263 0.0
H595 H 0.12866 0.04215 0.84388 0.0
H596 H 0.1329 0.09201 0.82449 0.0
H597 H 0.10747 0.10141 0.81236 0.0
H598 H 0.09877 0.09226 0.82339 0.0
H599 H 0.12414 0.0829 0.83557 0.0
C600 C 0.19361 0.83468 0.11773 0.0
C601 C 0.18441 0.83694 0.11583 0.0
C602 C 0.17916 0.82347 0.12419 0.0
C603 C 0.17726 0.83142 0.11908 0.0
C604 C 0.18839 0.82114 0.12595 0.0
C605 C 0.19556 0.82673 0.12277 0.0
U606 U 0.20197 0.85225 0.10072 0.0
O607 O 0.20961 0.86512 0.10256 0.0
O608 O 0.21534 0.85426 0.09385 0.0
C609 C 0.21674 0.86223 0.09782 0.0
C610 C 0.20112 0.84058 0.11437 0.0
C611 C 0.22569 0.86336 0.10239 0.0
C612 C 0.23602 0.86018 0.11509 0.0
C613 C 0.22768 0.85865 0.11053 0.0
C614 C 0.2405 0.87103 0.10332 0.0
C615 C 0.2425 0.86646 0.11159 0.0
C616 C 0.23217 0.86949 0.09877 0.0
C617 C 0.18373 0.85932 0.0825 0.0
C618 C 0.17903 0.87386 0.07581 0.0
C619 C 0.17388 0.8596 0.06904 0.0
C620 C 0.17886 0.8547 0.07561 0.0
C621 C 0.17364 0.86923 0.06926 0.0
C622 C 0.18405 0.86895 0.08237 0.0
C623 C 0.18734 0.85398 0.09031 0.0
O624 O 0.20445 0.83841 0.10627 0.0
O625 O 0.1997 0.84943 0.11534 0.0
O626 O 0.18847 0.85841 0.09808 0.0
O627 O 0.19394 0.84807 0.08856 0.0
H628 H 0.18276 0.84298 0.11185 0.0
H629 H 0.17023 0.83331 0.11748 0.0
H630 H 0.19005 0.81507 0.12989 0.0
H631 H 0.20262 0.82486 0.12426 0.0
H632 H 0.23726 0.85664 0.1215 0.0
H633 H 0.22273 0.85392 0.11344 0.0
H634 H 0.24538 0.87582 0.10037 0.0
H635 H 0.23073 0.87318 0.09248 0.0
H636 H 0.17907 0.88127 0.0761 0.0
H637 H 0.16973 0.85582 0.06417 0.0
H638 H 0.17849 0.84729 0.0756 0.0
H639 H 0.18781 0.87269 0.08758 0.0
C640 C 0.15459 0.43473 0.07854 0.0
C641 C 0.15741 0.4329 0.08756 0.0
C642 C 0.14922 0.4464 0.09306 0.0
C643 C 0.15472 0.43863 0.09474 0.0
C644 C 0.1464 0.4482 0.08399 0.0
C645 C 0.14906 0.44241 0.07679 0.0
U646 U 0.17138 0.41714 0.07002 0.0
O647 O 0.16951 0.40419 0.06256 0.0
O648 O 0.17811 0.41505 0.05664 0.0
C649 C 0.17419 0.40703 0.05538 0.0
C650 C 0.15761 0.42872 0.071 0.0
C651 C 0.16957 0.40574 0.0465 0.0
C652 C 0.15688 0.40885 0.03611 0.0
C653 C 0.16144 0.41047 0.04441 0.0
C654 C 0.16863 0.39786 0.03185 0.0
C655 C 0.16039 0.40247 0.02976 0.0
C656 C 0.17318 0.39949 0.04015 0.0
C657 C 0.1902 0.41087 0.08816 0.0
C658 C 0.19647 0.39796 0.09671 0.0
C659 C 0.20544 0.41184 0.09502 0.0
C660 C 0.19839 0.41571 0.08977 0.0
C661 C 0.20441 0.40305 0.09885 0.0
C662 C 0.18943 0.40183 0.09144 0.0
C663 C 0.18211 0.41581 0.08444 0.0
O664 O 0.16562 0.43086 0.06737 0.0
O665 O 0.15673 0.4199 0.07261 0.0
O666 O 0.17442 0.41115 0.08348 0.0
O667 O 0.18358 0.42169 0.07776 0.0
H668 H 0.16171 0.42702 0.08905 0.0
H669 H 0.15689 0.43691 0.10163 0.0
H670 H 0.14226 0.45417 0.08243 0.0
H671 H 0.14687 0.44396 0.06986 0.0
H672 H 0.15049 0.41243 0.03479 0.0
H673 H 0.15854 0.4153 0.04927 0.0
H674 H 0.17158 0.39299 0.02708 0.0
H675 H 0.17946 0.39579 0.04166 0.0
H676 H 0.1954 0.39122 0.09962 0.0
H677 H 0.21152 0.4159 0.09643 0.0
H678 H 0.19916 0.42271 0.08739 0.0
H679 H 0.18319 0.39791 0.09038 0.0
C680 C 0.65433 0.08457 0.94212 0.0
C681 C 0.65612 0.08689 0.93295 0.0
C682 C 0.64788 0.07334 0.92773 0.0
C683 C 0.65289 0.08137 0.92583 0.0
C684 C 0.64623 0.07093 0.93694 0.0
C685 C 0.6494 0.07654 0.94408 0.0
U686 U 0.67128 0.10229 0.9503 0.0
O687 O 0.66938 0.11517 0.95787 0.0
O688 O 0.67825 0.10441 0.96354 0.0
C689 C 0.67423 0.11236 0.96493 0.0
C690 C 0.65767 0.0905 0.94959 0.0
C691 C 0.66975 0.11354 0.9739 0.0
C692 C 0.65721 0.11029 0.98444 0.0
C693 C 0.6617 0.10871 0.97609 0.0
C694 C 0.66887 0.12143 0.98855 0.0
C695 C 0.66069 0.11673 0.99074 0.0
C696 C 0.67335 0.11984 0.9802 0.0
C697 C 0.68937 0.10945 0.93194 0.0
C698 C 0.69593 0.12401 0.92708 0.0
C699 C 0.70289 0.10977 0.9221 0.0
C700 C 0.69634 0.10486 0.92712 0.0
C701 C 0.70256 0.1194 0.92176 0.0
C702 C 0.68939 0.11908 0.93214 0.0
C703 C 0.6816 0.10405 0.93561 0.0
O704 O 0.66584 0.0884 0.95285 0.0
O705 O 0.65661 0.09933 0.94818 0.0
O706 O 0.67378 0.10843 0.93679 0.0
O707 O 0.68345 0.09818 0.9422 0.0
H708 H 0.66003 0.093 0.93128 0.0
H709 H 0.65441 0.08332 0.91882 0.0
H710 H 0.64237 0.0648 0.9386 0.0
H711 H 0.64799 0.07461 0.95112 0.0
H712 H 0.65086 0.10664 0.98584 0.0
H713 H 0.6588 0.10385 0.97127 0.0
H714 H 0.67181 0.12635 0.99328 0.0
H715 H 0.67957 0.12362 0.97861 0.0
H716 H 0.69556 0.13142 0.92704 0.0
H717 H 0.70783 0.106 0.91801 0.0
H718 H 0.69643 0.09744 0.92684 0.0
H719 H 0.68412 0.1228 0.93584 0.0
C720 C 0.1895 0.40531 0.19285 0.0
C721 C 0.18897 0.40953 0.18423 0.0
C722 C 0.20149 0.39997 0.17855 0.0
C723 C 0.19487 0.40688 0.17715 0.0
C724 C 0.20205 0.39581 0.18726 0.0
C725 C 0.19609 0.39846 0.19435 0.0
U726 U 0.17044 0.42082 0.20084 0.0
O727 O 0.15732 0.41788 0.20777 0.0
O728 O 0.16735 0.42708 0.21423 0.0
C729 C 0.15957 0.42255 0.21514 0.0
C730 C 0.18302 0.40794 0.20014 0.0
C731 C 0.15838 0.41761 0.22385 0.0
C732 C 0.16267 0.40532 0.23424 0.0
C733 C 0.16418 0.4103 0.22617 0.0
C734 C 0.14962 0.41502 0.23782 0.0
C735 C 0.15529 0.40755 0.24011 0.0
C736 C 0.15114 0.42 0.22975 0.0
C737 C 0.16313 0.43916 0.18284 0.0
C738 C 0.14835 0.4451 0.17773 0.0
C739 C 0.16245 0.45263 0.17305 0.0
C740 C 0.16755 0.4463 0.17815 0.0
C741 C 0.15282 0.45189 0.1725 0.0
C742 C 0.15346 0.43879 0.18287 0.0
C743 C 0.16878 0.4316 0.18651 0.0
O744 O 0.18449 0.41601 0.20386 0.0
O745 O 0.17431 0.40651 0.19815 0.0
O746 O 0.16476 0.42355 0.18718 0.0
O747 O 0.17425 0.43349 0.19344 0.0
H748 H 0.18389 0.41482 0.18294 0.0
H749 H 0.19411 0.41013 0.17051 0.0
H750 H 0.20711 0.39054 0.18861 0.0
H751 H 0.1966 0.39514 0.20097 0.0
H752 H 0.16725 0.3997 0.23585 0.0
H753 H 0.16981 0.40837 0.22169 0.0
H754 H 0.14382 0.41686 0.24212 0.0
H755 H 0.14658 0.42561 0.22803 0.0
H756 H 0.14093 0.44443 0.17754 0.0
H757 H 0.16613 0.4577 0.16904 0.0
H758 H 0.175 0.44669 0.178 0.0
H759 H 0.14987 0.43337 0.18648 0.0
C760 C 0.86948 0.93504 0.44178 0.0
C761 C 0.86766 0.93275 0.4326 0.0
C762 C 0.87583 0.94636 0.42741 0.0
C763 C 0.87085 0.93833 0.42549 0.0
C764 C 0.87752 0.94872 0.43662 0.0
C765 C 0.87439 0.94307 0.44375 0.0
U766 U 0.85258 0.91728 0.45004 0.0
O767 O 0.85453 0.90441 0.45762 0.0
O768 O 0.84568 0.91517 0.46334 0.0
C769 C 0.84972 0.90722 0.46472 0.0
C770 C 0.86617 0.92908 0.44925 0.0
C771 C 0.85427 0.90608 0.47365 0.0
C772 C 0.86695 0.9093 0.48401 0.0
C773 C 0.86241 0.91084 0.4757 0.0
C774 C 0.85519 0.89836 0.48838 0.0
C775 C 0.86345 0.90297 0.49043 0.0
C776 C 0.85065 0.8999 0.48006 0.0
C777 C 0.83439 0.91014 0.43178 0.0
C778 C 0.82783 0.8956 0.42689 0.0
C779 C 0.82088 0.90985 0.42196 0.0
C780 C 0.82742 0.91475 0.42698 0.0
C781 C 0.82121 0.90022 0.42158 0.0
C782 C 0.83436 0.90051 0.43196 0.0
C783 C 0.84218 0.91552 0.43543 0.0
O784 O 0.85802 0.93116 0.45257 0.0
O785 O 0.86723 0.92025 0.44781 0.0
O786 O 0.85001 0.91114 0.43656 0.0
O787 O 0.84036 0.92138 0.44203 0.0
H788 H 0.86377 0.92664 0.43093 0.0
H789 H 0.8693 0.93641 0.41848 0.0
H790 H 0.88136 0.95486 0.43829 0.0
H791 H 0.87582 0.94497 0.45079 0.0
H792 H 0.87336 0.91288 0.4853 0.0
H793 H 0.86532 0.91562 0.47079 0.0
H794 H 0.85224 0.89353 0.4932 0.0
H795 H 0.84437 0.89618 0.47858 0.0
H796 H 0.82819 0.88818 0.42683 0.0
H797 H 0.81595 0.91364 0.41788 0.0
H798 H 0.82734 0.92217 0.42672 0.0
H799 H 0.83963 0.89677 0.43565 0.0
C800 C 0.83599 0.11469 0.19243 0.0
C801 C 0.83764 0.11183 0.1834 0.0
C802 C 0.82408 0.12012 0.17811 0.0
C803 C 0.83179 0.11455 0.17631 0.0
C804 C 0.82243 0.12293 0.18721 0.0
C805 C 0.82834 0.12024 0.19431 0.0
U806 U 0.85462 0.09878 0.20062 0.0
O807 O 0.86765 0.10141 0.20782 0.0
O808 O 0.85732 0.09233 0.21401 0.0
C809 C 0.86515 0.09672 0.21511 0.0
C810 C 0.84227 0.11186 0.19983 0.0
C811 C 0.86623 0.1016 0.22387 0.0
C812 C 0.86201 0.11402 0.23413 0.0
C813 C 0.86057 0.10908 0.22603 0.0
C814 C 0.87467 0.10395 0.23807 0.0
C815 C 0.86915 0.11159 0.24019 0.0
C816 C 0.87322 0.09901 0.22996 0.0
C817 C 0.86194 0.08053 0.18252 0.0
C818 C 0.87667 0.07434 0.17754 0.0
C819 C 0.86249 0.06714 0.1726 0.0
C820 C 0.85745 0.07352 0.17769 0.0
C821 C 0.87215 0.06768 0.17219 0.0
C822 C 0.87161 0.0807 0.18267 0.0
C823 C 0.85639 0.08815 0.1862 0.0
O824 O 0.84057 0.10376 0.20341 0.0
O825 O 0.85105 0.11319 0.19809 0.0
O826 O 0.86055 0.09611 0.18705 0.0
O827 O 0.85075 0.08628 0.193 0.0
H828 H 0.84351 0.10752 0.18181 0.0
H829 H 0.83341 0.11238 0.16939 0.0
H830 H 0.81651 0.12713 0.18887 0.0
H831 H 0.82694 0.12248 0.20126 0.0
H832 H 0.85754 0.11977 0.23561 0.0
H833 H 0.85513 0.11116 0.2214 0.0
H834 H 0.88028 0.10195 0.24252 0.0
H835 H 0.87767 0.09327 0.22837 0.0
H836 H 0.88411 0.07486 0.17746 0.0
H837 H 0.85877 0.06219 0.1685 0.0
H838 H 0.84999 0.07328 0.17745 0.0
H839 H 0.87526 0.08601 0.18638 0.0
C840 C 0.36842 0.5827 0.57805 0.0
C841 C 0.36482 0.58393 0.5869 0.0
C842 C 0.37465 0.57175 0.59274 0.0
C843 C 0.36792 0.57853 0.59417 0.0
C844 C 0.3781 0.5704 0.58381 0.0
C845 C 0.37503 0.57587 0.57652 0.0
U846 U 0.35194 0.60072 0.5698 0.0
O847 O 0.35414 0.61363 0.56236 0.0
O848 O 0.34513 0.60307 0.55651 0.0
C849 C 0.34929 0.61097 0.55523 0.0
C850 C 0.36535 0.5887 0.57054 0.0
C851 C 0.35384 0.61219 0.5463 0.0
C852 C 0.36654 0.60914 0.5359 0.0
C853 C 0.36201 0.60751 0.54421 0.0
C854 C 0.35468 0.62 0.53161 0.0
C855 C 0.36299 0.61548 0.52953 0.0
C856 C 0.35016 0.61836 0.53992 0.0
C857 C 0.33386 0.60803 0.5881 0.0
C858 C 0.32753 0.6227 0.59288 0.0
C859 C 0.3205 0.6086 0.59813 0.0
C860 C 0.32692 0.60356 0.59308 0.0
C861 C 0.32093 0.61822 0.59836 0.0
C862 C 0.33393 0.61765 0.58778 0.0
C863 C 0.34154 0.60252 0.58442 0.0
O864 O 0.35719 0.58679 0.56715 0.0
O865 O 0.36654 0.5975 0.57208 0.0
O866 O 0.34945 0.60677 0.58333 0.0
O867 O 0.33962 0.59676 0.57776 0.0
H868 H 0.35965 0.58913 0.58819 0.0
H869 H 0.36501 0.57963 0.60092 0.0
H870 H 0.38332 0.56526 0.58251 0.0
H871 H 0.37787 0.57484 0.56973 0.0
H872 H 0.37298 0.60563 0.53458 0.0
H873 H 0.36496 0.60274 0.54909 0.0
H874 H 0.35169 0.62483 0.52682 0.0
H875 H 0.34384 0.62202 0.54143 0.0
H876 H 0.32797 0.63011 0.59282 0.0
H877 H 0.31559 0.60492 0.60235 0.0
H878 H 0.32676 0.59614 0.59345 0.0
H879 H 0.33919 0.62128 0.58395 0.0
C880 C 0.18808 0.615 0.3282 0.0
C881 C 0.18648 0.61209 0.33723 0.0
C882 C 0.20004 0.62039 0.34251 0.0
C883 C 0.19235 0.61479 0.34431 0.0
C884 C 0.20164 0.62326 0.33342 0.0
C885 C 0.19571 0.62059 0.32632 0.0
U886 U 0.16951 0.59899 0.32017 0.0
O887 O 0.15644 0.60146 0.31301 0.0
O888 O 0.16679 0.59239 0.30686 0.0
C889 C 0.1589 0.59667 0.30577 0.0
C890 C 0.1818 0.61214 0.32082 0.0
C891 C 0.15762 0.60131 0.29692 0.0
C892 C 0.16091 0.61391 0.28652 0.0
C893 C 0.16254 0.60931 0.29479 0.0
C894 C 0.14955 0.60248 0.28238 0.0
C895 C 0.15434 0.6106 0.28024 0.0
C896 C 0.15118 0.59789 0.29064 0.0
C897 C 0.16235 0.58079 0.33836 0.0
C898 C 0.14763 0.57445 0.34315 0.0
C899 C 0.16182 0.56741 0.34828 0.0
C900 C 0.16686 0.57384 0.34325 0.0
C901 C 0.15215 0.56784 0.34856 0.0
C902 C 0.15268 0.58087 0.33809 0.0
C903 C 0.16788 0.58844 0.33467 0.0
O904 O 0.18352 0.60404 0.31726 0.0
O905 O 0.17302 0.61344 0.32258 0.0
O906 O 0.16367 0.59637 0.33379 0.0
O907 O 0.17351 0.58658 0.32786 0.0
H908 H 0.18063 0.60775 0.33882 0.0
H909 H 0.19077 0.61258 0.35122 0.0
H910 H 0.20755 0.62749 0.33176 0.0
H911 H 0.19708 0.62286 0.31938 0.0
H912 H 0.16464 0.6202 0.28517 0.0
H913 H 0.16752 0.61206 0.29959 0.0
H914 H 0.14453 0.59968 0.27766 0.0
H915 H 0.14734 0.59171 0.29218 0.0
H916 H 0.14018 0.57488 0.34314 0.0
H917 H 0.16553 0.56249 0.35243 0.0
H918 H 0.17431 0.57368 0.34358 0.0
H919 H 0.14903 0.58613 0.33432 0.0
C920 C 0.33612 0.40458 0.82796 0.0
C921 C 0.33779 0.40743 0.837 0.0
C922 C 0.32423 0.39915 0.84232 0.0
C923 C 0.33195 0.4047 0.8441 0.0
C924 C 0.32255 0.39635 0.83322 0.0
C925 C 0.32846 0.39904 0.8261 0.0
U926 U 0.3547 0.42056 0.81975 0.0
O927 O 0.36774 0.418 0.81253 0.0
O928 O 0.35738 0.42704 0.80636 0.0
C929 C 0.36523 0.42269 0.80525 0.0
C930 C 0.34238 0.40743 0.82054 0.0
C931 C 0.36636 0.41785 0.79647 0.0
C932 C 0.36234 0.40535 0.78623 0.0
C933 C 0.36084 0.41026 0.79433 0.0
C934 C 0.37478 0.41568 0.78223 0.0
C935 C 0.36942 0.40793 0.78013 0.0
C936 C 0.37326 0.42059 0.79034 0.0
C937 C 0.36195 0.43879 0.83792 0.0
C938 C 0.37662 0.44497 0.84305 0.0
C939 C 0.36239 0.45216 0.84785 0.0
C940 C 0.3574 0.44579 0.8427 0.0
C941 C 0.37204 0.45162 0.84836 0.0
C942 C 0.37162 0.43861 0.83787 0.0
C943 C 0.35643 0.43115 0.8342 0.0
O944 O 0.34066 0.41553 0.81698 0.0
O945 O 0.35116 0.40613 0.82226 0.0
O946 O 0.36061 0.42321 0.83332 0.0
O947 O 0.35079 0.43303 0.8274 0.0
H948 H 0.34367 0.41173 0.83857 0.0
H949 H 0.33359 0.40686 0.85102 0.0
H950 H 0.31662 0.39217 0.83158 0.0
H951 H 0.32704 0.39682 0.81916 0.0
H952 H 0.358 0.3995 0.78476 0.0
H953 H 0.35546 0.40806 0.79899 0.0
H954 H 0.38034 0.4178 0.77775 0.0
H955 H 0.37761 0.42642 0.79192 0.0
H956 H 0.38406 0.44444 0.84321 0.0
H957 H 0.35863 0.45712 0.85192 0.0
H958 H 0.34995 0.44603 0.84287 0.0
H959 H 0.37531 0.4333 0.8342 0.0
C960 C 0.94485 0.8646 0.58347 0.0
C961 C 0.93578 0.86181 0.58524 0.0
C962 C 0.9304 0.86998 0.57168 0.0
C963 C 0.92863 0.86451 0.57944 0.0
C964 C 0.93953 0.87272 0.56991 0.0
C965 C 0.9467 0.87005 0.57577 0.0
U966 U 0.95312 0.84869 0.602 0.0
O967 O 0.9665 0.84208 0.60455 0.0
O968 O 0.96054 0.85127 0.61488 0.0
C969 C 0.96775 0.84647 0.61233 0.0
C970 C 0.95232 0.86175 0.58966 0.0
C971 C 0.97665 0.85117 0.61333 0.0
C972 C 0.98701 0.86366 0.60945 0.0
C973 C 0.97868 0.85902 0.60816 0.0
C974 C 0.99143 0.85256 0.621 0.0
C975 C 0.99347 0.86052 0.61593 0.0
C976 C 0.98309 0.84793 0.6197 0.0
C977 C 0.9348 0.83058 0.6094 0.0
C978 C 0.92958 0.82443 0.62402 0.0
C979 C 0.92486 0.81718 0.60985 0.0
C980 C 0.93004 0.82354 0.60488 0.0
C981 C 0.92429 0.81775 0.61946 0.0
C982 C 0.93479 0.83079 0.61904 0.0
C983 C 0.93855 0.8382 0.60388 0.0
O984 O 0.95067 0.86312 0.59842 0.0
O985 O 0.95584 0.85363 0.58796 0.0
O986 O 0.94531 0.83628 0.59819 0.0
O987 O 0.93954 0.84613 0.60805 0.0
H988 H 0.93421 0.85758 0.59115 0.0
H989 H 0.92169 0.8624 0.58114 0.0
H990 H 0.94117 0.87683 0.56394 0.0
H991 H 0.95367 0.87223 0.57427 0.0
H992 H 0.98829 0.86983 0.60552 0.0
H993 H 0.97375 0.86164 0.60323 0.0
H994 H 0.99628 0.84989 0.62596 0.0
H995 H 0.98163 0.84186 0.62373 0.0
H996 H 0.92938 0.82498 0.63143 0.0
H997 H 0.9208 0.8122 0.6061 0.0
H998 H 0.92991 0.82327 0.59745 0.0
H999 H 0.93845 0.83612 0.62271 0.0
C1000 C 0.90463 0.19164 0.33519 0.0
C1001 C 0.90659 0.18249 0.33744 0.0
C1002 C 0.89823 0.17722 0.32397 0.0
C1003 C 0.90338 0.17535 0.33192 0.0
C1004 C 0.89637 0.1864 0.32166 0.0
C1005 C 0.89952 0.19355 0.32726 0.0
U1006 U 0.92211 0.20003 0.35229 0.0
O1007 O 0.92911 0.21332 0.35396 0.0
O1008 O 0.92065 0.20777 0.36514 0.0
C1009 C 0.92535 0.21482 0.36203 0.0
C1010 C 0.90808 0.19914 0.34101 0.0
C1011 C 0.92082 0.22376 0.36317 0.0
C1012 C 0.90816 0.23414 0.35994 0.0
C1013 C 0.91268 0.2258 0.35843 0.0
C1014 C 0.91995 0.23852 0.37083 0.0
C1015 C 0.9117 0.24057 0.36622 0.0
C1016 C 0.92447 0.23018 0.36931 0.0
C1017 C 0.94067 0.18165 0.3586 0.0
C1018 C 0.94695 0.17299 0.37144 0.0
C1019 C 0.95586 0.17467 0.3575 0.0
C1020 C 0.94883 0.17999 0.35369 0.0
C1021 C 0.95485 0.17081 0.36629 0.0
C1022 C 0.93993 0.17833 0.36763 0.0
C1023 C 0.93257 0.18543 0.35372 0.0
O1024 O 0.90736 0.19773 0.34989 0.0
O1025 O 0.91613 0.20249 0.33861 0.0
O1026 O 0.93407 0.19196 0.34768 0.0
O1027 O 0.92499 0.18664 0.35851 0.0
H1028 H 0.91064 0.18085 0.34347 0.0
H1029 H 0.90506 0.16837 0.33379 0.0
H1030 H 0.8924 0.18804 0.3156 0.0
H1031 H 0.89799 0.20057 0.32539 0.0
H1032 H 0.90175 0.23542 0.35636 0.0
H1033 H 0.90974 0.22089 0.35369 0.0
H1034 H 0.92293 0.24335 0.37563 0.0
H1035 H 0.93076 0.22871 0.37302 0.0
H1036 H 0.9459 0.17006 0.37818 0.0
H1037 H 0.96191 0.17324 0.3534 0.0
H1038 H 0.94958 0.18239 0.34669 0.0
H1039 H 0.93372 0.17941 0.37159 0.0
C1040 C 0.57939 0.15359 0.08445 0.0
C1041 C 0.58858 0.15543 0.08679 0.0
C1042 C 0.59389 0.14711 0.07332 0.0
C1043 C 0.59575 0.15218 0.0813 0.0
C1044 C 0.58467 0.14541 0.0709 0.0
C1045 C 0.57747 0.1486 0.07645 0.0
U1046 U 0.57104 0.17039 0.10222 0.0
O1047 O 0.55773 0.17736 0.10418 0.0
O1048 O 0.56322 0.16841 0.11497 0.0
C1049 C 0.55617 0.17325 0.11206 0.0
C1050 C 0.57185 0.15692 0.09034 0.0
C1051 C 0.54717 0.16871 0.11295 0.0
C1052 C 0.53675 0.15628 0.1091 0.0
C1053 C 0.54515 0.16081 0.10787 0.0
C1054 C 0.53226 0.16759 0.12042 0.0
C1055 C 0.53022 0.15957 0.11545 0.0
C1056 C 0.54067 0.17212 0.11917 0.0
C1057 C 0.58955 0.1883 0.10961 0.0
C1058 C 0.59482 0.19462 0.12413 0.0
C1059 C 0.59943 0.20175 0.10984 0.0
C1060 C 0.59426 0.19531 0.10498 0.0
C1061 C 0.60005 0.20128 0.11946 0.0
C1062 C 0.58961 0.18819 0.11925 0.0
C1063 C 0.58579 0.1806 0.10421 0.0
O1064 O 0.57318 0.15581 0.09919 0.0
O1065 O 0.56864 0.16508 0.08825 0.0
O1066 O 0.57926 0.1825 0.09827 0.0
O1067 O 0.5845 0.17281 0.10857 0.0
H1068 H 0.59021 0.15937 0.09287 0.0
H1069 H 0.60278 0.15373 0.08326 0.0
H1070 H 0.58303 0.14151 0.06479 0.0
H1071 H 0.57041 0.14716 0.07452 0.0
H1072 H 0.53547 0.15006 0.10526 0.0
H1073 H 0.55013 0.15806 0.10306 0.0
H1074 H 0.52736 0.17038 0.12527 0.0
H1075 H 0.54212 0.17822 0.12315 0.0
H1076 H 0.59507 0.19415 0.13154 0.0
H1077 H 0.60345 0.20671 0.10602 0.0
H1078 H 0.59435 0.1955 0.09755 0.0
H1079 H 0.586 0.18289 0.12301 0.0
C1080 C 0.61709 0.82725 0.8337 0.0
C1081 C 0.61348 0.83608 0.83486 0.0
C1082 C 0.62322 0.84183 0.82255 0.0
C1083 C 0.61653 0.84331 0.82937 0.0
C1084 C 0.62668 0.83291 0.82126 0.0
C1085 C 0.62366 0.82568 0.82683 0.0
U1086 U 0.60079 0.81912 0.85197 0.0
O1087 O 0.59405 0.80584 0.85453 0.0
O1088 O 0.60315 0.81182 0.86495 0.0
C1089 C 0.59831 0.80465 0.8624 0.0
C1090 C 0.61409 0.81979 0.83981 0.0
C1091 C 0.60293 0.79577 0.86362 0.0
C1092 C 0.61553 0.78535 0.86026 0.0
C1093 C 0.61093 0.79363 0.85867 0.0
C1094 C 0.6041 0.78122 0.87164 0.0
C1095 C 0.61222 0.77908 0.86683 0.0
C1096 C 0.5995 0.78949 0.87004 0.0
C1097 C 0.58273 0.83753 0.85917 0.0
C1098 C 0.57656 0.84278 0.87377 0.0
C1099 C 0.56944 0.84764 0.85956 0.0
C1100 C 0.57577 0.8424 0.85462 0.0
C1101 C 0.56997 0.84817 0.86918 0.0
C1102 C 0.58288 0.8375 0.86881 0.0
C1103 C 0.59037 0.83372 0.8537 0.0
O1104 O 0.61535 0.82143 0.84859 0.0
O1105 O 0.60592 0.81636 0.83801 0.0
O1106 O 0.58842 0.82698 0.84804 0.0
O1107 O 0.5983 0.83269 0.85791 0.0
H1108 H 0.60835 0.83741 0.8401 0.0
H1109 H 0.61361 0.85006 0.83043 0.0
H1110 H 0.63187 0.83158 0.81608 0.0
H1111 H 0.62651 0.81889 0.82583 0.0
H1112 H 0.62183 0.784 0.85652 0.0
H1113 H 0.61369 0.79842 0.85371 0.0
H1114 H 0.60129 0.77651 0.87666 0.0
H1115 H 0.59332 0.79104 0.87391 0.0
H1116 H 0.57707 0.84295 0.88118 0.0
H1117 H 0.56453 0.85177 0.8558 0.0
H1118 H 0.57555 0.84256 0.84719 0.0
H1119 H 0.58815 0.83376 0.8725 0.0
C1120 C 0.9446 0.15391 0.93598 0.0
C1121 C 0.93539 0.15582 0.93379 0.0
C1122 C 0.93021 0.14751 0.94732 0.0
C1123 C 0.92827 0.15261 0.93937 0.0
C1124 C 0.93946 0.14577 0.94962 0.0
C1125 C 0.9466 0.14892 0.94396 0.0
U1126 U 0.95282 0.1706 0.91805 0.0
O1127 O 0.96621 0.17727 0.91565 0.0
O1128 O 0.96017 0.16845 0.90504 0.0
C1129 C 0.96743 0.17312 0.90773 0.0
C1130 C 0.95206 0.15713 0.92994 0.0
C1131 C 0.97626 0.16834 0.90654 0.0
C1132 C 0.98724 0.15671 0.91128 0.0
C1133 C 0.97914 0.16167 0.91284 0.0
C1134 C 0.98973 0.16515 0.89718 0.0
C1135 C 0.99257 0.15829 0.90336 0.0
C1136 C 0.98165 0.17012 0.89876 0.0
C1137 C 0.9344 0.18877 0.91112 0.0
C1138 C 0.92901 0.19516 0.89667 0.0
C1139 C 0.92449 0.20219 0.91102 0.0
C1140 C 0.92972 0.19574 0.91582 0.0
C1141 C 0.9238 0.20177 0.90141 0.0
C1142 C 0.93428 0.18872 0.90148 0.0
C1143 C 0.9382 0.18105 0.91645 0.0
O1144 O 0.95051 0.15605 0.92113 0.0
O1145 O 0.95546 0.16524 0.93195 0.0
O1146 O 0.94495 0.18288 0.92217 0.0
O1147 O 0.93922 0.17323 0.9121 0.0
H1148 H 0.93369 0.15977 0.92773 0.0
H1149 H 0.92123 0.15419 0.93751 0.0
H1150 H 0.94115 0.14184 0.95569 0.0
H1151 H 0.95367 0.14742 0.94578 0.0
H1152 H 0.98927 0.15158 0.91625 0.0
H1153 H 0.97505 0.16019 0.91888 0.0
H1154 H 0.99358 0.16647 0.89095 0.0
H1155 H 0.97949 0.17521 0.8938 0.0
H1156 H 0.92872 0.19473 0.88926 0.0
H1157 H 0.92049 0.20712 0.9149 0.0
H1158 H 0.92968 0.19589 0.92325 0.0
H1159 H 0.93787 0.18344 0.89766 0.0
C1160 C 0.61715 0.19194 0.68605 0.0
C1161 C 0.61434 0.18292 0.68427 0.0
C1162 C 0.62258 0.1775 0.69777 0.0
C1163 C 0.61706 0.17578 0.69002 0.0
C1164 C 0.62535 0.18658 0.69956 0.0
C1165 C 0.62266 0.19374 0.69373 0.0
U1166 U 0.601 0.20015 0.66772 0.0
O1167 O 0.59427 0.21344 0.6652 0.0
O1168 O 0.60339 0.20749 0.65478 0.0
C1169 C 0.59856 0.21466 0.65734 0.0
C1170 C 0.61424 0.19941 0.67991 0.0
C1171 C 0.60321 0.22353 0.6562 0.0
C1172 C 0.61579 0.23392 0.65972 0.0
C1173 C 0.61116 0.22564 0.66122 0.0
C1174 C 0.60447 0.23813 0.64827 0.0
C1175 C 0.61254 0.24024 0.65317 0.0
C1176 C 0.59985 0.22984 0.64978 0.0
C1177 C 0.58284 0.18181 0.66055 0.0
C1178 C 0.57665 0.17645 0.646 0.0
C1179 C 0.56937 0.17193 0.66025 0.0
C1180 C 0.57578 0.17714 0.66514 0.0
C1181 C 0.56994 0.17125 0.65064 0.0
C1182 C 0.58305 0.18169 0.65091 0.0
C1183 C 0.59052 0.18559 0.66599 0.0
O1184 O 0.61554 0.1978 0.67113 0.0
O1185 O 0.60609 0.2029 0.6817 0.0
O1186 O 0.5886 0.19232 0.67168 0.0
O1187 O 0.59845 0.1866 0.66175 0.0
H1188 H 0.61006 0.18139 0.67837 0.0
H1189 H 0.61493 0.16888 0.68831 0.0
H1190 H 0.6295 0.18818 0.70551 0.0
H1191 H 0.62484 0.20068 0.69525 0.0
H1192 H 0.62205 0.23526 0.66353 0.0
H1193 H 0.61387 0.22082 0.66619 0.0
H1194 H 0.60172 0.24287 0.64326 0.0
H1195 H 0.59371 0.22832 0.64585 0.0
H1196 H 0.5772 0.17615 0.6386 0.0
H1197 H 0.56436 0.16795 0.66406 0.0
H1198 H 0.57551 0.1771 0.67257 0.0
H1199 H 0.58841 0.18527 0.64717 0.0
C1200 C 0.57959 0.86562 0.43649 0.0
C1201 C 0.58878 0.86369 0.43423 0.0
C1202 C 0.59406 0.87207 0.44766 0.0
C1203 C 0.59594 0.86693 0.43973 0.0
C1204 C 0.58483 0.87383 0.45003 0.0
C1205 C 0.57765 0.87066 0.44445 0.0
U1206 U 0.57122 0.84898 0.41857 0.0
O1207 O 0.55783 0.84226 0.41635 0.0
O1208 O 0.56366 0.85117 0.4057 0.0
C1209 C 0.55647 0.84645 0.40848 0.0
C1210 C 0.57208 0.86238 0.43052 0.0
C1211 C 0.5476 0.85119 0.40748 0.0
C1212 C 0.53681 0.86296 0.4123 0.0
C1213 C 0.54496 0.85805 0.41368 0.0
C1214 C 0.53377 0.85411 0.39857 0.0
C1215 C 0.53117 0.86114 0.40465 0.0
C1216 C 0.54192 0.84919 0.39997 0.0
C1217 C 0.58957 0.8309 0.41122 0.0
C1218 C 0.59522 0.8248 0.39674 0.0
C1219 C 0.59913 0.81722 0.41099 0.0
C1220 C 0.59393 0.82367 0.41583 0.0
C1221 C 0.60012 0.81791 0.40142 0.0
C1222 C 0.58999 0.83123 0.40159 0.0
C1223 C 0.58585 0.83859 0.41666 0.0
O1224 O 0.57352 0.86352 0.42169 0.0
O1225 O 0.56875 0.85425 0.43254 0.0
O1226 O 0.5792 0.83672 0.4225 0.0
O1227 O 0.58475 0.84645 0.41238 0.0
H1228 H 0.59043 0.85971 0.42817 0.0
H1229 H 0.60297 0.86533 0.43782 0.0
H1230 H 0.58318 0.8778 0.45609 0.0
H1231 H 0.5706 0.87218 0.44632 0.0
H1232 H 0.53496 0.86823 0.4172 0.0
H1233 H 0.54928 0.8597 0.41951 0.0
H1234 H 0.52968 0.8526 0.39255 0.0
H1235 H 0.54389 0.84395 0.39508 0.0
H1236 H 0.59576 0.82544 0.38935 0.0
H1237 H 0.60288 0.81208 0.41482 0.0
H1238 H 0.59375 0.8233 0.42326 0.0
H1239 H 0.58666 0.83671 0.39783 0.0
C1240 C 0.90488 0.82768 0.18523 0.0
C1241 C 0.90687 0.83683 0.18296 0.0
C1242 C 0.89854 0.84214 0.19644 0.0
C1243 C 0.90368 0.84398 0.18848 0.0
C1244 C 0.89666 0.83296 0.19877 0.0
C1245 C 0.89979 0.82579 0.19318 0.0
U1246 U 0.92234 0.8191 0.16816 0.0
O1247 O 0.92915 0.80573 0.16644 0.0
O1248 O 0.92082 0.81144 0.15527 0.0
C1249 C 0.92541 0.80432 0.15835 0.0
C1250 C 0.90828 0.82016 0.1794 0.0
C1251 C 0.92077 0.79544 0.15714 0.0
C1252 C 0.90801 0.78515 0.16033 0.0
C1253 C 0.91262 0.79343 0.16189 0.0
C1254 C 0.91973 0.78077 0.14934 0.0
C1255 C 0.91147 0.77875 0.15397 0.0
C1256 C 0.92433 0.78905 0.15091 0.0
C1257 C 0.94121 0.83723 0.16195 0.0
C1258 C 0.94771 0.84548 0.14895 0.0
C1259 C 0.95629 0.84441 0.16313 0.0
C1260 C 0.94923 0.83915 0.16697 0.0
C1261 C 0.95545 0.84795 0.15419 0.0
C1262 C 0.94065 0.8402 0.15279 0.0
C1263 C 0.93304 0.83355 0.16681 0.0
O1264 O 0.90762 0.8216 0.17052 0.0
O1265 O 0.91627 0.81669 0.18182 0.0
O1266 O 0.93442 0.82698 0.17283 0.0
O1267 O 0.92546 0.83248 0.16201 0.0
H1268 H 0.91091 0.83844 0.17692 0.0
H1269 H 0.90537 0.85096 0.18658 0.0
H1270 H 0.89269 0.83134 0.20485 0.0
H1271 H 0.89824 0.81878 0.19507 0.0
H1272 H 0.90161 0.78389 0.16393 0.0
H1273 H 0.90975 0.79832 0.1667 0.0
H1274 H 0.92264 0.77595 0.14448 0.0
H1275 H 0.93062 0.7905 0.14719 0.0
H1276 H 0.94678 0.84816 0.14208 0.0
H1277 H 0.96222 0.84607 0.16731 0.0
H1278 H 0.94983 0.83701 0.17406 0.0
H1279 H 0.93455 0.83889 0.14873 0.0
C1280 C 0.58764 0.9421 0.86687 0.0
C1281 C 0.58988 0.93294 0.86491 0.0
C1282 C 0.57638 0.92769 0.8733 0.0
C1283 C 0.58433 0.92582 0.86813 0.0
C1284 C 0.57407 0.93688 0.87514 0.0
C1285 C 0.57969 0.94402 0.87198 0.0
U1286 U 0.60476 0.95058 0.84941 0.0
O1287 O 0.60651 0.96394 0.84259 0.0
O1288 O 0.61771 0.95823 0.85089 0.0
C1289 C 0.61462 0.96536 0.84633 0.0
C1290 C 0.5935 0.94959 0.86344 0.0
C1291 C 0.6158 0.97422 0.85099 0.0
C1292 C 0.61243 0.98447 0.86367 0.0
C1293 C 0.61091 0.97622 0.85904 0.0
C1294 C 0.62366 0.98887 0.85218 0.0
C1295 C 0.61889 0.99087 0.86034 0.0
C1296 C 0.62212 0.98061 0.84755 0.0
C1297 C 0.61092 0.93235 0.83068 0.0
C1298 C 0.62395 0.92405 0.82423 0.0
C1299 C 0.60967 0.925 0.81574 0.0
C1300 C 0.60584 0.93034 0.82274 0.0
C1301 C 0.61865 0.92149 0.81657 0.0
C1302 C 0.62012 0.92941 0.83122 0.0
C1303 C 0.60607 0.93609 0.8388 0.0
O1304 O 0.60241 0.94813 0.86409 0.0
O1305 O 0.59107 0.95303 0.85547 0.0
O1306 O 0.60006 0.94268 0.8374 0.0
O1307 O 0.6109 0.93719 0.84635 0.0
H1308 H 0.59591 0.9313 0.86086 0.0
H1309 H 0.5862 0.91883 0.86646 0.0
H1310 H 0.568 0.93853 0.87913 0.0
H1311 H 0.57783 0.95105 0.87351 0.0
H1312 H 0.60874 0.98573 0.87 0.0
H1313 H 0.60604 0.97132 0.86181 0.0
H1314 H 0.62859 0.99368 0.84937 0.0
H1315 H 0.62595 0.97917 0.84133 0.0
H1316 H 0.63085 0.9214 0.82515 0.0
H1317 H 0.60544 0.92327 0.80987 0.0
H1318 H 0.59872 0.93246 0.82215 0.0
H1319 H 0.62423 0.93079 0.83726 0.0
C1320 C 0.8301 0.83474 0.61676 0.0
C1321 C 0.8393 0.83697 0.61482 0.0
C1322 C 0.84454 0.82351 0.62317 0.0
C1323 C 0.84645 0.83144 0.61803 0.0
C1324 C 0.83531 0.8212 0.62497 0.0
C1325 C 0.82814 0.8268 0.62182 0.0
U1326 U 0.8218 0.85238 0.59983 0.0
O1327 O 0.80845 0.85443 0.59295 0.0
O1328 O 0.81417 0.86525 0.60172 0.0
C1329 C 0.80705 0.86239 0.59696 0.0
C1330 C 0.8226 0.84066 0.61344 0.0
C1331 C 0.79809 0.8635 0.60152 0.0
C1332 C 0.78765 0.86008 0.61408 0.0
C1333 C 0.79599 0.85858 0.60952 0.0
C1334 C 0.78336 0.87131 0.60261 0.0
C1335 C 0.78126 0.86652 0.61073 0.0
C1336 C 0.79171 0.8698 0.59805 0.0
C1337 C 0.84018 0.85943 0.58166 0.0
C1338 C 0.84572 0.87382 0.57526 0.0
C1339 C 0.84972 0.85946 0.56794 0.0
C1340 C 0.84457 0.85471 0.5745 0.0
C1341 C 0.85064 0.86904 0.56845 0.0
C1342 C 0.84052 0.86906 0.5818 0.0
C1343 C 0.83647 0.85411 0.58945 0.0
O1344 O 0.82403 0.8495 0.61444 0.0
O1345 O 0.81928 0.83852 0.60533 0.0
O1346 O 0.82986 0.84823 0.58767 0.0
O1347 O 0.83532 0.85853 0.59723 0.0
H1348 H 0.84096 0.84301 0.61081 0.0
H1349 H 0.85347 0.83332 0.61639 0.0
H1350 H 0.83364 0.81514 0.62894 0.0
H1351 H 0.82108 0.82495 0.62335 0.0
H1352 H 0.78632 0.85637 0.62038 0.0
H1353 H 0.80087 0.85372 0.61231 0.0
H1354 H 0.77857 0.87623 0.59978 0.0
H1355 H 0.79323 0.87365 0.59187 0.0
H1356 H 0.8462 0.88121 0.57576 0.0
H1357 H 0.85349 0.85556 0.56286 0.0
H1358 H 0.84444 0.84729 0.57428 0.0
H1359 H 0.83716 0.87289 0.58721 0.0
C1360 C 0.93981 0.07679 0.36357 0.0
C1361 C 0.93926 0.08541 0.35937 0.0
C1362 C 0.95178 0.09106 0.36894 0.0
C1363 C 0.94516 0.09248 0.36204 0.0
C1364 C 0.95236 0.08235 0.37308 0.0
C1365 C 0.94641 0.07527 0.37041 0.0
U1366 U 0.92071 0.06893 0.34806 0.0
O1367 O 0.91758 0.05559 0.34172 0.0
O1368 O 0.90758 0.06202 0.35099 0.0
C1369 C 0.90981 0.05467 0.34628 0.0
C1370 C 0.93332 0.06951 0.36093 0.0
C1371 C 0.90862 0.04595 0.3512 0.0
C1372 C 0.91291 0.03554 0.36347 0.0
C1373 C 0.91443 0.0436 0.3585 0.0
C1374 C 0.89983 0.03201 0.35378 0.0
C1375 C 0.90552 0.0297 0.36125 0.0
C1376 C 0.90137 0.04008 0.34882 0.0
C1377 C 0.91348 0.08714 0.32988 0.0
C1378 C 0.89872 0.09234 0.32395 0.0
C1379 C 0.91286 0.09725 0.31663 0.0
C1380 C 0.91793 0.09202 0.32287 0.0
C1381 C 0.90322 0.09774 0.31731 0.0
C1382 C 0.90381 0.08708 0.33018 0.0
C1383 C 0.91909 0.08334 0.3374 0.0
O1384 O 0.92462 0.0715 0.36239 0.0
O1385 O 0.93477 0.06584 0.35282 0.0
O1386 O 0.92451 0.0764 0.33543 0.0
O1387 O 0.91506 0.0826 0.34544 0.0
H1388 H 0.93417 0.08672 0.35409 0.0
H1389 H 0.94439 0.09912 0.35881 0.0
H1390 H 0.95743 0.08098 0.37834 0.0
H1391 H 0.94692 0.06864 0.37371 0.0
H1392 H 0.9175 0.03391 0.36909 0.0
H1393 H 0.92008 0.04807 0.36042 0.0
H1394 H 0.89403 0.02773 0.35195 0.0
H1395 H 0.89679 0.04181 0.34321 0.0
H1396 H 0.89129 0.09249 0.32457 0.0
H1397 H 0.91656 0.10139 0.31168 0.0
H1398 H 0.92538 0.0922 0.32254 0.0
H1399 H 0.90019 0.08333 0.33549 0.0
C1400 C 0.69432 0.18548 0.11659 0.0
C1401 C 0.68513 0.18319 0.11472 0.0
C1402 C 0.67985 0.19668 0.12301 0.0
C1403 C 0.67797 0.1887 0.11794 0.0
C1404 C 0.68908 0.19907 0.12472 0.0
C1405 C 0.69626 0.19348 0.12157 0.0
U1406 U 0.70261 0.16771 0.09979 0.0
O1407 O 0.71596 0.16558 0.09293 0.0
O1408 O 0.7102 0.15484 0.10178 0.0
C1409 C 0.71734 0.15765 0.097 0.0
C1410 C 0.70183 0.17955 0.1133 0.0
C1411 C 0.72628 0.15655 0.10159 0.0
C1412 C 0.73659 0.15983 0.11429 0.0
C1413 C 0.72828 0.16135 0.10968 0.0
C1414 C 0.74105 0.14882 0.10267 0.0
C1415 C 0.74304 0.15347 0.11089 0.0
C1416 C 0.73274 0.15035 0.09807 0.0
C1417 C 0.68416 0.16053 0.08176 0.0
C1418 C 0.67895 0.14602 0.07539 0.0
C1419 C 0.67425 0.16029 0.06833 0.0
C1420 C 0.67942 0.16516 0.07478 0.0
C1421 C 0.67368 0.15068 0.06877 0.0
C1422 C 0.68415 0.1509 0.08183 0.0
C1423 C 0.68791 0.16592 0.08948 0.0
O1424 O 0.70041 0.17072 0.11439 0.0
O1425 O 0.70513 0.18162 0.10516 0.0
O1426 O 0.69455 0.17176 0.08761 0.0
O1427 O 0.68907 0.16156 0.09729 0.0
H1428 H 0.68348 0.17711 0.11078 0.0
H1429 H 0.67094 0.18677 0.11637 0.0
H1430 H 0.69073 0.20516 0.12863 0.0
H1431 H 0.70332 0.19538 0.12303 0.0
H1432 H 0.73783 0.16343 0.12067 0.0
H1433 H 0.72334 0.16614 0.11252 0.0
H1434 H 0.7459 0.14397 0.09979 0.0
H1435 H 0.7313 0.1466 0.09182 0.0
H1436 H 0.67874 0.13861 0.07584 0.0
H1437 H 0.67021 0.16411 0.0634 0.0
H1438 H 0.67929 0.17258 0.07462 0.0
H1439 H 0.6878 0.14715 0.08711 0.0
C1440 C 0.58621 0.0775 0.65408 0.0
C1441 C 0.58847 0.08668 0.65587 0.0
C1442 C 0.57491 0.0918 0.64751 0.0
C1443 C 0.58291 0.09376 0.65258 0.0
C1444 C 0.57256 0.08259 0.64588 0.0
C1445 C 0.57819 0.07549 0.6491 0.0
U1446 U 0.60404 0.06933 0.67097 0.0
O1447 O 0.60618 0.05606 0.67785 0.0
O1448 O 0.61698 0.06178 0.66901 0.0
C1449 C 0.61416 0.05469 0.67381 0.0
C1450 C 0.59219 0.07007 0.65743 0.0
C1451 C 0.61531 0.04576 0.66928 0.0
C1452 C 0.61192 0.0353 0.65677 0.0
C1453 C 0.61038 0.04362 0.6613 0.0
C1454 C 0.62322 0.03113 0.66825 0.0
C1455 C 0.61843 0.02899 0.66014 0.0
C1456 C 0.62167 0.03945 0.67277 0.0
C1457 C 0.61119 0.08768 0.68905 0.0
C1458 C 0.62572 0.093 0.69541 0.0
C1459 C 0.61135 0.09737 0.70261 0.0
C1460 C 0.60651 0.09224 0.69611 0.0
C1461 C 0.621 0.09809 0.70213 0.0
C1462 C 0.62087 0.08784 0.68893 0.0
C1463 C 0.60581 0.08397 0.6813 0.0
O1464 O 0.60106 0.07151 0.65636 0.0
O1465 O 0.59009 0.0668 0.66557 0.0
O1466 O 0.59992 0.07737 0.68314 0.0
O1467 O 0.6102 0.08282 0.67349 0.0
H1468 H 0.59457 0.08838 0.6598 0.0
H1469 H 0.58482 0.10077 0.65409 0.0
H1470 H 0.56645 0.08089 0.64198 0.0
H1471 H 0.57631 0.06845 0.64769 0.0
H1472 H 0.6082 0.03394 0.65048 0.0
H1473 H 0.60547 0.04845 0.65848 0.0
H1474 H 0.62819 0.02639 0.6711 0.0
H1475 H 0.62552 0.041 0.67894 0.0
H1476 H 0.63316 0.09333 0.69493 0.0
H1477 H 0.60748 0.10128 0.70762 0.0
H1478 H 0.59905 0.09226 0.69631 0.0
H1479 H 0.62467 0.08434 0.68358 0.0
C1480 C 0.69452 0.83326 0.40521 0.0
C1481 C 0.68547 0.83497 0.4081 0.0
C1482 C 0.68004 0.82146 0.3999 0.0
C1483 C 0.67831 0.82918 0.40543 0.0
C1484 C 0.68915 0.81974 0.39706 0.0
C1485 C 0.69633 0.8256 0.3997 0.0
U1486 U 0.70274 0.85172 0.42116 0.0
O1487 O 0.71612 0.85437 0.42775 0.0
O1488 O 0.71002 0.86469 0.41865 0.0
C1489 C 0.71727 0.8622 0.42343 0.0
C1490 C 0.70199 0.83946 0.40804 0.0
C1491 C 0.72615 0.8634 0.41875 0.0
C1492 C 0.73653 0.86001 0.40612 0.0
C1493 C 0.72824 0.85846 0.41077 0.0
C1494 C 0.74079 0.87136 0.41748 0.0
C1495 C 0.74287 0.86655 0.40938 0.0
C1496 C 0.7325 0.8698 0.42212 0.0
C1497 C 0.68441 0.85892 0.43934 0.0
C1498 C 0.67908 0.87348 0.44549 0.0
C1499 C 0.67456 0.85928 0.45282 0.0
C1500 C 0.67975 0.85436 0.44642 0.0
C1501 C 0.67389 0.86888 0.45222 0.0
C1502 C 0.68431 0.86855 0.4391 0.0
C1503 C 0.68818 0.85344 0.4317 0.0
O1504 O 0.70031 0.84821 0.40671 0.0
O1505 O 0.70555 0.83775 0.41615 0.0
O1506 O 0.69498 0.84781 0.43359 0.0
O1507 O 0.68911 0.85763 0.42376 0.0
H1508 H 0.68392 0.84085 0.41238 0.0
H1509 H 0.67138 0.83085 0.40761 0.0
H1510 H 0.69076 0.81381 0.3929 0.0
H1511 H 0.70329 0.82414 0.39745 0.0
H1512 H 0.73784 0.85627 0.39984 0.0
H1513 H 0.72339 0.85351 0.40806 0.0
H1514 H 0.74556 0.87635 0.42024 0.0
H1515 H 0.731 0.87366 0.42829 0.0
H1516 H 0.6788 0.88088 0.44492 0.0
H1517 H 0.67058 0.85551 0.45784 0.0
H1518 H 0.67969 0.84694 0.44671 0.0
H1519 H 0.68789 0.87225 0.43373 0.0
C1520 C 0.93882 0.94223 0.1557 0.0
C1521 C 0.93764 0.93341 0.15936 0.0
C1522 C 0.94995 0.92757 0.14965 0.0
C1523 C 0.94312 0.92616 0.15635 0.0
C1524 C 0.95126 0.93647 0.14614 0.0
C1525 C 0.94571 0.94374 0.14912 0.0
U1526 U 0.92043 0.95058 0.17179 0.0
O1527 O 0.91788 0.96396 0.17831 0.0
O1528 O 0.90746 0.95791 0.16926 0.0
C1529 C 0.91005 0.96516 0.17395 0.0
C1530 C 0.9327 0.94971 0.15861 0.0
C1531 C 0.90902 0.97393 0.1691 0.0
C1532 C 0.91366 0.98444 0.15703 0.0
C1533 C 0.91505 0.97635 0.16198 0.0
C1534 C 0.90029 0.98787 0.16636 0.0
C1535 C 0.90619 0.99025 0.15907 0.0
C1536 C 0.9017 0.97978 0.17132 0.0
C1537 C 0.91304 0.93235 0.18996 0.0
C1538 C 0.89837 0.92707 0.19605 0.0
C1539 C 0.91259 0.92233 0.20328 0.0
C1540 C 0.91758 0.92756 0.19696 0.0
C1541 C 0.90295 0.92174 0.20268 0.0
C1542 C 0.90336 0.93233 0.18974 0.0
C1543 C 0.91857 0.93611 0.18234 0.0
O1544 O 0.9239 0.94809 0.15734 0.0
O1545 O 0.93449 0.95321 0.16673 0.0
O1546 O 0.92426 0.94285 0.18425 0.0
O1547 O 0.91438 0.93707 0.1744 0.0
H1548 H 0.93239 0.93213 0.1645 0.0
H1549 H 0.94204 0.91943 0.1593 0.0
H1550 H 0.95644 0.93776 0.14094 0.0
H1551 H 0.94671 0.9505 0.14623 0.0
H1552 H 0.91841 0.98612 0.15155 0.0
H1553 H 0.92074 0.9719 0.16018 0.0
H1554 H 0.89441 0.99211 0.16806 0.0
H1555 H 0.89695 0.97799 0.17677 0.0
H1556 H 0.89093 0.92686 0.19549 0.0
H1557 H 0.91636 0.91824 0.20822 0.0
H1558 H 0.92503 0.92743 0.19723 0.0
H1559 H 0.89968 0.93601 0.18444 0.0
C1560 C 0.82959 0.18543 0.90439 0.0
C1561 C 0.83881 0.18315 0.90616 0.0
C1562 C 0.84398 0.19678 0.89802 0.0
C1563 C 0.84593 0.18873 0.90296 0.0
C1564 C 0.83473 0.19915 0.8964 0.0
C1565 C 0.82759 0.19349 0.89954 0.0
U1566 U 0.82142 0.16758 0.92117 0.0
O1567 O 0.80809 0.16536 0.92805 0.0
O1568 O 0.81389 0.15467 0.91917 0.0
C1569 C 0.80674 0.15743 0.92397 0.0
C1570 C 0.82212 0.17944 0.90768 0.0
C1571 C 0.7978 0.1563 0.91939 0.0
C1572 C 0.78736 0.15979 0.90685 0.0
C1573 C 0.79568 0.1613 0.91145 0.0
C1574 C 0.78314 0.14837 0.91817 0.0
C1575 C 0.78102 0.15324 0.91011 0.0
C1576 C 0.79146 0.1499 0.92276 0.0
C1577 C 0.83992 0.1605 0.93919 0.0
C1578 C 0.84522 0.14602 0.94556 0.0
C1579 C 0.84985 0.16033 0.95261 0.0
C1580 C 0.84465 0.16516 0.94616 0.0
C1581 C 0.85047 0.15072 0.95218 0.0
C1582 C 0.83999 0.15087 0.93912 0.0
C1583 C 0.83613 0.16586 0.93147 0.0
O1584 O 0.82359 0.17062 0.90658 0.0
O1585 O 0.81881 0.18148 0.91583 0.0
O1586 O 0.82947 0.17166 0.93335 0.0
O1587 O 0.83499 0.1615 0.92366 0.0
H1588 H 0.84051 0.17702 0.91 0.0
H1589 H 0.85297 0.18681 0.90445 0.0
H1590 H 0.83304 0.2053 0.8926 0.0
H1591 H 0.82052 0.19538 0.89815 0.0
H1592 H 0.78602 0.16357 0.9006 0.0
H1593 H 0.80052 0.16625 0.90872 0.0
H1594 H 0.77838 0.14337 0.92093 0.0
H1595 H 0.793 0.14599 0.92889 0.0
H1596 H 0.84547 0.13862 0.94512 0.0
H1597 H 0.85387 0.16417 0.95754 0.0
H1598 H 0.84473 0.17258 0.94631 0.0
H1599 H 0.83636 0.14709 0.93385 0.0
C1600 C 0.86826 0.58418 0.9424 0.0
C1601 C 0.86646 0.58645 0.93322 0.0
C1602 C 0.87476 0.57291 0.92805 0.0
C1603 C 0.86972 0.5809 0.92612 0.0
C1604 C 0.87641 0.57055 0.93727 0.0
C1605 C 0.87322 0.57617 0.94439 0.0
U1606 U 0.85137 0.60198 0.9506 0.0
O1607 O 0.84446 0.60412 0.96388 0.0
O1608 O 0.85336 0.61485 0.95817 0.0
C1609 C 0.84852 0.61206 0.96526 0.0
C1610 C 0.86493 0.59014 0.94985 0.0
C1611 C 0.85304 0.61321 0.9742 0.0
C1612 C 0.86559 0.60987 0.9847 0.0
C1613 C 0.86107 0.60833 0.97636 0.0
C1614 C 0.85401 0.62108 0.98886 0.0
C1615 C 0.86216 0.61634 0.99102 0.0
C1616 C 0.8495 0.61953 0.98053 0.0
C1617 C 0.83326 0.60913 0.93222 0.0
C1618 C 0.82694 0.62358 0.92676 0.0
C1619 C 0.81962 0.60927 0.92255 0.0
C1620 C 0.82613 0.60447 0.92772 0.0
C1621 C 0.82016 0.61886 0.92173 0.0
C1622 C 0.83343 0.61876 0.93196 0.0
C1623 C 0.84102 0.60376 0.93595 0.0
O1624 O 0.86602 0.59897 0.94841 0.0
O1625 O 0.85676 0.58808 0.95314 0.0
O1626 O 0.83916 0.59791 0.94256 0.0
O1627 O 0.84886 0.60812 0.9371 0.0
H1628 H 0.86254 0.59254 0.93153 0.0
H1629 H 0.8682 0.58282 0.9191 0.0
H1630 H 0.8803 0.56445 0.93896 0.0
H1631 H 0.87463 0.57429 0.95144 0.0
H1632 H 0.87191 0.60619 0.98607 0.0
H1633 H 0.86392 0.60345 0.97153 0.0
H1634 H 0.85113 0.62602 0.99361 0.0
H1635 H 0.8433 0.62335 0.97897 0.0
H1636 H 0.82746 0.63097 0.92635 0.0
H1637 H 0.81456 0.60541 0.9187 0.0
H1638 H 0.82588 0.59704 0.92778 0.0
H1639 H 0.83883 0.62255 0.93541 0.0
C1640 C 0.36823 0.9353 0.07796 0.0
C1641 C 0.36626 0.93306 0.08712 0.0
C1642 C 0.37446 0.94664 0.09236 0.0
C1643 C 0.36939 0.93864 0.09425 0.0
C1644 C 0.37627 0.94896 0.08317 0.0
C1645 C 0.37321 0.9433 0.07602 0.0
U1646 U 0.3516 0.91733 0.06961 0.0
O1647 O 0.34488 0.91508 0.05626 0.0
O1648 O 0.35381 0.90446 0.0621 0.0
C1649 C 0.34907 0.9072 0.05493 0.0
C1650 C 0.36504 0.9293 0.07048 0.0
C1651 C 0.35383 0.90617 0.04608 0.0
C1652 C 0.36599 0.91057 0.03553 0.0
C1653 C 0.36111 0.912 0.04368 0.0
C1654 C 0.35625 0.89756 0.03202 0.0
C1655 C 0.36371 0.90325 0.02965 0.0
C1656 C 0.35136 0.899 0.04017 0.0
C1657 C 0.33338 0.91007 0.08791 0.0
C1658 C 0.32727 0.89567 0.09374 0.0
C1659 C 0.3196 0.90994 0.09739 0.0
C1660 C 0.32608 0.91472 0.09216 0.0
C1661 C 0.32033 0.9004 0.09853 0.0
C1662 C 0.33374 0.90046 0.08847 0.0
C1663 C 0.34112 0.91548 0.08417 0.0
O1664 O 0.36619 0.92048 0.07195 0.0
O1665 O 0.35689 0.93128 0.06711 0.0
O1666 O 0.33926 0.92129 0.07753 0.0
O1667 O 0.34901 0.9112 0.0831 0.0
H1668 H 0.36232 0.92697 0.08877 0.0
H1669 H 0.36775 0.93676 0.10125 0.0
H1670 H 0.38018 0.95506 0.08151 0.0
H1671 H 0.37475 0.94516 0.06899 0.0
H1672 H 0.3716 0.91517 0.03386 0.0
H1673 H 0.36311 0.91757 0.04818 0.0
H1674 H 0.35436 0.8918 0.02772 0.0
H1675 H 0.34578 0.89441 0.04196 0.0
H1676 H 0.32795 0.88831 0.09439 0.0
H1677 H 0.31441 0.91381 0.10106 0.0
H1678 H 0.32569 0.92213 0.09187 0.0
H1679 H 0.33927 0.89667 0.08522 0.0
C1680 C 0.83614 0.61461 0.82763 0.0
C1681 C 0.83795 0.6118 0.83666 0.0
C1682 C 0.82441 0.62002 0.84212 0.0
C1683 C 0.83219 0.61452 0.84382 0.0
C1684 C 0.8226 0.62277 0.83303 0.0
C1685 C 0.82843 0.62009 0.82585 0.0
U1686 U 0.85461 0.59863 0.81928 0.0
O1687 O 0.85717 0.59209 0.80591 0.0
O1688 O 0.86758 0.60116 0.81193 0.0
C1689 C 0.865 0.59645 0.80469 0.0
C1690 C 0.84232 0.61176 0.82015 0.0
C1691 C 0.86602 0.60129 0.7959 0.0
C1692 C 0.86144 0.61342 0.78545 0.0
C1693 C 0.86006 0.60848 0.79356 0.0
C1694 C 0.87463 0.60392 0.78185 0.0
C1695 C 0.86881 0.61128 0.77954 0.0
C1696 C 0.87324 0.59898 0.78997 0.0
C1697 C 0.86189 0.58048 0.83758 0.0
C1698 C 0.87644 0.57443 0.84318 0.0
C1699 C 0.86213 0.56705 0.84745 0.0
C1700 C 0.85726 0.5734 0.84217 0.0
C1701 C 0.87175 0.5677 0.8483 0.0
C1702 C 0.87155 0.58076 0.83786 0.0
C1703 C 0.85642 0.58811 0.83378 0.0
O1704 O 0.85112 0.61307 0.82176 0.0
O1705 O 0.84055 0.60366 0.81661 0.0
O1706 O 0.85073 0.5862 0.82703 0.0
O1707 O 0.86064 0.59603 0.83281 0.0
H1708 H 0.84387 0.60755 0.83817 0.0
H1709 H 0.83392 0.6124 0.85073 0.0
H1710 H 0.81662 0.62691 0.83144 0.0
H1711 H 0.8269 0.62227 0.81891 0.0
H1712 H 0.85674 0.61895 0.78382 0.0
H1713 H 0.85444 0.61036 0.79807 0.0
H1714 H 0.88043 0.60215 0.77753 0.0
H1715 H 0.87793 0.59347 0.7917 0.0
H1716 H 0.88386 0.57503 0.84359 0.0
H1717 H 0.85828 0.56204 0.85137 0.0
H1718 H 0.8498 0.57308 0.84209 0.0
H1719 H 0.87531 0.58613 0.83435 0.0
C1720 C 0.15545 0.0843 0.57808 0.0
C1721 C 0.15736 0.08656 0.58724 0.0
C1722 C 0.1491 0.07303 0.5925 0.0
C1723 C 0.15418 0.08101 0.59438 0.0
C1724 C 0.14732 0.07069 0.5833 0.0
C1725 C 0.15044 0.07631 0.57615 0.0
U1726 U 0.17229 0.10209 0.56981 0.0
O1727 O 0.17924 0.10419 0.55654 0.0
O1728 O 0.1703 0.11493 0.56218 0.0
C1729 C 0.17516 0.1121 0.55511 0.0
C1730 C 0.15874 0.09023 0.57059 0.0
C1731 C 0.17063 0.11317 0.54616 0.0
C1732 C 0.15812 0.10964 0.53568 0.0
C1733 C 0.16265 0.10819 0.54403 0.0
C1734 C 0.16958 0.12095 0.53146 0.0
C1735 C 0.16148 0.1161 0.52933 0.0
C1736 C 0.1741 0.1195 0.5398 0.0
C1737 C 0.19037 0.1093 0.58822 0.0
C1738 C 0.19658 0.12367 0.59398 0.0
C1739 C 0.20414 0.10936 0.59769 0.0
C1740 C 0.19762 0.10461 0.59249 0.0
C1741 C 0.20348 0.11891 0.59878 0.0
C1742 C 0.19008 0.11891 0.58874 0.0
C1743 C 0.18261 0.10393 0.58447 0.0
O1744 O 0.15764 0.09906 0.572 0.0
O1745 O 0.16692 0.08817 0.56731 0.0
O1746 O 0.18448 0.09805 0.57789 0.0
O1747 O 0.17478 0.10829 0.58328 0.0
H1748 H 0.16132 0.09264 0.58888 0.0
H1749 H 0.15579 0.08291 0.60138 0.0
H1750 H 0.1434 0.06459 0.58165 0.0
H1751 H 0.14894 0.07443 0.56911 0.0
H1752 H 0.15184 0.10588 0.53433 0.0
H1753 H 0.15985 0.10331 0.54888 0.0
H1754 H 0.17241 0.12589 0.52669 0.0
H1755 H 0.18026 0.12339 0.54135 0.0
H1756 H 0.19596 0.13104 0.5946 0.0
H1757 H 0.2093 0.10547 0.60137 0.0
H1758 H 0.19796 0.09719 0.59223 0.0
H1759 H 0.18458 0.12273 0.58548 0.0
C1760 C 0.18853 0.90509 0.82752 0.0
C1761 C 0.1868 0.90792 0.83656 0.0
C1762 C 0.2004 0.89973 0.84191 0.0
C1763 C 0.19263 0.90522 0.84368 0.0
C1764 C 0.20214 0.89695 0.83281 0.0
C1765 C 0.19624 0.89961 0.82568 0.0
U1766 U 0.17002 0.92107 0.81923 0.0
O1767 O 0.16739 0.92751 0.80582 0.0
O1768 O 0.15699 0.91852 0.81201 0.0
C1769 C 0.15953 0.92317 0.80471 0.0
C1770 C 0.1823 0.90792 0.82009 0.0
C1771 C 0.15844 0.91828 0.79596 0.0
C1772 C 0.16251 0.90574 0.78578 0.0
C1773 C 0.16397 0.91069 0.79387 0.0
C1774 C 0.15007 0.91603 0.7817 0.0
C1775 C 0.15546 0.90828 0.77965 0.0
C1776 C 0.15155 0.92097 0.7898 0.0
C1777 C 0.16292 0.93939 0.83744 0.0
C1778 C 0.14837 0.9456 0.84291 0.0
C1779 C 0.16272 0.95279 0.84734 0.0
C1780 C 0.16758 0.94641 0.84208 0.0
C1781 C 0.15308 0.95225 0.8481 0.0
C1782 C 0.15324 0.93921 0.83763 0.0
C1783 C 0.16834 0.93171 0.83366 0.0
O1784 O 0.1735 0.90665 0.8218 0.0
O1785 O 0.18405 0.91599 0.81648 0.0
O1786 O 0.17398 0.93355 0.82684 0.0
O1787 O 0.16409 0.9238 0.83279 0.0
H1788 H 0.18089 0.91217 0.83812 0.0
H1789 H 0.19094 0.90735 0.85059 0.0
H1790 H 0.2081 0.89282 0.83118 0.0
H1791 H 0.19771 0.89741 0.81874 0.0
H1792 H 0.16687 0.8999 0.78435 0.0
H1793 H 0.16934 0.90852 0.79855 0.0
H1794 H 0.14453 0.91812 0.7772 0.0
H1795 H 0.14719 0.9268 0.79134 0.0
H1796 H 0.14094 0.94508 0.84326 0.0
H1797 H 0.16659 0.95775 0.85131 0.0
H1798 H 0.17503 0.94664 0.84208 0.0
H1799 H 0.14946 0.9339 0.83407 0.0
C1800 C 0.65457 0.43557 0.44213 0.0
C1801 C 0.6564 0.43331 0.43295 0.0
C1802 C 0.6479 0.44672 0.42777 0.0
C1803 C 0.65306 0.4388 0.42585 0.0
C1804 C 0.64621 0.44906 0.43699 0.0
C1805 C 0.64949 0.4435 0.44411 0.0
U1806 U 0.67191 0.41821 0.45026 0.0
O1807 O 0.67894 0.41621 0.46349 0.0
O1808 O 0.67029 0.40528 0.45781 0.0
C1809 C 0.6751 0.40817 0.46487 0.0
C1810 C 0.65806 0.42971 0.44959 0.0
C1811 C 0.67067 0.40686 0.47384 0.0
C1812 C 0.65821 0.40998 0.48452 0.0
C1813 C 0.66264 0.41167 0.47616 0.0
C1814 C 0.66989 0.39878 0.48839 0.0
C1815 C 0.66173 0.40345 0.49071 0.0
C1816 C 0.6743 0.40047 0.48003 0.0
C1817 C 0.69012 0.41146 0.43187 0.0
C1818 C 0.69686 0.39704 0.42686 0.0
C1819 C 0.70367 0.41141 0.42207 0.0
C1820 C 0.69705 0.41619 0.42713 0.0
C1821 C 0.70344 0.40179 0.42161 0.0
C1822 C 0.69026 0.40183 0.43196 0.0
C1823 C 0.68225 0.4167 0.43556 0.0
O1824 O 0.65718 0.42085 0.44817 0.0
O1825 O 0.66618 0.43197 0.45284 0.0
O1826 O 0.68399 0.42259 0.44216 0.0
O1827 O 0.67451 0.41218 0.43673 0.0
H1828 H 0.66043 0.42729 0.43127 0.0
H1829 H 0.65462 0.4369 0.41883 0.0
H1830 H 0.64224 0.45511 0.43867 0.0
H1831 H 0.64805 0.44538 0.45116 0.0
H1832 H 0.65188 0.41361 0.48601 0.0
H1833 H 0.65971 0.4166 0.47142 0.0
H1834 H 0.67284 0.39379 0.49304 0.0
H1835 H 0.68051 0.39671 0.47835 0.0
H1836 H 0.69657 0.38962 0.42671 0.0
H1837 H 0.70858 0.41529 0.41804 0.0
H1838 H 0.69705 0.42362 0.42693 0.0
H1839 H 0.68502 0.39799 0.43561 0.0
C1840 C 0.83399 0.40618 0.69338 0.0
C1841 C 0.83455 0.41043 0.68477 0.0
C1842 C 0.82201 0.40091 0.67907 0.0
C1843 C 0.82864 0.40781 0.67768 0.0
C1844 C 0.82142 0.39673 0.68776 0.0
C1845 C 0.82738 0.39935 0.69486 0.0
U1846 U 0.8532 0.42154 0.70113 0.0
O1847 O 0.85648 0.42791 0.71442 0.0
O1848 O 0.86637 0.41855 0.70794 0.0
C1849 C 0.86423 0.42333 0.71529 0.0
C1850 C 0.84051 0.40875 0.70065 0.0
C1851 C 0.86554 0.4185 0.72405 0.0
C1852 C 0.86071 0.40711 0.73522 0.0
C1853 C 0.85911 0.41202 0.72712 0.0
C1854 C 0.87512 0.4152 0.7373 0.0
C1855 C 0.86879 0.40856 0.74035 0.0
C1856 C 0.8735 0.42012 0.72922 0.0
C1857 C 0.86042 0.43961 0.68279 0.0
C1858 C 0.87516 0.44545 0.67743 0.0
C1859 C 0.86103 0.45289 0.67274 0.0
C1860 C 0.85597 0.44667 0.678 0.0
C1861 C 0.87067 0.45214 0.67212 0.0
C1862 C 0.87009 0.43923 0.68273 0.0
C1863 C 0.85479 0.43213 0.68666 0.0
O1864 O 0.84919 0.40723 0.69863 0.0
O1865 O 0.83913 0.41686 0.70433 0.0
O1866 O 0.84942 0.43415 0.69364 0.0
O1867 O 0.85878 0.42408 0.68739 0.0
H1868 H 0.83965 0.4157 0.68349 0.0
H1869 H 0.82943 0.41107 0.67105 0.0
H1870 H 0.81634 0.39146 0.6891 0.0
H1871 H 0.82685 0.396 0.70148 0.0
H1872 H 0.85562 0.40214 0.73742 0.0
H1873 H 0.85292 0.41067 0.7232 0.0
H1874 H 0.88147 0.41641 0.741 0.0
H1875 H 0.87856 0.42507 0.72692 0.0
H1876 H 0.88259 0.44477 0.67719 0.0
H1877 H 0.85733 0.45789 0.66867 0.0
H1878 H 0.84852 0.44706 0.67792 0.0
H1879 H 0.87371 0.43388 0.68641 0.0
C1880 C 0.68979 0.61299 0.1934 0.0
C1881 C 0.68921 0.6088 0.18476 0.0
C1882 C 0.70181 0.61829 0.17911 0.0
C1883 C 0.69514 0.61144 0.17769 0.0
C1884 C 0.70243 0.6224 0.18784 0.0
C1885 C 0.69645 0.61977 0.19492 0.0
U1886 U 0.67056 0.59764 0.20125 0.0
O1887 O 0.66732 0.59132 0.21458 0.0
O1888 O 0.65744 0.60069 0.20814 0.0
C1889 C 0.65961 0.59595 0.2155 0.0
C1890 C 0.68327 0.6104 0.20068 0.0
C1891 C 0.65843 0.60085 0.22424 0.0
C1892 C 0.66344 0.61236 0.2352 0.0
C1893 C 0.66489 0.60739 0.22711 0.0
C1894 C 0.64912 0.60421 0.23768 0.0
C1895 C 0.65548 0.61091 0.24053 0.0
C1896 C 0.65059 0.59924 0.2296 0.0
C1897 C 0.66326 0.5795 0.18299 0.0
C1898 C 0.64851 0.57364 0.17771 0.0
C1899 C 0.66264 0.56626 0.1729 0.0
C1900 C 0.6677 0.57248 0.17815 0.0
C1901 C 0.653 0.56698 0.17234 0.0
C1902 C 0.65359 0.57985 0.18299 0.0
C1903 C 0.66889 0.58699 0.18683 0.0
O1904 O 0.67459 0.61193 0.19867 0.0
O1905 O 0.68465 0.60229 0.20436 0.0
O1906 O 0.67428 0.585 0.19379 0.0
O1907 O 0.66491 0.59505 0.18756 0.0
H1908 H 0.68408 0.60357 0.18346 0.0
H1909 H 0.69433 0.60823 0.17104 0.0
H1910 H 0.70754 0.62762 0.18921 0.0
H1911 H 0.697 0.62306 0.20156 0.0
H1912 H 0.66855 0.61736 0.23724 0.0
H1913 H 0.67099 0.60873 0.22304 0.0
H1914 H 0.64286 0.603 0.24153 0.0
H1915 H 0.64551 0.59424 0.22745 0.0
H1916 H 0.64108 0.5743 0.17752 0.0
H1917 H 0.66634 0.56129 0.16878 0.0
H1918 H 0.67516 0.57211 0.17802 0.0
H1919 H 0.64998 0.58518 0.18671 0.0
C1920 C 0.58008 0.65236 0.93543 0.0
C1921 C 0.5893 0.65414 0.93314 0.0
C1922 C 0.59447 0.64582 0.94666 0.0
C1923 C 0.59642 0.65086 0.93867 0.0
C1924 C 0.58523 0.64418 0.94903 0.0
C1925 C 0.57808 0.64739 0.94343 0.0
U1926 U 0.57184 0.66936 0.9178 0.0
O1927 O 0.56425 0.66752 0.9049 0.0
O1928 O 0.55851 0.67624 0.91575 0.0
C1929 C 0.55712 0.67227 0.90776 0.0
C1930 C 0.5726 0.65573 0.9295 0.0
C1931 C 0.54817 0.66773 0.9066 0.0
C1932 C 0.53776 0.65509 0.90979 0.0
C1933 C 0.5461 0.65963 0.91135 0.0
C1934 C 0.53341 0.66679 0.89882 0.0
C1935 C 0.53135 0.65856 0.90343 0.0
C1936 C 0.54175 0.67132 0.9004 0.0
C1937 C 0.59016 0.68751 0.91074 0.0
C1938 C 0.59494 0.69418 0.89619 0.0
C1939 C 0.6 0.701 0.91047 0.0
C1940 C 0.595 0.69442 0.91537 0.0
C1941 C 0.60029 0.70075 0.90083 0.0
C1942 C 0.58991 0.68762 0.9011 0.0
C1943 C 0.58652 0.67972 0.91609 0.0
O1944 O 0.56931 0.66384 0.93166 0.0
O1945 O 0.57405 0.65475 0.92066 0.0
O1946 O 0.58538 0.67196 0.91166 0.0
O1947 O 0.5799 0.68149 0.92199 0.0
H1948 H 0.591 0.65807 0.92706 0.0
H1949 H 0.60346 0.65237 0.93675 0.0
H1950 H 0.58353 0.64029 0.95514 0.0
H1951 H 0.57101 0.64599 0.94533 0.0
H1952 H 0.53647 0.64871 0.91336 0.0
H1953 H 0.551 0.65674 0.91615 0.0
H1954 H 0.52859 0.66971 0.89397 0.0
H1955 H 0.54324 0.67758 0.89668 0.0
H1956 H 0.59494 0.69388 0.88877 0.0
H1957 H 0.60411 0.70589 0.91427 0.0
H1958 H 0.59533 0.69445 0.92279 0.0
H1959 H 0.58618 0.6824 0.89735 0.0
C1960 C 0.61838 0.32787 0.18601 0.0
C1961 C 0.61563 0.3369 0.18418 0.0
C1962 C 0.62381 0.34232 0.19772 0.0
C1963 C 0.61836 0.34405 0.18993 0.0
C1964 C 0.62652 0.33323 0.19955 0.0
C1965 C 0.62383 0.32607 0.19373 0.0
U1966 U 0.60215 0.31965 0.16775 0.0
O1967 O 0.60447 0.31227 0.15481 0.0
O1968 O 0.59537 0.30637 0.16529 0.0
C1969 C 0.59959 0.30513 0.1574 0.0
C1970 C 0.61544 0.3204 0.17989 0.0
C1971 C 0.60414 0.29622 0.15619 0.0
C1972 C 0.61667 0.28571 0.1595 0.0
C1973 C 0.61217 0.29404 0.16106 0.0
C1974 C 0.60508 0.28159 0.14828 0.0
C1975 C 0.61323 0.27941 0.15302 0.0
C1976 C 0.60058 0.28992 0.14986 0.0
C1977 C 0.58396 0.33787 0.16052 0.0
C1978 C 0.57779 0.34333 0.146 0.0
C1979 C 0.57019 0.34734 0.16023 0.0
C1980 C 0.57669 0.34224 0.16511 0.0
C1981 C 0.57087 0.34822 0.15065 0.0
C1982 C 0.58428 0.33819 0.15089 0.0
C1983 C 0.59167 0.33419 0.16599 0.0
O1984 O 0.60729 0.31692 0.18171 0.0
O1985 O 0.6167 0.32199 0.1711 0.0
O1986 O 0.59959 0.33318 0.16174 0.0
O1987 O 0.58978 0.3275 0.17173 0.0
H1988 H 0.6114 0.33844 0.17826 0.0
H1989 H 0.61627 0.35096 0.18819 0.0
H1990 H 0.63062 0.33162 0.20554 0.0
H1991 H 0.62596 0.31912 0.19528 0.0
H1992 H 0.62299 0.28432 0.16318 0.0
H1993 H 0.61502 0.29885 0.16596 0.0
H1994 H 0.60218 0.27687 0.14334 0.0
H1995 H 0.59438 0.2915 0.14605 0.0
H1996 H 0.57843 0.34379 0.13861 0.0
H1997 H 0.56502 0.35109 0.16404 0.0
H1998 H 0.57633 0.34213 0.17254 0.0
H1999 H 0.58978 0.33484 0.14715 0.0
C2000 C 0.94389 0.36724 0.43547 0.0
C2001 C 0.93468 0.36542 0.4332 0.0
C2002 C 0.92948 0.37382 0.44666 0.0
C2003 C 0.92755 0.36872 0.43871 0.0
C2004 C 0.93872 0.37549 0.44902 0.0
C2005 C 0.94588 0.37226 0.44343 0.0
U2006 U 0.95219 0.35027 0.41781 0.0
O2007 O 0.95984 0.35215 0.40495 0.0
O2008 O 0.96554 0.34339 0.41579 0.0
C2009 C 0.96696 0.34738 0.40782 0.0
C2010 C 0.95139 0.36387 0.42955 0.0
C2011 C 0.97592 0.35192 0.40669 0.0
C2012 C 0.98629 0.36459 0.40986 0.0
C2013 C 0.97794 0.36005 0.41141 0.0
C2014 C 0.99073 0.35284 0.39899 0.0
C2015 C 0.99275 0.36109 0.40356 0.0
C2016 C 0.98238 0.3483 0.40054 0.0
C2017 C 0.93393 0.33212 0.41062 0.0
C2018 C 0.92882 0.32566 0.3961 0.0
C2019 C 0.92443 0.31839 0.41039 0.0
C2020 C 0.92942 0.32498 0.41525 0.0
C2021 C 0.9238 0.31885 0.40077 0.0
C2022 C 0.93385 0.33223 0.40098 0.0
C2023 C 0.93753 0.3399 0.41601 0.0
O2024 O 0.95466 0.35575 0.4317 0.0
O2025 O 0.94997 0.36487 0.4207 0.0
O2026 O 0.93868 0.34769 0.41162 0.0
O2027 O 0.94411 0.33812 0.42194 0.0
H2028 H 0.933 0.36146 0.42714 0.0
H2029 H 0.92051 0.36719 0.4368 0.0
H2030 H 0.94041 0.37942 0.45509 0.0
H2031 H 0.95295 0.37369 0.44531 0.0
H2032 H 0.98755 0.37099 0.41341 0.0
H2033 H 0.973 0.36296 0.41616 0.0
H2034 H 0.99559 0.34989 0.39418 0.0
H2035 H 0.98093 0.34202 0.39685 0.0
H2036 H 0.92855 0.32612 0.38869 0.0
H2037 H 0.92057 0.31332 0.41421 0.0
H2038 H 0.92934 0.32478 0.42269 0.0
H2039 H 0.93732 0.33762 0.39721 0.0
C2040 C 0.90499 0.69152 0.68479 0.0
C2041 C 0.90687 0.68236 0.68254 0.0
C2042 C 0.89857 0.67718 0.69609 0.0
C2043 C 0.90365 0.67526 0.68811 0.0
C2044 C 0.89683 0.68637 0.69842 0.0
C2045 C 0.89999 0.69349 0.69278 0.0
U2046 U 0.9219 0.69986 0.66702 0.0
O2047 O 0.91989 0.70742 0.65414 0.0
O2048 O 0.92868 0.71321 0.66491 0.0
C2049 C 0.92458 0.71458 0.65698 0.0
C2050 C 0.9083 0.69898 0.67882 0.0
C2051 C 0.91983 0.72341 0.65595 0.0
C2052 C 0.90721 0.73361 0.65983 0.0
C2053 C 0.91206 0.72546 0.66128 0.0
C2054 C 0.91797 0.73784 0.64784 0.0
C2055 C 0.91003 0.73985 0.653 0.0
C2056 C 0.92281 0.72968 0.6493 0.0
C2057 C 0.94019 0.68165 0.65988 0.0
C2058 C 0.94652 0.67608 0.64546 0.0
C2059 C 0.95395 0.67216 0.6598 0.0
C2060 C 0.9474 0.67731 0.66457 0.0
C2061 C 0.95338 0.67121 0.65022 0.0
C2062 C 0.93999 0.68127 0.65024 0.0
C2063 C 0.93239 0.68532 0.66524 0.0
O2064 O 0.91643 0.70233 0.68092 0.0
O2065 O 0.90726 0.69753 0.66999 0.0
O2066 O 0.92455 0.68642 0.66086 0.0
O2067 O 0.93418 0.69193 0.6711 0.0
H2068 H 0.91083 0.68068 0.67647 0.0
H2069 H 0.90524 0.66825 0.68622 0.0
H2070 H 0.89291 0.68805 0.70451 0.0
H2071 H 0.89851 0.70053 0.69464 0.0
H2072 H 0.90122 0.735 0.66402 0.0
H2073 H 0.90967 0.72069 0.66646 0.0
H2074 H 0.92027 0.74243 0.64247 0.0
H2075 H 0.92878 0.72817 0.6451 0.0
H2076 H 0.94597 0.67556 0.63807 0.0
H2077 H 0.95908 0.66843 0.66369 0.0
H2078 H 0.94767 0.67747 0.672 0.0
H2079 H 0.93453 0.68459 0.64643 0.0
C2080 C 0.58063 0.36686 0.58486 0.0
C2081 C 0.58984 0.36508 0.58716 0.0
C2082 C 0.59505 0.37331 0.5736 0.0
C2083 C 0.59697 0.36831 0.58161 0.0
C2084 C 0.58581 0.37494 0.57121 0.0
C2085 C 0.57865 0.37177 0.57683 0.0
U2086 U 0.57237 0.34994 0.60257 0.0
O2087 O 0.56484 0.35185 0.61551 0.0
O2088 O 0.55901 0.34312 0.60472 0.0
C2089 C 0.55769 0.34711 0.6127 0.0
C2090 C 0.57314 0.36353 0.59082 0.0
C2091 C 0.54875 0.35168 0.61391 0.0
C2092 C 0.53836 0.36431 0.61069 0.0
C2093 C 0.54667 0.35974 0.6091 0.0
C2094 C 0.53407 0.35274 0.62182 0.0
C2095 C 0.53199 0.36092 0.61714 0.0
C2096 C 0.54238 0.34817 0.62021 0.0
C2097 C 0.59065 0.33177 0.60959 0.0
C2098 C 0.59533 0.32511 0.62416 0.0
C2099 C 0.60053 0.31833 0.60991 0.0
C2100 C 0.59555 0.32489 0.60499 0.0
C2101 C 0.60074 0.31857 0.61955 0.0
C2102 C 0.59031 0.33165 0.61923 0.0
C2103 C 0.58702 0.33955 0.60423 0.0
O2104 O 0.56981 0.35543 0.5887 0.0
O2105 O 0.5746 0.36454 0.59966 0.0
O2106 O 0.58592 0.34733 0.60863 0.0
O2107 O 0.58036 0.33777 0.59838 0.0
H2108 H 0.59152 0.36119 0.59327 0.0
H2109 H 0.60401 0.36681 0.58355 0.0
H2110 H 0.58412 0.37878 0.56508 0.0
H2111 H 0.57158 0.37316 0.57493 0.0
H2112 H 0.53705 0.37066 0.60706 0.0
H2113 H 0.55154 0.36257 0.60423 0.0
H2114 H 0.52928 0.34987 0.62675 0.0
H2115 H 0.54389 0.34195 0.62398 0.0
H2116 H 0.59526 0.3254 0.63159 0.0
H2117 H 0.60469 0.31347 0.60613 0.0
H2118 H 0.59594 0.32488 0.59757 0.0
H2119 H 0.58653 0.33685 0.62296 0.0
C2120 C 0.90648 0.32639 0.83285 0.0
C2121 C 0.91308 0.33174 0.82827 0.0
C2122 C 0.90097 0.34093 0.82126 0.0
C2123 C 0.91036 0.33888 0.82249 0.0
C2124 C 0.89437 0.33542 0.82571 0.0
C2125 C 0.89711 0.32822 0.83144 0.0
U2126 U 0.9224 0.31921 0.85198 0.0
O2127 O 0.91964 0.31271 0.86531 0.0
O2128 O 0.9289 0.30604 0.85546 0.0
C2129 C 0.92444 0.30535 0.86329 0.0
C2130 C 0.90929 0.31943 0.83964 0.0
C2131 C 0.91971 0.29659 0.86486 0.0
C2132 C 0.90728 0.28596 0.86154 0.0
C2133 C 0.91187 0.29421 0.85978 0.0
C2134 C 0.91837 0.28235 0.8734 0.0
C2135 C 0.91044 0.27995 0.86841 0.0
C2136 C 0.92296 0.2906 0.87164 0.0
C2137 C 0.94078 0.33746 0.85845 0.0
C2138 C 0.94703 0.34239 0.87312 0.0
C2139 C 0.95402 0.34762 0.85897 0.0
C2140 C 0.94767 0.34246 0.85395 0.0
C2141 C 0.95357 0.34791 0.8686 0.0
C2142 C 0.9407 0.33719 0.86809 0.0
C2143 C 0.93316 0.33364 0.85297 0.0
O2144 O 0.91733 0.31551 0.83825 0.0
O2145 O 0.90795 0.3218 0.84823 0.0
O2146 O 0.92512 0.33307 0.85709 0.0
O2147 O 0.93502 0.32654 0.84774 0.0
H2148 H 0.92037 0.33053 0.8293 0.0
H2149 H 0.91563 0.34286 0.81906 0.0
H2150 H 0.88709 0.33686 0.82503 0.0
H2151 H 0.89191 0.32424 0.83498 0.0
H2152 H 0.90112 0.2844 0.85765 0.0
H2153 H 0.90926 0.29878 0.85453 0.0
H2154 H 0.92106 0.27785 0.87866 0.0
H2155 H 0.92902 0.29233 0.8756 0.0
H2156 H 0.94658 0.34238 0.88054 0.0
H2157 H 0.95889 0.35186 0.85526 0.0
H2158 H 0.94783 0.34279 0.84653 0.0
H2159 H 0.93548 0.33333 0.87173 0.0
C2160 C 0.9436 0.65227 0.08505 0.0
C2161 C 0.93439 0.65404 0.08735 0.0
C2162 C 0.9292 0.64581 0.07379 0.0
C2163 C 0.92726 0.6508 0.08181 0.0
C2164 C 0.93844 0.64418 0.0714 0.0
C2165 C 0.94559 0.64736 0.07702 0.0
U2166 U 0.95184 0.66914 0.10281 0.0
O2167 O 0.95939 0.6672 0.11571 0.0
O2168 O 0.96518 0.676 0.10495 0.0
C2169 C 0.96653 0.67198 0.11291 0.0
C2170 C 0.95109 0.65559 0.09101 0.0
C2171 C 0.97549 0.66746 0.11409 0.0
C2172 C 0.98596 0.6549 0.11083 0.0
C2173 C 0.97762 0.65942 0.10926 0.0
C2174 C 0.99018 0.66647 0.12198 0.0
C2175 C 0.99231 0.65832 0.11728 0.0
C2176 C 0.98184 0.67099 0.12039 0.0
C2177 C 0.93353 0.68724 0.10995 0.0
C2178 C 0.92878 0.69383 0.12453 0.0
C2179 C 0.92369 0.70071 0.1103 0.0
C2180 C 0.92867 0.69417 0.10536 0.0
C2181 C 0.92342 0.70042 0.11994 0.0
C2182 C 0.93381 0.6873 0.11958 0.0
C2183 C 0.93717 0.67949 0.10455 0.0
O2184 O 0.9544 0.66371 0.08891 0.0
O2185 O 0.94963 0.65454 0.09985 0.0
O2186 O 0.93829 0.67169 0.10893 0.0
O2187 O 0.9438 0.6813 0.09868 0.0
H2188 H 0.9327 0.65793 0.09346 0.0
H2189 H 0.92022 0.6523 0.08375 0.0
H2190 H 0.94013 0.64034 0.06527 0.0
H2191 H 0.95267 0.64597 0.07511 0.0
H2192 H 0.98731 0.64857 0.10719 0.0
H2193 H 0.97276 0.65658 0.10439 0.0
H2194 H 0.99495 0.66936 0.1269 0.0
H2195 H 0.98029 0.6772 0.12418 0.0
H2196 H 0.9288 0.6935 0.13196 0.0
H2197 H 0.91956 0.70561 0.10653 0.0
H2198 H 0.92833 0.69423 0.09794 0.0
H2199 H 0.93755 0.68207 0.1233 0.0
C2200 C 0.6192 0.69163 0.33498 0.0
C2201 C 0.61742 0.68246 0.33727 0.0
C2202 C 0.62562 0.67732 0.32364 0.0
C2203 C 0.62065 0.67537 0.33168 0.0
C2204 C 0.62726 0.68653 0.32127 0.0
C2205 C 0.6241 0.69363 0.32693 0.0
U2206 U 0.60228 0.69982 0.35279 0.0
O2207 O 0.60424 0.7074 0.36566 0.0
O2208 O 0.59536 0.71309 0.3549 0.0
C2209 C 0.59941 0.71448 0.36285 0.0
C2210 C 0.61587 0.69908 0.34095 0.0
C2211 C 0.60393 0.72342 0.36398 0.0
C2212 C 0.61657 0.73384 0.36072 0.0
C2213 C 0.61205 0.72551 0.3592 0.0
C2214 C 0.60482 0.73814 0.37172 0.0
C2215 C 0.61306 0.74022 0.36707 0.0
C2216 C 0.60031 0.7298 0.37018 0.0
C2217 C 0.58412 0.68154 0.35998 0.0
C2218 C 0.57775 0.67615 0.37445 0.0
C2219 C 0.57034 0.67208 0.36015 0.0
C2220 C 0.57691 0.67715 0.35532 0.0
C2221 C 0.57088 0.67124 0.36975 0.0
C2222 C 0.58431 0.68127 0.36962 0.0
C2223 C 0.59191 0.6852 0.35458 0.0
O2224 O 0.6077 0.70236 0.33887 0.0
O2225 O 0.61694 0.69764 0.34979 0.0
O2226 O 0.59974 0.68635 0.35895 0.0
O2227 O 0.59008 0.69178 0.3487 0.0
H2228 H 0.61354 0.68076 0.34339 0.0
H2229 H 0.61914 0.66836 0.3336 0.0
H2230 H 0.6311 0.68823 0.31513 0.0
H2231 H 0.62549 0.70068 0.32503 0.0
H2232 H 0.62296 0.73515 0.35712 0.0
H2233 H 0.61496 0.72062 0.35441 0.0
H2234 H 0.60186 0.74293 0.37656 0.0
H2235 H 0.59404 0.7283 0.37392 0.0
H2236 H 0.57829 0.67573 0.38185 0.0
H2237 H 0.56521 0.66831 0.3563 0.0
H2238 H 0.57665 0.67722 0.34789 0.0
H2239 H 0.58977 0.68463 0.3734 0.0
C2240 C 0.93805 0.57744 0.65464 0.0
C2241 C 0.93635 0.58648 0.65745 0.0
C2242 C 0.94996 0.59178 0.64923 0.0
C2243 C 0.94219 0.59357 0.65474 0.0
C2244 C 0.95166 0.58269 0.64646 0.0
C2245 C 0.94575 0.57558 0.64914 0.0
U2246 U 0.91952 0.56934 0.67069 0.0
O2247 O 0.90648 0.56209 0.66823 0.0
O2248 O 0.91686 0.55604 0.67733 0.0
C2249 C 0.90899 0.55489 0.67304 0.0
C2250 C 0.93181 0.57003 0.65752 0.0
C2251 C 0.90779 0.54603 0.66838 0.0
C2252 C 0.91133 0.53564 0.65585 0.0
C2253 C 0.91284 0.54392 0.66046 0.0
C2254 C 0.89979 0.53147 0.66712 0.0
C2255 C 0.90472 0.52934 0.65908 0.0
C2256 C 0.90132 0.53974 0.67172 0.0
C2257 C 0.91234 0.58757 0.68886 0.0
C2258 C 0.89768 0.59263 0.69515 0.0
C2259 C 0.91194 0.59749 0.70226 0.0
C2260 C 0.91691 0.59237 0.69585 0.0
C2261 C 0.90228 0.59795 0.70178 0.0
C2262 C 0.90267 0.58748 0.68875 0.0
C2263 C 0.91783 0.58385 0.6812 0.0
O2264 O 0.93354 0.56651 0.66563 0.0
O2265 O 0.92302 0.57173 0.65622 0.0
O2266 O 0.91361 0.58292 0.67329 0.0
O2267 O 0.92349 0.57708 0.68309 0.0
H2268 H 0.93044 0.58806 0.66172 0.0
H2269 H 0.94054 0.60048 0.65687 0.0
H2270 H 0.95762 0.58104 0.64231 0.0
H2271 H 0.94719 0.56863 0.64695 0.0
H2272 H 0.91516 0.53429 0.64962 0.0
H2273 H 0.91785 0.54872 0.65777 0.0
H2274 H 0.89474 0.52674 0.66986 0.0
H2275 H 0.89737 0.54128 0.67784 0.0
H2276 H 0.89024 0.59276 0.69468 0.0
H2277 H 0.91571 0.60157 0.70719 0.0
H2278 H 0.92437 0.59257 0.69604 0.0
H2279 H 0.89897 0.58379 0.68346 0.0
C2280 C 0.69398 0.68552 0.90322 0.0
C2281 C 0.68477 0.68323 0.90502 0.0
C2282 C 0.67957 0.69675 0.89674 0.0
C2283 C 0.67764 0.68876 0.90177 0.0
C2284 C 0.68881 0.69914 0.8951 0.0
C2285 C 0.69597 0.69353 0.89828 0.0
U2286 U 0.70229 0.66767 0.91997 0.0
O2287 O 0.70984 0.65479 0.91787 0.0
O2288 O 0.71567 0.66547 0.92672 0.0
C2289 C 0.71701 0.65757 0.92259 0.0
C2290 C 0.70147 0.67955 0.9065 0.0
C2291 C 0.72591 0.6565 0.91789 0.0
C2292 C 0.73658 0.66091 0.90584 0.0
C2293 C 0.7284 0.66238 0.91069 0.0
C2294 C 0.73994 0.64778 0.91544 0.0
C2295 C 0.7424 0.65351 0.90807 0.0
C2296 C 0.73176 0.64926 0.9203 0.0
C2297 C 0.684 0.66038 0.93811 0.0
C2298 C 0.67918 0.64577 0.94456 0.0
C2299 C 0.67412 0.65995 0.95157 0.0
C2300 C 0.67915 0.66492 0.94508 0.0
C2301 C 0.67381 0.65032 0.95118 0.0
C2302 C 0.68424 0.65075 0.93808 0.0
C2303 C 0.68765 0.66583 0.93039 0.0
O2304 O 0.70479 0.6816 0.91463 0.0
O2305 O 0.70002 0.67073 0.9054 0.0
O2306 O 0.68875 0.66153 0.92254 0.0
O2307 O 0.6943 0.67167 0.93223 0.0
H2308 H 0.68308 0.67713 0.90892 0.0
H2309 H 0.6706 0.68682 0.90328 0.0
H2310 H 0.6905 0.70525 0.89122 0.0
H2311 H 0.70304 0.69543 0.89686 0.0
H2312 H 0.73832 0.66554 0.9003 0.0
H2313 H 0.72395 0.66801 0.90874 0.0
H2314 H 0.74418 0.64196 0.91728 0.0
H2315 H 0.7299 0.64463 0.92581 0.0
H2316 H 0.67917 0.63836 0.94415 0.0
H2317 H 0.66999 0.66368 0.9565 0.0
H2318 H 0.67883 0.67234 0.94521 0.0
H2319 H 0.68798 0.64707 0.93281 0.0
C2320 C 0.58613 0.44183 0.15493 0.0
C2321 C 0.58779 0.4328 0.15779 0.0
C2322 C 0.57425 0.42749 0.14948 0.0
C2323 C 0.58196 0.42571 0.15505 0.0
C2324 C 0.57258 0.43658 0.14667 0.0
C2325 C 0.57849 0.44369 0.14937 0.0
U2326 U 0.60467 0.45011 0.17094 0.0
O2327 O 0.61768 0.45736 0.16836 0.0
O2328 O 0.60729 0.46352 0.17737 0.0
C2329 C 0.61514 0.46464 0.17302 0.0
C2330 C 0.59238 0.44924 0.15778 0.0
C2331 C 0.61623 0.47339 0.16814 0.0
C2332 C 0.61222 0.48354 0.15555 0.0
C2333 C 0.61077 0.47544 0.16048 0.0
C2334 C 0.62449 0.48772 0.166 0.0
C2335 C 0.61918 0.48973 0.15818 0.0
C2336 C 0.62303 0.47961 0.17092 0.0
C2337 C 0.61194 0.4321 0.18932 0.0
C2338 C 0.62656 0.42677 0.19546 0.0
C2339 C 0.61231 0.42251 0.20295 0.0
C2340 C 0.60737 0.42761 0.19651 0.0
C2341 C 0.62194 0.42174 0.2023 0.0
C2342 C 0.62161 0.43191 0.18902 0.0
C2343 C 0.60643 0.43574 0.18163 0.0
O2344 O 0.59063 0.45283 0.16587 0.0
O2345 O 0.60118 0.44752 0.15651 0.0
O2346 O 0.61062 0.43659 0.17369 0.0
O2347 O 0.60075 0.44252 0.18346 0.0
H2348 H 0.59366 0.43122 0.1621 0.0
H2349 H 0.58358 0.4188 0.15722 0.0
H2350 H 0.56667 0.43823 0.14247 0.0
H2351 H 0.57708 0.45063 0.14714 0.0
H2352 H 0.60791 0.48493 0.14965 0.0
H2353 H 0.60547 0.47071 0.15824 0.0
H2354 H 0.62996 0.49228 0.16816 0.0
H2355 H 0.62732 0.47811 0.17681 0.0
H2356 H 0.63398 0.42641 0.19484 0.0
H2357 H 0.60851 0.41866 0.20806 0.0
H2358 H 0.59992 0.42763 0.19684 0.0
H2359 H 0.62533 0.43535 0.18358 0.0
C2360 C 0.82982 0.33319 0.40442 0.0
C2361 C 0.83888 0.33498 0.40722 0.0
C2362 C 0.84435 0.32152 0.39896 0.0
C2363 C 0.84606 0.32925 0.40447 0.0
C2364 C 0.83523 0.31973 0.39619 0.0
C2365 C 0.82802 0.32553 0.3989 0.0
U2366 U 0.82158 0.3515 0.42055 0.0
O2367 O 0.81413 0.36438 0.4182 0.0
O2368 O 0.80826 0.35394 0.42733 0.0
C2369 C 0.80697 0.36179 0.42308 0.0
C2370 C 0.82231 0.33929 0.40736 0.0
C2371 C 0.79801 0.36291 0.41854 0.0
C2372 C 0.78759 0.35965 0.40593 0.0
C2373 C 0.79594 0.35812 0.41046 0.0
C2374 C 0.78324 0.37064 0.41761 0.0
C2375 C 0.78117 0.36601 0.4094 0.0
C2376 C 0.79159 0.36911 0.42213 0.0
C2377 C 0.83992 0.35895 0.43853 0.0
C2378 C 0.84476 0.37365 0.44474 0.0
C2379 C 0.84982 0.35957 0.45194 0.0
C2380 C 0.84478 0.35451 0.44554 0.0
C2381 C 0.85013 0.36919 0.45142 0.0
C2382 C 0.83968 0.36857 0.43835 0.0
C2383 C 0.83623 0.35339 0.43091 0.0
O2384 O 0.81887 0.33751 0.41551 0.0
O2385 O 0.82389 0.34806 0.40605 0.0
O2386 O 0.83517 0.35756 0.42299 0.0
O2387 O 0.82954 0.34764 0.43286 0.0
H2388 H 0.84041 0.34086 0.4115 0.0
H2389 H 0.85299 0.33097 0.4066 0.0
H2390 H 0.83363 0.31379 0.39203 0.0
H2391 H 0.82106 0.32401 0.39672 0.0
H2392 H 0.78629 0.35605 0.39957 0.0
H2393 H 0.80085 0.35333 0.40758 0.0
H2394 H 0.77841 0.37549 0.42054 0.0
H2395 H 0.79308 0.37285 0.42838 0.0
H2396 H 0.84477 0.38106 0.44422 0.0
H2397 H 0.85395 0.35591 0.45692 0.0
H2398 H 0.84509 0.3471 0.44578 0.0
H2399 H 0.83593 0.37218 0.43304 0.0
C2400 C 0.93613 0.44128 0.86744 0.0
C2401 C 0.93394 0.43211 0.86555 0.0
C2402 C 0.94757 0.427 0.8738 0.0
C2403 C 0.93957 0.42504 0.86874 0.0
C2404 C 0.94985 0.43621 0.87554 0.0
C2405 C 0.94414 0.4433 0.87241 0.0
U2406 U 0.91819 0.4495 0.85066 0.0
O2407 O 0.90531 0.45713 0.85269 0.0
O2408 O 0.9161 0.46279 0.8438 0.0
C2409 C 0.90816 0.46421 0.84789 0.0
C2410 C 0.93011 0.44871 0.86415 0.0
C2411 C 0.90712 0.47314 0.85246 0.0
C2412 C 0.91068 0.48351 0.865 0.0
C2413 C 0.91209 0.47519 0.86044 0.0
C2414 C 0.89941 0.48787 0.85355 0.0
C2415 C 0.90425 0.48993 0.86165 0.0
C2416 C 0.90083 0.47954 0.849 0.0
C2417 C 0.91099 0.43126 0.83249 0.0
C2418 C 0.89654 0.42582 0.82604 0.0
C2419 C 0.91096 0.42191 0.81868 0.0
C2420 C 0.91573 0.42696 0.82529 0.0
C2421 C 0.90133 0.42101 0.81916 0.0
C2422 C 0.90132 0.43091 0.83264 0.0
C2423 C 0.91636 0.43492 0.84028 0.0
O2424 O 0.93217 0.45202 0.85602 0.0
O2425 O 0.92125 0.44724 0.86524 0.0
O2426 O 0.91195 0.43607 0.84807 0.0
O2427 O 0.92229 0.44149 0.83848 0.0
H2428 H 0.92785 0.4304 0.86162 0.0
H2429 H 0.93771 0.41803 0.86715 0.0
H2430 H 0.95595 0.43792 0.87944 0.0
H2431 H 0.94597 0.45034 0.87389 0.0
H2432 H 0.91443 0.48481 0.87128 0.0
H2433 H 0.91695 0.47029 0.86322 0.0
H2434 H 0.8945 0.49269 0.85073 0.0
H2435 H 0.89694 0.47806 0.84284 0.0
H2436 H 0.88911 0.42536 0.82653 0.0
H2437 H 0.91489 0.41822 0.81356 0.0
H2438 H 0.92319 0.42709 0.82506 0.0
H2439 H 0.89747 0.4342 0.83809 0.0
C2440 C 0.82971 0.68514 0.11778 0.0
C2441 C 0.83892 0.68279 0.11604 0.0
C2442 C 0.84415 0.69631 0.12432 0.0
C2443 C 0.84606 0.68829 0.11932 0.0
C2444 C 0.83491 0.69874 0.12591 0.0
C2445 C 0.82774 0.69316 0.12269 0.0
U2446 U 0.8214 0.66745 0.10085 0.0
O2447 O 0.81361 0.65468 0.10278 0.0
O2448 O 0.80808 0.6655 0.09391 0.0
C2449 C 0.80655 0.65759 0.09796 0.0
C2450 C 0.82221 0.67925 0.1144 0.0
C2451 C 0.79756 0.65664 0.1025 0.0
C2452 C 0.78713 0.66031 0.115 0.0
C2453 C 0.79553 0.66161 0.11048 0.0
C2454 C 0.78266 0.64914 0.10353 0.0
C2455 C 0.78061 0.654 0.11162 0.0
C2456 C 0.79106 0.65045 0.09902 0.0
C2457 C 0.83975 0.66013 0.08279 0.0
C2458 C 0.84457 0.64557 0.07624 0.0
C2459 C 0.84957 0.6598 0.06929 0.0
C2460 C 0.84457 0.66472 0.07583 0.0
C2461 C 0.8499 0.65017 0.06961 0.0
C2462 C 0.83953 0.6505 0.08277 0.0
C2463 C 0.8361 0.66553 0.09055 0.0
O2464 O 0.81898 0.68137 0.10625 0.0
O2465 O 0.82357 0.6704 0.11546 0.0
O2466 O 0.83486 0.66115 0.09834 0.0
O2467 O 0.82956 0.67148 0.08872 0.0
H2468 H 0.84059 0.67669 0.11214 0.0
H2469 H 0.8531 0.68633 0.11784 0.0
H2470 H 0.83323 0.70486 0.12976 0.0
H2471 H 0.82068 0.6951 0.12406 0.0
H2472 H 0.78584 0.66406 0.12128 0.0
H2473 H 0.8005 0.66639 0.11329 0.0
H2474 H 0.77777 0.64432 0.10068 0.0
H2475 H 0.79253 0.64657 0.09286 0.0
H2476 H 0.84459 0.63816 0.0766 0.0
H2477 H 0.85367 0.66357 0.06436 0.0
H2478 H 0.84487 0.67214 0.07574 0.0
H2479 H 0.83582 0.64678 0.08803 0.0
C2480 C 0.58591 0.57774 0.36552 0.0
C2481 C 0.58761 0.58678 0.36271 0.0
C2482 C 0.57402 0.59207 0.37096 0.0
C2483 C 0.58177 0.59386 0.36545 0.0
C2484 C 0.57232 0.58297 0.37373 0.0
C2485 C 0.57822 0.57586 0.37103 0.0
U2486 U 0.60443 0.56964 0.34944 0.0
O2487 O 0.61742 0.56232 0.35189 0.0
O2488 O 0.60702 0.55635 0.34276 0.0
C2489 C 0.61488 0.55514 0.34707 0.0
C2490 C 0.59214 0.57033 0.36261 0.0
C2491 C 0.61601 0.54627 0.35171 0.0
C2492 C 0.61228 0.53583 0.36415 0.0
C2493 C 0.61084 0.54412 0.35955 0.0
C2494 C 0.62398 0.5317 0.35304 0.0
C2495 C 0.61893 0.52954 0.36099 0.0
C2496 C 0.62253 0.54 0.34844 0.0
C2497 C 0.61168 0.58787 0.33128 0.0
C2498 C 0.62634 0.59292 0.32497 0.0
C2499 C 0.61209 0.59772 0.31783 0.0
C2500 C 0.60712 0.59263 0.32427 0.0
C2501 C 0.62175 0.59819 0.3183 0.0
C2502 C 0.62136 0.5878 0.3314 0.0
C2503 C 0.60618 0.58416 0.33895 0.0
O2504 O 0.5904 0.56684 0.35449 0.0
O2505 O 0.60094 0.57202 0.36391 0.0
O2506 O 0.61042 0.58319 0.34686 0.0
O2507 O 0.60048 0.57742 0.33706 0.0
H2508 H 0.59351 0.58837 0.35844 0.0
H2509 H 0.58342 0.60078 0.36332 0.0
H2510 H 0.56636 0.58131 0.37789 0.0
H2511 H 0.57678 0.56891 0.37321 0.0
H2512 H 0.60836 0.53445 0.37032 0.0
H2513 H 0.6058 0.54892 0.36218 0.0
H2514 H 0.62907 0.52698 0.35036 0.0
H2515 H 0.62657 0.54155 0.34239 0.0
H2516 H 0.63378 0.59305 0.32544 0.0
H2517 H 0.60832 0.60177 0.31287 0.0
H2518 H 0.59966 0.59282 0.32407 0.0
H2519 H 0.62506 0.58414 0.33671 0.0
C2520 C 0.69439 0.33405 0.61757 0.0
C2521 C 0.68518 0.33637 0.61583 0.0
C2522 C 0.67997 0.32283 0.6241 0.0
C2523 C 0.67804 0.33085 0.6191 0.0
C2524 C 0.68921 0.32043 0.62569 0.0
C2525 C 0.69637 0.32602 0.62248 0.0
U2526 U 0.70271 0.35175 0.60064 0.0
O2527 O 0.71046 0.36454 0.60257 0.0
O2528 O 0.71604 0.35373 0.59371 0.0
C2529 C 0.71754 0.36164 0.59776 0.0
C2530 C 0.70189 0.33996 0.6142 0.0
C2531 C 0.72652 0.36262 0.60231 0.0
C2532 C 0.73694 0.35896 0.6148 0.0
C2533 C 0.72855 0.35765 0.61028 0.0
C2534 C 0.7414 0.37014 0.60333 0.0
C2535 C 0.74345 0.36528 0.61142 0.0
C2536 C 0.73301 0.36881 0.59882 0.0
C2537 C 0.68441 0.35902 0.58255 0.0
C2538 C 0.67965 0.37358 0.57595 0.0
C2539 C 0.67459 0.35935 0.56905 0.0
C2540 C 0.67957 0.35443 0.5756 0.0
C2541 C 0.67431 0.36898 0.56934 0.0
C2542 C 0.68466 0.36865 0.58249 0.0
C2543 C 0.68803 0.35363 0.59032 0.0
O2544 O 0.70515 0.33784 0.60606 0.0
O2545 O 0.7005 0.3488 0.61525 0.0
O2546 O 0.68923 0.35802 0.5981 0.0
O2547 O 0.69459 0.34769 0.5885 0.0
H2548 H 0.6835 0.34248 0.61195 0.0
H2549 H 0.671 0.3328 0.61763 0.0
H2550 H 0.69089 0.3143 0.62953 0.0
H2551 H 0.70344 0.32409 0.62385 0.0
H2552 H 0.73823 0.3552 0.62107 0.0
H2553 H 0.72359 0.35286 0.61309 0.0
H2554 H 0.74629 0.37497 0.60048 0.0
H2555 H 0.73154 0.3727 0.59266 0.0
H2556 H 0.67966 0.381 0.57628 0.0
H2557 H 0.67049 0.35558 0.56413 0.0
H2558 H 0.67924 0.34701 0.57554 0.0
H2559 H 0.68839 0.37237 0.58774 0.0
C2560 C 0.65448 0.9353 0.57865 0.0
C2561 C 0.65626 0.93297 0.58782 0.0
C2562 C 0.64799 0.9465 0.59306 0.0
C2563 C 0.65301 0.93847 0.59494 0.0
C2564 C 0.64637 0.94892 0.58386 0.0
C2565 C 0.64956 0.94334 0.5767 0.0
U2566 U 0.67145 0.91762 0.5704 0.0
O2567 O 0.66954 0.90473 0.56285 0.0
O2568 O 0.67837 0.91551 0.55712 0.0
C2569 C 0.67437 0.90755 0.55576 0.0
C2570 C 0.65783 0.92939 0.57116 0.0
C2571 C 0.66986 0.90634 0.54681 0.0
C2572 C 0.65727 0.90951 0.53633 0.0
C2573 C 0.66177 0.91112 0.54466 0.0
C2574 C 0.66898 0.89845 0.53217 0.0
C2575 C 0.66077 0.90309 0.53001 0.0
C2576 C 0.67348 0.90007 0.54049 0.0
C2577 C 0.68959 0.91049 0.58867 0.0
C2578 C 0.6962 0.89591 0.59337 0.0
C2579 C 0.70307 0.91012 0.59854 0.0
C2580 C 0.69652 0.91506 0.59356 0.0
C2581 C 0.70279 0.90049 0.59877 0.0
C2582 C 0.68966 0.90086 0.58835 0.0
C2583 C 0.68181 0.91588 0.58504 0.0
O2584 O 0.66598 0.9315 0.56788 0.0
O2585 O 0.65678 0.92055 0.57257 0.0
O2586 O 0.67399 0.9115 0.5839 0.0
O2587 O 0.68364 0.92175 0.57844 0.0
H2588 H 0.66016 0.92686 0.58947 0.0
H2589 H 0.65451 0.93651 0.60195 0.0
H2590 H 0.64251 0.95506 0.5822 0.0
H2591 H 0.64816 0.94528 0.56966 0.0
H2592 H 0.6509 0.91312 0.53496 0.0
H2593 H 0.65886 0.91597 0.54949 0.0
H2594 H 0.67193 0.89354 0.52742 0.0
H2595 H 0.67973 0.89632 0.54206 0.0
H2596 H 0.69587 0.88849 0.59332 0.0
H2597 H 0.70797 0.91387 0.60269 0.0
H2598 H 0.69657 0.92247 0.59393 0.0
H2599 H 0.68443 0.89715 0.58458 0.0
C2600 C 0.15453 0.58428 0.44191 0.0
C2601 C 0.15634 0.58654 0.43272 0.0
C2602 C 0.14787 0.57309 0.42759 0.0
C2603 C 0.15299 0.58103 0.42564 0.0
C2604 C 0.14619 0.57076 0.43681 0.0
C2605 C 0.14947 0.57634 0.44392 0.0
U2606 U 0.17175 0.60179 0.45006 0.0
O2607 O 0.17002 0.61465 0.4577 0.0
O2608 O 0.17877 0.60376 0.46331 0.0
C2609 C 0.17485 0.61175 0.46474 0.0
C2610 C 0.15799 0.59017 0.44936 0.0
C2611 C 0.17038 0.61292 0.47372 0.0
C2612 C 0.15776 0.60977 0.4842 0.0
C2613 C 0.16224 0.6082 0.47585 0.0
C2614 C 0.16961 0.62067 0.48844 0.0
C2615 C 0.16134 0.6161 0.49057 0.0
C2616 C 0.17407 0.61909 0.48008 0.0
C2617 C 0.18991 0.60885 0.43174 0.0
C2618 C 0.19648 0.62332 0.42665 0.0
C2619 C 0.20362 0.60902 0.42217 0.0
C2620 C 0.197 0.60418 0.42718 0.0
C2621 C 0.20323 0.61863 0.42157 0.0
C2622 C 0.18988 0.61848 0.43171 0.0
C2623 C 0.18208 0.60351 0.43538 0.0
O2624 O 0.16615 0.58796 0.45258 0.0
O2625 O 0.15704 0.59902 0.44795 0.0
O2626 O 0.1743 0.60795 0.43658 0.0
O2627 O 0.18386 0.59757 0.44193 0.0
H2628 H 0.16033 0.59258 0.43102 0.0
H2629 H 0.15453 0.58292 0.41861 0.0
H2630 H 0.14224 0.56469 0.43851 0.0
H2631 H 0.14805 0.57447 0.45097 0.0
H2632 H 0.15135 0.60623 0.48555 0.0
H2633 H 0.15927 0.60343 0.47098 0.0
H2634 H 0.17261 0.6255 0.49322 0.0
H2635 H 0.18036 0.62278 0.47854 0.0
H2636 H 0.19607 0.63073 0.42641 0.0
H2637 H 0.20866 0.60518 0.41826 0.0
H2638 H 0.19714 0.59676 0.42707 0.0
H2639 H 0.18452 0.62227 0.43522 0.0
C2640 C 0.68713 0.90237 0.69222 0.0
C2641 C 0.68482 0.90421 0.68305 0.0
C2642 C 0.69838 0.89593 0.6778 0.0
C2643 C 0.69036 0.90099 0.67592 0.0
C2644 C 0.70077 0.89424 0.687 0.0
C2645 C 0.69516 0.8974 0.69415 0.0
U2646 U 0.66929 0.91914 0.70066 0.0
O2647 O 0.65644 0.91705 0.70837 0.0
O2648 O 0.66726 0.92588 0.71403 0.0
C2649 C 0.65935 0.92174 0.7155 0.0
C2650 C 0.68118 0.90565 0.69971 0.0
C2651 C 0.65849 0.91697 0.72434 0.0
C2652 C 0.66273 0.90449 0.73451 0.0
C2653 C 0.66396 0.9093 0.72631 0.0
C2654 C 0.65066 0.91506 0.73895 0.0
C2655 C 0.65599 0.90724 0.7409 0.0
C2656 C 0.65189 0.91986 0.73073 0.0
C2657 C 0.66194 0.93735 0.68251 0.0
C2658 C 0.64734 0.94382 0.67752 0.0
C2659 C 0.66167 0.95088 0.67279 0.0
C2660 C 0.66657 0.94436 0.67782 0.0
C2661 C 0.65201 0.95049 0.67231 0.0
C2662 C 0.65226 0.9373 0.68258 0.0
C2663 C 0.66736 0.92958 0.68613 0.0
O2664 O 0.68328 0.91377 0.70302 0.0
O2665 O 0.6723 0.90458 0.69832 0.0
O2666 O 0.66297 0.92178 0.68726 0.0
O2667 O 0.67329 0.93138 0.69269 0.0
H2668 H 0.67871 0.90814 0.68141 0.0
H2669 H 0.68841 0.90254 0.66891 0.0
H2670 H 0.7069 0.89035 0.68865 0.0
H2671 H 0.69707 0.89595 0.70119 0.0
H2672 H 0.66705 0.89859 0.73585 0.0
H2673 H 0.66909 0.90698 0.72144 0.0
H2674 H 0.64535 0.91731 0.74366 0.0
H2675 H 0.64758 0.92575 0.7293 0.0
H2676 H 0.6399 0.94341 0.67738 0.0
H2677 H 0.66549 0.95585 0.66879 0.0
H2678 H 0.67403 0.94449 0.67762 0.0
H2679 H 0.6485 0.932 0.68619 0.0
C2680 C 0.36951 0.43457 0.94213 0.0
C2681 C 0.36764 0.43233 0.93295 0.0
C2682 C 0.37596 0.44585 0.92776 0.0
C2683 C 0.37087 0.43788 0.92585 0.0
C2684 C 0.37769 0.44817 0.93697 0.0
C2685 C 0.37452 0.44254 0.9441 0.0
U2686 U 0.35253 0.41687 0.95034 0.0
O2687 O 0.35442 0.40399 0.95792 0.0
O2688 O 0.34557 0.41477 0.96361 0.0
C2689 C 0.34959 0.40682 0.965 0.0
C2690 C 0.36616 0.42863 0.94959 0.0
C2691 C 0.35409 0.40566 0.97395 0.0
C2692 C 0.36665 0.40897 0.98444 0.0
C2693 C 0.36214 0.41051 0.9761 0.0
C2694 C 0.35501 0.39783 0.98862 0.0
C2695 C 0.36319 0.40254 0.99077 0.0
C2696 C 0.35052 0.39938 0.98028 0.0
C2697 C 0.33438 0.40978 0.93201 0.0
C2698 C 0.32799 0.39535 0.92656 0.0
C2699 C 0.32062 0.40968 0.92253 0.0
C2700 C 0.32719 0.41446 0.92762 0.0
C2701 C 0.32114 0.40009 0.92166 0.0
C2702 C 0.33455 0.40015 0.9317 0.0
C2703 C 0.34218 0.41513 0.93569 0.0
O2704 O 0.35801 0.43074 0.95288 0.0
O2705 O 0.3672 0.41979 0.94816 0.0
O2706 O 0.35 0.41073 0.93684 0.0
O2707 O 0.34036 0.42101 0.94228 0.0
H2708 H 0.36367 0.42626 0.93128 0.0
H2709 H 0.36928 0.43599 0.91884 0.0
H2710 H 0.38161 0.45426 0.93865 0.0
H2711 H 0.376 0.44441 0.95114 0.0
H2712 H 0.37299 0.41263 0.9858 0.0
H2713 H 0.36502 0.41537 0.97125 0.0
H2714 H 0.3521 0.39292 0.99338 0.0
H2715 H 0.3443 0.39558 0.97873 0.0
H2716 H 0.32851 0.38796 0.92611 0.0
H2717 H 0.3155 0.41355 0.91876 0.0
H2718 H 0.32695 0.42188 0.92772 0.0
H2719 H 0.33999 0.39634 0.93506 0.0
C2720 C 0.33735 0.61718 0.69195 0.0
C2721 C 0.33964 0.61528 0.68278 0.0
C2722 C 0.32614 0.62364 0.67752 0.0
C2723 C 0.33412 0.61852 0.67565 0.0
C2724 C 0.32378 0.62542 0.68672 0.0
C2725 C 0.32937 0.62224 0.69387 0.0
U2726 U 0.3545 0.59979 0.7005 0.0
O2727 O 0.36744 0.60135 0.70814 0.0
O2728 O 0.35624 0.59305 0.71391 0.0
C2729 C 0.36436 0.5968 0.7153 0.0
C2730 C 0.34321 0.61378 0.69945 0.0
C2731 C 0.36557 0.60146 0.72415 0.0
C2732 C 0.36238 0.61422 0.73437 0.0
C2733 C 0.36082 0.60959 0.72611 0.0
C2734 C 0.37335 0.60255 0.73886 0.0
C2735 C 0.36873 0.6108 0.74082 0.0
C2736 C 0.37178 0.59793 0.73059 0.0
C2737 C 0.36083 0.58098 0.68249 0.0
C2738 C 0.37404 0.57446 0.67453 0.0
C2739 C 0.3598 0.5659 0.67542 0.0
C2740 C 0.35583 0.57297 0.68054 0.0
C2741 C 0.36883 0.56672 0.67204 0.0
C2742 C 0.37008 0.58152 0.67968 0.0
C2743 C 0.35589 0.5891 0.68608 0.0
O2744 O 0.34078 0.60581 0.70291 0.0
O2745 O 0.35212 0.61444 0.69799 0.0
O2746 O 0.36067 0.59669 0.68711 0.0
O2747 O 0.34984 0.58773 0.69265 0.0
H2748 H 0.3457 0.61127 0.68114 0.0
H2749 H 0.33603 0.6169 0.66865 0.0
H2750 H 0.31769 0.62937 0.68836 0.0
H2751 H 0.32748 0.62373 0.7009 0.0
H2752 H 0.3588 0.62061 0.73559 0.0
H2753 H 0.35602 0.61244 0.72118 0.0
H2754 H 0.3782 0.59967 0.7437 0.0
H2755 H 0.3755 0.59165 0.72919 0.0
H2756 H 0.38098 0.57537 0.67197 0.0
H2757 H 0.35564 0.55997 0.67374 0.0
H2758 H 0.34868 0.57237 0.68257 0.0
H2759 H 0.37412 0.58761 0.68101 0.0
C2760 C 0.8699 0.0848 0.07867 0.0
C2761 C 0.86801 0.08701 0.08785 0.0
C2762 C 0.87636 0.07349 0.09299 0.0
C2763 C 0.87125 0.08144 0.09494 0.0
C2764 C 0.87811 0.07121 0.08377 0.0
C2765 C 0.87493 0.07685 0.07667 0.0
U2766 U 0.85287 0.10247 0.07049 0.0
O2767 O 0.85476 0.11538 0.06296 0.0
O2768 O 0.84598 0.10458 0.0572 0.0
C2769 C 0.84996 0.11257 0.05586 0.0
C2770 C 0.86655 0.09076 0.07123 0.0
C2771 C 0.8545 0.11379 0.04692 0.0
C2772 C 0.86711 0.1106 0.03645 0.0
C2773 C 0.86259 0.109 0.04478 0.0
C2774 C 0.85542 0.12168 0.03228 0.0
C2775 C 0.86363 0.11703 0.03013 0.0
C2776 C 0.8509 0.12007 0.0406 0.0
C2777 C 0.8346 0.10944 0.08873 0.0
C2778 C 0.82808 0.12387 0.09401 0.0
C2779 C 0.8208 0.10954 0.09818 0.0
C2780 C 0.82743 0.10475 0.09315 0.0
C2781 C 0.82125 0.11913 0.09895 0.0
C2782 C 0.83469 0.11908 0.08893 0.0
C2783 C 0.84243 0.10412 0.0851 0.0
O2784 O 0.85841 0.08863 0.06791 0.0
O2785 O 0.86754 0.09959 0.0727 0.0
O2786 O 0.85024 0.10854 0.08399 0.0
O2787 O 0.84067 0.09825 0.07848 0.0
H2788 H 0.86403 0.09305 0.08955 0.0
H2789 H 0.86966 0.0833 0.10196 0.0
H2790 H 0.88205 0.06514 0.08207 0.0
H2791 H 0.87641 0.07502 0.06962 0.0
H2792 H 0.87348 0.10699 0.03509 0.0
H2793 H 0.86548 0.10415 0.04961 0.0
H2794 H 0.85249 0.12659 0.02753 0.0
H2795 H 0.84466 0.12382 0.04216 0.0
H2796 H 0.82854 0.13127 0.09438 0.0
H2797 H 0.8157 0.10566 0.10198 0.0
H2798 H 0.82724 0.09732 0.09313 0.0
H2799 H 0.84012 0.12289 0.08554 0.0
C2800 C 0.68747 0.117 0.82819 0.0
C2801 C 0.68514 0.11519 0.83736 0.0
C2802 C 0.69865 0.12354 0.8426 0.0
C2803 C 0.69064 0.11847 0.84449 0.0
C2804 C 0.70108 0.1252 0.8334 0.0
C2805 C 0.6955 0.12198 0.82625 0.0
U2806 U 0.66971 0.10012 0.81987 0.0
O2807 O 0.65679 0.1021 0.81227 0.0
O2808 O 0.66763 0.09331 0.80655 0.0
C2809 C 0.65967 0.09738 0.80514 0.0
C2810 C 0.68155 0.11367 0.8207 0.0
C2811 C 0.65864 0.10207 0.79627 0.0
C2812 C 0.66292 0.11427 0.78578 0.0
C2813 C 0.66437 0.10944 0.79394 0.0
C2814 C 0.65012 0.10428 0.78211 0.0
C2815 C 0.65569 0.11184 0.77982 0.0
C2816 C 0.65158 0.09945 0.79028 0.0
C2817 C 0.66245 0.08203 0.83816 0.0
C2818 C 0.64784 0.07557 0.84315 0.0
C2819 C 0.66215 0.0686 0.84802 0.0
C2820 C 0.66707 0.07508 0.84295 0.0
C2821 C 0.65248 0.06896 0.84845 0.0
C2822 C 0.65277 0.08204 0.83804 0.0
C2823 C 0.66786 0.08977 0.83449 0.0
O2824 O 0.68367 0.10555 0.81742 0.0
O2825 O 0.67267 0.11471 0.8221 0.0
O2826 O 0.66348 0.09757 0.83333 0.0
O2827 O 0.67377 0.08794 0.8279 0.0
H2828 H 0.67903 0.11125 0.83901 0.0
H2829 H 0.68867 0.11694 0.8515 0.0
H2830 H 0.7072 0.12911 0.83175 0.0
H2831 H 0.69743 0.12341 0.81921 0.0
H2832 H 0.66743 0.11996 0.78417 0.0
H2833 H 0.66986 0.11156 0.7985 0.0
H2834 H 0.64443 0.10228 0.77775 0.0
H2835 H 0.64707 0.09379 0.79201 0.0
H2836 H 0.64039 0.07596 0.84325 0.0
H2837 H 0.66595 0.06368 0.85209 0.0
H2838 H 0.67453 0.07497 0.84318 0.0
H2839 H 0.64902 0.0873 0.83436 0.0
C2840 C 0.8371 0.90324 0.32822 0.0
C2841 C 0.83935 0.90502 0.33741 0.0
C2842 C 0.82577 0.89667 0.34252 0.0
C2843 C 0.83377 0.90173 0.34449 0.0
C2844 C 0.82342 0.89506 0.33329 0.0
C2845 C 0.82908 0.89829 0.3262 0.0
U2846 U 0.85492 0.92013 0.31988 0.0
O2847 O 0.86789 0.91809 0.31238 0.0
O2848 O 0.85709 0.92677 0.30648 0.0
C2849 C 0.86506 0.92269 0.30517 0.0
C2850 C 0.84311 0.90656 0.32078 0.0
C2851 C 0.86612 0.91786 0.29638 0.0
C2852 C 0.86209 0.90531 0.28621 0.0
C2853 C 0.86062 0.91024 0.2943 0.0
C2854 C 0.87445 0.91568 0.28209 0.0
C2855 C 0.86911 0.90789 0.28005 0.0
C2856 C 0.87297 0.92061 0.29019 0.0
C2857 C 0.86197 0.93847 0.338 0.0
C2858 C 0.87654 0.94508 0.34289 0.0
C2859 C 0.86219 0.9519 0.34787 0.0
C2860 C 0.85731 0.94536 0.34282 0.0
C2861 C 0.87186 0.95163 0.34823 0.0
C2862 C 0.87165 0.93856 0.33781 0.0
C2863 C 0.85662 0.93067 0.33437 0.0
O2864 O 0.84099 0.91464 0.3174 0.0
O2865 O 0.85198 0.90556 0.32228 0.0
O2866 O 0.86103 0.92288 0.33335 0.0
O2867 O 0.85077 0.9324 0.32772 0.0
H2868 H 0.84545 0.90893 0.33912 0.0
H2869 H 0.83567 0.90322 0.35151 0.0
H2870 H 0.81731 0.89117 0.33158 0.0
H2871 H 0.82721 0.89688 0.31914 0.0
H2872 H 0.85775 0.89944 0.28479 0.0
H2873 H 0.85529 0.90803 0.29901 0.0
H2874 H 0.87997 0.9178 0.27756 0.0
H2875 H 0.87731 0.92645 0.29172 0.0
H2876 H 0.88399 0.94477 0.34293 0.0
H2877 H 0.85835 0.95676 0.35197 0.0
H2878 H 0.84985 0.9454 0.3431 0.0
H2879 H 0.87543 0.93334 0.3341 0.0
C2880 C 0.44432 0.36573 0.08457 0.0
C2881 C 0.43512 0.36391 0.08688 0.0
C2882 C 0.42989 0.37222 0.07338 0.0
C2883 C 0.42797 0.36716 0.08137 0.0
C2884 C 0.43912 0.37389 0.07098 0.0
C2885 C 0.44629 0.3707 0.07657 0.0
U2886 U 0.45267 0.34892 0.10235 0.0
O2887 O 0.46606 0.34215 0.10444 0.0
O2888 O 0.46028 0.35094 0.11521 0.0
C2889 C 0.46744 0.34622 0.11237 0.0
C2890 C 0.45182 0.36243 0.09051 0.0
C2891 C 0.47635 0.35087 0.11343 0.0
C2892 C 0.48657 0.36363 0.11009 0.0
C2893 C 0.47828 0.35897 0.10862 0.0
C2894 C 0.49116 0.35205 0.12109 0.0
C2895 C 0.49308 0.36028 0.11642 0.0
C2896 C 0.48286 0.3474 0.1196 0.0
C2897 C 0.43431 0.33079 0.10956 0.0
C2898 C 0.42927 0.32434 0.12411 0.0
C2899 C 0.42431 0.31742 0.10985 0.0
C2900 C 0.42945 0.32388 0.10495 0.0
C2901 C 0.42388 0.31779 0.11948 0.0
C2902 C 0.43444 0.33079 0.1192 0.0
C2903 C 0.43802 0.33852 0.10417 0.0
O2904 O 0.4504 0.36349 0.09935 0.0
O2905 O 0.45514 0.35431 0.08842 0.0
O2906 O 0.44465 0.3367 0.09831 0.0
O2907 O 0.43915 0.34633 0.10853 0.0
H2908 H 0.43345 0.35998 0.09296 0.0
H2909 H 0.42094 0.36563 0.0833 0.0
H2910 H 0.44079 0.37779 0.06488 0.0
H2911 H 0.45335 0.37213 0.07466 0.0
H2912 H 0.48775 0.37 0.10647 0.0
H2913 H 0.4733 0.36177 0.10385 0.0
H2914 H 0.49605 0.34921 0.12591 0.0
H2915 H 0.48148 0.34114 0.12337 0.0
H2916 H 0.42917 0.32473 0.13153 0.0
H2917 H 0.42018 0.31255 0.10605 0.0
H2918 H 0.42922 0.32378 0.09752 0.0
H2919 H 0.43817 0.33601 0.12294 0.0
C2920 C 0.40535 0.69192 0.83456 0.0
C2921 C 0.40724 0.68277 0.83683 0.0
C2922 C 0.39892 0.67753 0.82333 0.0
C2923 C 0.40401 0.67564 0.83131 0.0
C2924 C 0.39718 0.68672 0.82096 0.0
C2925 C 0.40035 0.69386 0.82656 0.0
U2926 U 0.42219 0.70013 0.85237 0.0
O2927 O 0.42912 0.71339 0.85451 0.0
O2928 O 0.42019 0.7077 0.86525 0.0
C2929 C 0.42503 0.71478 0.86245 0.0
C2930 C 0.40865 0.69939 0.8405 0.0
C2931 C 0.42049 0.72372 0.86356 0.0
C2932 C 0.40791 0.73415 0.86018 0.0
C2933 C 0.41247 0.72583 0.85866 0.0
C2934 C 0.41945 0.73837 0.8714 0.0
C2935 C 0.4113 0.74049 0.86664 0.0
C2936 C 0.424 0.73006 0.86987 0.0
C2937 C 0.44024 0.68171 0.85956 0.0
C2938 C 0.44642 0.67593 0.87396 0.0
C2939 C 0.45401 0.67223 0.85964 0.0
C2940 C 0.4475 0.67744 0.85488 0.0
C2941 C 0.45333 0.67113 0.8692 0.0
C2942 C 0.43993 0.68118 0.86919 0.0
C2943 C 0.4325 0.68547 0.85419 0.0
O2944 O 0.40754 0.69798 0.84934 0.0
O2945 O 0.41683 0.70266 0.83844 0.0
O2946 O 0.43439 0.69206 0.84833 0.0
O2947 O 0.42465 0.68665 0.85854 0.0
H2948 H 0.41119 0.68112 0.84291 0.0
H2949 H 0.40559 0.66865 0.83323 0.0
H2950 H 0.39326 0.68837 0.81487 0.0
H2951 H 0.39887 0.70089 0.82467 0.0
H2952 H 0.40159 0.73548 0.85648 0.0
H2953 H 0.40964 0.72098 0.85379 0.0
H2954 H 0.42231 0.74314 0.87633 0.0
H2955 H 0.4302 0.72853 0.87371 0.0
H2956 H 0.44579 0.67531 0.88134 0.0
H2957 H 0.45918 0.66855 0.85575 0.0
H2958 H 0.44785 0.6777 0.84745 0.0
H2959 H 0.43443 0.68444 0.873 0.0
C2960 C 0.07975 0.65482 0.58334 0.0
C2961 C 0.08879 0.65774 0.58504 0.0
C2962 C 0.09424 0.6495 0.57155 0.0
C2963 C 0.09596 0.65507 0.57925 0.0
C2964 C 0.08514 0.64662 0.56985 0.0
C2965 C 0.07795 0.64927 0.57571 0.0
U2966 U 0.07156 0.67068 0.60191 0.0
O2967 O 0.0582 0.6773 0.60456 0.0
O2968 O 0.06425 0.66813 0.61485 0.0
C2969 C 0.05702 0.67294 0.61237 0.0
C2970 C 0.07228 0.65764 0.58955 0.0
C2971 C 0.04812 0.66826 0.6135 0.0
C2972 C 0.03784 0.65558 0.61008 0.0
C2973 C 0.04613 0.66024 0.60859 0.0
C2974 C 0.03339 0.66702 0.6213 0.0
C2975 C 0.0314 0.65887 0.61653 0.0
C2976 C 0.04168 0.67166 0.61979 0.0
C2977 C 0.08993 0.6887 0.60929 0.0
C2978 C 0.09508 0.69476 0.62396 0.0
C2979 C 0.0999 0.70207 0.60984 0.0
C2980 C 0.09473 0.69574 0.60482 0.0
C2981 C 0.1004 0.70145 0.61946 0.0
C2982 C 0.08988 0.68844 0.61893 0.0
C2983 C 0.08617 0.68113 0.60373 0.0
O2984 O 0.07394 0.65626 0.5983 0.0
O2985 O 0.06876 0.66578 0.58788 0.0
O2986 O 0.07939 0.6831 0.59809 0.0
O2987 O 0.08519 0.67317 0.60785 0.0
H2988 H 0.09032 0.66206 0.59089 0.0
H2989 H 0.10288 0.65728 0.5809 0.0
H2990 H 0.08354 0.64242 0.56394 0.0
H2991 H 0.071 0.64699 0.57427 0.0
H2992 H 0.0366 0.64927 0.60638 0.0
H2993 H 0.05105 0.6575 0.60371 0.0
H2994 H 0.02855 0.6698 0.62621 0.0
H2995 H 0.04312 0.67786 0.62363 0.0
H2996 H 0.09523 0.69417 0.63137 0.0
H2997 H 0.10398 0.70706 0.60614 0.0
H2998 H 0.09491 0.69605 0.59739 0.0
H2999 H 0.08618 0.6831 0.62256 0.0
C3000 C 0.11858 0.32737 0.33469 0.0
C3001 C 0.11669 0.33652 0.33697 0.0
C3002 C 0.12497 0.34177 0.32343 0.0
C3003 C 0.1199 0.34365 0.33143 0.0
C3004 C 0.12672 0.33258 0.32108 0.0
C3005 C 0.12358 0.32543 0.32669 0.0
U3006 U 0.10169 0.31914 0.35249 0.0
O3007 O 0.09467 0.30591 0.35453 0.0
O3008 O 0.10363 0.31146 0.3653 0.0
C3009 C 0.09874 0.30443 0.36245 0.0
C3010 C 0.11524 0.31989 0.34062 0.0
C3011 C 0.10321 0.29546 0.3635 0.0
C3012 C 0.11573 0.28497 0.36006 0.0
C3013 C 0.11125 0.29334 0.35862 0.0
C3014 C 0.10407 0.28069 0.37115 0.0
C3015 C 0.11224 0.27858 0.36641 0.0
C3016 C 0.0996 0.28906 0.3697 0.0
C3017 C 0.08371 0.33761 0.35977 0.0
C3018 C 0.07755 0.34341 0.37417 0.0
C3019 C 0.06996 0.34711 0.35986 0.0
C3020 C 0.07646 0.34188 0.35509 0.0
C3021 C 0.07064 0.34822 0.36942 0.0
C3022 C 0.08403 0.33815 0.3694 0.0
C3023 C 0.09146 0.33384 0.35439 0.0
O3024 O 0.11636 0.32126 0.34946 0.0
O3025 O 0.10705 0.31666 0.33855 0.0
O3026 O 0.08955 0.32731 0.34848 0.0
O3027 O 0.09928 0.33259 0.35874 0.0
H3028 H 0.11274 0.33817 0.34306 0.0
H3029 H 0.1183 0.35064 0.33335 0.0
H3030 H 0.13064 0.33092 0.31497 0.0
H3031 H 0.12506 0.3184 0.3248 0.0
H3032 H 0.12207 0.28364 0.35638 0.0
H3033 H 0.11415 0.29823 0.35382 0.0
H3034 H 0.10113 0.27589 0.37601 0.0
H3035 H 0.09338 0.29059 0.37352 0.0
H3036 H 0.07819 0.34404 0.38155 0.0
H3037 H 0.0648 0.35079 0.35597 0.0
H3038 H 0.0761 0.34162 0.34767 0.0
H3039 H 0.08953 0.33489 0.37321 0.0
C3040 C 0.44442 0.65525 0.43697 0.0
C3041 C 0.43538 0.65819 0.43535 0.0
C3042 C 0.42997 0.64978 0.44875 0.0
C3043 C 0.42823 0.65545 0.44113 0.0
C3044 C 0.43908 0.64689 0.45038 0.0
C3045 C 0.44624 0.6496 0.44453 0.0
U3046 U 0.45266 0.67125 0.4185 0.0
O3047 O 0.46608 0.6778 0.41588 0.0
O3048 O 0.45996 0.66873 0.40554 0.0
C3049 C 0.46723 0.67348 0.40805 0.0
C3050 C 0.45188 0.65812 0.43076 0.0
C3051 C 0.47609 0.66875 0.40689 0.0
C3052 C 0.4863 0.656 0.41024 0.0
C3053 C 0.47804 0.6607 0.41176 0.0
C3054 C 0.49081 0.66747 0.39908 0.0
C3055 C 0.49276 0.65929 0.40382 0.0
C3056 C 0.48255 0.67215 0.40061 0.0
C3057 C 0.43445 0.68944 0.41121 0.0
C3058 C 0.42955 0.69566 0.39652 0.0
C3059 C 0.42442 0.70276 0.41065 0.0
C3060 C 0.42953 0.69639 0.41568 0.0
C3061 C 0.4241 0.70226 0.40102 0.0
C3062 C 0.43469 0.68931 0.40157 0.0
C3063 C 0.43814 0.68181 0.41674 0.0
O3064 O 0.45018 0.65681 0.422 0.0
O3065 O 0.45543 0.66622 0.43249 0.0
O3066 O 0.44494 0.68369 0.42239 0.0
O3067 O 0.43905 0.67387 0.41257 0.0
H3068 H 0.43383 0.66258 0.42955 0.0
H3069 H 0.4213 0.65768 0.43953 0.0
H3070 H 0.4407 0.64261 0.45624 0.0
H3071 H 0.45319 0.6473 0.44591 0.0
H3072 H 0.4875 0.64966 0.41391 0.0
H3073 H 0.4731 0.65796 0.41662 0.0
H3074 H 0.49567 0.67026 0.39418 0.0
H3075 H 0.48115 0.67838 0.39681 0.0
H3076 H 0.42954 0.69518 0.38911 0.0
H3077 H 0.42024 0.70767 0.41434 0.0
H3078 H 0.42921 0.69659 0.42311 0.0
H3079 H 0.43848 0.68404 0.39795 0.0
C3080 C 0.11797 0.69177 0.18641 0.0
C3081 C 0.11608 0.68262 0.1841 0.0
C3082 C 0.12428 0.67733 0.19766 0.0
C3083 C 0.11925 0.67548 0.18964 0.0
C3084 C 0.12601 0.68652 0.20006 0.0
C3085 C 0.12291 0.69368 0.19445 0.0
U3086 U 0.10129 0.70012 0.16849 0.0
O3087 O 0.09454 0.71345 0.16629 0.0
O3088 O 0.10345 0.70764 0.15561 0.0
C3089 C 0.09871 0.71479 0.15839 0.0
C3090 C 0.11475 0.69926 0.18045 0.0
C3091 C 0.10345 0.72364 0.15734 0.0
C3092 C 0.11597 0.73394 0.16129 0.0
C3093 C 0.11111 0.72579 0.16277 0.0
C3094 C 0.10542 0.73797 0.14907 0.0
C3095 C 0.11326 0.74007 0.15433 0.0
C3096 C 0.10057 0.72981 0.15056 0.0
C3097 C 0.08317 0.68179 0.1612 0.0
C3098 C 0.07693 0.67649 0.14665 0.0
C3099 C 0.06969 0.67191 0.1609 0.0
C3100 C 0.07612 0.6771 0.1658 0.0
C3101 C 0.07023 0.67127 0.15129 0.0
C3102 C 0.08334 0.68171 0.15155 0.0
C3103 C 0.09088 0.68553 0.16663 0.0
O3104 O 0.1159 0.69784 0.17162 0.0
O3105 O 0.10659 0.70259 0.18246 0.0
O3106 O 0.08898 0.69215 0.17244 0.0
O3107 O 0.09876 0.68665 0.16233 0.0
H3108 H 0.11217 0.68099 0.17798 0.0
H3109 H 0.11767 0.66849 0.18769 0.0
H3110 H 0.12988 0.68814 0.2062 0.0
H3111 H 0.12439 0.7007 0.19637 0.0
H3112 H 0.12189 0.7354 0.16556 0.0
H3113 H 0.11343 0.72109 0.16805 0.0
H3114 H 0.10321 0.74248 0.1436 0.0
H3115 H 0.09468 0.72823 0.14628 0.0
H3116 H 0.07745 0.67623 0.13924 0.0
H3117 H 0.0647 0.66791 0.16471 0.0
H3118 H 0.07588 0.67702 0.17323 0.0
H3119 H 0.08868 0.68531 0.14782 0.0
C3120 C 0.07952 0.36616 0.93543 0.0
C3121 C 0.08873 0.3643 0.93319 0.0
C3122 C 0.09391 0.37254 0.94675 0.0
C3123 C 0.09585 0.3675 0.93876 0.0
C3124 C 0.08467 0.37425 0.94908 0.0
C3125 C 0.07752 0.37111 0.94343 0.0
U3126 U 0.07129 0.34937 0.91762 0.0
O3127 O 0.05794 0.34257 0.91541 0.0
O3128 O 0.06379 0.35137 0.90468 0.0
C3129 C 0.05662 0.34662 0.90746 0.0
C3130 C 0.07204 0.36289 0.92944 0.0
C3131 C 0.0477 0.35124 0.9063 0.0
C3132 C 0.03732 0.36383 0.9097 0.0
C3133 C 0.04562 0.35922 0.91124 0.0
C3134 C 0.03303 0.35244 0.89839 0.0
C3135 C 0.03095 0.36055 0.9032 0.0
C3136 C 0.04134 0.34783 0.89994 0.0
C3137 C 0.08971 0.33124 0.91062 0.0
C3138 C 0.09496 0.32476 0.89616 0.0
C3139 C 0.09959 0.31779 0.91051 0.0
C3140 C 0.09442 0.32428 0.91532 0.0
C3141 C 0.10019 0.31816 0.90088 0.0
C3142 C 0.08976 0.33125 0.90098 0.0
C3143 C 0.08596 0.33899 0.91595 0.0
O3144 O 0.07353 0.36395 0.92061 0.0
O3145 O 0.06869 0.35478 0.93151 0.0
O3146 O 0.07927 0.33718 0.92176 0.0
O3147 O 0.08486 0.34678 0.91155 0.0
H3148 H 0.09042 0.36038 0.9271 0.0
H3149 H 0.10289 0.36593 0.93686 0.0
H3150 H 0.08298 0.37813 0.95519 0.0
H3151 H 0.07045 0.37258 0.9453 0.0
H3152 H 0.036 0.37012 0.91343 0.0
H3153 H 0.05048 0.36197 0.91615 0.0
H3154 H 0.02825 0.34966 0.89342 0.0
H3155 H 0.04284 0.34167 0.89607 0.0
H3156 H 0.09519 0.32515 0.88874 0.0
H3157 H 0.1036 0.31287 0.91437 0.0
H3158 H 0.09452 0.32417 0.92275 0.0
H3159 H 0.08614 0.33651 0.89718 0.0
C3160 C 0.4059 0.32769 0.6856 0.0
C3161 C 0.40787 0.33683 0.68331 0.0
C3162 C 0.3996 0.34215 0.69682 0.0
C3163 C 0.40471 0.34399 0.68883 0.0
C3164 C 0.39778 0.33297 0.6992 0.0
C3165 C 0.40088 0.3258 0.6936 0.0
U3166 U 0.42268 0.31926 0.66779 0.0
O3167 O 0.42942 0.30592 0.66565 0.0
O3168 O 0.42058 0.3117 0.65492 0.0
C3169 C 0.42529 0.30455 0.65774 0.0
C3170 C 0.40913 0.32018 0.67966 0.0
C3171 C 0.42053 0.29572 0.65672 0.0
C3172 C 0.40838 0.28518 0.66117 0.0
C3173 C 0.41327 0.29331 0.66258 0.0
C3174 C 0.41807 0.28167 0.6481 0.0
C3175 C 0.41063 0.27931 0.65382 0.0
C3176 C 0.42297 0.28981 0.64953 0.0
C3177 C 0.44093 0.33752 0.6606 0.0
C3178 C 0.44731 0.34283 0.6461 0.0
C3179 C 0.45445 0.34735 0.66041 0.0
C3180 C 0.44797 0.34217 0.66525 0.0
C3181 C 0.45399 0.34801 0.6508 0.0
C3182 C 0.44084 0.33762 0.65095 0.0
C3183 C 0.43316 0.33381 0.66597 0.0
O3184 O 0.40806 0.3216 0.67082 0.0
O3185 O 0.41727 0.31682 0.68172 0.0
O3186 O 0.43499 0.32719 0.67181 0.0
O3187 O 0.42532 0.33271 0.66161 0.0
H3188 H 0.41184 0.33844 0.67722 0.0
H3189 H 0.40635 0.35097 0.68691 0.0
H3190 H 0.39385 0.33136 0.7053 0.0
H3191 H 0.39934 0.31879 0.69549 0.0
H3192 H 0.40278 0.28351 0.66579 0.0
H3193 H 0.41129 0.29781 0.66817 0.0
H3194 H 0.41993 0.27738 0.64233 0.0
H3195 H 0.42853 0.29159 0.64491 0.0
H3196 H 0.44685 0.34311 0.63869 0.0
H3197 H 0.45942 0.35133 0.66426 0.0
H3198 H 0.44814 0.34224 0.67268 0.0
H3199 H 0.43552 0.33404 0.64718 0.0
C3200 C 0.08568 0.44222 0.36417 0.0
C3201 C 0.08741 0.4332 0.36136 0.0
C3202 C 0.07389 0.42783 0.36968 0.0
C3203 C 0.08162 0.42608 0.36413 0.0
C3204 C 0.07214 0.43692 0.37243 0.0
C3205 C 0.078 0.44406 0.3697 0.0
U3206 U 0.1043 0.45046 0.34825 0.0
O3207 O 0.10694 0.46382 0.34172 0.0
O3208 O 0.11727 0.45778 0.35087 0.0
C3209 C 0.11473 0.46502 0.34615 0.0
C3210 C 0.0919 0.44965 0.36131 0.0
C3211 C 0.11569 0.47379 0.35102 0.0
C3212 C 0.11091 0.48425 0.36308 0.0
C3213 C 0.10959 0.47616 0.3581 0.0
C3214 C 0.12433 0.48777 0.35385 0.0
C3215 C 0.11837 0.4901 0.3611 0.0
C3216 C 0.123 0.47968 0.34887 0.0
C3217 C 0.11169 0.43216 0.33013 0.0
C3218 C 0.12631 0.42665 0.32413 0.0
C3219 C 0.11206 0.42222 0.31675 0.0
C3220 C 0.10712 0.42751 0.32306 0.0
C3221 C 0.12169 0.42145 0.31743 0.0
C3222 C 0.12136 0.43196 0.33044 0.0
C3223 C 0.10617 0.43597 0.33773 0.0
O3224 O 0.10069 0.448 0.36267 0.0
O3225 O 0.09021 0.45317 0.35318 0.0
O3226 O 0.10051 0.44273 0.33578 0.0
O3227 O 0.11033 0.43693 0.34568 0.0
H3228 H 0.09331 0.43164 0.35708 0.0
H3229 H 0.08331 0.41917 0.362 0.0
H3230 H 0.0662 0.43855 0.37661 0.0
H3231 H 0.07653 0.451 0.3719 0.0
H3232 H 0.1061 0.48589 0.36852 0.0
H3233 H 0.1039 0.47168 0.35985 0.0
H3234 H 0.1302 0.49205 0.35221 0.0
H3235 H 0.1278 0.47792 0.34345 0.0
H3236 H 0.13373 0.42629 0.32476 0.0
H3237 H 0.10826 0.41825 0.31175 0.0
H3238 H 0.09967 0.42752 0.32273 0.0
H3239 H 0.12507 0.43553 0.3358 0.0
C3240 C 0.32962 0.33434 0.11687 0.0
C3241 C 0.3388 0.33665 0.11491 0.0
C3242 C 0.34416 0.32322 0.12324 0.0
C3243 C 0.346 0.33117 0.11811 0.0
C3244 C 0.33495 0.32085 0.12508 0.0
C3245 C 0.32774 0.32639 0.12193 0.0
U3246 U 0.32118 0.352 0.10001 0.0
O3247 O 0.30786 0.35387 0.09305 0.0
O3248 O 0.3133 0.36471 0.10196 0.0
C3249 C 0.30626 0.36174 0.09714 0.0
C3250 C 0.32207 0.34019 0.11354 0.0
C3251 C 0.29727 0.36258 0.1017 0.0
C3252 C 0.28689 0.35871 0.11418 0.0
C3253 C 0.2953 0.35753 0.10965 0.0
C3254 C 0.28228 0.36988 0.10278 0.0
C3255 C 0.2803 0.36496 0.11085 0.0
C3256 C 0.2907 0.3687 0.09825 0.0
C3257 C 0.33963 0.3594 0.08201 0.0
C3258 C 0.34492 0.37388 0.07564 0.0
C3259 C 0.34946 0.35959 0.06851 0.0
C3260 C 0.34429 0.35475 0.07499 0.0
C3261 C 0.35011 0.3692 0.06896 0.0
C3262 C 0.33972 0.36903 0.0821 0.0
C3263 C 0.3359 0.35402 0.08976 0.0
O3264 O 0.32338 0.34904 0.11462 0.0
O3265 O 0.31883 0.33807 0.10539 0.0
O3266 O 0.32939 0.34804 0.0879 0.0
O3267 O 0.33461 0.35841 0.09753 0.0
H3268 H 0.34041 0.3427 0.1109 0.0
H3269 H 0.35301 0.33309 0.11645 0.0
H3270 H 0.33334 0.31478 0.12904 0.0
H3271 H 0.32069 0.32449 0.12347 0.0
H3272 H 0.28565 0.3549 0.12044 0.0
H3273 H 0.30032 0.3528 0.11242 0.0
H3274 H 0.27733 0.37466 0.09996 0.0
H3275 H 0.29211 0.37264 0.09211 0.0
H3276 H 0.34519 0.38129 0.07609 0.0
H3277 H 0.35344 0.35576 0.06354 0.0
H3278 H 0.34437 0.34733 0.07481 0.0
H3279 H 0.33614 0.3728 0.08742 0.0
C3280 C 0.43854 0.57701 0.86471 0.0
C3281 C 0.43679 0.58601 0.86184 0.0
C3282 C 0.45033 0.59146 0.87005 0.0
C3283 C 0.44258 0.59316 0.86452 0.0
C3284 C 0.4521 0.58239 0.87287 0.0
C3285 C 0.44624 0.57523 0.87022 0.0
U3286 U 0.41987 0.56878 0.84893 0.0
O3287 O 0.41717 0.55546 0.84237 0.0
O3288 O 0.40689 0.56149 0.8516 0.0
C3289 C 0.40938 0.55427 0.84683 0.0
C3290 C 0.43232 0.56956 0.86192 0.0
C3291 C 0.40838 0.54547 0.85164 0.0
C3292 C 0.41327 0.53476 0.86342 0.0
C3293 C 0.41462 0.54288 0.8585 0.0
C3294 C 0.3995 0.53165 0.85458 0.0
C3295 C 0.40563 0.5291 0.86161 0.0
C3296 C 0.40087 0.53977 0.84965 0.0
C3297 C 0.41244 0.58712 0.83089 0.0
C3298 C 0.39781 0.59269 0.82498 0.0
C3299 C 0.41204 0.59699 0.81746 0.0
C3300 C 0.41699 0.59171 0.82375 0.0
C3301 C 0.40243 0.59782 0.8182 0.0
C3302 C 0.40277 0.58738 0.83127 0.0
C3303 C 0.41799 0.5833 0.83845 0.0
O3304 O 0.42354 0.5712 0.86334 0.0
O3305 O 0.43397 0.56604 0.85378 0.0
O3306 O 0.42363 0.57654 0.83646 0.0
O3307 O 0.41386 0.58233 0.84642 0.0
H3308 H 0.43088 0.58753 0.85756 0.0
H3309 H 0.44088 0.60005 0.86235 0.0
H3310 H 0.45806 0.58081 0.87704 0.0
H3311 H 0.44772 0.56831 0.87246 0.0
H3312 H 0.4182 0.53294 0.86869 0.0
H3313 H 0.42046 0.54721 0.86013 0.0
H3314 H 0.39349 0.52753 0.85307 0.0
H3315 H 0.39596 0.5417 0.8444 0.0
H3316 H 0.3904 0.59309 0.82566 0.0
H3317 H 0.41583 0.60091 0.8124 0.0
H3318 H 0.42444 0.59165 0.82336 0.0
H3319 H 0.39908 0.58386 0.83668 0.0
C3320 C 0.19443 0.68512 0.61704 0.0
C3321 C 0.18522 0.68288 0.61518 0.0
C3322 C 0.18004 0.6963 0.62365 0.0
C3323 C 0.1781 0.68839 0.61849 0.0
C3324 C 0.18928 0.69862 0.62536 0.0
C3325 C 0.19643 0.69304 0.62211 0.0
U3326 U 0.20265 0.66755 0.59997 0.0
O3327 O 0.21599 0.66548 0.59306 0.0
O3328 O 0.21022 0.65464 0.60178 0.0
C3329 C 0.21735 0.6575 0.59702 0.0
C3330 C 0.20191 0.6792 0.61365 0.0
C3331 C 0.22631 0.6563 0.60155 0.0
C3332 C 0.23681 0.65965 0.61407 0.0
C3333 C 0.22848 0.66122 0.60953 0.0
C3334 C 0.24095 0.64834 0.60262 0.0
C3335 C 0.24312 0.65313 0.61072 0.0
C3336 C 0.23262 0.64992 0.59809 0.0
C3337 C 0.18428 0.66062 0.58179 0.0
C3338 C 0.17894 0.64622 0.57529 0.0
C3339 C 0.17469 0.66058 0.56813 0.0
C3340 C 0.17979 0.66535 0.57471 0.0
C3341 C 0.17392 0.65099 0.56855 0.0
C3342 C 0.18409 0.65099 0.58185 0.0
C3343 C 0.18797 0.66592 0.5896 0.0
O3344 O 0.20045 0.67036 0.6146 0.0
O3345 O 0.20521 0.68138 0.60554 0.0
O3346 O 0.19461 0.67179 0.58784 0.0
O3347 O 0.1891 0.66147 0.59737 0.0
H3348 H 0.18353 0.67686 0.61118 0.0
H3349 H 0.17106 0.68651 0.61693 0.0
H3350 H 0.19097 0.70467 0.62932 0.0
H3351 H 0.2035 0.69489 0.62357 0.0
H3352 H 0.23819 0.66337 0.62035 0.0
H3353 H 0.22365 0.66615 0.61233 0.0
H3354 H 0.24569 0.64336 0.59979 0.0
H3355 H 0.23104 0.64607 0.59193 0.0
H3356 H 0.17857 0.63882 0.57572 0.0
H3357 H 0.17084 0.66448 0.5631 0.0
H3358 H 0.17981 0.67277 0.57456 0.0
H3359 H 0.18753 0.64716 0.5872 0.0
C3360 C 0.08618 0.5773 0.1543 0.0
C3361 C 0.08847 0.58644 0.15623 0.0
C3362 C 0.07498 0.59173 0.14787 0.0
C3363 C 0.08296 0.59358 0.153 0.0
C3364 C 0.0726 0.58255 0.14609 0.0
C3365 C 0.07819 0.57539 0.14926 0.0
U3366 U 0.104 0.56889 0.17109 0.0
O3367 O 0.10609 0.55554 0.17781 0.0
O3368 O 0.1169 0.5613 0.16902 0.0
C3369 C 0.11403 0.55415 0.17369 0.0
C3370 C 0.09213 0.5698 0.15757 0.0
C3371 C 0.115 0.54533 0.16891 0.0
C3372 C 0.11068 0.53502 0.15656 0.0
C3373 C 0.1093 0.54315 0.16146 0.0
C3374 C 0.12336 0.53109 0.1666 0.0
C3375 C 0.11781 0.52895 0.15898 0.0
C3376 C 0.12197 0.53922 0.17151 0.0
C3377 C 0.11118 0.58717 0.18927 0.0
C3378 C 0.12569 0.59257 0.19563 0.0
C3379 C 0.11129 0.59699 0.20274 0.0
C3380 C 0.10648 0.59179 0.19628 0.0
C3381 C 0.12094 0.59772 0.20228 0.0
C3382 C 0.12086 0.58734 0.18918 0.0
C3383 C 0.10582 0.58344 0.18152 0.0
O3384 O 0.101 0.57122 0.15651 0.0
O3385 O 0.09002 0.56647 0.16569 0.0
O3386 O 0.09994 0.57683 0.18334 0.0
O3387 O 0.11022 0.58232 0.17371 0.0
H3388 H 0.09455 0.58807 0.16022 0.0
H3389 H 0.08488 0.60057 0.15461 0.0
H3390 H 0.06651 0.58092 0.14214 0.0
H3391 H 0.0763 0.56837 0.14774 0.0
H3392 H 0.10619 0.53353 0.15082 0.0
H3393 H 0.10389 0.5478 0.15936 0.0
H3394 H 0.12897 0.52663 0.1686 0.0
H3395 H 0.12646 0.54083 0.17722 0.0
H3396 H 0.13313 0.59289 0.19517 0.0
H3397 H 0.1074 0.60094 0.2077 0.0
H3398 H 0.09902 0.59181 0.19645 0.0
H3399 H 0.12468 0.58379 0.18387 0.0
C3400 C 0.19435 0.33393 0.90387 0.0
C3401 C 0.18514 0.33622 0.90568 0.0
C3402 C 0.17992 0.32268 0.89744 0.0
C3403 C 0.178 0.33069 0.90246 0.0
C3404 C 0.18916 0.32029 0.89579 0.0
C3405 C 0.19632 0.32591 0.89895 0.0
U3406 U 0.20259 0.35172 0.92068 0.0
O3407 O 0.21593 0.35386 0.92754 0.0
O3408 O 0.21018 0.36459 0.91869 0.0
C3409 C 0.21731 0.36179 0.92347 0.0
C3410 C 0.20184 0.33988 0.90718 0.0
C3411 C 0.22626 0.36289 0.91887 0.0
C3412 C 0.23659 0.35958 0.90618 0.0
C3413 C 0.22827 0.35807 0.9108 0.0
C3414 C 0.24103 0.37063 0.91777 0.0
C3415 C 0.24303 0.36595 0.90957 0.0
C3416 C 0.23271 0.36911 0.92238 0.0
C3417 C 0.1841 0.35887 0.93871 0.0
C3418 C 0.1789 0.37338 0.94511 0.0
C3419 C 0.17414 0.3591 0.95212 0.0
C3420 C 0.17932 0.35424 0.94567 0.0
C3421 C 0.17359 0.36871 0.95171 0.0
C3422 C 0.18411 0.36851 0.93867 0.0
C3423 C 0.18787 0.3535 0.931 0.0
O3424 O 0.20041 0.3487 0.90609 0.0
O3425 O 0.20512 0.33781 0.91532 0.0
O3426 O 0.1945 0.34766 0.93286 0.0
O3427 O 0.18904 0.35786 0.92319 0.0
H3428 H 0.18346 0.34232 0.90958 0.0
H3429 H 0.17096 0.33262 0.90398 0.0
H3430 H 0.19083 0.31417 0.89193 0.0
H3431 H 0.20339 0.324 0.89754 0.0
H3432 H 0.23784 0.35595 0.89982 0.0
H3433 H 0.22334 0.35327 0.90797 0.0
H3434 H 0.24588 0.37549 0.92063 0.0
H3435 H 0.23126 0.37288 0.92861 0.0
H3436 H 0.17871 0.38079 0.94468 0.0
H3437 H 0.17007 0.35528 0.95704 0.0
H3438 H 0.17917 0.34681 0.94581 0.0
H3439 H 0.18779 0.37227 0.9334 0.0
C3440 C 0.43802 0.44195 0.65417 0.0
C3441 C 0.4357 0.43279 0.65603 0.0
C3442 C 0.44927 0.42754 0.64775 0.0
C3443 C 0.44124 0.42566 0.6528 0.0
C3444 C 0.45168 0.43673 0.64606 0.0
C3445 C 0.44607 0.44388 0.64921 0.0
U3446 U 0.42011 0.4504 0.67089 0.0
O3447 O 0.41806 0.46376 0.67762 0.0
O3448 O 0.40728 0.45808 0.66875 0.0
C3449 C 0.41017 0.46521 0.67344 0.0
C3450 C 0.43207 0.44944 0.65744 0.0
C3451 C 0.40933 0.47405 0.66866 0.0
C3452 C 0.4135 0.48415 0.65609 0.0
C3453 C 0.41472 0.47595 0.66091 0.0
C3454 C 0.40161 0.4887 0.66682 0.0
C3455 C 0.40686 0.49059 0.65892 0.0
C3456 C 0.40283 0.48049 0.67163 0.0
C3457 C 0.41273 0.43216 0.68907 0.0
C3458 C 0.39817 0.42689 0.69543 0.0
C3459 C 0.41252 0.42232 0.70254 0.0
C3460 C 0.41739 0.42749 0.69608 0.0
C3461 C 0.40287 0.42168 0.70208 0.0
C3462 C 0.40305 0.43208 0.68898 0.0
C3463 C 0.41814 0.43586 0.68133 0.0
O3464 O 0.4232 0.44804 0.65633 0.0
O3465 O 0.43413 0.45275 0.66556 0.0
O3466 O 0.42406 0.44243 0.68316 0.0
O3467 O 0.41378 0.437 0.67351 0.0
H3468 H 0.42958 0.43115 0.65995 0.0
H3469 H 0.43928 0.41867 0.65435 0.0
H3470 H 0.45782 0.43837 0.64216 0.0
H3471 H 0.44799 0.4509 0.64776 0.0
H3472 H 0.41776 0.48544 0.65012 0.0
H3473 H 0.41978 0.47105 0.65853 0.0
H3474 H 0.39637 0.49346 0.66913 0.0
H3475 H 0.39858 0.47911 0.67759 0.0
H3476 H 0.39073 0.42663 0.69497 0.0
H3477 H 0.41637 0.41833 0.70749 0.0
H3478 H 0.42485 0.42741 0.69625 0.0
H3479 H 0.39927 0.43566 0.68368 0.0
C3480 C 0.33013 0.68523 0.40338 0.0
C3481 C 0.33933 0.68304 0.40536 0.0
C3482 C 0.34458 0.69639 0.39682 0.0
C3483 C 0.34648 0.68853 0.40207 0.0
C3484 C 0.33535 0.69866 0.39497 0.0
C3485 C 0.32818 0.69309 0.3982 0.0
U3486 U 0.32178 0.66775 0.42049 0.0
O3487 O 0.30842 0.66578 0.42736 0.0
O3488 O 0.31414 0.65488 0.4187 0.0
C3489 C 0.307 0.6578 0.42342 0.0
C3490 C 0.32262 0.67935 0.40677 0.0
C3491 C 0.29806 0.65666 0.41884 0.0
C3492 C 0.28774 0.6599 0.40615 0.0
C3493 C 0.29605 0.66144 0.41073 0.0
C3494 C 0.28329 0.64893 0.41782 0.0
C3495 C 0.28128 0.65356 0.40959 0.0
C3496 C 0.29161 0.65048 0.4224 0.0
C3497 C 0.34008 0.66075 0.4387 0.0
C3498 C 0.34531 0.64632 0.44524 0.0
C3499 C 0.34972 0.66067 0.45234 0.0
C3500 C 0.34464 0.66546 0.44576 0.0
C3501 C 0.35039 0.65106 0.45195 0.0
C3502 C 0.34018 0.65112 0.43868 0.0
C3503 C 0.33643 0.66606 0.43088 0.0
O3504 O 0.32405 0.6705 0.40585 0.0
O3505 O 0.31931 0.68157 0.41487 0.0
O3506 O 0.32983 0.67197 0.43262 0.0
O3507 O 0.33529 0.6616 0.42313 0.0
H3508 H 0.34098 0.67706 0.40944 0.0
H3509 H 0.3535 0.68669 0.40374 0.0
H3510 H 0.33369 0.70466 0.39092 0.0
H3511 H 0.32112 0.69491 0.39664 0.0
H3512 H 0.28649 0.66349 0.39977 0.0
H3513 H 0.30099 0.66622 0.40787 0.0
H3514 H 0.27843 0.6441 0.42072 0.0
H3515 H 0.29305 0.64674 0.42866 0.0
H3516 H 0.34561 0.63892 0.44483 0.0
H3517 H 0.35362 0.66454 0.45734 0.0
H3518 H 0.34469 0.67288 0.44589 0.0
H3519 H 0.33668 0.6473 0.43335 0.0
C3520 C 0.36951 0.08389 0.44214 0.0
C3521 C 0.36771 0.08613 0.43295 0.0
C3522 C 0.37619 0.07268 0.42783 0.0
C3523 C 0.37106 0.08062 0.42587 0.0
C3524 C 0.37784 0.07036 0.43705 0.0
C3525 C 0.37456 0.07595 0.44415 0.0
U3526 U 0.35222 0.10133 0.45022 0.0
O3527 O 0.34525 0.10342 0.46348 0.0
O3528 O 0.3539 0.11431 0.45768 0.0
C3529 C 0.34913 0.11146 0.4648 0.0
C3530 C 0.36604 0.0898 0.44957 0.0
C3531 C 0.35364 0.11277 0.47372 0.0
C3532 C 0.36621 0.10964 0.48426 0.0
C3533 C 0.36169 0.10795 0.47595 0.0
C3534 C 0.3546 0.12088 0.48824 0.0
C3535 C 0.36277 0.1162 0.49047 0.0
C3536 C 0.35009 0.11918 0.47994 0.0
C3537 C 0.33399 0.10805 0.43186 0.0
C3538 C 0.32729 0.12247 0.42682 0.0
C3539 C 0.32045 0.1081 0.42206 0.0
C3540 C 0.32706 0.10332 0.42713 0.0
C3541 C 0.3207 0.11772 0.42158 0.0
C3542 C 0.33387 0.11768 0.43193 0.0
C3543 C 0.34184 0.1028 0.43556 0.0
O3544 O 0.36694 0.09864 0.44809 0.0
O3545 O 0.35792 0.08757 0.45285 0.0
O3546 O 0.34009 0.09696 0.4422 0.0
O3547 O 0.34961 0.1073 0.43667 0.0
H3548 H 0.36372 0.09217 0.43124 0.0
H3549 H 0.36954 0.0825 0.41884 0.0
H3550 H 0.38178 0.06429 0.43876 0.0
H3551 H 0.37597 0.07409 0.45121 0.0
H3552 H 0.37254 0.106 0.48568 0.0
H3553 H 0.36455 0.103 0.4712 0.0
H3554 H 0.3517 0.12589 0.49291 0.0
H3555 H 0.34387 0.12295 0.47832 0.0
H3556 H 0.32759 0.12989 0.42666 0.0
H3557 H 0.31554 0.10423 0.41804 0.0
H3558 H 0.32704 0.0959 0.42695 0.0
H3559 H 0.33911 0.12151 0.43557 0.0
C3560 C 0.86931 0.43506 0.5781 0.0
C3561 C 0.8674 0.4328 0.58727 0.0
C3562 C 0.87573 0.44629 0.5925 0.0
C3563 C 0.87063 0.43833 0.5944 0.0
C3564 C 0.87752 0.44863 0.58331 0.0
C3565 C 0.87435 0.44303 0.57616 0.0
U3566 U 0.85189 0.41787 0.56978 0.0
O3567 O 0.84492 0.41607 0.55649 0.0
O3568 O 0.85341 0.40499 0.56212 0.0
C3569 C 0.84871 0.40802 0.55504 0.0
C3570 C 0.86587 0.42921 0.57062 0.0
C3571 C 0.85327 0.40684 0.5461 0.0
C3572 C 0.86587 0.41015 0.53565 0.0
C3573 C 0.86133 0.41169 0.54398 0.0
C3574 C 0.85427 0.39899 0.53144 0.0
C3575 C 0.86244 0.40372 0.52931 0.0
C3576 C 0.84973 0.40054 0.53977 0.0
C3577 C 0.83334 0.41158 0.58824 0.0
C3578 C 0.82708 0.39874 0.59691 0.0
C3579 C 0.81818 0.41266 0.5953 0.0
C3580 C 0.82519 0.41648 0.58995 0.0
C3581 C 0.8192 0.40387 0.59914 0.0
C3582 C 0.83409 0.40255 0.59154 0.0
C3583 C 0.84142 0.41647 0.58441 0.0
O3584 O 0.86663 0.42035 0.57206 0.0
O3585 O 0.85782 0.43156 0.56725 0.0
O3586 O 0.8399 0.42246 0.57784 0.0
O3587 O 0.84902 0.41171 0.58322 0.0
H3588 H 0.8634 0.42675 0.58893 0.0
H3589 H 0.869 0.43643 0.6014 0.0
H3590 H 0.88145 0.45472 0.58165 0.0
H3591 H 0.87584 0.44491 0.56912 0.0
H3592 H 0.87221 0.41382 0.53431 0.0
H3593 H 0.86418 0.41655 0.54883 0.0
H3594 H 0.85138 0.39408 0.52667 0.0
H3595 H 0.84351 0.39674 0.5413 0.0
H3596 H 0.82814 0.39199 0.59981 0.0
H3597 H 0.81214 0.41675 0.59678 0.0
H3598 H 0.82444 0.42347 0.58757 0.0
H3599 H 0.84029 0.39859 0.59041 0.0
C3600 C 0.33575 0.1144 0.32785 0.0
C3601 C 0.33733 0.11133 0.33683 0.0
C3602 C 0.32396 0.11981 0.34228 0.0
C3603 C 0.33153 0.11404 0.34397 0.0
C3604 C 0.32238 0.12284 0.33324 0.0
C3605 C 0.32824 0.12016 0.32608 0.0
U3606 U 0.3543 0.09844 0.31972 0.0
O3607 O 0.35694 0.09176 0.30643 0.0
O3608 O 0.3673 0.10093 0.31242 0.0
C3609 C 0.36479 0.0961 0.30523 0.0
C3610 C 0.34197 0.11155 0.32041 0.0
C3611 C 0.36592 0.10074 0.29635 0.0
C3612 C 0.36223 0.11318 0.28592 0.0
C3613 C 0.36077 0.10858 0.29422 0.0
C3614 C 0.37391 0.10208 0.28177 0.0
C3615 C 0.36887 0.11003 0.27962 0.0
C3616 C 0.37244 0.09748 0.29006 0.0
C3617 C 0.36159 0.08041 0.33806 0.0
C3618 C 0.37628 0.07426 0.34318 0.0
C3619 C 0.36206 0.06706 0.34802 0.0
C3620 C 0.35706 0.07342 0.34287 0.0
C3621 C 0.37171 0.06761 0.3485 0.0
C3622 C 0.37126 0.08061 0.33799 0.0
C3623 C 0.35606 0.08802 0.3343 0.0
O3624 O 0.35076 0.11289 0.32208 0.0
O3625 O 0.34025 0.10342 0.31691 0.0
O3626 O 0.3504 0.08607 0.32754 0.0
O3627 O 0.36026 0.09594 0.33331 0.0
H3628 H 0.34309 0.10686 0.33833 0.0
H3629 H 0.33309 0.1117 0.35084 0.0
H3630 H 0.31656 0.12721 0.33167 0.0
H3631 H 0.32689 0.12256 0.31918 0.0
H3632 H 0.35832 0.11935 0.28456 0.0
H3633 H 0.35573 0.11121 0.29903 0.0
H3634 H 0.37899 0.0994 0.27703 0.0
H3635 H 0.37647 0.09142 0.29161 0.0
H3636 H 0.38371 0.07479 0.34332 0.0
H3637 H 0.35831 0.06211 0.35211 0.0
H3638 H 0.3496 0.07317 0.34305 0.0
H3639 H 0.37494 0.0859 0.33429 0.0
C3640 C 0.65438 0.58506 0.07836 0.0
C3641 C 0.65634 0.58728 0.08752 0.0
C3642 C 0.64803 0.57378 0.09277 0.0
C3643 C 0.65316 0.58173 0.09465 0.0
C3644 C 0.64617 0.5715 0.08357 0.0
C3645 C 0.64929 0.57712 0.07642 0.0
U3646 U 0.67185 0.60217 0.06996 0.0
O3647 O 0.67882 0.60392 0.05665 0.0
O3648 O 0.67039 0.61505 0.06229 0.0
C3649 C 0.67507 0.61199 0.05521 0.0
C3650 C 0.65781 0.59091 0.07086 0.0
C3651 C 0.67052 0.61319 0.04628 0.0
C3652 C 0.65791 0.6099 0.03584 0.0
C3653 C 0.66244 0.60836 0.04417 0.0
C3654 C 0.66956 0.62102 0.0316 0.0
C3655 C 0.66137 0.61631 0.02948 0.0
C3656 C 0.67408 0.61947 0.03993 0.0
C3657 C 0.6905 0.60831 0.08835 0.0
C3658 C 0.69685 0.62107 0.09707 0.0
C3659 C 0.70568 0.60712 0.09532 0.0
C3660 C 0.69863 0.60336 0.08998 0.0
C3661 C 0.70472 0.61588 0.09922 0.0
C3662 C 0.68981 0.61732 0.09171 0.0
C3663 C 0.68237 0.60349 0.08455 0.0
O3664 O 0.65711 0.59978 0.07232 0.0
O3665 O 0.66583 0.58852 0.06745 0.0
O3666 O 0.68383 0.59749 0.07797 0.0
O3667 O 0.67481 0.6083 0.08339 0.0
H3668 H 0.66038 0.59331 0.08916 0.0
H3669 H 0.65484 0.58359 0.10165 0.0
H3670 H 0.64221 0.56543 0.08192 0.0
H3671 H 0.64776 0.57527 0.06939 0.0
H3672 H 0.65157 0.60625 0.0345 0.0
H3673 H 0.65957 0.60351 0.04902 0.0
H3674 H 0.67247 0.62592 0.02683 0.0
H3675 H 0.68031 0.62325 0.04146 0.0
H3676 H 0.69583 0.6278 0.10003 0.0
H3677 H 0.71171 0.60299 0.09673 0.0
H3678 H 0.69934 0.59638 0.08755 0.0
H3679 H 0.68362 0.62132 0.09065 0.0
C3680 C 0.68875 0.40528 0.32783 0.0
C3681 C 0.68715 0.40838 0.3368 0.0
C3682 C 0.70047 0.39986 0.3423 0.0
C3683 C 0.69291 0.40566 0.34396 0.0
C3684 C 0.70209 0.39682 0.33327 0.0
C3685 C 0.69626 0.39951 0.32609 0.0
U3686 U 0.67015 0.42113 0.31955 0.0
O3687 O 0.66752 0.42765 0.30618 0.0
O3688 O 0.65719 0.41849 0.31224 0.0
C3689 C 0.65972 0.42323 0.305 0.0
C3690 C 0.68255 0.4081 0.32037 0.0
C3691 C 0.65873 0.41838 0.29621 0.0
C3692 C 0.66329 0.4062 0.2858 0.0
C3693 C 0.66464 0.41114 0.29391 0.0
C3694 C 0.6502 0.41581 0.28211 0.0
C3695 C 0.65597 0.40839 0.27985 0.0
C3696 C 0.65157 0.42074 0.29022 0.0
C3697 C 0.66267 0.43922 0.33779 0.0
C3698 C 0.64795 0.44523 0.34301 0.0
C3699 C 0.66212 0.45257 0.34775 0.0
C3700 C 0.66715 0.44627 0.34256 0.0
C3701 C 0.65248 0.45192 0.3483 0.0
C3702 C 0.653 0.43893 0.33779 0.0
C3703 C 0.66825 0.43164 0.33404 0.0
O3704 O 0.67376 0.40672 0.32203 0.0
O3705 O 0.68424 0.41621 0.31684 0.0
O3706 O 0.67392 0.4336 0.32728 0.0
O3707 O 0.66412 0.42368 0.3331 0.0
H3708 H 0.68138 0.41285 0.33827 0.0
H3709 H 0.69133 0.40801 0.35083 0.0
H3710 H 0.7079 0.39244 0.33172 0.0
H3711 H 0.69762 0.39709 0.3192 0.0
H3712 H 0.66795 0.40063 0.28422 0.0
H3713 H 0.67022 0.40923 0.29847 0.0
H3714 H 0.64445 0.41761 0.27775 0.0
H3715 H 0.64692 0.4263 0.29192 0.0
H3716 H 0.64052 0.44463 0.3432 0.0
H3717 H 0.66584 0.45756 0.3518 0.0
H3718 H 0.67461 0.44659 0.3427 0.0
H3719 H 0.64935 0.43359 0.33413 0.0
C3720 C 0.15561 0.93496 0.94223 0.0
C3721 C 0.15748 0.93266 0.93307 0.0
C3722 C 0.14946 0.94632 0.92782 0.0
C3723 C 0.15439 0.93825 0.92594 0.0
C3724 C 0.14773 0.9487 0.93702 0.0
C3725 C 0.15075 0.94303 0.94417 0.0
U3726 U 0.17235 0.91711 0.95052 0.0
O3727 O 0.17922 0.91495 0.96382 0.0
O3728 O 0.1703 0.90424 0.95809 0.0
C3729 C 0.17512 0.90703 0.96519 0.0
C3730 C 0.15884 0.92899 0.94972 0.0
C3731 C 0.17054 0.90591 0.97412 0.0
C3732 C 0.15794 0.90931 0.98454 0.0
C3733 C 0.16251 0.91081 0.97622 0.0
C3734 C 0.16948 0.89812 0.98881 0.0
C3735 C 0.16132 0.90288 0.99091 0.0
C3736 C 0.17404 0.89962 0.98049 0.0
C3737 C 0.19051 0.90996 0.93215 0.0
C3738 C 0.19673 0.89559 0.92637 0.0
C3739 C 0.2043 0.90992 0.92266 0.0
C3740 C 0.19777 0.91466 0.92788 0.0
C3741 C 0.20365 0.90036 0.92157 0.0
C3742 C 0.19023 0.90034 0.93162 0.0
C3743 C 0.18275 0.91532 0.93589 0.0
O3744 O 0.15772 0.92016 0.94829 0.0
O3745 O 0.167 0.93102 0.95306 0.0
O3746 O 0.1846 0.92116 0.9425 0.0
O3747 O 0.1749 0.91096 0.93703 0.0
H3748 H 0.16133 0.92651 0.93142 0.0
H3749 H 0.15596 0.93632 0.91893 0.0
H3750 H 0.14392 0.95487 0.93867 0.0
H3751 H 0.14929 0.94494 0.95121 0.0
H3752 H 0.15162 0.91301 0.98587 0.0
H3753 H 0.15969 0.91567 0.97135 0.0
H3754 H 0.17234 0.8932 0.9936 0.0
H3755 H 0.18025 0.89579 0.97897 0.0
H3756 H 0.19612 0.88822 0.92574 0.0
H3757 H 0.20946 0.91382 0.91899 0.0
H3758 H 0.1981 0.92207 0.92814 0.0
H3759 H 0.18473 0.89652 0.93488 0.0
C3760 C 0.33555 0.90559 0.19265 0.0
C3761 C 0.33726 0.90841 0.18361 0.0
C3762 C 0.32373 0.90011 0.17826 0.0
C3763 C 0.33146 0.90567 0.17649 0.0
C3764 C 0.322 0.89735 0.18736 0.0
C3765 C 0.32787 0.90006 0.19449 0.0
U3766 U 0.35412 0.92153 0.20093 0.0
O3767 O 0.35676 0.92796 0.21434 0.0
O3768 O 0.36712 0.9189 0.20818 0.0
C3769 C 0.36458 0.92355 0.21548 0.0
C3770 C 0.34178 0.90842 0.20008 0.0
C3771 C 0.3656 0.91863 0.22422 0.0
C3772 C 0.36094 0.90647 0.23461 0.0
C3773 C 0.35958 0.91148 0.22655 0.0
C3774 C 0.37427 0.9158 0.23819 0.0
C3775 C 0.36838 0.90848 0.24048 0.0
C3776 C 0.37289 0.92082 0.23012 0.0
C3777 C 0.36138 0.93979 0.18272 0.0
C3778 C 0.37597 0.9459 0.17725 0.0
C3779 C 0.36168 0.9532 0.17282 0.0
C3780 C 0.35678 0.94685 0.17808 0.0
C3781 C 0.37132 0.95259 0.17206 0.0
C3782 C 0.37105 0.93955 0.18254 0.0
C3783 C 0.3559 0.93215 0.1865 0.0
O3784 O 0.35057 0.90712 0.19838 0.0
O3785 O 0.34006 0.91651 0.20365 0.0
O3786 O 0.35026 0.93403 0.1933 0.0
O3787 O 0.36009 0.92422 0.18738 0.0
H3788 H 0.34315 0.9127 0.18204 0.0
H3789 H 0.33314 0.9078 0.16957 0.0
H3790 H 0.31606 0.89317 0.189 0.0
H3791 H 0.32641 0.89785 0.20144 0.0
H3792 H 0.3562 0.90097 0.23623 0.0
H3793 H 0.35391 0.9097 0.22206 0.0
H3794 H 0.38012 0.91747 0.24247 0.0
H3795 H 0.37762 0.92629 0.2284 0.0
H3796 H 0.3834 0.94533 0.17691 0.0
H3797 H 0.35786 0.95818 0.16885 0.0
H3798 H 0.34932 0.94713 0.17808 0.0
H3799 H 0.37479 0.93421 0.1861 0.0
C3800 C 0.18829 0.11405 0.6928 0.0
C3801 C 0.1866 0.1112 0.68377 0.0
C3802 C 0.20018 0.11943 0.67843 0.0
C3803 C 0.19244 0.1139 0.67666 0.0
C3804 C 0.20189 0.12222 0.68752 0.0
C3805 C 0.19598 0.11955 0.69465 0.0
U3806 U 0.16963 0.09819 0.70104 0.0
O3807 O 0.16689 0.09177 0.71444 0.0
O3808 O 0.15659 0.10084 0.70823 0.0
C3809 C 0.15907 0.09618 0.71553 0.0
C3810 C 0.18201 0.11125 0.70023 0.0
C3811 C 0.15798 0.10108 0.72428 0.0
C3812 C 0.16234 0.11341 0.73459 0.0
C3813 C 0.16378 0.10843 0.72652 0.0
C3814 C 0.14937 0.10365 0.73835 0.0
C3815 C 0.15504 0.11116 0.74055 0.0
C3816 C 0.15083 0.09867 0.73027 0.0
C3817 C 0.1624 0.07994 0.68283 0.0
C3818 C 0.14779 0.07387 0.6774 0.0
C3819 C 0.16206 0.06656 0.67291 0.0
C3820 C 0.16698 0.07289 0.67816 0.0
C3821 C 0.15242 0.06718 0.67219 0.0
C3822 C 0.15273 0.0802 0.68268 0.0
C3823 C 0.1679 0.08756 0.68661 0.0
O3824 O 0.17324 0.11259 0.6985 0.0
O3825 O 0.18369 0.10316 0.70382 0.0
O3826 O 0.1735 0.08567 0.69344 0.0
O3827 O 0.16373 0.09551 0.68747 0.0
H3828 H 0.1807 0.10692 0.68221 0.0
H3829 H 0.19078 0.11175 0.66975 0.0
H3830 H 0.20783 0.12638 0.68916 0.0
H3831 H 0.19741 0.12178 0.70159 0.0
H3832 H 0.16691 0.11906 0.73614 0.0
H3833 H 0.16934 0.11038 0.72196 0.0
H3834 H 0.14363 0.10179 0.74271 0.0
H3835 H 0.14626 0.09304 0.72861 0.0
H3836 H 0.14036 0.07445 0.67709 0.0
H3837 H 0.16587 0.06157 0.66892 0.0
H3838 H 0.17444 0.0726 0.67814 0.0
H3839 H 0.14901 0.08554 0.68626 0.0
H3840 H 0.13887 0.20871 0.39267 0.0
H3841 H 0.12565 0.2322 0.3807 0.0
H3842 H 0.15526 0.2305 0.38141 0.0
C3843 C 0.13935 0.2153 0.38926 0.0
C3844 C 0.14804 0.21906 0.38743 0.0
C3845 C 0.13126 0.21995 0.3868 0.0
C3846 C 0.13188 0.22858 0.38255 0.0
C3847 C 0.14059 0.23235 0.3805 0.0
C3848 C 0.14859 0.22752 0.38289 0.0
N3849 N 0.14164 0.24095 0.37604 0.0
C3850 C 0.13455 0.24709 0.37426 0.0
H3851 H 0.06097 0.88706 0.64613 0.0
H3852 H 0.03874 0.87378 0.63195 0.0
H3853 H 0.043 0.90283 0.62879 0.0
C3854 C 0.0551 0.88747 0.64156 0.0
C3855 C 0.05264 0.89595 0.63773 0.0
C3856 C 0.05016 0.87946 0.63949 0.0
C3857 C 0.04254 0.87996 0.63358 0.0
C3858 C 0.03987 0.88846 0.62982 0.0
C3859 C 0.04498 0.89636 0.63187 0.0
N3860 N 0.03217 0.88934 0.62387 0.0
C3861 C 0.02554 0.88261 0.62251 0.0
H3862 H 0.38514 0.81136 0.89055 0.0
H3863 H 0.39788 0.78658 0.88099 0.0
H3864 H 0.36838 0.78934 0.88027 0.0
C3865 C 0.38451 0.80463 0.88747 0.0
C3866 C 0.37574 0.80106 0.88558 0.0
C3867 C 0.39251 0.79949 0.88579 0.0
C3868 C 0.39172 0.79057 0.88225 0.0
C3869 C 0.38297 0.78692 0.88022 0.0
C3870 C 0.37507 0.79219 0.8819 0.0
N3871 N 0.38177 0.77802 0.87645 0.0
C3872 C 0.38882 0.77182 0.87469 0.0
H3873 H 0.46431 0.1319 0.1477 0.0
H3874 H 0.48476 0.14606 0.13172 0.0
H3875 H 0.48205 0.11674 0.12963 0.0
C3876 C 0.47002 0.13173 0.1429 0.0
C3877 C 0.47275 0.12331 0.13913 0.0
C3878 C 0.47425 0.13997 0.14023 0.0
C3879 C 0.48146 0.13973 0.13379 0.0
C3880 C 0.48432 0.13131 0.13001 0.0
C3881 C 0.47984 0.12319 0.13259 0.0
N3882 N 0.4916 0.13072 0.12352 0.0
C3883 C 0.49814 0.13753 0.12207 0.0
H3884 H 0.13838 0.81134 0.13001 0.0
H3885 H 0.12596 0.78642 0.13971 0.0
H3886 H 0.15541 0.78968 0.14058 0.0
C3887 C 0.1391 0.80465 0.13314 0.0
C3888 C 0.14791 0.80122 0.13509 0.0
C3889 C 0.13117 0.7994 0.13484 0.0
C3890 C 0.13207 0.7905 0.13844 0.0
C3891 C 0.14087 0.78702 0.14055 0.0
C3892 C 0.14869 0.79241 0.13887 0.0
N3893 N 0.14223 0.77819 0.14441 0.0
C3894 C 0.13541 0.7717 0.14602 0.0
H3895 H 0.46135 0.88682 0.37762 0.0
H3896 H 0.48528 0.87445 0.38978 0.0
H3897 H 0.4827 0.90386 0.38882 0.0
C3898 C 0.46794 0.88752 0.38104 0.0
C3899 C 0.47145 0.89629 0.38281 0.0
C3900 C 0.47284 0.87963 0.38358 0.0
C3901 C 0.48147 0.88053 0.38786 0.0
C3902 C 0.48498 0.88932 0.38985 0.0
C3903 C 0.4799 0.89712 0.38738 0.0
N3904 N 0.49354 0.89068 0.39436 0.0
C3905 C 0.49993 0.88386 0.39629 0.0
H3906 H 0.38519 0.20823 0.62966 0.0
H3907 H 0.3976 0.23319 0.63924 0.0
H3908 H 0.36816 0.22991 0.64021 0.0
C3909 C 0.38448 0.21493 0.63278 0.0
C3910 C 0.37566 0.21835 0.63475 0.0
C3911 C 0.3924 0.2202 0.63443 0.0
C3912 C 0.3915 0.2291 0.63801 0.0
C3913 C 0.3827 0.23258 0.64014 0.0
C3914 C 0.37488 0.22718 0.6385 0.0
N3915 N 0.38134 0.24142 0.64397 0.0
C3916 C 0.38819 0.24787 0.64564 0.0
H3917 H 0.06327 0.13191 0.87867 0.0
H3918 H 0.03837 0.14438 0.88859 0.0
H3919 H 0.04024 0.11503 0.88634 0.0
C3920 C 0.05631 0.13123 0.88128 0.0
C3921 C 0.0524 0.12247 0.88216 0.0
C3922 C 0.05131 0.13915 0.88355 0.0
C3923 C 0.04225 0.13828 0.88687 0.0
C3924 C 0.03833 0.12952 0.88804 0.0
C3925 C 0.04342 0.12171 0.88565 0.0
N3926 N 0.02928 0.12821 0.89148 0.0
C3927 C 0.02316 0.13514 0.89388 0.0
H3928 H 0.39224 0.13634 0.20858 0.0
H3929 H 0.3829 0.12357 0.23347 0.0
H3930 H 0.38136 0.15289 0.23047 0.0
C3931 C 0.3891 0.13692 0.2153 0.0
C3932 C 0.38694 0.14562 0.2188 0.0
C3933 C 0.38762 0.12895 0.22051 0.0
C3934 C 0.38401 0.12971 0.22942 0.0
C3935 C 0.38172 0.13839 0.233 0.0
C3936 C 0.3832 0.14625 0.22767 0.0
N3937 N 0.37789 0.13954 0.2419 0.0
C3938 C 0.37633 0.13252 0.24817 0.0
H3939 H 0.13512 0.1399 0.45839 0.0
H3940 H 0.14803 0.1303 0.48309 0.0
H3941 H 0.11854 0.12911 0.48034 0.0
C3942 C 0.13455 0.13674 0.4651 0.0
C3943 C 0.12581 0.13467 0.46866 0.0
C3944 C 0.14258 0.13514 0.47022 0.0
C3945 C 0.14185 0.13149 0.47912 0.0
C3946 C 0.13313 0.12928 0.48275 0.0
C3947 C 0.12521 0.13088 0.4775 0.0
N3948 N 0.13199 0.12541 0.49163 0.0
C3949 C 0.13906 0.12377 0.49784 0.0
H3950 H 0.13166 0.88308 0.70835 0.0
H3951 H 0.14114 0.89536 0.73342 0.0
H3952 H 0.14244 0.8661 0.72993 0.0
C3953 C 0.1348 0.88236 0.71505 0.0
C3954 C 0.13688 0.87359 0.71841 0.0
C3955 C 0.13636 0.89024 0.72038 0.0
C3956 C 0.13996 0.88931 0.72928 0.0
C3957 C 0.14219 0.88055 0.73271 0.0
C3958 C 0.14064 0.87279 0.72725 0.0
N3959 N 0.14603 0.87918 0.74156 0.0
C3960 C 0.14753 0.88597 0.74809 0.0
H3961 H 0.38898 0.87898 0.95848 0.0
H3962 H 0.37663 0.88865 0.98347 0.0
H3963 H 0.40608 0.88946 0.98015 0.0
C3964 C 0.38971 0.8821 0.96519 0.0
C3965 C 0.39854 0.88403 0.9686 0.0
C3966 C 0.3818 0.88379 0.97046 0.0
C3967 C 0.38272 0.88738 0.97937 0.0
C3968 C 0.39154 0.88946 0.98284 0.0
C3969 C 0.39934 0.88778 0.97743 0.0
N3970 N 0.39292 0.89329 0.99169 0.0
C3971 C 0.38609 0.89499 0.99815 0.0
H3972 H 0.39214 0.88282 0.3114 0.0
H3973 H 0.38243 0.89506 0.28641 0.0
H3974 H 0.38179 0.86574 0.28968 0.0
C3975 C 0.38902 0.88207 0.30469 0.0
C3976 C 0.38715 0.87328 0.30127 0.0
C3977 C 0.38729 0.88994 0.29942 0.0
C3978 C 0.38373 0.889 0.2905 0.0
C3979 C 0.3817 0.88022 0.28701 0.0
C3980 C 0.38342 0.87245 0.29242 0.0
N3981 N 0.37791 0.87884 0.27814 0.0
C3982 C 0.37624 0.88566 0.27169 0.0
H3983 H 0.38881 0.14061 0.56136 0.0
H3984 H 0.37607 0.1313 0.53647 0.0
H3985 H 0.40557 0.13048 0.53924 0.0
C3986 C 0.38944 0.13759 0.5546 0.0
C3987 C 0.39821 0.13571 0.55102 0.0
C3988 C 0.38145 0.13598 0.54944 0.0
C3989 C 0.38223 0.1325 0.54048 0.0
C3990 C 0.39099 0.13047 0.53682 0.0
C3991 C 0.39888 0.1321 0.54211 0.0
N3992 N 0.39219 0.12678 0.52788 0.0
C3993 C 0.38513 0.1249 0.52172 0.0
H3994 H 0.13106 0.13627 0.81166 0.0
H3995 H 0.14054 0.12423 0.78646 0.0
H3996 H 0.14175 0.15347 0.79018 0.0
C3997 C 0.13419 0.13706 0.80495 0.0
C3998 C 0.13624 0.14587 0.80165 0.0
C3999 C 0.13576 0.12924 0.79955 0.0
C4000 C 0.13936 0.13025 0.79065 0.0
C4001 C 0.14155 0.13904 0.78729 0.0
C4002 C 0.13998 0.14676 0.79281 0.0
N4003 N 0.14538 0.14049 0.77843 0.0
C4004 C 0.147 0.13372 0.77191 0.0
H4005 H 0.13507 0.87913 0.06192 0.0
H4006 H 0.14786 0.88858 0.03708 0.0
H4007 H 0.11836 0.88947 0.03988 0.0
C4008 C 0.13446 0.88221 0.05518 0.0
C4009 C 0.1257 0.88413 0.05161 0.0
C4010 C 0.14246 0.88383 0.05002 0.0
C4011 C 0.14169 0.88736 0.04108 0.0
C4012 C 0.13295 0.88944 0.03744 0.0
C4013 C 0.12504 0.88781 0.04273 0.0
N4014 N 0.13177 0.8932 0.02853 0.0
C4015 C 0.13883 0.89494 0.02232 0.0
H4016 H 0.21431 0.39698 0.13818 0.0
H4017 H 0.23476 0.38086 0.1242 0.0
H4018 H 0.23198 0.37905 0.15356 0.0
C4019 C 0.22 0.39218 0.13841 0.0
C4020 C 0.22271 0.38849 0.14687 0.0
C4021 C 0.22425 0.38942 0.13019 0.0
C4022 C 0.23145 0.38299 0.13051 0.0
C4023 C 0.23429 0.37929 0.13898 0.0
C4024 C 0.22979 0.38195 0.14707 0.0
N4025 N 0.24155 0.37281 0.13964 0.0
C4026 C 0.24814 0.37136 0.13286 0.0
H4027 H 0.71011 0.12937 0.88322 0.0
H4028 H 0.73487 0.13884 0.89623 0.0
H4029 H 0.73237 0.13989 0.86681 0.0
C4030 C 0.71687 0.13248 0.88268 0.0
C4031 C 0.72054 0.13447 0.874 0.0
C4032 C 0.72196 0.13408 0.89071 0.0
C4033 C 0.73093 0.13765 0.89004 0.0
C4034 C 0.73467 0.13979 0.88137 0.0
C4035 C 0.72945 0.13818 0.87344 0.0
N4036 N 0.74361 0.14358 0.8803 0.0
C4037 C 0.74976 0.14529 0.8874 0.0
H4038 H 0.14379 0.45868 0.13372 0.0
H4039 H 0.13222 0.48283 0.14611 0.0
H4040 H 0.1323 0.47982 0.1167 0.0
C4041 C 0.14041 0.46527 0.13303 0.0
C4042 C 0.13841 0.46866 0.12425 0.0
C4043 C 0.13814 0.47029 0.14093 0.0
C4044 C 0.13392 0.47892 0.14002 0.0
C4045 C 0.13171 0.48231 0.13124 0.0
C4046 C 0.1339 0.47711 0.12344 0.0
N4047 N 0.12726 0.49087 0.12989 0.0
C4048 C 0.12566 0.4974 0.13665 0.0
H4049 H 0.81391 0.89053 0.38301 0.0
H4050 H 0.78903 0.88096 0.39574 0.0
H4051 H 0.7918 0.88019 0.36634 0.0
C4052 C 0.80715 0.88743 0.38239 0.0
C4053 C 0.80357 0.88553 0.37366 0.0
C4054 C 0.80199 0.88577 0.39036 0.0
C4055 C 0.79303 0.88221 0.38959 0.0
C4056 C 0.78937 0.88016 0.38088 0.0
C4057 C 0.79466 0.88183 0.373 0.0
N4058 N 0.78043 0.87638 0.3797 0.0
C4059 C 0.77421 0.87462 0.38674 0.0
H4060 H 0.88212 0.06116 0.13353 0.0
H4061 H 0.89183 0.03621 0.14583 0.0
H4062 H 0.89273 0.03954 0.1165 0.0
C4063 C 0.88527 0.05447 0.1328 0.0
C4064 C 0.88724 0.05107 0.12401 0.0
C4065 C 0.88695 0.0492 0.14069 0.0
C4066 C 0.89057 0.04031 0.13976 0.0
C4067 C 0.89268 0.03684 0.13098 0.0
C4068 C 0.89102 0.04225 0.12321 0.0
N4069 N 0.89653 0.028 0.12962 0.0
C4070 C 0.8982 0.02155 0.13644 0.0
H4071 H 0.31414 0.62882 0.63692 0.0
H4072 H 0.28924 0.63826 0.62415 0.0
H4073 H 0.29222 0.63973 0.6535 0.0
C4074 C 0.30741 0.63198 0.63751 0.0
C4075 C 0.3039 0.63412 0.64622 0.0
C4076 C 0.30221 0.63348 0.62954 0.0
C4077 C 0.29328 0.63713 0.63029 0.0
C4078 C 0.28969 0.63943 0.63898 0.0
C4079 C 0.29502 0.6379 0.64686 0.0
N4080 N 0.2808 0.6433 0.64014 0.0
C4081 C 0.27457 0.64501 0.6331 0.0
H4082 H 0.14197 0.56102 0.38705 0.0
H4083 H 0.13234 0.53612 0.37459 0.0
H4084 H 0.13133 0.53928 0.40393 0.0
C4085 C 0.13882 0.55432 0.38773 0.0
C4086 C 0.13683 0.55087 0.3965 0.0
C4087 C 0.13718 0.54909 0.37981 0.0
C4088 C 0.13357 0.54018 0.38068 0.0
C4089 C 0.13142 0.53667 0.38943 0.0
C4090 C 0.13306 0.54204 0.39724 0.0
N4091 N 0.12758 0.52781 0.39074 0.0
C4092 C 0.126 0.52138 0.38388 0.0
H4093 H 0.38173 0.45812 0.88717 0.0
H4094 H 0.39145 0.48308 0.87486 0.0
H4095 H 0.39225 0.47979 0.90419 0.0
C4096 C 0.38487 0.46482 0.88789 0.0
C4097 C 0.3868 0.46823 0.89669 0.0
C4098 C 0.38657 0.47009 0.88 0.0
C4099 C 0.39017 0.47899 0.88093 0.0
C4100 C 0.39225 0.48247 0.88971 0.0
C4101 C 0.39056 0.47707 0.89749 0.0
N4102 N 0.39607 0.49132 0.89108 0.0
C4103 C 0.39775 0.49776 0.88425 0.0
H4104 H 0.88532 0.81125 0.62895 0.0
H4105 H 0.89757 0.78632 0.63882 0.0
H4106 H 0.86814 0.78971 0.63959 0.0
C4107 C 0.88456 0.80457 0.63212 0.0
C4108 C 0.87572 0.80119 0.63406 0.0
C4109 C 0.89246 0.7993 0.63387 0.0
C4110 C 0.8915 0.79042 0.63751 0.0
C4111 C 0.88267 0.78698 0.6396 0.0
C4112 C 0.87489 0.7924 0.63788 0.0
N4113 N 0.88125 0.77817 0.64349 0.0
C4114 C 0.88802 0.77162 0.64501 0.0
H4115 H 0.96463 0.13142 0.3721 0.0
H4116 H 0.98508 0.14524 0.38835 0.0
H4117 H 0.98222 0.11591 0.39 0.0
C4118 C 0.97032 0.13115 0.37691 0.0
C4119 C 0.97299 0.12266 0.38057 0.0
C4120 C 0.97458 0.13933 0.37972 0.0
C4121 C 0.98176 0.13896 0.38617 0.0
C4122 C 0.98456 0.13047 0.38984 0.0
C4123 C 0.98006 0.12241 0.38713 0.0
N4124 N 0.9918 0.12975 0.39635 0.0
C4125 C 0.99839 0.13649 0.39788 0.0
H4126 H 0.63905 0.2084 0.12884 0.0
H4127 H 0.6263 0.23314 0.13851 0.0
H4128 H 0.65579 0.23037 0.13927 0.0
C4129 C 0.63968 0.21511 0.13195 0.0
C4130 C 0.64844 0.21868 0.13388 0.0
C4131 C 0.63167 0.22024 0.13365 0.0
C4132 C 0.63246 0.22915 0.13724 0.0
C4133 C 0.64121 0.23279 0.1393 0.0
C4134 C 0.64911 0.22753 0.1376 0.0
N4135 N 0.64241 0.24167 0.14311 0.0
C4136 C 0.63538 0.24788 0.14488 0.0
H4137 H 0.56385 0.8871 0.87881 0.0
H4138 H 0.53875 0.87496 0.88863 0.0
H4139 H 0.54231 0.90423 0.88958 0.0
C4140 C 0.55715 0.88786 0.88199 0.0
C4141 C 0.55381 0.89666 0.884 0.0
C4142 C 0.5518 0.88001 0.88369 0.0
C4143 C 0.5429 0.881 0.88735 0.0
C4144 C 0.5395 0.88978 0.88951 0.0
C4145 C 0.54498 0.89752 0.88783 0.0
N4146 N 0.53065 0.89121 0.89341 0.0
C4147 C 0.52411 0.88444 0.89502 0.0
H4148 H 0.8847 0.20875 0.89218 0.0
H4149 H 0.89734 0.23371 0.88289 0.0
H4150 H 0.86785 0.23084 0.8822 0.0
C4151 C 0.88404 0.21552 0.88918 0.0
C4152 C 0.87526 0.21908 0.88735 0.0
C4153 C 0.89202 0.22071 0.88754 0.0
C4154 C 0.89119 0.22968 0.88411 0.0
C4155 C 0.88242 0.23332 0.88216 0.0
C4156 C 0.87455 0.228 0.88379 0.0
N4157 N 0.88118 0.24227 0.87853 0.0
C4158 C 0.8882 0.24851 0.87677 0.0
H4159 H 0.56304 0.1323 0.64137 0.0
H4160 H 0.5382 0.14491 0.63158 0.0
H4161 H 0.54102 0.11555 0.63096 0.0
C4162 C 0.5563 0.13165 0.63824 0.0
C4163 C 0.55274 0.12291 0.63634 0.0
C4164 C 0.55114 0.1396 0.6365 0.0
C4165 C 0.54221 0.13879 0.63289 0.0
C4166 C 0.53857 0.13007 0.63086 0.0
C4167 C 0.54386 0.12222 0.6326 0.0
N4168 N 0.52965 0.12886 0.62704 0.0
C4169 C 0.52344 0.13587 0.62523 0.0
H4170 H 0.63932 0.80998 0.39378 0.0
H4171 H 0.62636 0.78636 0.38177 0.0
H4172 H 0.65595 0.78837 0.38254 0.0
C4173 C 0.63987 0.80339 0.39038 0.0
C4174 C 0.6486 0.79973 0.38855 0.0
C4175 C 0.63184 0.79866 0.38789 0.0
C4176 C 0.63256 0.79004 0.38364 0.0
C4177 C 0.6413 0.78636 0.38161 0.0
C4178 C 0.64925 0.79128 0.38401 0.0
N4179 N 0.64245 0.77778 0.37715 0.0
C4180 C 0.6354 0.77162 0.37527 0.0
H4181 H 0.9636 0.88708 0.1471 0.0
H4182 H 0.9857 0.87412 0.13238 0.0
H4183 H 0.981 0.90309 0.12937 0.0
C4184 C 0.96938 0.88757 0.14241 0.0
C4185 C 0.97165 0.89609 0.13855 0.0
C4186 C 0.97435 0.87962 0.14019 0.0
C4187 C 0.98187 0.88024 0.13414 0.0
C4188 C 0.98434 0.88878 0.13034 0.0
C4189 C 0.97916 0.8966 0.1325 0.0
N4190 N 0.99186 0.88977 0.12418 0.0
C4191 C 0.9989 0.88342 0.12308 0.0
H4192 H 0.62577 0.88225 0.80875 0.0
H4193 H 0.64036 0.89511 0.78654 0.0
H4194 H 0.64343 0.86617 0.79136 0.0
C4195 C 0.63043 0.88174 0.80296 0.0
C4196 C 0.63429 0.87321 0.80071 0.0
C4197 C 0.63261 0.88967 0.79794 0.0
C4198 C 0.63863 0.88901 0.79041 0.0
C4199 C 0.64243 0.88047 0.78796 0.0
C4200 C 0.6403 0.87267 0.79318 0.0
N4201 N 0.64855 0.87944 0.78043 0.0
C4202 C 0.64961 0.88577 0.77338 0.0
H4203 H 0.88973 0.8764 0.56024 0.0
H4204 H 0.87684 0.88835 0.53655 0.0
H4205 H 0.90643 0.88735 0.53849 0.0
C4206 C 0.8903 0.87976 0.55362 0.0
C4207 C 0.89904 0.88148 0.54992 0.0
C4208 C 0.88228 0.88227 0.54889 0.0
C4209 C 0.88302 0.88646 0.54023 0.0
C4210 C 0.89178 0.8884 0.53651 0.0
C4211 C 0.89971 0.88596 0.54143 0.0
N4212 N 0.89295 0.89279 0.52789 0.0
C4213 C 0.88589 0.89471 0.52174 0.0
H4214 H 0.89309 0.13662 0.3114 0.0
H4215 H 0.8834 0.12445 0.28635 0.0
H4216 H 0.88215 0.1537 0.28997 0.0
C4217 C 0.8899 0.13737 0.30472 0.0
C4218 C 0.8878 0.14616 0.30141 0.0
C4219 C 0.88828 0.12952 0.29938 0.0
C4220 C 0.88461 0.13049 0.2905 0.0
C4221 C 0.88237 0.13926 0.28713 0.0
C4222 C 0.88396 0.14699 0.29261 0.0
N4223 N 0.87846 0.14067 0.27831 0.0
C4224 C 0.87696 0.13392 0.27176 0.0
H4225 H 0.63471 0.14123 0.06166 0.0
H4226 H 0.6475 0.13149 0.03694 0.0
H4227 H 0.618 0.13071 0.03969 0.0
C4228 C 0.63409 0.1381 0.05494 0.0
C4229 C 0.62533 0.13615 0.05138 0.0
C4230 C 0.6421 0.13639 0.04982 0.0
C4231 C 0.64134 0.13277 0.04092 0.0
C4232 C 0.63259 0.13068 0.03728 0.0
C4233 C 0.62468 0.13239 0.04254 0.0
N4234 N 0.63141 0.12683 0.02841 0.0
C4235 C 0.63846 0.12503 0.02221 0.0
H4236 H 0.62881 0.1369 0.70967 0.0
H4237 H 0.64082 0.12452 0.73362 0.0
H4238 H 0.64004 0.15392 0.73095 0.0
C4239 C 0.63221 0.13759 0.71625 0.0
C4240 C 0.63403 0.14636 0.71973 0.0
C4241 C 0.63469 0.1297 0.72117 0.0
C4242 C 0.63894 0.1306 0.72979 0.0
C4243 C 0.64097 0.13939 0.73328 0.0
C4244 C 0.63857 0.14718 0.72818 0.0
N4245 N 0.64546 0.14075 0.74182 0.0
C4246 C 0.64726 0.13399 0.74829 0.0
H4247 H 0.63485 0.87815 0.45929 0.0
H4248 H 0.64759 0.88816 0.48392 0.0
H4249 H 0.61808 0.88876 0.48119 0.0
C4250 C 0.63422 0.88134 0.46598 0.0
C4251 C 0.62545 0.88326 0.46954 0.0
C4252 C 0.64222 0.88313 0.47108 0.0
C4253 C 0.64143 0.88681 0.47996 0.0
C4254 C 0.63267 0.88887 0.48359 0.0
C4255 C 0.62477 0.88709 0.47835 0.0
N4256 N 0.63147 0.89278 0.49244 0.0
C4257 C 0.63851 0.89463 0.49862 0.0
H4258 H 0.89322 0.88279 0.20885 0.0
H4259 H 0.88348 0.895 0.23387 0.0
H4260 H 0.88244 0.86573 0.2304 0.0
C4261 C 0.89005 0.88204 0.21555 0.0
C4262 C 0.88802 0.87325 0.2189 0.0
C4263 C 0.88839 0.88991 0.22086 0.0
C4264 C 0.88474 0.88896 0.22975 0.0
C4265 C 0.88257 0.88018 0.23317 0.0
C4266 C 0.8842 0.87243 0.22772 0.0
N4267 N 0.87868 0.87879 0.242 0.0
C4268 C 0.87714 0.88556 0.24853 0.0
H4269 H 0.8895 0.14151 0.95921 0.0
H4270 H 0.87683 0.13178 0.984 0.0
H4271 H 0.90633 0.13114 0.98116 0.0
C4272 C 0.89015 0.13839 0.96594 0.0
C4273 C 0.89893 0.1365 0.96948 0.0
C4274 C 0.88216 0.13666 0.97109 0.0
C4275 C 0.88298 0.13308 0.98 0.0
C4276 C 0.89174 0.13105 0.98362 0.0
C4277 C 0.89963 0.13278 0.97833 0.0
N4278 N 0.89297 0.12725 0.99251 0.0
C4279 C 0.88594 0.12541 0.99872 0.0
H4280 H 0.81258 0.6264 0.88279 0.0
H4281 H 0.7886 0.63847 0.8952 0.0
H4282 H 0.79119 0.63751 0.86576 0.0
C4283 C 0.80597 0.62979 0.8821 0.0
C4284 C 0.80246 0.63156 0.87332 0.0
C4285 C 0.80106 0.63231 0.89001 0.0
C4286 C 0.79242 0.63656 0.88911 0.0
C4287 C 0.7889 0.63853 0.88031 0.0
C4288 C 0.79399 0.63608 0.87251 0.0
N4289 N 0.78033 0.64301 0.87895 0.0
C4290 C 0.77389 0.64491 0.88574 0.0
H4291 H 0.31233 0.89339 0.13774 0.0
H4292 H 0.28868 0.88111 0.12497 0.0
H4293 H 0.29063 0.88231 0.15445 0.0
C4294 C 0.30572 0.88997 0.13833 0.0
C4295 C 0.30203 0.88826 0.14705 0.0
C4296 C 0.301 0.88735 0.13035 0.0
C4297 C 0.29236 0.88308 0.13112 0.0
C4298 C 0.28865 0.88116 0.13986 0.0
C4299 C 0.29356 0.8837 0.14775 0.0
N4300 N 0.28004 0.87669 0.14105 0.0
C4301 C 0.27386 0.87474 0.13404 0.0
H4302 H 0.88081 0.56099 0.88748 0.0
H4303 H 0.89054 0.53619 0.87492 0.0
H4304 H 0.89115 0.53906 0.9043 0.0
C4305 C 0.88393 0.55427 0.88814 0.0
C4306 C 0.8858 0.55074 0.8969 0.0
C4307 C 0.88566 0.54911 0.88019 0.0
C4308 C 0.88923 0.54019 0.88103 0.0
C4309 C 0.89124 0.53658 0.88977 0.0
C4310 C 0.88952 0.54188 0.89762 0.0
N4311 N 0.89502 0.52769 0.89101 0.0
C4312 C 0.89669 0.52142 0.88402 0.0
H4313 H 0.21163 0.12599 0.63792 0.0
H4314 H 0.23531 0.13814 0.62503 0.0
H4315 H 0.23342 0.13702 0.65452 0.0
C4316 C 0.21825 0.12939 0.63848 0.0
C4317 C 0.22197 0.1311 0.64718 0.0
C4318 C 0.22297 0.13197 0.63047 0.0
C4319 C 0.23163 0.1362 0.6312 0.0
C4320 C 0.23537 0.13812 0.63992 0.0
C4321 C 0.23047 0.13562 0.64783 0.0
N4322 N 0.244 0.14255 0.64106 0.0
C4323 C 0.25016 0.1445 0.63402 0.0
H4324 H 0.14389 0.95872 0.88716 0.0
H4325 H 0.13456 0.98388 0.87498 0.0
H4326 H 0.13392 0.98055 0.90431 0.0
C4327 C 0.14089 0.96548 0.88792 0.0
C4328 C 0.13909 0.96891 0.89674 0.0
C4329 C 0.13923 0.97078 0.88005 0.0
C4330 C 0.13581 0.97975 0.88103 0.0
C4331 C 0.13388 0.98326 0.88983 0.0
C4332 C 0.13551 0.97781 0.89758 0.0
N4333 N 0.13026 0.99218 0.89126 0.0
C4334 C 0.1286 0.99866 0.88446 0.0
H4335 H 0.7118 0.39383 0.38295 0.0
H4336 H 0.73517 0.3813 0.39597 0.0
H4337 H 0.73315 0.38177 0.36647 0.0
C4338 C 0.71832 0.39025 0.38242 0.0
C4339 C 0.72194 0.38822 0.37374 0.0
C4340 C 0.72301 0.38772 0.39044 0.0
C4341 C 0.73153 0.3832 0.38977 0.0
C4342 C 0.73515 0.38095 0.38108 0.0
C4343 C 0.73028 0.38342 0.37314 0.0
N4344 N 0.74361 0.3762 0.37998 0.0
C4345 C 0.74978 0.37429 0.38701 0.0
H4346 H 0.88087 0.45845 0.6331 0.0
H4347 H 0.89041 0.4833 0.64573 0.0
H4348 H 0.89175 0.48021 0.61639 0.0
C4349 C 0.88404 0.46514 0.63247 0.0
C4350 C 0.88616 0.46861 0.62374 0.0
C4351 C 0.8856 0.47036 0.64043 0.0
C4352 C 0.88924 0.47925 0.63961 0.0
C4353 C 0.89149 0.48279 0.63089 0.0
C4354 C 0.88994 0.47744 0.62305 0.0
N4355 N 0.89535 0.49165 0.62968 0.0
C4356 C 0.89699 0.49792 0.63667 0.0
H4357 H 0.64293 0.56111 0.13338 0.0
H4358 H 0.6333 0.53603 0.14553 0.0
H4359 H 0.63206 0.53969 0.11626 0.0
C4360 C 0.63976 0.55443 0.13263 0.0
C4361 C 0.63768 0.55113 0.12382 0.0
C4362 C 0.63815 0.54907 0.14048 0.0
C4363 C 0.63451 0.54019 0.1395 0.0
C4364 C 0.63229 0.53683 0.13071 0.0
C4365 C 0.63387 0.54233 0.12297 0.0
N4366 N 0.62841 0.52801 0.12928 0.0
C4367 C 0.62696 0.52142 0.13602 0.0
H4368 H 0.63886 0.70834 0.89088 0.0
H4369 H 0.6259 0.73307 0.88148 0.0
H4370 H 0.65542 0.7305 0.88051 0.0
C4371 C 0.63943 0.71509 0.88781 0.0
C4372 C 0.64816 0.71872 0.88586 0.0
C4373 C 0.63139 0.72018 0.88621 0.0
C4374 C 0.6321 0.72912 0.88268 0.0
C4375 C 0.64081 0.73283 0.88058 0.0
C4376 C 0.64876 0.7276 0.88219 0.0
N4377 N 0.64193 0.74174 0.87682 0.0
C4378 C 0.63483 0.74788 0.87505 0.0
H4379 H 0.56273 0.38709 0.14299 0.0
H4380 H 0.53909 0.37416 0.13087 0.0
H4381 H 0.54099 0.40363 0.1318 0.0
C4382 C 0.55613 0.38764 0.13957 0.0
C4383 C 0.55242 0.39632 0.13779 0.0
C4384 C 0.55141 0.37963 0.13703 0.0
C4385 C 0.54276 0.38034 0.13277 0.0
C4386 C 0.53903 0.38904 0.13078 0.0
C4387 C 0.54394 0.39696 0.13324 0.0
N4388 N 0.53041 0.39015 0.12633 0.0
C4389 C 0.52425 0.3831 0.12444 0.0
H4390 H 0.88508 0.31034 0.3927 0.0
H4391 H 0.89824 0.28679 0.38078 0.0
H4392 H 0.86863 0.28858 0.38148 0.0
C4393 C 0.88458 0.30375 0.3893 0.0
C4394 C 0.87588 0.30001 0.38748 0.0
C4395 C 0.89265 0.29907 0.38685 0.0
C4396 C 0.89201 0.29043 0.38262 0.0
C4397 C 0.88329 0.28669 0.38057 0.0
C4398 C 0.87531 0.29155 0.38295 0.0
N4399 N 0.88222 0.27809 0.37613 0.0
C4400 C 0.88932 0.27196 0.37429 0.0
H4401 H 0.96152 0.63222 0.64282 0.0
H4402 H 0.98528 0.6451 0.63085 0.0
H4403 H 0.98332 0.61564 0.63179 0.0
C4404 C 0.96815 0.63166 0.63945 0.0
C4405 C 0.97186 0.62297 0.63771 0.0
C4406 C 0.9729 0.63966 0.63694 0.0
C4407 C 0.98159 0.63894 0.63273 0.0
C4408 C 0.98531 0.63023 0.63078 0.0
C4409 C 0.98038 0.62232 0.63321 0.0
N4410 N 0.99397 0.62909 0.62637 0.0
C4411 C 1.00015 0.63613 0.62451 0.0
H4412 H 0.63927 0.31113 0.62978 0.0
H4413 H 0.6263 0.28632 0.63898 0.0
H4414 H 0.6558 0.28899 0.64015 0.0
C4415 C 0.63983 0.30438 0.63283 0.0
C4416 C 0.64856 0.30077 0.63481 0.0
C4417 C 0.63179 0.29925 0.63435 0.0
C4418 C 0.63249 0.2903 0.63785 0.0
C4419 C 0.64121 0.28662 0.63999 0.0
C4420 C 0.64915 0.29187 0.63845 0.0
N4421 N 0.64232 0.27769 0.64371 0.0
C4422 C 0.63522 0.27151 0.64538 0.0
H4423 H 0.95997 0.38658 0.87906 0.0
H4424 H 0.98498 0.37404 0.88851 0.0
H4425 H 0.98177 0.40334 0.8899 0.0
C4426 C 0.9667 0.38723 0.88221 0.0
C4427 C 0.97014 0.39597 0.88433 0.0
C4428 C 0.97197 0.37931 0.88373 0.0
C4429 C 0.98089 0.38014 0.88737 0.0
C4430 C 0.98441 0.38886 0.88964 0.0
C4431 C 0.97902 0.39668 0.88809 0.0
N4432 N 0.99331 0.39008 0.8935 0.0
C4433 C 0.99958 0.38309 0.89521 0.0
H4434 H 0.88487 0.70791 0.1301 0.0
H4435 H 0.89785 0.73267 0.1394 0.0
H4436 H 0.86834 0.73006 0.14047 0.0
C4437 C 0.88431 0.71465 0.13316 0.0
C4438 C 0.87558 0.71828 0.13513 0.0
C4439 C 0.89235 0.71976 0.13472 0.0
C4440 C 0.89165 0.7287 0.13824 0.0
C4441 C 0.88294 0.7324 0.14036 0.0
C4442 C 0.875 0.72717 0.13878 0.0
N4443 N 0.88182 0.74133 0.14409 0.0
C4444 C 0.88893 0.74747 0.14585 0.0
H4445 H 0.56253 0.63246 0.3774 0.0
H4446 H 0.53882 0.64542 0.38938 0.0
H4447 H 0.54068 0.61595 0.38847 0.0
C4448 C 0.55589 0.63192 0.38078 0.0
C4449 C 0.55216 0.62324 0.38253 0.0
C4450 C 0.55117 0.63993 0.38329 0.0
C4451 C 0.54249 0.63924 0.3875 0.0
C4452 C 0.53874 0.63054 0.38947 0.0
C4453 C 0.54364 0.62262 0.38704 0.0
N4454 N 0.53009 0.62943 0.39389 0.0
C4455 C 0.52393 0.63648 0.39576 0.0
H4456 H 0.89265 0.63664 0.70839 0.0
H4457 H 0.88293 0.62439 0.7334 0.0
H4458 H 0.8822 0.6537 0.73009 0.0
C4459 C 0.88952 0.63738 0.7151 0.0
C4460 C 0.88762 0.64617 0.71851 0.0
C4461 C 0.8878 0.62951 0.72038 0.0
C4462 C 0.88422 0.63045 0.72929 0.0
C4463 C 0.88217 0.63923 0.73277 0.0
C4464 C 0.88387 0.64699 0.72736 0.0
N4465 N 0.87835 0.64061 0.74164 0.0
C4466 C 0.87671 0.63381 0.74812 0.0
H4467 H 0.63516 0.64012 0.95842 0.0
H4468 H 0.64803 0.63077 0.98323 0.0
H4469 H 0.61854 0.62963 0.98049 0.0
C4470 C 0.63457 0.63703 0.96516 0.0
C4471 C 0.62583 0.63503 0.96874 0.0
C4472 C 0.64259 0.63547 0.9703 0.0
C4473 C 0.64186 0.63193 0.97924 0.0
C4474 C 0.63313 0.62978 0.9829 0.0
C4475 C 0.62521 0.63135 0.97763 0.0
N4476 N 0.63198 0.62602 0.99182 0.0
C4477 C 0.63905 0.62431 0.99801 0.0
H4478 H 0.62999 0.3829 0.20967 0.0
H4479 H 0.64176 0.39531 0.23372 0.0
H4480 H 0.64104 0.3659 0.23106 0.0
C4481 C 0.63334 0.38222 0.21628 0.0
C4482 C 0.63513 0.37345 0.21978 0.0
C4483 C 0.63576 0.39012 0.22121 0.0
C4484 C 0.63993 0.38922 0.22987 0.0
C4485 C 0.64194 0.38044 0.23338 0.0
C4486 C 0.63959 0.37264 0.22827 0.0
N4487 N 0.64633 0.37909 0.24198 0.0
C4488 C 0.64806 0.38588 0.24844 0.0
H4489 H 0.88879 0.37956 0.45843 0.0
H4490 H 0.8759 0.38913 0.48316 0.0
H4491 H 0.90539 0.39029 0.48037 0.0
C4492 C 0.88937 0.38272 0.46514 0.0
C4493 C 0.8981 0.38477 0.46869 0.0
C4494 C 0.88134 0.38431 0.47027 0.0
C4495 C 0.88207 0.38794 0.47918 0.0
C4496 C 0.8908 0.39014 0.4828 0.0
C4497 C 0.89872 0.38854 0.47753 0.0
N4498 N 0.89194 0.39399 0.49168 0.0
C4499 C 0.88486 0.39571 0.49788 0.0
H4500 H 0.8932 0.38235 0.81115 0.0
H4501 H 0.88358 0.39493 0.78626 0.0
H4502 H 0.88557 0.36556 0.78814 0.0
C4503 C 0.89063 0.38169 0.8042 0.0
C4504 C 0.88971 0.37295 0.8003 0.0
C4505 C 0.88847 0.38964 0.7992 0.0
C4506 C 0.88522 0.38881 0.79015 0.0
C4507 C 0.88401 0.38007 0.78623 0.0
C4508 C 0.88628 0.37223 0.79132 0.0
N4509 N 0.88063 0.37877 0.77718 0.0
C4510 C 0.87825 0.3857 0.77108 0.0
H4511 H 0.88849 0.64012 0.06211 0.0
H4512 H 0.87554 0.63085 0.0373 0.0
H4513 H 0.90505 0.62979 0.03993 0.0
C4514 C 0.88906 0.63707 0.05535 0.0
C4515 C 0.89779 0.63511 0.05172 0.0
C4516 C 0.88102 0.63551 0.05023 0.0
C4517 C 0.88173 0.63201 0.04128 0.0
C4518 C 0.89045 0.6299 0.03757 0.0
C4519 C 0.89839 0.63147 0.04282 0.0
N4520 N 0.89158 0.62618 0.02864 0.0
C4521 C 0.88449 0.62444 0.02247 0.0
H4522 H 0.63151 0.63681 0.31145 0.0
H4523 H 0.64099 0.62443 0.28642 0.0
H4524 H 0.64169 0.65376 0.28953 0.0
C4525 C 0.63457 0.63752 0.3047 0.0
C4526 C 0.63643 0.64629 0.30121 0.0
C4527 C 0.63624 0.62961 0.29945 0.0
C4528 C 0.63974 0.6305 0.2905 0.0
C4529 C 0.64174 0.63927 0.28694 0.0
C4530 C 0.64007 0.64706 0.29232 0.0
N4531 N 0.64544 0.6406 0.27802 0.0
C4532 C 0.64726 0.63373 0.27166 0.0
H4533 H 0.63577 0.37903 0.56185 0.0
H4534 H 0.64868 0.38833 0.53702 0.0
H4535 H 0.61917 0.38931 0.53971 0.0
C4536 C 0.63519 0.38207 0.5551 0.0
C4537 C 0.62645 0.38401 0.55149 0.0
C4538 C 0.64322 0.38365 0.54996 0.0
C4539 C 0.6425 0.38715 0.54101 0.0
C4540 C 0.63377 0.38924 0.53732 0.0
C4541 C 0.62584 0.38764 0.54259 0.0
N4542 N 0.63262 0.39296 0.52839 0.0
C4543 C 0.63969 0.3948 0.52223 0.0
H4544 H 0.71013 0.8903 0.6372 0.0
H4545 H 0.735 0.8809 0.62432 0.0
H4546 H 0.73225 0.87975 0.65371 0.0
C4547 C 0.71689 0.8872 0.63777 0.0
C4548 C 0.72048 0.88518 0.64647 0.0
C4549 C 0.72204 0.88563 0.62977 0.0
C4550 C 0.731 0.88207 0.63048 0.0
C4551 C 0.73467 0.8799 0.63917 0.0
C4552 C 0.72939 0.88148 0.64707 0.0
N4553 N 0.7436 0.8761 0.6403 0.0
C4554 C 0.74981 0.87441 0.63323 0.0
H4555 H 0.21163 0.62659 0.38293 0.0
H4556 H 0.23526 0.63867 0.39592 0.0
H4557 H 0.23332 0.63797 0.36641 0.0
C4558 C 0.21823 0.63003 0.38239 0.0
C4559 C 0.22192 0.63188 0.37371 0.0
C4560 C 0.22295 0.63251 0.39041 0.0
C4561 C 0.23158 0.63681 0.38973 0.0
C4562 C 0.23529 0.63888 0.38102 0.0
C4563 C 0.23039 0.63647 0.37309 0.0
N4564 N 0.24389 0.6434 0.37992 0.0
C4565 C 0.25003 0.6453 0.38697 0.0
H4566 H 0.64222 0.95802 0.63369 0.0
H4567 H 0.63285 0.98276 0.64666 0.0
H4568 H 0.63192 0.98024 0.61724 0.0
C4569 C 0.63916 0.96478 0.63314 0.0
C4570 C 0.63722 0.96843 0.62445 0.0
C4571 C 0.63756 0.96986 0.64117 0.0
C4572 C 0.63405 0.97881 0.64048 0.0
C4573 C 0.63198 0.98254 0.6318 0.0
C4574 C 0.63358 0.97733 0.62387 0.0
N4575 N 0.62825 0.99148 0.6307 0.0
C4576 C 0.62651 0.99763 0.63777 0.0
H4577 H 0.31278 0.39264 0.88278 0.0
H4578 H 0.28913 0.38055 0.89577 0.0
H4579 H 0.29097 0.38153 0.86627 0.0
C4580 C 0.30616 0.38924 0.88225 0.0
C4581 C 0.30243 0.38749 0.87356 0.0
C4582 C 0.30146 0.3867 0.89027 0.0
C4583 C 0.29279 0.38245 0.88958 0.0
C4584 C 0.28904 0.38049 0.88088 0.0
C4585 C 0.29393 0.38295 0.87294 0.0
N4586 N 0.28041 0.37605 0.87977 0.0
C4587 C 0.27426 0.37414 0.88684 0.0
H4588 H 0.37682 0.55831 0.6332 0.0
H4589 H 0.39122 0.5363 0.64654 0.0
H4590 H 0.39482 0.54088 0.61758 0.0
C4591 C 0.38151 0.55255 0.63283 0.0
C4592 C 0.38554 0.55024 0.62438 0.0
C4593 C 0.38355 0.54761 0.64084 0.0
C4594 C 0.3896 0.54011 0.64037 0.0
C4595 C 0.39357 0.5376 0.63191 0.0
C4596 C 0.39158 0.54274 0.62401 0.0
N4597 N 0.39973 0.5301 0.63105 0.0
C4598 C 0.40066 0.52307 0.63742 0.0
H4599 H 0.81268 0.12665 0.13768 0.0
H4600 H 0.78909 0.13878 0.12468 0.0
H4601 H 0.79086 0.13778 0.15419 0.0
C4602 C 0.80607 0.13006 0.13821 0.0
C4603 C 0.80232 0.13181 0.1469 0.0
C4604 C 0.80139 0.13261 0.13019 0.0
C4605 C 0.79273 0.13687 0.13087 0.0
C4606 C 0.78896 0.13883 0.13958 0.0
C4607 C 0.79383 0.13636 0.14751 0.0
N4608 N 0.78034 0.14329 0.14068 0.0
C4609 C 0.77422 0.14522 0.13361 0.0
H4610 H 0.64239 0.06168 0.88712 0.0
H4611 H 0.63319 0.03687 0.87418 0.0
H4612 H 0.63199 0.03948 0.90357 0.0
C4613 C 0.63933 0.05492 0.88767 0.0
C4614 C 0.63733 0.05129 0.89637 0.0
C4615 C 0.63782 0.0498 0.87966 0.0
C4616 C 0.63432 0.04084 0.88035 0.0
C4617 C 0.63218 0.03713 0.88903 0.0
C4618 C 0.63371 0.04238 0.89694 0.0
N4619 N 0.62847 0.02819 0.89013 0.0
C4620 C 0.62678 0.02204 0.88303 0.0
H4621 H 0.88155 0.95859 0.38681 0.0
H4622 H 0.89092 0.98366 0.37444 0.0
H4623 H 0.89172 0.98047 0.40379 0.0
C4624 C 0.88459 0.96534 0.38752 0.0
C4625 C 0.88646 0.96881 0.3963 0.0
C4626 C 0.88622 0.97061 0.37962 0.0
C4627 C 0.8897 0.97956 0.38052 0.0
C4628 C 0.89171 0.9831 0.38929 0.0
C4629 C 0.89009 0.9777 0.39708 0.0
N4630 N 0.89541 0.99201 0.39065 0.0
C4631 C 0.89713 0.99842 0.3838 0.0
H4632 H 0.38503 0.31109 0.12896 0.0
H4633 H 0.39732 0.2862 0.1389 0.0
H4634 H 0.36789 0.28956 0.13969 0.0
C4635 C 0.38428 0.30442 0.13215 0.0
C4636 C 0.37545 0.30104 0.13411 0.0
C4637 C 0.39219 0.29916 0.1339 0.0
C4638 C 0.39124 0.29029 0.13757 0.0
C4639 C 0.38242 0.28686 0.13969 0.0
C4640 C 0.37463 0.29226 0.13796 0.0
N4641 N 0.381 0.27807 0.14363 0.0
C4642 C 0.38777 0.27153 0.14521 0.0
H4643 H 0.46157 0.63204 0.87642 0.0
H4644 H 0.48517 0.64504 0.88857 0.0
H4645 H 0.48337 0.61557 0.88759 0.0
C4646 C 0.46818 0.63152 0.87984 0.0
C4647 C 0.47192 0.62284 0.88161 0.0
C4648 C 0.47287 0.63954 0.88239 0.0
C4649 C 0.48152 0.63885 0.88665 0.0
C4650 C 0.48528 0.63016 0.88863 0.0
C4651 C 0.48041 0.62223 0.88616 0.0
N4652 N 0.49389 0.62906 0.8931 0.0
C4653 C 0.50003 0.63611 0.89504 0.0
H4654 H 0.13934 0.70817 0.62944 0.0
H4655 H 0.1266 0.7329 0.63916 0.0
H4656 H 0.15608 0.72999 0.64019 0.0
C4657 C 0.13996 0.71486 0.63262 0.0
C4658 C 0.14872 0.71837 0.63465 0.0
C4659 C 0.13196 0.72002 0.63426 0.0
C4660 C 0.13276 0.7289 0.63792 0.0
C4661 C 0.14151 0.73248 0.6401 0.0
C4662 C 0.1494 0.72719 0.63845 0.0
N4663 N 0.14271 0.74133 0.64397 0.0
C4664 C 0.13568 0.74757 0.64568 0.0
H4665 H 0.06254 0.38733 0.37644 0.0
H4666 H 0.03892 0.37451 0.38877 0.0
H4667 H 0.04083 0.40396 0.38757 0.0
C4668 C 0.05594 0.3879 0.37987 0.0
C4669 C 0.05224 0.3966 0.38159 0.0
C4670 C 0.05123 0.37992 0.3825 0.0
C4671 C 0.04259 0.38067 0.38679 0.0
C4672 C 0.03887 0.38939 0.38872 0.0
C4673 C 0.04377 0.39728 0.38617 0.0
N4674 N 0.03027 0.39055 0.39321 0.0
C4675 C 0.0241 0.38353 0.39518 0.0
H4676 H 0.38534 0.70867 0.39106 0.0
H4677 H 0.39763 0.73354 0.38107 0.0
H4678 H 0.36823 0.73004 0.38004 0.0
C4679 C 0.3846 0.71531 0.38782 0.0
C4680 C 0.37577 0.71864 0.38576 0.0
C4681 C 0.3925 0.72059 0.3861 0.0
C4682 C 0.39156 0.72943 0.38236 0.0
C4683 C 0.38274 0.73281 0.38014 0.0
C4684 C 0.37496 0.72739 0.38184 0.0
N4685 N 0.38135 0.74157 0.37614 0.0
C4686 C 0.38811 0.74816 0.37469 0.0
H4687 H 0.06326 0.63235 0.14196 0.0
H4688 H 0.0385 0.64504 0.13205 0.0
H4689 H 0.04129 0.61567 0.13132 0.0
C4690 C 0.05654 0.63173 0.13878 0.0
C4691 C 0.05298 0.623 0.13683 0.0
C4692 C 0.0514 0.63969 0.13703 0.0
C4693 C 0.04249 0.6389 0.13336 0.0
C4694 C 0.03886 0.63019 0.13127 0.0
C4695 C 0.04413 0.62233 0.13301 0.0
N4696 N 0.02997 0.62899 0.12738 0.0
C4697 C 0.02376 0.63601 0.12556 0.0
H4698 H 0.13917 0.31093 0.89156 0.0
H4699 H 0.12641 0.28611 0.88209 0.0
H4700 H 0.15591 0.28886 0.88134 0.0
C4701 C 0.13979 0.30418 0.8885 0.0
C4702 C 0.14856 0.3006 0.88662 0.0
C4703 C 0.13179 0.29904 0.88685 0.0
C4704 C 0.13257 0.2901 0.88334 0.0
C4705 C 0.14132 0.28644 0.88132 0.0
C4706 C 0.14922 0.29172 0.88297 0.0
N4707 N 0.14252 0.27753 0.87759 0.0
C4708 C 0.13548 0.27129 0.87589 0.0
H4709 H 0.46105 0.38695 0.64169 0.0
H4710 H 0.48589 0.37433 0.63187 0.0
H4711 H 0.48311 0.4037 0.63132 0.0
C4712 C 0.46779 0.38759 0.63856 0.0
C4713 C 0.47137 0.39634 0.63669 0.0
C4714 C 0.47295 0.37964 0.6368 0.0
C4715 C 0.48189 0.38045 0.6332 0.0
C4716 C 0.48554 0.38918 0.63119 0.0
C4717 C 0.48025 0.39703 0.63294 0.0
N4718 N 0.49446 0.39039 0.62736 0.0
C4719 C 0.50066 0.38338 0.62552 0.0
H4720 H 0.13084 0.38238 0.31113 0.0
H4721 H 0.14076 0.39455 0.28615 0.0
H4722 H 0.14131 0.36525 0.2895 0.0
C4723 C 0.13399 0.38162 0.30443 0.0
C4724 C 0.13587 0.37281 0.30104 0.0
C4725 C 0.13578 0.38948 0.29915 0.0
C4726 C 0.1394 0.38851 0.29025 0.0
C4727 C 0.14142 0.37971 0.28679 0.0
C4728 C 0.13966 0.37197 0.29221 0.0
N4729 N 0.14527 0.37829 0.27795 0.0
C4730 C 0.14699 0.38508 0.27147 0.0
H4731 H 0.38913 0.37836 0.06174 0.0
H4732 H 0.37639 0.38811 0.03701 0.0
H4733 H 0.4059 0.38869 0.0397 0.0
C4734 C 0.38977 0.38147 0.05501 0.0
C4735 C 0.39854 0.38334 0.05142 0.0
C4736 C 0.38176 0.38322 0.0499 0.0
C4737 C 0.38256 0.3868 0.04098 0.0
C4738 C 0.39131 0.3888 0.03731 0.0
C4739 C 0.39921 0.38706 0.04256 0.0
N4740 N 0.39252 0.39261 0.02842 0.0
C4741 C 0.38548 0.3944 0.02222 0.0
H4742 H 0.3931 0.63693 0.81151 0.0
H4743 H 0.38327 0.62428 0.78677 0.0
H4744 H 0.38254 0.65363 0.7896 0.0
C4745 C 0.38994 0.63756 0.80481 0.0
C4746 C 0.38799 0.64629 0.80127 0.0
C4747 C 0.38821 0.6296 0.79967 0.0
C4748 C 0.38457 0.6304 0.79077 0.0
C4749 C 0.3825 0.63912 0.78715 0.0
C4750 C 0.38422 0.64697 0.79242 0.0
N4751 N 0.37866 0.64032 0.77827 0.0
C4752 C 0.37687 0.63331 0.77206 0.0
H4753 H 0.13498 0.64335 0.56019 0.0
H4754 H 0.14803 0.63122 0.53667 0.0
H4755 H 0.11843 0.63198 0.53858 0.0
C4756 C 0.13445 0.63992 0.55362 0.0
C4757 C 0.12573 0.63807 0.54993 0.0
C4758 C 0.1425 0.63741 0.54892 0.0
C4759 C 0.14182 0.6331 0.54032 0.0
C4760 C 0.13309 0.63104 0.53663 0.0
C4761 C 0.12512 0.63348 0.5415 0.0
N4762 N 0.13197 0.62651 0.52807 0.0
C4763 C 0.13905 0.62457 0.52194 0.0
H4764 H 0.13008 0.63669 0.2094 0.0
H4765 H 0.13971 0.62399 0.23419 0.0
H4766 H 0.14038 0.65336 0.23146 0.0
C4767 C 0.13317 0.63731 0.21614 0.0
C4768 C 0.13505 0.64604 0.21972 0.0
C4769 C 0.13487 0.62934 0.22127 0.0
C4770 C 0.13842 0.63013 0.2302 0.0
C4771 C 0.14044 0.63884 0.23387 0.0
C4772 C 0.13874 0.64671 0.2286 0.0
N4773 N 0.14421 0.64003 0.24278 0.0
C4774 C 0.14602 0.63301 0.24897 0.0
H4775 H 0.13463 0.37825 0.9587 0.0
H4776 H 0.14729 0.38776 0.98356 0.0
H4777 H 0.11781 0.38862 0.98067 0.0
C4778 C 0.13398 0.38134 0.96544 0.0
C4779 C 0.1252 0.38327 0.96897 0.0
C4780 C 0.14197 0.38298 0.97061 0.0
C4781 C 0.14115 0.38653 0.97954 0.0
C4782 C 0.13239 0.3886 0.98316 0.0
C4783 C 0.12451 0.38695 0.97785 0.0
N4784 N 0.13115 0.39236 0.99206 0.0
C4785 C 0.13817 0.39416 0.99828 0.0
H4786 H 0.39374 0.38283 0.7089 0.0
H4787 H 0.3839 0.39512 0.73384 0.0
H4788 H 0.38333 0.3658 0.73065 0.0
C4789 C 0.39061 0.38209 0.71561 0.0
C4790 C 0.38874 0.37331 0.71906 0.0
C4791 C 0.38883 0.38998 0.72085 0.0
C4792 C 0.38524 0.38906 0.72976 0.0
C4793 C 0.38323 0.38028 0.73328 0.0
C4794 C 0.38497 0.37251 0.7279 0.0
N4795 N 0.37939 0.3789 0.74214 0.0
C4796 C 0.37773 0.38569 0.74861 0.0
H4797 H 0.38929 0.64342 0.4602 0.0
H4798 H 0.37633 0.631 0.48364 0.0
H4799 H 0.40592 0.63183 0.48163 0.0
C4800 C 0.38984 0.63991 0.46674 0.0
C4801 C 0.39857 0.63804 0.47037 0.0
C4802 C 0.38181 0.63734 0.47143 0.0
C4803 C 0.38253 0.63294 0.47998 0.0
C4804 C 0.39127 0.63085 0.48362 0.0
C4805 C 0.39922 0.63335 0.47875 0.0
N4806 N 0.39242 0.62622 0.49212 0.0
C4807 C 0.38537 0.6242 0.49826 0.0
H4808 H 0.31246 0.12574 0.38289 0.0
H4809 H 0.28902 0.13818 0.3959 0.0
H4810 H 0.29112 0.13776 0.36641 0.0
C4811 C 0.30593 0.12931 0.38236 0.0
C4812 C 0.30233 0.13134 0.37368 0.0
C4813 C 0.30121 0.13181 0.39038 0.0
C4814 C 0.29268 0.13629 0.38971 0.0
C4815 C 0.28908 0.13855 0.38101 0.0
C4816 C 0.29397 0.13612 0.37307 0.0
N4817 N 0.2806 0.14327 0.37992 0.0
C4818 C 0.27442 0.14517 0.38695 0.0
H4819 H 0.80933 0.39793 0.63861 0.0
H4820 H 0.7889 0.38178 0.62465 0.0
H4821 H 0.79161 0.38004 0.65401 0.0
C4822 C 0.80363 0.39313 0.63884 0.0
C4823 C 0.80091 0.38946 0.64731 0.0
C4824 C 0.79941 0.39037 0.63063 0.0
C4825 C 0.7922 0.38393 0.63095 0.0
C4826 C 0.78935 0.38024 0.63943 0.0
C4827 C 0.79382 0.38292 0.64752 0.0
N4828 N 0.78209 0.37376 0.6401 0.0
C4829 C 0.77554 0.37222 0.63332 0.0
H4830 H 0.38186 0.06082 0.3873 0.0
H4831 H 0.39127 0.036 0.37453 0.0
H4832 H 0.39251 0.03887 0.4039 0.0
C4833 C 0.38498 0.0541 0.3879 0.0
C4834 C 0.38703 0.05056 0.39661 0.0
C4835 C 0.38653 0.04893 0.37991 0.0
C4836 C 0.39011 0.04002 0.38067 0.0
C4837 C 0.3923 0.0364 0.38937 0.0
C4838 C 0.39075 0.0417 0.39725 0.0
N4839 N 0.39609 0.0275 0.39053 0.0
C4840 C 0.39763 0.02125 0.3835 0.0
H4841 H 0.7146 0.62148 0.13869 0.0
H4842 H 0.73514 0.63762 0.12485 0.0
H4843 H 0.73238 0.63917 0.15422 0.0
C4844 C 0.72032 0.62625 0.13896 0.0
C4845 C 0.72305 0.62984 0.14745 0.0
C4846 C 0.72458 0.62905 0.13076 0.0
C4847 C 0.73182 0.63544 0.13114 0.0
C4848 C 0.73468 0.63905 0.13964 0.0
C4849 C 0.73017 0.63634 0.1477 0.0
N4850 N 0.74197 0.6455 0.14036 0.0
C4851 C 0.74852 0.64705 0.13358 0.0
H4852 H 0.64232 0.45857 0.3872 0.0
H4853 H 0.63277 0.48334 0.37444 0.0
H4854 H 0.6315 0.48043 0.4038 0.0
C4855 C 0.63916 0.46527 0.38779 0.0
C4856 C 0.63707 0.46878 0.39651 0.0
C4857 C 0.63759 0.47043 0.37981 0.0
C4858 C 0.63395 0.47933 0.38058 0.0
C4859 C 0.63172 0.48292 0.38928 0.0
C4860 C 0.63329 0.47762 0.39715 0.0
N4861 N 0.62786 0.49179 0.39044 0.0
C4862 C 0.62631 0.49806 0.38343 0.0
H4863 H 0.21182 0.89324 0.88242 0.0
H4864 H 0.23554 0.88123 0.89532 0.0
H4865 H 0.23369 0.88232 0.86583 0.0
C4866 C 0.21846 0.88988 0.88187 0.0
C4867 C 0.2222 0.88818 0.87317 0.0
C4868 C 0.22318 0.88734 0.88987 0.0
C4869 C 0.23187 0.88314 0.88915 0.0
C4870 C 0.23563 0.88124 0.88043 0.0
C4871 C 0.23072 0.8837 0.87251 0.0
N4872 N 0.24428 0.87685 0.87929 0.0
C4873 C 0.25042 0.87491 0.88635 0.0
H4874 H 0.38034 0.959 0.13301 0.0
H4875 H 0.39026 0.98398 0.14511 0.0
H4876 H 0.39069 0.98061 0.11578 0.0
C4877 C 0.38347 0.9657 0.13222 0.0
C4878 C 0.38531 0.96908 0.12339 0.0
C4879 C 0.38529 0.97098 0.14007 0.0
C4880 C 0.38889 0.97987 0.13907 0.0
C4881 C 0.39086 0.98333 0.13026 0.0
C4882 C 0.38907 0.9779 0.12252 0.0
N4883 N 0.39468 0.99217 0.1288 0.0
C4884 C 0.39648 0.99863 0.13558 0.0
H4885 H 0.14325 0.06076 0.63316 0.0
H4886 H 0.13333 0.03583 0.64537 0.0
H4887 H 0.13279 0.03913 0.61604 0.0
C4888 C 0.1401 0.05407 0.6324 0.0
C4889 C 0.13822 0.05067 0.62359 0.0
C4890 C 0.13831 0.04881 0.64028 0.0
C4891 C 0.13469 0.03992 0.63932 0.0
C4892 C 0.13267 0.03645 0.63052 0.0
C4893 C 0.13444 0.04185 0.62276 0.0
N4894 N 0.12882 0.02761 0.62911 0.0
C4895 C 0.12706 0.02116 0.63592 0.0
C4896 C 0.01838 0.15223 0.39405 0.0
C4897 C 0.02183 0.15323 0.40303 0.0
H4898 H 1.00811 0.14608 0.38541 0.0
C4899 C 0.01704 0.14907 0.41032 0.0
H4900 H 0.02195 0.15524 0.38826 0.0
C4901 C 1.00915 0.14382 0.40864 0.0
C4902 C 1.00592 0.14267 0.39967 0.0
H4903 H 0.01942 0.1498 0.41732 0.0
H4904 H 1.0057 0.1405 0.41434 0.0
C4905 C 1.01049 0.14698 0.39239 0.0
C4906 C 0.12277 0.7655 0.65874 0.0
C4907 C 0.11847 0.77042 0.65161 0.0
H4908 H 0.13157 0.75425 0.66236 0.0
C4909 C 0.11945 0.76725 0.64254 0.0
H4910 H 0.12206 0.76768 0.6658 0.0
C4911 C 0.12483 0.75953 0.64061 0.0
C4912 C 0.12928 0.75484 0.64772 0.0
H4913 H 0.11634 0.77092 0.63688 0.0
H4914 H 0.12573 0.75738 0.63355 0.0
C4915 C 0.12814 0.75779 0.6568 0.0
C4916 C 0.50035 0.87735 0.90177 0.0
C4917 C 0.50081 0.86774 0.9011 0.0
H4918 H 0.50749 0.89013 0.90031 0.0
C4919 C 0.50918 0.86367 0.89839 0.0
H4920 H 0.494 0.88073 0.90368 0.0
C4921 C 0.5169 0.8691 0.8964 0.0
C4922 C 0.51632 0.87866 0.89708 0.0
H4923 H 0.50979 0.85629 0.89787 0.0
H4924 H 0.52327 0.86585 0.89433 0.0
C4925 C 0.50804 0.88274 0.89979 0.0
C4926 C 0.39444 0.24753 0.15105 0.0
C4927 C 0.40409 0.24811 0.15159 0.0
H4928 H 0.38175 0.25459 0.14854 0.0
C4929 C 0.40835 0.25663 0.14988 0.0
H4930 H 0.39094 0.24106 0.15215 0.0
C4931 C 0.40305 0.26437 0.14775 0.0
C4932 C 0.39344 0.26368 0.14726 0.0
H4933 H 0.41576 0.25733 0.15031 0.0
H4934 H 0.40643 0.27088 0.14651 0.0
C4935 C 0.38918 0.25524 0.14891 0.0
C4936 C 0.02331 0.87698 0.11823 0.0
C4937 C 0.0229 0.86734 0.11817 0.0
H4938 H 0.01592 0.88959 0.11989 0.0
C4939 C 0.01438 0.86305 0.11989 0.0
H4940 H 0.02977 0.88051 0.1171 0.0
C4941 C 1.00646 0.86829 0.12155 0.0
C4942 C 1.00697 0.87787 0.12155 0.0
H4943 H 0.0138 0.85565 0.11982 0.0
H4944 H 0.99996 0.86486 0.12279 0.0
C4945 C 0.01542 0.88218 0.11989 0.0
C4946 C 0.39489 0.7722 0.36912 0.0
C4947 C 0.40456 0.77163 0.3688 0.0
H4948 H 0.38215 0.7651 0.37129 0.0
C4949 C 0.40878 0.76311 0.37057 0.0
H4950 H 0.39142 0.77867 0.36797 0.0
C4951 C 0.40343 0.75535 0.37254 0.0
C4952 C 0.39381 0.75603 0.3728 0.0
H4953 H 0.4162 0.76242 0.37031 0.0
H4954 H 0.40679 0.74885 0.37382 0.0
C4955 C 0.38959 0.76447 0.37109 0.0
C4956 C 0.50575 0.14899 0.612 0.0
C4957 C 0.50077 0.15329 0.61908 0.0
H4958 H 0.51699 0.1401 0.60847 0.0
C4959 C 0.50381 0.15222 0.62819 0.0
H4960 H 0.50368 0.14976 0.60491 0.0
C4961 C 0.51147 0.14676 0.63019 0.0
C4962 C 0.51622 0.14231 0.62312 0.0
H4963 H 0.50008 0.15534 0.63382 0.0
H4964 H 0.51352 0.14581 0.63727 0.0
C4965 C 0.51341 0.14354 0.61401 0.0
C4966 C 0.11944 0.25147 0.8791 0.0
C4967 C 0.11842 0.24832 0.87002 0.0
H4968 H 0.1257 0.26137 0.88806 0.0
C4969 C 0.12261 0.2533 0.86288 0.0
H4970 H 0.11641 0.24775 0.88477 0.0
C4971 C 0.12792 0.26107 0.86479 0.0
C4972 C 0.12911 0.26399 0.87387 0.0
H4973 H 0.12187 0.25114 0.85581 0.0
H4974 H 0.13129 0.26465 0.85921 0.0
C4975 C 0.12476 0.25924 0.881 0.0
C4976 C 0.40382 0.02212 0.14263 0.0
C4977 C 0.40303 0.02173 0.15224 0.0
H4978 H 0.40231 0.015 0.12985 0.0
C4979 C 0.40007 0.01349 0.15633 0.0
H4980 H 0.40592 0.02839 0.13923 0.0
C4981 C 0.39794 1.00583 0.15091 0.0
C4982 C 0.39873 1.00634 0.14135 0.0
H4983 H 0.39946 0.01293 0.16371 0.0
H4984 H 0.39566 0.99956 0.15418 0.0
C4985 C 0.4017 0.01449 0.13725 0.0
C4986 C 0.25654 0.15843 0.39979 0.0
C4987 C 0.25161 0.15138 0.4042 0.0
H4988 H 0.26778 0.16192 0.39087 0.0
C4989 C 0.25478 0.14229 0.40332 0.0
H4990 H 0.25437 0.1655 0.40042 0.0
C4991 C 0.26249 0.14029 0.39792 0.0
C4992 C 0.26718 0.14733 0.39336 0.0
H4993 H 0.25109 0.13668 0.40651 0.0
H4994 H 0.26462 0.13322 0.3971 0.0
C4995 C 0.26425 0.15641 0.3944 0.0
C4996 C 0.12349 1.0064 0.65675 0.0
C4997 C 0.12062 0.99811 0.6527 0.0
H4998 H 0.12779 0.02035 0.65453 0.0
C4999 C 0.11989 0.99765 0.64308 0.0
H5000 H 0.12405 1.00701 0.66413 0.0
C5001 C 0.12199 1.00526 0.63767 0.0
C5002 C 0.12486 0.01347 0.64173 0.0
H5003 H 0.11787 0.99135 0.63972 0.0
H5004 H 0.12142 1.00471 0.63027 0.0
C5005 C 0.12559 0.01404 0.65129 0.0
C5006 C 0.2699 0.87773 0.90289 0.0
C5007 C 0.27303 0.86864 0.90382 0.0
H5008 H 0.26016 0.88683 0.89657 0.0
C5009 C 0.26813 0.8616 0.89936 0.0
H5010 H 0.27357 0.88333 0.90612 0.0
C5011 C 0.26048 0.86364 0.8939 0.0
C5012 C 0.2576 0.87273 0.89281 0.0
H5013 H 0.27026 0.85452 0.90002 0.0
H5014 H 0.25697 0.85814 0.89034 0.0
C5015 C 0.26226 0.87976 0.89742 0.0
C5016 C 0.39396 1.00151 0.36752 0.0
C5017 C 0.40305 0.99845 0.3661 0.0
H5018 H 0.38514 0.01127 0.37419 0.0
C5019 C 0.41034 1.00345 0.37005 0.0
H5020 H 0.38819 0.99777 0.36468 0.0
C5021 C 0.40855 0.01115 0.37549 0.0
C5022 C 0.39948 0.01398 0.37705 0.0
H5023 H 0.41741 1.00137 0.369 0.0
H5024 H 0.41426 0.01476 0.37864 0.0
C5025 C 0.3922 1.00921 0.37296 0.0
C5026 C 0.26967 0.14167 0.61749 0.0
C5027 C 0.27283 0.15076 0.61659 0.0
H5028 H 0.25988 0.13258 0.62377 0.0
C5029 C 0.26794 0.1578 0.62106 0.0
H5030 H 0.27333 0.13607 0.61425 0.0
C5031 C 0.26027 0.15576 0.62651 0.0
C5032 C 0.25735 0.14667 0.62756 0.0
H5033 H 0.27009 0.16488 0.62042 0.0
H5034 H 0.25676 0.16126 0.63008 0.0
C5035 C 0.26201 0.13965 0.62294 0.0
C5036 C 0.12511 0.01351 0.86368 0.0
C5037 C 0.12234 0.02182 0.86777 0.0
H5038 H 0.12927 0.99951 0.86585 0.0
C5039 C 0.12169 0.02227 0.87739 0.0
H5040 H 0.1256 0.01291 0.8563 0.0
C5041 C 0.12375 0.01463 0.88278 0.0
C5042 C 0.12649 1.0064 0.87868 0.0
H5043 H 0.11975 0.02858 0.88078 0.0
H5044 H 0.12323 0.01518 0.89018 0.0
C5045 C 0.12717 1.00584 0.86911 0.0
C5046 C 0.25431 0.87758 0.11757 0.0
C5047 C 0.25111 0.8685 0.11675 0.0
H5048 H 0.26417 0.88666 0.12376 0.0
C5049 C 0.25597 0.86146 0.12123 0.0
H5050 H 0.25067 0.88318 0.11432 0.0
C5051 C 0.26366 0.86349 0.12663 0.0
C5052 C 0.26663 0.87257 0.12762 0.0
H5053 H 0.25378 0.85439 0.12064 0.0
H5054 H 0.26716 0.85799 0.13022 0.0
C5055 C 0.262 0.87959 0.12298 0.0
C5056 C 0.15093 0.40744 0.01617 0.0
C5057 C 0.15527 0.4004 0.02114 0.0
H5058 H 0.14211 0.41092 1.00487 0.0
C5059 C 0.15438 0.3913 0.01803 0.0
H5060 H 0.15157 0.41453 0.0183 0.0
C5061 C 0.14904 0.38928 0.0103 0.0
C5062 C 0.14454 0.39632 1.00556 0.0
H5063 H 0.15754 0.3857 0.02175 0.0
H5064 H 0.14821 0.38221 1.0082 0.0
C5065 C 0.14559 0.40541 1.00845 0.0
C5066 C 0.65464 0.12791 1.00243 0.0
C5067 C 0.65561 0.1188 0.99937 0.0
H5068 H 0.64838 0.13701 0.0122 0.0
C5069 C 0.65134 0.11175 1.00441 0.0
H5070 H 0.65772 0.13352 0.99866 0.0
C5071 C 0.646 0.11379 0.01214 0.0
C5072 C 0.64485 0.12289 0.01496 0.0
H5073 H 0.65205 0.10466 1.00233 0.0
H5074 H 0.64257 0.10827 0.01576 0.0
C5075 C 0.64928 0.12993 1.01015 0.0
C5076 C 0.15406 0.39226 0.24791 0.0
C5077 C 0.1533 0.40186 0.24837 0.0
H5078 H 0.15259 0.37945 0.25497 0.0
C5079 C 0.15044 0.4059 0.25668 0.0
H5080 H 0.15608 0.3889 0.24159 0.0
C5081 C 0.14838 0.40044 0.26433 0.0
C5082 C 0.14914 0.39089 0.26376 0.0
H5083 H 0.14986 0.41327 0.2573 0.0
H5084 H 0.14619 0.40366 0.27066 0.0
C5085 C 0.152 0.38684 0.25553 0.0
C5086 C 0.86947 0.89185 0.50218 0.0
C5087 C 0.8686 0.90093 0.49902 0.0
H5088 H 0.87569 0.88277 0.51199 0.0
C5089 C 0.87303 0.90798 0.50393 0.0
H5090 H 0.86626 0.88624 0.49852 0.0
C5091 C 0.87843 0.90596 0.51161 0.0
C5092 C 0.87946 0.89687 0.51453 0.0
H5093 H 0.8724 0.91506 0.50177 0.0
H5094 H 0.88197 0.91146 0.51513 0.0
C5095 C 0.87488 0.88984 0.50986 0.0
C5096 C 0.87063 0.12686 0.24796 0.0
C5097 C 0.87107 0.11724 0.24848 0.0
H5098 H 0.87221 0.13964 0.25504 0.0
C5099 C 0.87353 0.11315 0.25689 0.0
H5100 H 0.86893 0.13025 0.24158 0.0
C5101 C 0.87547 0.11858 0.2646 0.0
C5102 C 0.875 0.12815 0.26397 0.0
H5103 H 0.87386 0.10577 0.25755 0.0
H5104 H 0.87732 0.11531 0.27101 0.0
C5105 C 0.87257 0.13225 0.25564 0.0
C5106 C 0.3689 0.62675 0.51785 0.0
C5107 C 0.36812 0.61763 0.52094 0.0
H5108 H 0.37503 0.63597 0.50809 0.0
C5109 C 0.37262 0.61067 0.51599 0.0
H5110 H 0.36563 0.6323 0.52155 0.0
C5111 C 0.37801 0.61281 0.50831 0.0
C5112 C 0.37895 0.62192 0.50545 0.0
H5113 H 0.37207 0.60357 0.5181 0.0
H5114 H 0.38161 0.60736 0.50475 0.0
C5115 C 0.37429 0.62887 0.51017 0.0
C5116 C 0.15935 0.61999 0.26663 0.0
C5117 C 0.15225 0.61577 0.27168 0.0
H5118 H 0.16286 0.62874 0.25531 0.0
C5119 C 0.14309 0.61686 0.2687 0.0
H5120 H 0.16647 0.6192 0.26865 0.0
C5121 C 0.14107 0.62225 0.26103 0.0
C5122 C 0.14816 0.62661 0.2562 0.0
H5123 H 0.13745 0.61381 0.27249 0.0
H5124 H 0.13395 0.62323 0.25903 0.0
C5125 C 0.1573 0.62537 0.25895 0.0
C5126 C 0.37122 0.39267 0.77239 0.0
C5127 C 0.37145 0.4023 0.77185 0.0
H5128 H 0.37309 0.37991 0.76534 0.0
C5129 C 0.37381 0.40642 0.76342 0.0
H5130 H 0.36959 0.38926 0.77879 0.0
C5131 C 0.37588 0.40102 0.75573 0.0
C5132 C 0.37563 0.39144 0.75638 0.0
H5133 H 0.37399 0.41381 0.76275 0.0
H5134 H 0.37767 0.40431 0.7493 0.0
C5135 C 0.37328 0.38731 0.76473 0.0
C5136 C 1.00705 0.86963 0.61024 0.0
C5137 C 1.00216 0.86569 0.61759 0.0
H5138 H 0.01843 0.87807 0.6061 0.0
C5139 C 1.00546 0.86701 0.62658 0.0
H5140 H 1.00478 0.86865 0.60323 0.0
C5141 C 0.01332 0.87234 0.62818 0.0
C5142 C 0.018 0.8764 0.62083 0.0
H5143 H 1.00182 0.86418 0.63241 0.0
H5144 H 0.0156 0.87346 0.63517 0.0
C5145 C 0.0149 0.87495 0.61185 0.0
C5146 C 0.90218 0.25406 0.36112 0.0
C5147 C 0.90659 0.2492 0.36821 0.0
H5148 H 0.89326 0.26525 0.35756 0.0
C5149 C 0.90572 0.25241 0.37728 0.0
H5150 H 0.9028 0.25186 0.35406 0.0
C5151 C 0.90033 0.26012 0.37924 0.0
C5152 C 0.89576 0.26474 0.37217 0.0
H5153 H 0.90892 0.24878 0.38292 0.0
H5154 H 0.89951 0.26229 0.3863 0.0
C5155 C 0.89679 0.26177 0.3631 0.0
C5156 C 0.51808 0.15329 0.12607 0.0
C5157 C 0.52149 0.15447 0.1171 0.0
H5158 H 0.50788 0.14694 0.13467 0.0
C5159 C 0.51667 0.15043 0.10976 0.0
H5160 H 0.52167 0.15621 0.13189 0.0
C5161 C 0.50882 0.14512 0.11139 0.0
C5162 C 0.50563 0.14379 0.12035 0.0
H5163 H 0.51902 0.1513 0.10276 0.0
H5164 H 0.50535 0.1419 0.10565 0.0
C5165 C 0.51022 0.14797 0.12768 0.0
C5166 C 0.61856 0.76755 0.87802 0.0
C5167 C 0.61743 0.77053 0.86889 0.0
H5168 H 0.62501 0.7579 0.88711 0.0
C5169 C 0.62164 0.76548 0.86181 0.0
H5170 H 0.61552 0.77132 0.88365 0.0
C5171 C 0.62707 0.75782 0.86383 0.0
C5172 C 0.62836 0.75507 0.87294 0.0
H5173 H 0.62081 0.7675 0.85471 0.0
H5174 H 0.63044 0.75419 0.85828 0.0
C5175 C 0.624 0.75989 0.88002 0.0
C5176 C 1.00873 0.15623 0.89725 0.0
C5177 C 1.00075 0.15248 0.90129 0.0
H5178 H 0.02222 0.1536 0.89172 0.0
C5179 C 1.00049 0.143 0.90305 0.0
H5180 H 1.0092 0.16351 0.89588 0.0
C5181 C 1.00794 0.13741 0.90073 0.0
C5182 C 0.01578 0.14116 0.8966 0.0
H5183 H 0.99443 0.13983 0.90599 0.0
H5184 H 1.0075 0.13011 0.90203 0.0
C5185 C 0.01619 0.1506 0.89491 0.0
C5186 C 0.62189 0.25381 0.65837 0.0
C5187 C 0.61776 0.24881 0.65121 0.0
H5188 H 0.63065 0.26509 0.66206 0.0
C5189 C 0.619 0.25185 0.64212 0.0
H5190 H 0.62098 0.25175 0.66545 0.0
C5191 C 0.62446 0.25952 0.64022 0.0
C5192 C 0.62874 0.26429 0.64737 0.0
H5193 H 0.61602 0.2481 0.63643 0.0
H5194 H 0.62555 0.26156 0.63315 0.0
C5195 C 0.62734 0.26149 0.65645 0.0
C5196 C 0.51474 0.86296 0.39926 0.0
C5197 C 0.52289 0.86686 0.40278 0.0
H5198 H 0.50094 0.86536 0.39445 0.0
C5199 C 0.52319 0.87639 0.40422 0.0
H5200 H 0.51424 0.85564 0.39814 0.0
C5201 C 0.51559 0.88188 0.40216 0.0
C5202 C 0.50755 0.87797 0.39861 0.0
H5203 H 0.52938 0.87967 0.40675 0.0
H5204 H 0.51605 0.88921 0.40325 0.0
C5205 C 0.50712 0.86849 0.3972 0.0
C5206 C 0.9019 0.76527 0.15903 0.0
C5207 C 0.90629 0.77017 0.15195 0.0
H5208 H 0.89297 0.75407 0.16258 0.0
C5209 C 0.90536 0.76702 0.14286 0.0
H5210 H 0.90257 0.76742 0.16611 0.0
C5211 C 0.89993 0.75934 0.14089 0.0
C5212 C 0.89538 0.75468 0.14795 0.0
H5213 H 0.90855 0.77068 0.13723 0.0
H5214 H 0.89907 0.75722 0.13381 0.0
C5215 C 0.89648 0.75759 0.15704 0.0
C5216 C 0.6137 1.00433 0.86985 0.0
C5217 C 0.62086 0.99943 0.86556 0.0
H5218 H 0.61003 0.01549 0.87873 0.0
C5219 C 0.62997 1.00255 0.86665 0.0
H5220 H 0.6066 1.0022 0.86906 0.0
C5221 C 0.63189 0.0102 0.87212 0.0
C5222 C 0.62474 0.01486 0.87655 0.0
H5223 H 0.63566 0.99889 0.86354 0.0
H5224 H 0.63898 0.0123 0.87309 0.0
C5225 C 0.61563 0.01197 0.87531 0.0
C5226 C 0.76952 0.87757 0.61699 0.0
C5227 C 0.77263 0.86849 0.61589 0.0
H5228 H 0.75971 0.88655 0.62339 0.0
C5229 C 0.76765 0.86136 0.62012 0.0
H5230 H 0.77324 0.88323 0.61393 0.0
C5231 C 0.75994 0.8633 0.62553 0.0
C5232 C 0.75706 0.87237 0.62679 0.0
H5233 H 0.76977 0.85429 0.61932 0.0
H5234 H 0.75636 0.85773 0.62891 0.0
C5235 C 0.7618 0.87949 0.62241 0.0
C5236 C 0.90061 0.01316 0.36293 0.0
C5237 C 0.90351 0.02146 0.36696 0.0
H5238 H 0.89631 0.99921 0.36519 0.0
C5239 C 0.90428 0.02192 0.37657 0.0
H5240 H 0.90002 0.01254 0.35555 0.0
C5241 C 0.90221 0.01432 0.382 0.0
C5242 C 0.89931 1.00611 0.37797 0.0
H5243 H 0.90633 0.02823 0.37992 0.0
H5244 H 0.90281 0.01488 0.38939 0.0
C5245 C 0.89853 1.00553 0.36841 0.0
C5246 C 0.75475 0.14234 0.11705 0.0
C5247 C 0.75161 0.15143 0.11611 0.0
H5248 H 0.7645 0.13327 0.12339 0.0
C5249 C 0.7565 0.15848 0.12056 0.0
H5250 H 0.75109 0.13673 0.11383 0.0
C5251 C 0.76415 0.15646 0.12603 0.0
C5252 C 0.76704 0.14737 0.12712 0.0
H5253 H 0.75436 0.16556 0.11988 0.0
H5254 H 0.76765 0.16197 0.12957 0.0
C5255 C 0.76239 0.14034 0.12253 0.0
C5256 C 0.61331 0.01538 0.65081 0.0
C5257 C 0.62044 0.02038 0.65502 0.0
H5258 H 0.60972 1.00408 0.64207 0.0
C5259 C 0.62958 0.01732 0.65394 0.0
H5260 H 0.6062 0.01747 0.65159 0.0
C5261 C 0.63155 1.00962 0.64856 0.0
C5262 C 0.62443 1.00485 0.6442 0.0
H5263 H 0.63525 0.02106 0.65698 0.0
H5264 H 0.63865 1.00757 0.64758 0.0
C5265 C 0.6153 1.00768 0.64544 0.0
C5266 C 0.75647 0.86147 0.39992 0.0
C5267 C 0.75145 0.86857 0.40414 0.0
H5268 H 0.76777 0.85789 0.39111 0.0
C5269 C 0.75449 0.87767 0.403 0.0
H5270 H 0.75441 0.85439 0.40075 0.0
C5271 C 0.76218 0.87963 0.39755 0.0
C5272 C 0.76697 0.87254 0.39319 0.0
H5273 H 0.75074 0.88331 0.40605 0.0
H5274 H 0.76422 0.88671 0.39653 0.0
C5275 C 0.76416 0.86345 0.39448 0.0
C5276 C 0.9054 0.9981 0.14377 0.0
C5277 C 0.90432 0.99851 0.15335 0.0
H5278 H 0.90425 1.00519 0.13094 0.0
C5279 C 0.90122 1.00676 0.15733 0.0
H5280 H 0.9076 0.99184 0.14045 0.0
C5281 C 0.89924 0.0144 0.15183 0.0
C5282 C 0.90031 0.01387 0.1423 0.0
H5283 H 0.90039 1.00733 0.16469 0.0
H5284 H 0.89685 0.02067 0.15502 0.0
C5285 C 0.90342 1.00571 0.13831 0.0
C5286 C 0.7674 0.15837 0.90074 0.0
C5287 C 0.77243 0.15125 0.9049 0.0
H5288 H 0.75612 0.16199 0.89194 0.0
C5289 C 0.76942 0.14215 0.90369 0.0
H5290 H 0.76945 0.16545 0.90162 0.0
C5291 C 0.76175 0.14021 0.89821 0.0
C5292 C 0.75696 0.14733 0.89389 0.0
H5293 H 0.77318 0.13649 0.90669 0.0
H5294 H 0.75973 0.13314 0.89713 0.0
C5295 C 0.75974 0.15642 0.89527 0.0
C5296 C 0.87151 0.61127 1.00466 0.0
C5297 C 0.86728 0.61836 0.99964 0.0
H5298 H 0.88027 0.60772 0.01598 0.0
C5299 C 0.86831 0.62745 1.00272 0.0
H5300 H 0.87076 0.60419 1.00256 0.0
C5301 C 0.87369 0.62943 0.01044 0.0
C5302 C 0.87807 0.62235 0.01522 0.0
H5303 H 0.86525 0.63309 0.99897 0.0
H5304 H 0.87463 0.6365 0.0125 0.0
C5305 C 0.87687 0.61326 0.01238 0.0
C5306 C 0.36526 0.89842 0.01307 0.0
C5307 C 0.36936 0.9013 0.02135 0.0
H5308 H 0.36742 0.89415 0.99909 0.0
C5309 C 0.37901 0.90209 0.02173 0.0
H5310 H 0.35785 0.89781 0.01252 0.0
C5311 C 0.3844 0.90004 0.01407 0.0
C5312 C 0.38029 0.89716 1.00589 0.0
H5313 H 0.38242 0.90412 0.02801 0.0
H5314 H 0.39183 0.90066 0.01457 0.0
C5315 C 0.37069 0.89636 1.00538 0.0
C5316 C 0.86975 0.62656 0.77169 0.0
C5317 C 0.87068 0.61697 0.77126 0.0
H5318 H 0.871 0.63937 0.76459 0.0
C5319 C 0.8736 0.61297 0.76295 0.0
H5320 H 0.86769 0.6299 0.778 0.0
C5321 C 0.87556 0.61844 0.75529 0.0
C5322 C 0.87463 0.62798 0.75584 0.0
H5323 H 0.87431 0.6056 0.76236 0.0
H5324 H 0.8778 0.61523 0.74896 0.0
C5325 C 0.87171 0.632 0.76405 0.0
C5326 C 0.15521 0.12708 0.51756 0.0
C5327 C 0.15635 0.11802 0.52069 0.0
H5328 H 0.14878 0.136 0.50773 0.0
C5329 C 0.1522 0.11085 0.51572 0.0
H5330 H 0.1582 0.13277 0.52128 0.0
C5331 C 0.14681 0.11273 0.508 0.0
C5332 C 0.1455 0.12179 0.5051 0.0
H5333 H 0.15303 0.10379 0.51785 0.0
H5334 H 0.14348 0.10713 0.50442 0.0
C5335 C 0.14981 0.12895 0.50984 0.0
C5336 C 0.15375 0.89301 0.77192 0.0
C5337 C 0.15349 0.90263 0.77136 0.0
H5338 H 0.152 0.88023 0.76488 0.0
C5339 C 0.15118 0.90673 0.76291 0.0
H5340 H 0.15533 0.88961 0.77834 0.0
C5341 C 0.14921 0.90131 0.75521 0.0
C5342 C 0.1495 0.89174 0.75588 0.0
H5343 H 0.15099 0.91411 0.76223 0.0
H5344 H 0.14748 0.90458 0.74877 0.0
C5345 C 0.15178 0.88762 0.76425 0.0
C5346 C 0.65573 0.39214 0.5023 0.0
C5347 C 0.65672 0.40128 0.49936 0.0
H5348 H 0.64951 0.38292 0.512 0.0
C5349 C 0.65252 0.40828 0.50453 0.0
H5350 H 0.65877 0.38657 0.49843 0.0
C5351 C 0.64723 0.40615 0.51227 0.0
C5352 C 0.64607 0.39702 0.51498 0.0
H5353 H 0.65324 0.41539 0.50253 0.0
H5354 H 0.64385 0.41163 0.51599 0.0
C5355 C 0.65043 0.39003 0.51004 0.0
C5356 C 0.87514 0.40662 0.75638 0.0
C5357 C 0.87085 0.40284 0.74858 0.0
H5358 H 0.88085 0.40409 0.76977 0.0
C5359 C 0.86883 0.3934 0.74853 0.0
H5360 H 0.87671 0.41387 0.75669 0.0
C5361 C 0.87114 0.38789 0.75602 0.0
C5362 C 0.87551 0.39167 0.76368 0.0
H5363 H 0.86568 0.39021 0.74261 0.0
H5364 H 0.86964 0.38062 0.75574 0.0
C5365 C 0.87746 0.40107 0.76388 0.0
C5366 C 0.65561 0.62609 0.24866 0.0
C5367 C 0.65362 0.61665 0.24879 0.0
H5368 H 0.6551 0.63886 0.25591 0.0
C5369 C 0.64961 0.61286 0.25674 0.0
H5370 H 0.65853 0.62928 0.24262 0.0
C5371 C 0.64758 0.6184 0.26434 0.0
C5372 C 0.64953 0.6278 0.26408 0.0
H5373 H 0.64806 0.60561 0.25711 0.0
H5374 H 0.64445 0.61537 0.27037 0.0
C5375 C 0.65359 0.63159 0.25623 0.0
C5376 C 0.51962 0.65253 0.89225 0.0
C5377 C 0.52274 0.65342 0.90135 0.0
H5378 H 0.50984 0.6463 0.88312 0.0
C5379 C 0.5178 0.649 0.90839 0.0
H5380 H 0.52332 0.65574 0.88665 0.0
C5381 C 0.51011 0.64359 0.90633 0.0
C5382 C 0.50723 0.64255 0.89723 0.0
H5383 H 0.51993 0.64963 0.91548 0.0
H5384 H 0.50656 0.64006 0.91183 0.0
C5385 C 0.51193 0.64712 0.89021 0.0
C5386 C 0.61933 0.26771 0.14188 0.0
C5387 C 0.61831 0.27078 0.15099 0.0
H5388 H 0.62559 0.25791 0.13282 0.0
C5389 C 0.62251 0.26575 0.15808 0.0
H5390 H 0.61629 0.27148 0.13625 0.0
C5391 C 0.62783 0.25801 0.15608 0.0
C5392 C 0.62901 0.25516 0.14698 0.0
H5393 H 0.62177 0.26784 0.16517 0.0
H5394 H 0.6312 0.25438 0.16163 0.0
C5395 C 0.62465 0.25997 0.1399 0.0
C5396 C 1.00454 0.36707 0.3924 0.0
C5397 C 1.00136 0.36624 0.4015 0.0
H5398 H 0.01437 0.37326 0.38328 0.0
C5399 C 1.00625 0.37072 0.40853 0.0
H5400 H 1.00088 0.36383 0.3868 0.0
C5401 C 0.01394 0.37612 0.40647 0.0
C5402 C 0.01688 0.37711 0.39738 0.0
H5403 H 1.00407 0.37013 0.41561 0.0
H5404 H 0.01745 0.3797 0.41197 0.0
C5405 C 0.01223 0.37248 0.39036 0.0
C5406 C 0.89479 0.74766 0.65093 0.0
C5407 C 0.90446 0.74818 0.65101 0.0
H5408 H 0.88205 0.75478 0.64891 0.0
C5409 C 0.90869 0.75665 0.649 0.0
H5410 H 0.8913 0.74124 0.65227 0.0
C5411 C 0.90334 0.7644 0.64701 0.0
C5412 C 0.89372 0.76377 0.64697 0.0
H5413 H 0.91611 0.7573 0.64907 0.0
H5414 H 0.90671 0.77086 0.64553 0.0
C5415 C 0.88949 0.75538 0.64894 0.0
C5416 C 0.52034 0.36707 0.62835 0.0
C5417 C 0.5234 0.36609 0.61923 0.0
H5418 H 0.5106 0.37339 0.63748 0.0
C5419 C 0.5184 0.37042 0.61218 0.0
H5420 H 0.52408 0.36394 0.63396 0.0
C5421 C 0.51072 0.37582 0.61424 0.0
C5422 C 0.50789 0.37697 0.62335 0.0
H5423 H 0.52048 0.3697 0.60509 0.0
H5424 H 0.50712 0.37928 0.60872 0.0
C5425 C 0.51266 0.37249 0.63039 0.0
C5426 C 0.90391 0.26863 0.87971 0.0
C5427 C 0.9053 0.27137 0.87055 0.0
H5428 H 0.89734 0.25909 0.88885 0.0
C5429 C 0.90146 0.26604 0.86348 0.0
H5430 H 0.90667 0.27262 0.88533 0.0
C5431 C 0.89612 0.25832 0.86553 0.0
C5432 C 0.89457 0.25579 0.87467 0.0
H5433 H 0.9025 0.26787 0.85635 0.0
H5434 H 0.89303 0.25445 0.85998 0.0
C5435 C 0.89857 0.2609 0.88175 0.0
C5436 C 1.004 0.65221 0.12846 0.0
C5437 C 1.00093 0.6532 0.11935 0.0
H5438 H 0.01377 0.64593 0.13757 0.0
C5439 C 1.00596 0.64891 0.11228 0.0
H5440 H 1.00024 0.65531 0.13408 0.0
C5441 C 0.01367 0.64355 0.11432 0.0
C5442 C 0.0165 0.6424 0.12342 0.0
H5443 H 1.00387 0.64963 0.10519 0.0
H5444 H 0.01728 0.64012 0.10879 0.0
C5445 C 1.01171 0.64683 0.13048 0.0
C5446 C 0.61906 0.75199 0.37819 0.0
C5447 C 0.61817 0.74884 0.3691 0.0
H5448 H 0.62527 0.76182 0.38726 0.0
C5449 C 0.62256 0.75376 0.36203 0.0
H5450 H 0.61588 0.74832 0.38381 0.0
C5451 C 0.62793 0.76146 0.36404 0.0
C5452 C 0.62898 0.76438 0.37313 0.0
H5453 H 0.62192 0.7516 0.35495 0.0
H5454 H 0.63144 0.765 0.35851 0.0
C5455 C 0.62444 0.7597 0.38018 0.0
C5456 C 0.89365 0.51771 0.65267 0.0
C5457 C 0.90277 0.52076 0.6539 0.0
H5458 H 0.88468 0.50795 0.64619 0.0
C5459 C 0.90997 0.51574 0.64983 0.0
H5460 H 0.88794 0.52147 0.65561 0.0
C5461 C 0.90807 0.50803 0.64444 0.0
C5462 C 0.89896 0.50521 0.64306 0.0
H5463 H 0.91707 0.51781 0.65073 0.0
H5464 H 0.91371 0.50441 0.64118 0.0
C5465 C 0.89177 0.51 0.64727 0.0
C5466 C 0.75036 0.6524 0.89283 0.0
C5467 C 0.75072 0.65152 0.90243 0.0
H5468 H 0.75754 0.65095 0.88005 0.0
C5469 C 0.75897 0.64848 0.90651 0.0
H5470 H 0.7441 0.65455 0.88943 0.0
C5471 C 0.76666 0.64634 0.90108 0.0
C5472 C 0.76618 0.64722 0.89153 0.0
H5473 H 0.75951 0.6478 0.91389 0.0
H5474 H 0.77293 0.64399 0.90434 0.0
C5475 C 0.75802 0.65028 0.88744 0.0
C5476 C 0.621 0.4975 0.14293 0.0
C5477 C 0.62112 0.49804 0.15257 0.0
H5478 H 0.62281 0.5046 0.13018 0.0
C5479 C 0.62327 0.5065 0.15672 0.0
H5480 H 0.61954 0.49108 0.1395 0.0
C5481 C 0.62521 0.51423 0.15133 0.0
C5482 C 0.62505 0.51359 0.14175 0.0
H5483 H 0.62336 0.50717 0.16412 0.0
H5484 H 0.62681 0.52069 0.15465 0.0
C5485 C 0.62294 0.50521 0.13759 0.0
C5486 C 0.76761 0.361 0.39988 0.0
C5487 C 0.77255 0.36805 0.40427 0.0
H5488 H 0.75636 0.35753 0.39097 0.0
C5489 C 0.76941 0.37714 0.40337 0.0
H5490 H 0.76976 0.35392 0.40052 0.0
C5491 C 0.76171 0.37915 0.39798 0.0
C5492 C 0.75701 0.37212 0.39343 0.0
H5493 H 0.7731 0.38275 0.40656 0.0
H5494 H 0.75959 0.38623 0.39714 0.0
C5495 C 0.75991 0.36303 0.39449 0.0
C5496 C 0.89329 0.50175 0.8679 0.0
C5497 C 0.90237 0.49855 0.8668 0.0
H5498 H 0.88438 0.51164 0.87427 0.0
C5499 C 0.90959 0.50344 0.87099 0.0
H5500 H 0.88756 0.49809 0.86487 0.0
C5501 C 0.90773 0.51116 0.87638 0.0
C5502 C 0.89865 0.51413 0.87763 0.0
H5503 H 0.91666 0.50125 0.8702 0.0
H5504 H 0.91337 0.51468 0.87973 0.0
C5505 C 0.89145 0.50947 0.87329 0.0
C5506 C 0.7685 0.64329 0.11777 0.0
C5507 C 0.77188 0.65227 0.11671 0.0
H5508 H 0.7583 0.63461 0.12402 0.0
C5509 C 0.76705 0.65954 0.12084 0.0
H5510 H 0.7721 0.63752 0.11479 0.0
C5511 C 0.75919 0.65784 0.12613 0.0
C5512 C 0.75602 0.64886 0.12735 0.0
H5513 H 0.76939 0.66655 0.12006 0.0
H5514 H 0.75571 0.66352 0.12943 0.0
C5515 C 0.76063 0.6416 0.12307 0.0
C5516 C 0.61353 0.5159 0.37011 0.0
C5517 C 0.62079 0.52093 0.36617 0.0
H5518 H 0.60966 0.50454 0.37867 0.0
C5519 C 0.62989 0.51789 0.36753 0.0
H5520 H 0.60644 0.51797 0.36911 0.0
C5521 C 0.63168 0.51016 0.37293 0.0
C5522 C 0.62443 0.50535 0.37702 0.0
H5523 H 0.63565 0.52165 0.36469 0.0
H5524 H 0.63875 0.50811 0.37412 0.0
C5525 C 0.61534 0.50817 0.37551 0.0
C5526 C 0.75556 0.376 0.61756 0.0
C5527 C 0.75218 0.36701 0.61649 0.0
H5528 H 0.76575 0.38468 0.62379 0.0
C5529 C 0.75702 0.35973 0.62061 0.0
H5530 H 0.75195 0.38177 0.61458 0.0
C5531 C 0.76488 0.36144 0.62589 0.0
C5532 C 0.76804 0.37042 0.6271 0.0
H5533 H 0.75469 0.35273 0.61983 0.0
H5534 H 0.76837 0.35575 0.62917 0.0
C5535 C 0.76342 0.37768 0.62284 0.0
C5536 C 0.65474 0.89187 0.51835 0.0
C5537 C 0.65567 0.90098 0.5214 0.0
H5538 H 0.64852 0.88272 0.50861 0.0
C5539 C 0.65134 0.908 0.51638 0.0
H5540 H 0.65788 0.88628 0.52211 0.0
C5541 C 0.64599 0.90593 0.50868 0.0
C5542 C 0.6449 0.89682 0.50586 0.0
H5543 H 0.65201 0.9151 0.51846 0.0
H5544 H 0.64253 0.91142 0.50506 0.0
C5545 C 0.64938 0.88981 0.51065 0.0
C5546 C 0.15183 0.61118 0.50416 0.0
C5547 C 0.15626 0.61819 0.49919 0.0
H5548 H 0.14292 0.60778 0.51542 0.0
C5549 C 0.15543 0.62729 0.50231 0.0
H5550 H 0.15242 0.6041 0.50203 0.0
C5551 C 0.15006 0.62935 0.51001 0.0
C5552 C 0.14547 0.62236 0.51473 0.0
H5553 H 0.15865 0.63287 0.4986 0.0
H5554 H 0.14927 0.63644 0.51211 0.0
C5555 C 0.14647 0.61326 0.51186 0.0
C5556 C 0.65253 0.9061 0.75784 0.0
C5557 C 0.65433 0.90179 0.74938 0.0
H5558 H 0.64963 0.90432 0.77222 0.0
C5559 C 0.65443 0.89215 0.74902 0.0
H5560 H 0.65248 0.9135 0.75837 0.0
C5561 C 0.65283 0.88696 0.75692 0.0
C5562 C 0.65109 0.8913 0.76531 0.0
H5563 H 0.65562 0.88859 0.74261 0.0
H5564 H 0.65295 0.87955 0.75647 0.0
C5565 C 0.65094 0.90088 0.76576 0.0
C5566 C 0.36928 0.39142 1.00249 0.0
C5567 C 0.36829 0.40051 0.9994 0.0
H5568 H 0.37557 0.38236 0.01228 0.0
C5569 C 0.37255 0.40759 1.0044 0.0
H5570 H 0.3662 0.38579 0.99875 0.0
C5571 C 0.37791 0.40559 0.01211 0.0
C5572 C 0.37907 0.3965 0.01497 0.0
H5573 H 0.37183 0.41467 1.00229 0.0
H5574 H 0.38133 0.41113 0.01571 0.0
C5575 C 0.37465 0.38944 1.0102 0.0
C5576 C 0.36364 0.62041 0.75424 0.0
C5577 C 0.37075 0.61599 0.74938 0.0
H5578 H 0.36008 0.62935 0.76539 0.0
C5579 C 0.37986 0.61691 0.75255 0.0
H5580 H 0.35655 0.61975 0.75207 0.0
C5581 C 0.38184 0.62234 0.76021 0.0
C5582 C 0.37475 0.6269 0.76484 0.0
H5583 H 0.38551 0.6137 0.74892 0.0
H5584 H 0.38894 0.62317 0.76236 0.0
C5585 C 0.36564 0.62583 0.7619 0.0
C5586 C 0.8697 0.12823 0.01846 0.0
C5587 C 0.86875 0.11912 0.02152 0.0
H5588 H 0.87595 0.13735 1.00869 0.0
C5589 C 0.87306 0.11208 0.0165 0.0
H5590 H 0.86657 0.13383 0.02221 0.0
C5591 C 0.87843 0.11414 1.0088 0.0
C5592 C 0.87954 0.12324 1.00597 0.0
H5593 H 0.87238 0.10499 0.01859 0.0
H5594 H 0.88189 0.10863 1.00519 0.0
C5595 C 0.87507 0.13027 0.01075 0.0
C5596 C 0.65425 0.12705 0.77193 0.0
C5597 C 0.6537 0.11743 0.77151 0.0
H5598 H 0.65259 0.13979 0.76479 0.0
C5599 C 0.65101 0.1133 0.76319 0.0
H5600 H 0.65613 0.13048 0.77824 0.0
C5601 C 0.64891 0.11868 0.75549 0.0
C5602 C 0.64947 0.12825 0.75603 0.0
H5603 H 0.65058 0.10592 0.7626 0.0
H5604 H 0.64685 0.11538 0.74916 0.0
C5605 C 0.65217 0.13239 0.76426 0.0
C5606 C 0.87338 0.90633 0.26331 0.0
C5607 C 0.8711 0.90224 0.27178 0.0
H5608 H 0.87708 0.90418 0.24917 0.0
C5609 C 0.8709 0.89261 0.27236 0.0
H5610 H 0.87352 0.91372 0.26261 0.0
C5611 C 0.8729 0.88723 0.2647 0.0
C5612 C 0.87514 0.89133 0.25631 0.0
H5613 H 0.86935 0.88922 0.27879 0.0
H5614 H 0.87272 0.87983 0.26534 0.0
C5615 C 0.87537 0.90091 0.25562 0.0
C5616 C 0.50646 0.37001 0.1113 0.0
C5617 C 0.50164 0.36555 0.1184 0.0
H5618 H 0.51756 0.37907 0.10772 0.0
C5619 C 0.50484 0.3665 0.12747 0.0
H5620 H 0.50427 0.36933 0.10423 0.0
C5621 C 0.51248 0.372 0.12942 0.0
C5622 C 0.51706 0.37662 0.12234 0.0
H5623 H 0.50123 0.36326 0.13311 0.0
H5624 H 0.51464 0.37286 0.13648 0.0
C5625 C 0.5141 0.37551 0.11327 0.0
C5626 C 0.40189 0.75406 0.86154 0.0
C5627 C 0.40614 0.74908 0.86864 0.0
H5628 H 0.39308 0.76532 0.85795 0.0
C5629 C 0.40508 0.75216 0.87774 0.0
H5630 H 0.40266 0.75196 0.85445 0.0
C5631 C 0.39966 0.75985 0.8797 0.0
C5632 C 0.39526 0.76459 0.87261 0.0
H5633 H 0.40815 0.74844 0.88339 0.0
H5634 H 0.3987 0.76192 0.88678 0.0
C5635 C 0.39648 0.76174 0.86351 0.0
C5636 C 0.0197 0.65254 0.6276 0.0
C5637 C 0.02283 0.65361 0.61851 0.0
H5638 H 1.00993 0.64611 0.63661 0.0
C5639 C 0.01792 0.64928 0.61139 0.0
H5640 H 0.02337 0.65567 0.63325 0.0
C5641 C 1.01026 0.64381 0.61335 0.0
C5642 C 1.00736 0.64259 0.62244 0.0
H5643 H 0.02006 0.65006 0.60432 0.0
H5644 H 1.00673 0.64036 0.60779 0.0
C5645 C 0.01204 0.64706 0.62954 0.0
C5646 C 0.11829 0.26673 0.37742 0.0
C5647 C 0.11733 0.26992 0.36835 0.0
H5648 H 0.12456 0.25684 0.38638 0.0
C5649 C 0.12161 0.26501 0.36122 0.0
H5650 H 0.11519 0.2704 0.38309 0.0
C5651 C 0.12697 0.25728 0.36314 0.0
C5652 C 0.12811 0.25432 0.37221 0.0
H5653 H 0.12091 0.2672 0.35415 0.0
H5654 H 0.13042 0.25376 0.35756 0.0
C5655 C 0.12366 0.259 0.37933 0.0
C5656 C 0.50618 0.64963 0.40892 0.0
C5657 C 0.5013 0.654 0.40182 0.0
H5658 H 0.51733 0.64064 0.4125 0.0
C5659 C 0.50444 0.65297 0.39273 0.0
H5660 H 0.50404 0.65037 0.416 0.0
C5661 C 0.51209 0.64748 0.39077 0.0
C5662 C 0.51674 0.64296 0.39786 0.0
H5663 H 0.50079 0.65614 0.38708 0.0
H5664 H 0.51421 0.64656 0.3837 0.0
C5665 C 0.51383 0.64414 0.40694 0.0
C5666 C 0.11467 0.7568 0.15005 0.0
C5667 C 0.11887 0.74838 0.15229 0.0
H5668 H 0.1167 0.77094 0.14631 0.0
C5669 C 0.12854 0.74787 0.15238 0.0
H5670 H 0.10725 0.75745 0.14999 0.0
C5671 C 0.13387 0.75556 0.15031 0.0
C5672 C 0.12967 0.7639 0.1481 0.0
H5673 H 0.13201 0.74148 0.1539 0.0
H5674 H 0.14131 0.75497 0.1504 0.0
C5675 C 0.12005 0.76452 0.14798 0.0
C5676 C 0.01736 0.36997 0.90831 0.0
C5677 C 0.02236 0.36575 0.9012 0.0
H5678 H 1.00607 0.37877 0.91193 0.0
C5679 C 0.0193 0.36688 0.89209 0.0
H5680 H 0.01945 0.36915 0.9154 0.0
C5681 C 1.01161 0.37232 0.89015 0.0
C5682 C 1.00684 0.37668 0.89726 0.0
H5683 H 0.02304 0.36383 0.88644 0.0
H5684 H 1.00955 0.37331 0.88308 0.0
C5685 C 1.00967 0.3754 0.90635 0.0
C5686 C 0.39532 0.27141 0.65273 0.0
C5687 C 0.40497 0.27102 0.65189 0.0
H5688 H 0.38249 0.26428 0.65134 0.0
C5689 C 0.40905 0.26275 0.64898 0.0
H5690 H 0.39192 0.27769 0.65478 0.0
C5691 C 0.4036 0.25508 0.64694 0.0
C5692 C 0.39401 0.25559 0.64778 0.0
H5693 H 0.41646 0.26219 0.64833 0.0
H5694 H 0.40686 0.24879 0.64471 0.0
C5695 C 0.38991 0.26377 0.6507 0.0
C5696 C 0.119 0.49791 0.37643 0.0
C5697 C 0.12016 0.49835 0.36686 0.0
H5698 H 0.12001 0.50496 0.38929 0.0
C5699 C 0.12323 0.50663 0.36293 0.0
H5700 H 0.11681 0.49161 0.37972 0.0
C5701 C 0.12513 0.51426 0.36846 0.0
C5702 C 0.12398 0.5137 0.37799 0.0
H5703 H 0.12412 0.50724 0.35557 0.0
H5704 H 0.1275 0.52057 0.36531 0.0
C5705 C 0.12089 0.50551 0.38193 0.0
C5706 C 0.26681 0.35918 0.12005 0.0
C5707 C 0.27155 0.36654 0.11595 0.0
H5708 H 0.25553 0.35501 0.12863 0.0
C5709 C 0.26805 0.37547 0.11707 0.0
H5710 H 0.26923 0.35221 0.11923 0.0
C5711 C 0.26017 0.37703 0.12238 0.0
C5712 C 0.25566 0.36969 0.12662 0.0
H5713 H 0.27158 0.38131 0.1141 0.0
H5714 H 0.25776 0.38399 0.12336 0.0
C5715 C 0.25894 0.36075 0.12536 0.0
C5716 C 0.40527 0.5211 0.87685 0.0
C5717 C 0.40382 0.52082 0.86732 0.0
H5718 H 0.40444 0.51391 0.88966 0.0
C5719 C 0.4004 0.51267 0.86338 0.0
H5720 H 0.40773 0.52728 0.88015 0.0
C5721 C 0.39845 0.50502 0.86889 0.0
C5722 C 0.39988 0.50543 0.87838 0.0
H5723 H 0.39927 0.51218 0.85606 0.0
H5724 H 0.39579 0.49884 0.86574 0.0
C5725 C 0.40333 0.51348 0.88232 0.0
C5726 C 0.25681 0.65818 0.62002 0.0
C5727 C 0.25175 0.65109 0.61585 0.0
H5728 H 0.26818 0.66174 0.62875 0.0
C5729 C 0.25476 0.64199 0.61697 0.0
H5730 H 0.25476 0.66527 0.6192 0.0
C5731 C 0.26248 0.64001 0.62237 0.0
C5732 C 0.26731 0.64709 0.62669 0.0
H5733 H 0.25097 0.63635 0.61396 0.0
H5734 H 0.2645 0.63293 0.62337 0.0
C5735 C 0.26453 0.65619 0.62541 0.0
C5736 C 0.12221 0.51226 0.15743 0.0
C5737 C 0.11971 0.52065 0.15333 0.0
H5738 H 0.12605 0.49817 0.15527 0.0
C5739 C 0.11922 0.52115 0.1437 0.0
H5740 H 0.12258 0.51162 0.16482 0.0
C5741 C 0.12116 0.51348 0.13832 0.0
C5742 C 0.12365 0.50517 0.14242 0.0
H5743 H 0.11749 0.52752 0.1403 0.0
H5744 H 0.12078 0.51406 0.13091 0.0
C5745 C 0.12416 0.50456 0.152 0.0
C5746 C 0.25476 0.37706 0.90337 0.0
C5747 C 0.25162 0.36798 0.90434 0.0
H5748 H 0.26453 0.38612 0.89701 0.0
C5749 C 0.25651 0.36091 0.89992 0.0
H5750 H 0.2511 0.38268 0.90657 0.0
C5751 C 0.26417 0.36292 0.89445 0.0
C5752 C 0.26707 0.372 0.89332 0.0
H5753 H 0.25437 0.35384 0.90062 0.0
H5754 H 0.26768 0.3574 0.89092 0.0
C5755 C 0.26242 0.37905 0.89789 0.0
C5756 C 0.40519 0.49869 0.64381 0.0
C5757 C 0.40521 0.49906 0.65346 0.0
H5758 H 0.40366 0.50611 0.63121 0.0
C5759 C 0.40356 0.50755 0.65778 0.0
H5760 H 0.40627 0.49226 0.64026 0.0
C5761 C 0.402 0.51547 0.65256 0.0
C5762 C 0.40204 0.515 0.64296 0.0
H5763 H 0.4036 0.50809 0.66519 0.0
H5764 H 0.40082 0.52194 0.65601 0.0
C5765 C 0.40362 0.50658 0.63863 0.0
C5766 C 0.26954 0.64243 0.40348 0.0
C5767 C 0.27269 0.65152 0.40439 0.0
H5768 H 0.25976 0.63335 0.39718 0.0
C5769 C 0.2678 0.65857 0.39996 0.0
H5770 H 0.2732 0.63683 0.4067 0.0
C5771 C 0.26014 0.65655 0.39451 0.0
C5772 C 0.25723 0.64746 0.39344 0.0
H5773 H 0.26995 0.66565 0.40061 0.0
H5774 H 0.25662 0.66206 0.39097 0.0
C5775 C 0.26188 0.64043 0.39803 0.0
C5776 C 0.37213 0.11139 0.50418 0.0
C5777 C 0.36789 0.11838 0.49905 0.0
H5778 H 0.38092 0.10805 0.51555 0.0
C5779 C 0.36892 0.12753 0.50195 0.0
H5780 H 0.37139 0.10427 0.50222 0.0
C5781 C 0.3743 0.12965 0.50962 0.0
C5782 C 0.37871 0.12267 0.51452 0.0
H5783 H 0.36584 0.13309 0.49811 0.0
H5784 H 0.37524 0.13676 0.51155 0.0
C5785 C 0.37751 0.11353 0.51185 0.0
C5786 C 0.86861 0.39264 0.51758 0.0
C5787 C 0.86758 0.40172 0.52069 0.0
H5788 H 0.87495 0.38362 0.50778 0.0
C5789 C 0.87183 0.40882 0.5157 0.0
H5790 H 0.86552 0.38699 0.5213 0.0
C5791 C 0.87723 0.40685 0.508 0.0
C5792 C 0.87843 0.39777 0.50512 0.0
H5793 H 0.87109 0.4159 0.51782 0.0
H5794 H 0.88064 0.41241 0.50442 0.0
C5795 C 0.87401 0.39068 0.50987 0.0
C5796 C 0.37986 0.11658 0.26797 0.0
C5797 C 0.37075 0.11522 0.27102 0.0
H5798 H 0.38875 0.12318 0.2582 0.0
C5799 C 0.36351 0.11919 0.26599 0.0
H5800 H 0.38561 0.11373 0.27173 0.0
C5801 C 0.36534 0.1246 0.25827 0.0
C5802 C 0.37443 0.12611 0.25545 0.0
H5803 H 0.35642 0.11818 0.26806 0.0
H5804 H 0.35966 0.12777 0.25464 0.0
C5805 C 0.38168 0.122 0.26025 0.0
C5806 C 0.65526 0.62739 0.01772 0.0
C5807 C 0.65626 0.6183 0.02085 0.0
H5808 H 0.64896 0.6364 1.00789 0.0
C5809 C 0.652 0.6112 0.01588 0.0
H5810 H 0.65835 0.63303 0.02143 0.0
C5811 C 0.64664 0.61317 1.00816 0.0
C5812 C 0.64546 0.62224 1.00526 0.0
H5813 H 0.65273 0.60413 0.01802 0.0
H5814 H 0.64322 0.60761 1.00459 0.0
C5815 C 0.64988 0.62933 1.01 0.0
C5816 C 0.65496 0.3931 0.27203 0.0
C5817 C 0.65412 0.4027 0.27157 0.0
H5818 H 0.65363 0.38029 0.26495 0.0
C5819 C 0.6513 0.40672 0.26324 0.0
H5820 H 0.65695 0.38975 0.27836 0.0
C5821 C 0.64934 0.40125 0.25557 0.0
C5822 C 0.65016 0.3917 0.25615 0.0
H5823 H 0.65066 0.41409 0.26263 0.0
H5824 H 0.64716 0.40446 0.24924 0.0
C5825 C 0.653 0.38767 0.26439 0.0
C5826 C 0.1551 0.89182 1.00264 0.0
C5827 C 0.15616 0.9009 0.99952 0.0
H5828 H 0.14872 0.88283 0.01244 0.0
C5829 C 0.1519 0.90801 1.00448 0.0
H5830 H 0.15818 0.88617 0.99893 0.0
C5831 C 0.14649 0.90606 0.01218 0.0
C5832 C 0.14527 0.89699 0.01507 0.0
H5833 H 0.15267 0.91509 1.00235 0.0
H5834 H 0.14308 0.91163 0.01575 0.0
C5835 C 0.14968 0.88989 0.01034 0.0
C5836 C 0.36917 0.89313 0.24823 0.0
C5837 C 0.37022 0.90271 0.24871 0.0
H5838 H 0.37032 0.88026 0.25523 0.0
C5839 C 0.37325 0.90663 0.25702 0.0
H5840 H 0.36702 0.88986 0.24191 0.0
C5841 C 0.3752 0.90108 0.26463 0.0
C5842 C 0.37415 0.89156 0.26403 0.0
H5843 H 0.37405 0.91398 0.25766 0.0
H5844 H 0.37753 0.90422 0.27095 0.0
C5845 C 0.37112 0.88763 0.25582 0.0
C5846 C 0.15381 0.12648 0.74829 0.0
C5847 C 0.15311 0.11688 0.7488 0.0
H5848 H 0.15237 0.13931 0.75532 0.0
C5849 C 0.15035 0.11286 0.75716 0.0
H5850 H 0.15574 0.12982 0.74194 0.0
C5851 C 0.14836 0.11835 0.76481 0.0
C5852 C 0.14907 0.1279 0.76419 0.0
H5853 H 0.14982 0.10549 0.75782 0.0
H5854 H 0.14626 0.11513 0.77118 0.0
C5855 C 0.15182 0.13193 0.75591 0.0
C5856 C 0.1098 0.13804 0.44836 0.0
C5857 C 0.10206 0.14208 0.45249 0.0
H5858 H 0.1232 0.13228 0.45021 0.0
C5859 C 0.10193 0.14313 0.46208 0.0
H5860 H 0.11003 0.13698 0.441 0.0
C5861 C 0.10953 0.14052 0.46737 0.0
C5862 C 0.1174 0.13673 0.46319 0.0
H5863 H 0.09608 0.14629 0.46545 0.0
H5864 H 0.10936 0.14176 0.47469 0.0
C5865 C 0.11735 0.13536 0.45364 0.0
C5866 C 0.12868 0.84983 0.71134 0.0
C5867 C 0.12978 0.85014 0.70176 0.0
H5868 H 0.1299 0.85702 0.72409 0.0
C5869 C 0.1337 0.85799 0.69777 0.0
H5870 H 0.12561 0.8439 0.7146 0.0
C5871 C 0.13624 0.86547 0.7032 0.0
C5872 C 0.13486 0.86532 0.71275 0.0
H5873 H 0.13478 0.85837 0.69043 0.0
H5874 H 0.13926 0.8714 0.69989 0.0
C5875 C 0.13116 0.85735 0.71677 0.0
C5876 C 0.41424 0.88056 0.94803 0.0
C5877 C 0.42203 0.87653 0.95205 0.0
H5878 H 0.40087 0.88633 0.95008 0.0
C5879 C 0.42229 0.87546 0.96163 0.0
H5880 H 0.41391 0.88162 0.94068 0.0
C5881 C 0.41476 0.87808 0.96703 0.0
C5882 C 0.40684 0.88188 0.96298 0.0
H5883 H 0.42819 0.87232 0.96491 0.0
H5884 H 0.41504 0.87683 0.97435 0.0
C5885 C 0.40676 0.88324 0.95342 0.0
C5886 C 0.38997 0.16145 0.19833 0.0
C5887 C 0.39395 0.16924 0.20236 0.0
H5888 H 0.38438 0.14804 0.20035 0.0
C5889 C 0.39507 0.16946 0.21194 0.0
H5890 H 0.38886 0.16114 0.19099 0.0
C5891 C 0.39259 0.1619 0.21732 0.0
C5892 C 0.38887 0.15398 0.21324 0.0
H5893 H 0.39819 0.17535 0.21523 0.0
H5894 H 0.39389 0.16215 0.22463 0.0
C5895 C 0.38742 0.15393 0.2037 0.0
C5896 C 0.10977 0.88077 0.07201 0.0
C5897 C 0.10207 0.87659 0.06795 0.0
H5898 H 0.12309 0.88668 0.07004 0.0
C5899 C 0.10192 0.87545 0.05838 0.0
H5900 H 0.11001 0.88189 0.07935 0.0
C5901 C 0.10947 0.87812 0.05302 0.0
C5902 C 0.11731 0.88203 0.05713 0.0
H5903 H 0.0961 0.8722 0.05506 0.0
H5904 H 0.1093 0.8768 0.04571 0.0
C5905 C 0.11727 0.8835 0.06667 0.0
C5906 C 0.39601 0.84973 0.30826 0.0
C5907 C 0.39492 0.84999 0.31783 0.0
H5908 H 0.39456 0.85692 0.29553 0.0
C5909 C 0.39076 0.8577 0.32184 0.0
H5910 H 0.39925 0.84391 0.30498 0.0
C5911 C 0.38798 0.8651 0.31644 0.0
C5912 C 0.38937 0.86503 0.30689 0.0
H5913 H 0.38968 0.85802 0.32919 0.0
H5914 H 0.38479 0.87093 0.31977 0.0
C5915 C 0.39329 0.85718 0.30284 0.0
C5916 C 0.41411 0.13889 0.57144 0.0
C5917 C 0.4218 0.14312 0.56742 0.0
H5918 H 0.4008 0.13298 0.56942 0.0
C5919 C 0.42197 0.14434 0.55786 0.0
H5920 H 0.41385 0.1377 0.57877 0.0
C5921 C 0.41443 0.14173 0.55248 0.0
C5922 C 0.40659 0.13777 0.55655 0.0
H5923 H 0.42779 0.14764 0.55458 0.0
H5924 H 0.41461 0.14311 0.54518 0.0
C5925 C 0.40661 0.13621 0.56608 0.0
C5926 C 0.12798 0.16952 0.80901 0.0
C5927 C 0.12911 0.16912 0.81857 0.0
H5928 H 0.12918 0.16247 0.79618 0.0
C5929 C 0.13309 0.16125 0.82246 0.0
H5930 H 0.12487 0.17547 0.80582 0.0
C5931 C 0.13564 0.15385 0.81694 0.0
C5932 C 0.13422 0.15408 0.8074 0.0
H5933 H 0.1342 0.16081 0.82979 0.0
H5934 H 0.1387 0.1479 0.82018 0.0
C5935 C 0.13047 0.16207 0.80348 0.0
C5936 C 0.46107 0.10543 0.154 0.0
C5937 C 0.45765 0.09923 0.14744 0.0
H5938 H 0.46858 0.11781 0.15652 0.0
C5939 C 0.45978 0.10071 0.13813 0.0
H5940 H 0.45976 0.10441 0.16124 0.0
C5941 C 0.46493 0.10837 0.13544 0.0
C5942 C 0.46802 0.11474 0.14198 0.0
H5943 H 0.45719 0.09614 0.13289 0.0
H5944 H 0.46621 0.10949 0.1282 0.0
C5945 C 0.46616 0.1131 0.1513 0.0
C5946 C 0.17149 0.20752 0.3872 0.0
C5947 C 0.17188 0.20374 0.39608 0.0
H5948 H 0.16362 0.21534 0.37749 0.0
C5949 C 0.16459 0.20551 0.40219 0.0
H5950 H 0.17693 0.20624 0.38228 0.0
C5951 C 0.15696 0.2106 0.3994 0.0
C5952 C 0.15645 0.21416 0.39046 0.0
H5953 H 0.16475 0.20292 0.40915 0.0
H5954 H 0.15143 0.21175 0.40425 0.0
C5955 C 0.16386 0.21271 0.38443 0.0
C5956 C 0.05915 0.92034 0.6444 0.0
C5957 C 0.06877 0.91964 0.64527 0.0
H5958 H 0.04648 0.91338 0.64145 0.0
C5959 C 0.07304 0.91128 0.64311 0.0
H5960 H 0.05566 0.92669 0.64606 0.0
C5961 C 0.06783 0.90371 0.64042 0.0
C5962 C 0.05818 0.90428 0.63987 0.0
H5963 H 0.08046 0.91057 0.64352 0.0
H5964 H 0.07137 0.89738 0.6388 0.0
C5965 C 0.0539 0.91273 0.64175 0.0
C5966 C 0.35983 0.82143 0.889 0.0
C5967 C 0.35214 0.81736 0.8932 0.0
H5968 H 0.37313 0.81948 0.88305 0.0
C5969 C 0.35198 0.8078 0.89434 0.0
H5970 H 0.36007 0.82876 0.88787 0.0
C5971 C 0.35953 0.80246 0.89165 0.0
C5972 C 0.36736 0.80657 0.88772 0.0
H5973 H 0.34617 0.80448 0.89761 0.0
H5974 H 0.35936 0.79515 0.89297 0.0
C5975 C 0.36732 0.8161 0.88625 0.0
C5976 C 0.45933 0.91937 0.38285 0.0
C5977 C 0.45554 0.91963 0.37396 0.0
H5978 H 0.46733 0.91178 0.39263 0.0
C5979 C 0.45745 0.91235 0.36793 0.0
H5980 H 0.45794 0.9248 0.38772 0.0
C5981 C 0.46271 0.90487 0.37078 0.0
C5982 C 0.46629 0.90451 0.37972 0.0
H5983 H 0.45486 0.9124 0.36096 0.0
H5984 H 0.46398 0.89935 0.36598 0.0
C5985 C 0.46468 0.9119 0.38569 0.0
C5986 C 0.35994 0.19782 0.63134 0.0
C5987 C 0.35215 0.20184 0.6273 0.0
H5988 H 0.37331 0.19987 0.63711 0.0
C5989 C 0.3519 0.21141 0.62622 0.0
H5990 H 0.36026 0.19048 0.6324 0.0
C5991 C 0.35943 0.21681 0.62883 0.0
C5992 C 0.36735 0.21275 0.63264 0.0
H5993 H 0.34601 0.2147 0.62307 0.0
H5994 H 0.35916 0.22412 0.62758 0.0
C5995 C 0.36742 0.20321 0.63401 0.0
C5996 C 0.06814 0.10688 0.86838 0.0
C5997 C 0.06787 0.09868 0.87344 0.0
H5998 H 0.06338 0.12066 0.86701 0.0
C5999 C 0.06234 0.09832 0.88137 0.0
H6000 H 0.07241 0.10749 0.86231 0.0
C6001 C 0.05729 0.106 0.88419 0.0
C6002 C 0.05763 0.11421 0.87915 0.0
H6003 H 0.06189 0.0921 0.88539 0.0
H6004 H 0.05323 0.10553 0.89041 0.0
C6005 C 0.06306 0.11451 0.87116 0.0
C6006 C 0.16368 0.82171 0.13161 0.0
C6007 C 0.17148 0.81766 0.12759 0.0
H6008 H 0.15029 0.81972 0.13737 0.0
C6009 C 0.1717 0.80809 0.12654 0.0
H6010 H 0.16337 0.82906 0.13265 0.0
C6011 C 0.16415 0.80272 0.12915 0.0
C6012 C 0.15624 0.80681 0.13294 0.0
H6013 H 0.17759 0.80479 0.1234 0.0
H6014 H 0.16441 0.79541 0.12792 0.0
C6015 C 0.15618 0.81635 0.13428 0.0
C6016 C 0.13767 0.45645 0.10122 0.0
C6017 C 0.14652 0.45254 0.10078 0.0
H6018 H 0.12815 0.4646 0.109 0.0
C6019 C 0.15276 0.45435 0.10795 0.0
H6020 H 0.13266 0.45514 0.09588 0.0
C6021 C 0.15013 0.45966 0.11547 0.0
C6022 C 0.14124 0.46338 0.116 0.0
H6023 H 0.1597 0.45166 0.10775 0.0
H6024 H 0.15509 0.46087 0.12088 0.0
C6025 C 0.13507 0.46185 0.10874 0.0
C6026 C 0.64033 0.0716 0.91238 0.0
C6027 C 0.64448 0.06754 0.92007 0.0
H6028 H 0.63457 0.06966 0.89903 0.0
C6029 C 0.64571 0.05798 0.92019 0.0
H6030 H 0.63914 0.07893 0.91216 0.0
C6031 C 0.64317 0.05266 0.91261 0.0
C6032 C 0.6393 0.05677 0.90477 0.0
H6033 H 0.64895 0.05467 0.926 0.0
H6034 H 0.64456 0.04537 0.91276 0.0
C6035 C 0.63773 0.06629 0.90485 0.0
C6036 C 0.21103 0.40352 0.1646 0.0
C6037 C 0.20759 0.39704 0.17087 0.0
H6038 H 0.21856 0.40591 0.1522 0.0
C6039 C 0.2097 0.38772 0.16948 0.0
H6040 H 0.20973 0.41077 0.16555 0.0
C6041 C 0.21486 0.38495 0.16185 0.0
C6042 C 0.21797 0.39142 0.15542 0.0
H6043 H 0.20709 0.38253 0.17411 0.0
H6044 H 0.21612 0.37771 0.1608 0.0
C6045 C 0.21612 0.40075 0.15696 0.0
C6046 C 0.88329 0.94826 0.41201 0.0
C6047 C 0.87917 0.95224 0.41977 0.0
H6048 H 0.88908 0.95036 0.39869 0.0
C6049 C 0.87794 0.96179 0.42 0.0
H6050 H 0.88448 0.94094 0.41171 0.0
C6051 C 0.88048 0.9672 0.41248 0.0
C6052 C 0.88438 0.96319 0.4046 0.0
H6053 H 0.87471 0.96503 0.42585 0.0
H6054 H 0.87911 0.97449 0.41273 0.0
C6055 C 0.8859 0.95367 0.40454 0.0
C6056 C 0.81599 0.11692 0.16321 0.0
C6057 C 0.81791 0.12299 0.17046 0.0
H6058 H 0.80954 0.11494 0.15016 0.0
C6059 C 0.81416 0.13189 0.17013 0.0
H6060 H 0.81855 0.10995 0.16332 0.0
C6061 C 0.80886 0.1347 0.16261 0.0
C6062 C 0.80728 0.12871 0.15524 0.0
H6063 H 0.81555 0.13678 0.17554 0.0
H6064 H 0.80626 0.14166 0.16242 0.0
C6065 C 0.81079 0.11976 0.15568 0.0
C6066 C 0.38001 0.5705 0.60902 0.0
C6067 C 0.37806 0.56623 0.6006 0.0
H6068 H 0.38411 0.56887 0.623 0.0
C6069 C 0.37911 0.55667 0.59989 0.0
H6070 H 0.37945 0.57787 0.60974 0.0
C6071 C 0.38174 0.55148 0.60754 0.0
C6072 C 0.3834 0.55574 0.61604 0.0
H6073 H 0.37761 0.55318 0.59351 0.0
H6074 H 0.38218 0.5441 0.60687 0.0
C6075 C 0.38267 0.56533 0.61663 0.0
C6076 C 0.20998 0.63212 0.35053 0.0
C6077 C 0.20624 0.62322 0.35015 0.0
H6078 H 0.21788 0.64185 0.35829 0.0
C6079 C 0.20822 0.61708 0.35733 0.0
H6080 H 0.20854 0.63705 0.34517 0.0
C6081 C 0.21344 0.61987 0.36486 0.0
C6082 C 0.21693 0.62884 0.36536 0.0
H6083 H 0.20568 0.61011 0.35718 0.0
H6084 H 0.21474 0.61501 0.37033 0.0
C6085 C 0.2153 0.63489 0.35805 0.0
C6086 C 0.31428 0.3874 0.85031 0.0
C6087 C 0.31806 0.39628 0.84999 0.0
H6088 H 0.30635 0.37764 0.85803 0.0
C6089 C 0.31616 0.40235 0.85724 0.0
H6090 H 0.31565 0.38251 0.8449 0.0
C6091 C 0.31096 0.39952 0.86478 0.0
C6092 C 0.30741 0.39058 0.86522 0.0
H6093 H 0.31874 0.40932 0.85714 0.0
H6094 H 0.30972 0.40434 0.8703 0.0
C6095 C 0.30897 0.38459 0.85784 0.0
C6096 C 0.92238 0.88165 0.56169 0.0
C6097 C 0.92268 0.8728 0.56555 0.0
H6098 H 0.91465 0.89134 0.55372 0.0
C6099 C 0.91538 0.86673 0.56376 0.0
H6100 H 0.92783 0.88654 0.56299 0.0
C6101 C 0.90781 0.86953 0.55857 0.0
C6102 C 0.90739 0.87843 0.55493 0.0
H6103 H 0.91547 0.8598 0.56641 0.0
H6104 H 0.90226 0.86471 0.5574 0.0
C6105 C 0.91482 0.88442 0.5564 0.0
C6106 C 0.89601 0.1699 0.30851 0.0
C6107 C 0.89496 0.16956 0.31809 0.0
H6108 H 0.89474 0.16274 0.29575 0.0
C6109 C 0.89108 0.16169 0.32208 0.0
H6110 H 0.89905 0.17584 0.30525 0.0
C6111 C 0.88852 0.15422 0.31665 0.0
C6112 C 0.88985 0.15441 0.30709 0.0
H6113 H 0.89004 0.16129 0.32943 0.0
H6114 H 0.88554 0.14828 0.31996 0.0
C6115 C 0.89351 0.16239 0.30307 0.0
C6116 C 0.60149 0.14476 0.05799 0.0
C6117 C 0.6016 0.14368 0.06757 0.0
H6118 H 0.60894 0.14339 0.04537 0.0
C6119 C 0.60931 0.13959 0.0717 0.0
H6120 H 0.59567 0.14795 0.05462 0.0
C6121 C 0.61686 0.1369 0.06641 0.0
C6122 C 0.61694 0.13829 0.05686 0.0
H6123 H 0.60952 0.13851 0.07905 0.0
H6124 H 0.62269 0.13377 0.06983 0.0
C6125 C 0.60909 0.14213 0.05269 0.0
C6126 C 0.62859 0.85809 0.82113 0.0
C6127 C 0.6266 0.84965 0.81694 0.0
H6128 H 0.6328 0.87201 0.81937 0.0
C6129 C 0.62762 0.84886 0.80738 0.0
H6130 H 0.62806 0.85887 0.8285 0.0
C6131 C 0.63028 0.85644 0.8021 0.0
C6132 C 0.63202 0.86495 0.80629 0.0
H6133 H 0.62608 0.84245 0.80394 0.0
H6134 H 0.63071 0.8557 0.79472 0.0
C6135 C 0.63129 0.86563 0.81589 0.0
C6136 C 0.91483 0.13994 0.94906 0.0
C6137 C 0.92256 0.14406 0.95313 0.0
H6138 H 0.90149 0.13408 0.95102 0.0
C6139 C 0.92273 0.14516 0.96271 0.0
H6140 H 0.91457 0.13885 0.94172 0.0
C6141 C 0.91516 0.14251 0.96806 0.0
C6142 C 0.9073 0.13865 0.96395 0.0
H6143 H 0.92857 0.14836 0.96603 0.0
H6144 H 0.91536 0.14379 0.97537 0.0
C6145 C 0.90732 0.13723 0.9544 0.0
C6146 C 0.61931 0.16253 0.70567 0.0
C6147 C 0.62542 0.1698 0.70387 0.0
H6148 H 0.61723 0.14951 0.71211 0.0
C6149 C 0.63431 0.16947 0.70771 0.0
H6150 H 0.61234 0.16264 0.70304 0.0
C6151 C 0.63706 0.16197 0.71303 0.0
C6152 C 0.63102 0.1546 0.71456 0.0
H6153 H 0.63923 0.17489 0.70639 0.0
H6154 H 0.64401 0.1618 0.71572 0.0
C6155 C 0.62209 0.15502 0.71091 0.0
C6156 C 0.60163 0.87454 0.46298 0.0
C6157 C 0.60176 0.87555 0.4534 0.0
H6158 H 0.60905 0.87603 0.47559 0.0
C6159 C 0.60947 0.87961 0.44924 0.0
H6160 H 0.5958 0.87138 0.46637 0.0
C6161 C 0.61701 0.88237 0.45451 0.0
C6162 C 0.61706 0.88106 0.46407 0.0
H6163 H 0.6097 0.88064 0.44188 0.0
H6164 H 0.62283 0.88549 0.45106 0.0
C6165 C 0.60922 0.87723 0.46826 0.0
C6166 C 0.89136 0.85766 0.19828 0.0
C6167 C 0.89526 0.84981 0.20229 0.0
H6168 H 0.88577 0.87105 0.20036 0.0
C6169 C 0.89631 0.84952 0.21187 0.0
H6170 H 0.89031 0.85802 0.19093 0.0
C6171 C 0.8938 0.85704 0.21729 0.0
C6172 C 0.89011 0.86499 0.21325 0.0
H6173 H 0.89938 0.8436 0.21515 0.0
H6174 H 0.89503 0.85672 0.22461 0.0
C6175 C 0.88878 0.86513 0.20369 0.0
C6176 C 0.57452 0.91221 0.88053 0.0
C6177 C 0.5705 0.92004 0.87662 0.0
H6178 H 0.57243 0.89884 0.88616 0.0
C6179 C 0.56088 0.92035 0.87561 0.0
H6180 H 0.5819 0.91183 0.88154 0.0
C6181 C 0.55544 0.91286 0.87816 0.0
C6182 C 0.55949 0.90491 0.88186 0.0
H6183 H 0.5576 0.92627 0.87254 0.0
H6184 H 0.54809 0.91318 0.87697 0.0
C6185 C 0.56909 0.90475 0.88315 0.0
C6186 C 0.86004 0.82173 0.63051 0.0
C6187 C 0.85222 0.81769 0.62654 0.0
H6188 H 0.87343 0.81971 0.63624 0.0
C6189 C 0.85196 0.80812 0.62551 0.0
H6190 H 0.86038 0.82908 0.63153 0.0
C6191 C 0.85949 0.80273 0.62813 0.0
C6192 C 0.86743 0.8068 0.63188 0.0
H6193 H 0.84605 0.80482 0.62241 0.0
H6194 H 0.8592 0.79542 0.62692 0.0
C6195 C 0.86753 0.81636 0.63318 0.0
C6196 C 0.95998 0.10008 0.38124 0.0
C6197 C 0.95787 0.09873 0.37191 0.0
H6198 H 0.96639 0.10871 0.39129 0.0
C6199 C 0.96129 0.10503 0.36544 0.0
H6200 H 0.95738 0.09543 0.38642 0.0
C6201 C 0.96637 0.11266 0.36825 0.0
C6202 C 0.96823 0.11415 0.37759 0.0
H6203 H 0.95999 0.10411 0.35818 0.0
H6204 H 0.96881 0.11744 0.3631 0.0
C6205 C 0.96513 0.10769 0.38404 0.0
C6206 C 0.67228 0.21202 0.1253 0.0
C6207 C 0.67215 0.20245 0.12642 0.0
H6208 H 0.66486 0.22463 0.12661 0.0
C6209 C 0.66442 0.19835 0.13052 0.0
H6210 H 0.67812 0.21536 0.1221 0.0
C6211 C 0.65688 0.20365 0.13319 0.0
C6212 C 0.65683 0.21318 0.13176 0.0
H6213 H 0.66419 0.19101 0.13163 0.0
H6214 H 0.65105 0.20025 0.13633 0.0
C6215 C 0.66469 0.21733 0.12791 0.0
C6216 C 0.55948 0.09926 0.6451 0.0
C6217 C 0.5691 0.09942 0.64401 0.0
H6218 H 0.54679 0.10659 0.64368 0.0
C6219 C 0.5732 0.10709 0.63986 0.0
H6220 H 0.55614 0.09346 0.64833 0.0
C6221 C 0.56786 0.11455 0.63711 0.0
C6222 C 0.55828 0.11458 0.63852 0.0
H6223 H 0.58058 0.10734 0.63878 0.0
H6224 H 0.57127 0.12035 0.63394 0.0
C6225 C 0.55413 0.10677 0.64241 0.0
C6226 C 0.66506 0.8135 0.40324 0.0
C6227 C 0.67231 0.81533 0.39711 0.0
H6228 H 0.65196 0.80711 0.40535 0.0
C6229 C 0.67193 0.81153 0.38824 0.0
H6230 H 0.66521 0.8161 0.4102 0.0
C6231 C 0.66435 0.80625 0.38551 0.0
C6232 C 0.65697 0.80474 0.39156 0.0
H6233 H 0.67734 0.81286 0.3833 0.0
H6234 H 0.66412 0.80361 0.37857 0.0
C6235 C 0.65747 0.80831 0.40049 0.0
C6236 C 0.96512 0.92047 0.14521 0.0
C6237 C 0.95552 0.91972 0.14629 0.0
H6238 H 0.97776 0.91358 0.14205 0.0
C6239 C 0.95126 0.91129 0.14436 0.0
H6240 H 0.9686 0.92686 0.1467 0.0
C6241 C 0.95648 0.90373 0.14164 0.0
C6242 C 0.96611 0.90437 0.14084 0.0
H6243 H 0.94387 0.91054 0.14494 0.0
H6244 H 0.95294 0.89736 0.14018 0.0
C6245 C 0.97036 0.91287 0.14253 0.0
C6246 C 0.85936 0.19864 0.89045 0.0
C6247 C 0.85164 0.20263 0.89465 0.0
H6248 H 0.8727 0.20069 0.8846 0.0
C6249 C 0.85148 0.21218 0.89593 0.0
H6250 H 0.85961 0.19132 0.88922 0.0
C6251 C 0.85904 0.21756 0.89337 0.0
C6252 C 0.86689 0.21352 0.88941 0.0
H6253 H 0.84564 0.21544 0.89921 0.0
H6254 H 0.85885 0.22485 0.89478 0.0
C6255 C 0.86687 0.20401 0.88782 0.0
C6256 C 0.88237 0.57115 0.91272 0.0
C6257 C 0.87822 0.5671 0.92042 0.0
H6258 H 0.88828 0.56918 0.89943 0.0
C6259 C 0.87708 0.55753 0.92059 0.0
H6260 H 0.8835 0.57849 0.91246 0.0
C6261 C 0.87974 0.55218 0.91306 0.0
C6262 C 0.88365 0.55628 0.90523 0.0
H6263 H 0.87384 0.55422 0.92641 0.0
H6264 H 0.87843 0.54488 0.91327 0.0
C6265 C 0.88509 0.56581 0.90524 0.0
C6266 C 0.38181 0.94849 0.1078 0.0
C6267 C 0.37777 0.95249 0.10002 0.0
H6268 H 0.3876 0.95057 0.12112 0.0
C6269 C 0.37666 0.96206 0.09975 0.0
H6270 H 0.38291 0.94116 0.10814 0.0
C6271 C 0.37926 0.96747 0.10725 0.0
C6272 C 0.38309 0.96344 0.11515 0.0
H6273 H 0.3735 0.96532 0.09387 0.0
H6274 H 0.37799 0.97478 0.10696 0.0
C6275 C 0.38448 0.9539 0.11525 0.0
C6276 C 0.81447 0.63173 0.85015 0.0
C6277 C 0.81832 0.62288 0.84985 0.0
H6278 H 0.80646 0.64143 0.85783 0.0
C6279 C 0.81653 0.61682 0.85715 0.0
H6280 H 0.81578 0.63661 0.84471 0.0
C6281 C 0.8113 0.61963 0.86468 0.0
C6282 C 0.80764 0.62852 0.86508 0.0
H6283 H 0.81917 0.60988 0.85706 0.0
H6284 H 0.8101 0.61481 0.87021 0.0
C6285 C 0.80915 0.63451 0.85768 0.0
C6286 C 0.14171 0.07121 0.60794 0.0
C6287 C 0.14575 0.06719 0.60016 0.0
H6288 H 0.13594 0.06917 0.62128 0.0
C6289 C 0.14684 0.05762 0.59992 0.0
H6290 H 0.14063 0.07855 0.60826 0.0
C6291 C 0.14424 0.05223 0.60743 0.0
C6292 C 0.14042 0.05628 0.61533 0.0
H6293 H 0.15 0.05434 0.59404 0.0
H6294 H 0.1455 0.04492 0.60716 0.0
C6295 C 0.13905 0.06583 0.61541 0.0
C6296 C 0.20837 0.90296 0.85687 0.0
C6297 C 0.20655 0.89689 0.84959 0.0
H6298 H 0.21475 0.90497 0.86995 0.0
C6299 C 0.2104 0.88804 0.84991 0.0
H6300 H 0.20573 0.9099 0.85678 0.0
C6301 C 0.2157 0.88526 0.85744 0.0
C6302 C 0.21719 0.89124 0.86484 0.0
H6303 H 0.20908 0.88315 0.84448 0.0
H6304 H 0.21838 0.87833 0.85761 0.0
C6305 C 0.21357 0.90016 0.86441 0.0
C6306 C 0.64548 0.46208 0.42032 0.0
C6307 C 0.64443 0.4525 0.42013 0.0
H6308 H 0.64413 0.47472 0.41296 0.0
C6309 C 0.64039 0.44841 0.4124 0.0
H6310 H 0.64864 0.46541 0.42616 0.0
C6311 C 0.63772 0.45373 0.40489 0.0
C6312 C 0.63911 0.46327 0.40488 0.0
H6313 H 0.63933 0.44107 0.41213 0.0
H6314 H 0.63465 0.45034 0.39904 0.0
C6315 C 0.64288 0.4674 0.41276 0.0
C6316 C 0.81381 0.38868 0.66996 0.0
C6317 C 0.81593 0.39799 0.67136 0.0
H6318 H 0.80742 0.37868 0.66126 0.0
C6319 C 0.81255 0.40448 0.66508 0.0
H6320 H 0.81639 0.38348 0.6746 0.0
C6321 C 0.8075 0.40171 0.65741 0.0
C6322 C 0.80564 0.39239 0.65586 0.0
H6323 H 0.81385 0.41172 0.66603 0.0
H6324 H 0.80509 0.40688 0.65264 0.0
C6325 C 0.8087 0.38591 0.66231 0.0
C6326 C 0.7101 0.63053 0.1701 0.0
C6327 C 0.70791 0.62123 0.17143 0.0
H6328 H 0.71657 0.64056 0.16147 0.0
C6329 C 0.71127 0.61476 0.16509 0.0
H6330 H 0.70755 0.63572 0.17477 0.0
C6331 C 0.71636 0.61755 0.15745 0.0
C6332 C 0.71828 0.62687 0.15598 0.0
H6333 H 0.70991 0.60752 0.166 0.0
H6334 H 0.71874 0.61241 0.15265 0.0
C6335 C 0.71525 0.63332 0.16247 0.0
C6336 C 0.60198 0.64351 0.96203 0.0
C6337 C 0.60213 0.64237 0.95246 0.0
H6338 H 0.60938 0.64223 0.97468 0.0
C6339 C 0.60985 0.63824 0.94838 0.0
H6340 H 0.59614 0.64672 0.96536 0.0
C6341 C 0.61738 0.63558 0.95371 0.0
C6342 C 0.61742 0.63706 0.96324 0.0
H6343 H 0.6101 0.63712 0.94104 0.0
H6344 H 0.62322 0.63244 0.95032 0.0
C6345 C 0.60956 0.64091 0.96737 0.0
C6346 C 0.63547 0.35033 0.20777 0.0
C6347 C 0.62661 0.35002 0.20385 0.0
H6348 H 0.64512 0.35799 0.21587 0.0
C6349 C 0.6205 0.35729 0.2056 0.0
H6350 H 0.64039 0.3449 0.2065 0.0
C6351 C 0.62325 0.3648 0.21085 0.0
C6352 C 0.63216 0.36521 0.21458 0.0
H6353 H 0.61356 0.3572 0.2029 0.0
H6354 H 0.61839 0.37031 0.21202 0.0
C6355 C 0.63819 0.35783 0.21311 0.0
C6356 C 0.92196 0.37625 0.46202 0.0
C6357 C 0.92181 0.37731 0.45244 0.0
H6358 H 0.91456 0.37764 0.47467 0.0
C6359 C 0.91408 0.38139 0.44833 0.0
H6360 H 0.9278 0.37307 0.46537 0.0
C6361 C 0.90655 0.38409 0.45364 0.0
C6362 C 0.90651 0.3827 0.4632 0.0
H6363 H 0.91384 0.38245 0.44098 0.0
H6364 H 0.90071 0.38719 0.45024 0.0
C6365 C 0.91438 0.37889 0.46735 0.0
C6366 C 0.8911 0.66179 0.69794 0.0
C6367 C 0.89517 0.66955 0.70195 0.0
H6368 H 0.88528 0.64849 0.7 0.0
C6369 C 0.89627 0.6698 0.71152 0.0
H6370 H 0.89002 0.66146 0.69059 0.0
C6371 C 0.89364 0.66231 0.71693 0.0
C6372 C 0.88979 0.65443 0.71289 0.0
H6373 H 0.89945 0.67566 0.7148 0.0
H6374 H 0.8949 0.66259 0.72425 0.0
C6375 C 0.88841 0.65435 0.70334 0.0
C6376 C 0.61042 0.38089 0.57184 0.0
C6377 C 0.60272 0.37673 0.56778 0.0
H6378 H 0.62379 0.38671 0.56989 0.0
C6379 C 0.6026 0.37551 0.55822 0.0
H6380 H 0.61064 0.38207 0.57918 0.0
C6381 C 0.61019 0.37809 0.55288 0.0
C6382 C 0.61804 0.38199 0.55699 0.0
H6383 H 0.59678 0.37227 0.55491 0.0
H6384 H 0.61004 0.37672 0.54558 0.0
C6385 C 0.61797 0.38353 0.56652 0.0
C6386 C 0.89019 0.34876 0.81015 0.0
C6387 C 0.89812 0.34903 0.81569 0.0
H6388 H 0.88126 0.35609 0.80104 0.0
C6389 C 0.90326 0.35719 0.81604 0.0
H6390 H 0.88611 0.34257 0.80964 0.0
C6391 C 0.90057 0.36487 0.81099 0.0
C6392 C 0.8926 0.36465 0.80552 0.0
H6393 H 0.90932 0.35773 0.82032 0.0
H6394 H 0.90479 0.37098 0.81135 0.0
C6395 C 0.88747 0.35648 0.80513 0.0
C6396 C 0.91382 0.63822 0.07206 0.0
C6397 C 0.92153 0.64238 0.06799 0.0
H6398 H 0.90046 0.63241 0.07012 0.0
C6399 C 0.92166 0.64358 0.05842 0.0
H6400 H 0.9136 0.63705 0.0794 0.0
C6401 C 0.91407 0.641 0.05309 0.0
C6402 C 0.90622 0.63711 0.05721 0.0
H6403 H 0.92748 0.64683 0.0551 0.0
H6404 H 0.91422 0.64237 0.04579 0.0
C6405 C 0.90629 0.63558 0.06674 0.0
C6406 C 0.62779 0.66992 0.3082 0.0
C6407 C 0.62901 0.66971 0.31776 0.0
H6408 H 0.62902 0.66266 0.29549 0.0
C6409 C 0.63317 0.66199 0.32175 0.0
H6410 H 0.62454 0.67575 0.30494 0.0
C6411 C 0.63583 0.65454 0.31635 0.0
C6412 C 0.63432 0.65457 0.30682 0.0
H6413 H 0.63435 0.66169 0.32909 0.0
H6414 H 0.63903 0.64871 0.31967 0.0
C6415 C 0.63039 0.66242 0.30279 0.0
C6416 C 0.958 0.60669 0.65249 0.0
C6417 C 0.95614 0.59944 0.6464 0.0
H6418 H 0.96443 0.61973 0.65452 0.0
C6419 C 0.95999 0.59976 0.63753 0.0
H6420 H 0.95537 0.60658 0.65944 0.0
C6421 C 0.96531 0.60728 0.63475 0.0
C6422 C 0.96683 0.61465 0.64076 0.0
H6423 H 0.95864 0.59435 0.63262 0.0
H6424 H 0.96798 0.60747 0.62782 0.0
C6425 C 0.96323 0.61421 0.64969 0.0
C6426 C 0.67201 0.71209 0.89443 0.0
C6427 C 0.6719 0.70253 0.89328 0.0
H6428 H 0.66456 0.7247 0.89314 0.0
C6429 C 0.66421 0.69843 0.88911 0.0
H6430 H 0.67782 0.71543 0.89768 0.0
C6431 C 0.65668 0.70373 0.88642 0.0
C6432 C 0.65659 0.71325 0.88791 0.0
H6433 H 0.66401 0.6911 0.88797 0.0
H6434 H 0.65087 0.70033 0.88324 0.0
C6435 C 0.66442 0.7174 0.89181 0.0
C6436 C 0.56616 0.4126 0.15268 0.0
C6437 C 0.56808 0.41984 0.1466 0.0
H6438 H 0.55968 0.39957 0.15467 0.0
C6439 C 0.56432 0.41952 0.1377 0.0
H6440 H 0.56872 0.4127 0.15965 0.0
C6441 C 0.559 0.41201 0.13489 0.0
C6442 C 0.55741 0.40464 0.14089 0.0
H6443 H 0.56571 0.42493 0.1328 0.0
H6444 H 0.5564 0.41183 0.12793 0.0
C6445 C 0.56094 0.40508 0.14985 0.0
C6446 C 0.85248 0.31165 0.38725 0.0
C6447 C 0.85209 0.31544 0.39613 0.0
H6448 H 0.86032 0.30379 0.37754 0.0
C6449 C 0.85936 0.31364 0.40224 0.0
H6450 H 0.84705 0.31296 0.38233 0.0
C6451 C 0.86697 0.3085 0.39945 0.0
C6452 C 0.86748 0.30495 0.39051 0.0
H6453 H 0.85921 0.31623 0.4092 0.0
H6454 H 0.8725 0.30733 0.4043 0.0
C6455 C 0.86008 0.30642 0.38448 0.0
C6456 C 0.96309 0.4197 0.87606 0.0
C6457 C 0.95348 0.4194 0.87716 0.0
H6458 H 0.97589 0.4125 0.87733 0.0
C6459 C 0.94949 0.4116 0.88117 0.0
H6460 H 0.96636 0.4256 0.87293 0.0
C6461 C 0.95493 0.40415 0.88377 0.0
C6462 C 0.96451 0.40427 0.88235 0.0
H6463 H 0.94212 0.41124 0.88227 0.0
H6464 H 0.9516 0.39825 0.88683 0.0
C6465 C 0.96855 0.4122 0.8786 0.0
C6466 C 0.85173 0.71164 0.12659 0.0
C6467 C 0.85183 0.70208 0.12777 0.0
H6468 H 0.8592 0.72425 0.12784 0.0
C6469 C 0.85951 0.69799 0.13194 0.0
H6470 H 0.84593 0.71498 0.12333 0.0
C6471 C 0.86706 0.70329 0.13461 0.0
C6472 C 0.86715 0.71281 0.1331 0.0
H6473 H 0.85971 0.69066 0.1331 0.0
H6474 H 0.87287 0.69989 0.13779 0.0
C6475 C 0.85933 0.71695 0.1292 0.0
C6476 C 0.56596 0.60696 0.36772 0.0
C6477 C 0.56783 0.59971 0.37381 0.0
H6478 H 0.55952 0.61999 0.3657 0.0
C6479 C 0.56401 0.60003 0.38268 0.0
H6480 H 0.56857 0.60685 0.36076 0.0
C6481 C 0.55869 0.60754 0.38547 0.0
C6482 C 0.55715 0.61492 0.37946 0.0
H6483 H 0.56536 0.59462 0.38758 0.0
H6484 H 0.55603 0.60773 0.39241 0.0
C6485 C 0.56074 0.61448 0.37053 0.0
C6486 C 0.67242 0.30748 0.62633 0.0
C6487 C 0.6723 0.31703 0.62753 0.0
H6488 H 0.66498 0.29485 0.62755 0.0
C6489 C 0.66459 0.3211 0.6317 0.0
H6490 H 0.67824 0.30416 0.62308 0.0
C6491 C 0.65705 0.31578 0.63435 0.0
C6492 C 0.65698 0.30626 0.63281 0.0
H6493 H 0.66437 0.32843 0.63287 0.0
H6494 H 0.65122 0.31915 0.63752 0.0
C6495 C 0.66483 0.30215 0.62892 0.0
C6496 C 0.64037 0.94817 0.60839 0.0
C6497 C 0.64456 0.95227 0.60073 0.0
H6498 H 0.63452 0.95005 0.62171 0.0
C6499 C 0.64577 0.96182 0.60065 0.0
H6500 H 0.63919 0.94084 0.60858 0.0
C6501 C 0.64318 0.96712 0.60823 0.0
C6502 C 0.63926 0.96298 0.61604 0.0
H6503 H 0.64904 0.96516 0.59486 0.0
H6504 H 0.64456 0.97441 0.60811 0.0
C6505 C 0.63772 0.95346 0.61592 0.0
C6506 C 0.14544 0.55771 0.42019 0.0
C6507 C 0.14439 0.56728 0.41997 0.0
H6508 H 0.14403 0.54503 0.41292 0.0
C6509 C 0.14031 0.57133 0.41223 0.0
H6510 H 0.14862 0.5544 0.42604 0.0
C6511 C 0.13759 0.56598 0.40477 0.0
C6512 C 0.13896 0.55643 0.40481 0.0
H6513 H 0.13926 0.57868 0.41193 0.0
H6514 H 0.13448 0.56934 0.39892 0.0
C6515 C 0.14278 0.55234 0.41268 0.0
C6516 C 0.70007 0.88842 0.66244 0.0
C6517 C 0.70418 0.89252 0.67013 0.0
H6518 H 0.70199 0.88264 0.6491 0.0
C6519 C 0.71379 0.89364 0.67026 0.0
H6520 H 0.6927 0.88731 0.66221 0.0
C6521 C 0.71913 0.89105 0.66269 0.0
C6522 C 0.71497 0.88721 0.65486 0.0
H6523 H 0.71714 0.89683 0.67608 0.0
H6524 H 0.72647 0.89235 0.66286 0.0
C6525 C 0.7054 0.88576 0.65492 0.0
C6526 C 0.38339 0.44769 0.91235 0.0
C6527 C 0.37934 0.4517 0.92012 0.0
H6528 H 0.38917 0.44975 0.89901 0.0
C6529 C 0.37824 0.46126 0.92038 0.0
H6530 H 0.38448 0.44035 0.91202 0.0
C6531 C 0.38084 0.46666 0.91287 0.0
C6532 C 0.38466 0.46262 0.90497 0.0
H6533 H 0.37507 0.46454 0.92625 0.0
H6534 H 0.37956 0.47397 0.91314 0.0
C6535 C 0.38605 0.45308 0.90488 0.0
C6536 C 0.3107 0.62594 0.67007 0.0
C6537 C 0.32031 0.627 0.66985 0.0
H6538 H 0.29798 0.62721 0.66275 0.0
C6539 C 0.3244 0.63096 0.66207 0.0
H6540 H 0.30736 0.62284 0.67595 0.0
C6541 C 0.31904 0.63355 0.65455 0.0
C6542 C 0.30945 0.63216 0.65459 0.0
H6543 H 0.33178 0.63203 0.66177 0.0
H6544 H 0.32243 0.63657 0.64866 0.0
C6545 C 0.30532 0.62846 0.66251 0.0
C6546 C 0.88381 0.07164 0.10839 0.0
C6547 C 0.87977 0.06764 0.10061 0.0
H6548 H 0.88958 0.06957 0.12171 0.0
C6549 C 0.8787 0.05807 0.10033 0.0
H6550 H 0.88488 0.07898 0.10873 0.0
C6551 C 0.88131 0.05266 0.10783 0.0
C6552 C 0.88511 0.05669 0.11573 0.0
H6553 H 0.87554 0.05479 0.09445 0.0
H6554 H 0.88006 0.04535 0.10754 0.0
C6555 C 0.88648 0.06624 0.11584 0.0
C6556 C 0.71401 0.12592 0.85019 0.0
C6557 C 0.7044 0.12702 0.85027 0.0
H6558 H 0.72664 0.12726 0.85766 0.0
C6559 C 0.70024 0.13115 0.85793 0.0
H6560 H 0.71741 0.1227 0.84441 0.0
C6561 C 0.70552 0.13385 0.86546 0.0
C6562 C 0.71509 0.13241 0.86558 0.0
H6563 H 0.69286 0.13225 0.85811 0.0
H6564 H 0.70206 0.13699 0.87125 0.0
C6565 C 0.7193 0.12855 0.85778 0.0
C6566 C 0.82403 0.88897 0.35778 0.0
C6567 C 0.81994 0.89316 0.35012 0.0
H6568 H 0.82207 0.88303 0.37104 0.0
C6569 C 0.81033 0.89427 0.34998 0.0
H6570 H 0.8314 0.88787 0.35802 0.0
C6571 C 0.80497 0.89158 0.3575 0.0
C6572 C 0.8091 0.88766 0.3653 0.0
H6573 H 0.80699 0.89753 0.34419 0.0
H6574 H 0.79763 0.89287 0.35733 0.0
C6575 C 0.81868 0.88622 0.36525 0.0
C6576 C 0.41452 0.37984 0.07174 0.0
C6577 C 0.42221 0.37569 0.06762 0.0
H6578 H 0.40119 0.38575 0.06987 0.0
C6579 C 0.42232 0.37459 0.05804 0.0
H6580 H 0.41431 0.38093 0.07909 0.0
C6581 C 0.41474 0.37726 0.05274 0.0
C6582 C 0.40692 0.38116 0.0569 0.0
H6583 H 0.42813 0.37136 0.05469 0.0
H6584 H 0.4149 0.37598 0.04543 0.0
C6585 C 0.40699 0.38258 0.06645 0.0
C6586 C 0.39141 0.66216 0.82164 0.0
C6587 C 0.39549 0.66987 0.81755 0.0
H6588 H 0.38559 0.64884 0.81973 0.0
C6589 C 0.39659 0.67002 0.80797 0.0
H6590 H 0.39031 0.66191 0.82899 0.0
C6591 C 0.39397 0.66247 0.80264 0.0
C6592 C 0.39013 0.65463 0.80678 0.0
H6593 H 0.39978 0.67585 0.80463 0.0
H6594 H 0.39524 0.66266 0.79532 0.0
C6595 C 0.38872 0.65466 0.81633 0.0
C6596 C 0.10921 0.65282 0.56356 0.0
C6597 C 0.10198 0.64668 0.56544 0.0
H6598 H 0.12232 0.6549 0.55717 0.0
C6599 C 0.10239 0.63779 0.56171 0.0
H6600 H 0.10904 0.65979 0.56611 0.0
C6601 C 0.10999 0.63504 0.55646 0.0
C6602 C 0.11735 0.64109 0.5549 0.0
H6603 H 0.097 0.63286 0.56308 0.0
H6604 H 0.11024 0.62808 0.55387 0.0
C6605 C 0.11682 0.65004 0.55841 0.0
C6606 C 0.13236 0.35719 0.32161 0.0
C6607 C 0.12832 0.34942 0.31759 0.0
H6608 H 0.13814 0.37051 0.31956 0.0
C6609 C 0.12723 0.34917 0.30801 0.0
H6610 H 0.13344 0.35751 0.32896 0.0
C6611 C 0.12984 0.35668 0.30261 0.0
C6612 C 0.13366 0.36456 0.30667 0.0
H6613 H 0.12407 0.34331 0.30473 0.0
H6614 H 0.12858 0.3564 0.2953 0.0
C6615 C 0.13503 0.36465 0.31622 0.0
C6616 C 0.42186 0.63794 0.45849 0.0
C6617 C 0.42226 0.64688 0.45485 0.0
H6618 H 0.41406 0.62813 0.46625 0.0
C6619 C 0.41502 0.65297 0.45683 0.0
H6620 H 0.42726 0.63303 0.45704 0.0
C6621 C 0.40744 0.65012 0.46199 0.0
C6622 C 0.40694 0.64113 0.4654 0.0
H6623 H 0.41517 0.65997 0.45437 0.0
H6624 H 0.40194 0.65496 0.46331 0.0
C6625 C 0.4143 0.63511 0.46374 0.0
C6626 C 0.12647 0.66978 0.21302 0.0
C6627 C 0.12765 0.66966 0.20345 0.0
H6628 H 0.12772 0.66238 0.22565 0.0
C6629 C 0.13178 0.66197 0.19936 0.0
H6630 H 0.12325 0.67559 0.21635 0.0
C6631 C 0.13443 0.65446 0.20467 0.0
C6632 C 0.13294 0.6544 0.21421 0.0
H6633 H 0.13293 0.66175 0.19202 0.0
H6634 H 0.1376 0.64865 0.20128 0.0
C6635 C 0.12906 0.66221 0.21834 0.0
C6636 C 0.10138 0.37477 0.96215 0.0
C6637 C 0.10158 0.37593 0.95258 0.0
H6638 H 0.10873 0.37603 0.97482 0.0
C6639 C 0.10933 0.38003 0.94853 0.0
H6640 H 0.09552 0.37157 0.96545 0.0
C6641 C 0.11684 0.38267 0.95389 0.0
C6642 C 0.11684 0.3812 0.96343 0.0
H6643 H 0.10961 0.38116 0.94119 0.0
H6644 H 0.1227 0.38581 0.95053 0.0
C6645 C 0.10895 0.37735 0.96752 0.0
C6646 C 0.39224 0.35758 0.69857 0.0
C6647 C 0.39626 0.34983 0.70263 0.0
H6648 H 0.38647 0.37091 0.70055 0.0
C6649 C 0.39735 0.34963 0.71221 0.0
H6650 H 0.39116 0.35787 0.69122 0.0
C6651 C 0.39475 0.35716 0.71757 0.0
C6652 C 0.39094 0.36503 0.71347 0.0
H6653 H 0.4005 0.34377 0.71552 0.0
H6654 H 0.39601 0.35692 0.72488 0.0
C6655 C 0.38957 0.36507 0.70392 0.0
C6656 C 0.06401 0.41986 0.38151 0.0
C6657 C 0.06778 0.42015 0.37261 0.0
H6658 H 0.05613 0.41218 0.39134 0.0
C6659 C 0.06593 0.41284 0.36659 0.0
H6660 H 0.06536 0.42531 0.38637 0.0
C6661 C 0.06077 0.4053 0.36948 0.0
C6662 C 0.05722 0.40491 0.37844 0.0
H6663 H 0.06851 0.41291 0.35962 0.0
H6664 H 0.05956 0.39975 0.3647 0.0
C6665 C 0.05875 0.41234 0.38438 0.0
C6666 C 0.35165 0.30787 0.12558 0.0
C6667 C 0.35189 0.31744 0.12658 0.0
H6668 H 0.35895 0.2952 0.12699 0.0
C6669 C 0.3597 0.32152 0.13052 0.0
H6670 H 0.34575 0.30454 0.1225 0.0
C6671 C 0.36722 0.31618 0.13318 0.0
C6672 C 0.36715 0.30662 0.13191 0.0
H6673 H 0.36002 0.32887 0.13153 0.0
H6674 H 0.37312 0.31956 0.13622 0.0
C6675 C 0.35921 0.30252 0.12818 0.0
C6676 C 0.45825 0.60644 0.8668 0.0
C6677 C 0.45643 0.59918 0.87289 0.0
H6678 H 0.46458 0.61953 0.86477 0.0
C6679 C 0.46022 0.59955 0.88177 0.0
H6680 H 0.45566 0.6063 0.85983 0.0
C6681 C 0.46547 0.60711 0.88456 0.0
C6682 C 0.46696 0.61449 0.87854 0.0
H6683 H 0.4589 0.59414 0.88668 0.0
H6684 H 0.4681 0.60733 0.8915 0.0
C6685 C 0.46339 0.61402 0.8696 0.0
C6686 C 0.16462 0.69799 0.63118 0.0
C6687 C 0.17237 0.70208 0.62713 0.0
H6688 H 0.15123 0.69991 0.63697 0.0
C6689 C 0.17257 0.71166 0.62611 0.0
H6690 H 0.16434 0.69064 0.63221 0.0
C6691 C 0.165 0.71699 0.62876 0.0
C6692 C 0.1571 0.71285 0.63254 0.0
H6693 H 0.17843 0.715 0.62295 0.0
H6694 H 0.16521 0.72431 0.62753 0.0
C6695 C 0.1571 0.70331 0.63389 0.0
C6696 C 0.07338 0.6071 0.14038 0.0
C6697 C 0.06922 0.5994 0.14443 0.0
H6698 H 0.07153 0.62042 0.13456 0.0
C6699 C 0.0596 0.59926 0.14545 0.0
H6700 H 0.08076 0.60734 0.13935 0.0
C6701 C 0.05429 0.60682 0.1428 0.0
C6702 C 0.05848 0.61465 0.139 0.0
H6703 H 0.05621 0.59345 0.1486 0.0
H6704 H 0.04694 0.60664 0.14402 0.0
C6705 C 0.06808 0.61461 0.13766 0.0
C6706 C 0.16454 0.32095 0.88987 0.0
C6707 C 0.17224 0.31688 0.89403 0.0
H6708 H 0.15119 0.31901 0.88402 0.0
C6709 C 0.17237 0.30733 0.89522 0.0
H6710 H 0.16431 0.32828 0.88871 0.0
C6711 C 0.16478 0.30199 0.89262 0.0
C6712 C 0.15695 0.3061 0.88871 0.0
H6713 H 0.17819 0.30401 0.89847 0.0
H6714 H 0.16495 0.2947 0.89397 0.0
C6715 C 0.15701 0.31563 0.88721 0.0
C6716 C 0.45094 0.41221 0.64019 0.0
C6717 C 0.45506 0.41988 0.64432 0.0
H6718 H 0.45285 0.39893 0.63431 0.0
C6719 C 0.46467 0.42001 0.64542 0.0
H6720 H 0.44357 0.41198 0.6391 0.0
C6721 C 0.47001 0.41247 0.64276 0.0
C6722 C 0.46585 0.40467 0.63887 0.0
H6723 H 0.46803 0.42581 0.64863 0.0
H6724 H 0.47735 0.41264 0.64403 0.0
C6725 C 0.45626 0.40472 0.63747 0.0
C6726 C 0.3601 0.69811 0.38949 0.0
C6727 C 0.35226 0.70218 0.39338 0.0
H6728 H 0.37352 0.70009 0.38379 0.0
C6729 C 0.35197 0.71177 0.39427 0.0
H6730 H 0.36046 0.69075 0.38857 0.0
C6731 C 0.35951 0.71714 0.39162 0.0
C6732 C 0.36747 0.71304 0.38796 0.0
H6733 H 0.34604 0.71509 0.39732 0.0
H6734 H 0.3592 0.72447 0.39273 0.0
C6735 C 0.3676 0.70347 0.38677 0.0
C6736 C 0.37857 0.05731 0.42039 0.0
C6737 C 0.37968 0.06688 0.42021 0.0
H6738 H 0.37988 0.04466 0.41305 0.0
C6739 C 0.38379 0.07094 0.41249 0.0
H6740 H 0.37537 0.05399 0.42623 0.0
C6741 C 0.38646 0.06561 0.40499 0.0
C6742 C 0.38501 0.05608 0.40498 0.0
H6743 H 0.38489 0.07828 0.41222 0.0
H6744 H 0.38958 0.06899 0.39915 0.0
C6745 C 0.38118 0.05197 0.41285 0.0
C6746 C 0.88304 0.44812 0.60797 0.0
C6747 C 0.87907 0.45214 0.60016 0.0
H6748 H 0.88865 0.45015 0.62137 0.0
C6749 C 0.87796 0.4617 0.59992 0.0
H6750 H 0.88414 0.44078 0.60829 0.0
C6751 C 0.88046 0.46709 0.60747 0.0
C6752 C 0.88418 0.46303 0.6154 0.0
H6753 H 0.87485 0.46499 0.59402 0.0
H6754 H 0.87917 0.47439 0.6072 0.0
C6755 C 0.88561 0.45349 0.61547 0.0
C6756 C 0.31431 0.13164 0.3505 0.0
C6757 C 0.31784 0.12267 0.34999 0.0
H6758 H 0.30662 0.14143 0.3584 0.0
C6759 C 0.31577 0.11649 0.35711 0.0
H6760 H 0.31584 0.13661 0.3452 0.0
C6761 C 0.31061 0.11929 0.36469 0.0
C6762 C 0.3073 0.12831 0.36531 0.0
H6763 H 0.31816 0.10947 0.35686 0.0
H6764 H 0.30922 0.11439 0.3701 0.0
C6765 C 0.30905 0.13442 0.35807 0.0
C6766 C 0.64089 0.57183 0.10831 0.0
C6767 C 0.64478 0.56788 0.10042 0.0
H6768 H 0.63536 0.56966 0.12174 0.0
C6769 C 0.64586 0.55831 0.10007 0.0
H6770 H 0.63982 0.57916 0.10873 0.0
C6771 C 0.64338 0.55285 0.10757 0.0
C6772 C 0.63971 0.55683 0.11558 0.0
H6773 H 0.64891 0.55508 0.09411 0.0
H6774 H 0.64463 0.54554 0.10721 0.0
C6775 C 0.63835 0.56637 0.11578 0.0
C6776 C 0.7086 0.40313 0.35717 0.0
C6777 C 0.70654 0.39697 0.35003 0.0
H6778 H 0.7151 0.40519 0.37018 0.0
C6779 C 0.71004 0.38799 0.35054 0.0
H6780 H 0.70623 0.41016 0.35692 0.0
C6781 C 0.71526 0.38518 0.35812 0.0
C6782 C 0.717 0.39128 0.36537 0.0
H6783 H 0.70852 0.38303 0.34523 0.0
H6784 H 0.71767 0.37817 0.35845 0.0
C6785 C 0.71372 0.4003 0.36476 0.0
C6786 C 0.14213 0.94829 0.91238 0.0
C6787 C 0.14623 0.95223 0.92016 0.0
H6788 H 0.13641 0.95045 0.89905 0.0
C6789 C 0.14754 0.96177 0.92041 0.0
H6790 H 0.14089 0.94097 0.91206 0.0
C6791 C 0.14506 0.96721 0.91289 0.0
C6792 C 0.14116 0.96324 0.905 0.0
H6793 H 0.15076 0.96499 0.92628 0.0
H6794 H 0.14648 0.97449 0.91317 0.0
C6795 C 0.13958 0.95373 0.90491 0.0
C6796 C 0.31576 0.90322 0.16327 0.0
C6797 C 0.31762 0.89719 0.17058 0.0
H6798 H 0.30937 0.90512 0.15019 0.0
C6799 C 0.31385 0.8883 0.1703 0.0
H6800 H 0.31834 0.91018 0.16334 0.0
C6801 C 0.30857 0.88545 0.16278 0.0
C6802 C 0.30704 0.89139 0.15535 0.0
H6803 H 0.3152 0.88345 0.17575 0.0
H6804 H 0.30595 0.8785 0.16263 0.0
C6805 C 0.31059 0.90034 0.15574 0.0
C6806 C 0.21014 0.13117 0.67043 0.0
C6807 C 0.20634 0.12229 0.67075 0.0
H6808 H 0.21808 0.14092 0.66273 0.0
C6809 C 0.20819 0.11624 0.66347 0.0
H6810 H 0.20879 0.13605 0.67586 0.0
C6811 C 0.21339 0.11907 0.65593 0.0
C6812 C 0.21696 0.128 0.6555 0.0
H6813 H 0.20559 0.10928 0.66356 0.0
H6814 H 0.2146 0.11427 0.65039 0.0
C6815 C 0.21544 0.13398 0.6629 0.0
C6816 C 0.10826 0.21517 0.39803 0.0
C6817 C 0.10693 0.20589 0.39572 0.0
H6818 H 0.117 0.22701 0.39682 0.0
C6819 C 0.11303 0.20175 0.38949 0.0
H6820 H 0.10364 0.21857 0.40276 0.0
C6821 C 0.12063 0.20655 0.38614 0.0
C6822 C 0.12227 0.21563 0.38889 0.0
H6823 H 0.11228 0.1946 0.38764 0.0
H6824 H 0.12548 0.20303 0.38173 0.0
C6825 C 0.11585 0.22002 0.39459 0.0
C6826 C 0.06031 0.85561 0.64094 0.0
C6827 C 0.06296 0.85524 0.65022 0.0
H6828 H 0.05399 0.86357 0.63027 0.0
C6829 C 0.06023 0.86238 0.65611 0.0
H6830 H 0.06223 0.85018 0.63625 0.0
C6831 C 0.05551 0.86997 0.6527 0.0
C6832 C 0.05339 0.87062 0.64333 0.0
H6833 H 0.06222 0.86239 0.66327 0.0
H6834 H 0.0539 0.87556 0.65732 0.0
C6835 C 0.05552 0.86322 0.63753 0.0
C6836 C 0.41131 0.81712 0.88855 0.0
C6837 C 0.41702 0.81296 0.89513 0.0
H6838 H 0.39912 0.81603 0.88039 0.0
C6839 C 0.41526 0.80381 0.89767 0.0
H6840 H 0.41239 0.82417 0.88651 0.0
C6841 C 0.40762 0.79914 0.89413 0.0
C6842 C 0.40157 0.80357 0.88807 0.0
H6843 H 0.41958 0.8004 0.90267 0.0
H6844 H 0.40613 0.79227 0.89655 0.0
C6845 C 0.40366 0.81248 0.88509 0.0
C6846 C 0.46385 0.15708 0.15669 0.0
C6847 C 0.46081 0.16402 0.15071 0.0
H6848 H 0.47062 0.14414 0.15806 0.0
C6849 C 0.46327 0.1635 0.14138 0.0
H6850 H 0.46201 0.15718 0.16389 0.0
C6851 C 0.4682 0.15595 0.13803 0.0
C6852 C 0.47068 0.14875 0.14394 0.0
H6853 H 0.46112 0.16877 0.13661 0.0
H6854 H 0.4696 0.15549 0.13075 0.0
C6855 C 0.46872 0.14955 0.15334 0.0
C6856 C 0.10855 0.80358 0.12267 0.0
C6857 C 0.10668 0.81269 0.12525 0.0
H6858 H 0.11776 0.79211 0.12385 0.0
C6859 C 0.11222 0.81683 0.13198 0.0
H6860 H 0.10436 0.80018 0.11756 0.0
C6861 C 0.11984 0.81222 0.13555 0.0
C6862 C 0.12207 0.80336 0.13251 0.0
H6863 H 0.11106 0.82385 0.13407 0.0
H6864 H 0.12428 0.81577 0.14035 0.0
C6865 C 0.11616 0.79893 0.12631 0.0
C6866 C 0.46855 0.85673 0.37224 0.0
C6867 C 0.45931 0.85512 0.37468 0.0
H6868 H 0.48021 0.86574 0.37335 0.0
C6869 C 0.45509 0.86098 0.38107 0.0
H6870 H 0.47201 0.85229 0.36738 0.0
C6871 C 0.45975 0.86863 0.38443 0.0
C6872 C 0.46877 0.87056 0.38154 0.0
H6873 H 0.44795 0.86002 0.38302 0.0
H6874 H 0.45615 0.87332 0.38895 0.0
C6875 C 0.47327 0.86437 0.3757 0.0
C6876 C 0.41492 0.21601 0.62207 0.0
C6877 C 0.41684 0.20692 0.62469 0.0
H6878 H 0.4057 0.22746 0.62328 0.0
C6879 C 0.41137 0.20281 0.63151 0.0
H6880 H 0.41906 0.21939 0.6169 0.0
C6881 C 0.40377 0.20741 0.63512 0.0
C6882 C 0.4015 0.21625 0.63205 0.0
H6883 H 0.41257 0.1958 0.63362 0.0
H6884 H 0.39938 0.20388 0.63999 0.0
C6885 C 0.40733 0.22066 0.62577 0.0
C6886 C 0.06946 0.15757 0.88183 0.0
C6887 C 0.06541 0.16368 0.87557 0.0
H6888 H 0.06807 0.14504 0.88937 0.0
C6889 C 0.05615 0.16235 0.87306 0.0
H6890 H 0.07659 0.15832 0.88385 0.0
C6891 C 0.05126 0.1547 0.87624 0.0
C6892 C 0.05559 0.14823 0.88192 0.0
H6893 H 0.05281 0.167 0.86832 0.0
H6894 H 0.04432 0.15354 0.87379 0.0
C6895 C 0.0646 0.14992 0.88495 0.0
C6896 C 0.39999 0.10643 0.21663 0.0
C6897 C 0.39769 0.10458 0.20743 0.0
H6898 H 0.39846 0.11559 0.22807 0.0
C6899 C 0.39114 0.11016 0.20306 0.0
H6900 H 0.40495 0.10221 0.22021 0.0
C6901 C 0.38745 0.11777 0.20754 0.0
C6902 C 0.39019 0.11996 0.21652 0.0
H6903 H 0.38927 0.109 0.19596 0.0
H6904 H 0.38276 0.12219 0.20384 0.0
C6905 C 0.39623 0.11404 0.22115 0.0
C6906 C 0.16519 0.14738 0.4661 0.0
C6907 C 0.16698 0.14504 0.4569 0.0
H6908 H 0.15608 0.14593 0.47763 0.0
C6909 C 0.16134 0.13848 0.45262 0.0
H6910 H 0.16947 0.15234 0.46962 0.0
C6911 C 0.15372 0.13485 0.45719 0.0
C6912 C 0.1516 0.13763 0.46616 0.0
H6913 H 0.16244 0.13659 0.44552 0.0
H6914 H 0.14924 0.13016 0.45355 0.0
C6915 C 0.15759 0.14366 0.47071 0.0
C6916 C 0.13316 0.90927 0.70314 0.0
C6917 C 0.12653 0.91478 0.70748 0.0
H6918 H 0.14154 0.89723 0.70391 0.0
C6919 C 0.12409 0.91282 0.71663 0.0
H6920 H 0.13514 0.91051 0.69609 0.0
C6921 C 0.12779 0.90516 0.72112 0.0
C6922 C 0.13391 0.89931 0.7165 0.0
H6923 H 0.11906 0.91699 0.72018 0.0
H6924 H 0.12545 0.90352 0.72798 0.0
C6925 C 0.13679 0.90161 0.70759 0.0
C6926 C 0.35917 0.87163 0.96633 0.0
C6927 C 0.35726 0.87424 0.95723 0.0
H6928 H 0.36842 0.87278 0.97778 0.0
C6929 C 0.36279 0.88099 0.95309 0.0
H6930 H 0.35498 0.86651 0.96973 0.0
C6931 C 0.37043 0.88453 0.95767 0.0
C6932 C 0.37269 0.88148 0.96652 0.0
H6933 H 0.3616 0.88309 0.94606 0.0
H6934 H 0.37486 0.88935 0.95412 0.0
C6935 C 0.3668 0.87526 0.97096 0.0
C6936 C 0.39929 0.91262 0.30339 0.0
C6937 C 0.39679 0.91448 0.31254 0.0
H6938 H 0.39808 0.9034 0.29195 0.0
C6939 C 0.39015 0.90889 0.31678 0.0
H6940 H 0.40432 0.91685 0.29991 0.0
C6941 C 0.38661 0.90124 0.31224 0.0
C6942 C 0.38958 0.89903 0.30334 0.0
H6943 H 0.38813 0.91004 0.32384 0.0
H6944 H 0.38188 0.89678 0.31587 0.0
C6945 C 0.39567 0.90498 0.29881 0.0
C6946 C 0.36266 0.13868 0.5671 0.0
C6947 C 0.35706 0.14542 0.56305 0.0
H6948 H 0.37473 0.13036 0.56588 0.0
C6949 C 0.35885 0.14807 0.55393 0.0
H6950 H 0.36154 0.13654 0.57412 0.0
C6951 C 0.36644 0.14449 0.54919 0.0
C6952 C 0.3724 0.13828 0.55353 0.0
H6953 H 0.35461 0.15319 0.5506 0.0
H6954 H 0.36797 0.147 0.54237 0.0
C6955 C 0.37026 0.13518 0.5624 0.0
C6956 C 0.12352 0.1066 0.8031 0.0
C6957 C 0.12599 0.10453 0.81221 0.0
H6958 H 0.12483 0.11603 0.79185 0.0
C6959 C 0.13263 0.11001 0.81658 0.0
H6960 H 0.11848 0.10246 0.79952 0.0
C6961 C 0.13622 0.11773 0.81221 0.0
C6962 C 0.13332 0.12013 0.80334 0.0
H6963 H 0.13462 0.10869 0.82362 0.0
H6964 H 0.14098 0.12208 0.81593 0.0
C6965 C 0.1272 0.11431 0.79868 0.0
C6966 C 0.16123 0.881 0.06765 0.0
C6967 C 0.16682 0.87427 0.06357 0.0
H6968 H 0.14917 0.88934 0.06648 0.0
C6969 C 0.16502 0.87167 0.05444 0.0
H6970 H 0.16234 0.8831 0.07469 0.0
C6971 C 0.15745 0.87529 0.04972 0.0
C6972 C 0.1515 0.88149 0.0541 0.0
H6973 H 0.16926 0.86656 0.05108 0.0
H6974 H 0.15592 0.87282 0.04288 0.0
C6975 C 0.15364 0.88453 0.06298 0.0
C6976 C 0.21399 0.40574 0.11287 0.0
C6977 C 0.21092 0.39971 0.106 0.0
H6978 H 0.22075 0.40721 0.12583 0.0
C6979 C 0.21331 0.39038 0.10662 0.0
H6980 H 0.21221 0.41294 0.11269 0.0
C6981 C 0.2182 0.38709 0.11422 0.0
C6982 C 0.22071 0.39306 0.12136 0.0
H6983 H 0.21113 0.38558 0.10139 0.0
H6984 H 0.21955 0.37981 0.11476 0.0
C6985 C 0.21882 0.40245 0.12046 0.0
C6986 C 0.70412 0.13107 0.90929 0.0
C6987 C 0.70826 0.12444 0.91493 0.0
H6988 H 0.70529 0.13937 0.89724 0.0
C6989 C 0.71746 0.12192 0.91321 0.0
H6990 H 0.69702 0.1331 0.91034 0.0
C6991 C 0.72221 0.12556 0.90567 0.0
C6992 C 0.71779 0.13168 0.89968 0.0
H6993 H 0.72085 0.11689 0.91749 0.0
H6994 H 0.72911 0.12316 0.90421 0.0
C6995 C 0.70882 0.13462 0.90173 0.0
C6996 C 0.14133 0.45288 0.15977 0.0
C6997 C 0.14768 0.45731 0.16554 0.0
H6998 H 0.13328 0.45359 0.1475 0.0
C6999 C 0.14987 0.46655 0.16379 0.0
H7000 H 0.13956 0.44574 0.16084 0.0
C7001 C 0.14623 0.47106 0.15612 0.0
C7002 C 0.14043 0.46636 0.15002 0.0
H7003 H 0.15468 0.47018 0.16816 0.0
H7004 H 0.14839 0.47801 0.15464 0.0
C7005 C 0.13778 0.45734 0.15209 0.0
C7006 C 0.8197 0.8886 0.40907 0.0
C7007 C 0.81554 0.89521 0.41472 0.0
H7008 H 0.81859 0.88037 0.39697 0.0
C7009 C 0.80635 0.89775 0.41297 0.0
H7010 H 0.82678 0.88655 0.41015 0.0
C7011 C 0.80165 0.89417 0.40538 0.0
C7012 C 0.80609 0.88808 0.39938 0.0
H7013 H 0.80293 0.90277 0.41725 0.0
H7014 H 0.79476 0.89659 0.40389 0.0
C7015 C 0.81503 0.8851 0.40147 0.0
C7016 C 0.88386 0.06651 0.15966 0.0
C7017 C 0.87728 0.0622 0.16526 0.0
H7018 H 0.89215 0.0657 0.14754 0.0
C7019 C 0.87487 0.05304 0.16338 0.0
H7020 H 0.88581 0.07358 0.16083 0.0
C7021 C 0.87853 0.04851 0.15572 0.0
C7022 C 0.88458 0.05311 0.14978 0.0
H7023 H 0.86988 0.0495 0.16762 0.0
H7024 H 0.87619 0.04164 0.15414 0.0
C7025 C 0.88745 0.06203 0.152 0.0
C7026 C 0.31972 0.63005 0.61072 0.0
C7027 C 0.31541 0.62339 0.60522 0.0
H7028 H 0.31883 0.63851 0.62268 0.0
C7029 C 0.30621 0.62099 0.60713 0.0
H7030 H 0.32681 0.63199 0.60952 0.0
C7031 C 0.30163 0.62476 0.6147 0.0
C7032 C 0.30621 0.63091 0.62054 0.0
H7033 H 0.30269 0.61594 0.60297 0.0
H7034 H 0.29472 0.62246 0.61631 0.0
C7035 C 0.31518 0.63374 0.6183 0.0
C7036 C 0.14945 0.55313 0.35727 0.0
C7037 C 0.14699 0.56228 0.3554 0.0
H7038 H 0.14812 0.54168 0.36644 0.0
C7039 C 0.1403 0.5665 0.36094 0.0
H7040 H 0.15453 0.54966 0.35307 0.0
C7041 C 0.13667 0.56195 0.36855 0.0
C7042 C 0.13959 0.55305 0.37076 0.0
H7043 H 0.1383 0.57356 0.35978 0.0
H7044 H 0.13189 0.56556 0.37297 0.0
C7045 C 0.14575 0.54853 0.36486 0.0
C7046 C 0.38361 0.45276 0.86102 0.0
C7047 C 0.37709 0.45709 0.85535 0.0
H7048 H 0.39177 0.45356 0.87321 0.0
C7049 C 0.37468 0.46625 0.85722 0.0
H7050 H 0.38556 0.44569 0.85986 0.0
C7051 C 0.37827 0.47077 0.86491 0.0
C7052 C 0.38425 0.46617 0.87091 0.0
H7053 H 0.36974 0.4698 0.85293 0.0
H7054 H 0.37594 0.47765 0.86647 0.0
C7055 C 0.38712 0.45724 0.86871 0.0
C7056 C 0.91539 0.80312 0.62209 0.0
C7057 C 0.91725 0.81228 0.62448 0.0
H7058 H 0.90609 0.79172 0.62332 0.0
C7059 C 0.91154 0.81662 0.63095 0.0
H7060 H 0.91971 0.79957 0.61718 0.0
C7061 C 0.9038 0.81214 0.63444 0.0
C7062 C 0.9016 0.80321 0.63158 0.0
H7063 H 0.91269 0.82369 0.63289 0.0
H7064 H 0.89927 0.81582 0.63906 0.0
C7065 C 0.90765 0.7986 0.62564 0.0
C7066 C 0.96376 0.16294 0.3789 0.0
C7067 C 0.96133 0.16362 0.36958 0.0
H7068 H 0.96998 0.15473 0.38942 0.0
C7069 C 0.96435 0.15676 0.3635 0.0
H7070 H 0.96163 0.16816 0.38374 0.0
C7071 C 0.96915 0.14914 0.36674 0.0
C7072 C 0.97107 0.14819 0.37613 0.0
H7073 H 0.96254 0.15699 0.3563 0.0
H7074 H 0.97103 0.14379 0.36194 0.0
C7075 C 0.96862 0.15531 0.38214 0.0
C7076 C 0.61286 0.20262 0.13084 0.0
C7077 C 0.60707 0.20685 0.12438 0.0
H7078 H 0.62514 0.20362 0.1389 0.0
C7079 C 0.60881 0.21602 0.12192 0.0
H7080 H 0.6118 0.19554 0.13283 0.0
C7081 C 0.61649 0.22066 0.12542 0.0
C7082 C 0.62261 0.21616 0.13137 0.0
H7083 H 0.60442 0.21949 0.11702 0.0
H7084 H 0.61794 0.22755 0.12307 0.0
C7085 C 0.62055 0.20721 0.13427 0.0
C7086 C 0.56901 0.86088 0.88066 0.0
C7087 C 0.56458 0.85525 0.87419 0.0
H7088 H 0.56836 0.87307 0.88879 0.0
C7089 C 0.55539 0.85722 0.8718 0.0
H7090 H 0.5761 0.85964 0.88259 0.0
C7091 C 0.55095 0.86496 0.87538 0.0
C7092 C 0.55566 0.87091 0.88133 0.0
H7093 H 0.55177 0.85297 0.8669 0.0
H7094 H 0.54405 0.86659 0.87308 0.0
C7095 C 0.56461 0.86862 0.88416 0.0
C7096 C 0.91091 0.20314 0.89012 0.0
C7097 C 0.91673 0.20734 0.89657 0.0
H7098 H 0.89858 0.20414 0.88215 0.0
C7099 C 0.91498 0.21649 0.8991 0.0
H7100 H 0.91198 0.19608 0.88807 0.0
C7101 C 0.90725 0.22112 0.89568 0.0
C7102 C 0.90111 0.21664 0.88975 0.0
H7103 H 0.91938 0.21995 0.904 0.0
H7104 H 0.90579 0.22799 0.8981 0.0
C7105 C 0.90319 0.20773 0.88677 0.0
C7106 C 0.56876 0.1584 0.63935 0.0
C7107 C 0.56443 0.16421 0.64572 0.0
H7108 H 0.56789 0.14611 0.63139 0.0
C7109 C 0.55519 0.16247 0.64811 0.0
H7110 H 0.57589 0.15947 0.63743 0.0
C7111 C 0.5506 0.15477 0.64462 0.0
C7112 C 0.5552 0.14864 0.63877 0.0
H7113 H 0.55164 0.16686 0.65294 0.0
H7114 H 0.54366 0.15332 0.64692 0.0
C7115 C 0.56421 0.1507 0.63594 0.0
C7116 C 0.61338 0.81664 0.39055 0.0
C7117 C 0.60721 0.81234 0.39661 0.0
H7118 H 0.62598 0.81561 0.383 0.0
C7119 C 0.60861 0.80305 0.39883 0.0
H7120 H 0.61258 0.8238 0.38878 0.0
C7121 C 0.61632 0.79834 0.39547 0.0
C7122 C 0.62279 0.80288 0.38995 0.0
H7123 H 0.60393 0.79953 0.40342 0.0
H7124 H 0.6175 0.79133 0.39763 0.0
C7125 C 0.6211 0.81197 0.38729 0.0
C7126 C 0.9645 0.85564 0.14154 0.0
C7127 C 0.96187 0.85517 0.15083 0.0
H7128 H 0.97069 0.86374 0.13089 0.0
C7129 C 0.96455 0.8623 0.15675 0.0
H7130 H 0.96262 0.85022 0.13682 0.0
C7131 C 0.96918 0.86997 0.15337 0.0
C7132 C 0.97125 0.87071 0.144 0.0
H7133 H 0.96258 0.86224 0.16392 0.0
H7134 H 0.97075 0.87554 0.15803 0.0
C7135 C 0.96919 0.86333 0.13816 0.0
C7136 C 0.61604 0.90704 0.80769 0.0
C7137 C 0.62199 0.9142 0.81024 0.0
H7138 H 0.61474 0.89373 0.80166 0.0
C7139 C 0.63129 0.91373 0.80756 0.0
H7140 H 0.60886 0.9071 0.80971 0.0
C7141 C 0.63467 0.906 0.80295 0.0
C7142 C 0.62881 0.89859 0.801 0.0
H7143 H 0.63603 0.91917 0.80934 0.0
H7144 H 0.64195 0.90559 0.8014 0.0
C7145 C 0.61941 0.89933 0.80314 0.0
C7146 C 0.86384 0.87993 0.56694 0.0
C7147 C 0.85769 0.87378 0.56276 0.0
H7148 H 0.87642 0.88748 0.56575 0.0
C7149 C 0.85908 0.87141 0.5535 0.0
H7150 H 0.86304 0.88182 0.57408 0.0
C7151 C 0.86678 0.8747 0.54871 0.0
C7152 C 0.87324 0.88032 0.55314 0.0
H7153 H 0.85442 0.86674 0.55007 0.0
H7154 H 0.86796 0.87242 0.54173 0.0
C7155 C 0.87154 0.88313 0.5622 0.0
C7156 C 0.90039 0.10679 0.30282 0.0
C7157 C 0.89809 0.1048 0.312 0.0
H7158 H 0.89894 0.11616 0.29154 0.0
C7159 C 0.89161 0.11038 0.31648 0.0
H7160 H 0.9053 0.10257 0.29915 0.0
C7161 C 0.888 0.11811 0.31214 0.0
C7162 C 0.89075 0.12042 0.30319 0.0
H7163 H 0.88975 0.10913 0.32357 0.0
H7164 H 0.88337 0.12252 0.31593 0.0
C7165 C 0.89671 0.11451 0.29844 0.0
C7166 C 0.66493 0.1482 0.05403 0.0
C7167 C 0.66668 0.14574 0.0632 0.0
H7168 H 0.65579 0.14702 0.0425 0.0
C7169 C 0.66091 0.13926 0.06744 0.0
H7170 H 0.66929 0.15312 0.05055 0.0
C7171 C 0.65323 0.13581 0.06285 0.0
C7172 C 0.65116 0.1387 0.0539 0.0
H7173 H 0.66198 0.13728 0.07452 0.0
H7174 H 0.64865 0.13117 0.06645 0.0
C7175 C 0.65726 0.14467 0.04939 0.0
C7176 C 0.62345 0.1067 0.71695 0.0
C7177 C 0.62587 0.1051 0.70774 0.0
H7178 H 0.62452 0.11574 0.72855 0.0
C7179 C 0.63221 0.11102 0.70349 0.0
H7180 H 0.61863 0.10221 0.72043 0.0
C7181 C 0.63553 0.11871 0.70812 0.0
C7182 C 0.63266 0.12062 0.71711 0.0
H7183 H 0.63416 0.11007 0.69638 0.0
H7184 H 0.64002 0.12343 0.70451 0.0
C7185 C 0.62686 0.11438 0.72163 0.0
C7186 C 0.66102 0.8802 0.45344 0.0
C7187 C 0.66686 0.87384 0.45775 0.0
H7188 H 0.6487 0.88819 0.45436 0.0
C7189 C 0.66515 0.87148 0.46696 0.0
H7190 H 0.66206 0.8821 0.44633 0.0
C7191 C 0.65745 0.875 0.47157 0.0
C7192 C 0.65129 0.88085 0.46701 0.0
H7193 H 0.66956 0.86666 0.47049 0.0
H7194 H 0.65602 0.87273 0.4785 0.0
C7195 C 0.65332 0.88364 0.45801 0.0
C7196 C 0.90028 0.91273 0.21723 0.0
C7197 C 0.89792 0.91466 0.20806 0.0
H7198 H 0.89898 0.9034 0.22856 0.0
C7199 C 0.89146 0.909 0.20364 0.0
H7200 H 0.90517 0.91701 0.22084 0.0
C7201 C 0.88795 0.90126 0.20804 0.0
C7202 C 0.89076 0.89901 0.21698 0.0
H7203 H 0.88955 0.9102 0.19656 0.0
H7204 H 0.88333 0.89678 0.2043 0.0
C7205 C 0.89669 0.90499 0.22167 0.0
C7206 C 0.86331 0.13938 0.95351 0.0
C7207 C 0.85751 0.14583 0.95774 0.0
H7208 H 0.87561 0.13137 0.95449 0.0
C7209 C 0.85926 0.14832 0.96691 0.0
H7210 H 0.86223 0.13737 0.94643 0.0
C7211 C 0.86697 0.14485 0.97154 0.0
C7212 C 0.87309 0.13891 0.96703 0.0
H7213 H 0.85487 0.15322 0.97038 0.0
H7214 H 0.86843 0.14722 0.97842 0.0
C7215 C 0.87101 0.13598 0.95809 0.0
C7216 C 0.81884 0.62989 0.90867 0.0
C7217 C 0.81455 0.62367 0.91468 0.0
H7218 H 0.81785 0.63755 0.89618 0.0
C7219 C 0.80528 0.6213 0.91312 0.0
H7220 H 0.82599 0.63179 0.90959 0.0
C7221 C 0.8006 0.62465 0.90541 0.0
C7222 C 0.80516 0.63033 0.89909 0.0
H7223 H 0.80178 0.61658 0.91767 0.0
H7224 H 0.79363 0.62236 0.9041 0.0
C7225 C 0.8142 0.63315 0.90095 0.0
C7226 C 0.31908 0.88978 0.11193 0.0
C7227 C 0.31474 0.8957 0.10567 0.0
H7228 H 0.31806 0.88246 0.12462 0.0
C7229 C 0.30539 0.89789 0.10703 0.0
H7230 H 0.32628 0.88803 0.11117 0.0
C7231 C 0.30067 0.89466 0.11477 0.0
C7232 C 0.30525 0.88928 0.12132 0.0
H7233 H 0.30185 0.90238 0.10229 0.0
H7234 H 0.29362 0.8968 0.1159 0.0
C7235 C 0.3144 0.88664 0.11968 0.0
C7236 C 0.8829 0.56663 0.86133 0.0
C7237 C 0.87662 0.56226 0.85544 0.0
H7238 H 0.89074 0.56582 0.87372 0.0
C7239 C 0.87425 0.55306 0.85717 0.0
H7240 H 0.8848 0.57372 0.86027 0.0
C7241 C 0.87767 0.54852 0.86493 0.0
C7242 C 0.88343 0.55314 0.87112 0.0
H7243 H 0.86949 0.54948 0.85271 0.0
H7244 H 0.87539 0.5416 0.86635 0.0
C7245 C 0.88625 0.56213 0.86908 0.0
C7246 C 0.20484 0.12959 0.61213 0.0
C7247 C 0.20912 0.12361 0.60588 0.0
H7248 H 0.20594 0.13696 0.62477 0.0
C7249 C 0.21845 0.12135 0.60722 0.0
H7250 H 0.19764 0.13138 0.61138 0.0
C7251 C 0.22322 0.12459 0.61492 0.0
C7252 C 0.21869 0.13004 0.62146 0.0
H7253 H 0.22196 0.11681 0.60249 0.0
H7254 H 0.23025 0.1224 0.61605 0.0
C7255 C 0.20956 0.13273 0.61984 0.0
C7256 C 0.14178 0.95344 0.86101 0.0
C7257 C 0.14821 0.95774 0.85521 0.0
H7258 H 0.13384 0.95427 0.87335 0.0
C7259 C 0.1507 0.96689 0.85703 0.0
H7260 H 0.13977 0.94638 0.85989 0.0
C7261 C 0.14729 0.97141 0.8648 0.0
C7262 C 0.1414 0.96684 0.87092 0.0
H7263 H 0.15557 0.97042 0.85265 0.0
H7264 H 0.14969 0.97828 0.86631 0.0
C7265 C 0.13844 0.95793 0.86877 0.0
C7266 C 0.70504 0.39043 0.40889 0.0
C7267 C 0.70917 0.39691 0.41471 0.0
H7268 H 0.70627 0.38241 0.39664 0.0
C7269 C 0.7184 0.39943 0.41312 0.0
H7270 H 0.69793 0.38842 0.40984 0.0
C7271 C 0.7232 0.39592 0.40555 0.0
C7272 C 0.7188 0.38994 0.39941 0.0
H7273 H 0.72177 0.40437 0.41752 0.0
H7274 H 0.73014 0.39829 0.40419 0.0
C7275 C 0.70979 0.38702 0.4013 0.0
C7276 C 0.88216 0.45301 0.65935 0.0
C7277 C 0.87576 0.45748 0.66505 0.0
H7278 H 0.89034 0.45365 0.64715 0.0
C7279 C 0.87353 0.46669 0.66318 0.0
H7280 H 0.88397 0.44591 0.66051 0.0
C7281 C 0.8772 0.47113 0.65548 0.0
C7282 C 0.88309 0.46641 0.64947 0.0
H7283 H 0.86869 0.47034 0.66749 0.0
H7284 H 0.87502 0.47806 0.65394 0.0
C7285 C 0.88575 0.45742 0.65165 0.0
C7286 C 0.65017 0.5525 0.16328 0.0
C7287 C 0.64789 0.56167 0.16526 0.0
H7288 H 0.64874 0.54123 0.1539 0.0
C7289 C 0.64144 0.56616 0.15964 0.0
H7290 H 0.65505 0.54883 0.16752 0.0
C7291 C 0.63786 0.56182 0.1519 0.0
C7292 C 0.64059 0.55288 0.1496 0.0
H7293 H 0.63959 0.57324 0.16089 0.0
H7294 H 0.63324 0.56561 0.14746 0.0
C7295 C 0.64652 0.54813 0.15553 0.0
C7296 C 0.60884 0.71561 0.8984 0.0
C7297 C 0.6071 0.70648 0.8958 0.0
H7298 H 0.61788 0.72722 0.89724 0.0
C7299 C 0.61273 0.70242 0.88908 0.0
H7300 H 0.60458 0.71894 0.9035 0.0
C7301 C 0.6203 0.70714 0.88554 0.0
C7302 C 0.62238 0.71604 0.88857 0.0
H7303 H 0.61167 0.69538 0.88699 0.0
H7304 H 0.6248 0.70367 0.88073 0.0
C7305 C 0.6164 0.72037 0.89477 0.0
C7306 C 0.55589 0.35657 0.14801 0.0
C7307 C 0.56523 0.3552 0.14579 0.0
H7308 H 0.54409 0.36537 0.14681 0.0
C7309 C 0.56952 0.36132 0.13968 0.0
H7310 H 0.55239 0.35193 0.15265 0.0
C7311 C 0.5648 0.36897 0.13639 0.0
C7312 C 0.55566 0.37064 0.13907 0.0
H7313 H 0.57671 0.36055 0.1379 0.0
H7314 H 0.56842 0.37383 0.13208 0.0
C7315 C 0.55113 0.36421 0.14463 0.0
C7316 C 0.91094 0.3172 0.3895 0.0
C7317 C 0.91694 0.3131 0.39585 0.0
H7318 H 0.89857 0.31589 0.38164 0.0
C7319 C 0.91554 0.30384 0.39824 0.0
H7320 H 0.91174 0.32433 0.38759 0.0
C7321 C 0.90798 0.29899 0.39477 0.0
C7322 C 0.90165 0.30336 0.38895 0.0
H7323 H 0.92009 0.30048 0.40306 0.0
H7324 H 0.90677 0.29203 0.39707 0.0
C7325 C 0.90336 0.31239 0.38613 0.0
C7326 C 0.96836 0.66278 0.64778 0.0
C7327 C 0.95905 0.66417 0.64547 0.0
H7328 H 0.98015 0.65394 0.64672 0.0
C7329 C 0.9548 0.65802 0.63937 0.0
H7330 H 0.97183 0.66744 0.65242 0.0
C7331 C 0.95954 0.65034 0.63617 0.0
C7332 C 0.96864 0.64866 0.63892 0.0
H7333 H 0.94763 0.6588 0.63752 0.0
H7334 H 0.95594 0.64547 0.63185 0.0
C7335 C 0.97313 0.65511 0.64449 0.0
C7336 C 0.60932 0.30374 0.62202 0.0
C7337 C 0.60753 0.31287 0.62462 0.0
H7338 H 0.61839 0.29217 0.62323 0.0
C7339 C 0.6131 0.31693 0.63138 0.0
H7340 H 0.60511 0.3004 0.61689 0.0
C7341 C 0.62065 0.31224 0.63496 0.0
C7342 C 0.62279 0.30336 0.63193 0.0
H7343 H 0.61199 0.32397 0.63347 0.0
H7344 H 0.6251 0.31573 0.63981 0.0
C7345 C 0.61687 0.29901 0.62569 0.0
C7346 C 0.96819 0.35683 0.87134 0.0
C7347 C 0.95901 0.35485 0.87374 0.0
H7348 H 0.97959 0.3661 0.87278 0.0
C7349 C 0.95463 0.36035 0.88036 0.0
H7350 H 0.97176 0.35267 0.86632 0.0
C7351 C 0.95909 0.36799 0.88401 0.0
C7352 C 0.96804 0.37028 0.88119 0.0
H7353 H 0.94754 0.35909 0.88229 0.0
H7354 H 0.95538 0.37235 0.88876 0.0
C7355 C 0.97269 0.36446 0.87508 0.0
C7356 C 0.91101 0.70203 0.13173 0.0
C7357 C 0.91662 0.70612 0.12501 0.0
H7358 H 0.89898 0.70323 0.14013 0.0
C7359 C 0.91487 0.71526 0.12245 0.0
H7360 H 0.91209 0.69499 0.1338 0.0
C7361 C 0.90732 0.72 0.12612 0.0
C7362 C 0.90136 0.71563 0.13232 0.0
H7363 H 0.91912 0.71862 0.11735 0.0
H7364 H 0.90583 0.72685 0.12368 0.0
C7365 C 0.90345 0.70673 0.13532 0.0
C7366 C 0.56935 0.65821 0.38077 0.0
C7367 C 0.56516 0.6643 0.37458 0.0
H7368 H 0.56812 0.64575 0.38843 0.0
C7369 C 0.55585 0.66293 0.37225 0.0
H7370 H 0.57652 0.65898 0.38263 0.0
C7371 C 0.55102 0.65532 0.37562 0.0
C7372 C 0.55546 0.64892 0.38127 0.0
H7373 H 0.55242 0.66755 0.36755 0.0
H7374 H 0.54401 0.65415 0.37336 0.0
C7375 C 0.56456 0.65059 0.38405 0.0
C7376 C 0.8997 0.60677 0.71646 0.0
C7377 C 0.89723 0.60491 0.7073 0.0
H7378 H 0.89849 0.616 0.72788 0.0
C7379 C 0.89067 0.61054 0.70302 0.0
H7380 H 0.90467 0.6025 0.71997 0.0
C7381 C 0.88716 0.61822 0.70754 0.0
C7382 C 0.89009 0.62042 0.71645 0.0
H7383 H 0.88867 0.60939 0.69596 0.0
H7384 H 0.88247 0.6227 0.70389 0.0
C7385 C 0.89612 0.61444 0.72101 0.0
C7386 C 0.66134 0.63858 0.95265 0.0
C7387 C 0.66695 0.64523 0.95681 0.0
H7388 H 0.64928 0.63022 0.95373 0.0
C7389 C 0.66516 0.64771 0.96598 0.0
H7390 H 0.66245 0.63657 0.94558 0.0
C7391 C 0.65758 0.64404 0.97066 0.0
C7392 C 0.65162 0.6379 0.96621 0.0
H7393 H 0.66941 0.65276 0.9694 0.0
H7394 H 0.65606 0.64642 0.97754 0.0
C7395 C 0.65375 0.63498 0.95728 0.0
C7396 C 0.63313 0.40879 0.20353 0.0
C7397 C 0.62688 0.41474 0.20785 0.0
H7398 H 0.6409 0.39636 0.20446 0.0
C7399 C 0.62458 0.41317 0.21711 0.0
H7400 H 0.63498 0.40972 0.19639 0.0
C7401 C 0.62801 0.40548 0.22174 0.0
C7402 C 0.63371 0.3992 0.21716 0.0
H7403 H 0.61984 0.41768 0.22064 0.0
H7404 H 0.62576 0.40414 0.2287 0.0
C7405 C 0.63648 0.40109 0.20812 0.0
C7406 C 0.85877 0.37201 0.46616 0.0
C7407 C 0.85699 0.37436 0.45696 0.0
H7408 H 0.86787 0.37347 0.47768 0.0
C7409 C 0.8626 0.38096 0.45269 0.0
H7410 H 0.85452 0.36701 0.46966 0.0
C7411 C 0.87019 0.38462 0.45726 0.0
C7412 C 0.87232 0.38182 0.46623 0.0
H7413 H 0.86149 0.38286 0.44559 0.0
H7414 H 0.87466 0.38933 0.45363 0.0
C7415 C 0.86636 0.37575 0.47077 0.0
C7416 C 0.89912 0.41278 0.8041 0.0
C7417 C 0.89656 0.41412 0.81332 0.0
H7418 H 0.89841 0.404 0.7923 0.0
C7419 C 0.89022 0.40802 0.81732 0.0
H7420 H 0.90391 0.41742 0.80079 0.0
C7421 C 0.88708 0.4004 0.81246 0.0
C7422 C 0.89016 0.39871 0.80349 0.0
H7423 H 0.88816 0.40878 0.82442 0.0
H7424 H 0.8826 0.39555 0.8159 0.0
C7425 C 0.89591 0.40516 0.79921 0.0
C7426 C 0.86236 0.63845 0.068 0.0
C7427 C 0.85672 0.64513 0.06391 0.0
H7428 H 0.87442 0.63011 0.06679 0.0
C7429 C 0.85847 0.64768 0.05475 0.0
H7430 H 0.86129 0.63639 0.07506 0.0
C7431 C 0.86603 0.64405 0.05 0.0
C7432 C 0.87201 0.63789 0.05437 0.0
H7433 H 0.8542 0.65275 0.05138 0.0
H7434 H 0.86751 0.64648 0.04314 0.0
C7435 C 0.86992 0.63489 0.06329 0.0
C7436 C 0.62432 0.6069 0.30356 0.0
C7437 C 0.6268 0.6051 0.31273 0.0
H7438 H 0.62552 0.61606 0.29207 0.0
C7439 C 0.63339 0.61076 0.31695 0.0
H7440 H 0.61933 0.60262 0.30009 0.0
C7441 C 0.6369 0.6184 0.31237 0.0
C7442 C 0.63396 0.62054 0.30345 0.0
H7443 H 0.6354 0.60965 0.32402 0.0
H7444 H 0.64161 0.6229 0.31597 0.0
C7445 C 0.62791 0.61454 0.29894 0.0
C7446 C 0.6619 0.38075 0.56769 0.0
C7447 C 0.66751 0.37403 0.56362 0.0
H7448 H 0.64986 0.38911 0.56648 0.0
C7449 C 0.66576 0.37146 0.55447 0.0
H7450 H 0.66297 0.38283 0.57474 0.0
C7451 C 0.65821 0.37509 0.54973 0.0
C7452 C 0.65224 0.38129 0.55408 0.0
H7453 H 0.67001 0.36636 0.55112 0.0
H7454 H 0.65672 0.37264 0.54287 0.0
C7455 C 0.65434 0.38431 0.56299 0.0
C7456 C 0.71764 0.89795 0.60735 0.0
C7457 C 0.70847 0.8954 0.60556 0.0
H7458 H 0.72924 0.89669 0.61641 0.0
C7459 C 0.70433 0.88868 0.61111 0.0
H7460 H 0.72104 0.90305 0.60315 0.0
C7461 C 0.709 0.88509 0.61865 0.0
C7462 C 0.71794 0.88807 0.62079 0.0
H7463 H 0.69725 0.88663 0.61 0.0
H7464 H 0.70546 0.88027 0.62309 0.0
C7465 C 0.72236 0.89427 0.61488 0.0
C7466 C 0.20485 0.62989 0.40875 0.0
C7467 C 0.20899 0.62352 0.4147 0.0
H7468 H 0.20611 0.63776 0.39642 0.0
C7469 C 0.21826 0.6211 0.41323 0.0
H7470 H 0.1977 0.63182 0.40961 0.0
C7471 C 0.2231 0.62456 0.40566 0.0
C7472 C 0.21869 0.6304 0.3994 0.0
H7473 H 0.22165 0.61626 0.41774 0.0
H7474 H 0.23007 0.62225 0.40441 0.0
C7475 C 0.20964 0.63325 0.40117 0.0
C7476 C 0.64954 0.96534 0.66377 0.0
C7477 C 0.64701 0.95617 0.66545 0.0
H7478 H 0.64839 0.97696 0.65479 0.0
C7479 C 0.64041 0.95206 0.65973 0.0
H7480 H 0.65456 0.96873 0.66811 0.0
C7481 C 0.63691 0.95676 0.65216 0.0
C7482 C 0.63989 0.96569 0.65015 0.0
H7483 H 0.63836 0.94499 0.66075 0.0
H7484 H 0.63218 0.95325 0.64761 0.0
C7485 C 0.64597 0.97008 0.65621 0.0
C7486 C 0.31962 0.38915 0.90856 0.0
C7487 C 0.31543 0.39531 0.91468 0.0
H7488 H 0.31841 0.38156 0.89605 0.0
C7489 C 0.30612 0.39765 0.91333 0.0
H7490 H 0.3268 0.38728 0.90933 0.0
C7491 C 0.3013 0.39431 0.9057 0.0
C7492 C 0.30575 0.38869 0.89926 0.0
H7493 H 0.30268 0.40232 0.91797 0.0
H7494 H 0.29429 0.39657 0.90454 0.0
C7495 C 0.31485 0.38591 0.90092 0.0
C7496 C 0.3817 0.55765 0.66471 0.0
C7497 C 0.37236 0.56024 0.66496 0.0
H7498 H 0.39256 0.55143 0.65687 0.0
C7499 C 0.36656 0.55746 0.65776 0.0
H7500 H 0.38632 0.5596 0.6702 0.0
C7501 C 0.37012 0.55278 0.6502 0.0
C7502 C 0.37955 0.55074 0.64967 0.0
H7503 H 0.35937 0.55941 0.65765 0.0
H7504 H 0.36557 0.55114 0.64455 0.0
C7505 C 0.38525 0.5529 0.65714 0.0
C7506 C 0.8196 0.13019 0.11194 0.0
C7507 C 0.81547 0.12395 0.10586 0.0
H7508 H 0.8183 0.13787 0.12439 0.0
C7509 C 0.80618 0.12155 0.10722 0.0
H7510 H 0.82677 0.13211 0.11117 0.0
C7511 C 0.80131 0.12491 0.11482 0.0
C7512 C 0.8057 0.13061 0.12121 0.0
H7513 H 0.80279 0.1168 0.10262 0.0
H7514 H 0.79432 0.1226 0.11599 0.0
C7515 C 0.81478 0.13345 0.11955 0.0
C7516 C 0.64083 0.0675 0.86101 0.0
C7517 C 0.64745 0.06334 0.85534 0.0
H7518 H 0.63253 0.06639 0.8731 0.0
C7519 C 0.64997 0.05418 0.85709 0.0
H7520 H 0.63879 0.07455 0.85993 0.0
C7521 C 0.64635 0.0495 0.86467 0.0
C7522 C 0.64023 0.05393 0.87067 0.0
H7523 H 0.65501 0.05077 0.8528 0.0
H7524 H 0.64875 0.04263 0.86614 0.0
C7525 C 0.63728 0.06285 0.8686 0.0
C7526 C 0.88357 0.95316 0.36071 0.0
C7527 C 0.87686 0.95728 0.35512 0.0
H7528 H 0.89185 0.95424 0.37281 0.0
C7529 C 0.87422 0.96638 0.35697 0.0
H7530 H 0.8857 0.94614 0.35957 0.0
C7531 C 0.87778 0.97103 0.3646 0.0
C7532 C 0.88396 0.96662 0.37054 0.0
H7533 H 0.86913 0.96977 0.35274 0.0
H7534 H 0.87528 0.97785 0.36616 0.0
C7535 C 0.88705 0.95777 0.36835 0.0
C7536 C 0.41126 0.31648 0.13109 0.0
C7537 C 0.41689 0.31225 0.12448 0.0
H7538 H 0.39907 0.31557 0.13929 0.0
C7539 C 0.41499 0.30313 0.12195 0.0
H7540 H 0.41244 0.32352 0.13313 0.0
C7541 C 0.40729 0.29856 0.12553 0.0
C7542 C 0.40132 0.30308 0.13161 0.0
H7543 H 0.41925 0.29965 0.11694 0.0
H7544 H 0.40569 0.29172 0.12311 0.0
C7545 C 0.40355 0.31196 0.13458 0.0
C7546 C 0.45469 0.65781 0.8799 0.0
C7547 C 0.45897 0.66405 0.87391 0.0
H7548 H 0.4558 0.6452 0.88732 0.0
C7549 C 0.46831 0.66273 0.87167 0.0
H7550 H 0.44749 0.65855 0.88169 0.0
C7551 C 0.47309 0.65505 0.87494 0.0
C7552 C 0.46857 0.64852 0.8804 0.0
H7553 H 0.47182 0.66745 0.86712 0.0
H7554 H 0.48014 0.65394 0.87277 0.0
C7555 C 0.45942 0.65012 0.88308 0.0
C7556 C 0.1092 0.7161 0.62224 0.0
C7557 C 0.10739 0.7069 0.62455 0.0
H7558 H 0.11839 0.72755 0.62365 0.0
C7559 C 0.11309 0.70254 0.631 0.0
H7560 H 0.10489 0.71967 0.61734 0.0
C7561 C 0.12076 0.70704 0.63458 0.0
C7562 C 0.1229 0.71602 0.63183 0.0
H7563 H 0.11196 0.69545 0.63287 0.0
H7564 H 0.12528 0.70335 0.6392 0.0
C7565 C 0.11688 0.72064 0.62589 0.0
C7566 C 0.06934 0.36157 0.38008 0.0
C7567 C 0.06502 0.35533 0.37412 0.0
H7568 H 0.06827 0.37421 0.38744 0.0
C7569 C 0.05569 0.35667 0.3719 0.0
H7570 H 0.07653 0.36081 0.38185 0.0
C7571 C 0.05094 0.36438 0.37514 0.0
C7572 C 0.05549 0.37091 0.38057 0.0
H7573 H 0.05217 0.35194 0.36737 0.0
H7574 H 0.0439 0.3655 0.37298 0.0
C7575 C 0.06463 0.36928 0.38323 0.0
C7576 C 0.4116 0.70338 0.38928 0.0
C7577 C 0.41715 0.70772 0.39588 0.0
H7578 H 0.39949 0.70414 0.38095 0.0
C7579 C 0.4152 0.71686 0.39828 0.0
H7580 H 0.41283 0.69633 0.38733 0.0
C7581 C 0.40752 0.72136 0.39459 0.0
C7582 C 0.40162 0.71674 0.38851 0.0
H7583 H 0.4194 0.72042 0.40328 0.0
H7584 H 0.40588 0.72822 0.3969 0.0
C7585 C 0.40392 0.70783 0.38566 0.0
C7586 C 0.05548 0.6625 0.14874 0.0
C7587 C 0.06471 0.66424 0.14635 0.0
H7588 H 0.04393 0.65337 0.14752 0.0
C7589 C 0.06904 0.65846 0.13995 0.0
H7590 H 0.05194 0.66687 0.1536 0.0
C7591 C 0.06448 0.65078 0.13652 0.0
C7592 C 0.05547 0.64872 0.13934 0.0
H7593 H 0.07616 0.65953 0.13803 0.0
H7594 H 0.06815 0.64621 0.13194 0.0
C7595 C 0.05088 0.65482 0.14523 0.0
C7596 C 0.11299 0.31669 0.88949 0.0
C7597 C 0.1072 0.31253 0.896 0.0
H7598 H 0.12526 0.31561 0.88143 0.0
C7599 C 0.10892 0.30339 0.89856 0.0
H7600 H 0.11194 0.32375 0.88743 0.0
C7601 C 0.1166 0.29871 0.89509 0.0
C7602 C 0.12272 0.30314 0.88909 0.0
H7603 H 0.10454 0.29997 0.9035 0.0
H7604 H 0.11805 0.29184 0.89751 0.0
C7605 C 0.12067 0.31206 0.8861 0.0
C7606 C 0.45529 0.36086 0.63951 0.0
C7607 C 0.45956 0.35505 0.64591 0.0
H7608 H 0.45625 0.37315 0.63155 0.0
C7609 C 0.46877 0.35678 0.64837 0.0
H7610 H 0.44818 0.3598 0.63753 0.0
C7611 C 0.4734 0.36447 0.64492 0.0
C7612 C 0.46886 0.3706 0.63903 0.0
H7613 H 0.47227 0.35238 0.65324 0.0
H7614 H 0.48033 0.36591 0.64727 0.0
C7615 C 0.45988 0.36855 0.63613 0.0
C7616 C 0.12428 0.41248 0.30284 0.0
C7617 C 0.12663 0.41432 0.31203 0.0
H7618 H 0.12548 0.4032 0.29146 0.0
C7619 C 0.13296 0.40852 0.31645 0.0
H7620 H 0.11949 0.41687 0.29922 0.0
C7621 C 0.13636 0.40075 0.31202 0.0
C7622 C 0.13355 0.3986 0.30306 0.0
H7623 H 0.13485 0.40965 0.32355 0.0
H7624 H 0.14088 0.39618 0.31577 0.0
C7625 C 0.12775 0.40471 0.29837 0.0
C7626 C 0.36297 0.38052 0.06758 0.0
C7627 C 0.35714 0.37409 0.06336 0.0
H7628 H 0.37529 0.3885 0.06655 0.0
C7629 C 0.35884 0.37162 0.05418 0.0
H7630 H 0.36194 0.38251 0.07466 0.0
C7631 C 0.36653 0.37508 0.04952 0.0
C7632 C 0.37269 0.38099 0.054 0.0
H7633 H 0.35442 0.36674 0.05072 0.0
H7634 H 0.36796 0.37272 0.04262 0.0
C7635 C 0.37067 0.38391 0.06296 0.0
C7636 C 0.39976 0.60665 0.80356 0.0
C7637 C 0.39749 0.60493 0.81279 0.0
H7638 H 0.39848 0.6158 0.79208 0.0
C7639 C 0.39122 0.6108 0.81721 0.0
H7640 H 0.40451 0.60221 0.79994 0.0
C7641 C 0.3878 0.61852 0.81272 0.0
C7642 C 0.39052 0.62055 0.8037 0.0
H7643 H 0.38938 0.60975 0.82434 0.0
H7644 H 0.38331 0.62315 0.81645 0.0
C7645 C 0.39627 0.61438 0.79903 0.0
C7646 C 0.16552 0.64861 0.55359 0.0
C7647 C 0.16694 0.64619 0.56283 0.0
H7648 H 0.15667 0.64754 0.54182 0.0
C7649 C 0.16089 0.63991 0.56698 0.0
H7650 H 0.17011 0.65338 0.5502 0.0
C7651 C 0.15324 0.63663 0.56222 0.0
C7652 C 0.15151 0.63947 0.55318 0.0
H7653 H 0.16171 0.63798 0.5741 0.0
H7654 H 0.14842 0.63218 0.56574 0.0
C7655 C 0.15788 0.64523 0.54878 0.0
C7656 C 0.13222 0.6106 0.20362 0.0
C7657 C 0.12579 0.60477 0.20785 0.0
H7658 H 0.14018 0.62291 0.20461 0.0
C7659 C 0.12329 0.60647 0.21703 0.0
H7660 H 0.13423 0.60957 0.19654 0.0
C7661 C 0.12673 0.61416 0.22167 0.0
C7662 C 0.13264 0.62031 0.21717 0.0
H7663 H 0.11841 0.60206 0.2205 0.0
H7664 H 0.12434 0.61558 0.22857 0.0
C7665 C 0.13558 0.6183 0.20821 0.0
C7666 C 0.16478 0.37115 0.96644 0.0
C7667 C 0.16658 0.37365 0.95728 0.0
H7668 H 0.15559 0.37229 0.97794 0.0
C7669 C 0.16085 0.38016 0.95305 0.0
H7670 H 0.16912 0.3662 0.9699 0.0
C7671 C 0.15316 0.38361 0.95763 0.0
C7672 C 0.15104 0.38068 0.96656 0.0
H7673 H 0.16196 0.38218 0.94599 0.0
H7674 H 0.14862 0.38828 0.95404 0.0
C7675 C 0.1571 0.37467 0.97106 0.0
C7676 C 0.40045 0.41286 0.71679 0.0
C7677 C 0.39794 0.41465 0.70763 0.0
H7678 H 0.39938 0.40366 0.72826 0.0
C7679 C 0.39146 0.4089 0.70339 0.0
H7680 H 0.40537 0.41722 0.72028 0.0
C7681 C 0.38806 0.40119 0.70794 0.0
C7682 C 0.39103 0.39907 0.71686 0.0
H7683 H 0.38944 0.41 0.69632 0.0
H7684 H 0.38343 0.39663 0.70432 0.0
C7685 C 0.39698 0.40516 0.72139 0.0
C7686 C 0.36335 0.63991 0.45347 0.0
C7687 C 0.35735 0.64622 0.45764 0.0
H7688 H 0.37579 0.63212 0.45466 0.0
C7689 C 0.35884 0.64864 0.46687 0.0
H7690 H 0.36249 0.63798 0.44635 0.0
C7691 C 0.36647 0.64522 0.47165 0.0
C7692 C 0.37278 0.63943 0.46723 0.0
H7693 H 0.3543 0.65344 0.47028 0.0
H7694 H 0.36774 0.64753 0.4786 0.0
C7695 C 0.371 0.63659 0.4582 0.0
C7696 C 0.31915 0.12908 0.40884 0.0
C7697 C 0.31499 0.12261 0.41467 0.0
H7698 H 0.31795 0.13708 0.39658 0.0
C7699 C 0.30577 0.1201 0.41307 0.0
H7700 H 0.32626 0.13108 0.40979 0.0
C7701 C 0.30099 0.12361 0.4055 0.0
C7702 C 0.3054 0.12958 0.39936 0.0
H7703 H 0.30238 0.11517 0.41748 0.0
H7704 H 0.29405 0.12125 0.40414 0.0
C7705 C 0.31442 0.13248 0.40124 0.0
C7706 C 0.80974 0.40661 0.61325 0.0
C7707 C 0.81273 0.40056 0.60635 0.0
H7708 H 0.80305 0.40813 0.62624 0.0
C7709 C 0.81028 0.39125 0.607 0.0
H7710 H 0.81156 0.41381 0.61305 0.0
C7711 C 0.80541 0.38799 0.61463 0.0
C7712 C 0.80296 0.39397 0.62179 0.0
H7713 H 0.8124 0.38643 0.60176 0.0
H7714 H 0.80401 0.38072 0.61518 0.0
C7715 C 0.80492 0.40335 0.62087 0.0
C7716 C 0.3744 0.05295 0.35728 0.0
C7717 C 0.37678 0.06213 0.35546 0.0
H7718 H 0.37576 0.04149 0.36643 0.0
C7719 C 0.38331 0.06644 0.36112 0.0
H7720 H 0.36945 0.04942 0.353 0.0
C7721 C 0.38689 0.06192 0.36876 0.0
C7722 C 0.38407 0.05296 0.3709 0.0
H7723 H 0.38524 0.07352 0.36 0.0
H7724 H 0.39157 0.06557 0.37325 0.0
C7725 C 0.37805 0.04839 0.36492 0.0
C7726 C 0.71419 0.61298 0.11328 0.0
C7727 C 0.71122 0.6191 0.10643 0.0
H7728 H 0.72087 0.61133 0.12625 0.0
C7729 C 0.71371 0.6284 0.10715 0.0
H7730 H 0.71233 0.6058 0.11303 0.0
C7731 C 0.7186 0.63158 0.11479 0.0
C7732 C 0.72102 0.62553 0.1219 0.0
H7733 H 0.71161 0.63327 0.10194 0.0
H7734 H 0.72003 0.63884 0.11539 0.0
C7735 C 0.71902 0.61616 0.12091 0.0
C7736 C 0.64969 0.46655 0.35712 0.0
C7737 C 0.64739 0.45735 0.35531 0.0
H7738 H 0.64826 0.47799 0.36629 0.0
C7739 C 0.64093 0.45296 0.361 0.0
H7740 H 0.65459 0.47013 0.35281 0.0
C7741 C 0.63734 0.45745 0.36866 0.0
C7742 C 0.64007 0.46643 0.3708 0.0
H7743 H 0.63906 0.44587 0.35988 0.0
H7744 H 0.6327 0.45374 0.37316 0.0
C7745 C 0.64602 0.47106 0.36478 0.0
C7746 C 0.20502 0.88969 0.90822 0.0
C7747 C 0.2093 0.89568 0.91446 0.0
H7748 H 0.20614 0.88232 0.89558 0.0
C7749 C 0.21863 0.89795 0.91313 0.0
H7750 H 0.19783 0.88788 0.90897 0.0
C7751 C 0.2234 0.89472 0.90542 0.0
C7752 C 0.21889 0.88927 0.89888 0.0
H7753 H 0.22212 0.90249 0.91785 0.0
H7754 H 0.23044 0.89692 0.90429 0.0
C7755 C 0.20976 0.88656 0.90051 0.0
C7756 C 0.37383 0.9672 0.16312 0.0
C7757 C 0.37624 0.95803 0.16494 0.0
H7758 H 0.37494 0.97858 0.15382 0.0
C7759 C 0.38261 0.95367 0.15914 0.0
H7760 H 0.369 0.97078 0.1675 0.0
C7761 C 0.38599 0.95813 0.15136 0.0
C7762 C 0.38311 0.96706 0.14921 0.0
H7763 H 0.38456 0.9466 0.16026 0.0
H7764 H 0.39053 0.95443 0.14678 0.0
C7765 C 0.37727 0.9717 0.15534 0.0
C7766 C 0.14986 0.05257 0.66326 0.0
C7767 C 0.14748 0.06175 0.66509 0.0
H7768 H 0.14869 0.04119 0.65399 0.0
C7769 C 0.1411 0.06613 0.65931 0.0
H7770 H 0.15469 0.04899 0.66763 0.0
C7771 C 0.13769 0.06167 0.65155 0.0
C7772 C 0.14054 0.05273 0.6494 0.0
H7773 H 0.13918 0.07321 0.66043 0.0
H7774 H 0.13314 0.06538 0.64698 0.0
C7775 C 0.14638 0.04808 0.6555 0.0
loop_
_geom_bond_atom_site_label_1
_geom_bond_atom_site_label_2
_geom_bond_distance
_geom_bond_site_symmetry_2
_ccdc_geom_bond_type
C0 C1 1.264 . S
C0 C5 1.479 . S
C0 C10 1.465 . S
C1 C0 1.264 . S
C1 C3 1.339 . S
C1 H28 0.931 . S
C2 C3 1.395 . S
C2 C4 1.320 . S
C3 C1 1.339 . S
C3 C2 1.395 . S
C3 H29 0.929 . S
C4 C2 1.320 . S
C4 C5 1.405 . S
C4 H30 0.930 . S
C5 C0 1.479 . S
C5 C4 1.405 . S
C5 H31 0.931 . S
U6 O7 2.454 . S
U6 O8 2.458 . S
U6 C9 2.984 . S
U6 C10 2.847 . S
U6 C23 2.882 . S
U6 O24 2.441 . S
U6 O25 2.420 . S
U6 O26 2.455 . S
U6 O27 2.449 . S
O7 U6 2.454 . S
O7 C9 1.353 . S
O8 U6 2.458 . S
O8 C9 1.286 . S
C9 U6 2.984 . S
C9 O7 1.353 . S
C9 O8 1.286 . S
C9 C11 1.363 . S
C10 C0 1.465 . S
C10 U6 2.847 . S
C10 O24 1.249 . S
C10 O25 1.202 . S
C11 C9 1.363 . S
C11 C13 1.408 . S
C11 C16 1.342 . S
C12 C13 1.310 . S
C12 C15 1.461 . S
C12 H32 0.932 . S
C13 C11 1.408 . S
C13 C12 1.310 . S
C13 H33 0.930 . S
C14 C15 1.474 . S
C14 C16 1.285 . S
C14 H34 0.929 . S
C15 C12 1.461 . S
C15 C14 1.474 . S
C16 C11 1.342 . S
C16 C14 1.285 . S
C16 H35 0.930 . S
C17 C20 1.424 . S
C17 C22 1.245 . S
C17 C23 1.428 . S
C18 C21 1.260 . S
C18 C22 1.477 . S
C18 H36 0.932 . S
C19 C20 1.384 . S
C19 C21 1.479 . S
C19 H37 0.929 . S
C20 C17 1.424 . S
C20 C19 1.384 . S
C20 H38 0.928 . S
C21 C18 1.260 . S
C21 C19 1.479 . S
C22 C17 1.245 . S
C22 C18 1.477 . S
C22 H39 0.932 . S
C23 U6 2.882 . S
C23 C17 1.428 . S
C23 O26 1.301 . S
C23 O27 1.282 . S
O24 U6 2.441 . S
O24 C10 1.249 . S
O25 U6 2.420 . S
O25 C10 1.202 . S
O26 U6 2.455 . S
O26 C23 1.301 . S
O27 U6 2.449 . S
O27 C23 1.282 . S
H28 C1 0.931 . S
H29 C3 0.929 . S
H30 C4 0.930 . S
H31 C5 0.931 . S
H32 C12 0.932 . S
H33 C13 0.930 . S
H34 C14 0.929 . S
H35 C16 0.930 . S
H36 C18 0.932 . S
H37 C19 0.929 . S
H38 C20 0.928 . S
H39 C22 0.932 . S
C40 C41 1.264 . S
C40 C45 1.479 . S
C40 C50 1.465 . S
C41 C40 1.264 . S
C41 C43 1.339 . S
C41 H68 0.931 . S
C42 C43 1.395 . S
C42 C44 1.320 . S
C43 C41 1.339 . S
C43 C42 1.395 . S
C43 H69 0.929 . S
C44 C42 1.320 . S
C44 C45 1.405 . S
C44 H70 0.930 . S
C45 C40 1.479 . S
C45 C44 1.405 . S
C45 H71 0.931 . S
U46 O47 2.454 . S
U46 O48 2.458 . S
U46 C49 2.984 . S
U46 C50 2.847 . S
U46 C63 2.882 . S
U46 O64 2.441 . S
U46 O65 2.420 . S
U46 O66 2.455 . S
U46 O67 2.449 . S
O47 U46 2.454 . S
O47 C49 1.353 . S
O48 U46 2.458 . S
O48 C49 1.286 . S
C49 U46 2.984 . S
C49 O47 1.353 . S
C49 O48 1.286 . S
C49 C51 1.363 . S
C50 C40 1.465 . S
C50 U46 2.847 . S
C50 O64 1.249 . S
C50 O65 1.202 . S
C51 C49 1.363 . S
C51 C53 1.408 . S
C51 C56 1.342 . S
C52 C53 1.310 . S
C52 C55 1.461 . S
C52 H72 0.932 . S
C53 C51 1.408 . S
C53 C52 1.310 . S
C53 H73 0.930 . S
C54 C55 1.474 . S
C54 C56 1.285 . S
C54 H74 0.929 . S
C55 C52 1.461 . S
C55 C54 1.474 . S
C56 C51 1.342 . S
C56 C54 1.285 . S
C56 H75 0.930 . S
C57 C60 1.424 . S
C57 C62 1.245 . S
C57 C63 1.428 . S
C58 C61 1.260 . S
C58 C62 1.477 . S
C58 H76 0.932 . S
C59 C60 1.384 . S
C59 C61 1.479 . S
C59 H77 0.929 . S
C60 C57 1.424 . S
C60 C59 1.384 . S
C60 H78 0.928 . S
C61 C58 1.260 . S
C61 C59 1.479 . S
C62 C57 1.245 . S
C62 C58 1.477 . S
C62 H79 0.932 . S
C63 U46 2.882 . S
C63 C57 1.428 . S
C63 O66 1.301 . S
C63 O67 1.282 . S
O64 U46 2.441 . S
O64 C50 1.249 . S
O65 U46 2.420 . S
O65 C50 1.202 . S
O66 U46 2.455 . S
O66 C63 1.301 . S
O67 U46 2.449 . S
O67 C63 1.282 . S
H68 C41 0.931 . S
H69 C43 0.929 . S
H70 C44 0.930 . S
H71 C45 0.931 . S
H72 C52 0.932 . S
H73 C53 0.930 . S
H74 C54 0.929 . S
H75 C56 0.930 . S
H76 C58 0.932 . S
H77 C59 0.929 . S
H78 C60 0.928 . S
H79 C62 0.932 . S
C80 C81 1.264 . S
C80 C85 1.479 . S
C80 C90 1.465 . S
C81 C80 1.264 . S
C81 C83 1.339 . S
C81 H108 0.931 . S
C82 C83 1.395 . S
C82 C84 1.320 . S
C83 C81 1.339 . S
C83 C82 1.395 . S
C83 H109 0.929 . S
C84 C82 1.320 . S
C84 C85 1.405 . S
C84 H110 0.930 . S
C85 C80 1.479 . S
C85 C84 1.405 . S
C85 H111 0.931 . S
U86 O87 2.454 . S
U86 O88 2.458 . S
U86 C89 2.984 . S
U86 C90 2.847 . S
U86 C103 2.882 . S
U86 O104 2.441 . S
U86 O105 2.420 . S
U86 O106 2.455 . S
U86 O107 2.449 . S
O87 U86 2.454 . S
O87 C89 1.353 . S
O88 U86 2.458 . S
O88 C89 1.286 . S
C89 U86 2.984 . S
C89 O87 1.353 . S
C89 O88 1.286 . S
C89 C91 1.363 . S
C90 C80 1.465 . S
C90 U86 2.847 . S
C90 O104 1.249 . S
C90 O105 1.202 . S
C91 C89 1.363 . S
C91 C93 1.408 . S
C91 C96 1.342 . S
C92 C93 1.310 . S
C92 C95 1.461 . S
C92 H112 0.932 . S
C93 C91 1.408 . S
C93 C92 1.310 . S
C93 H113 0.930 . S
C94 C95 1.474 . S
C94 C96 1.285 . S
C94 H114 0.929 . S
C95 C92 1.461 . S
C95 C94 1.474 . S
C96 C91 1.342 . S
C96 C94 1.285 . S
C96 H115 0.930 . S
C97 C100 1.424 . S
C97 C102 1.245 . S
C97 C103 1.428 . S
C98 C101 1.260 . S
C98 C102 1.477 . S
C98 H116 0.932 . S
C99 C100 1.384 . S
C99 C101 1.479 . S
C99 H117 0.929 . S
C100 C97 1.424 . S
C100 C99 1.384 . S
C100 H118 0.928 . S
C101 C98 1.260 . S
C101 C99 1.479 . S
C102 C97 1.245 . S
C102 C98 1.477 . S
C102 H119 0.932 . S
C103 U86 2.882 . S
C103 C97 1.428 . S
C103 O106 1.301 . S
C103 O107 1.282 . S
O104 U86 2.441 . S
O104 C90 1.249 . S
O105 U86 2.420 . S
O105 C90 1.202 . S
O106 U86 2.455 . S
O106 C103 1.301 . S
O107 U86 2.449 . S
O107 C103 1.282 . S
H108 C81 0.931 . S
H109 C83 0.929 . S
H110 C84 0.930 . S
H111 C85 0.931 . S
H112 C92 0.932 . S
H113 C93 0.930 . S
H114 C94 0.929 . S
H115 C96 0.930 . S
H116 C98 0.932 . S
H117 C99 0.929 . S
H118 C100 0.928 . S
H119 C102 0.932 . S
C120 C121 1.264 . S
C120 C125 1.479 . S
C120 C130 1.465 . S
C121 C120 1.264 . S
C121 C123 1.339 . S
C121 H148 0.931 . S
C122 C123 1.395 . S
C122 C124 1.320 . S
C123 C121 1.339 . S
C123 C122 1.395 . S
C123 H149 0.929 . S
C124 C122 1.320 . S
C124 C125 1.405 . S
C124 H150 0.930 . S
C125 C120 1.479 . S
C125 C124 1.405 . S
C125 H151 0.931 . S
U126 O127 2.454 . S
U126 O128 2.458 . S
U126 C129 2.984 . S
U126 C130 2.847 . S
U126 C143 2.882 . S
U126 O144 2.441 . S
U126 O145 2.420 . S
U126 O146 2.455 . S
U126 O147 2.449 . S
O127 U126 2.454 . S
O127 C129 1.353 . S
O128 U126 2.458 . S
O128 C129 1.286 . S
C129 U126 2.984 . S
C129 O127 1.353 . S
C129 O128 1.286 . S
C129 C131 1.363 . S
C130 C120 1.465 . S
C130 U126 2.847 . S
C130 O144 1.249 . S
C130 O145 1.202 . S
C131 C129 1.363 . S
C131 C133 1.408 . S
C131 C136 1.342 . S
C132 C133 1.310 . S
C132 C135 1.461 . S
C132 H152 0.932 . S
C133 C131 1.408 . S
C133 C132 1.310 . S
C133 H153 0.930 . S
C134 C135 1.474 . S
C134 C136 1.285 . S
C134 H154 0.929 . S
C135 C132 1.461 . S
C135 C134 1.474 . S
C136 C131 1.342 . S
C136 C134 1.285 . S
C136 H155 0.930 . S
C137 C140 1.424 . S
C137 C142 1.245 . S
C137 C143 1.428 . S
C138 C141 1.260 . S
C138 C142 1.477 . S
C138 H156 0.932 . S
C139 C140 1.384 . S
C139 C141 1.479 . S
C139 H157 0.929 . S
C140 C137 1.424 . S
C140 C139 1.384 . S
C140 H158 0.928 . S
C141 C138 1.260 . S
C141 C139 1.479 . S
C142 C137 1.245 . S
C142 C138 1.477 . S
C142 H159 0.932 . S
C143 U126 2.882 . S
C143 C137 1.428 . S
C143 O146 1.301 . S
C143 O147 1.282 . S
O144 U126 2.441 . S
O144 C130 1.249 . S
O145 U126 2.420 . S
O145 C130 1.202 . S
O146 U126 2.455 . S
O146 C143 1.301 . S
O147 U126 2.449 . S
O147 C143 1.282 . S
H148 C121 0.931 . S
H149 C123 0.929 . S
H150 C124 0.930 . S
H151 C125 0.931 . S
H152 C132 0.932 . S
H153 C133 0.930 . S
H154 C134 0.929 . S
H155 C136 0.930 . S
H156 C138 0.932 . S
H157 C139 0.929 . S
H158 C140 0.928 . S
H159 C142 0.932 . S
C160 C161 1.264 . S
C160 C165 1.479 . S
C160 C170 1.465 . S
C161 C160 1.264 . S
C161 C163 1.339 . S
C161 H188 0.931 . S
C162 C163 1.395 . S
C162 C164 1.320 . S
C163 C161 1.339 . S
C163 C162 1.395 . S
C163 H189 0.929 . S
C164 C162 1.320 . S
C164 C165 1.405 . S
C164 H190 0.930 . S
C165 C160 1.479 . S
C165 C164 1.405 . S
C165 H191 0.931 . S
U166 O167 2.454 . S
U166 O168 2.458 . S
U166 C169 2.984 . S
U166 C170 2.847 . S
U166 C183 2.882 . S
U166 O184 2.441 . S
U166 O185 2.420 . S
U166 O186 2.455 . S
U166 O187 2.449 . S
O167 U166 2.454 . S
O167 C169 1.353 . S
O168 U166 2.458 . S
O168 C169 1.286 . S
C169 U166 2.984 . S
C169 O167 1.353 . S
C169 O168 1.286 . S
C169 C171 1.363 . S
C170 C160 1.465 . S
C170 U166 2.847 . S
C170 O184 1.249 . S
C170 O185 1.202 . S
C171 C169 1.363 . S
C171 C173 1.408 . S
C171 C176 1.342 . S
C172 C173 1.310 . S
C172 C175 1.461 . S
C172 H192 0.932 . S
C173 C171 1.408 . S
C173 C172 1.310 . S
C173 H193 0.930 . S
C174 C175 1.474 . S
C174 C176 1.285 . S
C174 H194 0.929 . S
C175 C172 1.461 . S
C175 C174 1.474 . S
C176 C171 1.342 . S
C176 C174 1.285 . S
C176 H195 0.930 . S
C177 C180 1.424 . S
C177 C182 1.245 . S
C177 C183 1.428 . S
C178 C181 1.260 . S
C178 C182 1.477 . S
C178 H196 0.932 . S
C179 C180 1.384 . S
C179 C181 1.479 . S
C179 H197 0.929 . S
C180 C177 1.424 . S
C180 C179 1.384 . S
C180 H198 0.928 . S
C181 C178 1.260 . S
C181 C179 1.479 . S
C182 C177 1.245 . S
C182 C178 1.477 . S
C182 H199 0.932 . S
C183 U166 2.882 . S
C183 C177 1.428 . S
C183 O186 1.301 . S
C183 O187 1.282 . S
O184 U166 2.441 . S
O184 C170 1.249 . S
O185 U166 2.420 . S
O185 C170 1.202 . S
O186 U166 2.455 . S
O186 C183 1.301 . S
O187 U166 2.449 . S
O187 C183 1.282 . S
H188 C161 0.931 . S
H189 C163 0.929 . S
H190 C164 0.930 . S
H191 C165 0.931 . S
H192 C172 0.932 . S
H193 C173 0.930 . S
H194 C174 0.929 . S
H195 C176 0.930 . S
H196 C178 0.932 . S
H197 C179 0.929 . S
H198 C180 0.928 . S
H199 C182 0.932 . S
C200 C201 1.264 . S
C200 C205 1.479 . S
C200 C210 1.465 . S
C201 C200 1.264 . S
C201 C203 1.339 . S
C201 H228 0.931 . S
C202 C203 1.395 . S
C202 C204 1.320 . S
C203 C201 1.339 . S
C203 C202 1.395 . S
C203 H229 0.929 . S
C204 C202 1.320 . S
C204 C205 1.405 . S
C204 H230 0.930 . S
C205 C200 1.479 . S
C205 C204 1.405 . S
C205 H231 0.931 . S
U206 O207 2.454 . S
U206 O208 2.458 . S
U206 C209 2.984 . S
U206 C210 2.847 . S
U206 C223 2.882 . S
U206 O224 2.441 . S
U206 O225 2.420 . S
U206 O226 2.455 . S
U206 O227 2.449 . S
O207 U206 2.454 . S
O207 C209 1.353 . S
O208 U206 2.458 . S
O208 C209 1.286 . S
C209 U206 2.984 . S
C209 O207 1.353 . S
C209 O208 1.286 . S
C209 C211 1.363 . S
C210 C200 1.465 . S
C210 U206 2.847 . S
C210 O224 1.249 . S
C210 O225 1.202 . S
C211 C209 1.363 . S
C211 C213 1.408 . S
C211 C216 1.342 . S
C212 C213 1.310 . S
C212 C215 1.461 . S
C212 H232 0.932 . S
C213 C211 1.408 . S
C213 C212 1.310 . S
C213 H233 0.930 . S
C214 C215 1.474 . S
C214 C216 1.285 . S
C214 H234 0.929 . S
C215 C212 1.461 . S
C215 C214 1.474 . S
C216 C211 1.342 . S
C216 C214 1.285 . S
C216 H235 0.930 . S
C217 C220 1.424 . S
C217 C222 1.245 . S
C217 C223 1.428 . S
C218 C221 1.260 . S
C218 C222 1.477 . S
C218 H236 0.932 . S
C219 C220 1.384 . S
C219 C221 1.479 . S
C219 H237 0.929 . S
C220 C217 1.424 . S
C220 C219 1.384 . S
C220 H238 0.928 . S
C221 C218 1.260 . S
C221 C219 1.479 . S
C222 C217 1.245 . S
C222 C218 1.477 . S
C222 H239 0.932 . S
C223 U206 2.882 . S
C223 C217 1.428 . S
C223 O226 1.301 . S
C223 O227 1.282 . S
O224 U206 2.441 . S
O224 C210 1.249 . S
O225 U206 2.420 . S
O225 C210 1.202 . S
O226 U206 2.455 . S
O226 C223 1.301 . S
O227 U206 2.449 . S
O227 C223 1.282 . S
H228 C201 0.931 . S
H229 C203 0.929 . S
H230 C204 0.930 . S
H231 C205 0.931 . S
H232 C212 0.932 . S
H233 C213 0.930 . S
H234 C214 0.929 . S
H235 C216 0.930 . S
H236 C218 0.932 . S
H237 C219 0.929 . S
H238 C220 0.928 . S
H239 C222 0.932 . S
C240 C241 1.264 . S
C240 C245 1.479 . S
C240 C250 1.465 . S
C241 C240 1.264 . S
C241 C243 1.339 . S
C241 H268 0.931 . S
C242 C243 1.395 . S
C242 C244 1.320 . S
C243 C241 1.339 . S
C243 C242 1.395 . S
C243 H269 0.929 . S
C244 C242 1.320 . S
C244 C245 1.405 . S
C244 H270 0.930 . S
C245 C240 1.479 . S
C245 C244 1.405 . S
C245 H271 0.931 . S
U246 O247 2.454 . S
U246 O248 2.458 . S
U246 C249 2.984 . S
U246 C250 2.847 . S
U246 C263 2.882 . S
U246 O264 2.441 . S
U246 O265 2.420 . S
U246 O266 2.455 . S
U246 O267 2.449 . S
O247 U246 2.454 . S
O247 C249 1.353 . S
O248 U246 2.458 . S
O248 C249 1.286 . S
C249 U246 2.984 . S
C249 O247 1.353 . S
C249 O248 1.286 . S
C249 C251 1.363 . S
C250 C240 1.465 . S
C250 U246 2.847 . S
C250 O264 1.249 . S
C250 O265 1.202 . S
C251 C249 1.363 . S
C251 C253 1.408 . S
C251 C256 1.342 . S
C252 C253 1.310 . S
C252 C255 1.461 . S
C252 H272 0.932 . S
C253 C251 1.408 . S
C253 C252 1.310 . S
C253 H273 0.930 . S
C254 C255 1.474 . S
C254 C256 1.285 . S
C254 H274 0.929 . S
C255 C252 1.461 . S
C255 C254 1.474 . S
C256 C251 1.342 . S
C256 C254 1.285 . S
C256 H275 0.930 . S
C257 C260 1.424 . S
C257 C262 1.245 . S
C257 C263 1.428 . S
C258 C261 1.260 . S
C258 C262 1.477 . S
C258 H276 0.932 . S
C259 C260 1.384 . S
C259 C261 1.479 . S
C259 H277 0.929 . S
C260 C257 1.424 . S
C260 C259 1.384 . S
C260 H278 0.928 . S
C261 C258 1.260 . S
C261 C259 1.479 . S
C262 C257 1.245 . S
C262 C258 1.477 . S
C262 H279 0.932 . S
C263 U246 2.882 . S
C263 C257 1.428 . S
C263 O266 1.301 . S
C263 O267 1.282 . S
O264 U246 2.441 . S
O264 C250 1.249 . S
O265 U246 2.420 . S
O265 C250 1.202 . S
O266 U246 2.455 . S
O266 C263 1.301 . S
O267 U246 2.449 . S
O267 C263 1.282 . S
H268 C241 0.931 . S
H269 C243 0.929 . S
H270 C244 0.930 . S
H271 C245 0.931 . S
H272 C252 0.932 . S
H273 C253 0.930 . S
H274 C254 0.929 . S
H275 C256 0.930 . S
H276 C258 0.932 . S
H277 C259 0.929 . S
H278 C260 0.928 . S
H279 C262 0.932 . S
C280 C281 1.264 . S
C280 C285 1.479 . S
C280 C290 1.465 . S
C281 C280 1.264 . S
C281 C283 1.339 . S
C281 H308 0.931 . S
C282 C283 1.395 . S
C282 C284 1.320 . S
C283 C281 1.339 . S
C283 C282 1.395 . S
C283 H309 0.929 . S
C284 C282 1.320 . S
C284 C285 1.405 . S
C284 H310 0.930 . S
C285 C280 1.479 . S
C285 C284 1.405 . S
C285 H311 0.931 . S
U286 O287 2.454 . S
U286 O288 2.458 . S
U286 C289 2.984 . S
U286 C290 2.847 . S
U286 C303 2.882 . S
U286 O304 2.441 . S
U286 O305 2.420 . S
U286 O306 2.455 . S
U286 O307 2.449 . S
O287 U286 2.454 . S
O287 C289 1.353 . S
O288 U286 2.458 . S
O288 C289 1.286 . S
C289 U286 2.984 . S
C289 O287 1.353 . S
C289 O288 1.286 . S
C289 C291 1.363 . S
C290 C280 1.465 . S
C290 U286 2.847 . S
C290 O304 1.249 . S
C290 O305 1.202 . S
C291 C289 1.363 . S
C291 C293 1.408 . S
C291 C296 1.342 . S
C292 C293 1.310 . S
C292 C295 1.461 . S
C292 H312 0.932 . S
C293 C291 1.408 . S
C293 C292 1.310 . S
C293 H313 0.930 . S
C294 C295 1.474 . S
C294 C296 1.285 . S
C294 H314 0.929 . S
C295 C292 1.461 . S
C295 C294 1.474 . S
C296 C291 1.342 . S
C296 C294 1.285 . S
C296 H315 0.930 . S
C297 C300 1.424 . S
C297 C302 1.245 . S
C297 C303 1.428 . S
C298 C301 1.260 . S
C298 C302 1.477 . S
C298 H316 0.932 . S
C299 C300 1.384 . S
C299 C301 1.479 . S
C299 H317 0.929 . S
C300 C297 1.424 . S
C300 C299 1.384 . S
C300 H318 0.928 . S
C301 C298 1.260 . S
C301 C299 1.479 . S
C302 C297 1.245 . S
C302 C298 1.477 . S
C302 H319 0.932 . S
C303 U286 2.882 . S
C303 C297 1.428 . S
C303 O306 1.301 . S
C303 O307 1.282 . S
O304 U286 2.441 . S
O304 C290 1.249 . S
O305 U286 2.420 . S
O305 C290 1.202 . S
O306 U286 2.455 . S
O306 C303 1.301 . S
O307 U286 2.449 . S
O307 C303 1.282 . S
H308 C281 0.931 . S
H309 C283 0.929 . S
H310 C284 0.930 . S
H311 C285 0.931 . S
H312 C292 0.932 . S
H313 C293 0.930 . S
H314 C294 0.929 . S
H315 C296 0.930 . S
H316 C298 0.932 . S
H317 C299 0.929 . S
H318 C300 0.928 . S
H319 C302 0.932 . S
C320 C321 1.264 . S
C320 C325 1.479 . S
C320 C330 1.465 . S
C321 C320 1.264 . S
C321 C323 1.339 . S
C321 H348 0.931 . S
C322 C323 1.395 . S
C322 C324 1.320 . S
C323 C321 1.339 . S
C323 C322 1.395 . S
C323 H349 0.929 . S
C324 C322 1.320 . S
C324 C325 1.405 . S
C324 H350 0.930 . S
C325 C320 1.479 . S
C325 C324 1.405 . S
C325 H351 0.931 . S
U326 O327 2.454 . S
U326 O328 2.458 . S
U326 C329 2.984 . S
U326 C330 2.847 . S
U326 C343 2.882 . S
U326 O344 2.441 . S
U326 O345 2.420 . S
U326 O346 2.455 . S
U326 O347 2.449 . S
O327 U326 2.454 . S
O327 C329 1.353 . S
O328 U326 2.458 . S
O328 C329 1.286 . S
C329 U326 2.984 . S
C329 O327 1.353 . S
C329 O328 1.286 . S
C329 C331 1.363 . S
C330 C320 1.465 . S
C330 U326 2.847 . S
C330 O344 1.249 . S
C330 O345 1.202 . S
C331 C329 1.363 . S
C331 C333 1.408 . S
C331 C336 1.342 . S
C332 C333 1.310 . S
C332 C335 1.461 . S
C332 H352 0.932 . S
C333 C331 1.408 . S
C333 C332 1.310 . S
C333 H353 0.930 . S
C334 C335 1.474 . S
C334 C336 1.285 . S
C334 H354 0.929 . S
C335 C332 1.461 . S
C335 C334 1.474 . S
C336 C331 1.342 . S
C336 C334 1.285 . S
C336 H355 0.930 . S
C337 C340 1.424 . S
C337 C342 1.245 . S
C337 C343 1.428 . S
C338 C341 1.260 . S
C338 C342 1.477 . S
C338 H356 0.932 . S
C339 C340 1.384 . S
C339 C341 1.479 . S
C339 H357 0.929 . S
C340 C337 1.424 . S
C340 C339 1.384 . S
C340 H358 0.928 . S
C341 C338 1.260 . S
C341 C339 1.479 . S
C342 C337 1.245 . S
C342 C338 1.477 . S
C342 H359 0.932 . S
C343 U326 2.882 . S
C343 C337 1.428 . S
C343 O346 1.301 . S
C343 O347 1.282 . S
O344 U326 2.441 . S
O344 C330 1.249 . S
O345 U326 2.420 . S
O345 C330 1.202 . S
O346 U326 2.455 . S
O346 C343 1.301 . S
O347 U326 2.449 . S
O347 C343 1.282 . S
H348 C321 0.931 . S
H349 C323 0.929 . S
H350 C324 0.930 . S
H351 C325 0.931 . S
H352 C332 0.932 . S
H353 C333 0.930 . S
H354 C334 0.929 . S
H355 C336 0.930 . S
H356 C338 0.932 . S
H357 C339 0.929 . S
H358 C340 0.928 . S
H359 C342 0.932 . S
C360 C361 1.264 . S
C360 C365 1.479 . S
C360 C370 1.465 . S
C361 C360 1.264 . S
C361 C363 1.339 . S
C361 H388 0.931 . S
C362 C363 1.395 . S
C362 C364 1.320 . S
C363 C361 1.339 . S
C363 C362 1.395 . S
C363 H389 0.929 . S
C364 C362 1.320 . S
C364 C365 1.405 . S
C364 H390 0.930 . S
C365 C360 1.479 . S
C365 C364 1.405 . S
C365 H391 0.931 . S
U366 O367 2.454 . S
U366 O368 2.458 . S
U366 C369 2.984 . S
U366 C370 2.847 . S
U366 C383 2.882 . S
U366 O384 2.441 . S
U366 O385 2.420 . S
U366 O386 2.455 . S
U366 O387 2.449 . S
O367 U366 2.454 . S
O367 C369 1.353 . S
O368 U366 2.458 . S
O368 C369 1.286 . S
C369 U366 2.984 . S
C369 O367 1.353 . S
C369 O368 1.286 . S
C369 C371 1.363 . S
C370 C360 1.465 . S
C370 U366 2.847 . S
C370 O384 1.249 . S
C370 O385 1.202 . S
C371 C369 1.363 . S
C371 C373 1.408 . S
C371 C376 1.342 . S
C372 C373 1.310 . S
C372 C375 1.461 . S
C372 H392 0.932 . S
C373 C371 1.408 . S
C373 C372 1.310 . S
C373 H393 0.930 . S
C374 C375 1.474 . S
C374 C376 1.285 . S
C374 H394 0.929 . S
C375 C372 1.461 . S
C375 C374 1.474 . S
C376 C371 1.342 . S
C376 C374 1.285 . S
C376 H395 0.930 . S
C377 C380 1.424 . S
C377 C382 1.245 . S
C377 C383 1.428 . S
C378 C381 1.260 . S
C378 C382 1.477 . S
C378 H396 0.932 . S
C379 C380 1.384 . S
C379 C381 1.479 . S
C379 H397 0.929 . S
C380 C377 1.424 . S
C380 C379 1.384 . S
C380 H398 0.928 . S
C381 C378 1.260 . S
C381 C379 1.479 . S
C382 C377 1.245 . S
C382 C378 1.477 . S
C382 H399 0.932 . S
C383 U366 2.882 . S
C383 C377 1.428 . S
C383 O386 1.301 . S
C383 O387 1.282 . S
O384 U366 2.441 . S
O384 C370 1.249 . S
O385 U366 2.420 . S
O385 C370 1.202 . S
O386 U366 2.455 . S
O386 C383 1.301 . S
O387 U366 2.449 . S
O387 C383 1.282 . S
H388 C361 0.931 . S
H389 C363 0.929 . S
H390 C364 0.930 . S
H391 C365 0.931 . S
H392 C372 0.932 . S
H393 C373 0.930 . S
H394 C374 0.929 . S
H395 C376 0.930 . S
H396 C378 0.932 . S
H397 C379 0.929 . S
H398 C380 0.928 . S
H399 C382 0.932 . S
C400 C401 1.264 . S
C400 C405 1.479 . S
C400 C410 1.465 . S
C401 C400 1.264 . S
C401 C403 1.339 . S
C401 H428 0.931 . S
C402 C403 1.395 . S
C402 C404 1.320 . S
C403 C401 1.339 . S
C403 C402 1.395 . S
C403 H429 0.929 . S
C404 C402 1.320 . S
C404 C405 1.405 . S
C404 H430 0.930 . S
C405 C400 1.479 . S
C405 C404 1.405 . S
C405 H431 0.931 . S
U406 O407 2.454 . S
U406 O408 2.458 . S
U406 C409 2.984 . S
U406 C410 2.847 . S
U406 C423 2.882 . S
U406 O424 2.441 . S
U406 O425 2.420 . S
U406 O426 2.455 . S
U406 O427 2.449 . S
O407 U406 2.454 . S
O407 C409 1.353 . S
O408 U406 2.458 . S
O408 C409 1.286 . S
C409 U406 2.984 . S
C409 O407 1.353 . S
C409 O408 1.286 . S
C409 C411 1.363 . S
C410 C400 1.465 . S
C410 U406 2.847 . S
C410 O424 1.249 . S
C410 O425 1.202 . S
C411 C409 1.363 . S
C411 C413 1.408 . S
C411 C416 1.342 . S
C412 C413 1.310 . S
C412 C415 1.461 . S
C412 H432 0.932 . S
C413 C411 1.408 . S
C413 C412 1.310 . S
C413 H433 0.930 . S
C414 C415 1.474 . S
C414 C416 1.285 . S
C414 H434 0.929 . S
C415 C412 1.461 . S
C415 C414 1.474 . S
C416 C411 1.342 . S
C416 C414 1.285 . S
C416 H435 0.930 . S
C417 C420 1.424 . S
C417 C422 1.245 . S
C417 C423 1.428 . S
C418 C421 1.260 . S
C418 C422 1.477 . S
C418 H436 0.932 . S
C419 C420 1.384 . S
C419 C421 1.479 . S
C419 H437 0.929 . S
C420 C417 1.424 . S
C420 C419 1.384 . S
C420 H438 0.928 . S
C421 C418 1.260 . S
C421 C419 1.479 . S
C422 C417 1.245 . S
C422 C418 1.477 . S
C422 H439 0.932 . S
C423 U406 2.882 . S
C423 C417 1.428 . S
C423 O426 1.301 . S
C423 O427 1.282 . S
O424 U406 2.441 . S
O424 C410 1.249 . S
O425 U406 2.420 . S
O425 C410 1.202 . S
O426 U406 2.455 . S
O426 C423 1.301 . S
O427 U406 2.449 . S
O427 C423 1.282 . S
H428 C401 0.931 . S
H429 C403 0.929 . S
H430 C404 0.930 . S
H431 C405 0.931 . S
H432 C412 0.932 . S
H433 C413 0.930 . S
H434 C414 0.929 . S
H435 C416 0.930 . S
H436 C418 0.932 . S
H437 C419 0.929 . S
H438 C420 0.928 . S
H439 C422 0.932 . S
C440 C441 1.264 . S
C440 C445 1.479 . S
C440 C450 1.465 . S
C441 C440 1.264 . S
C441 C443 1.339 . S
C441 H468 0.931 . S
C442 C443 1.395 . S
C442 C444 1.320 . S
C443 C441 1.339 . S
C443 C442 1.395 . S
C443 H469 0.929 . S
C444 C442 1.320 . S
C444 C445 1.405 . S
C444 H470 0.930 . S
C445 C440 1.479 . S
C445 C444 1.405 . S
C445 H471 0.931 . S
U446 O447 2.454 . S
U446 O448 2.458 . S
U446 C449 2.984 . S
U446 C450 2.847 . S
U446 C463 2.882 . S
U446 O464 2.441 . S
U446 O465 2.420 . S
U446 O466 2.455 . S
U446 O467 2.449 . S
O447 U446 2.454 . S
O447 C449 1.353 . S
O448 U446 2.458 . S
O448 C449 1.286 . S
C449 U446 2.984 . S
C449 O447 1.353 . S
C449 O448 1.286 . S
C449 C451 1.363 . S
C450 C440 1.465 . S
C450 U446 2.847 . S
C450 O464 1.249 . S
C450 O465 1.202 . S
C451 C449 1.363 . S
C451 C453 1.408 . S
C451 C456 1.342 . S
C452 C453 1.310 . S
C452 C455 1.461 . S
C452 H472 0.932 . S
C453 C451 1.408 . S
C453 C452 1.310 . S
C453 H473 0.930 . S
C454 C455 1.474 . S
C454 C456 1.285 . S
C454 H474 0.929 . S
C455 C452 1.461 . S
C455 C454 1.474 . S
C456 C451 1.342 . S
C456 C454 1.285 . S
C456 H475 0.930 . S
C457 C460 1.424 . S
C457 C462 1.245 . S
C457 C463 1.428 . S
C458 C461 1.260 . S
C458 C462 1.477 . S
C458 H476 0.932 . S
C459 C460 1.384 . S
C459 C461 1.479 . S
C459 H477 0.929 . S
C460 C457 1.424 . S
C460 C459 1.384 . S
C460 H478 0.928 . S
C461 C458 1.260 . S
C461 C459 1.479 . S
C462 C457 1.245 . S
C462 C458 1.477 . S
C462 H479 0.932 . S
C463 U446 2.882 . S
C463 C457 1.428 . S
C463 O466 1.301 . S
C463 O467 1.282 . S
O464 U446 2.441 . S
O464 C450 1.249 . S
O465 U446 2.420 . S
O465 C450 1.202 . S
O466 U446 2.455 . S
O466 C463 1.301 . S
O467 U446 2.449 . S
O467 C463 1.282 . S
H468 C441 0.931 . S
H469 C443 0.929 . S
H470 C444 0.930 . S
H471 C445 0.931 . S
H472 C452 0.932 . S
H473 C453 0.930 . S
H474 C454 0.929 . S
H475 C456 0.930 . S
H476 C458 0.932 . S
H477 C459 0.929 . S
H478 C460 0.928 . S
H479 C462 0.932 . S
C480 C481 1.264 . S
C480 C485 1.479 . S
C480 C490 1.465 . S
C481 C480 1.264 . S
C481 C483 1.339 . S
C481 H508 0.931 . S
C482 C483 1.395 . S
C482 C484 1.320 . S
C483 C481 1.339 . S
C483 C482 1.395 . S
C483 H509 0.929 . S
C484 C482 1.320 . S
C484 C485 1.405 . S
C484 H510 0.930 . S
C485 C480 1.479 . S
C485 C484 1.405 . S
C485 H511 0.931 . S
U486 O487 2.454 . S
U486 O488 2.458 . S
U486 C489 2.984 . S
U486 C490 2.847 . S
U486 C503 2.882 . S
U486 O504 2.441 . S
U486 O505 2.420 . S
U486 O506 2.455 . S
U486 O507 2.449 . S
O487 U486 2.454 . S
O487 C489 1.353 . S
O488 U486 2.458 . S
O488 C489 1.286 . S
C489 U486 2.984 . S
C489 O487 1.353 . S
C489 O488 1.286 . S
C489 C491 1.363 . S
C490 C480 1.465 . S
C490 U486 2.847 . S
C490 O504 1.249 . S
C490 O505 1.202 . S
C491 C489 1.363 . S
C491 C493 1.408 . S
C491 C496 1.342 . S
C492 C493 1.310 . S
C492 C495 1.461 . S
C492 H512 0.932 . S
C493 C491 1.408 . S
C493 C492 1.310 . S
C493 H513 0.930 . S
C494 C495 1.474 . S
C494 C496 1.285 . S
C494 H514 0.929 . S
C495 C492 1.461 . S
C495 C494 1.474 . S
C496 C491 1.342 . S
C496 C494 1.285 . S
C496 H515 0.930 . S
C497 C500 1.424 . S
C497 C502 1.245 . S
C497 C503 1.428 . S
C498 C501 1.260 . S
C498 C502 1.477 . S
C498 H516 0.932 . S
C499 C500 1.384 . S
C499 C501 1.479 . S
C499 H517 0.929 . S
C500 C497 1.424 . S
C500 C499 1.384 . S
C500 H518 0.928 . S
C501 C498 1.260 . S
C501 C499 1.479 . S
C502 C497 1.245 . S
C502 C498 1.477 . S
C502 H519 0.932 . S
C503 U486 2.882 . S
C503 C497 1.428 . S
C503 O506 1.301 . S
C503 O507 1.282 . S
O504 U486 2.441 . S
O504 C490 1.249 . S
O505 U486 2.420 . S
O505 C490 1.202 . S
O506 U486 2.455 . S
O506 C503 1.301 . S
O507 U486 2.449 . S
O507 C503 1.282 . S
H508 C481 0.931 . S
H509 C483 0.929 . S
H510 C484 0.930 . S
H511 C485 0.931 . S
H512 C492 0.932 . S
H513 C493 0.930 . S
H514 C494 0.929 . S
H515 C496 0.930 . S
H516 C498 0.932 . S
H517 C499 0.929 . S
H518 C500 0.928 . S
H519 C502 0.932 . S
C520 C521 1.264 . S
C520 C525 1.479 . S
C520 C530 1.465 . S
C521 C520 1.264 . S
C521 C523 1.339 . S
C521 H548 0.931 . S
C522 C523 1.395 . S
C522 C524 1.320 . S
C523 C521 1.339 . S
C523 C522 1.395 . S
C523 H549 0.929 . S
C524 C522 1.320 . S
C524 C525 1.405 . S
C524 H550 0.930 . S
C525 C520 1.479 . S
C525 C524 1.405 . S
C525 H551 0.931 . S
U526 O527 2.454 . S
U526 O528 2.458 . S
U526 C529 2.984 . S
U526 C530 2.847 . S
U526 C543 2.882 . S
U526 O544 2.441 . S
U526 O545 2.420 . S
U526 O546 2.455 . S
U526 O547 2.449 . S
O527 U526 2.454 . S
O527 C529 1.353 . S
O528 U526 2.458 . S
O528 C529 1.286 . S
C529 U526 2.984 . S
C529 O527 1.353 . S
C529 O528 1.286 . S
C529 C531 1.363 . S
C530 C520 1.465 . S
C530 U526 2.847 . S
C530 O544 1.249 . S
C530 O545 1.202 . S
C531 C529 1.363 . S
C531 C533 1.408 . S
C531 C536 1.342 . S
C532 C533 1.310 . S
C532 C535 1.461 . S
C532 H552 0.932 . S
C533 C531 1.408 . S
C533 C532 1.310 . S
C533 H553 0.930 . S
C534 C535 1.474 . S
C534 C536 1.285 . S
C534 H554 0.929 . S
C535 C532 1.461 . S
C535 C534 1.474 . S
C536 C531 1.342 . S
C536 C534 1.285 . S
C536 H555 0.930 . S
C537 C540 1.424 . S
C537 C542 1.245 . S
C537 C543 1.428 . S
C538 C541 1.260 . S
C538 C542 1.477 . S
C538 H556 0.932 . S
C539 C540 1.384 . S
C539 C541 1.479 . S
C539 H557 0.929 . S
C540 C537 1.424 . S
C540 C539 1.384 . S
C540 H558 0.928 . S
C541 C538 1.260 . S
C541 C539 1.479 . S
C542 C537 1.245 . S
C542 C538 1.477 . S
C542 H559 0.932 . S
C543 U526 2.882 . S
C543 C537 1.428 . S
C543 O546 1.301 . S
C543 O547 1.282 . S
O544 U526 2.441 . S
O544 C530 1.249 . S
O545 U526 2.420 . S
O545 C530 1.202 . S
O546 U526 2.455 . S
O546 C543 1.301 . S
O547 U526 2.449 . S
O547 C543 1.282 . S
H548 C521 0.931 . S
H549 C523 0.929 . S
H550 C524 0.930 . S
H551 C525 0.931 . S
H552 C532 0.932 . S
H553 C533 0.930 . S
H554 C534 0.929 . S
H555 C536 0.930 . S
H556 C538 0.932 . S
H557 C539 0.929 . S
H558 C540 0.928 . S
H559 C542 0.932 . S
C560 C561 1.264 . S
C560 C565 1.479 . S
C560 C570 1.465 . S
C561 C560 1.264 . S
C561 C563 1.339 . S
C561 H588 0.931 . S
C562 C563 1.395 . S
C562 C564 1.320 . S
C563 C561 1.339 . S
C563 C562 1.395 . S
C563 H589 0.929 . S
C564 C562 1.320 . S
C564 C565 1.405 . S
C564 H590 0.930 . S
C565 C560 1.479 . S
C565 C564 1.405 . S
C565 H591 0.931 . S
U566 O567 2.454 . S
U566 O568 2.458 . S
U566 C569 2.984 . S
U566 C570 2.847 . S
U566 C583 2.882 . S
U566 O584 2.441 . S
U566 O585 2.420 . S
U566 O586 2.455 . S
U566 O587 2.449 . S
O567 U566 2.454 . S
O567 C569 1.353 . S
O568 U566 2.458 . S
O568 C569 1.286 . S
C569 U566 2.984 . S
C569 O567 1.353 . S
C569 O568 1.286 . S
C569 C571 1.363 . S
C570 C560 1.465 . S
C570 U566 2.847 . S
C570 O584 1.249 . S
C570 O585 1.202 . S
C571 C569 1.363 . S
C571 C573 1.408 . S
C571 C576 1.342 . S
C572 C573 1.310 . S
C572 C575 1.461 . S
C572 H592 0.932 . S
C573 C571 1.408 . S
C573 C572 1.310 . S
C573 H593 0.930 . S
C574 C575 1.474 . S
C574 C576 1.285 . S
C574 H594 0.929 . S
C575 C572 1.461 . S
C575 C574 1.474 . S
C576 C571 1.342 . S
C576 C574 1.285 . S
C576 H595 0.930 . S
C577 C580 1.424 . S
C577 C582 1.245 . S
C577 C583 1.428 . S
C578 C581 1.260 . S
C578 C582 1.477 . S
C578 H596 0.932 . S
C579 C580 1.384 . S
C579 C581 1.479 . S
C579 H597 0.929 . S
C580 C577 1.424 . S
C580 C579 1.384 . S
C580 H598 0.928 . S
C581 C578 1.260 . S
C581 C579 1.479 . S
C582 C577 1.245 . S
C582 C578 1.477 . S
C582 H599 0.932 . S
C583 U566 2.882 . S
C583 C577 1.428 . S
C583 O586 1.301 . S
C583 O587 1.282 . S
O584 U566 2.441 . S
O584 C570 1.249 . S
O585 U566 2.420 . S
O585 C570 1.202 . S
O586 U566 2.455 . S
O586 C583 1.301 . S
O587 U566 2.449 . S
O587 C583 1.282 . S
H588 C561 0.931 . S
H589 C563 0.929 . S
H590 C564 0.930 . S
H591 C565 0.931 . S
H592 C572 0.932 . S
H593 C573 0.930 . S
H594 C574 0.929 . S
H595 C576 0.930 . S
H596 C578 0.932 . S
H597 C579 0.929 . S
H598 C580 0.928 . S
H599 C582 0.932 . S
C600 C601 1.264 . S
C600 C605 1.479 . S
C600 C610 1.465 . S
C601 C600 1.264 . S
C601 C603 1.339 . S
C601 H628 0.931 . S
C602 C603 1.395 . S
C602 C604 1.320 . S
C603 C601 1.339 . S
C603 C602 1.395 . S
C603 H629 0.929 . S
C604 C602 1.320 . S
C604 C605 1.405 . S
C604 H630 0.930 . S
C605 C600 1.479 . S
C605 C604 1.405 . S
C605 H631 0.931 . S
U606 O607 2.454 . S
U606 O608 2.458 . S
U606 C609 2.984 . S
U606 C610 2.847 . S
U606 C623 2.882 . S
U606 O624 2.441 . S
U606 O625 2.420 . S
U606 O626 2.455 . S
U606 O627 2.449 . S
O607 U606 2.454 . S
O607 C609 1.353 . S
O608 U606 2.458 . S
O608 C609 1.286 . S
C609 U606 2.984 . S
C609 O607 1.353 . S
C609 O608 1.286 . S
C609 C611 1.363 . S
C610 C600 1.465 . S
C610 U606 2.847 . S
C610 O624 1.249 . S
C610 O625 1.202 . S
C611 C609 1.363 . S
C611 C613 1.408 . S
C611 C616 1.342 . S
C612 C613 1.310 . S
C612 C615 1.461 . S
C612 H632 0.932 . S
C613 C611 1.408 . S
C613 C612 1.310 . S
C613 H633 0.930 . S
C614 C615 1.474 . S
C614 C616 1.285 . S
C614 H634 0.929 . S
C615 C612 1.461 . S
C615 C614 1.474 . S
C616 C611 1.342 . S
C616 C614 1.285 . S
C616 H635 0.930 . S
C617 C620 1.424 . S
C617 C622 1.245 . S
C617 C623 1.428 . S
C618 C621 1.260 . S
C618 C622 1.477 . S
C618 H636 0.932 . S
C619 C620 1.384 . S
C619 C621 1.479 . S
C619 H637 0.929 . S
C620 C617 1.424 . S
C620 C619 1.384 . S
C620 H638 0.928 . S
C621 C618 1.260 . S
C621 C619 1.479 . S
C622 C617 1.245 . S
C622 C618 1.477 . S
C622 H639 0.932 . S
C623 U606 2.882 . S
C623 C617 1.428 . S
C623 O626 1.301 . S
C623 O627 1.282 . S
O624 U606 2.441 . S
O624 C610 1.249 . S
O625 U606 2.420 . S
O625 C610 1.202 . S
O626 U606 2.455 . S
O626 C623 1.301 . S
O627 U606 2.449 . S
O627 C623 1.282 . S
H628 C601 0.931 . S
H629 C603 0.929 . S
H630 C604 0.930 . S
H631 C605 0.931 . S
H632 C612 0.932 . S
H633 C613 0.930 . S
H634 C614 0.929 . S
H635 C616 0.930 . S
H636 C618 0.932 . S
H637 C619 0.929 . S
H638 C620 0.928 . S
H639 C622 0.932 . S
C640 C641 1.264 . S
C640 C645 1.479 . S
C640 C650 1.465 . S
C641 C640 1.264 . S
C641 C643 1.339 . S
C641 H668 0.931 . S
C642 C643 1.395 . S
C642 C644 1.320 . S
C643 C641 1.339 . S
C643 C642 1.395 . S
C643 H669 0.929 . S
C644 C642 1.320 . S
C644 C645 1.405 . S
C644 H670 0.930 . S
C645 C640 1.479 . S
C645 C644 1.405 . S
C645 H671 0.931 . S
U646 O647 2.454 . S
U646 O648 2.458 . S
U646 C649 2.984 . S
U646 C650 2.847 . S
U646 C663 2.882 . S
U646 O664 2.441 . S
U646 O665 2.420 . S
U646 O666 2.455 . S
U646 O667 2.449 . S
O647 U646 2.454 . S
O647 C649 1.353 . S
O648 U646 2.458 . S
O648 C649 1.286 . S
C649 U646 2.984 . S
C649 O647 1.353 . S
C649 O648 1.286 . S
C649 C651 1.363 . S
C650 C640 1.465 . S
C650 U646 2.847 . S
C650 O664 1.249 . S
C650 O665 1.202 . S
C651 C649 1.363 . S
C651 C653 1.408 . S
C651 C656 1.342 . S
C652 C653 1.310 . S
C652 C655 1.461 . S
C652 H672 0.932 . S
C653 C651 1.408 . S
C653 C652 1.310 . S
C653 H673 0.930 . S
C654 C655 1.474 . S
C654 C656 1.285 . S
C654 H674 0.929 . S
C655 C652 1.461 . S
C655 C654 1.474 . S
C656 C651 1.342 . S
C656 C654 1.285 . S
C656 H675 0.930 . S
C657 C660 1.424 . S
C657 C662 1.245 . S
C657 C663 1.428 . S
C658 C661 1.260 . S
C658 C662 1.477 . S
C658 H676 0.932 . S
C659 C660 1.384 . S
C659 C661 1.479 . S
C659 H677 0.929 . S
C660 C657 1.424 . S
C660 C659 1.384 . S
C660 H678 0.928 . S
C661 C658 1.260 . S
C661 C659 1.479 . S
C662 C657 1.245 . S
C662 C658 1.477 . S
C662 H679 0.932 . S
C663 U646 2.882 . S
C663 C657 1.428 . S
C663 O666 1.301 . S
C663 O667 1.282 . S
O664 U646 2.441 . S
O664 C650 1.249 . S
O665 U646 2.420 . S
O665 C650 1.202 . S
O666 U646 2.455 . S
O666 C663 1.301 . S
O667 U646 2.449 . S
O667 C663 1.282 . S
H668 C641 0.931 . S
H669 C643 0.929 . S
H670 C644 0.930 . S
H671 C645 0.931 . S
H672 C652 0.932 . S
H673 C653 0.930 . S
H674 C654 0.929 . S
H675 C656 0.930 . S
H676 C658 0.932 . S
H677 C659 0.929 . S
H678 C660 0.928 . S
H679 C662 0.932 . S
C680 C681 1.264 . S
C680 C685 1.479 . S
C680 C690 1.465 . S
C681 C680 1.264 . S
C681 C683 1.339 . S
C681 H708 0.931 . S
C682 C683 1.395 . S
C682 C684 1.320 . S
C683 C681 1.339 . S
C683 C682 1.395 . S
C683 H709 0.929 . S
C684 C682 1.320 . S
C684 C685 1.405 . S
C684 H710 0.930 . S
C685 C680 1.479 . S
C685 C684 1.405 . S
C685 H711 0.931 . S
U686 O687 2.454 . S
U686 O688 2.458 . S
U686 C689 2.984 . S
U686 C690 2.847 . S
U686 C703 2.882 . S
U686 O704 2.441 . S
U686 O705 2.420 . S
U686 O706 2.455 . S
U686 O707 2.449 . S
O687 U686 2.454 . S
O687 C689 1.353 . S
O688 U686 2.458 . S
O688 C689 1.286 . S
C689 U686 2.984 . S
C689 O687 1.353 . S
C689 O688 1.286 . S
C689 C691 1.363 . S
C690 C680 1.465 . S
C690 U686 2.847 . S
C690 O704 1.249 . S
C690 O705 1.202 . S
C691 C689 1.363 . S
C691 C693 1.408 . S
C691 C696 1.342 . S
C692 C693 1.310 . S
C692 C695 1.461 . S
C692 H712 0.932 . S
C693 C691 1.408 . S
C693 C692 1.310 . S
C693 H713 0.930 . S
C694 C695 1.474 . S
C694 C696 1.285 . S
C694 H714 0.929 . S
C695 C692 1.461 . S
C695 C694 1.474 . S
C696 C691 1.342 . S
C696 C694 1.285 . S
C696 H715 0.930 . S
C697 C700 1.424 . S
C697 C702 1.245 . S
C697 C703 1.428 . S
C698 C701 1.260 . S
C698 C702 1.477 . S
C698 H716 0.932 . S
C699 C700 1.384 . S
C699 C701 1.479 . S
C699 H717 0.929 . S
C700 C697 1.424 . S
C700 C699 1.384 . S
C700 H718 0.928 . S
C701 C698 1.260 . S
C701 C699 1.479 . S
C702 C697 1.245 . S
C702 C698 1.477 . S
C702 H719 0.932 . S
C703 U686 2.882 . S
C703 C697 1.428 . S
C703 O706 1.301 . S
C703 O707 1.282 . S
O704 U686 2.441 . S
O704 C690 1.249 . S
O705 U686 2.420 . S
O705 C690 1.202 . S
O706 U686 2.455 . S
O706 C703 1.301 . S
O707 U686 2.449 . S
O707 C703 1.282 . S
H708 C681 0.931 . S
H709 C683 0.929 . S
H710 C684 0.930 . S
H711 C685 0.931 . S
H712 C692 0.932 . S
H713 C693 0.930 . S
H714 C694 0.929 . S
H715 C696 0.930 . S
H716 C698 0.932 . S
H717 C699 0.929 . S
H718 C700 0.928 . S
H719 C702 0.932 . S
C720 C721 1.264 . S
C720 C725 1.479 . S
C720 C730 1.465 . S
C721 C720 1.264 . S
C721 C723 1.339 . S
C721 H748 0.931 . S
C722 C723 1.395 . S
C722 C724 1.320 . S
C723 C721 1.339 . S
C723 C722 1.395 . S
C723 H749 0.929 . S
C724 C722 1.320 . S
C724 C725 1.405 . S
C724 H750 0.930 . S
C725 C720 1.479 . S
C725 C724 1.405 . S
C725 H751 0.931 . S
U726 O727 2.454 . S
U726 O728 2.458 . S
U726 C729 2.984 . S
U726 C730 2.847 . S
U726 C743 2.882 . S
U726 O744 2.441 . S
U726 O745 2.420 . S
U726 O746 2.455 . S
U726 O747 2.449 . S
O727 U726 2.454 . S
O727 C729 1.353 . S
O728 U726 2.458 . S
O728 C729 1.286 . S
C729 U726 2.984 . S
C729 O727 1.353 . S
C729 O728 1.286 . S
C729 C731 1.363 . S
C730 C720 1.465 . S
C730 U726 2.847 . S
C730 O744 1.249 . S
C730 O745 1.202 . S
C731 C729 1.363 . S
C731 C733 1.408 . S
C731 C736 1.342 . S
C732 C733 1.310 . S
C732 C735 1.461 . S
C732 H752 0.932 . S
C733 C731 1.408 . S
C733 C732 1.310 . S
C733 H753 0.930 . S
C734 C735 1.474 . S
C734 C736 1.285 . S
C734 H754 0.929 . S
C735 C732 1.461 . S
C735 C734 1.474 . S
C736 C731 1.342 . S
C736 C734 1.285 . S
C736 H755 0.930 . S
C737 C740 1.424 . S
C737 C742 1.245 . S
C737 C743 1.428 . S
C738 C741 1.260 . S
C738 C742 1.477 . S
C738 H756 0.932 . S
C739 C740 1.384 . S
C739 C741 1.479 . S
C739 H757 0.929 . S
C740 C737 1.424 . S
C740 C739 1.384 . S
C740 H758 0.928 . S
C741 C738 1.260 . S
C741 C739 1.479 . S
C742 C737 1.245 . S
C742 C738 1.477 . S
C742 H759 0.932 . S
C743 U726 2.882 . S
C743 C737 1.428 . S
C743 O746 1.301 . S
C743 O747 1.282 . S
O744 U726 2.441 . S
O744 C730 1.249 . S
O745 U726 2.420 . S
O745 C730 1.202 . S
O746 U726 2.455 . S
O746 C743 1.301 . S
O747 U726 2.449 . S
O747 C743 1.282 . S
H748 C721 0.931 . S
H749 C723 0.929 . S
H750 C724 0.930 . S
H751 C725 0.931 . S
H752 C732 0.932 . S
H753 C733 0.930 . S
H754 C734 0.929 . S
H755 C736 0.930 . S
H756 C738 0.932 . S
H757 C739 0.929 . S
H758 C740 0.928 . S
H759 C742 0.932 . S
C760 C761 1.264 . S
C760 C765 1.479 . S
C760 C770 1.465 . S
C761 C760 1.264 . S
C761 C763 1.339 . S
C761 H788 0.931 . S
C762 C763 1.395 . S
C762 C764 1.320 . S
C763 C761 1.339 . S
C763 C762 1.395 . S
C763 H789 0.929 . S
C764 C762 1.320 . S
C764 C765 1.405 . S
C764 H790 0.930 . S
C765 C760 1.479 . S
C765 C764 1.405 . S
C765 H791 0.931 . S
U766 O767 2.454 . S
U766 O768 2.458 . S
U766 C769 2.984 . S
U766 C770 2.847 . S
U766 C783 2.882 . S
U766 O784 2.441 . S
U766 O785 2.420 . S
U766 O786 2.455 . S
U766 O787 2.449 . S
O767 U766 2.454 . S
O767 C769 1.353 . S
O768 U766 2.458 . S
O768 C769 1.286 . S
C769 U766 2.984 . S
C769 O767 1.353 . S
C769 O768 1.286 . S
C769 C771 1.363 . S
C770 C760 1.465 . S
C770 U766 2.847 . S
C770 O784 1.249 . S
C770 O785 1.202 . S
C771 C769 1.363 . S
C771 C773 1.408 . S
C771 C776 1.342 . S
C772 C773 1.310 . S
C772 C775 1.461 . S
C772 H792 0.932 . S
C773 C771 1.408 . S
C773 C772 1.310 . S
C773 H793 0.930 . S
C774 C775 1.474 . S
C774 C776 1.285 . S
C774 H794 0.929 . S
C775 C772 1.461 . S
C775 C774 1.474 . S
C776 C771 1.342 . S
C776 C774 1.285 . S
C776 H795 0.930 . S
C777 C780 1.424 . S
C777 C782 1.245 . S
C777 C783 1.428 . S
C778 C781 1.260 . S
C778 C782 1.477 . S
C778 H796 0.932 . S
C779 C780 1.384 . S
C779 C781 1.479 . S
C779 H797 0.929 . S
C780 C777 1.424 . S
C780 C779 1.384 . S
C780 H798 0.928 . S
C781 C778 1.260 . S
C781 C779 1.479 . S
C782 C777 1.245 . S
C782 C778 1.477 . S
C782 H799 0.932 . S
C783 U766 2.882 . S
C783 C777 1.428 . S
C783 O786 1.301 . S
C783 O787 1.282 . S
O784 U766 2.441 . S
O784 C770 1.249 . S
O785 U766 2.420 . S
O785 C770 1.202 . S
O786 U766 2.455 . S
O786 C783 1.301 . S
O787 U766 2.449 . S
O787 C783 1.282 . S
H788 C761 0.931 . S
H789 C763 0.929 . S
H790 C764 0.930 . S
H791 C765 0.931 . S
H792 C772 0.932 . S
H793 C773 0.930 . S
H794 C774 0.929 . S
H795 C776 0.930 . S
H796 C778 0.932 . S
H797 C779 0.929 . S
H798 C780 0.928 . S
H799 C782 0.932 . S
C800 C801 1.264 . S
C800 C805 1.479 . S
C800 C810 1.465 . S
C801 C800 1.264 . S
C801 C803 1.339 . S
C801 H828 0.931 . S
C802 C803 1.395 . S
C802 C804 1.320 . S
C803 C801 1.339 . S
C803 C802 1.395 . S
C803 H829 0.929 . S
C804 C802 1.320 . S
C804 C805 1.405 . S
C804 H830 0.930 . S
C805 C800 1.479 . S
C805 C804 1.405 . S
C805 H831 0.931 . S
U806 O807 2.454 . S
U806 O808 2.458 . S
U806 C809 2.984 . S
U806 C810 2.847 . S
U806 C823 2.882 . S
U806 O824 2.441 . S
U806 O825 2.420 . S
U806 O826 2.455 . S
U806 O827 2.449 . S
O807 U806 2.454 . S
O807 C809 1.353 . S
O808 U806 2.458 . S
O808 C809 1.286 . S
C809 U806 2.984 . S
C809 O807 1.353 . S
C809 O808 1.286 . S
C809 C811 1.363 . S
C810 C800 1.465 . S
C810 U806 2.847 . S
C810 O824 1.249 . S
C810 O825 1.202 . S
C811 C809 1.363 . S
C811 C813 1.408 . S
C811 C816 1.342 . S
C812 C813 1.310 . S
C812 C815 1.461 . S
C812 H832 0.932 . S
C813 C811 1.408 . S
C813 C812 1.310 . S
C813 H833 0.930 . S
C814 C815 1.474 . S
C814 C816 1.285 . S
C814 H834 0.929 . S
C815 C812 1.461 . S
C815 C814 1.474 . S
C816 C811 1.342 . S
C816 C814 1.285 . S
C816 H835 0.930 . S
C817 C820 1.424 . S
C817 C822 1.245 . S
C817 C823 1.428 . S
C818 C821 1.260 . S
C818 C822 1.477 . S
C818 H836 0.932 . S
C819 C820 1.384 . S
C819 C821 1.479 . S
C819 H837 0.929 . S
C820 C817 1.424 . S
C820 C819 1.384 . S
C820 H838 0.928 . S
C821 C818 1.260 . S
C821 C819 1.479 . S
C822 C817 1.245 . S
C822 C818 1.477 . S
C822 H839 0.932 . S
C823 U806 2.882 . S
C823 C817 1.428 . S
C823 O826 1.301 . S
C823 O827 1.282 . S
O824 U806 2.441 . S
O824 C810 1.249 . S
O825 U806 2.420 . S
O825 C810 1.202 . S
O826 U806 2.455 . S
O826 C823 1.301 . S
O827 U806 2.449 . S
O827 C823 1.282 . S
H828 C801 0.931 . S
H829 C803 0.929 . S
H830 C804 0.930 . S
H831 C805 0.931 . S
H832 C812 0.932 . S
H833 C813 0.930 . S
H834 C814 0.929 . S
H835 C816 0.930 . S
H836 C818 0.932 . S
H837 C819 0.929 . S
H838 C820 0.928 . S
H839 C822 0.932 . S
C840 C841 1.264 . S
C840 C845 1.479 . S
C840 C850 1.465 . S
C841 C840 1.264 . S
C841 C843 1.339 . S
C841 H868 0.931 . S
C842 C843 1.395 . S
C842 C844 1.320 . S
C843 C841 1.339 . S
C843 C842 1.395 . S
C843 H869 0.929 . S
C844 C842 1.320 . S
C844 C845 1.405 . S
C844 H870 0.930 . S
C845 C840 1.479 . S
C845 C844 1.405 . S
C845 H871 0.931 . S
U846 O847 2.454 . S
U846 O848 2.458 . S
U846 C849 2.984 . S
U846 C850 2.847 . S
U846 C863 2.882 . S
U846 O864 2.441 . S
U846 O865 2.420 . S
U846 O866 2.455 . S
U846 O867 2.449 . S
O847 U846 2.454 . S
O847 C849 1.353 . S
O848 U846 2.458 . S
O848 C849 1.286 . S
C849 U846 2.984 . S
C849 O847 1.353 . S
C849 O848 1.286 . S
C849 C851 1.363 . S
C850 C840 1.465 . S
C850 U846 2.847 . S
C850 O864 1.249 . S
C850 O865 1.202 . S
C851 C849 1.363 . S
C851 C853 1.408 . S
C851 C856 1.342 . S
C852 C853 1.310 . S
C852 C855 1.461 . S
C852 H872 0.932 . S
C853 C851 1.408 . S
C853 C852 1.310 . S
C853 H873 0.930 . S
C854 C855 1.474 . S
C854 C856 1.285 . S
C854 H874 0.929 . S
C855 C852 1.461 . S
C855 C854 1.474 . S
C856 C851 1.342 . S
C856 C854 1.285 . S
C856 H875 0.930 . S
C857 C860 1.424 . S
C857 C862 1.245 . S
C857 C863 1.428 . S
C858 C861 1.260 . S
C858 C862 1.477 . S
C858 H876 0.932 . S
C859 C860 1.384 . S
C859 C861 1.479 . S
C859 H877 0.929 . S
C860 C857 1.424 . S
C860 C859 1.384 . S
C860 H878 0.928 . S
C861 C858 1.260 . S
C861 C859 1.479 . S
C862 C857 1.245 . S
C862 C858 1.477 . S
C862 H879 0.932 . S
C863 U846 2.882 . S
C863 C857 1.428 . S
C863 O866 1.301 . S
C863 O867 1.282 . S
O864 U846 2.441 . S
O864 C850 1.249 . S
O865 U846 2.420 . S
O865 C850 1.202 . S
O866 U846 2.455 . S
O866 C863 1.301 . S
O867 U846 2.449 . S
O867 C863 1.282 . S
H868 C841 0.931 . S
H869 C843 0.929 . S
H870 C844 0.930 . S
H871 C845 0.931 . S
H872 C852 0.932 . S
H873 C853 0.930 . S
H874 C854 0.929 . S
H875 C856 0.930 . S
H876 C858 0.932 . S
H877 C859 0.929 . S
H878 C860 0.928 . S
H879 C862 0.932 . S
C880 C881 1.264 . S
C880 C885 1.479 . S
C880 C890 1.465 . S
C881 C880 1.264 . S
C881 C883 1.339 . S
C881 H908 0.931 . S
C882 C883 1.395 . S
C882 C884 1.320 . S
C883 C881 1.339 . S
C883 C882 1.395 . S
C883 H909 0.929 . S
C884 C882 1.320 . S
C884 C885 1.405 . S
C884 H910 0.930 . S
C885 C880 1.479 . S
C885 C884 1.405 . S
C885 H911 0.931 . S
U886 O887 2.454 . S
U886 O888 2.458 . S
U886 C889 2.984 . S
U886 C890 2.847 . S
U886 C903 2.882 . S
U886 O904 2.441 . S
U886 O905 2.420 . S
U886 O906 2.455 . S
U886 O907 2.449 . S
O887 U886 2.454 . S
O887 C889 1.353 . S
O888 U886 2.458 . S
O888 C889 1.286 . S
C889 U886 2.984 . S
C889 O887 1.353 . S
C889 O888 1.286 . S
C889 C891 1.363 . S
C890 C880 1.465 . S
C890 U886 2.847 . S
C890 O904 1.249 . S
C890 O905 1.202 . S
C891 C889 1.363 . S
C891 C893 1.408 . S
C891 C896 1.342 . S
C892 C893 1.310 . S
C892 C895 1.461 . S
C892 H912 0.932 . S
C893 C891 1.408 . S
C893 C892 1.310 . S
C893 H913 0.930 . S
C894 C895 1.474 . S
C894 C896 1.285 . S
C894 H914 0.929 . S
C895 C892 1.461 . S
C895 C894 1.474 . S
C896 C891 1.342 . S
C896 C894 1.285 . S
C896 H915 0.930 . S
C897 C900 1.424 . S
C897 C902 1.245 . S
C897 C903 1.428 . S
C898 C901 1.260 . S
C898 C902 1.477 . S
C898 H916 0.932 . S
C899 C900 1.384 . S
C899 C901 1.479 . S
C899 H917 0.929 . S
C900 C897 1.424 . S
C900 C899 1.384 . S
C900 H918 0.928 . S
C901 C898 1.260 . S
C901 C899 1.479 . S
C902 C897 1.245 . S
C902 C898 1.477 . S
C902 H919 0.932 . S
C903 U886 2.882 . S
C903 C897 1.428 . S
C903 O906 1.301 . S
C903 O907 1.282 . S
O904 U886 2.441 . S
O904 C890 1.249 . S
O905 U886 2.420 . S
O905 C890 1.202 . S
O906 U886 2.455 . S
O906 C903 1.301 . S
O907 U886 2.449 . S
O907 C903 1.282 . S
H908 C881 0.931 . S
H909 C883 0.929 . S
H910 C884 0.930 . S
H911 C885 0.931 . S
H912 C892 0.932 . S
H913 C893 0.930 . S
H914 C894 0.929 . S
H915 C896 0.930 . S
H916 C898 0.932 . S
H917 C899 0.929 . S
H918 C900 0.928 . S
H919 C902 0.932 . S
C920 C921 1.264 . S
C920 C925 1.479 . S
C920 C930 1.465 . S
C921 C920 1.264 . S
C921 C923 1.339 . S
C921 H948 0.931 . S
C922 C923 1.395 . S
C922 C924 1.320 . S
C923 C921 1.339 . S
C923 C922 1.395 . S
C923 H949 0.929 . S
C924 C922 1.320 . S
C924 C925 1.405 . S
C924 H950 0.930 . S
C925 C920 1.479 . S
C925 C924 1.405 . S
C925 H951 0.931 . S
U926 O927 2.454 . S
U926 O928 2.458 . S
U926 C929 2.984 . S
U926 C930 2.847 . S
U926 C943 2.882 . S
U926 O944 2.441 . S
U926 O945 2.420 . S
U926 O946 2.455 . S
U926 O947 2.449 . S
O927 U926 2.454 . S
O927 C929 1.353 . S
O928 U926 2.458 . S
O928 C929 1.286 . S
C929 U926 2.984 . S
C929 O927 1.353 . S
C929 O928 1.286 . S
C929 C931 1.363 . S
C930 C920 1.465 . S
C930 U926 2.847 . S
C930 O944 1.249 . S
C930 O945 1.202 . S
C931 C929 1.363 . S
C931 C933 1.408 . S
C931 C936 1.342 . S
C932 C933 1.310 . S
C932 C935 1.461 . S
C932 H952 0.932 . S
C933 C931 1.408 . S
C933 C932 1.310 . S
C933 H953 0.930 . S
C934 C935 1.474 . S
C934 C936 1.285 . S
C934 H954 0.929 . S
C935 C932 1.461 . S
C935 C934 1.474 . S
C936 C931 1.342 . S
C936 C934 1.285 . S
C936 H955 0.930 . S
C937 C940 1.424 . S
C937 C942 1.245 . S
C937 C943 1.428 . S
C938 C941 1.260 . S
C938 C942 1.477 . S
C938 H956 0.932 . S
C939 C940 1.384 . S
C939 C941 1.479 . S
C939 H957 0.929 . S
C940 C937 1.424 . S
C940 C939 1.384 . S
C940 H958 0.928 . S
C941 C938 1.260 . S
C941 C939 1.479 . S
C942 C937 1.245 . S
C942 C938 1.477 . S
C942 H959 0.932 . S
C943 U926 2.882 . S
C943 C937 1.428 . S
C943 O946 1.301 . S
C943 O947 1.282 . S
O944 U926 2.441 . S
O944 C930 1.249 . S
O945 U926 2.420 . S
O945 C930 1.202 . S
O946 U926 2.455 . S
O946 C943 1.301 . S
O947 U926 2.449 . S
O947 C943 1.282 . S
H948 C921 0.931 . S
H949 C923 0.929 . S
H950 C924 0.930 . S
H951 C925 0.931 . S
H952 C932 0.932 . S
H953 C933 0.930 . S
H954 C934 0.929 . S
H955 C936 0.930 . S
H956 C938 0.932 . S
H957 C939 0.929 . S
H958 C940 0.928 . S
H959 C942 0.932 . S
C960 C961 1.264 . S
C960 C965 1.479 . S
C960 C970 1.465 . S
C961 C960 1.264 . S
C961 C963 1.339 . S
C961 H988 0.931 . S
C962 C963 1.395 . S
C962 C964 1.320 . S
C963 C961 1.339 . S
C963 C962 1.395 . S
C963 H989 0.929 . S
C964 C962 1.320 . S
C964 C965 1.405 . S
C964 H990 0.930 . S
C965 C960 1.479 . S
C965 C964 1.405 . S
C965 H991 0.931 . S
U966 O967 2.454 . S
U966 O968 2.458 . S
U966 C969 2.984 . S
U966 C970 2.847 . S
U966 C983 2.882 . S
U966 O984 2.441 . S
U966 O985 2.420 . S
U966 O986 2.455 . S
U966 O987 2.449 . S
O967 U966 2.454 . S
O967 C969 1.353 . S
O968 U966 2.458 . S
O968 C969 1.286 . S
C969 U966 2.984 . S
C969 O967 1.353 . S
C969 O968 1.286 . S
C969 C971 1.363 . S
C970 C960 1.465 . S
C970 U966 2.847 . S
C970 O984 1.249 . S
C970 O985 1.202 . S
C971 C969 1.363 . S
C971 C973 1.408 . S
C971 C976 1.342 . S
C972 C973 1.310 . S
C972 C975 1.461 . S
C972 H992 0.932 . S
C973 C971 1.408 . S
C973 C972 1.310 . S
C973 H993 0.930 . S
C974 C975 1.474 . S
C974 C976 1.285 . S
C974 H994 0.929 . S
C975 C972 1.461 . S
C975 C974 1.474 . S
C976 C971 1.342 . S
C976 C974 1.285 . S
C976 H995 0.930 . S
C977 C980 1.424 . S
C977 C982 1.245 . S
C977 C983 1.428 . S
C978 C981 1.260 . S
C978 C982 1.477 . S
C978 H996 0.932 . S
C979 C980 1.384 . S
C979 C981 1.479 . S
C979 H997 0.929 . S
C980 C977 1.424 . S
C980 C979 1.384 . S
C980 H998 0.928 . S
C981 C978 1.260 . S
C981 C979 1.479 . S
C982 C977 1.245 . S
C982 C978 1.477 . S
C982 H999 0.932 . S
C983 U966 2.882 . S
C983 C977 1.428 . S
C983 O986 1.301 . S
C983 O987 1.282 . S
O984 U966 2.441 . S
O984 C970 1.249 . S
O985 U966 2.420 . S
O985 C970 1.202 . S
O986 U966 2.455 . S
O986 C983 1.301 . S
O987 U966 2.449 . S
O987 C983 1.282 . S
H988 C961 0.931 . S
H989 C963 0.929 . S
H990 C964 0.930 . S
H991 C965 0.931 . S
H992 C972 0.932 . S
H993 C973 0.930 . S
H994 C974 0.929 . S
H995 C976 0.930 . S
H996 C978 0.932 . S
H997 C979 0.929 . S
H998 C980 0.928 . S
H999 C982 0.932 . S
C1000 C1001 1.264 . S
C1000 C1005 1.479 . S
C1000 C1010 1.465 . S
C1001 C1000 1.264 . S
C1001 C1003 1.339 . S
C1001 H1028 0.931 . S
C1002 C1003 1.395 . S
C1002 C1004 1.320 . S
C1003 C1001 1.339 . S
C1003 C1002 1.395 . S
C1003 H1029 0.929 . S
C1004 C1002 1.320 . S
C1004 C1005 1.405 . S
C1004 H1030 0.930 . S
C1005 C1000 1.479 . S
C1005 C1004 1.405 . S
C1005 H1031 0.931 . S
U1006 O1007 2.454 . S
U1006 O1008 2.458 . S
U1006 C1009 2.984 . S
U1006 C1010 2.847 . S
U1006 C1023 2.882 . S
U1006 O1024 2.441 . S
U1006 O1025 2.420 . S
U1006 O1026 2.455 . S
U1006 O1027 2.449 . S
O1007 U1006 2.454 . S
O1007 C1009 1.353 . S
O1008 U1006 2.458 . S
O1008 C1009 1.286 . S
C1009 U1006 2.984 . S
C1009 O1007 1.353 . S
C1009 O1008 1.286 . S
C1009 C1011 1.363 . S
C1010 C1000 1.465 . S
C1010 U1006 2.847 . S
C1010 O1024 1.249 . S
C1010 O1025 1.202 . S
C1011 C1009 1.363 . S
C1011 C1013 1.408 . S
C1011 C1016 1.342 . S
C1012 C1013 1.310 . S
C1012 C1015 1.461 . S
C1012 H1032 0.932 . S
C1013 C1011 1.408 . S
C1013 C1012 1.310 . S
C1013 H1033 0.930 . S
C1014 C1015 1.474 . S
C1014 C1016 1.285 . S
C1014 H1034 0.929 . S
C1015 C1012 1.461 . S
C1015 C1014 1.474 . S
C1016 C1011 1.342 . S
C1016 C1014 1.285 . S
C1016 H1035 0.930 . S
C1017 C1020 1.424 . S
C1017 C1022 1.245 . S
C1017 C1023 1.428 . S
C1018 C1021 1.260 . S
C1018 C1022 1.477 . S
C1018 H1036 0.932 . S
C1019 C1020 1.384 . S
C1019 C1021 1.479 . S
C1019 H1037 0.929 . S
C1020 C1017 1.424 . S
C1020 C1019 1.384 . S
C1020 H1038 0.928 . S
C1021 C1018 1.260 . S
C1021 C1019 1.479 . S
C1022 C1017 1.245 . S
C1022 C1018 1.477 . S
C1022 H1039 0.932 . S
C1023 U1006 2.882 . S
C1023 C1017 1.428 . S
C1023 O1026 1.301 . S
C1023 O1027 1.282 . S
O1024 U1006 2.441 . S
O1024 C1010 1.249 . S
O1025 U1006 2.420 . S
O1025 C1010 1.202 . S
O1026 U1006 2.455 . S
O1026 C1023 1.301 . S
O1027 U1006 2.449 . S
O1027 C1023 1.282 . S
H1028 C1001 0.931 . S
H1029 C1003 0.929 . S
H1030 C1004 0.930 . S
H1031 C1005 0.931 . S
H1032 C1012 0.932 . S
H1033 C1013 0.930 . S
H1034 C1014 0.929 . S
H1035 C1016 0.930 . S
H1036 C1018 0.932 . S
H1037 C1019 0.929 . S
H1038 C1020 0.928 . S
H1039 C1022 0.932 . S
C1040 C1041 1.264 . S
C1040 C1045 1.479 . S
C1040 C1050 1.465 . S
C1041 C1040 1.264 . S
C1041 C1043 1.339 . S
C1041 H1068 0.931 . S
C1042 C1043 1.395 . S
C1042 C1044 1.320 . S
C1043 C1041 1.339 . S
C1043 C1042 1.395 . S
C1043 H1069 0.929 . S
C1044 C1042 1.320 . S
C1044 C1045 1.405 . S
C1044 H1070 0.930 . S
C1045 C1040 1.479 . S
C1045 C1044 1.405 . S
C1045 H1071 0.931 . S
U1046 O1047 2.454 . S
U1046 O1048 2.458 . S
U1046 C1049 2.984 . S
U1046 C1050 2.847 . S
U1046 C1063 2.882 . S
U1046 O1064 2.441 . S
U1046 O1065 2.420 . S
U1046 O1066 2.455 . S
U1046 O1067 2.449 . S
O1047 U1046 2.454 . S
O1047 C1049 1.353 . S
O1048 U1046 2.458 . S
O1048 C1049 1.286 . S
C1049 U1046 2.984 . S
C1049 O1047 1.353 . S
C1049 O1048 1.286 . S
C1049 C1051 1.363 . S
C1050 C1040 1.465 . S
C1050 U1046 2.847 . S
C1050 O1064 1.249 . S
C1050 O1065 1.202 . S
C1051 C1049 1.363 . S
C1051 C1053 1.408 . S
C1051 C1056 1.342 . S
C1052 C1053 1.310 . S
C1052 C1055 1.461 . S
C1052 H1072 0.932 . S
C1053 C1051 1.408 . S
C1053 C1052 1.310 . S
C1053 H1073 0.930 . S
C1054 C1055 1.474 . S
C1054 C1056 1.285 . S
C1054 H1074 0.929 . S
C1055 C1052 1.461 . S
C1055 C1054 1.474 . S
C1056 C1051 1.342 . S
C1056 C1054 1.285 . S
C1056 H1075 0.930 . S
C1057 C1060 1.424 . S
C1057 C1062 1.245 . S
C1057 C1063 1.428 . S
C1058 C1061 1.260 . S
C1058 C1062 1.477 . S
C1058 H1076 0.932 . S
C1059 C1060 1.384 . S
C1059 C1061 1.479 . S
C1059 H1077 0.929 . S
C1060 C1057 1.424 . S
C1060 C1059 1.384 . S
C1060 H1078 0.928 . S
C1061 C1058 1.260 . S
C1061 C1059 1.479 . S
C1062 C1057 1.245 . S
C1062 C1058 1.477 . S
C1062 H1079 0.932 . S
C1063 U1046 2.882 . S
C1063 C1057 1.428 . S
C1063 O1066 1.301 . S
C1063 O1067 1.282 . S
O1064 U1046 2.441 . S
O1064 C1050 1.249 . S
O1065 U1046 2.420 . S
O1065 C1050 1.202 . S
O1066 U1046 2.455 . S
O1066 C1063 1.301 . S
O1067 U1046 2.449 . S
O1067 C1063 1.282 . S
H1068 C1041 0.931 . S
H1069 C1043 0.929 . S
H1070 C1044 0.930 . S
H1071 C1045 0.931 . S
H1072 C1052 0.932 . S
H1073 C1053 0.930 . S
H1074 C1054 0.929 . S
H1075 C1056 0.930 . S
H1076 C1058 0.932 . S
H1077 C1059 0.929 . S
H1078 C1060 0.928 . S
H1079 C1062 0.932 . S
C1080 C1081 1.264 . S
C1080 C1085 1.479 . S
C1080 C1090 1.465 . S
C1081 C1080 1.264 . S
C1081 C1083 1.339 . S
C1081 H1108 0.931 . S
C1082 C1083 1.395 . S
C1082 C1084 1.320 . S
C1083 C1081 1.339 . S
C1083 C1082 1.395 . S
C1083 H1109 0.929 . S
C1084 C1082 1.320 . S
C1084 C1085 1.405 . S
C1084 H1110 0.930 . S
C1085 C1080 1.479 . S
C1085 C1084 1.405 . S
C1085 H1111 0.931 . S
U1086 O1087 2.454 . S
U1086 O1088 2.458 . S
U1086 C1089 2.984 . S
U1086 C1090 2.847 . S
U1086 C1103 2.882 . S
U1086 O1104 2.441 . S
U1086 O1105 2.420 . S
U1086 O1106 2.455 . S
U1086 O1107 2.449 . S
O1087 U1086 2.454 . S
O1087 C1089 1.353 . S
O1088 U1086 2.458 . S
O1088 C1089 1.286 . S
C1089 U1086 2.984 . S
C1089 O1087 1.353 . S
C1089 O1088 1.286 . S
C1089 C1091 1.363 . S
C1090 C1080 1.465 . S
C1090 U1086 2.847 . S
C1090 O1104 1.249 . S
C1090 O1105 1.202 . S
C1091 C1089 1.363 . S
C1091 C1093 1.408 . S
C1091 C1096 1.342 . S
C1092 C1093 1.310 . S
C1092 C1095 1.461 . S
C1092 H1112 0.932 . S
C1093 C1091 1.408 . S
C1093 C1092 1.310 . S
C1093 H1113 0.930 . S
C1094 C1095 1.474 . S
C1094 C1096 1.285 . S
C1094 H1114 0.929 . S
C1095 C1092 1.461 . S
C1095 C1094 1.474 . S
C1096 C1091 1.342 . S
C1096 C1094 1.285 . S
C1096 H1115 0.930 . S
C1097 C1100 1.424 . S
C1097 C1102 1.245 . S
C1097 C1103 1.428 . S
C1098 C1101 1.260 . S
C1098 C1102 1.477 . S
C1098 H1116 0.932 . S
C1099 C1100 1.384 . S
C1099 C1101 1.479 . S
C1099 H1117 0.929 . S
C1100 C1097 1.424 . S
C1100 C1099 1.384 . S
C1100 H1118 0.928 . S
C1101 C1098 1.260 . S
C1101 C1099 1.479 . S
C1102 C1097 1.245 . S
C1102 C1098 1.477 . S
C1102 H1119 0.932 . S
C1103 U1086 2.882 . S
C1103 C1097 1.428 . S
C1103 O1106 1.301 . S
C1103 O1107 1.282 . S
O1104 U1086 2.441 . S
O1104 C1090 1.249 . S
O1105 U1086 2.420 . S
O1105 C1090 1.202 . S
O1106 U1086 2.455 . S
O1106 C1103 1.301 . S
O1107 U1086 2.449 . S
O1107 C1103 1.282 . S
H1108 C1081 0.931 . S
H1109 C1083 0.929 . S
H1110 C1084 0.930 . S
H1111 C1085 0.931 . S
H1112 C1092 0.932 . S
H1113 C1093 0.930 . S
H1114 C1094 0.929 . S
H1115 C1096 0.930 . S
H1116 C1098 0.932 . S
H1117 C1099 0.929 . S
H1118 C1100 0.928 . S
H1119 C1102 0.932 . S
C1120 C1121 1.264 . S
C1120 C1125 1.479 . S
C1120 C1130 1.465 . S
C1121 C1120 1.264 . S
C1121 C1123 1.339 . S
C1121 H1148 0.931 . S
C1122 C1123 1.395 . S
C1122 C1124 1.320 . S
C1123 C1121 1.339 . S
C1123 C1122 1.395 . S
C1123 H1149 0.929 . S
C1124 C1122 1.320 . S
C1124 C1125 1.405 . S
C1124 H1150 0.930 . S
C1125 C1120 1.479 . S
C1125 C1124 1.405 . S
C1125 H1151 0.931 . S
U1126 O1127 2.454 . S
U1126 O1128 2.458 . S
U1126 C1129 2.984 . S
U1126 C1130 2.847 . S
U1126 C1143 2.882 . S
U1126 O1144 2.441 . S
U1126 O1145 2.420 . S
U1126 O1146 2.455 . S
U1126 O1147 2.449 . S
O1127 U1126 2.454 . S
O1127 C1129 1.353 . S
O1128 U1126 2.458 . S
O1128 C1129 1.286 . S
C1129 U1126 2.984 . S
C1129 O1127 1.353 . S
C1129 O1128 1.286 . S
C1129 C1131 1.363 . S
C1130 C1120 1.465 . S
C1130 U1126 2.847 . S
C1130 O1144 1.249 . S
C1130 O1145 1.202 . S
C1131 C1129 1.363 . S
C1131 C1133 1.408 . S
C1131 C1136 1.342 . S
C1132 C1133 1.310 . S
C1132 C1135 1.461 . S
C1132 H1152 0.932 . S
C1133 C1131 1.408 . S
C1133 C1132 1.310 . S
C1133 H1153 0.930 . S
C1134 C1135 1.474 . S
C1134 C1136 1.285 . S
C1134 H1154 0.929 . S
C1135 C1132 1.461 . S
C1135 C1134 1.474 . S
C1136 C1131 1.342 . S
C1136 C1134 1.285 . S
C1136 H1155 0.930 . S
C1137 C1140 1.424 . S
C1137 C1142 1.245 . S
C1137 C1143 1.428 . S
C1138 C1141 1.260 . S
C1138 C1142 1.477 . S
C1138 H1156 0.932 . S
C1139 C1140 1.384 . S
C1139 C1141 1.479 . S
C1139 H1157 0.929 . S
C1140 C1137 1.424 . S
C1140 C1139 1.384 . S
C1140 H1158 0.928 . S
C1141 C1138 1.260 . S
C1141 C1139 1.479 . S
C1142 C1137 1.245 . S
C1142 C1138 1.477 . S
C1142 H1159 0.932 . S
C1143 U1126 2.882 . S
C1143 C1137 1.428 . S
C1143 O1146 1.301 . S
C1143 O1147 1.282 . S
O1144 U1126 2.441 . S
O1144 C1130 1.249 . S
O1145 U1126 2.420 . S
O1145 C1130 1.202 . S
O1146 U1126 2.455 . S
O1146 C1143 1.301 . S
O1147 U1126 2.449 . S
O1147 C1143 1.282 . S
H1148 C1121 0.931 . S
H1149 C1123 0.929 . S
H1150 C1124 0.930 . S
H1151 C1125 0.931 . S
H1152 C1132 0.932 . S
H1153 C1133 0.930 . S
H1154 C1134 0.929 . S
H1155 C1136 0.930 . S
H1156 C1138 0.932 . S
H1157 C1139 0.929 . S
H1158 C1140 0.928 . S
H1159 C1142 0.932 . S
C1160 C1161 1.264 . S
C1160 C1165 1.479 . S
C1160 C1170 1.465 . S
C1161 C1160 1.264 . S
C1161 C1163 1.339 . S
C1161 H1188 0.931 . S
C1162 C1163 1.395 . S
C1162 C1164 1.320 . S
C1163 C1161 1.339 . S
C1163 C1162 1.395 . S
C1163 H1189 0.929 . S
C1164 C1162 1.320 . S
C1164 C1165 1.405 . S
C1164 H1190 0.930 . S
C1165 C1160 1.479 . S
C1165 C1164 1.405 . S
C1165 H1191 0.931 . S
U1166 O1167 2.454 . S
U1166 O1168 2.458 . S
U1166 C1169 2.984 . S
U1166 C1170 2.847 . S
U1166 C1183 2.882 . S
U1166 O1184 2.441 . S
U1166 O1185 2.420 . S
U1166 O1186 2.455 . S
U1166 O1187 2.449 . S
O1167 U1166 2.454 . S
O1167 C1169 1.353 . S
O1168 U1166 2.458 . S
O1168 C1169 1.286 . S
C1169 U1166 2.984 . S
C1169 O1167 1.353 . S
C1169 O1168 1.286 . S
C1169 C1171 1.363 . S
C1170 C1160 1.465 . S
C1170 U1166 2.847 . S
C1170 O1184 1.249 . S
C1170 O1185 1.202 . S
C1171 C1169 1.363 . S
C1171 C1173 1.408 . S
C1171 C1176 1.342 . S
C1172 C1173 1.310 . S
C1172 C1175 1.461 . S
C1172 H1192 0.932 . S
C1173 C1171 1.408 . S
C1173 C1172 1.310 . S
C1173 H1193 0.930 . S
C1174 C1175 1.474 . S
C1174 C1176 1.285 . S
C1174 H1194 0.929 . S
C1175 C1172 1.461 . S
C1175 C1174 1.474 . S
C1176 C1171 1.342 . S
C1176 C1174 1.285 . S
C1176 H1195 0.930 . S
C1177 C1180 1.424 . S
C1177 C1182 1.245 . S
C1177 C1183 1.428 . S
C1178 C1181 1.260 . S
C1178 C1182 1.477 . S
C1178 H1196 0.932 . S
C1179 C1180 1.384 . S
C1179 C1181 1.479 . S
C1179 H1197 0.929 . S
C1180 C1177 1.424 . S
C1180 C1179 1.384 . S
C1180 H1198 0.928 . S
C1181 C1178 1.260 . S
C1181 C1179 1.479 . S
C1182 C1177 1.245 . S
C1182 C1178 1.477 . S
C1182 H1199 0.932 . S
C1183 U1166 2.882 . S
C1183 C1177 1.428 . S
C1183 O1186 1.301 . S
C1183 O1187 1.282 . S
O1184 U1166 2.441 . S
O1184 C1170 1.249 . S
O1185 U1166 2.420 . S
O1185 C1170 1.202 . S
O1186 U1166 2.455 . S
O1186 C1183 1.301 . S
O1187 U1166 2.449 . S
O1187 C1183 1.282 . S
H1188 C1161 0.931 . S
H1189 C1163 0.929 . S
H1190 C1164 0.930 . S
H1191 C1165 0.931 . S
H1192 C1172 0.932 . S
H1193 C1173 0.930 . S
H1194 C1174 0.929 . S
H1195 C1176 0.930 . S
H1196 C1178 0.932 . S
H1197 C1179 0.929 . S
H1198 C1180 0.928 . S
H1199 C1182 0.932 . S
C1200 C1201 1.264 . S
C1200 C1205 1.479 . S
C1200 C1210 1.465 . S
C1201 C1200 1.264 . S
C1201 C1203 1.339 . S
C1201 H1228 0.931 . S
C1202 C1203 1.395 . S
C1202 C1204 1.320 . S
C1203 C1201 1.339 . S
C1203 C1202 1.395 . S
C1203 H1229 0.929 . S
C1204 C1202 1.320 . S
C1204 C1205 1.405 . S
C1204 H1230 0.930 . S
C1205 C1200 1.479 . S
C1205 C1204 1.405 . S
C1205 H1231 0.931 . S
U1206 O1207 2.454 . S
U1206 O1208 2.458 . S
U1206 C1209 2.984 . S
U1206 C1210 2.847 . S
U1206 C1223 2.882 . S
U1206 O1224 2.441 . S
U1206 O1225 2.420 . S
U1206 O1226 2.455 . S
U1206 O1227 2.449 . S
O1207 U1206 2.454 . S
O1207 C1209 1.353 . S
O1208 U1206 2.458 . S
O1208 C1209 1.286 . S
C1209 U1206 2.984 . S
C1209 O1207 1.353 . S
C1209 O1208 1.286 . S
C1209 C1211 1.363 . S
C1210 C1200 1.465 . S
C1210 U1206 2.847 . S
C1210 O1224 1.249 . S
C1210 O1225 1.202 . S
C1211 C1209 1.363 . S
C1211 C1213 1.408 . S
C1211 C1216 1.342 . S
C1212 C1213 1.310 . S
C1212 C1215 1.461 . S
C1212 H1232 0.932 . S
C1213 C1211 1.408 . S
C1213 C1212 1.310 . S
C1213 H1233 0.930 . S
C1214 C1215 1.474 . S
C1214 C1216 1.285 . S
C1214 H1234 0.929 . S
C1215 C1212 1.461 . S
C1215 C1214 1.474 . S
C1216 C1211 1.342 . S
C1216 C1214 1.285 . S
C1216 H1235 0.930 . S
C1217 C1220 1.424 . S
C1217 C1222 1.245 . S
C1217 C1223 1.428 . S
C1218 C1221 1.260 . S
C1218 C1222 1.477 . S
C1218 H1236 0.932 . S
C1219 C1220 1.384 . S
C1219 C1221 1.479 . S
C1219 H1237 0.929 . S
C1220 C1217 1.424 . S
C1220 C1219 1.384 . S
C1220 H1238 0.928 . S
C1221 C1218 1.260 . S
C1221 C1219 1.479 . S
C1222 C1217 1.245 . S
C1222 C1218 1.477 . S
C1222 H1239 0.932 . S
C1223 U1206 2.882 . S
C1223 C1217 1.428 . S
C1223 O1226 1.301 . S
C1223 O1227 1.282 . S
O1224 U1206 2.441 . S
O1224 C1210 1.249 . S
O1225 U1206 2.420 . S
O1225 C1210 1.202 . S
O1226 U1206 2.455 . S
O1226 C1223 1.301 . S
O1227 U1206 2.449 . S
O1227 C1223 1.282 . S
H1228 C1201 0.931 . S
H1229 C1203 0.929 . S
H1230 C1204 0.930 . S
H1231 C1205 0.931 . S
H1232 C1212 0.932 . S
H1233 C1213 0.930 . S
H1234 C1214 0.929 . S
H1235 C1216 0.930 . S
H1236 C1218 0.932 . S
H1237 C1219 0.929 . S
H1238 C1220 0.928 . S
H1239 C1222 0.932 . S
C1240 C1241 1.264 . S
C1240 C1245 1.479 . S
C1240 C1250 1.465 . S
C1241 C1240 1.264 . S
C1241 C1243 1.339 . S
C1241 H1268 0.931 . S
C1242 C1243 1.395 . S
C1242 C1244 1.320 . S
C1243 C1241 1.339 . S
C1243 C1242 1.395 . S
C1243 H1269 0.929 . S
C1244 C1242 1.320 . S
C1244 C1245 1.405 . S
C1244 H1270 0.930 . S
C1245 C1240 1.479 . S
C1245 C1244 1.405 . S
C1245 H1271 0.931 . S
U1246 O1247 2.454 . S
U1246 O1248 2.458 . S
U1246 C1249 2.984 . S
U1246 C1250 2.847 . S
U1246 C1263 2.882 . S
U1246 O1264 2.441 . S
U1246 O1265 2.420 . S
U1246 O1266 2.455 . S
U1246 O1267 2.449 . S
O1247 U1246 2.454 . S
O1247 C1249 1.353 . S
O1248 U1246 2.458 . S
O1248 C1249 1.286 . S
C1249 U1246 2.984 . S
C1249 O1247 1.353 . S
C1249 O1248 1.286 . S
C1249 C1251 1.363 . S
C1250 C1240 1.465 . S
C1250 U1246 2.847 . S
C1250 O1264 1.249 . S
C1250 O1265 1.202 . S
C1251 C1249 1.363 . S
C1251 C1253 1.408 . S
C1251 C1256 1.342 . S
C1252 C1253 1.310 . S
C1252 C1255 1.461 . S
C1252 H1272 0.932 . S
C1253 C1251 1.408 . S
C1253 C1252 1.310 . S
C1253 H1273 0.930 . S
C1254 C1255 1.474 . S
C1254 C1256 1.285 . S
C1254 H1274 0.929 . S
C1255 C1252 1.461 . S
C1255 C1254 1.474 . S
C1256 C1251 1.342 . S
C1256 C1254 1.285 . S
C1256 H1275 0.930 . S
C1257 C1260 1.424 . S
C1257 C1262 1.245 . S
C1257 C1263 1.428 . S
C1258 C1261 1.260 . S
C1258 C1262 1.477 . S
C1258 H1276 0.932 . S
C1259 C1260 1.384 . S
C1259 C1261 1.479 . S
C1259 H1277 0.929 . S
C1260 C1257 1.424 . S
C1260 C1259 1.384 . S
C1260 H1278 0.928 . S
C1261 C1258 1.260 . S
C1261 C1259 1.479 . S
C1262 C1257 1.245 . S
C1262 C1258 1.477 . S
C1262 H1279 0.932 . S
C1263 U1246 2.882 . S
C1263 C1257 1.428 . S
C1263 O1266 1.301 . S
C1263 O1267 1.282 . S
O1264 U1246 2.441 . S
O1264 C1250 1.249 . S
O1265 U1246 2.420 . S
O1265 C1250 1.202 . S
O1266 U1246 2.455 . S
O1266 C1263 1.301 . S
O1267 U1246 2.449 . S
O1267 C1263 1.282 . S
H1268 C1241 0.931 . S
H1269 C1243 0.929 . S
H1270 C1244 0.930 . S
H1271 C1245 0.931 . S
H1272 C1252 0.932 . S
H1273 C1253 0.930 . S
H1274 C1254 0.929 . S
H1275 C1256 0.930 . S
H1276 C1258 0.932 . S
H1277 C1259 0.929 . S
H1278 C1260 0.928 . S
H1279 C1262 0.932 . S
C1280 C1281 1.264 . S
C1280 C1285 1.479 . S
C1280 C1290 1.465 . S
C1281 C1280 1.264 . S
C1281 C1283 1.339 . S
C1281 H1308 0.931 . S
C1282 C1283 1.395 . S
C1282 C1284 1.320 . S
C1283 C1281 1.339 . S
C1283 C1282 1.395 . S
C1283 H1309 0.929 . S
C1284 C1282 1.320 . S
C1284 C1285 1.405 . S
C1284 H1310 0.930 . S
C1285 C1280 1.479 . S
C1285 C1284 1.405 . S
C1285 H1311 0.931 . S
U1286 O1287 2.454 . S
U1286 O1288 2.458 . S
U1286 C1289 2.984 . S
U1286 C1290 2.847 . S
U1286 C1303 2.882 . S
U1286 O1304 2.441 . S
U1286 O1305 2.420 . S
U1286 O1306 2.455 . S
U1286 O1307 2.449 . S
O1287 U1286 2.454 . S
O1287 C1289 1.353 . S
O1288 U1286 2.458 . S
O1288 C1289 1.286 . S
C1289 U1286 2.984 . S
C1289 O1287 1.353 . S
C1289 O1288 1.286 . S
C1289 C1291 1.363 . S
C1290 C1280 1.465 . S
C1290 U1286 2.847 . S
C1290 O1304 1.249 . S
C1290 O1305 1.202 . S
C1291 C1289 1.363 . S
C1291 C1293 1.408 . S
C1291 C1296 1.342 . S
C1292 C1293 1.310 . S
C1292 C1295 1.461 . S
C1292 H1312 0.932 . S
C1293 C1291 1.408 . S
C1293 C1292 1.310 . S
C1293 H1313 0.930 . S
C1294 C1295 1.474 . S
C1294 C1296 1.285 . S
C1294 H1314 0.929 . S
C1295 C1292 1.461 . S
C1295 C1294 1.474 . S
C1296 C1291 1.342 . S
C1296 C1294 1.285 . S
C1296 H1315 0.930 . S
C1297 C1300 1.424 . S
C1297 C1302 1.245 . S
C1297 C1303 1.428 . S
C1298 C1301 1.260 . S
C1298 C1302 1.477 . S
C1298 H1316 0.932 . S
C1299 C1300 1.384 . S
C1299 C1301 1.479 . S
C1299 H1317 0.929 . S
C1300 C1297 1.424 . S
C1300 C1299 1.384 . S
C1300 H1318 0.928 . S
C1301 C1298 1.260 . S
C1301 C1299 1.479 . S
C1302 C1297 1.245 . S
C1302 C1298 1.477 . S
C1302 H1319 0.932 . S
C1303 U1286 2.882 . S
C1303 C1297 1.428 . S
C1303 O1306 1.301 . S
C1303 O1307 1.282 . S
O1304 U1286 2.441 . S
O1304 C1290 1.249 . S
O1305 U1286 2.420 . S
O1305 C1290 1.202 . S
O1306 U1286 2.455 . S
O1306 C1303 1.301 . S
O1307 U1286 2.449 . S
O1307 C1303 1.282 . S
H1308 C1281 0.931 . S
H1309 C1283 0.929 . S
H1310 C1284 0.930 . S
H1311 C1285 0.931 . S
H1312 C1292 0.932 . S
H1313 C1293 0.930 . S
H1314 C1294 0.929 . S
H1315 C1296 0.930 . S
H1316 C1298 0.932 . S
H1317 C1299 0.929 . S
H1318 C1300 0.928 . S
H1319 C1302 0.932 . S
C1320 C1321 1.264 . S
C1320 C1325 1.479 . S
C1320 C1330 1.465 . S
C1321 C1320 1.264 . S
C1321 C1323 1.339 . S
C1321 H1348 0.931 . S
C1322 C1323 1.395 . S
C1322 C1324 1.320 . S
C1323 C1321 1.339 . S
C1323 C1322 1.395 . S
C1323 H1349 0.929 . S
C1324 C1322 1.320 . S
C1324 C1325 1.405 . S
C1324 H1350 0.930 . S
C1325 C1320 1.479 . S
C1325 C1324 1.405 . S
C1325 H1351 0.931 . S
U1326 O1327 2.454 . S
U1326 O1328 2.458 . S
U1326 C1329 2.984 . S
U1326 C1330 2.847 . S
U1326 C1343 2.882 . S
U1326 O1344 2.441 . S
U1326 O1345 2.420 . S
U1326 O1346 2.455 . S
U1326 O1347 2.449 . S
O1327 U1326 2.454 . S
O1327 C1329 1.353 . S
O1328 U1326 2.458 . S
O1328 C1329 1.286 . S
C1329 U1326 2.984 . S
C1329 O1327 1.353 . S
C1329 O1328 1.286 . S
C1329 C1331 1.363 . S
C1330 C1320 1.465 . S
C1330 U1326 2.847 . S
C1330 O1344 1.249 . S
C1330 O1345 1.202 . S
C1331 C1329 1.363 . S
C1331 C1333 1.408 . S
C1331 C1336 1.342 . S
C1332 C1333 1.310 . S
C1332 C1335 1.461 . S
C1332 H1352 0.932 . S
C1333 C1331 1.408 . S
C1333 C1332 1.310 . S
C1333 H1353 0.930 . S
C1334 C1335 1.474 . S
C1334 C1336 1.285 . S
C1334 H1354 0.929 . S
C1335 C1332 1.461 . S
C1335 C1334 1.474 . S
C1336 C1331 1.342 . S
C1336 C1334 1.285 . S
C1336 H1355 0.930 . S
C1337 C1340 1.424 . S
C1337 C1342 1.245 . S
C1337 C1343 1.428 . S
C1338 C1341 1.260 . S
C1338 C1342 1.477 . S
C1338 H1356 0.932 . S
C1339 C1340 1.384 . S
C1339 C1341 1.479 . S
C1339 H1357 0.929 . S
C1340 C1337 1.424 . S
C1340 C1339 1.384 . S
C1340 H1358 0.928 . S
C1341 C1338 1.260 . S
C1341 C1339 1.479 . S
C1342 C1337 1.245 . S
C1342 C1338 1.477 . S
C1342 H1359 0.932 . S
C1343 U1326 2.882 . S
C1343 C1337 1.428 . S
C1343 O1346 1.301 . S
C1343 O1347 1.282 . S
O1344 U1326 2.441 . S
O1344 C1330 1.249 . S
O1345 U1326 2.420 . S
O1345 C1330 1.202 . S
O1346 U1326 2.455 . S
O1346 C1343 1.301 . S
O1347 U1326 2.449 . S
O1347 C1343 1.282 . S
H1348 C1321 0.931 . S
H1349 C1323 0.929 . S
H1350 C1324 0.930 . S
H1351 C1325 0.931 . S
H1352 C1332 0.932 . S
H1353 C1333 0.930 . S
H1354 C1334 0.929 . S
H1355 C1336 0.930 . S
H1356 C1338 0.932 . S
H1357 C1339 0.929 . S
H1358 C1340 0.928 . S
H1359 C1342 0.932 . S
C1360 C1361 1.264 . S
C1360 C1365 1.479 . S
C1360 C1370 1.465 . S
C1361 C1360 1.264 . S
C1361 C1363 1.339 . S
C1361 H1388 0.931 . S
C1362 C1363 1.395 . S
C1362 C1364 1.320 . S
C1363 C1361 1.339 . S
C1363 C1362 1.395 . S
C1363 H1389 0.929 . S
C1364 C1362 1.320 . S
C1364 C1365 1.405 . S
C1364 H1390 0.930 . S
C1365 C1360 1.479 . S
C1365 C1364 1.405 . S
C1365 H1391 0.931 . S
U1366 O1367 2.454 . S
U1366 O1368 2.458 . S
U1366 C1369 2.984 . S
U1366 C1370 2.847 . S
U1366 C1383 2.882 . S
U1366 O1384 2.441 . S
U1366 O1385 2.420 . S
U1366 O1386 2.455 . S
U1366 O1387 2.449 . S
O1367 U1366 2.454 . S
O1367 C1369 1.353 . S
O1368 U1366 2.458 . S
O1368 C1369 1.286 . S
C1369 U1366 2.984 . S
C1369 O1367 1.353 . S
C1369 O1368 1.286 . S
C1369 C1371 1.363 . S
C1370 C1360 1.465 . S
C1370 U1366 2.847 . S
C1370 O1384 1.249 . S
C1370 O1385 1.202 . S
C1371 C1369 1.363 . S
C1371 C1373 1.408 . S
C1371 C1376 1.342 . S
C1372 C1373 1.310 . S
C1372 C1375 1.461 . S
C1372 H1392 0.932 . S
C1373 C1371 1.408 . S
C1373 C1372 1.310 . S
C1373 H1393 0.930 . S
C1374 C1375 1.474 . S
C1374 C1376 1.285 . S
C1374 H1394 0.929 . S
C1375 C1372 1.461 . S
C1375 C1374 1.474 . S
C1376 C1371 1.342 . S
C1376 C1374 1.285 . S
C1376 H1395 0.930 . S
C1377 C1380 1.424 . S
C1377 C1382 1.245 . S
C1377 C1383 1.428 . S
C1378 C1381 1.260 . S
C1378 C1382 1.477 . S
C1378 H1396 0.932 . S
C1379 C1380 1.384 . S
C1379 C1381 1.479 . S
C1379 H1397 0.929 . S
C1380 C1377 1.424 . S
C1380 C1379 1.384 . S
C1380 H1398 0.928 . S
C1381 C1378 1.260 . S
C1381 C1379 1.479 . S
C1382 C1377 1.245 . S
C1382 C1378 1.477 . S
C1382 H1399 0.932 . S
C1383 U1366 2.882 . S
C1383 C1377 1.428 . S
C1383 O1386 1.301 . S
C1383 O1387 1.282 . S
O1384 U1366 2.441 . S
O1384 C1370 1.249 . S
O1385 U1366 2.420 . S
O1385 C1370 1.202 . S
O1386 U1366 2.455 . S
O1386 C1383 1.301 . S
O1387 U1366 2.449 . S
O1387 C1383 1.282 . S
H1388 C1361 0.931 . S
H1389 C1363 0.929 . S
H1390 C1364 0.930 . S
H1391 C1365 0.931 . S
H1392 C1372 0.932 . S
H1393 C1373 0.930 . S
H1394 C1374 0.929 . S
H1395 C1376 0.930 . S
H1396 C1378 0.932 . S
H1397 C1379 0.929 . S
H1398 C1380 0.928 . S
H1399 C1382 0.932 . S
C1400 C1401 1.264 . S
C1400 C1405 1.479 . S
C1400 C1410 1.465 . S
C1401 C1400 1.264 . S
C1401 C1403 1.339 . S
C1401 H1428 0.931 . S
C1402 C1403 1.395 . S
C1402 C1404 1.320 . S
C1403 C1401 1.339 . S
C1403 C1402 1.395 . S
C1403 H1429 0.929 . S
C1404 C1402 1.320 . S
C1404 C1405 1.405 . S
C1404 H1430 0.930 . S
C1405 C1400 1.479 . S
C1405 C1404 1.405 . S
C1405 H1431 0.931 . S
U1406 O1407 2.454 . S
U1406 O1408 2.458 . S
U1406 C1409 2.984 . S
U1406 C1410 2.847 . S
U1406 C1423 2.882 . S
U1406 O1424 2.441 . S
U1406 O1425 2.420 . S
U1406 O1426 2.455 . S
U1406 O1427 2.449 . S
O1407 U1406 2.454 . S
O1407 C1409 1.353 . S
O1408 U1406 2.458 . S
O1408 C1409 1.286 . S
C1409 U1406 2.984 . S
C1409 O1407 1.353 . S
C1409 O1408 1.286 . S
C1409 C1411 1.363 . S
C1410 C1400 1.465 . S
C1410 U1406 2.847 . S
C1410 O1424 1.249 . S
C1410 O1425 1.202 . S
C1411 C1409 1.363 . S
C1411 C1413 1.408 . S
C1411 C1416 1.342 . S
C1412 C1413 1.310 . S
C1412 C1415 1.461 . S
C1412 H1432 0.932 . S
C1413 C1411 1.408 . S
C1413 C1412 1.310 . S
C1413 H1433 0.930 . S
C1414 C1415 1.474 . S
C1414 C1416 1.285 . S
C1414 H1434 0.929 . S
C1415 C1412 1.461 . S
C1415 C1414 1.474 . S
C1416 C1411 1.342 . S
C1416 C1414 1.285 . S
C1416 H1435 0.930 . S
C1417 C1420 1.424 . S
C1417 C1422 1.245 . S
C1417 C1423 1.428 . S
C1418 C1421 1.260 . S
C1418 C1422 1.477 . S
C1418 H1436 0.932 . S
C1419 C1420 1.384 . S
C1419 C1421 1.479 . S
C1419 H1437 0.929 . S
C1420 C1417 1.424 . S
C1420 C1419 1.384 . S
C1420 H1438 0.928 . S
C1421 C1418 1.260 . S
C1421 C1419 1.479 . S
C1422 C1417 1.245 . S
C1422 C1418 1.477 . S
C1422 H1439 0.932 . S
C1423 U1406 2.882 . S
C1423 C1417 1.428 . S
C1423 O1426 1.301 . S
C1423 O1427 1.282 . S
O1424 U1406 2.441 . S
O1424 C1410 1.249 . S
O1425 U1406 2.420 . S
O1425 C1410 1.202 . S
O1426 U1406 2.455 . S
O1426 C1423 1.301 . S
O1427 U1406 2.449 . S
O1427 C1423 1.282 . S
H1428 C1401 0.931 . S
H1429 C1403 0.929 . S
H1430 C1404 0.930 . S
H1431 C1405 0.931 . S
H1432 C1412 0.932 . S
H1433 C1413 0.930 . S
H1434 C1414 0.929 . S
H1435 C1416 0.930 . S
H1436 C1418 0.932 . S
H1437 C1419 0.929 . S
H1438 C1420 0.928 . S
H1439 C1422 0.932 . S
C1440 C1441 1.264 . S
C1440 C1445 1.479 . S
C1440 C1450 1.465 . S
C1441 C1440 1.264 . S
C1441 C1443 1.339 . S
C1441 H1468 0.931 . S
C1442 C1443 1.395 . S
C1442 C1444 1.320 . S
C1443 C1441 1.339 . S
C1443 C1442 1.395 . S
C1443 H1469 0.929 . S
C1444 C1442 1.320 . S
C1444 C1445 1.405 . S
C1444 H1470 0.930 . S
C1445 C1440 1.479 . S
C1445 C1444 1.405 . S
C1445 H1471 0.931 . S
U1446 O1447 2.454 . S
U1446 O1448 2.458 . S
U1446 C1449 2.984 . S
U1446 C1450 2.847 . S
U1446 C1463 2.882 . S
U1446 O1464 2.441 . S
U1446 O1465 2.420 . S
U1446 O1466 2.455 . S
U1446 O1467 2.449 . S
O1447 U1446 2.454 . S
O1447 C1449 1.353 . S
O1448 U1446 2.458 . S
O1448 C1449 1.286 . S
C1449 U1446 2.984 . S
C1449 O1447 1.353 . S
C1449 O1448 1.286 . S
C1449 C1451 1.363 . S
C1450 C1440 1.465 . S
C1450 U1446 2.847 . S
C1450 O1464 1.249 . S
C1450 O1465 1.202 . S
C1451 C1449 1.363 . S
C1451 C1453 1.408 . S
C1451 C1456 1.342 . S
C1452 C1453 1.310 . S
C1452 C1455 1.461 . S
C1452 H1472 0.932 . S
C1453 C1451 1.408 . S
C1453 C1452 1.310 . S
C1453 H1473 0.930 . S
C1454 C1455 1.474 . S
C1454 C1456 1.285 . S
C1454 H1474 0.929 . S
C1455 C1452 1.461 . S
C1455 C1454 1.474 . S
C1456 C1451 1.342 . S
C1456 C1454 1.285 . S
C1456 H1475 0.930 . S
C1457 C1460 1.424 . S
C1457 C1462 1.245 . S
C1457 C1463 1.428 . S
C1458 C1461 1.260 . S
C1458 C1462 1.477 . S
C1458 H1476 0.932 . S
C1459 C1460 1.384 . S
C1459 C1461 1.479 . S
C1459 H1477 0.929 . S
C1460 C1457 1.424 . S
C1460 C1459 1.384 . S
C1460 H1478 0.928 . S
C1461 C1458 1.260 . S
C1461 C1459 1.479 . S
C1462 C1457 1.245 . S
C1462 C1458 1.477 . S
C1462 H1479 0.932 . S
C1463 U1446 2.882 . S
C1463 C1457 1.428 . S
C1463 O1466 1.301 . S
C1463 O1467 1.282 . S
O1464 U1446 2.441 . S
O1464 C1450 1.249 . S
O1465 U1446 2.420 . S
O1465 C1450 1.202 . S
O1466 U1446 2.455 . S
O1466 C1463 1.301 . S
O1467 U1446 2.449 . S
O1467 C1463 1.282 . S
H1468 C1441 0.931 . S
H1469 C1443 0.929 . S
H1470 C1444 0.930 . S
H1471 C1445 0.931 . S
H1472 C1452 0.932 . S
H1473 C1453 0.930 . S
H1474 C1454 0.929 . S
H1475 C1456 0.930 . S
H1476 C1458 0.932 . S
H1477 C1459 0.929 . S
H1478 C1460 0.928 . S
H1479 C1462 0.932 . S
C1480 C1481 1.264 . S
C1480 C1485 1.479 . S
C1480 C1490 1.465 . S
C1481 C1480 1.264 . S
C1481 C1483 1.339 . S
C1481 H1508 0.931 . S
C1482 C1483 1.395 . S
C1482 C1484 1.320 . S
C1483 C1481 1.339 . S
C1483 C1482 1.395 . S
C1483 H1509 0.929 . S
C1484 C1482 1.320 . S
C1484 C1485 1.405 . S
C1484 H1510 0.930 . S
C1485 C1480 1.479 . S
C1485 C1484 1.405 . S
C1485 H1511 0.931 . S
U1486 O1487 2.454 . S
U1486 O1488 2.458 . S
U1486 C1489 2.984 . S
U1486 C1490 2.847 . S
U1486 C1503 2.882 . S
U1486 O1504 2.441 . S
U1486 O1505 2.420 . S
U1486 O1506 2.455 . S
U1486 O1507 2.449 . S
O1487 U1486 2.454 . S
O1487 C1489 1.353 . S
O1488 U1486 2.458 . S
O1488 C1489 1.286 . S
C1489 U1486 2.984 . S
C1489 O1487 1.353 . S
C1489 O1488 1.286 . S
C1489 C1491 1.363 . S
C1490 C1480 1.465 . S
C1490 U1486 2.847 . S
C1490 O1504 1.249 . S
C1490 O1505 1.202 . S
C1491 C1489 1.363 . S
C1491 C1493 1.408 . S
C1491 C1496 1.342 . S
C1492 C1493 1.310 . S
C1492 C1495 1.461 . S
C1492 H1512 0.932 . S
C1493 C1491 1.408 . S
C1493 C1492 1.310 . S
C1493 H1513 0.930 . S
C1494 C1495 1.474 . S
C1494 C1496 1.285 . S
C1494 H1514 0.929 . S
C1495 C1492 1.461 . S
C1495 C1494 1.474 . S
C1496 C1491 1.342 . S
C1496 C1494 1.285 . S
C1496 H1515 0.930 . S
C1497 C1500 1.424 . S
C1497 C1502 1.245 . S
C1497 C1503 1.428 . S
C1498 C1501 1.260 . S
C1498 C1502 1.477 . S
C1498 H1516 0.932 . S
C1499 C1500 1.384 . S
C1499 C1501 1.479 . S
C1499 H1517 0.929 . S
C1500 C1497 1.424 . S
C1500 C1499 1.384 . S
C1500 H1518 0.928 . S
C1501 C1498 1.260 . S
C1501 C1499 1.479 . S
C1502 C1497 1.245 . S
C1502 C1498 1.477 . S
C1502 H1519 0.932 . S
C1503 U1486 2.882 . S
C1503 C1497 1.428 . S
C1503 O1506 1.301 . S
C1503 O1507 1.282 . S
O1504 U1486 2.441 . S
O1504 C1490 1.249 . S
O1505 U1486 2.420 . S
O1505 C1490 1.202 . S
O1506 U1486 2.455 . S
O1506 C1503 1.301 . S
O1507 U1486 2.449 . S
O1507 C1503 1.282 . S
H1508 C1481 0.931 . S
H1509 C1483 0.929 . S
H1510 C1484 0.930 . S
H1511 C1485 0.931 . S
H1512 C1492 0.932 . S
H1513 C1493 0.930 . S
H1514 C1494 0.929 . S
H1515 C1496 0.930 . S
H1516 C1498 0.932 . S
H1517 C1499 0.929 . S
H1518 C1500 0.928 . S
H1519 C1502 0.932 . S
C1520 C1521 1.264 . S
C1520 C1525 1.479 . S
C1520 C1530 1.465 . S
C1521 C1520 1.264 . S
C1521 C1523 1.339 . S
C1521 H1548 0.931 . S
C1522 C1523 1.395 . S
C1522 C1524 1.320 . S
C1523 C1521 1.339 . S
C1523 C1522 1.395 . S
C1523 H1549 0.929 . S
C1524 C1522 1.320 . S
C1524 C1525 1.405 . S
C1524 H1550 0.930 . S
C1525 C1520 1.479 . S
C1525 C1524 1.405 . S
C1525 H1551 0.931 . S
U1526 O1527 2.454 . S
U1526 O1528 2.458 . S
U1526 C1529 2.984 . S
U1526 C1530 2.847 . S
U1526 C1543 2.882 . S
U1526 O1544 2.441 . S
U1526 O1545 2.420 . S
U1526 O1546 2.455 . S
U1526 O1547 2.449 . S
O1527 U1526 2.454 . S
O1527 C1529 1.353 . S
O1528 U1526 2.458 . S
O1528 C1529 1.286 . S
C1529 U1526 2.984 . S
C1529 O1527 1.353 . S
C1529 O1528 1.286 . S
C1529 C1531 1.363 . S
C1530 C1520 1.465 . S
C1530 U1526 2.847 . S
C1530 O1544 1.249 . S
C1530 O1545 1.202 . S
C1531 C1529 1.363 . S
C1531 C1533 1.408 . S
C1531 C1536 1.342 . S
C1532 C1533 1.310 . S
C1532 C1535 1.461 . S
C1532 H1552 0.932 . S
C1533 C1531 1.408 . S
C1533 C1532 1.310 . S
C1533 H1553 0.930 . S
C1534 C1535 1.474 . S
C1534 C1536 1.285 . S
C1534 H1554 0.929 . S
C1535 C1532 1.461 . S
C1535 C1534 1.474 . S
C1536 C1531 1.342 . S
C1536 C1534 1.285 . S
C1536 H1555 0.930 . S
C1537 C1540 1.424 . S
C1537 C1542 1.245 . S
C1537 C1543 1.428 . S
C1538 C1541 1.260 . S
C1538 C1542 1.477 . S
C1538 H1556 0.932 . S
C1539 C1540 1.384 . S
C1539 C1541 1.479 . S
C1539 H1557 0.929 . S
C1540 C1537 1.424 . S
C1540 C1539 1.384 . S
C1540 H1558 0.928 . S
C1541 C1538 1.260 . S
C1541 C1539 1.479 . S
C1542 C1537 1.245 . S
C1542 C1538 1.477 . S
C1542 H1559 0.932 . S
C1543 U1526 2.882 . S
C1543 C1537 1.428 . S
C1543 O1546 1.301 . S
C1543 O1547 1.282 . S
O1544 U1526 2.441 . S
O1544 C1530 1.249 . S
O1545 U1526 2.420 . S
O1545 C1530 1.202 . S
O1546 U1526 2.455 . S
O1546 C1543 1.301 . S
O1547 U1526 2.449 . S
O1547 C1543 1.282 . S
H1548 C1521 0.931 . S
H1549 C1523 0.929 . S
H1550 C1524 0.930 . S
H1551 C1525 0.931 . S
H1552 C1532 0.932 . S
H1553 C1533 0.930 . S
H1554 C1534 0.929 . S
H1555 C1536 0.930 . S
H1556 C1538 0.932 . S
H1557 C1539 0.929 . S
H1558 C1540 0.928 . S
H1559 C1542 0.932 . S
C1560 C1561 1.264 . S
C1560 C1565 1.479 . S
C1560 C1570 1.465 . S
C1561 C1560 1.264 . S
C1561 C1563 1.339 . S
C1561 H1588 0.931 . S
C1562 C1563 1.395 . S
C1562 C1564 1.320 . S
C1563 C1561 1.339 . S
C1563 C1562 1.395 . S
C1563 H1589 0.929 . S
C1564 C1562 1.320 . S
C1564 C1565 1.405 . S
C1564 H1590 0.930 . S
C1565 C1560 1.479 . S
C1565 C1564 1.405 . S
C1565 H1591 0.931 . S
U1566 O1567 2.454 . S
U1566 O1568 2.458 . S
U1566 C1569 2.984 . S
U1566 C1570 2.847 . S
U1566 C1583 2.882 . S
U1566 O1584 2.441 . S
U1566 O1585 2.420 . S
U1566 O1586 2.455 . S
U1566 O1587 2.449 . S
O1567 U1566 2.454 . S
O1567 C1569 1.353 . S
O1568 U1566 2.458 . S
O1568 C1569 1.286 . S
C1569 U1566 2.984 . S
C1569 O1567 1.353 . S
C1569 O1568 1.286 . S
C1569 C1571 1.363 . S
C1570 C1560 1.465 . S
C1570 U1566 2.847 . S
C1570 O1584 1.249 . S
C1570 O1585 1.202 . S
C1571 C1569 1.363 . S
C1571 C1573 1.408 . S
C1571 C1576 1.342 . S
C1572 C1573 1.310 . S
C1572 C1575 1.461 . S
C1572 H1592 0.932 . S
C1573 C1571 1.408 . S
C1573 C1572 1.310 . S
C1573 H1593 0.930 . S
C1574 C1575 1.474 . S
C1574 C1576 1.285 . S
C1574 H1594 0.929 . S
C1575 C1572 1.461 . S
C1575 C1574 1.474 . S
C1576 C1571 1.342 . S
C1576 C1574 1.285 . S
C1576 H1595 0.930 . S
C1577 C1580 1.424 . S
C1577 C1582 1.245 . S
C1577 C1583 1.428 . S
C1578 C1581 1.260 . S
C1578 C1582 1.477 . S
C1578 H1596 0.932 . S
C1579 C1580 1.384 . S
C1579 C1581 1.479 . S
C1579 H1597 0.929 . S
C1580 C1577 1.424 . S
C1580 C1579 1.384 . S
C1580 H1598 0.928 . S
C1581 C1578 1.260 . S
C1581 C1579 1.479 . S
C1582 C1577 1.245 . S
C1582 C1578 1.477 . S
C1582 H1599 0.932 . S
C1583 U1566 2.882 . S
C1583 C1577 1.428 . S
C1583 O1586 1.301 . S
C1583 O1587 1.282 . S
O1584 U1566 2.441 . S
O1584 C1570 1.249 . S
O1585 U1566 2.420 . S
O1585 C1570 1.202 . S
O1586 U1566 2.455 . S
O1586 C1583 1.301 . S
O1587 U1566 2.449 . S
O1587 C1583 1.282 . S
H1588 C1561 0.931 . S
H1589 C1563 0.929 . S
H1590 C1564 0.930 . S
H1591 C1565 0.931 . S
H1592 C1572 0.932 . S
H1593 C1573 0.930 . S
H1594 C1574 0.929 . S
H1595 C1576 0.930 . S
H1596 C1578 0.932 . S
H1597 C1579 0.929 . S
H1598 C1580 0.928 . S
H1599 C1582 0.932 . S
C1600 C1601 1.264 . S
C1600 C1605 1.479 . S
C1600 C1610 1.465 . S
C1601 C1600 1.264 . S
C1601 C1603 1.339 . S
C1601 H1628 0.931 . S
C1602 C1603 1.395 . S
C1602 C1604 1.320 . S
C1603 C1601 1.339 . S
C1603 C1602 1.395 . S
C1603 H1629 0.929 . S
C1604 C1602 1.320 . S
C1604 C1605 1.405 . S
C1604 H1630 0.930 . S
C1605 C1600 1.479 . S
C1605 C1604 1.405 . S
C1605 H1631 0.931 . S
U1606 O1607 2.454 . S
U1606 O1608 2.458 . S
U1606 C1609 2.984 . S
U1606 C1610 2.847 . S
U1606 C1623 2.882 . S
U1606 O1624 2.441 . S
U1606 O1625 2.420 . S
U1606 O1626 2.455 . S
U1606 O1627 2.449 . S
O1607 U1606 2.454 . S
O1607 C1609 1.353 . S
O1608 U1606 2.458 . S
O1608 C1609 1.286 . S
C1609 U1606 2.984 . S
C1609 O1607 1.353 . S
C1609 O1608 1.286 . S
C1609 C1611 1.363 . S
C1610 C1600 1.465 . S
C1610 U1606 2.847 . S
C1610 O1624 1.249 . S
C1610 O1625 1.202 . S
C1611 C1609 1.363 . S
C1611 C1613 1.408 . S
C1611 C1616 1.342 . S
C1612 C1613 1.310 . S
C1612 C1615 1.461 . S
C1612 H1632 0.932 . S
C1613 C1611 1.408 . S
C1613 C1612 1.310 . S
C1613 H1633 0.930 . S
C1614 C1615 1.474 . S
C1614 C1616 1.285 . S
C1614 H1634 0.929 . S
C1615 C1612 1.461 . S
C1615 C1614 1.474 . S
C1616 C1611 1.342 . S
C1616 C1614 1.285 . S
C1616 H1635 0.930 . S
C1617 C1620 1.424 . S
C1617 C1622 1.245 . S
C1617 C1623 1.428 . S
C1618 C1621 1.260 . S
C1618 C1622 1.477 . S
C1618 H1636 0.932 . S
C1619 C1620 1.384 . S
C1619 C1621 1.479 . S
C1619 H1637 0.929 . S
C1620 C1617 1.424 . S
C1620 C1619 1.384 . S
C1620 H1638 0.928 . S
C1621 C1618 1.260 . S
C1621 C1619 1.479 . S
C1622 C1617 1.245 . S
C1622 C1618 1.477 . S
C1622 H1639 0.932 . S
C1623 U1606 2.882 . S
C1623 C1617 1.428 . S
C1623 O1626 1.301 . S
C1623 O1627 1.282 . S
O1624 U1606 2.441 . S
O1624 C1610 1.249 . S
O1625 U1606 2.420 . S
O1625 C1610 1.202 . S
O1626 U1606 2.455 . S
O1626 C1623 1.301 . S
O1627 U1606 2.449 . S
O1627 C1623 1.282 . S
H1628 C1601 0.931 . S
H1629 C1603 0.929 . S
H1630 C1604 0.930 . S
H1631 C1605 0.931 . S
H1632 C1612 0.932 . S
H1633 C1613 0.930 . S
H1634 C1614 0.929 . S
H1635 C1616 0.930 . S
H1636 C1618 0.932 . S
H1637 C1619 0.929 . S
H1638 C1620 0.928 . S
H1639 C1622 0.932 . S
C1640 C1641 1.264 . S
C1640 C1645 1.479 . S
C1640 C1650 1.465 . S
C1641 C1640 1.264 . S
C1641 C1643 1.339 . S
C1641 H1668 0.931 . S
C1642 C1643 1.395 . S
C1642 C1644 1.320 . S
C1643 C1641 1.339 . S
C1643 C1642 1.395 . S
C1643 H1669 0.929 . S
C1644 C1642 1.320 . S
C1644 C1645 1.405 . S
C1644 H1670 0.930 . S
C1645 C1640 1.479 . S
C1645 C1644 1.405 . S
C1645 H1671 0.931 . S
U1646 O1647 2.454 . S
U1646 O1648 2.458 . S
U1646 C1649 2.984 . S
U1646 C1650 2.847 . S
U1646 C1663 2.882 . S
U1646 O1664 2.441 . S
U1646 O1665 2.420 . S
U1646 O1666 2.455 . S
U1646 O1667 2.449 . S
O1647 U1646 2.454 . S
O1647 C1649 1.353 . S
O1648 U1646 2.458 . S
O1648 C1649 1.286 . S
C1649 U1646 2.984 . S
C1649 O1647 1.353 . S
C1649 O1648 1.286 . S
C1649 C1651 1.363 . S
C1650 C1640 1.465 . S
C1650 U1646 2.847 . S
C1650 O1664 1.249 . S
C1650 O1665 1.202 . S
C1651 C1649 1.363 . S
C1651 C1653 1.408 . S
C1651 C1656 1.342 . S
C1652 C1653 1.310 . S
C1652 C1655 1.461 . S
C1652 H1672 0.932 . S
C1653 C1651 1.408 . S
C1653 C1652 1.310 . S
C1653 H1673 0.930 . S
C1654 C1655 1.474 . S
C1654 C1656 1.285 . S
C1654 H1674 0.929 . S
C1655 C1652 1.461 . S
C1655 C1654 1.474 . S
C1656 C1651 1.342 . S
C1656 C1654 1.285 . S
C1656 H1675 0.930 . S
C1657 C1660 1.424 . S
C1657 C1662 1.245 . S
C1657 C1663 1.428 . S
C1658 C1661 1.260 . S
C1658 C1662 1.477 . S
C1658 H1676 0.932 . S
C1659 C1660 1.384 . S
C1659 C1661 1.479 . S
C1659 H1677 0.929 . S
C1660 C1657 1.424 . S
C1660 C1659 1.384 . S
C1660 H1678 0.928 . S
C1661 C1658 1.260 . S
C1661 C1659 1.479 . S
C1662 C1657 1.245 . S
C1662 C1658 1.477 . S
C1662 H1679 0.932 . S
C1663 U1646 2.882 . S
C1663 C1657 1.428 . S
C1663 O1666 1.301 . S
C1663 O1667 1.282 . S
O1664 U1646 2.441 . S
O1664 C1650 1.249 . S
O1665 U1646 2.420 . S
O1665 C1650 1.202 . S
O1666 U1646 2.455 . S
O1666 C1663 1.301 . S
O1667 U1646 2.449 . S
O1667 C1663 1.282 . S
H1668 C1641 0.931 . S
H1669 C1643 0.929 . S
H1670 C1644 0.930 . S
H1671 C1645 0.931 . S
H1672 C1652 0.932 . S
H1673 C1653 0.930 . S
H1674 C1654 0.929 . S
H1675 C1656 0.930 . S
H1676 C1658 0.932 . S
H1677 C1659 0.929 . S
H1678 C1660 0.928 . S
H1679 C1662 0.932 . S
C1680 C1681 1.264 . S
C1680 C1685 1.479 . S
C1680 C1690 1.465 . S
C1681 C1680 1.264 . S
C1681 C1683 1.339 . S
C1681 H1708 0.931 . S
C1682 C1683 1.395 . S
C1682 C1684 1.320 . S
C1683 C1681 1.339 . S
C1683 C1682 1.395 . S
C1683 H1709 0.929 . S
C1684 C1682 1.320 . S
C1684 C1685 1.405 . S
C1684 H1710 0.930 . S
C1685 C1680 1.479 . S
C1685 C1684 1.405 . S
C1685 H1711 0.931 . S
U1686 O1687 2.454 . S
U1686 O1688 2.458 . S
U1686 C1689 2.984 . S
U1686 C1690 2.847 . S
U1686 C1703 2.882 . S
U1686 O1704 2.441 . S
U1686 O1705 2.420 . S
U1686 O1706 2.455 . S
U1686 O1707 2.449 . S
O1687 U1686 2.454 . S
O1687 C1689 1.353 . S
O1688 U1686 2.458 . S
O1688 C1689 1.286 . S
C1689 U1686 2.984 . S
C1689 O1687 1.353 . S
C1689 O1688 1.286 . S
C1689 C1691 1.363 . S
C1690 C1680 1.465 . S
C1690 U1686 2.847 . S
C1690 O1704 1.249 . S
C1690 O1705 1.202 . S
C1691 C1689 1.363 . S
C1691 C1693 1.408 . S
C1691 C1696 1.342 . S
C1692 C1693 1.310 . S
C1692 C1695 1.461 . S
C1692 H1712 0.932 . S
C1693 C1691 1.408 . S
C1693 C1692 1.310 . S
C1693 H1713 0.930 . S
C1694 C1695 1.474 . S
C1694 C1696 1.285 . S
C1694 H1714 0.929 . S
C1695 C1692 1.461 . S
C1695 C1694 1.474 . S
C1696 C1691 1.342 . S
C1696 C1694 1.285 . S
C1696 H1715 0.930 . S
C1697 C1700 1.424 . S
C1697 C1702 1.245 . S
C1697 C1703 1.428 . S
C1698 C1701 1.260 . S
C1698 C1702 1.477 . S
C1698 H1716 0.932 . S
C1699 C1700 1.384 . S
C1699 C1701 1.479 . S
C1699 H1717 0.929 . S
C1700 C1697 1.424 . S
C1700 C1699 1.384 . S
C1700 H1718 0.928 . S
C1701 C1698 1.260 . S
C1701 C1699 1.479 . S
C1702 C1697 1.245 . S
C1702 C1698 1.477 . S
C1702 H1719 0.932 . S
C1703 U1686 2.882 . S
C1703 C1697 1.428 . S
C1703 O1706 1.301 . S
C1703 O1707 1.282 . S
O1704 U1686 2.441 . S
O1704 C1690 1.249 . S
O1705 U1686 2.420 . S
O1705 C1690 1.202 . S
O1706 U1686 2.455 . S
O1706 C1703 1.301 . S
O1707 U1686 2.449 . S
O1707 C1703 1.282 . S
H1708 C1681 0.931 . S
H1709 C1683 0.929 . S
H1710 C1684 0.930 . S
H1711 C1685 0.931 . S
H1712 C1692 0.932 . S
H1713 C1693 0.930 . S
H1714 C1694 0.929 . S
H1715 C1696 0.930 . S
H1716 C1698 0.932 . S
H1717 C1699 0.929 . S
H1718 C1700 0.928 . S
H1719 C1702 0.932 . S
C1720 C1721 1.264 . S
C1720 C1725 1.479 . S
C1720 C1730 1.465 . S
C1721 C1720 1.264 . S
C1721 C1723 1.339 . S
C1721 H1748 0.931 . S
C1722 C1723 1.395 . S
C1722 C1724 1.320 . S
C1723 C1721 1.339 . S
C1723 C1722 1.395 . S
C1723 H1749 0.929 . S
C1724 C1722 1.320 . S
C1724 C1725 1.405 . S
C1724 H1750 0.930 . S
C1725 C1720 1.479 . S
C1725 C1724 1.405 . S
C1725 H1751 0.931 . S
U1726 O1727 2.454 . S
U1726 O1728 2.458 . S
U1726 C1729 2.984 . S
U1726 C1730 2.847 . S
U1726 C1743 2.882 . S
U1726 O1744 2.441 . S
U1726 O1745 2.420 . S
U1726 O1746 2.455 . S
U1726 O1747 2.449 . S
O1727 U1726 2.454 . S
O1727 C1729 1.353 . S
O1728 U1726 2.458 . S
O1728 C1729 1.286 . S
C1729 U1726 2.984 . S
C1729 O1727 1.353 . S
C1729 O1728 1.286 . S
C1729 C1731 1.363 . S
C1730 C1720 1.465 . S
C1730 U1726 2.847 . S
C1730 O1744 1.249 . S
C1730 O1745 1.202 . S
C1731 C1729 1.363 . S
C1731 C1733 1.408 . S
C1731 C1736 1.342 . S
C1732 C1733 1.310 . S
C1732 C1735 1.461 . S
C1732 H1752 0.932 . S
C1733 C1731 1.408 . S
C1733 C1732 1.310 . S
C1733 H1753 0.930 . S
C1734 C1735 1.474 . S
C1734 C1736 1.285 . S
C1734 H1754 0.929 . S
C1735 C1732 1.461 . S
C1735 C1734 1.474 . S
C1736 C1731 1.342 . S
C1736 C1734 1.285 . S
C1736 H1755 0.930 . S
C1737 C1740 1.424 . S
C1737 C1742 1.245 . S
C1737 C1743 1.428 . S
C1738 C1741 1.260 . S
C1738 C1742 1.477 . S
C1738 H1756 0.932 . S
C1739 C1740 1.384 . S
C1739 C1741 1.479 . S
C1739 H1757 0.929 . S
C1740 C1737 1.424 . S
C1740 C1739 1.384 . S
C1740 H1758 0.928 . S
C1741 C1738 1.260 . S
C1741 C1739 1.479 . S
C1742 C1737 1.245 . S
C1742 C1738 1.477 . S
C1742 H1759 0.932 . S
C1743 U1726 2.882 . S
C1743 C1737 1.428 . S
C1743 O1746 1.301 . S
C1743 O1747 1.282 . S
O1744 U1726 2.441 . S
O1744 C1730 1.249 . S
O1745 U1726 2.420 . S
O1745 C1730 1.202 . S
O1746 U1726 2.455 . S
O1746 C1743 1.301 . S
O1747 U1726 2.449 . S
O1747 C1743 1.282 . S
H1748 C1721 0.931 . S
H1749 C1723 0.929 . S
H1750 C1724 0.930 . S
H1751 C1725 0.931 . S
H1752 C1732 0.932 . S
H1753 C1733 0.930 . S
H1754 C1734 0.929 . S
H1755 C1736 0.930 . S
H1756 C1738 0.932 . S
H1757 C1739 0.929 . S
H1758 C1740 0.928 . S
H1759 C1742 0.932 . S
C1760 C1761 1.264 . S
C1760 C1765 1.479 . S
C1760 C1770 1.465 . S
C1761 C1760 1.264 . S
C1761 C1763 1.339 . S
C1761 H1788 0.931 . S
C1762 C1763 1.395 . S
C1762 C1764 1.320 . S
C1763 C1761 1.339 . S
C1763 C1762 1.395 . S
C1763 H1789 0.929 . S
C1764 C1762 1.320 . S
C1764 C1765 1.405 . S
C1764 H1790 0.930 . S
C1765 C1760 1.479 . S
C1765 C1764 1.405 . S
C1765 H1791 0.931 . S
U1766 O1767 2.454 . S
U1766 O1768 2.458 . S
U1766 C1769 2.984 . S
U1766 C1770 2.847 . S
U1766 C1783 2.882 . S
U1766 O1784 2.441 . S
U1766 O1785 2.420 . S
U1766 O1786 2.455 . S
U1766 O1787 2.449 . S
O1767 U1766 2.454 . S
O1767 C1769 1.353 . S
O1768 U1766 2.458 . S
O1768 C1769 1.286 . S
C1769 U1766 2.984 . S
C1769 O1767 1.353 . S
C1769 O1768 1.286 . S
C1769 C1771 1.363 . S
C1770 C1760 1.465 . S
C1770 U1766 2.847 . S
C1770 O1784 1.249 . S
C1770 O1785 1.202 . S
C1771 C1769 1.363 . S
C1771 C1773 1.408 . S
C1771 C1776 1.342 . S
C1772 C1773 1.310 . S
C1772 C1775 1.461 . S
C1772 H1792 0.932 . S
C1773 C1771 1.408 . S
C1773 C1772 1.310 . S
C1773 H1793 0.930 . S
C1774 C1775 1.474 . S
C1774 C1776 1.285 . S
C1774 H1794 0.929 . S
C1775 C1772 1.461 . S
C1775 C1774 1.474 . S
C1776 C1771 1.342 . S
C1776 C1774 1.285 . S
C1776 H1795 0.930 . S
C1777 C1780 1.424 . S
C1777 C1782 1.245 . S
C1777 C1783 1.428 . S
C1778 C1781 1.260 . S
C1778 C1782 1.477 . S
C1778 H1796 0.932 . S
C1779 C1780 1.384 . S
C1779 C1781 1.479 . S
C1779 H1797 0.929 . S
C1780 C1777 1.424 . S
C1780 C1779 1.384 . S
C1780 H1798 0.928 . S
C1781 C1778 1.260 . S
C1781 C1779 1.479 . S
C1782 C1777 1.245 . S
C1782 C1778 1.477 . S
C1782 H1799 0.932 . S
C1783 U1766 2.882 . S
C1783 C1777 1.428 . S
C1783 O1786 1.301 . S
C1783 O1787 1.282 . S
O1784 U1766 2.441 . S
O1784 C1770 1.249 . S
O1785 U1766 2.420 . S
O1785 C1770 1.202 . S
O1786 U1766 2.455 . S
O1786 C1783 1.301 . S
O1787 U1766 2.449 . S
O1787 C1783 1.282 . S
H1788 C1761 0.931 . S
H1789 C1763 0.929 . S
H1790 C1764 0.930 . S
H1791 C1765 0.931 . S
H1792 C1772 0.932 . S
H1793 C1773 0.930 . S
H1794 C1774 0.929 . S
H1795 C1776 0.930 . S
H1796 C1778 0.932 . S
H1797 C1779 0.929 . S
H1798 C1780 0.928 . S
H1799 C1782 0.932 . S
C1800 C1801 1.264 . S
C1800 C1805 1.479 . S
C1800 C1810 1.465 . S
C1801 C1800 1.264 . S
C1801 C1803 1.339 . S
C1801 H1828 0.931 . S
C1802 C1803 1.395 . S
C1802 C1804 1.320 . S
C1803 C1801 1.339 . S
C1803 C1802 1.395 . S
C1803 H1829 0.929 . S
C1804 C1802 1.320 . S
C1804 C1805 1.405 . S
C1804 H1830 0.930 . S
C1805 C1800 1.479 . S
C1805 C1804 1.405 . S
C1805 H1831 0.931 . S
U1806 O1807 2.454 . S
U1806 O1808 2.458 . S
U1806 C1809 2.984 . S
U1806 C1810 2.847 . S
U1806 C1823 2.882 . S
U1806 O1824 2.441 . S
U1806 O1825 2.420 . S
U1806 O1826 2.455 . S
U1806 O1827 2.449 . S
O1807 U1806 2.454 . S
O1807 C1809 1.353 . S
O1808 U1806 2.458 . S
O1808 C1809 1.286 . S
C1809 U1806 2.984 . S
C1809 O1807 1.353 . S
C1809 O1808 1.286 . S
C1809 C1811 1.363 . S
C1810 C1800 1.465 . S
C1810 U1806 2.847 . S
C1810 O1824 1.249 . S
C1810 O1825 1.202 . S
C1811 C1809 1.363 . S
C1811 C1813 1.408 . S
C1811 C1816 1.342 . S
C1812 C1813 1.310 . S
C1812 C1815 1.461 . S
C1812 H1832 0.932 . S
C1813 C1811 1.408 . S
C1813 C1812 1.310 . S
C1813 H1833 0.930 . S
C1814 C1815 1.474 . S
C1814 C1816 1.285 . S
C1814 H1834 0.929 . S
C1815 C1812 1.461 . S
C1815 C1814 1.474 . S
C1816 C1811 1.342 . S
C1816 C1814 1.285 . S
C1816 H1835 0.930 . S
C1817 C1820 1.424 . S
C1817 C1822 1.245 . S
C1817 C1823 1.428 . S
C1818 C1821 1.260 . S
C1818 C1822 1.477 . S
C1818 H1836 0.932 . S
C1819 C1820 1.384 . S
C1819 C1821 1.479 . S
C1819 H1837 0.929 . S
C1820 C1817 1.424 . S
C1820 C1819 1.384 . S
C1820 H1838 0.928 . S
C1821 C1818 1.260 . S
C1821 C1819 1.479 . S
C1822 C1817 1.245 . S
C1822 C1818 1.477 . S
C1822 H1839 0.932 . S
C1823 U1806 2.882 . S
C1823 C1817 1.428 . S
C1823 O1826 1.301 . S
C1823 O1827 1.282 . S
O1824 U1806 2.441 . S
O1824 C1810 1.249 . S
O1825 U1806 2.420 . S
O1825 C1810 1.202 . S
O1826 U1806 2.455 . S
O1826 C1823 1.301 . S
O1827 U1806 2.449 . S
O1827 C1823 1.282 . S
H1828 C1801 0.931 . S
H1829 C1803 0.929 . S
H1830 C1804 0.930 . S
H1831 C1805 0.931 . S
H1832 C1812 0.932 . S
H1833 C1813 0.930 . S
H1834 C1814 0.929 . S
H1835 C1816 0.930 . S
H1836 C1818 0.932 . S
H1837 C1819 0.929 . S
H1838 C1820 0.928 . S
H1839 C1822 0.932 . S
C1840 C1841 1.264 . S
C1840 C1845 1.479 . S
C1840 C1850 1.465 . S
C1841 C1840 1.264 . S
C1841 C1843 1.339 . S
C1841 H1868 0.931 . S
C1842 C1843 1.395 . S
C1842 C1844 1.320 . S
C1843 C1841 1.339 . S
C1843 C1842 1.395 . S
C1843 H1869 0.929 . S
C1844 C1842 1.320 . S
C1844 C1845 1.405 . S
C1844 H1870 0.930 . S
C1845 C1840 1.479 . S
C1845 C1844 1.405 . S
C1845 H1871 0.931 . S
U1846 O1847 2.454 . S
U1846 O1848 2.458 . S
U1846 C1849 2.984 . S
U1846 C1850 2.847 . S
U1846 C1863 2.882 . S
U1846 O1864 2.441 . S
U1846 O1865 2.420 . S
U1846 O1866 2.455 . S
U1846 O1867 2.449 . S
O1847 U1846 2.454 . S
O1847 C1849 1.353 . S
O1848 U1846 2.458 . S
O1848 C1849 1.286 . S
C1849 U1846 2.984 . S
C1849 O1847 1.353 . S
C1849 O1848 1.286 . S
C1849 C1851 1.363 . S
C1850 C1840 1.465 . S
C1850 U1846 2.847 . S
C1850 O1864 1.249 . S
C1850 O1865 1.202 . S
C1851 C1849 1.363 . S
C1851 C1853 1.408 . S
C1851 C1856 1.342 . S
C1852 C1853 1.310 . S
C1852 C1855 1.461 . S
C1852 H1872 0.932 . S
C1853 C1851 1.408 . S
C1853 C1852 1.310 . S
C1853 H1873 0.930 . S
C1854 C1855 1.474 . S
C1854 C1856 1.285 . S
C1854 H1874 0.929 . S
C1855 C1852 1.461 . S
C1855 C1854 1.474 . S
C1856 C1851 1.342 . S
C1856 C1854 1.285 . S
C1856 H1875 0.930 . S
C1857 C1860 1.424 . S
C1857 C1862 1.245 . S
C1857 C1863 1.428 . S
C1858 C1861 1.260 . S
C1858 C1862 1.477 . S
C1858 H1876 0.932 . S
C1859 C1860 1.384 . S
C1859 C1861 1.479 . S
C1859 H1877 0.929 . S
C1860 C1857 1.424 . S
C1860 C1859 1.384 . S
C1860 H1878 0.928 . S
C1861 C1858 1.260 . S
C1861 C1859 1.479 . S
C1862 C1857 1.245 . S
C1862 C1858 1.477 . S
C1862 H1879 0.932 . S
C1863 U1846 2.882 . S
C1863 C1857 1.428 . S
C1863 O1866 1.301 . S
C1863 O1867 1.282 . S
O1864 U1846 2.441 . S
O1864 C1850 1.249 . S
O1865 U1846 2.420 . S
O1865 C1850 1.202 . S
O1866 U1846 2.455 . S
O1866 C1863 1.301 . S
O1867 U1846 2.449 . S
O1867 C1863 1.282 . S
H1868 C1841 0.931 . S
H1869 C1843 0.929 . S
H1870 C1844 0.930 . S
H1871 C1845 0.931 . S
H1872 C1852 0.932 . S
H1873 C1853 0.930 . S
H1874 C1854 0.929 . S
H1875 C1856 0.930 . S
H1876 C1858 0.932 . S
H1877 C1859 0.929 . S
H1878 C1860 0.928 . S
H1879 C1862 0.932 . S
C1880 C1881 1.264 . S
C1880 C1885 1.479 . S
C1880 C1890 1.465 . S
C1881 C1880 1.264 . S
C1881 C1883 1.339 . S
C1881 H1908 0.931 . S
C1882 C1883 1.395 . S
C1882 C1884 1.320 . S
C1883 C1881 1.339 . S
C1883 C1882 1.395 . S
C1883 H1909 0.929 . S
C1884 C1882 1.320 . S
C1884 C1885 1.405 . S
C1884 H1910 0.930 . S
C1885 C1880 1.479 . S
C1885 C1884 1.405 . S
C1885 H1911 0.931 . S
U1886 O1887 2.454 . S
U1886 O1888 2.458 . S
U1886 C1889 2.984 . S
U1886 C1890 2.847 . S
U1886 C1903 2.882 . S
U1886 O1904 2.441 . S
U1886 O1905 2.420 . S
U1886 O1906 2.455 . S
U1886 O1907 2.449 . S
O1887 U1886 2.454 . S
O1887 C1889 1.353 . S
O1888 U1886 2.458 . S
O1888 C1889 1.286 . S
C1889 U1886 2.984 . S
C1889 O1887 1.353 . S
C1889 O1888 1.286 . S
C1889 C1891 1.363 . S
C1890 C1880 1.465 . S
C1890 U1886 2.847 . S
C1890 O1904 1.249 . S
C1890 O1905 1.202 . S
C1891 C1889 1.363 . S
C1891 C1893 1.408 . S
C1891 C1896 1.342 . S
C1892 C1893 1.310 . S
C1892 C1895 1.461 . S
C1892 H1912 0.932 . S
C1893 C1891 1.408 . S
C1893 C1892 1.310 . S
C1893 H1913 0.930 . S
C1894 C1895 1.474 . S
C1894 C1896 1.285 . S
C1894 H1914 0.929 . S
C1895 C1892 1.461 . S
C1895 C1894 1.474 . S
C1896 C1891 1.342 . S
C1896 C1894 1.285 . S
C1896 H1915 0.930 . S
C1897 C1900 1.424 . S
C1897 C1902 1.245 . S
C1897 C1903 1.428 . S
C1898 C1901 1.260 . S
C1898 C1902 1.477 . S
C1898 H1916 0.932 . S
C1899 C1900 1.384 . S
C1899 C1901 1.479 . S
C1899 H1917 0.929 . S
C1900 C1897 1.424 . S
C1900 C1899 1.384 . S
C1900 H1918 0.928 . S
C1901 C1898 1.260 . S
C1901 C1899 1.479 . S
C1902 C1897 1.245 . S
C1902 C1898 1.477 . S
C1902 H1919 0.932 . S
C1903 U1886 2.882 . S
C1903 C1897 1.428 . S
C1903 O1906 1.301 . S
C1903 O1907 1.282 . S
O1904 U1886 2.441 . S
O1904 C1890 1.249 . S
O1905 U1886 2.420 . S
O1905 C1890 1.202 . S
O1906 U1886 2.455 . S
O1906 C1903 1.301 . S
O1907 U1886 2.449 . S
O1907 C1903 1.282 . S
H1908 C1881 0.931 . S
H1909 C1883 0.929 . S
H1910 C1884 0.930 . S
H1911 C1885 0.931 . S
H1912 C1892 0.932 . S
H1913 C1893 0.930 . S
H1914 C1894 0.929 . S
H1915 C1896 0.930 . S
H1916 C1898 0.932 . S
H1917 C1899 0.929 . S
H1918 C1900 0.928 . S
H1919 C1902 0.932 . S
C1920 C1921 1.264 . S
C1920 C1925 1.479 . S
C1920 C1930 1.465 . S
C1921 C1920 1.264 . S
C1921 C1923 1.339 . S
C1921 H1948 0.931 . S
C1922 C1923 1.395 . S
C1922 C1924 1.320 . S
C1923 C1921 1.339 . S
C1923 C1922 1.395 . S
C1923 H1949 0.929 . S
C1924 C1922 1.320 . S
C1924 C1925 1.405 . S
C1924 H1950 0.930 . S
C1925 C1920 1.479 . S
C1925 C1924 1.405 . S
C1925 H1951 0.931 . S
U1926 O1927 2.454 . S
U1926 O1928 2.458 . S
U1926 C1929 2.984 . S
U1926 C1930 2.847 . S
U1926 C1943 2.882 . S
U1926 O1944 2.441 . S
U1926 O1945 2.420 . S
U1926 O1946 2.455 . S
U1926 O1947 2.449 . S
O1927 U1926 2.454 . S
O1927 C1929 1.353 . S
O1928 U1926 2.458 . S
O1928 C1929 1.286 . S
C1929 U1926 2.984 . S
C1929 O1927 1.353 . S
C1929 O1928 1.286 . S
C1929 C1931 1.363 . S
C1930 C1920 1.465 . S
C1930 U1926 2.847 . S
C1930 O1944 1.249 . S
C1930 O1945 1.202 . S
C1931 C1929 1.363 . S
C1931 C1933 1.408 . S
C1931 C1936 1.342 . S
C1932 C1933 1.310 . S
C1932 C1935 1.461 . S
C1932 H1952 0.932 . S
C1933 C1931 1.408 . S
C1933 C1932 1.310 . S
C1933 H1953 0.930 . S
C1934 C1935 1.474 . S
C1934 C1936 1.285 . S
C1934 H1954 0.929 . S
C1935 C1932 1.461 . S
C1935 C1934 1.474 . S
C1936 C1931 1.342 . S
C1936 C1934 1.285 . S
C1936 H1955 0.930 . S
C1937 C1940 1.424 . S
C1937 C1942 1.245 . S
C1937 C1943 1.428 . S
C1938 C1941 1.260 . S
C1938 C1942 1.477 . S
C1938 H1956 0.932 . S
C1939 C1940 1.384 . S
C1939 C1941 1.479 . S
C1939 H1957 0.929 . S
C1940 C1937 1.424 . S
C1940 C1939 1.384 . S
C1940 H1958 0.928 . S
C1941 C1938 1.260 . S
C1941 C1939 1.479 . S
C1942 C1937 1.245 . S
C1942 C1938 1.477 . S
C1942 H1959 0.932 . S
C1943 U1926 2.882 . S
C1943 C1937 1.428 . S
C1943 O1946 1.301 . S
C1943 O1947 1.282 . S
O1944 U1926 2.441 . S
O1944 C1930 1.249 . S
O1945 U1926 2.420 . S
O1945 C1930 1.202 . S
O1946 U1926 2.455 . S
O1946 C1943 1.301 . S
O1947 U1926 2.449 . S
O1947 C1943 1.282 . S
H1948 C1921 0.931 . S
H1949 C1923 0.929 . S
H1950 C1924 0.930 . S
H1951 C1925 0.931 . S
H1952 C1932 0.932 . S
H1953 C1933 0.930 . S
H1954 C1934 0.929 . S
H1955 C1936 0.930 . S
H1956 C1938 0.932 . S
H1957 C1939 0.929 . S
H1958 C1940 0.928 . S
H1959 C1942 0.932 . S
C1960 C1961 1.264 . S
C1960 C1965 1.479 . S
C1960 C1970 1.465 . S
C1961 C1960 1.264 . S
C1961 C1963 1.339 . S
C1961 H1988 0.931 . S
C1962 C1963 1.395 . S
C1962 C1964 1.320 . S
C1963 C1961 1.339 . S
C1963 C1962 1.395 . S
C1963 H1989 0.929 . S
C1964 C1962 1.320 . S
C1964 C1965 1.405 . S
C1964 H1990 0.930 . S
C1965 C1960 1.479 . S
C1965 C1964 1.405 . S
C1965 H1991 0.931 . S
U1966 O1967 2.454 . S
U1966 O1968 2.458 . S
U1966 C1969 2.984 . S
U1966 C1970 2.847 . S
U1966 C1983 2.882 . S
U1966 O1984 2.441 . S
U1966 O1985 2.420 . S
U1966 O1986 2.455 . S
U1966 O1987 2.449 . S
O1967 U1966 2.454 . S
O1967 C1969 1.353 . S
O1968 U1966 2.458 . S
O1968 C1969 1.286 . S
C1969 U1966 2.984 . S
C1969 O1967 1.353 . S
C1969 O1968 1.286 . S
C1969 C1971 1.363 . S
C1970 C1960 1.465 . S
C1970 U1966 2.847 . S
C1970 O1984 1.249 . S
C1970 O1985 1.202 . S
C1971 C1969 1.363 . S
C1971 C1973 1.408 . S
C1971 C1976 1.342 . S
C1972 C1973 1.310 . S
C1972 C1975 1.461 . S
C1972 H1992 0.932 . S
C1973 C1971 1.408 . S
C1973 C1972 1.310 . S
C1973 H1993 0.930 . S
C1974 C1975 1.474 . S
C1974 C1976 1.285 . S
C1974 H1994 0.929 . S
C1975 C1972 1.461 . S
C1975 C1974 1.474 . S
C1976 C1971 1.342 . S
C1976 C1974 1.285 . S
C1976 H1995 0.930 . S
C1977 C1980 1.424 . S
C1977 C1982 1.245 . S
C1977 C1983 1.428 . S
C1978 C1981 1.260 . S
C1978 C1982 1.477 . S
C1978 H1996 0.932 . S
C1979 C1980 1.384 . S
C1979 C1981 1.479 . S
C1979 H1997 0.929 . S
C1980 C1977 1.424 . S
C1980 C1979 1.384 . S
C1980 H1998 0.928 . S
C1981 C1978 1.260 . S
C1981 C1979 1.479 . S
C1982 C1977 1.245 . S
C1982 C1978 1.477 . S
C1982 H1999 0.932 . S
C1983 U1966 2.882 . S
C1983 C1977 1.428 . S
C1983 O1986 1.301 . S
C1983 O1987 1.282 . S
O1984 U1966 2.441 . S
O1984 C1970 1.249 . S
O1985 U1966 2.420 . S
O1985 C1970 1.202 . S
O1986 U1966 2.455 . S
O1986 C1983 1.301 . S
O1987 U1966 2.449 . S
O1987 C1983 1.282 . S
H1988 C1961 0.931 . S
H1989 C1963 0.929 . S
H1990 C1964 0.930 . S
H1991 C1965 0.931 . S
H1992 C1972 0.932 . S
H1993 C1973 0.930 . S
H1994 C1974 0.929 . S
H1995 C1976 0.930 . S
H1996 C1978 0.932 . S
H1997 C1979 0.929 . S
H1998 C1980 0.928 . S
H1999 C1982 0.932 . S
C2000 C2001 1.264 . S
C2000 C2005 1.479 . S
C2000 C2010 1.465 . S
C2001 C2000 1.264 . S
C2001 C2003 1.339 . S
C2001 H2028 0.931 . S
C2002 C2003 1.395 . S
C2002 C2004 1.320 . S
C2003 C2001 1.339 . S
C2003 C2002 1.395 . S
C2003 H2029 0.929 . S
C2004 C2002 1.320 . S
C2004 C2005 1.405 . S
C2004 H2030 0.930 . S
C2005 C2000 1.479 . S
C2005 C2004 1.405 . S
C2005 H2031 0.931 . S
U2006 O2007 2.454 . S
U2006 O2008 2.458 . S
U2006 C2009 2.984 . S
U2006 C2010 2.847 . S
U2006 C2023 2.882 . S
U2006 O2024 2.441 . S
U2006 O2025 2.420 . S
U2006 O2026 2.455 . S
U2006 O2027 2.449 . S
O2007 U2006 2.454 . S
O2007 C2009 1.353 . S
O2008 U2006 2.458 . S
O2008 C2009 1.286 . S
C2009 U2006 2.984 . S
C2009 O2007 1.353 . S
C2009 O2008 1.286 . S
C2009 C2011 1.363 . S
C2010 C2000 1.465 . S
C2010 U2006 2.847 . S
C2010 O2024 1.249 . S
C2010 O2025 1.202 . S
C2011 C2009 1.363 . S
C2011 C2013 1.408 . S
C2011 C2016 1.342 . S
C2012 C2013 1.310 . S
C2012 C2015 1.461 . S
C2012 H2032 0.932 . S
C2013 C2011 1.408 . S
C2013 C2012 1.310 . S
C2013 H2033 0.930 . S
C2014 C2015 1.474 . S
C2014 C2016 1.285 . S
C2014 H2034 0.929 . S
C2015 C2012 1.461 . S
C2015 C2014 1.474 . S
C2016 C2011 1.342 . S
C2016 C2014 1.285 . S
C2016 H2035 0.930 . S
C2017 C2020 1.424 . S
C2017 C2022 1.245 . S
C2017 C2023 1.428 . S
C2018 C2021 1.260 . S
C2018 C2022 1.477 . S
C2018 H2036 0.932 . S
C2019 C2020 1.384 . S
C2019 C2021 1.479 . S
C2019 H2037 0.929 . S
C2020 C2017 1.424 . S
C2020 C2019 1.384 . S
C2020 H2038 0.928 . S
C2021 C2018 1.260 . S
C2021 C2019 1.479 . S
C2022 C2017 1.245 . S
C2022 C2018 1.477 . S
C2022 H2039 0.932 . S
C2023 U2006 2.882 . S
C2023 C2017 1.428 . S
C2023 O2026 1.301 . S
C2023 O2027 1.282 . S
O2024 U2006 2.441 . S
O2024 C2010 1.249 . S
O2025 U2006 2.420 . S
O2025 C2010 1.202 . S
O2026 U2006 2.455 . S
O2026 C2023 1.301 . S
O2027 U2006 2.449 . S
O2027 C2023 1.282 . S
H2028 C2001 0.931 . S
H2029 C2003 0.929 . S
H2030 C2004 0.930 . S
H2031 C2005 0.931 . S
H2032 C2012 0.932 . S
H2033 C2013 0.930 . S
H2034 C2014 0.929 . S
H2035 C2016 0.930 . S
H2036 C2018 0.932 . S
H2037 C2019 0.929 . S
H2038 C2020 0.928 . S
H2039 C2022 0.932 . S
C2040 C2041 1.264 . S
C2040 C2045 1.479 . S
C2040 C2050 1.465 . S
C2041 C2040 1.264 . S
C2041 C2043 1.339 . S
C2041 H2068 0.931 . S
C2042 C2043 1.395 . S
C2042 C2044 1.320 . S
C2043 C2041 1.339 . S
C2043 C2042 1.395 . S
C2043 H2069 0.929 . S
C2044 C2042 1.320 . S
C2044 C2045 1.405 . S
C2044 H2070 0.930 . S
C2045 C2040 1.479 . S
C2045 C2044 1.405 . S
C2045 H2071 0.931 . S
U2046 O2047 2.454 . S
U2046 O2048 2.458 . S
U2046 C2049 2.984 . S
U2046 C2050 2.847 . S
U2046 C2063 2.882 . S
U2046 O2064 2.441 . S
U2046 O2065 2.420 . S
U2046 O2066 2.455 . S
U2046 O2067 2.449 . S
O2047 U2046 2.454 . S
O2047 C2049 1.353 . S
O2048 U2046 2.458 . S
O2048 C2049 1.286 . S
C2049 U2046 2.984 . S
C2049 O2047 1.353 . S
C2049 O2048 1.286 . S
C2049 C2051 1.363 . S
C2050 C2040 1.465 . S
C2050 U2046 2.847 . S
C2050 O2064 1.249 . S
C2050 O2065 1.202 . S
C2051 C2049 1.363 . S
C2051 C2053 1.408 . S
C2051 C2056 1.342 . S
C2052 C2053 1.310 . S
C2052 C2055 1.461 . S
C2052 H2072 0.932 . S
C2053 C2051 1.408 . S
C2053 C2052 1.310 . S
C2053 H2073 0.930 . S
C2054 C2055 1.474 . S
C2054 C2056 1.285 . S
C2054 H2074 0.929 . S
C2055 C2052 1.461 . S
C2055 C2054 1.474 . S
C2056 C2051 1.342 . S
C2056 C2054 1.285 . S
C2056 H2075 0.930 . S
C2057 C2060 1.424 . S
C2057 C2062 1.245 . S
C2057 C2063 1.428 . S
C2058 C2061 1.260 . S
C2058 C2062 1.477 . S
C2058 H2076 0.932 . S
C2059 C2060 1.384 . S
C2059 C2061 1.479 . S
C2059 H2077 0.929 . S
C2060 C2057 1.424 . S
C2060 C2059 1.384 . S
C2060 H2078 0.928 . S
C2061 C2058 1.260 . S
C2061 C2059 1.479 . S
C2062 C2057 1.245 . S
C2062 C2058 1.477 . S
C2062 H2079 0.932 . S
C2063 U2046 2.882 . S
C2063 C2057 1.428 . S
C2063 O2066 1.301 . S
C2063 O2067 1.282 . S
O2064 U2046 2.441 . S
O2064 C2050 1.249 . S
O2065 U2046 2.420 . S
O2065 C2050 1.202 . S
O2066 U2046 2.455 . S
O2066 C2063 1.301 . S
O2067 U2046 2.449 . S
O2067 C2063 1.282 . S
H2068 C2041 0.931 . S
H2069 C2043 0.929 . S
H2070 C2044 0.930 . S
H2071 C2045 0.931 . S
H2072 C2052 0.932 . S
H2073 C2053 0.930 . S
H2074 C2054 0.929 . S
H2075 C2056 0.930 . S
H2076 C2058 0.932 . S
H2077 C2059 0.929 . S
H2078 C2060 0.928 . S
H2079 C2062 0.932 . S
C2080 C2081 1.264 . S
C2080 C2085 1.479 . S
C2080 C2090 1.465 . S
C2081 C2080 1.264 . S
C2081 C2083 1.339 . S
C2081 H2108 0.931 . S
C2082 C2083 1.395 . S
C2082 C2084 1.320 . S
C2083 C2081 1.339 . S
C2083 C2082 1.395 . S
C2083 H2109 0.929 . S
C2084 C2082 1.320 . S
C2084 C2085 1.405 . S
C2084 H2110 0.930 . S
C2085 C2080 1.479 . S
C2085 C2084 1.405 . S
C2085 H2111 0.931 . S
U2086 O2087 2.454 . S
U2086 O2088 2.458 . S
U2086 C2089 2.984 . S
U2086 C2090 2.847 . S
U2086 C2103 2.882 . S
U2086 O2104 2.441 . S
U2086 O2105 2.420 . S
U2086 O2106 2.455 . S
U2086 O2107 2.449 . S
O2087 U2086 2.454 . S
O2087 C2089 1.353 . S
O2088 U2086 2.458 . S
O2088 C2089 1.286 . S
C2089 U2086 2.984 . S
C2089 O2087 1.353 . S
C2089 O2088 1.286 . S
C2089 C2091 1.363 . S
C2090 C2080 1.465 . S
C2090 U2086 2.847 . S
C2090 O2104 1.249 . S
C2090 O2105 1.202 . S
C2091 C2089 1.363 . S
C2091 C2093 1.408 . S
C2091 C2096 1.342 . S
C2092 C2093 1.310 . S
C2092 C2095 1.461 . S
C2092 H2112 0.932 . S
C2093 C2091 1.408 . S
C2093 C2092 1.310 . S
C2093 H2113 0.930 . S
C2094 C2095 1.474 . S
C2094 C2096 1.285 . S
C2094 H2114 0.929 . S
C2095 C2092 1.461 . S
C2095 C2094 1.474 . S
C2096 C2091 1.342 . S
C2096 C2094 1.285 . S
C2096 H2115 0.930 . S
C2097 C2100 1.424 . S
C2097 C2102 1.245 . S
C2097 C2103 1.428 . S
C2098 C2101 1.260 . S
C2098 C2102 1.477 . S
C2098 H2116 0.932 . S
C2099 C2100 1.384 . S
C2099 C2101 1.479 . S
C2099 H2117 0.929 . S
C2100 C2097 1.424 . S
C2100 C2099 1.384 . S
C2100 H2118 0.928 . S
C2101 C2098 1.260 . S
C2101 C2099 1.479 . S
C2102 C2097 1.245 . S
C2102 C2098 1.477 . S
C2102 H2119 0.932 . S
C2103 U2086 2.882 . S
C2103 C2097 1.428 . S
C2103 O2106 1.301 . S
C2103 O2107 1.282 . S
O2104 U2086 2.441 . S
O2104 C2090 1.249 . S
O2105 U2086 2.420 . S
O2105 C2090 1.202 . S
O2106 U2086 2.455 . S
O2106 C2103 1.301 . S
O2107 U2086 2.449 . S
O2107 C2103 1.282 . S
H2108 C2081 0.931 . S
H2109 C2083 0.929 . S
H2110 C2084 0.930 . S
H2111 C2085 0.931 . S
H2112 C2092 0.932 . S
H2113 C2093 0.930 . S
H2114 C2094 0.929 . S
H2115 C2096 0.930 . S
H2116 C2098 0.932 . S
H2117 C2099 0.929 . S
H2118 C2100 0.928 . S
H2119 C2102 0.932 . S
C2120 C2121 1.264 . S
C2120 C2125 1.479 . S
C2120 C2130 1.465 . S
C2121 C2120 1.264 . S
C2121 C2123 1.339 . S
C2121 H2148 0.931 . S
C2122 C2123 1.395 . S
C2122 C2124 1.320 . S
C2123 C2121 1.339 . S
C2123 C2122 1.395 . S
C2123 H2149 0.929 . S
C2124 C2122 1.320 . S
C2124 C2125 1.405 . S
C2124 H2150 0.930 . S
C2125 C2120 1.479 . S
C2125 C2124 1.405 . S
C2125 H2151 0.931 . S
U2126 O2127 2.454 . S
U2126 O2128 2.458 . S
U2126 C2129 2.984 . S
U2126 C2130 2.847 . S
U2126 C2143 2.882 . S
U2126 O2144 2.441 . S
U2126 O2145 2.420 . S
U2126 O2146 2.455 . S
U2126 O2147 2.449 . S
O2127 U2126 2.454 . S
O2127 C2129 1.353 . S
O2128 U2126 2.458 . S
O2128 C2129 1.286 . S
C2129 U2126 2.984 . S
C2129 O2127 1.353 . S
C2129 O2128 1.286 . S
C2129 C2131 1.363 . S
C2130 C2120 1.465 . S
C2130 U2126 2.847 . S
C2130 O2144 1.249 . S
C2130 O2145 1.202 . S
C2131 C2129 1.363 . S
C2131 C2133 1.408 . S
C2131 C2136 1.342 . S
C2132 C2133 1.310 . S
C2132 C2135 1.461 . S
C2132 H2152 0.932 . S
C2133 C2131 1.408 . S
C2133 C2132 1.310 . S
C2133 H2153 0.930 . S
C2134 C2135 1.474 . S
C2134 C2136 1.285 . S
C2134 H2154 0.929 . S
C2135 C2132 1.461 . S
C2135 C2134 1.474 . S
C2136 C2131 1.342 . S
C2136 C2134 1.285 . S
C2136 H2155 0.930 . S
C2137 C2140 1.424 . S
C2137 C2142 1.245 . S
C2137 C2143 1.428 . S
C2138 C2141 1.260 . S
C2138 C2142 1.477 . S
C2138 H2156 0.932 . S
C2139 C2140 1.384 . S
C2139 C2141 1.479 . S
C2139 H2157 0.929 . S
C2140 C2137 1.424 . S
C2140 C2139 1.384 . S
C2140 H2158 0.928 . S
C2141 C2138 1.260 . S
C2141 C2139 1.479 . S
C2142 C2137 1.245 . S
C2142 C2138 1.477 . S
C2142 H2159 0.932 . S
C2143 U2126 2.882 . S
C2143 C2137 1.428 . S
C2143 O2146 1.301 . S
C2143 O2147 1.282 . S
O2144 U2126 2.441 . S
O2144 C2130 1.249 . S
O2145 U2126 2.420 . S
O2145 C2130 1.202 . S
O2146 U2126 2.455 . S
O2146 C2143 1.301 . S
O2147 U2126 2.449 . S
O2147 C2143 1.282 . S
H2148 C2121 0.931 . S
H2149 C2123 0.929 . S
H2150 C2124 0.930 . S
H2151 C2125 0.931 . S
H2152 C2132 0.932 . S
H2153 C2133 0.930 . S
H2154 C2134 0.929 . S
H2155 C2136 0.930 . S
H2156 C2138 0.932 . S
H2157 C2139 0.929 . S
H2158 C2140 0.928 . S
H2159 C2142 0.932 . S
C2160 C2161 1.264 . S
C2160 C2165 1.479 . S
C2160 C2170 1.465 . S
C2161 C2160 1.264 . S
C2161 C2163 1.339 . S
C2161 H2188 0.931 . S
C2162 C2163 1.395 . S
C2162 C2164 1.320 . S
C2163 C2161 1.339 . S
C2163 C2162 1.395 . S
C2163 H2189 0.929 . S
C2164 C2162 1.320 . S
C2164 C2165 1.405 . S
C2164 H2190 0.930 . S
C2165 C2160 1.479 . S
C2165 C2164 1.405 . S
C2165 H2191 0.931 . S
U2166 O2167 2.454 . S
U2166 O2168 2.458 . S
U2166 C2169 2.984 . S
U2166 C2170 2.847 . S
U2166 C2183 2.882 . S
U2166 O2184 2.441 . S
U2166 O2185 2.420 . S
U2166 O2186 2.455 . S
U2166 O2187 2.449 . S
O2167 U2166 2.454 . S
O2167 C2169 1.353 . S
O2168 U2166 2.458 . S
O2168 C2169 1.286 . S
C2169 U2166 2.984 . S
C2169 O2167 1.353 . S
C2169 O2168 1.286 . S
C2169 C2171 1.363 . S
C2170 C2160 1.465 . S
C2170 U2166 2.847 . S
C2170 O2184 1.249 . S
C2170 O2185 1.202 . S
C2171 C2169 1.363 . S
C2171 C2173 1.408 . S
C2171 C2176 1.342 . S
C2172 C2173 1.310 . S
C2172 C2175 1.461 . S
C2172 H2192 0.932 . S
C2173 C2171 1.408 . S
C2173 C2172 1.310 . S
C2173 H2193 0.930 . S
C2174 C2175 1.474 . S
C2174 C2176 1.285 . S
C2174 H2194 0.929 . S
C2175 C2172 1.461 . S
C2175 C2174 1.474 . S
C2176 C2171 1.342 . S
C2176 C2174 1.285 . S
C2176 H2195 0.930 . S
C2177 C2180 1.424 . S
C2177 C2182 1.245 . S
C2177 C2183 1.428 . S
C2178 C2181 1.260 . S
C2178 C2182 1.477 . S
C2178 H2196 0.932 . S
C2179 C2180 1.384 . S
C2179 C2181 1.479 . S
C2179 H2197 0.929 . S
C2180 C2177 1.424 . S
C2180 C2179 1.384 . S
C2180 H2198 0.928 . S
C2181 C2178 1.260 . S
C2181 C2179 1.479 . S
C2182 C2177 1.245 . S
C2182 C2178 1.477 . S
C2182 H2199 0.932 . S
C2183 U2166 2.882 . S
C2183 C2177 1.428 . S
C2183 O2186 1.301 . S
C2183 O2187 1.282 . S
O2184 U2166 2.441 . S
O2184 C2170 1.249 . S
O2185 U2166 2.420 . S
O2185 C2170 1.202 . S
O2186 U2166 2.455 . S
O2186 C2183 1.301 . S
O2187 U2166 2.449 . S
O2187 C2183 1.282 . S
H2188 C2161 0.931 . S
H2189 C2163 0.929 . S
H2190 C2164 0.930 . S
H2191 C2165 0.931 . S
H2192 C2172 0.932 . S
H2193 C2173 0.930 . S
H2194 C2174 0.929 . S
H2195 C2176 0.930 . S
H2196 C2178 0.932 . S
H2197 C2179 0.929 . S
H2198 C2180 0.928 . S
H2199 C2182 0.932 . S
C2200 C2201 1.264 . S
C2200 C2205 1.479 . S
C2200 C2210 1.465 . S
C2201 C2200 1.264 . S
C2201 C2203 1.339 . S
C2201 H2228 0.931 . S
C2202 C2203 1.395 . S
C2202 C2204 1.320 . S
C2203 C2201 1.339 . S
C2203 C2202 1.395 . S
C2203 H2229 0.929 . S
C2204 C2202 1.320 . S
C2204 C2205 1.405 . S
C2204 H2230 0.930 . S
C2205 C2200 1.479 . S
C2205 C2204 1.405 . S
C2205 H2231 0.931 . S
U2206 O2207 2.454 . S
U2206 O2208 2.458 . S
U2206 C2209 2.984 . S
U2206 C2210 2.847 . S
U2206 C2223 2.882 . S
U2206 O2224 2.441 . S
U2206 O2225 2.420 . S
U2206 O2226 2.455 . S
U2206 O2227 2.449 . S
O2207 U2206 2.454 . S
O2207 C2209 1.353 . S
O2208 U2206 2.458 . S
O2208 C2209 1.286 . S
C2209 U2206 2.984 . S
C2209 O2207 1.353 . S
C2209 O2208 1.286 . S
C2209 C2211 1.363 . S
C2210 C2200 1.465 . S
C2210 U2206 2.847 . S
C2210 O2224 1.249 . S
C2210 O2225 1.202 . S
C2211 C2209 1.363 . S
C2211 C2213 1.408 . S
C2211 C2216 1.342 . S
C2212 C2213 1.310 . S
C2212 C2215 1.461 . S
C2212 H2232 0.932 . S
C2213 C2211 1.408 . S
C2213 C2212 1.310 . S
C2213 H2233 0.930 . S
C2214 C2215 1.474 . S
C2214 C2216 1.285 . S
C2214 H2234 0.929 . S
C2215 C2212 1.461 . S
C2215 C2214 1.474 . S
C2216 C2211 1.342 . S
C2216 C2214 1.285 . S
C2216 H2235 0.930 . S
C2217 C2220 1.424 . S
C2217 C2222 1.245 . S
C2217 C2223 1.428 . S
C2218 C2221 1.260 . S
C2218 C2222 1.477 . S
C2218 H2236 0.932 . S
C2219 C2220 1.384 . S
C2219 C2221 1.479 . S
C2219 H2237 0.929 . S
C2220 C2217 1.424 . S
C2220 C2219 1.384 . S
C2220 H2238 0.928 . S
C2221 C2218 1.260 . S
C2221 C2219 1.479 . S
C2222 C2217 1.245 . S
C2222 C2218 1.477 . S
C2222 H2239 0.932 . S
C2223 U2206 2.882 . S
C2223 C2217 1.428 . S
C2223 O2226 1.301 . S
C2223 O2227 1.282 . S
O2224 U2206 2.441 . S
O2224 C2210 1.249 . S
O2225 U2206 2.420 . S
O2225 C2210 1.202 . S
O2226 U2206 2.455 . S
O2226 C2223 1.301 . S
O2227 U2206 2.449 . S
O2227 C2223 1.282 . S
H2228 C2201 0.931 . S
H2229 C2203 0.929 . S
H2230 C2204 0.930 . S
H2231 C2205 0.931 . S
H2232 C2212 0.932 . S
H2233 C2213 0.930 . S
H2234 C2214 0.929 . S
H2235 C2216 0.930 . S
H2236 C2218 0.932 . S
H2237 C2219 0.929 . S
H2238 C2220 0.928 . S
H2239 C2222 0.932 . S
C2240 C2241 1.264 . S
C2240 C2245 1.479 . S
C2240 C2250 1.465 . S
C2241 C2240 1.264 . S
C2241 C2243 1.339 . S
C2241 H2268 0.931 . S
C2242 C2243 1.395 . S
C2242 C2244 1.320 . S
C2243 C2241 1.339 . S
C2243 C2242 1.395 . S
C2243 H2269 0.929 . S
C2244 C2242 1.320 . S
C2244 C2245 1.405 . S
C2244 H2270 0.930 . S
C2245 C2240 1.479 . S
C2245 C2244 1.405 . S
C2245 H2271 0.931 . S
U2246 O2247 2.454 . S
U2246 O2248 2.458 . S
U2246 C2249 2.984 . S
U2246 C2250 2.847 . S
U2246 C2263 2.882 . S
U2246 O2264 2.441 . S
U2246 O2265 2.420 . S
U2246 O2266 2.455 . S
U2246 O2267 2.449 . S
O2247 U2246 2.454 . S
O2247 C2249 1.353 . S
O2248 U2246 2.458 . S
O2248 C2249 1.286 . S
C2249 U2246 2.984 . S
C2249 O2247 1.353 . S
C2249 O2248 1.286 . S
C2249 C2251 1.363 . S
C2250 C2240 1.465 . S
C2250 U2246 2.847 . S
C2250 O2264 1.249 . S
C2250 O2265 1.202 . S
C2251 C2249 1.363 . S
C2251 C2253 1.408 . S
C2251 C2256 1.342 . S
C2252 C2253 1.310 . S
C2252 C2255 1.461 . S
C2252 H2272 0.932 . S
C2253 C2251 1.408 . S
C2253 C2252 1.310 . S
C2253 H2273 0.930 . S
C2254 C2255 1.474 . S
C2254 C2256 1.285 . S
C2254 H2274 0.929 . S
C2255 C2252 1.461 . S
C2255 C2254 1.474 . S
C2256 C2251 1.342 . S
C2256 C2254 1.285 . S
C2256 H2275 0.930 . S
C2257 C2260 1.424 . S
C2257 C2262 1.245 . S
C2257 C2263 1.428 . S
C2258 C2261 1.260 . S
C2258 C2262 1.477 . S
C2258 H2276 0.932 . S
C2259 C2260 1.384 . S
C2259 C2261 1.479 . S
C2259 H2277 0.929 . S
C2260 C2257 1.424 . S
C2260 C2259 1.384 . S
C2260 H2278 0.928 . S
C2261 C2258 1.260 . S
C2261 C2259 1.479 . S
C2262 C2257 1.245 . S
C2262 C2258 1.477 . S
C2262 H2279 0.932 . S
C2263 U2246 2.882 . S
C2263 C2257 1.428 . S
C2263 O2266 1.301 . S
C2263 O2267 1.282 . S
O2264 U2246 2.441 . S
O2264 C2250 1.249 . S
O2265 U2246 2.420 . S
O2265 C2250 1.202 . S
O2266 U2246 2.455 . S
O2266 C2263 1.301 . S
O2267 U2246 2.449 . S
O2267 C2263 1.282 . S
H2268 C2241 0.931 . S
H2269 C2243 0.929 . S
H2270 C2244 0.930 . S
H2271 C2245 0.931 . S
H2272 C2252 0.932 . S
H2273 C2253 0.930 . S
H2274 C2254 0.929 . S
H2275 C2256 0.930 . S
H2276 C2258 0.932 . S
H2277 C2259 0.929 . S
H2278 C2260 0.928 . S
H2279 C2262 0.932 . S
C2280 C2281 1.264 . S
C2280 C2285 1.479 . S
C2280 C2290 1.465 . S
C2281 C2280 1.264 . S
C2281 C2283 1.339 . S
C2281 H2308 0.931 . S
C2282 C2283 1.395 . S
C2282 C2284 1.320 . S
C2283 C2281 1.339 . S
C2283 C2282 1.395 . S
C2283 H2309 0.929 . S
C2284 C2282 1.320 . S
C2284 C2285 1.405 . S
C2284 H2310 0.930 . S
C2285 C2280 1.479 . S
C2285 C2284 1.405 . S
C2285 H2311 0.931 . S
U2286 O2287 2.454 . S
U2286 O2288 2.458 . S
U2286 C2289 2.984 . S
U2286 C2290 2.847 . S
U2286 C2303 2.882 . S
U2286 O2304 2.441 . S
U2286 O2305 2.420 . S
U2286 O2306 2.455 . S
U2286 O2307 2.449 . S
O2287 U2286 2.454 . S
O2287 C2289 1.353 . S
O2288 U2286 2.458 . S
O2288 C2289 1.286 . S
C2289 U2286 2.984 . S
C2289 O2287 1.353 . S
C2289 O2288 1.286 . S
C2289 C2291 1.363 . S
C2290 C2280 1.465 . S
C2290 U2286 2.847 . S
C2290 O2304 1.249 . S
C2290 O2305 1.202 . S
C2291 C2289 1.363 . S
C2291 C2293 1.408 . S
C2291 C2296 1.342 . S
C2292 C2293 1.310 . S
C2292 C2295 1.461 . S
C2292 H2312 0.932 . S
C2293 C2291 1.408 . S
C2293 C2292 1.310 . S
C2293 H2313 0.930 . S
C2294 C2295 1.474 . S
C2294 C2296 1.285 . S
C2294 H2314 0.929 . S
C2295 C2292 1.461 . S
C2295 C2294 1.474 . S
C2296 C2291 1.342 . S
C2296 C2294 1.285 . S
C2296 H2315 0.930 . S
C2297 C2300 1.424 . S
C2297 C2302 1.245 . S
C2297 C2303 1.428 . S
C2298 C2301 1.260 . S
C2298 C2302 1.477 . S
C2298 H2316 0.932 . S
C2299 C2300 1.384 . S
C2299 C2301 1.479 . S
C2299 H2317 0.929 . S
C2300 C2297 1.424 . S
C2300 C2299 1.384 . S
C2300 H2318 0.928 . S
C2301 C2298 1.260 . S
C2301 C2299 1.479 . S
C2302 C2297 1.245 . S
C2302 C2298 1.477 . S
C2302 H2319 0.932 . S
C2303 U2286 2.882 . S
C2303 C2297 1.428 . S
C2303 O2306 1.301 . S
C2303 O2307 1.282 . S
O2304 U2286 2.441 . S
O2304 C2290 1.249 . S
O2305 U2286 2.420 . S
O2305 C2290 1.202 . S
O2306 U2286 2.455 . S
O2306 C2303 1.301 . S
O2307 U2286 2.449 . S
O2307 C2303 1.282 . S
H2308 C2281 0.931 . S
H2309 C2283 0.929 . S
H2310 C2284 0.930 . S
H2311 C2285 0.931 . S
H2312 C2292 0.932 . S
H2313 C2293 0.930 . S
H2314 C2294 0.929 . S
H2315 C2296 0.930 . S
H2316 C2298 0.932 . S
H2317 C2299 0.929 . S
H2318 C2300 0.928 . S
H2319 C2302 0.932 . S
C2320 C2321 1.264 . S
C2320 C2325 1.479 . S
C2320 C2330 1.465 . S
C2321 C2320 1.264 . S
C2321 C2323 1.339 . S
C2321 H2348 0.931 . S
C2322 C2323 1.395 . S
C2322 C2324 1.320 . S
C2323 C2321 1.339 . S
C2323 C2322 1.395 . S
C2323 H2349 0.929 . S
C2324 C2322 1.320 . S
C2324 C2325 1.405 . S
C2324 H2350 0.930 . S
C2325 C2320 1.479 . S
C2325 C2324 1.405 . S
C2325 H2351 0.931 . S
U2326 O2327 2.454 . S
U2326 O2328 2.458 . S
U2326 C2329 2.984 . S
U2326 C2330 2.847 . S
U2326 C2343 2.882 . S
U2326 O2344 2.441 . S
U2326 O2345 2.420 . S
U2326 O2346 2.455 . S
U2326 O2347 2.449 . S
O2327 U2326 2.454 . S
O2327 C2329 1.353 . S
O2328 U2326 2.458 . S
O2328 C2329 1.286 . S
C2329 U2326 2.984 . S
C2329 O2327 1.353 . S
C2329 O2328 1.286 . S
C2329 C2331 1.363 . S
C2330 C2320 1.465 . S
C2330 U2326 2.847 . S
C2330 O2344 1.249 . S
C2330 O2345 1.202 . S
C2331 C2329 1.363 . S
C2331 C2333 1.408 . S
C2331 C2336 1.342 . S
C2332 C2333 1.310 . S
C2332 C2335 1.461 . S
C2332 H2352 0.932 . S
C2333 C2331 1.408 . S
C2333 C2332 1.310 . S
C2333 H2353 0.930 . S
C2334 C2335 1.474 . S
C2334 C2336 1.285 . S
C2334 H2354 0.929 . S
C2335 C2332 1.461 . S
C2335 C2334 1.474 . S
C2336 C2331 1.342 . S
C2336 C2334 1.285 . S
C2336 H2355 0.930 . S
C2337 C2340 1.424 . S
C2337 C2342 1.245 . S
C2337 C2343 1.428 . S
C2338 C2341 1.260 . S
C2338 C2342 1.477 . S
C2338 H2356 0.932 . S
C2339 C2340 1.384 . S
C2339 C2341 1.479 . S
C2339 H2357 0.929 . S
C2340 C2337 1.424 . S
C2340 C2339 1.384 . S
C2340 H2358 0.928 . S
C2341 C2338 1.260 . S
C2341 C2339 1.479 . S
C2342 C2337 1.245 . S
C2342 C2338 1.477 . S
C2342 H2359 0.932 . S
C2343 U2326 2.882 . S
C2343 C2337 1.428 . S
C2343 O2346 1.301 . S
C2343 O2347 1.282 . S
O2344 U2326 2.441 . S
O2344 C2330 1.249 . S
O2345 U2326 2.420 . S
O2345 C2330 1.202 . S
O2346 U2326 2.455 . S
O2346 C2343 1.301 . S
O2347 U2326 2.449 . S
O2347 C2343 1.282 . S
H2348 C2321 0.931 . S
H2349 C2323 0.929 . S
H2350 C2324 0.930 . S
H2351 C2325 0.931 . S
H2352 C2332 0.932 . S
H2353 C2333 0.930 . S
H2354 C2334 0.929 . S
H2355 C2336 0.930 . S
H2356 C2338 0.932 . S
H2357 C2339 0.929 . S
H2358 C2340 0.928 . S
H2359 C2342 0.932 . S
C2360 C2361 1.264 . S
C2360 C2365 1.479 . S
C2360 C2370 1.465 . S
C2361 C2360 1.264 . S
C2361 C2363 1.339 . S
C2361 H2388 0.931 . S
C2362 C2363 1.395 . S
C2362 C2364 1.320 . S
C2363 C2361 1.339 . S
C2363 C2362 1.395 . S
C2363 H2389 0.929 . S
C2364 C2362 1.320 . S
C2364 C2365 1.405 . S
C2364 H2390 0.930 . S
C2365 C2360 1.479 . S
C2365 C2364 1.405 . S
C2365 H2391 0.931 . S
U2366 O2367 2.454 . S
U2366 O2368 2.458 . S
U2366 C2369 2.984 . S
U2366 C2370 2.847 . S
U2366 C2383 2.882 . S
U2366 O2384 2.441 . S
U2366 O2385 2.420 . S
U2366 O2386 2.455 . S
U2366 O2387 2.449 . S
O2367 U2366 2.454 . S
O2367 C2369 1.353 . S
O2368 U2366 2.458 . S
O2368 C2369 1.286 . S
C2369 U2366 2.984 . S
C2369 O2367 1.353 . S
C2369 O2368 1.286 . S
C2369 C2371 1.363 . S
C2370 C2360 1.465 . S
C2370 U2366 2.847 . S
C2370 O2384 1.249 . S
C2370 O2385 1.202 . S
C2371 C2369 1.363 . S
C2371 C2373 1.408 . S
C2371 C2376 1.342 . S
C2372 C2373 1.310 . S
C2372 C2375 1.461 . S
C2372 H2392 0.932 . S
C2373 C2371 1.408 . S
C2373 C2372 1.310 . S
C2373 H2393 0.930 . S
C2374 C2375 1.474 . S
C2374 C2376 1.285 . S
C2374 H2394 0.929 . S
C2375 C2372 1.461 . S
C2375 C2374 1.474 . S
C2376 C2371 1.342 . S
C2376 C2374 1.285 . S
C2376 H2395 0.930 . S
C2377 C2380 1.424 . S
C2377 C2382 1.245 . S
C2377 C2383 1.428 . S
C2378 C2381 1.260 . S
C2378 C2382 1.477 . S
C2378 H2396 0.932 . S
C2379 C2380 1.384 . S
C2379 C2381 1.479 . S
C2379 H2397 0.929 . S
C2380 C2377 1.424 . S
C2380 C2379 1.384 . S
C2380 H2398 0.928 . S
C2381 C2378 1.260 . S
C2381 C2379 1.479 . S
C2382 C2377 1.245 . S
C2382 C2378 1.477 . S
C2382 H2399 0.932 . S
C2383 U2366 2.882 . S
C2383 C2377 1.428 . S
C2383 O2386 1.301 . S
C2383 O2387 1.282 . S
O2384 U2366 2.441 . S
O2384 C2370 1.249 . S
O2385 U2366 2.420 . S
O2385 C2370 1.202 . S
O2386 U2366 2.455 . S
O2386 C2383 1.301 . S
O2387 U2366 2.449 . S
O2387 C2383 1.282 . S
H2388 C2361 0.931 . S
H2389 C2363 0.929 . S
H2390 C2364 0.930 . S
H2391 C2365 0.931 . S
H2392 C2372 0.932 . S
H2393 C2373 0.930 . S
H2394 C2374 0.929 . S
H2395 C2376 0.930 . S
H2396 C2378 0.932 . S
H2397 C2379 0.929 . S
H2398 C2380 0.928 . S
H2399 C2382 0.932 . S
C2400 C2401 1.264 . S
C2400 C2405 1.479 . S
C2400 C2410 1.465 . S
C2401 C2400 1.264 . S
C2401 C2403 1.339 . S
C2401 H2428 0.931 . S
C2402 C2403 1.395 . S
C2402 C2404 1.320 . S
C2403 C2401 1.339 . S
C2403 C2402 1.395 . S
C2403 H2429 0.929 . S
C2404 C2402 1.320 . S
C2404 C2405 1.405 . S
C2404 H2430 0.930 . S
C2405 C2400 1.479 . S
C2405 C2404 1.405 . S
C2405 H2431 0.931 . S
U2406 O2407 2.454 . S
U2406 O2408 2.458 . S
U2406 C2409 2.984 . S
U2406 C2410 2.847 . S
U2406 C2423 2.882 . S
U2406 O2424 2.441 . S
U2406 O2425 2.420 . S
U2406 O2426 2.455 . S
U2406 O2427 2.449 . S
O2407 U2406 2.454 . S
O2407 C2409 1.353 . S
O2408 U2406 2.458 . S
O2408 C2409 1.286 . S
C2409 U2406 2.984 . S
C2409 O2407 1.353 . S
C2409 O2408 1.286 . S
C2409 C2411 1.363 . S
C2410 C2400 1.465 . S
C2410 U2406 2.847 . S
C2410 O2424 1.249 . S
C2410 O2425 1.202 . S
C2411 C2409 1.363 . S
C2411 C2413 1.408 . S
C2411 C2416 1.342 . S
C2412 C2413 1.310 . S
C2412 C2415 1.461 . S
C2412 H2432 0.932 . S
C2413 C2411 1.408 . S
C2413 C2412 1.310 . S
C2413 H2433 0.930 . S
C2414 C2415 1.474 . S
C2414 C2416 1.285 . S
C2414 H2434 0.929 . S
C2415 C2412 1.461 . S
C2415 C2414 1.474 . S
C2416 C2411 1.342 . S
C2416 C2414 1.285 . S
C2416 H2435 0.930 . S
C2417 C2420 1.424 . S
C2417 C2422 1.245 . S
C2417 C2423 1.428 . S
C2418 C2421 1.260 . S
C2418 C2422 1.477 . S
C2418 H2436 0.932 . S
C2419 C2420 1.384 . S
C2419 C2421 1.479 . S
C2419 H2437 0.929 . S
C2420 C2417 1.424 . S
C2420 C2419 1.384 . S
C2420 H2438 0.928 . S
C2421 C2418 1.260 . S
C2421 C2419 1.479 . S
C2422 C2417 1.245 . S
C2422 C2418 1.477 . S
C2422 H2439 0.932 . S
C2423 U2406 2.882 . S
C2423 C2417 1.428 . S
C2423 O2426 1.301 . S
C2423 O2427 1.282 . S
O2424 U2406 2.441 . S
O2424 C2410 1.249 . S
O2425 U2406 2.420 . S
O2425 C2410 1.202 . S
O2426 U2406 2.455 . S
O2426 C2423 1.301 . S
O2427 U2406 2.449 . S
O2427 C2423 1.282 . S
H2428 C2401 0.931 . S
H2429 C2403 0.929 . S
H2430 C2404 0.930 . S
H2431 C2405 0.931 . S
H2432 C2412 0.932 . S
H2433 C2413 0.930 . S
H2434 C2414 0.929 . S
H2435 C2416 0.930 . S
H2436 C2418 0.932 . S
H2437 C2419 0.929 . S
H2438 C2420 0.928 . S
H2439 C2422 0.932 . S
C2440 C2441 1.264 . S
C2440 C2445 1.479 . S
C2440 C2450 1.465 . S
C2441 C2440 1.264 . S
C2441 C2443 1.339 . S
C2441 H2468 0.931 . S
C2442 C2443 1.395 . S
C2442 C2444 1.320 . S
C2443 C2441 1.339 . S
C2443 C2442 1.395 . S
C2443 H2469 0.929 . S
C2444 C2442 1.320 . S
C2444 C2445 1.405 . S
C2444 H2470 0.930 . S
C2445 C2440 1.479 . S
C2445 C2444 1.405 . S
C2445 H2471 0.931 . S
U2446 O2447 2.454 . S
U2446 O2448 2.458 . S
U2446 C2449 2.984 . S
U2446 C2450 2.847 . S
U2446 C2463 2.882 . S
U2446 O2464 2.441 . S
U2446 O2465 2.420 . S
U2446 O2466 2.455 . S
U2446 O2467 2.449 . S
O2447 U2446 2.454 . S
O2447 C2449 1.353 . S
O2448 U2446 2.458 . S
O2448 C2449 1.286 . S
C2449 U2446 2.984 . S
C2449 O2447 1.353 . S
C2449 O2448 1.286 . S
C2449 C2451 1.363 . S
C2450 C2440 1.465 . S
C2450 U2446 2.847 . S
C2450 O2464 1.249 . S
C2450 O2465 1.202 . S
C2451 C2449 1.363 . S
C2451 C2453 1.408 . S
C2451 C2456 1.342 . S
C2452 C2453 1.310 . S
C2452 C2455 1.461 . S
C2452 H2472 0.932 . S
C2453 C2451 1.408 . S
C2453 C2452 1.310 . S
C2453 H2473 0.930 . S
C2454 C2455 1.474 . S
C2454 C2456 1.285 . S
C2454 H2474 0.929 . S
C2455 C2452 1.461 . S
C2455 C2454 1.474 . S
C2456 C2451 1.342 . S
C2456 C2454 1.285 . S
C2456 H2475 0.930 . S
C2457 C2460 1.424 . S
C2457 C2462 1.245 . S
C2457 C2463 1.428 . S
C2458 C2461 1.260 . S
C2458 C2462 1.477 . S
C2458 H2476 0.932 . S
C2459 C2460 1.384 . S
C2459 C2461 1.479 . S
C2459 H2477 0.929 . S
C2460 C2457 1.424 . S
C2460 C2459 1.384 . S
C2460 H2478 0.928 . S
C2461 C2458 1.260 . S
C2461 C2459 1.479 . S
C2462 C2457 1.245 . S
C2462 C2458 1.477 . S
C2462 H2479 0.932 . S
C2463 U2446 2.882 . S
C2463 C2457 1.428 . S
C2463 O2466 1.301 . S
C2463 O2467 1.282 . S
O2464 U2446 2.441 . S
O2464 C2450 1.249 . S
O2465 U2446 2.420 . S
O2465 C2450 1.202 . S
O2466 U2446 2.455 . S
O2466 C2463 1.301 . S
O2467 U2446 2.449 . S
O2467 C2463 1.282 . S
H2468 C2441 0.931 . S
H2469 C2443 0.929 . S
H2470 C2444 0.930 . S
H2471 C2445 0.931 . S
H2472 C2452 0.932 . S
H2473 C2453 0.930 . S
H2474 C2454 0.929 . S
H2475 C2456 0.930 . S
H2476 C2458 0.932 . S
H2477 C2459 0.929 . S
H2478 C2460 0.928 . S
H2479 C2462 0.932 . S
C2480 C2481 1.264 . S
C2480 C2485 1.479 . S
C2480 C2490 1.465 . S
C2481 C2480 1.264 . S
C2481 C2483 1.339 . S
C2481 H2508 0.931 . S
C2482 C2483 1.395 . S
C2482 C2484 1.320 . S
C2483 C2481 1.339 . S
C2483 C2482 1.395 . S
C2483 H2509 0.929 . S
C2484 C2482 1.320 . S
C2484 C2485 1.405 . S
C2484 H2510 0.930 . S
C2485 C2480 1.479 . S
C2485 C2484 1.405 . S
C2485 H2511 0.931 . S
U2486 O2487 2.454 . S
U2486 O2488 2.458 . S
U2486 C2489 2.984 . S
U2486 C2490 2.847 . S
U2486 C2503 2.882 . S
U2486 O2504 2.441 . S
U2486 O2505 2.420 . S
U2486 O2506 2.455 . S
U2486 O2507 2.449 . S
O2487 U2486 2.454 . S
O2487 C2489 1.353 . S
O2488 U2486 2.458 . S
O2488 C2489 1.286 . S
C2489 U2486 2.984 . S
C2489 O2487 1.353 . S
C2489 O2488 1.286 . S
C2489 C2491 1.363 . S
C2490 C2480 1.465 . S
C2490 U2486 2.847 . S
C2490 O2504 1.249 . S
C2490 O2505 1.202 . S
C2491 C2489 1.363 . S
C2491 C2493 1.408 . S
C2491 C2496 1.342 . S
C2492 C2493 1.310 . S
C2492 C2495 1.461 . S
C2492 H2512 0.932 . S
C2493 C2491 1.408 . S
C2493 C2492 1.310 . S
C2493 H2513 0.930 . S
C2494 C2495 1.474 . S
C2494 C2496 1.285 . S
C2494 H2514 0.929 . S
C2495 C2492 1.461 . S
C2495 C2494 1.474 . S
C2496 C2491 1.342 . S
C2496 C2494 1.285 . S
C2496 H2515 0.930 . S
C2497 C2500 1.424 . S
C2497 C2502 1.245 . S
C2497 C2503 1.428 . S
C2498 C2501 1.260 . S
C2498 C2502 1.477 . S
C2498 H2516 0.932 . S
C2499 C2500 1.384 . S
C2499 C2501 1.479 . S
C2499 H2517 0.929 . S
C2500 C2497 1.424 . S
C2500 C2499 1.384 . S
C2500 H2518 0.928 . S
C2501 C2498 1.260 . S
C2501 C2499 1.479 . S
C2502 C2497 1.245 . S
C2502 C2498 1.477 . S
C2502 H2519 0.932 . S
C2503 U2486 2.882 . S
C2503 C2497 1.428 . S
C2503 O2506 1.301 . S
C2503 O2507 1.282 . S
O2504 U2486 2.441 . S
O2504 C2490 1.249 . S
O2505 U2486 2.420 . S
O2505 C2490 1.202 . S
O2506 U2486 2.455 . S
O2506 C2503 1.301 . S
O2507 U2486 2.449 . S
O2507 C2503 1.282 . S
H2508 C2481 0.931 . S
H2509 C2483 0.929 . S
H2510 C2484 0.930 . S
H2511 C2485 0.931 . S
H2512 C2492 0.932 . S
H2513 C2493 0.930 . S
H2514 C2494 0.929 . S
H2515 C2496 0.930 . S
H2516 C2498 0.932 . S
H2517 C2499 0.929 . S
H2518 C2500 0.928 . S
H2519 C2502 0.932 . S
C2520 C2521 1.264 . S
C2520 C2525 1.479 . S
C2520 C2530 1.465 . S
C2521 C2520 1.264 . S
C2521 C2523 1.339 . S
C2521 H2548 0.931 . S
C2522 C2523 1.395 . S
C2522 C2524 1.320 . S
C2523 C2521 1.339 . S
C2523 C2522 1.395 . S
C2523 H2549 0.929 . S
C2524 C2522 1.320 . S
C2524 C2525 1.405 . S
C2524 H2550 0.930 . S
C2525 C2520 1.479 . S
C2525 C2524 1.405 . S
C2525 H2551 0.931 . S
U2526 O2527 2.454 . S
U2526 O2528 2.458 . S
U2526 C2529 2.984 . S
U2526 C2530 2.847 . S
U2526 C2543 2.882 . S
U2526 O2544 2.441 . S
U2526 O2545 2.420 . S
U2526 O2546 2.455 . S
U2526 O2547 2.449 . S
O2527 U2526 2.454 . S
O2527 C2529 1.353 . S
O2528 U2526 2.458 . S
O2528 C2529 1.286 . S
C2529 U2526 2.984 . S
C2529 O2527 1.353 . S
C2529 O2528 1.286 . S
C2529 C2531 1.363 . S
C2530 C2520 1.465 . S
C2530 U2526 2.847 . S
C2530 O2544 1.249 . S
C2530 O2545 1.202 . S
C2531 C2529 1.363 . S
C2531 C2533 1.408 . S
C2531 C2536 1.342 . S
C2532 C2533 1.310 . S
C2532 C2535 1.461 . S
C2532 H2552 0.932 . S
C2533 C2531 1.408 . S
C2533 C2532 1.310 . S
C2533 H2553 0.930 . S
C2534 C2535 1.474 . S
C2534 C2536 1.285 . S
C2534 H2554 0.929 . S
C2535 C2532 1.461 . S
C2535 C2534 1.474 . S
C2536 C2531 1.342 . S
C2536 C2534 1.285 . S
C2536 H2555 0.930 . S
C2537 C2540 1.424 . S
C2537 C2542 1.245 . S
C2537 C2543 1.428 . S
C2538 C2541 1.260 . S
C2538 C2542 1.477 . S
C2538 H2556 0.932 . S
C2539 C2540 1.384 . S
C2539 C2541 1.479 . S
C2539 H2557 0.929 . S
C2540 C2537 1.424 . S
C2540 C2539 1.384 . S
C2540 H2558 0.928 . S
C2541 C2538 1.260 . S
C2541 C2539 1.479 . S
C2542 C2537 1.245 . S
C2542 C2538 1.477 . S
C2542 H2559 0.932 . S
C2543 U2526 2.882 . S
C2543 C2537 1.428 . S
C2543 O2546 1.301 . S
C2543 O2547 1.282 . S
O2544 U2526 2.441 . S
O2544 C2530 1.249 . S
O2545 U2526 2.420 . S
O2545 C2530 1.202 . S
O2546 U2526 2.455 . S
O2546 C2543 1.301 . S
O2547 U2526 2.449 . S
O2547 C2543 1.282 . S
H2548 C2521 0.931 . S
H2549 C2523 0.929 . S
H2550 C2524 0.930 . S
H2551 C2525 0.931 . S
H2552 C2532 0.932 . S
H2553 C2533 0.930 . S
H2554 C2534 0.929 . S
H2555 C2536 0.930 . S
H2556 C2538 0.932 . S
H2557 C2539 0.929 . S
H2558 C2540 0.928 . S
H2559 C2542 0.932 . S
C2560 C2561 1.264 . S
C2560 C2565 1.479 . S
C2560 C2570 1.465 . S
C2561 C2560 1.264 . S
C2561 C2563 1.339 . S
C2561 H2588 0.931 . S
C2562 C2563 1.395 . S
C2562 C2564 1.320 . S
C2563 C2561 1.339 . S
C2563 C2562 1.395 . S
C2563 H2589 0.929 . S
C2564 C2562 1.320 . S
C2564 C2565 1.405 . S
C2564 H2590 0.930 . S
C2565 C2560 1.479 . S
C2565 C2564 1.405 . S
C2565 H2591 0.931 . S
U2566 O2567 2.454 . S
U2566 O2568 2.458 . S
U2566 C2569 2.984 . S
U2566 C2570 2.847 . S
U2566 C2583 2.882 . S
U2566 O2584 2.441 . S
U2566 O2585 2.420 . S
U2566 O2586 2.455 . S
U2566 O2587 2.449 . S
O2567 U2566 2.454 . S
O2567 C2569 1.353 . S
O2568 U2566 2.458 . S
O2568 C2569 1.286 . S
C2569 U2566 2.984 . S
C2569 O2567 1.353 . S
C2569 O2568 1.286 . S
C2569 C2571 1.363 . S
C2570 C2560 1.465 . S
C2570 U2566 2.847 . S
C2570 O2584 1.249 . S
C2570 O2585 1.202 . S
C2571 C2569 1.363 . S
C2571 C2573 1.408 . S
C2571 C2576 1.342 . S
C2572 C2573 1.310 . S
C2572 C2575 1.461 . S
C2572 H2592 0.932 . S
C2573 C2571 1.408 . S
C2573 C2572 1.310 . S
C2573 H2593 0.930 . S
C2574 C2575 1.474 . S
C2574 C2576 1.285 . S
C2574 H2594 0.929 . S
C2575 C2572 1.461 . S
C2575 C2574 1.474 . S
C2576 C2571 1.342 . S
C2576 C2574 1.285 . S
C2576 H2595 0.930 . S
C2577 C2580 1.424 . S
C2577 C2582 1.245 . S
C2577 C2583 1.428 . S
C2578 C2581 1.260 . S
C2578 C2582 1.477 . S
C2578 H2596 0.932 . S
C2579 C2580 1.384 . S
C2579 C2581 1.479 . S
C2579 H2597 0.929 . S
C2580 C2577 1.424 . S
C2580 C2579 1.384 . S
C2580 H2598 0.928 . S
C2581 C2578 1.260 . S
C2581 C2579 1.479 . S
C2582 C2577 1.245 . S
C2582 C2578 1.477 . S
C2582 H2599 0.932 . S
C2583 U2566 2.882 . S
C2583 C2577 1.428 . S
C2583 O2586 1.301 . S
C2583 O2587 1.282 . S
O2584 U2566 2.441 . S
O2584 C2570 1.249 . S
O2585 U2566 2.420 . S
O2585 C2570 1.202 . S
O2586 U2566 2.455 . S
O2586 C2583 1.301 . S
O2587 U2566 2.449 . S
O2587 C2583 1.282 . S
H2588 C2561 0.931 . S
H2589 C2563 0.929 . S
H2590 C2564 0.930 . S
H2591 C2565 0.931 . S
H2592 C2572 0.932 . S
H2593 C2573 0.930 . S
H2594 C2574 0.929 . S
H2595 C2576 0.930 . S
H2596 C2578 0.932 . S
H2597 C2579 0.929 . S
H2598 C2580 0.928 . S
H2599 C2582 0.932 . S
C2600 C2601 1.264 . S
C2600 C2605 1.479 . S
C2600 C2610 1.465 . S
C2601 C2600 1.264 . S
C2601 C2603 1.339 . S
C2601 H2628 0.931 . S
C2602 C2603 1.395 . S
C2602 C2604 1.320 . S
C2603 C2601 1.339 . S
C2603 C2602 1.395 . S
C2603 H2629 0.929 . S
C2604 C2602 1.320 . S
C2604 C2605 1.405 . S
C2604 H2630 0.930 . S
C2605 C2600 1.479 . S
C2605 C2604 1.405 . S
C2605 H2631 0.931 . S
U2606 O2607 2.454 . S
U2606 O2608 2.458 . S
U2606 C2609 2.984 . S
U2606 C2610 2.847 . S
U2606 C2623 2.882 . S
U2606 O2624 2.441 . S
U2606 O2625 2.420 . S
U2606 O2626 2.455 . S
U2606 O2627 2.449 . S
O2607 U2606 2.454 . S
O2607 C2609 1.353 . S
O2608 U2606 2.458 . S
O2608 C2609 1.286 . S
C2609 U2606 2.984 . S
C2609 O2607 1.353 . S
C2609 O2608 1.286 . S
C2609 C2611 1.363 . S
C2610 C2600 1.465 . S
C2610 U2606 2.847 . S
C2610 O2624 1.249 . S
C2610 O2625 1.202 . S
C2611 C2609 1.363 . S
C2611 C2613 1.408 . S
C2611 C2616 1.342 . S
C2612 C2613 1.310 . S
C2612 C2615 1.461 . S
C2612 H2632 0.932 . S
C2613 C2611 1.408 . S
C2613 C2612 1.310 . S
C2613 H2633 0.930 . S
C2614 C2615 1.474 . S
C2614 C2616 1.285 . S
C2614 H2634 0.929 . S
C2615 C2612 1.461 . S
C2615 C2614 1.474 . S
C2616 C2611 1.342 . S
C2616 C2614 1.285 . S
C2616 H2635 0.930 . S
C2617 C2620 1.424 . S
C2617 C2622 1.245 . S
C2617 C2623 1.428 . S
C2618 C2621 1.260 . S
C2618 C2622 1.477 . S
C2618 H2636 0.932 . S
C2619 C2620 1.384 . S
C2619 C2621 1.479 . S
C2619 H2637 0.929 . S
C2620 C2617 1.424 . S
C2620 C2619 1.384 . S
C2620 H2638 0.928 . S
C2621 C2618 1.260 . S
C2621 C2619 1.479 . S
C2622 C2617 1.245 . S
C2622 C2618 1.477 . S
C2622 H2639 0.932 . S
C2623 U2606 2.882 . S
C2623 C2617 1.428 . S
C2623 O2626 1.301 . S
C2623 O2627 1.282 . S
O2624 U2606 2.441 . S
O2624 C2610 1.249 . S
O2625 U2606 2.420 . S
O2625 C2610 1.202 . S
O2626 U2606 2.455 . S
O2626 C2623 1.301 . S
O2627 U2606 2.449 . S
O2627 C2623 1.282 . S
H2628 C2601 0.931 . S
H2629 C2603 0.929 . S
H2630 C2604 0.930 . S
H2631 C2605 0.931 . S
H2632 C2612 0.932 . S
H2633 C2613 0.930 . S
H2634 C2614 0.929 . S
H2635 C2616 0.930 . S
H2636 C2618 0.932 . S
H2637 C2619 0.929 . S
H2638 C2620 0.928 . S
H2639 C2622 0.932 . S
C2640 C2641 1.264 . S
C2640 C2645 1.479 . S
C2640 C2650 1.465 . S
C2641 C2640 1.264 . S
C2641 C2643 1.339 . S
C2641 H2668 0.931 . S
C2642 C2643 1.395 . S
C2642 C2644 1.320 . S
C2643 C2641 1.339 . S
C2643 C2642 1.395 . S
C2643 H2669 0.929 . S
C2644 C2642 1.320 . S
C2644 C2645 1.405 . S
C2644 H2670 0.930 . S
C2645 C2640 1.479 . S
C2645 C2644 1.405 . S
C2645 H2671 0.931 . S
U2646 O2647 2.454 . S
U2646 O2648 2.458 . S
U2646 C2649 2.984 . S
U2646 C2650 2.847 . S
U2646 C2663 2.882 . S
U2646 O2664 2.441 . S
U2646 O2665 2.420 . S
U2646 O2666 2.455 . S
U2646 O2667 2.449 . S
O2647 U2646 2.454 . S
O2647 C2649 1.353 . S
O2648 U2646 2.458 . S
O2648 C2649 1.286 . S
C2649 U2646 2.984 . S
C2649 O2647 1.353 . S
C2649 O2648 1.286 . S
C2649 C2651 1.363 . S
C2650 C2640 1.465 . S
C2650 U2646 2.847 . S
C2650 O2664 1.249 . S
C2650 O2665 1.202 . S
C2651 C2649 1.363 . S
C2651 C2653 1.408 . S
C2651 C2656 1.342 . S
C2652 C2653 1.310 . S
C2652 C2655 1.461 . S
C2652 H2672 0.932 . S
C2653 C2651 1.408 . S
C2653 C2652 1.310 . S
C2653 H2673 0.930 . S
C2654 C2655 1.474 . S
C2654 C2656 1.285 . S
C2654 H2674 0.929 . S
C2655 C2652 1.461 . S
C2655 C2654 1.474 . S
C2656 C2651 1.342 . S
C2656 C2654 1.285 . S
C2656 H2675 0.930 . S
C2657 C2660 1.424 . S
C2657 C2662 1.245 . S
C2657 C2663 1.428 . S
C2658 C2661 1.260 . S
C2658 C2662 1.477 . S
C2658 H2676 0.932 . S
C2659 C2660 1.384 . S
C2659 C2661 1.479 . S
C2659 H2677 0.929 . S
C2660 C2657 1.424 . S
C2660 C2659 1.384 . S
C2660 H2678 0.928 . S
C2661 C2658 1.260 . S
C2661 C2659 1.479 . S
C2662 C2657 1.245 . S
C2662 C2658 1.477 . S
C2662 H2679 0.932 . S
C2663 U2646 2.882 . S
C2663 C2657 1.428 . S
C2663 O2666 1.301 . S
C2663 O2667 1.282 . S
O2664 U2646 2.441 . S
O2664 C2650 1.249 . S
O2665 U2646 2.420 . S
O2665 C2650 1.202 . S
O2666 U2646 2.455 . S
O2666 C2663 1.301 . S
O2667 U2646 2.449 . S
O2667 C2663 1.282 . S
H2668 C2641 0.931 . S
H2669 C2643 0.929 . S
H2670 C2644 0.930 . S
H2671 C2645 0.931 . S
H2672 C2652 0.932 . S
H2673 C2653 0.930 . S
H2674 C2654 0.929 . S
H2675 C2656 0.930 . S
H2676 C2658 0.932 . S
H2677 C2659 0.929 . S
H2678 C2660 0.928 . S
H2679 C2662 0.932 . S
C2680 C2681 1.264 . S
C2680 C2685 1.479 . S
C2680 C2690 1.465 . S
C2681 C2680 1.264 . S
C2681 C2683 1.339 . S
C2681 H2708 0.931 . S
C2682 C2683 1.395 . S
C2682 C2684 1.320 . S
C2683 C2681 1.339 . S
C2683 C2682 1.395 . S
C2683 H2709 0.929 . S
C2684 C2682 1.320 . S
C2684 C2685 1.405 . S
C2684 H2710 0.930 . S
C2685 C2680 1.479 . S
C2685 C2684 1.405 . S
C2685 H2711 0.931 . S
U2686 O2687 2.454 . S
U2686 O2688 2.458 . S
U2686 C2689 2.984 . S
U2686 C2690 2.847 . S
U2686 C2703 2.882 . S
U2686 O2704 2.441 . S
U2686 O2705 2.420 . S
U2686 O2706 2.455 . S
U2686 O2707 2.449 . S
O2687 U2686 2.454 . S
O2687 C2689 1.353 . S
O2688 U2686 2.458 . S
O2688 C2689 1.286 . S
C2689 U2686 2.984 . S
C2689 O2687 1.353 . S
C2689 O2688 1.286 . S
C2689 C2691 1.363 . S
C2690 C2680 1.465 . S
C2690 U2686 2.847 . S
C2690 O2704 1.249 . S
C2690 O2705 1.202 . S
C2691 C2689 1.363 . S
C2691 C2693 1.408 . S
C2691 C2696 1.342 . S
C2692 C2693 1.310 . S
C2692 C2695 1.461 . S
C2692 H2712 0.932 . S
C2693 C2691 1.408 . S
C2693 C2692 1.310 . S
C2693 H2713 0.930 . S
C2694 C2695 1.474 . S
C2694 C2696 1.285 . S
C2694 H2714 0.929 . S
C2695 C2692 1.461 . S
C2695 C2694 1.474 . S
C2696 C2691 1.342 . S
C2696 C2694 1.285 . S
C2696 H2715 0.930 . S
C2697 C2700 1.424 . S
C2697 C2702 1.245 . S
C2697 C2703 1.428 . S
C2698 C2701 1.260 . S
C2698 C2702 1.477 . S
C2698 H2716 0.932 . S
C2699 C2700 1.384 . S
C2699 C2701 1.479 . S
C2699 H2717 0.929 . S
C2700 C2697 1.424 . S
C2700 C2699 1.384 . S
C2700 H2718 0.928 . S
C2701 C2698 1.260 . S
C2701 C2699 1.479 . S
C2702 C2697 1.245 . S
C2702 C2698 1.477 . S
C2702 H2719 0.932 . S
C2703 U2686 2.882 . S
C2703 C2697 1.428 . S
C2703 O2706 1.301 . S
C2703 O2707 1.282 . S
O2704 U2686 2.441 . S
O2704 C2690 1.249 . S
O2705 U2686 2.420 . S
O2705 C2690 1.202 . S
O2706 U2686 2.455 . S
O2706 C2703 1.301 . S
O2707 U2686 2.449 . S
O2707 C2703 1.282 . S
H2708 C2681 0.931 . S
H2709 C2683 0.929 . S
H2710 C2684 0.930 . S
H2711 C2685 0.931 . S
H2712 C2692 0.932 . S
H2713 C2693 0.930 . S
H2714 C2694 0.929 . S
H2715 C2696 0.930 . S
H2716 C2698 0.932 . S
H2717 C2699 0.929 . S
H2718 C2700 0.928 . S
H2719 C2702 0.932 . S
C2720 C2721 1.264 . S
C2720 C2725 1.479 . S
C2720 C2730 1.465 . S
C2721 C2720 1.264 . S
C2721 C2723 1.339 . S
C2721 H2748 0.931 . S
C2722 C2723 1.395 . S
C2722 C2724 1.320 . S
C2723 C2721 1.339 . S
C2723 C2722 1.395 . S
C2723 H2749 0.929 . S
C2724 C2722 1.320 . S
C2724 C2725 1.405 . S
C2724 H2750 0.930 . S
C2725 C2720 1.479 . S
C2725 C2724 1.405 . S
C2725 H2751 0.931 . S
U2726 O2727 2.454 . S
U2726 O2728 2.458 . S
U2726 C2729 2.984 . S
U2726 C2730 2.847 . S
U2726 C2743 2.882 . S
U2726 O2744 2.441 . S
U2726 O2745 2.420 . S
U2726 O2746 2.455 . S
U2726 O2747 2.449 . S
O2727 U2726 2.454 . S
O2727 C2729 1.353 . S
O2728 U2726 2.458 . S
O2728 C2729 1.286 . S
C2729 U2726 2.984 . S
C2729 O2727 1.353 . S
C2729 O2728 1.286 . S
C2729 C2731 1.363 . S
C2730 C2720 1.465 . S
C2730 U2726 2.847 . S
C2730 O2744 1.249 . S
C2730 O2745 1.202 . S
C2731 C2729 1.363 . S
C2731 C2733 1.408 . S
C2731 C2736 1.342 . S
C2732 C2733 1.310 . S
C2732 C2735 1.461 . S
C2732 H2752 0.932 . S
C2733 C2731 1.408 . S
C2733 C2732 1.310 . S
C2733 H2753 0.930 . S
C2734 C2735 1.474 . S
C2734 C2736 1.285 . S
C2734 H2754 0.929 . S
C2735 C2732 1.461 . S
C2735 C2734 1.474 . S
C2736 C2731 1.342 . S
C2736 C2734 1.285 . S
C2736 H2755 0.930 . S
C2737 C2740 1.424 . S
C2737 C2742 1.245 . S
C2737 C2743 1.428 . S
C2738 C2741 1.260 . S
C2738 C2742 1.477 . S
C2738 H2756 0.932 . S
C2739 C2740 1.384 . S
C2739 C2741 1.479 . S
C2739 H2757 0.929 . S
C2740 C2737 1.424 . S
C2740 C2739 1.384 . S
C2740 H2758 0.928 . S
C2741 C2738 1.260 . S
C2741 C2739 1.479 . S
C2742 C2737 1.245 . S
C2742 C2738 1.477 . S
C2742 H2759 0.932 . S
C2743 U2726 2.882 . S
C2743 C2737 1.428 . S
C2743 O2746 1.301 . S
C2743 O2747 1.282 . S
O2744 U2726 2.441 . S
O2744 C2730 1.249 . S
O2745 U2726 2.420 . S
O2745 C2730 1.202 . S
O2746 U2726 2.455 . S
O2746 C2743 1.301 . S
O2747 U2726 2.449 . S
O2747 C2743 1.282 . S
H2748 C2721 0.931 . S
H2749 C2723 0.929 . S
H2750 C2724 0.930 . S
H2751 C2725 0.931 . S
H2752 C2732 0.932 . S
H2753 C2733 0.930 . S
H2754 C2734 0.929 . S
H2755 C2736 0.930 . S
H2756 C2738 0.932 . S
H2757 C2739 0.929 . S
H2758 C2740 0.928 . S
H2759 C2742 0.932 . S
C2760 C2761 1.264 . S
C2760 C2765 1.479 . S
C2760 C2770 1.465 . S
C2761 C2760 1.264 . S
C2761 C2763 1.339 . S
C2761 H2788 0.931 . S
C2762 C2763 1.395 . S
C2762 C2764 1.320 . S
C2763 C2761 1.339 . S
C2763 C2762 1.395 . S
C2763 H2789 0.929 . S
C2764 C2762 1.320 . S
C2764 C2765 1.405 . S
C2764 H2790 0.930 . S
C2765 C2760 1.479 . S
C2765 C2764 1.405 . S
C2765 H2791 0.931 . S
U2766 O2767 2.454 . S
U2766 O2768 2.458 . S
U2766 C2769 2.984 . S
U2766 C2770 2.847 . S
U2766 C2783 2.882 . S
U2766 O2784 2.441 . S
U2766 O2785 2.420 . S
U2766 O2786 2.455 . S
U2766 O2787 2.449 . S
O2767 U2766 2.454 . S
O2767 C2769 1.353 . S
O2768 U2766 2.458 . S
O2768 C2769 1.286 . S
C2769 U2766 2.984 . S
C2769 O2767 1.353 . S
C2769 O2768 1.286 . S
C2769 C2771 1.363 . S
C2770 C2760 1.465 . S
C2770 U2766 2.847 . S
C2770 O2784 1.249 . S
C2770 O2785 1.202 . S
C2771 C2769 1.363 . S
C2771 C2773 1.408 . S
C2771 C2776 1.342 . S
C2772 C2773 1.310 . S
C2772 C2775 1.461 . S
C2772 H2792 0.932 . S
C2773 C2771 1.408 . S
C2773 C2772 1.310 . S
C2773 H2793 0.930 . S
C2774 C2775 1.474 . S
C2774 C2776 1.285 . S
C2774 H2794 0.929 . S
C2775 C2772 1.461 . S
C2775 C2774 1.474 . S
C2776 C2771 1.342 . S
C2776 C2774 1.285 . S
C2776 H2795 0.930 . S
C2777 C2780 1.424 . S
C2777 C2782 1.245 . S
C2777 C2783 1.428 . S
C2778 C2781 1.260 . S
C2778 C2782 1.477 . S
C2778 H2796 0.932 . S
C2779 C2780 1.384 . S
C2779 C2781 1.479 . S
C2779 H2797 0.929 . S
C2780 C2777 1.424 . S
C2780 C2779 1.384 . S
C2780 H2798 0.928 . S
C2781 C2778 1.260 . S
C2781 C2779 1.479 . S
C2782 C2777 1.245 . S
C2782 C2778 1.477 . S
C2782 H2799 0.932 . S
C2783 U2766 2.882 . S
C2783 C2777 1.428 . S
C2783 O2786 1.301 . S
C2783 O2787 1.282 . S
O2784 U2766 2.441 . S
O2784 C2770 1.249 . S
O2785 U2766 2.420 . S
O2785 C2770 1.202 . S
O2786 U2766 2.455 . S
O2786 C2783 1.301 . S
O2787 U2766 2.449 . S
O2787 C2783 1.282 . S
H2788 C2761 0.931 . S
H2789 C2763 0.929 . S
H2790 C2764 0.930 . S
H2791 C2765 0.931 . S
H2792 C2772 0.932 . S
H2793 C2773 0.930 . S
H2794 C2774 0.929 . S
H2795 C2776 0.930 . S
H2796 C2778 0.932 . S
H2797 C2779 0.929 . S
H2798 C2780 0.928 . S
H2799 C2782 0.932 . S
C2800 C2801 1.264 . S
C2800 C2805 1.479 . S
C2800 C2810 1.465 . S
C2801 C2800 1.264 . S
C2801 C2803 1.339 . S
C2801 H2828 0.931 . S
C2802 C2803 1.395 . S
C2802 C2804 1.320 . S
C2803 C2801 1.339 . S
C2803 C2802 1.395 . S
C2803 H2829 0.929 . S
C2804 C2802 1.320 . S
C2804 C2805 1.405 . S
C2804 H2830 0.930 . S
C2805 C2800 1.479 . S
C2805 C2804 1.405 . S
C2805 H2831 0.931 . S
U2806 O2807 2.454 . S
U2806 O2808 2.458 . S
U2806 C2809 2.984 . S
U2806 C2810 2.847 . S
U2806 C2823 2.882 . S
U2806 O2824 2.441 . S
U2806 O2825 2.420 . S
U2806 O2826 2.455 . S
U2806 O2827 2.449 . S
O2807 U2806 2.454 . S
O2807 C2809 1.353 . S
O2808 U2806 2.458 . S
O2808 C2809 1.286 . S
C2809 U2806 2.984 . S
C2809 O2807 1.353 . S
C2809 O2808 1.286 . S
C2809 C2811 1.363 . S
C2810 C2800 1.465 . S
C2810 U2806 2.847 . S
C2810 O2824 1.249 . S
C2810 O2825 1.202 . S
C2811 C2809 1.363 . S
C2811 C2813 1.408 . S
C2811 C2816 1.342 . S
C2812 C2813 1.310 . S
C2812 C2815 1.461 . S
C2812 H2832 0.932 . S
C2813 C2811 1.408 . S
C2813 C2812 1.310 . S
C2813 H2833 0.930 . S
C2814 C2815 1.474 . S
C2814 C2816 1.285 . S
C2814 H2834 0.929 . S
C2815 C2812 1.461 . S
C2815 C2814 1.474 . S
C2816 C2811 1.342 . S
C2816 C2814 1.285 . S
C2816 H2835 0.930 . S
C2817 C2820 1.424 . S
C2817 C2822 1.245 . S
C2817 C2823 1.428 . S
C2818 C2821 1.260 . S
C2818 C2822 1.477 . S
C2818 H2836 0.932 . S
C2819 C2820 1.384 . S
C2819 C2821 1.479 . S
C2819 H2837 0.929 . S
C2820 C2817 1.424 . S
C2820 C2819 1.384 . S
C2820 H2838 0.928 . S
C2821 C2818 1.260 . S
C2821 C2819 1.479 . S
C2822 C2817 1.245 . S
C2822 C2818 1.477 . S
C2822 H2839 0.932 . S
C2823 U2806 2.882 . S
C2823 C2817 1.428 . S
C2823 O2826 1.301 . S
C2823 O2827 1.282 . S
O2824 U2806 2.441 . S
O2824 C2810 1.249 . S
O2825 U2806 2.420 . S
O2825 C2810 1.202 . S
O2826 U2806 2.455 . S
O2826 C2823 1.301 . S
O2827 U2806 2.449 . S
O2827 C2823 1.282 . S
H2828 C2801 0.931 . S
H2829 C2803 0.929 . S
H2830 C2804 0.930 . S
H2831 C2805 0.931 . S
H2832 C2812 0.932 . S
H2833 C2813 0.930 . S
H2834 C2814 0.929 . S
H2835 C2816 0.930 . S
H2836 C2818 0.932 . S
H2837 C2819 0.929 . S
H2838 C2820 0.928 . S
H2839 C2822 0.932 . S
C2840 C2841 1.264 . S
C2840 C2845 1.479 . S
C2840 C2850 1.465 . S
C2841 C2840 1.264 . S
C2841 C2843 1.339 . S
C2841 H2868 0.931 . S
C2842 C2843 1.395 . S
C2842 C2844 1.320 . S
C2843 C2841 1.339 . S
C2843 C2842 1.395 . S
C2843 H2869 0.929 . S
C2844 C2842 1.320 . S
C2844 C2845 1.405 . S
C2844 H2870 0.930 . S
C2845 C2840 1.479 . S
C2845 C2844 1.405 . S
C2845 H2871 0.931 . S
U2846 O2847 2.454 . S
U2846 O2848 2.458 . S
U2846 C2849 2.984 . S
U2846 C2850 2.847 . S
U2846 C2863 2.882 . S
U2846 O2864 2.441 . S
U2846 O2865 2.420 . S
U2846 O2866 2.455 . S
U2846 O2867 2.449 . S
O2847 U2846 2.454 . S
O2847 C2849 1.353 . S
O2848 U2846 2.458 . S
O2848 C2849 1.286 . S
C2849 U2846 2.984 . S
C2849 O2847 1.353 . S
C2849 O2848 1.286 . S
C2849 C2851 1.363 . S
C2850 C2840 1.465 . S
C2850 U2846 2.847 . S
C2850 O2864 1.249 . S
C2850 O2865 1.202 . S
C2851 C2849 1.363 . S
C2851 C2853 1.408 . S
C2851 C2856 1.342 . S
C2852 C2853 1.310 . S
C2852 C2855 1.461 . S
C2852 H2872 0.932 . S
C2853 C2851 1.408 . S
C2853 C2852 1.310 . S
C2853 H2873 0.930 . S
C2854 C2855 1.474 . S
C2854 C2856 1.285 . S
C2854 H2874 0.929 . S
C2855 C2852 1.461 . S
C2855 C2854 1.474 . S
C2856 C2851 1.342 . S
C2856 C2854 1.285 . S
C2856 H2875 0.930 . S
C2857 C2860 1.424 . S
C2857 C2862 1.245 . S
C2857 C2863 1.428 . S
C2858 C2861 1.260 . S
C2858 C2862 1.477 . S
C2858 H2876 0.932 . S
C2859 C2860 1.384 . S
C2859 C2861 1.479 . S
C2859 H2877 0.929 . S
C2860 C2857 1.424 . S
C2860 C2859 1.384 . S
C2860 H2878 0.928 . S
C2861 C2858 1.260 . S
C2861 C2859 1.479 . S
C2862 C2857 1.245 . S
C2862 C2858 1.477 . S
C2862 H2879 0.932 . S
C2863 U2846 2.882 . S
C2863 C2857 1.428 . S
C2863 O2866 1.301 . S
C2863 O2867 1.282 . S
O2864 U2846 2.441 . S
O2864 C2850 1.249 . S
O2865 U2846 2.420 . S
O2865 C2850 1.202 . S
O2866 U2846 2.455 . S
O2866 C2863 1.301 . S
O2867 U2846 2.449 . S
O2867 C2863 1.282 . S
H2868 C2841 0.931 . S
H2869 C2843 0.929 . S
H2870 C2844 0.930 . S
H2871 C2845 0.931 . S
H2872 C2852 0.932 . S
H2873 C2853 0.930 . S
H2874 C2854 0.929 . S
H2875 C2856 0.930 . S
H2876 C2858 0.932 . S
H2877 C2859 0.929 . S
H2878 C2860 0.928 . S
H2879 C2862 0.932 . S
C2880 C2881 1.264 . S
C2880 C2885 1.479 . S
C2880 C2890 1.465 . S
C2881 C2880 1.264 . S
C2881 C2883 1.339 . S
C2881 H2908 0.931 . S
C2882 C2883 1.395 . S
C2882 C2884 1.320 . S
C2883 C2881 1.339 . S
C2883 C2882 1.395 . S
C2883 H2909 0.929 . S
C2884 C2882 1.320 . S
C2884 C2885 1.405 . S
C2884 H2910 0.930 . S
C2885 C2880 1.479 . S
C2885 C2884 1.405 . S
C2885 H2911 0.931 . S
U2886 O2887 2.454 . S
U2886 O2888 2.458 . S
U2886 C2889 2.984 . S
U2886 C2890 2.847 . S
U2886 C2903 2.882 . S
U2886 O2904 2.441 . S
U2886 O2905 2.420 . S
U2886 O2906 2.455 . S
U2886 O2907 2.449 . S
O2887 U2886 2.454 . S
O2887 C2889 1.353 . S
O2888 U2886 2.458 . S
O2888 C2889 1.286 . S
C2889 U2886 2.984 . S
C2889 O2887 1.353 . S
C2889 O2888 1.286 . S
C2889 C2891 1.363 . S
C2890 C2880 1.465 . S
C2890 U2886 2.847 . S
C2890 O2904 1.249 . S
C2890 O2905 1.202 . S
C2891 C2889 1.363 . S
C2891 C2893 1.408 . S
C2891 C2896 1.342 . S
C2892 C2893 1.310 . S
C2892 C2895 1.461 . S
C2892 H2912 0.932 . S
C2893 C2891 1.408 . S
C2893 C2892 1.310 . S
C2893 H2913 0.930 . S
C2894 C2895 1.474 . S
C2894 C2896 1.285 . S
C2894 H2914 0.929 . S
C2895 C2892 1.461 . S
C2895 C2894 1.474 . S
C2896 C2891 1.342 . S
C2896 C2894 1.285 . S
C2896 H2915 0.930 . S
C2897 C2900 1.424 . S
C2897 C2902 1.245 . S
C2897 C2903 1.428 . S
C2898 C2901 1.260 . S
C2898 C2902 1.477 . S
C2898 H2916 0.932 . S
C2899 C2900 1.384 . S
C2899 C2901 1.479 . S
C2899 H2917 0.929 . S
C2900 C2897 1.424 . S
C2900 C2899 1.384 . S
C2900 H2918 0.928 . S
C2901 C2898 1.260 . S
C2901 C2899 1.479 . S
C2902 C2897 1.245 . S
C2902 C2898 1.477 . S
C2902 H2919 0.932 . S
C2903 U2886 2.882 . S
C2903 C2897 1.428 . S
C2903 O2906 1.301 . S
C2903 O2907 1.282 . S
O2904 U2886 2.441 . S
O2904 C2890 1.249 . S
O2905 U2886 2.420 . S
O2905 C2890 1.202 . S
O2906 U2886 2.455 . S
O2906 C2903 1.301 . S
O2907 U2886 2.449 . S
O2907 C2903 1.282 . S
H2908 C2881 0.931 . S
H2909 C2883 0.929 . S
H2910 C2884 0.930 . S
H2911 C2885 0.931 . S
H2912 C2892 0.932 . S
H2913 C2893 0.930 . S
H2914 C2894 0.929 . S
H2915 C2896 0.930 . S
H2916 C2898 0.932 . S
H2917 C2899 0.929 . S
H2918 C2900 0.928 . S
H2919 C2902 0.932 . S
C2920 C2921 1.264 . S
C2920 C2925 1.479 . S
C2920 C2930 1.465 . S
C2921 C2920 1.264 . S
C2921 C2923 1.339 . S
C2921 H2948 0.931 . S
C2922 C2923 1.395 . S
C2922 C2924 1.320 . S
C2923 C2921 1.339 . S
C2923 C2922 1.395 . S
C2923 H2949 0.929 . S
C2924 C2922 1.320 . S
C2924 C2925 1.405 . S
C2924 H2950 0.930 . S
C2925 C2920 1.479 . S
C2925 C2924 1.405 . S
C2925 H2951 0.931 . S
U2926 O2927 2.454 . S
U2926 O2928 2.458 . S
U2926 C2929 2.984 . S
U2926 C2930 2.847 . S
U2926 C2943 2.882 . S
U2926 O2944 2.441 . S
U2926 O2945 2.420 . S
U2926 O2946 2.455 . S
U2926 O2947 2.449 . S
O2927 U2926 2.454 . S
O2927 C2929 1.353 . S
O2928 U2926 2.458 . S
O2928 C2929 1.286 . S
C2929 U2926 2.984 . S
C2929 O2927 1.353 . S
C2929 O2928 1.286 . S
C2929 C2931 1.363 . S
C2930 C2920 1.465 . S
C2930 U2926 2.847 . S
C2930 O2944 1.249 . S
C2930 O2945 1.202 . S
C2931 C2929 1.363 . S
C2931 C2933 1.408 . S
C2931 C2936 1.342 . S
C2932 C2933 1.310 . S
C2932 C2935 1.461 . S
C2932 H2952 0.932 . S
C2933 C2931 1.408 . S
C2933 C2932 1.310 . S
C2933 H2953 0.930 . S
C2934 C2935 1.474 . S
C2934 C2936 1.285 . S
C2934 H2954 0.929 . S
C2935 C2932 1.461 . S
C2935 C2934 1.474 . S
C2936 C2931 1.342 . S
C2936 C2934 1.285 . S
C2936 H2955 0.930 . S
C2937 C2940 1.424 . S
C2937 C2942 1.245 . S
C2937 C2943 1.428 . S
C2938 C2941 1.260 . S
C2938 C2942 1.477 . S
C2938 H2956 0.932 . S
C2939 C2940 1.384 . S
C2939 C2941 1.479 . S
C2939 H2957 0.929 . S
C2940 C2937 1.424 . S
C2940 C2939 1.384 . S
C2940 H2958 0.928 . S
C2941 C2938 1.260 . S
C2941 C2939 1.479 . S
C2942 C2937 1.245 . S
C2942 C2938 1.477 . S
C2942 H2959 0.932 . S
C2943 U2926 2.882 . S
C2943 C2937 1.428 . S
C2943 O2946 1.301 . S
C2943 O2947 1.282 . S
O2944 U2926 2.441 . S
O2944 C2930 1.249 . S
O2945 U2926 2.420 . S
O2945 C2930 1.202 . S
O2946 U2926 2.455 . S
O2946 C2943 1.301 . S
O2947 U2926 2.449 . S
O2947 C2943 1.282 . S
H2948 C2921 0.931 . S
H2949 C2923 0.929 . S
H2950 C2924 0.930 . S
H2951 C2925 0.931 . S
H2952 C2932 0.932 . S
H2953 C2933 0.930 . S
H2954 C2934 0.929 . S
H2955 C2936 0.930 . S
H2956 C2938 0.932 . S
H2957 C2939 0.929 . S
H2958 C2940 0.928 . S
H2959 C2942 0.932 . S
C2960 C2961 1.264 . S
C2960 C2965 1.479 . S
C2960 C2970 1.465 . S
C2961 C2960 1.264 . S
C2961 C2963 1.339 . S
C2961 H2988 0.931 . S
C2962 C2963 1.395 . S
C2962 C2964 1.320 . S
C2963 C2961 1.339 . S
C2963 C2962 1.395 . S
C2963 H2989 0.929 . S
C2964 C2962 1.320 . S
C2964 C2965 1.405 . S
C2964 H2990 0.930 . S
C2965 C2960 1.479 . S
C2965 C2964 1.405 . S
C2965 H2991 0.931 . S
U2966 O2967 2.454 . S
U2966 O2968 2.458 . S
U2966 C2969 2.984 . S
U2966 C2970 2.847 . S
U2966 C2983 2.882 . S
U2966 O2984 2.441 . S
U2966 O2985 2.420 . S
U2966 O2986 2.455 . S
U2966 O2987 2.449 . S
O2967 U2966 2.454 . S
O2967 C2969 1.353 . S
O2968 U2966 2.458 . S
O2968 C2969 1.286 . S
C2969 U2966 2.984 . S
C2969 O2967 1.353 . S
C2969 O2968 1.286 . S
C2969 C2971 1.363 . S
C2970 C2960 1.465 . S
C2970 U2966 2.847 . S
C2970 O2984 1.249 . S
C2970 O2985 1.202 . S
C2971 C2969 1.363 . S
C2971 C2973 1.408 . S
C2971 C2976 1.342 . S
C2972 C2973 1.310 . S
C2972 C2975 1.461 . S
C2972 H2992 0.932 . S
C2973 C2971 1.408 . S
C2973 C2972 1.310 . S
C2973 H2993 0.930 . S
C2974 C2975 1.474 . S
C2974 C2976 1.285 . S
C2974 H2994 0.929 . S
C2975 C2972 1.461 . S
C2975 C2974 1.474 . S
C2976 C2971 1.342 . S
C2976 C2974 1.285 . S
C2976 H2995 0.930 . S
C2977 C2980 1.424 . S
C2977 C2982 1.245 . S
C2977 C2983 1.428 . S
C2978 C2981 1.260 . S
C2978 C2982 1.477 . S
C2978 H2996 0.932 . S
C2979 C2980 1.384 . S
C2979 C2981 1.479 . S
C2979 H2997 0.929 . S
C2980 C2977 1.424 . S
C2980 C2979 1.384 . S
C2980 H2998 0.928 . S
C2981 C2978 1.260 . S
C2981 C2979 1.479 . S
C2982 C2977 1.245 . S
C2982 C2978 1.477 . S
C2982 H2999 0.932 . S
C2983 U2966 2.882 . S
C2983 C2977 1.428 . S
C2983 O2986 1.301 . S
C2983 O2987 1.282 . S
O2984 U2966 2.441 . S
O2984 C2970 1.249 . S
O2985 U2966 2.420 . S
O2985 C2970 1.202 . S
O2986 U2966 2.455 . S
O2986 C2983 1.301 . S
O2987 U2966 2.449 . S
O2987 C2983 1.282 . S
H2988 C2961 0.931 . S
H2989 C2963 0.929 . S
H2990 C2964 0.930 . S
H2991 C2965 0.931 . S
H2992 C2972 0.932 . S
H2993 C2973 0.930 . S
H2994 C2974 0.929 . S
H2995 C2976 0.930 . S
H2996 C2978 0.932 . S
H2997 C2979 0.929 . S
H2998 C2980 0.928 . S
H2999 C2982 0.932 . S
C3000 C3001 1.264 . S
C3000 C3005 1.479 . S
C3000 C3010 1.465 . S
C3001 C3000 1.264 . S
C3001 C3003 1.339 . S
C3001 H3028 0.931 . S
C3002 C3003 1.395 . S
C3002 C3004 1.320 . S
C3003 C3001 1.339 . S
C3003 C3002 1.395 . S
C3003 H3029 0.929 . S
C3004 C3002 1.320 . S
C3004 C3005 1.405 . S
C3004 H3030 0.930 . S
C3005 C3000 1.479 . S
C3005 C3004 1.405 . S
C3005 H3031 0.931 . S
U3006 O3007 2.454 . S
U3006 O3008 2.458 . S
U3006 C3009 2.984 . S
U3006 C3010 2.847 . S
U3006 C3023 2.882 . S
U3006 O3024 2.441 . S
U3006 O3025 2.420 . S
U3006 O3026 2.455 . S
U3006 O3027 2.449 . S
O3007 U3006 2.454 . S
O3007 C3009 1.353 . S
O3008 U3006 2.458 . S
O3008 C3009 1.286 . S
C3009 U3006 2.984 . S
C3009 O3007 1.353 . S
C3009 O3008 1.286 . S
C3009 C3011 1.363 . S
C3010 C3000 1.465 . S
C3010 U3006 2.847 . S
C3010 O3024 1.249 . S
C3010 O3025 1.202 . S
C3011 C3009 1.363 . S
C3011 C3013 1.408 . S
C3011 C3016 1.342 . S
C3012 C3013 1.310 . S
C3012 C3015 1.461 . S
C3012 H3032 0.932 . S
C3013 C3011 1.408 . S
C3013 C3012 1.310 . S
C3013 H3033 0.930 . S
C3014 C3015 1.474 . S
C3014 C3016 1.285 . S
C3014 H3034 0.929 . S
C3015 C3012 1.461 . S
C3015 C3014 1.474 . S
C3016 C3011 1.342 . S
C3016 C3014 1.285 . S
C3016 H3035 0.930 . S
C3017 C3020 1.424 . S
C3017 C3022 1.245 . S
C3017 C3023 1.428 . S
C3018 C3021 1.260 . S
C3018 C3022 1.477 . S
C3018 H3036 0.932 . S
C3019 C3020 1.384 . S
C3019 C3021 1.479 . S
C3019 H3037 0.929 . S
C3020 C3017 1.424 . S
C3020 C3019 1.384 . S
C3020 H3038 0.928 . S
C3021 C3018 1.260 . S
C3021 C3019 1.479 . S
C3022 C3017 1.245 . S
C3022 C3018 1.477 . S
C3022 H3039 0.932 . S
C3023 U3006 2.882 . S
C3023 C3017 1.428 . S
C3023 O3026 1.301 . S
C3023 O3027 1.282 . S
O3024 U3006 2.441 . S
O3024 C3010 1.249 . S
O3025 U3006 2.420 . S
O3025 C3010 1.202 . S
O3026 U3006 2.455 . S
O3026 C3023 1.301 . S
O3027 U3006 2.449 . S
O3027 C3023 1.282 . S
H3028 C3001 0.931 . S
H3029 C3003 0.929 . S
H3030 C3004 0.930 . S
H3031 C3005 0.931 . S
H3032 C3012 0.932 . S
H3033 C3013 0.930 . S
H3034 C3014 0.929 . S
H3035 C3016 0.930 . S
H3036 C3018 0.932 . S
H3037 C3019 0.929 . S
H3038 C3020 0.928 . S
H3039 C3022 0.932 . S
C3040 C3041 1.264 . S
C3040 C3045 1.479 . S
C3040 C3050 1.465 . S
C3041 C3040 1.264 . S
C3041 C3043 1.339 . S
C3041 H3068 0.931 . S
C3042 C3043 1.395 . S
C3042 C3044 1.320 . S
C3043 C3041 1.339 . S
C3043 C3042 1.395 . S
C3043 H3069 0.929 . S
C3044 C3042 1.320 . S
C3044 C3045 1.405 . S
C3044 H3070 0.930 . S
C3045 C3040 1.479 . S
C3045 C3044 1.405 . S
C3045 H3071 0.931 . S
U3046 O3047 2.454 . S
U3046 O3048 2.458 . S
U3046 C3049 2.984 . S
U3046 C3050 2.847 . S
U3046 C3063 2.882 . S
U3046 O3064 2.441 . S
U3046 O3065 2.420 . S
U3046 O3066 2.455 . S
U3046 O3067 2.449 . S
O3047 U3046 2.454 . S
O3047 C3049 1.353 . S
O3048 U3046 2.458 . S
O3048 C3049 1.286 . S
C3049 U3046 2.984 . S
C3049 O3047 1.353 . S
C3049 O3048 1.286 . S
C3049 C3051 1.363 . S
C3050 C3040 1.465 . S
C3050 U3046 2.847 . S
C3050 O3064 1.249 . S
C3050 O3065 1.202 . S
C3051 C3049 1.363 . S
C3051 C3053 1.408 . S
C3051 C3056 1.342 . S
C3052 C3053 1.310 . S
C3052 C3055 1.461 . S
C3052 H3072 0.932 . S
C3053 C3051 1.408 . S
C3053 C3052 1.310 . S
C3053 H3073 0.930 . S
C3054 C3055 1.474 . S
C3054 C3056 1.285 . S
C3054 H3074 0.929 . S
C3055 C3052 1.461 . S
C3055 C3054 1.474 . S
C3056 C3051 1.342 . S
C3056 C3054 1.285 . S
C3056 H3075 0.930 . S
C3057 C3060 1.424 . S
C3057 C3062 1.245 . S
C3057 C3063 1.428 . S
C3058 C3061 1.260 . S
C3058 C3062 1.477 . S
C3058 H3076 0.932 . S
C3059 C3060 1.384 . S
C3059 C3061 1.479 . S
C3059 H3077 0.929 . S
C3060 C3057 1.424 . S
C3060 C3059 1.384 . S
C3060 H3078 0.928 . S
C3061 C3058 1.260 . S
C3061 C3059 1.479 . S
C3062 C3057 1.245 . S
C3062 C3058 1.477 . S
C3062 H3079 0.932 . S
C3063 U3046 2.882 . S
C3063 C3057 1.428 . S
C3063 O3066 1.301 . S
C3063 O3067 1.282 . S
O3064 U3046 2.441 . S
O3064 C3050 1.249 . S
O3065 U3046 2.420 . S
O3065 C3050 1.202 . S
O3066 U3046 2.455 . S
O3066 C3063 1.301 . S
O3067 U3046 2.449 . S
O3067 C3063 1.282 . S
H3068 C3041 0.931 . S
H3069 C3043 0.929 . S
H3070 C3044 0.930 . S
H3071 C3045 0.931 . S
H3072 C3052 0.932 . S
H3073 C3053 0.930 . S
H3074 C3054 0.929 . S
H3075 C3056 0.930 . S
H3076 C3058 0.932 . S
H3077 C3059 0.929 . S
H3078 C3060 0.928 . S
H3079 C3062 0.932 . S
C3080 C3081 1.264 . S
C3080 C3085 1.479 . S
C3080 C3090 1.465 . S
C3081 C3080 1.264 . S
C3081 C3083 1.339 . S
C3081 H3108 0.931 . S
C3082 C3083 1.395 . S
C3082 C3084 1.320 . S
C3083 C3081 1.339 . S
C3083 C3082 1.395 . S
C3083 H3109 0.929 . S
C3084 C3082 1.320 . S
C3084 C3085 1.405 . S
C3084 H3110 0.930 . S
C3085 C3080 1.479 . S
C3085 C3084 1.405 . S
C3085 H3111 0.931 . S
U3086 O3087 2.454 . S
U3086 O3088 2.458 . S
U3086 C3089 2.984 . S
U3086 C3090 2.847 . S
U3086 C3103 2.882 . S
U3086 O3104 2.441 . S
U3086 O3105 2.420 . S
U3086 O3106 2.455 . S
U3086 O3107 2.449 . S
O3087 U3086 2.454 . S
O3087 C3089 1.353 . S
O3088 U3086 2.458 . S
O3088 C3089 1.286 . S
C3089 U3086 2.984 . S
C3089 O3087 1.353 . S
C3089 O3088 1.286 . S
C3089 C3091 1.363 . S
C3090 C3080 1.465 . S
C3090 U3086 2.847 . S
C3090 O3104 1.249 . S
C3090 O3105 1.202 . S
C3091 C3089 1.363 . S
C3091 C3093 1.408 . S
C3091 C3096 1.342 . S
C3092 C3093 1.310 . S
C3092 C3095 1.461 . S
C3092 H3112 0.932 . S
C3093 C3091 1.408 . S
C3093 C3092 1.310 . S
C3093 H3113 0.930 . S
C3094 C3095 1.474 . S
C3094 C3096 1.285 . S
C3094 H3114 0.929 . S
C3095 C3092 1.461 . S
C3095 C3094 1.474 . S
C3096 C3091 1.342 . S
C3096 C3094 1.285 . S
C3096 H3115 0.930 . S
C3097 C3100 1.424 . S
C3097 C3102 1.245 . S
C3097 C3103 1.428 . S
C3098 C3101 1.260 . S
C3098 C3102 1.477 . S
C3098 H3116 0.932 . S
C3099 C3100 1.384 . S
C3099 C3101 1.479 . S
C3099 H3117 0.929 . S
C3100 C3097 1.424 . S
C3100 C3099 1.384 . S
C3100 H3118 0.928 . S
C3101 C3098 1.260 . S
C3101 C3099 1.479 . S
C3102 C3097 1.245 . S
C3102 C3098 1.477 . S
C3102 H3119 0.932 . S
C3103 U3086 2.882 . S
C3103 C3097 1.428 . S
C3103 O3106 1.301 . S
C3103 O3107 1.282 . S
O3104 U3086 2.441 . S
O3104 C3090 1.249 . S
O3105 U3086 2.420 . S
O3105 C3090 1.202 . S
O3106 U3086 2.455 . S
O3106 C3103 1.301 . S
O3107 U3086 2.449 . S
O3107 C3103 1.282 . S
H3108 C3081 0.931 . S
H3109 C3083 0.929 . S
H3110 C3084 0.930 . S
H3111 C3085 0.931 . S
H3112 C3092 0.932 . S
H3113 C3093 0.930 . S
H3114 C3094 0.929 . S
H3115 C3096 0.930 . S
H3116 C3098 0.932 . S
H3117 C3099 0.929 . S
H3118 C3100 0.928 . S
H3119 C3102 0.932 . S
C3120 C3121 1.264 . S
C3120 C3125 1.479 . S
C3120 C3130 1.465 . S
C3121 C3120 1.264 . S
C3121 C3123 1.339 . S
C3121 H3148 0.931 . S
C3122 C3123 1.395 . S
C3122 C3124 1.320 . S
C3123 C3121 1.339 . S
C3123 C3122 1.395 . S
C3123 H3149 0.929 . S
C3124 C3122 1.320 . S
C3124 C3125 1.405 . S
C3124 H3150 0.930 . S
C3125 C3120 1.479 . S
C3125 C3124 1.405 . S
C3125 H3151 0.931 . S
U3126 O3127 2.454 . S
U3126 O3128 2.458 . S
U3126 C3129 2.984 . S
U3126 C3130 2.847 . S
U3126 C3143 2.882 . S
U3126 O3144 2.441 . S
U3126 O3145 2.420 . S
U3126 O3146 2.455 . S
U3126 O3147 2.449 . S
O3127 U3126 2.454 . S
O3127 C3129 1.353 . S
O3128 U3126 2.458 . S
O3128 C3129 1.286 . S
C3129 U3126 2.984 . S
C3129 O3127 1.353 . S
C3129 O3128 1.286 . S
C3129 C3131 1.363 . S
C3130 C3120 1.465 . S
C3130 U3126 2.847 . S
C3130 O3144 1.249 . S
C3130 O3145 1.202 . S
C3131 C3129 1.363 . S
C3131 C3133 1.408 . S
C3131 C3136 1.342 . S
C3132 C3133 1.310 . S
C3132 C3135 1.461 . S
C3132 H3152 0.932 . S
C3133 C3131 1.408 . S
C3133 C3132 1.310 . S
C3133 H3153 0.930 . S
C3134 C3135 1.474 . S
C3134 C3136 1.285 . S
C3134 H3154 0.929 . S
C3135 C3132 1.461 . S
C3135 C3134 1.474 . S
C3136 C3131 1.342 . S
C3136 C3134 1.285 . S
C3136 H3155 0.930 . S
C3137 C3140 1.424 . S
C3137 C3142 1.245 . S
C3137 C3143 1.428 . S
C3138 C3141 1.260 . S
C3138 C3142 1.477 . S
C3138 H3156 0.932 . S
C3139 C3140 1.384 . S
C3139 C3141 1.479 . S
C3139 H3157 0.929 . S
C3140 C3137 1.424 . S
C3140 C3139 1.384 . S
C3140 H3158 0.928 . S
C3141 C3138 1.260 . S
C3141 C3139 1.479 . S
C3142 C3137 1.245 . S
C3142 C3138 1.477 . S
C3142 H3159 0.932 . S
C3143 U3126 2.882 . S
C3143 C3137 1.428 . S
C3143 O3146 1.301 . S
C3143 O3147 1.282 . S
O3144 U3126 2.441 . S
O3144 C3130 1.249 . S
O3145 U3126 2.420 . S
O3145 C3130 1.202 . S
O3146 U3126 2.455 . S
O3146 C3143 1.301 . S
O3147 U3126 2.449 . S
O3147 C3143 1.282 . S
H3148 C3121 0.931 . S
H3149 C3123 0.929 . S
H3150 C3124 0.930 . S
H3151 C3125 0.931 . S
H3152 C3132 0.932 . S
H3153 C3133 0.930 . S
H3154 C3134 0.929 . S
H3155 C3136 0.930 . S
H3156 C3138 0.932 . S
H3157 C3139 0.929 . S
H3158 C3140 0.928 . S
H3159 C3142 0.932 . S
C3160 C3161 1.264 . S
C3160 C3165 1.479 . S
C3160 C3170 1.465 . S
C3161 C3160 1.264 . S
C3161 C3163 1.339 . S
C3161 H3188 0.931 . S
C3162 C3163 1.395 . S
C3162 C3164 1.320 . S
C3163 C3161 1.339 . S
C3163 C3162 1.395 . S
C3163 H3189 0.929 . S
C3164 C3162 1.320 . S
C3164 C3165 1.405 . S
C3164 H3190 0.930 . S
C3165 C3160 1.479 . S
C3165 C3164 1.405 . S
C3165 H3191 0.931 . S
U3166 O3167 2.454 . S
U3166 O3168 2.458 . S
U3166 C3169 2.984 . S
U3166 C3170 2.847 . S
U3166 C3183 2.882 . S
U3166 O3184 2.441 . S
U3166 O3185 2.420 . S
U3166 O3186 2.455 . S
U3166 O3187 2.449 . S
O3167 U3166 2.454 . S
O3167 C3169 1.353 . S
O3168 U3166 2.458 . S
O3168 C3169 1.286 . S
C3169 U3166 2.984 . S
C3169 O3167 1.353 . S
C3169 O3168 1.286 . S
C3169 C3171 1.363 . S
C3170 C3160 1.465 . S
C3170 U3166 2.847 . S
C3170 O3184 1.249 . S
C3170 O3185 1.202 . S
C3171 C3169 1.363 . S
C3171 C3173 1.408 . S
C3171 C3176 1.342 . S
C3172 C3173 1.310 . S
C3172 C3175 1.461 . S
C3172 H3192 0.932 . S
C3173 C3171 1.408 . S
C3173 C3172 1.310 . S
C3173 H3193 0.930 . S
C3174 C3175 1.474 . S
C3174 C3176 1.285 . S
C3174 H3194 0.929 . S
C3175 C3172 1.461 . S
C3175 C3174 1.474 . S
C3176 C3171 1.342 . S
C3176 C3174 1.285 . S
C3176 H3195 0.930 . S
C3177 C3180 1.424 . S
C3177 C3182 1.245 . S
C3177 C3183 1.428 . S
C3178 C3181 1.260 . S
C3178 C3182 1.477 . S
C3178 H3196 0.932 . S
C3179 C3180 1.384 . S
C3179 C3181 1.479 . S
C3179 H3197 0.929 . S
C3180 C3177 1.424 . S
C3180 C3179 1.384 . S
C3180 H3198 0.928 . S
C3181 C3178 1.260 . S
C3181 C3179 1.479 . S
C3182 C3177 1.245 . S
C3182 C3178 1.477 . S
C3182 H3199 0.932 . S
C3183 U3166 2.882 . S
C3183 C3177 1.428 . S
C3183 O3186 1.301 . S
C3183 O3187 1.282 . S
O3184 U3166 2.441 . S
O3184 C3170 1.249 . S
O3185 U3166 2.420 . S
O3185 C3170 1.202 . S
O3186 U3166 2.455 . S
O3186 C3183 1.301 . S
O3187 U3166 2.449 . S
O3187 C3183 1.282 . S
H3188 C3161 0.931 . S
H3189 C3163 0.929 . S
H3190 C3164 0.930 . S
H3191 C3165 0.931 . S
H3192 C3172 0.932 . S
H3193 C3173 0.930 . S
H3194 C3174 0.929 . S
H3195 C3176 0.930 . S
H3196 C3178 0.932 . S
H3197 C3179 0.929 . S
H3198 C3180 0.928 . S
H3199 C3182 0.932 . S
C3200 C3201 1.264 . S
C3200 C3205 1.479 . S
C3200 C3210 1.465 . S
C3201 C3200 1.264 . S
C3201 C3203 1.339 . S
C3201 H3228 0.931 . S
C3202 C3203 1.395 . S
C3202 C3204 1.320 . S
C3203 C3201 1.339 . S
C3203 C3202 1.395 . S
C3203 H3229 0.929 . S
C3204 C3202 1.320 . S
C3204 C3205 1.405 . S
C3204 H3230 0.930 . S
C3205 C3200 1.479 . S
C3205 C3204 1.405 . S
C3205 H3231 0.931 . S
U3206 O3207 2.454 . S
U3206 O3208 2.458 . S
U3206 C3209 2.984 . S
U3206 C3210 2.847 . S
U3206 C3223 2.882 . S
U3206 O3224 2.441 . S
U3206 O3225 2.420 . S
U3206 O3226 2.455 . S
U3206 O3227 2.449 . S
O3207 U3206 2.454 . S
O3207 C3209 1.353 . S
O3208 U3206 2.458 . S
O3208 C3209 1.286 . S
C3209 U3206 2.984 . S
C3209 O3207 1.353 . S
C3209 O3208 1.286 . S
C3209 C3211 1.363 . S
C3210 C3200 1.465 . S
C3210 U3206 2.847 . S
C3210 O3224 1.249 . S
C3210 O3225 1.202 . S
C3211 C3209 1.363 . S
C3211 C3213 1.408 . S
C3211 C3216 1.342 . S
C3212 C3213 1.310 . S
C3212 C3215 1.461 . S
C3212 H3232 0.932 . S
C3213 C3211 1.408 . S
C3213 C3212 1.310 . S
C3213 H3233 0.930 . S
C3214 C3215 1.474 . S
C3214 C3216 1.285 . S
C3214 H3234 0.929 . S
C3215 C3212 1.461 . S
C3215 C3214 1.474 . S
C3216 C3211 1.342 . S
C3216 C3214 1.285 . S
C3216 H3235 0.930 . S
C3217 C3220 1.424 . S
C3217 C3222 1.245 . S
C3217 C3223 1.428 . S
C3218 C3221 1.260 . S
C3218 C3222 1.477 . S
C3218 H3236 0.932 . S
C3219 C3220 1.384 . S
C3219 C3221 1.479 . S
C3219 H3237 0.929 . S
C3220 C3217 1.424 . S
C3220 C3219 1.384 . S
C3220 H3238 0.928 . S
C3221 C3218 1.260 . S
C3221 C3219 1.479 . S
C3222 C3217 1.245 . S
C3222 C3218 1.477 . S
C3222 H3239 0.932 . S
C3223 U3206 2.882 . S
C3223 C3217 1.428 . S
C3223 O3226 1.301 . S
C3223 O3227 1.282 . S
O3224 U3206 2.441 . S
O3224 C3210 1.249 . S
O3225 U3206 2.420 . S
O3225 C3210 1.202 . S
O3226 U3206 2.455 . S
O3226 C3223 1.301 . S
O3227 U3206 2.449 . S
O3227 C3223 1.282 . S
H3228 C3201 0.931 . S
H3229 C3203 0.929 . S
H3230 C3204 0.930 . S
H3231 C3205 0.931 . S
H3232 C3212 0.932 . S
H3233 C3213 0.930 . S
H3234 C3214 0.929 . S
H3235 C3216 0.930 . S
H3236 C3218 0.932 . S
H3237 C3219 0.929 . S
H3238 C3220 0.928 . S
H3239 C3222 0.932 . S
C3240 C3241 1.264 . S
C3240 C3245 1.479 . S
C3240 C3250 1.465 . S
C3241 C3240 1.264 . S
C3241 C3243 1.339 . S
C3241 H3268 0.931 . S
C3242 C3243 1.395 . S
C3242 C3244 1.320 . S
C3243 C3241 1.339 . S
C3243 C3242 1.395 . S
C3243 H3269 0.929 . S
C3244 C3242 1.320 . S
C3244 C3245 1.405 . S
C3244 H3270 0.930 . S
C3245 C3240 1.479 . S
C3245 C3244 1.405 . S
C3245 H3271 0.931 . S
U3246 O3247 2.454 . S
U3246 O3248 2.458 . S
U3246 C3249 2.984 . S
U3246 C3250 2.847 . S
U3246 C3263 2.882 . S
U3246 O3264 2.441 . S
U3246 O3265 2.420 . S
U3246 O3266 2.455 . S
U3246 O3267 2.449 . S
O3247 U3246 2.454 . S
O3247 C3249 1.353 . S
O3248 U3246 2.458 . S
O3248 C3249 1.286 . S
C3249 U3246 2.984 . S
C3249 O3247 1.353 . S
C3249 O3248 1.286 . S
C3249 C3251 1.363 . S
C3250 C3240 1.465 . S
C3250 U3246 2.847 . S
C3250 O3264 1.249 . S
C3250 O3265 1.202 . S
C3251 C3249 1.363 . S
C3251 C3253 1.408 . S
C3251 C3256 1.342 . S
C3252 C3253 1.310 . S
C3252 C3255 1.461 . S
C3252 H3272 0.932 . S
C3253 C3251 1.408 . S
C3253 C3252 1.310 . S
C3253 H3273 0.930 . S
C3254 C3255 1.474 . S
C3254 C3256 1.285 . S
C3254 H3274 0.929 . S
C3255 C3252 1.461 . S
C3255 C3254 1.474 . S
C3256 C3251 1.342 . S
C3256 C3254 1.285 . S
C3256 H3275 0.930 . S
C3257 C3260 1.424 . S
C3257 C3262 1.245 . S
C3257 C3263 1.428 . S
C3258 C3261 1.260 . S
C3258 C3262 1.477 . S
C3258 H3276 0.932 . S
C3259 C3260 1.384 . S
C3259 C3261 1.479 . S
C3259 H3277 0.929 . S
C3260 C3257 1.424 . S
C3260 C3259 1.384 . S
C3260 H3278 0.928 . S
C3261 C3258 1.260 . S
C3261 C3259 1.479 . S
C3262 C3257 1.245 . S
C3262 C3258 1.477 . S
C3262 H3279 0.932 . S
C3263 U3246 2.882 . S
C3263 C3257 1.428 . S
C3263 O3266 1.301 . S
C3263 O3267 1.282 . S
O3264 U3246 2.441 . S
O3264 C3250 1.249 . S
O3265 U3246 2.420 . S
O3265 C3250 1.202 . S
O3266 U3246 2.455 . S
O3266 C3263 1.301 . S
O3267 U3246 2.449 . S
O3267 C3263 1.282 . S
H3268 C3241 0.931 . S
H3269 C3243 0.929 . S
H3270 C3244 0.930 . S
H3271 C3245 0.931 . S
H3272 C3252 0.932 . S
H3273 C3253 0.930 . S
H3274 C3254 0.929 . S
H3275 C3256 0.930 . S
H3276 C3258 0.932 . S
H3277 C3259 0.929 . S
H3278 C3260 0.928 . S
H3279 C3262 0.932 . S
C3280 C3281 1.264 . S
C3280 C3285 1.479 . S
C3280 C3290 1.465 . S
C3281 C3280 1.264 . S
C3281 C3283 1.339 . S
C3281 H3308 0.931 . S
C3282 C3283 1.395 . S
C3282 C3284 1.320 . S
C3283 C3281 1.339 . S
C3283 C3282 1.395 . S
C3283 H3309 0.929 . S
C3284 C3282 1.320 . S
C3284 C3285 1.405 . S
C3284 H3310 0.930 . S
C3285 C3280 1.479 . S
C3285 C3284 1.405 . S
C3285 H3311 0.931 . S
U3286 O3287 2.454 . S
U3286 O3288 2.458 . S
U3286 C3289 2.984 . S
U3286 C3290 2.847 . S
U3286 C3303 2.882 . S
U3286 O3304 2.441 . S
U3286 O3305 2.420 . S
U3286 O3306 2.455 . S
U3286 O3307 2.449 . S
O3287 U3286 2.454 . S
O3287 C3289 1.353 . S
O3288 U3286 2.458 . S
O3288 C3289 1.286 . S
C3289 U3286 2.984 . S
C3289 O3287 1.353 . S
C3289 O3288 1.286 . S
C3289 C3291 1.363 . S
C3290 C3280 1.465 . S
C3290 U3286 2.847 . S
C3290 O3304 1.249 . S
C3290 O3305 1.202 . S
C3291 C3289 1.363 . S
C3291 C3293 1.408 . S
C3291 C3296 1.342 . S
C3292 C3293 1.310 . S
C3292 C3295 1.461 . S
C3292 H3312 0.932 . S
C3293 C3291 1.408 . S
C3293 C3292 1.310 . S
C3293 H3313 0.930 . S
C3294 C3295 1.474 . S
C3294 C3296 1.285 . S
C3294 H3314 0.929 . S
C3295 C3292 1.461 . S
C3295 C3294 1.474 . S
C3296 C3291 1.342 . S
C3296 C3294 1.285 . S
C3296 H3315 0.930 . S
C3297 C3300 1.424 . S
C3297 C3302 1.245 . S
C3297 C3303 1.428 . S
C3298 C3301 1.260 . S
C3298 C3302 1.477 . S
C3298 H3316 0.932 . S
C3299 C3300 1.384 . S
C3299 C3301 1.479 . S
C3299 H3317 0.929 . S
C3300 C3297 1.424 . S
C3300 C3299 1.384 . S
C3300 H3318 0.928 . S
C3301 C3298 1.260 . S
C3301 C3299 1.479 . S
C3302 C3297 1.245 . S
C3302 C3298 1.477 . S
C3302 H3319 0.932 . S
C3303 U3286 2.882 . S
C3303 C3297 1.428 . S
C3303 O3306 1.301 . S
C3303 O3307 1.282 . S
O3304 U3286 2.441 . S
O3304 C3290 1.249 . S
O3305 U3286 2.420 . S
O3305 C3290 1.202 . S
O3306 U3286 2.455 . S
O3306 C3303 1.301 . S
O3307 U3286 2.449 . S
O3307 C3303 1.282 . S
H3308 C3281 0.931 . S
H3309 C3283 0.929 . S
H3310 C3284 0.930 . S
H3311 C3285 0.931 . S
H3312 C3292 0.932 . S
H3313 C3293 0.930 . S
H3314 C3294 0.929 . S
H3315 C3296 0.930 . S
H3316 C3298 0.932 . S
H3317 C3299 0.929 . S
H3318 C3300 0.928 . S
H3319 C3302 0.932 . S
C3320 C3321 1.264 . S
C3320 C3325 1.479 . S
C3320 C3330 1.465 . S
C3321 C3320 1.264 . S
C3321 C3323 1.339 . S
C3321 H3348 0.931 . S
C3322 C3323 1.395 . S
C3322 C3324 1.320 . S
C3323 C3321 1.339 . S
C3323 C3322 1.395 . S
C3323 H3349 0.929 . S
C3324 C3322 1.320 . S
C3324 C3325 1.405 . S
C3324 H3350 0.930 . S
C3325 C3320 1.479 . S
C3325 C3324 1.405 . S
C3325 H3351 0.931 . S
U3326 O3327 2.454 . S
U3326 O3328 2.458 . S
U3326 C3329 2.984 . S
U3326 C3330 2.847 . S
U3326 C3343 2.882 . S
U3326 O3344 2.441 . S
U3326 O3345 2.420 . S
U3326 O3346 2.455 . S
U3326 O3347 2.449 . S
O3327 U3326 2.454 . S
O3327 C3329 1.353 . S
O3328 U3326 2.458 . S
O3328 C3329 1.286 . S
C3329 U3326 2.984 . S
C3329 O3327 1.353 . S
C3329 O3328 1.286 . S
C3329 C3331 1.363 . S
C3330 C3320 1.465 . S
C3330 U3326 2.847 . S
C3330 O3344 1.249 . S
C3330 O3345 1.202 . S
C3331 C3329 1.363 . S
C3331 C3333 1.408 . S
C3331 C3336 1.342 . S
C3332 C3333 1.310 . S
C3332 C3335 1.461 . S
C3332 H3352 0.932 . S
C3333 C3331 1.408 . S
C3333 C3332 1.310 . S
C3333 H3353 0.930 . S
C3334 C3335 1.474 . S
C3334 C3336 1.285 . S
C3334 H3354 0.929 . S
C3335 C3332 1.461 . S
C3335 C3334 1.474 . S
C3336 C3331 1.342 . S
C3336 C3334 1.285 . S
C3336 H3355 0.930 . S
C3337 C3340 1.424 . S
C3337 C3342 1.245 . S
C3337 C3343 1.428 . S
C3338 C3341 1.260 . S
C3338 C3342 1.477 . S
C3338 H3356 0.932 . S
C3339 C3340 1.384 . S
C3339 C3341 1.479 . S
C3339 H3357 0.929 . S
C3340 C3337 1.424 . S
C3340 C3339 1.384 . S
C3340 H3358 0.928 . S
C3341 C3338 1.260 . S
C3341 C3339 1.479 . S
C3342 C3337 1.245 . S
C3342 C3338 1.477 . S
C3342 H3359 0.932 . S
C3343 U3326 2.882 . S
C3343 C3337 1.428 . S
C3343 O3346 1.301 . S
C3343 O3347 1.282 . S
O3344 U3326 2.441 . S
O3344 C3330 1.249 . S
O3345 U3326 2.420 . S
O3345 C3330 1.202 . S
O3346 U3326 2.455 . S
O3346 C3343 1.301 . S
O3347 U3326 2.449 . S
O3347 C3343 1.282 . S
H3348 C3321 0.931 . S
H3349 C3323 0.929 . S
H3350 C3324 0.930 . S
H3351 C3325 0.931 . S
H3352 C3332 0.932 . S
H3353 C3333 0.930 . S
H3354 C3334 0.929 . S
H3355 C3336 0.930 . S
H3356 C3338 0.932 . S
H3357 C3339 0.929 . S
H3358 C3340 0.928 . S
H3359 C3342 0.932 . S
C3360 C3361 1.264 . S
C3360 C3365 1.479 . S
C3360 C3370 1.465 . S
C3361 C3360 1.264 . S
C3361 C3363 1.339 . S
C3361 H3388 0.931 . S
C3362 C3363 1.395 . S
C3362 C3364 1.320 . S
C3363 C3361 1.339 . S
C3363 C3362 1.395 . S
C3363 H3389 0.929 . S
C3364 C3362 1.320 . S
C3364 C3365 1.405 . S
C3364 H3390 0.930 . S
C3365 C3360 1.479 . S
C3365 C3364 1.405 . S
C3365 H3391 0.931 . S
U3366 O3367 2.454 . S
U3366 O3368 2.458 . S
U3366 C3369 2.984 . S
U3366 C3370 2.847 . S
U3366 C3383 2.882 . S
U3366 O3384 2.441 . S
U3366 O3385 2.420 . S
U3366 O3386 2.455 . S
U3366 O3387 2.449 . S
O3367 U3366 2.454 . S
O3367 C3369 1.353 . S
O3368 U3366 2.458 . S
O3368 C3369 1.286 . S
C3369 U3366 2.984 . S
C3369 O3367 1.353 . S
C3369 O3368 1.286 . S
C3369 C3371 1.363 . S
C3370 C3360 1.465 . S
C3370 U3366 2.847 . S
C3370 O3384 1.249 . S
C3370 O3385 1.202 . S
C3371 C3369 1.363 . S
C3371 C3373 1.408 . S
C3371 C3376 1.342 . S
C3372 C3373 1.310 . S
C3372 C3375 1.461 . S
C3372 H3392 0.932 . S
C3373 C3371 1.408 . S
C3373 C3372 1.310 . S
C3373 H3393 0.930 . S
C3374 C3375 1.474 . S
C3374 C3376 1.285 . S
C3374 H3394 0.929 . S
C3375 C3372 1.461 . S
C3375 C3374 1.474 . S
C3376 C3371 1.342 . S
C3376 C3374 1.285 . S
C3376 H3395 0.930 . S
C3377 C3380 1.424 . S
C3377 C3382 1.245 . S
C3377 C3383 1.428 . S
C3378 C3381 1.260 . S
C3378 C3382 1.477 . S
C3378 H3396 0.932 . S
C3379 C3380 1.384 . S
C3379 C3381 1.479 . S
C3379 H3397 0.929 . S
C3380 C3377 1.424 . S
C3380 C3379 1.384 . S
C3380 H3398 0.928 . S
C3381 C3378 1.260 . S
C3381 C3379 1.479 . S
C3382 C3377 1.245 . S
C3382 C3378 1.477 . S
C3382 H3399 0.932 . S
C3383 U3366 2.882 . S
C3383 C3377 1.428 . S
C3383 O3386 1.301 . S
C3383 O3387 1.282 . S
O3384 U3366 2.441 . S
O3384 C3370 1.249 . S
O3385 U3366 2.420 . S
O3385 C3370 1.202 . S
O3386 U3366 2.455 . S
O3386 C3383 1.301 . S
O3387 U3366 2.449 . S
O3387 C3383 1.282 . S
H3388 C3361 0.931 . S
H3389 C3363 0.929 . S
H3390 C3364 0.930 . S
H3391 C3365 0.931 . S
H3392 C3372 0.932 . S
H3393 C3373 0.930 . S
H3394 C3374 0.929 . S
H3395 C3376 0.930 . S
H3396 C3378 0.932 . S
H3397 C3379 0.929 . S
H3398 C3380 0.928 . S
H3399 C3382 0.932 . S
C3400 C3401 1.264 . S
C3400 C3405 1.479 . S
C3400 C3410 1.465 . S
C3401 C3400 1.264 . S
C3401 C3403 1.339 . S
C3401 H3428 0.931 . S
C3402 C3403 1.395 . S
C3402 C3404 1.320 . S
C3403 C3401 1.339 . S
C3403 C3402 1.395 . S
C3403 H3429 0.929 . S
C3404 C3402 1.320 . S
C3404 C3405 1.405 . S
C3404 H3430 0.930 . S
C3405 C3400 1.479 . S
C3405 C3404 1.405 . S
C3405 H3431 0.931 . S
U3406 O3407 2.454 . S
U3406 O3408 2.458 . S
U3406 C3409 2.984 . S
U3406 C3410 2.847 . S
U3406 C3423 2.882 . S
U3406 O3424 2.441 . S
U3406 O3425 2.420 . S
U3406 O3426 2.455 . S
U3406 O3427 2.449 . S
O3407 U3406 2.454 . S
O3407 C3409 1.353 . S
O3408 U3406 2.458 . S
O3408 C3409 1.286 . S
C3409 U3406 2.984 . S
C3409 O3407 1.353 . S
C3409 O3408 1.286 . S
C3409 C3411 1.363 . S
C3410 C3400 1.465 . S
C3410 U3406 2.847 . S
C3410 O3424 1.249 . S
C3410 O3425 1.202 . S
C3411 C3409 1.363 . S
C3411 C3413 1.408 . S
C3411 C3416 1.342 . S
C3412 C3413 1.310 . S
C3412 C3415 1.461 . S
C3412 H3432 0.932 . S
C3413 C3411 1.408 . S
C3413 C3412 1.310 . S
C3413 H3433 0.930 . S
C3414 C3415 1.474 . S
C3414 C3416 1.285 . S
C3414 H3434 0.929 . S
C3415 C3412 1.461 . S
C3415 C3414 1.474 . S
C3416 C3411 1.342 . S
C3416 C3414 1.285 . S
C3416 H3435 0.930 . S
C3417 C3420 1.424 . S
C3417 C3422 1.245 . S
C3417 C3423 1.428 . S
C3418 C3421 1.260 . S
C3418 C3422 1.477 . S
C3418 H3436 0.932 . S
C3419 C3420 1.384 . S
C3419 C3421 1.479 . S
C3419 H3437 0.929 . S
C3420 C3417 1.424 . S
C3420 C3419 1.384 . S
C3420 H3438 0.928 . S
C3421 C3418 1.260 . S
C3421 C3419 1.479 . S
C3422 C3417 1.245 . S
C3422 C3418 1.477 . S
C3422 H3439 0.932 . S
C3423 U3406 2.882 . S
C3423 C3417 1.428 . S
C3423 O3426 1.301 . S
C3423 O3427 1.282 . S
O3424 U3406 2.441 . S
O3424 C3410 1.249 . S
O3425 U3406 2.420 . S
O3425 C3410 1.202 . S
O3426 U3406 2.455 . S
O3426 C3423 1.301 . S
O3427 U3406 2.449 . S
O3427 C3423 1.282 . S
H3428 C3401 0.931 . S
H3429 C3403 0.929 . S
H3430 C3404 0.930 . S
H3431 C3405 0.931 . S
H3432 C3412 0.932 . S
H3433 C3413 0.930 . S
H3434 C3414 0.929 . S
H3435 C3416 0.930 . S
H3436 C3418 0.932 . S
H3437 C3419 0.929 . S
H3438 C3420 0.928 . S
H3439 C3422 0.932 . S
C3440 C3441 1.264 . S
C3440 C3445 1.479 . S
C3440 C3450 1.465 . S
C3441 C3440 1.264 . S
C3441 C3443 1.339 . S
C3441 H3468 0.931 . S
C3442 C3443 1.395 . S
C3442 C3444 1.320 . S
C3443 C3441 1.339 . S
C3443 C3442 1.395 . S
C3443 H3469 0.929 . S
C3444 C3442 1.320 . S
C3444 C3445 1.405 . S
C3444 H3470 0.930 . S
C3445 C3440 1.479 . S
C3445 C3444 1.405 . S
C3445 H3471 0.931 . S
U3446 O3447 2.454 . S
U3446 O3448 2.458 . S
U3446 C3449 2.984 . S
U3446 C3450 2.847 . S
U3446 C3463 2.882 . S
U3446 O3464 2.441 . S
U3446 O3465 2.420 . S
U3446 O3466 2.455 . S
U3446 O3467 2.449 . S
O3447 U3446 2.454 . S
O3447 C3449 1.353 . S
O3448 U3446 2.458 . S
O3448 C3449 1.286 . S
C3449 U3446 2.984 . S
C3449 O3447 1.353 . S
C3449 O3448 1.286 . S
C3449 C3451 1.363 . S
C3450 C3440 1.465 . S
C3450 U3446 2.847 . S
C3450 O3464 1.249 . S
C3450 O3465 1.202 . S
C3451 C3449 1.363 . S
C3451 C3453 1.408 . S
C3451 C3456 1.342 . S
C3452 C3453 1.310 . S
C3452 C3455 1.461 . S
C3452 H3472 0.932 . S
C3453 C3451 1.408 . S
C3453 C3452 1.310 . S
C3453 H3473 0.930 . S
C3454 C3455 1.474 . S
C3454 C3456 1.285 . S
C3454 H3474 0.929 . S
C3455 C3452 1.461 . S
C3455 C3454 1.474 . S
C3456 C3451 1.342 . S
C3456 C3454 1.285 . S
C3456 H3475 0.930 . S
C3457 C3460 1.424 . S
C3457 C3462 1.245 . S
C3457 C3463 1.428 . S
C3458 C3461 1.260 . S
C3458 C3462 1.477 . S
C3458 H3476 0.932 . S
C3459 C3460 1.384 . S
C3459 C3461 1.479 . S
C3459 H3477 0.929 . S
C3460 C3457 1.424 . S
C3460 C3459 1.384 . S
C3460 H3478 0.928 . S
C3461 C3458 1.260 . S
C3461 C3459 1.479 . S
C3462 C3457 1.245 . S
C3462 C3458 1.477 . S
C3462 H3479 0.932 . S
C3463 U3446 2.882 . S
C3463 C3457 1.428 . S
C3463 O3466 1.301 . S
C3463 O3467 1.282 . S
O3464 U3446 2.441 . S
O3464 C3450 1.249 . S
O3465 U3446 2.420 . S
O3465 C3450 1.202 . S
O3466 U3446 2.455 . S
O3466 C3463 1.301 . S
O3467 U3446 2.449 . S
O3467 C3463 1.282 . S
H3468 C3441 0.931 . S
H3469 C3443 0.929 . S
H3470 C3444 0.930 . S
H3471 C3445 0.931 . S
H3472 C3452 0.932 . S
H3473 C3453 0.930 . S
H3474 C3454 0.929 . S
H3475 C3456 0.930 . S
H3476 C3458 0.932 . S
H3477 C3459 0.929 . S
H3478 C3460 0.928 . S
H3479 C3462 0.932 . S
C3480 C3481 1.264 . S
C3480 C3485 1.479 . S
C3480 C3490 1.465 . S
C3481 C3480 1.264 . S
C3481 C3483 1.339 . S
C3481 H3508 0.931 . S
C3482 C3483 1.395 . S
C3482 C3484 1.320 . S
C3483 C3481 1.339 . S
C3483 C3482 1.395 . S
C3483 H3509 0.929 . S
C3484 C3482 1.320 . S
C3484 C3485 1.405 . S
C3484 H3510 0.930 . S
C3485 C3480 1.479 . S
C3485 C3484 1.405 . S
C3485 H3511 0.931 . S
U3486 O3487 2.454 . S
U3486 O3488 2.458 . S
U3486 C3489 2.984 . S
U3486 C3490 2.847 . S
U3486 C3503 2.882 . S
U3486 O3504 2.441 . S
U3486 O3505 2.420 . S
U3486 O3506 2.455 . S
U3486 O3507 2.449 . S
O3487 U3486 2.454 . S
O3487 C3489 1.353 . S
O3488 U3486 2.458 . S
O3488 C3489 1.286 . S
C3489 U3486 2.984 . S
C3489 O3487 1.353 . S
C3489 O3488 1.286 . S
C3489 C3491 1.363 . S
C3490 C3480 1.465 . S
C3490 U3486 2.847 . S
C3490 O3504 1.249 . S
C3490 O3505 1.202 . S
C3491 C3489 1.363 . S
C3491 C3493 1.408 . S
C3491 C3496 1.342 . S
C3492 C3493 1.310 . S
C3492 C3495 1.461 . S
C3492 H3512 0.932 . S
C3493 C3491 1.408 . S
C3493 C3492 1.310 . S
C3493 H3513 0.930 . S
C3494 C3495 1.474 . S
C3494 C3496 1.285 . S
C3494 H3514 0.929 . S
C3495 C3492 1.461 . S
C3495 C3494 1.474 . S
C3496 C3491 1.342 . S
C3496 C3494 1.285 . S
C3496 H3515 0.930 . S
C3497 C3500 1.424 . S
C3497 C3502 1.245 . S
C3497 C3503 1.428 . S
C3498 C3501 1.260 . S
C3498 C3502 1.477 . S
C3498 H3516 0.932 . S
C3499 C3500 1.384 . S
C3499 C3501 1.479 . S
C3499 H3517 0.929 . S
C3500 C3497 1.424 . S
C3500 C3499 1.384 . S
C3500 H3518 0.928 . S
C3501 C3498 1.260 . S
C3501 C3499 1.479 . S
C3502 C3497 1.245 . S
C3502 C3498 1.477 . S
C3502 H3519 0.932 . S
C3503 U3486 2.882 . S
C3503 C3497 1.428 . S
C3503 O3506 1.301 . S
C3503 O3507 1.282 . S
O3504 U3486 2.441 . S
O3504 C3490 1.249 . S
O3505 U3486 2.420 . S
O3505 C3490 1.202 . S
O3506 U3486 2.455 . S
O3506 C3503 1.301 . S
O3507 U3486 2.449 . S
O3507 C3503 1.282 . S
H3508 C3481 0.931 . S
H3509 C3483 0.929 . S
H3510 C3484 0.930 . S
H3511 C3485 0.931 . S
H3512 C3492 0.932 . S
H3513 C3493 0.930 . S
H3514 C3494 0.929 . S
H3515 C3496 0.930 . S
H3516 C3498 0.932 . S
H3517 C3499 0.929 . S
H3518 C3500 0.928 . S
H3519 C3502 0.932 . S
C3520 C3521 1.264 . S
C3520 C3525 1.479 . S
C3520 C3530 1.465 . S
C3521 C3520 1.264 . S
C3521 C3523 1.339 . S
C3521 H3548 0.931 . S
C3522 C3523 1.395 . S
C3522 C3524 1.320 . S
C3523 C3521 1.339 . S
C3523 C3522 1.395 . S
C3523 H3549 0.929 . S
C3524 C3522 1.320 . S
C3524 C3525 1.405 . S
C3524 H3550 0.930 . S
C3525 C3520 1.479 . S
C3525 C3524 1.405 . S
C3525 H3551 0.931 . S
U3526 O3527 2.454 . S
U3526 O3528 2.458 . S
U3526 C3529 2.984 . S
U3526 C3530 2.847 . S
U3526 C3543 2.882 . S
U3526 O3544 2.441 . S
U3526 O3545 2.420 . S
U3526 O3546 2.455 . S
U3526 O3547 2.449 . S
O3527 U3526 2.454 . S
O3527 C3529 1.353 . S
O3528 U3526 2.458 . S
O3528 C3529 1.286 . S
C3529 U3526 2.984 . S
C3529 O3527 1.353 . S
C3529 O3528 1.286 . S
C3529 C3531 1.363 . S
C3530 C3520 1.465 . S
C3530 U3526 2.847 . S
C3530 O3544 1.249 . S
C3530 O3545 1.202 . S
C3531 C3529 1.363 . S
C3531 C3533 1.408 . S
C3531 C3536 1.342 . S
C3532 C3533 1.310 . S
C3532 C3535 1.461 . S
C3532 H3552 0.932 . S
C3533 C3531 1.408 . S
C3533 C3532 1.310 . S
C3533 H3553 0.930 . S
C3534 C3535 1.474 . S
C3534 C3536 1.285 . S
C3534 H3554 0.929 . S
C3535 C3532 1.461 . S
C3535 C3534 1.474 . S
C3536 C3531 1.342 . S
C3536 C3534 1.285 . S
C3536 H3555 0.930 . S
C3537 C3540 1.424 . S
C3537 C3542 1.245 . S
C3537 C3543 1.428 . S
C3538 C3541 1.260 . S
C3538 C3542 1.477 . S
C3538 H3556 0.932 . S
C3539 C3540 1.384 . S
C3539 C3541 1.479 . S
C3539 H3557 0.929 . S
C3540 C3537 1.424 . S
C3540 C3539 1.384 . S
C3540 H3558 0.928 . S
C3541 C3538 1.260 . S
C3541 C3539 1.479 . S
C3542 C3537 1.245 . S
C3542 C3538 1.477 . S
C3542 H3559 0.932 . S
C3543 U3526 2.882 . S
C3543 C3537 1.428 . S
C3543 O3546 1.301 . S
C3543 O3547 1.282 . S
O3544 U3526 2.441 . S
O3544 C3530 1.249 . S
O3545 U3526 2.420 . S
O3545 C3530 1.202 . S
O3546 U3526 2.455 . S
O3546 C3543 1.301 . S
O3547 U3526 2.449 . S
O3547 C3543 1.282 . S
H3548 C3521 0.931 . S
H3549 C3523 0.929 . S
H3550 C3524 0.930 . S
H3551 C3525 0.931 . S
H3552 C3532 0.932 . S
H3553 C3533 0.930 . S
H3554 C3534 0.929 . S
H3555 C3536 0.930 . S
H3556 C3538 0.932 . S
H3557 C3539 0.929 . S
H3558 C3540 0.928 . S
H3559 C3542 0.932 . S
C3560 C3561 1.264 . S
C3560 C3565 1.479 . S
C3560 C3570 1.465 . S
C3561 C3560 1.264 . S
C3561 C3563 1.339 . S
C3561 H3588 0.931 . S
C3562 C3563 1.395 . S
C3562 C3564 1.320 . S
C3563 C3561 1.339 . S
C3563 C3562 1.395 . S
C3563 H3589 0.929 . S
C3564 C3562 1.320 . S
C3564 C3565 1.405 . S
C3564 H3590 0.930 . S
C3565 C3560 1.479 . S
C3565 C3564 1.405 . S
C3565 H3591 0.931 . S
U3566 O3567 2.454 . S
U3566 O3568 2.458 . S
U3566 C3569 2.984 . S
U3566 C3570 2.847 . S
U3566 C3583 2.882 . S
U3566 O3584 2.441 . S
U3566 O3585 2.420 . S
U3566 O3586 2.455 . S
U3566 O3587 2.449 . S
O3567 U3566 2.454 . S
O3567 C3569 1.353 . S
O3568 U3566 2.458 . S
O3568 C3569 1.286 . S
C3569 U3566 2.984 . S
C3569 O3567 1.353 . S
C3569 O3568 1.286 . S
C3569 C3571 1.363 . S
C3570 C3560 1.465 . S
C3570 U3566 2.847 . S
C3570 O3584 1.249 . S
C3570 O3585 1.202 . S
C3571 C3569 1.363 . S
C3571 C3573 1.408 . S
C3571 C3576 1.342 . S
C3572 C3573 1.310 . S
C3572 C3575 1.461 . S
C3572 H3592 0.932 . S
C3573 C3571 1.408 . S
C3573 C3572 1.310 . S
C3573 H3593 0.930 . S
C3574 C3575 1.474 . S
C3574 C3576 1.285 . S
C3574 H3594 0.929 . S
C3575 C3572 1.461 . S
C3575 C3574 1.474 . S
C3576 C3571 1.342 . S
C3576 C3574 1.285 . S
C3576 H3595 0.930 . S
C3577 C3580 1.424 . S
C3577 C3582 1.245 . S
C3577 C3583 1.428 . S
C3578 C3581 1.260 . S
C3578 C3582 1.477 . S
C3578 H3596 0.932 . S
C3579 C3580 1.384 . S
C3579 C3581 1.479 . S
C3579 H3597 0.929 . S
C3580 C3577 1.424 . S
C3580 C3579 1.384 . S
C3580 H3598 0.928 . S
C3581 C3578 1.260 . S
C3581 C3579 1.479 . S
C3582 C3577 1.245 . S
C3582 C3578 1.477 . S
C3582 H3599 0.932 . S
C3583 U3566 2.882 . S
C3583 C3577 1.428 . S
C3583 O3586 1.301 . S
C3583 O3587 1.282 . S
O3584 U3566 2.441 . S
O3584 C3570 1.249 . S
O3585 U3566 2.420 . S
O3585 C3570 1.202 . S
O3586 U3566 2.455 . S
O3586 C3583 1.301 . S
O3587 U3566 2.449 . S
O3587 C3583 1.282 . S
H3588 C3561 0.931 . S
H3589 C3563 0.929 . S
H3590 C3564 0.930 . S
H3591 C3565 0.931 . S
H3592 C3572 0.932 . S
H3593 C3573 0.930 . S
H3594 C3574 0.929 . S
H3595 C3576 0.930 . S
H3596 C3578 0.932 . S
H3597 C3579 0.929 . S
H3598 C3580 0.928 . S
H3599 C3582 0.932 . S
C3600 C3601 1.264 . S
C3600 C3605 1.479 . S
C3600 C3610 1.465 . S
C3601 C3600 1.264 . S
C3601 C3603 1.339 . S
C3601 H3628 0.931 . S
C3602 C3603 1.395 . S
C3602 C3604 1.320 . S
C3603 C3601 1.339 . S
C3603 C3602 1.395 . S
C3603 H3629 0.929 . S
C3604 C3602 1.320 . S
C3604 C3605 1.405 . S
C3604 H3630 0.930 . S
C3605 C3600 1.479 . S
C3605 C3604 1.405 . S
C3605 H3631 0.931 . S
U3606 O3607 2.454 . S
U3606 O3608 2.458 . S
U3606 C3609 2.984 . S
U3606 C3610 2.847 . S
U3606 C3623 2.882 . S
U3606 O3624 2.441 . S
U3606 O3625 2.420 . S
U3606 O3626 2.455 . S
U3606 O3627 2.449 . S
O3607 U3606 2.454 . S
O3607 C3609 1.353 . S
O3608 U3606 2.458 . S
O3608 C3609 1.286 . S
C3609 U3606 2.984 . S
C3609 O3607 1.353 . S
C3609 O3608 1.286 . S
C3609 C3611 1.363 . S
C3610 C3600 1.465 . S
C3610 U3606 2.847 . S
C3610 O3624 1.249 . S
C3610 O3625 1.202 . S
C3611 C3609 1.363 . S
C3611 C3613 1.408 . S
C3611 C3616 1.342 . S
C3612 C3613 1.310 . S
C3612 C3615 1.461 . S
C3612 H3632 0.932 . S
C3613 C3611 1.408 . S
C3613 C3612 1.310 . S
C3613 H3633 0.930 . S
C3614 C3615 1.474 . S
C3614 C3616 1.285 . S
C3614 H3634 0.929 . S
C3615 C3612 1.461 . S
C3615 C3614 1.474 . S
C3616 C3611 1.342 . S
C3616 C3614 1.285 . S
C3616 H3635 0.930 . S
C3617 C3620 1.424 . S
C3617 C3622 1.245 . S
C3617 C3623 1.428 . S
C3618 C3621 1.260 . S
C3618 C3622 1.477 . S
C3618 H3636 0.932 . S
C3619 C3620 1.384 . S
C3619 C3621 1.479 . S
C3619 H3637 0.929 . S
C3620 C3617 1.424 . S
C3620 C3619 1.384 . S
C3620 H3638 0.928 . S
C3621 C3618 1.260 . S
C3621 C3619 1.479 . S
C3622 C3617 1.245 . S
C3622 C3618 1.477 . S
C3622 H3639 0.932 . S
C3623 U3606 2.882 . S
C3623 C3617 1.428 . S
C3623 O3626 1.301 . S
C3623 O3627 1.282 . S
O3624 U3606 2.441 . S
O3624 C3610 1.249 . S
O3625 U3606 2.420 . S
O3625 C3610 1.202 . S
O3626 U3606 2.455 . S
O3626 C3623 1.301 . S
O3627 U3606 2.449 . S
O3627 C3623 1.282 . S
H3628 C3601 0.931 . S
H3629 C3603 0.929 . S
H3630 C3604 0.930 . S
H3631 C3605 0.931 . S
H3632 C3612 0.932 . S
H3633 C3613 0.930 . S
H3634 C3614 0.929 . S
H3635 C3616 0.930 . S
H3636 C3618 0.932 . S
H3637 C3619 0.929 . S
H3638 C3620 0.928 . S
H3639 C3622 0.932 . S
C3640 C3641 1.264 . S
C3640 C3645 1.479 . S
C3640 C3650 1.465 . S
C3641 C3640 1.264 . S
C3641 C3643 1.339 . S
C3641 H3668 0.931 . S
C3642 C3643 1.395 . S
C3642 C3644 1.320 . S
C3643 C3641 1.339 . S
C3643 C3642 1.395 . S
C3643 H3669 0.929 . S
C3644 C3642 1.320 . S
C3644 C3645 1.405 . S
C3644 H3670 0.930 . S
C3645 C3640 1.479 . S
C3645 C3644 1.405 . S
C3645 H3671 0.931 . S
U3646 O3647 2.454 . S
U3646 O3648 2.458 . S
U3646 C3649 2.984 . S
U3646 C3650 2.847 . S
U3646 C3663 2.882 . S
U3646 O3664 2.441 . S
U3646 O3665 2.420 . S
U3646 O3666 2.455 . S
U3646 O3667 2.449 . S
O3647 U3646 2.454 . S
O3647 C3649 1.353 . S
O3648 U3646 2.458 . S
O3648 C3649 1.286 . S
C3649 U3646 2.984 . S
C3649 O3647 1.353 . S
C3649 O3648 1.286 . S
C3649 C3651 1.363 . S
C3650 C3640 1.465 . S
C3650 U3646 2.847 . S
C3650 O3664 1.249 . S
C3650 O3665 1.202 . S
C3651 C3649 1.363 . S
C3651 C3653 1.408 . S
C3651 C3656 1.342 . S
C3652 C3653 1.310 . S
C3652 C3655 1.461 . S
C3652 H3672 0.932 . S
C3653 C3651 1.408 . S
C3653 C3652 1.310 . S
C3653 H3673 0.930 . S
C3654 C3655 1.474 . S
C3654 C3656 1.285 . S
C3654 H3674 0.929 . S
C3655 C3652 1.461 . S
C3655 C3654 1.474 . S
C3656 C3651 1.342 . S
C3656 C3654 1.285 . S
C3656 H3675 0.930 . S
C3657 C3660 1.424 . S
C3657 C3662 1.245 . S
C3657 C3663 1.428 . S
C3658 C3661 1.260 . S
C3658 C3662 1.477 . S
C3658 H3676 0.932 . S
C3659 C3660 1.384 . S
C3659 C3661 1.479 . S
C3659 H3677 0.929 . S
C3660 C3657 1.424 . S
C3660 C3659 1.384 . S
C3660 H3678 0.928 . S
C3661 C3658 1.260 . S
C3661 C3659 1.479 . S
C3662 C3657 1.245 . S
C3662 C3658 1.477 . S
C3662 H3679 0.932 . S
C3663 U3646 2.882 . S
C3663 C3657 1.428 . S
C3663 O3666 1.301 . S
C3663 O3667 1.282 . S
O3664 U3646 2.441 . S
O3664 C3650 1.249 . S
O3665 U3646 2.420 . S
O3665 C3650 1.202 . S
O3666 U3646 2.455 . S
O3666 C3663 1.301 . S
O3667 U3646 2.449 . S
O3667 C3663 1.282 . S
H3668 C3641 0.931 . S
H3669 C3643 0.929 . S
H3670 C3644 0.930 . S
H3671 C3645 0.931 . S
H3672 C3652 0.932 . S
H3673 C3653 0.930 . S
H3674 C3654 0.929 . S
H3675 C3656 0.930 . S
H3676 C3658 0.932 . S
H3677 C3659 0.929 . S
H3678 C3660 0.928 . S
H3679 C3662 0.932 . S
C3680 C3681 1.264 . S
C3680 C3685 1.479 . S
C3680 C3690 1.465 . S
C3681 C3680 1.264 . S
C3681 C3683 1.339 . S
C3681 H3708 0.931 . S
C3682 C3683 1.395 . S
C3682 C3684 1.320 . S
C3683 C3681 1.339 . S
C3683 C3682 1.395 . S
C3683 H3709 0.929 . S
C3684 C3682 1.320 . S
C3684 C3685 1.405 . S
C3684 H3710 0.930 . S
C3685 C3680 1.479 . S
C3685 C3684 1.405 . S
C3685 H3711 0.931 . S
U3686 O3687 2.454 . S
U3686 O3688 2.458 . S
U3686 C3689 2.984 . S
U3686 C3690 2.847 . S
U3686 C3703 2.882 . S
U3686 O3704 2.441 . S
U3686 O3705 2.420 . S
U3686 O3706 2.455 . S
U3686 O3707 2.449 . S
O3687 U3686 2.454 . S
O3687 C3689 1.353 . S
O3688 U3686 2.458 . S
O3688 C3689 1.286 . S
C3689 U3686 2.984 . S
C3689 O3687 1.353 . S
C3689 O3688 1.286 . S
C3689 C3691 1.363 . S
C3690 C3680 1.465 . S
C3690 U3686 2.847 . S
C3690 O3704 1.249 . S
C3690 O3705 1.202 . S
C3691 C3689 1.363 . S
C3691 C3693 1.408 . S
C3691 C3696 1.342 . S
C3692 C3693 1.310 . S
C3692 C3695 1.461 . S
C3692 H3712 0.932 . S
C3693 C3691 1.408 . S
C3693 C3692 1.310 . S
C3693 H3713 0.930 . S
C3694 C3695 1.474 . S
C3694 C3696 1.285 . S
C3694 H3714 0.929 . S
C3695 C3692 1.461 . S
C3695 C3694 1.474 . S
C3696 C3691 1.342 . S
C3696 C3694 1.285 . S
C3696 H3715 0.930 . S
C3697 C3700 1.424 . S
C3697 C3702 1.245 . S
C3697 C3703 1.428 . S
C3698 C3701 1.260 . S
C3698 C3702 1.477 . S
C3698 H3716 0.932 . S
C3699 C3700 1.384 . S
C3699 C3701 1.479 . S
C3699 H3717 0.929 . S
C3700 C3697 1.424 . S
C3700 C3699 1.384 . S
C3700 H3718 0.928 . S
C3701 C3698 1.260 . S
C3701 C3699 1.479 . S
C3702 C3697 1.245 . S
C3702 C3698 1.477 . S
C3702 H3719 0.932 . S
C3703 U3686 2.882 . S
C3703 C3697 1.428 . S
C3703 O3706 1.301 . S
C3703 O3707 1.282 . S
O3704 U3686 2.441 . S
O3704 C3690 1.249 . S
O3705 U3686 2.420 . S
O3705 C3690 1.202 . S
O3706 U3686 2.455 . S
O3706 C3703 1.301 . S
O3707 U3686 2.449 . S
O3707 C3703 1.282 . S
H3708 C3681 0.931 . S
H3709 C3683 0.929 . S
H3710 C3684 0.930 . S
H3711 C3685 0.931 . S
H3712 C3692 0.932 . S
H3713 C3693 0.930 . S
H3714 C3694 0.929 . S
H3715 C3696 0.930 . S
H3716 C3698 0.932 . S
H3717 C3699 0.929 . S
H3718 C3700 0.928 . S
H3719 C3702 0.932 . S
C3720 C3721 1.264 . S
C3720 C3725 1.479 . S
C3720 C3730 1.465 . S
C3721 C3720 1.264 . S
C3721 C3723 1.339 . S
C3721 H3748 0.931 . S
C3722 C3723 1.395 . S
C3722 C3724 1.320 . S
C3723 C3721 1.339 . S
C3723 C3722 1.395 . S
C3723 H3749 0.929 . S
C3724 C3722 1.320 . S
C3724 C3725 1.405 . S
C3724 H3750 0.930 . S
C3725 C3720 1.479 . S
C3725 C3724 1.405 . S
C3725 H3751 0.931 . S
U3726 O3727 2.454 . S
U3726 O3728 2.458 . S
U3726 C3729 2.984 . S
U3726 C3730 2.847 . S
U3726 C3743 2.882 . S
U3726 O3744 2.441 . S
U3726 O3745 2.420 . S
U3726 O3746 2.455 . S
U3726 O3747 2.449 . S
O3727 U3726 2.454 . S
O3727 C3729 1.353 . S
O3728 U3726 2.458 . S
O3728 C3729 1.286 . S
C3729 U3726 2.984 . S
C3729 O3727 1.353 . S
C3729 O3728 1.286 . S
C3729 C3731 1.363 . S
C3730 C3720 1.465 . S
C3730 U3726 2.847 . S
C3730 O3744 1.249 . S
C3730 O3745 1.202 . S
C3731 C3729 1.363 . S
C3731 C3733 1.408 . S
C3731 C3736 1.342 . S
C3732 C3733 1.310 . S
C3732 C3735 1.461 . S
C3732 H3752 0.932 . S
C3733 C3731 1.408 . S
C3733 C3732 1.310 . S
C3733 H3753 0.930 . S
C3734 C3735 1.474 . S
C3734 C3736 1.285 . S
C3734 H3754 0.929 . S
C3735 C3732 1.461 . S
C3735 C3734 1.474 . S
C3736 C3731 1.342 . S
C3736 C3734 1.285 . S
C3736 H3755 0.930 . S
C3737 C3740 1.424 . S
C3737 C3742 1.245 . S
C3737 C3743 1.428 . S
C3738 C3741 1.260 . S
C3738 C3742 1.477 . S
C3738 H3756 0.932 . S
C3739 C3740 1.384 . S
C3739 C3741 1.479 . S
C3739 H3757 0.929 . S
C3740 C3737 1.424 . S
C3740 C3739 1.384 . S
C3740 H3758 0.928 . S
C3741 C3738 1.260 . S
C3741 C3739 1.479 . S
C3742 C3737 1.245 . S
C3742 C3738 1.477 . S
C3742 H3759 0.932 . S
C3743 U3726 2.882 . S
C3743 C3737 1.428 . S
C3743 O3746 1.301 . S
C3743 O3747 1.282 . S
O3744 U3726 2.441 . S
O3744 C3730 1.249 . S
O3745 U3726 2.420 . S
O3745 C3730 1.202 . S
O3746 U3726 2.455 . S
O3746 C3743 1.301 . S
O3747 U3726 2.449 . S
O3747 C3743 1.282 . S
H3748 C3721 0.931 . S
H3749 C3723 0.929 . S
H3750 C3724 0.930 . S
H3751 C3725 0.931 . S
H3752 C3732 0.932 . S
H3753 C3733 0.930 . S
H3754 C3734 0.929 . S
H3755 C3736 0.930 . S
H3756 C3738 0.932 . S
H3757 C3739 0.929 . S
H3758 C3740 0.928 . S
H3759 C3742 0.932 . S
C3760 C3761 1.264 . S
C3760 C3765 1.479 . S
C3760 C3770 1.465 . S
C3761 C3760 1.264 . S
C3761 C3763 1.339 . S
C3761 H3788 0.931 . S
C3762 C3763 1.395 . S
C3762 C3764 1.320 . S
C3763 C3761 1.339 . S
C3763 C3762 1.395 . S
C3763 H3789 0.929 . S
C3764 C3762 1.320 . S
C3764 C3765 1.405 . S
C3764 H3790 0.930 . S
C3765 C3760 1.479 . S
C3765 C3764 1.405 . S
C3765 H3791 0.931 . S
U3766 O3767 2.454 . S
U3766 O3768 2.458 . S
U3766 C3769 2.984 . S
U3766 C3770 2.847 . S
U3766 C3783 2.882 . S
U3766 O3784 2.441 . S
U3766 O3785 2.420 . S
U3766 O3786 2.455 . S
U3766 O3787 2.449 . S
O3767 U3766 2.454 . S
O3767 C3769 1.353 . S
O3768 U3766 2.458 . S
O3768 C3769 1.286 . S
C3769 U3766 2.984 . S
C3769 O3767 1.353 . S
C3769 O3768 1.286 . S
C3769 C3771 1.363 . S
C3770 C3760 1.465 . S
C3770 U3766 2.847 . S
C3770 O3784 1.249 . S
C3770 O3785 1.202 . S
C3771 C3769 1.363 . S
C3771 C3773 1.408 . S
C3771 C3776 1.342 . S
C3772 C3773 1.310 . S
C3772 C3775 1.461 . S
C3772 H3792 0.932 . S
C3773 C3771 1.408 . S
C3773 C3772 1.310 . S
C3773 H3793 0.930 . S
C3774 C3775 1.474 . S
C3774 C3776 1.285 . S
C3774 H3794 0.929 . S
C3775 C3772 1.461 . S
C3775 C3774 1.474 . S
C3776 C3771 1.342 . S
C3776 C3774 1.285 . S
C3776 H3795 0.930 . S
C3777 C3780 1.424 . S
C3777 C3782 1.245 . S
C3777 C3783 1.428 . S
C3778 C3781 1.260 . S
C3778 C3782 1.477 . S
C3778 H3796 0.932 . S
C3779 C3780 1.384 . S
C3779 C3781 1.479 . S
C3779 H3797 0.929 . S
C3780 C3777 1.424 . S
C3780 C3779 1.384 . S
C3780 H3798 0.928 . S
C3781 C3778 1.260 . S
C3781 C3779 1.479 . S
C3782 C3777 1.245 . S
C3782 C3778 1.477 . S
C3782 H3799 0.932 . S
C3783 U3766 2.882 . S
C3783 C3777 1.428 . S
C3783 O3786 1.301 . S
C3783 O3787 1.282 . S
O3784 U3766 2.441 . S
O3784 C3770 1.249 . S
O3785 U3766 2.420 . S
O3785 C3770 1.202 . S
O3786 U3766 2.455 . S
O3786 C3783 1.301 . S
O3787 U3766 2.449 . S
O3787 C3783 1.282 . S
H3788 C3761 0.931 . S
H3789 C3763 0.929 . S
H3790 C3764 0.930 . S
H3791 C3765 0.931 . S
H3792 C3772 0.932 . S
H3793 C3773 0.930 . S
H3794 C3774 0.929 . S
H3795 C3776 0.930 . S
H3796 C3778 0.932 . S
H3797 C3779 0.929 . S
H3798 C3780 0.928 . S
H3799 C3782 0.932 . S
C3800 C3801 1.264 . S
C3800 C3805 1.479 . S
C3800 C3810 1.465 . S
C3801 C3800 1.264 . S
C3801 C3803 1.339 . S
C3801 H3828 0.931 . S
C3802 C3803 1.395 . S
C3802 C3804 1.320 . S
C3803 C3801 1.339 . S
C3803 C3802 1.395 . S
C3803 H3829 0.929 . S
C3804 C3802 1.320 . S
C3804 C3805 1.405 . S
C3804 H3830 0.930 . S
C3805 C3800 1.479 . S
C3805 C3804 1.405 . S
C3805 H3831 0.931 . S
U3806 O3807 2.454 . S
U3806 O3808 2.458 . S
U3806 C3809 2.984 . S
U3806 C3810 2.847 . S
U3806 C3823 2.882 . S
U3806 O3824 2.441 . S
U3806 O3825 2.420 . S
U3806 O3826 2.455 . S
U3806 O3827 2.449 . S
O3807 U3806 2.454 . S
O3807 C3809 1.353 . S
O3808 U3806 2.458 . S
O3808 C3809 1.286 . S
C3809 U3806 2.984 . S
C3809 O3807 1.353 . S
C3809 O3808 1.286 . S
C3809 C3811 1.363 . S
C3810 C3800 1.465 . S
C3810 U3806 2.847 . S
C3810 O3824 1.249 . S
C3810 O3825 1.202 . S
C3811 C3809 1.363 . S
C3811 C3813 1.408 . S
C3811 C3816 1.342 . S
C3812 C3813 1.310 . S
C3812 C3815 1.461 . S
C3812 H3832 0.932 . S
C3813 C3811 1.408 . S
C3813 C3812 1.310 . S
C3813 H3833 0.930 . S
C3814 C3815 1.474 . S
C3814 C3816 1.285 . S
C3814 H3834 0.929 . S
C3815 C3812 1.461 . S
C3815 C3814 1.474 . S
C3816 C3811 1.342 . S
C3816 C3814 1.285 . S
C3816 H3835 0.930 . S
C3817 C3820 1.424 . S
C3817 C3822 1.245 . S
C3817 C3823 1.428 . S
C3818 C3821 1.260 . S
C3818 C3822 1.477 . S
C3818 H3836 0.932 . S
C3819 C3820 1.384 . S
C3819 C3821 1.479 . S
C3819 H3837 0.929 . S
C3820 C3817 1.424 . S
C3820 C3819 1.384 . S
C3820 H3838 0.928 . S
C3821 C3818 1.260 . S
C3821 C3819 1.479 . S
C3822 C3817 1.245 . S
C3822 C3818 1.477 . S
C3822 H3839 0.932 . S
C3823 U3806 2.882 . S
C3823 C3817 1.428 . S
C3823 O3826 1.301 . S
C3823 O3827 1.282 . S
O3824 U3806 2.441 . S
O3824 C3810 1.249 . S
O3825 U3806 2.420 . S
O3825 C3810 1.202 . S
O3826 U3806 2.455 . S
O3826 C3823 1.301 . S
O3827 U3806 2.449 . S
O3827 C3823 1.282 . S
H3828 C3801 0.931 . S
H3829 C3803 0.929 . S
H3830 C3804 0.930 . S
H3831 C3805 0.931 . S
H3832 C3812 0.932 . S
H3833 C3813 0.930 . S
H3834 C3814 0.929 . S
H3835 C3816 0.930 . S
H3836 C3818 0.932 . S
H3837 C3819 0.929 . S
H3838 C3820 0.928 . S
H3839 C3822 0.932 . S
H3840 C3843 0.929 . S
H3841 C3846 0.929 . S
H3842 C3848 0.930 . S
C3843 H3840 0.929 . S
C3843 C3844 1.398 . S
C3843 C3845 1.396 . S
C3844 C3843 1.398 . S
C3844 C3848 1.407 . S
C3845 C3843 1.396 . S
C3845 C3846 1.394 . S
C3846 H3841 0.929 . S
C3846 C3845 1.394 . S
C3846 C3847 1.382 . S
C3847 C3846 1.382 . S
C3847 C3848 1.392 . S
C3847 N3849 1.420 . S
C3848 H3842 0.930 . S
C3848 C3844 1.407 . S
C3848 C3847 1.392 . S
N3849 C3847 1.420 . S
N3849 C3850 1.244 . S
C3850 N3849 1.244 . S
H3851 C3854 0.929 . S
H3852 C3857 0.929 . S
H3853 C3859 0.930 . S
C3854 H3851 0.929 . S
C3854 C3855 1.398 . S
C3854 C3856 1.396 . S
C3855 C3854 1.398 . S
C3855 C3859 1.407 . S
C3856 C3854 1.396 . S
C3856 C3857 1.394 . S
C3857 H3852 0.929 . S
C3857 C3856 1.394 . S
C3857 C3858 1.382 . S
C3858 C3857 1.382 . S
C3858 C3859 1.392 . S
C3858 N3860 1.420 . S
C3859 H3853 0.930 . S
C3859 C3855 1.407 . S
C3859 C3858 1.392 . S
N3860 C3858 1.420 . S
N3860 C3861 1.244 . S
C3861 N3860 1.244 . S
H3862 C3865 0.929 . S
H3863 C3868 0.929 . S
H3864 C3870 0.930 . S
C3865 H3862 0.929 . S
C3865 C3866 1.398 . S
C3865 C3867 1.396 . S
C3866 C3865 1.398 . S
C3866 C3870 1.407 . S
C3867 C3865 1.396 . S
C3867 C3868 1.394 . S
C3868 H3863 0.929 . S
C3868 C3867 1.394 . S
C3868 C3869 1.382 . S
C3869 C3868 1.382 . S
C3869 C3870 1.392 . S
C3869 N3871 1.420 . S
C3870 H3864 0.930 . S
C3870 C3866 1.407 . S
C3870 C3869 1.392 . S
N3871 C3869 1.420 . S
N3871 C3872 1.244 . S
C3872 N3871 1.244 . S
H3873 C3876 0.929 . S
H3874 C3879 0.929 . S
H3875 C3881 0.930 . S
C3876 H3873 0.929 . S
C3876 C3877 1.398 . S
C3876 C3878 1.396 . S
C3877 C3876 1.398 . S
C3877 C3881 1.407 . S
C3878 C3876 1.396 . S
C3878 C3879 1.394 . S
C3879 H3874 0.929 . S
C3879 C3878 1.394 . S
C3879 C3880 1.382 . S
C3880 C3879 1.382 . S
C3880 C3881 1.392 . S
C3880 N3882 1.420 . S
C3881 H3875 0.930 . S
C3881 C3877 1.407 . S
C3881 C3880 1.392 . S
N3882 C3880 1.420 . S
N3882 C3883 1.244 . S
C3883 N3882 1.244 . S
H3884 C3887 0.929 . S
H3885 C3890 0.929 . S
H3886 C3892 0.930 . S
C3887 H3884 0.929 . S
C3887 C3888 1.398 . S
C3887 C3889 1.396 . S
C3888 C3887 1.398 . S
C3888 C3892 1.407 . S
C3889 C3887 1.396 . S
C3889 C3890 1.394 . S
C3890 H3885 0.929 . S
C3890 C3889 1.394 . S
C3890 C3891 1.382 . S
C3891 C3890 1.382 . S
C3891 C3892 1.392 . S
C3891 N3893 1.420 . S
C3892 H3886 0.930 . S
C3892 C3888 1.407 . S
C3892 C3891 1.392 . S
N3893 C3891 1.420 . S
N3893 C3894 1.244 . S
C3894 N3893 1.244 . S
H3895 C3898 0.929 . S
H3896 C3901 0.929 . S
H3897 C3903 0.930 . S
C3898 H3895 0.929 . S
C3898 C3899 1.398 . S
C3898 C3900 1.396 . S
C3899 C3898 1.398 . S
C3899 C3903 1.407 . S
C3900 C3898 1.396 . S
C3900 C3901 1.394 . S
C3901 H3896 0.929 . S
C3901 C3900 1.394 . S
C3901 C3902 1.382 . S
C3902 C3901 1.382 . S
C3902 C3903 1.392 . S
C3902 N3904 1.420 . S
C3903 H3897 0.930 . S
C3903 C3899 1.407 . S
C3903 C3902 1.392 . S
N3904 C3902 1.420 . S
N3904 C3905 1.244 . S
C3905 N3904 1.244 . S
H3906 C3909 0.929 . S
H3907 C3912 0.929 . S
H3908 C3914 0.930 . S
C3909 H3906 0.929 . S
C3909 C3910 1.398 . S
C3909 C3911 1.396 . S
C3910 C3909 1.398 . S
C3910 C3914 1.407 . S
C3911 C3909 1.396 . S
C3911 C3912 1.394 . S
C3912 H3907 0.929 . S
C3912 C3911 1.394 . S
C3912 C3913 1.382 . S
C3913 C3912 1.382 . S
C3913 C3914 1.392 . S
C3913 N3915 1.420 . S
C3914 H3908 0.930 . S
C3914 C3910 1.407 . S
C3914 C3913 1.392 . S
N3915 C3913 1.420 . S
N3915 C3916 1.244 . S
C3916 N3915 1.244 . S
H3917 C3920 0.929 . S
H3918 C3923 0.929 . S
H3919 C3925 0.930 . S
C3920 H3917 0.929 . S
C3920 C3921 1.398 . S
C3920 C3922 1.396 . S
C3921 C3920 1.398 . S
C3921 C3925 1.407 . S
C3922 C3920 1.396 . S
C3922 C3923 1.394 . S
C3923 H3918 0.929 . S
C3923 C3922 1.394 . S
C3923 C3924 1.382 . S
C3924 C3923 1.382 . S
C3924 C3925 1.392 . S
C3924 N3926 1.420 . S
C3925 H3919 0.930 . S
C3925 C3921 1.407 . S
C3925 C3924 1.392 . S
N3926 C3924 1.420 . S
N3926 C3927 1.244 . S
C3927 N3926 1.244 . S
H3928 C3931 0.929 . S
H3929 C3934 0.929 . S
H3930 C3936 0.930 . S
C3931 H3928 0.929 . S
C3931 C3932 1.398 . S
C3931 C3933 1.396 . S
C3932 C3931 1.398 . S
C3932 C3936 1.407 . S
C3933 C3931 1.396 . S
C3933 C3934 1.394 . S
C3934 H3929 0.929 . S
C3934 C3933 1.394 . S
C3934 C3935 1.382 . S
C3935 C3934 1.382 . S
C3935 C3936 1.392 . S
C3935 N3937 1.420 . S
C3936 H3930 0.930 . S
C3936 C3932 1.407 . S
C3936 C3935 1.392 . S
N3937 C3935 1.420 . S
N3937 C3938 1.244 . S
C3938 N3937 1.244 . S
H3939 C3942 0.929 . S
H3940 C3945 0.929 . S
H3941 C3947 0.930 . S
C3942 H3939 0.929 . S
C3942 C3943 1.398 . S
C3942 C3944 1.396 . S
C3943 C3942 1.398 . S
C3943 C3947 1.407 . S
C3944 C3942 1.396 . S
C3944 C3945 1.394 . S
C3945 H3940 0.929 . S
C3945 C3944 1.394 . S
C3945 C3946 1.382 . S
C3946 C3945 1.382 . S
C3946 C3947 1.392 . S
C3946 N3948 1.420 . S
C3947 H3941 0.930 . S
C3947 C3943 1.407 . S
C3947 C3946 1.392 . S
N3948 C3946 1.420 . S
N3948 C3949 1.244 . S
C3949 N3948 1.244 . S
H3950 C3953 0.929 . S
H3951 C3956 0.929 . S
H3952 C3958 0.930 . S
C3953 H3950 0.929 . S
C3953 C3954 1.398 . S
C3953 C3955 1.396 . S
C3954 C3953 1.398 . S
C3954 C3958 1.407 . S
C3955 C3953 1.396 . S
C3955 C3956 1.394 . S
C3956 H3951 0.929 . S
C3956 C3955 1.394 . S
C3956 C3957 1.382 . S
C3957 C3956 1.382 . S
C3957 C3958 1.392 . S
C3957 N3959 1.420 . S
C3958 H3952 0.930 . S
C3958 C3954 1.407 . S
C3958 C3957 1.392 . S
N3959 C3957 1.420 . S
N3959 C3960 1.244 . S
C3960 N3959 1.244 . S
H3961 C3964 0.929 . S
H3962 C3967 0.929 . S
H3963 C3969 0.930 . S
C3964 H3961 0.929 . S
C3964 C3965 1.398 . S
C3964 C3966 1.396 . S
C3965 C3964 1.398 . S
C3965 C3969 1.407 . S
C3966 C3964 1.396 . S
C3966 C3967 1.394 . S
C3967 H3962 0.929 . S
C3967 C3966 1.394 . S
C3967 C3968 1.382 . S
C3968 C3967 1.382 . S
C3968 C3969 1.392 . S
C3968 N3970 1.420 . S
C3969 H3963 0.930 . S
C3969 C3965 1.407 . S
C3969 C3968 1.392 . S
N3970 C3968 1.420 . S
N3970 C3971 1.244 . S
C3971 N3970 1.244 . S
H3972 C3975 0.929 . S
H3973 C3978 0.929 . S
H3974 C3980 0.930 . S
C3975 H3972 0.929 . S
C3975 C3976 1.398 . S
C3975 C3977 1.396 . S
C3976 C3975 1.398 . S
C3976 C3980 1.407 . S
C3977 C3975 1.396 . S
C3977 C3978 1.394 . S
C3978 H3973 0.929 . S
C3978 C3977 1.394 . S
C3978 C3979 1.382 . S
C3979 C3978 1.382 . S
C3979 C3980 1.392 . S
C3979 N3981 1.420 . S
C3980 H3974 0.930 . S
C3980 C3976 1.407 . S
C3980 C3979 1.392 . S
N3981 C3979 1.420 . S
N3981 C3982 1.244 . S
C3982 N3981 1.244 . S
H3983 C3986 0.929 . S
H3984 C3989 0.929 . S
H3985 C3991 0.930 . S
C3986 H3983 0.929 . S
C3986 C3987 1.398 . S
C3986 C3988 1.396 . S
C3987 C3986 1.398 . S
C3987 C3991 1.407 . S
C3988 C3986 1.396 . S
C3988 C3989 1.394 . S
C3989 H3984 0.929 . S
C3989 C3988 1.394 . S
C3989 C3990 1.382 . S
C3990 C3989 1.382 . S
C3990 C3991 1.392 . S
C3990 N3992 1.420 . S
C3991 H3985 0.930 . S
C3991 C3987 1.407 . S
C3991 C3990 1.392 . S
N3992 C3990 1.420 . S
N3992 C3993 1.244 . S
C3993 N3992 1.244 . S
H3994 C3997 0.929 . S
H3995 C4000 0.929 . S
H3996 C4002 0.930 . S
C3997 H3994 0.929 . S
C3997 C3998 1.398 . S
C3997 C3999 1.396 . S
C3998 C3997 1.398 . S
C3998 C4002 1.407 . S
C3999 C3997 1.396 . S
C3999 C4000 1.394 . S
C4000 H3995 0.929 . S
C4000 C3999 1.394 . S
C4000 C4001 1.382 . S
C4001 C4000 1.382 . S
C4001 C4002 1.392 . S
C4001 N4003 1.420 . S
C4002 H3996 0.930 . S
C4002 C3998 1.407 . S
C4002 C4001 1.392 . S
N4003 C4001 1.420 . S
N4003 C4004 1.244 . S
C4004 N4003 1.244 . S
H4005 C4008 0.929 . S
H4006 C4011 0.929 . S
H4007 C4013 0.930 . S
C4008 H4005 0.929 . S
C4008 C4009 1.398 . S
C4008 C4010 1.396 . S
C4009 C4008 1.398 . S
C4009 C4013 1.407 . S
C4010 C4008 1.396 . S
C4010 C4011 1.394 . S
C4011 H4006 0.929 . S
C4011 C4010 1.394 . S
C4011 C4012 1.382 . S
C4012 C4011 1.382 . S
C4012 C4013 1.392 . S
C4012 N4014 1.420 . S
C4013 H4007 0.930 . S
C4013 C4009 1.407 . S
C4013 C4012 1.392 . S
N4014 C4012 1.420 . S
N4014 C4015 1.244 . S
C4015 N4014 1.244 . S
H4016 C4019 0.929 . S
H4017 C4022 0.929 . S
H4018 C4024 0.930 . S
C4019 H4016 0.929 . S
C4019 C4020 1.398 . S
C4019 C4021 1.396 . S
C4020 C4019 1.398 . S
C4020 C4024 1.407 . S
C4021 C4019 1.396 . S
C4021 C4022 1.394 . S
C4022 H4017 0.929 . S
C4022 C4021 1.394 . S
C4022 C4023 1.382 . S
C4023 C4022 1.382 . S
C4023 C4024 1.392 . S
C4023 N4025 1.420 . S
C4024 H4018 0.930 . S
C4024 C4020 1.407 . S
C4024 C4023 1.392 . S
N4025 C4023 1.420 . S
N4025 C4026 1.244 . S
C4026 N4025 1.244 . S
H4027 C4030 0.929 . S
H4028 C4033 0.929 . S
H4029 C4035 0.930 . S
C4030 H4027 0.929 . S
C4030 C4031 1.398 . S
C4030 C4032 1.396 . S
C4031 C4030 1.398 . S
C4031 C4035 1.407 . S
C4032 C4030 1.396 . S
C4032 C4033 1.394 . S
C4033 H4028 0.929 . S
C4033 C4032 1.394 . S
C4033 C4034 1.382 . S
C4034 C4033 1.382 . S
C4034 C4035 1.392 . S
C4034 N4036 1.420 . S
C4035 H4029 0.930 . S
C4035 C4031 1.407 . S
C4035 C4034 1.392 . S
N4036 C4034 1.420 . S
N4036 C4037 1.244 . S
C4037 N4036 1.244 . S
H4038 C4041 0.929 . S
H4039 C4044 0.929 . S
H4040 C4046 0.930 . S
C4041 H4038 0.929 . S
C4041 C4042 1.398 . S
C4041 C4043 1.396 . S
C4042 C4041 1.398 . S
C4042 C4046 1.407 . S
C4043 C4041 1.396 . S
C4043 C4044 1.394 . S
C4044 H4039 0.929 . S
C4044 C4043 1.394 . S
C4044 C4045 1.382 . S
C4045 C4044 1.382 . S
C4045 C4046 1.392 . S
C4045 N4047 1.420 . S
C4046 H4040 0.930 . S
C4046 C4042 1.407 . S
C4046 C4045 1.392 . S
N4047 C4045 1.420 . S
N4047 C4048 1.244 . S
C4048 N4047 1.244 . S
H4049 C4052 0.929 . S
H4050 C4055 0.929 . S
H4051 C4057 0.930 . S
C4052 H4049 0.929 . S
C4052 C4053 1.398 . S
C4052 C4054 1.396 . S
C4053 C4052 1.398 . S
C4053 C4057 1.407 . S
C4054 C4052 1.396 . S
C4054 C4055 1.394 . S
C4055 H4050 0.929 . S
C4055 C4054 1.394 . S
C4055 C4056 1.382 . S
C4056 C4055 1.382 . S
C4056 C4057 1.392 . S
C4056 N4058 1.420 . S
C4057 H4051 0.930 . S
C4057 C4053 1.407 . S
C4057 C4056 1.392 . S
N4058 C4056 1.420 . S
N4058 C4059 1.244 . S
C4059 N4058 1.244 . S
H4060 C4063 0.929 . S
H4061 C4066 0.929 . S
H4062 C4068 0.930 . S
C4063 H4060 0.929 . S
C4063 C4064 1.398 . S
C4063 C4065 1.396 . S
C4064 C4063 1.398 . S
C4064 C4068 1.407 . S
C4065 C4063 1.396 . S
C4065 C4066 1.394 . S
C4066 H4061 0.929 . S
C4066 C4065 1.394 . S
C4066 C4067 1.382 . S
C4067 C4066 1.382 . S
C4067 C4068 1.392 . S
C4067 N4069 1.420 . S
C4068 H4062 0.930 . S
C4068 C4064 1.407 . S
C4068 C4067 1.392 . S
N4069 C4067 1.420 . S
N4069 C4070 1.244 . S
C4070 N4069 1.244 . S
H4071 C4074 0.929 . S
H4072 C4077 0.929 . S
H4073 C4079 0.930 . S
C4074 H4071 0.929 . S
C4074 C4075 1.398 . S
C4074 C4076 1.396 . S
C4075 C4074 1.398 . S
C4075 C4079 1.407 . S
C4076 C4074 1.396 . S
C4076 C4077 1.394 . S
C4077 H4072 0.929 . S
C4077 C4076 1.394 . S
C4077 C4078 1.382 . S
C4078 C4077 1.382 . S
C4078 C4079 1.392 . S
C4078 N4080 1.420 . S
C4079 H4073 0.930 . S
C4079 C4075 1.407 . S
C4079 C4078 1.392 . S
N4080 C4078 1.420 . S
N4080 C4081 1.244 . S
C4081 N4080 1.244 . S
H4082 C4085 0.929 . S
H4083 C4088 0.929 . S
H4084 C4090 0.930 . S
C4085 H4082 0.929 . S
C4085 C4086 1.398 . S
C4085 C4087 1.396 . S
C4086 C4085 1.398 . S
C4086 C4090 1.407 . S
C4087 C4085 1.396 . S
C4087 C4088 1.394 . S
C4088 H4083 0.929 . S
C4088 C4087 1.394 . S
C4088 C4089 1.382 . S
C4089 C4088 1.382 . S
C4089 C4090 1.392 . S
C4089 N4091 1.420 . S
C4090 H4084 0.930 . S
C4090 C4086 1.407 . S
C4090 C4089 1.392 . S
N4091 C4089 1.420 . S
N4091 C4092 1.244 . S
C4092 N4091 1.244 . S
H4093 C4096 0.929 . S
H4094 C4099 0.929 . S
H4095 C4101 0.930 . S
C4096 H4093 0.929 . S
C4096 C4097 1.398 . S
C4096 C4098 1.396 . S
C4097 C4096 1.398 . S
C4097 C4101 1.407 . S
C4098 C4096 1.396 . S
C4098 C4099 1.394 . S
C4099 H4094 0.929 . S
C4099 C4098 1.394 . S
C4099 C4100 1.382 . S
C4100 C4099 1.382 . S
C4100 C4101 1.392 . S
C4100 N4102 1.420 . S
C4101 H4095 0.930 . S
C4101 C4097 1.407 . S
C4101 C4100 1.392 . S
N4102 C4100 1.420 . S
N4102 C4103 1.244 . S
C4103 N4102 1.244 . S
H4104 C4107 0.929 . S
H4105 C4110 0.929 . S
H4106 C4112 0.930 . S
C4107 H4104 0.929 . S
C4107 C4108 1.398 . S
C4107 C4109 1.396 . S
C4108 C4107 1.398 . S
C4108 C4112 1.407 . S
C4109 C4107 1.396 . S
C4109 C4110 1.394 . S
C4110 H4105 0.929 . S
C4110 C4109 1.394 . S
C4110 C4111 1.382 . S
C4111 C4110 1.382 . S
C4111 C4112 1.392 . S
C4111 N4113 1.420 . S
C4112 H4106 0.930 . S
C4112 C4108 1.407 . S
C4112 C4111 1.392 . S
N4113 C4111 1.420 . S
N4113 C4114 1.244 . S
C4114 N4113 1.244 . S
H4115 C4118 0.929 . S
H4116 C4121 0.929 . S
H4117 C4123 0.930 . S
C4118 H4115 0.929 . S
C4118 C4119 1.398 . S
C4118 C4120 1.396 . S
C4119 C4118 1.398 . S
C4119 C4123 1.407 . S
C4120 C4118 1.396 . S
C4120 C4121 1.394 . S
C4121 H4116 0.929 . S
C4121 C4120 1.394 . S
C4121 C4122 1.382 . S
C4122 C4121 1.382 . S
C4122 C4123 1.392 . S
C4122 N4124 1.420 . S
C4123 H4117 0.930 . S
C4123 C4119 1.407 . S
C4123 C4122 1.392 . S
N4124 C4122 1.420 . S
N4124 C4125 1.244 . S
C4125 N4124 1.244 . S
H4126 C4129 0.929 . S
H4127 C4132 0.929 . S
H4128 C4134 0.930 . S
C4129 H4126 0.929 . S
C4129 C4130 1.398 . S
C4129 C4131 1.396 . S
C4130 C4129 1.398 . S
C4130 C4134 1.407 . S
C4131 C4129 1.396 . S
C4131 C4132 1.394 . S
C4132 H4127 0.929 . S
C4132 C4131 1.394 . S
C4132 C4133 1.382 . S
C4133 C4132 1.382 . S
C4133 C4134 1.392 . S
C4133 N4135 1.420 . S
C4134 H4128 0.930 . S
C4134 C4130 1.407 . S
C4134 C4133 1.392 . S
N4135 C4133 1.420 . S
N4135 C4136 1.244 . S
C4136 N4135 1.244 . S
H4137 C4140 0.929 . S
H4138 C4143 0.929 . S
H4139 C4145 0.930 . S
C4140 H4137 0.929 . S
C4140 C4141 1.398 . S
C4140 C4142 1.396 . S
C4141 C4140 1.398 . S
C4141 C4145 1.407 . S
C4142 C4140 1.396 . S
C4142 C4143 1.394 . S
C4143 H4138 0.929 . S
C4143 C4142 1.394 . S
C4143 C4144 1.382 . S
C4144 C4143 1.382 . S
C4144 C4145 1.392 . S
C4144 N4146 1.420 . S
C4145 H4139 0.930 . S
C4145 C4141 1.407 . S
C4145 C4144 1.392 . S
N4146 C4144 1.420 . S
N4146 C4147 1.244 . S
C4147 N4146 1.244 . S
H4148 C4151 0.929 . S
H4149 C4154 0.929 . S
H4150 C4156 0.930 . S
C4151 H4148 0.929 . S
C4151 C4152 1.398 . S
C4151 C4153 1.396 . S
C4152 C4151 1.398 . S
C4152 C4156 1.407 . S
C4153 C4151 1.396 . S
C4153 C4154 1.394 . S
C4154 H4149 0.929 . S
C4154 C4153 1.394 . S
C4154 C4155 1.382 . S
C4155 C4154 1.382 . S
C4155 C4156 1.392 . S
C4155 N4157 1.420 . S
C4156 H4150 0.930 . S
C4156 C4152 1.407 . S
C4156 C4155 1.392 . S
N4157 C4155 1.420 . S
N4157 C4158 1.244 . S
C4158 N4157 1.244 . S
H4159 C4162 0.929 . S
H4160 C4165 0.929 . S
H4161 C4167 0.930 . S
C4162 H4159 0.929 . S
C4162 C4163 1.398 . S
C4162 C4164 1.396 . S
C4163 C4162 1.398 . S
C4163 C4167 1.407 . S
C4164 C4162 1.396 . S
C4164 C4165 1.394 . S
C4165 H4160 0.929 . S
C4165 C4164 1.394 . S
C4165 C4166 1.382 . S
C4166 C4165 1.382 . S
C4166 C4167 1.392 . S
C4166 N4168 1.420 . S
C4167 H4161 0.930 . S
C4167 C4163 1.407 . S
C4167 C4166 1.392 . S
N4168 C4166 1.420 . S
N4168 C4169 1.244 . S
C4169 N4168 1.244 . S
H4170 C4173 0.929 . S
H4171 C4176 0.929 . S
H4172 C4178 0.930 . S
C4173 H4170 0.929 . S
C4173 C4174 1.398 . S
C4173 C4175 1.396 . S
C4174 C4173 1.398 . S
C4174 C4178 1.407 . S
C4175 C4173 1.396 . S
C4175 C4176 1.394 . S
C4176 H4171 0.929 . S
C4176 C4175 1.394 . S
C4176 C4177 1.382 . S
C4177 C4176 1.382 . S
C4177 C4178 1.392 . S
C4177 N4179 1.420 . S
C4178 H4172 0.930 . S
C4178 C4174 1.407 . S
C4178 C4177 1.392 . S
N4179 C4177 1.420 . S
N4179 C4180 1.244 . S
C4180 N4179 1.244 . S
H4181 C4184 0.929 . S
H4182 C4187 0.929 . S
H4183 C4189 0.930 . S
C4184 H4181 0.929 . S
C4184 C4185 1.398 . S
C4184 C4186 1.396 . S
C4185 C4184 1.398 . S
C4185 C4189 1.407 . S
C4186 C4184 1.396 . S
C4186 C4187 1.394 . S
C4187 H4182 0.929 . S
C4187 C4186 1.394 . S
C4187 C4188 1.382 . S
C4188 C4187 1.382 . S
C4188 C4189 1.392 . S
C4188 N4190 1.420 . S
C4189 H4183 0.930 . S
C4189 C4185 1.407 . S
C4189 C4188 1.392 . S
N4190 C4188 1.420 . S
N4190 C4191 1.244 . S
C4191 N4190 1.244 . S
H4192 C4195 0.929 . S
H4193 C4198 0.929 . S
H4194 C4200 0.930 . S
C4195 H4192 0.929 . S
C4195 C4196 1.398 . S
C4195 C4197 1.396 . S
C4196 C4195 1.398 . S
C4196 C4200 1.407 . S
C4197 C4195 1.396 . S
C4197 C4198 1.394 . S
C4198 H4193 0.929 . S
C4198 C4197 1.394 . S
C4198 C4199 1.382 . S
C4199 C4198 1.382 . S
C4199 C4200 1.392 . S
C4199 N4201 1.420 . S
C4200 H4194 0.930 . S
C4200 C4196 1.407 . S
C4200 C4199 1.392 . S
N4201 C4199 1.420 . S
N4201 C4202 1.244 . S
C4202 N4201 1.244 . S
H4203 C4206 0.929 . S
H4204 C4209 0.929 . S
H4205 C4211 0.930 . S
C4206 H4203 0.929 . S
C4206 C4207 1.398 . S
C4206 C4208 1.396 . S
C4207 C4206 1.398 . S
C4207 C4211 1.407 . S
C4208 C4206 1.396 . S
C4208 C4209 1.394 . S
C4209 H4204 0.929 . S
C4209 C4208 1.394 . S
C4209 C4210 1.382 . S
C4210 C4209 1.382 . S
C4210 C4211 1.392 . S
C4210 N4212 1.420 . S
C4211 H4205 0.930 . S
C4211 C4207 1.407 . S
C4211 C4210 1.392 . S
N4212 C4210 1.420 . S
N4212 C4213 1.244 . S
C4213 N4212 1.244 . S
H4214 C4217 0.929 . S
H4215 C4220 0.929 . S
H4216 C4222 0.930 . S
C4217 H4214 0.929 . S
C4217 C4218 1.398 . S
C4217 C4219 1.396 . S
C4218 C4217 1.398 . S
C4218 C4222 1.407 . S
C4219 C4217 1.396 . S
C4219 C4220 1.394 . S
C4220 H4215 0.929 . S
C4220 C4219 1.394 . S
C4220 C4221 1.382 . S
C4221 C4220 1.382 . S
C4221 C4222 1.392 . S
C4221 N4223 1.420 . S
C4222 H4216 0.930 . S
C4222 C4218 1.407 . S
C4222 C4221 1.392 . S
N4223 C4221 1.420 . S
N4223 C4224 1.244 . S
C4224 N4223 1.244 . S
H4225 C4228 0.929 . S
H4226 C4231 0.929 . S
H4227 C4233 0.930 . S
C4228 H4225 0.929 . S
C4228 C4229 1.398 . S
C4228 C4230 1.396 . S
C4229 C4228 1.398 . S
C4229 C4233 1.407 . S
C4230 C4228 1.396 . S
C4230 C4231 1.394 . S
C4231 H4226 0.929 . S
C4231 C4230 1.394 . S
C4231 C4232 1.382 . S
C4232 C4231 1.382 . S
C4232 C4233 1.392 . S
C4232 N4234 1.420 . S
C4233 H4227 0.930 . S
C4233 C4229 1.407 . S
C4233 C4232 1.392 . S
N4234 C4232 1.420 . S
N4234 C4235 1.244 . S
C4235 N4234 1.244 . S
H4236 C4239 0.929 . S
H4237 C4242 0.929 . S
H4238 C4244 0.930 . S
C4239 H4236 0.929 . S
C4239 C4240 1.398 . S
C4239 C4241 1.396 . S
C4240 C4239 1.398 . S
C4240 C4244 1.407 . S
C4241 C4239 1.396 . S
C4241 C4242 1.394 . S
C4242 H4237 0.929 . S
C4242 C4241 1.394 . S
C4242 C4243 1.382 . S
C4243 C4242 1.382 . S
C4243 C4244 1.392 . S
C4243 N4245 1.420 . S
C4244 H4238 0.930 . S
C4244 C4240 1.407 . S
C4244 C4243 1.392 . S
N4245 C4243 1.420 . S
N4245 C4246 1.244 . S
C4246 N4245 1.244 . S
H4247 C4250 0.929 . S
H4248 C4253 0.929 . S
H4249 C4255 0.930 . S
C4250 H4247 0.929 . S
C4250 C4251 1.398 . S
C4250 C4252 1.396 . S
C4251 C4250 1.398 . S
C4251 C4255 1.407 . S
C4252 C4250 1.396 . S
C4252 C4253 1.394 . S
C4253 H4248 0.929 . S
C4253 C4252 1.394 . S
C4253 C4254 1.382 . S
C4254 C4253 1.382 . S
C4254 C4255 1.392 . S
C4254 N4256 1.420 . S
C4255 H4249 0.930 . S
C4255 C4251 1.407 . S
C4255 C4254 1.392 . S
N4256 C4254 1.420 . S
N4256 C4257 1.244 . S
C4257 N4256 1.244 . S
H4258 C4261 0.929 . S
H4259 C4264 0.929 . S
H4260 C4266 0.930 . S
C4261 H4258 0.929 . S
C4261 C4262 1.398 . S
C4261 C4263 1.396 . S
C4262 C4261 1.398 . S
C4262 C4266 1.407 . S
C4263 C4261 1.396 . S
C4263 C4264 1.394 . S
C4264 H4259 0.929 . S
C4264 C4263 1.394 . S
C4264 C4265 1.382 . S
C4265 C4264 1.382 . S
C4265 C4266 1.392 . S
C4265 N4267 1.420 . S
C4266 H4260 0.930 . S
C4266 C4262 1.407 . S
C4266 C4265 1.392 . S
N4267 C4265 1.420 . S
N4267 C4268 1.244 . S
C4268 N4267 1.244 . S
H4269 C4272 0.929 . S
H4270 C4275 0.929 . S
H4271 C4277 0.930 . S
C4272 H4269 0.929 . S
C4272 C4273 1.398 . S
C4272 C4274 1.396 . S
C4273 C4272 1.398 . S
C4273 C4277 1.407 . S
C4274 C4272 1.396 . S
C4274 C4275 1.394 . S
C4275 H4270 0.929 . S
C4275 C4274 1.394 . S
C4275 C4276 1.382 . S
C4276 C4275 1.382 . S
C4276 C4277 1.392 . S
C4276 N4278 1.420 . S
C4277 H4271 0.930 . S
C4277 C4273 1.407 . S
C4277 C4276 1.392 . S
N4278 C4276 1.420 . S
N4278 C4279 1.244 . S
C4279 N4278 1.244 . S
H4280 C4283 0.929 . S
H4281 C4286 0.929 . S
H4282 C4288 0.930 . S
C4283 H4280 0.929 . S
C4283 C4284 1.398 . S
C4283 C4285 1.396 . S
C4284 C4283 1.398 . S
C4284 C4288 1.407 . S
C4285 C4283 1.396 . S
C4285 C4286 1.394 . S
C4286 H4281 0.929 . S
C4286 C4285 1.394 . S
C4286 C4287 1.382 . S
C4287 C4286 1.382 . S
C4287 C4288 1.392 . S
C4287 N4289 1.420 . S
C4288 H4282 0.930 . S
C4288 C4284 1.407 . S
C4288 C4287 1.392 . S
N4289 C4287 1.420 . S
N4289 C4290 1.244 . S
C4290 N4289 1.244 . S
H4291 C4294 0.929 . S
H4292 C4297 0.929 . S
H4293 C4299 0.930 . S
C4294 H4291 0.929 . S
C4294 C4295 1.398 . S
C4294 C4296 1.396 . S
C4295 C4294 1.398 . S
C4295 C4299 1.407 . S
C4296 C4294 1.396 . S
C4296 C4297 1.394 . S
C4297 H4292 0.929 . S
C4297 C4296 1.394 . S
C4297 C4298 1.382 . S
C4298 C4297 1.382 . S
C4298 C4299 1.392 . S
C4298 N4300 1.420 . S
C4299 H4293 0.930 . S
C4299 C4295 1.407 . S
C4299 C4298 1.392 . S
N4300 C4298 1.420 . S
N4300 C4301 1.244 . S
C4301 N4300 1.244 . S
H4302 C4305 0.929 . S
H4303 C4308 0.929 . S
H4304 C4310 0.930 . S
C4305 H4302 0.929 . S
C4305 C4306 1.398 . S
C4305 C4307 1.396 . S
C4306 C4305 1.398 . S
C4306 C4310 1.407 . S
C4307 C4305 1.396 . S
C4307 C4308 1.394 . S
C4308 H4303 0.929 . S
C4308 C4307 1.394 . S
C4308 C4309 1.382 . S
C4309 C4308 1.382 . S
C4309 C4310 1.392 . S
C4309 N4311 1.420 . S
C4310 H4304 0.930 . S
C4310 C4306 1.407 . S
C4310 C4309 1.392 . S
N4311 C4309 1.420 . S
N4311 C4312 1.244 . S
C4312 N4311 1.244 . S
H4313 C4316 0.929 . S
H4314 C4319 0.929 . S
H4315 C4321 0.930 . S
C4316 H4313 0.929 . S
C4316 C4317 1.398 . S
C4316 C4318 1.396 . S
C4317 C4316 1.398 . S
C4317 C4321 1.407 . S
C4318 C4316 1.396 . S
C4318 C4319 1.394 . S
C4319 H4314 0.929 . S
C4319 C4318 1.394 . S
C4319 C4320 1.382 . S
C4320 C4319 1.382 . S
C4320 C4321 1.392 . S
C4320 N4322 1.420 . S
C4321 H4315 0.930 . S
C4321 C4317 1.407 . S
C4321 C4320 1.392 . S
N4322 C4320 1.420 . S
N4322 C4323 1.244 . S
C4323 N4322 1.244 . S
H4324 C4327 0.929 . S
H4325 C4330 0.929 . S
H4326 C4332 0.930 . S
C4327 H4324 0.929 . S
C4327 C4328 1.398 . S
C4327 C4329 1.396 . S
C4328 C4327 1.398 . S
C4328 C4332 1.407 . S
C4329 C4327 1.396 . S
C4329 C4330 1.394 . S
C4330 H4325 0.929 . S
C4330 C4329 1.394 . S
C4330 C4331 1.382 . S
C4331 C4330 1.382 . S
C4331 C4332 1.392 . S
C4331 N4333 1.420 . S
C4332 H4326 0.930 . S
C4332 C4328 1.407 . S
C4332 C4331 1.392 . S
N4333 C4331 1.420 . S
N4333 C4334 1.244 . S
C4334 N4333 1.244 . S
H4335 C4338 0.929 . S
H4336 C4341 0.929 . S
H4337 C4343 0.930 . S
C4338 H4335 0.929 . S
C4338 C4339 1.398 . S
C4338 C4340 1.396 . S
C4339 C4338 1.398 . S
C4339 C4343 1.407 . S
C4340 C4338 1.396 . S
C4340 C4341 1.394 . S
C4341 H4336 0.929 . S
C4341 C4340 1.394 . S
C4341 C4342 1.382 . S
C4342 C4341 1.382 . S
C4342 C4343 1.392 . S
C4342 N4344 1.420 . S
C4343 H4337 0.930 . S
C4343 C4339 1.407 . S
C4343 C4342 1.392 . S
N4344 C4342 1.420 . S
N4344 C4345 1.244 . S
C4345 N4344 1.244 . S
H4346 C4349 0.929 . S
H4347 C4352 0.929 . S
H4348 C4354 0.930 . S
C4349 H4346 0.929 . S
C4349 C4350 1.398 . S
C4349 C4351 1.396 . S
C4350 C4349 1.398 . S
C4350 C4354 1.407 . S
C4351 C4349 1.396 . S
C4351 C4352 1.394 . S
C4352 H4347 0.929 . S
C4352 C4351 1.394 . S
C4352 C4353 1.382 . S
C4353 C4352 1.382 . S
C4353 C4354 1.392 . S
C4353 N4355 1.420 . S
C4354 H4348 0.930 . S
C4354 C4350 1.407 . S
C4354 C4353 1.392 . S
N4355 C4353 1.420 . S
N4355 C4356 1.244 . S
C4356 N4355 1.244 . S
H4357 C4360 0.929 . S
H4358 C4363 0.929 . S
H4359 C4365 0.930 . S
C4360 H4357 0.929 . S
C4360 C4361 1.398 . S
C4360 C4362 1.396 . S
C4361 C4360 1.398 . S
C4361 C4365 1.407 . S
C4362 C4360 1.396 . S
C4362 C4363 1.394 . S
C4363 H4358 0.929 . S
C4363 C4362 1.394 . S
C4363 C4364 1.382 . S
C4364 C4363 1.382 . S
C4364 C4365 1.392 . S
C4364 N4366 1.420 . S
C4365 H4359 0.930 . S
C4365 C4361 1.407 . S
C4365 C4364 1.392 . S
N4366 C4364 1.420 . S
N4366 C4367 1.244 . S
C4367 N4366 1.244 . S
H4368 C4371 0.929 . S
H4369 C4374 0.929 . S
H4370 C4376 0.930 . S
C4371 H4368 0.929 . S
C4371 C4372 1.398 . S
C4371 C4373 1.396 . S
C4372 C4371 1.398 . S
C4372 C4376 1.407 . S
C4373 C4371 1.396 . S
C4373 C4374 1.394 . S
C4374 H4369 0.929 . S
C4374 C4373 1.394 . S
C4374 C4375 1.382 . S
C4375 C4374 1.382 . S
C4375 C4376 1.392 . S
C4375 N4377 1.420 . S
C4376 H4370 0.930 . S
C4376 C4372 1.407 . S
C4376 C4375 1.392 . S
N4377 C4375 1.420 . S
N4377 C4378 1.244 . S
C4378 N4377 1.244 . S
H4379 C4382 0.929 . S
H4380 C4385 0.929 . S
H4381 C4387 0.930 . S
C4382 H4379 0.929 . S
C4382 C4383 1.398 . S
C4382 C4384 1.396 . S
C4383 C4382 1.398 . S
C4383 C4387 1.407 . S
C4384 C4382 1.396 . S
C4384 C4385 1.394 . S
C4385 H4380 0.929 . S
C4385 C4384 1.394 . S
C4385 C4386 1.382 . S
C4386 C4385 1.382 . S
C4386 C4387 1.392 . S
C4386 N4388 1.420 . S
C4387 H4381 0.930 . S
C4387 C4383 1.407 . S
C4387 C4386 1.392 . S
N4388 C4386 1.420 . S
N4388 C4389 1.244 . S
C4389 N4388 1.244 . S
H4390 C4393 0.929 . S
H4391 C4396 0.929 . S
H4392 C4398 0.930 . S
C4393 H4390 0.929 . S
C4393 C4394 1.398 . S
C4393 C4395 1.396 . S
C4394 C4393 1.398 . S
C4394 C4398 1.407 . S
C4395 C4393 1.396 . S
C4395 C4396 1.394 . S
C4396 H4391 0.929 . S
C4396 C4395 1.394 . S
C4396 C4397 1.382 . S
C4397 C4396 1.382 . S
C4397 C4398 1.392 . S
C4397 N4399 1.420 . S
C4398 H4392 0.930 . S
C4398 C4394 1.407 . S
C4398 C4397 1.392 . S
N4399 C4397 1.420 . S
N4399 C4400 1.244 . S
C4400 N4399 1.244 . S
H4401 C4404 0.929 . S
H4402 C4407 0.929 . S
H4403 C4409 0.930 . S
C4404 H4401 0.929 . S
C4404 C4405 1.398 . S
C4404 C4406 1.396 . S
C4405 C4404 1.398 . S
C4405 C4409 1.407 . S
C4406 C4404 1.396 . S
C4406 C4407 1.394 . S
C4407 H4402 0.929 . S
C4407 C4406 1.394 . S
C4407 C4408 1.382 . S
C4408 C4407 1.382 . S
C4408 C4409 1.392 . S
C4408 N4410 1.420 . S
C4409 H4403 0.930 . S
C4409 C4405 1.407 . S
C4409 C4408 1.392 . S
N4410 C4408 1.420 . S
N4410 C4411 1.244 . S
C4411 N4410 1.244 . S
H4412 C4415 0.929 . S
H4413 C4418 0.929 . S
H4414 C4420 0.930 . S
C4415 H4412 0.929 . S
C4415 C4416 1.398 . S
C4415 C4417 1.396 . S
C4416 C4415 1.398 . S
C4416 C4420 1.407 . S
C4417 C4415 1.396 . S
C4417 C4418 1.394 . S
C4418 H4413 0.929 . S
C4418 C4417 1.394 . S
C4418 C4419 1.382 . S
C4419 C4418 1.382 . S
C4419 C4420 1.392 . S
C4419 N4421 1.420 . S
C4420 H4414 0.930 . S
C4420 C4416 1.407 . S
C4420 C4419 1.392 . S
N4421 C4419 1.420 . S
N4421 C4422 1.244 . S
C4422 N4421 1.244 . S
H4423 C4426 0.929 . S
H4424 C4429 0.929 . S
H4425 C4431 0.930 . S
C4426 H4423 0.929 . S
C4426 C4427 1.398 . S
C4426 C4428 1.396 . S
C4427 C4426 1.398 . S
C4427 C4431 1.407 . S
C4428 C4426 1.396 . S
C4428 C4429 1.394 . S
C4429 H4424 0.929 . S
C4429 C4428 1.394 . S
C4429 C4430 1.382 . S
C4430 C4429 1.382 . S
C4430 C4431 1.392 . S
C4430 N4432 1.420 . S
C4431 H4425 0.930 . S
C4431 C4427 1.407 . S
C4431 C4430 1.392 . S
N4432 C4430 1.420 . S
N4432 C4433 1.244 . S
C4433 N4432 1.244 . S
H4434 C4437 0.929 . S
H4435 C4440 0.929 . S
H4436 C4442 0.930 . S
C4437 H4434 0.929 . S
C4437 C4438 1.398 . S
C4437 C4439 1.396 . S
C4438 C4437 1.398 . S
C4438 C4442 1.407 . S
C4439 C4437 1.396 . S
C4439 C4440 1.394 . S
C4440 H4435 0.929 . S
C4440 C4439 1.394 . S
C4440 C4441 1.382 . S
C4441 C4440 1.382 . S
C4441 C4442 1.392 . S
C4441 N4443 1.420 . S
C4442 H4436 0.930 . S
C4442 C4438 1.407 . S
C4442 C4441 1.392 . S
N4443 C4441 1.420 . S
N4443 C4444 1.244 . S
C4444 N4443 1.244 . S
H4445 C4448 0.929 . S
H4446 C4451 0.929 . S
H4447 C4453 0.930 . S
C4448 H4445 0.929 . S
C4448 C4449 1.398 . S
C4448 C4450 1.396 . S
C4449 C4448 1.398 . S
C4449 C4453 1.407 . S
C4450 C4448 1.396 . S
C4450 C4451 1.394 . S
C4451 H4446 0.929 . S
C4451 C4450 1.394 . S
C4451 C4452 1.382 . S
C4452 C4451 1.382 . S
C4452 C4453 1.392 . S
C4452 N4454 1.420 . S
C4453 H4447 0.930 . S
C4453 C4449 1.407 . S
C4453 C4452 1.392 . S
N4454 C4452 1.420 . S
N4454 C4455 1.244 . S
C4455 N4454 1.244 . S
H4456 C4459 0.929 . S
H4457 C4462 0.929 . S
H4458 C4464 0.930 . S
C4459 H4456 0.929 . S
C4459 C4460 1.398 . S
C4459 C4461 1.396 . S
C4460 C4459 1.398 . S
C4460 C4464 1.407 . S
C4461 C4459 1.396 . S
C4461 C4462 1.394 . S
C4462 H4457 0.929 . S
C4462 C4461 1.394 . S
C4462 C4463 1.382 . S
C4463 C4462 1.382 . S
C4463 C4464 1.392 . S
C4463 N4465 1.420 . S
C4464 H4458 0.930 . S
C4464 C4460 1.407 . S
C4464 C4463 1.392 . S
N4465 C4463 1.420 . S
N4465 C4466 1.244 . S
C4466 N4465 1.244 . S
H4467 C4470 0.929 . S
H4468 C4473 0.929 . S
H4469 C4475 0.930 . S
C4470 H4467 0.929 . S
C4470 C4471 1.398 . S
C4470 C4472 1.396 . S
C4471 C4470 1.398 . S
C4471 C4475 1.407 . S
C4472 C4470 1.396 . S
C4472 C4473 1.394 . S
C4473 H4468 0.929 . S
C4473 C4472 1.394 . S
C4473 C4474 1.382 . S
C4474 C4473 1.382 . S
C4474 C4475 1.392 . S
C4474 N4476 1.420 . S
C4475 H4469 0.930 . S
C4475 C4471 1.407 . S
C4475 C4474 1.392 . S
N4476 C4474 1.420 . S
N4476 C4477 1.244 . S
C4477 N4476 1.244 . S
H4478 C4481 0.929 . S
H4479 C4484 0.929 . S
H4480 C4486 0.930 . S
C4481 H4478 0.929 . S
C4481 C4482 1.398 . S
C4481 C4483 1.396 . S
C4482 C4481 1.398 . S
C4482 C4486 1.407 . S
C4483 C4481 1.396 . S
C4483 C4484 1.394 . S
C4484 H4479 0.929 . S
C4484 C4483 1.394 . S
C4484 C4485 1.382 . S
C4485 C4484 1.382 . S
C4485 C4486 1.392 . S
C4485 N4487 1.420 . S
C4486 H4480 0.930 . S
C4486 C4482 1.407 . S
C4486 C4485 1.392 . S
N4487 C4485 1.420 . S
N4487 C4488 1.244 . S
C4488 N4487 1.244 . S
H4489 C4492 0.929 . S
H4490 C4495 0.929 . S
H4491 C4497 0.930 . S
C4492 H4489 0.929 . S
C4492 C4493 1.398 . S
C4492 C4494 1.396 . S
C4493 C4492 1.398 . S
C4493 C4497 1.407 . S
C4494 C4492 1.396 . S
C4494 C4495 1.394 . S
C4495 H4490 0.929 . S
C4495 C4494 1.394 . S
C4495 C4496 1.382 . S
C4496 C4495 1.382 . S
C4496 C4497 1.392 . S
C4496 N4498 1.420 . S
C4497 H4491 0.930 . S
C4497 C4493 1.407 . S
C4497 C4496 1.392 . S
N4498 C4496 1.420 . S
N4498 C4499 1.244 . S
C4499 N4498 1.244 . S
H4500 C4503 0.929 . S
H4501 C4506 0.929 . S
H4502 C4508 0.930 . S
C4503 H4500 0.929 . S
C4503 C4504 1.398 . S
C4503 C4505 1.396 . S
C4504 C4503 1.398 . S
C4504 C4508 1.407 . S
C4505 C4503 1.396 . S
C4505 C4506 1.394 . S
C4506 H4501 0.929 . S
C4506 C4505 1.394 . S
C4506 C4507 1.382 . S
C4507 C4506 1.382 . S
C4507 C4508 1.392 . S
C4507 N4509 1.420 . S
C4508 H4502 0.930 . S
C4508 C4504 1.407 . S
C4508 C4507 1.392 . S
N4509 C4507 1.420 . S
N4509 C4510 1.244 . S
C4510 N4509 1.244 . S
H4511 C4514 0.929 . S
H4512 C4517 0.929 . S
H4513 C4519 0.930 . S
C4514 H4511 0.929 . S
C4514 C4515 1.398 . S
C4514 C4516 1.396 . S
C4515 C4514 1.398 . S
C4515 C4519 1.407 . S
C4516 C4514 1.396 . S
C4516 C4517 1.394 . S
C4517 H4512 0.929 . S
C4517 C4516 1.394 . S
C4517 C4518 1.382 . S
C4518 C4517 1.382 . S
C4518 C4519 1.392 . S
C4518 N4520 1.420 . S
C4519 H4513 0.930 . S
C4519 C4515 1.407 . S
C4519 C4518 1.392 . S
N4520 C4518 1.420 . S
N4520 C4521 1.244 . S
C4521 N4520 1.244 . S
H4522 C4525 0.929 . S
H4523 C4528 0.929 . S
H4524 C4530 0.930 . S
C4525 H4522 0.929 . S
C4525 C4526 1.398 . S
C4525 C4527 1.396 . S
C4526 C4525 1.398 . S
C4526 C4530 1.407 . S
C4527 C4525 1.396 . S
C4527 C4528 1.394 . S
C4528 H4523 0.929 . S
C4528 C4527 1.394 . S
C4528 C4529 1.382 . S
C4529 C4528 1.382 . S
C4529 C4530 1.392 . S
C4529 N4531 1.420 . S
C4530 H4524 0.930 . S
C4530 C4526 1.407 . S
C4530 C4529 1.392 . S
N4531 C4529 1.420 . S
N4531 C4532 1.244 . S
C4532 N4531 1.244 . S
H4533 C4536 0.929 . S
H4534 C4539 0.929 . S
H4535 C4541 0.930 . S
C4536 H4533 0.929 . S
C4536 C4537 1.398 . S
C4536 C4538 1.396 . S
C4537 C4536 1.398 . S
C4537 C4541 1.407 . S
C4538 C4536 1.396 . S
C4538 C4539 1.394 . S
C4539 H4534 0.929 . S
C4539 C4538 1.394 . S
C4539 C4540 1.382 . S
C4540 C4539 1.382 . S
C4540 C4541 1.392 . S
C4540 N4542 1.420 . S
C4541 H4535 0.930 . S
C4541 C4537 1.407 . S
C4541 C4540 1.392 . S
N4542 C4540 1.420 . S
N4542 C4543 1.244 . S
C4543 N4542 1.244 . S
H4544 C4547 0.929 . S
H4545 C4550 0.929 . S
H4546 C4552 0.930 . S
C4547 H4544 0.929 . S
C4547 C4548 1.398 . S
C4547 C4549 1.396 . S
C4548 C4547 1.398 . S
C4548 C4552 1.407 . S
C4549 C4547 1.396 . S
C4549 C4550 1.394 . S
C4550 H4545 0.929 . S
C4550 C4549 1.394 . S
C4550 C4551 1.382 . S
C4551 C4550 1.382 . S
C4551 C4552 1.392 . S
C4551 N4553 1.420 . S
C4552 H4546 0.930 . S
C4552 C4548 1.407 . S
C4552 C4551 1.392 . S
N4553 C4551 1.420 . S
N4553 C4554 1.244 . S
C4554 N4553 1.244 . S
H4555 C4558 0.929 . S
H4556 C4561 0.929 . S
H4557 C4563 0.930 . S
C4558 H4555 0.929 . S
C4558 C4559 1.398 . S
C4558 C4560 1.396 . S
C4559 C4558 1.398 . S
C4559 C4563 1.407 . S
C4560 C4558 1.396 . S
C4560 C4561 1.394 . S
C4561 H4556 0.929 . S
C4561 C4560 1.394 . S
C4561 C4562 1.382 . S
C4562 C4561 1.382 . S
C4562 C4563 1.392 . S
C4562 N4564 1.420 . S
C4563 H4557 0.930 . S
C4563 C4559 1.407 . S
C4563 C4562 1.392 . S
N4564 C4562 1.420 . S
N4564 C4565 1.244 . S
C4565 N4564 1.244 . S
H4566 C4569 0.929 . S
H4567 C4572 0.929 . S
H4568 C4574 0.930 . S
C4569 H4566 0.929 . S
C4569 C4570 1.398 . S
C4569 C4571 1.396 . S
C4570 C4569 1.398 . S
C4570 C4574 1.407 . S
C4571 C4569 1.396 . S
C4571 C4572 1.394 . S
C4572 H4567 0.929 . S
C4572 C4571 1.394 . S
C4572 C4573 1.382 . S
C4573 C4572 1.382 . S
C4573 C4574 1.392 . S
C4573 N4575 1.420 . S
C4574 H4568 0.930 . S
C4574 C4570 1.407 . S
C4574 C4573 1.392 . S
N4575 C4573 1.420 . S
N4575 C4576 1.244 . S
C4576 N4575 1.244 . S
H4577 C4580 0.929 . S
H4578 C4583 0.929 . S
H4579 C4585 0.930 . S
C4580 H4577 0.929 . S
C4580 C4581 1.398 . S
C4580 C4582 1.396 . S
C4581 C4580 1.398 . S
C4581 C4585 1.407 . S
C4582 C4580 1.396 . S
C4582 C4583 1.394 . S
C4583 H4578 0.929 . S
C4583 C4582 1.394 . S
C4583 C4584 1.382 . S
C4584 C4583 1.382 . S
C4584 C4585 1.392 . S
C4584 N4586 1.420 . S
C4585 H4579 0.930 . S
C4585 C4581 1.407 . S
C4585 C4584 1.392 . S
N4586 C4584 1.420 . S
N4586 C4587 1.244 . S
C4587 N4586 1.244 . S
H4588 C4591 0.929 . S
H4589 C4594 0.929 . S
H4590 C4596 0.930 . S
C4591 H4588 0.929 . S
C4591 C4592 1.398 . S
C4591 C4593 1.396 . S
C4592 C4591 1.398 . S
C4592 C4596 1.407 . S
C4593 C4591 1.396 . S
C4593 C4594 1.394 . S
C4594 H4589 0.929 . S
C4594 C4593 1.394 . S
C4594 C4595 1.382 . S
C4595 C4594 1.382 . S
C4595 C4596 1.392 . S
C4595 N4597 1.420 . S
C4596 H4590 0.930 . S
C4596 C4592 1.407 . S
C4596 C4595 1.392 . S
N4597 C4595 1.420 . S
N4597 C4598 1.244 . S
C4598 N4597 1.244 . S
H4599 C4602 0.929 . S
H4600 C4605 0.929 . S
H4601 C4607 0.930 . S
C4602 H4599 0.929 . S
C4602 C4603 1.398 . S
C4602 C4604 1.396 . S
C4603 C4602 1.398 . S
C4603 C4607 1.407 . S
C4604 C4602 1.396 . S
C4604 C4605 1.394 . S
C4605 H4600 0.929 . S
C4605 C4604 1.394 . S
C4605 C4606 1.382 . S
C4606 C4605 1.382 . S
C4606 C4607 1.392 . S
C4606 N4608 1.420 . S
C4607 H4601 0.930 . S
C4607 C4603 1.407 . S
C4607 C4606 1.392 . S
N4608 C4606 1.420 . S
N4608 C4609 1.244 . S
C4609 N4608 1.244 . S
H4610 C4613 0.929 . S
H4611 C4616 0.929 . S
H4612 C4618 0.930 . S
C4613 H4610 0.929 . S
C4613 C4614 1.398 . S
C4613 C4615 1.396 . S
C4614 C4613 1.398 . S
C4614 C4618 1.407 . S
C4615 C4613 1.396 . S
C4615 C4616 1.394 . S
C4616 H4611 0.929 . S
C4616 C4615 1.394 . S
C4616 C4617 1.382 . S
C4617 C4616 1.382 . S
C4617 C4618 1.392 . S
C4617 N4619 1.420 . S
C4618 H4612 0.930 . S
C4618 C4614 1.407 . S
C4618 C4617 1.392 . S
N4619 C4617 1.420 . S
N4619 C4620 1.244 . S
C4620 N4619 1.244 . S
H4621 C4624 0.929 . S
H4622 C4627 0.929 . S
H4623 C4629 0.930 . S
C4624 H4621 0.929 . S
C4624 C4625 1.398 . S
C4624 C4626 1.396 . S
C4625 C4624 1.398 . S
C4625 C4629 1.407 . S
C4626 C4624 1.396 . S
C4626 C4627 1.394 . S
C4627 H4622 0.929 . S
C4627 C4626 1.394 . S
C4627 C4628 1.382 . S
C4628 C4627 1.382 . S
C4628 C4629 1.392 . S
C4628 N4630 1.420 . S
C4629 H4623 0.930 . S
C4629 C4625 1.407 . S
C4629 C4628 1.392 . S
N4630 C4628 1.420 . S
N4630 C4631 1.244 . S
C4631 N4630 1.244 . S
H4632 C4635 0.929 . S
H4633 C4638 0.929 . S
H4634 C4640 0.930 . S
C4635 H4632 0.929 . S
C4635 C4636 1.398 . S
C4635 C4637 1.396 . S
C4636 C4635 1.398 . S
C4636 C4640 1.407 . S
C4637 C4635 1.396 . S
C4637 C4638 1.394 . S
C4638 H4633 0.929 . S
C4638 C4637 1.394 . S
C4638 C4639 1.382 . S
C4639 C4638 1.382 . S
C4639 C4640 1.392 . S
C4639 N4641 1.420 . S
C4640 H4634 0.930 . S
C4640 C4636 1.407 . S
C4640 C4639 1.392 . S
N4641 C4639 1.420 . S
N4641 C4642 1.244 . S
C4642 N4641 1.244 . S
H4643 C4646 0.929 . S
H4644 C4649 0.929 . S
H4645 C4651 0.930 . S
C4646 H4643 0.929 . S
C4646 C4647 1.398 . S
C4646 C4648 1.396 . S
C4647 C4646 1.398 . S
C4647 C4651 1.407 . S
C4648 C4646 1.396 . S
C4648 C4649 1.394 . S
C4649 H4644 0.929 . S
C4649 C4648 1.394 . S
C4649 C4650 1.382 . S
C4650 C4649 1.382 . S
C4650 C4651 1.392 . S
C4650 N4652 1.420 . S
C4651 H4645 0.930 . S
C4651 C4647 1.407 . S
C4651 C4650 1.392 . S
N4652 C4650 1.420 . S
N4652 C4653 1.244 . S
C4653 N4652 1.244 . S
H4654 C4657 0.929 . S
H4655 C4660 0.929 . S
H4656 C4662 0.930 . S
C4657 H4654 0.929 . S
C4657 C4658 1.398 . S
C4657 C4659 1.396 . S
C4658 C4657 1.398 . S
C4658 C4662 1.407 . S
C4659 C4657 1.396 . S
C4659 C4660 1.394 . S
C4660 H4655 0.929 . S
C4660 C4659 1.394 . S
C4660 C4661 1.382 . S
C4661 C4660 1.382 . S
C4661 C4662 1.392 . S
C4661 N4663 1.420 . S
C4662 H4656 0.930 . S
C4662 C4658 1.407 . S
C4662 C4661 1.392 . S
N4663 C4661 1.420 . S
N4663 C4664 1.244 . S
C4664 N4663 1.244 . S
H4665 C4668 0.929 . S
H4666 C4671 0.929 . S
H4667 C4673 0.930 . S
C4668 H4665 0.929 . S
C4668 C4669 1.398 . S
C4668 C4670 1.396 . S
C4669 C4668 1.398 . S
C4669 C4673 1.407 . S
C4670 C4668 1.396 . S
C4670 C4671 1.394 . S
C4671 H4666 0.929 . S
C4671 C4670 1.394 . S
C4671 C4672 1.382 . S
C4672 C4671 1.382 . S
C4672 C4673 1.392 . S
C4672 N4674 1.420 . S
C4673 H4667 0.930 . S
C4673 C4669 1.407 . S
C4673 C4672 1.392 . S
N4674 C4672 1.420 . S
N4674 C4675 1.244 . S
C4675 N4674 1.244 . S
H4676 C4679 0.929 . S
H4677 C4682 0.929 . S
H4678 C4684 0.930 . S
C4679 H4676 0.929 . S
C4679 C4680 1.398 . S
C4679 C4681 1.396 . S
C4680 C4679 1.398 . S
C4680 C4684 1.407 . S
C4681 C4679 1.396 . S
C4681 C4682 1.394 . S
C4682 H4677 0.929 . S
C4682 C4681 1.394 . S
C4682 C4683 1.382 . S
C4683 C4682 1.382 . S
C4683 C4684 1.392 . S
C4683 N4685 1.420 . S
C4684 H4678 0.930 . S
C4684 C4680 1.407 . S
C4684 C4683 1.392 . S
N4685 C4683 1.420 . S
N4685 C4686 1.244 . S
C4686 N4685 1.244 . S
H4687 C4690 0.929 . S
H4688 C4693 0.929 . S
H4689 C4695 0.930 . S
C4690 H4687 0.929 . S
C4690 C4691 1.398 . S
C4690 C4692 1.396 . S
C4691 C4690 1.398 . S
C4691 C4695 1.407 . S
C4692 C4690 1.396 . S
C4692 C4693 1.394 . S
C4693 H4688 0.929 . S
C4693 C4692 1.394 . S
C4693 C4694 1.382 . S
C4694 C4693 1.382 . S
C4694 C4695 1.392 . S
C4694 N4696 1.420 . S
C4695 H4689 0.930 . S
C4695 C4691 1.407 . S
C4695 C4694 1.392 . S
N4696 C4694 1.420 . S
N4696 C4697 1.244 . S
C4697 N4696 1.244 . S
H4698 C4701 0.929 . S
H4699 C4704 0.929 . S
H4700 C4706 0.930 . S
C4701 H4698 0.929 . S
C4701 C4702 1.398 . S
C4701 C4703 1.396 . S
C4702 C4701 1.398 . S
C4702 C4706 1.407 . S
C4703 C4701 1.396 . S
C4703 C4704 1.394 . S
C4704 H4699 0.929 . S
C4704 C4703 1.394 . S
C4704 C4705 1.382 . S
C4705 C4704 1.382 . S
C4705 C4706 1.392 . S
C4705 N4707 1.420 . S
C4706 H4700 0.930 . S
C4706 C4702 1.407 . S
C4706 C4705 1.392 . S
N4707 C4705 1.420 . S
N4707 C4708 1.244 . S
C4708 N4707 1.244 . S
H4709 C4712 0.929 . S
H4710 C4715 0.929 . S
H4711 C4717 0.930 . S
C4712 H4709 0.929 . S
C4712 C4713 1.398 . S
C4712 C4714 1.396 . S
C4713 C4712 1.398 . S
C4713 C4717 1.407 . S
C4714 C4712 1.396 . S
C4714 C4715 1.394 . S
C4715 H4710 0.929 . S
C4715 C4714 1.394 . S
C4715 C4716 1.382 . S
C4716 C4715 1.382 . S
C4716 C4717 1.392 . S
C4716 N4718 1.420 . S
C4717 H4711 0.930 . S
C4717 C4713 1.407 . S
C4717 C4716 1.392 . S
N4718 C4716 1.420 . S
N4718 C4719 1.244 . S
C4719 N4718 1.244 . S
H4720 C4723 0.929 . S
H4721 C4726 0.929 . S
H4722 C4728 0.930 . S
C4723 H4720 0.929 . S
C4723 C4724 1.398 . S
C4723 C4725 1.396 . S
C4724 C4723 1.398 . S
C4724 C4728 1.407 . S
C4725 C4723 1.396 . S
C4725 C4726 1.394 . S
C4726 H4721 0.929 . S
C4726 C4725 1.394 . S
C4726 C4727 1.382 . S
C4727 C4726 1.382 . S
C4727 C4728 1.392 . S
C4727 N4729 1.420 . S
C4728 H4722 0.930 . S
C4728 C4724 1.407 . S
C4728 C4727 1.392 . S
N4729 C4727 1.420 . S
N4729 C4730 1.244 . S
C4730 N4729 1.244 . S
H4731 C4734 0.929 . S
H4732 C4737 0.929 . S
H4733 C4739 0.930 . S
C4734 H4731 0.929 . S
C4734 C4735 1.398 . S
C4734 C4736 1.396 . S
C4735 C4734 1.398 . S
C4735 C4739 1.407 . S
C4736 C4734 1.396 . S
C4736 C4737 1.394 . S
C4737 H4732 0.929 . S
C4737 C4736 1.394 . S
C4737 C4738 1.382 . S
C4738 C4737 1.382 . S
C4738 C4739 1.392 . S
C4738 N4740 1.420 . S
C4739 H4733 0.930 . S
C4739 C4735 1.407 . S
C4739 C4738 1.392 . S
N4740 C4738 1.420 . S
N4740 C4741 1.244 . S
C4741 N4740 1.244 . S
H4742 C4745 0.929 . S
H4743 C4748 0.929 . S
H4744 C4750 0.930 . S
C4745 H4742 0.929 . S
C4745 C4746 1.398 . S
C4745 C4747 1.396 . S
C4746 C4745 1.398 . S
C4746 C4750 1.407 . S
C4747 C4745 1.396 . S
C4747 C4748 1.394 . S
C4748 H4743 0.929 . S
C4748 C4747 1.394 . S
C4748 C4749 1.382 . S
C4749 C4748 1.382 . S
C4749 C4750 1.392 . S
C4749 N4751 1.420 . S
C4750 H4744 0.930 . S
C4750 C4746 1.407 . S
C4750 C4749 1.392 . S
N4751 C4749 1.420 . S
N4751 C4752 1.244 . S
C4752 N4751 1.244 . S
H4753 C4756 0.929 . S
H4754 C4759 0.929 . S
H4755 C4761 0.930 . S
C4756 H4753 0.929 . S
C4756 C4757 1.398 . S
C4756 C4758 1.396 . S
C4757 C4756 1.398 . S
C4757 C4761 1.407 . S
C4758 C4756 1.396 . S
C4758 C4759 1.394 . S
C4759 H4754 0.929 . S
C4759 C4758 1.394 . S
C4759 C4760 1.382 . S
C4760 C4759 1.382 . S
C4760 C4761 1.392 . S
C4760 N4762 1.420 . S
C4761 H4755 0.930 . S
C4761 C4757 1.407 . S
C4761 C4760 1.392 . S
N4762 C4760 1.420 . S
N4762 C4763 1.244 . S
C4763 N4762 1.244 . S
H4764 C4767 0.929 . S
H4765 C4770 0.929 . S
H4766 C4772 0.930 . S
C4767 H4764 0.929 . S
C4767 C4768 1.398 . S
C4767 C4769 1.396 . S
C4768 C4767 1.398 . S
C4768 C4772 1.407 . S
C4769 C4767 1.396 . S
C4769 C4770 1.394 . S
C4770 H4765 0.929 . S
C4770 C4769 1.394 . S
C4770 C4771 1.382 . S
C4771 C4770 1.382 . S
C4771 C4772 1.392 . S
C4771 N4773 1.420 . S
C4772 H4766 0.930 . S
C4772 C4768 1.407 . S
C4772 C4771 1.392 . S
N4773 C4771 1.420 . S
N4773 C4774 1.244 . S
C4774 N4773 1.244 . S
H4775 C4778 0.929 . S
H4776 C4781 0.929 . S
H4777 C4783 0.930 . S
C4778 H4775 0.929 . S
C4778 C4779 1.398 . S
C4778 C4780 1.396 . S
C4779 C4778 1.398 . S
C4779 C4783 1.407 . S
C4780 C4778 1.396 . S
C4780 C4781 1.394 . S
C4781 H4776 0.929 . S
C4781 C4780 1.394 . S
C4781 C4782 1.382 . S
C4782 C4781 1.382 . S
C4782 C4783 1.392 . S
C4782 N4784 1.420 . S
C4783 H4777 0.930 . S
C4783 C4779 1.407 . S
C4783 C4782 1.392 . S
N4784 C4782 1.420 . S
N4784 C4785 1.244 . S
C4785 N4784 1.244 . S
H4786 C4789 0.929 . S
H4787 C4792 0.929 . S
H4788 C4794 0.930 . S
C4789 H4786 0.929 . S
C4789 C4790 1.398 . S
C4789 C4791 1.396 . S
C4790 C4789 1.398 . S
C4790 C4794 1.407 . S
C4791 C4789 1.396 . S
C4791 C4792 1.394 . S
C4792 H4787 0.929 . S
C4792 C4791 1.394 . S
C4792 C4793 1.382 . S
C4793 C4792 1.382 . S
C4793 C4794 1.392 . S
C4793 N4795 1.420 . S
C4794 H4788 0.930 . S
C4794 C4790 1.407 . S
C4794 C4793 1.392 . S
N4795 C4793 1.420 . S
N4795 C4796 1.244 . S
C4796 N4795 1.244 . S
H4797 C4800 0.929 . S
H4798 C4803 0.929 . S
H4799 C4805 0.930 . S
C4800 H4797 0.929 . S
C4800 C4801 1.398 . S
C4800 C4802 1.396 . S
C4801 C4800 1.398 . S
C4801 C4805 1.407 . S
C4802 C4800 1.396 . S
C4802 C4803 1.394 . S
C4803 H4798 0.929 . S
C4803 C4802 1.394 . S
C4803 C4804 1.382 . S
C4804 C4803 1.382 . S
C4804 C4805 1.392 . S
C4804 N4806 1.420 . S
C4805 H4799 0.930 . S
C4805 C4801 1.407 . S
C4805 C4804 1.392 . S
N4806 C4804 1.420 . S
N4806 C4807 1.244 . S
C4807 N4806 1.244 . S
H4808 C4811 0.929 . S
H4809 C4814 0.929 . S
H4810 C4816 0.930 . S
C4811 H4808 0.929 . S
C4811 C4812 1.398 . S
C4811 C4813 1.396 . S
C4812 C4811 1.398 . S
C4812 C4816 1.407 . S
C4813 C4811 1.396 . S
C4813 C4814 1.394 . S
C4814 H4809 0.929 . S
C4814 C4813 1.394 . S
C4814 C4815 1.382 . S
C4815 C4814 1.382 . S
C4815 C4816 1.392 . S
C4815 N4817 1.420 . S
C4816 H4810 0.930 . S
C4816 C4812 1.407 . S
C4816 C4815 1.392 . S
N4817 C4815 1.420 . S
N4817 C4818 1.244 . S
C4818 N4817 1.244 . S
H4819 C4822 0.929 . S
H4820 C4825 0.929 . S
H4821 C4827 0.930 . S
C4822 H4819 0.929 . S
C4822 C4823 1.398 . S
C4822 C4824 1.396 . S
C4823 C4822 1.398 . S
C4823 C4827 1.407 . S
C4824 C4822 1.396 . S
C4824 C4825 1.394 . S
C4825 H4820 0.929 . S
C4825 C4824 1.394 . S
C4825 C4826 1.382 . S
C4826 C4825 1.382 . S
C4826 C4827 1.392 . S
C4826 N4828 1.420 . S
C4827 H4821 0.930 . S
C4827 C4823 1.407 . S
C4827 C4826 1.392 . S
N4828 C4826 1.420 . S
N4828 C4829 1.244 . S
C4829 N4828 1.244 . S
H4830 C4833 0.929 . S
H4831 C4836 0.929 . S
H4832 C4838 0.930 . S
C4833 H4830 0.929 . S
C4833 C4834 1.398 . S
C4833 C4835 1.396 . S
C4834 C4833 1.398 . S
C4834 C4838 1.407 . S
C4835 C4833 1.396 . S
C4835 C4836 1.394 . S
C4836 H4831 0.929 . S
C4836 C4835 1.394 . S
C4836 C4837 1.382 . S
C4837 C4836 1.382 . S
C4837 C4838 1.392 . S
C4837 N4839 1.420 . S
C4838 H4832 0.930 . S
C4838 C4834 1.407 . S
C4838 C4837 1.392 . S
N4839 C4837 1.420 . S
N4839 C4840 1.244 . S
C4840 N4839 1.244 . S
H4841 C4844 0.929 . S
H4842 C4847 0.929 . S
H4843 C4849 0.930 . S
C4844 H4841 0.929 . S
C4844 C4845 1.398 . S
C4844 C4846 1.396 . S
C4845 C4844 1.398 . S
C4845 C4849 1.407 . S
C4846 C4844 1.396 . S
C4846 C4847 1.394 . S
C4847 H4842 0.929 . S
C4847 C4846 1.394 . S
C4847 C4848 1.382 . S
C4848 C4847 1.382 . S
C4848 C4849 1.392 . S
C4848 N4850 1.420 . S
C4849 H4843 0.930 . S
C4849 C4845 1.407 . S
C4849 C4848 1.392 . S
N4850 C4848 1.420 . S
N4850 C4851 1.244 . S
C4851 N4850 1.244 . S
H4852 C4855 0.929 . S
H4853 C4858 0.929 . S
H4854 C4860 0.930 . S
C4855 H4852 0.929 . S
C4855 C4856 1.398 . S
C4855 C4857 1.396 . S
C4856 C4855 1.398 . S
C4856 C4860 1.407 . S
C4857 C4855 1.396 . S
C4857 C4858 1.394 . S
C4858 H4853 0.929 . S
C4858 C4857 1.394 . S
C4858 C4859 1.382 . S
C4859 C4858 1.382 . S
C4859 C4860 1.392 . S
C4859 N4861 1.420 . S
C4860 H4854 0.930 . S
C4860 C4856 1.407 . S
C4860 C4859 1.392 . S
N4861 C4859 1.420 . S
N4861 C4862 1.244 . S
C4862 N4861 1.244 . S
H4863 C4866 0.929 . S
H4864 C4869 0.929 . S
H4865 C4871 0.930 . S
C4866 H4863 0.929 . S
C4866 C4867 1.398 . S
C4866 C4868 1.396 . S
C4867 C4866 1.398 . S
C4867 C4871 1.407 . S
C4868 C4866 1.396 . S
C4868 C4869 1.394 . S
C4869 H4864 0.929 . S
C4869 C4868 1.394 . S
C4869 C4870 1.382 . S
C4870 C4869 1.382 . S
C4870 C4871 1.392 . S
C4870 N4872 1.420 . S
C4871 H4865 0.930 . S
C4871 C4867 1.407 . S
C4871 C4870 1.392 . S
N4872 C4870 1.420 . S
N4872 C4873 1.244 . S
C4873 N4872 1.244 . S
H4874 C4877 0.929 . S
H4875 C4880 0.929 . S
H4876 C4882 0.930 . S
C4877 H4874 0.929 . S
C4877 C4878 1.398 . S
C4877 C4879 1.396 . S
C4878 C4877 1.398 . S
C4878 C4882 1.407 . S
C4879 C4877 1.396 . S
C4879 C4880 1.394 . S
C4880 H4875 0.929 . S
C4880 C4879 1.394 . S
C4880 C4881 1.382 . S
C4881 C4880 1.382 . S
C4881 C4882 1.392 . S
C4881 N4883 1.420 . S
C4882 H4876 0.930 . S
C4882 C4878 1.407 . S
C4882 C4881 1.392 . S
N4883 C4881 1.420 . S
N4883 C4884 1.244 . S
C4884 N4883 1.244 . S
H4885 C4888 0.929 . S
H4886 C4891 0.929 . S
H4887 C4893 0.930 . S
C4888 H4885 0.929 . S
C4888 C4889 1.398 . S
C4888 C4890 1.396 . S
C4889 C4888 1.398 . S
C4889 C4893 1.407 . S
C4890 C4888 1.396 . S
C4890 C4891 1.394 . S
C4891 H4886 0.929 . S
C4891 C4890 1.394 . S
C4891 C4892 1.382 . S
C4892 C4891 1.382 . S
C4892 C4893 1.392 . S
C4892 N4894 1.420 . S
C4893 H4887 0.930 . S
C4893 C4889 1.407 . S
C4893 C4892 1.392 . S
N4894 C4892 1.420 . S
N4894 C4895 1.244 . S
C4895 N4894 1.244 . S
C4896 C4897 1.387 . S
C4896 H4900 0.950 . S
C4896 C4905 1.390 1_455 S
C4897 C4896 1.387 . S
C4897 C4899 1.387 . S
H4898 C4905 0.950 . S
C4899 C4897 1.387 . S
C4899 C4901 1.390 1_455 S
C4899 H4903 0.950 . S
H4900 C4896 0.950 . S
C4901 C4899 1.390 1_655 S
C4901 C4902 1.387 . S
C4901 H4904 0.950 . S
C4902 C4901 1.387 . S
C4902 C4905 1.387 . S
H4903 C4899 0.950 . S
H4904 C4901 0.950 . S
C4905 C4896 1.390 1_655 S
C4905 H4898 0.950 . S
C4905 C4902 1.387 . S
C4906 C4907 1.387 . S
C4906 H4910 0.950 . S
C4906 C4915 1.390 . S
C4907 C4906 1.387 . S
C4907 C4909 1.387 . S
H4908 C4915 0.950 . S
C4909 C4907 1.387 . S
C4909 C4911 1.390 . S
C4909 H4913 0.950 . S
H4910 C4906 0.950 . S
C4911 C4909 1.390 . S
C4911 C4912 1.387 . S
C4911 H4914 0.950 . S
C4912 C4911 1.387 . S
C4912 C4915 1.387 . S
H4913 C4909 0.950 . S
H4914 C4911 0.950 . S
C4915 C4906 1.390 . S
C4915 H4908 0.950 . S
C4915 C4912 1.387 . S
C4916 C4917 1.387 . S
C4916 H4920 0.950 . S
C4916 C4925 1.390 . S
C4917 C4916 1.387 . S
C4917 C4919 1.387 . S
H4918 C4925 0.950 . S
C4919 C4917 1.387 . S
C4919 C4921 1.390 . S
C4919 H4923 0.950 . S
H4920 C4916 0.950 . S
C4921 C4919 1.390 . S
C4921 C4922 1.387 . S
C4921 H4924 0.950 . S
C4922 C4921 1.387 . S
C4922 C4925 1.387 . S
H4923 C4919 0.950 . S
H4924 C4921 0.950 . S
C4925 C4916 1.390 . S
C4925 H4918 0.950 . S
C4925 C4922 1.387 . S
C4926 C4927 1.387 . S
C4926 H4930 0.950 . S
C4926 C4935 1.390 . S
C4927 C4926 1.387 . S
C4927 C4929 1.387 . S
H4928 C4935 0.950 . S
C4929 C4927 1.387 . S
C4929 C4931 1.390 . S
C4929 H4933 0.950 . S
H4930 C4926 0.950 . S
C4931 C4929 1.390 . S
C4931 C4932 1.387 . S
C4931 H4934 0.950 . S
C4932 C4931 1.387 . S
C4932 C4935 1.387 . S
H4933 C4929 0.950 . S
H4934 C4931 0.950 . S
C4935 C4926 1.390 . S
C4935 H4928 0.950 . S
C4935 C4932 1.387 . S
C4936 C4937 1.387 . S
C4936 H4940 0.950 . S
C4936 C4945 1.443 . S
C4937 C4936 1.387 . S
C4937 C4939 1.492 . S
H4938 C4945 0.949 . S
C4939 C4937 1.492 . S
C4939 C4941 1.286 1_455 S
C4939 H4943 0.960 . S
H4940 C4936 0.950 . S
C4941 C4939 1.286 1_655 S
C4941 C4942 1.387 . S
C4941 H4944 0.950 . S
C4942 C4941 1.387 . S
C4942 C4945 1.336 1_655 S
H4943 C4939 0.960 . S
H4944 C4941 0.950 . S
C4945 C4936 1.443 . S
C4945 H4938 0.949 . S
C4945 C4942 1.336 1_455 S
C4946 C4947 1.387 . S
C4946 H4950 0.950 . S
C4946 C4955 1.390 . S
C4947 C4946 1.387 . S
C4947 C4949 1.387 . S
H4948 C4955 0.950 . S
C4949 C4947 1.387 . S
C4949 C4951 1.390 . S
C4949 H4953 0.950 . S
H4950 C4946 0.950 . S
C4951 C4949 1.390 . S
C4951 C4952 1.387 . S
C4951 H4954 0.950 . S
C4952 C4951 1.387 . S
C4952 C4955 1.387 . S
H4953 C4949 0.950 . S
H4954 C4951 0.950 . S
C4955 C4946 1.390 . S
C4955 H4948 0.950 . S
C4955 C4952 1.387 . S
C4956 C4957 1.387 . S
C4956 H4960 0.950 . S
C4956 C4965 1.390 . S
C4957 C4956 1.387 . S
C4957 C4959 1.387 . S
H4958 C4965 0.950 . S
C4959 C4957 1.387 . S
C4959 C4961 1.390 . S
C4959 H4963 0.950 . S
H4960 C4956 0.950 . S
C4961 C4959 1.390 . S
C4961 C4962 1.387 . S
C4961 H4964 0.950 . S
C4962 C4961 1.387 . S
C4962 C4965 1.387 . S
H4963 C4959 0.950 . S
H4964 C4961 0.950 . S
C4965 C4956 1.390 . S
C4965 H4958 0.950 . S
C4965 C4962 1.387 . S
C4966 C4967 1.387 . S
C4966 H4970 0.950 . S
C4966 C4975 1.390 . S
C4967 C4966 1.387 . S
C4967 C4969 1.387 . S
H4968 C4975 0.950 . S
C4969 C4967 1.387 . S
C4969 C4971 1.390 . S
C4969 H4973 0.950 . S
H4970 C4966 0.950 . S
C4971 C4969 1.390 . S
C4971 C4972 1.387 . S
C4971 H4974 0.950 . S
C4972 C4971 1.387 . S
C4972 C4975 1.387 . S
H4973 C4969 0.950 . S
H4974 C4971 0.950 . S
C4975 C4966 1.390 . S
C4975 H4968 0.950 . S
C4975 C4972 1.387 . S
C4976 C4977 1.387 . S
C4976 H4980 0.950 . S
C4976 C4985 1.371 1_545 S
C4977 C4976 1.387 . S
C4977 C4979 1.387 . S
H4978 C4985 0.945 . S
C4979 C4977 1.387 . S
C4979 C4981 1.390 1_545 S
C4979 H4983 0.950 . S
H4980 C4976 0.950 . S
C4981 C4979 1.390 1_565 S
C4981 C4982 1.387 . S
C4981 H4984 0.950 . S
C4982 C4981 1.387 . S
C4982 C4985 1.404 . S
H4983 C4979 0.950 . S
H4984 C4981 0.950 . S
C4985 C4976 1.371 1_565 S
C4985 H4978 0.945 . S
C4985 C4982 1.404 . S
C4986 C4987 1.387 . S
C4986 H4990 0.950 . S
C4986 C4995 1.390 . S
C4987 C4986 1.387 . S
C4987 C4989 1.387 . S
H4988 C4995 0.950 . S
C4989 C4987 1.387 . S
C4989 C4991 1.390 . S
C4989 H4993 0.950 . S
H4990 C4986 0.950 . S
C4991 C4989 1.390 . S
C4991 C4992 1.387 . S
C4991 H4994 0.950 . S
C4992 C4991 1.387 . S
C4992 C4995 1.387 . S
H4993 C4989 0.950 . S
H4994 C4991 0.950 . S
C4995 C4986 1.390 . S
C4995 H4988 0.950 . S
C4995 C4992 1.387 . S
C4996 C4997 1.387 . S
C4996 H5000 0.950 . S
C4996 C5005 1.390 1_565 S
C4997 C4996 1.387 . S
C4997 C4999 1.387 . S
H4998 C5005 0.950 . S
C4999 C4997 1.387 . S
C4999 C5001 1.335 1_565 S
C4999 H5003 0.950 . S
H5000 C4996 0.950 . S
C5001 C4999 1.335 1_545 S
C5001 C5002 1.435 . S
C5001 H5004 0.960 . S
C5002 C5001 1.435 . S
C5002 C5005 1.387 . S
H5003 C4999 0.950 . S
H5004 C5001 0.960 . S
C5005 C4996 1.390 1_545 S
C5005 H4998 0.950 . S
C5005 C5002 1.387 . S
C5006 C5007 1.387 . S
C5006 H5010 0.950 . S
C5006 C5015 1.390 . S
C5007 C5006 1.387 . S
C5007 C5009 1.387 . S
H5008 C5015 0.950 . S
C5009 C5007 1.387 . S
C5009 C5011 1.390 . S
C5009 H5013 0.950 . S
H5010 C5006 0.950 . S
C5011 C5009 1.390 . S
C5011 C5012 1.387 . S
C5011 H5014 0.950 . S
C5012 C5011 1.387 . S
C5012 C5015 1.387 . S
H5013 C5009 0.950 . S
H5014 C5011 0.950 . S
C5015 C5006 1.390 . S
C5015 H5008 0.950 . S
C5015 C5012 1.387 . S
C5016 C5017 1.387 . S
C5016 H5020 0.950 . S
C5016 C5025 1.333 1_565 S
C5017 C5016 1.387 . S
C5017 C5019 1.387 . S
H5018 C5025 0.961 . S
C5019 C5017 1.387 . S
C5019 C5021 1.390 1_565 S
C5019 H5023 0.950 . S
H5020 C5016 0.950 . S
C5021 C5019 1.390 1_545 S
C5021 C5022 1.387 . S
C5021 H5024 0.950 . S
C5022 C5021 1.387 . S
C5022 C5025 1.437 . S
H5023 C5019 0.950 . S
H5024 C5021 0.950 . S
C5025 C5016 1.333 1_545 S
C5025 H5018 0.961 . S
C5025 C5022 1.437 . S
C5026 C5027 1.387 . S
C5026 H5030 0.950 . S
C5026 C5035 1.390 . S
C5027 C5026 1.387 . S
C5027 C5029 1.387 . S
H5028 C5035 0.950 . S
C5029 C5027 1.387 . S
C5029 C5031 1.390 . S
C5029 H5033 0.950 . S
H5030 C5026 0.950 . S
C5031 C5029 1.390 . S
C5031 C5032 1.387 . S
C5031 H5034 0.950 . S
C5032 C5031 1.387 . S
C5032 C5035 1.387 . S
H5033 C5029 0.950 . S
H5034 C5031 0.950 . S
C5035 C5026 1.390 . S
C5035 H5028 0.950 . S
C5035 C5032 1.387 . S
C5036 C5037 1.387 . S
C5036 H5040 0.950 . S
C5036 C5045 1.390 1_545 S
C5037 C5036 1.387 . S
C5037 C5039 1.387 . S
H5038 C5045 0.950 . S
C5039 C5037 1.387 . S
C5039 C5041 1.365 1_545 S
C5039 H5043 0.950 . S
H5040 C5036 0.950 . S
C5041 C5039 1.365 1_565 S
C5041 C5042 1.409 . S
C5041 H5044 0.944 . S
C5042 C5041 1.409 . S
C5042 C5045 1.387 . S
H5043 C5039 0.950 . S
H5044 C5041 0.944 . S
C5045 C5036 1.390 1_565 S
C5045 H5038 0.950 . S
C5045 C5042 1.387 . S
C5046 C5047 1.387 . S
C5046 H5050 0.950 . S
C5046 C5055 1.390 . S
C5047 C5046 1.387 . S
C5047 C5049 1.387 . S
H5048 C5055 0.950 . S
C5049 C5047 1.387 . S
C5049 C5051 1.390 . S
C5049 H5053 0.950 . S
H5050 C5046 0.950 . S
C5051 C5049 1.390 . S
C5051 C5052 1.387 . S
C5051 H5054 0.950 . S
C5052 C5051 1.387 . S
C5052 C5055 1.387 . S
H5053 C5049 0.950 . S
H5054 C5051 0.950 . S
C5055 C5046 1.390 . S
C5055 H5048 0.950 . S
C5055 C5052 1.387 . S
C5056 C5057 1.387 . S
C5056 H5060 0.950 . S
C5056 C5065 1.390 1_554 S
C5057 C5056 1.387 . S
C5057 C5059 1.387 . S
H5058 C5065 0.950 . S
C5059 C5057 1.387 . S
C5059 C5061 1.390 1_554 S
C5059 H5063 0.950 . S
H5060 C5056 0.950 . S
C5061 C5059 1.390 1_556 S
C5061 C5062 1.387 . S
C5061 H5064 0.950 . S
C5062 C5061 1.387 . S
C5062 C5065 1.387 . S
H5063 C5059 0.950 . S
H5064 C5061 0.950 . S
C5065 C5056 1.390 1_556 S
C5065 H5058 0.950 . S
C5065 C5062 1.387 . S
C5066 C5067 1.387 . S
C5066 H5070 0.950 . S
C5066 C5075 1.390 1_556 S
C5067 C5066 1.387 . S
C5067 C5069 1.387 . S
H5068 C5075 0.950 . S
C5069 C5067 1.387 . S
C5069 C5071 1.390 1_556 S
C5069 H5073 0.950 . S
H5070 C5066 0.950 . S
C5071 C5069 1.390 1_554 S
C5071 C5072 1.387 . S
C5071 H5074 0.950 . S
C5072 C5071 1.387 . S
C5072 C5075 1.387 . S
H5073 C5069 0.950 . S
H5074 C5071 0.950 . S
C5075 C5066 1.390 1_554 S
C5075 H5068 0.950 . S
C5075 C5072 1.387 . S
C5076 C5077 1.387 . S
C5076 H5080 0.950 . S
C5076 C5085 1.390 . S
C5077 C5076 1.387 . S
C5077 C5079 1.387 . S
H5078 C5085 0.950 . S
C5079 C5077 1.387 . S
C5079 C5081 1.390 . S
C5079 H5083 0.950 . S
H5080 C5076 0.950 . S
C5081 C5079 1.390 . S
C5081 C5082 1.387 . S
C5081 H5084 0.950 . S
C5082 C5081 1.387 . S
C5082 C5085 1.387 . S
H5083 C5079 0.950 . S
H5084 C5081 0.950 . S
C5085 C5076 1.390 . S
C5085 H5078 0.950 . S
C5085 C5082 1.387 . S
C5086 C5087 1.387 . S
C5086 H5090 0.950 . S
C5086 C5095 1.390 . S
C5087 C5086 1.387 . S
C5087 C5089 1.387 . S
H5088 C5095 0.950 . S
C5089 C5087 1.387 . S
C5089 C5091 1.390 . S
C5089 H5093 0.950 . S
H5090 C5086 0.950 . S
C5091 C5089 1.390 . S
C5091 C5092 1.387 . S
C5091 H5094 0.950 . S
C5092 C5091 1.387 . S
C5092 C5095 1.387 . S
H5093 C5089 0.950 . S
H5094 C5091 0.950 . S
C5095 C5086 1.390 . S
C5095 H5088 0.950 . S
C5095 C5092 1.387 . S
C5096 C5097 1.387 . S
C5096 H5100 0.950 . S
C5096 C5105 1.390 . S
C5097 C5096 1.387 . S
C5097 C5099 1.387 . S
H5098 C5105 0.950 . S
C5099 C5097 1.387 . S
C5099 C5101 1.390 . S
C5099 H5103 0.950 . S
H5100 C5096 0.950 . S
C5101 C5099 1.390 . S
C5101 C5102 1.387 . S
C5101 H5104 0.950 . S
C5102 C5101 1.387 . S
C5102 C5105 1.387 . S
H5103 C5099 0.950 . S
H5104 C5101 0.950 . S
C5105 C5096 1.390 . S
C5105 H5098 0.950 . S
C5105 C5102 1.387 . S
C5106 C5107 1.387 . S
C5106 H5110 0.950 . S
C5106 C5115 1.390 . S
C5107 C5106 1.387 . S
C5107 C5109 1.387 . S
H5108 C5115 0.950 . S
C5109 C5107 1.387 . S
C5109 C5111 1.390 . S
C5109 H5113 0.950 . S
H5110 C5106 0.950 . S
C5111 C5109 1.390 . S
C5111 C5112 1.387 . S
C5111 H5114 0.950 . S
C5112 C5111 1.387 . S
C5112 C5115 1.387 . S
H5113 C5109 0.950 . S
H5114 C5111 0.950 . S
C5115 C5106 1.390 . S
C5115 H5108 0.950 . S
C5115 C5112 1.387 . S
C5116 C5117 1.387 . S
C5116 H5120 0.950 . S
C5116 C5125 1.390 . S
C5117 C5116 1.387 . S
C5117 C5119 1.387 . S
H5118 C5125 0.950 . S
C5119 C5117 1.387 . S
C5119 C5121 1.390 . S
C5119 H5123 0.950 . S
H5120 C5116 0.950 . S
C5121 C5119 1.390 . S
C5121 C5122 1.387 . S
C5121 H5124 0.950 . S
C5122 C5121 1.387 . S
C5122 C5125 1.387 . S
H5123 C5119 0.950 . S
H5124 C5121 0.950 . S
C5125 C5116 1.390 . S
C5125 H5118 0.950 . S
C5125 C5122 1.387 . S
C5126 C5127 1.387 . S
C5126 H5130 0.950 . S
C5126 C5135 1.390 . S
C5127 C5126 1.387 . S
C5127 C5129 1.387 . S
H5128 C5135 0.950 . S
C5129 C5127 1.387 . S
C5129 C5131 1.390 . S
C5129 H5133 0.950 . S
H5130 C5126 0.950 . S
C5131 C5129 1.390 . S
C5131 C5132 1.387 . S
C5131 H5134 0.950 . S
C5132 C5131 1.387 . S
C5132 C5135 1.387 . S
H5133 C5129 0.950 . S
H5134 C5131 0.950 . S
C5135 C5126 1.390 . S
C5135 H5128 0.950 . S
C5135 C5132 1.387 . S
C5136 C5137 1.387 . S
C5136 H5140 0.950 . S
C5136 C5145 1.390 1_655 S
C5137 C5136 1.387 . S
C5137 C5139 1.387 . S
H5138 C5145 0.950 . S
C5139 C5137 1.387 . S
C5139 C5141 1.390 1_655 S
C5139 H5143 0.950 . S
H5140 C5136 0.950 . S
C5141 C5139 1.390 1_455 S
C5141 C5142 1.387 . S
C5141 H5144 0.950 . S
C5142 C5141 1.387 . S
C5142 C5145 1.387 . S
H5143 C5139 0.950 . S
H5144 C5141 0.950 . S
C5145 C5136 1.390 1_455 S
C5145 H5138 0.950 . S
C5145 C5142 1.387 . S
C5146 C5147 1.387 . S
C5146 H5150 0.950 . S
C5146 C5155 1.390 . S
C5147 C5146 1.387 . S
C5147 C5149 1.387 . S
H5148 C5155 0.950 . S
C5149 C5147 1.387 . S
C5149 C5151 1.390 . S
C5149 H5153 0.950 . S
H5150 C5146 0.950 . S
C5151 C5149 1.390 . S
C5151 C5152 1.387 . S
C5151 H5154 0.950 . S
C5152 C5151 1.387 . S
C5152 C5155 1.387 . S
H5153 C5149 0.950 . S
H5154 C5151 0.950 . S
C5155 C5146 1.390 . S
C5155 H5148 0.950 . S
C5155 C5152 1.387 . S
C5156 C5157 1.387 . S
C5156 H5160 0.950 . S
C5156 C5165 1.390 . S
C5157 C5156 1.387 . S
C5157 C5159 1.387 . S
H5158 C5165 0.950 . S
C5159 C5157 1.387 . S
C5159 C5161 1.390 . S
C5159 H5163 0.950 . S
H5160 C5156 0.950 . S
C5161 C5159 1.390 . S
C5161 C5162 1.387 . S
C5161 H5164 0.950 . S
C5162 C5161 1.387 . S
C5162 C5165 1.387 . S
H5163 C5159 0.950 . S
H5164 C5161 0.950 . S
C5165 C5156 1.390 . S
C5165 H5158 0.950 . S
C5165 C5162 1.387 . S
C5166 C5167 1.387 . S
C5166 H5170 0.950 . S
C5166 C5175 1.390 . S
C5167 C5166 1.387 . S
C5167 C5169 1.387 . S
H5168 C5175 0.950 . S
C5169 C5167 1.387 . S
C5169 C5171 1.390 . S
C5169 H5173 0.950 . S
H5170 C5166 0.950 . S
C5171 C5169 1.390 . S
C5171 C5172 1.387 . S
C5171 H5174 0.950 . S
C5172 C5171 1.387 . S
C5172 C5175 1.387 . S
H5173 C5169 0.950 . S
H5174 C5171 0.950 . S
C5175 C5166 1.390 . S
C5175 H5168 0.950 . S
C5175 C5172 1.387 . S
C5176 C5177 1.387 . S
C5176 H5180 0.950 . S
C5176 C5185 1.390 1_655 S
C5177 C5176 1.387 . S
C5177 C5179 1.387 . S
H5178 C5185 0.950 . S
C5179 C5177 1.387 . S
C5179 C5181 1.390 1_655 S
C5179 H5183 0.950 . S
H5180 C5176 0.950 . S
C5181 C5179 1.390 1_455 S
C5181 C5182 1.387 . S
C5181 H5184 0.950 . S
C5182 C5181 1.387 . S
C5182 C5185 1.387 . S
H5183 C5179 0.950 . S
H5184 C5181 0.950 . S
C5185 C5176 1.390 1_455 S
C5185 H5178 0.950 . S
C5185 C5182 1.387 . S
C5186 C5187 1.387 . S
C5186 H5190 0.950 . S
C5186 C5195 1.390 . S
C5187 C5186 1.387 . S
C5187 C5189 1.387 . S
H5188 C5195 0.950 . S
C5189 C5187 1.387 . S
C5189 C5191 1.390 . S
C5189 H5193 0.950 . S
H5190 C5186 0.950 . S
C5191 C5189 1.390 . S
C5191 C5192 1.387 . S
C5191 H5194 0.950 . S
C5192 C5191 1.387 . S
C5192 C5195 1.387 . S
H5193 C5189 0.950 . S
H5194 C5191 0.950 . S
C5195 C5186 1.390 . S
C5195 H5188 0.950 . S
C5195 C5192 1.387 . S
C5196 C5197 1.387 . S
C5196 H5200 0.950 . S
C5196 C5205 1.390 . S
C5197 C5196 1.387 . S
C5197 C5199 1.387 . S
H5198 C5205 0.950 . S
C5199 C5197 1.387 . S
C5199 C5201 1.390 . S
C5199 H5203 0.950 . S
H5200 C5196 0.950 . S
C5201 C5199 1.390 . S
C5201 C5202 1.387 . S
C5201 H5204 0.950 . S
C5202 C5201 1.387 . S
C5202 C5205 1.387 . S
H5203 C5199 0.950 . S
H5204 C5201 0.950 . S
C5205 C5196 1.390 . S
C5205 H5198 0.950 . S
C5205 C5202 1.387 . S
C5206 C5207 1.387 . S
C5206 H5210 0.950 . S
C5206 C5215 1.390 . S
C5207 C5206 1.387 . S
C5207 C5209 1.387 . S
H5208 C5215 0.950 . S
C5209 C5207 1.387 . S
C5209 C5211 1.390 . S
C5209 H5213 0.950 . S
H5210 C5206 0.950 . S
C5211 C5209 1.390 . S
C5211 C5212 1.387 . S
C5211 H5214 0.950 . S
C5212 C5211 1.387 . S
C5212 C5215 1.387 . S
H5213 C5209 0.950 . S
H5214 C5211 0.950 . S
C5215 C5206 1.390 . S
C5215 H5208 0.950 . S
C5215 C5212 1.387 . S
C5216 C5217 1.387 . S
C5216 H5220 0.950 . S
C5216 C5225 1.390 1_565 S
C5217 C5216 1.387 . S
C5217 C5219 1.387 . S
H5218 C5225 0.950 . S
C5219 C5217 1.387 . S
C5219 C5221 1.416 . S
C5219 H5223 0.950 . S
H5220 C5216 0.950 . S
C5221 C5219 1.416 . S
C5221 C5222 1.363 1_565 S
C5221 H5224 0.949 . S
C5222 C5221 1.363 1_545 S
C5222 C5225 1.387 . S
H5223 C5219 0.950 . S
H5224 C5221 0.949 . S
C5225 C5216 1.390 1_545 S
C5225 H5218 0.950 . S
C5225 C5222 1.387 . S
C5226 C5227 1.387 . S
C5226 H5230 0.950 . S
C5226 C5235 1.390 . S
C5227 C5226 1.387 . S
C5227 C5229 1.387 . S
H5228 C5235 0.950 . S
C5229 C5227 1.387 . S
C5229 C5231 1.390 . S
C5229 H5233 0.950 . S
H5230 C5226 0.950 . S
C5231 C5229 1.390 . S
C5231 C5232 1.387 . S
C5231 H5234 0.950 . S
C5232 C5231 1.387 . S
C5232 C5235 1.387 . S
H5233 C5229 0.950 . S
H5234 C5231 0.950 . S
C5235 C5226 1.390 . S
C5235 H5228 0.950 . S
C5235 C5232 1.387 . S
C5236 C5237 1.387 . S
C5236 H5240 0.950 . S
C5236 C5245 1.390 1_545 S
C5237 C5236 1.387 . S
C5237 C5239 1.387 . S
H5238 C5245 0.950 . S
C5239 C5237 1.387 . S
C5239 C5241 1.421 . S
C5239 H5243 0.950 . S
H5240 C5236 0.950 . S
C5241 C5239 1.421 . S
C5241 C5242 1.358 1_545 S
C5241 H5244 0.949 . S
C5242 C5241 1.358 1_565 S
C5242 C5245 1.387 . S
H5243 C5239 0.950 . S
H5244 C5241 0.949 . S
C5245 C5236 1.390 1_565 S
C5245 H5238 0.950 . S
C5245 C5242 1.387 . S
C5246 C5247 1.387 . S
C5246 H5250 0.950 . S
C5246 C5255 1.390 . S
C5247 C5246 1.387 . S
C5247 C5249 1.387 . S
H5248 C5255 0.950 . S
C5249 C5247 1.387 . S
C5249 C5251 1.390 . S
C5249 H5253 0.950 . S
H5250 C5246 0.950 . S
C5251 C5249 1.390 . S
C5251 C5252 1.387 . S
C5251 H5254 0.950 . S
C5252 C5251 1.387 . S
C5252 C5255 1.387 . S
H5253 C5249 0.950 . S
H5254 C5251 0.950 . S
C5255 C5246 1.390 . S
C5255 H5248 0.950 . S
C5255 C5252 1.387 . S
C5256 C5257 1.387 . S
C5256 H5260 0.950 . S
C5256 C5265 1.390 1_545 S
C5257 C5256 1.387 . S
C5257 C5259 1.387 . S
H5258 C5265 0.950 . S
C5259 C5257 1.387 . S
C5259 C5261 1.380 1_545 S
C5259 H5263 0.950 . S
H5260 C5256 0.950 . S
C5261 C5259 1.380 1_565 S
C5261 C5262 1.397 . S
C5261 H5264 0.946 . S
C5262 C5261 1.397 . S
C5262 C5265 1.387 . S
H5263 C5259 0.950 . S
H5264 C5261 0.946 . S
C5265 C5256 1.390 1_565 S
C5265 H5258 0.950 . S
C5265 C5262 1.387 . S
C5266 C5267 1.387 . S
C5266 H5270 0.950 . S
C5266 C5275 1.390 . S
C5267 C5266 1.387 . S
C5267 C5269 1.387 . S
H5268 C5275 0.950 . S
C5269 C5267 1.387 . S
C5269 C5271 1.390 . S
C5269 H5273 0.950 . S
H5270 C5266 0.950 . S
C5271 C5269 1.390 . S
C5271 C5272 1.387 . S
C5271 H5274 0.950 . S
C5272 C5271 1.387 . S
C5272 C5275 1.387 . S
H5273 C5269 0.950 . S
H5274 C5271 0.950 . S
C5275 C5266 1.390 . S
C5275 H5268 0.950 . S
C5275 C5272 1.387 . S
C5276 C5277 1.387 . S
C5276 H5280 0.950 . S
C5276 C5285 1.280 1_565 S
C5277 C5276 1.387 . S
C5277 C5279 1.387 . S
H5278 C5285 0.980 . S
C5279 C5277 1.387 . S
C5279 C5281 1.390 1_565 S
C5279 H5283 0.950 . S
H5280 C5276 0.950 . S
C5281 C5279 1.390 1_545 S
C5281 C5282 1.387 . S
C5281 H5284 0.950 . S
C5282 C5281 1.387 . S
C5282 C5285 1.479 . S
H5283 C5279 0.950 . S
H5284 C5281 0.950 . S
C5285 C5276 1.280 1_545 S
C5285 H5278 0.980 . S
C5285 C5282 1.479 . S
C5286 C5287 1.387 . S
C5286 H5290 0.950 . S
C5286 C5295 1.390 . S
C5287 C5286 1.387 . S
C5287 C5289 1.387 . S
H5288 C5295 0.950 . S
C5289 C5287 1.387 . S
C5289 C5291 1.390 . S
C5289 H5293 0.950 . S
H5290 C5286 0.950 . S
C5291 C5289 1.390 . S
C5291 C5292 1.387 . S
C5291 H5294 0.950 . S
C5292 C5291 1.387 . S
C5292 C5295 1.387 . S
H5293 C5289 0.950 . S
H5294 C5291 0.950 . S
C5295 C5286 1.390 . S
C5295 H5288 0.950 . S
C5295 C5292 1.387 . S
C5296 C5297 1.387 . S
C5296 H5300 0.950 . S
C5296 C5305 1.390 1_556 S
C5297 C5296 1.387 . S
C5297 C5299 1.387 . S
H5298 C5305 0.950 . S
C5299 C5297 1.387 . S
C5299 C5301 1.329 1_556 S
C5299 H5303 0.950 . S
H5300 C5296 0.950 . S
C5301 C5299 1.329 1_554 S
C5301 C5302 1.440 . S
C5301 H5304 0.962 . S
C5302 C5301 1.440 . S
C5302 C5305 1.387 . S
H5303 C5299 0.950 . S
H5304 C5301 0.962 . S
C5305 C5296 1.390 1_554 S
C5305 H5298 0.950 . S
C5305 C5302 1.387 . S
C5306 C5307 1.387 . S
C5306 H5310 0.950 . S
C5306 C5315 1.390 1_554 S
C5307 C5306 1.387 . S
C5307 C5309 1.387 . S
H5308 C5315 0.950 . S
C5309 C5307 1.387 . S
C5309 C5311 1.343 1_554 S
C5309 H5313 0.950 . S
H5310 C5306 0.950 . S
C5311 C5309 1.343 1_556 S
C5311 C5312 1.428 . S
C5311 H5314 0.958 . S
C5312 C5311 1.428 . S
C5312 C5315 1.387 . S
H5313 C5309 0.950 . S
H5314 C5311 0.958 . S
C5315 C5306 1.390 1_556 S
C5315 H5308 0.950 . S
C5315 C5312 1.387 . S
C5316 C5317 1.387 . S
C5316 H5320 0.950 . S
C5316 C5325 1.390 . S
C5317 C5316 1.387 . S
C5317 C5319 1.387 . S
H5318 C5325 0.950 . S
C5319 C5317 1.387 . S
C5319 C5321 1.390 . S
C5319 H5323 0.950 . S
H5320 C5316 0.950 . S
C5321 C5319 1.390 . S
C5321 C5322 1.387 . S
C5321 H5324 0.950 . S
C5322 C5321 1.387 . S
C5322 C5325 1.387 . S
H5323 C5319 0.950 . S
H5324 C5321 0.950 . S
C5325 C5316 1.390 . S
C5325 H5318 0.950 . S
C5325 C5322 1.387 . S
C5326 C5327 1.387 . S
C5326 H5330 0.950 . S
C5326 C5335 1.390 . S
C5327 C5326 1.387 . S
C5327 C5329 1.387 . S
H5328 C5335 0.950 . S
C5329 C5327 1.387 . S
C5329 C5331 1.390 . S
C5329 H5333 0.950 . S
H5330 C5326 0.950 . S
C5331 C5329 1.390 . S
C5331 C5332 1.387 . S
C5331 H5334 0.950 . S
C5332 C5331 1.387 . S
C5332 C5335 1.387 . S
H5333 C5329 0.950 . S
H5334 C5331 0.950 . S
C5335 C5326 1.390 . S
C5335 H5328 0.950 . S
C5335 C5332 1.387 . S
C5336 C5337 1.387 . S
C5336 H5340 0.950 . S
C5336 C5345 1.390 . S
C5337 C5336 1.387 . S
C5337 C5339 1.387 . S
H5338 C5345 0.950 . S
C5339 C5337 1.387 . S
C5339 C5341 1.390 . S
C5339 H5343 0.950 . S
H5340 C5336 0.950 . S
C5341 C5339 1.390 . S
C5341 C5342 1.387 . S
C5341 H5344 0.950 . S
C5342 C5341 1.387 . S
C5342 C5345 1.387 . S
H5343 C5339 0.950 . S
H5344 C5341 0.950 . S
C5345 C5336 1.390 . S
C5345 H5338 0.950 . S
C5345 C5342 1.387 . S
C5346 C5347 1.387 . S
C5346 H5350 0.950 . S
C5346 C5355 1.390 . S
C5347 C5346 1.387 . S
C5347 C5349 1.387 . S
H5348 C5355 0.950 . S
C5349 C5347 1.387 . S
C5349 C5351 1.390 . S
C5349 H5353 0.950 . S
H5350 C5346 0.950 . S
C5351 C5349 1.390 . S
C5351 C5352 1.387 . S
C5351 H5354 0.950 . S
C5352 C5351 1.387 . S
C5352 C5355 1.387 . S
H5353 C5349 0.950 . S
H5354 C5351 0.950 . S
C5355 C5346 1.390 . S
C5355 H5348 0.950 . S
C5355 C5352 1.387 . S
C5356 C5357 1.387 . S
C5356 H5360 0.950 . S
C5356 C5365 1.390 . S
C5357 C5356 1.387 . S
C5357 C5359 1.387 . S
H5358 C5365 0.950 . S
C5359 C5357 1.387 . S
C5359 C5361 1.390 . S
C5359 H5363 0.950 . S
H5360 C5356 0.950 . S
C5361 C5359 1.390 . S
C5361 C5362 1.387 . S
C5361 H5364 0.950 . S
C5362 C5361 1.387 . S
C5362 C5365 1.387 . S
H5363 C5359 0.950 . S
H5364 C5361 0.950 . S
C5365 C5356 1.390 . S
C5365 H5358 0.950 . S
C5365 C5362 1.387 . S
C5366 C5367 1.387 . S
C5366 H5370 0.950 . S
C5366 C5375 1.390 . S
C5367 C5366 1.387 . S
C5367 C5369 1.387 . S
H5368 C5375 0.950 . S
C5369 C5367 1.387 . S
C5369 C5371 1.390 . S
C5369 H5373 0.950 . S
H5370 C5366 0.950 . S
C5371 C5369 1.390 . S
C5371 C5372 1.387 . S
C5371 H5374 0.950 . S
C5372 C5371 1.387 . S
C5372 C5375 1.387 . S
H5373 C5369 0.950 . S
H5374 C5371 0.950 . S
C5375 C5366 1.390 . S
C5375 H5368 0.950 . S
C5375 C5372 1.387 . S
C5376 C5377 1.387 . S
C5376 H5380 0.950 . S
C5376 C5385 1.390 . S
C5377 C5376 1.387 . S
C5377 C5379 1.387 . S
H5378 C5385 0.950 . S
C5379 C5377 1.387 . S
C5379 C5381 1.390 . S
C5379 H5383 0.950 . S
H5380 C5376 0.950 . S
C5381 C5379 1.390 . S
C5381 C5382 1.387 . S
C5381 H5384 0.950 . S
C5382 C5381 1.387 . S
C5382 C5385 1.387 . S
H5383 C5379 0.950 . S
H5384 C5381 0.950 . S
C5385 C5376 1.390 . S
C5385 H5378 0.950 . S
C5385 C5382 1.387 . S
C5386 C5387 1.387 . S
C5386 H5390 0.950 . S
C5386 C5395 1.390 . S
C5387 C5386 1.387 . S
C5387 C5389 1.387 . S
H5388 C5395 0.950 . S
C5389 C5387 1.387 . S
C5389 C5391 1.390 . S
C5389 H5393 0.950 . S
H5390 C5386 0.950 . S
C5391 C5389 1.390 . S
C5391 C5392 1.387 . S
C5391 H5394 0.950 . S
C5392 C5391 1.387 . S
C5392 C5395 1.387 . S
H5393 C5389 0.950 . S
H5394 C5391 0.950 . S
C5395 C5386 1.390 . S
C5395 H5388 0.950 . S
C5395 C5392 1.387 . S
C5396 C5397 1.387 . S
C5396 H5400 0.950 . S
C5396 C5405 1.390 1_655 S
C5397 C5396 1.387 . S
C5397 C5399 1.387 . S
H5398 C5405 0.950 . S
C5399 C5397 1.387 . S
C5399 C5401 1.390 1_655 S
C5399 H5403 0.950 . S
H5400 C5396 0.950 . S
C5401 C5399 1.390 1_455 S
C5401 C5402 1.387 . S
C5401 H5404 0.950 . S
C5402 C5401 1.387 . S
C5402 C5405 1.387 . S
H5403 C5399 0.950 . S
H5404 C5401 0.950 . S
C5405 C5396 1.390 1_455 S
C5405 H5398 0.950 . S
C5405 C5402 1.387 . S
C5406 C5407 1.387 . S
C5406 H5410 0.950 . S
C5406 C5415 1.390 . S
C5407 C5406 1.387 . S
C5407 C5409 1.387 . S
H5408 C5415 0.950 . S
C5409 C5407 1.387 . S
C5409 C5411 1.390 . S
C5409 H5413 0.950 . S
H5410 C5406 0.950 . S
C5411 C5409 1.390 . S
C5411 C5412 1.387 . S
C5411 H5414 0.950 . S
C5412 C5411 1.387 . S
C5412 C5415 1.387 . S
H5413 C5409 0.950 . S
H5414 C5411 0.950 . S
C5415 C5406 1.390 . S
C5415 H5408 0.950 . S
C5415 C5412 1.387 . S
C5416 C5417 1.387 . S
C5416 H5420 0.950 . S
C5416 C5425 1.390 . S
C5417 C5416 1.387 . S
C5417 C5419 1.387 . S
H5418 C5425 0.950 . S
C5419 C5417 1.387 . S
C5419 C5421 1.390 . S
C5419 H5423 0.950 . S
H5420 C5416 0.950 . S
C5421 C5419 1.390 . S
C5421 C5422 1.387 . S
C5421 H5424 0.950 . S
C5422 C5421 1.387 . S
C5422 C5425 1.387 . S
H5423 C5419 0.950 . S
H5424 C5421 0.950 . S
C5425 C5416 1.390 . S
C5425 H5418 0.950 . S
C5425 C5422 1.387 . S
C5426 C5427 1.387 . S
C5426 H5430 0.950 . S
C5426 C5435 1.390 . S
C5427 C5426 1.387 . S
C5427 C5429 1.387 . S
H5428 C5435 0.950 . S
C5429 C5427 1.387 . S
C5429 C5431 1.390 . S
C5429 H5433 0.950 . S
H5430 C5426 0.950 . S
C5431 C5429 1.390 . S
C5431 C5432 1.387 . S
C5431 H5434 0.950 . S
C5432 C5431 1.387 . S
C5432 C5435 1.387 . S
H5433 C5429 0.950 . S
H5434 C5431 0.950 . S
C5435 C5426 1.390 . S
C5435 H5428 0.950 . S
C5435 C5432 1.387 . S
C5436 C5437 1.387 . S
C5436 H5440 0.950 . S
C5436 C5445 1.390 1_655 S
C5437 C5436 1.387 . S
C5437 C5439 1.387 . S
H5438 C5445 0.950 . S
C5439 C5437 1.387 . S
C5439 C5441 1.390 1_655 S
C5439 H5443 0.950 . S
H5440 C5436 0.950 . S
C5441 C5439 1.390 1_455 S
C5441 C5442 1.387 . S
C5441 H5444 0.950 . S
C5442 C5441 1.387 . S
C5442 C5445 1.387 . S
H5443 C5439 0.950 . S
H5444 C5441 0.950 . S
C5445 C5436 1.390 1_455 S
C5445 H5438 0.950 . S
C5445 C5442 1.387 . S
C5446 C5447 1.387 . S
C5446 H5450 0.950 . S
C5446 C5455 1.390 . S
C5447 C5446 1.387 . S
C5447 C5449 1.387 . S
H5448 C5455 0.950 . S
C5449 C5447 1.387 . S
C5449 C5451 1.390 . S
C5449 H5453 0.950 . S
H5450 C5446 0.950 . S
C5451 C5449 1.390 . S
C5451 C5452 1.387 . S
C5451 H5454 0.950 . S
C5452 C5451 1.387 . S
C5452 C5455 1.387 . S
H5453 C5449 0.950 . S
H5454 C5451 0.950 . S
C5455 C5446 1.390 . S
C5455 H5448 0.950 . S
C5455 C5452 1.387 . S
C5456 C5457 1.387 . S
C5456 H5460 0.950 . S
C5456 C5465 1.390 . S
C5457 C5456 1.387 . S
C5457 C5459 1.387 . S
H5458 C5465 0.950 . S
C5459 C5457 1.387 . S
C5459 C5461 1.390 . S
C5459 H5463 0.950 . S
H5460 C5456 0.950 . S
C5461 C5459 1.390 . S
C5461 C5462 1.387 . S
C5461 H5464 0.950 . S
C5462 C5461 1.387 . S
C5462 C5465 1.387 . S
H5463 C5459 0.950 . S
H5464 C5461 0.950 . S
C5465 C5456 1.390 . S
C5465 H5458 0.950 . S
C5465 C5462 1.387 . S
C5466 C5467 1.387 . S
C5466 H5470 0.950 . S
C5466 C5475 1.390 . S
C5467 C5466 1.387 . S
C5467 C5469 1.387 . S
H5468 C5475 0.950 . S
C5469 C5467 1.387 . S
C5469 C5471 1.390 . S
C5469 H5473 0.950 . S
H5470 C5466 0.950 . S
C5471 C5469 1.390 . S
C5471 C5472 1.387 . S
C5471 H5474 0.950 . S
C5472 C5471 1.387 . S
C5472 C5475 1.387 . S
H5473 C5469 0.950 . S
H5474 C5471 0.950 . S
C5475 C5466 1.390 . S
C5475 H5468 0.950 . S
C5475 C5472 1.387 . S
C5476 C5477 1.387 . S
C5476 H5480 0.950 . S
C5476 C5485 1.390 . S
C5477 C5476 1.387 . S
C5477 C5479 1.387 . S
H5478 C5485 0.950 . S
C5479 C5477 1.387 . S
C5479 C5481 1.390 . S
C5479 H5483 0.950 . S
H5480 C5476 0.950 . S
C5481 C5479 1.390 . S
C5481 C5482 1.387 . S
C5481 H5484 0.950 . S
C5482 C5481 1.387 . S
C5482 C5485 1.387 . S
H5483 C5479 0.950 . S
H5484 C5481 0.950 . S
C5485 C5476 1.390 . S
C5485 H5478 0.950 . S
C5485 C5482 1.387 . S
C5486 C5487 1.387 . S
C5486 H5490 0.950 . S
C5486 C5495 1.390 . S
C5487 C5486 1.387 . S
C5487 C5489 1.387 . S
H5488 C5495 0.950 . S
C5489 C5487 1.387 . S
C5489 C5491 1.390 . S
C5489 H5493 0.950 . S
H5490 C5486 0.950 . S
C5491 C5489 1.390 . S
C5491 C5492 1.387 . S
C5491 H5494 0.950 . S
C5492 C5491 1.387 . S
C5492 C5495 1.387 . S
H5493 C5489 0.950 . S
H5494 C5491 0.950 . S
C5495 C5486 1.390 . S
C5495 H5488 0.950 . S
C5495 C5492 1.387 . S
C5496 C5497 1.387 . S
C5496 H5500 0.950 . S
C5496 C5505 1.390 . S
C5497 C5496 1.387 . S
C5497 C5499 1.387 . S
H5498 C5505 0.950 . S
C5499 C5497 1.387 . S
C5499 C5501 1.390 . S
C5499 H5503 0.950 . S
H5500 C5496 0.950 . S
C5501 C5499 1.390 . S
C5501 C5502 1.387 . S
C5501 H5504 0.950 . S
C5502 C5501 1.387 . S
C5502 C5505 1.387 . S
H5503 C5499 0.950 . S
H5504 C5501 0.950 . S
C5505 C5496 1.390 . S
C5505 H5498 0.950 . S
C5505 C5502 1.387 . S
C5506 C5507 1.387 . S
C5506 H5510 0.950 . S
C5506 C5515 1.390 . S
C5507 C5506 1.387 . S
C5507 C5509 1.387 . S
H5508 C5515 0.950 . S
C5509 C5507 1.387 . S
C5509 C5511 1.390 . S
C5509 H5513 0.950 . S
H5510 C5506 0.950 . S
C5511 C5509 1.390 . S
C5511 C5512 1.387 . S
C5511 H5514 0.950 . S
C5512 C5511 1.387 . S
C5512 C5515 1.387 . S
H5513 C5509 0.950 . S
H5514 C5511 0.950 . S
C5515 C5506 1.390 . S
C5515 H5508 0.950 . S
C5515 C5512 1.387 . S
C5516 C5517 1.387 . S
C5516 H5520 0.950 . S
C5516 C5525 1.390 . S
C5517 C5516 1.387 . S
C5517 C5519 1.387 . S
H5518 C5525 0.950 . S
C5519 C5517 1.387 . S
C5519 C5521 1.390 . S
C5519 H5523 0.950 . S
H5520 C5516 0.950 . S
C5521 C5519 1.390 . S
C5521 C5522 1.387 . S
C5521 H5524 0.950 . S
C5522 C5521 1.387 . S
C5522 C5525 1.387 . S
H5523 C5519 0.950 . S
H5524 C5521 0.950 . S
C5525 C5516 1.390 . S
C5525 H5518 0.950 . S
C5525 C5522 1.387 . S
C5526 C5527 1.387 . S
C5526 H5530 0.950 . S
C5526 C5535 1.390 . S
C5527 C5526 1.387 . S
C5527 C5529 1.387 . S
H5528 C5535 0.950 . S
C5529 C5527 1.387 . S
C5529 C5531 1.390 . S
C5529 H5533 0.950 . S
H5530 C5526 0.950 . S
C5531 C5529 1.390 . S
C5531 C5532 1.387 . S
C5531 H5534 0.950 . S
C5532 C5531 1.387 . S
C5532 C5535 1.387 . S
H5533 C5529 0.950 . S
H5534 C5531 0.950 . S
C5535 C5526 1.390 . S
C5535 H5528 0.950 . S
C5535 C5532 1.387 . S
C5536 C5537 1.387 . S
C5536 H5540 0.950 . S
C5536 C5545 1.390 . S
C5537 C5536 1.387 . S
C5537 C5539 1.387 . S
H5538 C5545 0.950 . S
C5539 C5537 1.387 . S
C5539 C5541 1.390 . S
C5539 H5543 0.950 . S
H5540 C5536 0.950 . S
C5541 C5539 1.390 . S
C5541 C5542 1.387 . S
C5541 H5544 0.950 . S
C5542 C5541 1.387 . S
C5542 C5545 1.387 . S
H5543 C5539 0.950 . S
H5544 C5541 0.950 . S
C5545 C5536 1.390 . S
C5545 H5538 0.950 . S
C5545 C5542 1.387 . S
C5546 C5547 1.387 . S
C5546 H5550 0.950 . S
C5546 C5555 1.390 . S
C5547 C5546 1.387 . S
C5547 C5549 1.387 . S
H5548 C5555 0.950 . S
C5549 C5547 1.387 . S
C5549 C5551 1.390 . S
C5549 H5553 0.950 . S
H5550 C5546 0.950 . S
C5551 C5549 1.390 . S
C5551 C5552 1.387 . S
C5551 H5554 0.950 . S
C5552 C5551 1.387 . S
C5552 C5555 1.387 . S
H5553 C5549 0.950 . S
H5554 C5551 0.950 . S
C5555 C5546 1.390 . S
C5555 H5548 0.950 . S
C5555 C5552 1.387 . S
C5556 C5557 1.387 . S
C5556 H5560 0.950 . S
C5556 C5565 1.390 . S
C5557 C5556 1.387 . S
C5557 C5559 1.387 . S
H5558 C5565 0.950 . S
C5559 C5557 1.387 . S
C5559 C5561 1.390 . S
C5559 H5563 0.950 . S
H5560 C5556 0.950 . S
C5561 C5559 1.390 . S
C5561 C5562 1.387 . S
C5561 H5564 0.950 . S
C5562 C5561 1.387 . S
C5562 C5565 1.387 . S
H5563 C5559 0.950 . S
H5564 C5561 0.950 . S
C5565 C5556 1.390 . S
C5565 H5558 0.950 . S
C5565 C5562 1.387 . S
C5566 C5567 1.387 . S
C5566 H5570 0.950 . S
C5566 C5575 1.335 1_556 S
C5567 C5566 1.387 . S
C5567 C5569 1.387 . S
H5568 C5575 0.960 . S
C5569 C5567 1.387 . S
C5569 C5571 1.390 1_556 S
C5569 H5573 0.950 . S
H5570 C5566 0.950 . S
C5571 C5569 1.390 1_554 S
C5571 C5572 1.387 . S
C5571 H5574 0.950 . S
C5572 C5571 1.387 . S
C5572 C5575 1.436 . S
H5573 C5569 0.950 . S
H5574 C5571 0.950 . S
C5575 C5566 1.335 1_554 S
C5575 H5568 0.960 . S
C5575 C5572 1.436 . S
C5576 C5577 1.387 . S
C5576 H5580 0.950 . S
C5576 C5585 1.390 . S
C5577 C5576 1.387 . S
C5577 C5579 1.387 . S
H5578 C5585 0.950 . S
C5579 C5577 1.387 . S
C5579 C5581 1.390 . S
C5579 H5583 0.950 . S
H5580 C5576 0.950 . S
C5581 C5579 1.390 . S
C5581 C5582 1.387 . S
C5581 H5584 0.950 . S
C5582 C5581 1.387 . S
C5582 C5585 1.387 . S
H5583 C5579 0.950 . S
H5584 C5581 0.950 . S
C5585 C5576 1.390 . S
C5585 H5578 0.950 . S
C5585 C5582 1.387 . S
C5586 C5587 1.387 . S
C5586 H5590 0.950 . S
C5586 C5595 1.390 1_554 S
C5587 C5586 1.387 . S
C5587 C5589 1.387 . S
H5588 C5595 0.950 . S
C5589 C5587 1.387 . S
C5589 C5591 1.390 1_554 S
C5589 H5593 0.950 . S
H5590 C5586 0.950 . S
C5591 C5589 1.390 1_556 S
C5591 C5592 1.387 . S
C5591 H5594 0.950 . S
C5592 C5591 1.387 . S
C5592 C5595 1.387 . S
H5593 C5589 0.950 . S
H5594 C5591 0.950 . S
C5595 C5586 1.390 1_556 S
C5595 H5588 0.950 . S
C5595 C5592 1.387 . S
C5596 C5597 1.387 . S
C5596 H5600 0.950 . S
C5596 C5605 1.390 . S
C5597 C5596 1.387 . S
C5597 C5599 1.387 . S
H5598 C5605 0.950 . S
C5599 C5597 1.387 . S
C5599 C5601 1.390 . S
C5599 H5603 0.950 . S
H5600 C5596 0.950 . S
C5601 C5599 1.390 . S
C5601 C5602 1.387 . S
C5601 H5604 0.950 . S
C5602 C5601 1.387 . S
C5602 C5605 1.387 . S
H5603 C5599 0.950 . S
H5604 C5601 0.950 . S
C5605 C5596 1.390 . S
C5605 H5598 0.950 . S
C5605 C5602 1.387 . S
C5606 C5607 1.387 . S
C5606 H5610 0.950 . S
C5606 C5615 1.390 . S
C5607 C5606 1.387 . S
C5607 C5609 1.387 . S
H5608 C5615 0.950 . S
C5609 C5607 1.387 . S
C5609 C5611 1.390 . S
C5609 H5613 0.950 . S
H5610 C5606 0.950 . S
C5611 C5609 1.390 . S
C5611 C5612 1.387 . S
C5611 H5614 0.950 . S
C5612 C5611 1.387 . S
C5612 C5615 1.387 . S
H5613 C5609 0.950 . S
H5614 C5611 0.950 . S
C5615 C5606 1.390 . S
C5615 H5608 0.950 . S
C5615 C5612 1.387 . S
C5616 C5617 1.387 . S
C5616 H5620 0.950 . S
C5616 C5625 1.390 . S
C5617 C5616 1.387 . S
C5617 C5619 1.387 . S
H5618 C5625 0.950 . S
C5619 C5617 1.387 . S
C5619 C5621 1.390 . S
C5619 H5623 0.950 . S
H5620 C5616 0.950 . S
C5621 C5619 1.390 . S
C5621 C5622 1.387 . S
C5621 H5624 0.950 . S
C5622 C5621 1.387 . S
C5622 C5625 1.387 . S
H5623 C5619 0.950 . S
H5624 C5621 0.950 . S
C5625 C5616 1.390 . S
C5625 H5618 0.950 . S
C5625 C5622 1.387 . S
C5626 C5627 1.387 . S
C5626 H5630 0.950 . S
C5626 C5635 1.390 . S
C5627 C5626 1.387 . S
C5627 C5629 1.387 . S
H5628 C5635 0.950 . S
C5629 C5627 1.387 . S
C5629 C5631 1.390 . S
C5629 H5633 0.950 . S
H5630 C5626 0.950 . S
C5631 C5629 1.390 . S
C5631 C5632 1.387 . S
C5631 H5634 0.950 . S
C5632 C5631 1.387 . S
C5632 C5635 1.387 . S
H5633 C5629 0.950 . S
H5634 C5631 0.950 . S
C5635 C5626 1.390 . S
C5635 H5628 0.950 . S
C5635 C5632 1.387 . S
C5636 C5637 1.387 . S
C5636 H5640 0.950 . S
C5636 C5645 1.390 1_455 S
C5637 C5636 1.387 . S
C5637 C5639 1.387 . S
H5638 C5645 0.950 . S
C5639 C5637 1.387 . S
C5639 C5641 1.390 1_455 S
C5639 H5643 0.950 . S
H5640 C5636 0.950 . S
C5641 C5639 1.390 1_655 S
C5641 C5642 1.387 . S
C5641 H5644 0.950 . S
C5642 C5641 1.387 . S
C5642 C5645 1.387 . S
H5643 C5639 0.950 . S
H5644 C5641 0.950 . S
C5645 C5636 1.390 1_655 S
C5645 H5638 0.950 . S
C5645 C5642 1.387 . S
C5646 C5647 1.387 . S
C5646 H5650 0.950 . S
C5646 C5655 1.390 . S
C5647 C5646 1.387 . S
C5647 C5649 1.387 . S
H5648 C5655 0.950 . S
C5649 C5647 1.387 . S
C5649 C5651 1.390 . S
C5649 H5653 0.950 . S
H5650 C5646 0.950 . S
C5651 C5649 1.390 . S
C5651 C5652 1.387 . S
C5651 H5654 0.950 . S
C5652 C5651 1.387 . S
C5652 C5655 1.387 . S
H5653 C5649 0.950 . S
H5654 C5651 0.950 . S
C5655 C5646 1.390 . S
C5655 H5648 0.950 . S
C5655 C5652 1.387 . S
C5656 C5657 1.387 . S
C5656 H5660 0.950 . S
C5656 C5665 1.390 . S
C5657 C5656 1.387 . S
C5657 C5659 1.387 . S
H5658 C5665 0.950 . S
C5659 C5657 1.387 . S
C5659 C5661 1.390 . S
C5659 H5663 0.950 . S
H5660 C5656 0.950 . S
C5661 C5659 1.390 . S
C5661 C5662 1.387 . S
C5661 H5664 0.950 . S
C5662 C5661 1.387 . S
C5662 C5665 1.387 . S
H5663 C5659 0.950 . S
H5664 C5661 0.950 . S
C5665 C5656 1.390 . S
C5665 H5658 0.950 . S
C5665 C5662 1.387 . S
C5666 C5667 1.387 . S
C5666 H5670 0.950 . S
C5666 C5675 1.390 . S
C5667 C5666 1.387 . S
C5667 C5669 1.387 . S
H5668 C5675 0.950 . S
C5669 C5667 1.387 . S
C5669 C5671 1.390 . S
C5669 H5673 0.950 . S
H5670 C5666 0.950 . S
C5671 C5669 1.390 . S
C5671 C5672 1.387 . S
C5671 H5674 0.950 . S
C5672 C5671 1.387 . S
C5672 C5675 1.387 . S
H5673 C5669 0.950 . S
H5674 C5671 0.950 . S
C5675 C5666 1.390 . S
C5675 H5668 0.950 . S
C5675 C5672 1.387 . S
C5676 C5677 1.387 . S
C5676 H5680 0.950 . S
C5676 C5685 1.390 1_455 S
C5677 C5676 1.387 . S
C5677 C5679 1.387 . S
H5678 C5685 0.950 . S
C5679 C5677 1.387 . S
C5679 C5681 1.390 1_455 S
C5679 H5683 0.950 . S
H5680 C5676 0.950 . S
C5681 C5679 1.390 1_655 S
C5681 C5682 1.387 . S
C5681 H5684 0.950 . S
C5682 C5681 1.387 . S
C5682 C5685 1.387 . S
H5683 C5679 0.950 . S
H5684 C5681 0.950 . S
C5685 C5676 1.390 1_655 S
C5685 H5678 0.950 . S
C5685 C5682 1.387 . S
C5686 C5687 1.387 . S
C5686 H5690 0.950 . S
C5686 C5695 1.390 . S
C5687 C5686 1.387 . S
C5687 C5689 1.387 . S
H5688 C5695 0.950 . S
C5689 C5687 1.387 . S
C5689 C5691 1.390 . S
C5689 H5693 0.950 . S
H5690 C5686 0.950 . S
C5691 C5689 1.390 . S
C5691 C5692 1.387 . S
C5691 H5694 0.950 . S
C5692 C5691 1.387 . S
C5692 C5695 1.387 . S
H5693 C5689 0.950 . S
H5694 C5691 0.950 . S
C5695 C5686 1.390 . S
C5695 H5688 0.950 . S
C5695 C5692 1.387 . S
C5696 C5697 1.387 . S
C5696 H5700 0.950 . S
C5696 C5705 1.390 . S
C5697 C5696 1.387 . S
C5697 C5699 1.387 . S
H5698 C5705 0.950 . S
C5699 C5697 1.387 . S
C5699 C5701 1.390 . S
C5699 H5703 0.950 . S
H5700 C5696 0.950 . S
C5701 C5699 1.390 . S
C5701 C5702 1.387 . S
C5701 H5704 0.950 . S
C5702 C5701 1.387 . S
C5702 C5705 1.387 . S
H5703 C5699 0.950 . S
H5704 C5701 0.950 . S
C5705 C5696 1.390 . S
C5705 H5698 0.950 . S
C5705 C5702 1.387 . S
C5706 C5707 1.387 . S
C5706 H5710 0.950 . S
C5706 C5715 1.390 . S
C5707 C5706 1.387 . S
C5707 C5709 1.387 . S
H5708 C5715 0.950 . S
C5709 C5707 1.387 . S
C5709 C5711 1.390 . S
C5709 H5713 0.950 . S
H5710 C5706 0.950 . S
C5711 C5709 1.390 . S
C5711 C5712 1.387 . S
C5711 H5714 0.950 . S
C5712 C5711 1.387 . S
C5712 C5715 1.387 . S
H5713 C5709 0.950 . S
H5714 C5711 0.950 . S
C5715 C5706 1.390 . S
C5715 H5708 0.950 . S
C5715 C5712 1.387 . S
C5716 C5717 1.387 . S
C5716 H5720 0.950 . S
C5716 C5725 1.390 . S
C5717 C5716 1.387 . S
C5717 C5719 1.387 . S
H5718 C5725 0.950 . S
C5719 C5717 1.387 . S
C5719 C5721 1.390 . S
C5719 H5723 0.950 . S
H5720 C5716 0.950 . S
C5721 C5719 1.390 . S
C5721 C5722 1.387 . S
C5721 H5724 0.950 . S
C5722 C5721 1.387 . S
C5722 C5725 1.387 . S
H5723 C5719 0.950 . S
H5724 C5721 0.950 . S
C5725 C5716 1.390 . S
C5725 H5718 0.950 . S
C5725 C5722 1.387 . S
C5726 C5727 1.387 . S
C5726 H5730 0.950 . S
C5726 C5735 1.390 . S
C5727 C5726 1.387 . S
C5727 C5729 1.387 . S
H5728 C5735 0.950 . S
C5729 C5727 1.387 . S
C5729 C5731 1.390 . S
C5729 H5733 0.950 . S
H5730 C5726 0.950 . S
C5731 C5729 1.390 . S
C5731 C5732 1.387 . S
C5731 H5734 0.950 . S
C5732 C5731 1.387 . S
C5732 C5735 1.387 . S
H5733 C5729 0.950 . S
H5734 C5731 0.950 . S
C5735 C5726 1.390 . S
C5735 H5728 0.950 . S
C5735 C5732 1.387 . S
C5736 C5737 1.387 . S
C5736 H5740 0.950 . S
C5736 C5745 1.390 . S
C5737 C5736 1.387 . S
C5737 C5739 1.387 . S
H5738 C5745 0.950 . S
C5739 C5737 1.387 . S
C5739 C5741 1.390 . S
C5739 H5743 0.950 . S
H5740 C5736 0.950 . S
C5741 C5739 1.390 . S
C5741 C5742 1.387 . S
C5741 H5744 0.950 . S
C5742 C5741 1.387 . S
C5742 C5745 1.387 . S
H5743 C5739 0.950 . S
H5744 C5741 0.950 . S
C5745 C5736 1.390 . S
C5745 H5738 0.950 . S
C5745 C5742 1.387 . S
C5746 C5747 1.387 . S
C5746 H5750 0.950 . S
C5746 C5755 1.390 . S
C5747 C5746 1.387 . S
C5747 C5749 1.387 . S
H5748 C5755 0.950 . S
C5749 C5747 1.387 . S
C5749 C5751 1.390 . S
C5749 H5753 0.950 . S
H5750 C5746 0.950 . S
C5751 C5749 1.390 . S
C5751 C5752 1.387 . S
C5751 H5754 0.950 . S
C5752 C5751 1.387 . S
C5752 C5755 1.387 . S
H5753 C5749 0.950 . S
H5754 C5751 0.950 . S
C5755 C5746 1.390 . S
C5755 H5748 0.950 . S
C5755 C5752 1.387 . S
C5756 C5757 1.387 . S
C5756 H5760 0.950 . S
C5756 C5765 1.390 . S
C5757 C5756 1.387 . S
C5757 C5759 1.387 . S
H5758 C5765 0.950 . S
C5759 C5757 1.387 . S
C5759 C5761 1.390 . S
C5759 H5763 0.950 . S
H5760 C5756 0.950 . S
C5761 C5759 1.390 . S
C5761 C5762 1.387 . S
C5761 H5764 0.950 . S
C5762 C5761 1.387 . S
C5762 C5765 1.387 . S
H5763 C5759 0.950 . S
H5764 C5761 0.950 . S
C5765 C5756 1.390 . S
C5765 H5758 0.950 . S
C5765 C5762 1.387 . S
C5766 C5767 1.387 . S
C5766 H5770 0.950 . S
C5766 C5775 1.390 . S
C5767 C5766 1.387 . S
C5767 C5769 1.387 . S
H5768 C5775 0.950 . S
C5769 C5767 1.387 . S
C5769 C5771 1.390 . S
C5769 H5773 0.950 . S
H5770 C5766 0.950 . S
C5771 C5769 1.390 . S
C5771 C5772 1.387 . S
C5771 H5774 0.950 . S
C5772 C5771 1.387 . S
C5772 C5775 1.387 . S
H5773 C5769 0.950 . S
H5774 C5771 0.950 . S
C5775 C5766 1.390 . S
C5775 H5768 0.950 . S
C5775 C5772 1.387 . S
C5776 C5777 1.387 . S
C5776 H5780 0.950 . S
C5776 C5785 1.390 . S
C5777 C5776 1.387 . S
C5777 C5779 1.387 . S
H5778 C5785 0.950 . S
C5779 C5777 1.387 . S
C5779 C5781 1.390 . S
C5779 H5783 0.950 . S
H5780 C5776 0.950 . S
C5781 C5779 1.390 . S
C5781 C5782 1.387 . S
C5781 H5784 0.950 . S
C5782 C5781 1.387 . S
C5782 C5785 1.387 . S
H5783 C5779 0.950 . S
H5784 C5781 0.950 . S
C5785 C5776 1.390 . S
C5785 H5778 0.950 . S
C5785 C5782 1.387 . S
C5786 C5787 1.387 . S
C5786 H5790 0.950 . S
C5786 C5795 1.390 . S
C5787 C5786 1.387 . S
C5787 C5789 1.387 . S
H5788 C5795 0.950 . S
C5789 C5787 1.387 . S
C5789 C5791 1.390 . S
C5789 H5793 0.950 . S
H5790 C5786 0.950 . S
C5791 C5789 1.390 . S
C5791 C5792 1.387 . S
C5791 H5794 0.950 . S
C5792 C5791 1.387 . S
C5792 C5795 1.387 . S
H5793 C5789 0.950 . S
H5794 C5791 0.950 . S
C5795 C5786 1.390 . S
C5795 H5788 0.950 . S
C5795 C5792 1.387 . S
C5796 C5797 1.387 . S
C5796 H5800 0.950 . S
C5796 C5805 1.390 . S
C5797 C5796 1.387 . S
C5797 C5799 1.387 . S
H5798 C5805 0.950 . S
C5799 C5797 1.387 . S
C5799 C5801 1.390 . S
C5799 H5803 0.950 . S
H5800 C5796 0.950 . S
C5801 C5799 1.390 . S
C5801 C5802 1.387 . S
C5801 H5804 0.950 . S
C5802 C5801 1.387 . S
C5802 C5805 1.387 . S
H5803 C5799 0.950 . S
H5804 C5801 0.950 . S
C5805 C5796 1.390 . S
C5805 H5798 0.950 . S
C5805 C5802 1.387 . S
C5806 C5807 1.387 . S
C5806 H5810 0.950 . S
C5806 C5815 1.397 . S
C5807 C5806 1.387 . S
C5807 C5809 1.387 . S
H5808 C5815 0.948 1_556 S
C5809 C5807 1.387 . S
C5809 C5811 1.390 1_554 S
C5809 H5813 0.950 . S
H5810 C5806 0.950 . S
C5811 C5809 1.390 1_556 S
C5811 C5812 1.387 . S
C5811 H5814 0.950 . S
C5812 C5811 1.387 . S
C5812 C5815 1.381 1_556 S
H5813 C5809 0.950 . S
H5814 C5811 0.950 . S
C5815 C5806 1.397 . S
C5815 H5808 0.948 1_554 S
C5815 C5812 1.381 1_554 S
C5816 C5817 1.387 . S
C5816 H5820 0.950 . S
C5816 C5825 1.390 . S
C5817 C5816 1.387 . S
C5817 C5819 1.387 . S
H5818 C5825 0.950 . S
C5819 C5817 1.387 . S
C5819 C5821 1.390 . S
C5819 H5823 0.950 . S
H5820 C5816 0.950 . S
C5821 C5819 1.390 . S
C5821 C5822 1.387 . S
C5821 H5824 0.950 . S
C5822 C5821 1.387 . S
C5822 C5825 1.387 . S
H5823 C5819 0.950 . S
H5824 C5821 0.950 . S
C5825 C5816 1.390 . S
C5825 H5818 0.950 . S
C5825 C5822 1.387 . S
C5826 C5827 1.387 . S
C5826 H5830 0.950 . S
C5826 C5835 1.390 1_556 S
C5827 C5826 1.387 . S
C5827 C5829 1.387 . S
H5828 C5835 0.950 . S
C5829 C5827 1.387 . S
C5829 C5831 1.390 1_556 S
C5829 H5833 0.950 . S
H5830 C5826 0.950 . S
C5831 C5829 1.390 1_554 S
C5831 C5832 1.387 . S
C5831 H5834 0.950 . S
C5832 C5831 1.387 . S
C5832 C5835 1.387 . S
H5833 C5829 0.950 . S
H5834 C5831 0.950 . S
C5835 C5826 1.390 1_554 S
C5835 H5828 0.950 . S
C5835 C5832 1.387 . S
C5836 C5837 1.387 . S
C5836 H5840 0.950 . S
C5836 C5845 1.390 . S
C5837 C5836 1.387 . S
C5837 C5839 1.387 . S
H5838 C5845 0.950 . S
C5839 C5837 1.387 . S
C5839 C5841 1.390 . S
C5839 H5843 0.950 . S
H5840 C5836 0.950 . S
C5841 C5839 1.390 . S
C5841 C5842 1.387 . S
C5841 H5844 0.950 . S
C5842 C5841 1.387 . S
C5842 C5845 1.387 . S
H5843 C5839 0.950 . S
H5844 C5841 0.950 . S
C5845 C5836 1.390 . S
C5845 H5838 0.950 . S
C5845 C5842 1.387 . S
C5846 C5847 1.387 . S
C5846 H5850 0.950 . S
C5846 C5855 1.390 . S
C5847 C5846 1.387 . S
C5847 C5849 1.387 . S
H5848 C5855 0.950 . S
C5849 C5847 1.387 . S
C5849 C5851 1.390 . S
C5849 H5853 0.950 . S
H5850 C5846 0.950 . S
C5851 C5849 1.390 . S
C5851 C5852 1.387 . S
C5851 H5854 0.950 . S
C5852 C5851 1.387 . S
C5852 C5855 1.387 . S
H5853 C5849 0.950 . S
H5854 C5851 0.950 . S
C5855 C5846 1.390 . S
C5855 H5848 0.950 . S
C5855 C5852 1.387 . S
C5856 C5857 1.387 . S
C5856 H5860 0.950 . S
C5856 C5865 1.390 . S
C5857 C5856 1.387 . S
C5857 C5859 1.387 . S
H5858 C5865 0.950 . S
C5859 C5857 1.387 . S
C5859 C5861 1.390 . S
C5859 H5863 0.950 . S
H5860 C5856 0.950 . S
C5861 C5859 1.390 . S
C5861 C5862 1.387 . S
C5861 H5864 0.950 . S
C5862 C5861 1.387 . S
C5862 C5865 1.387 . S
H5863 C5859 0.950 . S
H5864 C5861 0.950 . S
C5865 C5856 1.390 . S
C5865 H5858 0.950 . S
C5865 C5862 1.387 . S
C5866 C5867 1.387 . S
C5866 H5870 0.950 . S
C5866 C5875 1.390 . S
C5867 C5866 1.387 . S
C5867 C5869 1.387 . S
H5868 C5875 0.950 . S
C5869 C5867 1.387 . S
C5869 C5871 1.390 . S
C5869 H5873 0.950 . S
H5870 C5866 0.950 . S
C5871 C5869 1.390 . S
C5871 C5872 1.387 . S
C5871 H5874 0.950 . S
C5872 C5871 1.387 . S
C5872 C5875 1.387 . S
H5873 C5869 0.950 . S
H5874 C5871 0.950 . S
C5875 C5866 1.390 . S
C5875 H5868 0.950 . S
C5875 C5872 1.387 . S
C5876 C5877 1.387 . S
C5876 H5880 0.950 . S
C5876 C5885 1.390 . S
C5877 C5876 1.387 . S
C5877 C5879 1.387 . S
H5878 C5885 0.950 . S
C5879 C5877 1.387 . S
C5879 C5881 1.390 . S
C5879 H5883 0.950 . S
H5880 C5876 0.950 . S
C5881 C5879 1.390 . S
C5881 C5882 1.387 . S
C5881 H5884 0.950 . S
C5882 C5881 1.387 . S
C5882 C5885 1.387 . S
H5883 C5879 0.950 . S
H5884 C5881 0.950 . S
C5885 C5876 1.390 . S
C5885 H5878 0.950 . S
C5885 C5882 1.387 . S
C5886 C5887 1.387 . S
C5886 H5890 0.950 . S
C5886 C5895 1.390 . S
C5887 C5886 1.387 . S
C5887 C5889 1.387 . S
H5888 C5895 0.950 . S
C5889 C5887 1.387 . S
C5889 C5891 1.390 . S
C5889 H5893 0.950 . S
H5890 C5886 0.950 . S
C5891 C5889 1.390 . S
C5891 C5892 1.387 . S
C5891 H5894 0.950 . S
C5892 C5891 1.387 . S
C5892 C5895 1.387 . S
H5893 C5889 0.950 . S
H5894 C5891 0.950 . S
C5895 C5886 1.390 . S
C5895 H5888 0.950 . S
C5895 C5892 1.387 . S
C5896 C5897 1.387 . S
C5896 H5900 0.950 . S
C5896 C5905 1.390 . S
C5897 C5896 1.387 . S
C5897 C5899 1.387 . S
H5898 C5905 0.950 . S
C5899 C5897 1.387 . S
C5899 C5901 1.390 . S
C5899 H5903 0.950 . S
H5900 C5896 0.950 . S
C5901 C5899 1.390 . S
C5901 C5902 1.387 . S
C5901 H5904 0.950 . S
C5902 C5901 1.387 . S
C5902 C5905 1.387 . S
H5903 C5899 0.950 . S
H5904 C5901 0.950 . S
C5905 C5896 1.390 . S
C5905 H5898 0.950 . S
C5905 C5902 1.387 . S
C5906 C5907 1.387 . S
C5906 H5910 0.950 . S
C5906 C5915 1.390 . S
C5907 C5906 1.387 . S
C5907 C5909 1.387 . S
H5908 C5915 0.950 . S
C5909 C5907 1.387 . S
C5909 C5911 1.390 . S
C5909 H5913 0.950 . S
H5910 C5906 0.950 . S
C5911 C5909 1.390 . S
C5911 C5912 1.387 . S
C5911 H5914 0.950 . S
C5912 C5911 1.387 . S
C5912 C5915 1.387 . S
H5913 C5909 0.950 . S
H5914 C5911 0.950 . S
C5915 C5906 1.390 . S
C5915 H5908 0.950 . S
C5915 C5912 1.387 . S
C5916 C5917 1.387 . S
C5916 H5920 0.950 . S
C5916 C5925 1.390 . S
C5917 C5916 1.387 . S
C5917 C5919 1.387 . S
H5918 C5925 0.950 . S
C5919 C5917 1.387 . S
C5919 C5921 1.390 . S
C5919 H5923 0.950 . S
H5920 C5916 0.950 . S
C5921 C5919 1.390 . S
C5921 C5922 1.387 . S
C5921 H5924 0.950 . S
C5922 C5921 1.387 . S
C5922 C5925 1.387 . S
H5923 C5919 0.950 . S
H5924 C5921 0.950 . S
C5925 C5916 1.390 . S
C5925 H5918 0.950 . S
C5925 C5922 1.387 . S
C5926 C5927 1.387 . S
C5926 H5930 0.950 . S
C5926 C5935 1.390 . S
C5927 C5926 1.387 . S
C5927 C5929 1.387 . S
H5928 C5935 0.950 . S
C5929 C5927 1.387 . S
C5929 C5931 1.390 . S
C5929 H5933 0.950 . S
H5930 C5926 0.950 . S
C5931 C5929 1.390 . S
C5931 C5932 1.387 . S
C5931 H5934 0.950 . S
C5932 C5931 1.387 . S
C5932 C5935 1.387 . S
H5933 C5929 0.950 . S
H5934 C5931 0.950 . S
C5935 C5926 1.390 . S
C5935 H5928 0.950 . S
C5935 C5932 1.387 . S
C5936 C5937 1.387 . S
C5936 H5940 0.950 . S
C5936 C5945 1.390 . S
C5937 C5936 1.387 . S
C5937 C5939 1.387 . S
H5938 C5945 0.950 . S
C5939 C5937 1.387 . S
C5939 C5941 1.390 . S
C5939 H5943 0.950 . S
H5940 C5936 0.950 . S
C5941 C5939 1.390 . S
C5941 C5942 1.387 . S
C5941 H5944 0.950 . S
C5942 C5941 1.387 . S
C5942 C5945 1.387 . S
H5943 C5939 0.950 . S
H5944 C5941 0.950 . S
C5945 C5936 1.390 . S
C5945 H5938 0.950 . S
C5945 C5942 1.387 . S
C5946 C5947 1.387 . S
C5946 H5950 0.950 . S
C5946 C5955 1.390 . S
C5947 C5946 1.387 . S
C5947 C5949 1.387 . S
H5948 C5955 0.950 . S
C5949 C5947 1.387 . S
C5949 C5951 1.390 . S
C5949 H5953 0.950 . S
H5950 C5946 0.950 . S
C5951 C5949 1.390 . S
C5951 C5952 1.387 . S
C5951 H5954 0.950 . S
C5952 C5951 1.387 . S
C5952 C5955 1.387 . S
H5953 C5949 0.950 . S
H5954 C5951 0.950 . S
C5955 C5946 1.390 . S
C5955 H5948 0.950 . S
C5955 C5952 1.387 . S
C5956 C5957 1.387 . S
C5956 H5960 0.950 . S
C5956 C5965 1.390 . S
C5957 C5956 1.387 . S
C5957 C5959 1.387 . S
H5958 C5965 0.950 . S
C5959 C5957 1.387 . S
C5959 C5961 1.390 . S
C5959 H5963 0.950 . S
H5960 C5956 0.950 . S
C5961 C5959 1.390 . S
C5961 C5962 1.387 . S
C5961 H5964 0.950 . S
C5962 C5961 1.387 . S
C5962 C5965 1.387 . S
H5963 C5959 0.950 . S
H5964 C5961 0.950 . S
C5965 C5956 1.390 . S
C5965 H5958 0.950 . S
C5965 C5962 1.387 . S
C5966 C5967 1.387 . S
C5966 H5970 0.950 . S
C5966 C5975 1.390 . S
C5967 C5966 1.387 . S
C5967 C5969 1.387 . S
H5968 C5975 0.950 . S
C5969 C5967 1.387 . S
C5969 C5971 1.390 . S
C5969 H5973 0.950 . S
H5970 C5966 0.950 . S
C5971 C5969 1.390 . S
C5971 C5972 1.387 . S
C5971 H5974 0.950 . S
C5972 C5971 1.387 . S
C5972 C5975 1.387 . S
H5973 C5969 0.950 . S
H5974 C5971 0.950 . S
C5975 C5966 1.390 . S
C5975 H5968 0.950 . S
C5975 C5972 1.387 . S
C5976 C5977 1.387 . S
C5976 H5980 0.950 . S
C5976 C5985 1.390 . S
C5977 C5976 1.387 . S
C5977 C5979 1.387 . S
H5978 C5985 0.950 . S
C5979 C5977 1.387 . S
C5979 C5981 1.390 . S
C5979 H5983 0.950 . S
H5980 C5976 0.950 . S
C5981 C5979 1.390 . S
C5981 C5982 1.387 . S
C5981 H5984 0.950 . S
C5982 C5981 1.387 . S
C5982 C5985 1.387 . S
H5983 C5979 0.950 . S
H5984 C5981 0.950 . S
C5985 C5976 1.390 . S
C5985 H5978 0.950 . S
C5985 C5982 1.387 . S
C5986 C5987 1.387 . S
C5986 H5990 0.950 . S
C5986 C5995 1.390 . S
C5987 C5986 1.387 . S
C5987 C5989 1.387 . S
H5988 C5995 0.950 . S
C5989 C5987 1.387 . S
C5989 C5991 1.390 . S
C5989 H5993 0.950 . S
H5990 C5986 0.950 . S
C5991 C5989 1.390 . S
C5991 C5992 1.387 . S
C5991 H5994 0.950 . S
C5992 C5991 1.387 . S
C5992 C5995 1.387 . S
H5993 C5989 0.950 . S
H5994 C5991 0.950 . S
C5995 C5986 1.390 . S
C5995 H5988 0.950 . S
C5995 C5992 1.387 . S
C5996 C5997 1.387 . S
C5996 H6000 0.950 . S
C5996 C6005 1.390 . S
C5997 C5996 1.387 . S
C5997 C5999 1.387 . S
H5998 C6005 0.950 . S
C5999 C5997 1.387 . S
C5999 C6001 1.390 . S
C5999 H6003 0.950 . S
H6000 C5996 0.950 . S
C6001 C5999 1.390 . S
C6001 C6002 1.387 . S
C6001 H6004 0.950 . S
C6002 C6001 1.387 . S
C6002 C6005 1.387 . S
H6003 C5999 0.950 . S
H6004 C6001 0.950 . S
C6005 C5996 1.390 . S
C6005 H5998 0.950 . S
C6005 C6002 1.387 . S
C6006 C6007 1.387 . S
C6006 H6010 0.950 . S
C6006 C6015 1.390 . S
C6007 C6006 1.387 . S
C6007 C6009 1.387 . S
H6008 C6015 0.950 . S
C6009 C6007 1.387 . S
C6009 C6011 1.390 . S
C6009 H6013 0.950 . S
H6010 C6006 0.950 . S
C6011 C6009 1.390 . S
C6011 C6012 1.387 . S
C6011 H6014 0.950 . S
C6012 C6011 1.387 . S
C6012 C6015 1.387 . S
H6013 C6009 0.950 . S
H6014 C6011 0.950 . S
C6015 C6006 1.390 . S
C6015 H6008 0.950 . S
C6015 C6012 1.387 . S
C6016 C6017 1.387 . S
C6016 H6020 0.950 . S
C6016 C6025 1.390 . S
C6017 C6016 1.387 . S
C6017 C6019 1.387 . S
H6018 C6025 0.950 . S
C6019 C6017 1.387 . S
C6019 C6021 1.390 . S
C6019 H6023 0.950 . S
H6020 C6016 0.950 . S
C6021 C6019 1.390 . S
C6021 C6022 1.387 . S
C6021 H6024 0.950 . S
C6022 C6021 1.387 . S
C6022 C6025 1.387 . S
H6023 C6019 0.950 . S
H6024 C6021 0.950 . S
C6025 C6016 1.390 . S
C6025 H6018 0.950 . S
C6025 C6022 1.387 . S
C6026 C6027 1.387 . S
C6026 H6030 0.950 . S
C6026 C6035 1.390 . S
C6027 C6026 1.387 . S
C6027 C6029 1.387 . S
H6028 C6035 0.950 . S
C6029 C6027 1.387 . S
C6029 C6031 1.390 . S
C6029 H6033 0.950 . S
H6030 C6026 0.950 . S
C6031 C6029 1.390 . S
C6031 C6032 1.387 . S
C6031 H6034 0.950 . S
C6032 C6031 1.387 . S
C6032 C6035 1.387 . S
H6033 C6029 0.950 . S
H6034 C6031 0.950 . S
C6035 C6026 1.390 . S
C6035 H6028 0.950 . S
C6035 C6032 1.387 . S
C6036 C6037 1.387 . S
C6036 H6040 0.950 . S
C6036 C6045 1.390 . S
C6037 C6036 1.387 . S
C6037 C6039 1.387 . S
H6038 C6045 0.950 . S
C6039 C6037 1.387 . S
C6039 C6041 1.390 . S
C6039 H6043 0.950 . S
H6040 C6036 0.950 . S
C6041 C6039 1.390 . S
C6041 C6042 1.387 . S
C6041 H6044 0.950 . S
C6042 C6041 1.387 . S
C6042 C6045 1.387 . S
H6043 C6039 0.950 . S
H6044 C6041 0.950 . S
C6045 C6036 1.390 . S
C6045 H6038 0.950 . S
C6045 C6042 1.387 . S
C6046 C6047 1.387 . S
C6046 H6050 0.950 . S
C6046 C6055 1.390 . S
C6047 C6046 1.387 . S
C6047 C6049 1.387 . S
H6048 C6055 0.950 . S
C6049 C6047 1.387 . S
C6049 C6051 1.390 . S
C6049 H6053 0.950 . S
H6050 C6046 0.950 . S
C6051 C6049 1.390 . S
C6051 C6052 1.387 . S
C6051 H6054 0.950 . S
C6052 C6051 1.387 . S
C6052 C6055 1.387 . S
H6053 C6049 0.950 . S
H6054 C6051 0.950 . S
C6055 C6046 1.390 . S
C6055 H6048 0.950 . S
C6055 C6052 1.387 . S
C6056 C6057 1.387 . S
C6056 H6060 0.950 . S
C6056 C6065 1.390 . S
C6057 C6056 1.387 . S
C6057 C6059 1.387 . S
H6058 C6065 0.950 . S
C6059 C6057 1.387 . S
C6059 C6061 1.390 . S
C6059 H6063 0.950 . S
H6060 C6056 0.950 . S
C6061 C6059 1.390 . S
C6061 C6062 1.387 . S
C6061 H6064 0.950 . S
C6062 C6061 1.387 . S
C6062 C6065 1.387 . S
H6063 C6059 0.950 . S
H6064 C6061 0.950 . S
C6065 C6056 1.390 . S
C6065 H6058 0.950 . S
C6065 C6062 1.387 . S
C6066 C6067 1.387 . S
C6066 H6070 0.950 . S
C6066 C6075 1.390 . S
C6067 C6066 1.387 . S
C6067 C6069 1.387 . S
H6068 C6075 0.950 . S
C6069 C6067 1.387 . S
C6069 C6071 1.390 . S
C6069 H6073 0.950 . S
H6070 C6066 0.950 . S
C6071 C6069 1.390 . S
C6071 C6072 1.387 . S
C6071 H6074 0.950 . S
C6072 C6071 1.387 . S
C6072 C6075 1.387 . S
H6073 C6069 0.950 . S
H6074 C6071 0.950 . S
C6075 C6066 1.390 . S
C6075 H6068 0.950 . S
C6075 C6072 1.387 . S
C6076 C6077 1.387 . S
C6076 H6080 0.950 . S
C6076 C6085 1.390 . S
C6077 C6076 1.387 . S
C6077 C6079 1.387 . S
H6078 C6085 0.950 . S
C6079 C6077 1.387 . S
C6079 C6081 1.390 . S
C6079 H6083 0.950 . S
H6080 C6076 0.950 . S
C6081 C6079 1.390 . S
C6081 C6082 1.387 . S
C6081 H6084 0.950 . S
C6082 C6081 1.387 . S
C6082 C6085 1.387 . S
H6083 C6079 0.950 . S
H6084 C6081 0.950 . S
C6085 C6076 1.390 . S
C6085 H6078 0.950 . S
C6085 C6082 1.387 . S
C6086 C6087 1.387 . S
C6086 H6090 0.950 . S
C6086 C6095 1.390 . S
C6087 C6086 1.387 . S
C6087 C6089 1.387 . S
H6088 C6095 0.950 . S
C6089 C6087 1.387 . S
C6089 C6091 1.390 . S
C6089 H6093 0.950 . S
H6090 C6086 0.950 . S
C6091 C6089 1.390 . S
C6091 C6092 1.387 . S
C6091 H6094 0.950 . S
C6092 C6091 1.387 . S
C6092 C6095 1.387 . S
H6093 C6089 0.950 . S
H6094 C6091 0.950 . S
C6095 C6086 1.390 . S
C6095 H6088 0.950 . S
C6095 C6092 1.387 . S
C6096 C6097 1.387 . S
C6096 H6100 0.950 . S
C6096 C6105 1.390 . S
C6097 C6096 1.387 . S
C6097 C6099 1.387 . S
H6098 C6105 0.950 . S
C6099 C6097 1.387 . S
C6099 C6101 1.390 . S
C6099 H6103 0.950 . S
H6100 C6096 0.950 . S
C6101 C6099 1.390 . S
C6101 C6102 1.387 . S
C6101 H6104 0.950 . S
C6102 C6101 1.387 . S
C6102 C6105 1.387 . S
H6103 C6099 0.950 . S
H6104 C6101 0.950 . S
C6105 C6096 1.390 . S
C6105 H6098 0.950 . S
C6105 C6102 1.387 . S
C6106 C6107 1.387 . S
C6106 H6110 0.950 . S
C6106 C6115 1.390 . S
C6107 C6106 1.387 . S
C6107 C6109 1.387 . S
H6108 C6115 0.950 . S
C6109 C6107 1.387 . S
C6109 C6111 1.390 . S
C6109 H6113 0.950 . S
H6110 C6106 0.950 . S
C6111 C6109 1.390 . S
C6111 C6112 1.387 . S
C6111 H6114 0.950 . S
C6112 C6111 1.387 . S
C6112 C6115 1.387 . S
H6113 C6109 0.950 . S
H6114 C6111 0.950 . S
C6115 C6106 1.390 . S
C6115 H6108 0.950 . S
C6115 C6112 1.387 . S
C6116 C6117 1.387 . S
C6116 H6120 0.950 . S
C6116 C6125 1.390 . S
C6117 C6116 1.387 . S
C6117 C6119 1.387 . S
H6118 C6125 0.950 . S
C6119 C6117 1.387 . S
C6119 C6121 1.390 . S
C6119 H6123 0.950 . S
H6120 C6116 0.950 . S
C6121 C6119 1.390 . S
C6121 C6122 1.387 . S
C6121 H6124 0.950 . S
C6122 C6121 1.387 . S
C6122 C6125 1.387 . S
H6123 C6119 0.950 . S
H6124 C6121 0.950 . S
C6125 C6116 1.390 . S
C6125 H6118 0.950 . S
C6125 C6122 1.387 . S
C6126 C6127 1.387 . S
C6126 H6130 0.950 . S
C6126 C6135 1.390 . S
C6127 C6126 1.387 . S
C6127 C6129 1.387 . S
H6128 C6135 0.950 . S
C6129 C6127 1.387 . S
C6129 C6131 1.390 . S
C6129 H6133 0.950 . S
H6130 C6126 0.950 . S
C6131 C6129 1.390 . S
C6131 C6132 1.387 . S
C6131 H6134 0.950 . S
C6132 C6131 1.387 . S
C6132 C6135 1.387 . S
H6133 C6129 0.950 . S
H6134 C6131 0.950 . S
C6135 C6126 1.390 . S
C6135 H6128 0.950 . S
C6135 C6132 1.387 . S
C6136 C6137 1.387 . S
C6136 H6140 0.950 . S
C6136 C6145 1.390 . S
C6137 C6136 1.387 . S
C6137 C6139 1.387 . S
H6138 C6145 0.950 . S
C6139 C6137 1.387 . S
C6139 C6141 1.390 . S
C6139 H6143 0.950 . S
H6140 C6136 0.950 . S
C6141 C6139 1.390 . S
C6141 C6142 1.387 . S
C6141 H6144 0.950 . S
C6142 C6141 1.387 . S
C6142 C6145 1.387 . S
H6143 C6139 0.950 . S
H6144 C6141 0.950 . S
C6145 C6136 1.390 . S
C6145 H6138 0.950 . S
C6145 C6142 1.387 . S
C6146 C6147 1.387 . S
C6146 H6150 0.950 . S
C6146 C6155 1.390 . S
C6147 C6146 1.387 . S
C6147 C6149 1.387 . S
H6148 C6155 0.950 . S
C6149 C6147 1.387 . S
C6149 C6151 1.390 . S
C6149 H6153 0.950 . S
H6150 C6146 0.950 . S
C6151 C6149 1.390 . S
C6151 C6152 1.387 . S
C6151 H6154 0.950 . S
C6152 C6151 1.387 . S
C6152 C6155 1.387 . S
H6153 C6149 0.950 . S
H6154 C6151 0.950 . S
C6155 C6146 1.390 . S
C6155 H6148 0.950 . S
C6155 C6152 1.387 . S
C6156 C6157 1.387 . S
C6156 H6160 0.950 . S
C6156 C6165 1.390 . S
C6157 C6156 1.387 . S
C6157 C6159 1.387 . S
H6158 C6165 0.950 . S
C6159 C6157 1.387 . S
C6159 C6161 1.390 . S
C6159 H6163 0.950 . S
H6160 C6156 0.950 . S
C6161 C6159 1.390 . S
C6161 C6162 1.387 . S
C6161 H6164 0.950 . S
C6162 C6161 1.387 . S
C6162 C6165 1.387 . S
H6163 C6159 0.950 . S
H6164 C6161 0.950 . S
C6165 C6156 1.390 . S
C6165 H6158 0.950 . S
C6165 C6162 1.387 . S
C6166 C6167 1.387 . S
C6166 H6170 0.950 . S
C6166 C6175 1.390 . S
C6167 C6166 1.387 . S
C6167 C6169 1.387 . S
H6168 C6175 0.950 . S
C6169 C6167 1.387 . S
C6169 C6171 1.390 . S
C6169 H6173 0.950 . S
H6170 C6166 0.950 . S
C6171 C6169 1.390 . S
C6171 C6172 1.387 . S
C6171 H6174 0.950 . S
C6172 C6171 1.387 . S
C6172 C6175 1.387 . S
H6173 C6169 0.950 . S
H6174 C6171 0.950 . S
C6175 C6166 1.390 . S
C6175 H6168 0.950 . S
C6175 C6172 1.387 . S
C6176 C6177 1.387 . S
C6176 H6180 0.950 . S
C6176 C6185 1.390 . S
C6177 C6176 1.387 . S
C6177 C6179 1.387 . S
H6178 C6185 0.950 . S
C6179 C6177 1.387 . S
C6179 C6181 1.390 . S
C6179 H6183 0.950 . S
H6180 C6176 0.950 . S
C6181 C6179 1.390 . S
C6181 C6182 1.387 . S
C6181 H6184 0.950 . S
C6182 C6181 1.387 . S
C6182 C6185 1.387 . S
H6183 C6179 0.950 . S
H6184 C6181 0.950 . S
C6185 C6176 1.390 . S
C6185 H6178 0.950 . S
C6185 C6182 1.387 . S
C6186 C6187 1.387 . S
C6186 H6190 0.950 . S
C6186 C6195 1.390 . S
C6187 C6186 1.387 . S
C6187 C6189 1.387 . S
H6188 C6195 0.950 . S
C6189 C6187 1.387 . S
C6189 C6191 1.390 . S
C6189 H6193 0.950 . S
H6190 C6186 0.950 . S
C6191 C6189 1.390 . S
C6191 C6192 1.387 . S
C6191 H6194 0.950 . S
C6192 C6191 1.387 . S
C6192 C6195 1.387 . S
H6193 C6189 0.950 . S
H6194 C6191 0.950 . S
C6195 C6186 1.390 . S
C6195 H6188 0.950 . S
C6195 C6192 1.387 . S
C6196 C6197 1.387 . S
C6196 H6200 0.950 . S
C6196 C6205 1.390 . S
C6197 C6196 1.387 . S
C6197 C6199 1.387 . S
H6198 C6205 0.950 . S
C6199 C6197 1.387 . S
C6199 C6201 1.390 . S
C6199 H6203 0.950 . S
H6200 C6196 0.950 . S
C6201 C6199 1.390 . S
C6201 C6202 1.387 . S
C6201 H6204 0.950 . S
C6202 C6201 1.387 . S
C6202 C6205 1.387 . S
H6203 C6199 0.950 . S
H6204 C6201 0.950 . S
C6205 C6196 1.390 . S
C6205 H6198 0.950 . S
C6205 C6202 1.387 . S
C6206 C6207 1.387 . S
C6206 H6210 0.950 . S
C6206 C6215 1.390 . S
C6207 C6206 1.387 . S
C6207 C6209 1.387 . S
H6208 C6215 0.950 . S
C6209 C6207 1.387 . S
C6209 C6211 1.390 . S
C6209 H6213 0.950 . S
H6210 C6206 0.950 . S
C6211 C6209 1.390 . S
C6211 C6212 1.387 . S
C6211 H6214 0.950 . S
C6212 C6211 1.387 . S
C6212 C6215 1.387 . S
H6213 C6209 0.950 . S
H6214 C6211 0.950 . S
C6215 C6206 1.390 . S
C6215 H6208 0.950 . S
C6215 C6212 1.387 . S
C6216 C6217 1.387 . S
C6216 H6220 0.950 . S
C6216 C6225 1.390 . S
C6217 C6216 1.387 . S
C6217 C6219 1.387 . S
H6218 C6225 0.950 . S
C6219 C6217 1.387 . S
C6219 C6221 1.390 . S
C6219 H6223 0.950 . S
H6220 C6216 0.950 . S
C6221 C6219 1.390 . S
C6221 C6222 1.387 . S
C6221 H6224 0.950 . S
C6222 C6221 1.387 . S
C6222 C6225 1.387 . S
H6223 C6219 0.950 . S
H6224 C6221 0.950 . S
C6225 C6216 1.390 . S
C6225 H6218 0.950 . S
C6225 C6222 1.387 . S
C6226 C6227 1.387 . S
C6226 H6230 0.950 . S
C6226 C6235 1.390 . S
C6227 C6226 1.387 . S
C6227 C6229 1.387 . S
H6228 C6235 0.950 . S
C6229 C6227 1.387 . S
C6229 C6231 1.390 . S
C6229 H6233 0.950 . S
H6230 C6226 0.950 . S
C6231 C6229 1.390 . S
C6231 C6232 1.387 . S
C6231 H6234 0.950 . S
C6232 C6231 1.387 . S
C6232 C6235 1.387 . S
H6233 C6229 0.950 . S
H6234 C6231 0.950 . S
C6235 C6226 1.390 . S
C6235 H6228 0.950 . S
C6235 C6232 1.387 . S
C6236 C6237 1.387 . S
C6236 H6240 0.950 . S
C6236 C6245 1.390 . S
C6237 C6236 1.387 . S
C6237 C6239 1.387 . S
H6238 C6245 0.950 . S
C6239 C6237 1.387 . S
C6239 C6241 1.390 . S
C6239 H6243 0.950 . S
H6240 C6236 0.950 . S
C6241 C6239 1.390 . S
C6241 C6242 1.387 . S
C6241 H6244 0.950 . S
C6242 C6241 1.387 . S
C6242 C6245 1.387 . S
H6243 C6239 0.950 . S
H6244 C6241 0.950 . S
C6245 C6236 1.390 . S
C6245 H6238 0.950 . S
C6245 C6242 1.387 . S
C6246 C6247 1.387 . S
C6246 H6250 0.950 . S
C6246 C6255 1.390 . S
C6247 C6246 1.387 . S
C6247 C6249 1.387 . S
H6248 C6255 0.950 . S
C6249 C6247 1.387 . S
C6249 C6251 1.390 . S
C6249 H6253 0.950 . S
H6250 C6246 0.950 . S
C6251 C6249 1.390 . S
C6251 C6252 1.387 . S
C6251 H6254 0.950 . S
C6252 C6251 1.387 . S
C6252 C6255 1.387 . S
H6253 C6249 0.950 . S
H6254 C6251 0.950 . S
C6255 C6246 1.390 . S
C6255 H6248 0.950 . S
C6255 C6252 1.387 . S
C6256 C6257 1.387 . S
C6256 H6260 0.950 . S
C6256 C6265 1.390 . S
C6257 C6256 1.387 . S
C6257 C6259 1.387 . S
H6258 C6265 0.950 . S
C6259 C6257 1.387 . S
C6259 C6261 1.390 . S
C6259 H6263 0.950 . S
H6260 C6256 0.950 . S
C6261 C6259 1.390 . S
C6261 C6262 1.387 . S
C6261 H6264 0.950 . S
C6262 C6261 1.387 . S
C6262 C6265 1.387 . S
H6263 C6259 0.950 . S
H6264 C6261 0.950 . S
C6265 C6256 1.390 . S
C6265 H6258 0.950 . S
C6265 C6262 1.387 . S
C6266 C6267 1.387 . S
C6266 H6270 0.950 . S
C6266 C6275 1.390 . S
C6267 C6266 1.387 . S
C6267 C6269 1.387 . S
H6268 C6275 0.950 . S
C6269 C6267 1.387 . S
C6269 C6271 1.390 . S
C6269 H6273 0.950 . S
H6270 C6266 0.950 . S
C6271 C6269 1.390 . S
C6271 C6272 1.387 . S
C6271 H6274 0.950 . S
C6272 C6271 1.387 . S
C6272 C6275 1.387 . S
H6273 C6269 0.950 . S
H6274 C6271 0.950 . S
C6275 C6266 1.390 . S
C6275 H6268 0.950 . S
C6275 C6272 1.387 . S
C6276 C6277 1.387 . S
C6276 H6280 0.950 . S
C6276 C6285 1.390 . S
C6277 C6276 1.387 . S
C6277 C6279 1.387 . S
H6278 C6285 0.950 . S
C6279 C6277 1.387 . S
C6279 C6281 1.390 . S
C6279 H6283 0.950 . S
H6280 C6276 0.950 . S
C6281 C6279 1.390 . S
C6281 C6282 1.387 . S
C6281 H6284 0.950 . S
C6282 C6281 1.387 . S
C6282 C6285 1.387 . S
H6283 C6279 0.950 . S
H6284 C6281 0.950 . S
C6285 C6276 1.390 . S
C6285 H6278 0.950 . S
C6285 C6282 1.387 . S
C6286 C6287 1.387 . S
C6286 H6290 0.950 . S
C6286 C6295 1.390 . S
C6287 C6286 1.387 . S
C6287 C6289 1.387 . S
H6288 C6295 0.950 . S
C6289 C6287 1.387 . S
C6289 C6291 1.390 . S
C6289 H6293 0.950 . S
H6290 C6286 0.950 . S
C6291 C6289 1.390 . S
C6291 C6292 1.387 . S
C6291 H6294 0.950 . S
C6292 C6291 1.387 . S
C6292 C6295 1.387 . S
H6293 C6289 0.950 . S
H6294 C6291 0.950 . S
C6295 C6286 1.390 . S
C6295 H6288 0.950 . S
C6295 C6292 1.387 . S
C6296 C6297 1.387 . S
C6296 H6300 0.950 . S
C6296 C6305 1.390 . S
C6297 C6296 1.387 . S
C6297 C6299 1.387 . S
H6298 C6305 0.950 . S
C6299 C6297 1.387 . S
C6299 C6301 1.390 . S
C6299 H6303 0.950 . S
H6300 C6296 0.950 . S
C6301 C6299 1.390 . S
C6301 C6302 1.387 . S
C6301 H6304 0.950 . S
C6302 C6301 1.387 . S
C6302 C6305 1.387 . S
H6303 C6299 0.950 . S
H6304 C6301 0.950 . S
C6305 C6296 1.390 . S
C6305 H6298 0.950 . S
C6305 C6302 1.387 . S
C6306 C6307 1.387 . S
C6306 H6310 0.950 . S
C6306 C6315 1.390 . S
C6307 C6306 1.387 . S
C6307 C6309 1.387 . S
H6308 C6315 0.950 . S
C6309 C6307 1.387 . S
C6309 C6311 1.390 . S
C6309 H6313 0.950 . S
H6310 C6306 0.950 . S
C6311 C6309 1.390 . S
C6311 C6312 1.387 . S
C6311 H6314 0.950 . S
C6312 C6311 1.387 . S
C6312 C6315 1.387 . S
H6313 C6309 0.950 . S
H6314 C6311 0.950 . S
C6315 C6306 1.390 . S
C6315 H6308 0.950 . S
C6315 C6312 1.387 . S
C6316 C6317 1.387 . S
C6316 H6320 0.950 . S
C6316 C6325 1.390 . S
C6317 C6316 1.387 . S
C6317 C6319 1.387 . S
H6318 C6325 0.950 . S
C6319 C6317 1.387 . S
C6319 C6321 1.390 . S
C6319 H6323 0.950 . S
H6320 C6316 0.950 . S
C6321 C6319 1.390 . S
C6321 C6322 1.387 . S
C6321 H6324 0.950 . S
C6322 C6321 1.387 . S
C6322 C6325 1.387 . S
H6323 C6319 0.950 . S
H6324 C6321 0.950 . S
C6325 C6316 1.390 . S
C6325 H6318 0.950 . S
C6325 C6322 1.387 . S
C6326 C6327 1.387 . S
C6326 H6330 0.950 . S
C6326 C6335 1.390 . S
C6327 C6326 1.387 . S
C6327 C6329 1.387 . S
H6328 C6335 0.950 . S
C6329 C6327 1.387 . S
C6329 C6331 1.390 . S
C6329 H6333 0.950 . S
H6330 C6326 0.950 . S
C6331 C6329 1.390 . S
C6331 C6332 1.387 . S
C6331 H6334 0.950 . S
C6332 C6331 1.387 . S
C6332 C6335 1.387 . S
H6333 C6329 0.950 . S
H6334 C6331 0.950 . S
C6335 C6326 1.390 . S
C6335 H6328 0.950 . S
C6335 C6332 1.387 . S
C6336 C6337 1.387 . S
C6336 H6340 0.950 . S
C6336 C6345 1.390 . S
C6337 C6336 1.387 . S
C6337 C6339 1.387 . S
H6338 C6345 0.950 . S
C6339 C6337 1.387 . S
C6339 C6341 1.390 . S
C6339 H6343 0.950 . S
H6340 C6336 0.950 . S
C6341 C6339 1.390 . S
C6341 C6342 1.387 . S
C6341 H6344 0.950 . S
C6342 C6341 1.387 . S
C6342 C6345 1.387 . S
H6343 C6339 0.950 . S
H6344 C6341 0.950 . S
C6345 C6336 1.390 . S
C6345 H6338 0.950 . S
C6345 C6342 1.387 . S
C6346 C6347 1.387 . S
C6346 H6350 0.950 . S
C6346 C6355 1.390 . S
C6347 C6346 1.387 . S
C6347 C6349 1.387 . S
H6348 C6355 0.950 . S
C6349 C6347 1.387 . S
C6349 C6351 1.390 . S
C6349 H6353 0.950 . S
H6350 C6346 0.950 . S
C6351 C6349 1.390 . S
C6351 C6352 1.387 . S
C6351 H6354 0.950 . S
C6352 C6351 1.387 . S
C6352 C6355 1.387 . S
H6353 C6349 0.950 . S
H6354 C6351 0.950 . S
C6355 C6346 1.390 . S
C6355 H6348 0.950 . S
C6355 C6352 1.387 . S
C6356 C6357 1.387 . S
C6356 H6360 0.950 . S
C6356 C6365 1.390 . S
C6357 C6356 1.387 . S
C6357 C6359 1.387 . S
H6358 C6365 0.950 . S
C6359 C6357 1.387 . S
C6359 C6361 1.390 . S
C6359 H6363 0.950 . S
H6360 C6356 0.950 . S
C6361 C6359 1.390 . S
C6361 C6362 1.387 . S
C6361 H6364 0.950 . S
C6362 C6361 1.387 . S
C6362 C6365 1.387 . S
H6363 C6359 0.950 . S
H6364 C6361 0.950 . S
C6365 C6356 1.390 . S
C6365 H6358 0.950 . S
C6365 C6362 1.387 . S
C6366 C6367 1.387 . S
C6366 H6370 0.950 . S
C6366 C6375 1.390 . S
C6367 C6366 1.387 . S
C6367 C6369 1.387 . S
H6368 C6375 0.950 . S
C6369 C6367 1.387 . S
C6369 C6371 1.390 . S
C6369 H6373 0.950 . S
H6370 C6366 0.950 . S
C6371 C6369 1.390 . S
C6371 C6372 1.387 . S
C6371 H6374 0.950 . S
C6372 C6371 1.387 . S
C6372 C6375 1.387 . S
H6373 C6369 0.950 . S
H6374 C6371 0.950 . S
C6375 C6366 1.390 . S
C6375 H6368 0.950 . S
C6375 C6372 1.387 . S
C6376 C6377 1.387 . S
C6376 H6380 0.950 . S
C6376 C6385 1.390 . S
C6377 C6376 1.387 . S
C6377 C6379 1.387 . S
H6378 C6385 0.950 . S
C6379 C6377 1.387 . S
C6379 C6381 1.390 . S
C6379 H6383 0.950 . S
H6380 C6376 0.950 . S
C6381 C6379 1.390 . S
C6381 C6382 1.387 . S
C6381 H6384 0.950 . S
C6382 C6381 1.387 . S
C6382 C6385 1.387 . S
H6383 C6379 0.950 . S
H6384 C6381 0.950 . S
C6385 C6376 1.390 . S
C6385 H6378 0.950 . S
C6385 C6382 1.387 . S
C6386 C6387 1.387 . S
C6386 H6390 0.950 . S
C6386 C6395 1.390 . S
C6387 C6386 1.387 . S
C6387 C6389 1.387 . S
H6388 C6395 0.950 . S
C6389 C6387 1.387 . S
C6389 C6391 1.390 . S
C6389 H6393 0.950 . S
H6390 C6386 0.950 . S
C6391 C6389 1.390 . S
C6391 C6392 1.387 . S
C6391 H6394 0.950 . S
C6392 C6391 1.387 . S
C6392 C6395 1.387 . S
H6393 C6389 0.950 . S
H6394 C6391 0.950 . S
C6395 C6386 1.390 . S
C6395 H6388 0.950 . S
C6395 C6392 1.387 . S
C6396 C6397 1.387 . S
C6396 H6400 0.950 . S
C6396 C6405 1.390 . S
C6397 C6396 1.387 . S
C6397 C6399 1.387 . S
H6398 C6405 0.950 . S
C6399 C6397 1.387 . S
C6399 C6401 1.390 . S
C6399 H6403 0.950 . S
H6400 C6396 0.950 . S
C6401 C6399 1.390 . S
C6401 C6402 1.387 . S
C6401 H6404 0.950 . S
C6402 C6401 1.387 . S
C6402 C6405 1.387 . S
H6403 C6399 0.950 . S
H6404 C6401 0.950 . S
C6405 C6396 1.390 . S
C6405 H6398 0.950 . S
C6405 C6402 1.387 . S
C6406 C6407 1.387 . S
C6406 H6410 0.950 . S
C6406 C6415 1.390 . S
C6407 C6406 1.387 . S
C6407 C6409 1.387 . S
H6408 C6415 0.950 . S
C6409 C6407 1.387 . S
C6409 C6411 1.390 . S
C6409 H6413 0.950 . S
H6410 C6406 0.950 . S
C6411 C6409 1.390 . S
C6411 C6412 1.387 . S
C6411 H6414 0.950 . S
C6412 C6411 1.387 . S
C6412 C6415 1.387 . S
H6413 C6409 0.950 . S
H6414 C6411 0.950 . S
C6415 C6406 1.390 . S
C6415 H6408 0.950 . S
C6415 C6412 1.387 . S
C6416 C6417 1.387 . S
C6416 H6420 0.950 . S
C6416 C6425 1.390 . S
C6417 C6416 1.387 . S
C6417 C6419 1.387 . S
H6418 C6425 0.950 . S
C6419 C6417 1.387 . S
C6419 C6421 1.390 . S
C6419 H6423 0.950 . S
H6420 C6416 0.950 . S
C6421 C6419 1.390 . S
C6421 C6422 1.387 . S
C6421 H6424 0.950 . S
C6422 C6421 1.387 . S
C6422 C6425 1.387 . S
H6423 C6419 0.950 . S
H6424 C6421 0.950 . S
C6425 C6416 1.390 . S
C6425 H6418 0.950 . S
C6425 C6422 1.387 . S
C6426 C6427 1.387 . S
C6426 H6430 0.950 . S
C6426 C6435 1.390 . S
C6427 C6426 1.387 . S
C6427 C6429 1.387 . S
H6428 C6435 0.950 . S
C6429 C6427 1.387 . S
C6429 C6431 1.390 . S
C6429 H6433 0.950 . S
H6430 C6426 0.950 . S
C6431 C6429 1.390 . S
C6431 C6432 1.387 . S
C6431 H6434 0.950 . S
C6432 C6431 1.387 . S
C6432 C6435 1.387 . S
H6433 C6429 0.950 . S
H6434 C6431 0.950 . S
C6435 C6426 1.390 . S
C6435 H6428 0.950 . S
C6435 C6432 1.387 . S
C6436 C6437 1.387 . S
C6436 H6440 0.950 . S
C6436 C6445 1.390 . S
C6437 C6436 1.387 . S
C6437 C6439 1.387 . S
H6438 C6445 0.950 . S
C6439 C6437 1.387 . S
C6439 C6441 1.390 . S
C6439 H6443 0.950 . S
H6440 C6436 0.950 . S
C6441 C6439 1.390 . S
C6441 C6442 1.387 . S
C6441 H6444 0.950 . S
C6442 C6441 1.387 . S
C6442 C6445 1.387 . S
H6443 C6439 0.950 . S
H6444 C6441 0.950 . S
C6445 C6436 1.390 . S
C6445 H6438 0.950 . S
C6445 C6442 1.387 . S
C6446 C6447 1.387 . S
C6446 H6450 0.950 . S
C6446 C6455 1.390 . S
C6447 C6446 1.387 . S
C6447 C6449 1.387 . S
H6448 C6455 0.950 . S
C6449 C6447 1.387 . S
C6449 C6451 1.390 . S
C6449 H6453 0.950 . S
H6450 C6446 0.950 . S
C6451 C6449 1.390 . S
C6451 C6452 1.387 . S
C6451 H6454 0.950 . S
C6452 C6451 1.387 . S
C6452 C6455 1.387 . S
H6453 C6449 0.950 . S
H6454 C6451 0.950 . S
C6455 C6446 1.390 . S
C6455 H6448 0.950 . S
C6455 C6452 1.387 . S
C6456 C6457 1.387 . S
C6456 H6460 0.950 . S
C6456 C6465 1.390 . S
C6457 C6456 1.387 . S
C6457 C6459 1.387 . S
H6458 C6465 0.950 . S
C6459 C6457 1.387 . S
C6459 C6461 1.390 . S
C6459 H6463 0.950 . S
H6460 C6456 0.950 . S
C6461 C6459 1.390 . S
C6461 C6462 1.387 . S
C6461 H6464 0.950 . S
C6462 C6461 1.387 . S
C6462 C6465 1.387 . S
H6463 C6459 0.950 . S
H6464 C6461 0.950 . S
C6465 C6456 1.390 . S
C6465 H6458 0.950 . S
C6465 C6462 1.387 . S
C6466 C6467 1.387 . S
C6466 H6470 0.950 . S
C6466 C6475 1.390 . S
C6467 C6466 1.387 . S
C6467 C6469 1.387 . S
H6468 C6475 0.950 . S
C6469 C6467 1.387 . S
C6469 C6471 1.390 . S
C6469 H6473 0.950 . S
H6470 C6466 0.950 . S
C6471 C6469 1.390 . S
C6471 C6472 1.387 . S
C6471 H6474 0.950 . S
C6472 C6471 1.387 . S
C6472 C6475 1.387 . S
H6473 C6469 0.950 . S
H6474 C6471 0.950 . S
C6475 C6466 1.390 . S
C6475 H6468 0.950 . S
C6475 C6472 1.387 . S
C6476 C6477 1.387 . S
C6476 H6480 0.950 . S
C6476 C6485 1.390 . S
C6477 C6476 1.387 . S
C6477 C6479 1.387 . S
H6478 C6485 0.950 . S
C6479 C6477 1.387 . S
C6479 C6481 1.390 . S
C6479 H6483 0.950 . S
H6480 C6476 0.950 . S
C6481 C6479 1.390 . S
C6481 C6482 1.387 . S
C6481 H6484 0.950 . S
C6482 C6481 1.387 . S
C6482 C6485 1.387 . S
H6483 C6479 0.950 . S
H6484 C6481 0.950 . S
C6485 C6476 1.390 . S
C6485 H6478 0.950 . S
C6485 C6482 1.387 . S
C6486 C6487 1.387 . S
C6486 H6490 0.950 . S
C6486 C6495 1.390 . S
C6487 C6486 1.387 . S
C6487 C6489 1.387 . S
H6488 C6495 0.950 . S
C6489 C6487 1.387 . S
C6489 C6491 1.390 . S
C6489 H6493 0.950 . S
H6490 C6486 0.950 . S
C6491 C6489 1.390 . S
C6491 C6492 1.387 . S
C6491 H6494 0.950 . S
C6492 C6491 1.387 . S
C6492 C6495 1.387 . S
H6493 C6489 0.950 . S
H6494 C6491 0.950 . S
C6495 C6486 1.390 . S
C6495 H6488 0.950 . S
C6495 C6492 1.387 . S
C6496 C6497 1.387 . S
C6496 H6500 0.950 . S
C6496 C6505 1.390 . S
C6497 C6496 1.387 . S
C6497 C6499 1.387 . S
H6498 C6505 0.950 . S
C6499 C6497 1.387 . S
C6499 C6501 1.390 . S
C6499 H6503 0.950 . S
H6500 C6496 0.950 . S
C6501 C6499 1.390 . S
C6501 C6502 1.387 . S
C6501 H6504 0.950 . S
C6502 C6501 1.387 . S
C6502 C6505 1.387 . S
H6503 C6499 0.950 . S
H6504 C6501 0.950 . S
C6505 C6496 1.390 . S
C6505 H6498 0.950 . S
C6505 C6502 1.387 . S
C6506 C6507 1.387 . S
C6506 H6510 0.950 . S
C6506 C6515 1.390 . S
C6507 C6506 1.387 . S
C6507 C6509 1.387 . S
H6508 C6515 0.950 . S
C6509 C6507 1.387 . S
C6509 C6511 1.390 . S
C6509 H6513 0.950 . S
H6510 C6506 0.950 . S
C6511 C6509 1.390 . S
C6511 C6512 1.387 . S
C6511 H6514 0.950 . S
C6512 C6511 1.387 . S
C6512 C6515 1.387 . S
H6513 C6509 0.950 . S
H6514 C6511 0.950 . S
C6515 C6506 1.390 . S
C6515 H6508 0.950 . S
C6515 C6512 1.387 . S
C6516 C6517 1.387 . S
C6516 H6520 0.950 . S
C6516 C6525 1.390 . S
C6517 C6516 1.387 . S
C6517 C6519 1.387 . S
H6518 C6525 0.950 . S
C6519 C6517 1.387 . S
C6519 C6521 1.390 . S
C6519 H6523 0.950 . S
H6520 C6516 0.950 . S
C6521 C6519 1.390 . S
C6521 C6522 1.387 . S
C6521 H6524 0.950 . S
C6522 C6521 1.387 . S
C6522 C6525 1.387 . S
H6523 C6519 0.950 . S
H6524 C6521 0.950 . S
C6525 C6516 1.390 . S
C6525 H6518 0.950 . S
C6525 C6522 1.387 . S
C6526 C6527 1.387 . S
C6526 H6530 0.950 . S
C6526 C6535 1.390 . S
C6527 C6526 1.387 . S
C6527 C6529 1.387 . S
H6528 C6535 0.950 . S
C6529 C6527 1.387 . S
C6529 C6531 1.390 . S
C6529 H6533 0.950 . S
H6530 C6526 0.950 . S
C6531 C6529 1.390 . S
C6531 C6532 1.387 . S
C6531 H6534 0.950 . S
C6532 C6531 1.387 . S
C6532 C6535 1.387 . S
H6533 C6529 0.950 . S
H6534 C6531 0.950 . S
C6535 C6526 1.390 . S
C6535 H6528 0.950 . S
C6535 C6532 1.387 . S
C6536 C6537 1.387 . S
C6536 H6540 0.950 . S
C6536 C6545 1.390 . S
C6537 C6536 1.387 . S
C6537 C6539 1.387 . S
H6538 C6545 0.950 . S
C6539 C6537 1.387 . S
C6539 C6541 1.390 . S
C6539 H6543 0.950 . S
H6540 C6536 0.950 . S
C6541 C6539 1.390 . S
C6541 C6542 1.387 . S
C6541 H6544 0.950 . S
C6542 C6541 1.387 . S
C6542 C6545 1.387 . S
H6543 C6539 0.950 . S
H6544 C6541 0.950 . S
C6545 C6536 1.390 . S
C6545 H6538 0.950 . S
C6545 C6542 1.387 . S
C6546 C6547 1.387 . S
C6546 H6550 0.950 . S
C6546 C6555 1.390 . S
C6547 C6546 1.387 . S
C6547 C6549 1.387 . S
H6548 C6555 0.950 . S
C6549 C6547 1.387 . S
C6549 C6551 1.390 . S
C6549 H6553 0.950 . S
H6550 C6546 0.950 . S
C6551 C6549 1.390 . S
C6551 C6552 1.387 . S
C6551 H6554 0.950 . S
C6552 C6551 1.387 . S
C6552 C6555 1.387 . S
H6553 C6549 0.950 . S
H6554 C6551 0.950 . S
C6555 C6546 1.390 . S
C6555 H6548 0.950 . S
C6555 C6552 1.387 . S
C6556 C6557 1.387 . S
C6556 H6560 0.950 . S
C6556 C6565 1.390 . S
C6557 C6556 1.387 . S
C6557 C6559 1.387 . S
H6558 C6565 0.950 . S
C6559 C6557 1.387 . S
C6559 C6561 1.390 . S
C6559 H6563 0.950 . S
H6560 C6556 0.950 . S
C6561 C6559 1.390 . S
C6561 C6562 1.387 . S
C6561 H6564 0.950 . S
C6562 C6561 1.387 . S
C6562 C6565 1.387 . S
H6563 C6559 0.950 . S
H6564 C6561 0.950 . S
C6565 C6556 1.390 . S
C6565 H6558 0.950 . S
C6565 C6562 1.387 . S
C6566 C6567 1.387 . S
C6566 H6570 0.950 . S
C6566 C6575 1.390 . S
C6567 C6566 1.387 . S
C6567 C6569 1.387 . S
H6568 C6575 0.950 . S
C6569 C6567 1.387 . S
C6569 C6571 1.390 . S
C6569 H6573 0.950 . S
H6570 C6566 0.950 . S
C6571 C6569 1.390 . S
C6571 C6572 1.387 . S
C6571 H6574 0.950 . S
C6572 C6571 1.387 . S
C6572 C6575 1.387 . S
H6573 C6569 0.950 . S
H6574 C6571 0.950 . S
C6575 C6566 1.390 . S
C6575 H6568 0.950 . S
C6575 C6572 1.387 . S
C6576 C6577 1.387 . S
C6576 H6580 0.950 . S
C6576 C6585 1.390 . S
C6577 C6576 1.387 . S
C6577 C6579 1.387 . S
H6578 C6585 0.950 . S
C6579 C6577 1.387 . S
C6579 C6581 1.390 . S
C6579 H6583 0.950 . S
H6580 C6576 0.950 . S
C6581 C6579 1.390 . S
C6581 C6582 1.387 . S
C6581 H6584 0.950 . S
C6582 C6581 1.387 . S
C6582 C6585 1.387 . S
H6583 C6579 0.950 . S
H6584 C6581 0.950 . S
C6585 C6576 1.390 . S
C6585 H6578 0.950 . S
C6585 C6582 1.387 . S
C6586 C6587 1.387 . S
C6586 H6590 0.950 . S
C6586 C6595 1.390 . S
C6587 C6586 1.387 . S
C6587 C6589 1.387 . S
H6588 C6595 0.950 . S
C6589 C6587 1.387 . S
C6589 C6591 1.390 . S
C6589 H6593 0.950 . S
H6590 C6586 0.950 . S
C6591 C6589 1.390 . S
C6591 C6592 1.387 . S
C6591 H6594 0.950 . S
C6592 C6591 1.387 . S
C6592 C6595 1.387 . S
H6593 C6589 0.950 . S
H6594 C6591 0.950 . S
C6595 C6586 1.390 . S
C6595 H6588 0.950 . S
C6595 C6592 1.387 . S
C6596 C6597 1.387 . S
C6596 H6600 0.950 . S
C6596 C6605 1.390 . S
C6597 C6596 1.387 . S
C6597 C6599 1.387 . S
H6598 C6605 0.950 . S
C6599 C6597 1.387 . S
C6599 C6601 1.390 . S
C6599 H6603 0.950 . S
H6600 C6596 0.950 . S
C6601 C6599 1.390 . S
C6601 C6602 1.387 . S
C6601 H6604 0.950 . S
C6602 C6601 1.387 . S
C6602 C6605 1.387 . S
H6603 C6599 0.950 . S
H6604 C6601 0.950 . S
C6605 C6596 1.390 . S
C6605 H6598 0.950 . S
C6605 C6602 1.387 . S
C6606 C6607 1.387 . S
C6606 H6610 0.950 . S
C6606 C6615 1.390 . S
C6607 C6606 1.387 . S
C6607 C6609 1.387 . S
H6608 C6615 0.950 . S
C6609 C6607 1.387 . S
C6609 C6611 1.390 . S
C6609 H6613 0.950 . S
H6610 C6606 0.950 . S
C6611 C6609 1.390 . S
C6611 C6612 1.387 . S
C6611 H6614 0.950 . S
C6612 C6611 1.387 . S
C6612 C6615 1.387 . S
H6613 C6609 0.950 . S
H6614 C6611 0.950 . S
C6615 C6606 1.390 . S
C6615 H6608 0.950 . S
C6615 C6612 1.387 . S
C6616 C6617 1.387 . S
C6616 H6620 0.950 . S
C6616 C6625 1.390 . S
C6617 C6616 1.387 . S
C6617 C6619 1.387 . S
H6618 C6625 0.950 . S
C6619 C6617 1.387 . S
C6619 C6621 1.390 . S
C6619 H6623 0.950 . S
H6620 C6616 0.950 . S
C6621 C6619 1.390 . S
C6621 C6622 1.387 . S
C6621 H6624 0.950 . S
C6622 C6621 1.387 . S
C6622 C6625 1.387 . S
H6623 C6619 0.950 . S
H6624 C6621 0.950 . S
C6625 C6616 1.390 . S
C6625 H6618 0.950 . S
C6625 C6622 1.387 . S
C6626 C6627 1.387 . S
C6626 H6630 0.950 . S
C6626 C6635 1.390 . S
C6627 C6626 1.387 . S
C6627 C6629 1.387 . S
H6628 C6635 0.950 . S
C6629 C6627 1.387 . S
C6629 C6631 1.390 . S
C6629 H6633 0.950 . S
H6630 C6626 0.950 . S
C6631 C6629 1.390 . S
C6631 C6632 1.387 . S
C6631 H6634 0.950 . S
C6632 C6631 1.387 . S
C6632 C6635 1.387 . S
H6633 C6629 0.950 . S
H6634 C6631 0.950 . S
C6635 C6626 1.390 . S
C6635 H6628 0.950 . S
C6635 C6632 1.387 . S
C6636 C6637 1.387 . S
C6636 H6640 0.950 . S
C6636 C6645 1.390 . S
C6637 C6636 1.387 . S
C6637 C6639 1.387 . S
H6638 C6645 0.950 . S
C6639 C6637 1.387 . S
C6639 C6641 1.390 . S
C6639 H6643 0.950 . S
H6640 C6636 0.950 . S
C6641 C6639 1.390 . S
C6641 C6642 1.387 . S
C6641 H6644 0.950 . S
C6642 C6641 1.387 . S
C6642 C6645 1.387 . S
H6643 C6639 0.950 . S
H6644 C6641 0.950 . S
C6645 C6636 1.390 . S
C6645 H6638 0.950 . S
C6645 C6642 1.387 . S
C6646 C6647 1.387 . S
C6646 H6650 0.950 . S
C6646 C6655 1.390 . S
C6647 C6646 1.387 . S
C6647 C6649 1.387 . S
H6648 C6655 0.950 . S
C6649 C6647 1.387 . S
C6649 C6651 1.390 . S
C6649 H6653 0.950 . S
H6650 C6646 0.950 . S
C6651 C6649 1.390 . S
C6651 C6652 1.387 . S
C6651 H6654 0.950 . S
C6652 C6651 1.387 . S
C6652 C6655 1.387 . S
H6653 C6649 0.950 . S
H6654 C6651 0.950 . S
C6655 C6646 1.390 . S
C6655 H6648 0.950 . S
C6655 C6652 1.387 . S
C6656 C6657 1.387 . S
C6656 H6660 0.950 . S
C6656 C6665 1.390 . S
C6657 C6656 1.387 . S
C6657 C6659 1.387 . S
H6658 C6665 0.950 . S
C6659 C6657 1.387 . S
C6659 C6661 1.390 . S
C6659 H6663 0.950 . S
H6660 C6656 0.950 . S
C6661 C6659 1.390 . S
C6661 C6662 1.387 . S
C6661 H6664 0.950 . S
C6662 C6661 1.387 . S
C6662 C6665 1.387 . S
H6663 C6659 0.950 . S
H6664 C6661 0.950 . S
C6665 C6656 1.390 . S
C6665 H6658 0.950 . S
C6665 C6662 1.387 . S
C6666 C6667 1.387 . S
C6666 H6670 0.950 . S
C6666 C6675 1.390 . S
C6667 C6666 1.387 . S
C6667 C6669 1.387 . S
H6668 C6675 0.950 . S
C6669 C6667 1.387 . S
C6669 C6671 1.390 . S
C6669 H6673 0.950 . S
H6670 C6666 0.950 . S
C6671 C6669 1.390 . S
C6671 C6672 1.387 . S
C6671 H6674 0.950 . S
C6672 C6671 1.387 . S
C6672 C6675 1.387 . S
H6673 C6669 0.950 . S
H6674 C6671 0.950 . S
C6675 C6666 1.390 . S
C6675 H6668 0.950 . S
C6675 C6672 1.387 . S
C6676 C6677 1.387 . S
C6676 H6680 0.950 . S
C6676 C6685 1.390 . S
C6677 C6676 1.387 . S
C6677 C6679 1.387 . S
H6678 C6685 0.950 . S
C6679 C6677 1.387 . S
C6679 C6681 1.390 . S
C6679 H6683 0.950 . S
H6680 C6676 0.950 . S
C6681 C6679 1.390 . S
C6681 C6682 1.387 . S
C6681 H6684 0.950 . S
C6682 C6681 1.387 . S
C6682 C6685 1.387 . S
H6683 C6679 0.950 . S
H6684 C6681 0.950 . S
C6685 C6676 1.390 . S
C6685 H6678 0.950 . S
C6685 C6682 1.387 . S
C6686 C6687 1.387 . S
C6686 H6690 0.950 . S
C6686 C6695 1.390 . S
C6687 C6686 1.387 . S
C6687 C6689 1.387 . S
H6688 C6695 0.950 . S
C6689 C6687 1.387 . S
C6689 C6691 1.390 . S
C6689 H6693 0.950 . S
H6690 C6686 0.950 . S
C6691 C6689 1.390 . S
C6691 C6692 1.387 . S
C6691 H6694 0.950 . S
C6692 C6691 1.387 . S
C6692 C6695 1.387 . S
H6693 C6689 0.950 . S
H6694 C6691 0.950 . S
C6695 C6686 1.390 . S
C6695 H6688 0.950 . S
C6695 C6692 1.387 . S
C6696 C6697 1.387 . S
C6696 H6700 0.950 . S
C6696 C6705 1.390 . S
C6697 C6696 1.387 . S
C6697 C6699 1.387 . S
H6698 C6705 0.950 . S
C6699 C6697 1.387 . S
C6699 C6701 1.390 . S
C6699 H6703 0.950 . S
H6700 C6696 0.950 . S
C6701 C6699 1.390 . S
C6701 C6702 1.387 . S
C6701 H6704 0.950 . S
C6702 C6701 1.387 . S
C6702 C6705 1.387 . S
H6703 C6699 0.950 . S
H6704 C6701 0.950 . S
C6705 C6696 1.390 . S
C6705 H6698 0.950 . S
C6705 C6702 1.387 . S
C6706 C6707 1.387 . S
C6706 H6710 0.950 . S
C6706 C6715 1.390 . S
C6707 C6706 1.387 . S
C6707 C6709 1.387 . S
H6708 C6715 0.950 . S
C6709 C6707 1.387 . S
C6709 C6711 1.390 . S
C6709 H6713 0.950 . S
H6710 C6706 0.950 . S
C6711 C6709 1.390 . S
C6711 C6712 1.387 . S
C6711 H6714 0.950 . S
C6712 C6711 1.387 . S
C6712 C6715 1.387 . S
H6713 C6709 0.950 . S
H6714 C6711 0.950 . S
C6715 C6706 1.390 . S
C6715 H6708 0.950 . S
C6715 C6712 1.387 . S
C6716 C6717 1.387 . S
C6716 H6720 0.950 . S
C6716 C6725 1.390 . S
C6717 C6716 1.387 . S
C6717 C6719 1.387 . S
H6718 C6725 0.950 . S
C6719 C6717 1.387 . S
C6719 C6721 1.390 . S
C6719 H6723 0.950 . S
H6720 C6716 0.950 . S
C6721 C6719 1.390 . S
C6721 C6722 1.387 . S
C6721 H6724 0.950 . S
C6722 C6721 1.387 . S
C6722 C6725 1.387 . S
H6723 C6719 0.950 . S
H6724 C6721 0.950 . S
C6725 C6716 1.390 . S
C6725 H6718 0.950 . S
C6725 C6722 1.387 . S
C6726 C6727 1.387 . S
C6726 H6730 0.950 . S
C6726 C6735 1.390 . S
C6727 C6726 1.387 . S
C6727 C6729 1.387 . S
H6728 C6735 0.950 . S
C6729 C6727 1.387 . S
C6729 C6731 1.390 . S
C6729 H6733 0.950 . S
H6730 C6726 0.950 . S
C6731 C6729 1.390 . S
C6731 C6732 1.387 . S
C6731 H6734 0.950 . S
C6732 C6731 1.387 . S
C6732 C6735 1.387 . S
H6733 C6729 0.950 . S
H6734 C6731 0.950 . S
C6735 C6726 1.390 . S
C6735 H6728 0.950 . S
C6735 C6732 1.387 . S
C6736 C6737 1.387 . S
C6736 H6740 0.950 . S
C6736 C6745 1.390 . S
C6737 C6736 1.387 . S
C6737 C6739 1.387 . S
H6738 C6745 0.950 . S
C6739 C6737 1.387 . S
C6739 C6741 1.390 . S
C6739 H6743 0.950 . S
H6740 C6736 0.950 . S
C6741 C6739 1.390 . S
C6741 C6742 1.387 . S
C6741 H6744 0.950 . S
C6742 C6741 1.387 . S
C6742 C6745 1.387 . S
H6743 C6739 0.950 . S
H6744 C6741 0.950 . S
C6745 C6736 1.390 . S
C6745 H6738 0.950 . S
C6745 C6742 1.387 . S
C6746 C6747 1.387 . S
C6746 H6750 0.950 . S
C6746 C6755 1.390 . S
C6747 C6746 1.387 . S
C6747 C6749 1.387 . S
H6748 C6755 0.950 . S
C6749 C6747 1.387 . S
C6749 C6751 1.390 . S
C6749 H6753 0.950 . S
H6750 C6746 0.950 . S
C6751 C6749 1.390 . S
C6751 C6752 1.387 . S
C6751 H6754 0.950 . S
C6752 C6751 1.387 . S
C6752 C6755 1.387 . S
H6753 C6749 0.950 . S
H6754 C6751 0.950 . S
C6755 C6746 1.390 . S
C6755 H6748 0.950 . S
C6755 C6752 1.387 . S
C6756 C6757 1.387 . S
C6756 H6760 0.950 . S
C6756 C6765 1.390 . S
C6757 C6756 1.387 . S
C6757 C6759 1.387 . S
H6758 C6765 0.950 . S
C6759 C6757 1.387 . S
C6759 C6761 1.390 . S
C6759 H6763 0.950 . S
H6760 C6756 0.950 . S
C6761 C6759 1.390 . S
C6761 C6762 1.387 . S
C6761 H6764 0.950 . S
C6762 C6761 1.387 . S
C6762 C6765 1.387 . S
H6763 C6759 0.950 . S
H6764 C6761 0.950 . S
C6765 C6756 1.390 . S
C6765 H6758 0.950 . S
C6765 C6762 1.387 . S
C6766 C6767 1.387 . S
C6766 H6770 0.950 . S
C6766 C6775 1.390 . S
C6767 C6766 1.387 . S
C6767 C6769 1.387 . S
H6768 C6775 0.950 . S
C6769 C6767 1.387 . S
C6769 C6771 1.390 . S
C6769 H6773 0.950 . S
H6770 C6766 0.950 . S
C6771 C6769 1.390 . S
C6771 C6772 1.387 . S
C6771 H6774 0.950 . S
C6772 C6771 1.387 . S
C6772 C6775 1.387 . S
H6773 C6769 0.950 . S
H6774 C6771 0.950 . S
C6775 C6766 1.390 . S
C6775 H6768 0.950 . S
C6775 C6772 1.387 . S
C6776 C6777 1.387 . S
C6776 H6780 0.950 . S
C6776 C6785 1.390 . S
C6777 C6776 1.387 . S
C6777 C6779 1.387 . S
H6778 C6785 0.950 . S
C6779 C6777 1.387 . S
C6779 C6781 1.390 . S
C6779 H6783 0.950 . S
H6780 C6776 0.950 . S
C6781 C6779 1.390 . S
C6781 C6782 1.387 . S
C6781 H6784 0.950 . S
C6782 C6781 1.387 . S
C6782 C6785 1.387 . S
H6783 C6779 0.950 . S
H6784 C6781 0.950 . S
C6785 C6776 1.390 . S
C6785 H6778 0.950 . S
C6785 C6782 1.387 . S
C6786 C6787 1.387 . S
C6786 H6790 0.950 . S
C6786 C6795 1.390 . S
C6787 C6786 1.387 . S
C6787 C6789 1.387 . S
H6788 C6795 0.950 . S
C6789 C6787 1.387 . S
C6789 C6791 1.390 . S
C6789 H6793 0.950 . S
H6790 C6786 0.950 . S
C6791 C6789 1.390 . S
C6791 C6792 1.387 . S
C6791 H6794 0.950 . S
C6792 C6791 1.387 . S
C6792 C6795 1.387 . S
H6793 C6789 0.950 . S
H6794 C6791 0.950 . S
C6795 C6786 1.390 . S
C6795 H6788 0.950 . S
C6795 C6792 1.387 . S
C6796 C6797 1.387 . S
C6796 H6800 0.950 . S
C6796 C6805 1.390 . S
C6797 C6796 1.387 . S
C6797 C6799 1.387 . S
H6798 C6805 0.950 . S
C6799 C6797 1.387 . S
C6799 C6801 1.390 . S
C6799 H6803 0.950 . S
H6800 C6796 0.950 . S
C6801 C6799 1.390 . S
C6801 C6802 1.387 . S
C6801 H6804 0.950 . S
C6802 C6801 1.387 . S
C6802 C6805 1.387 . S
H6803 C6799 0.950 . S
H6804 C6801 0.950 . S
C6805 C6796 1.390 . S
C6805 H6798 0.950 . S
C6805 C6802 1.387 . S
C6806 C6807 1.387 . S
C6806 H6810 0.950 . S
C6806 C6815 1.390 . S
C6807 C6806 1.387 . S
C6807 C6809 1.387 . S
H6808 C6815 0.950 . S
C6809 C6807 1.387 . S
C6809 C6811 1.390 . S
C6809 H6813 0.950 . S
H6810 C6806 0.950 . S
C6811 C6809 1.390 . S
C6811 C6812 1.387 . S
C6811 H6814 0.950 . S
C6812 C6811 1.387 . S
C6812 C6815 1.387 . S
H6813 C6809 0.950 . S
H6814 C6811 0.950 . S
C6815 C6806 1.390 . S
C6815 H6808 0.950 . S
C6815 C6812 1.387 . S
C6816 C6817 1.387 . S
C6816 H6820 0.950 . S
C6816 C6825 1.390 . S
C6817 C6816 1.387 . S
C6817 C6819 1.387 . S
H6818 C6825 0.950 . S
C6819 C6817 1.387 . S
C6819 C6821 1.390 . S
C6819 H6823 0.950 . S
H6820 C6816 0.950 . S
C6821 C6819 1.390 . S
C6821 C6822 1.387 . S
C6821 H6824 0.950 . S
C6822 C6821 1.387 . S
C6822 C6825 1.387 . S
H6823 C6819 0.950 . S
H6824 C6821 0.950 . S
C6825 C6816 1.390 . S
C6825 H6818 0.950 . S
C6825 C6822 1.387 . S
C6826 C6827 1.387 . S
C6826 H6830 0.950 . S
C6826 C6835 1.390 . S
C6827 C6826 1.387 . S
C6827 C6829 1.387 . S
H6828 C6835 0.950 . S
C6829 C6827 1.387 . S
C6829 C6831 1.390 . S
C6829 H6833 0.950 . S
H6830 C6826 0.950 . S
C6831 C6829 1.390 . S
C6831 C6832 1.387 . S
C6831 H6834 0.950 . S
C6832 C6831 1.387 . S
C6832 C6835 1.387 . S
H6833 C6829 0.950 . S
H6834 C6831 0.950 . S
C6835 C6826 1.390 . S
C6835 H6828 0.950 . S
C6835 C6832 1.387 . S
C6836 C6837 1.387 . S
C6836 H6840 0.950 . S
C6836 C6845 1.390 . S
C6837 C6836 1.387 . S
C6837 C6839 1.387 . S
H6838 C6845 0.950 . S
C6839 C6837 1.387 . S
C6839 C6841 1.390 . S
C6839 H6843 0.950 . S
H6840 C6836 0.950 . S
C6841 C6839 1.390 . S
C6841 C6842 1.387 . S
C6841 H6844 0.950 . S
C6842 C6841 1.387 . S
C6842 C6845 1.387 . S
H6843 C6839 0.950 . S
H6844 C6841 0.950 . S
C6845 C6836 1.390 . S
C6845 H6838 0.950 . S
C6845 C6842 1.387 . S
C6846 C6847 1.387 . S
C6846 H6850 0.950 . S
C6846 C6855 1.390 . S
C6847 C6846 1.387 . S
C6847 C6849 1.387 . S
H6848 C6855 0.950 . S
C6849 C6847 1.387 . S
C6849 C6851 1.390 . S
C6849 H6853 0.950 . S
H6850 C6846 0.950 . S
C6851 C6849 1.390 . S
C6851 C6852 1.387 . S
C6851 H6854 0.950 . S
C6852 C6851 1.387 . S
C6852 C6855 1.387 . S
H6853 C6849 0.950 . S
H6854 C6851 0.950 . S
C6855 C6846 1.390 . S
C6855 H6848 0.950 . S
C6855 C6852 1.387 . S
C6856 C6857 1.387 . S
C6856 H6860 0.950 . S
C6856 C6865 1.390 . S
C6857 C6856 1.387 . S
C6857 C6859 1.387 . S
H6858 C6865 0.950 . S
C6859 C6857 1.387 . S
C6859 C6861 1.390 . S
C6859 H6863 0.950 . S
H6860 C6856 0.950 . S
C6861 C6859 1.390 . S
C6861 C6862 1.387 . S
C6861 H6864 0.950 . S
C6862 C6861 1.387 . S
C6862 C6865 1.387 . S
H6863 C6859 0.950 . S
H6864 C6861 0.950 . S
C6865 C6856 1.390 . S
C6865 H6858 0.950 . S
C6865 C6862 1.387 . S
C6866 C6867 1.387 . S
C6866 H6870 0.950 . S
C6866 C6875 1.390 . S
C6867 C6866 1.387 . S
C6867 C6869 1.387 . S
H6868 C6875 0.950 . S
C6869 C6867 1.387 . S
C6869 C6871 1.390 . S
C6869 H6873 0.950 . S
H6870 C6866 0.950 . S
C6871 C6869 1.390 . S
C6871 C6872 1.387 . S
C6871 H6874 0.950 . S
C6872 C6871 1.387 . S
C6872 C6875 1.387 . S
H6873 C6869 0.950 . S
H6874 C6871 0.950 . S
C6875 C6866 1.390 . S
C6875 H6868 0.950 . S
C6875 C6872 1.387 . S
C6876 C6877 1.387 . S
C6876 H6880 0.950 . S
C6876 C6885 1.390 . S
C6877 C6876 1.387 . S
C6877 C6879 1.387 . S
H6878 C6885 0.950 . S
C6879 C6877 1.387 . S
C6879 C6881 1.390 . S
C6879 H6883 0.950 . S
H6880 C6876 0.950 . S
C6881 C6879 1.390 . S
C6881 C6882 1.387 . S
C6881 H6884 0.950 . S
C6882 C6881 1.387 . S
C6882 C6885 1.387 . S
H6883 C6879 0.950 . S
H6884 C6881 0.950 . S
C6885 C6876 1.390 . S
C6885 H6878 0.950 . S
C6885 C6882 1.387 . S
C6886 C6887 1.387 . S
C6886 H6890 0.950 . S
C6886 C6895 1.390 . S
C6887 C6886 1.387 . S
C6887 C6889 1.387 . S
H6888 C6895 0.950 . S
C6889 C6887 1.387 . S
C6889 C6891 1.390 . S
C6889 H6893 0.950 . S
H6890 C6886 0.950 . S
C6891 C6889 1.390 . S
C6891 C6892 1.387 . S
C6891 H6894 0.950 . S
C6892 C6891 1.387 . S
C6892 C6895 1.387 . S
H6893 C6889 0.950 . S
H6894 C6891 0.950 . S
C6895 C6886 1.390 . S
C6895 H6888 0.950 . S
C6895 C6892 1.387 . S
C6896 C6897 1.387 . S
C6896 H6900 0.950 . S
C6896 C6905 1.390 . S
C6897 C6896 1.387 . S
C6897 C6899 1.387 . S
H6898 C6905 0.950 . S
C6899 C6897 1.387 . S
C6899 C6901 1.390 . S
C6899 H6903 0.950 . S
H6900 C6896 0.950 . S
C6901 C6899 1.390 . S
C6901 C6902 1.387 . S
C6901 H6904 0.950 . S
C6902 C6901 1.387 . S
C6902 C6905 1.387 . S
H6903 C6899 0.950 . S
H6904 C6901 0.950 . S
C6905 C6896 1.390 . S
C6905 H6898 0.950 . S
C6905 C6902 1.387 . S
C6906 C6907 1.387 . S
C6906 H6910 0.950 . S
C6906 C6915 1.390 . S
C6907 C6906 1.387 . S
C6907 C6909 1.387 . S
H6908 C6915 0.950 . S
C6909 C6907 1.387 . S
C6909 C6911 1.390 . S
C6909 H6913 0.950 . S
H6910 C6906 0.950 . S
C6911 C6909 1.390 . S
C6911 C6912 1.387 . S
C6911 H6914 0.950 . S
C6912 C6911 1.387 . S
C6912 C6915 1.387 . S
H6913 C6909 0.950 . S
H6914 C6911 0.950 . S
C6915 C6906 1.390 . S
C6915 H6908 0.950 . S
C6915 C6912 1.387 . S
C6916 C6917 1.387 . S
C6916 H6920 0.950 . S
C6916 C6925 1.390 . S
C6917 C6916 1.387 . S
C6917 C6919 1.387 . S
H6918 C6925 0.950 . S
C6919 C6917 1.387 . S
C6919 C6921 1.390 . S
C6919 H6923 0.950 . S
H6920 C6916 0.950 . S
C6921 C6919 1.390 . S
C6921 C6922 1.387 . S
C6921 H6924 0.950 . S
C6922 C6921 1.387 . S
C6922 C6925 1.387 . S
H6923 C6919 0.950 . S
H6924 C6921 0.950 . S
C6925 C6916 1.390 . S
C6925 H6918 0.950 . S
C6925 C6922 1.387 . S
C6926 C6927 1.387 . S
C6926 H6930 0.950 . S
C6926 C6935 1.390 . S
C6927 C6926 1.387 . S
C6927 C6929 1.387 . S
H6928 C6935 0.950 . S
C6929 C6927 1.387 . S
C6929 C6931 1.390 . S
C6929 H6933 0.950 . S
H6930 C6926 0.950 . S
C6931 C6929 1.390 . S
C6931 C6932 1.387 . S
C6931 H6934 0.950 . S
C6932 C6931 1.387 . S
C6932 C6935 1.387 . S
H6933 C6929 0.950 . S
H6934 C6931 0.950 . S
C6935 C6926 1.390 . S
C6935 H6928 0.950 . S
C6935 C6932 1.387 . S
C6936 C6937 1.387 . S
C6936 H6940 0.950 . S
C6936 C6945 1.390 . S
C6937 C6936 1.387 . S
C6937 C6939 1.387 . S
H6938 C6945 0.950 . S
C6939 C6937 1.387 . S
C6939 C6941 1.390 . S
C6939 H6943 0.950 . S
H6940 C6936 0.950 . S
C6941 C6939 1.390 . S
C6941 C6942 1.387 . S
C6941 H6944 0.950 . S
C6942 C6941 1.387 . S
C6942 C6945 1.387 . S
H6943 C6939 0.950 . S
H6944 C6941 0.950 . S
C6945 C6936 1.390 . S
C6945 H6938 0.950 . S
C6945 C6942 1.387 . S
C6946 C6947 1.387 . S
C6946 H6950 0.950 . S
C6946 C6955 1.390 . S
C6947 C6946 1.387 . S
C6947 C6949 1.387 . S
H6948 C6955 0.950 . S
C6949 C6947 1.387 . S
C6949 C6951 1.390 . S
C6949 H6953 0.950 . S
H6950 C6946 0.950 . S
C6951 C6949 1.390 . S
C6951 C6952 1.387 . S
C6951 H6954 0.950 . S
C6952 C6951 1.387 . S
C6952 C6955 1.387 . S
H6953 C6949 0.950 . S
H6954 C6951 0.950 . S
C6955 C6946 1.390 . S
C6955 H6948 0.950 . S
C6955 C6952 1.387 . S
C6956 C6957 1.387 . S
C6956 H6960 0.950 . S
C6956 C6965 1.390 . S
C6957 C6956 1.387 . S
C6957 C6959 1.387 . S
H6958 C6965 0.950 . S
C6959 C6957 1.387 . S
C6959 C6961 1.390 . S
C6959 H6963 0.950 . S
H6960 C6956 0.950 . S
C6961 C6959 1.390 . S
C6961 C6962 1.387 . S
C6961 H6964 0.950 . S
C6962 C6961 1.387 . S
C6962 C6965 1.387 . S
H6963 C6959 0.950 . S
H6964 C6961 0.950 . S
C6965 C6956 1.390 . S
C6965 H6958 0.950 . S
C6965 C6962 1.387 . S
C6966 C6967 1.387 . S
C6966 H6970 0.950 . S
C6966 C6975 1.390 . S
C6967 C6966 1.387 . S
C6967 C6969 1.387 . S
H6968 C6975 0.950 . S
C6969 C6967 1.387 . S
C6969 C6971 1.390 . S
C6969 H6973 0.950 . S
H6970 C6966 0.950 . S
C6971 C6969 1.390 . S
C6971 C6972 1.387 . S
C6971 H6974 0.950 . S
C6972 C6971 1.387 . S
C6972 C6975 1.387 . S
H6973 C6969 0.950 . S
H6974 C6971 0.950 . S
C6975 C6966 1.390 . S
C6975 H6968 0.950 . S
C6975 C6972 1.387 . S
C6976 C6977 1.387 . S
C6976 H6980 0.950 . S
C6976 C6985 1.390 . S
C6977 C6976 1.387 . S
C6977 C6979 1.387 . S
H6978 C6985 0.950 . S
C6979 C6977 1.387 . S
C6979 C6981 1.390 . S
C6979 H6983 0.950 . S
H6980 C6976 0.950 . S
C6981 C6979 1.390 . S
C6981 C6982 1.387 . S
C6981 H6984 0.950 . S
C6982 C6981 1.387 . S
C6982 C6985 1.387 . S
H6983 C6979 0.950 . S
H6984 C6981 0.950 . S
C6985 C6976 1.390 . S
C6985 H6978 0.950 . S
C6985 C6982 1.387 . S
C6986 C6987 1.387 . S
C6986 H6990 0.950 . S
C6986 C6995 1.390 . S
C6987 C6986 1.387 . S
C6987 C6989 1.387 . S
H6988 C6995 0.950 . S
C6989 C6987 1.387 . S
C6989 C6991 1.390 . S
C6989 H6993 0.950 . S
H6990 C6986 0.950 . S
C6991 C6989 1.390 . S
C6991 C6992 1.387 . S
C6991 H6994 0.950 . S
C6992 C6991 1.387 . S
C6992 C6995 1.387 . S
H6993 C6989 0.950 . S
H6994 C6991 0.950 . S
C6995 C6986 1.390 . S
C6995 H6988 0.950 . S
C6995 C6992 1.387 . S
C6996 C6997 1.387 . S
C6996 H7000 0.950 . S
C6996 C7005 1.390 . S
C6997 C6996 1.387 . S
C6997 C6999 1.387 . S
H6998 C7005 0.950 . S
C6999 C6997 1.387 . S
C6999 C7001 1.390 . S
C6999 H7003 0.950 . S
H7000 C6996 0.950 . S
C7001 C6999 1.390 . S
C7001 C7002 1.387 . S
C7001 H7004 0.950 . S
C7002 C7001 1.387 . S
C7002 C7005 1.387 . S
H7003 C6999 0.950 . S
H7004 C7001 0.950 . S
C7005 C6996 1.390 . S
C7005 H6998 0.950 . S
C7005 C7002 1.387 . S
C7006 C7007 1.387 . S
C7006 H7010 0.950 . S
C7006 C7015 1.390 . S
C7007 C7006 1.387 . S
C7007 C7009 1.387 . S
H7008 C7015 0.950 . S
C7009 C7007 1.387 . S
C7009 C7011 1.390 . S
C7009 H7013 0.950 . S
H7010 C7006 0.950 . S
C7011 C7009 1.390 . S
C7011 C7012 1.387 . S
C7011 H7014 0.950 . S
C7012 C7011 1.387 . S
C7012 C7015 1.387 . S
H7013 C7009 0.950 . S
H7014 C7011 0.950 . S
C7015 C7006 1.390 . S
C7015 H7008 0.950 . S
C7015 C7012 1.387 . S
C7016 C7017 1.387 . S
C7016 H7020 0.950 . S
C7016 C7025 1.390 . S
C7017 C7016 1.387 . S
C7017 C7019 1.387 . S
H7018 C7025 0.950 . S
C7019 C7017 1.387 . S
C7019 C7021 1.390 . S
C7019 H7023 0.950 . S
H7020 C7016 0.950 . S
C7021 C7019 1.390 . S
C7021 C7022 1.387 . S
C7021 H7024 0.950 . S
C7022 C7021 1.387 . S
C7022 C7025 1.387 . S
H7023 C7019 0.950 . S
H7024 C7021 0.950 . S
C7025 C7016 1.390 . S
C7025 H7018 0.950 . S
C7025 C7022 1.387 . S
C7026 C7027 1.387 . S
C7026 H7030 0.950 . S
C7026 C7035 1.390 . S
C7027 C7026 1.387 . S
C7027 C7029 1.387 . S
H7028 C7035 0.950 . S
C7029 C7027 1.387 . S
C7029 C7031 1.390 . S
C7029 H7033 0.950 . S
H7030 C7026 0.950 . S
C7031 C7029 1.390 . S
C7031 C7032 1.387 . S
C7031 H7034 0.950 . S
C7032 C7031 1.387 . S
C7032 C7035 1.387 . S
H7033 C7029 0.950 . S
H7034 C7031 0.950 . S
C7035 C7026 1.390 . S
C7035 H7028 0.950 . S
C7035 C7032 1.387 . S
C7036 C7037 1.387 . S
C7036 H7040 0.950 . S
C7036 C7045 1.390 . S
C7037 C7036 1.387 . S
C7037 C7039 1.387 . S
H7038 C7045 0.950 . S
C7039 C7037 1.387 . S
C7039 C7041 1.390 . S
C7039 H7043 0.950 . S
H7040 C7036 0.950 . S
C7041 C7039 1.390 . S
C7041 C7042 1.387 . S
C7041 H7044 0.950 . S
C7042 C7041 1.387 . S
C7042 C7045 1.387 . S
H7043 C7039 0.950 . S
H7044 C7041 0.950 . S
C7045 C7036 1.390 . S
C7045 H7038 0.950 . S
C7045 C7042 1.387 . S
C7046 C7047 1.387 . S
C7046 H7050 0.950 . S
C7046 C7055 1.390 . S
C7047 C7046 1.387 . S
C7047 C7049 1.387 . S
H7048 C7055 0.950 . S
C7049 C7047 1.387 . S
C7049 C7051 1.390 . S
C7049 H7053 0.950 . S
H7050 C7046 0.950 . S
C7051 C7049 1.390 . S
C7051 C7052 1.387 . S
C7051 H7054 0.950 . S
C7052 C7051 1.387 . S
C7052 C7055 1.387 . S
H7053 C7049 0.950 . S
H7054 C7051 0.950 . S
C7055 C7046 1.390 . S
C7055 H7048 0.950 . S
C7055 C7052 1.387 . S
C7056 C7057 1.387 . S
C7056 H7060 0.950 . S
C7056 C7065 1.390 . S
C7057 C7056 1.387 . S
C7057 C7059 1.387 . S
H7058 C7065 0.950 . S
C7059 C7057 1.387 . S
C7059 C7061 1.390 . S
C7059 H7063 0.950 . S
H7060 C7056 0.950 . S
C7061 C7059 1.390 . S
C7061 C7062 1.387 . S
C7061 H7064 0.950 . S
C7062 C7061 1.387 . S
C7062 C7065 1.387 . S
H7063 C7059 0.950 . S
H7064 C7061 0.950 . S
C7065 C7056 1.390 . S
C7065 H7058 0.950 . S
C7065 C7062 1.387 . S
C7066 C7067 1.387 . S
C7066 H7070 0.950 . S
C7066 C7075 1.390 . S
C7067 C7066 1.387 . S
C7067 C7069 1.387 . S
H7068 C7075 0.950 . S
C7069 C7067 1.387 . S
C7069 C7071 1.390 . S
C7069 H7073 0.950 . S
H7070 C7066 0.950 . S
C7071 C7069 1.390 . S
C7071 C7072 1.387 . S
C7071 H7074 0.950 . S
C7072 C7071 1.387 . S
C7072 C7075 1.387 . S
H7073 C7069 0.950 . S
H7074 C7071 0.950 . S
C7075 C7066 1.390 . S
C7075 H7068 0.950 . S
C7075 C7072 1.387 . S
C7076 C7077 1.387 . S
C7076 H7080 0.950 . S
C7076 C7085 1.390 . S
C7077 C7076 1.387 . S
C7077 C7079 1.387 . S
H7078 C7085 0.950 . S
C7079 C7077 1.387 . S
C7079 C7081 1.390 . S
C7079 H7083 0.950 . S
H7080 C7076 0.950 . S
C7081 C7079 1.390 . S
C7081 C7082 1.387 . S
C7081 H7084 0.950 . S
C7082 C7081 1.387 . S
C7082 C7085 1.387 . S
H7083 C7079 0.950 . S
H7084 C7081 0.950 . S
C7085 C7076 1.390 . S
C7085 H7078 0.950 . S
C7085 C7082 1.387 . S
C7086 C7087 1.387 . S
C7086 H7090 0.950 . S
C7086 C7095 1.390 . S
C7087 C7086 1.387 . S
C7087 C7089 1.387 . S
H7088 C7095 0.950 . S
C7089 C7087 1.387 . S
C7089 C7091 1.390 . S
C7089 H7093 0.950 . S
H7090 C7086 0.950 . S
C7091 C7089 1.390 . S
C7091 C7092 1.387 . S
C7091 H7094 0.950 . S
C7092 C7091 1.387 . S
C7092 C7095 1.387 . S
H7093 C7089 0.950 . S
H7094 C7091 0.950 . S
C7095 C7086 1.390 . S
C7095 H7088 0.950 . S
C7095 C7092 1.387 . S
C7096 C7097 1.387 . S
C7096 H7100 0.950 . S
C7096 C7105 1.390 . S
C7097 C7096 1.387 . S
C7097 C7099 1.387 . S
H7098 C7105 0.950 . S
C7099 C7097 1.387 . S
C7099 C7101 1.390 . S
C7099 H7103 0.950 . S
H7100 C7096 0.950 . S
C7101 C7099 1.390 . S
C7101 C7102 1.387 . S
C7101 H7104 0.950 . S
C7102 C7101 1.387 . S
C7102 C7105 1.387 . S
H7103 C7099 0.950 . S
H7104 C7101 0.950 . S
C7105 C7096 1.390 . S
C7105 H7098 0.950 . S
C7105 C7102 1.387 . S
C7106 C7107 1.387 . S
C7106 H7110 0.950 . S
C7106 C7115 1.390 . S
C7107 C7106 1.387 . S
C7107 C7109 1.387 . S
H7108 C7115 0.950 . S
C7109 C7107 1.387 . S
C7109 C7111 1.390 . S
C7109 H7113 0.950 . S
H7110 C7106 0.950 . S
C7111 C7109 1.390 . S
C7111 C7112 1.387 . S
C7111 H7114 0.950 . S
C7112 C7111 1.387 . S
C7112 C7115 1.387 . S
H7113 C7109 0.950 . S
H7114 C7111 0.950 . S
C7115 C7106 1.390 . S
C7115 H7108 0.950 . S
C7115 C7112 1.387 . S
C7116 C7117 1.387 . S
C7116 H7120 0.950 . S
C7116 C7125 1.390 . S
C7117 C7116 1.387 . S
C7117 C7119 1.387 . S
H7118 C7125 0.950 . S
C7119 C7117 1.387 . S
C7119 C7121 1.390 . S
C7119 H7123 0.950 . S
H7120 C7116 0.950 . S
C7121 C7119 1.390 . S
C7121 C7122 1.387 . S
C7121 H7124 0.950 . S
C7122 C7121 1.387 . S
C7122 C7125 1.387 . S
H7123 C7119 0.950 . S
H7124 C7121 0.950 . S
C7125 C7116 1.390 . S
C7125 H7118 0.950 . S
C7125 C7122 1.387 . S
C7126 C7127 1.387 . S
C7126 H7130 0.950 . S
C7126 C7135 1.390 . S
C7127 C7126 1.387 . S
C7127 C7129 1.387 . S
H7128 C7135 0.950 . S
C7129 C7127 1.387 . S
C7129 C7131 1.390 . S
C7129 H7133 0.950 . S
H7130 C7126 0.950 . S
C7131 C7129 1.390 . S
C7131 C7132 1.387 . S
C7131 H7134 0.950 . S
C7132 C7131 1.387 . S
C7132 C7135 1.387 . S
H7133 C7129 0.950 . S
H7134 C7131 0.950 . S
C7135 C7126 1.390 . S
C7135 H7128 0.950 . S
C7135 C7132 1.387 . S
C7136 C7137 1.387 . S
C7136 H7140 0.950 . S
C7136 C7145 1.390 . S
C7137 C7136 1.387 . S
C7137 C7139 1.387 . S
H7138 C7145 0.950 . S
C7139 C7137 1.387 . S
C7139 C7141 1.390 . S
C7139 H7143 0.950 . S
H7140 C7136 0.950 . S
C7141 C7139 1.390 . S
C7141 C7142 1.387 . S
C7141 H7144 0.950 . S
C7142 C7141 1.387 . S
C7142 C7145 1.387 . S
H7143 C7139 0.950 . S
H7144 C7141 0.950 . S
C7145 C7136 1.390 . S
C7145 H7138 0.950 . S
C7145 C7142 1.387 . S
C7146 C7147 1.387 . S
C7146 H7150 0.950 . S
C7146 C7155 1.390 . S
C7147 C7146 1.387 . S
C7147 C7149 1.387 . S
H7148 C7155 0.950 . S
C7149 C7147 1.387 . S
C7149 C7151 1.390 . S
C7149 H7153 0.950 . S
H7150 C7146 0.950 . S
C7151 C7149 1.390 . S
C7151 C7152 1.387 . S
C7151 H7154 0.950 . S
C7152 C7151 1.387 . S
C7152 C7155 1.387 . S
H7153 C7149 0.950 . S
H7154 C7151 0.950 . S
C7155 C7146 1.390 . S
C7155 H7148 0.950 . S
C7155 C7152 1.387 . S
C7156 C7157 1.387 . S
C7156 H7160 0.950 . S
C7156 C7165 1.390 . S
C7157 C7156 1.387 . S
C7157 C7159 1.387 . S
H7158 C7165 0.950 . S
C7159 C7157 1.387 . S
C7159 C7161 1.390 . S
C7159 H7163 0.950 . S
H7160 C7156 0.950 . S
C7161 C7159 1.390 . S
C7161 C7162 1.387 . S
C7161 H7164 0.950 . S
C7162 C7161 1.387 . S
C7162 C7165 1.387 . S
H7163 C7159 0.950 . S
H7164 C7161 0.950 . S
C7165 C7156 1.390 . S
C7165 H7158 0.950 . S
C7165 C7162 1.387 . S
C7166 C7167 1.387 . S
C7166 H7170 0.950 . S
C7166 C7175 1.390 . S
C7167 C7166 1.387 . S
C7167 C7169 1.387 . S
H7168 C7175 0.950 . S
C7169 C7167 1.387 . S
C7169 C7171 1.390 . S
C7169 H7173 0.950 . S
H7170 C7166 0.950 . S
C7171 C7169 1.390 . S
C7171 C7172 1.387 . S
C7171 H7174 0.950 . S
C7172 C7171 1.387 . S
C7172 C7175 1.387 . S
H7173 C7169 0.950 . S
H7174 C7171 0.950 . S
C7175 C7166 1.390 . S
C7175 H7168 0.950 . S
C7175 C7172 1.387 . S
C7176 C7177 1.387 . S
C7176 H7180 0.950 . S
C7176 C7185 1.390 . S
C7177 C7176 1.387 . S
C7177 C7179 1.387 . S
H7178 C7185 0.950 . S
C7179 C7177 1.387 . S
C7179 C7181 1.390 . S
C7179 H7183 0.950 . S
H7180 C7176 0.950 . S
C7181 C7179 1.390 . S
C7181 C7182 1.387 . S
C7181 H7184 0.950 . S
C7182 C7181 1.387 . S
C7182 C7185 1.387 . S
H7183 C7179 0.950 . S
H7184 C7181 0.950 . S
C7185 C7176 1.390 . S
C7185 H7178 0.950 . S
C7185 C7182 1.387 . S
C7186 C7187 1.387 . S
C7186 H7190 0.950 . S
C7186 C7195 1.390 . S
C7187 C7186 1.387 . S
C7187 C7189 1.387 . S
H7188 C7195 0.950 . S
C7189 C7187 1.387 . S
C7189 C7191 1.390 . S
C7189 H7193 0.950 . S
H7190 C7186 0.950 . S
C7191 C7189 1.390 . S
C7191 C7192 1.387 . S
C7191 H7194 0.950 . S
C7192 C7191 1.387 . S
C7192 C7195 1.387 . S
H7193 C7189 0.950 . S
H7194 C7191 0.950 . S
C7195 C7186 1.390 . S
C7195 H7188 0.950 . S
C7195 C7192 1.387 . S
C7196 C7197 1.387 . S
C7196 H7200 0.950 . S
C7196 C7205 1.390 . S
C7197 C7196 1.387 . S
C7197 C7199 1.387 . S
H7198 C7205 0.950 . S
C7199 C7197 1.387 . S
C7199 C7201 1.390 . S
C7199 H7203 0.950 . S
H7200 C7196 0.950 . S
C7201 C7199 1.390 . S
C7201 C7202 1.387 . S
C7201 H7204 0.950 . S
C7202 C7201 1.387 . S
C7202 C7205 1.387 . S
H7203 C7199 0.950 . S
H7204 C7201 0.950 . S
C7205 C7196 1.390 . S
C7205 H7198 0.950 . S
C7205 C7202 1.387 . S
C7206 C7207 1.387 . S
C7206 H7210 0.950 . S
C7206 C7215 1.390 . S
C7207 C7206 1.387 . S
C7207 C7209 1.387 . S
H7208 C7215 0.950 . S
C7209 C7207 1.387 . S
C7209 C7211 1.390 . S
C7209 H7213 0.950 . S
H7210 C7206 0.950 . S
C7211 C7209 1.390 . S
C7211 C7212 1.387 . S
C7211 H7214 0.950 . S
C7212 C7211 1.387 . S
C7212 C7215 1.387 . S
H7213 C7209 0.950 . S
H7214 C7211 0.950 . S
C7215 C7206 1.390 . S
C7215 H7208 0.950 . S
C7215 C7212 1.387 . S
C7216 C7217 1.387 . S
C7216 H7220 0.950 . S
C7216 C7225 1.390 . S
C7217 C7216 1.387 . S
C7217 C7219 1.387 . S
H7218 C7225 0.950 . S
C7219 C7217 1.387 . S
C7219 C7221 1.390 . S
C7219 H7223 0.950 . S
H7220 C7216 0.950 . S
C7221 C7219 1.390 . S
C7221 C7222 1.387 . S
C7221 H7224 0.950 . S
C7222 C7221 1.387 . S
C7222 C7225 1.387 . S
H7223 C7219 0.950 . S
H7224 C7221 0.950 . S
C7225 C7216 1.390 . S
C7225 H7218 0.950 . S
C7225 C7222 1.387 . S
C7226 C7227 1.387 . S
C7226 H7230 0.950 . S
C7226 C7235 1.390 . S
C7227 C7226 1.387 . S
C7227 C7229 1.387 . S
H7228 C7235 0.950 . S
C7229 C7227 1.387 . S
C7229 C7231 1.390 . S
C7229 H7233 0.950 . S
H7230 C7226 0.950 . S
C7231 C7229 1.390 . S
C7231 C7232 1.387 . S
C7231 H7234 0.950 . S
C7232 C7231 1.387 . S
C7232 C7235 1.387 . S
H7233 C7229 0.950 . S
H7234 C7231 0.950 . S
C7235 C7226 1.390 . S
C7235 H7228 0.950 . S
C7235 C7232 1.387 . S
C7236 C7237 1.387 . S
C7236 H7240 0.950 . S
C7236 C7245 1.390 . S
C7237 C7236 1.387 . S
C7237 C7239 1.387 . S
H7238 C7245 0.950 . S
C7239 C7237 1.387 . S
C7239 C7241 1.390 . S
C7239 H7243 0.950 . S
H7240 C7236 0.950 . S
C7241 C7239 1.390 . S
C7241 C7242 1.387 . S
C7241 H7244 0.950 . S
C7242 C7241 1.387 . S
C7242 C7245 1.387 . S
H7243 C7239 0.950 . S
H7244 C7241 0.950 . S
C7245 C7236 1.390 . S
C7245 H7238 0.950 . S
C7245 C7242 1.387 . S
C7246 C7247 1.387 . S
C7246 H7250 0.950 . S
C7246 C7255 1.390 . S
C7247 C7246 1.387 . S
C7247 C7249 1.387 . S
H7248 C7255 0.950 . S
C7249 C7247 1.387 . S
C7249 C7251 1.390 . S
C7249 H7253 0.950 . S
H7250 C7246 0.950 . S
C7251 C7249 1.390 . S
C7251 C7252 1.387 . S
C7251 H7254 0.950 . S
C7252 C7251 1.387 . S
C7252 C7255 1.387 . S
H7253 C7249 0.950 . S
H7254 C7251 0.950 . S
C7255 C7246 1.390 . S
C7255 H7248 0.950 . S
C7255 C7252 1.387 . S
C7256 C7257 1.387 . S
C7256 H7260 0.950 . S
C7256 C7265 1.390 . S
C7257 C7256 1.387 . S
C7257 C7259 1.387 . S
H7258 C7265 0.950 . S
C7259 C7257 1.387 . S
C7259 C7261 1.390 . S
C7259 H7263 0.950 . S
H7260 C7256 0.950 . S
C7261 C7259 1.390 . S
C7261 C7262 1.387 . S
C7261 H7264 0.950 . S
C7262 C7261 1.387 . S
C7262 C7265 1.387 . S
H7263 C7259 0.950 . S
H7264 C7261 0.950 . S
C7265 C7256 1.390 . S
C7265 H7258 0.950 . S
C7265 C7262 1.387 . S
C7266 C7267 1.387 . S
C7266 H7270 0.950 . S
C7266 C7275 1.390 . S
C7267 C7266 1.387 . S
C7267 C7269 1.387 . S
H7268 C7275 0.950 . S
C7269 C7267 1.387 . S
C7269 C7271 1.390 . S
C7269 H7273 0.950 . S
H7270 C7266 0.950 . S
C7271 C7269 1.390 . S
C7271 C7272 1.387 . S
C7271 H7274 0.950 . S
C7272 C7271 1.387 . S
C7272 C7275 1.387 . S
H7273 C7269 0.950 . S
H7274 C7271 0.950 . S
C7275 C7266 1.390 . S
C7275 H7268 0.950 . S
C7275 C7272 1.387 . S
C7276 C7277 1.387 . S
C7276 H7280 0.950 . S
C7276 C7285 1.390 . S
C7277 C7276 1.387 . S
C7277 C7279 1.387 . S
H7278 C7285 0.950 . S
C7279 C7277 1.387 . S
C7279 C7281 1.390 . S
C7279 H7283 0.950 . S
H7280 C7276 0.950 . S
C7281 C7279 1.390 . S
C7281 C7282 1.387 . S
C7281 H7284 0.950 . S
C7282 C7281 1.387 . S
C7282 C7285 1.387 . S
H7283 C7279 0.950 . S
H7284 C7281 0.950 . S
C7285 C7276 1.390 . S
C7285 H7278 0.950 . S
C7285 C7282 1.387 . S
C7286 C7287 1.387 . S
C7286 H7290 0.950 . S
C7286 C7295 1.390 . S
C7287 C7286 1.387 . S
C7287 C7289 1.387 . S
H7288 C7295 0.950 . S
C7289 C7287 1.387 . S
C7289 C7291 1.390 . S
C7289 H7293 0.950 . S
H7290 C7286 0.950 . S
C7291 C7289 1.390 . S
C7291 C7292 1.387 . S
C7291 H7294 0.950 . S
C7292 C7291 1.387 . S
C7292 C7295 1.387 . S
H7293 C7289 0.950 . S
H7294 C7291 0.950 . S
C7295 C7286 1.390 . S
C7295 H7288 0.950 . S
C7295 C7292 1.387 . S
C7296 C7297 1.387 . S
C7296 H7300 0.950 . S
C7296 C7305 1.390 . S
C7297 C7296 1.387 . S
C7297 C7299 1.387 . S
H7298 C7305 0.950 . S
C7299 C7297 1.387 . S
C7299 C7301 1.390 . S
C7299 H7303 0.950 . S
H7300 C7296 0.950 . S
C7301 C7299 1.390 . S
C7301 C7302 1.387 . S
C7301 H7304 0.950 . S
C7302 C7301 1.387 . S
C7302 C7305 1.387 . S
H7303 C7299 0.950 . S
H7304 C7301 0.950 . S
C7305 C7296 1.390 . S
C7305 H7298 0.950 . S
C7305 C7302 1.387 . S
C7306 C7307 1.387 . S
C7306 H7310 0.950 . S
C7306 C7315 1.390 . S
C7307 C7306 1.387 . S
C7307 C7309 1.387 . S
H7308 C7315 0.950 . S
C7309 C7307 1.387 . S
C7309 C7311 1.390 . S
C7309 H7313 0.950 . S
H7310 C7306 0.950 . S
C7311 C7309 1.390 . S
C7311 C7312 1.387 . S
C7311 H7314 0.950 . S
C7312 C7311 1.387 . S
C7312 C7315 1.387 . S
H7313 C7309 0.950 . S
H7314 C7311 0.950 . S
C7315 C7306 1.390 . S
C7315 H7308 0.950 . S
C7315 C7312 1.387 . S
C7316 C7317 1.387 . S
C7316 H7320 0.950 . S
C7316 C7325 1.390 . S
C7317 C7316 1.387 . S
C7317 C7319 1.387 . S
H7318 C7325 0.950 . S
C7319 C7317 1.387 . S
C7319 C7321 1.390 . S
C7319 H7323 0.950 . S
H7320 C7316 0.950 . S
C7321 C7319 1.390 . S
C7321 C7322 1.387 . S
C7321 H7324 0.950 . S
C7322 C7321 1.387 . S
C7322 C7325 1.387 . S
H7323 C7319 0.950 . S
H7324 C7321 0.950 . S
C7325 C7316 1.390 . S
C7325 H7318 0.950 . S
C7325 C7322 1.387 . S
C7326 C7327 1.387 . S
C7326 H7330 0.950 . S
C7326 C7335 1.390 . S
C7327 C7326 1.387 . S
C7327 C7329 1.387 . S
H7328 C7335 0.950 . S
C7329 C7327 1.387 . S
C7329 C7331 1.390 . S
C7329 H7333 0.950 . S
H7330 C7326 0.950 . S
C7331 C7329 1.390 . S
C7331 C7332 1.387 . S
C7331 H7334 0.950 . S
C7332 C7331 1.387 . S
C7332 C7335 1.387 . S
H7333 C7329 0.950 . S
H7334 C7331 0.950 . S
C7335 C7326 1.390 . S
C7335 H7328 0.950 . S
C7335 C7332 1.387 . S
C7336 C7337 1.387 . S
C7336 H7340 0.950 . S
C7336 C7345 1.390 . S
C7337 C7336 1.387 . S
C7337 C7339 1.387 . S
H7338 C7345 0.950 . S
C7339 C7337 1.387 . S
C7339 C7341 1.390 . S
C7339 H7343 0.950 . S
H7340 C7336 0.950 . S
C7341 C7339 1.390 . S
C7341 C7342 1.387 . S
C7341 H7344 0.950 . S
C7342 C7341 1.387 . S
C7342 C7345 1.387 . S
H7343 C7339 0.950 . S
H7344 C7341 0.950 . S
C7345 C7336 1.390 . S
C7345 H7338 0.950 . S
C7345 C7342 1.387 . S
C7346 C7347 1.387 . S
C7346 H7350 0.950 . S
C7346 C7355 1.390 . S
C7347 C7346 1.387 . S
C7347 C7349 1.387 . S
H7348 C7355 0.950 . S
C7349 C7347 1.387 . S
C7349 C7351 1.390 . S
C7349 H7353 0.950 . S
H7350 C7346 0.950 . S
C7351 C7349 1.390 . S
C7351 C7352 1.387 . S
C7351 H7354 0.950 . S
C7352 C7351 1.387 . S
C7352 C7355 1.387 . S
H7353 C7349 0.950 . S
H7354 C7351 0.950 . S
C7355 C7346 1.390 . S
C7355 H7348 0.950 . S
C7355 C7352 1.387 . S
C7356 C7357 1.387 . S
C7356 H7360 0.950 . S
C7356 C7365 1.390 . S
C7357 C7356 1.387 . S
C7357 C7359 1.387 . S
H7358 C7365 0.950 . S
C7359 C7357 1.387 . S
C7359 C7361 1.390 . S
C7359 H7363 0.950 . S
H7360 C7356 0.950 . S
C7361 C7359 1.390 . S
C7361 C7362 1.387 . S
C7361 H7364 0.950 . S
C7362 C7361 1.387 . S
C7362 C7365 1.387 . S
H7363 C7359 0.950 . S
H7364 C7361 0.950 . S
C7365 C7356 1.390 . S
C7365 H7358 0.950 . S
C7365 C7362 1.387 . S
C7366 C7367 1.387 . S
C7366 H7370 0.950 . S
C7366 C7375 1.390 . S
C7367 C7366 1.387 . S
C7367 C7369 1.387 . S
H7368 C7375 0.950 . S
C7369 C7367 1.387 . S
C7369 C7371 1.390 . S
C7369 H7373 0.950 . S
H7370 C7366 0.950 . S
C7371 C7369 1.390 . S
C7371 C7372 1.387 . S
C7371 H7374 0.950 . S
C7372 C7371 1.387 . S
C7372 C7375 1.387 . S
H7373 C7369 0.950 . S
H7374 C7371 0.950 . S
C7375 C7366 1.390 . S
C7375 H7368 0.950 . S
C7375 C7372 1.387 . S
C7376 C7377 1.387 . S
C7376 H7380 0.950 . S
C7376 C7385 1.390 . S
C7377 C7376 1.387 . S
C7377 C7379 1.387 . S
H7378 C7385 0.950 . S
C7379 C7377 1.387 . S
C7379 C7381 1.390 . S
C7379 H7383 0.950 . S
H7380 C7376 0.950 . S
C7381 C7379 1.390 . S
C7381 C7382 1.387 . S
C7381 H7384 0.950 . S
C7382 C7381 1.387 . S
C7382 C7385 1.387 . S
H7383 C7379 0.950 . S
H7384 C7381 0.950 . S
C7385 C7376 1.390 . S
C7385 H7378 0.950 . S
C7385 C7382 1.387 . S
C7386 C7387 1.387 . S
C7386 H7390 0.950 . S
C7386 C7395 1.390 . S
C7387 C7386 1.387 . S
C7387 C7389 1.387 . S
H7388 C7395 0.950 . S
C7389 C7387 1.387 . S
C7389 C7391 1.390 . S
C7389 H7393 0.950 . S
H7390 C7386 0.950 . S
C7391 C7389 1.390 . S
C7391 C7392 1.387 . S
C7391 H7394 0.950 . S
C7392 C7391 1.387 . S
C7392 C7395 1.387 . S
H7393 C7389 0.950 . S
H7394 C7391 0.950 . S
C7395 C7386 1.390 . S
C7395 H7388 0.950 . S
C7395 C7392 1.387 . S
C7396 C7397 1.387 . S
C7396 H7400 0.950 . S
C7396 C7405 1.390 . S
C7397 C7396 1.387 . S
C7397 C7399 1.387 . S
H7398 C7405 0.950 . S
C7399 C7397 1.387 . S
C7399 C7401 1.390 . S
C7399 H7403 0.950 . S
H7400 C7396 0.950 . S
C7401 C7399 1.390 . S
C7401 C7402 1.387 . S
C7401 H7404 0.950 . S
C7402 C7401 1.387 . S
C7402 C7405 1.387 . S
H7403 C7399 0.950 . S
H7404 C7401 0.950 . S
C7405 C7396 1.390 . S
C7405 H7398 0.950 . S
C7405 C7402 1.387 . S
C7406 C7407 1.387 . S
C7406 H7410 0.950 . S
C7406 C7415 1.390 . S
C7407 C7406 1.387 . S
C7407 C7409 1.387 . S
H7408 C7415 0.950 . S
C7409 C7407 1.387 . S
C7409 C7411 1.390 . S
C7409 H7413 0.950 . S
H7410 C7406 0.950 . S
C7411 C7409 1.390 . S
C7411 C7412 1.387 . S
C7411 H7414 0.950 . S
C7412 C7411 1.387 . S
C7412 C7415 1.387 . S
H7413 C7409 0.950 . S
H7414 C7411 0.950 . S
C7415 C7406 1.390 . S
C7415 H7408 0.950 . S
C7415 C7412 1.387 . S
C7416 C7417 1.387 . S
C7416 H7420 0.950 . S
C7416 C7425 1.390 . S
C7417 C7416 1.387 . S
C7417 C7419 1.387 . S
H7418 C7425 0.950 . S
C7419 C7417 1.387 . S
C7419 C7421 1.390 . S
C7419 H7423 0.950 . S
H7420 C7416 0.950 . S
C7421 C7419 1.390 . S
C7421 C7422 1.387 . S
C7421 H7424 0.950 . S
C7422 C7421 1.387 . S
C7422 C7425 1.387 . S
H7423 C7419 0.950 . S
H7424 C7421 0.950 . S
C7425 C7416 1.390 . S
C7425 H7418 0.950 . S
C7425 C7422 1.387 . S
C7426 C7427 1.387 . S
C7426 H7430 0.950 . S
C7426 C7435 1.390 . S
C7427 C7426 1.387 . S
C7427 C7429 1.387 . S
H7428 C7435 0.950 . S
C7429 C7427 1.387 . S
C7429 C7431 1.390 . S
C7429 H7433 0.950 . S
H7430 C7426 0.950 . S
C7431 C7429 1.390 . S
C7431 C7432 1.387 . S
C7431 H7434 0.950 . S
C7432 C7431 1.387 . S
C7432 C7435 1.387 . S
H7433 C7429 0.950 . S
H7434 C7431 0.950 . S
C7435 C7426 1.390 . S
C7435 H7428 0.950 . S
C7435 C7432 1.387 . S
C7436 C7437 1.387 . S
C7436 H7440 0.950 . S
C7436 C7445 1.390 . S
C7437 C7436 1.387 . S
C7437 C7439 1.387 . S
H7438 C7445 0.950 . S
C7439 C7437 1.387 . S
C7439 C7441 1.390 . S
C7439 H7443 0.950 . S
H7440 C7436 0.950 . S
C7441 C7439 1.390 . S
C7441 C7442 1.387 . S
C7441 H7444 0.950 . S
C7442 C7441 1.387 . S
C7442 C7445 1.387 . S
H7443 C7439 0.950 . S
H7444 C7441 0.950 . S
C7445 C7436 1.390 . S
C7445 H7438 0.950 . S
C7445 C7442 1.387 . S
C7446 C7447 1.387 . S
C7446 H7450 0.950 . S
C7446 C7455 1.390 . S
C7447 C7446 1.387 . S
C7447 C7449 1.387 . S
H7448 C7455 0.950 . S
C7449 C7447 1.387 . S
C7449 C7451 1.390 . S
C7449 H7453 0.950 . S
H7450 C7446 0.950 . S
C7451 C7449 1.390 . S
C7451 C7452 1.387 . S
C7451 H7454 0.950 . S
C7452 C7451 1.387 . S
C7452 C7455 1.387 . S
H7453 C7449 0.950 . S
H7454 C7451 0.950 . S
C7455 C7446 1.390 . S
C7455 H7448 0.950 . S
C7455 C7452 1.387 . S
C7456 C7457 1.387 . S
C7456 H7460 0.950 . S
C7456 C7465 1.390 . S
C7457 C7456 1.387 . S
C7457 C7459 1.387 . S
H7458 C7465 0.950 . S
C7459 C7457 1.387 . S
C7459 C7461 1.390 . S
C7459 H7463 0.950 . S
H7460 C7456 0.950 . S
C7461 C7459 1.390 . S
C7461 C7462 1.387 . S
C7461 H7464 0.950 . S
C7462 C7461 1.387 . S
C7462 C7465 1.387 . S
H7463 C7459 0.950 . S
H7464 C7461 0.950 . S
C7465 C7456 1.390 . S
C7465 H7458 0.950 . S
C7465 C7462 1.387 . S
C7466 C7467 1.387 . S
C7466 H7470 0.950 . S
C7466 C7475 1.390 . S
C7467 C7466 1.387 . S
C7467 C7469 1.387 . S
H7468 C7475 0.950 . S
C7469 C7467 1.387 . S
C7469 C7471 1.390 . S
C7469 H7473 0.950 . S
H7470 C7466 0.950 . S
C7471 C7469 1.390 . S
C7471 C7472 1.387 . S
C7471 H7474 0.950 . S
C7472 C7471 1.387 . S
C7472 C7475 1.387 . S
H7473 C7469 0.950 . S
H7474 C7471 0.950 . S
C7475 C7466 1.390 . S
C7475 H7468 0.950 . S
C7475 C7472 1.387 . S
C7476 C7477 1.387 . S
C7476 H7480 0.950 . S
C7476 C7485 1.390 . S
C7477 C7476 1.387 . S
C7477 C7479 1.387 . S
H7478 C7485 0.950 . S
C7479 C7477 1.387 . S
C7479 C7481 1.390 . S
C7479 H7483 0.950 . S
H7480 C7476 0.950 . S
C7481 C7479 1.390 . S
C7481 C7482 1.387 . S
C7481 H7484 0.950 . S
C7482 C7481 1.387 . S
C7482 C7485 1.387 . S
H7483 C7479 0.950 . S
H7484 C7481 0.950 . S
C7485 C7476 1.390 . S
C7485 H7478 0.950 . S
C7485 C7482 1.387 . S
C7486 C7487 1.387 . S
C7486 H7490 0.950 . S
C7486 C7495 1.390 . S
C7487 C7486 1.387 . S
C7487 C7489 1.387 . S
H7488 C7495 0.950 . S
C7489 C7487 1.387 . S
C7489 C7491 1.390 . S
C7489 H7493 0.950 . S
H7490 C7486 0.950 . S
C7491 C7489 1.390 . S
C7491 C7492 1.387 . S
C7491 H7494 0.950 . S
C7492 C7491 1.387 . S
C7492 C7495 1.387 . S
H7493 C7489 0.950 . S
H7494 C7491 0.950 . S
C7495 C7486 1.390 . S
C7495 H7488 0.950 . S
C7495 C7492 1.387 . S
C7496 C7497 1.387 . S
C7496 H7500 0.950 . S
C7496 C7505 1.390 . S
C7497 C7496 1.387 . S
C7497 C7499 1.387 . S
H7498 C7505 0.950 . S
C7499 C7497 1.387 . S
C7499 C7501 1.390 . S
C7499 H7503 0.950 . S
H7500 C7496 0.950 . S
C7501 C7499 1.390 . S
C7501 C7502 1.387 . S
C7501 H7504 0.950 . S
C7502 C7501 1.387 . S
C7502 C7505 1.387 . S
H7503 C7499 0.950 . S
H7504 C7501 0.950 . S
C7505 C7496 1.390 . S
C7505 H7498 0.950 . S
C7505 C7502 1.387 . S
C7506 C7507 1.387 . S
C7506 H7510 0.950 . S
C7506 C7515 1.390 . S
C7507 C7506 1.387 . S
C7507 C7509 1.387 . S
H7508 C7515 0.950 . S
C7509 C7507 1.387 . S
C7509 C7511 1.390 . S
C7509 H7513 0.950 . S
H7510 C7506 0.950 . S
C7511 C7509 1.390 . S
C7511 C7512 1.387 . S
C7511 H7514 0.950 . S
C7512 C7511 1.387 . S
C7512 C7515 1.387 . S
H7513 C7509 0.950 . S
H7514 C7511 0.950 . S
C7515 C7506 1.390 . S
C7515 H7508 0.950 . S
C7515 C7512 1.387 . S
C7516 C7517 1.387 . S
C7516 H7520 0.950 . S
C7516 C7525 1.390 . S
C7517 C7516 1.387 . S
C7517 C7519 1.387 . S
H7518 C7525 0.950 . S
C7519 C7517 1.387 . S
C7519 C7521 1.390 . S
C7519 H7523 0.950 . S
H7520 C7516 0.950 . S
C7521 C7519 1.390 . S
C7521 C7522 1.387 . S
C7521 H7524 0.950 . S
C7522 C7521 1.387 . S
C7522 C7525 1.387 . S
H7523 C7519 0.950 . S
H7524 C7521 0.950 . S
C7525 C7516 1.390 . S
C7525 H7518 0.950 . S
C7525 C7522 1.387 . S
C7526 C7527 1.387 . S
C7526 H7530 0.950 . S
C7526 C7535 1.390 . S
C7527 C7526 1.387 . S
C7527 C7529 1.387 . S
H7528 C7535 0.950 . S
C7529 C7527 1.387 . S
C7529 C7531 1.390 . S
C7529 H7533 0.950 . S
H7530 C7526 0.950 . S
C7531 C7529 1.390 . S
C7531 C7532 1.387 . S
C7531 H7534 0.950 . S
C7532 C7531 1.387 . S
C7532 C7535 1.387 . S
H7533 C7529 0.950 . S
H7534 C7531 0.950 . S
C7535 C7526 1.390 . S
C7535 H7528 0.950 . S
C7535 C7532 1.387 . S
C7536 C7537 1.387 . S
C7536 H7540 0.950 . S
C7536 C7545 1.390 . S
C7537 C7536 1.387 . S
C7537 C7539 1.387 . S
H7538 C7545 0.950 . S
C7539 C7537 1.387 . S
C7539 C7541 1.390 . S
C7539 H7543 0.950 . S
H7540 C7536 0.950 . S
C7541 C7539 1.390 . S
C7541 C7542 1.387 . S
C7541 H7544 0.950 . S
C7542 C7541 1.387 . S
C7542 C7545 1.387 . S
H7543 C7539 0.950 . S
H7544 C7541 0.950 . S
C7545 C7536 1.390 . S
C7545 H7538 0.950 . S
C7545 C7542 1.387 . S
C7546 C7547 1.387 . S
C7546 H7550 0.950 . S
C7546 C7555 1.390 . S
C7547 C7546 1.387 . S
C7547 C7549 1.387 . S
H7548 C7555 0.950 . S
C7549 C7547 1.387 . S
C7549 C7551 1.390 . S
C7549 H7553 0.950 . S
H7550 C7546 0.950 . S
C7551 C7549 1.390 . S
C7551 C7552 1.387 . S
C7551 H7554 0.950 . S
C7552 C7551 1.387 . S
C7552 C7555 1.387 . S
H7553 C7549 0.950 . S
H7554 C7551 0.950 . S
C7555 C7546 1.390 . S
C7555 H7548 0.950 . S
C7555 C7552 1.387 . S
C7556 C7557 1.387 . S
C7556 H7560 0.950 . S
C7556 C7565 1.390 . S
C7557 C7556 1.387 . S
C7557 C7559 1.387 . S
H7558 C7565 0.950 . S
C7559 C7557 1.387 . S
C7559 C7561 1.390 . S
C7559 H7563 0.950 . S
H7560 C7556 0.950 . S
C7561 C7559 1.390 . S
C7561 C7562 1.387 . S
C7561 H7564 0.950 . S
C7562 C7561 1.387 . S
C7562 C7565 1.387 . S
H7563 C7559 0.950 . S
H7564 C7561 0.950 . S
C7565 C7556 1.390 . S
C7565 H7558 0.950 . S
C7565 C7562 1.387 . S
C7566 C7567 1.387 . S
C7566 H7570 0.950 . S
C7566 C7575 1.390 . S
C7567 C7566 1.387 . S
C7567 C7569 1.387 . S
H7568 C7575 0.950 . S
C7569 C7567 1.387 . S
C7569 C7571 1.390 . S
C7569 H7573 0.950 . S
H7570 C7566 0.950 . S
C7571 C7569 1.390 . S
C7571 C7572 1.387 . S
C7571 H7574 0.950 . S
C7572 C7571 1.387 . S
C7572 C7575 1.387 . S
H7573 C7569 0.950 . S
H7574 C7571 0.950 . S
C7575 C7566 1.390 . S
C7575 H7568 0.950 . S
C7575 C7572 1.387 . S
C7576 C7577 1.387 . S
C7576 H7580 0.950 . S
C7576 C7585 1.390 . S
C7577 C7576 1.387 . S
C7577 C7579 1.387 . S
H7578 C7585 0.950 . S
C7579 C7577 1.387 . S
C7579 C7581 1.390 . S
C7579 H7583 0.950 . S
H7580 C7576 0.950 . S
C7581 C7579 1.390 . S
C7581 C7582 1.387 . S
C7581 H7584 0.950 . S
C7582 C7581 1.387 . S
C7582 C7585 1.387 . S
H7583 C7579 0.950 . S
H7584 C7581 0.950 . S
C7585 C7576 1.390 . S
C7585 H7578 0.950 . S
C7585 C7582 1.387 . S
C7586 C7587 1.387 . S
C7586 H7590 0.950 . S
C7586 C7595 1.390 . S
C7587 C7586 1.387 . S
C7587 C7589 1.387 . S
H7588 C7595 0.950 . S
C7589 C7587 1.387 . S
C7589 C7591 1.390 . S
C7589 H7593 0.950 . S
H7590 C7586 0.950 . S
C7591 C7589 1.390 . S
C7591 C7592 1.387 . S
C7591 H7594 0.950 . S
C7592 C7591 1.387 . S
C7592 C7595 1.387 . S
H7593 C7589 0.950 . S
H7594 C7591 0.950 . S
C7595 C7586 1.390 . S
C7595 H7588 0.950 . S
C7595 C7592 1.387 . S
C7596 C7597 1.387 . S
C7596 H7600 0.950 . S
C7596 C7605 1.390 . S
C7597 C7596 1.387 . S
C7597 C7599 1.387 . S
H7598 C7605 0.950 . S
C7599 C7597 1.387 . S
C7599 C7601 1.390 . S
C7599 H7603 0.950 . S
H7600 C7596 0.950 . S
C7601 C7599 1.390 . S
C7601 C7602 1.387 . S
C7601 H7604 0.950 . S
C7602 C7601 1.387 . S
C7602 C7605 1.387 . S
H7603 C7599 0.950 . S
H7604 C7601 0.950 . S
C7605 C7596 1.390 . S
C7605 H7598 0.950 . S
C7605 C7602 1.387 . S
C7606 C7607 1.387 . S
C7606 H7610 0.950 . S
C7606 C7615 1.390 . S
C7607 C7606 1.387 . S
C7607 C7609 1.387 . S
H7608 C7615 0.950 . S
C7609 C7607 1.387 . S
C7609 C7611 1.390 . S
C7609 H7613 0.950 . S
H7610 C7606 0.950 . S
C7611 C7609 1.390 . S
C7611 C7612 1.387 . S
C7611 H7614 0.950 . S
C7612 C7611 1.387 . S
C7612 C7615 1.387 . S
H7613 C7609 0.950 . S
H7614 C7611 0.950 . S
C7615 C7606 1.390 . S
C7615 H7608 0.950 . S
C7615 C7612 1.387 . S
C7616 C7617 1.387 . S
C7616 H7620 0.950 . S
C7616 C7625 1.390 . S
C7617 C7616 1.387 . S
C7617 C7619 1.387 . S
H7618 C7625 0.950 . S
C7619 C7617 1.387 . S
C7619 C7621 1.390 . S
C7619 H7623 0.950 . S
H7620 C7616 0.950 . S
C7621 C7619 1.390 . S
C7621 C7622 1.387 . S
C7621 H7624 0.950 . S
C7622 C7621 1.387 . S
C7622 C7625 1.387 . S
H7623 C7619 0.950 . S
H7624 C7621 0.950 . S
C7625 C7616 1.390 . S
C7625 H7618 0.950 . S
C7625 C7622 1.387 . S
C7626 C7627 1.387 . S
C7626 H7630 0.950 . S
C7626 C7635 1.390 . S
C7627 C7626 1.387 . S
C7627 C7629 1.387 . S
H7628 C7635 0.950 . S
C7629 C7627 1.387 . S
C7629 C7631 1.390 . S
C7629 H7633 0.950 . S
H7630 C7626 0.950 . S
C7631 C7629 1.390 . S
C7631 C7632 1.387 . S
C7631 H7634 0.950 . S
C7632 C7631 1.387 . S
C7632 C7635 1.387 . S
H7633 C7629 0.950 . S
H7634 C7631 0.950 . S
C7635 C7626 1.390 . S
C7635 H7628 0.950 . S
C7635 C7632 1.387 . S
C7636 C7637 1.387 . S
C7636 H7640 0.950 . S
C7636 C7645 1.390 . S
C7637 C7636 1.387 . S
C7637 C7639 1.387 . S
H7638 C7645 0.950 . S
C7639 C7637 1.387 . S
C7639 C7641 1.390 . S
C7639 H7643 0.950 . S
H7640 C7636 0.950 . S
C7641 C7639 1.390 . S
C7641 C7642 1.387 . S
C7641 H7644 0.950 . S
C7642 C7641 1.387 . S
C7642 C7645 1.387 . S
H7643 C7639 0.950 . S
H7644 C7641 0.950 . S
C7645 C7636 1.390 . S
C7645 H7638 0.950 . S
C7645 C7642 1.387 . S
C7646 C7647 1.387 . S
C7646 H7650 0.950 . S
C7646 C7655 1.390 . S
C7647 C7646 1.387 . S
C7647 C7649 1.387 . S
H7648 C7655 0.950 . S
C7649 C7647 1.387 . S
C7649 C7651 1.390 . S
C7649 H7653 0.950 . S
H7650 C7646 0.950 . S
C7651 C7649 1.390 . S
C7651 C7652 1.387 . S
C7651 H7654 0.950 . S
C7652 C7651 1.387 . S
C7652 C7655 1.387 . S
H7653 C7649 0.950 . S
H7654 C7651 0.950 . S
C7655 C7646 1.390 . S
C7655 H7648 0.950 . S
C7655 C7652 1.387 . S
C7656 C7657 1.387 . S
C7656 H7660 0.950 . S
C7656 C7665 1.390 . S
C7657 C7656 1.387 . S
C7657 C7659 1.387 . S
H7658 C7665 0.950 . S
C7659 C7657 1.387 . S
C7659 C7661 1.390 . S
C7659 H7663 0.950 . S
H7660 C7656 0.950 . S
C7661 C7659 1.390 . S
C7661 C7662 1.387 . S
C7661 H7664 0.950 . S
C7662 C7661 1.387 . S
C7662 C7665 1.387 . S
H7663 C7659 0.950 . S
H7664 C7661 0.950 . S
C7665 C7656 1.390 . S
C7665 H7658 0.950 . S
C7665 C7662 1.387 . S
C7666 C7667 1.387 . S
C7666 H7670 0.950 . S
C7666 C7675 1.390 . S
C7667 C7666 1.387 . S
C7667 C7669 1.387 . S
H7668 C7675 0.950 . S
C7669 C7667 1.387 . S
C7669 C7671 1.390 . S
C7669 H7673 0.950 . S
H7670 C7666 0.950 . S
C7671 C7669 1.390 . S
C7671 C7672 1.387 . S
C7671 H7674 0.950 . S
C7672 C7671 1.387 . S
C7672 C7675 1.387 . S
H7673 C7669 0.950 . S
H7674 C7671 0.950 . S
C7675 C7666 1.390 . S
C7675 H7668 0.950 . S
C7675 C7672 1.387 . S
C7676 C7677 1.387 . S
C7676 H7680 0.950 . S
C7676 C7685 1.390 . S
C7677 C7676 1.387 . S
C7677 C7679 1.387 . S
H7678 C7685 0.950 . S
C7679 C7677 1.387 . S
C7679 C7681 1.390 . S
C7679 H7683 0.950 . S
H7680 C7676 0.950 . S
C7681 C7679 1.390 . S
C7681 C7682 1.387 . S
C7681 H7684 0.950 . S
C7682 C7681 1.387 . S
C7682 C7685 1.387 . S
H7683 C7679 0.950 . S
H7684 C7681 0.950 . S
C7685 C7676 1.390 . S
C7685 H7678 0.950 . S
C7685 C7682 1.387 . S
C7686 C7687 1.387 . S
C7686 H7690 0.950 . S
C7686 C7695 1.390 . S
C7687 C7686 1.387 . S
C7687 C7689 1.387 . S
H7688 C7695 0.950 . S
C7689 C7687 1.387 . S
C7689 C7691 1.390 . S
C7689 H7693 0.950 . S
H7690 C7686 0.950 . S
C7691 C7689 1.390 . S
C7691 C7692 1.387 . S
C7691 H7694 0.950 . S
C7692 C7691 1.387 . S
C7692 C7695 1.387 . S
H7693 C7689 0.950 . S
H7694 C7691 0.950 . S
C7695 C7686 1.390 . S
C7695 H7688 0.950 . S
C7695 C7692 1.387 . S
C7696 C7697 1.387 . S
C7696 H7700 0.950 . S
C7696 C7705 1.390 . S
C7697 C7696 1.387 . S
C7697 C7699 1.387 . S
H7698 C7705 0.950 . S
C7699 C7697 1.387 . S
C7699 C7701 1.390 . S
C7699 H7703 0.950 . S
H7700 C7696 0.950 . S
C7701 C7699 1.390 . S
C7701 C7702 1.387 . S
C7701 H7704 0.950 . S
C7702 C7701 1.387 . S
C7702 C7705 1.387 . S
H7703 C7699 0.950 . S
H7704 C7701 0.950 . S
C7705 C7696 1.390 . S
C7705 H7698 0.950 . S
C7705 C7702 1.387 . S
C7706 C7707 1.387 . S
C7706 H7710 0.950 . S
C7706 C7715 1.390 . S
C7707 C7706 1.387 . S
C7707 C7709 1.387 . S
H7708 C7715 0.950 . S
C7709 C7707 1.387 . S
C7709 C7711 1.390 . S
C7709 H7713 0.950 . S
H7710 C7706 0.950 . S
C7711 C7709 1.390 . S
C7711 C7712 1.387 . S
C7711 H7714 0.950 . S
C7712 C7711 1.387 . S
C7712 C7715 1.387 . S
H7713 C7709 0.950 . S
H7714 C7711 0.950 . S
C7715 C7706 1.390 . S
C7715 H7708 0.950 . S
C7715 C7712 1.387 . S
C7716 C7717 1.387 . S
C7716 H7720 0.950 . S
C7716 C7725 1.390 . S
C7717 C7716 1.387 . S
C7717 C7719 1.387 . S
H7718 C7725 0.950 . S
C7719 C7717 1.387 . S
C7719 C7721 1.390 . S
C7719 H7723 0.950 . S
H7720 C7716 0.950 . S
C7721 C7719 1.390 . S
C7721 C7722 1.387 . S
C7721 H7724 0.950 . S
C7722 C7721 1.387 . S
C7722 C7725 1.387 . S
H7723 C7719 0.950 . S
H7724 C7721 0.950 . S
C7725 C7716 1.390 . S
C7725 H7718 0.950 . S
C7725 C7722 1.387 . S
C7726 C7727 1.387 . S
C7726 H7730 0.950 . S
C7726 C7735 1.390 . S
C7727 C7726 1.387 . S
C7727 C7729 1.387 . S
H7728 C7735 0.950 . S
C7729 C7727 1.387 . S
C7729 C7731 1.390 . S
C7729 H7733 0.950 . S
H7730 C7726 0.950 . S
C7731 C7729 1.390 . S
C7731 C7732 1.387 . S
C7731 H7734 0.950 . S
C7732 C7731 1.387 . S
C7732 C7735 1.387 . S
H7733 C7729 0.950 . S
H7734 C7731 0.950 . S
C7735 C7726 1.390 . S
C7735 H7728 0.950 . S
C7735 C7732 1.387 . S
C7736 C7737 1.387 . S
C7736 H7740 0.950 . S
C7736 C7745 1.390 . S
C7737 C7736 1.387 . S
C7737 C7739 1.387 . S
H7738 C7745 0.950 . S
C7739 C7737 1.387 . S
C7739 C7741 1.390 . S
C7739 H7743 0.950 . S
H7740 C7736 0.950 . S
C7741 C7739 1.390 . S
C7741 C7742 1.387 . S
C7741 H7744 0.950 . S
C7742 C7741 1.387 . S
C7742 C7745 1.387 . S
H7743 C7739 0.950 . S
H7744 C7741 0.950 . S
C7745 C7736 1.390 . S
C7745 H7738 0.950 . S
C7745 C7742 1.387 . S
C7746 C7747 1.387 . S
C7746 H7750 0.950 . S
C7746 C7755 1.390 . S
C7747 C7746 1.387 . S
C7747 C7749 1.387 . S
H7748 C7755 0.950 . S
C7749 C7747 1.387 . S
C7749 C7751 1.390 . S
C7749 H7753 0.950 . S
H7750 C7746 0.950 . S
C7751 C7749 1.390 . S
C7751 C7752 1.387 . S
C7751 H7754 0.950 . S
C7752 C7751 1.387 . S
C7752 C7755 1.387 . S
H7753 C7749 0.950 . S
H7754 C7751 0.950 . S
C7755 C7746 1.390 . S
C7755 H7748 0.950 . S
C7755 C7752 1.387 . S
C7756 C7757 1.387 . S
C7756 H7760 0.950 . S
C7756 C7765 1.390 . S
C7757 C7756 1.387 . S
C7757 C7759 1.387 . S
H7758 C7765 0.950 . S
C7759 C7757 1.387 . S
C7759 C7761 1.390 . S
C7759 H7763 0.950 . S
H7760 C7756 0.950 . S
C7761 C7759 1.390 . S
C7761 C7762 1.387 . S
C7761 H7764 0.950 . S
C7762 C7761 1.387 . S
C7762 C7765 1.387 . S
H7763 C7759 0.950 . S
H7764 C7761 0.950 . S
C7765 C7756 1.390 . S
C7765 H7758 0.950 . S
C7765 C7762 1.387 . S
C7766 C7767 1.387 . S
C7766 H7770 0.950 . S
C7766 C7775 1.390 . S
C7767 C7766 1.387 . S
C7767 C7769 1.387 . S
H7768 C7775 0.950 . S
C7769 C7767 1.387 . S
C7769 C7771 1.390 . S
C7769 H7773 0.950 . S
H7770 C7766 0.950 . S
C7771 C7769 1.390 . S
C7771 C7772 1.387 . S
C7771 H7774 0.950 . S
C7772 C7771 1.387 . S
C7772 C7775 1.387 . S
H7773 C7769 0.950 . S
H7774 C7771 0.950 . S
C7775 C7766 1.390 . S
C7775 H7768 0.950 . S
C7775 C7772 1.387 . S
C4902 C4125 1.549 . S
C4897 C15 1.567 . S
C4912 C4664 1.547 . S
C4907 C55 1.565 . S
C4922 C4147 1.549 . S
C4917 C95 1.565 . S
C4932 C4642 1.549 . S
C4927 C135 1.566 . S
C4942 C4191 1.549 . S
C4937 C175 1.566 . S
C4947 C215 1.566 . S
C4952 C4686 1.549 . S
C4962 C4169 1.547 . S
C4957 C255 1.565 . S
C4972 C4708 1.550 . S
C4967 C295 1.566 . S
C4982 C4884 1.549 . S
C4977 C335 1.565 . S
C4987 C375 1.565 . S
C4992 C4818 1.548 . S
C5002 C4895 1.548 . S
C4997 C415 1.566 . S
C5007 C455 1.567 . S
C5012 C4873 1.549 . S
C5022 C4840 1.549 . S
C5017 C495 1.566 . S
C5032 C4323 1.549 . S
C5027 C535 1.567 . S
C5042 C4334 1.548 . S
C5037 C575 1.566 . S
C5047 C615 1.567 . S
C5052 C4301 1.549 . S
C5057 C655 1.565 . S
C5062 C4785 1.548 . S
C5072 C4235 1.549 . S
C5067 C695 1.567 . S
C5082 C4730 1.549 . S
C5077 C735 1.565 . S
C5092 C4213 1.549 . S
C5087 C775 1.567 . S
C5097 C815 1.565 . S
C5102 C4224 1.549 . S
C5112 C4807 1.549 . S
C5107 C855 1.566 . S
C5122 C4774 1.547 . S
C5117 C895 1.565 . S
C5127 C935 1.566 . S
C5132 C4796 1.550 . S
C5137 C975 1.571 . S
C5142 C3861 1.554 . S
C5147 C1015 1.571 . S
C5152 C4400 1.554 . S
C5162 C3883 1.553 . S
C5157 C1055 1.570 . S
C5167 C1095 1.570 . S
C5172 C4378 1.552 . S
C5182 C3927 1.553 . S
C5177 C1135 1.570 . S
C5187 C1175 1.571 . S
C5192 C4422 1.554 . S
C5202 C3905 1.553 . S
C5197 C1215 1.570 . S
C5212 C4444 1.554 . S
C5207 C1255 1.571 . S
C5217 C1295 1.570 . S
C5222 C4620 1.554 . S
C5232 C4554 1.553 . S
C5227 C1335 1.569 . S
C5237 C1375 1.570 . S
C5242 C4631 1.554 . S
C5252 C4609 1.553 . S
C5247 C1415 1.570 . S
C5262 C4576 1.554 . S
C5257 C1455 1.571 . S
C5267 C1495 1.571 . S
C5272 C4059 1.554 . S
C5277 C1535 1.571 . S
C5282 C4070 1.553 . S
C5292 C4037 1.554 . S
C5287 C1575 1.571 . S
C5297 C1615 1.571 . S
C5302 C4521 1.554 . S
C5312 C3971 1.554 . S
C5307 C1655 1.570 . S
C5317 C1695 1.571 . S
C5322 C4466 1.553 . S
C5332 C3949 1.552 . S
C5327 C1735 1.570 . S
C5337 C1775 1.570 . S
C5342 C3960 1.552 . S
C5352 C4543 1.552 . S
C5347 C1815 1.570 . S
C5362 C4510 1.554 . S
C5357 C1855 1.570 . S
C5372 C4532 1.554 . S
C5367 C1895 1.571 . S
C5377 C1935 1.567 . S
C5382 C4653 1.549 . S
C5392 C4136 1.549 . S
C5387 C1975 1.566 . S
C5402 C4675 1.549 . S
C5397 C2015 1.567 . S
C5412 C4114 1.549 . S
C5407 C2055 1.566 . S
C5417 C2095 1.566 . S
C5422 C4719 1.549 . S
C5432 C4158 1.549 . S
C5427 C2135 1.567 . S
C5442 C4697 1.549 . S
C5437 C2175 1.567 . S
C5452 C4180 1.549 . S
C5447 C2215 1.567 . S
C5457 C2255 1.567 . S
C5462 C4356 1.549 . S
C5472 C4290 1.549 . S
C5467 C2295 1.565 . S
C5482 C4367 1.549 . S
C5477 C2335 1.565 . S
C5487 C2375 1.565 . S
C5492 C4345 1.548 . S
C5497 C2415 1.567 . S
C5502 C4312 1.549 . S
C5507 C2455 1.567 . S
C5512 C4851 1.549 . S
C5517 C2495 1.565 . S
C5522 C4862 1.547 . S
C5532 C4829 1.548 . S
C5527 C2535 1.567 . S
C5537 C2575 1.567 . S
C5542 C4257 1.549 . S
C5552 C4763 1.547 . S
C5547 C2615 1.565 . S
C5562 C4202 1.547 . S
C5557 C2655 1.566 . S
C5572 C4741 1.549 . S
C5567 C2695 1.566 . S
C5577 C2735 1.565 . S
C5582 C4752 1.548 . S
C5587 C2775 1.566 . S
C5592 C4279 1.549 . S
C5602 C4246 1.549 . S
C5597 C2815 1.565 . S
C5607 C2855 1.566 . S
C5612 C4268 1.548 . S
C5617 C2895 1.571 . S
C5622 C4389 1.554 . S
C5632 C3872 1.554 . S
C5627 C2935 1.571 . S
C5642 C4411 1.552 . S
C5637 C2975 1.570 . S
C5647 C3015 1.570 . S
C5652 C3850 1.552 . S
C5662 C4455 1.554 . S
C5657 C3055 1.571 . S
C5672 C3894 1.554 . S
C5667 C3095 1.570 . S
C5677 C3135 1.571 . S
C5682 C4433 1.554 . S
C5687 C3175 1.571 . S
C5692 C3916 1.553 . S
C5702 C4092 1.553 . S
C5697 C3215 1.571 . S
C5707 C3255 1.571 . S
C5712 C4026 1.554 . S
C5722 C4103 1.553 . S
C5717 C3295 1.571 . S
C5732 C4081 1.554 . S
C5727 C3335 1.571 . S
C5737 C3375 1.570 . S
C5742 C4048 1.554 . S
C5747 C3415 1.570 . S
C5752 C4587 1.553 . S
C5762 C4598 1.552 . S
C5757 C3455 1.570 . S
C5767 C3495 1.570 . S
C5772 C4565 1.552 . S
C5782 C3993 1.554 . S
C5777 C3535 1.571 . S
C5792 C4499 1.553 . S
C5787 C3575 1.570 . S
C5797 C3615 1.570 . S
C5802 C3938 1.552 . S
C5807 C3655 1.570 . S
C5812 C4477 1.552 . S
C5817 C3695 1.570 . S
C5822 C4488 1.552 . S
C5827 C3735 1.570 . S
C5832 C4015 1.552 . S
C5837 C3775 1.571 . S
C5842 C3982 1.553 . S
C5852 C4004 1.553 . S
C5847 C3815 1.571 . S
C5862 C3943 1.607 . S
C5857 C2 1.576 . S
C5872 C3954 1.609 . S
C5867 C42 1.576 . S
C5877 C82 1.576 . S
C5882 C3965 1.607 . S
C5887 C122 1.574 . S
C5892 C3932 1.606 . S
C5897 C162 1.576 . S
C5902 C4009 1.607 . S
C5912 C3976 1.610 . S
C5907 C202 1.576 . S
C5922 C3987 1.607 . S
C5917 C242 1.575 . S
C5927 C282 1.577 . S
C5932 C3998 1.610 . S
C5937 C322 1.575 . S
C5942 C3877 1.609 . S
C5947 C362 1.577 . S
C5952 C3844 1.609 . S
C5957 C402 1.576 . S
C5962 C3855 1.609 . S
C5972 C3866 1.607 . S
C5967 C442 1.575 . S
C5977 C482 1.577 . S
C5982 C3899 1.608 . S
C5987 C522 1.575 . S
C5992 C3910 1.607 . S
C5997 C562 1.574 . S
C6002 C3921 1.606 . S
C6007 C602 1.576 . S
C6012 C3888 1.607 . S
C6022 C4042 1.608 . S
C6017 C642 1.577 . S
C6027 C682 1.576 . S
C6032 C4614 1.607 . S
C6042 C4020 1.608 . S
C6037 C722 1.574 . S
C6052 C4625 1.607 . S
C6047 C762 1.575 . S
C6057 C802 1.574 . S
C6062 C4603 1.607 . S
C6067 C842 1.574 . S
C6072 C4592 1.606 . S
C6082 C4559 1.608 . S
C6077 C882 1.576 . S
C6092 C4581 1.609 . S
C6087 C922 1.577 . S
C6102 C4207 1.634 . S
C6097 C962 1.667 . S
C6112 C4218 1.632 . S
C6107 C1002 1.667 . S
C6122 C4229 1.632 . S
C6117 C1042 1.667 . S
C6127 C1082 1.667 . S
C6132 C4196 1.634 . S
C6137 C1122 1.667 . S
C6142 C4273 1.634 . S
C6152 C4240 1.633 . S
C6147 C1162 1.668 . S
C6157 C1202 1.667 . S
C6162 C4251 1.632 . S
C6172 C4262 1.634 . S
C6167 C1242 1.668 . S
C6177 C1282 1.668 . S
C6182 C4141 1.634 . S
C6192 C4108 1.634 . S
C6187 C1322 1.667 . S
C6197 C1362 1.667 . S
C6202 C4119 1.634 . S
C6212 C4130 1.632 . S
C6207 C1402 1.667 . S
C6222 C4163 1.632 . S
C6217 C1442 1.667 . S
C6227 C1482 1.668 . S
C6232 C4174 1.633 . S
C6242 C4185 1.632 . S
C6237 C1522 1.667 . S
C6252 C4152 1.634 . S
C6247 C1562 1.667 . S
C6262 C4306 1.634 . S
C6257 C1602 1.668 . S
C6272 C4878 1.634 . S
C6267 C1642 1.668 . S
C6282 C4284 1.633 . S
C6277 C1682 1.667 . S
C6287 C1722 1.668 . S
C6292 C4889 1.634 . S
C6297 C1762 1.668 . S
C6302 C4867 1.632 . S
C6312 C4856 1.632 . S
C6307 C1802 1.667 . S
C6322 C4823 1.632 . S
C6317 C1842 1.667 . S
C6332 C4845 1.633 . S
C6327 C1882 1.667 . S
C6337 C1922 1.576 . S
C6342 C4471 1.609 . S
C6352 C4482 1.609 . S
C6347 C1962 1.577 . S
C6357 C2002 1.576 . S
C6362 C4493 1.609 . S
C6372 C4460 1.607 . S
C6367 C2042 1.575 . S
C6377 C2082 1.575 . S
C6382 C4537 1.607 . S
C6387 C2122 1.577 . S
C6392 C4504 1.610 . S
C6397 C2162 1.575 . S
C6402 C4515 1.607 . S
C6407 C2202 1.576 . S
C6412 C4526 1.610 . S
C6417 C2242 1.575 . S
C6422 C4405 1.608 . S
C6432 C4372 1.609 . S
C6427 C2282 1.575 . S
C6442 C4383 1.608 . S
C6437 C2322 1.574 . S
C6447 C2362 1.577 . S
C6452 C4394 1.609 . S
C6457 C2402 1.576 . S
C6462 C4427 1.609 . S
C6467 C2442 1.576 . S
C6472 C4438 1.609 . S
C6477 C2482 1.574 . S
C6482 C4449 1.607 . S
C6487 C2522 1.576 . S
C6492 C4416 1.610 . S
C6502 C4570 1.607 . S
C6497 C2562 1.575 . S
C6512 C4086 1.610 . S
C6507 C2602 1.577 . S
C6522 C4548 1.606 . S
C6517 C2642 1.574 . S
C6532 C4097 1.607 . S
C6527 C2682 1.575 . S
C6542 C4075 1.610 . S
C6537 C2722 1.577 . S
C6552 C4064 1.607 . S
C6547 C2762 1.575 . S
C6557 C2802 1.576 . S
C6562 C4031 1.609 . S
C6572 C4053 1.607 . S
C6567 C2842 1.575 . S
C6577 C2882 1.667 . S
C6582 C4735 1.634 . S
C6587 C2922 1.668 . S
C6592 C4746 1.634 . S
C6602 C4757 1.632 . S
C6597 C2962 1.668 . S
C6607 C3002 1.667 . S
C6612 C4724 1.634 . S
C6622 C4801 1.633 . S
C6617 C3042 1.667 . S
C6627 C3082 1.667 . S
C6632 C4768 1.632 . S
C6637 C3122 1.667 . S
C6642 C4779 1.632 . S
C6652 C4790 1.634 . S
C6647 C3162 1.668 . S
C6662 C4669 1.633 . S
C6657 C3202 1.667 . S
C6672 C4636 1.632 . S
C6667 C3242 1.667 . S
C6682 C4647 1.632 . S
C6677 C3282 1.668 . S
C6692 C4658 1.634 . S
C6687 C3322 1.667 . S
C6697 C3362 1.668 . S
C6702 C4691 1.634 . S
C6712 C4702 1.634 . S
C6707 C3402 1.667 . S
C6717 C3442 1.667 . S
C6722 C4713 1.634 . S
C6727 C3482 1.667 . S
C6732 C4680 1.634 . S
C6737 C3522 1.667 . S
C6742 C4834 1.632 . S
C6747 C3562 1.668 . S
C6752 C4350 1.634 . S
C6757 C3602 1.667 . S
C6762 C4812 1.633 . S
C6772 C4361 1.634 . S
C6767 C3642 1.668 . S
C6777 C3682 1.668 . S
C6782 C4339 1.634 . S
C6787 C3722 1.667 . S
C6792 C4328 1.634 . S
C6797 C3762 1.668 . S
C6802 C4295 1.632 . S
C6812 C4317 1.633 . S
C6807 C3802 1.667 . S
C6817 C21 1.642 . S
C6822 C3845 1.684 . S
C6827 C61 1.639 . S
C6832 C3856 1.683 . S
C6837 C101 1.640 . S
C6842 C3867 1.686 . S
C6852 C3878 1.686 . S
C6847 C141 1.643 . S
C6862 C3889 1.683 . S
C6857 C181 1.641 . S
C6867 C221 1.643 . S
C6872 C3900 1.685 . S
C6877 C261 1.643 . S
C6882 C3911 1.685 . S
C6887 C301 1.639 . S
C6892 C3922 1.684 . S
C6902 C3933 1.683 . S
C6897 C341 1.640 . S
C6912 C3944 1.683 . S
C6907 C381 1.641 . S
C6917 C421 1.641 . S
C6922 C3955 1.686 . S
C6932 C3966 1.684 . S
C6927 C461 1.642 . S
C6937 C501 1.641 . S
C6942 C3977 1.683 . S
C6947 C541 1.640 . S
C6952 C3988 1.686 . S
C6957 C581 1.641 . S
C6962 C3999 1.683 . S
C6967 C621 1.641 . S
C6972 C4010 1.686 . S
C6977 C661 1.643 . S
C6982 C4021 1.686 . S
C6987 C701 1.641 . S
C6992 C4032 1.686 . S
C7002 C4043 1.686 . S
C6997 C741 1.641 . S
C7012 C4054 1.686 . S
C7007 C781 1.642 . S
C7022 C4065 1.686 . S
C7017 C821 1.641 . S
C7032 C4076 1.684 . S
C7027 C861 1.639 . S
C7037 C901 1.643 . S
C7042 C4087 1.685 . S
C7052 C4098 1.686 . S
C7047 C941 1.642 . S
C7057 C981 1.744 . S
C7062 C4109 1.702 . S
C7067 C1021 1.745 . S
C7072 C4120 1.701 . S
C7077 C1061 1.744 . S
C7082 C4131 1.699 . S
C7092 C4142 1.699 . S
C7087 C1101 1.745 . S
C7097 C1141 1.744 . S
C7102 C4153 1.699 . S
C7112 C4164 1.700 . S
C7107 C1181 1.745 . S
C7117 C1221 1.744 . S
C7122 C4175 1.699 . S
C7127 C1261 1.745 . S
C7132 C4186 1.701 . S
C7142 C4197 1.699 . S
C7137 C1301 1.744 . S
C7147 C1341 1.744 . S
C7152 C4208 1.699 . S
C7162 C4219 1.701 . S
C7157 C1381 1.744 . S
C7167 C1421 1.744 . S
C7172 C4230 1.701 . S
C7182 C4241 1.702 . S
C7177 C1461 1.744 . S
C7192 C4252 1.699 . S
C7187 C1501 1.744 . S
C7202 C4263 1.701 . S
C7197 C1541 1.744 . S
C7207 C1581 1.745 . S
C7212 C4274 1.699 . S
C7217 C1621 1.744 . S
C7222 C4285 1.699 . S
C7227 C1661 1.744 . S
C7232 C4296 1.699 . S
C7237 C1701 1.744 . S
C7242 C4307 1.699 . S
C7247 C1741 1.744 . S
C7252 C4318 1.699 . S
C7257 C1781 1.744 . S
C7262 C4329 1.699 . S
C7272 C4340 1.701 . S
C7267 C1821 1.745 . S
C7277 C1861 1.744 . S
C7282 C4351 1.699 . S
C7292 C4362 1.702 . S
C7287 C1901 1.744 . S
C7297 C1941 1.642 . S
C7302 C4373 1.684 . S
C7312 C4384 1.685 . S
C7307 C1981 1.643 . S
C7322 C4395 1.686 . S
C7317 C2021 1.640 . S
C7332 C4406 1.683 . S
C7327 C2061 1.640 . S
C7337 C2101 1.643 . S
C7342 C4417 1.685 . S
C7347 C2141 1.640 . S
C7352 C4428 1.683 . S
C7362 C4439 1.686 . S
C7357 C2181 1.641 . S
C7372 C4450 1.686 . S
C7367 C2221 1.643 . S
C7377 C2261 1.641 . S
C7382 C4461 1.683 . S
C7387 C2301 1.641 . S
C7392 C4472 1.686 . S
C7397 C2341 1.642 . S
C7402 C4483 1.686 . S
C7407 C2381 1.640 . S
C7412 C4494 1.683 . S
C7417 C2421 1.641 . S
C7422 C4505 1.683 . S
C7432 C4516 1.686 . S
C7427 C2461 1.640 . S
C7442 C4527 1.683 . S
C7437 C2501 1.640 . S
C7452 C4538 1.686 . S
C7447 C2541 1.641 . S
C7462 C4549 1.686 . S
C7457 C2581 1.643 . S
C7467 C2621 1.639 . S
C7472 C4560 1.684 . S
C7477 C2661 1.640 . S
C7482 C4571 1.683 . S
C7492 C4582 1.686 . S
C7487 C2701 1.640 . S
C7497 C2741 1.639 . S
C7502 C4593 1.684 . S
C7512 C4604 1.684 . S
C7507 C2781 1.639 . S
C7522 C4615 1.684 . S
C7517 C2821 1.639 . S
C7532 C4626 1.686 . S
C7527 C2861 1.641 . S
C7537 C2901 1.745 . S
C7542 C4637 1.699 . S
C7547 C2941 1.744 . S
C7552 C4648 1.699 . S
C7557 C2981 1.744 . S
C7562 C4659 1.701 . S
C7567 C3021 1.744 . S
C7572 C4670 1.699 . S
C7582 C4681 1.699 . S
C7577 C3061 1.744 . S
C7592 C4692 1.702 . S
C7587 C3101 1.745 . S
C7602 C4703 1.699 . S
C7597 C3141 1.744 . S
C7607 C3181 1.745 . S
C7612 C4714 1.701 . S
C7617 C3221 1.744 . S
C7622 C4725 1.702 . S
C7632 C4736 1.699 . S
C7627 C3261 1.744 . S
C7642 C4747 1.702 . S
C7637 C3301 1.744 . S
C7652 C4758 1.700 . S
C7647 C3341 1.743 . S
C7662 C4769 1.700 . S
C7657 C3381 1.745 . S
C7672 C4780 1.701 . S
C7667 C3421 1.744 . S
C7682 C4791 1.701 . S
C7677 C3461 1.744 . S
C7692 C4802 1.700 . S
C7687 C3501 1.745 . S
C7702 C4813 1.701 . S
C7697 C3541 1.745 . S
C7712 C4824 1.699 . S
C7707 C3581 1.744 . S
C7722 C4835 1.701 . S
C7717 C3621 1.744 . S
C7727 C3661 1.744 . S
C7732 C4846 1.699 . S
C7742 C4857 1.702 . S
C7737 C3701 1.744 . S
C7747 C3741 1.744 . S
C7752 C4868 1.699 . S
C7762 C4879 1.701 . S
C7757 C3781 1.744 . S
C7772 C4890 1.702 . S
C7767 C3821 1.744 . S
