# Generated by pormake.
# Topology bpr, (3,3)-cn, num edge types: 1
# Building blocks:
#     Node 0, Type 0, BuildingBlock: WUSLED_clean_sbu_0, # of connection points: 3
#     Node 1, Type 0, BuildingBlock: WUSLED_clean_sbu_0, # of connection points: 3
#     Node 2, Type 0, BuildingBlock: WUSLED_clean_sbu_0, # of connection points: 3
#     Node 3, Type 0, BuildingBlock: WUSLED_clean_sbu_0, # of connection points: 3
#     Node 4, Type 0, BuildingBlock: WUSLED_clean_sbu_0, # of connection points: 3
#     Node 5, Type 0, BuildingBlock: WUSLED_clean_sbu_0, # of connection points: 3
#     Node 6, Type 0, BuildingBlock: WUSLED_clean_sbu_0, # of connection points: 3
#     Node 7, Type 0, BuildingBlock: WUSLED_clean_sbu_0, # of connection points: 3
#     Node 8, Type 0, BuildingBlock: WUSLED_clean_sbu_0, # of connection points: 3
#     Node 9, Type 0, BuildingBlock: WUSLED_clean_sbu_0, # of connection points: 3
#     Node 10, Type 0, BuildingBlock: WUSLED_clean_sbu_0, # of connection points: 3
#     Node 11, Type 0, BuildingBlock: WUSLED_clean_sbu_0, # of connection points: 3
#     Node 12, Type 0, BuildingBlock: WUSLED_clean_sbu_0, # of connection points: 3
#     Node 13, Type 0, BuildingBlock: WUSLED_clean_sbu_0, # of connection points: 3
#     Node 14, Type 0, BuildingBlock: WUSLED_clean_sbu_0, # of connection points: 3
#     Node 15, Type 0, BuildingBlock: WUSLED_clean_sbu_0, # of connection points: 3
#     Node 16, Type 0, BuildingBlock: WUSLED_clean_sbu_0, # of connection points: 3
#     Node 17, Type 0, BuildingBlock: WUSLED_clean_sbu_0, # of connection points: 3
#     Node 18, Type 0, BuildingBlock: WUSLED_clean_sbu_0, # of connection points: 3
#     Node 19, Type 0, BuildingBlock: WUSLED_clean_sbu_0, # of connection points: 3
#     Node 20, Type 0, BuildingBlock: WUSLED_clean_sbu_0, # of connection points: 3
#     Node 21, Type 0, BuildingBlock: WUSLED_clean_sbu_0, # of connection points: 3
#     Node 22, Type 0, BuildingBlock: WUSLED_clean_sbu_0, # of connection points: 3
#     Node 23, Type 0, BuildingBlock: WUSLED_clean_sbu_0, # of connection points: 3
#     Node 24, Type 0, BuildingBlock: WUSLED_clean_sbu_0, # of connection points: 3
#     Node 25, Type 0, BuildingBlock: WUSLED_clean_sbu_0, # of connection points: 3
#     Node 26, Type 0, BuildingBlock: WUSLED_clean_sbu_0, # of connection points: 3
#     Node 27, Type 0, BuildingBlock: WUSLED_clean_sbu_0, # of connection points: 3
#     Node 28, Type 0, BuildingBlock: WUSLED_clean_sbu_0, # of connection points: 3
#     Node 29, Type 0, BuildingBlock: WUSLED_clean_sbu_0, # of connection points: 3
#     Node 30, Type 0, BuildingBlock: WUSLED_clean_sbu_0, # of connection points: 3
#     Node 31, Type 0, BuildingBlock: WUSLED_clean_sbu_0, # of connection points: 3
#     Node 32, Type 0, BuildingBlock: WUSLED_clean_sbu_0, # of connection points: 3
#     Node 33, Type 0, BuildingBlock: WUSLED_clean_sbu_0, # of connection points: 3
#     Node 34, Type 0, BuildingBlock: WUSLED_clean_sbu_0, # of connection points: 3
#     Node 35, Type 0, BuildingBlock: WUSLED_clean_sbu_0, # of connection points: 3
#     Node 36, Type 0, BuildingBlock: WUSLED_clean_sbu_0, # of connection points: 3
#     Node 37, Type 0, BuildingBlock: WUSLED_clean_sbu_0, # of connection points: 3
#     Node 38, Type 0, BuildingBlock: WUSLED_clean_sbu_0, # of connection points: 3
#     Node 39, Type 0, BuildingBlock: WUSLED_clean_sbu_0, # of connection points: 3
#     Node 40, Type 0, BuildingBlock: WUSLED_clean_sbu_0, # of connection points: 3
#     Node 41, Type 0, BuildingBlock: WUSLED_clean_sbu_0, # of connection points: 3
#     Node 42, Type 0, BuildingBlock: WUSLED_clean_sbu_0, # of connection points: 3
#     Node 43, Type 0, BuildingBlock: WUSLED_clean_sbu_0, # of connection points: 3
#     Node 44, Type 0, BuildingBlock: WUSLED_clean_sbu_0, # of connection points: 3
#     Node 45, Type 0, BuildingBlock: WUSLED_clean_sbu_0, # of connection points: 3
#     Node 46, Type 0, BuildingBlock: WUSLED_clean_sbu_0, # of connection points: 3
#     Node 47, Type 0, BuildingBlock: WUSLED_clean_sbu_0, # of connection points: 3
#     Node 48, Type 1, BuildingBlock: ESEHIV_clean_linker_0, # of connection points: 3
#     Node 49, Type 1, BuildingBlock: ESEHIV_clean_linker_0, # of connection points: 3
#     Node 50, Type 1, BuildingBlock: ESEHIV_clean_linker_0, # of connection points: 3
#     Node 51, Type 1, BuildingBlock: ESEHIV_clean_linker_0, # of connection points: 3
#     Node 52, Type 1, BuildingBlock: ESEHIV_clean_linker_0, # of connection points: 3
#     Node 53, Type 1, BuildingBlock: ESEHIV_clean_linker_0, # of connection points: 3
#     Node 54, Type 1, BuildingBlock: ESEHIV_clean_linker_0, # of connection points: 3
#     Node 55, Type 1, BuildingBlock: ESEHIV_clean_linker_0, # of connection points: 3
#     Node 56, Type 1, BuildingBlock: ESEHIV_clean_linker_0, # of connection points: 3
#     Node 57, Type 1, BuildingBlock: ESEHIV_clean_linker_0, # of connection points: 3
#     Node 58, Type 1, BuildingBlock: ESEHIV_clean_linker_0, # of connection points: 3
#     Node 59, Type 1, BuildingBlock: ESEHIV_clean_linker_0, # of connection points: 3
#     Node 60, Type 1, BuildingBlock: ESEHIV_clean_linker_0, # of connection points: 3
#     Node 61, Type 1, BuildingBlock: ESEHIV_clean_linker_0, # of connection points: 3
#     Node 62, Type 1, BuildingBlock: ESEHIV_clean_linker_0, # of connection points: 3
#     Node 63, Type 1, BuildingBlock: ESEHIV_clean_linker_0, # of connection points: 3
#     Node 64, Type 1, BuildingBlock: ESEHIV_clean_linker_0, # of connection points: 3
#     Node 65, Type 1, BuildingBlock: ESEHIV_clean_linker_0, # of connection points: 3
#     Node 66, Type 1, BuildingBlock: ESEHIV_clean_linker_0, # of connection points: 3
#     Node 67, Type 1, BuildingBlock: ESEHIV_clean_linker_0, # of connection points: 3
#     Node 68, Type 1, BuildingBlock: ESEHIV_clean_linker_0, # of connection points: 3
#     Node 69, Type 1, BuildingBlock: ESEHIV_clean_linker_0, # of connection points: 3
#     Node 70, Type 1, BuildingBlock: ESEHIV_clean_linker_0, # of connection points: 3
#     Node 71, Type 1, BuildingBlock: ESEHIV_clean_linker_0, # of connection points: 3
#     Node 72, Type 1, BuildingBlock: ESEHIV_clean_linker_0, # of connection points: 3
#     Node 73, Type 1, BuildingBlock: ESEHIV_clean_linker_0, # of connection points: 3
#     Node 74, Type 1, BuildingBlock: ESEHIV_clean_linker_0, # of connection points: 3
#     Node 75, Type 1, BuildingBlock: ESEHIV_clean_linker_0, # of connection points: 3
#     Node 76, Type 1, BuildingBlock: ESEHIV_clean_linker_0, # of connection points: 3
#     Node 77, Type 1, BuildingBlock: ESEHIV_clean_linker_0, # of connection points: 3
#     Node 78, Type 1, BuildingBlock: ESEHIV_clean_linker_0, # of connection points: 3
#     Node 79, Type 1, BuildingBlock: ESEHIV_clean_linker_0, # of connection points: 3
#     Node 80, Type 1, BuildingBlock: ESEHIV_clean_linker_0, # of connection points: 3
#     Node 81, Type 1, BuildingBlock: ESEHIV_clean_linker_0, # of connection points: 3
#     Node 82, Type 1, BuildingBlock: ESEHIV_clean_linker_0, # of connection points: 3
#     Node 83, Type 1, BuildingBlock: ESEHIV_clean_linker_0, # of connection points: 3
#     Node 84, Type 1, BuildingBlock: ESEHIV_clean_linker_0, # of connection points: 3
#     Node 85, Type 1, BuildingBlock: ESEHIV_clean_linker_0, # of connection points: 3
#     Node 86, Type 1, BuildingBlock: ESEHIV_clean_linker_0, # of connection points: 3
#     Node 87, Type 1, BuildingBlock: ESEHIV_clean_linker_0, # of connection points: 3
#     Node 88, Type 1, BuildingBlock: ESEHIV_clean_linker_0, # of connection points: 3
#     Node 89, Type 1, BuildingBlock: ESEHIV_clean_linker_0, # of connection points: 3
#     Node 90, Type 1, BuildingBlock: ESEHIV_clean_linker_0, # of connection points: 3
#     Node 91, Type 1, BuildingBlock: ESEHIV_clean_linker_0, # of connection points: 3
#     Node 92, Type 1, BuildingBlock: ESEHIV_clean_linker_0, # of connection points: 3
#     Node 93, Type 1, BuildingBlock: ESEHIV_clean_linker_0, # of connection points: 3
#     Node 94, Type 1, BuildingBlock: ESEHIV_clean_linker_0, # of connection points: 3
#     Node 95, Type 1, BuildingBlock: ESEHIV_clean_linker_0, # of connection points: 3
#     Edge 96, Type (0, 1), BuildingBlock: EZIPEK_clean_linker_0, # of connection points: 2
#     Edge 97, Type (0, 1), BuildingBlock: EZIPEK_clean_linker_0, # of connection points: 2
#     Edge 98, Type (0, 1), BuildingBlock: EZIPEK_clean_linker_0, # of connection points: 2
#     Edge 99, Type (0, 1), BuildingBlock: EZIPEK_clean_linker_0, # of connection points: 2
#     Edge 100, Type (0, 1), BuildingBlock: EZIPEK_clean_linker_0, # of connection points: 2
#     Edge 101, Type (0, 1), BuildingBlock: EZIPEK_clean_linker_0, # of connection points: 2
#     Edge 102, Type (0, 1), BuildingBlock: EZIPEK_clean_linker_0, # of connection points: 2
#     Edge 103, Type (0, 1), BuildingBlock: EZIPEK_clean_linker_0, # of connection points: 2
#     Edge 104, Type (0, 1), BuildingBlock: EZIPEK_clean_linker_0, # of connection points: 2
#     Edge 105, Type (0, 1), BuildingBlock: EZIPEK_clean_linker_0, # of connection points: 2
#     Edge 106, Type (0, 1), BuildingBlock: EZIPEK_clean_linker_0, # of connection points: 2
#     Edge 107, Type (0, 1), BuildingBlock: EZIPEK_clean_linker_0, # of connection points: 2
#     Edge 108, Type (0, 1), BuildingBlock: EZIPEK_clean_linker_0, # of connection points: 2
#     Edge 109, Type (0, 1), BuildingBlock: EZIPEK_clean_linker_0, # of connection points: 2
#     Edge 110, Type (0, 1), BuildingBlock: EZIPEK_clean_linker_0, # of connection points: 2
#     Edge 111, Type (0, 1), BuildingBlock: EZIPEK_clean_linker_0, # of connection points: 2
#     Edge 112, Type (0, 1), BuildingBlock: EZIPEK_clean_linker_0, # of connection points: 2
#     Edge 113, Type (0, 1), BuildingBlock: EZIPEK_clean_linker_0, # of connection points: 2
#     Edge 114, Type (0, 1), BuildingBlock: EZIPEK_clean_linker_0, # of connection points: 2
#     Edge 115, Type (0, 1), BuildingBlock: EZIPEK_clean_linker_0, # of connection points: 2
#     Edge 116, Type (0, 1), BuildingBlock: EZIPEK_clean_linker_0, # of connection points: 2
#     Edge 117, Type (0, 1), BuildingBlock: EZIPEK_clean_linker_0, # of connection points: 2
#     Edge 118, Type (0, 1), BuildingBlock: EZIPEK_clean_linker_0, # of connection points: 2
#     Edge 119, Type (0, 1), BuildingBlock: EZIPEK_clean_linker_0, # of connection points: 2
#     Edge 120, Type (0, 1), BuildingBlock: EZIPEK_clean_linker_0, # of connection points: 2
#     Edge 121, Type (0, 1), BuildingBlock: EZIPEK_clean_linker_0, # of connection points: 2
#     Edge 122, Type (0, 1), BuildingBlock: EZIPEK_clean_linker_0, # of connection points: 2
#     Edge 123, Type (0, 1), BuildingBlock: EZIPEK_clean_linker_0, # of connection points: 2
#     Edge 124, Type (0, 1), BuildingBlock: EZIPEK_clean_linker_0, # of connection points: 2
#     Edge 125, Type (0, 1), BuildingBlock: EZIPEK_clean_linker_0, # of connection points: 2
#     Edge 126, Type (0, 1), BuildingBlock: EZIPEK_clean_linker_0, # of connection points: 2
#     Edge 127, Type (0, 1), BuildingBlock: EZIPEK_clean_linker_0, # of connection points: 2
#     Edge 128, Type (0, 1), BuildingBlock: EZIPEK_clean_linker_0, # of connection points: 2
#     Edge 129, Type (0, 1), BuildingBlock: EZIPEK_clean_linker_0, # of connection points: 2
#     Edge 130, Type (0, 1), BuildingBlock: EZIPEK_clean_linker_0, # of connection points: 2
#     Edge 131, Type (0, 1), BuildingBlock: EZIPEK_clean_linker_0, # of connection points: 2
#     Edge 132, Type (0, 1), BuildingBlock: EZIPEK_clean_linker_0, # of connection points: 2
#     Edge 133, Type (0, 1), BuildingBlock: EZIPEK_clean_linker_0, # of connection points: 2
#     Edge 134, Type (0, 1), BuildingBlock: EZIPEK_clean_linker_0, # of connection points: 2
#     Edge 135, Type (0, 1), BuildingBlock: EZIPEK_clean_linker_0, # of connection points: 2
#     Edge 136, Type (0, 1), BuildingBlock: EZIPEK_clean_linker_0, # of connection points: 2
#     Edge 137, Type (0, 1), BuildingBlock: EZIPEK_clean_linker_0, # of connection points: 2
#     Edge 138, Type (0, 1), BuildingBlock: EZIPEK_clean_linker_0, # of connection points: 2
#     Edge 139, Type (0, 1), BuildingBlock: EZIPEK_clean_linker_0, # of connection points: 2
#     Edge 140, Type (0, 1), BuildingBlock: EZIPEK_clean_linker_0, # of connection points: 2
#     Edge 141, Type (0, 1), BuildingBlock: EZIPEK_clean_linker_0, # of connection points: 2
#     Edge 142, Type (0, 1), BuildingBlock: EZIPEK_clean_linker_0, # of connection points: 2
#     Edge 143, Type (0, 1), BuildingBlock: EZIPEK_clean_linker_0, # of connection points: 2
#     Edge 144, Type (0, 1), BuildingBlock: EZIPEK_clean_linker_0, # of connection points: 2
#     Edge 145, Type (0, 1), BuildingBlock: EZIPEK_clean_linker_0, # of connection points: 2
#     Edge 146, Type (0, 1), BuildingBlock: EZIPEK_clean_linker_0, # of connection points: 2
#     Edge 147, Type (0, 1), BuildingBlock: EZIPEK_clean_linker_0, # of connection points: 2
#     Edge 148, Type (0, 1), BuildingBlock: EZIPEK_clean_linker_0, # of connection points: 2
#     Edge 149, Type (0, 1), BuildingBlock: EZIPEK_clean_linker_0, # of connection points: 2
#     Edge 150, Type (0, 1), BuildingBlock: EZIPEK_clean_linker_0, # of connection points: 2
#     Edge 151, Type (0, 1), BuildingBlock: EZIPEK_clean_linker_0, # of connection points: 2
#     Edge 152, Type (0, 1), BuildingBlock: EZIPEK_clean_linker_0, # of connection points: 2
#     Edge 153, Type (0, 1), BuildingBlock: EZIPEK_clean_linker_0, # of connection points: 2
#     Edge 154, Type (0, 1), BuildingBlock: EZIPEK_clean_linker_0, # of connection points: 2
#     Edge 155, Type (0, 1), BuildingBlock: EZIPEK_clean_linker_0, # of connection points: 2
#     Edge 156, Type (0, 1), BuildingBlock: EZIPEK_clean_linker_0, # of connection points: 2
#     Edge 157, Type (0, 1), BuildingBlock: EZIPEK_clean_linker_0, # of connection points: 2
#     Edge 158, Type (0, 1), BuildingBlock: EZIPEK_clean_linker_0, # of connection points: 2
#     Edge 159, Type (0, 1), BuildingBlock: EZIPEK_clean_linker_0, # of connection points: 2
#     Edge 160, Type (0, 1), BuildingBlock: EZIPEK_clean_linker_0, # of connection points: 2
#     Edge 161, Type (0, 1), BuildingBlock: EZIPEK_clean_linker_0, # of connection points: 2
#     Edge 162, Type (0, 1), BuildingBlock: EZIPEK_clean_linker_0, # of connection points: 2
#     Edge 163, Type (0, 1), BuildingBlock: EZIPEK_clean_linker_0, # of connection points: 2
#     Edge 164, Type (0, 1), BuildingBlock: EZIPEK_clean_linker_0, # of connection points: 2
#     Edge 165, Type (0, 1), BuildingBlock: EZIPEK_clean_linker_0, # of connection points: 2
#     Edge 166, Type (0, 1), BuildingBlock: EZIPEK_clean_linker_0, # of connection points: 2
#     Edge 167, Type (0, 1), BuildingBlock: EZIPEK_clean_linker_0, # of connection points: 2
#     Edge 168, Type (0, 1), BuildingBlock: EZIPEK_clean_linker_0, # of connection points: 2
#     Edge 169, Type (0, 1), BuildingBlock: EZIPEK_clean_linker_0, # of connection points: 2
#     Edge 170, Type (0, 1), BuildingBlock: EZIPEK_clean_linker_0, # of connection points: 2
#     Edge 171, Type (0, 1), BuildingBlock: EZIPEK_clean_linker_0, # of connection points: 2
#     Edge 172, Type (0, 1), BuildingBlock: EZIPEK_clean_linker_0, # of connection points: 2
#     Edge 173, Type (0, 1), BuildingBlock: EZIPEK_clean_linker_0, # of connection points: 2
#     Edge 174, Type (0, 1), BuildingBlock: EZIPEK_clean_linker_0, # of connection points: 2
#     Edge 175, Type (0, 1), BuildingBlock: EZIPEK_clean_linker_0, # of connection points: 2
#     Edge 176, Type (0, 1), BuildingBlock: EZIPEK_clean_linker_0, # of connection points: 2
#     Edge 177, Type (0, 1), BuildingBlock: EZIPEK_clean_linker_0, # of connection points: 2
#     Edge 178, Type (0, 1), BuildingBlock: EZIPEK_clean_linker_0, # of connection points: 2
#     Edge 179, Type (0, 1), BuildingBlock: EZIPEK_clean_linker_0, # of connection points: 2
#     Edge 180, Type (0, 1), BuildingBlock: EZIPEK_clean_linker_0, # of connection points: 2
#     Edge 181, Type (0, 1), BuildingBlock: EZIPEK_clean_linker_0, # of connection points: 2
#     Edge 182, Type (0, 1), BuildingBlock: EZIPEK_clean_linker_0, # of connection points: 2
#     Edge 183, Type (0, 1), BuildingBlock: EZIPEK_clean_linker_0, # of connection points: 2
#     Edge 184, Type (0, 1), BuildingBlock: EZIPEK_clean_linker_0, # of connection points: 2
#     Edge 185, Type (0, 1), BuildingBlock: EZIPEK_clean_linker_0, # of connection points: 2
#     Edge 186, Type (0, 1), BuildingBlock: EZIPEK_clean_linker_0, # of connection points: 2
#     Edge 187, Type (0, 1), BuildingBlock: EZIPEK_clean_linker_0, # of connection points: 2
#     Edge 188, Type (0, 1), BuildingBlock: EZIPEK_clean_linker_0, # of connection points: 2
#     Edge 189, Type (0, 1), BuildingBlock: EZIPEK_clean_linker_0, # of connection points: 2
#     Edge 190, Type (0, 1), BuildingBlock: EZIPEK_clean_linker_0, # of connection points: 2
#     Edge 191, Type (0, 1), BuildingBlock: EZIPEK_clean_linker_0, # of connection points: 2
#     Edge 192, Type (0, 1), BuildingBlock: EZIPEK_clean_linker_0, # of connection points: 2
#     Edge 193, Type (0, 1), BuildingBlock: EZIPEK_clean_linker_0, # of connection points: 2
#     Edge 194, Type (0, 1), BuildingBlock: EZIPEK_clean_linker_0, # of connection points: 2
#     Edge 195, Type (0, 1), BuildingBlock: EZIPEK_clean_linker_0, # of connection points: 2
#     Edge 196, Type (0, 1), BuildingBlock: EZIPEK_clean_linker_0, # of connection points: 2
#     Edge 197, Type (0, 1), BuildingBlock: EZIPEK_clean_linker_0, # of connection points: 2
#     Edge 198, Type (0, 1), BuildingBlock: EZIPEK_clean_linker_0, # of connection points: 2
#     Edge 199, Type (0, 1), BuildingBlock: EZIPEK_clean_linker_0, # of connection points: 2
#     Edge 200, Type (0, 1), BuildingBlock: EZIPEK_clean_linker_0, # of connection points: 2
#     Edge 201, Type (0, 1), BuildingBlock: EZIPEK_clean_linker_0, # of connection points: 2
#     Edge 202, Type (0, 1), BuildingBlock: EZIPEK_clean_linker_0, # of connection points: 2
#     Edge 203, Type (0, 1), BuildingBlock: EZIPEK_clean_linker_0, # of connection points: 2
#     Edge 204, Type (0, 1), BuildingBlock: EZIPEK_clean_linker_0, # of connection points: 2
#     Edge 205, Type (0, 1), BuildingBlock: EZIPEK_clean_linker_0, # of connection points: 2
#     Edge 206, Type (0, 1), BuildingBlock: EZIPEK_clean_linker_0, # of connection points: 2
#     Edge 207, Type (0, 1), BuildingBlock: EZIPEK_clean_linker_0, # of connection points: 2
#     Edge 208, Type (0, 1), BuildingBlock: EZIPEK_clean_linker_0, # of connection points: 2
#     Edge 209, Type (0, 1), BuildingBlock: EZIPEK_clean_linker_0, # of connection points: 2
#     Edge 210, Type (0, 1), BuildingBlock: EZIPEK_clean_linker_0, # of connection points: 2
#     Edge 211, Type (0, 1), BuildingBlock: EZIPEK_clean_linker_0, # of connection points: 2
#     Edge 212, Type (0, 1), BuildingBlock: EZIPEK_clean_linker_0, # of connection points: 2
#     Edge 213, Type (0, 1), BuildingBlock: EZIPEK_clean_linker_0, # of connection points: 2
#     Edge 214, Type (0, 1), BuildingBlock: EZIPEK_clean_linker_0, # of connection points: 2
#     Edge 215, Type (0, 1), BuildingBlock: EZIPEK_clean_linker_0, # of connection points: 2
#     Edge 216, Type (0, 1), BuildingBlock: EZIPEK_clean_linker_0, # of connection points: 2
#     Edge 217, Type (0, 1), BuildingBlock: EZIPEK_clean_linker_0, # of connection points: 2
#     Edge 218, Type (0, 1), BuildingBlock: EZIPEK_clean_linker_0, # of connection points: 2
#     Edge 219, Type (0, 1), BuildingBlock: EZIPEK_clean_linker_0, # of connection points: 2
#     Edge 220, Type (0, 1), BuildingBlock: EZIPEK_clean_linker_0, # of connection points: 2
#     Edge 221, Type (0, 1), BuildingBlock: EZIPEK_clean_linker_0, # of connection points: 2
#     Edge 222, Type (0, 1), BuildingBlock: EZIPEK_clean_linker_0, # of connection points: 2
#     Edge 223, Type (0, 1), BuildingBlock: EZIPEK_clean_linker_0, # of connection points: 2
#     Edge 224, Type (0, 1), BuildingBlock: EZIPEK_clean_linker_0, # of connection points: 2
#     Edge 225, Type (0, 1), BuildingBlock: EZIPEK_clean_linker_0, # of connection points: 2
#     Edge 226, Type (0, 1), BuildingBlock: EZIPEK_clean_linker_0, # of connection points: 2
#     Edge 227, Type (0, 1), BuildingBlock: EZIPEK_clean_linker_0, # of connection points: 2
#     Edge 228, Type (0, 1), BuildingBlock: EZIPEK_clean_linker_0, # of connection points: 2
#     Edge 229, Type (0, 1), BuildingBlock: EZIPEK_clean_linker_0, # of connection points: 2
#     Edge 230, Type (0, 1), BuildingBlock: EZIPEK_clean_linker_0, # of connection points: 2
#     Edge 231, Type (0, 1), BuildingBlock: EZIPEK_clean_linker_0, # of connection points: 2
#     Edge 232, Type (0, 1), BuildingBlock: EZIPEK_clean_linker_0, # of connection points: 2
#     Edge 233, Type (0, 1), BuildingBlock: EZIPEK_clean_linker_0, # of connection points: 2
#     Edge 234, Type (0, 1), BuildingBlock: EZIPEK_clean_linker_0, # of connection points: 2
#     Edge 235, Type (0, 1), BuildingBlock: EZIPEK_clean_linker_0, # of connection points: 2
#     Edge 236, Type (0, 1), BuildingBlock: EZIPEK_clean_linker_0, # of connection points: 2
#     Edge 237, Type (0, 1), BuildingBlock: EZIPEK_clean_linker_0, # of connection points: 2
#     Edge 238, Type (0, 1), BuildingBlock: EZIPEK_clean_linker_0, # of connection points: 2
#     Edge 239, Type (0, 1), BuildingBlock: EZIPEK_clean_linker_0, # of connection points: 2
# Relax obj value: 0.091
# Max RMSD: 0.081
# Mean RMSD: 0.074
data_MOF--net-bpr--node1-WUSLED_clean_sbu_0--node2-ESEHIV_clean_linker_0--edge1-EZIPEK_clean_linker_0
_symmetry_space_group_name_H-M    P1
_symmetry_Int_Tables_number       1
_symmetry_cell_setting            triclinic
loop_
_symmetry_equiv_pos_as_xyz
'x, y, z'
_cell_length_a     78.910372
_cell_length_b     78.609606
_cell_length_c     79.340786
_cell_angle_alpha  90.302217
_cell_angle_beta   89.996475
_cell_angle_gamma 90.27654
loop_
_atom_site_label
_atom_site_type_symbol
_atom_site_fract_x
_atom_site_fract_y
_atom_site_fract_z
_atom_type_partial_charge
C0 C 0.98713 0.37285 0.2905 0.0
C1 C 0.9943 0.3807 0.30478 0.0
C2 C 0.9662 0.38507 0.31669 0.0
C3 C 0.98391 0.38687 0.31769 0.0
C4 C 0.9591 0.37642 0.30285 0.0
C5 C 0.96949 0.37049 0.28978 0.0
U6 U 0.02886 0.3592 0.26922 0.0
O7 O 0.03267 0.34446 0.24574 0.0
O8 O 0.04132 0.37143 0.24739 0.0
C9 C 0.03962 0.35761 0.23815 0.0
C10 C 0.99756 0.36859 0.27563 0.0
C11 C 0.04548 0.35665 0.22053 0.0
C12 C 0.03939 0.35396 0.19051 0.0
C13 C 0.03404 0.3531 0.20736 0.0
C14 C 0.06771 0.36141 0.19987 0.0
C15 C 0.05626 0.35825 0.18667 0.0
C16 C 0.06233 0.36075 0.21665 0.0
C17 C 0.06482 0.35041 0.30349 0.0
C18 C 0.0945 0.3422 0.30319 0.0
C19 C 0.08106 0.35025 0.32951 0.0
C20 C 0.06587 0.35287 0.32097 0.0
C21 C 0.09553 0.34506 0.32071 0.0
C22 C 0.07919 0.34494 0.29457 0.0
C23 C 0.04844 0.3541 0.29545 0.0
O24 O 0.00995 0.37928 0.27236 0.0
O25 O 1.00195 0.35259 0.27373 0.0
O26 O 0.04022 0.34172 0.28772 0.0
O27 O 0.04657 0.36905 0.28839 0.0
H28 H 0.00789 0.38256 0.3057 0.0
H29 H 0.98966 0.39334 0.32836 0.0
H30 H 0.94549 0.37477 0.30191 0.0
H31 H 0.96372 0.36448 0.27887 0.0
H32 H 0.03039 0.35148 0.18048 0.0
H33 H 0.02091 0.35014 0.21009 0.0
H34 H 0.08078 0.36467 0.19716 0.0
H35 H 0.07129 0.36361 0.22662 0.0
H36 H 0.10557 0.33811 0.29623 0.0
H37 H 0.08158 0.35244 0.343 0.0
H38 H 0.05489 0.35704 0.32806 0.0
H39 H 0.07861 0.34294 0.28106 0.0
C40 C 0.86792 0.71326 0.52678 0.0
C41 C 0.85985 0.71145 0.54246 0.0
C42 C 0.86649 0.68112 0.54273 0.0
C43 C 0.85903 0.69551 0.55028 0.0
C44 C 0.87436 0.68294 0.52694 0.0
C45 C 0.87497 0.69884 0.51901 0.0
U46 U 0.86821 0.76209 0.52838 0.0
O47 O 0.88517 0.78061 0.51625 0.0
O48 O 0.85785 0.78113 0.51074 0.0
C49 C 0.87283 0.78797 0.50793 0.0
C50 C 0.86955 0.73007 0.51856 0.0
C51 C 0.87656 0.79476 0.49094 0.0
C52 C 0.89493 0.79747 0.46634 0.0
C53 C 0.88985 0.78855 0.48083 0.0
C54 C 0.87319 0.81847 0.47159 0.0
C55 C 0.88689 0.81274 0.46191 0.0
C56 C 0.86808 0.80956 0.48594 0.0
C57 C 0.86029 0.78342 0.57169 0.0
C58 C 0.85752 0.81376 0.5767 0.0
C59 C 0.8564 0.79442 0.60006 0.0
C60 C 0.85899 0.78076 0.58902 0.0
C61 C 0.85394 0.81118 0.59407 0.0
C62 C 0.86009 0.80007 0.56562 0.0
C63 C 0.86224 0.76865 0.56038 0.0
O64 O 0.85571 0.73929 0.51783 0.0
O65 O 0.88302 0.73903 0.52278 0.0
O66 O 0.8775 0.7661 0.55428 0.0
O67 O 0.85021 0.76642 0.54912 0.0
H68 H 0.8544 0.7224 0.54875 0.0
H69 H 0.853 0.69448 0.5625 0.0
H70 H 0.88032 0.67212 0.52091 0.0
H71 H 0.88125 0.69995 0.50692 0.0
H72 H 0.9055 0.79282 0.45896 0.0
H73 H 0.8967 0.77724 0.48444 0.0
H74 H 0.86682 0.83019 0.46837 0.0
H75 H 0.85794 0.81471 0.49361 0.0
H76 H 0.85885 0.82624 0.57132 0.0
H77 H 0.85667 0.79156 0.61334 0.0
H78 H 0.86009 0.76804 0.5941 0.0
H79 H 0.86209 0.80252 0.55233 0.0
C80 C 0.47134 0.63574 0.71725 0.0
C81 C 0.45358 0.63574 0.71578 0.0
C82 C 0.45576 0.63675 0.68506 0.0
C83 C 0.44587 0.63621 0.69982 0.0
C84 C 0.4735 0.6372 0.68661 0.0
C85 C 0.48119 0.63663 0.70254 0.0
U86 U 0.47132 0.6376 0.7658 0.0
O87 O 0.48237 0.62005 0.78432 0.0
O88 O 0.49061 0.64685 0.78399 0.0
C89 C 0.4918 0.63195 0.79135 0.0
C90 C 0.47985 0.63413 0.73386 0.0
C91 C 0.50805 0.627 0.79924 0.0
C92 C 0.53471 0.61142 0.79992 0.0
C93 C 0.52033 0.61703 0.79104 0.0
C94 C 0.52467 0.62573 0.82508 0.0
C95 C 0.53682 0.61553 0.8171 0.0
C96 C 0.51049 0.63142 0.81623 0.0
C97 C 0.42934 0.65004 0.78773 0.0
C98 C 0.42163 0.64495 0.81694 0.0
C99 C 0.4033 0.66181 0.79918 0.0
C100 C 0.41454 0.65963 0.78572 0.0
C101 C 0.40656 0.65419 0.8148 0.0
C102 C 0.433 0.64296 0.80352 0.0
C103 C 0.44015 0.6469 0.77291 0.0
O104 O 0.4822 0.64829 0.74246 0.0
O105 O 0.47469 0.62144 0.74333 0.0
O106 O 0.44463 0.63102 0.77032 0.0
O107 O 0.45254 0.6578 0.77037 0.0
H108 H 0.44569 0.63512 0.72693 0.0
H109 H 0.43217 0.63595 0.69896 0.0
H110 H 0.48139 0.6377 0.67545 0.0
H111 H 0.4949 0.63666 0.70336 0.0
H112 H 0.54401 0.60362 0.79353 0.0
H113 H 0.51868 0.61338 0.77796 0.0
H114 H 0.52607 0.62912 0.83826 0.0
H115 H 0.50114 0.639 0.82283 0.0
H116 H 0.42445 0.63908 0.82894 0.0
H117 H 0.39184 0.66908 0.79728 0.0
H118 H 0.41152 0.66518 0.77363 0.0
H119 H 0.44442 0.6356 0.80535 0.0
C120 C 0.63827 0.29825 0.03224 0.0
C121 C 0.6466 0.29967 0.04782 0.0
C122 C 0.63977 0.3299 0.04905 0.0
C123 C 0.64748 0.31545 0.0561 0.0
C124 C 0.6318 0.32844 0.03331 0.0
C125 C 0.63116 0.31277 0.02495 0.0
U126 U 0.63597 0.24894 0.02963 0.0
O127 O 0.64358 0.23241 0.00835 0.0
O128 O 0.61642 0.23417 0.01589 0.0
C129 C 0.62777 0.22789 0.00549 0.0
C130 C 0.63597 0.2818 0.02358 0.0
C131 C 0.62322 0.21576 0.99211 0.0
C132 C 0.61411 0.20975 0.96346 0.0
C133 C 0.61756 0.22143 0.97643 0.0
C134 C 0.62051 0.18671 0.9822 0.0
C135 C 0.61718 0.19211 0.96548 0.0
C136 C 0.6241 0.19834 0.99509 0.0
C137 C 0.64456 0.22291 0.07079 0.0
C138 C 0.65214 0.19339 0.07581 0.0
C139 C 0.64187 0.21091 0.09884 0.0
C140 C 0.64031 0.22463 0.08787 0.0
C141 C 0.64777 0.1952 0.09291 0.0
C142 C 0.65051 0.20718 0.06476 0.0
C143 C 0.64324 0.23812 0.06007 0.0
O144 O 0.64944 0.2722 0.02171 0.0
O145 O 0.62237 0.27319 0.02789 0.0
O146 O 0.62791 0.24255 0.05541 0.0
O147 O 0.65469 0.24016 0.04819 0.0
H148 H 0.65209 0.28858 0.05371 0.0
H149 H 0.6536 0.31629 0.0683 0.0
H150 H 0.62569 0.33935 0.02769 0.0
H151 H 0.62468 0.31188 0.01293 0.0
H152 H 0.60903 0.21475 0.95186 0.0
H153 H 0.61585 0.2349 0.97417 0.0
H154 H 0.62009 0.17363 0.98599 0.0
H155 H 0.6274 0.1937 0.0075 0.0
H156 H 0.65671 0.18132 0.07105 0.0
H157 H 0.63846 0.21254 0.11197 0.0
H158 H 0.63583 0.23669 0.09278 0.0
H159 H 0.65394 0.20559 0.05164 0.0
C160 C 0.98957 0.63125 0.21589 0.0
C161 C 0.99498 0.63329 0.19914 0.0
C162 C 0.96825 0.62135 0.18918 0.0
C163 C 0.9843 0.62841 0.18581 0.0
C164 C 0.96291 0.6195 0.20592 0.0
C165 C 0.97349 0.62443 0.21915 0.0
U166 U 0.03126 0.64623 0.23727 0.0
O167 O 0.03383 0.65978 0.26157 0.0
O168 O 0.04386 0.63349 0.25861 0.0
C169 C 0.04114 0.64658 0.2686 0.0
C170 C 1.00055 0.63523 0.23033 0.0
C171 C 0.04656 0.64687 0.28635 0.0
C172 C 0.04042 0.65209 0.31602 0.0
C173 C 0.03587 0.65339 0.29899 0.0
C174 C 0.06651 0.63811 0.30788 0.0
C175 C 0.05576 0.64438 0.32053 0.0
C176 C 0.06188 0.63923 0.29094 0.0
C177 C 0.06778 0.65915 0.2053 0.0
C178 C 0.09856 0.66045 0.20686 0.0
C179 C 0.08435 0.66368 0.17998 0.0
C180 C 0.06871 0.66216 0.18795 0.0
C181 C 0.09938 0.6623 0.18925 0.0
C182 C 0.08276 0.65875 0.21488 0.0
C183 C 0.05113 0.65417 0.21199 0.0
O184 O 0.01359 0.62515 0.23232 0.0
O185 O 0.00415 0.65136 0.23305 0.0
O186 O 0.04199 0.66554 0.22006 0.0
O187 O 0.0497 0.63869 0.21801 0.0
H188 H 0.00741 0.63849 0.19642 0.0
H189 H 0.98852 0.63004 0.17293 0.0
H190 H 0.95052 0.61422 0.20872 0.0
H191 H 0.96917 0.62275 0.232 0.0
H192 H 0.03204 0.65707 0.32564 0.0
H193 H 0.02386 0.65912 0.29573 0.0
H194 H 0.07846 0.63226 0.31115 0.0
H195 H 0.07025 0.63404 0.2814 0.0
H196 H 0.11009 0.65925 0.21415 0.0
H197 H 0.08474 0.66495 0.16639 0.0
H198 H 0.0573 0.66234 0.18034 0.0
H199 H 0.08226 0.65632 0.2283 0.0
C200 C 0.63485 0.70856 0.47068 0.0
C201 C 0.64635 0.70566 0.45746 0.0
C202 C 0.63665 0.67617 0.45515 0.0
C203 C 0.6473 0.68954 0.44982 0.0
C204 C 0.62537 0.67909 0.46851 0.0
C205 C 0.62455 0.6951 0.47623 0.0
U206 U 0.63452 0.75828 0.47363 0.0
O207 O 0.64281 0.77425 0.49516 0.0
O208 O 0.6156 0.77342 0.4877 0.0
C209 C 0.62721 0.77927 0.49811 0.0
C210 C 0.63318 0.72527 0.47912 0.0
C211 C 0.62316 0.79129 0.51179 0.0
C212 C 0.61338 0.79704 0.54028 0.0
C213 C 0.61655 0.78554 0.5271 0.0
C214 C 0.62206 0.8202 0.52251 0.0
C215 C 0.61753 0.81457 0.53889 0.0
C216 C 0.6254 0.80871 0.50942 0.0
C217 C 0.64455 0.78465 0.43283 0.0
C218 C 0.6424 0.81508 0.42779 0.0
C219 C 0.65039 0.79612 0.405 0.0
C220 C 0.64939 0.78231 0.41597 0.0
C221 C 0.64675 0.81262 0.41072 0.0
C222 C 0.6412 0.80116 0.43877 0.0
C223 C 0.64239 0.76938 0.44336 0.0
O224 O 0.64699 0.73447 0.48122 0.0
O225 O 0.61996 0.73435 0.4748 0.0
O226 O 0.62684 0.76562 0.44803 0.0
O227 O 0.6537 0.76675 0.45521 0.0
H228 H 0.65443 0.71583 0.45295 0.0
H229 H 0.65602 0.68758 0.43946 0.0
H230 H 0.61698 0.66905 0.47277 0.0
H231 H 0.61567 0.69705 0.48647 0.0
H232 H 0.60763 0.792 0.55158 0.0
H233 H 0.61386 0.77214 0.52891 0.0
H234 H 0.62276 0.83336 0.51908 0.0
H235 H 0.62954 0.81349 0.4973 0.0
H236 H 0.63955 0.82772 0.43247 0.0
H237 H 0.65374 0.79389 0.39193 0.0
H238 H 0.65205 0.76967 0.41117 0.0
H239 H 0.63741 0.80322 0.45174 0.0
C240 C 0.51607 0.37512 0.71741 0.0
C241 C 0.51078 0.37516 0.70047 0.0
C242 C 0.53906 0.38402 0.6915 0.0
C243 C 0.52221 0.37961 0.6876 0.0
C244 C 0.54435 0.38367 0.70838 0.0
C245 C 0.53295 0.37929 0.7212 0.0
U246 U 0.47266 0.36077 0.73446 0.0
O247 O 0.46567 0.34591 0.75702 0.0
O248 O 0.45668 0.37223 0.75424 0.0
C249 C 0.45653 0.35833 0.76337 0.0
C250 C 0.50415 0.37153 0.7314 0.0
C251 C 0.45518 0.36008 0.78189 0.0
C252 C 0.46565 0.36808 0.8098 0.0
C253 C 0.46828 0.36632 0.79228 0.0
C254 C 0.43698 0.35749 0.80648 0.0
C255 C 0.44983 0.36387 0.817 0.0
C256 C 0.43964 0.35559 0.7892 0.0
C257 C 0.43945 0.34796 0.70017 0.0
C258 C 0.409 0.34403 0.70336 0.0
C259 C 0.42164 0.34433 0.67551 0.0
C260 C 0.43763 0.34644 0.68268 0.0
C261 C 0.40718 0.34364 0.68573 0.0
C262 C 0.42512 0.3463 0.71058 0.0
C263 C 0.45617 0.35308 0.70665 0.0
O264 O 0.49108 0.38176 0.73256 0.0
O265 O 0.50011 0.35547 0.73385 0.0
O266 O 0.46473 0.34183 0.71536 0.0
O267 O 0.45721 0.36856 0.71287 0.0
H268 H 0.49781 0.37197 0.69723 0.0
H269 H 0.51791 0.37971 0.67463 0.0
H270 H 0.55729 0.38698 0.71165 0.0
H271 H 0.53729 0.37937 0.73415 0.0
H272 H 0.47583 0.37284 0.8177 0.0
H273 H 0.48039 0.36986 0.78689 0.0
H274 H 0.42475 0.35401 0.81167 0.0
H275 H 0.42939 0.35071 0.78144 0.0
H276 H 0.39792 0.34362 0.7114 0.0
H277 H 0.42046 0.34415 0.6619 0.0
H278 H 0.44854 0.34773 0.67447 0.0
H279 H 0.42631 0.34751 0.72414 0.0
C280 C 0.87966 0.22517 0.02571 0.0
C281 C 0.87979 0.2081 0.02027 0.0
C282 C 0.88806 0.19894 0.04839 0.0
C283 C 0.88399 0.19507 0.03155 0.0
C284 C 0.88759 0.21594 0.05385 0.0
C285 C 0.88346 0.22893 0.04259 0.0
U286 U 0.86679 0.24145 0.98223 0.0
O287 O 0.85172 0.26366 0.97439 0.0
O288 O 0.87832 0.26125 0.96627 0.0
C289 C 0.86425 0.27009 0.9655 0.0
C290 C 0.87631 0.23926 0.01389 0.0
C291 C 0.8655 0.28873 0.96348 0.0
C292 C 0.86997 0.31781 0.97356 0.0
C293 C 0.86905 0.30017 0.97673 0.0
C294 C 0.86402 0.31246 0.94406 0.0
C295 C 0.86756 0.32406 0.95711 0.0
C296 C 0.86297 0.29507 0.94722 0.0
C297 C 0.85622 0.20565 0.94951 0.0
C298 C 0.86114 0.20352 0.9193 0.0
C299 C 0.84676 0.18067 0.934 0.0
C300 C 0.84789 0.18987 0.94904 0.0
C301 C 0.8539 0.18717 0.91919 0.0
C302 C 0.86232 0.21275 0.93443 0.0
C303 C 0.86055 0.21283 0.96614 0.0
O304 O 0.88701 0.24057 1.00127 0.0
O305 O 0.86044 0.24136 0.00932 0.0
O306 O 0.84875 0.2214 0.97417 0.0
O307 O 0.87576 0.21953 0.96765 0.0
H308 H 0.87687 0.2049 0.00729 0.0
H309 H 0.88418 0.182 0.02714 0.0
H310 H 0.89062 0.21915 0.0668 0.0
H311 H 0.88344 0.24199 0.04703 0.0
H312 H 0.87253 0.32654 0.98386 0.0
H313 H 0.87102 0.29552 0.9894 0.0
H314 H 0.86195 0.31692 0.93133 0.0
H315 H 0.86015 0.2865 0.93685 0.0
H316 H 0.86675 0.20866 0.90794 0.0
H317 H 0.84119 0.16805 0.93412 0.0
H318 H 0.84317 0.18417 0.96054 0.0
H319 H 0.8688 0.22492 0.93453 0.0
C320 C 0.20933 0.03448 0.37214 0.0
C321 C 0.20751 0.05141 0.37764 0.0
C322 C 0.17726 0.05027 0.37154 0.0
C323 C 0.19158 0.05922 0.37737 0.0
C324 C 0.17917 0.03354 0.36558 0.0
C325 C 0.19507 0.02571 0.36596 0.0
U326 U 0.25827 0.03025 0.37011 0.0
O327 O 0.27324 0.00748 0.36301 0.0
O328 O 0.27494 0.01834 0.3889 0.0
C329 C 0.27966 0.00639 0.37827 0.0
C330 C 0.22551 0.02523 0.37391 0.0
C331 C 0.29195 0.99312 0.38311 0.0
C332 C 0.30178 0.96373 0.38213 0.0
C333 C 0.29061 0.97643 0.3767 0.0
C334 C 0.31588 0.98428 0.40022 0.0
C335 C 0.31448 0.96759 0.39397 0.0
C336 C 0.30469 0.99689 0.3949 0.0
C337 C 0.2835 0.07095 0.3557 0.0
C338 C 0.31001 0.0844 0.36414 0.0
C339 C 0.29542 0.09408 0.33912 0.0
C340 C 0.28276 0.08188 0.34178 0.0
C341 C 0.30895 0.09566 0.35048 0.0
C342 C 0.29739 0.0721 0.36674 0.0
C343 C 0.26861 0.06015 0.35939 0.0
O344 O 0.23364 0.02147 0.35994 0.0
O345 O 0.2356 0.03032 0.38614 0.0
O346 O 0.26564 0.05669 0.37532 0.0
O347 O 0.26545 0.04729 0.34917 0.0
H348 H 0.21829 0.0585 0.38244 0.0
H349 H 0.19037 0.07218 0.3819 0.0
H350 H 0.16831 0.02647 0.36093 0.0
H351 H 0.19616 0.01264 0.36171 0.0
H352 H 0.30055 0.95094 0.37711 0.0
H353 H 0.28077 0.97317 0.36771 0.0
H354 H 0.32571 0.98755 0.40922 0.0
H355 H 0.30602 0.00964 0.4 0.0
H356 H 0.32048 0.08532 0.37294 0.0
H357 H 0.29448 0.10254 0.32843 0.0
H358 H 0.27208 0.08131 0.33321 0.0
H359 H 0.29825 0.06386 0.3776 0.0
C360 C 0.22773 0.9894 0.62601 0.0
C361 C 0.21211 0.99008 0.63453 0.0
C362 C 0.20119 0.96686 0.6171 0.0
C363 C 0.19896 0.97879 0.63017 0.0
C364 C 0.21676 0.96627 0.60859 0.0
C365 C 0.22992 0.97741 0.61305 0.0
U366 U 0.24405 0.03246 0.64211 0.0
O367 O 0.2673 0.03971 0.65598 0.0
O368 O 0.26233 0.05026 0.63084 0.0
C369 C 0.27276 0.04956 0.64373 0.0
C370 C 0.24172 1.0014 0.62988 0.0
C371 C 0.29119 0.05037 0.64001 0.0
C372 C 0.32064 0.04406 0.64703 0.0
C373 C 0.30323 0.04043 0.64857 0.0
C374 C 0.31421 0.06711 0.62799 0.0
C375 C 0.32617 0.05772 0.63702 0.0
C376 C 0.29695 0.06347 0.62946 0.0
C377 C 0.20857 0.06367 0.65658 0.0
C378 C 0.21046 0.09431 0.66079 0.0
C379 C 0.18308 0.08017 0.66094 0.0
C380 C 0.19096 0.06456 0.65843 0.0
C381 C 0.19269 0.09518 0.6617 0.0
C382 C 0.2184 0.07857 0.65814 0.0
C383 C 0.2157 0.04736 0.65102 0.0
O384 O 0.24231 0.01502 0.62038 0.0
O385 O 0.24462 0.00471 0.64591 0.0
O386 O 0.22527 0.03902 0.6617 0.0
O387 O 0.22142 0.047 0.63549 0.0
H388 H 0.21006 0.99934 0.64447 0.0
H389 H 0.18701 0.97944 0.63686 0.0
H390 H 0.21873 0.95713 0.59852 0.0
H391 H 0.24182 0.97673 0.60627 0.0
H392 H 0.32971 0.03676 0.6542 0.0
H393 H 0.2992 0.03038 0.65697 0.0
H394 H 0.31821 0.07778 0.62034 0.0
H395 H 0.288 0.07154 0.62296 0.0
H396 H 0.21802 0.10584 0.66125 0.0
H397 H 0.16936 0.08064 0.66151 0.0
H398 H 0.1832 0.05322 0.65713 0.0
H399 H 0.23203 0.0781 0.65662 0.0
C400 C 0.22902 0.01889 0.87915 0.0
C401 C 0.21509 0.02111 0.86828 0.0
C402 C 0.20241 0.04121 0.88804 0.0
C403 C 0.20195 0.03227 0.87266 0.0
C404 C 0.2162 0.03888 0.89893 0.0
C405 C 0.22939 0.02788 0.8945 0.0
U406 U 0.2446 0.9753 0.8649 0.0
O407 O 0.26645 0.96692 0.84963 0.0
O408 O 0.26363 0.95824 0.87586 0.0
C409 C 0.27254 0.95753 0.86188 0.0
C410 C 0.24307 0.00707 0.87508 0.0
C411 C 0.29104 0.95555 0.86345 0.0
C412 C 0.32007 0.96608 0.86568 0.0
C413 C 0.30256 0.96924 0.86431 0.0
C414 C 0.31446 0.93574 0.86539 0.0
C415 C 0.32609 0.94924 0.86634 0.0
C416 C 0.29718 0.93887 0.86394 0.0
C417 C 0.20741 0.94356 0.85586 0.0
C418 C 0.20672 0.91494 0.84399 0.0
C419 C 0.18231 0.92607 0.85892 0.0
C420 C 0.19085 0.94131 0.8617 0.0
C421 C 0.19006 0.91277 0.84999 0.0
C422 C 0.21546 0.93028 0.84707 0.0
C423 C 0.21548 0.96001 0.85955 0.0
O424 O 0.24476 0.99421 0.88546 0.0
O425 O 0.24503 0.0027 0.85915 0.0
O426 O 0.22418 0.96745 0.8475 0.0
O427 O 0.22247 0.96143 0.87449 0.0
H428 H 0.21432 0.01423 0.85644 0.0
H429 H 0.19139 0.03389 0.8641 0.0
H430 H 0.21678 0.04568 0.91083 0.0
H431 H 0.2399 0.02633 0.90312 0.0
H432 H 0.32888 0.97667 0.86625 0.0
H433 H 0.29806 0.98222 0.86389 0.0
H434 H 0.31881 0.92269 0.86572 0.0
H435 H 0.28852 0.92815 0.86319 0.0
H436 H 0.21282 0.90488 0.8369 0.0
H437 H 0.16944 0.92476 0.86352 0.0
H438 H 0.18444 0.95143 0.86846 0.0
H439 H 0.22832 0.9318 0.84253 0.0
C440 C 0.21072 0.97035 0.13193 0.0
C441 C 0.20867 0.95402 0.12482 0.0
C442 C 0.17863 0.95392 0.13211 0.0
C443 C 0.19279 0.94595 0.12485 0.0
C444 C 0.18074 0.97002 0.13964 0.0
C445 C 0.19661 0.97818 0.13947 0.0
U446 U 0.25922 0.9723 0.13625 0.0
O447 O 0.27858 0.98301 0.11934 0.0
O448 O 0.27665 0.9925 0.1454 0.0
C449 C 0.28463 0.99347 0.13087 0.0
C450 C 0.22716 0.97966 0.13094 0.0
C451 C 0.29153 0.01017 0.12538 0.0
C452 C 0.29534 0.03243 0.10431 0.0
C453 C 0.28635 0.01823 0.11044 0.0
C454 C 0.31444 0.03096 0.12811 0.0
C455 C 0.3097 0.03866 0.11294 0.0
C456 C 0.30545 0.0169 0.13426 0.0
C457 C 0.28033 0.93042 0.15125 0.0
C458 C 0.31045 0.92427 0.15163 0.0
C459 C 0.29021 0.9024 0.15946 0.0
C460 C 0.27698 0.91386 0.1569 0.0
C461 C 0.30705 0.90742 0.1566 0.0
C462 C 0.29717 0.93568 0.14886 0.0
C463 C 0.26594 0.94143 0.147 0.0
O464 O 0.2349 0.98288 0.1453 0.0
O465 O 0.23762 0.97477 0.11897 0.0
O466 O 0.26436 0.94533 0.131 0.0
O467 O 0.26304 0.95434 0.15716 0.0
H468 H 0.21928 0.94755 0.11903 0.0
H469 H 0.1915 0.93347 0.11912 0.0
H470 H 0.17004 0.97635 0.14544 0.0
H471 H 0.19783 0.99073 0.14505 0.0
H472 H 0.29145 0.03823 0.09259 0.0
H473 H 0.27576 0.01324 0.10324 0.0
H474 H 0.32545 0.03552 0.13497 0.0
H475 H 0.30985 0.01081 0.14566 0.0
H476 H 0.32336 0.92836 0.14927 0.0
H477 H 0.28729 0.88948 0.16319 0.0
H478 H 0.26404 0.90962 0.15882 0.0
H479 H 0.29999 0.9484 0.14445 0.0
C480 C 0.3684 0.21373 0.02759 0.0
C481 C 0.36599 0.21211 0.04506 0.0
C482 C 0.36674 0.18112 0.04256 0.0
C483 C 0.36515 0.19593 0.05248 0.0
C484 C 0.36882 0.1828 0.02506 0.0
C485 C 0.36969 0.19895 0.01767 0.0
U486 U 0.36856 0.26279 0.02882 0.0
O487 O 0.38619 0.28101 0.01714 0.0
O488 O 0.35914 0.28164 0.01047 0.0
C489 C 0.37427 0.28834 0.00819 0.0
C490 C 0.37018 0.2306 0.0195 0.0
C491 C 0.37875 0.2951 0.99131 0.0
C492 C 0.39922 0.29975 0.96869 0.0
C493 C 0.39379 0.29058 0.98288 0.0
C494 C 0.37445 0.31767 0.97079 0.0
C495 C 0.38976 0.31362 0.9628 0.0
C496 C 0.36901 0.3085 0.98488 0.0
C497 C 0.35977 0.28478 0.07175 0.0
C498 C 0.35333 0.31458 0.07704 0.0
C499 C 0.36174 0.29642 0.10014 0.0
C500 C 0.36314 0.2827 0.08896 0.0
C501 C 0.35688 0.31246 0.09427 0.0
C502 C 0.35483 0.30083 0.06581 0.0
C503 C 0.36153 0.26993 0.06047 0.0
O504 O 0.35632 0.23975 0.01833 0.0
O505 O 0.38347 0.23964 0.02411 0.0
O506 O 0.37693 0.26681 0.05502 0.0
O507 O 0.34987 0.26789 0.04879 0.0
H508 H 0.36494 0.22333 0.05298 0.0
H509 H 0.36347 0.19494 0.06599 0.0
H510 H 0.37001 0.17159 0.01715 0.0
H511 H 0.37156 0.1999 0.00418 0.0
H512 H 0.41107 0.29642 0.96265 0.0
H513 H 0.40167 0.28042 0.98762 0.0
H514 H 0.36698 0.32832 0.96647 0.0
H515 H 0.35753 0.31244 0.99127 0.0
H516 H 0.34961 0.32691 0.0723 0.0
H517 H 0.36457 0.29455 0.11336 0.0
H518 H 0.36694 0.27042 0.09377 0.0
H519 H 0.35221 0.30273 0.05255 0.0
C520 C 0.01797 0.87513 0.21403 0.0
C521 C 0.01251 0.87527 0.19717 0.0
C522 C 0.04052 0.88484 0.1883 0.0
C523 C 0.02379 0.88006 0.18433 0.0
C524 C 0.04593 0.88444 0.20512 0.0
C525 C 0.03474 0.87961 0.21786 0.0
U526 U 0.975 0.86208 0.23418 0.0
O527 O 0.97118 0.8475 0.25757 0.0
O528 O 0.96292 0.87452 0.25622 0.0
C529 C 0.96446 0.86069 0.26531 0.0
C530 C 0.00647 0.87129 0.22811 0.0
C531 C 0.95926 0.85983 0.28312 0.0
C532 C 0.96622 0.85808 0.31298 0.0
C533 C 0.97119 0.85723 0.296 0.0
C534 C 0.93735 0.86367 0.30429 0.0
C535 C 0.94927 0.86144 0.31721 0.0
C536 C 0.94234 0.863 0.28739 0.0
C537 C 0.93882 0.85292 0.19999 0.0
C538 C 0.90868 0.84625 0.20027 0.0
C539 C 0.92292 0.85177 0.17378 0.0
C540 C 0.93814 0.8542 0.18239 0.0
C541 C 0.90805 0.84796 0.18261 0.0
C542 C 0.92403 0.8488 0.20898 0.0
C543 C 0.95521 0.8567 0.20808 0.0
O544 O 0.9941 0.88213 0.23053 0.0
O545 O 1.00177 0.85534 0.22994 0.0
O546 O 0.96342 0.8444 0.21569 0.0
O547 O 0.9572 0.8717 0.21519 0.0
H548 H 0.99957 0.87187 0.19399 0.0
H549 H 0.01946 0.8802 0.17138 0.0
H550 H 0.0588 0.88799 0.20839 0.0
H551 H 0.03914 0.8796 0.23079 0.0
H552 H 0.97557 0.85627 0.3228 0.0
H553 H 0.98437 0.85496 0.29295 0.0
H554 H 0.9242 0.86616 0.30731 0.0
H555 H 0.933 0.86513 0.27763 0.0
H556 H 0.89728 0.84324 0.20727 0.0
H557 H 0.9227 0.85308 0.16019 0.0
H558 H 0.94943 0.85737 0.17527 0.0
H559 H 0.9243 0.84777 0.22258 0.0
C560 C 0.13756 0.7984 0.5327 0.0
C561 C 0.13703 0.79979 0.55035 0.0
C562 C 0.13843 0.83071 0.54832 0.0
C563 C 0.13747 0.81587 0.55811 0.0
C564 C 0.13931 0.82924 0.53072 0.0
C565 C 0.13883 0.81321 0.52299 0.0
U566 U 0.13772 0.74905 0.53006 0.0
O567 O 0.14595 0.73306 0.50859 0.0
O568 O 0.11898 0.73282 0.51678 0.0
C569 C 0.13046 0.72732 0.50606 0.0
C570 C 0.1359 0.78187 0.52396 0.0
C571 C 0.12639 0.71504 0.49243 0.0
C572 C 0.13044 0.70451 0.46376 0.0
C573 C 0.13517 0.71543 0.477 0.0
C574 C 0.10823 0.69259 0.4812 0.0
C575 C 0.1169 0.693 0.46576 0.0
C576 C 0.11292 0.70351 0.49439 0.0
C577 C 0.14713 0.72486 0.57244 0.0
C578 C 0.15709 0.69661 0.5798 0.0
C579 C 0.14339 0.71418 0.60092 0.0
C580 C 0.14142 0.72705 0.58906 0.0
C581 C 0.15117 0.69886 0.59639 0.0
C582 C 0.15507 0.70955 0.56785 0.0
C583 C 0.14523 0.73928 0.5608 0.0
O584 O 0.14984 0.77301 0.52191 0.0
O585 O 0.12281 0.77249 0.52831 0.0
O586 O 0.12975 0.74278 0.55587 0.0
O587 O 0.15669 0.74136 0.54892 0.0
H588 H 0.13603 0.78851 0.55808 0.0
H589 H 0.13687 0.81676 0.57173 0.0
H590 H 0.14015 0.84051 0.52296 0.0
H591 H 0.1392 0.81238 0.50936 0.0
H592 H 0.1373 0.70504 0.45194 0.0
H593 H 0.14547 0.72438 0.47507 0.0
H594 H 0.0978 0.68379 0.48305 0.0
H595 H 0.10594 0.70298 0.50614 0.0
H596 H 0.16303 0.68477 0.57608 0.0
H597 H 0.13866 0.71609 0.61361 0.0
H598 H 0.13541 0.73882 0.59289 0.0
H599 H 0.15965 0.70759 0.55512 0.0
C600 C 0.97042 0.63117 0.76306 0.0
C601 C 0.95351 0.63279 0.7577 0.0
C602 C 0.94467 0.63955 0.78645 0.0
C603 C 0.94072 0.63696 0.76933 0.0
C604 C 0.96154 0.6378 0.79175 0.0
C605 C 0.97427 0.63365 0.78016 0.0
U606 U 0.9874 0.61692 0.71968 0.0
O607 O 0.00858 0.62696 0.70467 0.0
O608 O 0.00901 0.60033 0.7131 0.0
C609 C 0.01687 0.61248 0.70483 0.0
C610 C 0.98432 0.62723 0.75115 0.0
C611 C 0.03565 0.61307 0.70519 0.0
C612 C 0.06214 0.62917 0.70655 0.0
C613 C 0.04478 0.62764 0.7103 0.0
C614 C 0.06163 0.60126 0.69352 0.0
C615 C 0.0705 0.61622 0.69757 0.0
C616 C 0.0444 0.59969 0.69733 0.0
C617 C 0.95324 0.60586 0.68559 0.0
C618 C 0.95182 0.60955 0.65515 0.0
C619 C 0.9296 0.5941 0.6697 0.0
C620 C 0.93814 0.59642 0.68494 0.0
C621 C 0.93607 0.60114 0.65482 0.0
C622 C 0.96039 0.61192 0.6705 0.0
C623 C 0.95963 0.61103 0.70233 0.0
O624 O 0.98602 0.61116 0.74683 0.0
O625 O 0.9861 0.63766 0.73837 0.0
O626 O 0.96686 0.62609 0.70349 0.0
O627 O 0.96709 0.59934 0.71144 0.0
H628 H 0.95023 0.6309 0.74456 0.0
H629 H 0.92776 0.63816 0.76501 0.0
H630 H 0.96485 0.63967 0.80488 0.0
H631 H 0.98721 0.63245 0.78456 0.0
H632 H 0.06874 0.64089 0.70964 0.0
H633 H 0.03835 0.6382 0.71628 0.0
H634 H 0.06779 0.59122 0.68643 0.0
H635 H 0.03764 0.58843 0.69308 0.0
H636 H 0.95689 0.61519 0.64378 0.0
H637 H 0.9174 0.58774 0.66969 0.0
H638 H 0.93239 0.5917 0.69641 0.0
H639 H 0.97205 0.61925 0.67069 0.0
C640 C 0.13029 0.26941 0.47744 0.0
C641 C 0.12937 0.26432 0.46045 0.0
C642 C 0.13866 0.29258 0.45166 0.0
C643 C 0.1335 0.27588 0.44762 0.0
C644 C 0.13948 0.29757 0.46863 0.0
C645 C 0.13532 0.28609 0.48138 0.0
U646 U 0.11864 0.22585 0.49793 0.0
O647 O 0.13121 0.21462 0.52007 0.0
O648 O 0.10405 0.22199 0.52148 0.0
C649 C 0.11742 0.21592 0.52928 0.0
C650 C 0.12675 0.25768 0.49147 0.0
C651 C 0.11684 0.21016 0.54697 0.0
C652 C 0.10863 0.21461 0.5763 0.0
C653 C 0.10826 0.21966 0.55936 0.0
C654 C 0.12592 0.19041 0.56861 0.0
C655 C 0.11748 0.19993 0.58102 0.0
C656 C 0.12572 0.19555 0.55177 0.0
C657 C 0.11114 0.18824 0.46441 0.0
C658 C 0.09493 0.16208 0.46002 0.0
C659 C 0.11669 0.17024 0.44007 0.0
C660 C 0.12027 0.1847 0.44966 0.0
C661 C 0.10385 0.15893 0.44496 0.0
C662 C 0.09855 0.17671 0.46973 0.0
C663 C 0.11411 0.20505 0.47231 0.0
O664 O 0.11103 0.25239 0.49328 0.0
O665 O 0.13795 0.24568 0.49396 0.0
O666 O 0.12903 0.20808 0.47908 0.0
O667 O 0.10154 0.21301 0.47981 0.0
H668 H 0.12558 0.25146 0.45715 0.0
H669 H 0.1328 0.27181 0.43457 0.0
H670 H 0.14342 0.31036 0.47201 0.0
H671 H 0.13617 0.29022 0.49441 0.0
H672 H 0.10196 0.22206 0.5857 0.0
H673 H 0.1015 0.23111 0.55598 0.0
H674 H 0.13265 0.17894 0.57199 0.0
H675 H 0.13244 0.18805 0.54246 0.0
H676 H 0.08487 0.15355 0.46393 0.0
H677 H 0.12359 0.16818 0.42843 0.0
H678 H 0.12983 0.19352 0.44517 0.0
H679 H 0.09125 0.17925 0.48101 0.0
C680 C 0.46223 0.39514 0.21818 0.0
C681 C 0.46165 0.39093 0.20094 0.0
C682 C 0.43104 0.39445 0.20095 0.0
C683 C 0.44613 0.39054 0.1924 0.0
C684 C 0.43174 0.39932 0.21798 0.0
C685 C 0.44723 0.39959 0.22653 0.0
U686 U 0.51078 0.39534 0.22274 0.0
O687 O 0.52676 0.40344 0.24423 0.0
O688 O 0.5264 0.3763 0.23592 0.0
C689 C 0.53239 0.38788 0.24636 0.0
C690 C 0.47798 0.39356 0.22803 0.0
C691 C 0.54369 0.3835 0.26037 0.0
C692 C 0.54823 0.37425 0.28919 0.0
C693 C 0.53725 0.37951 0.27637 0.0
C694 C 0.57211 0.37721 0.27017 0.0
C695 C 0.56571 0.37296 0.28611 0.0
C696 C 0.56115 0.38242 0.25739 0.0
C697 C 0.5355 0.40503 0.1807 0.0
C698 C 0.56471 0.41243 0.17423 0.0
C699 C 0.54589 0.40275 0.15196 0.0
C700 C 0.53278 0.40121 0.16362 0.0
C701 C 0.56197 0.40824 0.15717 0.0
C702 C 0.55153 0.41079 0.18599 0.0
C703 C 0.52101 0.4031 0.19221 0.0
O704 O 0.48738 0.38032 0.22432 0.0
O705 O 0.48684 0.40756 0.23049 0.0
O706 O 0.51904 0.41449 0.20425 0.0
O707 O 0.51727 0.38752 0.19689 0.0
H708 H 0.4731 0.3875 0.19422 0.0
H709 H 0.44582 0.38686 0.17922 0.0
H710 H 0.42023 0.40246 0.22473 0.0
H711 H 0.44743 0.40283 0.23982 0.0
H712 H 0.54312 0.37102 0.30144 0.0
H713 H 0.52377 0.3802 0.27886 0.0
H714 H 0.58556 0.37631 0.26759 0.0
H715 H 0.56627 0.38539 0.24507 0.0
H716 H 0.57712 0.41663 0.17843 0.0
H717 H 0.54357 0.39943 0.13889 0.0
H718 H 0.52045 0.39689 0.15931 0.0
H719 H 0.55387 0.41387 0.1991 0.0
C720 C 0.37407 0.73671 0.97819 0.0
C721 C 0.37525 0.74216 0.96136 0.0
C722 C 0.36495 0.71455 0.95149 0.0
C723 C 0.37075 0.73113 0.94809 0.0
C724 C 0.36378 0.70918 0.9683 0.0
C725 C 0.3683 0.72017 0.98151 0.0
U726 U 0.3872 0.78023 0.99587 0.0
O727 O 0.37745 0.79456 0.01763 0.0
O728 O 0.40442 0.78754 0.01675 0.0
C729 C 0.39227 0.79519 0.02518 0.0
C730 C 0.37842 0.74809 0.99247 0.0
C731 C 0.39253 0.7947 0.04382 0.0
C732 C 0.37925 0.78803 0.0708 0.0
C733 C 0.38098 0.78502 0.05336 0.0
C734 C 0.40116 0.80963 0.06936 0.0
C735 C 0.38887 0.80089 0.07874 0.0
C736 C 0.403 0.80652 0.05212 0.0
C737 C 0.39292 0.81512 0.96099 0.0
C738 C 0.40887 0.8416 0.95838 0.0
C739 C 0.38721 0.83428 0.93788 0.0
C740 C 0.38376 0.81931 0.9465 0.0
C741 C 0.39994 0.84541 0.94354 0.0
C742 C 0.40534 0.82648 0.96713 0.0
C743 C 0.38985 0.79814 0.96817 0.0
O744 O 0.39428 0.75325 0.99333 0.0
O745 O 0.36753 0.7603 0.99555 0.0
O746 O 0.37549 0.79594 0.97624 0.0
O747 O 0.40271 0.79013 0.97499 0.0
H748 H 0.37962 0.75491 0.95851 0.0
H749 H 0.37182 0.73547 0.9352 0.0
H750 H 0.35942 0.69644 0.97118 0.0
H751 H 0.36727 0.71574 0.99438 0.0
H752 H 0.36957 0.78127 0.07778 0.0
H753 H 0.37269 0.77588 0.04723 0.0
H754 H 0.40857 0.81972 0.07517 0.0
H755 H 0.41187 0.81424 0.04502 0.0
H756 H 0.41887 0.84998 0.9628 0.0
H757 H 0.38035 0.8369 0.92635 0.0
H758 H 0.37427 0.81065 0.94149 0.0
H759 H 0.41259 0.82345 0.9783 0.0
C760 C 0.03768 0.39229 0.78571 0.0
C761 C 0.03957 0.39942 0.80188 0.0
C762 C 0.06952 0.39154 0.80228 0.0
C763 C 0.05537 0.39918 0.81002 0.0
C764 C 0.06766 0.38478 0.78594 0.0
C765 C 0.05192 0.38525 0.77772 0.0
U766 U 0.989 0.39424 0.78668 0.0
O767 O 0.97037 0.4035 0.76807 0.0
O768 O 0.97008 0.37664 0.77579 0.0
C769 C 0.96287 0.38857 0.76678 0.0
C770 C 0.0209 0.39117 0.77735 0.0
C771 C 0.95484 0.38363 0.75062 0.0
C772 C 0.95534 0.37433 0.72125 0.0
C773 C 0.964 0.37947 0.73598 0.0
C774 C 0.92851 0.37754 0.73572 0.0
C775 C 0.93751 0.37323 0.7211 0.0
C776 C 0.93709 0.3827 0.75028 0.0
C777 C 0.96799 0.40424 0.82969 0.0
C778 C 0.93777 0.40727 0.83497 0.0
C779 C 0.95721 0.4041 0.85839 0.0
C780 C 0.97078 0.40333 0.84711 0.0
C781 C 0.94059 0.40588 0.85243 0.0
C782 C 0.9514 0.40636 0.82364 0.0
C783 C 0.98258 0.40218 0.81829 0.0
O784 O 0.01137 0.37826 0.78196 0.0
O785 O 0.01233 0.40542 0.77599 0.0
O786 O 0.98447 0.41359 0.80637 0.0
O787 O 0.98541 0.38658 0.81306 0.0
H788 H 0.02877 0.40485 0.80836 0.0
H789 H 0.05644 0.40441 0.82264 0.0
H790 H 0.07828 0.37875 0.77971 0.0
H791 H 0.05075 0.37967 0.76526 0.0
H792 H 0.9625 0.37109 0.71005 0.0
H793 H 0.97771 0.38007 0.73597 0.0
H794 H 0.9148 0.37685 0.73587 0.0
H795 H 0.92978 0.38585 0.76143 0.0
H796 H 0.92501 0.40863 0.83015 0.0
H797 H 0.95964 0.403 0.87178 0.0
H798 H 0.98349 0.40169 0.852 0.0
H799 H 0.94897 0.40703 0.81022 0.0
C800 C 0.37514 0.27048 0.52878 0.0
C801 C 0.37495 0.26526 0.54569 0.0
C802 C 0.36726 0.29394 0.55446 0.0
C803 C 0.37105 0.27698 0.55849 0.0
C804 C 0.36758 0.29908 0.53758 0.0
C805 C 0.37151 0.28743 0.52485 0.0
U806 U 0.38676 0.22681 0.50878 0.0
O807 O 0.37384 0.21474 0.48705 0.0
O808 O 0.40089 0.22272 0.4851 0.0
C809 C 0.38745 0.21621 0.47761 0.0
C810 C 0.37838 0.25858 0.51481 0.0
C811 C 0.38793 0.21036 0.45996 0.0
C812 C 0.39557 0.21495 0.43058 0.0
C813 C 0.39617 0.22005 0.44753 0.0
C814 C 0.37873 0.19034 0.43838 0.0
C815 C 0.38685 0.20004 0.42595 0.0
C816 C 0.37917 0.19553 0.45524 0.0
C817 C 0.39574 0.18957 0.54129 0.0
C818 C 0.4134 0.16444 0.54484 0.0
C819 C 0.39038 0.17002 0.56426 0.0
C820 C 0.38634 0.1847 0.55545 0.0
C821 C 0.40409 0.15986 0.55928 0.0
C822 C 0.40915 0.17918 0.53578 0.0
C823 C 0.39228 0.20661 0.53441 0.0
O824 O 0.39412 0.25363 0.51268 0.0
O825 O 0.36727 0.24625 0.51286 0.0
O826 O 0.37714 0.20928 0.52809 0.0
O827 O 0.40449 0.21495 0.52667 0.0
H828 H 0.37766 0.25219 0.54893 0.0
H829 H 0.37083 0.27284 0.57149 0.0
H830 H 0.36467 0.3121 0.53426 0.0
H831 H 0.37153 0.29163 0.51187 0.0
H832 H 0.40194 0.22253 0.42112 0.0
H833 H 0.40281 0.23168 0.45089 0.0
H834 H 0.37206 0.17874 0.43502 0.0
H835 H 0.37268 0.18793 0.46461 0.0
H836 H 0.42423 0.15698 0.54096 0.0
H837 H 0.38323 0.16698 0.57553 0.0
H838 H 0.37621 0.19269 0.56016 0.0
H839 H 0.4167 0.18276 0.52496 0.0
C840 C 0.46385 0.61091 0.28642 0.0
C841 C 0.4627 0.60379 0.30261 0.0
C842 C 0.43261 0.61104 0.30419 0.0
C843 C 0.4472 0.60372 0.31134 0.0
C844 C 0.43378 0.61789 0.2879 0.0
C845 C 0.44921 0.61774 0.27909 0.0
U846 U 0.51243 0.60842 0.2853 0.0
O847 O 0.53031 0.5992 0.26584 0.0
O848 O 0.53126 0.62593 0.27423 0.0
C849 C 0.53802 0.61403 0.26471 0.0
C850 C 0.48025 0.6121 0.27733 0.0
C851 C 0.54597 0.61904 0.24855 0.0
C852 C 0.54539 0.62961 0.21968 0.0
C853 C 0.53677 0.62435 0.23435 0.0
C854 C 0.57228 0.6242 0.23327 0.0
C855 C 0.56325 0.62969 0.21912 0.0
C856 C 0.56374 0.61892 0.24778 0.0
C857 C 0.53405 0.597 0.32772 0.0
C858 C 0.56377 0.5908 0.3328 0.0
C859 C 0.54534 0.59793 0.35621 0.0
C860 C 0.53174 0.59947 0.34508 0.0
C861 C 0.56149 0.59376 0.35015 0.0
C862 C 0.55014 0.5925 0.3216 0.0
C863 C 0.51947 0.59969 0.31647 0.0
O864 O 0.49013 0.6248 0.28194 0.0
O865 O 0.48858 0.59781 0.27507 0.0
O866 O 0.51715 0.58858 0.30423 0.0
O867 O 0.51695 0.61547 0.31179 0.0
H868 H 0.47384 0.59853 0.30859 0.0
H869 H 0.44669 0.59839 0.32389 0.0
H870 H 0.42281 0.62366 0.2821 0.0
H871 H 0.44979 0.62331 0.26665 0.0
H872 H 0.53819 0.6338 0.20886 0.0
H873 H 0.52305 0.62459 0.23467 0.0
H874 H 0.58601 0.62413 0.23314 0.0
H875 H 0.57109 0.61489 0.25857 0.0
H876 H 0.57619 0.58765 0.32791 0.0
H877 H 0.54335 0.60032 0.36952 0.0
H878 H 0.51941 0.60291 0.35001 0.0
H879 H 0.5522 0.59058 0.30823 0.0
C880 C 0.11395 0.78316 0.9558 0.0
C881 C 0.11666 0.80083 0.95528 0.0
C882 C 0.11492 0.80018 0.92462 0.0
C883 C 0.11717 0.80927 0.93977 0.0
C884 C 0.11153 0.78265 0.92523 0.0
C885 C 0.11112 0.77422 0.94071 0.0
U886 U 0.11249 0.77795 0.00436 0.0
O887 O 0.13143 0.76493 0.02003 0.0
O888 O 0.10501 0.755 0.01879 0.0
C889 C 0.12052 0.75314 0.0246 0.0
C890 C 0.11546 0.77351 0.97162 0.0
C891 C 0.1253 0.73931 0.03623 0.0
C892 C 0.1238 0.70961 0.04503 0.0
C893 C 0.11843 0.72283 0.03446 0.0
C894 C 0.14285 0.72921 0.05923 0.0
C895 C 0.13608 0.71274 0.05749 0.0
C896 C 0.13758 0.74233 0.04867 0.0
C897 C 0.10037 0.8191 0.03034 0.0
C898 C 0.10878 0.83001 0.05784 0.0
C899 C 0.08774 0.84504 0.04149 0.0
C900 C 0.08905 0.83274 0.02876 0.0
C901 C 0.0979 0.84401 0.05596 0.0
C902 C 0.11001 0.81763 0.04513 0.0
C903 C 0.10322 0.80809 0.0155 0.0
O904 O 0.12811 0.77792 0.9815 0.0
O905 O 0.10137 0.77032 0.97988 0.0
O906 O 0.09236 0.79567 0.01258 0.0
O907 O 0.11899 0.80398 0.01218 0.0
H908 H 0.11884 0.808 0.96678 0.0
H909 H 0.11968 0.82283 0.93954 0.0
H910 H 0.10967 0.77544 0.9137 0.0
H911 H 0.10906 0.76058 0.94086 0.0
H912 H 0.1183 0.69703 0.04359 0.0
H913 H 0.10907 0.72014 0.02481 0.0
H914 H 0.15214 0.73196 0.06895 0.0
H915 H 0.14306 0.75489 0.05031 0.0
H916 H 0.11656 0.82888 0.06902 0.0
H917 H 0.07914 0.85561 0.03986 0.0
H918 H 0.08161 0.83418 0.01739 0.0
H919 H 0.11884 0.80724 0.04662 0.0
C920 C 0.76884 0.97389 0.63247 0.0
C921 C 0.76225 0.95794 0.63723 0.0
C922 C 0.79083 0.94685 0.64042 0.0
C923 C 0.77319 0.94452 0.64124 0.0
C924 C 0.79736 0.96272 0.63558 0.0
C925 C 0.78646 0.97613 0.63168 0.0
U926 U 0.72594 0.99075 0.6184 0.0
O927 O 0.71067 0.01227 0.62743 0.0
O928 O 0.71882 0.01133 0.60089 0.0
C929 C 0.71043 0.01967 0.61261 0.0
C930 C 0.7576 0.98827 0.62824 0.0
C931 C 0.71027 0.03848 0.6121 0.0
C932 C 0.71507 0.06628 0.62513 0.0
C933 C 0.71856 0.04875 0.62416 0.0
C934 C 0.69575 0.0635 0.60155 0.0
C935 C 0.7032 0.07363 0.61415 0.0
C936 C 0.69929 0.04614 0.60052 0.0
C937 C 0.6926 0.95462 0.61037 0.0
C938 C 0.66181 0.95442 0.61172 0.0
C939 C 0.67694 0.92889 0.60355 0.0
C940 C 0.69228 0.93762 0.60503 0.0
C941 C 0.66168 0.93709 0.60732 0.0
C942 C 0.67727 0.96319 0.61329 0.0
C943 C 0.70917 0.96208 0.61462 0.0
O944 O 0.75318 0.98943 0.61231 0.0
O945 O 0.74494 0.99096 0.63868 0.0
O946 O 0.71019 0.97039 0.629 0.0
O947 O 0.7178 0.9692 0.60236 0.0
H948 H 0.74868 0.95586 0.63779 0.0
H949 H 0.76793 0.93229 0.64476 0.0
H950 H 0.81093 0.9647 0.63472 0.0
H951 H 0.79179 0.98827 0.62797 0.0
H952 H 0.72085 0.07388 0.63502 0.0
H953 H 0.72702 0.04312 0.63329 0.0
H954 H 0.68644 0.06886 0.59309 0.0
H955 H 0.69263 0.03846 0.59125 0.0
H956 H 0.65008 0.96087 0.61472 0.0
H957 H 0.67703 0.91551 0.6002 0.0
H958 H 0.70398 0.93081 0.60278 0.0
H959 H 0.67729 0.97633 0.61746 0.0
C960 C 0.73493 0.97181 0.37469 0.0
C961 C 0.74051 0.95761 0.36538 0.0
C962 C 0.71201 0.94535 0.36578 0.0
C963 C 0.72913 0.94457 0.3609 0.0
C964 C 0.70655 0.95929 0.37547 0.0
C965 C 0.71789 0.97242 0.37981 0.0
U966 U 0.77847 0.99005 0.38717 0.0
O967 O 0.79284 0.01188 0.37728 0.0
O968 O 0.78577 0.01132 0.40414 0.0
C969 C 0.79355 0.01961 0.39201 0.0
C970 C 0.74643 0.98635 0.3786 0.0
C971 C 0.79396 0.03848 0.39246 0.0
C972 C 0.79174 0.066 0.3785 0.0
C973 C 0.78762 0.04857 0.3793 0.0
C974 C 0.80779 0.06358 0.40437 0.0
C975 C 0.80232 0.07348 0.39078 0.0
C976 C 0.80361 0.04631 0.40521 0.0
C977 C 0.81301 0.95514 0.39479 0.0
C978 C 0.84366 0.95441 0.39125 0.0
C979 C 0.82892 0.93034 0.40348 0.0
C980 C 0.8136 0.93897 0.4021 0.0
C981 C 0.84396 0.93777 0.39764 0.0
C982 C 0.82821 0.96307 0.38978 0.0
C983 C 0.79618 0.9621 0.39081 0.0
O984 O 0.75147 0.98782 0.39434 0.0
O985 O 0.75864 0.98928 0.36769 0.0
O986 O 0.79451 0.97001 0.37636 0.0
O987 O 0.78766 0.96918 0.4032 0.0
H988 H 0.75359 0.95668 0.36137 0.0
H989 H 0.73366 0.93389 0.35352 0.0
H990 H 0.69344 0.96014 0.37943 0.0
H991 H 0.71329 0.9832 0.38701 0.0
H992 H 0.78751 0.07339 0.36783 0.0
H993 H 0.78027 0.04285 0.36921 0.0
H994 H 0.8161 0.06903 0.41385 0.0
H995 H 0.80886 0.0388 0.41535 0.0
H996 H 0.85519 0.96027 0.3866 0.0
H997 H 0.82892 0.91748 0.40835 0.0
H998 H 0.80202 0.93262 0.40597 0.0
H999 H 0.82804 0.97556 0.38408 0.0
C1000 C 0.78366 0.96213 0.10964 0.0
C1001 C 0.80102 0.96098 0.10585 0.0
C1002 C 0.79994 0.93018 0.10973 0.0
C1003 C 0.8091 0.94508 0.10589 0.0
C1004 C 0.78251 0.93139 0.11304 0.0
C1005 C 0.77449 0.94722 0.11306 0.0
U1006 U 0.78119 0.01157 0.11046 0.0
O1007 O 0.76804 0.02707 0.1295 0.0
O1008 O 0.75969 0.02799 0.10275 0.0
C1009 C 0.75742 0.03324 0.11837 0.0
C1010 C 0.7749 0.97863 0.11123 0.0
C1011 C 0.74441 0.0458 0.1233 0.0
C1012 C 0.71555 0.05658 0.12179 0.0
C1013 C 0.72811 0.04533 0.11615 0.0
C1014 C 0.73547 0.06909 0.14155 0.0
C1015 C 0.71912 0.06853 0.13458 0.0
C1016 C 0.74797 0.05783 0.13597 0.0
C1017 C 0.82404 0.03633 0.10319 0.0
C1018 C 0.83071 0.0663 0.09926 0.0
C1019 C 0.85313 0.04635 0.1056 0.0
C1020 C 0.84127 0.03315 0.10601 0.0
C1021 C 0.84797 0.06303 0.1023 0.0
C1022 C 0.81876 0.053 0.09973 0.0
C1023 C 0.8123 0.02173 0.10403 0.0
O1024 O 0.77885 0.98771 0.1246 0.0
O1025 O 0.77337 0.98784 0.09753 0.0
O1026 O 0.80055 0.02027 0.09234 0.0
O1027 O 0.80704 0.01742 0.11912 0.0
H1028 H 0.80834 0.97235 0.10322 0.0
H1029 H 0.82255 0.94443 0.10326 0.0
H1030 H 0.77519 0.9201 0.116 0.0
H1031 H 0.76112 0.94786 0.11609 0.0
H1032 H 0.703 0.05589 0.11628 0.0
H1033 H 0.72499 0.03603 0.1065 0.0
H1034 H 0.73852 0.0782 0.15139 0.0
H1035 H 0.76045 0.05846 0.14164 0.0
H1036 H 0.82652 0.07914 0.09677 0.0
H1037 H 0.86634 0.0436 0.10805 0.0
H1038 H 0.84557 0.02037 0.10867 0.0
H1039 H 0.8055 0.05573 0.09753 0.0
C1040 C 0.71881 0.96046 0.89671 0.0
C1041 C 0.70234 0.95953 0.90338 0.0
C1042 C 0.70102 0.92916 0.89675 0.0
C1043 C 0.69357 0.94394 0.90354 0.0
C1044 C 0.71757 0.93018 0.8903 0.0
C1045 C 0.72639 0.94565 0.8904 0.0
U1046 U 0.72322 0.00975 0.89657 0.0
O1047 O 0.73723 0.02492 0.878 0.0
O1048 O 0.74525 0.02543 0.9049 0.0
C1049 C 0.74794 0.03067 0.88939 0.0
C1050 C 0.72822 0.97667 0.89535 0.0
C1051 C 0.76143 0.04288 0.88479 0.0
C1052 C 0.79061 0.05303 0.88674 0.0
C1053 C 0.77765 0.042 0.89207 0.0
C1054 C 0.77118 0.06607 0.86708 0.0
C1055 C 0.78745 0.06507 0.87412 0.0
C1056 C 0.75831 0.05506 0.87232 0.0
C1057 C 0.68154 0.03591 0.90437 0.0
C1058 C 0.67431 0.0653 0.89814 0.0
C1059 C 0.6535 0.04661 0.91093 0.0
C1060 C 0.66525 0.03344 0.91095 0.0
C1061 C 0.65784 0.06254 0.90433 0.0
C1062 C 0.68615 0.05199 0.89812 0.0
C1063 C 0.69255 0.0209 0.90301 0.0
O1064 O 0.72469 0.98588 0.88208 0.0
O1065 O 0.73006 0.98579 0.90918 0.0
O1066 O 0.70403 0.01867 0.9148 0.0
O1067 O 0.69783 0.01682 0.88783 0.0
H1068 H 0.69622 0.97085 0.90824 0.0
H1069 H 0.68082 0.94346 0.90858 0.0
H1070 H 0.7236 0.91902 0.88499 0.0
H1071 H 0.73908 0.94611 0.8852 0.0
H1072 H 0.80309 0.05211 0.89235 0.0
H1073 H 0.78038 0.03258 0.9016 0.0
H1074 H 0.76845 0.0754 0.85746 0.0
H1075 H 0.7459 0.05604 0.86659 0.0
H1076 H 0.67784 0.07757 0.89305 0.0
H1077 H 0.64086 0.04427 0.91575 0.0
H1078 H 0.66144 0.0211 0.91571 0.0
H1079 H 0.69867 0.0541 0.89292 0.0
C1080 C 0.62953 0.76667 0.98089 0.0
C1081 C 0.63409 0.76051 0.96483 0.0
C1082 C 0.6388 0.78948 0.95505 0.0
C1083 C 0.63872 0.77186 0.95201 0.0
C1084 C 0.63405 0.7956 0.97101 0.0
C1085 C 0.62949 0.78428 0.98381 0.0
U1086 U 0.61691 0.72277 0.99788 0.0
O1087 O 0.62671 0.70874 0.01967 0.0
O1088 O 0.59965 0.71535 0.0186 0.0
C1089 C 0.61185 0.70801 0.02714 0.0
C1090 C 0.62527 0.75504 0.99488 0.0
C1091 C 0.61142 0.70878 0.04579 0.0
C1092 C 0.62478 0.7151 0.07288 0.0
C1093 C 0.62335 0.71799 0.05543 0.0
C1094 C 0.60177 0.69468 0.07128 0.0
C1095 C 0.6144 0.70289 0.08077 0.0
C1096 C 0.60027 0.69763 0.05401 0.0
C1097 C 0.61159 0.6876 0.96266 0.0
C1098 C 0.59411 0.66246 0.95733 0.0
C1099 C 0.61905 0.66779 0.94031 0.0
C1100 C 0.62243 0.68249 0.94961 0.0
C1101 C 0.60471 0.65784 0.94382 0.0
C1102 C 0.59754 0.6773 0.96674 0.0
C1103 C 0.6145 0.70465 0.97006 0.0
O1104 O 0.60947 0.74969 0.99557 0.0
O1105 O 0.6363 0.74295 0.99782 0.0
O1106 O 0.62883 0.70706 0.97818 0.0
O1107 O 0.60158 0.71265 0.97686 0.0
H1108 H 0.63416 0.74696 0.96227 0.0
H1109 H 0.64221 0.76692 0.93972 0.0
H1110 H 0.63392 0.80915 0.97355 0.0
H1111 H 0.62601 0.78929 0.99607 0.0
H1112 H 0.63474 0.72142 0.07995 0.0
H1113 H 0.63216 0.7266 0.04937 0.0
H1114 H 0.59381 0.68505 0.07703 0.0
H1115 H 0.5911 0.69026 0.04684 0.0
H1116 H 0.58289 0.65499 0.96011 0.0
H1117 H 0.62725 0.66456 0.92983 0.0
H1118 H 0.6332 0.69032 0.94611 0.0
H1119 H 0.58892 0.68101 0.97671 0.0
C1120 C 0.96217 0.10829 0.78838 0.0
C1121 C 0.96137 0.10485 0.80572 0.0
C1122 C 0.93088 0.10969 0.8054 0.0
C1123 C 0.94577 0.10553 0.81418 0.0
C1124 C 0.9317 0.11256 0.78798 0.0
C1125 C 0.94724 0.11194 0.77958 0.0
U1126 U 0.01111 0.10648 0.78469 0.0
O1127 O 0.02646 0.09849 0.76279 0.0
O1128 O 0.02746 0.12537 0.77183 0.0
C1129 C 0.03276 0.1139 0.76098 0.0
C1130 C 0.97839 0.10944 0.77929 0.0
C1131 C 0.04394 0.11819 0.74677 0.0
C1132 C 0.04831 0.1257 0.71739 0.0
C1133 C 0.03756 0.12024 0.73039 0.0
C1134 C 0.07189 0.12663 0.73696 0.0
C1135 C 0.06552 0.12903 0.72063 0.0
C1136 C 0.06114 0.12133 0.74993 0.0
C1137 C 0.03599 0.09535 0.8262 0.0
C1138 C 0.06603 0.09139 0.83164 0.0
C1139 C 0.04645 0.09441 0.855 0.0
C1140 C 0.03305 0.09581 0.84363 0.0
C1141 C 0.06306 0.09239 0.84913 0.0
C1142 C 0.05256 0.09295 0.8202 0.0
C1143 C 0.02135 0.09786 0.81499 0.0
O1144 O 0.98824 0.12221 0.7837 0.0
O1145 O 0.98669 0.09519 0.7768 0.0
O1146 O 0.01885 0.08676 0.80277 0.0
O1147 O 0.01814 0.1136 0.8106 0.0
H1148 H 0.97279 0.10204 0.81273 0.0
H1149 H 0.94535 0.10322 0.82763 0.0
H1150 H 0.92037 0.11575 0.78099 0.0
H1151 H 0.94766 0.11471 0.76622 0.0
H1152 H 0.04319 0.12751 0.70486 0.0
H1153 H 0.02427 0.11798 0.72773 0.0
H1154 H 0.08512 0.12913 0.73971 0.0
H1155 H 0.06621 0.11988 0.76253 0.0
H1156 H 0.07881 0.08992 0.82689 0.0
H1157 H 0.04391 0.0953 0.86839 0.0
H1158 H 0.02034 0.09761 0.84847 0.0
H1159 H 0.05509 0.09257 0.80678 0.0
C1160 C 0.87164 0.23643 0.47744 0.0
C1161 C 0.87227 0.24199 0.46062 0.0
C1162 C 0.86311 0.21395 0.45073 0.0
C1163 C 0.86807 0.23081 0.44735 0.0
C1164 C 0.86266 0.20842 0.46753 0.0
C1165 C 0.86689 0.21956 0.48074 0.0
U1166 U 0.88413 0.28028 0.49472 0.0
O1167 O 0.87252 0.29607 0.51462 0.0
O1168 O 0.89922 0.28827 0.51686 0.0
C1169 C 0.88658 0.29691 0.52347 0.0
C1170 C 0.87519 0.24812 0.49174 0.0
C1171 C 0.88527 0.29873 0.54201 0.0
C1172 C 0.89182 0.29045 0.57091 0.0
C1173 C 0.89162 0.28675 0.5535 0.0
C1174 C 0.87918 0.31788 0.56543 0.0
C1175 C 0.8858 0.30619 0.57693 0.0
C1176 C 0.87889 0.31417 0.54822 0.0
C1177 C 0.8921 0.31392 0.45932 0.0
C1178 C 0.90598 0.34164 0.45833 0.0
C1179 C 0.88759 0.33248 0.43551 0.0
C1180 C 0.88449 0.31725 0.44378 0.0
C1181 C 0.89851 0.34471 0.44255 0.0
C1182 C 0.90271 0.32628 0.46678 0.0
C1183 C 0.88893 0.29706 0.46662 0.0
O1184 O 0.89102 0.25312 0.49361 0.0
O1185 O 0.86429 0.26055 0.49375 0.0
O1186 O 0.87396 0.2948 0.47348 0.0
O1187 O 0.9013 0.28962 0.47485 0.0
H1188 H 0.87587 0.25498 0.45777 0.0
H1189 H 0.86859 0.23531 0.43448 0.0
H1190 H 0.85897 0.19547 0.47041 0.0
H1191 H 0.86629 0.21502 0.49359 0.0
H1192 H 0.89705 0.28129 0.5796 0.0
H1193 H 0.89676 0.2748 0.54902 0.0
H1194 H 0.87459 0.33011 0.56977 0.0
H1195 H 0.87416 0.32371 0.53962 0.0
H1196 H 0.9146 0.35088 0.46385 0.0
H1197 H 0.88188 0.33451 0.42327 0.0
H1198 H 0.87636 0.30785 0.4378 0.0
H1199 H 0.90869 0.32393 0.47882 0.0
C1200 C 0.48899 0.87433 0.79006 0.0
C1201 C 0.49434 0.87436 0.80695 0.0
C1202 C 0.46673 0.88502 0.81567 0.0
C1203 C 0.4832 0.87963 0.81973 0.0
C1204 C 0.46143 0.8847 0.79882 0.0
C1205 C 0.47246 0.87938 0.78614 0.0
U1206 U 0.53166 0.86099 0.76912 0.0
O1207 O 0.53459 0.8465 0.74541 0.0
O1208 O 0.54313 0.87354 0.74697 0.0
C1209 C 0.54106 0.85981 0.73767 0.0
C1210 C 0.50042 0.8702 0.776 0.0
C1211 C 0.54608 0.85905 0.71984 0.0
C1212 C 0.53874 0.85548 0.69022 0.0
C1213 C 0.53432 0.85443 0.70731 0.0
C1214 C 0.56681 0.86533 0.69814 0.0
C1215 C 0.55501 0.86105 0.68557 0.0
C1216 C 0.56233 0.86447 0.71514 0.0
C1217 C 0.56906 0.85215 0.80191 0.0
C1218 C 0.59797 0.84132 0.80177 0.0
C1219 C 0.58586 0.85283 0.82746 0.0
C1220 C 0.57082 0.85613 0.81902 0.0
C1221 C 0.59959 0.84536 0.81903 0.0
C1222 C 0.58274 0.84481 0.79318 0.0
C1223 C 0.55244 0.85575 0.79432 0.0
O1224 O 0.51285 0.88102 0.77342 0.0
O1225 O 0.50497 0.85423 0.77419 0.0
O1226 O 0.54393 0.84338 0.78689 0.0
O1227 O 0.55008 0.87079 0.78763 0.0
H1228 H 0.5071 0.87055 0.81019 0.0
H1229 H 0.48744 0.87969 0.83272 0.0
H1230 H 0.44875 0.88871 0.79547 0.0
H1231 H 0.46816 0.87947 0.77317 0.0
H1232 H 0.52952 0.85207 0.68066 0.0
H1233 H 0.52161 0.85044 0.71071 0.0
H1234 H 0.57946 0.86951 0.69477 0.0
H1235 H 0.57152 0.86817 0.72464 0.0
H1236 H 0.60834 0.83534 0.7951 0.0
H1237 H 0.5867 0.85588 0.84077 0.0
H1238 H 0.56038 0.86168 0.82598 0.0
H1239 H 0.58159 0.84162 0.77993 0.0
C1240 C 0.97008 0.13638 0.21749 0.0
C1241 C 0.95283 0.13227 0.21534 0.0
C1242 C 0.95497 0.13749 0.18511 0.0
C1243 C 0.94538 0.13277 0.19929 0.0
C1244 C 0.97208 0.14203 0.18734 0.0
C1245 C 0.97956 0.14141 0.20337 0.0
U1246 U 0.96979 0.13869 0.26594 0.0
O1247 O 0.98035 0.12122 0.28475 0.0
O1248 O 0.98906 0.14785 0.28419 0.0
C1249 C 0.99027 0.13291 0.29148 0.0
C1250 C 0.97854 0.13484 0.23413 0.0
C1251 C 0.00692 0.12761 0.29833 0.0
C1252 C 0.0285 0.10601 0.30321 0.0
C1253 C 0.01455 0.11202 0.294 0.0
C1254 C 0.02776 0.13126 0.32078 0.0
C1255 C 0.03493 0.11543 0.31692 0.0
C1256 C 0.01392 0.13727 0.31158 0.0
C1257 C 0.92746 0.1519 0.28702 0.0
C1258 C 0.91827 0.14658 0.31576 0.0
C1259 C 0.90154 0.16469 0.29765 0.0
C1260 C 0.91324 0.16225 0.28463 0.0
C1261 C 0.90374 0.15657 0.31321 0.0
C1262 C 0.9301 0.14432 0.30278 0.0
C1263 C 0.93864 0.14844 0.27254 0.0
O1264 O 0.98101 0.14907 0.2426 0.0
O1265 O 0.97333 0.12226 0.24372 0.0
O1266 O 0.94297 0.13248 0.2702 0.0
O1267 O 0.95122 0.15917 0.27014 0.0
H1268 H 0.94517 0.12846 0.22602 0.0
H1269 H 0.93214 0.12935 0.1979 0.0
H1270 H 0.97968 0.14583 0.17662 0.0
H1271 H 0.99285 0.14466 0.20471 0.0
H1272 H 0.03392 0.09378 0.30001 0.0
H1273 H 0.00936 0.10421 0.28395 0.0
H1274 H 0.03252 0.13871 0.3313 0.0
H1275 H 0.00815 0.14918 0.31536 0.0
H1276 H 0.92029 0.14033 0.32773 0.0
H1277 H 0.89054 0.17256 0.29546 0.0
H1278 H 0.91101 0.1682 0.27255 0.0
H1279 H 0.94105 0.13636 0.30492 0.0
C1280 C 0.48857 0.13219 0.71688 0.0
C1281 C 0.49386 0.13324 0.7 0.0
C1282 C 0.4664 0.12243 0.69076 0.0
C1283 C 0.48277 0.12845 0.68697 0.0
C1284 C 0.46113 0.12167 0.70761 0.0
C1285 C 0.47213 0.12654 0.72055 0.0
U1286 U 0.53195 0.14358 0.73687 0.0
O1287 O 0.53667 0.15716 0.7607 0.0
O1288 O 0.54401 0.12993 0.75814 0.0
C1289 C 0.54293 0.14348 0.76785 0.0
C1290 C 0.50011 0.13561 0.73103 0.0
C1291 C 0.54833 0.14383 0.78562 0.0
C1292 C 0.54292 0.15119 0.81498 0.0
C1293 C 0.53841 0.15201 0.79792 0.0
C1294 C 0.5674 0.1342 0.80757 0.0
C1295 C 0.55744 0.14224 0.81989 0.0
C1296 C 0.56281 0.13489 0.79058 0.0
C1297 C 0.56911 0.15156 0.7042 0.0
C1298 C 0.59549 0.16756 0.70129 0.0
C1299 C 0.58877 0.14474 0.6817 0.0
C1300 C 0.57366 0.1417 0.69018 0.0
C1301 C 0.5997 0.15783 0.68697 0.0
C1302 C 0.58022 0.16442 0.70993 0.0
C1303 C 0.55192 0.14887 0.71097 0.0
O1304 O 0.5121 0.12432 0.73315 0.0
O1305 O 0.5054 0.15137 0.73312 0.0
O1306 O 0.54437 0.16131 0.71918 0.0
O1307 O 0.5485 0.13368 0.71693 0.0
H1308 H 0.50658 0.13749 0.69695 0.0
H1309 H 0.48698 0.12921 0.674 0.0
H1310 H 0.44853 0.11717 0.71075 0.0
H1311 H 0.46789 0.12557 0.7335 0.0
H1312 H 0.53515 0.15752 0.82433 0.0
H1313 H 0.52703 0.15877 0.79437 0.0
H1314 H 0.57872 0.12737 0.81115 0.0
H1315 H 0.57057 0.12841 0.78131 0.0
H1316 H 0.6037 0.17784 0.70541 0.0
H1317 H 0.59166 0.13726 0.67056 0.0
H1318 H 0.56518 0.13193 0.68537 0.0
H1319 H 0.5769 0.17229 0.72066 0.0
C1320 C 0.13569 0.20768 0.97267 0.0
C1321 C 0.14596 0.20523 0.95841 0.0
C1322 C 0.1368 0.17555 0.95657 0.0
C1323 C 0.14659 0.18924 0.95049 0.0
C1324 C 0.12668 0.17804 0.97091 0.0
C1325 C 0.12622 0.19393 0.97891 0.0
U1326 U 0.13588 0.25721 0.9755 0.0
O1327 O 0.11742 0.27299 0.98935 0.0
O1328 O 0.14453 0.27307 0.99706 0.0
C1329 C 0.12905 0.27854 0.99991 0.0
C1330 C 0.13441 0.22429 0.98137 0.0
C1331 C 0.12503 0.29075 0.01355 0.0
C1332 C 0.12663 0.29955 0.04305 0.0
C1333 C 0.13142 0.2885 0.02994 0.0
C1334 C 0.10927 0.31534 0.02348 0.0
C1335 C 0.11547 0.31303 0.03989 0.0
C1336 C 0.11391 0.30425 0.01046 0.0
C1337 C 0.14368 0.28221 0.9332 0.0
C1338 C 0.15006 0.31185 0.92698 0.0
C1339 C 0.14116 0.29278 0.90454 0.0
C1340 C 0.13998 0.2795 0.9161 0.0
C1341 C 0.14615 0.30907 0.90986 0.0
C1342 C 0.14881 0.29849 0.93862 0.0
C1343 C 0.14233 0.26753 0.94464 0.0
O1344 O 0.14837 0.23337 0.98293 0.0
O1345 O 0.12111 0.23347 0.97757 0.0
O1346 O 0.12706 0.26361 0.95 0.0
O1347 O 0.15415 0.26558 0.95616 0.0
H1348 H 0.15334 0.21566 0.95332 0.0
H1349 H 0.15438 0.18763 0.93936 0.0
H1350 H 0.11895 0.16775 0.97575 0.0
H1351 H 0.11825 0.19555 0.98992 0.0
H1352 H 0.13159 0.2976 0.05562 0.0
H1353 H 0.13986 0.27804 0.03265 0.0
H1354 H 0.10079 0.32577 0.02075 0.0
H1355 H 0.10883 0.30622 0.99794 0.0
H1356 H 0.15388 0.32438 0.93132 0.0
H1357 H 0.13804 0.29039 0.89144 0.0
H1358 H 0.1361 0.26701 0.91166 0.0
H1359 H 0.15177 0.30087 0.95176 0.0
C1360 C 0.37928 0.72279 0.52401 0.0
C1361 C 0.3794 0.7056 0.51895 0.0
C1362 C 0.38822 0.69708 0.54715 0.0
C1363 C 0.38386 0.69283 0.53046 0.0
C1364 C 0.38782 0.71421 0.55221 0.0
C1365 C 0.38342 0.72693 0.54073 0.0
U1366 U 0.36545 0.73949 0.48055 0.0
O1367 O 0.35052 0.76212 0.47362 0.0
O1368 O 0.37687 0.75951 0.46474 0.0
C1369 C 0.3629 0.76853 0.4645 0.0
C1370 C 0.37559 0.73669 0.51203 0.0
C1371 C 0.3642 0.78716 0.46233 0.0
C1372 C 0.36535 0.81653 0.47243 0.0
C1373 C 0.36464 0.79892 0.47576 0.0
C1374 C 0.36522 0.81058 0.44246 0.0
C1375 C 0.3657 0.82246 0.45569 0.0
C1376 C 0.36448 0.79319 0.44575 0.0
C1377 C 0.35422 0.70528 0.44649 0.0
C1378 C 0.36106 0.70226 0.41668 0.0
C1379 C 0.34192 0.68222 0.42998 0.0
C1380 C 0.34337 0.69116 0.44518 0.0
C1381 C 0.35129 0.6873 0.41584 0.0
C1382 C 0.36251 0.71123 0.43193 0.0
C1383 C 0.35874 0.71153 0.46351 0.0
O1384 O 0.38602 0.738 0.49918 0.0
O1385 O 0.35963 0.73876 0.50776 0.0
O1386 O 0.34713 0.71985 0.47205 0.0
O1387 O 0.37406 0.71789 0.46532 0.0
H1388 H 0.37623 0.7021 0.5061 0.0
H1389 H 0.38397 0.67967 0.52635 0.0
H1390 H 0.39106 0.71774 0.56503 0.0
H1391 H 0.38343 0.74008 0.54489 0.0
H1392 H 0.36558 0.8255 0.48284 0.0
H1393 H 0.36434 0.79454 0.48867 0.0
H1394 H 0.36533 0.81481 0.42948 0.0
H1395 H 0.364 0.78437 0.43521 0.0
H1396 H 0.36845 0.70628 0.4059 0.0
H1397 H 0.33441 0.67064 0.42958 0.0
H1398 H 0.33692 0.68632 0.45623 0.0
H1399 H 0.37093 0.72214 0.43259 0.0
C1400 C 0.71245 0.53333 0.87216 0.0
C1401 C 0.71099 0.55111 0.87368 0.0
C1402 C 0.68019 0.549 0.87149 0.0
C1403 C 0.695 0.55885 0.8734 0.0
C1404 C 0.6817 0.53129 0.86953 0.0
C1405 C 0.69768 0.52354 0.86992 0.0
U1406 U 0.76096 0.53363 0.86883 0.0
O1407 O 0.78037 0.52377 0.88605 0.0
O1408 O 0.7792 0.51421 0.85997 0.0
C1409 C 0.7869 0.5135 0.87466 0.0
C1410 C 0.72911 0.52477 0.87354 0.0
C1411 C 0.79383 0.49696 0.88035 0.0
C1412 C 0.7988 0.47588 0.90228 0.0
C1413 C 0.78961 0.48976 0.89602 0.0
C1414 C 0.8162 0.47587 0.87715 0.0
C1415 C 0.8124 0.46907 0.89302 0.0
C1416 C 0.807 0.48964 0.87089 0.0
C1417 C 0.7813 0.5762 0.85456 0.0
C1418 C 0.81106 0.58154 0.84865 0.0
C1419 C 0.79163 0.60518 0.85147 0.0
C1420 C 0.77832 0.59376 0.85426 0.0
C1421 C 0.80812 0.59919 0.8488 0.0
C1422 C 0.79773 0.57009 0.85163 0.0
C1423 C 0.76702 0.56476 0.8584 0.0
O1424 O 0.73725 0.52198 0.85933 0.0
O1425 O 0.73908 0.53032 0.88567 0.0
O1426 O 0.76512 0.56078 0.87434 0.0
O1427 O 0.76462 0.55181 0.84811 0.0
H1428 H 0.72218 0.55897 0.87534 0.0
H1429 H 0.69415 0.57253 0.87483 0.0
H1430 H 0.67048 0.52345 0.86794 0.0
H1431 H 0.69849 0.50984 0.86868 0.0
H1432 H 0.79566 0.47076 0.91454 0.0
H1433 H 0.77964 0.49521 0.90368 0.0
H1434 H 0.82661 0.4708 0.86981 0.0
H1435 H 0.81068 0.49508 0.8589 0.0
H1436 H 0.82374 0.57669 0.8467 0.0
H1437 H 0.78912 0.61872 0.85171 0.0
H1438 H 0.76571 0.59867 0.85647 0.0
H1439 H 0.80028 0.55656 0.85187 0.0
C1440 C 0.72377 0.48881 0.1305 0.0
C1441 C 0.70923 0.4951 0.1225 0.0
C1442 C 0.69784 0.46636 0.12001 0.0
C1443 C 0.69645 0.48394 0.11717 0.0
C1444 C 0.71202 0.46016 0.12866 0.0
C1445 C 0.72496 0.47131 0.13373 0.0
U1446 U 0.7453 0.53095 0.14455 0.0
O1447 O 0.76989 0.53441 0.15737 0.0
O1448 O 0.76621 0.54409 0.13125 0.0
C1449 C 0.77642 0.54208 0.14415 0.0
C1450 C 0.7385 0.49989 0.13406 0.0
C1451 C 0.79421 0.54758 0.14383 0.0
C1452 C 0.82419 0.54136 0.14051 0.0
C1453 C 0.80741 0.53573 0.14241 0.0
C1454 C 0.81465 0.57061 0.14183 0.0
C1455 C 0.82785 0.55885 0.14004 0.0
C1456 C 0.79794 0.565 0.14362 0.0
C1457 C 0.71191 0.56647 0.15849 0.0
C1458 C 0.71228 0.59713 0.16333 0.0
C1459 C 0.68561 0.58173 0.16297 0.0
C1460 C 0.69426 0.56657 0.16022 0.0
C1461 C 0.69445 0.59718 0.16413 0.0
C1462 C 0.72102 0.58179 0.16041 0.0
C1463 C 0.71964 0.55028 0.15318 0.0
O1464 O 0.74052 0.51291 0.12394 0.0
O1465 O 0.74159 0.50361 0.14994 0.0
O1466 O 0.72827 0.54135 0.16417 0.0
O1467 O 0.7254 0.54913 0.13768 0.0
H1468 H 0.70794 0.50855 0.11993 0.0
H1469 H 0.6855 0.48899 0.11068 0.0
H1470 H 0.71324 0.44668 0.13109 0.0
H1471 H 0.7361 0.46621 0.13982 0.0
H1472 H 0.83426 0.53213 0.13919 0.0
H1473 H 0.80471 0.52221 0.14237 0.0
H1474 H 0.81727 0.58415 0.14159 0.0
H1475 H 0.78786 0.57427 0.14461 0.0
H1476 H 0.71929 0.60899 0.16404 0.0
H1477 H 0.67188 0.5815 0.16338 0.0
H1478 H 0.68701 0.55491 0.15869 0.0
H1479 H 0.73467 0.58199 0.15905 0.0
C1480 C 0.72701 0.51695 0.37903 0.0
C1481 C 0.71328 0.5196 0.36802 0.0
C1482 C 0.70084 0.53982 0.38784 0.0
C1483 C 0.70035 0.53103 0.37237 0.0
C1484 C 0.71443 0.53703 0.39887 0.0
C1485 C 0.7274 0.52575 0.39447 0.0
U1486 U 0.74349 0.47402 0.36277 0.0
O1487 O 0.76641 0.46705 0.34834 0.0
O1488 O 0.76219 0.45657 0.37365 0.0
C1489 C 0.7722 0.45726 0.36043 0.0
C1490 C 0.74102 0.50508 0.3749 0.0
C1491 C 0.79074 0.4563 0.36346 0.0
C1492 C 0.82 0.46174 0.35485 0.0
C1493 C 0.80263 0.46558 0.35389 0.0
C1494 C 0.81389 0.43974 0.37523 0.0
C1495 C 0.82566 0.44853 0.36529 0.0
C1496 C 0.79666 0.44358 0.37433 0.0
C1497 C 0.70851 0.44179 0.34914 0.0
C1498 C 0.70932 0.41086 0.34975 0.0
C1499 C 0.68347 0.42536 0.34188 0.0
C1500 C 0.69165 0.44101 0.34368 0.0
C1501 C 0.69206 0.41025 0.34544 0.0
C1502 C 0.71753 0.42662 0.35165 0.0
C1503 C 0.71519 0.45842 0.35451 0.0
O1504 O 0.742 0.49154 0.38447 0.0
O1505 O 0.74378 0.50176 0.35885 0.0
O1506 O 0.72432 0.46705 0.34361 0.0
O1507 O 0.72117 0.4591 0.36994 0.0
H1508 H 0.71254 0.51289 0.35608 0.0
H1509 H 0.68993 0.53299 0.36371 0.0
H1510 H 0.71504 0.54369 0.41084 0.0
H1511 H 0.7378 0.5239 0.40318 0.0
H1512 H 0.82892 0.4686 0.34701 0.0
H1513 H 0.79848 0.47528 0.3452 0.0
H1514 H 0.81798 0.42943 0.38324 0.0
H1515 H 0.78782 0.43597 0.38157 0.0
H1516 H 0.71606 0.39927 0.35266 0.0
H1517 H 0.67012 0.42509 0.33865 0.0
H1518 H 0.68448 0.45257 0.3418 0.0
H1519 H 0.73055 0.427 0.35597 0.0
C1520 C 0.70973 0.46994 0.63259 0.0
C1521 C 0.70745 0.45346 0.62589 0.0
C1522 C 0.67737 0.45394 0.6332 0.0
C1523 C 0.69143 0.44558 0.62616 0.0
C1524 C 0.67972 0.47022 0.64026 0.0
C1525 C 0.69571 0.47814 0.63988 0.0
U1526 U 0.75869 0.47263 0.63555 0.0
O1527 O 0.77722 0.48463 0.61856 0.0
O1528 O 0.77552 0.49324 0.64493 0.0
C1529 C 0.78307 0.49503 0.63026 0.0
C1530 C 0.72623 0.47916 0.63131 0.0
C1531 C 0.78919 0.51218 0.62514 0.0
C1532 C 0.79527 0.53312 0.60326 0.0
C1533 C 0.78624 0.51878 0.60893 0.0
C1534 C 0.80975 0.53499 0.63009 0.0
C1535 C 0.80741 0.54107 0.61366 0.0
C1536 C 0.80075 0.52071 0.63574 0.0
C1537 C 0.78165 0.43093 0.64919 0.0
C1538 C 0.81112 0.4225 0.64567 0.0
C1539 C 0.79165 0.40435 0.661 0.0
C1540 C 0.77867 0.41606 0.65841 0.0
C1541 C 0.80788 0.40734 0.65445 0.0
C1542 C 0.79804 0.43427 0.64304 0.0
C1543 C 0.76702 0.44183 0.64526 0.0
O1544 O 0.73433 0.48222 0.6455 0.0
O1545 O 0.7364 0.4745 0.61901 0.0
O1546 O 0.76504 0.44612 0.6294 0.0
O1547 O 0.76368 0.45425 0.65587 0.0
H1548 H 0.71798 0.44673 0.62024 0.0
H1549 H 0.68997 0.43297 0.62076 0.0
H1550 H 0.66912 0.47688 0.64586 0.0
H1551 H 0.69708 0.49083 0.64511 0.0
H1552 H 0.79332 0.53759 0.59052 0.0
H1553 H 0.77757 0.51243 0.60037 0.0
H1554 H 0.81912 0.54083 0.63827 0.0
H1555 H 0.80352 0.51576 0.64816 0.0
H1556 H 0.82359 0.42497 0.6405 0.0
H1557 H 0.78891 0.3927 0.66774 0.0
H1558 H 0.76612 0.41324 0.6632 0.0
H1559 H 0.8006 0.44569 0.63586 0.0
C1560 C 0.46729 0.13302 0.26204 0.0
C1561 C 0.45068 0.13519 0.25604 0.0
C1562 C 0.44099 0.14121 0.2846 0.0
C1563 C 0.43757 0.13923 0.2673 0.0
C1564 C 0.45757 0.1389 0.29049 0.0
C1565 C 0.47058 0.1348 0.27931 0.0
U1566 U 0.48862 0.11909 0.22002 0.0
O1567 O 0.51071 0.1314 0.20784 0.0
O1568 O 0.51261 0.10495 0.21756 0.0
C1569 C 0.52023 0.11799 0.21045 0.0
C1570 C 0.48167 0.12954 0.25076 0.0
C1571 C 0.53816 0.11727 0.20531 0.0
C1572 C 0.56787 0.1125 0.21212 0.0
C1573 C 0.55069 0.11179 0.21663 0.0
C1574 C 0.56012 0.12375 0.18483 0.0
C1575 C 0.57267 0.11852 0.19618 0.0
C1576 C 0.54301 0.12326 0.18941 0.0
C1577 C 0.45593 0.10643 0.18361 0.0
C1578 C 0.45249 0.11075 0.15342 0.0
C1579 C 0.43078 0.09587 0.16922 0.0
C1580 C 0.44047 0.09756 0.18384 0.0
C1581 C 0.43644 0.10291 0.15404 0.0
C1582 C 0.46217 0.11261 0.16818 0.0
C1583 C 0.46318 0.1115 0.20002 0.0
O1584 O 0.48443 0.11352 0.2469 0.0
O1585 O 0.48362 0.13987 0.23795 0.0
O1586 O 0.46969 0.12687 0.2014 0.0
O1587 O 0.4708 0.10004 0.20933 0.0
H1588 H 0.44791 0.13386 0.24272 0.0
H1589 H 0.4248 0.14087 0.26257 0.0
H1590 H 0.46042 0.14027 0.30379 0.0
H1591 H 0.48331 0.13318 0.28414 0.0
H1592 H 0.57741 0.10837 0.22101 0.0
H1593 H 0.54723 0.10732 0.22906 0.0
H1594 H 0.56359 0.12831 0.17243 0.0
H1595 H 0.53356 0.12761 0.18054 0.0
H1596 H 0.45699 0.11632 0.14179 0.0
H1597 H 0.4184 0.08988 0.16995 0.0
H1598 H 0.43533 0.09289 0.19562 0.0
H1599 H 0.47401 0.11962 0.16772 0.0
C1600 C 0.96255 0.89755 0.7172 0.0
C1601 C 0.96197 0.90105 0.69987 0.0
C1602 C 0.9314 0.8964 0.69991 0.0
C1603 C 0.94643 0.90052 0.69127 0.0
C1604 C 0.932 0.89361 0.71734 0.0
C1605 C 0.94746 0.89413 0.72588 0.0
U1606 U 0.01167 0.89513 0.72185 0.0
O1607 O 0.02409 0.8742 0.73527 0.0
O1608 O 0.02725 0.90066 0.74446 0.0
C1609 C 0.03025 0.8844 0.74695 0.0
C1610 C 0.97863 0.89529 0.72626 0.0
C1611 C 0.04443 0.87865 0.75768 0.0
C1612 C 0.05627 0.85592 0.77472 0.0
C1613 C 0.04477 0.8615 0.76261 0.0
C1614 C 0.06756 0.88452 0.77724 0.0
C1615 C 0.06762 0.8674 0.78224 0.0
C1616 C 0.056 0.89015 0.76506 0.0
C1617 C 0.03874 0.90413 0.68083 0.0
C1618 C 0.06734 0.91354 0.67399 0.0
C1619 C 0.04998 0.89992 0.65258 0.0
C1620 C 0.03682 0.89826 0.6642 0.0
C1621 C 0.06533 0.90751 0.65739 0.0
C1622 C 0.05408 0.91189 0.68569 0.0
C1623 C 0.02389 0.9029 0.69205 0.0
O1624 O 0.98726 0.88176 0.72187 0.0
O1625 O 0.98823 0.90877 0.72885 0.0
O1626 O 0.02233 0.91407 0.70436 0.0
O1627 O 0.01874 0.88752 0.69608 0.0
H1628 H 0.97353 0.90358 0.69293 0.0
H1629 H 0.94619 0.90275 0.67781 0.0
H1630 H 0.92056 0.89042 0.72421 0.0
H1631 H 0.94771 0.89122 0.73922 0.0
H1632 H 0.05605 0.84271 0.77855 0.0
H1633 H 0.03571 0.85245 0.75751 0.0
H1634 H 0.07624 0.89356 0.78299 0.0
H1635 H 0.05583 0.9035 0.76176 0.0
H1636 H 0.07917 0.91939 0.67789 0.0
H1637 H 0.04824 0.89517 0.63985 0.0
H1638 H 0.02501 0.89247 0.66013 0.0
H1639 H 0.0558 0.91668 0.6984 0.0
C1640 C 0.53867 0.8905 0.28444 0.0
C1641 C 0.54002 0.89456 0.30168 0.0
C1642 C 0.57065 0.89006 0.30075 0.0
C1643 C 0.55587 0.89432 0.30975 0.0
C1644 C 0.56928 0.88648 0.28342 0.0
C1645 C 0.55345 0.8866 0.27539 0.0
U1646 U 0.49004 0.89248 0.28497 0.0
O1647 O 0.47154 0.90229 0.2665 0.0
O1648 O 0.47111 0.87525 0.27352 0.0
C1649 C 0.46403 0.88741 0.26472 0.0
C1650 C 0.522 0.8895 0.27586 0.0
C1651 C 0.45631 0.8829 0.24827 0.0
C1652 C 0.45731 0.87274 0.21917 0.0
C1653 C 0.46572 0.87768 0.23412 0.0
C1654 C 0.43024 0.87828 0.23241 0.0
C1655 C 0.43948 0.87287 0.21831 0.0
C1656 C 0.43857 0.88327 0.24719 0.0
C1657 C 0.46952 0.9018 0.32856 0.0
C1658 C 0.43954 0.90501 0.33483 0.0
C1659 C 0.45966 0.9011 0.35756 0.0
C1660 C 0.47285 0.90048 0.34586 0.0
C1661 C 0.44288 0.90317 0.35214 0.0
C1662 C 0.45279 0.90424 0.32306 0.0
C1663 C 0.48377 0.89982 0.31674 0.0
O1664 O 0.51239 0.87653 0.28014 0.0
O1665 O 0.51348 0.90379 0.27463 0.0
O1666 O 0.48555 0.91145 0.30503 0.0
O1667 O 0.48634 0.88429 0.31117 0.0
H1668 H 0.5288 0.89762 0.30893 0.0
H1669 H 0.55659 0.89721 0.3231 0.0
H1670 H 0.58046 0.88323 0.27618 0.0
H1671 H 0.5527 0.8834 0.26211 0.0
H1672 H 0.46467 0.86861 0.20839 0.0
H1673 H 0.47942 0.87725 0.23468 0.0
H1674 H 0.41652 0.87852 0.23203 0.0
H1675 H 0.43106 0.88721 0.25795 0.0
H1676 H 0.42664 0.90662 0.33044 0.0
H1677 H 0.46249 0.89966 0.37083 0.0
H1678 H 0.48569 0.89861 0.35031 0.0
H1679 H 0.44997 0.90525 0.30974 0.0
C1680 C 0.87362 0.77061 0.02347 0.0
C1681 C 0.87576 0.76565 0.04034 0.0
C1682 C 0.86432 0.79275 0.05002 0.0
C1683 C 0.87118 0.77668 0.05353 0.0
C1684 C 0.86215 0.79762 0.03316 0.0
C1685 C 0.86677 0.78664 0.02001 0.0
U1686 U 0.88732 0.72716 0.00687 0.0
O1687 O 0.87774 0.7118 0.98571 0.0
O1688 O 0.90456 0.71964 0.98616 0.0
C1689 C 0.89246 0.71155 0.97794 0.0
C1690 C 0.87804 0.75913 0.00934 0.0
C1691 C 0.89242 0.7122 0.95929 0.0
C1692 C 0.87721 0.71536 0.93272 0.0
C1693 C 0.87878 0.71889 0.95004 0.0
C1694 C 0.90343 0.6995 0.93352 0.0
C1695 C 0.8892 0.70503 0.92453 0.0
C1696 C 0.90503 0.7031 0.95071 0.0
C1697 C 0.89371 0.69375 0.04289 0.0
C1698 C 0.90916 0.66714 0.04538 0.0
C1699 C 0.88901 0.67547 0.06694 0.0
C1700 C 0.88542 0.69022 0.05807 0.0
C1701 C 0.90104 0.66392 0.06083 0.0
C1702 C 0.90546 0.68201 0.03638 0.0
C1703 C 0.89035 0.71035 0.03517 0.0
O1704 O 0.89397 0.75438 0.00848 0.0
O1705 O 0.86733 0.74657 0.00661 0.0
O1706 O 0.87593 0.71186 0.02707 0.0
O1707 O 0.90306 0.71841 0.028 0.0
H1708 H 0.88096 0.75328 0.04329 0.0
H1709 H 0.873 0.77272 0.06646 0.0
H1710 H 0.85693 0.80997 0.0302 0.0
H1711 H 0.86497 0.79067 0.0071 0.0
H1712 H 0.86605 0.71958 0.92602 0.0
H1713 H 0.86882 0.72589 0.95637 0.0
H1714 H 0.9127 0.69136 0.9275 0.0
H1715 H 0.91556 0.69767 0.95757 0.0
H1716 H 0.91861 0.65841 0.04059 0.0
H1717 H 0.88277 0.6733 0.07891 0.0
H1718 H 0.87644 0.69917 0.06335 0.0
H1719 H 0.91203 0.68454 0.02466 0.0
C1720 C 0.61062 0.28689 0.45701 0.0
C1721 C 0.61686 0.30354 0.45523 0.0
C1722 C 0.61257 0.3018 0.42488 0.0
C1723 C 0.6178 0.31094 0.43925 0.0
C1724 C 0.60571 0.28543 0.42676 0.0
C1725 C 0.6048 0.27803 0.44271 0.0
U1726 U 0.61353 0.27695 0.50588 0.0
O1727 O 0.60689 0.25218 0.51721 0.0
O1728 O 0.63364 0.26014 0.51514 0.0
C1729 C 0.62288 0.2481 0.51933 0.0
C1730 C 0.61261 0.27737 0.47279 0.0
C1731 C 0.62766 0.23654 0.53299 0.0
C1732 C 0.64163 0.2102 0.54052 0.0
C1733 C 0.63614 0.22161 0.52834 0.0
C1734 C 0.62999 0.22837 0.56239 0.0
C1735 C 0.63869 0.2135 0.55762 0.0
C1736 C 0.62449 0.23991 0.55009 0.0
C1737 C 0.60334 0.31926 0.53432 0.0
C1738 C 0.58688 0.33311 0.55639 0.0
C1739 C 0.61201 0.34693 0.54536 0.0
C1740 C 0.61445 0.3333 0.5342 0.0
C1741 C 0.59848 0.3467 0.55683 0.0
C1742 C 0.58928 0.3195 0.5452 0.0
C1743 C 0.60702 0.30395 0.52404 0.0
O1744 O 0.62628 0.28065 0.48169 0.0
O1745 O 0.59915 0.27412 0.48202 0.0
O1746 O 0.59523 0.29273 0.52002 0.0
O1747 O 0.62228 0.30066 0.51823 0.0
H1748 H 0.62157 0.31055 0.46606 0.0
H1749 H 0.62299 0.32366 0.43802 0.0
H1750 H 0.6015 0.27825 0.41583 0.0
H1751 H 0.60019 0.26507 0.44379 0.0
H1752 H 0.64827 0.19881 0.53662 0.0
H1753 H 0.63866 0.21883 0.51519 0.0
H1754 H 0.62759 0.23105 0.57558 0.0
H1755 H 0.61795 0.25139 0.55389 0.0
H1756 H 0.57646 0.33266 0.56527 0.0
H1757 H 0.62109 0.35731 0.54555 0.0
H1758 H 0.6253 0.33353 0.52584 0.0
H1759 H 0.58056 0.30884 0.54558 0.0
C1760 C 0.27014 0.47381 0.12798 0.0
C1761 C 0.26401 0.46015 0.13766 0.0
C1762 C 0.29187 0.44691 0.13721 0.0
C1763 C 0.27482 0.4469 0.14232 0.0
C1764 C 0.29788 0.4603 0.12716 0.0
C1765 C 0.28711 0.47367 0.12266 0.0
U1766 U 0.2271 0.49148 0.11526 0.0
O1767 O 0.21274 0.5135 0.12454 0.0
O1768 O 0.21972 0.51194 0.0977 0.0
C1769 C 0.21202 0.52066 0.10962 0.0
C1770 C 0.25913 0.4884 0.12366 0.0
C1771 C 0.21231 0.53945 0.10889 0.0
C1772 C 0.22019 0.56728 0.12032 0.0
C1773 C 0.22294 0.54962 0.11907 0.0
C1774 C 0.19682 0.56476 0.10067 0.0
C1775 C 0.20666 0.57483 0.11158 0.0
C1776 C 0.19966 0.54729 0.09931 0.0
C1777 C 0.19275 0.45557 0.10961 0.0
C1778 C 0.16214 0.4546 0.11339 0.0
C1779 C 0.17699 0.42992 0.10256 0.0
C1780 C 0.19226 0.43888 0.10334 0.0
C1781 C 0.16193 0.43755 0.10798 0.0
C1782 C 0.17754 0.4636 0.11425 0.0
C1783 C 0.20952 0.46311 0.11297 0.0
O1784 O 0.25399 0.48913 0.10792 0.0
O1785 O 0.24708 0.492 0.13455 0.0
O1786 O 0.21133 0.47178 0.12707 0.0
O1787 O 0.21772 0.46974 0.10016 0.0
H1788 H 0.25094 0.45979 0.1418 0.0
H1789 H 0.26992 0.43664 0.15001 0.0
H1790 H 0.31097 0.46053 0.12305 0.0
H1791 H 0.29209 0.48402 0.11513 0.0
H1792 H 0.22779 0.57481 0.12896 0.0
H1793 H 0.23273 0.54383 0.12667 0.0
H1794 H 0.1862 0.57024 0.094 0.0
H1795 H 0.19121 0.5397 0.09152 0.0
H1796 H 0.15058 0.46062 0.11766 0.0
H1797 H 0.17704 0.41677 0.09842 0.0
H1798 H 0.20385 0.43246 0.09978 0.0
H1799 H 0.17765 0.47648 0.11917 0.0
C1800 C 0.2867 0.54307 0.89652 0.0
C1801 C 0.30412 0.54476 0.89982 0.0
C1802 C 0.30213 0.57548 0.89584 0.0
C1803 C 0.3118 0.56096 0.89955 0.0
C1804 C 0.28468 0.57368 0.89303 0.0
C1805 C 0.27706 0.55766 0.89343 0.0
U1806 U 0.27675 0.4932 0.89298 0.0
O1807 O 0.25794 0.48436 0.87448 0.0
O1808 O 0.25232 0.4822 0.90153 0.0
C1809 C 0.24692 0.47977 0.88602 0.0
C1810 C 0.27797 0.52655 0.89488 0.0
C1811 C 0.23593 0.46493 0.88232 0.0
C1812 C 0.20738 0.45292 0.88304 0.0
C1813 C 0.2192 0.46513 0.88841 0.0
C1814 C 0.22891 0.43982 0.86559 0.0
C1815 C 0.21205 0.44035 0.87135 0.0
C1816 C 0.24078 0.45201 0.87103 0.0
C1817 C 0.31833 0.46303 0.89853 0.0
C1818 C 0.32962 0.43551 0.9066 0.0
C1819 C 0.34789 0.45622 0.89309 0.0
C1820 C 0.33435 0.46765 0.89231 0.0
C1821 C 0.34551 0.43996 0.89993 0.0
C1822 C 0.31614 0.44702 0.906 0.0
C1823 C 0.30375 0.47446 0.89628 0.0
O1824 O 0.28008 0.51802 0.88078 0.0
O1825 O 0.27605 0.51686 0.90821 0.0
O1826 O 0.29367 0.47811 0.909 0.0
O1827 O 0.29935 0.48083 0.88163 0.0
H1828 H 0.31177 0.53362 0.90215 0.0
H1829 H 0.32532 0.56211 0.90163 0.0
H1830 H 0.27703 0.58467 0.89003 0.0
H1831 H 0.26362 0.55659 0.89077 0.0
H1832 H 0.19448 0.45352 0.88768 0.0
H1833 H 0.2151 0.47513 0.89691 0.0
H1834 H 0.2328 0.43013 0.85666 0.0
H1835 H 0.25354 0.45165 0.86602 0.0
H1836 H 0.32755 0.42297 0.91182 0.0
H1837 H 0.36005 0.45984 0.88785 0.0
H1838 H 0.33629 0.47997 0.88655 0.0
H1839 H 0.30386 0.44318 0.9108 0.0
C1840 C 0.28369 0.4622 0.61008 0.0
C1841 C 0.29839 0.45931 0.60058 0.0
C1842 C 0.29868 0.42981 0.61007 0.0
C1843 C 0.30578 0.44312 0.60049 0.0
C1844 C 0.28375 0.43273 0.61916 0.0
C1845 C 0.27628 0.44875 0.61904 0.0
U1846 U 0.27635 0.51222 0.6124 0.0
O1847 O 0.25868 0.52236 0.63124 0.0
O1848 O 0.25231 0.52398 0.60423 0.0
C1849 C 0.24744 0.5267 0.61986 0.0
C1850 C 0.27549 0.47887 0.61135 0.0
C1851 C 0.23631 0.54112 0.62368 0.0
C1852 C 0.20733 0.55081 0.62701 0.0
C1853 C 0.21884 0.53848 0.62176 0.0
C1854 C 0.23065 0.56889 0.63603 0.0
C1855 C 0.21312 0.56603 0.63429 0.0
C1856 C 0.24224 0.55643 0.63079 0.0
C1857 C 0.31954 0.54016 0.60517 0.0
C1858 C 0.33366 0.56395 0.59144 0.0
C1859 C 0.34737 0.54964 0.61468 0.0
C1860 C 0.33357 0.53846 0.61593 0.0
C1861 C 0.34728 0.56273 0.60274 0.0
C1862 C 0.31991 0.55271 0.59262 0.0
C1863 C 0.30402 0.52996 0.60794 0.0
O1864 O 0.27823 0.48763 0.62522 0.0
O1865 O 0.27403 0.48832 0.59779 0.0
O1866 O 0.29359 0.52621 0.5955 0.0
O1867 O 0.29972 0.52394 0.62279 0.0
H1868 H 0.30425 0.46953 0.59354 0.0
H1869 H 0.31736 0.44109 0.59344 0.0
H1870 H 0.27811 0.42272 0.62666 0.0
H1871 H 0.26482 0.45076 0.62631 0.0
H1872 H 0.19388 0.54845 0.6255 0.0
H1873 H 0.21404 0.52664 0.61653 0.0
H1874 H 0.23529 0.58068 0.64147 0.0
H1875 H 0.25569 0.55861 0.63252 0.0
H1876 H 0.33333 0.57409 0.58225 0.0
H1877 H 0.35777 0.54855 0.62351 0.0
H1878 H 0.33363 0.52883 0.62565 0.0
H1879 H 0.30921 0.55435 0.58424 0.0
C1880 C 0.26899 0.52959 0.37995 0.0
C1881 C 0.26376 0.5439 0.37077 0.0
C1882 C 0.29255 0.55544 0.37115 0.0
C1883 C 0.27544 0.55661 0.36632 0.0
C1884 C 0.29767 0.54142 0.38078 0.0
C1885 C 0.28602 0.52858 0.38504 0.0
U1886 U 0.22476 0.5134 0.39186 0.0
O1887 O 0.20924 0.49244 0.38163 0.0
O1888 O 0.21597 0.49264 0.40854 0.0
C1889 C 0.20781 0.48481 0.39627 0.0
C1890 C 0.25705 0.51543 0.38382 0.0
C1891 C 0.20689 0.466 0.3963 0.0
C1892 C 0.21433 0.43815 0.38493 0.0
C1893 C 0.2175 0.45573 0.38634 0.0
C1894 C 0.19026 0.44088 0.40367 0.0
C1895 C 0.2004 0.43068 0.39326 0.0
C1896 C 0.19352 0.45833 0.4052 0.0
C1897 C 0.19205 0.55019 0.3982 0.0
C1898 C 0.16122 0.54997 0.39755 0.0
C1899 C 0.17649 0.57635 0.40266 0.0
C1900 C 0.1918 0.56767 0.40169 0.0
C1901 C 0.16114 0.56766 0.40023 0.0
C1902 C 0.17667 0.54124 0.39648 0.0
C1903 C 0.20861 0.54239 0.39491 0.0
O1904 O 0.2517 0.51444 0.39949 0.0
O1905 O 0.24492 0.5127 0.37274 0.0
O1906 O 0.21027 0.53419 0.38053 0.0
O1907 O 0.2162 0.53492 0.40759 0.0
H1908 H 0.25069 0.54516 0.36682 0.0
H1909 H 0.27114 0.56737 0.35903 0.0
H1910 H 0.31075 0.54029 0.38475 0.0
H1911 H 0.29036 0.51772 0.39218 0.0
H1912 H 0.22232 0.43048 0.37684 0.0
H1913 H 0.22782 0.46135 0.37927 0.0
H1914 H 0.17948 0.43543 0.41018 0.0
H1915 H 0.18511 0.46602 0.41285 0.0
H1916 H 0.14943 0.54313 0.3956 0.0
H1917 H 0.17663 0.58999 0.40469 0.0
H1918 H 0.20354 0.57477 0.403 0.0
H1919 H 0.17664 0.52772 0.39375 0.0
H1920 H 0.12157 0.37645 0.08719 0.0
H1921 H 0.09742 0.39163 0.1327 0.0
H1922 H 0.0817 0.34561 0.1083 0.0
C1923 C 0.11112 0.37455 0.09577 0.0
C1924 C 0.09941 0.36101 0.09349 0.0
C1925 C 0.10995 0.38596 0.10932 0.0
C1926 C 0.0981 0.38299 0.12202 0.0
C1927 C 0.08819 0.36818 0.12177 0.0
C1928 C 0.08884 0.35729 0.10756 0.0
H1929 H 0.88587 0.87637 0.41949 0.0
H1930 H 0.90828 0.89329 0.37314 0.0
H1931 H 0.92454 0.84631 0.39558 0.0
C1932 C 0.89518 0.87476 0.40956 0.0
C1933 C 0.90535 0.86017 0.40927 0.0
C1934 C 0.89636 0.88683 0.39667 0.0
C1935 C 0.90786 0.88426 0.38342 0.0
C1936 C 0.91789 0.86955 0.38271 0.0
C1937 C 0.91699 0.85778 0.39604 0.0
H1938 H 0.38747 0.62825 0.58354 0.0
H1939 H 0.40886 0.60896 0.62928 0.0
H1940 H 0.42491 0.65781 0.61039 0.0
C1941 C 0.39655 0.6295 0.59375 0.0
C1942 C 0.40617 0.64447 0.59535 0.0
C1943 C 0.39751 0.61673 0.60591 0.0
C1944 C 0.4086 0.61865 0.61961 0.0
C1945 C 0.41872 0.63335 0.62135 0.0
C1946 C 0.41758 0.6462 0.60897 0.0
H1947 H 0.6203 0.12938 0.92097 0.0
H1948 H 0.59738 0.11084 0.87564 0.0
H1949 H 0.57915 0.15648 0.89857 0.0
C1950 C 0.61011 0.12966 0.91186 0.0
C1951 C 0.59975 0.1442 0.91162 0.0
C1952 C 0.60755 0.11575 0.90078 0.0
C1953 C 0.59719 0.11896 0.88661 0.0
C1954 C 0.58708 0.13359 0.88573 0.0
C1955 C 0.58739 0.14551 0.89897 0.0
H1956 H 0.12212 0.63032 0.41892 0.0
H1957 H 0.09492 0.61094 0.3761 0.0
H1958 H 0.07912 0.65768 0.39957 0.0
C1959 C 0.11167 0.63143 0.41012 0.0
C1960 C 0.10055 0.64534 0.41138 0.0
C1961 C 0.10921 0.61859 0.398 0.0
C1962 C 0.09631 0.62037 0.38603 0.0
C1963 C 0.08622 0.63498 0.38591 0.0
C1964 C 0.08753 0.64683 0.39926 0.0
H1965 H 0.62117 0.87524 0.58695 0.0
H1966 H 0.595 0.89387 0.63053 0.0
H1967 H 0.57775 0.84791 0.60604 0.0
C1968 C 0.61077 0.87404 0.59582 0.0
C1969 C 0.59954 0.86013 0.59454 0.0
C1970 C 0.60872 0.88658 0.60823 0.0
C1971 C 0.59597 0.88468 0.62032 0.0
C1972 C 0.58542 0.87028 0.62015 0.0
C1973 C 0.58642 0.85863 0.60656 0.0
H1974 H 0.38691 0.37624 0.92002 0.0
H1975 H 0.40679 0.39323 0.87267 0.0
H1976 H 0.42814 0.34917 0.8969 0.0
C1977 C 0.39609 0.37497 0.90992 0.0
C1978 C 0.4073 0.3612 0.90986 0.0
C1979 C 0.39624 0.38679 0.8968 0.0
C1980 C 0.40738 0.3845 0.88318 0.0
C1981 C 0.41902 0.37092 0.88288 0.0
C1982 C 0.41931 0.35967 0.89676 0.0
H1983 H 0.88756 0.12913 0.08347 0.0
H1984 H 0.90997 0.10922 0.12852 0.0
H1985 H 0.92413 0.15911 0.11101 0.0
C1986 C 0.89666 0.13035 0.09365 0.0
C1987 C 0.90597 0.14549 0.09552 0.0
C1988 C 0.89793 0.11736 0.10558 0.0
C1989 C 0.90929 0.11913 0.11909 0.0
C1990 C 0.91889 0.13411 0.12113 0.0
C1991 C 0.91725 0.14727 0.10922 0.0
H1992 H 0.07399 0.11541 0.38194 0.0
H1993 H 0.12266 0.09808 0.39908 0.0
H1994 H 0.10192 0.0789 0.35255 0.0
C1995 C 0.08495 0.10728 0.38039 0.0
C1996 C 0.08657 0.09748 0.36563 0.0
C1997 C 0.09804 0.10788 0.39244 0.0
C1998 C 0.11231 0.09749 0.3901 0.0
C1999 C 0.11356 0.08666 0.37604 0.0
C2000 C 0.10064 0.08666 0.3638 0.0
H2001 H 0.11187 0.8851 0.59638 0.0
H2002 H 0.13139 0.93086 0.61906 0.0
H2003 H 0.15945 0.9061 0.57947 0.0
C2004 C 0.1214 0.89508 0.59677 0.0
C2005 C 0.13565 0.8941 0.58618 0.0
C2006 C 0.11971 0.90846 0.60838 0.0
C2007 C 0.13234 0.92096 0.60953 0.0
C2008 C 0.14676 0.9201 0.59927 0.0
C2009 C 0.14819 0.90692 0.58725 0.0
H2010 H 0.43089 0.88969 0.88364 0.0
H2011 H 0.38102 0.90649 0.89763 0.0
H2012 H 0.40471 0.92554 0.85255 0.0
C2013 C 0.42007 0.89789 0.88159 0.0
C2014 C 0.41912 0.90726 0.86669 0.0
C2015 C 0.40626 0.89721 0.89271 0.0
C2016 C 0.39196 0.90729 0.88939 0.0
C2017 C 0.39153 0.91814 0.87531 0.0
C2018 C 0.40531 0.91812 0.86401 0.0
H2019 H 0.37223 0.08159 0.11372 0.0
H2020 H 0.39141 0.12738 0.09138 0.0
H2021 H 0.34512 0.1047 0.07272 0.0
C2022 C 0.37123 0.09142 0.10424 0.0
C2023 C 0.3572 0.09161 0.09338 0.0
C2024 C 0.38371 0.10411 0.10332 0.0
C2025 C 0.382 0.11728 0.09159 0.0
C2026 C 0.36812 0.11779 0.08048 0.0
C2027 C 0.35592 0.10454 0.08115 0.0
H2028 H 0.0757 0.88697 0.12033 0.0
H2029 H 0.12436 0.90474 0.10307 0.0
H2030 H 0.10443 0.92232 0.15052 0.0
C2031 C 0.08671 0.89516 0.12185 0.0
C2032 C 0.08861 0.90456 0.13677 0.0
C2033 C 0.09973 0.89465 0.10981 0.0
C2034 C 0.1141 0.90511 0.11215 0.0
C2035 C 0.11554 0.91568 0.12646 0.0
C2036 C 0.10285 0.91514 0.13892 0.0
H2037 H 0.37762 0.92274 0.38974 0.0
H2038 H 0.39467 0.87722 0.41277 0.0
H2039 H 0.34967 0.90088 0.43119 0.0
C2040 C 0.37629 0.91395 0.40009 0.0
C2041 C 0.36325 0.91586 0.41221 0.0
C2042 C 0.38798 0.90068 0.40077 0.0
C2043 C 0.38581 0.88772 0.41254 0.0
C2044 C 0.37181 0.88781 0.42343 0.0
C2045 C 0.36065 0.90184 0.42324 0.0
H2046 H 0.38293 0.09982 0.60546 0.0
H2047 H 0.4318 0.11796 0.62182 0.0
H2048 H 0.40275 0.08479 0.65367 0.0
C2049 C 0.39323 0.09972 0.6145 0.0
C2050 C 0.39161 0.09016 0.62939 0.0
C2051 C 0.40777 0.10974 0.61164 0.0
C2052 C 0.42078 0.10988 0.6237 0.0
C2053 C 0.41877 0.10144 0.63904 0.0
C2054 C 0.40441 0.09118 0.64171 0.0
H2055 H 0.10872 0.11751 0.90949 0.0
H2056 H 0.13249 0.07478 0.88551 0.0
H2057 H 0.15958 0.10346 0.92334 0.0
C2058 C 0.11941 0.10894 0.90849 0.0
C2059 C 0.13416 0.11216 0.91798 0.0
C2060 C 0.11887 0.09563 0.89666 0.0
C2061 C 0.13281 0.08485 0.8949 0.0
C2062 C 0.14744 0.08739 0.90467 0.0
C2063 C 0.14806 0.10106 0.91625 0.0
H2064 H 0.87279 0.42503 0.89015 0.0
H2065 H 0.89354 0.38004 0.91227 0.0
H2066 H 0.84823 0.40238 0.9331 0.0
C2067 C 0.87222 0.41526 0.89974 0.0
C2068 C 0.85884 0.41521 0.91141 0.0
C2069 C 0.88501 0.40299 0.9004 0.0
C2070 C 0.88402 0.38994 0.91234 0.0
C2071 C 0.87067 0.38934 0.92409 0.0
C2072 C 0.85845 0.4025 0.92398 0.0
H2073 H 0.88211 0.6038 0.10724 0.0
H2074 H 0.93303 0.61885 0.11979 0.0
H2075 H 0.90664 0.58295 0.15095 0.0
C2076 C 0.89329 0.60249 0.11507 0.0
C2077 C 0.89292 0.59136 0.12892 0.0
C2078 C 0.90789 0.61209 0.11139 0.0
C2079 C 0.92201 0.61086 0.12203 0.0
C2080 C 0.92115 0.60125 0.13678 0.0
C2081 C 0.90711 0.59064 0.13965 0.0
H2082 H 0.60867 0.6181 0.40909 0.0
H2083 H 0.63133 0.57451 0.38559 0.0
H2084 H 0.65915 0.60298 0.42309 0.0
C2085 C 0.61912 0.60923 0.4082 0.0
C2086 C 0.63394 0.61218 0.41765 0.0
C2087 C 0.61822 0.59578 0.39658 0.0
C2088 C 0.63192 0.58466 0.39488 0.0
C2089 C 0.64665 0.58699 0.40456 0.0
C2090 C 0.64758 0.60075 0.41604 0.0
H2091 H 0.92988 0.39066 0.38668 0.0
H2092 H 0.87937 0.40633 0.39617 0.0
H2093 H 0.90407 0.42369 0.35172 0.0
C2094 C 0.91974 0.39897 0.38314 0.0
C2095 C 0.92047 0.40871 0.36821 0.0
C2096 C 0.90505 0.39769 0.393 0.0
C2097 C 0.89083 0.40727 0.38869 0.0
C2098 C 0.89102 0.41737 0.37423 0.0
C2099 C 0.90538 0.41742 0.36369 0.0
H2100 H 0.57638 0.61436 0.88057 0.0
H2101 H 0.62484 0.59721 0.89833 0.0
H2102 H 0.60492 0.57834 0.85121 0.0
C2103 C 0.58735 0.60621 0.87917 0.0
C2104 C 0.58922 0.59652 0.86441 0.0
C2105 C 0.60028 0.60684 0.89133 0.0
C2106 C 0.61468 0.5966 0.88914 0.0
C2107 C 0.61626 0.58584 0.875 0.0
C2108 C 0.60345 0.58591 0.86257 0.0
H2109 H 0.85517 0.66024 0.86767 0.0
H2110 H 0.87585 0.63665 0.82339 0.0
H2111 H 0.90581 0.6729 0.85145 0.0
C2112 C 0.86534 0.65924 0.85853 0.0
C2113 C 0.88049 0.66842 0.86108 0.0
C2114 C 0.86382 0.64747 0.84526 0.0
C2115 C 0.87695 0.64591 0.83352 0.0
C2116 C 0.89201 0.65529 0.83545 0.0
C2117 C 0.89386 0.66634 0.84942 0.0
H2118 H 0.14991 0.16276 0.639 0.0
H2119 H 0.13046 0.13337 0.68036 0.0
H2120 H 0.09879 0.17035 0.6564 0.0
C2121 C 0.13988 0.16002 0.64794 0.0
C2122 C 0.12404 0.16787 0.64609 0.0
C2123 C 0.14218 0.14715 0.65996 0.0
C2124 C 0.12895 0.14345 0.6712 0.0
C2125 C 0.11357 0.15221 0.67043 0.0
C2126 C 0.11106 0.16437 0.65776 0.0
H2127 H 0.63118 0.3697 0.32622 0.0
H2128 H 0.6485 0.34354 0.37038 0.0
H2129 H 0.59884 0.33298 0.35025 0.0
C2130 C 0.62929 0.36004 0.33577 0.0
C2131 C 0.61393 0.35108 0.33634 0.0
C2132 C 0.64179 0.35739 0.34798 0.0
C2133 C 0.63905 0.34525 0.36062 0.0
C2134 C 0.62346 0.33665 0.36169 0.0
C2135 C 0.61103 0.33931 0.34929 0.0
H2136 H 0.35343 0.84515 0.13676 0.0
H2137 H 0.3767 0.87255 0.17759 0.0
H2138 H 0.40604 0.83663 0.14897 0.0
C2139 C 0.36442 0.84748 0.14465 0.0
C2140 C 0.37983 0.83913 0.14105 0.0
C2141 C 0.36348 0.86011 0.15723 0.0
C2142 C 0.37744 0.86293 0.16778 0.0
C2143 C 0.39259 0.85399 0.16531 0.0
C2144 C 0.39397 0.84263 0.15153 0.0
H2145 H 0.85844 0.34787 0.63182 0.0
H2146 H 0.8743 0.37123 0.67842 0.0
H2147 H 0.90611 0.33517 0.65346 0.0
C2148 C 0.86657 0.34857 0.6427 0.0
C2149 C 0.88193 0.33966 0.64158 0.0
C2150 C 0.86233 0.35859 0.65698 0.0
C2151 C 0.87558 0.36168 0.66867 0.0
C2152 C 0.89124 0.35327 0.66761 0.0
C2153 C 0.8941 0.34174 0.65435 0.0
H2154 H 0.35645 0.15689 0.37075 0.0
H2155 H 0.37262 0.13756 0.3226 0.0
H2156 H 0.40294 0.17493 0.34868 0.0
C2157 C 0.3652 0.15719 0.36022 0.0
C2158 C 0.37955 0.16778 0.36095 0.0
C2159 C 0.36256 0.14631 0.34637 0.0
C2160 C 0.3743 0.14633 0.33307 0.0
C2161 C 0.38898 0.15645 0.33393 0.0
C2162 C 0.39141 0.16744 0.34773 0.0
H2163 H 0.64944 0.66129 0.13892 0.0
H2164 H 0.62729 0.63223 0.17914 0.0
H2165 H 0.59659 0.6673 0.15133 0.0
C2166 C 0.63864 0.65825 0.14681 0.0
C2167 C 0.62282 0.66584 0.14341 0.0
C2168 C 0.64032 0.64567 0.1593 0.0
C2169 C 0.62624 0.64188 0.16948 0.0
C2170 C 0.61068 0.65017 0.1672 0.0
C2171 C 0.60886 0.66172 0.15378 0.0
H2172 H 0.13193 0.86446 0.82207 0.0
H2173 H 0.14585 0.85018 0.87243 0.0
H2174 H 0.10055 0.82963 0.84978 0.0
C2175 C 0.12967 0.85695 0.83329 0.0
C2176 C 0.11464 0.84753 0.83456 0.0
C2177 C 0.14074 0.85854 0.84703 0.0
C2178 C 0.13756 0.84891 0.86159 0.0
C2179 C 0.12356 0.83782 0.86235 0.0
C2180 C 0.11195 0.8373 0.84885 0.0
H2181 H 0.82905 0.87594 0.63459 0.0
H2182 H 0.87936 0.8628 0.65015 0.0
H2183 H 0.85596 0.90844 0.66933 0.0
C2184 C 0.84012 0.87861 0.64229 0.0
C2185 C 0.84102 0.89388 0.65155 0.0
C2186 C 0.85397 0.8675 0.64161 0.0
C2187 C 0.86856 0.87123 0.65101 0.0
C2188 C 0.86921 0.88567 0.66159 0.0
C2189 C 0.85534 0.89695 0.66175 0.0
H2190 H 0.84541 0.13294 0.36041 0.0
H2191 H 0.8622 0.18129 0.37989 0.0
H2192 H 0.83058 0.14885 0.41021 0.0
C2193 C 0.84521 0.14258 0.37024 0.0
C2194 C 0.83592 0.13949 0.38506 0.0
C2195 C 0.85513 0.15735 0.36841 0.0
C2196 C 0.85467 0.16979 0.38118 0.0
C2197 C 0.84621 0.16665 0.39642 0.0
C2198 C 0.83676 0.15152 0.3983 0.0
H2199 H 0.62719 0.14732 0.15318 0.0
H2200 H 0.67245 0.12883 0.12993 0.0
H2201 H 0.65323 0.1047 0.17489 0.0
C2202 C 0.6378 0.13859 0.15324 0.0
C2203 C 0.63837 0.12541 0.16505 0.0
C2204 C 0.65043 0.1401 0.141 0.0
C2205 C 0.66334 0.12802 0.14013 0.0
C2206 C 0.66479 0.11516 0.15234 0.0
C2207 C 0.65247 0.11441 0.16529 0.0
H2208 H 0.65633 0.8698 0.86515 0.0
H2209 H 0.644 0.81983 0.88361 0.0
H2210 H 0.66743 0.85664 0.91642 0.0
C2211 C 0.65644 0.86041 0.87507 0.0
C2212 C 0.66422 0.86461 0.89056 0.0
C2213 C 0.64832 0.84455 0.87252 0.0
C2214 C 0.64939 0.83241 0.88547 0.0
C2215 C 0.65539 0.83699 0.90155 0.0
C2216 C 0.66277 0.8531 0.90403 0.0
H2217 H 0.83347 0.12648 0.8771 0.0
H2218 H 0.88097 0.14126 0.85637 0.0
H2219 H 0.85533 0.09818 0.83558 0.0
C2220 C 0.84272 0.1247 0.8672 0.0
C2221 C 0.84073 0.11169 0.85493 0.0
C2222 C 0.85668 0.1357 0.86724 0.0
C2223 C 0.86996 0.13295 0.85599 0.0
C2224 C 0.86935 0.11929 0.8446 0.0
C2225 C 0.85479 0.1088 0.84408 0.0
H2226 H 0.66252 0.13503 0.64625 0.0
H2227 H 0.64581 0.1822 0.62506 0.0
H2228 H 0.67611 0.14813 0.59532 0.0
C2229 C 0.6627 0.14412 0.63602 0.0
C2230 C 0.67152 0.14016 0.62104 0.0
C2231 C 0.65282 0.1589 0.63727 0.0
C2232 C 0.65331 0.1707 0.62413 0.0
C2233 C 0.66116 0.16666 0.60884 0.0
C2234 C 0.67042 0.15146 0.60732 0.0
H2235 H 0.62322 0.86116 0.3507 0.0
H2236 H 0.66858 0.87998 0.37337 0.0
H2237 H 0.64613 0.90628 0.33134 0.0
C2238 C 0.63354 0.87032 0.35084 0.0
C2239 C 0.63332 0.88408 0.33966 0.0
C2240 C 0.64649 0.86869 0.36276 0.0
C2241 C 0.65964 0.88079 0.36309 0.0
C2242 C 0.66134 0.8935 0.35056 0.0
C2243 C 0.64721 0.89552 0.33957 0.0
H2244 H 0.86626 0.82715 0.11988 0.0
H2245 H 0.84746 0.87477 0.13843 0.0
H2246 H 0.82876 0.85407 0.09202 0.0
C2247 C 0.85711 0.83733 0.11961 0.0
C2248 C 0.84765 0.83922 0.10478 0.0
C2249 C 0.85541 0.84873 0.13336 0.0
C2250 C 0.84654 0.86398 0.13002 0.0
C2251 C 0.83637 0.86589 0.11555 0.0
C2252 C 0.83639 0.85288 0.10331 0.0
H2253 H 0.1654 0.63454 0.14746 0.0
H2254 H 0.13522 0.67276 0.12472 0.0
H2255 H 0.1708 0.64528 0.09468 0.0
C2256 C 0.16243 0.64211 0.13649 0.0
C2257 C 0.1699 0.63828 0.12076 0.0
C2258 C 0.14966 0.65437 0.13771 0.0
C2259 C 0.14602 0.66441 0.12374 0.0
C2260 C 0.15592 0.66382 0.10891 0.0
C2261 C 0.1661 0.649 0.1069 0.0
H2262 H 0.12408 0.35685 0.84879 0.0
H2263 H 0.16853 0.37529 0.87328 0.0
H2264 H 0.14243 0.40703 0.83804 0.0
C2265 C 0.13364 0.36672 0.85012 0.0
C2266 C 0.13187 0.38224 0.84154 0.0
C2267 C 0.14663 0.36461 0.86188 0.0
C2268 C 0.15928 0.37699 0.86339 0.0
C2269 C 0.15982 0.3914 0.8528 0.0
C2270 C 0.14473 0.39475 0.84352 0.0
H2271 H 0.36834 0.33047 0.62351 0.0
H2272 H 0.34002 0.37202 0.64489 0.0
H2273 H 0.33273 0.35749 0.59296 0.0
C2274 C 0.35872 0.34021 0.62245 0.0
C2275 C 0.35005 0.34203 0.60717 0.0
C2276 C 0.35529 0.35097 0.63622 0.0
C2277 C 0.34279 0.36357 0.63441 0.0
C2278 C 0.33512 0.36645 0.61864 0.0
C2279 C 0.33856 0.35539 0.60515 0.0
H2280 H 0.12788 0.65132 0.6564 0.0
H2281 H 0.17567 0.63472 0.63682 0.0
H2282 H 0.14542 0.6007 0.66696 0.0
C2283 C 0.13775 0.64178 0.65582 0.0
C2284 C 0.1354 0.62607 0.66393 0.0
C2285 C 0.15198 0.64465 0.64564 0.0
C2286 C 0.16471 0.63239 0.64476 0.0
C2287 C 0.16245 0.61636 0.6522 0.0
C2288 C 0.14763 0.6132 0.66169 0.0
H2289 H 0.33212 0.37906 0.13144 0.0
H2290 H 0.37858 0.3624 0.15305 0.0
H2291 H 0.35704 0.40908 0.16989 0.0
C2292 C 0.34147 0.38072 0.14126 0.0
C2293 C 0.34055 0.39447 0.15289 0.0
C2294 C 0.35483 0.36901 0.14156 0.0
C2295 C 0.36818 0.37136 0.15288 0.0
C2296 C 0.36873 0.38584 0.16314 0.0
C2297 C 0.35527 0.39749 0.16281 0.0
H2298 H 0.60816 0.38576 0.09528 0.0
H2299 H 0.62869 0.42842 0.12133 0.0
H2300 H 0.65909 0.40185 0.08507 0.0
C2301 C 0.6184 0.39489 0.09682 0.0
C2302 C 0.63384 0.3925 0.08835 0.0
C2303 C 0.6169 0.40774 0.10888 0.0
C2304 C 0.6299 0.41962 0.11091 0.0
C2305 C 0.64437 0.41962 0.10042 0.0
C2306 C 0.64694 0.40463 0.09064 0.0
H2307 H 0.87241 0.58043 0.61341 0.0
H2308 H 0.89489 0.62376 0.58945 0.0
H2309 H 0.8436 0.60884 0.57719 0.0
C2310 C 0.87165 0.59054 0.6042 0.0
C2311 C 0.85674 0.59267 0.59484 0.0
C2312 C 0.88524 0.60187 0.60244 0.0
C2313 C 0.88428 0.61503 0.59064 0.0
C2314 C 0.86917 0.6181 0.5817 0.0
C2315 C 0.85539 0.60669 0.58382 0.0
H2316 H 0.57579 0.38511 0.62237 0.0
H2317 H 0.62123 0.4088 0.60388 0.0
H2318 H 0.60285 0.42105 0.65361 0.0
C2319 C 0.58591 0.39436 0.62398 0.0
C2320 C 0.58749 0.4032 0.63933 0.0
C2321 C 0.59808 0.39625 0.61127 0.0
C2322 C 0.61156 0.40774 0.61353 0.0
C2323 C 0.61333 0.41687 0.62871 0.0
C2324 C 0.60123 0.41456 0.64163 0.0
H2325 H 0.35069 0.63047 0.86486 0.0
H2326 H 0.36574 0.68022 0.88099 0.0
H2327 H 0.33195 0.65096 0.91141 0.0
C2328 C 0.34872 0.6411 0.87331 0.0
C2329 C 0.33647 0.6402 0.88635 0.0
C2330 C 0.35888 0.65562 0.87087 0.0
C2331 C 0.35793 0.66896 0.8826 0.0
C2332 C 0.34865 0.66691 0.89747 0.0
C2333 C 0.33807 0.65257 0.89937 0.0
H2334 H 0.15852 0.37101 0.36147 0.0
H2335 H 0.13737 0.3266 0.38371 0.0
H2336 H 0.17291 0.35615 0.41109 0.0
C2337 C 0.15966 0.36109 0.37062 0.0
C2338 C 0.17034 0.36392 0.3848 0.0
C2339 C 0.14936 0.34637 0.36872 0.0
C2340 C 0.14688 0.33651 0.38329 0.0
C2341 C 0.15576 0.3398 0.39819 0.0
C2342 C 0.16726 0.35345 0.39899 0.0
H2343 H 0.33332 0.62411 0.37555 0.0
H2344 H 0.37695 0.64388 0.35088 0.0
H2345 H 0.36032 0.59297 0.3402 0.0
C2346 C 0.3424 0.62272 0.36545 0.0
C2347 C 0.34237 0.60811 0.35495 0.0
C2348 C 0.35458 0.63556 0.36385 0.0
C2349 C 0.36766 0.63376 0.35214 0.0
C2350 C 0.37002 0.61819 0.34367 0.0
C2351 C 0.3576 0.60524 0.34567 0.0
C2352 C 0.14478 0.41645 0.12407 0.0
C2353 C 0.14653 0.42679 0.10961 0.0
C2354 C 0.12153 0.41312 0.09714 0.0
C2355 C 0.1217 0.40084 0.11023 0.0
N2356 N 0.13514 0.38952 0.13514 0.0
N2357 N 0.1373 0.43463 0.08181 0.0
C2358 C 0.13362 0.40226 0.12357 0.0
C2359 C 0.13503 0.42512 0.096 0.0
N2360 N 0.15389 0.42015 0.13828 0.0
N2361 N 0.10826 0.41357 0.08608 0.0
H2362 H 0.14666 0.444 0.08087 0.0
H2363 H 0.13059 0.43254 0.07068 0.0
H2364 H 0.09791 0.4053 0.0869 0.0
H2365 H 0.10669 0.42313 0.0772 0.0
H2366 H 0.15178 0.4142 0.14979 0.0
H2367 H 0.1624 0.43033 0.139 0.0
H2368 H 0.14481 0.38913 0.14405 0.0
H2369 H 0.12783 0.37845 0.13488 0.0
C2370 C 0.87106 0.92605 0.40972 0.0
C2371 C 0.85931 0.92698 0.39625 0.0
C2372 C 0.87191 0.90186 0.38303 0.0
C2373 C 0.88418 0.90124 0.39611 0.0
N2374 N 0.89778 0.91482 0.41986 0.0
N2375 N 0.85134 0.91876 0.36804 0.0
C2376 C 0.88448 0.914 0.40886 0.0
C2377 C 0.86074 0.91589 0.3822 0.0
N2378 N 0.86911 0.93635 0.42349 0.0
N2379 N 0.87012 0.88852 0.37202 0.0
H2380 H 0.8428 0.9288 0.36706 0.0
H2381 H 0.85324 0.91224 0.35674 0.0
H2382 H 0.87743 0.87753 0.37257 0.0
H2383 H 0.86021 0.88755 0.36339 0.0
H2384 H 0.87603 0.93498 0.43457 0.0
H2385 H 0.85983 0.94575 0.42415 0.0
H2386 H 0.89956 0.92475 0.42843 0.0
H2387 H 0.9079 0.90633 0.41941 0.0
C2388 C 0.37589 0.57456 0.59464 0.0
C2389 C 0.36038 0.57639 0.60353 0.0
C2390 C 0.36952 0.60431 0.61435 0.0
C2391 C 0.38502 0.60251 0.60544 0.0
N2392 N 0.40416 0.58564 0.58879 0.0
N2393 N 0.34139 0.59332 0.62041 0.0
C2394 C 0.38853 0.58756 0.59599 0.0
C2395 C 0.35695 0.59134 0.61306 0.0
N2396 N 0.37821 0.56065 0.58448 0.0
N2397 N 0.36709 0.61825 0.62447 0.0
H2398 H 0.3321 0.58383 0.62045 0.0
H2399 H 0.33712 0.60461 0.62575 0.0
H2400 H 0.37568 0.62834 0.62529 0.0
H2401 H 0.35709 0.61957 0.63289 0.0
H2402 H 0.38842 0.55909 0.57636 0.0
H2403 H 0.36928 0.55087 0.58345 0.0
H2404 H 0.40832 0.57453 0.58301 0.0
H2405 H 0.41356 0.59501 0.58945 0.0
C2406 C 0.63326 0.07619 0.88971 0.0
C2407 C 0.64459 0.07589 0.90358 0.0
C2408 C 0.62644 0.09617 0.91841 0.0
C2409 C 0.61747 0.09928 0.90321 0.0
N2410 N 0.60431 0.08156 0.88208 0.0
N2411 N 0.65198 0.08568 0.9315 0.0
C2412 C 0.61852 0.08644 0.89063 0.0
C2413 C 0.64116 0.08588 0.91808 0.0
N2414 N 0.63636 0.06653 0.87571 0.0
N2415 N 0.61939 0.10075 0.93345 0.0
H2416 H 0.66279 0.07809 0.93182 0.0
H2417 H 0.6509 0.09409 0.94164 0.0
H2418 H 0.60713 0.10564 0.93411 0.0
H2419 H 0.62452 0.09751 0.94509 0.0
H2420 H 0.62921 0.0676 0.86471 0.0
H2421 H 0.64682 0.05853 0.87466 0.0
H2422 H 0.60401 0.07128 0.87374 0.0
H2423 H 0.59234 0.08586 0.88568 0.0
C2424 C 0.13571 0.58155 0.41348 0.0
C2425 C 0.14537 0.57775 0.39892 0.0
C2426 C 0.13079 0.60003 0.38327 0.0
C2427 C 0.12067 0.60356 0.39768 0.0
N2428 N 0.11005 0.59413 0.4246 0.0
N2429 N 0.14865 0.57968 0.36883 0.0
C2430 C 0.12206 0.5932 0.41223 0.0
C2431 C 0.14164 0.58571 0.38341 0.0
N2432 N 0.13987 0.57442 0.42857 0.0
N2433 N 0.13106 0.61098 0.36993 0.0
H2434 H 0.15684 0.56931 0.36855 0.0
H2435 H 0.14497 0.58384 0.35693 0.0
H2436 H 0.12423 0.62227 0.36964 0.0
H2437 H 0.13946 0.60977 0.35987 0.0
H2438 H 0.13459 0.57829 0.43999 0.0
H2439 H 0.14938 0.56533 0.42976 0.0
H2440 H 0.10969 0.58595 0.43488 0.0
H2441 H 0.09938 0.60182 0.42357 0.0
C2442 C 0.64293 0.91747 0.62344 0.0
C2443 C 0.64601 0.92669 0.60846 0.0
C2444 C 0.62185 0.91249 0.59501 0.0
C2445 C 0.62071 0.90124 0.60894 0.0
N2446 N 0.63205 0.89149 0.6355 0.0
N2447 N 0.63927 0.9325 0.57947 0.0
C2448 C 0.6316 0.90343 0.62304 0.0
C2449 C 0.63564 0.92416 0.5941 0.0
N2450 N 0.65096 0.92207 0.63804 0.0
N2451 N 0.60953 0.91229 0.58291 0.0
H2452 H 0.64887 0.94163 0.57861 0.0
H2453 H 0.63345 0.92965 0.56801 0.0
H2454 H 0.59897 0.90427 0.58349 0.0
H2455 H 0.60887 0.92118 0.57325 0.0
H2456 H 0.64782 0.91698 0.64973 0.0
H2457 H 0.65959 0.93214 0.63873 0.0
H2458 H 0.64101 0.89162 0.64514 0.0
H2459 H 0.62465 0.88048 0.63539 0.0
C2460 C 0.3725 0.4267 0.91066 0.0
C2461 C 0.35916 0.42698 0.89869 0.0
C2462 C 0.36995 0.40082 0.88564 0.0
C2463 C 0.38386 0.40106 0.89696 0.0
N2464 N 0.40022 0.41582 0.91818 0.0
N2465 N 0.34711 0.41653 0.87268 0.0
C2466 C 0.38568 0.41449 0.90889 0.0
C2467 C 0.35849 0.41471 0.88553 0.0
N2468 N 0.37231 0.43781 0.92397 0.0
N2469 N 0.36719 0.38694 0.87553 0.0
H2470 H 0.33836 0.42642 0.87221 0.0
H2471 H 0.34733 0.40914 0.86175 0.0
H2472 H 0.37515 0.37639 0.87531 0.0
H2473 H 0.35622 0.3852 0.86843 0.0
H2474 H 0.38059 0.43704 0.93415 0.0
H2475 H 0.36304 0.44712 0.92544 0.0
H2476 H 0.4031 0.42623 0.92583 0.0
H2477 H 0.41016 0.40717 0.91711 0.0
C2478 C 0.87333 0.07837 0.09026 0.0
C2479 C 0.8607 0.07707 0.10295 0.0
C2480 C 0.87206 0.10259 0.11684 0.0
C2481 C 0.88557 0.10302 0.10503 0.0
N2482 N 0.90073 0.08986 0.08211 0.0
N2483 N 0.85025 0.08571 0.13025 0.0
C2484 C 0.88669 0.09047 0.09218 0.0
C2485 C 0.86069 0.08855 0.1168 0.0
N2486 N 0.87226 0.06839 0.07614 0.0
N2487 N 0.86964 0.11594 0.12769 0.0
H2488 H 0.84174 0.07554 0.1308 0.0
H2489 H 0.85113 0.09252 0.14152 0.0
H2490 H 0.8775 0.12663 0.12809 0.0
H2491 H 0.85891 0.11715 0.13523 0.0
H2492 H 0.88006 0.06992 0.06566 0.0
H2493 H 0.86259 0.05947 0.07427 0.0
H2494 H 0.90315 0.07998 0.07368 0.0
H2495 H 0.91074 0.09852 0.08324 0.0
C2496 C 0.09263 0.14942 0.41709 0.0
C2497 C 0.09907 0.14493 0.43308 0.0
C2498 C 0.10053 0.11522 0.42359 0.0
C2499 C 0.09752 0.12047 0.4067 0.0
N2500 N 0.09472 0.14404 0.3873 0.0
N2501 N 0.11072 0.12352 0.4513 0.0
C2502 C 0.09448 0.13796 0.4034 0.0
C2503 C 0.10336 0.12777 0.43635 0.0
N2504 N 0.08492 0.16475 0.41492 0.0
N2505 N 0.1002 0.09834 0.42757 0.0
H2506 H 0.11275 0.13232 0.46098 0.0
H2507 H 0.11586 0.11156 0.45357 0.0
H2508 H 0.09736 0.08887 0.41875 0.0
H2509 H 0.10095 0.09394 0.43991 0.0
H2510 H 0.07865 0.16796 0.40382 0.0
H2511 H 0.08321 0.17337 0.42483 0.0
H2512 H 0.0939 0.15697 0.38457 0.0
H2513 H 0.09791 0.13663 0.37686 0.0
C2514 C 0.07905 0.92005 0.6316 0.0
C2515 C 0.07952 0.90825 0.64509 0.0
C2516 C 0.10682 0.89747 0.63502 0.0
C2517 C 0.10569 0.9083 0.62083 0.0
N2518 N 0.08986 0.92814 0.6041 0.0
N2519 N 0.09213 0.88366 0.65801 0.0
C2520 C 0.09155 0.91912 0.61869 0.0
C2521 C 0.09295 0.8964 0.64637 0.0
N2522 N 0.06691 0.93239 0.63141 0.0
N2523 N 0.12135 0.88855 0.63792 0.0
H2524 H 0.08225 0.88245 0.66666 0.0
H2525 H 0.10048 0.87344 0.65819 0.0
H2526 H 0.13176 0.88877 0.62981 0.0
H2527 H 0.12369 0.88201 0.64906 0.0
H2528 H 0.06687 0.94243 0.6229 0.0
H2529 H 0.05757 0.9334 0.64066 0.0
H2530 H 0.07898 0.93483 0.60092 0.0
H2531 H 0.09888 0.92786 0.59449 0.0
C2532 C 0.41195 0.85569 0.91659 0.0
C2533 C 0.40487 0.85975 0.93242 0.0
C2534 C 0.40243 0.88947 0.92355 0.0
C2535 C 0.40614 0.88448 0.90668 0.0
N2536 N 0.41028 0.8612 0.88693 0.0
N2537 N 0.39216 0.88045 0.95094 0.0
C2538 C 0.40995 0.86716 0.90312 0.0
C2539 C 0.39985 0.87668 0.93599 0.0
N2540 N 0.4203 0.84068 0.91432 0.0
N2541 N 0.4019 0.9063 0.92783 0.0
H2542 H 0.39048 0.87147 0.96044 0.0
H2543 H 0.38652 0.89216 0.95343 0.0
H2544 H 0.40448 0.91598 0.91925 0.0
H2545 H 0.40065 0.91057 0.94022 0.0
H2546 H 0.427 0.83784 0.90334 0.0
H2547 H 0.42206 0.83203 0.9241 0.0
H2548 H 0.41175 0.84836 0.88394 0.0
H2549 H 0.40682 0.86857 0.87666 0.0
C2550 C 0.42315 0.09063 0.1277 0.0
C2551 C 0.4244 0.10404 0.13967 0.0
C2552 C 0.39883 0.11716 0.12811 0.0
C2553 C 0.39805 0.10429 0.11553 0.0
N2554 N 0.41116 0.08062 0.10124 0.0
N2555 N 0.41572 0.13187 0.14913 0.0
C2556 C 0.41072 0.09154 0.1147 0.0
C2557 C 0.41299 0.1179 0.13913 0.0
N2558 N 0.43358 0.07688 0.12901 0.0
N2559 N 0.38558 0.12813 0.13019 0.0
H2560 H 0.4257 0.13275 0.15771 0.0
H2561 H 0.40903 0.14317 0.14785 0.0
H2562 H 0.37471 0.1278 0.12271 0.0
H2563 H 0.38458 0.13653 0.14032 0.0
H2564 H 0.43204 0.06579 0.12193 0.0
H2565 H 0.44323 0.07617 0.13797 0.0
H2566 H 0.42101 0.07214 0.09902 0.0
H2567 H 0.40235 0.08103 0.09145 0.0
C2568 C 0.10253 0.87445 0.06581 0.0
C2569 C 0.0972 0.85751 0.06924 0.0
C2570 C 0.09538 0.86454 0.09917 0.0
C2571 C 0.09884 0.88196 0.09566 0.0
N2572 N 0.10129 0.90396 0.07462 0.0
N2573 N 0.08347 0.83826 0.08849 0.0
C2574 C 0.10112 0.88709 0.07866 0.0
C2575 C 0.09197 0.85315 0.0857 0.0
N2576 N 0.10952 0.8784 0.05057 0.0
N2577 N 0.09639 0.8585 0.11524 0.0
H2578 H 0.08037 0.82977 0.07881 0.0
H2579 H 0.07793 0.83536 0.10007 0.0
H2580 H 0.10062 0.8659 0.12532 0.0
H2581 H 0.09515 0.84563 0.11812 0.0
H2582 H 0.11515 0.89015 0.04812 0.0
H2583 H 0.11114 0.86948 0.04095 0.0
H2584 H 0.10138 0.90827 0.06223 0.0
H2585 H 0.09946 0.91358 0.08353 0.0
C2586 C 0.42711 0.91556 0.3769 0.0
C2587 C 0.42883 0.90246 0.36465 0.0
C2588 C 0.40341 0.88833 0.37575 0.0
C2589 C 0.40255 0.90064 0.38885 0.0
N2590 N 0.41566 0.92388 0.40404 0.0
N2591 N 0.42087 0.87445 0.35476 0.0
C2592 C 0.41504 0.91366 0.39006 0.0
C2593 C 0.41762 0.88828 0.36475 0.0
N2594 N 0.43661 0.93008 0.37564 0.0
N2595 N 0.39036 0.87708 0.37338 0.0
H2596 H 0.43126 0.87377 0.34667 0.0
H2597 H 0.4142 0.86303 0.35568 0.0
H2598 H 0.37964 0.87675 0.38106 0.0
H2599 H 0.38945 0.86909 0.3629 0.0
H2600 H 0.43464 0.9408 0.38316 0.0
H2601 H 0.44545 0.93203 0.36606 0.0
H2602 H 0.42549 0.93245 0.40641 0.0
H2603 H 0.40724 0.92262 0.4141 0.0
C2604 C 0.4139 0.15095 0.58749 0.0
C2605 C 0.40948 0.14605 0.57093 0.0
C2606 C 0.4077 0.11627 0.58023 0.0
C2607 C 0.4086 0.12198 0.59729 0.0
N2608 N 0.40884 0.14578 0.61685 0.0
N2609 N 0.40383 0.12386 0.55068 0.0
C2610 C 0.41089 0.13958 0.60085 0.0
C2611 C 0.407 0.12857 0.56697 0.0
N2612 N 0.4208 0.16664 0.59043 0.0
N2613 N 0.40764 0.09921 0.57681 0.0
H2614 H 0.40364 0.13256 0.54082 0.0
H2615 H 0.40095 0.11151 0.54686 0.0
H2616 H 0.40871 0.09003 0.58618 0.0
H2617 H 0.40769 0.09403 0.56473 0.0
H2618 H 0.4257 0.17027 0.60212 0.0
H2619 H 0.42337 0.17515 0.58069 0.0
H2620 H 0.409 0.15874 0.61969 0.0
H2621 H 0.40486 0.13828 0.62688 0.0
C2622 C 0.08874 0.10691 0.8612 0.0
C2623 C 0.07742 0.09285 0.86131 0.0
C2624 C 0.09228 0.08129 0.88592 0.0
C2625 C 0.1046 0.09438 0.88449 0.0
N2626 N 0.11682 0.11707 0.86806 0.0
N2627 N 0.06978 0.06525 0.8722 0.0
C2628 C 0.10348 0.10646 0.87135 0.0
C2629 C 0.07954 0.07962 0.87327 0.0
N2630 N 0.08511 0.12103 0.85192 0.0
N2631 N 0.09253 0.07072 0.89954 0.0
H2632 H 0.0605 0.06353 0.86298 0.0
H2633 H 0.07186 0.05448 0.87949 0.0
H2634 H 0.1018 0.07151 0.90889 0.0
H2635 H 0.08286 0.0621 0.90224 0.0
H2636 H 0.09205 0.1323 0.85287 0.0
H2637 H 0.0742 0.12213 0.8446 0.0
H2638 H 0.11724 0.12507 0.85763 0.0
H2639 H 0.12827 0.11642 0.87456 0.0
C2640 C 0.92381 0.4188 0.87629 0.0
C2641 C 0.92613 0.40535 0.86451 0.0
C2642 C 0.90068 0.39108 0.87538 0.0
C2643 C 0.89932 0.40367 0.88817 0.0
N2644 N 0.91143 0.4278 0.90282 0.0
N2645 N 0.91883 0.37699 0.85512 0.0
C2646 C 0.91141 0.41707 0.8892 0.0
C2647 C 0.91513 0.39101 0.86468 0.0
N2648 N 0.93311 0.43343 0.87483 0.0
N2649 N 0.8879 0.37952 0.87304 0.0
H2650 H 0.9294 0.37628 0.84727 0.0
H2651 H 0.91233 0.36549 0.85618 0.0
H2652 H 0.87701 0.37922 0.88049 0.0
H2653 H 0.88735 0.37124 0.86276 0.0
H2654 H 0.93075 0.44434 0.88194 0.0
H2655 H 0.94219 0.43521 0.86544 0.0
H2656 H 0.921 0.43667 0.90516 0.0
H2657 H 0.90271 0.42678 0.91265 0.0
C2658 C 0.9137 0.65359 0.08745 0.0
C2659 C 0.90598 0.64958 0.07186 0.0
C2660 C 0.90337 0.6199 0.08076 0.0
C2661 C 0.90779 0.62482 0.09748 0.0
N2662 N 0.91322 0.64796 0.11715 0.0
N2663 N 0.89207 0.62903 0.05388 0.0
C2664 C 0.91206 0.64209 0.10095 0.0
C2665 C 0.90051 0.63271 0.06847 0.0
N2666 N 0.92236 0.66854 0.08942 0.0
N2667 N 0.90238 0.60308 0.07648 0.0
H2668 H 0.89004 0.63803 0.0445 0.0
H2669 H 0.88613 0.61737 0.05165 0.0
H2670 H 0.90514 0.59337 0.08495 0.0
H2671 H 0.9006 0.59884 0.06414 0.0
H2672 H 0.92951 0.67133 0.10015 0.0
H2673 H 0.92389 0.6772 0.0796 0.0
H2674 H 0.91499 0.66078 0.12012 0.0
H2675 H 0.91025 0.64054 0.12757 0.0
C2676 C 0.58871 0.60675 0.3605 0.0
C2677 C 0.57621 0.59381 0.3619 0.0
C2678 C 0.59056 0.58278 0.38702 0.0
C2679 C 0.60383 0.59472 0.38455 0.0
N2680 N 0.61744 0.6155 0.36677 0.0
N2681 N 0.5665 0.56783 0.37483 0.0
C2682 C 0.60346 0.60595 0.37064 0.0
C2683 C 0.57747 0.58133 0.37473 0.0
N2684 N 0.58619 0.62024 0.35001 0.0
N2685 N 0.59029 0.57311 0.40129 0.0
H2686 H 0.5569 0.56628 0.36591 0.0
H2687 H 0.56781 0.55744 0.38281 0.0
H2688 H 0.59985 0.57366 0.41036 0.0
H2689 H 0.58002 0.56552 0.40474 0.0
H2690 H 0.59401 0.63095 0.34993 0.0
H2691 H 0.57538 0.62158 0.34258 0.0
H2692 H 0.61847 0.62261 0.35577 0.0
H2693 H 0.6287 0.61491 0.37361 0.0
C2694 C 0.89678 0.37607 0.43549 0.0
C2695 C 0.90316 0.35959 0.43203 0.0
C2696 C 0.90925 0.36773 0.40315 0.0
C2697 C 0.90428 0.38474 0.40672 0.0
N2698 N 0.8975 0.4059 0.42788 0.0
N2699 N 0.92099 0.34201 0.41464 0.0
C2700 C 0.8993 0.38921 0.42341 0.0
C2701 C 0.91138 0.35628 0.41657 0.0
N2702 N 0.88787 0.37907 0.44993 0.0
N2703 N 0.91078 0.36206 0.38691 0.0
H2704 H 0.92295 0.33345 0.42446 0.0
H2705 H 0.92841 0.33983 0.40397 0.0
H2706 H 0.90755 0.36941 0.37651 0.0
H2707 H 0.9132 0.34938 0.3839 0.0
H2708 H 0.88135 0.39035 0.45217 0.0
H2709 H 0.88608 0.36982 0.45914 0.0
H2710 H 0.89528 0.40984 0.44024 0.0
H2711 H 0.89997 0.41587 0.41961 0.0
C2712 C 0.60339 0.6267 0.93546 0.0
C2713 C 0.60012 0.644 0.93177 0.0
C2714 C 0.59716 0.63703 0.90191 0.0
C2715 C 0.59948 0.61948 0.90549 0.0
N2716 N 0.60037 0.5973 0.92643 0.0
N2717 N 0.58823 0.66437 0.91265 0.0
C2718 C 0.60124 0.61419 0.92254 0.0
C2719 C 0.59501 0.64868 0.91538 0.0
N2720 N 0.60906 0.6223 0.95109 0.0
N2721 N 0.59834 0.6429 0.88577 0.0
H2722 H 0.58639 0.67318 0.92236 0.0
H2723 H 0.58279 0.66781 0.90119 0.0
H2724 H 0.6016 0.63521 0.87556 0.0
H2725 H 0.59816 0.6558 0.88283 0.0
H2726 H 0.6135 0.6102 0.95396 0.0
H2727 H 0.61029 0.6311 0.96091 0.0
H2728 H 0.6001 0.59283 0.93876 0.0
H2729 H 0.59819 0.58788 0.91738 0.0
C2730 C 0.835 0.61193 0.86021 0.0
C2731 C 0.82248 0.61146 0.84741 0.0
C2732 C 0.83642 0.6356 0.83344 0.0
C2733 C 0.84975 0.6348 0.84537 0.0
N2734 N 0.86406 0.61875 0.86689 0.0
N2735 N 0.81287 0.62081 0.82012 0.0
C2736 C 0.84972 0.62196 0.85783 0.0
C2737 C 0.82362 0.62274 0.8335 0.0
N2738 N 0.83261 0.60331 0.87494 0.0
N2739 N 0.8358 0.64878 0.82232 0.0
H2740 H 0.80355 0.61137 0.81963 0.0
H2741 H 0.81418 0.62754 0.80892 0.0
H2742 H 0.8451 0.65825 0.82184 0.0
H2743 H 0.82546 0.65103 0.8145 0.0
H2744 H 0.84062 0.60473 0.8853 0.0
H2745 H 0.82174 0.59618 0.87747 0.0
H2746 H 0.8651 0.60858 0.87518 0.0
H2747 H 0.87553 0.6249 0.86449 0.0
C2748 C 0.17796 0.11948 0.67633 0.0
C2749 C 0.18358 0.11163 0.66127 0.0
C2750 C 0.16302 0.12778 0.64501 0.0
C2751 C 0.1577 0.13631 0.65997 0.0
N2752 N 0.16393 0.14378 0.6889 0.0
N2753 N 0.1856 0.11254 0.63103 0.0
C2754 C 0.16644 0.13329 0.67536 0.0
C2755 C 0.17763 0.11741 0.64553 0.0
N2756 N 0.18317 0.11339 0.69155 0.0
N2757 N 0.15336 0.12808 0.63071 0.0
H2758 H 0.19624 0.10471 0.63101 0.0
H2759 H 0.18274 0.11775 0.61932 0.0
H2760 H 0.14148 0.13374 0.63006 0.0
H2761 H 0.15615 0.12083 0.62005 0.0
H2762 H 0.1779 0.11728 0.70297 0.0
H2763 H 0.19213 0.10372 0.69261 0.0
H2764 H 0.17091 0.14291 0.70001 0.0
H2765 H 0.15617 0.15447 0.68835 0.0
C2766 C 0.67283 0.39182 0.36223 0.0
C2767 C 0.68204 0.39436 0.34714 0.0
C2768 C 0.66805 0.36949 0.33457 0.0
C2769 C 0.65677 0.36893 0.34851 0.0
N2770 N 0.64677 0.38165 0.37453 0.0
N2771 N 0.6882 0.3863 0.3185 0.0
C2772 C 0.65883 0.38048 0.3622 0.0
C2773 C 0.67971 0.38328 0.33319 0.0
N2774 N 0.67733 0.40043 0.37656 0.0
N2775 N 0.66773 0.35673 0.32282 0.0
H2776 H 0.69727 0.39593 0.31735 0.0
H2777 H 0.68558 0.37991 0.30726 0.0
H2778 H 0.65953 0.34632 0.32368 0.0
H2779 H 0.67659 0.35564 0.31315 0.0
H2780 H 0.6722 0.39771 0.38835 0.0
H2781 H 0.68738 0.40908 0.37698 0.0
H2782 H 0.64685 0.39113 0.38376 0.0
H2783 H 0.63571 0.37438 0.37467 0.0
C2784 C 0.33032 0.89134 0.14227 0.0
C2785 C 0.32098 0.89467 0.15714 0.0
C2786 C 0.33817 0.87348 0.17201 0.0
C2787 C 0.34885 0.8721 0.15767 0.0
N2788 N 0.35811 0.88496 0.13171 0.0
N2789 N 0.31794 0.89095 0.18719 0.0
C2790 C 0.34576 0.88246 0.14346 0.0
C2791 C 0.3254 0.88628 0.17235 0.0
N2792 N 0.32438 0.89635 0.12692 0.0
N2793 N 0.33998 0.86243 0.1851 0.0
H2794 H 0.30882 0.90048 0.18796 0.0
H2795 H 0.3219 0.88646 0.19886 0.0
H2796 H 0.3491 0.85286 0.18514 0.0
H2797 H 0.33153 0.86184 0.19516 0.0
H2798 H 0.33022 0.8928 0.11565 0.0
H2799 H 0.31272 0.90234 0.12538 0.0
H2800 H 0.35671 0.89327 0.1216 0.0
H2801 H 0.37048 0.88077 0.13357 0.0
C2802 C 0.83002 0.39173 0.67118 0.0
C2803 C 0.82095 0.39383 0.65589 0.0
C2804 C 0.83295 0.3671 0.64554 0.0
C2805 C 0.84526 0.36764 0.65856 0.0
N2806 N 0.84506 0.37171 0.68862 0.0
N2807 N 0.81346 0.38293 0.62832 0.0
C2808 C 0.84099 0.37753 0.67298 0.0
C2809 C 0.82235 0.38137 0.64298 0.0
N2810 N 0.82838 0.40337 0.6839 0.0
N2811 N 0.82897 0.35196 0.63804 0.0
H2812 H 0.80508 0.39289 0.62607 0.0
H2813 H 0.81542 0.37488 0.61802 0.0
H2814 H 0.83393 0.34053 0.64246 0.0
H2815 H 0.819 0.35052 0.62952 0.0
H2816 H 0.83603 0.40332 0.69461 0.0
H2817 H 0.82025 0.41377 0.68315 0.0
H2818 H 0.84092 0.37744 0.69974 0.0
H2819 H 0.85056 0.35978 0.69029 0.0
C2820 C 0.3184 0.12648 0.35012 0.0
C2821 C 0.32224 0.10894 0.34807 0.0
C2822 C 0.35237 0.11589 0.34628 0.0
C2823 C 0.34852 0.13353 0.34665 0.0
N2824 N 0.32742 0.1556 0.34534 0.0
N2825 N 0.34234 0.08762 0.33943 0.0
C2826 C 0.33137 0.13885 0.34749 0.0
C2827 C 0.33906 0.10387 0.34461 0.0
N2828 N 0.30261 0.13134 0.35522 0.0
N2829 N 0.36861 0.11048 0.34859 0.0
H2830 H 0.33283 0.07849 0.33776 0.0
H2831 H 0.35421 0.0838 0.33511 0.0
H2832 H 0.37855 0.11877 0.35134 0.0
H2833 H 0.37179 0.09771 0.34988 0.0
H2834 H 0.29966 0.14379 0.35863 0.0
H2835 H 0.29281 0.12269 0.35748 0.0
H2836 H 0.31503 0.15994 0.34418 0.0
H2837 H 0.33656 0.16494 0.34307 0.0
C2838 C 0.67684 0.61997 0.17829 0.0
C2839 C 0.68441 0.61316 0.16354 0.0
C2840 C 0.66344 0.62745 0.14629 0.0
C2841 C 0.65631 0.63538 0.1608 0.0
N2842 N 0.65979 0.64264 0.19023 0.0
N2843 N 0.68839 0.61525 0.13354 0.0
C2844 C 0.66414 0.63275 0.17674 0.0
C2845 C 0.67907 0.61887 0.14759 0.0
N2846 N 0.68142 0.61393 0.19371 0.0
N2847 N 0.65439 0.62617 0.13173 0.0
H2848 H 0.6998 0.60863 0.13404 0.0
H2849 H 0.68563 0.62042 0.12179 0.0
H2850 H 0.64156 0.62892 0.13142 0.0
H2851 H 0.65867 0.61966 0.12108 0.0
H2852 H 0.67495 0.61698 0.20476 0.0
H2853 H 0.69116 0.60512 0.1952 0.0
H2854 H 0.666 0.64206 0.2018 0.0
H2855 H 0.65122 0.65265 0.1893 0.0
C2856 C 0.16419 0.89976 0.83776 0.0
C2857 C 0.17972 0.89737 0.84622 0.0
C2858 C 0.17138 0.86783 0.85157 0.0
C2859 C 0.15449 0.87168 0.84659 0.0
N2860 N 0.13442 0.8939 0.83958 0.0
N2861 N 0.19751 0.87923 0.8631 0.0
C2862 C 0.15075 0.88835 0.84083 0.0
C2863 C 0.18327 0.88137 0.8536 0.0
N2864 N 0.16212 0.91322 0.82718 0.0
N2865 N 0.17623 0.85136 0.85384 0.0
H2866 H 0.20648 0.88883 0.86492 0.0
H2867 H 0.19967 0.86832 0.87017 0.0
H2868 H 0.16818 0.84106 0.85148 0.0
H2869 H 0.18875 0.84793 0.8562 0.0
H2870 H 0.1513 0.91468 0.81978 0.0
H2871 H 0.17198 0.92169 0.8245 0.0
H2872 H 0.13143 0.9064 0.83645 0.0
H2873 H 0.12405 0.88686 0.84384 0.0
C2874 C 0.84976 0.843 0.60071 0.0
C2875 C 0.84967 0.82585 0.60613 0.0
C2876 C 0.84928 0.83629 0.63548 0.0
C2877 C 0.85349 0.85282 0.62971 0.0
N2878 N 0.85986 0.87137 0.60639 0.0
N2879 N 0.83616 0.8095 0.62798 0.0
C2880 C 0.8544 0.85599 0.6122 0.0
C2881 C 0.84584 0.82316 0.62347 0.0
N2882 N 0.84223 0.84729 0.5859 0.0
N2883 N 0.84857 0.83307 0.65235 0.0
H2884 H 0.83056 0.80157 0.61894 0.0
H2885 H 0.83165 0.80755 0.64016 0.0
H2886 H 0.8504 0.8425 0.66148 0.0
H2887 H 0.84744 0.82082 0.6572 0.0
H2888 H 0.84071 0.85988 0.58212 0.0
H2889 H 0.83514 0.83844 0.57898 0.0
H2890 H 0.86169 0.87369 0.59358 0.0
H2891 H 0.86427 0.88097 0.6144 0.0
C2892 C 0.89556 0.1651 0.34268 0.0
C2893 C 0.8908 0.1583 0.32681 0.0
C2894 C 0.86169 0.15529 0.33718 0.0
C2895 C 0.86725 0.15882 0.35389 0.0
N2896 N 0.89138 0.16272 0.37258 0.0
N2897 N 0.8696 0.14368 0.31007 0.0
C2898 C 0.8847 0.16267 0.3567 0.0
C2899 C 0.8739 0.15252 0.32431 0.0
N2900 N 0.91036 0.17399 0.3444 0.0
N2901 N 0.8448 0.15504 0.33345 0.0
H2902 H 0.87828 0.14071 0.30061 0.0
H2903 H 0.85782 0.1378 0.30853 0.0
H2904 H 0.83551 0.15802 0.34232 0.0
H2905 H 0.84024 0.15383 0.32116 0.0
H2906 H 0.91353 0.18051 0.35545 0.0
H2907 H 0.91845 0.17638 0.33427 0.0
H2908 H 0.9043 0.16427 0.37488 0.0
H2909 H 0.88458 0.15899 0.38318 0.0
C2910 C 0.66159 0.18072 0.11748 0.0
C2911 C 0.64896 0.18064 0.10474 0.0
C2912 C 0.63832 0.15318 0.11491 0.0
C2913 C 0.64988 0.15409 0.12855 0.0
N2914 N 0.67084 0.16976 0.14447 0.0
N2915 N 0.62353 0.16831 0.09289 0.0
C2916 C 0.66108 0.16816 0.1303 0.0
C2917 C 0.63685 0.16725 0.10384 0.0
N2918 N 0.67435 0.19254 0.11704 0.0
N2919 N 0.62904 0.13867 0.11227 0.0
H2920 H 0.62197 0.17839 0.08456 0.0
H2921 H 0.61326 0.15994 0.09303 0.0
H2922 H 0.62963 0.12816 0.12022 0.0
H2923 H 0.62184 0.13649 0.10148 0.0
H2924 H 0.6849 0.1922 0.12492 0.0
H2925 H 0.67517 0.20188 0.10778 0.0
H2926 H 0.67784 0.18064 0.14738 0.0
H2927 H 0.67085 0.16076 0.15409 0.0
C2928 C 0.61217 0.82994 0.84307 0.0
C2929 C 0.61475 0.84083 0.82927 0.0
C2930 C 0.64263 0.84786 0.84097 0.0
C2931 C 0.63756 0.84139 0.85698 0.0
N2932 N 0.61395 0.82951 0.87306 0.0
N2933 N 0.63284 0.86119 0.81532 0.0
C2934 C 0.62151 0.83289 0.85799 0.0
C2935 C 0.6302 0.84999 0.82812 0.0
N2936 N 0.59997 0.81762 0.84233 0.0
N2937 N 0.65924 0.85147 0.83782 0.0
H2938 H 0.62409 0.86296 0.80565 0.0
H2939 H 0.64323 0.86943 0.81504 0.0
H2940 H 0.66881 0.8487 0.84644 0.0
H2941 H 0.66357 0.85522 0.82598 0.0
H2942 H 0.59842 0.8086 0.85181 0.0
H2943 H 0.59284 0.81544 0.83142 0.0
H2944 H 0.60189 0.8241 0.87399 0.0
H2945 H 0.61823 0.83458 0.88436 0.0
C2946 C 0.86927 0.16369 0.90456 0.0
C2947 C 0.8559 0.17568 0.90444 0.0
C2948 C 0.84547 0.16362 0.87786 0.0
C2949 C 0.85726 0.15012 0.87942 0.0
N2950 N 0.87917 0.1361 0.89531 0.0
N2951 N 0.83056 0.18673 0.89173 0.0
C2952 C 0.86897 0.1499 0.89296 0.0
C2953 C 0.84383 0.17564 0.89123 0.0
N2954 N 0.88235 0.16558 0.91573 0.0
N2955 N 0.83616 0.16516 0.86343 0.0
H2956 H 0.82934 0.19604 0.90107 0.0
H2957 H 0.82027 0.18604 0.88355 0.0
H2958 H 0.83726 0.15674 0.85328 0.0
H2959 H 0.82852 0.17559 0.86085 0.0
H2960 H 0.89337 0.15837 0.91518 0.0
H2961 H 0.88292 0.17542 0.92458 0.0
H2962 H 0.88656 0.1344 0.90604 0.0
H2963 H 0.87921 0.12557 0.88728 0.0
C2964 C 0.61084 0.16742 0.65942 0.0
C2965 C 0.61438 0.16205 0.67598 0.0
C2966 C 0.64429 0.15905 0.66819 0.0
C2967 C 0.63984 0.16075 0.65091 0.0
N2968 N 0.61706 0.16197 0.63031 0.0
N2969 N 0.63451 0.15139 0.69614 0.0
C2970 C 0.62263 0.16388 0.64653 0.0
C2971 C 0.63117 0.1576 0.68047 0.0
N2972 N 0.59596 0.17545 0.65592 0.0
N2973 N 0.66092 0.15922 0.67291 0.0
H2974 H 0.62526 0.15046 0.70548 0.0
H2975 H 0.64615 0.14617 0.69942 0.0
H2976 H 0.67077 0.16098 0.66433 0.0
H2977 H 0.66477 0.1594 0.68547 0.0
H2978 H 0.59346 0.18085 0.64421 0.0
H2979 H 0.58709 0.1783 0.66527 0.0
H2980 H 0.60432 0.163 0.62699 0.0
H2981 H 0.62456 0.15711 0.62064 0.0
C2982 C 0.66172 0.83152 0.38967 0.0
C2983 C 0.64674 0.8271 0.39857 0.0
C2984 C 0.6321 0.85103 0.38538 0.0
C2985 C 0.64643 0.85419 0.37498 0.0
N2986 N 0.67311 0.84377 0.36418 0.0
N2987 N 0.61638 0.8299 0.40101 0.0
C2988 C 0.66078 0.84339 0.37626 0.0
C2989 C 0.63153 0.83604 0.39528 0.0
N2990 N 0.67694 0.82474 0.39424 0.0
N2991 N 0.61931 0.86263 0.38643 0.0
H2992 H 0.61528 0.81863 0.4078 0.0
H2993 H 0.60478 0.83503 0.39742 0.0
H2994 H 0.61964 0.8743 0.38025 0.0
H2995 H 0.60931 0.86148 0.39494 0.0
H2996 H 0.68843 0.82884 0.38917 0.0
H2997 H 0.67823 0.81633 0.40428 0.0
H2998 H 0.6831 0.83515 0.36383 0.0
H2999 H 0.67223 0.85127 0.35342 0.0
C3000 C 0.87988 0.85958 0.17326 0.0
C3001 C 0.89187 0.84619 0.17312 0.0
C3002 C 0.87387 0.8306 0.15309 0.0
C3003 C 0.86474 0.84578 0.14998 0.0
N3004 N 0.85072 0.86638 0.16759 0.0
N3005 N 0.89947 0.81788 0.16401 0.0
C3006 C 0.86518 0.85814 0.16305 0.0
C3007 C 0.88855 0.83128 0.16348 0.0
N3008 N 0.88264 0.87391 0.18267 0.0
N3009 N 0.86709 0.81532 0.14836 0.0
H3010 H 0.90983 0.81753 0.17216 0.0
H3011 H 0.89862 0.80756 0.15574 0.0
H3012 H 0.85492 0.81442 0.14324 0.0
H3013 H 0.87238 0.80366 0.15161 0.0
H3014 H 0.87497 0.88463 0.18173 0.0
H3015 H 0.89316 0.87548 0.19049 0.0
H3016 H 0.85 0.87447 0.17802 0.0
H3017 H 0.839 0.86299 0.16242 0.0
C3018 C 0.11902 0.64372 0.1733 0.0
C3019 C 0.11543 0.66009 0.17975 0.0
C3020 C 0.13786 0.67188 0.16185 0.0
C3021 C 0.13891 0.65607 0.15314 0.0
N3022 N 0.12596 0.62872 0.14782 0.0
N3023 N 0.12047 0.69031 0.17929 0.0
C3024 C 0.12852 0.64229 0.15828 0.0
C3025 C 0.12467 0.67438 0.17386 0.0
N3026 N 0.11261 0.62958 0.18095 0.0
N3027 N 0.14952 0.68436 0.15878 0.0
H3028 H 0.1113 0.69241 0.18855 0.0
H3029 H 0.12538 0.70136 0.17393 0.0
H3030 H 0.1597 0.68257 0.15058 0.0
H3031 H 0.15007 0.69571 0.16559 0.0
H3032 H 0.1161 0.6173 0.17739 0.0
H3033 H 0.10528 0.6302 0.19188 0.0
H3034 H 0.11772 0.61874 0.15063 0.0
H3035 H 0.12975 0.62902 0.13527 0.0
C3036 C 0.15877 0.32368 0.88447 0.0
C3037 C 0.14645 0.32332 0.89754 0.0
C3038 C 0.13526 0.35061 0.8879 0.0
C3039 C 0.14636 0.35011 0.87386 0.0
N3040 N 0.16726 0.33523 0.85739 0.0
N3041 N 0.1207 0.33461 0.90949 0.0
C3042 C 0.15772 0.33634 0.87173 0.0
C3043 C 0.13403 0.33626 0.89862 0.0
N3044 N 0.17181 0.3123 0.88458 0.0
N3045 N 0.12642 0.36509 0.89148 0.0
H3046 H 0.1192 0.32422 0.91748 0.0
H3047 H 0.1103 0.34273 0.90943 0.0
H3048 H 0.12748 0.37613 0.88433 0.0
H3049 H 0.11946 0.36676 0.90252 0.0
H3050 H 0.18213 0.31299 0.87644 0.0
H3051 H 0.17306 0.30297 0.89379 0.0
H3052 H 0.17447 0.32462 0.85423 0.0
H3053 H 0.1669 0.34439 0.84792 0.0
C3054 C 0.38468 0.36161 0.67341 0.0
C3055 C 0.39038 0.34515 0.67747 0.0
C3056 C 0.36836 0.33311 0.6592 0.0
C3057 C 0.36572 0.34943 0.65198 0.0
N3058 N 0.37443 0.3791 0.65102 0.0
N3059 N 0.38794 0.31483 0.67407 0.0
C3060 C 0.37439 0.36377 0.65899 0.0
C3061 C 0.38219 0.33073 0.67044 0.0
N3062 N 0.38974 0.3753 0.68284 0.0
N3063 N 0.35751 0.32002 0.65555 0.0
H3064 H 0.39759 0.31274 0.68281 0.0
H3065 H 0.38374 0.30393 0.66777 0.0
H3066 H 0.34678 0.32161 0.64805 0.0
H3067 H 0.35814 0.30821 0.6614 0.0
H3068 H 0.38458 0.38738 0.68134 0.0
H3069 H 0.39765 0.37417 0.6933 0.0
H3070 H 0.38178 0.38942 0.65497 0.0
H3071 H 0.3691 0.38089 0.63926 0.0
C3072 C 0.14102 0.67059 0.60689 0.0
C3073 C 0.15196 0.6848 0.60884 0.0
C3074 C 0.16193 0.67351 0.63591 0.0
C3075 C 0.15197 0.6587 0.6332 0.0
N3076 N 0.13502 0.64146 0.6143 0.0
N3077 N 0.17474 0.69878 0.62377 0.0
C3078 C 0.14238 0.65676 0.61816 0.0
C3079 C 0.16297 0.686 0.62298 0.0
N3080 N 0.1288 0.67055 0.59466 0.0
N3081 N 0.17011 0.67574 0.65095 0.0
H3082 H 0.17588 0.70805 0.61447 0.0
H3083 H 0.18425 0.69944 0.63284 0.0
H3084 H 0.16977 0.66667 0.66051 0.0
H3085 H 0.17615 0.68701 0.65445 0.0
H3086 H 0.1192 0.66144 0.59397 0.0
H3087 H 0.12724 0.68046 0.58612 0.0
H3088 H 0.12962 0.63872 0.60262 0.0
H3089 H 0.13572 0.63092 0.62213 0.0
C3090 C 0.36858 0.34014 0.10539 0.0
C3091 C 0.35608 0.32713 0.1062 0.0
C3092 C 0.34376 0.34073 0.13126 0.0
C3093 C 0.3552 0.35457 0.12938 0.0
N3094 N 0.37662 0.36894 0.11301 0.0
N3095 N 0.33013 0.31629 0.1182 0.0
C3096 C 0.36709 0.3547 0.11597 0.0
C3097 C 0.34319 0.32777 0.11868 0.0
N3098 N 0.38226 0.33829 0.09499 0.0
N3099 N 0.33386 0.33966 0.14536 0.0
H3100 H 0.32924 0.30669 0.10912 0.0
H3101 H 0.31945 0.31719 0.12586 0.0
H3102 H 0.33396 0.34889 0.15486 0.0
H3103 H 0.32665 0.32897 0.14835 0.0
H3104 H 0.39273 0.34641 0.09528 0.0
H3105 H 0.38392 0.32778 0.0871 0.0
H3106 H 0.38414 0.37046 0.10234 0.0
H3107 H 0.37585 0.37993 0.1204 0.0
C3108 C 0.57624 0.42032 0.13142 0.0
C3109 C 0.57613 0.40841 0.14483 0.0
C3110 C 0.60332 0.39711 0.13527 0.0
C3111 C 0.60258 0.40775 0.12094 0.0
N3112 N 0.58753 0.42802 0.104 0.0
N3113 N 0.58766 0.38303 0.15736 0.0
C3114 C 0.58877 0.41894 0.11859 0.0
C3115 C 0.58914 0.3961 0.14615 0.0
N3116 N 0.56475 0.43327 0.13128 0.0
N3117 N 0.61784 0.38843 0.13888 0.0
H3118 H 0.57734 0.38163 0.16545 0.0
H3119 H 0.59585 0.37269 0.15749 0.0
H3120 H 0.62872 0.38917 0.13147 0.0
H3121 H 0.61967 0.38189 0.15011 0.0
H3122 H 0.56524 0.44333 0.12281 0.0
H3123 H 0.55553 0.43476 0.14059 0.0
H3124 H 0.57687 0.43503 0.10073 0.0
H3125 H 0.59667 0.42748 0.09451 0.0
C3126 C 0.92494 0.58958 0.62713 0.0
C3127 C 0.92475 0.60227 0.63992 0.0
C3128 C 0.89843 0.61379 0.62859 0.0
C3129 C 0.89911 0.6019 0.6151 0.0
N3130 N 0.91399 0.57993 0.60002 0.0
N3131 N 0.91376 0.62886 0.65043 0.0
C3132 C 0.91271 0.59022 0.61389 0.0
C3133 C 0.9123 0.61519 0.63981 0.0
N3134 N 0.93651 0.57674 0.62793 0.0
N3135 N 0.88405 0.62303 0.63136 0.0
H3136 H 0.92364 0.63027 0.65906 0.0
H3137 H 0.90609 0.63957 0.64954 0.0
H3138 H 0.87313 0.62162 0.62408 0.0
H3139 H 0.88224 0.63064 0.64198 0.0
H3140 H 0.93623 0.56609 0.62008 0.0
H3141 H 0.94593 0.57633 0.63714 0.0
H3142 H 0.92442 0.57226 0.59754 0.0
H3143 H 0.90505 0.57996 0.59032 0.0
C3144 C 0.6058 0.3556 0.58627 0.0
C3145 C 0.59788 0.35949 0.57072 0.0
C3146 C 0.58992 0.38774 0.58161 0.0
C3147 C 0.59825 0.38391 0.59698 0.0
N3148 N 0.61626 0.36557 0.6133 0.0
N3149 N 0.58117 0.37819 0.5536 0.0
C3150 C 0.60671 0.36818 0.59915 0.0
C3151 C 0.58963 0.37533 0.56836 0.0
N3152 N 0.61205 0.33962 0.58891 0.0
N3153 N 0.58272 0.4034 0.57967 0.0
H3154 H 0.58078 0.36931 0.54378 0.0
H3155 H 0.57401 0.38894 0.55109 0.0
H3156 H 0.58272 0.41259 0.58921 0.0
H3157 H 0.57723 0.40772 0.56859 0.0
H3158 H 0.61584 0.33516 0.60063 0.0
H3159 H 0.61241 0.33022 0.5796 0.0
H3160 H 0.62448 0.35538 0.61479 0.0
H3161 H 0.61708 0.37429 0.62321 0.0
C3162 C 0.37734 0.6491 0.82688 0.0
C3163 C 0.39405 0.65556 0.82884 0.0
C3164 C 0.38829 0.66088 0.85868 0.0
C3165 C 0.37095 0.65642 0.85626 0.0
N3166 N 0.34835 0.65167 0.83616 0.0
N3167 N 0.41345 0.67241 0.84556 0.0
C3168 C 0.36525 0.65213 0.83977 0.0
C3169 C 0.3989 0.66302 0.84441 0.0
N3170 N 0.37307 0.63954 0.81309 0.0
N3171 N 0.39505 0.66202 0.87449 0.0
H3172 H 0.42131 0.67466 0.83522 0.0
H3173 H 0.41661 0.67943 0.8563 0.0
H3174 H 0.38834 0.65883 0.88533 0.0
H3175 H 0.40794 0.66404 0.87663 0.0
H3176 H 0.36144 0.63328 0.81201 0.0
H3177 H 0.38171 0.63638 0.80365 0.0
H3178 H 0.3437 0.64975 0.824 0.0
H3179 H 0.33915 0.65536 0.84487 0.0
C3180 C 0.11413 0.32875 0.34072 0.0
C3181 C 0.11172 0.34301 0.33007 0.0
C3182 C 0.13958 0.35374 0.33858 0.0
C3183 C 0.13942 0.34258 0.35254 0.0
N3184 N 0.13472 0.31261 0.35644 0.0
N3185 N 0.12288 0.3691 0.31832 0.0
C3186 C 0.12901 0.3279 0.35078 0.0
C3187 C 0.12474 0.35543 0.32867 0.0
N3188 N 0.10219 0.31616 0.34141 0.0
N3189 N 0.15455 0.36032 0.33302 0.0
H3190 H 0.11226 0.37086 0.31073 0.0
H3191 H 0.13146 0.37923 0.31828 0.0
H3192 H 0.16604 0.35628 0.33808 0.0
H3193 H 0.15563 0.3674 0.32199 0.0
H3194 H 0.10245 0.30655 0.35041 0.0
H3195 H 0.09162 0.31584 0.33352 0.0
H3196 H 0.12844 0.30113 0.3542 0.0
H3197 H 0.14693 0.3113 0.36134 0.0
C3198 C 0.34363 0.67705 0.38653 0.0
C3199 C 0.35328 0.67523 0.40149 0.0
C3200 C 0.36399 0.64775 0.39152 0.0
C3201 C 0.35486 0.64979 0.37628 0.0
N3202 N 0.33813 0.66724 0.35789 0.0
N3203 N 0.37555 0.66099 0.41663 0.0
C3204 C 0.34534 0.66476 0.37334 0.0
C3205 C 0.36437 0.66123 0.40346 0.0
N3206 N 0.33248 0.69022 0.3852 0.0
N3207 N 0.37172 0.63263 0.39494 0.0
H3208 H 0.37618 0.67055 0.42577 0.0
H3209 H 0.38528 0.65215 0.41766 0.0
H3210 H 0.37192 0.62242 0.38651 0.0
H3211 H 0.37676 0.62964 0.40668 0.0
H3212 H 0.32375 0.69137 0.37545 0.0
H3213 H 0.3313 0.69961 0.39447 0.0
H3214 H 0.33241 0.67856 0.3543 0.0
H3215 H 0.33896 0.65832 0.34814 0.0
C3216 C 0.11785 0.34183 0.05335 0.0
C3217 C 0.11061 0.32533 0.05341 0.0
C3218 C 0.09061 0.33476 0.07529 0.0
C3219 C 0.10011 0.35004 0.07742 0.0
N3220 N 0.1118 0.37123 0.05883 0.0
N3221 N 0.08978 0.30584 0.06454 0.0
C3222 C 0.11077 0.35465 0.06372 0.0
C3223 C 0.09691 0.32169 0.06445 0.0
N3224 N 0.13162 0.34534 0.04354 0.0
N3225 N 0.07422 0.33413 0.08066 0.0
H3226 H 0.09359 0.29616 0.05636 0.0
H3227 H 0.08097 0.30205 0.07358 0.0
H3228 H 0.06796 0.34507 0.08473 0.0
H3229 H 0.06614 0.32387 0.07831 0.0
H3230 H 0.13819 0.35686 0.04439 0.0
H3231 H 0.13731 0.33626 0.03577 0.0
H3232 H 0.11821 0.37508 0.04799 0.0
H3233 H 0.10425 0.38061 0.06432 0.0
C3234 C 0.93419 0.84884 0.342 0.0
C3235 C 0.94368 0.86244 0.33513 0.0
C3236 C 0.94017 0.87834 0.36159 0.0
C3237 C 0.9281 0.8661 0.36715 0.0
N3238 N 0.91155 0.84082 0.3608 0.0
N3239 N 0.95481 0.89094 0.33781 0.0
C3240 C 0.92468 0.85151 0.35698 0.0
C3241 C 0.94654 0.8774 0.34481 0.0
N3242 N 0.9343 0.83329 0.33424 0.0
N3243 N 0.94581 0.89064 0.37249 0.0
H3244 H 0.9599 0.89061 0.32568 0.0
H3245 H 0.95557 0.90285 0.34358 0.0
H3246 H 0.94179 0.89134 0.385 0.0
H3247 H 0.95569 0.89898 0.36966 0.0
H3248 H 0.92911 0.82242 0.33969 0.0
H3249 H 0.94113 0.83093 0.32321 0.0
H3250 H 0.90759 0.831 0.35284 0.0
H3251 H 0.9034 0.84275 0.37092 0.0
C3252 C 0.3809 0.67753 0.57115 0.0
C3253 C 0.39309 0.68367 0.55952 0.0
C3254 C 0.41429 0.66416 0.57137 0.0
C3255 C 0.4024 0.65895 0.58376 0.0
N3256 N 0.37565 0.66348 0.59775 0.0
N3257 N 0.4221 0.68492 0.55011 0.0
C3258 C 0.38606 0.66647 0.5843 0.0
C3259 C 0.41002 0.6776 0.5601 0.0
N3260 N 0.36427 0.68193 0.56937 0.0
N3261 N 0.42938 0.65583 0.5699 0.0
H3262 H 0.41936 0.69446 0.54146 0.0
H3263 H 0.43499 0.68246 0.55127 0.0
H3264 H 0.43297 0.64606 0.57797 0.0
H3265 H 0.4378 0.65772 0.55997 0.0
H3266 H 0.35449 0.67627 0.57619 0.0
H3267 H 0.36003 0.69018 0.56003 0.0
H3268 H 0.36427 0.66985 0.59971 0.0
H3269 H 0.37917 0.65591 0.60792 0.0
C3270 C 0.55603 0.12961 0.84905 0.0
C3271 C 0.56292 0.14181 0.8378 0.0
C3272 C 0.58501 0.14909 0.85824 0.0
C3273 C 0.57789 0.13732 0.8698 0.0
N3274 N 0.55504 0.11857 0.87762 0.0
N3275 N 0.58083 0.16623 0.83335 0.0
C3276 C 0.56284 0.12827 0.86564 0.0
C3277 C 0.57638 0.15257 0.84299 0.0
N3278 N 0.5434 0.11894 0.84365 0.0
N3279 N 0.60059 0.15612 0.8613 0.0
H3280 H 0.57478 0.16912 0.82204 0.0
H3281 H 0.58932 0.17559 0.83738 0.0
H3282 H 0.60774 0.15342 0.87199 0.0
H3283 H 0.60719 0.16334 0.85247 0.0
H3284 H 0.53908 0.10853 0.85051 0.0
H3285 H 0.53782 0.11994 0.83178 0.0
H3286 H 0.5432 0.11291 0.87598 0.0
H3287 H 0.55985 0.11729 0.8898 0.0
C3288 C 0.10566 0.68734 0.43637 0.0
C3289 C 0.11198 0.68108 0.45186 0.0
C3290 C 0.10618 0.65213 0.44205 0.0
C3291 C 0.10304 0.65809 0.42544 0.0
N3292 N 0.10363 0.68221 0.40646 0.0
N3293 N 0.12197 0.65697 0.46768 0.0
C3294 C 0.10368 0.67597 0.42247 0.0
C3295 C 0.11335 0.6633 0.4542 0.0
N3296 N 0.1013 0.70405 0.43492 0.0
N3297 N 0.10169 0.63598 0.44651 0.0
H3298 H 0.12794 0.66473 0.4766 0.0
H3299 H 0.12467 0.64406 0.46889 0.0
H3300 H 0.0949 0.62793 0.43848 0.0
H3301 H 0.10278 0.6315 0.45881 0.0
H3302 H 0.09504 0.70881 0.42439 0.0
H3303 H 0.10236 0.7127 0.44489 0.0
H3304 H 0.10541 0.69506 0.40379 0.0
H3305 H 0.10396 0.67448 0.39581 0.0
C3306 C 0.57107 0.8494 0.66104 0.0
C3307 C 0.56015 0.86201 0.66757 0.0
C3308 C 0.56235 0.87764 0.64094 0.0
C3309 C 0.57539 0.86643 0.63561 0.0
N3310 N 0.59486 0.84394 0.64284 0.0
N3311 N 0.54617 0.889 0.66444 0.0
C3312 C 0.58036 0.85277 0.64615 0.0
C3313 C 0.55586 0.87634 0.65766 0.0
N3314 N 0.57267 0.83421 0.66916 0.0
N3315 N 0.55615 0.8894 0.62998 0.0
H3316 H 0.54094 0.88829 0.6765 0.0
H3317 H 0.54421 0.90064 0.65858 0.0
H3318 H 0.56059 0.89051 0.61764 0.0
H3319 H 0.54565 0.89695 0.63257 0.0
H3320 H 0.57915 0.82392 0.66397 0.0
H3321 H 0.56606 0.83137 0.68019 0.0
H3322 H 0.59979 0.83487 0.651 0.0
H3323 H 0.60312 0.8471 0.6331 0.0
C3324 C 0.39127 0.32111 0.93198 0.0
C3325 C 0.39616 0.32464 0.94884 0.0
C3326 C 0.41089 0.35071 0.93961 0.0
C3327 C 0.40511 0.3477 0.9229 0.0
N3328 N 0.38828 0.33126 0.9033 0.0
N3329 N 0.41243 0.34116 0.96874 0.0
C3330 C 0.39509 0.33308 0.91906 0.0
C3331 C 0.40653 0.339 0.95265 0.0
N3332 N 0.38315 0.30613 0.92833 0.0
N3333 N 0.41997 0.36519 0.94304 0.0
H3334 H 0.40924 0.33301 0.97859 0.0
H3335 H 0.42116 0.35041 0.97237 0.0
H3336 H 0.42404 0.37352 0.93366 0.0
H3337 H 0.42313 0.3694 0.95508 0.0
H3338 H 0.38083 0.30174 0.91616 0.0
H3339 H 0.37979 0.29732 0.93755 0.0
H3340 H 0.37938 0.32201 0.90003 0.0
H3341 H 0.39053 0.33982 0.89356 0.0
C3342 C 0.95153 0.12544 0.15557 0.0
C3343 C 0.94696 0.13769 0.16798 0.0
C3344 C 0.92419 0.14791 0.14953 0.0
C3345 C 0.92938 0.13636 0.13672 0.0
N3346 N 0.9502 0.11668 0.12619 0.0
N3347 N 0.9318 0.1633 0.17499 0.0
C3348 C 0.94377 0.12591 0.13934 0.0
C3349 C 0.93417 0.14977 0.16438 0.0
N3350 N 0.96272 0.11285 0.1595 0.0
N3351 N 0.90924 0.15647 0.14798 0.0
H3352 H 0.93898 0.16519 0.18589 0.0
H3353 H 0.92394 0.17349 0.17211 0.0
H3354 H 0.90132 0.15529 0.13752 0.0
H3355 H 0.90392 0.16356 0.15775 0.0
H3356 H 0.96513 0.10249 0.15165 0.0
H3357 H 0.96859 0.11195 0.17124 0.0
H3358 H 0.96166 0.11019 0.12679 0.0
H3359 H 0.94488 0.11684 0.11415 0.0
C3360 C 0.04417 0.09895 0.34243 0.0
C3361 C 0.04863 0.10852 0.32793 0.0
C3362 C 0.07851 0.10884 0.33691 0.0
C3363 C 0.07392 0.09979 0.35175 0.0
N3364 N 0.05342 0.08328 0.36712 0.0
N3365 N 0.06957 0.12254 0.31089 0.0
C3366 C 0.05702 0.09398 0.35404 0.0
C3367 C 0.06576 0.11318 0.3249 0.0
N3368 N 0.02749 0.09522 0.34541 0.0
N3369 N 0.09506 0.11341 0.33441 0.0
H3370 H 0.06063 0.1254 0.30166 0.0
H3371 H 0.08135 0.12791 0.30837 0.0
H3372 H 0.10442 0.11197 0.3435 0.0
H3373 H 0.09987 0.11827 0.32322 0.0
H3374 H 0.02295 0.09016 0.35663 0.0
H3375 H 0.01785 0.098 0.33688 0.0
H3376 H 0.0418 0.07725 0.36883 0.0
H3377 H 0.06259 0.07925 0.37567 0.0
C3378 C 0.1527 0.85304 0.56624 0.0
C3379 C 0.13849 0.84782 0.55657 0.0
C3380 C 0.12475 0.87507 0.56285 0.0
C3381 C 0.1376 0.87893 0.57485 0.0
N3382 N 0.16262 0.86977 0.58988 0.0
N3383 N 0.10991 0.85307 0.54717 0.0
C3384 C 0.15137 0.86752 0.57696 0.0
C3385 C 0.12423 0.85866 0.55519 0.0
N3386 N 0.16758 0.84432 0.56499 0.0
N3387 N 0.11326 0.88722 0.5585 0.0
H3388 H 0.10895 0.84111 0.54149 0.0
H3389 H 0.09852 0.8597 0.54741 0.0
H3390 H 0.11357 0.89952 0.5635 0.0
H3391 H 0.10459 0.88567 0.5487 0.0
H3392 H 0.17887 0.84866 0.57035 0.0
H3393 H 0.16903 0.83371 0.55718 0.0
H3394 H 0.17183 0.86085 0.59293 0.0
H3395 H 0.16172 0.87959 0.59867 0.0
C3396 C 0.45698 0.90718 0.83663 0.0
C3397 C 0.45477 0.89095 0.82893 0.0
C3398 C 0.42763 0.88751 0.84346 0.0
C3399 C 0.43079 0.90273 0.85268 0.0
N3400 N 0.44902 0.92644 0.85932 0.0
N3401 N 0.43947 0.86438 0.82712 0.0
C3402 C 0.44563 0.91243 0.84961 0.0
C3403 C 0.44048 0.88076 0.83293 0.0
N3404 N 0.46955 0.9178 0.83112 0.0
N3405 N 0.41214 0.87974 0.84443 0.0
H3406 H 0.44873 0.85889 0.81948 0.0
H3407 H 0.4303 0.85574 0.83117 0.0
H3408 H 0.40229 0.88438 0.85187 0.0
H3409 H 0.4085 0.86964 0.83667 0.0
H3410 H 0.4707 0.93044 0.83494 0.0
H3411 H 0.4781 0.91439 0.82168 0.0
H3412 H 0.46052 0.93298 0.85902 0.0
H3413 H 0.44065 0.9309 0.8685 0.0
C3414 C 0.35133 0.15772 0.05808 0.0
C3415 C 0.36645 0.1639 0.05059 0.0
C3416 C 0.3806 0.13734 0.05845 0.0
C3417 C 0.36655 0.13271 0.06873 0.0
N3418 N 0.33927 0.14065 0.0803 0.0
N3419 N 0.39639 0.16034 0.04557 0.0
C3420 C 0.352 0.14337 0.06895 0.0
C3421 C 0.38134 0.15387 0.05122 0.0
N3422 N 0.33626 0.16543 0.05467 0.0
N3423 N 0.39309 0.12579 0.05525 0.0
H3424 H 0.39756 0.17244 0.04035 0.0
H3425 H 0.40795 0.15429 0.04746 0.0
H3426 H 0.39259 0.11332 0.05969 0.0
H3427 H 0.40287 0.12798 0.0467 0.0
H3428 H 0.32462 0.16035 0.05834 0.0
H3429 H 0.33531 0.17589 0.04669 0.0
H3430 H 0.32921 0.14904 0.08194 0.0
H3431 H 0.33961 0.13115 0.08936 0.0
C3432 C 0.06624 0.87926 0.17062 0.0
C3433 C 0.05267 0.89017 0.17497 0.0
C3434 C 0.06287 0.91123 0.15449 0.0
C3435 C 0.07702 0.90075 0.15105 0.0
N3436 N 0.09434 0.87681 0.15868 0.0
N3437 N 0.03951 0.91774 0.17333 0.0
C3438 C 0.07935 0.88536 0.16 0.0
C3439 C 0.05137 0.90653 0.16754 0.0
N3440 N 0.06631 0.86283 0.17618 0.0
N3441 N 0.06022 0.92543 0.14502 0.0
H3442 H 0.03083 0.91471 0.18278 0.0
H3443 H 0.03908 0.93044 0.16971 0.0
H3444 H 0.06872 0.92949 0.13579 0.0
H3445 H 0.04915 0.93258 0.14558 0.0
H3446 H 0.07486 0.85373 0.17188 0.0
H3447 H 0.05683 0.85782 0.18389 0.0
H3448 H 0.09742 0.86642 0.16615 0.0
H3449 H 0.10443 0.88115 0.15136 0.0
C3450 C 0.38106 0.85077 0.45292 0.0
C3451 C 0.36598 0.84098 0.45137 0.0
C3452 C 0.35387 0.86263 0.43282 0.0
C3453 C 0.3688 0.87269 0.43457 0.0
N3454 N 0.39431 0.87856 0.45034 0.0
N3455 N 0.33627 0.84036 0.44469 0.0
C3456 C 0.38166 0.86746 0.44598 0.0
C3457 C 0.35178 0.84792 0.44298 0.0
N3458 N 0.39506 0.84389 0.4603 0.0
N3459 N 0.34223 0.86624 0.42062 0.0
H3460 H 0.3344 0.82964 0.45219 0.0
H3461 H 0.32513 0.84579 0.44023 0.0
H3462 H 0.3436 0.87621 0.41214 0.0
H3463 H 0.33203 0.85826 0.4178 0.0
H3464 H 0.40696 0.84966 0.46001 0.0
H3465 H 0.39504 0.83185 0.46575 0.0
H3466 H 0.40318 0.87603 0.45972 0.0
H3467 H 0.39485 0.89099 0.44582 0.0
C3468 C 0.45691 0.10124 0.66867 0.0
C3469 C 0.4545 0.11698 0.67721 0.0
C3470 C 0.42738 0.12075 0.66273 0.0
C3471 C 0.4305 0.10583 0.65308 0.0
N3472 N 0.44897 0.08284 0.64524 0.0
N3473 N 0.43908 0.1432 0.68028 0.0
C3474 C 0.4455 0.09633 0.65559 0.0
C3475 C 0.44016 0.12714 0.67367 0.0
N3476 N 0.46975 0.09071 0.67348 0.0
N3477 N 0.41204 0.12867 0.66166 0.0
H3478 H 0.44829 0.14841 0.68822 0.0
H3479 H 0.42991 0.15195 0.67667 0.0
H3480 H 0.4024 0.12452 0.65366 0.0
H3481 H 0.40829 0.13842 0.66975 0.0
H3482 H 0.4711 0.07831 0.66903 0.0
H3483 H 0.4784 0.09389 0.68294 0.0
H3484 H 0.46057 0.07661 0.64507 0.0
H3485 H 0.44055 0.07853 0.636 0.0
C3486 C 0.12997 0.15885 0.93036 0.0
C3487 C 0.13611 0.15906 0.94712 0.0
C3488 C 0.1393 0.12795 0.94571 0.0
C3489 C 0.13548 0.12825 0.92819 0.0
N3490 N 0.13216 0.14535 0.90318 0.0
N3491 N 0.14946 0.14397 0.96993 0.0
C3492 C 0.13223 0.1441 0.92033 0.0
C3493 C 0.14161 0.14363 0.9546 0.0
N3494 N 0.12147 0.17253 0.92409 0.0
N3495 N 0.14003 0.11282 0.95403 0.0
H3496 H 0.15162 0.1552 0.97666 0.0
H3497 H 0.15521 0.13333 0.97518 0.0
H3498 H 0.13783 0.10114 0.94812 0.0
H3499 H 0.14115 0.11198 0.96709 0.0
H3500 H 0.11531 0.17223 0.91247 0.0
H3501 H 0.11895 0.18341 0.93122 0.0
H3502 H 0.13109 0.15692 0.89692 0.0
H3503 H 0.13543 0.13523 0.89535 0.0
C3504 C 0.33388 0.0488 0.09464 0.0
C3505 C 0.32043 0.05271 0.10591 0.0
C3506 C 0.32952 0.08273 0.10665 0.0
C3507 C 0.34342 0.0787 0.09595 0.0
N3508 N 0.35942 0.0582 0.08005 0.0
N3509 N 0.30341 0.07352 0.12027 0.0
C3510 C 0.34562 0.06183 0.08985 0.0
C3511 C 0.31764 0.06976 0.11117 0.0
N3512 N 0.3352 0.03263 0.08833 0.0
N3513 N 0.32827 0.09877 0.11328 0.0
H3514 H 0.29467 0.06429 0.12399 0.0
H3515 H 0.29951 0.08581 0.12315 0.0
H3516 H 0.33653 0.10864 0.11011 0.0
H3517 H 0.31973 0.10225 0.12264 0.0
H3518 H 0.34362 0.02901 0.07892 0.0
H3519 H 0.32708 0.02277 0.09185 0.0
H3520 H 0.36312 0.046 0.07661 0.0
H3521 H 0.36772 0.06757 0.07569 0.0
C3522 C 0.83888 0.45942 0.9079 0.0
C3523 C 0.8232 0.45524 0.90008 0.0
C3524 C 0.82902 0.42481 0.90399 0.0
C3525 C 0.84558 0.42885 0.90998 0.0
N3526 N 0.86618 0.44993 0.91843 0.0
N3527 N 0.80349 0.43422 0.88978 0.0
C3528 C 0.8504 0.44618 0.91228 0.0
C3529 C 0.81821 0.43801 0.89813 0.0
N3530 N 0.84258 0.47609 0.91135 0.0
N3531 N 0.82357 0.40832 0.90377 0.0
H3532 H 0.79504 0.44349 0.88571 0.0
H3533 H 0.80008 0.42201 0.88588 0.0
H3534 H 0.8314 0.39817 0.9065 0.0
H3535 H 0.81098 0.40472 0.90198 0.0
H3536 H 0.853 0.48014 0.91834 0.0
H3537 H 0.83453 0.48605 0.90814 0.0
H3538 H 0.8716 0.46202 0.91831 0.0
H3539 H 0.87422 0.44069 0.92333 0.0
C3540 C 0.85401 0.57291 0.1514 0.0
C3541 C 0.8455 0.5651 0.1377 0.0
C3542 C 0.87009 0.57075 0.11972 0.0
C3543 C 0.87717 0.58134 0.13252 0.0
N3544 N 0.87377 0.59477 0.1599 0.0
N3545 N 0.84458 0.55816 0.10805 0.0
C3546 C 0.86868 0.58292 0.14829 0.0
C3547 C 0.85332 0.56439 0.12163 0.0
N3548 N 0.84817 0.57065 0.16744 0.0
N3549 N 0.87959 0.56631 0.106 0.0
H3550 H 0.8323 0.55328 0.10894 0.0
H3551 H 0.84902 0.5591 0.09572 0.0
H3552 H 0.89221 0.57003 0.10458 0.0
H3553 H 0.87557 0.55743 0.09704 0.0
H3554 H 0.85496 0.57452 0.17806 0.0
H3555 H 0.83745 0.56333 0.17015 0.0
H3556 H 0.86701 0.59736 0.17088 0.0
H3557 H 0.88359 0.60336 0.15778 0.0
C3558 C 0.67186 0.54595 0.39971 0.0
C3559 C 0.68719 0.55207 0.39255 0.0
C3560 C 0.67635 0.58139 0.39382 0.0
C3561 C 0.66131 0.57531 0.40168 0.0
N3562 N 0.64603 0.55243 0.41501 0.0
N3563 N 0.705 0.57549 0.38414 0.0
C3564 C 0.65944 0.55774 0.40542 0.0
C3565 C 0.68975 0.5698 0.39013 0.0
N3566 N 0.66904 0.52882 0.40076 0.0
N3567 N 0.67748 0.59808 0.38912 0.0
H3568 H 0.71468 0.56734 0.38033 0.0
H3569 H 0.70855 0.58824 0.38372 0.0
H3570 H 0.66783 0.60686 0.39107 0.0
H3571 H 0.68745 0.60318 0.38219 0.0
H3572 H 0.65735 0.52348 0.4038 0.0
H3573 H 0.67811 0.51979 0.39746 0.0
H3574 H 0.64474 0.54013 0.41964 0.0
H3575 H 0.6369 0.56075 0.41973 0.0
C3576 C 0.14838 0.95121 0.12152 0.0
C3577 C 0.16172 0.94515 0.13191 0.0
C3578 C 0.14465 0.91989 0.13887 0.0
C3579 C 0.13111 0.92624 0.12901 0.0
N3580 N 0.11864 0.94936 0.11368 0.0
N3581 N 0.17091 0.92599 0.15362 0.0
C3582 C 0.13253 0.94238 0.1212 0.0
C3583 C 0.15935 0.93014 0.14152 0.0
N3584 N 0.15108 0.96496 0.11137 0.0
N3585 N 0.14371 0.90381 0.14528 0.0
H3586 H 0.18168 0.93334 0.1561 0.0
H3587 H 0.16903 0.91625 0.16228 0.0
H3588 H 0.13306 0.89602 0.14391 0.0
H3589 H 0.15394 0.89769 0.15084 0.0
H3590 H 0.14255 0.96891 0.1022 0.0
H3591 H 0.16247 0.97174 0.11118 0.0
H3592 H 0.11824 0.96185 0.1094 0.0
H3593 H 0.10697 0.9431 0.11297 0.0
C3594 C 0.18764 0.93785 0.61823 0.0
C3595 C 0.18728 0.95485 0.61229 0.0
C3596 C 0.16126 0.94853 0.59623 0.0
C3597 C 0.16121 0.93181 0.60289 0.0
N3598 N 0.17271 0.91109 0.62198 0.0
N3599 N 0.17369 0.97695 0.59639 0.0
C3600 C 0.17402 0.92658 0.61429 0.0
C3601 C 0.17403 0.96036 0.60149 0.0
N3602 N 0.20114 0.93243 0.62755 0.0
N3603 N 0.14915 0.95293 0.58472 0.0
H3604 H 0.1832 0.98571 0.59941 0.0
H3605 H 0.16376 0.98241 0.58978 0.0
H3606 H 0.13962 0.94457 0.58078 0.0
H3607 H 0.1489 0.96442 0.57832 0.0
H3608 H 0.20336 0.91973 0.63042 0.0
H3609 H 0.21083 0.94052 0.63164 0.0
H3610 H 0.1804 0.90725 0.63189 0.0
H3611 H 0.16305 0.90238 0.61937 0.0
C3612 C 0.84763 0.42767 0.35577 0.0
C3613 C 0.8436 0.44261 0.365 0.0
C3614 C 0.8724 0.44316 0.37678 0.0
C3615 C 0.87542 0.42688 0.36959 0.0
N3616 N 0.86583 0.40305 0.35287 0.0
N3617 N 0.85183 0.46485 0.38432 0.0
C3618 C 0.86308 0.41905 0.35909 0.0
C3619 C 0.856 0.45058 0.37536 0.0
N3620 N 0.83673 0.42188 0.34362 0.0
N3621 N 0.88531 0.45153 0.38485 0.0
H3622 H 0.84015 0.47088 0.38309 0.0
H3623 H 0.85953 0.47027 0.39356 0.0
H3624 H 0.89736 0.44631 0.38625 0.0
H3625 H 0.88455 0.46408 0.38899 0.0
H3626 H 0.83966 0.4121 0.33522 0.0
H3627 H 0.82533 0.42793 0.34087 0.0
H3628 H 0.85652 0.39576 0.34691 0.0
H3629 H 0.87718 0.39653 0.35458 0.0
C3630 C 0.6519 0.55485 0.88547 0.0
C3631 C 0.66313 0.55731 0.87168 0.0
C3632 C 0.64368 0.57854 0.85995 0.0
C3633 C 0.6319 0.57521 0.8731 0.0
N3634 N 0.62324 0.5574 0.89623 0.0
N3635 N 0.66768 0.56837 0.84378 0.0
C3636 C 0.63555 0.56249 0.88521 0.0
C3637 C 0.65837 0.56819 0.85829 0.0
N3638 N 0.6571 0.5458 0.89918 0.0
N3639 N 0.64139 0.59215 0.84957 0.0
H3640 H 0.67841 0.56086 0.84205 0.0
H3641 H 0.6638 0.57465 0.83292 0.0
H3642 H 0.63113 0.60038 0.85061 0.0
H3643 H 0.6505 0.59623 0.84098 0.0
H3644 H 0.65023 0.54517 0.91037 0.0
H3645 H 0.66898 0.5401 0.89996 0.0
H3646 H 0.62457 0.54703 0.90423 0.0
H3647 H 0.61105 0.56248 0.89621 0.0
C3648 C 0.89027 0.70479 0.8925 0.0
C3649 C 0.88543 0.697 0.90787 0.0
C3650 C 0.8797 0.67042 0.89283 0.0
C3651 C 0.88278 0.67848 0.87711 0.0
N3652 N 0.88779 0.70462 0.86199 0.0
N3653 N 0.87109 0.67388 0.92183 0.0
C3654 C 0.8872 0.69607 0.87692 0.0
C3655 C 0.8786 0.68034 0.90771 0.0
N3656 N 0.898 0.72036 0.89281 0.0
N3657 N 0.87904 0.6531 0.89382 0.0
H3658 H 0.87014 0.68067 0.93312 0.0
H3659 H 0.8643 0.66247 0.92175 0.0
H3660 H 0.88179 0.64528 0.88359 0.0
H3661 H 0.87811 0.64658 0.90519 0.0
H3662 H 0.90351 0.72587 0.88222 0.0
H3663 H 0.89985 0.72723 0.90396 0.0
H3664 H 0.88943 0.71775 0.86122 0.0
H3665 H 0.88505 0.69884 0.85044 0.0
C3666 C 0.08182 0.12451 0.69367 0.0
C3667 C 0.07687 0.13547 0.70704 0.0
C3668 C 0.09542 0.15798 0.69596 0.0
C3669 C 0.0997 0.14728 0.68217 0.0
N3670 N 0.09412 0.122 0.66577 0.0
N3671 N 0.07599 0.16374 0.71895 0.0
C3672 C 0.09198 0.13104 0.68038 0.0
C3673 C 0.0828 0.15256 0.7076 0.0
N3674 N 0.07741 0.10767 0.69402 0.0
N3675 N 0.10386 0.17303 0.69832 0.0
H3676 H 0.06665 0.16026 0.7276 0.0
H3677 H 0.07841 0.17677 0.71877 0.0
H3678 H 0.11296 0.17758 0.68992 0.0
H3679 H 0.10273 0.18043 0.70918 0.0
H3680 H 0.08218 0.09868 0.68561 0.0
H3681 H 0.07007 0.10236 0.70359 0.0
H3682 H 0.08745 0.11088 0.66296 0.0
H3683 H 0.10136 0.12649 0.65571 0.0
C3684 C 0.60392 0.32348 0.4036 0.0
C3685 C 0.61427 0.3095 0.40788 0.0
C3686 C 0.62818 0.31123 0.38024 0.0
C3687 C 0.61951 0.32665 0.37707 0.0
N3688 N 0.60125 0.34911 0.38719 0.0
N3689 N 0.63759 0.29091 0.40109 0.0
C3690 C 0.60786 0.33319 0.38909 0.0
C3691 C 0.62672 0.3035 0.39637 0.0
N3692 N 0.59007 0.32728 0.41322 0.0
N3693 N 0.63759 0.30388 0.36773 0.0
H3694 H 0.63696 0.28495 0.41278 0.0
H3695 H 0.64807 0.28728 0.39397 0.0
H3696 H 0.63887 0.30924 0.35579 0.0
H3697 H 0.64283 0.29179 0.36866 0.0
H3698 H 0.58103 0.33619 0.40967 0.0
H3699 H 0.58668 0.32032 0.42387 0.0
H3700 H 0.59421 0.35519 0.39653 0.0
H3701 H 0.60409 0.35695 0.37702 0.0
C3702 C 0.4242 0.85007 0.20174 0.0
C3703 C 0.43008 0.86713 0.20289 0.0
C3704 C 0.41497 0.87385 0.17667 0.0
C3705 C 0.40714 0.85756 0.17693 0.0
N3706 N 0.40329 0.83038 0.19036 0.0
N3707 N 0.4305 0.89568 0.19206 0.0
C3708 C 0.41166 0.84562 0.18951 0.0
C3709 C 0.42543 0.87911 0.19042 0.0
N3710 N 0.43065 0.83811 0.21238 0.0
N3711 N 0.41256 0.88419 0.16309 0.0
H3712 H 0.43869 0.89983 0.20156 0.0
H3713 H 0.42584 0.90549 0.18465 0.0
H3714 H 0.40513 0.88061 0.15277 0.0
H3715 H 0.41909 0.89557 0.16129 0.0
H3716 H 0.42828 0.82513 0.21111 0.0
H3717 H 0.43961 0.84102 0.22164 0.0
H3718 H 0.4045 0.82196 0.20036 0.0
H3719 H 0.39418 0.82657 0.18158 0.0
C3720 C 0.89997 0.32316 0.59974 0.0
C3721 C 0.88716 0.31139 0.59502 0.0
C3722 C 0.87427 0.31458 0.62303 0.0
C3723 C 0.88516 0.32867 0.62642 0.0
N3724 N 0.9074 0.34757 0.61693 0.0
N3725 N 0.86179 0.29582 0.60193 0.0
C3726 C 0.89795 0.33313 0.61462 0.0
C3727 C 0.87431 0.30691 0.60669 0.0
N3728 N 0.91408 0.32482 0.58992 0.0
N3729 N 0.86408 0.30841 0.63554 0.0
H3730 H 0.86183 0.28953 0.59032 0.0
H3731 H 0.85094 0.29356 0.60907 0.0
H3732 H 0.864 0.31356 0.64768 0.0
H3733 H 0.85696 0.29728 0.63438 0.0
H3734 H 0.92468 0.33189 0.59357 0.0
H3735 H 0.91587 0.31768 0.57895 0.0
H3736 H 0.91556 0.3524 0.6078 0.0
H3737 H 0.90602 0.35566 0.62727 0.0
C3738 C 0.42018 0.1619 0.29741 0.0
C3739 C 0.4273 0.14533 0.29683 0.0
C3740 C 0.41179 0.13777 0.3224 0.0
C3741 C 0.40292 0.15338 0.32167 0.0
N3742 N 0.39741 0.17988 0.30765 0.0
N3743 N 0.42745 0.11645 0.30696 0.0
C3744 C 0.40677 0.16538 0.30894 0.0
C3745 C 0.42237 0.13294 0.30879 0.0
N3746 N 0.42665 0.17445 0.28741 0.0
N3747 N 0.41075 0.12791 0.33649 0.0
H3748 H 0.43505 0.11233 0.297 0.0
H3749 H 0.42275 0.10658 0.31436 0.0
H3750 H 0.40411 0.1317 0.34721 0.0
H3751 H 0.41812 0.11711 0.33831 0.0
H3752 H 0.42326 0.18719 0.28858 0.0
H3753 H 0.43646 0.17239 0.27885 0.0
H3754 H 0.39843 0.18826 0.29757 0.0
H3755 H 0.38773 0.18293 0.31608 0.0
C3756 C 0.61092 0.70193 0.11267 0.0
C3757 C 0.61866 0.69584 0.09766 0.0
C3758 C 0.62645 0.66985 0.11211 0.0
C3759 C 0.62075 0.67648 0.12777 0.0
N3760 N 0.61032 0.70082 0.14327 0.0
N3761 N 0.63835 0.67625 0.0849 0.0
C3762 C 0.61375 0.69316 0.12819 0.0
C3763 C 0.62817 0.68069 0.09811 0.0
N3764 N 0.60067 0.71583 0.11205 0.0
N3765 N 0.62838 0.65277 0.11002 0.0
H3766 H 0.63983 0.68385 0.07426 0.0
H3767 H 0.64657 0.66592 0.08545 0.0
H3768 H 0.62347 0.64429 0.11882 0.0
H3769 H 0.63181 0.64719 0.09857 0.0
H3770 H 0.5932 0.71975 0.12217 0.0
H3771 H 0.59892 0.72278 0.10102 0.0
H3772 H 0.60647 0.71344 0.14431 0.0
H3773 H 0.61288 0.69509 0.15481 0.0
C3774 C 0.07415 0.86268 0.81284 0.0
C3775 C 0.07918 0.86142 0.79574 0.0
C3776 C 0.10519 0.84692 0.80433 0.0
C3777 C 0.1013 0.85028 0.82149 0.0
N3778 N 0.08331 0.86453 0.84181 0.0
N3779 N 0.10043 0.85439 0.7751 0.0
C3780 C 0.08602 0.85885 0.82573 0.0
C3781 C 0.09497 0.85408 0.79144 0.0
N3782 N 0.05802 0.86755 0.81681 0.0
N3783 N 0.11851 0.8366 0.80038 0.0
H3784 H 0.09317 0.8593 0.76529 0.0
H3785 H 0.11267 0.85106 0.77151 0.0
H3786 H 0.12598 0.83085 0.80956 0.0
H3787 H 0.12109 0.83242 0.78817 0.0
H3788 H 0.05306 0.86673 0.82895 0.0
H3789 H 0.04914 0.87105 0.80775 0.0
H3790 H 0.07324 0.87235 0.84517 0.0
H3791 H 0.09202 0.863 0.85149 0.0
C3792 C 0.90774 0.87753 0.68943 0.0
C3793 C 0.91516 0.89395 0.6906 0.0
C3794 C 0.89321 0.90495 0.67182 0.0
C3795 C 0.88467 0.88895 0.67219 0.0
N3796 N 0.8817 0.86169 0.68595 0.0
N3797 N 0.91226 0.92415 0.68655 0.0
C3798 C 0.89131 0.8757 0.68236 0.0
C3799 C 0.90703 0.90796 0.68296 0.0
N3800 N 0.91652 0.86355 0.69457 0.0
N3801 N 0.88898 0.91693 0.66017 0.0
H3802 H 0.92226 0.92682 0.69477 0.0
H3803 H 0.90556 0.93485 0.6827 0.0
H3804 H 0.88006 0.91479 0.6507 0.0
H3805 H 0.89578 0.92822 0.65867 0.0
H3806 H 0.91228 0.85116 0.69235 0.0
H3807 H 0.92877 0.86425 0.69949 0.0
H3808 H 0.88553 0.85238 0.69442 0.0
H3809 H 0.86912 0.8604 0.68209 0.0
C3810 C 0.84288 0.20354 0.42806 0.0
C3811 C 0.85855 0.20189 0.43674 0.0
C3812 C 0.8645 0.1757 0.42078 0.0
C3813 C 0.84961 0.17819 0.41107 0.0
N3814 N 0.82554 0.19538 0.40397 0.0
N3815 N 0.88564 0.18812 0.43934 0.0
C3816 C 0.83904 0.19238 0.4143 0.0
C3817 C 0.86972 0.1884 0.43256 0.0
N3818 N 0.83143 0.21542 0.43333 0.0
N3819 N 0.87352 0.16099 0.41895 0.0
H3820 H 0.89 0.19725 0.4479 0.0
H3821 H 0.89506 0.17979 0.43535 0.0
H3822 H 0.8702 0.15143 0.41038 0.0
H3823 H 0.88339 0.15756 0.42691 0.0
H3824 H 0.81909 0.21612 0.42876 0.0
H3825 H 0.83381 0.22382 0.44328 0.0
H3826 H 0.81847 0.20653 0.40434 0.0
H3827 H 0.82203 0.18712 0.39423 0.0
C3828 C 0.59704 0.1056 0.18067 0.0
C3829 C 0.59078 0.11893 0.19091 0.0
C3830 C 0.6179 0.13411 0.18793 0.0
C3831 C 0.62296 0.12212 0.17548 0.0
N3832 N 0.61572 0.09802 0.1578 0.0
N3833 N 0.59473 0.14636 0.20404 0.0
C3834 C 0.61222 0.10812 0.17141 0.0
C3835 C 0.60113 0.13329 0.19462 0.0
N3836 N 0.5884 0.09053 0.17969 0.0
N3837 N 0.62919 0.14615 0.19339 0.0
H3838 H 0.58272 0.14591 0.20953 0.0
H3839 H 0.60088 0.158 0.20564 0.0
H3840 H 0.64154 0.14693 0.18874 0.0
H3841 H 0.62687 0.15433 0.20348 0.0
H3842 H 0.59333 0.07972 0.17387 0.0
H3843 H 0.57709 0.08834 0.18616 0.0
H3844 H 0.60745 0.08866 0.15333 0.0
H3845 H 0.62593 0.10018 0.14977 0.0
C3846 C 0.63038 0.81038 0.93277 0.0
C3847 C 0.64339 0.8017 0.94145 0.0
C3848 C 0.66479 0.81623 0.92404 0.0
C3849 C 0.65173 0.82565 0.91616 0.0
N3850 N 0.62287 0.83547 0.91704 0.0
N3851 N 0.6731 0.79862 0.94769 0.0
C3852 C 0.63472 0.8238 0.92167 0.0
C3853 C 0.66067 0.8053 0.93778 0.0
N3854 N 0.61384 0.80562 0.93486 0.0
N3855 N 0.68101 0.8174 0.91813 0.0
H3856 H 0.67053 0.7904 0.95766 0.0
H3857 H 0.68578 0.80225 0.94689 0.0
H3858 H 0.68445 0.82544 0.90828 0.0
H3859 H 0.69079 0.80958 0.92219 0.0
H3860 H 0.60405 0.81025 0.92739 0.0
H3861 H 0.6101 0.79592 0.943 0.0
H3862 H 0.61057 0.83559 0.92182 0.0
H3863 H 0.6259 0.8462 0.90993 0.0
C3864 C 0.90693 0.12807 0.81577 0.0
C3865 C 0.91451 0.11178 0.81453 0.0
C3866 C 0.89275 0.10022 0.83333 0.0
C3867 C 0.88424 0.11614 0.8333 0.0
N3868 N 0.88097 0.14364 0.82025 0.0
N3869 N 0.91195 0.0815 0.8184 0.0
C3870 C 0.89064 0.12959 0.8232 0.0
C3871 C 0.90655 0.09756 0.82212 0.0
N3872 N 0.9155 0.14221 0.81049 0.0
N3873 N 0.88846 0.08795 0.84471 0.0
H3874 H 0.92192 0.07908 0.8101 0.0
H3875 H 0.90542 0.07062 0.82223 0.0
H3876 H 0.87925 0.08967 0.85397 0.0
H3877 H 0.89534 0.07677 0.84615 0.0
H3878 H 0.91122 0.15453 0.81278 0.0
H3879 H 0.92765 0.14175 0.80533 0.0
H3880 H 0.8845 0.15312 0.81179 0.0
H3881 H 0.86861 0.14486 0.82474 0.0
C3882 C 0.65989 0.20501 0.57968 0.0
C3883 C 0.64496 0.20123 0.57038 0.0
C3884 C 0.6434 0.17304 0.58349 0.0
C3885 C 0.65726 0.17753 0.59406 0.0
N3886 N 0.67811 0.198 0.60328 0.0
N3887 N 0.62141 0.18254 0.56438 0.0
C3888 C 0.66539 0.19357 0.59239 0.0
C3889 C 0.63649 0.18541 0.57244 0.0
N3890 N 0.66909 0.21929 0.57598 0.0
N3891 N 0.63679 0.15694 0.58405 0.0
H3892 H 0.61594 0.1913 0.55622 0.0
H3893 H 0.61358 0.17213 0.56674 0.0
H3894 H 0.64092 0.14772 0.59247 0.0
H3895 H 0.62808 0.15221 0.57534 0.0
H3896 H 0.68103 0.22188 0.58098 0.0
H3897 H 0.66538 0.22805 0.56688 0.0
H3898 H 0.6831 0.21025 0.60424 0.0
H3899 H 0.68314 0.18955 0.61203 0.0
C3900 C 0.59472 0.90358 0.31725 0.0
C3901 C 0.58744 0.88893 0.30957 0.0
C3902 C 0.61249 0.8726 0.31801 0.0
C3903 C 0.6182 0.88638 0.32827 0.0
N3904 N 0.61228 0.91427 0.33992 0.0
N3905 N 0.58831 0.8585 0.30535 0.0
C3906 C 0.60872 0.90176 0.32843 0.0
C3907 C 0.59605 0.87315 0.31065 0.0
N3908 N 0.58852 0.91932 0.31361 0.0
N3909 N 0.62296 0.85917 0.31485 0.0
H3910 H 0.57609 0.85819 0.30035 0.0
H3911 H 0.59336 0.84648 0.30749 0.0
H3912 H 0.63539 0.85869 0.3193 0.0
H3913 H 0.61996 0.84952 0.30629 0.0
H3914 H 0.59449 0.93053 0.31749 0.0
H3915 H 0.57848 0.92117 0.30527 0.0
H3916 H 0.60474 0.92501 0.34145 0.0
H3917 H 0.62155 0.91311 0.34919 0.0
C3918 C 0.87004 0.81925 0.0671 0.0
C3919 C 0.85973 0.80473 0.06396 0.0
C3920 C 0.84139 0.81265 0.08782 0.0
C3921 C 0.85107 0.82773 0.09017 0.0
N3922 N 0.87291 0.84688 0.08055 0.0
N3923 N 0.83416 0.78884 0.06951 0.0
C3924 C 0.86487 0.83148 0.07932 0.0
C3925 C 0.84499 0.80175 0.07384 0.0
N3926 N 0.88518 0.82099 0.0589 0.0
N3927 N 0.82903 0.80856 0.09918 0.0
H3928 H 0.8364 0.7806 0.05941 0.0
H3929 H 0.82232 0.78706 0.07503 0.0
H3930 H 0.82572 0.81651 0.10921 0.0
H3931 H 0.82282 0.79684 0.09936 0.0
H3932 H 0.89418 0.83023 0.06199 0.0
H3933 H 0.88949 0.81229 0.04993 0.0
H3934 H 0.88165 0.85124 0.07172 0.0
H3935 H 0.8699 0.85597 0.08968 0.0
C3936 C 0.67593 0.91177 0.88657 0.0
C3937 C 0.69136 0.91273 0.8957 0.0
C3938 C 0.69016 0.88179 0.89955 0.0
C3939 C 0.67346 0.88129 0.89275 0.0
N3940 N 0.64893 0.89748 0.88418 0.0
N3941 N 0.71103 0.89882 0.91437 0.0
C3942 C 0.66588 0.89678 0.88753 0.0
C3943 C 0.69783 0.89779 0.90329 0.0
N3944 N 0.67113 0.92484 0.87638 0.0
N3945 N 0.69918 0.86716 0.90155 0.0
H3946 H 0.71664 0.91035 0.91787 0.0
H3947 H 0.71513 0.88844 0.92139 0.0
H3948 H 0.6947 0.85527 0.89769 0.0
H3949 H 0.71189 0.86712 0.90514 0.0
H3950 H 0.66079 0.92391 0.86823 0.0
H3951 H 0.67847 0.93575 0.87467 0.0
H3952 H 0.64273 0.90884 0.88152 0.0
H3953 H 0.64077 0.8872 0.88608 0.0
C3954 C 0.18729 0.59339 0.12802 0.0
C3955 C 0.20035 0.59217 0.11597 0.0
C3956 C 0.19626 0.62246 0.10957 0.0
C3957 C 0.18077 0.62246 0.11889 0.0
N3958 N 0.15954 0.60464 0.13212 0.0
N3959 N 0.21644 0.60536 0.09378 0.0
C3960 C 0.17583 0.60708 0.12702 0.0
C3961 C 0.2046 0.60666 0.10624 0.0
N3962 N 0.18525 0.5811 0.13994 0.0
N3963 N 0.20352 0.63741 0.10467 0.0
H3964 H 0.22318 0.59417 0.09157 0.0
H3965 H 0.21871 0.61504 0.08513 0.0
H3966 H 0.19877 0.64922 0.10832 0.0
H3967 H 0.21534 0.63805 0.09884 0.0
H3968 H 0.17665 0.58236 0.14985 0.0
H3969 H 0.1933 0.57067 0.14091 0.0
H3970 H 0.1552 0.5933 0.13739 0.0
H3971 H 0.14997 0.6127 0.12823 0.0
C3972 C 0.20102 0.41036 0.86957 0.0
C3973 C 0.19937 0.42766 0.86505 0.0
C3974 C 0.17579 0.4197 0.8462 0.0
C3975 C 0.17536 0.40323 0.85348 0.0
N3976 N 0.19591 0.38168 0.86016 0.0
N3977 N 0.18531 0.44899 0.84834 0.0
C3978 C 0.19042 0.39804 0.86179 0.0
C3979 C 0.18674 0.43242 0.85319 0.0
N3980 N 0.21234 0.4056 0.88164 0.0
N3981 N 0.16869 0.42217 0.83075 0.0
H3982 H 0.19375 0.45848 0.8522 0.0
H3983 H 0.17511 0.45339 0.84128 0.0
H3984 H 0.16473 0.4119 0.82332 0.0
H3985 H 0.16962 0.43354 0.82413 0.0
H3986 H 0.21271 0.39326 0.8864 0.0
H3987 H 0.2202 0.41424 0.88794 0.0
H3988 H 0.2076 0.37762 0.86472 0.0
H3989 H 0.18978 0.37295 0.85226 0.0
C3990 C 0.32422 0.41327 0.61883 0.0
C3991 C 0.30768 0.41333 0.61193 0.0
C3992 C 0.30815 0.38208 0.61084 0.0
C3993 C 0.32546 0.38241 0.6157 0.0
N3994 N 0.3511 0.3991 0.61784 0.0
N3995 N 0.28502 0.39777 0.59825 0.0
C3996 C 0.33384 0.39824 0.61787 0.0
C3997 C 0.29991 0.3977 0.60702 0.0
N3998 N 0.33064 0.42734 0.62678 0.0
N3999 N 0.29949 0.36701 0.61027 0.0
H4000 H 0.27888 0.40896 0.59487 0.0
H4001 H 0.27967 0.38683 0.59298 0.0
H4002 H 0.3051 0.3554 0.61318 0.0
H4003 H 0.28645 0.36624 0.60834 0.0
H4004 H 0.34214 0.42717 0.63325 0.0
H4005 H 0.3237 0.43847 0.62853 0.0
H4006 H 0.35774 0.4106 0.61838 0.0
H4007 H 0.35853 0.38861 0.61475 0.0
C4008 C 0.79946 0.09457 0.87234 0.0
C4009 C 0.80084 0.07707 0.86824 0.0
C4010 C 0.82379 0.084 0.84849 0.0
C4011 C 0.82466 0.10072 0.85528 0.0
N4012 N 0.80562 0.12317 0.86322 0.0
N4013 N 0.81458 0.05486 0.85221 0.0
C4014 C 0.81016 0.10648 0.86419 0.0
C4015 C 0.81318 0.07167 0.85635 0.0
N4016 N 0.78834 0.09983 0.88447 0.0
N4017 N 0.82973 0.08096 0.83265 0.0
H4018 H 0.80653 0.04551 0.857 0.0
H4019 H 0.82454 0.05018 0.84493 0.0
H4020 H 0.83244 0.09101 0.82453 0.0
H4021 H 0.82855 0.06925 0.82654 0.0
H4022 H 0.78817 0.11227 0.88909 0.0
H4023 H 0.78045 0.09145 0.89098 0.0
H4024 H 0.79431 0.12787 0.86814 0.0
H4025 H 0.81227 0.13174 0.85564 0.0
C4026 C 0.8012 0.10575 0.39286 0.0
C4027 C 0.81 0.09071 0.38829 0.0
C4028 C 0.83595 0.10739 0.38427 0.0
C4029 C 0.82687 0.12274 0.38702 0.0
N4030 N 0.79979 0.13649 0.39072 0.0
N4031 N 0.83453 0.07797 0.37537 0.0
C4032 C 0.80917 0.12193 0.39047 0.0
C4033 C 0.82698 0.0918 0.38261 0.0
N4034 N 0.78538 0.10457 0.39973 0.0
N4035 N 0.85327 0.10749 0.38413 0.0
H4036 H 0.82836 0.0663 0.37385 0.0
H4037 H 0.84624 0.07865 0.36933 0.0
H4038 H 0.86046 0.11839 0.38658 0.0
H4039 H 0.86046 0.09642 0.38359 0.0
H4040 H 0.77909 0.11491 0.40506 0.0
H4041 H 0.77907 0.09297 0.4012 0.0
H4042 H 0.78662 0.13652 0.39157 0.0
H4043 H 0.80498 0.14848 0.38846 0.0
C4044 C 0.19304 0.58921 0.62675 0.0
C4045 C 0.20059 0.57912 0.63935 0.0
C4046 C 0.18356 0.59361 0.66092 0.0
C4047 C 0.17481 0.60254 0.64806 0.0
N4048 N 0.16805 0.60448 0.6184 0.0
N4049 N 0.20063 0.56907 0.66799 0.0
C4050 C 0.17866 0.59909 0.63085 0.0
C4051 C 0.19511 0.58049 0.65633 0.0
N4052 N 0.19968 0.5895 0.61084 0.0
N4053 N 0.18153 0.59813 0.67744 0.0
H4054 H 0.20933 0.55952 0.66513 0.0
H4055 H 0.19554 0.56823 0.68007 0.0
H4056 H 0.17374 0.60807 0.68132 0.0
H4057 H 0.18881 0.59308 0.68714 0.0
H4058 H 0.19576 0.59809 0.6017 0.0
H4059 H 0.21017 0.58229 0.60729 0.0
H4060 H 0.16956 0.60114 0.60577 0.0
H4061 H 0.15657 0.61045 0.62094 0.0
C4062 C 0.30089 0.41619 0.13645 0.0
C4063 C 0.30336 0.43296 0.14271 0.0
C4064 C 0.32504 0.42204 0.16199 0.0
C4065 C 0.32529 0.40646 0.15287 0.0
N4066 N 0.3044 0.38647 0.14279 0.0
N4067 N 0.31766 0.45185 0.16228 0.0
C4068 C 0.31058 0.4027 0.14323 0.0
C4069 C 0.31545 0.43592 0.15569 0.0
N4070 N 0.28967 0.4131 0.1237 0.0
N4071 N 0.33082 0.42251 0.17818 0.0
H4072 H 0.31019 0.46219 0.1589 0.0
H4073 H 0.32763 0.45488 0.1704 0.0
H4074 H 0.33401 0.41136 0.18452 0.0
H4075 H 0.32969 0.43312 0.18602 0.0
H4076 H 0.28873 0.4013 0.1177 0.0
H4077 H 0.28242 0.42264 0.11818 0.0
H4078 H 0.29282 0.38324 0.13728 0.0
H4079 H 0.30978 0.37683 0.15002 0.0
C4080 C 0.61429 0.84443 0.55224 0.0
C4081 C 0.61559 0.82657 0.55408 0.0
C4082 C 0.60706 0.83028 0.58388 0.0
C4083 C 0.60245 0.84747 0.58054 0.0
N4084 N 0.59842 0.86934 0.55963 0.0
N4085 N 0.62376 0.80612 0.57496 0.0
C4086 C 0.60474 0.85386 0.56402 0.0
C4087 C 0.61469 0.82026 0.57086 0.0
N4088 N 0.62536 0.85299 0.54217 0.0
N4089 N 0.60439 0.82338 0.5994 0.0
H4090 H 0.63204 0.80037 0.56643 0.0
H4091 H 0.62512 0.8016 0.5872 0.0
H4092 H 0.60053 0.83033 0.60983 0.0
H4093 H 0.60495 0.81035 0.60166 0.0
H4094 H 0.62554 0.86623 0.54139 0.0
H4095 H 0.63628 0.84712 0.53759 0.0
H4096 H 0.59943 0.874 0.54737 0.0
H4097 H 0.59083 0.8765 0.56774 0.0
C4098 C 0.44476 0.38165 0.84347 0.0
C4099 C 0.44623 0.36552 0.83551 0.0
C4100 C 0.43111 0.35237 0.85909 0.0
C4101 C 0.43014 0.36839 0.86756 0.0
N4102 N 0.44185 0.39676 0.86999 0.0
N4103 N 0.44662 0.33517 0.83897 0.0
C4104 C 0.43886 0.38256 0.86045 0.0
C4105 C 0.44148 0.35077 0.84452 0.0
N4106 N 0.44813 0.39617 0.83471 0.0
N4107 N 0.42109 0.33902 0.86379 0.0
H4108 H 0.45436 0.3337 0.82839 0.0
H4109 H 0.44479 0.3241 0.84594 0.0
H4110 H 0.41177 0.33993 0.87298 0.0
H4111 H 0.42055 0.32762 0.85704 0.0
H4112 H 0.44542 0.40826 0.83943 0.0
H4113 H 0.45238 0.39613 0.82228 0.0
H4114 H 0.44928 0.4069 0.86582 0.0
H4115 H 0.43856 0.3975 0.88271 0.0
C4116 C 0.8805 0.1785 0.07153 0.0
C4117 C 0.89286 0.18526 0.06043 0.0
C4118 C 0.91415 0.16583 0.07217 0.0
C4119 C 0.90207 0.16004 0.08413 0.0
N4120 N 0.87487 0.16356 0.09756 0.0
N4121 N 0.92205 0.18735 0.05173 0.0
C4122 C 0.88555 0.16716 0.08447 0.0
C4123 C 0.90989 0.17951 0.06122 0.0
N4124 N 0.86382 0.18259 0.06943 0.0
N4125 N 0.92941 0.15781 0.07078 0.0
H4126 H 0.91933 0.19708 0.04327 0.0
H4127 H 0.93497 0.18512 0.05313 0.0
H4128 H 0.93299 0.14781 0.07858 0.0
H4129 H 0.93802 0.16017 0.06111 0.0
H4130 H 0.854 0.17651 0.0758 0.0
H4131 H 0.85966 0.19105 0.06025 0.0
H4132 H 0.86331 0.16962 0.09939 0.0
H4133 H 0.87828 0.15577 0.1076 0.0
C4134 C 0.05591 0.62975 0.34878 0.0
C4135 C 0.06121 0.64345 0.33843 0.0
C4136 C 0.0823 0.65191 0.35941 0.0
C4137 C 0.07643 0.63888 0.37034 0.0
N4138 N 0.05571 0.61729 0.37676 0.0
N4139 N 0.07604 0.67013 0.33577 0.0
C4140 C 0.06256 0.6284 0.36543 0.0
C4141 C 0.07323 0.65542 0.34444 0.0
N4142 N 0.045 0.61776 0.3425 0.0
N4143 N 0.09735 0.66002 0.36254 0.0
H4144 H 0.0697 0.67304 0.32461 0.0
H4145 H 0.08334 0.68013 0.34055 0.0
H4146 H 0.10523 0.65691 0.37257 0.0
H4147 H 0.10296 0.66844 0.3541 0.0
H4148 H 0.04212 0.60646 0.34867 0.0
H4149 H 0.03957 0.61865 0.33054 0.0
H4150 H 0.04465 0.61036 0.37452 0.0
H4151 H 0.0603 0.61613 0.38903 0.0
C4152 C 0.61368 0.16197 0.95321 0.0
C4153 C 0.61533 0.17969 0.95064 0.0
C4154 C 0.60775 0.17453 0.92074 0.0
C4155 C 0.60259 0.15763 0.92489 0.0
N4156 N 0.59679 0.13736 0.94699 0.0
N4157 N 0.62422 0.19925 0.92909 0.0
C4158 C 0.60402 0.15222 0.94181 0.0
C4159 C 0.61494 0.18526 0.93354 0.0
N4160 N 0.62448 0.15369 0.96369 0.0
N4161 N 0.60616 0.18038 0.90465 0.0
H4162 H 0.63252 0.20521 0.9375 0.0
H4163 H 0.62575 0.20342 0.91675 0.0
H4164 H 0.60325 0.17267 0.89439 0.0
H4165 H 0.60688 0.19323 0.9016 0.0
H4166 H 0.6244 0.14047 0.96489 0.0
H4167 H 0.63528 0.15972 0.9685 0.0
H4168 H 0.59746 0.1334 0.95951 0.0
H4169 H 0.58885 0.13016 0.93918 0.0
C4170 C 0.05867 0.37427 0.15925 0.0
C4171 C 0.06217 0.35954 0.16886 0.0
C4172 C 0.08179 0.34958 0.14701 0.0
C4173 C 0.07784 0.364 0.13702 0.0
N4174 N 0.05926 0.38763 0.13176 0.0
N4175 N 0.07317 0.33107 0.16982 0.0
C4176 C 0.06521 0.37558 0.14257 0.0
C4177 C 0.07245 0.3465 0.16202 0.0
N4178 N 0.04964 0.38731 0.16625 0.0
N4179 N 0.09518 0.33942 0.14286 0.0
H4180 H 0.06649 0.32842 0.18086 0.0
H4181 H 0.07895 0.32047 0.16443 0.0
H4182 H 0.10287 0.34148 0.13239 0.0
H4183 H 0.09967 0.32986 0.1507 0.0
H4184 H 0.04835 0.39915 0.16059 0.0
H4185 H 0.04442 0.38672 0.17832 0.0
H4186 H 0.04898 0.39543 0.1345 0.0
H4187 H 0.06352 0.38864 0.11935 0.0
C4188 C 0.90642 0.83547 0.45063 0.0
C4189 C 0.89322 0.82343 0.44771 0.0
C4190 C 0.88949 0.83419 0.41893 0.0
C4191 C 0.9023 0.8466 0.422 0.0
N4192 N 0.92275 0.85973 0.44044 0.0
N4193 N 0.87437 0.80902 0.42852 0.0
C4194 C 0.91087 0.84728 0.43772 0.0
C4195 C 0.88541 0.82212 0.43166 0.0
N4196 N 0.91479 0.83538 0.46574 0.0
N4197 N 0.88066 0.83453 0.40409 0.0
H4198 H 0.87098 0.80011 0.43764 0.0
H4199 H 0.8695 0.8061 0.41667 0.0
H4200 H 0.8835 0.84289 0.39432 0.0
H4201 H 0.86985 0.82729 0.40169 0.0
H4202 H 0.92542 0.84273 0.46849 0.0
H4203 H 0.91158 0.8272 0.47555 0.0
H4204 H 0.92851 0.86223 0.45198 0.0
H4205 H 0.92662 0.86817 0.43108 0.0
C4206 C 0.44926 0.62237 0.65706 0.0
C4207 C 0.44748 0.63661 0.66802 0.0
C4208 C 0.42686 0.64897 0.64839 0.0
C4209 C 0.42961 0.63539 0.6368 0.0
N4210 N 0.44682 0.61148 0.62852 0.0
N4211 N 0.43806 0.66548 0.67178 0.0
C4212 C 0.44188 0.6228 0.64066 0.0
C4213 C 0.43738 0.65055 0.66293 0.0
N4214 N 0.45735 0.6081 0.66252 0.0
N4215 N 0.41357 0.65981 0.64619 0.0
H4216 H 0.44575 0.66717 0.68236 0.0
H4217 H 0.43237 0.67663 0.66761 0.0
H4218 H 0.40494 0.65869 0.63631 0.0
H4219 H 0.41006 0.66885 0.65517 0.0
H4220 H 0.45739 0.5967 0.65575 0.0
H4221 H 0.46269 0.6071 0.67449 0.0
H4222 H 0.45685 0.60307 0.63011 0.0
H4223 H 0.4421 0.61174 0.61624 0.0
C4224 C 0.56606 0.61971 0.82938 0.0
C4225 C 0.55156 0.60918 0.8271 0.0
C4226 C 0.56266 0.58906 0.84805 0.0
C4227 C 0.5772 0.59952 0.85018 0.0
N4228 N 0.59459 0.62276 0.8405 0.0
N4229 N 0.53732 0.58247 0.8318 0.0
C4230 C 0.57946 0.6142 0.84005 0.0
C4231 C 0.55031 0.59337 0.83563 0.0
N4232 N 0.56673 0.63526 0.82177 0.0
N4233 N 0.56035 0.5754 0.85839 0.0
H4234 H 0.52788 0.5854 0.82309 0.0
H4235 H 0.53654 0.57005 0.83621 0.0
H4236 H 0.56941 0.5716 0.86716 0.0
H4237 H 0.54916 0.56836 0.85897 0.0
H4238 H 0.5758 0.6445 0.82458 0.0
H4239 H 0.55755 0.63938 0.81327 0.0
H4240 H 0.59776 0.63254 0.83228 0.0
H4241 H 0.60465 0.61909 0.84816 0.0
C4242 C 0.6303 0.34616 0.07463 0.0
C4243 C 0.63866 0.3461 0.05886 0.0
C4244 C 0.64242 0.37705 0.06127 0.0
C4245 C 0.63642 0.37654 0.07818 0.0
N4246 N 0.62978 0.35886 0.10222 0.0
N4247 N 0.65572 0.36125 0.03856 0.0
C4248 C 0.63187 0.36056 0.08525 0.0
C4249 C 0.64568 0.36149 0.05257 0.0
N4250 N 0.62031 0.33276 0.07932 0.0
N4251 N 0.64415 0.39222 0.05312 0.0
H4252 H 0.65863 0.35007 0.03207 0.0
H4253 H 0.66244 0.37189 0.03443 0.0
H4254 H 0.64079 0.40381 0.05857 0.0
H4255 H 0.64708 0.39308 0.04035 0.0
H4256 H 0.61271 0.3331 0.09007 0.0
H4257 H 0.61813 0.32221 0.07157 0.0
H4258 H 0.62755 0.34714 0.10793 0.0
H4259 H 0.63249 0.36865 0.11069 0.0
C4260 C 0.94522 0.40721 0.32683 0.0
C4261 C 0.95533 0.39262 0.33013 0.0
C4262 C 0.9493 0.39608 0.36005 0.0
C4263 C 0.9357 0.40716 0.35634 0.0
N4264 N 0.93113 0.43165 0.3391 0.0
N4265 N 0.96561 0.37223 0.35039 0.0
C4266 C 0.9363 0.41519 0.34039 0.0
C4267 C 0.95697 0.38678 0.34689 0.0
N4268 N 0.94421 0.41357 0.31089 0.0
N4269 N 0.95691 0.39676 0.37545 0.0
H4270 H 0.97103 0.36461 0.34105 0.0
H4271 H 0.9659 0.36708 0.36248 0.0
H4272 H 0.95342 0.40586 0.38444 0.0
H4273 H 0.96785 0.38994 0.37825 0.0
H4274 H 0.93543 0.42277 0.30742 0.0
H4275 H 0.95154 0.40906 0.30091 0.0
H4276 H 0.93257 0.43894 0.32827 0.0
H4277 H 0.9277 0.43868 0.34977 0.0
C4278 C 0.85981 0.64946 0.5456 0.0
C4279 C 0.8673 0.66463 0.5521 0.0
C4280 C 0.87292 0.64996 0.57857 0.0
C4281 C 0.86771 0.63413 0.57142 0.0
N4282 N 0.85982 0.61864 0.54617 0.0
N4283 N 0.88581 0.67722 0.57298 0.0
C4284 C 0.86212 0.6338 0.55435 0.0
C4285 C 0.87537 0.66422 0.56802 0.0
N4286 N 0.85011 0.65001 0.53138 0.0
N4287 N 0.87468 0.65177 0.59559 0.0
H4288 H 0.88856 0.68762 0.56531 0.0
H4289 H 0.89318 0.67663 0.58387 0.0
H4290 H 0.87119 0.64225 0.60397 0.0
H4291 H 0.87736 0.66342 0.60136 0.0
H4292 H 0.84302 0.63964 0.52709 0.0
H4293 H 0.84786 0.66125 0.52483 0.0
H4294 H 0.85722 0.6178 0.53331 0.0
H4295 H 0.86234 0.60694 0.55173 0.0
C4296 C 0.55225 0.40628 0.67264 0.0
C4297 C 0.5513 0.38909 0.67801 0.0
C4298 C 0.57573 0.38213 0.66014 0.0
C4299 C 0.57563 0.39887 0.65345 0.0
N4300 N 0.56229 0.42631 0.65163 0.0
N4301 N 0.56026 0.36001 0.67486 0.0
C4302 C 0.56352 0.41084 0.65929 0.0
C4303 C 0.5625 0.37683 0.67115 0.0
N4304 N 0.5426 0.41833 0.68051 0.0
N4305 N 0.58887 0.37146 0.65647 0.0
H4306 H 0.5509 0.35567 0.68309 0.0
H4307 H 0.5667 0.35026 0.6687 0.0
H4308 H 0.59913 0.37508 0.649 0.0
H4309 H 0.59053 0.35971 0.66221 0.0
H4310 H 0.5441 0.43134 0.67857 0.0
H4311 H 0.53387 0.41539 0.68995 0.0
H4312 H 0.55253 0.43486 0.654 0.0
H4313 H 0.5703 0.43011 0.64188 0.0
C4314 C 0.88311 0.35215 0.95253 0.0
C4315 C 0.86777 0.34264 0.95299 0.0
C4316 C 0.85417 0.36393 0.93529 0.0
C4317 C 0.8691 0.37412 0.93548 0.0
N4318 N 0.8962 0.37984 0.94851 0.0
N4319 N 0.83745 0.34288 0.95001 0.0
C4320 C 0.88308 0.36886 0.94552 0.0
C4321 C 0.85285 0.34985 0.94629 0.0
N4322 N 0.89785 0.34502 0.95798 0.0
N4323 N 0.84198 0.36641 0.9234 0.0
H4324 H 0.83616 0.33255 0.95814 0.0
H4325 H 0.82606 0.34854 0.9465 0.0
H4326 H 0.84378 0.37456 0.91329 0.0
H4327 H 0.8314 0.35851 0.92212 0.0
H4328 H 0.90968 0.35064 0.95615 0.0
H4329 H 0.89836 0.33293 0.96329 0.0
H4330 H 0.90604 0.37717 0.95683 0.0
H4331 H 0.89627 0.3923 0.94404 0.0
C4332 C 0.95954 0.60097 0.16608 0.0
C4333 C 0.95663 0.61622 0.17532 0.0
C4334 C 0.92946 0.6199 0.16099 0.0
C4335 C 0.93303 0.60552 0.15068 0.0
N4336 N 0.95208 0.5834 0.14186 0.0
N4337 N 0.94047 0.64183 0.17955 0.0
C4338 C 0.94827 0.59633 0.15278 0.0
C4339 C 0.94203 0.62612 0.17222 0.0
N4340 N 0.97272 0.59066 0.17041 0.0
N4341 N 0.91391 0.62745 0.16027 0.0
H4342 H 0.9495 0.64692 0.18777 0.0
H4343 H 0.93108 0.65047 0.17631 0.0
H4344 H 0.90445 0.62367 0.15188 0.0
H4345 H 0.90985 0.63658 0.1689 0.0
H4346 H 0.97447 0.57854 0.1654 0.0
H4347 H 0.98128 0.5937 0.17999 0.0
H4348 H 0.96382 0.57743 0.14148 0.0
H4349 H 0.94379 0.57935 0.1324 0.0
C4350 C 0.64077 0.64413 0.45394 0.0
C4351 C 0.63629 0.65957 0.44584 0.0
C4352 C 0.63343 0.64417 0.41914 0.0
C4353 C 0.63564 0.62841 0.42753 0.0
N4354 N 0.63848 0.61333 0.4538 0.0
N4355 N 0.62381 0.67315 0.42164 0.0
C4356 C 0.63854 0.62835 0.44521 0.0
C4357 C 0.63128 0.65926 0.42871 0.0
N4358 N 0.64757 0.64455 0.46977 0.0
N4359 N 0.63408 0.6449 0.40196 0.0
H4360 H 0.62139 0.68432 0.42835 0.0
H4361 H 0.61836 0.67287 0.40968 0.0
H4362 H 0.63695 0.63436 0.3945 0.0
H4363 H 0.6339 0.65632 0.39535 0.0
H4364 H 0.65262 0.63387 0.47561 0.0
H4365 H 0.6496 0.65585 0.47643 0.0
H4366 H 0.63882 0.61268 0.4669 0.0
H4367 H 0.63651 0.60159 0.44792 0.0
C4368 C 0.81532 0.57208 0.61018 0.0
C4369 C 0.81889 0.55468 0.60698 0.0
C4370 C 0.84502 0.56299 0.59219 0.0
C4371 C 0.84259 0.58015 0.5973 0.0
N4372 N 0.8262 0.60093 0.61261 0.0
N4373 N 0.83794 0.53326 0.59637 0.0
C4374 C 0.82784 0.58472 0.60653 0.0
C4375 C 0.83392 0.55006 0.59828 0.0
N4376 N 0.79989 0.5765 0.6166 0.0
N4377 N 0.85782 0.55913 0.58123 0.0
H4378 H 0.82997 0.52338 0.6002 0.0
H4379 H 0.84968 0.52906 0.59208 0.0
H4380 H 0.86604 0.56833 0.57638 0.0
H4381 H 0.85931 0.5472 0.57568 0.0
H4382 H 0.79573 0.58901 0.61756 0.0
H4383 H 0.79062 0.56752 0.61969 0.0
H4384 H 0.81676 0.60461 0.62101 0.0
H4385 H 0.83503 0.61054 0.61027 0.0
C4386 C 0.32288 0.94299 0.4126 0.0
C4387 C 0.32697 0.95457 0.39951 0.0
C4388 C 0.35654 0.94575 0.40136 0.0
C4389 C 0.35184 0.93161 0.41145 0.0
N4390 N 0.33445 0.92741 0.43597 0.0
N4391 N 0.34782 0.96592 0.38032 0.0
C4392 C 0.33592 0.93278 0.41973 0.0
C4393 C 0.34385 0.95568 0.39361 0.0
N4394 N 0.30665 0.94188 0.41844 0.0
N4395 N 0.373 0.95113 0.40113 0.0
H4396 H 0.33885 0.9733 0.37411 0.0
H4397 H 0.35972 0.96577 0.3746 0.0
H4398 H 0.3822 0.94554 0.40874 0.0
H4399 H 0.3769 0.96229 0.3952 0.0
H4400 H 0.30271 0.9324 0.42673 0.0
H4401 H 0.29692 0.94962 0.41406 0.0
H4402 H 0.32352 0.92899 0.44316 0.0
H4403 H 0.34516 0.92454 0.4431 0.0
C4404 C 0.34846 0.07783 0.64755 0.0
C4405 C 0.34413 0.06373 0.6372 0.0
C4406 C 0.37243 0.06485 0.62427 0.0
C4407 C 0.37565 0.08049 0.63276 0.0
N4408 N 0.3659 0.10297 0.65113 0.0
N4409 N 0.35166 0.04358 0.61557 0.0
C4410 C 0.36351 0.0872 0.64418 0.0
C4411 C 0.35611 0.05705 0.62561 0.0
N4412 N 0.33818 0.08219 0.66073 0.0
N4413 N 0.3851 0.05734 0.61519 0.0
H4414 H 0.34009 0.03722 0.61679 0.0
H4415 H 0.35899 0.03922 0.60556 0.0
H4416 H 0.39712 0.06279 0.61392 0.0
H4417 H 0.38421 0.04517 0.61004 0.0
H4418 H 0.34154 0.09116 0.66986 0.0
H4419 H 0.32701 0.07562 0.66351 0.0
H4420 H 0.35663 0.10934 0.65802 0.0
H4421 H 0.37656 0.11043 0.64876 0.0
C4422 C 0.17339 0.04684 0.89999 0.0
C4423 C 0.18856 0.05322 0.89274 0.0
C4424 C 0.17722 0.08235 0.89393 0.0
C4425 C 0.16229 0.07599 0.90182 0.0
N4426 N 0.14742 0.0529 0.91523 0.0
N4427 N 0.20578 0.07683 0.88368 0.0
C4428 C 0.16074 0.05841 0.90563 0.0
C4429 C 0.19077 0.07097 0.89011 0.0
N4430 N 0.17093 0.02966 0.90119 0.0
N4431 N 0.17808 0.09912 0.88942 0.0
H4432 H 0.21554 0.0688 0.87984 0.0
H4433 H 0.20906 0.08961 0.88276 0.0
H4434 H 0.16826 0.10769 0.89139 0.0
H4435 H 0.18806 0.10457 0.8828 0.0
H4436 H 0.15935 0.0241 0.90428 0.0
H4437 H 0.18018 0.02079 0.89795 0.0
H4438 H 0.14635 0.04061 0.91992 0.0
H4439 H 0.13811 0.06106 0.91988 0.0
C4440 C 0.65754 0.43087 0.64341 0.0
C4441 C 0.66026 0.44546 0.63328 0.0
C4442 C 0.63081 0.44324 0.62308 0.0
C4443 C 0.62896 0.42742 0.63145 0.0
N4444 N 0.64141 0.40496 0.64784 0.0
N4445 N 0.64998 0.46474 0.61208 0.0
C4446 C 0.64252 0.42095 0.64123 0.0
C4447 C 0.64697 0.45153 0.62283 0.0
N4448 N 0.66911 0.42673 0.6555 0.0
N4449 N 0.61703 0.45045 0.61557 0.0
H4450 H 0.6616 0.47107 0.61144 0.0
H4451 H 0.64145 0.46857 0.60286 0.0
H4452 H 0.6051 0.44465 0.61548 0.0
H4453 H 0.61702 0.46275 0.61078 0.0
H4454 H 0.667 0.41736 0.66449 0.0
H4455 H 0.68015 0.43379 0.6576 0.0
H4456 H 0.65163 0.39876 0.65332 0.0
H4457 H 0.63065 0.39728 0.64667 0.0
C4458 C 0.66763 0.45673 0.12037 0.0
C4459 C 0.6842 0.45472 0.11393 0.0
C4460 C 0.67307 0.43414 0.09316 0.0
C4461 C 0.65729 0.43411 0.10179 0.0
N4462 N 0.63846 0.45588 0.11212 0.0
N4463 N 0.70284 0.44196 0.09328 0.0
C4464 C 0.65403 0.44845 0.1122 0.0
C4465 C 0.68701 0.4435 0.10006 0.0
N4466 N 0.66473 0.46632 0.13446 0.0
N4467 N 0.67379 0.42821 0.07699 0.0
H4468 H 0.71307 0.44953 0.09698 0.0
H4469 H 0.70597 0.43248 0.08461 0.0
H4470 H 0.6628 0.42512 0.07031 0.0
H4471 H 0.68453 0.42906 0.06941 0.0
H4472 H 0.65281 0.4669 0.14014 0.0
H4473 H 0.67443 0.47224 0.14128 0.0
H4474 H 0.63594 0.46726 0.11846 0.0
H4475 H 0.62892 0.45183 0.10388 0.0
C4476 C 0.35343 0.94695 0.88293 0.0
C4477 C 0.3445 0.94508 0.86751 0.0
C4478 C 0.36665 0.92622 0.85677 0.0
C4479 C 0.37601 0.92849 0.87194 0.0
N4480 N 0.38046 0.945 0.89731 0.0
N4481 N 0.34537 0.9377 0.83808 0.0
C4482 C 0.37008 0.94016 0.88435 0.0
C4483 C 0.35213 0.93636 0.85385 0.0
N4484 N 0.34579 0.9545 0.89646 0.0
N4485 N 0.37073 0.91354 0.84567 0.0
H4486 H 0.33477 0.94519 0.8356 0.0
H4487 H 0.35134 0.93294 0.82734 0.0
H4488 H 0.38043 0.90489 0.84777 0.0
H4489 H 0.36327 0.91041 0.83526 0.0
H4490 H 0.35094 0.95443 0.90855 0.0
H4491 H 0.33374 0.95985 0.89586 0.0
H4492 H 0.37738 0.9546 0.90586 0.0
H4493 H 0.39289 0.94068 0.89844 0.0
C4494 C 0.14768 0.05331 0.38343 0.0
C4495 C 0.16027 0.05853 0.3717 0.0
C4496 C 0.14218 0.08211 0.36276 0.0
C4497 C 0.12919 0.07633 0.37372 0.0
N4498 N 0.11824 0.05476 0.39227 0.0
N4499 N 0.16788 0.07529 0.3475 0.0
C4500 C 0.13154 0.06136 0.38336 0.0
C4501 C 0.157 0.07214 0.36053 0.0
N4502 N 0.1514 0.04119 0.39514 0.0
N4503 N 0.14076 0.09755 0.35508 0.0
H4504 H 0.1788 0.06816 0.34539 0.0
H4505 H 0.16525 0.08386 0.33789 0.0
H4506 H 0.13025 0.10538 0.35659 0.0
H4507 H 0.15063 0.10328 0.34846 0.0
H4508 H 0.14346 0.03816 0.40517 0.0
H4509 H 0.16307 0.03504 0.39567 0.0
H4510 H 0.11857 0.04294 0.39812 0.0
H4511 H 0.10633 0.06046 0.39261 0.0
C4512 C 0.39807 0.18082 0.40346 0.0
C4513 C 0.38672 0.19389 0.40822 0.0
C4514 C 0.37341 0.19246 0.38028 0.0
C4515 C 0.38302 0.17768 0.3766 0.0
N4516 N 0.40336 0.15662 0.38531 0.0
N4517 N 0.36332 0.21225 0.40162 0.0
C4518 C 0.39519 0.17164 0.38828 0.0
C4519 C 0.37439 0.19987 0.39669 0.0
N4520 N 0.41175 0.17736 0.4134 0.0
N4521 N 0.3636 0.1995 0.36798 0.0
H4522 H 0.36406 0.21829 0.41334 0.0
H4523 H 0.35286 0.21591 0.39454 0.0
H4524 H 0.36266 0.19431 0.35588 0.0
H4525 H 0.35755 0.21116 0.36925 0.0
H4526 H 0.42153 0.16931 0.40969 0.0
H4527 H 0.41418 0.1838 0.42468 0.0
H4528 H 0.41084 0.15059 0.39427 0.0
H4529 H 0.40162 0.14937 0.37441 0.0
C4530 C 0.57803 0.62399 0.1914 0.0
C4531 C 0.57288 0.63575 0.20401 0.0
C4532 C 0.59121 0.65772 0.19147 0.0
C4533 C 0.59622 0.646 0.17873 0.0
N4534 N 0.59161 0.61941 0.16426 0.0
N4535 N 0.57159 0.66464 0.21407 0.0
C4536 C 0.58872 0.62956 0.17799 0.0
C4537 C 0.57849 0.65292 0.20334 0.0
N4538 N 0.57318 0.60733 0.19257 0.0
N4539 N 0.59927 0.6731 0.1928 0.0
H4540 H 0.56249 0.66148 0.22307 0.0
H4541 H 0.57374 0.67768 0.21311 0.0
H4542 H 0.60852 0.67716 0.18433 0.0
H4543 H 0.59768 0.68138 0.20295 0.0
H4544 H 0.57816 0.59767 0.18506 0.0
H4545 H 0.56482 0.60295 0.20178 0.0
H4546 H 0.58531 0.60794 0.16209 0.0
H4547 H 0.59922 0.6232 0.15418 0.0
C4548 C 0.13073 0.80571 0.89751 0.0
C4549 C 0.11658 0.80899 0.9081 0.0
C4550 C 0.10751 0.83172 0.88917 0.0
C4551 C 0.12075 0.82748 0.87782 0.0
N4552 N 0.14316 0.80838 0.86968 0.0
N4553 N 0.08943 0.82235 0.91198 0.0
C4554 C 0.13182 0.81382 0.88154 0.0
C4555 C 0.10432 0.82115 0.90329 0.0
N4556 N 0.14349 0.79541 0.90298 0.0
N4557 N 0.09858 0.84638 0.88703 0.0
H4558 H 0.08657 0.81469 0.92231 0.0
H4559 H 0.0793 0.82974 0.90794 0.0
H4560 H 0.10116 0.85492 0.87737 0.0
H4561 H 0.08992 0.85095 0.89585 0.0
H4562 H 0.15495 0.79404 0.89662 0.0
H4563 H 0.14329 0.78937 0.91464 0.0
H4564 H 0.15032 0.79737 0.87097 0.0
H4565 H 0.14432 0.81401 0.85786 0.0
C4566 C 0.92294 0.35025 0.70418 0.0
C4567 C 0.92788 0.36756 0.70583 0.0
C4568 C 0.91185 0.37434 0.68021 0.0
C4569 C 0.90495 0.35761 0.68 0.0
N4570 N 0.90263 0.32995 0.69281 0.0
N4571 N 0.92603 0.39653 0.69631 0.0
C4572 C 0.91028 0.34556 0.69215 0.0
C4573 C 0.92212 0.37972 0.69402 0.0
N4574 N 0.93043 0.33827 0.71408 0.0
N4575 N 0.90895 0.38495 0.66693 0.0
H4576 H 0.93407 0.40087 0.70586 0.0
H4577 H 0.92045 0.40626 0.68943 0.0
H4578 H 0.90182 0.38131 0.65643 0.0
H4579 H 0.91492 0.39669 0.66552 0.0
H4580 H 0.92876 0.32523 0.7123 0.0
H4581 H 0.93953 0.34132 0.72315 0.0
H4582 H 0.90459 0.32131 0.70252 0.0
H4583 H 0.89324 0.32607 0.68436 0.0
C4584 C 0.37318 0.82195 0.09614 0.0
C4585 C 0.38416 0.80786 0.09563 0.0
C4586 C 0.38933 0.81173 0.12598 0.0
C4587 C 0.38127 0.82794 0.1255 0.0
N4588 N 0.3701 0.85002 0.10748 0.0
N4589 N 0.40402 0.78986 0.10995 0.0
C4590 C 0.37422 0.8334 0.1099 0.0
C4591 C 0.39266 0.80287 0.11054 0.0
N4592 N 0.36218 0.82486 0.08321 0.0
N4593 N 0.39307 0.80439 0.14107 0.0
H4594 H 0.40615 0.78277 0.099 0.0
H4595 H 0.41196 0.78689 0.12 0.0
H4596 H 0.38963 0.80981 0.15259 0.0
H4597 H 0.39777 0.79207 0.14208 0.0
H4598 H 0.35284 0.83418 0.08387 0.0
H4599 H 0.36123 0.81687 0.07271 0.0
H4600 H 0.36585 0.85472 0.09598 0.0
H4601 H 0.3736 0.85943 0.11601 0.0
C4602 C 0.92564 0.63127 0.81058 0.0
C4603 C 0.93119 0.64383 0.79901 0.0
C4604 C 0.91094 0.66417 0.81126 0.0
C4605 C 0.90635 0.65197 0.8236 0.0
N4606 N 0.91179 0.62518 0.83715 0.0
N4607 N 0.9312 0.67305 0.78997 0.0
C4608 C 0.91444 0.63589 0.82387 0.0
C4609 C 0.92442 0.66053 0.79982 0.0
N4610 N 0.93062 0.61476 0.80851 0.0
N4611 N 0.90201 0.67897 0.81007 0.0
H4612 H 0.94093 0.67083 0.78135 0.0
H4613 H 0.92815 0.68586 0.79127 0.0
H4614 H 0.89224 0.68216 0.81833 0.0
H4615 H 0.90342 0.68751 0.80018 0.0
H4616 H 0.92548 0.6047 0.81533 0.0
H4617 H 0.93879 0.61086 0.79892 0.0
H4618 H 0.91862 0.61405 0.83897 0.0
H4619 H 0.90392 0.62825 0.84728 0.0
C4620 C 0.10679 0.17963 0.60277 0.0
C4621 C 0.11724 0.19371 0.59874 0.0
C4622 C 0.12901 0.19332 0.62742 0.0
C4623 C 0.12053 0.17765 0.63041 0.0
N4624 N 0.10339 0.1544 0.61966 0.0
N4625 N 0.13891 0.21384 0.6068 0.0
C4626 C 0.10982 0.17047 0.61782 0.0
C4627 C 0.12844 0.20065 0.61101 0.0
N4628 N 0.09383 0.17508 0.59223 0.0
N4629 N 0.13737 0.20126 0.64035 0.0
H4630 H 0.1385 0.21976 0.59507 0.0
H4631 H 0.14867 0.21828 0.61451 0.0
H4632 H 0.1379 0.1962 0.65248 0.0
H4633 H 0.14249 0.21345 0.6395 0.0
H4634 H 0.08464 0.1661 0.59542 0.0
H4635 H 0.09125 0.18154 0.58107 0.0
H4636 H 0.09713 0.14789 0.61003 0.0
H4637 H 0.10568 0.14685 0.63016 0.0
C4638 C 0.58162 0.37778 0.31317 0.0
C4639 C 0.57734 0.36687 0.29951 0.0
C4640 C 0.59664 0.34508 0.31032 0.0
C4641 C 0.60028 0.3557 0.32436 0.0
N4642 N 0.59368 0.38041 0.34117 0.0
N4643 N 0.57806 0.33902 0.28666 0.0
C4644 C 0.59196 0.37153 0.32639 0.0
C4645 C 0.58406 0.35017 0.29854 0.0
N4646 N 0.57633 0.39432 0.31319 0.0
N4647 N 0.6056 0.33042 0.30794 0.0
H4648 H 0.56889 0.34231 0.2778 0.0
H4649 H 0.58105 0.32614 0.28646 0.0
H4650 H 0.6146 0.32609 0.31651 0.0
H4651 H 0.60496 0.32313 0.29696 0.0
H4652 H 0.58058 0.4034 0.32181 0.0
H4653 H 0.56871 0.39937 0.30373 0.0
H4654 H 0.58655 0.39112 0.34415 0.0
H4655 H 0.60112 0.3762 0.35116 0.0
C4656 C 0.41038 0.40471 0.1792 0.0
C4657 C 0.41446 0.39301 0.19211 0.0
C4658 C 0.38702 0.37875 0.18803 0.0
C4659 C 0.38399 0.38905 0.17373 0.0
N4660 N 0.39389 0.41024 0.15412 0.0
N4661 N 0.40773 0.3674 0.20744 0.0
C4662 C 0.39594 0.40167 0.16891 0.0
C4663 C 0.40302 0.37966 0.19624 0.0
N4664 N 0.42009 0.41898 0.17707 0.0
N4665 N 0.37447 0.36834 0.19395 0.0
H4666 H 0.4194 0.36749 0.21362 0.0
H4667 H 0.40071 0.35637 0.20955 0.0
H4668 H 0.36259 0.36738 0.18823 0.0
H4669 H 0.37526 0.36186 0.20534 0.0
H4670 H 0.41672 0.42887 0.16908 0.0
H4671 H 0.43071 0.42169 0.18446 0.0
H4672 H 0.40317 0.41815 0.14902 0.0
H4673 H 0.38352 0.40838 0.14616 0.0
C4674 C 0.37166 0.68883 0.93374 0.0
C4675 C 0.36057 0.70249 0.93751 0.0
C4676 C 0.34147 0.69303 0.91473 0.0
C4677 C 0.35198 0.67872 0.91187 0.0
N4678 N 0.37535 0.6612 0.92059 0.0
N4679 N 0.33376 0.71641 0.93333 0.0
C4680 C 0.36656 0.6761 0.92197 0.0
C4681 C 0.34513 0.70428 0.92846 0.0
N4682 N 0.38739 0.68837 0.94095 0.0
N4683 N 0.32821 0.69605 0.9041 0.0
H4684 H 0.33607 0.72492 0.9432 0.0
H4685 H 0.32154 0.71726 0.92848 0.0
H4686 H 0.32488 0.68776 0.89431 0.0
H4687 H 0.32119 0.70722 0.90425 0.0
H4688 H 0.39678 0.67987 0.93726 0.0
H4689 H 0.39165 0.6975 0.94957 0.0
H4690 H 0.38494 0.65771 0.92886 0.0
H4691 H 0.37207 0.65157 0.91209 0.0
C4692 C 0.08798 0.62442 0.6726 0.0
C4693 C 0.0874 0.61933 0.68969 0.0
C4694 C 0.11858 0.61928 0.6905 0.0
C4695 C 0.11901 0.62266 0.6729 0.0
N4696 N 0.10376 0.62374 0.64658 0.0
N4697 N 0.10195 0.60964 0.71448 0.0
C4698 C 0.10359 0.62393 0.66379 0.0
C4699 C 0.10267 0.61607 0.69854 0.0
N4700 N 0.07362 0.62997 0.66476 0.0
N4701 N 0.13323 0.61981 0.69966 0.0
H4702 H 0.09052 0.60765 0.72081 0.0
H4703 H 0.11253 0.60522 0.72092 0.0
H4704 H 0.14503 0.62232 0.69428 0.0
H4705 H 0.13354 0.61913 0.71276 0.0
H4706 H 0.07376 0.63568 0.65294 0.0
H4707 H 0.06183 0.6304 0.67068 0.0
H4708 H 0.0928 0.62312 0.63927 0.0
H4709 H 0.11482 0.62204 0.63965 0.0
C4710 C 0.15922 0.30348 0.42986 0.0
C4711 C 0.14338 0.30495 0.43824 0.0
C4712 C 0.13755 0.33125 0.42271 0.0
C4713 C 0.15246 0.32874 0.41307 0.0
N4714 N 0.17679 0.31167 0.40611 0.0
N4715 N 0.11646 0.319 0.44135 0.0
C4716 C 0.16315 0.31466 0.41632 0.0
C4717 C 0.13229 0.31857 0.43436 0.0
N4718 N 0.17071 0.29172 0.4352 0.0
N4719 N 0.12856 0.34595 0.42088 0.0
H4720 H 0.11214 0.30992 0.4499 0.0
H4721 H 0.1071 0.32748 0.43767 0.0
H4722 H 0.13203 0.35545 0.4124 0.0
H4723 H 0.1186 0.34944 0.42875 0.0
H4724 H 0.18316 0.29123 0.4309 0.0
H4725 H 0.16824 0.28324 0.44498 0.0
H4726 H 0.18388 0.30055 0.40648 0.0
H4727 H 0.18039 0.31987 0.39644 0.0
C4728 C 0.41645 0.62131 0.3298 0.0
C4729 C 0.41647 0.61248 0.31418 0.0
C4730 C 0.38555 0.6089 0.31676 0.0
C4731 C 0.38605 0.61541 0.33355 0.0
N4732 N 0.40384 0.62283 0.35739 0.0
N4733 N 0.40115 0.59447 0.29464 0.0
C4734 C 0.40206 0.62016 0.34047 0.0
C4735 C 0.40104 0.60522 0.3082 0.0
N4736 N 0.42988 0.63136 0.33429 0.0
N4737 N 0.37046 0.60714 0.30852 0.0
H4738 H 0.41225 0.59112 0.28833 0.0
H4739 H 0.39048 0.58759 0.29083 0.0
H4740 H 0.35896 0.61097 0.31371 0.0
H4741 H 0.36963 0.60378 0.29582 0.0
H4742 H 0.42964 0.63931 0.34486 0.0
H4743 H 0.44038 0.63324 0.32652 0.0
H4744 H 0.41555 0.62517 0.36305 0.0
H4745 H 0.39409 0.62052 0.36595 0.0
C4746 C 0.15375 0.68727 0.06598 0.0
C4747 C 0.14107 0.69946 0.06989 0.0
C4748 C 0.14412 0.69263 0.09959 0.0
C4749 C 0.15373 0.67785 0.09564 0.0
N4750 N 0.17678 0.67058 0.0771 0.0
N4751 N 0.12226 0.71171 0.09055 0.0
C4752 C 0.16107 0.6774 0.07922 0.0
C4753 C 0.13558 0.70138 0.08671 0.0
N4754 N 0.15897 0.6853 0.04969 0.0
N4755 N 0.14555 0.70011 0.11508 0.0
H4756 H 0.11545 0.71828 0.08139 0.0
H4757 H 0.11712 0.71232 0.10265 0.0
H4758 H 0.15444 0.69599 0.12387 0.0
H4759 H 0.13982 0.71167 0.11809 0.0
H4760 H 0.16679 0.6754 0.04576 0.0
H4761 H 0.15441 0.69279 0.03989 0.0
H4762 H 0.18337 0.67073 0.06573 0.0
H4763 H 0.18447 0.66783 0.0874 0.0
C4764 C 0.10137 0.39613 0.80604 0.0
C4765 C 0.08575 0.38928 0.81191 0.0
C4766 C 0.09985 0.38106 0.83805 0.0
C4767 C 0.11601 0.38544 0.83131 0.0
N4768 N 0.13191 0.39341 0.80643 0.0
N4769 N 0.07193 0.37034 0.83149 0.0
C4770 C 0.11675 0.392 0.81459 0.0
C4771 C 0.08555 0.38023 0.82729 0.0
N4772 N 0.10158 0.40687 0.79258 0.0
N4773 N 0.09782 0.37856 0.85494 0.0
H4774 H 0.06147 0.36869 0.8236 0.0
H4775 H 0.072 0.3623 0.8419 0.0
H4776 H 0.10747 0.38094 0.86358 0.0
H4777 H 0.086 0.37641 0.86044 0.0
H4778 H 0.11243 0.41348 0.78887 0.0
H4779 H 0.09059 0.41045 0.78624 0.0
H4780 H 0.13287 0.39683 0.79379 0.0
H4781 H 0.14329 0.38925 0.81159 0.0
C4782 C 0.34637 0.30571 0.57535 0.0
C4783 C 0.36268 0.30641 0.56782 0.0
C4784 C 0.36937 0.33219 0.5841 0.0
C4785 C 0.35388 0.33032 0.59296 0.0
N4786 N 0.32833 0.31439 0.59856 0.0
N4787 N 0.39059 0.31895 0.56635 0.0
C4788 C 0.34252 0.31685 0.58898 0.0
C4789 C 0.37442 0.31932 0.57252 0.0
N4790 N 0.33438 0.29476 0.5691 0.0
N4791 N 0.37902 0.34649 0.58644 0.0
H4792 H 0.39476 0.30973 0.55783 0.0
H4793 H 0.40025 0.32689 0.5707 0.0
H4794 H 0.37568 0.35619 0.59482 0.0
H4795 H 0.38951 0.3495 0.57905 0.0
H4796 H 0.32172 0.29497 0.57278 0.0
H4797 H 0.33674 0.28635 0.55916 0.0
H4798 H 0.32059 0.30368 0.59754 0.0
H4799 H 0.32492 0.32248 0.60845 0.0
C4800 C 0.19831 0.39994 0.40274 0.0
C4801 C 0.19561 0.41248 0.39018 0.0
C4802 C 0.1848 0.39013 0.37145 0.0
C4803 C 0.18285 0.37899 0.38534 0.0
N4804 N 0.20069 0.36977 0.40805 0.0
N4805 N 0.18568 0.41922 0.36215 0.0
C4806 C 0.1932 0.38276 0.39956 0.0
C4807 C 0.18879 0.40749 0.37437 0.0
N4808 N 0.20577 0.40435 0.41766 0.0
N4809 N 0.18589 0.38364 0.35554 0.0
H4810 H 0.18821 0.43217 0.36368 0.0
H4811 H 0.17929 0.4161 0.35104 0.0
H4812 H 0.18657 0.37054 0.35348 0.0
H4813 H 0.18872 0.39107 0.34506 0.0
H4814 H 0.2063 0.39615 0.42792 0.0
H4815 H 0.21061 0.4165 0.42003 0.0
H4816 H 0.20959 0.37161 0.41759 0.0
H4817 H 0.19994 0.35724 0.40366 0.0
C4818 C 0.70478 0.10576 0.61115 0.0
C4819 C 0.69635 0.09104 0.61722 0.0
C4820 C 0.67127 0.10809 0.62347 0.0
C4821 C 0.68021 0.12325 0.61928 0.0
N4822 N 0.70704 0.13651 0.61241 0.0
N4823 N 0.67337 0.0792 0.63344 0.0
C4824 C 0.69744 0.12211 0.614 0.0
C4825 C 0.6802 0.09257 0.62482 0.0
N4826 N 0.7196 0.10412 0.60243 0.0
N4827 N 0.65403 0.10819 0.6251 0.0
H4828 H 0.67956 0.06759 0.63477 0.0
H4829 H 0.66241 0.08031 0.64069 0.0
H4830 H 0.64668 0.11887 0.6226 0.0
H4831 H 0.64689 0.09715 0.62683 0.0
H4832 H 0.72533 0.11418 0.59606 0.0
H4833 H 0.72549 0.0924 0.60057 0.0
H4834 H 0.72002 0.1363 0.61003 0.0
H4835 H 0.70245 0.14862 0.61518 0.0
C4836 C 0.70155 0.91498 0.36725 0.0
C4837 C 0.69991 0.93157 0.36051 0.0
C4838 C 0.67796 0.92058 0.34122 0.0
C4839 C 0.67697 0.9053 0.35065 0.0
N4840 N 0.69689 0.88516 0.36175 0.0
N4841 N 0.68654 0.95015 0.34037 0.0
C4842 C 0.69139 0.90154 0.36068 0.0
C4843 C 0.68803 0.9344 0.34736 0.0
N4844 N 0.71245 0.91204 0.38027 0.0
N4845 N 0.6726 0.92064 0.3249 0.0
H4846 H 0.69438 0.96037 0.34361 0.0
H4847 H 0.67678 0.9532 0.33207 0.0
H4848 H 0.66967 0.9093 0.31862 0.0
H4849 H 0.67416 0.931 0.3169 0.0
H4850 H 0.71278 0.90047 0.38663 0.0
H4851 H 0.72002 0.92154 0.38562 0.0
H4852 H 0.70823 0.88179 0.36757 0.0
H4853 H 0.69126 0.87542 0.3547 0.0
C4854 C 0.8161 0.90588 0.0964 0.0
C4855 C 0.80864 0.91336 0.11089 0.0
C4856 C 0.81586 0.88785 0.12695 0.0
C4857 C 0.82604 0.88181 0.11339 0.0
N4858 N 0.83851 0.88784 0.08611 0.0
N4859 N 0.80453 0.91265 0.14104 0.0
C4860 C 0.82683 0.89151 0.09828 0.0
C4861 C 0.80942 0.90469 0.1265 0.0
N4862 N 0.8127 0.91223 0.08079 0.0
N4863 N 0.8117 0.87733 0.13997 0.0
H4864 H 0.80017 0.92514 0.14137 0.0
H4865 H 0.80649 0.9074 0.15292 0.0
H4866 H 0.81502 0.86451 0.14015 0.0
H4867 H 0.80324 0.8808 0.14946 0.0
H4868 H 0.81641 0.90609 0.06972 0.0
H4869 H 0.80471 0.92258 0.07891 0.0
H4870 H 0.84033 0.89542 0.07552 0.0
H4871 H 0.84776 0.87856 0.08751 0.0
C4872 C 0.31725 0.56581 0.3533 0.0
C4873 C 0.3049 0.56902 0.366 0.0
C4874 C 0.31254 0.59921 0.36503 0.0
C4875 C 0.32748 0.59541 0.35571 0.0
N4876 N 0.33414 0.5785 0.33128 0.0
N4877 N 0.29189 0.58915 0.38506 0.0
C4878 C 0.32743 0.5795 0.34709 0.0
C4879 C 0.30286 0.58583 0.37216 0.0
N4880 N 0.31911 0.54979 0.34687 0.0
N4881 N 0.30596 0.61522 0.36466 0.0
H4882 H 0.28474 0.5797 0.39094 0.0
H4883 H 0.29121 0.60108 0.39084 0.0
H4884 H 0.311 0.62464 0.35687 0.0
H4885 H 0.2943 0.61828 0.37003 0.0
H4886 H 0.32924 0.54638 0.33915 0.0
H4887 H 0.31113 0.53968 0.35001 0.0
H4888 H 0.33335 0.56767 0.3237 0.0
H4889 H 0.33771 0.5894 0.32471 0.0
C4890 C 0.31776 0.59618 0.87746 0.0
C4891 C 0.31013 0.59248 0.89322 0.0
C4892 C 0.31275 0.62268 0.90097 0.0
C4893 C 0.32395 0.62524 0.88719 0.0
N4894 N 0.32308 0.61855 0.85758 0.0
N4895 N 0.29965 0.60258 0.92003 0.0
C4896 C 0.3227 0.61315 0.87387 0.0
C4897 C 0.30737 0.60586 0.90499 0.0
N4898 N 0.32004 0.58365 0.8657 0.0
N4899 N 0.30471 0.63628 0.90803 0.0
H4900 H 0.29537 0.59048 0.92336 0.0
H4901 H 0.29879 0.61163 0.92964 0.0
H4902 H 0.30552 0.64837 0.9027 0.0
H4903 H 0.29524 0.63511 0.9171 0.0
H4904 H 0.32718 0.58553 0.8548 0.0
H4905 H 0.31581 0.57118 0.86731 0.0
H4906 H 0.32064 0.6106 0.8473 0.0
H4907 H 0.32327 0.63148 0.85466 0.0
C4908 C 0.69096 0.07385 0.14877 0.0
C4909 C 0.70571 0.08036 0.14085 0.0
C4910 C 0.69565 0.10914 0.14676 0.0
C4911 C 0.67926 0.10275 0.15084 0.0
N4912 N 0.66105 0.0778 0.15311 0.0
N4913 N 0.72059 0.10475 0.1297 0.0
C4914 C 0.67683 0.08475 0.15138 0.0
C4915 C 0.70769 0.09818 0.13915 0.0
N4916 N 0.69046 0.05733 0.15399 0.0
N4917 N 0.6999 0.12559 0.15047 0.0
H4918 H 0.72934 0.09716 0.12336 0.0
H4919 H 0.72145 0.11765 0.12682 0.0
H4920 H 0.69179 0.13367 0.1571 0.0
H4921 H 0.7121 0.13043 0.14876 0.0
H4922 H 0.68066 0.0525 0.1614 0.0
H4923 H 0.70066 0.04906 0.15249 0.0
H4924 H 0.65873 0.06477 0.15218 0.0
H4925 H 0.65004 0.08493 0.15342 0.0
C4926 C 0.80938 0.92331 0.62989 0.0
C4927 C 0.80264 0.93248 0.64369 0.0
C4928 C 0.81913 0.91472 0.66304 0.0
C4929 C 0.82772 0.90727 0.64909 0.0
N4930 N 0.83379 0.90852 0.61919 0.0
N4931 N 0.80286 0.93871 0.67345 0.0
C4932 C 0.82354 0.9126 0.63247 0.0
C4933 C 0.80805 0.92873 0.66031 0.0
N4934 N 0.8023 0.92478 0.61427 0.0
N4935 N 0.82091 0.90799 0.67877 0.0
H4936 H 0.79443 0.94878 0.67196 0.0
H4937 H 0.80794 0.93779 0.68554 0.0
H4938 H 0.82818 0.89723 0.68114 0.0
H4939 H 0.8138 0.912 0.68911 0.0
H4940 H 0.8056 0.91691 0.60419 0.0
H4941 H 0.792 0.93268 0.61184 0.0
H4942 H 0.83194 0.91317 0.60706 0.0
H4943 H 0.84536 0.90244 0.6207 0.0
loop_
_geom_bond_atom_site_label_1
_geom_bond_atom_site_label_2
_geom_bond_distance
_geom_bond_site_symmetry_2
_ccdc_geom_bond_type
C0 C1 1.264 . S
C0 C5 1.479 . S
C0 C10 1.465 . S
C1 C0 1.264 . S
C1 C3 1.339 . S
C1 H28 0.931 . S
C2 C3 1.395 . S
C2 C4 1.320 . S
C3 C1 1.339 . S
C3 C2 1.395 . S
C3 H29 0.929 . S
C4 C2 1.320 . S
C4 C5 1.405 . S
C4 H30 0.930 . S
C5 C0 1.479 . S
C5 C4 1.405 . S
C5 H31 0.931 . S
U6 O7 2.454 . S
U6 O8 2.458 . S
U6 C9 2.984 . S
U6 C10 2.847 1_455 S
U6 C23 2.882 . S
U6 O24 2.441 1_455 S
U6 O25 2.420 . S
U6 O26 2.455 . S
U6 O27 2.449 . S
O7 U6 2.454 . S
O7 C9 1.353 . S
O8 U6 2.458 . S
O8 C9 1.286 . S
C9 U6 2.984 . S
C9 O7 1.353 . S
C9 O8 1.286 . S
C9 C11 1.363 . S
C10 C0 1.465 . S
C10 U6 2.847 1_655 S
C10 O24 1.249 . S
C10 O25 1.202 1_655 S
C11 C9 1.363 . S
C11 C13 1.408 . S
C11 C16 1.342 . S
C12 C13 1.310 . S
C12 C15 1.461 . S
C12 H32 0.932 . S
C13 C11 1.408 . S
C13 C12 1.310 . S
C13 H33 0.930 . S
C14 C15 1.474 . S
C14 C16 1.285 . S
C14 H34 0.929 . S
C15 C12 1.461 . S
C15 C14 1.474 . S
C16 C11 1.342 . S
C16 C14 1.285 . S
C16 H35 0.930 . S
C17 C20 1.424 . S
C17 C22 1.245 . S
C17 C23 1.428 . S
C18 C21 1.260 . S
C18 C22 1.477 . S
C18 H36 0.932 . S
C19 C20 1.384 . S
C19 C21 1.479 . S
C19 H37 0.929 . S
C20 C17 1.424 . S
C20 C19 1.384 . S
C20 H38 0.928 . S
C21 C18 1.260 . S
C21 C19 1.479 . S
C22 C17 1.245 . S
C22 C18 1.477 . S
C22 H39 0.932 . S
C23 U6 2.882 . S
C23 C17 1.428 . S
C23 O26 1.301 . S
C23 O27 1.282 . S
O24 U6 2.441 1_655 S
O24 C10 1.249 . S
O25 U6 2.420 . S
O25 C10 1.202 1_455 S
O26 U6 2.455 . S
O26 C23 1.301 . S
O27 U6 2.449 . S
O27 C23 1.282 . S
H28 C1 0.931 . S
H29 C3 0.929 . S
H30 C4 0.930 . S
H31 C5 0.931 . S
H32 C12 0.932 . S
H33 C13 0.930 . S
H34 C14 0.929 . S
H35 C16 0.930 . S
H36 C18 0.932 . S
H37 C19 0.929 . S
H38 C20 0.928 . S
H39 C22 0.932 . S
C40 C41 1.264 . S
C40 C45 1.479 . S
C40 C50 1.465 . S
C41 C40 1.264 . S
C41 C43 1.339 . S
C41 H68 0.931 . S
C42 C43 1.395 . S
C42 C44 1.320 . S
C43 C41 1.339 . S
C43 C42 1.395 . S
C43 H69 0.929 . S
C44 C42 1.320 . S
C44 C45 1.405 . S
C44 H70 0.930 . S
C45 C40 1.479 . S
C45 C44 1.405 . S
C45 H71 0.931 . S
U46 O47 2.454 . S
U46 O48 2.458 . S
U46 C49 2.984 . S
U46 C50 2.847 . S
U46 C63 2.882 . S
U46 O64 2.441 . S
U46 O65 2.420 . S
U46 O66 2.455 . S
U46 O67 2.449 . S
O47 U46 2.454 . S
O47 C49 1.353 . S
O48 U46 2.458 . S
O48 C49 1.286 . S
C49 U46 2.984 . S
C49 O47 1.353 . S
C49 O48 1.286 . S
C49 C51 1.363 . S
C50 C40 1.465 . S
C50 U46 2.847 . S
C50 O64 1.249 . S
C50 O65 1.202 . S
C51 C49 1.363 . S
C51 C53 1.408 . S
C51 C56 1.342 . S
C52 C53 1.310 . S
C52 C55 1.461 . S
C52 H72 0.932 . S
C53 C51 1.408 . S
C53 C52 1.310 . S
C53 H73 0.930 . S
C54 C55 1.474 . S
C54 C56 1.285 . S
C54 H74 0.929 . S
C55 C52 1.461 . S
C55 C54 1.474 . S
C56 C51 1.342 . S
C56 C54 1.285 . S
C56 H75 0.930 . S
C57 C60 1.424 . S
C57 C62 1.245 . S
C57 C63 1.428 . S
C58 C61 1.260 . S
C58 C62 1.477 . S
C58 H76 0.932 . S
C59 C60 1.384 . S
C59 C61 1.479 . S
C59 H77 0.929 . S
C60 C57 1.424 . S
C60 C59 1.384 . S
C60 H78 0.928 . S
C61 C58 1.260 . S
C61 C59 1.479 . S
C62 C57 1.245 . S
C62 C58 1.477 . S
C62 H79 0.932 . S
C63 U46 2.882 . S
C63 C57 1.428 . S
C63 O66 1.301 . S
C63 O67 1.282 . S
O64 U46 2.441 . S
O64 C50 1.249 . S
O65 U46 2.420 . S
O65 C50 1.202 . S
O66 U46 2.455 . S
O66 C63 1.301 . S
O67 U46 2.449 . S
O67 C63 1.282 . S
H68 C41 0.931 . S
H69 C43 0.929 . S
H70 C44 0.930 . S
H71 C45 0.931 . S
H72 C52 0.932 . S
H73 C53 0.930 . S
H74 C54 0.929 . S
H75 C56 0.930 . S
H76 C58 0.932 . S
H77 C59 0.929 . S
H78 C60 0.928 . S
H79 C62 0.932 . S
C80 C81 1.264 . S
C80 C85 1.479 . S
C80 C90 1.465 . S
C81 C80 1.264 . S
C81 C83 1.339 . S
C81 H108 0.931 . S
C82 C83 1.395 . S
C82 C84 1.320 . S
C83 C81 1.339 . S
C83 C82 1.395 . S
C83 H109 0.929 . S
C84 C82 1.320 . S
C84 C85 1.405 . S
C84 H110 0.930 . S
C85 C80 1.479 . S
C85 C84 1.405 . S
C85 H111 0.931 . S
U86 O87 2.454 . S
U86 O88 2.458 . S
U86 C89 2.984 . S
U86 C90 2.847 . S
U86 C103 2.882 . S
U86 O104 2.441 . S
U86 O105 2.420 . S
U86 O106 2.455 . S
U86 O107 2.449 . S
O87 U86 2.454 . S
O87 C89 1.353 . S
O88 U86 2.458 . S
O88 C89 1.286 . S
C89 U86 2.984 . S
C89 O87 1.353 . S
C89 O88 1.286 . S
C89 C91 1.363 . S
C90 C80 1.465 . S
C90 U86 2.847 . S
C90 O104 1.249 . S
C90 O105 1.202 . S
C91 C89 1.363 . S
C91 C93 1.408 . S
C91 C96 1.342 . S
C92 C93 1.310 . S
C92 C95 1.461 . S
C92 H112 0.932 . S
C93 C91 1.408 . S
C93 C92 1.310 . S
C93 H113 0.930 . S
C94 C95 1.474 . S
C94 C96 1.285 . S
C94 H114 0.929 . S
C95 C92 1.461 . S
C95 C94 1.474 . S
C96 C91 1.342 . S
C96 C94 1.285 . S
C96 H115 0.930 . S
C97 C100 1.424 . S
C97 C102 1.245 . S
C97 C103 1.428 . S
C98 C101 1.260 . S
C98 C102 1.477 . S
C98 H116 0.932 . S
C99 C100 1.384 . S
C99 C101 1.479 . S
C99 H117 0.929 . S
C100 C97 1.424 . S
C100 C99 1.384 . S
C100 H118 0.928 . S
C101 C98 1.260 . S
C101 C99 1.479 . S
C102 C97 1.245 . S
C102 C98 1.477 . S
C102 H119 0.932 . S
C103 U86 2.882 . S
C103 C97 1.428 . S
C103 O106 1.301 . S
C103 O107 1.282 . S
O104 U86 2.441 . S
O104 C90 1.249 . S
O105 U86 2.420 . S
O105 C90 1.202 . S
O106 U86 2.455 . S
O106 C103 1.301 . S
O107 U86 2.449 . S
O107 C103 1.282 . S
H108 C81 0.931 . S
H109 C83 0.929 . S
H110 C84 0.930 . S
H111 C85 0.931 . S
H112 C92 0.932 . S
H113 C93 0.930 . S
H114 C94 0.929 . S
H115 C96 0.930 . S
H116 C98 0.932 . S
H117 C99 0.929 . S
H118 C100 0.928 . S
H119 C102 0.932 . S
C120 C121 1.264 . S
C120 C125 1.479 . S
C120 C130 1.465 . S
C121 C120 1.264 . S
C121 C123 1.339 . S
C121 H148 0.931 . S
C122 C123 1.395 . S
C122 C124 1.320 . S
C123 C121 1.339 . S
C123 C122 1.395 . S
C123 H149 0.929 . S
C124 C122 1.320 . S
C124 C125 1.405 . S
C124 H150 0.930 . S
C125 C120 1.479 . S
C125 C124 1.405 . S
C125 H151 0.931 . S
U126 O127 2.454 1_554 S
U126 O128 2.458 . S
U126 C129 2.984 1_554 S
U126 C130 2.847 . S
U126 C143 2.882 . S
U126 O144 2.441 . S
U126 O145 2.420 . S
U126 O146 2.455 . S
U126 O147 2.449 . S
O127 U126 2.454 1_556 S
O127 C129 1.353 . S
O128 U126 2.458 . S
O128 C129 1.286 1_554 S
C129 U126 2.984 1_556 S
C129 O127 1.353 . S
C129 O128 1.286 1_556 S
C129 C131 1.363 . S
C130 C120 1.465 . S
C130 U126 2.847 . S
C130 O144 1.249 . S
C130 O145 1.202 . S
C131 C129 1.363 . S
C131 C133 1.408 . S
C131 C136 1.342 . S
C132 C133 1.310 . S
C132 C135 1.461 . S
C132 H152 0.932 . S
C133 C131 1.408 . S
C133 C132 1.310 . S
C133 H153 0.930 . S
C134 C135 1.474 . S
C134 C136 1.285 . S
C134 H154 0.929 . S
C135 C132 1.461 . S
C135 C134 1.474 . S
C136 C131 1.342 . S
C136 C134 1.285 . S
C136 H155 0.930 . S
C137 C140 1.424 . S
C137 C142 1.245 . S
C137 C143 1.428 . S
C138 C141 1.260 . S
C138 C142 1.477 . S
C138 H156 0.932 . S
C139 C140 1.384 . S
C139 C141 1.479 . S
C139 H157 0.929 . S
C140 C137 1.424 . S
C140 C139 1.384 . S
C140 H158 0.928 . S
C141 C138 1.260 . S
C141 C139 1.479 . S
C142 C137 1.245 . S
C142 C138 1.477 . S
C142 H159 0.932 . S
C143 U126 2.882 . S
C143 C137 1.428 . S
C143 O146 1.301 . S
C143 O147 1.282 . S
O144 U126 2.441 . S
O144 C130 1.249 . S
O145 U126 2.420 . S
O145 C130 1.202 . S
O146 U126 2.455 . S
O146 C143 1.301 . S
O147 U126 2.449 . S
O147 C143 1.282 . S
H148 C121 0.931 . S
H149 C123 0.929 . S
H150 C124 0.930 . S
H151 C125 0.931 . S
H152 C132 0.932 . S
H153 C133 0.930 . S
H154 C134 0.929 . S
H155 C136 0.930 . S
H156 C138 0.932 . S
H157 C139 0.929 . S
H158 C140 0.928 . S
H159 C142 0.932 . S
C160 C161 1.264 . S
C160 C165 1.479 . S
C160 C170 1.465 . S
C161 C160 1.264 . S
C161 C163 1.339 . S
C161 H188 0.931 . S
C162 C163 1.395 . S
C162 C164 1.320 . S
C163 C161 1.339 . S
C163 C162 1.395 . S
C163 H189 0.929 . S
C164 C162 1.320 . S
C164 C165 1.405 . S
C164 H190 0.930 . S
C165 C160 1.479 . S
C165 C164 1.405 . S
C165 H191 0.931 . S
U166 O167 2.454 . S
U166 O168 2.458 . S
U166 C169 2.984 . S
U166 C170 2.847 1_455 S
U166 C183 2.882 . S
U166 O184 2.387 1_455 S
U166 O185 2.420 . S
U166 O186 2.455 . S
U166 O187 2.449 . S
O167 U166 2.454 . S
O167 C169 1.353 . S
O168 U166 2.458 . S
O168 C169 1.286 . S
C169 U166 2.984 . S
C169 O167 1.353 . S
C169 O168 1.286 . S
C169 C171 1.363 . S
C170 C160 1.465 . S
C170 U166 2.847 1_655 S
C170 O184 1.258 . S
C170 O185 1.202 1_655 S
C171 C169 1.363 . S
C171 C173 1.408 . S
C171 C176 1.342 . S
C172 C173 1.310 . S
C172 C175 1.461 . S
C172 H192 0.932 . S
C173 C171 1.408 . S
C173 C172 1.310 . S
C173 H193 0.930 . S
C174 C175 1.474 . S
C174 C176 1.285 . S
C174 H194 0.929 . S
C175 C172 1.461 . S
C175 C174 1.474 . S
C176 C171 1.342 . S
C176 C174 1.285 . S
C176 H195 0.930 . S
C177 C180 1.424 . S
C177 C182 1.245 . S
C177 C183 1.428 . S
C178 C181 1.260 . S
C178 C182 1.477 . S
C178 H196 0.932 . S
C179 C180 1.384 . S
C179 C181 1.479 . S
C179 H197 0.929 . S
C180 C177 1.424 . S
C180 C179 1.384 . S
C180 H198 0.928 . S
C181 C178 1.260 . S
C181 C179 1.479 . S
C182 C177 1.245 . S
C182 C178 1.477 . S
C182 H199 0.932 . S
C183 U166 2.882 . S
C183 C177 1.428 . S
C183 O186 1.301 . S
C183 O187 1.282 . S
O184 U166 2.387 1_655 S
O184 C170 1.258 . S
O185 U166 2.420 . S
O185 C170 1.202 1_455 S
O186 U166 2.455 . S
O186 C183 1.301 . S
O187 U166 2.449 . S
O187 C183 1.282 . S
H188 C161 0.931 . S
H189 C163 0.929 . S
H190 C164 0.930 . S
H191 C165 0.931 . S
H192 C172 0.932 . S
H193 C173 0.930 . S
H194 C174 0.929 . S
H195 C176 0.930 . S
H196 C178 0.932 . S
H197 C179 0.929 . S
H198 C180 0.928 . S
H199 C182 0.932 . S
C200 C201 1.264 . S
C200 C205 1.479 . S
C200 C210 1.465 . S
C201 C200 1.264 . S
C201 C203 1.339 . S
C201 H228 0.931 . S
C202 C203 1.395 . S
C202 C204 1.320 . S
C203 C201 1.339 . S
C203 C202 1.395 . S
C203 H229 0.929 . S
C204 C202 1.320 . S
C204 C205 1.405 . S
C204 H230 0.930 . S
C205 C200 1.479 . S
C205 C204 1.405 . S
C205 H231 0.931 . S
U206 O207 2.454 . S
U206 O208 2.458 . S
U206 C209 2.984 . S
U206 C210 2.847 . S
U206 C223 2.882 . S
U206 O224 2.441 . S
U206 O225 2.420 . S
U206 O226 2.455 . S
U206 O227 2.449 . S
O207 U206 2.454 . S
O207 C209 1.353 . S
O208 U206 2.458 . S
O208 C209 1.286 . S
C209 U206 2.984 . S
C209 O207 1.353 . S
C209 O208 1.286 . S
C209 C211 1.363 . S
C210 C200 1.465 . S
C210 U206 2.847 . S
C210 O224 1.249 . S
C210 O225 1.202 . S
C211 C209 1.363 . S
C211 C213 1.408 . S
C211 C216 1.342 . S
C212 C213 1.310 . S
C212 C215 1.461 . S
C212 H232 0.932 . S
C213 C211 1.408 . S
C213 C212 1.310 . S
C213 H233 0.930 . S
C214 C215 1.474 . S
C214 C216 1.285 . S
C214 H234 0.929 . S
C215 C212 1.461 . S
C215 C214 1.474 . S
C216 C211 1.342 . S
C216 C214 1.285 . S
C216 H235 0.930 . S
C217 C220 1.424 . S
C217 C222 1.245 . S
C217 C223 1.428 . S
C218 C221 1.260 . S
C218 C222 1.477 . S
C218 H236 0.932 . S
C219 C220 1.384 . S
C219 C221 1.479 . S
C219 H237 0.929 . S
C220 C217 1.424 . S
C220 C219 1.384 . S
C220 H238 0.928 . S
C221 C218 1.260 . S
C221 C219 1.479 . S
C222 C217 1.245 . S
C222 C218 1.477 . S
C222 H239 0.932 . S
C223 U206 2.882 . S
C223 C217 1.428 . S
C223 O226 1.301 . S
C223 O227 1.282 . S
O224 U206 2.441 . S
O224 C210 1.249 . S
O225 U206 2.420 . S
O225 C210 1.202 . S
O226 U206 2.455 . S
O226 C223 1.301 . S
O227 U206 2.449 . S
O227 C223 1.282 . S
H228 C201 0.931 . S
H229 C203 0.929 . S
H230 C204 0.930 . S
H231 C205 0.931 . S
H232 C212 0.932 . S
H233 C213 0.930 . S
H234 C214 0.929 . S
H235 C216 0.930 . S
H236 C218 0.932 . S
H237 C219 0.929 . S
H238 C220 0.928 . S
H239 C222 0.932 . S
C240 C241 1.264 . S
C240 C245 1.479 . S
C240 C250 1.465 . S
C241 C240 1.264 . S
C241 C243 1.339 . S
C241 H268 0.931 . S
C242 C243 1.395 . S
C242 C244 1.320 . S
C243 C241 1.339 . S
C243 C242 1.395 . S
C243 H269 0.929 . S
C244 C242 1.320 . S
C244 C245 1.405 . S
C244 H270 0.930 . S
C245 C240 1.479 . S
C245 C244 1.405 . S
C245 H271 0.931 . S
U246 O247 2.454 . S
U246 O248 2.458 . S
U246 C249 2.984 . S
U246 C250 2.847 . S
U246 C263 2.882 . S
U246 O264 2.441 . S
U246 O265 2.420 . S
U246 O266 2.455 . S
U246 O267 2.449 . S
O247 U246 2.454 . S
O247 C249 1.353 . S
O248 U246 2.458 . S
O248 C249 1.286 . S
C249 U246 2.984 . S
C249 O247 1.353 . S
C249 O248 1.286 . S
C249 C251 1.363 . S
C250 C240 1.465 . S
C250 U246 2.847 . S
C250 O264 1.249 . S
C250 O265 1.202 . S
C251 C249 1.363 . S
C251 C253 1.408 . S
C251 C256 1.342 . S
C252 C253 1.310 . S
C252 C255 1.461 . S
C252 H272 0.932 . S
C253 C251 1.408 . S
C253 C252 1.310 . S
C253 H273 0.930 . S
C254 C255 1.474 . S
C254 C256 1.285 . S
C254 H274 0.929 . S
C255 C252 1.461 . S
C255 C254 1.474 . S
C256 C251 1.342 . S
C256 C254 1.285 . S
C256 H275 0.930 . S
C257 C260 1.424 . S
C257 C262 1.245 . S
C257 C263 1.428 . S
C258 C261 1.260 . S
C258 C262 1.477 . S
C258 H276 0.932 . S
C259 C260 1.384 . S
C259 C261 1.479 . S
C259 H277 0.929 . S
C260 C257 1.424 . S
C260 C259 1.384 . S
C260 H278 0.928 . S
C261 C258 1.260 . S
C261 C259 1.479 . S
C262 C257 1.245 . S
C262 C258 1.477 . S
C262 H279 0.932 . S
C263 U246 2.882 . S
C263 C257 1.428 . S
C263 O266 1.301 . S
C263 O267 1.282 . S
O264 U246 2.441 . S
O264 C250 1.249 . S
O265 U246 2.420 . S
O265 C250 1.202 . S
O266 U246 2.455 . S
O266 C263 1.301 . S
O267 U246 2.449 . S
O267 C263 1.282 . S
H268 C241 0.931 . S
H269 C243 0.929 . S
H270 C244 0.930 . S
H271 C245 0.931 . S
H272 C252 0.932 . S
H273 C253 0.930 . S
H274 C254 0.929 . S
H275 C256 0.930 . S
H276 C258 0.932 . S
H277 C259 0.929 . S
H278 C260 0.928 . S
H279 C262 0.932 . S
C280 C281 1.264 . S
C280 C285 1.479 . S
C280 C290 1.465 . S
C281 C280 1.264 . S
C281 C283 1.339 . S
C281 H308 0.931 . S
C282 C283 1.395 . S
C282 C284 1.320 . S
C283 C281 1.339 . S
C283 C282 1.395 . S
C283 H309 0.929 . S
C284 C282 1.320 . S
C284 C285 1.405 . S
C284 H310 0.930 . S
C285 C280 1.479 . S
C285 C284 1.405 . S
C285 H311 0.931 . S
U286 O287 2.454 . S
U286 O288 2.458 . S
U286 C289 2.984 . S
U286 C290 2.847 1_556 S
U286 C303 2.882 . S
U286 O304 2.441 1_556 S
U286 O305 2.420 1_556 S
U286 O306 2.455 . S
U286 O307 2.449 . S
O287 U286 2.454 . S
O287 C289 1.353 . S
O288 U286 2.458 . S
O288 C289 1.286 . S
C289 U286 2.984 . S
C289 O287 1.353 . S
C289 O288 1.286 . S
C289 C291 1.363 . S
C290 C280 1.465 . S
C290 U286 2.847 1_554 S
C290 O304 1.249 . S
C290 O305 1.202 . S
C291 C289 1.363 . S
C291 C293 1.408 . S
C291 C296 1.342 . S
C292 C293 1.310 . S
C292 C295 1.461 . S
C292 H312 0.932 . S
C293 C291 1.408 . S
C293 C292 1.310 . S
C293 H313 0.930 . S
C294 C295 1.474 . S
C294 C296 1.285 . S
C294 H314 0.929 . S
C295 C292 1.461 . S
C295 C294 1.474 . S
C296 C291 1.342 . S
C296 C294 1.285 . S
C296 H315 0.930 . S
C297 C300 1.424 . S
C297 C302 1.245 . S
C297 C303 1.428 . S
C298 C301 1.260 . S
C298 C302 1.477 . S
C298 H316 0.932 . S
C299 C300 1.384 . S
C299 C301 1.479 . S
C299 H317 0.929 . S
C300 C297 1.424 . S
C300 C299 1.384 . S
C300 H318 0.928 . S
C301 C298 1.260 . S
C301 C299 1.479 . S
C302 C297 1.245 . S
C302 C298 1.477 . S
C302 H319 0.932 . S
C303 U286 2.882 . S
C303 C297 1.428 . S
C303 O306 1.301 . S
C303 O307 1.282 . S
O304 U286 2.441 1_554 S
O304 C290 1.249 . S
O305 U286 2.420 1_554 S
O305 C290 1.202 . S
O306 U286 2.455 . S
O306 C303 1.301 . S
O307 U286 2.449 . S
O307 C303 1.282 . S
H308 C281 0.931 . S
H309 C283 0.929 . S
H310 C284 0.930 . S
H311 C285 0.931 . S
H312 C292 0.932 . S
H313 C293 0.930 . S
H314 C294 0.929 . S
H315 C296 0.930 . S
H316 C298 0.932 . S
H317 C299 0.929 . S
H318 C300 0.928 . S
H319 C302 0.932 . S
C320 C321 1.264 . S
C320 C325 1.479 . S
C320 C330 1.465 . S
C321 C320 1.264 . S
C321 C323 1.339 . S
C321 H348 0.931 . S
C322 C323 1.395 . S
C322 C324 1.320 . S
C323 C321 1.339 . S
C323 C322 1.395 . S
C323 H349 0.929 . S
C324 C322 1.320 . S
C324 C325 1.405 . S
C324 H350 0.930 . S
C325 C320 1.479 . S
C325 C324 1.405 . S
C325 H351 0.931 . S
U326 O327 2.454 1_545 S
U326 O328 2.458 . S
U326 C329 2.984 1_545 S
U326 C330 2.847 . S
U326 C343 2.882 . S
U326 O344 2.441 . S
U326 O345 2.420 . S
U326 O346 2.455 . S
U326 O347 2.449 . S
O327 U326 2.454 1_565 S
O327 C329 1.353 . S
O328 U326 2.458 . S
O328 C329 1.286 1_545 S
C329 U326 2.984 1_565 S
C329 O327 1.353 . S
C329 O328 1.286 1_565 S
C329 C331 1.363 . S
C330 C320 1.465 . S
C330 U326 2.847 . S
C330 O344 1.249 . S
C330 O345 1.202 . S
C331 C329 1.363 . S
C331 C333 1.408 . S
C331 C336 1.342 . S
C332 C333 1.310 . S
C332 C335 1.461 . S
C332 H352 0.932 . S
C333 C331 1.408 . S
C333 C332 1.310 . S
C333 H353 0.930 . S
C334 C335 1.474 . S
C334 C336 1.285 . S
C334 H354 0.929 . S
C335 C332 1.461 . S
C335 C334 1.474 . S
C336 C331 1.342 . S
C336 C334 1.285 . S
C336 H355 0.930 . S
C337 C340 1.424 . S
C337 C342 1.245 . S
C337 C343 1.428 . S
C338 C341 1.260 . S
C338 C342 1.477 . S
C338 H356 0.932 . S
C339 C340 1.384 . S
C339 C341 1.479 . S
C339 H357 0.929 . S
C340 C337 1.424 . S
C340 C339 1.384 . S
C340 H358 0.928 . S
C341 C338 1.260 . S
C341 C339 1.479 . S
C342 C337 1.245 . S
C342 C338 1.477 . S
C342 H359 0.932 . S
C343 U326 2.882 . S
C343 C337 1.428 . S
C343 O346 1.301 . S
C343 O347 1.282 . S
O344 U326 2.441 . S
O344 C330 1.249 . S
O345 U326 2.420 . S
O345 C330 1.202 . S
O346 U326 2.455 . S
O346 C343 1.301 . S
O347 U326 2.449 . S
O347 C343 1.282 . S
H348 C321 0.931 . S
H349 C323 0.929 . S
H350 C324 0.930 . S
H351 C325 0.931 . S
H352 C332 0.932 . S
H353 C333 0.930 . S
H354 C334 0.929 . S
H355 C336 0.930 . S
H356 C338 0.932 . S
H357 C339 0.929 . S
H358 C340 0.928 . S
H359 C342 0.932 . S
C360 C361 1.264 . S
C360 C365 1.479 . S
C360 C370 1.465 . S
C361 C360 1.264 . S
C361 C363 1.339 . S
C361 H388 0.931 . S
C362 C363 1.395 . S
C362 C364 1.320 . S
C363 C361 1.339 . S
C363 C362 1.395 . S
C363 H389 0.929 . S
C364 C362 1.320 . S
C364 C365 1.405 . S
C364 H390 0.930 . S
C365 C360 1.479 . S
C365 C364 1.405 . S
C365 H391 0.931 . S
U366 O367 2.454 . S
U366 O368 2.458 . S
U366 C369 2.984 . S
U366 C370 2.847 1_545 S
U366 C383 2.882 . S
U366 O384 2.441 1_545 S
U366 O385 2.420 . S
U366 O386 2.455 . S
U366 O387 2.449 . S
O367 U366 2.454 . S
O367 C369 1.353 . S
O368 U366 2.458 . S
O368 C369 1.286 . S
C369 U366 2.984 . S
C369 O367 1.353 . S
C369 O368 1.286 . S
C369 C371 1.363 . S
C370 C360 1.465 . S
C370 U366 2.847 1_565 S
C370 O384 1.249 . S
C370 O385 1.202 1_565 S
C371 C369 1.363 . S
C371 C373 1.408 . S
C371 C376 1.342 . S
C372 C373 1.310 . S
C372 C375 1.461 . S
C372 H392 0.932 . S
C373 C371 1.408 . S
C373 C372 1.310 . S
C373 H393 0.930 . S
C374 C375 1.474 . S
C374 C376 1.285 . S
C374 H394 0.929 . S
C375 C372 1.461 . S
C375 C374 1.474 . S
C376 C371 1.342 . S
C376 C374 1.285 . S
C376 H395 0.930 . S
C377 C380 1.424 . S
C377 C382 1.245 . S
C377 C383 1.428 . S
C378 C381 1.260 . S
C378 C382 1.477 . S
C378 H396 0.932 . S
C379 C380 1.384 . S
C379 C381 1.479 . S
C379 H397 0.929 . S
C380 C377 1.424 . S
C380 C379 1.384 . S
C380 H398 0.928 . S
C381 C378 1.260 . S
C381 C379 1.479 . S
C382 C377 1.245 . S
C382 C378 1.477 . S
C382 H399 0.932 . S
C383 U366 2.882 . S
C383 C377 1.428 . S
C383 O386 1.301 . S
C383 O387 1.282 . S
O384 U366 2.441 1_565 S
O384 C370 1.249 . S
O385 U366 2.420 . S
O385 C370 1.202 1_545 S
O386 U366 2.455 . S
O386 C383 1.301 . S
O387 U366 2.449 . S
O387 C383 1.282 . S
H388 C361 0.931 . S
H389 C363 0.929 . S
H390 C364 0.930 . S
H391 C365 0.931 . S
H392 C372 0.932 . S
H393 C373 0.930 . S
H394 C374 0.929 . S
H395 C376 0.930 . S
H396 C378 0.932 . S
H397 C379 0.929 . S
H398 C380 0.928 . S
H399 C382 0.932 . S
C400 C401 1.264 . S
C400 C405 1.479 . S
C400 C410 1.465 . S
C401 C400 1.264 . S
C401 C403 1.339 . S
C401 H428 0.931 . S
C402 C403 1.395 . S
C402 C404 1.320 . S
C403 C401 1.339 . S
C403 C402 1.395 . S
C403 H429 0.929 . S
C404 C402 1.320 . S
C404 C405 1.405 . S
C404 H430 0.930 . S
C405 C400 1.479 . S
C405 C404 1.405 . S
C405 H431 0.931 . S
U406 O407 2.454 . S
U406 O408 2.458 . S
U406 C409 2.984 . S
U406 C410 2.847 1_565 S
U406 C423 2.882 . S
U406 O424 2.441 1_565 S
U406 O425 2.420 . S
U406 O426 2.455 . S
U406 O427 2.449 . S
O407 U406 2.454 . S
O407 C409 1.353 . S
O408 U406 2.458 . S
O408 C409 1.286 . S
C409 U406 2.984 . S
C409 O407 1.353 . S
C409 O408 1.286 . S
C409 C411 1.363 . S
C410 C400 1.465 . S
C410 U406 2.847 1_545 S
C410 O424 1.249 . S
C410 O425 1.202 1_545 S
C411 C409 1.363 . S
C411 C413 1.408 . S
C411 C416 1.342 . S
C412 C413 1.310 . S
C412 C415 1.461 . S
C412 H432 0.932 . S
C413 C411 1.408 . S
C413 C412 1.310 . S
C413 H433 0.930 . S
C414 C415 1.474 . S
C414 C416 1.285 . S
C414 H434 0.929 . S
C415 C412 1.461 . S
C415 C414 1.474 . S
C416 C411 1.342 . S
C416 C414 1.285 . S
C416 H435 0.930 . S
C417 C420 1.424 . S
C417 C422 1.245 . S
C417 C423 1.428 . S
C418 C421 1.260 . S
C418 C422 1.477 . S
C418 H436 0.932 . S
C419 C420 1.384 . S
C419 C421 1.479 . S
C419 H437 0.929 . S
C420 C417 1.424 . S
C420 C419 1.384 . S
C420 H438 0.928 . S
C421 C418 1.260 . S
C421 C419 1.479 . S
C422 C417 1.245 . S
C422 C418 1.477 . S
C422 H439 0.932 . S
C423 U406 2.882 . S
C423 C417 1.428 . S
C423 O426 1.301 . S
C423 O427 1.282 . S
O424 U406 2.441 1_545 S
O424 C410 1.249 . S
O425 U406 2.420 . S
O425 C410 1.202 1_565 S
O426 U406 2.455 . S
O426 C423 1.301 . S
O427 U406 2.449 . S
O427 C423 1.282 . S
H428 C401 0.931 . S
H429 C403 0.929 . S
H430 C404 0.930 . S
H431 C405 0.931 . S
H432 C412 0.932 . S
H433 C413 0.930 . S
H434 C414 0.929 . S
H435 C416 0.930 . S
H436 C418 0.932 . S
H437 C419 0.929 . S
H438 C420 0.928 . S
H439 C422 0.932 . S
C440 C441 1.264 . S
C440 C445 1.479 . S
C440 C450 1.465 . S
C441 C440 1.264 . S
C441 C443 1.339 . S
C441 H468 0.931 . S
C442 C443 1.395 . S
C442 C444 1.320 . S
C443 C441 1.339 . S
C443 C442 1.395 . S
C443 H469 0.929 . S
C444 C442 1.320 . S
C444 C445 1.405 . S
C444 H470 0.930 . S
C445 C440 1.479 . S
C445 C444 1.405 . S
C445 H471 0.931 . S
U446 O447 2.454 1_565 S
U446 O448 2.458 . S
U446 C449 2.984 1_565 S
U446 C450 2.847 . S
U446 C463 2.882 . S
U446 O464 2.441 . S
U446 O465 2.420 . S
U446 O466 2.455 . S
U446 O467 2.449 . S
O447 U446 2.454 1_545 S
O447 C449 1.353 . S
O448 U446 2.458 . S
O448 C449 1.286 1_565 S
C449 U446 2.984 1_545 S
C449 O447 1.353 . S
C449 O448 1.286 1_545 S
C449 C451 1.363 . S
C450 C440 1.465 . S
C450 U446 2.847 . S
C450 O464 1.249 . S
C450 O465 1.202 . S
C451 C449 1.363 . S
C451 C453 1.408 . S
C451 C456 1.342 . S
C452 C453 1.310 . S
C452 C455 1.461 . S
C452 H472 0.932 . S
C453 C451 1.408 . S
C453 C452 1.310 . S
C453 H473 0.930 . S
C454 C455 1.474 . S
C454 C456 1.285 . S
C454 H474 0.929 . S
C455 C452 1.461 . S
C455 C454 1.474 . S
C456 C451 1.342 . S
C456 C454 1.285 . S
C456 H475 0.930 . S
C457 C460 1.424 . S
C457 C462 1.245 . S
C457 C463 1.428 . S
C458 C461 1.260 . S
C458 C462 1.477 . S
C458 H476 0.932 . S
C459 C460 1.384 . S
C459 C461 1.479 . S
C459 H477 0.929 . S
C460 C457 1.424 . S
C460 C459 1.384 . S
C460 H478 0.928 . S
C461 C458 1.260 . S
C461 C459 1.479 . S
C462 C457 1.245 . S
C462 C458 1.477 . S
C462 H479 0.932 . S
C463 U446 2.882 . S
C463 C457 1.428 . S
C463 O466 1.301 . S
C463 O467 1.282 . S
O464 U446 2.441 . S
O464 C450 1.249 . S
O465 U446 2.420 . S
O465 C450 1.202 . S
O466 U446 2.455 . S
O466 C463 1.301 . S
O467 U446 2.449 . S
O467 C463 1.282 . S
H468 C441 0.931 . S
H469 C443 0.929 . S
H470 C444 0.930 . S
H471 C445 0.931 . S
H472 C452 0.932 . S
H473 C453 0.930 . S
H474 C454 0.929 . S
H475 C456 0.930 . S
H476 C458 0.932 . S
H477 C459 0.929 . S
H478 C460 0.928 . S
H479 C462 0.932 . S
C480 C481 1.264 . S
C480 C485 1.479 . S
C480 C490 1.465 . S
C481 C480 1.264 . S
C481 C483 1.339 . S
C481 H508 0.931 . S
C482 C483 1.395 . S
C482 C484 1.320 . S
C483 C481 1.339 . S
C483 C482 1.395 . S
C483 H509 0.929 . S
C484 C482 1.320 . S
C484 C485 1.405 . S
C484 H510 0.930 . S
C485 C480 1.479 . S
C485 C484 1.405 . S
C485 H511 0.931 . S
U486 O487 2.454 1_554 S
U486 O488 2.458 . S
U486 C489 2.984 1_554 S
U486 C490 2.847 . S
U486 C503 2.882 . S
U486 O504 2.441 . S
U486 O505 2.420 . S
U486 O506 2.455 . S
U486 O507 2.449 . S
O487 U486 2.454 1_556 S
O487 C489 1.353 . S
O488 U486 2.458 . S
O488 C489 1.286 1_554 S
C489 U486 2.984 1_556 S
C489 O487 1.353 . S
C489 O488 1.286 1_556 S
C489 C491 1.363 . S
C490 C480 1.465 . S
C490 U486 2.847 . S
C490 O504 1.249 . S
C490 O505 1.202 . S
C491 C489 1.363 . S
C491 C493 1.408 . S
C491 C496 1.342 . S
C492 C493 1.310 . S
C492 C495 1.461 . S
C492 H512 0.932 . S
C493 C491 1.408 . S
C493 C492 1.310 . S
C493 H513 0.930 . S
C494 C495 1.474 . S
C494 C496 1.285 . S
C494 H514 0.929 . S
C495 C492 1.461 . S
C495 C494 1.474 . S
C496 C491 1.342 . S
C496 C494 1.285 . S
C496 H515 0.930 . S
C497 C500 1.424 . S
C497 C502 1.245 . S
C497 C503 1.428 . S
C498 C501 1.260 . S
C498 C502 1.477 . S
C498 H516 0.932 . S
C499 C500 1.384 . S
C499 C501 1.479 . S
C499 H517 0.929 . S
C500 C497 1.424 . S
C500 C499 1.384 . S
C500 H518 0.928 . S
C501 C498 1.260 . S
C501 C499 1.479 . S
C502 C497 1.245 . S
C502 C498 1.477 . S
C502 H519 0.932 . S
C503 U486 2.882 . S
C503 C497 1.428 . S
C503 O506 1.301 . S
C503 O507 1.282 . S
O504 U486 2.441 . S
O504 C490 1.249 . S
O505 U486 2.420 . S
O505 C490 1.202 . S
O506 U486 2.455 . S
O506 C503 1.301 . S
O507 U486 2.449 . S
O507 C503 1.282 . S
H508 C481 0.931 . S
H509 C483 0.929 . S
H510 C484 0.930 . S
H511 C485 0.931 . S
H512 C492 0.932 . S
H513 C493 0.930 . S
H514 C494 0.929 . S
H515 C496 0.930 . S
H516 C498 0.932 . S
H517 C499 0.929 . S
H518 C500 0.928 . S
H519 C502 0.932 . S
C520 C521 1.264 . S
C520 C525 1.479 . S
C520 C530 1.465 . S
C521 C520 1.264 . S
C521 C523 1.339 . S
C521 H548 0.931 . S
C522 C523 1.395 . S
C522 C524 1.320 . S
C523 C521 1.339 . S
C523 C522 1.395 . S
C523 H549 0.929 . S
C524 C522 1.320 . S
C524 C525 1.405 . S
C524 H550 0.930 . S
C525 C520 1.479 . S
C525 C524 1.405 . S
C525 H551 0.931 . S
U526 O527 2.454 . S
U526 O528 2.458 . S
U526 C529 2.984 . S
U526 C530 2.847 1_655 S
U526 C543 2.882 . S
U526 O544 2.441 1_655 S
U526 O545 2.420 . S
U526 O546 2.455 . S
U526 O547 2.449 . S
O527 U526 2.454 . S
O527 C529 1.353 . S
O528 U526 2.458 . S
O528 C529 1.286 . S
C529 U526 2.984 . S
C529 O527 1.353 . S
C529 O528 1.286 . S
C529 C531 1.363 . S
C530 C520 1.465 . S
C530 U526 2.847 1_455 S
C530 O544 1.249 . S
C530 O545 1.202 1_455 S
C531 C529 1.363 . S
C531 C533 1.408 . S
C531 C536 1.342 . S
C532 C533 1.310 . S
C532 C535 1.461 . S
C532 H552 0.932 . S
C533 C531 1.408 . S
C533 C532 1.310 . S
C533 H553 0.930 . S
C534 C535 1.474 . S
C534 C536 1.285 . S
C534 H554 0.929 . S
C535 C532 1.461 . S
C535 C534 1.474 . S
C536 C531 1.342 . S
C536 C534 1.285 . S
C536 H555 0.930 . S
C537 C540 1.424 . S
C537 C542 1.245 . S
C537 C543 1.428 . S
C538 C541 1.260 . S
C538 C542 1.477 . S
C538 H556 0.932 . S
C539 C540 1.384 . S
C539 C541 1.479 . S
C539 H557 0.929 . S
C540 C537 1.424 . S
C540 C539 1.384 . S
C540 H558 0.928 . S
C541 C538 1.260 . S
C541 C539 1.479 . S
C542 C537 1.245 . S
C542 C538 1.477 . S
C542 H559 0.932 . S
C543 U526 2.882 . S
C543 C537 1.428 . S
C543 O546 1.301 . S
C543 O547 1.282 . S
O544 U526 2.441 1_455 S
O544 C530 1.249 . S
O545 U526 2.420 . S
O545 C530 1.202 1_655 S
O546 U526 2.455 . S
O546 C543 1.301 . S
O547 U526 2.449 . S
O547 C543 1.282 . S
H548 C521 0.931 . S
H549 C523 0.929 . S
H550 C524 0.930 . S
H551 C525 0.931 . S
H552 C532 0.932 . S
H553 C533 0.930 . S
H554 C534 0.929 . S
H555 C536 0.930 . S
H556 C538 0.932 . S
H557 C539 0.929 . S
H558 C540 0.928 . S
H559 C542 0.932 . S
C560 C561 1.264 . S
C560 C565 1.479 . S
C560 C570 1.465 . S
C561 C560 1.264 . S
C561 C563 1.339 . S
C561 H588 0.931 . S
C562 C563 1.395 . S
C562 C564 1.320 . S
C563 C561 1.339 . S
C563 C562 1.395 . S
C563 H589 0.929 . S
C564 C562 1.320 . S
C564 C565 1.405 . S
C564 H590 0.930 . S
C565 C560 1.479 . S
C565 C564 1.405 . S
C565 H591 0.931 . S
U566 O567 2.454 . S
U566 O568 2.458 . S
U566 C569 2.984 . S
U566 C570 2.847 . S
U566 C583 2.882 . S
U566 O584 2.441 . S
U566 O585 2.420 . S
U566 O586 2.455 . S
U566 O587 2.449 . S
O567 U566 2.454 . S
O567 C569 1.353 . S
O568 U566 2.458 . S
O568 C569 1.286 . S
C569 U566 2.984 . S
C569 O567 1.353 . S
C569 O568 1.286 . S
C569 C571 1.363 . S
C570 C560 1.465 . S
C570 U566 2.847 . S
C570 O584 1.249 . S
C570 O585 1.202 . S
C571 C569 1.363 . S
C571 C573 1.408 . S
C571 C576 1.342 . S
C572 C573 1.310 . S
C572 C575 1.461 . S
C572 H592 0.932 . S
C573 C571 1.408 . S
C573 C572 1.310 . S
C573 H593 0.930 . S
C574 C575 1.474 . S
C574 C576 1.285 . S
C574 H594 0.929 . S
C575 C572 1.461 . S
C575 C574 1.474 . S
C576 C571 1.342 . S
C576 C574 1.285 . S
C576 H595 0.930 . S
C577 C580 1.424 . S
C577 C582 1.245 . S
C577 C583 1.428 . S
C578 C581 1.260 . S
C578 C582 1.477 . S
C578 H596 0.932 . S
C579 C580 1.384 . S
C579 C581 1.479 . S
C579 H597 0.929 . S
C580 C577 1.424 . S
C580 C579 1.384 . S
C580 H598 0.928 . S
C581 C578 1.260 . S
C581 C579 1.479 . S
C582 C577 1.245 . S
C582 C578 1.477 . S
C582 H599 0.932 . S
C583 U566 2.882 . S
C583 C577 1.428 . S
C583 O586 1.301 . S
C583 O587 1.282 . S
O584 U566 2.441 . S
O584 C570 1.249 . S
O585 U566 2.420 . S
O585 C570 1.202 . S
O586 U566 2.455 . S
O586 C583 1.301 . S
O587 U566 2.449 . S
O587 C583 1.282 . S
H588 C561 0.931 . S
H589 C563 0.929 . S
H590 C564 0.930 . S
H591 C565 0.931 . S
H592 C572 0.932 . S
H593 C573 0.930 . S
H594 C574 0.929 . S
H595 C576 0.930 . S
H596 C578 0.932 . S
H597 C579 0.929 . S
H598 C580 0.928 . S
H599 C582 0.932 . S
C600 C601 1.264 . S
C600 C605 1.479 . S
C600 C610 1.465 . S
C601 C600 1.264 . S
C601 C603 1.339 . S
C601 H628 0.931 . S
C602 C603 1.395 . S
C602 C604 1.320 . S
C603 C601 1.339 . S
C603 C602 1.395 . S
C603 H629 0.929 . S
C604 C602 1.320 . S
C604 C605 1.405 . S
C604 H630 0.930 . S
C605 C600 1.479 . S
C605 C604 1.405 . S
C605 H631 0.931 . S
U606 O607 2.454 1_655 S
U606 O608 2.458 1_655 S
U606 C609 2.984 1_655 S
U606 C610 2.847 . S
U606 C623 2.882 . S
U606 O624 2.441 . S
U606 O625 2.420 . S
U606 O626 2.455 . S
U606 O627 2.449 . S
O607 U606 2.454 1_455 S
O607 C609 1.353 . S
O608 U606 2.458 1_455 S
O608 C609 1.286 . S
C609 U606 2.984 1_455 S
C609 O607 1.353 . S
C609 O608 1.286 . S
C609 C611 1.363 . S
C610 C600 1.465 . S
C610 U606 2.847 . S
C610 O624 1.249 . S
C610 O625 1.202 . S
C611 C609 1.363 . S
C611 C613 1.408 . S
C611 C616 1.342 . S
C612 C613 1.310 . S
C612 C615 1.461 . S
C612 H632 0.932 . S
C613 C611 1.408 . S
C613 C612 1.310 . S
C613 H633 0.930 . S
C614 C615 1.474 . S
C614 C616 1.285 . S
C614 H634 0.929 . S
C615 C612 1.461 . S
C615 C614 1.474 . S
C616 C611 1.342 . S
C616 C614 1.285 . S
C616 H635 0.930 . S
C617 C620 1.424 . S
C617 C622 1.245 . S
C617 C623 1.428 . S
C618 C621 1.260 . S
C618 C622 1.477 . S
C618 H636 0.932 . S
C619 C620 1.384 . S
C619 C621 1.479 . S
C619 H637 0.929 . S
C620 C617 1.424 . S
C620 C619 1.384 . S
C620 H638 0.928 . S
C621 C618 1.260 . S
C621 C619 1.479 . S
C622 C617 1.245 . S
C622 C618 1.477 . S
C622 H639 0.932 . S
C623 U606 2.882 . S
C623 C617 1.428 . S
C623 O626 1.301 . S
C623 O627 1.282 . S
O624 U606 2.441 . S
O624 C610 1.249 . S
O625 U606 2.420 . S
O625 C610 1.202 . S
O626 U606 2.455 . S
O626 C623 1.301 . S
O627 U606 2.449 . S
O627 C623 1.282 . S
H628 C601 0.931 . S
H629 C603 0.929 . S
H630 C604 0.930 . S
H631 C605 0.931 . S
H632 C612 0.932 . S
H633 C613 0.930 . S
H634 C614 0.929 . S
H635 C616 0.930 . S
H636 C618 0.932 . S
H637 C619 0.929 . S
H638 C620 0.928 . S
H639 C622 0.932 . S
C640 C641 1.264 . S
C640 C645 1.479 . S
C640 C650 1.465 . S
C641 C640 1.264 . S
C641 C643 1.339 . S
C641 H668 0.931 . S
C642 C643 1.395 . S
C642 C644 1.320 . S
C643 C641 1.339 . S
C643 C642 1.395 . S
C643 H669 0.929 . S
C644 C642 1.320 . S
C644 C645 1.405 . S
C644 H670 0.930 . S
C645 C640 1.479 . S
C645 C644 1.405 . S
C645 H671 0.931 . S
U646 O647 2.454 . S
U646 O648 2.458 . S
U646 C649 2.984 . S
U646 C650 2.847 . S
U646 C663 2.882 . S
U646 O664 2.441 . S
U646 O665 2.420 . S
U646 O666 2.455 . S
U646 O667 2.449 . S
O647 U646 2.454 . S
O647 C649 1.353 . S
O648 U646 2.458 . S
O648 C649 1.286 . S
C649 U646 2.984 . S
C649 O647 1.353 . S
C649 O648 1.286 . S
C649 C651 1.363 . S
C650 C640 1.465 . S
C650 U646 2.847 . S
C650 O664 1.249 . S
C650 O665 1.202 . S
C651 C649 1.363 . S
C651 C653 1.408 . S
C651 C656 1.342 . S
C652 C653 1.310 . S
C652 C655 1.461 . S
C652 H672 0.932 . S
C653 C651 1.408 . S
C653 C652 1.310 . S
C653 H673 0.930 . S
C654 C655 1.474 . S
C654 C656 1.285 . S
C654 H674 0.929 . S
C655 C652 1.461 . S
C655 C654 1.474 . S
C656 C651 1.342 . S
C656 C654 1.285 . S
C656 H675 0.930 . S
C657 C660 1.424 . S
C657 C662 1.245 . S
C657 C663 1.428 . S
C658 C661 1.260 . S
C658 C662 1.477 . S
C658 H676 0.932 . S
C659 C660 1.384 . S
C659 C661 1.479 . S
C659 H677 0.929 . S
C660 C657 1.424 . S
C660 C659 1.384 . S
C660 H678 0.928 . S
C661 C658 1.260 . S
C661 C659 1.479 . S
C662 C657 1.245 . S
C662 C658 1.477 . S
C662 H679 0.932 . S
C663 U646 2.882 . S
C663 C657 1.428 . S
C663 O666 1.301 . S
C663 O667 1.282 . S
O664 U646 2.441 . S
O664 C650 1.249 . S
O665 U646 2.420 . S
O665 C650 1.202 . S
O666 U646 2.455 . S
O666 C663 1.301 . S
O667 U646 2.449 . S
O667 C663 1.282 . S
H668 C641 0.931 . S
H669 C643 0.929 . S
H670 C644 0.930 . S
H671 C645 0.931 . S
H672 C652 0.932 . S
H673 C653 0.930 . S
H674 C654 0.929 . S
H675 C656 0.930 . S
H676 C658 0.932 . S
H677 C659 0.929 . S
H678 C660 0.928 . S
H679 C662 0.932 . S
C680 C681 1.264 . S
C680 C685 1.479 . S
C680 C690 1.465 . S
C681 C680 1.264 . S
C681 C683 1.339 . S
C681 H708 0.931 . S
C682 C683 1.395 . S
C682 C684 1.320 . S
C683 C681 1.339 . S
C683 C682 1.395 . S
C683 H709 0.929 . S
C684 C682 1.320 . S
C684 C685 1.405 . S
C684 H710 0.930 . S
C685 C680 1.479 . S
C685 C684 1.405 . S
C685 H711 0.931 . S
U686 O687 2.454 . S
U686 O688 2.458 . S
U686 C689 2.984 . S
U686 C690 2.847 . S
U686 C703 2.882 . S
U686 O704 2.441 . S
U686 O705 2.420 . S
U686 O706 2.455 . S
U686 O707 2.449 . S
O687 U686 2.454 . S
O687 C689 1.353 . S
O688 U686 2.458 . S
O688 C689 1.286 . S
C689 U686 2.984 . S
C689 O687 1.353 . S
C689 O688 1.286 . S
C689 C691 1.363 . S
C690 C680 1.465 . S
C690 U686 2.847 . S
C690 O704 1.249 . S
C690 O705 1.202 . S
C691 C689 1.363 . S
C691 C693 1.408 . S
C691 C696 1.342 . S
C692 C693 1.310 . S
C692 C695 1.461 . S
C692 H712 0.932 . S
C693 C691 1.408 . S
C693 C692 1.310 . S
C693 H713 0.930 . S
C694 C695 1.474 . S
C694 C696 1.285 . S
C694 H714 0.929 . S
C695 C692 1.461 . S
C695 C694 1.474 . S
C696 C691 1.342 . S
C696 C694 1.285 . S
C696 H715 0.930 . S
C697 C700 1.424 . S
C697 C702 1.245 . S
C697 C703 1.428 . S
C698 C701 1.260 . S
C698 C702 1.477 . S
C698 H716 0.932 . S
C699 C700 1.384 . S
C699 C701 1.479 . S
C699 H717 0.929 . S
C700 C697 1.424 . S
C700 C699 1.384 . S
C700 H718 0.928 . S
C701 C698 1.260 . S
C701 C699 1.479 . S
C702 C697 1.245 . S
C702 C698 1.477 . S
C702 H719 0.932 . S
C703 U686 2.882 . S
C703 C697 1.428 . S
C703 O706 1.301 . S
C703 O707 1.282 . S
O704 U686 2.441 . S
O704 C690 1.249 . S
O705 U686 2.420 . S
O705 C690 1.202 . S
O706 U686 2.455 . S
O706 C703 1.301 . S
O707 U686 2.449 . S
O707 C703 1.282 . S
H708 C681 0.931 . S
H709 C683 0.929 . S
H710 C684 0.930 . S
H711 C685 0.931 . S
H712 C692 0.932 . S
H713 C693 0.930 . S
H714 C694 0.929 . S
H715 C696 0.930 . S
H716 C698 0.932 . S
H717 C699 0.929 . S
H718 C700 0.928 . S
H719 C702 0.932 . S
C720 C721 1.264 . S
C720 C725 1.479 . S
C720 C730 1.465 . S
C721 C720 1.264 . S
C721 C723 1.339 . S
C721 H748 0.931 . S
C722 C723 1.395 . S
C722 C724 1.320 . S
C723 C721 1.339 . S
C723 C722 1.395 . S
C723 H749 0.929 . S
C724 C722 1.320 . S
C724 C725 1.405 . S
C724 H750 0.930 . S
C725 C720 1.479 . S
C725 C724 1.405 . S
C725 H751 0.931 . S
U726 O727 2.454 1_556 S
U726 O728 2.458 1_556 S
U726 C729 2.984 1_556 S
U726 C730 2.847 . S
U726 C743 2.882 . S
U726 O744 2.441 . S
U726 O745 2.420 . S
U726 O746 2.455 . S
U726 O747 2.449 . S
O727 U726 2.454 1_554 S
O727 C729 1.353 . S
O728 U726 2.458 1_554 S
O728 C729 1.286 . S
C729 U726 2.984 1_554 S
C729 O727 1.353 . S
C729 O728 1.286 . S
C729 C731 1.363 . S
C730 C720 1.465 . S
C730 U726 2.847 . S
C730 O744 1.249 . S
C730 O745 1.202 . S
C731 C729 1.363 . S
C731 C733 1.408 . S
C731 C736 1.342 . S
C732 C733 1.310 . S
C732 C735 1.461 . S
C732 H752 0.932 . S
C733 C731 1.408 . S
C733 C732 1.310 . S
C733 H753 0.930 . S
C734 C735 1.474 . S
C734 C736 1.285 . S
C734 H754 0.929 . S
C735 C732 1.461 . S
C735 C734 1.474 . S
C736 C731 1.342 . S
C736 C734 1.285 . S
C736 H755 0.930 . S
C737 C740 1.424 . S
C737 C742 1.245 . S
C737 C743 1.428 . S
C738 C741 1.260 . S
C738 C742 1.477 . S
C738 H756 0.932 . S
C739 C740 1.384 . S
C739 C741 1.479 . S
C739 H757 0.929 . S
C740 C737 1.424 . S
C740 C739 1.384 . S
C740 H758 0.928 . S
C741 C738 1.260 . S
C741 C739 1.479 . S
C742 C737 1.245 . S
C742 C738 1.477 . S
C742 H759 0.932 . S
C743 U726 2.882 . S
C743 C737 1.428 . S
C743 O746 1.301 . S
C743 O747 1.282 . S
O744 U726 2.441 . S
O744 C730 1.249 . S
O745 U726 2.420 . S
O745 C730 1.202 . S
O746 U726 2.455 . S
O746 C743 1.301 . S
O747 U726 2.449 . S
O747 C743 1.282 . S
H748 C721 0.931 . S
H749 C723 0.929 . S
H750 C724 0.930 . S
H751 C725 0.931 . S
H752 C732 0.932 . S
H753 C733 0.930 . S
H754 C734 0.929 . S
H755 C736 0.930 . S
H756 C738 0.932 . S
H757 C739 0.929 . S
H758 C740 0.928 . S
H759 C742 0.932 . S
C760 C761 1.264 . S
C760 C765 1.479 . S
C760 C770 1.465 . S
C761 C760 1.264 . S
C761 C763 1.339 . S
C761 H788 0.931 . S
C762 C763 1.395 . S
C762 C764 1.320 . S
C763 C761 1.339 . S
C763 C762 1.395 . S
C763 H789 0.929 . S
C764 C762 1.320 . S
C764 C765 1.405 . S
C764 H790 0.930 . S
C765 C760 1.479 . S
C765 C764 1.405 . S
C765 H791 0.931 . S
U766 O767 2.454 . S
U766 O768 2.458 . S
U766 C769 2.984 . S
U766 C770 2.847 1_655 S
U766 C783 2.882 . S
U766 O784 2.441 1_655 S
U766 O785 2.420 1_655 S
U766 O786 2.455 . S
U766 O787 2.449 . S
O767 U766 2.454 . S
O767 C769 1.353 . S
O768 U766 2.458 . S
O768 C769 1.286 . S
C769 U766 2.984 . S
C769 O767 1.353 . S
C769 O768 1.286 . S
C769 C771 1.363 . S
C770 C760 1.465 . S
C770 U766 2.847 1_455 S
C770 O784 1.249 . S
C770 O785 1.202 . S
C771 C769 1.363 . S
C771 C773 1.408 . S
C771 C776 1.342 . S
C772 C773 1.310 . S
C772 C775 1.461 . S
C772 H792 0.932 . S
C773 C771 1.408 . S
C773 C772 1.310 . S
C773 H793 0.930 . S
C774 C775 1.474 . S
C774 C776 1.285 . S
C774 H794 0.929 . S
C775 C772 1.461 . S
C775 C774 1.474 . S
C776 C771 1.342 . S
C776 C774 1.285 . S
C776 H795 0.930 . S
C777 C780 1.424 . S
C777 C782 1.245 . S
C777 C783 1.428 . S
C778 C781 1.260 . S
C778 C782 1.477 . S
C778 H796 0.932 . S
C779 C780 1.384 . S
C779 C781 1.479 . S
C779 H797 0.929 . S
C780 C777 1.424 . S
C780 C779 1.384 . S
C780 H798 0.928 . S
C781 C778 1.260 . S
C781 C779 1.479 . S
C782 C777 1.245 . S
C782 C778 1.477 . S
C782 H799 0.932 . S
C783 U766 2.882 . S
C783 C777 1.428 . S
C783 O786 1.301 . S
C783 O787 1.282 . S
O784 U766 2.441 1_455 S
O784 C770 1.249 . S
O785 U766 2.420 1_455 S
O785 C770 1.202 . S
O786 U766 2.455 . S
O786 C783 1.301 . S
O787 U766 2.449 . S
O787 C783 1.282 . S
H788 C761 0.931 . S
H789 C763 0.929 . S
H790 C764 0.930 . S
H791 C765 0.931 . S
H792 C772 0.932 . S
H793 C773 0.930 . S
H794 C774 0.929 . S
H795 C776 0.930 . S
H796 C778 0.932 . S
H797 C779 0.929 . S
H798 C780 0.928 . S
H799 C782 0.932 . S
C800 C801 1.264 . S
C800 C805 1.479 . S
C800 C810 1.465 . S
C801 C800 1.264 . S
C801 C803 1.339 . S
C801 H828 0.931 . S
C802 C803 1.395 . S
C802 C804 1.320 . S
C803 C801 1.339 . S
C803 C802 1.395 . S
C803 H829 0.929 . S
C804 C802 1.320 . S
C804 C805 1.405 . S
C804 H830 0.930 . S
C805 C800 1.479 . S
C805 C804 1.405 . S
C805 H831 0.931 . S
U806 O807 2.454 . S
U806 O808 2.458 . S
U806 C809 2.984 . S
U806 C810 2.847 . S
U806 C823 2.882 . S
U806 O824 2.441 . S
U806 O825 2.420 . S
U806 O826 2.455 . S
U806 O827 2.449 . S
O807 U806 2.454 . S
O807 C809 1.353 . S
O808 U806 2.458 . S
O808 C809 1.286 . S
C809 U806 2.984 . S
C809 O807 1.353 . S
C809 O808 1.286 . S
C809 C811 1.363 . S
C810 C800 1.465 . S
C810 U806 2.847 . S
C810 O824 1.249 . S
C810 O825 1.202 . S
C811 C809 1.363 . S
C811 C813 1.408 . S
C811 C816 1.342 . S
C812 C813 1.310 . S
C812 C815 1.461 . S
C812 H832 0.932 . S
C813 C811 1.408 . S
C813 C812 1.310 . S
C813 H833 0.930 . S
C814 C815 1.474 . S
C814 C816 1.285 . S
C814 H834 0.929 . S
C815 C812 1.461 . S
C815 C814 1.474 . S
C816 C811 1.342 . S
C816 C814 1.285 . S
C816 H835 0.930 . S
C817 C820 1.424 . S
C817 C822 1.245 . S
C817 C823 1.428 . S
C818 C821 1.260 . S
C818 C822 1.477 . S
C818 H836 0.932 . S
C819 C820 1.384 . S
C819 C821 1.479 . S
C819 H837 0.929 . S
C820 C817 1.424 . S
C820 C819 1.384 . S
C820 H838 0.928 . S
C821 C818 1.260 . S
C821 C819 1.479 . S
C822 C817 1.245 . S
C822 C818 1.477 . S
C822 H839 0.932 . S
C823 U806 2.882 . S
C823 C817 1.428 . S
C823 O826 1.301 . S
C823 O827 1.282 . S
O824 U806 2.441 . S
O824 C810 1.249 . S
O825 U806 2.420 . S
O825 C810 1.202 . S
O826 U806 2.455 . S
O826 C823 1.301 . S
O827 U806 2.449 . S
O827 C823 1.282 . S
H828 C801 0.931 . S
H829 C803 0.929 . S
H830 C804 0.930 . S
H831 C805 0.931 . S
H832 C812 0.932 . S
H833 C813 0.930 . S
H834 C814 0.929 . S
H835 C816 0.930 . S
H836 C818 0.932 . S
H837 C819 0.929 . S
H838 C820 0.928 . S
H839 C822 0.932 . S
C840 C841 1.264 . S
C840 C845 1.479 . S
C840 C850 1.465 . S
C841 C840 1.264 . S
C841 C843 1.339 . S
C841 H868 0.931 . S
C842 C843 1.395 . S
C842 C844 1.320 . S
C843 C841 1.339 . S
C843 C842 1.395 . S
C843 H869 0.929 . S
C844 C842 1.320 . S
C844 C845 1.405 . S
C844 H870 0.930 . S
C845 C840 1.479 . S
C845 C844 1.405 . S
C845 H871 0.931 . S
U846 O847 2.454 . S
U846 O848 2.458 . S
U846 C849 2.984 . S
U846 C850 2.847 . S
U846 C863 2.882 . S
U846 O864 2.441 . S
U846 O865 2.420 . S
U846 O866 2.455 . S
U846 O867 2.449 . S
O847 U846 2.454 . S
O847 C849 1.353 . S
O848 U846 2.458 . S
O848 C849 1.286 . S
C849 U846 2.984 . S
C849 O847 1.353 . S
C849 O848 1.286 . S
C849 C851 1.363 . S
C850 C840 1.465 . S
C850 U846 2.847 . S
C850 O864 1.249 . S
C850 O865 1.202 . S
C851 C849 1.363 . S
C851 C853 1.408 . S
C851 C856 1.342 . S
C852 C853 1.310 . S
C852 C855 1.461 . S
C852 H872 0.932 . S
C853 C851 1.408 . S
C853 C852 1.310 . S
C853 H873 0.930 . S
C854 C855 1.474 . S
C854 C856 1.285 . S
C854 H874 0.929 . S
C855 C852 1.461 . S
C855 C854 1.474 . S
C856 C851 1.342 . S
C856 C854 1.285 . S
C856 H875 0.930 . S
C857 C860 1.424 . S
C857 C862 1.245 . S
C857 C863 1.428 . S
C858 C861 1.260 . S
C858 C862 1.477 . S
C858 H876 0.932 . S
C859 C860 1.384 . S
C859 C861 1.479 . S
C859 H877 0.929 . S
C860 C857 1.424 . S
C860 C859 1.384 . S
C860 H878 0.928 . S
C861 C858 1.260 . S
C861 C859 1.479 . S
C862 C857 1.245 . S
C862 C858 1.477 . S
C862 H879 0.932 . S
C863 U846 2.882 . S
C863 C857 1.428 . S
C863 O866 1.301 . S
C863 O867 1.282 . S
O864 U846 2.441 . S
O864 C850 1.249 . S
O865 U846 2.420 . S
O865 C850 1.202 . S
O866 U846 2.455 . S
O866 C863 1.301 . S
O867 U846 2.449 . S
O867 C863 1.282 . S
H868 C841 0.931 . S
H869 C843 0.929 . S
H870 C844 0.930 . S
H871 C845 0.931 . S
H872 C852 0.932 . S
H873 C853 0.930 . S
H874 C854 0.929 . S
H875 C856 0.930 . S
H876 C858 0.932 . S
H877 C859 0.929 . S
H878 C860 0.928 . S
H879 C862 0.932 . S
C880 C881 1.264 . S
C880 C885 1.479 . S
C880 C890 1.465 . S
C881 C880 1.264 . S
C881 C883 1.339 . S
C881 H908 0.931 . S
C882 C883 1.395 . S
C882 C884 1.320 . S
C883 C881 1.339 . S
C883 C882 1.395 . S
C883 H909 0.929 . S
C884 C882 1.320 . S
C884 C885 1.405 . S
C884 H910 0.930 . S
C885 C880 1.479 . S
C885 C884 1.405 . S
C885 H911 0.931 . S
U886 O887 2.454 . S
U886 O888 2.458 . S
U886 C889 2.984 . S
U886 C890 2.847 1_554 S
U886 C903 2.882 . S
U886 O904 2.441 1_554 S
U886 O905 2.420 1_554 S
U886 O906 2.455 . S
U886 O907 2.449 . S
O887 U886 2.454 . S
O887 C889 1.353 . S
O888 U886 2.458 . S
O888 C889 1.286 . S
C889 U886 2.984 . S
C889 O887 1.353 . S
C889 O888 1.286 . S
C889 C891 1.363 . S
C890 C880 1.465 . S
C890 U886 2.847 1_556 S
C890 O904 1.249 . S
C890 O905 1.202 . S
C891 C889 1.363 . S
C891 C893 1.408 . S
C891 C896 1.342 . S
C892 C893 1.310 . S
C892 C895 1.461 . S
C892 H912 0.932 . S
C893 C891 1.408 . S
C893 C892 1.310 . S
C893 H913 0.930 . S
C894 C895 1.474 . S
C894 C896 1.285 . S
C894 H914 0.929 . S
C895 C892 1.461 . S
C895 C894 1.474 . S
C896 C891 1.342 . S
C896 C894 1.285 . S
C896 H915 0.930 . S
C897 C900 1.424 . S
C897 C902 1.245 . S
C897 C903 1.428 . S
C898 C901 1.260 . S
C898 C902 1.477 . S
C898 H916 0.932 . S
C899 C900 1.384 . S
C899 C901 1.479 . S
C899 H917 0.929 . S
C900 C897 1.424 . S
C900 C899 1.384 . S
C900 H918 0.928 . S
C901 C898 1.260 . S
C901 C899 1.479 . S
C902 C897 1.245 . S
C902 C898 1.477 . S
C902 H919 0.932 . S
C903 U886 2.882 . S
C903 C897 1.428 . S
C903 O906 1.301 . S
C903 O907 1.282 . S
O904 U886 2.441 1_556 S
O904 C890 1.249 . S
O905 U886 2.420 1_556 S
O905 C890 1.202 . S
O906 U886 2.455 . S
O906 C903 1.301 . S
O907 U886 2.449 . S
O907 C903 1.282 . S
H908 C881 0.931 . S
H909 C883 0.929 . S
H910 C884 0.930 . S
H911 C885 0.931 . S
H912 C892 0.932 . S
H913 C893 0.930 . S
H914 C894 0.929 . S
H915 C896 0.930 . S
H916 C898 0.932 . S
H917 C899 0.929 . S
H918 C900 0.928 . S
H919 C902 0.932 . S
C920 C921 1.264 . S
C920 C925 1.479 . S
C920 C930 1.465 . S
C921 C920 1.264 . S
C921 C923 1.339 . S
C921 H948 0.931 . S
C922 C923 1.395 . S
C922 C924 1.320 . S
C923 C921 1.339 . S
C923 C922 1.395 . S
C923 H949 0.929 . S
C924 C922 1.320 . S
C924 C925 1.405 . S
C924 H950 0.930 . S
C925 C920 1.479 . S
C925 C924 1.405 . S
C925 H951 0.931 . S
U926 O927 2.454 1_565 S
U926 O928 2.458 1_565 S
U926 C929 2.984 1_565 S
U926 C930 2.847 . S
U926 C943 2.882 . S
U926 O944 2.441 . S
U926 O945 2.420 . S
U926 O946 2.455 . S
U926 O947 2.449 . S
O927 U926 2.454 1_545 S
O927 C929 1.353 . S
O928 U926 2.458 1_545 S
O928 C929 1.286 . S
C929 U926 2.984 1_545 S
C929 O927 1.353 . S
C929 O928 1.286 . S
C929 C931 1.363 . S
C930 C920 1.465 . S
C930 U926 2.847 . S
C930 O944 1.249 . S
C930 O945 1.202 . S
C931 C929 1.363 . S
C931 C933 1.408 . S
C931 C936 1.342 . S
C932 C933 1.310 . S
C932 C935 1.461 . S
C932 H952 0.932 . S
C933 C931 1.408 . S
C933 C932 1.310 . S
C933 H953 0.930 . S
C934 C935 1.474 . S
C934 C936 1.285 . S
C934 H954 0.929 . S
C935 C932 1.461 . S
C935 C934 1.474 . S
C936 C931 1.342 . S
C936 C934 1.285 . S
C936 H955 0.930 . S
C937 C940 1.424 . S
C937 C942 1.245 . S
C937 C943 1.428 . S
C938 C941 1.260 . S
C938 C942 1.477 . S
C938 H956 0.932 . S
C939 C940 1.384 . S
C939 C941 1.479 . S
C939 H957 0.929 . S
C940 C937 1.424 . S
C940 C939 1.384 . S
C940 H958 0.928 . S
C941 C938 1.260 . S
C941 C939 1.479 . S
C942 C937 1.245 . S
C942 C938 1.477 . S
C942 H959 0.932 . S
C943 U926 2.882 . S
C943 C937 1.428 . S
C943 O946 1.301 . S
C943 O947 1.282 . S
O944 U926 2.441 . S
O944 C930 1.249 . S
O945 U926 2.420 . S
O945 C930 1.202 . S
O946 U926 2.455 . S
O946 C943 1.301 . S
O947 U926 2.449 . S
O947 C943 1.282 . S
H948 C921 0.931 . S
H949 C923 0.929 . S
H950 C924 0.930 . S
H951 C925 0.931 . S
H952 C932 0.932 . S
H953 C933 0.930 . S
H954 C934 0.929 . S
H955 C936 0.930 . S
H956 C938 0.932 . S
H957 C939 0.929 . S
H958 C940 0.928 . S
H959 C942 0.932 . S
C960 C961 1.264 . S
C960 C965 1.479 . S
C960 C970 1.465 . S
C961 C960 1.264 . S
C961 C963 1.339 . S
C961 H988 0.931 . S
C962 C963 1.395 . S
C962 C964 1.320 . S
C963 C961 1.339 . S
C963 C962 1.395 . S
C963 H989 0.929 . S
C964 C962 1.320 . S
C964 C965 1.405 . S
C964 H990 0.930 . S
C965 C960 1.479 . S
C965 C964 1.405 . S
C965 H991 0.931 . S
U966 O967 2.454 1_565 S
U966 O968 2.458 1_565 S
U966 C969 2.984 1_565 S
U966 C970 2.847 . S
U966 C983 2.882 . S
U966 O984 2.441 . S
U966 O985 2.420 . S
U966 O986 2.455 . S
U966 O987 2.449 . S
O967 U966 2.454 1_545 S
O967 C969 1.353 . S
O968 U966 2.458 1_545 S
O968 C969 1.286 . S
C969 U966 2.984 1_545 S
C969 O967 1.353 . S
C969 O968 1.286 . S
C969 C971 1.363 . S
C970 C960 1.465 . S
C970 U966 2.847 . S
C970 O984 1.249 . S
C970 O985 1.202 . S
C971 C969 1.363 . S
C971 C973 1.408 . S
C971 C976 1.342 . S
C972 C973 1.310 . S
C972 C975 1.461 . S
C972 H992 0.932 . S
C973 C971 1.408 . S
C973 C972 1.310 . S
C973 H993 0.930 . S
C974 C975 1.474 . S
C974 C976 1.285 . S
C974 H994 0.929 . S
C975 C972 1.461 . S
C975 C974 1.474 . S
C976 C971 1.342 . S
C976 C974 1.285 . S
C976 H995 0.930 . S
C977 C980 1.424 . S
C977 C982 1.245 . S
C977 C983 1.428 . S
C978 C981 1.260 . S
C978 C982 1.477 . S
C978 H996 0.932 . S
C979 C980 1.384 . S
C979 C981 1.479 . S
C979 H997 0.929 . S
C980 C977 1.424 . S
C980 C979 1.384 . S
C980 H998 0.928 . S
C981 C978 1.260 . S
C981 C979 1.479 . S
C982 C977 1.245 . S
C982 C978 1.477 . S
C982 H999 0.932 . S
C983 U966 2.882 . S
C983 C977 1.428 . S
C983 O986 1.301 . S
C983 O987 1.282 . S
O984 U966 2.441 . S
O984 C970 1.249 . S
O985 U966 2.420 . S
O985 C970 1.202 . S
O986 U966 2.455 . S
O986 C983 1.301 . S
O987 U966 2.449 . S
O987 C983 1.282 . S
H988 C961 0.931 . S
H989 C963 0.929 . S
H990 C964 0.930 . S
H991 C965 0.931 . S
H992 C972 0.932 . S
H993 C973 0.930 . S
H994 C974 0.929 . S
H995 C976 0.930 . S
H996 C978 0.932 . S
H997 C979 0.929 . S
H998 C980 0.928 . S
H999 C982 0.932 . S
C1000 C1001 1.264 . S
C1000 C1005 1.479 . S
C1000 C1010 1.465 . S
C1001 C1000 1.264 . S
C1001 C1003 1.339 . S
C1001 H1028 0.931 . S
C1002 C1003 1.395 . S
C1002 C1004 1.320 . S
C1003 C1001 1.339 . S
C1003 C1002 1.395 . S
C1003 H1029 0.929 . S
C1004 C1002 1.320 . S
C1004 C1005 1.405 . S
C1004 H1030 0.930 . S
C1005 C1000 1.479 . S
C1005 C1004 1.405 . S
C1005 H1031 0.931 . S
U1006 O1007 2.454 . S
U1006 O1008 2.458 . S
U1006 C1009 2.984 . S
U1006 C1010 2.847 1_545 S
U1006 C1023 2.882 . S
U1006 O1024 2.441 1_545 S
U1006 O1025 2.420 1_545 S
U1006 O1026 2.455 . S
U1006 O1027 2.449 . S
O1007 U1006 2.454 . S
O1007 C1009 1.353 . S
O1008 U1006 2.458 . S
O1008 C1009 1.286 . S
C1009 U1006 2.984 . S
C1009 O1007 1.353 . S
C1009 O1008 1.286 . S
C1009 C1011 1.363 . S
C1010 C1000 1.465 . S
C1010 U1006 2.847 1_565 S
C1010 O1024 1.249 . S
C1010 O1025 1.202 . S
C1011 C1009 1.363 . S
C1011 C1013 1.408 . S
C1011 C1016 1.342 . S
C1012 C1013 1.310 . S
C1012 C1015 1.461 . S
C1012 H1032 0.932 . S
C1013 C1011 1.408 . S
C1013 C1012 1.310 . S
C1013 H1033 0.930 . S
C1014 C1015 1.474 . S
C1014 C1016 1.285 . S
C1014 H1034 0.929 . S
C1015 C1012 1.461 . S
C1015 C1014 1.474 . S
C1016 C1011 1.342 . S
C1016 C1014 1.285 . S
C1016 H1035 0.930 . S
C1017 C1020 1.424 . S
C1017 C1022 1.245 . S
C1017 C1023 1.428 . S
C1018 C1021 1.260 . S
C1018 C1022 1.477 . S
C1018 H1036 0.932 . S
C1019 C1020 1.384 . S
C1019 C1021 1.479 . S
C1019 H1037 0.929 . S
C1020 C1017 1.424 . S
C1020 C1019 1.384 . S
C1020 H1038 0.928 . S
C1021 C1018 1.260 . S
C1021 C1019 1.479 . S
C1022 C1017 1.245 . S
C1022 C1018 1.477 . S
C1022 H1039 0.932 . S
C1023 U1006 2.882 . S
C1023 C1017 1.428 . S
C1023 O1026 1.301 . S
C1023 O1027 1.282 . S
O1024 U1006 2.441 1_565 S
O1024 C1010 1.249 . S
O1025 U1006 2.420 1_565 S
O1025 C1010 1.202 . S
O1026 U1006 2.455 . S
O1026 C1023 1.301 . S
O1027 U1006 2.449 . S
O1027 C1023 1.282 . S
H1028 C1001 0.931 . S
H1029 C1003 0.929 . S
H1030 C1004 0.930 . S
H1031 C1005 0.931 . S
H1032 C1012 0.932 . S
H1033 C1013 0.930 . S
H1034 C1014 0.929 . S
H1035 C1016 0.930 . S
H1036 C1018 0.932 . S
H1037 C1019 0.929 . S
H1038 C1020 0.928 . S
H1039 C1022 0.932 . S
C1040 C1041 1.264 . S
C1040 C1045 1.479 . S
C1040 C1050 1.465 . S
C1041 C1040 1.264 . S
C1041 C1043 1.339 . S
C1041 H1068 0.931 . S
C1042 C1043 1.395 . S
C1042 C1044 1.320 . S
C1043 C1041 1.339 . S
C1043 C1042 1.395 . S
C1043 H1069 0.929 . S
C1044 C1042 1.320 . S
C1044 C1045 1.405 . S
C1044 H1070 0.930 . S
C1045 C1040 1.479 . S
C1045 C1044 1.405 . S
C1045 H1071 0.931 . S
U1046 O1047 2.454 . S
U1046 O1048 2.458 . S
U1046 C1049 2.984 . S
U1046 C1050 2.847 1_545 S
U1046 C1063 2.882 . S
U1046 O1064 2.441 1_545 S
U1046 O1065 2.420 1_545 S
U1046 O1066 2.455 . S
U1046 O1067 2.449 . S
O1047 U1046 2.454 . S
O1047 C1049 1.353 . S
O1048 U1046 2.458 . S
O1048 C1049 1.286 . S
C1049 U1046 2.984 . S
C1049 O1047 1.353 . S
C1049 O1048 1.286 . S
C1049 C1051 1.363 . S
C1050 C1040 1.465 . S
C1050 U1046 2.847 1_565 S
C1050 O1064 1.249 . S
C1050 O1065 1.202 . S
C1051 C1049 1.363 . S
C1051 C1053 1.408 . S
C1051 C1056 1.342 . S
C1052 C1053 1.310 . S
C1052 C1055 1.461 . S
C1052 H1072 0.932 . S
C1053 C1051 1.408 . S
C1053 C1052 1.310 . S
C1053 H1073 0.930 . S
C1054 C1055 1.474 . S
C1054 C1056 1.285 . S
C1054 H1074 0.929 . S
C1055 C1052 1.461 . S
C1055 C1054 1.474 . S
C1056 C1051 1.342 . S
C1056 C1054 1.285 . S
C1056 H1075 0.930 . S
C1057 C1060 1.424 . S
C1057 C1062 1.245 . S
C1057 C1063 1.428 . S
C1058 C1061 1.260 . S
C1058 C1062 1.477 . S
C1058 H1076 0.932 . S
C1059 C1060 1.384 . S
C1059 C1061 1.479 . S
C1059 H1077 0.929 . S
C1060 C1057 1.424 . S
C1060 C1059 1.384 . S
C1060 H1078 0.928 . S
C1061 C1058 1.260 . S
C1061 C1059 1.479 . S
C1062 C1057 1.245 . S
C1062 C1058 1.477 . S
C1062 H1079 0.932 . S
C1063 U1046 2.882 . S
C1063 C1057 1.428 . S
C1063 O1066 1.301 . S
C1063 O1067 1.282 . S
O1064 U1046 2.441 1_565 S
O1064 C1050 1.249 . S
O1065 U1046 2.420 1_565 S
O1065 C1050 1.202 . S
O1066 U1046 2.455 . S
O1066 C1063 1.301 . S
O1067 U1046 2.449 . S
O1067 C1063 1.282 . S
H1068 C1041 0.931 . S
H1069 C1043 0.929 . S
H1070 C1044 0.930 . S
H1071 C1045 0.931 . S
H1072 C1052 0.932 . S
H1073 C1053 0.930 . S
H1074 C1054 0.929 . S
H1075 C1056 0.930 . S
H1076 C1058 0.932 . S
H1077 C1059 0.929 . S
H1078 C1060 0.928 . S
H1079 C1062 0.932 . S
C1080 C1081 1.264 . S
C1080 C1085 1.479 . S
C1080 C1090 1.465 . S
C1081 C1080 1.264 . S
C1081 C1083 1.339 . S
C1081 H1108 0.931 . S
C1082 C1083 1.395 . S
C1082 C1084 1.320 . S
C1083 C1081 1.339 . S
C1083 C1082 1.395 . S
C1083 H1109 0.929 . S
C1084 C1082 1.320 . S
C1084 C1085 1.405 . S
C1084 H1110 0.930 . S
C1085 C1080 1.479 . S
C1085 C1084 1.405 . S
C1085 H1111 0.931 . S
U1086 O1087 2.454 1_556 S
U1086 O1088 2.458 1_556 S
U1086 C1089 2.984 1_556 S
U1086 C1090 2.847 . S
U1086 C1103 2.882 . S
U1086 O1104 2.441 . S
U1086 O1105 2.420 . S
U1086 O1106 2.455 . S
U1086 O1107 2.449 . S
O1087 U1086 2.454 1_554 S
O1087 C1089 1.353 . S
O1088 U1086 2.458 1_554 S
O1088 C1089 1.286 . S
C1089 U1086 2.984 1_554 S
C1089 O1087 1.353 . S
C1089 O1088 1.286 . S
C1089 C1091 1.363 . S
C1090 C1080 1.465 . S
C1090 U1086 2.847 . S
C1090 O1104 1.249 . S
C1090 O1105 1.202 . S
C1091 C1089 1.363 . S
C1091 C1093 1.408 . S
C1091 C1096 1.342 . S
C1092 C1093 1.310 . S
C1092 C1095 1.461 . S
C1092 H1112 0.932 . S
C1093 C1091 1.408 . S
C1093 C1092 1.310 . S
C1093 H1113 0.930 . S
C1094 C1095 1.474 . S
C1094 C1096 1.285 . S
C1094 H1114 0.929 . S
C1095 C1092 1.461 . S
C1095 C1094 1.474 . S
C1096 C1091 1.342 . S
C1096 C1094 1.285 . S
C1096 H1115 0.930 . S
C1097 C1100 1.424 . S
C1097 C1102 1.245 . S
C1097 C1103 1.428 . S
C1098 C1101 1.260 . S
C1098 C1102 1.477 . S
C1098 H1116 0.932 . S
C1099 C1100 1.384 . S
C1099 C1101 1.479 . S
C1099 H1117 0.929 . S
C1100 C1097 1.424 . S
C1100 C1099 1.384 . S
C1100 H1118 0.928 . S
C1101 C1098 1.260 . S
C1101 C1099 1.479 . S
C1102 C1097 1.245 . S
C1102 C1098 1.477 . S
C1102 H1119 0.932 . S
C1103 U1086 2.882 . S
C1103 C1097 1.428 . S
C1103 O1106 1.301 . S
C1103 O1107 1.282 . S
O1104 U1086 2.441 . S
O1104 C1090 1.249 . S
O1105 U1086 2.420 . S
O1105 C1090 1.202 . S
O1106 U1086 2.455 . S
O1106 C1103 1.301 . S
O1107 U1086 2.449 . S
O1107 C1103 1.282 . S
H1108 C1081 0.931 . S
H1109 C1083 0.929 . S
H1110 C1084 0.930 . S
H1111 C1085 0.931 . S
H1112 C1092 0.932 . S
H1113 C1093 0.930 . S
H1114 C1094 0.929 . S
H1115 C1096 0.930 . S
H1116 C1098 0.932 . S
H1117 C1099 0.929 . S
H1118 C1100 0.928 . S
H1119 C1102 0.932 . S
C1120 C1121 1.264 . S
C1120 C1125 1.479 . S
C1120 C1130 1.465 . S
C1121 C1120 1.264 . S
C1121 C1123 1.339 . S
C1121 H1148 0.931 . S
C1122 C1123 1.395 . S
C1122 C1124 1.320 . S
C1123 C1121 1.339 . S
C1123 C1122 1.395 . S
C1123 H1149 0.929 . S
C1124 C1122 1.320 . S
C1124 C1125 1.405 . S
C1124 H1150 0.930 . S
C1125 C1120 1.479 . S
C1125 C1124 1.405 . S
C1125 H1151 0.931 . S
U1126 O1127 2.454 . S
U1126 O1128 2.458 . S
U1126 C1129 2.984 . S
U1126 C1130 2.847 1_455 S
U1126 C1143 2.882 . S
U1126 O1144 2.441 1_455 S
U1126 O1145 2.420 1_455 S
U1126 O1146 2.455 . S
U1126 O1147 2.449 . S
O1127 U1126 2.454 . S
O1127 C1129 1.353 . S
O1128 U1126 2.458 . S
O1128 C1129 1.286 . S
C1129 U1126 2.984 . S
C1129 O1127 1.353 . S
C1129 O1128 1.286 . S
C1129 C1131 1.363 . S
C1130 C1120 1.465 . S
C1130 U1126 2.847 1_655 S
C1130 O1144 1.249 . S
C1130 O1145 1.202 . S
C1131 C1129 1.363 . S
C1131 C1133 1.408 . S
C1131 C1136 1.342 . S
C1132 C1133 1.310 . S
C1132 C1135 1.461 . S
C1132 H1152 0.932 . S
C1133 C1131 1.408 . S
C1133 C1132 1.310 . S
C1133 H1153 0.930 . S
C1134 C1135 1.474 . S
C1134 C1136 1.285 . S
C1134 H1154 0.929 . S
C1135 C1132 1.461 . S
C1135 C1134 1.474 . S
C1136 C1131 1.342 . S
C1136 C1134 1.285 . S
C1136 H1155 0.930 . S
C1137 C1140 1.424 . S
C1137 C1142 1.245 . S
C1137 C1143 1.428 . S
C1138 C1141 1.260 . S
C1138 C1142 1.477 . S
C1138 H1156 0.932 . S
C1139 C1140 1.384 . S
C1139 C1141 1.479 . S
C1139 H1157 0.929 . S
C1140 C1137 1.424 . S
C1140 C1139 1.384 . S
C1140 H1158 0.928 . S
C1141 C1138 1.260 . S
C1141 C1139 1.479 . S
C1142 C1137 1.245 . S
C1142 C1138 1.477 . S
C1142 H1159 0.932 . S
C1143 U1126 2.882 . S
C1143 C1137 1.428 . S
C1143 O1146 1.301 . S
C1143 O1147 1.282 . S
O1144 U1126 2.441 1_655 S
O1144 C1130 1.249 . S
O1145 U1126 2.420 1_655 S
O1145 C1130 1.202 . S
O1146 U1126 2.455 . S
O1146 C1143 1.301 . S
O1147 U1126 2.449 . S
O1147 C1143 1.282 . S
H1148 C1121 0.931 . S
H1149 C1123 0.929 . S
H1150 C1124 0.930 . S
H1151 C1125 0.931 . S
H1152 C1132 0.932 . S
H1153 C1133 0.930 . S
H1154 C1134 0.929 . S
H1155 C1136 0.930 . S
H1156 C1138 0.932 . S
H1157 C1139 0.929 . S
H1158 C1140 0.928 . S
H1159 C1142 0.932 . S
C1160 C1161 1.264 . S
C1160 C1165 1.479 . S
C1160 C1170 1.465 . S
C1161 C1160 1.264 . S
C1161 C1163 1.339 . S
C1161 H1188 0.931 . S
C1162 C1163 1.395 . S
C1162 C1164 1.320 . S
C1163 C1161 1.339 . S
C1163 C1162 1.395 . S
C1163 H1189 0.929 . S
C1164 C1162 1.320 . S
C1164 C1165 1.405 . S
C1164 H1190 0.930 . S
C1165 C1160 1.479 . S
C1165 C1164 1.405 . S
C1165 H1191 0.931 . S
U1166 O1167 2.454 . S
U1166 O1168 2.458 . S
U1166 C1169 2.984 . S
U1166 C1170 2.847 . S
U1166 C1183 2.882 . S
U1166 O1184 2.441 . S
U1166 O1185 2.420 . S
U1166 O1186 2.455 . S
U1166 O1187 2.449 . S
O1167 U1166 2.454 . S
O1167 C1169 1.353 . S
O1168 U1166 2.458 . S
O1168 C1169 1.286 . S
C1169 U1166 2.984 . S
C1169 O1167 1.353 . S
C1169 O1168 1.286 . S
C1169 C1171 1.363 . S
C1170 C1160 1.465 . S
C1170 U1166 2.847 . S
C1170 O1184 1.249 . S
C1170 O1185 1.202 . S
C1171 C1169 1.363 . S
C1171 C1173 1.408 . S
C1171 C1176 1.342 . S
C1172 C1173 1.310 . S
C1172 C1175 1.461 . S
C1172 H1192 0.932 . S
C1173 C1171 1.408 . S
C1173 C1172 1.310 . S
C1173 H1193 0.930 . S
C1174 C1175 1.474 . S
C1174 C1176 1.285 . S
C1174 H1194 0.929 . S
C1175 C1172 1.461 . S
C1175 C1174 1.474 . S
C1176 C1171 1.342 . S
C1176 C1174 1.285 . S
C1176 H1195 0.930 . S
C1177 C1180 1.424 . S
C1177 C1182 1.245 . S
C1177 C1183 1.428 . S
C1178 C1181 1.260 . S
C1178 C1182 1.477 . S
C1178 H1196 0.932 . S
C1179 C1180 1.384 . S
C1179 C1181 1.479 . S
C1179 H1197 0.929 . S
C1180 C1177 1.424 . S
C1180 C1179 1.384 . S
C1180 H1198 0.928 . S
C1181 C1178 1.260 . S
C1181 C1179 1.479 . S
C1182 C1177 1.245 . S
C1182 C1178 1.477 . S
C1182 H1199 0.932 . S
C1183 U1166 2.882 . S
C1183 C1177 1.428 . S
C1183 O1186 1.301 . S
C1183 O1187 1.282 . S
O1184 U1166 2.441 . S
O1184 C1170 1.249 . S
O1185 U1166 2.420 . S
O1185 C1170 1.202 . S
O1186 U1166 2.455 . S
O1186 C1183 1.301 . S
O1187 U1166 2.449 . S
O1187 C1183 1.282 . S
H1188 C1161 0.931 . S
H1189 C1163 0.929 . S
H1190 C1164 0.930 . S
H1191 C1165 0.931 . S
H1192 C1172 0.932 . S
H1193 C1173 0.930 . S
H1194 C1174 0.929 . S
H1195 C1176 0.930 . S
H1196 C1178 0.932 . S
H1197 C1179 0.929 . S
H1198 C1180 0.928 . S
H1199 C1182 0.932 . S
C1200 C1201 1.264 . S
C1200 C1205 1.479 . S
C1200 C1210 1.465 . S
C1201 C1200 1.264 . S
C1201 C1203 1.339 . S
C1201 H1228 0.931 . S
C1202 C1203 1.395 . S
C1202 C1204 1.320 . S
C1203 C1201 1.339 . S
C1203 C1202 1.395 . S
C1203 H1229 0.929 . S
C1204 C1202 1.320 . S
C1204 C1205 1.405 . S
C1204 H1230 0.930 . S
C1205 C1200 1.479 . S
C1205 C1204 1.405 . S
C1205 H1231 0.931 . S
U1206 O1207 2.454 . S
U1206 O1208 2.458 . S
U1206 C1209 2.984 . S
U1206 C1210 2.847 . S
U1206 C1223 2.882 . S
U1206 O1224 2.441 . S
U1206 O1225 2.420 . S
U1206 O1226 2.455 . S
U1206 O1227 2.449 . S
O1207 U1206 2.454 . S
O1207 C1209 1.353 . S
O1208 U1206 2.458 . S
O1208 C1209 1.286 . S
C1209 U1206 2.984 . S
C1209 O1207 1.353 . S
C1209 O1208 1.286 . S
C1209 C1211 1.363 . S
C1210 C1200 1.465 . S
C1210 U1206 2.847 . S
C1210 O1224 1.249 . S
C1210 O1225 1.202 . S
C1211 C1209 1.363 . S
C1211 C1213 1.408 . S
C1211 C1216 1.342 . S
C1212 C1213 1.310 . S
C1212 C1215 1.461 . S
C1212 H1232 0.932 . S
C1213 C1211 1.408 . S
C1213 C1212 1.310 . S
C1213 H1233 0.930 . S
C1214 C1215 1.474 . S
C1214 C1216 1.285 . S
C1214 H1234 0.929 . S
C1215 C1212 1.461 . S
C1215 C1214 1.474 . S
C1216 C1211 1.342 . S
C1216 C1214 1.285 . S
C1216 H1235 0.930 . S
C1217 C1220 1.424 . S
C1217 C1222 1.245 . S
C1217 C1223 1.428 . S
C1218 C1221 1.260 . S
C1218 C1222 1.477 . S
C1218 H1236 0.932 . S
C1219 C1220 1.384 . S
C1219 C1221 1.479 . S
C1219 H1237 0.929 . S
C1220 C1217 1.424 . S
C1220 C1219 1.384 . S
C1220 H1238 0.928 . S
C1221 C1218 1.260 . S
C1221 C1219 1.479 . S
C1222 C1217 1.245 . S
C1222 C1218 1.477 . S
C1222 H1239 0.932 . S
C1223 U1206 2.882 . S
C1223 C1217 1.428 . S
C1223 O1226 1.301 . S
C1223 O1227 1.282 . S
O1224 U1206 2.441 . S
O1224 C1210 1.249 . S
O1225 U1206 2.420 . S
O1225 C1210 1.202 . S
O1226 U1206 2.455 . S
O1226 C1223 1.301 . S
O1227 U1206 2.449 . S
O1227 C1223 1.282 . S
H1228 C1201 0.931 . S
H1229 C1203 0.929 . S
H1230 C1204 0.930 . S
H1231 C1205 0.931 . S
H1232 C1212 0.932 . S
H1233 C1213 0.930 . S
H1234 C1214 0.929 . S
H1235 C1216 0.930 . S
H1236 C1218 0.932 . S
H1237 C1219 0.929 . S
H1238 C1220 0.928 . S
H1239 C1222 0.932 . S
C1240 C1241 1.264 . S
C1240 C1245 1.479 . S
C1240 C1250 1.465 . S
C1241 C1240 1.264 . S
C1241 C1243 1.339 . S
C1241 H1268 0.931 . S
C1242 C1243 1.395 . S
C1242 C1244 1.320 . S
C1243 C1241 1.339 . S
C1243 C1242 1.395 . S
C1243 H1269 0.929 . S
C1244 C1242 1.320 . S
C1244 C1245 1.405 . S
C1244 H1270 0.930 . S
C1245 C1240 1.479 . S
C1245 C1244 1.405 . S
C1245 H1271 0.931 . S
U1246 O1247 2.454 1_655 S
U1246 O1248 2.458 . S
U1246 C1249 2.984 1_655 S
U1246 C1250 2.847 . S
U1246 C1263 2.882 . S
U1246 O1264 2.441 . S
U1246 O1265 2.420 . S
U1246 O1266 2.455 . S
U1246 O1267 2.449 . S
O1247 U1246 2.454 1_455 S
O1247 C1249 1.353 . S
O1248 U1246 2.458 . S
O1248 C1249 1.286 1_655 S
C1249 U1246 2.984 1_455 S
C1249 O1247 1.353 . S
C1249 O1248 1.286 1_455 S
C1249 C1251 1.363 . S
C1250 C1240 1.465 . S
C1250 U1246 2.847 . S
C1250 O1264 1.249 . S
C1250 O1265 1.202 . S
C1251 C1249 1.363 . S
C1251 C1253 1.408 . S
C1251 C1256 1.342 . S
C1252 C1253 1.310 . S
C1252 C1255 1.461 . S
C1252 H1272 0.932 . S
C1253 C1251 1.408 . S
C1253 C1252 1.310 . S
C1253 H1273 0.930 . S
C1254 C1255 1.474 . S
C1254 C1256 1.285 . S
C1254 H1274 0.929 . S
C1255 C1252 1.461 . S
C1255 C1254 1.474 . S
C1256 C1251 1.342 . S
C1256 C1254 1.285 . S
C1256 H1275 0.930 . S
C1257 C1260 1.424 . S
C1257 C1262 1.245 . S
C1257 C1263 1.428 . S
C1258 C1261 1.260 . S
C1258 C1262 1.477 . S
C1258 H1276 0.932 . S
C1259 C1260 1.384 . S
C1259 C1261 1.479 . S
C1259 H1277 0.929 . S
C1260 C1257 1.424 . S
C1260 C1259 1.384 . S
C1260 H1278 0.928 . S
C1261 C1258 1.260 . S
C1261 C1259 1.479 . S
C1262 C1257 1.245 . S
C1262 C1258 1.477 . S
C1262 H1279 0.932 . S
C1263 U1246 2.882 . S
C1263 C1257 1.428 . S
C1263 O1266 1.301 . S
C1263 O1267 1.282 . S
O1264 U1246 2.441 . S
O1264 C1250 1.249 . S
O1265 U1246 2.420 . S
O1265 C1250 1.202 . S
O1266 U1246 2.455 . S
O1266 C1263 1.301 . S
O1267 U1246 2.449 . S
O1267 C1263 1.282 . S
H1268 C1241 0.931 . S
H1269 C1243 0.929 . S
H1270 C1244 0.930 . S
H1271 C1245 0.931 . S
H1272 C1252 0.932 . S
H1273 C1253 0.930 . S
H1274 C1254 0.929 . S
H1275 C1256 0.930 . S
H1276 C1258 0.932 . S
H1277 C1259 0.929 . S
H1278 C1260 0.928 . S
H1279 C1262 0.932 . S
C1280 C1281 1.264 . S
C1280 C1285 1.479 . S
C1280 C1290 1.465 . S
C1281 C1280 1.264 . S
C1281 C1283 1.339 . S
C1281 H1308 0.931 . S
C1282 C1283 1.395 . S
C1282 C1284 1.320 . S
C1283 C1281 1.339 . S
C1283 C1282 1.395 . S
C1283 H1309 0.929 . S
C1284 C1282 1.320 . S
C1284 C1285 1.405 . S
C1284 H1310 0.930 . S
C1285 C1280 1.479 . S
C1285 C1284 1.405 . S
C1285 H1311 0.931 . S
U1286 O1287 2.454 . S
U1286 O1288 2.458 . S
U1286 C1289 2.984 . S
U1286 C1290 2.847 . S
U1286 C1303 2.882 . S
U1286 O1304 2.441 . S
U1286 O1305 2.420 . S
U1286 O1306 2.455 . S
U1286 O1307 2.449 . S
O1287 U1286 2.454 . S
O1287 C1289 1.353 . S
O1288 U1286 2.458 . S
O1288 C1289 1.286 . S
C1289 U1286 2.984 . S
C1289 O1287 1.353 . S
C1289 O1288 1.286 . S
C1289 C1291 1.363 . S
C1290 C1280 1.465 . S
C1290 U1286 2.847 . S
C1290 O1304 1.249 . S
C1290 O1305 1.202 . S
C1291 C1289 1.363 . S
C1291 C1293 1.408 . S
C1291 C1296 1.342 . S
C1292 C1293 1.310 . S
C1292 C1295 1.461 . S
C1292 H1312 0.932 . S
C1293 C1291 1.408 . S
C1293 C1292 1.310 . S
C1293 H1313 0.930 . S
C1294 C1295 1.474 . S
C1294 C1296 1.285 . S
C1294 H1314 0.929 . S
C1295 C1292 1.461 . S
C1295 C1294 1.474 . S
C1296 C1291 1.342 . S
C1296 C1294 1.285 . S
C1296 H1315 0.930 . S
C1297 C1300 1.424 . S
C1297 C1302 1.245 . S
C1297 C1303 1.428 . S
C1298 C1301 1.260 . S
C1298 C1302 1.477 . S
C1298 H1316 0.932 . S
C1299 C1300 1.384 . S
C1299 C1301 1.479 . S
C1299 H1317 0.929 . S
C1300 C1297 1.424 . S
C1300 C1299 1.384 . S
C1300 H1318 0.928 . S
C1301 C1298 1.260 . S
C1301 C1299 1.479 . S
C1302 C1297 1.245 . S
C1302 C1298 1.477 . S
C1302 H1319 0.932 . S
C1303 U1286 2.882 . S
C1303 C1297 1.428 . S
C1303 O1306 1.301 . S
C1303 O1307 1.282 . S
O1304 U1286 2.441 . S
O1304 C1290 1.249 . S
O1305 U1286 2.420 . S
O1305 C1290 1.202 . S
O1306 U1286 2.455 . S
O1306 C1303 1.301 . S
O1307 U1286 2.449 . S
O1307 C1303 1.282 . S
H1308 C1281 0.931 . S
H1309 C1283 0.929 . S
H1310 C1284 0.930 . S
H1311 C1285 0.931 . S
H1312 C1292 0.932 . S
H1313 C1293 0.930 . S
H1314 C1294 0.929 . S
H1315 C1296 0.930 . S
H1316 C1298 0.932 . S
H1317 C1299 0.929 . S
H1318 C1300 0.928 . S
H1319 C1302 0.932 . S
C1320 C1321 1.264 . S
C1320 C1325 1.479 . S
C1320 C1330 1.465 . S
C1321 C1320 1.264 . S
C1321 C1323 1.339 . S
C1321 H1348 0.931 . S
C1322 C1323 1.395 . S
C1322 C1324 1.320 . S
C1323 C1321 1.339 . S
C1323 C1322 1.395 . S
C1323 H1349 0.929 . S
C1324 C1322 1.320 . S
C1324 C1325 1.405 . S
C1324 H1350 0.930 . S
C1325 C1320 1.479 . S
C1325 C1324 1.405 . S
C1325 H1351 0.931 . S
U1326 O1327 2.454 1_556 S
U1326 O1328 2.458 . S
U1326 C1329 2.984 1_556 S
U1326 C1330 2.847 . S
U1326 C1343 2.882 . S
U1326 O1344 2.441 . S
U1326 O1345 2.420 . S
U1326 O1346 2.455 . S
U1326 O1347 2.449 . S
O1327 U1326 2.454 1_554 S
O1327 C1329 1.353 . S
O1328 U1326 2.458 . S
O1328 C1329 1.286 1_556 S
C1329 U1326 2.984 1_554 S
C1329 O1327 1.353 . S
C1329 O1328 1.286 1_554 S
C1329 C1331 1.363 . S
C1330 C1320 1.465 . S
C1330 U1326 2.847 . S
C1330 O1344 1.249 . S
C1330 O1345 1.202 . S
C1331 C1329 1.363 . S
C1331 C1333 1.408 . S
C1331 C1336 1.342 . S
C1332 C1333 1.310 . S
C1332 C1335 1.461 . S
C1332 H1352 0.932 . S
C1333 C1331 1.408 . S
C1333 C1332 1.310 . S
C1333 H1353 0.930 . S
C1334 C1335 1.474 . S
C1334 C1336 1.285 . S
C1334 H1354 0.929 . S
C1335 C1332 1.461 . S
C1335 C1334 1.474 . S
C1336 C1331 1.342 . S
C1336 C1334 1.285 . S
C1336 H1355 0.930 . S
C1337 C1340 1.424 . S
C1337 C1342 1.245 . S
C1337 C1343 1.428 . S
C1338 C1341 1.260 . S
C1338 C1342 1.477 . S
C1338 H1356 0.932 . S
C1339 C1340 1.384 . S
C1339 C1341 1.479 . S
C1339 H1357 0.929 . S
C1340 C1337 1.424 . S
C1340 C1339 1.384 . S
C1340 H1358 0.928 . S
C1341 C1338 1.260 . S
C1341 C1339 1.479 . S
C1342 C1337 1.245 . S
C1342 C1338 1.477 . S
C1342 H1359 0.932 . S
C1343 U1326 2.882 . S
C1343 C1337 1.428 . S
C1343 O1346 1.301 . S
C1343 O1347 1.282 . S
O1344 U1326 2.441 . S
O1344 C1330 1.249 . S
O1345 U1326 2.420 . S
O1345 C1330 1.202 . S
O1346 U1326 2.455 . S
O1346 C1343 1.301 . S
O1347 U1326 2.449 . S
O1347 C1343 1.282 . S
H1348 C1321 0.931 . S
H1349 C1323 0.929 . S
H1350 C1324 0.930 . S
H1351 C1325 0.931 . S
H1352 C1332 0.932 . S
H1353 C1333 0.930 . S
H1354 C1334 0.929 . S
H1355 C1336 0.930 . S
H1356 C1338 0.932 . S
H1357 C1339 0.929 . S
H1358 C1340 0.928 . S
H1359 C1342 0.932 . S
C1360 C1361 1.264 . S
C1360 C1365 1.479 . S
C1360 C1370 1.465 . S
C1361 C1360 1.264 . S
C1361 C1363 1.339 . S
C1361 H1388 0.931 . S
C1362 C1363 1.395 . S
C1362 C1364 1.320 . S
C1363 C1361 1.339 . S
C1363 C1362 1.395 . S
C1363 H1389 0.929 . S
C1364 C1362 1.320 . S
C1364 C1365 1.405 . S
C1364 H1390 0.930 . S
C1365 C1360 1.479 . S
C1365 C1364 1.405 . S
C1365 H1391 0.931 . S
U1366 O1367 2.454 . S
U1366 O1368 2.458 . S
U1366 C1369 2.984 . S
U1366 C1370 2.847 . S
U1366 C1383 2.882 . S
U1366 O1384 2.441 . S
U1366 O1385 2.420 . S
U1366 O1386 2.455 . S
U1366 O1387 2.449 . S
O1367 U1366 2.454 . S
O1367 C1369 1.353 . S
O1368 U1366 2.458 . S
O1368 C1369 1.286 . S
C1369 U1366 2.984 . S
C1369 O1367 1.353 . S
C1369 O1368 1.286 . S
C1369 C1371 1.363 . S
C1370 C1360 1.465 . S
C1370 U1366 2.847 . S
C1370 O1384 1.249 . S
C1370 O1385 1.202 . S
C1371 C1369 1.363 . S
C1371 C1373 1.408 . S
C1371 C1376 1.342 . S
C1372 C1373 1.310 . S
C1372 C1375 1.461 . S
C1372 H1392 0.932 . S
C1373 C1371 1.408 . S
C1373 C1372 1.310 . S
C1373 H1393 0.930 . S
C1374 C1375 1.474 . S
C1374 C1376 1.285 . S
C1374 H1394 0.929 . S
C1375 C1372 1.461 . S
C1375 C1374 1.474 . S
C1376 C1371 1.342 . S
C1376 C1374 1.285 . S
C1376 H1395 0.930 . S
C1377 C1380 1.424 . S
C1377 C1382 1.245 . S
C1377 C1383 1.428 . S
C1378 C1381 1.260 . S
C1378 C1382 1.477 . S
C1378 H1396 0.932 . S
C1379 C1380 1.384 . S
C1379 C1381 1.479 . S
C1379 H1397 0.929 . S
C1380 C1377 1.424 . S
C1380 C1379 1.384 . S
C1380 H1398 0.928 . S
C1381 C1378 1.260 . S
C1381 C1379 1.479 . S
C1382 C1377 1.245 . S
C1382 C1378 1.477 . S
C1382 H1399 0.932 . S
C1383 U1366 2.882 . S
C1383 C1377 1.428 . S
C1383 O1386 1.301 . S
C1383 O1387 1.282 . S
O1384 U1366 2.441 . S
O1384 C1370 1.249 . S
O1385 U1366 2.420 . S
O1385 C1370 1.202 . S
O1386 U1366 2.455 . S
O1386 C1383 1.301 . S
O1387 U1366 2.449 . S
O1387 C1383 1.282 . S
H1388 C1361 0.931 . S
H1389 C1363 0.929 . S
H1390 C1364 0.930 . S
H1391 C1365 0.931 . S
H1392 C1372 0.932 . S
H1393 C1373 0.930 . S
H1394 C1374 0.929 . S
H1395 C1376 0.930 . S
H1396 C1378 0.932 . S
H1397 C1379 0.929 . S
H1398 C1380 0.928 . S
H1399 C1382 0.932 . S
C1400 C1401 1.264 . S
C1400 C1405 1.479 . S
C1400 C1410 1.465 . S
C1401 C1400 1.264 . S
C1401 C1403 1.339 . S
C1401 H1428 0.931 . S
C1402 C1403 1.395 . S
C1402 C1404 1.320 . S
C1403 C1401 1.339 . S
C1403 C1402 1.395 . S
C1403 H1429 0.929 . S
C1404 C1402 1.320 . S
C1404 C1405 1.405 . S
C1404 H1430 0.930 . S
C1405 C1400 1.479 . S
C1405 C1404 1.405 . S
C1405 H1431 0.931 . S
U1406 O1407 2.454 . S
U1406 O1408 2.458 . S
U1406 C1409 2.984 . S
U1406 C1410 2.847 . S
U1406 C1423 2.882 . S
U1406 O1424 2.441 . S
U1406 O1425 2.420 . S
U1406 O1426 2.455 . S
U1406 O1427 2.449 . S
O1407 U1406 2.454 . S
O1407 C1409 1.353 . S
O1408 U1406 2.458 . S
O1408 C1409 1.286 . S
C1409 U1406 2.984 . S
C1409 O1407 1.353 . S
C1409 O1408 1.286 . S
C1409 C1411 1.363 . S
C1410 C1400 1.465 . S
C1410 U1406 2.847 . S
C1410 O1424 1.249 . S
C1410 O1425 1.202 . S
C1411 C1409 1.363 . S
C1411 C1413 1.408 . S
C1411 C1416 1.342 . S
C1412 C1413 1.310 . S
C1412 C1415 1.461 . S
C1412 H1432 0.932 . S
C1413 C1411 1.408 . S
C1413 C1412 1.310 . S
C1413 H1433 0.930 . S
C1414 C1415 1.474 . S
C1414 C1416 1.285 . S
C1414 H1434 0.929 . S
C1415 C1412 1.461 . S
C1415 C1414 1.474 . S
C1416 C1411 1.342 . S
C1416 C1414 1.285 . S
C1416 H1435 0.930 . S
C1417 C1420 1.424 . S
C1417 C1422 1.245 . S
C1417 C1423 1.428 . S
C1418 C1421 1.260 . S
C1418 C1422 1.477 . S
C1418 H1436 0.932 . S
C1419 C1420 1.384 . S
C1419 C1421 1.479 . S
C1419 H1437 0.929 . S
C1420 C1417 1.424 . S
C1420 C1419 1.384 . S
C1420 H1438 0.928 . S
C1421 C1418 1.260 . S
C1421 C1419 1.479 . S
C1422 C1417 1.245 . S
C1422 C1418 1.477 . S
C1422 H1439 0.932 . S
C1423 U1406 2.882 . S
C1423 C1417 1.428 . S
C1423 O1426 1.301 . S
C1423 O1427 1.282 . S
O1424 U1406 2.441 . S
O1424 C1410 1.249 . S
O1425 U1406 2.420 . S
O1425 C1410 1.202 . S
O1426 U1406 2.455 . S
O1426 C1423 1.301 . S
O1427 U1406 2.449 . S
O1427 C1423 1.282 . S
H1428 C1401 0.931 . S
H1429 C1403 0.929 . S
H1430 C1404 0.930 . S
H1431 C1405 0.931 . S
H1432 C1412 0.932 . S
H1433 C1413 0.930 . S
H1434 C1414 0.929 . S
H1435 C1416 0.930 . S
H1436 C1418 0.932 . S
H1437 C1419 0.929 . S
H1438 C1420 0.928 . S
H1439 C1422 0.932 . S
C1440 C1441 1.264 . S
C1440 C1445 1.479 . S
C1440 C1450 1.465 . S
C1441 C1440 1.264 . S
C1441 C1443 1.339 . S
C1441 H1468 0.931 . S
C1442 C1443 1.395 . S
C1442 C1444 1.320 . S
C1443 C1441 1.339 . S
C1443 C1442 1.395 . S
C1443 H1469 0.929 . S
C1444 C1442 1.320 . S
C1444 C1445 1.405 . S
C1444 H1470 0.930 . S
C1445 C1440 1.479 . S
C1445 C1444 1.405 . S
C1445 H1471 0.931 . S
U1446 O1447 2.454 . S
U1446 O1448 2.458 . S
U1446 C1449 2.984 . S
U1446 C1450 2.847 . S
U1446 C1463 2.882 . S
U1446 O1464 2.441 . S
U1446 O1465 2.420 . S
U1446 O1466 2.455 . S
U1446 O1467 2.449 . S
O1447 U1446 2.454 . S
O1447 C1449 1.353 . S
O1448 U1446 2.458 . S
O1448 C1449 1.286 . S
C1449 U1446 2.984 . S
C1449 O1447 1.353 . S
C1449 O1448 1.286 . S
C1449 C1451 1.363 . S
C1450 C1440 1.465 . S
C1450 U1446 2.847 . S
C1450 O1464 1.249 . S
C1450 O1465 1.202 . S
C1451 C1449 1.363 . S
C1451 C1453 1.408 . S
C1451 C1456 1.342 . S
C1452 C1453 1.310 . S
C1452 C1455 1.461 . S
C1452 H1472 0.932 . S
C1453 C1451 1.408 . S
C1453 C1452 1.310 . S
C1453 H1473 0.930 . S
C1454 C1455 1.474 . S
C1454 C1456 1.285 . S
C1454 H1474 0.929 . S
C1455 C1452 1.461 . S
C1455 C1454 1.474 . S
C1456 C1451 1.342 . S
C1456 C1454 1.285 . S
C1456 H1475 0.930 . S
C1457 C1460 1.424 . S
C1457 C1462 1.245 . S
C1457 C1463 1.428 . S
C1458 C1461 1.260 . S
C1458 C1462 1.477 . S
C1458 H1476 0.932 . S
C1459 C1460 1.384 . S
C1459 C1461 1.479 . S
C1459 H1477 0.929 . S
C1460 C1457 1.424 . S
C1460 C1459 1.384 . S
C1460 H1478 0.928 . S
C1461 C1458 1.260 . S
C1461 C1459 1.479 . S
C1462 C1457 1.245 . S
C1462 C1458 1.477 . S
C1462 H1479 0.932 . S
C1463 U1446 2.882 . S
C1463 C1457 1.428 . S
C1463 O1466 1.301 . S
C1463 O1467 1.282 . S
O1464 U1446 2.441 . S
O1464 C1450 1.249 . S
O1465 U1446 2.420 . S
O1465 C1450 1.202 . S
O1466 U1446 2.455 . S
O1466 C1463 1.301 . S
O1467 U1446 2.449 . S
O1467 C1463 1.282 . S
H1468 C1441 0.931 . S
H1469 C1443 0.929 . S
H1470 C1444 0.930 . S
H1471 C1445 0.931 . S
H1472 C1452 0.932 . S
H1473 C1453 0.930 . S
H1474 C1454 0.929 . S
H1475 C1456 0.930 . S
H1476 C1458 0.932 . S
H1477 C1459 0.929 . S
H1478 C1460 0.928 . S
H1479 C1462 0.932 . S
C1480 C1481 1.264 . S
C1480 C1485 1.479 . S
C1480 C1490 1.465 . S
C1481 C1480 1.264 . S
C1481 C1483 1.339 . S
C1481 H1508 0.931 . S
C1482 C1483 1.395 . S
C1482 C1484 1.320 . S
C1483 C1481 1.339 . S
C1483 C1482 1.395 . S
C1483 H1509 0.929 . S
C1484 C1482 1.320 . S
C1484 C1485 1.405 . S
C1484 H1510 0.930 . S
C1485 C1480 1.479 . S
C1485 C1484 1.405 . S
C1485 H1511 0.931 . S
U1486 O1487 2.454 . S
U1486 O1488 2.458 . S
U1486 C1489 2.984 . S
U1486 C1490 2.847 . S
U1486 C1503 2.882 . S
U1486 O1504 2.441 . S
U1486 O1505 2.420 . S
U1486 O1506 2.455 . S
U1486 O1507 2.449 . S
O1487 U1486 2.454 . S
O1487 C1489 1.353 . S
O1488 U1486 2.458 . S
O1488 C1489 1.286 . S
C1489 U1486 2.984 . S
C1489 O1487 1.353 . S
C1489 O1488 1.286 . S
C1489 C1491 1.363 . S
C1490 C1480 1.465 . S
C1490 U1486 2.847 . S
C1490 O1504 1.249 . S
C1490 O1505 1.202 . S
C1491 C1489 1.363 . S
C1491 C1493 1.408 . S
C1491 C1496 1.342 . S
C1492 C1493 1.310 . S
C1492 C1495 1.461 . S
C1492 H1512 0.932 . S
C1493 C1491 1.408 . S
C1493 C1492 1.310 . S
C1493 H1513 0.930 . S
C1494 C1495 1.474 . S
C1494 C1496 1.285 . S
C1494 H1514 0.929 . S
C1495 C1492 1.461 . S
C1495 C1494 1.474 . S
C1496 C1491 1.342 . S
C1496 C1494 1.285 . S
C1496 H1515 0.930 . S
C1497 C1500 1.424 . S
C1497 C1502 1.245 . S
C1497 C1503 1.428 . S
C1498 C1501 1.260 . S
C1498 C1502 1.477 . S
C1498 H1516 0.932 . S
C1499 C1500 1.384 . S
C1499 C1501 1.479 . S
C1499 H1517 0.929 . S
C1500 C1497 1.424 . S
C1500 C1499 1.384 . S
C1500 H1518 0.928 . S
C1501 C1498 1.260 . S
C1501 C1499 1.479 . S
C1502 C1497 1.245 . S
C1502 C1498 1.477 . S
C1502 H1519 0.932 . S
C1503 U1486 2.882 . S
C1503 C1497 1.428 . S
C1503 O1506 1.301 . S
C1503 O1507 1.282 . S
O1504 U1486 2.441 . S
O1504 C1490 1.249 . S
O1505 U1486 2.420 . S
O1505 C1490 1.202 . S
O1506 U1486 2.455 . S
O1506 C1503 1.301 . S
O1507 U1486 2.449 . S
O1507 C1503 1.282 . S
H1508 C1481 0.931 . S
H1509 C1483 0.929 . S
H1510 C1484 0.930 . S
H1511 C1485 0.931 . S
H1512 C1492 0.932 . S
H1513 C1493 0.930 . S
H1514 C1494 0.929 . S
H1515 C1496 0.930 . S
H1516 C1498 0.932 . S
H1517 C1499 0.929 . S
H1518 C1500 0.928 . S
H1519 C1502 0.932 . S
C1520 C1521 1.264 . S
C1520 C1525 1.479 . S
C1520 C1530 1.465 . S
C1521 C1520 1.264 . S
C1521 C1523 1.339 . S
C1521 H1548 0.931 . S
C1522 C1523 1.395 . S
C1522 C1524 1.320 . S
C1523 C1521 1.339 . S
C1523 C1522 1.395 . S
C1523 H1549 0.929 . S
C1524 C1522 1.320 . S
C1524 C1525 1.405 . S
C1524 H1550 0.930 . S
C1525 C1520 1.479 . S
C1525 C1524 1.405 . S
C1525 H1551 0.931 . S
U1526 O1527 2.454 . S
U1526 O1528 2.458 . S
U1526 C1529 2.984 . S
U1526 C1530 2.847 . S
U1526 C1543 2.882 . S
U1526 O1544 2.441 . S
U1526 O1545 2.420 . S
U1526 O1546 2.455 . S
U1526 O1547 2.449 . S
O1527 U1526 2.454 . S
O1527 C1529 1.353 . S
O1528 U1526 2.458 . S
O1528 C1529 1.286 . S
C1529 U1526 2.984 . S
C1529 O1527 1.353 . S
C1529 O1528 1.286 . S
C1529 C1531 1.363 . S
C1530 C1520 1.465 . S
C1530 U1526 2.847 . S
C1530 O1544 1.249 . S
C1530 O1545 1.202 . S
C1531 C1529 1.363 . S
C1531 C1533 1.408 . S
C1531 C1536 1.342 . S
C1532 C1533 1.310 . S
C1532 C1535 1.461 . S
C1532 H1552 0.932 . S
C1533 C1531 1.408 . S
C1533 C1532 1.310 . S
C1533 H1553 0.930 . S
C1534 C1535 1.474 . S
C1534 C1536 1.285 . S
C1534 H1554 0.929 . S
C1535 C1532 1.461 . S
C1535 C1534 1.474 . S
C1536 C1531 1.342 . S
C1536 C1534 1.285 . S
C1536 H1555 0.930 . S
C1537 C1540 1.424 . S
C1537 C1542 1.245 . S
C1537 C1543 1.428 . S
C1538 C1541 1.260 . S
C1538 C1542 1.477 . S
C1538 H1556 0.932 . S
C1539 C1540 1.384 . S
C1539 C1541 1.479 . S
C1539 H1557 0.929 . S
C1540 C1537 1.424 . S
C1540 C1539 1.384 . S
C1540 H1558 0.928 . S
C1541 C1538 1.260 . S
C1541 C1539 1.479 . S
C1542 C1537 1.245 . S
C1542 C1538 1.477 . S
C1542 H1559 0.932 . S
C1543 U1526 2.882 . S
C1543 C1537 1.428 . S
C1543 O1546 1.301 . S
C1543 O1547 1.282 . S
O1544 U1526 2.441 . S
O1544 C1530 1.249 . S
O1545 U1526 2.420 . S
O1545 C1530 1.202 . S
O1546 U1526 2.455 . S
O1546 C1543 1.301 . S
O1547 U1526 2.449 . S
O1547 C1543 1.282 . S
H1548 C1521 0.931 . S
H1549 C1523 0.929 . S
H1550 C1524 0.930 . S
H1551 C1525 0.931 . S
H1552 C1532 0.932 . S
H1553 C1533 0.930 . S
H1554 C1534 0.929 . S
H1555 C1536 0.930 . S
H1556 C1538 0.932 . S
H1557 C1539 0.929 . S
H1558 C1540 0.928 . S
H1559 C1542 0.932 . S
C1560 C1561 1.264 . S
C1560 C1565 1.479 . S
C1560 C1570 1.465 . S
C1561 C1560 1.264 . S
C1561 C1563 1.339 . S
C1561 H1588 0.931 . S
C1562 C1563 1.395 . S
C1562 C1564 1.320 . S
C1563 C1561 1.339 . S
C1563 C1562 1.395 . S
C1563 H1589 0.929 . S
C1564 C1562 1.320 . S
C1564 C1565 1.405 . S
C1564 H1590 0.930 . S
C1565 C1560 1.479 . S
C1565 C1564 1.405 . S
C1565 H1591 0.931 . S
U1566 O1567 2.454 . S
U1566 O1568 2.458 . S
U1566 C1569 2.984 . S
U1566 C1570 2.847 . S
U1566 C1583 2.882 . S
U1566 O1584 2.441 . S
U1566 O1585 2.420 . S
U1566 O1586 2.455 . S
U1566 O1587 2.449 . S
O1567 U1566 2.454 . S
O1567 C1569 1.353 . S
O1568 U1566 2.458 . S
O1568 C1569 1.286 . S
C1569 U1566 2.984 . S
C1569 O1567 1.353 . S
C1569 O1568 1.286 . S
C1569 C1571 1.363 . S
C1570 C1560 1.465 . S
C1570 U1566 2.847 . S
C1570 O1584 1.249 . S
C1570 O1585 1.202 . S
C1571 C1569 1.363 . S
C1571 C1573 1.408 . S
C1571 C1576 1.342 . S
C1572 C1573 1.310 . S
C1572 C1575 1.461 . S
C1572 H1592 0.932 . S
C1573 C1571 1.408 . S
C1573 C1572 1.310 . S
C1573 H1593 0.930 . S
C1574 C1575 1.474 . S
C1574 C1576 1.285 . S
C1574 H1594 0.929 . S
C1575 C1572 1.461 . S
C1575 C1574 1.474 . S
C1576 C1571 1.342 . S
C1576 C1574 1.285 . S
C1576 H1595 0.930 . S
C1577 C1580 1.424 . S
C1577 C1582 1.245 . S
C1577 C1583 1.428 . S
C1578 C1581 1.260 . S
C1578 C1582 1.477 . S
C1578 H1596 0.932 . S
C1579 C1580 1.384 . S
C1579 C1581 1.479 . S
C1579 H1597 0.929 . S
C1580 C1577 1.424 . S
C1580 C1579 1.384 . S
C1580 H1598 0.928 . S
C1581 C1578 1.260 . S
C1581 C1579 1.479 . S
C1582 C1577 1.245 . S
C1582 C1578 1.477 . S
C1582 H1599 0.932 . S
C1583 U1566 2.882 . S
C1583 C1577 1.428 . S
C1583 O1586 1.301 . S
C1583 O1587 1.282 . S
O1584 U1566 2.441 . S
O1584 C1570 1.249 . S
O1585 U1566 2.420 . S
O1585 C1570 1.202 . S
O1586 U1566 2.455 . S
O1586 C1583 1.301 . S
O1587 U1566 2.449 . S
O1587 C1583 1.282 . S
H1588 C1561 0.931 . S
H1589 C1563 0.929 . S
H1590 C1564 0.930 . S
H1591 C1565 0.931 . S
H1592 C1572 0.932 . S
H1593 C1573 0.930 . S
H1594 C1574 0.929 . S
H1595 C1576 0.930 . S
H1596 C1578 0.932 . S
H1597 C1579 0.929 . S
H1598 C1580 0.928 . S
H1599 C1582 0.932 . S
C1600 C1601 1.264 . S
C1600 C1605 1.479 . S
C1600 C1610 1.465 . S
C1601 C1600 1.264 . S
C1601 C1603 1.339 . S
C1601 H1628 0.931 . S
C1602 C1603 1.395 . S
C1602 C1604 1.320 . S
C1603 C1601 1.339 . S
C1603 C1602 1.395 . S
C1603 H1629 0.929 . S
C1604 C1602 1.320 . S
C1604 C1605 1.405 . S
C1604 H1630 0.930 . S
C1605 C1600 1.479 . S
C1605 C1604 1.405 . S
C1605 H1631 0.931 . S
U1606 O1607 2.454 . S
U1606 O1608 2.458 . S
U1606 C1609 2.984 . S
U1606 C1610 2.847 1_455 S
U1606 C1623 2.882 . S
U1606 O1624 2.441 1_455 S
U1606 O1625 2.420 1_455 S
U1606 O1626 2.455 . S
U1606 O1627 2.449 . S
O1607 U1606 2.454 . S
O1607 C1609 1.353 . S
O1608 U1606 2.458 . S
O1608 C1609 1.286 . S
C1609 U1606 2.984 . S
C1609 O1607 1.353 . S
C1609 O1608 1.286 . S
C1609 C1611 1.363 . S
C1610 C1600 1.465 . S
C1610 U1606 2.847 1_655 S
C1610 O1624 1.249 . S
C1610 O1625 1.202 . S
C1611 C1609 1.363 . S
C1611 C1613 1.408 . S
C1611 C1616 1.342 . S
C1612 C1613 1.310 . S
C1612 C1615 1.461 . S
C1612 H1632 0.932 . S
C1613 C1611 1.408 . S
C1613 C1612 1.310 . S
C1613 H1633 0.930 . S
C1614 C1615 1.474 . S
C1614 C1616 1.285 . S
C1614 H1634 0.929 . S
C1615 C1612 1.461 . S
C1615 C1614 1.474 . S
C1616 C1611 1.342 . S
C1616 C1614 1.285 . S
C1616 H1635 0.930 . S
C1617 C1620 1.424 . S
C1617 C1622 1.245 . S
C1617 C1623 1.428 . S
C1618 C1621 1.260 . S
C1618 C1622 1.477 . S
C1618 H1636 0.932 . S
C1619 C1620 1.384 . S
C1619 C1621 1.479 . S
C1619 H1637 0.929 . S
C1620 C1617 1.424 . S
C1620 C1619 1.384 . S
C1620 H1638 0.928 . S
C1621 C1618 1.260 . S
C1621 C1619 1.479 . S
C1622 C1617 1.245 . S
C1622 C1618 1.477 . S
C1622 H1639 0.932 . S
C1623 U1606 2.882 . S
C1623 C1617 1.428 . S
C1623 O1626 1.301 . S
C1623 O1627 1.282 . S
O1624 U1606 2.441 1_655 S
O1624 C1610 1.249 . S
O1625 U1606 2.420 1_655 S
O1625 C1610 1.202 . S
O1626 U1606 2.455 . S
O1626 C1623 1.301 . S
O1627 U1606 2.449 . S
O1627 C1623 1.282 . S
H1628 C1601 0.931 . S
H1629 C1603 0.929 . S
H1630 C1604 0.930 . S
H1631 C1605 0.931 . S
H1632 C1612 0.932 . S
H1633 C1613 0.930 . S
H1634 C1614 0.929 . S
H1635 C1616 0.930 . S
H1636 C1618 0.932 . S
H1637 C1619 0.929 . S
H1638 C1620 0.928 . S
H1639 C1622 0.932 . S
C1640 C1641 1.264 . S
C1640 C1645 1.479 . S
C1640 C1650 1.465 . S
C1641 C1640 1.264 . S
C1641 C1643 1.339 . S
C1641 H1668 0.931 . S
C1642 C1643 1.395 . S
C1642 C1644 1.320 . S
C1643 C1641 1.339 . S
C1643 C1642 1.395 . S
C1643 H1669 0.929 . S
C1644 C1642 1.320 . S
C1644 C1645 1.405 . S
C1644 H1670 0.930 . S
C1645 C1640 1.479 . S
C1645 C1644 1.405 . S
C1645 H1671 0.931 . S
U1646 O1647 2.454 . S
U1646 O1648 2.458 . S
U1646 C1649 2.984 . S
U1646 C1650 2.847 . S
U1646 C1663 2.882 . S
U1646 O1664 2.441 . S
U1646 O1665 2.420 . S
U1646 O1666 2.455 . S
U1646 O1667 2.449 . S
O1647 U1646 2.454 . S
O1647 C1649 1.353 . S
O1648 U1646 2.458 . S
O1648 C1649 1.286 . S
C1649 U1646 2.984 . S
C1649 O1647 1.353 . S
C1649 O1648 1.286 . S
C1649 C1651 1.363 . S
C1650 C1640 1.465 . S
C1650 U1646 2.847 . S
C1650 O1664 1.249 . S
C1650 O1665 1.202 . S
C1651 C1649 1.363 . S
C1651 C1653 1.408 . S
C1651 C1656 1.342 . S
C1652 C1653 1.310 . S
C1652 C1655 1.461 . S
C1652 H1672 0.932 . S
C1653 C1651 1.408 . S
C1653 C1652 1.310 . S
C1653 H1673 0.930 . S
C1654 C1655 1.474 . S
C1654 C1656 1.285 . S
C1654 H1674 0.929 . S
C1655 C1652 1.461 . S
C1655 C1654 1.474 . S
C1656 C1651 1.342 . S
C1656 C1654 1.285 . S
C1656 H1675 0.930 . S
C1657 C1660 1.424 . S
C1657 C1662 1.245 . S
C1657 C1663 1.428 . S
C1658 C1661 1.260 . S
C1658 C1662 1.477 . S
C1658 H1676 0.932 . S
C1659 C1660 1.384 . S
C1659 C1661 1.479 . S
C1659 H1677 0.929 . S
C1660 C1657 1.424 . S
C1660 C1659 1.384 . S
C1660 H1678 0.928 . S
C1661 C1658 1.260 . S
C1661 C1659 1.479 . S
C1662 C1657 1.245 . S
C1662 C1658 1.477 . S
C1662 H1679 0.932 . S
C1663 U1646 2.882 . S
C1663 C1657 1.428 . S
C1663 O1666 1.301 . S
C1663 O1667 1.282 . S
O1664 U1646 2.441 . S
O1664 C1650 1.249 . S
O1665 U1646 2.420 . S
O1665 C1650 1.202 . S
O1666 U1646 2.455 . S
O1666 C1663 1.301 . S
O1667 U1646 2.449 . S
O1667 C1663 1.282 . S
H1668 C1641 0.931 . S
H1669 C1643 0.929 . S
H1670 C1644 0.930 . S
H1671 C1645 0.931 . S
H1672 C1652 0.932 . S
H1673 C1653 0.930 . S
H1674 C1654 0.929 . S
H1675 C1656 0.930 . S
H1676 C1658 0.932 . S
H1677 C1659 0.929 . S
H1678 C1660 0.928 . S
H1679 C1662 0.932 . S
C1680 C1681 1.264 . S
C1680 C1685 1.479 . S
C1680 C1690 1.465 . S
C1681 C1680 1.264 . S
C1681 C1683 1.339 . S
C1681 H1708 0.931 . S
C1682 C1683 1.395 . S
C1682 C1684 1.320 . S
C1683 C1681 1.339 . S
C1683 C1682 1.395 . S
C1683 H1709 0.929 . S
C1684 C1682 1.320 . S
C1684 C1685 1.405 . S
C1684 H1710 0.930 . S
C1685 C1680 1.479 . S
C1685 C1684 1.405 . S
C1685 H1711 0.931 . S
U1686 O1687 2.454 1_554 S
U1686 O1688 2.458 1_554 S
U1686 C1689 2.984 1_554 S
U1686 C1690 2.847 . S
U1686 C1703 2.882 . S
U1686 O1704 2.441 . S
U1686 O1705 2.420 . S
U1686 O1706 2.455 . S
U1686 O1707 2.449 . S
O1687 U1686 2.454 1_556 S
O1687 C1689 1.353 . S
O1688 U1686 2.458 1_556 S
O1688 C1689 1.286 . S
C1689 U1686 2.984 1_556 S
C1689 O1687 1.353 . S
C1689 O1688 1.286 . S
C1689 C1691 1.363 . S
C1690 C1680 1.465 . S
C1690 U1686 2.847 . S
C1690 O1704 1.249 . S
C1690 O1705 1.202 . S
C1691 C1689 1.363 . S
C1691 C1693 1.408 . S
C1691 C1696 1.342 . S
C1692 C1693 1.310 . S
C1692 C1695 1.461 . S
C1692 H1712 0.932 . S
C1693 C1691 1.408 . S
C1693 C1692 1.310 . S
C1693 H1713 0.930 . S
C1694 C1695 1.474 . S
C1694 C1696 1.285 . S
C1694 H1714 0.929 . S
C1695 C1692 1.461 . S
C1695 C1694 1.474 . S
C1696 C1691 1.342 . S
C1696 C1694 1.285 . S
C1696 H1715 0.930 . S
C1697 C1700 1.424 . S
C1697 C1702 1.245 . S
C1697 C1703 1.428 . S
C1698 C1701 1.260 . S
C1698 C1702 1.477 . S
C1698 H1716 0.932 . S
C1699 C1700 1.384 . S
C1699 C1701 1.479 . S
C1699 H1717 0.929 . S
C1700 C1697 1.424 . S
C1700 C1699 1.384 . S
C1700 H1718 0.928 . S
C1701 C1698 1.260 . S
C1701 C1699 1.479 . S
C1702 C1697 1.245 . S
C1702 C1698 1.477 . S
C1702 H1719 0.932 . S
C1703 U1686 2.882 . S
C1703 C1697 1.428 . S
C1703 O1706 1.301 . S
C1703 O1707 1.282 . S
O1704 U1686 2.441 . S
O1704 C1690 1.249 . S
O1705 U1686 2.420 . S
O1705 C1690 1.202 . S
O1706 U1686 2.455 . S
O1706 C1703 1.301 . S
O1707 U1686 2.449 . S
O1707 C1703 1.282 . S
H1708 C1681 0.931 . S
H1709 C1683 0.929 . S
H1710 C1684 0.930 . S
H1711 C1685 0.931 . S
H1712 C1692 0.932 . S
H1713 C1693 0.930 . S
H1714 C1694 0.929 . S
H1715 C1696 0.930 . S
H1716 C1698 0.932 . S
H1717 C1699 0.929 . S
H1718 C1700 0.928 . S
H1719 C1702 0.932 . S
C1720 C1721 1.264 . S
C1720 C1725 1.479 . S
C1720 C1730 1.465 . S
C1721 C1720 1.264 . S
C1721 C1723 1.339 . S
C1721 H1748 0.931 . S
C1722 C1723 1.395 . S
C1722 C1724 1.320 . S
C1723 C1721 1.339 . S
C1723 C1722 1.395 . S
C1723 H1749 0.929 . S
C1724 C1722 1.320 . S
C1724 C1725 1.405 . S
C1724 H1750 0.930 . S
C1725 C1720 1.479 . S
C1725 C1724 1.405 . S
C1725 H1751 0.931 . S
U1726 O1727 2.454 . S
U1726 O1728 2.458 . S
U1726 C1729 2.984 . S
U1726 C1730 2.847 . S
U1726 C1743 2.882 . S
U1726 O1744 2.441 . S
U1726 O1745 2.420 . S
U1726 O1746 2.455 . S
U1726 O1747 2.449 . S
O1727 U1726 2.454 . S
O1727 C1729 1.353 . S
O1728 U1726 2.458 . S
O1728 C1729 1.286 . S
C1729 U1726 2.984 . S
C1729 O1727 1.353 . S
C1729 O1728 1.286 . S
C1729 C1731 1.363 . S
C1730 C1720 1.465 . S
C1730 U1726 2.847 . S
C1730 O1744 1.249 . S
C1730 O1745 1.202 . S
C1731 C1729 1.363 . S
C1731 C1733 1.408 . S
C1731 C1736 1.342 . S
C1732 C1733 1.310 . S
C1732 C1735 1.461 . S
C1732 H1752 0.932 . S
C1733 C1731 1.408 . S
C1733 C1732 1.310 . S
C1733 H1753 0.930 . S
C1734 C1735 1.474 . S
C1734 C1736 1.285 . S
C1734 H1754 0.929 . S
C1735 C1732 1.461 . S
C1735 C1734 1.474 . S
C1736 C1731 1.342 . S
C1736 C1734 1.285 . S
C1736 H1755 0.930 . S
C1737 C1740 1.424 . S
C1737 C1742 1.245 . S
C1737 C1743 1.428 . S
C1738 C1741 1.260 . S
C1738 C1742 1.477 . S
C1738 H1756 0.932 . S
C1739 C1740 1.384 . S
C1739 C1741 1.479 . S
C1739 H1757 0.929 . S
C1740 C1737 1.424 . S
C1740 C1739 1.384 . S
C1740 H1758 0.928 . S
C1741 C1738 1.260 . S
C1741 C1739 1.479 . S
C1742 C1737 1.245 . S
C1742 C1738 1.477 . S
C1742 H1759 0.932 . S
C1743 U1726 2.882 . S
C1743 C1737 1.428 . S
C1743 O1746 1.301 . S
C1743 O1747 1.282 . S
O1744 U1726 2.441 . S
O1744 C1730 1.249 . S
O1745 U1726 2.420 . S
O1745 C1730 1.202 . S
O1746 U1726 2.455 . S
O1746 C1743 1.301 . S
O1747 U1726 2.449 . S
O1747 C1743 1.282 . S
H1748 C1721 0.931 . S
H1749 C1723 0.929 . S
H1750 C1724 0.930 . S
H1751 C1725 0.931 . S
H1752 C1732 0.932 . S
H1753 C1733 0.930 . S
H1754 C1734 0.929 . S
H1755 C1736 0.930 . S
H1756 C1738 0.932 . S
H1757 C1739 0.929 . S
H1758 C1740 0.928 . S
H1759 C1742 0.932 . S
C1760 C1761 1.264 . S
C1760 C1765 1.479 . S
C1760 C1770 1.465 . S
C1761 C1760 1.264 . S
C1761 C1763 1.339 . S
C1761 H1788 0.931 . S
C1762 C1763 1.395 . S
C1762 C1764 1.320 . S
C1763 C1761 1.339 . S
C1763 C1762 1.395 . S
C1763 H1789 0.929 . S
C1764 C1762 1.320 . S
C1764 C1765 1.405 . S
C1764 H1790 0.930 . S
C1765 C1760 1.479 . S
C1765 C1764 1.405 . S
C1765 H1791 0.931 . S
U1766 O1767 2.454 . S
U1766 O1768 2.458 . S
U1766 C1769 2.984 . S
U1766 C1770 2.847 . S
U1766 C1783 2.882 . S
U1766 O1784 2.441 . S
U1766 O1785 2.420 . S
U1766 O1786 2.455 . S
U1766 O1787 2.449 . S
O1767 U1766 2.454 . S
O1767 C1769 1.353 . S
O1768 U1766 2.458 . S
O1768 C1769 1.286 . S
C1769 U1766 2.984 . S
C1769 O1767 1.353 . S
C1769 O1768 1.286 . S
C1769 C1771 1.363 . S
C1770 C1760 1.465 . S
C1770 U1766 2.847 . S
C1770 O1784 1.249 . S
C1770 O1785 1.202 . S
C1771 C1769 1.363 . S
C1771 C1773 1.408 . S
C1771 C1776 1.342 . S
C1772 C1773 1.310 . S
C1772 C1775 1.461 . S
C1772 H1792 0.932 . S
C1773 C1771 1.408 . S
C1773 C1772 1.310 . S
C1773 H1793 0.930 . S
C1774 C1775 1.474 . S
C1774 C1776 1.285 . S
C1774 H1794 0.929 . S
C1775 C1772 1.461 . S
C1775 C1774 1.474 . S
C1776 C1771 1.342 . S
C1776 C1774 1.285 . S
C1776 H1795 0.930 . S
C1777 C1780 1.424 . S
C1777 C1782 1.245 . S
C1777 C1783 1.428 . S
C1778 C1781 1.260 . S
C1778 C1782 1.477 . S
C1778 H1796 0.932 . S
C1779 C1780 1.384 . S
C1779 C1781 1.479 . S
C1779 H1797 0.929 . S
C1780 C1777 1.424 . S
C1780 C1779 1.384 . S
C1780 H1798 0.928 . S
C1781 C1778 1.260 . S
C1781 C1779 1.479 . S
C1782 C1777 1.245 . S
C1782 C1778 1.477 . S
C1782 H1799 0.932 . S
C1783 U1766 2.882 . S
C1783 C1777 1.428 . S
C1783 O1786 1.301 . S
C1783 O1787 1.282 . S
O1784 U1766 2.441 . S
O1784 C1770 1.249 . S
O1785 U1766 2.420 . S
O1785 C1770 1.202 . S
O1786 U1766 2.455 . S
O1786 C1783 1.301 . S
O1787 U1766 2.449 . S
O1787 C1783 1.282 . S
H1788 C1761 0.931 . S
H1789 C1763 0.929 . S
H1790 C1764 0.930 . S
H1791 C1765 0.931 . S
H1792 C1772 0.932 . S
H1793 C1773 0.930 . S
H1794 C1774 0.929 . S
H1795 C1776 0.930 . S
H1796 C1778 0.932 . S
H1797 C1779 0.929 . S
H1798 C1780 0.928 . S
H1799 C1782 0.932 . S
C1800 C1801 1.264 . S
C1800 C1805 1.479 . S
C1800 C1810 1.465 . S
C1801 C1800 1.264 . S
C1801 C1803 1.339 . S
C1801 H1828 0.931 . S
C1802 C1803 1.395 . S
C1802 C1804 1.320 . S
C1803 C1801 1.339 . S
C1803 C1802 1.395 . S
C1803 H1829 0.929 . S
C1804 C1802 1.320 . S
C1804 C1805 1.405 . S
C1804 H1830 0.930 . S
C1805 C1800 1.479 . S
C1805 C1804 1.405 . S
C1805 H1831 0.931 . S
U1806 O1807 2.454 . S
U1806 O1808 2.458 . S
U1806 C1809 2.984 . S
U1806 C1810 2.847 . S
U1806 C1823 2.882 . S
U1806 O1824 2.441 . S
U1806 O1825 2.420 . S
U1806 O1826 2.455 . S
U1806 O1827 2.449 . S
O1807 U1806 2.454 . S
O1807 C1809 1.353 . S
O1808 U1806 2.458 . S
O1808 C1809 1.286 . S
C1809 U1806 2.984 . S
C1809 O1807 1.353 . S
C1809 O1808 1.286 . S
C1809 C1811 1.363 . S
C1810 C1800 1.465 . S
C1810 U1806 2.847 . S
C1810 O1824 1.249 . S
C1810 O1825 1.202 . S
C1811 C1809 1.363 . S
C1811 C1813 1.408 . S
C1811 C1816 1.342 . S
C1812 C1813 1.310 . S
C1812 C1815 1.461 . S
C1812 H1832 0.932 . S
C1813 C1811 1.408 . S
C1813 C1812 1.310 . S
C1813 H1833 0.930 . S
C1814 C1815 1.474 . S
C1814 C1816 1.285 . S
C1814 H1834 0.929 . S
C1815 C1812 1.461 . S
C1815 C1814 1.474 . S
C1816 C1811 1.342 . S
C1816 C1814 1.285 . S
C1816 H1835 0.930 . S
C1817 C1820 1.424 . S
C1817 C1822 1.245 . S
C1817 C1823 1.428 . S
C1818 C1821 1.260 . S
C1818 C1822 1.477 . S
C1818 H1836 0.932 . S
C1819 C1820 1.384 . S
C1819 C1821 1.479 . S
C1819 H1837 0.929 . S
C1820 C1817 1.424 . S
C1820 C1819 1.384 . S
C1820 H1838 0.928 . S
C1821 C1818 1.260 . S
C1821 C1819 1.479 . S
C1822 C1817 1.245 . S
C1822 C1818 1.477 . S
C1822 H1839 0.932 . S
C1823 U1806 2.882 . S
C1823 C1817 1.428 . S
C1823 O1826 1.301 . S
C1823 O1827 1.282 . S
O1824 U1806 2.441 . S
O1824 C1810 1.249 . S
O1825 U1806 2.420 . S
O1825 C1810 1.202 . S
O1826 U1806 2.455 . S
O1826 C1823 1.301 . S
O1827 U1806 2.449 . S
O1827 C1823 1.282 . S
H1828 C1801 0.931 . S
H1829 C1803 0.929 . S
H1830 C1804 0.930 . S
H1831 C1805 0.931 . S
H1832 C1812 0.932 . S
H1833 C1813 0.930 . S
H1834 C1814 0.929 . S
H1835 C1816 0.930 . S
H1836 C1818 0.932 . S
H1837 C1819 0.929 . S
H1838 C1820 0.928 . S
H1839 C1822 0.932 . S
C1840 C1841 1.264 . S
C1840 C1845 1.479 . S
C1840 C1850 1.465 . S
C1841 C1840 1.264 . S
C1841 C1843 1.339 . S
C1841 H1868 0.931 . S
C1842 C1843 1.395 . S
C1842 C1844 1.320 . S
C1843 C1841 1.339 . S
C1843 C1842 1.395 . S
C1843 H1869 0.929 . S
C1844 C1842 1.320 . S
C1844 C1845 1.405 . S
C1844 H1870 0.930 . S
C1845 C1840 1.479 . S
C1845 C1844 1.405 . S
C1845 H1871 0.931 . S
U1846 O1847 2.454 . S
U1846 O1848 2.458 . S
U1846 C1849 2.984 . S
U1846 C1850 2.847 . S
U1846 C1863 2.882 . S
U1846 O1864 2.441 . S
U1846 O1865 2.420 . S
U1846 O1866 2.455 . S
U1846 O1867 2.449 . S
O1847 U1846 2.454 . S
O1847 C1849 1.353 . S
O1848 U1846 2.458 . S
O1848 C1849 1.286 . S
C1849 U1846 2.984 . S
C1849 O1847 1.353 . S
C1849 O1848 1.286 . S
C1849 C1851 1.363 . S
C1850 C1840 1.465 . S
C1850 U1846 2.847 . S
C1850 O1864 1.249 . S
C1850 O1865 1.202 . S
C1851 C1849 1.363 . S
C1851 C1853 1.408 . S
C1851 C1856 1.342 . S
C1852 C1853 1.310 . S
C1852 C1855 1.461 . S
C1852 H1872 0.932 . S
C1853 C1851 1.408 . S
C1853 C1852 1.310 . S
C1853 H1873 0.930 . S
C1854 C1855 1.474 . S
C1854 C1856 1.285 . S
C1854 H1874 0.929 . S
C1855 C1852 1.461 . S
C1855 C1854 1.474 . S
C1856 C1851 1.342 . S
C1856 C1854 1.285 . S
C1856 H1875 0.930 . S
C1857 C1860 1.424 . S
C1857 C1862 1.245 . S
C1857 C1863 1.428 . S
C1858 C1861 1.260 . S
C1858 C1862 1.477 . S
C1858 H1876 0.932 . S
C1859 C1860 1.384 . S
C1859 C1861 1.479 . S
C1859 H1877 0.929 . S
C1860 C1857 1.424 . S
C1860 C1859 1.384 . S
C1860 H1878 0.928 . S
C1861 C1858 1.260 . S
C1861 C1859 1.479 . S
C1862 C1857 1.245 . S
C1862 C1858 1.477 . S
C1862 H1879 0.932 . S
C1863 U1846 2.882 . S
C1863 C1857 1.428 . S
C1863 O1866 1.301 . S
C1863 O1867 1.282 . S
O1864 U1846 2.441 . S
O1864 C1850 1.249 . S
O1865 U1846 2.420 . S
O1865 C1850 1.202 . S
O1866 U1846 2.455 . S
O1866 C1863 1.301 . S
O1867 U1846 2.449 . S
O1867 C1863 1.282 . S
H1868 C1841 0.931 . S
H1869 C1843 0.929 . S
H1870 C1844 0.930 . S
H1871 C1845 0.931 . S
H1872 C1852 0.932 . S
H1873 C1853 0.930 . S
H1874 C1854 0.929 . S
H1875 C1856 0.930 . S
H1876 C1858 0.932 . S
H1877 C1859 0.929 . S
H1878 C1860 0.928 . S
H1879 C1862 0.932 . S
C1880 C1881 1.264 . S
C1880 C1885 1.479 . S
C1880 C1890 1.465 . S
C1881 C1880 1.264 . S
C1881 C1883 1.339 . S
C1881 H1908 0.931 . S
C1882 C1883 1.395 . S
C1882 C1884 1.320 . S
C1883 C1881 1.339 . S
C1883 C1882 1.395 . S
C1883 H1909 0.929 . S
C1884 C1882 1.320 . S
C1884 C1885 1.405 . S
C1884 H1910 0.930 . S
C1885 C1880 1.479 . S
C1885 C1884 1.405 . S
C1885 H1911 0.931 . S
U1886 O1887 2.454 . S
U1886 O1888 2.458 . S
U1886 C1889 2.984 . S
U1886 C1890 2.847 . S
U1886 C1903 2.882 . S
U1886 O1904 2.441 . S
U1886 O1905 2.420 . S
U1886 O1906 2.455 . S
U1886 O1907 2.449 . S
O1887 U1886 2.454 . S
O1887 C1889 1.353 . S
O1888 U1886 2.458 . S
O1888 C1889 1.286 . S
C1889 U1886 2.984 . S
C1889 O1887 1.353 . S
C1889 O1888 1.286 . S
C1889 C1891 1.363 . S
C1890 C1880 1.465 . S
C1890 U1886 2.847 . S
C1890 O1904 1.249 . S
C1890 O1905 1.202 . S
C1891 C1889 1.363 . S
C1891 C1893 1.408 . S
C1891 C1896 1.342 . S
C1892 C1893 1.310 . S
C1892 C1895 1.461 . S
C1892 H1912 0.932 . S
C1893 C1891 1.408 . S
C1893 C1892 1.310 . S
C1893 H1913 0.930 . S
C1894 C1895 1.474 . S
C1894 C1896 1.285 . S
C1894 H1914 0.929 . S
C1895 C1892 1.461 . S
C1895 C1894 1.474 . S
C1896 C1891 1.342 . S
C1896 C1894 1.285 . S
C1896 H1915 0.930 . S
C1897 C1900 1.424 . S
C1897 C1902 1.245 . S
C1897 C1903 1.428 . S
C1898 C1901 1.260 . S
C1898 C1902 1.477 . S
C1898 H1916 0.932 . S
C1899 C1900 1.384 . S
C1899 C1901 1.479 . S
C1899 H1917 0.929 . S
C1900 C1897 1.424 . S
C1900 C1899 1.384 . S
C1900 H1918 0.928 . S
C1901 C1898 1.260 . S
C1901 C1899 1.479 . S
C1902 C1897 1.245 . S
C1902 C1898 1.477 . S
C1902 H1919 0.932 . S
C1903 U1886 2.882 . S
C1903 C1897 1.428 . S
C1903 O1906 1.301 . S
C1903 O1907 1.282 . S
O1904 U1886 2.441 . S
O1904 C1890 1.249 . S
O1905 U1886 2.420 . S
O1905 C1890 1.202 . S
O1906 U1886 2.455 . S
O1906 C1903 1.301 . S
O1907 U1886 2.449 . S
O1907 C1903 1.282 . S
H1908 C1881 0.931 . S
H1909 C1883 0.929 . S
H1910 C1884 0.930 . S
H1911 C1885 0.931 . S
H1912 C1892 0.932 . S
H1913 C1893 0.930 . S
H1914 C1894 0.929 . S
H1915 C1896 0.930 . S
H1916 C1898 0.932 . S
H1917 C1899 0.929 . S
H1918 C1900 0.928 . S
H1919 C1902 0.932 . S
H1920 C1923 0.931 . S
H1921 C1926 0.928 . S
H1922 C1928 0.930 . S
C1923 H1920 0.931 . S
C1923 C1924 1.413 . S
C1923 C1925 1.360 . S
C1924 C1923 1.413 . S
C1924 C1928 1.429 . S
C1925 C1923 1.360 . S
C1925 C1926 1.372 . S
C1926 H1921 0.928 . S
C1926 C1925 1.372 . S
C1926 C1927 1.404 . S
C1927 C1926 1.404 . S
C1927 C1928 1.391 . S
C1928 H1922 0.930 . S
C1928 C1924 1.429 . S
C1928 C1927 1.391 . S
H1929 C1932 0.931 . S
H1930 C1935 0.928 . S
H1931 C1937 0.930 . S
C1932 H1929 0.931 . S
C1932 C1933 1.413 . S
C1932 C1934 1.360 . S
C1933 C1932 1.413 . S
C1933 C1937 1.429 . S
C1934 C1932 1.360 . S
C1934 C1935 1.372 . S
C1935 H1930 0.928 . S
C1935 C1934 1.372 . S
C1935 C1936 1.404 . S
C1936 C1935 1.404 . S
C1936 C1937 1.391 . S
C1937 H1931 0.930 . S
C1937 C1933 1.429 . S
C1937 C1936 1.391 . S
H1938 C1941 0.931 . S
H1939 C1944 0.928 . S
H1940 C1946 0.930 . S
C1941 H1938 0.931 . S
C1941 C1942 1.413 . S
C1941 C1943 1.360 . S
C1942 C1941 1.413 . S
C1942 C1946 1.429 . S
C1943 C1941 1.360 . S
C1943 C1944 1.372 . S
C1944 H1939 0.928 . S
C1944 C1943 1.372 . S
C1944 C1945 1.404 . S
C1945 C1944 1.404 . S
C1945 C1946 1.391 . S
C1946 H1940 0.930 . S
C1946 C1942 1.429 . S
C1946 C1945 1.391 . S
H1947 C1950 0.931 . S
H1948 C1953 0.928 . S
H1949 C1955 0.930 . S
C1950 H1947 0.931 . S
C1950 C1951 1.413 . S
C1950 C1952 1.360 . S
C1951 C1950 1.413 . S
C1951 C1955 1.429 . S
C1952 C1950 1.360 . S
C1952 C1953 1.372 . S
C1953 H1948 0.928 . S
C1953 C1952 1.372 . S
C1953 C1954 1.404 . S
C1954 C1953 1.404 . S
C1954 C1955 1.391 . S
C1955 H1949 0.930 . S
C1955 C1951 1.429 . S
C1955 C1954 1.391 . S
H1956 C1959 0.931 . S
H1957 C1962 0.928 . S
H1958 C1964 0.930 . S
C1959 H1956 0.931 . S
C1959 C1960 1.413 . S
C1959 C1961 1.360 . S
C1960 C1959 1.413 . S
C1960 C1964 1.429 . S
C1961 C1959 1.360 . S
C1961 C1962 1.372 . S
C1962 H1957 0.928 . S
C1962 C1961 1.372 . S
C1962 C1963 1.404 . S
C1963 C1962 1.404 . S
C1963 C1964 1.391 . S
C1964 H1958 0.930 . S
C1964 C1960 1.429 . S
C1964 C1963 1.391 . S
H1965 C1968 0.931 . S
H1966 C1971 0.928 . S
H1967 C1973 0.930 . S
C1968 H1965 0.931 . S
C1968 C1969 1.413 . S
C1968 C1970 1.360 . S
C1969 C1968 1.413 . S
C1969 C1973 1.429 . S
C1970 C1968 1.360 . S
C1970 C1971 1.372 . S
C1971 H1966 0.928 . S
C1971 C1970 1.372 . S
C1971 C1972 1.404 . S
C1972 C1971 1.404 . S
C1972 C1973 1.391 . S
C1973 H1967 0.930 . S
C1973 C1969 1.429 . S
C1973 C1972 1.391 . S
H1974 C1977 0.931 . S
H1975 C1980 0.928 . S
H1976 C1982 0.930 . S
C1977 H1974 0.931 . S
C1977 C1978 1.413 . S
C1977 C1979 1.360 . S
C1978 C1977 1.413 . S
C1978 C1982 1.429 . S
C1979 C1977 1.360 . S
C1979 C1980 1.372 . S
C1980 H1975 0.928 . S
C1980 C1979 1.372 . S
C1980 C1981 1.404 . S
C1981 C1980 1.404 . S
C1981 C1982 1.391 . S
C1982 H1976 0.930 . S
C1982 C1978 1.429 . S
C1982 C1981 1.391 . S
H1983 C1986 0.931 . S
H1984 C1989 0.928 . S
H1985 C1991 0.930 . S
C1986 H1983 0.931 . S
C1986 C1987 1.413 . S
C1986 C1988 1.360 . S
C1987 C1986 1.413 . S
C1987 C1991 1.429 . S
C1988 C1986 1.360 . S
C1988 C1989 1.372 . S
C1989 H1984 0.928 . S
C1989 C1988 1.372 . S
C1989 C1990 1.404 . S
C1990 C1989 1.404 . S
C1990 C1991 1.391 . S
C1991 H1985 0.930 . S
C1991 C1987 1.429 . S
C1991 C1990 1.391 . S
H1992 C1995 0.931 . S
H1993 C1998 0.928 . S
H1994 C2000 0.930 . S
C1995 H1992 0.931 . S
C1995 C1996 1.413 . S
C1995 C1997 1.360 . S
C1996 C1995 1.413 . S
C1996 C2000 1.429 . S
C1997 C1995 1.360 . S
C1997 C1998 1.372 . S
C1998 H1993 0.928 . S
C1998 C1997 1.372 . S
C1998 C1999 1.404 . S
C1999 C1998 1.404 . S
C1999 C2000 1.391 . S
C2000 H1994 0.930 . S
C2000 C1996 1.429 . S
C2000 C1999 1.391 . S
H2001 C2004 0.931 . S
H2002 C2007 0.928 . S
H2003 C2009 0.930 . S
C2004 H2001 0.931 . S
C2004 C2005 1.413 . S
C2004 C2006 1.360 . S
C2005 C2004 1.413 . S
C2005 C2009 1.429 . S
C2006 C2004 1.360 . S
C2006 C2007 1.372 . S
C2007 H2002 0.928 . S
C2007 C2006 1.372 . S
C2007 C2008 1.404 . S
C2008 C2007 1.404 . S
C2008 C2009 1.391 . S
C2009 H2003 0.930 . S
C2009 C2005 1.429 . S
C2009 C2008 1.391 . S
H2010 C2013 0.931 . S
H2011 C2016 0.928 . S
H2012 C2018 0.930 . S
C2013 H2010 0.931 . S
C2013 C2014 1.413 . S
C2013 C2015 1.360 . S
C2014 C2013 1.413 . S
C2014 C2018 1.429 . S
C2015 C2013 1.360 . S
C2015 C2016 1.372 . S
C2016 H2011 0.928 . S
C2016 C2015 1.372 . S
C2016 C2017 1.404 . S
C2017 C2016 1.404 . S
C2017 C2018 1.391 . S
C2018 H2012 0.930 . S
C2018 C2014 1.429 . S
C2018 C2017 1.391 . S
H2019 C2022 0.931 . S
H2020 C2025 0.928 . S
H2021 C2027 0.930 . S
C2022 H2019 0.931 . S
C2022 C2023 1.413 . S
C2022 C2024 1.360 . S
C2023 C2022 1.413 . S
C2023 C2027 1.429 . S
C2024 C2022 1.360 . S
C2024 C2025 1.372 . S
C2025 H2020 0.928 . S
C2025 C2024 1.372 . S
C2025 C2026 1.404 . S
C2026 C2025 1.404 . S
C2026 C2027 1.391 . S
C2027 H2021 0.930 . S
C2027 C2023 1.429 . S
C2027 C2026 1.391 . S
H2028 C2031 0.931 . S
H2029 C2034 0.928 . S
H2030 C2036 0.930 . S
C2031 H2028 0.931 . S
C2031 C2032 1.413 . S
C2031 C2033 1.360 . S
C2032 C2031 1.413 . S
C2032 C2036 1.429 . S
C2033 C2031 1.360 . S
C2033 C2034 1.372 . S
C2034 H2029 0.928 . S
C2034 C2033 1.372 . S
C2034 C2035 1.404 . S
C2035 C2034 1.404 . S
C2035 C2036 1.391 . S
C2036 H2030 0.930 . S
C2036 C2032 1.429 . S
C2036 C2035 1.391 . S
H2037 C2040 0.931 . S
H2038 C2043 0.928 . S
H2039 C2045 0.930 . S
C2040 H2037 0.931 . S
C2040 C2041 1.413 . S
C2040 C2042 1.360 . S
C2041 C2040 1.413 . S
C2041 C2045 1.429 . S
C2042 C2040 1.360 . S
C2042 C2043 1.372 . S
C2043 H2038 0.928 . S
C2043 C2042 1.372 . S
C2043 C2044 1.404 . S
C2044 C2043 1.404 . S
C2044 C2045 1.391 . S
C2045 H2039 0.930 . S
C2045 C2041 1.429 . S
C2045 C2044 1.391 . S
H2046 C2049 0.931 . S
H2047 C2052 0.928 . S
H2048 C2054 0.930 . S
C2049 H2046 0.931 . S
C2049 C2050 1.413 . S
C2049 C2051 1.360 . S
C2050 C2049 1.413 . S
C2050 C2054 1.429 . S
C2051 C2049 1.360 . S
C2051 C2052 1.372 . S
C2052 H2047 0.928 . S
C2052 C2051 1.372 . S
C2052 C2053 1.404 . S
C2053 C2052 1.404 . S
C2053 C2054 1.391 . S
C2054 H2048 0.930 . S
C2054 C2050 1.429 . S
C2054 C2053 1.391 . S
H2055 C2058 0.931 . S
H2056 C2061 0.928 . S
H2057 C2063 0.930 . S
C2058 H2055 0.931 . S
C2058 C2059 1.413 . S
C2058 C2060 1.360 . S
C2059 C2058 1.413 . S
C2059 C2063 1.429 . S
C2060 C2058 1.360 . S
C2060 C2061 1.372 . S
C2061 H2056 0.928 . S
C2061 C2060 1.372 . S
C2061 C2062 1.404 . S
C2062 C2061 1.404 . S
C2062 C2063 1.391 . S
C2063 H2057 0.930 . S
C2063 C2059 1.429 . S
C2063 C2062 1.391 . S
H2064 C2067 0.931 . S
H2065 C2070 0.928 . S
H2066 C2072 0.930 . S
C2067 H2064 0.931 . S
C2067 C2068 1.413 . S
C2067 C2069 1.360 . S
C2068 C2067 1.413 . S
C2068 C2072 1.429 . S
C2069 C2067 1.360 . S
C2069 C2070 1.372 . S
C2070 H2065 0.928 . S
C2070 C2069 1.372 . S
C2070 C2071 1.404 . S
C2071 C2070 1.404 . S
C2071 C2072 1.391 . S
C2072 H2066 0.930 . S
C2072 C2068 1.429 . S
C2072 C2071 1.391 . S
H2073 C2076 0.931 . S
H2074 C2079 0.928 . S
H2075 C2081 0.930 . S
C2076 H2073 0.931 . S
C2076 C2077 1.413 . S
C2076 C2078 1.360 . S
C2077 C2076 1.413 . S
C2077 C2081 1.429 . S
C2078 C2076 1.360 . S
C2078 C2079 1.372 . S
C2079 H2074 0.928 . S
C2079 C2078 1.372 . S
C2079 C2080 1.404 . S
C2080 C2079 1.404 . S
C2080 C2081 1.391 . S
C2081 H2075 0.930 . S
C2081 C2077 1.429 . S
C2081 C2080 1.391 . S
H2082 C2085 0.931 . S
H2083 C2088 0.928 . S
H2084 C2090 0.930 . S
C2085 H2082 0.931 . S
C2085 C2086 1.413 . S
C2085 C2087 1.360 . S
C2086 C2085 1.413 . S
C2086 C2090 1.429 . S
C2087 C2085 1.360 . S
C2087 C2088 1.372 . S
C2088 H2083 0.928 . S
C2088 C2087 1.372 . S
C2088 C2089 1.404 . S
C2089 C2088 1.404 . S
C2089 C2090 1.391 . S
C2090 H2084 0.930 . S
C2090 C2086 1.429 . S
C2090 C2089 1.391 . S
H2091 C2094 0.931 . S
H2092 C2097 0.928 . S
H2093 C2099 0.930 . S
C2094 H2091 0.931 . S
C2094 C2095 1.413 . S
C2094 C2096 1.360 . S
C2095 C2094 1.413 . S
C2095 C2099 1.429 . S
C2096 C2094 1.360 . S
C2096 C2097 1.372 . S
C2097 H2092 0.928 . S
C2097 C2096 1.372 . S
C2097 C2098 1.404 . S
C2098 C2097 1.404 . S
C2098 C2099 1.391 . S
C2099 H2093 0.930 . S
C2099 C2095 1.429 . S
C2099 C2098 1.391 . S
H2100 C2103 0.931 . S
H2101 C2106 0.928 . S
H2102 C2108 0.930 . S
C2103 H2100 0.931 . S
C2103 C2104 1.413 . S
C2103 C2105 1.360 . S
C2104 C2103 1.413 . S
C2104 C2108 1.429 . S
C2105 C2103 1.360 . S
C2105 C2106 1.372 . S
C2106 H2101 0.928 . S
C2106 C2105 1.372 . S
C2106 C2107 1.404 . S
C2107 C2106 1.404 . S
C2107 C2108 1.391 . S
C2108 H2102 0.930 . S
C2108 C2104 1.429 . S
C2108 C2107 1.391 . S
H2109 C2112 0.931 . S
H2110 C2115 0.928 . S
H2111 C2117 0.930 . S
C2112 H2109 0.931 . S
C2112 C2113 1.413 . S
C2112 C2114 1.360 . S
C2113 C2112 1.413 . S
C2113 C2117 1.429 . S
C2114 C2112 1.360 . S
C2114 C2115 1.372 . S
C2115 H2110 0.928 . S
C2115 C2114 1.372 . S
C2115 C2116 1.404 . S
C2116 C2115 1.404 . S
C2116 C2117 1.391 . S
C2117 H2111 0.930 . S
C2117 C2113 1.429 . S
C2117 C2116 1.391 . S
H2118 C2121 0.931 . S
H2119 C2124 0.928 . S
H2120 C2126 0.930 . S
C2121 H2118 0.931 . S
C2121 C2122 1.413 . S
C2121 C2123 1.360 . S
C2122 C2121 1.413 . S
C2122 C2126 1.429 . S
C2123 C2121 1.360 . S
C2123 C2124 1.372 . S
C2124 H2119 0.928 . S
C2124 C2123 1.372 . S
C2124 C2125 1.404 . S
C2125 C2124 1.404 . S
C2125 C2126 1.391 . S
C2126 H2120 0.930 . S
C2126 C2122 1.429 . S
C2126 C2125 1.391 . S
H2127 C2130 0.931 . S
H2128 C2133 0.928 . S
H2129 C2135 0.930 . S
C2130 H2127 0.931 . S
C2130 C2131 1.413 . S
C2130 C2132 1.360 . S
C2131 C2130 1.413 . S
C2131 C2135 1.429 . S
C2132 C2130 1.360 . S
C2132 C2133 1.372 . S
C2133 H2128 0.928 . S
C2133 C2132 1.372 . S
C2133 C2134 1.404 . S
C2134 C2133 1.404 . S
C2134 C2135 1.391 . S
C2135 H2129 0.930 . S
C2135 C2131 1.429 . S
C2135 C2134 1.391 . S
H2136 C2139 0.931 . S
H2137 C2142 0.928 . S
H2138 C2144 0.930 . S
C2139 H2136 0.931 . S
C2139 C2140 1.413 . S
C2139 C2141 1.360 . S
C2140 C2139 1.413 . S
C2140 C2144 1.429 . S
C2141 C2139 1.360 . S
C2141 C2142 1.372 . S
C2142 H2137 0.928 . S
C2142 C2141 1.372 . S
C2142 C2143 1.404 . S
C2143 C2142 1.404 . S
C2143 C2144 1.391 . S
C2144 H2138 0.930 . S
C2144 C2140 1.429 . S
C2144 C2143 1.391 . S
H2145 C2148 0.931 . S
H2146 C2151 0.928 . S
H2147 C2153 0.930 . S
C2148 H2145 0.931 . S
C2148 C2149 1.413 . S
C2148 C2150 1.360 . S
C2149 C2148 1.413 . S
C2149 C2153 1.429 . S
C2150 C2148 1.360 . S
C2150 C2151 1.372 . S
C2151 H2146 0.928 . S
C2151 C2150 1.372 . S
C2151 C2152 1.404 . S
C2152 C2151 1.404 . S
C2152 C2153 1.391 . S
C2153 H2147 0.930 . S
C2153 C2149 1.429 . S
C2153 C2152 1.391 . S
H2154 C2157 0.931 . S
H2155 C2160 0.928 . S
H2156 C2162 0.930 . S
C2157 H2154 0.931 . S
C2157 C2158 1.413 . S
C2157 C2159 1.360 . S
C2158 C2157 1.413 . S
C2158 C2162 1.429 . S
C2159 C2157 1.360 . S
C2159 C2160 1.372 . S
C2160 H2155 0.928 . S
C2160 C2159 1.372 . S
C2160 C2161 1.404 . S
C2161 C2160 1.404 . S
C2161 C2162 1.391 . S
C2162 H2156 0.930 . S
C2162 C2158 1.429 . S
C2162 C2161 1.391 . S
H2163 C2166 0.931 . S
H2164 C2169 0.928 . S
H2165 C2171 0.930 . S
C2166 H2163 0.931 . S
C2166 C2167 1.413 . S
C2166 C2168 1.360 . S
C2167 C2166 1.413 . S
C2167 C2171 1.429 . S
C2168 C2166 1.360 . S
C2168 C2169 1.372 . S
C2169 H2164 0.928 . S
C2169 C2168 1.372 . S
C2169 C2170 1.404 . S
C2170 C2169 1.404 . S
C2170 C2171 1.391 . S
C2171 H2165 0.930 . S
C2171 C2167 1.429 . S
C2171 C2170 1.391 . S
H2172 C2175 0.931 . S
H2173 C2178 0.928 . S
H2174 C2180 0.930 . S
C2175 H2172 0.931 . S
C2175 C2176 1.413 . S
C2175 C2177 1.360 . S
C2176 C2175 1.413 . S
C2176 C2180 1.429 . S
C2177 C2175 1.360 . S
C2177 C2178 1.372 . S
C2178 H2173 0.928 . S
C2178 C2177 1.372 . S
C2178 C2179 1.404 . S
C2179 C2178 1.404 . S
C2179 C2180 1.391 . S
C2180 H2174 0.930 . S
C2180 C2176 1.429 . S
C2180 C2179 1.391 . S
H2181 C2184 0.931 . S
H2182 C2187 0.928 . S
H2183 C2189 0.930 . S
C2184 H2181 0.931 . S
C2184 C2185 1.413 . S
C2184 C2186 1.360 . S
C2185 C2184 1.413 . S
C2185 C2189 1.429 . S
C2186 C2184 1.360 . S
C2186 C2187 1.372 . S
C2187 H2182 0.928 . S
C2187 C2186 1.372 . S
C2187 C2188 1.404 . S
C2188 C2187 1.404 . S
C2188 C2189 1.391 . S
C2189 H2183 0.930 . S
C2189 C2185 1.429 . S
C2189 C2188 1.391 . S
H2190 C2193 0.931 . S
H2191 C2196 0.928 . S
H2192 C2198 0.930 . S
C2193 H2190 0.931 . S
C2193 C2194 1.413 . S
C2193 C2195 1.360 . S
C2194 C2193 1.413 . S
C2194 C2198 1.429 . S
C2195 C2193 1.360 . S
C2195 C2196 1.372 . S
C2196 H2191 0.928 . S
C2196 C2195 1.372 . S
C2196 C2197 1.404 . S
C2197 C2196 1.404 . S
C2197 C2198 1.391 . S
C2198 H2192 0.930 . S
C2198 C2194 1.429 . S
C2198 C2197 1.391 . S
H2199 C2202 0.931 . S
H2200 C2205 0.928 . S
H2201 C2207 0.930 . S
C2202 H2199 0.931 . S
C2202 C2203 1.413 . S
C2202 C2204 1.360 . S
C2203 C2202 1.413 . S
C2203 C2207 1.429 . S
C2204 C2202 1.360 . S
C2204 C2205 1.372 . S
C2205 H2200 0.928 . S
C2205 C2204 1.372 . S
C2205 C2206 1.404 . S
C2206 C2205 1.404 . S
C2206 C2207 1.391 . S
C2207 H2201 0.930 . S
C2207 C2203 1.429 . S
C2207 C2206 1.391 . S
H2208 C2211 0.931 . S
H2209 C2214 0.928 . S
H2210 C2216 0.930 . S
C2211 H2208 0.931 . S
C2211 C2212 1.413 . S
C2211 C2213 1.360 . S
C2212 C2211 1.413 . S
C2212 C2216 1.429 . S
C2213 C2211 1.360 . S
C2213 C2214 1.372 . S
C2214 H2209 0.928 . S
C2214 C2213 1.372 . S
C2214 C2215 1.404 . S
C2215 C2214 1.404 . S
C2215 C2216 1.391 . S
C2216 H2210 0.930 . S
C2216 C2212 1.429 . S
C2216 C2215 1.391 . S
H2217 C2220 0.931 . S
H2218 C2223 0.928 . S
H2219 C2225 0.930 . S
C2220 H2217 0.931 . S
C2220 C2221 1.413 . S
C2220 C2222 1.360 . S
C2221 C2220 1.413 . S
C2221 C2225 1.429 . S
C2222 C2220 1.360 . S
C2222 C2223 1.372 . S
C2223 H2218 0.928 . S
C2223 C2222 1.372 . S
C2223 C2224 1.404 . S
C2224 C2223 1.404 . S
C2224 C2225 1.391 . S
C2225 H2219 0.930 . S
C2225 C2221 1.429 . S
C2225 C2224 1.391 . S
H2226 C2229 0.931 . S
H2227 C2232 0.928 . S
H2228 C2234 0.930 . S
C2229 H2226 0.931 . S
C2229 C2230 1.413 . S
C2229 C2231 1.360 . S
C2230 C2229 1.413 . S
C2230 C2234 1.429 . S
C2231 C2229 1.360 . S
C2231 C2232 1.372 . S
C2232 H2227 0.928 . S
C2232 C2231 1.372 . S
C2232 C2233 1.404 . S
C2233 C2232 1.404 . S
C2233 C2234 1.391 . S
C2234 H2228 0.930 . S
C2234 C2230 1.429 . S
C2234 C2233 1.391 . S
H2235 C2238 0.931 . S
H2236 C2241 0.928 . S
H2237 C2243 0.930 . S
C2238 H2235 0.931 . S
C2238 C2239 1.413 . S
C2238 C2240 1.360 . S
C2239 C2238 1.413 . S
C2239 C2243 1.429 . S
C2240 C2238 1.360 . S
C2240 C2241 1.372 . S
C2241 H2236 0.928 . S
C2241 C2240 1.372 . S
C2241 C2242 1.404 . S
C2242 C2241 1.404 . S
C2242 C2243 1.391 . S
C2243 H2237 0.930 . S
C2243 C2239 1.429 . S
C2243 C2242 1.391 . S
H2244 C2247 0.931 . S
H2245 C2250 0.928 . S
H2246 C2252 0.930 . S
C2247 H2244 0.931 . S
C2247 C2248 1.413 . S
C2247 C2249 1.360 . S
C2248 C2247 1.413 . S
C2248 C2252 1.429 . S
C2249 C2247 1.360 . S
C2249 C2250 1.372 . S
C2250 H2245 0.928 . S
C2250 C2249 1.372 . S
C2250 C2251 1.404 . S
C2251 C2250 1.404 . S
C2251 C2252 1.391 . S
C2252 H2246 0.930 . S
C2252 C2248 1.429 . S
C2252 C2251 1.391 . S
H2253 C2256 0.931 . S
H2254 C2259 0.928 . S
H2255 C2261 0.930 . S
C2256 H2253 0.931 . S
C2256 C2257 1.413 . S
C2256 C2258 1.360 . S
C2257 C2256 1.413 . S
C2257 C2261 1.429 . S
C2258 C2256 1.360 . S
C2258 C2259 1.372 . S
C2259 H2254 0.928 . S
C2259 C2258 1.372 . S
C2259 C2260 1.404 . S
C2260 C2259 1.404 . S
C2260 C2261 1.391 . S
C2261 H2255 0.930 . S
C2261 C2257 1.429 . S
C2261 C2260 1.391 . S
H2262 C2265 0.931 . S
H2263 C2268 0.928 . S
H2264 C2270 0.930 . S
C2265 H2262 0.931 . S
C2265 C2266 1.413 . S
C2265 C2267 1.360 . S
C2266 C2265 1.413 . S
C2266 C2270 1.429 . S
C2267 C2265 1.360 . S
C2267 C2268 1.372 . S
C2268 H2263 0.928 . S
C2268 C2267 1.372 . S
C2268 C2269 1.404 . S
C2269 C2268 1.404 . S
C2269 C2270 1.391 . S
C2270 H2264 0.930 . S
C2270 C2266 1.429 . S
C2270 C2269 1.391 . S
H2271 C2274 0.931 . S
H2272 C2277 0.928 . S
H2273 C2279 0.930 . S
C2274 H2271 0.931 . S
C2274 C2275 1.413 . S
C2274 C2276 1.360 . S
C2275 C2274 1.413 . S
C2275 C2279 1.429 . S
C2276 C2274 1.360 . S
C2276 C2277 1.372 . S
C2277 H2272 0.928 . S
C2277 C2276 1.372 . S
C2277 C2278 1.404 . S
C2278 C2277 1.404 . S
C2278 C2279 1.391 . S
C2279 H2273 0.930 . S
C2279 C2275 1.429 . S
C2279 C2278 1.391 . S
H2280 C2283 0.931 . S
H2281 C2286 0.928 . S
H2282 C2288 0.930 . S
C2283 H2280 0.931 . S
C2283 C2284 1.413 . S
C2283 C2285 1.360 . S
C2284 C2283 1.413 . S
C2284 C2288 1.429 . S
C2285 C2283 1.360 . S
C2285 C2286 1.372 . S
C2286 H2281 0.928 . S
C2286 C2285 1.372 . S
C2286 C2287 1.404 . S
C2287 C2286 1.404 . S
C2287 C2288 1.391 . S
C2288 H2282 0.930 . S
C2288 C2284 1.429 . S
C2288 C2287 1.391 . S
H2289 C2292 0.931 . S
H2290 C2295 0.928 . S
H2291 C2297 0.930 . S
C2292 H2289 0.931 . S
C2292 C2293 1.413 . S
C2292 C2294 1.360 . S
C2293 C2292 1.413 . S
C2293 C2297 1.429 . S
C2294 C2292 1.360 . S
C2294 C2295 1.372 . S
C2295 H2290 0.928 . S
C2295 C2294 1.372 . S
C2295 C2296 1.404 . S
C2296 C2295 1.404 . S
C2296 C2297 1.391 . S
C2297 H2291 0.930 . S
C2297 C2293 1.429 . S
C2297 C2296 1.391 . S
H2298 C2301 0.931 . S
H2299 C2304 0.928 . S
H2300 C2306 0.930 . S
C2301 H2298 0.931 . S
C2301 C2302 1.413 . S
C2301 C2303 1.360 . S
C2302 C2301 1.413 . S
C2302 C2306 1.429 . S
C2303 C2301 1.360 . S
C2303 C2304 1.372 . S
C2304 H2299 0.928 . S
C2304 C2303 1.372 . S
C2304 C2305 1.404 . S
C2305 C2304 1.404 . S
C2305 C2306 1.391 . S
C2306 H2300 0.930 . S
C2306 C2302 1.429 . S
C2306 C2305 1.391 . S
H2307 C2310 0.931 . S
H2308 C2313 0.928 . S
H2309 C2315 0.930 . S
C2310 H2307 0.931 . S
C2310 C2311 1.413 . S
C2310 C2312 1.360 . S
C2311 C2310 1.413 . S
C2311 C2315 1.429 . S
C2312 C2310 1.360 . S
C2312 C2313 1.372 . S
C2313 H2308 0.928 . S
C2313 C2312 1.372 . S
C2313 C2314 1.404 . S
C2314 C2313 1.404 . S
C2314 C2315 1.391 . S
C2315 H2309 0.930 . S
C2315 C2311 1.429 . S
C2315 C2314 1.391 . S
H2316 C2319 0.931 . S
H2317 C2322 0.928 . S
H2318 C2324 0.930 . S
C2319 H2316 0.931 . S
C2319 C2320 1.413 . S
C2319 C2321 1.360 . S
C2320 C2319 1.413 . S
C2320 C2324 1.429 . S
C2321 C2319 1.360 . S
C2321 C2322 1.372 . S
C2322 H2317 0.928 . S
C2322 C2321 1.372 . S
C2322 C2323 1.404 . S
C2323 C2322 1.404 . S
C2323 C2324 1.391 . S
C2324 H2318 0.930 . S
C2324 C2320 1.429 . S
C2324 C2323 1.391 . S
H2325 C2328 0.931 . S
H2326 C2331 0.928 . S
H2327 C2333 0.930 . S
C2328 H2325 0.931 . S
C2328 C2329 1.413 . S
C2328 C2330 1.360 . S
C2329 C2328 1.413 . S
C2329 C2333 1.429 . S
C2330 C2328 1.360 . S
C2330 C2331 1.372 . S
C2331 H2326 0.928 . S
C2331 C2330 1.372 . S
C2331 C2332 1.404 . S
C2332 C2331 1.404 . S
C2332 C2333 1.391 . S
C2333 H2327 0.930 . S
C2333 C2329 1.429 . S
C2333 C2332 1.391 . S
H2334 C2337 0.931 . S
H2335 C2340 0.928 . S
H2336 C2342 0.930 . S
C2337 H2334 0.931 . S
C2337 C2338 1.413 . S
C2337 C2339 1.360 . S
C2338 C2337 1.413 . S
C2338 C2342 1.429 . S
C2339 C2337 1.360 . S
C2339 C2340 1.372 . S
C2340 H2335 0.928 . S
C2340 C2339 1.372 . S
C2340 C2341 1.404 . S
C2341 C2340 1.404 . S
C2341 C2342 1.391 . S
C2342 H2336 0.930 . S
C2342 C2338 1.429 . S
C2342 C2341 1.391 . S
H2343 C2346 0.931 . S
H2344 C2349 0.928 . S
H2345 C2351 0.930 . S
C2346 H2343 0.931 . S
C2346 C2347 1.413 . S
C2346 C2348 1.360 . S
C2347 C2346 1.413 . S
C2347 C2351 1.429 . S
C2348 C2346 1.360 . S
C2348 C2349 1.372 . S
C2349 H2344 0.928 . S
C2349 C2348 1.372 . S
C2349 C2350 1.404 . S
C2350 C2349 1.404 . S
C2350 C2351 1.391 . S
C2351 H2345 0.930 . S
C2351 C2347 1.429 . S
C2351 C2350 1.391 . S
C2352 C2353 1.363 . S
C2352 C2358 1.379 . S
C2352 N2360 1.356 . S
C2353 C2352 1.363 . S
C2353 C2359 1.363 . S
C2354 C2355 1.363 . S
C2354 C2359 1.379 . S
C2354 N2361 1.356 . S
C2355 C2354 1.363 . S
C2355 C2358 1.363 . S
N2356 C2358 1.356 . S
N2356 H2368 0.984 . S
N2356 H2369 0.985 . S
N2357 C2359 1.356 . S
N2357 H2362 0.984 . S
N2357 H2363 0.985 . S
C2358 C2352 1.379 . S
C2358 C2355 1.363 . S
C2358 N2356 1.356 . S
C2359 C2353 1.363 . S
C2359 C2354 1.379 . S
C2359 N2357 1.356 . S
N2360 C2352 1.356 . S
N2360 H2366 0.984 . S
N2360 H2367 0.984 . S
N2361 C2354 1.356 . S
N2361 H2364 0.984 . S
N2361 H2365 0.985 . S
H2362 N2357 0.984 . S
H2363 N2357 0.985 . S
H2364 N2361 0.984 . S
H2365 N2361 0.985 . S
H2366 N2360 0.984 . S
H2367 N2360 0.984 . S
H2368 N2356 0.984 . S
H2369 N2356 0.985 . S
C2370 C2371 1.363 . S
C2370 C2376 1.379 . S
C2370 N2378 1.356 . S
C2371 C2370 1.363 . S
C2371 C2377 1.363 . S
C2372 C2373 1.363 . S
C2372 C2377 1.379 . S
C2372 N2379 1.356 . S
C2373 C2372 1.363 . S
C2373 C2376 1.363 . S
N2374 C2376 1.356 . S
N2374 H2386 0.984 . S
N2374 H2387 0.985 . S
N2375 C2377 1.356 . S
N2375 H2380 0.984 . S
N2375 H2381 0.985 . S
C2376 C2370 1.379 . S
C2376 C2373 1.363 . S
C2376 N2374 1.356 . S
C2377 C2371 1.363 . S
C2377 C2372 1.379 . S
C2377 N2375 1.356 . S
N2378 C2370 1.356 . S
N2378 H2384 0.984 . S
N2378 H2385 0.984 . S
N2379 C2372 1.356 . S
N2379 H2382 0.984 . S
N2379 H2383 0.985 . S
H2380 N2375 0.984 . S
H2381 N2375 0.985 . S
H2382 N2379 0.984 . S
H2383 N2379 0.985 . S
H2384 N2378 0.984 . S
H2385 N2378 0.984 . S
H2386 N2374 0.984 . S
H2387 N2374 0.985 . S
C2388 C2389 1.363 . S
C2388 C2394 1.379 . S
C2388 N2396 1.356 . S
C2389 C2388 1.363 . S
C2389 C2395 1.363 . S
C2390 C2391 1.363 . S
C2390 C2395 1.379 . S
C2390 N2397 1.356 . S
C2391 C2390 1.363 . S
C2391 C2394 1.363 . S
N2392 C2394 1.356 . S
N2392 H2404 0.984 . S
N2392 H2405 0.985 . S
N2393 C2395 1.356 . S
N2393 H2398 0.984 . S
N2393 H2399 0.985 . S
C2394 C2388 1.379 . S
C2394 C2391 1.363 . S
C2394 N2392 1.356 . S
C2395 C2389 1.363 . S
C2395 C2390 1.379 . S
C2395 N2393 1.356 . S
N2396 C2388 1.356 . S
N2396 H2402 0.984 . S
N2396 H2403 0.984 . S
N2397 C2390 1.356 . S
N2397 H2400 0.984 . S
N2397 H2401 0.985 . S
H2398 N2393 0.984 . S
H2399 N2393 0.985 . S
H2400 N2397 0.984 . S
H2401 N2397 0.985 . S
H2402 N2396 0.984 . S
H2403 N2396 0.984 . S
H2404 N2392 0.984 . S
H2405 N2392 0.985 . S
C2406 C2407 1.363 . S
C2406 C2412 1.379 . S
C2406 N2414 1.356 . S
C2407 C2406 1.363 . S
C2407 C2413 1.363 . S
C2408 C2409 1.363 . S
C2408 C2413 1.379 . S
C2408 N2415 1.356 . S
C2409 C2408 1.363 . S
C2409 C2412 1.363 . S
N2410 C2412 1.356 . S
N2410 H2422 0.984 . S
N2410 H2423 0.985 . S
N2411 C2413 1.356 . S
N2411 H2416 0.984 . S
N2411 H2417 0.985 . S
C2412 C2406 1.379 . S
C2412 C2409 1.363 . S
C2412 N2410 1.356 . S
C2413 C2407 1.363 . S
C2413 C2408 1.379 . S
C2413 N2411 1.356 . S
N2414 C2406 1.356 . S
N2414 H2420 0.984 . S
N2414 H2421 0.984 . S
N2415 C2408 1.356 . S
N2415 H2418 0.984 . S
N2415 H2419 0.985 . S
H2416 N2411 0.984 . S
H2417 N2411 0.985 . S
H2418 N2415 0.984 . S
H2419 N2415 0.985 . S
H2420 N2414 0.984 . S
H2421 N2414 0.984 . S
H2422 N2410 0.984 . S
H2423 N2410 0.985 . S
C2424 C2425 1.363 . S
C2424 C2430 1.379 . S
C2424 N2432 1.356 . S
C2425 C2424 1.363 . S
C2425 C2431 1.363 . S
C2426 C2427 1.363 . S
C2426 C2431 1.379 . S
C2426 N2433 1.356 . S
C2427 C2426 1.363 . S
C2427 C2430 1.363 . S
N2428 C2430 1.356 . S
N2428 H2440 0.984 . S
N2428 H2441 0.985 . S
N2429 C2431 1.356 . S
N2429 H2434 0.984 . S
N2429 H2435 0.985 . S
C2430 C2424 1.379 . S
C2430 C2427 1.363 . S
C2430 N2428 1.356 . S
C2431 C2425 1.363 . S
C2431 C2426 1.379 . S
C2431 N2429 1.356 . S
N2432 C2424 1.356 . S
N2432 H2438 0.984 . S
N2432 H2439 0.984 . S
N2433 C2426 1.356 . S
N2433 H2436 0.984 . S
N2433 H2437 0.985 . S
H2434 N2429 0.984 . S
H2435 N2429 0.985 . S
H2436 N2433 0.984 . S
H2437 N2433 0.985 . S
H2438 N2432 0.984 . S
H2439 N2432 0.984 . S
H2440 N2428 0.984 . S
H2441 N2428 0.985 . S
C2442 C2443 1.363 . S
C2442 C2448 1.379 . S
C2442 N2450 1.356 . S
C2443 C2442 1.363 . S
C2443 C2449 1.363 . S
C2444 C2445 1.363 . S
C2444 C2449 1.379 . S
C2444 N2451 1.356 . S
C2445 C2444 1.363 . S
C2445 C2448 1.363 . S
N2446 C2448 1.356 . S
N2446 H2458 0.984 . S
N2446 H2459 0.985 . S
N2447 C2449 1.356 . S
N2447 H2452 0.984 . S
N2447 H2453 0.985 . S
C2448 C2442 1.379 . S
C2448 C2445 1.363 . S
C2448 N2446 1.356 . S
C2449 C2443 1.363 . S
C2449 C2444 1.379 . S
C2449 N2447 1.356 . S
N2450 C2442 1.356 . S
N2450 H2456 0.984 . S
N2450 H2457 0.984 . S
N2451 C2444 1.356 . S
N2451 H2454 0.984 . S
N2451 H2455 0.985 . S
H2452 N2447 0.984 . S
H2453 N2447 0.985 . S
H2454 N2451 0.984 . S
H2455 N2451 0.985 . S
H2456 N2450 0.984 . S
H2457 N2450 0.984 . S
H2458 N2446 0.984 . S
H2459 N2446 0.985 . S
C2460 C2461 1.363 . S
C2460 C2466 1.379 . S
C2460 N2468 1.356 . S
C2461 C2460 1.363 . S
C2461 C2467 1.363 . S
C2462 C2463 1.363 . S
C2462 C2467 1.379 . S
C2462 N2469 1.356 . S
C2463 C2462 1.363 . S
C2463 C2466 1.363 . S
N2464 C2466 1.356 . S
N2464 H2476 0.984 . S
N2464 H2477 0.985 . S
N2465 C2467 1.356 . S
N2465 H2470 0.984 . S
N2465 H2471 0.985 . S
C2466 C2460 1.379 . S
C2466 C2463 1.363 . S
C2466 N2464 1.356 . S
C2467 C2461 1.363 . S
C2467 C2462 1.379 . S
C2467 N2465 1.356 . S
N2468 C2460 1.356 . S
N2468 H2474 0.984 . S
N2468 H2475 0.984 . S
N2469 C2462 1.356 . S
N2469 H2472 0.984 . S
N2469 H2473 0.985 . S
H2470 N2465 0.984 . S
H2471 N2465 0.985 . S
H2472 N2469 0.984 . S
H2473 N2469 0.985 . S
H2474 N2468 0.984 . S
H2475 N2468 0.984 . S
H2476 N2464 0.984 . S
H2477 N2464 0.985 . S
C2478 C2479 1.363 . S
C2478 C2484 1.379 . S
C2478 N2486 1.356 . S
C2479 C2478 1.363 . S
C2479 C2485 1.363 . S
C2480 C2481 1.363 . S
C2480 C2485 1.379 . S
C2480 N2487 1.356 . S
C2481 C2480 1.363 . S
C2481 C2484 1.363 . S
N2482 C2484 1.356 . S
N2482 H2494 0.984 . S
N2482 H2495 0.985 . S
N2483 C2485 1.356 . S
N2483 H2488 0.984 . S
N2483 H2489 0.985 . S
C2484 C2478 1.379 . S
C2484 C2481 1.363 . S
C2484 N2482 1.356 . S
C2485 C2479 1.363 . S
C2485 C2480 1.379 . S
C2485 N2483 1.356 . S
N2486 C2478 1.356 . S
N2486 H2492 0.984 . S
N2486 H2493 0.984 . S
N2487 C2480 1.356 . S
N2487 H2490 0.984 . S
N2487 H2491 0.985 . S
H2488 N2483 0.984 . S
H2489 N2483 0.985 . S
H2490 N2487 0.984 . S
H2491 N2487 0.985 . S
H2492 N2486 0.984 . S
H2493 N2486 0.984 . S
H2494 N2482 0.984 . S
H2495 N2482 0.985 . S
C2496 C2497 1.363 . S
C2496 C2502 1.379 . S
C2496 N2504 1.356 . S
C2497 C2496 1.363 . S
C2497 C2503 1.363 . S
C2498 C2499 1.363 . S
C2498 C2503 1.379 . S
C2498 N2505 1.356 . S
C2499 C2498 1.363 . S
C2499 C2502 1.363 . S
N2500 C2502 1.356 . S
N2500 H2512 0.984 . S
N2500 H2513 0.985 . S
N2501 C2503 1.356 . S
N2501 H2506 0.984 . S
N2501 H2507 0.985 . S
C2502 C2496 1.379 . S
C2502 C2499 1.363 . S
C2502 N2500 1.356 . S
C2503 C2497 1.363 . S
C2503 C2498 1.379 . S
C2503 N2501 1.356 . S
N2504 C2496 1.356 . S
N2504 H2510 0.984 . S
N2504 H2511 0.984 . S
N2505 C2498 1.356 . S
N2505 H2508 0.984 . S
N2505 H2509 0.985 . S
H2506 N2501 0.984 . S
H2507 N2501 0.985 . S
H2508 N2505 0.984 . S
H2509 N2505 0.985 . S
H2510 N2504 0.984 . S
H2511 N2504 0.984 . S
H2512 N2500 0.984 . S
H2513 N2500 0.985 . S
C2514 C2515 1.363 . S
C2514 C2520 1.379 . S
C2514 N2522 1.356 . S
C2515 C2514 1.363 . S
C2515 C2521 1.363 . S
C2516 C2517 1.363 . S
C2516 C2521 1.379 . S
C2516 N2523 1.356 . S
C2517 C2516 1.363 . S
C2517 C2520 1.363 . S
N2518 C2520 1.356 . S
N2518 H2530 0.984 . S
N2518 H2531 0.985 . S
N2519 C2521 1.356 . S
N2519 H2524 0.984 . S
N2519 H2525 0.985 . S
C2520 C2514 1.379 . S
C2520 C2517 1.363 . S
C2520 N2518 1.356 . S
C2521 C2515 1.363 . S
C2521 C2516 1.379 . S
C2521 N2519 1.356 . S
N2522 C2514 1.356 . S
N2522 H2528 0.984 . S
N2522 H2529 0.984 . S
N2523 C2516 1.356 . S
N2523 H2526 0.984 . S
N2523 H2527 0.985 . S
H2524 N2519 0.984 . S
H2525 N2519 0.985 . S
H2526 N2523 0.984 . S
H2527 N2523 0.985 . S
H2528 N2522 0.984 . S
H2529 N2522 0.984 . S
H2530 N2518 0.984 . S
H2531 N2518 0.985 . S
C2532 C2533 1.363 . S
C2532 C2538 1.379 . S
C2532 N2540 1.356 . S
C2533 C2532 1.363 . S
C2533 C2539 1.363 . S
C2534 C2535 1.363 . S
C2534 C2539 1.379 . S
C2534 N2541 1.356 . S
C2535 C2534 1.363 . S
C2535 C2538 1.363 . S
N2536 C2538 1.356 . S
N2536 H2548 0.984 . S
N2536 H2549 0.985 . S
N2537 C2539 1.356 . S
N2537 H2542 0.984 . S
N2537 H2543 0.985 . S
C2538 C2532 1.379 . S
C2538 C2535 1.363 . S
C2538 N2536 1.356 . S
C2539 C2533 1.363 . S
C2539 C2534 1.379 . S
C2539 N2537 1.356 . S
N2540 C2532 1.356 . S
N2540 H2546 0.984 . S
N2540 H2547 0.984 . S
N2541 C2534 1.356 . S
N2541 H2544 0.984 . S
N2541 H2545 0.985 . S
H2542 N2537 0.984 . S
H2543 N2537 0.985 . S
H2544 N2541 0.984 . S
H2545 N2541 0.985 . S
H2546 N2540 0.984 . S
H2547 N2540 0.984 . S
H2548 N2536 0.984 . S
H2549 N2536 0.985 . S
C2550 C2551 1.363 . S
C2550 C2556 1.379 . S
C2550 N2558 1.356 . S
C2551 C2550 1.363 . S
C2551 C2557 1.363 . S
C2552 C2553 1.363 . S
C2552 C2557 1.379 . S
C2552 N2559 1.356 . S
C2553 C2552 1.363 . S
C2553 C2556 1.363 . S
N2554 C2556 1.356 . S
N2554 H2566 0.984 . S
N2554 H2567 0.985 . S
N2555 C2557 1.356 . S
N2555 H2560 0.984 . S
N2555 H2561 0.985 . S
C2556 C2550 1.379 . S
C2556 C2553 1.363 . S
C2556 N2554 1.356 . S
C2557 C2551 1.363 . S
C2557 C2552 1.379 . S
C2557 N2555 1.356 . S
N2558 C2550 1.356 . S
N2558 H2564 0.984 . S
N2558 H2565 0.984 . S
N2559 C2552 1.356 . S
N2559 H2562 0.984 . S
N2559 H2563 0.985 . S
H2560 N2555 0.984 . S
H2561 N2555 0.985 . S
H2562 N2559 0.984 . S
H2563 N2559 0.985 . S
H2564 N2558 0.984 . S
H2565 N2558 0.984 . S
H2566 N2554 0.984 . S
H2567 N2554 0.985 . S
C2568 C2569 1.363 . S
C2568 C2574 1.379 . S
C2568 N2576 1.356 . S
C2569 C2568 1.363 . S
C2569 C2575 1.363 . S
C2570 C2571 1.363 . S
C2570 C2575 1.379 . S
C2570 N2577 1.356 . S
C2571 C2570 1.363 . S
C2571 C2574 1.363 . S
N2572 C2574 1.356 . S
N2572 H2584 0.984 . S
N2572 H2585 0.985 . S
N2573 C2575 1.356 . S
N2573 H2578 0.984 . S
N2573 H2579 0.985 . S
C2574 C2568 1.379 . S
C2574 C2571 1.363 . S
C2574 N2572 1.356 . S
C2575 C2569 1.363 . S
C2575 C2570 1.379 . S
C2575 N2573 1.356 . S
N2576 C2568 1.356 . S
N2576 H2582 0.984 . S
N2576 H2583 0.984 . S
N2577 C2570 1.356 . S
N2577 H2580 0.984 . S
N2577 H2581 0.985 . S
H2578 N2573 0.984 . S
H2579 N2573 0.985 . S
H2580 N2577 0.984 . S
H2581 N2577 0.985 . S
H2582 N2576 0.984 . S
H2583 N2576 0.984 . S
H2584 N2572 0.984 . S
H2585 N2572 0.985 . S
C2586 C2587 1.363 . S
C2586 C2592 1.379 . S
C2586 N2594 1.356 . S
C2587 C2586 1.363 . S
C2587 C2593 1.363 . S
C2588 C2589 1.363 . S
C2588 C2593 1.379 . S
C2588 N2595 1.356 . S
C2589 C2588 1.363 . S
C2589 C2592 1.363 . S
N2590 C2592 1.356 . S
N2590 H2602 0.984 . S
N2590 H2603 0.985 . S
N2591 C2593 1.356 . S
N2591 H2596 0.984 . S
N2591 H2597 0.985 . S
C2592 C2586 1.379 . S
C2592 C2589 1.363 . S
C2592 N2590 1.356 . S
C2593 C2587 1.363 . S
C2593 C2588 1.379 . S
C2593 N2591 1.356 . S
N2594 C2586 1.356 . S
N2594 H2600 0.984 . S
N2594 H2601 0.984 . S
N2595 C2588 1.356 . S
N2595 H2598 0.984 . S
N2595 H2599 0.985 . S
H2596 N2591 0.984 . S
H2597 N2591 0.985 . S
H2598 N2595 0.984 . S
H2599 N2595 0.985 . S
H2600 N2594 0.984 . S
H2601 N2594 0.984 . S
H2602 N2590 0.984 . S
H2603 N2590 0.985 . S
C2604 C2605 1.363 . S
C2604 C2610 1.379 . S
C2604 N2612 1.356 . S
C2605 C2604 1.363 . S
C2605 C2611 1.363 . S
C2606 C2607 1.363 . S
C2606 C2611 1.379 . S
C2606 N2613 1.356 . S
C2607 C2606 1.363 . S
C2607 C2610 1.363 . S
N2608 C2610 1.356 . S
N2608 H2620 0.984 . S
N2608 H2621 0.985 . S
N2609 C2611 1.356 . S
N2609 H2614 0.984 . S
N2609 H2615 0.985 . S
C2610 C2604 1.379 . S
C2610 C2607 1.363 . S
C2610 N2608 1.356 . S
C2611 C2605 1.363 . S
C2611 C2606 1.379 . S
C2611 N2609 1.356 . S
N2612 C2604 1.356 . S
N2612 H2618 0.984 . S
N2612 H2619 0.984 . S
N2613 C2606 1.356 . S
N2613 H2616 0.984 . S
N2613 H2617 0.985 . S
H2614 N2609 0.984 . S
H2615 N2609 0.985 . S
H2616 N2613 0.984 . S
H2617 N2613 0.985 . S
H2618 N2612 0.984 . S
H2619 N2612 0.984 . S
H2620 N2608 0.984 . S
H2621 N2608 0.985 . S
C2622 C2623 1.363 . S
C2622 C2628 1.379 . S
C2622 N2630 1.356 . S
C2623 C2622 1.363 . S
C2623 C2629 1.363 . S
C2624 C2625 1.363 . S
C2624 C2629 1.379 . S
C2624 N2631 1.356 . S
C2625 C2624 1.363 . S
C2625 C2628 1.363 . S
N2626 C2628 1.356 . S
N2626 H2638 0.984 . S
N2626 H2639 0.985 . S
N2627 C2629 1.356 . S
N2627 H2632 0.984 . S
N2627 H2633 0.985 . S
C2628 C2622 1.379 . S
C2628 C2625 1.363 . S
C2628 N2626 1.356 . S
C2629 C2623 1.363 . S
C2629 C2624 1.379 . S
C2629 N2627 1.356 . S
N2630 C2622 1.356 . S
N2630 H2636 0.984 . S
N2630 H2637 0.984 . S
N2631 C2624 1.356 . S
N2631 H2634 0.984 . S
N2631 H2635 0.985 . S
H2632 N2627 0.984 . S
H2633 N2627 0.985 . S
H2634 N2631 0.984 . S
H2635 N2631 0.985 . S
H2636 N2630 0.984 . S
H2637 N2630 0.984 . S
H2638 N2626 0.984 . S
H2639 N2626 0.985 . S
C2640 C2641 1.363 . S
C2640 C2646 1.379 . S
C2640 N2648 1.356 . S
C2641 C2640 1.363 . S
C2641 C2647 1.363 . S
C2642 C2643 1.363 . S
C2642 C2647 1.379 . S
C2642 N2649 1.356 . S
C2643 C2642 1.363 . S
C2643 C2646 1.363 . S
N2644 C2646 1.356 . S
N2644 H2656 0.984 . S
N2644 H2657 0.985 . S
N2645 C2647 1.356 . S
N2645 H2650 0.984 . S
N2645 H2651 0.985 . S
C2646 C2640 1.379 . S
C2646 C2643 1.363 . S
C2646 N2644 1.356 . S
C2647 C2641 1.363 . S
C2647 C2642 1.379 . S
C2647 N2645 1.356 . S
N2648 C2640 1.356 . S
N2648 H2654 0.984 . S
N2648 H2655 0.984 . S
N2649 C2642 1.356 . S
N2649 H2652 0.984 . S
N2649 H2653 0.985 . S
H2650 N2645 0.984 . S
H2651 N2645 0.985 . S
H2652 N2649 0.984 . S
H2653 N2649 0.985 . S
H2654 N2648 0.984 . S
H2655 N2648 0.984 . S
H2656 N2644 0.984 . S
H2657 N2644 0.985 . S
C2658 C2659 1.363 . S
C2658 C2664 1.379 . S
C2658 N2666 1.356 . S
C2659 C2658 1.363 . S
C2659 C2665 1.363 . S
C2660 C2661 1.363 . S
C2660 C2665 1.379 . S
C2660 N2667 1.356 . S
C2661 C2660 1.363 . S
C2661 C2664 1.363 . S
N2662 C2664 1.356 . S
N2662 H2674 0.984 . S
N2662 H2675 0.985 . S
N2663 C2665 1.356 . S
N2663 H2668 0.984 . S
N2663 H2669 0.985 . S
C2664 C2658 1.379 . S
C2664 C2661 1.363 . S
C2664 N2662 1.356 . S
C2665 C2659 1.363 . S
C2665 C2660 1.379 . S
C2665 N2663 1.356 . S
N2666 C2658 1.356 . S
N2666 H2672 0.984 . S
N2666 H2673 0.984 . S
N2667 C2660 1.356 . S
N2667 H2670 0.984 . S
N2667 H2671 0.985 . S
H2668 N2663 0.984 . S
H2669 N2663 0.985 . S
H2670 N2667 0.984 . S
H2671 N2667 0.985 . S
H2672 N2666 0.984 . S
H2673 N2666 0.984 . S
H2674 N2662 0.984 . S
H2675 N2662 0.985 . S
C2676 C2677 1.363 . S
C2676 C2682 1.379 . S
C2676 N2684 1.356 . S
C2677 C2676 1.363 . S
C2677 C2683 1.363 . S
C2678 C2679 1.363 . S
C2678 C2683 1.379 . S
C2678 N2685 1.356 . S
C2679 C2678 1.363 . S
C2679 C2682 1.363 . S
N2680 C2682 1.356 . S
N2680 H2692 0.984 . S
N2680 H2693 0.985 . S
N2681 C2683 1.356 . S
N2681 H2686 0.984 . S
N2681 H2687 0.985 . S
C2682 C2676 1.379 . S
C2682 C2679 1.363 . S
C2682 N2680 1.356 . S
C2683 C2677 1.363 . S
C2683 C2678 1.379 . S
C2683 N2681 1.356 . S
N2684 C2676 1.356 . S
N2684 H2690 0.984 . S
N2684 H2691 0.984 . S
N2685 C2678 1.356 . S
N2685 H2688 0.984 . S
N2685 H2689 0.985 . S
H2686 N2681 0.984 . S
H2687 N2681 0.985 . S
H2688 N2685 0.984 . S
H2689 N2685 0.985 . S
H2690 N2684 0.984 . S
H2691 N2684 0.984 . S
H2692 N2680 0.984 . S
H2693 N2680 0.985 . S
C2694 C2695 1.363 . S
C2694 C2700 1.379 . S
C2694 N2702 1.356 . S
C2695 C2694 1.363 . S
C2695 C2701 1.363 . S
C2696 C2697 1.363 . S
C2696 C2701 1.379 . S
C2696 N2703 1.356 . S
C2697 C2696 1.363 . S
C2697 C2700 1.363 . S
N2698 C2700 1.356 . S
N2698 H2710 0.984 . S
N2698 H2711 0.985 . S
N2699 C2701 1.356 . S
N2699 H2704 0.984 . S
N2699 H2705 0.985 . S
C2700 C2694 1.379 . S
C2700 C2697 1.363 . S
C2700 N2698 1.356 . S
C2701 C2695 1.363 . S
C2701 C2696 1.379 . S
C2701 N2699 1.356 . S
N2702 C2694 1.356 . S
N2702 H2708 0.984 . S
N2702 H2709 0.984 . S
N2703 C2696 1.356 . S
N2703 H2706 0.984 . S
N2703 H2707 0.985 . S
H2704 N2699 0.984 . S
H2705 N2699 0.985 . S
H2706 N2703 0.984 . S
H2707 N2703 0.985 . S
H2708 N2702 0.984 . S
H2709 N2702 0.984 . S
H2710 N2698 0.984 . S
H2711 N2698 0.985 . S
C2712 C2713 1.363 . S
C2712 C2718 1.379 . S
C2712 N2720 1.356 . S
C2713 C2712 1.363 . S
C2713 C2719 1.363 . S
C2714 C2715 1.363 . S
C2714 C2719 1.379 . S
C2714 N2721 1.356 . S
C2715 C2714 1.363 . S
C2715 C2718 1.363 . S
N2716 C2718 1.356 . S
N2716 H2728 0.984 . S
N2716 H2729 0.985 . S
N2717 C2719 1.356 . S
N2717 H2722 0.984 . S
N2717 H2723 0.985 . S
C2718 C2712 1.379 . S
C2718 C2715 1.363 . S
C2718 N2716 1.356 . S
C2719 C2713 1.363 . S
C2719 C2714 1.379 . S
C2719 N2717 1.356 . S
N2720 C2712 1.356 . S
N2720 H2726 0.984 . S
N2720 H2727 0.984 . S
N2721 C2714 1.356 . S
N2721 H2724 0.984 . S
N2721 H2725 0.985 . S
H2722 N2717 0.984 . S
H2723 N2717 0.985 . S
H2724 N2721 0.984 . S
H2725 N2721 0.985 . S
H2726 N2720 0.984 . S
H2727 N2720 0.984 . S
H2728 N2716 0.984 . S
H2729 N2716 0.985 . S
C2730 C2731 1.363 . S
C2730 C2736 1.379 . S
C2730 N2738 1.356 . S
C2731 C2730 1.363 . S
C2731 C2737 1.363 . S
C2732 C2733 1.363 . S
C2732 C2737 1.379 . S
C2732 N2739 1.356 . S
C2733 C2732 1.363 . S
C2733 C2736 1.363 . S
N2734 C2736 1.356 . S
N2734 H2746 0.984 . S
N2734 H2747 0.985 . S
N2735 C2737 1.356 . S
N2735 H2740 0.984 . S
N2735 H2741 0.985 . S
C2736 C2730 1.379 . S
C2736 C2733 1.363 . S
C2736 N2734 1.356 . S
C2737 C2731 1.363 . S
C2737 C2732 1.379 . S
C2737 N2735 1.356 . S
N2738 C2730 1.356 . S
N2738 H2744 0.984 . S
N2738 H2745 0.984 . S
N2739 C2732 1.356 . S
N2739 H2742 0.984 . S
N2739 H2743 0.985 . S
H2740 N2735 0.984 . S
H2741 N2735 0.985 . S
H2742 N2739 0.984 . S
H2743 N2739 0.985 . S
H2744 N2738 0.984 . S
H2745 N2738 0.984 . S
H2746 N2734 0.984 . S
H2747 N2734 0.985 . S
C2748 C2749 1.363 . S
C2748 C2754 1.379 . S
C2748 N2756 1.356 . S
C2749 C2748 1.363 . S
C2749 C2755 1.363 . S
C2750 C2751 1.363 . S
C2750 C2755 1.379 . S
C2750 N2757 1.356 . S
C2751 C2750 1.363 . S
C2751 C2754 1.363 . S
N2752 C2754 1.356 . S
N2752 H2764 0.984 . S
N2752 H2765 0.985 . S
N2753 C2755 1.356 . S
N2753 H2758 0.984 . S
N2753 H2759 0.985 . S
C2754 C2748 1.379 . S
C2754 C2751 1.363 . S
C2754 N2752 1.356 . S
C2755 C2749 1.363 . S
C2755 C2750 1.379 . S
C2755 N2753 1.356 . S
N2756 C2748 1.356 . S
N2756 H2762 0.984 . S
N2756 H2763 0.984 . S
N2757 C2750 1.356 . S
N2757 H2760 0.984 . S
N2757 H2761 0.985 . S
H2758 N2753 0.984 . S
H2759 N2753 0.985 . S
H2760 N2757 0.984 . S
H2761 N2757 0.985 . S
H2762 N2756 0.984 . S
H2763 N2756 0.984 . S
H2764 N2752 0.984 . S
H2765 N2752 0.985 . S
C2766 C2767 1.363 . S
C2766 C2772 1.379 . S
C2766 N2774 1.356 . S
C2767 C2766 1.363 . S
C2767 C2773 1.363 . S
C2768 C2769 1.363 . S
C2768 C2773 1.379 . S
C2768 N2775 1.356 . S
C2769 C2768 1.363 . S
C2769 C2772 1.363 . S
N2770 C2772 1.356 . S
N2770 H2782 0.984 . S
N2770 H2783 0.985 . S
N2771 C2773 1.356 . S
N2771 H2776 0.984 . S
N2771 H2777 0.985 . S
C2772 C2766 1.379 . S
C2772 C2769 1.363 . S
C2772 N2770 1.356 . S
C2773 C2767 1.363 . S
C2773 C2768 1.379 . S
C2773 N2771 1.356 . S
N2774 C2766 1.356 . S
N2774 H2780 0.984 . S
N2774 H2781 0.984 . S
N2775 C2768 1.356 . S
N2775 H2778 0.984 . S
N2775 H2779 0.985 . S
H2776 N2771 0.984 . S
H2777 N2771 0.985 . S
H2778 N2775 0.984 . S
H2779 N2775 0.985 . S
H2780 N2774 0.984 . S
H2781 N2774 0.984 . S
H2782 N2770 0.984 . S
H2783 N2770 0.985 . S
C2784 C2785 1.363 . S
C2784 C2790 1.379 . S
C2784 N2792 1.356 . S
C2785 C2784 1.363 . S
C2785 C2791 1.363 . S
C2786 C2787 1.363 . S
C2786 C2791 1.379 . S
C2786 N2793 1.356 . S
C2787 C2786 1.363 . S
C2787 C2790 1.363 . S
N2788 C2790 1.356 . S
N2788 H2800 0.984 . S
N2788 H2801 0.985 . S
N2789 C2791 1.356 . S
N2789 H2794 0.984 . S
N2789 H2795 0.985 . S
C2790 C2784 1.379 . S
C2790 C2787 1.363 . S
C2790 N2788 1.356 . S
C2791 C2785 1.363 . S
C2791 C2786 1.379 . S
C2791 N2789 1.356 . S
N2792 C2784 1.356 . S
N2792 H2798 0.984 . S
N2792 H2799 0.984 . S
N2793 C2786 1.356 . S
N2793 H2796 0.984 . S
N2793 H2797 0.985 . S
H2794 N2789 0.984 . S
H2795 N2789 0.985 . S
H2796 N2793 0.984 . S
H2797 N2793 0.985 . S
H2798 N2792 0.984 . S
H2799 N2792 0.984 . S
H2800 N2788 0.984 . S
H2801 N2788 0.985 . S
C2802 C2803 1.363 . S
C2802 C2808 1.379 . S
C2802 N2810 1.356 . S
C2803 C2802 1.363 . S
C2803 C2809 1.363 . S
C2804 C2805 1.363 . S
C2804 C2809 1.379 . S
C2804 N2811 1.356 . S
C2805 C2804 1.363 . S
C2805 C2808 1.363 . S
N2806 C2808 1.356 . S
N2806 H2818 0.984 . S
N2806 H2819 0.985 . S
N2807 C2809 1.356 . S
N2807 H2812 0.984 . S
N2807 H2813 0.985 . S
C2808 C2802 1.379 . S
C2808 C2805 1.363 . S
C2808 N2806 1.356 . S
C2809 C2803 1.363 . S
C2809 C2804 1.379 . S
C2809 N2807 1.356 . S
N2810 C2802 1.356 . S
N2810 H2816 0.984 . S
N2810 H2817 0.984 . S
N2811 C2804 1.356 . S
N2811 H2814 0.984 . S
N2811 H2815 0.985 . S
H2812 N2807 0.984 . S
H2813 N2807 0.985 . S
H2814 N2811 0.984 . S
H2815 N2811 0.985 . S
H2816 N2810 0.984 . S
H2817 N2810 0.984 . S
H2818 N2806 0.984 . S
H2819 N2806 0.985 . S
C2820 C2821 1.363 . S
C2820 C2826 1.379 . S
C2820 N2828 1.356 . S
C2821 C2820 1.363 . S
C2821 C2827 1.363 . S
C2822 C2823 1.363 . S
C2822 C2827 1.379 . S
C2822 N2829 1.356 . S
C2823 C2822 1.363 . S
C2823 C2826 1.363 . S
N2824 C2826 1.356 . S
N2824 H2836 0.984 . S
N2824 H2837 0.985 . S
N2825 C2827 1.356 . S
N2825 H2830 0.984 . S
N2825 H2831 0.985 . S
C2826 C2820 1.379 . S
C2826 C2823 1.363 . S
C2826 N2824 1.356 . S
C2827 C2821 1.363 . S
C2827 C2822 1.379 . S
C2827 N2825 1.356 . S
N2828 C2820 1.356 . S
N2828 H2834 0.984 . S
N2828 H2835 0.984 . S
N2829 C2822 1.356 . S
N2829 H2832 0.984 . S
N2829 H2833 0.985 . S
H2830 N2825 0.984 . S
H2831 N2825 0.985 . S
H2832 N2829 0.984 . S
H2833 N2829 0.985 . S
H2834 N2828 0.984 . S
H2835 N2828 0.984 . S
H2836 N2824 0.984 . S
H2837 N2824 0.985 . S
C2838 C2839 1.363 . S
C2838 C2844 1.379 . S
C2838 N2846 1.356 . S
C2839 C2838 1.363 . S
C2839 C2845 1.363 . S
C2840 C2841 1.363 . S
C2840 C2845 1.379 . S
C2840 N2847 1.356 . S
C2841 C2840 1.363 . S
C2841 C2844 1.363 . S
N2842 C2844 1.356 . S
N2842 H2854 0.984 . S
N2842 H2855 0.985 . S
N2843 C2845 1.356 . S
N2843 H2848 0.984 . S
N2843 H2849 0.985 . S
C2844 C2838 1.379 . S
C2844 C2841 1.363 . S
C2844 N2842 1.356 . S
C2845 C2839 1.363 . S
C2845 C2840 1.379 . S
C2845 N2843 1.356 . S
N2846 C2838 1.356 . S
N2846 H2852 0.984 . S
N2846 H2853 0.984 . S
N2847 C2840 1.356 . S
N2847 H2850 0.984 . S
N2847 H2851 0.985 . S
H2848 N2843 0.984 . S
H2849 N2843 0.985 . S
H2850 N2847 0.984 . S
H2851 N2847 0.985 . S
H2852 N2846 0.984 . S
H2853 N2846 0.984 . S
H2854 N2842 0.984 . S
H2855 N2842 0.985 . S
C2856 C2857 1.363 . S
C2856 C2862 1.379 . S
C2856 N2864 1.356 . S
C2857 C2856 1.363 . S
C2857 C2863 1.363 . S
C2858 C2859 1.363 . S
C2858 C2863 1.379 . S
C2858 N2865 1.356 . S
C2859 C2858 1.363 . S
C2859 C2862 1.363 . S
N2860 C2862 1.356 . S
N2860 H2872 0.984 . S
N2860 H2873 0.985 . S
N2861 C2863 1.356 . S
N2861 H2866 0.984 . S
N2861 H2867 0.985 . S
C2862 C2856 1.379 . S
C2862 C2859 1.363 . S
C2862 N2860 1.356 . S
C2863 C2857 1.363 . S
C2863 C2858 1.379 . S
C2863 N2861 1.356 . S
N2864 C2856 1.356 . S
N2864 H2870 0.984 . S
N2864 H2871 0.984 . S
N2865 C2858 1.356 . S
N2865 H2868 0.984 . S
N2865 H2869 0.985 . S
H2866 N2861 0.984 . S
H2867 N2861 0.985 . S
H2868 N2865 0.984 . S
H2869 N2865 0.985 . S
H2870 N2864 0.984 . S
H2871 N2864 0.984 . S
H2872 N2860 0.984 . S
H2873 N2860 0.985 . S
C2874 C2875 1.363 . S
C2874 C2880 1.379 . S
C2874 N2882 1.356 . S
C2875 C2874 1.363 . S
C2875 C2881 1.363 . S
C2876 C2877 1.363 . S
C2876 C2881 1.379 . S
C2876 N2883 1.356 . S
C2877 C2876 1.363 . S
C2877 C2880 1.363 . S
N2878 C2880 1.356 . S
N2878 H2890 0.984 . S
N2878 H2891 0.985 . S
N2879 C2881 1.356 . S
N2879 H2884 0.984 . S
N2879 H2885 0.985 . S
C2880 C2874 1.379 . S
C2880 C2877 1.363 . S
C2880 N2878 1.356 . S
C2881 C2875 1.363 . S
C2881 C2876 1.379 . S
C2881 N2879 1.356 . S
N2882 C2874 1.356 . S
N2882 H2888 0.984 . S
N2882 H2889 0.984 . S
N2883 C2876 1.356 . S
N2883 H2886 0.984 . S
N2883 H2887 0.985 . S
H2884 N2879 0.984 . S
H2885 N2879 0.985 . S
H2886 N2883 0.984 . S
H2887 N2883 0.985 . S
H2888 N2882 0.984 . S
H2889 N2882 0.984 . S
H2890 N2878 0.984 . S
H2891 N2878 0.985 . S
C2892 C2893 1.363 . S
C2892 C2898 1.379 . S
C2892 N2900 1.356 . S
C2893 C2892 1.363 . S
C2893 C2899 1.363 . S
C2894 C2895 1.363 . S
C2894 C2899 1.379 . S
C2894 N2901 1.356 . S
C2895 C2894 1.363 . S
C2895 C2898 1.363 . S
N2896 C2898 1.356 . S
N2896 H2908 0.984 . S
N2896 H2909 0.985 . S
N2897 C2899 1.356 . S
N2897 H2902 0.984 . S
N2897 H2903 0.985 . S
C2898 C2892 1.379 . S
C2898 C2895 1.363 . S
C2898 N2896 1.356 . S
C2899 C2893 1.363 . S
C2899 C2894 1.379 . S
C2899 N2897 1.356 . S
N2900 C2892 1.356 . S
N2900 H2906 0.984 . S
N2900 H2907 0.984 . S
N2901 C2894 1.356 . S
N2901 H2904 0.984 . S
N2901 H2905 0.985 . S
H2902 N2897 0.984 . S
H2903 N2897 0.985 . S
H2904 N2901 0.984 . S
H2905 N2901 0.985 . S
H2906 N2900 0.984 . S
H2907 N2900 0.984 . S
H2908 N2896 0.984 . S
H2909 N2896 0.985 . S
C2910 C2911 1.363 . S
C2910 C2916 1.379 . S
C2910 N2918 1.356 . S
C2911 C2910 1.363 . S
C2911 C2917 1.363 . S
C2912 C2913 1.363 . S
C2912 C2917 1.379 . S
C2912 N2919 1.356 . S
C2913 C2912 1.363 . S
C2913 C2916 1.363 . S
N2914 C2916 1.356 . S
N2914 H2926 0.984 . S
N2914 H2927 0.985 . S
N2915 C2917 1.356 . S
N2915 H2920 0.984 . S
N2915 H2921 0.985 . S
C2916 C2910 1.379 . S
C2916 C2913 1.363 . S
C2916 N2914 1.356 . S
C2917 C2911 1.363 . S
C2917 C2912 1.379 . S
C2917 N2915 1.356 . S
N2918 C2910 1.356 . S
N2918 H2924 0.984 . S
N2918 H2925 0.984 . S
N2919 C2912 1.356 . S
N2919 H2922 0.984 . S
N2919 H2923 0.985 . S
H2920 N2915 0.984 . S
H2921 N2915 0.985 . S
H2922 N2919 0.984 . S
H2923 N2919 0.985 . S
H2924 N2918 0.984 . S
H2925 N2918 0.984 . S
H2926 N2914 0.984 . S
H2927 N2914 0.985 . S
C2928 C2929 1.363 . S
C2928 C2934 1.379 . S
C2928 N2936 1.356 . S
C2929 C2928 1.363 . S
C2929 C2935 1.363 . S
C2930 C2931 1.363 . S
C2930 C2935 1.379 . S
C2930 N2937 1.356 . S
C2931 C2930 1.363 . S
C2931 C2934 1.363 . S
N2932 C2934 1.356 . S
N2932 H2944 0.984 . S
N2932 H2945 0.985 . S
N2933 C2935 1.356 . S
N2933 H2938 0.984 . S
N2933 H2939 0.985 . S
C2934 C2928 1.379 . S
C2934 C2931 1.363 . S
C2934 N2932 1.356 . S
C2935 C2929 1.363 . S
C2935 C2930 1.379 . S
C2935 N2933 1.356 . S
N2936 C2928 1.356 . S
N2936 H2942 0.984 . S
N2936 H2943 0.984 . S
N2937 C2930 1.356 . S
N2937 H2940 0.984 . S
N2937 H2941 0.985 . S
H2938 N2933 0.984 . S
H2939 N2933 0.985 . S
H2940 N2937 0.984 . S
H2941 N2937 0.985 . S
H2942 N2936 0.984 . S
H2943 N2936 0.984 . S
H2944 N2932 0.984 . S
H2945 N2932 0.985 . S
C2946 C2947 1.363 . S
C2946 C2952 1.379 . S
C2946 N2954 1.356 . S
C2947 C2946 1.363 . S
C2947 C2953 1.363 . S
C2948 C2949 1.363 . S
C2948 C2953 1.379 . S
C2948 N2955 1.356 . S
C2949 C2948 1.363 . S
C2949 C2952 1.363 . S
N2950 C2952 1.356 . S
N2950 H2962 0.984 . S
N2950 H2963 0.985 . S
N2951 C2953 1.356 . S
N2951 H2956 0.984 . S
N2951 H2957 0.985 . S
C2952 C2946 1.379 . S
C2952 C2949 1.363 . S
C2952 N2950 1.356 . S
C2953 C2947 1.363 . S
C2953 C2948 1.379 . S
C2953 N2951 1.356 . S
N2954 C2946 1.356 . S
N2954 H2960 0.984 . S
N2954 H2961 0.984 . S
N2955 C2948 1.356 . S
N2955 H2958 0.984 . S
N2955 H2959 0.985 . S
H2956 N2951 0.984 . S
H2957 N2951 0.985 . S
H2958 N2955 0.984 . S
H2959 N2955 0.985 . S
H2960 N2954 0.984 . S
H2961 N2954 0.984 . S
H2962 N2950 0.984 . S
H2963 N2950 0.985 . S
C2964 C2965 1.363 . S
C2964 C2970 1.379 . S
C2964 N2972 1.356 . S
C2965 C2964 1.363 . S
C2965 C2971 1.363 . S
C2966 C2967 1.363 . S
C2966 C2971 1.379 . S
C2966 N2973 1.356 . S
C2967 C2966 1.363 . S
C2967 C2970 1.363 . S
N2968 C2970 1.356 . S
N2968 H2980 0.984 . S
N2968 H2981 0.985 . S
N2969 C2971 1.356 . S
N2969 H2974 0.984 . S
N2969 H2975 0.985 . S
C2970 C2964 1.379 . S
C2970 C2967 1.363 . S
C2970 N2968 1.356 . S
C2971 C2965 1.363 . S
C2971 C2966 1.379 . S
C2971 N2969 1.356 . S
N2972 C2964 1.356 . S
N2972 H2978 0.984 . S
N2972 H2979 0.984 . S
N2973 C2966 1.356 . S
N2973 H2976 0.984 . S
N2973 H2977 0.985 . S
H2974 N2969 0.984 . S
H2975 N2969 0.985 . S
H2976 N2973 0.984 . S
H2977 N2973 0.985 . S
H2978 N2972 0.984 . S
H2979 N2972 0.984 . S
H2980 N2968 0.984 . S
H2981 N2968 0.985 . S
C2982 C2983 1.363 . S
C2982 C2988 1.379 . S
C2982 N2990 1.356 . S
C2983 C2982 1.363 . S
C2983 C2989 1.363 . S
C2984 C2985 1.363 . S
C2984 C2989 1.379 . S
C2984 N2991 1.356 . S
C2985 C2984 1.363 . S
C2985 C2988 1.363 . S
N2986 C2988 1.356 . S
N2986 H2998 0.984 . S
N2986 H2999 0.985 . S
N2987 C2989 1.356 . S
N2987 H2992 0.984 . S
N2987 H2993 0.985 . S
C2988 C2982 1.379 . S
C2988 C2985 1.363 . S
C2988 N2986 1.356 . S
C2989 C2983 1.363 . S
C2989 C2984 1.379 . S
C2989 N2987 1.356 . S
N2990 C2982 1.356 . S
N2990 H2996 0.984 . S
N2990 H2997 0.984 . S
N2991 C2984 1.356 . S
N2991 H2994 0.984 . S
N2991 H2995 0.985 . S
H2992 N2987 0.984 . S
H2993 N2987 0.985 . S
H2994 N2991 0.984 . S
H2995 N2991 0.985 . S
H2996 N2990 0.984 . S
H2997 N2990 0.984 . S
H2998 N2986 0.984 . S
H2999 N2986 0.985 . S
C3000 C3001 1.363 . S
C3000 C3006 1.379 . S
C3000 N3008 1.356 . S
C3001 C3000 1.363 . S
C3001 C3007 1.363 . S
C3002 C3003 1.363 . S
C3002 C3007 1.379 . S
C3002 N3009 1.356 . S
C3003 C3002 1.363 . S
C3003 C3006 1.363 . S
N3004 C3006 1.356 . S
N3004 H3016 0.984 . S
N3004 H3017 0.985 . S
N3005 C3007 1.356 . S
N3005 H3010 0.984 . S
N3005 H3011 0.985 . S
C3006 C3000 1.379 . S
C3006 C3003 1.363 . S
C3006 N3004 1.356 . S
C3007 C3001 1.363 . S
C3007 C3002 1.379 . S
C3007 N3005 1.356 . S
N3008 C3000 1.356 . S
N3008 H3014 0.984 . S
N3008 H3015 0.984 . S
N3009 C3002 1.356 . S
N3009 H3012 0.984 . S
N3009 H3013 0.985 . S
H3010 N3005 0.984 . S
H3011 N3005 0.985 . S
H3012 N3009 0.984 . S
H3013 N3009 0.985 . S
H3014 N3008 0.984 . S
H3015 N3008 0.984 . S
H3016 N3004 0.984 . S
H3017 N3004 0.985 . S
C3018 C3019 1.363 . S
C3018 C3024 1.379 . S
C3018 N3026 1.356 . S
C3019 C3018 1.363 . S
C3019 C3025 1.363 . S
C3020 C3021 1.363 . S
C3020 C3025 1.379 . S
C3020 N3027 1.356 . S
C3021 C3020 1.363 . S
C3021 C3024 1.363 . S
N3022 C3024 1.356 . S
N3022 H3034 0.984 . S
N3022 H3035 0.985 . S
N3023 C3025 1.356 . S
N3023 H3028 0.984 . S
N3023 H3029 0.985 . S
C3024 C3018 1.379 . S
C3024 C3021 1.363 . S
C3024 N3022 1.356 . S
C3025 C3019 1.363 . S
C3025 C3020 1.379 . S
C3025 N3023 1.356 . S
N3026 C3018 1.356 . S
N3026 H3032 0.984 . S
N3026 H3033 0.984 . S
N3027 C3020 1.356 . S
N3027 H3030 0.984 . S
N3027 H3031 0.985 . S
H3028 N3023 0.984 . S
H3029 N3023 0.985 . S
H3030 N3027 0.984 . S
H3031 N3027 0.985 . S
H3032 N3026 0.984 . S
H3033 N3026 0.984 . S
H3034 N3022 0.984 . S
H3035 N3022 0.985 . S
C3036 C3037 1.363 . S
C3036 C3042 1.379 . S
C3036 N3044 1.356 . S
C3037 C3036 1.363 . S
C3037 C3043 1.363 . S
C3038 C3039 1.363 . S
C3038 C3043 1.379 . S
C3038 N3045 1.356 . S
C3039 C3038 1.363 . S
C3039 C3042 1.363 . S
N3040 C3042 1.356 . S
N3040 H3052 0.984 . S
N3040 H3053 0.985 . S
N3041 C3043 1.356 . S
N3041 H3046 0.984 . S
N3041 H3047 0.985 . S
C3042 C3036 1.379 . S
C3042 C3039 1.363 . S
C3042 N3040 1.356 . S
C3043 C3037 1.363 . S
C3043 C3038 1.379 . S
C3043 N3041 1.356 . S
N3044 C3036 1.356 . S
N3044 H3050 0.984 . S
N3044 H3051 0.984 . S
N3045 C3038 1.356 . S
N3045 H3048 0.984 . S
N3045 H3049 0.985 . S
H3046 N3041 0.984 . S
H3047 N3041 0.985 . S
H3048 N3045 0.984 . S
H3049 N3045 0.985 . S
H3050 N3044 0.984 . S
H3051 N3044 0.984 . S
H3052 N3040 0.984 . S
H3053 N3040 0.985 . S
C3054 C3055 1.363 . S
C3054 C3060 1.379 . S
C3054 N3062 1.356 . S
C3055 C3054 1.363 . S
C3055 C3061 1.363 . S
C3056 C3057 1.363 . S
C3056 C3061 1.379 . S
C3056 N3063 1.356 . S
C3057 C3056 1.363 . S
C3057 C3060 1.363 . S
N3058 C3060 1.356 . S
N3058 H3070 0.984 . S
N3058 H3071 0.985 . S
N3059 C3061 1.356 . S
N3059 H3064 0.984 . S
N3059 H3065 0.985 . S
C3060 C3054 1.379 . S
C3060 C3057 1.363 . S
C3060 N3058 1.356 . S
C3061 C3055 1.363 . S
C3061 C3056 1.379 . S
C3061 N3059 1.356 . S
N3062 C3054 1.356 . S
N3062 H3068 0.984 . S
N3062 H3069 0.984 . S
N3063 C3056 1.356 . S
N3063 H3066 0.984 . S
N3063 H3067 0.985 . S
H3064 N3059 0.984 . S
H3065 N3059 0.985 . S
H3066 N3063 0.984 . S
H3067 N3063 0.985 . S
H3068 N3062 0.984 . S
H3069 N3062 0.984 . S
H3070 N3058 0.984 . S
H3071 N3058 0.985 . S
C3072 C3073 1.363 . S
C3072 C3078 1.379 . S
C3072 N3080 1.356 . S
C3073 C3072 1.363 . S
C3073 C3079 1.363 . S
C3074 C3075 1.363 . S
C3074 C3079 1.379 . S
C3074 N3081 1.356 . S
C3075 C3074 1.363 . S
C3075 C3078 1.363 . S
N3076 C3078 1.356 . S
N3076 H3088 0.984 . S
N3076 H3089 0.985 . S
N3077 C3079 1.356 . S
N3077 H3082 0.984 . S
N3077 H3083 0.985 . S
C3078 C3072 1.379 . S
C3078 C3075 1.363 . S
C3078 N3076 1.356 . S
C3079 C3073 1.363 . S
C3079 C3074 1.379 . S
C3079 N3077 1.356 . S
N3080 C3072 1.356 . S
N3080 H3086 0.984 . S
N3080 H3087 0.984 . S
N3081 C3074 1.356 . S
N3081 H3084 0.984 . S
N3081 H3085 0.985 . S
H3082 N3077 0.984 . S
H3083 N3077 0.985 . S
H3084 N3081 0.984 . S
H3085 N3081 0.985 . S
H3086 N3080 0.984 . S
H3087 N3080 0.984 . S
H3088 N3076 0.984 . S
H3089 N3076 0.985 . S
C3090 C3091 1.363 . S
C3090 C3096 1.379 . S
C3090 N3098 1.356 . S
C3091 C3090 1.363 . S
C3091 C3097 1.363 . S
C3092 C3093 1.363 . S
C3092 C3097 1.379 . S
C3092 N3099 1.356 . S
C3093 C3092 1.363 . S
C3093 C3096 1.363 . S
N3094 C3096 1.356 . S
N3094 H3106 0.984 . S
N3094 H3107 0.985 . S
N3095 C3097 1.356 . S
N3095 H3100 0.984 . S
N3095 H3101 0.985 . S
C3096 C3090 1.379 . S
C3096 C3093 1.363 . S
C3096 N3094 1.356 . S
C3097 C3091 1.363 . S
C3097 C3092 1.379 . S
C3097 N3095 1.356 . S
N3098 C3090 1.356 . S
N3098 H3104 0.984 . S
N3098 H3105 0.984 . S
N3099 C3092 1.356 . S
N3099 H3102 0.984 . S
N3099 H3103 0.985 . S
H3100 N3095 0.984 . S
H3101 N3095 0.985 . S
H3102 N3099 0.984 . S
H3103 N3099 0.985 . S
H3104 N3098 0.984 . S
H3105 N3098 0.984 . S
H3106 N3094 0.984 . S
H3107 N3094 0.985 . S
C3108 C3109 1.363 . S
C3108 C3114 1.379 . S
C3108 N3116 1.356 . S
C3109 C3108 1.363 . S
C3109 C3115 1.363 . S
C3110 C3111 1.363 . S
C3110 C3115 1.379 . S
C3110 N3117 1.356 . S
C3111 C3110 1.363 . S
C3111 C3114 1.363 . S
N3112 C3114 1.356 . S
N3112 H3124 0.984 . S
N3112 H3125 0.985 . S
N3113 C3115 1.356 . S
N3113 H3118 0.984 . S
N3113 H3119 0.985 . S
C3114 C3108 1.379 . S
C3114 C3111 1.363 . S
C3114 N3112 1.356 . S
C3115 C3109 1.363 . S
C3115 C3110 1.379 . S
C3115 N3113 1.356 . S
N3116 C3108 1.356 . S
N3116 H3122 0.984 . S
N3116 H3123 0.984 . S
N3117 C3110 1.356 . S
N3117 H3120 0.984 . S
N3117 H3121 0.985 . S
H3118 N3113 0.984 . S
H3119 N3113 0.985 . S
H3120 N3117 0.984 . S
H3121 N3117 0.985 . S
H3122 N3116 0.984 . S
H3123 N3116 0.984 . S
H3124 N3112 0.984 . S
H3125 N3112 0.985 . S
C3126 C3127 1.363 . S
C3126 C3132 1.379 . S
C3126 N3134 1.356 . S
C3127 C3126 1.363 . S
C3127 C3133 1.363 . S
C3128 C3129 1.363 . S
C3128 C3133 1.379 . S
C3128 N3135 1.356 . S
C3129 C3128 1.363 . S
C3129 C3132 1.363 . S
N3130 C3132 1.356 . S
N3130 H3142 0.984 . S
N3130 H3143 0.985 . S
N3131 C3133 1.356 . S
N3131 H3136 0.984 . S
N3131 H3137 0.985 . S
C3132 C3126 1.379 . S
C3132 C3129 1.363 . S
C3132 N3130 1.356 . S
C3133 C3127 1.363 . S
C3133 C3128 1.379 . S
C3133 N3131 1.356 . S
N3134 C3126 1.356 . S
N3134 H3140 0.984 . S
N3134 H3141 0.984 . S
N3135 C3128 1.356 . S
N3135 H3138 0.984 . S
N3135 H3139 0.985 . S
H3136 N3131 0.984 . S
H3137 N3131 0.985 . S
H3138 N3135 0.984 . S
H3139 N3135 0.985 . S
H3140 N3134 0.984 . S
H3141 N3134 0.984 . S
H3142 N3130 0.984 . S
H3143 N3130 0.985 . S
C3144 C3145 1.363 . S
C3144 C3150 1.379 . S
C3144 N3152 1.356 . S
C3145 C3144 1.363 . S
C3145 C3151 1.363 . S
C3146 C3147 1.363 . S
C3146 C3151 1.379 . S
C3146 N3153 1.356 . S
C3147 C3146 1.363 . S
C3147 C3150 1.363 . S
N3148 C3150 1.356 . S
N3148 H3160 0.984 . S
N3148 H3161 0.985 . S
N3149 C3151 1.356 . S
N3149 H3154 0.984 . S
N3149 H3155 0.985 . S
C3150 C3144 1.379 . S
C3150 C3147 1.363 . S
C3150 N3148 1.356 . S
C3151 C3145 1.363 . S
C3151 C3146 1.379 . S
C3151 N3149 1.356 . S
N3152 C3144 1.356 . S
N3152 H3158 0.984 . S
N3152 H3159 0.984 . S
N3153 C3146 1.356 . S
N3153 H3156 0.984 . S
N3153 H3157 0.985 . S
H3154 N3149 0.984 . S
H3155 N3149 0.985 . S
H3156 N3153 0.984 . S
H3157 N3153 0.985 . S
H3158 N3152 0.984 . S
H3159 N3152 0.984 . S
H3160 N3148 0.984 . S
H3161 N3148 0.985 . S
C3162 C3163 1.363 . S
C3162 C3168 1.379 . S
C3162 N3170 1.356 . S
C3163 C3162 1.363 . S
C3163 C3169 1.363 . S
C3164 C3165 1.363 . S
C3164 C3169 1.379 . S
C3164 N3171 1.356 . S
C3165 C3164 1.363 . S
C3165 C3168 1.363 . S
N3166 C3168 1.356 . S
N3166 H3178 0.984 . S
N3166 H3179 0.985 . S
N3167 C3169 1.356 . S
N3167 H3172 0.984 . S
N3167 H3173 0.985 . S
C3168 C3162 1.379 . S
C3168 C3165 1.363 . S
C3168 N3166 1.356 . S
C3169 C3163 1.363 . S
C3169 C3164 1.379 . S
C3169 N3167 1.356 . S
N3170 C3162 1.356 . S
N3170 H3176 0.984 . S
N3170 H3177 0.984 . S
N3171 C3164 1.356 . S
N3171 H3174 0.984 . S
N3171 H3175 0.985 . S
H3172 N3167 0.984 . S
H3173 N3167 0.985 . S
H3174 N3171 0.984 . S
H3175 N3171 0.985 . S
H3176 N3170 0.984 . S
H3177 N3170 0.984 . S
H3178 N3166 0.984 . S
H3179 N3166 0.985 . S
C3180 C3181 1.363 . S
C3180 C3186 1.379 . S
C3180 N3188 1.356 . S
C3181 C3180 1.363 . S
C3181 C3187 1.363 . S
C3182 C3183 1.363 . S
C3182 C3187 1.379 . S
C3182 N3189 1.356 . S
C3183 C3182 1.363 . S
C3183 C3186 1.363 . S
N3184 C3186 1.356 . S
N3184 H3196 0.984 . S
N3184 H3197 0.985 . S
N3185 C3187 1.356 . S
N3185 H3190 0.984 . S
N3185 H3191 0.985 . S
C3186 C3180 1.379 . S
C3186 C3183 1.363 . S
C3186 N3184 1.356 . S
C3187 C3181 1.363 . S
C3187 C3182 1.379 . S
C3187 N3185 1.356 . S
N3188 C3180 1.356 . S
N3188 H3194 0.984 . S
N3188 H3195 0.984 . S
N3189 C3182 1.356 . S
N3189 H3192 0.984 . S
N3189 H3193 0.985 . S
H3190 N3185 0.984 . S
H3191 N3185 0.985 . S
H3192 N3189 0.984 . S
H3193 N3189 0.985 . S
H3194 N3188 0.984 . S
H3195 N3188 0.984 . S
H3196 N3184 0.984 . S
H3197 N3184 0.985 . S
C3198 C3199 1.363 . S
C3198 C3204 1.379 . S
C3198 N3206 1.356 . S
C3199 C3198 1.363 . S
C3199 C3205 1.363 . S
C3200 C3201 1.363 . S
C3200 C3205 1.379 . S
C3200 N3207 1.356 . S
C3201 C3200 1.363 . S
C3201 C3204 1.363 . S
N3202 C3204 1.356 . S
N3202 H3214 0.984 . S
N3202 H3215 0.985 . S
N3203 C3205 1.356 . S
N3203 H3208 0.984 . S
N3203 H3209 0.985 . S
C3204 C3198 1.379 . S
C3204 C3201 1.363 . S
C3204 N3202 1.356 . S
C3205 C3199 1.363 . S
C3205 C3200 1.379 . S
C3205 N3203 1.356 . S
N3206 C3198 1.356 . S
N3206 H3212 0.984 . S
N3206 H3213 0.984 . S
N3207 C3200 1.356 . S
N3207 H3210 0.984 . S
N3207 H3211 0.985 . S
H3208 N3203 0.984 . S
H3209 N3203 0.985 . S
H3210 N3207 0.984 . S
H3211 N3207 0.985 . S
H3212 N3206 0.984 . S
H3213 N3206 0.984 . S
H3214 N3202 0.984 . S
H3215 N3202 0.985 . S
C3216 C3217 1.363 . S
C3216 C3222 1.379 . S
C3216 N3224 1.356 . S
C3217 C3216 1.363 . S
C3217 C3223 1.363 . S
C3218 C3219 1.363 . S
C3218 C3223 1.379 . S
C3218 N3225 1.356 . S
C3219 C3218 1.363 . S
C3219 C3222 1.363 . S
N3220 C3222 1.356 . S
N3220 H3232 0.984 . S
N3220 H3233 0.985 . S
N3221 C3223 1.356 . S
N3221 H3226 0.984 . S
N3221 H3227 0.985 . S
C3222 C3216 1.379 . S
C3222 C3219 1.363 . S
C3222 N3220 1.356 . S
C3223 C3217 1.363 . S
C3223 C3218 1.379 . S
C3223 N3221 1.356 . S
N3224 C3216 1.356 . S
N3224 H3230 0.984 . S
N3224 H3231 0.984 . S
N3225 C3218 1.356 . S
N3225 H3228 0.984 . S
N3225 H3229 0.985 . S
H3226 N3221 0.984 . S
H3227 N3221 0.985 . S
H3228 N3225 0.984 . S
H3229 N3225 0.985 . S
H3230 N3224 0.984 . S
H3231 N3224 0.984 . S
H3232 N3220 0.984 . S
H3233 N3220 0.985 . S
C3234 C3235 1.363 . S
C3234 C3240 1.379 . S
C3234 N3242 1.356 . S
C3235 C3234 1.363 . S
C3235 C3241 1.363 . S
C3236 C3237 1.363 . S
C3236 C3241 1.379 . S
C3236 N3243 1.356 . S
C3237 C3236 1.363 . S
C3237 C3240 1.363 . S
N3238 C3240 1.356 . S
N3238 H3250 0.984 . S
N3238 H3251 0.985 . S
N3239 C3241 1.356 . S
N3239 H3244 0.984 . S
N3239 H3245 0.985 . S
C3240 C3234 1.379 . S
C3240 C3237 1.363 . S
C3240 N3238 1.356 . S
C3241 C3235 1.363 . S
C3241 C3236 1.379 . S
C3241 N3239 1.356 . S
N3242 C3234 1.356 . S
N3242 H3248 0.984 . S
N3242 H3249 0.984 . S
N3243 C3236 1.356 . S
N3243 H3246 0.984 . S
N3243 H3247 0.985 . S
H3244 N3239 0.984 . S
H3245 N3239 0.985 . S
H3246 N3243 0.984 . S
H3247 N3243 0.985 . S
H3248 N3242 0.984 . S
H3249 N3242 0.984 . S
H3250 N3238 0.984 . S
H3251 N3238 0.985 . S
C3252 C3253 1.363 . S
C3252 C3258 1.379 . S
C3252 N3260 1.356 . S
C3253 C3252 1.363 . S
C3253 C3259 1.363 . S
C3254 C3255 1.363 . S
C3254 C3259 1.379 . S
C3254 N3261 1.356 . S
C3255 C3254 1.363 . S
C3255 C3258 1.363 . S
N3256 C3258 1.356 . S
N3256 H3268 0.984 . S
N3256 H3269 0.985 . S
N3257 C3259 1.356 . S
N3257 H3262 0.984 . S
N3257 H3263 0.985 . S
C3258 C3252 1.379 . S
C3258 C3255 1.363 . S
C3258 N3256 1.356 . S
C3259 C3253 1.363 . S
C3259 C3254 1.379 . S
C3259 N3257 1.356 . S
N3260 C3252 1.356 . S
N3260 H3266 0.984 . S
N3260 H3267 0.984 . S
N3261 C3254 1.356 . S
N3261 H3264 0.984 . S
N3261 H3265 0.985 . S
H3262 N3257 0.984 . S
H3263 N3257 0.985 . S
H3264 N3261 0.984 . S
H3265 N3261 0.985 . S
H3266 N3260 0.984 . S
H3267 N3260 0.984 . S
H3268 N3256 0.984 . S
H3269 N3256 0.985 . S
C3270 C3271 1.363 . S
C3270 C3276 1.379 . S
C3270 N3278 1.356 . S
C3271 C3270 1.363 . S
C3271 C3277 1.363 . S
C3272 C3273 1.363 . S
C3272 C3277 1.379 . S
C3272 N3279 1.356 . S
C3273 C3272 1.363 . S
C3273 C3276 1.363 . S
N3274 C3276 1.356 . S
N3274 H3286 0.984 . S
N3274 H3287 0.985 . S
N3275 C3277 1.356 . S
N3275 H3280 0.984 . S
N3275 H3281 0.985 . S
C3276 C3270 1.379 . S
C3276 C3273 1.363 . S
C3276 N3274 1.356 . S
C3277 C3271 1.363 . S
C3277 C3272 1.379 . S
C3277 N3275 1.356 . S
N3278 C3270 1.356 . S
N3278 H3284 0.984 . S
N3278 H3285 0.984 . S
N3279 C3272 1.356 . S
N3279 H3282 0.984 . S
N3279 H3283 0.985 . S
H3280 N3275 0.984 . S
H3281 N3275 0.985 . S
H3282 N3279 0.984 . S
H3283 N3279 0.985 . S
H3284 N3278 0.984 . S
H3285 N3278 0.984 . S
H3286 N3274 0.984 . S
H3287 N3274 0.985 . S
C3288 C3289 1.363 . S
C3288 C3294 1.379 . S
C3288 N3296 1.356 . S
C3289 C3288 1.363 . S
C3289 C3295 1.363 . S
C3290 C3291 1.363 . S
C3290 C3295 1.379 . S
C3290 N3297 1.356 . S
C3291 C3290 1.363 . S
C3291 C3294 1.363 . S
N3292 C3294 1.356 . S
N3292 H3304 0.984 . S
N3292 H3305 0.985 . S
N3293 C3295 1.356 . S
N3293 H3298 0.984 . S
N3293 H3299 0.985 . S
C3294 C3288 1.379 . S
C3294 C3291 1.363 . S
C3294 N3292 1.356 . S
C3295 C3289 1.363 . S
C3295 C3290 1.379 . S
C3295 N3293 1.356 . S
N3296 C3288 1.356 . S
N3296 H3302 0.984 . S
N3296 H3303 0.984 . S
N3297 C3290 1.356 . S
N3297 H3300 0.984 . S
N3297 H3301 0.985 . S
H3298 N3293 0.984 . S
H3299 N3293 0.985 . S
H3300 N3297 0.984 . S
H3301 N3297 0.985 . S
H3302 N3296 0.984 . S
H3303 N3296 0.984 . S
H3304 N3292 0.984 . S
H3305 N3292 0.985 . S
C3306 C3307 1.363 . S
C3306 C3312 1.379 . S
C3306 N3314 1.356 . S
C3307 C3306 1.363 . S
C3307 C3313 1.363 . S
C3308 C3309 1.363 . S
C3308 C3313 1.379 . S
C3308 N3315 1.356 . S
C3309 C3308 1.363 . S
C3309 C3312 1.363 . S
N3310 C3312 1.356 . S
N3310 H3322 0.984 . S
N3310 H3323 0.985 . S
N3311 C3313 1.356 . S
N3311 H3316 0.984 . S
N3311 H3317 0.985 . S
C3312 C3306 1.379 . S
C3312 C3309 1.363 . S
C3312 N3310 1.356 . S
C3313 C3307 1.363 . S
C3313 C3308 1.379 . S
C3313 N3311 1.356 . S
N3314 C3306 1.356 . S
N3314 H3320 0.984 . S
N3314 H3321 0.984 . S
N3315 C3308 1.356 . S
N3315 H3318 0.984 . S
N3315 H3319 0.985 . S
H3316 N3311 0.984 . S
H3317 N3311 0.985 . S
H3318 N3315 0.984 . S
H3319 N3315 0.985 . S
H3320 N3314 0.984 . S
H3321 N3314 0.984 . S
H3322 N3310 0.984 . S
H3323 N3310 0.985 . S
C3324 C3325 1.363 . S
C3324 C3330 1.379 . S
C3324 N3332 1.356 . S
C3325 C3324 1.363 . S
C3325 C3331 1.363 . S
C3326 C3327 1.363 . S
C3326 C3331 1.379 . S
C3326 N3333 1.356 . S
C3327 C3326 1.363 . S
C3327 C3330 1.363 . S
N3328 C3330 1.356 . S
N3328 H3340 0.984 . S
N3328 H3341 0.985 . S
N3329 C3331 1.356 . S
N3329 H3334 0.984 . S
N3329 H3335 0.985 . S
C3330 C3324 1.379 . S
C3330 C3327 1.363 . S
C3330 N3328 1.356 . S
C3331 C3325 1.363 . S
C3331 C3326 1.379 . S
C3331 N3329 1.356 . S
N3332 C3324 1.356 . S
N3332 H3338 0.984 . S
N3332 H3339 0.984 . S
N3333 C3326 1.356 . S
N3333 H3336 0.984 . S
N3333 H3337 0.985 . S
H3334 N3329 0.984 . S
H3335 N3329 0.985 . S
H3336 N3333 0.984 . S
H3337 N3333 0.985 . S
H3338 N3332 0.984 . S
H3339 N3332 0.984 . S
H3340 N3328 0.984 . S
H3341 N3328 0.985 . S
C3342 C3343 1.363 . S
C3342 C3348 1.379 . S
C3342 N3350 1.356 . S
C3343 C3342 1.363 . S
C3343 C3349 1.363 . S
C3344 C3345 1.363 . S
C3344 C3349 1.379 . S
C3344 N3351 1.356 . S
C3345 C3344 1.363 . S
C3345 C3348 1.363 . S
N3346 C3348 1.356 . S
N3346 H3358 0.984 . S
N3346 H3359 0.985 . S
N3347 C3349 1.356 . S
N3347 H3352 0.984 . S
N3347 H3353 0.985 . S
C3348 C3342 1.379 . S
C3348 C3345 1.363 . S
C3348 N3346 1.356 . S
C3349 C3343 1.363 . S
C3349 C3344 1.379 . S
C3349 N3347 1.356 . S
N3350 C3342 1.356 . S
N3350 H3356 0.984 . S
N3350 H3357 0.984 . S
N3351 C3344 1.356 . S
N3351 H3354 0.984 . S
N3351 H3355 0.985 . S
H3352 N3347 0.984 . S
H3353 N3347 0.985 . S
H3354 N3351 0.984 . S
H3355 N3351 0.985 . S
H3356 N3350 0.984 . S
H3357 N3350 0.984 . S
H3358 N3346 0.984 . S
H3359 N3346 0.985 . S
C3360 C3361 1.363 . S
C3360 C3366 1.379 . S
C3360 N3368 1.356 . S
C3361 C3360 1.363 . S
C3361 C3367 1.363 . S
C3362 C3363 1.363 . S
C3362 C3367 1.379 . S
C3362 N3369 1.356 . S
C3363 C3362 1.363 . S
C3363 C3366 1.363 . S
N3364 C3366 1.356 . S
N3364 H3376 0.984 . S
N3364 H3377 0.985 . S
N3365 C3367 1.356 . S
N3365 H3370 0.984 . S
N3365 H3371 0.985 . S
C3366 C3360 1.379 . S
C3366 C3363 1.363 . S
C3366 N3364 1.356 . S
C3367 C3361 1.363 . S
C3367 C3362 1.379 . S
C3367 N3365 1.356 . S
N3368 C3360 1.356 . S
N3368 H3374 0.984 . S
N3368 H3375 0.984 . S
N3369 C3362 1.356 . S
N3369 H3372 0.984 . S
N3369 H3373 0.985 . S
H3370 N3365 0.984 . S
H3371 N3365 0.985 . S
H3372 N3369 0.984 . S
H3373 N3369 0.985 . S
H3374 N3368 0.984 . S
H3375 N3368 0.984 . S
H3376 N3364 0.984 . S
H3377 N3364 0.985 . S
C3378 C3379 1.363 . S
C3378 C3384 1.379 . S
C3378 N3386 1.356 . S
C3379 C3378 1.363 . S
C3379 C3385 1.363 . S
C3380 C3381 1.363 . S
C3380 C3385 1.379 . S
C3380 N3387 1.356 . S
C3381 C3380 1.363 . S
C3381 C3384 1.363 . S
N3382 C3384 1.356 . S
N3382 H3394 0.984 . S
N3382 H3395 0.985 . S
N3383 C3385 1.356 . S
N3383 H3388 0.984 . S
N3383 H3389 0.985 . S
C3384 C3378 1.379 . S
C3384 C3381 1.363 . S
C3384 N3382 1.356 . S
C3385 C3379 1.363 . S
C3385 C3380 1.379 . S
C3385 N3383 1.356 . S
N3386 C3378 1.356 . S
N3386 H3392 0.984 . S
N3386 H3393 0.984 . S
N3387 C3380 1.356 . S
N3387 H3390 0.984 . S
N3387 H3391 0.985 . S
H3388 N3383 0.984 . S
H3389 N3383 0.985 . S
H3390 N3387 0.984 . S
H3391 N3387 0.985 . S
H3392 N3386 0.984 . S
H3393 N3386 0.984 . S
H3394 N3382 0.984 . S
H3395 N3382 0.985 . S
C3396 C3397 1.363 . S
C3396 C3402 1.379 . S
C3396 N3404 1.356 . S
C3397 C3396 1.363 . S
C3397 C3403 1.363 . S
C3398 C3399 1.363 . S
C3398 C3403 1.379 . S
C3398 N3405 1.356 . S
C3399 C3398 1.363 . S
C3399 C3402 1.363 . S
N3400 C3402 1.356 . S
N3400 H3412 0.984 . S
N3400 H3413 0.985 . S
N3401 C3403 1.356 . S
N3401 H3406 0.984 . S
N3401 H3407 0.985 . S
C3402 C3396 1.379 . S
C3402 C3399 1.363 . S
C3402 N3400 1.356 . S
C3403 C3397 1.363 . S
C3403 C3398 1.379 . S
C3403 N3401 1.356 . S
N3404 C3396 1.356 . S
N3404 H3410 0.984 . S
N3404 H3411 0.984 . S
N3405 C3398 1.356 . S
N3405 H3408 0.984 . S
N3405 H3409 0.985 . S
H3406 N3401 0.984 . S
H3407 N3401 0.985 . S
H3408 N3405 0.984 . S
H3409 N3405 0.985 . S
H3410 N3404 0.984 . S
H3411 N3404 0.984 . S
H3412 N3400 0.984 . S
H3413 N3400 0.985 . S
C3414 C3415 1.363 . S
C3414 C3420 1.379 . S
C3414 N3422 1.356 . S
C3415 C3414 1.363 . S
C3415 C3421 1.363 . S
C3416 C3417 1.363 . S
C3416 C3421 1.379 . S
C3416 N3423 1.356 . S
C3417 C3416 1.363 . S
C3417 C3420 1.363 . S
N3418 C3420 1.356 . S
N3418 H3430 0.984 . S
N3418 H3431 0.985 . S
N3419 C3421 1.356 . S
N3419 H3424 0.984 . S
N3419 H3425 0.985 . S
C3420 C3414 1.379 . S
C3420 C3417 1.363 . S
C3420 N3418 1.356 . S
C3421 C3415 1.363 . S
C3421 C3416 1.379 . S
C3421 N3419 1.356 . S
N3422 C3414 1.356 . S
N3422 H3428 0.984 . S
N3422 H3429 0.984 . S
N3423 C3416 1.356 . S
N3423 H3426 0.984 . S
N3423 H3427 0.985 . S
H3424 N3419 0.984 . S
H3425 N3419 0.985 . S
H3426 N3423 0.984 . S
H3427 N3423 0.985 . S
H3428 N3422 0.984 . S
H3429 N3422 0.984 . S
H3430 N3418 0.984 . S
H3431 N3418 0.985 . S
C3432 C3433 1.363 . S
C3432 C3438 1.379 . S
C3432 N3440 1.356 . S
C3433 C3432 1.363 . S
C3433 C3439 1.363 . S
C3434 C3435 1.363 . S
C3434 C3439 1.379 . S
C3434 N3441 1.356 . S
C3435 C3434 1.363 . S
C3435 C3438 1.363 . S
N3436 C3438 1.356 . S
N3436 H3448 0.984 . S
N3436 H3449 0.985 . S
N3437 C3439 1.356 . S
N3437 H3442 0.984 . S
N3437 H3443 0.985 . S
C3438 C3432 1.379 . S
C3438 C3435 1.363 . S
C3438 N3436 1.356 . S
C3439 C3433 1.363 . S
C3439 C3434 1.379 . S
C3439 N3437 1.356 . S
N3440 C3432 1.356 . S
N3440 H3446 0.984 . S
N3440 H3447 0.984 . S
N3441 C3434 1.356 . S
N3441 H3444 0.984 . S
N3441 H3445 0.985 . S
H3442 N3437 0.984 . S
H3443 N3437 0.985 . S
H3444 N3441 0.984 . S
H3445 N3441 0.985 . S
H3446 N3440 0.984 . S
H3447 N3440 0.984 . S
H3448 N3436 0.984 . S
H3449 N3436 0.985 . S
C3450 C3451 1.363 . S
C3450 C3456 1.379 . S
C3450 N3458 1.356 . S
C3451 C3450 1.363 . S
C3451 C3457 1.363 . S
C3452 C3453 1.363 . S
C3452 C3457 1.379 . S
C3452 N3459 1.356 . S
C3453 C3452 1.363 . S
C3453 C3456 1.363 . S
N3454 C3456 1.356 . S
N3454 H3466 0.984 . S
N3454 H3467 0.985 . S
N3455 C3457 1.356 . S
N3455 H3460 0.984 . S
N3455 H3461 0.985 . S
C3456 C3450 1.379 . S
C3456 C3453 1.363 . S
C3456 N3454 1.356 . S
C3457 C3451 1.363 . S
C3457 C3452 1.379 . S
C3457 N3455 1.356 . S
N3458 C3450 1.356 . S
N3458 H3464 0.984 . S
N3458 H3465 0.984 . S
N3459 C3452 1.356 . S
N3459 H3462 0.984 . S
N3459 H3463 0.985 . S
H3460 N3455 0.984 . S
H3461 N3455 0.985 . S
H3462 N3459 0.984 . S
H3463 N3459 0.985 . S
H3464 N3458 0.984 . S
H3465 N3458 0.984 . S
H3466 N3454 0.984 . S
H3467 N3454 0.985 . S
C3468 C3469 1.363 . S
C3468 C3474 1.379 . S
C3468 N3476 1.356 . S
C3469 C3468 1.363 . S
C3469 C3475 1.363 . S
C3470 C3471 1.363 . S
C3470 C3475 1.379 . S
C3470 N3477 1.356 . S
C3471 C3470 1.363 . S
C3471 C3474 1.363 . S
N3472 C3474 1.356 . S
N3472 H3484 0.984 . S
N3472 H3485 0.985 . S
N3473 C3475 1.356 . S
N3473 H3478 0.984 . S
N3473 H3479 0.985 . S
C3474 C3468 1.379 . S
C3474 C3471 1.363 . S
C3474 N3472 1.356 . S
C3475 C3469 1.363 . S
C3475 C3470 1.379 . S
C3475 N3473 1.356 . S
N3476 C3468 1.356 . S
N3476 H3482 0.984 . S
N3476 H3483 0.984 . S
N3477 C3470 1.356 . S
N3477 H3480 0.984 . S
N3477 H3481 0.985 . S
H3478 N3473 0.984 . S
H3479 N3473 0.985 . S
H3480 N3477 0.984 . S
H3481 N3477 0.985 . S
H3482 N3476 0.984 . S
H3483 N3476 0.984 . S
H3484 N3472 0.984 . S
H3485 N3472 0.985 . S
C3486 C3487 1.363 . S
C3486 C3492 1.379 . S
C3486 N3494 1.356 . S
C3487 C3486 1.363 . S
C3487 C3493 1.363 . S
C3488 C3489 1.363 . S
C3488 C3493 1.379 . S
C3488 N3495 1.356 . S
C3489 C3488 1.363 . S
C3489 C3492 1.363 . S
N3490 C3492 1.356 . S
N3490 H3502 0.984 . S
N3490 H3503 0.985 . S
N3491 C3493 1.356 . S
N3491 H3496 0.984 . S
N3491 H3497 0.985 . S
C3492 C3486 1.379 . S
C3492 C3489 1.363 . S
C3492 N3490 1.356 . S
C3493 C3487 1.363 . S
C3493 C3488 1.379 . S
C3493 N3491 1.356 . S
N3494 C3486 1.356 . S
N3494 H3500 0.984 . S
N3494 H3501 0.984 . S
N3495 C3488 1.356 . S
N3495 H3498 0.984 . S
N3495 H3499 0.985 . S
H3496 N3491 0.984 . S
H3497 N3491 0.985 . S
H3498 N3495 0.984 . S
H3499 N3495 0.985 . S
H3500 N3494 0.984 . S
H3501 N3494 0.984 . S
H3502 N3490 0.984 . S
H3503 N3490 0.985 . S
C3504 C3505 1.363 . S
C3504 C3510 1.379 . S
C3504 N3512 1.356 . S
C3505 C3504 1.363 . S
C3505 C3511 1.363 . S
C3506 C3507 1.363 . S
C3506 C3511 1.379 . S
C3506 N3513 1.356 . S
C3507 C3506 1.363 . S
C3507 C3510 1.363 . S
N3508 C3510 1.356 . S
N3508 H3520 0.984 . S
N3508 H3521 0.985 . S
N3509 C3511 1.356 . S
N3509 H3514 0.984 . S
N3509 H3515 0.985 . S
C3510 C3504 1.379 . S
C3510 C3507 1.363 . S
C3510 N3508 1.356 . S
C3511 C3505 1.363 . S
C3511 C3506 1.379 . S
C3511 N3509 1.356 . S
N3512 C3504 1.356 . S
N3512 H3518 0.984 . S
N3512 H3519 0.984 . S
N3513 C3506 1.356 . S
N3513 H3516 0.984 . S
N3513 H3517 0.985 . S
H3514 N3509 0.984 . S
H3515 N3509 0.985 . S
H3516 N3513 0.984 . S
H3517 N3513 0.985 . S
H3518 N3512 0.984 . S
H3519 N3512 0.984 . S
H3520 N3508 0.984 . S
H3521 N3508 0.985 . S
C3522 C3523 1.363 . S
C3522 C3528 1.379 . S
C3522 N3530 1.356 . S
C3523 C3522 1.363 . S
C3523 C3529 1.363 . S
C3524 C3525 1.363 . S
C3524 C3529 1.379 . S
C3524 N3531 1.356 . S
C3525 C3524 1.363 . S
C3525 C3528 1.363 . S
N3526 C3528 1.356 . S
N3526 H3538 0.984 . S
N3526 H3539 0.985 . S
N3527 C3529 1.356 . S
N3527 H3532 0.984 . S
N3527 H3533 0.985 . S
C3528 C3522 1.379 . S
C3528 C3525 1.363 . S
C3528 N3526 1.356 . S
C3529 C3523 1.363 . S
C3529 C3524 1.379 . S
C3529 N3527 1.356 . S
N3530 C3522 1.356 . S
N3530 H3536 0.984 . S
N3530 H3537 0.984 . S
N3531 C3524 1.356 . S
N3531 H3534 0.984 . S
N3531 H3535 0.985 . S
H3532 N3527 0.984 . S
H3533 N3527 0.985 . S
H3534 N3531 0.984 . S
H3535 N3531 0.985 . S
H3536 N3530 0.984 . S
H3537 N3530 0.984 . S
H3538 N3526 0.984 . S
H3539 N3526 0.985 . S
C3540 C3541 1.363 . S
C3540 C3546 1.379 . S
C3540 N3548 1.356 . S
C3541 C3540 1.363 . S
C3541 C3547 1.363 . S
C3542 C3543 1.363 . S
C3542 C3547 1.379 . S
C3542 N3549 1.356 . S
C3543 C3542 1.363 . S
C3543 C3546 1.363 . S
N3544 C3546 1.356 . S
N3544 H3556 0.984 . S
N3544 H3557 0.985 . S
N3545 C3547 1.356 . S
N3545 H3550 0.984 . S
N3545 H3551 0.985 . S
C3546 C3540 1.379 . S
C3546 C3543 1.363 . S
C3546 N3544 1.356 . S
C3547 C3541 1.363 . S
C3547 C3542 1.379 . S
C3547 N3545 1.356 . S
N3548 C3540 1.356 . S
N3548 H3554 0.984 . S
N3548 H3555 0.984 . S
N3549 C3542 1.356 . S
N3549 H3552 0.984 . S
N3549 H3553 0.985 . S
H3550 N3545 0.984 . S
H3551 N3545 0.985 . S
H3552 N3549 0.984 . S
H3553 N3549 0.985 . S
H3554 N3548 0.984 . S
H3555 N3548 0.984 . S
H3556 N3544 0.984 . S
H3557 N3544 0.985 . S
C3558 C3559 1.363 . S
C3558 C3564 1.379 . S
C3558 N3566 1.356 . S
C3559 C3558 1.363 . S
C3559 C3565 1.363 . S
C3560 C3561 1.363 . S
C3560 C3565 1.379 . S
C3560 N3567 1.356 . S
C3561 C3560 1.363 . S
C3561 C3564 1.363 . S
N3562 C3564 1.356 . S
N3562 H3574 0.984 . S
N3562 H3575 0.985 . S
N3563 C3565 1.356 . S
N3563 H3568 0.984 . S
N3563 H3569 0.985 . S
C3564 C3558 1.379 . S
C3564 C3561 1.363 . S
C3564 N3562 1.356 . S
C3565 C3559 1.363 . S
C3565 C3560 1.379 . S
C3565 N3563 1.356 . S
N3566 C3558 1.356 . S
N3566 H3572 0.984 . S
N3566 H3573 0.984 . S
N3567 C3560 1.356 . S
N3567 H3570 0.984 . S
N3567 H3571 0.985 . S
H3568 N3563 0.984 . S
H3569 N3563 0.985 . S
H3570 N3567 0.984 . S
H3571 N3567 0.985 . S
H3572 N3566 0.984 . S
H3573 N3566 0.984 . S
H3574 N3562 0.984 . S
H3575 N3562 0.985 . S
C3576 C3577 1.363 . S
C3576 C3582 1.379 . S
C3576 N3584 1.356 . S
C3577 C3576 1.363 . S
C3577 C3583 1.363 . S
C3578 C3579 1.363 . S
C3578 C3583 1.379 . S
C3578 N3585 1.356 . S
C3579 C3578 1.363 . S
C3579 C3582 1.363 . S
N3580 C3582 1.356 . S
N3580 H3592 0.984 . S
N3580 H3593 0.985 . S
N3581 C3583 1.356 . S
N3581 H3586 0.984 . S
N3581 H3587 0.985 . S
C3582 C3576 1.379 . S
C3582 C3579 1.363 . S
C3582 N3580 1.356 . S
C3583 C3577 1.363 . S
C3583 C3578 1.379 . S
C3583 N3581 1.356 . S
N3584 C3576 1.356 . S
N3584 H3590 0.984 . S
N3584 H3591 0.984 . S
N3585 C3578 1.356 . S
N3585 H3588 0.984 . S
N3585 H3589 0.985 . S
H3586 N3581 0.984 . S
H3587 N3581 0.985 . S
H3588 N3585 0.984 . S
H3589 N3585 0.985 . S
H3590 N3584 0.984 . S
H3591 N3584 0.984 . S
H3592 N3580 0.984 . S
H3593 N3580 0.985 . S
C3594 C3595 1.363 . S
C3594 C3600 1.379 . S
C3594 N3602 1.356 . S
C3595 C3594 1.363 . S
C3595 C3601 1.363 . S
C3596 C3597 1.363 . S
C3596 C3601 1.379 . S
C3596 N3603 1.356 . S
C3597 C3596 1.363 . S
C3597 C3600 1.363 . S
N3598 C3600 1.356 . S
N3598 H3610 0.984 . S
N3598 H3611 0.985 . S
N3599 C3601 1.356 . S
N3599 H3604 0.984 . S
N3599 H3605 0.985 . S
C3600 C3594 1.379 . S
C3600 C3597 1.363 . S
C3600 N3598 1.356 . S
C3601 C3595 1.363 . S
C3601 C3596 1.379 . S
C3601 N3599 1.356 . S
N3602 C3594 1.356 . S
N3602 H3608 0.984 . S
N3602 H3609 0.984 . S
N3603 C3596 1.356 . S
N3603 H3606 0.984 . S
N3603 H3607 0.985 . S
H3604 N3599 0.984 . S
H3605 N3599 0.985 . S
H3606 N3603 0.984 . S
H3607 N3603 0.985 . S
H3608 N3602 0.984 . S
H3609 N3602 0.984 . S
H3610 N3598 0.984 . S
H3611 N3598 0.985 . S
C3612 C3613 1.363 . S
C3612 C3618 1.379 . S
C3612 N3620 1.356 . S
C3613 C3612 1.363 . S
C3613 C3619 1.363 . S
C3614 C3615 1.363 . S
C3614 C3619 1.379 . S
C3614 N3621 1.356 . S
C3615 C3614 1.363 . S
C3615 C3618 1.363 . S
N3616 C3618 1.356 . S
N3616 H3628 0.984 . S
N3616 H3629 0.985 . S
N3617 C3619 1.356 . S
N3617 H3622 0.984 . S
N3617 H3623 0.985 . S
C3618 C3612 1.379 . S
C3618 C3615 1.363 . S
C3618 N3616 1.356 . S
C3619 C3613 1.363 . S
C3619 C3614 1.379 . S
C3619 N3617 1.356 . S
N3620 C3612 1.356 . S
N3620 H3626 0.984 . S
N3620 H3627 0.984 . S
N3621 C3614 1.356 . S
N3621 H3624 0.984 . S
N3621 H3625 0.985 . S
H3622 N3617 0.984 . S
H3623 N3617 0.985 . S
H3624 N3621 0.984 . S
H3625 N3621 0.985 . S
H3626 N3620 0.984 . S
H3627 N3620 0.984 . S
H3628 N3616 0.984 . S
H3629 N3616 0.985 . S
C3630 C3631 1.363 . S
C3630 C3636 1.379 . S
C3630 N3638 1.356 . S
C3631 C3630 1.363 . S
C3631 C3637 1.363 . S
C3632 C3633 1.363 . S
C3632 C3637 1.379 . S
C3632 N3639 1.356 . S
C3633 C3632 1.363 . S
C3633 C3636 1.363 . S
N3634 C3636 1.356 . S
N3634 H3646 0.984 . S
N3634 H3647 0.985 . S
N3635 C3637 1.356 . S
N3635 H3640 0.984 . S
N3635 H3641 0.985 . S
C3636 C3630 1.379 . S
C3636 C3633 1.363 . S
C3636 N3634 1.356 . S
C3637 C3631 1.363 . S
C3637 C3632 1.379 . S
C3637 N3635 1.356 . S
N3638 C3630 1.356 . S
N3638 H3644 0.984 . S
N3638 H3645 0.984 . S
N3639 C3632 1.356 . S
N3639 H3642 0.984 . S
N3639 H3643 0.985 . S
H3640 N3635 0.984 . S
H3641 N3635 0.985 . S
H3642 N3639 0.984 . S
H3643 N3639 0.985 . S
H3644 N3638 0.984 . S
H3645 N3638 0.984 . S
H3646 N3634 0.984 . S
H3647 N3634 0.985 . S
C3648 C3649 1.363 . S
C3648 C3654 1.379 . S
C3648 N3656 1.356 . S
C3649 C3648 1.363 . S
C3649 C3655 1.363 . S
C3650 C3651 1.363 . S
C3650 C3655 1.379 . S
C3650 N3657 1.356 . S
C3651 C3650 1.363 . S
C3651 C3654 1.363 . S
N3652 C3654 1.356 . S
N3652 H3664 0.984 . S
N3652 H3665 0.985 . S
N3653 C3655 1.356 . S
N3653 H3658 0.984 . S
N3653 H3659 0.985 . S
C3654 C3648 1.379 . S
C3654 C3651 1.363 . S
C3654 N3652 1.356 . S
C3655 C3649 1.363 . S
C3655 C3650 1.379 . S
C3655 N3653 1.356 . S
N3656 C3648 1.356 . S
N3656 H3662 0.984 . S
N3656 H3663 0.984 . S
N3657 C3650 1.356 . S
N3657 H3660 0.984 . S
N3657 H3661 0.985 . S
H3658 N3653 0.984 . S
H3659 N3653 0.985 . S
H3660 N3657 0.984 . S
H3661 N3657 0.985 . S
H3662 N3656 0.984 . S
H3663 N3656 0.984 . S
H3664 N3652 0.984 . S
H3665 N3652 0.985 . S
C3666 C3667 1.363 . S
C3666 C3672 1.379 . S
C3666 N3674 1.356 . S
C3667 C3666 1.363 . S
C3667 C3673 1.363 . S
C3668 C3669 1.363 . S
C3668 C3673 1.379 . S
C3668 N3675 1.356 . S
C3669 C3668 1.363 . S
C3669 C3672 1.363 . S
N3670 C3672 1.356 . S
N3670 H3682 0.984 . S
N3670 H3683 0.985 . S
N3671 C3673 1.356 . S
N3671 H3676 0.984 . S
N3671 H3677 0.985 . S
C3672 C3666 1.379 . S
C3672 C3669 1.363 . S
C3672 N3670 1.356 . S
C3673 C3667 1.363 . S
C3673 C3668 1.379 . S
C3673 N3671 1.356 . S
N3674 C3666 1.356 . S
N3674 H3680 0.984 . S
N3674 H3681 0.984 . S
N3675 C3668 1.356 . S
N3675 H3678 0.984 . S
N3675 H3679 0.985 . S
H3676 N3671 0.984 . S
H3677 N3671 0.985 . S
H3678 N3675 0.984 . S
H3679 N3675 0.985 . S
H3680 N3674 0.984 . S
H3681 N3674 0.984 . S
H3682 N3670 0.984 . S
H3683 N3670 0.985 . S
C3684 C3685 1.363 . S
C3684 C3690 1.379 . S
C3684 N3692 1.356 . S
C3685 C3684 1.363 . S
C3685 C3691 1.363 . S
C3686 C3687 1.363 . S
C3686 C3691 1.379 . S
C3686 N3693 1.356 . S
C3687 C3686 1.363 . S
C3687 C3690 1.363 . S
N3688 C3690 1.356 . S
N3688 H3700 0.984 . S
N3688 H3701 0.985 . S
N3689 C3691 1.356 . S
N3689 H3694 0.984 . S
N3689 H3695 0.985 . S
C3690 C3684 1.379 . S
C3690 C3687 1.363 . S
C3690 N3688 1.356 . S
C3691 C3685 1.363 . S
C3691 C3686 1.379 . S
C3691 N3689 1.356 . S
N3692 C3684 1.356 . S
N3692 H3698 0.984 . S
N3692 H3699 0.984 . S
N3693 C3686 1.356 . S
N3693 H3696 0.984 . S
N3693 H3697 0.985 . S
H3694 N3689 0.984 . S
H3695 N3689 0.985 . S
H3696 N3693 0.984 . S
H3697 N3693 0.985 . S
H3698 N3692 0.984 . S
H3699 N3692 0.984 . S
H3700 N3688 0.984 . S
H3701 N3688 0.985 . S
C3702 C3703 1.363 . S
C3702 C3708 1.379 . S
C3702 N3710 1.356 . S
C3703 C3702 1.363 . S
C3703 C3709 1.363 . S
C3704 C3705 1.363 . S
C3704 C3709 1.379 . S
C3704 N3711 1.356 . S
C3705 C3704 1.363 . S
C3705 C3708 1.363 . S
N3706 C3708 1.356 . S
N3706 H3718 0.984 . S
N3706 H3719 0.985 . S
N3707 C3709 1.356 . S
N3707 H3712 0.984 . S
N3707 H3713 0.985 . S
C3708 C3702 1.379 . S
C3708 C3705 1.363 . S
C3708 N3706 1.356 . S
C3709 C3703 1.363 . S
C3709 C3704 1.379 . S
C3709 N3707 1.356 . S
N3710 C3702 1.356 . S
N3710 H3716 0.984 . S
N3710 H3717 0.984 . S
N3711 C3704 1.356 . S
N3711 H3714 0.984 . S
N3711 H3715 0.985 . S
H3712 N3707 0.984 . S
H3713 N3707 0.985 . S
H3714 N3711 0.984 . S
H3715 N3711 0.985 . S
H3716 N3710 0.984 . S
H3717 N3710 0.984 . S
H3718 N3706 0.984 . S
H3719 N3706 0.985 . S
C3720 C3721 1.363 . S
C3720 C3726 1.379 . S
C3720 N3728 1.356 . S
C3721 C3720 1.363 . S
C3721 C3727 1.363 . S
C3722 C3723 1.363 . S
C3722 C3727 1.379 . S
C3722 N3729 1.356 . S
C3723 C3722 1.363 . S
C3723 C3726 1.363 . S
N3724 C3726 1.356 . S
N3724 H3736 0.984 . S
N3724 H3737 0.985 . S
N3725 C3727 1.356 . S
N3725 H3730 0.984 . S
N3725 H3731 0.985 . S
C3726 C3720 1.379 . S
C3726 C3723 1.363 . S
C3726 N3724 1.356 . S
C3727 C3721 1.363 . S
C3727 C3722 1.379 . S
C3727 N3725 1.356 . S
N3728 C3720 1.356 . S
N3728 H3734 0.984 . S
N3728 H3735 0.984 . S
N3729 C3722 1.356 . S
N3729 H3732 0.984 . S
N3729 H3733 0.985 . S
H3730 N3725 0.984 . S
H3731 N3725 0.985 . S
H3732 N3729 0.984 . S
H3733 N3729 0.985 . S
H3734 N3728 0.984 . S
H3735 N3728 0.984 . S
H3736 N3724 0.984 . S
H3737 N3724 0.985 . S
C3738 C3739 1.363 . S
C3738 C3744 1.379 . S
C3738 N3746 1.356 . S
C3739 C3738 1.363 . S
C3739 C3745 1.363 . S
C3740 C3741 1.363 . S
C3740 C3745 1.379 . S
C3740 N3747 1.356 . S
C3741 C3740 1.363 . S
C3741 C3744 1.363 . S
N3742 C3744 1.356 . S
N3742 H3754 0.984 . S
N3742 H3755 0.985 . S
N3743 C3745 1.356 . S
N3743 H3748 0.984 . S
N3743 H3749 0.985 . S
C3744 C3738 1.379 . S
C3744 C3741 1.363 . S
C3744 N3742 1.356 . S
C3745 C3739 1.363 . S
C3745 C3740 1.379 . S
C3745 N3743 1.356 . S
N3746 C3738 1.356 . S
N3746 H3752 0.984 . S
N3746 H3753 0.984 . S
N3747 C3740 1.356 . S
N3747 H3750 0.984 . S
N3747 H3751 0.985 . S
H3748 N3743 0.984 . S
H3749 N3743 0.985 . S
H3750 N3747 0.984 . S
H3751 N3747 0.985 . S
H3752 N3746 0.984 . S
H3753 N3746 0.984 . S
H3754 N3742 0.984 . S
H3755 N3742 0.985 . S
C3756 C3757 1.363 . S
C3756 C3762 1.379 . S
C3756 N3764 1.356 . S
C3757 C3756 1.363 . S
C3757 C3763 1.363 . S
C3758 C3759 1.363 . S
C3758 C3763 1.379 . S
C3758 N3765 1.356 . S
C3759 C3758 1.363 . S
C3759 C3762 1.363 . S
N3760 C3762 1.356 . S
N3760 H3772 0.984 . S
N3760 H3773 0.985 . S
N3761 C3763 1.356 . S
N3761 H3766 0.984 . S
N3761 H3767 0.985 . S
C3762 C3756 1.379 . S
C3762 C3759 1.363 . S
C3762 N3760 1.356 . S
C3763 C3757 1.363 . S
C3763 C3758 1.379 . S
C3763 N3761 1.356 . S
N3764 C3756 1.356 . S
N3764 H3770 0.984 . S
N3764 H3771 0.984 . S
N3765 C3758 1.356 . S
N3765 H3768 0.984 . S
N3765 H3769 0.985 . S
H3766 N3761 0.984 . S
H3767 N3761 0.985 . S
H3768 N3765 0.984 . S
H3769 N3765 0.985 . S
H3770 N3764 0.984 . S
H3771 N3764 0.984 . S
H3772 N3760 0.984 . S
H3773 N3760 0.985 . S
C3774 C3775 1.363 . S
C3774 C3780 1.379 . S
C3774 N3782 1.356 . S
C3775 C3774 1.363 . S
C3775 C3781 1.363 . S
C3776 C3777 1.363 . S
C3776 C3781 1.379 . S
C3776 N3783 1.356 . S
C3777 C3776 1.363 . S
C3777 C3780 1.363 . S
N3778 C3780 1.356 . S
N3778 H3790 0.984 . S
N3778 H3791 0.985 . S
N3779 C3781 1.356 . S
N3779 H3784 0.984 . S
N3779 H3785 0.985 . S
C3780 C3774 1.379 . S
C3780 C3777 1.363 . S
C3780 N3778 1.356 . S
C3781 C3775 1.363 . S
C3781 C3776 1.379 . S
C3781 N3779 1.356 . S
N3782 C3774 1.356 . S
N3782 H3788 0.984 . S
N3782 H3789 0.984 . S
N3783 C3776 1.356 . S
N3783 H3786 0.984 . S
N3783 H3787 0.985 . S
H3784 N3779 0.984 . S
H3785 N3779 0.985 . S
H3786 N3783 0.984 . S
H3787 N3783 0.985 . S
H3788 N3782 0.984 . S
H3789 N3782 0.984 . S
H3790 N3778 0.984 . S
H3791 N3778 0.985 . S
C3792 C3793 1.363 . S
C3792 C3798 1.379 . S
C3792 N3800 1.356 . S
C3793 C3792 1.363 . S
C3793 C3799 1.363 . S
C3794 C3795 1.363 . S
C3794 C3799 1.379 . S
C3794 N3801 1.356 . S
C3795 C3794 1.363 . S
C3795 C3798 1.363 . S
N3796 C3798 1.356 . S
N3796 H3808 0.984 . S
N3796 H3809 0.985 . S
N3797 C3799 1.356 . S
N3797 H3802 0.984 . S
N3797 H3803 0.985 . S
C3798 C3792 1.379 . S
C3798 C3795 1.363 . S
C3798 N3796 1.356 . S
C3799 C3793 1.363 . S
C3799 C3794 1.379 . S
C3799 N3797 1.356 . S
N3800 C3792 1.356 . S
N3800 H3806 0.984 . S
N3800 H3807 0.984 . S
N3801 C3794 1.356 . S
N3801 H3804 0.984 . S
N3801 H3805 0.985 . S
H3802 N3797 0.984 . S
H3803 N3797 0.985 . S
H3804 N3801 0.984 . S
H3805 N3801 0.985 . S
H3806 N3800 0.984 . S
H3807 N3800 0.984 . S
H3808 N3796 0.984 . S
H3809 N3796 0.985 . S
C3810 C3811 1.363 . S
C3810 C3816 1.379 . S
C3810 N3818 1.356 . S
C3811 C3810 1.363 . S
C3811 C3817 1.363 . S
C3812 C3813 1.363 . S
C3812 C3817 1.379 . S
C3812 N3819 1.356 . S
C3813 C3812 1.363 . S
C3813 C3816 1.363 . S
N3814 C3816 1.356 . S
N3814 H3826 0.984 . S
N3814 H3827 0.985 . S
N3815 C3817 1.356 . S
N3815 H3820 0.984 . S
N3815 H3821 0.985 . S
C3816 C3810 1.379 . S
C3816 C3813 1.363 . S
C3816 N3814 1.356 . S
C3817 C3811 1.363 . S
C3817 C3812 1.379 . S
C3817 N3815 1.356 . S
N3818 C3810 1.356 . S
N3818 H3824 0.984 . S
N3818 H3825 0.984 . S
N3819 C3812 1.356 . S
N3819 H3822 0.984 . S
N3819 H3823 0.985 . S
H3820 N3815 0.984 . S
H3821 N3815 0.985 . S
H3822 N3819 0.984 . S
H3823 N3819 0.985 . S
H3824 N3818 0.984 . S
H3825 N3818 0.984 . S
H3826 N3814 0.984 . S
H3827 N3814 0.985 . S
C3828 C3829 1.363 . S
C3828 C3834 1.379 . S
C3828 N3836 1.356 . S
C3829 C3828 1.363 . S
C3829 C3835 1.363 . S
C3830 C3831 1.363 . S
C3830 C3835 1.379 . S
C3830 N3837 1.356 . S
C3831 C3830 1.363 . S
C3831 C3834 1.363 . S
N3832 C3834 1.356 . S
N3832 H3844 0.984 . S
N3832 H3845 0.985 . S
N3833 C3835 1.356 . S
N3833 H3838 0.984 . S
N3833 H3839 0.985 . S
C3834 C3828 1.379 . S
C3834 C3831 1.363 . S
C3834 N3832 1.356 . S
C3835 C3829 1.363 . S
C3835 C3830 1.379 . S
C3835 N3833 1.356 . S
N3836 C3828 1.356 . S
N3836 H3842 0.984 . S
N3836 H3843 0.984 . S
N3837 C3830 1.356 . S
N3837 H3840 0.984 . S
N3837 H3841 0.985 . S
H3838 N3833 0.984 . S
H3839 N3833 0.985 . S
H3840 N3837 0.984 . S
H3841 N3837 0.985 . S
H3842 N3836 0.984 . S
H3843 N3836 0.984 . S
H3844 N3832 0.984 . S
H3845 N3832 0.985 . S
C3846 C3847 1.363 . S
C3846 C3852 1.379 . S
C3846 N3854 1.356 . S
C3847 C3846 1.363 . S
C3847 C3853 1.363 . S
C3848 C3849 1.363 . S
C3848 C3853 1.379 . S
C3848 N3855 1.356 . S
C3849 C3848 1.363 . S
C3849 C3852 1.363 . S
N3850 C3852 1.356 . S
N3850 H3862 0.984 . S
N3850 H3863 0.985 . S
N3851 C3853 1.356 . S
N3851 H3856 0.984 . S
N3851 H3857 0.985 . S
C3852 C3846 1.379 . S
C3852 C3849 1.363 . S
C3852 N3850 1.356 . S
C3853 C3847 1.363 . S
C3853 C3848 1.379 . S
C3853 N3851 1.356 . S
N3854 C3846 1.356 . S
N3854 H3860 0.984 . S
N3854 H3861 0.984 . S
N3855 C3848 1.356 . S
N3855 H3858 0.984 . S
N3855 H3859 0.985 . S
H3856 N3851 0.984 . S
H3857 N3851 0.985 . S
H3858 N3855 0.984 . S
H3859 N3855 0.985 . S
H3860 N3854 0.984 . S
H3861 N3854 0.984 . S
H3862 N3850 0.984 . S
H3863 N3850 0.985 . S
C3864 C3865 1.363 . S
C3864 C3870 1.379 . S
C3864 N3872 1.356 . S
C3865 C3864 1.363 . S
C3865 C3871 1.363 . S
C3866 C3867 1.363 . S
C3866 C3871 1.379 . S
C3866 N3873 1.356 . S
C3867 C3866 1.363 . S
C3867 C3870 1.363 . S
N3868 C3870 1.356 . S
N3868 H3880 0.984 . S
N3868 H3881 0.985 . S
N3869 C3871 1.356 . S
N3869 H3874 0.984 . S
N3869 H3875 0.985 . S
C3870 C3864 1.379 . S
C3870 C3867 1.363 . S
C3870 N3868 1.356 . S
C3871 C3865 1.363 . S
C3871 C3866 1.379 . S
C3871 N3869 1.356 . S
N3872 C3864 1.356 . S
N3872 H3878 0.984 . S
N3872 H3879 0.984 . S
N3873 C3866 1.356 . S
N3873 H3876 0.984 . S
N3873 H3877 0.985 . S
H3874 N3869 0.984 . S
H3875 N3869 0.985 . S
H3876 N3873 0.984 . S
H3877 N3873 0.985 . S
H3878 N3872 0.984 . S
H3879 N3872 0.984 . S
H3880 N3868 0.984 . S
H3881 N3868 0.985 . S
C3882 C3883 1.363 . S
C3882 C3888 1.379 . S
C3882 N3890 1.356 . S
C3883 C3882 1.363 . S
C3883 C3889 1.363 . S
C3884 C3885 1.363 . S
C3884 C3889 1.379 . S
C3884 N3891 1.356 . S
C3885 C3884 1.363 . S
C3885 C3888 1.363 . S
N3886 C3888 1.356 . S
N3886 H3898 0.984 . S
N3886 H3899 0.985 . S
N3887 C3889 1.356 . S
N3887 H3892 0.984 . S
N3887 H3893 0.985 . S
C3888 C3882 1.379 . S
C3888 C3885 1.363 . S
C3888 N3886 1.356 . S
C3889 C3883 1.363 . S
C3889 C3884 1.379 . S
C3889 N3887 1.356 . S
N3890 C3882 1.356 . S
N3890 H3896 0.984 . S
N3890 H3897 0.984 . S
N3891 C3884 1.356 . S
N3891 H3894 0.984 . S
N3891 H3895 0.985 . S
H3892 N3887 0.984 . S
H3893 N3887 0.985 . S
H3894 N3891 0.984 . S
H3895 N3891 0.985 . S
H3896 N3890 0.984 . S
H3897 N3890 0.984 . S
H3898 N3886 0.984 . S
H3899 N3886 0.985 . S
C3900 C3901 1.363 . S
C3900 C3906 1.379 . S
C3900 N3908 1.356 . S
C3901 C3900 1.363 . S
C3901 C3907 1.363 . S
C3902 C3903 1.363 . S
C3902 C3907 1.379 . S
C3902 N3909 1.356 . S
C3903 C3902 1.363 . S
C3903 C3906 1.363 . S
N3904 C3906 1.356 . S
N3904 H3916 0.984 . S
N3904 H3917 0.985 . S
N3905 C3907 1.356 . S
N3905 H3910 0.984 . S
N3905 H3911 0.985 . S
C3906 C3900 1.379 . S
C3906 C3903 1.363 . S
C3906 N3904 1.356 . S
C3907 C3901 1.363 . S
C3907 C3902 1.379 . S
C3907 N3905 1.356 . S
N3908 C3900 1.356 . S
N3908 H3914 0.984 . S
N3908 H3915 0.984 . S
N3909 C3902 1.356 . S
N3909 H3912 0.984 . S
N3909 H3913 0.985 . S
H3910 N3905 0.984 . S
H3911 N3905 0.985 . S
H3912 N3909 0.984 . S
H3913 N3909 0.985 . S
H3914 N3908 0.984 . S
H3915 N3908 0.984 . S
H3916 N3904 0.984 . S
H3917 N3904 0.985 . S
C3918 C3919 1.363 . S
C3918 C3924 1.379 . S
C3918 N3926 1.356 . S
C3919 C3918 1.363 . S
C3919 C3925 1.363 . S
C3920 C3921 1.363 . S
C3920 C3925 1.379 . S
C3920 N3927 1.356 . S
C3921 C3920 1.363 . S
C3921 C3924 1.363 . S
N3922 C3924 1.356 . S
N3922 H3934 0.984 . S
N3922 H3935 0.985 . S
N3923 C3925 1.356 . S
N3923 H3928 0.984 . S
N3923 H3929 0.985 . S
C3924 C3918 1.379 . S
C3924 C3921 1.363 . S
C3924 N3922 1.356 . S
C3925 C3919 1.363 . S
C3925 C3920 1.379 . S
C3925 N3923 1.356 . S
N3926 C3918 1.356 . S
N3926 H3932 0.984 . S
N3926 H3933 0.984 . S
N3927 C3920 1.356 . S
N3927 H3930 0.984 . S
N3927 H3931 0.985 . S
H3928 N3923 0.984 . S
H3929 N3923 0.985 . S
H3930 N3927 0.984 . S
H3931 N3927 0.985 . S
H3932 N3926 0.984 . S
H3933 N3926 0.984 . S
H3934 N3922 0.984 . S
H3935 N3922 0.985 . S
C3936 C3937 1.363 . S
C3936 C3942 1.379 . S
C3936 N3944 1.356 . S
C3937 C3936 1.363 . S
C3937 C3943 1.363 . S
C3938 C3939 1.363 . S
C3938 C3943 1.379 . S
C3938 N3945 1.356 . S
C3939 C3938 1.363 . S
C3939 C3942 1.363 . S
N3940 C3942 1.356 . S
N3940 H3952 0.984 . S
N3940 H3953 0.985 . S
N3941 C3943 1.356 . S
N3941 H3946 0.984 . S
N3941 H3947 0.985 . S
C3942 C3936 1.379 . S
C3942 C3939 1.363 . S
C3942 N3940 1.356 . S
C3943 C3937 1.363 . S
C3943 C3938 1.379 . S
C3943 N3941 1.356 . S
N3944 C3936 1.356 . S
N3944 H3950 0.984 . S
N3944 H3951 0.984 . S
N3945 C3938 1.356 . S
N3945 H3948 0.984 . S
N3945 H3949 0.985 . S
H3946 N3941 0.984 . S
H3947 N3941 0.985 . S
H3948 N3945 0.984 . S
H3949 N3945 0.985 . S
H3950 N3944 0.984 . S
H3951 N3944 0.984 . S
H3952 N3940 0.984 . S
H3953 N3940 0.985 . S
C3954 C3955 1.363 . S
C3954 C3960 1.379 . S
C3954 N3962 1.356 . S
C3955 C3954 1.363 . S
C3955 C3961 1.363 . S
C3956 C3957 1.363 . S
C3956 C3961 1.379 . S
C3956 N3963 1.356 . S
C3957 C3956 1.363 . S
C3957 C3960 1.363 . S
N3958 C3960 1.356 . S
N3958 H3970 0.984 . S
N3958 H3971 0.985 . S
N3959 C3961 1.356 . S
N3959 H3964 0.984 . S
N3959 H3965 0.985 . S
C3960 C3954 1.379 . S
C3960 C3957 1.363 . S
C3960 N3958 1.356 . S
C3961 C3955 1.363 . S
C3961 C3956 1.379 . S
C3961 N3959 1.356 . S
N3962 C3954 1.356 . S
N3962 H3968 0.984 . S
N3962 H3969 0.984 . S
N3963 C3956 1.356 . S
N3963 H3966 0.984 . S
N3963 H3967 0.985 . S
H3964 N3959 0.984 . S
H3965 N3959 0.985 . S
H3966 N3963 0.984 . S
H3967 N3963 0.985 . S
H3968 N3962 0.984 . S
H3969 N3962 0.984 . S
H3970 N3958 0.984 . S
H3971 N3958 0.985 . S
C3972 C3973 1.363 . S
C3972 C3978 1.379 . S
C3972 N3980 1.356 . S
C3973 C3972 1.363 . S
C3973 C3979 1.363 . S
C3974 C3975 1.363 . S
C3974 C3979 1.379 . S
C3974 N3981 1.356 . S
C3975 C3974 1.363 . S
C3975 C3978 1.363 . S
N3976 C3978 1.356 . S
N3976 H3988 0.984 . S
N3976 H3989 0.985 . S
N3977 C3979 1.356 . S
N3977 H3982 0.984 . S
N3977 H3983 0.985 . S
C3978 C3972 1.379 . S
C3978 C3975 1.363 . S
C3978 N3976 1.356 . S
C3979 C3973 1.363 . S
C3979 C3974 1.379 . S
C3979 N3977 1.356 . S
N3980 C3972 1.356 . S
N3980 H3986 0.984 . S
N3980 H3987 0.984 . S
N3981 C3974 1.356 . S
N3981 H3984 0.984 . S
N3981 H3985 0.985 . S
H3982 N3977 0.984 . S
H3983 N3977 0.985 . S
H3984 N3981 0.984 . S
H3985 N3981 0.985 . S
H3986 N3980 0.984 . S
H3987 N3980 0.984 . S
H3988 N3976 0.984 . S
H3989 N3976 0.985 . S
C3990 C3991 1.363 . S
C3990 C3996 1.379 . S
C3990 N3998 1.356 . S
C3991 C3990 1.363 . S
C3991 C3997 1.363 . S
C3992 C3993 1.363 . S
C3992 C3997 1.379 . S
C3992 N3999 1.356 . S
C3993 C3992 1.363 . S
C3993 C3996 1.363 . S
N3994 C3996 1.356 . S
N3994 H4006 0.984 . S
N3994 H4007 0.985 . S
N3995 C3997 1.356 . S
N3995 H4000 0.984 . S
N3995 H4001 0.985 . S
C3996 C3990 1.379 . S
C3996 C3993 1.363 . S
C3996 N3994 1.356 . S
C3997 C3991 1.363 . S
C3997 C3992 1.379 . S
C3997 N3995 1.356 . S
N3998 C3990 1.356 . S
N3998 H4004 0.984 . S
N3998 H4005 0.984 . S
N3999 C3992 1.356 . S
N3999 H4002 0.984 . S
N3999 H4003 0.985 . S
H4000 N3995 0.984 . S
H4001 N3995 0.985 . S
H4002 N3999 0.984 . S
H4003 N3999 0.985 . S
H4004 N3998 0.984 . S
H4005 N3998 0.984 . S
H4006 N3994 0.984 . S
H4007 N3994 0.985 . S
C4008 C4009 1.363 . S
C4008 C4014 1.379 . S
C4008 N4016 1.356 . S
C4009 C4008 1.363 . S
C4009 C4015 1.363 . S
C4010 C4011 1.363 . S
C4010 C4015 1.379 . S
C4010 N4017 1.356 . S
C4011 C4010 1.363 . S
C4011 C4014 1.363 . S
N4012 C4014 1.356 . S
N4012 H4024 0.984 . S
N4012 H4025 0.985 . S
N4013 C4015 1.356 . S
N4013 H4018 0.984 . S
N4013 H4019 0.985 . S
C4014 C4008 1.379 . S
C4014 C4011 1.363 . S
C4014 N4012 1.356 . S
C4015 C4009 1.363 . S
C4015 C4010 1.379 . S
C4015 N4013 1.356 . S
N4016 C4008 1.356 . S
N4016 H4022 0.984 . S
N4016 H4023 0.984 . S
N4017 C4010 1.356 . S
N4017 H4020 0.984 . S
N4017 H4021 0.985 . S
H4018 N4013 0.984 . S
H4019 N4013 0.985 . S
H4020 N4017 0.984 . S
H4021 N4017 0.985 . S
H4022 N4016 0.984 . S
H4023 N4016 0.984 . S
H4024 N4012 0.984 . S
H4025 N4012 0.985 . S
C4026 C4027 1.363 . S
C4026 C4032 1.379 . S
C4026 N4034 1.356 . S
C4027 C4026 1.363 . S
C4027 C4033 1.363 . S
C4028 C4029 1.363 . S
C4028 C4033 1.379 . S
C4028 N4035 1.356 . S
C4029 C4028 1.363 . S
C4029 C4032 1.363 . S
N4030 C4032 1.356 . S
N4030 H4042 0.984 . S
N4030 H4043 0.985 . S
N4031 C4033 1.356 . S
N4031 H4036 0.984 . S
N4031 H4037 0.985 . S
C4032 C4026 1.379 . S
C4032 C4029 1.363 . S
C4032 N4030 1.356 . S
C4033 C4027 1.363 . S
C4033 C4028 1.379 . S
C4033 N4031 1.356 . S
N4034 C4026 1.356 . S
N4034 H4040 0.984 . S
N4034 H4041 0.984 . S
N4035 C4028 1.356 . S
N4035 H4038 0.984 . S
N4035 H4039 0.985 . S
H4036 N4031 0.984 . S
H4037 N4031 0.985 . S
H4038 N4035 0.984 . S
H4039 N4035 0.985 . S
H4040 N4034 0.984 . S
H4041 N4034 0.984 . S
H4042 N4030 0.984 . S
H4043 N4030 0.985 . S
C4044 C4045 1.363 . S
C4044 C4050 1.379 . S
C4044 N4052 1.356 . S
C4045 C4044 1.363 . S
C4045 C4051 1.363 . S
C4046 C4047 1.363 . S
C4046 C4051 1.379 . S
C4046 N4053 1.356 . S
C4047 C4046 1.363 . S
C4047 C4050 1.363 . S
N4048 C4050 1.356 . S
N4048 H4060 0.984 . S
N4048 H4061 0.985 . S
N4049 C4051 1.356 . S
N4049 H4054 0.984 . S
N4049 H4055 0.985 . S
C4050 C4044 1.379 . S
C4050 C4047 1.363 . S
C4050 N4048 1.356 . S
C4051 C4045 1.363 . S
C4051 C4046 1.379 . S
C4051 N4049 1.356 . S
N4052 C4044 1.356 . S
N4052 H4058 0.984 . S
N4052 H4059 0.984 . S
N4053 C4046 1.356 . S
N4053 H4056 0.984 . S
N4053 H4057 0.985 . S
H4054 N4049 0.984 . S
H4055 N4049 0.985 . S
H4056 N4053 0.984 . S
H4057 N4053 0.985 . S
H4058 N4052 0.984 . S
H4059 N4052 0.984 . S
H4060 N4048 0.984 . S
H4061 N4048 0.985 . S
C4062 C4063 1.363 . S
C4062 C4068 1.379 . S
C4062 N4070 1.356 . S
C4063 C4062 1.363 . S
C4063 C4069 1.363 . S
C4064 C4065 1.363 . S
C4064 C4069 1.379 . S
C4064 N4071 1.356 . S
C4065 C4064 1.363 . S
C4065 C4068 1.363 . S
N4066 C4068 1.356 . S
N4066 H4078 0.984 . S
N4066 H4079 0.985 . S
N4067 C4069 1.356 . S
N4067 H4072 0.984 . S
N4067 H4073 0.985 . S
C4068 C4062 1.379 . S
C4068 C4065 1.363 . S
C4068 N4066 1.356 . S
C4069 C4063 1.363 . S
C4069 C4064 1.379 . S
C4069 N4067 1.356 . S
N4070 C4062 1.356 . S
N4070 H4076 0.984 . S
N4070 H4077 0.984 . S
N4071 C4064 1.356 . S
N4071 H4074 0.984 . S
N4071 H4075 0.985 . S
H4072 N4067 0.984 . S
H4073 N4067 0.985 . S
H4074 N4071 0.984 . S
H4075 N4071 0.985 . S
H4076 N4070 0.984 . S
H4077 N4070 0.984 . S
H4078 N4066 0.984 . S
H4079 N4066 0.985 . S
C4080 C4081 1.363 . S
C4080 C4086 1.379 . S
C4080 N4088 1.356 . S
C4081 C4080 1.363 . S
C4081 C4087 1.363 . S
C4082 C4083 1.363 . S
C4082 C4087 1.379 . S
C4082 N4089 1.356 . S
C4083 C4082 1.363 . S
C4083 C4086 1.363 . S
N4084 C4086 1.356 . S
N4084 H4096 0.984 . S
N4084 H4097 0.985 . S
N4085 C4087 1.356 . S
N4085 H4090 0.984 . S
N4085 H4091 0.985 . S
C4086 C4080 1.379 . S
C4086 C4083 1.363 . S
C4086 N4084 1.356 . S
C4087 C4081 1.363 . S
C4087 C4082 1.379 . S
C4087 N4085 1.356 . S
N4088 C4080 1.356 . S
N4088 H4094 0.984 . S
N4088 H4095 0.984 . S
N4089 C4082 1.356 . S
N4089 H4092 0.984 . S
N4089 H4093 0.985 . S
H4090 N4085 0.984 . S
H4091 N4085 0.985 . S
H4092 N4089 0.984 . S
H4093 N4089 0.985 . S
H4094 N4088 0.984 . S
H4095 N4088 0.984 . S
H4096 N4084 0.984 . S
H4097 N4084 0.985 . S
C4098 C4099 1.363 . S
C4098 C4104 1.379 . S
C4098 N4106 1.356 . S
C4099 C4098 1.363 . S
C4099 C4105 1.363 . S
C4100 C4101 1.363 . S
C4100 C4105 1.379 . S
C4100 N4107 1.356 . S
C4101 C4100 1.363 . S
C4101 C4104 1.363 . S
N4102 C4104 1.356 . S
N4102 H4114 0.984 . S
N4102 H4115 0.985 . S
N4103 C4105 1.356 . S
N4103 H4108 0.984 . S
N4103 H4109 0.985 . S
C4104 C4098 1.379 . S
C4104 C4101 1.363 . S
C4104 N4102 1.356 . S
C4105 C4099 1.363 . S
C4105 C4100 1.379 . S
C4105 N4103 1.356 . S
N4106 C4098 1.356 . S
N4106 H4112 0.984 . S
N4106 H4113 0.984 . S
N4107 C4100 1.356 . S
N4107 H4110 0.984 . S
N4107 H4111 0.985 . S
H4108 N4103 0.984 . S
H4109 N4103 0.985 . S
H4110 N4107 0.984 . S
H4111 N4107 0.985 . S
H4112 N4106 0.984 . S
H4113 N4106 0.984 . S
H4114 N4102 0.984 . S
H4115 N4102 0.985 . S
C4116 C4117 1.363 . S
C4116 C4122 1.379 . S
C4116 N4124 1.356 . S
C4117 C4116 1.363 . S
C4117 C4123 1.363 . S
C4118 C4119 1.363 . S
C4118 C4123 1.379 . S
C4118 N4125 1.356 . S
C4119 C4118 1.363 . S
C4119 C4122 1.363 . S
N4120 C4122 1.356 . S
N4120 H4132 0.984 . S
N4120 H4133 0.985 . S
N4121 C4123 1.356 . S
N4121 H4126 0.984 . S
N4121 H4127 0.985 . S
C4122 C4116 1.379 . S
C4122 C4119 1.363 . S
C4122 N4120 1.356 . S
C4123 C4117 1.363 . S
C4123 C4118 1.379 . S
C4123 N4121 1.356 . S
N4124 C4116 1.356 . S
N4124 H4130 0.984 . S
N4124 H4131 0.984 . S
N4125 C4118 1.356 . S
N4125 H4128 0.984 . S
N4125 H4129 0.985 . S
H4126 N4121 0.984 . S
H4127 N4121 0.985 . S
H4128 N4125 0.984 . S
H4129 N4125 0.985 . S
H4130 N4124 0.984 . S
H4131 N4124 0.984 . S
H4132 N4120 0.984 . S
H4133 N4120 0.985 . S
C4134 C4135 1.363 . S
C4134 C4140 1.379 . S
C4134 N4142 1.356 . S
C4135 C4134 1.363 . S
C4135 C4141 1.363 . S
C4136 C4137 1.363 . S
C4136 C4141 1.379 . S
C4136 N4143 1.356 . S
C4137 C4136 1.363 . S
C4137 C4140 1.363 . S
N4138 C4140 1.356 . S
N4138 H4150 0.984 . S
N4138 H4151 0.985 . S
N4139 C4141 1.356 . S
N4139 H4144 0.984 . S
N4139 H4145 0.985 . S
C4140 C4134 1.379 . S
C4140 C4137 1.363 . S
C4140 N4138 1.356 . S
C4141 C4135 1.363 . S
C4141 C4136 1.379 . S
C4141 N4139 1.356 . S
N4142 C4134 1.356 . S
N4142 H4148 0.984 . S
N4142 H4149 0.984 . S
N4143 C4136 1.356 . S
N4143 H4146 0.984 . S
N4143 H4147 0.985 . S
H4144 N4139 0.984 . S
H4145 N4139 0.985 . S
H4146 N4143 0.984 . S
H4147 N4143 0.985 . S
H4148 N4142 0.984 . S
H4149 N4142 0.984 . S
H4150 N4138 0.984 . S
H4151 N4138 0.985 . S
C4152 C4153 1.363 . S
C4152 C4158 1.379 . S
C4152 N4160 1.356 . S
C4153 C4152 1.363 . S
C4153 C4159 1.363 . S
C4154 C4155 1.363 . S
C4154 C4159 1.379 . S
C4154 N4161 1.356 . S
C4155 C4154 1.363 . S
C4155 C4158 1.363 . S
N4156 C4158 1.356 . S
N4156 H4168 0.984 . S
N4156 H4169 0.985 . S
N4157 C4159 1.356 . S
N4157 H4162 0.984 . S
N4157 H4163 0.985 . S
C4158 C4152 1.379 . S
C4158 C4155 1.363 . S
C4158 N4156 1.356 . S
C4159 C4153 1.363 . S
C4159 C4154 1.379 . S
C4159 N4157 1.356 . S
N4160 C4152 1.356 . S
N4160 H4166 0.984 . S
N4160 H4167 0.984 . S
N4161 C4154 1.356 . S
N4161 H4164 0.984 . S
N4161 H4165 0.985 . S
H4162 N4157 0.984 . S
H4163 N4157 0.985 . S
H4164 N4161 0.984 . S
H4165 N4161 0.985 . S
H4166 N4160 0.984 . S
H4167 N4160 0.984 . S
H4168 N4156 0.984 . S
H4169 N4156 0.985 . S
C4170 C4171 1.363 . S
C4170 C4176 1.379 . S
C4170 N4178 1.356 . S
C4171 C4170 1.363 . S
C4171 C4177 1.363 . S
C4172 C4173 1.363 . S
C4172 C4177 1.379 . S
C4172 N4179 1.356 . S
C4173 C4172 1.363 . S
C4173 C4176 1.363 . S
N4174 C4176 1.356 . S
N4174 H4186 0.984 . S
N4174 H4187 0.985 . S
N4175 C4177 1.356 . S
N4175 H4180 0.984 . S
N4175 H4181 0.985 . S
C4176 C4170 1.379 . S
C4176 C4173 1.363 . S
C4176 N4174 1.356 . S
C4177 C4171 1.363 . S
C4177 C4172 1.379 . S
C4177 N4175 1.356 . S
N4178 C4170 1.356 . S
N4178 H4184 0.984 . S
N4178 H4185 0.984 . S
N4179 C4172 1.356 . S
N4179 H4182 0.984 . S
N4179 H4183 0.985 . S
H4180 N4175 0.984 . S
H4181 N4175 0.985 . S
H4182 N4179 0.984 . S
H4183 N4179 0.985 . S
H4184 N4178 0.984 . S
H4185 N4178 0.984 . S
H4186 N4174 0.984 . S
H4187 N4174 0.985 . S
C4188 C4189 1.363 . S
C4188 C4194 1.379 . S
C4188 N4196 1.356 . S
C4189 C4188 1.363 . S
C4189 C4195 1.363 . S
C4190 C4191 1.363 . S
C4190 C4195 1.379 . S
C4190 N4197 1.356 . S
C4191 C4190 1.363 . S
C4191 C4194 1.363 . S
N4192 C4194 1.356 . S
N4192 H4204 0.984 . S
N4192 H4205 0.985 . S
N4193 C4195 1.356 . S
N4193 H4198 0.984 . S
N4193 H4199 0.985 . S
C4194 C4188 1.379 . S
C4194 C4191 1.363 . S
C4194 N4192 1.356 . S
C4195 C4189 1.363 . S
C4195 C4190 1.379 . S
C4195 N4193 1.356 . S
N4196 C4188 1.356 . S
N4196 H4202 0.984 . S
N4196 H4203 0.984 . S
N4197 C4190 1.356 . S
N4197 H4200 0.984 . S
N4197 H4201 0.985 . S
H4198 N4193 0.984 . S
H4199 N4193 0.985 . S
H4200 N4197 0.984 . S
H4201 N4197 0.985 . S
H4202 N4196 0.984 . S
H4203 N4196 0.984 . S
H4204 N4192 0.984 . S
H4205 N4192 0.985 . S
C4206 C4207 1.363 . S
C4206 C4212 1.379 . S
C4206 N4214 1.356 . S
C4207 C4206 1.363 . S
C4207 C4213 1.363 . S
C4208 C4209 1.363 . S
C4208 C4213 1.379 . S
C4208 N4215 1.356 . S
C4209 C4208 1.363 . S
C4209 C4212 1.363 . S
N4210 C4212 1.356 . S
N4210 H4222 0.984 . S
N4210 H4223 0.985 . S
N4211 C4213 1.356 . S
N4211 H4216 0.984 . S
N4211 H4217 0.985 . S
C4212 C4206 1.379 . S
C4212 C4209 1.363 . S
C4212 N4210 1.356 . S
C4213 C4207 1.363 . S
C4213 C4208 1.379 . S
C4213 N4211 1.356 . S
N4214 C4206 1.356 . S
N4214 H4220 0.984 . S
N4214 H4221 0.984 . S
N4215 C4208 1.356 . S
N4215 H4218 0.984 . S
N4215 H4219 0.985 . S
H4216 N4211 0.984 . S
H4217 N4211 0.985 . S
H4218 N4215 0.984 . S
H4219 N4215 0.985 . S
H4220 N4214 0.984 . S
H4221 N4214 0.984 . S
H4222 N4210 0.984 . S
H4223 N4210 0.985 . S
C4224 C4225 1.363 . S
C4224 C4230 1.379 . S
C4224 N4232 1.356 . S
C4225 C4224 1.363 . S
C4225 C4231 1.363 . S
C4226 C4227 1.363 . S
C4226 C4231 1.379 . S
C4226 N4233 1.356 . S
C4227 C4226 1.363 . S
C4227 C4230 1.363 . S
N4228 C4230 1.356 . S
N4228 H4240 0.984 . S
N4228 H4241 0.985 . S
N4229 C4231 1.356 . S
N4229 H4234 0.984 . S
N4229 H4235 0.985 . S
C4230 C4224 1.379 . S
C4230 C4227 1.363 . S
C4230 N4228 1.356 . S
C4231 C4225 1.363 . S
C4231 C4226 1.379 . S
C4231 N4229 1.356 . S
N4232 C4224 1.356 . S
N4232 H4238 0.984 . S
N4232 H4239 0.984 . S
N4233 C4226 1.356 . S
N4233 H4236 0.984 . S
N4233 H4237 0.985 . S
H4234 N4229 0.984 . S
H4235 N4229 0.985 . S
H4236 N4233 0.984 . S
H4237 N4233 0.985 . S
H4238 N4232 0.984 . S
H4239 N4232 0.984 . S
H4240 N4228 0.984 . S
H4241 N4228 0.985 . S
C4242 C4243 1.363 . S
C4242 C4248 1.379 . S
C4242 N4250 1.356 . S
C4243 C4242 1.363 . S
C4243 C4249 1.363 . S
C4244 C4245 1.363 . S
C4244 C4249 1.379 . S
C4244 N4251 1.356 . S
C4245 C4244 1.363 . S
C4245 C4248 1.363 . S
N4246 C4248 1.356 . S
N4246 H4258 0.984 . S
N4246 H4259 0.985 . S
N4247 C4249 1.356 . S
N4247 H4252 0.984 . S
N4247 H4253 0.985 . S
C4248 C4242 1.379 . S
C4248 C4245 1.363 . S
C4248 N4246 1.356 . S
C4249 C4243 1.363 . S
C4249 C4244 1.379 . S
C4249 N4247 1.356 . S
N4250 C4242 1.356 . S
N4250 H4256 0.984 . S
N4250 H4257 0.984 . S
N4251 C4244 1.356 . S
N4251 H4254 0.984 . S
N4251 H4255 0.985 . S
H4252 N4247 0.984 . S
H4253 N4247 0.985 . S
H4254 N4251 0.984 . S
H4255 N4251 0.985 . S
H4256 N4250 0.984 . S
H4257 N4250 0.984 . S
H4258 N4246 0.984 . S
H4259 N4246 0.985 . S
C4260 C4261 1.363 . S
C4260 C4266 1.379 . S
C4260 N4268 1.356 . S
C4261 C4260 1.363 . S
C4261 C4267 1.363 . S
C4262 C4263 1.363 . S
C4262 C4267 1.379 . S
C4262 N4269 1.356 . S
C4263 C4262 1.363 . S
C4263 C4266 1.363 . S
N4264 C4266 1.356 . S
N4264 H4276 0.984 . S
N4264 H4277 0.985 . S
N4265 C4267 1.356 . S
N4265 H4270 0.984 . S
N4265 H4271 0.985 . S
C4266 C4260 1.379 . S
C4266 C4263 1.363 . S
C4266 N4264 1.356 . S
C4267 C4261 1.363 . S
C4267 C4262 1.379 . S
C4267 N4265 1.356 . S
N4268 C4260 1.356 . S
N4268 H4274 0.984 . S
N4268 H4275 0.984 . S
N4269 C4262 1.356 . S
N4269 H4272 0.984 . S
N4269 H4273 0.985 . S
H4270 N4265 0.984 . S
H4271 N4265 0.985 . S
H4272 N4269 0.984 . S
H4273 N4269 0.985 . S
H4274 N4268 0.984 . S
H4275 N4268 0.984 . S
H4276 N4264 0.984 . S
H4277 N4264 0.985 . S
C4278 C4279 1.363 . S
C4278 C4284 1.379 . S
C4278 N4286 1.356 . S
C4279 C4278 1.363 . S
C4279 C4285 1.363 . S
C4280 C4281 1.363 . S
C4280 C4285 1.379 . S
C4280 N4287 1.356 . S
C4281 C4280 1.363 . S
C4281 C4284 1.363 . S
N4282 C4284 1.356 . S
N4282 H4294 0.984 . S
N4282 H4295 0.985 . S
N4283 C4285 1.356 . S
N4283 H4288 0.984 . S
N4283 H4289 0.985 . S
C4284 C4278 1.379 . S
C4284 C4281 1.363 . S
C4284 N4282 1.356 . S
C4285 C4279 1.363 . S
C4285 C4280 1.379 . S
C4285 N4283 1.356 . S
N4286 C4278 1.356 . S
N4286 H4292 0.984 . S
N4286 H4293 0.984 . S
N4287 C4280 1.356 . S
N4287 H4290 0.984 . S
N4287 H4291 0.985 . S
H4288 N4283 0.984 . S
H4289 N4283 0.985 . S
H4290 N4287 0.984 . S
H4291 N4287 0.985 . S
H4292 N4286 0.984 . S
H4293 N4286 0.984 . S
H4294 N4282 0.984 . S
H4295 N4282 0.985 . S
C4296 C4297 1.363 . S
C4296 C4302 1.379 . S
C4296 N4304 1.356 . S
C4297 C4296 1.363 . S
C4297 C4303 1.363 . S
C4298 C4299 1.363 . S
C4298 C4303 1.379 . S
C4298 N4305 1.356 . S
C4299 C4298 1.363 . S
C4299 C4302 1.363 . S
N4300 C4302 1.356 . S
N4300 H4312 0.984 . S
N4300 H4313 0.985 . S
N4301 C4303 1.356 . S
N4301 H4306 0.984 . S
N4301 H4307 0.985 . S
C4302 C4296 1.379 . S
C4302 C4299 1.363 . S
C4302 N4300 1.356 . S
C4303 C4297 1.363 . S
C4303 C4298 1.379 . S
C4303 N4301 1.356 . S
N4304 C4296 1.356 . S
N4304 H4310 0.984 . S
N4304 H4311 0.984 . S
N4305 C4298 1.356 . S
N4305 H4308 0.984 . S
N4305 H4309 0.985 . S
H4306 N4301 0.984 . S
H4307 N4301 0.985 . S
H4308 N4305 0.984 . S
H4309 N4305 0.985 . S
H4310 N4304 0.984 . S
H4311 N4304 0.984 . S
H4312 N4300 0.984 . S
H4313 N4300 0.985 . S
C4314 C4315 1.363 . S
C4314 C4320 1.379 . S
C4314 N4322 1.356 . S
C4315 C4314 1.363 . S
C4315 C4321 1.363 . S
C4316 C4317 1.363 . S
C4316 C4321 1.379 . S
C4316 N4323 1.356 . S
C4317 C4316 1.363 . S
C4317 C4320 1.363 . S
N4318 C4320 1.356 . S
N4318 H4330 0.984 . S
N4318 H4331 0.985 . S
N4319 C4321 1.356 . S
N4319 H4324 0.984 . S
N4319 H4325 0.985 . S
C4320 C4314 1.379 . S
C4320 C4317 1.363 . S
C4320 N4318 1.356 . S
C4321 C4315 1.363 . S
C4321 C4316 1.379 . S
C4321 N4319 1.356 . S
N4322 C4314 1.356 . S
N4322 H4328 0.984 . S
N4322 H4329 0.984 . S
N4323 C4316 1.356 . S
N4323 H4326 0.984 . S
N4323 H4327 0.985 . S
H4324 N4319 0.984 . S
H4325 N4319 0.985 . S
H4326 N4323 0.984 . S
H4327 N4323 0.985 . S
H4328 N4322 0.984 . S
H4329 N4322 0.984 . S
H4330 N4318 0.984 . S
H4331 N4318 0.985 . S
C4332 C4333 1.363 . S
C4332 C4338 1.379 . S
C4332 N4340 1.356 . S
C4333 C4332 1.363 . S
C4333 C4339 1.363 . S
C4334 C4335 1.363 . S
C4334 C4339 1.379 . S
C4334 N4341 1.356 . S
C4335 C4334 1.363 . S
C4335 C4338 1.363 . S
N4336 C4338 1.356 . S
N4336 H4348 0.984 . S
N4336 H4349 0.985 . S
N4337 C4339 1.356 . S
N4337 H4342 0.984 . S
N4337 H4343 0.985 . S
C4338 C4332 1.379 . S
C4338 C4335 1.363 . S
C4338 N4336 1.356 . S
C4339 C4333 1.363 . S
C4339 C4334 1.379 . S
C4339 N4337 1.356 . S
N4340 C4332 1.356 . S
N4340 H4346 0.984 . S
N4340 H4347 0.984 . S
N4341 C4334 1.356 . S
N4341 H4344 0.984 . S
N4341 H4345 0.985 . S
H4342 N4337 0.984 . S
H4343 N4337 0.985 . S
H4344 N4341 0.984 . S
H4345 N4341 0.985 . S
H4346 N4340 0.984 . S
H4347 N4340 0.984 . S
H4348 N4336 0.984 . S
H4349 N4336 0.985 . S
C4350 C4351 1.363 . S
C4350 C4356 1.379 . S
C4350 N4358 1.356 . S
C4351 C4350 1.363 . S
C4351 C4357 1.363 . S
C4352 C4353 1.363 . S
C4352 C4357 1.379 . S
C4352 N4359 1.356 . S
C4353 C4352 1.363 . S
C4353 C4356 1.363 . S
N4354 C4356 1.356 . S
N4354 H4366 0.984 . S
N4354 H4367 0.985 . S
N4355 C4357 1.356 . S
N4355 H4360 0.984 . S
N4355 H4361 0.985 . S
C4356 C4350 1.379 . S
C4356 C4353 1.363 . S
C4356 N4354 1.356 . S
C4357 C4351 1.363 . S
C4357 C4352 1.379 . S
C4357 N4355 1.356 . S
N4358 C4350 1.356 . S
N4358 H4364 0.984 . S
N4358 H4365 0.984 . S
N4359 C4352 1.356 . S
N4359 H4362 0.984 . S
N4359 H4363 0.985 . S
H4360 N4355 0.984 . S
H4361 N4355 0.985 . S
H4362 N4359 0.984 . S
H4363 N4359 0.985 . S
H4364 N4358 0.984 . S
H4365 N4358 0.984 . S
H4366 N4354 0.984 . S
H4367 N4354 0.985 . S
C4368 C4369 1.363 . S
C4368 C4374 1.379 . S
C4368 N4376 1.356 . S
C4369 C4368 1.363 . S
C4369 C4375 1.363 . S
C4370 C4371 1.363 . S
C4370 C4375 1.379 . S
C4370 N4377 1.356 . S
C4371 C4370 1.363 . S
C4371 C4374 1.363 . S
N4372 C4374 1.356 . S
N4372 H4384 0.984 . S
N4372 H4385 0.985 . S
N4373 C4375 1.356 . S
N4373 H4378 0.984 . S
N4373 H4379 0.985 . S
C4374 C4368 1.379 . S
C4374 C4371 1.363 . S
C4374 N4372 1.356 . S
C4375 C4369 1.363 . S
C4375 C4370 1.379 . S
C4375 N4373 1.356 . S
N4376 C4368 1.356 . S
N4376 H4382 0.984 . S
N4376 H4383 0.984 . S
N4377 C4370 1.356 . S
N4377 H4380 0.984 . S
N4377 H4381 0.985 . S
H4378 N4373 0.984 . S
H4379 N4373 0.985 . S
H4380 N4377 0.984 . S
H4381 N4377 0.985 . S
H4382 N4376 0.984 . S
H4383 N4376 0.984 . S
H4384 N4372 0.984 . S
H4385 N4372 0.985 . S
C4386 C4387 1.363 . S
C4386 C4392 1.379 . S
C4386 N4394 1.356 . S
C4387 C4386 1.363 . S
C4387 C4393 1.363 . S
C4388 C4389 1.363 . S
C4388 C4393 1.379 . S
C4388 N4395 1.356 . S
C4389 C4388 1.363 . S
C4389 C4392 1.363 . S
N4390 C4392 1.356 . S
N4390 H4402 0.984 . S
N4390 H4403 0.985 . S
N4391 C4393 1.356 . S
N4391 H4396 0.984 . S
N4391 H4397 0.985 . S
C4392 C4386 1.379 . S
C4392 C4389 1.363 . S
C4392 N4390 1.356 . S
C4393 C4387 1.363 . S
C4393 C4388 1.379 . S
C4393 N4391 1.356 . S
N4394 C4386 1.356 . S
N4394 H4400 0.984 . S
N4394 H4401 0.984 . S
N4395 C4388 1.356 . S
N4395 H4398 0.984 . S
N4395 H4399 0.985 . S
H4396 N4391 0.984 . S
H4397 N4391 0.985 . S
H4398 N4395 0.984 . S
H4399 N4395 0.985 . S
H4400 N4394 0.984 . S
H4401 N4394 0.984 . S
H4402 N4390 0.984 . S
H4403 N4390 0.985 . S
C4404 C4405 1.363 . S
C4404 C4410 1.379 . S
C4404 N4412 1.356 . S
C4405 C4404 1.363 . S
C4405 C4411 1.363 . S
C4406 C4407 1.363 . S
C4406 C4411 1.379 . S
C4406 N4413 1.356 . S
C4407 C4406 1.363 . S
C4407 C4410 1.363 . S
N4408 C4410 1.356 . S
N4408 H4420 0.984 . S
N4408 H4421 0.985 . S
N4409 C4411 1.356 . S
N4409 H4414 0.984 . S
N4409 H4415 0.985 . S
C4410 C4404 1.379 . S
C4410 C4407 1.363 . S
C4410 N4408 1.356 . S
C4411 C4405 1.363 . S
C4411 C4406 1.379 . S
C4411 N4409 1.356 . S
N4412 C4404 1.356 . S
N4412 H4418 0.984 . S
N4412 H4419 0.984 . S
N4413 C4406 1.356 . S
N4413 H4416 0.984 . S
N4413 H4417 0.985 . S
H4414 N4409 0.984 . S
H4415 N4409 0.985 . S
H4416 N4413 0.984 . S
H4417 N4413 0.985 . S
H4418 N4412 0.984 . S
H4419 N4412 0.984 . S
H4420 N4408 0.984 . S
H4421 N4408 0.985 . S
C4422 C4423 1.363 . S
C4422 C4428 1.379 . S
C4422 N4430 1.356 . S
C4423 C4422 1.363 . S
C4423 C4429 1.363 . S
C4424 C4425 1.363 . S
C4424 C4429 1.379 . S
C4424 N4431 1.356 . S
C4425 C4424 1.363 . S
C4425 C4428 1.363 . S
N4426 C4428 1.356 . S
N4426 H4438 0.984 . S
N4426 H4439 0.985 . S
N4427 C4429 1.356 . S
N4427 H4432 0.984 . S
N4427 H4433 0.985 . S
C4428 C4422 1.379 . S
C4428 C4425 1.363 . S
C4428 N4426 1.356 . S
C4429 C4423 1.363 . S
C4429 C4424 1.379 . S
C4429 N4427 1.356 . S
N4430 C4422 1.356 . S
N4430 H4436 0.984 . S
N4430 H4437 0.984 . S
N4431 C4424 1.356 . S
N4431 H4434 0.984 . S
N4431 H4435 0.985 . S
H4432 N4427 0.984 . S
H4433 N4427 0.985 . S
H4434 N4431 0.984 . S
H4435 N4431 0.985 . S
H4436 N4430 0.984 . S
H4437 N4430 0.984 . S
H4438 N4426 0.984 . S
H4439 N4426 0.985 . S
C4440 C4441 1.363 . S
C4440 C4446 1.379 . S
C4440 N4448 1.356 . S
C4441 C4440 1.363 . S
C4441 C4447 1.363 . S
C4442 C4443 1.363 . S
C4442 C4447 1.379 . S
C4442 N4449 1.356 . S
C4443 C4442 1.363 . S
C4443 C4446 1.363 . S
N4444 C4446 1.356 . S
N4444 H4456 0.984 . S
N4444 H4457 0.985 . S
N4445 C4447 1.356 . S
N4445 H4450 0.984 . S
N4445 H4451 0.985 . S
C4446 C4440 1.379 . S
C4446 C4443 1.363 . S
C4446 N4444 1.356 . S
C4447 C4441 1.363 . S
C4447 C4442 1.379 . S
C4447 N4445 1.356 . S
N4448 C4440 1.356 . S
N4448 H4454 0.984 . S
N4448 H4455 0.984 . S
N4449 C4442 1.356 . S
N4449 H4452 0.984 . S
N4449 H4453 0.985 . S
H4450 N4445 0.984 . S
H4451 N4445 0.985 . S
H4452 N4449 0.984 . S
H4453 N4449 0.985 . S
H4454 N4448 0.984 . S
H4455 N4448 0.984 . S
H4456 N4444 0.984 . S
H4457 N4444 0.985 . S
C4458 C4459 1.363 . S
C4458 C4464 1.379 . S
C4458 N4466 1.356 . S
C4459 C4458 1.363 . S
C4459 C4465 1.363 . S
C4460 C4461 1.363 . S
C4460 C4465 1.379 . S
C4460 N4467 1.356 . S
C4461 C4460 1.363 . S
C4461 C4464 1.363 . S
N4462 C4464 1.356 . S
N4462 H4474 0.984 . S
N4462 H4475 0.985 . S
N4463 C4465 1.356 . S
N4463 H4468 0.984 . S
N4463 H4469 0.985 . S
C4464 C4458 1.379 . S
C4464 C4461 1.363 . S
C4464 N4462 1.356 . S
C4465 C4459 1.363 . S
C4465 C4460 1.379 . S
C4465 N4463 1.356 . S
N4466 C4458 1.356 . S
N4466 H4472 0.984 . S
N4466 H4473 0.984 . S
N4467 C4460 1.356 . S
N4467 H4470 0.984 . S
N4467 H4471 0.985 . S
H4468 N4463 0.984 . S
H4469 N4463 0.985 . S
H4470 N4467 0.984 . S
H4471 N4467 0.985 . S
H4472 N4466 0.984 . S
H4473 N4466 0.984 . S
H4474 N4462 0.984 . S
H4475 N4462 0.985 . S
C4476 C4477 1.363 . S
C4476 C4482 1.379 . S
C4476 N4484 1.356 . S
C4477 C4476 1.363 . S
C4477 C4483 1.363 . S
C4478 C4479 1.363 . S
C4478 C4483 1.379 . S
C4478 N4485 1.356 . S
C4479 C4478 1.363 . S
C4479 C4482 1.363 . S
N4480 C4482 1.356 . S
N4480 H4492 0.984 . S
N4480 H4493 0.985 . S
N4481 C4483 1.356 . S
N4481 H4486 0.984 . S
N4481 H4487 0.985 . S
C4482 C4476 1.379 . S
C4482 C4479 1.363 . S
C4482 N4480 1.356 . S
C4483 C4477 1.363 . S
C4483 C4478 1.379 . S
C4483 N4481 1.356 . S
N4484 C4476 1.356 . S
N4484 H4490 0.984 . S
N4484 H4491 0.984 . S
N4485 C4478 1.356 . S
N4485 H4488 0.984 . S
N4485 H4489 0.985 . S
H4486 N4481 0.984 . S
H4487 N4481 0.985 . S
H4488 N4485 0.984 . S
H4489 N4485 0.985 . S
H4490 N4484 0.984 . S
H4491 N4484 0.984 . S
H4492 N4480 0.984 . S
H4493 N4480 0.985 . S
C4494 C4495 1.363 . S
C4494 C4500 1.379 . S
C4494 N4502 1.356 . S
C4495 C4494 1.363 . S
C4495 C4501 1.363 . S
C4496 C4497 1.363 . S
C4496 C4501 1.379 . S
C4496 N4503 1.356 . S
C4497 C4496 1.363 . S
C4497 C4500 1.363 . S
N4498 C4500 1.356 . S
N4498 H4510 0.984 . S
N4498 H4511 0.985 . S
N4499 C4501 1.356 . S
N4499 H4504 0.984 . S
N4499 H4505 0.985 . S
C4500 C4494 1.379 . S
C4500 C4497 1.363 . S
C4500 N4498 1.356 . S
C4501 C4495 1.363 . S
C4501 C4496 1.379 . S
C4501 N4499 1.356 . S
N4502 C4494 1.356 . S
N4502 H4508 0.984 . S
N4502 H4509 0.984 . S
N4503 C4496 1.356 . S
N4503 H4506 0.984 . S
N4503 H4507 0.985 . S
H4504 N4499 0.984 . S
H4505 N4499 0.985 . S
H4506 N4503 0.984 . S
H4507 N4503 0.985 . S
H4508 N4502 0.984 . S
H4509 N4502 0.984 . S
H4510 N4498 0.984 . S
H4511 N4498 0.985 . S
C4512 C4513 1.363 . S
C4512 C4518 1.379 . S
C4512 N4520 1.356 . S
C4513 C4512 1.363 . S
C4513 C4519 1.363 . S
C4514 C4515 1.363 . S
C4514 C4519 1.379 . S
C4514 N4521 1.356 . S
C4515 C4514 1.363 . S
C4515 C4518 1.363 . S
N4516 C4518 1.356 . S
N4516 H4528 0.984 . S
N4516 H4529 0.985 . S
N4517 C4519 1.356 . S
N4517 H4522 0.984 . S
N4517 H4523 0.985 . S
C4518 C4512 1.379 . S
C4518 C4515 1.363 . S
C4518 N4516 1.356 . S
C4519 C4513 1.363 . S
C4519 C4514 1.379 . S
C4519 N4517 1.356 . S
N4520 C4512 1.356 . S
N4520 H4526 0.984 . S
N4520 H4527 0.984 . S
N4521 C4514 1.356 . S
N4521 H4524 0.984 . S
N4521 H4525 0.985 . S
H4522 N4517 0.984 . S
H4523 N4517 0.985 . S
H4524 N4521 0.984 . S
H4525 N4521 0.985 . S
H4526 N4520 0.984 . S
H4527 N4520 0.984 . S
H4528 N4516 0.984 . S
H4529 N4516 0.985 . S
C4530 C4531 1.363 . S
C4530 C4536 1.379 . S
C4530 N4538 1.356 . S
C4531 C4530 1.363 . S
C4531 C4537 1.363 . S
C4532 C4533 1.363 . S
C4532 C4537 1.379 . S
C4532 N4539 1.356 . S
C4533 C4532 1.363 . S
C4533 C4536 1.363 . S
N4534 C4536 1.356 . S
N4534 H4546 0.984 . S
N4534 H4547 0.985 . S
N4535 C4537 1.356 . S
N4535 H4540 0.984 . S
N4535 H4541 0.985 . S
C4536 C4530 1.379 . S
C4536 C4533 1.363 . S
C4536 N4534 1.356 . S
C4537 C4531 1.363 . S
C4537 C4532 1.379 . S
C4537 N4535 1.356 . S
N4538 C4530 1.356 . S
N4538 H4544 0.984 . S
N4538 H4545 0.984 . S
N4539 C4532 1.356 . S
N4539 H4542 0.984 . S
N4539 H4543 0.985 . S
H4540 N4535 0.984 . S
H4541 N4535 0.985 . S
H4542 N4539 0.984 . S
H4543 N4539 0.985 . S
H4544 N4538 0.984 . S
H4545 N4538 0.984 . S
H4546 N4534 0.984 . S
H4547 N4534 0.985 . S
C4548 C4549 1.363 . S
C4548 C4554 1.379 . S
C4548 N4556 1.356 . S
C4549 C4548 1.363 . S
C4549 C4555 1.363 . S
C4550 C4551 1.363 . S
C4550 C4555 1.379 . S
C4550 N4557 1.356 . S
C4551 C4550 1.363 . S
C4551 C4554 1.363 . S
N4552 C4554 1.356 . S
N4552 H4564 0.984 . S
N4552 H4565 0.985 . S
N4553 C4555 1.356 . S
N4553 H4558 0.984 . S
N4553 H4559 0.985 . S
C4554 C4548 1.379 . S
C4554 C4551 1.363 . S
C4554 N4552 1.356 . S
C4555 C4549 1.363 . S
C4555 C4550 1.379 . S
C4555 N4553 1.356 . S
N4556 C4548 1.356 . S
N4556 H4562 0.984 . S
N4556 H4563 0.984 . S
N4557 C4550 1.356 . S
N4557 H4560 0.984 . S
N4557 H4561 0.985 . S
H4558 N4553 0.984 . S
H4559 N4553 0.985 . S
H4560 N4557 0.984 . S
H4561 N4557 0.985 . S
H4562 N4556 0.984 . S
H4563 N4556 0.984 . S
H4564 N4552 0.984 . S
H4565 N4552 0.985 . S
C4566 C4567 1.363 . S
C4566 C4572 1.379 . S
C4566 N4574 1.356 . S
C4567 C4566 1.363 . S
C4567 C4573 1.363 . S
C4568 C4569 1.363 . S
C4568 C4573 1.379 . S
C4568 N4575 1.356 . S
C4569 C4568 1.363 . S
C4569 C4572 1.363 . S
N4570 C4572 1.356 . S
N4570 H4582 0.984 . S
N4570 H4583 0.985 . S
N4571 C4573 1.356 . S
N4571 H4576 0.984 . S
N4571 H4577 0.985 . S
C4572 C4566 1.379 . S
C4572 C4569 1.363 . S
C4572 N4570 1.356 . S
C4573 C4567 1.363 . S
C4573 C4568 1.379 . S
C4573 N4571 1.356 . S
N4574 C4566 1.356 . S
N4574 H4580 0.984 . S
N4574 H4581 0.984 . S
N4575 C4568 1.356 . S
N4575 H4578 0.984 . S
N4575 H4579 0.985 . S
H4576 N4571 0.984 . S
H4577 N4571 0.985 . S
H4578 N4575 0.984 . S
H4579 N4575 0.985 . S
H4580 N4574 0.984 . S
H4581 N4574 0.984 . S
H4582 N4570 0.984 . S
H4583 N4570 0.985 . S
C4584 C4585 1.363 . S
C4584 C4590 1.379 . S
C4584 N4592 1.356 . S
C4585 C4584 1.363 . S
C4585 C4591 1.363 . S
C4586 C4587 1.363 . S
C4586 C4591 1.379 . S
C4586 N4593 1.356 . S
C4587 C4586 1.363 . S
C4587 C4590 1.363 . S
N4588 C4590 1.356 . S
N4588 H4600 0.984 . S
N4588 H4601 0.985 . S
N4589 C4591 1.356 . S
N4589 H4594 0.984 . S
N4589 H4595 0.985 . S
C4590 C4584 1.379 . S
C4590 C4587 1.363 . S
C4590 N4588 1.356 . S
C4591 C4585 1.363 . S
C4591 C4586 1.379 . S
C4591 N4589 1.356 . S
N4592 C4584 1.356 . S
N4592 H4598 0.984 . S
N4592 H4599 0.984 . S
N4593 C4586 1.356 . S
N4593 H4596 0.984 . S
N4593 H4597 0.985 . S
H4594 N4589 0.984 . S
H4595 N4589 0.985 . S
H4596 N4593 0.984 . S
H4597 N4593 0.985 . S
H4598 N4592 0.984 . S
H4599 N4592 0.984 . S
H4600 N4588 0.984 . S
H4601 N4588 0.985 . S
C4602 C4603 1.363 . S
C4602 C4608 1.379 . S
C4602 N4610 1.356 . S
C4603 C4602 1.363 . S
C4603 C4609 1.363 . S
C4604 C4605 1.363 . S
C4604 C4609 1.379 . S
C4604 N4611 1.356 . S
C4605 C4604 1.363 . S
C4605 C4608 1.363 . S
N4606 C4608 1.356 . S
N4606 H4618 0.984 . S
N4606 H4619 0.985 . S
N4607 C4609 1.356 . S
N4607 H4612 0.984 . S
N4607 H4613 0.985 . S
C4608 C4602 1.379 . S
C4608 C4605 1.363 . S
C4608 N4606 1.356 . S
C4609 C4603 1.363 . S
C4609 C4604 1.379 . S
C4609 N4607 1.356 . S
N4610 C4602 1.356 . S
N4610 H4616 0.984 . S
N4610 H4617 0.984 . S
N4611 C4604 1.356 . S
N4611 H4614 0.984 . S
N4611 H4615 0.985 . S
H4612 N4607 0.984 . S
H4613 N4607 0.985 . S
H4614 N4611 0.984 . S
H4615 N4611 0.985 . S
H4616 N4610 0.984 . S
H4617 N4610 0.984 . S
H4618 N4606 0.984 . S
H4619 N4606 0.985 . S
C4620 C4621 1.363 . S
C4620 C4626 1.379 . S
C4620 N4628 1.356 . S
C4621 C4620 1.363 . S
C4621 C4627 1.363 . S
C4622 C4623 1.363 . S
C4622 C4627 1.379 . S
C4622 N4629 1.356 . S
C4623 C4622 1.363 . S
C4623 C4626 1.363 . S
N4624 C4626 1.356 . S
N4624 H4636 0.984 . S
N4624 H4637 0.985 . S
N4625 C4627 1.356 . S
N4625 H4630 0.984 . S
N4625 H4631 0.985 . S
C4626 C4620 1.379 . S
C4626 C4623 1.363 . S
C4626 N4624 1.356 . S
C4627 C4621 1.363 . S
C4627 C4622 1.379 . S
C4627 N4625 1.356 . S
N4628 C4620 1.356 . S
N4628 H4634 0.984 . S
N4628 H4635 0.984 . S
N4629 C4622 1.356 . S
N4629 H4632 0.984 . S
N4629 H4633 0.985 . S
H4630 N4625 0.984 . S
H4631 N4625 0.985 . S
H4632 N4629 0.984 . S
H4633 N4629 0.985 . S
H4634 N4628 0.984 . S
H4635 N4628 0.984 . S
H4636 N4624 0.984 . S
H4637 N4624 0.985 . S
C4638 C4639 1.363 . S
C4638 C4644 1.379 . S
C4638 N4646 1.356 . S
C4639 C4638 1.363 . S
C4639 C4645 1.363 . S
C4640 C4641 1.363 . S
C4640 C4645 1.379 . S
C4640 N4647 1.356 . S
C4641 C4640 1.363 . S
C4641 C4644 1.363 . S
N4642 C4644 1.356 . S
N4642 H4654 0.984 . S
N4642 H4655 0.985 . S
N4643 C4645 1.356 . S
N4643 H4648 0.984 . S
N4643 H4649 0.985 . S
C4644 C4638 1.379 . S
C4644 C4641 1.363 . S
C4644 N4642 1.356 . S
C4645 C4639 1.363 . S
C4645 C4640 1.379 . S
C4645 N4643 1.356 . S
N4646 C4638 1.356 . S
N4646 H4652 0.984 . S
N4646 H4653 0.984 . S
N4647 C4640 1.356 . S
N4647 H4650 0.984 . S
N4647 H4651 0.985 . S
H4648 N4643 0.984 . S
H4649 N4643 0.985 . S
H4650 N4647 0.984 . S
H4651 N4647 0.985 . S
H4652 N4646 0.984 . S
H4653 N4646 0.984 . S
H4654 N4642 0.984 . S
H4655 N4642 0.985 . S
C4656 C4657 1.363 . S
C4656 C4662 1.379 . S
C4656 N4664 1.356 . S
C4657 C4656 1.363 . S
C4657 C4663 1.363 . S
C4658 C4659 1.363 . S
C4658 C4663 1.379 . S
C4658 N4665 1.356 . S
C4659 C4658 1.363 . S
C4659 C4662 1.363 . S
N4660 C4662 1.356 . S
N4660 H4672 0.984 . S
N4660 H4673 0.985 . S
N4661 C4663 1.356 . S
N4661 H4666 0.984 . S
N4661 H4667 0.985 . S
C4662 C4656 1.379 . S
C4662 C4659 1.363 . S
C4662 N4660 1.356 . S
C4663 C4657 1.363 . S
C4663 C4658 1.379 . S
C4663 N4661 1.356 . S
N4664 C4656 1.356 . S
N4664 H4670 0.984 . S
N4664 H4671 0.984 . S
N4665 C4658 1.356 . S
N4665 H4668 0.984 . S
N4665 H4669 0.985 . S
H4666 N4661 0.984 . S
H4667 N4661 0.985 . S
H4668 N4665 0.984 . S
H4669 N4665 0.985 . S
H4670 N4664 0.984 . S
H4671 N4664 0.984 . S
H4672 N4660 0.984 . S
H4673 N4660 0.985 . S
C4674 C4675 1.363 . S
C4674 C4680 1.379 . S
C4674 N4682 1.356 . S
C4675 C4674 1.363 . S
C4675 C4681 1.363 . S
C4676 C4677 1.363 . S
C4676 C4681 1.379 . S
C4676 N4683 1.356 . S
C4677 C4676 1.363 . S
C4677 C4680 1.363 . S
N4678 C4680 1.356 . S
N4678 H4690 0.984 . S
N4678 H4691 0.985 . S
N4679 C4681 1.356 . S
N4679 H4684 0.984 . S
N4679 H4685 0.985 . S
C4680 C4674 1.379 . S
C4680 C4677 1.363 . S
C4680 N4678 1.356 . S
C4681 C4675 1.363 . S
C4681 C4676 1.379 . S
C4681 N4679 1.356 . S
N4682 C4674 1.356 . S
N4682 H4688 0.984 . S
N4682 H4689 0.984 . S
N4683 C4676 1.356 . S
N4683 H4686 0.984 . S
N4683 H4687 0.985 . S
H4684 N4679 0.984 . S
H4685 N4679 0.985 . S
H4686 N4683 0.984 . S
H4687 N4683 0.985 . S
H4688 N4682 0.984 . S
H4689 N4682 0.984 . S
H4690 N4678 0.984 . S
H4691 N4678 0.985 . S
C4692 C4693 1.363 . S
C4692 C4698 1.379 . S
C4692 N4700 1.356 . S
C4693 C4692 1.363 . S
C4693 C4699 1.363 . S
C4694 C4695 1.363 . S
C4694 C4699 1.379 . S
C4694 N4701 1.356 . S
C4695 C4694 1.363 . S
C4695 C4698 1.363 . S
N4696 C4698 1.356 . S
N4696 H4708 0.984 . S
N4696 H4709 0.985 . S
N4697 C4699 1.356 . S
N4697 H4702 0.984 . S
N4697 H4703 0.985 . S
C4698 C4692 1.379 . S
C4698 C4695 1.363 . S
C4698 N4696 1.356 . S
C4699 C4693 1.363 . S
C4699 C4694 1.379 . S
C4699 N4697 1.356 . S
N4700 C4692 1.356 . S
N4700 H4706 0.984 . S
N4700 H4707 0.984 . S
N4701 C4694 1.356 . S
N4701 H4704 0.984 . S
N4701 H4705 0.985 . S
H4702 N4697 0.984 . S
H4703 N4697 0.985 . S
H4704 N4701 0.984 . S
H4705 N4701 0.985 . S
H4706 N4700 0.984 . S
H4707 N4700 0.984 . S
H4708 N4696 0.984 . S
H4709 N4696 0.985 . S
C4710 C4711 1.363 . S
C4710 C4716 1.379 . S
C4710 N4718 1.356 . S
C4711 C4710 1.363 . S
C4711 C4717 1.363 . S
C4712 C4713 1.363 . S
C4712 C4717 1.379 . S
C4712 N4719 1.356 . S
C4713 C4712 1.363 . S
C4713 C4716 1.363 . S
N4714 C4716 1.356 . S
N4714 H4726 0.984 . S
N4714 H4727 0.985 . S
N4715 C4717 1.356 . S
N4715 H4720 0.984 . S
N4715 H4721 0.985 . S
C4716 C4710 1.379 . S
C4716 C4713 1.363 . S
C4716 N4714 1.356 . S
C4717 C4711 1.363 . S
C4717 C4712 1.379 . S
C4717 N4715 1.356 . S
N4718 C4710 1.356 . S
N4718 H4724 0.984 . S
N4718 H4725 0.984 . S
N4719 C4712 1.356 . S
N4719 H4722 0.984 . S
N4719 H4723 0.985 . S
H4720 N4715 0.984 . S
H4721 N4715 0.985 . S
H4722 N4719 0.984 . S
H4723 N4719 0.985 . S
H4724 N4718 0.984 . S
H4725 N4718 0.984 . S
H4726 N4714 0.984 . S
H4727 N4714 0.985 . S
C4728 C4729 1.363 . S
C4728 C4734 1.379 . S
C4728 N4736 1.356 . S
C4729 C4728 1.363 . S
C4729 C4735 1.363 . S
C4730 C4731 1.363 . S
C4730 C4735 1.379 . S
C4730 N4737 1.356 . S
C4731 C4730 1.363 . S
C4731 C4734 1.363 . S
N4732 C4734 1.356 . S
N4732 H4744 0.984 . S
N4732 H4745 0.985 . S
N4733 C4735 1.356 . S
N4733 H4738 0.984 . S
N4733 H4739 0.985 . S
C4734 C4728 1.379 . S
C4734 C4731 1.363 . S
C4734 N4732 1.356 . S
C4735 C4729 1.363 . S
C4735 C4730 1.379 . S
C4735 N4733 1.356 . S
N4736 C4728 1.356 . S
N4736 H4742 0.984 . S
N4736 H4743 0.984 . S
N4737 C4730 1.356 . S
N4737 H4740 0.984 . S
N4737 H4741 0.985 . S
H4738 N4733 0.984 . S
H4739 N4733 0.985 . S
H4740 N4737 0.984 . S
H4741 N4737 0.985 . S
H4742 N4736 0.984 . S
H4743 N4736 0.984 . S
H4744 N4732 0.984 . S
H4745 N4732 0.985 . S
C4746 C4747 1.363 . S
C4746 C4752 1.379 . S
C4746 N4754 1.356 . S
C4747 C4746 1.363 . S
C4747 C4753 1.363 . S
C4748 C4749 1.363 . S
C4748 C4753 1.379 . S
C4748 N4755 1.356 . S
C4749 C4748 1.363 . S
C4749 C4752 1.363 . S
N4750 C4752 1.356 . S
N4750 H4762 0.984 . S
N4750 H4763 0.985 . S
N4751 C4753 1.356 . S
N4751 H4756 0.984 . S
N4751 H4757 0.985 . S
C4752 C4746 1.379 . S
C4752 C4749 1.363 . S
C4752 N4750 1.356 . S
C4753 C4747 1.363 . S
C4753 C4748 1.379 . S
C4753 N4751 1.356 . S
N4754 C4746 1.356 . S
N4754 H4760 0.984 . S
N4754 H4761 0.984 . S
N4755 C4748 1.356 . S
N4755 H4758 0.984 . S
N4755 H4759 0.985 . S
H4756 N4751 0.984 . S
H4757 N4751 0.985 . S
H4758 N4755 0.984 . S
H4759 N4755 0.985 . S
H4760 N4754 0.984 . S
H4761 N4754 0.984 . S
H4762 N4750 0.984 . S
H4763 N4750 0.985 . S
C4764 C4765 1.363 . S
C4764 C4770 1.379 . S
C4764 N4772 1.356 . S
C4765 C4764 1.363 . S
C4765 C4771 1.363 . S
C4766 C4767 1.363 . S
C4766 C4771 1.379 . S
C4766 N4773 1.356 . S
C4767 C4766 1.363 . S
C4767 C4770 1.363 . S
N4768 C4770 1.356 . S
N4768 H4780 0.984 . S
N4768 H4781 0.985 . S
N4769 C4771 1.356 . S
N4769 H4774 0.984 . S
N4769 H4775 0.985 . S
C4770 C4764 1.379 . S
C4770 C4767 1.363 . S
C4770 N4768 1.356 . S
C4771 C4765 1.363 . S
C4771 C4766 1.379 . S
C4771 N4769 1.356 . S
N4772 C4764 1.356 . S
N4772 H4778 0.984 . S
N4772 H4779 0.984 . S
N4773 C4766 1.356 . S
N4773 H4776 0.984 . S
N4773 H4777 0.985 . S
H4774 N4769 0.984 . S
H4775 N4769 0.985 . S
H4776 N4773 0.984 . S
H4777 N4773 0.985 . S
H4778 N4772 0.984 . S
H4779 N4772 0.984 . S
H4780 N4768 0.984 . S
H4781 N4768 0.985 . S
C4782 C4783 1.363 . S
C4782 C4788 1.379 . S
C4782 N4790 1.356 . S
C4783 C4782 1.363 . S
C4783 C4789 1.363 . S
C4784 C4785 1.363 . S
C4784 C4789 1.379 . S
C4784 N4791 1.356 . S
C4785 C4784 1.363 . S
C4785 C4788 1.363 . S
N4786 C4788 1.356 . S
N4786 H4798 0.984 . S
N4786 H4799 0.985 . S
N4787 C4789 1.356 . S
N4787 H4792 0.984 . S
N4787 H4793 0.985 . S
C4788 C4782 1.379 . S
C4788 C4785 1.363 . S
C4788 N4786 1.356 . S
C4789 C4783 1.363 . S
C4789 C4784 1.379 . S
C4789 N4787 1.356 . S
N4790 C4782 1.356 . S
N4790 H4796 0.984 . S
N4790 H4797 0.984 . S
N4791 C4784 1.356 . S
N4791 H4794 0.984 . S
N4791 H4795 0.985 . S
H4792 N4787 0.984 . S
H4793 N4787 0.985 . S
H4794 N4791 0.984 . S
H4795 N4791 0.985 . S
H4796 N4790 0.984 . S
H4797 N4790 0.984 . S
H4798 N4786 0.984 . S
H4799 N4786 0.985 . S
C4800 C4801 1.363 . S
C4800 C4806 1.379 . S
C4800 N4808 1.356 . S
C4801 C4800 1.363 . S
C4801 C4807 1.363 . S
C4802 C4803 1.363 . S
C4802 C4807 1.379 . S
C4802 N4809 1.356 . S
C4803 C4802 1.363 . S
C4803 C4806 1.363 . S
N4804 C4806 1.356 . S
N4804 H4816 0.984 . S
N4804 H4817 0.985 . S
N4805 C4807 1.356 . S
N4805 H4810 0.984 . S
N4805 H4811 0.985 . S
C4806 C4800 1.379 . S
C4806 C4803 1.363 . S
C4806 N4804 1.356 . S
C4807 C4801 1.363 . S
C4807 C4802 1.379 . S
C4807 N4805 1.356 . S
N4808 C4800 1.356 . S
N4808 H4814 0.984 . S
N4808 H4815 0.984 . S
N4809 C4802 1.356 . S
N4809 H4812 0.984 . S
N4809 H4813 0.985 . S
H4810 N4805 0.984 . S
H4811 N4805 0.985 . S
H4812 N4809 0.984 . S
H4813 N4809 0.985 . S
H4814 N4808 0.984 . S
H4815 N4808 0.984 . S
H4816 N4804 0.984 . S
H4817 N4804 0.985 . S
C4818 C4819 1.363 . S
C4818 C4824 1.379 . S
C4818 N4826 1.356 . S
C4819 C4818 1.363 . S
C4819 C4825 1.363 . S
C4820 C4821 1.363 . S
C4820 C4825 1.379 . S
C4820 N4827 1.356 . S
C4821 C4820 1.363 . S
C4821 C4824 1.363 . S
N4822 C4824 1.356 . S
N4822 H4834 0.984 . S
N4822 H4835 0.985 . S
N4823 C4825 1.356 . S
N4823 H4828 0.984 . S
N4823 H4829 0.985 . S
C4824 C4818 1.379 . S
C4824 C4821 1.363 . S
C4824 N4822 1.356 . S
C4825 C4819 1.363 . S
C4825 C4820 1.379 . S
C4825 N4823 1.356 . S
N4826 C4818 1.356 . S
N4826 H4832 0.984 . S
N4826 H4833 0.984 . S
N4827 C4820 1.356 . S
N4827 H4830 0.984 . S
N4827 H4831 0.985 . S
H4828 N4823 0.984 . S
H4829 N4823 0.985 . S
H4830 N4827 0.984 . S
H4831 N4827 0.985 . S
H4832 N4826 0.984 . S
H4833 N4826 0.984 . S
H4834 N4822 0.984 . S
H4835 N4822 0.985 . S
C4836 C4837 1.363 . S
C4836 C4842 1.379 . S
C4836 N4844 1.356 . S
C4837 C4836 1.363 . S
C4837 C4843 1.363 . S
C4838 C4839 1.363 . S
C4838 C4843 1.379 . S
C4838 N4845 1.356 . S
C4839 C4838 1.363 . S
C4839 C4842 1.363 . S
N4840 C4842 1.356 . S
N4840 H4852 0.984 . S
N4840 H4853 0.985 . S
N4841 C4843 1.356 . S
N4841 H4846 0.984 . S
N4841 H4847 0.985 . S
C4842 C4836 1.379 . S
C4842 C4839 1.363 . S
C4842 N4840 1.356 . S
C4843 C4837 1.363 . S
C4843 C4838 1.379 . S
C4843 N4841 1.356 . S
N4844 C4836 1.356 . S
N4844 H4850 0.984 . S
N4844 H4851 0.984 . S
N4845 C4838 1.356 . S
N4845 H4848 0.984 . S
N4845 H4849 0.985 . S
H4846 N4841 0.984 . S
H4847 N4841 0.985 . S
H4848 N4845 0.984 . S
H4849 N4845 0.985 . S
H4850 N4844 0.984 . S
H4851 N4844 0.984 . S
H4852 N4840 0.984 . S
H4853 N4840 0.985 . S
C4854 C4855 1.363 . S
C4854 C4860 1.379 . S
C4854 N4862 1.356 . S
C4855 C4854 1.363 . S
C4855 C4861 1.363 . S
C4856 C4857 1.363 . S
C4856 C4861 1.379 . S
C4856 N4863 1.356 . S
C4857 C4856 1.363 . S
C4857 C4860 1.363 . S
N4858 C4860 1.356 . S
N4858 H4870 0.984 . S
N4858 H4871 0.985 . S
N4859 C4861 1.356 . S
N4859 H4864 0.984 . S
N4859 H4865 0.985 . S
C4860 C4854 1.379 . S
C4860 C4857 1.363 . S
C4860 N4858 1.356 . S
C4861 C4855 1.363 . S
C4861 C4856 1.379 . S
C4861 N4859 1.356 . S
N4862 C4854 1.356 . S
N4862 H4868 0.984 . S
N4862 H4869 0.984 . S
N4863 C4856 1.356 . S
N4863 H4866 0.984 . S
N4863 H4867 0.985 . S
H4864 N4859 0.984 . S
H4865 N4859 0.985 . S
H4866 N4863 0.984 . S
H4867 N4863 0.985 . S
H4868 N4862 0.984 . S
H4869 N4862 0.984 . S
H4870 N4858 0.984 . S
H4871 N4858 0.985 . S
C4872 C4873 1.363 . S
C4872 C4878 1.379 . S
C4872 N4880 1.356 . S
C4873 C4872 1.363 . S
C4873 C4879 1.363 . S
C4874 C4875 1.363 . S
C4874 C4879 1.379 . S
C4874 N4881 1.356 . S
C4875 C4874 1.363 . S
C4875 C4878 1.363 . S
N4876 C4878 1.356 . S
N4876 H4888 0.984 . S
N4876 H4889 0.985 . S
N4877 C4879 1.356 . S
N4877 H4882 0.984 . S
N4877 H4883 0.985 . S
C4878 C4872 1.379 . S
C4878 C4875 1.363 . S
C4878 N4876 1.356 . S
C4879 C4873 1.363 . S
C4879 C4874 1.379 . S
C4879 N4877 1.356 . S
N4880 C4872 1.356 . S
N4880 H4886 0.984 . S
N4880 H4887 0.984 . S
N4881 C4874 1.356 . S
N4881 H4884 0.984 . S
N4881 H4885 0.985 . S
H4882 N4877 0.984 . S
H4883 N4877 0.985 . S
H4884 N4881 0.984 . S
H4885 N4881 0.985 . S
H4886 N4880 0.984 . S
H4887 N4880 0.984 . S
H4888 N4876 0.984 . S
H4889 N4876 0.985 . S
C4890 C4891 1.363 . S
C4890 C4896 1.379 . S
C4890 N4898 1.356 . S
C4891 C4890 1.363 . S
C4891 C4897 1.363 . S
C4892 C4893 1.363 . S
C4892 C4897 1.379 . S
C4892 N4899 1.356 . S
C4893 C4892 1.363 . S
C4893 C4896 1.363 . S
N4894 C4896 1.356 . S
N4894 H4906 0.984 . S
N4894 H4907 0.985 . S
N4895 C4897 1.356 . S
N4895 H4900 0.984 . S
N4895 H4901 0.985 . S
C4896 C4890 1.379 . S
C4896 C4893 1.363 . S
C4896 N4894 1.356 . S
C4897 C4891 1.363 . S
C4897 C4892 1.379 . S
C4897 N4895 1.356 . S
N4898 C4890 1.356 . S
N4898 H4904 0.984 . S
N4898 H4905 0.984 . S
N4899 C4892 1.356 . S
N4899 H4902 0.984 . S
N4899 H4903 0.985 . S
H4900 N4895 0.984 . S
H4901 N4895 0.985 . S
H4902 N4899 0.984 . S
H4903 N4899 0.985 . S
H4904 N4898 0.984 . S
H4905 N4898 0.984 . S
H4906 N4894 0.984 . S
H4907 N4894 0.985 . S
C4908 C4909 1.363 . S
C4908 C4914 1.379 . S
C4908 N4916 1.356 . S
C4909 C4908 1.363 . S
C4909 C4915 1.363 . S
C4910 C4911 1.363 . S
C4910 C4915 1.379 . S
C4910 N4917 1.356 . S
C4911 C4910 1.363 . S
C4911 C4914 1.363 . S
N4912 C4914 1.356 . S
N4912 H4924 0.984 . S
N4912 H4925 0.985 . S
N4913 C4915 1.356 . S
N4913 H4918 0.984 . S
N4913 H4919 0.985 . S
C4914 C4908 1.379 . S
C4914 C4911 1.363 . S
C4914 N4912 1.356 . S
C4915 C4909 1.363 . S
C4915 C4910 1.379 . S
C4915 N4913 1.356 . S
N4916 C4908 1.356 . S
N4916 H4922 0.984 . S
N4916 H4923 0.984 . S
N4917 C4910 1.356 . S
N4917 H4920 0.984 . S
N4917 H4921 0.985 . S
H4918 N4913 0.984 . S
H4919 N4913 0.985 . S
H4920 N4917 0.984 . S
H4921 N4917 0.985 . S
H4922 N4916 0.984 . S
H4923 N4916 0.984 . S
H4924 N4912 0.984 . S
H4925 N4912 0.985 . S
C4926 C4927 1.363 . S
C4926 C4932 1.379 . S
C4926 N4934 1.356 . S
C4927 C4926 1.363 . S
C4927 C4933 1.363 . S
C4928 C4929 1.363 . S
C4928 C4933 1.379 . S
C4928 N4935 1.356 . S
C4929 C4928 1.363 . S
C4929 C4932 1.363 . S
N4930 C4932 1.356 . S
N4930 H4942 0.984 . S
N4930 H4943 0.985 . S
N4931 C4933 1.356 . S
N4931 H4936 0.984 . S
N4931 H4937 0.985 . S
C4932 C4926 1.379 . S
C4932 C4929 1.363 . S
C4932 N4930 1.356 . S
C4933 C4927 1.363 . S
C4933 C4928 1.379 . S
C4933 N4931 1.356 . S
N4934 C4926 1.356 . S
N4934 H4940 0.984 . S
N4934 H4941 0.984 . S
N4935 C4928 1.356 . S
N4935 H4938 0.984 . S
N4935 H4939 0.985 . S
H4936 N4931 0.984 . S
H4937 N4931 0.985 . S
H4938 N4935 0.984 . S
H4939 N4935 0.985 . S
H4940 N4934 0.984 . S
H4941 N4934 0.984 . S
H4942 N4930 0.984 . S
H4943 N4930 0.985 . S
C2353 C1781 1.566 . S
C2355 C1925 1.622 . S
C2371 C981 1.569 . S
C2373 C1934 1.626 . S
C2391 C1943 1.620 . S
C2389 C1861 1.638 . S
C2407 C1061 1.661 . S
C2409 C1952 1.643 . S
C2425 C1901 1.580 . S
C2427 C1961 1.640 . S
C2443 C941 1.565 . S
C2445 C1970 1.621 . S
C2461 C1821 1.648 . S
C2463 C1979 1.629 . S
C2479 C1021 1.638 . S
C2481 C1988 1.620 . S
C2497 C661 1.596 . S
C2499 C1997 1.668 . S
C2515 C1621 1.671 . S
C2517 C2006 1.656 . S
C2533 C741 1.599 . S
C2535 C2015 1.671 . S
C2551 C1581 1.575 . S
C2553 C2024 1.641 . S
C2569 C901 1.693 . S
C2571 C2033 1.677 . S
C2589 C2042 1.641 . S
C2587 C1661 1.659 . S
C2607 C2051 1.691 . S
C2605 C821 1.614 . S
C2623 C1141 1.669 . S
C2625 C2060 1.654 . S
C2643 C2069 1.638 . S
C2641 C781 1.656 . S
C2661 C2078 1.693 . S
C2659 C1701 1.617 . S
C2677 C861 1.671 . S
C2679 C2087 1.657 . S
C2695 C1181 1.595 . S
C2697 C2096 1.668 . S
C2715 C2105 1.672 . S
C2713 C1101 1.600 . S
C2731 C1421 1.596 . S
C2733 C2114 1.665 . S
C2751 C2123 1.658 . S
C2749 C381 1.676 . S
C2769 C2132 1.679 . S
C2767 C1501 1.689 . S
C2787 C2141 1.691 . S
C2785 C461 1.620 . S
C2805 C2150 1.688 . S
C2803 C1541 1.616 . S
C2821 C341 1.598 . S
C2823 C2159 1.667 . S
C2841 C2168 1.662 . S
C2839 C1461 1.680 . S
C2857 C421 1.686 . S
C2859 C2177 1.676 . S
C2877 C2186 1.650 . S
C2875 C61 1.583 . S
C2895 C2195 1.658 . S
C2893 C1261 1.593 . S
C2911 C141 1.587 . S
C2913 C2204 1.647 . S
C2931 C2213 1.645 . S
C2929 C1221 1.662 . S
C2949 C2222 1.643 . S
C2947 C301 1.655 . S
C2965 C1301 1.656 . S
C2967 C2231 1.637 . S
C2985 C2240 1.650 . S
C2983 C221 1.595 . S
C3003 C2249 1.651 . S
C3001 C541 1.662 . S
C3019 C181 1.650 . S
C3021 C2258 1.631 . S
C3039 C2267 1.644 . S
C3037 C1341 1.591 . S
C3055 C261 1.669 . S
C3057 C2276 1.657 . S
C3075 C2285 1.651 . S
C3073 C581 1.591 . S
C3091 C501 1.577 . S
C3093 C2294 1.644 . S
C3109 C701 1.674 . S
C3111 C2303 1.659 . S
C3129 C2312 1.638 . S
C3127 C621 1.573 . S
C3145 C1741 1.690 . S
C3147 C2321 1.675 . S
C3163 C101 1.584 . S
C3165 C2330 1.647 . S
C3183 C2339 1.655 . S
C3181 C21 1.673 . S
C3201 C2348 1.649 . S
C3199 C1381 1.661 . S
C3217 C1335 1.864 . S
C3219 C1924 1.871 . S
C3235 C535 1.597 . S
C3237 C1936 1.642 . S
C3253 C1362 1.986 . S
C3255 C1942 1.910 . S
C3273 C1954 1.617 . S
C3271 C1295 1.582 . S
C3289 C575 1.894 . S
C3291 C1960 1.905 . S
C3307 C1215 1.586 . S
C3309 C1972 1.629 . S
C3327 C1978 1.922 . S
C3325 C495 1.915 . S
C3343 C1242 1.549 . S
C3345 C1990 1.625 . S
C3361 C1255 1.931 . S
C3363 C1996 1.939 . S
C3381 C2005 1.606 . S
C3379 C562 1.533 . S
C3397 C1202 2.011 . S
C3399 C2014 1.933 . S
C3417 C2026 1.610 . S
C3415 C482 1.536 . S
C3433 C522 2.034 . S
C3435 C2032 1.955 . S
C3451 C1375 1.588 . S
C3453 C2044 1.631 . S
C3471 C2053 1.932 . S
C3469 C1282 1.997 . S
C3489 C2059 1.584 . S
C3487 C1322 1.521 . S
C3505 C455 1.931 . S
C3507 C2023 1.941 . S
C3523 C1415 1.939 . S
C3525 C2068 1.945 . S
C3541 C1455 1.608 . S
C3543 C2077 1.656 . S
C3561 C2089 1.965 . S
C3559 C1482 2.033 . S
C3579 C2035 1.654 . S
C3577 C442 1.571 . S
C3595 C362 2.021 . S
C3597 C2008 1.955 . S
C3613 C1495 1.613 . S
C3615 C2098 1.662 . S
C3633 C2107 1.641 . S
C3631 C1402 1.556 . S
C3651 C2113 1.657 . S
C3649 C1695 1.602 . S
C3667 C1135 1.963 . S
C3669 C2125 1.958 . S
C3687 C2134 1.646 . S
C3685 C1722 1.635 . S
C3705 C2143 1.945 . S
C3703 C1655 1.954 . S
C3721 C1175 1.603 . S
C3723 C2149 1.658 . S
C3739 C1562 1.895 . S
C3741 C2161 1.925 . S
C3757 C1095 1.581 . S
C3759 C2167 1.633 . S
C3777 C2176 1.945 . S
C3775 C1615 1.937 . S
C3795 C2188 1.630 . S
C3793 C1602 1.622 . S
C3811 C1162 1.913 . S
C3813 C2197 1.950 . S
C3831 C2203 1.621 . S
C3829 C1575 1.575 . S
C3847 C1082 1.886 . S
C3849 C2215 1.925 . S
C3867 C2224 1.629 . S
C3865 C1122 1.618 . S
C3883 C1735 1.955 . S
C3885 C2233 1.952 . S
C3903 C2239 1.624 . S
C3901 C1642 1.621 . S
C3919 C1682 1.886 . S
C3921 C2248 1.940 . S
C3937 C1042 1.591 . S
C3939 C2212 1.591 . S
C3955 C1775 1.548 . S
C3957 C2257 1.589 . S
C3973 C1815 1.917 . S
C3975 C2269 1.912 . S
C3993 C2278 1.599 . S
C3991 C1842 1.593 . S
C4009 C1055 1.890 . S
C4011 C2221 1.900 . S
C4027 C975 1.567 . S
C4029 C2194 1.612 . S
C4047 C2287 1.913 . S
C4045 C1855 1.918 . S
C4063 C1762 1.850 . S
C4065 C2293 1.890 . S
C4083 C1969 1.878 . S
C4081 C215 1.870 . S
C4101 C1981 1.645 . S
C4099 C255 1.603 . S
C4119 C1987 1.903 . S
C4117 C282 1.978 . S
C4137 C1963 1.614 . S
C4135 C175 1.575 . S
C4155 C1951 1.924 . S
C4153 C135 1.915 . S
C4171 C15 1.591 . S
C4173 C1927 1.635 . S
C4189 C55 1.894 . S
C4191 C1933 1.903 . S
C4207 C82 1.546 . S
C4209 C1945 1.620 . S
C4225 C95 1.920 . S
C4227 C2104 1.929 . S
C4243 C122 1.539 . S
C4245 C2302 1.613 . S
C4261 C2 2.024 . S
C4263 C2095 1.943 . S
C4279 C42 1.529 . S
C4281 C2314 1.603 . S
C4297 C242 2.031 . S
C4299 C2320 1.950 . S
C4317 C2071 1.620 . S
C4315 C295 1.579 . S
C4333 C162 2.001 . S
C4335 C2080 1.937 . S
C4351 C202 1.529 . S
C4353 C2086 1.594 . S
C4371 C2311 1.939 . S
C4369 C1535 1.929 . S
C4387 C335 1.944 . S
C4389 C2041 1.950 . S
C4405 C375 1.603 . S
C4407 C2050 1.651 . S
C4423 C402 2.027 . S
C4425 C2062 1.959 . S
C4443 C2323 1.651 . S
C4441 C1522 1.566 . S
C4461 C2305 1.958 . S
C4459 C1442 2.024 . S
C4479 C2017 1.657 . S
C4477 C415 1.607 . S
C4495 C322 1.563 . S
C4497 C1999 1.647 . S
C4513 C815 1.606 . S
C4515 C2158 1.660 . S
C4531 C855 1.960 . S
C4533 C2170 1.956 . S
C4549 C882 1.633 . S
C4551 C2179 1.644 . S
C4567 C775 1.956 . S
C4569 C2152 1.946 . S
C4587 C2140 1.659 . S
C4585 C735 1.604 . S
C4605 C2116 1.921 . S
C4603 C602 1.892 . S
C4623 C2122 1.631 . S
C4621 C655 1.579 . S
C4639 C695 1.940 . S
C4641 C2131 1.948 . S
C4659 C2296 1.632 . S
C4657 C682 1.625 . S
C4675 C722 1.911 . S
C4677 C2332 1.949 . S
C4693 C615 1.573 . S
C4695 C2284 1.619 . S
C4713 C2341 1.927 . S
C4711 C642 1.888 . S
C4729 C842 1.625 . S
C4731 C2350 1.635 . S
C4749 C2260 1.947 . S
C4747 C895 1.950 . S
C4765 C762 1.614 . S
C4767 C2266 1.618 . S
C4783 C802 1.892 . S
C4785 C2275 1.945 . S
C4801 C1895 1.560 . S
C4803 C2338 1.602 . S
C4821 C2230 1.594 . S
C4819 C935 1.552 . S
C4837 C962 1.876 . S
C4839 C2242 1.907 . S
C4855 C1002 1.588 . S
C4857 C2251 1.594 . S
C4873 C1882 1.849 . S
C4875 C2347 1.895 . S
C4891 C1802 1.598 . S
C4893 C2329 1.600 . S
C4911 C2206 1.908 . S
C4909 C1015 1.914 . S
C4929 C2185 1.894 . S
C4927 C922 1.851 . S
