# Generated by pormake.
# Topology anh, (6,3)-cn, num edge types: 1
# Building blocks:
#     Node 0, Type 0, BuildingBlock: HISSIN_clean_sbu_0, # of connection points: 6
#     Node 1, Type 0, BuildingBlock: HISSIN_clean_sbu_0, # of connection points: 6
#     Node 2, Type 0, BuildingBlock: HISSIN_clean_sbu_0, # of connection points: 6
#     Node 3, Type 1, BuildingBlock: BELTOD_clean_linker_0, # of connection points: 3
#     Node 4, Type 1, BuildingBlock: BELTOD_clean_linker_0, # of connection points: 3
#     Node 5, Type 1, BuildingBlock: BELTOD_clean_linker_0, # of connection points: 3
#     Node 6, Type 1, BuildingBlock: BELTOD_clean_linker_0, # of connection points: 3
#     Node 7, Type 1, BuildingBlock: BELTOD_clean_linker_0, # of connection points: 3
#     Node 8, Type 1, BuildingBlock: BELTOD_clean_linker_0, # of connection points: 3
#     Edge 9, Type (0, 1), BuildingBlock: XUDNAN_clean_linker_2, # of connection points: 2
#     Edge 10, Type (0, 1), BuildingBlock: XUDNAN_clean_linker_2, # of connection points: 2
#     Edge 11, Type (0, 1), BuildingBlock: XUDNAN_clean_linker_2, # of connection points: 2
#     Edge 12, Type (0, 1), BuildingBlock: XUDNAN_clean_linker_2, # of connection points: 2
#     Edge 13, Type (0, 1), BuildingBlock: XUDNAN_clean_linker_2, # of connection points: 2
#     Edge 14, Type (0, 1), BuildingBlock: XUDNAN_clean_linker_2, # of connection points: 2
#     Edge 15, Type (0, 1), BuildingBlock: XUDNAN_clean_linker_2, # of connection points: 2
#     Edge 16, Type (0, 1), BuildingBlock: XUDNAN_clean_linker_2, # of connection points: 2
#     Edge 17, Type (0, 1), BuildingBlock: XUDNAN_clean_linker_2, # of connection points: 2
#     Edge 18, Type (0, 1), BuildingBlock: XUDNAN_clean_linker_2, # of connection points: 2
#     Edge 19, Type (0, 1), BuildingBlock: XUDNAN_clean_linker_2, # of connection points: 2
#     Edge 20, Type (0, 1), BuildingBlock: XUDNAN_clean_linker_2, # of connection points: 2
#     Edge 21, Type (0, 1), BuildingBlock: XUDNAN_clean_linker_2, # of connection points: 2
#     Edge 22, Type (0, 1), BuildingBlock: XUDNAN_clean_linker_2, # of connection points: 2
#     Edge 23, Type (0, 1), BuildingBlock: XUDNAN_clean_linker_2, # of connection points: 2
#     Edge 24, Type (0, 1), BuildingBlock: XUDNAN_clean_linker_2, # of connection points: 2
#     Edge 25, Type (0, 1), BuildingBlock: XUDNAN_clean_linker_2, # of connection points: 2
#     Edge 26, Type (0, 1), BuildingBlock: XUDNAN_clean_linker_2, # of connection points: 2
# Relax obj value: 0.243
# Max RMSD: 0.183
# Mean RMSD: 0.147
data_MOF--net-anh--node1-HISSIN_clean_sbu_0--node2-BELTOD_clean_linker_0--edge1-XUDNAN_clean_linker_2
_symmetry_space_group_name_H-M    P1
_symmetry_Int_Tables_number       1
_symmetry_cell_setting            triclinic
loop_
_symmetry_equiv_pos_as_xyz
'x, y, z'
_cell_length_a     34.065502
_cell_length_b     33.922222
_cell_length_c     60.708268
_cell_angle_alpha  92.987215
_cell_angle_beta   90.76597
_cell_angle_gamma 120.39336
loop_
_atom_site_label
_atom_site_type_symbol
_atom_site_fract_x
_atom_site_fract_y
_atom_site_fract_z
_atom_type_partial_charge
Eu0 Eu 1.04946 0.5616 0.15303 0.0
Eu1 Eu 0.11668 0.66264 0.17805 0.0
C2 C 1.06249 0.57617 0.20692 0.0
C3 C 0.9476 0.45878 0.12402 0.0
C4 C 0.92144 0.47952 0.12785 0.0
C5 C 0.87873 0.3865 0.1143 0.0
C6 C 0.87397 0.45325 0.12612 0.0
C7 C 0.92621 0.41271 0.11629 0.0
C8 C 0.85216 0.40602 0.12034 0.0
C9 C 0.99584 0.48301 0.13119 0.0
O10 O 0.16235 0.63154 0.17514 0.0
O11 O 0.1202 0.57237 0.14917 0.0
C12 C 0.15836 0.59886 0.16094 0.0
O13 O 1.06085 0.61586 0.1296 0.0
O14 O 0.16617 0.70808 0.20407 0.0
O15 O 0.14655 0.73667 0.17786 0.0
O16 O 0.13298 0.66534 0.14252 0.0
C17 C 1.10114 0.65131 0.127 0.0
O18 O 0.99935 0.58296 0.16373 0.0
O19 O 1.04877 0.66013 0.17163 0.0
O20 O 1.07913 0.62024 0.20581 0.0
O21 O 1.02227 0.5206 0.12173 0.0
O22 O 1.00363 0.4878 0.15251 0.0
O23 O 1.05457 0.54863 0.18916 0.0
C24 C 0.22491 0.77061 0.18772 0.0
C25 C 0.23668 0.77101 0.16555 0.0
C26 C 0.30469 0.80525 0.19922 0.0
C27 C 0.28197 0.78789 0.16031 0.0
C28 C 0.25939 0.78863 0.20446 0.0
C29 C 0.31625 0.8042 0.17712 0.0
C30 C 0.17686 0.74451 0.1935 0.0
C31 C 1.00692 0.62475 0.16784 0.0
H32 H 0.93767 0.51522 0.13367 0.0
H33 H 0.86297 0.35004 0.11013 0.0
H34 H 0.85427 0.4689 0.13102 0.0
H35 H 0.94602 0.39624 0.11329 0.0
H36 H 0.21075 0.75655 0.15226 0.0
H37 H 0.33063 0.81838 0.21249 0.0
H38 H 0.28991 0.78653 0.14316 0.0
H39 H 0.25103 0.78809 0.22165 0.0
Eu40 Eu 0.58752 1.0113 0.5098 0.0
Eu41 Eu 0.5237 1.05364 0.49894 0.0
C42 C 0.54494 1.04139 0.54821 0.0
C43 C 0.65443 0.946 0.5166 0.0
C44 C 0.63725 0.90913 0.53023 0.0
C45 C 0.70717 0.92374 0.50213 0.0
C46 C 0.65578 0.88065 0.53025 0.0
C47 C 0.68865 0.95219 0.5021 0.0
C48 C 0.69206 0.88875 0.51679 0.0
C49 C 0.64269 0.98212 0.51999 0.0
O50 O 0.59456 0.11531 0.50762 0.0
O51 O 0.63594 0.08183 0.49801 0.0
C52 C 0.63339 0.11881 0.50207 0.0
O53 O 0.56265 0.98808 0.47471 0.0
O54 O 0.49716 0.0983 0.50847 0.0
O55 O 0.47969 1.06294 0.47593 0.0
O56 O 0.55937 1.0517 0.46806 0.0
C57 C 0.56338 1.01675 0.46093 0.0
O58 O 0.51556 0.94918 0.50952 0.0
O59 O 0.47289 0.97715 0.49431 0.0
O60 O 0.51152 1.03301 0.5342 0.0
O61 O 0.6485 1.00795 0.50373 0.0
O62 O 0.60712 0.97373 0.53122 0.0
O63 O 0.58364 1.04825 0.54078 0.0
C64 C 0.49793 0.14007 0.47895 0.0
C65 C 0.53482 0.15581 0.46504 0.0
C66 C 0.50779 0.21621 0.48193 0.0
C67 C 0.559 0.20176 0.46028 0.0
C68 C 0.48344 0.17009 0.48663 0.0
C69 C 0.5471 0.23288 0.46958 0.0
C70 C 0.48051 0.09568 0.48861 0.0
C71 C 0.47651 0.94281 0.50117 0.0
H72 H 0.61111 0.90362 0.54169 0.0
H73 H 0.73533 0.93108 0.49171 0.0
H74 H 0.64301 0.85346 0.54149 0.0
H75 H 0.70301 0.98068 0.49159 0.0
H76 H 0.54694 0.13338 0.45907 0.0
H77 H 0.49806 0.23942 0.48954 0.0
H78 H 0.58893 0.21358 0.45058 0.0
H79 H 0.45535 0.15866 0.49756 0.0
Eu80 Eu 0.54377 0.51411 0.83076 0.0
Eu81 Eu 0.64983 0.57382 0.84782 0.0
C82 C 0.5736 0.53912 0.88337 0.0
C83 C 0.43186 0.50023 0.82574 0.0
C84 C 0.45395 0.54069 0.83947 0.0
C85 C 0.36463 0.50753 0.82357 0.0
C86 C 0.43204 0.56457 0.84508 0.0
C87 C 0.38701 0.48353 0.81778 0.0
C88 C 0.38733 0.5486 0.83707 0.0
C89 C 0.45805 0.47829 0.81952 0.0
O90 O 0.63867 0.50266 0.8394 0.0
O91 O 0.5604 0.45791 0.83593 0.0
C92 C 0.60107 0.46207 0.8373 0.0
O93 O 0.58194 0.50891 0.80189 0.0
O94 O 0.71196 0.58346 0.86416 0.0
O95 O 0.71168 0.64051 0.84966 0.0
O96 O 0.64908 0.57534 0.81083 0.0
C97 C 0.62226 0.54135 0.7966 0.0
O98 O 0.56791 0.58889 0.82498 0.0
O99 O 0.6198 0.61961 0.85373 0.0
O100 O 0.6148 0.54809 0.87922 0.0
O101 O 0.49054 0.50138 0.80623 0.0
O102 O 0.47237 0.4651 0.8361 0.0
O103 O 0.54395 0.53236 0.86738 0.0
C104 C 0.78053 0.63953 0.8496 0.0
C105 C 0.79005 0.6535 0.82793 0.0
C106 C 0.85869 0.65873 0.8558 0.0
C107 C 0.83419 0.67128 0.82049 0.0
C108 C 0.81487 0.64138 0.86325 0.0
C109 C 0.86906 0.67473 0.83453 0.0
C110 C 0.73619 0.62578 0.85889 0.0
C111 C 0.59321 0.62351 0.83926 0.0
H112 H 0.48854 0.55411 0.84583 0.0
H113 H 0.33003 0.49447 0.81729 0.0
H114 H 0.45007 0.59541 0.85595 0.0
H115 H 0.3696 0.45242 0.80707 0.0
H116 H 0.76384 0.65196 0.81701 0.0
H117 H 0.88501 0.66171 0.86716 0.0
H118 H 0.8413 0.68323 0.80401 0.0
H119 H 0.80816 0.63085 0.88 0.0
P120 P 0.73585 0.08422 0.24301 0.0
H121 H 0.73868 1.04852 0.19872 0.0
H122 H 0.67986 0.98315 0.17566 0.0
H123 H 0.59687 0.93595 0.2325 0.0
H124 H 0.6555 0.99965 0.25515 0.0
H125 H 0.78863 0.1821 0.23631 0.0
H126 H 0.77174 0.23194 0.21548 0.0
H127 H 0.63434 0.11988 0.20101 0.0
H128 H 0.65124 1.07037 0.22206 0.0
H129 H 0.76279 1.04956 0.27949 0.0
H130 H 0.67899 0.10945 0.26927 0.0
O131 O 0.79088 0.1018 0.24031 0.0
H132 H 0.73621 1.03333 0.31701 0.0
H133 H 0.65206 0.09298 0.30651 0.0
C134 C 0.70162 1.02891 0.22865 0.0
C135 C 0.70862 1.0228 0.20633 0.0
C136 C 0.67479 0.98569 0.19313 0.0
C137 C 0.63337 0.95443 0.20211 0.0
C138 C 0.62845 0.95869 0.22496 0.0
C139 C 0.66219 0.9956 0.23806 0.0
C140 C 0.72175 0.12229 0.2301 0.0
C141 C 0.75474 0.16846 0.2289 0.0
C142 C 0.74483 0.19697 0.2172 0.0
C143 C 0.70167 0.17963 0.20656 0.0
C144 C 0.6679 0.13396 0.20889 0.0
C145 C 0.67774 0.10564 0.22078 0.0
C146 C 0.7234 0.08125 0.27173 0.0
C147 C 0.73952 1.06016 0.2855 0.0
C148 C 0.72397 1.05053 0.30682 0.0
C149 C 0.6919 1.06171 0.31463 0.0
C150 C 0.67718 0.08446 0.30105 0.0
C151 C 0.69259 0.09388 0.2797 0.0
P152 P 0.86277 0.61763 0.59663 0.0
H153 H 0.88251 0.57741 0.55722 0.0
H154 H 0.83345 0.52675 0.52587 0.0
H155 H 0.71613 0.51818 0.55682 0.0
H156 H 0.76496 0.56829 0.58786 0.0
H157 H 0.91932 0.69208 0.56875 0.0
H158 H 0.90629 0.74913 0.55212 0.0
H159 H 0.78598 0.70504 0.58983 0.0
H160 H 0.79915 0.64898 0.60618 0.0
H161 H 0.80833 0.5275 0.61434 0.0
H162 H 0.8665 0.66905 0.6377 0.0
O163 O 0.9158 0.627 0.59666 0.0
H164 H 0.76601 0.50355 0.64791 0.0
H165 H 0.82288 0.64565 0.67087 0.0
C166 C 0.82716 0.57562 0.57508 0.0
C167 C 0.84614 0.56398 0.55736 0.0
C168 C 0.81819 0.53543 0.53941 0.0
C169 C 0.77108 0.51902 0.53879 0.0
C170 C 0.7524 0.53097 0.55661 0.0
C171 C 0.7802 0.55904 0.57453 0.0
C172 C 0.8612 0.66743 0.58932 0.0
C173 C 0.89119 0.69604 0.57401 0.0
C174 C 0.8834 0.72818 0.56433 0.0
C175 C 0.8453 0.7318 0.56978 0.0
C176 C 0.8163 0.70402 0.58567 0.0
C177 C 0.82396 0.67194 0.59517 0.0
C178 C 0.83905 0.60006 0.62316 0.0
C179 C 0.81211 0.55345 0.62674 0.0
C180 C 0.78769 0.53982 0.64591 0.0
C181 C 0.78996 0.57264 0.66186 0.0
C182 C 0.82011 0.61934 0.65898 0.0
C183 C 0.84487 0.63285 0.6399 0.0
P184 P 0.28842 0.87716 0.93305 0.0
H185 H 0.35089 0.88114 0.89993 0.0
H186 H 0.36504 0.82152 0.88515 0.0
H187 H 0.30336 0.74323 0.94158 0.0
H188 H 0.28751 0.80172 0.95564 0.0
H189 H 0.23806 0.91978 0.91722 0.0
H190 H 0.17841 0.89591 0.88809 0.0
H191 H 0.19493 0.78111 0.86808 0.0
H192 H 0.25063 0.80247 0.89796 0.0
H193 H 0.31072 0.91198 0.97927 0.0
H194 H 0.1968 0.80221 0.94086 0.0
O195 O 0.32617 0.93322 0.93525 0.0
H196 H 0.2712 0.88237 0.01317 0.0
H197 H 0.15677 0.77282 0.97461 0.0
C198 C 0.31727 0.84551 0.92859 0.0
C199 C 0.34203 0.85196 0.90953 0.0
C200 C 0.3499 0.81761 0.90104 0.0
C201 C 0.33384 0.77678 0.9118 0.0
C202 C 0.3145 0.77342 0.93243 0.0
C203 C 0.30592 0.80733 0.94067 0.0
C204 C 0.24966 0.86366 0.9096 0.0
C205 C 0.22914 0.88986 0.90632 0.0
C206 C 0.19535 0.87636 0.88952 0.0
C207 C 0.1818 0.8365 0.8757 0.0
C208 C 0.20399 0.81161 0.87855 0.0
C209 C 0.23671 0.82442 0.89558 0.0
C210 C 0.25629 0.85996 0.95755 0.0
C211 C 0.27672 0.88221 0.97811 0.0
C212 C 0.25406 0.86521 0.99746 0.0
C213 C 0.21074 0.82529 0.99657 0.0
C214 C 0.19016 0.80345 0.97586 0.0
C215 C 0.21282 0.82058 0.95653 0.0
P216 P 1.06166 0.50956 0.44058 0.0
H217 H 0.10847 0.53742 0.48463 0.0
H218 H 0.17583 0.6078 0.49959 0.0
H219 H 0.17445 0.67523 0.44142 0.0
H220 H 0.1059 0.60559 0.42719 0.0
H221 H 0.98163 0.42688 0.42111 0.0
H222 H 0.90992 0.36944 0.43486 0.0
H223 H 0.94881 0.44293 0.49912 0.0
H224 H 1.01974 0.50237 0.48448 0.0
H225 H 0.12361 0.53028 0.40452 0.0
H226 H 0.98781 0.50635 0.41248 0.0
O227 O 1.08908 0.48049 0.44148 0.0
H228 H 0.11568 0.53547 0.36473 0.0
H229 H 0.97905 0.50938 0.37247 0.0
C230 C 1.10135 0.56549 0.45473 0.0
C231 C 0.12157 0.56777 0.47543 0.0
C232 C 0.16099 0.60817 0.48379 0.0
C233 C 0.18205 0.64762 0.47156 0.0
C234 C 0.15982 0.6461 0.45149 0.0
C235 C 0.12016 0.60575 0.44325 0.0
C236 C 1.00583 0.47054 0.45135 0.0
C237 C 0.97429 0.43168 0.438 0.0
C238 C 0.93321 0.39783 0.44615 0.0
C239 C 0.9225 0.40052 0.46832 0.0
C240 C 0.9546 0.43942 0.48183 0.0
C241 C 0.99563 0.47381 0.47348 0.0
C242 C 1.05585 0.51655 0.41145 0.0
C243 C 1.09201 0.52596 0.39772 0.0
C244 C 1.08755 0.52909 0.375 0.0
C245 C 1.04654 0.52222 0.3655 0.0
C246 C 1.0108 0.51418 0.37935 0.0
C247 C 1.01576 0.51228 0.40219 0.0
P248 P 0.60302 1.04076 0.78442 0.0
H249 H 0.63169 0.0933 0.82754 0.0
H250 H 0.63158 0.16213 0.84147 0.0
H251 H 0.54713 0.14982 0.78485 0.0
H252 H 0.54582 0.08017 0.77156 0.0
H253 H 0.58131 1.00256 0.82868 0.0
H254 H 0.57405 0.93272 0.84265 0.0
H255 H 0.5841 0.88665 0.77642 0.0
H256 H 0.59043 0.95566 0.76272 0.0
H257 H 0.65229 0.09437 0.74769 0.0
H258 H 0.51938 0.97864 0.75724 0.0
O259 O 0.65979 1.06744 0.7864 0.0
H260 H 0.63175 0.09168 0.70882 0.0
H261 H 0.49858 0.97509 0.71801 0.0
C262 C 0.58892 0.08094 0.79841 0.0
C263 C 0.61173 0.10433 0.8185 0.0
C264 C 0.61229 0.14447 0.82626 0.0
C265 C 0.59037 0.16285 0.81405 0.0
C266 C 0.56453 0.13726 0.79481 0.0
C267 C 0.56382 0.09696 0.78713 0.0
C268 C 0.58497 0.98428 0.79447 0.0
C269 C 0.58043 0.97677 0.81706 0.0
C270 C 0.57696 0.93682 0.82508 0.0
C271 C 0.57871 0.90343 0.81077 0.0
C272 C 0.58176 0.91058 0.78806 0.0
C273 C 0.58522 0.95041 0.78012 0.0
C274 C 0.5878 1.03595 0.75528 0.0
C275 C 0.61887 1.06778 0.74133 0.0
C276 C 0.60706 1.06616 0.71901 0.0
C277 C 0.56362 1.03289 0.71012 0.0
C278 C 0.53226 1.00131 0.72427 0.0
C279 C 0.5442 1.00298 0.74666 0.0
P280 P 0.56073 0.56534 0.12176 0.0
H281 H 0.60028 0.52568 0.15033 0.0
H282 H 0.67834 0.54681 0.16046 0.0
H283 H 0.72791 0.67424 0.12948 0.0
H284 H 0.64909 0.65248 0.1191 0.0
H285 H 0.48969 0.52027 0.15344 0.0
H286 H 0.42347 0.52652 0.1623 0.0
H287 H 0.47831 0.65125 0.12864 0.0
H288 H 0.54541 0.64483 0.11963 0.0
H289 H 0.62188 0.56672 0.08783 0.0
H290 H 0.49882 0.57322 0.09006 0.0
O291 O 0.53492 0.50854 0.12275 0.0
H292 H 0.61594 0.56133 0.04763 0.0
H293 H 0.49458 0.57155 0.0502 0.0
C294 C 0.61826 0.58736 0.13384 0.0
C295 C 0.62769 0.55854 0.14591 0.0
C296 C 0.67271 0.57048 0.15155 0.0
C297 C 0.70993 0.61199 0.14556 0.0
C298 C 0.70034 0.642 0.13446 0.0
C299 C 0.6551 0.62974 0.1286 0.0
C300 C 0.52248 0.5814 0.13532 0.0
C301 C 0.48856 0.54984 0.14842 0.0
C302 C 0.45034 0.55336 0.15348 0.0
C303 C 0.44495 0.58891 0.14585 0.0
C304 C 0.48124 0.6234 0.13478 0.0
C305 C 0.51978 0.61978 0.12965 0.0
C306 C 0.56202 0.5725 0.0923 0.0
C307 C 0.59465 0.56904 0.07977 0.0
C308 C 0.59113 0.56588 0.05662 0.0
C309 C 0.55469 0.56591 0.04536 0.0
C310 C 0.52278 0.57063 0.05805 0.0
C311 C 0.52587 0.57287 0.08113 0.0
H312 H 0.25154 0.65645 0.17277 0.0
H313 H 0.15448 0.52281 0.14139 0.0
H314 H 0.21665 0.50768 0.13446 0.0
H315 H 0.34296 0.68187 0.13569 0.0
H316 H 0.38793 0.7091 0.15688 0.0
H317 H 0.33586 0.71 0.16003 0.0
H318 H 0.32684 0.67512 0.19738 0.0
H319 H 0.37693 0.67034 0.19448 0.0
H320 H 0.32302 0.62032 0.19885 0.0
H321 H 0.28769 0.50512 0.13102 0.0
H322 H 0.36482 0.51613 0.13042 0.0
H323 H 0.42031 0.65228 0.16251 0.0
C324 C 0.24338 0.62394 0.16453 0.0
C325 C 0.19755 0.59081 0.15767 0.0
C326 C 0.18884 0.54893 0.14679 0.0
C327 C 0.2241 0.53989 0.14277 0.0
C328 C 0.26858 0.57306 0.14952 0.0
C329 C 0.27863 0.61437 0.16011 0.0
C330 C 0.32993 0.64386 0.16542 0.0
C331 C 0.35038 0.68888 0.15381 0.0
C332 C 0.33975 0.653 0.19052 0.0
C333 C 0.34691 0.6128 0.1559 0.0
C334 C 0.31051 0.57197 0.14706 0.0
C335 C 0.31646 0.53698 0.13784 0.0
C336 C 0.36054 0.54354 0.13764 0.0
C337 C 0.39889 0.58492 0.14642 0.0
C338 C 0.39186 0.62032 0.15553 0.0
H339 H 0.70444 0.1444 0.47386 0.0
H340 H 0.65749 0.1981 0.52707 0.0
H341 H 0.72734 0.27404 0.52565 0.0
H342 H 0.82512 0.21161 0.48952 0.0
H343 H 0.84283 0.22044 0.46148 0.0
H344 H 0.79057 0.16977 0.46754 0.0
H345 H 0.74626 0.1892 0.43939 0.0
H346 H 0.79828 0.24004 0.43326 0.0
H347 H 0.75018 0.24427 0.44213 0.0
H348 H 0.80007 0.3469 0.51621 0.0
H349 H 0.87119 0.40753 0.50186 0.0
H350 H 0.87206 0.30688 0.45484 0.0
C351 C 0.70869 0.17228 0.48511 0.0
C352 C 0.67514 0.16509 0.50058 0.0
C353 C 0.68217 0.20265 0.51491 0.0
C354 C 0.7217 0.24612 0.51411 0.0
C355 C 0.75345 0.25242 0.4983 0.0
C356 C 0.7474 0.21642 0.48407 0.0
C357 C 0.78667 0.23235 0.46858 0.0
C358 C 0.81285 0.20703 0.47199 0.0
C359 C 0.7693 0.2261 0.44441 0.0
C360 C 0.81564 0.28292 0.47622 0.0
C361 C 0.79587 0.29379 0.49339 0.0
C362 C 0.81593 0.3385 0.50289 0.0
C363 C 0.85692 0.3729 0.49467 0.0
C364 C 0.87849 0.36295 0.47712 0.0
C365 C 0.857 0.31677 0.46798 0.0
H366 H 0.55235 0.65137 0.8082 0.0
H367 H 0.63294 0.69637 0.87002 0.0
H368 H 0.63474 0.76991 0.87013 0.0
H369 H 0.61032 0.76018 0.78408 0.0
H370 H 0.55978 0.75434 0.77085 0.0
H371 H 0.56275 0.70407 0.77598 0.0
H372 H 0.48882 0.67248 0.79738 0.0
H373 H 0.48559 0.72286 0.79268 0.0
H374 H 0.48616 0.70658 0.82042 0.0
H375 H 0.63008 0.84025 0.86325 0.0
H376 H 0.62122 0.90237 0.84948 0.0
H377 H 0.54346 0.81389 0.79187 0.0
C378 C 0.57016 0.67657 0.82183 0.0
C379 C 0.59251 0.66755 0.83915 0.0
C380 C 0.61556 0.70194 0.85654 0.0
C381 C 0.61674 0.74404 0.85678 0.0
C382 C 0.59481 0.75197 0.83946 0.0
C383 C 0.57201 0.71928 0.82226 0.0
C384 C 0.55234 0.7373 0.80542 0.0
C385 C 0.57251 0.73908 0.78274 0.0
C386 C 0.5001 0.70805 0.80386 0.0
C387 C 0.56824 0.78536 0.81568 0.0
C388 C 0.59231 0.7928 0.83543 0.0
C389 C 0.61095 0.83457 0.84787 0.0
C390 C 0.60533 0.86977 0.83993 0.0
C391 C 0.58124 0.86368 0.81957 0.0
C392 C 0.56229 0.82035 0.80742 0.0
H393 H 0.91679 0.56177 0.15541 0.0
H394 H 1.00543 0.70445 0.17791 0.0
H395 H 0.93991 0.71681 0.17508 0.0
H396 H 0.84965 0.58376 0.11525 0.0
H397 H 0.79869 0.5305 0.11987 0.0
H398 H 0.85381 0.53592 0.12362 0.0
H399 H 0.8316 0.50921 0.1636 0.0
H400 H 0.77793 0.5068 0.15966 0.0
H401 H 0.81654 0.54184 0.18242 0.0
H402 H 0.86338 0.71371 0.16871 0.0
H403 H 0.78425 0.69513 0.16044 0.0
H404 H 0.74584 0.55457 0.14184 0.0
C405 C 0.92268 0.59568 0.15984 0.0
C406 C 0.96683 0.63209 0.16699 0.0
C407 C 0.97232 0.67584 0.17246 0.0
C408 C 0.93513 0.68322 0.17087 0.0
C409 C 0.89231 0.64665 0.1636 0.0
C410 C 0.88603 0.60374 0.15811 0.0
C411 C 0.83693 0.57039 0.15017 0.0
C412 C 0.83461 0.55414 0.1258 0.0
C413 C 0.81443 0.52966 0.16484 0.0
C414 C 0.81604 0.60069 0.15272 0.0
C415 C 0.84866 0.64478 0.16016 0.0
C416 C 0.8377 0.6792 0.16295 0.0
C417 C 0.79254 0.66836 0.15807 0.0
C418 C 0.75824 0.62329 0.15058 0.0
C419 C 0.77067 0.58919 0.14791 0.0
H420 H 0.3895 0.91243 0.48256 0.0
H421 H 0.46985 0.86403 0.5152 0.0
H422 H 0.40389 0.78538 0.51183 0.0
H423 H 0.28214 0.83616 0.50722 0.0
H424 H 0.24777 0.82684 0.48252 0.0
H425 H 0.30101 0.87985 0.48772 0.0
H426 H 0.32845 0.86694 0.44993 0.0
H427 H 0.27532 0.8139 0.44462 0.0
H428 H 0.32843 0.81443 0.44356 0.0
H429 H 0.32944 0.71094 0.50439 0.0
H430 H 0.25308 0.64671 0.4933 0.0
H431 H 0.21827 0.74143 0.4658 0.0
C432 C 0.39327 0.88538 0.48909 0.0
C433 C 0.43546 0.89507 0.49923 0.0
C434 C 0.4384 0.85814 0.50739 0.0
C435 C 0.4009 0.81308 0.50556 0.0
C436 C 0.3601 0.80478 0.49548 0.0
C437 C 0.35596 0.83986 0.48737 0.0
C438 C 0.30819 0.82122 0.47703 0.0
C439 C 0.28331 0.84228 0.48936 0.0
C440 C 0.31024 0.82963 0.45232 0.0
C441 C 0.28627 0.77023 0.48051 0.0
C442 C 0.31693 0.76169 0.49126 0.0
C443 C 0.30509 0.71741 0.49615 0.0
C444 C 0.26108 0.68094 0.48991 0.0
C445 C 0.22846 0.68821 0.47884 0.0
C446 C 0.2418 0.73398 0.47414 0.0
H447 H 0.53653 0.37098 0.82356 0.0
H448 H 0.6769 0.45789 0.84809 0.0
H449 H 0.68773 0.39147 0.84571 0.0
H450 H 0.51453 0.26913 0.85143 0.0
H451 H 0.48066 0.22947 0.82863 0.0
H452 H 0.4827 0.28348 0.8328 0.0
H453 H 0.50892 0.30259 0.79299 0.0
H454 H 0.50698 0.24866 0.7887 0.0
H455 H 0.55876 0.30138 0.78436 0.0
H456 H 0.68482 0.31639 0.84034 0.0
H457 H 0.66904 0.23813 0.83141 0.0
H458 H 0.53048 0.19668 0.80997 0.0
C459 C 0.56944 0.37597 0.82858 0.0
C460 C 0.60581 0.42022 0.83611 0.0
C461 C 0.64839 0.42486 0.84225 0.0
C462 C 0.65494 0.38712 0.841 0.0
C463 C 0.61874 0.34432 0.83345 0.0
C464 C 0.5768 0.33838 0.82726 0.0
C465 C 0.54416 0.28853 0.81916 0.0
C466 C 0.50307 0.26635 0.83388 0.0
C467 C 0.5288 0.2851 0.79486 0.0
C468 C 0.57438 0.26763 0.82175 0.0
C469 C 0.61717 0.3006 0.83015 0.0
C470 C 0.65128 0.29022 0.83392 0.0
C471 C 0.64173 0.2452 0.82894 0.0
C472 C 0.59823 0.21024 0.82021 0.0
C473 C 0.56415 0.22211 0.81658 0.0
H474 H 0.71789 0.8704 0.55577 0.0
H475 H 0.7247 0.85362 0.48483 0.0
H476 H 0.77109 0.81732 0.49066 0.0
H477 H 0.83144 0.89624 0.57024 0.0
H478 H 0.81498 0.86503 0.59483 0.0
H479 H 0.78346 0.89064 0.58498 0.0
H480 H 0.70859 0.81185 0.58364 0.0
H481 H 0.73976 0.78618 0.59377 0.0
H482 H 0.70576 0.76344 0.56831 0.0
H483 H 0.81451 0.78039 0.50459 0.0
H484 H 0.84725 0.74201 0.52523 0.0
H485 H 0.8129 0.78545 0.58686 0.0
C486 C 0.7286 0.85859 0.54142 0.0
C487 C 0.71743 0.86446 0.51984 0.0
C488 C 0.73304 0.84951 0.50151 0.0
C489 C 0.75941 0.82898 0.50467 0.0
C490 C 0.77007 0.82406 0.52623 0.0
C491 C 0.75495 0.83832 0.54426 0.0
C492 C 0.76995 0.82824 0.56572 0.0
C493 C 0.80186 0.87269 0.57976 0.0
C494 C 0.72855 0.79547 0.57861 0.0
C495 C 0.79527 0.80529 0.55699 0.0
C496 C 0.79537 0.8035 0.53419 0.0
C497 C 0.81504 0.78201 0.52245 0.0
C498 C 0.83391 0.76066 0.53432 0.0
C499 C 0.83274 0.7609 0.55765 0.0
C500 C 0.81421 0.78461 0.56904 0.0
H501 H 0.93185 0.6489 0.84059 0.0
H502 H 0.91493 0.75739 0.81625 0.0
H503 H 0.99843 0.80767 0.81646 0.0
H504 H 1.00879 0.71259 0.87936 0.0
H505 H 1.04311 0.686 0.87783 0.0
H506 H 0.98431 0.65389 0.86867 0.0
H507 H 1.0063 0.63663 0.83016 0.0
H508 H 1.06556 0.66835 0.83933 0.0
H509 H 1.04687 0.68316 0.81482 0.0
H510 H 1.08089 0.85157 0.82855 0.0
H511 H 0.15448 0.88346 0.84959 0.0
H512 H 0.11594 0.74693 0.86785 0.0
C513 C 0.94588 0.68258 0.83439 0.0
C514 C 0.91719 0.69932 0.82838 0.0
C515 C 0.93641 0.74368 0.82059 0.0
C516 C 0.98385 0.77252 0.82072 0.0
C517 C 1.01138 0.75616 0.82839 0.0
C518 C 0.993 0.71177 0.83468 0.0
C519 C 1.02864 0.70467 0.84586 0.0
C520 C 1.01542 0.68839 0.8693 0.0
C521 C 1.03736 0.67123 0.83169 0.0
C522 C 1.06908 0.75279 0.84642 0.0
C523 C 1.05903 0.7818 0.83572 0.0
C524 C 1.08956 0.82893 0.83644 0.0
C525 C 0.13105 0.84683 0.84866 0.0
C526 C 0.14127 0.81769 0.86023 0.0
C527 C 0.11008 0.77004 0.8586 0.0
H528 H 0.37478 0.78339 0.19742 0.0
H529 H 0.36524 0.8606 0.14503 0.0
H530 H 0.44732 0.89375 0.13919 0.0
H531 H 0.47093 0.86795 0.22194 0.0
H532 H 0.49547 0.83414 0.22966 0.0
H533 H 0.4349 0.80769 0.22567 0.0
H534 H 0.43454 0.74855 0.19698 0.0
H535 H 0.4955 0.77508 0.20056 0.0
H536 H 0.46958 0.76758 0.17342 0.0
H537 H 0.53092 0.93133 0.14492 0.0
H538 H 0.60787 0.97176 0.16246 0.0
H539 H 0.56495 0.86794 0.20997 0.0
C540 C 0.38988 0.80647 0.18438 0.0
C541 C 0.36391 0.81964 0.17172 0.0
C542 C 0.38455 0.84977 0.15476 0.0
C543 C 0.43108 0.86857 0.15126 0.0
C544 C 0.45622 0.85615 0.16458 0.0
C545 C 0.43617 0.82529 0.18064 0.0
C546 C 0.4715 0.8227 0.19486 0.0
C547 C 0.46799 0.83383 0.21946 0.0
C548 C 0.46755 0.77567 0.19121 0.0
C549 C 0.51468 0.85969 0.18554 0.0
C550 C 0.5052 0.87761 0.16764 0.0
C551 C 0.53897 0.91663 0.15843 0.0
C552 C 0.58288 0.93931 0.16848 0.0
C553 C 0.59257 0.92303 0.18765 0.0
C554 C 0.5586 0.88116 0.19533 0.0
H555 H 0.63794 0.27523 0.47862 0.0
H556 H 0.52974 0.30287 0.46382 0.0
H557 H 0.58294 0.38551 0.47312 0.0
H558 H 0.67566 0.34449 0.52573 0.0
H559 H 0.73431 0.36009 0.52288 0.0
H560 H 0.68928 0.3071 0.50994 0.0
H561 H 0.73004 0.33339 0.47293 0.0
H562 H 0.7721 0.3885 0.48564 0.0
H563 H 0.73744 0.3852 0.46217 0.0
H564 H 0.64237 0.46096 0.49126 0.0
H565 H 0.70172 0.52172 0.5168 0.0
H566 H 0.77018 0.44371 0.52031 0.0
C567 C 0.62602 0.29891 0.47619 0.0
C568 C 0.57998 0.28281 0.47012 0.0
C569 C 0.56505 0.31463 0.46825 0.0
C570 C 0.59511 0.36161 0.47338 0.0
C571 C 0.63991 0.37609 0.48031 0.0
C572 C 0.65532 0.34556 0.48156 0.0
C573 C 0.70188 0.36769 0.49316 0.0
C574 C 0.70025 0.34347 0.51418 0.0
C575 C 0.73746 0.36874 0.47753 0.0
C576 C 0.70999 0.41516 0.49884 0.0
C577 C 0.67416 0.41964 0.49106 0.0
C578 C 0.6711 0.45823 0.49695 0.0
C579 C 0.70473 0.49237 0.51159 0.0
C580 C 0.74067 0.48745 0.52036 0.0
C581 C 0.74394 0.44903 0.51331 0.0
H582 H 0.42362 0.64089 0.83765 0.0
H583 H 0.30201 0.51541 0.8528 0.0
H584 H 0.27218 0.56095 0.87134 0.0
H585 H 0.43975 0.69828 0.88751 0.0
H586 H 0.45942 0.75418 0.8776 0.0
H587 H 0.46725 0.7128 0.86158 0.0
H588 H 0.42369 0.71926 0.82768 0.0
H589 H 0.41749 0.76196 0.84357 0.0
H590 H 0.36797 0.71185 0.83096 0.0
H591 H 0.26065 0.61972 0.8922 0.0
H592 H 0.26537 0.68724 0.912 0.0
H593 H 0.3977 0.7741 0.88531 0.0
C594 C 0.39016 0.62306 0.84435 0.0
C595 C 0.36501 0.57474 0.84382 0.0
C596 C 0.32144 0.55241 0.85279 0.0
C597 C 0.30442 0.57801 0.86344 0.0
C598 C 0.3313 0.62569 0.86472 0.0
C599 C 0.37294 0.64803 0.85509 0.0
C600 C 0.39702 0.6993 0.86041 0.0
C601 C 0.44359 0.71715 0.87249 0.0
C602 C 0.40182 0.72457 0.83941 0.0
C603 C 0.36339 0.70214 0.87542 0.0
C604 C 0.32538 0.65947 0.87736 0.0
C605 C 0.29012 0.65333 0.89071 0.0
C606 C 0.29352 0.69191 0.90216 0.0
C607 C 0.33224 0.73609 0.90047 0.0
C608 C 0.36755 0.74099 0.88688 0.0
H609 H 0.81461 0.40976 0.15845 0.0
H610 H 0.78447 0.33147 0.09572 0.0
H611 H 0.71795 0.26679 0.11115 0.0
H612 H 0.81128 0.33624 0.18737 0.0
H613 H 0.78537 0.34373 0.21173 0.0
H614 H 0.81395 0.38997 0.19431 0.0
H615 H 0.7413 0.39522 0.18921 0.0
H616 H 0.71229 0.34914 0.2072 0.0
H617 H 0.68819 0.34493 0.17996 0.0
H618 H 0.67614 0.20499 0.13514 0.0
H619 H 0.66595 0.15359 0.16438 0.0
H620 H 0.72438 0.26894 0.21292 0.0
C621 C 0.79203 0.38013 0.14759 0.0
C622 C 0.80427 0.37555 0.12592 0.0
C623 C 0.7753 0.33567 0.11233 0.0
C624 C 0.7373 0.29885 0.121 0.0
C625 C 0.72878 0.30252 0.14325 0.0
C626 C 0.75495 0.34274 0.15631 0.0
C627 C 0.74702 0.33495 0.18061 0.0
C628 C 0.79205 0.35216 0.19424 0.0
C629 C 0.72061 0.35737 0.18978 0.0
C630 C 0.71761 0.28329 0.17936 0.0
C631 C 0.70509 0.26547 0.15768 0.0
C632 C 0.6843 0.21852 0.15218 0.0
C633 C 0.67864 0.18946 0.16893 0.0
C634 C 0.69451 0.20757 0.19085 0.0
C635 C 0.71171 0.25453 0.19626 0.0
H636 H 1.09818 0.63107 0.08241 0.0
H637 H 0.12471 0.73985 0.13163 0.0
H638 H 0.14762 0.79482 0.10262 0.0
H639 H 0.19448 0.69707 0.05282 0.0
H640 H 0.16859 0.6717 0.02583 0.0
H641 H 0.14704 0.63911 0.04971 0.0
H642 H 1.06642 0.62482 0.03988 0.0
H643 H 1.08772 0.65729 0.01588 0.0
H644 H 1.05874 0.67289 0.03606 0.0
H645 H 0.1744 0.8392 0.0694 0.0
H646 H 0.20575 0.87113 0.03392 0.0
H647 H 0.16578 0.73479 0.0061 0.0
C648 C 0.10749 0.66618 0.08682 0.0
C649 C 0.10903 0.68141 0.10904 0.0
C650 C 0.12294 0.72778 0.11456 0.0
C651 C 0.13585 0.75911 0.09823 0.0
C652 C 0.13502 0.74352 0.07646 0.0
C653 C 0.1213 0.69821 0.07067 0.0
C654 C 0.12832 0.69169 0.04644 0.0
C655 C 0.16159 0.67386 0.04354 0.0
C656 C 1.08257 0.65978 0.03382 0.0
C657 C 0.14902 0.7405 0.03973 0.0
C658 C 0.15194 0.76966 0.05724 0.0
C659 C 0.17195 0.81669 0.05548 0.0
C660 C 0.18996 0.83455 0.03532 0.0
C661 C 0.18819 0.80551 0.01723 0.0
C662 C 0.16686 0.75778 0.01948 0.0
H663 H 0.59531 0.08304 0.43109 0.0
H664 H 0.56043 0.94271 0.43933 0.0
H665 H 0.58865 0.93893 0.40255 0.0
H666 H 0.56649 1.0689 0.37181 0.0
H667 H 0.61376 0.1245 0.36666 0.0
H668 H 0.58784 0.11507 0.39301 0.0
H669 H 0.66652 0.14361 0.41265 0.0
H670 H 0.69268 0.15266 0.38639 0.0
H671 H 0.69867 0.11641 0.40517 0.0
H672 H 0.62414 0.9514 0.36609 0.0
H673 H 0.6616 0.97823 0.33104 0.0
H674 H 0.67477 0.11091 0.34658 0.0
C675 C 0.59276 1.05123 0.42497 0.0
C676 C 0.57549 1.01308 0.438 0.0
C677 C 0.57351 0.97234 0.42959 0.0
C678 C 0.58946 0.96985 0.40874 0.0
C679 C 0.60732 1.0084 0.39654 0.0
C680 C 0.60882 1.04823 0.40423 0.0
C681 C 0.63132 0.08527 0.38814 0.0
C682 C 0.59784 0.09924 0.37938 0.0
C683 C 0.67487 0.12693 0.39872 0.0
C684 C 0.64232 1.05999 0.37025 0.0
C685 C 0.62821 1.01574 0.37547 0.0
C686 C 0.63527 0.98594 0.36175 0.0
C687 C 0.65693 1.00162 0.342 0.0
C688 C 0.67126 1.04668 0.33616 0.0
C689 C 0.66388 0.07619 0.35055 0.0
H690 H 0.70841 0.59498 0.78226 0.0
H691 H 0.5743 0.48148 0.76111 0.0
H692 H 0.60339 0.47568 0.72476 0.0
H693 H 0.7367 0.64735 0.73061 0.0
H694 H 0.79583 0.66352 0.73332 0.0
H695 H 0.76438 0.65869 0.75762 0.0
H696 H 0.78567 0.6013 0.77223 0.0
H697 H 0.81709 0.6057 0.74795 0.0
H698 H 0.77238 0.55043 0.7553 0.0
H699 H 0.64671 0.48311 0.69062 0.0
H700 H 0.70061 0.50373 0.66081 0.0
H701 H 0.8074 0.61037 0.70484 0.0
C702 C 0.68498 0.56903 0.76997 0.0
C703 C 0.63896 0.53879 0.77451 0.0
C704 C 0.60965 0.50508 0.75801 0.0
C705 C 0.62588 0.50147 0.73733 0.0
C706 C 0.6715 0.53162 0.73348 0.0
C707 C 0.70064 0.56475 0.74933 0.0
C708 C 0.74818 0.59288 0.74105 0.0
C709 C 0.76206 0.64361 0.74062 0.0
C710 C 0.78286 0.58721 0.75496 0.0
C711 C 0.74113 0.57063 0.71794 0.0
C712 C 0.6967 0.53533 0.71394 0.0
C713 C 0.6817 0.51039 0.69362 0.0
C714 C 0.71279 0.52215 0.67683 0.0
C715 C 0.75853 0.55846 0.68044 0.0
C716 C 0.77274 0.58262 0.70142 0.0
H717 H 0.6072 1.05442 0.58106 0.0
H718 H 0.46881 1.02606 0.57029 0.0
H719 H 0.45816 1.0209 0.61053 0.0
H720 H 0.5838 0.97742 0.62326 0.0
H721 H 0.63659 1.01434 0.63884 0.0
H722 H 0.63358 1.01732 0.60939 0.0
H723 H 0.6625 0.10421 0.61471 0.0
H724 H 0.66578 0.10155 0.64419 0.0
H725 H 0.63269 0.12375 0.63233 0.0
H726 H 0.46253 1.01698 0.65231 0.0
H727 H 0.48211 1.01696 0.69168 0.0
H728 H 0.6172 1.04659 0.67447 0.0
C729 C 0.57469 1.04748 0.5871 0.0
C730 C 0.53885 1.04078 0.57243 0.0
C731 C 0.49684 1.03149 0.58115 0.0
C732 C 0.49045 1.02841 0.60399 0.0
C733 C 0.5264 1.03472 0.61793 0.0
C734 C 0.56775 1.04424 0.60977 0.0
C735 C 0.60083 1.049 0.62808 0.0
C736 C 0.61448 1.01233 0.62469 0.0
C737 C 0.64293 0.09751 0.62994 0.0
C738 C 0.57169 1.04059 0.64789 0.0
C739 C 0.52885 1.03237 0.64174 0.0
C740 C 0.496 1.02338 0.65726 0.0
C741 C 0.50734 1.02311 0.6796 0.0
C742 C 0.55123 1.03179 0.6863 0.0
C743 C 0.58356 1.04043 0.67005 0.0
H744 H 0.63127 0.57492 0.92032 0.0
H745 H 0.48801 0.50317 0.89941 0.0
H746 H 0.46766 0.50244 0.93842 0.0
H747 H 0.62017 0.5178 0.9699 0.0
H748 H 0.66303 0.56854 0.98557 0.0
H749 H 0.66624 0.56299 0.95608 0.0
H750 H 0.66817 0.6397 0.95246 0.0
H751 H 0.66504 0.64555 0.98195 0.0
H752 H 0.62349 0.64704 0.96385 0.0
H753 H 0.46305 0.50705 0.9799 0.0
H754 H 0.47401 0.51974 0.02029 0.0
H755 H 0.62081 0.59371 0.01406 0.0
C756 C 0.59556 0.55884 0.92391 0.0
C757 C 0.56117 0.53873 0.90676 0.0
C758 C 0.51494 0.5187 0.91222 0.0
C759 C 0.50306 0.51807 0.93435 0.0
C760 C 0.53782 0.53812 0.95082 0.0
C761 C 0.58314 0.55849 0.94586 0.0
C762 C 0.61396 0.57854 0.9666 0.0
C763 C 0.64253 0.55558 0.96972 0.0
C764 C 0.64446 0.63081 0.96619 0.0
C765 C 0.57889 0.56583 0.98407 0.0
C766 C 0.5352 0.54237 0.97462 0.0
C767 C 0.49715 0.52599 0.98744 0.0
C768 C 0.50385 0.53384 0.01048 0.0
C769 C 0.54837 0.55847 0.02068 0.0
C770 C 0.58628 0.57458 0.00706 0.0
H771 H 0.10791 0.62067 0.24597 0.0
H772 H 0.99683 0.49056 0.21817 0.0
H773 H 0.97964 0.46268 0.25582 0.0
H774 H 0.14544 0.57254 0.28767 0.0
H775 H 0.16097 0.61963 0.3078 0.0
H776 H 0.1637 0.62893 0.27878 0.0
H777 H 0.11078 0.66273 0.28334 0.0
H778 H 0.10764 0.65326 0.31233 0.0
H779 H 1.05612 0.62926 0.29514 0.0
H780 H 0.97207 0.45135 0.2972 0.0
H781 H 0.98015 0.45401 0.33798 0.0
H782 H 1.09984 0.58945 0.33813 0.0
C783 C 1.07995 0.58626 0.24779 0.0
C784 C 1.05339 0.55785 0.22915 0.0
C785 C 1.0176 0.51284 0.2322 0.0
C786 C 1.00751 0.49685 0.25353 0.0
C787 C 1.03409 0.52601 0.27158 0.0
C788 C 1.0701 0.56949 0.26884 0.0
C789 C 1.09448 0.59363 0.29077 0.0
C790 C 0.14408 0.60429 0.29128 0.0
C791 C 1.09209 0.6373 0.29568 0.0
C792 C 1.06625 0.55724 0.30641 0.0
C793 C 1.03123 0.51865 0.29508 0.0
C794 C 0.99966 0.48123 0.30615 0.0
C795 C 1.00434 0.48311 0.3293 0.0
C796 C 1.04069 0.52181 0.34114 0.0
C797 C 1.07197 0.55928 0.32946 0.0
loop_
_geom_bond_atom_site_label_1
_geom_bond_atom_site_label_2
_geom_bond_distance
_geom_bond_site_symmetry_2
_ccdc_geom_bond_type
Eu0 C9 2.828 . S
Eu0 O11 2.392 1_655 S
Eu0 O13 2.418 . S
Eu0 O18 2.373 . S
Eu0 O21 2.488 . S
Eu0 O22 2.471 . S
Eu0 O23 2.349 . S
Eu1 O10 2.373 . S
Eu1 O14 2.488 . S
Eu1 O15 2.471 . S
Eu1 O16 2.349 . S
Eu1 O19 2.392 1_455 S
Eu1 O20 2.418 . S
Eu1 C30 2.828 . S
C2 O20 1.244 . S
C2 O23 1.265 1_455 S
C3 C4 1.379 . S
C3 C7 1.373 . S
C3 C9 1.505 . S
C4 C3 1.379 . S
C4 C6 1.369 . S
C4 H32 0.930 . S
C5 C7 1.383 . S
C5 C8 1.382 . S
C5 H33 0.930 . S
C6 C4 1.369 . S
C6 C8 1.392 . S
C6 H34 0.930 . S
C7 C3 1.373 . S
C7 C5 1.383 . S
C7 H35 0.931 . S
C8 C5 1.382 . S
C8 C6 1.392 . S
C9 Eu0 2.828 . S
C9 C3 1.505 . S
C9 O21 1.249 . S
C9 O22 1.244 . S
O10 Eu1 2.373 . S
O10 C12 1.258 . S
O11 Eu0 2.392 1_455 S
O11 C12 1.242 . S
C12 O10 1.258 . S
C12 O11 1.242 . S
O13 Eu0 2.418 . S
O13 C17 1.244 . S
O14 Eu1 2.488 . S
O14 C30 1.249 . S
O15 Eu1 2.471 . S
O15 C30 1.244 . S
O16 Eu1 2.349 . S
O16 C17 1.265 1_455 S
C17 O13 1.244 . S
C17 O16 1.265 1_655 S
O18 Eu0 2.373 . S
O18 C31 1.258 . S
O19 Eu1 2.392 1_655 S
O19 C31 1.242 . S
O20 Eu1 2.418 . S
O20 C2 1.244 . S
O21 Eu0 2.488 . S
O21 C9 1.249 . S
O22 Eu0 2.471 . S
O22 C9 1.244 . S
O23 Eu0 2.349 . S
O23 C2 1.265 1_655 S
C24 C25 1.379 . S
C24 C28 1.373 . S
C24 C30 1.505 . S
C25 C24 1.379 . S
C25 C27 1.369 . S
C25 H36 0.930 . S
C26 C28 1.383 . S
C26 C29 1.382 . S
C26 H37 0.930 . S
C27 C25 1.369 . S
C27 C29 1.392 . S
C27 H38 0.930 . S
C28 C24 1.373 . S
C28 C26 1.383 . S
C28 H39 0.931 . S
C29 C26 1.382 . S
C29 C27 1.392 . S
C30 Eu1 2.828 . S
C30 O14 1.249 . S
C30 O15 1.244 . S
C30 C24 1.505 . S
C31 O18 1.258 . S
C31 O19 1.242 . S
H32 C4 0.930 . S
H33 C5 0.930 . S
H34 C6 0.930 . S
H35 C7 0.931 . S
H36 C25 0.930 . S
H37 C26 0.930 . S
H38 C27 0.930 . S
H39 C28 0.931 . S
Eu40 C49 2.828 . S
Eu40 O51 2.392 1_565 S
Eu40 O53 2.418 . S
Eu40 O58 2.373 . S
Eu40 O61 2.488 . S
Eu40 O62 2.471 . S
Eu40 O63 2.349 . S
Eu41 O50 2.373 . S
Eu41 O54 2.488 . S
Eu41 O55 2.471 . S
Eu41 O56 2.349 . S
Eu41 O59 2.392 1_545 S
Eu41 O60 2.418 . S
Eu41 C70 2.828 . S
C42 O60 1.244 . S
C42 O63 1.265 1_545 S
C43 C44 1.379 . S
C43 C47 1.373 . S
C43 C49 1.505 . S
C44 C43 1.379 . S
C44 C46 1.369 . S
C44 H72 0.930 . S
C45 C47 1.383 . S
C45 C48 1.382 . S
C45 H73 0.930 . S
C46 C44 1.369 . S
C46 C48 1.392 . S
C46 H74 0.930 . S
C47 C43 1.373 . S
C47 C45 1.383 . S
C47 H75 0.931 . S
C48 C45 1.382 . S
C48 C46 1.392 . S
C49 Eu40 2.828 . S
C49 C43 1.505 . S
C49 O61 1.249 . S
C49 O62 1.244 . S
O50 Eu41 2.373 . S
O50 C52 1.258 . S
O51 Eu40 2.392 1_545 S
O51 C52 1.242 . S
C52 O50 1.258 . S
C52 O51 1.242 . S
O53 Eu40 2.418 . S
O53 C57 1.244 1_565 S
O54 Eu41 2.488 . S
O54 C70 1.249 . S
O55 Eu41 2.471 . S
O55 C70 1.244 . S
O56 Eu41 2.349 . S
O56 C57 1.265 . S
C57 O53 1.244 1_545 S
C57 O56 1.265 . S
O58 Eu40 2.373 . S
O58 C71 1.258 . S
O59 Eu41 2.392 1_565 S
O59 C71 1.242 . S
O60 Eu41 2.418 . S
O60 C42 1.244 . S
O61 Eu40 2.488 . S
O61 C49 1.249 . S
O62 Eu40 2.471 . S
O62 C49 1.244 . S
O63 Eu40 2.349 . S
O63 C42 1.265 1_565 S
C64 C65 1.379 . S
C64 C68 1.373 . S
C64 C70 1.505 . S
C65 C64 1.379 . S
C65 C67 1.369 . S
C65 H76 0.930 . S
C66 C68 1.383 . S
C66 C69 1.382 . S
C66 H77 0.930 . S
C67 C65 1.369 . S
C67 C69 1.392 . S
C67 H78 0.930 . S
C68 C64 1.373 . S
C68 C66 1.383 . S
C68 H79 0.931 . S
C69 C66 1.382 . S
C69 C67 1.392 . S
C70 Eu41 2.828 . S
C70 O54 1.249 . S
C70 O55 1.244 . S
C70 C64 1.505 . S
C71 O58 1.258 . S
C71 O59 1.242 . S
H72 C44 0.930 . S
H73 C45 0.930 . S
H74 C46 0.930 . S
H75 C47 0.931 . S
H76 C65 0.930 . S
H77 C66 0.930 . S
H78 C67 0.930 . S
H79 C68 0.931 . S
Eu80 C89 2.828 . S
Eu80 O91 2.392 . S
Eu80 O93 2.418 . S
Eu80 O98 2.373 . S
Eu80 O101 2.488 . S
Eu80 O102 2.471 . S
Eu80 O103 2.349 . S
Eu81 O90 2.373 . S
Eu81 O94 2.488 . S
Eu81 O95 2.471 . S
Eu81 O96 2.349 . S
Eu81 O99 2.392 . S
Eu81 O100 2.418 . S
Eu81 C110 2.828 . S
C82 O100 1.244 . S
C82 O103 1.265 . S
C83 C84 1.379 . S
C83 C87 1.373 . S
C83 C89 1.505 . S
C84 C83 1.379 . S
C84 C86 1.369 . S
C84 H112 0.930 . S
C85 C87 1.383 . S
C85 C88 1.382 . S
C85 H113 0.930 . S
C86 C84 1.369 . S
C86 C88 1.392 . S
C86 H114 0.930 . S
C87 C83 1.373 . S
C87 C85 1.383 . S
C87 H115 0.931 . S
C88 C85 1.382 . S
C88 C86 1.392 . S
C89 Eu80 2.828 . S
C89 C83 1.505 . S
C89 O101 1.249 . S
C89 O102 1.244 . S
O90 Eu81 2.373 . S
O90 C92 1.258 . S
O91 Eu80 2.392 . S
O91 C92 1.242 . S
C92 O90 1.258 . S
C92 O91 1.242 . S
O93 Eu80 2.418 . S
O93 C97 1.244 . S
O94 Eu81 2.488 . S
O94 C110 1.249 . S
O95 Eu81 2.471 . S
O95 C110 1.244 . S
O96 Eu81 2.349 . S
O96 C97 1.265 . S
C97 O93 1.244 . S
C97 O96 1.265 . S
O98 Eu80 2.373 . S
O98 C111 1.258 . S
O99 Eu81 2.392 . S
O99 C111 1.242 . S
O100 Eu81 2.418 . S
O100 C82 1.244 . S
O101 Eu80 2.488 . S
O101 C89 1.249 . S
O102 Eu80 2.471 . S
O102 C89 1.244 . S
O103 Eu80 2.349 . S
O103 C82 1.265 . S
C104 C105 1.379 . S
C104 C108 1.373 . S
C104 C110 1.505 . S
C105 C104 1.379 . S
C105 C107 1.369 . S
C105 H116 0.930 . S
C106 C108 1.383 . S
C106 C109 1.382 . S
C106 H117 0.930 . S
C107 C105 1.369 . S
C107 C109 1.392 . S
C107 H118 0.930 . S
C108 C104 1.373 . S
C108 C106 1.383 . S
C108 H119 0.931 . S
C109 C106 1.382 . S
C109 C107 1.392 . S
C110 Eu81 2.828 . S
C110 O94 1.249 . S
C110 O95 1.244 . S
C110 C104 1.505 . S
C111 O98 1.258 . S
C111 O99 1.242 . S
H112 C84 0.930 . S
H113 C85 0.930 . S
H114 C86 0.930 . S
H115 C87 0.931 . S
H116 C105 0.930 . S
H117 C106 0.930 . S
H118 C107 0.930 . S
H119 C108 0.931 . S
P120 O131 1.515 . S
P120 C134 1.813 . S
P120 C140 1.781 1_565 S
P120 C146 1.812 1_565 S
H121 C135 0.941 . S
H122 C136 0.939 . S
H123 C138 0.940 . S
H124 C139 0.940 . S
H125 C141 0.939 . S
H126 C142 0.942 . S
H127 C144 0.940 . S
H128 C145 0.939 . S
H129 C147 0.941 . S
H130 C151 0.939 . S
O131 P120 1.515 . S
H132 C148 0.939 . S
H133 C150 0.940 . S
C134 P120 1.813 . S
C134 C135 1.389 . S
C134 C139 1.391 . S
C135 H121 0.941 . S
C135 C134 1.389 . S
C135 C136 1.397 . S
C136 H122 0.939 . S
C136 C135 1.397 . S
C136 C137 1.378 . S
C137 C136 1.378 . S
C137 C138 1.378 . S
C138 H123 0.940 . S
C138 C137 1.378 . S
C138 C139 1.396 . S
C139 H124 0.940 . S
C139 C134 1.391 . S
C139 C138 1.396 . S
C140 P120 1.781 1_545 S
C140 C141 1.378 . S
C140 C145 1.400 . S
C141 H125 0.939 . S
C141 C140 1.378 . S
C141 C142 1.361 . S
C142 H126 0.942 . S
C142 C141 1.361 . S
C142 C143 1.369 . S
C143 C142 1.369 . S
C143 C144 1.404 . S
C144 H127 0.940 . S
C144 C143 1.404 . S
C144 C145 1.389 . S
C145 H128 0.939 . S
C145 C140 1.400 . S
C145 C144 1.389 . S
C146 P120 1.812 1_545 S
C146 C147 1.391 1_545 S
C146 C151 1.391 . S
C147 H129 0.941 . S
C147 C146 1.391 1_565 S
C147 C148 1.396 . S
C148 H132 0.939 . S
C148 C147 1.396 . S
C148 C149 1.397 1_565 S
C149 C148 1.397 1_545 S
C149 C150 1.385 . S
C150 H133 0.940 . S
C150 C149 1.385 . S
C150 C151 1.388 . S
C151 H130 0.939 . S
C151 C146 1.391 . S
C151 C150 1.388 . S
P152 O163 1.490 . S
P152 C166 1.812 . S
P152 C172 1.803 . S
P152 C178 1.819 . S
H153 C167 0.941 . S
H154 C168 0.939 . S
H155 C170 0.940 . S
H156 C171 0.940 . S
H157 C173 0.939 . S
H158 C174 0.942 . S
H159 C176 0.940 . S
H160 C177 0.939 . S
H161 C179 0.941 . S
H162 C183 0.939 . S
O163 P152 1.490 . S
H164 C180 0.939 . S
H165 C182 0.940 . S
C166 P152 1.812 . S
C166 C167 1.389 . S
C166 C171 1.391 . S
C167 H153 0.941 . S
C167 C166 1.389 . S
C167 C168 1.397 . S
C168 H154 0.939 . S
C168 C167 1.397 . S
C168 C169 1.378 . S
C169 C168 1.378 . S
C169 C170 1.378 . S
C170 H155 0.940 . S
C170 C169 1.378 . S
C170 C171 1.396 . S
C171 H156 0.940 . S
C171 C166 1.391 . S
C171 C170 1.396 . S
C172 P152 1.803 . S
C172 C173 1.378 . S
C172 C177 1.400 . S
C173 H157 0.939 . S
C173 C172 1.378 . S
C173 C174 1.361 . S
C174 H158 0.942 . S
C174 C173 1.361 . S
C174 C175 1.369 . S
C175 C174 1.369 . S
C175 C176 1.404 . S
C176 H159 0.940 . S
C176 C175 1.404 . S
C176 C177 1.389 . S
C177 H160 0.939 . S
C177 C172 1.400 . S
C177 C176 1.389 . S
C178 P152 1.819 . S
C178 C179 1.391 . S
C178 C183 1.391 . S
C179 H161 0.941 . S
C179 C178 1.391 . S
C179 C180 1.396 . S
C180 H164 0.939 . S
C180 C179 1.396 . S
C180 C181 1.397 . S
C181 C180 1.397 . S
C181 C182 1.385 . S
C182 H165 0.940 . S
C182 C181 1.385 . S
C182 C183 1.388 . S
C183 H162 0.939 . S
C183 C178 1.391 . S
C183 C182 1.388 . S
P184 O195 1.490 . S
P184 C198 1.812 . S
P184 C204 1.803 . S
P184 C210 1.819 . S
H185 C199 0.941 . S
H186 C200 0.939 . S
H187 C202 0.940 . S
H188 C203 0.940 . S
H189 C205 0.939 1_455 S
H190 C206 0.942 . S
H191 C208 0.940 . S
H192 C209 0.939 1_455 S
H193 C211 0.941 . S
H194 C215 0.939 1_655 S
O195 P184 1.490 . S
H196 C212 0.939 . S
H197 C214 0.940 1_655 S
C198 P184 1.812 . S
C198 C199 1.389 . S
C198 C203 1.391 . S
C199 H185 0.941 . S
C199 C198 1.389 . S
C199 C200 1.397 . S
C200 H186 0.939 . S
C200 C199 1.397 . S
C200 C201 1.378 . S
C201 C200 1.378 . S
C201 C202 1.378 . S
C202 H187 0.940 . S
C202 C201 1.378 . S
C202 C203 1.396 . S
C203 H188 0.940 . S
C203 C198 1.391 . S
C203 C202 1.396 . S
C204 P184 1.803 . S
C204 C205 1.378 1_455 S
C204 C209 1.400 1_455 S
C205 H189 0.939 1_655 S
C205 C204 1.378 1_655 S
C205 C206 1.361 . S
C206 H190 0.942 . S
C206 C205 1.361 . S
C206 C207 1.369 . S
C207 C206 1.369 . S
C207 C208 1.404 . S
C208 H191 0.940 . S
C208 C207 1.404 . S
C208 C209 1.389 . S
C209 H192 0.939 1_655 S
C209 C204 1.400 1_655 S
C209 C208 1.389 . S
C210 P184 1.819 . S
C210 C211 1.391 . S
C210 C215 1.391 . S
C211 H193 0.941 . S
C211 C210 1.391 . S
C211 C212 1.396 . S
C212 H196 0.939 . S
C212 C211 1.396 . S
C212 C213 1.397 . S
C213 C212 1.397 . S
C213 C214 1.385 . S
C214 H197 0.940 1_455 S
C214 C213 1.385 . S
C214 C215 1.388 . S
C215 H194 0.939 1_455 S
C215 C210 1.391 . S
C215 C214 1.388 . S
P216 O227 1.490 . S
P216 C230 1.812 . S
P216 C236 1.803 1_455 S
P216 C242 1.819 . S
H217 C231 0.941 . S
H218 C232 0.939 . S
H219 C234 0.940 . S
H220 C235 0.940 . S
H221 C237 0.939 . S
H222 C238 0.942 . S
H223 C240 0.940 . S
H224 C241 0.939 . S
H225 C243 0.941 . S
H226 C247 0.939 . S
O227 P216 1.490 . S
H228 C244 0.939 . S
H229 C246 0.940 . S
C230 P216 1.812 . S
C230 C231 1.389 . S
C230 C235 1.391 . S
C231 H217 0.941 . S
C231 C230 1.389 . S
C231 C232 1.397 . S
C232 H218 0.939 . S
C232 C231 1.397 . S
C232 C233 1.378 . S
C233 C232 1.378 . S
C233 C234 1.378 . S
C234 H219 0.940 . S
C234 C233 1.378 . S
C234 C235 1.396 . S
C235 H220 0.940 . S
C235 C230 1.391 . S
C235 C234 1.396 . S
C236 P216 1.803 1_655 S
C236 C237 1.378 . S
C236 C241 1.400 . S
C237 H221 0.939 . S
C237 C236 1.378 . S
C237 C238 1.361 . S
C238 H222 0.942 . S
C238 C237 1.361 . S
C238 C239 1.369 . S
C239 C238 1.369 . S
C239 C240 1.404 . S
C240 H223 0.940 . S
C240 C239 1.404 . S
C240 C241 1.389 . S
C241 H224 0.939 . S
C241 C236 1.400 . S
C241 C240 1.389 . S
C242 P216 1.819 . S
C242 C243 1.391 . S
C242 C247 1.391 1_455 S
C243 H225 0.941 . S
C243 C242 1.391 . S
C243 C244 1.396 . S
C244 H228 0.939 . S
C244 C243 1.396 . S
C244 C245 1.397 . S
C245 C244 1.397 . S
C245 C246 1.385 1_455 S
C246 H229 0.940 . S
C246 C245 1.385 1_655 S
C246 C247 1.388 . S
C247 H226 0.939 . S
C247 C242 1.391 1_655 S
C247 C246 1.388 . S
P248 O259 1.490 . S
P248 C262 1.812 . S
P248 C268 1.803 1_545 S
P248 C274 1.819 . S
H249 C263 0.941 . S
H250 C264 0.939 . S
H251 C266 0.940 . S
H252 C267 0.940 . S
H253 C269 0.939 . S
H254 C270 0.942 . S
H255 C272 0.940 . S
H256 C273 0.939 . S
H257 C275 0.941 . S
H258 C279 0.939 . S
O259 P248 1.490 . S
H260 C276 0.939 . S
H261 C278 0.940 . S
C262 P248 1.812 . S
C262 C263 1.389 . S
C262 C267 1.391 . S
C263 H249 0.941 . S
C263 C262 1.389 . S
C263 C264 1.397 . S
C264 H250 0.939 . S
C264 C263 1.397 . S
C264 C265 1.378 . S
C265 C264 1.378 . S
C265 C266 1.378 . S
C266 H251 0.940 . S
C266 C265 1.378 . S
C266 C267 1.396 . S
C267 H252 0.940 . S
C267 C262 1.391 . S
C267 C266 1.396 . S
C268 P248 1.803 1_565 S
C268 C269 1.378 . S
C268 C273 1.400 . S
C269 H253 0.939 . S
C269 C268 1.378 . S
C269 C270 1.361 . S
C270 H254 0.942 . S
C270 C269 1.361 . S
C270 C271 1.369 . S
C271 C270 1.369 . S
C271 C272 1.404 . S
C272 H255 0.940 . S
C272 C271 1.404 . S
C272 C273 1.389 . S
C273 H256 0.939 . S
C273 C268 1.400 . S
C273 C272 1.389 . S
C274 P248 1.819 . S
C274 C275 1.391 . S
C274 C279 1.391 1_545 S
C275 H257 0.941 . S
C275 C274 1.391 . S
C275 C276 1.396 . S
C276 H260 0.939 . S
C276 C275 1.396 . S
C276 C277 1.397 . S
C277 C276 1.397 . S
C277 C278 1.385 1_545 S
C278 H261 0.940 . S
C278 C277 1.385 1_565 S
C278 C279 1.388 . S
C279 H258 0.939 . S
C279 C274 1.391 1_565 S
C279 C278 1.388 . S
P280 O291 1.490 . S
P280 C294 1.812 . S
P280 C300 1.803 . S
P280 C306 1.819 . S
H281 C295 0.941 . S
H282 C296 0.939 . S
H283 C298 0.940 . S
H284 C299 0.940 . S
H285 C301 0.939 . S
H286 C302 0.942 . S
H287 C304 0.940 . S
H288 C305 0.939 . S
H289 C307 0.941 . S
H290 C311 0.939 . S
O291 P280 1.490 . S
H292 C308 0.939 . S
H293 C310 0.940 . S
C294 P280 1.812 . S
C294 C295 1.389 . S
C294 C299 1.391 . S
C295 H281 0.941 . S
C295 C294 1.389 . S
C295 C296 1.397 . S
C296 H282 0.939 . S
C296 C295 1.397 . S
C296 C297 1.378 . S
C297 C296 1.378 . S
C297 C298 1.378 . S
C298 H283 0.940 . S
C298 C297 1.378 . S
C298 C299 1.396 . S
C299 H284 0.940 . S
C299 C294 1.391 . S
C299 C298 1.396 . S
C300 P280 1.803 . S
C300 C301 1.378 . S
C300 C305 1.400 . S
C301 H285 0.939 . S
C301 C300 1.378 . S
C301 C302 1.361 . S
C302 H286 0.942 . S
C302 C301 1.361 . S
C302 C303 1.369 . S
C303 C302 1.369 . S
C303 C304 1.404 . S
C304 H287 0.940 . S
C304 C303 1.404 . S
C304 C305 1.389 . S
C305 H288 0.939 . S
C305 C300 1.400 . S
C305 C304 1.389 . S
C306 P280 1.819 . S
C306 C307 1.391 . S
C306 C311 1.391 . S
C307 H289 0.941 . S
C307 C306 1.391 . S
C307 C308 1.396 . S
C308 H292 0.939 . S
C308 C307 1.396 . S
C308 C309 1.397 . S
C309 C308 1.397 . S
C309 C310 1.385 . S
C310 H293 0.940 . S
C310 C309 1.385 . S
C310 C311 1.388 . S
C311 H290 0.939 . S
C311 C306 1.391 . S
C311 C310 1.388 . S
H312 C324 0.930 . S
H313 C326 0.930 . S
H314 C327 0.930 . S
H315 C331 0.959 . S
H316 C331 0.959 . S
H317 C331 0.961 . S
H318 C332 0.960 . S
H319 C332 0.961 . S
H320 C332 0.959 . S
H321 C335 0.929 . S
H322 C336 0.931 . S
H323 C338 0.930 . S
C324 H312 0.930 . S
C324 C325 1.399 . S
C324 C329 1.399 . S
C325 C324 1.399 . S
C325 C326 1.376 . S
C326 H313 0.930 . S
C326 C325 1.376 . S
C326 C327 1.388 . S
C327 H314 0.930 . S
C327 C326 1.388 . S
C327 C328 1.390 . S
C328 C327 1.390 . S
C328 C329 1.394 . S
C328 C334 1.465 . S
C329 C324 1.399 . S
C329 C328 1.394 . S
C329 C330 1.516 . S
C330 C329 1.516 . S
C330 C331 1.502 . S
C330 C332 1.561 . S
C330 C333 1.526 . S
C331 H315 0.959 . S
C331 H316 0.959 . S
C331 H317 0.961 . S
C331 C330 1.502 . S
C332 H318 0.960 . S
C332 H319 0.961 . S
C332 H320 0.959 . S
C332 C330 1.561 . S
C333 C330 1.526 . S
C333 C334 1.396 . S
C333 C338 1.390 . S
C334 C328 1.465 . S
C334 C333 1.396 . S
C334 C335 1.399 . S
C335 H321 0.929 . S
C335 C334 1.399 . S
C335 C336 1.385 . S
C336 H322 0.931 . S
C336 C335 1.385 . S
C336 C337 1.389 . S
C337 C336 1.389 . S
C337 C338 1.387 . S
C338 H323 0.930 . S
C338 C333 1.390 . S
C338 C337 1.387 . S
H339 C351 0.930 . S
H340 C353 0.930 . S
H341 C354 0.930 . S
H342 C358 0.959 . S
H343 C358 0.959 . S
H344 C358 0.961 . S
H345 C359 0.960 . S
H346 C359 0.961 . S
H347 C359 0.959 . S
H348 C362 0.929 . S
H349 C363 0.931 . S
H350 C365 0.930 . S
C351 H339 0.930 . S
C351 C352 1.399 . S
C351 C356 1.399 . S
C352 C351 1.399 . S
C352 C353 1.376 . S
C353 H340 0.930 . S
C353 C352 1.376 . S
C353 C354 1.388 . S
C354 H341 0.930 . S
C354 C353 1.388 . S
C354 C355 1.390 . S
C355 C354 1.390 . S
C355 C356 1.394 . S
C355 C361 1.465 . S
C356 C351 1.399 . S
C356 C355 1.394 . S
C356 C357 1.516 . S
C357 C356 1.516 . S
C357 C358 1.502 . S
C357 C359 1.561 . S
C357 C360 1.526 . S
C358 H342 0.959 . S
C358 H343 0.959 . S
C358 H344 0.961 . S
C358 C357 1.502 . S
C359 H345 0.960 . S
C359 H346 0.961 . S
C359 H347 0.959 . S
C359 C357 1.561 . S
C360 C357 1.526 . S
C360 C361 1.396 . S
C360 C365 1.390 . S
C361 C355 1.465 . S
C361 C360 1.396 . S
C361 C362 1.399 . S
C362 H348 0.929 . S
C362 C361 1.399 . S
C362 C363 1.385 . S
C363 H349 0.931 . S
C363 C362 1.385 . S
C363 C364 1.389 . S
C364 C363 1.389 . S
C364 C365 1.387 . S
C365 H350 0.930 . S
C365 C360 1.390 . S
C365 C364 1.387 . S
H366 C378 0.930 . S
H367 C380 0.930 . S
H368 C381 0.930 . S
H369 C385 0.959 . S
H370 C385 0.959 . S
H371 C385 0.961 . S
H372 C386 0.960 . S
H373 C386 0.961 . S
H374 C386 0.959 . S
H375 C389 0.929 . S
H376 C390 0.931 . S
H377 C392 0.930 . S
C378 H366 0.930 . S
C378 C379 1.399 . S
C378 C383 1.399 . S
C379 C378 1.399 . S
C379 C380 1.376 . S
C380 H367 0.930 . S
C380 C379 1.376 . S
C380 C381 1.388 . S
C381 H368 0.930 . S
C381 C380 1.388 . S
C381 C382 1.390 . S
C382 C381 1.390 . S
C382 C383 1.394 . S
C382 C388 1.465 . S
C383 C378 1.399 . S
C383 C382 1.394 . S
C383 C384 1.516 . S
C384 C383 1.516 . S
C384 C385 1.502 . S
C384 C386 1.561 . S
C384 C387 1.526 . S
C385 H369 0.959 . S
C385 H370 0.959 . S
C385 H371 0.961 . S
C385 C384 1.502 . S
C386 H372 0.960 . S
C386 H373 0.961 . S
C386 H374 0.959 . S
C386 C384 1.561 . S
C387 C384 1.526 . S
C387 C388 1.396 . S
C387 C392 1.390 . S
C388 C382 1.465 . S
C388 C387 1.396 . S
C388 C389 1.399 . S
C389 H375 0.929 . S
C389 C388 1.399 . S
C389 C390 1.385 . S
C390 H376 0.931 . S
C390 C389 1.385 . S
C390 C391 1.389 . S
C391 C390 1.389 . S
C391 C392 1.387 . S
C392 H377 0.930 . S
C392 C387 1.390 . S
C392 C391 1.387 . S
H393 C405 0.930 . S
H394 C407 0.930 . S
H395 C408 0.930 . S
H396 C412 0.959 . S
H397 C412 0.959 . S
H398 C412 0.961 . S
H399 C413 0.960 . S
H400 C413 0.961 . S
H401 C413 0.959 . S
H402 C416 0.929 . S
H403 C417 0.931 . S
H404 C419 0.930 . S
C405 H393 0.930 . S
C405 C406 1.399 . S
C405 C410 1.399 . S
C406 C405 1.399 . S
C406 C407 1.376 . S
C407 H394 0.930 . S
C407 C406 1.376 . S
C407 C408 1.388 . S
C408 H395 0.930 . S
C408 C407 1.388 . S
C408 C409 1.390 . S
C409 C408 1.390 . S
C409 C410 1.394 . S
C409 C415 1.465 . S
C410 C405 1.399 . S
C410 C409 1.394 . S
C410 C411 1.516 . S
C411 C410 1.516 . S
C411 C412 1.502 . S
C411 C413 1.561 . S
C411 C414 1.526 . S
C412 H396 0.959 . S
C412 H397 0.959 . S
C412 H398 0.961 . S
C412 C411 1.502 . S
C413 H399 0.960 . S
C413 H400 0.961 . S
C413 H401 0.959 . S
C413 C411 1.561 . S
C414 C411 1.526 . S
C414 C415 1.396 . S
C414 C419 1.390 . S
C415 C409 1.465 . S
C415 C414 1.396 . S
C415 C416 1.399 . S
C416 H402 0.929 . S
C416 C415 1.399 . S
C416 C417 1.385 . S
C417 H403 0.931 . S
C417 C416 1.385 . S
C417 C418 1.389 . S
C418 C417 1.389 . S
C418 C419 1.387 . S
C419 H404 0.930 . S
C419 C414 1.390 . S
C419 C418 1.387 . S
H420 C432 0.930 . S
H421 C434 0.930 . S
H422 C435 0.930 . S
H423 C439 0.959 . S
H424 C439 0.959 . S
H425 C439 0.961 . S
H426 C440 0.960 . S
H427 C440 0.961 . S
H428 C440 0.959 . S
H429 C443 0.929 . S
H430 C444 0.931 . S
H431 C446 0.930 . S
C432 H420 0.930 . S
C432 C433 1.399 . S
C432 C437 1.399 . S
C433 C432 1.399 . S
C433 C434 1.376 . S
C434 H421 0.930 . S
C434 C433 1.376 . S
C434 C435 1.388 . S
C435 H422 0.930 . S
C435 C434 1.388 . S
C435 C436 1.390 . S
C436 C435 1.390 . S
C436 C437 1.394 . S
C436 C442 1.465 . S
C437 C432 1.399 . S
C437 C436 1.394 . S
C437 C438 1.516 . S
C438 C437 1.516 . S
C438 C439 1.502 . S
C438 C440 1.561 . S
C438 C441 1.526 . S
C439 H423 0.959 . S
C439 H424 0.959 . S
C439 H425 0.961 . S
C439 C438 1.502 . S
C440 H426 0.960 . S
C440 H427 0.961 . S
C440 H428 0.959 . S
C440 C438 1.561 . S
C441 C438 1.526 . S
C441 C442 1.396 . S
C441 C446 1.390 . S
C442 C436 1.465 . S
C442 C441 1.396 . S
C442 C443 1.399 . S
C443 H429 0.929 . S
C443 C442 1.399 . S
C443 C444 1.385 . S
C444 H430 0.931 . S
C444 C443 1.385 . S
C444 C445 1.389 . S
C445 C444 1.389 . S
C445 C446 1.387 . S
C446 H431 0.930 . S
C446 C441 1.390 . S
C446 C445 1.387 . S
H447 C459 0.930 . S
H448 C461 0.930 . S
H449 C462 0.930 . S
H450 C466 0.959 . S
H451 C466 0.959 . S
H452 C466 0.961 . S
H453 C467 0.960 . S
H454 C467 0.961 . S
H455 C467 0.959 . S
H456 C470 0.929 . S
H457 C471 0.931 . S
H458 C473 0.930 . S
C459 H447 0.930 . S
C459 C460 1.399 . S
C459 C464 1.399 . S
C460 C459 1.399 . S
C460 C461 1.376 . S
C461 H448 0.930 . S
C461 C460 1.376 . S
C461 C462 1.388 . S
C462 H449 0.930 . S
C462 C461 1.388 . S
C462 C463 1.390 . S
C463 C462 1.390 . S
C463 C464 1.394 . S
C463 C469 1.465 . S
C464 C459 1.399 . S
C464 C463 1.394 . S
C464 C465 1.516 . S
C465 C464 1.516 . S
C465 C466 1.502 . S
C465 C467 1.561 . S
C465 C468 1.526 . S
C466 H450 0.959 . S
C466 H451 0.959 . S
C466 H452 0.961 . S
C466 C465 1.502 . S
C467 H453 0.960 . S
C467 H454 0.961 . S
C467 H455 0.959 . S
C467 C465 1.561 . S
C468 C465 1.526 . S
C468 C469 1.396 . S
C468 C473 1.390 . S
C469 C463 1.465 . S
C469 C468 1.396 . S
C469 C470 1.399 . S
C470 H456 0.929 . S
C470 C469 1.399 . S
C470 C471 1.385 . S
C471 H457 0.931 . S
C471 C470 1.385 . S
C471 C472 1.389 . S
C472 C471 1.389 . S
C472 C473 1.387 . S
C473 H458 0.930 . S
C473 C468 1.390 . S
C473 C472 1.387 . S
H474 C486 0.930 . S
H475 C488 0.930 . S
H476 C489 0.930 . S
H477 C493 0.959 . S
H478 C493 0.959 . S
H479 C493 0.961 . S
H480 C494 0.960 . S
H481 C494 0.961 . S
H482 C494 0.959 . S
H483 C497 0.929 . S
H484 C498 0.931 . S
H485 C500 0.930 . S
C486 H474 0.930 . S
C486 C487 1.399 . S
C486 C491 1.399 . S
C487 C486 1.399 . S
C487 C488 1.376 . S
C488 H475 0.930 . S
C488 C487 1.376 . S
C488 C489 1.388 . S
C489 H476 0.930 . S
C489 C488 1.388 . S
C489 C490 1.390 . S
C490 C489 1.390 . S
C490 C491 1.394 . S
C490 C496 1.465 . S
C491 C486 1.399 . S
C491 C490 1.394 . S
C491 C492 1.516 . S
C492 C491 1.516 . S
C492 C493 1.502 . S
C492 C494 1.561 . S
C492 C495 1.526 . S
C493 H477 0.959 . S
C493 H478 0.959 . S
C493 H479 0.961 . S
C493 C492 1.502 . S
C494 H480 0.960 . S
C494 H481 0.961 . S
C494 H482 0.959 . S
C494 C492 1.561 . S
C495 C492 1.526 . S
C495 C496 1.396 . S
C495 C500 1.390 . S
C496 C490 1.465 . S
C496 C495 1.396 . S
C496 C497 1.399 . S
C497 H483 0.929 . S
C497 C496 1.399 . S
C497 C498 1.385 . S
C498 H484 0.931 . S
C498 C497 1.385 . S
C498 C499 1.389 . S
C499 C498 1.389 . S
C499 C500 1.387 . S
C500 H485 0.930 . S
C500 C495 1.390 . S
C500 C499 1.387 . S
H501 C513 0.930 . S
H502 C515 0.930 . S
H503 C516 0.930 . S
H504 C520 0.959 . S
H505 C520 0.959 . S
H506 C520 0.961 . S
H507 C521 0.960 . S
H508 C521 0.961 . S
H509 C521 0.959 . S
H510 C524 0.929 . S
H511 C525 0.931 . S
H512 C527 0.930 . S
C513 H501 0.930 . S
C513 C514 1.399 . S
C513 C518 1.399 . S
C514 C513 1.399 . S
C514 C515 1.376 . S
C515 H502 0.930 . S
C515 C514 1.376 . S
C515 C516 1.388 . S
C516 H503 0.930 . S
C516 C515 1.388 . S
C516 C517 1.390 . S
C517 C516 1.390 . S
C517 C518 1.394 . S
C517 C523 1.465 . S
C518 C513 1.399 . S
C518 C517 1.394 . S
C518 C519 1.516 . S
C519 C518 1.516 . S
C519 C520 1.502 . S
C519 C521 1.561 . S
C519 C522 1.526 . S
C520 H504 0.959 . S
C520 H505 0.959 . S
C520 H506 0.961 . S
C520 C519 1.502 . S
C521 H507 0.960 . S
C521 H508 0.961 . S
C521 H509 0.959 . S
C521 C519 1.561 . S
C522 C519 1.526 . S
C522 C523 1.396 . S
C522 C527 1.390 . S
C523 C517 1.465 . S
C523 C522 1.396 . S
C523 C524 1.399 . S
C524 H510 0.929 . S
C524 C523 1.399 . S
C524 C525 1.385 . S
C525 H511 0.931 . S
C525 C524 1.385 . S
C525 C526 1.389 . S
C526 C525 1.389 . S
C526 C527 1.387 . S
C527 H512 0.930 . S
C527 C522 1.390 . S
C527 C526 1.387 . S
H528 C540 0.930 . S
H529 C542 0.930 . S
H530 C543 0.930 . S
H531 C547 0.959 . S
H532 C547 0.959 . S
H533 C547 0.961 . S
H534 C548 0.960 . S
H535 C548 0.961 . S
H536 C548 0.959 . S
H537 C551 0.929 . S
H538 C552 0.931 . S
H539 C554 0.930 . S
C540 H528 0.930 . S
C540 C541 1.399 . S
C540 C545 1.399 . S
C541 C540 1.399 . S
C541 C542 1.376 . S
C542 H529 0.930 . S
C542 C541 1.376 . S
C542 C543 1.388 . S
C543 H530 0.930 . S
C543 C542 1.388 . S
C543 C544 1.390 . S
C544 C543 1.390 . S
C544 C545 1.394 . S
C544 C550 1.465 . S
C545 C540 1.399 . S
C545 C544 1.394 . S
C545 C546 1.516 . S
C546 C545 1.516 . S
C546 C547 1.502 . S
C546 C548 1.561 . S
C546 C549 1.526 . S
C547 H531 0.959 . S
C547 H532 0.959 . S
C547 H533 0.961 . S
C547 C546 1.502 . S
C548 H534 0.960 . S
C548 H535 0.961 . S
C548 H536 0.959 . S
C548 C546 1.561 . S
C549 C546 1.526 . S
C549 C550 1.396 . S
C549 C554 1.390 . S
C550 C544 1.465 . S
C550 C549 1.396 . S
C550 C551 1.399 . S
C551 H537 0.929 . S
C551 C550 1.399 . S
C551 C552 1.385 . S
C552 H538 0.931 . S
C552 C551 1.385 . S
C552 C553 1.389 . S
C553 C552 1.389 . S
C553 C554 1.387 . S
C554 H539 0.930 . S
C554 C549 1.390 . S
C554 C553 1.387 . S
H555 C567 0.930 . S
H556 C569 0.930 . S
H557 C570 0.930 . S
H558 C574 0.959 . S
H559 C574 0.959 . S
H560 C574 0.961 . S
H561 C575 0.960 . S
H562 C575 0.961 . S
H563 C575 0.959 . S
H564 C578 0.929 . S
H565 C579 0.931 . S
H566 C581 0.930 . S
C567 H555 0.930 . S
C567 C568 1.399 . S
C567 C572 1.399 . S
C568 C567 1.399 . S
C568 C569 1.376 . S
C569 H556 0.930 . S
C569 C568 1.376 . S
C569 C570 1.388 . S
C570 H557 0.930 . S
C570 C569 1.388 . S
C570 C571 1.390 . S
C571 C570 1.390 . S
C571 C572 1.394 . S
C571 C577 1.465 . S
C572 C567 1.399 . S
C572 C571 1.394 . S
C572 C573 1.516 . S
C573 C572 1.516 . S
C573 C574 1.502 . S
C573 C575 1.561 . S
C573 C576 1.526 . S
C574 H558 0.959 . S
C574 H559 0.959 . S
C574 H560 0.961 . S
C574 C573 1.502 . S
C575 H561 0.960 . S
C575 H562 0.961 . S
C575 H563 0.959 . S
C575 C573 1.561 . S
C576 C573 1.526 . S
C576 C577 1.396 . S
C576 C581 1.390 . S
C577 C571 1.465 . S
C577 C576 1.396 . S
C577 C578 1.399 . S
C578 H564 0.929 . S
C578 C577 1.399 . S
C578 C579 1.385 . S
C579 H565 0.931 . S
C579 C578 1.385 . S
C579 C580 1.389 . S
C580 C579 1.389 . S
C580 C581 1.387 . S
C581 H566 0.930 . S
C581 C576 1.390 . S
C581 C580 1.387 . S
H582 C594 0.930 . S
H583 C596 0.930 . S
H584 C597 0.930 . S
H585 C601 0.959 . S
H586 C601 0.959 . S
H587 C601 0.961 . S
H588 C602 0.960 . S
H589 C602 0.961 . S
H590 C602 0.959 . S
H591 C605 0.929 . S
H592 C606 0.931 . S
H593 C608 0.930 . S
C594 H582 0.930 . S
C594 C595 1.399 . S
C594 C599 1.399 . S
C595 C594 1.399 . S
C595 C596 1.376 . S
C596 H583 0.930 . S
C596 C595 1.376 . S
C596 C597 1.388 . S
C597 H584 0.930 . S
C597 C596 1.388 . S
C597 C598 1.390 . S
C598 C597 1.390 . S
C598 C599 1.394 . S
C598 C604 1.465 . S
C599 C594 1.399 . S
C599 C598 1.394 . S
C599 C600 1.516 . S
C600 C599 1.516 . S
C600 C601 1.502 . S
C600 C602 1.561 . S
C600 C603 1.526 . S
C601 H585 0.959 . S
C601 H586 0.959 . S
C601 H587 0.961 . S
C601 C600 1.502 . S
C602 H588 0.960 . S
C602 H589 0.961 . S
C602 H590 0.959 . S
C602 C600 1.561 . S
C603 C600 1.526 . S
C603 C604 1.396 . S
C603 C608 1.390 . S
C604 C598 1.465 . S
C604 C603 1.396 . S
C604 C605 1.399 . S
C605 H591 0.929 . S
C605 C604 1.399 . S
C605 C606 1.385 . S
C606 H592 0.931 . S
C606 C605 1.385 . S
C606 C607 1.389 . S
C607 C606 1.389 . S
C607 C608 1.387 . S
C608 H593 0.930 . S
C608 C603 1.390 . S
C608 C607 1.387 . S
H609 C621 0.930 . S
H610 C623 0.930 . S
H611 C624 0.930 . S
H612 C628 0.959 . S
H613 C628 0.959 . S
H614 C628 0.961 . S
H615 C629 0.960 . S
H616 C629 0.961 . S
H617 C629 0.959 . S
H618 C632 0.929 . S
H619 C633 0.931 . S
H620 C635 0.930 . S
C621 H609 0.930 . S
C621 C622 1.399 . S
C621 C626 1.399 . S
C622 C621 1.399 . S
C622 C623 1.376 . S
C623 H610 0.930 . S
C623 C622 1.376 . S
C623 C624 1.388 . S
C624 H611 0.930 . S
C624 C623 1.388 . S
C624 C625 1.390 . S
C625 C624 1.390 . S
C625 C626 1.394 . S
C625 C631 1.465 . S
C626 C621 1.399 . S
C626 C625 1.394 . S
C626 C627 1.516 . S
C627 C626 1.516 . S
C627 C628 1.502 . S
C627 C629 1.561 . S
C627 C630 1.526 . S
C628 H612 0.959 . S
C628 H613 0.959 . S
C628 H614 0.961 . S
C628 C627 1.502 . S
C629 H615 0.960 . S
C629 H616 0.961 . S
C629 H617 0.959 . S
C629 C627 1.561 . S
C630 C627 1.526 . S
C630 C631 1.396 . S
C630 C635 1.390 . S
C631 C625 1.465 . S
C631 C630 1.396 . S
C631 C632 1.399 . S
C632 H618 0.929 . S
C632 C631 1.399 . S
C632 C633 1.385 . S
C633 H619 0.931 . S
C633 C632 1.385 . S
C633 C634 1.389 . S
C634 C633 1.389 . S
C634 C635 1.387 . S
C635 H620 0.930 . S
C635 C630 1.390 . S
C635 C634 1.387 . S
H636 C648 0.919 . S
H637 C650 0.930 . S
H638 C651 0.930 . S
H639 C655 0.959 . S
H640 C655 0.959 . S
H641 C655 0.961 . S
H642 C656 0.960 . S
H643 C656 0.961 . S
H644 C656 0.959 . S
H645 C659 0.929 . S
H646 C660 0.931 1_556 S
H647 C662 0.932 . S
C648 H636 0.919 . S
C648 C649 1.399 . S
C648 C653 1.399 . S
C649 C648 1.399 . S
C649 C650 1.376 . S
C650 H637 0.930 . S
C650 C649 1.376 . S
C650 C651 1.388 . S
C651 H638 0.930 . S
C651 C650 1.388 . S
C651 C652 1.390 . S
C652 C651 1.390 . S
C652 C653 1.394 . S
C652 C658 1.465 . S
C653 C648 1.399 . S
C653 C652 1.394 . S
C653 C654 1.516 . S
C654 C653 1.516 . S
C654 C655 1.502 . S
C654 C656 1.561 1_455 S
C654 C657 1.526 . S
C655 H639 0.959 . S
C655 H640 0.959 . S
C655 H641 0.961 . S
C655 C654 1.502 . S
C656 H642 0.960 . S
C656 H643 0.961 . S
C656 H644 0.959 . S
C656 C654 1.561 1_655 S
C657 C654 1.526 . S
C657 C658 1.396 . S
C657 C662 1.390 . S
C658 C652 1.465 . S
C658 C657 1.396 . S
C658 C659 1.399 . S
C659 H645 0.929 . S
C659 C658 1.399 . S
C659 C660 1.385 . S
C660 H646 0.931 1_554 S
C660 C659 1.385 . S
C660 C661 1.389 1_554 S
C661 C660 1.389 1_556 S
C661 C662 1.387 1_556 S
C662 H647 0.932 . S
C662 C657 1.390 . S
C662 C661 1.387 1_554 S
H663 C675 0.930 . S
H664 C677 0.930 . S
H665 C678 0.930 . S
H666 C682 0.959 . S
H667 C682 0.959 . S
H668 C682 0.961 . S
H669 C683 0.960 . S
H670 C683 0.961 . S
H671 C683 0.959 . S
H672 C686 0.929 . S
H673 C687 0.931 . S
H674 C689 0.930 . S
C675 H663 0.930 . S
C675 C676 1.399 . S
C675 C680 1.399 . S
C676 C675 1.399 . S
C676 C677 1.376 1_545 S
C677 H664 0.930 . S
C677 C676 1.376 1_565 S
C677 C678 1.388 . S
C678 H665 0.930 . S
C678 C677 1.388 . S
C678 C679 1.390 . S
C679 C678 1.390 . S
C679 C680 1.394 1_565 S
C679 C685 1.465 . S
C680 C675 1.399 . S
C680 C679 1.394 1_545 S
C680 C681 1.516 . S
C681 C680 1.516 . S
C681 C682 1.502 . S
C681 C683 1.561 . S
C681 C684 1.526 . S
C682 H666 0.959 . S
C682 H667 0.959 . S
C682 H668 0.961 . S
C682 C681 1.502 . S
C683 H669 0.960 . S
C683 H670 0.961 . S
C683 H671 0.959 . S
C683 C681 1.561 . S
C684 C681 1.526 . S
C684 C685 1.396 1_545 S
C684 C689 1.390 . S
C685 C679 1.465 . S
C685 C684 1.396 1_565 S
C685 C686 1.399 . S
C686 H672 0.929 . S
C686 C685 1.399 . S
C686 C687 1.385 . S
C687 H673 0.931 . S
C687 C686 1.385 . S
C687 C688 1.389 1_565 S
C688 C687 1.389 1_545 S
C688 C689 1.387 . S
C689 H674 0.930 . S
C689 C684 1.390 . S
C689 C688 1.387 . S
H690 C702 0.930 . S
H691 C704 0.930 . S
H692 C705 0.930 . S
H693 C709 0.959 . S
H694 C709 0.959 . S
H695 C709 0.961 . S
H696 C710 0.960 . S
H697 C710 0.961 . S
H698 C710 0.959 . S
H699 C713 0.929 . S
H700 C714 0.931 . S
H701 C716 0.930 . S
C702 H690 0.930 . S
C702 C703 1.399 . S
C702 C707 1.399 . S
C703 C702 1.399 . S
C703 C704 1.376 . S
C704 H691 0.930 . S
C704 C703 1.376 . S
C704 C705 1.388 . S
C705 H692 0.930 . S
C705 C704 1.388 . S
C705 C706 1.390 . S
C706 C705 1.390 . S
C706 C707 1.394 . S
C706 C712 1.465 . S
C707 C702 1.399 . S
C707 C706 1.394 . S
C707 C708 1.516 . S
C708 C707 1.516 . S
C708 C709 1.502 . S
C708 C710 1.561 . S
C708 C711 1.526 . S
C709 H693 0.959 . S
C709 H694 0.959 . S
C709 H695 0.961 . S
C709 C708 1.502 . S
C710 H696 0.960 . S
C710 H697 0.961 . S
C710 H698 0.959 . S
C710 C708 1.561 . S
C711 C708 1.526 . S
C711 C712 1.396 . S
C711 C716 1.390 . S
C712 C706 1.465 . S
C712 C711 1.396 . S
C712 C713 1.399 . S
C713 H699 0.929 . S
C713 C712 1.399 . S
C713 C714 1.385 . S
C714 H700 0.931 . S
C714 C713 1.385 . S
C714 C715 1.389 . S
C715 C714 1.389 . S
C715 C716 1.387 . S
C716 H701 0.930 . S
C716 C711 1.390 . S
C716 C715 1.387 . S
H717 C729 0.930 . S
H718 C731 0.930 . S
H719 C732 0.930 . S
H720 C736 0.959 . S
H721 C736 0.959 . S
H722 C736 0.961 . S
H723 C737 0.960 . S
H724 C737 0.961 . S
H725 C737 0.959 . S
H726 C740 0.929 . S
H727 C741 0.931 . S
H728 C743 0.930 . S
C729 H717 0.930 . S
C729 C730 1.399 . S
C729 C734 1.399 . S
C730 C729 1.399 . S
C730 C731 1.376 1_545 S
C731 H718 0.930 . S
C731 C730 1.376 1_565 S
C731 C732 1.388 . S
C732 H719 0.930 . S
C732 C731 1.388 . S
C732 C733 1.390 . S
C733 C732 1.390 . S
C733 C734 1.394 1_565 S
C733 C739 1.465 . S
C734 C729 1.399 . S
C734 C733 1.394 1_545 S
C734 C735 1.516 . S
C735 C734 1.516 . S
C735 C736 1.502 . S
C735 C737 1.561 . S
C735 C738 1.526 . S
C736 H720 0.959 . S
C736 H721 0.959 . S
C736 H722 0.961 . S
C736 C735 1.502 . S
C737 H723 0.960 . S
C737 H724 0.961 . S
C737 H725 0.959 . S
C737 C735 1.561 . S
C738 C735 1.526 . S
C738 C739 1.396 1_545 S
C738 C743 1.390 . S
C739 C733 1.465 . S
C739 C738 1.396 1_565 S
C739 C740 1.399 . S
C740 H726 0.929 . S
C740 C739 1.399 . S
C740 C741 1.385 . S
C741 H727 0.931 . S
C741 C740 1.385 . S
C741 C742 1.389 1_565 S
C742 C741 1.389 1_545 S
C742 C743 1.387 . S
C743 H728 0.930 . S
C743 C738 1.390 . S
C743 C742 1.387 . S
H744 C756 0.930 . S
H745 C758 0.930 . S
H746 C759 0.930 . S
H747 C763 0.959 . S
H748 C763 0.959 . S
H749 C763 0.961 . S
H750 C764 0.960 . S
H751 C764 0.961 . S
H752 C764 0.959 . S
H753 C767 0.929 . S
H754 C768 0.931 . S
H755 C770 0.936 . S
C756 H744 0.930 . S
C756 C757 1.399 . S
C756 C761 1.399 . S
C757 C756 1.399 . S
C757 C758 1.376 . S
C758 H745 0.930 . S
C758 C757 1.376 . S
C758 C759 1.388 . S
C759 H746 0.930 . S
C759 C758 1.388 . S
C759 C760 1.390 . S
C760 C759 1.390 . S
C760 C761 1.394 . S
C760 C766 1.465 . S
C761 C756 1.399 . S
C761 C760 1.394 . S
C761 C762 1.516 . S
C762 C761 1.516 . S
C762 C763 1.502 . S
C762 C764 1.561 . S
C762 C765 1.526 . S
C763 H747 0.959 . S
C763 H748 0.959 . S
C763 H749 0.961 . S
C763 C762 1.502 . S
C764 H750 0.960 . S
C764 H751 0.961 . S
C764 H752 0.959 . S
C764 C762 1.561 . S
C765 C762 1.526 . S
C765 C766 1.396 . S
C765 C770 1.372 1_556 S
C766 C760 1.465 . S
C766 C765 1.396 . S
C766 C767 1.399 . S
C767 H753 0.929 . S
C767 C766 1.399 . S
C767 C768 1.385 1_556 S
C768 H754 0.931 . S
C768 C767 1.385 1_554 S
C768 C769 1.389 . S
C769 C768 1.389 . S
C769 C770 1.398 . S
C770 H755 0.936 . S
C770 C765 1.372 1_554 S
C770 C769 1.398 . S
H771 C783 0.930 . S
H772 C785 0.930 . S
H773 C786 0.930 . S
H774 C790 0.959 . S
H775 C790 0.959 . S
H776 C790 0.961 . S
H777 C791 0.960 . S
H778 C791 0.961 . S
H779 C791 0.959 . S
H780 C794 0.929 . S
H781 C795 0.931 . S
H782 C797 0.930 . S
C783 H771 0.930 . S
C783 C784 1.399 1_455 S
C783 C788 1.399 . S
C784 C783 1.399 1_655 S
C784 C785 1.376 . S
C785 H772 0.930 . S
C785 C784 1.376 . S
C785 C786 1.388 . S
C786 H773 0.930 . S
C786 C785 1.388 . S
C786 C787 1.390 . S
C787 C786 1.390 . S
C787 C788 1.394 1_655 S
C787 C793 1.465 . S
C788 C783 1.399 . S
C788 C787 1.394 1_455 S
C788 C789 1.516 . S
C789 C788 1.516 . S
C789 C790 1.502 . S
C789 C791 1.561 . S
C789 C792 1.526 . S
C790 H774 0.959 . S
C790 H775 0.959 . S
C790 H776 0.961 . S
C790 C789 1.502 . S
C791 H777 0.960 . S
C791 H778 0.961 . S
C791 H779 0.959 . S
C791 C789 1.561 . S
C792 C789 1.526 . S
C792 C793 1.396 1_455 S
C792 C797 1.390 . S
C793 C787 1.465 . S
C793 C792 1.396 1_655 S
C793 C794 1.399 . S
C794 H780 0.929 . S
C794 C793 1.399 . S
C794 C795 1.385 . S
C795 H781 0.931 . S
C795 C794 1.385 . S
C795 C796 1.389 1_655 S
C796 C795 1.389 1_455 S
C796 C797 1.387 . S
C797 H782 0.930 . S
C797 C792 1.390 . S
C797 C796 1.387 . S
C325 C12 2.890 . S
C337 C303 2.822 . S
C352 C52 2.925 . S
C364 C239 2.880 . S
C379 C111 2.960 . S
C391 C271 2.889 . S
C406 C31 3.097 . S
C418 C297 3.050 . S
C445 C233 3.000 . S
C433 C71 3.075 . S
C472 C265 2.968 . S
C460 C92 3.025 . S
C487 C48 0.633 . S
C499 C175 0.488 . S
C514 C109 0.589 . S
C526 C207 0.421 . S
C541 C29 0.421 . S
C553 C137 0.589 . S
C580 C169 0.409 . S
C568 C69 0.539 . S
C607 C201 0.414 . S
C595 C88 0.375 . S
C622 C8 0.452 . S
C634 C143 0.473 . S
C661 C213 1.035 . S
C649 C17 1.094 1_455 S
C676 C57 1.028 . S
C688 C149 1.012 . S
C703 C97 1.080 . S
C715 C181 1.089 . S
C742 C277 1.761 . S
C730 C42 1.704 . S
C769 C309 1.724 . S
C757 C82 1.753 . S
C784 C2 1.753 1_655 S
C796 C245 1.743 . S
