# Generated by pormake.
# Topology pyr, (3,6)-cn, num edge types: 1
# Building blocks:
#     Node 0, Type 0, BuildingBlock: ESEHIV_clean_linker_0, # of connection points: 3
#     Node 1, Type 0, BuildingBlock: ESEHIV_clean_linker_0, # of connection points: 3
#     Node 2, Type 0, BuildingBlock: ESEHIV_clean_linker_0, # of connection points: 3
#     Node 3, Type 0, BuildingBlock: ESEHIV_clean_linker_0, # of connection points: 3
#     Node 4, Type 0, BuildingBlock: ESEHIV_clean_linker_0, # of connection points: 3
#     Node 5, Type 0, BuildingBlock: ESEHIV_clean_linker_0, # of connection points: 3
#     Node 6, Type 0, BuildingBlock: ESEHIV_clean_linker_0, # of connection points: 3
#     Node 7, Type 0, BuildingBlock: ESEHIV_clean_linker_0, # of connection points: 3
#     Node 8, Type 1, BuildingBlock: BETFAJ_clean_sbu_0, # of connection points: 6
#     Node 9, Type 1, BuildingBlock: BETFAJ_clean_sbu_0, # of connection points: 6
#     Node 10, Type 1, BuildingBlock: BETFAJ_clean_sbu_0, # of connection points: 6
#     Node 11, Type 1, BuildingBlock: BETFAJ_clean_sbu_0, # of connection points: 6
#     Edge 12, Type (0, 1), BuildingBlock: TEMPAE_clean_linker_10, # of connection points: 2
#     Edge 13, Type (0, 1), BuildingBlock: TEMPAE_clean_linker_10, # of connection points: 2
#     Edge 14, Type (0, 1), BuildingBlock: TEMPAE_clean_linker_10, # of connection points: 2
#     Edge 15, Type (0, 1), BuildingBlock: TEMPAE_clean_linker_10, # of connection points: 2
#     Edge 16, Type (0, 1), BuildingBlock: TEMPAE_clean_linker_10, # of connection points: 2
#     Edge 17, Type (0, 1), BuildingBlock: TEMPAE_clean_linker_10, # of connection points: 2
#     Edge 18, Type (0, 1), BuildingBlock: TEMPAE_clean_linker_10, # of connection points: 2
#     Edge 19, Type (0, 1), BuildingBlock: TEMPAE_clean_linker_10, # of connection points: 2
#     Edge 20, Type (0, 1), BuildingBlock: TEMPAE_clean_linker_10, # of connection points: 2
#     Edge 21, Type (0, 1), BuildingBlock: TEMPAE_clean_linker_10, # of connection points: 2
#     Edge 22, Type (0, 1), BuildingBlock: TEMPAE_clean_linker_10, # of connection points: 2
#     Edge 23, Type (0, 1), BuildingBlock: TEMPAE_clean_linker_10, # of connection points: 2
#     Edge 24, Type (0, 1), BuildingBlock: TEMPAE_clean_linker_10, # of connection points: 2
#     Edge 25, Type (0, 1), BuildingBlock: TEMPAE_clean_linker_10, # of connection points: 2
#     Edge 26, Type (0, 1), BuildingBlock: TEMPAE_clean_linker_10, # of connection points: 2
#     Edge 27, Type (0, 1), BuildingBlock: TEMPAE_clean_linker_10, # of connection points: 2
#     Edge 28, Type (0, 1), BuildingBlock: TEMPAE_clean_linker_10, # of connection points: 2
#     Edge 29, Type (0, 1), BuildingBlock: TEMPAE_clean_linker_10, # of connection points: 2
#     Edge 30, Type (0, 1), BuildingBlock: TEMPAE_clean_linker_10, # of connection points: 2
#     Edge 31, Type (0, 1), BuildingBlock: TEMPAE_clean_linker_10, # of connection points: 2
#     Edge 32, Type (0, 1), BuildingBlock: TEMPAE_clean_linker_10, # of connection points: 2
#     Edge 33, Type (0, 1), BuildingBlock: TEMPAE_clean_linker_10, # of connection points: 2
#     Edge 34, Type (0, 1), BuildingBlock: TEMPAE_clean_linker_10, # of connection points: 2
#     Edge 35, Type (0, 1), BuildingBlock: TEMPAE_clean_linker_10, # of connection points: 2
# Relax obj value: 0.134
# Max RMSD: 0.130
# Mean RMSD: 0.063
data_MOF--net-pyr--node1-BETFAJ_clean_sbu_0--node2-ESEHIV_clean_linker_0--edge1-TEMPAE_clean_linker_10
_symmetry_space_group_name_H-M    P1
_symmetry_Int_Tables_number       1
_symmetry_cell_setting            triclinic
loop_
_symmetry_equiv_pos_as_xyz
'x, y, z'
_cell_length_a     36.816177
_cell_length_b     38.913453
_cell_length_c     35.449341
_cell_angle_alpha  91.135133
_cell_angle_beta   88.508736
_cell_angle_gamma 101.51628
loop_
_atom_site_label
_atom_site_type_symbol
_atom_site_fract_x
_atom_site_fract_y
_atom_site_fract_z
_atom_type_partial_charge
H0 H 0.27889 0.31073 0.25247 0.0
H1 H 0.35161 0.24419 0.28579 0.0
H2 H 0.35339 0.27901 0.17053 0.0
C3 C 0.3022 0.2982 0.24614 0.0
C4 C 0.31707 0.29953 0.20931 0.0
C5 C 0.31348 0.27713 0.27327 0.0
C6 C 0.34243 0.2596 0.26419 0.0
C7 C 0.35725 0.25962 0.22708 0.0
C8 C 0.34413 0.27981 0.19972 0.0
H9 H 0.2662 0.9442 0.62209 0.0
H10 H 0.36436 0.90076 0.62605 0.0
H11 H 0.30548 0.89737 0.52216 0.0
C12 C 0.28644 0.93112 0.60826 0.0
C13 C 0.2826 0.92163 0.57007 0.0
C14 C 0.3161 0.92408 0.62857 0.0
C15 C 0.34223 0.90767 0.61004 0.0
C16 C 0.33889 0.89812 0.57165 0.0
C17 C 0.3088 0.90513 0.5516 0.0
H18 H 0.67229 0.33436 0.92585 0.0
H19 H 0.67985 0.414 0.84314 0.0
H20 H 0.59155 0.32232 0.83753 0.0
C21 C 0.66153 0.34333 0.90061 0.0
C22 C 0.62965 0.32266 0.88366 0.0
C23 C 0.68051 0.37565 0.88584 0.0
C24 C 0.66598 0.3887 0.8536 0.0
C25 C 0.63315 0.3705 0.83589 0.0
C26 C 0.61562 0.33722 0.85137 0.0
H27 H 0.81003 0.7125 0.41384 0.0
H28 H 0.8959 0.71819 0.32785 0.0
H29 H 0.80796 0.6266 0.33523 0.0
C30 C 0.82221 0.70095 0.3899 0.0
C31 C 0.80452 0.66727 0.37687 0.0
C32 C 0.85515 0.72012 0.37284 0.0
C33 C 0.87097 0.70401 0.34164 0.0
C34 C 0.85399 0.67028 0.32707 0.0
C35 C 0.82072 0.65257 0.34519 0.0
H36 H 0.66385 0.8273 0.84316 0.0
H37 H 0.71525 0.73934 0.85914 0.0
H38 H 0.62912 0.75784 0.93628 0.0
C39 C 0.66477 0.80331 0.85779 0.0
C40 C 0.64137 0.79383 0.88956 0.0
C41 C 0.69176 0.78399 0.84695 0.0
C42 C 0.69409 0.75403 0.8672 0.0
C43 C 0.67235 0.74488 0.89991 0.0
C44 C 0.64568 0.76466 0.91081 0.0
H45 H 0.79851 0.28443 0.36633 0.0
H46 H 0.86265 0.20514 0.38155 0.0
H47 H 0.84035 0.26986 0.47559 0.0
C48 C 0.81615 0.27242 0.38377 0.0
C49 C 0.81922 0.28168 0.4222 0.0
C50 C 0.83138 0.24461 0.36892 0.0
C51 C 0.85184 0.22741 0.39249 0.0
C52 C 0.85513 0.23638 0.43099 0.0
C53 C 0.83901 0.26371 0.44563 0.0
H54 H 0.32184 0.71673 0.1712 0.0
H55 H 0.31057 0.6373 0.25437 0.0
H56 H 0.40262 0.72603 0.25872 0.0
C57 C 0.33215 0.70722 0.19641 0.0
C58 C 0.36411 0.72721 0.21382 0.0
C59 C 0.3125 0.67499 0.21078 0.0
C60 C 0.32631 0.66154 0.24327 0.0
C61 C 0.3598 0.6786 0.26093 0.0
C62 C 0.3778 0.71188 0.24573 0.0
H63 H 0.0955 0.33099 0.75642 0.0
H64 H 0.17997 0.33967 0.66851 0.0
H65 H 0.18469 0.42206 0.75136 0.0
C66 C 0.12037 0.3455 0.74282 0.0
C67 C 0.13767 0.37885 0.75839 0.0
C68 C 0.13581 0.33021 0.7107 0.0
C69 C 0.16869 0.34971 0.69397 0.0
C70 C 0.18703 0.38246 0.70847 0.0
C71 C 0.17099 0.39674 0.74042 0.0
Sm72 Sm 0.9989 0.04512 0.49897 0.0
Sm73 Sm 0.9965 1.00969 0.57325 0.0
C74 C 0.99738 0.08877 0.44306 0.0
C75 C 0.02353 0.12044 0.43051 0.0
C76 C 0.03565 0.12283 0.39272 0.0
C77 C 0.06534 0.14919 0.38157 0.0
C78 C 0.08336 0.1739 0.40801 0.0
C79 C 0.06963 0.17266 0.44545 0.0
C80 C 0.04015 0.14606 0.45661 0.0
C81 C 0.05922 1.01552 0.51026 0.0
C82 C 0.03219 0.0928 0.57561 0.0
C83 C 0.99754 0.96783 0.63088 0.0
C84 C 0.96918 0.94057 0.64838 0.0
C85 C 0.96816 0.93726 0.68766 0.0
C86 C 0.9375 0.9166 0.70564 0.0
C87 C 0.90745 0.89891 0.68454 0.0
C88 C 0.90945 0.90068 0.64499 0.0
C89 C 0.94001 0.92162 0.62702 0.0
C90 C 0.93636 0.04005 0.55988 0.0
C91 C 0.9631 0.96154 0.4973 0.0
O92 O 0.97988 0.09081 0.47538 0.0
O93 O 0.00963 0.05962 0.43892 0.0
O94 O 0.0447 1.03252 0.53509 0.0
O95 O 0.04358 1.01562 0.47804 0.0
O96 O 0.01802 0.09258 0.54145 0.0
O97 O 0.03305 0.06268 0.59195 0.0
O98 O 0.00952 0.96115 0.59696 0.0
O99 O 0.99093 0.99946 0.63453 0.0
O100 O 0.95157 1.02208 0.53694 0.0
O101 O 0.95106 0.03985 0.5926 0.0
O102 O 0.97721 0.96203 0.53149 0.0
O103 O 0.96297 0.99154 0.48018 0.0
H104 H 0.02343 0.10318 0.37219 0.0
H105 H 0.07543 0.14891 0.35262 0.0
H106 H 0.08241 0.19157 0.46642 0.0
H107 H 0.03127 0.14478 0.48593 0.0
H108 H 0.99026 0.95196 0.70457 0.0
H109 H 0.93675 0.9153 0.73616 0.0
H110 H 0.88655 0.88743 0.62815 0.0
H111 H 0.94002 0.9243 0.59666 0.0
Sm112 Sm 0.53306 1.03004 0.07029 0.0
Sm113 Sm 0.4658 1.02493 0.04209 0.0
C114 C 0.5985 0.04671 0.1031 0.0
C115 C 0.62258 0.07564 0.12362 0.0
C116 C 0.65354 0.09604 0.10519 0.0
C117 C 0.67854 0.12114 0.12525 0.0
C118 C 0.67324 0.12616 0.16422 0.0
C119 C 0.64178 0.10626 0.18241 0.0
C120 C 0.61675 0.08131 0.16237 0.0
C121 C 0.48742 0.96591 0.0921 0.0
C122 C 0.47674 0.0707 0.11383 0.0
C123 C 0.39876 1.00636 1.01325 0.0
C124 C 0.38278 1.00045 0.9757 0.0
C125 C 0.35421 0.97133 0.96951 0.0
C126 C 0.34086 0.96331 0.93327 0.0
C127 C 0.35575 0.98449 0.90279 0.0
C128 C 0.38365 1.01423 0.90925 0.0
C129 C 0.39725 1.02205 0.94543 0.0
C130 C 0.51091 0.08824 1.01695 0.0
C131 C 0.52355 0.98489 0.9958 0.0
O132 O 0.5939 0.05084 0.06725 0.0
O133 O 0.56826 1.03066 0.12025 0.0
O134 O 0.47848 0.99589 0.09416 0.0
O135 O 0.52002 0.96924 0.07636 0.0
O136 O 0.51114 0.07514 0.10112 0.0
O137 O 0.4527 0.0442 0.1006 0.0
O138 O 0.41854 0.98392 1.02324 0.0
O139 O 0.41365 0.03855 1.02264 0.0
O140 O 0.52042 0.05847 1.01721 0.0
O141 O 0.47762 0.08492 1.03088 0.0
O142 O 0.48841 0.98531 1.0028 0.0
O143 O 0.54904 1.00495 1.0157 0.0
H144 H 0.65891 0.09204 0.0754 0.0
H145 H 0.7023 0.13624 0.11035 0.0
H146 H 0.63717 0.10894 0.21253 0.0
H147 H 0.59343 0.06581 0.17755 0.0
H148 H 0.34289 0.95433 0.99259 0.0
H149 H 0.31924 0.94031 0.92893 0.0
H150 H 0.39591 1.03067 0.88608 0.0
H151 H 0.41966 0.04442 0.94953 0.0
Sm152 Sm 0.49548 0.49548 0.52634 0.0
Sm153 Sm 0.49911 0.55462 0.56813 0.0
C154 C 0.50725 0.44033 0.48663 0.0
C155 C 0.54071 0.42553 0.48152 0.0
C156 C 0.57582 0.44756 0.48329 0.0
C157 C 0.60781 0.43363 0.4801 0.0
C158 C 0.6053 0.3973 0.47553 0.0
C159 C 0.57001 0.37524 0.47399 0.0
C160 C 0.53793 0.3893 0.47694 0.0
C161 C 0.4271 0.49371 0.56406 0.0
C162 C 0.53177 0.49226 0.61035 0.0
C163 C 0.49593 0.60967 0.61197 0.0
C164 C 0.49319 0.64539 0.60195 0.0
C165 C 0.48572 0.65251 0.56461 0.0
C166 C 0.47804 0.68494 0.55545 0.0
C167 C 0.47815 0.71106 0.58342 0.0
C168 C 0.48807 0.70452 0.62038 0.0
C169 C 0.49526 0.67178 0.62962 0.0
C170 C 0.5569 0.56447 0.51377 0.0
C171 C 0.46309 0.55698 0.48561 0.0
O172 O 0.50898 0.47118 0.47205 0.0
O173 O 0.49244 0.43792 0.52053 0.0
O174 O 0.45879 0.50298 0.57822 0.0
O175 O 0.43099 0.48686 0.52846 0.0
O176 O 0.52611 0.47646 0.57701 0.0
O177 O 0.52292 0.52348 0.61493 0.0
O178 O 0.46685 0.58576 0.60358 0.0
O179 O 0.52711 0.60023 0.6026 0.0
O180 O 0.54764 0.53774 0.53454 0.0
O181 O 0.53417 0.5854 0.52006 0.0
O182 O 0.45862 0.56586 0.5214 0.0
O183 O 0.48271 0.53249 0.47881 0.0
H184 H 0.57848 0.47559 0.48724 0.0
H185 H 0.63451 0.45138 0.48087 0.0
H186 H 0.56718 0.34709 0.47101 0.0
H187 H 0.51102 0.37191 0.47606 0.0
H188 H 0.48426 0.63244 0.54281 0.0
H189 H 0.47015 0.68877 0.52686 0.0
H190 H 0.48919 0.72433 0.64243 0.0
H191 H 0.50131 0.66675 0.65851 0.0
Sm192 Sm 0.99895 0.48902 0.06599 0.0
Sm193 Sm 0.99766 0.55961 1.02382 0.0
C194 C 0.01463 0.42757 0.0823 0.0
C195 C 0.0483 0.41274 0.08209 0.0
C196 C 0.08333 0.43432 0.07645 0.0
C197 C 0.1155 0.421 0.081 0.0
C198 C 0.1131 0.38583 0.09116 0.0
C199 C 0.07782 0.36392 0.09479 0.0
C200 C 0.04571 0.37733 0.09043 0.0
C201 C 0.96211 0.53094 0.11338 0.0
C202 C 0.07023 0.55739 0.07685 0.0
C203 C 0.98001 0.6196 1.00521 0.0
C204 C 0.94514 0.63265 1.00317 0.0
C205 C 0.91839 0.62754 1.03261 0.0
C206 C 0.88436 0.63779 1.02867 0.0
C207 C 0.87615 0.65283 0.99494 0.0
C208 C 0.90312 0.65782 0.96556 0.0
C209 C 0.93726 0.64807 0.96978 0.0
C210 C 0.03414 0.51731 0.9763 0.0
C211 C 0.9257 0.49193 1.01427 0.0
O212 O 1.0025 0.43429 0.04942 0.0
O213 O 0.01365 0.45251 0.10735 0.0
O214 O 0.97588 0.53798 0.08043 0.0
O215 O 0.96606 0.49939 0.12091 0.0
O216 O 0.05762 0.52295 0.07945 0.0
O217 O 0.05138 0.57752 0.05868 0.0
O218 O 0.99179 0.61409 0.03871 0.0
O219 O 0.98363 0.59496 0.98065 0.0
O220 O 0.0205 0.51046 1.00932 0.0
O221 O 0.03035 0.54889 0.96885 0.0
O222 O 0.93862 0.52624 1.01142 0.0
O223 O 0.94462 0.47164 1.03204 0.0
H224 H 0.0858 0.46177 0.06991 0.0
H225 H 0.14215 0.43867 0.07831 0.0
H226 H 0.07502 0.33657 0.10194 0.0
H227 H 0.01886 0.36029 0.09469 0.0
H228 H 0.92342 0.61514 0.05843 0.0
H229 H 0.86452 0.63385 0.05204 0.0
H230 H 0.89762 0.6685 0.93882 0.0
H231 H 0.95723 0.65177 0.94647 0.0
C232 C 0.27549 0.23133 0.31351 0.0
C233 C 0.28897 0.26705 0.30681 0.0
C234 C 0.24434 0.2203 0.33697 0.0
C235 C 0.22648 0.24563 0.35453 0.0
C236 C 0.2423 0.28173 0.35114 0.0
C237 C 0.27328 0.29207 0.32701 0.0
C238 C 0.22845 0.18149 0.33982 0.0
C239 C 0.22482 0.3095 0.37045 0.0
C240 C 0.12281 0.21285 0.36097 0.0
C241 C 0.11836 0.19837 0.3971 0.0
C242 C 0.15762 0.23035 0.3476 0.0
C243 C 0.18866 0.23409 0.37123 0.0
C244 C 0.18375 0.22241 0.40888 0.0
C245 C 0.14871 0.20434 0.42128 0.0
C246 C 0.16161 0.24256 0.30723 0.0
C247 C 0.21591 0.22681 0.43528 0.0
H248 H 0.28718 0.21181 0.29774 0.0
H249 H 0.28386 0.31973 0.32219 0.0
H250 H 0.22218 0.17408 0.36966 0.0
H251 H 0.20202 0.1751 0.32441 0.0
H252 H 0.24761 0.16524 0.32765 0.0
H253 H 0.24454 0.33511 0.37208 0.0
H254 H 0.20049 0.31317 0.35431 0.0
H255 H 0.21487 0.30149 0.39939 0.0
H256 H 0.09932 0.20921 0.34247 0.0
H257 H 0.14573 0.19321 0.44924 0.0
H258 H 0.17864 0.22681 0.2907 0.0
H259 H 0.17616 0.27037 0.30599 0.0
H260 H 0.1344 0.23996 0.29349 0.0
H261 H 0.23284 0.20687 0.42823 0.0
H262 H 0.20636 0.22342 0.46521 0.0
H263 H 0.23414 0.25304 0.43221 0.0
C264 C 0.35394 0.94712 0.68444 0.0
C265 C 0.31927 0.93289 0.66935 0.0
C266 C 0.35756 0.95489 0.72304 0.0
C267 C 0.32566 0.94861 0.747 0.0
C268 C 0.29052 0.9345 0.73198 0.0
C269 C 0.28776 0.92663 0.69329 0.0
C270 C 0.39555 0.96975 0.73819 0.0
C271 C 0.25595 0.92754 0.75679 0.0
C272 C 0.34377 0.94021 0.85062 0.0
C273 C 0.34416 0.97442 0.86392 0.0
C274 C 0.33659 0.93108 0.81274 0.0
C275 C 0.32936 0.95677 0.78785 0.0
C276 C 0.32815 0.99094 0.80153 0.0
C277 C 0.33582 0.99944 0.83947 0.0
C278 C 0.33841 0.89445 0.79903 0.0
C279 C 0.31998 1.01881 0.77584 0.0
H280 H 0.37828 0.95241 0.66597 0.0
H281 H 0.26098 0.9151 0.68186 0.0
H282 H 0.39582 0.99583 0.75152 0.0
H283 H 0.40234 0.95243 0.76034 0.0
H284 H 0.41759 0.97263 0.71581 0.0
H285 H 0.23061 0.91721 0.7405 0.0
H286 H 0.2586 0.9083 0.77872 0.0
H287 H 0.2524 0.95206 0.77165 0.0
H288 H 0.35061 0.92096 0.86949 0.0
H289 H 0.33579 1.0258 0.84995 0.0
H290 H 0.36216 0.89554 0.77886 0.0
H291 H 0.31291 0.88269 0.78373 0.0
H292 H 0.34179 0.87694 0.82252 0.0
H293 H 0.34264 1.02542 0.75436 0.0
H294 H 0.31722 0.04319 0.79153 0.0
H295 H 0.29399 1.00889 0.76052 0.0
C296 C 0.57935 0.38185 0.79463 0.0
C297 C 0.61774 0.38674 0.80155 0.0
C298 C 0.56505 0.39822 0.764 0.0
C299 C 0.58918 0.42055 0.73859 0.0
C300 C 0.62789 0.42523 0.74506 0.0
C301 C 0.64143 0.40854 0.77577 0.0
C302 C 0.52369 0.39184 0.75909 0.0
C303 C 0.65538 0.44822 0.7194 0.0
C304 C 0.5557 0.44054 0.63875 0.0
C305 C 0.54704 0.47422 0.64308 0.0
C306 C 0.56901 0.42304 0.66903 0.0
C307 C 0.57424 0.439 0.70558 0.0
C308 C 0.56562 0.47302 0.71011 0.0
C309 C 0.55232 0.48993 0.67933 0.0
C310 C 0.57748 0.38711 0.66179 0.0
C311 C 0.57048 0.4918 0.7478 0.0
H312 H 0.56008 0.36568 0.81376 0.0
H313 H 0.6711 0.41251 0.77926 0.0
H314 H 0.51401 0.41704 0.76167 0.0
H315 H 0.51664 0.38098 0.73042 0.0
H316 H 0.50834 0.37341 0.78025 0.0
H317 H 0.68451 0.44951 0.72772 0.0
H318 H 0.65222 0.43816 0.68992 0.0
H319 H 0.6498 0.47521 0.71976 0.0
H320 H 0.55194 0.42754 0.61141 0.0
H321 H 0.54589 0.5157 0.68385 0.0
H322 H 0.56047 0.36794 0.68115 0.0
H323 H 0.607 0.38747 0.66768 0.0
H324 H 0.57197 0.37787 0.63225 0.0
H325 H 0.55333 0.47568 0.76971 0.0
H326 H 0.56258 0.51788 0.74732 0.0
H327 H 0.59981 0.49543 0.7563 0.0
C328 C 0.90914 0.6548 0.28865 0.0
C329 C 0.87064 0.65319 0.29309 0.0
C330 C 0.92451 0.63726 0.25832 0.0
C331 C 0.90129 0.61769 0.23058 0.0
C332 C 0.86255 0.61689 0.23428 0.0
C333 C 0.84788 0.63416 0.26519 0.0
C334 C 0.96578 0.63884 0.25662 0.0
C335 C 0.83625 0.59725 0.20567 0.0
C336 C 0.94489 0.58953 0.13588 0.0
C337 C 0.94602 0.55411 0.14191 0.0
C338 C 0.93021 0.61035 0.16385 0.0
C339 C 0.91697 0.59606 0.19961 0.0
C340 C 0.91857 0.56043 0.20578 0.0
C341 C 0.93261 0.5402 0.17722 0.0
C342 C 0.92891 0.64781 0.15507 0.0
C343 C 0.9056 0.54348 0.24299 0.0
H344 H 0.9274 0.66894 0.30971 0.0
H345 H 0.81823 0.63283 0.26736 0.0
H346 H 0.97143 0.61211 0.25992 0.0
H347 H 0.97739 0.64839 0.22869 0.0
H348 H 0.98049 0.65625 0.27896 0.0
H349 H 0.80741 0.60114 0.2105 0.0
H350 H 0.84559 0.6059 0.17676 0.0
H351 H 0.83623 0.56878 0.20695 0.0
H352 H 0.95582 0.60112 0.10944 0.0
H353 H 0.93338 0.51309 0.18289 0.0
H354 H 0.9465 0.66579 0.17497 0.0
H355 H 0.90015 0.65215 0.15898 0.0
H356 H 0.93859 0.65483 0.12576 0.0
H357 H 0.92114 0.55857 0.26639 0.0
H358 H 0.90935 0.51589 0.24403 0.0
H359 H 0.87582 0.54385 0.24807 0.0
C360 C 0.40831 0.24299 0.18583 0.0
C361 C 0.38249 0.23516 0.21589 0.0
C362 C 0.4281 0.21797 0.17162 0.0
C363 C 0.42303 0.18473 0.18873 0.0
C364 C 0.39941 0.17766 0.2209 0.0
C365 C 0.37886 0.2025 0.2335 0.0
C366 C 0.45238 0.22627 0.13669 0.0
C367 C 0.39392 0.14287 0.24062 0.0
C368 C 0.42764 0.10456 0.12801 0.0
C369 C 0.46329 0.09895 0.13488 0.0
C370 C 0.41479 0.1329 0.14466 0.0
C371 C 0.43768 0.15563 0.16991 0.0
C372 C 0.47353 0.14976 0.17759 0.0
C373 C 0.48624 0.12177 0.15935 0.0
C374 C 0.37677 0.13869 0.13485 0.0
C375 C 0.49817 0.17274 0.20532 0.0
H376 H 0.41225 0.2683 0.17247 0.0
H377 H 0.35863 0.19528 0.25612 0.0
H378 H 0.4798 0.2193 0.14053 0.0
H379 H 0.43922 0.21031 0.11256 0.0
H380 H 0.45668 0.25441 0.12924 0.0
H381 H 0.38019 0.14382 0.2688 0.0
H382 H 0.37634 0.12235 0.22324 0.0
H383 H 0.42088 0.13482 0.24418 0.0
H384 H 0.41007 0.08739 0.1085 0.0
H385 H 0.51389 0.11749 0.16449 0.0
H386 H 0.37874 0.16575 0.1245 0.0
H387 H 0.35843 0.13579 0.16038 0.0
H388 H 0.36348 0.11991 0.11288 0.0
H389 H 0.50365 0.2004 0.1961 0.0
H390 H 0.52511 0.16447 0.20845 0.0
H391 H 0.48393 0.17191 0.23336 0.0
C392 C 0.25422 0.9594 0.52922 0.0
C393 C 0.2504 0.9291 0.55065 0.0
C394 C 0.22287 0.97211 0.51892 0.0
C395 C 0.18719 0.95383 0.53039 0.0
C396 C 0.18327 0.92184 0.54983 0.0
C397 C 0.21509 0.90997 0.56003 0.0
C398 C 0.22809 1.00635 0.49824 0.0
C399 C 0.14568 0.90139 0.56209 0.0
C400 C 0.11202 1.00634 0.54889 0.0
C401 C 0.09178 0.99977 0.51578 0.0
C402 C 0.14341 0.99174 0.55382 0.0
C403 C 0.15431 0.96972 0.52514 0.0
C404 C 0.13364 0.96271 0.49185 0.0
C405 C 0.10268 0.97802 0.48747 0.0
C406 C 0.16499 0.99994 0.58965 0.0
C407 C 0.14411 0.93892 0.46101 0.0
H408 H 0.28175 0.97434 0.52269 0.0
H409 H 0.21249 0.88676 0.57712 0.0
H410 H 0.20951 1.00379 0.47378 0.0
H411 H 0.2206 1.02685 0.51742 0.0
H412 H 0.25716 1.01533 0.48801 0.0
H413 H 0.14718 0.87509 0.57283 0.0
H414 H 0.13386 0.91611 0.58484 0.0
H415 H 0.12625 0.89803 0.53828 0.0
H416 H 0.10353 1.02316 0.57075 0.0
H417 H 0.08682 0.97274 0.46193 0.0
H418 H 0.19428 1.01195 0.58272 0.0
H419 H 0.16506 0.97538 0.60498 0.0
H420 H 0.15328 1.01813 0.60878 0.0
H421 H 0.17273 0.94933 0.45042 0.0
H422 H 0.12503 0.93612 0.43688 0.0
H423 H 0.14377 0.91252 0.47244 0.0
C424 C 0.74804 0.4092 0.88307 0.0
C425 C 0.71583 0.39533 0.90447 0.0
C426 C 0.78184 0.42526 0.90036 0.0
C427 C 0.78403 0.42849 0.94037 0.0
C428 C 0.75132 0.41535 0.96203 0.0
C429 C 0.71814 0.39887 0.94407 0.0
C430 C 0.81559 0.43812 0.87566 0.0
C431 C 0.75135 0.41856 1.00451 0.0
C432 C 0.87887 0.43921 0.9894 0.0
C433 C 0.88904 0.47566 0.99613 0.0
C434 C 0.84544 0.42381 0.97115 0.0
C435 C 0.82043 0.44491 0.95954 0.0
C436 C 0.83031 0.48167 0.96671 0.0
C437 C 0.86428 0.49647 0.98435 0.0
C438 C 0.83705 0.38472 0.96392 0.0
C439 C 0.8048 0.50556 0.95586 0.0
H440 H 0.74718 0.40654 0.8526 0.0
H441 H 0.69369 0.38882 0.96125 0.0
H442 H 0.82626 0.46646 0.88109 0.0
H443 H 0.83797 0.42413 0.88266 0.0
H444 H 0.80967 0.43407 0.84515 0.0
H445 H 0.72352 0.40861 1.01744 0.0
H446 H 0.77118 0.40363 1.01599 0.0
H447 H 0.76073 0.44641 1.01321 0.0
H448 H 0.89748 0.42256 0.99784 0.0
H449 H 0.87129 0.52458 0.9892 0.0
H450 H 0.83322 0.3792 0.93329 0.0
H451 H 0.81075 0.3727 0.97861 0.0
H452 H 0.85944 0.37187 0.97363 0.0
H453 H 0.80081 0.50406 0.92493 0.0
H454 H 0.81567 0.53334 0.96409 0.0
H455 H 0.77712 0.49689 0.96956 0.0
C456 C 0.76329 0.65163 0.4359 0.0
C457 C 0.76904 0.64796 0.39661 0.0
C458 C 0.72964 0.636 0.45448 0.0
C459 C 0.70035 0.61527 0.43388 0.0
C460 C 0.70629 0.61035 0.39449 0.0
C461 C 0.74013 0.6267 0.37648 0.0
C462 C 0.72515 0.64243 0.49631 0.0
C463 C 0.67644 0.58836 0.37106 0.0
C464 C 0.62114 0.55574 0.4906 0.0
C465 C 0.5933 0.57582 0.49228 0.0
C466 C 0.65552 0.56763 0.47111 0.0
C467 C 0.66297 0.60082 0.45313 0.0
C468 C 0.63478 0.621 0.45469 0.0
C469 C 0.60064 0.60829 0.47381 0.0
C470 C 0.6841 0.54474 0.47005 0.0
C471 C 0.6409 0.65656 0.43662 0.0
H472 H 0.78522 0.66695 0.4525 0.0
H473 H 0.74344 0.62349 0.34625 0.0
H474 H 0.70204 0.65649 0.50157 0.0
H475 H 0.71785 0.6171 0.51121 0.0
H476 H 0.75068 0.65818 0.50873 0.0
H477 H 0.68614 0.58443 0.34165 0.0
H478 H 0.66679 0.56232 0.38407 0.0
H479 H 0.65219 0.60125 0.3702 0.0
H480 H 0.61627 0.53086 0.50491 0.0
H481 H 0.57964 0.62426 0.47469 0.0
H482 H 0.70916 0.55812 0.48511 0.0
H483 H 0.69277 0.54033 0.44043 0.0
H484 H 0.67357 0.51889 0.48326 0.0
H485 H 0.6649 0.67425 0.44958 0.0
H486 H 0.61627 0.66894 0.43977 0.0
H487 H 0.64761 0.65418 0.40612 0.0
C488 C 0.29287 0.35078 0.187 0.0
C489 C 0.29893 0.31675 0.1803 0.0
C490 C 0.26696 0.36398 0.16618 0.0
C491 C 0.24646 0.34244 0.13825 0.0
C492 C 0.25511 0.30937 0.12895 0.0
C493 C 0.28138 0.2969 0.15012 0.0
C494 C 0.25899 0.39957 0.17671 0.0
C495 C 0.23406 0.28567 0.09927 0.0
C496 C 0.14637 0.35217 0.13315 0.0
C497 C 0.14696 0.37286 0.10111 0.0
C498 C 0.17839 0.34146 0.1448 0.0
C499 C 0.21206 0.35178 0.12402 0.0
C500 C 0.21282 0.37207 0.0912 0.0
C501 C 0.18023 0.38244 0.08015 0.0
C502 C 0.17634 0.31989 0.18008 0.0
C503 C 0.24816 0.38345 0.06831 0.0
H504 H 0.30659 0.36615 0.21029 0.0
H505 H 0.2858 0.27045 0.1451 0.0
H506 H 0.25605 0.41462 0.15111 0.0
H507 H 0.23239 0.39617 0.193 0.0
H508 H 0.28113 0.41518 0.19427 0.0
H509 H 0.24844 0.26416 0.09056 0.0
H510 H 0.20615 0.27377 0.11076 0.0
H511 H 0.23012 0.30073 0.07397 0.0
H512 H 0.12104 0.34521 0.14996 0.0
H513 H 0.18082 0.39819 0.05518 0.0
H514 H 0.19451 0.33476 0.20184 0.0
H515 H 0.18648 0.29534 0.17384 0.0
H516 H 0.14771 0.31289 0.19213 0.0
H517 H 0.26872 0.40148 0.08548 0.0
H518 H 0.24357 0.39704 0.04211 0.0
H519 H 0.2605 0.36042 0.06057 0.0
C520 C 0.57456 0.2698 0.89503 0.0
C521 C 0.61201 0.28631 0.90037 0.0
C522 C 0.55837 0.23689 0.9117 0.0
C523 C 0.57918 0.21956 0.93581 0.0
C524 C 0.61684 0.2358 0.94117 0.0
C525 C 0.63271 0.26775 0.92293 0.0
C526 C 0.51858 0.2207 0.90353 0.0
C527 C 0.6406 0.21972 0.96702 0.0
C528 C 0.52652 0.15458 1.01045 0.0
C529 C 0.53033 0.12128 0.99646 0.0
C530 C 0.54243 0.18619 0.99156 0.0
C531 C 0.56171 0.18532 0.95632 0.0
C532 C 0.56513 0.15161 0.94168 0.0
C533 C 0.5502 0.12039 0.96205 0.0
C534 C 0.53889 0.22075 1.0098 0.0
C535 C 0.5839 0.1484 0.90384 0.0
H536 H 0.55736 0.28269 0.87812 0.0
H537 H 0.66193 0.27791 0.92667 0.0
H538 H 0.51612 0.19272 0.89509 0.0
H539 H 0.50118 0.22154 0.9294 0.0
H540 H 0.50736 0.23456 0.88081 0.0
H541 H 0.66859 0.2364 0.97046 0.0
H542 H 0.6269 0.21548 0.99528 0.0
H543 H 0.64392 0.19373 0.95574 0.0
H544 H 0.51129 0.156 1.03683 0.0
H545 H 0.55301 0.0951 0.95031 0.0
H546 H 0.52283 0.2348 0.99158 0.0
H547 H 0.56678 0.23765 1.01295 0.0
H548 H 0.52492 0.21741 1.03803 0.0
H549 H 0.57109 0.16207 0.88214 0.0
H550 H 0.58205 0.12063 0.89478 0.0
H551 H 0.61357 0.16127 0.90502 0.0
C552 C 0.84952 0.77915 0.40369 0.0
C553 C 0.8722 0.75682 0.38821 0.0
C554 C 0.86437 0.81216 0.42064 0.0
C555 C 0.90332 0.82452 0.42199 0.0
C556 C 0.92649 0.80278 0.40546 0.0
C557 C 0.91086 0.76952 0.38907 0.0
C558 C 0.83808 0.83371 0.43766 0.0
C559 C 0.96808 0.8145 0.40548 0.0
C560 C 0.939 0.92437 0.43933 0.0
C561 C 0.94757 0.92657 0.47795 0.0
C562 C 0.92541 0.89171 0.42082 0.0
C563 C 0.91946 0.85978 0.4411 0.0
C564 C 0.92789 0.86189 0.48013 0.0
C565 C 0.94194 0.89482 0.49779 0.0
C566 C 0.91749 0.89141 0.37927 0.0
C567 C 0.92172 0.82919 0.50353 0.0
H568 H 0.81969 0.77092 0.4026 0.0
H569 H 0.92916 0.7531 0.37768 0.0
H570 H 0.84375 0.83866 0.46808 0.0
H571 H 0.84248 0.85961 0.42388 0.0
H572 H 0.80856 0.82062 0.43474 0.0
H573 H 0.98245 0.79578 0.39002 0.0
H574 H 0.97627 0.84065 0.39236 0.0
H575 H 0.9778 0.81723 0.43495 0.0
H576 H 0.94329 0.9483 0.42326 0.0
H577 H 0.94827 0.89565 0.52752 0.0
H578 H 0.88767 0.88062 0.37469 0.0
H579 H 0.93344 0.87403 0.36376 0.0
H580 H 0.92466 0.91801 0.36699 0.0
H581 H 0.89211 0.81592 0.50279 0.0
H582 H 0.92945 0.83489 0.53342 0.0
H583 H 0.93824 0.81053 0.49149 0.0
C584 C 0.35131 0.84428 0.53896 0.0
C585 C 0.36498 0.8774 0.55489 0.0
C586 C 0.37417 0.81954 0.53477 0.0
C587 C 0.41123 0.82831 0.54706 0.0
C588 C 0.42632 0.8632 0.55833 0.0
C589 C 0.40294 0.88743 0.56202 0.0
C590 C 0.35735 0.78284 0.5216 0.0
C591 C 0.46583 0.87383 0.57107 0.0
C592 C 0.44095 0.75622 0.60108 0.0
C593 C 0.46426 0.74333 0.57486 0.0
C594 C 0.42439 0.78438 0.59248 0.0
C595 C 0.43084 0.79988 0.55647 0.0
C596 C 0.45499 0.78768 0.53008 0.0
C597 C 0.47154 0.75957 0.53964 0.0
C598 C 0.39908 0.79686 0.62169 0.0
C599 C 0.46238 0.80344 0.49139 0.0
H600 H 0.322 0.83651 0.53324 0.0
H601 H 0.41364 0.91334 0.5737 0.0
H602 H 0.37708 0.77199 0.50293 0.0
H603 H 0.35092 0.76556 0.54643 0.0
H604 H 0.33127 0.78204 0.50623 0.0
H605 H 0.47536 0.90278 0.5714 0.0
H606 H 0.46774 0.86425 0.6001 0.0
H607 H 0.48488 0.86195 0.55254 0.0
H608 H 0.43445 0.74347 0.62801 0.0
H609 H 0.48982 0.75001 0.51931 0.0
H610 H 0.37047 0.79271 0.61095 0.0
H611 H 0.40837 0.82539 0.62727 0.0
H612 H 0.39826 0.78291 0.64884 0.0
H613 H 0.43742 0.79513 0.47403 0.0
H614 H 0.48615 0.79495 0.4766 0.0
H615 H 0.46805 0.8325 0.49322 0.0
C616 C 0.71258 0.81328 0.78515 0.0
C617 C 0.72101 0.79765 0.81827 0.0
C618 C 0.74081 0.82846 0.75961 0.0
C619 C 0.77819 0.82774 0.76738 0.0
C620 C 0.78671 0.81106 0.80014 0.0
C621 C 0.75814 0.79661 0.82531 0.0
C622 C 0.73081 0.84629 0.72505 0.0
C623 C 0.82622 0.80967 0.80946 0.0
C624 C 0.85585 0.84678 0.69357 0.0
C625 C 0.87309 0.88094 0.70403 0.0
C626 C 0.82396 0.82939 0.71306 0.0
C627 C 0.80893 0.84685 0.74329 0.0
C628 C 0.82547 0.88185 0.75289 0.0
C629 C 0.85746 0.89839 0.73325 0.0
C630 C 0.80724 0.79196 0.70233 0.0
C631 C 0.81008 0.90148 0.78472 0.0
H632 H 0.68396 0.81402 0.77944 0.0
H633 H 0.76519 0.78549 0.85128 0.0
H634 H 0.74217 0.87488 0.72719 0.0
H635 H 0.74342 0.83635 0.69935 0.0
H636 H 0.70034 0.84223 0.72154 0.0
H637 H 0.82781 0.79306 0.83427 0.0
H638 H 0.84024 0.79923 0.78498 0.0
H639 H 0.8419 0.83655 0.81562 0.0
H640 H 0.86795 0.83334 0.6709 0.0
H641 H 0.87037 0.9251 0.7408 0.0
H642 H 0.777 0.78892 0.6982 0.0
H643 H 0.81097 0.77437 0.72556 0.0
H644 H 0.82019 0.78321 0.67614 0.0
H645 H 0.78005 0.90038 0.78098 0.0
H646 H 0.82441 0.92942 0.78655 0.0
H647 H 0.81314 0.8889 0.81195 0.0
C648 C 0.81701 0.25064 0.30081 0.0
C649 C 0.81897 0.22917 0.33172 0.0
C650 C 0.79814 0.23695 0.26819 0.0
C651 C 0.78049 0.20114 0.26685 0.0
C652 C 0.78449 0.17894 0.29697 0.0
C653 C 0.80376 0.19321 0.32897 0.0
C654 C 0.79515 0.26125 0.23627 0.0
C655 C 0.76597 0.14061 0.29675 0.0
C656 C 0.69034 0.17015 0.21651 0.0
C657 C 0.70145 0.15016 0.18663 0.0
C658 C 0.71622 0.18859 0.24165 0.0
C659 C 0.75423 0.18744 0.23646 0.0
C660 C 0.76599 0.16954 0.20474 0.0
C661 C 0.7394 0.15088 0.1803 0.0
C662 C 0.70252 0.20743 0.27513 0.0
C663 C 0.80634 0.16828 0.1979 0.0
H664 H 0.82893 0.27842 0.3028 0.0
H665 H 0.80463 0.17655 0.35295 0.0
H666 H 0.79953 0.24865 0.20862 0.0
H667 H 0.76689 0.26717 0.23659 0.0
H668 H 0.81552 0.2864 0.23867 0.0
H669 H 0.7744 0.12635 0.32083 0.0
H670 H 0.73542 0.1382 0.29834 0.0
H671 H 0.77276 0.12759 0.27011 0.0
H672 H 0.66116 0.1704 0.22102 0.0
H673 H 0.74828 0.1354 0.15739 0.0
H674 H 0.71846 0.23474 0.27724 0.0
H675 H 0.70688 0.19401 0.30148 0.0
H676 H 0.67258 0.20813 0.27346 0.0
H677 H 0.82406 0.19462 0.20214 0.0
H678 H 0.81162 0.15862 0.16897 0.0
H679 H 0.81488 0.15045 0.21846 0.0
C680 C 0.36444 0.62511 0.30253 0.0
C681 C 0.37547 0.66143 0.29481 0.0
C682 C 0.37776 0.60888 0.33372 0.0
C683 C 0.40447 0.62838 0.35832 0.0
C684 C 0.41651 0.66474 0.35056 0.0
C685 C 0.40174 0.68064 0.31989 0.0
C686 C 0.36291 0.5704 0.34035 0.0
C687 C 0.44548 0.68711 0.37469 0.0
C688 C 0.41848 0.59341 0.45881 0.0
C689 C 0.44795 0.5754 0.45327 0.0
C690 C 0.40409 0.61025 0.42866 0.0
C691 C 0.41994 0.61062 0.39146 0.0
C692 C 0.45028 0.59315 0.386 0.0
C693 C 0.46331 0.57557 0.41633 0.0
C694 C 0.37127 0.62726 0.43664 0.0
C695 C 0.46947 0.5933 0.34788 0.0
H696 H 0.34544 0.60853 0.28396 0.0
H697 H 0.41101 0.70851 0.31603 0.0
H698 H 0.3855 0.55555 0.33622 0.0
H699 H 0.35243 0.56637 0.3699 0.0
H700 H 0.34013 0.55921 0.32103 0.0
H701 H 0.45418 0.71418 0.36389 0.0
H702 H 0.43451 0.68863 0.40398 0.0
H703 H 0.47028 0.675 0.37595 0.0
H704 H 0.40603 0.59381 0.4868 0.0
H705 H 0.48626 0.56236 0.41114 0.0
H706 H 0.34839 0.61598 0.41751 0.0
H707 H 0.37896 0.65574 0.431 0.0
H708 H 0.36091 0.62371 0.4663 0.0
H709 H 0.44991 0.57912 0.3269 0.0
H710 H 0.49406 0.5808 0.34839 0.0
H711 H 0.47847 0.62066 0.33806 0.0
C712 C 0.08315 0.39223 0.79987 0.0
C713 C 0.12167 0.39528 0.79338 0.0
C714 C 0.0684 0.40927 0.83105 0.0
C715 C 0.09229 0.43011 0.85742 0.0
C716 C 0.13109 0.43242 0.85166 0.0
C717 C 0.14508 0.41529 0.82023 0.0
C718 C 0.02697 0.40573 0.83516 0.0
C719 C 0.15819 0.45377 0.87848 0.0
C720 C 0.0596 0.50684 0.91093 0.0
C721 C 0.04951 0.49388 0.94743 0.0
C722 C 0.07302 0.48655 0.88202 0.0
C723 C 0.07715 0.4517 0.88887 0.0
C724 C 0.06727 0.43833 0.92581 0.0
C725 C 0.05356 0.45932 0.95438 0.0
C726 C 0.08281 0.50266 0.84378 0.0
C727 C 0.07117 0.40168 0.93523 0.0
H728 H 0.06429 0.37731 0.77981 0.0
H729 H 0.17478 0.41766 0.81679 0.0
H730 H 0.01749 0.39691 0.86399 0.0
H731 H 0.01951 0.43168 0.83132 0.0
H732 H 0.01179 0.38688 0.81429 0.0
H733 H 0.18724 0.45127 0.87201 0.0
H734 H 0.15648 0.48185 0.87694 0.0
H735 H 0.15098 0.44541 0.90793 0.0
H736 H 0.05673 0.53329 0.90461 0.0
H737 H 0.04605 0.44862 0.98212 0.0
H738 H 0.06628 0.48639 0.82176 0.0
H739 H 0.11247 0.50328 0.83677 0.0
H740 H 0.0777 0.52979 0.84247 0.0
H741 H 0.05348 0.38248 0.91651 0.0
H742 H 0.06323 0.39509 0.96506 0.0
H743 H 0.10025 0.39871 0.93005 0.0
C744 C 0.6132 0.82615 0.94093 0.0
C745 C 0.61586 0.81716 0.90257 0.0
C746 C 0.5934 0.85181 0.95296 0.0
C747 C 0.57619 0.86927 0.92598 0.0
C748 C 0.57715 0.85912 0.88749 0.0
C749 C 0.59678 0.83305 0.87628 0.0
C750 C 0.5926 0.86156 0.99439 0.0
C751 C 0.55909 0.87705 0.8579 0.0
C752 C 0.51027 0.92499 0.96643 0.0
C753 C 0.53441 0.9575 0.97106 0.0
C754 C 0.52295 0.89619 0.95017 0.0
C755 C 0.56044 0.90028 0.93784 0.0
C756 C 0.5841 0.93374 0.93997 0.0
C757 C 0.57087 0.96187 0.95684 0.0
C758 C 0.49693 0.86093 0.9487 0.0
C759 C 0.62408 0.93939 0.92649 0.0
H760 H 0.62813 0.81442 0.96145 0.0
H761 H 0.59814 0.82583 0.84667 0.0
H762 H 0.60915 0.88841 0.99883 0.0
H763 H 0.56379 0.86177 1.00423 0.0
H764 H 0.60405 0.84321 1.01211 0.0
H765 H 0.559 0.8637 0.8299 0.0
H766 H 0.53011 0.87794 0.86652 0.0
H767 H 0.57428 0.90455 0.85499 0.0
H768 H 0.48215 0.92139 0.97776 0.0
H769 H 0.58954 0.98702 0.96025 0.0
H770 H 0.50463 0.84382 0.97056 0.0
H771 H 0.49922 0.84778 0.92094 0.0
H772 H 0.4676 0.86317 0.95392 0.0
H773 H 0.63976 0.92521 0.94503 0.0
H774 H 0.63765 0.96759 0.92665 0.0
H775 H 0.62599 0.92863 0.89745 0.0
C776 C 0.90383 0.20359 0.44847 0.0
C777 C 0.86979 0.21319 0.45659 0.0
C778 C 0.91533 0.17758 0.46928 0.0
C779 C 0.89172 0.16027 0.4982 0.0
C780 C 0.85805 0.17101 0.50758 0.0
C781 C 0.84757 0.19754 0.48676 0.0
C782 C 0.95175 0.16737 0.45881 0.0
C783 C 0.83205 0.15305 0.53805 0.0
C784 C 0.89986 0.06621 0.51456 0.0
C785 C 0.92056 0.06962 0.54741 0.0
C786 C 0.88933 0.09544 0.49892 0.0
C787 C 0.90058 0.12891 0.51618 0.0
C788 C 0.92098 0.13235 0.5498 0.0
C789 C 0.93032 0.10249 0.56533 0.0
C790 C 0.86725 0.09068 0.46322 0.0
C791 C 0.9345 0.16773 0.56828 0.0
H792 H 0.92098 0.21579 0.42515 0.0
H793 H 0.82097 0.20467 0.4927 0.0
H794 H 0.96678 0.16298 0.48443 0.0
H795 H 0.94632 0.1425 0.44221 0.0
H796 H 0.96993 0.18763 0.44147 0.0
H797 H 0.80849 0.16642 0.54398 0.0
H798 H 0.82077 0.12556 0.52918 0.0
H799 H 0.84716 0.15211 0.56455 0.0
H800 H 0.89272 0.04078 0.50061 0.0
H801 H 0.94702 0.10524 0.59037 0.0
H802 H 0.88418 0.10466 0.43977 0.0
H803 H 0.84215 0.10224 0.46696 0.0
H804 H 0.85854 0.06262 0.4549 0.0
H805 H 0.95457 0.18439 0.54903 0.0
H806 H 0.94833 0.16566 0.5954 0.0
H807 H 0.91106 0.18132 0.57361 0.0
C808 C 0.27584 0.65224 0.15175 0.0
C809 C 0.27734 0.6557 0.19141 0.0
C810 C 0.24309 0.63566 0.13304 0.0
C811 C 0.20994 0.62231 0.15396 0.0
C812 C 0.21127 0.62558 0.19403 0.0
C813 C 0.24466 0.64175 0.21208 0.0
C814 C 0.24403 0.63247 0.09056 0.0
C815 C 0.17704 0.61256 0.218 0.0
C816 C 0.1161 0.61052 0.10257 0.0
C817 C 0.10642 0.57403 0.09582 0.0
C818 C 0.14902 0.62627 0.12155 0.0
C819 C 0.17405 0.60551 0.13397 0.0
C820 C 0.16466 0.56871 0.1268 0.0
C821 C 0.13119 0.55355 0.10839 0.0
C822 C 0.15684 0.66536 0.1287 0.0
C823 C 0.19019 0.54514 0.13847 0.0
H824 H 0.30063 0.66234 0.13509 0.0
H825 H 0.24483 0.64432 0.24257 0.0
H826 H 0.2352 0.60458 0.08178 0.0
H827 H 0.2242 0.6471 0.07854 0.0
H828 H 0.27205 0.64276 0.07824 0.0
H829 H 0.1822 0.61684 0.24863 0.0
H830 H 0.15465 0.62624 0.21022 0.0
H831 H 0.16679 0.58414 0.21264 0.0
H832 H 0.0975 0.62694 0.09354 0.0
H833 H 0.12458 0.52543 0.10358 0.0
H834 H 0.18337 0.6776 0.11457 0.0
H835 H 0.15993 0.67097 0.15939 0.0
H836 H 0.1345 0.67794 0.11833 0.0
H837 H 0.21811 0.55402 0.12536 0.0
H838 H 0.17975 0.5173 0.13022 0.0
H839 H 0.1935 0.54677 0.16951 0.0
C840 C 0.23086 0.43754 0.68376 0.0
C841 C 0.22316 0.40111 0.6898 0.0
C842 C 0.26369 0.45446 0.66441 0.0
C843 C 0.29015 0.43484 0.65074 0.0
C844 C 0.28288 0.39823 0.65751 0.0
C845 C 0.24985 0.382 0.67668 0.0
C846 C 0.26972 0.4934 0.65795 0.0
C847 C 0.30998 0.37593 0.64414 0.0
C848 C 0.35814 0.46774 0.56826 0.0
C849 C 0.39167 0.48085 0.58653 0.0
C850 C 0.32506 0.45363 0.58868 0.0
C851 C 0.32494 0.45213 0.62872 0.0
C852 C 0.35861 0.46588 0.64736 0.0
C853 C 0.39128 0.48007 0.62622 0.0
C854 C 0.29021 0.43971 0.56719 0.0
C855 C 0.36039 0.46491 0.68978 0.0
H856 H 0.2107 0.45282 0.69329 0.0
H857 H 0.24498 0.35403 0.68152 0.0
H858 H 0.29668 0.50671 0.66957 0.0
H859 H 0.27093 0.49848 0.62721 0.0
H860 H 0.24737 0.5053 0.67115 0.0
H861 H 0.30101 0.34807 0.65237 0.0
H862 H 0.31317 0.37702 0.61295 0.0
H863 H 0.33768 0.38633 0.656 0.0
H864 H 0.35781 0.46815 0.53771 0.0
H865 H 0.41682 0.48998 0.64086 0.0
H866 H 0.26741 0.45237 0.57782 0.0
H867 H 0.2813 0.41111 0.5718 0.0
H868 H 0.29414 0.44424 0.53638 0.0
H869 H 0.33909 0.47813 0.70297 0.0
H870 H 0.38803 0.47777 0.70031 0.0
H871 H 0.35416 0.43729 0.6992 0.0
C872 C 0.69426 0.72981 0.96222 0.0
C873 C 0.68365 0.71927 0.92539 0.0
C874 C 0.71901 0.71346 0.98131 0.0
C875 C 0.73374 0.68655 0.96274 0.0
C876 C 0.71875 0.67249 0.92805 0.0
C877 C 0.69344 0.68881 0.90998 0.0
C878 C 0.7328 0.72788 1.01926 0.0
C879 C 0.73315 0.64345 0.90748 0.0
C880 C 0.83733 0.69248 0.96886 0.0
C881 C 0.83951 0.66276 0.98977 0.0
C882 C 0.80307 0.70063 0.96056 0.0
C883 C 0.76991 0.67917 0.97448 0.0
C884 C 0.77183 0.65022 0.99737 0.0
C885 C 0.80658 0.64205 1.00429 0.0
C886 C 0.80244 0.73174 0.93585 0.0
C887 C 0.73734 0.6271 1.01353 0.0
H888 H 0.68653 0.75313 0.97452 0.0
H889 H 0.6846 0.68017 0.88181 0.0
H890 H 0.73714 0.7065 1.03784 0.0
H891 H 0.75985 0.7462 1.01542 0.0
H892 H 0.71313 0.74245 1.03352 0.0
H893 H 0.71486 0.63193 0.88411 0.0
H894 H 0.76116 0.6541 0.89537 0.0
H895 H 0.73579 0.62231 0.92711 0.0
H896 H 0.86253 0.70929 0.95845 0.0
H897 H 0.80775 0.61884 1.02022 0.0
H898 H 0.78855 0.75085 0.95115 0.0
H899 H 0.78634 0.72303 0.91014 0.0
H900 H 0.83069 0.74545 0.92694 0.0
H901 H 0.71596 0.64252 1.02161 0.0
H902 H 0.74361 0.61288 0.03866 0.0
H903 H 0.7254 0.6073 0.99197 0.0
C904 C 0.42001 0.77957 0.20402 0.0
C905 C 0.38247 0.76371 0.19799 0.0
C906 C 0.43676 0.8129 0.18874 0.0
C907 C 0.41646 0.83139 0.16536 0.0
C908 C 0.37878 0.81573 0.15913 0.0
C909 C 0.36234 0.78325 0.17597 0.0
C910 C 0.47656 0.82836 0.19767 0.0
C911 C 0.3556 0.83313 0.13391 0.0
C912 C 0.44713 0.93152 0.14481 0.0
C913 C 0.46749 0.93202 0.11055 0.0
C914 C 0.43139 0.89946 0.16325 0.0
C915 C 0.4345 0.86638 0.14673 0.0
C916 C 0.45425 0.86693 0.1116 0.0
C917 C 0.47093 0.8993 0.09463 0.0
C918 C 0.41206 0.90108 0.20107 0.0
C919 C 0.45753 0.83313 0.09148 0.0
H920 H 0.43688 0.7659 0.22041 0.0
H921 H 0.33314 0.77347 0.17166 0.0
H922 H 0.4941 0.82885 0.1717 0.0
H923 H 0.47913 0.85587 0.20788 0.0
H924 H 0.48756 0.81319 0.21936 0.0
H925 H 0.32756 0.81685 0.12961 0.0
H926 H 0.35244 0.85876 0.14633 0.0
H927 H 0.3697 0.83835 0.10595 0.0
H928 H 0.44452 0.95632 0.15794 0.0
H929 H 0.48645 0.89896 0.06826 0.0
H930 H 0.42452 0.88642 0.22213 0.0
H931 H 0.38241 0.88834 0.19909 0.0
H932 H 0.41384 0.92846 0.21152 0.0
H933 H 0.47323 0.818 0.10886 0.0
H934 H 0.47177 0.83767 0.06347 0.0
H935 H 0.42955 0.81668 0.08745 0.0
C936 C 0.08018 0.28087 0.69335 0.0
C937 C 0.11878 0.29403 0.69387 0.0
C938 C 0.06477 0.24825 0.67539 0.0
C939 C 0.08809 0.22776 0.65676 0.0
C940 C 0.12696 0.2406 0.65772 0.0
C941 C 0.14159 0.27276 0.67643 0.0
C942 C 0.02326 0.2358 0.67608 0.0
C943 C 0.15342 0.2205 0.63839 0.0
C944 C 0.05577 0.12831 0.63472 0.0
C945 C 0.04643 0.1274 0.59633 0.0
C946 C 0.06822 0.16039 0.65473 0.0
C947 C 0.07232 0.19312 0.63624 0.0
C948 C 0.06288 0.19236 0.5975 0.0
C949 C 0.04982 0.15993 0.57839 0.0
C950 C 0.07702 0.1592 0.69595 0.0
C951 C 0.06708 0.22597 0.57588 0.0
H952 H 0.06176 0.2964 0.70631 0.0
H953 H 0.17141 0.28122 0.67726 0.0
H954 H 0.01284 0.23416 0.64689 0.0
H955 H 0.01593 0.20904 0.6879 0.0
H956 H 0.0088 0.25348 0.69309 0.0
H957 H 0.18282 0.23415 0.64071 0.0
H958 H 0.15024 0.19413 0.6509 0.0
H959 H 0.14681 0.21658 0.60805 0.0
H960 H 0.05304 0.10378 0.64947 0.0
H961 H 0.04256 0.16016 0.54906 0.0
H962 H 0.06109 0.1757 0.71283 0.0
H963 H 0.10687 0.17014 0.70016 0.0
H964 H 0.0705 0.1321 0.70703 0.0
H965 H 0.04993 0.24332 0.58952 0.0
H966 H 0.05877 0.22127 0.54601 0.0
H967 H 0.09637 0.24021 0.57637 0.0
C968 C 0.77117 0.29358 0.46857 0.0
C969 C 0.79573 0.30518 0.43848 0.0
C970 C 0.74277 0.31131 0.47889 0.0
C971 C 0.73908 0.34137 0.45867 0.0
C972 C 0.76566 0.35483 0.43037 0.0
C973 C 0.79365 0.33642 0.42046 0.0
C974 C 0.71491 0.29611 0.50918 0.0
C975 C 0.76294 0.38715 0.40862 0.0
C976 C 0.64166 0.35595 0.44535 0.0
C977 C 0.63945 0.38263 0.47191 0.0
C978 C 0.67394 0.34225 0.44099 0.0
C979 C 0.70487 0.35578 0.46355 0.0
C980 C 0.70291 0.38269 0.49045 0.0
C981 C 0.67011 0.39571 0.49444 0.0
C982 C 0.67497 0.31339 0.41205 0.0
C983 C 0.73542 0.39773 0.51488 0.0
H984 H 0.77243 0.26919 0.48227 0.0
H985 H 0.81283 0.34548 0.39734 0.0
H986 H 0.70915 0.31698 0.52886 0.0
H987 H 0.68837 0.28393 0.4959 0.0
H988 H 0.72455 0.27579 0.52567 0.0
H989 H 0.78851 0.39699 0.39155 0.0
H990 H 0.73922 0.38088 0.38928 0.0
H991 H 0.75772 0.4084 0.42807 0.0
H992 H 0.61832 0.34612 0.42745 0.0
H993 H 0.66839 0.41602 0.5154 0.0
H994 H 0.68136 0.29003 0.42589 0.0
H995 H 0.6973 0.32221 0.39072 0.0
H996 H 0.6483 0.30541 0.39725 0.0
H997 H 0.72948 0.41884 0.53423 0.0
H998 H 0.75998 0.40855 0.49688 0.0
H999 H 0.74291 0.37672 0.53198 0.0
loop_
_geom_bond_atom_site_label_1
_geom_bond_atom_site_label_2
_geom_bond_distance
_geom_bond_site_symmetry_2
_ccdc_geom_bond_type
H0 C3 0.931 . S
H1 C6 0.928 . S
H2 C8 0.930 . S
C3 H0 0.931 . S
C3 C4 1.413 . S
C3 C5 1.360 . S
C4 C3 1.413 . S
C4 C8 1.429 . S
C5 C3 1.360 . S
C5 C6 1.372 . S
C6 H1 0.928 . S
C6 C5 1.372 . S
C6 C7 1.404 . S
C7 C6 1.404 . S
C7 C8 1.391 . S
C8 H2 0.930 . S
C8 C4 1.429 . S
C8 C7 1.391 . S
H9 C12 0.931 . S
H10 C15 0.928 . S
H11 C17 0.930 . S
C12 H9 0.931 . S
C12 C13 1.413 . S
C12 C14 1.360 . S
C13 C12 1.413 . S
C13 C17 1.429 . S
C14 C12 1.360 . S
C14 C15 1.372 . S
C15 H10 0.928 . S
C15 C14 1.372 . S
C15 C16 1.404 . S
C16 C15 1.404 . S
C16 C17 1.391 . S
C17 H11 0.930 . S
C17 C13 1.429 . S
C17 C16 1.391 . S
H18 C21 0.931 . S
H19 C24 0.928 . S
H20 C26 0.930 . S
C21 H18 0.931 . S
C21 C22 1.413 . S
C21 C23 1.360 . S
C22 C21 1.413 . S
C22 C26 1.429 . S
C23 C21 1.360 . S
C23 C24 1.372 . S
C24 H19 0.928 . S
C24 C23 1.372 . S
C24 C25 1.404 . S
C25 C24 1.404 . S
C25 C26 1.391 . S
C26 H20 0.930 . S
C26 C22 1.429 . S
C26 C25 1.391 . S
H27 C30 0.931 . S
H28 C33 0.928 . S
H29 C35 0.930 . S
C30 H27 0.931 . S
C30 C31 1.413 . S
C30 C32 1.360 . S
C31 C30 1.413 . S
C31 C35 1.429 . S
C32 C30 1.360 . S
C32 C33 1.372 . S
C33 H28 0.928 . S
C33 C32 1.372 . S
C33 C34 1.404 . S
C34 C33 1.404 . S
C34 C35 1.391 . S
C35 H29 0.930 . S
C35 C31 1.429 . S
C35 C34 1.391 . S
H36 C39 0.931 . S
H37 C42 0.928 . S
H38 C44 0.930 . S
C39 H36 0.931 . S
C39 C40 1.413 . S
C39 C41 1.360 . S
C40 C39 1.413 . S
C40 C44 1.429 . S
C41 C39 1.360 . S
C41 C42 1.372 . S
C42 H37 0.928 . S
C42 C41 1.372 . S
C42 C43 1.404 . S
C43 C42 1.404 . S
C43 C44 1.391 . S
C44 H38 0.930 . S
C44 C40 1.429 . S
C44 C43 1.391 . S
H45 C48 0.931 . S
H46 C51 0.928 . S
H47 C53 0.930 . S
C48 H45 0.931 . S
C48 C49 1.413 . S
C48 C50 1.360 . S
C49 C48 1.413 . S
C49 C53 1.429 . S
C50 C48 1.360 . S
C50 C51 1.372 . S
C51 H46 0.928 . S
C51 C50 1.372 . S
C51 C52 1.404 . S
C52 C51 1.404 . S
C52 C53 1.391 . S
C53 H47 0.930 . S
C53 C49 1.429 . S
C53 C52 1.391 . S
H54 C57 0.931 . S
H55 C60 0.928 . S
H56 C62 0.930 . S
C57 H54 0.931 . S
C57 C58 1.413 . S
C57 C59 1.360 . S
C58 C57 1.413 . S
C58 C62 1.429 . S
C59 C57 1.360 . S
C59 C60 1.372 . S
C60 H55 0.928 . S
C60 C59 1.372 . S
C60 C61 1.404 . S
C61 C60 1.404 . S
C61 C62 1.391 . S
C62 H56 0.930 . S
C62 C58 1.429 . S
C62 C61 1.391 . S
H63 C66 0.931 . S
H64 C69 0.928 . S
H65 C71 0.930 . S
C66 H63 0.931 . S
C66 C67 1.413 . S
C66 C68 1.360 . S
C67 C66 1.413 . S
C67 C71 1.429 . S
C68 C66 1.360 . S
C68 C69 1.372 . S
C69 H64 0.928 . S
C69 C68 1.372 . S
C69 C70 1.404 . S
C70 C69 1.404 . S
C70 C71 1.391 . S
C71 H65 0.930 . S
C71 C67 1.429 . S
C71 C70 1.391 . S
Sm72 C74 2.846 . S
Sm72 O92 2.543 . S
Sm72 O93 2.450 . S
Sm72 O94 2.681 1_545 S
Sm72 O95 2.464 1_545 S
Sm72 O96 2.396 . S
Sm72 O100 2.386 1_455 S
Sm72 O103 2.408 1_445 S
Sm73 C83 2.846 . S
Sm73 O94 2.386 1_655 S
Sm73 O97 2.408 1_665 S
Sm73 O98 2.543 . S
Sm73 O99 2.450 . S
Sm73 O100 2.681 1_565 S
Sm73 O101 2.464 1_565 S
Sm73 O102 2.396 . S
C74 Sm72 2.846 . S
C74 C75 1.506 . S
C74 O92 1.261 . S
C74 O93 1.242 . S
C75 C74 1.506 . S
C75 C76 1.358 . S
C75 C80 1.382 . S
C76 C75 1.358 . S
C76 C77 1.385 . S
C76 H104 0.930 . S
C77 C76 1.385 . S
C77 C78 1.395 . S
C77 H105 0.929 . S
C78 C77 1.395 . S
C78 C79 1.335 . S
C79 C78 1.335 . S
C79 C80 1.398 . S
C79 H106 0.930 . S
C80 C75 1.382 . S
C80 C79 1.398 . S
C80 H107 0.929 . S
C81 O94 1.271 . S
C81 O95 1.251 . S
C82 O96 1.252 . S
C82 O97 1.272 . S
C83 Sm73 2.846 . S
C83 C84 1.506 . S
C83 O98 1.261 . S
C83 O99 1.242 . S
C84 C83 1.506 . S
C84 C85 1.358 . S
C84 C89 1.382 . S
C85 C84 1.358 . S
C85 C86 1.385 . S
C85 H108 0.930 . S
C86 C85 1.385 . S
C86 C87 1.395 . S
C86 H109 0.929 . S
C87 C86 1.395 . S
C87 C88 1.335 . S
C88 C87 1.335 . S
C88 C89 1.398 . S
C88 H110 0.930 . S
C89 C84 1.382 . S
C89 C88 1.398 . S
C89 H111 0.929 . S
C90 O100 1.271 . S
C90 O101 1.251 . S
C91 O102 1.252 . S
C91 O103 1.272 . S
O92 Sm72 2.543 . S
O92 C74 1.261 . S
O93 Sm72 2.450 . S
O93 C74 1.242 . S
O94 Sm72 2.681 1_565 S
O94 Sm73 2.386 1_455 S
O94 C81 1.271 . S
O95 Sm72 2.464 1_565 S
O95 C81 1.251 . S
O96 Sm72 2.396 . S
O96 C82 1.252 . S
O97 Sm73 2.408 1_445 S
O97 C82 1.272 . S
O98 Sm73 2.543 . S
O98 C83 1.261 . S
O99 Sm73 2.450 . S
O99 C83 1.242 . S
O100 Sm72 2.386 1_655 S
O100 Sm73 2.681 1_545 S
O100 C90 1.271 . S
O101 Sm73 2.464 1_545 S
O101 C90 1.251 . S
O102 Sm73 2.396 . S
O102 C91 1.252 . S
O103 Sm72 2.408 1_665 S
O103 C91 1.272 . S
H104 C76 0.930 . S
H105 C77 0.929 . S
H106 C79 0.930 . S
H107 C80 0.929 . S
H108 C85 0.930 . S
H109 C86 0.929 . S
H110 C88 0.930 . S
H111 C89 0.929 . S
Sm112 C114 2.846 1_565 S
Sm112 O132 2.543 1_565 S
Sm112 O133 2.450 1_565 S
Sm112 O134 2.681 . S
Sm112 O135 2.464 . S
Sm112 O136 2.396 1_565 S
Sm112 O140 2.386 1_564 S
Sm112 O143 2.408 1_554 S
Sm113 C123 2.846 1_545 S
Sm113 O134 2.386 1_546 S
Sm113 O137 2.408 1_556 S
Sm113 O138 2.543 1_545 S
Sm113 O139 2.450 1_545 S
Sm113 O140 2.681 . S
Sm113 O141 2.464 . S
Sm113 O142 2.396 1_545 S
C114 Sm112 2.846 1_545 S
C114 C115 1.506 . S
C114 O132 1.261 . S
C114 O133 1.242 . S
C115 C114 1.506 . S
C115 C116 1.358 . S
C115 C120 1.382 . S
C116 C115 1.358 . S
C116 C117 1.385 . S
C116 H144 0.930 . S
C117 C116 1.385 . S
C117 C118 1.395 . S
C117 H145 0.929 . S
C118 C117 1.395 . S
C118 C119 1.335 . S
C119 C118 1.335 . S
C119 C120 1.398 . S
C119 H146 0.930 . S
C120 C115 1.382 . S
C120 C119 1.398 . S
C120 H147 0.929 . S
C121 O134 1.271 . S
C121 O135 1.251 . S
C122 O136 1.252 . S
C122 O137 1.272 . S
C123 Sm113 2.846 1_565 S
C123 C124 1.506 . S
C123 O138 1.261 . S
C123 O139 1.242 . S
C124 C123 1.506 . S
C124 C125 1.358 . S
C124 C129 1.382 . S
C125 C124 1.358 . S
C125 C126 1.385 . S
C125 H148 0.930 . S
C126 C125 1.385 . S
C126 C127 1.395 . S
C126 H149 0.929 . S
C127 C126 1.395 . S
C127 C128 1.335 . S
C128 C127 1.335 . S
C128 C129 1.398 . S
C128 H150 0.930 . S
C129 C124 1.382 . S
C129 C128 1.398 . S
C129 H151 0.929 . S
C130 O140 1.271 . S
C130 O141 1.251 . S
C131 O142 1.252 . S
C131 O143 1.272 . S
O132 Sm112 2.543 1_545 S
O132 C114 1.261 . S
O133 Sm112 2.450 1_545 S
O133 C114 1.242 . S
O134 Sm112 2.681 . S
O134 Sm113 2.386 1_564 S
O134 C121 1.271 . S
O135 Sm112 2.464 . S
O135 C121 1.251 . S
O136 Sm112 2.396 1_545 S
O136 C122 1.252 . S
O137 Sm113 2.408 1_554 S
O137 C122 1.272 . S
O138 Sm113 2.543 1_565 S
O138 C123 1.261 . S
O139 Sm113 2.450 1_565 S
O139 C123 1.242 . S
O140 Sm112 2.386 1_546 S
O140 Sm113 2.681 . S
O140 C130 1.271 . S
O141 Sm113 2.464 . S
O141 C130 1.251 . S
O142 Sm113 2.396 1_565 S
O142 C131 1.252 . S
O143 Sm112 2.408 1_556 S
O143 C131 1.272 . S
H144 C116 0.930 . S
H145 C117 0.929 . S
H146 C119 0.930 . S
H147 C120 0.929 . S
H148 C125 0.930 . S
H149 C126 0.929 . S
H150 C128 0.930 . S
H151 C129 0.929 . S
Sm152 C154 2.846 . S
Sm152 O172 2.543 . S
Sm152 O173 2.450 . S
Sm152 O174 2.681 . S
Sm152 O175 2.464 . S
Sm152 O176 2.396 . S
Sm152 O180 2.386 . S
Sm152 O183 2.408 . S
Sm153 C163 2.846 . S
Sm153 O174 2.386 . S
Sm153 O177 2.408 . S
Sm153 O178 2.543 . S
Sm153 O179 2.450 . S
Sm153 O180 2.681 . S
Sm153 O181 2.464 . S
Sm153 O182 2.396 . S
C154 Sm152 2.846 . S
C154 C155 1.506 . S
C154 O172 1.261 . S
C154 O173 1.242 . S
C155 C154 1.506 . S
C155 C156 1.358 . S
C155 C160 1.382 . S
C156 C155 1.358 . S
C156 C157 1.385 . S
C156 H184 0.930 . S
C157 C156 1.385 . S
C157 C158 1.395 . S
C157 H185 0.929 . S
C158 C157 1.395 . S
C158 C159 1.335 . S
C159 C158 1.335 . S
C159 C160 1.398 . S
C159 H186 0.930 . S
C160 C155 1.382 . S
C160 C159 1.398 . S
C160 H187 0.929 . S
C161 O174 1.271 . S
C161 O175 1.251 . S
C162 O176 1.252 . S
C162 O177 1.272 . S
C163 Sm153 2.846 . S
C163 C164 1.506 . S
C163 O178 1.261 . S
C163 O179 1.242 . S
C164 C163 1.506 . S
C164 C165 1.358 . S
C164 C169 1.382 . S
C165 C164 1.358 . S
C165 C166 1.385 . S
C165 H188 0.930 . S
C166 C165 1.385 . S
C166 C167 1.395 . S
C166 H189 0.929 . S
C167 C166 1.395 . S
C167 C168 1.335 . S
C168 C167 1.335 . S
C168 C169 1.398 . S
C168 H190 0.930 . S
C169 C164 1.382 . S
C169 C168 1.398 . S
C169 H191 0.929 . S
C170 O180 1.271 . S
C170 O181 1.251 . S
C171 O182 1.252 . S
C171 O183 1.272 . S
O172 Sm152 2.543 . S
O172 C154 1.261 . S
O173 Sm152 2.450 . S
O173 C154 1.242 . S
O174 Sm152 2.681 . S
O174 Sm153 2.386 . S
O174 C161 1.271 . S
O175 Sm152 2.464 . S
O175 C161 1.251 . S
O176 Sm152 2.396 . S
O176 C162 1.252 . S
O177 Sm153 2.408 . S
O177 C162 1.272 . S
O178 Sm153 2.543 . S
O178 C163 1.261 . S
O179 Sm153 2.450 . S
O179 C163 1.242 . S
O180 Sm152 2.386 . S
O180 Sm153 2.681 . S
O180 C170 1.271 . S
O181 Sm153 2.464 . S
O181 C170 1.251 . S
O182 Sm153 2.396 . S
O182 C171 1.252 . S
O183 Sm152 2.408 . S
O183 C171 1.272 . S
H184 C156 0.930 . S
H185 C157 0.929 . S
H186 C159 0.930 . S
H187 C160 0.929 . S
H188 C165 0.930 . S
H189 C166 0.929 . S
H190 C168 0.930 . S
H191 C169 0.929 . S
Sm192 C194 2.846 . S
Sm192 O212 2.543 . S
Sm192 O213 2.450 . S
Sm192 O214 2.681 1_455 S
Sm192 O215 2.464 1_455 S
Sm192 O216 2.396 . S
Sm192 O220 2.386 1_554 S
Sm192 O223 2.408 1_454 S
Sm193 C203 2.846 . S
Sm193 O214 2.386 1_556 S
Sm193 O217 2.408 1_656 S
Sm193 O218 2.543 . S
Sm193 O219 2.450 . S
Sm193 O220 2.681 1_655 S
Sm193 O221 2.464 1_655 S
Sm193 O222 2.396 . S
C194 Sm192 2.846 . S
C194 C195 1.506 . S
C194 O212 1.261 . S
C194 O213 1.242 . S
C195 C194 1.506 . S
C195 C196 1.358 . S
C195 C200 1.382 . S
C196 C195 1.358 . S
C196 C197 1.385 . S
C196 H224 0.930 . S
C197 C196 1.385 . S
C197 C198 1.395 . S
C197 H225 0.929 . S
C198 C197 1.395 . S
C198 C199 1.335 . S
C199 C198 1.335 . S
C199 C200 1.398 . S
C199 H226 0.930 . S
C200 C195 1.382 . S
C200 C199 1.398 . S
C200 H227 0.929 . S
C201 O214 1.271 . S
C201 O215 1.251 . S
C202 O216 1.252 . S
C202 O217 1.272 . S
C203 Sm193 2.846 . S
C203 C204 1.506 . S
C203 O218 1.261 . S
C203 O219 1.242 . S
C204 C203 1.506 . S
C204 C205 1.358 . S
C204 C209 1.382 . S
C205 C204 1.358 . S
C205 C206 1.385 . S
C205 H228 0.930 . S
C206 C205 1.385 . S
C206 C207 1.395 . S
C206 H229 0.929 . S
C207 C206 1.395 . S
C207 C208 1.335 . S
C208 C207 1.335 . S
C208 C209 1.398 . S
C208 H230 0.930 . S
C209 C204 1.382 . S
C209 C208 1.398 . S
C209 H231 0.929 . S
C210 O220 1.271 . S
C210 O221 1.251 . S
C211 O222 1.252 . S
C211 O223 1.272 . S
O212 Sm192 2.543 . S
O212 C194 1.261 . S
O213 Sm192 2.450 . S
O213 C194 1.242 . S
O214 Sm192 2.681 1_655 S
O214 Sm193 2.386 1_554 S
O214 C201 1.271 . S
O215 Sm192 2.464 1_655 S
O215 C201 1.251 . S
O216 Sm192 2.396 . S
O216 C202 1.252 . S
O217 Sm193 2.408 1_454 S
O217 C202 1.272 . S
O218 Sm193 2.543 . S
O218 C203 1.261 . S
O219 Sm193 2.450 . S
O219 C203 1.242 . S
O220 Sm192 2.386 1_556 S
O220 Sm193 2.681 1_455 S
O220 C210 1.271 . S
O221 Sm193 2.464 1_455 S
O221 C210 1.251 . S
O222 Sm193 2.396 . S
O222 C211 1.252 . S
O223 Sm192 2.408 1_656 S
O223 C211 1.272 . S
H224 C196 0.930 . S
H225 C197 0.929 . S
H226 C199 0.930 . S
H227 C200 0.929 . S
H228 C205 0.930 . S
H229 C206 0.929 . S
H230 C208 0.930 . S
H231 C209 0.929 . S
C232 C233 1.391 . S
C232 C234 1.394 . S
C232 H248 0.931 . S
C233 C232 1.391 . S
C233 C237 1.376 . S
C234 C232 1.394 . S
C234 C235 1.369 . S
C234 C238 1.531 . S
C235 C234 1.369 . S
C235 C236 1.410 . S
C235 C243 1.503 . S
C236 C235 1.410 . S
C236 C237 1.392 . S
C236 C239 1.511 . S
C237 C233 1.376 . S
C237 C236 1.392 . S
C237 H249 0.929 . S
C238 C234 1.531 . S
C238 H250 0.960 . S
C238 H251 0.962 . S
C238 H252 0.960 . S
C239 C236 1.511 . S
C239 H253 0.961 . S
C239 H254 0.961 . S
C239 H255 0.961 . S
C240 C241 1.370 . S
C240 C242 1.363 . S
C240 H256 0.931 . S
C241 C240 1.370 . S
C241 C245 1.408 . S
C242 C240 1.363 . S
C242 C243 1.370 . S
C242 C246 1.524 . S
C243 C235 1.503 . S
C243 C242 1.370 . S
C243 C244 1.403 . S
C244 C243 1.403 . S
C244 C245 1.404 . S
C244 C247 1.539 . S
C245 C241 1.408 . S
C245 C244 1.404 . S
C245 H257 0.930 . S
C246 C242 1.524 . S
C246 H258 0.956 . S
C246 H259 0.961 . S
C246 H260 0.961 . S
C247 C244 1.539 . S
C247 H261 0.958 . S
C247 H262 0.961 . S
C247 H263 0.960 . S
H248 C232 0.931 . S
H249 C237 0.929 . S
H250 C238 0.960 . S
H251 C238 0.962 . S
H252 C238 0.960 . S
H253 C239 0.961 . S
H254 C239 0.961 . S
H255 C239 0.961 . S
H256 C240 0.931 . S
H257 C245 0.930 . S
H258 C246 0.956 . S
H259 C246 0.961 . S
H260 C246 0.961 . S
H261 C247 0.958 . S
H262 C247 0.961 . S
H263 C247 0.960 . S
C264 C265 1.391 . S
C264 C266 1.394 . S
C264 H280 0.931 . S
C265 C264 1.391 . S
C265 C269 1.376 . S
C266 C264 1.394 . S
C266 C267 1.369 . S
C266 C270 1.531 . S
C267 C266 1.369 . S
C267 C268 1.410 . S
C267 C275 1.503 . S
C268 C267 1.410 . S
C268 C269 1.392 . S
C268 C271 1.511 . S
C269 C265 1.376 . S
C269 C268 1.392 . S
C269 H281 0.929 . S
C270 C266 1.531 . S
C270 H282 0.960 . S
C270 H283 0.962 . S
C270 H284 0.960 . S
C271 C268 1.511 . S
C271 H285 0.961 . S
C271 H286 0.961 . S
C271 H287 0.961 . S
C272 C273 1.370 . S
C272 C274 1.363 . S
C272 H288 0.931 . S
C273 C272 1.370 . S
C273 C277 1.408 . S
C274 C272 1.363 . S
C274 C275 1.370 . S
C274 C278 1.524 . S
C275 C267 1.503 . S
C275 C274 1.370 . S
C275 C276 1.403 . S
C276 C275 1.403 . S
C276 C277 1.404 . S
C276 C279 1.539 . S
C277 C273 1.408 . S
C277 C276 1.404 . S
C277 H289 0.930 . S
C278 C274 1.524 . S
C278 H290 0.956 . S
C278 H291 0.961 . S
C278 H292 0.961 . S
C279 C276 1.539 . S
C279 H293 0.958 . S
C279 H294 0.961 . S
C279 H295 0.960 . S
H280 C264 0.931 . S
H281 C269 0.929 . S
H282 C270 0.960 . S
H283 C270 0.962 . S
H284 C270 0.960 . S
H285 C271 0.961 . S
H286 C271 0.961 . S
H287 C271 0.961 . S
H288 C272 0.931 . S
H289 C277 0.930 . S
H290 C278 0.956 . S
H291 C278 0.961 . S
H292 C278 0.961 . S
H293 C279 0.958 . S
H294 C279 0.961 . S
H295 C279 0.960 . S
C296 C297 1.391 . S
C296 C298 1.394 . S
C296 H312 0.931 . S
C297 C296 1.391 . S
C297 C301 1.376 . S
C298 C296 1.394 . S
C298 C299 1.369 . S
C298 C302 1.531 . S
C299 C298 1.369 . S
C299 C300 1.410 . S
C299 C307 1.503 . S
C300 C299 1.410 . S
C300 C301 1.392 . S
C300 C303 1.511 . S
C301 C297 1.376 . S
C301 C300 1.392 . S
C301 H313 0.929 . S
C302 C298 1.531 . S
C302 H314 0.960 . S
C302 H315 0.962 . S
C302 H316 0.960 . S
C303 C300 1.511 . S
C303 H317 0.961 . S
C303 H318 0.961 . S
C303 H319 0.961 . S
C304 C305 1.370 . S
C304 C306 1.363 . S
C304 H320 0.931 . S
C305 C304 1.370 . S
C305 C309 1.408 . S
C306 C304 1.363 . S
C306 C307 1.370 . S
C306 C310 1.524 . S
C307 C299 1.503 . S
C307 C306 1.370 . S
C307 C308 1.403 . S
C308 C307 1.403 . S
C308 C309 1.404 . S
C308 C311 1.539 . S
C309 C305 1.408 . S
C309 C308 1.404 . S
C309 H321 0.930 . S
C310 C306 1.524 . S
C310 H322 0.956 . S
C310 H323 0.961 . S
C310 H324 0.961 . S
C311 C308 1.539 . S
C311 H325 0.958 . S
C311 H326 0.961 . S
C311 H327 0.960 . S
H312 C296 0.931 . S
H313 C301 0.929 . S
H314 C302 0.960 . S
H315 C302 0.962 . S
H316 C302 0.960 . S
H317 C303 0.961 . S
H318 C303 0.961 . S
H319 C303 0.961 . S
H320 C304 0.931 . S
H321 C309 0.930 . S
H322 C310 0.956 . S
H323 C310 0.961 . S
H324 C310 0.961 . S
H325 C311 0.958 . S
H326 C311 0.961 . S
H327 C311 0.960 . S
C328 C329 1.391 . S
C328 C330 1.394 . S
C328 H344 0.931 . S
C329 C328 1.391 . S
C329 C333 1.376 . S
C330 C328 1.394 . S
C330 C331 1.369 . S
C330 C334 1.531 . S
C331 C330 1.369 . S
C331 C332 1.410 . S
C331 C339 1.503 . S
C332 C331 1.410 . S
C332 C333 1.392 . S
C332 C335 1.511 . S
C333 C329 1.376 . S
C333 C332 1.392 . S
C333 H345 0.929 . S
C334 C330 1.531 . S
C334 H346 0.960 . S
C334 H347 0.962 . S
C334 H348 0.960 . S
C335 C332 1.511 . S
C335 H349 0.961 . S
C335 H350 0.961 . S
C335 H351 0.961 . S
C336 C337 1.370 . S
C336 C338 1.363 . S
C336 H352 0.931 . S
C337 C336 1.370 . S
C337 C341 1.408 . S
C338 C336 1.363 . S
C338 C339 1.370 . S
C338 C342 1.524 . S
C339 C331 1.503 . S
C339 C338 1.370 . S
C339 C340 1.403 . S
C340 C339 1.403 . S
C340 C341 1.404 . S
C340 C343 1.539 . S
C341 C337 1.408 . S
C341 C340 1.404 . S
C341 H353 0.930 . S
C342 C338 1.524 . S
C342 H354 0.956 . S
C342 H355 0.961 . S
C342 H356 0.961 . S
C343 C340 1.539 . S
C343 H357 0.958 . S
C343 H358 0.961 . S
C343 H359 0.960 . S
H344 C328 0.931 . S
H345 C333 0.929 . S
H346 C334 0.960 . S
H347 C334 0.962 . S
H348 C334 0.960 . S
H349 C335 0.961 . S
H350 C335 0.961 . S
H351 C335 0.961 . S
H352 C336 0.931 . S
H353 C341 0.930 . S
H354 C342 0.956 . S
H355 C342 0.961 . S
H356 C342 0.961 . S
H357 C343 0.958 . S
H358 C343 0.961 . S
H359 C343 0.960 . S
C360 C361 1.391 . S
C360 C362 1.394 . S
C360 H376 0.931 . S
C361 C360 1.391 . S
C361 C365 1.376 . S
C362 C360 1.394 . S
C362 C363 1.369 . S
C362 C366 1.531 . S
C363 C362 1.369 . S
C363 C364 1.410 . S
C363 C371 1.503 . S
C364 C363 1.410 . S
C364 C365 1.392 . S
C364 C367 1.511 . S
C365 C361 1.376 . S
C365 C364 1.392 . S
C365 H377 0.929 . S
C366 C362 1.531 . S
C366 H378 0.960 . S
C366 H379 0.962 . S
C366 H380 0.960 . S
C367 C364 1.511 . S
C367 H381 0.961 . S
C367 H382 0.961 . S
C367 H383 0.961 . S
C368 C369 1.370 . S
C368 C370 1.363 . S
C368 H384 0.931 . S
C369 C368 1.370 . S
C369 C373 1.408 . S
C370 C368 1.363 . S
C370 C371 1.370 . S
C370 C374 1.524 . S
C371 C363 1.503 . S
C371 C370 1.370 . S
C371 C372 1.403 . S
C372 C371 1.403 . S
C372 C373 1.404 . S
C372 C375 1.539 . S
C373 C369 1.408 . S
C373 C372 1.404 . S
C373 H385 0.930 . S
C374 C370 1.524 . S
C374 H386 0.956 . S
C374 H387 0.961 . S
C374 H388 0.961 . S
C375 C372 1.539 . S
C375 H389 0.958 . S
C375 H390 0.961 . S
C375 H391 0.960 . S
H376 C360 0.931 . S
H377 C365 0.929 . S
H378 C366 0.960 . S
H379 C366 0.962 . S
H380 C366 0.960 . S
H381 C367 0.961 . S
H382 C367 0.961 . S
H383 C367 0.961 . S
H384 C368 0.931 . S
H385 C373 0.930 . S
H386 C374 0.956 . S
H387 C374 0.961 . S
H388 C374 0.961 . S
H389 C375 0.958 . S
H390 C375 0.961 . S
H391 C375 0.960 . S
C392 C393 1.391 . S
C392 C394 1.394 . S
C392 H408 0.931 . S
C393 C392 1.391 . S
C393 C397 1.376 . S
C394 C392 1.394 . S
C394 C395 1.369 . S
C394 C398 1.531 . S
C395 C394 1.369 . S
C395 C396 1.410 . S
C395 C403 1.503 . S
C396 C395 1.410 . S
C396 C397 1.392 . S
C396 C399 1.511 . S
C397 C393 1.376 . S
C397 C396 1.392 . S
C397 H409 0.929 . S
C398 C394 1.531 . S
C398 H410 0.960 . S
C398 H411 0.962 . S
C398 H412 0.960 . S
C399 C396 1.511 . S
C399 H413 0.961 . S
C399 H414 0.961 . S
C399 H415 0.961 . S
C400 C401 1.370 . S
C400 C402 1.363 . S
C400 H416 0.931 . S
C401 C400 1.370 . S
C401 C405 1.408 . S
C402 C400 1.363 . S
C402 C403 1.370 . S
C402 C406 1.524 . S
C403 C395 1.503 . S
C403 C402 1.370 . S
C403 C404 1.403 . S
C404 C403 1.403 . S
C404 C405 1.404 . S
C404 C407 1.539 . S
C405 C401 1.408 . S
C405 C404 1.404 . S
C405 H417 0.930 . S
C406 C402 1.524 . S
C406 H418 0.956 . S
C406 H419 0.961 . S
C406 H420 0.961 . S
C407 C404 1.539 . S
C407 H421 0.958 . S
C407 H422 0.961 . S
C407 H423 0.960 . S
H408 C392 0.931 . S
H409 C397 0.929 . S
H410 C398 0.960 . S
H411 C398 0.962 . S
H412 C398 0.960 . S
H413 C399 0.961 . S
H414 C399 0.961 . S
H415 C399 0.961 . S
H416 C400 0.931 . S
H417 C405 0.930 . S
H418 C406 0.956 . S
H419 C406 0.961 . S
H420 C406 0.961 . S
H421 C407 0.958 . S
H422 C407 0.961 . S
H423 C407 0.960 . S
C424 C425 1.391 . S
C424 C426 1.394 . S
C424 H440 0.931 . S
C425 C424 1.391 . S
C425 C429 1.376 . S
C426 C424 1.394 . S
C426 C427 1.369 . S
C426 C430 1.531 . S
C427 C426 1.369 . S
C427 C428 1.410 . S
C427 C435 1.503 . S
C428 C427 1.410 . S
C428 C429 1.392 . S
C428 C431 1.511 . S
C429 C425 1.376 . S
C429 C428 1.392 . S
C429 H441 0.929 . S
C430 C426 1.531 . S
C430 H442 0.960 . S
C430 H443 0.962 . S
C430 H444 0.960 . S
C431 C428 1.511 . S
C431 H445 0.961 . S
C431 H446 0.961 . S
C431 H447 0.961 . S
C432 C433 1.370 . S
C432 C434 1.363 . S
C432 H448 0.931 . S
C433 C432 1.370 . S
C433 C437 1.408 . S
C434 C432 1.363 . S
C434 C435 1.370 . S
C434 C438 1.524 . S
C435 C427 1.503 . S
C435 C434 1.370 . S
C435 C436 1.403 . S
C436 C435 1.403 . S
C436 C437 1.404 . S
C436 C439 1.539 . S
C437 C433 1.408 . S
C437 C436 1.404 . S
C437 H449 0.930 . S
C438 C434 1.524 . S
C438 H450 0.956 . S
C438 H451 0.961 . S
C438 H452 0.961 . S
C439 C436 1.539 . S
C439 H453 0.958 . S
C439 H454 0.961 . S
C439 H455 0.960 . S
H440 C424 0.931 . S
H441 C429 0.929 . S
H442 C430 0.960 . S
H443 C430 0.962 . S
H444 C430 0.960 . S
H445 C431 0.961 . S
H446 C431 0.961 . S
H447 C431 0.961 . S
H448 C432 0.931 . S
H449 C437 0.930 . S
H450 C438 0.956 . S
H451 C438 0.961 . S
H452 C438 0.961 . S
H453 C439 0.958 . S
H454 C439 0.961 . S
H455 C439 0.960 . S
C456 C457 1.391 . S
C456 C458 1.394 . S
C456 H472 0.931 . S
C457 C456 1.391 . S
C457 C461 1.376 . S
C458 C456 1.394 . S
C458 C459 1.369 . S
C458 C462 1.531 . S
C459 C458 1.369 . S
C459 C460 1.410 . S
C459 C467 1.503 . S
C460 C459 1.410 . S
C460 C461 1.392 . S
C460 C463 1.511 . S
C461 C457 1.376 . S
C461 C460 1.392 . S
C461 H473 0.929 . S
C462 C458 1.531 . S
C462 H474 0.960 . S
C462 H475 0.962 . S
C462 H476 0.960 . S
C463 C460 1.511 . S
C463 H477 0.961 . S
C463 H478 0.961 . S
C463 H479 0.961 . S
C464 C465 1.370 . S
C464 C466 1.363 . S
C464 H480 0.931 . S
C465 C464 1.370 . S
C465 C469 1.408 . S
C466 C464 1.363 . S
C466 C467 1.370 . S
C466 C470 1.524 . S
C467 C459 1.503 . S
C467 C466 1.370 . S
C467 C468 1.403 . S
C468 C467 1.403 . S
C468 C469 1.404 . S
C468 C471 1.539 . S
C469 C465 1.408 . S
C469 C468 1.404 . S
C469 H481 0.930 . S
C470 C466 1.524 . S
C470 H482 0.956 . S
C470 H483 0.961 . S
C470 H484 0.961 . S
C471 C468 1.539 . S
C471 H485 0.958 . S
C471 H486 0.961 . S
C471 H487 0.960 . S
H472 C456 0.931 . S
H473 C461 0.929 . S
H474 C462 0.960 . S
H475 C462 0.962 . S
H476 C462 0.960 . S
H477 C463 0.961 . S
H478 C463 0.961 . S
H479 C463 0.961 . S
H480 C464 0.931 . S
H481 C469 0.930 . S
H482 C470 0.956 . S
H483 C470 0.961 . S
H484 C470 0.961 . S
H485 C471 0.958 . S
H486 C471 0.961 . S
H487 C471 0.960 . S
C488 C489 1.391 . S
C488 C490 1.394 . S
C488 H504 0.931 . S
C489 C488 1.391 . S
C489 C493 1.376 . S
C490 C488 1.394 . S
C490 C491 1.369 . S
C490 C494 1.531 . S
C491 C490 1.369 . S
C491 C492 1.410 . S
C491 C499 1.503 . S
C492 C491 1.410 . S
C492 C493 1.392 . S
C492 C495 1.511 . S
C493 C489 1.376 . S
C493 C492 1.392 . S
C493 H505 0.929 . S
C494 C490 1.531 . S
C494 H506 0.960 . S
C494 H507 0.962 . S
C494 H508 0.960 . S
C495 C492 1.511 . S
C495 H509 0.961 . S
C495 H510 0.961 . S
C495 H511 0.961 . S
C496 C497 1.370 . S
C496 C498 1.363 . S
C496 H512 0.931 . S
C497 C496 1.370 . S
C497 C501 1.408 . S
C498 C496 1.363 . S
C498 C499 1.370 . S
C498 C502 1.524 . S
C499 C491 1.503 . S
C499 C498 1.370 . S
C499 C500 1.403 . S
C500 C499 1.403 . S
C500 C501 1.404 . S
C500 C503 1.539 . S
C501 C497 1.408 . S
C501 C500 1.404 . S
C501 H513 0.930 . S
C502 C498 1.524 . S
C502 H514 0.956 . S
C502 H515 0.961 . S
C502 H516 0.961 . S
C503 C500 1.539 . S
C503 H517 0.958 . S
C503 H518 0.961 . S
C503 H519 0.960 . S
H504 C488 0.931 . S
H505 C493 0.929 . S
H506 C494 0.960 . S
H507 C494 0.962 . S
H508 C494 0.960 . S
H509 C495 0.961 . S
H510 C495 0.961 . S
H511 C495 0.961 . S
H512 C496 0.931 . S
H513 C501 0.930 . S
H514 C502 0.956 . S
H515 C502 0.961 . S
H516 C502 0.961 . S
H517 C503 0.958 . S
H518 C503 0.961 . S
H519 C503 0.960 . S
C520 C521 1.391 . S
C520 C522 1.394 . S
C520 H536 0.931 . S
C521 C520 1.391 . S
C521 C525 1.376 . S
C522 C520 1.394 . S
C522 C523 1.369 . S
C522 C526 1.531 . S
C523 C522 1.369 . S
C523 C524 1.410 . S
C523 C531 1.503 . S
C524 C523 1.410 . S
C524 C525 1.392 . S
C524 C527 1.511 . S
C525 C521 1.376 . S
C525 C524 1.392 . S
C525 H537 0.929 . S
C526 C522 1.531 . S
C526 H538 0.960 . S
C526 H539 0.962 . S
C526 H540 0.960 . S
C527 C524 1.511 . S
C527 H541 0.961 . S
C527 H542 0.961 . S
C527 H543 0.961 . S
C528 C529 1.370 . S
C528 C530 1.363 . S
C528 H544 0.931 . S
C529 C528 1.370 . S
C529 C533 1.408 . S
C530 C528 1.363 . S
C530 C531 1.370 . S
C530 C534 1.524 . S
C531 C523 1.503 . S
C531 C530 1.370 . S
C531 C532 1.403 . S
C532 C531 1.403 . S
C532 C533 1.404 . S
C532 C535 1.539 . S
C533 C529 1.408 . S
C533 C532 1.404 . S
C533 H545 0.930 . S
C534 C530 1.524 . S
C534 H546 0.956 . S
C534 H547 0.961 . S
C534 H548 0.961 . S
C535 C532 1.539 . S
C535 H549 0.958 . S
C535 H550 0.961 . S
C535 H551 0.960 . S
H536 C520 0.931 . S
H537 C525 0.929 . S
H538 C526 0.960 . S
H539 C526 0.962 . S
H540 C526 0.960 . S
H541 C527 0.961 . S
H542 C527 0.961 . S
H543 C527 0.961 . S
H544 C528 0.931 . S
H545 C533 0.930 . S
H546 C534 0.956 . S
H547 C534 0.961 . S
H548 C534 0.961 . S
H549 C535 0.958 . S
H550 C535 0.961 . S
H551 C535 0.960 . S
C552 C553 1.391 . S
C552 C554 1.394 . S
C552 H568 0.931 . S
C553 C552 1.391 . S
C553 C557 1.376 . S
C554 C552 1.394 . S
C554 C555 1.369 . S
C554 C558 1.531 . S
C555 C554 1.369 . S
C555 C556 1.410 . S
C555 C563 1.503 . S
C556 C555 1.410 . S
C556 C557 1.392 . S
C556 C559 1.511 . S
C557 C553 1.376 . S
C557 C556 1.392 . S
C557 H569 0.929 . S
C558 C554 1.531 . S
C558 H570 0.960 . S
C558 H571 0.962 . S
C558 H572 0.960 . S
C559 C556 1.511 . S
C559 H573 0.961 . S
C559 H574 0.961 . S
C559 H575 0.961 . S
C560 C561 1.370 . S
C560 C562 1.363 . S
C560 H576 0.931 . S
C561 C560 1.370 . S
C561 C565 1.408 . S
C562 C560 1.363 . S
C562 C563 1.370 . S
C562 C566 1.524 . S
C563 C555 1.503 . S
C563 C562 1.370 . S
C563 C564 1.403 . S
C564 C563 1.403 . S
C564 C565 1.404 . S
C564 C567 1.539 . S
C565 C561 1.408 . S
C565 C564 1.404 . S
C565 H577 0.930 . S
C566 C562 1.524 . S
C566 H578 0.956 . S
C566 H579 0.961 . S
C566 H580 0.961 . S
C567 C564 1.539 . S
C567 H581 0.958 . S
C567 H582 0.961 . S
C567 H583 0.960 . S
H568 C552 0.931 . S
H569 C557 0.929 . S
H570 C558 0.960 . S
H571 C558 0.962 . S
H572 C558 0.960 . S
H573 C559 0.961 . S
H574 C559 0.961 . S
H575 C559 0.961 . S
H576 C560 0.931 . S
H577 C565 0.930 . S
H578 C566 0.956 . S
H579 C566 0.961 . S
H580 C566 0.961 . S
H581 C567 0.958 . S
H582 C567 0.961 . S
H583 C567 0.960 . S
C584 C585 1.391 . S
C584 C586 1.394 . S
C584 H600 0.931 . S
C585 C584 1.391 . S
C585 C589 1.376 . S
C586 C584 1.394 . S
C586 C587 1.369 . S
C586 C590 1.531 . S
C587 C586 1.369 . S
C587 C588 1.410 . S
C587 C595 1.503 . S
C588 C587 1.410 . S
C588 C589 1.392 . S
C588 C591 1.511 . S
C589 C585 1.376 . S
C589 C588 1.392 . S
C589 H601 0.929 . S
C590 C586 1.531 . S
C590 H602 0.960 . S
C590 H603 0.962 . S
C590 H604 0.960 . S
C591 C588 1.511 . S
C591 H605 0.961 . S
C591 H606 0.961 . S
C591 H607 0.961 . S
C592 C593 1.370 . S
C592 C594 1.363 . S
C592 H608 0.931 . S
C593 C592 1.370 . S
C593 C597 1.408 . S
C594 C592 1.363 . S
C594 C595 1.370 . S
C594 C598 1.524 . S
C595 C587 1.503 . S
C595 C594 1.370 . S
C595 C596 1.403 . S
C596 C595 1.403 . S
C596 C597 1.404 . S
C596 C599 1.539 . S
C597 C593 1.408 . S
C597 C596 1.404 . S
C597 H609 0.930 . S
C598 C594 1.524 . S
C598 H610 0.956 . S
C598 H611 0.961 . S
C598 H612 0.961 . S
C599 C596 1.539 . S
C599 H613 0.958 . S
C599 H614 0.961 . S
C599 H615 0.960 . S
H600 C584 0.931 . S
H601 C589 0.929 . S
H602 C590 0.960 . S
H603 C590 0.962 . S
H604 C590 0.960 . S
H605 C591 0.961 . S
H606 C591 0.961 . S
H607 C591 0.961 . S
H608 C592 0.931 . S
H609 C597 0.930 . S
H610 C598 0.956 . S
H611 C598 0.961 . S
H612 C598 0.961 . S
H613 C599 0.958 . S
H614 C599 0.961 . S
H615 C599 0.960 . S
C616 C617 1.391 . S
C616 C618 1.394 . S
C616 H632 0.931 . S
C617 C616 1.391 . S
C617 C621 1.376 . S
C618 C616 1.394 . S
C618 C619 1.369 . S
C618 C622 1.531 . S
C619 C618 1.369 . S
C619 C620 1.410 . S
C619 C627 1.503 . S
C620 C619 1.410 . S
C620 C621 1.392 . S
C620 C623 1.511 . S
C621 C617 1.376 . S
C621 C620 1.392 . S
C621 H633 0.929 . S
C622 C618 1.531 . S
C622 H634 0.960 . S
C622 H635 0.962 . S
C622 H636 0.960 . S
C623 C620 1.511 . S
C623 H637 0.961 . S
C623 H638 0.961 . S
C623 H639 0.961 . S
C624 C625 1.370 . S
C624 C626 1.363 . S
C624 H640 0.931 . S
C625 C624 1.370 . S
C625 C629 1.408 . S
C626 C624 1.363 . S
C626 C627 1.370 . S
C626 C630 1.524 . S
C627 C619 1.503 . S
C627 C626 1.370 . S
C627 C628 1.403 . S
C628 C627 1.403 . S
C628 C629 1.404 . S
C628 C631 1.539 . S
C629 C625 1.408 . S
C629 C628 1.404 . S
C629 H641 0.930 . S
C630 C626 1.524 . S
C630 H642 0.956 . S
C630 H643 0.961 . S
C630 H644 0.961 . S
C631 C628 1.539 . S
C631 H645 0.958 . S
C631 H646 0.961 . S
C631 H647 0.960 . S
H632 C616 0.931 . S
H633 C621 0.929 . S
H634 C622 0.960 . S
H635 C622 0.962 . S
H636 C622 0.960 . S
H637 C623 0.961 . S
H638 C623 0.961 . S
H639 C623 0.961 . S
H640 C624 0.931 . S
H641 C629 0.930 . S
H642 C630 0.956 . S
H643 C630 0.961 . S
H644 C630 0.961 . S
H645 C631 0.958 . S
H646 C631 0.961 . S
H647 C631 0.960 . S
C648 C649 1.391 . S
C648 C650 1.394 . S
C648 H664 0.931 . S
C649 C648 1.391 . S
C649 C653 1.376 . S
C650 C648 1.394 . S
C650 C651 1.369 . S
C650 C654 1.531 . S
C651 C650 1.369 . S
C651 C652 1.410 . S
C651 C659 1.503 . S
C652 C651 1.410 . S
C652 C653 1.392 . S
C652 C655 1.511 . S
C653 C649 1.376 . S
C653 C652 1.392 . S
C653 H665 0.929 . S
C654 C650 1.531 . S
C654 H666 0.960 . S
C654 H667 0.962 . S
C654 H668 0.960 . S
C655 C652 1.511 . S
C655 H669 0.961 . S
C655 H670 0.961 . S
C655 H671 0.961 . S
C656 C657 1.370 . S
C656 C658 1.363 . S
C656 H672 0.931 . S
C657 C656 1.370 . S
C657 C661 1.408 . S
C658 C656 1.363 . S
C658 C659 1.370 . S
C658 C662 1.524 . S
C659 C651 1.503 . S
C659 C658 1.370 . S
C659 C660 1.403 . S
C660 C659 1.403 . S
C660 C661 1.404 . S
C660 C663 1.539 . S
C661 C657 1.408 . S
C661 C660 1.404 . S
C661 H673 0.930 . S
C662 C658 1.524 . S
C662 H674 0.956 . S
C662 H675 0.961 . S
C662 H676 0.961 . S
C663 C660 1.539 . S
C663 H677 0.958 . S
C663 H678 0.961 . S
C663 H679 0.960 . S
H664 C648 0.931 . S
H665 C653 0.929 . S
H666 C654 0.960 . S
H667 C654 0.962 . S
H668 C654 0.960 . S
H669 C655 0.961 . S
H670 C655 0.961 . S
H671 C655 0.961 . S
H672 C656 0.931 . S
H673 C661 0.930 . S
H674 C662 0.956 . S
H675 C662 0.961 . S
H676 C662 0.961 . S
H677 C663 0.958 . S
H678 C663 0.961 . S
H679 C663 0.960 . S
C680 C681 1.391 . S
C680 C682 1.394 . S
C680 H696 0.931 . S
C681 C680 1.391 . S
C681 C685 1.376 . S
C682 C680 1.394 . S
C682 C683 1.369 . S
C682 C686 1.531 . S
C683 C682 1.369 . S
C683 C684 1.410 . S
C683 C691 1.503 . S
C684 C683 1.410 . S
C684 C685 1.392 . S
C684 C687 1.511 . S
C685 C681 1.376 . S
C685 C684 1.392 . S
C685 H697 0.929 . S
C686 C682 1.531 . S
C686 H698 0.960 . S
C686 H699 0.962 . S
C686 H700 0.960 . S
C687 C684 1.511 . S
C687 H701 0.961 . S
C687 H702 0.961 . S
C687 H703 0.961 . S
C688 C689 1.370 . S
C688 C690 1.363 . S
C688 H704 0.931 . S
C689 C688 1.370 . S
C689 C693 1.408 . S
C690 C688 1.363 . S
C690 C691 1.370 . S
C690 C694 1.524 . S
C691 C683 1.503 . S
C691 C690 1.370 . S
C691 C692 1.403 . S
C692 C691 1.403 . S
C692 C693 1.404 . S
C692 C695 1.539 . S
C693 C689 1.408 . S
C693 C692 1.404 . S
C693 H705 0.930 . S
C694 C690 1.524 . S
C694 H706 0.956 . S
C694 H707 0.961 . S
C694 H708 0.961 . S
C695 C692 1.539 . S
C695 H709 0.958 . S
C695 H710 0.961 . S
C695 H711 0.960 . S
H696 C680 0.931 . S
H697 C685 0.929 . S
H698 C686 0.960 . S
H699 C686 0.962 . S
H700 C686 0.960 . S
H701 C687 0.961 . S
H702 C687 0.961 . S
H703 C687 0.961 . S
H704 C688 0.931 . S
H705 C693 0.930 . S
H706 C694 0.956 . S
H707 C694 0.961 . S
H708 C694 0.961 . S
H709 C695 0.958 . S
H710 C695 0.961 . S
H711 C695 0.960 . S
C712 C713 1.391 . S
C712 C714 1.394 . S
C712 H728 0.931 . S
C713 C712 1.391 . S
C713 C717 1.376 . S
C714 C712 1.394 . S
C714 C715 1.369 . S
C714 C718 1.531 . S
C715 C714 1.369 . S
C715 C716 1.410 . S
C715 C723 1.503 . S
C716 C715 1.410 . S
C716 C717 1.392 . S
C716 C719 1.511 . S
C717 C713 1.376 . S
C717 C716 1.392 . S
C717 H729 0.929 . S
C718 C714 1.531 . S
C718 H730 0.960 . S
C718 H731 0.962 . S
C718 H732 0.960 . S
C719 C716 1.511 . S
C719 H733 0.961 . S
C719 H734 0.961 . S
C719 H735 0.961 . S
C720 C721 1.370 . S
C720 C722 1.363 . S
C720 H736 0.931 . S
C721 C720 1.370 . S
C721 C725 1.408 . S
C722 C720 1.363 . S
C722 C723 1.370 . S
C722 C726 1.524 . S
C723 C715 1.503 . S
C723 C722 1.370 . S
C723 C724 1.403 . S
C724 C723 1.403 . S
C724 C725 1.404 . S
C724 C727 1.539 . S
C725 C721 1.408 . S
C725 C724 1.404 . S
C725 H737 0.930 . S
C726 C722 1.524 . S
C726 H738 0.956 . S
C726 H739 0.961 . S
C726 H740 0.961 . S
C727 C724 1.539 . S
C727 H741 0.958 . S
C727 H742 0.961 . S
C727 H743 0.960 . S
H728 C712 0.931 . S
H729 C717 0.929 . S
H730 C718 0.960 . S
H731 C718 0.962 . S
H732 C718 0.960 . S
H733 C719 0.961 . S
H734 C719 0.961 . S
H735 C719 0.961 . S
H736 C720 0.931 . S
H737 C725 0.930 . S
H738 C726 0.956 . S
H739 C726 0.961 . S
H740 C726 0.961 . S
H741 C727 0.958 . S
H742 C727 0.961 . S
H743 C727 0.960 . S
C744 C745 1.391 . S
C744 C746 1.394 . S
C744 H760 0.931 . S
C745 C744 1.391 . S
C745 C749 1.376 . S
C746 C744 1.394 . S
C746 C747 1.369 . S
C746 C750 1.531 . S
C747 C746 1.369 . S
C747 C748 1.410 . S
C747 C755 1.503 . S
C748 C747 1.410 . S
C748 C749 1.392 . S
C748 C751 1.511 . S
C749 C745 1.376 . S
C749 C748 1.392 . S
C749 H761 0.929 . S
C750 C746 1.531 . S
C750 H762 0.960 . S
C750 H763 0.962 . S
C750 H764 0.960 . S
C751 C748 1.511 . S
C751 H765 0.961 . S
C751 H766 0.961 . S
C751 H767 0.961 . S
C752 C753 1.370 . S
C752 C754 1.363 . S
C752 H768 0.931 . S
C753 C752 1.370 . S
C753 C757 1.408 . S
C754 C752 1.363 . S
C754 C755 1.370 . S
C754 C758 1.524 . S
C755 C747 1.503 . S
C755 C754 1.370 . S
C755 C756 1.403 . S
C756 C755 1.403 . S
C756 C757 1.404 . S
C756 C759 1.539 . S
C757 C753 1.408 . S
C757 C756 1.404 . S
C757 H769 0.930 . S
C758 C754 1.524 . S
C758 H770 0.956 . S
C758 H771 0.961 . S
C758 H772 0.961 . S
C759 C756 1.539 . S
C759 H773 0.958 . S
C759 H774 0.961 . S
C759 H775 0.960 . S
H760 C744 0.931 . S
H761 C749 0.929 . S
H762 C750 0.960 . S
H763 C750 0.962 . S
H764 C750 0.960 . S
H765 C751 0.961 . S
H766 C751 0.961 . S
H767 C751 0.961 . S
H768 C752 0.931 . S
H769 C757 0.930 . S
H770 C758 0.956 . S
H771 C758 0.961 . S
H772 C758 0.961 . S
H773 C759 0.958 . S
H774 C759 0.961 . S
H775 C759 0.960 . S
C776 C777 1.391 . S
C776 C778 1.394 . S
C776 H792 0.931 . S
C777 C776 1.391 . S
C777 C781 1.376 . S
C778 C776 1.394 . S
C778 C779 1.369 . S
C778 C782 1.531 . S
C779 C778 1.369 . S
C779 C780 1.410 . S
C779 C787 1.503 . S
C780 C779 1.410 . S
C780 C781 1.392 . S
C780 C783 1.511 . S
C781 C777 1.376 . S
C781 C780 1.392 . S
C781 H793 0.929 . S
C782 C778 1.531 . S
C782 H794 0.960 . S
C782 H795 0.962 . S
C782 H796 0.960 . S
C783 C780 1.511 . S
C783 H797 0.961 . S
C783 H798 0.961 . S
C783 H799 0.961 . S
C784 C785 1.370 . S
C784 C786 1.363 . S
C784 H800 0.931 . S
C785 C784 1.370 . S
C785 C789 1.408 . S
C786 C784 1.363 . S
C786 C787 1.370 . S
C786 C790 1.524 . S
C787 C779 1.503 . S
C787 C786 1.370 . S
C787 C788 1.403 . S
C788 C787 1.403 . S
C788 C789 1.404 . S
C788 C791 1.539 . S
C789 C785 1.408 . S
C789 C788 1.404 . S
C789 H801 0.930 . S
C790 C786 1.524 . S
C790 H802 0.956 . S
C790 H803 0.961 . S
C790 H804 0.961 . S
C791 C788 1.539 . S
C791 H805 0.958 . S
C791 H806 0.961 . S
C791 H807 0.960 . S
H792 C776 0.931 . S
H793 C781 0.929 . S
H794 C782 0.960 . S
H795 C782 0.962 . S
H796 C782 0.960 . S
H797 C783 0.961 . S
H798 C783 0.961 . S
H799 C783 0.961 . S
H800 C784 0.931 . S
H801 C789 0.930 . S
H802 C790 0.956 . S
H803 C790 0.961 . S
H804 C790 0.961 . S
H805 C791 0.958 . S
H806 C791 0.961 . S
H807 C791 0.960 . S
C808 C809 1.391 . S
C808 C810 1.394 . S
C808 H824 0.931 . S
C809 C808 1.391 . S
C809 C813 1.376 . S
C810 C808 1.394 . S
C810 C811 1.369 . S
C810 C814 1.531 . S
C811 C810 1.369 . S
C811 C812 1.410 . S
C811 C819 1.503 . S
C812 C811 1.410 . S
C812 C813 1.392 . S
C812 C815 1.511 . S
C813 C809 1.376 . S
C813 C812 1.392 . S
C813 H825 0.929 . S
C814 C810 1.531 . S
C814 H826 0.960 . S
C814 H827 0.962 . S
C814 H828 0.960 . S
C815 C812 1.511 . S
C815 H829 0.961 . S
C815 H830 0.961 . S
C815 H831 0.961 . S
C816 C817 1.370 . S
C816 C818 1.363 . S
C816 H832 0.931 . S
C817 C816 1.370 . S
C817 C821 1.408 . S
C818 C816 1.363 . S
C818 C819 1.370 . S
C818 C822 1.524 . S
C819 C811 1.503 . S
C819 C818 1.370 . S
C819 C820 1.403 . S
C820 C819 1.403 . S
C820 C821 1.404 . S
C820 C823 1.539 . S
C821 C817 1.408 . S
C821 C820 1.404 . S
C821 H833 0.930 . S
C822 C818 1.524 . S
C822 H834 0.956 . S
C822 H835 0.961 . S
C822 H836 0.961 . S
C823 C820 1.539 . S
C823 H837 0.958 . S
C823 H838 0.961 . S
C823 H839 0.960 . S
H824 C808 0.931 . S
H825 C813 0.929 . S
H826 C814 0.960 . S
H827 C814 0.962 . S
H828 C814 0.960 . S
H829 C815 0.961 . S
H830 C815 0.961 . S
H831 C815 0.961 . S
H832 C816 0.931 . S
H833 C821 0.930 . S
H834 C822 0.956 . S
H835 C822 0.961 . S
H836 C822 0.961 . S
H837 C823 0.958 . S
H838 C823 0.961 . S
H839 C823 0.960 . S
C840 C841 1.391 . S
C840 C842 1.394 . S
C840 H856 0.931 . S
C841 C840 1.391 . S
C841 C845 1.376 . S
C842 C840 1.394 . S
C842 C843 1.369 . S
C842 C846 1.531 . S
C843 C842 1.369 . S
C843 C844 1.410 . S
C843 C851 1.503 . S
C844 C843 1.410 . S
C844 C845 1.392 . S
C844 C847 1.511 . S
C845 C841 1.376 . S
C845 C844 1.392 . S
C845 H857 0.929 . S
C846 C842 1.531 . S
C846 H858 0.960 . S
C846 H859 0.962 . S
C846 H860 0.960 . S
C847 C844 1.511 . S
C847 H861 0.961 . S
C847 H862 0.961 . S
C847 H863 0.961 . S
C848 C849 1.370 . S
C848 C850 1.363 . S
C848 H864 0.931 . S
C849 C848 1.370 . S
C849 C853 1.408 . S
C850 C848 1.363 . S
C850 C851 1.370 . S
C850 C854 1.524 . S
C851 C843 1.503 . S
C851 C850 1.370 . S
C851 C852 1.403 . S
C852 C851 1.403 . S
C852 C853 1.404 . S
C852 C855 1.539 . S
C853 C849 1.408 . S
C853 C852 1.404 . S
C853 H865 0.930 . S
C854 C850 1.524 . S
C854 H866 0.956 . S
C854 H867 0.961 . S
C854 H868 0.961 . S
C855 C852 1.539 . S
C855 H869 0.958 . S
C855 H870 0.961 . S
C855 H871 0.960 . S
H856 C840 0.931 . S
H857 C845 0.929 . S
H858 C846 0.960 . S
H859 C846 0.962 . S
H860 C846 0.960 . S
H861 C847 0.961 . S
H862 C847 0.961 . S
H863 C847 0.961 . S
H864 C848 0.931 . S
H865 C853 0.930 . S
H866 C854 0.956 . S
H867 C854 0.961 . S
H868 C854 0.961 . S
H869 C855 0.958 . S
H870 C855 0.961 . S
H871 C855 0.960 . S
C872 C873 1.391 . S
C872 C874 1.394 . S
C872 H888 0.931 . S
C873 C872 1.391 . S
C873 C877 1.376 . S
C874 C872 1.394 . S
C874 C875 1.369 . S
C874 C878 1.531 . S
C875 C874 1.369 . S
C875 C876 1.410 . S
C875 C883 1.503 . S
C876 C875 1.410 . S
C876 C877 1.392 . S
C876 C879 1.511 . S
C877 C873 1.376 . S
C877 C876 1.392 . S
C877 H889 0.929 . S
C878 C874 1.531 . S
C878 H890 0.960 . S
C878 H891 0.962 . S
C878 H892 0.960 . S
C879 C876 1.511 . S
C879 H893 0.961 . S
C879 H894 0.961 . S
C879 H895 0.961 . S
C880 C881 1.370 . S
C880 C882 1.363 . S
C880 H896 0.931 . S
C881 C880 1.370 . S
C881 C885 1.408 . S
C882 C880 1.363 . S
C882 C883 1.370 . S
C882 C886 1.524 . S
C883 C875 1.503 . S
C883 C882 1.370 . S
C883 C884 1.403 . S
C884 C883 1.403 . S
C884 C885 1.404 . S
C884 C887 1.539 . S
C885 C881 1.408 . S
C885 C884 1.404 . S
C885 H897 0.930 . S
C886 C882 1.524 . S
C886 H898 0.956 . S
C886 H899 0.961 . S
C886 H900 0.961 . S
C887 C884 1.539 . S
C887 H901 0.958 . S
C887 H902 0.961 . S
C887 H903 0.960 . S
H888 C872 0.931 . S
H889 C877 0.929 . S
H890 C878 0.960 . S
H891 C878 0.962 . S
H892 C878 0.960 . S
H893 C879 0.961 . S
H894 C879 0.961 . S
H895 C879 0.961 . S
H896 C880 0.931 . S
H897 C885 0.930 . S
H898 C886 0.956 . S
H899 C886 0.961 . S
H900 C886 0.961 . S
H901 C887 0.958 . S
H902 C887 0.961 . S
H903 C887 0.960 . S
C904 C905 1.391 . S
C904 C906 1.394 . S
C904 H920 0.931 . S
C905 C904 1.391 . S
C905 C909 1.376 . S
C906 C904 1.394 . S
C906 C907 1.369 . S
C906 C910 1.531 . S
C907 C906 1.369 . S
C907 C908 1.410 . S
C907 C915 1.503 . S
C908 C907 1.410 . S
C908 C909 1.392 . S
C908 C911 1.511 . S
C909 C905 1.376 . S
C909 C908 1.392 . S
C909 H921 0.929 . S
C910 C906 1.531 . S
C910 H922 0.960 . S
C910 H923 0.962 . S
C910 H924 0.960 . S
C911 C908 1.511 . S
C911 H925 0.961 . S
C911 H926 0.961 . S
C911 H927 0.961 . S
C912 C913 1.370 . S
C912 C914 1.363 . S
C912 H928 0.931 . S
C913 C912 1.370 . S
C913 C917 1.408 . S
C914 C912 1.363 . S
C914 C915 1.370 . S
C914 C918 1.524 . S
C915 C907 1.503 . S
C915 C914 1.370 . S
C915 C916 1.403 . S
C916 C915 1.403 . S
C916 C917 1.404 . S
C916 C919 1.539 . S
C917 C913 1.408 . S
C917 C916 1.404 . S
C917 H929 0.930 . S
C918 C914 1.524 . S
C918 H930 0.956 . S
C918 H931 0.961 . S
C918 H932 0.961 . S
C919 C916 1.539 . S
C919 H933 0.958 . S
C919 H934 0.961 . S
C919 H935 0.960 . S
H920 C904 0.931 . S
H921 C909 0.929 . S
H922 C910 0.960 . S
H923 C910 0.962 . S
H924 C910 0.960 . S
H925 C911 0.961 . S
H926 C911 0.961 . S
H927 C911 0.961 . S
H928 C912 0.931 . S
H929 C917 0.930 . S
H930 C918 0.956 . S
H931 C918 0.961 . S
H932 C918 0.961 . S
H933 C919 0.958 . S
H934 C919 0.961 . S
H935 C919 0.960 . S
C936 C937 1.391 . S
C936 C938 1.394 . S
C936 H952 0.931 . S
C937 C936 1.391 . S
C937 C941 1.376 . S
C938 C936 1.394 . S
C938 C939 1.369 . S
C938 C942 1.531 . S
C939 C938 1.369 . S
C939 C940 1.410 . S
C939 C947 1.503 . S
C940 C939 1.410 . S
C940 C941 1.392 . S
C940 C943 1.511 . S
C941 C937 1.376 . S
C941 C940 1.392 . S
C941 H953 0.929 . S
C942 C938 1.531 . S
C942 H954 0.960 . S
C942 H955 0.962 . S
C942 H956 0.960 . S
C943 C940 1.511 . S
C943 H957 0.961 . S
C943 H958 0.961 . S
C943 H959 0.961 . S
C944 C945 1.370 . S
C944 C946 1.363 . S
C944 H960 0.931 . S
C945 C944 1.370 . S
C945 C949 1.408 . S
C946 C944 1.363 . S
C946 C947 1.370 . S
C946 C950 1.524 . S
C947 C939 1.503 . S
C947 C946 1.370 . S
C947 C948 1.403 . S
C948 C947 1.403 . S
C948 C949 1.404 . S
C948 C951 1.539 . S
C949 C945 1.408 . S
C949 C948 1.404 . S
C949 H961 0.930 . S
C950 C946 1.524 . S
C950 H962 0.956 . S
C950 H963 0.961 . S
C950 H964 0.961 . S
C951 C948 1.539 . S
C951 H965 0.958 . S
C951 H966 0.961 . S
C951 H967 0.960 . S
H952 C936 0.931 . S
H953 C941 0.929 . S
H954 C942 0.960 . S
H955 C942 0.962 . S
H956 C942 0.960 . S
H957 C943 0.961 . S
H958 C943 0.961 . S
H959 C943 0.961 . S
H960 C944 0.931 . S
H961 C949 0.930 . S
H962 C950 0.956 . S
H963 C950 0.961 . S
H964 C950 0.961 . S
H965 C951 0.958 . S
H966 C951 0.961 . S
H967 C951 0.960 . S
C968 C969 1.391 . S
C968 C970 1.394 . S
C968 H984 0.931 . S
C969 C968 1.391 . S
C969 C973 1.376 . S
C970 C968 1.394 . S
C970 C971 1.369 . S
C970 C974 1.531 . S
C971 C970 1.369 . S
C971 C972 1.410 . S
C971 C979 1.503 . S
C972 C971 1.410 . S
C972 C973 1.392 . S
C972 C975 1.511 . S
C973 C969 1.376 . S
C973 C972 1.392 . S
C973 H985 0.929 . S
C974 C970 1.531 . S
C974 H986 0.960 . S
C974 H987 0.962 . S
C974 H988 0.960 . S
C975 C972 1.511 . S
C975 H989 0.961 . S
C975 H990 0.961 . S
C975 H991 0.961 . S
C976 C977 1.370 . S
C976 C978 1.363 . S
C976 H992 0.931 . S
C977 C976 1.370 . S
C977 C981 1.408 . S
C978 C976 1.363 . S
C978 C979 1.370 . S
C978 C982 1.524 . S
C979 C971 1.503 . S
C979 C978 1.370 . S
C979 C980 1.403 . S
C980 C979 1.403 . S
C980 C981 1.404 . S
C980 C983 1.539 . S
C981 C977 1.408 . S
C981 C980 1.404 . S
C981 H993 0.930 . S
C982 C978 1.524 . S
C982 H994 0.956 . S
C982 H995 0.961 . S
C982 H996 0.961 . S
C983 C980 1.539 . S
C983 H997 0.958 . S
C983 H998 0.961 . S
C983 H999 0.960 . S
H984 C968 0.931 . S
H985 C973 0.929 . S
H986 C974 0.960 . S
H987 C974 0.962 . S
H988 C974 0.960 . S
H989 C975 0.961 . S
H990 C975 0.961 . S
H991 C975 0.961 . S
H992 C976 0.931 . S
H993 C981 0.930 . S
H994 C982 0.956 . S
H995 C982 0.961 . S
H996 C982 0.961 . S
H997 C983 0.958 . S
H998 C983 0.961 . S
H999 C983 0.960 . S
C233 C5 1.008 . S
C241 C78 1.007 . S
C265 C14 0.951 . S
C273 C127 0.909 . S
C305 C162 2.494 . S
C297 C25 2.527 . S
C329 C34 2.443 . S
C337 C201 2.395 . S
C369 C122 2.033 . S
C361 C7 1.948 . S
C401 C81 0.768 . S
C393 C13 0.755 . S
C433 C211 1.926 . S
C425 C23 1.957 . S
C465 C170 1.677 . S
C457 C31 1.709 . S
C489 C4 1.385 . S
C497 C198 1.441 . S
C529 C130 2.329 . S
C521 C22 2.408 . S
C553 C32 2.351 . S
C561 C91 2.349 . S
C585 C16 0.846 . S
C593 C167 0.850 . S
C625 C87 1.005 . S
C617 C41 0.958 . S
C649 C50 0.934 . S
C657 C118 0.927 . S
C681 C61 2.528 . S
C689 C171 2.477 . S
C713 C67 2.454 . S
C721 C210 2.412 . S
C745 C40 1.958 . S
C753 C131 2.051 . S
C785 C90 0.710 . S
C777 C52 0.748 . S
C817 C202 1.921 . S
C809 C59 1.973 . S
C849 C161 1.687 . S
C841 C70 1.710 . S
C873 C43 1.426 . S
C881 C207 1.439 . S
C913 C121 2.346 . S
C905 C58 2.415 . S
C945 C82 2.328 . S
C937 C68 2.328 . S
C969 C49 0.858 . S
C977 C158 0.850 . S
