# Generated by pormake.
# Topology csq, (4,8)-cn, num edge types: 1
# Building blocks:
#     Node 0, Type 0, BuildingBlock: NAHDIM_clean_linker_0, # of connection points: 4
#     Node 1, Type 0, BuildingBlock: NAHDIM_clean_linker_0, # of connection points: 4
#     Node 2, Type 0, BuildingBlock: NAHDIM_clean_linker_0, # of connection points: 4
#     Node 3, Type 0, BuildingBlock: NAHDIM_clean_linker_0, # of connection points: 4
#     Node 4, Type 0, BuildingBlock: NAHDIM_clean_linker_0, # of connection points: 4
#     Node 5, Type 0, BuildingBlock: NAHDIM_clean_linker_0, # of connection points: 4
#     Node 6, Type 1, BuildingBlock: TAGTUT_clean_sbu_3, # of connection points: 8
#     Node 7, Type 1, BuildingBlock: TAGTUT_clean_sbu_3, # of connection points: 8
#     Node 8, Type 1, BuildingBlock: TAGTUT_clean_sbu_3, # of connection points: 8
#     Edge 9, Type (0, 1), BuildingBlock: KIFKEQ_clean_linker_1, # of connection points: 2
#     Edge 10, Type (0, 1), BuildingBlock: KIFKEQ_clean_linker_1, # of connection points: 2
#     Edge 11, Type (0, 1), BuildingBlock: KIFKEQ_clean_linker_1, # of connection points: 2
#     Edge 12, Type (0, 1), BuildingBlock: KIFKEQ_clean_linker_1, # of connection points: 2
#     Edge 13, Type (0, 1), BuildingBlock: KIFKEQ_clean_linker_1, # of connection points: 2
#     Edge 14, Type (0, 1), BuildingBlock: KIFKEQ_clean_linker_1, # of connection points: 2
#     Edge 15, Type (0, 1), BuildingBlock: KIFKEQ_clean_linker_1, # of connection points: 2
#     Edge 16, Type (0, 1), BuildingBlock: KIFKEQ_clean_linker_1, # of connection points: 2
#     Edge 17, Type (0, 1), BuildingBlock: KIFKEQ_clean_linker_1, # of connection points: 2
#     Edge 18, Type (0, 1), BuildingBlock: KIFKEQ_clean_linker_1, # of connection points: 2
#     Edge 19, Type (0, 1), BuildingBlock: KIFKEQ_clean_linker_1, # of connection points: 2
#     Edge 20, Type (0, 1), BuildingBlock: KIFKEQ_clean_linker_1, # of connection points: 2
#     Edge 21, Type (0, 1), BuildingBlock: KIFKEQ_clean_linker_1, # of connection points: 2
#     Edge 22, Type (0, 1), BuildingBlock: KIFKEQ_clean_linker_1, # of connection points: 2
#     Edge 23, Type (0, 1), BuildingBlock: KIFKEQ_clean_linker_1, # of connection points: 2
#     Edge 24, Type (0, 1), BuildingBlock: KIFKEQ_clean_linker_1, # of connection points: 2
#     Edge 25, Type (0, 1), BuildingBlock: KIFKEQ_clean_linker_1, # of connection points: 2
#     Edge 26, Type (0, 1), BuildingBlock: KIFKEQ_clean_linker_1, # of connection points: 2
#     Edge 27, Type (0, 1), BuildingBlock: KIFKEQ_clean_linker_1, # of connection points: 2
#     Edge 28, Type (0, 1), BuildingBlock: KIFKEQ_clean_linker_1, # of connection points: 2
#     Edge 29, Type (0, 1), BuildingBlock: KIFKEQ_clean_linker_1, # of connection points: 2
#     Edge 30, Type (0, 1), BuildingBlock: KIFKEQ_clean_linker_1, # of connection points: 2
#     Edge 31, Type (0, 1), BuildingBlock: KIFKEQ_clean_linker_1, # of connection points: 2
#     Edge 32, Type (0, 1), BuildingBlock: KIFKEQ_clean_linker_1, # of connection points: 2
# Relax obj value: 0.052
# Max RMSD: 0.123
# Mean RMSD: 0.093
data_MOF--net-csq--node1-TAGTUT_clean_sbu_3--node2-NAHDIM_clean_linker_0--edge1-KIFKEQ_clean_linker_1
_symmetry_space_group_name_H-M    P1
_symmetry_Int_Tables_number       1
_symmetry_cell_setting            triclinic
loop_
_symmetry_equiv_pos_as_xyz
'x, y, z'
_cell_length_a     69.035971
_cell_length_b     68.271407
_cell_length_c     26.685303
_cell_angle_alpha  92.367013
_cell_angle_beta   92.268789
_cell_angle_gamma 119.92381
loop_
_atom_site_label
_atom_site_type_symbol
_atom_site_fract_x
_atom_site_fract_y
_atom_site_fract_z
_atom_type_partial_charge
C0 C 0.33436 0.51727 0.48941 0.0
C1 C 0.32862 0.49996 0.44501 0.0
C2 C 0.30583 0.49734 0.36966 0.0
C3 C 0.29361 0.47362 0.36135 0.0
C4 C 0.27406 0.46297 0.32899 0.0
C5 C 0.2668 0.47633 0.30421 0.0
C6 C 0.27948 0.50023 0.31136 0.0
C7 C 0.29897 0.51042 0.34374 0.0
C8 C 0.26114 0.43746 0.32123 0.0
C9 C 0.27229 0.51499 0.28521 0.0
C10 C 0.12024 0.42163 0.45701 0.0
C11 C 0.13278 0.4406 0.42213 0.0
C12 C 0.148 0.43607 0.34531 0.0
C13 C 0.16367 0.45858 0.33766 0.0
C14 C 0.18212 0.46372 0.30937 0.0
C15 C 0.18519 0.44593 0.28966 0.0
C16 C 0.16922 0.42314 0.29729 0.0
C17 C 0.15046 0.41851 0.32396 0.0
C18 C 0.19847 0.48818 0.30136 0.0
C19 C 0.17215 0.40367 0.27852 0.0
C20 C 0.14149 0.4086 0.96872 0.0
C21 C 0.15485 0.43199 0.98045 0.0
C22 C 0.17617 0.44109 0.00528 0.0
C23 C 0.18401 0.42636 0.01957 0.0
C24 C 0.17101 0.40289 0.00531 0.0
C25 C 0.14999 0.39435 0.97928 0.0
C26 C 0.18995 0.46632 0.01785 0.0
C27 C 0.17891 0.38671 0.01941 0.0
C28 C 0.34554 0.44938 0.05469 0.0
C29 C 0.33539 0.4452 0.0005 0.0
C30 C 0.30514 0.45424 0.00679 0.0
C31 C 0.29938 0.47091 0.9996 0.0
C32 C 0.2792 0.46847 0.01554 0.0
C33 C 0.2643 0.44866 0.03863 0.0
C34 C 0.26952 0.43125 0.04404 0.0
C35 C 0.28997 0.4343 0.02862 0.0
C36 C 0.27415 0.48738 0.00944 0.0
C37 C 0.25381 0.4097 0.06778 0.0
C38 C 0.24582 0.46543 0.27112 0.0
C39 C 0.22586 0.46012 0.29284 0.0
C40 C 0.20567 0.45126 0.26349 0.0
C41 C 0.20532 0.4476 0.21081 0.0
C42 C 0.18551 0.43944 0.17985 0.0
C43 C 0.18525 0.43529 0.12827 0.0
C44 C 0.20488 0.43948 0.10545 0.0
C45 C 0.20478 0.43522 0.053 0.0
C46 C 0.22447 0.43888 0.03193 0.0
C47 C 0.24441 0.44699 0.06187 0.0
C48 C 0.245 0.45216 0.11396 0.0
C49 C 0.26502 0.46114 0.14471 0.0
C50 C 0.26536 0.46565 0.1961 0.0
C51 C 0.24568 0.46117 0.21883 0.0
C52 C 0.22536 0.45226 0.18856 0.0
C53 C 0.22509 0.44805 0.13591 0.0
C54 C 0.0843 0.38264 0.98252 0.0
C55 C 0.10455 0.40442 0.9675 0.0
O56 O 0.32434 0.50825 0.40199 0.0
O57 O 0.32551 0.45832 0.99283 0.0
O58 O 0.12011 0.39935 0.94882 0.0
O59 O 0.13059 0.43093 0.37406 0.0
H60 H 0.31338 0.48421 0.45441 0.0
H61 H 0.32003 0.52009 0.49464 0.0
H62 H 0.34933 0.53374 0.48272 0.0
H63 H 0.33774 0.51096 0.52455 0.0
H64 H 0.29935 0.46341 0.37971 0.0
H65 H 0.3087 0.5287 0.34991 0.0
H66 H 0.24385 0.4309 0.33308 0.0
H67 H 0.26914 0.42947 0.34273 0.0
H68 H 0.25979 0.43229 0.28066 0.0
H69 H 0.28404 0.53333 0.29471 0.0
H70 H 0.25535 0.51082 0.29595 0.0
H71 H 0.27122 0.51155 0.24386 0.0
H72 H 0.15075 0.44995 0.43656 0.0
H73 H 0.12221 0.42873 0.49633 0.0
H74 H 0.12714 0.41 0.45629 0.0
H75 H 0.10211 0.41172 0.44475 0.0
H76 H 0.16141 0.47207 0.35376 0.0
H77 H 0.13811 0.40118 0.33015 0.0
H78 H 0.20331 0.49009 0.26189 0.0
H79 H 0.21388 0.49402 0.32625 0.0
H80 H 0.19145 0.49935 0.3102 0.0
H81 H 0.1607 0.3877 0.29572 0.0
H82 H 0.18967 0.4076 0.28674 0.0
H83 H 0.16851 0.40076 0.23717 0.0
H84 H 0.11157 0.41562 0.00289 0.0
H85 H 0.14845 0.44306 0.9708 0.0
H86 H 0.1396 0.37634 0.96934 0.0
H87 H 0.1897 0.46999 0.05865 0.0
H88 H 0.18338 0.4757 0.9967 0.0
H89 H 0.20767 0.47272 0.00942 0.0
H90 H 0.16638 0.36882 0.0074 0.0
H91 H 0.18248 0.38816 0.06076 0.0
H92 H 0.19474 0.39124 0.0016 0.0
H93 H 0.32267 0.42695 0.99345 0.0
H94 H 0.35395 0.43929 0.06034 0.0
H95 H 0.33221 0.44418 0.08149 0.0
H96 H 0.35794 0.46762 0.06347 0.0
H97 H 0.31109 0.48619 0.98256 0.0
H98 H 0.29395 0.42112 0.03463 0.0
H99 H 0.27269 0.49399 0.04698 0.0
H100 H 0.25782 0.48077 0.98761 0.0
H101 H 0.28731 0.50158 0.99002 0.0
H102 H 0.25869 0.39654 0.0627 0.0
H103 H 0.2364 0.40275 0.0514 0.0
H104 H 0.25392 0.41347 0.10869 0.0
H105 H 0.22608 0.46314 0.33316 0.0
H106 H 0.16993 0.43605 0.19519 0.0
H107 H 0.1694 0.42867 0.10659 0.0
H108 H 0.22418 0.43506 0.99195 0.0
H109 H 0.28069 0.46485 0.12943 0.0
H110 H 0.28124 0.47251 0.21786 0.0
H111 H 0.07695 0.36959 0.95052 0.0
H112 H 0.07126 0.38624 0.99585 0.0
H113 H 0.08959 0.37563 0.01361 0.0
C114 C 0.85674 0.29573 0.44462 0.0
C115 C 0.87244 0.31028 0.4056 0.0
C116 C 0.8474 0.29451 0.32837 0.0
C117 C 0.85168 0.27697 0.31507 0.0
C118 C 0.83789 0.25983 0.27805 0.0
C119 C 0.81913 0.25991 0.25482 0.0
C120 C 0.81496 0.27772 0.26777 0.0
C121 C 0.82949 0.29506 0.30361 0.0
C122 C 0.84315 0.24137 0.26451 0.0
C123 C 0.79479 0.27812 0.24504 0.0
C124 C 0.71436 0.10942 0.40092 0.0
C125 C 0.70974 0.12276 0.36223 0.0
C126 C 0.73246 0.14202 0.29324 0.0
C127 C 0.72635 0.15873 0.28991 0.0
C128 C 0.73896 0.17798 0.26342 0.0
C129 C 0.75807 0.18054 0.24011 0.0
C130 C 0.76395 0.16348 0.24254 0.0
C131 C 0.75082 0.14424 0.26854 0.0
C132 C 0.73196 0.19562 0.26049 0.0
C133 C 0.7843 0.16573 0.21834 0.0
C134 C 0.71287 0.14116 0.93149 0.0
C135 C 0.70824 0.15852 0.94397 0.0
C136 C 0.72538 0.17987 0.96379 0.0
C137 C 0.74752 0.18388 0.97083 0.0
C138 C 0.7525 0.16705 0.95413 0.0
C139 C 0.73505 0.14589 0.9343 0.0
C140 C 0.71966 0.19772 0.97982 0.0
C141 C 0.77601 0.17095 0.96009 0.0
C142 C 0.89349 0.33763 0.9555 0.0
C143 C 0.87799 0.32991 0.90719 0.0
C144 C 0.84163 0.30274 0.938 0.0
C145 C 0.82099 0.29966 0.95153 0.0
C146 C 0.80562 0.28001 0.97375 0.0
C147 C 0.81106 0.26297 0.98246 0.0
C148 C 0.83163 0.26562 0.96766 0.0
C149 C 0.84671 0.28545 0.94564 0.0
C150 C 0.78374 0.2776 0.98878 0.0
C151 C 0.83783 0.24763 0.97597 0.0
C152 C 0.80279 0.2403 0.22073 0.0
C153 C 0.78826 0.22044 0.24291 0.0
C154 C 0.77217 0.20125 0.21392 0.0
C155 C 0.77004 0.20188 0.16128 0.0
C156 C 0.7536 0.18302 0.13129 0.0
C157 C 0.75176 0.18367 0.07947 0.0
C158 C 0.76625 0.20325 0.05555 0.0
C159 C 0.76452 0.20396 0.00275 0.0
C160 C 0.77915 0.22364 0.98004 0.0
C161 C 0.79568 0.24277 0.00887 0.0
C162 C 0.79771 0.24234 0.06179 0.0
C163 C 0.81427 0.26117 0.09195 0.0
C164 C 0.81612 0.26052 0.14396 0.0
C165 C 0.80136 0.2411 0.16786 0.0
C166 C 0.78475 0.22185 0.13812 0.0
C167 C 0.78288 0.2225 0.08512 0.0
C168 C 0.6722 0.08829 0.9621 0.0
C169 C 0.67506 0.10849 0.93373 0.0
O170 O 0.86002 0.31125 0.36457 0.0
O171 O 0.85608 0.32263 0.91848 0.0
O172 O 0.69649 0.11969 0.91692 0.0
O173 O 0.72113 0.12363 0.32006 0.0
H174 H 0.88281 0.30292 0.39352 0.0
H175 H 0.84564 0.27815 0.42816 0.0
H176 H 0.84614 0.30278 0.45707 0.0
H177 H 0.86656 0.29505 0.47785 0.0
H178 H 0.86574 0.27651 0.33299 0.0
H179 H 0.82644 0.30876 0.3139 0.0
H180 H 0.83103 0.22556 0.28121 0.0
H181 H 0.86033 0.2459 0.27869 0.0
H182 H 0.84146 0.23781 0.22308 0.0
H183 H 0.79258 0.29172 0.26338 0.0
H184 H 0.77936 0.26157 0.24827 0.0
H185 H 0.7967 0.28097 0.20446 0.0
H186 H 0.71626 0.14014 0.3802 0.0
H187 H 0.7057 0.10873 0.43559 0.0
H188 H 0.73265 0.11786 0.41122 0.0
H189 H 0.70854 0.09186 0.38541 0.0
H190 H 0.71171 0.15674 0.30773 0.0
H191 H 0.75522 0.13112 0.27099 0.0
H192 H 0.73043 0.19907 0.22065 0.0
H193 H 0.74503 0.21172 0.28058 0.0
H194 H 0.71576 0.19032 0.27737 0.0
H195 H 0.78739 0.15165 0.22644 0.0
H196 H 0.79936 0.18204 0.23189 0.0
H197 H 0.78201 0.16588 0.17698 0.0
H198 H 0.67237 0.11955 0.96095 0.0
H199 H 0.69126 0.15538 0.93905 0.0
H200 H 0.73852 0.13255 0.92323 0.0
H201 H 0.72116 0.20004 0.0215 0.0
H202 H 0.70236 0.19306 0.96633 0.0
H203 H 0.73166 0.21421 0.96536 0.0
H204 H 0.77749 0.15701 0.94111 0.0
H205 H 0.78106 0.17232 0.00068 0.0
H206 H 0.78789 0.18717 0.9444 0.0
H207 H 0.87883 0.3158 0.88703 0.0
H208 H 0.9111 0.34394 0.9462 0.0
H209 H 0.88868 0.32333 0.97983 0.0
H210 H 0.89255 0.35134 0.97718 0.0
H211 H 0.81709 0.31294 0.94532 0.0
H212 H 0.86244 0.28726 0.93514 0.0
H213 H 0.78276 0.27627 0.03004 0.0
H214 H 0.76954 0.26176 0.97032 0.0
H215 H 0.78178 0.29215 0.97848 0.0
H216 H 0.85406 0.25179 0.96056 0.0
H217 H 0.82455 0.2311 0.95798 0.0
H218 H 0.83899 0.24561 0.01686 0.0
H219 H 0.78956 0.21986 0.28344 0.0
H220 H 0.74194 0.1675 0.14754 0.0
H221 H 0.73879 0.16854 0.0585 0.0
H222 H 0.77776 0.22401 0.93949 0.0
H223 H 0.82602 0.27663 0.07568 0.0
H224 H 0.82923 0.27545 0.16526 0.0
H225 H 0.67504 0.07653 0.93758 0.0
H226 H 0.65508 0.07892 0.9756 0.0
H227 H 0.68451 0.09438 0.99523 0.0
C228 C 0.5333 0.81849 0.34915 0.0
C229 C 0.54302 0.84023 0.3212 0.0
C230 C 0.53928 0.82536 0.23435 0.0
C231 C 0.56156 0.83121 0.22768 0.0
C232 C 0.56662 0.81949 0.19083 0.0
C233 C 0.54905 0.80159 0.15996 0.0
C234 C 0.5267 0.79649 0.16475 0.0
C235 C 0.52214 0.80865 0.20162 0.0
C236 C 0.59072 0.8258 0.18585 0.0
C237 C 0.50761 0.77765 0.13215 0.0
C238 C 0.58875 0.68322 0.25904 0.0
C239 C 0.56619 0.6817 0.26794 0.0
C240 C 0.55747 0.69927 0.19864 0.0
C241 C 0.54143 0.69534 0.16007 0.0
C242 C 0.54215 0.71325 0.13464 0.0
C243 C 0.55991 0.73564 0.14705 0.0
C244 C 0.57658 0.73971 0.18519 0.0
C245 C 0.57506 0.72156 0.21098 0.0
C246 C 0.52371 0.70824 0.09512 0.0
C247 C 0.59593 0.76329 0.19916 0.0
C248 C 0.60947 0.73673 0.83291 0.0
C249 C 0.58687 0.72591 0.84315 0.0
C250 C 0.57839 0.73746 0.87129 0.0
C251 C 0.59315 0.76 0.89117 0.0
C252 C 0.61609 0.77082 0.88091 0.0
C253 C 0.62384 0.75912 0.85103 0.0
C254 C 0.55367 0.72558 0.87929 0.0
C255 C 0.63246 0.79476 0.90121 0.0
C256 C 0.58332 0.90356 0.87292 0.0
C257 C 0.58322 0.89281 0.82109 0.0
C258 C 0.57116 0.85396 0.84397 0.0
C259 C 0.55261 0.83218 0.84388 0.0
C260 C 0.55367 0.81534 0.87021 0.0
C261 C 0.57387 0.82046 0.89719 0.0
C262 C 0.59283 0.84239 0.89701 0.0
C263 C 0.59135 0.85889 0.87019 0.0
C264 C 0.53319 0.79206 0.86933 0.0
C265 C 0.61467 0.84834 0.92522 0.0
C266 C 0.55395 0.78676 0.12689 0.0
C267 C 0.5541 0.76851 0.14832 0.0
C268 C 0.56055 0.75489 0.12168 0.0
C269 C 0.56731 0.75968 0.07223 0.0
C270 C 0.57544 0.74739 0.0456 0.0
C271 C 0.58155 0.75188 0.99651 0.0
C272 C 0.57933 0.76852 0.97178 0.0
C273 C 0.58464 0.77261 0.92117 0.0
C274 C 0.58236 0.78943 0.89808 0.0
C275 C 0.57539 0.8027 0.92431 0.0
C276 C 0.57018 0.79902 0.97502 0.0
C277 C 0.56347 0.81231 0.00282 0.0
C278 C 0.55835 0.80851 0.05275 0.0
C279 C 0.55938 0.79101 0.07643 0.0
C280 C 0.56612 0.77741 0.04907 0.0
C281 C 0.57184 0.78162 0.99855 0.0
C282 C 0.64256 0.71135 0.81135 0.0
C283 C 0.61946 0.70779 0.8219 0.0
O284 O 0.53375 0.83535 0.27198 0.0
O285 O 0.56872 0.86958 0.81868 0.0
O286 O 0.61764 0.72577 0.80526 0.0
O287 O 0.55533 0.68116 0.22269 0.0
H288 H 0.56144 0.84748 0.32184 0.0
H289 H 0.53776 0.80646 0.33105 0.0
H290 H 0.51475 0.81018 0.34844 0.0
H291 H 0.5403 0.82235 0.38886 0.0
H292 H 0.5751 0.8449 0.25102 0.0
H293 H 0.50502 0.80453 0.20642 0.0
H294 H 0.59311 0.81159 0.19676 0.0
H295 H 0.60259 0.84125 0.20984 0.0
H296 H 0.59492 0.82871 0.1461 0.0
H297 H 0.49135 0.77671 0.13824 0.0
H298 H 0.5062 0.7612 0.14049 0.0
H299 H 0.51101 0.78013 0.0919 0.0
H300 H 0.56966 0.69687 0.29237 0.0
H301 H 0.5966 0.68189 0.29494 0.0
H302 H 0.60048 0.69968 0.2442 0.0
H303 H 0.58662 0.6696 0.2313 0.0
H304 H 0.52796 0.67813 0.15069 0.0
H305 H 0.58775 0.72503 0.24049 0.0
H306 H 0.53051 0.71091 0.05746 0.0
H307 H 0.51712 0.71996 0.1015 0.0
H308 H 0.50961 0.69053 0.09486 0.0
H309 H 0.60945 0.76311 0.22276 0.0
H310 H 0.5898 0.77315 0.22065 0.0
H311 H 0.6031 0.77222 0.16489 0.0
H312 H 0.61836 0.7074 0.86352 0.0
H313 H 0.57584 0.70858 0.82832 0.0
H314 H 0.64128 0.76726 0.84252 0.0
H315 H 0.55102 0.72038 0.91841 0.0
H316 H 0.54398 0.71017 0.85336 0.0
H317 H 0.54688 0.73712 0.87377 0.0
H318 H 0.65012 0.79904 0.89816 0.0
H319 H 0.6299 0.79738 0.94122 0.0
H320 H 0.62961 0.80671 0.87942 0.0
H321 H 0.60042 0.89638 0.81408 0.0
H322 H 0.59468 0.92222 0.87464 0.0
H323 H 0.58933 0.89686 0.90321 0.0
H324 H 0.56616 0.89993 0.8805 0.0
H325 H 0.53716 0.82848 0.82336 0.0
H326 H 0.606 0.87554 0.87004 0.0
H327 H 0.52837 0.78782 0.90832 0.0
H328 H 0.53708 0.77924 0.85335 0.0
H329 H 0.51869 0.79081 0.84678 0.0
H330 H 0.62771 0.86635 0.92266 0.0
H331 H 0.621 0.8374 0.90988 0.0
H332 H 0.61191 0.84506 0.96546 0.0
H333 H 0.54943 0.76504 0.18669 0.0
H334 H 0.57722 0.73418 0.06251 0.0
H335 H 0.5878 0.74195 0.978 0.0
H336 H 0.58632 0.79242 0.85919 0.0
H337 H 0.56215 0.82586 0.9863 0.0
H338 H 0.55331 0.81926 0.07243 0.0
H339 H 0.64502 0.71235 0.77043 0.0
H340 H 0.64448 0.6972 0.82496 0.0
H341 H 0.65578 0.72741 0.83134 0.0
C342 C 0.89667 0.61221 0.37853 0.0
C343 C 0.88686 0.59349 0.33579 0.0
C344 C 0.86689 0.5952 0.26038 0.0
C345 C 0.85048 0.57215 0.25377 0.0
C346 C 0.83068 0.56501 0.22371 0.0
C347 C 0.82734 0.58125 0.1996 0.0
C348 C 0.84417 0.60439 0.20484 0.0
C349 C 0.86388 0.61103 0.23487 0.0
C350 C 0.81333 0.54014 0.21764 0.0
C351 C 0.84123 0.62207 0.17901 0.0
C352 C 0.67171 0.5728 0.30723 0.0
C353 C 0.68915 0.57762 0.27112 0.0
C354 C 0.71465 0.56443 0.24627 0.0
C355 C 0.72805 0.58319 0.21889 0.0
C356 C 0.74549 0.58397 0.19212 0.0
C357 C 0.7493 0.56543 0.19183 0.0
C358 C 0.73575 0.54648 0.21908 0.0
C359 C 0.71873 0.54635 0.24635 0.0
C360 C 0.75995 0.60471 0.16446 0.0
C361 C 0.73929 0.52639 0.21947 0.0
C362 C 0.70517 0.54527 0.86882 0.0
C363 C 0.72239 0.56644 0.88971 0.0
C364 C 0.74159 0.56854 0.91488 0.0
C365 C 0.74339 0.54899 0.92073 0.0
C366 C 0.72642 0.52776 0.89867 0.0
C367 C 0.70761 0.52624 0.87247 0.0
C368 C 0.75975 0.59168 0.93621 0.0
C369 C 0.7279 0.50663 0.90399 0.0
C370 C 0.91101 0.57854 0.95685 0.0
C371 C 0.89387 0.56064 0.91767 0.0
C372 C 0.86109 0.56509 0.90317 0.0
C373 C 0.85666 0.58293 0.90232 0.0
C374 C 0.83612 0.58008 0.91652 0.0
C375 C 0.81958 0.55872 0.93105 0.0
C376 C 0.82324 0.5401 0.92753 0.0
C377 C 0.844 0.54346 0.91349 0.0
C378 C 0.83256 0.60017 0.91883 0.0
C379 C 0.80563 0.51693 0.94112 0.0
C380 C 0.80637 0.57397 0.16826 0.0
C381 C 0.78801 0.5725 0.19176 0.0
C382 C 0.76786 0.56615 0.16424 0.0
C383 C 0.76593 0.56122 0.11164 0.0
C384 C 0.74595 0.55482 0.08267 0.0
C385 C 0.74462 0.55106 0.03066 0.0
C386 C 0.76314 0.55334 0.00568 0.0
C387 C 0.7624 0.5508 0.95259 0.0
C388 C 0.78079 0.55224 0.92909 0.0
C389 C 0.80024 0.55676 0.95735 0.0
C390 C 0.80165 0.56035 0.01026 0.0
C391 C 0.82136 0.56592 0.03954 0.0
C392 C 0.82288 0.57019 0.09128 0.0
C393 C 0.80473 0.569 0.11588 0.0
C394 C 0.78452 0.56284 0.08739 0.0
C395 C 0.78304 0.55866 0.03444 0.0
C396 C 0.65566 0.54967 0.82703 0.0
C397 C 0.67874 0.55816 0.8494 0.0
O398 O 0.88568 0.60271 0.29129 0.0
O399 O 0.88194 0.56937 0.89357 0.0
O400 O 0.68599 0.54255 0.84563 0.0
O401 O 0.69781 0.56318 0.2732 0.0
H402 H 0.86979 0.58113 0.34674 0.0
H403 H 0.88503 0.61877 0.38438 0.0
H404 H 0.91305 0.62661 0.36962 0.0
H405 H 0.89889 0.60542 0.41412 0.0
H406 H 0.85311 0.5597 0.27183 0.0
H407 H 0.8768 0.62872 0.23968 0.0
H408 H 0.7974 0.53745 0.2322 0.0
H409 H 0.81872 0.52956 0.23784 0.0
H410 H 0.80987 0.53429 0.17714 0.0
H411 H 0.85557 0.63946 0.18827 0.0
H412 H 0.82563 0.62149 0.19011 0.0
H413 H 0.83949 0.61837 0.13765 0.0
H414 H 0.68466 0.57974 0.23187 0.0
H415 H 0.68612 0.60206 0.35632 0.0
H416 H 0.66634 0.55545 0.32043 0.0
H417 H 0.65583 0.56708 0.28302 0.0
H418 H 0.72518 0.59739 0.21875 0.0
H419 H 0.70835 0.53199 0.26764 0.0
H420 H 0.7572 0.60014 0.12337 0.0
H421 H 0.77794 0.61113 0.17515 0.0
H422 H 0.75622 0.61854 0.17234 0.0
H423 H 0.72597 0.51208 0.23831 0.0
H424 H 0.7557 0.53155 0.23951 0.0
H425 H 0.73973 0.52043 0.18039 0.0
H426 H 0.69125 0.57522 0.83789 0.0
H427 H 0.72101 0.58144 0.88678 0.0
H428 H 0.69435 0.51001 0.85597 0.0
H429 H 0.75909 0.59284 0.97765 0.0
H430 H 0.75778 0.6055 0.92074 0.0
H431 H 0.77655 0.59442 0.92814 0.0
H432 H 0.71294 0.49126 0.88608 0.0
H433 H 0.72968 0.50416 0.94444 0.0
H434 H 0.74302 0.50856 0.88646 0.0
H435 H 0.88273 0.54557 0.93804 0.0
H436 H 0.92093 0.57197 0.97624 0.0
H437 H 0.90221 0.58284 0.98544 0.0
H438 H 0.9226 0.59425 0.93894 0.0
H439 H 0.86978 0.5994 0.89282 0.0
H440 H 0.84685 0.52925 0.91113 0.0
H441 H 0.83138 0.60476 0.95855 0.0
H442 H 0.81652 0.59573 0.89787 0.0
H443 H 0.84639 0.6152 0.90293 0.0
H444 H 0.80977 0.50365 0.93004 0.0
H445 H 0.78907 0.51237 0.92267 0.0
H446 H 0.80413 0.51718 0.98239 0.0
H447 H 0.78948 0.57649 0.23201 0.0
H448 H 0.73122 0.55294 0.09981 0.0
H449 H 0.72889 0.54644 0.01023 0.0
H450 H 0.78018 0.5504 0.88839 0.0
H451 H 0.83599 0.56732 0.02283 0.0
H452 H 0.83854 0.5746 0.1117 0.0
H453 H 0.6577 0.56053 0.79479 0.0
H454 H 0.63776 0.54912 0.88897 0.0
H455 H 0.65118 0.53404 0.80219 0.0
C456 C 0.28344 0.84706 0.76278 0.0
C457 C 0.2917 0.8646 0.80784 0.0
C458 C 0.27562 0.84251 0.88042 0.0
C459 C 0.26109 0.85021 0.89476 0.0
C460 C 0.24408 0.83798 0.92686 0.0
C461 C 0.24158 0.81766 0.9447 0.0
C462 C 0.25627 0.80993 0.93035 0.0
C463 C 0.27336 0.82271 0.89901 0.0
C464 C 0.22896 0.84689 0.94233 0.0
C465 C 0.25396 0.78822 0.94822 0.0
C466 C 0.08735 0.72933 0.79374 0.0
C467 C 0.10275 0.72146 0.8169 0.0
C468 C 0.12239 0.73591 0.89918 0.0
C469 C 0.13895 0.72982 0.89867 0.0
C470 C 0.15882 0.74198 0.92966 0.0
C471 C 0.16242 0.7611 0.96047 0.0
C472 C 0.14549 0.76707 0.96126 0.0
C473 C 0.12539 0.75393 0.93155 0.0
C474 C 0.17614 0.73467 0.92847 0.0
C475 C 0.14885 0.78777 0.99186 0.0
C476 C 0.1504 0.7416 0.29436 0.0
C477 C 0.16387 0.73377 0.27361 0.0
C478 C 0.18094 0.74722 0.24276 0.0
C479 C 0.18462 0.76896 0.2327 0.0
C480 C 0.17164 0.77724 0.25522 0.0
C481 C 0.15478 0.76347 0.28623 0.0
C482 C 0.19491 0.73815 0.22057 0.0
C483 C 0.17537 0.80047 0.24582 0.0
C484 C 0.36103 0.90423 0.31496 0.0
C485 C 0.34034 0.89435 0.28045 0.0
C486 C 0.30761 0.85716 0.25546 0.0
C487 C 0.29959 0.83389 0.24971 0.0
C488 C 0.27779 0.81879 0.2291 0.0
C489 C 0.2635 0.82722 0.21484 0.0
C490 C 0.27125 0.8507 0.22209 0.0
C491 C 0.29334 0.86548 0.24144 0.0
C492 C 0.27014 0.79388 0.2219 0.0
C493 C 0.25628 0.86024 0.20873 0.0
C494 C 0.22378 0.80459 0.97885 0.0
C495 C 0.20224 0.78979 0.95745 0.0
C496 C 0.18478 0.77621 0.987 0.0
C497 C 0.18891 0.77749 0.03983 0.0
C498 C 0.17199 0.76379 0.07089 0.0
C499 C 0.17618 0.76563 0.1229 0.0
C500 C 0.19756 0.78099 0.14578 0.0
C501 C 0.20204 0.783 0.19857 0.0
C502 C 0.22354 0.79831 0.21992 0.0
C503 C 0.24091 0.81165 0.18996 0.0
C504 C 0.23676 0.80988 0.13717 0.0
C505 C 0.25389 0.82295 0.10591 0.0
C506 C 0.24963 0.8214 0.05416 0.0
C507 C 0.22816 0.80641 0.03148 0.0
C508 C 0.21066 0.79285 0.0621 0.0
C509 C 0.21498 0.7946 0.11507 0.0
C510 C 0.09552 0.7042 0.28864 0.0
C511 C 0.11743 0.7059 0.30909 0.0
O512 O 0.29263 0.85418 0.85065 0.0
O513 O 0.32905 0.87086 0.27489 0.0
O514 O 0.1331 0.7284 0.32221 0.0
O515 O 0.10335 0.72459 0.86876 0.0
H516 H 0.27988 0.8711 0.81093 0.0
H517 H 0.26686 0.83237 0.76953 0.0
H518 H 0.29542 0.8409 0.75713 0.0
H519 H 0.28141 0.85437 0.7279 0.0
H520 H 0.26334 0.86604 0.88227 0.0
H521 H 0.28489 0.81712 0.8882 0.0
H522 H 0.21143 0.83466 0.92829 0.0
H523 H 0.23386 0.86359 0.9275 0.0
H524 H 0.22935 0.84859 0.98398 0.0
H525 H 0.26533 0.78347 0.92981 0.0
H526 H 0.23642 0.77415 0.94059 0.0
H527 H 0.2579 0.7902 0.98947 0.0
H528 H 0.11974 0.73222 0.8033 0.0
H529 H 0.08763 0.729 0.75216 0.0
H530 H 0.09313 0.74704 0.808 0.0
H531 H 0.06986 0.71837 0.80401 0.0
H532 H 0.13629 0.71553 0.87409 0.0
H533 H 0.11231 0.75832 0.93172 0.0
H534 H 0.18351 0.73579 0.96697 0.0
H535 H 0.18989 0.74614 0.90554 0.0
H536 H 0.16896 0.71707 0.91166 0.0
H537 H 0.13563 0.79201 0.98211 0.0
H538 H 0.16543 0.80265 0.98601 0.0
H539 H 0.14845 0.78471 0.0324 0.0
H540 H 0.1228 0.69894 0.27752 0.0
H541 H 0.16112 0.71719 0.28164 0.0
H542 H 0.1445 0.76947 0.3031 0.0
H543 H 0.19256 0.73678 0.17892 0.0
H544 H 0.19047 0.72123 0.23344 0.0
H545 H 0.21294 0.75009 0.23105 0.0
H546 H 0.16366 0.80432 0.26561 0.0
H547 H 0.17316 0.80175 0.20486 0.0
H548 H 0.19282 0.81351 0.25858 0.0
H549 H 0.34222 0.90224 0.24386 0.0
H550 H 0.35366 0.91954 0.37524 0.0
H551 H 0.37518 0.91414 0.29044 0.0
H552 H 0.36525 0.89042 0.31971 0.0
H553 H 0.31065 0.8276 0.26081 0.0
H554 H 0.29927 0.88346 0.24546 0.0
H555 H 0.26376 0.78762 0.18226 0.0
H556 H 0.25613 0.78425 0.24604 0.0
H557 H 0.28379 0.79026 0.23159 0.0
H558 H 0.2635 0.87809 0.22389 0.0
H559 H 0.23954 0.84988 0.22343 0.0
H560 H 0.25385 0.85964 0.16722 0.0
H561 H 0.19904 0.78872 0.91698 0.0
H562 H 0.15529 0.75158 0.05529 0.0
H563 H 0.16245 0.75482 0.14497 0.0
H564 H 0.22685 0.79971 0.26039 0.0
H565 H 0.27082 0.83465 0.12105 0.0
H566 H 0.26344 0.83208 0.03215 0.0
H567 H 0.08996 0.71318 0.31485 0.0
H568 H 0.08211 0.68618 0.28205 0.0
H569 H 0.09816 0.71223 0.25226 0.0
C570 C 0.38451 0.28438 0.47466 0.0
C571 C 0.40526 0.29253 0.44462 0.0
C572 C 0.40873 0.27899 0.36139 0.0
C573 C 0.43197 0.28772 0.36504 0.0
C574 C 0.44186 0.27898 0.33288 0.0
C575 C 0.42814 0.26079 0.29711 0.0
C576 C 0.40477 0.25254 0.2922 0.0
C577 C 0.39547 0.26217 0.32376 0.0
C578 C 0.46689 0.28864 0.33847 0.0
C579 C 0.38943 0.23284 0.25547 0.0
C580 C 0.4487 0.16951 0.496 0.0
C581 C 0.44884 0.15534 0.45013 0.0
C582 C 0.4607 0.18069 0.38093 0.0
C583 C 0.44002 0.172 0.35307 0.0
C584 C 0.43684 0.18471 0.31699 0.0
C585 C 0.4547 0.20644 0.30835 0.0
C586 C 0.47583 0.21477 0.33458 0.0
C587 C 0.47859 0.20163 0.3702 0.0
C588 C 0.41423 0.17515 0.28879 0.0
C589 C 0.49526 0.23783 0.3261 0.0
C590 C 0.48964 0.18691 0.99095 0.0
C591 C 0.46713 0.17646 0.00229 0.0
C592 C 0.45867 0.18896 0.0267 0.0
C593 C 0.47322 0.21224 0.04096 0.0
C594 C 0.49589 0.22282 0.02886 0.0
C595 C 0.50369 0.21005 0.00317 0.0
C596 C 0.43418 0.1773 0.03693 0.0
C597 C 0.51191 0.24762 0.04291 0.0
C598 C 0.43181 0.34079 0.9748 0.0
C599 C 0.44791 0.33502 0.9487 0.0
C600 C 0.44214 0.29805 0.96979 0.0
C601 C 0.42434 0.27654 0.97743 0.0
C602 C 0.42743 0.26185 0.00773 0.0
C603 C 0.44894 0.26888 0.03062 0.0
C604 C 0.46716 0.29041 0.022 0.0
C605 C 0.46363 0.30465 0.99114 0.0
C606 C 0.40772 0.23886 0.01546 0.0
C607 C 0.4904 0.29833 0.04518 0.0
C608 C 0.43775 0.24848 0.27012 0.0
C609 C 0.44219 0.23407 0.29777 0.0
C610 C 0.45063 0.22127 0.27564 0.0
C611 C 0.45454 0.22251 0.22397 0.0
C612 C 0.46279 0.20965 0.20034 0.0
C613 C 0.46635 0.21082 0.14928 0.0
C614 C 0.46157 0.22471 0.11982 0.0
C615 C 0.4647 0.22568 0.06767 0.0
C616 C 0.46009 0.23994 0.0398 0.0
C617 C 0.4526 0.25354 0.06252 0.0
C618 C 0.44922 0.25272 0.11452 0.0
C619 C 0.44176 0.26622 0.13866 0.0
C620 C 0.4382 0.26505 0.18974 0.0
C621 C 0.44189 0.2503 0.21854 0.0
C622 C 0.45002 0.23699 0.19526 0.0
C623 C 0.45358 0.23812 0.14314 0.0
C624 C 0.51504 0.16223 0.0272 0.0
C625 C 0.49702 0.15572 0.98434 0.0
O626 O 0.39853 0.28605 0.39413 0.0
O627 O 0.43805 0.3117 0.94087 0.0
O628 O 0.49812 0.17515 0.96739 0.0
O629 O 0.46426 0.16936 0.41764 0.0
H630 H 0.41433 0.28393 0.45873 0.0
H631 H 0.37408 0.26563 0.46952 0.0
H632 H 0.37423 0.29183 0.4618 0.0
H633 H 0.3895 0.28921 0.51538 0.0
H634 H 0.44241 0.3012 0.39326 0.0
H635 H 0.37756 0.25575 0.32097 0.0
H636 H 0.47059 0.27691 0.35887 0.0
H637 H 0.47555 0.30543 0.35993 0.0
H638 H 0.47384 0.29041 0.30102 0.0
H639 H 0.37147 0.22711 0.25976 0.0
H640 H 0.39219 0.21833 0.26072 0.0
H641 H 0.39325 0.23782 0.21647 0.0
H642 H 0.4316 0.14643 0.432 0.0
H643 H 0.43718 0.15833 0.52335 0.0
H644 H 0.44276 0.18112 0.48396 0.0
H645 H 0.46576 0.17992 0.51486 0.0
H646 H 0.42631 0.15531 0.35873 0.0
H647 H 0.49461 0.20801 0.39112 0.0
H648 H 0.41621 0.17611 0.24771 0.0
H649 H 0.40652 0.18545 0.29974 0.0
H650 H 0.40262 0.15726 0.29654 0.0
H651 H 0.51084 0.24153 0.34815 0.0
H652 H 0.49101 0.25105 0.33689 0.0
H653 H 0.49846 0.23896 0.28558 0.0
H654 H 0.48035 0.14468 0.99895 0.0
H655 H 0.45608 0.15867 0.9912 0.0
H656 H 0.52097 0.21796 0.99354 0.0
H657 H 0.43247 0.17584 0.07798 0.0
H658 H 0.42456 0.16004 0.01777 0.0
H659 H 0.42663 0.18747 0.02433 0.0
H660 H 0.5296 0.25234 0.03812 0.0
H661 H 0.51038 0.25203 0.08252 0.0
H662 H 0.50766 0.2579 0.01852 0.0
H663 H 0.46315 0.34229 0.97489 0.0
H664 H 0.43869 0.35942 0.97795 0.0
H665 H 0.42961 0.33476 0.01333 0.0
H666 H 0.41505 0.33242 0.95416 0.0
H667 H 0.40789 0.27142 0.96009 0.0
H668 H 0.47782 0.32071 0.98322 0.0
H669 H 0.40454 0.23753 0.05598 0.0
H670 H 0.4116 0.22544 0.00399 0.0
H671 H 0.39223 0.23563 0.99374 0.0
H672 H 0.50239 0.31622 0.03817 0.0
H673 H 0.49669 0.28746 0.02926 0.0
H674 H 0.48992 0.29666 0.08639 0.0
H675 H 0.43891 0.2327 0.3373 0.0
H676 H 0.46656 0.19852 0.22108 0.0
H677 H 0.47279 0.20059 0.13315 0.0
H678 H 0.4626 0.24067 -0.00012 0.0
H679 H 0.4385 0.27777 0.11828 0.0
H680 H 0.43241 0.27578 0.20639 0.0
H681 H 0.53198 0.17333 0.01406 0.0
H682 H 0.5143 0.14684 0.04158 0.0
H683 H 0.51228 0.17147 0.05881 0.0
C684 C 0.04392 0.49936 0.55218 0.0
C685 C 0.03775 0.47342 0.73986 0.0
C686 C 0.97145 0.46349 0.72007 0.0
Mg687 Mg 0.01891 0.52278 0.49566 0.0
Mg688 Mg 0.00381 0.55416 0.56072 0.0
O689 O 0.00195 0.52606 0.55192 0.0
Mg690 Mg 0.01255 0.51483 0.60859 0.0
O691 O 0.02321 0.50176 0.66149 0.0
Mg692 Mg 0.00799 0.4694 0.63254 0.0
Mg693 Mg 0.01792 0.50542 0.7289 0.0
C694 C 0.97978 0.53152 0.65846 0.0
O695 O 0.03596 0.55024 0.64904 0.0
O696 O 0.99641 0.53078 0.44158 0.0
O697 O 0.03136 0.54197 0.73057 0.0
O698 O 0.04585 0.56091 0.50184 0.0
O699 O 0.98581 0.55085 0.49122 0.0
O700 O 0.03782 0.58073 0.55707 0.0
O701 O 0.98917 0.47896 0.57404 0.0
O702 O 0.99226 0.48518 0.49243 0.0
C703 C 0.98402 0.47171 0.52763 0.0
C704 C 0.98539 0.54115 0.44879 0.0
O705 O 0.98592 0.51653 0.65633 0.0
O706 O 0.02894 0.46397 0.69576 0.0
O707 O 0.9863 0.5476 0.62863 0.0
O708 O 0.97869 0.45693 0.68353 0.0
O709 O 0.03597 0.4899 0.75945 0.0
O710 O 0.98318 0.48321 0.74215 0.0
O711 O 0.03832 0.51462 0.55696 0.0
O712 O 0.03596 0.48222 0.57898 0.0
C713 C 0.05087 0.57961 0.52604 0.0
C714 C 0.03845 0.55626 0.69637 0.0
C715 C 0.49569 0.04013 0.51982 0.0
C716 C 0.55759 0.0286 0.42652 0.0
C717 C 0.5247 0.96435 0.48968 0.0
Mg718 Mg 0.47103 0.01719 0.62006 0.0
Mg719 Mg 0.49521 0.00202 0.70679 0.0
O720 O 0.48652 -8e-05 0.63872 0.0
Mg721 Mg 0.50872 0.00917 0.58626 0.0
O722 O 0.52914 0.01862 0.53001 0.0
Mg723 Mg 0.50659 0.00189 0.47124 0.0
Mg724 Mg 0.55245 0.01226 0.53513 0.0
C725 C 0.52202 0.97968 0.65949 0.0
O726 O 0.53927 0.03424 0.64014 0.0
O727 O 0.44495 0.99611 0.67715 0.0
O728 O 0.56702 0.03045 0.60737 0.0
O729 O 0.49055 0.046 0.68267 0.0
O730 O 0.46167 0.98338 0.73042 0.0
O731 O 0.50954 0.03649 0.73617 0.0
O732 O 0.48026 0.98438 0.52947 0.0
O733 O 0.45261 0.98882 0.55845 0.0
C734 C 0.45976 0.97958 0.52717 0.0
C735 C 0.44441 0.98421 0.71382 0.0
O736 O 0.51816 0.9831 0.61402 0.0
O737 O 0.53649 0.0216 0.42013 0.0
O738 O 0.51634 0.98704 0.6981 0.0
O739 O 0.51321 0.97159 0.46637 0.0
O740 O 0.56672 0.02647 0.46705 0.0
O741 O 0.53952 0.97656 0.52469 0.0
O742 O 0.49863 0.03487 0.56397 0.0
O743 O 0.49903 0.03111 0.48027 0.0
C744 C 0.50388 0.05059 0.72164 0.0
C745 C 0.55968 0.03843 0.64139 0.0
C746 C 0.51838 0.54949 0.67364 0.0
C747 C 0.44985 0.47726 0.7443 0.0
C748 C 0.48271 0.44287 0.68938 0.0
Mg749 Mg 0.54701 0.5509 0.57794 0.0
Mg750 Mg 0.52338 0.51253 0.48249 0.0
O751 O 0.53132 0.51814 0.55207 0.0
Mg752 Mg 0.50673 0.50551 0.5992 0.0
O753 O 0.48364 0.4942 0.64975 0.0
Mg754 Mg 0.50315 0.49938 0.71232 0.0
Mg755 Mg 0.45914 0.46473 0.63762 0.0
C756 C 0.49559 0.46251 0.51886 0.0
O757 O 0.47877 0.50206 0.5424 0.0
O758 O 0.57454 0.55609 0.52325 0.0
O759 O 0.44923 0.46905 0.56231 0.0
O760 O 0.53007 0.56084 0.51629 0.0
O761 O 0.55717 0.52939 0.45904 0.0
O762 O 0.50903 0.53268 0.4589 0.0
O763 O 0.53214 0.50793 0.66018 0.0
O764 O 0.56214 0.54023 0.6414 0.0
C765 C 0.55265 0.5235 0.66912 0.0
C766 C 0.57475 0.54641 0.481 0.0
O767 O 0.49717 0.46997 0.56486 0.0
O768 O 0.47108 0.48953 0.75577 0.0
O769 O 0.50283 0.47568 0.48256 0.0
O770 O 0.49487 0.46236 0.7124 0.0
O771 O 0.44186 0.46676 0.70091 0.0
O772 O 0.46843 0.43972 0.65362 0.0
O773 O 0.51771 0.54166 0.62867 0.0
O774 O 0.51206 0.53645 0.71003 0.0
C775 C 0.51651 0.55292 0.47715 0.0
C776 C 0.45843 0.48566 0.53389 0.0
H777 H 0.09976 0.44047 0.35892 0.0
H778 H 0.14447 0.47617 0.4899 0.0
H779 H 0.08091 0.46223 0.37181 0.0
H780 H 0.12498 0.49703 0.50464 0.0
H781 H 0.08722 0.53056 0.53616 0.0
H782 H 0.11219 0.52267 0.48713 0.0
H783 H 0.05547 0.45818 0.43145 0.0
H784 H 0.03099 0.46651 0.47887 0.0
C785 C 0.10589 0.45334 0.38982 0.0
C786 C 0.12363 0.45666 0.42346 0.0
C787 C 0.09499 0.46573 0.39746 0.0
C788 C 0.10116 0.48123 0.43969 0.0
C789 C 0.11988 0.48555 0.4713 0.0
C790 C 0.13097 0.47343 0.46319 0.0
C791 C 0.08013 0.51527 0.51141 0.0
C792 C 0.05735 0.49904 0.51127 0.0
C793 C 0.0944 0.51056 0.48386 0.0
C794 C 0.08599 0.48954 0.45612 0.0
C795 C 0.0627 0.47458 0.45191 0.0
C796 C 0.04857 0.47928 0.47929 0.0
H797 H 0.68327 0.08673 0.29349 0.0
H798 H 0.68008 0.13307 0.4032 0.0
H799 H 0.64238 0.06458 0.28485 0.0
H800 H 0.63939 0.1107 0.39604 0.0
H801 H 0.56753 0.06888 0.38925 0.0
H802 H 0.60273 0.09409 0.35204 0.0
H803 H 0.61819 0.04002 0.34391 0.0
H804 H 0.58319 0.01519 0.38011 0.0
C805 C 0.67379 0.09251 0.31471 0.0
C806 C 0.68481 0.11163 0.34901 0.0
C807 C 0.65039 0.07979 0.30996 0.0
C808 C 0.63754 0.08572 0.34 0.0
C809 C 0.64863 0.10576 0.37168 0.0
C810 C 0.67199 0.11852 0.3762 0.0
C811 C 0.57798 0.06218 0.37687 0.0
C812 C 0.57282 0.04021 0.38736 0.0
C813 C 0.59825 0.07665 0.35622 0.0
C814 C 0.61352 0.06924 0.34593 0.0
C815 C 0.60689 0.04635 0.35098 0.0
C816 C 0.58679 0.03204 0.37178 0.0
H817 H 0.54478 0.67902 0.35414 0.0
H818 H 0.55248 0.6369 0.24085 0.0
H819 H 0.52366 0.64612 0.40212 0.0
H820 H 0.53297 0.60436 0.29034 0.0
H821 H 0.49742 0.54655 0.381 0.0
H822 H 0.50185 0.57634 0.32711 0.0
H823 H 0.53383 0.62591 0.4535 0.0
H824 H 0.52835 0.59627 0.50718 0.0
C825 C 0.54203 0.66272 0.3396 0.0
C826 C 0.55116 0.66076 0.29482 0.0
C827 C 0.52998 0.64383 0.36717 0.0
C828 C 0.52704 0.62257 0.35101 0.0
C829 C 0.53476 0.62034 0.30423 0.0
C830 C 0.54638 0.63914 0.27615 0.0
C831 C 0.50467 0.56372 0.39755 0.0
C832 C 0.51304 0.5691 0.44813 0.0
C833 C 0.50748 0.58088 0.36649 0.0
C834 C 0.51882 0.60373 0.38538 0.0
C835 C 0.525 0.60863 0.43721 0.0
C836 C 0.522 0.59153 0.46819 0.0
H837 H 0.87226 0.54802 0.33355 0.0
H838 H 0.93224 0.61257 0.32335 0.0
H839 H 0.89459 0.52955 0.33724 0.0
H840 H 0.95485 0.59459 0.33183 0.0
H841 H 0.99476 0.56244 0.36087 0.0
H842 H 0.96923 0.57083 0.312 0.0
H843 H 0.91578 0.52844 0.40457 0.0
H844 H 0.94094 0.51969 0.45086 0.0
C845 C 0.89024 0.55826 0.33194 0.0
C846 C 0.90058 0.58188 0.33049 0.0
C847 C 0.9031 0.5477 0.33434 0.0
C848 C 0.92666 0.5606 0.33676 0.0
C849 C 0.9368 0.58398 0.33032 0.0
C850 C 0.92386 0.59444 0.32644 0.0
C851 C 0.97725 0.55417 0.36874 0.0
C852 C 0.96965 0.54043 0.40929 0.0
C853 C 0.96268 0.55919 0.3414 0.0
C854 C 0.94045 0.55071 0.35478 0.0
C855 C 0.93257 0.53519 0.39238 0.0
C856 C 0.94702 0.53016 0.41928 0.0
H857 H 0.35092 0.94311 0.28525 0.0
H858 H 0.32109 0.86991 0.37784 0.0
H859 H 0.39337 0.96064 0.34255 0.0
H860 H 0.36441 0.88899 0.4319 0.0
H861 H 0.42235 0.94161 0.54581 0.0
H862 H 0.3898 0.91898 0.488 0.0
H863 H 0.42639 0.95762 0.36583 0.0
H864 H 0.45926 0.98053 0.42483 0.0
C865 C 0.35321 0.9335 0.31378 0.0
C866 C 0.33285 0.90295 0.31904 0.0
C867 C 0.37999 0.94363 0.34729 0.0
C868 C 0.38426 0.92615 0.39042 0.0
C869 C 0.36167 0.89859 0.40411 0.0
C870 C 0.33427 0.88696 0.37257 0.0
C871 C 0.42366 0.94467 0.50621 0.0
C872 C 0.4432 0.96262 0.4895 0.0
C873 C 0.40501 0.93164 0.47289 0.0
C874 C 0.40544 0.93656 0.42228 0.0
C875 C 0.42553 0.9536 0.4048 0.0
C876 C 0.4444 0.96652 0.43825 0.0
H877 H 0.44417 0.31648 0.50443 0.0
H878 H 0.39909 0.32568 0.40459 0.0
H879 H 0.46732 0.35748 0.52096 0.0
H880 H 0.42182 0.36668 0.42195 0.0
H881 H 0.47824 0.43961 0.42706 0.0
H882 H 0.45777 0.39878 0.40758 0.0
H883 H 0.46589 0.38844 0.56396 0.0
H884 H 0.48733 0.4293 0.58289 0.0
C885 C 0.43931 0.32734 0.48587 0.0
C886 C 0.42004 0.31798 0.45275 0.0
C887 C 0.45244 0.35079 0.49561 0.0
C888 C 0.44645 0.36539 0.47275 0.0
C889 C 0.42714 0.35596 0.43952 0.0
C890 C 0.41406 0.33251 0.42969 0.0
C891 C 0.47586 0.42864 0.45723 0.0
C892 C 0.48412 0.43772 0.50676 0.0
C893 C 0.46392 0.40522 0.44612 0.0
C894 C 0.45998 0.39031 0.48425 0.0
C895 C 0.46871 0.39941 0.53359 0.0
C896 C 0.48072 0.42285 0.54464 0.0
H897 H 0.54046 0.87843 0.77911 0.0
H898 H 0.60931 0.9318 0.77574 0.0
H899 H 0.52851 0.89926 0.72603 0.0
H900 H 0.59719 0.95287 0.72341 0.0
H901 H 0.55558 0.99167 0.73018 0.0
H902 H 0.57281 0.96968 0.75575 0.0
H903 H 0.53296 0.91809 0.63755 0.0
H904 H 0.51597 0.94063 0.61095 0.0
C905 C 0.55312 0.89425 0.76573 0.0
C906 C 0.57591 0.90336 0.78109 0.0
C907 C 0.54626 0.90613 0.73522 0.0
C908 C 0.56196 0.92758 0.72052 0.0
C909 C 0.58479 0.93629 0.73407 0.0
C910 C 0.59171 0.92426 0.7639 0.0
C911 C 0.55082 0.97583 0.70907 0.0
C912 C 0.53432 0.96763 0.66908 0.0
C913 C 0.56079 0.96335 0.72341 0.0
C914 C 0.55415 0.9422 0.69866 0.0
C915 C 0.5383 0.93437 0.65719 0.0
C916 C 0.52866 0.94721 0.64198 0.0
H917 H 0.65115 0.5143 0.9063 0.0
H918 H 0.6742 0.59761 0.88619 0.0
H919 H 0.60957 0.50096 0.84834 0.0
H920 H 0.63254 0.58254 0.82892 0.0
H921 H 0.56746 0.5561 0.74405 0.0
H922 H 0.59435 0.56303 0.81391 0.0
H923 H 0.59425 0.50161 0.76682 0.0
H924 H 0.5662 0.49414 0.69832 0.0
C925 C 0.64712 0.52683 0.89396 0.0
C926 C 0.66871 0.55746 0.89463 0.0
C927 C 0.62171 0.51874 0.85602 0.0
C928 C 0.6167 0.54008 0.83024 0.0
C929 C 0.63594 0.5701 0.8444 0.0
C930 C 0.6617 0.5798 0.8818 0.0
C931 C 0.57281 0.54382 0.74966 0.0
C932 C 0.565 0.52469 0.7161 0.0
C933 C 0.58844 0.54791 0.78919 0.0
C934 C 0.59696 0.53322 0.79511 0.0
C935 C 0.58796 0.51321 0.76348 0.0
C936 C 0.57195 0.50891 0.72423 0.0
H937 H 0.08821 0.68367 0.87364 0.0
H938 H 0.09955 0.70369 0.72123 0.0
H939 H 0.07485 0.64476 0.8441 0.0
H940 H 0.08422 0.66436 0.69088 0.0
H941 H 0.07081 0.59301 0.6521 0.0
H942 H 0.08804 0.63286 0.68185 0.0
H943 H 0.04444 0.61374 0.80485 0.0
H944 H 0.0286 0.57421 0.77694 0.0
C945 C 0.08762 0.67979 0.83368 0.0
C946 C 0.09463 0.69689 0.7997 0.0
C947 C 0.07967 0.65728 0.81651 0.0
C948 C 0.07795 0.65108 0.76478 0.0
C949 C 0.0854 0.66829 0.73097 0.0
C950 C 0.09391 0.69088 0.74831 0.0
C951 C 0.06512 0.59746 0.68568 0.0
C952 C 0.04865 0.58053 0.71267 0.0
C953 C 0.07486 0.62033 0.70267 0.0
C954 C 0.0679 0.62676 0.74634 0.0
C955 C 0.05092 0.60964 0.77222 0.0
C956 C 0.04164 0.58688 0.75597 0.0
H957 H 0.48359 0.11082 0.97848 0.0
H958 H 0.51881 0.17062 0.8962 0.0
H959 H 0.48981 0.0887 0.91345 0.0
H960 H 0.52453 0.14824 0.83042 0.0
H961 H 0.49642 0.08567 0.70349 0.0
H962 H 0.49768 0.11359 0.76595 0.0
H963 H 0.5246 0.08869 0.87921 0.0
H964 H 0.52366 0.06099 0.81716 0.0
C965 C 0.49249 0.11916 0.94627 0.0
C966 C 0.50028 0.14232 0.94206 0.0
C967 C 0.49621 0.10658 0.90932 0.0
C968 C 0.50772 0.11682 0.86707 0.0
C969 C 0.51553 0.13996 0.86256 0.0
C970 C 0.51214 0.15269 0.90009 0.0
C971 C 0.50316 0.08652 0.74139 0.0
C972 C 0.50961 0.07082 0.75543 0.0
C973 C 0.50388 0.10253 0.77709 0.0
C974 C 0.51084 0.10296 0.82749 0.0
C975 C 0.51883 0.08844 0.8407 0.0
C976 C 0.51841 0.07267 0.80499 0.0
H977 H 0.34151 0.41593 0.93886 0.0
H978 H 0.36988 0.48725 0.98051 0.0
H979 H 0.36992 0.42483 0.87861 0.0
H980 H 0.39846 0.49621 0.91988 0.0
H981 H 0.45866 0.49747 0.84036 0.0
H982 H 0.43166 0.4906 0.9038 0.0
H983 H 0.37783 0.44361 0.79772 0.0
H984 H 0.40444 0.45022 0.7348 0.0
C985 C 0.35381 0.43352 0.935 0.0
C986 C 0.35331 0.45092 0.96382 0.0
C987 C 0.37004 0.43862 0.90049 0.0
C988 C 0.38627 0.46122 0.89431 0.0
C989 C 0.38619 0.47864 0.92405 0.0
C990 C 0.36981 0.47354 0.95843 0.0
C991 C 0.44106 0.48575 0.83056 0.0
C992 C 0.43378 0.47431 0.78254 0.0
C993 C 0.42562 0.4819 0.86681 0.0
C994 C 0.40271 0.4664 0.85576 0.0
C995 C 0.39544 0.45536 0.80755 0.0
C996 C 0.41074 0.45928 0.77139 0.0
H997 H 0.90035 0.33554 0.82184 0.0
H998 H 0.87443 0.36843 0.9173 0.0
H999 H 0.91735 0.3685 0.77257 0.0
H1000 H 0.89143 0.40168 0.86743 0.0
H1001 H 0.95799 0.46416 0.81509 0.0
H1002 H 0.93021 0.43154 0.85625 0.0
H1003 H 0.91035 0.39127 0.71479 0.0
H1004 H 0.9384 0.42367 0.67391 0.0
C1005 C 0.89786 0.34966 0.83154 0.0
C1006 C 0.8859 0.34932 0.87316 0.0
C1007 C 0.90751 0.36854 0.80314 0.0
C1008 C 0.90563 0.38771 0.81583 0.0
C1009 C 0.89321 0.38721 0.85677 0.0
C1010 C 0.8834 0.36817 0.88511 0.0
C1011 C 0.94722 0.44855 0.79246 0.0
C1012 C 0.95073 0.44636 0.7415 0.0
C1013 C 0.93126 0.42983 0.81607 0.0
C1014 C 0.91846 0.40865 0.78901 0.0
C1015 C 0.92037 0.4072 0.73693 0.0
C1016 C 0.93637 0.42581 0.71346 0.0
H1017 H 0.89838 0.52278 0.91164 0.0
H1018 H 0.91661 0.58445 0.8391 0.0
H1019 H 0.91746 0.51242 0.84916 0.0
H1020 H 0.93574 0.57434 0.77737 0.0
H1021 H 0.94665 0.54107 0.64433 0.0
H1022 H 0.92448 0.54557 0.7074 0.0
H1023 H 0.95619 0.52534 0.82065 0.0
H1024 H 0.97832 0.52044 0.75657 0.0
C1025 C 0.90638 0.53402 0.8822 0.0
C1026 C 0.90558 0.55414 0.87939 0.0
C1027 C 0.91739 0.52818 0.84676 0.0
C1028 C 0.92777 0.54239 0.80799 0.0
C1029 C 0.92741 0.56276 0.80609 0.0
C1030 C 0.91652 0.5686 0.84144 0.0
C1031 C 0.94868 0.5373 0.68258 0.0
C1032 C 0.9643 0.53061 0.69583 0.0
C1033 C 0.93607 0.53997 0.71871 0.0
C1034 C 0.93896 0.53629 0.76912 0.0
C1035 C 0.95363 0.52828 0.78201 0.0
C1036 C 0.96622 0.52542 0.74547 0.0
H1037 H 0.33277 0.87944 0.86162 0.0
H1038 H 0.30254 0.89542 0.73663 0.0
H1039 H 0.3691 0.91064 0.84555 0.0
H1040 H 0.33933 0.92566 0.71792 0.0
H1041 H 0.40665 0.98796 0.71014 0.0
H1042 H 0.37009 0.96142 0.739 0.0
H1043 H 0.39644 0.91938 0.78985 0.0
H1044 H 0.43297 0.94644 0.76385 0.0
C1045 C 0.3338 0.88947 0.83041 0.0
C1046 C 0.31462 0.88461 0.79983 0.0
C1047 C 0.35482 0.90736 0.82088 0.0
C1048 C 0.35738 0.92058 0.77989 0.0
C1049 C 0.33812 0.91609 0.75017 0.0
C1050 C 0.31701 0.89852 0.76042 0.0
C1051 C 0.40461 0.97318 0.72817 0.0
C1052 C 0.42269 0.96931 0.73474 0.0
C1053 C 0.38361 0.95784 0.74436 0.0
C1054 C 0.38012 0.93807 0.7666 0.0
C1055 C 0.39843 0.93455 0.77394 0.0
C1056 C 0.41946 0.95007 0.75869 0.0
H1057 H 0.42059 0.33457 0.86893 0.0
H1058 H 0.48993 0.35877 0.91481 0.0
H1059 H 0.43187 0.35688 0.79602 0.0
H1060 H 0.50132 0.37988 0.83979 0.0
H1061 H 0.511 0.44371 0.76459 0.0
H1062 H 0.50403 0.41354 0.81794 0.0
H1063 H 0.44718 0.36658 0.71797 0.0
H1064 H 0.45362 0.39742 0.66541 0.0
C1065 C 0.43827 0.3445 0.86315 0.0
C1066 C 0.45444 0.3459 0.89909 0.0
C1067 C 0.44478 0.35701 0.82065 0.0
C1068 C 0.46762 0.37071 0.81228 0.0
C1069 C 0.48363 0.3702 0.84574 0.0
C1070 C 0.47712 0.35804 0.88872 0.0
C1071 C 0.49729 0.42686 0.75317 0.0
C1072 C 0.48248 0.42317 0.71148 0.0
C1073 C 0.49334 0.40937 0.7838 0.0
C1074 C 0.47465 0.38757 0.7732 0.0
C1075 C 0.46132 0.38329 0.72825 0.0
C1076 C 0.46516 0.40094 0.69771 0.0
H1077 H 0.11213 0.44784 0.97413 0.0
H1078 H 0.08237 0.38743 0.87361 0.0
H1079 H 0.09899 0.46593 0.91605 0.0
H1080 H 0.0678 0.40485 0.81687 0.0
H1081 H 0.05512 0.447 0.70757 0.0
H1082 H 0.0742 0.43204 0.75881 0.0
H1083 H 0.06525 0.46396 0.89237 0.0
H1084 H 0.04731 0.47966 0.84116 0.0
C1085 C 0.10266 0.43839 0.93963 0.0
C1086 C 0.09777 0.41601 0.92908 0.0
C1087 C 0.09494 0.44868 0.90645 0.0
C1088 C 0.08183 0.43672 0.86213 0.0
C1089 C 0.07786 0.41466 0.85046 0.0
C1090 C 0.08597 0.40453 0.88329 0.0
C1091 C 0.0574 0.45091 0.74787 0.0
C1092 C 0.04975 0.46457 0.77024 0.0
C1093 C 0.06824 0.44224 0.77733 0.0
C1094 C 0.07138 0.44679 0.82991 0.0
C1095 C 0.0637 0.4605 0.85201 0.0
C1096 C 0.05321 0.4694 0.82257 0.0
H1097 H 0.67467 0.0873 0.84398 0.0
H1098 H 0.63647 0.11088 0.92499 0.0
H1099 H 0.64628 0.07267 0.77409 0.0
H1100 H 0.60807 0.09666 0.85427 0.0
H1101 H 0.55126 0.04174 0.74005 0.0
H1102 H 0.57911 0.06075 0.81119 0.0
H1103 H 0.6319 0.08593 0.70843 0.0
H1104 H 0.60425 0.06656 0.63813 0.0
C1105 C 0.66032 0.08963 0.8464 0.0
C1106 C 0.65792 0.10052 0.88951 0.0
C1107 C 0.64408 0.08135 0.80633 0.0
C1108 C 0.62502 0.08374 0.80835 0.0
C1109 C 0.62252 0.0945 0.85164 0.0
C1110 C 0.63882 0.10278 0.89189 0.0
C1111 C 0.56878 0.05174 0.73283 0.0
C1112 C 0.57565 0.05253 0.68377 0.0
C1113 C 0.58474 0.0626 0.77347 0.0
C1114 C 0.60776 0.07452 0.7655 0.0
C1115 C 0.61437 0.07639 0.71601 0.0
C1116 C 0.59852 0.0654 0.6757 0.0
H1117 H 0.60419 0.6976 0.72167 0.0
H1118 H 0.59463 0.66775 0.86449 0.0
H1119 H 0.57673 0.66063 0.68035 0.0
H1120 H 0.56779 0.63094 0.82363 0.0
H1121 H 0.50955 0.57004 0.75108 0.0
H1122 H 0.53109 0.60953 0.78272 0.0
H1123 H 0.57357 0.62412 0.65868 0.0
H1124 H 0.55134 0.58461 0.62592 0.0
C1125 C 0.59598 0.68316 0.74422 0.0
C1126 C 0.60125 0.68556 0.79639 0.0
C1127 C 0.58042 0.662 0.72058 0.0
C1128 C 0.56991 0.64282 0.74867 0.0
C1129 C 0.57513 0.64539 0.80091 0.0
C1130 C 0.59061 0.66647 0.82441 0.0
C1131 C 0.52325 0.58176 0.73003 0.0
C1132 C 0.52899 0.57413 0.68646 0.0
C1133 C 0.53569 0.60438 0.74835 0.0
C1134 C 0.55442 0.6199 0.72399 0.0
C1135 C 0.55923 0.61263 0.67839 0.0
C1136 C 0.54653 0.58994 0.65962 0.0
H1137 H 0.42348 0.10908 0.43471 0.0
H1138 H 0.4879 0.16214 0.49901 0.0
H1139 H 0.43367 0.08073 0.45553 0.0
H1140 H 0.49794 0.13366 0.52057 0.0
H1141 H 0.49743 0.07174 0.58961 0.0
H1142 H 0.48524 0.09942 0.57662 0.0
H1143 H 0.46324 0.07231 0.42289 0.0
H1144 H 0.47547 0.04493 0.43545 0.0
C1145 C 0.43972 0.11466 0.45375 0.0
C1146 C 0.45484 0.13782 0.46551 0.0
C1147 C 0.44555 0.09845 0.46558 0.0
C1148 C 0.46655 0.10504 0.48976 0.0
C1149 C 0.48152 0.12813 0.50251 0.0
C1150 C 0.47581 0.14439 0.4901 0.0
C1151 C 0.48987 0.07164 0.55318 0.0
C1152 C 0.4875 0.05624 0.51349 0.0
C1153 C 0.48302 0.08752 0.54572 0.0
C1154 C 0.4733 0.08795 0.49877 0.0
C1155 C 0.47051 0.07223 0.45956 0.0
C1156 C 0.47765 0.05665 0.46672 0.0
H1157 H 0.36812 0.52578 0.40002 0.0
H1158 H 0.33271 0.46484 0.47817 0.0
H1159 H 0.40112 0.52126 0.40126 0.0
H1160 H 0.36561 0.46059 0.48097 0.0
H1161 H 0.42248 0.45117 0.47974 0.0
H1162 H 0.39132 0.45323 0.43944 0.0
H1163 H 0.42863 0.52619 0.46529 0.0
H1164 H 0.46009 0.52407 0.50342 0.0
C1165 C 0.36727 0.51116 0.41648 0.0
C1166 C 0.34781 0.49553 0.43864 0.0
C1167 C 0.3862 0.50865 0.41753 0.0
C1168 C 0.38611 0.49057 0.44118 0.0
C1169 C 0.36625 0.47447 0.46144 0.0
C1170 C 0.34737 0.47695 0.46023 0.0
C1171 C 0.42429 0.46768 0.47504 0.0
C1172 C 0.44347 0.48743 0.49561 0.0
C1173 C 0.40637 0.46887 0.4524 0.0
C1174 C 0.40712 0.4898 0.45073 0.0
C1175 C 0.42737 0.50975 0.46601 0.0
C1176 C 0.44548 0.50857 0.48795 0.0
H1177 H 0.86753 0.34817 0.4056 0.0
H1178 H 0.91228 0.32553 0.46046 0.0
H1179 H 0.89425 0.38666 0.43916 0.0
H1180 H 0.93886 0.36417 0.49523 0.0
H1181 H 0.96868 0.43546 0.58689 0.0
H1182 H 0.94091 0.39578 0.56188 0.0
H1183 H 0.93462 0.41414 0.41179 0.0
H1184 H 0.96227 0.4534 0.43606 0.0
C1185 C 0.88308 0.3514 0.42474 0.0
C1186 C 0.88822 0.33399 0.4288 0.0
C1187 C 0.89829 0.3734 0.44416 0.0
C1188 C 0.91865 0.37833 0.46922 0.0
C1189 C 0.92326 0.36075 0.47597 0.0
C1190 C 0.90818 0.33876 0.45581 0.0
C1191 C 0.96139 0.43099 0.54859 0.0
C1192 C 0.9677 0.44759 0.5135 0.0
C1193 C 0.94559 0.40832 0.53432 0.0
C1194 C 0.93559 0.40205 0.48507 0.0
C1195 C 0.94192 0.41862 0.45015 0.0
C1196 C 0.95788 0.44108 0.46407 0.0
H1197 H 0.50317 0.84043 0.32304 0.0
H1198 H 0.57227 0.87802 0.38117 0.0
H1199 H 0.49572 0.86753 0.36887 0.0
H1200 H 0.56513 0.90537 0.42573 0.0
H1201 H 0.54422 0.94205 0.53249 0.0
H1202 H 0.54639 0.91011 0.49501 0.0
H1203 H 0.50418 0.90625 0.3666 0.0
H1204 H 0.50148 0.93772 0.40464 0.0
C1205 C 0.51678 0.85462 0.34525 0.0
C1206 C 0.53838 0.85734 0.34787 0.0
C1207 C 0.51255 0.87014 0.37149 0.0
C1208 C 0.52981 0.88864 0.40111 0.0
C1209 C 0.55133 0.89115 0.40401 0.0
C1210 C 0.55553 0.87564 0.37795 0.0
C1211 C 0.53507 0.93414 0.49668 0.0
C1212 C 0.52289 0.94265 0.47134 0.0
C1213 C 0.53646 0.91593 0.47497 0.0
C1214 C 0.52581 0.90586 0.42731 0.0
C1215 C 0.51252 0.9135 0.40341 0.0
C1216 C 0.51103 0.93163 0.42524 0.0
H1217 H 0.71491 0.58123 0.37324 0.0
H1218 H 0.68372 0.61794 0.25433 0.0
H1219 H 0.67597 0.56719 0.43084 0.0
H1220 H 0.64577 0.60317 0.3152 0.0
H1221 H 0.57917 0.54801 0.38049 0.0
H1222 H 0.61372 0.56367 0.33685 0.0
H1223 H 0.65232 0.58093 0.47921 0.0
H1224 H 0.61765 0.56583 0.52333 0.0
C1225 C 0.70264 0.58619 0.36393 0.0
C1226 C 0.70133 0.5976 0.30245 0.0
C1227 C 0.67792 0.57677 0.39827 0.0
C1228 C 0.65613 0.58259 0.37788 0.0
C1229 C 0.65884 0.59942 0.32523 0.0
C1230 C 0.68291 0.60965 0.28851 0.0
C1231 C 0.59503 0.55516 0.4025 0.0
C1232 C 0.59578 0.5557 0.45526 0.0
C1233 C 0.61476 0.56425 0.37755 0.0
C1234 C 0.63555 0.57348 0.4048 0.0
C1235 C 0.6364 0.57377 0.45748 0.0
C1236 C 0.61664 0.56526 0.48263 0.0
H1237 H 0.09244 0.70071 0.39222 0.0
H1238 H 0.13673 0.68026 0.32882 0.0
H1239 H 0.08318 0.67324 0.45487 0.0
H1240 H 0.12885 0.65387 0.39407 0.0
H1241 H 0.07698 0.58448 0.44813 0.0
H1242 H 0.09888 0.61856 0.40589 0.0
H1243 H 0.0901 0.65783 0.52492 0.0
H1244 H 0.06701 0.62317 0.56622 0.0
C1245 C 0.1004 0.6905 0.39192 0.0
C1246 C 0.11432 0.69172 0.35364 0.0
C1247 C 0.09542 0.67496 0.42866 0.0
C1248 C 0.1048 0.66077 0.42905 0.0
C1249 C 0.12062 0.66384 0.39397 0.0
C1250 C 0.12523 0.67905 0.35662 0.0
C1251 C 0.08013 0.60041 0.46614 0.0
C1252 C 0.06967 0.60094 0.50988 0.0
C1253 C 0.09291 0.62016 0.44188 0.0
C1254 C 0.09589 0.64107 0.46114 0.0
C1255 C 0.08755 0.64196 0.50801 0.0
C1256 C 0.07449 0.62209 0.53203 0.0
loop_
_geom_bond_atom_site_label_1
_geom_bond_atom_site_label_2
_geom_bond_distance
_geom_bond_site_symmetry_2
_ccdc_geom_bond_type
C0 C1 1.560 . S
C0 H61 0.959 . S
C0 H62 0.959 . S
C0 H63 0.960 . S
C1 C0 1.560 . S
C1 O56 1.426 . S
C1 H60 0.980 . S
C2 C3 1.407 . S
C2 C7 1.418 . S
C2 O56 1.334 . S
C3 C2 1.407 . S
C3 C4 1.360 . S
C3 H64 0.929 . S
C4 C3 1.360 . S
C4 C5 1.401 . S
C4 C8 1.527 . S
C5 C4 1.401 . S
C5 C6 1.405 . S
C5 C38 1.587 . S
C6 C5 1.405 . S
C6 C7 1.332 . S
C6 C9 1.496 . S
C7 C2 1.418 . S
C7 C6 1.332 . S
C7 H65 0.929 . S
C8 C4 1.527 . S
C8 H66 0.959 . S
C8 H67 0.961 . S
C8 H68 0.961 . S
C9 C6 1.496 . S
C9 H69 0.960 . S
C9 H70 0.960 . S
C9 H71 0.961 . S
C10 C11 1.517 . S
C10 H73 0.961 . S
C10 H74 0.960 . S
C10 H75 0.959 . S
C11 C10 1.517 . S
C11 O59 1.468 . S
C11 H72 0.980 . S
C12 C13 1.349 . S
C12 C17 1.367 . S
C12 O59 1.408 . S
C13 C12 1.349 . S
C13 C14 1.407 . S
C13 H76 0.930 . S
C14 C13 1.407 . S
C14 C15 1.449 . S
C14 C18 1.535 . S
C15 C14 1.449 . S
C15 C16 1.384 . S
C15 C40 1.553 . S
C16 C15 1.384 . S
C16 C17 1.364 . S
C16 C19 1.450 . S
C17 C12 1.367 . S
C17 C16 1.364 . S
C17 H77 0.931 . S
C18 C14 1.535 . S
C18 H78 0.959 . S
C18 H79 0.961 . S
C18 H80 0.959 . S
C19 C16 1.450 . S
C19 H81 0.960 . S
C19 H82 0.960 . S
C19 H83 0.960 . S
C20 C21 1.309 . S
C20 C25 1.304 . S
C20 O58 1.435 1_554 S
C21 C20 1.309 . S
C21 C22 1.476 . S
C21 H85 0.930 . S
C22 C21 1.476 . S
C22 C23 1.400 . S
C22 C26 1.567 . S
C23 C22 1.400 . S
C23 C24 1.373 . S
C23 C45 1.432 . S
C24 C23 1.373 . S
C24 C25 1.339 . S
C24 C27 1.530 . S
C25 C20 1.304 . S
C25 C24 1.339 . S
C25 H86 0.930 1_554 S
C26 C22 1.567 . S
C26 H87 0.961 . S
C26 H88 0.960 . S
C26 H89 0.958 . S
C27 C24 1.530 . S
C27 H90 0.961 . S
C27 H91 0.960 . S
C27 H92 0.960 . S
C28 C29 1.530 . S
C28 H94 0.961 . S
C28 H95 0.961 . S
C28 H96 0.959 . S
C29 C28 1.530 . S
C29 O57 1.412 . S
C29 H93 0.980 . S
C30 C31 1.288 . S
C30 C35 1.377 . S
C30 O57 1.393 1_554 S
C31 C30 1.288 . S
C31 C32 1.369 . S
C31 H97 0.932 . S
C32 C31 1.369 . S
C32 C33 1.398 . S
C32 C36 1.527 . S
C33 C32 1.398 . S
C33 C34 1.380 . S
C33 C47 1.497 . S
C34 C33 1.380 . S
C34 C35 1.383 . S
C34 C37 1.603 . S
C35 C30 1.377 . S
C35 C34 1.383 . S
C35 H98 0.929 . S
C36 C32 1.527 . S
C36 H99 0.961 . S
C36 H100 0.959 . S
C36 H101 0.959 . S
C37 C34 1.603 . S
C37 H102 0.960 . S
C37 H103 0.962 . S
C37 H104 0.961 . S
C38 C5 1.587 . S
C38 C39 1.360 . S
C38 C51 1.412 . S
C39 C38 1.360 . S
C39 C40 1.365 . S
C39 H105 0.929 . S
C40 C15 1.553 . S
C40 C39 1.365 . S
C40 C41 1.404 . S
C41 C40 1.404 . S
C41 C42 1.395 . S
C41 C52 1.451 . S
C42 C41 1.395 . S
C42 C43 1.322 . S
C42 H106 0.930 . S
C43 C42 1.322 . S
C43 C44 1.459 . S
C43 H107 0.929 . S
C44 C43 1.459 . S
C44 C45 1.445 . S
C44 C53 1.395 . S
C45 C23 1.432 . S
C45 C44 1.445 . S
C45 C46 1.370 . S
C46 C45 1.370 . S
C46 C47 1.438 . S
C46 H108 0.930 . S
C47 C33 1.497 . S
C47 C46 1.438 . S
C47 C48 1.360 . S
C48 C47 1.360 . S
C48 C49 1.401 . S
C48 C53 1.446 . S
C49 C48 1.401 . S
C49 C50 1.347 . S
C49 H109 0.929 . S
C50 C49 1.347 . S
C50 C51 1.455 . S
C50 H110 0.930 . S
C51 C38 1.412 . S
C51 C50 1.455 . S
C51 C52 1.331 . S
C52 C41 1.451 . S
C52 C51 1.331 . S
C52 C53 1.497 . S
C53 C44 1.395 . S
C53 C48 1.446 . S
C53 C52 1.497 . S
C54 C55 1.582 . S
C54 H111 0.962 . S
C54 H112 0.959 . S
C54 H113 0.958 . S
C55 C54 1.582 . S
C55 O58 1.458 . S
C55 H84 0.980 1_556 S
O56 C1 1.426 . S
O56 C2 1.334 . S
O57 C29 1.412 . S
O57 C30 1.393 1_556 S
O58 C20 1.435 1_556 S
O58 C55 1.458 . S
O59 C11 1.468 . S
O59 C12 1.408 . S
H60 C1 0.980 . S
H61 C0 0.959 . S
H62 C0 0.959 . S
H63 C0 0.960 . S
H64 C3 0.929 . S
H65 C7 0.929 . S
H66 C8 0.959 . S
H67 C8 0.961 . S
H68 C8 0.961 . S
H69 C9 0.960 . S
H70 C9 0.960 . S
H71 C9 0.961 . S
H72 C11 0.980 . S
H73 C10 0.961 . S
H74 C10 0.960 . S
H75 C10 0.959 . S
H76 C13 0.930 . S
H77 C17 0.931 . S
H78 C18 0.959 . S
H79 C18 0.961 . S
H80 C18 0.959 . S
H81 C19 0.960 . S
H82 C19 0.960 . S
H83 C19 0.960 . S
H84 C55 0.980 1_554 S
H85 C21 0.930 . S
H86 C25 0.930 1_556 S
H87 C26 0.961 . S
H88 C26 0.960 . S
H89 C26 0.958 . S
H90 C27 0.961 . S
H91 C27 0.960 . S
H92 C27 0.960 . S
H93 C29 0.980 . S
H94 C28 0.961 . S
H95 C28 0.961 . S
H96 C28 0.959 . S
H97 C31 0.932 . S
H98 C35 0.929 . S
H99 C36 0.961 . S
H100 C36 0.959 . S
H101 C36 0.959 . S
H102 C37 0.960 . S
H103 C37 0.962 . S
H104 C37 0.961 . S
H105 C39 0.929 . S
H106 C42 0.930 . S
H107 C43 0.929 . S
H108 C46 0.930 . S
H109 C49 0.929 . S
H110 C50 0.930 . S
H111 C54 0.962 . S
H112 C54 0.959 . S
H113 C54 0.958 . S
C114 C115 1.560 . S
C114 H175 0.959 . S
C114 H176 0.959 . S
C114 H177 0.960 . S
C115 C114 1.560 . S
C115 O170 1.426 . S
C115 H174 0.980 . S
C116 C117 1.407 . S
C116 C121 1.418 . S
C116 O170 1.334 . S
C117 C116 1.407 . S
C117 C118 1.360 . S
C117 H178 0.929 . S
C118 C117 1.360 . S
C118 C119 1.401 . S
C118 C122 1.527 . S
C119 C118 1.401 . S
C119 C120 1.405 . S
C119 C152 1.587 . S
C120 C119 1.405 . S
C120 C121 1.332 . S
C120 C123 1.496 . S
C121 C116 1.418 . S
C121 C120 1.332 . S
C121 H179 0.929 . S
C122 C118 1.527 . S
C122 H180 0.959 . S
C122 H181 0.961 . S
C122 H182 0.961 . S
C123 C120 1.496 . S
C123 H183 0.960 . S
C123 H184 0.960 . S
C123 H185 0.961 . S
C124 C125 1.517 . S
C124 H187 0.961 . S
C124 H188 0.960 . S
C124 H189 0.959 . S
C125 C124 1.517 . S
C125 O173 1.468 . S
C125 H186 0.980 . S
C126 C127 1.349 . S
C126 C131 1.367 . S
C126 O173 1.408 . S
C127 C126 1.349 . S
C127 C128 1.407 . S
C127 H190 0.930 . S
C128 C127 1.407 . S
C128 C129 1.449 . S
C128 C132 1.535 . S
C129 C128 1.449 . S
C129 C130 1.384 . S
C129 C154 1.553 . S
C130 C129 1.384 . S
C130 C131 1.364 . S
C130 C133 1.450 . S
C131 C126 1.367 . S
C131 C130 1.364 . S
C131 H191 0.931 . S
C132 C128 1.535 . S
C132 H192 0.959 . S
C132 H193 0.961 . S
C132 H194 0.959 . S
C133 C130 1.450 . S
C133 H195 0.960 . S
C133 H196 0.960 . S
C133 H197 0.960 . S
C134 C135 1.309 . S
C134 C139 1.304 . S
C134 O172 1.435 . S
C135 C134 1.309 . S
C135 C136 1.476 . S
C135 H199 0.930 . S
C136 C135 1.476 . S
C136 C137 1.400 . S
C136 C140 1.567 . S
C137 C136 1.400 . S
C137 C138 1.373 . S
C137 C159 1.432 1_556 S
C138 C137 1.373 . S
C138 C139 1.339 . S
C138 C141 1.530 . S
C139 C134 1.304 . S
C139 C138 1.339 . S
C139 H200 0.930 . S
C140 C136 1.567 . S
C140 H201 0.961 1_556 S
C140 H202 0.960 . S
C140 H203 0.958 . S
C141 C138 1.530 . S
C141 H204 0.961 . S
C141 H205 0.960 1_556 S
C141 H206 0.960 . S
C142 C143 1.530 . S
C142 H208 0.961 . S
C142 H209 0.961 . S
C142 H210 0.959 . S
C143 C142 1.530 . S
C143 O171 1.412 . S
C143 H207 0.980 . S
C144 C145 1.288 . S
C144 C149 1.377 . S
C144 O171 1.393 . S
C145 C144 1.288 . S
C145 C146 1.369 . S
C145 H211 0.932 . S
C146 C145 1.369 . S
C146 C147 1.398 . S
C146 C150 1.527 . S
C147 C146 1.398 . S
C147 C148 1.380 . S
C147 C161 1.497 1_556 S
C148 C147 1.380 . S
C148 C149 1.383 . S
C148 C151 1.603 . S
C149 C144 1.377 . S
C149 C148 1.383 . S
C149 H212 0.929 . S
C150 C146 1.527 . S
C150 H213 0.961 1_556 S
C150 H214 0.959 . S
C150 H215 0.959 . S
C151 C148 1.603 . S
C151 H216 0.960 . S
C151 H217 0.962 . S
C151 H218 0.961 1_556 S
C152 C119 1.587 . S
C152 C153 1.360 . S
C152 C165 1.412 . S
C153 C152 1.360 . S
C153 C154 1.365 . S
C153 H219 0.929 . S
C154 C129 1.553 . S
C154 C153 1.365 . S
C154 C155 1.404 . S
C155 C154 1.404 . S
C155 C156 1.395 . S
C155 C166 1.451 . S
C156 C155 1.395 . S
C156 C157 1.322 . S
C156 H220 0.930 . S
C157 C156 1.322 . S
C157 C158 1.459 . S
C157 H221 0.929 . S
C158 C157 1.459 . S
C158 C159 1.445 . S
C158 C167 1.395 . S
C159 C137 1.432 1_554 S
C159 C158 1.445 . S
C159 C160 1.370 1_554 S
C160 C159 1.370 1_556 S
C160 C161 1.438 1_556 S
C160 H222 0.930 . S
C161 C147 1.497 1_554 S
C161 C160 1.438 1_554 S
C161 C162 1.360 . S
C162 C161 1.360 . S
C162 C163 1.401 . S
C162 C167 1.446 . S
C163 C162 1.401 . S
C163 C164 1.347 . S
C163 H223 0.929 . S
C164 C163 1.347 . S
C164 C165 1.455 . S
C164 H224 0.930 . S
C165 C152 1.412 . S
C165 C164 1.455 . S
C165 C166 1.331 . S
C166 C155 1.451 . S
C166 C165 1.331 . S
C166 C167 1.497 . S
C167 C158 1.395 . S
C167 C162 1.446 . S
C167 C166 1.497 . S
C168 C169 1.582 . S
C168 H225 0.962 . S
C168 H226 0.959 . S
C168 H227 0.958 . S
C169 C168 1.582 . S
C169 O172 1.458 . S
C169 H198 0.980 . S
O170 C115 1.426 . S
O170 C116 1.334 . S
O171 C143 1.412 . S
O171 C144 1.393 . S
O172 C134 1.435 . S
O172 C169 1.458 . S
O173 C125 1.468 . S
O173 C126 1.408 . S
H174 C115 0.980 . S
H175 C114 0.959 . S
H176 C114 0.959 . S
H177 C114 0.960 . S
H178 C117 0.929 . S
H179 C121 0.929 . S
H180 C122 0.959 . S
H181 C122 0.961 . S
H182 C122 0.961 . S
H183 C123 0.960 . S
H184 C123 0.960 . S
H185 C123 0.961 . S
H186 C125 0.980 . S
H187 C124 0.961 . S
H188 C124 0.960 . S
H189 C124 0.959 . S
H190 C127 0.930 . S
H191 C131 0.931 . S
H192 C132 0.959 . S
H193 C132 0.961 . S
H194 C132 0.959 . S
H195 C133 0.960 . S
H196 C133 0.960 . S
H197 C133 0.960 . S
H198 C169 0.980 . S
H199 C135 0.930 . S
H200 C139 0.930 . S
H201 C140 0.961 1_554 S
H202 C140 0.960 . S
H203 C140 0.958 . S
H204 C141 0.961 . S
H205 C141 0.960 1_554 S
H206 C141 0.960 . S
H207 C143 0.980 . S
H208 C142 0.961 . S
H209 C142 0.961 . S
H210 C142 0.959 . S
H211 C145 0.932 . S
H212 C149 0.929 . S
H213 C150 0.961 1_554 S
H214 C150 0.959 . S
H215 C150 0.959 . S
H216 C151 0.960 . S
H217 C151 0.962 . S
H218 C151 0.961 1_554 S
H219 C153 0.929 . S
H220 C156 0.930 . S
H221 C157 0.929 . S
H222 C160 0.930 . S
H223 C163 0.929 . S
H224 C164 0.930 . S
H225 C168 0.962 . S
H226 C168 0.959 . S
H227 C168 0.958 . S
C228 C229 1.560 . S
C228 H289 0.959 . S
C228 H290 0.959 . S
C228 H291 0.960 . S
C229 C228 1.560 . S
C229 O284 1.426 . S
C229 H288 0.980 . S
C230 C231 1.407 . S
C230 C235 1.418 . S
C230 O284 1.334 . S
C231 C230 1.407 . S
C231 C232 1.360 . S
C231 H292 0.929 . S
C232 C231 1.360 . S
C232 C233 1.401 . S
C232 C236 1.527 . S
C233 C232 1.401 . S
C233 C234 1.405 . S
C233 C266 1.587 . S
C234 C233 1.405 . S
C234 C235 1.332 . S
C234 C237 1.496 . S
C235 C230 1.418 . S
C235 C234 1.332 . S
C235 H293 0.929 . S
C236 C232 1.527 . S
C236 H294 0.959 . S
C236 H295 0.961 . S
C236 H296 0.961 . S
C237 C234 1.496 . S
C237 H297 0.960 . S
C237 H298 0.960 . S
C237 H299 0.961 . S
C238 C239 1.517 . S
C238 H301 0.961 . S
C238 H302 0.960 . S
C238 H303 0.959 . S
C239 C238 1.517 . S
C239 O287 1.468 . S
C239 H300 0.980 . S
C240 C241 1.349 . S
C240 C245 1.367 . S
C240 O287 1.408 . S
C241 C240 1.349 . S
C241 C242 1.407 . S
C241 H304 0.930 . S
C242 C241 1.407 . S
C242 C243 1.449 . S
C242 C246 1.535 . S
C243 C242 1.449 . S
C243 C244 1.384 . S
C243 C268 1.553 . S
C244 C243 1.384 . S
C244 C245 1.364 . S
C244 C247 1.450 . S
C245 C240 1.367 . S
C245 C244 1.364 . S
C245 H305 0.931 . S
C246 C242 1.535 . S
C246 H306 0.959 . S
C246 H307 0.961 . S
C246 H308 0.959 . S
C247 C244 1.450 . S
C247 H309 0.960 . S
C247 H310 0.960 . S
C247 H311 0.960 . S
C248 C249 1.309 . S
C248 C253 1.304 . S
C248 O286 1.435 . S
C249 C248 1.309 . S
C249 C250 1.476 . S
C249 H313 0.930 . S
C250 C249 1.476 . S
C250 C251 1.400 . S
C250 C254 1.567 . S
C251 C250 1.400 . S
C251 C252 1.373 . S
C251 C273 1.432 . S
C252 C251 1.373 . S
C252 C253 1.339 . S
C252 C255 1.530 . S
C253 C248 1.304 . S
C253 C252 1.339 . S
C253 H314 0.930 . S
C254 C250 1.567 . S
C254 H315 0.961 . S
C254 H316 0.960 . S
C254 H317 0.958 . S
C255 C252 1.530 . S
C255 H318 0.961 . S
C255 H319 0.960 . S
C255 H320 0.960 . S
C256 C257 1.530 . S
C256 H322 0.961 . S
C256 H323 0.961 . S
C256 H324 0.959 . S
C257 C256 1.530 . S
C257 O285 1.412 . S
C257 H321 0.980 . S
C258 C259 1.288 . S
C258 C263 1.377 . S
C258 O285 1.393 . S
C259 C258 1.288 . S
C259 C260 1.369 . S
C259 H325 0.932 . S
C260 C259 1.369 . S
C260 C261 1.398 . S
C260 C264 1.527 . S
C261 C260 1.398 . S
C261 C262 1.380 . S
C261 C275 1.497 . S
C262 C261 1.380 . S
C262 C263 1.383 . S
C262 C265 1.603 . S
C263 C258 1.377 . S
C263 C262 1.383 . S
C263 H326 0.929 . S
C264 C260 1.527 . S
C264 H327 0.961 . S
C264 H328 0.959 . S
C264 H329 0.959 . S
C265 C262 1.603 . S
C265 H330 0.960 . S
C265 H331 0.962 . S
C265 H332 0.961 . S
C266 C233 1.587 . S
C266 C267 1.360 . S
C266 C279 1.412 . S
C267 C266 1.360 . S
C267 C268 1.365 . S
C267 H333 0.929 . S
C268 C243 1.553 . S
C268 C267 1.365 . S
C268 C269 1.404 . S
C269 C268 1.404 . S
C269 C270 1.395 . S
C269 C280 1.451 . S
C270 C269 1.395 . S
C270 C271 1.322 . S
C270 H334 0.930 . S
C271 C270 1.322 . S
C271 C272 1.459 . S
C271 H335 0.929 . S
C272 C271 1.459 . S
C272 C273 1.445 1_554 S
C272 C281 1.395 . S
C273 C251 1.432 . S
C273 C272 1.445 1_556 S
C273 C274 1.370 . S
C274 C273 1.370 . S
C274 C275 1.438 . S
C274 H336 0.930 . S
C275 C261 1.497 . S
C275 C274 1.438 . S
C275 C276 1.364 . S
C276 C275 1.364 . S
C276 C277 1.399 1_556 S
C276 C281 1.444 1_556 S
C277 C276 1.399 1_554 S
C277 C278 1.347 . S
C277 H337 0.929 . S
C278 C277 1.347 . S
C278 C279 1.455 . S
C278 H338 0.930 . S
C279 C266 1.412 . S
C279 C278 1.455 . S
C279 C280 1.331 . S
C280 C269 1.451 . S
C280 C279 1.331 . S
C280 C281 1.497 . S
C281 C272 1.395 . S
C281 C276 1.444 1_554 S
C281 C280 1.497 . S
C282 C283 1.582 . S
C282 H339 0.962 . S
C282 H340 0.959 . S
C282 H341 0.958 . S
C283 C282 1.582 . S
C283 O286 1.458 . S
C283 H312 0.980 . S
O284 C229 1.426 . S
O284 C230 1.334 . S
O285 C257 1.412 . S
O285 C258 1.393 . S
O286 C248 1.435 . S
O286 C283 1.458 . S
O287 C239 1.468 . S
O287 C240 1.408 . S
H288 C229 0.980 . S
H289 C228 0.959 . S
H290 C228 0.959 . S
H291 C228 0.960 . S
H292 C231 0.929 . S
H293 C235 0.929 . S
H294 C236 0.959 . S
H295 C236 0.961 . S
H296 C236 0.961 . S
H297 C237 0.960 . S
H298 C237 0.960 . S
H299 C237 0.961 . S
H300 C239 0.980 . S
H301 C238 0.961 . S
H302 C238 0.960 . S
H303 C238 0.959 . S
H304 C241 0.930 . S
H305 C245 0.931 . S
H306 C246 0.959 . S
H307 C246 0.961 . S
H308 C246 0.959 . S
H309 C247 0.960 . S
H310 C247 0.960 . S
H311 C247 0.960 . S
H312 C283 0.980 . S
H313 C249 0.930 . S
H314 C253 0.930 . S
H315 C254 0.961 . S
H316 C254 0.960 . S
H317 C254 0.958 . S
H318 C255 0.961 . S
H319 C255 0.960 . S
H320 C255 0.960 . S
H321 C257 0.980 . S
H322 C256 0.961 . S
H323 C256 0.961 . S
H324 C256 0.959 . S
H325 C259 0.932 . S
H326 C263 0.929 . S
H327 C264 0.961 . S
H328 C264 0.959 . S
H329 C264 0.959 . S
H330 C265 0.960 . S
H331 C265 0.962 . S
H332 C265 0.961 . S
H333 C267 0.929 . S
H334 C270 0.930 . S
H335 C271 0.929 . S
H336 C274 0.930 . S
H337 C277 0.929 . S
H338 C278 0.930 . S
H339 C282 0.962 . S
H340 C282 0.959 . S
H341 C282 0.958 . S
C342 C343 1.560 . S
C342 H403 0.959 . S
C342 H404 0.959 . S
C342 H405 0.960 . S
C343 C342 1.560 . S
C343 O398 1.426 . S
C343 H402 0.980 . S
C344 C345 1.407 . S
C344 C349 1.418 . S
C344 O398 1.334 . S
C345 C344 1.407 . S
C345 C346 1.360 . S
C345 H406 0.929 . S
C346 C345 1.360 . S
C346 C347 1.401 . S
C346 C350 1.527 . S
C347 C346 1.401 . S
C347 C348 1.405 . S
C347 C380 1.587 . S
C348 C347 1.405 . S
C348 C349 1.332 . S
C348 C351 1.496 . S
C349 C344 1.418 . S
C349 C348 1.332 . S
C349 H407 0.929 . S
C350 C346 1.527 . S
C350 H408 0.959 . S
C350 H409 0.961 . S
C350 H410 0.961 . S
C351 C348 1.496 . S
C351 H411 0.960 . S
C351 H412 0.960 . S
C351 H413 0.961 . S
C352 C353 1.517 . S
C352 H415 0.961 . S
C352 H416 0.960 . S
C352 H417 0.959 . S
C353 C352 1.517 . S
C353 O401 1.468 . S
C353 H414 0.980 . S
C354 C355 1.349 . S
C354 C359 1.367 . S
C354 O401 1.408 . S
C355 C354 1.349 . S
C355 C356 1.407 . S
C355 H418 0.930 . S
C356 C355 1.407 . S
C356 C357 1.449 . S
C356 C360 1.535 . S
C357 C356 1.449 . S
C357 C358 1.384 . S
C357 C382 1.553 . S
C358 C357 1.384 . S
C358 C359 1.364 . S
C358 C361 1.450 . S
C359 C354 1.367 . S
C359 C358 1.364 . S
C359 H419 0.931 . S
C360 C356 1.535 . S
C360 H420 0.959 . S
C360 H421 0.961 . S
C360 H422 0.959 . S
C361 C358 1.450 . S
C361 H423 0.960 . S
C361 H424 0.960 . S
C361 H425 0.960 . S
C362 C363 1.309 . S
C362 C367 1.304 . S
C362 O400 1.435 . S
C363 C362 1.309 . S
C363 C364 1.476 . S
C363 H427 0.930 . S
C364 C363 1.476 . S
C364 C365 1.400 . S
C364 C368 1.567 . S
C365 C364 1.400 . S
C365 C366 1.373 . S
C365 C387 1.432 . S
C366 C365 1.373 . S
C366 C367 1.339 . S
C366 C369 1.530 . S
C367 C362 1.304 . S
C367 C366 1.339 . S
C367 H428 0.930 . S
C368 C364 1.567 . S
C368 H429 0.961 . S
C368 H430 0.960 . S
C368 H431 0.958 . S
C369 C366 1.530 . S
C369 H432 0.961 . S
C369 H433 0.960 . S
C369 H434 0.960 . S
C370 C371 1.530 . S
C370 H436 0.961 . S
C370 H437 0.961 . S
C370 H438 0.959 . S
C371 C370 1.530 . S
C371 O399 1.412 . S
C371 H435 0.980 . S
C372 C373 1.288 . S
C372 C377 1.377 . S
C372 O399 1.393 . S
C373 C372 1.288 . S
C373 C374 1.369 . S
C373 H439 0.932 . S
C374 C373 1.369 . S
C374 C375 1.398 . S
C374 C378 1.527 . S
C375 C374 1.398 . S
C375 C376 1.380 . S
C375 C389 1.497 . S
C376 C375 1.380 . S
C376 C377 1.383 . S
C376 C379 1.603 . S
C377 C372 1.377 . S
C377 C376 1.383 . S
C377 H440 0.929 . S
C378 C374 1.527 . S
C378 H441 0.961 . S
C378 H442 0.959 . S
C378 H443 0.959 . S
C379 C376 1.603 . S
C379 H444 0.960 . S
C379 H445 0.962 . S
C379 H446 0.961 . S
C380 C347 1.587 . S
C380 C381 1.360 . S
C380 C393 1.412 . S
C381 C380 1.360 . S
C381 C382 1.365 . S
C381 H447 0.929 . S
C382 C357 1.553 . S
C382 C381 1.365 . S
C382 C383 1.404 . S
C383 C382 1.404 . S
C383 C384 1.395 . S
C383 C394 1.451 . S
C384 C383 1.395 . S
C384 C385 1.322 . S
C384 H448 0.930 . S
C385 C384 1.322 . S
C385 C386 1.459 1_554 S
C385 H449 0.931 . S
C386 C385 1.459 1_556 S
C386 C387 1.445 . S
C386 C395 1.395 1_556 S
C387 C365 1.432 . S
C387 C386 1.445 . S
C387 C388 1.370 . S
C388 C387 1.370 . S
C388 C389 1.438 . S
C388 H450 0.930 . S
C389 C375 1.497 . S
C389 C388 1.438 . S
C389 C390 1.360 . S
C390 C389 1.360 . S
C390 C391 1.401 1_556 S
C390 C395 1.446 1_556 S
C391 C390 1.401 1_554 S
C391 C392 1.347 . S
C391 H451 0.929 . S
C392 C391 1.347 . S
C392 C393 1.455 . S
C392 H452 0.930 . S
C393 C380 1.412 . S
C393 C392 1.455 . S
C393 C394 1.331 . S
C394 C383 1.451 . S
C394 C393 1.331 . S
C394 C395 1.497 . S
C395 C386 1.395 1_554 S
C395 C390 1.446 1_554 S
C395 C394 1.497 . S
C396 C397 1.582 . S
C396 H453 0.962 . S
C396 H454 0.959 . S
C396 H455 0.958 . S
C397 C396 1.582 . S
C397 O400 1.458 . S
C397 H426 0.980 . S
O398 C343 1.426 . S
O398 C344 1.334 . S
O399 C371 1.412 . S
O399 C372 1.393 . S
O400 C362 1.435 . S
O400 C397 1.458 . S
O401 C353 1.468 . S
O401 C354 1.408 . S
H402 C343 0.980 . S
H403 C342 0.959 . S
H404 C342 0.959 . S
H405 C342 0.960 . S
H406 C345 0.929 . S
H407 C349 0.929 . S
H408 C350 0.959 . S
H409 C350 0.961 . S
H410 C350 0.961 . S
H411 C351 0.960 . S
H412 C351 0.960 . S
H413 C351 0.961 . S
H414 C353 0.980 . S
H415 C352 0.961 . S
H416 C352 0.960 . S
H417 C352 0.959 . S
H418 C355 0.930 . S
H419 C359 0.931 . S
H420 C360 0.959 . S
H421 C360 0.961 . S
H422 C360 0.959 . S
H423 C361 0.960 . S
H424 C361 0.960 . S
H425 C361 0.960 . S
H426 C397 0.980 . S
H427 C363 0.930 . S
H428 C367 0.930 . S
H429 C368 0.961 . S
H430 C368 0.960 . S
H431 C368 0.958 . S
H432 C369 0.961 . S
H433 C369 0.960 . S
H434 C369 0.960 . S
H435 C371 0.980 . S
H436 C370 0.961 . S
H437 C370 0.961 . S
H438 C370 0.959 . S
H439 C373 0.932 . S
H440 C377 0.929 . S
H441 C378 0.961 . S
H442 C378 0.959 . S
H443 C378 0.959 . S
H444 C379 0.960 . S
H445 C379 0.962 . S
H446 C379 0.961 . S
H447 C381 0.929 . S
H448 C384 0.930 . S
H449 C385 0.931 . S
H450 C388 0.930 . S
H451 C391 0.929 . S
H452 C392 0.930 . S
H453 C396 0.962 . S
H454 C396 0.959 . S
H455 C396 0.958 . S
C456 C457 1.560 . S
C456 H517 0.959 . S
C456 H518 0.959 . S
C456 H519 0.960 . S
C457 C456 1.560 . S
C457 O512 1.426 . S
C457 H516 0.980 . S
C458 C459 1.407 . S
C458 C463 1.418 . S
C458 O512 1.334 . S
C459 C458 1.407 . S
C459 C460 1.360 . S
C459 H520 0.929 . S
C460 C459 1.360 . S
C460 C461 1.401 . S
C460 C464 1.527 . S
C461 C460 1.401 . S
C461 C462 1.405 . S
C461 C494 1.589 . S
C462 C461 1.405 . S
C462 C463 1.332 . S
C462 C465 1.496 . S
C463 C458 1.418 . S
C463 C462 1.332 . S
C463 H521 0.929 . S
C464 C460 1.527 . S
C464 H522 0.959 . S
C464 H523 0.961 . S
C464 H524 0.961 . S
C465 C462 1.496 . S
C465 H525 0.960 . S
C465 H526 0.960 . S
C465 H527 0.961 1_556 S
C466 C467 1.517 . S
C466 H529 0.961 . S
C466 H530 0.960 . S
C466 H531 0.959 . S
C467 C466 1.517 . S
C467 O515 1.468 . S
C467 H528 0.980 . S
C468 C469 1.349 . S
C468 C473 1.367 . S
C468 O515 1.408 . S
C469 C468 1.349 . S
C469 C470 1.407 . S
C469 H532 0.930 . S
C470 C469 1.407 . S
C470 C471 1.449 . S
C470 C474 1.535 . S
C471 C470 1.449 . S
C471 C472 1.384 . S
C471 C496 1.553 . S
C472 C471 1.384 . S
C472 C473 1.364 . S
C472 C475 1.450 . S
C473 C468 1.367 . S
C473 C472 1.364 . S
C473 H533 0.931 . S
C474 C470 1.535 . S
C474 H534 0.959 . S
C474 H535 0.961 . S
C474 H536 0.959 . S
C475 C472 1.450 . S
C475 H537 0.960 . S
C475 H538 0.960 . S
C475 H539 0.960 1_556 S
C476 C477 1.309 . S
C476 C481 1.304 . S
C476 O514 1.435 . S
C477 C476 1.309 . S
C477 C478 1.476 . S
C477 H541 0.930 . S
C478 C477 1.476 . S
C478 C479 1.400 . S
C478 C482 1.567 . S
C479 C478 1.400 . S
C479 C480 1.373 . S
C479 C501 1.432 . S
C480 C479 1.373 . S
C480 C481 1.339 . S
C480 C483 1.530 . S
C481 C476 1.304 . S
C481 C480 1.339 . S
C481 H542 0.930 . S
C482 C478 1.567 . S
C482 H543 0.961 . S
C482 H544 0.960 . S
C482 H545 0.958 . S
C483 C480 1.530 . S
C483 H546 0.961 . S
C483 H547 0.960 . S
C483 H548 0.960 . S
C484 C485 1.530 . S
C484 H550 0.961 . S
C484 H551 0.961 . S
C484 H552 0.959 . S
C485 C484 1.530 . S
C485 O513 1.412 . S
C485 H549 0.980 . S
C486 C487 1.288 . S
C486 C491 1.377 . S
C486 O513 1.393 . S
C487 C486 1.288 . S
C487 C488 1.369 . S
C487 H553 0.932 . S
C488 C487 1.369 . S
C488 C489 1.398 . S
C488 C492 1.527 . S
C489 C488 1.398 . S
C489 C490 1.380 . S
C489 C503 1.497 . S
C490 C489 1.380 . S
C490 C491 1.383 . S
C490 C493 1.603 . S
C491 C486 1.377 . S
C491 C490 1.383 . S
C491 H554 0.929 . S
C492 C488 1.527 . S
C492 H555 0.961 . S
C492 H556 0.959 . S
C492 H557 0.959 . S
C493 C490 1.603 . S
C493 H558 0.960 . S
C493 H559 0.962 . S
C493 H560 0.961 . S
C494 C461 1.589 . S
C494 C495 1.362 . S
C494 C507 1.408 1_556 S
C495 C494 1.362 . S
C495 C496 1.365 . S
C495 H561 0.929 . S
C496 C471 1.553 . S
C496 C495 1.365 . S
C496 C497 1.404 1_556 S
C497 C496 1.404 1_554 S
C497 C498 1.395 . S
C497 C508 1.451 . S
C498 C497 1.395 . S
C498 C499 1.322 . S
C498 H562 0.930 . S
C499 C498 1.322 . S
C499 C500 1.459 . S
C499 H563 0.929 . S
C500 C499 1.459 . S
C500 C501 1.445 . S
C500 C509 1.395 . S
C501 C479 1.432 . S
C501 C500 1.445 . S
C501 C502 1.370 . S
C502 C501 1.370 . S
C502 C503 1.438 . S
C502 H564 0.930 . S
C503 C489 1.497 . S
C503 C502 1.438 . S
C503 C504 1.360 . S
C504 C503 1.360 . S
C504 C505 1.401 . S
C504 C509 1.446 . S
C505 C504 1.401 . S
C505 C506 1.347 . S
C505 H565 0.929 . S
C506 C505 1.347 . S
C506 C507 1.455 . S
C506 H566 0.930 . S
C507 C494 1.408 1_554 S
C507 C506 1.455 . S
C507 C508 1.331 . S
C508 C497 1.451 . S
C508 C507 1.331 . S
C508 C509 1.497 . S
C509 C500 1.395 . S
C509 C504 1.446 . S
C509 C508 1.497 . S
C510 C511 1.582 . S
C510 H567 0.962 . S
C510 H568 0.959 . S
C510 H569 0.958 . S
C511 C510 1.582 . S
C511 O514 1.458 . S
C511 H540 0.980 . S
O512 C457 1.426 . S
O512 C458 1.334 . S
O513 C485 1.412 . S
O513 C486 1.393 . S
O514 C476 1.435 . S
O514 C511 1.458 . S
O515 C467 1.468 . S
O515 C468 1.408 . S
H516 C457 0.980 . S
H517 C456 0.959 . S
H518 C456 0.959 . S
H519 C456 0.960 . S
H520 C459 0.929 . S
H521 C463 0.929 . S
H522 C464 0.959 . S
H523 C464 0.961 . S
H524 C464 0.961 . S
H525 C465 0.960 . S
H526 C465 0.960 . S
H527 C465 0.961 1_554 S
H528 C467 0.980 . S
H529 C466 0.961 . S
H530 C466 0.960 . S
H531 C466 0.959 . S
H532 C469 0.930 . S
H533 C473 0.931 . S
H534 C474 0.959 . S
H535 C474 0.961 . S
H536 C474 0.959 . S
H537 C475 0.960 . S
H538 C475 0.960 . S
H539 C475 0.960 1_554 S
H540 C511 0.980 . S
H541 C477 0.930 . S
H542 C481 0.930 . S
H543 C482 0.961 . S
H544 C482 0.960 . S
H545 C482 0.958 . S
H546 C483 0.961 . S
H547 C483 0.960 . S
H548 C483 0.960 . S
H549 C485 0.980 . S
H550 C484 0.961 . S
H551 C484 0.961 . S
H552 C484 0.959 . S
H553 C487 0.932 . S
H554 C491 0.929 . S
H555 C492 0.961 . S
H556 C492 0.959 . S
H557 C492 0.959 . S
H558 C493 0.960 . S
H559 C493 0.962 . S
H560 C493 0.961 . S
H561 C495 0.929 . S
H562 C498 0.930 . S
H563 C499 0.929 . S
H564 C502 0.930 . S
H565 C505 0.929 . S
H566 C506 0.930 . S
H567 C510 0.962 . S
H568 C510 0.959 . S
H569 C510 0.958 . S
C570 C571 1.560 . S
C570 H631 0.959 . S
C570 H632 0.959 . S
C570 H633 0.960 . S
C571 C570 1.560 . S
C571 O626 1.426 . S
C571 H630 0.980 . S
C572 C573 1.407 . S
C572 C577 1.418 . S
C572 O626 1.334 . S
C573 C572 1.407 . S
C573 C574 1.360 . S
C573 H634 0.929 . S
C574 C573 1.360 . S
C574 C575 1.401 . S
C574 C578 1.527 . S
C575 C574 1.401 . S
C575 C576 1.405 . S
C575 C608 1.587 . S
C576 C575 1.405 . S
C576 C577 1.332 . S
C576 C579 1.496 . S
C577 C572 1.418 . S
C577 C576 1.332 . S
C577 H635 0.929 . S
C578 C574 1.527 . S
C578 H636 0.959 . S
C578 H637 0.961 . S
C578 H638 0.961 . S
C579 C576 1.496 . S
C579 H639 0.960 . S
C579 H640 0.960 . S
C579 H641 0.961 . S
C580 C581 1.517 . S
C580 H643 0.961 . S
C580 H644 0.960 . S
C580 H645 0.959 . S
C581 C580 1.517 . S
C581 O629 1.468 . S
C581 H642 0.980 . S
C582 C583 1.349 . S
C582 C587 1.367 . S
C582 O629 1.408 . S
C583 C582 1.349 . S
C583 C584 1.407 . S
C583 H646 0.930 . S
C584 C583 1.407 . S
C584 C585 1.449 . S
C584 C588 1.535 . S
C585 C584 1.449 . S
C585 C586 1.384 . S
C585 C610 1.553 . S
C586 C585 1.384 . S
C586 C587 1.364 . S
C586 C589 1.450 . S
C587 C582 1.367 . S
C587 C586 1.364 . S
C587 H647 0.931 . S
C588 C584 1.535 . S
C588 H648 0.959 . S
C588 H649 0.961 . S
C588 H650 0.959 . S
C589 C586 1.450 . S
C589 H651 0.960 . S
C589 H652 0.960 . S
C589 H653 0.960 . S
C590 C591 1.309 1_556 S
C590 C595 1.304 1_556 S
C590 O628 1.435 . S
C591 C590 1.309 1_554 S
C591 C592 1.476 . S
C591 H655 0.927 1_554 S
C592 C591 1.476 . S
C592 C593 1.400 . S
C592 C596 1.567 . S
C593 C592 1.400 . S
C593 C594 1.373 . S
C593 C615 1.432 . S
C594 C593 1.373 . S
C594 C595 1.339 . S
C594 C597 1.530 . S
C595 C590 1.304 1_554 S
C595 C594 1.339 . S
C595 H656 0.930 1_554 S
C596 C592 1.567 . S
C596 H657 0.961 . S
C596 H658 0.960 . S
C596 H659 0.958 . S
C597 C594 1.530 . S
C597 H660 0.961 . S
C597 H661 0.960 . S
C597 H662 0.960 . S
C598 C599 1.530 . S
C598 H664 0.961 . S
C598 H665 0.961 . S
C598 H666 0.959 . S
C599 C598 1.530 . S
C599 O627 1.412 . S
C599 H663 0.980 . S
C600 C601 1.288 . S
C600 C605 1.377 1_556 S
C600 O627 1.393 . S
C601 C600 1.288 . S
C601 C602 1.369 1_556 S
C601 H667 0.932 . S
C602 C601 1.369 1_554 S
C602 C603 1.398 . S
C602 C606 1.527 . S
C603 C602 1.398 . S
C603 C604 1.380 . S
C603 C617 1.497 . S
C604 C603 1.380 . S
C604 C605 1.383 . S
C604 C607 1.603 . S
C605 C600 1.377 1_554 S
C605 C604 1.383 . S
C605 H668 0.929 1_554 S
C606 C602 1.527 . S
C606 H669 0.961 . S
C606 H670 0.959 . S
C606 H671 0.959 . S
C607 C604 1.603 . S
C607 H672 0.960 . S
C607 H673 0.962 . S
C607 H674 0.961 . S
C608 C575 1.587 . S
C608 C609 1.360 . S
C608 C621 1.412 . S
C609 C608 1.360 . S
C609 C610 1.365 . S
C609 H675 0.929 . S
C610 C585 1.553 . S
C610 C609 1.365 . S
C610 C611 1.404 . S
C611 C610 1.404 . S
C611 C612 1.395 . S
C611 C622 1.451 . S
C612 C611 1.395 . S
C612 C613 1.322 . S
C612 H676 0.930 . S
C613 C612 1.322 . S
C613 C614 1.459 . S
C613 H677 0.929 . S
C614 C613 1.459 . S
C614 C615 1.445 . S
C614 C623 1.395 . S
C615 C593 1.432 . S
C615 C614 1.445 . S
C615 C616 1.370 . S
C616 C615 1.370 . S
C616 C617 1.438 . S
C616 H678 0.930 . S
C617 C603 1.497 . S
C617 C616 1.438 . S
C617 C618 1.360 . S
C618 C617 1.360 . S
C618 C619 1.401 . S
C618 C623 1.446 . S
C619 C618 1.401 . S
C619 C620 1.347 . S
C619 H679 0.929 . S
C620 C619 1.347 . S
C620 C621 1.455 . S
C620 H680 0.930 . S
C621 C608 1.412 . S
C621 C620 1.455 . S
C621 C622 1.331 . S
C622 C611 1.451 . S
C622 C621 1.331 . S
C622 C623 1.497 . S
C623 C614 1.395 . S
C623 C618 1.446 . S
C623 C622 1.497 . S
C624 C625 1.582 . S
C624 H681 0.962 . S
C624 H682 0.959 . S
C624 H683 0.958 . S
C625 C624 1.582 . S
C625 O628 1.458 . S
C625 H654 0.980 . S
O626 C571 1.426 . S
O626 C572 1.334 . S
O627 C599 1.412 . S
O627 C600 1.393 . S
O628 C590 1.435 . S
O628 C625 1.458 . S
O629 C581 1.468 . S
O629 C582 1.408 . S
H630 C571 0.980 . S
H631 C570 0.959 . S
H632 C570 0.959 . S
H633 C570 0.960 . S
H634 C573 0.929 . S
H635 C577 0.929 . S
H636 C578 0.959 . S
H637 C578 0.961 . S
H638 C578 0.961 . S
H639 C579 0.960 . S
H640 C579 0.960 . S
H641 C579 0.961 . S
H642 C581 0.980 . S
H643 C580 0.961 . S
H644 C580 0.960 . S
H645 C580 0.959 . S
H646 C583 0.930 . S
H647 C587 0.931 . S
H648 C588 0.959 . S
H649 C588 0.961 . S
H650 C588 0.959 . S
H651 C589 0.960 . S
H652 C589 0.960 . S
H653 C589 0.960 . S
H654 C625 0.980 . S
H655 C591 0.927 1_556 S
H656 C595 0.930 1_556 S
H657 C596 0.961 . S
H658 C596 0.960 . S
H659 C596 0.958 . S
H660 C597 0.961 . S
H661 C597 0.960 . S
H662 C597 0.960 . S
H663 C599 0.980 . S
H664 C598 0.961 . S
H665 C598 0.961 . S
H666 C598 0.959 . S
H667 C601 0.932 . S
H668 C605 0.929 1_556 S
H669 C606 0.961 . S
H670 C606 0.959 . S
H671 C606 0.959 . S
H672 C607 0.960 . S
H673 C607 0.962 . S
H674 C607 0.961 . S
H675 C609 0.929 . S
H676 C612 0.930 . S
H677 C613 0.929 . S
H678 C616 0.930 . S
H679 C619 0.929 . S
H680 C620 0.930 . S
H681 C624 0.962 . S
H682 C624 0.959 . S
H683 C624 0.958 . S
C684 O711 1.312 . S
C684 O712 1.208 . S
C685 O706 1.331 . S
C685 O709 1.244 . S
C686 O708 1.264 . S
C686 O710 1.273 . S
Mg687 O689 1.936 1_455 S
Mg687 O696 2.081 1_455 S
Mg687 O698 2.023 . S
Mg687 O702 2.031 1_455 S
Mg687 O711 2.291 . S
Mg688 O689 1.963 . S
Mg688 O699 1.942 . S
Mg688 O700 1.955 1_655 S
Mg688 O707 1.986 . S
O689 Mg687 1.936 1_655 S
O689 Mg688 1.963 . S
O689 Mg690 1.915 1_655 S
Mg690 O689 1.915 1_455 S
Mg690 O691 1.915 . S
Mg690 O695 2.013 . S
Mg690 O701 2.114 1_455 S
Mg690 O705 2.013 1_455 S
Mg690 O711 2.114 . S
O691 Mg690 1.915 . S
O691 Mg692 1.936 . S
O691 Mg693 1.963 . S
Mg692 O691 1.936 . S
Mg692 O701 2.291 1_455 S
Mg692 O706 2.081 . S
Mg692 O708 2.023 1_455 S
Mg692 O712 2.031 . S
Mg693 O691 1.963 . S
Mg693 O697 1.986 . S
Mg693 O709 1.942 . S
Mg693 O710 1.955 1_455 S
C694 O705 1.191 . S
C694 O707 1.307 . S
O695 Mg690 2.013 . S
O695 C714 1.191 . S
O696 Mg687 2.081 1_655 S
O696 C704 1.331 . S
O697 Mg693 1.986 . S
O697 C714 1.307 . S
O698 Mg687 2.023 . S
O698 C713 1.264 . S
O699 Mg688 1.942 . S
O699 C704 1.244 . S
O700 Mg688 1.955 1_455 S
O700 C713 1.273 . S
O701 Mg690 2.114 1_655 S
O701 Mg692 2.291 1_655 S
O701 C703 1.312 . S
O702 Mg687 2.031 1_655 S
O702 C703 1.208 . S
C703 O701 1.312 . S
C703 O702 1.208 . S
C704 O696 1.331 . S
C704 O699 1.244 . S
O705 Mg690 2.013 1_655 S
O705 C694 1.191 . S
O706 C685 1.331 . S
O706 Mg692 2.081 . S
O707 Mg688 1.986 . S
O707 C694 1.307 . S
O708 C686 1.264 . S
O708 Mg692 2.023 1_655 S
O709 C685 1.244 . S
O709 Mg693 1.942 . S
O710 C686 1.273 . S
O710 Mg693 1.955 1_655 S
O711 C684 1.312 . S
O711 Mg687 2.291 . S
O711 Mg690 2.114 . S
O712 C684 1.208 . S
O712 Mg692 2.031 . S
C713 O698 1.264 . S
C713 O700 1.273 . S
C714 O695 1.191 . S
C714 O697 1.307 . S
C715 O742 1.312 . S
C715 O743 1.208 . S
C716 O737 1.331 . S
C716 O740 1.244 . S
C717 O739 1.264 . S
C717 O741 1.273 . S
Mg718 O720 1.965 . S
Mg718 O727 2.081 1_545 S
Mg718 O729 2.023 . S
Mg718 O733 2.031 1_545 S
Mg718 O742 2.291 . S
Mg719 O720 1.957 . S
Mg719 O730 1.942 1_545 S
Mg719 O731 1.955 . S
Mg719 O738 1.986 1_545 S
O720 Mg718 1.965 . S
O720 Mg719 1.957 . S
O720 Mg721 1.912 . S
Mg721 O720 1.912 . S
Mg721 O722 1.915 . S
Mg721 O726 2.013 . S
Mg721 O732 2.114 1_545 S
Mg721 O736 2.013 1_545 S
Mg721 O742 2.114 . S
O722 Mg721 1.915 . S
O722 Mg723 1.936 . S
O722 Mg724 1.963 . S
Mg723 O722 1.936 . S
Mg723 O732 2.291 1_545 S
Mg723 O737 2.081 . S
Mg723 O739 2.023 1_545 S
Mg723 O743 2.031 . S
Mg724 O722 1.963 . S
Mg724 O728 1.986 . S
Mg724 O740 1.942 . S
Mg724 O741 1.955 1_545 S
C725 O736 1.191 . S
C725 O738 1.307 . S
O726 Mg721 2.013 . S
O726 C745 1.191 . S
O727 Mg718 2.081 1_565 S
O727 C735 1.331 . S
O728 Mg724 1.986 . S
O728 C745 1.307 . S
O729 Mg718 2.023 . S
O729 C744 1.264 . S
O730 Mg719 1.942 1_565 S
O730 C735 1.244 . S
O731 Mg719 1.955 . S
O731 C744 1.273 . S
O732 Mg721 2.114 1_565 S
O732 Mg723 2.291 1_565 S
O732 C734 1.312 . S
O733 Mg718 2.031 1_565 S
O733 C734 1.208 . S
C734 O732 1.312 . S
C734 O733 1.208 . S
C735 O727 1.331 . S
C735 O730 1.244 . S
O736 Mg721 2.013 1_565 S
O736 C725 1.191 . S
O737 C716 1.331 . S
O737 Mg723 2.081 . S
O738 Mg719 1.986 1_565 S
O738 C725 1.307 . S
O739 C717 1.264 . S
O739 Mg723 2.023 1_565 S
O740 C716 1.244 . S
O740 Mg724 1.942 . S
O741 C717 1.273 . S
O741 Mg724 1.955 1_565 S
O742 C715 1.312 . S
O742 Mg718 2.291 . S
O742 Mg721 2.114 . S
O743 C715 1.208 . S
O743 Mg723 2.031 . S
C744 O729 1.264 . S
C744 O731 1.273 . S
C745 O726 1.191 . S
C745 O728 1.307 . S
C746 O773 1.312 . S
C746 O774 1.208 . S
C747 O768 1.331 . S
C747 O771 1.244 . S
C748 O770 1.264 . S
C748 O772 1.273 . S
Mg749 O751 1.936 . S
Mg749 O758 2.081 . S
Mg749 O760 2.023 . S
Mg749 O764 2.031 . S
Mg749 O773 2.291 . S
Mg750 O751 1.963 . S
Mg750 O761 1.942 . S
Mg750 O762 1.955 . S
Mg750 O769 1.986 . S
O751 Mg749 1.936 . S
O751 Mg750 1.963 . S
O751 Mg752 1.915 . S
Mg752 O751 1.915 . S
Mg752 O753 1.915 . S
Mg752 O757 2.013 . S
Mg752 O763 2.114 . S
Mg752 O767 2.013 . S
Mg752 O773 2.114 . S
O753 Mg752 1.915 . S
O753 Mg754 1.936 . S
O753 Mg755 1.963 . S
Mg754 O753 1.936 . S
Mg754 O763 2.291 . S
Mg754 O768 2.081 . S
Mg754 O770 2.023 . S
Mg754 O774 2.031 . S
Mg755 O753 1.963 . S
Mg755 O759 1.986 . S
Mg755 O771 1.942 . S
Mg755 O772 1.955 . S
C756 O767 1.191 . S
C756 O769 1.307 . S
O757 Mg752 2.013 . S
O757 C776 1.191 . S
O758 Mg749 2.081 . S
O758 C766 1.331 . S
O759 Mg755 1.986 . S
O759 C776 1.307 . S
O760 Mg749 2.023 . S
O760 C775 1.264 . S
O761 Mg750 1.942 . S
O761 C766 1.244 . S
O762 Mg750 1.955 . S
O762 C775 1.273 . S
O763 Mg752 2.114 . S
O763 Mg754 2.291 . S
O763 C765 1.312 . S
O764 Mg749 2.031 . S
O764 C765 1.208 . S
C765 O763 1.312 . S
C765 O764 1.208 . S
C766 O758 1.331 . S
C766 O761 1.244 . S
O767 Mg752 2.013 . S
O767 C756 1.191 . S
O768 C747 1.331 . S
O768 Mg754 2.081 . S
O769 Mg750 1.986 . S
O769 C756 1.307 . S
O770 C748 1.264 . S
O770 Mg754 2.023 . S
O771 C747 1.244 . S
O771 Mg755 1.942 . S
O772 C748 1.273 . S
O772 Mg755 1.955 . S
O773 C746 1.312 . S
O773 Mg749 2.291 . S
O773 Mg752 2.114 . S
O774 C746 1.208 . S
O774 Mg754 2.031 . S
C775 O760 1.264 . S
C775 O762 1.273 . S
C776 O757 1.191 . S
C776 O759 1.307 . S
H777 C785 0.950 . S
H778 C790 0.950 . S
H779 C787 0.950 . S
H780 C789 0.950 . S
H781 C791 0.950 . S
H782 C793 0.950 . S
H783 C795 0.950 . S
H784 C796 0.950 . S
C785 H777 0.950 . S
C785 C786 1.386 . S
C785 C787 1.391 . S
C786 C785 1.386 . S
C786 C790 1.393 . S
C787 H779 0.950 . S
C787 C785 1.391 . S
C787 C788 1.400 . S
C788 C787 1.400 . S
C788 C789 1.398 . S
C788 C794 1.491 . S
C789 H780 0.950 . S
C789 C788 1.398 . S
C789 C790 1.391 . S
C790 H778 0.950 . S
C790 C786 1.393 . S
C790 C789 1.391 . S
C791 H781 0.950 . S
C791 C792 1.386 . S
C791 C793 1.391 . S
C792 C791 1.386 . S
C792 C796 1.393 . S
C793 H782 0.950 . S
C793 C791 1.391 . S
C793 C794 1.400 . S
C794 C788 1.491 . S
C794 C793 1.400 . S
C794 C795 1.398 . S
C795 H783 0.950 . S
C795 C794 1.398 . S
C795 C796 1.391 . S
C796 H784 0.950 . S
C796 C792 1.393 . S
C796 C795 1.391 . S
H797 C805 0.950 . S
H798 C810 0.950 . S
H799 C807 0.950 . S
H800 C809 0.950 . S
H801 C811 0.950 . S
H802 C813 0.950 . S
H803 C815 0.950 . S
H804 C816 0.950 . S
C805 H797 0.950 . S
C805 C806 1.386 . S
C805 C807 1.391 . S
C806 C805 1.386 . S
C806 C810 1.393 . S
C807 H799 0.950 . S
C807 C805 1.391 . S
C807 C808 1.400 . S
C808 C807 1.400 . S
C808 C809 1.398 . S
C808 C814 1.491 . S
C809 H800 0.950 . S
C809 C808 1.398 . S
C809 C810 1.391 . S
C810 H798 0.950 . S
C810 C806 1.393 . S
C810 C809 1.391 . S
C811 H801 0.950 . S
C811 C812 1.386 . S
C811 C813 1.391 . S
C812 C811 1.386 . S
C812 C816 1.393 . S
C813 H802 0.950 . S
C813 C811 1.391 . S
C813 C814 1.400 . S
C814 C808 1.491 . S
C814 C813 1.400 . S
C814 C815 1.398 . S
C815 H803 0.950 . S
C815 C814 1.398 . S
C815 C816 1.391 . S
C816 H804 0.950 . S
C816 C812 1.393 . S
C816 C815 1.391 . S
H817 C825 0.950 . S
H818 C830 0.950 . S
H819 C827 0.950 . S
H820 C829 0.950 . S
H821 C831 0.950 . S
H822 C833 0.950 . S
H823 C835 0.950 . S
H824 C836 0.950 . S
C825 H817 0.950 . S
C825 C826 1.386 . S
C825 C827 1.391 . S
C826 C825 1.386 . S
C826 C830 1.393 . S
C827 H819 0.950 . S
C827 C825 1.391 . S
C827 C828 1.400 . S
C828 C827 1.400 . S
C828 C829 1.398 . S
C828 C834 1.491 . S
C829 H820 0.950 . S
C829 C828 1.398 . S
C829 C830 1.391 . S
C830 H818 0.950 . S
C830 C826 1.393 . S
C830 C829 1.391 . S
C831 H821 0.950 . S
C831 C832 1.386 . S
C831 C833 1.391 . S
C832 C831 1.386 . S
C832 C836 1.393 . S
C833 H822 0.950 . S
C833 C831 1.391 . S
C833 C834 1.400 . S
C834 C828 1.491 . S
C834 C833 1.400 . S
C834 C835 1.398 . S
C835 H823 0.950 . S
C835 C834 1.398 . S
C835 C836 1.391 . S
C836 H824 0.950 . S
C836 C832 1.393 . S
C836 C835 1.391 . S
H837 C845 0.950 . S
H838 C850 0.950 . S
H839 C847 0.950 . S
H840 C849 0.950 . S
H841 C851 0.950 . S
H842 C853 0.950 . S
H843 C855 0.950 . S
H844 C856 0.950 . S
C845 H837 0.950 . S
C845 C846 1.386 . S
C845 C847 1.391 . S
C846 C845 1.386 . S
C846 C850 1.393 . S
C847 H839 0.950 . S
C847 C845 1.391 . S
C847 C848 1.400 . S
C848 C847 1.400 . S
C848 C849 1.398 . S
C848 C854 1.491 . S
C849 H840 0.950 . S
C849 C848 1.398 . S
C849 C850 1.391 . S
C850 H838 0.950 . S
C850 C846 1.393 . S
C850 C849 1.391 . S
C851 H841 0.950 . S
C851 C852 1.386 . S
C851 C853 1.391 . S
C852 C851 1.386 . S
C852 C856 1.393 . S
C853 H842 0.950 . S
C853 C851 1.391 . S
C853 C854 1.400 . S
C854 C848 1.491 . S
C854 C853 1.400 . S
C854 C855 1.398 . S
C855 H843 0.950 . S
C855 C854 1.398 . S
C855 C856 1.391 . S
C856 H844 0.950 . S
C856 C852 1.393 . S
C856 C855 1.391 . S
H857 C865 0.950 . S
H858 C870 0.950 . S
H859 C867 0.950 . S
H860 C869 0.950 . S
H861 C871 0.950 . S
H862 C873 0.950 . S
H863 C875 0.950 . S
H864 C876 0.950 . S
C865 H857 0.950 . S
C865 C866 1.386 . S
C865 C867 1.391 . S
C866 C865 1.386 . S
C866 C870 1.393 . S
C867 H859 0.950 . S
C867 C865 1.391 . S
C867 C868 1.400 . S
C868 C867 1.400 . S
C868 C869 1.398 . S
C868 C874 1.491 . S
C869 H860 0.950 . S
C869 C868 1.398 . S
C869 C870 1.391 . S
C870 H858 0.950 . S
C870 C866 1.393 . S
C870 C869 1.391 . S
C871 H861 0.950 . S
C871 C872 1.386 . S
C871 C873 1.391 . S
C872 C871 1.386 . S
C872 C876 1.393 . S
C873 H862 0.950 . S
C873 C871 1.391 . S
C873 C874 1.400 . S
C874 C868 1.491 . S
C874 C873 1.400 . S
C874 C875 1.398 . S
C875 H863 0.950 . S
C875 C874 1.398 . S
C875 C876 1.391 . S
C876 H864 0.950 . S
C876 C872 1.393 . S
C876 C875 1.391 . S
H877 C885 0.950 . S
H878 C890 0.950 . S
H879 C887 0.950 . S
H880 C889 0.950 . S
H881 C891 0.950 . S
H882 C893 0.950 . S
H883 C895 0.950 . S
H884 C896 0.950 . S
C885 H877 0.950 . S
C885 C886 1.386 . S
C885 C887 1.391 . S
C886 C885 1.386 . S
C886 C890 1.393 . S
C887 H879 0.950 . S
C887 C885 1.391 . S
C887 C888 1.400 . S
C888 C887 1.400 . S
C888 C889 1.398 . S
C888 C894 1.491 . S
C889 H880 0.950 . S
C889 C888 1.398 . S
C889 C890 1.391 . S
C890 H878 0.950 . S
C890 C886 1.393 . S
C890 C889 1.391 . S
C891 H881 0.950 . S
C891 C892 1.386 . S
C891 C893 1.391 . S
C892 C891 1.386 . S
C892 C896 1.393 . S
C893 H882 0.950 . S
C893 C891 1.391 . S
C893 C894 1.400 . S
C894 C888 1.491 . S
C894 C893 1.400 . S
C894 C895 1.398 . S
C895 H883 0.950 . S
C895 C894 1.398 . S
C895 C896 1.391 . S
C896 H884 0.950 . S
C896 C892 1.393 . S
C896 C895 1.391 . S
H897 C905 0.950 . S
H898 C910 0.950 . S
H899 C907 0.950 . S
H900 C909 0.950 . S
H901 C911 0.950 . S
H902 C913 0.950 . S
H903 C915 0.950 . S
H904 C916 0.950 . S
C905 H897 0.950 . S
C905 C906 1.386 . S
C905 C907 1.391 . S
C906 C905 1.386 . S
C906 C910 1.393 . S
C907 H899 0.950 . S
C907 C905 1.391 . S
C907 C908 1.400 . S
C908 C907 1.400 . S
C908 C909 1.398 . S
C908 C914 1.491 . S
C909 H900 0.950 . S
C909 C908 1.398 . S
C909 C910 1.391 . S
C910 H898 0.950 . S
C910 C906 1.393 . S
C910 C909 1.391 . S
C911 H901 0.950 . S
C911 C912 1.386 . S
C911 C913 1.391 . S
C912 C911 1.386 . S
C912 C916 1.393 . S
C913 H902 0.950 . S
C913 C911 1.391 . S
C913 C914 1.400 . S
C914 C908 1.491 . S
C914 C913 1.400 . S
C914 C915 1.398 . S
C915 H903 0.950 . S
C915 C914 1.398 . S
C915 C916 1.391 . S
C916 H904 0.950 . S
C916 C912 1.393 . S
C916 C915 1.391 . S
H917 C925 0.950 . S
H918 C930 0.950 . S
H919 C927 0.950 . S
H920 C929 0.950 . S
H921 C931 0.950 . S
H922 C933 0.950 . S
H923 C935 0.950 . S
H924 C936 0.950 . S
C925 H917 0.950 . S
C925 C926 1.386 . S
C925 C927 1.391 . S
C926 C925 1.386 . S
C926 C930 1.393 . S
C927 H919 0.950 . S
C927 C925 1.391 . S
C927 C928 1.400 . S
C928 C927 1.400 . S
C928 C929 1.398 . S
C928 C934 1.491 . S
C929 H920 0.950 . S
C929 C928 1.398 . S
C929 C930 1.391 . S
C930 H918 0.950 . S
C930 C926 1.393 . S
C930 C929 1.391 . S
C931 H921 0.950 . S
C931 C932 1.386 . S
C931 C933 1.391 . S
C932 C931 1.386 . S
C932 C936 1.393 . S
C933 H922 0.950 . S
C933 C931 1.391 . S
C933 C934 1.400 . S
C934 C928 1.491 . S
C934 C933 1.400 . S
C934 C935 1.398 . S
C935 H923 0.950 . S
C935 C934 1.398 . S
C935 C936 1.391 . S
C936 H924 0.950 . S
C936 C932 1.393 . S
C936 C935 1.391 . S
H937 C945 0.950 . S
H938 C950 0.950 . S
H939 C947 0.950 . S
H940 C949 0.950 . S
H941 C951 0.950 . S
H942 C953 0.950 . S
H943 C955 0.950 . S
H944 C956 0.950 . S
C945 H937 0.950 . S
C945 C946 1.386 . S
C945 C947 1.391 . S
C946 C945 1.386 . S
C946 C950 1.393 . S
C947 H939 0.950 . S
C947 C945 1.391 . S
C947 C948 1.400 . S
C948 C947 1.400 . S
C948 C949 1.398 . S
C948 C954 1.491 . S
C949 H940 0.950 . S
C949 C948 1.398 . S
C949 C950 1.391 . S
C950 H938 0.950 . S
C950 C946 1.393 . S
C950 C949 1.391 . S
C951 H941 0.950 . S
C951 C952 1.386 . S
C951 C953 1.391 . S
C952 C951 1.386 . S
C952 C956 1.393 . S
C953 H942 0.950 . S
C953 C951 1.391 . S
C953 C954 1.400 . S
C954 C948 1.491 . S
C954 C953 1.400 . S
C954 C955 1.398 . S
C955 H943 0.950 . S
C955 C954 1.398 . S
C955 C956 1.391 . S
C956 H944 0.950 . S
C956 C952 1.393 . S
C956 C955 1.391 . S
H957 C965 0.950 . S
H958 C970 0.950 . S
H959 C967 0.950 . S
H960 C969 0.950 . S
H961 C971 0.950 . S
H962 C973 0.950 . S
H963 C975 0.950 . S
H964 C976 0.950 . S
C965 H957 0.950 . S
C965 C966 1.386 . S
C965 C967 1.391 . S
C966 C965 1.386 . S
C966 C970 1.393 . S
C967 H959 0.950 . S
C967 C965 1.391 . S
C967 C968 1.400 . S
C968 C967 1.400 . S
C968 C969 1.398 . S
C968 C974 1.491 . S
C969 H960 0.950 . S
C969 C968 1.398 . S
C969 C970 1.391 . S
C970 H958 0.950 . S
C970 C966 1.393 . S
C970 C969 1.391 . S
C971 H961 0.950 . S
C971 C972 1.386 . S
C971 C973 1.391 . S
C972 C971 1.386 . S
C972 C976 1.393 . S
C973 H962 0.950 . S
C973 C971 1.391 . S
C973 C974 1.400 . S
C974 C968 1.491 . S
C974 C973 1.400 . S
C974 C975 1.398 . S
C975 H963 0.950 . S
C975 C974 1.398 . S
C975 C976 1.391 . S
C976 H964 0.950 . S
C976 C972 1.393 . S
C976 C975 1.391 . S
H977 C985 0.950 . S
H978 C990 0.950 . S
H979 C987 0.950 . S
H980 C989 0.950 . S
H981 C991 0.950 . S
H982 C993 0.950 . S
H983 C995 0.950 . S
H984 C996 0.950 . S
C985 H977 0.950 . S
C985 C986 1.386 . S
C985 C987 1.391 . S
C986 C985 1.386 . S
C986 C990 1.393 . S
C987 H979 0.950 . S
C987 C985 1.391 . S
C987 C988 1.400 . S
C988 C987 1.400 . S
C988 C989 1.398 . S
C988 C994 1.491 . S
C989 H980 0.950 . S
C989 C988 1.398 . S
C989 C990 1.391 . S
C990 H978 0.950 . S
C990 C986 1.393 . S
C990 C989 1.391 . S
C991 H981 0.950 . S
C991 C992 1.386 . S
C991 C993 1.391 . S
C992 C991 1.386 . S
C992 C996 1.393 . S
C993 H982 0.950 . S
C993 C991 1.391 . S
C993 C994 1.400 . S
C994 C988 1.491 . S
C994 C993 1.400 . S
C994 C995 1.398 . S
C995 H983 0.950 . S
C995 C994 1.398 . S
C995 C996 1.391 . S
C996 H984 0.950 . S
C996 C992 1.393 . S
C996 C995 1.391 . S
H997 C1005 0.950 . S
H998 C1010 0.950 . S
H999 C1007 0.950 . S
H1000 C1009 0.950 . S
H1001 C1011 0.950 . S
H1002 C1013 0.950 . S
H1003 C1015 0.950 . S
H1004 C1016 0.950 . S
C1005 H997 0.950 . S
C1005 C1006 1.386 . S
C1005 C1007 1.391 . S
C1006 C1005 1.386 . S
C1006 C1010 1.393 . S
C1007 H999 0.950 . S
C1007 C1005 1.391 . S
C1007 C1008 1.400 . S
C1008 C1007 1.400 . S
C1008 C1009 1.398 . S
C1008 C1014 1.491 . S
C1009 H1000 0.950 . S
C1009 C1008 1.398 . S
C1009 C1010 1.391 . S
C1010 H998 0.950 . S
C1010 C1006 1.393 . S
C1010 C1009 1.391 . S
C1011 H1001 0.950 . S
C1011 C1012 1.386 . S
C1011 C1013 1.391 . S
C1012 C1011 1.386 . S
C1012 C1016 1.393 . S
C1013 H1002 0.950 . S
C1013 C1011 1.391 . S
C1013 C1014 1.400 . S
C1014 C1008 1.491 . S
C1014 C1013 1.400 . S
C1014 C1015 1.398 . S
C1015 H1003 0.950 . S
C1015 C1014 1.398 . S
C1015 C1016 1.391 . S
C1016 H1004 0.950 . S
C1016 C1012 1.393 . S
C1016 C1015 1.391 . S
H1017 C1025 0.950 . S
H1018 C1030 0.950 . S
H1019 C1027 0.950 . S
H1020 C1029 0.950 . S
H1021 C1031 0.950 . S
H1022 C1033 0.950 . S
H1023 C1035 0.950 . S
H1024 C1036 0.950 . S
C1025 H1017 0.950 . S
C1025 C1026 1.386 . S
C1025 C1027 1.391 . S
C1026 C1025 1.386 . S
C1026 C1030 1.393 . S
C1027 H1019 0.950 . S
C1027 C1025 1.391 . S
C1027 C1028 1.400 . S
C1028 C1027 1.400 . S
C1028 C1029 1.398 . S
C1028 C1034 1.491 . S
C1029 H1020 0.950 . S
C1029 C1028 1.398 . S
C1029 C1030 1.391 . S
C1030 H1018 0.950 . S
C1030 C1026 1.393 . S
C1030 C1029 1.391 . S
C1031 H1021 0.950 . S
C1031 C1032 1.386 . S
C1031 C1033 1.391 . S
C1032 C1031 1.386 . S
C1032 C1036 1.393 . S
C1033 H1022 0.950 . S
C1033 C1031 1.391 . S
C1033 C1034 1.400 . S
C1034 C1028 1.491 . S
C1034 C1033 1.400 . S
C1034 C1035 1.398 . S
C1035 H1023 0.950 . S
C1035 C1034 1.398 . S
C1035 C1036 1.391 . S
C1036 H1024 0.950 . S
C1036 C1032 1.393 . S
C1036 C1035 1.391 . S
H1037 C1045 0.950 . S
H1038 C1050 0.950 . S
H1039 C1047 0.950 . S
H1040 C1049 0.950 . S
H1041 C1051 0.950 . S
H1042 C1053 0.950 . S
H1043 C1055 0.950 . S
H1044 C1056 0.950 . S
C1045 H1037 0.950 . S
C1045 C1046 1.386 . S
C1045 C1047 1.391 . S
C1046 C1045 1.386 . S
C1046 C1050 1.393 . S
C1047 H1039 0.950 . S
C1047 C1045 1.391 . S
C1047 C1048 1.400 . S
C1048 C1047 1.400 . S
C1048 C1049 1.398 . S
C1048 C1054 1.491 . S
C1049 H1040 0.950 . S
C1049 C1048 1.398 . S
C1049 C1050 1.391 . S
C1050 H1038 0.950 . S
C1050 C1046 1.393 . S
C1050 C1049 1.391 . S
C1051 H1041 0.950 . S
C1051 C1052 1.386 . S
C1051 C1053 1.391 . S
C1052 C1051 1.386 . S
C1052 C1056 1.393 . S
C1053 H1042 0.950 . S
C1053 C1051 1.391 . S
C1053 C1054 1.400 . S
C1054 C1048 1.491 . S
C1054 C1053 1.400 . S
C1054 C1055 1.398 . S
C1055 H1043 0.950 . S
C1055 C1054 1.398 . S
C1055 C1056 1.391 . S
C1056 H1044 0.950 . S
C1056 C1052 1.393 . S
C1056 C1055 1.391 . S
H1057 C1065 0.950 . S
H1058 C1070 0.950 . S
H1059 C1067 0.950 . S
H1060 C1069 0.950 . S
H1061 C1071 0.950 . S
H1062 C1073 0.950 . S
H1063 C1075 0.950 . S
H1064 C1076 0.950 . S
C1065 H1057 0.950 . S
C1065 C1066 1.386 . S
C1065 C1067 1.391 . S
C1066 C1065 1.386 . S
C1066 C1070 1.393 . S
C1067 H1059 0.950 . S
C1067 C1065 1.391 . S
C1067 C1068 1.400 . S
C1068 C1067 1.400 . S
C1068 C1069 1.398 . S
C1068 C1074 1.491 . S
C1069 H1060 0.950 . S
C1069 C1068 1.398 . S
C1069 C1070 1.391 . S
C1070 H1058 0.950 . S
C1070 C1066 1.393 . S
C1070 C1069 1.391 . S
C1071 H1061 0.950 . S
C1071 C1072 1.386 . S
C1071 C1073 1.391 . S
C1072 C1071 1.386 . S
C1072 C1076 1.393 . S
C1073 H1062 0.950 . S
C1073 C1071 1.391 . S
C1073 C1074 1.400 . S
C1074 C1068 1.491 . S
C1074 C1073 1.400 . S
C1074 C1075 1.398 . S
C1075 H1063 0.950 . S
C1075 C1074 1.398 . S
C1075 C1076 1.391 . S
C1076 H1064 0.950 . S
C1076 C1072 1.393 . S
C1076 C1075 1.391 . S
H1077 C1085 0.950 . S
H1078 C1090 0.950 . S
H1079 C1087 0.950 . S
H1080 C1089 0.950 . S
H1081 C1091 0.950 . S
H1082 C1093 0.950 . S
H1083 C1095 0.950 . S
H1084 C1096 0.950 . S
C1085 H1077 0.950 . S
C1085 C1086 1.386 . S
C1085 C1087 1.391 . S
C1086 C1085 1.386 . S
C1086 C1090 1.393 . S
C1087 H1079 0.950 . S
C1087 C1085 1.391 . S
C1087 C1088 1.400 . S
C1088 C1087 1.400 . S
C1088 C1089 1.398 . S
C1088 C1094 1.491 . S
C1089 H1080 0.950 . S
C1089 C1088 1.398 . S
C1089 C1090 1.391 . S
C1090 H1078 0.950 . S
C1090 C1086 1.393 . S
C1090 C1089 1.391 . S
C1091 H1081 0.950 . S
C1091 C1092 1.386 . S
C1091 C1093 1.391 . S
C1092 C1091 1.386 . S
C1092 C1096 1.393 . S
C1093 H1082 0.950 . S
C1093 C1091 1.391 . S
C1093 C1094 1.400 . S
C1094 C1088 1.491 . S
C1094 C1093 1.400 . S
C1094 C1095 1.398 . S
C1095 H1083 0.950 . S
C1095 C1094 1.398 . S
C1095 C1096 1.391 . S
C1096 H1084 0.950 . S
C1096 C1092 1.393 . S
C1096 C1095 1.391 . S
H1097 C1105 0.950 . S
H1098 C1110 0.950 . S
H1099 C1107 0.950 . S
H1100 C1109 0.950 . S
H1101 C1111 0.950 . S
H1102 C1113 0.950 . S
H1103 C1115 0.950 . S
H1104 C1116 0.950 . S
C1105 H1097 0.950 . S
C1105 C1106 1.386 . S
C1105 C1107 1.391 . S
C1106 C1105 1.386 . S
C1106 C1110 1.393 . S
C1107 H1099 0.950 . S
C1107 C1105 1.391 . S
C1107 C1108 1.400 . S
C1108 C1107 1.400 . S
C1108 C1109 1.398 . S
C1108 C1114 1.491 . S
C1109 H1100 0.950 . S
C1109 C1108 1.398 . S
C1109 C1110 1.391 . S
C1110 H1098 0.950 . S
C1110 C1106 1.393 . S
C1110 C1109 1.391 . S
C1111 H1101 0.950 . S
C1111 C1112 1.386 . S
C1111 C1113 1.391 . S
C1112 C1111 1.386 . S
C1112 C1116 1.393 . S
C1113 H1102 0.950 . S
C1113 C1111 1.391 . S
C1113 C1114 1.400 . S
C1114 C1108 1.491 . S
C1114 C1113 1.400 . S
C1114 C1115 1.398 . S
C1115 H1103 0.950 . S
C1115 C1114 1.398 . S
C1115 C1116 1.391 . S
C1116 H1104 0.950 . S
C1116 C1112 1.393 . S
C1116 C1115 1.391 . S
H1117 C1125 0.950 . S
H1118 C1130 0.950 . S
H1119 C1127 0.950 . S
H1120 C1129 0.950 . S
H1121 C1131 0.950 . S
H1122 C1133 0.950 . S
H1123 C1135 0.950 . S
H1124 C1136 0.950 . S
C1125 H1117 0.950 . S
C1125 C1126 1.386 . S
C1125 C1127 1.391 . S
C1126 C1125 1.386 . S
C1126 C1130 1.393 . S
C1127 H1119 0.950 . S
C1127 C1125 1.391 . S
C1127 C1128 1.400 . S
C1128 C1127 1.400 . S
C1128 C1129 1.398 . S
C1128 C1134 1.491 . S
C1129 H1120 0.950 . S
C1129 C1128 1.398 . S
C1129 C1130 1.391 . S
C1130 H1118 0.950 . S
C1130 C1126 1.393 . S
C1130 C1129 1.391 . S
C1131 H1121 0.950 . S
C1131 C1132 1.386 . S
C1131 C1133 1.391 . S
C1132 C1131 1.386 . S
C1132 C1136 1.393 . S
C1133 H1122 0.950 . S
C1133 C1131 1.391 . S
C1133 C1134 1.400 . S
C1134 C1128 1.491 . S
C1134 C1133 1.400 . S
C1134 C1135 1.398 . S
C1135 H1123 0.950 . S
C1135 C1134 1.398 . S
C1135 C1136 1.391 . S
C1136 H1124 0.950 . S
C1136 C1132 1.393 . S
C1136 C1135 1.391 . S
H1137 C1145 0.950 . S
H1138 C1150 0.950 . S
H1139 C1147 0.950 . S
H1140 C1149 0.950 . S
H1141 C1151 0.950 . S
H1142 C1153 0.950 . S
H1143 C1155 0.950 . S
H1144 C1156 0.950 . S
C1145 H1137 0.950 . S
C1145 C1146 1.386 . S
C1145 C1147 1.391 . S
C1146 C1145 1.386 . S
C1146 C1150 1.393 . S
C1147 H1139 0.950 . S
C1147 C1145 1.391 . S
C1147 C1148 1.400 . S
C1148 C1147 1.400 . S
C1148 C1149 1.398 . S
C1148 C1154 1.491 . S
C1149 H1140 0.950 . S
C1149 C1148 1.398 . S
C1149 C1150 1.391 . S
C1150 H1138 0.950 . S
C1150 C1146 1.393 . S
C1150 C1149 1.391 . S
C1151 H1141 0.950 . S
C1151 C1152 1.386 . S
C1151 C1153 1.391 . S
C1152 C1151 1.386 . S
C1152 C1156 1.393 . S
C1153 H1142 0.950 . S
C1153 C1151 1.391 . S
C1153 C1154 1.400 . S
C1154 C1148 1.491 . S
C1154 C1153 1.400 . S
C1154 C1155 1.398 . S
C1155 H1143 0.950 . S
C1155 C1154 1.398 . S
C1155 C1156 1.391 . S
C1156 H1144 0.950 . S
C1156 C1152 1.393 . S
C1156 C1155 1.391 . S
H1157 C1165 0.950 . S
H1158 C1170 0.950 . S
H1159 C1167 0.950 . S
H1160 C1169 0.950 . S
H1161 C1171 0.950 . S
H1162 C1173 0.950 . S
H1163 C1175 0.950 . S
H1164 C1176 0.950 . S
C1165 H1157 0.950 . S
C1165 C1166 1.386 . S
C1165 C1167 1.391 . S
C1166 C1165 1.386 . S
C1166 C1170 1.393 . S
C1167 H1159 0.950 . S
C1167 C1165 1.391 . S
C1167 C1168 1.400 . S
C1168 C1167 1.400 . S
C1168 C1169 1.398 . S
C1168 C1174 1.491 . S
C1169 H1160 0.950 . S
C1169 C1168 1.398 . S
C1169 C1170 1.391 . S
C1170 H1158 0.950 . S
C1170 C1166 1.393 . S
C1170 C1169 1.391 . S
C1171 H1161 0.950 . S
C1171 C1172 1.386 . S
C1171 C1173 1.391 . S
C1172 C1171 1.386 . S
C1172 C1176 1.393 . S
C1173 H1162 0.950 . S
C1173 C1171 1.391 . S
C1173 C1174 1.400 . S
C1174 C1168 1.491 . S
C1174 C1173 1.400 . S
C1174 C1175 1.398 . S
C1175 H1163 0.950 . S
C1175 C1174 1.398 . S
C1175 C1176 1.391 . S
C1176 H1164 0.950 . S
C1176 C1172 1.393 . S
C1176 C1175 1.391 . S
H1177 C1185 0.950 . S
H1178 C1190 0.950 . S
H1179 C1187 0.950 . S
H1180 C1189 0.950 . S
H1181 C1191 0.950 . S
H1182 C1193 0.950 . S
H1183 C1195 0.950 . S
H1184 C1196 0.950 . S
C1185 H1177 0.950 . S
C1185 C1186 1.386 . S
C1185 C1187 1.391 . S
C1186 C1185 1.386 . S
C1186 C1190 1.393 . S
C1187 H1179 0.950 . S
C1187 C1185 1.391 . S
C1187 C1188 1.400 . S
C1188 C1187 1.400 . S
C1188 C1189 1.398 . S
C1188 C1194 1.491 . S
C1189 H1180 0.950 . S
C1189 C1188 1.398 . S
C1189 C1190 1.391 . S
C1190 H1178 0.950 . S
C1190 C1186 1.393 . S
C1190 C1189 1.391 . S
C1191 H1181 0.950 . S
C1191 C1192 1.386 . S
C1191 C1193 1.391 . S
C1192 C1191 1.386 . S
C1192 C1196 1.393 . S
C1193 H1182 0.950 . S
C1193 C1191 1.391 . S
C1193 C1194 1.400 . S
C1194 C1188 1.491 . S
C1194 C1193 1.400 . S
C1194 C1195 1.398 . S
C1195 H1183 0.950 . S
C1195 C1194 1.398 . S
C1195 C1196 1.391 . S
C1196 H1184 0.950 . S
C1196 C1192 1.393 . S
C1196 C1195 1.391 . S
H1197 C1205 0.950 . S
H1198 C1210 0.950 . S
H1199 C1207 0.950 . S
H1200 C1209 0.950 . S
H1201 C1211 0.950 . S
H1202 C1213 0.950 . S
H1203 C1215 0.950 . S
H1204 C1216 0.950 . S
C1205 H1197 0.950 . S
C1205 C1206 1.386 . S
C1205 C1207 1.391 . S
C1206 C1205 1.386 . S
C1206 C1210 1.393 . S
C1207 H1199 0.950 . S
C1207 C1205 1.391 . S
C1207 C1208 1.400 . S
C1208 C1207 1.400 . S
C1208 C1209 1.398 . S
C1208 C1214 1.491 . S
C1209 H1200 0.950 . S
C1209 C1208 1.398 . S
C1209 C1210 1.391 . S
C1210 H1198 0.950 . S
C1210 C1206 1.393 . S
C1210 C1209 1.391 . S
C1211 H1201 0.950 . S
C1211 C1212 1.386 . S
C1211 C1213 1.391 . S
C1212 C1211 1.386 . S
C1212 C1216 1.393 . S
C1213 H1202 0.950 . S
C1213 C1211 1.391 . S
C1213 C1214 1.400 . S
C1214 C1208 1.491 . S
C1214 C1213 1.400 . S
C1214 C1215 1.398 . S
C1215 H1203 0.950 . S
C1215 C1214 1.398 . S
C1215 C1216 1.391 . S
C1216 H1204 0.950 . S
C1216 C1212 1.393 . S
C1216 C1215 1.391 . S
H1217 C1225 0.950 . S
H1218 C1230 0.950 . S
H1219 C1227 0.950 . S
H1220 C1229 0.950 . S
H1221 C1231 0.950 . S
H1222 C1233 0.950 . S
H1223 C1235 0.950 . S
H1224 C1236 0.950 . S
C1225 H1217 0.950 . S
C1225 C1226 1.386 . S
C1225 C1227 1.391 . S
C1226 C1225 1.386 . S
C1226 C1230 1.393 . S
C1227 H1219 0.950 . S
C1227 C1225 1.391 . S
C1227 C1228 1.400 . S
C1228 C1227 1.400 . S
C1228 C1229 1.398 . S
C1228 C1234 1.491 . S
C1229 H1220 0.950 . S
C1229 C1228 1.398 . S
C1229 C1230 1.391 . S
C1230 H1218 0.950 . S
C1230 C1226 1.393 . S
C1230 C1229 1.391 . S
C1231 H1221 0.950 . S
C1231 C1232 1.386 . S
C1231 C1233 1.391 . S
C1232 C1231 1.386 . S
C1232 C1236 1.393 . S
C1233 H1222 0.950 . S
C1233 C1231 1.391 . S
C1233 C1234 1.400 . S
C1234 C1228 1.491 . S
C1234 C1233 1.400 . S
C1234 C1235 1.398 . S
C1235 H1223 0.950 . S
C1235 C1234 1.398 . S
C1235 C1236 1.391 . S
C1236 H1224 0.950 . S
C1236 C1232 1.393 . S
C1236 C1235 1.391 . S
H1237 C1245 0.950 . S
H1238 C1250 0.950 . S
H1239 C1247 0.950 . S
H1240 C1249 0.950 . S
H1241 C1251 0.950 . S
H1242 C1253 0.950 . S
H1243 C1255 0.950 . S
H1244 C1256 0.950 . S
C1245 H1237 0.950 . S
C1245 C1246 1.386 . S
C1245 C1247 1.391 . S
C1246 C1245 1.386 . S
C1246 C1250 1.393 . S
C1247 H1239 0.950 . S
C1247 C1245 1.391 . S
C1247 C1248 1.400 . S
C1248 C1247 1.400 . S
C1248 C1249 1.398 . S
C1248 C1254 1.491 . S
C1249 H1240 0.950 . S
C1249 C1248 1.398 . S
C1249 C1250 1.391 . S
C1250 H1238 0.950 . S
C1250 C1246 1.393 . S
C1250 C1249 1.391 . S
C1251 H1241 0.950 . S
C1251 C1252 1.386 . S
C1251 C1253 1.391 . S
C1252 C1251 1.386 . S
C1252 C1256 1.393 . S
C1253 H1242 0.950 . S
C1253 C1251 1.391 . S
C1253 C1254 1.400 . S
C1254 C1248 1.491 . S
C1254 C1253 1.400 . S
C1254 C1255 1.398 . S
C1255 H1243 0.950 . S
C1255 C1254 1.398 . S
C1255 C1256 1.391 . S
C1256 H1244 0.950 . S
C1256 C1252 1.393 . S
C1256 C1255 1.391 . S
C786 C11 1.474 . S
C792 C684 1.777 . S
C806 C125 1.215 . S
C812 C716 1.632 . S
C832 C775 2.053 . S
C826 C239 1.537 . S
C852 C704 1.356 . S
C846 C343 1.225 . S
C866 C485 1.272 . S
C872 C734 1.705 . S
C892 C756 1.157 . S
C886 C571 1.103 . S
C912 C725 1.815 . S
C906 C257 1.218 . S
C926 C397 0.772 . S
C932 C765 1.340 . S
C952 C714 1.758 . S
C946 C467 1.339 . S
C966 C625 1.136 . S
C972 C744 1.634 . S
C986 C29 1.536 . S
C992 C747 1.951 . S
C1012 C686 1.687 . S
C1006 C143 1.217 . S
C1032 C694 1.610 . S
C1026 C371 1.424 . S
C1052 C735 1.379 . S
C1046 C457 1.053 . S
C1072 C748 1.955 . S
C1066 C599 1.706 . S
C1092 C685 1.513 . S
C1086 C55 1.294 . S
C1112 C745 1.609 . S
C1106 C169 1.378 . S
C1126 C283 0.980 . S
C1132 C746 1.213 . S
C1152 C715 1.619 . S
C1146 C581 1.043 . S
C1172 C776 1.053 . S
C1166 C1 0.888 . S
C1192 C703 1.411 . S
C1186 C115 1.072 . S
C1212 C717 1.363 . S
C1206 C229 1.016 . S
C1226 C353 1.159 . S
C1232 C766 1.933 . S
C1246 C511 1.335 . S
C1252 C713 1.666 . S
