# Generated by pormake.
# Topology nom, (4,4)-cn, num edge types: 1
# Building blocks:
#     Node 0, Type 0, BuildingBlock: NAHDIM_clean_linker_0, # of connection points: 4
#     Node 1, Type 0, BuildingBlock: NAHDIM_clean_linker_0, # of connection points: 4
#     Node 2, Type 0, BuildingBlock: NAHDIM_clean_linker_0, # of connection points: 4
#     Node 3, Type 0, BuildingBlock: NAHDIM_clean_linker_0, # of connection points: 4
#     Node 4, Type 0, BuildingBlock: NAHDIM_clean_linker_0, # of connection points: 4
#     Node 5, Type 0, BuildingBlock: NAHDIM_clean_linker_0, # of connection points: 4
#     Node 6, Type 1, BuildingBlock: UXUYUI_clean_sbu_0, # of connection points: 4
#     Node 7, Type 1, BuildingBlock: UXUYUI_clean_sbu_0, # of connection points: 4
#     Node 8, Type 1, BuildingBlock: UXUYUI_clean_sbu_0, # of connection points: 4
#     Node 9, Type 1, BuildingBlock: UXUYUI_clean_sbu_0, # of connection points: 4
#     Node 10, Type 1, BuildingBlock: UXUYUI_clean_sbu_0, # of connection points: 4
#     Node 11, Type 1, BuildingBlock: UXUYUI_clean_sbu_0, # of connection points: 4
#     Edge 12, Type (0, 1), BuildingBlock: OJICUG_clean_linker_0, # of connection points: 2
#     Edge 13, Type (0, 1), BuildingBlock: OJICUG_clean_linker_0, # of connection points: 2
#     Edge 14, Type (0, 1), BuildingBlock: OJICUG_clean_linker_0, # of connection points: 2
#     Edge 15, Type (0, 1), BuildingBlock: OJICUG_clean_linker_0, # of connection points: 2
#     Edge 16, Type (0, 1), BuildingBlock: OJICUG_clean_linker_0, # of connection points: 2
#     Edge 17, Type (0, 1), BuildingBlock: OJICUG_clean_linker_0, # of connection points: 2
#     Edge 18, Type (0, 1), BuildingBlock: OJICUG_clean_linker_0, # of connection points: 2
#     Edge 19, Type (0, 1), BuildingBlock: OJICUG_clean_linker_0, # of connection points: 2
#     Edge 20, Type (0, 1), BuildingBlock: OJICUG_clean_linker_0, # of connection points: 2
#     Edge 21, Type (0, 1), BuildingBlock: OJICUG_clean_linker_0, # of connection points: 2
#     Edge 22, Type (0, 1), BuildingBlock: OJICUG_clean_linker_0, # of connection points: 2
#     Edge 23, Type (0, 1), BuildingBlock: OJICUG_clean_linker_0, # of connection points: 2
#     Edge 24, Type (0, 1), BuildingBlock: OJICUG_clean_linker_0, # of connection points: 2
#     Edge 25, Type (0, 1), BuildingBlock: OJICUG_clean_linker_0, # of connection points: 2
#     Edge 26, Type (0, 1), BuildingBlock: OJICUG_clean_linker_0, # of connection points: 2
#     Edge 27, Type (0, 1), BuildingBlock: OJICUG_clean_linker_0, # of connection points: 2
#     Edge 28, Type (0, 1), BuildingBlock: OJICUG_clean_linker_0, # of connection points: 2
#     Edge 29, Type (0, 1), BuildingBlock: OJICUG_clean_linker_0, # of connection points: 2
#     Edge 30, Type (0, 1), BuildingBlock: OJICUG_clean_linker_0, # of connection points: 2
#     Edge 31, Type (0, 1), BuildingBlock: OJICUG_clean_linker_0, # of connection points: 2
#     Edge 32, Type (0, 1), BuildingBlock: OJICUG_clean_linker_0, # of connection points: 2
#     Edge 33, Type (0, 1), BuildingBlock: OJICUG_clean_linker_0, # of connection points: 2
#     Edge 34, Type (0, 1), BuildingBlock: OJICUG_clean_linker_0, # of connection points: 2
#     Edge 35, Type (0, 1), BuildingBlock: OJICUG_clean_linker_0, # of connection points: 2
# Relax obj value: 0.085
# Max RMSD: 0.156
# Mean RMSD: 0.138
data_MOF--net-nom--node1-UXUYUI_clean_sbu_0--node2-NAHDIM_clean_linker_0--edge1-OJICUG_clean_linker_0
_symmetry_space_group_name_H-M    P1
_symmetry_Int_Tables_number       1
_symmetry_cell_setting            triclinic
loop_
_symmetry_equiv_pos_as_xyz
'x, y, z'
_cell_length_a     56.134824
_cell_length_b     56.135354
_cell_length_c     68.514272
_cell_angle_alpha  90.118128
_cell_angle_beta   90.086741
_cell_angle_gamma 119.99257
loop_
_atom_site_label
_atom_site_type_symbol
_atom_site_fract_x
_atom_site_fract_y
_atom_site_fract_z
_atom_type_partial_charge
C0 C 0.17119 0.60689 0.23562 0.0
C1 C 0.18286 0.61286 0.25642 0.0
C2 C 0.14055 0.59717 0.27547 0.0
C3 C 0.13253 0.5691 0.27625 0.0
C4 C 0.1062 0.54951 0.28268 0.0
C5 C 0.08725 0.55802 0.28801 0.0
C6 C 0.0954 0.5863 0.28756 0.0
C7 C 0.12216 0.60553 0.28163 0.0
C8 C 0.0985 0.51962 0.28346 0.0
C9 C 0.07563 0.59615 0.29278 0.0
C10 C 0.98497 0.43652 0.18306 0.0
C11 C 0.97097 0.45042 0.19338 0.0
C12 C 0.97398 0.45463 0.22875 0.0
C13 C 0.97672 0.4807 0.23116 0.0
C14 C 0.98858 0.49612 0.2482 0.0
C15 C 0.99811 0.48528 0.26295 0.0
C16 C 0.99462 0.45861 0.26071 0.0
C17 C 0.98203 0.44341 0.24377 0.0
C18 C 0.99136 0.52416 0.25028 0.0
C19 C 0.00504 0.44649 0.27586 0.0
C20 C 0.88399 0.42597 0.36331 0.0
C21 C 0.89316 0.45354 0.35861 0.0
C22 C 0.92138 0.47264 0.35732 0.0
C23 C 0.9407 0.4638 0.36045 0.0
C24 C 0.93146 0.43627 0.36602 0.0
C25 C 0.90314 0.41781 0.36766 0.0
C26 C 0.93052 0.50208 0.35212 0.0
C27 C 0.95142 0.42613 0.36963 0.0
C28 C 0.13746 0.57366 0.41651 0.0
C29 C 0.11821 0.55181 0.43105 0.0
C30 C 0.0735 0.54049 0.41752 0.0
C31 C 0.05937 0.55435 0.41283 0.0
C32 C 0.04021 0.54525 0.39744 0.0
C33 C 0.03476 0.52141 0.38683 0.0
C34 C 0.04786 0.50645 0.39223 0.0
C35 C 0.0671 0.51615 0.4075 0.0
C36 C 0.02637 0.56149 0.39214 0.0
C37 C 0.04187 0.4804 0.38164 0.0
C38 C 0.05837 0.53717 0.29258 0.0
C39 C 0.04121 0.52246 0.27697 0.0
C40 C 0.01373 0.50252 0.27994 0.0
C41 C 0.00252 0.49801 0.29893 0.0
C42 C 0.97453 0.47945 0.30228 0.0
C43 C 0.96386 0.4746 0.32109 0.0
C44 C 0.98085 0.48795 0.3373 0.0
C45 C 0.97032 0.48276 0.35654 0.0
C46 C 0.98815 0.49489 0.37239 0.0
C47 C 0.01632 0.51252 0.36952 0.0
C48 C 0.02691 0.51934 0.35036 0.0
C49 C 0.05491 0.53809 0.34695 0.0
C50 C 0.06524 0.54421 0.32804 0.0
C51 C 0.04806 0.53148 0.31185 0.0
C52 C 0.01988 0.5122 0.31497 0.0
C53 C 0.00916 0.50667 0.33422 0.0
C54 C 0.81774 0.37692 0.3448 0.0
C55 C 0.8366 0.40637 0.35193 0.0
O56 O 0.16555 0.61678 0.26877 0.0
O57 O 0.09318 0.55118 0.43166 0.0
O58 O 0.8569 0.4067 0.36367 0.0
O59 O 0.9638 0.43988 0.21209 0.0
H60 H 0.18505 0.59531 0.26156 0.0
H61 H 0.15093 0.58763 0.23533 0.0
H62 H 0.16842 0.62401 0.23021 0.0
H63 H 0.18525 0.6042 0.22563 0.0
H64 H 0.14652 0.56213 0.27191 0.0
H65 H 0.12857 0.62722 0.28112 0.0
H66 H 0.08431 0.50833 0.27121 0.0
H67 H 0.11676 0.51695 0.28227 0.0
H68 H 0.08761 0.5101 0.29729 0.0
H69 H 0.08438 0.61846 0.28992 0.0
H70 H 0.05625 0.5845 0.28431 0.0
H71 H 0.07034 0.59234 0.30849 0.0
H72 H 0.98618 0.47288 0.19382 0.0
H73 H 0.99123 0.44483 0.16807 0.0
H74 H 0.00369 0.44056 0.1913 0.0
H75 H 0.9709 0.41391 0.18217 0.0
H76 H 0.96962 0.48897 0.21973 0.0
H77 H 0.97947 0.4231 0.24178 0.0
H78 H 0.01331 0.54019 0.24869 0.0
H79 H 0.97919 0.5278 0.23909 0.0
H80 H 0.98456 0.52654 0.26501 0.0
H81 H 0.00351 0.42693 0.27086 0.0
H82 H 0.02685 0.46129 0.27953 0.0
H83 H 0.99285 0.44233 0.28943 0.0
H84 H 0.84592 0.41921 0.33869 0.0
H85 H 0.87834 0.46015 0.3559 0.0
H86 H 0.89577 0.39656 0.37159 0.0
H87 H 0.93826 0.5061 0.3369 0.0
H88 H 0.91346 0.50665 0.35326 0.0
H89 H 0.94763 0.51639 0.36182 0.0
H90 H 0.9408 0.40363 0.37238 0.0
H91 H 0.96526 0.43085 0.35688 0.0
H92 H 0.96444 0.43696 0.38248 0.0
H93 H 0.11524 0.5316 0.42627 0.0
H94 H 0.15772 0.57463 0.41617 0.0
H95 H 0.12846 0.56841 0.4016 0.0
H96 H 0.14062 0.59423 0.42057 0.0
H97 H 0.06413 0.57288 0.42084 0.0
H98 H 0.07684 0.50444 0.41158 0.0
H99 H 0.03147 0.56878 0.37684 0.0
H100 H 0.0037 0.54803 0.39298 0.0
H101 H 0.03272 0.57954 0.40188 0.0
H102 H 0.05198 0.46992 0.38865 0.0
H103 H 0.01934 0.46593 0.38112 0.0
H104 H 0.04923 0.48536 0.36635 0.0
H105 H 0.04956 0.52615 0.2623 0.0
H106 H 0.96057 0.4685 0.29037 0.0
H107 H 0.94218 0.45995 0.32277 0.0
H108 H 0.98013 0.48996 0.38713 0.0
H109 H 0.06912 0.54838 0.35887 0.0
H110 H 0.08694 0.5588 0.32627 0.0
H111 H 0.80162 0.37601 0.33488 0.0
H112 H 0.82994 0.3696 0.33661 0.0
H113 H 0.80768 0.36291 0.35734 0.0
C114 C 0.39979 0.8228 0.55171 0.0
C115 C 0.42557 0.84883 0.54741 0.0
C116 C 0.44349 0.89843 0.54695 0.0
C117 C 0.46951 0.90518 0.53958 0.0
C118 C 0.48916 0.93255 0.5354 0.0
C119 C 0.48244 0.95347 0.5382 0.0
C120 C 0.45632 0.94675 0.54562 0.0
C121 C 0.43725 0.91929 0.55003 0.0
C122 C 0.51706 0.93909 0.52789 0.0
C123 C 0.44851 0.96858 0.54879 0.0
C124 C 0.61891 0.06277 0.63626 0.0
C125 C 0.6009 0.07358 0.62782 0.0
C126 C 0.59167 0.06992 0.59296 0.0
C127 C 0.5647 0.06527 0.59278 0.0
C128 C 0.5473 0.05243 0.57673 0.0
C129 C 0.55703 0.0437 0.56073 0.0
C130 C 0.5845 0.0489 0.56081 0.0
C131 C 0.60164 0.06258 0.57678 0.0
C132 C 0.51842 0.04782 0.57703 0.0
C133 C 0.5956 0.0393 0.54438 0.0
C134 C 0.60637 0.15468 0.45905 0.0
C135 C 0.57877 0.14521 0.46382 0.0
C136 C 0.56012 0.11697 0.4657 0.0
C137 C 0.5694 0.09794 0.46295 0.0
C138 C 0.5969 0.10742 0.45718 0.0
C139 C 0.61495 0.13575 0.45505 0.0
C140 C 0.53069 0.10751 0.47119 0.0
C141 C 0.60748 0.08773 0.45396 0.0
C142 C 0.48787 0.90123 0.40841 0.0
C143 C 0.49949 0.92347 0.39258 0.0
C144 C 0.49919 0.96209 0.40943 0.0
C145 C 0.4845 0.97595 0.41203 0.0
C146 C 0.4917 0.99586 0.42679 0.0
C147 C 0.5144 0.00225 0.43907 0.0
C148 C 0.52999 0.98906 0.43607 0.0
C149 C 0.52211 0.96902 0.42144 0.0
C150 C 0.47473 0.00959 0.42961 0.0
C151 C 0.55479 0.99575 0.44856 0.0
C152 C 0.50259 0.98238 0.5332 0.0
C153 C 0.51897 -0.00016 0.54818 0.0
C154 C 0.5381 0.02745 0.54458 0.0
C155 C 0.54035 0.03825 0.52561 0.0
C156 C 0.55803 0.06628 0.52166 0.0
C157 C 0.56114 0.07638 0.50274 0.0
C158 C 0.54695 0.05874 0.48699 0.0
C159 C 0.55097 0.06845 0.46754 0.0
C160 C 0.53861 0.04984 0.45211 0.0
C161 C 0.52154 0.02175 0.45566 0.0
C162 C 0.51514 0.01217 0.47506 0.0
C163 C 0.49611 0.98449 0.47913 0.0
C164 C 0.49118 0.97488 0.49823 0.0
C165 C 0.50594 0.99233 0.51389 0.0
C166 C 0.52481 0.02042 0.51012 0.0
C167 C 0.52869 0.03053 0.49074 0.0
C168 C 0.65453 0.21925 0.47898 0.0
C169 C 0.6257 0.20207 0.4703 0.0
O170 O 0.42392 0.8722 0.55126 0.0
O171 O 0.49041 0.94213 0.39544 0.0
O172 O 0.6253 0.18187 0.4584 0.0
O173 O 0.60846 0.08128 0.6086 0.0
H174 H 0.44457 0.84992 0.55343 0.0
H175 H 0.38687 0.82838 0.56116 0.0
H176 H 0.38676 0.8042 0.52423 0.0
H177 H 0.40531 0.81306 0.56395 0.0
H178 H 0.4747 0.88928 0.53708 0.0
H179 H 0.41718 0.9139 0.55573 0.0
H180 H 0.53356 0.95608 0.53656 0.0
H181 H 0.52009 0.921 0.52847 0.0
H182 H 0.51935 0.9461 0.51252 0.0
H183 H 0.42687 0.95979 0.55367 0.0
H184 H 0.46226 0.98346 0.55998 0.0
H185 H 0.45136 0.98018 0.53506 0.0
H186 H 0.57919 0.05641 0.62865 0.0
H187 H 0.61304 0.05609 0.65162 0.0
H188 H 0.6161 0.04479 0.6276 0.0
H189 H 0.64099 0.07893 0.63581 0.0
H190 H 0.5573 0.0717 0.60518 0.0
H191 H 0.62262 0.06656 0.57707 0.0
H192 H 0.50373 0.02573 0.57978 0.0
H193 H 0.5157 0.06012 0.58862 0.0
H194 H 0.51312 0.05318 0.5627 0.0
H195 H 0.61558 0.04088 0.54822 0.0
H196 H 0.58073 0.01762 0.54043 0.0
H197 H 0.59876 0.05213 0.53128 0.0
H198 H 0.61142 0.19266 0.48286 0.0
H199 H 0.57181 0.15984 0.46616 0.0
H200 H 0.63621 0.14333 0.45103 0.0
H201 H 0.52707 0.09998 0.48646 0.0
H202 H 0.52576 0.12432 0.47003 0.0
H203 H 0.51638 0.09015 0.46167 0.0
H204 H 0.62984 0.09856 0.45068 0.0
H205 H 0.60363 0.07478 0.46711 0.0
H206 H 0.59624 0.07379 0.44158 0.0
H207 H 0.52234 0.93439 0.39314 0.0
H208 H 0.49475 0.88603 0.40591 0.0
H209 H 0.49522 0.9105 0.42307 0.0
H210 H 0.46502 0.89033 0.40836 0.0
H211 H 0.46694 0.97067 0.40268 0.0
H212 H 0.53398 0.95882 0.41972 0.0
H213 H 0.46647 0.00594 0.4447 0.0
H214 H 0.48794 0.03216 0.42774 0.0
H215 H 0.45729 0.00193 0.41912 0.0
H216 H 0.56702 0.98685 0.44254 0.0
H217 H 0.56836 0.01836 0.44994 0.0
H218 H 0.54791 0.98736 0.46344 0.0
H219 H 0.51716 0.99166 0.56279 0.0
H220 H 0.56975 0.08068 0.53318 0.0
H221 H 0.57529 0.09809 0.50057 0.0
H222 H 0.54324 0.05714 0.43719 0.0
H223 H 0.48476 0.97 0.46757 0.0
H224 H 0.47624 0.9534 0.50049 0.0
H225 H 0.67007 0.22914 0.46724 0.0
H226 H 0.6554 0.23545 0.48879 0.0
H227 H 0.65984 0.20584 0.48765 0.0
C228 C 0.59026 0.43763 0.75158 0.0
C229 C 0.59315 0.43021 0.73051 0.0
C230 C 0.5651 0.44558 0.71276 0.0
C231 C 0.58492 0.47374 0.71206 0.0
C232 C 0.57801 0.49309 0.70531 0.0
C233 C 0.55059 0.48424 0.69961 0.0
C234 C 0.53063 0.45592 0.7002 0.0
C235 C 0.53833 0.43695 0.70644 0.0
C236 C 0.59999 0.52305 0.7045 0.0
C237 C 0.50102 0.44571 0.69468 0.0
C238 C 0.57233 0.61492 0.79985 0.0
C239 C 0.54452 0.59617 0.79016 0.0
C240 C 0.5399 0.58977 0.75504 0.0
C241 C 0.51753 0.5629 0.75389 0.0
C242 C 0.51354 0.54658 0.7373 0.0
C243 C 0.5327 0.55726 0.72179 0.0
C244 C 0.55492 0.58471 0.7228 0.0
C245 C 0.55777 0.60082 0.73926 0.0
C246 C 0.48923 0.51775 0.73657 0.0
C247 C 0.57635 0.59678 0.70692 0.0
C248 C 0.47249 0.60674 0.62031 0.0
C249 C 0.45508 0.57869 0.62416 0.0
C250 C 0.46568 0.56081 0.62552 0.0
C251 C 0.49426 0.57132 0.62314 0.0
C252 C 0.51154 0.59926 0.61808 0.0
C253 C 0.50028 0.61656 0.61648 0.0
C254 C 0.4465 0.53091 0.63022 0.0
C255 C 0.54204 0.61108 0.6152 0.0
C256 C 0.60333 0.48122 0.57219 0.0
C257 C 0.59682 0.49514 0.55543 0.0
C258 C 0.55936 0.49955 0.57027 0.0
C259 C 0.53099 0.48519 0.5736 0.0
C260 C 0.51919 0.49357 0.58823 0.0
C261 C 0.53621 0.51726 0.59948 0.0
C262 C 0.56472 0.5327 0.59552 0.0
C263 C 0.57603 0.52356 0.58113 0.0
C264 C 0.48873 0.4767 0.59209 0.0
C265 C 0.58343 0.55864 0.60678 0.0
C266 C 0.54239 0.50473 0.6942 0.0
C267 C 0.53957 0.51997 0.70924 0.0
C268 C 0.5312 0.53913 0.70545 0.0
C269 C 0.52395 0.54216 0.68623 0.0
C270 C 0.51327 0.55951 0.6821 0.0
C271 C 0.50711 0.56307 0.66302 0.0
C272 C 0.51176 0.54968 0.64732 0.0
C273 C 0.50636 0.55379 0.6278 0.0
C274 C 0.51326 0.54189 0.61246 0.0
C275 C 0.52488 0.52536 0.61614 0.0
C276 C 0.52845 0.51933 0.6356 0.0
C277 C 0.53848 0.50141 0.63982 0.0
C278 C 0.54274 0.49629 0.659 0.0
C279 C 0.53762 0.5093 0.67467 0.0
C280 C 0.52781 0.52768 0.67073 0.0
C281 C 0.52244 0.53204 0.65121 0.0
C282 C 0.45505 0.6519 0.64325 0.0
C283 C 0.44346 0.62402 0.63305 0.0
O284 O 0.57066 0.42609 0.7195 0.0
O285 O 0.56977 0.48942 0.55672 0.0
O286 O 0.46322 0.62489 0.62048 0.0
O287 O 0.54502 0.60534 0.77132 0.0
H288 H 0.61236 0.44709 0.72411 0.0
H289 H 0.58958 0.45705 0.75193 0.0
H290 H 0.57104 0.42105 0.7582 0.0
H291 H 0.60812 0.44067 0.7605 0.0
H292 H 0.60582 0.48094 0.71674 0.0
H293 H 0.52321 0.41521 0.70697 0.0
H294 H 0.59665 0.53438 0.71649 0.0
H295 H 0.62098 0.52597 0.7061 0.0
H296 H 0.59881 0.53232 0.69048 0.0
H297 H 0.4875 0.42357 0.69808 0.0
H298 H 0.49317 0.45774 0.7025 0.0
H299 H 0.49959 0.44864 0.6788 0.0
H300 H 0.5417 0.57503 0.78994 0.0
H301 H 0.57269 0.60777 0.81491 0.0
H302 H 0.58895 0.61452 0.79134 0.0
H303 H 0.57652 0.63647 0.80049 0.0
H304 H 0.50331 0.55469 0.766 0.0
H305 H 0.57481 0.62172 0.74032 0.0
H306 H 0.49638 0.50283 0.73927 0.0
H307 H 0.47358 0.51448 0.74776 0.0
H308 H 0.4794 0.51326 0.72192 0.0
H309 H 0.59438 0.61672 0.71135 0.0
H310 H 0.58367 0.58232 0.70295 0.0
H311 H 0.56717 0.6003 0.69367 0.0
H312 H 0.43869 0.60856 0.64479 0.0
H313 H 0.43329 0.57082 0.62632 0.0
H314 H 0.51339 0.63817 0.61314 0.0
H315 H 0.45012 0.52684 0.64548 0.0
H316 H 0.42455 0.52511 0.6287 0.0
H317 H 0.45067 0.51756 0.6205 0.0
H318 H 0.55277 0.63343 0.61188 0.0
H319 H 0.55131 0.60786 0.62855 0.0
H320 H 0.54561 0.60021 0.603 0.0
H321 H 0.61105 0.5177 0.5562 0.0
H322 H 0.6248 0.48532 0.57101 0.0
H323 H 0.60122 0.48938 0.58646 0.0
H324 H 0.58902 0.45863 0.57191 0.0
H325 H 0.5182 0.46683 0.56508 0.0
H326 H 0.59793 0.53538 0.57863 0.0
H327 H 0.48525 0.46938 0.60743 0.0
H328 H 0.47915 0.48972 0.59023 0.0
H329 H 0.4783 0.45863 0.58219 0.0
H330 H 0.60427 0.57022 0.60024 0.0
H331 H 0.57443 0.57231 0.60738 0.0
H332 H 0.58558 0.55325 0.622 0.0
H333 H 0.54453 0.51728 0.72409 0.0
H334 H 0.50955 0.5705 0.6936 0.0
H335 H 0.4991 0.57683 0.66074 0.0
H336 H 0.5103 0.54621 0.5975 0.0
H337 H 0.54301 0.49101 0.62832 0.0
H338 H 0.55052 0.48234 0.66139 0.0
H339 H 0.46074 0.6686 0.63242 0.0
H340 H 0.43965 0.65173 0.65352 0.0
H341 H 0.47374 0.65636 0.65171 0.0
C342 C 0.16683 0.57772 0.92135 0.0
C343 C 0.17894 0.58425 0.90074 0.0
C344 C 0.13716 0.5597 0.88056 0.0
C345 C 0.12877 0.57946 0.88172 0.0
C346 C 0.10299 0.57369 0.87454 0.0
C347 C 0.08501 0.54748 0.86646 0.0
C348 C 0.09352 0.52766 0.8651 0.0
C349 C 0.11971 0.53429 0.87185 0.0
C350 C 0.09475 0.59544 0.87595 0.0
C351 C 0.07468 0.49917 0.85709 0.0
C352 C 0.92336 0.46894 0.97088 0.0
C353 C 0.94409 0.47495 0.95531 0.0
C354 C 0.95919 0.49855 0.92406 0.0
C355 C 0.9698 0.48228 0.91686 0.0
C356 C 0.9851 0.48926 0.89958 0.0
C357 C 0.99088 0.51363 0.88961 0.0
C358 C 0.98036 0.53019 0.89685 0.0
C359 C 0.96409 0.52203 0.91377 0.0
C360 C 0.99553 0.47075 0.89221 0.0
C361 C 0.98684 0.55681 0.88705 0.0
C362 C 0.88612 0.47603 0.78402 0.0
C363 C 0.89609 0.45822 0.78849 0.0
C364 C 0.92439 0.46836 0.79082 0.0
C365 C 0.94292 0.49698 0.78914 0.0
C366 C 0.93293 0.51476 0.78381 0.0
C367 C 0.90461 0.5039 0.78098 0.0
C368 C 0.93439 0.44858 0.79558 0.0
C369 C 0.95205 0.54534 0.78169 0.0
C370 C 0.14353 0.5882 0.73944 0.0
C371 C 0.12467 0.58982 0.72395 0.0
C372 C 0.07947 0.55655 0.73677 0.0
C373 C 0.06512 0.52867 0.74165 0.0
C374 C 0.04508 0.51883 0.75638 0.0
C375 C 0.03893 0.53734 0.7661 0.0
C376 C 0.05227 0.56529 0.76047 0.0
C377 C 0.07246 0.57464 0.74589 0.0
C378 C 0.03104 0.48885 0.76194 0.0
C379 C 0.04551 0.5854 0.77009 0.0
C380 C 0.05645 0.53986 0.8611 0.0
C381 C 0.03757 0.53291 0.87627 0.0
C382 C 0.00965 0.52261 0.87255 0.0
C383 C 0.00015 0.5193 0.85305 0.0
C384 C 0.9721 0.50823 0.8487 0.0
C385 C 0.96301 0.50505 0.82946 0.0
C386 C 0.98154 0.51225 0.8138 0.0
C387 C 0.97242 0.50855 0.79417 0.0
C388 C 0.99148 0.5164 0.77897 0.0
C389 C 0.01958 0.52793 0.78282 0.0
C390 C 0.02903 0.53128 0.80234 0.0
C391 C 0.05711 0.5423 0.80672 0.0
C392 C 0.0662 0.54539 0.82595 0.0
C393 C 0.04756 0.53756 0.84154 0.0
C394 C 0.01924 0.52695 0.8375 0.0
C395 C 0.00993 0.52349 0.81786 0.0
C396 C 0.82022 0.4585 0.80185 0.0
C397 C 0.83887 0.44761 0.79488 0.0
O398 O 0.16156 0.56396 0.88778 0.0
O399 O 0.09985 0.56521 0.72327 0.0
O400 O 0.85882 0.46701 0.78272 0.0
O401 O 0.94437 0.49236 0.94085 0.0
H402 H 0.18187 0.6045 0.89611 0.0
H403 H 0.14684 0.57729 0.92164 0.0
H404 H 0.16341 0.55736 0.92619 0.0
H405 H 0.18096 0.59376 0.93181 0.0
H406 H 0.14199 0.59936 0.88824 0.0
H407 H 0.1264 0.51924 0.87096 0.0
H408 H 0.07897 0.58965 0.8875 0.0
H409 H 0.11248 0.616 0.87959 0.0
H410 H 0.08552 0.59689 0.86197 0.0
H411 H 0.08326 0.48528 0.8591 0.0
H412 H 0.05431 0.48988 0.86435 0.0
H413 H 0.07134 0.50047 0.84126 0.0
H414 H 0.96517 0.48086 0.96056 0.0
H415 H 0.89613 0.42649 0.96793 0.0
H416 H 0.9358 0.47839 0.98452 0.0
H417 H 0.91659 0.48468 0.96938 0.0
H418 H 0.96624 0.46401 0.92458 0.0
H419 H 0.95583 0.53447 0.9194 0.0
H420 H 0.99283 0.46799 0.87615 0.0
H421 H 0.01783 0.48037 0.89548 0.0
H422 H 0.98481 0.45019 0.89922 0.0
H423 H 0.98005 0.56894 0.89588 0.0
H424 H 0.00931 0.56956 0.88442 0.0
H425 H 0.97636 0.55234 0.87267 0.0
H426 H 0.84856 0.4446 0.80816 0.0
H427 H 0.88175 0.43643 0.7902 0.0
H428 H 0.89662 0.51733 0.77721 0.0
H429 H 0.94031 0.4507 0.81121 0.0
H430 H 0.9183 0.42687 0.79283 0.0
H431 H 0.95287 0.45336 0.7868 0.0
H432 H 0.94076 0.55657 0.77891 0.0
H433 H 0.96467 0.5538 0.79511 0.0
H434 H 0.96633 0.54924 0.76935 0.0
H435 H 0.12126 0.60707 0.72788 0.0
H436 H 0.1637 0.60759 0.73975 0.0
H437 H 0.13403 0.58519 0.7541 0.0
H438 H 0.14697 0.57069 0.73638 0.0
H439 H 0.07035 0.51477 0.73432 0.0
H440 H 0.08241 0.596 0.74164 0.0
H441 H 0.03511 0.48694 0.77756 0.0
H442 H 0.00845 0.47948 0.76014 0.0
H443 H 0.03813 0.47708 0.75298 0.0
H444 H 0.05591 0.60586 0.76291 0.0
H445 H 0.02294 0.57719 0.76976 0.0
H446 H 0.05198 0.58813 0.78563 0.0
H447 H 0.0446 0.53466 0.89125 0.0
H448 H 0.95684 0.50193 0.86013 0.0
H449 H 0.9412 0.4967 0.82706 0.0
H450 H 0.98439 0.51384 0.76396 0.0
H451 H 0.0724 0.54851 0.79532 0.0
H452 H 0.08802 0.55395 0.82847 0.0
H453 H 0.80433 0.44365 0.812 0.0
H454 H 0.83265 0.47829 0.80974 0.0
H455 H 0.80987 0.46204 0.78926 0.0
C456 C 0.48006 0.88098 0.90092 0.0
C457 C 0.46263 0.86371 0.91816 0.0
C458 C 0.48059 0.8999 0.94295 0.0
C459 C 0.46105 0.90848 0.94165 0.0
C460 C 0.46724 0.93462 0.94833 0.0
C461 C 0.49364 0.95263 0.95614 0.0
C462 C 0.51308 0.94367 0.95797 0.0
C463 C 0.50599 0.91712 0.95172 0.0
C464 C 0.44578 0.9432 0.94663 0.0
C465 C 0.54169 0.96244 0.9658 0.0
C466 C 0.57727 0.11808 0.85137 0.0
C467 C 0.57193 0.09743 0.86683 0.0
C468 C 0.54397 0.07771 0.89598 0.0
C469 C 0.56085 0.06832 0.90404 0.0
C470 C 0.55327 0.05269 0.92119 0.0
C471 C 0.52796 0.04565 0.93024 0.0
C472 C 0.51078 0.05482 0.92209 0.0
C473 C 0.51926 0.07113 0.90521 0.0
C474 C 0.57228 0.0435 0.92953 0.0
C475 C 0.48332 0.04709 0.93105 0.0
C476 C 0.56999 0.15692 0.03188 0.0
C477 C 0.58691 0.14551 0.02867 0.0
C478 C 0.57558 0.11692 0.02729 0.0
C479 C 0.54675 0.09953 0.02886 0.0
C480 C 0.52986 0.11097 0.03302 0.0
C481 C 0.54183 0.1396 0.03475 0.0
C482 C 0.59434 0.10535 0.02364 0.0
C483 C 0.4991 0.09305 0.03498 0.0
C484 C 0.47402 0.90587 0.08388 0.0
C485 C 0.4652 0.92088 0.09834 0.0
C486 C 0.49251 0.96739 0.08594 0.0
C487 C 0.52011 0.98358 0.08073 0.0
C488 C 0.5279 0.00224 0.06519 0.0
C489 C 0.50754 0.00523 0.05507 0.0
C490 C 0.47976 0.99009 0.06111 0.0
C491 C 0.47249 0.97111 0.0764 0.0
C492 C 0.55773 0.01819 0.05924 0.0
C493 C 0.4577 0.99363 0.05121 0.0
C494 C 0.50185 0.98162 0.96061 0.0
C495 C 0.50887 0.99965 0.94487 0.0
C496 C 0.51914 0.02774 0.94774 0.0
C497 C 0.52246 0.03834 0.96691 0.0
C498 C 0.53342 0.0666 0.97037 0.0
C499 C 0.53691 0.07685 0.98929 0.0
C500 C 0.52993 0.05929 0.00551 0.0
C501 C 0.53412 0.06964 0.02482 0.0
C502 C 0.52656 0.05159 0.04061 0.0
C503 C 0.51511 0.02329 0.03768 0.0
C504 C 0.51125 0.01259 0.01848 0.0
C505 C 0.50037 0.98429 0.01498 0.0
C506 C 0.49688 0.97402 0.99605 0.0
C507 C 0.50439 0.99167 0.97988 0.0
C508 C 0.51498 0.0202 0.98304 0.0
C509 C 0.51863 0.03068 0.00236 0.0
C510 C 0.59242 0.22245 0.01124 0.0
C511 C 0.60143 0.20353 0.02065 0.0
O512 O 0.47585 0.87542 0.93565 0.0
O513 O 0.48578 0.94817 0.10006 0.0
O514 O 0.58012 0.18449 0.03215 0.0
O515 O 0.55077 0.093 0.8794 0.0
H516 H 0.44233 0.86265 0.91768 0.0
H517 H 0.4827 0.90194 0.90159 0.0
H518 H 0.50071 0.88282 0.90126 0.0
H519 H 0.46978 0.87141 0.88687 0.0
H520 H 0.44095 0.89491 0.9355 0.0
H521 H 0.52078 0.91013 0.95281 0.0
H522 H 0.45159 0.95849 0.93473 0.0
H523 H 0.42506 0.9255 0.94333 0.0
H524 H 0.44472 0.95315 0.96038 0.0
H525 H 0.55521 0.95336 0.96424 0.0
H526 H 0.55131 0.98247 0.95806 0.0
H527 H 0.54054 0.96659 0.9815 0.0
H528 H 0.57042 0.07786 0.86164 0.0
H529 H 0.57192 0.10614 0.83727 0.0
H530 H 0.55885 0.12106 0.85102 0.0
H531 H 0.61713 0.15012 0.85778 0.0
H532 H 0.58004 0.07316 0.89709 0.0
H533 H 0.50635 0.0784 0.8989 0.0
H534 H 0.57516 0.0478 0.94545 0.0
H535 H 0.56294 0.02095 0.92748 0.0
H536 H 0.59276 0.05381 0.92239 0.0
H537 H 0.47135 0.05384 0.92199 0.0
H538 H 0.47099 0.02445 0.93302 0.0
H539 H 0.48653 0.05671 0.9457 0.0
H540 H 0.60576 0.19302 0.00849 0.0
H541 H 0.60891 0.15892 0.02717 0.0
H542 H 0.52908 0.14869 0.03756 0.0
H543 H 0.59152 0.09758 0.00842 0.0
H544 H 0.61635 0.12105 0.02577 0.0
H545 H 0.58906 0.08775 0.03354 0.0
H546 H 0.48876 0.10524 0.0376 0.0
H547 H 0.49043 0.0806 0.0215 0.0
H548 H 0.49431 0.07853 0.04729 0.0
H549 H 0.44596 0.91965 0.09286 0.0
H550 H 0.45778 0.88392 0.08249 0.0
H551 H 0.47739 0.91542 0.06922 0.0
H552 H 0.49344 0.90702 0.08881 0.0
H553 H 0.53542 0.98077 0.0884 0.0
H554 H 0.45123 0.95937 0.08093 0.0
H555 H 0.55976 0.0145 0.04356 0.0
H556 H 0.56557 0.04055 0.06113 0.0
H557 H 0.57081 0.01248 0.06797 0.0
H558 H 0.43788 0.98314 0.05923 0.0
H559 H 0.46438 0.01582 0.0499 0.0
H560 H 0.45422 0.98493 0.03623 0.0
H561 H 0.50706 0.9918 0.93012 0.0
H562 H 0.53946 0.08115 0.95848 0.0
H563 H 0.54531 0.09879 0.99101 0.0
H564 H 0.52972 0.05968 0.05537 0.0
H565 H 0.49453 0.96974 0.02685 0.0
H566 H 0.48838 0.95208 0.99422 0.0
H567 H 0.58769 0.23364 0.02259 0.0
H568 H 0.60887 0.23763 0.00157 0.0
H569 H 0.57367 0.21008 0.00226 0.0
C570 C 0.60804 0.46166 0.06855 0.0
C571 C 0.61238 0.45348 0.08901 0.0
C572 C 0.59579 0.47832 0.1094 0.0
C573 C 0.56749 0.45925 0.10777 0.0
C574 C 0.54782 0.46566 0.11466 0.0
C575 C 0.55653 0.49186 0.12294 0.0
C576 C 0.58499 0.51104 0.12472 0.0
C577 C 0.60421 0.50375 0.11825 0.0
C578 C 0.51766 0.44455 0.11277 0.0
C579 C 0.59516 0.53948 0.13297 0.0
C580 C 0.46428 0.58246 0.03005 0.0
C581 C 0.47673 0.57987 0.04851 0.0
C582 C 0.47616 0.54481 0.06982 0.0
C583 C 0.49971 0.56336 0.08046 0.0
C584 C 0.5096 0.55422 0.09581 0.0
C585 C 0.49559 0.526 0.10075 0.0
C586 C 0.47202 0.50723 0.09004 0.0
C587 C 0.46263 0.51692 0.07466 0.0
C588 C 0.53498 0.57474 0.10684 0.0
C589 C 0.45668 0.47702 0.09497 0.0
C590 C 0.42881 0.56185 0.20637 0.0
C591 C 0.45644 0.57878 0.20116 0.0
C592 C 0.47378 0.56772 0.19859 0.0
C593 C 0.46298 0.53903 0.20077 0.0
C594 C 0.43539 0.52214 0.20678 0.0
C595 C 0.41877 0.53393 0.20983 0.0
C596 C 0.50346 0.58664 0.19312 0.0
C597 C 0.4232 0.49154 0.20938 0.0
C598 C 0.59412 0.47436 0.25298 0.0
C599 C 0.56744 0.4613 0.26482 0.0
C600 C 0.54567 0.48672 0.25357 0.0
C601 C 0.5563 0.51429 0.24856 0.0
C602 C 0.54447 0.5218 0.23347 0.0
C603 C 0.52096 0.50117 0.22362 0.0
C604 C 0.50923 0.47335 0.22941 0.0
C605 C 0.52187 0.46639 0.24427 0.0
C606 C 0.55742 0.55166 0.22775 0.0
C607 C 0.48356 0.45097 0.21974 0.0
C608 C 0.5359 0.49986 0.12843 0.0
C609 C 0.52424 0.50748 0.11338 0.0
C610 C 0.50554 0.51636 0.11732 0.0
C611 C 0.4981 0.51775 0.1368 0.0
C612 C 0.47935 0.52665 0.14123 0.0
C613 C 0.47306 0.5291 0.16048 0.0
C614 C 0.48535 0.52286 0.17605 0.0
C615 C 0.48011 0.52658 0.19568 0.0
C616 C 0.49187 0.51921 0.21081 0.0
C617 C 0.50917 0.50856 0.20688 0.0
C618 C 0.5154 0.50555 0.18733 0.0
C619 C 0.53342 0.49571 0.18284 0.0
C620 C 0.5398 0.49335 0.16356 0.0
C621 C 0.52867 0.50103 0.14804 0.0
C622 C 0.50995 0.51035 0.15223 0.0
C623 C 0.50346 0.51279 0.17188 0.0
C624 C 0.38077 0.58019 0.18938 0.0
C625 C 0.41058 0.5909 0.19564 0.0
O626 O 0.61561 0.47332 0.10252 0.0
O627 O 0.55874 0.48027 0.26742 0.0
O628 O 0.41135 0.57182 0.20806 0.0
O629 O 0.46598 0.553 0.05487 0.0
H630 H 0.59436 0.43333 0.09296 0.0
H631 H 0.58905 0.46314 0.06815 0.0
H632 H 0.62576 0.4819 0.06437 0.0
H633 H 0.60574 0.44594 0.05765 0.0
H634 H 0.56042 0.43933 0.10115 0.0
H635 H 0.62604 0.5183 0.1195 0.0
H636 H 0.50827 0.4511 0.10123 0.0
H637 H 0.51431 0.42388 0.10885 0.0
H638 H 0.50679 0.44297 0.12666 0.0
H639 H 0.61772 0.55296 0.13119 0.0
H640 H 0.5846 0.54934 0.12571 0.0
H641 H 0.59031 0.538 0.14877 0.0
H642 H 0.47833 0.5942 0.06042 0.0
H643 H 0.49703 0.59784 0.01024 0.0
H644 H 0.44466 0.56229 0.02779 0.0
H645 H 0.45352 0.59412 0.03418 0.0
H646 H 0.51052 0.58502 0.07689 0.0
H647 H 0.44455 0.50275 0.06637 0.0
H648 H 0.52961 0.5756 0.12231 0.0
H649 H 0.55059 0.56809 0.10669 0.0
H650 H 0.54431 0.59575 0.10059 0.0
H651 H 0.43844 0.46512 0.08543 0.0
H652 H 0.47064 0.46846 0.09344 0.0
H653 H 0.44982 0.47425 0.11041 0.0
H654 H 0.42251 0.59309 0.1821 0.0
H655 H 0.46442 0.6006 0.19911 0.0
H656 H 0.39748 0.52118 0.21415 0.0
H657 H 0.50631 0.58396 0.17741 0.0
H658 H 0.50988 0.6086 0.19569 0.0
H659 H 0.51719 0.58153 0.20159 0.0
H660 H 0.4009 0.48104 0.21283 0.0
H661 H 0.42614 0.48232 0.19589 0.0
H662 H 0.43404 0.48761 0.22142 0.0
H663 H 0.55162 0.44302 0.25668 0.0
H664 H 0.60141 0.45943 0.25082 0.0
H665 H 0.59051 0.48054 0.23837 0.0
H666 H 0.61041 0.49291 0.26057 0.0
H667 H 0.5745 0.52981 0.25608 0.0
H668 H 0.51306 0.44514 0.2487 0.0
H669 H 0.56231 0.55399 0.21193 0.0
H670 H 0.54262 0.55898 0.23037 0.0
H671 H 0.57656 0.56497 0.23611 0.0
H672 H 0.47524 0.43098 0.22743 0.0
H673 H 0.46744 0.45693 0.21926 0.0
H674 H 0.48827 0.4482 0.20446 0.0
H675 H 0.53022 0.507 0.09839 0.0
H676 H 0.46947 0.53203 0.12987 0.0
H677 H 0.45856 0.53616 0.16297 0.0
H678 H 0.48767 0.52201 0.22584 0.0
H679 H 0.54296 0.4899 0.19418 0.0
H680 H 0.55381 0.48569 0.16097 0.0
H681 H 0.3677 0.57769 0.20226 0.0
H682 H 0.37947 0.59462 0.17893 0.0
H683 H 0.37259 0.55991 0.18205 0.0
Li684 Li 0.63747 0.4165 0.42869 0.0
Li685 Li 0.62884 0.37369 0.41573 0.0
Li686 Li 0.67356 0.41607 0.40903 0.0
Li687 Li 0.6278 0.4079 0.39409 0.0
C688 C 0.65807 0.39124 0.45311 0.0
N689 N 0.65708 0.37885 0.49218 0.0
C690 C 0.63306 0.37416 0.46233 0.0
C691 C 0.68261 0.40195 0.46369 0.0
C692 C 0.63298 0.36814 0.48211 0.0
C693 C 0.68168 0.39547 0.48346 0.0
C694 C 0.57623 0.36848 0.41703 0.0
C695 C 0.53389 0.33591 0.40115 0.0
N696 N 0.5214 0.32833 0.41886 0.0
C697 C 0.56288 0.36064 0.43505 0.0
C698 C 0.56155 0.35629 0.39991 0.0
C699 C 0.5352 0.3402 0.43568 0.0
C700 C 0.60627 0.43163 0.45231 0.0
N701 N 0.63114 0.43318 0.45082 0.0
C702 C 0.64537 0.45652 0.48148 0.0
C703 C 0.65074 0.4456 0.46485 0.0
C704 C 0.61959 0.45466 0.48365 0.0
C705 C 0.59998 0.4422 0.46872 0.0
H706 H 0.59124 0.42205 0.44077 0.0
H707 H 0.67047 0.44684 0.46319 0.0
C708 C 0.63932 0.33179 0.41814 0.0
N709 N 0.61781 0.33619 0.42052 0.0
C710 C 0.63707 0.30687 0.42351 0.0
C711 C 0.5902 0.29094 0.43346 0.0
C712 C 0.59331 0.31626 0.4277 0.0
C713 C 0.61247 0.28622 0.43169 0.0
H714 H 0.65872 0.3482 0.4128 0.0
H715 H 0.57658 0.32024 0.42971 0.0
C716 C 0.66596 0.46625 0.41536 0.0
N717 N 0.67892 0.51441 0.43478 0.0
C718 C 0.64768 0.47632 0.41505 0.0
C719 C 0.69089 0.48072 0.42542 0.0
C720 C 0.65459 0.50069 0.425 0.0
C721 C 0.69706 0.50503 0.43517 0.0
C722 C 0.64479 0.36784 0.37747 0.0
C723 C 0.66798 0.36911 0.36892 0.0
C724 C 0.6186 0.3465 0.37243 0.0
C725 C 0.66455 0.34898 0.35538 0.0
C726 C 0.61603 0.32673 0.35887 0.0
N727 N 0.63886 0.32838 0.35068 0.0
C728 C 0.71775 0.40818 0.41098 0.0
C729 C 0.72677 0.44662 0.39147 0.0
C730 C 0.74193 0.40942 0.40474 0.0
N731 N 0.71036 0.42613 0.40391 0.0
C732 C 0.7514 0.44881 0.38495 0.0
C733 C 0.75882 0.42944 0.3911 0.0
H734 H 0.70392 0.39176 0.42054 0.0
H735 H 0.72006 0.46031 0.38585 0.0
C736 C 0.59525 0.42425 0.37286 0.0
N737 N 0.61282 0.4143 0.37132 0.0
C738 C 0.58563 0.4309 0.35608 0.0
C739 C 0.61181 0.41617 0.33654 0.0
C740 C 0.62116 0.41014 0.35366 0.0
C741 C 0.59405 0.42696 0.33764 0.0
H742 H 0.58905 0.42739 0.38714 0.0
H743 H 0.63553 0.40268 0.35287 0.0
O744 O 0.65865 0.39778 0.43385 0.0
O745 O 0.6032 0.38879 0.41613 0.0
O746 O 0.65923 0.44202 0.40623 0.0
O747 O 0.64781 0.38762 0.39055 0.0
H748 H 0.61393 0.36575 0.45432 0.0
H749 H 0.70214 0.41527 0.45673 0.0
H750 H 0.61375 0.35499 0.48947 0.0
H751 H 0.70049 0.40368 0.49186 0.0
H752 H 0.52231 0.32622 0.38802 0.0
H753 H 0.57378 0.37017 0.44844 0.0
H754 H 0.57129 0.36266 0.38581 0.0
H755 H 0.52466 0.33381 0.44953 0.0
H756 H 0.66103 0.4658 0.49269 0.0
H757 H 0.58004 0.44075 0.46966 0.0
H758 H 0.65497 0.30444 0.42225 0.0
H759 H 0.57086 0.27551 0.43968 0.0
H760 H 0.62824 0.46525 0.4074 0.0
H761 H 0.70517 0.47306 0.42586 0.0
H762 H 0.64057 0.50865 0.42501 0.0
H763 H 0.71621 0.51638 0.44311 0.0
H764 H 0.68841 0.38558 0.37257 0.0
H765 H 0.60049 0.34509 0.37902 0.0
H766 H 0.68231 0.34976 0.34859 0.0
H767 H 0.59587 0.31007 0.35486 0.0
H768 H 0.7463 0.39367 0.40963 0.0
H769 H 0.76391 0.46479 0.37463 0.0
H770 H 0.57184 0.43906 0.35749 0.0
H771 H 0.61909 0.41324 0.3226 0.0
Li772 Li 0.23703 0.6329 0.594 0.0
Li773 Li 0.27165 0.62529 0.58003 0.0
Li774 Li 0.27115 0.66664 0.57126 0.0
Li775 Li 0.23472 0.62021 0.55904 0.0
C776 C 0.28615 0.65622 0.61572 0.0
N777 N 0.30426 0.65685 0.65332 0.0
C778 C 0.27855 0.63155 0.62536 0.0
C779 C 0.30294 0.68123 0.62519 0.0
C780 C 0.28793 0.63228 0.64436 0.0
C781 C 0.31188 0.68112 0.64422 0.0
C782 C 0.22605 0.57189 0.58469 0.0
C783 C 0.2183 0.52892 0.57109 0.0
N784 N 0.21424 0.51819 0.58938 0.0
C785 C 0.22134 0.56029 0.60332 0.0
C786 C 0.2241 0.55597 0.56841 0.0
C787 C 0.21558 0.53317 0.60539 0.0
C788 C 0.19077 0.60345 0.61754 0.0
N789 N 0.21513 0.6274 0.61649 0.0
C790 C 0.20867 0.64035 0.64842 0.0
C791 C 0.22412 0.64597 0.63136 0.0
C792 C 0.18366 0.61544 0.65014 0.0
C793 C 0.17461 0.59701 0.6343 0.0
H794 H 0.18411 0.58912 0.60543 0.0
H795 H 0.24353 0.66492 0.63015 0.0
C796 C 0.32458 0.639 0.5861 0.0
N797 N 0.29935 0.61599 0.58587 0.0
C798 C 0.34777 0.63765 0.59139 0.0
C799 C 0.31883 0.58871 0.59624 0.0
C800 C 0.29604 0.59098 0.59061 0.0
C801 C 0.34509 0.61235 0.59678 0.0
H802 H 0.32655 0.65866 0.58255 0.0
H803 H 0.27585 0.57294 0.59045 0.0
C804 C 0.22339 0.66978 0.5773 0.0
N805 N 0.20952 0.7079 0.59026 0.0
C806 C 0.19979 0.66922 0.57016 0.0
C807 C 0.23997 0.68974 0.59101 0.0
C808 C 0.19313 0.68868 0.57689 0.0
C809 C 0.23259 0.70882 0.59739 0.0
C810 C 0.29501 0.6383 0.54465 0.0
C811 C 0.31962 0.66179 0.53948 0.0
C812 C 0.29172 0.6123 0.54104 0.0
C813 C 0.3407 0.65886 0.5311 0.0
C814 C 0.31329 0.61022 0.53267 0.0
N815 N 0.33714 0.63335 0.52793 0.0
C816 C 0.32091 0.71427 0.57259 0.0
C817 C 0.28956 0.71768 0.55111 0.0
C818 C 0.34233 0.73932 0.56609 0.0
N819 N 0.29538 0.70371 0.56472 0.0
C820 C 0.31043 0.74315 0.54436 0.0
C821 C 0.33732 0.75367 0.55148 0.0
H822 H 0.32497 0.70246 0.58315 0.0
H823 H 0.26911 0.7085 0.5449 0.0
C824 C 0.18479 0.59804 0.53837 0.0
N825 N 0.21095 0.60264 0.53763 0.0
C826 C 0.16765 0.58779 0.52202 0.0
C827 C 0.20456 0.58662 0.50469 0.0
C828 C 0.221 0.59704 0.52132 0.0
C829 C 0.17761 0.5822 0.50482 0.0
H830 H 0.17749 0.60295 0.55153 0.0
H831 H 0.24202 0.60134 0.52103 0.0
O832 O 0.27727 0.65605 0.59708 0.0
O833 O 0.23148 0.59833 0.58237 0.0
O834 O 0.23008 0.65078 0.57088 0.0
O835 O 0.27432 0.64081 0.55318 0.0
H836 H 0.26569 0.61209 0.61819 0.0
H837 H 0.30889 0.70053 0.61797 0.0
H838 H 0.28224 0.61332 0.65198 0.0
H839 H 0.32487 0.70032 0.65174 0.0
H840 H 0.2169 0.51642 0.55863 0.0
H841 H 0.22202 0.57204 0.61606 0.0
H842 H 0.22687 0.56433 0.55386 0.0
H843 H 0.21208 0.524 0.61973 0.0
H844 H 0.21663 0.65504 0.66032 0.0
H845 H 0.15529 0.57779 0.63484 0.0
H846 H 0.36748 0.65649 0.59199 0.0
H847 H 0.31594 0.56881 0.60032 0.0
H848 H 0.18676 0.6539 0.55953 0.0
H849 H 0.25832 0.69054 0.59671 0.0
H850 H 0.17492 0.68849 0.57149 0.0
H851 H 0.24521 0.72435 0.60802 0.0
H852 H 0.32244 0.68207 0.54184 0.0
H853 H 0.27289 0.59391 0.54496 0.0
H854 H 0.35988 0.67687 0.5271 0.0
H855 H 0.31108 0.59022 0.52999 0.0
H856 H 0.36273 0.74701 0.57214 0.0
H857 H 0.3059 0.75364 0.53296 0.0
H858 H 0.14694 0.58448 0.52276 0.0
H859 H 0.21321 0.58301 0.49166 0.0
Li860 Li 0.67279 0.27072 0.74522 0.0
Li861 Li 0.63047 0.23382 0.7623 0.0
Li862 Li 0.63741 0.23127 0.72592 0.0
Li863 Li 0.62928 0.26541 0.73951 0.0
C864 C 0.67536 0.22138 0.757 0.0
N865 N 0.70517 0.20102 0.77553 0.0
C866 C 0.68183 0.22676 0.77682 0.0
C867 C 0.68404 0.20566 0.7466 0.0
C868 C 0.6969 0.21626 0.78593 0.0
C869 C 0.69913 0.19558 0.75623 0.0
C870 C 0.64141 0.2912 0.77341 0.0
C871 C 0.60915 0.29849 0.79204 0.0
N872 N 0.62537 0.3261 0.78962 0.0
C873 C 0.65783 0.31966 0.77121 0.0
C874 C 0.61687 0.2805 0.78392 0.0
C875 C 0.64932 0.33695 0.77945 0.0
C876 C 0.71612 0.32313 0.74129 0.0
N877 N 0.7103 0.29828 0.74849 0.0
C878 C 0.75399 0.31846 0.76448 0.0
C879 C 0.72895 0.29535 0.75935 0.0
C880 C 0.75968 0.34475 0.75848 0.0
C881 C 0.74071 0.34673 0.74615 0.0
H882 H 0.70079 0.32485 0.73281 0.0
H883 H 0.72401 0.27542 0.76483 0.0
C884 C 0.6095 0.18426 0.78211 0.0
N885 N 0.61849 0.21143 0.78485 0.0
C886 C 0.60442 0.16705 0.79812 0.0
C887 C 0.61664 0.20585 0.81948 0.0
C888 C 0.62199 0.22245 0.80305 0.0
C889 C 0.60835 0.17797 0.81703 0.0
H890 H 0.60743 0.17625 0.76744 0.0
H891 H 0.6302 0.2443 0.80484 0.0
C892 C 0.67569 0.27525 0.70508 0.0
N893 N 0.71343 0.28358 0.67621 0.0
C894 C 0.67705 0.28989 0.68824 0.0
C895 C 0.6936 0.26488 0.70722 0.0
C896 C 0.69625 0.29388 0.67381 0.0
C897 C 0.71252 0.2693 0.69247 0.0
C898 C 0.57923 0.22177 0.73594 0.0
C899 C 0.57386 0.2266 0.71688 0.0
C900 C 0.55893 0.21374 0.75023 0.0
C901 C 0.54823 0.22373 0.71249 0.0
C902 C 0.53355 0.21104 0.74523 0.0
N903 N 0.52879 0.21608 0.72663 0.0
C904 C 0.6235 0.1794 0.71272 0.0
C905 C 0.63155 0.21044 0.6868 0.0
C906 C 0.61761 0.15822 0.69953 0.0
N907 N 0.63044 0.20488 0.7062 0.0
C908 C 0.62606 0.18988 0.67304 0.0
C909 C 0.61892 0.16335 0.67939 0.0
H910 H 0.62258 0.17559 0.72825 0.0
H911 H 0.63654 0.23073 0.68199 0.0
C912 C 0.63125 0.31112 0.72322 0.0
N913 N 0.61449 0.28911 0.73443 0.0
C914 C 0.62628 0.33289 0.72106 0.0
C915 C 0.58624 0.3088 0.74157 0.0
C916 C 0.59187 0.28725 0.74319 0.0
C917 C 0.60406 0.33236 0.73082 0.0
H918 H 0.64938 0.31248 0.71671 0.0
H919 H 0.57916 0.26997 0.75244 0.0
O920 O 0.65997 0.23079 0.74789 0.0
O921 O 0.64918 0.27388 0.76521 0.0
O922 O 0.65677 0.27116 0.7192 0.0
O923 O 0.60413 0.22446 0.74054 0.0
H924 H 0.67554 0.23916 0.78502 0.0
H925 H 0.67918 0.2013 0.73125 0.0
H926 H 0.70207 0.22028 0.80125 0.0
H927 H 0.706 0.18339 0.74836 0.0
H928 H 0.59013 0.29048 0.8001 0.0
H929 H 0.67684 0.32833 0.76312 0.0
H930 H 0.60359 0.25852 0.78543 0.0
H931 H 0.66174 0.35901 0.77774 0.0
H932 H 0.76822 0.31587 0.7737 0.0
H933 H 0.74386 0.36646 0.74135 0.0
H934 H 0.59795 0.14559 0.7957 0.0
H935 H 0.62047 0.21511 0.83385 0.0
H936 H 0.66328 0.29798 0.68627 0.0
H937 H 0.69307 0.2536 0.72009 0.0
H938 H 0.69746 0.30513 0.6607 0.0
H939 H 0.72647 0.26138 0.69396 0.0
H940 H 0.5894 0.23271 0.70567 0.0
H941 H 0.56283 0.20983 0.76502 0.0
H942 H 0.54381 0.22758 0.69783 0.0
H943 H 0.51765 0.20498 0.75614 0.0
H944 H 0.61247 0.13813 0.70502 0.0
H945 H 0.62699 0.19455 0.65764 0.0
H946 H 0.64027 0.35037 0.7123 0.0
H947 H 0.56904 0.30762 0.74953 0.0
Li948 Li 0.4136 0.61861 0.92572 0.0
Li949 Li 0.41858 0.65929 0.90791 0.0
Li950 Li 0.37872 0.61613 0.90458 0.0
Li951 Li 0.41943 0.62207 0.88972 0.0
C952 C 0.36979 0.62749 0.9405 0.0
N953 N 0.32245 0.60562 0.96271 0.0
C954 C 0.3555 0.6418 0.94266 0.0
C955 C 0.36001 0.60208 0.9497 0.0
C956 C 0.33158 0.63036 0.95391 0.0
C957 C 0.33608 0.59139 0.96089 0.0
C958 C 0.46744 0.66167 0.9223 0.0
C959 C 0.51466 0.67871 0.93169 0.0
N960 N 0.51104 0.69134 0.94745 0.0
C961 C 0.46418 0.67484 0.93857 0.0
C962 C 0.49286 0.6636 0.91882 0.0
C963 C 0.48647 0.68973 0.95111 0.0
C964 C 0.43508 0.59034 0.94616 0.0
N965 N 0.42507 0.60778 0.94831 0.0
C966 C 0.43871 0.61544 0.98178 0.0
C967 C 0.42619 0.61994 0.96572 0.0
C968 C 0.45011 0.59831 0.97983 0.0
C969 C 0.44766 0.58514 0.9619 0.0
H970 H 0.43428 0.58138 0.93201 0.0
H971 H 0.41831 0.63396 0.96692 0.0
C972 C 0.40962 0.70284 0.90956 0.0
N973 N 0.4306 0.69742 0.90886 0.0
C974 C 0.41499 0.72984 0.91068 0.0
C975 C 0.46365 0.74543 0.90936 0.0
C976 C 0.45728 0.71798 0.90845 0.0
C977 C 0.44231 0.75166 0.91064 0.0
H978 H 0.38864 0.68605 0.9092 0.0
H979 H 0.4736 0.71314 0.9073 0.0
C980 C 0.37143 0.56578 0.90021 0.0
N981 N 0.32655 0.5163 0.88923 0.0
C982 C 0.36134 0.56202 0.88113 0.0
C983 C 0.35893 0.54435 0.91367 0.0
C984 C 0.33854 0.53686 0.87588 0.0
C985 C 0.3362 0.51948 0.90783 0.0
C986 C 0.41267 0.65921 0.86797 0.0
C987 C 0.39751 0.66147 0.85261 0.0
C988 C 0.44141 0.67487 0.86766 0.0
C989 C 0.41132 0.67936 0.83721 0.0
C990 C 0.45444 0.69254 0.85201 0.0
N991 N 0.43926 0.6944 0.83723 0.0
C992 C 0.335 0.62029 0.89148 0.0
C993 C 0.31969 0.57989 0.91032 0.0
C994 C 0.30844 0.61611 0.89045 0.0
N995 N 0.34023 0.60253 0.90147 0.0
C996 C 0.29268 0.57498 0.90977 0.0
C997 C 0.28695 0.59362 0.90009 0.0
H998 H 0.35171 0.63849 0.885 0.0
H999 H 0.32437 0.56645 0.91866 0.0
C1000 C 0.45606 0.60726 0.87547 0.0
N1001 N 0.43661 0.61327 0.86944 0.0
C1002 C 0.47132 0.60203 0.86187 0.0
C1003 C 0.44594 0.60885 0.83603 0.0
C1004 C 0.4309 0.61363 0.85018 0.0
C1005 C 0.46659 0.60316 0.84186 0.0
H1006 H 0.45997 0.60698 0.89091 0.0
H1007 H 0.415 0.61802 0.84578 0.0
O1008 O 0.39289 0.63795 0.92914 0.0
O1009 O 0.44576 0.64645 0.91004 0.0
O1010 O 0.39358 0.59026 0.90567 0.0
O1011 O 0.39921 0.6417 0.88311 0.0
H1012 H 0.36268 0.66148 0.93573 0.0
H1013 H 0.37044 0.59043 0.94792 0.0
H1014 H 0.32026 0.64117 0.95562 0.0
H1015 H 0.32822 0.57168 0.96798 0.0
H1016 H 0.53446 0.68037 0.92918 0.0
H1017 H 0.44464 0.67353 0.94152 0.0
H1018 H 0.4957 0.65348 0.90631 0.0
H1019 H 0.48423 0.69998 0.96377 0.0
H1020 H 0.43982 0.62565 0.99545 0.0
H1021 H 0.45653 0.5721 0.9597 0.0
H1022 H 0.39784 0.73349 0.91182 0.0
H1023 H 0.48499 0.76156 0.90886 0.0
H1024 H 0.37089 0.57846 0.87056 0.0
H1025 H 0.36663 0.54699 0.92848 0.0
H1026 H 0.33038 0.53368 0.86119 0.0
H1027 H 0.3262 0.50274 0.9181 0.0
H1028 H 0.37527 0.64943 0.85255 0.0
H1029 H 0.45363 0.67344 0.87928 0.0
H1030 H 0.39981 0.68128 0.82523 0.0
H1031 H 0.47665 0.70475 0.85159 0.0
H1032 H 0.30492 0.63077 0.88256 0.0
H1033 H 0.27678 0.55754 0.91759 0.0
H1034 H 0.48723 0.59799 0.86696 0.0
H1035 H 0.44155 0.60963 0.82072 0.0
Li1036 Li 0.77504 0.41334 0.08273 0.0
Li1037 Li 0.80947 0.40587 0.09705 0.0
Li1038 Li 0.80886 0.4119 0.06143 0.0
Li1039 Li 0.77185 0.36965 0.07766 0.0
C1040 C 0.8218 0.46043 0.09523 0.0
N1041 N 0.83479 0.50289 0.12127 0.0
C1042 C 0.80878 0.45506 0.11338 0.0
C1043 C 0.84139 0.48739 0.09032 0.0
C1044 C 0.81565 0.4768 0.12634 0.0
C1045 C 0.84767 0.50858 0.10368 0.0
C1046 C 0.76344 0.36832 0.11824 0.0
C1047 C 0.76473 0.33048 0.13378 0.0
N1048 N 0.75184 0.33343 0.14963 0.0
C1049 C 0.75009 0.3709 0.13463 0.0
C1050 C 0.77075 0.34791 0.11776 0.0
C1051 C 0.74446 0.35309 0.15037 0.0
C1052 C 0.72634 0.40831 0.09462 0.0
N1053 N 0.75041 0.42688 0.0862 0.0
C1054 C 0.73316 0.45749 0.08041 0.0
C1055 C 0.75448 0.45139 0.07946 0.0
C1056 C 0.70765 0.43815 0.08845 0.0
C1057 C 0.70472 0.41362 0.09605 0.0
H1058 H 0.72363 0.38891 0.09973 0.0
H1059 H 0.77381 0.46569 0.07268 0.0
C1060 C 0.86183 0.42503 0.11059 0.0
N1061 N 0.83564 0.41397 0.11722 0.0
C1062 C 0.88347 0.4321 0.12359 0.0
C1063 C 0.85081 0.41625 0.15014 0.0
C1064 C 0.82976 0.40971 0.13658 0.0
C1065 C 0.87808 0.42764 0.14365 0.0
H1066 H 0.86582 0.42822 0.09509 0.0
H1067 H 0.80886 0.40137 0.14157 0.0
C1068 C 0.75555 0.4027 0.04617 0.0
N1069 N 0.7286 0.42217 0.02313 0.0
C1070 C 0.72758 0.38594 0.04202 0.0
C1071 C 0.7698 0.42939 0.03868 0.0
C1072 C 0.71433 0.39616 0.03031 0.0
C1073 C 0.75582 0.43885 0.02705 0.0
C1074 C 0.82168 0.36611 0.0718 0.0
C1075 C 0.82285 0.35906 0.0524 0.0
C1076 C 0.83113 0.35589 0.08667 0.0
C1077 C 0.83316 0.34154 0.04821 0.0
C1078 C 0.84124 0.3384 0.08189 0.0
N1079 N 0.84203 0.33163 0.06292 0.0
C1080 C 0.85914 0.43713 0.04175 0.0
C1081 C 0.82009 0.41649 0.02093 0.0
C1082 C 0.87666 0.44299 0.02581 0.0
N1083 N 0.83145 0.42382 0.03903 0.0
C1084 C 0.83687 0.4223 0.00457 0.0
C1085 C 0.86546 0.4352 0.00701 0.0
H1086 H 0.8675 0.4423 0.05638 0.0
H1087 H 0.79798 0.40513 0.01925 0.0
C1088 C 0.71913 0.32743 0.07773 0.0
N1089 N 0.7448 0.33235 0.07348 0.0
C1090 C 0.69613 0.3029 0.07198 0.0
C1091 C 0.72642 0.28811 0.0585 0.0
C1092 C 0.74895 0.31312 0.06448 0.0
C1093 C 0.69953 0.28311 0.06171 0.0
H1094 H 0.71653 0.34336 0.08458 0.0
H1095 H 0.76955 0.31759 0.06111 0.0
O1096 O 0.81548 0.43958 0.08221 0.0
O1097 O 0.76921 0.38581 0.10285 0.0
O1098 O 0.76894 0.3931 0.05755 0.0
O1099 O 0.81199 0.38349 0.07621 0.0
H1100 H 0.79354 0.43439 0.11747 0.0
H1101 H 0.85161 0.49187 0.07631 0.0
H1102 H 0.80576 0.47293 0.14044 0.0
H1103 H 0.86279 0.52955 0.10007 0.0
H1104 H 0.77029 0.31461 0.13361 0.0
H1105 H 0.74432 0.38663 0.13521 0.0
H1106 H 0.78084 0.34547 0.10515 0.0
H1107 H 0.73424 0.35492 0.16318 0.0
H1108 H 0.73628 0.47658 0.07426 0.0
H1109 H 0.6857 0.39838 0.10275 0.0
H1110 H 0.90415 0.44052 0.11797 0.0
H1111 H 0.84589 0.41275 0.16552 0.0
H1112 H 0.71626 0.36524 0.04773 0.0
H1113 H 0.7914 0.44272 0.04196 0.0
H1114 H 0.69271 0.3834 0.02692 0.0
H1115 H 0.76658 0.45947 0.02118 0.0
H1116 H 0.81566 0.36682 0.04071 0.0
H1117 H 0.8307 0.36144 0.10176 0.0
H1118 H 0.83408 0.33579 0.03327 0.0
H1119 H 0.84852 0.33024 0.09326 0.0
H1120 H 0.89866 0.45307 0.02823 0.0
H1121 H 0.82742 0.4154 0.99035 0.0
H1122 H 0.67594 0.30033 0.07449 0.0
H1123 H 0.73001 0.27333 0.05081 0.0
Li1124 Li 0.42748 0.80781 0.26341 0.0
Li1125 Li 0.38551 0.77562 0.24987 0.0
Li1126 Li 0.42595 0.76984 0.24526 0.0
Li1127 Li 0.42131 0.80875 0.22833 0.0
C1128 C 0.40844 0.76632 0.28893 0.0
N1129 N 0.4125 0.76308 0.3289 0.0
C1130 C 0.39286 0.77297 0.30132 0.0
C1131 C 0.42582 0.75767 0.29683 0.0
C1132 C 0.39529 0.77132 0.3215 0.0
C1133 C 0.42764 0.75624 0.31709 0.0
C1134 C 0.37968 0.81989 0.24852 0.0
C1135 C 0.34891 0.83007 0.2305 0.0
N1136 N 0.3347 0.82744 0.24719 0.0
C1137 C 0.36491 0.8175 0.26551 0.0
C1138 C 0.37174 0.82637 0.23088 0.0
C1139 C 0.34216 0.82129 0.26452 0.0
C1140 C 0.4366 0.85082 0.28907 0.0
N1141 N 0.44378 0.83138 0.28563 0.0
C1142 C 0.47103 0.84423 0.31471 0.0
C1143 C 0.46096 0.82809 0.29791 0.0
C1144 C 0.46347 0.86408 0.31888 0.0
C1145 C 0.44622 0.86745 0.30569 0.0
H1146 H 0.42316 0.85328 0.27901 0.0
H1147 H 0.4665 0.81261 0.29488 0.0
C1148 C 0.3405 0.72975 0.26509 0.0
N1149 N 0.3467 0.75174 0.25353 0.0
C1150 C 0.31353 0.70826 0.26668 0.0
C1151 C 0.29928 0.73247 0.24476 0.0
C1152 C 0.32667 0.75366 0.24363 0.0
C1153 C 0.29259 0.70909 0.25605 0.0
H1154 H 0.35667 0.72818 0.27243 0.0
H1155 H 0.33201 0.77079 0.23402 0.0
C1156 C 0.47832 0.82631 0.25084 0.0
N1157 N 0.52814 0.86006 0.2689 0.0
C1158 C 0.48892 0.85474 0.2514 0.0
C1159 C 0.49313 0.81504 0.25928 0.0
C1160 C 0.51411 0.87145 0.26067 0.0
C1161 C 0.51828 0.83246 0.26838 0.0
C1162 C 0.3754 0.74992 0.21588 0.0
C1163 C 0.36403 0.72173 0.21912 0.0
C1164 C 0.36171 0.75922 0.20376 0.0
C1165 C 0.33904 0.70329 0.21026 0.0
C1166 C 0.33681 0.74012 0.1951 0.0
N1167 N 0.32606 0.71279 0.19853 0.0
C1168 C 0.41835 0.71774 0.25032 0.0
C1169 C 0.45442 0.74473 0.22833 0.0
C1170 C 0.41918 0.69417 0.24505 0.0
N1171 N 0.43523 0.74212 0.24152 0.0
C1172 C 0.4562 0.72167 0.22276 0.0
C1173 C 0.43769 0.6957 0.23063 0.0
H1174 H 0.40288 0.71621 0.26044 0.0
H1175 H 0.46733 0.76437 0.22139 0.0
C1176 C 0.4414 0.85789 0.20665 0.0
N1177 N 0.43036 0.83017 0.2053 0.0
C1178 C 0.44772 0.87381 0.18975 0.0
C1179 C 0.43108 0.83229 0.17049 0.0
C1180 C 0.42552 0.81727 0.18773 0.0
C1181 C 0.44225 0.86091 0.1714 0.0
H1182 H 0.44503 0.86755 0.22085 0.0
H1183 H 0.41718 0.79526 0.18711 0.0
O1184 O 0.40637 0.76785 0.26914 0.0
O1185 O 0.40219 0.81657 0.24926 0.0
O1186 O 0.45351 0.80954 0.24213 0.0
O1187 O 0.39948 0.76834 0.22486 0.0
H1188 H 0.3791 0.77939 0.2954 0.0
H1189 H 0.43799 0.75242 0.28741 0.0
H1190 H 0.38348 0.77656 0.33127 0.0
H1191 H 0.44114 0.74977 0.32343 0.0
H1192 H 0.34246 0.83498 0.21694 0.0
H1193 H 0.37095 0.81278 0.27931 0.0
H1194 H 0.38293 0.82837 0.21759 0.0
H1195 H 0.33047 0.8194 0.27754 0.0
H1196 H 0.48404 0.84068 0.32456 0.0
H1197 H 0.44022 0.88279 0.30816 0.0
H1198 H 0.30926 0.6908 0.27575 0.0
H1199 H 0.28379 0.73377 0.23613 0.0
H1200 H 0.47763 0.86373 0.24495 0.0
H1201 H 0.48514 0.79304 0.25898 0.0
H1202 H 0.52248 0.89348 0.26136 0.0
H1203 H 0.52991 0.82403 0.27508 0.0
H1204 H 0.37421 0.71416 0.22856 0.0
H1205 H 0.36995 0.78098 0.20132 0.0
H1206 H 0.32992 0.68143 0.21276 0.0
H1207 H 0.32592 0.74705 0.18578 0.0
H1208 H 0.40412 0.67471 0.2513 0.0
H1209 H 0.4711 0.72398 0.21183 0.0
H1210 H 0.45625 0.89584 0.19099 0.0
H1211 H 0.42694 0.82171 0.15659 0.0
C1212 C 0.23448 0.63518 0.25506 0.0
C1213 C 0.21117 0.63817 0.25653 0.0
H1214 H 0.27827 0.65514 0.25352 0.0
C1215 C 0.21468 0.6648 0.25707 0.0
H1216 H 0.23234 0.61494 0.25408 0.0
C1217 C 0.24108 0.68795 0.25685 0.0
C1218 C 0.26441 0.68485 0.25593 0.0
H1219 H 0.19702 0.6677 0.25774 0.0
H1220 H 0.24325 0.70821 0.25767 0.0
C1221 C 0.26076 0.65822 0.25481 0.0
C1222 C 0.62792 0.22861 0.43979 0.0
C1223 C 0.6181 0.22033 0.45886 0.0
H1224 H 0.63294 0.25528 0.41595 0.0
C1225 C 0.60388 0.23188 0.46807 0.0
H1226 H 0.63922 0.22027 0.43242 0.0
C1227 C 0.6005 0.25211 0.45873 0.0
C1228 C 0.61147 0.26134 0.44003 0.0
H1229 H 0.59643 0.22611 0.48286 0.0
H1230 H 0.59074 0.26165 0.46664 0.0
C1231 C 0.62449 0.24877 0.43044 0.0
C1232 C 0.41902 0.63022 0.60408 0.0
C1233 C 0.41754 0.61739 0.62197 0.0
H1234 H 0.39708 0.63798 0.58177 0.0
C1235 C 0.39167 0.60066 0.63051 0.0
H1236 H 0.43872 0.64342 0.59727 0.0
C1237 C 0.36782 0.59764 0.6217 0.0
C1238 C 0.36946 0.61152 0.60428 0.0
H1239 H 0.39001 0.5908 0.64442 0.0
H1240 H 0.34833 0.58569 0.6291 0.0
C1241 C 0.39522 0.62722 0.59529 0.0
C1242 C 0.80946 0.39597 0.7953 0.0
C1243 C 0.82195 0.4204 0.78444 0.0
H1244 H 0.78007 0.35305 0.79572 0.0
C1245 C 0.81576 0.41931 0.76445 0.0
H1246 H 0.81356 0.39634 0.81078 0.0
C1247 C 0.79688 0.39439 0.75568 0.0
C1248 C 0.78333 0.37013 0.76677 0.0
H1249 H 0.82482 0.43786 0.75575 0.0
H1250 H 0.79222 0.39434 0.74033 0.0
C1251 C 0.79039 0.37113 0.78659 0.0
C1252 C 0.43556 0.8153 0.90511 0.0
C1253 C 0.45769 0.83471 0.9164 0.0
H1254 H 0.41376 0.77426 0.89398 0.0
C1255 C 0.4757 0.8271 0.92495 0.0
H1256 H 0.42184 0.82087 0.89791 0.0
C1257 C 0.47087 0.80024 0.92298 0.0
C1258 C 0.44827 0.78058 0.91208 0.0
H1259 H 0.49337 0.8418 0.93332 0.0
H1260 H 0.48458 0.79481 0.93031 0.0
C1261 C 0.43092 0.78859 0.90294 0.0
C1262 C 0.66403 0.47243 0.09242 0.0
C1263 C 0.63745 0.45002 0.0891 0.0
H1264 H 0.70705 0.48619 0.09524 0.0
C1265 C 0.6344 0.42421 0.08472 0.0
H1266 H 0.6671 0.49274 0.09534 0.0
C1267 C 0.6572 0.42057 0.08431 0.0
C1268 C 0.68372 0.44267 0.08829 0.0
H1269 H 0.61427 0.4068 0.08155 0.0
H1270 H 0.65403 0.4004 0.0807 0.0
C1271 C 0.68693 0.46874 0.09214 0.0
C1272 C 0.38456 0.83751 0.52541 0.0
C1273 C 0.41865 0.83963 0.52805 0.0
H1274 H 0.33619 0.80521 0.53655 0.0
C1275 C 0.4225 0.80876 0.53043 0.0
H1276 H 0.38275 0.85539 0.52216 0.0
C1277 C 0.39283 0.7789 0.54 0.0
C1278 C 0.36055 0.77838 0.54298 0.0
H1279 H 0.44244 0.81017 0.53021 0.0
H1280 H 0.39447 0.76116 0.54405 0.0
C1281 C 0.35604 0.80662 0.53515 0.0
C1282 C 0.62149 0.40686 0.73167 0.0
C1283 C 0.59546 0.40449 0.73026 0.0
H1284 H 0.64456 0.38613 0.73327 0.0
C1285 C 0.57198 0.3781 0.72971 0.0
H1286 H 0.63986 0.42692 0.73268 0.0
C1287 C 0.57464 0.3546 0.72979 0.0
C1288 C 0.6008 0.35705 0.73072 0.0
H1289 H 0.55158 0.37562 0.72912 0.0
H1290 H 0.55625 0.33457 0.72893 0.0
C1291 C 0.62415 0.38347 0.7319 0.0
C1292 C 0.20934 0.56259 0.89895 0.0
C1293 C 0.2068 0.58622 0.90069 0.0
H1294 H 0.2367 0.54642 0.89699 0.0
C1295 C 0.23062 0.6119 0.90322 0.0
H1296 H 0.19125 0.54242 0.89746 0.0
C1297 C 0.25649 0.61414 0.90323 0.0
C1298 C 0.25919 0.59072 0.90076 0.0
H1299 H 0.22921 0.63032 0.90514 0.0
H1300 H 0.27442 0.63429 0.90532 0.0
C1301 C 0.23531 0.56485 0.89887 0.0
C1302 C 0.62579 0.22748 0.0521 0.0
C1303 C 0.62724 0.22037 0.03263 0.0
H1304 H 0.64767 0.2519 0.07689 0.0
C1305 C 0.65304 0.23196 0.02354 0.0
H1306 H 0.60616 0.21913 0.05943 0.0
C1307 C 0.67679 0.25113 0.0334 0.0
C1308 C 0.67525 0.25919 0.0526 0.0
H1309 H 0.65466 0.22712 0.00846 0.0
H1310 H 0.69607 0.2608 0.02554 0.0
C1311 C 0.64957 0.24645 0.06203 0.0
C1312 C 0.42001 0.62117 0.22571 0.0
C1313 C 0.42192 0.61873 0.20543 0.0
H1314 H 0.42489 0.64763 0.24973 0.0
C1315 C 0.43161 0.64235 0.19382 0.0
H1316 H 0.41236 0.60331 0.23506 0.0
C1317 C 0.43813 0.66763 0.20214 0.0
C1318 C 0.43524 0.66997 0.22234 0.0
H1319 H 0.4329 0.64094 0.17812 0.0
H1320 H 0.44394 0.68493 0.19251 0.0
C1321 C 0.42694 0.64657 0.23409 0.0
C1322 C 0.81579 0.4127 0.38313 0.0
C1323 C 0.81997 0.41653 0.36289 0.0
H1324 H 0.79432 0.41514 0.4081 0.0
C1325 C 0.80585 0.42712 0.35239 0.0
H1326 H 0.82615 0.4043 0.39161 0.0
C1327 C 0.78707 0.43271 0.36174 0.0
C1328 C 0.78204 0.42792 0.38186 0.0
H1329 H 0.80843 0.42988 0.33674 0.0
H1330 H 0.77544 0.43933 0.35292 0.0
C1331 C 0.7973 0.41867 0.39254 0.0
C1332 C 0.14621 0.5453 0.45716 0.0
C1333 C 0.13137 0.55804 0.4511 0.0
H1334 H 0.1719 0.54247 0.47905 0.0
C1335 C 0.13106 0.57817 0.46316 0.0
H1336 H 0.14711 0.53 0.44803 0.0
C1337 C 0.14537 0.58542 0.48091 0.0
C1338 C 0.16056 0.57294 0.48681 0.0
H1339 H 0.12026 0.58873 0.45866 0.0
H1340 H 0.14533 0.60149 0.48966 0.0
C1341 C 0.16056 0.55259 0.47484 0.0
C1342 C 0.62635 0.12437 0.63678 0.0
C1343 C 0.60413 0.09767 0.63983 0.0
H1344 H 0.64829 0.16614 0.64684 0.0
C1345 C 0.58632 0.09301 0.65555 0.0
H1346 H 0.64076 0.12843 0.62503 0.0
C1347 C 0.59074 0.11448 0.66809 0.0
C1348 C 0.61314 0.14109 0.66522 0.0
H1349 H 0.56928 0.07257 0.65838 0.0
H1350 H 0.57677 0.1102 0.68019 0.0
C1351 C 0.63066 0.14592 0.64925 0.0
C1352 C 0.5091 0.57686 0.81691 0.0
C1353 C 0.52174 0.59615 0.8019 0.0
H1354 H 0.48138 0.56367 0.84113 0.0
C1355 C 0.51494 0.61692 0.79948 0.0
H1356 H 0.51428 0.56089 0.81925 0.0
C1357 C 0.49608 0.61847 0.81195 0.0
C1358 C 0.48406 0.59962 0.8273 0.0
H1359 H 0.52479 0.63242 0.78829 0.0
H1360 H 0.49182 0.63515 0.81011 0.0
C1361 C 0.49045 0.57856 0.82947 0.0
C1362 C 0.93274 0.43337 0.97412 0.0
C1363 C 0.92681 0.44698 0.95103 0.0
H1364 H 0.91564 0.42726 0.00859 0.0
C1365 C 0.89378 0.44573 0.94523 0.0
H1366 H 0.95106 0.43198 0.97652 0.0
C1367 C 0.87382 0.44406 0.96624 0.0
C1368 C 0.88322 0.43832 0.9903 0.0
H1369 H 0.88967 0.45124 0.93101 0.0
H1370 H 0.85601 0.44646 0.96435 0.0
C1371 C 0.91153 0.43214 0.99415 0.0
C1372 C 0.47937 0.91513 0.13264 0.0
C1373 C 0.4591 0.90672 0.11799 0.0
H1374 H 0.48968 0.90741 0.16121 0.0
C1375 C 0.4333 0.88326 0.12117 0.0
H1376 H 0.49968 0.93271 0.13047 0.0
C1377 C 0.4278 0.86856 0.13857 0.0
C1378 C 0.44795 0.87708 0.15323 0.0
H1379 H 0.41749 0.87608 0.11 0.0
H1380 H 0.40775 0.85049 0.14058 0.0
C1381 C 0.47369 0.90065 0.1502 0.0
C1382 C 0.58114 0.46937 0.3007 0.0
C1383 C 0.57214 0.45178 0.28436 0.0
H1384 H 0.59468 0.47504 0.33048 0.0
C1385 C 0.56979 0.42573 0.28587 0.0
H1386 H 0.58382 0.48983 0.29987 0.0
C1387 C 0.57633 0.41743 0.30329 0.0
C1388 C 0.58532 0.43501 0.3196 0.0
H1389 H 0.56336 0.41198 0.2734 0.0
H1390 H 0.57456 0.39733 0.30398 0.0
C1391 C 0.58735 0.46092 0.31822 0.0
C1392 C 0.46377 0.90053 0.36575 0.0
C1393 C 0.49065 0.91012 0.37267 0.0
H1394 H 0.43408 0.87836 0.3434 0.0
C1395 C 0.50864 0.90498 0.36158 0.0
H1396 H 0.4493 0.90372 0.3742 0.0
C1397 C 0.50002 0.89057 0.34396 0.0
C1398 C 0.47307 0.8807 0.3371 0.0
H1399 H 0.52935 0.9118 0.36669 0.0
H1400 H 0.51446 0.88706 0.33575 0.0
C1401 C 0.45511 0.88606 0.34811 0.0
C1402 C 0.6273 0.50031 0.52684 0.0
C1403 C 0.60167 0.48523 0.53608 0.0
H1404 H 0.65285 0.50279 0.5029 0.0
C1405 C 0.58183 0.46003 0.52789 0.0
H1406 H 0.64313 0.51956 0.53301 0.0
C1407 C 0.58745 0.45031 0.51069 0.0
C1408 C 0.61316 0.46542 0.50148 0.0
H1409 H 0.56215 0.44766 0.53496 0.0
H1410 H 0.57194 0.43063 0.50488 0.0
C1411 C 0.63295 0.49058 0.50971 0.0
C1412 C 0.14036 0.57536 0.69367 0.0
C1413 C 0.13844 0.59586 0.70418 0.0
H1414 H 0.15626 0.56547 0.66849 0.0
C1415 C 0.15113 0.6227 0.69666 0.0
H1416 H 0.13116 0.55461 0.6993 0.0
C1417 C 0.16536 0.62893 0.67899 0.0
C1418 C 0.16748 0.60851 0.66851 0.0
H1419 H 0.15025 0.63898 0.70455 0.0
H1420 H 0.17471 0.64978 0.67356 0.0
C1421 C 0.15465 0.5816 0.676 0.0
C1422 C 0.592 0.14706 0.87826 0.0
C1423 C 0.59794 0.11777 0.87343 0.0
H1424 H 0.58746 0.18188 0.85799 0.0
C1425 C 0.6178 0.11662 0.85211 0.0
H1426 H 0.58279 0.14874 0.89167 0.0
C1427 C 0.6187 0.13712 0.8317 0.0
C1428 C 0.606 0.16092 0.83399 0.0
H1429 H 0.62316 0.10071 0.85044 0.0
H1430 H 0.62718 0.13529 0.81799 0.0
C1431 C 0.59379 0.16662 0.85696 0.0
C1432 C 0.48718 0.56087 0.01796 0.0
C1433 C 0.50005 0.58873 0.03669 0.0
H1434 H 0.45643 0.54753 0.98847 0.0
C1435 C 0.50563 0.62364 0.03156 0.0
H1436 H 0.48657 0.54157 0.02058 0.0
C1437 C 0.48541 0.62516 0.01175 0.0
C1438 C 0.46594 0.5957 0.99601 0.0
H1439 H 0.51544 0.64028 0.04201 0.0
H1440 H 0.48518 0.64405 0.00923 0.0
C1441 C 0.46752 0.56442 0.99855 0.0
C1442 C 0.94818 0.46468 0.16785 0.0
C1443 C 0.94581 0.44557 0.18201 0.0
H1444 H 0.92846 0.4742 0.14485 0.0
C1445 C 0.92061 0.42092 0.18398 0.0
H1446 H 0.96747 0.48365 0.16585 0.0
C1447 C 0.89828 0.4155 0.17198 0.0
C1448 C 0.90088 0.43439 0.15754 0.0
H1449 H 0.91839 0.40555 0.19449 0.0
H1450 H 0.87932 0.39607 0.17349 0.0
C1451 C 0.92594 0.45918 0.15577 0.0
loop_
_geom_bond_atom_site_label_1
_geom_bond_atom_site_label_2
_geom_bond_distance
_geom_bond_site_symmetry_2
_ccdc_geom_bond_type
C0 C1 1.560 . S
C0 H61 0.959 . S
C0 H62 0.959 . S
C0 H63 0.960 . S
C1 C0 1.560 . S
C1 O56 1.426 . S
C1 H60 0.980 . S
C2 C3 1.407 . S
C2 C7 1.418 . S
C2 O56 1.334 . S
C3 C2 1.407 . S
C3 C4 1.360 . S
C3 H64 0.929 . S
C4 C3 1.360 . S
C4 C5 1.401 . S
C4 C8 1.527 . S
C5 C4 1.401 . S
C5 C6 1.405 . S
C5 C38 1.587 . S
C6 C5 1.405 . S
C6 C7 1.332 . S
C6 C9 1.496 . S
C7 C2 1.418 . S
C7 C6 1.332 . S
C7 H65 0.929 . S
C8 C4 1.527 . S
C8 H66 0.959 . S
C8 H67 0.961 . S
C8 H68 0.961 . S
C9 C6 1.496 . S
C9 H69 0.960 . S
C9 H70 0.960 . S
C9 H71 0.961 . S
C10 C11 1.517 . S
C10 H73 0.961 . S
C10 H74 0.960 . S
C10 H75 0.959 . S
C11 C10 1.517 . S
C11 O59 1.468 . S
C11 H72 0.980 . S
C12 C13 1.349 . S
C12 C17 1.367 . S
C12 O59 1.408 . S
C13 C12 1.349 . S
C13 C14 1.407 . S
C13 H76 0.930 . S
C14 C13 1.407 . S
C14 C15 1.449 1_655 S
C14 C18 1.535 1_655 S
C15 C14 1.449 1_455 S
C15 C16 1.384 1_455 S
C15 C40 1.553 . S
C16 C15 1.384 1_655 S
C16 C17 1.364 . S
C16 C19 1.450 1_655 S
C17 C12 1.367 . S
C17 C16 1.364 . S
C17 H77 0.931 . S
C18 C14 1.535 1_455 S
C18 H78 0.959 . S
C18 H79 0.961 . S
C18 H80 0.959 1_455 S
C19 C16 1.450 1_455 S
C19 H81 0.960 . S
C19 H82 0.960 . S
C19 H83 0.960 1_455 S
C20 C21 1.309 . S
C20 C25 1.304 . S
C20 O58 1.435 . S
C21 C20 1.309 . S
C21 C22 1.476 . S
C21 H85 0.930 . S
C22 C21 1.476 . S
C22 C23 1.400 . S
C22 C26 1.567 . S
C23 C22 1.400 . S
C23 C24 1.373 . S
C23 C45 1.432 . S
C24 C23 1.373 . S
C24 C25 1.339 . S
C24 C27 1.530 . S
C25 C20 1.304 . S
C25 C24 1.339 . S
C25 H86 0.930 . S
C26 C22 1.567 . S
C26 H87 0.961 . S
C26 H88 0.960 . S
C26 H89 0.958 . S
C27 C24 1.530 . S
C27 H90 0.961 . S
C27 H91 0.960 . S
C27 H92 0.960 . S
C28 C29 1.530 . S
C28 H94 0.961 . S
C28 H95 0.961 . S
C28 H96 0.959 . S
C29 C28 1.530 . S
C29 O57 1.412 . S
C29 H93 0.980 . S
C30 C31 1.288 . S
C30 C35 1.377 . S
C30 O57 1.393 . S
C31 C30 1.288 . S
C31 C32 1.369 . S
C31 H97 0.932 . S
C32 C31 1.369 . S
C32 C33 1.398 . S
C32 C36 1.527 . S
C33 C32 1.398 . S
C33 C34 1.380 . S
C33 C47 1.497 . S
C34 C33 1.380 . S
C34 C35 1.383 . S
C34 C37 1.603 . S
C35 C30 1.377 . S
C35 C34 1.383 . S
C35 H98 0.929 . S
C36 C32 1.527 . S
C36 H99 0.961 . S
C36 H100 0.959 . S
C36 H101 0.959 . S
C37 C34 1.603 . S
C37 H102 0.960 . S
C37 H103 0.962 . S
C37 H104 0.961 . S
C38 C5 1.587 . S
C38 C39 1.360 . S
C38 C51 1.412 . S
C39 C38 1.360 . S
C39 C40 1.365 . S
C39 H105 0.929 . S
C40 C15 1.553 . S
C40 C39 1.365 . S
C40 C41 1.404 . S
C41 C40 1.404 . S
C41 C42 1.395 1_455 S
C41 C52 1.451 . S
C42 C41 1.395 1_655 S
C42 C43 1.322 . S
C42 H106 0.930 . S
C43 C42 1.322 . S
C43 C44 1.459 . S
C43 H107 0.929 . S
C44 C43 1.459 . S
C44 C45 1.445 . S
C44 C53 1.395 1_655 S
C45 C23 1.432 . S
C45 C44 1.445 . S
C45 C46 1.388 . S
C46 C45 1.388 . S
C46 C47 1.409 1_655 S
C46 H108 0.943 . S
C47 C33 1.497 . S
C47 C46 1.409 1_455 S
C47 C48 1.360 . S
C48 C47 1.360 . S
C48 C49 1.401 . S
C48 C53 1.446 . S
C49 C48 1.401 . S
C49 C50 1.347 . S
C49 H109 0.929 . S
C50 C49 1.347 . S
C50 C51 1.455 . S
C50 H110 0.930 . S
C51 C38 1.412 . S
C51 C50 1.455 . S
C51 C52 1.331 . S
C52 C41 1.451 . S
C52 C51 1.331 . S
C52 C53 1.497 . S
C53 C44 1.395 1_455 S
C53 C48 1.446 . S
C53 C52 1.497 . S
C54 C55 1.582 . S
C54 H111 0.962 . S
C54 H112 0.959 . S
C54 H113 0.958 . S
C55 C54 1.582 . S
C55 O58 1.458 . S
C55 H84 0.980 . S
O56 C1 1.426 . S
O56 C2 1.334 . S
O57 C29 1.412 . S
O57 C30 1.393 . S
O58 C20 1.435 . S
O58 C55 1.458 . S
O59 C11 1.468 . S
O59 C12 1.408 . S
H60 C1 0.980 . S
H61 C0 0.959 . S
H62 C0 0.959 . S
H63 C0 0.960 . S
H64 C3 0.929 . S
H65 C7 0.929 . S
H66 C8 0.959 . S
H67 C8 0.961 . S
H68 C8 0.961 . S
H69 C9 0.960 . S
H70 C9 0.960 . S
H71 C9 0.961 . S
H72 C11 0.980 . S
H73 C10 0.961 . S
H74 C10 0.960 . S
H75 C10 0.959 . S
H76 C13 0.930 . S
H77 C17 0.931 . S
H78 C18 0.959 . S
H79 C18 0.961 . S
H80 C18 0.959 1_655 S
H81 C19 0.960 . S
H82 C19 0.960 . S
H83 C19 0.960 1_655 S
H84 C55 0.980 . S
H85 C21 0.930 . S
H86 C25 0.930 . S
H87 C26 0.961 . S
H88 C26 0.960 . S
H89 C26 0.958 . S
H90 C27 0.961 . S
H91 C27 0.960 . S
H92 C27 0.960 . S
H93 C29 0.980 . S
H94 C28 0.961 . S
H95 C28 0.961 . S
H96 C28 0.959 . S
H97 C31 0.932 . S
H98 C35 0.929 . S
H99 C36 0.961 . S
H100 C36 0.959 . S
H101 C36 0.959 . S
H102 C37 0.960 . S
H103 C37 0.962 . S
H104 C37 0.961 . S
H105 C39 0.929 . S
H106 C42 0.930 . S
H107 C43 0.929 . S
H108 C46 0.943 . S
H109 C49 0.929 . S
H110 C50 0.930 . S
H111 C54 0.962 . S
H112 C54 0.959 . S
H113 C54 0.958 . S
C114 C115 1.560 . S
C114 H175 0.959 . S
C114 H176 0.959 . S
C114 H177 0.960 . S
C115 C114 1.560 . S
C115 O170 1.426 . S
C115 H174 0.980 . S
C116 C117 1.407 . S
C116 C121 1.418 . S
C116 O170 1.334 . S
C117 C116 1.407 . S
C117 C118 1.360 . S
C117 H178 0.929 . S
C118 C117 1.360 . S
C118 C119 1.401 . S
C118 C122 1.527 . S
C119 C118 1.401 . S
C119 C120 1.405 . S
C119 C152 1.587 . S
C120 C119 1.405 . S
C120 C121 1.332 . S
C120 C123 1.496 . S
C121 C116 1.418 . S
C121 C120 1.332 . S
C121 H179 0.929 . S
C122 C118 1.527 . S
C122 H180 0.959 . S
C122 H181 0.961 . S
C122 H182 0.961 . S
C123 C120 1.496 . S
C123 H183 0.960 . S
C123 H184 0.960 . S
C123 H185 0.961 . S
C124 C125 1.517 . S
C124 H187 0.961 . S
C124 H188 0.960 . S
C124 H189 0.959 . S
C125 C124 1.517 . S
C125 O173 1.468 . S
C125 H186 0.980 . S
C126 C127 1.349 . S
C126 C131 1.367 . S
C126 O173 1.408 . S
C127 C126 1.349 . S
C127 C128 1.407 . S
C127 H190 0.930 . S
C128 C127 1.407 . S
C128 C129 1.449 . S
C128 C132 1.535 . S
C129 C128 1.449 . S
C129 C130 1.384 . S
C129 C154 1.553 . S
C130 C129 1.384 . S
C130 C131 1.364 . S
C130 C133 1.450 . S
C131 C126 1.367 . S
C131 C130 1.364 . S
C131 H191 0.931 . S
C132 C128 1.535 . S
C132 H192 0.959 . S
C132 H193 0.961 . S
C132 H194 0.959 . S
C133 C130 1.450 . S
C133 H195 0.960 . S
C133 H196 0.960 . S
C133 H197 0.960 . S
C134 C135 1.309 . S
C134 C139 1.304 . S
C134 O172 1.435 . S
C135 C134 1.309 . S
C135 C136 1.476 . S
C135 H199 0.930 . S
C136 C135 1.476 . S
C136 C137 1.400 . S
C136 C140 1.567 . S
C137 C136 1.400 . S
C137 C138 1.373 . S
C137 C159 1.432 . S
C138 C137 1.373 . S
C138 C139 1.339 . S
C138 C141 1.530 . S
C139 C134 1.304 . S
C139 C138 1.339 . S
C139 H200 0.930 . S
C140 C136 1.567 . S
C140 H201 0.961 . S
C140 H202 0.960 . S
C140 H203 0.958 . S
C141 C138 1.530 . S
C141 H204 0.961 . S
C141 H205 0.960 . S
C141 H206 0.960 . S
C142 C143 1.530 . S
C142 H208 0.961 . S
C142 H209 0.961 . S
C142 H210 0.959 . S
C143 C142 1.530 . S
C143 O171 1.412 . S
C143 H207 0.980 . S
C144 C145 1.288 . S
C144 C149 1.377 . S
C144 O171 1.393 . S
C145 C144 1.288 . S
C145 C146 1.369 . S
C145 H211 0.932 . S
C146 C145 1.369 . S
C146 C147 1.382 . S
C146 C150 1.527 1_565 S
C147 C146 1.382 . S
C147 C148 1.411 . S
C147 C161 1.484 1_565 S
C148 C147 1.411 . S
C148 C149 1.383 . S
C148 C151 1.603 . S
C149 C144 1.377 . S
C149 C148 1.383 . S
C149 H212 0.929 . S
C150 C146 1.527 1_545 S
C150 H213 0.961 . S
C150 H214 0.959 . S
C150 H215 0.959 . S
C151 C148 1.603 . S
C151 H216 0.960 . S
C151 H217 0.962 1_565 S
C151 H218 0.961 . S
C152 C119 1.587 . S
C152 C153 1.360 . S
C152 C165 1.412 . S
C153 C152 1.360 . S
C153 C154 1.365 1_565 S
C153 H219 0.929 . S
C154 C129 1.553 . S
C154 C153 1.365 1_545 S
C154 C155 1.404 . S
C155 C154 1.404 . S
C155 C156 1.395 . S
C155 C166 1.451 . S
C156 C155 1.395 . S
C156 C157 1.322 . S
C156 H220 0.930 . S
C157 C156 1.322 . S
C157 C158 1.459 . S
C157 H221 0.929 . S
C158 C157 1.459 . S
C158 C159 1.445 . S
C158 C167 1.395 . S
C159 C137 1.432 . S
C159 C158 1.445 . S
C159 C160 1.370 . S
C160 C159 1.370 . S
C160 C161 1.438 . S
C160 H222 0.930 . S
C161 C147 1.484 1_545 S
C161 C160 1.438 . S
C161 C162 1.360 . S
C162 C161 1.360 . S
C162 C163 1.401 1_545 S
C162 C167 1.446 . S
C163 C162 1.401 1_565 S
C163 C164 1.347 . S
C163 H223 0.929 . S
C164 C163 1.347 . S
C164 C165 1.455 . S
C164 H224 0.930 . S
C165 C152 1.412 . S
C165 C164 1.455 . S
C165 C166 1.331 1_565 S
C166 C155 1.451 . S
C166 C165 1.331 1_545 S
C166 C167 1.497 . S
C167 C158 1.395 . S
C167 C162 1.446 . S
C167 C166 1.497 . S
C168 C169 1.582 . S
C168 H225 0.962 . S
C168 H226 0.959 . S
C168 H227 0.958 . S
C169 C168 1.582 . S
C169 O172 1.458 . S
C169 H198 0.980 . S
O170 C115 1.426 . S
O170 C116 1.334 . S
O171 C143 1.412 . S
O171 C144 1.393 . S
O172 C134 1.435 . S
O172 C169 1.458 . S
O173 C125 1.468 . S
O173 C126 1.408 . S
H174 C115 0.980 . S
H175 C114 0.959 . S
H176 C114 0.959 . S
H177 C114 0.960 . S
H178 C117 0.929 . S
H179 C121 0.929 . S
H180 C122 0.959 . S
H181 C122 0.961 . S
H182 C122 0.961 . S
H183 C123 0.960 . S
H184 C123 0.960 . S
H185 C123 0.961 . S
H186 C125 0.980 . S
H187 C124 0.961 . S
H188 C124 0.960 . S
H189 C124 0.959 . S
H190 C127 0.930 . S
H191 C131 0.931 . S
H192 C132 0.959 . S
H193 C132 0.961 . S
H194 C132 0.959 . S
H195 C133 0.960 . S
H196 C133 0.960 . S
H197 C133 0.960 . S
H198 C169 0.980 . S
H199 C135 0.930 . S
H200 C139 0.930 . S
H201 C140 0.961 . S
H202 C140 0.960 . S
H203 C140 0.958 . S
H204 C141 0.961 . S
H205 C141 0.960 . S
H206 C141 0.960 . S
H207 C143 0.980 . S
H208 C142 0.961 . S
H209 C142 0.961 . S
H210 C142 0.959 . S
H211 C145 0.932 . S
H212 C149 0.929 . S
H213 C150 0.961 . S
H214 C150 0.959 . S
H215 C150 0.959 . S
H216 C151 0.960 . S
H217 C151 0.962 1_545 S
H218 C151 0.961 . S
H219 C153 0.929 . S
H220 C156 0.930 . S
H221 C157 0.929 . S
H222 C160 0.930 . S
H223 C163 0.929 . S
H224 C164 0.930 . S
H225 C168 0.962 . S
H226 C168 0.959 . S
H227 C168 0.958 . S
C228 C229 1.560 . S
C228 H289 0.959 . S
C228 H290 0.959 . S
C228 H291 0.960 . S
C229 C228 1.560 . S
C229 O284 1.426 . S
C229 H288 0.980 . S
C230 C231 1.407 . S
C230 C235 1.418 . S
C230 O284 1.334 . S
C231 C230 1.407 . S
C231 C232 1.360 . S
C231 H292 0.929 . S
C232 C231 1.360 . S
C232 C233 1.401 . S
C232 C236 1.527 . S
C233 C232 1.401 . S
C233 C234 1.405 . S
C233 C266 1.587 . S
C234 C233 1.405 . S
C234 C235 1.332 . S
C234 C237 1.496 . S
C235 C230 1.418 . S
C235 C234 1.332 . S
C235 H293 0.929 . S
C236 C232 1.527 . S
C236 H294 0.959 . S
C236 H295 0.961 . S
C236 H296 0.961 . S
C237 C234 1.496 . S
C237 H297 0.960 . S
C237 H298 0.960 . S
C237 H299 0.961 . S
C238 C239 1.517 . S
C238 H301 0.961 . S
C238 H302 0.960 . S
C238 H303 0.959 . S
C239 C238 1.517 . S
C239 O287 1.468 . S
C239 H300 0.980 . S
C240 C241 1.349 . S
C240 C245 1.367 . S
C240 O287 1.408 . S
C241 C240 1.349 . S
C241 C242 1.407 . S
C241 H304 0.930 . S
C242 C241 1.407 . S
C242 C243 1.449 . S
C242 C246 1.535 . S
C243 C242 1.449 . S
C243 C244 1.384 . S
C243 C268 1.553 . S
C244 C243 1.384 . S
C244 C245 1.364 . S
C244 C247 1.450 . S
C245 C240 1.367 . S
C245 C244 1.364 . S
C245 H305 0.931 . S
C246 C242 1.535 . S
C246 H306 0.959 . S
C246 H307 0.961 . S
C246 H308 0.959 . S
C247 C244 1.450 . S
C247 H309 0.960 . S
C247 H310 0.960 . S
C247 H311 0.960 . S
C248 C249 1.309 . S
C248 C253 1.304 . S
C248 O286 1.435 . S
C249 C248 1.309 . S
C249 C250 1.476 . S
C249 H313 0.930 . S
C250 C249 1.476 . S
C250 C251 1.400 . S
C250 C254 1.567 . S
C251 C250 1.400 . S
C251 C252 1.373 . S
C251 C273 1.432 . S
C252 C251 1.373 . S
C252 C253 1.339 . S
C252 C255 1.530 . S
C253 C248 1.304 . S
C253 C252 1.339 . S
C253 H314 0.930 . S
C254 C250 1.567 . S
C254 H315 0.961 . S
C254 H316 0.960 . S
C254 H317 0.958 . S
C255 C252 1.530 . S
C255 H318 0.961 . S
C255 H319 0.960 . S
C255 H320 0.960 . S
C256 C257 1.530 . S
C256 H322 0.961 . S
C256 H323 0.961 . S
C256 H324 0.959 . S
C257 C256 1.530 . S
C257 O285 1.412 . S
C257 H321 0.980 . S
C258 C259 1.288 . S
C258 C263 1.377 . S
C258 O285 1.393 . S
C259 C258 1.288 . S
C259 C260 1.369 . S
C259 H325 0.932 . S
C260 C259 1.369 . S
C260 C261 1.398 . S
C260 C264 1.527 . S
C261 C260 1.398 . S
C261 C262 1.380 . S
C261 C275 1.497 . S
C262 C261 1.380 . S
C262 C263 1.383 . S
C262 C265 1.603 . S
C263 C258 1.377 . S
C263 C262 1.383 . S
C263 H326 0.929 . S
C264 C260 1.527 . S
C264 H327 0.961 . S
C264 H328 0.959 . S
C264 H329 0.959 . S
C265 C262 1.603 . S
C265 H330 0.960 . S
C265 H331 0.962 . S
C265 H332 0.961 . S
C266 C233 1.587 . S
C266 C267 1.360 . S
C266 C279 1.412 . S
C267 C266 1.360 . S
C267 C268 1.365 . S
C267 H333 0.929 . S
C268 C243 1.553 . S
C268 C267 1.365 . S
C268 C269 1.404 . S
C269 C268 1.404 . S
C269 C270 1.395 . S
C269 C280 1.451 . S
C270 C269 1.395 . S
C270 C271 1.322 . S
C270 H334 0.930 . S
C271 C270 1.322 . S
C271 C272 1.459 . S
C271 H335 0.929 . S
C272 C271 1.459 . S
C272 C273 1.445 . S
C272 C281 1.395 . S
C273 C251 1.432 . S
C273 C272 1.445 . S
C273 C274 1.370 . S
C274 C273 1.370 . S
C274 C275 1.438 . S
C274 H336 0.930 . S
C275 C261 1.497 . S
C275 C274 1.438 . S
C275 C276 1.360 . S
C276 C275 1.360 . S
C276 C277 1.401 . S
C276 C281 1.446 . S
C277 C276 1.401 . S
C277 C278 1.347 . S
C277 H337 0.929 . S
C278 C277 1.347 . S
C278 C279 1.455 . S
C278 H338 0.930 . S
C279 C266 1.412 . S
C279 C278 1.455 . S
C279 C280 1.331 . S
C280 C269 1.451 . S
C280 C279 1.331 . S
C280 C281 1.497 . S
C281 C272 1.395 . S
C281 C276 1.446 . S
C281 C280 1.497 . S
C282 C283 1.582 . S
C282 H339 0.962 . S
C282 H340 0.959 . S
C282 H341 0.958 . S
C283 C282 1.582 . S
C283 O286 1.458 . S
C283 H312 0.980 . S
O284 C229 1.426 . S
O284 C230 1.334 . S
O285 C257 1.412 . S
O285 C258 1.393 . S
O286 C248 1.435 . S
O286 C283 1.458 . S
O287 C239 1.468 . S
O287 C240 1.408 . S
H288 C229 0.980 . S
H289 C228 0.959 . S
H290 C228 0.959 . S
H291 C228 0.960 . S
H292 C231 0.929 . S
H293 C235 0.929 . S
H294 C236 0.959 . S
H295 C236 0.961 . S
H296 C236 0.961 . S
H297 C237 0.960 . S
H298 C237 0.960 . S
H299 C237 0.961 . S
H300 C239 0.980 . S
H301 C238 0.961 . S
H302 C238 0.960 . S
H303 C238 0.959 . S
H304 C241 0.930 . S
H305 C245 0.931 . S
H306 C246 0.959 . S
H307 C246 0.961 . S
H308 C246 0.959 . S
H309 C247 0.960 . S
H310 C247 0.960 . S
H311 C247 0.960 . S
H312 C283 0.980 . S
H313 C249 0.930 . S
H314 C253 0.930 . S
H315 C254 0.961 . S
H316 C254 0.960 . S
H317 C254 0.958 . S
H318 C255 0.961 . S
H319 C255 0.960 . S
H320 C255 0.960 . S
H321 C257 0.980 . S
H322 C256 0.961 . S
H323 C256 0.961 . S
H324 C256 0.959 . S
H325 C259 0.932 . S
H326 C263 0.929 . S
H327 C264 0.961 . S
H328 C264 0.959 . S
H329 C264 0.959 . S
H330 C265 0.960 . S
H331 C265 0.962 . S
H332 C265 0.961 . S
H333 C267 0.929 . S
H334 C270 0.930 . S
H335 C271 0.929 . S
H336 C274 0.930 . S
H337 C277 0.929 . S
H338 C278 0.930 . S
H339 C282 0.962 . S
H340 C282 0.959 . S
H341 C282 0.958 . S
C342 C343 1.560 . S
C342 H403 0.959 . S
C342 H404 0.959 . S
C342 H405 0.960 . S
C343 C342 1.560 . S
C343 O398 1.426 . S
C343 H402 0.980 . S
C344 C345 1.407 . S
C344 C349 1.418 . S
C344 O398 1.334 . S
C345 C344 1.407 . S
C345 C346 1.360 . S
C345 H406 0.929 . S
C346 C345 1.360 . S
C346 C347 1.401 . S
C346 C350 1.527 . S
C347 C346 1.401 . S
C347 C348 1.405 . S
C347 C380 1.587 . S
C348 C347 1.405 . S
C348 C349 1.332 . S
C348 C351 1.496 . S
C349 C344 1.418 . S
C349 C348 1.332 . S
C349 H407 0.929 . S
C350 C346 1.527 . S
C350 H408 0.959 . S
C350 H409 0.961 . S
C350 H410 0.961 . S
C351 C348 1.496 . S
C351 H411 0.960 . S
C351 H412 0.960 . S
C351 H413 0.961 . S
C352 C353 1.517 . S
C352 H415 0.961 . S
C352 H416 0.960 . S
C352 H417 0.959 . S
C353 C352 1.517 . S
C353 O401 1.468 . S
C353 H414 0.980 . S
C354 C355 1.349 . S
C354 C359 1.367 . S
C354 O401 1.408 . S
C355 C354 1.349 . S
C355 C356 1.441 . S
C355 H418 0.930 . S
C356 C355 1.441 . S
C356 C357 1.458 1_655 S
C356 C360 1.501 1_655 S
C357 C356 1.458 1_455 S
C357 C358 1.384 1_455 S
C357 C382 1.553 . S
C358 C357 1.384 1_655 S
C358 C359 1.364 . S
C358 C361 1.450 1_655 S
C359 C354 1.367 . S
C359 C358 1.364 . S
C359 H419 0.931 . S
C360 C356 1.501 1_455 S
C360 H420 0.959 . S
C360 H421 0.961 . S
C360 H422 0.959 1_455 S
C361 C358 1.450 1_455 S
C361 H423 0.960 . S
C361 H424 0.960 . S
C361 H425 0.960 1_455 S
C362 C363 1.309 . S
C362 C367 1.304 . S
C362 O400 1.435 . S
C363 C362 1.309 . S
C363 C364 1.476 . S
C363 H427 0.930 . S
C364 C363 1.476 . S
C364 C365 1.400 . S
C364 C368 1.567 . S
C365 C364 1.400 . S
C365 C366 1.373 . S
C365 C387 1.432 . S
C366 C365 1.373 . S
C366 C367 1.339 . S
C366 C369 1.530 . S
C367 C362 1.304 . S
C367 C366 1.339 . S
C367 H428 0.930 . S
C368 C364 1.567 . S
C368 H429 0.961 . S
C368 H430 0.960 . S
C368 H431 0.958 . S
C369 C366 1.530 . S
C369 H432 0.961 . S
C369 H433 0.960 . S
C369 H434 0.960 . S
C370 C371 1.530 . S
C370 H436 0.961 . S
C370 H437 0.961 . S
C370 H438 0.959 . S
C371 C370 1.530 . S
C371 O399 1.412 . S
C371 H435 0.980 . S
C372 C373 1.288 . S
C372 C377 1.377 . S
C372 O399 1.393 . S
C373 C372 1.288 . S
C373 C374 1.369 . S
C373 H439 0.932 . S
C374 C373 1.369 . S
C374 C375 1.398 . S
C374 C378 1.527 . S
C375 C374 1.398 . S
C375 C376 1.380 . S
C375 C389 1.497 . S
C376 C375 1.380 . S
C376 C377 1.383 . S
C376 C379 1.603 . S
C377 C372 1.377 . S
C377 C376 1.383 . S
C377 H440 0.929 . S
C378 C374 1.527 . S
C378 H441 0.961 . S
C378 H442 0.959 . S
C378 H443 0.959 . S
C379 C376 1.603 . S
C379 H444 0.960 . S
C379 H445 0.962 . S
C379 H446 0.961 . S
C380 C347 1.587 . S
C380 C381 1.360 . S
C380 C393 1.412 . S
C381 C380 1.360 . S
C381 C382 1.365 . S
C381 H447 0.929 . S
C382 C357 1.553 . S
C382 C381 1.365 . S
C382 C383 1.404 . S
C383 C382 1.404 . S
C383 C384 1.395 1_455 S
C383 C394 1.451 . S
C384 C383 1.395 1_655 S
C384 C385 1.322 . S
C384 H448 0.930 . S
C385 C384 1.322 . S
C385 C386 1.459 . S
C385 H449 0.929 . S
C386 C385 1.459 . S
C386 C387 1.445 . S
C386 C395 1.395 1_655 S
C387 C365 1.432 . S
C387 C386 1.445 . S
C387 C388 1.401 . S
C388 C387 1.401 . S
C388 C389 1.395 1_655 S
C388 H450 0.945 . S
C389 C375 1.497 . S
C389 C388 1.395 1_455 S
C389 C390 1.360 . S
C390 C389 1.360 . S
C390 C391 1.401 . S
C390 C395 1.446 . S
C391 C390 1.401 . S
C391 C392 1.347 . S
C391 H451 0.929 . S
C392 C391 1.347 . S
C392 C393 1.455 . S
C392 H452 0.930 . S
C393 C380 1.412 . S
C393 C392 1.455 . S
C393 C394 1.331 . S
C394 C383 1.451 . S
C394 C393 1.331 . S
C394 C395 1.497 . S
C395 C386 1.395 1_455 S
C395 C390 1.446 . S
C395 C394 1.497 . S
C396 C397 1.582 . S
C396 H453 0.962 . S
C396 H454 0.959 . S
C396 H455 0.958 . S
C397 C396 1.582 . S
C397 O400 1.458 . S
C397 H426 0.980 . S
O398 C343 1.426 . S
O398 C344 1.334 . S
O399 C371 1.412 . S
O399 C372 1.393 . S
O400 C362 1.435 . S
O400 C397 1.458 . S
O401 C353 1.468 . S
O401 C354 1.408 . S
H402 C343 0.980 . S
H403 C342 0.959 . S
H404 C342 0.959 . S
H405 C342 0.960 . S
H406 C345 0.929 . S
H407 C349 0.929 . S
H408 C350 0.959 . S
H409 C350 0.961 . S
H410 C350 0.961 . S
H411 C351 0.960 . S
H412 C351 0.960 . S
H413 C351 0.961 . S
H414 C353 0.980 . S
H415 C352 0.961 . S
H416 C352 0.960 . S
H417 C352 0.959 . S
H418 C355 0.930 . S
H419 C359 0.931 . S
H420 C360 0.959 . S
H421 C360 0.961 . S
H422 C360 0.959 1_655 S
H423 C361 0.960 . S
H424 C361 0.960 . S
H425 C361 0.960 1_655 S
H426 C397 0.980 . S
H427 C363 0.930 . S
H428 C367 0.930 . S
H429 C368 0.961 . S
H430 C368 0.960 . S
H431 C368 0.958 . S
H432 C369 0.961 . S
H433 C369 0.960 . S
H434 C369 0.960 . S
H435 C371 0.980 . S
H436 C370 0.961 . S
H437 C370 0.961 . S
H438 C370 0.959 . S
H439 C373 0.932 . S
H440 C377 0.929 . S
H441 C378 0.961 . S
H442 C378 0.959 . S
H443 C378 0.959 . S
H444 C379 0.960 . S
H445 C379 0.962 . S
H446 C379 0.961 . S
H447 C381 0.929 . S
H448 C384 0.930 . S
H449 C385 0.929 . S
H450 C388 0.945 . S
H451 C391 0.929 . S
H452 C392 0.930 . S
H453 C396 0.962 . S
H454 C396 0.959 . S
H455 C396 0.958 . S
C456 C457 1.560 . S
C456 H517 0.959 . S
C456 H518 0.959 . S
C456 H519 0.960 . S
C457 C456 1.560 . S
C457 O512 1.426 . S
C457 H516 0.980 . S
C458 C459 1.407 . S
C458 C463 1.418 . S
C458 O512 1.334 . S
C459 C458 1.407 . S
C459 C460 1.360 . S
C459 H520 0.929 . S
C460 C459 1.360 . S
C460 C461 1.401 . S
C460 C464 1.527 . S
C461 C460 1.401 . S
C461 C462 1.405 . S
C461 C494 1.587 . S
C462 C461 1.405 . S
C462 C463 1.332 . S
C462 C465 1.496 . S
C463 C458 1.418 . S
C463 C462 1.332 . S
C463 H521 0.929 . S
C464 C460 1.527 . S
C464 H522 0.959 . S
C464 H523 0.961 . S
C464 H524 0.961 . S
C465 C462 1.496 . S
C465 H525 0.960 . S
C465 H526 0.960 . S
C465 H527 0.961 . S
C466 C467 1.517 . S
C466 H529 0.961 . S
C466 H530 0.960 . S
C466 H531 0.959 . S
C467 C466 1.517 . S
C467 O515 1.468 . S
C467 H528 0.980 . S
C468 C469 1.349 . S
C468 C473 1.367 . S
C468 O515 1.408 . S
C469 C468 1.349 . S
C469 C470 1.407 . S
C469 H532 0.930 . S
C470 C469 1.407 . S
C470 C471 1.449 . S
C470 C474 1.535 . S
C471 C470 1.449 . S
C471 C472 1.384 . S
C471 C496 1.553 . S
C472 C471 1.384 . S
C472 C473 1.364 . S
C472 C475 1.450 . S
C473 C468 1.367 . S
C473 C472 1.364 . S
C473 H533 0.931 . S
C474 C470 1.535 . S
C474 H534 0.959 . S
C474 H535 0.961 . S
C474 H536 0.959 . S
C475 C472 1.450 . S
C475 H537 0.960 . S
C475 H538 0.960 . S
C475 H539 0.960 . S
C476 C477 1.309 . S
C476 C481 1.304 . S
C476 O514 1.435 . S
C477 C476 1.309 . S
C477 C478 1.476 . S
C477 H541 0.930 . S
C478 C477 1.476 . S
C478 C479 1.400 . S
C478 C482 1.567 . S
C479 C478 1.400 . S
C479 C480 1.373 . S
C479 C501 1.432 . S
C480 C479 1.373 . S
C480 C481 1.339 . S
C480 C483 1.530 . S
C481 C476 1.304 . S
C481 C480 1.339 . S
C481 H542 0.930 . S
C482 C478 1.567 . S
C482 H543 0.961 . S
C482 H544 0.960 . S
C482 H545 0.958 . S
C483 C480 1.530 . S
C483 H546 0.961 . S
C483 H547 0.960 . S
C483 H548 0.960 . S
C484 C485 1.530 . S
C484 H550 0.961 . S
C484 H551 0.961 . S
C484 H552 0.959 . S
C485 C484 1.530 . S
C485 O513 1.412 . S
C485 H549 0.980 . S
C486 C487 1.288 . S
C486 C491 1.377 . S
C486 O513 1.393 . S
C487 C486 1.288 . S
C487 C488 1.369 . S
C487 H553 0.932 . S
C488 C487 1.369 . S
C488 C489 1.413 . S
C488 C492 1.527 1_565 S
C489 C488 1.413 . S
C489 C490 1.382 . S
C489 C503 1.482 1_565 S
C490 C489 1.382 . S
C490 C491 1.383 . S
C490 C493 1.603 . S
C491 C486 1.377 . S
C491 C490 1.383 . S
C491 H554 0.929 . S
C492 C488 1.527 1_545 S
C492 H555 0.961 . S
C492 H556 0.959 . S
C492 H557 0.959 . S
C493 C490 1.603 . S
C493 H558 0.960 . S
C493 H559 0.962 1_565 S
C493 H560 0.961 . S
C494 C461 1.587 . S
C494 C495 1.360 . S
C494 C507 1.412 . S
C495 C494 1.360 . S
C495 C496 1.365 1_565 S
C495 H561 0.929 . S
C496 C471 1.553 . S
C496 C495 1.365 1_545 S
C496 C497 1.404 . S
C497 C496 1.404 . S
C497 C498 1.395 . S
C497 C508 1.451 . S
C498 C497 1.395 . S
C498 C499 1.322 . S
C498 H562 0.930 . S
C499 C498 1.322 . S
C499 C500 1.459 1_556 S
C499 H563 0.929 . S
C500 C499 1.459 1_554 S
C500 C501 1.445 . S
C500 C509 1.395 . S
C501 C479 1.432 . S
C501 C500 1.445 . S
C501 C502 1.370 . S
C502 C501 1.370 . S
C502 C503 1.438 . S
C502 H564 0.930 . S
C503 C489 1.482 1_545 S
C503 C502 1.438 . S
C503 C504 1.360 . S
C504 C503 1.360 . S
C504 C505 1.401 1_545 S
C504 C509 1.443 . S
C505 C504 1.401 1_565 S
C505 C506 1.347 1_554 S
C505 H565 0.929 . S
C506 C505 1.347 1_556 S
C506 C507 1.455 . S
C506 H566 0.930 . S
C507 C494 1.412 . S
C507 C506 1.455 . S
C507 C508 1.331 1_565 S
C508 C497 1.451 . S
C508 C507 1.331 1_545 S
C508 C509 1.500 1_556 S
C509 C500 1.395 . S
C509 C504 1.443 . S
C509 C508 1.500 1_554 S
C510 C511 1.582 . S
C510 H567 0.962 . S
C510 H568 0.959 . S
C510 H569 0.958 . S
C511 C510 1.582 . S
C511 O514 1.458 . S
C511 H540 0.980 . S
O512 C457 1.426 . S
O512 C458 1.334 . S
O513 C485 1.412 . S
O513 C486 1.393 . S
O514 C476 1.435 . S
O514 C511 1.458 . S
O515 C467 1.468 . S
O515 C468 1.408 . S
H516 C457 0.980 . S
H517 C456 0.959 . S
H518 C456 0.959 . S
H519 C456 0.960 . S
H520 C459 0.929 . S
H521 C463 0.929 . S
H522 C464 0.959 . S
H523 C464 0.961 . S
H524 C464 0.961 . S
H525 C465 0.960 . S
H526 C465 0.960 . S
H527 C465 0.961 . S
H528 C467 0.980 . S
H529 C466 0.961 . S
H530 C466 0.960 . S
H531 C466 0.959 . S
H532 C469 0.930 . S
H533 C473 0.931 . S
H534 C474 0.959 . S
H535 C474 0.961 . S
H536 C474 0.959 . S
H537 C475 0.960 . S
H538 C475 0.960 . S
H539 C475 0.960 . S
H540 C511 0.980 . S
H541 C477 0.930 . S
H542 C481 0.930 . S
H543 C482 0.961 . S
H544 C482 0.960 . S
H545 C482 0.958 . S
H546 C483 0.961 . S
H547 C483 0.960 . S
H548 C483 0.960 . S
H549 C485 0.980 . S
H550 C484 0.961 . S
H551 C484 0.961 . S
H552 C484 0.959 . S
H553 C487 0.932 . S
H554 C491 0.929 . S
H555 C492 0.961 . S
H556 C492 0.959 . S
H557 C492 0.959 . S
H558 C493 0.960 . S
H559 C493 0.962 1_545 S
H560 C493 0.961 . S
H561 C495 0.929 . S
H562 C498 0.930 . S
H563 C499 0.929 . S
H564 C502 0.930 . S
H565 C505 0.929 . S
H566 C506 0.930 . S
H567 C510 0.962 . S
H568 C510 0.959 . S
H569 C510 0.958 . S
C570 C571 1.560 . S
C570 H631 0.959 . S
C570 H632 0.959 . S
C570 H633 0.960 . S
C571 C570 1.560 . S
C571 O626 1.426 . S
C571 H630 0.980 . S
C572 C573 1.407 . S
C572 C577 1.418 . S
C572 O626 1.334 . S
C573 C572 1.407 . S
C573 C574 1.360 . S
C573 H634 0.929 . S
C574 C573 1.360 . S
C574 C575 1.401 . S
C574 C578 1.527 . S
C575 C574 1.401 . S
C575 C576 1.405 . S
C575 C608 1.587 . S
C576 C575 1.405 . S
C576 C577 1.332 . S
C576 C579 1.496 . S
C577 C572 1.418 . S
C577 C576 1.332 . S
C577 H635 0.929 . S
C578 C574 1.527 . S
C578 H636 0.959 . S
C578 H637 0.961 . S
C578 H638 0.961 . S
C579 C576 1.496 . S
C579 H639 0.960 . S
C579 H640 0.960 . S
C579 H641 0.961 . S
C580 C581 1.517 . S
C580 H643 0.961 . S
C580 H644 0.960 . S
C580 H645 0.959 . S
C581 C580 1.517 . S
C581 O629 1.468 . S
C581 H642 0.980 . S
C582 C583 1.349 . S
C582 C587 1.367 . S
C582 O629 1.408 . S
C583 C582 1.349 . S
C583 C584 1.407 . S
C583 H646 0.930 . S
C584 C583 1.407 . S
C584 C585 1.449 . S
C584 C588 1.535 . S
C585 C584 1.449 . S
C585 C586 1.384 . S
C585 C610 1.553 . S
C586 C585 1.384 . S
C586 C587 1.364 . S
C586 C589 1.450 . S
C587 C582 1.367 . S
C587 C586 1.364 . S
C587 H647 0.931 . S
C588 C584 1.535 . S
C588 H648 0.959 . S
C588 H649 0.961 . S
C588 H650 0.959 . S
C589 C586 1.450 . S
C589 H651 0.960 . S
C589 H652 0.960 . S
C589 H653 0.960 . S
C590 C591 1.309 . S
C590 C595 1.304 . S
C590 O628 1.435 . S
C591 C590 1.309 . S
C591 C592 1.476 . S
C591 H655 0.930 . S
C592 C591 1.476 . S
C592 C593 1.400 . S
C592 C596 1.567 . S
C593 C592 1.400 . S
C593 C594 1.373 . S
C593 C615 1.432 . S
C594 C593 1.373 . S
C594 C595 1.339 . S
C594 C597 1.530 . S
C595 C590 1.304 . S
C595 C594 1.339 . S
C595 H656 0.930 . S
C596 C592 1.567 . S
C596 H657 0.961 . S
C596 H658 0.960 . S
C596 H659 0.958 . S
C597 C594 1.530 . S
C597 H660 0.961 . S
C597 H661 0.960 . S
C597 H662 0.960 . S
C598 C599 1.530 . S
C598 H664 0.961 . S
C598 H665 0.961 . S
C598 H666 0.959 . S
C599 C598 1.530 . S
C599 O627 1.412 . S
C599 H663 0.980 . S
C600 C601 1.288 . S
C600 C605 1.377 . S
C600 O627 1.393 . S
C601 C600 1.288 . S
C601 C602 1.369 . S
C601 H667 0.932 . S
C602 C601 1.369 . S
C602 C603 1.398 . S
C602 C606 1.527 . S
C603 C602 1.398 . S
C603 C604 1.380 . S
C603 C617 1.497 . S
C604 C603 1.380 . S
C604 C605 1.383 . S
C604 C607 1.603 . S
C605 C600 1.377 . S
C605 C604 1.383 . S
C605 H668 0.929 . S
C606 C602 1.527 . S
C606 H669 0.961 . S
C606 H670 0.959 . S
C606 H671 0.959 . S
C607 C604 1.603 . S
C607 H672 0.960 . S
C607 H673 0.962 . S
C607 H674 0.961 . S
C608 C575 1.587 . S
C608 C609 1.360 . S
C608 C621 1.412 . S
C609 C608 1.360 . S
C609 C610 1.365 . S
C609 H675 0.929 . S
C610 C585 1.553 . S
C610 C609 1.365 . S
C610 C611 1.404 . S
C611 C610 1.404 . S
C611 C612 1.395 . S
C611 C622 1.451 . S
C612 C611 1.395 . S
C612 C613 1.322 . S
C612 H676 0.930 . S
C613 C612 1.322 . S
C613 C614 1.459 . S
C613 H677 0.929 . S
C614 C613 1.459 . S
C614 C615 1.445 . S
C614 C623 1.395 . S
C615 C593 1.432 . S
C615 C614 1.445 . S
C615 C616 1.370 . S
C616 C615 1.370 . S
C616 C617 1.438 . S
C616 H678 0.930 . S
C617 C603 1.497 . S
C617 C616 1.438 . S
C617 C618 1.360 . S
C618 C617 1.360 . S
C618 C619 1.401 . S
C618 C623 1.446 . S
C619 C618 1.401 . S
C619 C620 1.347 . S
C619 H679 0.929 . S
C620 C619 1.347 . S
C620 C621 1.455 . S
C620 H680 0.930 . S
C621 C608 1.412 . S
C621 C620 1.455 . S
C621 C622 1.331 . S
C622 C611 1.451 . S
C622 C621 1.331 . S
C622 C623 1.497 . S
C623 C614 1.395 . S
C623 C618 1.446 . S
C623 C622 1.497 . S
C624 C625 1.582 . S
C624 H681 0.962 . S
C624 H682 0.959 . S
C624 H683 0.958 . S
C625 C624 1.582 . S
C625 O628 1.458 . S
C625 H654 0.980 . S
O626 C571 1.426 . S
O626 C572 1.334 . S
O627 C599 1.412 . S
O627 C600 1.393 . S
O628 C590 1.435 . S
O628 C625 1.458 . S
O629 C581 1.468 . S
O629 C582 1.408 . S
H630 C571 0.980 . S
H631 C570 0.959 . S
H632 C570 0.959 . S
H633 C570 0.960 . S
H634 C573 0.929 . S
H635 C577 0.929 . S
H636 C578 0.959 . S
H637 C578 0.961 . S
H638 C578 0.961 . S
H639 C579 0.960 . S
H640 C579 0.960 . S
H641 C579 0.961 . S
H642 C581 0.980 . S
H643 C580 0.961 . S
H644 C580 0.960 . S
H645 C580 0.959 . S
H646 C583 0.930 . S
H647 C587 0.931 . S
H648 C588 0.959 . S
H649 C588 0.961 . S
H650 C588 0.959 . S
H651 C589 0.960 . S
H652 C589 0.960 . S
H653 C589 0.960 . S
H654 C625 0.980 . S
H655 C591 0.930 . S
H656 C595 0.930 . S
H657 C596 0.961 . S
H658 C596 0.960 . S
H659 C596 0.958 . S
H660 C597 0.961 . S
H661 C597 0.960 . S
H662 C597 0.960 . S
H663 C599 0.980 . S
H664 C598 0.961 . S
H665 C598 0.961 . S
H666 C598 0.959 . S
H667 C601 0.932 . S
H668 C605 0.929 . S
H669 C606 0.961 . S
H670 C606 0.959 . S
H671 C606 0.959 . S
H672 C607 0.960 . S
H673 C607 0.962 . S
H674 C607 0.961 . S
H675 C609 0.929 . S
H676 C612 0.930 . S
H677 C613 0.929 . S
H678 C616 0.930 . S
H679 C619 0.929 . S
H680 C620 0.930 . S
H681 C624 0.962 . S
H682 C624 0.959 . S
H683 C624 0.958 . S
Li684 N701 1.990 . S
Li684 O744 1.956 . S
Li684 O745 1.970 . S
Li684 O746 1.961 . S
Li685 N709 1.990 . S
Li685 O744 1.970 . S
Li685 O745 1.956 . S
Li685 O747 1.961 . S
Li686 N731 1.990 . S
Li686 O744 1.961 . S
Li686 O746 1.956 . S
Li686 O747 1.970 . S
Li687 N737 1.990 . S
Li687 O745 1.961 . S
Li687 O746 1.970 . S
Li687 O747 1.956 . S
C688 C690 1.348 . S
C688 C691 1.356 . S
C688 O744 1.325 . S
N689 C692 1.314 . S
N689 C693 1.279 . S
C690 C688 1.348 . S
C690 C692 1.353 . S
C690 H748 0.929 . S
C691 C688 1.356 . S
C691 C693 1.358 . S
C691 H749 0.930 . S
C692 N689 1.314 . S
C692 C690 1.353 . S
C692 H750 0.930 . S
C693 N689 1.279 . S
C693 C691 1.358 . S
C693 H751 0.930 . S
C694 C697 1.348 . S
C694 C698 1.356 . S
C694 O745 1.325 . S
C695 N696 1.279 . S
C695 C698 1.358 . S
C695 H752 0.930 . S
N696 C695 1.279 . S
N696 C699 1.314 . S
C697 C694 1.348 . S
C697 C699 1.353 . S
C697 H753 0.929 . S
C698 C694 1.356 . S
C698 C695 1.358 . S
C698 H754 0.930 . S
C699 N696 1.314 . S
C699 C697 1.353 . S
C699 H755 0.930 . S
C700 N701 1.314 . S
C700 C705 1.353 . S
C700 H706 0.930 . S
N701 Li684 1.990 . S
N701 C700 1.314 . S
N701 C703 1.279 . S
C702 C703 1.358 . S
C702 C704 1.356 . S
C702 H756 0.930 . S
C703 N701 1.279 . S
C703 C702 1.358 . S
C703 H707 0.930 . S
C704 C702 1.356 . S
C704 C705 1.348 . S
C705 C700 1.353 . S
C705 C704 1.348 . S
C705 H757 0.929 . S
H706 C700 0.930 . S
H707 C703 0.930 . S
C708 N709 1.314 . S
C708 C710 1.353 . S
C708 H714 0.930 . S
N709 Li685 1.990 . S
N709 C708 1.314 . S
N709 C712 1.279 . S
C710 C708 1.353 . S
C710 C713 1.348 . S
C710 H758 0.929 . S
C711 C712 1.358 . S
C711 C713 1.356 . S
C711 H759 0.930 . S
C712 N709 1.279 . S
C712 C711 1.358 . S
C712 H715 0.930 . S
C713 C710 1.348 . S
C713 C711 1.356 . S
H714 C708 0.930 . S
H715 C712 0.930 . S
C716 C718 1.348 . S
C716 C719 1.356 . S
C716 O746 1.325 . S
N717 C720 1.314 . S
N717 C721 1.279 . S
C718 C716 1.348 . S
C718 C720 1.353 . S
C718 H760 0.929 . S
C719 C716 1.356 . S
C719 C721 1.358 . S
C719 H761 0.930 . S
C720 N717 1.314 . S
C720 C718 1.353 . S
C720 H762 0.930 . S
C721 N717 1.279 . S
C721 C719 1.358 . S
C721 H763 0.930 . S
C722 C723 1.348 . S
C722 C724 1.356 . S
C722 O747 1.325 . S
C723 C722 1.348 . S
C723 C725 1.353 . S
C723 H764 0.929 . S
C724 C722 1.356 . S
C724 C726 1.358 . S
C724 H765 0.930 . S
C725 C723 1.353 . S
C725 N727 1.314 . S
C725 H766 0.930 . S
C726 C724 1.358 . S
C726 N727 1.279 . S
C726 H767 0.930 . S
N727 C725 1.314 . S
N727 C726 1.279 . S
C728 C730 1.353 . S
C728 N731 1.314 . S
C728 H734 0.930 . S
C729 N731 1.279 . S
C729 C732 1.358 . S
C729 H735 0.930 . S
C730 C728 1.353 . S
C730 C733 1.348 . S
C730 H768 0.929 . S
N731 Li686 1.990 . S
N731 C728 1.314 . S
N731 C729 1.279 . S
C732 C729 1.358 . S
C732 C733 1.356 . S
C732 H769 0.930 . S
C733 C730 1.348 . S
C733 C732 1.356 . S
H734 C728 0.930 . S
H735 C729 0.930 . S
C736 N737 1.314 . S
C736 C738 1.353 . S
C736 H742 0.930 . S
N737 Li687 1.990 . S
N737 C736 1.314 . S
N737 C740 1.279 . S
C738 C736 1.353 . S
C738 C741 1.348 . S
C738 H770 0.929 . S
C739 C740 1.358 . S
C739 C741 1.356 . S
C739 H771 0.930 . S
C740 N737 1.279 . S
C740 C739 1.358 . S
C740 H743 0.930 . S
C741 C738 1.348 . S
C741 C739 1.356 . S
H742 C736 0.930 . S
H743 C740 0.930 . S
O744 Li684 1.956 . S
O744 Li685 1.970 . S
O744 Li686 1.961 . S
O744 C688 1.325 . S
O745 Li684 1.970 . S
O745 Li685 1.956 . S
O745 Li687 1.961 . S
O745 C694 1.325 . S
O746 Li684 1.961 . S
O746 Li686 1.956 . S
O746 Li687 1.970 . S
O746 C716 1.325 . S
O747 Li685 1.961 . S
O747 Li686 1.970 . S
O747 Li687 1.956 . S
O747 C722 1.325 . S
H748 C690 0.929 . S
H749 C691 0.930 . S
H750 C692 0.930 . S
H751 C693 0.930 . S
H752 C695 0.930 . S
H753 C697 0.929 . S
H754 C698 0.930 . S
H755 C699 0.930 . S
H756 C702 0.930 . S
H757 C705 0.929 . S
H758 C710 0.929 . S
H759 C711 0.930 . S
H760 C718 0.929 . S
H761 C719 0.930 . S
H762 C720 0.930 . S
H763 C721 0.930 . S
H764 C723 0.929 . S
H765 C724 0.930 . S
H766 C725 0.930 . S
H767 C726 0.930 . S
H768 C730 0.929 . S
H769 C732 0.930 . S
H770 C738 0.929 . S
H771 C739 0.930 . S
Li772 N789 1.990 . S
Li772 O832 1.956 . S
Li772 O833 1.970 . S
Li772 O834 1.961 . S
Li773 N797 1.990 . S
Li773 O832 1.970 . S
Li773 O833 1.956 . S
Li773 O835 1.961 . S
Li774 N819 1.990 . S
Li774 O832 1.961 . S
Li774 O834 1.956 . S
Li774 O835 1.970 . S
Li775 N825 1.990 . S
Li775 O833 1.961 . S
Li775 O834 1.970 . S
Li775 O835 1.956 . S
C776 C778 1.348 . S
C776 C779 1.356 . S
C776 O832 1.325 . S
N777 C780 1.314 . S
N777 C781 1.279 . S
C778 C776 1.348 . S
C778 C780 1.353 . S
C778 H836 0.929 . S
C779 C776 1.356 . S
C779 C781 1.358 . S
C779 H837 0.930 . S
C780 N777 1.314 . S
C780 C778 1.353 . S
C780 H838 0.930 . S
C781 N777 1.279 . S
C781 C779 1.358 . S
C781 H839 0.930 . S
C782 C785 1.348 . S
C782 C786 1.356 . S
C782 O833 1.325 . S
C783 N784 1.279 . S
C783 C786 1.358 . S
C783 H840 0.930 . S
N784 C783 1.279 . S
N784 C787 1.314 . S
C785 C782 1.348 . S
C785 C787 1.353 . S
C785 H841 0.929 . S
C786 C782 1.356 . S
C786 C783 1.358 . S
C786 H842 0.930 . S
C787 N784 1.314 . S
C787 C785 1.353 . S
C787 H843 0.930 . S
C788 N789 1.314 . S
C788 C793 1.353 . S
C788 H794 0.930 . S
N789 Li772 1.990 . S
N789 C788 1.314 . S
N789 C791 1.279 . S
C790 C791 1.358 . S
C790 C792 1.356 . S
C790 H844 0.930 . S
C791 N789 1.279 . S
C791 C790 1.358 . S
C791 H795 0.930 . S
C792 C790 1.356 . S
C792 C793 1.348 . S
C793 C788 1.353 . S
C793 C792 1.348 . S
C793 H845 0.929 . S
H794 C788 0.930 . S
H795 C791 0.930 . S
C796 N797 1.314 . S
C796 C798 1.353 . S
C796 H802 0.930 . S
N797 Li773 1.990 . S
N797 C796 1.314 . S
N797 C800 1.279 . S
C798 C796 1.353 . S
C798 C801 1.348 . S
C798 H846 0.929 . S
C799 C800 1.358 . S
C799 C801 1.356 . S
C799 H847 0.930 . S
C800 N797 1.279 . S
C800 C799 1.358 . S
C800 H803 0.930 . S
C801 C798 1.348 . S
C801 C799 1.356 . S
H802 C796 0.930 . S
H803 C800 0.930 . S
C804 C806 1.348 . S
C804 C807 1.356 . S
C804 O834 1.325 . S
N805 C808 1.314 . S
N805 C809 1.279 . S
C806 C804 1.348 . S
C806 C808 1.353 . S
C806 H848 0.929 . S
C807 C804 1.356 . S
C807 C809 1.358 . S
C807 H849 0.930 . S
C808 N805 1.314 . S
C808 C806 1.353 . S
C808 H850 0.930 . S
C809 N805 1.279 . S
C809 C807 1.358 . S
C809 H851 0.930 . S
C810 C811 1.348 . S
C810 C812 1.356 . S
C810 O835 1.325 . S
C811 C810 1.348 . S
C811 C813 1.353 . S
C811 H852 0.929 . S
C812 C810 1.356 . S
C812 C814 1.358 . S
C812 H853 0.930 . S
C813 C811 1.353 . S
C813 N815 1.314 . S
C813 H854 0.930 . S
C814 C812 1.358 . S
C814 N815 1.279 . S
C814 H855 0.930 . S
N815 C813 1.314 . S
N815 C814 1.279 . S
C816 C818 1.353 . S
C816 N819 1.314 . S
C816 H822 0.930 . S
C817 N819 1.279 . S
C817 C820 1.358 . S
C817 H823 0.930 . S
C818 C816 1.353 . S
C818 C821 1.348 . S
C818 H856 0.929 . S
N819 Li774 1.990 . S
N819 C816 1.314 . S
N819 C817 1.279 . S
C820 C817 1.358 . S
C820 C821 1.356 . S
C820 H857 0.930 . S
C821 C818 1.348 . S
C821 C820 1.356 . S
H822 C816 0.930 . S
H823 C817 0.930 . S
C824 N825 1.314 . S
C824 C826 1.353 . S
C824 H830 0.930 . S
N825 Li775 1.990 . S
N825 C824 1.314 . S
N825 C828 1.279 . S
C826 C824 1.353 . S
C826 C829 1.348 . S
C826 H858 0.929 . S
C827 C828 1.358 . S
C827 C829 1.356 . S
C827 H859 0.930 . S
C828 N825 1.279 . S
C828 C827 1.358 . S
C828 H831 0.930 . S
C829 C826 1.348 . S
C829 C827 1.356 . S
H830 C824 0.930 . S
H831 C828 0.930 . S
O832 Li772 1.956 . S
O832 Li773 1.970 . S
O832 Li774 1.961 . S
O832 C776 1.325 . S
O833 Li772 1.970 . S
O833 Li773 1.956 . S
O833 Li775 1.961 . S
O833 C782 1.325 . S
O834 Li772 1.961 . S
O834 Li774 1.956 . S
O834 Li775 1.970 . S
O834 C804 1.325 . S
O835 Li773 1.961 . S
O835 Li774 1.970 . S
O835 Li775 1.956 . S
O835 C810 1.325 . S
H836 C778 0.929 . S
H837 C779 0.930 . S
H838 C780 0.930 . S
H839 C781 0.930 . S
H840 C783 0.930 . S
H841 C785 0.929 . S
H842 C786 0.930 . S
H843 C787 0.930 . S
H844 C790 0.930 . S
H845 C793 0.929 . S
H846 C798 0.929 . S
H847 C799 0.930 . S
H848 C806 0.929 . S
H849 C807 0.930 . S
H850 C808 0.930 . S
H851 C809 0.930 . S
H852 C811 0.929 . S
H853 C812 0.930 . S
H854 C813 0.930 . S
H855 C814 0.930 . S
H856 C818 0.929 . S
H857 C820 0.930 . S
H858 C826 0.929 . S
H859 C827 0.930 . S
Li860 N877 1.990 . S
Li860 O920 1.956 . S
Li860 O921 1.970 . S
Li860 O922 1.961 . S
Li861 N885 1.990 . S
Li861 O920 1.970 . S
Li861 O921 1.956 . S
Li861 O923 1.961 . S
Li862 N907 1.990 . S
Li862 O920 1.961 . S
Li862 O922 1.956 . S
Li862 O923 1.970 . S
Li863 N913 1.990 . S
Li863 O921 1.961 . S
Li863 O922 1.970 . S
Li863 O923 1.956 . S
C864 C866 1.348 . S
C864 C867 1.356 . S
C864 O920 1.325 . S
N865 C868 1.314 . S
N865 C869 1.279 . S
C866 C864 1.348 . S
C866 C868 1.353 . S
C866 H924 0.929 . S
C867 C864 1.356 . S
C867 C869 1.358 . S
C867 H925 0.930 . S
C868 N865 1.314 . S
C868 C866 1.353 . S
C868 H926 0.930 . S
C869 N865 1.279 . S
C869 C867 1.358 . S
C869 H927 0.930 . S
C870 C873 1.348 . S
C870 C874 1.356 . S
C870 O921 1.325 . S
C871 N872 1.279 . S
C871 C874 1.358 . S
C871 H928 0.930 . S
N872 C871 1.279 . S
N872 C875 1.314 . S
C873 C870 1.348 . S
C873 C875 1.353 . S
C873 H929 0.929 . S
C874 C870 1.356 . S
C874 C871 1.358 . S
C874 H930 0.930 . S
C875 N872 1.314 . S
C875 C873 1.353 . S
C875 H931 0.930 . S
C876 N877 1.314 . S
C876 C881 1.353 . S
C876 H882 0.930 . S
N877 Li860 1.990 . S
N877 C876 1.314 . S
N877 C879 1.279 . S
C878 C879 1.358 . S
C878 C880 1.356 . S
C878 H932 0.930 . S
C879 N877 1.279 . S
C879 C878 1.358 . S
C879 H883 0.930 . S
C880 C878 1.356 . S
C880 C881 1.348 . S
C881 C876 1.353 . S
C881 C880 1.348 . S
C881 H933 0.929 . S
H882 C876 0.930 . S
H883 C879 0.930 . S
C884 N885 1.314 . S
C884 C886 1.353 . S
C884 H890 0.930 . S
N885 Li861 1.990 . S
N885 C884 1.314 . S
N885 C888 1.279 . S
C886 C884 1.353 . S
C886 C889 1.348 . S
C886 H934 0.929 . S
C887 C888 1.358 . S
C887 C889 1.356 . S
C887 H935 0.930 . S
C888 N885 1.279 . S
C888 C887 1.358 . S
C888 H891 0.930 . S
C889 C886 1.348 . S
C889 C887 1.356 . S
H890 C884 0.930 . S
H891 C888 0.930 . S
C892 C894 1.348 . S
C892 C895 1.356 . S
C892 O922 1.325 . S
N893 C896 1.314 . S
N893 C897 1.279 . S
C894 C892 1.348 . S
C894 C896 1.353 . S
C894 H936 0.929 . S
C895 C892 1.356 . S
C895 C897 1.358 . S
C895 H937 0.930 . S
C896 N893 1.314 . S
C896 C894 1.353 . S
C896 H938 0.930 . S
C897 N893 1.279 . S
C897 C895 1.358 . S
C897 H939 0.930 . S
C898 C899 1.348 . S
C898 C900 1.356 . S
C898 O923 1.325 . S
C899 C898 1.348 . S
C899 C901 1.353 . S
C899 H940 0.929 . S
C900 C898 1.356 . S
C900 C902 1.358 . S
C900 H941 0.930 . S
C901 C899 1.353 . S
C901 N903 1.314 . S
C901 H942 0.930 . S
C902 C900 1.358 . S
C902 N903 1.279 . S
C902 H943 0.930 . S
N903 C901 1.314 . S
N903 C902 1.279 . S
C904 C906 1.353 . S
C904 N907 1.314 . S
C904 H910 0.930 . S
C905 N907 1.279 . S
C905 C908 1.358 . S
C905 H911 0.930 . S
C906 C904 1.353 . S
C906 C909 1.348 . S
C906 H944 0.929 . S
N907 Li862 1.990 . S
N907 C904 1.314 . S
N907 C905 1.279 . S
C908 C905 1.358 . S
C908 C909 1.356 . S
C908 H945 0.930 . S
C909 C906 1.348 . S
C909 C908 1.356 . S
H910 C904 0.930 . S
H911 C905 0.930 . S
C912 N913 1.314 . S
C912 C914 1.353 . S
C912 H918 0.930 . S
N913 Li863 1.990 . S
N913 C912 1.314 . S
N913 C916 1.279 . S
C914 C912 1.353 . S
C914 C917 1.348 . S
C914 H946 0.929 . S
C915 C916 1.358 . S
C915 C917 1.356 . S
C915 H947 0.930 . S
C916 N913 1.279 . S
C916 C915 1.358 . S
C916 H919 0.930 . S
C917 C914 1.348 . S
C917 C915 1.356 . S
H918 C912 0.930 . S
H919 C916 0.930 . S
O920 Li860 1.956 . S
O920 Li861 1.970 . S
O920 Li862 1.961 . S
O920 C864 1.325 . S
O921 Li860 1.970 . S
O921 Li861 1.956 . S
O921 Li863 1.961 . S
O921 C870 1.325 . S
O922 Li860 1.961 . S
O922 Li862 1.956 . S
O922 Li863 1.970 . S
O922 C892 1.325 . S
O923 Li861 1.961 . S
O923 Li862 1.970 . S
O923 Li863 1.956 . S
O923 C898 1.325 . S
H924 C866 0.929 . S
H925 C867 0.930 . S
H926 C868 0.930 . S
H927 C869 0.930 . S
H928 C871 0.930 . S
H929 C873 0.929 . S
H930 C874 0.930 . S
H931 C875 0.930 . S
H932 C878 0.930 . S
H933 C881 0.929 . S
H934 C886 0.929 . S
H935 C887 0.930 . S
H936 C894 0.929 . S
H937 C895 0.930 . S
H938 C896 0.930 . S
H939 C897 0.930 . S
H940 C899 0.929 . S
H941 C900 0.930 . S
H942 C901 0.930 . S
H943 C902 0.930 . S
H944 C906 0.929 . S
H945 C908 0.930 . S
H946 C914 0.929 . S
H947 C915 0.930 . S
Li948 N965 1.990 . S
Li948 O1008 1.956 . S
Li948 O1009 1.970 . S
Li948 O1010 1.961 . S
Li949 N973 1.990 . S
Li949 O1008 1.970 . S
Li949 O1009 1.956 . S
Li949 O1011 1.961 . S
Li950 N995 1.990 . S
Li950 O1008 1.961 . S
Li950 O1010 1.956 . S
Li950 O1011 1.970 . S
Li951 N1001 1.990 . S
Li951 O1009 1.961 . S
Li951 O1010 1.970 . S
Li951 O1011 1.956 . S
C952 C954 1.348 . S
C952 C955 1.356 . S
C952 O1008 1.325 . S
N953 C956 1.314 . S
N953 C957 1.279 . S
C954 C952 1.348 . S
C954 C956 1.353 . S
C954 H1012 0.929 . S
C955 C952 1.356 . S
C955 C957 1.358 . S
C955 H1013 0.930 . S
C956 N953 1.314 . S
C956 C954 1.353 . S
C956 H1014 0.930 . S
C957 N953 1.279 . S
C957 C955 1.358 . S
C957 H1015 0.930 . S
C958 C961 1.348 . S
C958 C962 1.356 . S
C958 O1009 1.325 . S
C959 N960 1.279 . S
C959 C962 1.358 . S
C959 H1016 0.930 . S
N960 C959 1.279 . S
N960 C963 1.314 . S
C961 C958 1.348 . S
C961 C963 1.353 . S
C961 H1017 0.929 . S
C962 C958 1.356 . S
C962 C959 1.358 . S
C962 H1018 0.930 . S
C963 N960 1.314 . S
C963 C961 1.353 . S
C963 H1019 0.930 . S
C964 N965 1.314 . S
C964 C969 1.353 . S
C964 H970 0.930 . S
N965 Li948 1.990 . S
N965 C964 1.314 . S
N965 C967 1.279 . S
C966 C967 1.358 . S
C966 C968 1.356 . S
C966 H1020 0.930 1_556 S
C967 N965 1.279 . S
C967 C966 1.358 . S
C967 H971 0.930 . S
C968 C966 1.356 . S
C968 C969 1.348 . S
C969 C964 1.353 . S
C969 C968 1.348 . S
C969 H1021 0.929 . S
H970 C964 0.930 . S
H971 C967 0.930 . S
C972 N973 1.314 . S
C972 C974 1.353 . S
C972 H978 0.930 . S
N973 Li949 1.990 . S
N973 C972 1.314 . S
N973 C976 1.279 . S
C974 C972 1.353 . S
C974 C977 1.348 . S
C974 H1022 0.929 . S
C975 C976 1.358 . S
C975 C977 1.356 . S
C975 H1023 0.930 . S
C976 N973 1.279 . S
C976 C975 1.358 . S
C976 H979 0.930 . S
C977 C974 1.348 . S
C977 C975 1.356 . S
H978 C972 0.930 . S
H979 C976 0.930 . S
C980 C982 1.348 . S
C980 C983 1.356 . S
C980 O1010 1.325 . S
N981 C984 1.314 . S
N981 C985 1.279 . S
C982 C980 1.348 . S
C982 C984 1.353 . S
C982 H1024 0.929 . S
C983 C980 1.356 . S
C983 C985 1.358 . S
C983 H1025 0.930 . S
C984 N981 1.314 . S
C984 C982 1.353 . S
C984 H1026 0.930 . S
C985 N981 1.279 . S
C985 C983 1.358 . S
C985 H1027 0.930 . S
C986 C987 1.348 . S
C986 C988 1.356 . S
C986 O1011 1.325 . S
C987 C986 1.348 . S
C987 C989 1.353 . S
C987 H1028 0.929 . S
C988 C986 1.356 . S
C988 C990 1.358 . S
C988 H1029 0.930 . S
C989 C987 1.353 . S
C989 N991 1.314 . S
C989 H1030 0.930 . S
C990 C988 1.358 . S
C990 N991 1.279 . S
C990 H1031 0.930 . S
N991 C989 1.314 . S
N991 C990 1.279 . S
C992 C994 1.353 . S
C992 N995 1.314 . S
C992 H998 0.930 . S
C993 N995 1.279 . S
C993 C996 1.358 . S
C993 H999 0.930 . S
C994 C992 1.353 . S
C994 C997 1.348 . S
C994 H1032 0.929 . S
N995 Li950 1.990 . S
N995 C992 1.314 . S
N995 C993 1.279 . S
C996 C993 1.358 . S
C996 C997 1.356 . S
C996 H1033 0.930 . S
C997 C994 1.348 . S
C997 C996 1.356 . S
H998 C992 0.930 . S
H999 C993 0.930 . S
C1000 N1001 1.314 . S
C1000 C1002 1.353 . S
C1000 H1006 0.930 . S
N1001 Li951 1.990 . S
N1001 C1000 1.314 . S
N1001 C1004 1.279 . S
C1002 C1000 1.353 . S
C1002 C1005 1.348 . S
C1002 H1034 0.929 . S
C1003 C1004 1.358 . S
C1003 C1005 1.356 . S
C1003 H1035 0.930 . S
C1004 N1001 1.279 . S
C1004 C1003 1.358 . S
C1004 H1007 0.930 . S
C1005 C1002 1.348 . S
C1005 C1003 1.356 . S
H1006 C1000 0.930 . S
H1007 C1004 0.930 . S
O1008 Li948 1.956 . S
O1008 Li949 1.970 . S
O1008 Li950 1.961 . S
O1008 C952 1.325 . S
O1009 Li948 1.970 . S
O1009 Li949 1.956 . S
O1009 Li951 1.961 . S
O1009 C958 1.325 . S
O1010 Li948 1.961 . S
O1010 Li950 1.956 . S
O1010 Li951 1.970 . S
O1010 C980 1.325 . S
O1011 Li949 1.961 . S
O1011 Li950 1.970 . S
O1011 Li951 1.956 . S
O1011 C986 1.325 . S
H1012 C954 0.929 . S
H1013 C955 0.930 . S
H1014 C956 0.930 . S
H1015 C957 0.930 . S
H1016 C959 0.930 . S
H1017 C961 0.929 . S
H1018 C962 0.930 . S
H1019 C963 0.930 . S
H1020 C966 0.930 1_554 S
H1021 C969 0.929 . S
H1022 C974 0.929 . S
H1023 C975 0.930 . S
H1024 C982 0.929 . S
H1025 C983 0.930 . S
H1026 C984 0.930 . S
H1027 C985 0.930 . S
H1028 C987 0.929 . S
H1029 C988 0.930 . S
H1030 C989 0.930 . S
H1031 C990 0.930 . S
H1032 C994 0.929 . S
H1033 C996 0.930 . S
H1034 C1002 0.929 . S
H1035 C1003 0.930 . S
Li1036 N1053 1.990 . S
Li1036 O1096 1.956 . S
Li1036 O1097 1.970 . S
Li1036 O1098 1.961 . S
Li1037 N1061 1.990 . S
Li1037 O1096 1.970 . S
Li1037 O1097 1.956 . S
Li1037 O1099 1.961 . S
Li1038 N1083 1.990 . S
Li1038 O1096 1.961 . S
Li1038 O1098 1.956 . S
Li1038 O1099 1.970 . S
Li1039 N1089 1.990 . S
Li1039 O1097 1.961 . S
Li1039 O1098 1.970 . S
Li1039 O1099 1.956 . S
C1040 C1042 1.348 . S
C1040 C1043 1.356 . S
C1040 O1096 1.325 . S
N1041 C1044 1.314 . S
N1041 C1045 1.279 . S
C1042 C1040 1.348 . S
C1042 C1044 1.353 . S
C1042 H1100 0.929 . S
C1043 C1040 1.356 . S
C1043 C1045 1.358 . S
C1043 H1101 0.930 . S
C1044 N1041 1.314 . S
C1044 C1042 1.353 . S
C1044 H1102 0.930 . S
C1045 N1041 1.279 . S
C1045 C1043 1.358 . S
C1045 H1103 0.930 . S
C1046 C1049 1.348 . S
C1046 C1050 1.356 . S
C1046 O1097 1.325 . S
C1047 N1048 1.279 . S
C1047 C1050 1.358 . S
C1047 H1104 0.930 . S
N1048 C1047 1.279 . S
N1048 C1051 1.314 . S
C1049 C1046 1.348 . S
C1049 C1051 1.353 . S
C1049 H1105 0.929 . S
C1050 C1046 1.356 . S
C1050 C1047 1.358 . S
C1050 H1106 0.930 . S
C1051 N1048 1.314 . S
C1051 C1049 1.353 . S
C1051 H1107 0.930 . S
C1052 N1053 1.314 . S
C1052 C1057 1.353 . S
C1052 H1058 0.930 . S
N1053 Li1036 1.990 . S
N1053 C1052 1.314 . S
N1053 C1055 1.279 . S
C1054 C1055 1.358 . S
C1054 C1056 1.356 . S
C1054 H1108 0.930 . S
C1055 N1053 1.279 . S
C1055 C1054 1.358 . S
C1055 H1059 0.930 . S
C1056 C1054 1.356 . S
C1056 C1057 1.348 . S
C1057 C1052 1.353 . S
C1057 C1056 1.348 . S
C1057 H1109 0.929 . S
H1058 C1052 0.930 . S
H1059 C1055 0.930 . S
C1060 N1061 1.314 . S
C1060 C1062 1.353 . S
C1060 H1066 0.930 . S
N1061 Li1037 1.990 . S
N1061 C1060 1.314 . S
N1061 C1064 1.279 . S
C1062 C1060 1.353 . S
C1062 C1065 1.348 . S
C1062 H1110 0.929 . S
C1063 C1064 1.358 . S
C1063 C1065 1.356 . S
C1063 H1111 0.930 . S
C1064 N1061 1.279 . S
C1064 C1063 1.358 . S
C1064 H1067 0.930 . S
C1065 C1062 1.348 . S
C1065 C1063 1.356 . S
H1066 C1060 0.930 . S
H1067 C1064 0.930 . S
C1068 C1070 1.348 . S
C1068 C1071 1.356 . S
C1068 O1098 1.325 . S
N1069 C1072 1.314 . S
N1069 C1073 1.279 . S
C1070 C1068 1.348 . S
C1070 C1072 1.353 . S
C1070 H1112 0.929 . S
C1071 C1068 1.356 . S
C1071 C1073 1.358 . S
C1071 H1113 0.930 . S
C1072 N1069 1.314 . S
C1072 C1070 1.353 . S
C1072 H1114 0.930 . S
C1073 N1069 1.279 . S
C1073 C1071 1.358 . S
C1073 H1115 0.930 . S
C1074 C1075 1.348 . S
C1074 C1076 1.356 . S
C1074 O1099 1.325 . S
C1075 C1074 1.348 . S
C1075 C1077 1.353 . S
C1075 H1116 0.929 . S
C1076 C1074 1.356 . S
C1076 C1078 1.358 . S
C1076 H1117 0.930 . S
C1077 C1075 1.353 . S
C1077 N1079 1.314 . S
C1077 H1118 0.930 . S
C1078 C1076 1.358 . S
C1078 N1079 1.279 . S
C1078 H1119 0.930 . S
N1079 C1077 1.314 . S
N1079 C1078 1.279 . S
C1080 C1082 1.353 . S
C1080 N1083 1.314 . S
C1080 H1086 0.930 . S
C1081 N1083 1.279 . S
C1081 C1084 1.359 . S
C1081 H1087 0.930 . S
C1082 C1080 1.353 . S
C1082 C1085 1.348 . S
C1082 H1120 0.929 . S
N1083 Li1038 1.990 . S
N1083 C1080 1.314 . S
N1083 C1081 1.279 . S
C1084 C1081 1.359 . S
C1084 C1085 1.356 . S
C1084 H1121 0.929 1_554 S
C1085 C1082 1.348 . S
C1085 C1084 1.356 . S
H1086 C1080 0.930 . S
H1087 C1081 0.930 . S
C1088 N1089 1.314 . S
C1088 C1090 1.353 . S
C1088 H1094 0.930 . S
N1089 Li1039 1.990 . S
N1089 C1088 1.314 . S
N1089 C1092 1.279 . S
C1090 C1088 1.353 . S
C1090 C1093 1.348 . S
C1090 H1122 0.929 . S
C1091 C1092 1.358 . S
C1091 C1093 1.356 . S
C1091 H1123 0.930 . S
C1092 N1089 1.279 . S
C1092 C1091 1.358 . S
C1092 H1095 0.930 . S
C1093 C1090 1.348 . S
C1093 C1091 1.356 . S
H1094 C1088 0.930 . S
H1095 C1092 0.930 . S
O1096 Li1036 1.956 . S
O1096 Li1037 1.970 . S
O1096 Li1038 1.961 . S
O1096 C1040 1.325 . S
O1097 Li1036 1.970 . S
O1097 Li1037 1.956 . S
O1097 Li1039 1.961 . S
O1097 C1046 1.325 . S
O1098 Li1036 1.961 . S
O1098 Li1038 1.956 . S
O1098 Li1039 1.970 . S
O1098 C1068 1.325 . S
O1099 Li1037 1.961 . S
O1099 Li1038 1.970 . S
O1099 Li1039 1.956 . S
O1099 C1074 1.325 . S
H1100 C1042 0.929 . S
H1101 C1043 0.930 . S
H1102 C1044 0.930 . S
H1103 C1045 0.930 . S
H1104 C1047 0.930 . S
H1105 C1049 0.929 . S
H1106 C1050 0.930 . S
H1107 C1051 0.930 . S
H1108 C1054 0.930 . S
H1109 C1057 0.929 . S
H1110 C1062 0.929 . S
H1111 C1063 0.930 . S
H1112 C1070 0.929 . S
H1113 C1071 0.930 . S
H1114 C1072 0.930 . S
H1115 C1073 0.930 . S
H1116 C1075 0.929 . S
H1117 C1076 0.930 . S
H1118 C1077 0.930 . S
H1119 C1078 0.930 . S
H1120 C1082 0.929 . S
H1121 C1084 0.929 1_556 S
H1122 C1090 0.929 . S
H1123 C1091 0.930 . S
Li1124 N1141 1.990 . S
Li1124 O1184 1.956 . S
Li1124 O1185 1.970 . S
Li1124 O1186 1.961 . S
Li1125 N1149 1.990 . S
Li1125 O1184 1.970 . S
Li1125 O1185 1.956 . S
Li1125 O1187 1.961 . S
Li1126 N1171 1.990 . S
Li1126 O1184 1.961 . S
Li1126 O1186 1.956 . S
Li1126 O1187 1.970 . S
Li1127 N1177 1.990 . S
Li1127 O1185 1.961 . S
Li1127 O1186 1.970 . S
Li1127 O1187 1.956 . S
C1128 C1130 1.348 . S
C1128 C1131 1.356 . S
C1128 O1184 1.325 . S
N1129 C1132 1.314 . S
N1129 C1133 1.279 . S
C1130 C1128 1.348 . S
C1130 C1132 1.353 . S
C1130 H1188 0.929 . S
C1131 C1128 1.356 . S
C1131 C1133 1.358 . S
C1131 H1189 0.930 . S
C1132 N1129 1.314 . S
C1132 C1130 1.353 . S
C1132 H1190 0.930 . S
C1133 N1129 1.279 . S
C1133 C1131 1.358 . S
C1133 H1191 0.930 . S
C1134 C1137 1.348 . S
C1134 C1138 1.356 . S
C1134 O1185 1.325 . S
C1135 N1136 1.279 . S
C1135 C1138 1.358 . S
C1135 H1192 0.930 . S
N1136 C1135 1.279 . S
N1136 C1139 1.314 . S
C1137 C1134 1.348 . S
C1137 C1139 1.353 . S
C1137 H1193 0.929 . S
C1138 C1134 1.356 . S
C1138 C1135 1.358 . S
C1138 H1194 0.930 . S
C1139 N1136 1.314 . S
C1139 C1137 1.353 . S
C1139 H1195 0.930 . S
C1140 N1141 1.314 . S
C1140 C1145 1.353 . S
C1140 H1146 0.930 . S
N1141 Li1124 1.990 . S
N1141 C1140 1.314 . S
N1141 C1143 1.279 . S
C1142 C1143 1.358 . S
C1142 C1144 1.356 . S
C1142 H1196 0.930 . S
C1143 N1141 1.279 . S
C1143 C1142 1.358 . S
C1143 H1147 0.930 . S
C1144 C1142 1.356 . S
C1144 C1145 1.348 . S
C1145 C1140 1.353 . S
C1145 C1144 1.348 . S
C1145 H1197 0.929 . S
H1146 C1140 0.930 . S
H1147 C1143 0.930 . S
C1148 N1149 1.314 . S
C1148 C1150 1.353 . S
C1148 H1154 0.930 . S
N1149 Li1125 1.990 . S
N1149 C1148 1.314 . S
N1149 C1152 1.279 . S
C1150 C1148 1.353 . S
C1150 C1153 1.348 . S
C1150 H1198 0.929 . S
C1151 C1152 1.358 . S
C1151 C1153 1.356 . S
C1151 H1199 0.930 . S
C1152 N1149 1.279 . S
C1152 C1151 1.358 . S
C1152 H1155 0.930 . S
C1153 C1150 1.348 . S
C1153 C1151 1.356 . S
H1154 C1148 0.930 . S
H1155 C1152 0.930 . S
C1156 C1158 1.348 . S
C1156 C1159 1.356 . S
C1156 O1186 1.325 . S
N1157 C1160 1.314 . S
N1157 C1161 1.279 . S
C1158 C1156 1.348 . S
C1158 C1160 1.353 . S
C1158 H1200 0.929 . S
C1159 C1156 1.356 . S
C1159 C1161 1.358 . S
C1159 H1201 0.930 . S
C1160 N1157 1.314 . S
C1160 C1158 1.353 . S
C1160 H1202 0.930 . S
C1161 N1157 1.279 . S
C1161 C1159 1.358 . S
C1161 H1203 0.930 . S
C1162 C1163 1.348 . S
C1162 C1164 1.356 . S
C1162 O1187 1.325 . S
C1163 C1162 1.348 . S
C1163 C1165 1.353 . S
C1163 H1204 0.929 . S
C1164 C1162 1.356 . S
C1164 C1166 1.358 . S
C1164 H1205 0.930 . S
C1165 C1163 1.353 . S
C1165 N1167 1.314 . S
C1165 H1206 0.930 . S
C1166 C1164 1.358 . S
C1166 N1167 1.279 . S
C1166 H1207 0.930 . S
N1167 C1165 1.314 . S
N1167 C1166 1.279 . S
C1168 C1170 1.353 . S
C1168 N1171 1.314 . S
C1168 H1174 0.930 . S
C1169 N1171 1.279 . S
C1169 C1172 1.358 . S
C1169 H1175 0.930 . S
C1170 C1168 1.353 . S
C1170 C1173 1.348 . S
C1170 H1208 0.929 . S
N1171 Li1126 1.990 . S
N1171 C1168 1.314 . S
N1171 C1169 1.279 . S
C1172 C1169 1.358 . S
C1172 C1173 1.356 . S
C1172 H1209 0.930 . S
C1173 C1170 1.348 . S
C1173 C1172 1.356 . S
H1174 C1168 0.930 . S
H1175 C1169 0.930 . S
C1176 N1177 1.314 . S
C1176 C1178 1.353 . S
C1176 H1182 0.930 . S
N1177 Li1127 1.990 . S
N1177 C1176 1.314 . S
N1177 C1180 1.279 . S
C1178 C1176 1.353 . S
C1178 C1181 1.348 . S
C1178 H1210 0.929 . S
C1179 C1180 1.358 . S
C1179 C1181 1.356 . S
C1179 H1211 0.930 . S
C1180 N1177 1.279 . S
C1180 C1179 1.358 . S
C1180 H1183 0.930 . S
C1181 C1178 1.348 . S
C1181 C1179 1.356 . S
H1182 C1176 0.930 . S
H1183 C1180 0.930 . S
O1184 Li1124 1.956 . S
O1184 Li1125 1.970 . S
O1184 Li1126 1.961 . S
O1184 C1128 1.325 . S
O1185 Li1124 1.970 . S
O1185 Li1125 1.956 . S
O1185 Li1127 1.961 . S
O1185 C1134 1.325 . S
O1186 Li1124 1.961 . S
O1186 Li1126 1.956 . S
O1186 Li1127 1.970 . S
O1186 C1156 1.325 . S
O1187 Li1125 1.961 . S
O1187 Li1126 1.970 . S
O1187 Li1127 1.956 . S
O1187 C1162 1.325 . S
H1188 C1130 0.929 . S
H1189 C1131 0.930 . S
H1190 C1132 0.930 . S
H1191 C1133 0.930 . S
H1192 C1135 0.930 . S
H1193 C1137 0.929 . S
H1194 C1138 0.930 . S
H1195 C1139 0.930 . S
H1196 C1142 0.930 . S
H1197 C1145 0.929 . S
H1198 C1150 0.929 . S
H1199 C1151 0.930 . S
H1200 C1158 0.929 . S
H1201 C1159 0.930 . S
H1202 C1160 0.930 . S
H1203 C1161 0.930 . S
H1204 C1163 0.929 . S
H1205 C1164 0.930 . S
H1206 C1165 0.930 . S
H1207 C1166 0.930 . S
H1208 C1170 0.929 . S
H1209 C1172 0.930 . S
H1210 C1178 0.929 . S
H1211 C1179 0.930 . S
C1212 C1213 1.387 . S
C1212 H1216 0.950 . S
C1212 C1221 1.390 . S
C1213 C1212 1.387 . S
C1213 C1215 1.387 . S
H1214 C1221 0.950 . S
C1215 C1213 1.387 . S
C1215 C1217 1.390 . S
C1215 H1219 0.950 . S
H1216 C1212 0.950 . S
C1217 C1215 1.390 . S
C1217 C1218 1.387 . S
C1217 H1220 0.950 . S
C1218 C1217 1.387 . S
C1218 C1221 1.387 . S
H1219 C1215 0.950 . S
H1220 C1217 0.950 . S
C1221 C1212 1.390 . S
C1221 H1214 0.950 . S
C1221 C1218 1.387 . S
C1222 C1223 1.387 . S
C1222 H1226 0.950 . S
C1222 C1231 1.390 . S
C1223 C1222 1.387 . S
C1223 C1225 1.387 . S
H1224 C1231 0.950 . S
C1225 C1223 1.387 . S
C1225 C1227 1.390 . S
C1225 H1229 0.950 . S
H1226 C1222 0.950 . S
C1227 C1225 1.390 . S
C1227 C1228 1.387 . S
C1227 H1230 0.950 . S
C1228 C1227 1.387 . S
C1228 C1231 1.387 . S
H1229 C1225 0.950 . S
H1230 C1227 0.950 . S
C1231 C1222 1.390 . S
C1231 H1224 0.950 . S
C1231 C1228 1.387 . S
C1232 C1233 1.387 . S
C1232 H1236 0.950 . S
C1232 C1241 1.390 . S
C1233 C1232 1.387 . S
C1233 C1235 1.387 . S
H1234 C1241 0.950 . S
C1235 C1233 1.387 . S
C1235 C1237 1.390 . S
C1235 H1239 0.950 . S
H1236 C1232 0.950 . S
C1237 C1235 1.390 . S
C1237 C1238 1.387 . S
C1237 H1240 0.950 . S
C1238 C1237 1.387 . S
C1238 C1241 1.387 . S
H1239 C1235 0.950 . S
H1240 C1237 0.950 . S
C1241 C1232 1.390 . S
C1241 H1234 0.950 . S
C1241 C1238 1.387 . S
C1242 C1243 1.387 . S
C1242 H1246 0.950 . S
C1242 C1251 1.390 . S
C1243 C1242 1.387 . S
C1243 C1245 1.387 . S
H1244 C1251 0.950 . S
C1245 C1243 1.387 . S
C1245 C1247 1.390 . S
C1245 H1249 0.950 . S
H1246 C1242 0.950 . S
C1247 C1245 1.390 . S
C1247 C1248 1.387 . S
C1247 H1250 0.950 . S
C1248 C1247 1.387 . S
C1248 C1251 1.387 . S
H1249 C1245 0.950 . S
H1250 C1247 0.950 . S
C1251 C1242 1.390 . S
C1251 H1244 0.950 . S
C1251 C1248 1.387 . S
C1252 C1253 1.387 . S
C1252 H1256 0.950 . S
C1252 C1261 1.390 . S
C1253 C1252 1.387 . S
C1253 C1255 1.387 . S
H1254 C1261 0.950 . S
C1255 C1253 1.387 . S
C1255 C1257 1.390 . S
C1255 H1259 0.950 . S
H1256 C1252 0.950 . S
C1257 C1255 1.390 . S
C1257 C1258 1.387 . S
C1257 H1260 0.950 . S
C1258 C1257 1.387 . S
C1258 C1261 1.387 . S
H1259 C1255 0.950 . S
H1260 C1257 0.950 . S
C1261 C1252 1.390 . S
C1261 H1254 0.950 . S
C1261 C1258 1.387 . S
C1262 C1263 1.387 . S
C1262 H1266 0.950 . S
C1262 C1271 1.390 . S
C1263 C1262 1.387 . S
C1263 C1265 1.387 . S
H1264 C1271 0.950 . S
C1265 C1263 1.387 . S
C1265 C1267 1.390 . S
C1265 H1269 0.950 . S
H1266 C1262 0.950 . S
C1267 C1265 1.390 . S
C1267 C1268 1.387 . S
C1267 H1270 0.950 . S
C1268 C1267 1.387 . S
C1268 C1271 1.387 . S
H1269 C1265 0.950 . S
H1270 C1267 0.950 . S
C1271 C1262 1.390 . S
C1271 H1264 0.950 . S
C1271 C1268 1.387 . S
C1272 C1273 1.387 . S
C1272 H1276 0.950 . S
C1272 C1281 1.390 . S
C1273 C1272 1.387 . S
C1273 C1275 1.387 . S
H1274 C1281 0.950 . S
C1275 C1273 1.387 . S
C1275 C1277 1.390 . S
C1275 H1279 0.950 . S
H1276 C1272 0.950 . S
C1277 C1275 1.390 . S
C1277 C1278 1.387 . S
C1277 H1280 0.950 . S
C1278 C1277 1.387 . S
C1278 C1281 1.387 . S
H1279 C1275 0.950 . S
H1280 C1277 0.950 . S
C1281 C1272 1.390 . S
C1281 H1274 0.950 . S
C1281 C1278 1.387 . S
C1282 C1283 1.387 . S
C1282 H1286 0.950 . S
C1282 C1291 1.390 . S
C1283 C1282 1.387 . S
C1283 C1285 1.387 . S
H1284 C1291 0.950 . S
C1285 C1283 1.387 . S
C1285 C1287 1.390 . S
C1285 H1289 0.950 . S
H1286 C1282 0.950 . S
C1287 C1285 1.390 . S
C1287 C1288 1.387 . S
C1287 H1290 0.950 . S
C1288 C1287 1.387 . S
C1288 C1291 1.387 . S
H1289 C1285 0.950 . S
H1290 C1287 0.950 . S
C1291 C1282 1.390 . S
C1291 H1284 0.950 . S
C1291 C1288 1.387 . S
C1292 C1293 1.387 . S
C1292 H1296 0.950 . S
C1292 C1301 1.390 . S
C1293 C1292 1.387 . S
C1293 C1295 1.387 . S
H1294 C1301 0.950 . S
C1295 C1293 1.387 . S
C1295 C1297 1.390 . S
C1295 H1299 0.950 . S
H1296 C1292 0.950 . S
C1297 C1295 1.390 . S
C1297 C1298 1.387 . S
C1297 H1300 0.950 . S
C1298 C1297 1.387 . S
C1298 C1301 1.387 . S
H1299 C1295 0.950 . S
H1300 C1297 0.950 . S
C1301 C1292 1.390 . S
C1301 H1294 0.950 . S
C1301 C1298 1.387 . S
C1302 C1303 1.387 . S
C1302 H1306 0.950 . S
C1302 C1311 1.390 . S
C1303 C1302 1.387 . S
C1303 C1305 1.387 . S
H1304 C1311 0.950 . S
C1305 C1303 1.387 . S
C1305 C1307 1.390 . S
C1305 H1309 0.950 . S
H1306 C1302 0.950 . S
C1307 C1305 1.390 . S
C1307 C1308 1.387 . S
C1307 H1310 0.950 . S
C1308 C1307 1.387 . S
C1308 C1311 1.387 . S
H1309 C1305 0.950 . S
H1310 C1307 0.950 . S
C1311 C1302 1.390 . S
C1311 H1304 0.950 . S
C1311 C1308 1.387 . S
C1312 C1313 1.387 . S
C1312 H1316 0.950 . S
C1312 C1321 1.390 . S
C1313 C1312 1.387 . S
C1313 C1315 1.387 . S
H1314 C1321 0.950 . S
C1315 C1313 1.387 . S
C1315 C1317 1.390 . S
C1315 H1319 0.950 . S
H1316 C1312 0.950 . S
C1317 C1315 1.390 . S
C1317 C1318 1.387 . S
C1317 H1320 0.950 . S
C1318 C1317 1.387 . S
C1318 C1321 1.387 . S
H1319 C1315 0.950 . S
H1320 C1317 0.950 . S
C1321 C1312 1.390 . S
C1321 H1314 0.950 . S
C1321 C1318 1.387 . S
C1322 C1323 1.387 . S
C1322 H1326 0.950 . S
C1322 C1331 1.390 . S
C1323 C1322 1.387 . S
C1323 C1325 1.387 . S
H1324 C1331 0.950 . S
C1325 C1323 1.387 . S
C1325 C1327 1.390 . S
C1325 H1329 0.950 . S
H1326 C1322 0.950 . S
C1327 C1325 1.390 . S
C1327 C1328 1.387 . S
C1327 H1330 0.950 . S
C1328 C1327 1.387 . S
C1328 C1331 1.387 . S
H1329 C1325 0.950 . S
H1330 C1327 0.950 . S
C1331 C1322 1.390 . S
C1331 H1324 0.950 . S
C1331 C1328 1.387 . S
C1332 C1333 1.387 . S
C1332 H1336 0.950 . S
C1332 C1341 1.390 . S
C1333 C1332 1.387 . S
C1333 C1335 1.387 . S
H1334 C1341 0.950 . S
C1335 C1333 1.387 . S
C1335 C1337 1.390 . S
C1335 H1339 0.950 . S
H1336 C1332 0.950 . S
C1337 C1335 1.390 . S
C1337 C1338 1.387 . S
C1337 H1340 0.950 . S
C1338 C1337 1.387 . S
C1338 C1341 1.387 . S
H1339 C1335 0.950 . S
H1340 C1337 0.950 . S
C1341 C1332 1.390 . S
C1341 H1334 0.950 . S
C1341 C1338 1.387 . S
C1342 C1343 1.387 . S
C1342 H1346 0.950 . S
C1342 C1351 1.390 . S
C1343 C1342 1.387 . S
C1343 C1345 1.387 . S
H1344 C1351 0.950 . S
C1345 C1343 1.387 . S
C1345 C1347 1.390 . S
C1345 H1349 0.950 . S
H1346 C1342 0.950 . S
C1347 C1345 1.390 . S
C1347 C1348 1.387 . S
C1347 H1350 0.950 . S
C1348 C1347 1.387 . S
C1348 C1351 1.387 . S
H1349 C1345 0.950 . S
H1350 C1347 0.950 . S
C1351 C1342 1.390 . S
C1351 H1344 0.950 . S
C1351 C1348 1.387 . S
C1352 C1353 1.387 . S
C1352 H1356 0.950 . S
C1352 C1361 1.390 . S
C1353 C1352 1.387 . S
C1353 C1355 1.387 . S
H1354 C1361 0.950 . S
C1355 C1353 1.387 . S
C1355 C1357 1.390 . S
C1355 H1359 0.950 . S
H1356 C1352 0.950 . S
C1357 C1355 1.390 . S
C1357 C1358 1.387 . S
C1357 H1360 0.950 . S
C1358 C1357 1.387 . S
C1358 C1361 1.387 . S
H1359 C1355 0.950 . S
H1360 C1357 0.950 . S
C1361 C1352 1.390 . S
C1361 H1354 0.950 . S
C1361 C1358 1.387 . S
C1362 C1363 1.387 . S
C1362 H1366 0.950 . S
C1362 C1371 1.390 . S
C1363 C1362 1.387 . S
C1363 C1365 1.387 . S
H1364 C1371 0.950 . S
C1365 C1363 1.387 . S
C1365 C1367 1.390 . S
C1365 H1369 0.950 . S
H1366 C1362 0.950 . S
C1367 C1365 1.390 . S
C1367 C1368 1.387 . S
C1367 H1370 0.950 . S
C1368 C1367 1.387 . S
C1368 C1371 1.387 . S
H1369 C1365 0.950 . S
H1370 C1367 0.950 . S
C1371 C1362 1.390 . S
C1371 H1364 0.950 . S
C1371 C1368 1.387 . S
C1372 C1373 1.387 . S
C1372 H1376 0.950 . S
C1372 C1381 1.390 . S
C1373 C1372 1.387 . S
C1373 C1375 1.387 . S
H1374 C1381 0.950 . S
C1375 C1373 1.387 . S
C1375 C1377 1.390 . S
C1375 H1379 0.950 . S
H1376 C1372 0.950 . S
C1377 C1375 1.390 . S
C1377 C1378 1.387 . S
C1377 H1380 0.950 . S
C1378 C1377 1.387 . S
C1378 C1381 1.387 . S
H1379 C1375 0.950 . S
H1380 C1377 0.950 . S
C1381 C1372 1.390 . S
C1381 H1374 0.950 . S
C1381 C1378 1.387 . S
C1382 C1383 1.387 . S
C1382 H1386 0.950 . S
C1382 C1391 1.390 . S
C1383 C1382 1.387 . S
C1383 C1385 1.387 . S
H1384 C1391 0.950 . S
C1385 C1383 1.387 . S
C1385 C1387 1.390 . S
C1385 H1389 0.950 . S
H1386 C1382 0.950 . S
C1387 C1385 1.390 . S
C1387 C1388 1.387 . S
C1387 H1390 0.950 . S
C1388 C1387 1.387 . S
C1388 C1391 1.387 . S
H1389 C1385 0.950 . S
H1390 C1387 0.950 . S
C1391 C1382 1.390 . S
C1391 H1384 0.950 . S
C1391 C1388 1.387 . S
C1392 C1393 1.387 . S
C1392 H1396 0.950 . S
C1392 C1401 1.390 . S
C1393 C1392 1.387 . S
C1393 C1395 1.387 . S
H1394 C1401 0.950 . S
C1395 C1393 1.387 . S
C1395 C1397 1.390 . S
C1395 H1399 0.950 . S
H1396 C1392 0.950 . S
C1397 C1395 1.390 . S
C1397 C1398 1.387 . S
C1397 H1400 0.950 . S
C1398 C1397 1.387 . S
C1398 C1401 1.387 . S
H1399 C1395 0.950 . S
H1400 C1397 0.950 . S
C1401 C1392 1.390 . S
C1401 H1394 0.950 . S
C1401 C1398 1.387 . S
C1402 C1403 1.387 . S
C1402 H1406 0.950 . S
C1402 C1411 1.390 . S
C1403 C1402 1.387 . S
C1403 C1405 1.387 . S
H1404 C1411 0.950 . S
C1405 C1403 1.387 . S
C1405 C1407 1.390 . S
C1405 H1409 0.950 . S
H1406 C1402 0.950 . S
C1407 C1405 1.390 . S
C1407 C1408 1.387 . S
C1407 H1410 0.950 . S
C1408 C1407 1.387 . S
C1408 C1411 1.387 . S
H1409 C1405 0.950 . S
H1410 C1407 0.950 . S
C1411 C1402 1.390 . S
C1411 H1404 0.950 . S
C1411 C1408 1.387 . S
C1412 C1413 1.387 . S
C1412 H1416 0.950 . S
C1412 C1421 1.390 . S
C1413 C1412 1.387 . S
C1413 C1415 1.387 . S
H1414 C1421 0.950 . S
C1415 C1413 1.387 . S
C1415 C1417 1.390 . S
C1415 H1419 0.950 . S
H1416 C1412 0.950 . S
C1417 C1415 1.390 . S
C1417 C1418 1.387 . S
C1417 H1420 0.950 . S
C1418 C1417 1.387 . S
C1418 C1421 1.387 . S
H1419 C1415 0.950 . S
H1420 C1417 0.950 . S
C1421 C1412 1.390 . S
C1421 H1414 0.950 . S
C1421 C1418 1.387 . S
C1422 C1423 1.387 . S
C1422 H1426 0.950 . S
C1422 C1431 1.390 . S
C1423 C1422 1.387 . S
C1423 C1425 1.387 . S
H1424 C1431 0.950 . S
C1425 C1423 1.387 . S
C1425 C1427 1.390 . S
C1425 H1429 0.950 . S
H1426 C1422 0.950 . S
C1427 C1425 1.390 . S
C1427 C1428 1.387 . S
C1427 H1430 0.950 . S
C1428 C1427 1.387 . S
C1428 C1431 1.387 . S
H1429 C1425 0.950 . S
H1430 C1427 0.950 . S
C1431 C1422 1.390 . S
C1431 H1424 0.950 . S
C1431 C1428 1.387 . S
C1432 C1433 1.387 . S
C1432 H1436 0.950 . S
C1432 C1441 1.390 . S
C1433 C1432 1.387 . S
C1433 C1435 1.387 . S
H1434 C1441 0.950 1_556 S
C1435 C1433 1.387 . S
C1435 C1437 1.390 . S
C1435 H1439 0.950 . S
H1436 C1432 0.950 . S
C1437 C1435 1.390 . S
C1437 C1438 1.387 . S
C1437 H1440 0.950 . S
C1438 C1437 1.387 . S
C1438 C1441 1.387 . S
H1439 C1435 0.950 . S
H1440 C1437 0.950 . S
C1441 C1432 1.390 . S
C1441 H1434 0.950 1_554 S
C1441 C1438 1.387 . S
C1442 C1443 1.387 . S
C1442 H1446 0.950 . S
C1442 C1451 1.390 . S
C1443 C1442 1.387 . S
C1443 C1445 1.387 . S
H1444 C1451 0.950 . S
C1445 C1443 1.387 . S
C1445 C1447 1.390 . S
C1445 H1449 0.950 . S
H1446 C1442 0.950 . S
C1447 C1445 1.390 . S
C1447 C1448 1.387 . S
C1447 H1450 0.950 . S
C1448 C1447 1.387 . S
C1448 C1451 1.387 . S
H1449 C1445 0.950 . S
H1450 C1447 0.950 . S
C1451 C1442 1.390 . S
C1451 H1444 0.950 . S
C1451 C1448 1.387 . S
C1218 C1153 1.962 . S
C1213 C1 1.379 . S
C1223 C169 2.049 . S
C1228 C713 2.087 . S
C1233 C283 2.027 . S
C1238 C801 2.065 . S
C1243 C397 1.912 . S
C1248 C880 1.938 . S
C1258 C977 1.824 . S
C1253 C457 1.267 . S
C1263 C571 1.261 . S
C1268 C1056 1.837 . S
C1273 C115 1.377 . S
C1278 C821 1.963 . S
C1283 C229 1.265 . S
C1288 C917 1.840 . S
C1293 C343 1.262 . S
C1298 C997 1.821 . S
C1308 C1093 1.940 . S
C1303 C511 1.908 . S
C1318 C1173 2.065 . S
C1313 C625 2.029 . S
C1328 C733 2.086 . S
C1323 C55 2.046 . S
C1333 C29 1.173 . S
C1338 C829 1.443 . S
C1343 C125 0.900 . S
C1348 C909 1.510 . S
C1358 C1005 1.447 . S
C1353 C239 0.872 . S
C1363 C353 0.888 . S
C1368 C1085 1.435 1_556 S
C1378 C1181 1.374 . S
C1373 C485 1.086 . S
C1388 C741 1.442 . S
C1383 C599 1.145 . S
C1398 C1144 1.443 . S
C1393 C143 1.169 . S
C1403 C257 1.151 . S
C1408 C704 1.442 . S
C1418 C792 1.375 . S
C1413 C371 1.084 . S
C1423 C467 0.883 . S
C1428 C889 1.434 . S
C1433 C581 0.867 . S
C1438 C968 1.446 1_554 S
C1443 C11 0.909 . S
C1448 C1065 1.511 . S
