# Generated by pormake.
# Topology pyr, (3,6)-cn, num edge types: 1
# Building blocks:
#     Node 0, Type 0, BuildingBlock: BETDAH_clean_linker_0, # of connection points: 3
#     Node 1, Type 0, BuildingBlock: BETDAH_clean_linker_0, # of connection points: 3
#     Node 2, Type 0, BuildingBlock: BETDAH_clean_linker_0, # of connection points: 3
#     Node 3, Type 0, BuildingBlock: BETDAH_clean_linker_0, # of connection points: 3
#     Node 4, Type 0, BuildingBlock: BETDAH_clean_linker_0, # of connection points: 3
#     Node 5, Type 0, BuildingBlock: BETDAH_clean_linker_0, # of connection points: 3
#     Node 6, Type 0, BuildingBlock: BETDAH_clean_linker_0, # of connection points: 3
#     Node 7, Type 0, BuildingBlock: BETDAH_clean_linker_0, # of connection points: 3
#     Node 8, Type 1, BuildingBlock: PAMTUU_clean_sbu_0, # of connection points: 6
#     Node 9, Type 1, BuildingBlock: PAMTUU_clean_sbu_0, # of connection points: 6
#     Node 10, Type 1, BuildingBlock: PAMTUU_clean_sbu_0, # of connection points: 6
#     Node 11, Type 1, BuildingBlock: PAMTUU_clean_sbu_0, # of connection points: 6
#     Edge 12, Type (0, 1), BuildingBlock: KIFKEQ_clean_linker_1, # of connection points: 2
#     Edge 13, Type (0, 1), BuildingBlock: KIFKEQ_clean_linker_1, # of connection points: 2
#     Edge 14, Type (0, 1), BuildingBlock: KIFKEQ_clean_linker_1, # of connection points: 2
#     Edge 15, Type (0, 1), BuildingBlock: KIFKEQ_clean_linker_1, # of connection points: 2
#     Edge 16, Type (0, 1), BuildingBlock: KIFKEQ_clean_linker_1, # of connection points: 2
#     Edge 17, Type (0, 1), BuildingBlock: KIFKEQ_clean_linker_1, # of connection points: 2
#     Edge 18, Type (0, 1), BuildingBlock: KIFKEQ_clean_linker_1, # of connection points: 2
#     Edge 19, Type (0, 1), BuildingBlock: KIFKEQ_clean_linker_1, # of connection points: 2
#     Edge 20, Type (0, 1), BuildingBlock: KIFKEQ_clean_linker_1, # of connection points: 2
#     Edge 21, Type (0, 1), BuildingBlock: KIFKEQ_clean_linker_1, # of connection points: 2
#     Edge 22, Type (0, 1), BuildingBlock: KIFKEQ_clean_linker_1, # of connection points: 2
#     Edge 23, Type (0, 1), BuildingBlock: KIFKEQ_clean_linker_1, # of connection points: 2
#     Edge 24, Type (0, 1), BuildingBlock: KIFKEQ_clean_linker_1, # of connection points: 2
#     Edge 25, Type (0, 1), BuildingBlock: KIFKEQ_clean_linker_1, # of connection points: 2
#     Edge 26, Type (0, 1), BuildingBlock: KIFKEQ_clean_linker_1, # of connection points: 2
#     Edge 27, Type (0, 1), BuildingBlock: KIFKEQ_clean_linker_1, # of connection points: 2
#     Edge 28, Type (0, 1), BuildingBlock: KIFKEQ_clean_linker_1, # of connection points: 2
#     Edge 29, Type (0, 1), BuildingBlock: KIFKEQ_clean_linker_1, # of connection points: 2
#     Edge 30, Type (0, 1), BuildingBlock: KIFKEQ_clean_linker_1, # of connection points: 2
#     Edge 31, Type (0, 1), BuildingBlock: KIFKEQ_clean_linker_1, # of connection points: 2
#     Edge 32, Type (0, 1), BuildingBlock: KIFKEQ_clean_linker_1, # of connection points: 2
#     Edge 33, Type (0, 1), BuildingBlock: KIFKEQ_clean_linker_1, # of connection points: 2
#     Edge 34, Type (0, 1), BuildingBlock: KIFKEQ_clean_linker_1, # of connection points: 2
#     Edge 35, Type (0, 1), BuildingBlock: KIFKEQ_clean_linker_1, # of connection points: 2
# Relax obj value: 0.131
# Max RMSD: 0.173
# Mean RMSD: 0.133
data_MOF--net-pyr--node1-PAMTUU_clean_sbu_0--node2-BETDAH_clean_linker_0--edge1-KIFKEQ_clean_linker_1
_symmetry_space_group_name_H-M    P1
_symmetry_Int_Tables_number       1
_symmetry_cell_setting            triclinic
loop_
_symmetry_equiv_pos_as_xyz
'x, y, z'
_cell_length_a     38.031869
_cell_length_b     40.223073
_cell_length_c     38.725971
_cell_angle_alpha  90.419778
_cell_angle_beta   90.097567
_cell_angle_gamma 107.10198
loop_
_atom_site_label
_atom_site_type_symbol
_atom_site_fract_x
_atom_site_fract_y
_atom_site_fract_z
_atom_type_partial_charge
H0 H 0.37415 0.24591 0.2726 0.0
H1 H 0.41675 0.31483 0.18783 0.0
H2 H 0.34248 0.33902 0.26069 0.0
C3 C 0.37625 0.2696 0.25851 0.0
C4 C 0.35621 0.29167 0.26996 0.0
C5 C 0.39828 0.27751 0.22886 0.0
C6 C 0.40079 0.30863 0.21132 0.0
C7 C 0.38036 0.33061 0.22228 0.0
C8 C 0.35843 0.32227 0.252 0.0
N9 N 0.38064 0.35982 0.20188 0.0
C10 C 0.34979 0.37138 0.19857 0.0
H11 H 0.25927 0.78958 0.76958 0.0
H12 H 0.16729 0.82992 0.75739 0.0
H13 H 0.18788 0.75926 0.68136 0.0
C14 C 0.23472 0.79005 0.75552 0.0
C15 C 0.22597 0.77162 0.72429 0.0
C16 C 0.2138 0.81117 0.76753 0.0
C17 C 0.18338 0.81347 0.7482 0.0
C18 C 0.17361 0.79427 0.7173 0.0
C19 C 0.19494 0.77338 0.70556 0.0
N20 N 0.14302 0.79605 0.69715 0.0
C21 C 0.12902 0.82428 0.69838 0.0
H22 H 0.72446 0.36637 0.95816 0.0
H23 H 0.72154 0.44362 0.8819 0.0
H24 H 0.63273 0.34845 0.88893 0.0
C25 C 0.71116 0.37483 0.93657 0.0
C26 C 0.67692 0.35332 0.92524 0.0
C27 C 0.7279 0.40747 0.92136 0.0
C28 C 0.70922 0.41875 0.894 0.0
C29 C 0.67468 0.39715 0.88222 0.0
C30 C 0.65905 0.36493 0.89821 0.0
N31 N 0.65384 0.40563 0.85463 0.0
C32 C 0.66167 0.43432 0.83264 0.0
H33 H 0.84892 0.75647 0.46709 0.0
H34 H 0.91651 0.78502 0.37696 0.0
H35 H 0.83111 0.68767 0.37858 0.0
C36 C 0.85725 0.74984 0.44185 0.0
C37 C 0.83698 0.71846 0.42574 0.0
C38 C 0.88623 0.7741 0.42484 0.0
C39 C 0.89505 0.76632 0.391 0.0
C40 C 0.87597 0.73492 0.37448 0.0
C41 C 0.84691 0.71106 0.39193 0.0
N42 N 0.88115 0.73176 0.33829 0.0
C43 C 0.89322 0.70625 0.32143 0.0
H44 H 0.77342 0.80201 0.88487 0.0
H45 H 0.68536 0.75112 0.95327 0.0
H46 H 0.67529 0.83407 0.88785 0.0
C47 C 0.74604 0.79888 0.89493 0.0
C48 C 0.72592 0.82072 0.88328 0.0
C49 C 0.73171 0.77374 0.9201 0.0
C50 C 0.69652 0.77019 0.93346 0.0
C51 C 0.67606 0.79193 0.92209 0.0
C52 C 0.69079 0.81706 0.89672 0.0
N53 N 0.64134 0.78879 0.9373 0.0
C54 C 0.62749 0.81699 0.94057 0.0
H55 H 0.88558 0.25376 0.36983 0.0
H56 H 0.92306 0.31928 0.45887 0.0
H57 H 0.85086 0.34533 0.38559 0.0
C58 C 0.88659 0.27698 0.38464 0.0
C59 C 0.86614 0.29891 0.37352 0.0
C60 C 0.90709 0.2838 0.41545 0.0
C61 C 0.90812 0.31386 0.43462 0.0
C62 C 0.88743 0.33564 0.42429 0.0
C63 C 0.86657 0.32821 0.39369 0.0
N64 N 0.88659 0.36391 0.44599 0.0
C65 C 0.85484 0.37384 0.45018 0.0
H66 H 0.33843 0.75341 0.19687 0.0
H67 H 0.34735 0.67478 0.2689 0.0
H68 H 0.43598 0.76971 0.25862 0.0
C69 C 0.35385 0.74449 0.21648 0.0
C70 C 0.38895 0.7658 0.22595 0.0
C71 C 0.33836 0.71171 0.23174 0.0
C72 C 0.35871 0.70007 0.25727 0.0
C73 C 0.394 0.72137 0.26729 0.0
C74 C 0.4086 0.75386 0.25139 0.0
N75 N 0.4172 0.71113 0.29151 0.0
C76 C 0.40816 0.68554 0.31698 0.0
H77 H 0.22672 0.37224 0.70209 0.0
H78 H 0.2169 0.46073 0.76053 0.0
H79 H 0.12584 0.36754 0.75455 0.0
C80 C 0.21118 0.38385 0.71938 0.0
C81 C 0.17481 0.36503 0.72766 0.0
C82 C 0.22678 0.41842 0.73085 0.0
C83 C 0.20574 0.4339 0.75222 0.0
C84 C 0.16948 0.41525 0.76135 0.0
C85 C 0.15419 0.38123 0.74849 0.0
N86 N 0.14565 0.43203 0.77764 0.0
C87 C 0.14964 0.44634 0.81096 0.0
Tb88 Tb 0.06943 0.07555 0.55333 0.0
Tb89 Tb 0.99448 0.063 0.60002 0.0
C90 C 1.00068 1.0078 0.54474 0.0
C91 C 0.15102 0.11699 0.49948 0.0
C92 C 0.19705 0.17221 0.4617 0.0
C93 C 0.20883 0.14332 0.47049 0.0
C94 C 0.18589 0.11587 0.48915 0.0
C95 C 0.13983 0.14652 0.49229 0.0
C96 C 0.16262 0.17387 0.47335 0.0
C97 C 0.12585 0.08648 0.51592 0.0
O98 O 0.04428 0.1148 0.53742 0.0
O99 O 0.98521 0.08421 0.55054 0.0
O100 O 0.0274 0.11658 0.60974 0.0
O101 O 0.08476 0.11318 0.59576 0.0
O102 O 0.93682 0.04732 0.60238 0.0
O103 O 0.96982 0.07121 0.64645 0.0
O104 O 0.02936 0.03945 0.63003 0.0
O105 O 0.07011 0.03381 0.58783 0.0
O106 O 0.02699 0.03212 0.52955 0.0
O107 O 0.98849 1.01279 0.57551 0.0
C108 C 1.00881 0.10958 0.53421 0.0
O109 O 0.12681 0.08575 0.54953 0.0
O110 O 0.09225 0.07707 0.50404 0.0
C111 C 0.0634 0.12908 0.61123 0.0
C112 C 0.91168 0.03223 0.65773 0.0
C113 C 0.86438 0.98722 0.70424 0.0
C114 C 0.86461 0.02211 0.70176 0.0
C115 C 0.88806 0.04439 0.67865 0.0
C116 C 0.9114 0.99735 0.65971 0.0
C117 C 0.88775 0.97492 0.68277 0.0
C118 C 0.9367 0.05674 0.63464 0.0
C119 C 0.05548 0.02684 0.6186 0.0
H120 H 0.23503 0.14115 0.46149 0.0
H121 H 0.19492 0.09326 0.49456 0.0
H122 H 0.11304 0.14793 0.50037 0.0
H123 H 0.15301 0.19594 0.46714 0.0
H124 H 0.84664 0.03219 0.71771 0.0
H125 H 0.88796 0.07127 0.67732 0.0
H126 H 0.92968 0.98765 0.64376 0.0
H127 H 0.88838 0.94823 0.68442 0.0
Tb128 Tb 0.56642 0.06763 0.1003 0.0
Tb129 Tb 0.49253 0.05338 0.05111 0.0
C130 C 0.55452 0.01746 1.03531 0.0
C131 C 0.64626 0.11183 0.15626 0.0
C132 C 0.69324 0.16863 0.19251 0.0
C133 C 0.70744 0.14409 0.17608 0.0
C134 C 0.68408 0.11583 0.15822 0.0
C135 C 0.63223 0.13715 0.17135 0.0
C136 C 0.65551 0.1652 0.18953 0.0
C137 C 0.62177 0.08052 0.13961 0.0
O138 O 0.58245 0.10442 0.05789 0.0
O139 O 0.52542 0.10672 0.0407 0.0
O140 O 0.48205 0.076 0.09965 0.0
O141 O 0.54062 0.10716 0.11435 0.0
O142 O 0.46812 0.05765 1.00341 0.0
O143 O 0.43481 0.0386 0.04833 0.0
O144 O 0.48621 1.00391 0.07656 0.0
O145 O 0.5241 0.02413 0.12323 0.0
O146 O 0.56855 0.0253 0.06639 0.0
O147 O 0.5286 0.02969 1.02288 0.0
C148 C 0.56145 0.11964 0.04103 0.0
O149 O 0.58784 0.07062 0.1504 0.0
O150 O 0.62379 0.07862 0.10609 0.0
C151 C 0.50507 0.10203 0.11607 0.0
C152 C 0.40945 0.01698 0.99422 0.0
C153 C 0.35917 0.96772 0.95217 0.0
C154 C 0.34662 0.98749 0.97671 0.0
C155 C 0.37156 1.01195 0.99743 0.0
C156 C 0.42219 0.99674 0.97041 0.0
C157 C 0.39726 0.97242 0.94948 0.0
C158 C 0.4349 0.04421 1.01525 0.0
C159 C 0.49804 0.99954 0.10764 0.0
H160 H 0.73636 0.14595 0.17825 0.0
H161 H 0.6954 0.09663 0.14665 0.0
H162 H 0.60317 0.13486 0.16981 0.0
H163 H 0.64396 0.18392 0.20173 0.0
H164 H 0.3175 0.98412 0.97991 0.0
H165 H 0.36123 0.02723 1.0158 0.0
H166 H 0.45136 1.00008 0.96758 0.0
H167 H 0.40794 0.95795 0.93059 0.0
Tb168 Tb 0.53001 0.52735 0.55748 0.0
Tb169 Tb 0.53592 0.60008 0.59854 0.0
C170 C 0.49591 0.58258 0.52564 0.0
C171 C 0.56251 0.45999 0.51719 0.0
C172 C 0.62366 0.43686 0.50114 0.0
C173 C 0.58856 0.41916 0.48797 0.0
C174 C 0.55813 0.43063 0.49604 0.0
C175 C 0.59752 0.47789 0.53003 0.0
C176 C 0.62777 0.46641 0.52216 0.0
C177 C 0.53111 0.47268 0.52566 0.0
O178 O 0.57652 0.56674 0.5353 0.0
O179 O 0.59158 0.60696 0.57931 0.0
O180 O 0.5537 0.56765 0.63578 0.0
O181 O 0.5705 0.53046 0.59864 0.0
O182 O 0.54559 0.65433 0.59788 0.0
O183 O 0.53032 0.62547 0.64481 0.0
O184 O 0.47875 0.56858 0.60354 0.0
O185 O 0.48517 0.51428 0.59474 0.0
O186 O 0.49133 0.54919 0.53042 0.0
O187 O 0.51742 0.60615 0.54614 0.0
C188 C 0.59981 0.59379 0.55026 0.0
O189 O 0.52406 0.47377 0.55848 0.0
O190 O 0.53093 0.50135 0.51038 0.0
C191 C 0.57045 0.54389 0.62973 0.0
C192 C 0.50343 0.66957 0.63442 0.0
C193 C 0.44167 0.69247 0.64892 0.0
C194 C 0.47623 0.7094 0.66377 0.0
C195 C 0.50683 0.69791 0.65668 0.0
C196 C 0.4694 0.65331 0.61868 0.0
C197 C 0.43879 0.66455 0.62593 0.0
C198 C 0.53426 0.65503 0.62952 0.0
C199 C 0.46655 0.53464 0.60681 0.0
H200 H 0.58456 0.39622 0.47185 0.0
H201 H 0.53128 0.41664 0.48583 0.0
H202 H 0.60147 0.50088 0.54608 0.0
H203 H 0.65452 0.48096 0.53219 0.0
H204 H 0.47959 0.73134 0.68115 0.0
H205 H 0.53292 0.71071 0.66906 0.0
H206 H 0.46625 0.63128 0.60146 0.0
H207 H 0.41262 0.65055 0.61438 0.0
Tb208 Tb 0.03366 0.59973 0.05902 0.0
Tb209 Tb 0.02655 0.52789 0.1009 0.0
C210 C 0.06739 0.54331 1.02825 0.0
C211 C 1.00048 0.66532 1.01804 0.0
C212 C 0.93806 0.68527 0.99946 0.0
C213 C 0.97352 0.70892 0.9967 0.0
C214 C 1.00459 0.69893 1.00583 0.0
C215 C 0.96511 0.6419 1.02128 0.0
C216 C 0.93421 0.65168 1.01188 0.0
C217 C 0.03255 0.65437 1.02817 0.0
O218 O 0.98772 0.56035 1.03531 0.0
O219 O 0.97153 0.52081 0.07922 0.0
O220 O 1.0106 0.56265 0.13736 0.0
O221 O 0.99164 0.59606 0.09837 0.0
O222 O 0.01388 0.47337 0.10184 0.0
O223 O 0.03253 0.50405 0.1477 0.0
O224 O 0.08425 0.55828 0.10578 0.0
O225 O 0.07873 0.61275 0.09656 0.0
O226 O 0.0713 0.57679 1.03181 0.0
O227 O 0.04699 0.52032 0.04961 0.0
C228 C 0.96409 0.53348 0.04969 0.0
O229 O 0.03752 0.65292 0.06134 0.0
O230 O 0.03551 0.62658 1.01245 0.0
C231 C 0.99305 0.58543 0.13018 0.0
C232 C 0.05602 0.45747 0.13779 0.0
C233 C 0.11656 0.4323 0.15056 0.0
C234 C 0.08448 0.42106 0.17067 0.0
C235 C 0.05444 0.43361 0.16433 0.0
C236 C 0.08768 0.46828 0.1173 0.0
C237 C 0.11762 0.45578 0.12357 0.0
C238 C 0.02636 0.47357 0.13323 0.0
C239 C 0.09711 0.59228 0.10876 0.0
H240 H 0.97724 0.73492 0.98702 0.0
H241 H 0.0317 0.71736 1.00337 0.0
H242 H 0.9614 0.61601 1.03121 0.0
H243 H 0.90723 0.63311 1.01475 0.0
H244 H 0.08271 0.40276 0.19144 0.0
H245 H 0.0303 0.42524 0.18055 0.0
H246 H 0.0896 0.4871 0.09698 0.0
H247 H 0.14206 0.46544 0.10797 0.0
H248 H 0.35977 0.32185 0.33378 0.0
H249 H 0.2955 0.23647 0.27098 0.0
H250 H 0.31952 0.29937 0.38338 0.0
H251 H 0.2551 0.21442 0.31989 0.0
H252 H 0.27116 0.20491 0.46344 0.0
H253 H 0.30824 0.24057 0.41798 0.0
H254 H 0.20952 0.23354 0.35958 0.0
H255 H 0.1725 0.19792 0.4048 0.0
C256 C 0.33666 0.29866 0.33059 0.0
C257 C 0.33048 0.28071 0.2989 0.0
C258 C 0.31383 0.2858 0.35879 0.0
C259 C 0.28419 0.25533 0.35528 0.0
C260 C 0.27746 0.23822 0.32313 0.0
C261 C 0.30057 0.25066 0.29528 0.0
C262 C 0.25741 0.21158 0.44117 0.0
C263 C 0.21902 0.1985 0.4375 0.0
C264 C 0.27855 0.23216 0.41536 0.0
C265 C 0.26164 0.23955 0.3853 0.0
C266 C 0.22314 0.22804 0.3825 0.0
C267 C 0.202 0.20786 0.40845 0.0
H268 H 0.23076 0.78993 0.83031 0.0
H269 H 0.22547 0.88098 0.77482 0.0
H270 H 0.26065 0.82655 0.87879 0.0
H271 H 0.25644 0.91788 0.82267 0.0
H272 H 0.29759 0.97623 0.92116 0.0
H273 H 0.25573 0.93683 0.88109 0.0
H274 H 0.32056 0.86508 0.8885 0.0
H275 H 0.36101 0.90342 0.9301 0.0
C276 C 0.23567 0.81781 0.82875 0.0
C277 C 0.22607 0.83272 0.79886 0.0
C278 C 0.25302 0.83881 0.85634 0.0
C279 C 0.26154 0.87522 0.85443 0.0
C280 C 0.25004 0.88994 0.82521 0.0
C281 C 0.23232 0.86885 0.79775 0.0
C282 C 0.30247 0.9517 0.91482 0.0
C283 C 0.33278 0.94305 0.9288 0.0
C284 C 0.27868 0.92929 0.89149 0.0
C285 C 0.28477 0.8978 0.88144 0.0
C286 C 0.31466 0.88887 0.89598 0.0
C287 C 0.33827 0.91114 0.91946 0.0
H288 H 0.6923 0.44226 0.76858 0.0
H289 H 0.61743 0.47577 0.83376 0.0
H290 H 0.67435 0.47169 0.71931 0.0
H291 H 0.59834 0.50418 0.78476 0.0
H292 H 0.58312 0.57047 0.69575 0.0
H293 H 0.61032 0.54883 0.74439 0.0
H294 H 0.62573 0.46617 0.6799 0.0
H295 H 0.59965 0.48869 0.63091 0.0
C296 C 0.67261 0.45666 0.77251 0.0
C297 C 0.65688 0.45739 0.80518 0.0
C298 C 0.66176 0.4731 0.7441 0.0
C299 C 0.63451 0.49039 0.74753 0.0
C300 C 0.61976 0.49184 0.78076 0.0
C301 C 0.63075 0.47555 0.80908 0.0
C302 C 0.59252 0.5478 0.69178 0.0
C303 C 0.58894 0.53139 0.65915 0.0
C304 C 0.60801 0.53514 0.71993 0.0
C305 C 0.62025 0.50539 0.71663 0.0
C306 C 0.61727 0.48937 0.68374 0.0
C307 C 0.60199 0.50221 0.65548 0.0
H308 H 0.93421 0.73322 0.26675 0.0
H309 H 0.88494 0.63605 0.31805 0.0
H310 H 0.95701 0.7028 0.2212 0.0
H311 H 0.90752 0.60503 0.27205 0.0
H312 H 0.98783 0.56861 0.19931 0.0
H313 H 0.96338 0.59623 0.24623 0.0
H314 H 0.93463 0.66428 0.17283 0.0
H315 H 0.95934 0.63704 0.12611 0.0
C316 C 0.9284 0.70522 0.26828 0.0
C317 C 0.90797 0.68701 0.29595 0.0
C318 C 0.94119 0.68768 0.24197 0.0
C319 C 0.93394 0.65126 0.24252 0.0
C320 C 0.9139 0.63305 0.27074 0.0
C321 C 0.90088 0.65075 0.2971 0.0
C322 C 0.97609 0.58932 0.19309 0.0
C323 C 0.97579 0.60056 0.15872 0.0
C324 C 0.96187 0.60511 0.2201 0.0
C325 C 0.94719 0.6328 0.2136 0.0
C326 C 0.94624 0.64349 0.1791 0.0
C327 C 0.96023 0.62762 0.15214 0.0
H328 H 0.36968 0.2068 0.22655 0.0
H329 H 0.46642 0.28988 0.19883 0.0
H330 H 0.39716 0.16445 0.20282 0.0
H331 H 0.49313 0.24728 0.17299 0.0
H332 H 0.5431 0.15753 0.15618 0.0
H333 H 0.5187 0.19994 0.18553 0.0
H334 H 0.40996 0.14611 0.14699 0.0
H335 H 0.43394 0.10343 0.11873 0.0
C336 C 0.397 0.21608 0.21565 0.0
C337 C 0.41592 0.25183 0.21482 0.0
C338 C 0.41254 0.19174 0.20152 0.0
C339 C 0.44722 0.20244 0.18572 0.0
C340 C 0.46648 0.23813 0.18523 0.0
C341 C 0.45098 0.26258 0.19965 0.0
C342 C 0.51394 0.15463 0.15425 0.0
C343 C 0.49045 0.12698 0.13525 0.0
C344 C 0.50001 0.17908 0.17085 0.0
C345 C 0.46236 0.1764 0.16869 0.0
C346 C 0.43897 0.14864 0.14978 0.0
C347 C 0.4528 0.12419 0.13339 0.0
H348 H 0.17027 0.89011 0.70949 0.0
H349 H 0.06081 0.82696 0.6828 0.0
H350 H 0.15234 0.94287 0.69864 0.0
H351 H 0.04267 0.87955 0.67157 0.0
H352 H 0.01626 0.98244 0.6678 0.0
H353 H 0.03348 0.93475 0.69548 0.0
H354 H 0.13821 0.96619 0.64324 0.0
H355 H 0.12122 1.01345 0.61594 0.0
C356 C 0.14218 0.88771 0.70189 0.0
C357 C 0.11683 0.85489 0.69678 0.0
C358 C 0.13194 0.91776 0.69559 0.0
C359 C 0.09615 0.91535 0.68405 0.0
C360 C 0.07029 0.88228 0.68079 0.0
C361 C 0.08064 0.85223 0.68699 0.0
C362 C 0.04325 0.97953 0.66292 0.0
C363 C 0.06732 1.0015 0.63958 0.0
C364 C 0.05298 0.95214 0.67854 0.0
C365 C 0.08716 0.94669 0.67148 0.0
C366 C 0.11187 0.96988 0.64956 0.0
C367 C 0.102 0.99684 0.63369 0.0
H368 H 0.75227 0.47808 0.93624 0.0
H369 H 0.78692 0.38512 0.93862 0.0
H370 H 0.80879 0.50989 0.96715 0.0
H371 H 0.84248 0.41645 0.96981 0.0
H372 H 0.91385 0.46959 0.06134 0.0
H373 H 0.85787 0.44134 1.02858 0.0
H374 H 0.87778 0.53117 0.96295 0.0
H375 H 0.93376 0.55939 0.99555 0.0
C376 C 0.7721 0.46455 0.94282 0.0
C377 C 0.76459 0.42883 0.93528 0.0
C378 C 0.80444 0.48273 0.96074 0.0
C379 C 0.82993 0.46557 0.97173 0.0
C380 C 0.82312 0.43034 0.9627 0.0
C381 C 0.79119 0.41238 0.94463 0.0
C382 C 0.90624 0.48345 0.04009 0.0
C383 C 0.92861 0.51679 1.03116 0.0
C384 C 0.8742 0.46714 1.02109 0.0
C385 C 0.8633 0.48382 0.99285 0.0
C386 C 0.88511 0.51755 0.98455 0.0
C387 C 0.91739 0.53368 1.00325 0.0
H388 H 0.82873 0.70103 0.49443 0.0
H389 H 0.76912 0.68449 0.39778 0.0
H390 H 0.77264 0.67007 0.52474 0.0
H391 H 0.71305 0.65325 0.42809 0.0
H392 H 0.6251 0.57384 0.48963 0.0
H393 H 0.68265 0.60101 0.45999 0.0
H394 H 0.71395 0.67836 0.54114 0.0
H395 H 0.65634 0.6509 0.57115 0.0
C396 C 0.8037 0.6907 0.47955 0.0
C397 C 0.80364 0.69555 0.44354 0.0
C398 C 0.77142 0.673 0.49702 0.0
C399 C 0.73804 0.65937 0.47904 0.0
C400 C 0.73822 0.66308 0.44286 0.0
C401 C 0.77053 0.68093 0.42538 0.0
C402 C 0.6442 0.59662 0.50133 0.0
C403 C 0.63578 0.61016 0.53289 0.0
C404 C 0.67725 0.61234 0.48412 0.0
C405 C 0.7031 0.64203 0.49796 0.0
C406 C 0.69497 0.65532 0.52979 0.0
C407 C 0.66176 0.63965 0.54698 0.0
H408 H 0.33819 0.41496 0.15059 0.0
H409 H 0.28668 0.34848 0.23439 0.0
H410 H 0.28071 0.42889 0.13948 0.0
H411 H 0.22893 0.36191 0.22325 0.0
H412 H 0.14542 0.42526 0.21399 0.0
H413 H 0.20187 0.41043 0.22655 0.0
H414 H 0.2189 0.39922 0.11735 0.0
H415 H 0.16242 0.41384 0.10478 0.0
C416 C 0.3145 0.40355 0.16669 0.0
C417 C 0.31657 0.38097 0.19341 0.0
C418 C 0.28157 0.41122 0.16022 0.0
C419 C 0.25021 0.39636 0.18039 0.0
C420 C 0.25268 0.37403 0.20749 0.0
C421 C 0.28562 0.36631 0.21386 0.0
C422 C 0.16091 0.4191 0.19269 0.0
C423 C 0.14949 0.42088 0.15837 0.0
C424 C 0.19331 0.4107 0.19989 0.0
C425 C 0.21503 0.40396 0.17293 0.0
C426 C 0.20317 0.40497 0.13867 0.0
C427 C 0.17077 0.41329 0.13148 0.0
H428 H 0.71009 0.30356 0.94221 0.0
H429 H 0.6053 0.32461 0.9456 0.0
H430 H 0.68269 0.2472 0.96885 0.0
H431 H 0.57793 0.26876 0.97328 0.0
H432 H 0.52982 0.15326 0.99434 0.0
H433 H 0.55754 0.20845 0.96579 0.0
H434 H 0.65967 0.2185 1.01993 0.0
H435 H 0.63226 0.16259 0.04734 0.0
C436 C 0.68122 0.29628 0.94898 0.0
C437 C 0.65994 0.31871 0.94169 0.0
C438 C 0.66543 0.26389 0.96445 0.0
C439 C 0.62789 0.25301 0.97348 0.0
C440 C 0.60668 0.27561 0.96623 0.0
C441 C 0.62242 0.30785 0.95041 0.0
C442 C 0.55825 0.16717 1.00009 0.0
C443 C 0.57874 0.15327 1.02317 0.0
C444 C 0.57417 0.19912 0.98384 0.0
C445 C 0.61102 0.21844 0.99044 0.0
C446 C 0.63148 0.20439 1.01355 0.0
C447 C 0.61565 0.17225 1.02951 0.0
H448 H 0.90748 0.787 0.49274 0.0
H449 H 0.90815 0.83927 0.39566 0.0
H450 H 0.93542 0.84287 0.52113 0.0
H451 H 0.93616 0.89517 0.42404 0.0
H452 H 0.01727 0.98741 0.48032 0.0
H453 H 0.99142 0.93137 0.45142 0.0
H454 H 0.92105 0.89475 0.53909 0.0
H455 H 0.94731 0.95047 0.56823 0.0
C456 C 0.91346 0.81039 0.47741 0.0
C457 C 0.90539 0.80838 0.4418 0.0
C458 C 0.92947 0.84256 0.49375 0.0
C459 C 0.93799 0.8738 0.47504 0.0
C460 C 0.93051 0.87176 0.43932 0.0
C461 C 0.91444 0.83956 0.42296 0.0
C462 C 0.99627 0.96744 0.49349 0.0
C463 C 0.98448 0.97368 0.52672 0.0
C464 C 0.98127 0.93526 0.47677 0.0
C465 C 0.95408 0.90827 0.49281 0.0
C466 C 0.94228 0.91458 0.52603 0.0
C467 C 0.95722 0.94676 0.54271 0.0
H468 H 0.25631 0.77812 0.66011 0.0
H469 H 0.25451 0.72564 0.75715 0.0
H470 H 0.30708 0.75724 0.6406 0.0
H471 H 0.3045 0.70376 0.73744 0.0
H472 H 0.42341 0.71241 0.71248 0.0
H473 H 0.36875 0.72827 0.72852 0.0
H474 H 0.32834 0.70929 0.62365 0.0
H475 H 0.38424 0.69543 0.60709 0.0
C476 C 0.26611 0.76125 0.67684 0.0
C477 C 0.25167 0.7536 0.71017 0.0
C478 C 0.29525 0.7493 0.66572 0.0
C479 C 0.31031 0.72923 0.68765 0.0
C480 C 0.29425 0.71991 0.72022 0.0
C481 C 0.26541 0.73213 0.73143 0.0
C482 C 0.4032 0.71214 0.69267 0.0
C483 C 0.4084 0.70276 0.65844 0.0
C484 C 0.37145 0.72063 0.70202 0.0
C485 C 0.34385 0.71971 0.67747 0.0
C486 C 0.34908 0.71047 0.64319 0.0
C487 C 0.381 0.70217 0.63378 0.0
H488 H 0.79275 0.86889 0.88764 0.0
H489 H 0.69702 0.83357 0.82189 0.0
H490 H 0.82349 0.91061 0.8439 0.0
H491 H 0.72786 0.87564 0.77782 0.0
H492 H 0.8207 0.92023 0.69532 0.0
H493 H 0.78377 0.88184 0.73905 0.0
H494 H 0.81778 0.96432 0.815 0.0
H495 H 0.85502 1.00242 0.77159 0.0
C496 C 0.77824 0.87034 0.86386 0.0
C497 C 0.74267 0.84801 0.85793 0.0
C498 C 0.79569 0.89432 0.83895 0.0
C499 C 0.77805 0.89626 0.80747 0.0
C500 C 0.74212 0.87444 0.8018 0.0
C501 C 0.72442 0.85065 0.827 0.0
C502 C 0.8202 0.93008 0.72137 0.0
C503 C 0.84079 0.96423 0.73011 0.0
C504 C 0.7988 0.90829 0.74625 0.0
C505 C 0.79796 0.92017 0.78036 0.0
C506 C 0.8181 0.95447 0.78893 0.0
C507 C 0.83921 0.9763 0.76404 0.0
H508 H 0.88184 0.27207 0.31229 0.0
H509 H 0.79634 0.30386 0.36417 0.0
H510 H 0.83942 0.2468 0.26575 0.0
H511 H 0.75455 0.2808 0.3163 0.0
H512 H 0.67923 0.18566 0.25798 0.0
H513 H 0.72134 0.22437 0.29813 0.0
H514 H 0.80358 0.25244 0.21791 0.0
H515 H 0.76151 0.21243 0.17809 0.0
C516 C 0.85413 0.2742 0.31347 0.0
C517 C 0.84232 0.28936 0.34234 0.0
C518 C 0.82988 0.26015 0.28645 0.0
C519 C 0.79329 0.26133 0.28736 0.0
C520 C 0.78227 0.27873 0.31507 0.0
C521 C 0.80644 0.29243 0.34234 0.0
C522 C 0.70605 0.20064 0.24877 0.0
C523 C 0.71723 0.1959 0.21504 0.0
C524 C 0.73023 0.22302 0.27175 0.0
C525 C 0.76607 0.24149 0.26141 0.0
C526 C 0.77649 0.23811 0.227 0.0
C527 C 0.75241 0.21534 0.20413 0.0
H528 H 0.39434 0.69786 0.38361 0.0
H529 H 0.43088 0.62763 0.31823 0.0
H530 H 0.41084 0.67031 0.43485 0.0
H531 H 0.44809 0.6002 0.3693 0.0
H532 H 0.45746 0.54429 0.47061 0.0
H533 H 0.43041 0.56539 0.42095 0.0
H534 H 0.46651 0.66958 0.46323 0.0
H535 H 0.49285 0.64857 0.5127 0.0
C536 C 0.40506 0.67589 0.38026 0.0
C537 C 0.41074 0.66451 0.34696 0.0
C538 C 0.41506 0.66035 0.40964 0.0
C539 C 0.4313 0.6331 0.40652 0.0
C540 C 0.4354 0.62079 0.373 0.0
C541 C 0.42544 0.63644 0.34362 0.0
C542 C 0.45935 0.57165 0.46945 0.0
C543 C 0.47753 0.59461 0.49587 0.0
C544 C 0.44399 0.58384 0.44078 0.0
C545 C 0.44605 0.61932 0.43779 0.0
C546 C 0.46369 0.64205 0.46459 0.0
C547 C 0.47917 0.62994 0.49303 0.0
H548 H 0.18282 0.51081 0.83805 0.0
H549 H 0.10217 0.41299 0.85946 0.0
H550 H 0.16717 0.53509 0.89225 0.0
H551 H 0.08542 0.43704 0.91279 0.0
H552 H 0.07685 0.47883 1.01925 0.0
H553 H 0.10126 0.45604 0.96936 0.0
H554 H 0.121 0.55515 0.91868 0.0
H555 H 0.09766 0.57829 0.96933 0.0
C556 C 0.16209 0.49439 0.85467 0.0
C557 C 0.14408 0.45989 0.84491 0.0
C558 C 0.15271 0.50837 0.88557 0.0
C559 C 0.12485 0.48822 0.90732 0.0
C560 C 0.10745 0.4534 0.89744 0.0
C561 C 0.11696 0.4395 0.86672 0.0
C562 C 0.08662 0.49592 0.99759 0.0
C563 C 0.08499 0.53044 0.99844 0.0
C564 C 0.10048 0.48272 0.96869 0.0
C565 C 0.11288 0.50343 0.93939 0.0
C566 C 0.11218 0.53831 0.94066 0.0
C567 C 0.09857 0.55164 0.96978 0.0
H568 H 0.5587 0.82013 0.95303 0.0
H569 H 0.67155 0.88259 0.94233 0.0
H570 H 0.54138 0.87199 0.97026 0.0
H571 H 0.6545 0.9346 0.95919 0.0
H572 H 0.6173 0.9991 0.04403 0.0
H573 H 0.63474 0.95249 1.01523 0.0
H574 H 0.53704 0.93037 0.95164 0.0
H575 H 0.51926 0.97722 0.98079 0.0
C576 C 0.57956 0.84517 0.95377 0.0
C577 C 0.61633 0.84776 0.94658 0.0
C578 C 0.56971 0.87482 0.96342 0.0
C579 C 0.59663 0.90734 0.96624 0.0
C580 C 0.63324 0.90985 0.95761 0.0
C581 C 0.64299 0.88025 0.94786 0.0
C582 C 0.59967 0.9846 1.02365 0.0
C583 C 0.56679 0.99175 1.01483 0.0
C584 C 0.60984 0.95803 1.00695 0.0
C585 C 0.58725 0.93774 0.98118 0.0
C586 C 0.55485 0.94546 0.97159 0.0
C587 C 0.54483 0.9724 0.98811 0.0
H588 H 0.87913 0.21299 0.41426 0.0
H589 H 0.97392 0.29585 0.4482 0.0
H590 H 0.9055 0.17039 0.43888 0.0
H591 H 0.99944 0.25306 0.4747 0.0
H592 H 0.04866 0.16423 0.49512 0.0
H593 H 0.02571 0.20583 0.46336 0.0
H594 H 0.91503 0.15197 0.49572 0.0
H595 H 0.93766 0.11006 0.52653 0.0
C596 C 0.90584 0.22216 0.42663 0.0
C597 C 0.92447 0.25792 0.42911 0.0
C598 C 0.92071 0.19769 0.44123 0.0
C599 C 0.95442 0.20829 0.45905 0.0
C600 C 0.97354 0.24398 0.46091 0.0
C601 C 0.95872 0.26854 0.44608 0.0
C602 C 0.01938 0.16112 0.49518 0.0
C603 C 0.99498 0.13378 0.51334 0.0
C604 C 1.00629 0.1851 0.47717 0.0
C605 C 0.96854 0.18225 0.47698 0.0
C606 C 0.94419 0.15464 0.49481 0.0
C607 C 0.95722 0.13065 0.51267 0.0
H608 H 0.31744 0.64481 0.20578 0.0
H609 H 0.27553 0.73096 0.22903 0.0
H610 H 0.2595 0.61468 0.17646 0.0
H611 H 0.21744 0.70079 0.20104 0.0
H612 H 0.13665 0.66121 0.11381 0.0
H613 H 0.19349 0.68732 0.14534 0.0
H614 H 0.19526 0.58551 0.17854 0.0
H615 H 0.13879 0.55923 0.14584 0.0
C616 C 0.29547 0.65688 0.20541 0.0
C617 C 0.30115 0.69032 0.21964 0.0
C618 C 0.26218 0.63968 0.1885 0.0
C619 C 0.23365 0.65542 0.1856 0.0
C620 C 0.23889 0.6881 0.20162 0.0
C621 C 0.27213 0.70532 0.21813 0.0
C622 C 0.14913 0.64428 0.1277 0.0
C623 C 0.13285 0.60803 0.12719 0.0
C624 C 0.18176 0.65935 0.14619 0.0
C625 C 0.19913 0.63875 0.16513 0.0
C626 C 0.1831 0.60238 0.16419 0.0
C627 C 0.1505 0.58725 0.14546 0.0
H628 H 0.24741 0.4836 0.70232 0.0
H629 H 0.28952 0.39838 0.72825 0.0
H630 H 0.30493 0.51251 0.67285 0.0
H631 H 0.34736 0.42749 0.69979 0.0
H632 H 0.42808 0.46558 0.61248 0.0
H633 H 0.37155 0.43968 0.64404 0.0
H634 H 0.36869 0.54199 0.67608 0.0
H635 H 0.4247 0.56797 0.6434 0.0
C636 C 0.26931 0.47143 0.70244 0.0
C637 C 0.26376 0.43859 0.71755 0.0
C638 C 0.30239 0.48798 0.68545 0.0
C639 C 0.33095 0.47225 0.68331 0.0
C640 C 0.32584 0.44011 0.6999 0.0
C641 C 0.29273 0.42349 0.71657 0.0
C642 C 0.41538 0.48263 0.62612 0.0
C643 C 0.43114 0.51893 0.62527 0.0
C644 C 0.38297 0.46771 0.64461 0.0
C645 C 0.36539 0.48856 0.66314 0.0
C646 C 0.38101 0.52495 0.66197 0.0
C647 C 0.41334 0.53991 0.64325 0.0
H648 H 0.75016 0.76753 0.98721 0.0
H649 H 0.76741 0.73568 0.88352 0.0
H650 H 0.7978 0.7429 1.00853 0.0
H651 H 0.81493 0.71112 0.90468 0.0
H652 H 0.88012 0.64818 0.96 0.0
H653 H 0.82559 0.66469 0.94323 0.0
H654 H 0.86706 0.76161 0.99932 0.0
H655 H 0.92146 0.74495 1.01636 0.0
C656 C 0.76352 0.75447 0.96918 0.0
C657 C 0.75525 0.75343 0.93378 0.0
C658 C 0.79098 0.74075 0.98127 0.0
C659 C 0.81022 0.72539 0.95819 0.0
C660 C 0.80042 0.72264 0.92307 0.0
C661 C 0.77333 0.73672 0.91095 0.0
C662 C 0.8774 0.67288 0.96896 0.0
C663 C 0.90504 0.69536 0.98939 0.0
C664 C 0.84631 0.68235 0.95926 0.0
C665 C 0.84205 0.71433 0.97011 0.0
C666 C 0.86943 0.7366 0.99095 0.0
C667 C 0.90073 0.72729 1.00034 0.0
H668 H 0.42549 0.82859 0.25608 0.0
H669 H 0.38943 0.78106 0.15697 0.0
H670 H 0.45095 0.88477 0.22832 0.0
H671 H 0.41584 0.8368 0.12891 0.0
H672 H 0.43597 0.94703 0.08998 0.0
H673 H 0.40959 0.89175 0.11877 0.0
H674 H 0.49785 0.91903 0.19386 0.0
H675 H 0.52327 0.97494 0.1658 0.0
C676 C 0.42334 0.83006 0.22827 0.0
C677 C 0.40523 0.80022 0.20884 0.0
C678 C 0.43811 0.86237 0.21222 0.0
C679 C 0.43561 0.8658 0.17613 0.0
C680 C 0.41777 0.83573 0.15674 0.0
C681 C 0.40266 0.80355 0.17285 0.0
C682 C 0.44974 0.94131 0.1127 0.0
C683 C 0.4818 0.96566 0.1255 0.0
C684 C 0.4347 0.90931 0.12918 0.0
C685 C 0.45146 0.90039 0.15881 0.0
C686 C 0.48359 0.92487 0.17156 0.0
C687 C 0.4984 0.95703 0.15528 0.0
H688 H 0.10588 0.338 0.69934 0.0
H689 H 0.2056 0.31144 0.72116 0.0
H690 H 0.07958 0.28134 0.67202 0.0
H691 H 0.17914 0.25444 0.69435 0.0
H692 H 0.13577 0.16944 0.612 0.0
H693 H 0.1622 0.22555 0.64054 0.0
H694 H 0.05532 0.22106 0.68151 0.0
H695 H 0.02882 0.16562 0.65215 0.0
C696 C 0.12202 0.31985 0.69883 0.0
C697 C 0.1579 0.32943 0.71258 0.0
C698 C 0.1069 0.28721 0.6831 0.0
C699 C 0.12709 0.26297 0.68078 0.0
C700 C 0.16285 0.27244 0.69496 0.0
C701 C 0.17804 0.30518 0.71052 0.0
C702 C 0.11791 0.18037 0.62716 0.0
C703 C 0.08007 0.16286 0.6296 0.0
C704 C 0.13314 0.21259 0.64376 0.0
C705 C 0.11103 0.22821 0.66346 0.0
C706 C 0.07325 0.2104 0.66616 0.0
C707 C 0.05802 0.17833 0.64942 0.0
H708 H 0.82342 0.41224 0.41046 0.0
H709 H 0.8099 0.35215 0.50382 0.0
H710 H 0.76565 0.42572 0.42214 0.0
H711 H 0.75193 0.36486 0.51542 0.0
H712 H 0.67723 0.43126 0.54559 0.0
H713 H 0.73262 0.41517 0.53225 0.0
H714 H 0.6986 0.39841 0.42543 0.0
H715 H 0.64348 0.4156 0.43867 0.0
C716 C 0.80786 0.40189 0.43339 0.0
C717 C 0.82079 0.38153 0.45649 0.0
C718 C 0.77477 0.40931 0.43997 0.0
C719 C 0.75427 0.39643 0.46978 0.0
C720 C 0.76732 0.37559 0.49253 0.0
C721 C 0.80033 0.36821 0.4859 0.0
C722 C 0.68163 0.42425 0.51923 0.0
C723 C 0.65611 0.42488 0.49314 0.0
C724 C 0.71319 0.41469 0.51164 0.0
C725 C 0.72003 0.40553 0.47777 0.0
C726 C 0.69427 0.40567 0.45171 0.0
C727 C 0.66254 0.41514 0.45935 0.0
loop_
_geom_bond_atom_site_label_1
_geom_bond_atom_site_label_2
_geom_bond_distance
_geom_bond_site_symmetry_2
_ccdc_geom_bond_type
H0 C3 0.929 . S
H1 C6 0.929 . S
H2 C8 0.930 . S
C3 H0 0.929 . S
C3 C4 1.398 . S
C3 C5 1.396 . S
C4 C3 1.398 . S
C4 C8 1.407 . S
C5 C3 1.396 . S
C5 C6 1.394 . S
C6 H1 0.929 . S
C6 C5 1.394 . S
C6 C7 1.382 . S
C7 C6 1.382 . S
C7 C8 1.392 . S
C7 N9 1.420 . S
C8 H2 0.930 . S
C8 C4 1.407 . S
C8 C7 1.392 . S
N9 C7 1.420 . S
N9 C10 1.244 . S
C10 N9 1.244 . S
H11 C14 0.929 . S
H12 C17 0.929 . S
H13 C19 0.930 . S
C14 H11 0.929 . S
C14 C15 1.398 . S
C14 C16 1.396 . S
C15 C14 1.398 . S
C15 C19 1.407 . S
C16 C14 1.396 . S
C16 C17 1.394 . S
C17 H12 0.929 . S
C17 C16 1.394 . S
C17 C18 1.382 . S
C18 C17 1.382 . S
C18 C19 1.392 . S
C18 N20 1.420 . S
C19 H13 0.930 . S
C19 C15 1.407 . S
C19 C18 1.392 . S
N20 C18 1.420 . S
N20 C21 1.244 . S
C21 N20 1.244 . S
H22 C25 0.929 . S
H23 C28 0.929 . S
H24 C30 0.930 . S
C25 H22 0.929 . S
C25 C26 1.398 . S
C25 C27 1.396 . S
C26 C25 1.398 . S
C26 C30 1.407 . S
C27 C25 1.396 . S
C27 C28 1.394 . S
C28 H23 0.929 . S
C28 C27 1.394 . S
C28 C29 1.382 . S
C29 C28 1.382 . S
C29 C30 1.392 . S
C29 N31 1.420 . S
C30 H24 0.930 . S
C30 C26 1.407 . S
C30 C29 1.392 . S
N31 C29 1.420 . S
N31 C32 1.244 . S
C32 N31 1.244 . S
H33 C36 0.929 . S
H34 C39 0.929 . S
H35 C41 0.930 . S
C36 H33 0.929 . S
C36 C37 1.398 . S
C36 C38 1.396 . S
C37 C36 1.398 . S
C37 C41 1.407 . S
C38 C36 1.396 . S
C38 C39 1.394 . S
C39 H34 0.929 . S
C39 C38 1.394 . S
C39 C40 1.382 . S
C40 C39 1.382 . S
C40 C41 1.392 . S
C40 N42 1.420 . S
C41 H35 0.930 . S
C41 C37 1.407 . S
C41 C40 1.392 . S
N42 C40 1.420 . S
N42 C43 1.244 . S
C43 N42 1.244 . S
H44 C47 0.929 . S
H45 C50 0.929 . S
H46 C52 0.930 . S
C47 H44 0.929 . S
C47 C48 1.398 . S
C47 C49 1.396 . S
C48 C47 1.398 . S
C48 C52 1.407 . S
C49 C47 1.396 . S
C49 C50 1.394 . S
C50 H45 0.929 . S
C50 C49 1.394 . S
C50 C51 1.382 . S
C51 C50 1.382 . S
C51 C52 1.392 . S
C51 N53 1.420 . S
C52 H46 0.930 . S
C52 C48 1.407 . S
C52 C51 1.392 . S
N53 C51 1.420 . S
N53 C54 1.244 . S
C54 N53 1.244 . S
H55 C58 0.929 . S
H56 C61 0.929 . S
H57 C63 0.930 . S
C58 H55 0.929 . S
C58 C59 1.398 . S
C58 C60 1.396 . S
C59 C58 1.398 . S
C59 C63 1.407 . S
C60 C58 1.396 . S
C60 C61 1.394 . S
C61 H56 0.929 . S
C61 C60 1.394 . S
C61 C62 1.382 . S
C62 C61 1.382 . S
C62 C63 1.392 . S
C62 N64 1.420 . S
C63 H57 0.930 . S
C63 C59 1.407 . S
C63 C62 1.392 . S
N64 C62 1.420 . S
N64 C65 1.244 . S
C65 N64 1.244 . S
H66 C69 0.929 . S
H67 C72 0.929 . S
H68 C74 0.930 . S
C69 H66 0.929 . S
C69 C70 1.398 . S
C69 C71 1.396 . S
C70 C69 1.398 . S
C70 C74 1.407 . S
C71 C69 1.396 . S
C71 C72 1.394 . S
C72 H67 0.929 . S
C72 C71 1.394 . S
C72 C73 1.382 . S
C73 C72 1.382 . S
C73 C74 1.392 . S
C73 N75 1.420 . S
C74 H68 0.930 . S
C74 C70 1.407 . S
C74 C73 1.392 . S
N75 C73 1.420 . S
N75 C76 1.244 . S
C76 N75 1.244 . S
H77 C80 0.929 . S
H78 C83 0.929 . S
H79 C85 0.930 . S
C80 H77 0.929 . S
C80 C81 1.398 . S
C80 C82 1.396 . S
C81 C80 1.398 . S
C81 C85 1.407 . S
C82 C80 1.396 . S
C82 C83 1.394 . S
C83 H78 0.929 . S
C83 C82 1.394 . S
C83 C84 1.382 . S
C84 C83 1.382 . S
C84 C85 1.392 . S
C84 N86 1.420 . S
C85 H79 0.930 . S
C85 C81 1.407 . S
C85 C84 1.392 . S
N86 C84 1.420 . S
N86 C87 1.244 . S
C87 N86 1.244 . S
Tb88 C97 2.764 . S
Tb88 O98 2.325 . S
Tb88 O101 2.303 . S
Tb88 O105 2.322 1_545 S
Tb88 O106 2.349 1_545 S
Tb88 O109 2.415 . S
Tb88 O110 2.399 . S
Tb89 O99 2.322 . S
Tb89 O100 2.349 1_655 S
Tb89 O102 2.415 1_545 S
Tb89 O103 2.399 . S
Tb89 O104 2.325 1_655 S
Tb89 O107 2.303 1_545 S
Tb89 C118 2.764 1_545 S
C90 O106 1.261 1_655 S
C90 O107 1.257 . S
C91 C94 1.358 . S
C91 C95 1.332 . S
C91 C97 1.504 . S
C92 C93 1.373 . S
C92 C96 1.308 . S
C93 C92 1.373 . S
C93 C94 1.429 . S
C93 H120 0.932 . S
C94 C91 1.358 . S
C94 C93 1.429 . S
C94 H121 0.930 . S
C95 C91 1.332 . S
C95 C96 1.394 . S
C95 H122 0.932 . S
C96 C92 1.308 . S
C96 C95 1.394 . S
C96 H123 0.929 . S
C97 Tb88 2.764 . S
C97 C91 1.504 . S
C97 O109 1.239 . S
C97 O110 1.263 . S
O98 Tb88 2.325 . S
O98 C108 1.236 1_455 S
O99 Tb89 2.322 . S
O99 C108 1.257 . S
O100 Tb89 2.349 1_455 S
O100 C111 1.261 . S
O101 Tb88 2.303 . S
O101 C111 1.257 . S
O102 Tb89 2.415 1_565 S
O102 C118 1.239 . S
O103 Tb89 2.399 . S
O103 C118 1.263 1_545 S
O104 Tb89 2.325 1_455 S
O104 C119 1.236 1_545 S
O105 Tb88 2.322 1_565 S
O105 C119 1.257 . S
O106 Tb88 2.349 1_565 S
O106 C90 1.261 1_455 S
O107 Tb89 2.303 1_565 S
O107 C90 1.257 . S
C108 O98 1.236 1_655 S
C108 O99 1.257 . S
O109 Tb88 2.415 . S
O109 C97 1.239 . S
O110 Tb88 2.399 . S
O110 C97 1.263 . S
C111 O100 1.261 . S
C111 O101 1.257 . S
C112 C115 1.358 . S
C112 C116 1.332 . S
C112 C118 1.504 . S
C113 C114 1.373 . S
C113 C117 1.308 . S
C114 C113 1.373 . S
C114 C115 1.429 . S
C114 H124 0.932 . S
C115 C112 1.358 . S
C115 C114 1.429 . S
C115 H125 0.949 . S
C116 C112 1.332 . S
C116 C117 1.394 . S
C116 H126 0.932 . S
C117 C113 1.308 . S
C117 C116 1.394 . S
C117 H127 0.929 . S
C118 Tb89 2.764 1_565 S
C118 O102 1.239 . S
C118 O103 1.263 1_565 S
C118 C112 1.504 . S
C119 O104 1.236 1_565 S
C119 O105 1.257 . S
H120 C93 0.932 . S
H121 C94 0.930 . S
H122 C95 0.932 . S
H123 C96 0.929 . S
H124 C114 0.932 . S
H125 C115 0.949 . S
H126 C116 0.932 . S
H127 C117 0.929 . S
Tb128 C137 2.764 . S
Tb128 O138 2.325 . S
Tb128 O141 2.303 . S
Tb128 O145 2.322 1_545 S
Tb128 O146 2.349 . S
Tb128 O149 2.415 . S
Tb128 O150 2.399 . S
Tb129 O139 2.322 . S
Tb129 O140 2.349 . S
Tb129 O142 2.415 1_544 S
Tb129 O143 2.399 1_544 S
Tb129 O144 2.325 1_545 S
Tb129 O147 2.303 . S
Tb129 C158 2.764 1_544 S
C130 O146 1.261 1_565 S
C130 O147 1.257 1_565 S
C131 C134 1.358 . S
C131 C135 1.332 . S
C131 C137 1.504 . S
C132 C133 1.373 . S
C132 C136 1.308 . S
C133 C132 1.373 . S
C133 C134 1.429 . S
C133 H160 0.932 . S
C134 C131 1.358 . S
C134 C133 1.429 . S
C134 H161 0.930 . S
C135 C131 1.332 . S
C135 C136 1.394 . S
C135 H162 0.932 . S
C136 C132 1.308 . S
C136 C135 1.394 . S
C136 H163 0.929 . S
C137 Tb128 2.764 . S
C137 C131 1.504 . S
C137 O149 1.239 . S
C137 O150 1.263 . S
O138 Tb128 2.325 . S
O138 C148 1.236 . S
O139 Tb129 2.322 . S
O139 C148 1.257 . S
O140 Tb129 2.349 . S
O140 C151 1.261 . S
O141 Tb128 2.303 . S
O141 C151 1.257 . S
O142 Tb129 2.415 1_566 S
O142 C158 1.239 . S
O143 Tb129 2.399 1_566 S
O143 C158 1.263 . S
O144 Tb129 2.325 1_565 S
O144 C159 1.236 . S
O145 Tb128 2.322 1_565 S
O145 C159 1.257 . S
O146 Tb128 2.349 . S
O146 C130 1.261 1_545 S
O147 Tb129 2.303 . S
O147 C130 1.257 1_545 S
C148 O138 1.236 . S
C148 O139 1.257 . S
O149 Tb128 2.415 . S
O149 C137 1.239 . S
O150 Tb128 2.399 . S
O150 C137 1.263 . S
C151 O140 1.261 . S
C151 O141 1.257 . S
C152 C155 1.358 . S
C152 C156 1.332 . S
C152 C158 1.504 . S
C153 C154 1.373 . S
C153 C157 1.308 . S
C154 C153 1.373 . S
C154 C155 1.429 . S
C154 H164 0.932 . S
C155 C152 1.358 . S
C155 C154 1.429 . S
C155 H165 0.930 . S
C156 C152 1.332 . S
C156 C157 1.394 . S
C156 H166 0.932 . S
C157 C153 1.308 . S
C157 C156 1.394 . S
C157 H167 0.929 . S
C158 Tb129 2.764 1_566 S
C158 O142 1.239 . S
C158 O143 1.263 . S
C158 C152 1.504 . S
C159 O144 1.236 . S
C159 O145 1.257 . S
H160 C133 0.932 . S
H161 C134 0.930 . S
H162 C135 0.932 . S
H163 C136 0.929 . S
H164 C154 0.932 . S
H165 C155 0.930 . S
H166 C156 0.932 . S
H167 C157 0.929 . S
Tb168 C177 2.764 . S
Tb168 O178 2.325 . S
Tb168 O181 2.303 . S
Tb168 O185 2.322 . S
Tb168 O186 2.349 . S
Tb168 O189 2.415 . S
Tb168 O190 2.399 . S
Tb169 O179 2.322 . S
Tb169 O180 2.349 . S
Tb169 O182 2.415 . S
Tb169 O183 2.399 . S
Tb169 O184 2.325 . S
Tb169 O187 2.303 . S
Tb169 C198 2.764 . S
C170 O186 1.261 . S
C170 O187 1.257 . S
C171 C174 1.358 . S
C171 C175 1.332 . S
C171 C177 1.504 . S
C172 C173 1.373 . S
C172 C176 1.308 . S
C173 C172 1.373 . S
C173 C174 1.429 . S
C173 H200 0.932 . S
C174 C171 1.358 . S
C174 C173 1.429 . S
C174 H201 0.930 . S
C175 C171 1.332 . S
C175 C176 1.394 . S
C175 H202 0.932 . S
C176 C172 1.308 . S
C176 C175 1.394 . S
C176 H203 0.929 . S
C177 Tb168 2.764 . S
C177 C171 1.504 . S
C177 O189 1.239 . S
C177 O190 1.263 . S
O178 Tb168 2.325 . S
O178 C188 1.236 . S
O179 Tb169 2.322 . S
O179 C188 1.257 . S
O180 Tb169 2.349 . S
O180 C191 1.261 . S
O181 Tb168 2.303 . S
O181 C191 1.257 . S
O182 Tb169 2.415 . S
O182 C198 1.239 . S
O183 Tb169 2.399 . S
O183 C198 1.263 . S
O184 Tb169 2.325 . S
O184 C199 1.236 . S
O185 Tb168 2.322 . S
O185 C199 1.257 . S
O186 Tb168 2.349 . S
O186 C170 1.261 . S
O187 Tb169 2.303 . S
O187 C170 1.257 . S
C188 O178 1.236 . S
C188 O179 1.257 . S
O189 Tb168 2.415 . S
O189 C177 1.239 . S
O190 Tb168 2.399 . S
O190 C177 1.263 . S
C191 O180 1.261 . S
C191 O181 1.257 . S
C192 C195 1.358 . S
C192 C196 1.332 . S
C192 C198 1.504 . S
C193 C194 1.373 . S
C193 C197 1.308 . S
C194 C193 1.373 . S
C194 C195 1.429 . S
C194 H204 0.932 . S
C195 C192 1.358 . S
C195 C194 1.429 . S
C195 H205 0.930 . S
C196 C192 1.332 . S
C196 C197 1.394 . S
C196 H206 0.932 . S
C197 C193 1.308 . S
C197 C196 1.394 . S
C197 H207 0.929 . S
C198 Tb169 2.764 . S
C198 O182 1.239 . S
C198 O183 1.263 . S
C198 C192 1.504 . S
C199 O184 1.236 . S
C199 O185 1.257 . S
H200 C173 0.932 . S
H201 C174 0.930 . S
H202 C175 0.932 . S
H203 C176 0.929 . S
H204 C194 0.932 . S
H205 C195 0.930 . S
H206 C196 0.932 . S
H207 C197 0.929 . S
Tb208 C217 2.764 1_455 S
Tb208 O218 2.325 1_455 S
Tb208 O221 2.303 1_556 S
Tb208 O225 2.322 1_556 S
Tb208 O226 2.349 . S
Tb208 O229 2.415 1_455 S
Tb208 O230 2.399 . S
Tb209 O219 2.322 1_455 S
Tb209 O220 2.349 . S
Tb209 O222 2.415 . S
Tb209 O223 2.399 . S
Tb209 O224 2.325 . S
Tb209 O227 2.303 1_554 S
Tb209 C238 2.764 . S
C210 O226 1.261 . S
C210 O227 1.257 . S
C211 C214 1.358 . S
C211 C215 1.332 . S
C211 C217 1.504 . S
C212 C213 1.373 . S
C212 C216 1.308 . S
C213 C212 1.373 . S
C213 C214 1.429 . S
C213 H240 0.932 . S
C214 C211 1.358 . S
C214 C213 1.429 . S
C214 H241 0.930 . S
C215 C211 1.332 . S
C215 C216 1.394 . S
C215 H242 0.932 . S
C216 C212 1.308 . S
C216 C215 1.394 . S
C216 H243 0.929 . S
C217 Tb208 2.764 1_655 S
C217 C211 1.504 . S
C217 O229 1.239 . S
C217 O230 1.263 1_655 S
O218 Tb208 2.325 1_655 S
O218 C228 1.236 . S
O219 Tb209 2.322 1_655 S
O219 C228 1.257 1_554 S
O220 Tb209 2.349 . S
O220 C231 1.261 . S
O221 Tb208 2.303 1_554 S
O221 C231 1.257 . S
O222 Tb209 2.415 . S
O222 C238 1.239 . S
O223 Tb209 2.399 . S
O223 C238 1.263 . S
O224 Tb209 2.325 . S
O224 C239 1.236 . S
O225 Tb208 2.322 1_554 S
O225 C239 1.257 . S
O226 Tb208 2.349 . S
O226 C210 1.261 . S
O227 Tb209 2.303 1_556 S
O227 C210 1.257 . S
C228 O218 1.236 . S
C228 O219 1.257 1_556 S
O229 Tb208 2.415 1_655 S
O229 C217 1.239 . S
O230 Tb208 2.399 . S
O230 C217 1.263 1_455 S
C231 O220 1.261 . S
C231 O221 1.257 . S
C232 C235 1.358 . S
C232 C236 1.332 . S
C232 C238 1.504 . S
C233 C234 1.373 . S
C233 C237 1.308 . S
C234 C233 1.373 . S
C234 C235 1.429 . S
C234 H244 0.932 . S
C235 C232 1.358 . S
C235 C234 1.429 . S
C235 H245 0.930 . S
C236 C232 1.332 . S
C236 C237 1.394 . S
C236 H246 0.932 . S
C237 C233 1.308 . S
C237 C236 1.394 . S
C237 H247 0.929 . S
C238 Tb209 2.764 . S
C238 O222 1.239 . S
C238 O223 1.263 . S
C238 C232 1.504 . S
C239 O224 1.236 . S
C239 O225 1.257 . S
H240 C213 0.932 . S
H241 C214 0.930 . S
H242 C215 0.932 . S
H243 C216 0.929 . S
H244 C234 0.932 . S
H245 C235 0.930 . S
H246 C236 0.932 . S
H247 C237 0.929 . S
H248 C256 0.950 . S
H249 C261 0.950 . S
H250 C258 0.950 . S
H251 C260 0.950 . S
H252 C262 0.950 . S
H253 C264 0.950 . S
H254 C266 0.950 . S
H255 C267 0.950 . S
C256 H248 0.950 . S
C256 C257 1.386 . S
C256 C258 1.391 . S
C257 C256 1.386 . S
C257 C261 1.393 . S
C258 H250 0.950 . S
C258 C256 1.391 . S
C258 C259 1.400 . S
C259 C258 1.400 . S
C259 C260 1.398 . S
C259 C265 1.491 . S
C260 H251 0.950 . S
C260 C259 1.398 . S
C260 C261 1.391 . S
C261 H249 0.950 . S
C261 C257 1.393 . S
C261 C260 1.391 . S
C262 H252 0.950 . S
C262 C263 1.386 . S
C262 C264 1.391 . S
C263 C262 1.386 . S
C263 C267 1.393 . S
C264 H253 0.950 . S
C264 C262 1.391 . S
C264 C265 1.400 . S
C265 C259 1.491 . S
C265 C264 1.400 . S
C265 C266 1.398 . S
C266 H254 0.950 . S
C266 C265 1.398 . S
C266 C267 1.391 . S
C267 H255 0.950 . S
C267 C263 1.393 . S
C267 C266 1.391 . S
H268 C276 0.950 . S
H269 C281 0.950 . S
H270 C278 0.950 . S
H271 C280 0.950 . S
H272 C282 0.950 . S
H273 C284 0.950 . S
H274 C286 0.950 . S
H275 C287 0.950 . S
C276 H268 0.950 . S
C276 C277 1.386 . S
C276 C278 1.391 . S
C277 C276 1.386 . S
C277 C281 1.393 . S
C278 H270 0.950 . S
C278 C276 1.391 . S
C278 C279 1.400 . S
C279 C278 1.400 . S
C279 C280 1.398 . S
C279 C285 1.491 . S
C280 H271 0.950 . S
C280 C279 1.398 . S
C280 C281 1.391 . S
C281 H269 0.950 . S
C281 C277 1.393 . S
C281 C280 1.391 . S
C282 H272 0.950 . S
C282 C283 1.386 . S
C282 C284 1.391 . S
C283 C282 1.386 . S
C283 C287 1.393 . S
C284 H273 0.950 . S
C284 C282 1.391 . S
C284 C285 1.400 . S
C285 C279 1.491 . S
C285 C284 1.400 . S
C285 C286 1.398 . S
C286 H274 0.950 . S
C286 C285 1.398 . S
C286 C287 1.391 . S
C287 H275 0.950 . S
C287 C283 1.393 . S
C287 C286 1.391 . S
H288 C296 0.950 . S
H289 C301 0.950 . S
H290 C298 0.950 . S
H291 C300 0.950 . S
H292 C302 0.950 . S
H293 C304 0.950 . S
H294 C306 0.950 . S
H295 C307 0.950 . S
C296 H288 0.950 . S
C296 C297 1.386 . S
C296 C298 1.391 . S
C297 C296 1.386 . S
C297 C301 1.393 . S
C298 H290 0.950 . S
C298 C296 1.391 . S
C298 C299 1.400 . S
C299 C298 1.400 . S
C299 C300 1.398 . S
C299 C305 1.491 . S
C300 H291 0.950 . S
C300 C299 1.398 . S
C300 C301 1.391 . S
C301 H289 0.950 . S
C301 C297 1.393 . S
C301 C300 1.391 . S
C302 H292 0.950 . S
C302 C303 1.386 . S
C302 C304 1.391 . S
C303 C302 1.386 . S
C303 C307 1.393 . S
C304 H293 0.950 . S
C304 C302 1.391 . S
C304 C305 1.400 . S
C305 C299 1.491 . S
C305 C304 1.400 . S
C305 C306 1.398 . S
C306 H294 0.950 . S
C306 C305 1.398 . S
C306 C307 1.391 . S
C307 H295 0.950 . S
C307 C303 1.393 . S
C307 C306 1.391 . S
H308 C316 0.950 . S
H309 C321 0.950 . S
H310 C318 0.950 . S
H311 C320 0.950 . S
H312 C322 0.950 . S
H313 C324 0.950 . S
H314 C326 0.950 . S
H315 C327 0.950 . S
C316 H308 0.950 . S
C316 C317 1.386 . S
C316 C318 1.391 . S
C317 C316 1.386 . S
C317 C321 1.393 . S
C318 H310 0.950 . S
C318 C316 1.391 . S
C318 C319 1.400 . S
C319 C318 1.400 . S
C319 C320 1.398 . S
C319 C325 1.491 . S
C320 H311 0.950 . S
C320 C319 1.398 . S
C320 C321 1.391 . S
C321 H309 0.950 . S
C321 C317 1.393 . S
C321 C320 1.391 . S
C322 H312 0.950 . S
C322 C323 1.386 . S
C322 C324 1.391 . S
C323 C322 1.386 . S
C323 C327 1.393 . S
C324 H313 0.950 . S
C324 C322 1.391 . S
C324 C325 1.400 . S
C325 C319 1.491 . S
C325 C324 1.400 . S
C325 C326 1.398 . S
C326 H314 0.950 . S
C326 C325 1.398 . S
C326 C327 1.391 . S
C327 H315 0.950 . S
C327 C323 1.393 . S
C327 C326 1.391 . S
H328 C336 0.950 . S
H329 C341 0.950 . S
H330 C338 0.950 . S
H331 C340 0.950 . S
H332 C342 0.950 . S
H333 C344 0.950 . S
H334 C346 0.950 . S
H335 C347 0.950 . S
C336 H328 0.950 . S
C336 C337 1.386 . S
C336 C338 1.391 . S
C337 C336 1.386 . S
C337 C341 1.393 . S
C338 H330 0.950 . S
C338 C336 1.391 . S
C338 C339 1.400 . S
C339 C338 1.400 . S
C339 C340 1.398 . S
C339 C345 1.491 . S
C340 H331 0.950 . S
C340 C339 1.398 . S
C340 C341 1.391 . S
C341 H329 0.950 . S
C341 C337 1.393 . S
C341 C340 1.391 . S
C342 H332 0.950 . S
C342 C343 1.386 . S
C342 C344 1.391 . S
C343 C342 1.386 . S
C343 C347 1.393 . S
C344 H333 0.950 . S
C344 C342 1.391 . S
C344 C345 1.400 . S
C345 C339 1.491 . S
C345 C344 1.400 . S
C345 C346 1.398 . S
C346 H334 0.950 . S
C346 C345 1.398 . S
C346 C347 1.391 . S
C347 H335 0.950 . S
C347 C343 1.393 . S
C347 C346 1.391 . S
H348 C356 0.950 . S
H349 C361 0.950 . S
H350 C358 0.950 . S
H351 C360 0.950 . S
H352 C362 0.950 1_655 S
H353 C364 0.950 . S
H354 C366 0.950 . S
H355 C367 0.950 . S
C356 H348 0.950 . S
C356 C357 1.386 . S
C356 C358 1.391 . S
C357 C356 1.386 . S
C357 C361 1.393 . S
C358 H350 0.950 . S
C358 C356 1.391 . S
C358 C359 1.400 . S
C359 C358 1.400 . S
C359 C360 1.398 . S
C359 C365 1.491 . S
C360 H351 0.950 . S
C360 C359 1.398 . S
C360 C361 1.391 . S
C361 H349 0.950 . S
C361 C357 1.393 . S
C361 C360 1.391 . S
C362 H352 0.950 1_455 S
C362 C363 1.386 . S
C362 C364 1.391 . S
C363 C362 1.386 . S
C363 C367 1.393 . S
C364 H353 0.950 . S
C364 C362 1.391 . S
C364 C365 1.400 . S
C365 C359 1.491 . S
C365 C364 1.400 . S
C365 C366 1.398 . S
C366 H354 0.950 . S
C366 C365 1.398 . S
C366 C367 1.391 . S
C367 H355 0.950 . S
C367 C363 1.393 . S
C367 C366 1.391 . S
H368 C376 0.950 . S
H369 C381 0.950 . S
H370 C378 0.950 . S
H371 C380 0.950 . S
H372 C382 0.950 . S
H373 C384 0.950 . S
H374 C386 0.950 . S
H375 C387 0.950 . S
C376 H368 0.950 . S
C376 C377 1.386 . S
C376 C378 1.391 . S
C377 C376 1.386 . S
C377 C381 1.393 . S
C378 H370 0.950 . S
C378 C376 1.391 . S
C378 C379 1.400 . S
C379 C378 1.400 . S
C379 C380 1.398 . S
C379 C385 1.491 . S
C380 H371 0.950 . S
C380 C379 1.398 . S
C380 C381 1.391 . S
C381 H369 0.950 . S
C381 C377 1.393 . S
C381 C380 1.391 . S
C382 H372 0.950 . S
C382 C383 1.386 . S
C382 C384 1.391 . S
C383 C382 1.386 . S
C383 C387 1.393 . S
C384 H373 0.950 . S
C384 C382 1.391 . S
C384 C385 1.400 . S
C385 C379 1.491 . S
C385 C384 1.400 . S
C385 C386 1.398 . S
C386 H374 0.950 . S
C386 C385 1.398 . S
C386 C387 1.391 . S
C387 H375 0.950 . S
C387 C383 1.393 . S
C387 C386 1.391 . S
H388 C396 0.950 . S
H389 C401 0.950 . S
H390 C398 0.950 . S
H391 C400 0.950 . S
H392 C402 0.950 . S
H393 C404 0.950 . S
H394 C406 0.950 . S
H395 C407 0.950 . S
C396 H388 0.950 . S
C396 C397 1.386 . S
C396 C398 1.391 . S
C397 C396 1.386 . S
C397 C401 1.393 . S
C398 H390 0.950 . S
C398 C396 1.391 . S
C398 C399 1.400 . S
C399 C398 1.400 . S
C399 C400 1.398 . S
C399 C405 1.491 . S
C400 H391 0.950 . S
C400 C399 1.398 . S
C400 C401 1.391 . S
C401 H389 0.950 . S
C401 C397 1.393 . S
C401 C400 1.391 . S
C402 H392 0.950 . S
C402 C403 1.386 . S
C402 C404 1.391 . S
C403 C402 1.386 . S
C403 C407 1.393 . S
C404 H393 0.950 . S
C404 C402 1.391 . S
C404 C405 1.400 . S
C405 C399 1.491 . S
C405 C404 1.400 . S
C405 C406 1.398 . S
C406 H394 0.950 . S
C406 C405 1.398 . S
C406 C407 1.391 . S
C407 H395 0.950 . S
C407 C403 1.393 . S
C407 C406 1.391 . S
H408 C416 0.950 . S
H409 C421 0.950 . S
H410 C418 0.950 . S
H411 C420 0.950 . S
H412 C422 0.950 . S
H413 C424 0.950 . S
H414 C426 0.950 . S
H415 C427 0.950 . S
C416 H408 0.950 . S
C416 C417 1.386 . S
C416 C418 1.391 . S
C417 C416 1.386 . S
C417 C421 1.393 . S
C418 H410 0.950 . S
C418 C416 1.391 . S
C418 C419 1.400 . S
C419 C418 1.400 . S
C419 C420 1.398 . S
C419 C425 1.491 . S
C420 H411 0.950 . S
C420 C419 1.398 . S
C420 C421 1.391 . S
C421 H409 0.950 . S
C421 C417 1.393 . S
C421 C420 1.391 . S
C422 H412 0.950 . S
C422 C423 1.386 . S
C422 C424 1.391 . S
C423 C422 1.386 . S
C423 C427 1.393 . S
C424 H413 0.950 . S
C424 C422 1.391 . S
C424 C425 1.400 . S
C425 C419 1.491 . S
C425 C424 1.400 . S
C425 C426 1.398 . S
C426 H414 0.950 . S
C426 C425 1.398 . S
C426 C427 1.391 . S
C427 H415 0.950 . S
C427 C423 1.393 . S
C427 C426 1.391 . S
H428 C436 0.950 . S
H429 C441 0.950 . S
H430 C438 0.950 . S
H431 C440 0.950 . S
H432 C442 0.950 . S
H433 C444 0.950 . S
H434 C446 0.950 . S
H435 C447 0.956 . S
C436 H428 0.950 . S
C436 C437 1.386 . S
C436 C438 1.391 . S
C437 C436 1.386 . S
C437 C441 1.393 . S
C438 H430 0.950 . S
C438 C436 1.391 . S
C438 C439 1.400 . S
C439 C438 1.400 . S
C439 C440 1.398 . S
C439 C445 1.491 . S
C440 H431 0.950 . S
C440 C439 1.398 . S
C440 C441 1.391 . S
C441 H429 0.950 . S
C441 C437 1.393 . S
C441 C440 1.391 . S
C442 H432 0.950 . S
C442 C443 1.386 1_556 S
C442 C444 1.391 . S
C443 C442 1.386 1_554 S
C443 C447 1.393 1_554 S
C444 H433 0.950 . S
C444 C442 1.391 . S
C444 C445 1.400 . S
C445 C439 1.491 . S
C445 C444 1.400 . S
C445 C446 1.398 . S
C446 H434 0.950 . S
C446 C445 1.398 . S
C446 C447 1.391 . S
C447 H435 0.956 . S
C447 C443 1.393 1_556 S
C447 C446 1.391 . S
H448 C456 0.950 . S
H449 C461 0.950 . S
H450 C458 0.950 . S
H451 C460 0.950 . S
H452 C462 0.950 . S
H453 C464 0.950 . S
H454 C466 0.950 . S
H455 C467 0.950 . S
C456 H448 0.950 . S
C456 C457 1.386 . S
C456 C458 1.391 . S
C457 C456 1.386 . S
C457 C461 1.393 . S
C458 H450 0.950 . S
C458 C456 1.391 . S
C458 C459 1.400 . S
C459 C458 1.400 . S
C459 C460 1.398 . S
C459 C465 1.491 . S
C460 H451 0.950 . S
C460 C459 1.398 . S
C460 C461 1.391 . S
C461 H449 0.950 . S
C461 C457 1.393 . S
C461 C460 1.391 . S
C462 H452 0.950 . S
C462 C463 1.386 . S
C462 C464 1.391 . S
C463 C462 1.386 . S
C463 C467 1.393 . S
C464 H453 0.950 . S
C464 C462 1.391 . S
C464 C465 1.400 . S
C465 C459 1.491 . S
C465 C464 1.400 . S
C465 C466 1.398 . S
C466 H454 0.950 . S
C466 C465 1.398 . S
C466 C467 1.391 . S
C467 H455 0.950 . S
C467 C463 1.393 . S
C467 C466 1.391 . S
H468 C476 0.950 . S
H469 C481 0.950 . S
H470 C478 0.950 . S
H471 C480 0.950 . S
H472 C482 0.950 . S
H473 C484 0.950 . S
H474 C486 0.950 . S
H475 C487 0.950 . S
C476 H468 0.950 . S
C476 C477 1.386 . S
C476 C478 1.391 . S
C477 C476 1.386 . S
C477 C481 1.393 . S
C478 H470 0.950 . S
C478 C476 1.391 . S
C478 C479 1.400 . S
C479 C478 1.400 . S
C479 C480 1.398 . S
C479 C485 1.491 . S
C480 H471 0.950 . S
C480 C479 1.398 . S
C480 C481 1.391 . S
C481 H469 0.950 . S
C481 C477 1.393 . S
C481 C480 1.391 . S
C482 H472 0.950 . S
C482 C483 1.386 . S
C482 C484 1.391 . S
C483 C482 1.386 . S
C483 C487 1.393 . S
C484 H473 0.950 . S
C484 C482 1.391 . S
C484 C485 1.400 . S
C485 C479 1.491 . S
C485 C484 1.400 . S
C485 C486 1.398 . S
C486 H474 0.950 . S
C486 C485 1.398 . S
C486 C487 1.391 . S
C487 H475 0.950 . S
C487 C483 1.393 . S
C487 C486 1.391 . S
H488 C496 0.950 . S
H489 C501 0.950 . S
H490 C498 0.950 . S
H491 C500 0.950 . S
H492 C502 0.950 . S
H493 C504 0.950 . S
H494 C506 0.950 . S
H495 C507 0.950 . S
C496 H488 0.950 . S
C496 C497 1.386 . S
C496 C498 1.391 . S
C497 C496 1.386 . S
C497 C501 1.393 . S
C498 H490 0.950 . S
C498 C496 1.391 . S
C498 C499 1.400 . S
C499 C498 1.400 . S
C499 C500 1.398 . S
C499 C505 1.491 . S
C500 H491 0.950 . S
C500 C499 1.398 . S
C500 C501 1.391 . S
C501 H489 0.950 . S
C501 C497 1.393 . S
C501 C500 1.391 . S
C502 H492 0.950 . S
C502 C503 1.386 . S
C502 C504 1.391 . S
C503 C502 1.386 . S
C503 C507 1.393 . S
C504 H493 0.950 . S
C504 C502 1.391 . S
C504 C505 1.400 . S
C505 C499 1.491 . S
C505 C504 1.400 . S
C505 C506 1.398 . S
C506 H494 0.950 . S
C506 C505 1.398 . S
C506 C507 1.391 . S
C507 H495 0.950 . S
C507 C503 1.393 . S
C507 C506 1.391 . S
H508 C516 0.950 . S
H509 C521 0.950 . S
H510 C518 0.950 . S
H511 C520 0.950 . S
H512 C522 0.950 . S
H513 C524 0.950 . S
H514 C526 0.950 . S
H515 C527 0.950 . S
C516 H508 0.950 . S
C516 C517 1.386 . S
C516 C518 1.391 . S
C517 C516 1.386 . S
C517 C521 1.393 . S
C518 H510 0.950 . S
C518 C516 1.391 . S
C518 C519 1.400 . S
C519 C518 1.400 . S
C519 C520 1.398 . S
C519 C525 1.491 . S
C520 H511 0.950 . S
C520 C519 1.398 . S
C520 C521 1.391 . S
C521 H509 0.950 . S
C521 C517 1.393 . S
C521 C520 1.391 . S
C522 H512 0.950 . S
C522 C523 1.386 . S
C522 C524 1.391 . S
C523 C522 1.386 . S
C523 C527 1.393 . S
C524 H513 0.950 . S
C524 C522 1.391 . S
C524 C525 1.400 . S
C525 C519 1.491 . S
C525 C524 1.400 . S
C525 C526 1.398 . S
C526 H514 0.950 . S
C526 C525 1.398 . S
C526 C527 1.391 . S
C527 H515 0.950 . S
C527 C523 1.393 . S
C527 C526 1.391 . S
H528 C536 0.950 . S
H529 C541 0.950 . S
H530 C538 0.950 . S
H531 C540 0.950 . S
H532 C542 0.950 . S
H533 C544 0.950 . S
H534 C546 0.950 . S
H535 C547 0.950 . S
C536 H528 0.950 . S
C536 C537 1.386 . S
C536 C538 1.391 . S
C537 C536 1.386 . S
C537 C541 1.393 . S
C538 H530 0.950 . S
C538 C536 1.391 . S
C538 C539 1.400 . S
C539 C538 1.400 . S
C539 C540 1.398 . S
C539 C545 1.491 . S
C540 H531 0.950 . S
C540 C539 1.398 . S
C540 C541 1.391 . S
C541 H529 0.950 . S
C541 C537 1.393 . S
C541 C540 1.391 . S
C542 H532 0.950 . S
C542 C543 1.386 . S
C542 C544 1.391 . S
C543 C542 1.386 . S
C543 C547 1.393 . S
C544 H533 0.950 . S
C544 C542 1.391 . S
C544 C545 1.400 . S
C545 C539 1.491 . S
C545 C544 1.400 . S
C545 C546 1.398 . S
C546 H534 0.950 . S
C546 C545 1.398 . S
C546 C547 1.391 . S
C547 H535 0.950 . S
C547 C543 1.393 . S
C547 C546 1.391 . S
H548 C556 0.950 . S
H549 C561 0.950 . S
H550 C558 0.950 . S
H551 C560 0.950 . S
H552 C562 0.950 . S
H553 C564 0.950 . S
H554 C566 0.950 . S
H555 C567 0.950 . S
C556 H548 0.950 . S
C556 C557 1.386 . S
C556 C558 1.391 . S
C557 C556 1.386 . S
C557 C561 1.393 . S
C558 H550 0.950 . S
C558 C556 1.391 . S
C558 C559 1.400 . S
C559 C558 1.400 . S
C559 C560 1.398 . S
C559 C565 1.491 . S
C560 H551 0.950 . S
C560 C559 1.398 . S
C560 C561 1.391 . S
C561 H549 0.950 . S
C561 C557 1.393 . S
C561 C560 1.391 . S
C562 H552 0.950 . S
C562 C563 1.386 . S
C562 C564 1.391 . S
C563 C562 1.386 . S
C563 C567 1.393 . S
C564 H553 0.950 . S
C564 C562 1.391 . S
C564 C565 1.400 . S
C565 C559 1.491 . S
C565 C564 1.400 . S
C565 C566 1.398 . S
C566 H554 0.950 . S
C566 C565 1.398 . S
C566 C567 1.391 . S
C567 H555 0.950 . S
C567 C563 1.393 . S
C567 C566 1.391 . S
H568 C576 0.950 . S
H569 C581 0.950 . S
H570 C578 0.950 . S
H571 C580 0.950 . S
H572 C582 0.950 . S
H573 C584 0.950 . S
H574 C586 0.950 . S
H575 C587 0.950 1_545 S
C576 H568 0.950 . S
C576 C577 1.386 . S
C576 C578 1.391 . S
C577 C576 1.386 . S
C577 C581 1.393 . S
C578 H570 0.950 . S
C578 C576 1.391 . S
C578 C579 1.400 . S
C579 C578 1.400 . S
C579 C580 1.398 . S
C579 C585 1.491 . S
C580 H571 0.950 . S
C580 C579 1.398 . S
C580 C581 1.391 . S
C581 H569 0.950 . S
C581 C577 1.393 . S
C581 C580 1.391 . S
C582 H572 0.950 . S
C582 C583 1.386 . S
C582 C584 1.391 . S
C583 C582 1.386 . S
C583 C587 1.393 1_554 S
C584 H573 0.950 . S
C584 C582 1.391 . S
C584 C585 1.400 1_554 S
C585 C579 1.491 . S
C585 C584 1.400 1_556 S
C585 C586 1.398 . S
C586 H574 0.950 . S
C586 C585 1.398 . S
C586 C587 1.391 . S
C587 H575 0.950 1_565 S
C587 C583 1.393 1_556 S
C587 C586 1.391 . S
H588 C596 0.950 . S
H589 C601 0.950 . S
H590 C598 0.950 . S
H591 C600 0.950 . S
H592 C602 0.950 1_455 S
H593 C604 0.950 1_455 S
H594 C606 0.950 . S
H595 C607 0.950 . S
C596 H588 0.950 . S
C596 C597 1.386 . S
C596 C598 1.391 . S
C597 C596 1.386 . S
C597 C601 1.393 . S
C598 H590 0.950 . S
C598 C596 1.391 . S
C598 C599 1.400 . S
C599 C598 1.400 . S
C599 C600 1.398 . S
C599 C605 1.491 . S
C600 H591 0.950 . S
C600 C599 1.398 . S
C600 C601 1.391 . S
C601 H589 0.950 . S
C601 C597 1.393 . S
C601 C600 1.391 . S
C602 H592 0.950 1_655 S
C602 C603 1.386 . S
C602 C604 1.391 . S
C603 C602 1.386 . S
C603 C607 1.393 . S
C604 H593 0.950 1_655 S
C604 C602 1.391 . S
C604 C605 1.400 . S
C605 C599 1.491 . S
C605 C604 1.400 . S
C605 C606 1.398 . S
C606 H594 0.950 . S
C606 C605 1.398 . S
C606 C607 1.391 . S
C607 H595 0.950 . S
C607 C603 1.393 . S
C607 C606 1.391 . S
H608 C616 0.950 . S
H609 C621 0.950 . S
H610 C618 0.950 . S
H611 C620 0.950 . S
H612 C622 0.950 . S
H613 C624 0.950 . S
H614 C626 0.950 . S
H615 C627 0.950 . S
C616 H608 0.950 . S
C616 C617 1.386 . S
C616 C618 1.391 . S
C617 C616 1.386 . S
C617 C621 1.393 . S
C618 H610 0.950 . S
C618 C616 1.391 . S
C618 C619 1.400 . S
C619 C618 1.400 . S
C619 C620 1.398 . S
C619 C625 1.491 . S
C620 H611 0.950 . S
C620 C619 1.398 . S
C620 C621 1.391 . S
C621 H609 0.950 . S
C621 C617 1.393 . S
C621 C620 1.391 . S
C622 H612 0.950 . S
C622 C623 1.386 . S
C622 C624 1.391 . S
C623 C622 1.386 . S
C623 C627 1.393 . S
C624 H613 0.950 . S
C624 C622 1.391 . S
C624 C625 1.400 . S
C625 C619 1.491 . S
C625 C624 1.400 . S
C625 C626 1.398 . S
C626 H614 0.950 . S
C626 C625 1.398 . S
C626 C627 1.391 . S
C627 H615 0.950 . S
C627 C623 1.393 . S
C627 C626 1.391 . S
H628 C636 0.950 . S
H629 C641 0.950 . S
H630 C638 0.950 . S
H631 C640 0.950 . S
H632 C642 0.950 . S
H633 C644 0.950 . S
H634 C646 0.950 . S
H635 C647 0.950 . S
C636 H628 0.950 . S
C636 C637 1.386 . S
C636 C638 1.391 . S
C637 C636 1.386 . S
C637 C641 1.393 . S
C638 H630 0.950 . S
C638 C636 1.391 . S
C638 C639 1.400 . S
C639 C638 1.400 . S
C639 C640 1.398 . S
C639 C645 1.491 . S
C640 H631 0.950 . S
C640 C639 1.398 . S
C640 C641 1.391 . S
C641 H629 0.950 . S
C641 C637 1.393 . S
C641 C640 1.391 . S
C642 H632 0.950 . S
C642 C643 1.386 . S
C642 C644 1.391 . S
C643 C642 1.386 . S
C643 C647 1.393 . S
C644 H633 0.950 . S
C644 C642 1.391 . S
C644 C645 1.400 . S
C645 C639 1.491 . S
C645 C644 1.400 . S
C645 C646 1.398 . S
C646 H634 0.950 . S
C646 C645 1.398 . S
C646 C647 1.391 . S
C647 H635 0.950 . S
C647 C643 1.393 . S
C647 C646 1.391 . S
H648 C656 0.950 . S
H649 C661 0.950 . S
H650 C658 0.950 . S
H651 C660 0.950 . S
H652 C662 0.950 . S
H653 C664 0.950 . S
H654 C666 0.950 . S
H655 C667 0.950 . S
C656 H648 0.950 . S
C656 C657 1.386 . S
C656 C658 1.391 . S
C657 C656 1.386 . S
C657 C661 1.393 . S
C658 H650 0.950 . S
C658 C656 1.391 . S
C658 C659 1.400 . S
C659 C658 1.400 . S
C659 C660 1.398 . S
C659 C665 1.491 . S
C660 H651 0.950 . S
C660 C659 1.398 . S
C660 C661 1.391 . S
C661 H649 0.950 . S
C661 C657 1.393 . S
C661 C660 1.391 . S
C662 H652 0.950 . S
C662 C663 1.386 . S
C662 C664 1.391 . S
C663 C662 1.386 . S
C663 C667 1.393 . S
C664 H653 0.950 . S
C664 C662 1.391 . S
C664 C665 1.400 . S
C665 C659 1.491 . S
C665 C664 1.400 . S
C665 C666 1.398 . S
C666 H654 0.950 . S
C666 C665 1.398 . S
C666 C667 1.391 . S
C667 H655 0.950 . S
C667 C663 1.393 . S
C667 C666 1.391 . S
H668 C676 0.950 . S
H669 C681 0.950 . S
H670 C678 0.950 . S
H671 C680 0.950 . S
H672 C682 0.950 . S
H673 C684 0.950 . S
H674 C686 0.950 . S
H675 C687 0.950 . S
C676 H668 0.950 . S
C676 C677 1.386 . S
C676 C678 1.391 . S
C677 C676 1.386 . S
C677 C681 1.393 . S
C678 H670 0.950 . S
C678 C676 1.391 . S
C678 C679 1.400 . S
C679 C678 1.400 . S
C679 C680 1.398 . S
C679 C685 1.491 . S
C680 H671 0.950 . S
C680 C679 1.398 . S
C680 C681 1.391 . S
C681 H669 0.950 . S
C681 C677 1.393 . S
C681 C680 1.391 . S
C682 H672 0.950 . S
C682 C683 1.386 . S
C682 C684 1.391 . S
C683 C682 1.386 . S
C683 C687 1.393 . S
C684 H673 0.950 . S
C684 C682 1.391 . S
C684 C685 1.400 . S
C685 C679 1.491 . S
C685 C684 1.400 . S
C685 C686 1.398 . S
C686 H674 0.950 . S
C686 C685 1.398 . S
C686 C687 1.391 . S
C687 H675 0.950 . S
C687 C683 1.393 . S
C687 C686 1.391 . S
H688 C696 0.950 . S
H689 C701 0.950 . S
H690 C698 0.950 . S
H691 C700 0.950 . S
H692 C702 0.950 . S
H693 C704 0.950 . S
H694 C706 0.950 . S
H695 C707 0.950 . S
C696 H688 0.950 . S
C696 C697 1.386 . S
C696 C698 1.391 . S
C697 C696 1.386 . S
C697 C701 1.393 . S
C698 H690 0.950 . S
C698 C696 1.391 . S
C698 C699 1.400 . S
C699 C698 1.400 . S
C699 C700 1.398 . S
C699 C705 1.491 . S
C700 H691 0.950 . S
C700 C699 1.398 . S
C700 C701 1.391 . S
C701 H689 0.950 . S
C701 C697 1.393 . S
C701 C700 1.391 . S
C702 H692 0.950 . S
C702 C703 1.386 . S
C702 C704 1.391 . S
C703 C702 1.386 . S
C703 C707 1.393 . S
C704 H693 0.950 . S
C704 C702 1.391 . S
C704 C705 1.400 . S
C705 C699 1.491 . S
C705 C704 1.400 . S
C705 C706 1.398 . S
C706 H694 0.950 . S
C706 C705 1.398 . S
C706 C707 1.391 . S
C707 H695 0.950 . S
C707 C703 1.393 . S
C707 C706 1.391 . S
H708 C716 0.950 . S
H709 C721 0.950 . S
H710 C718 0.950 . S
H711 C720 0.950 . S
H712 C722 0.950 . S
H713 C724 0.950 . S
H714 C726 0.950 . S
H715 C727 0.950 . S
C716 H708 0.950 . S
C716 C717 1.386 . S
C716 C718 1.391 . S
C717 C716 1.386 . S
C717 C721 1.393 . S
C718 H710 0.950 . S
C718 C716 1.391 . S
C718 C719 1.400 . S
C719 C718 1.400 . S
C719 C720 1.398 . S
C719 C725 1.491 . S
C720 H711 0.950 . S
C720 C719 1.398 . S
C720 C721 1.391 . S
C721 H709 0.950 . S
C721 C717 1.393 . S
C721 C720 1.391 . S
C722 H712 0.950 . S
C722 C723 1.386 . S
C722 C724 1.391 . S
C723 C722 1.386 . S
C723 C727 1.393 . S
C724 H713 0.950 . S
C724 C722 1.391 . S
C724 C725 1.400 . S
C725 C719 1.491 . S
C725 C724 1.400 . S
C725 C726 1.398 . S
C726 H714 0.950 . S
C726 C725 1.398 . S
C726 C727 1.391 . S
C727 H715 0.950 . S
C727 C723 1.393 . S
C727 C726 1.391 . S
C257 C4 0.897 . S
C263 C92 0.919 . S
C277 C16 1.278 . S
C283 C153 1.327 . S
C303 C191 2.131 . S
C297 C32 2.168 . S
C317 C43 2.281 . S
C323 C231 2.240 1_655 S
C343 C151 1.754 . S
C337 C5 1.746 . S
C363 C119 1.652 . S
C357 C21 1.585 . S
C383 C228 1.693 . S
C377 C27 1.703 . S
C403 C188 1.725 . S
C397 C37 1.753 . S
C417 C10 1.000 . S
C423 C233 1.005 . S
C443 C148 2.595 . S
C437 C26 2.595 . S
C457 C38 1.916 . S
C463 C90 1.892 . S
C477 C15 1.511 . S
C483 C193 1.562 . S
C503 C113 1.061 . S
C497 C48 1.051 . S
C517 C59 1.069 . S
C523 C132 1.093 . S
C537 C76 2.478 . S
C543 C170 2.417 . S
C557 C87 2.043 . S
C563 C210 2.033 . S
C577 C54 1.011 . S
C583 C130 1.005 . S
C603 C108 2.337 . S
C597 C60 2.265 . S
C623 C239 1.598 . S
C617 C71 1.601 . S
C643 C199 1.824 . S
C637 C82 1.827 . S
C657 C49 1.336 . S
C663 C212 1.377 . S
C683 C159 2.051 . S
C677 C70 2.057 . S
C703 C111 2.345 . S
C697 C81 2.396 . S
C717 C65 1.269 . S
C723 C172 1.305 . S
