# Generated by pormake.
# Topology ptr, (4,4)-cn, num edge types: 1
# Building blocks:
#     Node 0, Type 0, BuildingBlock: AZAVOO_clean_sbu_0, # of connection points: 4
#     Node 1, Type 0, BuildingBlock: AZAVOO_clean_sbu_0, # of connection points: 4
#     Node 2, Type 0, BuildingBlock: AZAVOO_clean_sbu_0, # of connection points: 4
#     Node 3, Type 0, BuildingBlock: AZAVOO_clean_sbu_0, # of connection points: 4
#     Node 4, Type 0, BuildingBlock: AZAVOO_clean_sbu_0, # of connection points: 4
#     Node 5, Type 0, BuildingBlock: AZAVOO_clean_sbu_0, # of connection points: 4
#     Node 6, Type 0, BuildingBlock: AZAVOO_clean_sbu_0, # of connection points: 4
#     Node 7, Type 0, BuildingBlock: AZAVOO_clean_sbu_0, # of connection points: 4
#     Node 8, Type 0, BuildingBlock: AZAVOO_clean_sbu_0, # of connection points: 4
#     Node 9, Type 0, BuildingBlock: AZAVOO_clean_sbu_0, # of connection points: 4
#     Node 10, Type 0, BuildingBlock: AZAVOO_clean_sbu_0, # of connection points: 4
#     Node 11, Type 0, BuildingBlock: AZAVOO_clean_sbu_0, # of connection points: 4
#     Node 12, Type 0, BuildingBlock: AZAVOO_clean_sbu_0, # of connection points: 4
#     Node 13, Type 0, BuildingBlock: AZAVOO_clean_sbu_0, # of connection points: 4
#     Node 14, Type 0, BuildingBlock: AZAVOO_clean_sbu_0, # of connection points: 4
#     Node 15, Type 0, BuildingBlock: AZAVOO_clean_sbu_0, # of connection points: 4
#     Node 16, Type 0, BuildingBlock: AZAVOO_clean_sbu_0, # of connection points: 4
#     Node 17, Type 0, BuildingBlock: AZAVOO_clean_sbu_0, # of connection points: 4
#     Node 18, Type 1, BuildingBlock: KUFVIS_clean_linker_0, # of connection points: 4
#     Node 19, Type 1, BuildingBlock: KUFVIS_clean_linker_0, # of connection points: 4
#     Node 20, Type 1, BuildingBlock: KUFVIS_clean_linker_0, # of connection points: 4
#     Node 21, Type 1, BuildingBlock: KUFVIS_clean_linker_0, # of connection points: 4
#     Node 22, Type 1, BuildingBlock: KUFVIS_clean_linker_0, # of connection points: 4
#     Node 23, Type 1, BuildingBlock: KUFVIS_clean_linker_0, # of connection points: 4
#     Node 24, Type 1, BuildingBlock: KUFVIS_clean_linker_0, # of connection points: 4
#     Node 25, Type 1, BuildingBlock: KUFVIS_clean_linker_0, # of connection points: 4
#     Node 26, Type 1, BuildingBlock: KUFVIS_clean_linker_0, # of connection points: 4
#     Node 27, Type 1, BuildingBlock: KUFVIS_clean_linker_0, # of connection points: 4
#     Node 28, Type 1, BuildingBlock: KUFVIS_clean_linker_0, # of connection points: 4
#     Node 29, Type 1, BuildingBlock: KUFVIS_clean_linker_0, # of connection points: 4
#     Node 30, Type 1, BuildingBlock: KUFVIS_clean_linker_0, # of connection points: 4
#     Node 31, Type 1, BuildingBlock: KUFVIS_clean_linker_0, # of connection points: 4
#     Node 32, Type 1, BuildingBlock: KUFVIS_clean_linker_0, # of connection points: 4
#     Node 33, Type 1, BuildingBlock: KUFVIS_clean_linker_0, # of connection points: 4
#     Node 34, Type 1, BuildingBlock: KUFVIS_clean_linker_0, # of connection points: 4
#     Node 35, Type 1, BuildingBlock: KUFVIS_clean_linker_0, # of connection points: 4
#     Edge 36, Type (0, 1), BuildingBlock: KIFKEQ_clean_linker_1, # of connection points: 2
#     Edge 37, Type (0, 1), BuildingBlock: KIFKEQ_clean_linker_1, # of connection points: 2
#     Edge 38, Type (0, 1), BuildingBlock: KIFKEQ_clean_linker_1, # of connection points: 2
#     Edge 39, Type (0, 1), BuildingBlock: KIFKEQ_clean_linker_1, # of connection points: 2
#     Edge 40, Type (0, 1), BuildingBlock: KIFKEQ_clean_linker_1, # of connection points: 2
#     Edge 41, Type (0, 1), BuildingBlock: KIFKEQ_clean_linker_1, # of connection points: 2
#     Edge 42, Type (0, 1), BuildingBlock: KIFKEQ_clean_linker_1, # of connection points: 2
#     Edge 43, Type (0, 1), BuildingBlock: KIFKEQ_clean_linker_1, # of connection points: 2
#     Edge 44, Type (0, 1), BuildingBlock: KIFKEQ_clean_linker_1, # of connection points: 2
#     Edge 45, Type (0, 1), BuildingBlock: KIFKEQ_clean_linker_1, # of connection points: 2
#     Edge 46, Type (0, 1), BuildingBlock: KIFKEQ_clean_linker_1, # of connection points: 2
#     Edge 47, Type (0, 1), BuildingBlock: KIFKEQ_clean_linker_1, # of connection points: 2
#     Edge 48, Type (0, 1), BuildingBlock: KIFKEQ_clean_linker_1, # of connection points: 2
#     Edge 49, Type (0, 1), BuildingBlock: KIFKEQ_clean_linker_1, # of connection points: 2
#     Edge 50, Type (0, 1), BuildingBlock: KIFKEQ_clean_linker_1, # of connection points: 2
#     Edge 51, Type (0, 1), BuildingBlock: KIFKEQ_clean_linker_1, # of connection points: 2
#     Edge 52, Type (0, 1), BuildingBlock: KIFKEQ_clean_linker_1, # of connection points: 2
#     Edge 53, Type (0, 1), BuildingBlock: KIFKEQ_clean_linker_1, # of connection points: 2
#     Edge 54, Type (0, 1), BuildingBlock: KIFKEQ_clean_linker_1, # of connection points: 2
#     Edge 55, Type (0, 1), BuildingBlock: KIFKEQ_clean_linker_1, # of connection points: 2
#     Edge 56, Type (0, 1), BuildingBlock: KIFKEQ_clean_linker_1, # of connection points: 2
#     Edge 57, Type (0, 1), BuildingBlock: KIFKEQ_clean_linker_1, # of connection points: 2
#     Edge 58, Type (0, 1), BuildingBlock: KIFKEQ_clean_linker_1, # of connection points: 2
#     Edge 59, Type (0, 1), BuildingBlock: KIFKEQ_clean_linker_1, # of connection points: 2
#     Edge 60, Type (0, 1), BuildingBlock: KIFKEQ_clean_linker_1, # of connection points: 2
#     Edge 61, Type (0, 1), BuildingBlock: KIFKEQ_clean_linker_1, # of connection points: 2
#     Edge 62, Type (0, 1), BuildingBlock: KIFKEQ_clean_linker_1, # of connection points: 2
#     Edge 63, Type (0, 1), BuildingBlock: KIFKEQ_clean_linker_1, # of connection points: 2
#     Edge 64, Type (0, 1), BuildingBlock: KIFKEQ_clean_linker_1, # of connection points: 2
#     Edge 65, Type (0, 1), BuildingBlock: KIFKEQ_clean_linker_1, # of connection points: 2
#     Edge 66, Type (0, 1), BuildingBlock: KIFKEQ_clean_linker_1, # of connection points: 2
#     Edge 67, Type (0, 1), BuildingBlock: KIFKEQ_clean_linker_1, # of connection points: 2
#     Edge 68, Type (0, 1), BuildingBlock: KIFKEQ_clean_linker_1, # of connection points: 2
#     Edge 69, Type (0, 1), BuildingBlock: KIFKEQ_clean_linker_1, # of connection points: 2
#     Edge 70, Type (0, 1), BuildingBlock: KIFKEQ_clean_linker_1, # of connection points: 2
#     Edge 71, Type (0, 1), BuildingBlock: KIFKEQ_clean_linker_1, # of connection points: 2
#     Edge 72, Type (0, 1), BuildingBlock: KIFKEQ_clean_linker_1, # of connection points: 2
#     Edge 73, Type (0, 1), BuildingBlock: KIFKEQ_clean_linker_1, # of connection points: 2
#     Edge 74, Type (0, 1), BuildingBlock: KIFKEQ_clean_linker_1, # of connection points: 2
#     Edge 75, Type (0, 1), BuildingBlock: KIFKEQ_clean_linker_1, # of connection points: 2
#     Edge 76, Type (0, 1), BuildingBlock: KIFKEQ_clean_linker_1, # of connection points: 2
#     Edge 77, Type (0, 1), BuildingBlock: KIFKEQ_clean_linker_1, # of connection points: 2
#     Edge 78, Type (0, 1), BuildingBlock: KIFKEQ_clean_linker_1, # of connection points: 2
#     Edge 79, Type (0, 1), BuildingBlock: KIFKEQ_clean_linker_1, # of connection points: 2
#     Edge 80, Type (0, 1), BuildingBlock: KIFKEQ_clean_linker_1, # of connection points: 2
#     Edge 81, Type (0, 1), BuildingBlock: KIFKEQ_clean_linker_1, # of connection points: 2
#     Edge 82, Type (0, 1), BuildingBlock: KIFKEQ_clean_linker_1, # of connection points: 2
#     Edge 83, Type (0, 1), BuildingBlock: KIFKEQ_clean_linker_1, # of connection points: 2
#     Edge 84, Type (0, 1), BuildingBlock: KIFKEQ_clean_linker_1, # of connection points: 2
#     Edge 85, Type (0, 1), BuildingBlock: KIFKEQ_clean_linker_1, # of connection points: 2
#     Edge 86, Type (0, 1), BuildingBlock: KIFKEQ_clean_linker_1, # of connection points: 2
#     Edge 87, Type (0, 1), BuildingBlock: KIFKEQ_clean_linker_1, # of connection points: 2
#     Edge 88, Type (0, 1), BuildingBlock: KIFKEQ_clean_linker_1, # of connection points: 2
#     Edge 89, Type (0, 1), BuildingBlock: KIFKEQ_clean_linker_1, # of connection points: 2
#     Edge 90, Type (0, 1), BuildingBlock: KIFKEQ_clean_linker_1, # of connection points: 2
#     Edge 91, Type (0, 1), BuildingBlock: KIFKEQ_clean_linker_1, # of connection points: 2
#     Edge 92, Type (0, 1), BuildingBlock: KIFKEQ_clean_linker_1, # of connection points: 2
#     Edge 93, Type (0, 1), BuildingBlock: KIFKEQ_clean_linker_1, # of connection points: 2
#     Edge 94, Type (0, 1), BuildingBlock: KIFKEQ_clean_linker_1, # of connection points: 2
#     Edge 95, Type (0, 1), BuildingBlock: KIFKEQ_clean_linker_1, # of connection points: 2
#     Edge 96, Type (0, 1), BuildingBlock: KIFKEQ_clean_linker_1, # of connection points: 2
#     Edge 97, Type (0, 1), BuildingBlock: KIFKEQ_clean_linker_1, # of connection points: 2
#     Edge 98, Type (0, 1), BuildingBlock: KIFKEQ_clean_linker_1, # of connection points: 2
#     Edge 99, Type (0, 1), BuildingBlock: KIFKEQ_clean_linker_1, # of connection points: 2
#     Edge 100, Type (0, 1), BuildingBlock: KIFKEQ_clean_linker_1, # of connection points: 2
#     Edge 101, Type (0, 1), BuildingBlock: KIFKEQ_clean_linker_1, # of connection points: 2
#     Edge 102, Type (0, 1), BuildingBlock: KIFKEQ_clean_linker_1, # of connection points: 2
#     Edge 103, Type (0, 1), BuildingBlock: KIFKEQ_clean_linker_1, # of connection points: 2
#     Edge 104, Type (0, 1), BuildingBlock: KIFKEQ_clean_linker_1, # of connection points: 2
#     Edge 105, Type (0, 1), BuildingBlock: KIFKEQ_clean_linker_1, # of connection points: 2
#     Edge 106, Type (0, 1), BuildingBlock: KIFKEQ_clean_linker_1, # of connection points: 2
#     Edge 107, Type (0, 1), BuildingBlock: KIFKEQ_clean_linker_1, # of connection points: 2
# Relax obj value: 0.078
# Max RMSD: 0.240
# Mean RMSD: 0.132
data_MOF--net-ptr--node1-AZAVOO_clean_sbu_0--node2-KUFVIS_clean_linker_0--edge1-KIFKEQ_clean_linker_1
_symmetry_space_group_name_H-M    P1
_symmetry_Int_Tables_number       1
_symmetry_cell_setting            triclinic
loop_
_symmetry_equiv_pos_as_xyz
'x, y, z'
_cell_length_a     80.621004
_cell_length_b     79.487411
_cell_length_c     47.793908
_cell_angle_alpha  91.443717
_cell_angle_beta   91.693362
_cell_angle_gamma 119.95824
loop_
_atom_site_label
_atom_site_type_symbol
_atom_site_fract_x
_atom_site_fract_y
_atom_site_fract_z
_atom_type_partial_charge
Mg0 Mg 0.02393 0.36971 0.95986 0.0
O1 O 0.01914 0.38556 -0.00257 0.0
O2 O 0.99607 0.39175 0.98319 0.0
Mg3 Mg 0.9846 0.37823 0.93948 0.0
C4 C 1.00851 0.39304 0.00157 0.0
C5 C 0.05618 0.36104 0.97335 0.0
O6 O 0.05603 0.36215 0.94596 0.0
O7 O 0.99683 0.341 0.9689 0.0
O8 O 0.97391 0.34757 0.95561 0.0
O9 O 0.04423 0.39847 0.94309 0.0
O10 O 0.01315 0.38239 0.93223 0.0
C11 C 0.97915 0.33602 0.96533 0.0
C12 C 0.02952 0.39801 0.93066 0.0
O13 O 0.04374 0.36295 0.98672 0.0
Mg14 Mg 0.65153 0.65323 0.03221 0.0
O15 O 0.63201 0.63811 -0.00742 0.0
O16 O 0.60262 0.63221 0.00242 0.0
Mg17 Mg 0.60304 0.64193 0.04785 0.0
C18 C 0.61431 0.63156 0.98559 0.0
C19 C 0.6927 0.66407 0.02246 0.0
O20 O 0.69058 0.65967 0.04893 0.0
O21 O 0.65122 0.68124 0.02467 0.0
O22 O 0.62189 0.67398 0.03675 0.0
O23 O 0.64537 0.62459 0.04682 0.0
O24 O 0.62809 0.63835 0.05677 0.0
C25 C 0.63849 0.68603 0.02851 0.0
C26 C 0.63047 0.62348 0.05812 0.0
O27 O 0.67862 0.66316 0.00833 0.0
Mg28 Mg 0.36854 0.9907 0.9654 0.0
O29 O 0.38831 0.99384 0.00372 0.0
O30 O 0.41801 0.01633 -0.00663 0.0
Mg31 Mg 0.41727 0.02873 0.95139 0.0
C32 C 0.40635 1.00382 0.00968 0.0
C33 C 0.32578 0.96514 0.97539 0.0
O34 O 0.3256 0.97036 0.94956 0.0
O35 O 0.36913 0.0189 0.9787 0.0
O36 O 0.39892 0.04102 0.96844 0.0
O37 O 0.37485 0.96908 0.94505 0.0
O38 O 0.39165 1.00071 0.93956 0.0
C39 C 0.38252 0.03656 0.97744 0.0
C40 C 0.38953 0.9837 0.9349 0.0
O41 O 0.34177 0.97189 0.98905 0.0
Mg42 Mg 0.9982 0.64361 0.03645 0.0
O43 O 1.00173 0.62891 -0.00389 0.0
O44 O 0.02841 0.62732 0.00425 0.0
Mg45 Mg 0.04142 0.63989 0.04781 0.0
C46 C 0.014 0.62416 0.98845 0.0
C47 C 0.95918 0.64179 0.02434 0.0
O48 O 0.95512 0.63024 0.04537 0.0
O49 O 0.02295 0.67367 0.02579 0.0
O50 O 0.04849 0.67018 0.03413 0.0
O51 O 0.98108 0.61438 0.05442 0.0
O52 O 0.01252 0.63251 0.06001 0.0
C53 C 0.04106 0.68041 0.02679 0.0
C54 C 0.99715 0.61629 0.0639 0.0
O55 O 0.97586 0.64936 0.01475 0.0
Mg56 Mg 0.37466 0.36115 0.97956 0.0
O57 O 0.39422 0.37677 0.01899 0.0
O58 O 0.42245 0.37879 0.01201 0.0
Mg59 Mg 0.42098 0.36458 0.96927 0.0
C60 C 0.41152 0.38221 0.02698 0.0
C61 C 0.33263 0.3505 0.98781 0.0
O62 O 0.33175 0.34528 0.96126 0.0
O63 O 0.37003 0.33159 -0.00823 0.0
O64 O 0.39847 0.33437 0.98384 0.0
O65 O 0.38556 0.38982 0.96136 0.0
O66 O 0.39877 0.37144 0.95541 0.0
C67 C 0.38117 0.3245 -0.00877 0.0
C68 C 0.39938 0.38779 0.95193 0.0
O69 O 0.34842 0.35702 0.00197 0.0
Mg70 Mg 0.65817 0.02734 0.0397 0.0
O71 O 0.63832 0.02304 0.0009 0.0
O72 O 0.60931 0.99844 0.00991 0.0
Mg73 Mg 0.6102 0.98763 0.05315 0.0
C74 C 0.62062 0.0115 -0.00608 0.0
C75 C 0.69889 0.06069 0.02828 0.0
O76 O 0.69715 0.06538 0.05414 0.0
O77 O 0.65902 0.99979 0.02753 0.0
O78 O 0.6297 0.97635 0.03744 0.0
O79 O 0.65062 0.04832 0.059 0.0
O80 O 0.63473 0.01667 0.06479 0.0
C81 C 0.64642 0.98185 0.02881 0.0
C82 C 0.63614 0.03342 0.06907 0.0
O83 O 0.68492 0.04578 0.01583 0.0
Mg84 Mg 0.69755 0.70745 0.29475 0.0
O85 O 0.69365 0.72342 0.33322 0.0
O86 O 0.67042 0.72969 0.32019 0.0
Mg87 Mg 0.65814 0.71637 0.27664 0.0
C88 C 0.68312 0.73094 0.33805 0.0
C89 C 0.72912 0.69728 0.3055 0.0
O90 O 0.72726 0.6969 0.27805 0.0
O91 O 0.67046 0.67876 0.30442 0.0
O92 O 0.64757 0.68561 0.29219 0.0
O93 O 0.71766 0.73613 0.2774 0.0
O94 O 0.68643 0.72035 0.26803 0.0
C95 C 0.65277 0.67391 0.30137 0.0
C96 C 0.70282 0.73581 0.2657 0.0
O97 O 0.71793 0.70056 0.32002 0.0
Mg98 Mg 0.31533 0.98768 0.35629 0.0
O99 O 0.29505 0.9731 0.317 0.0
O100 O 0.26652 0.96923 0.32765 0.0
Mg101 Mg 0.26813 0.9804 0.37254 0.0
C102 C 0.27744 0.96738 0.31056 0.0
C103 C 0.35489 0.99371 0.34695 0.0
O104 O 0.3515 0.98844 0.37295 0.0
O105 O 0.31755 0.01689 0.3482 0.0
O106 O 0.28883 0.0117 0.36028 0.0
O107 O 0.30671 0.95853 0.37185 0.0
O108 O 0.29191 0.97493 0.38143 0.0
C109 C 0.30564 0.02282 0.35186 0.0
C110 C 0.29266 0.95917 0.38328 0.0
O111 O 0.34213 0.9951 0.33252 0.0
Mg112 Mg 0.03148 0.31799 0.29672 0.0
O113 O 0.05105 0.32286 0.33607 0.0
O114 O 0.07949 0.34873 0.32811 0.0
Mg115 Mg 0.07877 0.35925 0.28445 0.0
C116 C 0.06844 0.33519 0.3437 0.0
C117 C 0.98897 0.29737 0.3111 0.0
O118 O 0.98933 0.3085 0.29098 0.0
O119 O 0.02904 0.3447 0.30876 0.0
O120 O 0.05761 0.36898 0.29789 0.0
O121 O 0.04039 0.29802 0.27762 0.0
O122 O 0.05537 0.32971 0.2724 0.0
C123 C 0.04074 0.3628 0.3064 0.0
C124 C 0.05468 0.3133 0.26798 0.0
O125 O 1.00451 0.29817 0.31931 0.0
Mg126 Mg 0.66551 0.97785 0.37431 0.0
O127 O 0.66984 0.96229 0.33577 0.0
O128 O 0.69373 0.95691 0.3486 0.0
Mg129 Mg 0.70566 0.96991 0.39242 0.0
C130 C 0.68082 0.9553 0.33082 0.0
C131 C 0.62855 0.97876 0.35774 0.0
O132 O 0.62345 0.96767 0.37939 0.0
O133 O 0.69236 1.00669 0.36485 0.0
O134 O 0.71576 1.00057 0.37701 0.0
O135 O 0.64561 0.9489 0.39154 0.0
O136 O 0.67697 0.965 0.40003 0.0
C137 C 0.71014 0.01194 0.36782 0.0
C138 C 0.66075 0.94937 0.4023 0.0
O139 O 0.64546 0.98541 0.34929 0.0
Mg140 Mg 0.04866 0.69105 0.31066 0.0
O141 O 0.06749 0.7069 0.35097 0.0
O142 O 0.09613 0.70986 0.34367 0.0
Mg143 Mg 0.09583 0.69575 0.30164 0.0
C144 C 0.08497 0.71284 0.35878 0.0
C145 C 0.01677 0.69871 0.3337 0.0
O146 O 0.02968 0.71656 0.32823 0.0
O147 O 0.0449 0.66194 0.3238 0.0
O148 O 0.07375 0.66562 0.31635 0.0
O149 O 0.05931 0.71958 0.29092 0.0
O150 O 0.07328 0.70184 0.28764 0.0
C151 C 0.0565 0.65538 0.3237 0.0
C152 C 0.07348 0.71777 0.28253 0.0
O153 O 0.02076 0.6852 0.33042 0.0
Mg154 Mg 0.32561 0.36042 0.36961 0.0
O155 O 0.30592 0.35692 0.33081 0.0
O156 O 0.27646 0.33375 0.34101 0.0
Mg157 Mg 0.27726 0.32142 0.38295 0.0
C158 C 0.2879 0.34649 0.32476 0.0
C159 C 0.36637 0.39336 0.3605 0.0
O160 O 0.36372 0.39701 0.38644 0.0
O161 O 0.32583 0.33271 0.35664 0.0
O162 O 0.29618 0.30973 0.36597 0.0
O163 O 0.31858 0.38166 0.38949 0.0
O164 O 0.30222 0.34997 0.39484 0.0
C165 C 0.31284 0.31487 0.35736 0.0
C166 C 0.30391 0.36683 0.39932 0.0
O167 O 0.35275 0.37898 0.34658 0.0
Mg168 Mg 0.36034 0.04155 0.63506 0.0
O169 O 0.35289 0.05507 0.67312 0.0
O170 O 0.32854 0.05896 0.65777 0.0
Mg171 Mg 0.31924 0.04681 0.61303 0.0
C172 C 0.34081 0.06084 0.67691 0.0
C173 C 0.39738 0.04158 0.65338 0.0
O174 O 0.40243 0.05253 0.63159 0.0
O175 O 0.33423 0.01156 0.64164 0.0
O176 O 0.31004 0.01607 0.62778 0.0
O177 O 0.37973 0.07128 0.62012 0.0
O178 O 0.34897 0.05384 0.6077 0.0
C179 C 0.31632 1.00533 0.63734 0.0
C180 C 0.36489 0.07006 0.60695 0.0
O181 O 0.3804 0.03477 0.66163 0.0
Mg182 Mg 0.9878 0.32092 0.69609 0.0
O183 O 0.96687 0.30356 0.65851 0.0
O184 O 0.93789 0.29785 0.67039 0.0
Mg185 Mg 0.93972 0.3097 0.71504 0.0
C186 C 0.9489 0.29641 0.653 0.0
C187 C 0.03009 0.33648 0.68341 0.0
O188 O 0.03123 0.34047 0.71048 0.0
O189 O 0.98661 0.34839 0.68573 0.0
O190 O 0.95801 0.34105 0.70128 0.0
O191 O 0.9827 0.29322 0.71403 0.0
O192 O 0.96523 0.307 0.72244 0.0
C193 C 0.97389 0.35301 0.69091 0.0
C194 C 0.96784 0.29237 0.72501 0.0
O195 O 0.01386 0.3292 0.67026 0.0
Mg196 Mg 0.70346 0.65447 0.6289 0.0
O197 O 0.72369 0.66054 0.66777 0.0
O198 O 0.75236 0.68548 0.65804 0.0
Mg199 Mg 0.75027 0.69625 0.61506 0.0
C200 C 0.74139 0.67238 0.67429 0.0
C201 C 0.66161 0.62321 0.6393 0.0
O202 O 0.66065 0.62461 0.61204 0.0
O203 O 0.70034 0.68082 0.64107 0.0
O204 O 0.72891 0.70522 0.63038 0.0
O205 O 0.71309 0.63495 0.60958 0.0
O206 O 0.72711 0.6666 0.60411 0.0
C207 C 0.71208 0.69897 0.63913 0.0
C208 C 0.72709 0.65051 0.60009 0.0
O209 O 0.67744 0.63406 0.6529 0.0
Mg210 Mg 0.33803 0.31711 0.70647 0.0
O211 O 0.34034 0.30072 0.66727 0.0
O212 O 0.36561 0.29687 0.67673 0.0
Mg213 Mg 0.38019 0.31157 0.71876 0.0
C214 C 0.3514 0.29412 0.6608 0.0
C215 C 0.30034 0.31015 0.67207 0.0
O216 O 0.2971 0.29227 0.66907 0.0
O217 O 0.36318 0.34614 0.69326 0.0
O218 O 0.38782 0.34156 0.7032 0.0
O219 O 0.32059 0.28859 0.72667 0.0
O220 O 0.35208 0.30621 0.73112 0.0
C221 C 0.38119 0.35225 0.69468 0.0
C222 C 0.33665 0.29036 0.73599 0.0
O223 O 0.31582 0.32308 0.68468 0.0
Mg224 Mg 0.70527 0.02518 0.63593 0.0
O225 O 0.72577 0.04294 0.67379 0.0
O226 O 0.75525 0.0511 0.66089 0.0
Mg227 Mg 0.75383 0.0382 0.61715 0.0
C228 C 0.74395 0.05164 0.6786 0.0
C229 C 0.6748 0.02885 0.66861 0.0
O230 O 0.68749 0.04709 0.66477 0.0
O231 O 0.7075 0.99844 0.64668 0.0
O232 O 0.73655 1.00681 0.63193 0.0
O233 O 0.70964 0.05256 0.61787 0.0
O234 O 0.72766 0.03959 0.60891 0.0
C235 C 0.72076 0.99448 0.64218 0.0
C236 C 0.72454 0.0539 0.60637 0.0
O237 O 0.67852 0.01568 0.66098 0.0
Mg238 Mg 0.99235 0.69403 0.70392 0.0
O239 O 0.97277 0.68909 0.66473 0.0
O240 O 0.94371 0.66409 0.67245 0.0
Mg241 Mg 0.94523 0.65179 0.71428 0.0
C242 C 0.95514 0.67768 0.65726 0.0
C243 C 0.03208 0.72961 0.69487 0.0
O244 O 0.03106 0.73115 0.72213 0.0
O245 O 0.99586 0.66815 0.69058 0.0
O246 O 0.96669 0.64329 0.69786 0.0
O247 O 0.98247 0.71294 0.72382 0.0
O248 O 0.96832 0.68112 0.72798 0.0
C249 C 0.98383 0.64994 0.69025 0.0
C250 C 0.96838 0.69719 0.73274 0.0
O251 O 0.01841 0.71528 0.68099 0.0
H252 H 0.2518 0.3598 0.12194 0.0
H253 H 0.20233 0.34298 0.06703 0.0
H254 H 0.19902 0.34797 0.15681 0.0
H255 H 0.16988 0.32228 0.14642 0.0
H256 H 0.12359 0.32537 0.10548 0.0
H257 H 0.17866 0.35273 0.06957 0.0
C258 C 0.23698 0.35621 0.11901 0.0
C259 C 0.22625 0.35402 0.14243 0.0
C260 C 0.22853 0.35252 0.09185 0.0
C261 C 0.20893 0.34648 0.08802 0.0
C262 C 0.19792 0.3447 0.11139 0.0
C263 C 0.20695 0.34883 0.13849 0.0
C264 C 0.177 0.33811 0.10812 0.0
C265 C 0.16461 0.32708 0.12906 0.0
C266 C 0.14547 0.32268 0.12849 0.0
C267 C 0.13823 0.3282 0.10576 0.0
C268 C 0.15001 0.33871 0.08436 0.0
C269 C 0.16943 0.34378 0.08552 0.0
H270 H 0.66739 0.90475 0.1238 0.0
H271 H 0.67883 0.86673 0.07367 0.0
H272 H 0.68145 0.86571 0.16427 0.0
H273 H 0.70091 0.85446 0.15686 0.0
H274 H 0.69352 0.80341 0.11292 0.0
H275 H 0.66832 0.83468 0.07731 0.0
C276 C 0.67133 0.89356 0.12261 0.0
C277 C 0.67521 0.88674 0.14722 0.0
C278 C 0.67244 0.88625 0.09629 0.0
C279 C 0.67748 0.87177 0.09428 0.0
C280 C 0.68054 0.8638 0.11874 0.0
C281 C 0.67926 0.87148 0.14516 0.0
C282 C 0.68476 0.84743 0.11674 0.0
C283 C 0.69525 0.84459 0.1386 0.0
C284 C 0.69826 0.82865 0.13745 0.0
C285 C 0.69176 0.81609 0.11362 0.0
C286 C 0.6812 0.8184 0.09192 0.0
C287 C 0.67744 0.83382 0.09361 0.0
H288 H 0.23221 0.90666 0.10623 0.0
H289 H 0.19372 0.85139 0.06572 0.0
H290 H 0.18824 0.86258 0.15316 0.0
H291 H 0.17683 0.83132 0.15502 0.0
H292 H 0.12861 0.78127 0.11544 0.0
H293 H 0.16179 0.83068 0.06683 0.0
C294 C 0.21993 0.89217 0.1073 0.0
C295 C 0.21154 0.88571 0.13292 0.0
C296 C 0.21344 0.87993 0.08319 0.0
C297 C 0.19788 0.86096 0.08428 0.0
C298 C 0.18818 0.85439 0.10937 0.0
C299 C 0.19515 0.86715 0.13355 0.0
C300 C 0.17151 0.83407 0.11081 0.0
C301 C 0.16764 0.82447 0.13641 0.0
C302 C 0.15216 0.80556 0.13819 0.0
C303 C 0.14067 0.7959 0.11418 0.0
C304 C 0.1443 0.80474 0.0885 0.0
C305 C 0.15949 0.8239 0.08678 0.0
H306 H 0.35367 0.11012 0.88183 0.0
H307 H 0.35573 0.15555 0.93364 0.0
H308 H 0.33334 0.14604 0.84739 0.0
H309 H 0.34322 0.17661 0.84856 0.0
H310 H 0.33932 0.2191 0.89979 0.0
H311 H 0.34325 0.17362 0.93932 0.0
C312 C 0.35065 0.12192 0.88422 0.0
C313 C 0.34341 0.12726 0.86131 0.0
C314 C 0.3544 0.13173 0.9103 0.0
C315 C 0.35166 0.14774 0.91353 0.0
C316 C 0.34449 0.15376 0.89075 0.0
C317 C 0.33986 0.14279 0.86493 0.0
C318 C 0.34244 0.17164 0.89344 0.0
C319 C 0.34173 0.18135 0.86925 0.0
C320 C 0.34042 0.19828 0.8715 0.0
C321 C 0.33984 0.20572 0.89794 0.0
C322 C 0.34143 0.19715 0.92218 0.0
C323 C 0.34235 0.18 0.92006 0.0
H324 H 0.78577 0.11058 0.88353 0.0
H325 H 0.83415 0.15633 0.9297 0.0
H326 H 0.83152 0.15384 0.83876 0.0
H327 H 0.86132 0.17193 0.84107 0.0
H328 H 0.90432 0.22461 0.88191 0.0
H329 H 0.85535 0.18682 0.92709 0.0
C330 C 0.79985 0.12346 0.88355 0.0
C331 C 0.80815 0.13067 0.85815 0.0
C332 C 0.80912 0.13284 0.90911 0.0
C333 C 0.82712 0.14984 0.90954 0.0
C334 C 0.8359 0.15789 0.88424 0.0
C335 C 0.82582 0.14814 0.85864 0.0
C336 C 0.85536 0.17616 0.88435 0.0
C337 C 0.86616 0.18116 0.85993 0.0
C338 C 0.88338 0.19874 0.85898 0.0
C339 C 0.89102 0.21088 0.88293 0.0
C340 C 0.88117 0.20633 0.9076 0.0
C341 C 0.86318 0.18928 0.90824 0.0
H342 H 0.77869 0.67344 0.88061 0.0
H343 H 0.82553 0.68363 0.93715 0.0
H344 H 0.8262 0.67062 0.84876 0.0
H345 H 0.85705 0.69109 0.85599 0.0
H346 H 0.89863 0.68458 0.90442 0.0
H347 H 0.84509 0.66993 0.94001 0.0
C348 C 0.79246 0.67434 0.88429 0.0
C349 C 0.80176 0.67192 0.86172 0.0
C350 C 0.8009 0.67838 0.91146 0.0
C351 C 0.81893 0.67995 0.91617 0.0
C352 C 0.82865 0.67762 0.89358 0.0
C353 C 0.81958 0.67319 0.86648 0.0
C354 C 0.8484 0.68038 0.89765 0.0
C355 C 0.86108 0.68714 0.87548 0.0
C356 C 0.87879 0.68794 0.87757 0.0
C357 C 0.88482 0.68385 0.90282 0.0
C358 C 0.87298 0.67782 0.92552 0.0
C359 C 0.85455 0.67562 0.92283 0.0
H360 H 0.92114 0.68251 0.44749 0.0
H361 H 0.87309 0.6728 0.39445 0.0
H362 H 0.87259 0.6805 0.48442 0.0
H363 H 0.8419 0.66098 0.47728 0.0
H364 H 0.80115 0.67222 0.43562 0.0
H365 H 0.85298 0.68581 0.39534 0.0
C366 C 0.90683 0.68053 0.44536 0.0
C367 C 0.89748 0.68095 0.46926 0.0
C368 C 0.89817 0.67758 0.41856 0.0
C369 C 0.87982 0.67551 0.41527 0.0
C370 C 0.8701 0.67632 0.43905 0.0
C371 C 0.87942 0.67945 0.46588 0.0
C372 C 0.85029 0.67373 0.43654 0.0
C373 C 0.83792 0.66623 0.45907 0.0
C374 C 0.82063 0.66633 0.45909 0.0
C375 C 0.81464 0.67225 0.43558 0.0
C376 C 0.82595 0.67877 0.41237 0.0
C377 C 0.84391 0.67975 0.41284 0.0
H378 H 0.33056 0.23734 0.45542 0.0
H379 H 0.34358 0.19987 0.40706 0.0
H380 H 0.3453 0.1995 0.49781 0.0
H381 H 0.36317 0.18673 0.4928 0.0
H382 H 0.35899 0.13736 0.44822 0.0
H383 H 0.33519 0.16896 0.40976 0.0
C384 C 0.33476 0.22633 0.45476 0.0
C385 C 0.33881 0.22002 0.47974 0.0
C386 C 0.33625 0.21892 0.42876 0.0
C387 C 0.34178 0.20478 0.42746 0.0
C388 C 0.34473 0.19705 0.45229 0.0
C389 C 0.34312 0.20491 0.47838 0.0
C390 C 0.34926 0.18081 0.45096 0.0
C391 C 0.35855 0.17742 0.47398 0.0
C392 C 0.3618 0.16162 0.47326 0.0
C393 C 0.35695 0.14986 0.44874 0.0
C394 C 0.34768 0.15275 0.42581 0.0
C395 C 0.34346 0.16785 0.42711 0.0
H396 H 0.90248 0.23722 0.45208 0.0
H397 H 0.85435 0.19228 0.40421 0.0
H398 H 0.8584 0.18997 0.49447 0.0
H399 H 0.82744 0.17666 0.49118 0.0
H400 H 0.7825 0.12545 0.44882 0.0
H401 H 0.83401 0.16036 0.40657 0.0
C402 C 0.88897 0.22363 0.45153 0.0
C403 C 0.88131 0.21475 0.47651 0.0
C404 C 0.87958 0.21521 0.42561 0.0
C405 C 0.86169 0.19806 0.42446 0.0
C406 C 0.85325 0.18895 0.44934 0.0
C407 C 0.86371 0.1972 0.47517 0.0
C408 C 0.83349 0.17133 0.4487 0.0
C409 C 0.82225 0.16719 0.4725 0.0
C410 C 0.80408 0.15057 0.47278 0.0
C411 C 0.7964 0.13859 0.44854 0.0
C412 C 0.80701 0.14224 0.42464 0.0
C413 C 0.82567 0.15835 0.42479 0.0
H414 H 1.01034 0.43441 0.20507 0.0
H415 H 1.0038 0.47373 0.26051 0.0
H416 H 0.01361 0.48541 0.17254 0.0
H417 H 0.99874 0.5016 0.17839 0.0
H418 H 1.00934 0.55028 0.23173 0.0
H419 H 0.01832 0.506 0.26532 0.0
C420 C 1.0097 0.44762 0.20847 0.0
C421 C 1.01167 0.45913 0.18586 0.0
C422 C 1.00705 0.45293 0.2354 0.0
C423 C 1.00628 0.47009 0.23967 0.0
C424 C 1.00836 0.48213 0.21711 0.0
C425 C 1.0112 0.47638 0.19023 0.0
C426 C 1.00793 0.50073 0.22149 0.0
C427 C 1.00298 0.5089 0.1989 0.0
C428 C 1.00427 0.52713 0.20223 0.0
C429 C 1.00865 0.53635 0.22885 0.0
C430 C 0.01334 0.52858 0.25156 0.0
C431 C 0.01343 0.51107 0.24784 0.0
H432 H 0.45615 0.44841 0.22423 0.0
H433 H 0.50473 0.49402 0.27072 0.0
H434 H 0.50037 0.49415 0.18013 0.0
H435 H 0.53104 0.50643 0.18329 0.0
H436 H 0.57674 0.55888 0.2216 0.0
H437 H 0.52608 0.52584 0.26676 0.0
C438 C 0.46973 0.46191 0.22437 0.0
C439 C 0.47744 0.47005 0.19906 0.0
C440 C 0.47925 0.47082 0.25006 0.0
C441 C 0.49727 0.48784 0.25065 0.0
C442 C 0.5057 0.49624 0.22539 0.0
C443 C 0.49509 0.48749 0.19979 0.0
C444 C 0.52567 0.51351 0.22523 0.0
C445 C 0.53653 0.5166 0.20122 0.0
C446 C 0.55464 0.53307 0.19957 0.0
C447 C 0.56284 0.54588 0.22292 0.0
C448 C 0.55278 0.54312 0.24726 0.0
C449 C 0.53404 0.52718 0.24832 0.0
H450 H 0.44257 0.99842 0.21449 0.0
H451 H 0.49183 0.01466 0.26959 0.0
H452 H 0.4931 1.0026 0.18116 0.0
H453 H 0.52239 0.02932 0.18886 0.0
H454 H 0.56966 0.02935 0.23176 0.0
H455 H 0.515 1.00324 0.26926 0.0
C456 C 0.45699 1.00084 0.21771 0.0
C457 C 0.46689 0.99999 0.19475 0.0
C458 C 0.46581 1.00588 0.24466 0.0
C459 C 0.48486 0.01003 0.24887 0.0
C460 C 0.49514 0.00928 0.2259 0.0
C461 C 0.48571 1.00371 0.19906 0.0
C462 C 0.51601 0.01563 0.2289 0.0
C463 C 0.52802 0.02557 0.20702 0.0
C464 C 0.54724 0.03032 0.20774 0.0
C465 C 0.55495 0.02632 0.23151 0.0
C466 C 0.54359 0.01686 0.25393 0.0
C467 C 0.52399 0.01126 0.25248 0.0
H468 H 0.58156 0.01514 0.79062 0.0
H469 H 0.5328 1.00106 0.73584 0.0
H470 H 0.5326 0.01487 0.8238 0.0
H471 H 0.50303 0.9868 0.81614 0.0
H472 H 0.45578 0.98765 0.77457 0.0
H473 H 0.51051 0.0145 0.73713 0.0
C474 C 0.56745 0.01354 0.78758 0.0
C475 C 0.55823 0.01569 0.81056 0.0
C476 C 0.55856 0.00863 0.76068 0.0
C477 C 0.5399 1.00557 0.75649 0.0
C478 C 0.53009 1.00718 0.77946 0.0
C479 C 0.53972 0.01293 0.80616 0.0
C480 C 0.50934 1.0012 0.77671 0.0
C481 C 0.49735 0.99084 0.79834 0.0
C482 C 0.47812 0.98605 0.79779 0.0
C483 C 0.47047 0.99065 0.77456 0.0
C484 C 0.48188 1.00068 0.75247 0.0
C485 C 0.50146 1.00615 0.75366 0.0
H486 H 1.00018 0.57 0.78594 0.0
H487 H 0.01327 0.53297 0.73639 0.0
H488 H 1.00675 0.52586 0.82571 0.0
H489 H 0.02843 0.51708 0.82218 0.0
H490 H 0.02749 0.46935 0.77784 0.0
H491 H 1.00435 0.501 0.73687 0.0
C492 C 1.0027 0.55783 0.78473 0.0
C493 C 1.0036 0.54893 0.80916 0.0
C494 C 1.00565 0.55173 0.75858 0.0
C495 C 1.01025 0.5369 0.75668 0.0
C496 C 1.01102 0.52739 0.78092 0.0
C497 C 1.00716 0.53335 0.80694 0.0
C498 C 0.01608 0.51157 0.77943 0.0
C499 C 0.0248 0.50813 0.80306 0.0
C500 C 0.02879 0.49288 0.80253 0.0
C501 C 0.02506 0.4816 0.77781 0.0
C502 C 0.01655 0.4846 0.75394 0.0
C503 C 1.01176 0.49938 0.75494 0.0
H504 H 0.5758 0.56692 0.78132 0.0
H505 H 0.53069 0.51512 0.74004 0.0
H506 H 0.52548 0.5307 0.82546 0.0
H507 H 0.50817 0.49927 0.82861 0.0
H508 H 0.45468 0.45775 0.78845 0.0
H509 H 0.49844 0.50006 0.73895 0.0
C510 C 0.56186 0.55394 0.78214 0.0
C511 C 0.55188 0.54987 0.8068 0.0
C512 C 0.5542 0.54155 0.75824 0.0
C513 C 0.53605 0.52483 0.75851 0.0
C514 C 0.5253 0.52053 0.7828 0.0
C515 C 0.5334 0.53345 0.80668 0.0
C516 C 0.50588 0.5026 0.78373 0.0
C517 C 0.49913 0.49395 0.80959 0.0
C518 C 0.48048 0.47835 0.81135 0.0
C519 C 0.46879 0.47044 0.78702 0.0
C520 C 0.4753 0.47785 0.76083 0.0
C521 C 0.49379 0.49407 0.7592 0.0
H522 H 0.68486 0.7725 0.54339 0.0
H523 H 0.67489 0.81087 0.59596 0.0
H524 H 0.68554 0.82158 0.50801 0.0
H525 H 0.66576 0.83279 0.51146 0.0
H526 H 0.67207 0.88231 0.5577 0.0
H527 H 0.68731 0.84403 0.59827 0.0
C528 C 0.68355 0.78538 0.54595 0.0
C529 C 0.68516 0.79629 0.52274 0.0
C530 C 0.68002 0.79066 0.57235 0.0
C531 C 0.67807 0.80723 0.57559 0.0
C532 C 0.67954 0.8185 0.55232 0.0
C533 C 0.6835 0.81294 0.52609 0.0
C534 C 0.67662 0.83573 0.55478 0.0
C535 C 0.66971 0.84121 0.53113 0.0
C536 C 0.66851 0.85815 0.53217 0.0
C537 C 0.67271 0.86898 0.55733 0.0
C538 C 0.679 0.86374 0.58141 0.0
C539 C 0.6814 0.84735 0.58 0.0
H540 H 0.11699 0.78775 0.55298 0.0
H541 H 0.16225 0.83849 0.59631 0.0
H542 H 0.17229 0.81686 0.51834 0.0
H543 H 0.18979 0.84774 0.51056 0.0
H544 H 0.24056 0.89351 0.55199 0.0
H545 H 0.19418 0.85493 0.60123 0.0
C546 C 0.1318 0.79938 0.55409 0.0
C547 C 0.14374 0.80106 0.53244 0.0
C548 C 0.13866 0.81243 0.57742 0.0
C549 C 0.15756 0.8281 0.57867 0.0
C550 C 0.16986 0.83054 0.55675 0.0
C551 C 0.16287 0.81628 0.53441 0.0
C552 C 0.18958 0.84809 0.55614 0.0
C553 C 0.19779 0.85465 0.53005 0.0
C554 C 0.21631 0.87054 0.52855 0.0
C555 C 0.22658 0.88058 0.55318 0.0
C556 C 0.21845 0.87534 0.57919 0.0
C557 C 0.20009 0.85894 0.58084 0.0
H558 H 0.10873 0.32651 0.54615 0.0
H559 H 0.15895 0.34319 0.59892 0.0
H560 H 0.15961 0.33355 0.50964 0.0
H561 H 0.18872 0.36078 0.51769 0.0
H562 H 0.23694 0.36118 0.558 0.0
H563 H 0.18258 0.3328 0.59626 0.0
C564 C 0.12332 0.32929 0.54837 0.0
C565 C 0.13312 0.32966 0.52451 0.0
C566 C 0.13235 0.33362 0.57517 0.0
C567 C 0.1518 0.33899 0.57829 0.0
C568 C 0.16199 0.3393 0.5546 0.0
C569 C 0.15224 0.33403 0.52795 0.0
C570 C 0.18297 0.34611 0.55693 0.0
C571 C 0.19469 0.35685 0.53525 0.0
C572 C 0.21405 0.36216 0.53541 0.0
C573 C 0.22213 0.35777 0.55835 0.0
C574 C 0.21106 0.34747 0.58057 0.0
C575 C 0.19134 0.34141 0.57968 0.0
H576 H 0.0212 0.38877 0.05334 0.0
H577 H 1.0014 0.42274 0.00942 0.0
H578 H 0.02326 0.40627 0.0972 0.0
H579 H 1.00447 0.44097 0.05262 0.0
H580 H 0.98924 0.45323 0.13897 0.0
H581 H 0.98952 0.43803 0.09424 0.0
H582 H 0.03926 0.43532 0.12431 0.0
H583 H 0.03815 0.44959 0.16955 0.0
C584 C 0.01755 0.40017 0.05303 0.0
C585 C 1.01092 0.40422 0.02806 0.0
C586 C 0.01886 0.41033 0.07813 0.0
C587 C 0.01392 0.42504 0.07865 0.0
C588 C 1.00792 0.42945 0.05333 0.0
C589 C 1.00625 0.41905 0.02846 0.0
C590 C 1.00036 0.44962 0.13575 0.0
C591 C 0.01365 0.45254 0.15758 0.0
C592 C 1.0006 0.44093 0.11009 0.0
C593 C 0.01438 0.43529 0.10552 0.0
C594 C 0.02817 0.43901 0.12716 0.0
C595 C 0.02769 0.44738 0.15298 0.0
H596 H 0.6338 0.59159 0.06788 0.0
H597 H 0.59681 0.61562 0.08111 0.0
H598 H 0.61359 0.56427 0.09632 0.0
H599 H 0.57665 0.58833 0.10929 0.0
H600 H 0.53815 0.5342 0.1498 0.0
H601 H 0.55479 0.55202 0.10922 0.0
H602 H 0.60875 0.56377 0.14826 0.0
H603 H 0.59207 0.54579 0.1887 0.0
C604 C 0.62119 0.59089 0.07643 0.0
C605 C 0.61698 0.60586 0.07241 0.0
C606 C 0.60965 0.57525 0.0927 0.0
C607 C 0.59357 0.57417 0.10497 0.0
C608 C 0.58882 0.58862 0.09975 0.0
C609 C 0.60045 0.60435 0.08374 0.0
C610 C 0.55347 0.53994 0.1492 0.0
C611 C 0.56389 0.5388 0.17246 0.0
C612 C 0.56299 0.55029 0.12612 0.0
C613 C 0.58306 0.55952 0.12582 0.0
C614 C 0.59326 0.55676 0.14788 0.0
C615 C 0.58375 0.54655 0.17106 0.0
H616 H 0.38879 0.99083 0.05922 0.0
H617 H 0.44212 0.00939 0.01905 0.0
H618 H 0.40336 0.98797 0.10311 0.0
H619 H 0.45635 1.00559 0.06212 0.0
H620 H 0.48328 0.02243 0.15068 0.0
H621 H 0.46814 0.02166 0.10565 0.0
H622 H 0.41573 0.97128 0.12881 0.0
H623 H 0.43088 0.97266 0.17454 0.0
C624 C 0.40352 0.99401 0.0597 0.0
C625 C 0.4144 1.00062 0.03587 0.0
C626 C 0.41187 0.99225 0.08478 0.0
C627 C 0.43116 0.99674 0.08635 0.0
C628 C 0.44167 1.00253 0.06204 0.0
C629 C 0.43347 1.00462 0.03724 0.0
C630 C 0.46864 0.01097 0.14592 0.0
C631 C 0.45828 0.99757 0.16604 0.0
C632 C 0.45991 0.01048 0.12004 0.0
C633 C 0.44063 0.9964 0.11343 0.0
C634 C 0.43046 0.98255 0.13329 0.0
C635 C 0.43916 0.98321 0.15939 0.0
H636 H 0.42266 0.01193 0.91416 0.0
H637 H 0.38839 0.94961 0.91968 0.0
H638 H 0.44537 0.008 0.88689 0.0
H639 H 0.4112 0.94567 0.89129 0.0
H640 H 0.44063 0.95741 0.80088 0.0
H641 H 0.41996 0.95353 0.83949 0.0
H642 H 0.46921 0.9958 0.89022 0.0
H643 H 0.48981 0.99996 0.85161 0.0
C644 C 0.42012 0.99739 0.91008 0.0
C645 C 0.40377 0.98111 0.91939 0.0
C646 C 0.43323 0.99514 0.89445 0.0
C647 C 0.43017 0.97653 0.88731 0.0
C648 C 0.41393 0.96017 0.89673 0.0
C649 C 0.40091 0.96245 0.91288 0.0
C650 C 0.44709 0.96541 0.8206 0.0
C651 C 0.46675 0.97923 0.82308 0.0
C652 C 0.43529 0.96309 0.84273 0.0
C653 C 0.44299 0.97463 0.86759 0.0
C654 C 0.46293 0.98691 0.87111 0.0
C655 C 0.47472 0.98916 0.84906 0.0
H656 H 0.06209 0.43291 0.9241 0.0
H657 H 1.00102 0.4019 0.90464 0.0
H658 H 0.06503 0.46066 0.89895 0.0
H659 H 1.00395 0.4296 0.8802 0.0
H660 H 1.01061 0.48476 0.85152 0.0
H661 H 0.01278 0.4648 0.88795 0.0
H662 H 0.06013 0.46522 0.8474 0.0
H663 H 0.05797 0.48523 0.81107 0.0
C664 C 0.04927 0.43208 0.9148 0.0
C665 C 0.03129 0.41518 0.91653 0.0
C666 C 0.05098 0.44798 0.90046 0.0
C667 C 0.0347 0.44738 0.88792 0.0
C668 C 0.01671 0.43066 0.89019 0.0
C669 C 0.01504 0.41471 0.90414 0.0
C670 C 0.02197 0.48125 0.85106 0.0
C671 C 0.03405 0.48641 0.82843 0.0
C672 C 0.02308 0.46965 0.87171 0.0
C673 C 0.03641 0.46319 0.87022 0.0
C674 C 0.04974 0.47 0.84913 0.0
C675 C 0.04851 0.48143 0.82834 0.0
H676 H 0.58468 0.62968 0.95409 0.0
H677 H 0.62614 0.61043 0.95501 0.0
H678 H 0.57015 0.61105 0.91024 0.0
H679 H 0.61092 0.59069 0.91226 0.0
H680 H 0.58984 0.56811 0.82422 0.0
H681 H 0.60552 0.58955 0.86492 0.0
H682 H 0.5507 0.58005 0.89113 0.0
H683 H 0.53526 0.56023 0.8486 0.0
C684 C 0.59065 0.62141 0.94485 0.0
C685 C 0.60658 0.62156 0.95785 0.0
C686 C 0.58219 0.61051 0.91984 0.0
C687 C 0.58914 0.5991 0.90757 0.0
C688 C 0.60529 0.59951 0.92057 0.0
C689 C 0.61404 0.6108 0.94521 0.0
C690 C 0.5811 0.57092 0.83822 0.0
C691 C 0.56121 0.5625 0.8327 0.0
C692 C 0.59012 0.58299 0.86205 0.0
C693 C 0.57948 0.58662 0.88165 0.0
C694 C 0.55953 0.57798 0.87639 0.0
C695 C 0.55055 0.56623 0.85213 0.0
H696 H 0.98052 0.60179 0.95679 0.0
H697 H 0.04132 0.62251 0.95857 0.0
H698 H 0.97605 0.5815 0.91469 0.0
H699 H 0.03705 0.60299 0.9163 0.0
H700 H 0.02419 0.55325 0.85808 0.0
H701 H 0.02498 0.57026 0.90148 0.0
H702 H 0.98164 0.58138 0.86601 0.0
H703 H 0.97988 0.56315 0.82326 0.0
C704 C 0.99295 0.60227 0.94792 0.0
C705 C 1.01124 0.61365 0.96112 0.0
C706 C 0.99041 0.59063 0.92381 0.0
C707 C 1.00614 0.59029 0.9123 0.0
C708 C 0.0245 0.60233 0.92499 0.0
C709 C 0.02699 0.61373 0.94913 0.0
C710 C 0.01444 0.55884 0.85974 0.0
C711 C 1.00215 0.55699 0.83694 0.0
C712 C 0.01513 0.56893 0.88452 0.0
C713 C 1.00371 0.57766 0.88709 0.0
C714 C 0.99067 0.57492 0.86485 0.0
C715 C 0.98983 0.56464 0.84015 0.0
H716 H 0.42691 0.38639 0.92142 0.0
H717 H 0.40768 0.42541 0.95047 0.0
H718 H 0.45011 0.41174 0.89278 0.0
H719 H 0.43117 0.45087 0.92252 0.0
H720 H 0.44799 0.47351 0.83331 0.0
H721 H 0.43158 0.45407 0.87253 0.0
H722 H 0.4788 0.44396 0.88936 0.0
H723 H 0.49514 0.46337 0.84937 0.0
C724 C 0.42793 0.4005 0.92216 0.0
C725 C 0.41525 0.4038 0.93777 0.0
C726 C 0.44132 0.41509 0.90592 0.0
C727 C 0.44233 0.43326 0.90512 0.0
C728 C 0.4305 0.43691 0.92225 0.0
C729 C 0.41705 0.42232 0.93829 0.0
C730 C 0.45502 0.46745 0.84578 0.0
C731 C 0.47272 0.46979 0.83833 0.0
C732 C 0.4457 0.45641 0.86838 0.0
C733 C 0.45385 0.44738 0.88404 0.0
C734 C 0.47209 0.45059 0.87751 0.0
C735 C 0.48151 0.46181 0.85486 0.0
H736 H 0.63385 0.0437 0.96227 0.0
H737 H 0.58871 0.98385 0.96475 0.0
H738 H 0.61851 0.04732 0.91976 0.0
H739 H 0.57391 0.9871 0.92191 0.0
H740 H 0.54091 0.99962 0.85908 0.0
H741 H 0.55624 1.00082 0.90414 0.0
H742 H 0.61174 0.03861 0.87157 0.0
H743 H 0.59627 0.03869 0.8272 0.0
C744 C 0.62081 0.03126 0.95351 0.0
C745 C 0.61245 0.01352 0.96692 0.0
C746 C 0.612 0.03331 0.92914 0.0
C747 C 0.59478 0.01758 0.91749 0.0
C748 C 0.5868 0.99973 0.93063 0.0
C749 C 0.59542 0.99778 0.9551 0.0
C750 C 0.55633 0.00869 0.86172 0.0
C751 C 0.56733 0.01884 0.83926 0.0
C752 C 0.56519 0.00908 0.88749 0.0
C753 C 0.58531 0.01939 0.89138 0.0
C754 C 0.59624 0.03048 0.86946 0.0
C755 C 0.58735 0.03032 0.84381 0.0
H756 H 0.63666 0.067 0.08534 0.0
H757 H 0.60284 1.00449 0.08852 0.0
H758 H 0.61368 0.07017 0.11426 0.0
H759 H 0.58 0.00767 0.11667 0.0
H760 H 0.53547 0.01519 0.15441 0.0
H761 H 0.55587 0.01899 0.11566 0.0
H762 H 0.60521 0.06232 0.1652 0.0
H763 H 0.58472 0.0588 0.20388 0.0
C764 C 0.62421 0.05395 0.09177 0.0
C765 C 0.62157 0.03547 0.08454 0.0
C766 C 0.61109 0.05579 0.10829 0.0
C767 C 0.59497 0.03917 0.11745 0.0
C768 C 0.59207 0.02074 0.10943 0.0
C769 C 0.60526 0.01892 0.09335 0.0
C770 C 0.55053 0.02609 0.15667 0.0
C771 C 0.55856 0.03652 0.18231 0.0
C772 C 0.56223 0.02812 0.13456 0.0
C773 C 0.58214 0.04068 0.13764 0.0
C774 C 0.5899 0.05253 0.16224 0.0
C775 C 0.5782 0.05044 0.18443 0.0
H776 H 0.02859 0.61304 0.07777 0.0
H777 H 0.96716 0.58377 0.08414 0.0
H778 H 0.03008 0.58898 0.10621 0.0
H779 H 0.96874 0.56003 0.11389 0.0
H780 H 0.97722 0.51419 0.15811 0.0
H781 H 0.97534 0.53352 0.12006 0.0
H782 H 0.02711 0.58371 0.15462 0.0
H783 H 0.0293 0.56444 0.19131 0.0
C784 C 0.01537 0.60143 0.08508 0.0
C785 C 0.9978 0.60051 0.07888 0.0
C786 C 0.01622 0.58763 0.10159 0.0
C787 C 0.99957 0.57273 0.11282 0.0
C788 C 0.98184 0.57122 0.10549 0.0
C789 C 0.98096 0.58493 0.08858 0.0
C790 C 0.98828 0.52928 0.15716 0.0
C791 C 1.00325 0.53788 0.17787 0.0
C792 C 0.98715 0.54039 0.13556 0.0
C793 C 1.00108 0.5602 0.13422 0.0
C794 C 0.01628 0.56848 0.15459 0.0
C795 C 0.01739 0.55747 0.17595 0.0
H796 H 0.39836 0.403 0.05609 0.0
H797 H 0.4439 0.38929 0.05685 0.0
H798 H 0.41426 0.42586 0.09606 0.0
H799 H 0.4594 0.41148 0.09735 0.0
H800 H 0.49343 0.46552 0.15171 0.0
H801 H 0.47701 0.44502 0.10993 0.0
H802 H 0.42235 0.42886 0.14451 0.0
H803 H 0.43878 0.45039 0.18535 0.0
C804 C 0.41159 0.4046 0.0651 0.0
C805 C 0.41988 0.39435 0.05322 0.0
C806 C 0.42073 0.41773 0.08804 0.0
C807 C 0.43828 0.42076 0.09982 0.0
C808 C 0.4462 0.40998 0.08843 0.0
C809 C 0.43718 0.39706 0.06535 0.0
C810 C 0.47792 0.45799 0.1501 0.0
C811 C 0.46746 0.45949 0.17209 0.0
C812 C 0.46846 0.44593 0.12632 0.0
C813 C 0.4483 0.43492 0.124 0.0
C814 C 0.43786 0.4371 0.14544 0.0
C815 C 0.44731 0.44931 0.16908 0.0
H816 H 0.67725 0.76137 0.34628 0.0
H817 H 0.69532 0.72588 0.3898 0.0
H818 H 0.68018 0.77922 0.38978 0.0
H819 H 0.69723 0.74303 0.43404 0.0
H820 H 0.71137 0.78586 0.50762 0.0
H821 H 0.71294 0.77165 0.46255 0.0
H822 H 0.66427 0.77558 0.43056 0.0
H823 H 0.66345 0.79058 0.47508 0.0
C824 C 0.68172 0.75728 0.3653 0.0
C825 C 0.68588 0.7421 0.3647 0.0
C826 C 0.68329 0.76745 0.39036 0.0
C827 C 0.68866 0.76246 0.41571 0.0
C828 C 0.69326 0.7475 0.41498 0.0
C829 C 0.69206 0.73755 0.38967 0.0
C830 C 0.70121 0.78388 0.49071 0.0
C831 C 0.68736 0.7894 0.49471 0.0
C832 C 0.70197 0.77558 0.46496 0.0
C833 C 0.68869 0.77233 0.44275 0.0
C834 C 0.67502 0.77817 0.44682 0.0
C835 C 0.67448 0.78675 0.47239 0.0
H836 H 0.29053 0.92415 0.39001 0.0
H837 H 0.26235 0.95663 0.41089 0.0
H838 H 0.26917 0.89829 0.41968 0.0
H839 H 0.24116 0.93089 0.44054 0.0
H840 H 0.19967 0.87858 0.48426 0.0
H841 H 0.21549 0.89645 0.44312 0.0
H842 H 0.26764 0.89789 0.47127 0.0
H843 H 0.25173 0.87982 0.51197 0.0
C844 C 0.2796 0.92565 0.40057 0.0
C845 C 0.27823 0.94251 0.39829 0.0
C846 C 0.26741 0.91085 0.41757 0.0
C847 C 0.25356 0.91261 0.4325 0.0
C848 C 0.25152 0.929 0.42901 0.0
C849 C 0.26376 0.94382 0.41212 0.0
C850 C 0.21433 0.88224 0.48113 0.0
C851 C 0.22457 0.87799 0.5013 0.0
C852 C 0.22342 0.89258 0.45777 0.0
C853 C 0.24283 0.8987 0.45413 0.0
C854 C 0.25263 0.89325 0.47336 0.0
C855 C 0.24359 0.88304 0.49676 0.0
H856 H 0.05704 0.30245 0.3735 0.0
H857 H 0.09872 0.36371 0.37473 0.0
H858 H 0.07297 0.29907 0.41548 0.0
H859 H 0.11406 0.36065 0.4172 0.0
H860 H 0.14958 0.3492 0.47746 0.0
H861 H 0.13369 0.34881 0.43337 0.0
H862 H 0.07924 0.30599 0.4639 0.0
H863 H 0.0954 0.30517 0.50713 0.0
C864 C 0.0694 0.31525 0.38303 0.0
C865 C 0.07667 0.33332 0.37075 0.0
C866 C 0.07856 0.31334 0.40712 0.0
C867 C 0.09503 0.32953 0.41966 0.0
C868 C 0.10182 0.34771 0.40776 0.0
C869 C 0.09287 0.34954 0.38353 0.0
C870 C 0.13431 0.33925 0.47453 0.0
C871 C 0.12379 0.32738 0.49614 0.0
C872 C 0.12509 0.33931 0.44935 0.0
C873 C 0.10505 0.32773 0.4452 0.0
C874 C 0.09466 0.31512 0.46622 0.0
C875 C 0.10394 0.31483 0.49124 0.0
H876 H 0.08871 0.34313 0.25191 0.0
H877 H 0.05435 0.28045 0.24847 0.0
H878 H 0.11196 0.34121 0.22307 0.0
H879 H 0.07776 0.27857 0.21896 0.0
H880 H 0.15668 0.33507 0.18294 0.0
H881 H 0.13585 0.32955 0.22176 0.0
H882 H 0.08687 0.28902 0.16893 0.0
H883 H 0.10777 0.2943 0.13015 0.0
C884 C 0.08624 0.32892 0.24544 0.0
C885 C 0.06964 0.31197 0.25253 0.0
C886 C 0.09967 0.32781 0.229 0.0
C887 C 0.09672 0.30972 0.21891 0.0
C888 C 0.08038 0.29269 0.22651 0.0
C889 C 0.06702 0.2938 0.24339 0.0
C890 C 0.14159 0.3244 0.17991 0.0
C891 C 0.1338 0.31529 0.15342 0.0
C892 C 0.12965 0.32138 0.20207 0.0
C893 C 0.10973 0.30911 0.19818 0.0
C894 C 0.10218 0.29853 0.17253 0.0
C895 C 0.11411 0.30164 0.1503 0.0
H896 H 0.67397 0.74077 0.2434 0.0
H897 H 0.73564 0.76943 0.25473 0.0
H898 H 0.67676 0.7682 0.21841 0.0
H899 H 0.7384 0.79687 0.22884 0.0
H900 H 0.72628 0.81886 0.14096 0.0
H901 H 0.72997 0.79956 0.17708 0.0
H902 H 0.68821 0.80452 0.2257 0.0
H903 H 0.68456 0.82385 0.18961 0.0
C904 C 0.68812 0.75301 0.24099 0.0
C905 C 0.70455 0.75289 0.25131 0.0
C906 C 0.68971 0.76881 0.22671 0.0
C907 C 0.70779 0.78477 0.22194 0.0
C908 C 0.72428 0.78479 0.23234 0.0
C909 C 0.72267 0.76907 0.24711 0.0
C910 C 0.71846 0.81644 0.15989 0.0
C911 C 0.70507 0.82274 0.16246 0.0
C912 C 0.72056 0.8054 0.18055 0.0
C913 C 0.70914 0.8003 0.20394 0.0
C914 C 0.69703 0.80808 0.20769 0.0
C915 C 0.6951 0.81932 0.1872 0.0
H916 H 0.28982 0.94807 0.27666 0.0
H917 H 0.24512 0.96266 0.28313 0.0
H918 H 0.27355 0.92797 0.2345 0.0
H919 H 0.22927 0.94334 0.24024 0.0
H920 H 0.19487 0.89131 0.1793 0.0
H921 H 0.21106 0.91108 0.22193 0.0
H922 H 0.26597 0.92833 0.18732 0.0
H923 H 0.24993 0.90752 0.14612 0.0
C924 C 0.27672 0.9473 0.26874 0.0
C925 C 0.26877 0.95695 0.28325 0.0
C926 C 0.26735 0.93578 0.24449 0.0
C927 C 0.24998 0.9339 0.23387 0.0
C928 C 0.24236 0.94404 0.24804 0.0
C929 C 0.25157 0.95531 0.27251 0.0
C930 C 0.21039 0.89914 0.18098 0.0
C931 C 0.22103 0.89792 0.15905 0.0
C932 C 0.21971 0.91072 0.20528 0.0
C933 C 0.2399 0.92145 0.20815 0.0
C934 C 0.25045 0.92015 0.18619 0.0
C935 C 0.24118 0.90842 0.16219 0.0
H936 H 0.66489 0.95757 0.28044 0.0
H937 H 0.69102 0.92794 0.32095 0.0
H938 H 0.66231 0.94001 0.23609 0.0
H939 H 0.68823 0.91039 0.27693 0.0
H940 H 0.66194 0.86938 0.19728 0.0
H941 H 0.66187 0.88514 0.24192 0.0
H942 H 0.68797 0.94072 0.20379 0.0
H943 H 0.68886 0.92533 0.15971 0.0
C944 C 0.66993 0.94724 0.27993 0.0
C945 C 0.67831 0.94428 0.3041 0.0
C946 C 0.6685 0.93724 0.2546 0.0
C947 C 0.67507 0.92385 0.25317 0.0
C948 C 0.68293 0.9205 0.27751 0.0
C949 C 0.68466 0.9307 0.30263 0.0
C950 C 0.66787 0.88498 0.19848 0.0
C951 C 0.67528 0.89602 0.17476 0.0
C952 C 0.66769 0.89396 0.22397 0.0
C953 C 0.67469 0.9141 0.22613 0.0
C954 C 0.68211 0.92512 0.20254 0.0
C955 C 0.68257 0.91624 0.17727 0.0
H956 H 0.10589 0.71887 0.26434 0.0
H957 H 0.07665 0.75194 0.26646 0.0
H958 H 0.13005 0.74296 0.23569 0.0
H959 H 0.10035 0.77561 0.23669 0.0
H960 H 0.14773 0.8196 0.18854 0.0
H961 H 0.13275 0.80069 0.22936 0.0
H962 H 0.12935 0.75 0.1879 0.0
H963 H 0.14484 0.76902 0.14797 0.0
C964 C 0.10471 0.73138 0.25901 0.0
C965 C 0.08924 0.73338 0.26755 0.0
C966 C 0.11854 0.74516 0.2424 0.0
C967 C 0.11707 0.76114 0.2336 0.0
C968 C 0.1021 0.76363 0.24331 0.0
C969 C 0.08837 0.74993 0.26018 0.0
C970 C 0.14433 0.80458 0.18869 0.0
C971 C 0.1472 0.79567 0.16504 0.0
C972 C 0.13555 0.79369 0.21187 0.0
C973 C 0.12957 0.77374 0.21178 0.0
C974 C 0.13386 0.76532 0.18891 0.0
C975 C 0.14261 0.77618 0.16586 0.0
H976 H 0.3056 0.36221 0.27606 0.0
H977 H 0.25115 0.33798 0.31498 0.0
H978 H 0.29065 0.36547 0.23278 0.0
H979 H 0.23651 0.34201 0.27261 0.0
H980 H 0.21087 0.32825 0.1834 0.0
H981 H 0.22622 0.32764 0.22756 0.0
H982 H 0.27658 0.38192 0.20986 0.0
H983 H 0.26127 0.38208 0.16502 0.0
C984 C 0.29052 0.35779 0.27546 0.0
C985 C 0.27951 0.34957 0.29877 0.0
C986 C 0.28195 0.35977 0.25074 0.0
C987 C 0.26227 0.35382 0.24903 0.0
C988 C 0.25153 0.34626 0.2728 0.0
C989 C 0.25998 0.34402 0.2972 0.0
C990 C 0.22508 0.34023 0.18919 0.0
C991 C 0.23483 0.35524 0.17084 0.0
C992 C 0.23393 0.33991 0.21455 0.0
C993 C 0.25271 0.35474 0.2224 0.0
C994 C 0.26226 0.37008 0.20433 0.0
C995 C 0.25345 0.37028 0.17876 0.0
H996 H 0.2706 0.3381 0.41895 0.0
H997 H 0.30427 0.40054 0.41447 0.0
H998 H 0.24736 0.34142 0.44576 0.0
H999 H 0.28089 0.40386 0.44227 0.0
H1000 H 0.25113 0.39167 0.53206 0.0
H1001 H 0.27191 0.39603 0.49345 0.0
H1002 H 0.2231 0.35278 0.44294 0.0
H1003 H 0.20241 0.34814 0.48162 0.0
C1004 C 0.2729 0.35254 0.42316 0.0
C1005 C 0.28927 0.36902 0.41434 0.0
C1006 C 0.25948 0.35444 0.4385 0.0
C1007 C 0.2622 0.3729 0.44581 0.0
C1008 C 0.27842 0.38946 0.43675 0.0
C1009 C 0.29177 0.38753 0.42092 0.0
C1010 C 0.24477 0.38356 0.51238 0.0
C1011 C 0.22524 0.36931 0.51001 0.0
C1012 C 0.25663 0.38614 0.49023 0.0
C1013 C 0.24913 0.37446 0.46545 0.0
C1014 C 0.22926 0.36178 0.46201 0.0
C1015 C 0.21739 0.35925 0.48408 0.0
H1016 H 0.63333 0.92447 0.43603 0.0
H1017 H 0.68531 0.93543 0.39759 0.0
H1018 H 0.63369 0.89876 0.46258 0.0
H1019 H 0.68539 0.90936 0.42298 0.0
H1020 H 0.69632 0.88746 0.50572 0.0
H1021 H 0.69281 0.90665 0.4698 0.0
H1022 H 0.63143 0.86766 0.46529 0.0
H1023 H 0.63519 0.84878 0.50241 0.0
C1024 C 0.64464 0.92111 0.43292 0.0
C1025 C 0.65963 0.9323 0.41549 0.0
C1026 C 0.64479 0.90628 0.44792 0.0
C1027 C 0.65978 0.90216 0.44533 0.0
C1028 C 0.67396 0.91251 0.42621 0.0
C1029 C 0.67398 0.92752 0.41168 0.0
C1030 C 0.68215 0.88276 0.49648 0.0
C1031 C 0.66604 0.86669 0.5065 0.0
C1032 C 0.68009 0.89369 0.47579 0.0
C1033 C 0.66181 0.88876 0.46454 0.0
C1034 C 0.64569 0.872 0.47371 0.0
C1035 C 0.6478 0.86106 0.49464 0.0
H1036 H 0.12278 0.73565 0.37425 0.0
H1037 H 0.06612 0.71722 0.40308 0.0
H1038 H 0.13699 0.75638 0.41644 0.0
H1039 H 0.0806 0.73804 0.44578 0.0
H1040 H 0.11754 0.76184 0.53048 0.0
H1041 H 0.10263 0.74018 0.48902 0.0
H1042 H 0.13745 0.78712 0.43618 0.0
H1043 H 0.15182 0.80911 0.4774 0.0
C1044 C 0.11331 0.73588 0.38968 0.0
C1045 C 0.09326 0.72472 0.38526 0.0
C1046 C 0.12151 0.74788 0.41378 0.0
C1047 C 0.1099 0.74885 0.43427 0.0
C1048 C 0.08986 0.73746 0.43028 0.0
C1049 C 0.08159 0.72562 0.40585 0.0
C1050 C 0.12191 0.76766 0.51004 0.0
C1051 C 0.13587 0.78733 0.50737 0.0
C1052 C 0.11337 0.75521 0.48634 0.0
C1053 C 0.11883 0.76202 0.45946 0.0
C1054 C 0.13307 0.78148 0.45672 0.0
C1055 C 0.14141 0.79402 0.48038 0.0
H1056 H 0.35608 0.05926 0.72837 0.0
H1057 H 0.3261 0.08459 0.68649 0.0
H1058 H 0.35557 0.07513 0.77278 0.0
H1059 H 0.32579 0.10044 0.73056 0.0
H1060 H 0.35144 0.1431 0.80966 0.0
H1061 H 0.35057 0.12698 0.76498 0.0
H1062 H 0.3293 0.0725 0.80536 0.0
H1063 H 0.32942 0.08832 0.8498 0.0
C1064 C 0.34946 0.06823 0.7286 0.0
C1065 C 0.34107 0.07058 0.70392 0.0
C1066 C 0.34907 0.07721 0.754 0.0
C1067 C 0.34061 0.08899 0.75505 0.0
C1068 C 0.33249 0.09155 0.73033 0.0
C1069 C 0.3326 0.08235 0.70513 0.0
C1070 C 0.34615 0.1276 0.80894 0.0
C1071 C 0.34066 0.11708 0.83345 0.0
C1072 C 0.34581 0.11841 0.78338 0.0
C1073 C 0.34016 0.09856 0.78185 0.0
C1074 C 0.33411 0.0879 0.80608 0.0
C1075 C 0.33418 0.097 0.83151 0.0
H1076 H 0.97551 0.27044 0.75983 0.0
H1077 H 0.92895 0.27466 0.72062 0.0
H1078 H 0.95283 0.24367 0.78692 0.0
H1079 H 0.90603 0.24713 0.74616 0.0
H1080 H 0.8774 0.22318 0.82879 0.0
H1081 H 0.89648 0.2428 0.79158 0.0
H1082 H 0.92798 0.21182 0.7918 0.0
H1083 H 0.90918 0.19284 0.83054 0.0
C1084 C 0.96034 0.26532 0.75666 0.0
C1085 C 0.95395 0.27487 0.73884 0.0
C1086 C 0.94727 0.24983 0.77194 0.0
C1087 C 0.92751 0.24331 0.76913 0.0
C1088 C 0.92114 0.25211 0.74962 0.0
C1089 C 0.93425 0.2679 0.73495 0.0
C1090 C 0.88807 0.22026 0.82026 0.0
C1091 C 0.89186 0.20656 0.8322 0.0
C1092 C 0.89901 0.23144 0.7988 0.0
C1093 C 0.91395 0.22906 0.78861 0.0
C1094 C 0.91685 0.21432 0.79944 0.0
C1095 C 0.90597 0.20326 0.8213 0.0
H1096 H 0.7781 0.68102 0.68519 0.0
H1097 H 0.7238 0.65949 0.72366 0.0
H1098 H 0.79257 0.67852 0.72898 0.0
H1099 H 0.73851 0.65814 0.76827 0.0
H1100 H 0.76598 0.6447 0.84124 0.0
H1101 H 0.75126 0.64297 0.79506 0.0
H1102 H 0.80371 0.69366 0.77256 0.0
H1103 H 0.81853 0.69444 0.81799 0.0
C1104 C 0.76931 0.67595 0.7032 0.0
C1105 C 0.74986 0.67059 0.7011 0.0
C1106 C 0.77764 0.67462 0.72844 0.0
C1107 C 0.76685 0.66833 0.75248 0.0
C1108 C 0.74727 0.66276 0.75021 0.0
C1109 C 0.73882 0.66367 0.7247 0.0
C1110 C 0.77436 0.65521 0.82609 0.0
C1111 C 0.79339 0.66961 0.83296 0.0
C1112 C 0.7659 0.6544 0.79974 0.0
C1113 C 0.77617 0.66825 0.77991 0.0
C1114 C 0.79538 0.68246 0.78686 0.0
C1115 C 0.80392 0.683 0.81297 0.0
H1116 H 0.76506 0.67742 0.60469 0.0
H1117 H 0.72457 0.62242 0.56335 0.0
H1118 H 0.79009 0.67965 0.57521 0.0
H1119 H 0.74966 0.62472 0.53327 0.0
H1120 H 0.80254 0.63284 0.48812 0.0
H1121 H 0.78152 0.62691 0.52752 0.0
H1122 H 0.79331 0.68622 0.52572 0.0
H1123 H 0.81411 0.69197 0.48707 0.0
C1124 C 0.76152 0.66581 0.58927 0.0
C1125 C 0.74277 0.65008 0.58562 0.0
C1126 C 0.77589 0.667 0.5725 0.0
C1127 C 0.77175 0.65258 0.55148 0.0
C1128 C 0.75331 0.63606 0.54931 0.0
C1129 C 0.73893 0.63478 0.56639 0.0
C1130 C 0.8008 0.64459 0.49667 0.0
C1131 C 0.80978 0.66282 0.4847 0.0
C1132 C 0.78874 0.6412 0.51899 0.0
C1133 C 0.78581 0.65612 0.52979 0.0
C1134 C 0.79547 0.67451 0.51829 0.0
C1135 C 0.80728 0.67779 0.49602 0.0
H1136 H 0.39716 0.10437 0.597 0.0
H1137 H 0.33562 0.07359 0.58267 0.0
H1138 H 0.39948 0.13101 0.56962 0.0
H1139 H 0.33795 0.10023 0.55592 0.0
H1140 H 0.3452 0.15531 0.52347 0.0
H1141 H 0.3478 0.13608 0.5607 0.0
H1142 H 0.39254 0.13295 0.51751 0.0
H1143 H 0.38989 0.15216 0.48028 0.0
C1144 C 0.38411 0.10338 0.58839 0.0
C1145 C 0.36618 0.0868 0.59208 0.0
C1146 C 0.38547 0.11863 0.57272 0.0
C1147 C 0.3689 0.11776 0.56082 0.0
C1148 C 0.35096 0.10147 0.56524 0.0
C1149 C 0.34962 0.08612 0.5805 0.0
C1150 C 0.35608 0.15114 0.52249 0.0
C1151 C 0.36731 0.15515 0.49898 0.0
C1152 C 0.35742 0.13995 0.54362 0.0
C1153 C 0.37018 0.1328 0.54178 0.0
C1154 C 0.38261 0.13831 0.51953 0.0
C1155 C 0.38111 0.14928 0.49823 0.0
H1156 H 0.91541 0.28903 0.62653 0.0
H1157 H 0.96213 0.27748 0.61977 0.0
H1158 H 0.89947 0.26834 0.58485 0.0
H1159 H 0.94576 0.25594 0.57869 0.0
H1160 H 0.92007 0.23447 0.48941 0.0
H1161 H 0.93673 0.25439 0.53136 0.0
H1162 H 0.88234 0.23584 0.56853 0.0
H1163 H 0.86565 0.21716 0.52561 0.0
C1164 C 0.92225 0.282 0.61614 0.0
C1165 C 0.94005 0.28493 0.62643 0.0
C1166 C 0.913 0.26992 0.59237 0.0
C1167 C 0.92113 0.26017 0.57847 0.0
C1168 C 0.93911 0.26333 0.58858 0.0
C1169 C 0.94852 0.27569 0.61217 0.0
C1170 C 0.91163 0.23474 0.50645 0.0
C1171 C 0.89146 0.22445 0.50383 0.0
C1172 C 0.92123 0.24599 0.53076 0.0
C1173 C 0.91095 0.24702 0.55335 0.0
C1174 C 0.89078 0.23585 0.55133 0.0
C1175 C 0.88117 0.22481 0.52684 0.0
H1176 H 0.36143 0.26671 0.65044 0.0
H1177 H 0.33225 0.29412 0.61227 0.0
H1178 H 0.35626 0.24751 0.60718 0.0
H1179 H 0.32735 0.27495 0.56856 0.0
H1180 H 0.35194 0.25872 0.49026 0.0
H1181 H 0.35212 0.27517 0.53389 0.0
H1182 H 0.32786 0.22082 0.5752 0.0
H1183 H 0.32669 0.20391 0.53099 0.0
C1184 C 0.35389 0.26863 0.63279 0.0
C1185 C 0.34741 0.28208 0.63466 0.0
C1186 C 0.35079 0.25748 0.60813 0.0
C1187 C 0.34141 0.25976 0.58461 0.0
C1188 C 0.33467 0.273 0.58647 0.0
C1189 C 0.33744 0.28392 0.61141 0.0
C1190 C 0.34618 0.25008 0.50838 0.0
C1191 C 0.3391 0.22987 0.50689 0.0
C1192 C 0.34636 0.25958 0.53341 0.0
C1193 C 0.33985 0.24923 0.55778 0.0
C1194 C 0.33296 0.22911 0.5566 0.0
C1195 C 0.33245 0.21948 0.53135 0.0
H1196 H 0.75776 0.06183 0.58178 0.0
H1197 H 0.72113 0.08591 0.59783 0.0
H1198 H 0.77849 0.09012 0.55572 0.0
H1199 H 0.74189 0.11422 0.5714 0.0
H1200 H 0.76653 0.13813 0.48216 0.0
H1201 H 0.74838 0.11785 0.52001 0.0
H1202 H 0.80088 0.12634 0.56018 0.0
H1203 H 0.81899 0.14651 0.52215 0.0
C1204 C 0.75428 0.07327 0.58016 0.0
C1205 C 0.73778 0.07157 0.59188 0.0
C1206 C 0.76624 0.08957 0.56535 0.0
C1207 C 0.76186 0.10444 0.56169 0.0
C1208 C 0.74559 0.10297 0.57389 0.0
C1209 C 0.73372 0.08674 0.58898 0.0
C1210 C 0.77421 0.13618 0.49959 0.0
C1211 C 0.7941 0.14371 0.49916 0.0
C1212 C 0.76386 0.12461 0.52128 0.0
C1213 C 0.77321 0.12027 0.54276 0.0
C1214 C 0.7933 0.12927 0.54364 0.0
C1215 C 0.80368 0.14098 0.52207 0.0
H1216 H 0.97445 0.69291 0.60988 0.0
H1217 H 0.91843 0.66855 0.64406 0.0
H1218 H 0.96094 0.69544 0.56457 0.0
H1219 H 0.90516 0.67156 0.59903 0.0
H1220 H 0.8967 0.70011 0.51791 0.0
H1221 H 0.91112 0.70095 0.56416 0.0
H1222 H 0.93351 0.66585 0.53062 0.0
H1223 H 0.91827 0.66384 0.4851 0.0
C1224 C 0.95934 0.68834 0.6078 0.0
C1225 C 0.94745 0.68037 0.63037 0.0
C1226 C 0.95165 0.68978 0.58196 0.0
C1227 C 0.93207 0.68374 0.57851 0.0
C1228 C 0.92033 0.67644 0.60131 0.0
C1229 C 0.92791 0.67458 0.62693 0.0
C1230 C 0.90448 0.69237 0.52041 0.0
C1231 C 0.9064 0.68204 0.49755 0.0
C1232 C 0.91285 0.69301 0.54681 0.0
C1233 C 0.92359 0.68368 0.55067 0.0
C1234 C 0.9256 0.67348 0.52797 0.0
C1235 C 0.91693 0.67246 0.50184 0.0
H1236 H 0.93144 0.66786 0.73632 0.0
H1237 H 0.97029 0.72762 0.76337 0.0
H1238 H 0.90766 0.66685 0.76716 0.0
H1239 H 0.94636 0.72653 0.79484 0.0
H1240 H 0.89266 0.71766 0.84093 0.0
H1241 H 0.91259 0.72133 0.80084 0.0
H1242 H 0.90958 0.66688 0.81882 0.0
H1243 H 0.88986 0.66327 0.85809 0.0
C1244 C 0.93491 0.68081 0.74876 0.0
C1245 C 0.95295 0.69762 0.74803 0.0
C1246 C 0.92122 0.68027 0.76634 0.0
C1247 C 0.92532 0.69648 0.7838 0.0
C1248 C 0.94281 0.71382 0.78156 0.0
C1249 C 0.95652 0.7144 0.76369 0.0
C1250 C 0.8962 0.70649 0.83595 0.0
C1251 C 0.88996 0.69029 0.85259 0.0
C1252 C 0.9076 0.7086 0.81322 0.0
C1253 C 0.9125 0.69432 0.80665 0.0
C1254 C 0.90581 0.67797 0.82305 0.0
C1255 C 0.89469 0.676 0.84572 0.0
H1256 H 0.36848 0.28942 0.75491 0.0
H1257 H 0.30662 0.25579 0.75168 0.0
H1258 H 0.3701 0.26494 0.78186 0.0
H1259 H 0.30825 0.23158 0.78042 0.0
H1260 H 0.31771 0.18592 0.82284 0.0
H1261 H 0.31706 0.20641 0.78559 0.0
H1262 H 0.36426 0.25675 0.82898 0.0
H1263 H 0.36521 0.23635 0.86506 0.0
C1264 C 0.35518 0.27672 0.75966 0.0
C1265 C 0.33742 0.27465 0.75105 0.0
C1266 C 0.35612 0.2627 0.77545 0.0
C1267 C 0.33932 0.24638 0.7837 0.0
C1268 C 0.32149 0.24388 0.77425 0.0
C1269 C 0.32055 0.25785 0.758 0.0
C1270 C 0.32817 0.2013 0.82386 0.0
C1271 C 0.34142 0.20962 0.84682 0.0
C1272 C 0.32768 0.21306 0.80279 0.0
C1273 C 0.34057 0.23326 0.8043 0.0
C1274 C 0.3543 0.24126 0.82678 0.0
C1275 C 0.35476 0.2296 0.84765 0.0
H1276 H 0.78019 0.08217 0.68754 0.0
H1277 H 0.72723 0.04835 0.72894 0.0
H1278 H 0.79491 0.10193 0.73062 0.0
H1279 H 0.74225 0.06806 0.77239 0.0
H1280 H 0.78816 0.09114 0.8485 0.0
H1281 H 0.77134 0.07269 0.80548 0.0
H1282 H 0.78969 0.12606 0.76326 0.0
H1283 H 0.80578 0.14479 0.8068 0.0
C1284 C 0.7717 0.07891 0.70587 0.0
C1285 C 0.75257 0.06359 0.7049 0.0
C1286 C 0.78011 0.09035 0.73044 0.0
C1287 C 0.76971 0.08652 0.75474 0.0
C1288 C 0.75057 0.07125 0.75388 0.0
C1289 C 0.74199 0.06002 0.72907 0.0
C1290 C 0.78834 0.09906 0.8303 0.0
C1291 C 0.79829 0.11956 0.83135 0.0
C1292 C 0.77872 0.08842 0.80562 0.0
C1293 C 0.77914 0.09796 0.78117 0.0
C1294 C 0.78922 0.11838 0.7819 0.0
C1295 C 0.79856 0.12908 0.80679 0.0
H1296 H 0.06412 0.36315 0.02996 0.0
H1297 H 0.0825 0.35353 0.9501 0.0
H1298 H 0.08955 0.35996 0.05383 0.0
H1299 H 0.10798 0.35048 0.97398 0.0
H1300 H 0.13311 0.32125 0.03371 0.0
H1301 H 0.11132 0.32768 0.0051 0.0
H1302 H 0.12493 0.37738 0.05996 0.0
H1303 H 0.14657 0.37075 0.08846 0.0
C1304 C 0.07356 0.36035 0.01749 0.0
C1305 C 0.07124 0.35858 0.98812 0.0
C1306 C 0.08826 0.3587 0.03115 0.0
C1307 C 0.10091 0.35512 0.01578 0.0
C1308 C 0.09846 0.35317 0.98643 0.0
C1309 C 0.08386 0.35496 0.97276 0.0
C1310 C 0.13196 0.33396 0.03888 0.0
C1311 C 0.14172 0.34574 0.06286 0.0
C1312 C 0.1194 0.33758 0.02269 0.0
C1313 C 0.1162 0.3529 0.03049 0.0
C1314 C 0.12686 0.36531 0.05364 0.0
C1315 C 0.13947 0.36174 0.06968 0.0
H1316 H 0.61442 0.70087 0.02276 0.0
H1317 H 0.67436 0.7179 0.02984 0.0
H1318 H 0.62294 0.73489 0.02722 0.0
H1319 H 0.68287 0.75166 0.03578 0.0
H1320 H 0.69787 0.81187 0.04755 0.0
H1321 H 0.68597 0.78077 0.02161 0.0
H1322 H 0.63301 0.75752 0.06475 0.0
H1323 H 0.64465 0.78889 0.08909 0.0
C1324 C 0.62944 0.7119 0.02497 0.0
C1325 C 0.6437 0.70665 0.02635 0.0
C1326 C 0.63433 0.73143 0.02769 0.0
C1327 C 0.65359 0.74616 0.03237 0.0
C1328 C 0.66789 0.7409 0.03187 0.0
C1329 C 0.66301 0.72142 0.02867 0.0
C1330 C 0.68334 0.8003 0.05028 0.0
C1331 C 0.67205 0.80268 0.07 0.0
C1332 C 0.67661 0.78238 0.03585 0.0
C1333 C 0.65868 0.76636 0.0415 0.0
C1334 C 0.64679 0.76942 0.0595 0.0
C1335 C 0.65341 0.78744 0.07351 0.0
H1336 H 0.32164 0.94538 0.02304 0.0
H1337 H 0.28909 0.95211 0.95517 0.0
H1338 H 0.29188 0.92127 0.04277 0.0
H1339 H 0.25929 0.92799 0.97509 0.0
H1340 H 0.21643 0.90848 0.0503 0.0
H1341 H 0.24265 0.92732 0.01971 0.0
H1342 H 0.26364 0.8874 0.03154 0.0
H1343 H 0.23725 0.86852 0.06204 0.0
C1344 C 0.30814 0.94171 0.01232 0.0
C1345 C 0.30773 0.95073 0.98762 0.0
C1346 C 0.29111 0.92773 0.02345 0.0
C1347 C 0.27328 0.92261 0.01029 0.0
C1348 C 0.27284 0.93164 0.98562 0.0
C1349 C 0.2899 0.94546 0.97428 0.0
C1350 C 0.22618 0.90331 0.04527 0.0
C1351 C 0.2248 0.88701 0.05815 0.0
C1352 C 0.24123 0.91411 0.02793 0.0
C1353 C 0.25531 0.90896 0.02359 0.0
C1354 C 0.25308 0.89179 0.0348 0.0
C1355 C 0.23787 0.88085 0.05189 0.0
H1356 H 0.4081 0.07471 -0.00901 0.0
H1357 H 0.34769 0.03469 0.97432 0.0
H1358 H 0.40259 0.10203 0.98672 0.0
H1359 H 0.34224 0.06194 0.96904 0.0
H1360 H 0.33457 0.11186 0.95467 0.0
H1361 H 0.34195 0.09104 0.9833 0.0
H1362 H 0.39634 0.11347 0.94441 0.0
H1363 H 0.38897 0.13427 0.91659 0.0
C1364 C 0.39356 0.07175 0.98703 0.0
C1365 C 0.37838 0.05255 0.98241 0.0
C1366 C 0.39041 0.08741 0.98447 0.0
C1367 C 0.37206 0.08424 0.97682 0.0
C1368 C 0.35657 0.065 0.97504 0.0
C1369 C 0.35969 0.04931 0.97795 0.0
C1370 C 0.34845 0.1129 0.95337 0.0
C1371 C 0.36128 0.12465 0.93365 0.0
C1372 C 0.35259 0.10083 0.96944 0.0
C1373 C 0.36962 0.10033 0.96593 0.0
C1374 C 0.38318 0.11354 0.94802 0.0
C1375 C 0.37901 0.12551 0.932 0.0
H1376 H 0.98172 0.30303 0.9606 0.0
H1377 H 0.94218 0.32306 0.97886 0.0
H1378 H 0.95531 0.26967 0.95697 0.0
H1379 H 0.91579 0.28961 0.97682 0.0
H1380 H 0.90744 0.21035 0.94807 0.0
H1381 H 0.93031 0.24096 0.97296 0.0
H1382 H 0.89856 0.2674 0.9402 0.0
H1383 H 0.8755 0.23662 0.9168 0.0
C1384 C 0.96745 0.30023 0.96482 0.0
C1385 C 0.964 0.3157 0.96955 0.0
C1386 C 0.95221 0.28101 0.96289 0.0
C1387 C 0.93318 0.27678 0.96612 0.0
C1388 C 0.93008 0.29223 0.97338 0.0
C1389 C 0.94526 0.31145 0.97475 0.0
C1390 C 0.90486 0.22248 0.94764 0.0
C1391 C 0.8896 0.22112 0.93094 0.0
C1392 C 0.91818 0.24016 0.96137 0.0
C1393 C 0.91668 0.25694 0.95816 0.0
C1394 C 0.90027 0.25492 0.94356 0.0
C1395 C 0.88688 0.2372 0.93017 0.0
H1396 H 0.72446 0.66511 0.04637 0.0
H1397 H 0.70208 0.6744 0.96862 0.0
H1398 H 0.7539 0.67201 0.02396 0.0
H1399 H 0.73131 0.68099 0.94621 0.0
H1400 H 0.7895 0.70509 0.91541 0.0
H1401 H 0.76543 0.70447 0.94582 0.0
H1402 H 0.76341 0.65608 0.98805 0.0
H1403 H 0.78787 0.65708 0.95781 0.0
C1404 C 0.72585 0.66872 0.02454 0.0
C1405 C 0.71089 0.66916 0.00923 0.0
C1406 C 0.7427 0.6726 0.01171 0.0
C1407 C 0.74499 0.67711 0.98336 0.0
C1408 C 0.73016 0.6779 0.96823 0.0
C1409 C 0.71331 0.67396 0.98101 0.0
C1410 C 0.78428 0.69472 0.93178 0.0
C1411 C 0.79039 0.68107 0.9343 0.0
C1412 C 0.77039 0.69422 0.94898 0.0
C1413 C 0.76221 0.67996 0.96892 0.0
C1414 C 0.76946 0.66728 0.97293 0.0
C1415 C 0.78348 0.66785 0.95573 0.0
H1416 H 0.92115 0.62466 0.03543 0.0
H1417 H 0.9647 0.67012 0.98827 0.0
H1418 H 0.89769 0.63339 0.01815 0.0
H1419 H 0.9413 0.67879 0.97111 0.0
H1420 H 0.90222 0.70208 0.96152 0.0
H1421 H 0.92215 0.69314 0.98973 0.0
H1422 H 0.88129 0.63242 0.97149 0.0
H1423 H 0.86132 0.64151 0.94334 0.0
C1424 C 0.92573 0.63652 0.02139 0.0
C1425 C 0.94481 0.6467 0.0132 0.0
C1426 C 0.91227 0.64149 0.01152 0.0
C1427 C 0.91769 0.65692 -0.00643 0.0
C1428 C 0.93676 0.66706 0.98537 0.0
C1429 C 0.95014 0.66196 -0.00503 0.0
C1430 C 0.89709 0.68684 0.9647 0.0
C1431 C 0.88019 0.67246 0.95054 0.0
C1432 C 0.90863 0.68171 0.98042 0.0
C1433 C 0.9035 0.66209 0.98227 0.0
C1434 C 0.88562 0.64766 0.97045 0.0
C1435 C 0.87407 0.65282 0.95458 0.0
H1436 H 0.39968 0.30625 0.01217 0.0
H1437 H 0.34478 0.29527 0.97846 0.0
H1438 H 0.38836 0.27149 0.0095 0.0
H1439 H 0.33387 0.26091 0.97353 0.0
H1440 H 0.31618 0.20122 0.95446 0.0
H1441 H 0.32438 0.22991 0.98439 0.0
H1442 H 0.38458 0.24991 0.97476 0.0
H1443 H 0.37609 0.22061 0.94712 0.0
C1444 C 0.38508 0.29633 0.0045 0.0
C1445 C 0.3732 0.30348 -0.0048 0.0
C1446 C 0.3786 0.27636 0.00267 0.0
C1447 C 0.3603 0.26313 0.99052 0.0
C1448 C 0.34796 0.27031 0.98326 0.0
C1449 C 0.35427 0.29019 0.9859 0.0
C1450 C 0.33111 0.21127 0.96031 0.0
C1451 C 0.34553 0.20873 0.94872 0.0
C1452 C 0.3359 0.22801 0.9769 0.0
C1453 C 0.3552 0.24285 0.98128 0.0
C1454 C 0.36956 0.23905 0.9722 0.0
C1455 C 0.36473 0.2221 0.9563 0.0
H1456 H 0.70866 0.0522 0.97789 0.0
H1457 H 0.73039 0.09502 0.04695 0.0
H1458 H 0.73864 0.07071 0.95482 0.0
H1459 H 0.7606 0.11357 0.02373 0.0
H1460 H 0.7969 0.14985 0.94716 0.0
H1461 H 0.77177 0.13274 0.9803 0.0
H1462 H 0.77273 0.07985 0.96096 0.0
H1463 H 0.79755 0.09692 0.92769 0.0
C1464 C 0.71986 0.06554 0.9882 0.0
C1465 C 0.71712 0.07213 0.01424 0.0
C1466 C 0.73713 0.07606 0.97511 0.0
C1467 C 0.75208 0.09349 0.98764 0.0
C1468 C 0.74934 0.10019 0.01361 0.0
C1469 C 0.73206 0.08955 0.02686 0.0
C1470 C 0.79222 0.13478 0.95091 0.0
C1471 C 0.799 0.12463 0.93492 0.0
C1472 C 0.7778 0.12495 0.96974 0.0
C1473 C 0.77 0.10485 0.97271 0.0
C1474 C 0.77817 0.09523 0.95863 0.0
C1475 C 0.79249 0.10502 0.93986 0.0
H1476 H 0.68152 0.98525 0.03806 0.0
H1477 H 0.62342 0.94445 0.00889 0.0
H1478 H 0.6881 0.95874 0.04249 0.0
H1479 H 0.63022 0.9179 0.01159 0.0
H1480 H 0.63802 0.88114 0.07957 0.0
H1481 H 0.63249 0.90284 0.05127 0.0
H1482 H 0.69191 0.93222 0.02947 0.0
H1483 H 0.6974 0.91058 0.05912 0.0
C1484 C 0.67038 0.97067 0.03148 0.0
C1485 C 0.65184 0.96684 0.02378 0.0
C1486 C 0.67416 0.95539 0.03385 0.0
C1487 C 0.65954 0.93599 0.02808 0.0
C1488 C 0.64166 0.93254 0.01712 0.0
C1489 C 0.63776 0.94776 0.01539 0.0
C1490 C 0.64967 0.89172 0.06774 0.0
C1491 C 0.6681 0.89429 0.07148 0.0
C1492 C 0.64654 0.90423 0.05138 0.0
C1493 C 0.66184 0.91964 0.03834 0.0
C1494 C 0.67989 0.92081 0.03968 0.0
C1495 C 0.68301 0.90827 0.05628 0.0
H1496 H 0.07384 0.69632 -0.00166 0.0
H1497 H 0.0385 0.71137 0.0468 0.0
H1498 H 0.09925 0.73024 0.00056 0.0
H1499 H 0.06429 0.74502 0.05113 0.0
H1500 H 0.11251 0.80382 0.06529 0.0
H1501 H 0.08636 0.77593 0.03885 0.0
H1502 H 0.12164 0.74911 0.03472 0.0
H1503 H 0.14765 0.77731 0.05945 0.0
C1504 C 0.07143 0.70702 0.0091 0.0
C1505 C 0.0543 0.70124 0.02259 0.0
C1506 C 0.08609 0.72647 0.0107 0.0
C1507 C 0.08426 0.74052 0.02678 0.0
C1508 C 0.06641 0.73487 0.03838 0.0
C1509 C 0.05153 0.71548 0.03603 0.0
C1510 C 0.11488 0.79237 0.05723 0.0
C1511 C 0.1321 0.79273 0.06405 0.0
C1512 C 0.09977 0.77615 0.0426 0.0
C1513 C 0.10151 0.75983 0.0351 0.0
C1514 C 0.11954 0.76124 0.03968 0.0
C1515 C 0.13463 0.77752 0.05388 0.0
H1516 H 0.33141 0.36536 0.0393 0.0
H1517 H 0.29618 0.33539 0.96466 0.0
H1518 H 0.3046 0.36665 0.05913 0.0
H1519 H 0.26925 0.33677 0.98466 0.0
H1520 H 0.22283 0.32358 0.05403 0.0
H1521 H 0.24736 0.32314 0.02532 0.0
H1522 H 0.28614 0.3835 0.04947 0.0
H1523 H 0.26176 0.3838 0.0782 0.0
C1524 C 0.31793 0.359 0.02713 0.0
C1525 C 0.31597 0.35031 0.00037 0.0
C1526 C 0.30261 0.3599 0.03839 0.0
C1527 C 0.2849 0.35206 0.02325 0.0
C1528 C 0.28274 0.34297 -0.00325 0.0
C1529 C 0.29817 0.3422 0.98534 0.0
C1530 C 0.23635 0.33689 0.05226 0.0
C1531 C 0.24051 0.3537 0.06832 0.0
C1532 C 0.25042 0.33663 0.03601 0.0
C1533 C 0.2688 0.35317 0.03571 0.0
C1534 C 0.27226 0.37042 0.04982 0.0
C1535 C 0.25826 0.37067 0.06598 0.0
H1536 H 0.7526 0.68649 0.2803 0.0
H1537 H 0.74146 0.70366 0.36088 0.0
H1538 H 0.77941 0.68447 0.30166 0.0
H1539 H 0.76822 0.70156 0.3822 0.0
H1540 H 0.82603 0.71273 0.41037 0.0
H1541 H 0.80375 0.71842 0.38194 0.0
H1542 H 0.78474 0.66402 0.33557 0.0
H1543 H 0.80718 0.65851 0.36409 0.0
C1544 C 0.75583 0.6898 0.3026 0.0
C1545 C 0.74485 0.69523 0.31889 0.0
C1546 C 0.7712 0.68862 0.3148 0.0
C1547 C 0.7761 0.69305 0.34355 0.0
C1548 C 0.76506 0.6984 0.35987 0.0
C1549 C 0.74958 0.69941 0.34772 0.0
C1550 C 0.81772 0.70248 0.39321 0.0
C1551 C 0.81853 0.68536 0.38902 0.0
C1552 C 0.8047 0.70552 0.37729 0.0
C1553 C 0.7922 0.69149 0.35687 0.0
C1554 C 0.79419 0.67514 0.35108 0.0
C1555 C 0.80719 0.67206 0.36715 0.0
H1556 H 0.28373 0.03958 0.34159 0.0
H1557 H 0.34215 0.05336 0.35883 0.0
H1558 H 0.29345 0.07382 0.34847 0.0
H1559 H 0.35173 0.08726 0.36736 0.0
H1560 H 0.31113 0.12403 0.41554 0.0
H1561 H 0.30076 0.09399 0.38812 0.0
H1562 H 0.35758 0.11789 0.35651 0.0
H1563 H 0.36803 0.14751 0.38561 0.0
C1564 C 0.29872 0.05 0.34646 0.0
C1565 C 0.31213 0.04376 0.35005 0.0
C1566 C 0.30429 0.06963 0.35064 0.0
C1567 C 0.32332 0.08341 0.35916 0.0
C1568 C 0.33698 0.07728 0.36059 0.0
C1569 C 0.33147 0.05771 0.35584 0.0
C1570 C 0.32114 0.12304 0.40188 0.0
C1571 C 0.3403 0.13796 0.40251 0.0
C1572 C 0.31524 0.1058 0.38606 0.0
C1573 C 0.3284 0.10323 0.37032 0.0
C1574 C 0.34716 0.11907 0.36891 0.0
C1575 C 0.35312 0.13617 0.38519 0.0
H1576 H 0.95459 0.29619 0.3046 0.0
H1577 H 0.98185 0.26772 0.34534 0.0
H1578 H 0.92447 0.2741 0.32577 0.0
H1579 H 0.95178 0.2457 0.36637 0.0
H1580 H 0.89311 0.20022 0.38687 0.0
H1581 H 0.91784 0.2188 0.35384 0.0
H1582 H 0.91422 0.26988 0.37578 0.0
H1583 H 0.88963 0.25128 0.40873 0.0
C1584 C 0.95413 0.28515 0.31791 0.0
C1585 C 0.97064 0.28378 0.32346 0.0
C1586 C 0.93689 0.27252 0.32999 0.0
C1587 C 0.93575 0.25809 0.34752 0.0
C1588 C 0.95214 0.25646 0.35256 0.0
C1589 C 0.96942 0.26922 0.34077 0.0
C1590 C 0.8971 0.2152 0.3837 0.0
C1591 C 0.88952 0.22437 0.40013 0.0
C1592 C 0.91138 0.22588 0.36513 0.0
C1593 C 0.91811 0.24584 0.36255 0.0
C1594 C 0.90926 0.25452 0.37721 0.0
C1595 C 0.89517 0.2439 0.39599 0.0
H1596 H 0.06207 0.40238 0.30633 0.0
H1597 H 1.00407 0.35544 0.31427 0.0
H1598 H 0.0504 0.42485 0.30033 0.0
H1599 H 0.99235 0.37825 0.30913 0.0
H1600 H 0.98354 0.41403 0.23881 0.0
H1601 H 0.98949 0.39273 0.26763 0.0
H1602 H 0.03526 0.44282 0.31358 0.0
H1603 H 0.02955 0.46418 0.28374 0.0
C1604 C 0.04684 0.39692 0.30762 0.0
C1605 C 0.03398 0.37697 0.31001 0.0
C1606 C 0.04012 0.40993 0.30447 0.0
C1607 C 0.02035 0.40336 0.30375 0.0
C1608 C 1.00764 0.38374 0.309 0.0
C1609 C 0.01438 0.37067 0.31208 0.0
C1610 C 0.99443 0.42045 0.25572 0.0
C1611 C 1.00633 0.44071 0.25874 0.0
C1612 C 0.99781 0.40823 0.27243 0.0
C1613 C 0.01318 0.41603 0.29259 0.0
C1614 C 0.02359 0.43634 0.29781 0.0
C1615 C 0.0202 0.44859 0.28097 0.0
H1616 H 0.61589 0.6612 0.3151 0.0
H1617 H 0.65498 0.64069 0.29636 0.0
H1618 H 0.5893 0.62785 0.31318 0.0
H1619 H 0.62835 0.60739 0.29297 0.0
H1620 H 0.5799 0.54798 0.2868 0.0
H1621 H 0.60341 0.57899 0.31007 0.0
H1622 H 0.57162 0.60527 0.27692 0.0
H1623 H 0.54792 0.5741 0.25507 0.0
C1624 C 0.61883 0.6495 0.31091 0.0
C1625 C 0.63752 0.65361 0.30557 0.0
C1626 C 0.60354 0.63035 0.30959 0.0
C1627 C 0.60645 0.61477 0.30235 0.0
C1628 C 0.62541 0.61884 0.29889 0.0
C1629 C 0.64077 0.63802 0.3007 0.0
C1630 C 0.57749 0.56021 0.2859 0.0
C1631 C 0.56197 0.55864 0.26959 0.0
C1632 C 0.59117 0.57811 0.2987 0.0
C1633 C 0.58979 0.59491 0.29496 0.0
C1634 C 0.57324 0.59278 0.28066 0.0
C1635 C 0.55949 0.57484 0.26818 0.0
H1636 H 0.38343 0.98935 0.37164 0.0
H1637 H 0.36765 1.00675 0.29503 0.0
H1638 H 0.41317 0.99495 0.35167 0.0
H1639 H 0.39731 0.01215 0.275 0.0
H1640 H 0.4575 0.03457 0.25193 0.0
H1641 H 0.4322 0.03362 0.27996 0.0
H1642 H 0.42278 0.97991 0.31425 0.0
H1643 H 0.44837 0.98117 0.28634 0.0
C1644 C 0.38632 0.99443 0.35056 0.0
C1645 C 0.37313 0.99757 0.33489 0.0
C1646 C 0.40335 0.99757 0.33912 0.0
C1647 C 0.40766 1.00407 0.31183 0.0
C1648 C 0.39458 0.00744 0.29628 0.0
C1649 C 0.37749 1.0042 0.30766 0.0
C1650 C 0.45045 0.02298 0.26628 0.0
C1651 C 0.45491 0.00805 0.26732 0.0
C1652 C 0.43581 0.02226 0.282 0.0
C1653 C 0.42526 1.00651 0.29894 0.0
C1654 C 0.4307 0.99229 0.3015 0.0
C1655 C 0.44539 0.99303 0.28571 0.0
H1656 H 0.59055 0.9637 0.36735 0.0
H1657 H 0.63569 1.00563 0.31814 0.0
H1658 H 0.56831 0.97296 0.34684 0.0
H1659 H 0.61341 0.0148 0.2976 0.0
H1660 H 0.57601 0.04084 0.28529 0.0
H1661 H 0.59583 0.03142 0.31272 0.0
H1662 H 0.55199 0.97108 0.3004 0.0
H1663 H 0.53212 0.98062 0.27288 0.0
C1664 C 0.59574 0.97488 0.35212 0.0
C1665 C 0.61494 0.98396 0.34442 0.0
C1666 C 0.58295 0.98012 0.34034 0.0
C1667 C 0.58912 0.99473 0.32081 0.0
C1668 C 0.60829 1.00372 0.31297 0.0
C1669 C 0.62103 0.99835 0.32456 0.0
C1670 C 0.57039 0.02561 0.28916 0.0
C1671 C 0.55256 0.01145 0.27693 0.0
C1672 C 0.58182 0.02019 0.30456 0.0
C1673 C 0.57568 1.00049 0.30818 0.0
C1674 C 0.55714 0.98639 0.29794 0.0
C1675 C 0.54568 0.99183 0.28239 0.0
H1676 H 0.01965 0.62543 0.31657 0.0
H1677 H 0.07698 0.6381 0.34013 0.0
H1678 H 1.00935 0.59117 0.31116 0.0
H1679 H 0.06649 0.60354 0.33626 0.0
H1680 H 0.05003 0.55421 0.26732 0.0
H1681 H 0.06034 0.58331 0.29681 0.0
H1682 H 1.00239 0.56028 0.32346 0.0
H1683 H 0.9921 0.53154 0.29241 0.0
C1684 C 0.02989 0.62079 0.32168 0.0
C1685 C 0.04922 0.63451 0.32814 0.0
C1686 C 0.02396 0.60101 0.31875 0.0
C1687 C 0.03717 0.59445 0.32266 0.0
C1688 C 0.05603 0.60805 0.33221 0.0
C1689 C 0.06204 0.62787 0.33462 0.0
C1690 C 0.03975 0.55499 0.2806 0.0
C1691 C 0.02034 0.54071 0.27775 0.0
C1692 C 0.0456 0.57176 0.29756 0.0
C1693 C 0.03212 0.57451 0.31213 0.0
C1694 C 0.01309 0.55897 0.31195 0.0
C1695 C 1.0072 0.54231 0.29461 0.0
H1696 H 0.37836 0.3867 0.31075 0.0
H1697 H 0.39691 0.42722 0.38244 0.0
H1698 H 0.40929 0.40639 0.29051 0.0
H1699 H 0.428 0.44695 0.36208 0.0
H1700 H 0.4659 0.48625 0.28862 0.0
H1701 H 0.44013 0.46759 0.3201 0.0
H1702 H 0.44359 0.41629 0.29912 0.0
H1703 H 0.46913 0.43494 0.26753 0.0
C1704 C 0.38906 0.39977 0.32224 0.0
C1705 C 0.38515 0.4054 0.34816 0.0
C1706 C 0.40687 0.41096 0.31078 0.0
C1707 C 0.42116 0.42811 0.32488 0.0
C1708 C 0.41727 0.4338 0.35077 0.0
C1709 C 0.39947 0.42249 0.36239 0.0
C1710 C 0.4617 0.47122 0.2918 0.0
C1711 C 0.46938 0.46196 0.27574 0.0
C1712 C 0.44688 0.46049 0.30963 0.0
C1713 C 0.43957 0.44038 0.31152 0.0
C1714 C 0.44867 0.43167 0.2976 0.0
C1715 C 0.46343 0.44237 0.27984 0.0
H1716 H 0.28908 0.27743 0.33801 0.0
H1717 H 0.34765 0.31752 0.36596 0.0
H1718 H 0.2951 0.2504 0.34155 0.0
H1719 H 0.35345 0.29057 0.37119 0.0
H1720 H 0.36129 0.24192 0.39054 0.0
H1721 H 0.35633 0.26326 0.35952 0.0
H1722 H 0.29712 0.23593 0.38209 0.0
H1723 H 0.30212 0.2145 0.41179 0.0
C1724 C 0.30337 0.28048 0.34436 0.0
C1725 C 0.31779 0.29952 0.35226 0.0
C1726 C 0.30681 0.26498 0.34658 0.0
C1727 C 0.32459 0.26812 0.35753 0.0
C1728 C 0.33958 0.28744 0.36261 0.0
C1729 C 0.33624 0.30298 0.35977 0.0
C1730 C 0.34705 0.23997 0.38763 0.0
C1731 C 0.33207 0.2267 0.40348 0.0
C1732 C 0.34423 0.25235 0.37022 0.0
C1733 C 0.32642 0.25171 0.36866 0.0
C1734 C 0.311 0.23691 0.38236 0.0
C1735 C 0.31382 0.22456 0.39954 0.0
H1736 H 0.74702 0.02545 0.35335 0.0
H1737 H 0.70699 0.04456 0.37316 0.0
H1738 H 0.77305 0.05908 0.35517 0.0
H1739 H 0.73305 0.07809 0.37653 0.0
H1740 H 0.78018 0.13766 0.38479 0.0
H1741 H 0.75754 0.10693 0.36002 0.0
H1742 H 0.79038 0.0814 0.39176 0.0
H1743 H 0.81324 0.11233 0.41503 0.0
C1744 C 0.74375 0.0369 0.35774 0.0
C1745 C 0.72499 0.03234 0.36347 0.0
C1746 C 0.75872 0.05621 0.35899 0.0
C1747 C 0.75539 0.07145 0.36659 0.0
C1748 C 0.73631 0.06691 0.37033 0.0
C1749 C 0.72128 0.04759 0.36855 0.0
C1750 C 0.78302 0.12571 0.38504 0.0
C1751 C 0.79854 0.12735 0.40144 0.0
C1752 C 0.76985 0.10796 0.37137 0.0
C1753 C 0.77174 0.09139 0.37436 0.0
C1754 C 0.78838 0.09371 0.38861 0.0
C1755 C 0.80165 0.11152 0.40192 0.0
H1756 H 0.98385 0.66325 0.33189 0.0
H1757 H 1.00567 0.72413 0.35245 0.0
H1758 H 0.95181 0.65612 0.34343 0.0
H1759 H 0.97392 0.71699 0.36532 0.0
H1760 H 0.91508 0.70388 0.37829 0.0
H1761 H 0.94218 0.70782 0.35164 0.0
H1762 H 0.93461 0.65388 0.38267 0.0
H1763 H 0.90723 0.64976 0.40789 0.0
C1764 C 0.98183 0.67509 0.33914 0.0
C1765 C 0.99736 0.69424 0.3415 0.0
C1766 C 0.96342 0.67102 0.34576 0.0
C1767 C 0.96011 0.68594 0.35535 0.0
C1768 C 0.97569 0.70512 0.35744 0.0
C1769 C 0.99402 0.70922 0.35042 0.0
C1770 C 0.91869 0.69246 0.37812 0.0
C1771 C 0.90906 0.67647 0.39492 0.0
C1772 C 0.93447 0.69487 0.36339 0.0
C1773 C 0.941 0.68143 0.36551 0.0
C1774 C 0.93009 0.66452 0.38026 0.0
C1775 C 0.91429 0.66207 0.39469 0.0
H1776 H 0.4355 0.05705 0.6443 0.0
H1777 H 0.39016 0.0142 0.69223 0.0
H1778 H 0.45762 0.04735 0.6639 0.0
H1779 H 0.41233 1.00457 0.71186 0.0
H1780 H 0.44936 0.97768 0.7207 0.0
H1781 H 0.42967 0.98803 0.69493 0.0
H1782 H 0.47389 0.048 0.70989 0.0
H1783 H 0.49363 0.03751 0.73579 0.0
C1784 C 0.43025 0.04561 0.65911 0.0
C1785 C 0.41101 0.03636 0.66665 0.0
C1786 C 0.44298 0.0401 0.67037 0.0
C1787 C 0.43671 0.02506 0.68919 0.0
C1788 C 0.41753 0.01599 0.69701 0.0
C1789 C 0.40485 0.02162 0.68596 0.0
C1790 C 0.45509 0.99305 0.71776 0.0
C1791 C 0.473 1.0068 0.73027 0.0
C1792 C 0.44372 0.99899 0.70334 0.0
C1793 C 0.45002 0.01885 0.70095 0.0
C1794 C 0.46862 0.03259 0.71143 0.0
C1795 C 0.48001 0.02661 0.72603 0.0
H1796 H 0.95328 0.36943 0.70933 0.0
H1797 H 1.00449 0.38292 0.6661 0.0
H1798 H 0.96309 0.40345 0.71323 0.0
H1799 H 0.01394 0.41728 0.6685 0.0
H1800 H 0.03864 0.47239 0.72846 0.0
H1801 H 0.02708 0.44153 0.70318 0.0
H1802 H 0.96986 0.43348 0.69854 0.0
H1803 H 0.98146 0.46396 0.72588 0.0
C1804 C 0.96642 0.37963 0.69988 0.0
C1805 C 0.9783 0.3734 0.68795 0.0
C1806 C 0.97201 0.39932 0.70185 0.0
C1807 C 0.98953 0.41343 0.69155 0.0
C1808 C 1.00061 0.40699 0.6774 0.0
C1809 C 0.99515 0.38724 0.67584 0.0
C1810 C 0.02367 0.46426 0.72133 0.0
C1811 C 1.01086 0.47031 0.72983 0.0
C1812 C 0.01699 0.4465 0.70659 0.0
C1813 C 0.99732 0.43448 0.69949 0.0
C1814 C 0.98498 0.44193 0.70457 0.0
C1815 C 0.99166 0.45961 0.71981 0.0
H1816 H 0.625 0.59985 0.61731 0.0
H1817 H 0.65989 0.61385 0.69411 0.0
H1818 H 0.59716 0.57592 0.64143 0.0
H1819 H 0.63215 0.59015 0.71808 0.0
H1820 H 0.5851 0.53743 0.75157 0.0
H1821 H 0.61047 0.55479 0.7191 0.0
H1822 H 0.57639 0.57625 0.67901 0.0
H1823 H 0.5509 0.55852 0.71139 0.0
C1824 C 0.62675 0.59781 0.6393 0.0
C1825 C 0.64467 0.60878 0.65381 0.0
C1826 C 0.61079 0.58413 0.65308 0.0
C1827 C 0.61249 0.581 0.68156 0.0
C1828 C 0.63044 0.59192 0.69598 0.0
C1829 C 0.64632 0.60566 0.6823 0.0
C1830 C 0.58278 0.54521 0.73502 0.0
C1831 C 0.56609 0.54655 0.73363 0.0
C1832 C 0.59737 0.55536 0.71673 0.0
C1833 C 0.59557 0.56718 0.69687 0.0
C1834 C 0.57816 0.56721 0.69401 0.0
C1835 C 0.56353 0.557 0.71237 0.0
H1836 H 0.73372 0.73853 0.64023 0.0
H1837 H 0.67556 0.69189 0.64791 0.0
H1838 H 0.72246 0.7614 0.63579 0.0
H1839 H 0.66423 0.71512 0.64449 0.0
H1840 H 0.65542 0.75216 0.5764 0.0
H1841 H 0.66098 0.73033 0.60452 0.0
H1842 H 0.70812 0.77974 0.64968 0.0
H1843 H 0.7028 0.8016 0.6204 0.0
C1844 C 0.71854 0.73321 0.64179 0.0
C1845 C 0.70551 0.71324 0.64363 0.0
C1846 C 0.71205 0.74646 0.63956 0.0
C1847 C 0.69234 0.74014 0.63926 0.0
C1848 C 0.67947 0.72046 0.644 0.0
C1849 C 0.68599 0.70713 0.64611 0.0
C1850 C 0.66648 0.75832 0.5931 0.0
C1851 C 0.67888 0.7785 0.59598 0.0
C1852 C 0.66968 0.74579 0.60939 0.0
C1853 C 0.68535 0.75321 0.62899 0.0
C1854 C 0.69623 0.77351 0.63428 0.0
C1855 C 0.69305 0.78607 0.6178 0.0
H1856 H 0.28041 0.99002 0.65672 0.0
H1857 H 0.32037 0.97389 0.62537 0.0
H1858 H 0.25537 0.95597 0.65517 0.0
H1859 H 0.29517 0.94003 0.62152 0.0
H1860 H 0.2494 0.87999 0.61052 0.0
H1861 H 0.27303 0.91013 0.63558 0.0
H1862 H 0.23548 0.93375 0.62171 0.0
H1863 H 0.21171 0.90324 0.59878 0.0
C1864 C 0.28384 0.97909 0.6497 0.0
C1865 C 0.30226 0.98459 0.64094 0.0
C1866 C 0.26943 0.95953 0.64851 0.0
C1867 C 0.27288 0.94498 0.63755 0.0
C1868 C 0.29176 0.95052 0.63041 0.0
C1869 C 0.30631 0.97005 0.63242 0.0
C1870 C 0.2459 0.89133 0.61437 0.0
C1871 C 0.22868 0.88927 0.60311 0.0
C1872 C 0.25961 0.90882 0.62814 0.0
C1873 C 0.25662 0.92485 0.6301 0.0
C1874 C 0.23852 0.92195 0.62105 0.0
C1875 C 0.22469 0.90432 0.60791 0.0
H1876 H 0.06723 0.35318 0.70439 0.0
H1877 H 0.03087 0.3228 0.6308 0.0
H1878 H 0.09407 0.35248 0.68281 0.0
H1879 H 0.05759 0.32212 0.60948 0.0
H1880 H 0.09959 0.30318 0.59161 0.0
H1881 H 0.07592 0.30472 0.62054 0.0
H1882 H 0.11518 0.36569 0.63989 0.0
H1883 H 0.13901 0.36406 0.61077 0.0
C1884 C 0.065 0.3465 0.68355 0.0
C1885 C 0.04687 0.33794 0.66936 0.0
C1886 C 0.08037 0.34613 0.67125 0.0
C1887 C 0.07781 0.33695 0.64472 0.0
C1888 C 0.05986 0.32894 0.63023 0.0
C1889 C 0.0446 0.32949 0.64234 0.0
C1890 C 0.10337 0.31674 0.60281 0.0
C1891 C 0.12104 0.3335 0.59902 0.0
C1892 C 0.08977 0.31769 0.61907 0.0
C1893 C 0.09357 0.33543 0.63189 0.0
C1894 C 0.11189 0.35185 0.63016 0.0
C1895 C 0.12556 0.3509 0.61372 0.0
H1896 H 0.29702 0.34142 0.68864 0.0
H1897 H 0.27009 0.28963 0.63421 0.0
H1898 H 0.27276 0.34933 0.67347 0.0
H1899 H 0.24634 0.29802 0.61776 0.0
H1900 H 0.19953 0.31113 0.59957 0.0
H1901 H 0.21942 0.30125 0.62622 0.0
H1902 H 0.26465 0.36136 0.63523 0.0
H1903 H 0.24444 0.37104 0.61016 0.0
C1904 C 0.286 0.33181 0.67319 0.0
C1905 C 0.28561 0.315 0.66242 0.0
C1906 C 0.27205 0.33636 0.6644 0.0
C1907 C 0.25752 0.32443 0.64417 0.0
C1908 C 0.25703 0.30743 0.6337 0.0
C1909 C 0.27081 0.30271 0.64288 0.0
C1910 C 0.21344 0.32222 0.60827 0.0
C1911 C 0.22048 0.34184 0.60269 0.0
C1912 C 0.22502 0.31656 0.62308 0.0
C1913 C 0.2439 0.33042 0.63249 0.0
C1914 C 0.25024 0.35018 0.62864 0.0
C1915 C 0.23865 0.35579 0.61412 0.0
H1916 H 0.74144 0.97836 0.62275 0.0
H1917 H 0.69151 0.96487 0.66936 0.0
H1918 H 0.7322 0.94441 0.61995 0.0
H1919 H 0.68269 0.93069 0.66802 0.0
H1920 H 0.65705 0.87502 0.60886 0.0
H1921 H 0.66884 0.90597 0.63401 0.0
H1922 H 0.72632 0.91471 0.63543 0.0
H1923 H 0.71433 0.88394 0.60851 0.0
C1924 C 0.72874 0.9682 0.63319 0.0
C1925 C 0.717 0.97436 0.64574 0.0
C1926 C 0.72349 0.94857 0.63184 0.0
C1927 C 0.70646 0.93449 0.64339 0.0
C1928 C 0.69562 0.94094 0.65816 0.0
C1929 C 0.70072 0.96059 0.65909 0.0
C1930 C 0.67209 0.88322 0.61558 0.0
C1931 C 0.68483 0.87727 0.60636 0.0
C1932 C 0.67895 0.90108 0.6301 0.0
C1933 C 0.69873 0.91335 0.63608 0.0
C1934 C 0.71109 0.90603 0.63032 0.0
C1935 C 0.7042 0.88819 0.61537 0.0
H1936 H 0.06537 0.76004 0.71835 0.0
H1937 H 0.03584 0.73358 0.63858 0.0
H1938 H 0.09229 0.7852 0.69399 0.0
H1939 H 0.06261 0.75854 0.61447 0.0
H1940 H 0.10434 0.81099 0.5753 0.0
H1941 H 0.07862 0.79397 0.60732 0.0
H1942 H 0.11753 0.78644 0.66267 0.0
H1943 H 0.14332 0.80377 0.63065 0.0
C1944 C 0.0646 0.75962 0.69566 0.0
C1945 C 0.04849 0.74479 0.68038 0.0
C1946 C 0.08 0.77402 0.68177 0.0
C1947 C 0.07945 0.77398 0.65237 0.0
C1948 C 0.06329 0.7592 0.63717 0.0
C1949 C 0.04802 0.74476 0.65099 0.0
C1950 C 0.10753 0.80637 0.59489 0.0
C1951 C 0.12569 0.80855 0.60058 0.0
C1952 C 0.0928 0.79646 0.61304 0.0
C1953 C 0.09597 0.78847 0.63711 0.0
C1954 C 0.11467 0.79243 0.64426 0.0
C1955 C 0.12946 0.80243 0.62606 0.0
H1956 H 0.96352 0.61378 0.66493 0.0
H1957 H 0.01853 0.65392 0.70519 0.0
H1958 H 0.97077 0.58756 0.66834 0.0
H1959 H 0.02538 0.62763 0.71036 0.0
H1960 H 0.03399 0.5789 0.72793 0.0
H1961 H 0.03095 0.60211 0.69844 0.0
H1962 H 0.9696 0.57054 0.70751 0.0
H1963 H 0.97282 0.54735 0.73567 0.0
C1964 C 0.97736 0.61706 0.67395 0.0
C1965 C 0.99035 0.63579 0.68519 0.0
C1966 C 0.98148 0.60201 0.67616 0.0
C1967 C 0.9984 0.60522 0.69048 0.0
C1968 C 0.01221 0.62445 0.69913 0.0
C1969 C 1.00827 0.63962 0.69628 0.0
C1970 C 0.01984 0.57653 0.72231 0.0
C1971 C 1.00361 0.56139 0.73382 0.0
C1972 C 0.01808 0.58996 0.70581 0.0
C1973 C 1.00007 0.58852 0.70089 0.0
C1974 C 0.98371 0.57218 0.71036 0.0
C1975 C 0.98549 0.5588 0.72662 0.0
H1976 H 0.37416 0.38212 0.68364 0.0
H1977 H 0.42012 0.36948 0.69497 0.0
H1978 H 0.39756 0.41685 0.6858 0.0
H1979 H 0.44316 0.40372 0.69859 0.0
H1980 H 0.48434 0.46324 0.71506 0.0
H1981 H 0.46138 0.43533 0.68525 0.0
H1982 H 0.41483 0.43855 0.72286 0.0
H1983 H 0.43778 0.46697 0.75091 0.0
C1984 C 0.38924 0.3867 0.6861 0.0
C1985 C 0.39516 0.37296 0.68983 0.0
C1986 C 0.4027 0.40666 0.68754 0.0
C1987 C 0.42236 0.41333 0.69303 0.0
C1988 C 0.4283 0.39943 0.69415 0.0
C1989 C 0.41493 0.37959 0.69242 0.0
C1990 C 0.46923 0.45856 0.71577 0.0
C1991 C 0.4628 0.46694 0.73576 0.0
C1992 C 0.45599 0.44231 0.69906 0.0
C1993 C 0.43611 0.434 0.70243 0.0
C1994 C 0.42989 0.44422 0.7196 0.0
C1995 C 0.44311 0.46059 0.73589 0.0
H1996 H 0.64307 0.99264 0.67176 0.0
H1997 H 0.66329 0.05374 0.68789 0.0
H1998 H 0.61132 0.98483 0.68646 0.0
H1999 H 0.63188 0.04596 0.70313 0.0
H2000 H 0.57254 0.03115 0.71574 0.0
H2001 H 0.59893 0.03413 0.68813 0.0
H2002 H 0.59659 0.9852 0.72923 0.0
H2003 H 0.57002 0.98206 0.75596 0.0
C2004 C 0.64079 1.00439 0.6786 0.0
C2005 C 0.65575 0.02381 0.6788 0.0
C2006 C 0.62257 0.99992 0.68693 0.0
C2007 C 0.61895 0.01477 0.69571 0.0
C2008 C 0.63396 0.03417 0.69585 0.0
C2009 C 0.6521 0.03862 0.68747 0.0
C2010 C 0.57716 0.02055 0.71781 0.0
C2011 C 0.56934 1.00639 0.73785 0.0
C2012 C 0.59246 0.02242 0.70241 0.0
C2013 C 0.60018 0.01018 0.70694 0.0
C2014 C 0.59103 0.99484 0.72508 0.0
C2015 C 0.57577 0.99298 0.74038 0.0
loop_
_geom_bond_atom_site_label_1
_geom_bond_atom_site_label_2
_geom_bond_distance
_geom_bond_site_symmetry_2
_ccdc_geom_bond_type
Mg0 O1 2.028 1_556 S
Mg0 O7 1.986 1_455 S
Mg0 O9 2.114 . S
Mg0 O10 2.251 1_455 S
Mg0 O13 2.010 1_556 S
O1 Mg0 2.028 1_554 S
O1 C4 1.250 1_455 S
O2 Mg3 2.028 1_554 S
O2 C4 1.248 . S
Mg3 O2 2.028 1_556 S
Mg3 O8 2.032 . S
Mg3 O10 2.079 . S
C4 O1 1.250 1_655 S
C4 O2 1.248 . S
C5 O6 1.264 1_554 S
C5 O13 1.249 . S
O6 C5 1.264 1_556 S
O7 Mg0 1.986 1_655 S
O7 C11 1.246 . S
O8 Mg3 2.032 . S
O8 C11 1.259 . S
O9 Mg0 2.114 . S
O9 C12 1.252 . S
O10 Mg0 2.251 1_655 S
O10 Mg3 2.079 . S
O10 C12 1.273 1_655 S
C11 O7 1.246 . S
C11 O8 1.259 . S
C12 O9 1.252 . S
C12 O10 1.273 1_455 S
O13 Mg0 2.010 1_554 S
O13 C5 1.249 . S
Mg14 O15 2.028 1_554 S
Mg14 O21 1.986 . S
Mg14 O23 2.114 . S
Mg14 O24 2.251 . S
Mg14 O27 2.010 . S
O15 Mg14 2.028 1_556 S
O15 C18 1.250 . S
O16 Mg17 2.028 1_556 S
O16 C18 1.248 . S
Mg17 O16 2.028 1_554 S
Mg17 O22 2.032 . S
Mg17 O24 2.079 . S
C18 O15 1.250 . S
C18 O16 1.248 . S
C19 O20 1.264 . S
C19 O27 1.249 . S
O20 C19 1.264 . S
O21 Mg14 1.986 . S
O21 C25 1.246 . S
O22 Mg17 2.032 . S
O22 C25 1.259 . S
O23 Mg14 2.114 . S
O23 C26 1.252 . S
O24 Mg14 2.251 . S
O24 Mg17 2.079 . S
O24 C26 1.273 . S
C25 O21 1.246 . S
C25 O22 1.259 . S
C26 O23 1.252 . S
C26 O24 1.273 . S
O27 Mg14 2.010 . S
O27 C19 1.249 . S
Mg28 O29 2.023 1_556 S
Mg28 O35 1.986 1_565 S
Mg28 O37 2.114 . S
Mg28 O38 2.251 1_565 S
Mg28 O41 2.010 1_556 S
O29 Mg28 2.023 1_554 S
O29 C32 1.244 1_565 S
O30 Mg31 2.028 1_554 S
O30 C32 1.248 . S
Mg31 O30 2.028 1_556 S
Mg31 O36 2.032 . S
Mg31 O38 2.079 . S
C32 O29 1.244 1_545 S
C32 O30 1.248 . S
C33 O34 1.264 1_554 S
C33 O41 1.249 . S
O34 C33 1.264 1_556 S
O35 Mg28 1.986 1_545 S
O35 C39 1.246 . S
O36 Mg31 2.032 . S
O36 C39 1.259 . S
O37 Mg28 2.114 . S
O37 C40 1.252 . S
O38 Mg28 2.251 1_545 S
O38 Mg31 2.079 . S
O38 C40 1.273 1_545 S
C39 O35 1.246 . S
C39 O36 1.259 . S
C40 O37 1.252 . S
C40 O38 1.273 1_565 S
O41 Mg28 2.010 1_554 S
O41 C33 1.249 . S
Mg42 O43 2.028 1_554 S
Mg42 O49 1.986 1_655 S
Mg42 O51 2.114 . S
Mg42 O52 2.251 1_655 S
Mg42 O55 2.010 . S
O43 Mg42 2.028 1_556 S
O43 C46 1.250 1_655 S
O44 Mg45 2.028 1_556 S
O44 C46 1.248 . S
Mg45 O44 2.028 1_554 S
Mg45 O50 2.032 . S
Mg45 O52 2.079 . S
C46 O43 1.250 1_455 S
C46 O44 1.248 . S
C47 O48 1.264 . S
C47 O55 1.249 . S
O48 C47 1.264 . S
O49 Mg42 1.986 1_455 S
O49 C53 1.246 . S
O50 Mg45 2.032 . S
O50 C53 1.259 . S
O51 Mg42 2.114 . S
O51 C54 1.252 . S
O52 Mg42 2.251 1_455 S
O52 Mg45 2.079 . S
O52 C54 1.273 1_455 S
C53 O49 1.246 . S
C53 O50 1.259 . S
C54 O51 1.252 . S
C54 O52 1.273 1_655 S
O55 Mg42 2.010 . S
O55 C47 1.249 . S
Mg56 O57 2.028 1_556 S
Mg56 O63 1.986 . S
Mg56 O65 2.114 . S
Mg56 O66 2.251 . S
Mg56 O69 2.010 1_556 S
O57 Mg56 2.028 1_554 S
O57 C60 1.250 . S
O58 Mg59 2.028 1_554 S
O58 C60 1.248 . S
Mg59 O58 2.028 1_556 S
Mg59 O64 2.032 . S
Mg59 O66 2.079 . S
C60 O57 1.250 . S
C60 O58 1.248 . S
C61 O62 1.264 . S
C61 O69 1.249 . S
O62 C61 1.264 . S
O63 Mg56 1.986 . S
O63 C67 1.246 . S
O64 Mg59 2.032 . S
O64 C67 1.259 . S
O65 Mg56 2.114 . S
O65 C68 1.252 . S
O66 Mg56 2.251 . S
O66 Mg59 2.079 . S
O66 C68 1.273 . S
C67 O63 1.246 . S
C67 O64 1.259 . S
C68 O65 1.252 . S
C68 O66 1.273 . S
O69 Mg56 2.010 1_554 S
O69 C61 1.249 . S
Mg70 O71 2.028 1_554 S
Mg70 O77 1.986 1_545 S
Mg70 O79 2.114 . S
Mg70 O80 2.251 1_545 S
Mg70 O83 2.010 . S
O71 Mg70 2.028 1_556 S
O71 C74 1.250 1_545 S
O72 Mg73 2.028 1_556 S
O72 C74 1.248 . S
Mg73 O72 2.028 1_554 S
Mg73 O78 2.032 . S
Mg73 O80 2.079 . S
C74 O71 1.250 1_565 S
C74 O72 1.248 . S
C75 O76 1.264 . S
C75 O83 1.249 . S
O76 C75 1.264 . S
O77 Mg70 1.986 1_565 S
O77 C81 1.246 . S
O78 Mg73 2.032 . S
O78 C81 1.259 . S
O79 Mg70 2.114 . S
O79 C82 1.252 . S
O80 Mg70 2.251 1_565 S
O80 Mg73 2.079 . S
O80 C82 1.273 1_565 S
C81 O77 1.246 . S
C81 O78 1.259 . S
C82 O79 1.252 . S
C82 O80 1.273 1_545 S
O83 Mg70 2.010 . S
O83 C75 1.249 . S
Mg84 O85 2.028 . S
Mg84 O91 1.986 . S
Mg84 O93 2.114 . S
Mg84 O94 2.251 . S
Mg84 O97 2.010 . S
O85 Mg84 2.028 . S
O85 C88 1.250 . S
O86 Mg87 2.028 . S
O86 C88 1.248 . S
Mg87 O86 2.028 . S
Mg87 O92 2.032 . S
Mg87 O94 2.079 . S
C88 O85 1.250 . S
C88 O86 1.248 . S
C89 O90 1.264 . S
C89 O97 1.249 . S
O90 C89 1.264 . S
O91 Mg84 1.986 . S
O91 C95 1.246 . S
O92 Mg87 2.032 . S
O92 C95 1.259 . S
O93 Mg84 2.114 . S
O93 C96 1.252 . S
O94 Mg84 2.251 . S
O94 Mg87 2.079 . S
O94 C96 1.273 . S
C95 O91 1.246 . S
C95 O92 1.259 . S
C96 O93 1.252 . S
C96 O94 1.273 . S
O97 Mg84 2.010 . S
O97 C89 1.249 . S
Mg98 O99 2.028 . S
Mg98 O105 1.986 1_565 S
Mg98 O107 2.114 . S
Mg98 O108 2.251 . S
Mg98 O111 2.010 . S
O99 Mg98 2.028 . S
O99 C102 1.250 . S
O100 Mg101 2.028 . S
O100 C102 1.248 . S
Mg101 O100 2.028 . S
Mg101 O106 2.032 1_565 S
Mg101 O108 2.079 . S
C102 O99 1.250 . S
C102 O100 1.248 . S
C103 O104 1.264 . S
C103 O111 1.249 . S
O104 C103 1.264 . S
O105 Mg98 1.986 1_545 S
O105 C109 1.246 . S
O106 Mg101 2.032 1_545 S
O106 C109 1.259 . S
O107 Mg98 2.114 . S
O107 C110 1.252 . S
O108 Mg98 2.251 . S
O108 Mg101 2.079 . S
O108 C110 1.273 . S
C109 O105 1.246 . S
C109 O106 1.259 . S
C110 O107 1.252 . S
C110 O108 1.273 . S
O111 Mg98 2.010 . S
O111 C103 1.249 . S
Mg112 O113 2.028 . S
Mg112 O119 1.986 . S
Mg112 O121 2.114 . S
Mg112 O122 2.251 . S
Mg112 O125 2.010 1_455 S
O113 Mg112 2.028 . S
O113 C116 1.250 . S
O114 Mg115 2.028 . S
O114 C116 1.248 . S
Mg115 O114 2.028 . S
Mg115 O120 2.032 . S
Mg115 O122 2.079 . S
C116 O113 1.250 . S
C116 O114 1.248 . S
C117 O118 1.264 . S
C117 O125 1.249 . S
O118 C117 1.264 . S
O119 Mg112 1.986 . S
O119 C123 1.246 . S
O120 Mg115 2.032 . S
O120 C123 1.259 . S
O121 Mg112 2.114 . S
O121 C124 1.252 . S
O122 Mg112 2.251 . S
O122 Mg115 2.079 . S
O122 C124 1.273 . S
C123 O119 1.246 . S
C123 O120 1.259 . S
C124 O121 1.252 . S
C124 O122 1.273 . S
O125 Mg112 2.010 1_655 S
O125 C117 1.249 . S
Mg126 O127 2.028 . S
Mg126 O133 1.986 1_565 S
Mg126 O135 2.114 . S
Mg126 O136 2.251 . S
Mg126 O139 2.010 . S
O127 Mg126 2.028 . S
O127 C130 1.250 . S
O128 Mg129 2.028 . S
O128 C130 1.248 . S
Mg129 O128 2.028 . S
Mg129 O134 2.032 1_565 S
Mg129 O136 2.079 . S
C130 O127 1.250 . S
C130 O128 1.248 . S
C131 O132 1.264 . S
C131 O139 1.249 . S
O132 C131 1.264 . S
O133 Mg126 1.986 1_545 S
O133 C137 1.246 . S
O134 Mg129 2.032 1_545 S
O134 C137 1.259 . S
O135 Mg126 2.114 . S
O135 C138 1.252 . S
O136 Mg126 2.251 . S
O136 Mg129 2.079 . S
O136 C138 1.273 . S
C137 O133 1.246 . S
C137 O134 1.259 . S
C138 O135 1.252 . S
C138 O136 1.273 . S
O139 Mg126 2.010 . S
O139 C131 1.249 . S
Mg140 O141 2.028 . S
Mg140 O147 1.986 . S
Mg140 O149 2.114 . S
Mg140 O150 2.251 . S
Mg140 O153 2.010 1_455 S
O141 Mg140 2.028 . S
O141 C144 1.250 . S
O142 Mg143 2.028 . S
O142 C144 1.248 . S
Mg143 O142 2.028 . S
Mg143 O148 2.032 . S
Mg143 O150 2.079 . S
C144 O141 1.250 . S
C144 O142 1.248 . S
C145 O146 1.264 . S
C145 O153 1.249 . S
O146 C145 1.264 . S
O147 Mg140 1.986 . S
O147 C151 1.246 . S
O148 Mg143 2.032 . S
O148 C151 1.259 . S
O149 Mg140 2.114 . S
O149 C152 1.252 . S
O150 Mg140 2.251 . S
O150 Mg143 2.079 . S
O150 C152 1.273 . S
C151 O147 1.246 . S
C151 O148 1.259 . S
C152 O149 1.252 . S
C152 O150 1.273 . S
O153 Mg140 2.010 1_655 S
O153 C145 1.249 . S
Mg154 O155 2.028 . S
Mg154 O161 1.986 . S
Mg154 O163 2.114 . S
Mg154 O164 2.251 . S
Mg154 O167 2.010 . S
O155 Mg154 2.028 . S
O155 C158 1.250 . S
O156 Mg157 2.028 . S
O156 C158 1.248 . S
Mg157 O156 2.028 . S
Mg157 O162 2.032 . S
Mg157 O164 2.079 . S
C158 O155 1.250 . S
C158 O156 1.248 . S
C159 O160 1.264 . S
C159 O167 1.249 . S
O160 C159 1.264 . S
O161 Mg154 1.986 . S
O161 C165 1.246 . S
O162 Mg157 2.032 . S
O162 C165 1.259 . S
O163 Mg154 2.114 . S
O163 C166 1.252 . S
O164 Mg154 2.251 . S
O164 Mg157 2.079 . S
O164 C166 1.273 . S
C165 O161 1.246 . S
C165 O162 1.259 . S
C166 O163 1.252 . S
C166 O164 1.273 . S
O167 Mg154 2.010 . S
O167 C159 1.249 . S
Mg168 O169 2.028 . S
Mg168 O175 1.986 1_545 S
Mg168 O177 2.114 . S
Mg168 O178 2.251 . S
Mg168 O181 2.010 . S
O169 Mg168 2.028 . S
O169 C172 1.250 . S
O170 Mg171 2.028 . S
O170 C172 1.248 . S
Mg171 O170 2.028 . S
Mg171 O176 2.032 1_545 S
Mg171 O178 2.079 . S
C172 O169 1.250 . S
C172 O170 1.248 . S
C173 O174 1.264 . S
C173 O181 1.249 . S
O174 C173 1.264 . S
O175 Mg168 1.986 1_565 S
O175 C179 1.246 . S
O176 Mg171 2.032 1_565 S
O176 C179 1.259 . S
O177 Mg168 2.114 . S
O177 C180 1.252 . S
O178 Mg168 2.251 . S
O178 Mg171 2.079 . S
O178 C180 1.273 . S
C179 O175 1.246 . S
C179 O176 1.259 . S
C180 O177 1.252 . S
C180 O178 1.273 . S
O181 Mg168 2.010 . S
O181 C173 1.249 . S
Mg182 O183 2.028 . S
Mg182 O189 1.986 . S
Mg182 O191 2.114 . S
Mg182 O192 2.251 . S
Mg182 O195 2.010 1_655 S
O183 Mg182 2.028 . S
O183 C186 1.250 . S
O184 Mg185 2.028 . S
O184 C186 1.248 . S
Mg185 O184 2.028 . S
Mg185 O190 2.032 . S
Mg185 O192 2.079 . S
C186 O183 1.250 . S
C186 O184 1.248 . S
C187 O188 1.264 . S
C187 O195 1.249 . S
O188 C187 1.264 . S
O189 Mg182 1.986 . S
O189 C193 1.246 . S
O190 Mg185 2.032 . S
O190 C193 1.259 . S
O191 Mg182 2.114 . S
O191 C194 1.252 . S
O192 Mg182 2.251 . S
O192 Mg185 2.079 . S
O192 C194 1.273 . S
C193 O189 1.246 . S
C193 O190 1.259 . S
C194 O191 1.252 . S
C194 O192 1.273 . S
O195 Mg182 2.010 1_455 S
O195 C187 1.249 . S
Mg196 O197 2.028 . S
Mg196 O203 1.986 . S
Mg196 O205 2.114 . S
Mg196 O206 2.251 . S
Mg196 O209 2.010 . S
O197 Mg196 2.028 . S
O197 C200 1.250 . S
O198 Mg199 2.028 . S
O198 C200 1.248 . S
Mg199 O198 2.028 . S
Mg199 O204 2.032 . S
Mg199 O206 2.079 . S
C200 O197 1.250 . S
C200 O198 1.248 . S
C201 O202 1.264 . S
C201 O209 1.249 . S
O202 C201 1.264 . S
O203 Mg196 1.986 . S
O203 C207 1.246 . S
O204 Mg199 2.032 . S
O204 C207 1.259 . S
O205 Mg196 2.114 . S
O205 C208 1.252 . S
O206 Mg196 2.251 . S
O206 Mg199 2.079 . S
O206 C208 1.273 . S
C207 O203 1.246 . S
C207 O204 1.259 . S
C208 O205 1.252 . S
C208 O206 1.273 . S
O209 Mg196 2.010 . S
O209 C201 1.249 . S
Mg210 O211 2.028 . S
Mg210 O217 1.986 . S
Mg210 O219 2.114 . S
Mg210 O220 2.251 . S
Mg210 O223 2.010 . S
O211 Mg210 2.028 . S
O211 C214 1.250 . S
O212 Mg213 2.028 . S
O212 C214 1.248 . S
Mg213 O212 2.028 . S
Mg213 O218 2.032 . S
Mg213 O220 2.079 . S
C214 O211 1.250 . S
C214 O212 1.248 . S
C215 O216 1.264 . S
C215 O223 1.249 . S
O216 C215 1.264 . S
O217 Mg210 1.986 . S
O217 C221 1.246 . S
O218 Mg213 2.032 . S
O218 C221 1.259 . S
O219 Mg210 2.114 . S
O219 C222 1.252 . S
O220 Mg210 2.251 . S
O220 Mg213 2.079 . S
O220 C222 1.273 . S
C221 O217 1.246 . S
C221 O218 1.259 . S
C222 O219 1.252 . S
C222 O220 1.273 . S
O223 Mg210 2.010 . S
O223 C215 1.249 . S
Mg224 O225 2.028 . S
Mg224 O231 1.986 1_545 S
Mg224 O233 2.114 . S
Mg224 O234 2.251 . S
Mg224 O237 2.010 . S
O225 Mg224 2.028 . S
O225 C228 1.250 . S
O226 Mg227 2.028 . S
O226 C228 1.248 . S
Mg227 O226 2.028 . S
Mg227 O232 2.032 1_545 S
Mg227 O234 2.079 . S
C228 O225 1.250 . S
C228 O226 1.248 . S
C229 O230 1.264 . S
C229 O237 1.249 . S
O230 C229 1.264 . S
O231 Mg224 1.986 1_565 S
O231 C235 1.246 . S
O232 Mg227 2.032 1_565 S
O232 C235 1.259 . S
O233 Mg224 2.114 . S
O233 C236 1.252 . S
O234 Mg224 2.251 . S
O234 Mg227 2.079 . S
O234 C236 1.273 . S
C235 O231 1.246 . S
C235 O232 1.259 . S
C236 O233 1.252 . S
C236 O234 1.273 . S
O237 Mg224 2.010 . S
O237 C229 1.249 . S
Mg238 O239 2.028 . S
Mg238 O245 1.986 . S
Mg238 O247 2.114 . S
Mg238 O248 2.251 . S
Mg238 O251 2.010 1_655 S
O239 Mg238 2.028 . S
O239 C242 1.250 . S
O240 Mg241 2.028 . S
O240 C242 1.248 . S
Mg241 O240 2.028 . S
Mg241 O246 2.032 . S
Mg241 O248 2.079 . S
C242 O239 1.250 . S
C242 O240 1.248 . S
C243 O244 1.264 . S
C243 O251 1.249 . S
O244 C243 1.264 . S
O245 Mg238 1.986 . S
O245 C249 1.246 . S
O246 Mg241 2.032 . S
O246 C249 1.259 . S
O247 Mg238 2.114 . S
O247 C250 1.252 . S
O248 Mg238 2.251 . S
O248 Mg241 2.079 . S
O248 C250 1.273 . S
C249 O245 1.246 . S
C249 O246 1.259 . S
C250 O247 1.252 . S
C250 O248 1.273 . S
O251 Mg238 2.010 1_455 S
O251 C243 1.249 . S
H252 C258 0.930 . S
H253 C261 0.931 . S
H254 C263 0.931 . S
H255 C265 0.930 . S
H256 C267 0.930 . S
H257 C269 0.931 . S
C258 H252 0.930 . S
C258 C259 1.380 . S
C258 C260 1.394 . S
C259 C258 1.380 . S
C259 C263 1.382 . S
C260 C258 1.394 . S
C260 C261 1.400 . S
C261 H253 0.931 . S
C261 C260 1.400 . S
C261 C262 1.375 . S
C262 C261 1.375 . S
C262 C263 1.415 . S
C262 C264 1.501 . S
C263 H254 0.931 . S
C263 C259 1.382 . S
C263 C262 1.415 . S
C264 C262 1.501 . S
C264 C265 1.384 . S
C264 C269 1.408 . S
C265 H255 0.930 . S
C265 C264 1.384 . S
C265 C266 1.389 . S
C266 C265 1.389 . S
C266 C267 1.405 . S
C267 H256 0.930 . S
C267 C266 1.405 . S
C267 C268 1.364 . S
C268 C267 1.364 . S
C268 C269 1.400 . S
C269 H257 0.931 . S
C269 C264 1.408 . S
C269 C268 1.400 . S
H270 C276 0.930 . S
H271 C279 0.931 . S
H272 C281 0.931 . S
H273 C283 0.930 . S
H274 C285 0.930 . S
H275 C287 0.931 . S
C276 H270 0.930 . S
C276 C277 1.380 . S
C276 C278 1.394 . S
C277 C276 1.380 . S
C277 C281 1.382 . S
C278 C276 1.394 . S
C278 C279 1.400 . S
C279 H271 0.931 . S
C279 C278 1.400 . S
C279 C280 1.375 . S
C280 C279 1.375 . S
C280 C281 1.415 . S
C280 C282 1.501 . S
C281 H272 0.931 . S
C281 C277 1.382 . S
C281 C280 1.415 . S
C282 C280 1.501 . S
C282 C283 1.384 . S
C282 C287 1.408 . S
C283 H273 0.930 . S
C283 C282 1.384 . S
C283 C284 1.389 . S
C284 C283 1.389 . S
C284 C285 1.405 . S
C285 H274 0.930 . S
C285 C284 1.405 . S
C285 C286 1.364 . S
C286 C285 1.364 . S
C286 C287 1.400 . S
C287 H275 0.931 . S
C287 C282 1.408 . S
C287 C286 1.400 . S
H288 C294 0.930 . S
H289 C297 0.931 . S
H290 C299 0.931 . S
H291 C301 0.930 . S
H292 C303 0.930 . S
H293 C305 0.931 . S
C294 H288 0.930 . S
C294 C295 1.380 . S
C294 C296 1.394 . S
C295 C294 1.380 . S
C295 C299 1.382 . S
C296 C294 1.394 . S
C296 C297 1.400 . S
C297 H289 0.931 . S
C297 C296 1.400 . S
C297 C298 1.375 . S
C298 C297 1.375 . S
C298 C299 1.415 . S
C298 C300 1.501 . S
C299 H290 0.931 . S
C299 C295 1.382 . S
C299 C298 1.415 . S
C300 C298 1.501 . S
C300 C301 1.384 . S
C300 C305 1.408 . S
C301 H291 0.930 . S
C301 C300 1.384 . S
C301 C302 1.389 . S
C302 C301 1.389 . S
C302 C303 1.405 . S
C303 H292 0.930 . S
C303 C302 1.405 . S
C303 C304 1.364 . S
C304 C303 1.364 . S
C304 C305 1.400 . S
C305 H293 0.931 . S
C305 C300 1.408 . S
C305 C304 1.400 . S
H306 C312 0.930 . S
H307 C315 0.931 . S
H308 C317 0.931 . S
H309 C319 0.930 . S
H310 C321 0.930 . S
H311 C323 0.931 . S
C312 H306 0.930 . S
C312 C313 1.380 . S
C312 C314 1.394 . S
C313 C312 1.380 . S
C313 C317 1.382 . S
C314 C312 1.394 . S
C314 C315 1.400 . S
C315 H307 0.931 . S
C315 C314 1.400 . S
C315 C316 1.375 . S
C316 C315 1.375 . S
C316 C317 1.415 . S
C316 C318 1.501 . S
C317 H308 0.931 . S
C317 C313 1.382 . S
C317 C316 1.415 . S
C318 C316 1.501 . S
C318 C319 1.384 . S
C318 C323 1.408 . S
C319 H309 0.930 . S
C319 C318 1.384 . S
C319 C320 1.389 . S
C320 C319 1.389 . S
C320 C321 1.405 . S
C321 H310 0.930 . S
C321 C320 1.405 . S
C321 C322 1.364 . S
C322 C321 1.364 . S
C322 C323 1.400 . S
C323 H311 0.931 . S
C323 C318 1.408 . S
C323 C322 1.400 . S
H324 C330 0.930 . S
H325 C333 0.931 . S
H326 C335 0.931 . S
H327 C337 0.930 . S
H328 C339 0.930 . S
H329 C341 0.931 . S
C330 H324 0.930 . S
C330 C331 1.380 . S
C330 C332 1.394 . S
C331 C330 1.380 . S
C331 C335 1.382 . S
C332 C330 1.394 . S
C332 C333 1.400 . S
C333 H325 0.931 . S
C333 C332 1.400 . S
C333 C334 1.375 . S
C334 C333 1.375 . S
C334 C335 1.415 . S
C334 C336 1.501 . S
C335 H326 0.931 . S
C335 C331 1.382 . S
C335 C334 1.415 . S
C336 C334 1.501 . S
C336 C337 1.384 . S
C336 C341 1.408 . S
C337 H327 0.930 . S
C337 C336 1.384 . S
C337 C338 1.389 . S
C338 C337 1.389 . S
C338 C339 1.405 . S
C339 H328 0.930 . S
C339 C338 1.405 . S
C339 C340 1.364 . S
C340 C339 1.364 . S
C340 C341 1.400 . S
C341 H329 0.931 . S
C341 C336 1.408 . S
C341 C340 1.400 . S
H342 C348 0.930 . S
H343 C351 0.931 . S
H344 C353 0.931 . S
H345 C355 0.930 . S
H346 C357 0.930 . S
H347 C359 0.931 . S
C348 H342 0.930 . S
C348 C349 1.380 . S
C348 C350 1.394 . S
C349 C348 1.380 . S
C349 C353 1.382 . S
C350 C348 1.394 . S
C350 C351 1.400 . S
C351 H343 0.931 . S
C351 C350 1.400 . S
C351 C352 1.375 . S
C352 C351 1.375 . S
C352 C353 1.415 . S
C352 C354 1.501 . S
C353 H344 0.931 . S
C353 C349 1.382 . S
C353 C352 1.415 . S
C354 C352 1.501 . S
C354 C355 1.384 . S
C354 C359 1.408 . S
C355 H345 0.930 . S
C355 C354 1.384 . S
C355 C356 1.389 . S
C356 C355 1.389 . S
C356 C357 1.405 . S
C357 H346 0.930 . S
C357 C356 1.405 . S
C357 C358 1.364 . S
C358 C357 1.364 . S
C358 C359 1.400 . S
C359 H347 0.931 . S
C359 C354 1.408 . S
C359 C358 1.400 . S
H360 C366 0.930 . S
H361 C369 0.931 . S
H362 C371 0.931 . S
H363 C373 0.930 . S
H364 C375 0.930 . S
H365 C377 0.931 . S
C366 H360 0.930 . S
C366 C367 1.380 . S
C366 C368 1.394 . S
C367 C366 1.380 . S
C367 C371 1.382 . S
C368 C366 1.394 . S
C368 C369 1.400 . S
C369 H361 0.931 . S
C369 C368 1.400 . S
C369 C370 1.375 . S
C370 C369 1.375 . S
C370 C371 1.415 . S
C370 C372 1.501 . S
C371 H362 0.931 . S
C371 C367 1.382 . S
C371 C370 1.415 . S
C372 C370 1.501 . S
C372 C373 1.384 . S
C372 C377 1.408 . S
C373 H363 0.930 . S
C373 C372 1.384 . S
C373 C374 1.389 . S
C374 C373 1.389 . S
C374 C375 1.405 . S
C375 H364 0.930 . S
C375 C374 1.405 . S
C375 C376 1.364 . S
C376 C375 1.364 . S
C376 C377 1.400 . S
C377 H365 0.931 . S
C377 C372 1.408 . S
C377 C376 1.400 . S
H378 C384 0.930 . S
H379 C387 0.931 . S
H380 C389 0.931 . S
H381 C391 0.930 . S
H382 C393 0.930 . S
H383 C395 0.931 . S
C384 H378 0.930 . S
C384 C385 1.380 . S
C384 C386 1.394 . S
C385 C384 1.380 . S
C385 C389 1.382 . S
C386 C384 1.394 . S
C386 C387 1.400 . S
C387 H379 0.931 . S
C387 C386 1.400 . S
C387 C388 1.375 . S
C388 C387 1.375 . S
C388 C389 1.415 . S
C388 C390 1.501 . S
C389 H380 0.931 . S
C389 C385 1.382 . S
C389 C388 1.415 . S
C390 C388 1.501 . S
C390 C391 1.384 . S
C390 C395 1.408 . S
C391 H381 0.930 . S
C391 C390 1.384 . S
C391 C392 1.389 . S
C392 C391 1.389 . S
C392 C393 1.405 . S
C393 H382 0.930 . S
C393 C392 1.405 . S
C393 C394 1.364 . S
C394 C393 1.364 . S
C394 C395 1.400 . S
C395 H383 0.931 . S
C395 C390 1.408 . S
C395 C394 1.400 . S
H396 C402 0.930 . S
H397 C405 0.931 . S
H398 C407 0.931 . S
H399 C409 0.930 . S
H400 C411 0.930 . S
H401 C413 0.931 . S
C402 H396 0.930 . S
C402 C403 1.380 . S
C402 C404 1.394 . S
C403 C402 1.380 . S
C403 C407 1.382 . S
C404 C402 1.394 . S
C404 C405 1.400 . S
C405 H397 0.931 . S
C405 C404 1.400 . S
C405 C406 1.375 . S
C406 C405 1.375 . S
C406 C407 1.415 . S
C406 C408 1.501 . S
C407 H398 0.931 . S
C407 C403 1.382 . S
C407 C406 1.415 . S
C408 C406 1.501 . S
C408 C409 1.384 . S
C408 C413 1.408 . S
C409 H399 0.930 . S
C409 C408 1.384 . S
C409 C410 1.389 . S
C410 C409 1.389 . S
C410 C411 1.405 . S
C411 H400 0.930 . S
C411 C410 1.405 . S
C411 C412 1.364 . S
C412 C411 1.364 . S
C412 C413 1.400 . S
C413 H401 0.931 . S
C413 C408 1.408 . S
C413 C412 1.400 . S
H414 C420 0.925 . S
H415 C423 0.931 . S
H416 C425 0.931 . S
H417 C427 0.930 . S
H418 C429 0.930 . S
H419 C431 0.941 . S
C420 H414 0.925 . S
C420 C421 1.384 . S
C420 C422 1.395 1_655 S
C421 C420 1.384 . S
C421 C425 1.382 . S
C422 C420 1.395 1_455 S
C422 C423 1.400 . S
C423 H415 0.931 . S
C423 C422 1.400 . S
C423 C424 1.375 . S
C424 C423 1.375 . S
C424 C425 1.415 1_455 S
C424 C426 1.501 . S
C425 H416 0.931 . S
C425 C421 1.382 . S
C425 C424 1.415 1_655 S
C426 C424 1.501 . S
C426 C427 1.384 . S
C426 C431 1.421 . S
C427 H417 0.930 . S
C427 C426 1.384 . S
C427 C428 1.389 . S
C428 C427 1.389 . S
C428 C429 1.405 . S
C429 H418 0.930 . S
C429 C428 1.405 . S
C429 C430 1.360 . S
C430 C429 1.360 . S
C430 C431 1.391 . S
C431 H419 0.941 . S
C431 C426 1.421 . S
C431 C430 1.391 . S
H432 C438 0.930 . S
H433 C441 0.931 . S
H434 C443 0.931 . S
H435 C445 0.930 . S
H436 C447 0.930 . S
H437 C449 0.931 . S
C438 H432 0.930 . S
C438 C439 1.380 . S
C438 C440 1.394 . S
C439 C438 1.380 . S
C439 C443 1.382 . S
C440 C438 1.394 . S
C440 C441 1.400 . S
C441 H433 0.931 . S
C441 C440 1.400 . S
C441 C442 1.375 . S
C442 C441 1.375 . S
C442 C443 1.415 . S
C442 C444 1.501 . S
C443 H434 0.931 . S
C443 C439 1.382 . S
C443 C442 1.415 . S
C444 C442 1.501 . S
C444 C445 1.384 . S
C444 C449 1.408 . S
C445 H435 0.930 . S
C445 C444 1.384 . S
C445 C446 1.389 . S
C446 C445 1.389 . S
C446 C447 1.405 . S
C447 H436 0.930 . S
C447 C446 1.405 . S
C447 C448 1.364 . S
C448 C447 1.364 . S
C448 C449 1.400 . S
C449 H437 0.931 . S
C449 C444 1.408 . S
C449 C448 1.400 . S
H450 C456 0.939 . S
H451 C459 0.931 . S
H452 C461 0.931 . S
H453 C463 0.930 . S
H454 C465 0.930 . S
H455 C467 0.921 . S
C456 H450 0.939 . S
C456 C457 1.378 . S
C456 C458 1.387 1_545 S
C457 C456 1.378 . S
C457 C461 1.382 . S
C458 C456 1.387 1_565 S
C458 C459 1.400 . S
C459 H451 0.931 . S
C459 C458 1.400 . S
C459 C460 1.375 . S
C460 C459 1.375 . S
C460 C461 1.415 1_565 S
C460 C462 1.501 . S
C461 H452 0.931 . S
C461 C457 1.382 . S
C461 C460 1.415 1_545 S
C462 C460 1.501 . S
C462 C463 1.384 . S
C462 C467 1.396 . S
C463 H453 0.930 . S
C463 C462 1.384 . S
C463 C464 1.389 . S
C464 C463 1.389 . S
C464 C465 1.405 . S
C465 H454 0.930 . S
C465 C464 1.405 . S
C465 C466 1.375 . S
C466 C465 1.375 . S
C466 C467 1.408 . S
C467 H455 0.921 . S
C467 C462 1.396 . S
C467 C466 1.408 . S
H468 C474 0.909 . S
H469 C477 0.931 . S
H470 C479 0.926 . S
H471 C481 0.930 . S
H472 C483 0.930 . S
H473 C485 0.931 . S
C474 H468 0.909 . S
C474 C475 1.385 . S
C474 C476 1.415 1_545 S
C475 C474 1.385 . S
C475 C479 1.403 1_545 S
C476 C474 1.415 1_565 S
C476 C477 1.384 . S
C477 H469 0.931 . S
C477 C476 1.384 . S
C477 C478 1.375 . S
C478 C477 1.375 . S
C478 C479 1.411 . S
C478 C480 1.501 . S
C479 H470 0.926 . S
C479 C475 1.403 1_565 S
C479 C478 1.411 . S
C480 C478 1.501 . S
C480 C481 1.384 . S
C480 C485 1.408 1_565 S
C481 H471 0.930 . S
C481 C480 1.384 . S
C481 C482 1.389 . S
C482 C481 1.389 . S
C482 C483 1.405 . S
C483 H472 0.930 . S
C483 C482 1.405 . S
C483 C484 1.364 1_565 S
C484 C483 1.364 1_545 S
C484 C485 1.400 . S
C485 H473 0.931 . S
C485 C480 1.408 1_545 S
C485 C484 1.400 . S
H486 C492 0.962 . S
H487 C495 0.931 . S
H488 C497 0.934 . S
H489 C499 0.930 . S
H490 C501 0.930 . S
H491 C503 0.931 . S
C492 H486 0.962 . S
C492 C493 1.372 . S
C492 C494 1.371 1_655 S
C493 C492 1.372 . S
C493 C497 1.359 1_655 S
C494 C492 1.371 1_455 S
C494 C495 1.414 . S
C495 H487 0.931 . S
C495 C494 1.414 . S
C495 C496 1.375 . S
C496 C495 1.375 . S
C496 C497 1.422 . S
C496 C498 1.501 . S
C497 H488 0.934 . S
C497 C493 1.359 1_455 S
C497 C496 1.422 . S
C498 C496 1.501 . S
C498 C499 1.384 . S
C498 C503 1.408 1_455 S
C499 H489 0.930 . S
C499 C498 1.384 . S
C499 C500 1.389 . S
C500 C499 1.389 . S
C500 C501 1.405 . S
C501 H490 0.930 . S
C501 C500 1.405 . S
C501 C502 1.364 1_455 S
C502 C501 1.364 1_655 S
C502 C503 1.400 . S
C503 H491 0.931 . S
C503 C498 1.408 1_655 S
C503 C502 1.400 . S
H504 C510 0.930 . S
H505 C513 0.931 . S
H506 C515 0.931 . S
H507 C517 0.930 . S
H508 C519 0.930 . S
H509 C521 0.931 . S
C510 H504 0.930 . S
C510 C511 1.380 . S
C510 C512 1.394 . S
C511 C510 1.380 . S
C511 C515 1.382 . S
C512 C510 1.394 . S
C512 C513 1.400 . S
C513 H505 0.931 . S
C513 C512 1.400 . S
C513 C514 1.375 . S
C514 C513 1.375 . S
C514 C515 1.415 . S
C514 C516 1.501 . S
C515 H506 0.931 . S
C515 C511 1.382 . S
C515 C514 1.415 . S
C516 C514 1.501 . S
C516 C517 1.384 . S
C516 C521 1.408 . S
C517 H507 0.930 . S
C517 C516 1.384 . S
C517 C518 1.389 . S
C518 C517 1.389 . S
C518 C519 1.405 . S
C519 H508 0.930 . S
C519 C518 1.405 . S
C519 C520 1.364 . S
C520 C519 1.364 . S
C520 C521 1.400 . S
C521 H509 0.931 . S
C521 C516 1.408 . S
C521 C520 1.400 . S
H522 C528 0.930 . S
H523 C531 0.931 . S
H524 C533 0.931 . S
H525 C535 0.930 . S
H526 C537 0.930 . S
H527 C539 0.931 . S
C528 H522 0.930 . S
C528 C529 1.380 . S
C528 C530 1.394 . S
C529 C528 1.380 . S
C529 C533 1.382 . S
C530 C528 1.394 . S
C530 C531 1.400 . S
C531 H523 0.931 . S
C531 C530 1.400 . S
C531 C532 1.375 . S
C532 C531 1.375 . S
C532 C533 1.415 . S
C532 C534 1.501 . S
C533 H524 0.931 . S
C533 C529 1.382 . S
C533 C532 1.415 . S
C534 C532 1.501 . S
C534 C535 1.384 . S
C534 C539 1.408 . S
C535 H525 0.930 . S
C535 C534 1.384 . S
C535 C536 1.389 . S
C536 C535 1.389 . S
C536 C537 1.405 . S
C537 H526 0.930 . S
C537 C536 1.405 . S
C537 C538 1.364 . S
C538 C537 1.364 . S
C538 C539 1.400 . S
C539 H527 0.931 . S
C539 C534 1.408 . S
C539 C538 1.400 . S
H540 C546 0.930 . S
H541 C549 0.931 . S
H542 C551 0.931 . S
H543 C553 0.930 . S
H544 C555 0.930 . S
H545 C557 0.931 . S
C546 H540 0.930 . S
C546 C547 1.380 . S
C546 C548 1.394 . S
C547 C546 1.380 . S
C547 C551 1.382 . S
C548 C546 1.394 . S
C548 C549 1.400 . S
C549 H541 0.931 . S
C549 C548 1.400 . S
C549 C550 1.375 . S
C550 C549 1.375 . S
C550 C551 1.415 . S
C550 C552 1.501 . S
C551 H542 0.931 . S
C551 C547 1.382 . S
C551 C550 1.415 . S
C552 C550 1.501 . S
C552 C553 1.384 . S
C552 C557 1.408 . S
C553 H543 0.930 . S
C553 C552 1.384 . S
C553 C554 1.389 . S
C554 C553 1.389 . S
C554 C555 1.405 . S
C555 H544 0.930 . S
C555 C554 1.405 . S
C555 C556 1.364 . S
C556 C555 1.364 . S
C556 C557 1.400 . S
C557 H545 0.931 . S
C557 C552 1.408 . S
C557 C556 1.400 . S
H558 C564 0.930 . S
H559 C567 0.931 . S
H560 C569 0.931 . S
H561 C571 0.930 . S
H562 C573 0.930 . S
H563 C575 0.931 . S
C564 H558 0.930 . S
C564 C565 1.380 . S
C564 C566 1.394 . S
C565 C564 1.380 . S
C565 C569 1.382 . S
C566 C564 1.394 . S
C566 C567 1.400 . S
C567 H559 0.931 . S
C567 C566 1.400 . S
C567 C568 1.375 . S
C568 C567 1.375 . S
C568 C569 1.415 . S
C568 C570 1.501 . S
C569 H560 0.931 . S
C569 C565 1.382 . S
C569 C568 1.415 . S
C570 C568 1.501 . S
C570 C571 1.384 . S
C570 C575 1.408 . S
C571 H561 0.930 . S
C571 C570 1.384 . S
C571 C572 1.389 . S
C572 C571 1.389 . S
C572 C573 1.405 . S
C573 H562 0.930 . S
C573 C572 1.405 . S
C573 C574 1.364 . S
C574 C573 1.364 . S
C574 C575 1.400 . S
C575 H563 0.931 . S
C575 C570 1.408 . S
C575 C574 1.400 . S
H576 C584 0.973 . S
H577 C589 0.950 . S
H578 C586 0.950 . S
H579 C588 0.950 . S
H580 C590 0.950 . S
H581 C592 0.950 . S
H582 C594 0.950 . S
H583 C595 0.950 . S
C584 H576 0.973 . S
C584 C585 1.386 . S
C584 C586 1.391 . S
C585 C584 1.386 . S
C585 C589 1.393 . S
C586 H578 0.950 . S
C586 C584 1.391 . S
C586 C587 1.400 . S
C587 C586 1.400 . S
C587 C588 1.398 . S
C587 C593 1.491 . S
C588 H579 0.950 . S
C588 C587 1.398 . S
C588 C589 1.391 . S
C589 H577 0.950 . S
C589 C585 1.393 . S
C589 C588 1.391 . S
C590 H580 0.950 . S
C590 C591 1.386 . S
C590 C592 1.391 . S
C591 C590 1.386 . S
C591 C595 1.393 . S
C592 H581 0.950 . S
C592 C590 1.391 . S
C592 C593 1.400 . S
C593 C587 1.491 . S
C593 C592 1.400 . S
C593 C594 1.398 . S
C594 H582 0.950 . S
C594 C593 1.398 . S
C594 C595 1.391 . S
C595 H583 0.950 . S
C595 C591 1.393 . S
C595 C594 1.391 . S
H596 C604 0.950 . S
H597 C609 0.950 . S
H598 C606 0.950 . S
H599 C608 0.950 . S
H600 C610 0.950 . S
H601 C612 0.950 . S
H602 C614 0.950 . S
H603 C615 0.950 . S
C604 H596 0.950 . S
C604 C605 1.386 . S
C604 C606 1.391 . S
C605 C604 1.386 . S
C605 C609 1.393 . S
C606 H598 0.950 . S
C606 C604 1.391 . S
C606 C607 1.400 . S
C607 C606 1.400 . S
C607 C608 1.398 . S
C607 C613 1.491 . S
C608 H599 0.950 . S
C608 C607 1.398 . S
C608 C609 1.391 . S
C609 H597 0.950 . S
C609 C605 1.393 . S
C609 C608 1.391 . S
C610 H600 0.950 . S
C610 C611 1.386 . S
C610 C612 1.391 . S
C611 C610 1.386 . S
C611 C615 1.393 . S
C612 H601 0.950 . S
C612 C610 1.391 . S
C612 C613 1.400 . S
C613 C607 1.491 . S
C613 C612 1.400 . S
C613 C614 1.398 . S
C614 H602 0.950 . S
C614 C613 1.398 . S
C614 C615 1.391 . S
C615 H603 0.950 . S
C615 C611 1.393 . S
C615 C614 1.391 . S
H616 C624 0.950 1_565 S
H617 C629 0.950 . S
H618 C626 0.939 1_565 S
H619 C628 0.950 . S
H620 C630 0.950 . S
H621 C632 0.950 . S
H622 C634 0.963 1_565 S
H623 C635 0.948 . S
C624 H616 0.950 1_545 S
C624 C625 1.386 . S
C624 C626 1.411 . S
C625 C624 1.386 . S
C625 C629 1.393 . S
C626 H618 0.939 1_545 S
C626 C624 1.411 . S
C626 C627 1.393 . S
C627 C626 1.393 . S
C627 C628 1.398 . S
C627 C633 1.491 . S
C628 H619 0.950 . S
C628 C627 1.398 . S
C628 C629 1.391 . S
C629 H617 0.950 . S
C629 C625 1.393 . S
C629 C628 1.391 . S
C630 H620 0.950 . S
C630 C631 1.386 . S
C630 C632 1.391 . S
C631 C630 1.386 . S
C631 C635 1.392 1_545 S
C632 H621 0.950 . S
C632 C630 1.391 . S
C632 C633 1.400 . S
C633 C627 1.491 . S
C633 C632 1.400 . S
C633 C634 1.412 . S
C634 H622 0.963 1_545 S
C634 C633 1.412 . S
C634 C635 1.370 1_545 S
C635 H623 0.948 . S
C635 C631 1.392 1_565 S
C635 C634 1.370 1_565 S
H636 C644 0.950 . S
H637 C649 0.950 . S
H638 C646 0.950 . S
H639 C648 0.950 . S
H640 C650 0.950 . S
H641 C652 0.950 . S
H642 C654 0.950 . S
H643 C655 0.950 . S
C644 H636 0.950 . S
C644 C645 1.386 1_545 S
C644 C646 1.391 . S
C645 C644 1.386 1_565 S
C645 C649 1.393 . S
C646 H638 0.950 . S
C646 C644 1.391 . S
C646 C647 1.400 1_545 S
C647 C646 1.400 1_565 S
C647 C648 1.398 . S
C647 C653 1.491 . S
C648 H639 0.950 . S
C648 C647 1.398 . S
C648 C649 1.391 . S
C649 H637 0.950 . S
C649 C645 1.393 . S
C649 C648 1.391 . S
C650 H640 0.950 . S
C650 C651 1.386 . S
C650 C652 1.391 . S
C651 C650 1.386 . S
C651 C655 1.393 1_565 S
C652 H641 0.950 . S
C652 C650 1.391 . S
C652 C653 1.400 . S
C653 C647 1.491 . S
C653 C652 1.400 . S
C653 C654 1.398 1_565 S
C654 H642 0.950 . S
C654 C653 1.398 1_545 S
C654 C655 1.391 . S
C655 H643 0.950 . S
C655 C651 1.393 1_545 S
C655 C654 1.391 . S
H656 C664 0.950 . S
H657 C669 0.950 . S
H658 C666 0.950 . S
H659 C668 0.950 . S
H660 C670 0.950 . S
H661 C672 0.950 . S
H662 C674 0.950 . S
H663 C675 0.950 . S
C664 H656 0.950 . S
C664 C665 1.386 . S
C664 C666 1.391 . S
C665 C664 1.386 . S
C665 C669 1.393 1_455 S
C666 H658 0.950 . S
C666 C664 1.391 . S
C666 C667 1.400 . S
C667 C666 1.400 . S
C667 C668 1.398 1_455 S
C667 C673 1.491 . S
C668 H659 0.950 . S
C668 C667 1.398 1_655 S
C668 C669 1.391 . S
C669 H657 0.950 . S
C669 C665 1.393 1_655 S
C669 C668 1.391 . S
C670 H660 0.950 . S
C670 C671 1.386 1_655 S
C670 C672 1.391 . S
C671 C670 1.386 1_455 S
C671 C675 1.393 . S
C672 H661 0.950 . S
C672 C670 1.391 . S
C672 C673 1.400 1_655 S
C673 C667 1.491 . S
C673 C672 1.400 1_455 S
C673 C674 1.398 . S
C674 H662 0.950 . S
C674 C673 1.398 . S
C674 C675 1.391 . S
C675 H663 0.950 . S
C675 C671 1.393 . S
C675 C674 1.391 . S
H676 C684 0.950 . S
H677 C689 0.950 . S
H678 C686 0.950 . S
H679 C688 0.950 . S
H680 C690 0.950 . S
H681 C692 0.950 . S
H682 C694 0.950 . S
H683 C695 0.950 . S
C684 H676 0.950 . S
C684 C685 1.386 . S
C684 C686 1.391 . S
C685 C684 1.386 . S
C685 C689 1.393 . S
C686 H678 0.950 . S
C686 C684 1.391 . S
C686 C687 1.400 . S
C687 C686 1.400 . S
C687 C688 1.398 . S
C687 C693 1.491 . S
C688 H679 0.950 . S
C688 C687 1.398 . S
C688 C689 1.391 . S
C689 H677 0.950 . S
C689 C685 1.393 . S
C689 C688 1.391 . S
C690 H680 0.950 . S
C690 C691 1.386 . S
C690 C692 1.391 . S
C691 C690 1.386 . S
C691 C695 1.393 . S
C692 H681 0.950 . S
C692 C690 1.391 . S
C692 C693 1.400 . S
C693 C687 1.491 . S
C693 C692 1.400 . S
C693 C694 1.398 . S
C694 H682 0.950 . S
C694 C693 1.398 . S
C694 C695 1.391 . S
C695 H683 0.950 . S
C695 C691 1.393 . S
C695 C694 1.391 . S
H696 C704 0.950 . S
H697 C709 0.950 . S
H698 C706 0.950 . S
H699 C708 0.950 . S
H700 C710 0.950 . S
H701 C712 0.950 . S
H702 C714 0.950 . S
H703 C715 0.950 . S
C704 H696 0.950 . S
C704 C705 1.386 1_655 S
C704 C706 1.391 . S
C705 C704 1.386 1_455 S
C705 C709 1.393 . S
C706 H698 0.950 . S
C706 C704 1.391 . S
C706 C707 1.400 1_655 S
C707 C706 1.400 1_455 S
C707 C708 1.398 . S
C707 C713 1.491 . S
C708 H699 0.950 . S
C708 C707 1.398 . S
C708 C709 1.391 . S
C709 H697 0.950 . S
C709 C705 1.393 . S
C709 C708 1.391 . S
C710 H700 0.950 . S
C710 C711 1.383 1_455 S
C710 C712 1.391 . S
C711 C710 1.383 1_655 S
C711 C715 1.398 . S
C712 H701 0.950 . S
C712 C710 1.391 . S
C712 C713 1.400 . S
C713 C707 1.491 . S
C713 C712 1.400 . S
C713 C714 1.398 1_455 S
C714 H702 0.950 . S
C714 C713 1.398 1_655 S
C714 C715 1.391 . S
C715 H703 0.950 . S
C715 C711 1.398 . S
C715 C714 1.391 . S
H716 C724 0.950 . S
H717 C729 0.950 . S
H718 C726 0.950 . S
H719 C728 0.950 . S
H720 C730 0.950 . S
H721 C732 0.950 . S
H722 C734 0.950 . S
H723 C735 0.950 . S
C724 H716 0.950 . S
C724 C725 1.386 . S
C724 C726 1.391 . S
C725 C724 1.386 . S
C725 C729 1.393 . S
C726 H718 0.950 . S
C726 C724 1.391 . S
C726 C727 1.400 . S
C727 C726 1.400 . S
C727 C728 1.398 . S
C727 C733 1.491 . S
C728 H719 0.950 . S
C728 C727 1.398 . S
C728 C729 1.391 . S
C729 H717 0.950 . S
C729 C725 1.393 . S
C729 C728 1.391 . S
C730 H720 0.950 . S
C730 C731 1.386 . S
C730 C732 1.391 . S
C731 C730 1.386 . S
C731 C735 1.393 . S
C732 H721 0.950 . S
C732 C730 1.391 . S
C732 C733 1.400 . S
C733 C727 1.491 . S
C733 C732 1.400 . S
C733 C734 1.398 . S
C734 H722 0.950 . S
C734 C733 1.398 . S
C734 C735 1.391 . S
C735 H723 0.950 . S
C735 C731 1.393 . S
C735 C734 1.391 . S
H736 C744 0.950 . S
H737 C749 0.950 . S
H738 C746 0.950 . S
H739 C748 0.950 . S
H740 C750 0.950 . S
H741 C752 0.950 . S
H742 C754 0.950 . S
H743 C755 0.950 . S
C744 H736 0.950 . S
C744 C745 1.386 1_545 S
C744 C746 1.391 . S
C745 C744 1.386 1_565 S
C745 C749 1.393 . S
C746 H738 0.950 . S
C746 C744 1.391 . S
C746 C747 1.400 1_545 S
C747 C746 1.400 1_565 S
C747 C748 1.398 . S
C747 C753 1.491 . S
C748 H739 0.950 . S
C748 C747 1.398 . S
C748 C749 1.391 . S
C749 H737 0.950 . S
C749 C745 1.393 . S
C749 C748 1.391 . S
C750 H740 0.950 . S
C750 C751 1.395 . S
C750 C752 1.391 . S
C751 C750 1.395 . S
C751 C755 1.388 1_565 S
C752 H741 0.950 . S
C752 C750 1.391 . S
C752 C753 1.400 . S
C753 C747 1.491 . S
C753 C752 1.400 . S
C753 C754 1.398 1_565 S
C754 H742 0.950 . S
C754 C753 1.398 1_545 S
C754 C755 1.391 . S
C755 H743 0.950 . S
C755 C751 1.388 1_545 S
C755 C754 1.391 . S
H756 C764 0.950 . S
H757 C769 0.967 . S
H758 C766 0.950 . S
H759 C768 0.950 1_565 S
H760 C770 0.950 . S
H761 C772 0.950 . S
H762 C774 0.950 . S
H763 C775 0.950 . S
C764 H756 0.950 . S
C764 C765 1.386 . S
C764 C766 1.391 . S
C765 C764 1.386 . S
C765 C769 1.393 . S
C766 H758 0.950 . S
C766 C764 1.391 . S
C766 C767 1.400 . S
C767 C766 1.400 . S
C767 C768 1.398 . S
C767 C773 1.491 . S
C768 H759 0.950 1_545 S
C768 C767 1.398 . S
C768 C769 1.391 . S
C769 H757 0.967 . S
C769 C765 1.393 . S
C769 C768 1.391 . S
C770 H760 0.950 . S
C770 C771 1.386 1_565 S
C770 C772 1.391 . S
C771 C770 1.386 1_545 S
C771 C775 1.393 . S
C772 H761 0.950 . S
C772 C770 1.391 . S
C772 C773 1.400 1_565 S
C773 C767 1.491 . S
C773 C772 1.400 1_545 S
C773 C774 1.398 . S
C774 H762 0.950 . S
C774 C773 1.398 . S
C774 C775 1.391 . S
C775 H763 0.950 . S
C775 C771 1.393 . S
C775 C774 1.391 . S
H776 C784 0.950 . S
H777 C789 0.950 . S
H778 C786 0.950 . S
H779 C788 0.950 . S
H780 C790 0.950 . S
H781 C792 0.950 . S
H782 C794 0.950 . S
H783 C795 0.950 . S
C784 H776 0.950 . S
C784 C785 1.386 1_455 S
C784 C786 1.391 . S
C785 C784 1.386 1_655 S
C785 C789 1.393 . S
C786 H778 0.950 . S
C786 C784 1.391 . S
C786 C787 1.400 1_455 S
C787 C786 1.400 1_655 S
C787 C788 1.398 . S
C787 C793 1.491 . S
C788 H779 0.950 . S
C788 C787 1.398 . S
C788 C789 1.391 . S
C789 H777 0.950 . S
C789 C785 1.393 . S
C789 C788 1.391 . S
C790 H780 0.950 . S
C790 C791 1.437 . S
C790 C792 1.391 . S
C791 C790 1.437 . S
C791 C795 1.373 1_655 S
C792 H781 0.950 . S
C792 C790 1.391 . S
C792 C793 1.400 . S
C793 C787 1.491 . S
C793 C792 1.400 . S
C793 C794 1.398 1_655 S
C794 H782 0.950 . S
C794 C793 1.398 1_455 S
C794 C795 1.391 . S
C795 H783 0.950 . S
C795 C791 1.373 1_455 S
C795 C794 1.391 . S
H796 C804 0.950 . S
H797 C809 0.950 . S
H798 C806 0.950 . S
H799 C808 0.950 . S
H800 C810 0.950 . S
H801 C812 0.950 . S
H802 C814 0.950 . S
H803 C815 0.950 . S
C804 H796 0.950 . S
C804 C805 1.386 . S
C804 C806 1.391 . S
C805 C804 1.386 . S
C805 C809 1.393 . S
C806 H798 0.950 . S
C806 C804 1.391 . S
C806 C807 1.400 . S
C807 C806 1.400 . S
C807 C808 1.398 . S
C807 C813 1.491 . S
C808 H799 0.950 . S
C808 C807 1.398 . S
C808 C809 1.391 . S
C809 H797 0.950 . S
C809 C805 1.393 . S
C809 C808 1.391 . S
C810 H800 0.950 . S
C810 C811 1.386 . S
C810 C812 1.391 . S
C811 C810 1.386 . S
C811 C815 1.393 . S
C812 H801 0.950 . S
C812 C810 1.391 . S
C812 C813 1.400 . S
C813 C807 1.491 . S
C813 C812 1.400 . S
C813 C814 1.398 . S
C814 H802 0.950 . S
C814 C813 1.398 . S
C814 C815 1.391 . S
C815 H803 0.950 . S
C815 C811 1.393 . S
C815 C814 1.391 . S
H816 C824 0.950 . S
H817 C829 0.950 . S
H818 C826 0.950 . S
H819 C828 0.950 . S
H820 C830 0.950 . S
H821 C832 0.950 . S
H822 C834 0.950 . S
H823 C835 0.950 . S
C824 H816 0.950 . S
C824 C825 1.386 . S
C824 C826 1.391 . S
C825 C824 1.386 . S
C825 C829 1.393 . S
C826 H818 0.950 . S
C826 C824 1.391 . S
C826 C827 1.400 . S
C827 C826 1.400 . S
C827 C828 1.398 . S
C827 C833 1.491 . S
C828 H819 0.950 . S
C828 C827 1.398 . S
C828 C829 1.391 . S
C829 H817 0.950 . S
C829 C825 1.393 . S
C829 C828 1.391 . S
C830 H820 0.950 . S
C830 C831 1.386 . S
C830 C832 1.391 . S
C831 C830 1.386 . S
C831 C835 1.393 . S
C832 H821 0.950 . S
C832 C830 1.391 . S
C832 C833 1.400 . S
C833 C827 1.491 . S
C833 C832 1.400 . S
C833 C834 1.398 . S
C834 H822 0.950 . S
C834 C833 1.398 . S
C834 C835 1.391 . S
C835 H823 0.950 . S
C835 C831 1.393 . S
C835 C834 1.391 . S
H836 C844 0.950 . S
H837 C849 0.950 . S
H838 C846 0.950 . S
H839 C848 0.950 . S
H840 C850 0.950 . S
H841 C852 0.950 . S
H842 C854 0.950 . S
H843 C855 0.950 . S
C844 H836 0.950 . S
C844 C845 1.386 . S
C844 C846 1.391 . S
C845 C844 1.386 . S
C845 C849 1.393 . S
C846 H838 0.950 . S
C846 C844 1.391 . S
C846 C847 1.400 . S
C847 C846 1.400 . S
C847 C848 1.398 . S
C847 C853 1.491 . S
C848 H839 0.950 . S
C848 C847 1.398 . S
C848 C849 1.391 . S
C849 H837 0.950 . S
C849 C845 1.393 . S
C849 C848 1.391 . S
C850 H840 0.950 . S
C850 C851 1.386 . S
C850 C852 1.391 . S
C851 C850 1.386 . S
C851 C855 1.393 . S
C852 H841 0.950 . S
C852 C850 1.391 . S
C852 C853 1.400 . S
C853 C847 1.491 . S
C853 C852 1.400 . S
C853 C854 1.398 . S
C854 H842 0.950 . S
C854 C853 1.398 . S
C854 C855 1.391 . S
C855 H843 0.950 . S
C855 C851 1.393 . S
C855 C854 1.391 . S
H856 C864 0.950 . S
H857 C869 0.950 . S
H858 C866 0.950 . S
H859 C868 0.950 . S
H860 C870 0.950 . S
H861 C872 0.950 . S
H862 C874 0.950 . S
H863 C875 0.950 . S
C864 H856 0.950 . S
C864 C865 1.386 . S
C864 C866 1.391 . S
C865 C864 1.386 . S
C865 C869 1.393 . S
C866 H858 0.950 . S
C866 C864 1.391 . S
C866 C867 1.400 . S
C867 C866 1.400 . S
C867 C868 1.398 . S
C867 C873 1.491 . S
C868 H859 0.950 . S
C868 C867 1.398 . S
C868 C869 1.391 . S
C869 H857 0.950 . S
C869 C865 1.393 . S
C869 C868 1.391 . S
C870 H860 0.950 . S
C870 C871 1.386 . S
C870 C872 1.391 . S
C871 C870 1.386 . S
C871 C875 1.393 . S
C872 H861 0.950 . S
C872 C870 1.391 . S
C872 C873 1.400 . S
C873 C867 1.491 . S
C873 C872 1.400 . S
C873 C874 1.398 . S
C874 H862 0.950 . S
C874 C873 1.398 . S
C874 C875 1.391 . S
C875 H863 0.950 . S
C875 C871 1.393 . S
C875 C874 1.391 . S
H876 C884 0.950 . S
H877 C889 0.950 . S
H878 C886 0.950 . S
H879 C888 0.950 . S
H880 C890 0.950 . S
H881 C892 0.950 . S
H882 C894 0.950 . S
H883 C895 0.950 . S
C884 H876 0.950 . S
C884 C885 1.386 . S
C884 C886 1.391 . S
C885 C884 1.386 . S
C885 C889 1.393 . S
C886 H878 0.950 . S
C886 C884 1.391 . S
C886 C887 1.400 . S
C887 C886 1.400 . S
C887 C888 1.398 . S
C887 C893 1.491 . S
C888 H879 0.950 . S
C888 C887 1.398 . S
C888 C889 1.391 . S
C889 H877 0.950 . S
C889 C885 1.393 . S
C889 C888 1.391 . S
C890 H880 0.950 . S
C890 C891 1.386 . S
C890 C892 1.391 . S
C891 C890 1.386 . S
C891 C895 1.393 . S
C892 H881 0.950 . S
C892 C890 1.391 . S
C892 C893 1.400 . S
C893 C887 1.491 . S
C893 C892 1.400 . S
C893 C894 1.398 . S
C894 H882 0.950 . S
C894 C893 1.398 . S
C894 C895 1.391 . S
C895 H883 0.950 . S
C895 C891 1.393 . S
C895 C894 1.391 . S
H896 C904 0.950 . S
H897 C909 0.950 . S
H898 C906 0.950 . S
H899 C908 0.950 . S
H900 C910 0.950 . S
H901 C912 0.950 . S
H902 C914 0.950 . S
H903 C915 0.950 . S
C904 H896 0.950 . S
C904 C905 1.386 . S
C904 C906 1.391 . S
C905 C904 1.386 . S
C905 C909 1.393 . S
C906 H898 0.950 . S
C906 C904 1.391 . S
C906 C907 1.400 . S
C907 C906 1.400 . S
C907 C908 1.398 . S
C907 C913 1.491 . S
C908 H899 0.950 . S
C908 C907 1.398 . S
C908 C909 1.391 . S
C909 H897 0.950 . S
C909 C905 1.393 . S
C909 C908 1.391 . S
C910 H900 0.950 . S
C910 C911 1.386 . S
C910 C912 1.391 . S
C911 C910 1.386 . S
C911 C915 1.393 . S
C912 H901 0.950 . S
C912 C910 1.391 . S
C912 C913 1.400 . S
C913 C907 1.491 . S
C913 C912 1.400 . S
C913 C914 1.398 . S
C914 H902 0.950 . S
C914 C913 1.398 . S
C914 C915 1.391 . S
C915 H903 0.950 . S
C915 C911 1.393 . S
C915 C914 1.391 . S
H916 C924 0.950 . S
H917 C929 0.950 . S
H918 C926 0.950 . S
H919 C928 0.950 . S
H920 C930 0.950 . S
H921 C932 0.950 . S
H922 C934 0.950 . S
H923 C935 0.950 . S
C924 H916 0.950 . S
C924 C925 1.386 . S
C924 C926 1.391 . S
C925 C924 1.386 . S
C925 C929 1.393 . S
C926 H918 0.950 . S
C926 C924 1.391 . S
C926 C927 1.400 . S
C927 C926 1.400 . S
C927 C928 1.398 . S
C927 C933 1.491 . S
C928 H919 0.950 . S
C928 C927 1.398 . S
C928 C929 1.391 . S
C929 H917 0.950 . S
C929 C925 1.393 . S
C929 C928 1.391 . S
C930 H920 0.950 . S
C930 C931 1.386 . S
C930 C932 1.391 . S
C931 C930 1.386 . S
C931 C935 1.393 . S
C932 H921 0.950 . S
C932 C930 1.391 . S
C932 C933 1.400 . S
C933 C927 1.491 . S
C933 C932 1.400 . S
C933 C934 1.398 . S
C934 H922 0.950 . S
C934 C933 1.398 . S
C934 C935 1.391 . S
C935 H923 0.950 . S
C935 C931 1.393 . S
C935 C934 1.391 . S
H936 C944 0.950 . S
H937 C949 0.950 . S
H938 C946 0.950 . S
H939 C948 0.950 . S
H940 C950 0.950 . S
H941 C952 0.950 . S
H942 C954 0.950 . S
H943 C955 0.950 . S
C944 H936 0.950 . S
C944 C945 1.386 . S
C944 C946 1.391 . S
C945 C944 1.386 . S
C945 C949 1.393 . S
C946 H938 0.950 . S
C946 C944 1.391 . S
C946 C947 1.400 . S
C947 C946 1.400 . S
C947 C948 1.398 . S
C947 C953 1.491 . S
C948 H939 0.950 . S
C948 C947 1.398 . S
C948 C949 1.391 . S
C949 H937 0.950 . S
C949 C945 1.393 . S
C949 C948 1.391 . S
C950 H940 0.950 . S
C950 C951 1.386 . S
C950 C952 1.391 . S
C951 C950 1.386 . S
C951 C955 1.393 . S
C952 H941 0.950 . S
C952 C950 1.391 . S
C952 C953 1.400 . S
C953 C947 1.491 . S
C953 C952 1.400 . S
C953 C954 1.398 . S
C954 H942 0.950 . S
C954 C953 1.398 . S
C954 C955 1.391 . S
C955 H943 0.950 . S
C955 C951 1.393 . S
C955 C954 1.391 . S
H956 C964 0.950 . S
H957 C969 0.950 . S
H958 C966 0.950 . S
H959 C968 0.950 . S
H960 C970 0.950 . S
H961 C972 0.950 . S
H962 C974 0.950 . S
H963 C975 0.950 . S
C964 H956 0.950 . S
C964 C965 1.386 . S
C964 C966 1.391 . S
C965 C964 1.386 . S
C965 C969 1.393 . S
C966 H958 0.950 . S
C966 C964 1.391 . S
C966 C967 1.400 . S
C967 C966 1.400 . S
C967 C968 1.398 . S
C967 C973 1.491 . S
C968 H959 0.950 . S
C968 C967 1.398 . S
C968 C969 1.391 . S
C969 H957 0.950 . S
C969 C965 1.393 . S
C969 C968 1.391 . S
C970 H960 0.950 . S
C970 C971 1.386 . S
C970 C972 1.391 . S
C971 C970 1.386 . S
C971 C975 1.393 . S
C972 H961 0.950 . S
C972 C970 1.391 . S
C972 C973 1.400 . S
C973 C967 1.491 . S
C973 C972 1.400 . S
C973 C974 1.398 . S
C974 H962 0.950 . S
C974 C973 1.398 . S
C974 C975 1.391 . S
C975 H963 0.950 . S
C975 C971 1.393 . S
C975 C974 1.391 . S
H976 C984 0.950 . S
H977 C989 0.950 . S
H978 C986 0.950 . S
H979 C988 0.950 . S
H980 C990 0.950 . S
H981 C992 0.950 . S
H982 C994 0.950 . S
H983 C995 0.950 . S
C984 H976 0.950 . S
C984 C985 1.386 . S
C984 C986 1.391 . S
C985 C984 1.386 . S
C985 C989 1.393 . S
C986 H978 0.950 . S
C986 C984 1.391 . S
C986 C987 1.400 . S
C987 C986 1.400 . S
C987 C988 1.398 . S
C987 C993 1.491 . S
C988 H979 0.950 . S
C988 C987 1.398 . S
C988 C989 1.391 . S
C989 H977 0.950 . S
C989 C985 1.393 . S
C989 C988 1.391 . S
C990 H980 0.950 . S
C990 C991 1.386 . S
C990 C992 1.391 . S
C991 C990 1.386 . S
C991 C995 1.393 . S
C992 H981 0.950 . S
C992 C990 1.391 . S
C992 C993 1.400 . S
C993 C987 1.491 . S
C993 C992 1.400 . S
C993 C994 1.398 . S
C994 H982 0.950 . S
C994 C993 1.398 . S
C994 C995 1.391 . S
C995 H983 0.950 . S
C995 C991 1.393 . S
C995 C994 1.391 . S
H996 C1004 0.950 . S
H997 C1009 0.950 . S
H998 C1006 0.950 . S
H999 C1008 0.950 . S
H1000 C1010 0.950 . S
H1001 C1012 0.950 . S
H1002 C1014 0.950 . S
H1003 C1015 0.950 . S
C1004 H996 0.950 . S
C1004 C1005 1.386 . S
C1004 C1006 1.391 . S
C1005 C1004 1.386 . S
C1005 C1009 1.393 . S
C1006 H998 0.950 . S
C1006 C1004 1.391 . S
C1006 C1007 1.400 . S
C1007 C1006 1.400 . S
C1007 C1008 1.398 . S
C1007 C1013 1.491 . S
C1008 H999 0.950 . S
C1008 C1007 1.398 . S
C1008 C1009 1.391 . S
C1009 H997 0.950 . S
C1009 C1005 1.393 . S
C1009 C1008 1.391 . S
C1010 H1000 0.950 . S
C1010 C1011 1.386 . S
C1010 C1012 1.391 . S
C1011 C1010 1.386 . S
C1011 C1015 1.393 . S
C1012 H1001 0.950 . S
C1012 C1010 1.391 . S
C1012 C1013 1.400 . S
C1013 C1007 1.491 . S
C1013 C1012 1.400 . S
C1013 C1014 1.398 . S
C1014 H1002 0.950 . S
C1014 C1013 1.398 . S
C1014 C1015 1.391 . S
C1015 H1003 0.950 . S
C1015 C1011 1.393 . S
C1015 C1014 1.391 . S
H1016 C1024 0.950 . S
H1017 C1029 0.950 . S
H1018 C1026 0.950 . S
H1019 C1028 0.950 . S
H1020 C1030 0.950 . S
H1021 C1032 0.950 . S
H1022 C1034 0.950 . S
H1023 C1035 0.950 . S
C1024 H1016 0.950 . S
C1024 C1025 1.386 . S
C1024 C1026 1.391 . S
C1025 C1024 1.386 . S
C1025 C1029 1.393 . S
C1026 H1018 0.950 . S
C1026 C1024 1.391 . S
C1026 C1027 1.400 . S
C1027 C1026 1.400 . S
C1027 C1028 1.398 . S
C1027 C1033 1.491 . S
C1028 H1019 0.950 . S
C1028 C1027 1.398 . S
C1028 C1029 1.391 . S
C1029 H1017 0.950 . S
C1029 C1025 1.393 . S
C1029 C1028 1.391 . S
C1030 H1020 0.950 . S
C1030 C1031 1.386 . S
C1030 C1032 1.391 . S
C1031 C1030 1.386 . S
C1031 C1035 1.393 . S
C1032 H1021 0.950 . S
C1032 C1030 1.391 . S
C1032 C1033 1.400 . S
C1033 C1027 1.491 . S
C1033 C1032 1.400 . S
C1033 C1034 1.398 . S
C1034 H1022 0.950 . S
C1034 C1033 1.398 . S
C1034 C1035 1.391 . S
C1035 H1023 0.950 . S
C1035 C1031 1.393 . S
C1035 C1034 1.391 . S
H1036 C1044 0.950 . S
H1037 C1049 0.950 . S
H1038 C1046 0.950 . S
H1039 C1048 0.950 . S
H1040 C1050 0.950 . S
H1041 C1052 0.950 . S
H1042 C1054 0.950 . S
H1043 C1055 0.950 . S
C1044 H1036 0.950 . S
C1044 C1045 1.386 . S
C1044 C1046 1.391 . S
C1045 C1044 1.386 . S
C1045 C1049 1.393 . S
C1046 H1038 0.950 . S
C1046 C1044 1.391 . S
C1046 C1047 1.400 . S
C1047 C1046 1.400 . S
C1047 C1048 1.398 . S
C1047 C1053 1.491 . S
C1048 H1039 0.950 . S
C1048 C1047 1.398 . S
C1048 C1049 1.391 . S
C1049 H1037 0.950 . S
C1049 C1045 1.393 . S
C1049 C1048 1.391 . S
C1050 H1040 0.950 . S
C1050 C1051 1.386 . S
C1050 C1052 1.391 . S
C1051 C1050 1.386 . S
C1051 C1055 1.393 . S
C1052 H1041 0.950 . S
C1052 C1050 1.391 . S
C1052 C1053 1.400 . S
C1053 C1047 1.491 . S
C1053 C1052 1.400 . S
C1053 C1054 1.398 . S
C1054 H1042 0.950 . S
C1054 C1053 1.398 . S
C1054 C1055 1.391 . S
C1055 H1043 0.950 . S
C1055 C1051 1.393 . S
C1055 C1054 1.391 . S
H1056 C1064 0.950 . S
H1057 C1069 0.950 . S
H1058 C1066 0.950 . S
H1059 C1068 0.950 . S
H1060 C1070 0.950 . S
H1061 C1072 0.950 . S
H1062 C1074 0.950 . S
H1063 C1075 0.950 . S
C1064 H1056 0.950 . S
C1064 C1065 1.386 . S
C1064 C1066 1.391 . S
C1065 C1064 1.386 . S
C1065 C1069 1.393 . S
C1066 H1058 0.950 . S
C1066 C1064 1.391 . S
C1066 C1067 1.400 . S
C1067 C1066 1.400 . S
C1067 C1068 1.398 . S
C1067 C1073 1.491 . S
C1068 H1059 0.950 . S
C1068 C1067 1.398 . S
C1068 C1069 1.391 . S
C1069 H1057 0.950 . S
C1069 C1065 1.393 . S
C1069 C1068 1.391 . S
C1070 H1060 0.950 . S
C1070 C1071 1.386 . S
C1070 C1072 1.391 . S
C1071 C1070 1.386 . S
C1071 C1075 1.393 . S
C1072 H1061 0.950 . S
C1072 C1070 1.391 . S
C1072 C1073 1.400 . S
C1073 C1067 1.491 . S
C1073 C1072 1.400 . S
C1073 C1074 1.398 . S
C1074 H1062 0.950 . S
C1074 C1073 1.398 . S
C1074 C1075 1.391 . S
C1075 H1063 0.950 . S
C1075 C1071 1.393 . S
C1075 C1074 1.391 . S
H1076 C1084 0.950 . S
H1077 C1089 0.950 . S
H1078 C1086 0.950 . S
H1079 C1088 0.950 . S
H1080 C1090 0.950 . S
H1081 C1092 0.950 . S
H1082 C1094 0.950 . S
H1083 C1095 0.950 . S
C1084 H1076 0.950 . S
C1084 C1085 1.386 . S
C1084 C1086 1.391 . S
C1085 C1084 1.386 . S
C1085 C1089 1.393 . S
C1086 H1078 0.950 . S
C1086 C1084 1.391 . S
C1086 C1087 1.400 . S
C1087 C1086 1.400 . S
C1087 C1088 1.398 . S
C1087 C1093 1.491 . S
C1088 H1079 0.950 . S
C1088 C1087 1.398 . S
C1088 C1089 1.391 . S
C1089 H1077 0.950 . S
C1089 C1085 1.393 . S
C1089 C1088 1.391 . S
C1090 H1080 0.950 . S
C1090 C1091 1.386 . S
C1090 C1092 1.391 . S
C1091 C1090 1.386 . S
C1091 C1095 1.393 . S
C1092 H1081 0.950 . S
C1092 C1090 1.391 . S
C1092 C1093 1.400 . S
C1093 C1087 1.491 . S
C1093 C1092 1.400 . S
C1093 C1094 1.398 . S
C1094 H1082 0.950 . S
C1094 C1093 1.398 . S
C1094 C1095 1.391 . S
C1095 H1083 0.950 . S
C1095 C1091 1.393 . S
C1095 C1094 1.391 . S
H1096 C1104 0.950 . S
H1097 C1109 0.950 . S
H1098 C1106 0.950 . S
H1099 C1108 0.950 . S
H1100 C1110 0.950 . S
H1101 C1112 0.950 . S
H1102 C1114 0.950 . S
H1103 C1115 0.950 . S
C1104 H1096 0.950 . S
C1104 C1105 1.386 . S
C1104 C1106 1.391 . S
C1105 C1104 1.386 . S
C1105 C1109 1.393 . S
C1106 H1098 0.950 . S
C1106 C1104 1.391 . S
C1106 C1107 1.400 . S
C1107 C1106 1.400 . S
C1107 C1108 1.398 . S
C1107 C1113 1.491 . S
C1108 H1099 0.950 . S
C1108 C1107 1.398 . S
C1108 C1109 1.391 . S
C1109 H1097 0.950 . S
C1109 C1105 1.393 . S
C1109 C1108 1.391 . S
C1110 H1100 0.950 . S
C1110 C1111 1.386 . S
C1110 C1112 1.391 . S
C1111 C1110 1.386 . S
C1111 C1115 1.393 . S
C1112 H1101 0.950 . S
C1112 C1110 1.391 . S
C1112 C1113 1.400 . S
C1113 C1107 1.491 . S
C1113 C1112 1.400 . S
C1113 C1114 1.398 . S
C1114 H1102 0.950 . S
C1114 C1113 1.398 . S
C1114 C1115 1.391 . S
C1115 H1103 0.950 . S
C1115 C1111 1.393 . S
C1115 C1114 1.391 . S
H1116 C1124 0.950 . S
H1117 C1129 0.950 . S
H1118 C1126 0.950 . S
H1119 C1128 0.950 . S
H1120 C1130 0.950 . S
H1121 C1132 0.950 . S
H1122 C1134 0.950 . S
H1123 C1135 0.950 . S
C1124 H1116 0.950 . S
C1124 C1125 1.386 . S
C1124 C1126 1.391 . S
C1125 C1124 1.386 . S
C1125 C1129 1.393 . S
C1126 H1118 0.950 . S
C1126 C1124 1.391 . S
C1126 C1127 1.400 . S
C1127 C1126 1.400 . S
C1127 C1128 1.398 . S
C1127 C1133 1.491 . S
C1128 H1119 0.950 . S
C1128 C1127 1.398 . S
C1128 C1129 1.391 . S
C1129 H1117 0.950 . S
C1129 C1125 1.393 . S
C1129 C1128 1.391 . S
C1130 H1120 0.950 . S
C1130 C1131 1.386 . S
C1130 C1132 1.391 . S
C1131 C1130 1.386 . S
C1131 C1135 1.393 . S
C1132 H1121 0.950 . S
C1132 C1130 1.391 . S
C1132 C1133 1.400 . S
C1133 C1127 1.491 . S
C1133 C1132 1.400 . S
C1133 C1134 1.398 . S
C1134 H1122 0.950 . S
C1134 C1133 1.398 . S
C1134 C1135 1.391 . S
C1135 H1123 0.950 . S
C1135 C1131 1.393 . S
C1135 C1134 1.391 . S
H1136 C1144 0.950 . S
H1137 C1149 0.950 . S
H1138 C1146 0.950 . S
H1139 C1148 0.950 . S
H1140 C1150 0.950 . S
H1141 C1152 0.950 . S
H1142 C1154 0.950 . S
H1143 C1155 0.950 . S
C1144 H1136 0.950 . S
C1144 C1145 1.386 . S
C1144 C1146 1.391 . S
C1145 C1144 1.386 . S
C1145 C1149 1.393 . S
C1146 H1138 0.950 . S
C1146 C1144 1.391 . S
C1146 C1147 1.400 . S
C1147 C1146 1.400 . S
C1147 C1148 1.398 . S
C1147 C1153 1.491 . S
C1148 H1139 0.950 . S
C1148 C1147 1.398 . S
C1148 C1149 1.391 . S
C1149 H1137 0.950 . S
C1149 C1145 1.393 . S
C1149 C1148 1.391 . S
C1150 H1140 0.950 . S
C1150 C1151 1.386 . S
C1150 C1152 1.391 . S
C1151 C1150 1.386 . S
C1151 C1155 1.393 . S
C1152 H1141 0.950 . S
C1152 C1150 1.391 . S
C1152 C1153 1.400 . S
C1153 C1147 1.491 . S
C1153 C1152 1.400 . S
C1153 C1154 1.398 . S
C1154 H1142 0.950 . S
C1154 C1153 1.398 . S
C1154 C1155 1.391 . S
C1155 H1143 0.950 . S
C1155 C1151 1.393 . S
C1155 C1154 1.391 . S
H1156 C1164 0.950 . S
H1157 C1169 0.950 . S
H1158 C1166 0.950 . S
H1159 C1168 0.950 . S
H1160 C1170 0.950 . S
H1161 C1172 0.950 . S
H1162 C1174 0.950 . S
H1163 C1175 0.950 . S
C1164 H1156 0.950 . S
C1164 C1165 1.386 . S
C1164 C1166 1.391 . S
C1165 C1164 1.386 . S
C1165 C1169 1.393 . S
C1166 H1158 0.950 . S
C1166 C1164 1.391 . S
C1166 C1167 1.400 . S
C1167 C1166 1.400 . S
C1167 C1168 1.398 . S
C1167 C1173 1.491 . S
C1168 H1159 0.950 . S
C1168 C1167 1.398 . S
C1168 C1169 1.391 . S
C1169 H1157 0.950 . S
C1169 C1165 1.393 . S
C1169 C1168 1.391 . S
C1170 H1160 0.950 . S
C1170 C1171 1.386 . S
C1170 C1172 1.391 . S
C1171 C1170 1.386 . S
C1171 C1175 1.393 . S
C1172 H1161 0.950 . S
C1172 C1170 1.391 . S
C1172 C1173 1.400 . S
C1173 C1167 1.491 . S
C1173 C1172 1.400 . S
C1173 C1174 1.398 . S
C1174 H1162 0.950 . S
C1174 C1173 1.398 . S
C1174 C1175 1.391 . S
C1175 H1163 0.950 . S
C1175 C1171 1.393 . S
C1175 C1174 1.391 . S
H1176 C1184 0.950 . S
H1177 C1189 0.950 . S
H1178 C1186 0.950 . S
H1179 C1188 0.950 . S
H1180 C1190 0.950 . S
H1181 C1192 0.950 . S
H1182 C1194 0.950 . S
H1183 C1195 0.950 . S
C1184 H1176 0.950 . S
C1184 C1185 1.386 . S
C1184 C1186 1.391 . S
C1185 C1184 1.386 . S
C1185 C1189 1.393 . S
C1186 H1178 0.950 . S
C1186 C1184 1.391 . S
C1186 C1187 1.400 . S
C1187 C1186 1.400 . S
C1187 C1188 1.398 . S
C1187 C1193 1.491 . S
C1188 H1179 0.950 . S
C1188 C1187 1.398 . S
C1188 C1189 1.391 . S
C1189 H1177 0.950 . S
C1189 C1185 1.393 . S
C1189 C1188 1.391 . S
C1190 H1180 0.950 . S
C1190 C1191 1.386 . S
C1190 C1192 1.391 . S
C1191 C1190 1.386 . S
C1191 C1195 1.393 . S
C1192 H1181 0.950 . S
C1192 C1190 1.391 . S
C1192 C1193 1.400 . S
C1193 C1187 1.491 . S
C1193 C1192 1.400 . S
C1193 C1194 1.398 . S
C1194 H1182 0.950 . S
C1194 C1193 1.398 . S
C1194 C1195 1.391 . S
C1195 H1183 0.950 . S
C1195 C1191 1.393 . S
C1195 C1194 1.391 . S
H1196 C1204 0.950 . S
H1197 C1209 0.950 . S
H1198 C1206 0.950 . S
H1199 C1208 0.950 . S
H1200 C1210 0.950 . S
H1201 C1212 0.950 . S
H1202 C1214 0.950 . S
H1203 C1215 0.950 . S
C1204 H1196 0.950 . S
C1204 C1205 1.386 . S
C1204 C1206 1.391 . S
C1205 C1204 1.386 . S
C1205 C1209 1.393 . S
C1206 H1198 0.950 . S
C1206 C1204 1.391 . S
C1206 C1207 1.400 . S
C1207 C1206 1.400 . S
C1207 C1208 1.398 . S
C1207 C1213 1.491 . S
C1208 H1199 0.950 . S
C1208 C1207 1.398 . S
C1208 C1209 1.391 . S
C1209 H1197 0.950 . S
C1209 C1205 1.393 . S
C1209 C1208 1.391 . S
C1210 H1200 0.950 . S
C1210 C1211 1.386 . S
C1210 C1212 1.391 . S
C1211 C1210 1.386 . S
C1211 C1215 1.393 . S
C1212 H1201 0.950 . S
C1212 C1210 1.391 . S
C1212 C1213 1.400 . S
C1213 C1207 1.491 . S
C1213 C1212 1.400 . S
C1213 C1214 1.398 . S
C1214 H1202 0.950 . S
C1214 C1213 1.398 . S
C1214 C1215 1.391 . S
C1215 H1203 0.950 . S
C1215 C1211 1.393 . S
C1215 C1214 1.391 . S
H1216 C1224 0.950 . S
H1217 C1229 0.950 . S
H1218 C1226 0.950 . S
H1219 C1228 0.950 . S
H1220 C1230 0.950 . S
H1221 C1232 0.950 . S
H1222 C1234 0.950 . S
H1223 C1235 0.950 . S
C1224 H1216 0.950 . S
C1224 C1225 1.386 . S
C1224 C1226 1.391 . S
C1225 C1224 1.386 . S
C1225 C1229 1.393 . S
C1226 H1218 0.950 . S
C1226 C1224 1.391 . S
C1226 C1227 1.400 . S
C1227 C1226 1.400 . S
C1227 C1228 1.398 . S
C1227 C1233 1.491 . S
C1228 H1219 0.950 . S
C1228 C1227 1.398 . S
C1228 C1229 1.391 . S
C1229 H1217 0.950 . S
C1229 C1225 1.393 . S
C1229 C1228 1.391 . S
C1230 H1220 0.950 . S
C1230 C1231 1.386 . S
C1230 C1232 1.391 . S
C1231 C1230 1.386 . S
C1231 C1235 1.393 . S
C1232 H1221 0.950 . S
C1232 C1230 1.391 . S
C1232 C1233 1.400 . S
C1233 C1227 1.491 . S
C1233 C1232 1.400 . S
C1233 C1234 1.398 . S
C1234 H1222 0.950 . S
C1234 C1233 1.398 . S
C1234 C1235 1.391 . S
C1235 H1223 0.950 . S
C1235 C1231 1.393 . S
C1235 C1234 1.391 . S
H1236 C1244 0.950 . S
H1237 C1249 0.950 . S
H1238 C1246 0.950 . S
H1239 C1248 0.950 . S
H1240 C1250 0.950 . S
H1241 C1252 0.950 . S
H1242 C1254 0.950 . S
H1243 C1255 0.950 . S
C1244 H1236 0.950 . S
C1244 C1245 1.386 . S
C1244 C1246 1.391 . S
C1245 C1244 1.386 . S
C1245 C1249 1.393 . S
C1246 H1238 0.950 . S
C1246 C1244 1.391 . S
C1246 C1247 1.400 . S
C1247 C1246 1.400 . S
C1247 C1248 1.398 . S
C1247 C1253 1.491 . S
C1248 H1239 0.950 . S
C1248 C1247 1.398 . S
C1248 C1249 1.391 . S
C1249 H1237 0.950 . S
C1249 C1245 1.393 . S
C1249 C1248 1.391 . S
C1250 H1240 0.950 . S
C1250 C1251 1.386 . S
C1250 C1252 1.391 . S
C1251 C1250 1.386 . S
C1251 C1255 1.393 . S
C1252 H1241 0.950 . S
C1252 C1250 1.391 . S
C1252 C1253 1.400 . S
C1253 C1247 1.491 . S
C1253 C1252 1.400 . S
C1253 C1254 1.398 . S
C1254 H1242 0.950 . S
C1254 C1253 1.398 . S
C1254 C1255 1.391 . S
C1255 H1243 0.950 . S
C1255 C1251 1.393 . S
C1255 C1254 1.391 . S
H1256 C1264 0.950 . S
H1257 C1269 0.950 . S
H1258 C1266 0.950 . S
H1259 C1268 0.950 . S
H1260 C1270 0.950 . S
H1261 C1272 0.950 . S
H1262 C1274 0.950 . S
H1263 C1275 0.950 . S
C1264 H1256 0.950 . S
C1264 C1265 1.386 . S
C1264 C1266 1.391 . S
C1265 C1264 1.386 . S
C1265 C1269 1.393 . S
C1266 H1258 0.950 . S
C1266 C1264 1.391 . S
C1266 C1267 1.400 . S
C1267 C1266 1.400 . S
C1267 C1268 1.398 . S
C1267 C1273 1.491 . S
C1268 H1259 0.950 . S
C1268 C1267 1.398 . S
C1268 C1269 1.391 . S
C1269 H1257 0.950 . S
C1269 C1265 1.393 . S
C1269 C1268 1.391 . S
C1270 H1260 0.950 . S
C1270 C1271 1.386 . S
C1270 C1272 1.391 . S
C1271 C1270 1.386 . S
C1271 C1275 1.393 . S
C1272 H1261 0.950 . S
C1272 C1270 1.391 . S
C1272 C1273 1.400 . S
C1273 C1267 1.491 . S
C1273 C1272 1.400 . S
C1273 C1274 1.398 . S
C1274 H1262 0.950 . S
C1274 C1273 1.398 . S
C1274 C1275 1.391 . S
C1275 H1263 0.950 . S
C1275 C1271 1.393 . S
C1275 C1274 1.391 . S
H1276 C1284 0.950 . S
H1277 C1289 0.950 . S
H1278 C1286 0.950 . S
H1279 C1288 0.950 . S
H1280 C1290 0.950 . S
H1281 C1292 0.950 . S
H1282 C1294 0.950 . S
H1283 C1295 0.950 . S
C1284 H1276 0.950 . S
C1284 C1285 1.386 . S
C1284 C1286 1.391 . S
C1285 C1284 1.386 . S
C1285 C1289 1.393 . S
C1286 H1278 0.950 . S
C1286 C1284 1.391 . S
C1286 C1287 1.400 . S
C1287 C1286 1.400 . S
C1287 C1288 1.398 . S
C1287 C1293 1.491 . S
C1288 H1279 0.950 . S
C1288 C1287 1.398 . S
C1288 C1289 1.391 . S
C1289 H1277 0.950 . S
C1289 C1285 1.393 . S
C1289 C1288 1.391 . S
C1290 H1280 0.950 . S
C1290 C1291 1.386 . S
C1290 C1292 1.391 . S
C1291 C1290 1.386 . S
C1291 C1295 1.393 . S
C1292 H1281 0.950 . S
C1292 C1290 1.391 . S
C1292 C1293 1.400 . S
C1293 C1287 1.491 . S
C1293 C1292 1.400 . S
C1293 C1294 1.398 . S
C1294 H1282 0.950 . S
C1294 C1293 1.398 . S
C1294 C1295 1.391 . S
C1295 H1283 0.950 . S
C1295 C1291 1.393 . S
C1295 C1294 1.391 . S
H1296 C1304 0.950 . S
H1297 C1309 0.950 1_556 S
H1298 C1306 0.950 . S
H1299 C1308 0.950 . S
H1300 C1310 0.950 . S
H1301 C1312 0.950 . S
H1302 C1314 0.950 . S
H1303 C1315 0.950 . S
C1304 H1296 0.950 . S
C1304 C1305 1.386 . S
C1304 C1306 1.391 . S
C1305 C1304 1.386 . S
C1305 C1309 1.393 . S
C1306 H1298 0.950 . S
C1306 C1304 1.391 . S
C1306 C1307 1.400 . S
C1307 C1306 1.400 . S
C1307 C1308 1.398 . S
C1307 C1313 1.491 . S
C1308 H1299 0.950 . S
C1308 C1307 1.398 . S
C1308 C1309 1.391 . S
C1309 H1297 0.950 1_554 S
C1309 C1305 1.393 . S
C1309 C1308 1.391 . S
C1310 H1300 0.950 . S
C1310 C1311 1.386 . S
C1310 C1312 1.391 . S
C1311 C1310 1.386 . S
C1311 C1315 1.393 . S
C1312 H1301 0.950 . S
C1312 C1310 1.391 . S
C1312 C1313 1.400 . S
C1313 C1307 1.491 . S
C1313 C1312 1.400 . S
C1313 C1314 1.398 . S
C1314 H1302 0.950 . S
C1314 C1313 1.398 . S
C1314 C1315 1.391 . S
C1315 H1303 0.950 . S
C1315 C1311 1.393 . S
C1315 C1314 1.391 . S
H1316 C1324 0.950 . S
H1317 C1329 0.950 . S
H1318 C1326 0.950 . S
H1319 C1328 0.950 . S
H1320 C1330 0.950 . S
H1321 C1332 0.950 . S
H1322 C1334 0.950 . S
H1323 C1335 0.950 . S
C1324 H1316 0.950 . S
C1324 C1325 1.386 . S
C1324 C1326 1.391 . S
C1325 C1324 1.386 . S
C1325 C1329 1.393 . S
C1326 H1318 0.950 . S
C1326 C1324 1.391 . S
C1326 C1327 1.400 . S
C1327 C1326 1.400 . S
C1327 C1328 1.398 . S
C1327 C1333 1.491 . S
C1328 H1319 0.950 . S
C1328 C1327 1.398 . S
C1328 C1329 1.391 . S
C1329 H1317 0.950 . S
C1329 C1325 1.393 . S
C1329 C1328 1.391 . S
C1330 H1320 0.950 . S
C1330 C1331 1.386 . S
C1330 C1332 1.391 . S
C1331 C1330 1.386 . S
C1331 C1335 1.393 . S
C1332 H1321 0.950 . S
C1332 C1330 1.391 . S
C1332 C1333 1.400 . S
C1333 C1327 1.491 . S
C1333 C1332 1.400 . S
C1333 C1334 1.398 . S
C1334 H1322 0.950 . S
C1334 C1333 1.398 . S
C1334 C1335 1.391 . S
C1335 H1323 0.950 . S
C1335 C1331 1.393 . S
C1335 C1334 1.391 . S
H1336 C1344 0.950 . S
H1337 C1349 0.950 1_556 S
H1338 C1346 0.950 . S
H1339 C1348 0.950 . S
H1340 C1350 0.950 . S
H1341 C1352 0.950 . S
H1342 C1354 0.950 . S
H1343 C1355 0.950 . S
C1344 H1336 0.950 . S
C1344 C1345 1.386 . S
C1344 C1346 1.391 . S
C1345 C1344 1.386 . S
C1345 C1349 1.393 . S
C1346 H1338 0.950 . S
C1346 C1344 1.391 . S
C1346 C1347 1.400 . S
C1347 C1346 1.400 . S
C1347 C1348 1.398 . S
C1347 C1353 1.491 . S
C1348 H1339 0.950 . S
C1348 C1347 1.398 . S
C1348 C1349 1.391 . S
C1349 H1337 0.950 1_554 S
C1349 C1345 1.393 . S
C1349 C1348 1.391 . S
C1350 H1340 0.950 . S
C1350 C1351 1.386 . S
C1350 C1352 1.391 . S
C1351 C1350 1.386 . S
C1351 C1355 1.393 . S
C1352 H1341 0.950 . S
C1352 C1350 1.391 . S
C1352 C1353 1.400 . S
C1353 C1347 1.491 . S
C1353 C1352 1.400 . S
C1353 C1354 1.398 . S
C1354 H1342 0.950 . S
C1354 C1353 1.398 . S
C1354 C1355 1.391 . S
C1355 H1343 0.950 . S
C1355 C1351 1.393 . S
C1355 C1354 1.391 . S
H1356 C1364 0.950 1_554 S
H1357 C1369 0.950 . S
H1358 C1366 0.950 . S
H1359 C1368 0.950 . S
H1360 C1370 0.950 . S
H1361 C1372 0.950 . S
H1362 C1374 0.950 . S
H1363 C1375 0.950 . S
C1364 H1356 0.950 1_556 S
C1364 C1365 1.386 . S
C1364 C1366 1.391 . S
C1365 C1364 1.386 . S
C1365 C1369 1.393 . S
C1366 H1358 0.950 . S
C1366 C1364 1.391 . S
C1366 C1367 1.400 . S
C1367 C1366 1.400 . S
C1367 C1368 1.398 . S
C1367 C1373 1.491 . S
C1368 H1359 0.950 . S
C1368 C1367 1.398 . S
C1368 C1369 1.391 . S
C1369 H1357 0.950 . S
C1369 C1365 1.393 . S
C1369 C1368 1.391 . S
C1370 H1360 0.950 . S
C1370 C1371 1.386 . S
C1370 C1372 1.391 . S
C1371 C1370 1.386 . S
C1371 C1375 1.393 . S
C1372 H1361 0.950 . S
C1372 C1370 1.391 . S
C1372 C1373 1.400 . S
C1373 C1367 1.491 . S
C1373 C1372 1.400 . S
C1373 C1374 1.398 . S
C1374 H1362 0.950 . S
C1374 C1373 1.398 . S
C1374 C1375 1.391 . S
C1375 H1363 0.950 . S
C1375 C1371 1.393 . S
C1375 C1374 1.391 . S
H1376 C1384 0.950 . S
H1377 C1389 0.950 . S
H1378 C1386 0.950 . S
H1379 C1388 0.950 1_554 S
H1380 C1390 0.950 . S
H1381 C1392 0.950 . S
H1382 C1394 0.950 . S
H1383 C1395 0.950 . S
C1384 H1376 0.950 . S
C1384 C1385 1.386 . S
C1384 C1386 1.391 . S
C1385 C1384 1.386 . S
C1385 C1389 1.393 1_556 S
C1386 H1378 0.950 . S
C1386 C1384 1.391 . S
C1386 C1387 1.400 . S
C1387 C1386 1.400 . S
C1387 C1388 1.398 . S
C1387 C1393 1.491 . S
C1388 H1379 0.950 1_556 S
C1388 C1387 1.398 . S
C1388 C1389 1.391 1_556 S
C1389 H1377 0.950 . S
C1389 C1385 1.393 1_554 S
C1389 C1388 1.391 1_554 S
C1390 H1380 0.950 . S
C1390 C1391 1.386 . S
C1390 C1392 1.391 . S
C1391 C1390 1.386 . S
C1391 C1395 1.393 . S
C1392 H1381 0.950 . S
C1392 C1390 1.391 . S
C1392 C1393 1.400 . S
C1393 C1387 1.491 . S
C1393 C1392 1.400 . S
C1393 C1394 1.398 . S
C1394 H1382 0.950 . S
C1394 C1393 1.398 . S
C1394 C1395 1.391 . S
C1395 H1383 0.950 . S
C1395 C1391 1.393 . S
C1395 C1394 1.391 . S
H1396 C1404 0.950 1_554 S
H1397 C1409 0.950 . S
H1398 C1406 0.950 . S
H1399 C1408 0.950 . S
H1400 C1410 0.950 . S
H1401 C1412 0.950 . S
H1402 C1414 0.950 . S
H1403 C1415 0.950 . S
C1404 H1396 0.950 1_556 S
C1404 C1405 1.386 . S
C1404 C1406 1.391 . S
C1405 C1404 1.386 . S
C1405 C1409 1.393 . S
C1406 H1398 0.950 . S
C1406 C1404 1.391 . S
C1406 C1407 1.400 . S
C1407 C1406 1.400 . S
C1407 C1408 1.398 . S
C1407 C1413 1.491 . S
C1408 H1399 0.950 . S
C1408 C1407 1.398 . S
C1408 C1409 1.391 . S
C1409 H1397 0.950 . S
C1409 C1405 1.393 . S
C1409 C1408 1.391 . S
C1410 H1400 0.950 . S
C1410 C1411 1.386 . S
C1410 C1412 1.391 . S
C1411 C1410 1.386 . S
C1411 C1415 1.393 . S
C1412 H1401 0.950 . S
C1412 C1410 1.391 . S
C1412 C1413 1.400 . S
C1413 C1407 1.491 . S
C1413 C1412 1.400 . S
C1413 C1414 1.398 . S
C1414 H1402 0.950 . S
C1414 C1413 1.398 . S
C1414 C1415 1.391 . S
C1415 H1403 0.950 . S
C1415 C1411 1.393 . S
C1415 C1414 1.391 . S
H1416 C1424 0.950 1_554 S
H1417 C1429 0.950 . S
H1418 C1426 0.950 . S
H1419 C1428 0.950 . S
H1420 C1430 0.950 . S
H1421 C1432 0.950 . S
H1422 C1434 0.950 . S
H1423 C1435 0.950 . S
C1424 H1416 0.950 1_556 S
C1424 C1425 1.386 . S
C1424 C1426 1.391 . S
C1425 C1424 1.386 . S
C1425 C1429 1.393 . S
C1426 H1418 0.950 . S
C1426 C1424 1.391 . S
C1426 C1427 1.400 . S
C1427 C1426 1.400 . S
C1427 C1428 1.398 . S
C1427 C1433 1.491 . S
C1428 H1419 0.950 . S
C1428 C1427 1.398 . S
C1428 C1429 1.391 . S
C1429 H1417 0.950 . S
C1429 C1425 1.393 . S
C1429 C1428 1.391 . S
C1430 H1420 0.950 . S
C1430 C1431 1.386 . S
C1430 C1432 1.391 . S
C1431 C1430 1.386 . S
C1431 C1435 1.393 . S
C1432 H1421 0.950 . S
C1432 C1430 1.391 . S
C1432 C1433 1.400 . S
C1433 C1427 1.491 . S
C1433 C1432 1.400 . S
C1433 C1434 1.398 . S
C1434 H1422 0.950 . S
C1434 C1433 1.398 . S
C1434 C1435 1.391 . S
C1435 H1423 0.950 . S
C1435 C1431 1.393 . S
C1435 C1434 1.391 . S
H1436 C1444 0.950 1_554 S
H1437 C1449 0.950 . S
H1438 C1446 0.950 . S
H1439 C1448 0.950 . S
H1440 C1450 0.950 . S
H1441 C1452 0.950 . S
H1442 C1454 0.950 . S
H1443 C1455 0.950 . S
C1444 H1436 0.950 1_556 S
C1444 C1445 1.386 . S
C1444 C1446 1.391 . S
C1445 C1444 1.386 . S
C1445 C1449 1.393 . S
C1446 H1438 0.950 . S
C1446 C1444 1.391 . S
C1446 C1447 1.400 . S
C1447 C1446 1.400 . S
C1447 C1448 1.398 . S
C1447 C1453 1.491 . S
C1448 H1439 0.950 . S
C1448 C1447 1.398 . S
C1448 C1449 1.391 . S
C1449 H1437 0.950 . S
C1449 C1445 1.393 . S
C1449 C1448 1.391 . S
C1450 H1440 0.950 . S
C1450 C1451 1.386 . S
C1450 C1452 1.391 . S
C1451 C1450 1.386 . S
C1451 C1455 1.393 . S
C1452 H1441 0.950 . S
C1452 C1450 1.391 . S
C1452 C1453 1.400 . S
C1453 C1447 1.491 . S
C1453 C1452 1.400 . S
C1453 C1454 1.398 . S
C1454 H1442 0.950 . S
C1454 C1453 1.398 . S
C1454 C1455 1.391 . S
C1455 H1443 0.950 . S
C1455 C1451 1.393 . S
C1455 C1454 1.391 . S
H1456 C1464 0.950 . S
H1457 C1469 0.950 1_554 S
H1458 C1466 0.950 . S
H1459 C1468 0.950 . S
H1460 C1470 0.950 . S
H1461 C1472 0.950 . S
H1462 C1474 0.950 . S
H1463 C1475 0.950 . S
C1464 H1456 0.950 . S
C1464 C1465 1.386 . S
C1464 C1466 1.391 . S
C1465 C1464 1.386 . S
C1465 C1469 1.393 . S
C1466 H1458 0.950 . S
C1466 C1464 1.391 . S
C1466 C1467 1.400 . S
C1467 C1466 1.400 . S
C1467 C1468 1.398 . S
C1467 C1473 1.491 . S
C1468 H1459 0.950 . S
C1468 C1467 1.398 . S
C1468 C1469 1.391 . S
C1469 H1457 0.950 1_556 S
C1469 C1465 1.393 . S
C1469 C1468 1.391 . S
C1470 H1460 0.950 . S
C1470 C1471 1.386 . S
C1470 C1472 1.391 . S
C1471 C1470 1.386 . S
C1471 C1475 1.393 . S
C1472 H1461 0.950 . S
C1472 C1470 1.391 . S
C1472 C1473 1.400 . S
C1473 C1467 1.491 . S
C1473 C1472 1.400 . S
C1473 C1474 1.398 . S
C1474 H1462 0.950 . S
C1474 C1473 1.398 . S
C1474 C1475 1.391 . S
C1475 H1463 0.950 . S
C1475 C1471 1.393 . S
C1475 C1474 1.391 . S
H1476 C1484 0.950 . S
H1477 C1489 0.950 . S
H1478 C1486 0.950 . S
H1479 C1488 0.950 . S
H1480 C1490 0.950 . S
H1481 C1492 0.950 . S
H1482 C1494 0.950 . S
H1483 C1495 0.950 . S
C1484 H1476 0.950 . S
C1484 C1485 1.386 . S
C1484 C1486 1.391 . S
C1485 C1484 1.386 . S
C1485 C1489 1.393 . S
C1486 H1478 0.950 . S
C1486 C1484 1.391 . S
C1486 C1487 1.400 . S
C1487 C1486 1.400 . S
C1487 C1488 1.398 . S
C1487 C1493 1.491 . S
C1488 H1479 0.950 . S
C1488 C1487 1.398 . S
C1488 C1489 1.391 . S
C1489 H1477 0.950 . S
C1489 C1485 1.393 . S
C1489 C1488 1.391 . S
C1490 H1480 0.950 . S
C1490 C1491 1.386 . S
C1490 C1492 1.391 . S
C1491 C1490 1.386 . S
C1491 C1495 1.393 . S
C1492 H1481 0.950 . S
C1492 C1490 1.391 . S
C1492 C1493 1.400 . S
C1493 C1487 1.491 . S
C1493 C1492 1.400 . S
C1493 C1494 1.398 . S
C1494 H1482 0.950 . S
C1494 C1493 1.398 . S
C1494 C1495 1.391 . S
C1495 H1483 0.950 . S
C1495 C1491 1.393 . S
C1495 C1494 1.391 . S
H1496 C1504 0.950 . S
H1497 C1509 0.950 . S
H1498 C1506 0.950 . S
H1499 C1508 0.950 . S
H1500 C1510 0.950 . S
H1501 C1512 0.950 . S
H1502 C1514 0.950 . S
H1503 C1515 0.950 . S
C1504 H1496 0.950 . S
C1504 C1505 1.386 . S
C1504 C1506 1.391 . S
C1505 C1504 1.386 . S
C1505 C1509 1.393 . S
C1506 H1498 0.950 . S
C1506 C1504 1.391 . S
C1506 C1507 1.400 . S
C1507 C1506 1.400 . S
C1507 C1508 1.398 . S
C1507 C1513 1.491 . S
C1508 H1499 0.950 . S
C1508 C1507 1.398 . S
C1508 C1509 1.391 . S
C1509 H1497 0.950 . S
C1509 C1505 1.393 . S
C1509 C1508 1.391 . S
C1510 H1500 0.950 . S
C1510 C1511 1.386 . S
C1510 C1512 1.391 . S
C1511 C1510 1.386 . S
C1511 C1515 1.393 . S
C1512 H1501 0.950 . S
C1512 C1510 1.391 . S
C1512 C1513 1.400 . S
C1513 C1507 1.491 . S
C1513 C1512 1.400 . S
C1513 C1514 1.398 . S
C1514 H1502 0.950 . S
C1514 C1513 1.398 . S
C1514 C1515 1.391 . S
C1515 H1503 0.950 . S
C1515 C1511 1.393 . S
C1515 C1514 1.391 . S
H1516 C1524 0.950 . S
H1517 C1529 0.933 1_556 S
H1518 C1526 0.950 . S
H1519 C1528 0.950 . S
H1520 C1530 0.950 . S
H1521 C1532 0.950 . S
H1522 C1534 0.950 . S
H1523 C1535 0.950 . S
C1524 H1516 0.950 . S
C1524 C1525 1.386 . S
C1524 C1526 1.391 . S
C1525 C1524 1.386 . S
C1525 C1529 1.393 . S
C1526 H1518 0.950 . S
C1526 C1524 1.391 . S
C1526 C1527 1.400 . S
C1527 C1526 1.400 . S
C1527 C1528 1.398 . S
C1527 C1533 1.491 . S
C1528 H1519 0.950 . S
C1528 C1527 1.398 . S
C1528 C1529 1.391 . S
C1529 H1517 0.933 1_554 S
C1529 C1525 1.393 . S
C1529 C1528 1.391 . S
C1530 H1520 0.950 . S
C1530 C1531 1.386 . S
C1530 C1532 1.391 . S
C1531 C1530 1.386 . S
C1531 C1535 1.393 . S
C1532 H1521 0.950 . S
C1532 C1530 1.391 . S
C1532 C1533 1.400 . S
C1533 C1527 1.491 . S
C1533 C1532 1.400 . S
C1533 C1534 1.398 . S
C1534 H1522 0.950 . S
C1534 C1533 1.398 . S
C1534 C1535 1.391 . S
C1535 H1523 0.950 . S
C1535 C1531 1.393 . S
C1535 C1534 1.391 . S
H1536 C1544 0.950 . S
H1537 C1549 0.950 . S
H1538 C1546 0.950 . S
H1539 C1548 0.950 . S
H1540 C1550 0.950 . S
H1541 C1552 0.950 . S
H1542 C1554 0.950 . S
H1543 C1555 0.950 . S
C1544 H1536 0.950 . S
C1544 C1545 1.386 . S
C1544 C1546 1.391 . S
C1545 C1544 1.386 . S
C1545 C1549 1.393 . S
C1546 H1538 0.950 . S
C1546 C1544 1.391 . S
C1546 C1547 1.400 . S
C1547 C1546 1.400 . S
C1547 C1548 1.398 . S
C1547 C1553 1.491 . S
C1548 H1539 0.950 . S
C1548 C1547 1.398 . S
C1548 C1549 1.391 . S
C1549 H1537 0.950 . S
C1549 C1545 1.393 . S
C1549 C1548 1.391 . S
C1550 H1540 0.950 . S
C1550 C1551 1.386 . S
C1550 C1552 1.391 . S
C1551 C1550 1.386 . S
C1551 C1555 1.393 . S
C1552 H1541 0.950 . S
C1552 C1550 1.391 . S
C1552 C1553 1.400 . S
C1553 C1547 1.491 . S
C1553 C1552 1.400 . S
C1553 C1554 1.398 . S
C1554 H1542 0.950 . S
C1554 C1553 1.398 . S
C1554 C1555 1.391 . S
C1555 H1543 0.950 . S
C1555 C1551 1.393 . S
C1555 C1554 1.391 . S
H1556 C1564 0.950 . S
H1557 C1569 0.950 . S
H1558 C1566 0.950 . S
H1559 C1568 0.950 . S
H1560 C1570 0.950 . S
H1561 C1572 0.950 . S
H1562 C1574 0.950 . S
H1563 C1575 0.950 . S
C1564 H1556 0.950 . S
C1564 C1565 1.386 . S
C1564 C1566 1.391 . S
C1565 C1564 1.386 . S
C1565 C1569 1.393 . S
C1566 H1558 0.950 . S
C1566 C1564 1.391 . S
C1566 C1567 1.400 . S
C1567 C1566 1.400 . S
C1567 C1568 1.398 . S
C1567 C1573 1.491 . S
C1568 H1559 0.950 . S
C1568 C1567 1.398 . S
C1568 C1569 1.391 . S
C1569 H1557 0.950 . S
C1569 C1565 1.393 . S
C1569 C1568 1.391 . S
C1570 H1560 0.950 . S
C1570 C1571 1.386 . S
C1570 C1572 1.391 . S
C1571 C1570 1.386 . S
C1571 C1575 1.393 . S
C1572 H1561 0.950 . S
C1572 C1570 1.391 . S
C1572 C1573 1.400 . S
C1573 C1567 1.491 . S
C1573 C1572 1.400 . S
C1573 C1574 1.398 . S
C1574 H1562 0.950 . S
C1574 C1573 1.398 . S
C1574 C1575 1.391 . S
C1575 H1563 0.950 . S
C1575 C1571 1.393 . S
C1575 C1574 1.391 . S
H1576 C1584 0.950 . S
H1577 C1589 0.950 . S
H1578 C1586 0.950 . S
H1579 C1588 0.950 . S
H1580 C1590 0.950 . S
H1581 C1592 0.950 . S
H1582 C1594 0.950 . S
H1583 C1595 0.950 . S
C1584 H1576 0.950 . S
C1584 C1585 1.386 . S
C1584 C1586 1.391 . S
C1585 C1584 1.386 . S
C1585 C1589 1.393 . S
C1586 H1578 0.950 . S
C1586 C1584 1.391 . S
C1586 C1587 1.400 . S
C1587 C1586 1.400 . S
C1587 C1588 1.398 . S
C1587 C1593 1.491 . S
C1588 H1579 0.950 . S
C1588 C1587 1.398 . S
C1588 C1589 1.391 . S
C1589 H1577 0.950 . S
C1589 C1585 1.393 . S
C1589 C1588 1.391 . S
C1590 H1580 0.950 . S
C1590 C1591 1.386 . S
C1590 C1592 1.391 . S
C1591 C1590 1.386 . S
C1591 C1595 1.393 . S
C1592 H1581 0.950 . S
C1592 C1590 1.391 . S
C1592 C1593 1.400 . S
C1593 C1587 1.491 . S
C1593 C1592 1.400 . S
C1593 C1594 1.398 . S
C1594 H1582 0.950 . S
C1594 C1593 1.398 . S
C1594 C1595 1.391 . S
C1595 H1583 0.950 . S
C1595 C1591 1.393 . S
C1595 C1594 1.391 . S
H1596 C1604 0.950 . S
H1597 C1609 0.950 . S
H1598 C1606 0.950 . S
H1599 C1608 0.955 . S
H1600 C1610 0.902 1_655 S
H1601 C1612 0.950 1_655 S
H1602 C1614 0.950 . S
H1603 C1615 0.950 . S
C1604 H1596 0.950 . S
C1604 C1605 1.386 . S
C1604 C1606 1.391 . S
C1605 C1604 1.386 . S
C1605 C1609 1.393 . S
C1606 H1598 0.950 . S
C1606 C1604 1.391 . S
C1606 C1607 1.400 . S
C1607 C1606 1.400 . S
C1607 C1608 1.398 . S
C1607 C1613 1.491 . S
C1608 H1599 0.955 . S
C1608 C1607 1.398 . S
C1608 C1609 1.391 . S
C1609 H1597 0.950 . S
C1609 C1605 1.393 . S
C1609 C1608 1.391 . S
C1610 H1600 0.902 1_455 S
C1610 C1611 1.399 . S
C1610 C1612 1.429 . S
C1611 C1610 1.399 . S
C1611 C1615 1.393 . S
C1612 H1601 0.950 1_455 S
C1612 C1610 1.429 . S
C1612 C1613 1.400 . S
C1613 C1607 1.491 . S
C1613 C1612 1.400 . S
C1613 C1614 1.398 . S
C1614 H1602 0.950 . S
C1614 C1613 1.398 . S
C1614 C1615 1.391 . S
C1615 H1603 0.950 . S
C1615 C1611 1.393 . S
C1615 C1614 1.391 . S
H1616 C1624 0.950 . S
H1617 C1629 0.950 . S
H1618 C1626 0.950 . S
H1619 C1628 0.950 . S
H1620 C1630 0.950 . S
H1621 C1632 0.950 . S
H1622 C1634 0.950 . S
H1623 C1635 0.950 . S
C1624 H1616 0.950 . S
C1624 C1625 1.386 . S
C1624 C1626 1.391 . S
C1625 C1624 1.386 . S
C1625 C1629 1.393 . S
C1626 H1618 0.950 . S
C1626 C1624 1.391 . S
C1626 C1627 1.400 . S
C1627 C1626 1.400 . S
C1627 C1628 1.398 . S
C1627 C1633 1.491 . S
C1628 H1619 0.950 . S
C1628 C1627 1.398 . S
C1628 C1629 1.391 . S
C1629 H1617 0.950 . S
C1629 C1625 1.393 . S
C1629 C1628 1.391 . S
C1630 H1620 0.950 . S
C1630 C1631 1.386 . S
C1630 C1632 1.391 . S
C1631 C1630 1.386 . S
C1631 C1635 1.393 . S
C1632 H1621 0.950 . S
C1632 C1630 1.391 . S
C1632 C1633 1.400 . S
C1633 C1627 1.491 . S
C1633 C1632 1.400 . S
C1633 C1634 1.398 . S
C1634 H1622 0.950 . S
C1634 C1633 1.398 . S
C1634 C1635 1.391 . S
C1635 H1623 0.950 . S
C1635 C1631 1.393 . S
C1635 C1634 1.391 . S
H1636 C1644 0.950 . S
H1637 C1649 1.000 . S
H1638 C1646 0.950 . S
H1639 C1648 0.950 . S
H1640 C1650 0.950 . S
H1641 C1652 0.950 . S
H1642 C1654 0.950 . S
H1643 C1655 0.950 . S
C1644 H1636 0.950 . S
C1644 C1645 1.386 . S
C1644 C1646 1.391 . S
C1645 C1644 1.386 . S
C1645 C1649 1.363 1_565 S
C1646 H1638 0.950 . S
C1646 C1644 1.391 . S
C1646 C1647 1.400 . S
C1647 C1646 1.400 . S
C1647 C1648 1.398 1_565 S
C1647 C1653 1.491 . S
C1648 H1639 0.950 . S
C1648 C1647 1.398 1_545 S
C1648 C1649 1.372 . S
C1649 H1637 1.000 . S
C1649 C1645 1.363 1_545 S
C1649 C1648 1.372 . S
C1650 H1640 0.950 . S
C1650 C1651 1.386 1_545 S
C1650 C1652 1.391 . S
C1651 C1650 1.386 1_565 S
C1651 C1655 1.393 . S
C1652 H1641 0.950 . S
C1652 C1650 1.391 . S
C1652 C1653 1.400 1_545 S
C1653 C1647 1.491 . S
C1653 C1652 1.400 1_565 S
C1653 C1654 1.398 . S
C1654 H1642 0.950 . S
C1654 C1653 1.398 . S
C1654 C1655 1.391 . S
C1655 H1643 0.950 . S
C1655 C1651 1.393 . S
C1655 C1654 1.391 . S
H1656 C1664 0.950 . S
H1657 C1669 0.950 . S
H1658 C1666 0.950 . S
H1659 C1668 0.950 . S
H1660 C1670 0.950 . S
H1661 C1672 0.950 . S
H1662 C1674 0.950 . S
H1663 C1675 0.950 . S
C1664 H1656 0.950 . S
C1664 C1665 1.386 . S
C1664 C1666 1.391 . S
C1665 C1664 1.386 . S
C1665 C1669 1.393 1_565 S
C1666 H1658 0.950 . S
C1666 C1664 1.391 . S
C1666 C1667 1.400 . S
C1667 C1666 1.400 . S
C1667 C1668 1.398 1_565 S
C1667 C1673 1.491 . S
C1668 H1659 0.950 . S
C1668 C1667 1.398 1_545 S
C1668 C1669 1.391 . S
C1669 H1657 0.950 . S
C1669 C1665 1.393 1_545 S
C1669 C1668 1.391 . S
C1670 H1660 0.950 . S
C1670 C1671 1.386 1_545 S
C1670 C1672 1.391 . S
C1671 C1670 1.386 1_565 S
C1671 C1675 1.393 . S
C1672 H1661 0.950 . S
C1672 C1670 1.391 . S
C1672 C1673 1.400 1_545 S
C1673 C1667 1.491 . S
C1673 C1672 1.400 1_565 S
C1673 C1674 1.398 . S
C1674 H1662 0.950 . S
C1674 C1673 1.398 . S
C1674 C1675 1.391 . S
C1675 H1663 0.950 . S
C1675 C1671 1.393 . S
C1675 C1674 1.391 . S
H1676 C1684 0.950 . S
H1677 C1689 0.950 . S
H1678 C1686 0.950 . S
H1679 C1688 0.950 . S
H1680 C1690 0.950 . S
H1681 C1692 0.950 . S
H1682 C1694 0.952 1_655 S
H1683 C1695 0.950 . S
C1684 H1676 0.950 . S
C1684 C1685 1.386 . S
C1684 C1686 1.391 . S
C1685 C1684 1.386 . S
C1685 C1689 1.393 . S
C1686 H1678 0.950 . S
C1686 C1684 1.391 . S
C1686 C1687 1.400 . S
C1687 C1686 1.400 . S
C1687 C1688 1.398 . S
C1687 C1693 1.491 . S
C1688 H1679 0.950 . S
C1688 C1687 1.398 . S
C1688 C1689 1.391 . S
C1689 H1677 0.950 . S
C1689 C1685 1.393 . S
C1689 C1688 1.391 . S
C1690 H1680 0.950 . S
C1690 C1691 1.386 . S
C1690 C1692 1.391 . S
C1691 C1690 1.386 . S
C1691 C1695 1.391 1_455 S
C1692 H1681 0.950 . S
C1692 C1690 1.391 . S
C1692 C1693 1.400 . S
C1693 C1687 1.491 . S
C1693 C1692 1.400 . S
C1693 C1694 1.398 . S
C1694 H1682 0.952 1_455 S
C1694 C1693 1.398 . S
C1694 C1695 1.391 1_455 S
C1695 H1683 0.950 . S
C1695 C1691 1.391 1_655 S
C1695 C1694 1.391 1_655 S
H1696 C1704 0.950 . S
H1697 C1709 0.950 . S
H1698 C1706 0.950 . S
H1699 C1708 0.950 . S
H1700 C1710 0.950 . S
H1701 C1712 0.950 . S
H1702 C1714 0.950 . S
H1703 C1715 0.950 . S
C1704 H1696 0.950 . S
C1704 C1705 1.386 . S
C1704 C1706 1.391 . S
C1705 C1704 1.386 . S
C1705 C1709 1.393 . S
C1706 H1698 0.950 . S
C1706 C1704 1.391 . S
C1706 C1707 1.400 . S
C1707 C1706 1.400 . S
C1707 C1708 1.398 . S
C1707 C1713 1.491 . S
C1708 H1699 0.950 . S
C1708 C1707 1.398 . S
C1708 C1709 1.391 . S
C1709 H1697 0.950 . S
C1709 C1705 1.393 . S
C1709 C1708 1.391 . S
C1710 H1700 0.950 . S
C1710 C1711 1.386 . S
C1710 C1712 1.391 . S
C1711 C1710 1.386 . S
C1711 C1715 1.393 . S
C1712 H1701 0.950 . S
C1712 C1710 1.391 . S
C1712 C1713 1.400 . S
C1713 C1707 1.491 . S
C1713 C1712 1.400 . S
C1713 C1714 1.398 . S
C1714 H1702 0.950 . S
C1714 C1713 1.398 . S
C1714 C1715 1.391 . S
C1715 H1703 0.950 . S
C1715 C1711 1.393 . S
C1715 C1714 1.391 . S
H1716 C1724 0.950 . S
H1717 C1729 0.950 . S
H1718 C1726 0.950 . S
H1719 C1728 0.950 . S
H1720 C1730 0.950 . S
H1721 C1732 0.950 . S
H1722 C1734 0.950 . S
H1723 C1735 0.950 . S
C1724 H1716 0.950 . S
C1724 C1725 1.386 . S
C1724 C1726 1.391 . S
C1725 C1724 1.386 . S
C1725 C1729 1.393 . S
C1726 H1718 0.950 . S
C1726 C1724 1.391 . S
C1726 C1727 1.400 . S
C1727 C1726 1.400 . S
C1727 C1728 1.398 . S
C1727 C1733 1.491 . S
C1728 H1719 0.950 . S
C1728 C1727 1.398 . S
C1728 C1729 1.391 . S
C1729 H1717 0.950 . S
C1729 C1725 1.393 . S
C1729 C1728 1.391 . S
C1730 H1720 0.950 . S
C1730 C1731 1.386 . S
C1730 C1732 1.391 . S
C1731 C1730 1.386 . S
C1731 C1735 1.393 . S
C1732 H1721 0.950 . S
C1732 C1730 1.391 . S
C1732 C1733 1.400 . S
C1733 C1727 1.491 . S
C1733 C1732 1.400 . S
C1733 C1734 1.398 . S
C1734 H1722 0.950 . S
C1734 C1733 1.398 . S
C1734 C1735 1.391 . S
C1735 H1723 0.950 . S
C1735 C1731 1.393 . S
C1735 C1734 1.391 . S
H1736 C1744 0.950 . S
H1737 C1749 0.950 . S
H1738 C1746 0.950 . S
H1739 C1748 0.950 . S
H1740 C1750 0.950 . S
H1741 C1752 0.950 . S
H1742 C1754 0.950 . S
H1743 C1755 0.950 . S
C1744 H1736 0.950 . S
C1744 C1745 1.386 . S
C1744 C1746 1.391 . S
C1745 C1744 1.386 . S
C1745 C1749 1.393 . S
C1746 H1738 0.950 . S
C1746 C1744 1.391 . S
C1746 C1747 1.400 . S
C1747 C1746 1.400 . S
C1747 C1748 1.398 . S
C1747 C1753 1.491 . S
C1748 H1739 0.950 . S
C1748 C1747 1.398 . S
C1748 C1749 1.391 . S
C1749 H1737 0.950 . S
C1749 C1745 1.393 . S
C1749 C1748 1.391 . S
C1750 H1740 0.950 . S
C1750 C1751 1.386 . S
C1750 C1752 1.391 . S
C1751 C1750 1.386 . S
C1751 C1755 1.393 . S
C1752 H1741 0.950 . S
C1752 C1750 1.391 . S
C1752 C1753 1.400 . S
C1753 C1747 1.491 . S
C1753 C1752 1.400 . S
C1753 C1754 1.398 . S
C1754 H1742 0.950 . S
C1754 C1753 1.398 . S
C1754 C1755 1.391 . S
C1755 H1743 0.950 . S
C1755 C1751 1.393 . S
C1755 C1754 1.391 . S
H1756 C1764 0.950 . S
H1757 C1769 0.950 . S
H1758 C1766 0.950 . S
H1759 C1768 0.950 . S
H1760 C1770 0.950 . S
H1761 C1772 0.950 . S
H1762 C1774 0.950 . S
H1763 C1775 0.950 . S
C1764 H1756 0.950 . S
C1764 C1765 1.386 . S
C1764 C1766 1.391 . S
C1765 C1764 1.386 . S
C1765 C1769 1.393 . S
C1766 H1758 0.950 . S
C1766 C1764 1.391 . S
C1766 C1767 1.400 . S
C1767 C1766 1.400 . S
C1767 C1768 1.398 . S
C1767 C1773 1.491 . S
C1768 H1759 0.950 . S
C1768 C1767 1.398 . S
C1768 C1769 1.391 . S
C1769 H1757 0.950 . S
C1769 C1765 1.393 . S
C1769 C1768 1.391 . S
C1770 H1760 0.950 . S
C1770 C1771 1.386 . S
C1770 C1772 1.391 . S
C1771 C1770 1.386 . S
C1771 C1775 1.393 . S
C1772 H1761 0.950 . S
C1772 C1770 1.391 . S
C1772 C1773 1.400 . S
C1773 C1767 1.491 . S
C1773 C1772 1.400 . S
C1773 C1774 1.398 . S
C1774 H1762 0.950 . S
C1774 C1773 1.398 . S
C1774 C1775 1.391 . S
C1775 H1763 0.950 . S
C1775 C1771 1.393 . S
C1775 C1774 1.391 . S
H1776 C1784 0.950 . S
H1777 C1789 0.951 . S
H1778 C1786 0.950 . S
H1779 C1788 0.950 . S
H1780 C1790 0.950 . S
H1781 C1792 0.950 . S
H1782 C1794 0.950 . S
H1783 C1795 0.950 . S
C1784 H1776 0.950 . S
C1784 C1785 1.386 . S
C1784 C1786 1.391 . S
C1785 C1784 1.386 . S
C1785 C1789 1.391 1_545 S
C1786 H1778 0.950 . S
C1786 C1784 1.391 . S
C1786 C1787 1.400 . S
C1787 C1786 1.400 . S
C1787 C1788 1.398 1_545 S
C1787 C1793 1.491 . S
C1788 H1779 0.950 . S
C1788 C1787 1.398 1_565 S
C1788 C1789 1.392 . S
C1789 H1777 0.951 . S
C1789 C1785 1.391 1_565 S
C1789 C1788 1.392 . S
C1790 H1780 0.950 . S
C1790 C1791 1.386 1_565 S
C1790 C1792 1.391 . S
C1791 C1790 1.386 1_545 S
C1791 C1795 1.393 . S
C1792 H1781 0.950 . S
C1792 C1790 1.391 . S
C1792 C1793 1.400 1_565 S
C1793 C1787 1.491 . S
C1793 C1792 1.400 1_545 S
C1793 C1794 1.398 . S
C1794 H1782 0.950 . S
C1794 C1793 1.398 . S
C1794 C1795 1.391 . S
C1795 H1783 0.950 . S
C1795 C1791 1.393 . S
C1795 C1794 1.391 . S
H1796 C1804 0.950 . S
H1797 C1809 0.950 . S
H1798 C1806 0.950 . S
H1799 C1808 0.950 1_455 S
H1800 C1810 0.951 . S
H1801 C1812 0.950 1_455 S
H1802 C1814 0.950 . S
H1803 C1815 0.950 . S
C1804 H1796 0.950 . S
C1804 C1805 1.386 . S
C1804 C1806 1.391 . S
C1805 C1804 1.386 . S
C1805 C1809 1.393 . S
C1806 H1798 0.950 . S
C1806 C1804 1.391 . S
C1806 C1807 1.400 . S
C1807 C1806 1.400 . S
C1807 C1808 1.398 . S
C1807 C1813 1.491 . S
C1808 H1799 0.950 1_655 S
C1808 C1807 1.398 . S
C1808 C1809 1.391 . S
C1809 H1797 0.950 . S
C1809 C1805 1.393 . S
C1809 C1808 1.391 . S
C1810 H1800 0.951 . S
C1810 C1811 1.372 1_455 S
C1810 C1812 1.404 1_455 S
C1811 C1810 1.372 1_655 S
C1811 C1815 1.393 . S
C1812 H1801 0.950 1_655 S
C1812 C1810 1.404 1_655 S
C1812 C1813 1.400 . S
C1813 C1807 1.491 . S
C1813 C1812 1.400 . S
C1813 C1814 1.398 . S
C1814 H1802 0.950 . S
C1814 C1813 1.398 . S
C1814 C1815 1.391 . S
C1815 H1803 0.950 . S
C1815 C1811 1.393 . S
C1815 C1814 1.391 . S
H1816 C1824 0.950 . S
H1817 C1829 0.950 . S
H1818 C1826 0.950 . S
H1819 C1828 0.950 . S
H1820 C1830 0.950 . S
H1821 C1832 0.950 . S
H1822 C1834 0.950 . S
H1823 C1835 0.950 . S
C1824 H1816 0.950 . S
C1824 C1825 1.386 . S
C1824 C1826 1.391 . S
C1825 C1824 1.386 . S
C1825 C1829 1.393 . S
C1826 H1818 0.950 . S
C1826 C1824 1.391 . S
C1826 C1827 1.400 . S
C1827 C1826 1.400 . S
C1827 C1828 1.398 . S
C1827 C1833 1.491 . S
C1828 H1819 0.950 . S
C1828 C1827 1.398 . S
C1828 C1829 1.391 . S
C1829 H1817 0.950 . S
C1829 C1825 1.393 . S
C1829 C1828 1.391 . S
C1830 H1820 0.950 . S
C1830 C1831 1.386 . S
C1830 C1832 1.391 . S
C1831 C1830 1.386 . S
C1831 C1835 1.393 . S
C1832 H1821 0.950 . S
C1832 C1830 1.391 . S
C1832 C1833 1.400 . S
C1833 C1827 1.491 . S
C1833 C1832 1.400 . S
C1833 C1834 1.398 . S
C1834 H1822 0.950 . S
C1834 C1833 1.398 . S
C1834 C1835 1.391 . S
C1835 H1823 0.950 . S
C1835 C1831 1.393 . S
C1835 C1834 1.391 . S
H1836 C1844 0.950 . S
H1837 C1849 0.950 . S
H1838 C1846 0.950 . S
H1839 C1848 0.950 . S
H1840 C1850 0.950 . S
H1841 C1852 0.950 . S
H1842 C1854 0.950 . S
H1843 C1855 0.950 . S
C1844 H1836 0.950 . S
C1844 C1845 1.386 . S
C1844 C1846 1.391 . S
C1845 C1844 1.386 . S
C1845 C1849 1.393 . S
C1846 H1838 0.950 . S
C1846 C1844 1.391 . S
C1846 C1847 1.400 . S
C1847 C1846 1.400 . S
C1847 C1848 1.398 . S
C1847 C1853 1.491 . S
C1848 H1839 0.950 . S
C1848 C1847 1.398 . S
C1848 C1849 1.391 . S
C1849 H1837 0.950 . S
C1849 C1845 1.393 . S
C1849 C1848 1.391 . S
C1850 H1840 0.950 . S
C1850 C1851 1.386 . S
C1850 C1852 1.391 . S
C1851 C1850 1.386 . S
C1851 C1855 1.393 . S
C1852 H1841 0.950 . S
C1852 C1850 1.391 . S
C1852 C1853 1.400 . S
C1853 C1847 1.491 . S
C1853 C1852 1.400 . S
C1853 C1854 1.398 . S
C1854 H1842 0.950 . S
C1854 C1853 1.398 . S
C1854 C1855 1.391 . S
C1855 H1843 0.950 . S
C1855 C1851 1.393 . S
C1855 C1854 1.391 . S
H1856 C1864 0.950 . S
H1857 C1869 0.950 . S
H1858 C1866 0.950 . S
H1859 C1868 0.950 . S
H1860 C1870 0.950 . S
H1861 C1872 0.950 . S
H1862 C1874 0.950 . S
H1863 C1875 0.950 . S
C1864 H1856 0.950 . S
C1864 C1865 1.386 . S
C1864 C1866 1.391 . S
C1865 C1864 1.386 . S
C1865 C1869 1.393 . S
C1866 H1858 0.950 . S
C1866 C1864 1.391 . S
C1866 C1867 1.400 . S
C1867 C1866 1.400 . S
C1867 C1868 1.398 . S
C1867 C1873 1.491 . S
C1868 H1859 0.950 . S
C1868 C1867 1.398 . S
C1868 C1869 1.391 . S
C1869 H1857 0.950 . S
C1869 C1865 1.393 . S
C1869 C1868 1.391 . S
C1870 H1860 0.950 . S
C1870 C1871 1.386 . S
C1870 C1872 1.391 . S
C1871 C1870 1.386 . S
C1871 C1875 1.393 . S
C1872 H1861 0.950 . S
C1872 C1870 1.391 . S
C1872 C1873 1.400 . S
C1873 C1867 1.491 . S
C1873 C1872 1.400 . S
C1873 C1874 1.398 . S
C1874 H1862 0.950 . S
C1874 C1873 1.398 . S
C1874 C1875 1.391 . S
C1875 H1863 0.950 . S
C1875 C1871 1.393 . S
C1875 C1874 1.391 . S
H1876 C1884 0.950 . S
H1877 C1889 0.950 . S
H1878 C1886 0.950 . S
H1879 C1888 0.950 . S
H1880 C1890 0.950 . S
H1881 C1892 0.950 . S
H1882 C1894 0.950 . S
H1883 C1895 0.950 . S
C1884 H1876 0.950 . S
C1884 C1885 1.386 . S
C1884 C1886 1.391 . S
C1885 C1884 1.386 . S
C1885 C1889 1.393 . S
C1886 H1878 0.950 . S
C1886 C1884 1.391 . S
C1886 C1887 1.400 . S
C1887 C1886 1.400 . S
C1887 C1888 1.398 . S
C1887 C1893 1.491 . S
C1888 H1879 0.950 . S
C1888 C1887 1.398 . S
C1888 C1889 1.391 . S
C1889 H1877 0.950 . S
C1889 C1885 1.393 . S
C1889 C1888 1.391 . S
C1890 H1880 0.950 . S
C1890 C1891 1.386 . S
C1890 C1892 1.391 . S
C1891 C1890 1.386 . S
C1891 C1895 1.393 . S
C1892 H1881 0.950 . S
C1892 C1890 1.391 . S
C1892 C1893 1.400 . S
C1893 C1887 1.491 . S
C1893 C1892 1.400 . S
C1893 C1894 1.398 . S
C1894 H1882 0.950 . S
C1894 C1893 1.398 . S
C1894 C1895 1.391 . S
C1895 H1883 0.950 . S
C1895 C1891 1.393 . S
C1895 C1894 1.391 . S
H1896 C1904 0.950 . S
H1897 C1909 0.950 . S
H1898 C1906 0.950 . S
H1899 C1908 0.950 . S
H1900 C1910 0.950 . S
H1901 C1912 0.950 . S
H1902 C1914 0.950 . S
H1903 C1915 0.950 . S
C1904 H1896 0.950 . S
C1904 C1905 1.386 . S
C1904 C1906 1.391 . S
C1905 C1904 1.386 . S
C1905 C1909 1.393 . S
C1906 H1898 0.950 . S
C1906 C1904 1.391 . S
C1906 C1907 1.400 . S
C1907 C1906 1.400 . S
C1907 C1908 1.398 . S
C1907 C1913 1.491 . S
C1908 H1899 0.950 . S
C1908 C1907 1.398 . S
C1908 C1909 1.391 . S
C1909 H1897 0.950 . S
C1909 C1905 1.393 . S
C1909 C1908 1.391 . S
C1910 H1900 0.950 . S
C1910 C1911 1.386 . S
C1910 C1912 1.391 . S
C1911 C1910 1.386 . S
C1911 C1915 1.393 . S
C1912 H1901 0.950 . S
C1912 C1910 1.391 . S
C1912 C1913 1.400 . S
C1913 C1907 1.491 . S
C1913 C1912 1.400 . S
C1913 C1914 1.398 . S
C1914 H1902 0.950 . S
C1914 C1913 1.398 . S
C1914 C1915 1.391 . S
C1915 H1903 0.950 . S
C1915 C1911 1.393 . S
C1915 C1914 1.391 . S
H1916 C1924 0.950 . S
H1917 C1929 0.950 . S
H1918 C1926 0.950 . S
H1919 C1928 0.950 . S
H1920 C1930 0.950 . S
H1921 C1932 0.950 . S
H1922 C1934 0.950 . S
H1923 C1935 0.950 . S
C1924 H1916 0.950 . S
C1924 C1925 1.386 . S
C1924 C1926 1.391 . S
C1925 C1924 1.386 . S
C1925 C1929 1.393 . S
C1926 H1918 0.950 . S
C1926 C1924 1.391 . S
C1926 C1927 1.400 . S
C1927 C1926 1.400 . S
C1927 C1928 1.398 . S
C1927 C1933 1.491 . S
C1928 H1919 0.950 . S
C1928 C1927 1.398 . S
C1928 C1929 1.391 . S
C1929 H1917 0.950 . S
C1929 C1925 1.393 . S
C1929 C1928 1.391 . S
C1930 H1920 0.950 . S
C1930 C1931 1.386 . S
C1930 C1932 1.391 . S
C1931 C1930 1.386 . S
C1931 C1935 1.393 . S
C1932 H1921 0.950 . S
C1932 C1930 1.391 . S
C1932 C1933 1.400 . S
C1933 C1927 1.491 . S
C1933 C1932 1.400 . S
C1933 C1934 1.398 . S
C1934 H1922 0.950 . S
C1934 C1933 1.398 . S
C1934 C1935 1.391 . S
C1935 H1923 0.950 . S
C1935 C1931 1.393 . S
C1935 C1934 1.391 . S
H1936 C1944 0.950 . S
H1937 C1949 0.950 . S
H1938 C1946 0.950 . S
H1939 C1948 0.950 . S
H1940 C1950 0.950 . S
H1941 C1952 0.950 . S
H1942 C1954 0.950 . S
H1943 C1955 0.950 . S
C1944 H1936 0.950 . S
C1944 C1945 1.386 . S
C1944 C1946 1.391 . S
C1945 C1944 1.386 . S
C1945 C1949 1.393 . S
C1946 H1938 0.950 . S
C1946 C1944 1.391 . S
C1946 C1947 1.400 . S
C1947 C1946 1.400 . S
C1947 C1948 1.398 . S
C1947 C1953 1.491 . S
C1948 H1939 0.950 . S
C1948 C1947 1.398 . S
C1948 C1949 1.391 . S
C1949 H1937 0.950 . S
C1949 C1945 1.393 . S
C1949 C1948 1.391 . S
C1950 H1940 0.950 . S
C1950 C1951 1.386 . S
C1950 C1952 1.391 . S
C1951 C1950 1.386 . S
C1951 C1955 1.393 . S
C1952 H1941 0.950 . S
C1952 C1950 1.391 . S
C1952 C1953 1.400 . S
C1953 C1947 1.491 . S
C1953 C1952 1.400 . S
C1953 C1954 1.398 . S
C1954 H1942 0.950 . S
C1954 C1953 1.398 . S
C1954 C1955 1.391 . S
C1955 H1943 0.950 . S
C1955 C1951 1.393 . S
C1955 C1954 1.391 . S
H1956 C1964 0.950 . S
H1957 C1969 0.950 . S
H1958 C1966 0.950 . S
H1959 C1968 0.950 . S
H1960 C1970 0.950 . S
H1961 C1972 0.950 . S
H1962 C1974 0.950 . S
H1963 C1975 0.950 . S
C1964 H1956 0.950 . S
C1964 C1965 1.386 . S
C1964 C1966 1.391 . S
C1965 C1964 1.386 . S
C1965 C1969 1.393 1_655 S
C1966 H1958 0.950 . S
C1966 C1964 1.391 . S
C1966 C1967 1.400 . S
C1967 C1966 1.400 . S
C1967 C1968 1.398 1_655 S
C1967 C1973 1.491 . S
C1968 H1959 0.950 . S
C1968 C1967 1.398 1_455 S
C1968 C1969 1.391 . S
C1969 H1957 0.950 . S
C1969 C1965 1.393 1_455 S
C1969 C1968 1.391 . S
C1970 H1960 0.950 . S
C1970 C1971 1.386 1_455 S
C1970 C1972 1.391 . S
C1971 C1970 1.386 1_655 S
C1971 C1975 1.393 . S
C1972 H1961 0.950 . S
C1972 C1970 1.391 . S
C1972 C1973 1.400 1_455 S
C1973 C1967 1.491 . S
C1973 C1972 1.400 1_655 S
C1973 C1974 1.398 . S
C1974 H1962 0.950 . S
C1974 C1973 1.398 . S
C1974 C1975 1.391 . S
C1975 H1963 0.950 . S
C1975 C1971 1.393 . S
C1975 C1974 1.391 . S
H1976 C1984 0.950 . S
H1977 C1989 0.950 . S
H1978 C1986 0.950 . S
H1979 C1988 0.950 . S
H1980 C1990 0.950 . S
H1981 C1992 0.950 . S
H1982 C1994 0.950 . S
H1983 C1995 0.950 . S
C1984 H1976 0.950 . S
C1984 C1985 1.386 . S
C1984 C1986 1.391 . S
C1985 C1984 1.386 . S
C1985 C1989 1.393 . S
C1986 H1978 0.950 . S
C1986 C1984 1.391 . S
C1986 C1987 1.400 . S
C1987 C1986 1.400 . S
C1987 C1988 1.398 . S
C1987 C1993 1.491 . S
C1988 H1979 0.950 . S
C1988 C1987 1.398 . S
C1988 C1989 1.391 . S
C1989 H1977 0.950 . S
C1989 C1985 1.393 . S
C1989 C1988 1.391 . S
C1990 H1980 0.950 . S
C1990 C1991 1.386 . S
C1990 C1992 1.391 . S
C1991 C1990 1.386 . S
C1991 C1995 1.393 . S
C1992 H1981 0.950 . S
C1992 C1990 1.391 . S
C1992 C1993 1.400 . S
C1993 C1987 1.491 . S
C1993 C1992 1.400 . S
C1993 C1994 1.398 . S
C1994 H1982 0.950 . S
C1994 C1993 1.398 . S
C1994 C1995 1.391 . S
C1995 H1983 0.950 . S
C1995 C1991 1.393 . S
C1995 C1994 1.391 . S
H1996 C2004 0.950 . S
H1997 C2009 0.950 . S
H1998 C2006 0.950 . S
H1999 C2008 0.950 . S
H2000 C2010 0.950 . S
H2001 C2012 0.950 . S
H2002 C2014 0.950 . S
H2003 C2015 0.950 . S
C2004 H1996 0.950 . S
C2004 C2005 1.386 1_565 S
C2004 C2006 1.391 . S
C2005 C2004 1.386 1_545 S
C2005 C2009 1.393 . S
C2006 H1998 0.950 . S
C2006 C2004 1.391 . S
C2006 C2007 1.400 1_565 S
C2007 C2006 1.400 1_545 S
C2007 C2008 1.398 . S
C2007 C2013 1.491 . S
C2008 H1999 0.950 . S
C2008 C2007 1.398 . S
C2008 C2009 1.391 . S
C2009 H1997 0.950 . S
C2009 C2005 1.393 . S
C2009 C2008 1.391 . S
C2010 H2000 0.950 . S
C2010 C2011 1.386 . S
C2010 C2012 1.391 . S
C2011 C2010 1.386 . S
C2011 C2015 1.393 1_545 S
C2012 H2001 0.950 . S
C2012 C2010 1.391 . S
C2012 C2013 1.400 . S
C2013 C2007 1.491 . S
C2013 C2012 1.400 . S
C2013 C2014 1.398 1_545 S
C2014 H2002 0.950 . S
C2014 C2013 1.398 1_565 S
C2014 C2015 1.391 . S
C2015 H2003 0.950 . S
C2015 C2011 1.393 1_565 S
C2015 C2014 1.391 . S
C585 C4 1.539 . S
C591 C421 1.565 . S
C605 C26 1.576 . S
C611 C446 1.554 . S
C631 C457 1.509 . S
C625 C32 1.485 . S
C645 C40 1.498 . S
C651 C482 1.483 . S
C665 C12 1.550 . S
C671 C500 1.540 . S
C685 C18 1.525 . S
C691 C511 1.548 . S
C705 C46 1.531 . S
C711 C493 1.561 . S
C731 C518 1.535 . S
C725 C68 1.553 . S
C751 C475 1.514 1_565 S
C745 C74 1.507 . S
C765 C82 1.490 . S
C771 C464 1.483 1_545 S
C791 C428 1.516 1_655 S
C785 C54 1.548 . S
C805 C60 1.503 . S
C811 C439 1.534 . S
C825 C88 1.576 . S
C831 C529 1.599 . S
C845 C110 1.598 . S
C851 C554 1.576 . S
C871 C565 1.562 . S
C865 C116 1.534 . S
C885 C124 1.524 . S
C891 C266 1.508 . S
C905 C96 1.563 . S
C911 C284 1.538 . S
C925 C102 1.517 . S
C931 C295 1.542 . S
C945 C130 1.530 . S
C951 C277 1.564 . S
C965 C152 1.577 . S
C971 C302 1.564 . S
C991 C259 1.551 . S
C985 C158 1.515 . S
C1011 C572 1.514 . S
C1005 C166 1.534 . S
C1031 C536 1.513 . S
C1025 C138 1.539 . S
C1051 C547 1.562 . S
C1045 C144 1.533 . S
C1065 C172 1.566 . S
C1071 C313 1.590 . S
C1085 C194 1.598 . S
C1091 C338 1.579 . S
C1105 C200 1.548 . S
C1111 C349 1.566 . S
C1125 C208 1.538 . S
C1131 C374 1.518 . S
C1151 C392 1.550 . S
C1145 C180 1.572 . S
C1171 C403 1.571 . S
C1165 C186 1.548 . S
C1191 C385 1.601 . S
C1185 C214 1.572 . S
C1211 C410 1.551 . S
C1205 C236 1.576 . S
C1225 C242 1.503 . S
C1231 C367 1.541 . S
C1251 C356 1.491 . S
C1245 C250 1.501 . S
C1265 C222 1.551 . S
C1271 C320 1.540 . S
C1291 C331 1.546 . S
C1285 C228 1.520 . S
C1311 C268 1.323 . S
C1305 C5 1.175 . S
C1325 C25 1.309 . S
C1331 C286 1.270 . S
C1351 C296 1.326 . S
C1345 C33 1.196 . S
C1371 C314 1.259 . S
C1365 C39 1.276 . S
C1391 C340 1.270 . S
C1385 C11 1.339 . S
C1411 C350 1.289 . S
C1405 C19 1.168 1_556 S
C1425 C47 1.200 1_556 S
C1431 C358 1.334 . S
C1445 C67 1.362 . S
C1451 C322 1.245 . S
C1465 C75 1.243 1_556 S
C1471 C332 1.361 . S
C1485 C81 1.332 . S
C1491 C278 1.289 . S
C1511 C304 1.252 . S
C1505 C53 1.363 . S
C1525 C61 1.164 . S
C1531 C260 1.300 . S
C1551 C376 1.306 . S
C1545 C89 1.181 . S
C1565 C109 1.356 . S
C1571 C394 1.305 . S
C1585 C117 1.193 . S
C1591 C404 1.318 . S
C1611 C422 1.224 . S
C1605 C123 1.267 . S
C1625 C95 1.312 . S
C1631 C448 1.275 . S
C1645 C103 1.153 . S
C1651 C458 1.258 . S
C1665 C131 1.108 . S
C1671 C466 1.243 . S
C1685 C151 1.306 . S
C1691 C430 1.241 . S
C1711 C440 1.329 . S
C1705 C159 1.205 . S
C1725 C165 1.347 . S
C1731 C386 1.255 . S
C1745 C137 1.403 . S
C1751 C412 1.289 . S
C1771 C368 1.349 . S
C1765 C145 1.212 . S
C1791 C484 1.274 . S
C1785 C173 1.160 . S
C1805 C193 1.282 . S
C1811 C502 1.233 . S
C1825 C201 1.156 . S
C1831 C512 1.280 . S
C1851 C530 1.245 . S
C1845 C207 1.299 . S
C1871 C556 1.317 . S
C1865 C179 1.361 . S
C1885 C187 1.195 . S
C1891 C566 1.320 . S
C1905 C215 1.225 . S
C1911 C574 1.343 . S
C1925 C235 1.403 . S
C1931 C538 1.289 . S
C1951 C548 1.350 . S
C1945 C243 1.217 . S
C1971 C494 1.188 1_655 S
C1965 C249 1.271 . S
C1991 C520 1.295 . S
C1985 C221 1.355 . S
C2005 C229 1.155 . S
C2011 C476 1.286 1_545 S
