# Generated by pormake.
# Topology eea, (3,6)-cn, num edge types: 1
# Building blocks:
#     Node 0, Type 0, BuildingBlock: CUQRIR_clean_linker_1, # of connection points: 3
#     Node 1, Type 0, BuildingBlock: CUQRIR_clean_linker_1, # of connection points: 3
#     Node 2, Type 0, BuildingBlock: CUQRIR_clean_linker_1, # of connection points: 3
#     Node 3, Type 0, BuildingBlock: CUQRIR_clean_linker_1, # of connection points: 3
#     Node 4, Type 0, BuildingBlock: CUQRIR_clean_linker_1, # of connection points: 3
#     Node 5, Type 0, BuildingBlock: CUQRIR_clean_linker_1, # of connection points: 3
#     Node 6, Type 0, BuildingBlock: CUQRIR_clean_linker_1, # of connection points: 3
#     Node 7, Type 0, BuildingBlock: CUQRIR_clean_linker_1, # of connection points: 3
#     Node 8, Type 0, BuildingBlock: CUQRIR_clean_linker_1, # of connection points: 3
#     Node 9, Type 0, BuildingBlock: CUQRIR_clean_linker_1, # of connection points: 3
#     Node 10, Type 0, BuildingBlock: CUQRIR_clean_linker_1, # of connection points: 3
#     Node 11, Type 0, BuildingBlock: CUQRIR_clean_linker_1, # of connection points: 3
#     Node 12, Type 0, BuildingBlock: CUQRIR_clean_linker_1, # of connection points: 3
#     Node 13, Type 0, BuildingBlock: CUQRIR_clean_linker_1, # of connection points: 3
#     Node 14, Type 0, BuildingBlock: CUQRIR_clean_linker_1, # of connection points: 3
#     Node 15, Type 0, BuildingBlock: CUQRIR_clean_linker_1, # of connection points: 3
#     Node 16, Type 0, BuildingBlock: CUQRIR_clean_linker_1, # of connection points: 3
#     Node 17, Type 0, BuildingBlock: CUQRIR_clean_linker_1, # of connection points: 3
#     Node 18, Type 1, BuildingBlock: KUMBUR_clean_sbu_0, # of connection points: 6
#     Node 19, Type 1, BuildingBlock: KUMBUR_clean_sbu_0, # of connection points: 6
#     Node 20, Type 1, BuildingBlock: KUMBUR_clean_sbu_0, # of connection points: 6
#     Node 21, Type 1, BuildingBlock: KUMBUR_clean_sbu_0, # of connection points: 6
#     Node 22, Type 1, BuildingBlock: KUMBUR_clean_sbu_0, # of connection points: 6
#     Node 23, Type 1, BuildingBlock: KUMBUR_clean_sbu_0, # of connection points: 6
#     Node 24, Type 1, BuildingBlock: KUMBUR_clean_sbu_0, # of connection points: 6
#     Node 25, Type 1, BuildingBlock: KUMBUR_clean_sbu_0, # of connection points: 6
#     Node 26, Type 1, BuildingBlock: KUMBUR_clean_sbu_0, # of connection points: 6
#     Edge 27, Type (0, 1), BuildingBlock: XIVTED_clean_linker_0, # of connection points: 2
#     Edge 28, Type (0, 1), BuildingBlock: XIVTED_clean_linker_0, # of connection points: 2
#     Edge 29, Type (0, 1), BuildingBlock: XIVTED_clean_linker_0, # of connection points: 2
#     Edge 30, Type (0, 1), BuildingBlock: XIVTED_clean_linker_0, # of connection points: 2
#     Edge 31, Type (0, 1), BuildingBlock: XIVTED_clean_linker_0, # of connection points: 2
#     Edge 32, Type (0, 1), BuildingBlock: XIVTED_clean_linker_0, # of connection points: 2
#     Edge 33, Type (0, 1), BuildingBlock: XIVTED_clean_linker_0, # of connection points: 2
#     Edge 34, Type (0, 1), BuildingBlock: XIVTED_clean_linker_0, # of connection points: 2
#     Edge 35, Type (0, 1), BuildingBlock: XIVTED_clean_linker_0, # of connection points: 2
#     Edge 36, Type (0, 1), BuildingBlock: XIVTED_clean_linker_0, # of connection points: 2
#     Edge 37, Type (0, 1), BuildingBlock: XIVTED_clean_linker_0, # of connection points: 2
#     Edge 38, Type (0, 1), BuildingBlock: XIVTED_clean_linker_0, # of connection points: 2
#     Edge 39, Type (0, 1), BuildingBlock: XIVTED_clean_linker_0, # of connection points: 2
#     Edge 40, Type (0, 1), BuildingBlock: XIVTED_clean_linker_0, # of connection points: 2
#     Edge 41, Type (0, 1), BuildingBlock: XIVTED_clean_linker_0, # of connection points: 2
#     Edge 42, Type (0, 1), BuildingBlock: XIVTED_clean_linker_0, # of connection points: 2
#     Edge 43, Type (0, 1), BuildingBlock: XIVTED_clean_linker_0, # of connection points: 2
#     Edge 44, Type (0, 1), BuildingBlock: XIVTED_clean_linker_0, # of connection points: 2
#     Edge 45, Type (0, 1), BuildingBlock: XIVTED_clean_linker_0, # of connection points: 2
#     Edge 46, Type (0, 1), BuildingBlock: XIVTED_clean_linker_0, # of connection points: 2
#     Edge 47, Type (0, 1), BuildingBlock: XIVTED_clean_linker_0, # of connection points: 2
#     Edge 48, Type (0, 1), BuildingBlock: XIVTED_clean_linker_0, # of connection points: 2
#     Edge 49, Type (0, 1), BuildingBlock: XIVTED_clean_linker_0, # of connection points: 2
#     Edge 50, Type (0, 1), BuildingBlock: XIVTED_clean_linker_0, # of connection points: 2
#     Edge 51, Type (0, 1), BuildingBlock: XIVTED_clean_linker_0, # of connection points: 2
#     Edge 52, Type (0, 1), BuildingBlock: XIVTED_clean_linker_0, # of connection points: 2
#     Edge 53, Type (0, 1), BuildingBlock: XIVTED_clean_linker_0, # of connection points: 2
#     Edge 54, Type (0, 1), BuildingBlock: XIVTED_clean_linker_0, # of connection points: 2
#     Edge 55, Type (0, 1), BuildingBlock: XIVTED_clean_linker_0, # of connection points: 2
#     Edge 56, Type (0, 1), BuildingBlock: XIVTED_clean_linker_0, # of connection points: 2
#     Edge 57, Type (0, 1), BuildingBlock: XIVTED_clean_linker_0, # of connection points: 2
#     Edge 58, Type (0, 1), BuildingBlock: XIVTED_clean_linker_0, # of connection points: 2
#     Edge 59, Type (0, 1), BuildingBlock: XIVTED_clean_linker_0, # of connection points: 2
#     Edge 60, Type (0, 1), BuildingBlock: XIVTED_clean_linker_0, # of connection points: 2
#     Edge 61, Type (0, 1), BuildingBlock: XIVTED_clean_linker_0, # of connection points: 2
#     Edge 62, Type (0, 1), BuildingBlock: XIVTED_clean_linker_0, # of connection points: 2
#     Edge 63, Type (0, 1), BuildingBlock: XIVTED_clean_linker_0, # of connection points: 2
#     Edge 64, Type (0, 1), BuildingBlock: XIVTED_clean_linker_0, # of connection points: 2
#     Edge 65, Type (0, 1), BuildingBlock: XIVTED_clean_linker_0, # of connection points: 2
#     Edge 66, Type (0, 1), BuildingBlock: XIVTED_clean_linker_0, # of connection points: 2
#     Edge 67, Type (0, 1), BuildingBlock: XIVTED_clean_linker_0, # of connection points: 2
#     Edge 68, Type (0, 1), BuildingBlock: XIVTED_clean_linker_0, # of connection points: 2
#     Edge 69, Type (0, 1), BuildingBlock: XIVTED_clean_linker_0, # of connection points: 2
#     Edge 70, Type (0, 1), BuildingBlock: XIVTED_clean_linker_0, # of connection points: 2
#     Edge 71, Type (0, 1), BuildingBlock: XIVTED_clean_linker_0, # of connection points: 2
#     Edge 72, Type (0, 1), BuildingBlock: XIVTED_clean_linker_0, # of connection points: 2
#     Edge 73, Type (0, 1), BuildingBlock: XIVTED_clean_linker_0, # of connection points: 2
#     Edge 74, Type (0, 1), BuildingBlock: XIVTED_clean_linker_0, # of connection points: 2
#     Edge 75, Type (0, 1), BuildingBlock: XIVTED_clean_linker_0, # of connection points: 2
#     Edge 76, Type (0, 1), BuildingBlock: XIVTED_clean_linker_0, # of connection points: 2
#     Edge 77, Type (0, 1), BuildingBlock: XIVTED_clean_linker_0, # of connection points: 2
#     Edge 78, Type (0, 1), BuildingBlock: XIVTED_clean_linker_0, # of connection points: 2
#     Edge 79, Type (0, 1), BuildingBlock: XIVTED_clean_linker_0, # of connection points: 2
#     Edge 80, Type (0, 1), BuildingBlock: XIVTED_clean_linker_0, # of connection points: 2
# Relax obj value: 0.040
# Max RMSD: 0.206
# Mean RMSD: 0.147
data_MOF--net-eea--node1-KUMBUR_clean_sbu_0--node2-CUQRIR_clean_linker_1--edge1-XIVTED_clean_linker_0
_symmetry_space_group_name_H-M    P1
_symmetry_Int_Tables_number       1
_symmetry_cell_setting            triclinic
loop_
_symmetry_equiv_pos_as_xyz
'x, y, z'
_cell_length_a     47.998827
_cell_length_b     51.300668
_cell_length_c     63.631822
_cell_angle_alpha  83.136306
_cell_angle_beta   89.931099
_cell_angle_gamma 118.8796
loop_
_atom_site_label
_atom_site_type_symbol
_atom_site_fract_x
_atom_site_fract_y
_atom_site_fract_z
_atom_type_partial_charge
C0 C 0.21148 0.1044 0.41668 0.0
N1 N 0.22389 0.12851 0.42747 0.0
N2 N 0.2212 0.08445 0.42424 0.0
C3 C 0.19045 0.10056 0.39848 0.0
C4 C 0.24021 0.09736 0.43983 0.0
N5 N 0.24207 0.12417 0.44168 0.0
C6 C 0.25776 0.08428 0.45291 0.0
H7 H 0.16548 0.09122 0.40489 0.0
H8 H 0.1911 0.08482 0.38824 0.0
H9 H 0.19773 0.12255 0.38872 0.0
H10 H 0.28295 0.0955 0.44648 0.0
H11 H 0.24738 0.05982 0.45254 0.0
H12 H 0.25762 0.08852 0.4696 0.0
C13 C 0.90694 0.11807 0.41405 0.0
N14 N 0.91998 0.14067 0.42622 0.0
N15 N 0.87769 0.09632 0.42252 0.0
C16 C 0.9221 0.11773 0.39343 0.0
C17 C 0.87345 0.10659 0.44026 0.0
N18 N 0.89899 0.13343 0.44251 0.0
C19 C 0.8437 0.09095 0.45497 0.0
H20 H 0.91705 0.13112 0.38053 0.0
H21 H 0.91242 0.09448 0.38964 0.0
H22 H 0.9483 0.1279 0.39387 0.0
H23 H 0.84589 0.07476 0.46713 0.0
H24 H 0.82236 0.07835 0.44614 0.0
H25 H 0.8402 0.10706 0.46327 0.0
C26 C 0.92556 0.85362 0.41506 0.0
N27 N 0.93933 0.84225 0.42903 0.0
N28 N 0.89979 0.85263 0.42445 0.0
C29 C 0.93404 0.86101 0.39154 0.0
C30 C 0.89871 0.84058 0.44474 0.0
N31 N 0.92276 0.83417 0.44756 0.0
C32 C 0.87115 0.83043 0.46077 0.0
H33 H 0.92684 0.87747 0.38435 0.0
H34 H 0.92117 0.84015 0.38414 0.0
H35 H 0.96003 0.8702 0.38816 0.0
H36 H 0.85597 0.80568 0.46198 0.0
H37 H 0.85648 0.84128 0.45615 0.0
H38 H 0.88002 0.83586 0.47662 0.0
C39 C 0.0839 0.16706 0.64104 0.0
N40 N 0.10896 0.17767 0.62675 0.0
N41 N 0.05923 0.16858 0.63201 0.0
C42 C 0.08509 0.15955 0.66449 0.0
C43 C 0.07016 0.18025 0.61158 0.0
N44 N 0.10047 0.18575 0.60833 0.0
C45 C 0.05329 0.1911 0.59589 0.0
H46 H 0.10179 0.15055 0.66762 0.0
H47 H 0.06099 0.1429 0.67176 0.0
H48 H 0.09359 0.1803 0.67202 0.0
H49 H 0.06598 0.21604 0.59339 0.0
H50 H 0.02814 0.18271 0.60151 0.0
H51 H 0.05374 0.18341 0.58039 0.0
C52 C 0.79995 0.91222 0.63868 0.0
N53 N 0.78973 0.88917 0.62694 0.0
N54 N 0.78904 0.93142 0.63149 0.0
C55 C 0.8193 0.91535 0.65778 0.0
C56 C 0.77175 0.91915 0.61504 0.0
N57 N 0.77202 0.89348 0.61236 0.0
C58 C 0.75419 0.93208 0.60178 0.0
H59 H 0.80302 0.9011 0.67179 0.0
H60 H 0.83213 0.93897 0.66102 0.0
H61 H 0.83707 0.90784 0.65573 0.0
H62 H 0.77063 0.94834 0.58845 0.0
H63 H 0.74592 0.9441 0.61131 0.0
H64 H 0.73336 0.91449 0.59494 0.0
C65 C 0.11252 0.91682 0.64347 0.0
N66 N 0.10041 0.89334 0.63202 0.0
N67 N 0.14149 0.93894 0.63475 0.0
C68 C 0.09583 0.91817 0.66301 0.0
C69 C 0.14657 0.92794 0.61768 0.0
N70 N 0.12182 0.90035 0.61604 0.0
C71 C 0.17596 0.94424 0.60267 0.0
H72 H 0.07684 0.9236 0.65816 0.0
H73 H 0.1122 0.93565 0.67237 0.0
H74 H 0.0844 0.89599 0.67314 0.0
H75 H 0.18017 0.92857 0.59433 0.0
H76 H 0.19727 0.9576 0.6113 0.0
H77 H 0.17283 0.95992 0.59058 0.0
C78 C 0.88746 0.44146 0.74655 0.0
N79 N 0.89819 0.46454 0.75828 0.0
N80 N 0.89551 0.42052 0.75477 0.0
C81 C 0.87203 0.44082 0.7259 0.0
C82 C 0.91163 0.43179 0.77186 0.0
N83 N 0.91354 0.45858 0.77387 0.0
C84 C 0.92368 0.41576 0.78751 0.0
H85 H 0.84579 0.4295 0.72913 0.0
H86 H 0.87763 0.4282 0.71516 0.0
H87 H 0.88016 0.46392 0.71777 0.0
H88 H 0.94868 0.42256 0.78253 0.0
H89 H 0.90905 0.39103 0.78818 0.0
H90 H 0.92331 0.42186 0.80362 0.0
C91 C 0.57548 0.45328 0.74849 0.0
N92 N 0.58861 0.47582 0.76072 0.0
N93 N 0.54588 0.43189 0.75666 0.0
C94 C 0.59112 0.4524 0.72828 0.0
C95 C 0.54153 0.44231 0.77429 0.0
N96 N 0.56735 0.46887 0.77678 0.0
C97 C 0.5116 0.4269 0.78882 0.0
H98 H 0.58537 0.46455 0.71489 0.0
H99 H 0.58216 0.4289 0.72524 0.0
H100 H 0.61739 0.46352 0.72873 0.0
H101 H 0.51368 0.41096 0.80127 0.0
H102 H 0.49039 0.41409 0.77995 0.0
H103 H 0.50797 0.44321 0.79678 0.0
C104 C 0.59424 0.18835 0.7471 0.0
N105 N 0.60794 0.17703 0.76114 0.0
N106 N 0.56886 0.18802 0.75651 0.0
C107 C 0.60249 0.19531 0.72356 0.0
C108 C 0.56787 0.17629 0.77689 0.0
N109 N 0.59173 0.16962 0.77975 0.0
C110 C 0.54036 0.16642 0.7929 0.0
H111 H 0.62849 0.20461 0.72013 0.0
H112 H 0.59504 0.21151 0.71621 0.0
H113 H 0.58972 0.17423 0.71639 0.0
H114 H 0.52507 0.14168 0.7942 0.0
H115 H 0.52581 0.17736 0.78819 0.0
H116 H 0.54928 0.17195 0.80872 0.0
C117 C 0.7507 0.5094 0.96958 0.0
N118 N 0.77695 0.522 0.956 0.0
N119 N 0.72844 0.51609 0.96168 0.0
C120 C 0.74931 0.49562 0.99208 0.0
C121 C 0.74205 0.53307 0.94281 0.0
N122 N 0.77163 0.53692 0.93942 0.0
C123 C 0.72738 0.54808 0.92863 0.0
H124 H 0.72495 0.48497 0.99988 0.0
H125 H 0.76596 0.51336 1.00124 0.0
H126 H 0.75711 0.47846 0.99235 0.0
H127 H 0.73449 0.57053 0.93324 0.0
H128 H 0.70097 0.53461 0.93037 0.0
H129 H 0.73582 0.55111 0.91181 0.0
C130 C 0.45899 0.24298 0.97354 0.0
N131 N 0.45082 0.22113 0.96093 0.0
N132 N 0.44973 0.26314 0.96562 0.0
C133 C 0.47294 0.24289 0.99471 0.0
C134 C 0.43551 0.25266 0.94779 0.0
N135 N 0.43596 0.22711 0.94501 0.0
C136 C 0.42223 0.26795 0.93253 0.0
H137 H 0.46516 0.25372 1.00571 0.0
H138 H 0.49933 0.25562 0.99241 0.0
H139 H 0.46573 0.21962 1.00209 0.0
H140 H 0.43479 0.29257 0.93289 0.0
H141 H 0.39656 0.25884 0.93708 0.0
H142 H 0.42434 0.26355 0.91611 0.0
C143 C 0.77842 0.24906 0.97791 0.0
N144 N 0.76519 0.22648 0.96579 0.0
N145 N 0.8051 0.27286 0.96772 0.0
C146 C 0.76483 0.24806 0.99946 0.0
C147 C 0.80748 0.26377 0.94895 0.0
N148 N 0.78317 0.23577 0.94769 0.0
C149 C 0.83514 0.28112 0.93262 0.0
H150 H 0.73853 0.23365 1.00087 0.0
H151 H 0.77102 0.27098 1.00265 0.0
H152 H 0.77498 0.23833 0.01164 0.0
H153 H 0.85717 0.29594 0.94006 0.0
H154 H 0.82942 0.29527 0.9208 0.0
H155 H 0.83969 0.26571 0.92415 0.0
C156 C 0.55039 0.77419 0.07903 0.0
N157 N 0.55881 0.79613 0.0916 0.0
N158 N 0.55181 0.75023 0.08942 0.0
C159 C 0.54106 0.77623 0.05656 0.0
C160 C 0.56105 0.75821 0.10882 0.0
N161 N 0.56496 0.78593 0.11024 0.0
C162 C 0.56664 0.73917 0.1264 0.0
H163 H 0.52768 0.78887 0.05468 0.0
H164 H 0.52634 0.75377 0.05165 0.0
H165 H 0.56298 0.78835 0.04576 0.0
H166 H 0.56648 0.71935 0.12105 0.0
H167 H 0.5475 0.73095 0.13923 0.0
H168 H 0.58972 0.75292 0.1332 0.0
C169 C 0.24022 0.7859 0.08033 0.0
N170 N 0.25406 0.80812 0.09275 0.0
N171 N 0.21036 0.76506 0.08841 0.0
C172 C 0.25477 0.78595 0.05936 0.0
C173 C 0.20665 0.77546 0.10623 0.0
N174 N 0.23294 0.80161 0.1088 0.0
C175 C 0.1779 0.75939 0.1218 0.0
H176 H 0.23605 0.77423 0.04844 0.0
H177 H 0.26885 0.77407 0.06205 0.0
H178 H 0.27099 0.80924 0.05174 0.0
H179 H 0.16584 0.73476 0.12151 0.0
H180 H 0.16084 0.76764 0.11753 0.0
H181 H 0.18472 0.764 0.13816 0.0
C182 C 0.25158 0.512 0.08407 0.0
N183 N 0.26388 0.49791 0.09709 0.0
N184 N 0.22294 0.50634 0.09233 0.0
C185 C 0.26481 0.52669 0.06175 0.0
C186 C 0.21844 0.48848 0.11085 0.0
N187 N 0.24313 0.48307 0.11368 0.0
C188 C 0.1883 0.47381 0.1251 0.0
H189 H 0.25108 0.53693 0.05398 0.0
H190 H 0.26436 0.50966 0.0523 0.0
H191 H 0.29002 0.54438 0.06192 0.0
H192 H 0.17182 0.45154 0.12037 0.0
H193 H 0.17628 0.48772 0.12365 0.0
H194 H 0.19357 0.47033 0.14186 0.0
C195 C 0.41932 0.84045 0.30825 0.0
N196 N 0.44433 0.85056 0.29399 0.0
N197 N 0.39514 0.84285 0.29919 0.0
C198 C 0.42021 0.8325 0.33168 0.0
C199 C 0.40633 0.85465 0.27882 0.0
N200 N 0.4363 0.85927 0.27561 0.0
C201 C 0.38996 0.86599 0.26306 0.0
H202 H 0.43648 0.823 0.33478 0.0
H203 H 0.39597 0.81612 0.33886 0.0
H204 H 0.42909 0.85317 0.33935 0.0
H205 H 0.40302 0.89094 0.26068 0.0
H206 H 0.36482 0.85792 0.26855 0.0
H207 H 0.39044 0.8584 0.24753 0.0
C208 C 0.13245 0.57956 0.30369 0.0
N209 N 0.12168 0.55649 0.29199 0.0
N210 N 0.12536 0.60101 0.29511 0.0
C211 C 0.1521 0.58224 0.32255 0.0
C212 C 0.11012 0.59021 0.27761 0.0
N213 N 0.10821 0.5634 0.2756 0.0
C214 C 0.09516 0.60481 0.26324 0.0
H215 H 0.13601 0.57156 0.33718 0.0
H216 H 0.16847 0.60616 0.32409 0.0
H217 H 0.16627 0.57061 0.32112 0.0
H218 H 0.11347 0.62147 0.25092 0.0
H219 H 0.08611 0.61667 0.27231 0.0
H220 H 0.07524 0.58819 0.25511 0.0
C221 C 0.44475 0.57986 0.31199 0.0
N222 N 0.4319 0.557 0.30007 0.0
N223 N 0.47252 0.60289 0.3024 0.0
C224 C 0.43019 0.57977 0.33295 0.0
C225 C 0.47596 0.59311 0.2842 0.0
N226 N 0.45134 0.56539 0.28273 0.0
C227 C 0.50447 0.60975 0.26847 0.0
H228 H 0.43679 0.60298 0.33562 0.0
H229 H 0.43933 0.56996 0.34581 0.0
H230 H 0.40386 0.56594 0.33388 0.0
H231 H 0.52615 0.62428 0.27633 0.0
H232 H 0.49979 0.62413 0.25615 0.0
H233 H 0.50891 0.59388 0.26051 0.0
Tb234 Tb 0.4998 0.99729 1.00348 0.0
C235 C 0.56371 0.0989 0.05759 0.0
C236 C 0.6198 0.11388 0.05438 0.0
C237 C 0.60331 0.1505 0.06038 0.0
C238 C 0.58751 0.09189 0.05425 0.0
C239 C 0.5712 0.12811 0.06111 0.0
C240 C 0.62759 0.14339 0.05701 0.0
C241 C 0.51481 0.11016 0.06747 0.0
N242 N 0.53308 0.07657 0.05834 0.0
C243 C 0.50864 0.08149 0.064 0.0
C244 C 0.54622 0.13368 0.06579 0.0
Tb245 Tb 0.52527 0.0307 0.05158 0.0
N246 N 0.57892 0.06311 0.05187 0.0
C247 C 0.60162 0.05431 0.0512 0.0
C248 C 0.64319 0.10533 0.05245 0.0
C249 C 0.63401 0.0753 0.05119 0.0
H250 H 0.48427 0.06351 0.06519 0.0
H251 H 0.65187 0.06831 0.05009 0.0
H252 H 0.65226 0.16069 0.05695 0.0
H253 H 0.49535 0.1141 0.07144 0.0
H254 H 0.5951 0.03129 0.05003 0.0
H255 H 0.37228 0.95596 0.00953 0.0
H256 H 0.66827 0.12154 0.0524 0.0
H257 H 0.54059 0.96846 0.98316 0.0
H258 H 0.4287 0.99416 1.00811 0.0
H259 H 0.53053 0.91941 0.97406 0.0
H260 H 0.6096 0.17318 0.06287 0.0
H261 H 0.35707 0.9034 1.00574 0.0
H262 H 0.37422 0.866 0.99817 0.0
H263 H 0.55095 0.15584 0.06858 0.0
H264 H 0.41749 0.85596 0.98843 0.0
N265 N 0.44614 0.96367 1.0043 0.0
C266 C 0.4228 0.97146 1.00639 0.0
C267 C 0.38206 0.92013 1.00514 0.0
C268 C 0.40593 0.91271 1.0015 0.0
C269 C 0.39055 0.94977 1.00722 0.0
C270 C 0.43807 0.93534 1.00099 0.0
H271 H 0.47593 0.87593 0.97899 0.0
N272 N 0.49244 0.95275 0.99407 0.0
C273 C 0.51108 0.9219 0.98028 0.0
C274 C 0.46217 0.92966 0.99564 0.0
C275 C 0.51668 0.9497 0.98548 0.0
C276 C 0.48026 0.8974 0.98314 0.0
C277 C 0.45518 0.90125 0.99049 0.0
O278 O 0.52586 0.01475 0.97391 0.0
O279 O 0.53643 0.03256 0.01869 0.0
O280 O 0.52035 0.06318 0.02849 0.0
O281 O 0.48374 0.0304 1.0074 0.0
O282 O 0.55139 0.01501 0.99721 0.0
O283 O 0.47923 1.01051 0.97814 0.0
O284 O 0.50237 0.02049 0.08193 0.0
O285 O 0.48876 0.99487 0.03677 0.0
O286 O 0.50899 0.96544 0.02404 0.0
O287 O 0.5393 0.99573 0.04925 0.0
O288 O 0.47382 0.01288 0.05798 0.0
O289 O 0.54299 0.01389 0.07673 0.0
C290 C 0.56124 0.03512 0.00975 0.0
C291 C 0.49599 1.0072 0.94402 0.0
C292 C 0.50862 0.01887 0.90577 0.0
C293 C 0.51475 0.02692 0.92629 0.0
C294 C 0.48381 0.98999 0.90343 0.0
C295 C 0.47138 0.97851 0.94151 0.0
C296 C 0.46548 0.96994 0.92124 0.0
C297 C 0.4987 0.05697 0.01424 0.0
C298 C 0.50317 0.01762 0.96478 0.0
C299 C 0.42336 0.87807 0.99208 0.0
C300 C 0.39874 0.88379 0.99761 0.0
C301 C 0.464 0.99207 0.04604 0.0
C302 C 0.53379 0.02281 0.11086 0.0
C303 C 0.52746 1.00111 0.12839 0.0
C304 C 0.53549 1.00932 0.14874 0.0
C305 C 0.55152 0.04011 0.15096 0.0
C306 C 0.54975 0.05333 0.11327 0.0
C307 C 0.55881 0.0619 0.13327 0.0
C308 C 0.52795 0.97095 0.03998 0.0
C309 C 0.52211 0.01241 0.09059 0.0
H310 H 0.53424 0.0487 0.92861 0.0
H311 H 0.47807 0.98309 0.88787 0.0
H312 H 0.45677 0.96291 0.9551 0.0
H313 H 0.44638 0.94784 0.91928 0.0
H314 H 0.51581 0.97765 0.12607 0.0
H315 H 0.55772 0.04741 0.16637 0.0
H316 H 0.55487 0.07039 0.09985 0.0
H317 H 0.57095 0.08548 0.13516 0.0
Tb318 Tb 0.02573 0.5354 0.99883 0.0
C319 C 0.90893 0.47476 0.06201 0.0
C320 C 0.88825 0.50948 0.05697 0.0
C321 C 0.85203 0.45625 0.06769 0.0
C322 C 0.91397 0.5035 0.05652 0.0
C323 C 0.87811 0.4509 0.06846 0.0
C324 C 0.85709 0.48554 0.06189 0.0
C325 C 0.90191 0.41959 0.07874 0.0
N326 N 0.93484 0.47079 0.06286 0.0
C327 C 0.93201 0.4441 0.07222 0.0
C328 C 0.87475 0.42282 0.07644 0.0
Tb329 Tb 0.98308 0.51173 0.05115 0.0
N330 N 0.94448 0.5259 0.05241 0.0
C331 C 0.95114 0.55524 0.05052 0.0
C332 C 0.8948 0.53939 0.05338 0.0
C333 C 0.92644 0.56239 0.05057 0.0
H334 H 0.9529 0.44143 0.07401 0.0
H335 H 0.93186 0.58565 0.04838 0.0
H336 H 0.83694 0.4896 0.06207 0.0
H337 H 0.8997 0.39824 0.08552 0.0
H338 H 0.97541 0.57333 0.04824 0.0
H339 H 0.06892 0.45613 0.99493 0.0
H340 H 0.87573 0.54498 0.05352 0.0
H341 H 0.06124 0.60888 0.98337 0.0
H342 H 0.02811 0.47152 0.99817 0.0
H343 H 0.11613 0.65059 0.97421 0.0
H344 H 0.82806 0.43815 0.0723 0.0
H345 H 0.12603 0.4944 0.99002 0.0
H346 H 0.16773 0.54907 0.9844 0.0
H347 H 0.85149 0.40388 0.08162 0.0
H348 H 0.18067 0.60219 0.97878 0.0
N349 N 0.06154 0.51834 0.99545 0.0
C350 C 0.05281 0.48864 0.99588 0.0
C351 C 0.10817 0.50137 0.99138 0.0
C352 C 0.11685 0.53181 0.98979 0.0
C353 C 0.07596 0.47973 0.99407 0.0
C354 C 0.09264 0.53962 0.99172 0.0
H355 H 0.16149 0.64029 0.9746 0.0
N356 N 0.07559 0.57553 0.98963 0.0
C357 C 0.11194 0.62785 0.97841 0.0
C358 C 0.09996 0.56933 0.98874 0.0
C359 C 0.0809 0.60419 0.98354 0.0
C360 C 0.13749 0.62196 0.9787 0.0
C361 C 0.13162 0.59232 0.98351 0.0
O362 O 0.01613 0.55456 0.97058 0.0
O363 O 0.98506 0.5278 0.018 0.0
O364 O 0.95481 0.475 0.03296 0.0
O365 O 0.98887 0.48706 1.00243 0.0
O366 O 0.00529 0.56549 0.99625 0.0
O367 O 0.01557 0.51216 0.97223 0.0
O368 O 0.99948 0.49913 0.0792 0.0
O369 O 0.02283 0.51835 0.03156 0.0
O370 O 0.05558 0.56757 0.01966 0.0
O371 O 0.01774 0.56071 0.04596 0.0
O372 O 0.00478 0.48247 0.05474 0.0
O373 O 0.98964 0.53584 0.07704 0.0
C374 C 0.98153 0.54953 0.00993 0.0
C375 C 0.02973 0.5427 0.93882 0.0
C376 C 0.02778 0.54305 0.90031 0.0
C377 C 0.01228 0.53332 0.92086 0.0
C378 C 0.06095 0.56264 0.89815 0.0
C379 C 0.0628 0.56173 0.93617 0.0
C380 C 0.07824 0.57172 0.91595 0.0
C381 C 0.96274 0.46858 0.01503 0.0
C382 C 0.01302 0.53313 0.96008 0.0
C383 C 0.15611 0.58484 0.98254 0.0
C384 C 0.14873 0.55461 0.98572 0.0
C385 C 0.02682 0.49698 0.03971 0.0
C386 C 0.98192 0.50751 0.1109 0.0
C387 C 1.00032 0.51202 0.12871 0.0
C388 C 0.98556 0.49975 0.14941 0.0
C389 C 0.95202 0.48248 0.1517 0.0
C390 C 0.9486 0.49124 0.11384 0.0
C391 C 0.9338 0.47859 0.13409 0.0
C392 C 0.04654 0.57642 0.03584 0.0
C393 C 0.99778 0.51885 0.08936 0.0
H394 H 0.98679 0.51819 0.92297 0.0
H395 H 0.07362 0.57119 0.88265 0.0
H396 H 0.07672 0.56912 0.94962 0.0
H397 H 0.10375 0.58668 0.91406 0.0
H398 H 0.02602 0.52536 0.12632 0.0
H399 H 0.93963 0.47172 0.1671 0.0
H400 H 0.93398 0.48811 0.10052 0.0
H401 H 0.90806 0.46558 0.13616 0.0
Tb402 Tb 0.5032 0.49162 0.05745 0.0
C403 C 0.4532 0.5526 0.99164 0.0
C404 C 0.39657 0.51801 0.99347 0.0
C405 C 0.4162 0.57164 0.98415 0.0
C406 C 0.42818 0.5237 0.99556 0.0
C407 C 0.44769 0.5769 0.98535 0.0
C408 C 0.39065 0.54222 0.98824 0.0
C409 C 0.50476 0.6091 0.97998 0.0
N410 N 0.48318 0.55661 0.99285 0.0
C411 C 0.50896 0.5842 0.9862 0.0
C412 C 0.474 0.60553 0.97984 0.0
Tb413 Tb 0.48765 0.51469 1.0041 0.0
N414 N 0.43502 0.50101 1.00028 0.0
C415 C 0.41132 0.47179 1.00157 0.0
C416 C 0.37203 0.48816 0.99607 0.0
C417 C 0.37951 0.46495 0.99981 0.0
H418 H 0.53281 0.58718 0.98633 0.0
H419 H 0.36079 0.44176 1.00141 0.0
H420 H 0.36651 0.53835 0.98675 0.0
H421 H 0.52524 0.63102 0.97529 0.0
H422 H 0.41658 0.45355 1.00457 0.0
H423 H 0.62934 0.56659 0.06203 0.0
H424 H 0.3474 0.48281 0.99466 0.0
H425 H 0.45928 0.41896 0.07493 0.0
H426 H 0.57356 0.55369 0.05774 0.0
H427 H 0.46782 0.37582 0.08636 0.0
H428 H 0.4114 0.59004 0.97955 0.0
H429 H 0.6439 0.52642 0.06944 0.0
H430 H 0.62598 0.47112 0.07738 0.0
H431 H 0.47081 0.62483 0.97492 0.0
H432 H 0.58187 0.41899 0.08408 0.0
N433 N 0.55598 0.50631 0.06217 0.0
C434 C 0.57916 0.53573 0.06109 0.0
C435 C 0.6192 0.52053 0.06758 0.0
C436 C 0.5952 0.49049 0.06994 0.0
C437 C 0.61105 0.54325 0.06347 0.0
C438 C 0.56347 0.48413 0.06729 0.0
H439 H 0.52267 0.38322 0.0878 0.0
N440 N 0.50882 0.45047 0.06935 0.0
C441 C 0.48807 0.39799 0.08199 0.0
C442 C 0.53893 0.45506 0.07101 0.0
C443 C 0.48333 0.42253 0.07557 0.0
C444 C 0.51905 0.40223 0.08272 0.0
C445 C 0.54499 0.43115 0.07755 0.0
O446 O 0.47354 0.47528 0.08573 0.0
O447 O 0.47103 0.4982 0.03691 0.0
O448 O 0.49168 0.54836 0.02362 0.0
O449 O 0.51978 0.54061 0.05151 0.0
O450 O 0.45154 0.46187 0.05963 0.0
O451 O 0.51591 0.51842 0.0821 0.0
O452 O 0.51866 0.52911 0.97663 0.0
O453 O 0.51932 0.50752 0.0247 0.0
O454 O 0.49919 0.45802 0.03783 0.0
O455 O 0.47123 0.46576 0.00977 0.0
O456 O 0.53967 0.54358 1.00175 0.0
O457 O 0.47198 0.4909 0.97777 0.0
C458 C 0.44474 0.47665 0.04473 0.0
C459 C 0.49927 0.49219 0.11681 0.0
C460 C 0.49274 0.49276 0.15497 0.0
C461 C 0.48564 0.49828 0.1339 0.0
C462 C 0.51371 0.48096 0.15847 0.0
C463 C 0.51997 0.4804 0.12081 0.0
C464 C 0.52707 0.47478 0.14153 0.0
C465 C 0.50883 0.55691 0.04025 0.0
C466 C 0.49194 0.49849 0.09492 0.0
C467 C 0.57663 0.43707 0.07928 0.0
C468 C 0.60173 0.46673 0.07547 0.0
C469 C 0.54581 0.52858 0.01692 0.0
C470 C 0.49469 0.51999 0.94412 0.0
C471 C 0.50763 0.51411 0.92645 0.0
C472 C 0.50605 0.52626 0.90554 0.0
C473 C 0.49189 0.54488 0.90297 0.0
C474 C 0.47982 0.5377 0.94078 0.0
C475 C 0.47866 0.55021 0.92038 0.0
C476 C 0.48221 0.4495 0.02109 0.0
C477 C 0.49809 0.50889 0.966 0.0
H478 H 0.46941 0.50714 0.13073 0.0
H479 H 0.5204 0.47703 0.1743 0.0
H480 H 0.5308 0.47572 0.10794 0.0
H481 H 0.54325 0.46585 0.14447 0.0
H482 H 0.51858 0.49993 0.92906 0.0
H483 H 0.49114 0.55567 0.88745 0.0
H484 H 0.46936 0.54215 0.95393 0.0
H485 H 0.46762 0.56432 0.91804 0.0
Tb486 Tb 0.16482 0.32785 0.33647 0.0
C487 C 0.22917 0.43073 0.39076 0.0
C488 C 0.28512 0.44631 0.38548 0.0
C489 C 0.26884 0.48239 0.39335 0.0
C490 C 0.25277 0.42416 0.38605 0.0
C491 C 0.2368 0.45964 0.39515 0.0
C492 C 0.29301 0.47573 0.38849 0.0
C493 C 0.18112 0.44028 0.40531 0.0
N494 N 0.19874 0.40796 0.39271 0.0
C495 C 0.17489 0.41196 0.40088 0.0
C496 C 0.21215 0.46439 0.40207 0.0
Tb497 Tb 0.19008 0.36252 0.38423 0.0
N498 N 0.24399 0.39539 0.38358 0.0
C499 C 0.26676 0.38672 0.38242 0.0
C500 C 0.30847 0.43793 0.38275 0.0
C501 C 0.29921 0.40786 0.38165 0.0
H502 H 0.15079 0.39352 0.40338 0.0
H503 H 0.31705 0.40094 0.38008 0.0
H504 H 0.31771 0.49317 0.38783 0.0
H505 H 0.16198 0.44348 0.4112 0.0
H506 H 0.2603 0.3637 0.38137 0.0
H507 H 0.03831 0.29076 0.3382 0.0
H508 H 0.3336 0.45425 0.38215 0.0
H509 H 0.20524 0.29393 0.32405 0.0
H510 H 0.09525 0.3279 0.33721 0.0
H511 H 0.19364 0.24252 0.31962 0.0
H512 H 0.27523 0.50487 0.3964 0.0
H513 H 0.02156 0.23702 0.3379 0.0
H514 H 0.03716 0.19717 0.33516 0.0
H515 H 0.21698 0.48626 0.40564 0.0
H516 H 0.07948 0.18397 0.33008 0.0
N517 N 0.11109 0.29561 0.33679 0.0
C518 C 0.08852 0.30462 0.33696 0.0
C519 C 0.0467 0.25326 0.33743 0.0
C520 C 0.06994 0.2444 0.33609 0.0
C521 C 0.05607 0.28358 0.33755 0.0
C522 C 0.1023 0.26642 0.33564 0.0
H523 H 0.13797 0.20084 0.32398 0.0
N524 N 0.15671 0.28125 0.33152 0.0
C525 C 0.17439 0.24681 0.32347 0.0
C526 C 0.12595 0.25895 0.33287 0.0
C527 C 0.18087 0.27591 0.32592 0.0
C528 C 0.14294 0.22332 0.32598 0.0
C529 C 0.11817 0.22933 0.33038 0.0
O530 O 0.1912 0.33985 0.30727 0.0
O531 O 0.20084 0.36437 0.35109 0.0
O532 O 0.18022 0.39359 0.36293 0.0
O533 O 0.15133 0.36336 0.33721 0.0
O534 O 0.21651 0.34551 0.33099 0.0
O535 O 0.14554 0.33837 0.30912 0.0
O536 O 0.16628 0.34923 0.41454 0.0
O537 O 0.15318 0.32757 0.36911 0.0
O538 O 0.1684 0.29552 0.36019 0.0
O539 O 0.20515 0.32829 0.38116 0.0
O540 O 0.13868 0.34529 0.39067 0.0
O541 O 0.20831 0.34532 0.40884 0.0
C542 C 0.22579 0.3669 0.34244 0.0
C543 C 0.16165 0.32794 0.27732 0.0
C544 C 0.1728 0.33204 0.23926 0.0
C545 C 0.17747 0.34527 0.25801 0.0
C546 C 0.15194 0.30094 0.24028 0.0
C547 C 0.1405 0.29716 0.27793 0.0
C548 C 0.1358 0.28373 0.25948 0.0
C549 C 0.16186 0.388 0.34658 0.0
C550 C 0.16927 0.34236 0.29666 0.0
C551 C 0.08599 0.20697 0.33175 0.0
C552 C 0.0619 0.21448 0.33463 0.0
C553 C 0.12846 0.32525 0.37809 0.0
C554 C 0.19757 0.3515 0.44343 0.0
C555 C 0.19006 0.32928 0.4608 0.0
C556 C 0.19767 0.33688 0.48133 0.0
C557 C 0.21428 0.36751 0.48394 0.0
C558 C 0.21418 0.38187 0.44622 0.0
C559 C 0.22267 0.38979 0.46644 0.0
C560 C 0.18949 0.30145 0.37472 0.0
C561 C 0.18666 0.34187 0.42286 0.0
H562 H 0.19316 0.36919 0.25767 0.0
H563 H 0.14811 0.28985 0.22627 0.0
H564 H 0.12778 0.2835 0.29257 0.0
H565 H 0.11968 0.25988 0.26008 0.0
H566 H 0.17795 0.30594 0.4582 0.0
H567 H 0.22018 0.37433 0.49951 0.0
H568 H 0.22033 0.39932 0.43291 0.0
H569 H 0.23531 0.41326 0.46862 0.0
Tb570 Tb 0.69277 0.86479 0.33337 0.0
C571 C 0.57762 0.80619 0.39679 0.0
C572 C 0.55927 0.84272 0.39272 0.0
C573 C 0.52115 0.78971 0.40234 0.0
C574 C 0.58405 0.83548 0.39197 0.0
C575 C 0.54632 0.78304 0.4029 0.0
C576 C 0.52761 0.81955 0.39719 0.0
C577 C 0.56792 0.74977 0.41276 0.0
N578 N 0.60269 0.80092 0.39752 0.0
C579 C 0.59857 0.77361 0.40662 0.0
C580 C 0.54158 0.75433 0.41045 0.0
Tb581 Tb 0.65187 0.84093 0.38645 0.0
N582 N 0.61499 0.8571 0.38832 0.0
C583 C 0.623 0.88674 0.38715 0.0
C584 C 0.56721 0.87303 0.38994 0.0
C585 C 0.59927 0.89513 0.3876 0.0
H586 H 0.61888 0.76999 0.40835 0.0
H587 H 0.60575 0.91865 0.38602 0.0
H588 H 0.50816 0.8246 0.39757 0.0
H589 H 0.56465 0.72791 0.41925 0.0
H590 H 0.64762 0.90414 0.38516 0.0
H591 H 0.73437 0.78384 0.33157 0.0
H592 H 0.5489 0.87958 0.39036 0.0
H593 H 0.72744 0.9362 0.31272 0.0
H594 H 0.69429 0.80004 0.3345 0.0
H595 H 0.78169 0.97694 0.30039 0.0
H596 H 0.49681 0.77219 0.40668 0.0
H597 H 0.7915 0.82152 0.32488 0.0
H598 H 0.83343 0.87593 0.31658 0.0
H599 H 0.5179 0.7359 0.41536 0.0
H600 H 0.84648 0.9289 0.30807 0.0
N601 N 0.72808 0.84692 0.33003 0.0
C602 C 0.71895 0.81699 0.33144 0.0
C603 C 0.77394 0.82887 0.32615 0.0
C604 C 0.78294 0.85942 0.32331 0.0
C605 C 0.74171 0.80756 0.32983 0.0
C606 C 0.7591 0.86773 0.32519 0.0
H607 H 0.82715 0.96678 0.30148 0.0
N608 N 0.74223 0.9036 0.3213 0.0
C609 C 0.77781 0.95467 0.30623 0.0
C610 C 0.76648 0.89728 0.32071 0.0
C611 C 0.74711 0.93152 0.31315 0.0
C612 C 0.80343 0.94888 0.30695 0.0
C613 C 0.79783 0.91971 0.31381 0.0
O614 O 0.68148 0.88265 0.30514 0.0
O615 O 0.65318 0.85749 0.35354 0.0
O616 O 0.62299 0.80445 0.36825 0.0
O617 O 0.65624 0.81648 0.33741 0.0
O618 O 0.67249 0.89493 0.33152 0.0
O619 O 0.67843 0.83918 0.3081 0.0
O620 O 0.66581 0.82545 0.41452 0.0
O621 O 0.69153 0.84869 0.36623 0.0
O622 O 0.72239 0.90056 0.35211 0.0
O623 O 0.68823 0.88924 0.38238 0.0
O624 O 0.67412 0.81222 0.38907 0.0
O625 O 0.6599 0.86447 0.41279 0.0
C626 C 0.64951 0.87927 0.34579 0.0
C627 C 0.69011 0.86649 0.27377 0.0
C628 C 0.68318 0.86541 0.23569 0.0
C629 C 0.67029 0.86001 0.25671 0.0
C630 C 0.71641 0.8778 0.23214 0.0
C631 C 0.72306 0.87867 0.26981 0.0
C632 C 0.73611 0.88443 0.24908 0.0
C633 C 0.63044 0.79802 0.35021 0.0
C634 C 0.67584 0.85976 0.29555 0.0
C635 C 0.82213 0.91195 0.31306 0.0
C636 C 0.81469 0.8818 0.31786 0.0
C637 C 0.69619 0.82764 0.37416 0.0
C638 C 0.6497 0.8349 0.44639 0.0
C639 C 0.66763 0.83986 0.46447 0.0
C640 C 0.65229 0.82828 0.48507 0.0
C641 C 0.61873 0.81105 0.487 0.0
C642 C 0.61635 0.81885 0.44899 0.0
C643 C 0.60102 0.80672 0.46914 0.0
C644 C 0.7148 0.90717 0.3701 0.0
C645 C 0.666 0.84581 0.42495 0.0
H646 H 0.64484 0.85077 0.25989 0.0
H647 H 0.72722 0.88172 0.21633 0.0
H648 H 0.73866 0.8835 0.28269 0.0
H649 H 0.76158 0.89371 0.24615 0.0
H650 H 0.69337 0.85309 0.46238 0.0
H651 H 0.60593 0.80076 0.50234 0.0
H652 H 0.60208 0.81553 0.4355 0.0
H653 H 0.57525 0.79385 0.47093 0.0
Tb654 Tb 0.16921 0.82368 0.39084 0.0
C655 C 0.1259 0.88989 0.32452 0.0
C656 C 0.0693 0.8556 0.32581 0.0
C657 C 0.08928 0.90934 0.3169 0.0
C658 C 0.10079 0.8611 0.32816 0.0
C659 C 0.12068 0.91432 0.31802 0.0
C660 C 0.06357 0.87997 0.32085 0.0
C661 C 0.17768 0.94564 0.31129 0.0
N662 N 0.15574 0.89352 0.32542 0.0
C663 C 0.18152 0.92058 0.31775 0.0
C664 C 0.14715 0.94264 0.31185 0.0
Tb665 Tb 0.16003 0.85162 0.33695 0.0
N666 N 0.10757 0.83832 0.33236 0.0
C667 C 0.08396 0.80922 0.33259 0.0
C668 C 0.04476 0.82581 0.3276 0.0
C669 C 0.05222 0.80253 0.33059 0.0
H670 H 0.20518 0.92303 0.31736 0.0
H671 H 0.03354 0.77941 0.33143 0.0
H672 H 0.03951 0.87627 0.31923 0.0
H673 H 0.19825 0.96723 0.30589 0.0
H674 H 0.08919 0.79091 0.335 0.0
H675 H 0.29471 0.89524 0.39996 0.0
H676 H 0.0202 0.82058 0.32595 0.0
H677 H 0.12242 0.75116 0.40691 0.0
H678 H 0.23983 0.88416 0.39355 0.0
H679 H 0.12843 0.70693 0.41986 0.0
H680 H 0.08468 0.92784 0.31222 0.0
H681 H 0.30717 0.85375 0.40802 0.0
H682 H 0.28725 0.79805 0.41557 0.0
H683 H 0.1442 0.96202 0.3067 0.0
H684 H 0.24181 0.74655 0.42107 0.0
N685 N 0.22105 0.83665 0.39717 0.0
C686 C 0.24467 0.86571 0.39706 0.0
C687 C 0.28294 0.8487 0.40515 0.0
C688 C 0.25831 0.81897 0.40662 0.0
C689 C 0.27598 0.87216 0.40067 0.0
C690 C 0.22726 0.81369 0.40262 0.0
H691 H 0.18231 0.71238 0.42321 0.0
N692 N 0.17243 0.78125 0.40244 0.0
C693 C 0.14935 0.72869 0.41567 0.0
C694 C 0.20198 0.78488 0.40538 0.0
C695 C 0.14603 0.75381 0.40832 0.0
C696 C 0.1798 0.73184 0.41748 0.0
C697 C 0.20661 0.7603 0.41266 0.0
O698 O 0.13636 0.80711 0.41754 0.0
O699 O 0.14044 0.83386 0.36919 0.0
O700 O 0.16765 0.8869 0.35602 0.0
O701 O 0.18572 0.87258 0.38738 0.0
O702 O 0.11771 0.79555 0.39017 0.0
O703 O 0.18165 0.84684 0.41755 0.0
O704 O 0.19252 0.86704 0.31009 0.0
O705 O 0.18885 0.8419 0.35877 0.0
O706 O 0.16565 0.79055 0.37075 0.0
O707 O 0.14358 0.80277 0.34082 0.0
O708 O 0.21192 0.87908 0.33681 0.0
O709 O 0.14615 0.8289 0.31007 0.0
C710 C 0.11322 0.81258 0.37565 0.0
C711 C 0.15841 0.81713 0.45078 0.0
C712 C 0.15321 0.81781 0.48911 0.0
C713 C 0.15087 0.82829 0.46792 0.0
C714 C 0.16262 0.79562 0.49268 0.0
C715 C 0.16844 0.79562 0.45498 0.0
C716 C 0.17032 0.78484 0.47576 0.0
C717 C 0.18039 0.892 0.37459 0.0
C718 C 0.15533 0.82766 0.42866 0.0
C719 C 0.23766 0.76517 0.41572 0.0
C720 C 0.26351 0.79449 0.41262 0.0
C721 C 0.21613 0.86281 0.35212 0.0
C722 C 0.16985 0.85886 0.27698 0.0
C723 C 0.182 0.85229 0.25927 0.0
C724 C 0.1798 0.86398 0.23837 0.0
C725 C 0.16621 0.88305 0.23578 0.0
C726 C 0.15533 0.87689 0.27364 0.0
C727 C 0.1539 0.88918 0.25323 0.0
C728 C 0.15212 0.78476 0.35244 0.0
C729 C 0.17266 0.84726 0.29886 0.0
H730 H 0.14365 0.84531 0.46471 0.0
H731 H 0.16384 0.78631 0.50862 0.0
H732 H 0.17465 0.78693 0.44228 0.0
H733 H 0.17771 0.76794 0.47878 0.0
H734 H 0.1925 0.83773 0.26179 0.0
H735 H 0.16501 0.89337 0.22019 0.0
H736 H 0.14511 0.88158 0.28676 0.0
H737 H 0.14311 0.9035 0.2509 0.0
Tb738 Tb 0.83312 0.66339 0.67251 0.0
C739 C 0.90123 0.76692 0.72384 0.0
C740 C 0.95717 0.78243 0.71811 0.0
C741 C 0.94096 0.81912 0.72449 0.0
C742 C 0.92483 0.76009 0.71942 0.0
C743 C 0.90892 0.79636 0.72685 0.0
C744 C 0.96507 0.81215 0.72014 0.0
C745 C 0.85306 0.77794 0.73601 0.0
N746 N 0.87071 0.7442 0.72623 0.0
C747 C 0.84671 0.74904 0.73303 0.0
C748 C 0.88425 0.80179 0.73268 0.0
Tb749 Tb 0.86236 0.698 0.71978 0.0
N750 N 0.91611 0.73108 0.71773 0.0
C751 C 0.93889 0.72248 0.71634 0.0
C752 C 0.98051 0.77402 0.71542 0.0
C753 C 0.97132 0.74382 0.7149 0.0
H754 H 0.82249 0.73078 0.73547 0.0
H755 H 0.98919 0.73696 0.71324 0.0
H756 H 0.98976 0.82973 0.71891 0.0
H757 H 0.83389 0.78179 0.74088 0.0
H758 H 0.93234 0.69933 0.71572 0.0
H759 H 0.70565 0.62167 0.67855 0.0
H760 H 0.00563 0.79049 0.71427 0.0
H761 H 0.87534 0.63261 0.65692 0.0
H762 H 0.76201 0.65992 0.67755 0.0
H763 H 0.86541 0.583 0.64929 0.0
H764 H 0.94739 0.84197 0.72654 0.0
H765 H 0.6907 0.5693 0.67434 0.0
H766 H 0.70807 0.53192 0.66725 0.0
H767 H 0.88913 0.82412 0.7351 0.0
H768 H 0.75156 0.52139 0.65917 0.0
N769 N 0.77962 0.6297 0.67328 0.0
C770 C 0.75621 0.63731 0.67559 0.0
C771 C 0.71565 0.58607 0.67385 0.0
C772 C 0.73963 0.57872 0.67038 0.0
C773 C 0.724 0.6156 0.6762 0.0
C774 C 0.77173 0.60138 0.67001 0.0
H775 H 0.81033 0.54038 0.65224 0.0
N776 N 0.82639 0.6183 0.66463 0.0
C777 C 0.84565 0.58616 0.65391 0.0
C778 C 0.796 0.59548 0.66545 0.0
C779 C 0.85117 0.61433 0.65819 0.0
C780 C 0.81454 0.56215 0.65562 0.0
C781 C 0.78918 0.56672 0.66119 0.0
O782 O 0.85722 0.67807 0.64232 0.0
O783 O 0.87101 0.69921 0.68658 0.0
O784 O 0.85499 0.72957 0.69723 0.0
O785 O 0.81707 0.69631 0.67696 0.0
O786 O 0.88456 0.68141 0.66465 0.0
O787 O 0.81228 0.67721 0.64766 0.0
O788 O 0.84447 0.69039 0.75144 0.0
O789 O 0.82412 0.66272 0.70575 0.0
O790 O 0.83882 0.63091 0.69474 0.0
O791 O 0.87644 0.66328 0.71574 0.0
O792 O 0.81116 0.67931 0.72887 0.0
O793 O 0.88134 0.67998 0.74322 0.0
C794 C 0.89533 0.70205 0.67676 0.0
C795 C 0.82632 0.67275 0.61304 0.0
C796 C 0.83725 0.68508 0.57466 0.0
C797 C 0.84469 0.69252 0.59521 0.0
C798 C 0.81145 0.65673 0.57233 0.0
C799 C 0.80071 0.64458 0.61057 0.0
C800 C 0.79344 0.63661 0.59022 0.0
C801 C 0.8325 0.72303 0.68355 0.0
C802 C 0.83512 0.68268 0.63381 0.0
C803 C 0.75732 0.54371 0.66225 0.0
C804 C 0.73257 0.5497 0.66685 0.0
C805 C 0.80002 0.65943 0.71619 0.0
C806 C 0.88103 0.69348 0.77717 0.0
C807 C 0.87343 0.67432 0.79637 0.0
C808 C 0.88939 0.68496 0.81458 0.0
C809 C 0.91326 0.71519 0.81324 0.0
C810 C 0.90485 0.72357 0.77608 0.0
C811 C 0.92093 0.73433 0.79406 0.0
C812 C 0.86069 0.63673 0.70877 0.0
C813 C 0.86414 0.68118 0.75853 0.0
H814 H 0.86495 0.71387 0.59748 0.0
H815 H 0.80473 0.6503 0.55675 0.0
H816 H 0.78643 0.62894 0.62425 0.0
H817 H 0.77358 0.61491 0.58828 0.0
H818 H 0.85459 0.6512 0.79717 0.0
H819 H 0.92605 0.72399 0.82699 0.0
H820 H 0.91106 0.73869 0.76145 0.0
H821 H 0.93935 0.75757 0.79313 0.0
Tb822 Tb 0.36335 0.20328 0.66399 0.0
C823 C 0.24725 0.14167 0.72688 0.0
C824 C 0.22799 0.17753 0.72308 0.0
C825 C 0.19054 0.12426 0.73228 0.0
C826 C 0.25317 0.17083 0.72229 0.0
C827 C 0.21608 0.11811 0.73279 0.0
C828 C 0.19649 0.15397 0.72737 0.0
C829 C 0.23845 0.0854 0.74233 0.0
N830 N 0.27265 0.1369 0.72757 0.0
C831 C 0.26894 0.10963 0.73639 0.0
C832 C 0.21181 0.08949 0.74008 0.0
Tb833 Tb 0.32157 0.17753 0.71685 0.0
N834 N 0.28397 0.19282 0.71879 0.0
C835 C 0.29142 0.2223 0.71778 0.0
C836 C 0.23538 0.20769 0.72051 0.0
C837 C 0.26729 0.23016 0.71829 0.0
H838 H 0.28949 0.10636 0.73806 0.0
H839 H 0.27333 0.25356 0.71686 0.0
H840 H 0.17675 0.15861 0.72778 0.0
H841 H 0.23554 0.06361 0.74862 0.0
H842 H 0.3159 0.23999 0.71587 0.0
H843 H 0.4079 0.12466 0.6617 0.0
H844 H 0.21675 0.21383 0.72097 0.0
H845 H 0.39722 0.27521 0.64456 0.0
H846 H 0.3667 0.13961 0.6643 0.0
H847 H 0.45156 0.31708 0.63375 0.0
H848 H 0.16631 0.10642 0.73647 0.0
H849 H 0.46485 0.1633 0.65637 0.0
H850 H 0.50602 0.21811 0.64957 0.0
H851 H 0.18825 0.07076 0.74483 0.0
H852 H 0.51808 0.2709 0.64211 0.0
N853 N 0.39969 0.18663 0.66094 0.0
C854 C 0.3913 0.15692 0.66183 0.0
C855 C 0.4468 0.17008 0.65748 0.0
C856 C 0.45512 0.20046 0.65522 0.0
C857 C 0.41468 0.14823 0.66041 0.0
C858 C 0.43067 0.20803 0.65688 0.0
H859 H 0.49778 0.30806 0.6357 0.0
N860 N 0.41279 0.24324 0.65341 0.0
C861 C 0.44801 0.29485 0.63935 0.0
C862 C 0.43751 0.23751 0.65307 0.0
C863 C 0.41729 0.27111 0.64544 0.0
C864 C 0.47404 0.2897 0.64055 0.0
C865 C 0.46889 0.26056 0.64697 0.0
O866 O 0.35167 0.2211 0.63595 0.0
O867 O 0.32295 0.19434 0.68399 0.0
O868 O 0.29384 0.14114 0.69827 0.0
O869 O 0.3272 0.15476 0.66722 0.0
O870 O 0.34123 0.23195 0.66214 0.0
O871 O 0.35303 0.1797 0.63758 0.0
O872 O 0.33538 0.16171 0.74482 0.0
O873 O 0.36183 0.18652 0.69675 0.0
O874 O 0.39167 0.2388 0.68323 0.0
O875 O 0.35721 0.22608 0.71356 0.0
O876 O 0.34465 0.14957 0.71918 0.0
O877 O 0.32902 0.20046 0.74346 0.0
C878 C 0.3183 0.21556 0.67632 0.0
C879 C 0.36524 0.20952 0.60403 0.0
C880 C 0.36217 0.2105 0.56553 0.0
C881 C 0.34716 0.20096 0.58623 0.0
C882 C 0.39549 0.22926 0.56307 0.0
C883 C 0.39845 0.22741 0.60107 0.0
C884 C 0.41341 0.23743 0.58072 0.0
C885 C 0.30161 0.1355 0.67998 0.0
C886 C 0.34913 0.19986 0.62549 0.0
C887 C 0.49371 0.25348 0.64646 0.0
C888 C 0.48683 0.22343 0.65065 0.0
C889 C 0.36691 0.16565 0.7045 0.0
C890 C 0.31889 0.17045 0.77685 0.0
C891 C 0.33678 0.17545 0.79494 0.0
C892 C 0.3214 0.1637 0.81551 0.0
C893 C 0.28786 0.14627 0.81741 0.0
C894 C 0.28555 0.15409 0.77939 0.0
C895 C 0.27019 0.14181 0.79953 0.0
C896 C 0.38363 0.24473 0.70134 0.0
C897 C 0.33526 0.18176 0.75545 0.0
H898 H 0.32157 0.18646 0.58858 0.0
H899 H 0.40783 0.23774 0.54747 0.0
H900 H 0.41291 0.23374 0.61439 0.0
H901 H 0.43904 0.25157 0.57861 0.0
H902 H 0.36252 0.18885 0.79291 0.0
H903 H 0.27508 0.13594 0.83276 0.0
H904 H 0.27131 0.15067 0.76587 0.0
H905 H 0.24443 0.12874 0.80129 0.0
Tb906 Tb 0.83904 0.15805 0.72519 0.0
C907 C 0.79431 0.22226 0.65861 0.0
C908 C 0.73763 0.18828 0.65933 0.0
C909 C 0.75811 0.24214 0.65073 0.0
C910 C 0.76897 0.19347 0.66192 0.0
C911 C 0.78938 0.24693 0.65238 0.0
C912 C 0.73224 0.21283 0.65424 0.0
C913 C 0.84661 0.27854 0.64777 0.0
N914 N 0.82407 0.22583 0.66021 0.0
C915 C 0.85023 0.25329 0.65391 0.0
C916 C 0.81606 0.27544 0.64731 0.0
Tb917 Tb 0.82752 0.18333 0.67123 0.0
N918 N 0.77531 0.17044 0.6665 0.0
C919 C 0.75142 0.1414 0.66715 0.0
C920 C 0.71283 0.15858 0.66126 0.0
C921 C 0.71984 0.13504 0.66485 0.0
H922 H 0.87391 0.25583 0.65432 0.0
H923 H 0.70093 0.11198 0.66593 0.0
H924 H 0.7083 0.20935 0.65238 0.0
H925 H 0.86738 0.30036 0.64338 0.0
H926 H 0.75635 0.12293 0.67005 0.0
H927 H 0.96607 0.22728 0.73084 0.0
H928 H 0.68838 0.15359 0.65944 0.0
H929 H 0.79106 0.08707 0.74495 0.0
H930 H 0.91142 0.21755 0.72564 0.0
H931 H 0.79565 0.04252 0.75913 0.0
H932 H 0.75374 0.26082 0.64618 0.0
H933 H 0.97695 0.18491 0.73973 0.0
H934 H 0.9553 0.12914 0.7492 0.0
H935 H 0.81331 0.295 0.64244 0.0
H936 H 0.90865 0.07855 0.75708 0.0
N937 N 0.89092 0.1698 0.73074 0.0
C938 C 0.91544 0.19867 0.72954 0.0
C939 C 0.95276 0.18043 0.73739 0.0
C940 C 0.92733 0.15102 0.74008 0.0
C941 C 0.94669 0.20438 0.73245 0.0
C942 C 0.89636 0.14649 0.73673 0.0
H943 H 0.84885 0.0461 0.76137 0.0
N944 N 0.84116 0.11562 0.73877 0.0
C945 C 0.81691 0.06366 0.75394 0.0
C946 C 0.87043 0.11826 0.74096 0.0
C947 C 0.81442 0.08901 0.7459 0.0
C948 C 0.84696 0.06573 0.7551 0.0
C949 C 0.87426 0.09343 0.74892 0.0
O950 O 0.80788 0.14419 0.75261 0.0
O951 O 0.80911 0.16657 0.70365 0.0
O952 O 0.83241 0.21718 0.69083 0.0
O953 O 0.8584 0.20747 0.71928 0.0
O954 O 0.78717 0.13012 0.72606 0.0
O955 O 0.85278 0.18489 0.74984 0.0
O956 O 0.85933 0.19865 0.64408 0.0
O957 O 0.857 0.17391 0.69261 0.0
O958 O 0.83292 0.12285 0.70635 0.0
O959 O 0.81077 0.13437 0.67607 0.0
O960 O 0.87957 0.21054 0.67015 0.0
O961 O 0.81277 0.1604 0.64447 0.0
C962 C 0.78205 0.14576 0.71082 0.0
C963 C 0.83271 0.15897 0.78435 0.0
C964 C 0.82371 0.15834 0.82245 0.0
C965 C 0.81848 0.16513 0.8011 0.0
C966 C 0.8434 0.14523 0.82656 0.0
C967 C 0.85217 0.14595 0.78899 0.0
C968 C 0.85738 0.13906 0.80997 0.0
C969 C 0.84894 0.22483 0.7078 0.0
C970 C 0.82743 0.16652 0.76213 0.0
C971 C 0.90512 0.09739 0.75123 0.0
C972 C 0.93166 0.12618 0.74676 0.0
C973 C 0.88415 0.19437 0.68533 0.0
C974 C 0.83623 0.19016 0.61118 0.0
C975 C 0.84803 0.18317 0.59354 0.0
C976 C 0.84668 0.19536 0.57259 0.0
C977 C 0.83389 0.21509 0.56992 0.0
C978 C 0.82271 0.20902 0.60776 0.0
C979 C 0.82178 0.22154 0.58731 0.0
C980 C 0.81871 0.11632 0.6883 0.0
C981 C 0.83915 0.1787 0.63307 0.0
H982 H 0.80329 0.17504 0.79747 0.0
H983 H 0.84866 0.14031 0.84262 0.0
H984 H 0.86357 0.14134 0.77643 0.0
H985 H 0.87261 0.12917 0.81339 0.0
H986 H 0.85788 0.16809 0.59619 0.0
H987 H 0.83338 0.22589 0.55435 0.0
H988 H 0.81311 0.21434 0.62087 0.0
H989 H 0.81178 0.23651 0.58491 0.0
H990 H 0.30967 0.80764 0.08905 0.0
H991 H 0.45205 0.93363 0.04686 0.0
H992 H 0.27006 0.86718 0.08705 0.0
H993 H 0.40742 0.98573 0.06032 0.0
H994 H 0.40253 0.88774 0.05873 0.0
H995 H 0.36211 0.85045 0.07794 0.0
C996 C 0.31227 0.82998 0.08633 0.0
C997 C 0.28563 0.83395 0.08897 0.0
C998 C 0.40329 0.90899 0.05944 0.0
C999 C 0.34568 0.88359 0.0753 0.0
C1000 C 0.43168 0.93535 0.05225 0.0
C1001 C 0.4337 0.96355 0.05217 0.0
C1002 C 0.37674 0.91076 0.06716 0.0
C1003 C 0.40675 0.9644 0.05988 0.0
C1004 C 0.34223 0.85456 0.07966 0.0
C1005 C 0.29012 0.86326 0.08536 0.0
N1006 N 0.37948 0.93851 0.06695 0.0
N1007 N 0.31949 0.88691 0.07862 0.0
H1008 H 0.21461 0.55408 0.08033 0.0
H1009 H 0.03948 0.45073 0.04601 0.0
H1010 H 0.17525 0.45951 0.07746 0.0
H1011 H 0.08442 0.54722 0.04076 0.0
H1012 H 0.09062 0.45369 0.05455 0.0
H1013 H 0.16876 0.55298 0.06242 0.0
C1014 C 0.19626 0.53323 0.0757 0.0
C1015 C 0.19791 0.50678 0.08048 0.0
C1016 C 0.08941 0.47428 0.05105 0.0
C1017 C 0.14589 0.50498 0.06037 0.0
C1018 C 0.0603 0.47254 0.04622 0.0
C1019 C 0.05805 0.49882 0.04206 0.0
C1020 C 0.11604 0.50249 0.05233 0.0
C1021 C 0.08533 0.52654 0.04299 0.0
C1022 C 0.17026 0.53249 0.06551 0.0
C1023 C 0.17411 0.48015 0.07418 0.0
N1024 N 0.11319 0.52766 0.04814 0.0
N1025 N 0.14877 0.47981 0.06462 0.0
H1026 H 0.59523 0.7323 0.08338 0.0
H1027 H 0.47627 0.5879 0.03123 0.0
H1028 H 0.49634 0.70682 0.0775 0.0
H1029 H 0.55676 0.59248 0.06415 0.0
H1030 H 0.48713 0.63566 0.04255 0.0
H1031 H 0.5854 0.68509 0.07098 0.0
C1032 C 0.5715 0.7167 0.07935 0.0
C1033 C 0.54652 0.72321 0.08139 0.0
C1034 C 0.50241 0.6262 0.04727 0.0
C1035 C 0.53515 0.66972 0.06698 0.0
C1036 C 0.49637 0.59902 0.04072 0.0
C1037 C 0.51568 0.58614 0.04673 0.0
C1038 C 0.52826 0.64092 0.05963 0.0
C1039 C 0.5412 0.6015 0.05921 0.0
C1040 C 0.56587 0.68986 0.07235 0.0
C1041 C 0.51617 0.70254 0.07595 0.0
N1042 N 0.54688 0.62819 0.06514 0.0
N1043 N 0.51132 0.67674 0.06888 0.0
H1044 H 0.82636 0.32875 0.94646 0.0
H1045 H 0.92955 0.41378 0.03961 0.0
H1046 H 0.83302 0.28172 1.00531 0.0
H1047 H 0.94505 0.45625 0.9749 0.0
H1048 H 0.89018 0.36617 0.02856 0.0
H1049 H 0.86561 0.37651 0.95769 0.0
C1050 C 0.8361 0.32854 0.96177 0.0
C1051 C 0.82651 0.30123 0.97494 0.0
C1052 C 0.90215 0.38587 0.01675 0.0
C1053 C 0.87116 0.35586 0.98808 0.0
C1054 C 0.92443 0.41317 0.02311 0.0
C1055 C 0.94029 0.43917 1.00825 0.0
C1056 C 0.89532 0.38451 0.99532 0.0
C1057 C 0.93343 0.43674 0.98689 0.0
C1058 C 0.85848 0.35577 0.96818 0.0
C1059 C 0.83949 0.30226 0.99478 0.0
N1060 N 0.91129 0.41 0.9811 0.0
N1061 N 0.86109 0.32908 1.00076 0.0
H1062 H 0.73262 0.56467 0.97605 0.0
H1063 H 0.55072 0.47735 0.01957 0.0
H1064 H 0.67033 0.47016 0.97531 0.0
H1065 H 0.60649 0.57395 1.00842 0.0
H1066 H 0.59775 0.47359 0.01138 0.0
H1067 H 0.69005 0.56762 0.99518 0.0
C1068 C 0.7098 0.54458 0.98009 0.0
C1069 C 0.70428 0.51727 0.97396 0.0
C1070 C 0.5999 0.49565 0.01105 0.0
C1071 C 0.65601 0.5202 0.99574 0.0
C1072 C 0.573 0.49782 0.016 0.0
C1073 C 0.57482 0.52603 0.01509 0.0
C1074 C 0.62868 0.5219 1.0046 0.0
C1075 C 0.60428 0.5518 0.00944 0.0
C1076 C 0.6857 0.54618 0.99099 0.0
C1077 C 0.67494 0.49157 0.97967 0.0
N1078 N 0.63015 0.54915 1.00426 0.0
N1079 N 0.65162 0.49368 0.99016 0.0
H1080 H 0.40866 0.16137 0.96385 0.0
H1081 H 0.53372 0.11739 0.01579 0.0
H1082 H 0.5081 0.22485 0.96632 0.0
H1083 H 0.44743 0.05131 0.99192 0.0
H1084 H 0.52227 0.15676 1.00027 0.0
H1085 H 0.42016 0.12012 0.97539 0.0
C1086 C 0.43298 0.1665 0.96638 0.0
C1087 C 0.45751 0.19643 0.96422 0.0
C1088 C 0.50586 0.13366 0.99836 0.0
C1089 C 0.47068 0.14981 0.97801 0.0
C1090 C 0.51226 0.1111 1.00737 0.0
C1091 C 0.49147 0.08092 1.00523 0.0
C1092 C 0.47823 0.12611 0.9873 0.0
C1093 C 0.46416 0.07427 0.99395 0.0
C1094 C 0.43951 0.14307 0.97313 0.0
C1095 C 0.48855 0.20203 0.96803 0.0
N1096 N 0.4582 0.09665 0.98552 0.0
N1097 N 0.4942 0.17904 0.97499 0.0
H1098 H 0.76179 0.17588 0.98631 0.0
H1099 H 0.61857 0.03936 1.00083 0.0
H1100 H 0.7043 0.2129 0.95935 0.0
H1101 H 0.57433 0.09431 1.00578 0.0
H1102 H 0.6695 0.08485 0.99003 0.0
H1103 H 0.7131 0.12828 0.9983 0.0
C1104 C 0.73877 0.1736 0.9826 0.0
C1105 C 0.73683 0.19781 0.97141 0.0
C1106 C 0.64889 0.08711 0.99392 0.0
C1107 C 0.68096 0.14376 0.98516 0.0
C1108 C 0.61976 0.0611 0.99997 0.0
C1109 C 0.5924 0.06307 1.00488 0.0
C1110 C 0.65065 0.11546 0.99225 0.0
C1111 C 0.59501 0.09176 1.00285 0.0
C1112 C 0.71099 0.1465 0.98938 0.0
C1113 C 0.70656 0.19436 0.96756 0.0
N1114 N 0.62357 0.1168 0.9966 0.0
N1115 N 0.67977 0.16788 0.97451 0.0
H1116 H 0.7954 0.48015 0.96249 0.0
H1117 H 0.96783 0.59405 0.99677 0.0
H1118 H 0.82678 0.5739 0.96375 0.0
H1119 H 0.92511 0.49761 0.00995 0.0
H1120 H 0.91777 0.58814 0.98283 0.0
H1121 H 0.84536 0.48694 0.97722 0.0
C1122 C 0.81326 0.50224 0.96559 0.0
C1123 C 0.80764 0.52661 0.96174 0.0
C1124 C 0.9193 0.5683 0.98903 0.0
C1125 C 0.86407 0.53465 0.97876 0.0
C1126 C 0.94771 0.57169 0.99703 0.0
C1127 C 0.95034 0.5463 1.00473 0.0
C1128 C 0.89376 0.5393 0.98838 0.0
C1129 C 0.92394 0.51777 1.00448 0.0
C1130 C 0.84148 0.50612 0.97412 0.0
C1131 C 0.8309 0.55483 0.96614 0.0
N1132 N 0.89676 0.51502 0.9963 0.0
N1133 N 0.85823 0.55815 0.97447 0.0
H1134 H 0.4041 0.27858 0.9721 0.0
H1135 H 0.51503 0.41884 0.03052 0.0
H1136 H 0.50345 0.30681 0.97941 0.0
H1137 H 0.43614 0.41485 0.99578 0.0
H1138 H 0.50656 0.37266 0.01766 0.0
H1139 H 0.41114 0.32379 0.98612 0.0
C1140 C 0.42741 0.29441 0.97657 0.0
C1141 C 0.45332 0.28917 0.97443 0.0
C1142 C 0.4911 0.3819 0.01291 0.0
C1143 C 0.46132 0.34028 0.99105 0.0
C1144 C 0.49575 0.40815 0.02033 0.0
C1145 C 0.47627 0.4208 0.01418 0.0
C1146 C 0.46644 0.36784 0.99954 0.0
C1147 C 0.45181 0.40599 1.00083 0.0
C1148 C 0.43137 0.32006 0.98465 0.0
C1149 C 0.48286 0.30995 0.98098 0.0
N1150 N 0.44749 0.3802 0.99403 0.0
N1151 N 0.48606 0.33455 0.98908 0.0
H1152 H 0.22 0.72173 0.0747 0.0
H1153 H 0.03588 0.6122 0.06005 0.0
H1154 H 0.14812 0.74776 0.08255 0.0
H1155 H 0.11156 0.6056 0.02869 0.0
H1156 H 0.07597 0.65886 0.07224 0.0
H1157 H 0.18011 0.67614 0.06114 0.0
C1158 C 0.19587 0.71791 0.07344 0.0
C1159 C 0.18734 0.7385 0.07983 0.0
C1160 C 0.08373 0.64721 0.06262 0.0
C1161 C 0.14136 0.68608 0.06484 0.0
C1162 C 0.06087 0.62052 0.05571 0.0
C1163 C 0.07027 0.60496 0.04322 0.0
C1164 C 0.11631 0.65816 0.05736 0.0
C1165 C 0.10308 0.6169 0.03811 0.0
C1166 C 0.17308 0.69186 0.0658 0.0
C1167 C 0.15556 0.73222 0.07815 0.0
N1168 N 0.12486 0.64259 0.0453 0.0
N1169 N 0.1337 0.70652 0.07099 0.0
H1170 H 0.32532 0.54008 0.09167 0.0
H1171 H 0.3847 0.43097 0.05478 0.0
H1172 H 0.26099 0.4468 0.08787 0.0
H1173 H 0.4397 0.52764 0.04381 0.0
H1174 H 0.33897 0.43508 0.06768 0.0
H1175 H 0.36883 0.53489 0.07613 0.0
C1176 C 0.32073 0.51839 0.08787 0.0
C1177 C 0.29008 0.49371 0.09126 0.0
C1178 C 0.36093 0.45536 0.06206 0.0
C1179 C 0.33893 0.48751 0.0732 0.0
C1180 C 0.38685 0.45302 0.05461 0.0
C1181 C 0.4158 0.479 0.04796 0.0
C1182 C 0.36443 0.48393 0.06328 0.0
C1183 C 0.41776 0.50707 0.04836 0.0
C1184 C 0.34527 0.51543 0.07883 0.0
C1185 C 0.28468 0.46605 0.08589 0.0
N1186 N 0.39249 0.50879 0.05609 0.0
N1187 N 0.30896 0.46363 0.07708 0.0
H1188 H 0.5296 0.81893 0.11394 0.0
H1189 H 0.55032 0.9419 0.01764 0.0
H1190 H 0.58896 0.8379 0.05726 0.0
H1191 H 0.5255 0.94776 0.0813 0.0
H1192 H 0.56121 0.9014 0.03144 0.0
H1193 H 0.52542 0.86441 0.10253 0.0
C1194 C 0.54205 0.83293 0.09923 0.0
C1195 C 0.5592 0.82449 0.08632 0.0
C1196 C 0.5535 0.91158 0.04244 0.0
C1197 C 0.55404 0.87594 0.07296 0.0
C1198 C 0.54691 0.93445 0.03451 0.0
C1199 C 0.53651 0.94779 0.04829 0.0
C1200 C 0.54919 0.90161 0.06435 0.0
C1201 C 0.53349 0.93797 0.07015 0.0
C1202 C 0.53957 0.85874 0.09268 0.0
C1203 C 0.57481 0.84324 0.06736 0.0
N1204 N 0.53941 0.91518 0.07752 0.0
N1205 N 0.57151 0.86783 0.0611 0.0
H1206 H 0.9292 0.19714 0.41609 0.0
H1207 H 0.11561 0.26618 0.38321 0.0
H1208 H 0.97897 0.14636 0.42528 0.0
H1209 H 0.07111 0.3211 0.38715 0.0
H1210 H 0.06484 0.22145 0.39577 0.0
H1211 H 0.98008 0.24257 0.40381 0.0
C1212 C 0.95101 0.19578 0.41582 0.0
C1213 C 0.95006 0.16814 0.42167 0.0
C1214 C 0.06607 0.24325 0.39376 0.0
C1215 C 0.00816 0.21958 0.40717 0.0
C1216 C 0.09503 0.26879 0.3863 0.0
C1217 C 0.0974 0.29736 0.38354 0.0
C1218 C 0.03925 0.24626 0.39872 0.0
C1219 C 0.07013 0.29941 0.38871 0.0
C1220 C 0.97997 0.22156 0.40865 0.0
C1221 C 0.97883 0.16732 0.42078 0.0
N1222 N 0.04221 0.27427 0.39591 0.0
N1223 N 0.00663 0.19254 0.4135 0.0
H1224 H 0.88996 0.89748 0.40658 0.0
H1225 H 0.71102 0.78308 0.38367 0.0
H1226 H 0.84919 0.80133 0.41753 0.0
H1227 H 0.7531 0.8795 0.37165 0.0
H1228 H 0.7634 0.78898 0.39205 0.0
H1229 H 0.84173 0.89152 0.38941 0.0
C1230 C 0.8707 0.8752 0.40521 0.0
C1231 C 0.87269 0.84982 0.41361 0.0
C1232 C 0.76122 0.80885 0.38722 0.0
C1233 C 0.81813 0.84256 0.3943 0.0
C1234 C 0.73142 0.80544 0.38247 0.0
C1235 C 0.72797 0.83082 0.37661 0.0
C1236 C 0.78739 0.83789 0.38656 0.0
C1237 C 0.75481 0.85935 0.37559 0.0
C1238 C 0.84336 0.87169 0.39545 0.0
C1239 C 0.84777 0.82125 0.41142 0.0
N1240 N 0.7834 0.86214 0.38062 0.0
N1241 N 0.82126 0.81831 0.40212 0.0
H1242 H 0.18585 0.0287 0.44545 0.0
H1243 H 0.2081 0.94798 0.35152 0.0
H1244 H 0.24119 0.07703 0.3869 0.0
H1245 H 0.1706 0.90174 0.41456 0.0
H1246 H 0.21706 0.99485 0.36332 0.0
H1247 H 0.17639 0.98126 0.43369 0.0
C1248 C 0.19578 0.02911 0.43005 0.0
C1249 C 0.21414 0.05649 0.41702 0.0
C1250 C 0.20685 0.97449 0.37461 0.0
C1251 C 0.20364 1.00275 0.40343 0.0
C1252 C 0.2014 0.94764 0.36778 0.0
C1253 C 0.18806 0.92086 0.38195 0.0
C1254 C 0.19872 0.97459 0.3958 0.0
C1255 C 0.181 0.92196 0.40313 0.0
C1256 C 0.19055 1.00219 0.42337 0.0
C1257 C 0.22671 0.05619 0.39724 0.0
N1258 N 0.18619 0.94834 0.40939 0.0
N1259 N 0.22119 0.02973 0.391 0.0
H1260 H 0.49573 0.65865 0.28054 0.0
H1261 H 0.59733 0.74303 0.37463 0.0
H1262 H 0.49834 0.61172 0.34064 0.0
H1263 H 0.61221 0.7861 0.31013 0.0
H1264 H 0.5577 0.69563 0.36348 0.0
H1265 H 0.53485 0.7063 0.29195 0.0
C1266 C 0.50456 0.65846 0.29617 0.0
C1267 C 0.49388 0.63123 0.30964 0.0
C1268 C 0.56957 0.71542 0.35174 0.0
C1269 C 0.53843 0.6857 0.32298 0.0
C1270 C 0.59198 0.74261 0.35817 0.0
C1271 C 0.60774 0.76872 0.3434 0.0
C1272 C 0.56259 0.71426 0.33032 0.0
C1273 C 0.60067 0.76651 0.32206 0.0
C1274 C 0.52686 0.68562 0.30269 0.0
C1275 C 0.5057 0.63224 0.32986 0.0
N1276 N 0.57848 0.73986 0.31619 0.0
N1277 N 0.52731 0.65899 0.33592 0.0
H1278 H 0.39854 0.89415 0.30736 0.0
H1279 H 0.21943 0.81063 0.35554 0.0
H1280 H 0.33886 0.79813 0.31692 0.0
H1281 H 0.27737 0.90707 0.34451 0.0
H1282 H 0.2657 0.80559 0.34765 0.0
H1283 H 0.35728 0.89944 0.32612 0.0
C1284 C 0.37651 0.87426 0.3135 0.0
C1285 C 0.3713 0.84576 0.31043 0.0
C1286 C 0.26853 0.8279 0.34728 0.0
C1287 C 0.32451 0.85129 0.33187 0.0
C1288 C 0.24203 0.8308 0.35202 0.0
C1289 C 0.24465 0.85933 0.35098 0.0
C1290 C 0.29769 0.85375 0.34079 0.0
C1291 C 0.27453 0.88467 0.34558 0.0
C1292 C 0.35318 0.87717 0.32426 0.0
C1293 C 0.34308 0.8204 0.31885 0.0
N1294 N 0.29994 0.88131 0.34046 0.0
N1295 N 0.32045 0.82375 0.32909 0.0
H1296 H 0.14567 0.53043 0.26809 0.0
H1297 H 0.14297 0.42012 0.36841 0.0
H1298 H 0.09895 0.51933 0.32884 0.0
H1299 H 0.15953 0.40723 0.3049 0.0
H1300 H 0.12998 0.45886 0.35396 0.0
H1301 H 0.15277 0.48668 0.28043 0.0
C1302 C 0.13642 0.5184 0.28386 0.0
C1303 C 0.12196 0.5285 0.29758 0.0
C1304 C 0.13641 0.44759 0.34312 0.0
C1305 C 0.1306 0.47924 0.31196 0.0
C1306 C 0.14427 0.42573 0.35142 0.0
C1307 C 0.15293 0.41085 0.33789 0.0
C1308 C 0.13752 0.45499 0.32102 0.0
C1309 C 0.15302 0.41828 0.31589 0.0
C1310 C 0.14064 0.49363 0.29095 0.0
C1311 C 0.11067 0.51244 0.31795 0.0
N1312 N 0.14577 0.44007 0.3081 0.0
N1313 N 0.11556 0.4889 0.32461 0.0
H1314 H 0.42475 0.50237 0.31481 0.0
H1315 H 0.23599 0.42498 0.33864 0.0
H1316 H 0.37209 0.54886 0.29763 0.0
H1317 H 0.28403 0.37371 0.33171 0.0
H1318 H 0.28626 0.47143 0.32773 0.0
H1319 H 0.37422 0.45561 0.32482 0.0
C1320 C 0.40243 0.50247 0.31277 0.0
C1321 C 0.40236 0.52912 0.30491 0.0
C1322 C 0.28581 0.45002 0.3286 0.0
C1323 C 0.34457 0.47625 0.3171 0.0
C1324 C 0.25718 0.42352 0.335 0.0
C1325 C 0.25602 0.39548 0.33651 0.0
C1326 C 0.31354 0.44851 0.32372 0.0
C1327 C 0.28403 0.3949 0.331 0.0
C1328 C 0.37364 0.47594 0.31865 0.0
C1329 C 0.37291 0.52853 0.30337 0.0
N1330 N 0.31168 0.42098 0.32508 0.0
N1331 N 0.34518 0.50257 0.30951 0.0
H1332 H 0.47243 0.81761 0.28824 0.0
H1333 H 0.63471 0.92381 0.33599 0.0
H1334 H 0.48567 0.89715 0.31269 0.0
H1335 H 0.59407 0.82742 0.34373 0.0
H1336 H 0.58445 0.91828 0.32244 0.0
H1337 H 0.52308 0.82497 0.30243 0.0
C1338 C 0.48659 0.83696 0.29619 0.0
C1339 C 0.47578 0.85716 0.29913 0.0
C1340 C 0.58657 0.89841 0.32741 0.0
C1341 C 0.53253 0.86555 0.31547 0.0
C1342 C 0.61499 0.90153 0.33517 0.0
C1343 C 0.61817 0.87601 0.34127 0.0
C1344 C 0.56186 0.86965 0.32509 0.0
C1345 C 0.59237 0.8476 0.33957 0.0
C1346 C 0.51502 0.84099 0.30446 0.0
C1347 C 0.49403 0.88161 0.30991 0.0
N1348 N 0.56532 0.84518 0.33141 0.0
N1349 N 0.52179 0.88528 0.31769 0.0
H1350 H 0.1125 0.60509 0.3357 0.0
H1351 H 0.13246 0.76783 0.31333 0.0
H1352 H 0.14851 0.65754 0.27409 0.0
H1353 H 0.16248 0.73936 0.37142 0.0
H1354 H 0.12693 0.72337 0.29911 0.0
H1355 H 0.11983 0.65024 0.34993 0.0
C1356 C 0.12222 0.62615 0.32522 0.0
C1357 C 0.13009 0.62761 0.3037 0.0
C1358 C 0.1345 0.72689 0.31505 0.0
C1359 C 0.13715 0.67888 0.31965 0.0
C1360 C 0.13751 0.75216 0.32327 0.0
C1361 C 0.14738 0.75723 0.3439 0.0
C1362 C 0.14069 0.70617 0.32767 0.0
C1363 C 0.15397 0.73615 0.35577 0.0
C1364 C 0.12615 0.65179 0.3333 0.0
C1365 C 0.14172 0.65535 0.29068 0.0
N1366 N 0.15017 0.7114 0.3476 0.0
N1367 N 0.1446 0.67986 0.29879 0.0
H1368 H 0.8558 0.09154 0.38306 0.0
H1369 H 0.72638 0.91753 0.41118 0.0
H1370 H 0.84801 0.03948 0.44326 0.0
H1371 H 0.75664 0.96149 0.34687 0.0
H1372 H 0.76659 0.96352 0.42386 0.0
H1373 H 0.81614 0.04549 0.36986 0.0
C1374 C 0.84593 0.07033 0.39341 0.0
C1375 C 0.85528 0.06925 0.41424 0.0
C1376 C 0.76449 0.96308 0.40695 0.0
C1377 C 0.80928 0.01662 0.39952 0.0
C1378 C 0.74137 0.93689 0.39969 0.0
C1379 C 0.73826 0.93549 0.37785 0.0
C1380 C 0.7844 0.98836 0.3923 0.0
C1381 C 0.75855 0.96126 0.36375 0.0
C1382 C 0.82319 0.04411 0.38594 0.0
C1383 C 0.84124 0.04128 0.42716 0.0
N1384 N 0.78061 0.98664 0.37119 0.0
N1385 N 0.81886 0.01615 0.41966 0.0
H1386 H 0.92978 0.79306 0.41257 0.0
H1387 H 0.11286 0.8656 0.37598 0.0
H1388 H 0.00222 0.87599 0.43101 0.0
H1389 H 0.05155 0.76951 0.38449 0.0
H1390 H 0.06906 0.87169 0.38916 0.0
H1391 H 0.97148 0.78497 0.39705 0.0
C1392 C 0.95463 0.80899 0.41386 0.0
C1393 C 0.96309 0.83467 0.42353 0.0
C1394 C 0.06511 0.84929 0.38793 0.0
C1395 C 0.01026 0.82672 0.40499 0.0
C1396 C 0.08997 0.84582 0.38013 0.0
C1397 C 0.08564 0.817 0.37903 0.0
C1398 C 0.03582 0.82376 0.39471 0.0
C1399 C 0.05559 0.79209 0.38504 0.0
C1400 C 0.97824 0.80466 0.40482 0.0
C1401 C 0.99524 0.85562 0.42408 0.0
N1402 N 0.03167 0.796 0.39272 0.0
N1403 N 0.01784 0.85133 0.41474 0.0
H1404 H 0.27016 0.18698 0.42025 0.0
H1405 H 0.15007 0.24137 0.37541 0.0
H1406 H 0.1683 0.12974 0.42543 0.0
H1407 H 0.24107 0.3046 0.39586 0.0
H1408 H 0.15866 0.20021 0.39066 0.0
H1409 H 0.2624 0.23065 0.4094 0.0
C1410 C 0.24619 0.18373 0.41941 0.0
C1411 C 0.2198 0.15475 0.42349 0.0
C1412 C 0.17673 0.22306 0.39193 0.0
C1413 C 0.21077 0.20418 0.41061 0.0
C1414 C 0.17196 0.24666 0.38308 0.0
C1415 C 0.19495 0.27659 0.38426 0.0
C1416 C 0.20496 0.22921 0.40183 0.0
C1417 C 0.2227 0.28188 0.3946 0.0
C1418 C 0.24177 0.20855 0.41311 0.0
C1419 C 0.18924 0.15163 0.42195 0.0
N1420 N 0.2271 0.25841 0.40283 0.0
N1421 N 0.18556 0.17592 0.41538 0.0
H1422 H 0.64567 0.47799 0.76379 0.0
H1423 H 0.78631 0.60045 0.71682 0.0
H1424 H 0.60222 0.53349 0.74867 0.0
H1425 H 0.74334 0.65439 0.72905 0.0
H1426 H 0.73581 0.55518 0.72806 0.0
H1427 H 0.69818 0.52149 0.75296 0.0
C1428 C 0.64741 0.49955 0.75825 0.0
C1429 C 0.61975 0.50225 0.75699 0.0
C1430 C 0.73729 0.5768 0.72859 0.0
C1431 C 0.67971 0.55224 0.74377 0.0
C1432 C 0.76616 0.6028 0.7217 0.0
C1433 C 0.76896 0.63134 0.72153 0.0
C1434 C 0.71097 0.57922 0.73583 0.0
C1435 C 0.74211 0.63282 0.72869 0.0
C1436 C 0.67733 0.52435 0.75172 0.0
C1437 C 0.6231 0.53063 0.74986 0.0
N1438 N 0.71427 0.60722 0.7354 0.0
N1439 N 0.6525 0.55451 0.74348 0.0
H1440 H 0.52092 0.13718 0.74652 0.0
H1441 H 0.42289 0.21826 0.70311 0.0
H1442 H 0.55623 0.2324 0.74207 0.0
H1443 H 0.38312 0.12201 0.71393 0.0
H1444 H 0.47462 0.2243 0.71173 0.0
H1445 H 0.47297 0.13153 0.72938 0.0
C1446 C 0.51829 0.15682 0.74176 0.0
C1447 C 0.54173 0.18517 0.74575 0.0
C1448 C 0.45474 0.20183 0.71198 0.0
C1449 C 0.48774 0.17922 0.72634 0.0
C1450 C 0.42517 0.19836 0.70687 0.0
C1451 C 0.39891 0.16958 0.70736 0.0
C1452 C 0.45784 0.17628 0.71817 0.0
C1453 C 0.40303 0.14456 0.71314 0.0
C1454 C 0.4912 0.15371 0.73201 0.0
C1455 C 0.53815 0.21025 0.7393 0.0
N1456 N 0.43204 0.14847 0.71841 0.0
N1457 N 0.51136 0.20669 0.72998 0.0
H1458 H 0.83872 0.37781 0.74359 0.0
H1459 H 0.89723 0.25892 0.73201 0.0
H1460 H 0.93701 0.40003 0.74853 0.0
H1461 H 0.81833 0.25763 0.69877 0.0
H1462 H 0.90915 0.30737 0.74286 0.0
H1463 H 0.82764 0.33033 0.73128 0.0
C1464 C 0.85797 0.37274 0.74194 0.0
C1465 C 0.8888 0.39279 0.7471 0.0
C1466 C 0.88932 0.29647 0.73312 0.0
C1467 C 0.87621 0.33834 0.73365 0.0
C1468 C 0.88242 0.26879 0.72699 0.0
C1469 C 0.85685 0.25425 0.71437 0.0
C1470 C 0.87008 0.30937 0.72697 0.0
C1471 C 0.83846 0.26814 0.70833 0.0
C1472 C 0.85165 0.34566 0.73503 0.0
C1473 C 0.91283 0.38493 0.74505 0.0
N1474 N 0.84527 0.29478 0.71482 0.0
N1475 N 0.906 0.35822 0.73866 0.0
H1476 H 0.1683 0.94706 0.67255 0.0
H1477 H 0.28373 0.12438 0.63967 0.0
H1478 H 0.16514 0.99493 0.6131 0.0
H1479 H 0.26865 0.07998 0.70379 0.0
H1480 H 0.24402 0.07656 0.62861 0.0
H1481 H 0.20775 0.99495 0.68367 0.0
C1482 C 0.17562 0.96778 0.662 0.0
C1483 C 0.16308 0.96716 0.64205 0.0
C1484 C 0.24933 0.0773 0.64514 0.0
C1485 C 0.20903 0.022 0.65427 0.0
C1486 C 0.27217 0.10455 0.65142 0.0
C1487 C 0.2792 0.10632 0.67279 0.0
C1488 C 0.23371 0.05144 0.66027 0.0
C1489 C 0.26338 0.07991 0.68732 0.0
C1490 C 0.1983 0.99507 0.66824 0.0
C1491 C 0.17412 0.99453 0.62865 0.0
N1492 N 0.24152 0.05364 0.68082 0.0
N1493 N 0.19649 0.02078 0.63495 0.0
H1494 H 0.06477 0.22044 0.64065 0.0
H1495 H 0.88616 0.14156 0.68985 0.0
H1496 H 1.00197 0.1249 0.64927 0.0
H1497 H 0.94547 0.23763 0.67581 0.0
H1498 H 0.93145 0.13505 0.68165 0.0
H1499 H 0.02445 0.22719 0.65926 0.0
C1500 C 0.04227 0.20097 0.64657 0.0
C1501 C 0.03592 0.17221 0.64328 0.0
C1502 C 0.93478 0.1576 0.68065 0.0
C1503 C 0.99016 0.1794 0.66451 0.0
C1504 C 0.90887 0.16136 0.68555 0.0
C1505 C 0.91218 0.19022 0.68375 0.0
C1506 C 0.96399 0.18288 0.67336 0.0
C1507 C 0.94212 0.21502 0.67746 0.0
C1508 C 0.01944 0.20471 0.65722 0.0
C1509 C 0.00708 0.14738 0.65138 0.0
N1510 N 0.96693 0.21079 0.67229 0.0
N1511 N 0.98496 0.15154 0.66154 0.0
H1512 H 0.74463 0.83115 0.6379 0.0
H1513 H 0.87002 0.78382 0.68212 0.0
H1514 H 0.84572 0.88877 0.62521 0.0
H1515 H 0.77907 0.71707 0.66398 0.0
H1516 H 0.85922 0.82328 0.66559 0.0
H1517 H 0.75425 0.78896 0.65046 0.0
C1518 C 0.76877 0.83468 0.63745 0.0
C1519 C 0.7945 0.86338 0.63086 0.0
C1520 C 0.84167 0.79998 0.66519 0.0
C1521 C 0.80577 0.81593 0.64568 0.0
C1522 C 0.84769 0.77742 0.67478 0.0
C1523 C 0.82543 0.74703 0.67444 0.0
C1524 C 0.81289 0.79223 0.65554 0.0
C1525 C 0.79695 0.74019 0.66456 0.0
C1526 C 0.77428 0.81078 0.64471 0.0
C1527 C 0.82538 0.86702 0.6306 0.0
N1528 N 0.79135 0.7626 0.65565 0.0
N1529 N 0.83025 0.84375 0.63829 0.0
H1530 H 0.09238 0.83682 0.63797 0.0
H1531 H 0.90565 0.76022 0.673 0.0
H1532 H 0.04084 0.88605 0.63731 0.0
H1533 H 0.95329 0.70901 0.6647 0.0
H1534 H 0.95533 0.80656 0.66148 0.0
H1535 H 0.04232 0.78986 0.64851 0.0
C1536 C 0.07042 0.83765 0.6398 0.0
C1537 C 0.07074 0.86533 0.63678 0.0
C1538 C 0.95505 0.78524 0.66222 0.0
C1539 C 0.01337 0.8118 0.6493 0.0
C1540 C 0.92666 0.75871 0.66904 0.0
C1541 C 0.92552 0.73068 0.67048 0.0
C1542 C 0.98259 0.78385 0.65653 0.0
C1543 C 0.9533 0.73019 0.66421 0.0
C1544 C 0.04188 0.8109 0.64599 0.0
C1545 C 0.04169 0.86523 0.63977 0.0
N1546 N 0.98071 0.75631 0.65769 0.0
N1547 N 0.01429 0.83898 0.64593 0.0
H1548 H 0.14051 0.14829 0.61926 0.0
H1549 H 0.30091 0.25847 0.66678 0.0
H1550 H 0.14795 0.22385 0.64675 0.0
H1551 H 0.26425 0.1626 0.67407 0.0
H1552 H 0.24955 0.2508 0.65379 0.0
H1553 H 0.19242 0.15822 0.63262 0.0
C1554 C 0.15359 0.16728 0.62777 0.0
C1555 C 0.14076 0.18556 0.63185 0.0
C1556 C 0.25285 0.23153 0.65852 0.0
C1557 C 0.19901 0.19694 0.6471 0.0
C1558 C 0.28188 0.23586 0.66595 0.0
C1559 C 0.28647 0.21108 0.67182 0.0
C1560 C 0.22901 0.20236 0.65626 0.0
C1561 C 0.26152 0.18223 0.67011 0.0
C1562 C 0.18277 0.17278 0.63552 0.0
C1563 C 0.15778 0.20968 0.64321 0.0
N1564 N 0.23389 0.17866 0.66227 0.0
N1565 N 0.18631 0.21485 0.65044 0.0
H1566 H 0.81012 0.98677 0.6095 0.0
H1567 H 0.82539 0.06971 0.70924 0.0
H1568 H 0.77827 0.93692 0.67217 0.0
H1569 H 0.80001 0.09857 0.6493 0.0
H1570 H 0.81723 0.02408 0.69576 0.0
H1571 H 0.81585 0.03162 0.62346 0.0
C1572 C 0.80432 0.98533 0.62619 0.0
C1573 C 0.79369 0.95818 0.63972 0.0
C1574 C 0.81321 0.04035 0.68568 0.0
C1575 C 0.80095 1.00936 0.65585 0.0
C1576 C 0.8177 0.06639 0.6934 0.0
C1577 C 0.8128 0.08793 0.68063 0.0
C1578 C 0.8047 0.03617 0.66479 0.0
C1579 C 0.80375 0.08255 0.65989 0.0
C1580 C 0.80763 0.01084 0.63413 0.0
C1581 C 0.78697 0.95756 0.66131 0.0
N1582 N 0.80028 0.05737 0.65255 0.0
N1583 N 0.79095 0.98284 0.66877 0.0
H1584 H 0.51627 0.37525 0.77771 0.0
H1585 H 0.42139 0.30039 0.67849 0.0
H1586 H 0.52425 0.42647 0.71711 0.0
H1587 H 0.39819 0.25397 0.74235 0.0
H1588 H 0.46181 0.34575 0.69157 0.0
H1589 H 0.47589 0.3297 0.76445 0.0
C1590 C 0.50949 0.37683 0.76158 0.0
C1591 C 0.52356 0.40465 0.7485 0.0
C1592 C 0.44792 0.32567 0.70275 0.0
C1593 C 0.47754 0.35257 0.73306 0.0
C1594 C 0.42501 0.29961 0.69522 0.0
C1595 C 0.40665 0.27313 0.70923 0.0
C1596 C 0.45281 0.32532 0.72453 0.0
C1597 C 0.4117 0.27389 0.73095 0.0
C1598 C 0.48647 0.35086 0.75401 0.0
C1599 C 0.51424 0.40542 0.72763 0.0
N1600 N 0.43441 0.29943 0.7379 0.0
N1601 N 0.49187 0.37981 0.72056 0.0
H1602 H 0.59791 0.1281 0.74408 0.0
H1603 H 0.7813 0.19867 0.71056 0.0
H1604 H 0.67069 0.20941 0.76432 0.0
H1605 H 0.72024 0.10259 0.71909 0.0
H1606 H 0.73722 0.20486 0.72255 0.0
H1607 H 0.6395 0.11924 0.72918 0.0
C1608 C 0.62277 0.14354 0.74582 0.0
C1609 C 0.63139 0.16902 0.75578 0.0
C1610 C 0.73335 0.18243 0.72154 0.0
C1611 C 0.6784 0.16016 0.73806 0.0
C1612 C 0.75842 0.17889 0.71432 0.0
C1613 C 0.75428 0.15009 0.71352 0.0
C1614 C 0.70399 0.15695 0.72815 0.0
C1615 C 0.72415 0.12517 0.71935 0.0
C1616 C 0.64631 0.13874 0.73718 0.0
C1617 C 0.66357 0.18925 0.75708 0.0
N1618 N 0.69997 0.12913 0.72652 0.0
N1619 N 0.6861 0.18455 0.74811 0.0
H1620 H 0.94336 0.52357 0.7546 0.0
H1621 H 0.82325 0.57688 0.70683 0.0
H1622 H 0.84249 0.46446 0.7532 0.0
H1623 H 0.91182 0.63966 0.73042 0.0
H1624 H 0.83262 0.53583 0.721 0.0
H1625 H 0.93486 0.56693 0.74416 0.0
C1626 C 0.91941 0.51982 0.75243 0.0
C1627 C 0.89357 0.49048 0.75459 0.0
C1628 C 0.85001 0.55855 0.72317 0.0
C1629 C 0.88377 0.53957 0.74218 0.0
C1630 C 0.8448 0.58212 0.71494 0.0
C1631 C 0.86684 0.6119 0.71736 0.0
C1632 C 0.8777 0.56458 0.73376 0.0
C1633 C 0.89417 0.61706 0.72821 0.0
C1634 C 0.91458 0.54447 0.74635 0.0
C1635 C 0.86304 0.48673 0.75134 0.0
N1636 N 0.89897 0.59364 0.73589 0.0
N1637 N 0.85903 0.51088 0.74508 0.0
H1638 H 0.43373 0.84541 0.23606 0.0
H1639 H 0.56632 1.01031 0.18562 0.0
H1640 H 0.48589 0.91533 0.27434 0.0
H1641 H 0.48143 0.9541 0.15507 0.0
H1642 H 0.5474 0.97152 0.21673 0.0
H1643 H 0.46299 0.88079 0.20412 0.0
C1644 C 0.45209 0.86801 0.23767 0.0
C1645 C 0.45782 0.87758 0.25765 0.0
C1646 C 0.53329 0.96774 0.20302 0.0
C1647 C 0.49094 0.91798 0.22164 0.0
C1648 C 0.54386 0.98993 0.18532 0.0
C1649 C 0.52555 0.98566 0.16752 0.0
C1650 C 0.50453 0.94096 0.20276 0.0
C1651 C 0.49691 0.95838 0.16805 0.0
C1652 C 0.46856 0.88815 0.21958 0.0
C1653 C 0.48146 0.90707 0.25918 0.0
N1654 N 0.48736 0.93714 0.18532 0.0
N1655 N 0.49709 0.92642 0.24134 0.0
H1656 H 0.04627 0.52204 0.2774 0.0
H1657 H 0.04654 0.50725 0.15357 0.0
H1658 H 0.13271 0.56549 0.23701 0.0
H1659 H 0.96861 0.50479 0.18954 0.0
H1660 H 0.07713 0.51722 0.18523 0.0
H1661 H 0.01578 0.50184 0.24671 0.0
C1662 C 0.0588 0.52627 0.26215 0.0
C1663 C 0.09187 0.54495 0.25959 0.0
C1664 C 0.05319 0.5142 0.1861 0.0
C1665 C 0.05752 0.52282 0.22447 0.0
C1666 C 0.03573 0.50878 0.16798 0.0
C1667 C 0.00468 0.5051 0.16863 0.0
C1668 C 0.03939 0.51543 0.20516 0.0
C1669 C 0.99201 0.50672 0.18811 0.0
C1670 C 0.04151 0.51519 0.24463 0.0
C1671 C 0.10723 0.55072 0.23949 0.0
N1672 N 0.00932 0.51166 0.2055 0.0
N1673 N 0.08992 0.53985 0.2226 0.0
H1674 H 0.45527 0.51463 0.28238 0.0
H1675 H 0.48155 0.54047 0.15658 0.0
H1676 H 0.44092 0.58052 0.24274 0.0
H1677 H 0.47335 0.46174 0.19539 0.0
H1678 H 0.4641 0.55407 0.18758 0.0
H1679 H 0.45886 0.493 0.25081 0.0
C1680 C 0.45164 0.52375 0.26707 0.0
C1681 C 0.44699 0.54883 0.26512 0.0
C1682 C 0.46585 0.53367 0.18927 0.0
C1683 C 0.45277 0.52541 0.22877 0.0
C1684 C 0.47569 0.52577 0.1715 0.0
C1685 C 0.47937 0.50003 0.17328 0.0
C1686 C 0.45984 0.5159 0.2091 0.0
C1687 C 0.47171 0.48218 0.19324 0.0
C1688 C 0.45417 0.51175 0.24899 0.0
C1689 C 0.44406 0.56087 0.2448 0.0
N1690 N 0.46266 0.4906 0.21035 0.0
N1691 N 0.44736 0.5493 0.22739 0.0
H1692 H 0.97648 0.48526 0.7775 0.0
H1693 H 0.96731 0.53348 0.89155 0.0
H1694 H 0.88914 0.4732 0.80611 0.0
H1695 H 0.04734 0.52865 0.86513 0.0
H1696 H 0.93942 0.51694 0.85936 0.0
H1697 H 0.00472 0.50883 0.80774 0.0
C1698 C 0.96351 0.48825 0.79009 0.0
C1699 C 0.93069 0.4775 0.78948 0.0
C1700 C 0.96315 0.51967 0.86065 0.0
C1701 C 0.96235 0.50362 0.82443 0.0
C1702 C 0.97902 0.52889 0.87908 0.0
C1703 C 0.0099 0.53266 0.88111 0.0
C1704 C 0.9783 0.51429 0.8441 0.0
C1705 C 0.02392 0.52672 0.86424 0.0
C1706 C 0.97945 0.50141 0.80742 0.0
C1707 C 0.91459 0.48152 0.80611 0.0
N1708 N 0.00808 0.51791 0.84655 0.0
N1709 N 0.93054 0.49404 0.8231 0.0
H1710 H 0.59032 0.46441 0.81491 0.0
H1711 H 0.48269 0.5206 0.86588 0.0
H1712 H 0.54728 0.5093 0.77782 0.0
H1713 H 0.55789 0.51645 0.90084 0.0
H1714 H 0.50453 0.5132 0.83416 0.0
H1715 H 0.57915 0.48141 0.84699 0.0
C1716 C 0.57968 0.4789 0.81348 0.0
C1717 C 0.57023 0.48606 0.79376 0.0
C1718 C 0.51646 0.51415 0.84871 0.0
C1719 C 0.55588 0.5042 0.83027 0.0
C1720 C 0.50406 0.51854 0.86697 0.0
C1721 C 0.51866 0.51982 0.88629 0.0
C1722 C 0.54339 0.5102 0.84956 0.0
C1723 C 0.54556 0.51553 0.8865 0.0
C1724 C 0.57296 0.48827 0.83175 0.0
C1725 C 0.55547 0.50394 0.79271 0.0
N1726 N 0.55694 0.51077 0.86847 0.0
N1727 N 0.54826 0.51195 0.81073 0.0
H1728 H 0.60894 0.18254 0.81887 0.0
H1729 H 0.52822 1.00912 0.86803 0.0
H1730 H 0.5729 0.11091 0.78047 0.0
H1731 H 0.53171 0.07981 0.90061 0.0
H1732 H 0.55731 0.04666 0.83714 0.0
H1733 H 0.59552 0.14543 0.85071 0.0
C1734 C 0.59929 0.15902 0.81721 0.0
C1735 C 0.59227 0.14955 0.79726 0.0
C1736 C 0.55197 0.05382 0.85122 0.0
C1737 C 0.57611 0.10713 0.83319 0.0
C1738 C 0.53512 0.03242 0.86878 0.0
C1739 C 0.52737 0.04117 0.88705 0.0
C1740 C 0.5614 0.08417 0.85204 0.0
C1741 C 0.53756 0.07187 0.88716 0.0
C1742 C 0.59133 0.13787 0.83526 0.0
C1743 C 0.57919 0.11891 0.79566 0.0
N1744 N 0.55395 0.09216 0.86995 0.0
N1745 N 0.57113 0.09862 0.81346 0.0
H1746 H 0.14885 0.24225 0.60787 0.0
H1747 H 0.14269 0.28233 0.4869 0.0
H1748 H 0.09859 0.17358 0.56827 0.0
H1749 H 0.2275 0.33617 0.5184 0.0
H1750 H 0.12502 0.24321 0.51713 0.0
H1751 H 0.178 0.27795 0.57624 0.0
C1752 C 0.14491 0.23447 0.59253 0.0
C1753 C 0.12183 0.20496 0.59052 0.0
C1754 C 0.1477 0.26343 0.5173 0.0
C1755 C 0.15357 0.24578 0.55439 0.0
C1756 C 0.15799 0.28587 0.49996 0.0
C1757 C 0.18693 0.31274 0.49985 0.0
C1758 C 0.16592 0.26802 0.53503 0.0
C1759 C 0.20486 0.31613 0.51779 0.0
C1760 C 0.16123 0.25487 0.57449 0.0
C1761 C 0.11641 0.1962 0.57028 0.0
N1762 N 0.19388 0.29415 0.53478 0.0
N1763 N 0.13177 0.21669 0.5529 0.0
H1764 H 0.7991 0.89384 0.57512 0.0
H1765 H 0.63407 0.8357 0.52393 0.0
H1766 H 0.70981 0.85369 0.61219 0.0
H1767 H 0.71293 0.83559 0.49115 0.0
H1768 H 0.663 0.84444 0.55583 0.0
H1769 H 0.77007 0.87365 0.54382 0.0
C1770 C 0.77343 0.87982 0.57674 0.0
C1771 C 0.75664 0.87509 0.5961 0.0
C1772 C 0.67389 0.84221 0.54173 0.0
C1773 C 0.72334 0.85311 0.56055 0.0
C1774 C 0.65727 0.83704 0.52339 0.0
C1775 C 0.67066 0.83439 0.50461 0.0
C1776 C 0.70466 0.84555 0.54144 0.0
C1777 C 0.70156 0.8377 0.50504 0.0
C1778 C 0.75687 0.86857 0.55893 0.0
C1779 C 0.72341 0.85744 0.59749 0.0
N1780 N 0.7176 0.84333 0.5231 0.0
N1781 N 0.70778 0.84755 0.57988 0.0
H1782 H 0.15037 0.86677 0.61425 0.0
H1783 H 0.10668 0.83413 0.49495 0.0
H1784 H 0.09006 0.89506 0.58035 0.0
H1785 H 0.18421 0.82894 0.52588 0.0
H1786 H 0.09491 0.85103 0.52673 0.0
H1787 H 0.15591 0.84496 0.5833 0.0
C1788 C 0.13765 0.8676 0.60036 0.0
C1789 C 0.1195 0.88229 0.59977 0.0
C1790 C 0.11442 0.84607 0.52649 0.0
C1791 C 0.12633 0.85835 0.56403 0.0
C1792 C 0.12134 0.83665 0.50829 0.0
C1793 C 0.14632 0.82971 0.50768 0.0
C1794 C 0.13247 0.84843 0.54426 0.0
C1795 C 0.16422 0.83321 0.52564 0.0
C1796 C 0.14107 0.85555 0.58262 0.0
C1797 C 0.10392 0.8835 0.58135 0.0
N1798 N 0.15687 0.84212 0.5431 0.0
N1799 N 0.10782 0.87184 0.5641 0.0
H1800 H 0.61923 0.8388 0.10932 0.0
H1801 H 0.62357 0.81647 0.23502 0.0
H1802 H 0.54035 0.77078 0.15082 0.0
H1803 H 0.69467 0.89506 0.19488 0.0
H1804 H 0.59143 0.80119 0.20461 0.0
H1805 H 0.64584 0.86209 0.14031 0.0
C1806 C 0.60733 0.82921 0.12499 0.0
C1807 C 0.57789 0.80275 0.1277 0.0
C1808 C 0.61393 0.82193 0.20248 0.0
C1809 C 0.60817 0.82857 0.16316 0.0
C1810 C 0.6323 0.83081 0.21992 0.0
C1811 C 0.66214 0.85705 0.2176 0.0
C1812 C 0.6255 0.8392 0.18242 0.0
C1813 C 0.67221 0.87432 0.19742 0.0
C1814 C 0.62251 0.8423 0.14267 0.0
C1815 C 0.56336 0.7909 0.14824 0.0
N1816 N 0.65411 0.86495 0.18061 0.0
N1817 N 0.57881 0.80363 0.16522 0.0
H1818 H 0.26451 0.80574 0.14459 0.0
H1819 H 0.15192 0.8543 0.20048 0.0
H1820 H 0.20449 0.83498 0.11134 0.0
H1821 H 0.23198 0.85523 0.23195 0.0
H1822 H 0.17076 0.84514 0.16829 0.0
H1823 H 0.25473 0.82338 0.17687 0.0
C1824 C 0.2503 0.81697 0.14394 0.0
C1825 C 0.23567 0.81948 0.12531 0.0
C1826 C 0.18445 0.84755 0.18214 0.0
C1827 C 0.22319 0.83835 0.1621 0.0
C1828 C 0.17373 0.85291 0.20065 0.0
C1829 C 0.19063 0.85621 0.21907 0.0
C1830 C 0.21216 0.84482 0.18182 0.0
C1831 C 0.21806 0.85285 0.21824 0.0
C1832 C 0.24437 0.82665 0.16236 0.0
C1833 C 0.21657 0.83319 0.12534 0.0
N1834 N 0.22795 0.8473 0.19994 0.0
N1835 N 0.21056 0.84173 0.14346 0.0
H1836 H 0.27699 0.48917 0.14828 0.0
H1837 H 0.1487 0.32629 0.19997 0.0
H1838 H 0.20639 0.42398 0.1133 0.0
H1839 H 0.23304 0.38117 0.2314 0.0
H1840 H 0.17255 0.36024 0.16719 0.0
H1841 H 0.2653 0.44904 0.17795 0.0
C1842 C 0.25975 0.46616 0.14673 0.0
C1843 C 0.24247 0.45952 0.12863 0.0
C1844 C 0.18606 0.36471 0.18118 0.0
C1845 C 0.22834 0.41399 0.16222 0.0
C1846 C 0.17247 0.34516 0.19997 0.0
C1847 C 0.18862 0.35095 0.21867 0.0
C1848 C 0.21587 0.39059 0.18105 0.0
C1849 C 0.21925 0.37618 0.21756 0.0
C1850 C 0.25291 0.44334 0.16359 0.0
C1851 C 0.22004 0.42965 0.12717 0.0
N1852 N 0.23168 0.39531 0.19916 0.0
N1853 N 0.21324 0.40802 0.14388 0.0
H1854 H 0.80183 0.52658 0.90839 0.0
H1855 H 0.88092 0.69775 0.85382 0.0
H1856 H 0.7953 0.59668 0.93519 0.0
H1857 H 0.87579 0.62606 0.82187 0.0
H1858 H 0.85892 0.66258 0.88649 0.0
H1859 H 0.83789 0.56415 0.87917 0.0
C1860 C 0.80843 0.55001 0.90812 0.0
C1861 C 0.79544 0.55881 0.9237 0.0
C1862 C 0.86289 0.65458 0.87239 0.0
C1863 C 0.83621 0.60156 0.89087 0.0
C1864 C 0.87567 0.67472 0.85376 0.0
C1865 C 0.87981 0.66474 0.83503 0.0
C1866 C 0.85411 0.6242 0.87229 0.0
C1867 C 0.87233 0.63454 0.83587 0.0
C1868 C 0.82881 0.57136 0.89156 0.0
C1869 C 0.80455 0.58924 0.92307 0.0
N1870 N 0.85955 0.61525 0.85415 0.0
N1871 N 0.82421 0.60955 0.90681 0.0
H1872 H 0.37322 0.19185 0.94387 0.0
H1873 H 0.38164 0.17024 0.82183 0.0
H1874 H 0.46274 0.22325 0.90884 0.0
H1875 H 0.30331 0.17185 0.85407 0.0
H1876 H 0.41026 0.18041 0.85444 0.0
H1877 H 0.3451 0.17229 0.91247 0.0
C1878 C 0.38678 0.19363 0.92965 0.0
C1879 C 0.42011 0.20872 0.92885 0.0
C1880 C 0.38669 0.17828 0.85429 0.0
C1881 C 0.38849 0.18756 0.89261 0.0
C1882 C 0.37038 0.17271 0.83563 0.0
C1883 C 0.33971 0.1699 0.83504 0.0
C1884 C 0.37211 0.18069 0.87256 0.0
C1885 C 0.3264 0.17297 0.85368 0.0
C1886 C 0.37088 0.18292 0.91167 0.0
C1887 C 0.43694 0.21127 0.91001 0.0
N1888 N 0.34256 0.17806 0.87155 0.0
N1889 N 0.42095 0.20105 0.89247 0.0
H1890 H 0.77472 0.2524 0.90753 0.0
H1891 H 0.80048 0.12587 0.86216 0.0
H1892 H 0.78301 0.18292 0.94732 0.0
H1893 H 0.81523 0.2076 0.82414 0.0
H1894 H 0.78381 0.14103 0.89265 0.0
H1895 H 0.77843 0.23042 0.87614 0.0
C1896 C 0.7765 0.23201 0.9096 0.0
C1897 C 0.77837 0.21929 0.92995 0.0
C1898 C 0.79047 0.15553 0.87759 0.0
C1899 C 0.78315 0.19422 0.89423 0.0
C1900 C 0.80019 0.14699 0.86014 0.0
C1901 C 0.80987 0.16568 0.84048 0.0
C1902 C 0.79011 0.1829 0.87548 0.0
C1903 C 0.80795 0.19234 0.83885 0.0
C1904 C 0.77886 0.2196 0.89173 0.0
C1905 C 0.78095 0.19305 0.93192 0.0
N1906 N 0.79855 0.20023 0.85612 0.0
N1907 N 0.78355 0.18151 0.91427 0.0
H1908 H 0.30566 0.15311 0.44313 0.0
H1909 H 0.30174 0.2019 0.55773 0.0
H1910 H 0.21905 0.13844 0.4747 0.0
H1911 H 0.38018 0.19595 0.52977 0.0
H1912 H 0.27251 0.18534 0.52602 0.0
H1913 H 0.33549 0.17766 0.47264 0.0
C1914 C 0.29315 0.15567 0.45622 0.0
C1915 C 0.26007 0.1438 0.45671 0.0
C1916 C 0.29621 0.18788 0.52686 0.0
C1917 C 0.29359 0.17119 0.49073 0.0
C1918 C 0.31284 0.1971 0.54502 0.0
C1919 C 0.34365 0.20052 0.5465 0.0
C1920 C 0.31053 0.18217 0.51002 0.0
C1921 C 0.35686 0.19433 0.52931 0.0
C1922 C 0.31001 0.16943 0.47311 0.0
C1923 C 0.24465 0.14752 0.47389 0.0
N1924 N 0.34029 0.18553 0.51188 0.0
N1925 N 0.26151 0.16066 0.49041 0.0
H1926 H 0.87799 0.17318 0.44339 0.0
H1927 H 0.89681 0.18324 0.56785 0.0
H1928 H 0.92306 0.13029 0.48046 0.0
H1929 H 0.82265 0.18981 0.53311 0.0
H1930 H 0.91536 0.17265 0.53554 0.0
H1931 H 0.8685 0.19111 0.47533 0.0
C1932 C 0.88695 0.1686 0.45818 0.0
C1933 C 0.90181 0.15082 0.45935 0.0
C1934 C 0.89516 0.17663 0.53509 0.0
C1935 C 0.89015 0.17016 0.49611 0.0
C1936 C 0.88432 0.18243 0.55358 0.0
C1937 C 0.85819 0.18784 0.5534 0.0
C1938 C 0.88008 0.17662 0.51616 0.0
C1939 C 0.8434 0.18676 0.53416 0.0
C1940 C 0.88111 0.17833 0.47646 0.0
C1941 C 0.91207 0.14447 0.47899 0.0
N1942 N 0.85463 0.1815 0.51644 0.0
N1943 N 0.90589 0.15397 0.49668 0.0
H1944 H 0.90269 0.77538 0.44766 0.0
H1945 H 0.86233 0.74624 0.57032 0.0
H1946 H 0.94008 0.84602 0.48687 0.0
H1947 H 0.85454 0.67538 0.5361 0.0
H1948 H 0.89266 0.78286 0.53993 0.0
H1949 H 0.88827 0.73814 0.47937 0.0
C1950 C 0.90917 0.783 0.46294 0.0
C1951 C 0.92302 0.81362 0.46483 0.0
C1952 C 0.8847 0.75935 0.53911 0.0
C1953 C 0.90513 0.77145 0.50112 0.0
C1954 C 0.86736 0.7383 0.55655 0.0
C1955 C 0.85589 0.70749 0.55594 0.0
C1956 C 0.89016 0.74969 0.52061 0.0
C1957 C 0.86246 0.69878 0.53725 0.0
C1958 C 0.90055 0.76181 0.48105 0.0
C1959 C 0.92975 0.82252 0.48496 0.0
N1960 N 0.87891 0.71976 0.52024 0.0
N1961 N 0.92022 0.80149 0.50242 0.0
loop_
_geom_bond_atom_site_label_1
_geom_bond_atom_site_label_2
_geom_bond_distance
_geom_bond_site_symmetry_2
_ccdc_geom_bond_type
C0 N1 1.317 . S
C0 N2 1.348 . S
C0 C3 1.485 . S
N1 C0 1.317 . S
N1 N5 1.370 . S
N2 C0 1.348 . S
N2 C4 1.346 . S
C3 C0 1.485 . S
C3 H7 0.960 . S
C3 H8 0.961 . S
C3 H9 0.960 . S
C4 N2 1.346 . S
C4 N5 1.307 . S
C4 C6 1.486 . S
N5 N1 1.370 . S
N5 C4 1.307 . S
C6 C4 1.486 . S
C6 H10 0.960 . S
C6 H11 0.960 . S
C6 H12 0.959 . S
H7 C3 0.960 . S
H8 C3 0.961 . S
H9 C3 0.960 . S
H10 C6 0.960 . S
H11 C6 0.960 . S
H12 C6 0.959 . S
C13 N14 1.317 . S
C13 N15 1.348 . S
C13 C16 1.485 . S
N14 C13 1.317 . S
N14 N18 1.370 . S
N15 C13 1.348 . S
N15 C17 1.346 . S
C16 C13 1.485 . S
C16 H20 0.960 . S
C16 H21 0.961 . S
C16 H22 0.960 . S
C17 N15 1.346 . S
C17 N18 1.307 . S
C17 C19 1.486 . S
N18 N14 1.370 . S
N18 C17 1.307 . S
C19 C17 1.486 . S
C19 H23 0.960 . S
C19 H24 0.960 . S
C19 H25 0.959 . S
H20 C16 0.960 . S
H21 C16 0.961 . S
H22 C16 0.960 . S
H23 C19 0.960 . S
H24 C19 0.960 . S
H25 C19 0.959 . S
C26 N27 1.317 . S
C26 N28 1.348 . S
C26 C29 1.485 . S
N27 C26 1.317 . S
N27 N31 1.370 . S
N28 C26 1.348 . S
N28 C30 1.346 . S
C29 C26 1.485 . S
C29 H33 0.960 . S
C29 H34 0.961 . S
C29 H35 0.960 . S
C30 N28 1.346 . S
C30 N31 1.307 . S
C30 C32 1.486 . S
N31 N27 1.370 . S
N31 C30 1.307 . S
C32 C30 1.486 . S
C32 H36 0.960 . S
C32 H37 0.960 . S
C32 H38 0.959 . S
H33 C29 0.960 . S
H34 C29 0.961 . S
H35 C29 0.960 . S
H36 C32 0.960 . S
H37 C32 0.960 . S
H38 C32 0.959 . S
C39 N40 1.317 . S
C39 N41 1.348 . S
C39 C42 1.485 . S
N40 C39 1.317 . S
N40 N44 1.370 . S
N41 C39 1.348 . S
N41 C43 1.346 . S
C42 C39 1.485 . S
C42 H46 0.960 . S
C42 H47 0.961 . S
C42 H48 0.960 . S
C43 N41 1.346 . S
C43 N44 1.307 . S
C43 C45 1.486 . S
N44 N40 1.370 . S
N44 C43 1.307 . S
C45 C43 1.486 . S
C45 H49 0.960 . S
C45 H50 0.960 . S
C45 H51 0.959 . S
H46 C42 0.960 . S
H47 C42 0.961 . S
H48 C42 0.960 . S
H49 C45 0.960 . S
H50 C45 0.960 . S
H51 C45 0.959 . S
C52 N53 1.317 . S
C52 N54 1.348 . S
C52 C55 1.485 . S
N53 C52 1.317 . S
N53 N57 1.370 . S
N54 C52 1.348 . S
N54 C56 1.346 . S
C55 C52 1.485 . S
C55 H59 0.960 . S
C55 H60 0.961 . S
C55 H61 0.960 . S
C56 N54 1.346 . S
C56 N57 1.307 . S
C56 C58 1.486 . S
N57 N53 1.370 . S
N57 C56 1.307 . S
C58 C56 1.486 . S
C58 H62 0.960 . S
C58 H63 0.960 . S
C58 H64 0.959 . S
H59 C55 0.960 . S
H60 C55 0.961 . S
H61 C55 0.960 . S
H62 C58 0.960 . S
H63 C58 0.960 . S
H64 C58 0.959 . S
C65 N66 1.317 . S
C65 N67 1.348 . S
C65 C68 1.485 . S
N66 C65 1.317 . S
N66 N70 1.370 . S
N67 C65 1.348 . S
N67 C69 1.346 . S
C68 C65 1.485 . S
C68 H72 0.960 . S
C68 H73 0.961 . S
C68 H74 0.960 . S
C69 N67 1.346 . S
C69 N70 1.307 . S
C69 C71 1.486 . S
N70 N66 1.370 . S
N70 C69 1.307 . S
C71 C69 1.486 . S
C71 H75 0.960 . S
C71 H76 0.960 . S
C71 H77 0.959 . S
H72 C68 0.960 . S
H73 C68 0.961 . S
H74 C68 0.960 . S
H75 C71 0.960 . S
H76 C71 0.960 . S
H77 C71 0.959 . S
C78 N79 1.317 . S
C78 N80 1.348 . S
C78 C81 1.485 . S
N79 C78 1.317 . S
N79 N83 1.370 . S
N80 C78 1.348 . S
N80 C82 1.346 . S
C81 C78 1.485 . S
C81 H85 0.960 . S
C81 H86 0.961 . S
C81 H87 0.960 . S
C82 N80 1.346 . S
C82 N83 1.307 . S
C82 C84 1.486 . S
N83 N79 1.370 . S
N83 C82 1.307 . S
C84 C82 1.486 . S
C84 H88 0.960 . S
C84 H89 0.960 . S
C84 H90 0.959 . S
H85 C81 0.960 . S
H86 C81 0.961 . S
H87 C81 0.960 . S
H88 C84 0.960 . S
H89 C84 0.960 . S
H90 C84 0.959 . S
C91 N92 1.317 . S
C91 N93 1.348 . S
C91 C94 1.485 . S
N92 C91 1.317 . S
N92 N96 1.370 . S
N93 C91 1.348 . S
N93 C95 1.346 . S
C94 C91 1.485 . S
C94 H98 0.960 . S
C94 H99 0.961 . S
C94 H100 0.960 . S
C95 N93 1.346 . S
C95 N96 1.307 . S
C95 C97 1.486 . S
N96 N92 1.370 . S
N96 C95 1.307 . S
C97 C95 1.486 . S
C97 H101 0.960 . S
C97 H102 0.960 . S
C97 H103 0.959 . S
H98 C94 0.960 . S
H99 C94 0.961 . S
H100 C94 0.960 . S
H101 C97 0.960 . S
H102 C97 0.960 . S
H103 C97 0.959 . S
C104 N105 1.317 . S
C104 N106 1.348 . S
C104 C107 1.485 . S
N105 C104 1.317 . S
N105 N109 1.370 . S
N106 C104 1.348 . S
N106 C108 1.346 . S
C107 C104 1.485 . S
C107 H111 0.960 . S
C107 H112 0.961 . S
C107 H113 0.960 . S
C108 N106 1.346 . S
C108 N109 1.307 . S
C108 C110 1.486 . S
N109 N105 1.370 . S
N109 C108 1.307 . S
C110 C108 1.486 . S
C110 H114 0.960 . S
C110 H115 0.960 . S
C110 H116 0.959 . S
H111 C107 0.960 . S
H112 C107 0.961 . S
H113 C107 0.960 . S
H114 C110 0.960 . S
H115 C110 0.960 . S
H116 C110 0.959 . S
C117 N118 1.317 . S
C117 N119 1.348 . S
C117 C120 1.485 . S
N118 C117 1.317 . S
N118 N122 1.370 . S
N119 C117 1.348 . S
N119 C121 1.346 . S
C120 C117 1.485 . S
C120 H124 0.960 . S
C120 H125 0.961 1_556 S
C120 H126 0.960 . S
C121 N119 1.346 . S
C121 N122 1.307 . S
C121 C123 1.486 . S
N122 N118 1.370 . S
N122 C121 1.307 . S
C123 C121 1.486 . S
C123 H127 0.960 . S
C123 H128 0.960 . S
C123 H129 0.959 . S
H124 C120 0.960 . S
H125 C120 0.961 1_554 S
H126 C120 0.960 . S
H127 C123 0.960 . S
H128 C123 0.960 . S
H129 C123 0.959 . S
C130 N131 1.317 . S
C130 N132 1.348 . S
C130 C133 1.446 1_556 S
N131 C130 1.317 . S
N131 N135 1.370 . S
N132 C130 1.348 . S
N132 C134 1.346 . S
C133 C130 1.446 1_554 S
C133 H137 0.989 . S
C133 H138 0.978 . S
C133 H139 0.956 . S
C134 N132 1.346 . S
C134 N135 1.307 . S
C134 C136 1.486 . S
N135 N131 1.370 . S
N135 C134 1.307 . S
C136 C134 1.486 . S
C136 H140 0.960 . S
C136 H141 0.960 . S
C136 H142 0.959 . S
H137 C133 0.989 . S
H138 C133 0.978 . S
H139 C133 0.956 . S
H140 C136 0.960 . S
H141 C136 0.960 . S
H142 C136 0.959 . S
C143 N144 1.317 . S
C143 N145 1.348 . S
C143 C146 1.485 1_556 S
N144 C143 1.317 . S
N144 N148 1.370 . S
N145 C143 1.348 . S
N145 C147 1.346 . S
C146 C143 1.485 1_554 S
C146 H150 0.960 . S
C146 H151 0.961 . S
C146 H152 0.960 . S
C147 N145 1.346 . S
C147 N148 1.307 . S
C147 C149 1.486 . S
N148 N144 1.370 . S
N148 C147 1.307 . S
C149 C147 1.486 . S
C149 H153 0.960 . S
C149 H154 0.960 . S
C149 H155 0.959 . S
H150 C146 0.960 . S
H151 C146 0.961 . S
H152 C146 0.960 . S
H153 C149 0.960 . S
H154 C149 0.960 . S
H155 C149 0.959 . S
C156 N157 1.317 . S
C156 N158 1.348 . S
C156 C159 1.485 . S
N157 C156 1.317 . S
N157 N161 1.370 . S
N158 C156 1.348 . S
N158 C160 1.346 . S
C159 C156 1.485 . S
C159 H163 0.960 . S
C159 H164 0.961 . S
C159 H165 0.960 . S
C160 N158 1.346 . S
C160 N161 1.307 . S
C160 C162 1.486 . S
N161 N157 1.370 . S
N161 C160 1.307 . S
C162 C160 1.486 . S
C162 H166 0.960 . S
C162 H167 0.960 . S
C162 H168 0.959 . S
H163 C159 0.960 . S
H164 C159 0.961 . S
H165 C159 0.960 . S
H166 C162 0.960 . S
H167 C162 0.960 . S
H168 C162 0.959 . S
C169 N170 1.317 . S
C169 N171 1.348 . S
C169 C172 1.485 . S
N170 C169 1.317 . S
N170 N174 1.370 . S
N171 C169 1.348 . S
N171 C173 1.346 . S
C172 C169 1.485 . S
C172 H176 0.960 . S
C172 H177 0.961 . S
C172 H178 0.960 . S
C173 N171 1.346 . S
C173 N174 1.307 . S
C173 C175 1.486 . S
N174 N170 1.370 . S
N174 C173 1.307 . S
C175 C173 1.486 . S
C175 H179 0.960 . S
C175 H180 0.960 . S
C175 H181 0.959 . S
H176 C172 0.960 . S
H177 C172 0.961 . S
H178 C172 0.960 . S
H179 C175 0.960 . S
H180 C175 0.960 . S
H181 C175 0.959 . S
C182 N183 1.317 . S
C182 N184 1.348 . S
C182 C185 1.485 . S
N183 C182 1.317 . S
N183 N187 1.370 . S
N184 C182 1.348 . S
N184 C186 1.346 . S
C185 C182 1.485 . S
C185 H189 0.960 . S
C185 H190 0.961 . S
C185 H191 0.960 . S
C186 N184 1.346 . S
C186 N187 1.307 . S
C186 C188 1.486 . S
N187 N183 1.370 . S
N187 C186 1.307 . S
C188 C186 1.486 . S
C188 H192 0.960 . S
C188 H193 0.960 . S
C188 H194 0.959 . S
H189 C185 0.960 . S
H190 C185 0.961 . S
H191 C185 0.960 . S
H192 C188 0.960 . S
H193 C188 0.960 . S
H194 C188 0.959 . S
C195 N196 1.317 . S
C195 N197 1.348 . S
C195 C198 1.485 . S
N196 C195 1.317 . S
N196 N200 1.370 . S
N197 C195 1.348 . S
N197 C199 1.346 . S
C198 C195 1.485 . S
C198 H202 0.960 . S
C198 H203 0.961 . S
C198 H204 0.960 . S
C199 N197 1.346 . S
C199 N200 1.307 . S
C199 C201 1.486 . S
N200 N196 1.370 . S
N200 C199 1.307 . S
C201 C199 1.486 . S
C201 H205 0.960 . S
C201 H206 0.960 . S
C201 H207 0.959 . S
H202 C198 0.960 . S
H203 C198 0.961 . S
H204 C198 0.960 . S
H205 C201 0.960 . S
H206 C201 0.960 . S
H207 C201 0.959 . S
C208 N209 1.317 . S
C208 N210 1.348 . S
C208 C211 1.485 . S
N209 C208 1.317 . S
N209 N213 1.370 . S
N210 C208 1.348 . S
N210 C212 1.346 . S
C211 C208 1.485 . S
C211 H215 0.960 . S
C211 H216 0.961 . S
C211 H217 0.960 . S
C212 N210 1.346 . S
C212 N213 1.307 . S
C212 C214 1.486 . S
N213 N209 1.370 . S
N213 C212 1.307 . S
C214 C212 1.486 . S
C214 H218 0.960 . S
C214 H219 0.960 . S
C214 H220 0.959 . S
H215 C211 0.960 . S
H216 C211 0.961 . S
H217 C211 0.960 . S
H218 C214 0.960 . S
H219 C214 0.960 . S
H220 C214 0.959 . S
C221 N222 1.317 . S
C221 N223 1.348 . S
C221 C224 1.485 . S
N222 C221 1.317 . S
N222 N226 1.370 . S
N223 C221 1.348 . S
N223 C225 1.346 . S
C224 C221 1.485 . S
C224 H228 0.960 . S
C224 H229 0.961 . S
C224 H230 0.960 . S
C225 N223 1.346 . S
C225 N226 1.307 . S
C225 C227 1.486 . S
N226 N222 1.370 . S
N226 C225 1.307 . S
C227 C225 1.486 . S
C227 H231 0.960 . S
C227 H232 0.960 . S
C227 H233 0.959 . S
H228 C224 0.960 . S
H229 C224 0.961 . S
H230 C224 0.960 . S
H231 C227 0.960 . S
H232 C227 0.960 . S
H233 C227 0.959 . S
Tb234 N265 2.660 . S
Tb234 N272 2.600 . S
Tb234 O278 2.546 . S
Tb234 O279 2.610 1_566 S
Tb234 O281 2.320 1_565 S
Tb234 O282 2.552 1_565 S
Tb234 O283 2.413 1_565 S
Tb234 O285 2.362 1_556 S
Tb234 O286 2.421 1_556 S
Tb234 C298 2.833 1_565 S
C235 C238 1.432 . S
C235 C239 1.414 . S
C235 N242 1.359 . S
C236 C238 1.417 . S
C236 C240 1.432 . S
C236 C248 1.410 . S
C237 C239 1.444 . S
C237 C240 1.317 . S
C237 H260 0.929 . S
C238 C235 1.432 . S
C238 C236 1.417 . S
C238 N246 1.360 . S
C239 C235 1.414 . S
C239 C237 1.444 . S
C239 C244 1.385 . S
C240 C236 1.432 . S
C240 C237 1.317 . S
C240 H252 0.930 . S
C241 C243 1.392 . S
C241 C244 1.370 . S
C241 H253 0.931 . S
N242 C235 1.359 . S
N242 C243 1.327 . S
N242 Tb245 2.600 . S
C243 C241 1.392 . S
C243 N242 1.327 . S
C243 H250 0.930 . S
C244 C239 1.385 . S
C244 C241 1.370 . S
C244 H263 0.930 . S
Tb245 N242 2.600 . S
Tb245 N246 2.660 . S
Tb245 O279 2.362 . S
Tb245 O280 2.421 . S
Tb245 O284 2.546 . S
Tb245 O285 2.610 1_545 S
Tb245 O287 2.320 1_545 S
Tb245 O288 2.552 1_545 S
Tb245 O289 2.413 1_545 S
Tb245 C309 2.833 1_545 S
N246 C238 1.360 . S
N246 Tb245 2.660 . S
N246 C247 1.305 . S
C247 N246 1.305 . S
C247 C249 1.407 . S
C247 H254 0.930 . S
C248 C236 1.410 . S
C248 C249 1.345 . S
C248 H256 0.930 . S
C249 C247 1.407 . S
C249 C248 1.345 . S
C249 H251 0.930 . S
H250 C243 0.930 . S
H251 C249 0.930 . S
H252 C240 0.930 . S
H253 C241 0.931 . S
H254 C247 0.930 . S
H255 C269 0.930 . S
H256 C248 0.930 . S
H257 C275 0.930 . S
H258 C266 0.930 1_545 S
H259 C273 0.931 . S
H260 C237 0.929 . S
H261 C267 0.930 . S
H262 C300 0.930 . S
H263 C244 0.930 . S
H264 C299 0.929 . S
N265 Tb234 2.660 . S
N265 C266 1.305 . S
N265 C270 1.360 . S
C266 H258 0.930 1_565 S
C266 N265 1.305 . S
C266 C269 1.407 . S
C267 H261 0.930 . S
C267 C268 1.410 . S
C267 C269 1.345 . S
C268 C267 1.410 . S
C268 C270 1.417 . S
C268 C300 1.432 . S
C269 H255 0.930 . S
C269 C266 1.407 . S
C269 C267 1.345 . S
C270 N265 1.360 . S
C270 C268 1.417 . S
C270 C274 1.432 . S
H271 C276 0.930 . S
N272 Tb234 2.600 . S
N272 C274 1.359 . S
N272 C275 1.327 . S
C273 H259 0.931 . S
C273 C275 1.392 . S
C273 C276 1.370 . S
C274 C270 1.432 . S
C274 N272 1.359 . S
C274 C277 1.414 . S
C275 H257 0.930 . S
C275 N272 1.327 . S
C275 C273 1.392 . S
C276 H271 0.930 . S
C276 C273 1.370 . S
C276 C277 1.385 . S
C277 C274 1.414 . S
C277 C276 1.385 . S
C277 C299 1.444 . S
O278 Tb234 2.546 . S
O278 C298 1.251 1_565 S
O279 Tb234 2.610 1_544 S
O279 Tb245 2.362 . S
O279 C290 1.283 . S
O280 Tb245 2.421 . S
O280 C297 1.262 . S
O281 Tb234 2.320 1_545 S
O281 C297 1.260 1_556 S
O282 Tb234 2.552 1_545 S
O282 C290 1.243 1_556 S
O283 Tb234 2.413 1_545 S
O283 C298 1.256 . S
O284 Tb245 2.546 . S
O284 C309 1.251 1_545 S
O285 Tb234 2.362 1_554 S
O285 Tb245 2.610 1_565 S
O285 C301 1.283 . S
O286 Tb234 2.421 1_554 S
O286 C308 1.262 . S
O287 Tb245 2.320 1_565 S
O287 C308 1.260 . S
O288 Tb245 2.552 1_565 S
O288 C301 1.243 . S
O289 Tb245 2.413 1_565 S
O289 C309 1.256 . S
C290 O279 1.283 . S
C290 O282 1.243 1_554 S
C291 C293 1.382 . S
C291 C295 1.393 . S
C291 C298 1.500 . S
C292 C293 1.400 . S
C292 C294 1.384 . S
C293 C291 1.382 . S
C293 C292 1.400 . S
C293 H310 0.930 . S
C294 C292 1.384 . S
C294 C296 1.392 . S
C294 H311 0.931 . S
C295 C291 1.393 . S
C295 C296 1.401 . S
C295 H312 0.930 1_545 S
C296 C294 1.392 . S
C296 C295 1.401 . S
C296 H313 0.930 . S
C297 O280 1.262 . S
C297 O281 1.260 1_554 S
C298 Tb234 2.833 1_545 S
C298 O278 1.251 1_545 S
C298 O283 1.256 . S
C298 C291 1.500 . S
C299 H264 0.929 . S
C299 C277 1.444 . S
C299 C300 1.317 . S
C300 H262 0.930 . S
C300 C268 1.432 . S
C300 C299 1.317 . S
C301 O285 1.283 . S
C301 O288 1.243 . S
C302 C303 1.382 . S
C302 C306 1.393 . S
C302 C309 1.500 . S
C303 C302 1.382 . S
C303 C304 1.400 . S
C303 H314 0.930 . S
C304 C303 1.400 . S
C304 C305 1.384 . S
C305 C304 1.384 . S
C305 C307 1.392 . S
C305 H315 0.931 . S
C306 C302 1.393 . S
C306 C307 1.401 . S
C306 H316 0.930 1_565 S
C307 C305 1.392 . S
C307 C306 1.401 . S
C307 H317 0.930 . S
C308 O286 1.262 . S
C308 O287 1.260 . S
C309 Tb245 2.833 1_565 S
C309 O284 1.251 1_565 S
C309 O289 1.256 . S
C309 C302 1.500 . S
H310 C293 0.930 . S
H311 C294 0.931 . S
H312 C295 0.930 1_565 S
H313 C296 0.930 . S
H314 C303 0.930 . S
H315 C305 0.931 . S
H316 C306 0.930 1_545 S
H317 C307 0.930 . S
Tb318 N349 2.660 . S
Tb318 N356 2.600 . S
Tb318 O362 2.546 . S
Tb318 O363 2.610 1_456 S
Tb318 O365 2.320 1_455 S
Tb318 O366 2.552 1_455 S
Tb318 O367 2.413 . S
Tb318 O369 2.362 1_556 S
Tb318 O370 2.421 . S
Tb318 C382 2.833 . S
C319 C322 1.432 . S
C319 C323 1.414 . S
C319 N326 1.359 . S
C320 C322 1.417 . S
C320 C324 1.432 . S
C320 C332 1.410 . S
C321 C323 1.444 . S
C321 C324 1.317 . S
C321 H344 0.929 . S
C322 C319 1.432 . S
C322 C320 1.417 . S
C322 N330 1.360 . S
C323 C319 1.414 . S
C323 C321 1.444 . S
C323 C328 1.385 . S
C324 C320 1.432 . S
C324 C321 1.317 . S
C324 H336 0.930 . S
C325 C327 1.392 . S
C325 C328 1.370 . S
C325 H337 0.931 . S
N326 C319 1.359 . S
N326 C327 1.327 . S
N326 Tb329 2.600 . S
C327 C325 1.392 . S
C327 N326 1.327 . S
C327 H334 0.930 . S
C328 C323 1.385 . S
C328 C325 1.370 . S
C328 H347 0.930 . S
Tb329 N326 2.600 . S
Tb329 N330 2.660 . S
Tb329 O363 2.362 . S
Tb329 O364 2.421 . S
Tb329 O368 2.546 . S
Tb329 O369 2.610 1_655 S
Tb329 O371 2.320 1_655 S
Tb329 O372 2.552 1_655 S
Tb329 O373 2.412 1_655 S
Tb329 C393 2.833 . S
N330 C322 1.360 . S
N330 Tb329 2.660 . S
N330 C331 1.305 . S
C331 N330 1.305 . S
C331 C333 1.407 . S
C331 H338 0.930 . S
C332 C320 1.410 . S
C332 C333 1.345 . S
C332 H340 0.930 . S
C333 C331 1.407 . S
C333 C332 1.345 . S
C333 H335 0.930 . S
H334 C327 0.930 . S
H335 C333 0.930 . S
H336 C324 0.930 . S
H337 C325 0.931 . S
H338 C331 0.930 . S
H339 C353 0.930 . S
H340 C332 0.930 . S
H341 C359 0.930 . S
H342 C350 0.930 . S
H343 C357 0.931 . S
H344 C321 0.929 . S
H345 C351 0.930 . S
H346 C384 0.930 . S
H347 C328 0.930 . S
H348 C383 0.929 . S
N349 Tb318 2.660 . S
N349 C350 1.305 . S
N349 C354 1.360 . S
C350 H342 0.930 . S
C350 N349 1.305 . S
C350 C353 1.407 . S
C351 H345 0.930 . S
C351 C352 1.410 . S
C351 C353 1.345 . S
C352 C351 1.410 . S
C352 C354 1.417 . S
C352 C384 1.432 . S
C353 H339 0.930 . S
C353 C350 1.407 . S
C353 C351 1.345 . S
C354 N349 1.360 . S
C354 C352 1.417 . S
C354 C358 1.432 . S
H355 C360 0.930 . S
N356 Tb318 2.600 . S
N356 C358 1.359 . S
N356 C359 1.327 . S
C357 H343 0.931 . S
C357 C359 1.392 . S
C357 C360 1.370 . S
C358 C354 1.432 . S
C358 N356 1.359 . S
C358 C361 1.414 . S
C359 H341 0.930 . S
C359 N356 1.327 . S
C359 C357 1.392 . S
C360 H355 0.930 . S
C360 C357 1.370 . S
C360 C361 1.385 . S
C361 C358 1.414 . S
C361 C360 1.385 . S
C361 C383 1.444 . S
O362 Tb318 2.546 . S
O362 C382 1.251 . S
O363 Tb318 2.610 1_654 S
O363 Tb329 2.362 . S
O363 C374 1.283 1_554 S
O364 Tb329 2.421 . S
O364 C381 1.262 . S
O365 Tb318 2.320 1_655 S
O365 C381 1.260 1_556 S
O366 Tb318 2.552 1_655 S
O366 C374 1.243 . S
O367 Tb318 2.413 . S
O367 C382 1.256 . S
O368 Tb329 2.546 . S
O368 C393 1.251 . S
O369 Tb318 2.362 1_554 S
O369 Tb329 2.610 1_455 S
O369 C385 1.283 . S
O370 Tb318 2.421 . S
O370 C392 1.262 1_556 S
O371 Tb329 2.320 1_455 S
O371 C392 1.260 . S
O372 Tb329 2.552 1_455 S
O372 C385 1.243 . S
O373 Tb329 2.412 1_455 S
O373 C393 1.261 1_455 S
C374 O363 1.283 1_556 S
C374 O366 1.243 . S
C375 C377 1.382 1_455 S
C375 C379 1.393 . S
C375 C382 1.500 . S
C376 C377 1.400 . S
C376 C378 1.384 1_655 S
C377 C375 1.382 1_655 S
C377 C376 1.400 . S
C377 H394 0.930 . S
C378 C376 1.384 1_455 S
C378 C380 1.392 . S
C378 H395 0.931 . S
C379 C375 1.393 . S
C379 C380 1.401 . S
C379 H396 0.930 . S
C380 C378 1.392 . S
C380 C379 1.401 . S
C380 H397 0.930 . S
C381 O364 1.262 . S
C381 O365 1.260 1_554 S
C382 Tb318 2.833 . S
C382 O362 1.251 . S
C382 O367 1.256 . S
C382 C375 1.500 . S
C383 H348 0.929 . S
C383 C361 1.444 . S
C383 C384 1.317 . S
C384 H346 0.930 . S
C384 C352 1.432 . S
C384 C383 1.317 . S
C385 O369 1.283 . S
C385 O372 1.243 . S
C386 C387 1.382 1_655 S
C386 C390 1.393 . S
C386 C393 1.500 . S
C387 C386 1.382 1_455 S
C387 C388 1.400 . S
C387 H398 0.930 . S
C388 C387 1.400 . S
C388 C389 1.384 . S
C389 C388 1.384 . S
C389 C391 1.392 1_455 S
C389 H399 0.931 . S
C390 C386 1.393 . S
C390 C391 1.401 . S
C390 H400 0.930 . S
C391 C389 1.392 1_655 S
C391 C390 1.401 . S
C391 H401 0.930 . S
C392 O370 1.262 1_554 S
C392 O371 1.260 . S
C393 Tb329 2.833 . S
C393 O368 1.251 . S
C393 O373 1.261 1_655 S
C393 C386 1.500 . S
H394 C377 0.930 . S
H395 C378 0.931 . S
H396 C379 0.930 . S
H397 C380 0.930 . S
H398 C387 0.930 . S
H399 C389 0.931 . S
H400 C390 0.930 . S
H401 C391 0.930 . S
Tb402 N433 2.660 . S
Tb402 N440 2.600 . S
Tb402 O446 2.546 . S
Tb402 O447 2.610 . S
Tb402 O449 2.320 . S
Tb402 O450 2.552 . S
Tb402 O451 2.413 . S
Tb402 O453 2.362 . S
Tb402 O454 2.421 . S
Tb402 C466 2.833 . S
C403 C406 1.432 . S
C403 C407 1.414 . S
C403 N410 1.359 . S
C404 C406 1.417 . S
C404 C408 1.432 . S
C404 C416 1.410 . S
C405 C407 1.444 . S
C405 C408 1.317 . S
C405 H428 0.929 . S
C406 C403 1.432 . S
C406 C404 1.417 . S
C406 N414 1.360 . S
C407 C403 1.414 . S
C407 C405 1.444 . S
C407 C412 1.385 . S
C408 C404 1.432 . S
C408 C405 1.317 . S
C408 H420 0.930 . S
C409 C411 1.392 . S
C409 C412 1.370 . S
C409 H421 0.931 . S
N410 C403 1.359 . S
N410 C411 1.327 . S
N410 Tb413 2.614 . S
C411 C409 1.392 . S
C411 N410 1.327 . S
C411 H418 0.930 . S
C412 C407 1.385 . S
C412 C409 1.370 . S
C412 H431 0.930 . S
Tb413 N410 2.614 . S
Tb413 N414 2.668 . S
Tb413 O447 2.309 1_556 S
Tb413 O448 2.389 1_556 S
Tb413 O452 2.594 . S
Tb413 O453 2.577 1_556 S
Tb413 O455 2.313 1_556 S
Tb413 O456 2.564 . S
Tb413 O457 2.467 . S
Tb413 C477 2.889 . S
N414 C406 1.360 . S
N414 Tb413 2.668 . S
N414 C415 1.305 1_556 S
C415 N414 1.305 1_554 S
C415 C417 1.408 1_554 S
C415 H422 0.930 . S
C416 C404 1.410 . S
C416 C417 1.344 . S
C416 H424 0.930 . S
C417 C415 1.408 1_556 S
C417 C416 1.344 . S
C417 H419 0.931 1_556 S
H418 C411 0.930 . S
H419 C417 0.931 1_554 S
H420 C408 0.930 . S
H421 C409 0.931 . S
H422 C415 0.930 . S
H423 C437 0.930 . S
H424 C416 0.930 . S
H425 C443 0.930 . S
H426 C434 0.930 . S
H427 C441 0.931 . S
H428 C405 0.929 . S
H429 C435 0.930 . S
H430 C468 0.930 . S
H431 C412 0.930 . S
H432 C467 0.929 . S
N433 Tb402 2.660 . S
N433 C434 1.305 . S
N433 C438 1.360 . S
C434 H426 0.930 . S
C434 N433 1.305 . S
C434 C437 1.407 . S
C435 H429 0.930 . S
C435 C436 1.410 . S
C435 C437 1.345 . S
C436 C435 1.410 . S
C436 C438 1.417 . S
C436 C468 1.432 . S
C437 H423 0.930 . S
C437 C434 1.407 . S
C437 C435 1.345 . S
C438 N433 1.360 . S
C438 C436 1.417 . S
C438 C442 1.432 . S
H439 C444 0.930 . S
N440 Tb402 2.600 . S
N440 C442 1.359 . S
N440 C443 1.327 . S
C441 H427 0.931 . S
C441 C443 1.392 . S
C441 C444 1.370 . S
C442 C438 1.432 . S
C442 N440 1.359 . S
C442 C445 1.414 . S
C443 H425 0.930 . S
C443 N440 1.327 . S
C443 C441 1.392 . S
C444 H439 0.930 . S
C444 C441 1.370 . S
C444 C445 1.385 . S
C445 C442 1.414 . S
C445 C444 1.385 . S
C445 C467 1.444 . S
O446 Tb402 2.546 . S
O446 C466 1.251 . S
O447 Tb402 2.610 . S
O447 Tb413 2.309 1_554 S
O447 C458 1.283 . S
O448 Tb413 2.389 1_554 S
O448 C465 1.262 . S
O449 Tb402 2.320 . S
O449 C465 1.260 . S
O450 Tb402 2.552 . S
O450 C458 1.243 . S
O451 Tb402 2.413 . S
O451 C466 1.256 . S
O452 Tb413 2.594 . S
O452 C477 1.251 . S
O453 Tb402 2.362 . S
O453 Tb413 2.577 1_554 S
O453 C469 1.283 . S
O454 Tb402 2.421 . S
O454 C476 1.262 . S
O455 Tb413 2.313 1_554 S
O455 C476 1.260 . S
O456 Tb413 2.564 . S
O456 C469 1.243 1_556 S
O457 Tb413 2.467 . S
O457 C477 1.256 . S
C458 O447 1.283 . S
C458 O450 1.243 . S
C459 C461 1.382 . S
C459 C463 1.393 . S
C459 C466 1.500 . S
C460 C461 1.400 . S
C460 C462 1.384 . S
C461 C459 1.382 . S
C461 C460 1.400 . S
C461 H478 0.930 . S
C462 C460 1.384 . S
C462 C464 1.392 . S
C462 H479 0.931 . S
C463 C459 1.393 . S
C463 C464 1.401 . S
C463 H480 0.930 . S
C464 C462 1.392 . S
C464 C463 1.401 . S
C464 H481 0.930 . S
C465 O448 1.262 . S
C465 O449 1.260 . S
C466 Tb402 2.833 . S
C466 O446 1.251 . S
C466 O451 1.256 . S
C466 C459 1.500 . S
C467 H432 0.929 . S
C467 C445 1.444 . S
C467 C468 1.317 . S
C468 H430 0.930 . S
C468 C436 1.432 . S
C468 C467 1.317 . S
C469 O453 1.283 . S
C469 O456 1.243 1_554 S
C470 C471 1.382 . S
C470 C474 1.393 . S
C470 C477 1.500 . S
C471 C470 1.382 . S
C471 C472 1.400 . S
C471 H482 0.930 . S
C472 C471 1.400 . S
C472 C473 1.384 . S
C473 C472 1.384 . S
C473 C475 1.392 . S
C473 H483 0.931 . S
C474 C470 1.393 . S
C474 C475 1.401 . S
C474 H484 0.930 . S
C475 C473 1.392 . S
C475 C474 1.401 . S
C475 H485 0.930 . S
C476 O454 1.262 . S
C476 O455 1.260 . S
C477 Tb413 2.889 . S
C477 O452 1.251 . S
C477 O457 1.256 . S
C477 C470 1.500 . S
H478 C461 0.930 . S
H479 C462 0.931 . S
H480 C463 0.930 . S
H481 C464 0.930 . S
H482 C471 0.930 . S
H483 C473 0.931 . S
H484 C474 0.930 . S
H485 C475 0.930 . S
Tb486 N517 2.660 . S
Tb486 N524 2.600 . S
Tb486 O530 2.546 . S
Tb486 O531 2.610 . S
Tb486 O533 2.320 . S
Tb486 O534 2.552 . S
Tb486 O535 2.413 . S
Tb486 O537 2.362 . S
Tb486 O538 2.421 . S
Tb486 C550 2.833 . S
C487 C490 1.432 . S
C487 C491 1.414 . S
C487 N494 1.359 . S
C488 C490 1.417 . S
C488 C492 1.432 . S
C488 C500 1.410 . S
C489 C491 1.444 . S
C489 C492 1.317 . S
C489 H512 0.929 . S
C490 C487 1.432 . S
C490 C488 1.417 . S
C490 N498 1.360 . S
C491 C487 1.414 . S
C491 C489 1.444 . S
C491 C496 1.385 . S
C492 C488 1.432 . S
C492 C489 1.317 . S
C492 H504 0.930 . S
C493 C495 1.392 . S
C493 C496 1.370 . S
C493 H505 0.931 . S
N494 C487 1.359 . S
N494 C495 1.327 . S
N494 Tb497 2.600 . S
C495 C493 1.392 . S
C495 N494 1.327 . S
C495 H502 0.930 . S
C496 C491 1.385 . S
C496 C493 1.370 . S
C496 H515 0.930 . S
Tb497 N494 2.600 . S
Tb497 N498 2.660 . S
Tb497 O531 2.362 . S
Tb497 O532 2.421 . S
Tb497 O536 2.546 . S
Tb497 O537 2.610 . S
Tb497 O539 2.320 . S
Tb497 O540 2.552 . S
Tb497 O541 2.413 . S
Tb497 C561 2.833 . S
N498 C490 1.360 . S
N498 Tb497 2.660 . S
N498 C499 1.305 . S
C499 N498 1.305 . S
C499 C501 1.407 . S
C499 H506 0.930 . S
C500 C488 1.410 . S
C500 C501 1.345 . S
C500 H508 0.930 . S
C501 C499 1.407 . S
C501 C500 1.345 . S
C501 H503 0.930 . S
H502 C495 0.930 . S
H503 C501 0.930 . S
H504 C492 0.930 . S
H505 C493 0.931 . S
H506 C499 0.930 . S
H507 C521 0.930 . S
H508 C500 0.930 . S
H509 C527 0.930 . S
H510 C518 0.930 . S
H511 C525 0.931 . S
H512 C489 0.929 . S
H513 C519 0.930 . S
H514 C552 0.930 . S
H515 C496 0.930 . S
H516 C551 0.929 . S
N517 Tb486 2.660 . S
N517 C518 1.305 . S
N517 C522 1.360 . S
C518 H510 0.930 . S
C518 N517 1.305 . S
C518 C521 1.407 . S
C519 H513 0.930 . S
C519 C520 1.410 . S
C519 C521 1.345 . S
C520 C519 1.410 . S
C520 C522 1.417 . S
C520 C552 1.432 . S
C521 H507 0.930 . S
C521 C518 1.407 . S
C521 C519 1.345 . S
C522 N517 1.360 . S
C522 C520 1.417 . S
C522 C526 1.432 . S
H523 C528 0.930 . S
N524 Tb486 2.600 . S
N524 C526 1.359 . S
N524 C527 1.327 . S
C525 H511 0.931 . S
C525 C527 1.392 . S
C525 C528 1.370 . S
C526 C522 1.432 . S
C526 N524 1.359 . S
C526 C529 1.414 . S
C527 H509 0.930 . S
C527 N524 1.327 . S
C527 C525 1.392 . S
C528 H523 0.930 . S
C528 C525 1.370 . S
C528 C529 1.385 . S
C529 C526 1.414 . S
C529 C528 1.385 . S
C529 C551 1.444 . S
O530 Tb486 2.546 . S
O530 C550 1.251 . S
O531 Tb486 2.610 . S
O531 Tb497 2.362 . S
O531 C542 1.283 . S
O532 Tb497 2.421 . S
O532 C549 1.262 . S
O533 Tb486 2.320 . S
O533 C549 1.260 . S
O534 Tb486 2.552 . S
O534 C542 1.243 . S
O535 Tb486 2.413 . S
O535 C550 1.256 . S
O536 Tb497 2.546 . S
O536 C561 1.251 . S
O537 Tb486 2.362 . S
O537 Tb497 2.610 . S
O537 C553 1.283 . S
O538 Tb486 2.421 . S
O538 C560 1.262 . S
O539 Tb497 2.320 . S
O539 C560 1.260 . S
O540 Tb497 2.552 . S
O540 C553 1.243 . S
O541 Tb497 2.413 . S
O541 C561 1.256 . S
C542 O531 1.283 . S
C542 O534 1.243 . S
C543 C545 1.382 . S
C543 C547 1.393 . S
C543 C550 1.500 . S
C544 C545 1.400 . S
C544 C546 1.384 . S
C545 C543 1.382 . S
C545 C544 1.400 . S
C545 H562 0.930 . S
C546 C544 1.384 . S
C546 C548 1.392 . S
C546 H563 0.931 . S
C547 C543 1.393 . S
C547 C548 1.401 . S
C547 H564 0.930 . S
C548 C546 1.392 . S
C548 C547 1.401 . S
C548 H565 0.930 . S
C549 O532 1.262 . S
C549 O533 1.260 . S
C550 Tb486 2.833 . S
C550 O530 1.251 . S
C550 O535 1.256 . S
C550 C543 1.500 . S
C551 H516 0.929 . S
C551 C529 1.444 . S
C551 C552 1.317 . S
C552 H514 0.930 . S
C552 C520 1.432 . S
C552 C551 1.317 . S
C553 O537 1.283 . S
C553 O540 1.243 . S
C554 C555 1.382 . S
C554 C558 1.393 . S
C554 C561 1.500 . S
C555 C554 1.382 . S
C555 C556 1.400 . S
C555 H566 0.930 . S
C556 C555 1.400 . S
C556 C557 1.384 . S
C557 C556 1.384 . S
C557 C559 1.392 . S
C557 H567 0.931 . S
C558 C554 1.393 . S
C558 C559 1.401 . S
C558 H568 0.930 . S
C559 C557 1.392 . S
C559 C558 1.401 . S
C559 H569 0.930 . S
C560 O538 1.262 . S
C560 O539 1.260 . S
C561 Tb497 2.833 . S
C561 O536 1.251 . S
C561 O541 1.256 . S
C561 C554 1.500 . S
H562 C545 0.930 . S
H563 C546 0.931 . S
H564 C547 0.930 . S
H565 C548 0.930 . S
H566 C555 0.930 . S
H567 C557 0.931 . S
H568 C558 0.930 . S
H569 C559 0.930 . S
Tb570 N601 2.660 . S
Tb570 N608 2.600 . S
Tb570 O614 2.546 . S
Tb570 O615 2.610 . S
Tb570 O617 2.320 . S
Tb570 O618 2.552 . S
Tb570 O619 2.413 . S
Tb570 O621 2.362 . S
Tb570 O622 2.421 . S
Tb570 C634 2.833 . S
C571 C574 1.432 . S
C571 C575 1.414 . S
C571 N578 1.359 . S
C572 C574 1.417 . S
C572 C576 1.432 . S
C572 C584 1.410 . S
C573 C575 1.444 . S
C573 C576 1.317 . S
C573 H596 0.929 . S
C574 C571 1.432 . S
C574 C572 1.417 . S
C574 N582 1.360 . S
C575 C571 1.414 . S
C575 C573 1.444 . S
C575 C580 1.385 . S
C576 C572 1.432 . S
C576 C573 1.317 . S
C576 H588 0.930 . S
C577 C579 1.392 . S
C577 C580 1.370 . S
C577 H589 0.931 . S
N578 C571 1.359 . S
N578 C579 1.327 . S
N578 Tb581 2.600 . S
C579 C577 1.392 . S
C579 N578 1.327 . S
C579 H586 0.930 . S
C580 C575 1.385 . S
C580 C577 1.370 . S
C580 H599 0.930 . S
Tb581 N578 2.600 . S
Tb581 N582 2.660 . S
Tb581 O615 2.362 . S
Tb581 O616 2.421 . S
Tb581 O620 2.546 . S
Tb581 O621 2.610 . S
Tb581 O623 2.320 . S
Tb581 O624 2.552 . S
Tb581 O625 2.413 . S
Tb581 C645 2.833 . S
N582 C574 1.360 . S
N582 Tb581 2.660 . S
N582 C583 1.305 . S
C583 N582 1.305 . S
C583 C585 1.407 . S
C583 H590 0.930 . S
C584 C572 1.410 . S
C584 C585 1.345 . S
C584 H592 0.930 . S
C585 C583 1.407 . S
C585 C584 1.345 . S
C585 H587 0.930 . S
H586 C579 0.930 . S
H587 C585 0.930 . S
H588 C576 0.930 . S
H589 C577 0.931 . S
H590 C583 0.930 . S
H591 C605 0.930 . S
H592 C584 0.930 . S
H593 C611 0.930 . S
H594 C602 0.930 . S
H595 C609 0.931 . S
H596 C573 0.929 . S
H597 C603 0.930 . S
H598 C636 0.930 . S
H599 C580 0.930 . S
H600 C635 0.929 . S
N601 Tb570 2.660 . S
N601 C602 1.305 . S
N601 C606 1.360 . S
C602 H594 0.930 . S
C602 N601 1.305 . S
C602 C605 1.407 . S
C603 H597 0.930 . S
C603 C604 1.410 . S
C603 C605 1.345 . S
C604 C603 1.410 . S
C604 C606 1.417 . S
C604 C636 1.432 . S
C605 H591 0.930 . S
C605 C602 1.407 . S
C605 C603 1.345 . S
C606 N601 1.360 . S
C606 C604 1.417 . S
C606 C610 1.432 . S
H607 C612 0.930 . S
N608 Tb570 2.600 . S
N608 C610 1.359 . S
N608 C611 1.327 . S
C609 H595 0.931 . S
C609 C611 1.392 . S
C609 C612 1.370 . S
C610 C606 1.432 . S
C610 N608 1.359 . S
C610 C613 1.414 . S
C611 H593 0.930 . S
C611 N608 1.327 . S
C611 C609 1.392 . S
C612 H607 0.930 . S
C612 C609 1.370 . S
C612 C613 1.385 . S
C613 C610 1.414 . S
C613 C612 1.385 . S
C613 C635 1.444 . S
O614 Tb570 2.546 . S
O614 C634 1.251 . S
O615 Tb570 2.610 . S
O615 Tb581 2.362 . S
O615 C626 1.283 . S
O616 Tb581 2.421 . S
O616 C633 1.262 . S
O617 Tb570 2.320 . S
O617 C633 1.260 . S
O618 Tb570 2.552 . S
O618 C626 1.243 . S
O619 Tb570 2.413 . S
O619 C634 1.256 . S
O620 Tb581 2.546 . S
O620 C645 1.251 . S
O621 Tb570 2.362 . S
O621 Tb581 2.610 . S
O621 C637 1.283 . S
O622 Tb570 2.421 . S
O622 C644 1.262 . S
O623 Tb581 2.320 . S
O623 C644 1.260 . S
O624 Tb581 2.552 . S
O624 C637 1.243 . S
O625 Tb581 2.413 . S
O625 C645 1.256 . S
C626 O615 1.283 . S
C626 O618 1.243 . S
C627 C629 1.382 . S
C627 C631 1.393 . S
C627 C634 1.500 . S
C628 C629 1.400 . S
C628 C630 1.384 . S
C629 C627 1.382 . S
C629 C628 1.400 . S
C629 H646 0.930 . S
C630 C628 1.384 . S
C630 C632 1.392 . S
C630 H647 0.931 . S
C631 C627 1.393 . S
C631 C632 1.401 . S
C631 H648 0.930 . S
C632 C630 1.392 . S
C632 C631 1.401 . S
C632 H649 0.930 . S
C633 O616 1.262 . S
C633 O617 1.260 . S
C634 Tb570 2.833 . S
C634 O614 1.251 . S
C634 O619 1.256 . S
C634 C627 1.500 . S
C635 H600 0.929 . S
C635 C613 1.444 . S
C635 C636 1.317 . S
C636 H598 0.930 . S
C636 C604 1.432 . S
C636 C635 1.317 . S
C637 O621 1.283 . S
C637 O624 1.243 . S
C638 C639 1.382 . S
C638 C642 1.393 . S
C638 C645 1.500 . S
C639 C638 1.382 . S
C639 C640 1.400 . S
C639 H650 0.930 . S
C640 C639 1.400 . S
C640 C641 1.384 . S
C641 C640 1.384 . S
C641 C643 1.392 . S
C641 H651 0.931 . S
C642 C638 1.393 . S
C642 C643 1.401 . S
C642 H652 0.930 . S
C643 C641 1.392 . S
C643 C642 1.401 . S
C643 H653 0.930 . S
C644 O622 1.262 . S
C644 O623 1.260 . S
C645 Tb581 2.833 . S
C645 O620 1.251 . S
C645 O625 1.256 . S
C645 C638 1.500 . S
H646 C629 0.930 . S
H647 C630 0.931 . S
H648 C631 0.930 . S
H649 C632 0.930 . S
H650 C639 0.930 . S
H651 C641 0.931 . S
H652 C642 0.930 . S
H653 C643 0.930 . S
Tb654 N685 2.660 . S
Tb654 N692 2.600 . S
Tb654 O698 2.546 . S
Tb654 O699 2.610 . S
Tb654 O701 2.320 . S
Tb654 O702 2.552 . S
Tb654 O703 2.413 . S
Tb654 O705 2.362 . S
Tb654 O706 2.421 . S
Tb654 C718 2.833 . S
C655 C658 1.432 . S
C655 C659 1.414 . S
C655 N662 1.359 . S
C656 C658 1.417 . S
C656 C660 1.432 . S
C656 C668 1.410 . S
C657 C659 1.444 . S
C657 C660 1.317 . S
C657 H680 0.929 . S
C658 C655 1.432 . S
C658 C656 1.417 . S
C658 N666 1.360 . S
C659 C655 1.414 . S
C659 C657 1.444 . S
C659 C664 1.385 . S
C660 C656 1.432 . S
C660 C657 1.317 . S
C660 H672 0.930 . S
C661 C663 1.392 . S
C661 C664 1.370 . S
C661 H673 0.931 . S
N662 C655 1.359 . S
N662 C663 1.327 . S
N662 Tb665 2.600 . S
C663 C661 1.392 . S
C663 N662 1.327 . S
C663 H670 0.930 . S
C664 C659 1.385 . S
C664 C661 1.370 . S
C664 H683 0.930 . S
Tb665 N662 2.600 . S
Tb665 N666 2.660 . S
Tb665 O699 2.362 . S
Tb665 O700 2.421 . S
Tb665 O704 2.546 . S
Tb665 O705 2.610 . S
Tb665 O707 2.320 . S
Tb665 O708 2.552 . S
Tb665 O709 2.413 . S
Tb665 C729 2.833 . S
N666 C658 1.360 . S
N666 Tb665 2.660 . S
N666 C667 1.305 . S
C667 N666 1.305 . S
C667 C669 1.407 . S
C667 H674 0.930 . S
C668 C656 1.410 . S
C668 C669 1.345 . S
C668 H676 0.930 . S
C669 C667 1.407 . S
C669 C668 1.345 . S
C669 H671 0.930 . S
H670 C663 0.930 . S
H671 C669 0.930 . S
H672 C660 0.930 . S
H673 C661 0.931 . S
H674 C667 0.930 . S
H675 C689 0.930 . S
H676 C668 0.930 . S
H677 C695 0.930 . S
H678 C686 0.930 . S
H679 C693 0.931 . S
H680 C657 0.929 . S
H681 C687 0.930 . S
H682 C720 0.930 . S
H683 C664 0.930 . S
H684 C719 0.929 . S
N685 Tb654 2.660 . S
N685 C686 1.305 . S
N685 C690 1.360 . S
C686 H678 0.930 . S
C686 N685 1.305 . S
C686 C689 1.407 . S
C687 H681 0.930 . S
C687 C688 1.410 . S
C687 C689 1.345 . S
C688 C687 1.410 . S
C688 C690 1.417 . S
C688 C720 1.432 . S
C689 H675 0.930 . S
C689 C686 1.407 . S
C689 C687 1.345 . S
C690 N685 1.360 . S
C690 C688 1.417 . S
C690 C694 1.432 . S
H691 C696 0.930 . S
N692 Tb654 2.600 . S
N692 C694 1.359 . S
N692 C695 1.327 . S
C693 H679 0.931 . S
C693 C695 1.392 . S
C693 C696 1.370 . S
C694 C690 1.432 . S
C694 N692 1.359 . S
C694 C697 1.414 . S
C695 H677 0.930 . S
C695 N692 1.327 . S
C695 C693 1.392 . S
C696 H691 0.930 . S
C696 C693 1.370 . S
C696 C697 1.385 . S
C697 C694 1.414 . S
C697 C696 1.385 . S
C697 C719 1.444 . S
O698 Tb654 2.546 . S
O698 C718 1.251 . S
O699 Tb654 2.610 . S
O699 Tb665 2.362 . S
O699 C710 1.283 . S
O700 Tb665 2.421 . S
O700 C717 1.262 . S
O701 Tb654 2.320 . S
O701 C717 1.260 . S
O702 Tb654 2.552 . S
O702 C710 1.243 . S
O703 Tb654 2.413 . S
O703 C718 1.256 . S
O704 Tb665 2.546 . S
O704 C729 1.251 . S
O705 Tb654 2.362 . S
O705 Tb665 2.610 . S
O705 C721 1.283 . S
O706 Tb654 2.421 . S
O706 C728 1.262 . S
O707 Tb665 2.320 . S
O707 C728 1.260 . S
O708 Tb665 2.552 . S
O708 C721 1.243 . S
O709 Tb665 2.413 . S
O709 C729 1.256 . S
C710 O699 1.283 . S
C710 O702 1.243 . S
C711 C713 1.382 . S
C711 C715 1.393 . S
C711 C718 1.500 . S
C712 C713 1.400 . S
C712 C714 1.384 . S
C713 C711 1.382 . S
C713 C712 1.400 . S
C713 H730 0.930 . S
C714 C712 1.384 . S
C714 C716 1.392 . S
C714 H731 0.931 . S
C715 C711 1.393 . S
C715 C716 1.401 . S
C715 H732 0.930 . S
C716 C714 1.392 . S
C716 C715 1.401 . S
C716 H733 0.930 . S
C717 O700 1.262 . S
C717 O701 1.260 . S
C718 Tb654 2.833 . S
C718 O698 1.251 . S
C718 O703 1.256 . S
C718 C711 1.500 . S
C719 H684 0.929 . S
C719 C697 1.444 . S
C719 C720 1.317 . S
C720 H682 0.930 . S
C720 C688 1.432 . S
C720 C719 1.317 . S
C721 O705 1.283 . S
C721 O708 1.243 . S
C722 C723 1.382 . S
C722 C726 1.393 . S
C722 C729 1.500 . S
C723 C722 1.382 . S
C723 C724 1.400 . S
C723 H734 0.930 . S
C724 C723 1.400 . S
C724 C725 1.384 . S
C725 C724 1.384 . S
C725 C727 1.392 . S
C725 H735 0.931 . S
C726 C722 1.393 . S
C726 C727 1.401 . S
C726 H736 0.930 . S
C727 C725 1.392 . S
C727 C726 1.401 . S
C727 H737 0.930 . S
C728 O706 1.262 . S
C728 O707 1.260 . S
C729 Tb665 2.833 . S
C729 O704 1.251 . S
C729 O709 1.256 . S
C729 C722 1.500 . S
H730 C713 0.930 . S
H731 C714 0.931 . S
H732 C715 0.930 . S
H733 C716 0.930 . S
H734 C723 0.930 . S
H735 C725 0.931 . S
H736 C726 0.930 . S
H737 C727 0.930 . S
Tb738 N769 2.660 . S
Tb738 N776 2.600 . S
Tb738 O782 2.546 . S
Tb738 O783 2.610 . S
Tb738 O785 2.320 . S
Tb738 O786 2.552 . S
Tb738 O787 2.413 . S
Tb738 O789 2.362 . S
Tb738 O790 2.421 . S
Tb738 C802 2.833 . S
C739 C742 1.432 . S
C739 C743 1.414 . S
C739 N746 1.359 . S
C740 C742 1.417 . S
C740 C744 1.432 . S
C740 C752 1.410 . S
C741 C743 1.444 . S
C741 C744 1.317 . S
C741 H764 0.929 . S
C742 C739 1.432 . S
C742 C740 1.417 . S
C742 N750 1.360 . S
C743 C739 1.414 . S
C743 C741 1.444 . S
C743 C748 1.385 . S
C744 C740 1.432 . S
C744 C741 1.317 . S
C744 H756 0.930 . S
C745 C747 1.392 . S
C745 C748 1.370 . S
C745 H757 0.931 . S
N746 C739 1.359 . S
N746 C747 1.327 . S
N746 Tb749 2.600 . S
C747 C745 1.392 . S
C747 N746 1.327 . S
C747 H754 0.930 . S
C748 C743 1.385 . S
C748 C745 1.370 . S
C748 H767 0.930 . S
Tb749 N746 2.600 . S
Tb749 N750 2.660 . S
Tb749 O783 2.362 . S
Tb749 O784 2.421 . S
Tb749 O788 2.546 . S
Tb749 O789 2.610 . S
Tb749 O791 2.320 . S
Tb749 O792 2.552 . S
Tb749 O793 2.413 . S
Tb749 C813 2.833 . S
N750 C742 1.360 . S
N750 Tb749 2.660 . S
N750 C751 1.305 . S
C751 N750 1.305 . S
C751 C753 1.407 . S
C751 H758 0.930 . S
C752 C740 1.410 . S
C752 C753 1.345 . S
C752 H760 0.930 1_655 S
C753 C751 1.407 . S
C753 C752 1.345 . S
C753 H755 0.930 . S
H754 C747 0.930 . S
H755 C753 0.930 . S
H756 C744 0.930 . S
H757 C745 0.931 . S
H758 C751 0.930 . S
H759 C773 0.930 . S
H760 C752 0.930 1_455 S
H761 C779 0.930 . S
H762 C770 0.930 . S
H763 C777 0.931 . S
H764 C741 0.929 . S
H765 C771 0.930 . S
H766 C804 0.930 . S
H767 C748 0.930 . S
H768 C803 0.929 . S
N769 Tb738 2.660 . S
N769 C770 1.305 . S
N769 C774 1.360 . S
C770 H762 0.930 . S
C770 N769 1.305 . S
C770 C773 1.407 . S
C771 H765 0.930 . S
C771 C772 1.410 . S
C771 C773 1.345 . S
C772 C771 1.410 . S
C772 C774 1.417 . S
C772 C804 1.432 . S
C773 H759 0.930 . S
C773 C770 1.407 . S
C773 C771 1.345 . S
C774 N769 1.360 . S
C774 C772 1.417 . S
C774 C778 1.432 . S
H775 C780 0.930 . S
N776 Tb738 2.600 . S
N776 C778 1.359 . S
N776 C779 1.327 . S
C777 H763 0.931 . S
C777 C779 1.392 . S
C777 C780 1.370 . S
C778 C774 1.432 . S
C778 N776 1.359 . S
C778 C781 1.414 . S
C779 H761 0.930 . S
C779 N776 1.327 . S
C779 C777 1.392 . S
C780 H775 0.930 . S
C780 C777 1.370 . S
C780 C781 1.385 . S
C781 C778 1.414 . S
C781 C780 1.385 . S
C781 C803 1.444 . S
O782 Tb738 2.546 . S
O782 C802 1.251 . S
O783 Tb738 2.610 . S
O783 Tb749 2.362 . S
O783 C794 1.283 . S
O784 Tb749 2.421 . S
O784 C801 1.262 . S
O785 Tb738 2.320 . S
O785 C801 1.260 . S
O786 Tb738 2.552 . S
O786 C794 1.243 . S
O787 Tb738 2.413 . S
O787 C802 1.256 . S
O788 Tb749 2.546 . S
O788 C813 1.251 . S
O789 Tb738 2.362 . S
O789 Tb749 2.610 . S
O789 C805 1.283 . S
O790 Tb738 2.421 . S
O790 C812 1.262 . S
O791 Tb749 2.320 . S
O791 C812 1.260 . S
O792 Tb749 2.552 . S
O792 C805 1.243 . S
O793 Tb749 2.413 . S
O793 C813 1.256 . S
C794 O783 1.283 . S
C794 O786 1.243 . S
C795 C797 1.382 . S
C795 C799 1.393 . S
C795 C802 1.500 . S
C796 C797 1.400 . S
C796 C798 1.384 . S
C797 C795 1.382 . S
C797 C796 1.400 . S
C797 H814 0.930 . S
C798 C796 1.384 . S
C798 C800 1.392 . S
C798 H815 0.931 . S
C799 C795 1.393 . S
C799 C800 1.401 . S
C799 H816 0.930 . S
C800 C798 1.392 . S
C800 C799 1.401 . S
C800 H817 0.930 . S
C801 O784 1.262 . S
C801 O785 1.260 . S
C802 Tb738 2.833 . S
C802 O782 1.251 . S
C802 O787 1.256 . S
C802 C795 1.500 . S
C803 H768 0.929 . S
C803 C781 1.444 . S
C803 C804 1.317 . S
C804 H766 0.930 . S
C804 C772 1.432 . S
C804 C803 1.317 . S
C805 O789 1.283 . S
C805 O792 1.243 . S
C806 C807 1.382 . S
C806 C810 1.393 . S
C806 C813 1.500 . S
C807 C806 1.382 . S
C807 C808 1.400 . S
C807 H818 0.930 . S
C808 C807 1.400 . S
C808 C809 1.384 . S
C809 C808 1.384 . S
C809 C811 1.392 . S
C809 H819 0.931 . S
C810 C806 1.393 . S
C810 C811 1.401 . S
C810 H820 0.930 . S
C811 C809 1.392 . S
C811 C810 1.401 . S
C811 H821 0.930 . S
C812 O790 1.262 . S
C812 O791 1.260 . S
C813 Tb749 2.833 . S
C813 O788 1.251 . S
C813 O793 1.256 . S
C813 C806 1.500 . S
H814 C797 0.930 . S
H815 C798 0.931 . S
H816 C799 0.930 . S
H817 C800 0.930 . S
H818 C807 0.930 . S
H819 C809 0.931 . S
H820 C810 0.930 . S
H821 C811 0.930 . S
Tb822 N853 2.660 . S
Tb822 N860 2.600 . S
Tb822 O866 2.546 . S
Tb822 O867 2.610 . S
Tb822 O869 2.320 . S
Tb822 O870 2.552 . S
Tb822 O871 2.413 . S
Tb822 O873 2.362 . S
Tb822 O874 2.421 . S
Tb822 C886 2.833 . S
C823 C826 1.432 . S
C823 C827 1.414 . S
C823 N830 1.359 . S
C824 C826 1.417 . S
C824 C828 1.432 . S
C824 C836 1.410 . S
C825 C827 1.444 . S
C825 C828 1.317 . S
C825 H848 0.929 . S
C826 C823 1.432 . S
C826 C824 1.417 . S
C826 N834 1.360 . S
C827 C823 1.414 . S
C827 C825 1.444 . S
C827 C832 1.385 . S
C828 C824 1.432 . S
C828 C825 1.317 . S
C828 H840 0.930 . S
C829 C831 1.392 . S
C829 C832 1.370 . S
C829 H841 0.931 . S
N830 C823 1.359 . S
N830 C831 1.327 . S
N830 Tb833 2.600 . S
C831 C829 1.392 . S
C831 N830 1.327 . S
C831 H838 0.930 . S
C832 C827 1.385 . S
C832 C829 1.370 . S
C832 H851 0.930 . S
Tb833 N830 2.600 . S
Tb833 N834 2.660 . S
Tb833 O867 2.362 . S
Tb833 O868 2.421 . S
Tb833 O872 2.546 . S
Tb833 O873 2.610 . S
Tb833 O875 2.320 . S
Tb833 O876 2.552 . S
Tb833 O877 2.413 . S
Tb833 C897 2.833 . S
N834 C826 1.360 . S
N834 Tb833 2.660 . S
N834 C835 1.305 . S
C835 N834 1.305 . S
C835 C837 1.407 . S
C835 H842 0.930 . S
C836 C824 1.410 . S
C836 C837 1.345 . S
C836 H844 0.930 . S
C837 C835 1.407 . S
C837 C836 1.345 . S
C837 H839 0.930 . S
H838 C831 0.930 . S
H839 C837 0.930 . S
H840 C828 0.930 . S
H841 C829 0.931 . S
H842 C835 0.930 . S
H843 C857 0.930 . S
H844 C836 0.930 . S
H845 C863 0.930 . S
H846 C854 0.930 . S
H847 C861 0.931 . S
H848 C825 0.929 . S
H849 C855 0.930 . S
H850 C888 0.930 . S
H851 C832 0.930 . S
H852 C887 0.929 . S
N853 Tb822 2.660 . S
N853 C854 1.305 . S
N853 C858 1.360 . S
C854 H846 0.930 . S
C854 N853 1.305 . S
C854 C857 1.407 . S
C855 H849 0.930 . S
C855 C856 1.410 . S
C855 C857 1.345 . S
C856 C855 1.410 . S
C856 C858 1.417 . S
C856 C888 1.432 . S
C857 H843 0.930 . S
C857 C854 1.407 . S
C857 C855 1.345 . S
C858 N853 1.360 . S
C858 C856 1.417 . S
C858 C862 1.432 . S
H859 C864 0.930 . S
N860 Tb822 2.600 . S
N860 C862 1.359 . S
N860 C863 1.327 . S
C861 H847 0.931 . S
C861 C863 1.392 . S
C861 C864 1.370 . S
C862 C858 1.432 . S
C862 N860 1.359 . S
C862 C865 1.414 . S
C863 H845 0.930 . S
C863 N860 1.327 . S
C863 C861 1.392 . S
C864 H859 0.930 . S
C864 C861 1.370 . S
C864 C865 1.385 . S
C865 C862 1.414 . S
C865 C864 1.385 . S
C865 C887 1.444 . S
O866 Tb822 2.546 . S
O866 C886 1.251 . S
O867 Tb822 2.610 . S
O867 Tb833 2.362 . S
O867 C878 1.283 . S
O868 Tb833 2.421 . S
O868 C885 1.262 . S
O869 Tb822 2.320 . S
O869 C885 1.260 . S
O870 Tb822 2.552 . S
O870 C878 1.243 . S
O871 Tb822 2.413 . S
O871 C886 1.256 . S
O872 Tb833 2.546 . S
O872 C897 1.251 . S
O873 Tb822 2.362 . S
O873 Tb833 2.610 . S
O873 C889 1.283 . S
O874 Tb822 2.421 . S
O874 C896 1.262 . S
O875 Tb833 2.320 . S
O875 C896 1.260 . S
O876 Tb833 2.552 . S
O876 C889 1.243 . S
O877 Tb833 2.413 . S
O877 C897 1.256 . S
C878 O867 1.283 . S
C878 O870 1.243 . S
C879 C881 1.382 . S
C879 C883 1.393 . S
C879 C886 1.500 . S
C880 C881 1.400 . S
C880 C882 1.384 . S
C881 C879 1.382 . S
C881 C880 1.400 . S
C881 H898 0.930 . S
C882 C880 1.384 . S
C882 C884 1.392 . S
C882 H899 0.931 . S
C883 C879 1.393 . S
C883 C884 1.401 . S
C883 H900 0.930 . S
C884 C882 1.392 . S
C884 C883 1.401 . S
C884 H901 0.930 . S
C885 O868 1.262 . S
C885 O869 1.260 . S
C886 Tb822 2.833 . S
C886 O866 1.251 . S
C886 O871 1.256 . S
C886 C879 1.500 . S
C887 H852 0.929 . S
C887 C865 1.444 . S
C887 C888 1.317 . S
C888 H850 0.930 . S
C888 C856 1.432 . S
C888 C887 1.317 . S
C889 O873 1.283 . S
C889 O876 1.243 . S
C890 C891 1.382 . S
C890 C894 1.393 . S
C890 C897 1.500 . S
C891 C890 1.382 . S
C891 C892 1.400 . S
C891 H902 0.930 . S
C892 C891 1.400 . S
C892 C893 1.384 . S
C893 C892 1.384 . S
C893 C895 1.392 . S
C893 H903 0.931 . S
C894 C890 1.393 . S
C894 C895 1.401 . S
C894 H904 0.930 . S
C895 C893 1.392 . S
C895 C894 1.401 . S
C895 H905 0.930 . S
C896 O874 1.262 . S
C896 O875 1.260 . S
C897 Tb833 2.833 . S
C897 O872 1.251 . S
C897 O877 1.256 . S
C897 C890 1.500 . S
H898 C881 0.930 . S
H899 C882 0.931 . S
H900 C883 0.930 . S
H901 C884 0.930 . S
H902 C891 0.930 . S
H903 C893 0.931 . S
H904 C894 0.930 . S
H905 C895 0.930 . S
Tb906 N937 2.660 . S
Tb906 N944 2.600 . S
Tb906 O950 2.546 . S
Tb906 O951 2.610 . S
Tb906 O953 2.320 . S
Tb906 O954 2.552 . S
Tb906 O955 2.413 . S
Tb906 O957 2.362 . S
Tb906 O958 2.421 . S
Tb906 C970 2.833 . S
C907 C910 1.432 . S
C907 C911 1.414 . S
C907 N914 1.359 . S
C908 C910 1.417 . S
C908 C912 1.432 . S
C908 C920 1.410 . S
C909 C911 1.444 . S
C909 C912 1.317 . S
C909 H932 0.929 . S
C910 C907 1.432 . S
C910 C908 1.417 . S
C910 N918 1.360 . S
C911 C907 1.414 . S
C911 C909 1.444 . S
C911 C916 1.385 . S
C912 C908 1.432 . S
C912 C909 1.317 . S
C912 H924 0.930 . S
C913 C915 1.392 . S
C913 C916 1.370 . S
C913 H925 0.931 . S
N914 C907 1.359 . S
N914 C915 1.327 . S
N914 Tb917 2.600 . S
C915 C913 1.392 . S
C915 N914 1.327 . S
C915 H922 0.930 . S
C916 C911 1.385 . S
C916 C913 1.370 . S
C916 H935 0.930 . S
Tb917 N914 2.600 . S
Tb917 N918 2.660 . S
Tb917 O951 2.362 . S
Tb917 O952 2.421 . S
Tb917 O956 2.546 . S
Tb917 O957 2.610 . S
Tb917 O959 2.320 . S
Tb917 O960 2.552 . S
Tb917 O961 2.413 . S
Tb917 C981 2.833 . S
N918 C910 1.360 . S
N918 Tb917 2.660 . S
N918 C919 1.305 . S
C919 N918 1.305 . S
C919 C921 1.407 . S
C919 H926 0.930 . S
C920 C908 1.410 . S
C920 C921 1.345 . S
C920 H928 0.930 . S
C921 C919 1.407 . S
C921 C920 1.345 . S
C921 H923 0.930 . S
H922 C915 0.930 . S
H923 C921 0.930 . S
H924 C912 0.930 . S
H925 C913 0.931 . S
H926 C919 0.930 . S
H927 C941 0.930 . S
H928 C920 0.930 . S
H929 C947 0.930 . S
H930 C938 0.930 . S
H931 C945 0.931 . S
H932 C909 0.929 . S
H933 C939 0.930 . S
H934 C972 0.930 . S
H935 C916 0.930 . S
H936 C971 0.929 . S
N937 Tb906 2.660 . S
N937 C938 1.305 . S
N937 C942 1.360 . S
C938 H930 0.930 . S
C938 N937 1.305 . S
C938 C941 1.407 . S
C939 H933 0.930 . S
C939 C940 1.410 . S
C939 C941 1.345 . S
C940 C939 1.410 . S
C940 C942 1.417 . S
C940 C972 1.432 . S
C941 H927 0.930 . S
C941 C938 1.407 . S
C941 C939 1.345 . S
C942 N937 1.360 . S
C942 C940 1.417 . S
C942 C946 1.432 . S
H943 C948 0.930 . S
N944 Tb906 2.600 . S
N944 C946 1.359 . S
N944 C947 1.327 . S
C945 H931 0.931 . S
C945 C947 1.392 . S
C945 C948 1.370 . S
C946 C942 1.432 . S
C946 N944 1.359 . S
C946 C949 1.414 . S
C947 H929 0.930 . S
C947 N944 1.327 . S
C947 C945 1.392 . S
C948 H943 0.930 . S
C948 C945 1.370 . S
C948 C949 1.385 . S
C949 C946 1.414 . S
C949 C948 1.385 . S
C949 C971 1.444 . S
O950 Tb906 2.546 . S
O950 C970 1.251 . S
O951 Tb906 2.610 . S
O951 Tb917 2.362 . S
O951 C962 1.283 . S
O952 Tb917 2.421 . S
O952 C969 1.262 . S
O953 Tb906 2.320 . S
O953 C969 1.260 . S
O954 Tb906 2.552 . S
O954 C962 1.243 . S
O955 Tb906 2.413 . S
O955 C970 1.256 . S
O956 Tb917 2.546 . S
O956 C981 1.251 . S
O957 Tb906 2.362 . S
O957 Tb917 2.610 . S
O957 C973 1.283 . S
O958 Tb906 2.421 . S
O958 C980 1.262 . S
O959 Tb917 2.320 . S
O959 C980 1.260 . S
O960 Tb917 2.552 . S
O960 C973 1.243 . S
O961 Tb917 2.413 . S
O961 C981 1.256 . S
C962 O951 1.283 . S
C962 O954 1.243 . S
C963 C965 1.382 . S
C963 C967 1.393 . S
C963 C970 1.500 . S
C964 C965 1.400 . S
C964 C966 1.384 . S
C965 C963 1.382 . S
C965 C964 1.400 . S
C965 H982 0.930 . S
C966 C964 1.384 . S
C966 C968 1.392 . S
C966 H983 0.931 . S
C967 C963 1.393 . S
C967 C968 1.401 . S
C967 H984 0.930 . S
C968 C966 1.392 . S
C968 C967 1.401 . S
C968 H985 0.930 . S
C969 O952 1.262 . S
C969 O953 1.260 . S
C970 Tb906 2.833 . S
C970 O950 1.251 . S
C970 O955 1.256 . S
C970 C963 1.500 . S
C971 H936 0.929 . S
C971 C949 1.444 . S
C971 C972 1.317 . S
C972 H934 0.930 . S
C972 C940 1.432 . S
C972 C971 1.317 . S
C973 O957 1.283 . S
C973 O960 1.243 . S
C974 C975 1.382 . S
C974 C978 1.393 . S
C974 C981 1.500 . S
C975 C974 1.382 . S
C975 C976 1.400 . S
C975 H986 0.930 . S
C976 C975 1.400 . S
C976 C977 1.384 . S
C977 C976 1.384 . S
C977 C979 1.392 . S
C977 H987 0.931 . S
C978 C974 1.393 . S
C978 C979 1.401 . S
C978 H988 0.930 . S
C979 C977 1.392 . S
C979 C978 1.401 . S
C979 H989 0.930 . S
C980 O958 1.262 . S
C980 O959 1.260 . S
C981 Tb917 2.833 . S
C981 O956 1.251 . S
C981 O961 1.256 . S
C981 C974 1.500 . S
H982 C965 0.930 . S
H983 C966 0.931 . S
H984 C967 0.930 . S
H985 C968 0.930 . S
H986 C975 0.930 . S
H987 C977 0.931 . S
H988 C978 0.930 . S
H989 C979 0.930 . S
H990 C996 0.930 . S
H991 C1000 0.930 . S
H992 C1005 0.929 . S
H993 C1003 0.929 . S
H994 C998 0.929 . S
H995 C1004 0.929 . S
C996 H990 0.930 . S
C996 C997 1.367 . S
C996 C1004 1.378 . S
C997 C996 1.367 . S
C997 C1005 1.433 . S
C998 H994 0.929 . S
C998 C1000 1.378 . S
C998 C1002 1.350 . S
C999 C1002 1.463 . S
C999 C1004 1.350 . S
C999 N1007 1.427 . S
C1000 H991 0.930 . S
C1000 C998 1.378 . S
C1000 C1001 1.367 . S
C1001 C1000 1.367 . S
C1001 C1003 1.433 . S
C1002 C998 1.350 . S
C1002 C999 1.463 . S
C1002 N1006 1.427 . S
C1003 H993 0.929 . S
C1003 C1001 1.433 . S
C1003 N1006 1.384 . S
C1004 H995 0.929 . S
C1004 C996 1.378 . S
C1004 C999 1.350 . S
C1005 H992 0.929 . S
C1005 C997 1.433 . S
C1005 N1007 1.384 . S
N1006 C1002 1.427 . S
N1006 C1003 1.384 . S
N1007 C999 1.427 . S
N1007 C1005 1.384 . S
H1008 C1014 0.930 . S
H1009 C1018 0.930 . S
H1010 C1023 0.929 . S
H1011 C1021 0.929 . S
H1012 C1016 0.929 . S
H1013 C1022 0.929 . S
C1014 H1008 0.930 . S
C1014 C1015 1.367 . S
C1014 C1022 1.378 . S
C1015 C1014 1.367 . S
C1015 C1023 1.433 . S
C1016 H1012 0.929 . S
C1016 C1018 1.378 . S
C1016 C1020 1.350 . S
C1017 C1020 1.463 . S
C1017 C1022 1.350 . S
C1017 N1025 1.427 . S
C1018 H1009 0.930 . S
C1018 C1016 1.378 . S
C1018 C1019 1.367 . S
C1019 C1018 1.367 . S
C1019 C1021 1.433 . S
C1020 C1016 1.350 . S
C1020 C1017 1.463 . S
C1020 N1024 1.427 . S
C1021 H1011 0.929 . S
C1021 C1019 1.433 . S
C1021 N1024 1.384 . S
C1022 H1013 0.929 . S
C1022 C1014 1.378 . S
C1022 C1017 1.350 . S
C1023 H1010 0.929 . S
C1023 C1015 1.433 . S
C1023 N1025 1.384 . S
N1024 C1020 1.427 . S
N1024 C1021 1.384 . S
N1025 C1017 1.427 . S
N1025 C1023 1.384 . S
H1026 C1032 0.930 . S
H1027 C1036 0.930 . S
H1028 C1041 0.929 . S
H1029 C1039 0.929 . S
H1030 C1034 0.929 . S
H1031 C1040 0.929 . S
C1032 H1026 0.930 . S
C1032 C1033 1.367 . S
C1032 C1040 1.378 . S
C1033 C1032 1.367 . S
C1033 C1041 1.433 . S
C1034 H1030 0.929 . S
C1034 C1036 1.378 . S
C1034 C1038 1.350 . S
C1035 C1038 1.463 . S
C1035 C1040 1.350 . S
C1035 N1043 1.427 . S
C1036 H1027 0.930 . S
C1036 C1034 1.378 . S
C1036 C1037 1.367 . S
C1037 C1036 1.367 . S
C1037 C1039 1.433 . S
C1038 C1034 1.350 . S
C1038 C1035 1.463 . S
C1038 N1042 1.427 . S
C1039 H1029 0.929 . S
C1039 C1037 1.433 . S
C1039 N1042 1.384 . S
C1040 H1031 0.929 . S
C1040 C1032 1.378 . S
C1040 C1035 1.350 . S
C1041 H1028 0.929 . S
C1041 C1033 1.433 . S
C1041 N1043 1.384 . S
N1042 C1038 1.427 . S
N1042 C1039 1.384 . S
N1043 C1035 1.427 . S
N1043 C1041 1.384 . S
H1044 C1050 0.930 . S
H1045 C1054 0.930 . S
H1046 C1059 0.929 1_554 S
H1047 C1057 0.929 . S
H1048 C1052 0.929 . S
H1049 C1058 0.929 . S
C1050 H1044 0.930 . S
C1050 C1051 1.367 . S
C1050 C1058 1.378 . S
C1051 C1050 1.367 . S
C1051 C1059 1.433 . S
C1052 H1048 0.929 . S
C1052 C1054 1.378 . S
C1052 C1056 1.350 1_554 S
C1053 C1056 1.463 . S
C1053 C1058 1.350 . S
C1053 N1061 1.403 1_556 S
C1054 H1045 0.930 . S
C1054 C1052 1.378 . S
C1054 C1055 1.367 1_554 S
C1055 C1054 1.367 1_556 S
C1055 C1057 1.433 . S
C1056 C1052 1.350 1_556 S
C1056 C1053 1.463 . S
C1056 N1060 1.427 . S
C1057 H1047 0.929 . S
C1057 C1055 1.433 . S
C1057 N1060 1.384 . S
C1058 H1049 0.929 . S
C1058 C1050 1.378 . S
C1058 C1053 1.350 . S
C1059 H1046 0.929 1_556 S
C1059 C1051 1.433 . S
C1059 N1061 1.372 1_556 S
N1060 C1056 1.427 . S
N1060 C1057 1.384 . S
N1061 C1053 1.403 1_554 S
N1061 C1059 1.372 1_554 S
H1062 C1068 0.930 . S
H1063 C1072 0.930 . S
H1064 C1077 0.929 . S
H1065 C1075 0.929 . S
H1066 C1070 0.929 . S
H1067 C1076 0.929 . S
C1068 H1062 0.930 . S
C1068 C1069 1.367 . S
C1068 C1076 1.378 . S
C1069 C1068 1.367 . S
C1069 C1077 1.433 . S
C1070 H1066 0.929 . S
C1070 C1072 1.378 . S
C1070 C1074 1.350 1_554 S
C1071 C1074 1.463 . S
C1071 C1076 1.350 . S
C1071 N1079 1.427 . S
C1072 H1063 0.930 . S
C1072 C1070 1.378 . S
C1072 C1073 1.367 . S
C1073 C1072 1.367 . S
C1073 C1075 1.433 1_554 S
C1074 C1070 1.350 1_556 S
C1074 C1071 1.463 . S
C1074 N1078 1.427 . S
C1075 H1065 0.929 . S
C1075 C1073 1.433 1_556 S
C1075 N1078 1.384 . S
C1076 H1067 0.929 . S
C1076 C1068 1.378 . S
C1076 C1071 1.350 . S
C1077 H1064 0.929 . S
C1077 C1069 1.433 . S
C1077 N1079 1.384 . S
N1078 C1074 1.427 . S
N1078 C1075 1.384 . S
N1079 C1071 1.427 . S
N1079 C1077 1.384 . S
H1080 C1086 0.930 . S
H1081 C1090 0.930 . S
H1082 C1095 0.929 . S
H1083 C1093 0.929 . S
H1084 C1088 0.929 . S
H1085 C1094 0.929 . S
C1086 H1080 0.930 . S
C1086 C1087 1.367 . S
C1086 C1094 1.378 . S
C1087 C1086 1.367 . S
C1087 C1095 1.433 . S
C1088 H1084 0.929 . S
C1088 C1090 1.378 . S
C1088 C1092 1.350 1_554 S
C1089 C1092 1.463 . S
C1089 C1094 1.350 . S
C1089 N1097 1.427 . S
C1090 H1081 0.930 . S
C1090 C1088 1.378 . S
C1090 C1091 1.367 . S
C1091 C1090 1.367 . S
C1091 C1093 1.433 1_554 S
C1092 C1088 1.350 1_556 S
C1092 C1089 1.463 . S
C1092 N1096 1.427 . S
C1093 H1083 0.929 . S
C1093 C1091 1.433 1_556 S
C1093 N1096 1.384 . S
C1094 H1085 0.929 . S
C1094 C1086 1.378 . S
C1094 C1089 1.350 . S
C1095 H1082 0.929 . S
C1095 C1087 1.433 . S
C1095 N1097 1.384 . S
N1096 C1092 1.427 . S
N1096 C1093 1.384 . S
N1097 C1089 1.427 . S
N1097 C1095 1.384 . S
H1098 C1104 0.930 1_554 S
H1099 C1108 0.930 . S
H1100 C1113 0.929 . S
H1101 C1111 0.929 . S
H1102 C1106 0.929 . S
H1103 C1112 0.932 1_554 S
C1104 H1098 0.930 1_556 S
C1104 C1105 1.367 . S
C1104 C1112 1.377 . S
C1105 C1104 1.367 . S
C1105 C1113 1.433 . S
C1106 H1102 0.929 . S
C1106 C1108 1.378 . S
C1106 C1110 1.350 . S
C1107 C1110 1.463 . S
C1107 C1112 1.347 . S
C1107 N1115 1.427 . S
C1108 H1099 0.930 . S
C1108 C1106 1.378 . S
C1108 C1109 1.367 1_556 S
C1109 C1108 1.367 1_554 S
C1109 C1111 1.433 . S
C1110 C1106 1.350 . S
C1110 C1107 1.463 . S
C1110 N1114 1.427 1_556 S
C1111 H1101 0.929 . S
C1111 C1109 1.433 . S
C1111 N1114 1.384 . S
C1112 H1103 0.932 1_556 S
C1112 C1104 1.377 . S
C1112 C1107 1.347 . S
C1113 H1100 0.929 . S
C1113 C1105 1.433 . S
C1113 N1115 1.384 . S
N1114 C1110 1.427 1_554 S
N1114 C1111 1.384 . S
N1115 C1107 1.427 . S
N1115 C1113 1.384 . S
H1116 C1122 0.930 . S
H1117 C1126 0.930 1_554 S
H1118 C1131 0.929 . S
H1119 C1129 0.929 . S
H1120 C1124 0.929 . S
H1121 C1130 0.929 . S
C1122 H1116 0.930 . S
C1122 C1123 1.367 . S
C1122 C1130 1.378 . S
C1123 C1122 1.367 . S
C1123 C1131 1.433 . S
C1124 H1120 0.929 . S
C1124 C1126 1.378 . S
C1124 C1128 1.350 . S
C1125 C1128 1.463 . S
C1125 C1130 1.350 . S
C1125 N1133 1.427 . S
C1126 H1117 0.930 1_556 S
C1126 C1124 1.378 . S
C1126 C1127 1.367 . S
C1127 C1126 1.367 . S
C1127 C1129 1.433 . S
C1128 C1124 1.350 . S
C1128 C1125 1.463 . S
C1128 N1132 1.427 . S
C1129 H1119 0.929 . S
C1129 C1127 1.433 . S
C1129 N1132 1.384 . S
C1130 H1121 0.929 . S
C1130 C1122 1.378 . S
C1130 C1125 1.350 . S
C1131 H1118 0.929 . S
C1131 C1123 1.433 . S
C1131 N1133 1.384 . S
N1132 C1128 1.427 . S
N1132 C1129 1.384 . S
N1133 C1125 1.427 . S
N1133 C1131 1.384 . S
H1134 C1140 0.930 . S
H1135 C1144 0.930 . S
H1136 C1149 0.929 . S
H1137 C1147 0.929 . S
H1138 C1142 0.929 1_556 S
H1139 C1148 0.929 . S
C1140 H1134 0.930 . S
C1140 C1141 1.367 . S
C1140 C1148 1.378 . S
C1141 C1140 1.367 . S
C1141 C1149 1.433 . S
C1142 H1138 0.929 1_554 S
C1142 C1144 1.378 . S
C1142 C1146 1.350 . S
C1143 C1146 1.463 1_556 S
C1143 C1148 1.350 . S
C1143 N1151 1.427 . S
C1144 H1135 0.930 . S
C1144 C1142 1.378 . S
C1144 C1145 1.367 . S
C1145 C1144 1.367 . S
C1145 C1147 1.433 . S
C1146 C1142 1.350 . S
C1146 C1143 1.463 1_554 S
C1146 N1150 1.427 . S
C1147 H1137 0.929 . S
C1147 C1145 1.433 . S
C1147 N1150 1.384 . S
C1148 H1139 0.929 . S
C1148 C1140 1.378 . S
C1148 C1143 1.350 . S
C1149 H1136 0.929 . S
C1149 C1141 1.433 . S
C1149 N1151 1.384 . S
N1150 C1146 1.427 . S
N1150 C1147 1.384 . S
N1151 C1143 1.427 . S
N1151 C1149 1.384 . S
H1152 C1158 0.930 . S
H1153 C1162 0.930 . S
H1154 C1167 0.929 . S
H1155 C1165 0.929 . S
H1156 C1160 0.929 . S
H1157 C1166 0.929 . S
C1158 H1152 0.930 . S
C1158 C1159 1.367 . S
C1158 C1166 1.378 . S
C1159 C1158 1.367 . S
C1159 C1167 1.433 . S
C1160 H1156 0.929 . S
C1160 C1162 1.378 . S
C1160 C1164 1.350 . S
C1161 C1164 1.463 . S
C1161 C1166 1.350 . S
C1161 N1169 1.427 . S
C1162 H1153 0.930 . S
C1162 C1160 1.378 . S
C1162 C1163 1.367 . S
C1163 C1162 1.367 . S
C1163 C1165 1.433 . S
C1164 C1160 1.350 . S
C1164 C1161 1.463 . S
C1164 N1168 1.427 . S
C1165 H1155 0.929 . S
C1165 C1163 1.433 . S
C1165 N1168 1.384 . S
C1166 H1157 0.929 . S
C1166 C1158 1.378 . S
C1166 C1161 1.350 . S
C1167 H1154 0.929 . S
C1167 C1159 1.433 . S
C1167 N1169 1.384 . S
N1168 C1164 1.427 . S
N1168 C1165 1.384 . S
N1169 C1161 1.427 . S
N1169 C1167 1.384 . S
H1170 C1176 0.930 . S
H1171 C1180 0.930 . S
H1172 C1185 0.929 . S
H1173 C1183 0.929 . S
H1174 C1178 0.929 . S
H1175 C1184 0.929 . S
C1176 H1170 0.930 . S
C1176 C1177 1.367 . S
C1176 C1184 1.378 . S
C1177 C1176 1.367 . S
C1177 C1185 1.433 . S
C1178 H1174 0.929 . S
C1178 C1180 1.378 . S
C1178 C1182 1.350 . S
C1179 C1182 1.463 . S
C1179 C1184 1.350 . S
C1179 N1187 1.427 . S
C1180 H1171 0.930 . S
C1180 C1178 1.378 . S
C1180 C1181 1.367 . S
C1181 C1180 1.367 . S
C1181 C1183 1.433 . S
C1182 C1178 1.350 . S
C1182 C1179 1.463 . S
C1182 N1186 1.427 . S
C1183 H1173 0.929 . S
C1183 C1181 1.433 . S
C1183 N1186 1.384 . S
C1184 H1175 0.929 . S
C1184 C1176 1.378 . S
C1184 C1179 1.350 . S
C1185 H1172 0.929 . S
C1185 C1177 1.433 . S
C1185 N1187 1.384 . S
N1186 C1182 1.427 . S
N1186 C1183 1.384 . S
N1187 C1179 1.427 . S
N1187 C1185 1.384 . S
H1188 C1194 0.930 . S
H1189 C1198 0.930 . S
H1190 C1203 0.929 . S
H1191 C1201 0.929 . S
H1192 C1196 0.929 . S
H1193 C1202 0.929 . S
C1194 H1188 0.930 . S
C1194 C1195 1.367 . S
C1194 C1202 1.378 . S
C1195 C1194 1.367 . S
C1195 C1203 1.433 . S
C1196 H1192 0.929 . S
C1196 C1198 1.378 . S
C1196 C1200 1.350 . S
C1197 C1200 1.463 . S
C1197 C1202 1.350 . S
C1197 N1205 1.427 . S
C1198 H1189 0.930 . S
C1198 C1196 1.378 . S
C1198 C1199 1.367 . S
C1199 C1198 1.367 . S
C1199 C1201 1.433 . S
C1200 C1196 1.350 . S
C1200 C1197 1.463 . S
C1200 N1204 1.427 . S
C1201 H1191 0.929 . S
C1201 C1199 1.433 . S
C1201 N1204 1.384 . S
C1202 H1193 0.929 . S
C1202 C1194 1.378 . S
C1202 C1197 1.350 . S
C1203 H1190 0.929 . S
C1203 C1195 1.433 . S
C1203 N1205 1.384 . S
N1204 C1200 1.427 . S
N1204 C1201 1.384 . S
N1205 C1197 1.427 . S
N1205 C1203 1.384 . S
H1206 C1212 0.930 . S
H1207 C1216 0.930 . S
H1208 C1221 0.929 . S
H1209 C1219 0.929 . S
H1210 C1214 0.929 . S
H1211 C1220 0.929 . S
C1212 H1206 0.930 . S
C1212 C1213 1.367 . S
C1212 C1220 1.378 . S
C1213 C1212 1.367 . S
C1213 C1221 1.433 . S
C1214 H1210 0.929 . S
C1214 C1216 1.378 . S
C1214 C1218 1.350 . S
C1215 C1218 1.463 1_655 S
C1215 C1220 1.350 . S
C1215 N1223 1.427 . S
C1216 H1207 0.930 . S
C1216 C1214 1.378 . S
C1216 C1217 1.367 . S
C1217 C1216 1.367 . S
C1217 C1219 1.433 . S
C1218 C1214 1.350 . S
C1218 C1215 1.463 1_455 S
C1218 N1222 1.427 . S
C1219 H1209 0.929 . S
C1219 C1217 1.433 . S
C1219 N1222 1.384 . S
C1220 H1211 0.929 . S
C1220 C1212 1.378 . S
C1220 C1215 1.350 . S
C1221 H1208 0.929 . S
C1221 C1213 1.433 . S
C1221 N1223 1.384 . S
N1222 C1218 1.427 . S
N1222 C1219 1.384 . S
N1223 C1215 1.427 . S
N1223 C1221 1.384 . S
H1224 C1230 0.930 . S
H1225 C1234 0.930 . S
H1226 C1239 0.929 . S
H1227 C1237 0.929 . S
H1228 C1232 0.929 . S
H1229 C1238 0.929 . S
C1230 H1224 0.930 . S
C1230 C1231 1.367 . S
C1230 C1238 1.378 . S
C1231 C1230 1.367 . S
C1231 C1239 1.433 . S
C1232 H1228 0.929 . S
C1232 C1234 1.378 . S
C1232 C1236 1.350 . S
C1233 C1236 1.463 . S
C1233 C1238 1.350 . S
C1233 N1241 1.427 . S
C1234 H1225 0.930 . S
C1234 C1232 1.378 . S
C1234 C1235 1.367 . S
C1235 C1234 1.367 . S
C1235 C1237 1.433 . S
C1236 C1232 1.350 . S
C1236 C1233 1.463 . S
C1236 N1240 1.427 . S
C1237 H1227 0.929 . S
C1237 C1235 1.433 . S
C1237 N1240 1.384 . S
C1238 H1229 0.929 . S
C1238 C1230 1.378 . S
C1238 C1233 1.350 . S
C1239 H1226 0.929 . S
C1239 C1231 1.433 . S
C1239 N1241 1.384 . S
N1240 C1236 1.427 . S
N1240 C1237 1.384 . S
N1241 C1233 1.427 . S
N1241 C1239 1.384 . S
H1242 C1248 0.930 . S
H1243 C1252 0.930 . S
H1244 C1257 0.929 . S
H1245 C1255 0.929 . S
H1246 C1250 0.929 . S
H1247 C1256 0.929 . S
C1248 H1242 0.930 . S
C1248 C1249 1.367 . S
C1248 C1256 1.378 1_545 S
C1249 C1248 1.367 . S
C1249 C1257 1.433 . S
C1250 H1246 0.929 . S
C1250 C1252 1.378 . S
C1250 C1254 1.350 . S
C1251 C1254 1.463 . S
C1251 C1256 1.350 . S
C1251 N1259 1.427 1_565 S
C1252 H1243 0.930 . S
C1252 C1250 1.378 . S
C1252 C1253 1.367 . S
C1253 C1252 1.367 . S
C1253 C1255 1.433 . S
C1254 C1250 1.350 . S
C1254 C1251 1.463 . S
C1254 N1258 1.427 . S
C1255 H1245 0.929 . S
C1255 C1253 1.433 . S
C1255 N1258 1.384 . S
C1256 H1247 0.929 . S
C1256 C1248 1.378 1_565 S
C1256 C1251 1.350 . S
C1257 H1244 0.929 . S
C1257 C1249 1.433 . S
C1257 N1259 1.384 . S
N1258 C1254 1.427 . S
N1258 C1255 1.384 . S
N1259 C1251 1.427 1_545 S
N1259 C1257 1.384 . S
H1260 C1266 0.930 . S
H1261 C1270 0.930 . S
H1262 C1275 0.929 . S
H1263 C1273 0.929 . S
H1264 C1268 0.929 . S
H1265 C1274 0.929 . S
C1266 H1260 0.930 . S
C1266 C1267 1.367 . S
C1266 C1274 1.378 . S
C1267 C1266 1.367 . S
C1267 C1275 1.433 . S
C1268 H1264 0.929 . S
C1268 C1270 1.378 . S
C1268 C1272 1.350 . S
C1269 C1272 1.463 . S
C1269 C1274 1.350 . S
C1269 N1277 1.427 . S
C1270 H1261 0.930 . S
C1270 C1268 1.378 . S
C1270 C1271 1.367 . S
C1271 C1270 1.367 . S
C1271 C1273 1.433 . S
C1272 C1268 1.350 . S
C1272 C1269 1.463 . S
C1272 N1276 1.427 . S
C1273 H1263 0.929 . S
C1273 C1271 1.433 . S
C1273 N1276 1.384 . S
C1274 H1265 0.929 . S
C1274 C1266 1.378 . S
C1274 C1269 1.350 . S
C1275 H1262 0.929 . S
C1275 C1267 1.433 . S
C1275 N1277 1.384 . S
N1276 C1272 1.427 . S
N1276 C1273 1.384 . S
N1277 C1269 1.427 . S
N1277 C1275 1.384 . S
H1278 C1284 0.930 . S
H1279 C1288 0.930 . S
H1280 C1293 0.929 . S
H1281 C1291 0.929 . S
H1282 C1286 0.929 . S
H1283 C1292 0.929 . S
C1284 H1278 0.930 . S
C1284 C1285 1.367 . S
C1284 C1292 1.378 . S
C1285 C1284 1.367 . S
C1285 C1293 1.433 . S
C1286 H1282 0.929 . S
C1286 C1288 1.378 . S
C1286 C1290 1.350 . S
C1287 C1290 1.463 . S
C1287 C1292 1.350 . S
C1287 N1295 1.427 . S
C1288 H1279 0.930 . S
C1288 C1286 1.378 . S
C1288 C1289 1.367 . S
C1289 C1288 1.367 . S
C1289 C1291 1.433 . S
C1290 C1286 1.350 . S
C1290 C1287 1.463 . S
C1290 N1294 1.427 . S
C1291 H1281 0.929 . S
C1291 C1289 1.433 . S
C1291 N1294 1.384 . S
C1292 H1283 0.929 . S
C1292 C1284 1.378 . S
C1292 C1287 1.350 . S
C1293 H1280 0.929 . S
C1293 C1285 1.433 . S
C1293 N1295 1.384 . S
N1294 C1290 1.427 . S
N1294 C1291 1.384 . S
N1295 C1287 1.427 . S
N1295 C1293 1.384 . S
H1296 C1302 0.930 . S
H1297 C1306 0.930 . S
H1298 C1311 0.929 . S
H1299 C1309 0.929 . S
H1300 C1304 0.929 . S
H1301 C1310 0.929 . S
C1302 H1296 0.930 . S
C1302 C1303 1.367 . S
C1302 C1310 1.378 . S
C1303 C1302 1.367 . S
C1303 C1311 1.433 . S
C1304 H1300 0.929 . S
C1304 C1306 1.378 . S
C1304 C1308 1.350 . S
C1305 C1308 1.463 . S
C1305 C1310 1.350 . S
C1305 N1313 1.427 . S
C1306 H1297 0.930 . S
C1306 C1304 1.378 . S
C1306 C1307 1.367 . S
C1307 C1306 1.367 . S
C1307 C1309 1.433 . S
C1308 C1304 1.350 . S
C1308 C1305 1.463 . S
C1308 N1312 1.427 . S
C1309 H1299 0.929 . S
C1309 C1307 1.433 . S
C1309 N1312 1.384 . S
C1310 H1301 0.929 . S
C1310 C1302 1.378 . S
C1310 C1305 1.350 . S
C1311 H1298 0.929 . S
C1311 C1303 1.433 . S
C1311 N1313 1.384 . S
N1312 C1308 1.427 . S
N1312 C1309 1.384 . S
N1313 C1305 1.427 . S
N1313 C1311 1.384 . S
H1314 C1320 0.930 . S
H1315 C1324 0.930 . S
H1316 C1329 0.929 . S
H1317 C1327 0.929 . S
H1318 C1322 0.929 . S
H1319 C1328 0.929 . S
C1320 H1314 0.930 . S
C1320 C1321 1.367 . S
C1320 C1328 1.378 . S
C1321 C1320 1.367 . S
C1321 C1329 1.433 . S
C1322 H1318 0.929 . S
C1322 C1324 1.378 . S
C1322 C1326 1.350 . S
C1323 C1326 1.463 . S
C1323 C1328 1.350 . S
C1323 N1331 1.427 . S
C1324 H1315 0.930 . S
C1324 C1322 1.378 . S
C1324 C1325 1.367 . S
C1325 C1324 1.367 . S
C1325 C1327 1.433 . S
C1326 C1322 1.350 . S
C1326 C1323 1.463 . S
C1326 N1330 1.427 . S
C1327 H1317 0.929 . S
C1327 C1325 1.433 . S
C1327 N1330 1.384 . S
C1328 H1319 0.929 . S
C1328 C1320 1.378 . S
C1328 C1323 1.350 . S
C1329 H1316 0.929 . S
C1329 C1321 1.433 . S
C1329 N1331 1.384 . S
N1330 C1326 1.427 . S
N1330 C1327 1.384 . S
N1331 C1323 1.427 . S
N1331 C1329 1.384 . S
H1332 C1338 0.930 . S
H1333 C1342 0.930 . S
H1334 C1347 0.929 . S
H1335 C1345 0.929 . S
H1336 C1340 0.929 . S
H1337 C1346 0.929 . S
C1338 H1332 0.930 . S
C1338 C1339 1.367 . S
C1338 C1346 1.378 . S
C1339 C1338 1.367 . S
C1339 C1347 1.433 . S
C1340 H1336 0.929 . S
C1340 C1342 1.378 . S
C1340 C1344 1.350 . S
C1341 C1344 1.463 . S
C1341 C1346 1.350 . S
C1341 N1349 1.427 . S
C1342 H1333 0.930 . S
C1342 C1340 1.378 . S
C1342 C1343 1.367 . S
C1343 C1342 1.367 . S
C1343 C1345 1.433 . S
C1344 C1340 1.350 . S
C1344 C1341 1.463 . S
C1344 N1348 1.427 . S
C1345 H1335 0.929 . S
C1345 C1343 1.433 . S
C1345 N1348 1.384 . S
C1346 H1337 0.929 . S
C1346 C1338 1.378 . S
C1346 C1341 1.350 . S
C1347 H1334 0.929 . S
C1347 C1339 1.433 . S
C1347 N1349 1.384 . S
N1348 C1344 1.427 . S
N1348 C1345 1.384 . S
N1349 C1341 1.427 . S
N1349 C1347 1.384 . S
H1350 C1356 0.930 . S
H1351 C1360 0.930 . S
H1352 C1365 0.929 . S
H1353 C1363 0.929 . S
H1354 C1358 0.929 . S
H1355 C1364 0.929 . S
C1356 H1350 0.930 . S
C1356 C1357 1.367 . S
C1356 C1364 1.378 . S
C1357 C1356 1.367 . S
C1357 C1365 1.433 . S
C1358 H1354 0.929 . S
C1358 C1360 1.378 . S
C1358 C1362 1.350 . S
C1359 C1362 1.463 . S
C1359 C1364 1.350 . S
C1359 N1367 1.427 . S
C1360 H1351 0.930 . S
C1360 C1358 1.378 . S
C1360 C1361 1.367 . S
C1361 C1360 1.367 . S
C1361 C1363 1.433 . S
C1362 C1358 1.350 . S
C1362 C1359 1.463 . S
C1362 N1366 1.427 . S
C1363 H1353 0.929 . S
C1363 C1361 1.433 . S
C1363 N1366 1.384 . S
C1364 H1355 0.929 . S
C1364 C1356 1.378 . S
C1364 C1359 1.350 . S
C1365 H1352 0.929 . S
C1365 C1357 1.433 . S
C1365 N1367 1.384 . S
N1366 C1362 1.427 . S
N1366 C1363 1.384 . S
N1367 C1359 1.427 . S
N1367 C1365 1.384 . S
H1368 C1374 0.930 . S
H1369 C1378 0.930 . S
H1370 C1383 0.929 . S
H1371 C1381 0.929 . S
H1372 C1376 0.929 . S
H1373 C1382 0.929 . S
C1374 H1368 0.930 . S
C1374 C1375 1.367 . S
C1374 C1382 1.378 . S
C1375 C1374 1.367 . S
C1375 C1383 1.433 . S
C1376 H1372 0.929 . S
C1376 C1378 1.378 . S
C1376 C1380 1.350 . S
C1377 C1380 1.463 1_545 S
C1377 C1382 1.350 . S
C1377 N1385 1.427 . S
C1378 H1369 0.930 . S
C1378 C1376 1.378 . S
C1378 C1379 1.367 . S
C1379 C1378 1.367 . S
C1379 C1381 1.433 . S
C1380 C1376 1.350 . S
C1380 C1377 1.463 1_565 S
C1380 N1384 1.427 . S
C1381 H1371 0.929 . S
C1381 C1379 1.433 . S
C1381 N1384 1.384 . S
C1382 H1373 0.929 . S
C1382 C1374 1.378 . S
C1382 C1377 1.350 . S
C1383 H1370 0.929 . S
C1383 C1375 1.433 . S
C1383 N1385 1.384 . S
N1384 C1380 1.427 . S
N1384 C1381 1.384 . S
N1385 C1377 1.427 . S
N1385 C1383 1.384 . S
H1386 C1392 0.930 . S
H1387 C1396 0.930 . S
H1388 C1401 0.929 . S
H1389 C1399 0.929 . S
H1390 C1394 0.929 . S
H1391 C1400 0.929 . S
C1392 H1386 0.930 . S
C1392 C1393 1.367 . S
C1392 C1400 1.378 . S
C1393 C1392 1.367 . S
C1393 C1401 1.433 . S
C1394 H1390 0.929 . S
C1394 C1396 1.378 . S
C1394 C1398 1.350 . S
C1395 C1398 1.463 . S
C1395 C1400 1.350 1_455 S
C1395 N1403 1.427 . S
C1396 H1387 0.930 . S
C1396 C1394 1.378 . S
C1396 C1397 1.367 . S
C1397 C1396 1.367 . S
C1397 C1399 1.433 . S
C1398 C1394 1.350 . S
C1398 C1395 1.463 . S
C1398 N1402 1.427 . S
C1399 H1389 0.929 . S
C1399 C1397 1.433 . S
C1399 N1402 1.384 . S
C1400 H1391 0.929 . S
C1400 C1392 1.378 . S
C1400 C1395 1.350 1_655 S
C1401 H1388 0.929 . S
C1401 C1393 1.433 . S
C1401 N1403 1.384 1_655 S
N1402 C1398 1.427 . S
N1402 C1399 1.384 . S
N1403 C1395 1.427 . S
N1403 C1401 1.384 1_455 S
H1404 C1410 0.930 . S
H1405 C1414 0.930 . S
H1406 C1419 0.929 . S
H1407 C1417 0.929 . S
H1408 C1412 0.929 . S
H1409 C1418 0.929 . S
C1410 H1404 0.930 . S
C1410 C1411 1.367 . S
C1410 C1418 1.378 . S
C1411 C1410 1.367 . S
C1411 C1419 1.433 . S
C1412 H1408 0.929 . S
C1412 C1414 1.378 . S
C1412 C1416 1.350 . S
C1413 C1416 1.463 . S
C1413 C1418 1.350 . S
C1413 N1421 1.427 . S
C1414 H1405 0.930 . S
C1414 C1412 1.378 . S
C1414 C1415 1.367 . S
C1415 C1414 1.367 . S
C1415 C1417 1.433 . S
C1416 C1412 1.350 . S
C1416 C1413 1.463 . S
C1416 N1420 1.427 . S
C1417 H1407 0.929 . S
C1417 C1415 1.433 . S
C1417 N1420 1.384 . S
C1418 H1409 0.929 . S
C1418 C1410 1.378 . S
C1418 C1413 1.350 . S
C1419 H1406 0.929 . S
C1419 C1411 1.433 . S
C1419 N1421 1.384 . S
N1420 C1416 1.427 . S
N1420 C1417 1.384 . S
N1421 C1413 1.427 . S
N1421 C1419 1.384 . S
H1422 C1428 0.930 . S
H1423 C1432 0.930 . S
H1424 C1437 0.929 . S
H1425 C1435 0.929 . S
H1426 C1430 0.929 . S
H1427 C1436 0.929 . S
C1428 H1422 0.930 . S
C1428 C1429 1.367 . S
C1428 C1436 1.378 . S
C1429 C1428 1.367 . S
C1429 C1437 1.433 . S
C1430 H1426 0.929 . S
C1430 C1432 1.378 . S
C1430 C1434 1.350 . S
C1431 C1434 1.463 . S
C1431 C1436 1.350 . S
C1431 N1439 1.427 . S
C1432 H1423 0.930 . S
C1432 C1430 1.378 . S
C1432 C1433 1.367 . S
C1433 C1432 1.367 . S
C1433 C1435 1.433 . S
C1434 C1430 1.350 . S
C1434 C1431 1.463 . S
C1434 N1438 1.427 . S
C1435 H1425 0.929 . S
C1435 C1433 1.433 . S
C1435 N1438 1.384 . S
C1436 H1427 0.929 . S
C1436 C1428 1.378 . S
C1436 C1431 1.350 . S
C1437 H1424 0.929 . S
C1437 C1429 1.433 . S
C1437 N1439 1.384 . S
N1438 C1434 1.427 . S
N1438 C1435 1.384 . S
N1439 C1431 1.427 . S
N1439 C1437 1.384 . S
H1440 C1446 0.930 . S
H1441 C1450 0.930 . S
H1442 C1455 0.929 . S
H1443 C1453 0.929 . S
H1444 C1448 0.929 . S
H1445 C1454 0.929 . S
C1446 H1440 0.930 . S
C1446 C1447 1.367 . S
C1446 C1454 1.378 . S
C1447 C1446 1.367 . S
C1447 C1455 1.433 . S
C1448 H1444 0.929 . S
C1448 C1450 1.378 . S
C1448 C1452 1.350 . S
C1449 C1452 1.463 . S
C1449 C1454 1.350 . S
C1449 N1457 1.427 . S
C1450 H1441 0.930 . S
C1450 C1448 1.378 . S
C1450 C1451 1.367 . S
C1451 C1450 1.367 . S
C1451 C1453 1.433 . S
C1452 C1448 1.350 . S
C1452 C1449 1.463 . S
C1452 N1456 1.427 . S
C1453 H1443 0.929 . S
C1453 C1451 1.433 . S
C1453 N1456 1.384 . S
C1454 H1445 0.929 . S
C1454 C1446 1.378 . S
C1454 C1449 1.350 . S
C1455 H1442 0.929 . S
C1455 C1447 1.433 . S
C1455 N1457 1.384 . S
N1456 C1452 1.427 . S
N1456 C1453 1.384 . S
N1457 C1449 1.427 . S
N1457 C1455 1.384 . S
H1458 C1464 0.930 . S
H1459 C1468 0.930 . S
H1460 C1473 0.929 . S
H1461 C1471 0.929 . S
H1462 C1466 0.929 . S
H1463 C1472 0.929 . S
C1464 H1458 0.930 . S
C1464 C1465 1.367 . S
C1464 C1472 1.378 . S
C1465 C1464 1.367 . S
C1465 C1473 1.433 . S
C1466 H1462 0.929 . S
C1466 C1468 1.378 . S
C1466 C1470 1.350 . S
C1467 C1470 1.463 . S
C1467 C1472 1.350 . S
C1467 N1475 1.427 . S
C1468 H1459 0.930 . S
C1468 C1466 1.378 . S
C1468 C1469 1.367 . S
C1469 C1468 1.367 . S
C1469 C1471 1.433 . S
C1470 C1466 1.350 . S
C1470 C1467 1.463 . S
C1470 N1474 1.427 . S
C1471 H1461 0.929 . S
C1471 C1469 1.433 . S
C1471 N1474 1.384 . S
C1472 H1463 0.929 . S
C1472 C1464 1.378 . S
C1472 C1467 1.350 . S
C1473 H1460 0.929 . S
C1473 C1465 1.433 . S
C1473 N1475 1.384 . S
N1474 C1470 1.427 . S
N1474 C1471 1.384 . S
N1475 C1467 1.427 . S
N1475 C1473 1.384 . S
H1476 C1482 0.930 . S
H1477 C1486 0.930 . S
H1478 C1491 0.929 . S
H1479 C1489 0.929 . S
H1480 C1484 0.929 . S
H1481 C1490 0.929 . S
C1482 H1476 0.930 . S
C1482 C1483 1.367 . S
C1482 C1490 1.378 . S
C1483 C1482 1.367 . S
C1483 C1491 1.433 . S
C1484 H1480 0.929 . S
C1484 C1486 1.378 . S
C1484 C1488 1.350 . S
C1485 C1488 1.463 . S
C1485 C1490 1.350 1_545 S
C1485 N1493 1.427 . S
C1486 H1477 0.930 . S
C1486 C1484 1.378 . S
C1486 C1487 1.367 . S
C1487 C1486 1.367 . S
C1487 C1489 1.433 . S
C1488 C1484 1.350 . S
C1488 C1485 1.463 . S
C1488 N1492 1.427 . S
C1489 H1479 0.929 . S
C1489 C1487 1.433 . S
C1489 N1492 1.384 . S
C1490 H1481 0.929 . S
C1490 C1482 1.378 . S
C1490 C1485 1.350 1_565 S
C1491 H1478 0.929 . S
C1491 C1483 1.433 . S
C1491 N1493 1.384 1_565 S
N1492 C1488 1.427 . S
N1492 C1489 1.384 . S
N1493 C1485 1.427 . S
N1493 C1491 1.384 1_545 S
H1494 C1500 0.930 . S
H1495 C1504 0.930 . S
H1496 C1509 0.929 . S
H1497 C1507 0.929 . S
H1498 C1502 0.929 . S
H1499 C1508 0.929 . S
C1500 H1494 0.930 . S
C1500 C1501 1.367 . S
C1500 C1508 1.378 1_455 S
C1501 C1500 1.367 . S
C1501 C1509 1.433 . S
C1502 H1498 0.929 . S
C1502 C1504 1.378 . S
C1502 C1506 1.350 . S
C1503 C1506 1.463 . S
C1503 C1508 1.350 . S
C1503 N1511 1.427 . S
C1504 H1495 0.930 . S
C1504 C1502 1.378 . S
C1504 C1505 1.367 . S
C1505 C1504 1.367 . S
C1505 C1507 1.433 . S
C1506 C1502 1.350 . S
C1506 C1503 1.463 . S
C1506 N1510 1.427 . S
C1507 H1497 0.929 . S
C1507 C1505 1.433 . S
C1507 N1510 1.384 . S
C1508 H1499 0.929 . S
C1508 C1500 1.378 1_655 S
C1508 C1503 1.350 . S
C1509 H1496 0.929 . S
C1509 C1501 1.433 . S
C1509 N1511 1.384 1_455 S
N1510 C1506 1.427 . S
N1510 C1507 1.384 . S
N1511 C1503 1.427 . S
N1511 C1509 1.384 1_655 S
H1512 C1518 0.930 . S
H1513 C1522 0.930 . S
H1514 C1527 0.929 . S
H1515 C1525 0.929 . S
H1516 C1520 0.929 . S
H1517 C1526 0.929 . S
C1518 H1512 0.930 . S
C1518 C1519 1.367 . S
C1518 C1526 1.378 . S
C1519 C1518 1.367 . S
C1519 C1527 1.433 . S
C1520 H1516 0.929 . S
C1520 C1522 1.378 . S
C1520 C1524 1.350 . S
C1521 C1524 1.463 . S
C1521 C1526 1.350 . S
C1521 N1529 1.427 . S
C1522 H1513 0.930 . S
C1522 C1520 1.378 . S
C1522 C1523 1.367 . S
C1523 C1522 1.367 . S
C1523 C1525 1.433 . S
C1524 C1520 1.350 . S
C1524 C1521 1.463 . S
C1524 N1528 1.427 . S
C1525 H1515 0.929 . S
C1525 C1523 1.433 . S
C1525 N1528 1.384 . S
C1526 H1517 0.929 . S
C1526 C1518 1.378 . S
C1526 C1521 1.350 . S
C1527 H1514 0.929 . S
C1527 C1519 1.433 . S
C1527 N1529 1.384 . S
N1528 C1524 1.427 . S
N1528 C1525 1.384 . S
N1529 C1521 1.427 . S
N1529 C1527 1.384 . S
H1530 C1536 0.930 . S
H1531 C1540 0.930 . S
H1532 C1545 0.929 . S
H1533 C1543 0.929 . S
H1534 C1538 0.929 . S
H1535 C1544 0.929 . S
C1536 H1530 0.930 . S
C1536 C1537 1.367 . S
C1536 C1544 1.378 . S
C1537 C1536 1.367 . S
C1537 C1545 1.433 . S
C1538 H1534 0.929 . S
C1538 C1540 1.378 . S
C1538 C1542 1.347 1_655 S
C1539 C1542 1.465 . S
C1539 C1544 1.350 . S
C1539 N1547 1.427 . S
C1540 H1531 0.930 . S
C1540 C1538 1.378 . S
C1540 C1541 1.367 . S
C1541 C1540 1.367 . S
C1541 C1543 1.433 . S
C1542 C1538 1.347 1_455 S
C1542 C1539 1.465 . S
C1542 N1546 1.428 1_455 S
C1543 H1533 0.929 . S
C1543 C1541 1.433 . S
C1543 N1546 1.384 . S
C1544 H1535 0.929 . S
C1544 C1536 1.378 . S
C1544 C1539 1.350 . S
C1545 H1532 0.929 . S
C1545 C1537 1.433 . S
C1545 N1547 1.384 . S
N1546 C1542 1.428 1_655 S
N1546 C1543 1.384 . S
N1547 C1539 1.427 . S
N1547 C1545 1.384 . S
H1548 C1554 0.930 . S
H1549 C1558 0.930 . S
H1550 C1563 0.929 . S
H1551 C1561 0.929 . S
H1552 C1556 0.929 . S
H1553 C1562 0.929 . S
C1554 H1548 0.930 . S
C1554 C1555 1.367 . S
C1554 C1562 1.378 . S
C1555 C1554 1.367 . S
C1555 C1563 1.433 . S
C1556 H1552 0.929 . S
C1556 C1558 1.378 . S
C1556 C1560 1.350 . S
C1557 C1560 1.463 . S
C1557 C1562 1.350 . S
C1557 N1565 1.427 . S
C1558 H1549 0.930 . S
C1558 C1556 1.378 . S
C1558 C1559 1.367 . S
C1559 C1558 1.367 . S
C1559 C1561 1.433 . S
C1560 C1556 1.350 . S
C1560 C1557 1.463 . S
C1560 N1564 1.427 . S
C1561 H1551 0.929 . S
C1561 C1559 1.433 . S
C1561 N1564 1.384 . S
C1562 H1553 0.929 . S
C1562 C1554 1.378 . S
C1562 C1557 1.350 . S
C1563 H1550 0.929 . S
C1563 C1555 1.433 . S
C1563 N1565 1.384 . S
N1564 C1560 1.427 . S
N1564 C1561 1.384 . S
N1565 C1557 1.427 . S
N1565 C1563 1.384 . S
H1566 C1572 0.930 . S
H1567 C1576 0.930 . S
H1568 C1581 0.929 . S
H1569 C1579 0.929 . S
H1570 C1574 0.929 . S
H1571 C1580 0.929 1_545 S
C1572 H1566 0.930 . S
C1572 C1573 1.367 . S
C1572 C1580 1.378 . S
C1573 C1572 1.367 . S
C1573 C1581 1.433 . S
C1574 H1570 0.929 . S
C1574 C1576 1.378 . S
C1574 C1578 1.350 . S
C1575 C1578 1.463 1_565 S
C1575 C1580 1.350 . S
C1575 N1583 1.427 . S
C1576 H1567 0.930 . S
C1576 C1574 1.378 . S
C1576 C1577 1.367 . S
C1577 C1576 1.367 . S
C1577 C1579 1.433 . S
C1578 C1574 1.350 . S
C1578 C1575 1.463 1_545 S
C1578 N1582 1.427 . S
C1579 H1569 0.929 . S
C1579 C1577 1.433 . S
C1579 N1582 1.384 . S
C1580 H1571 0.929 1_565 S
C1580 C1572 1.378 . S
C1580 C1575 1.350 . S
C1581 H1568 0.929 . S
C1581 C1573 1.433 . S
C1581 N1583 1.384 . S
N1582 C1578 1.427 . S
N1582 C1579 1.384 . S
N1583 C1575 1.427 . S
N1583 C1581 1.384 . S
H1584 C1590 0.930 . S
H1585 C1594 0.930 . S
H1586 C1599 0.929 . S
H1587 C1597 0.929 . S
H1588 C1592 0.929 . S
H1589 C1598 0.929 . S
C1590 H1584 0.930 . S
C1590 C1591 1.367 . S
C1590 C1598 1.378 . S
C1591 C1590 1.367 . S
C1591 C1599 1.433 . S
C1592 H1588 0.929 . S
C1592 C1594 1.378 . S
C1592 C1596 1.350 . S
C1593 C1596 1.463 . S
C1593 C1598 1.350 . S
C1593 N1601 1.427 . S
C1594 H1585 0.930 . S
C1594 C1592 1.378 . S
C1594 C1595 1.367 . S
C1595 C1594 1.367 . S
C1595 C1597 1.433 . S
C1596 C1592 1.350 . S
C1596 C1593 1.463 . S
C1596 N1600 1.427 . S
C1597 H1587 0.929 . S
C1597 C1595 1.433 . S
C1597 N1600 1.384 . S
C1598 H1589 0.929 . S
C1598 C1590 1.378 . S
C1598 C1593 1.350 . S
C1599 H1586 0.929 . S
C1599 C1591 1.433 . S
C1599 N1601 1.384 . S
N1600 C1596 1.427 . S
N1600 C1597 1.384 . S
N1601 C1593 1.427 . S
N1601 C1599 1.384 . S
H1602 C1608 0.930 . S
H1603 C1612 0.930 . S
H1604 C1617 0.929 . S
H1605 C1615 0.929 . S
H1606 C1610 0.929 . S
H1607 C1616 0.929 . S
C1608 H1602 0.930 . S
C1608 C1609 1.367 . S
C1608 C1616 1.378 . S
C1609 C1608 1.367 . S
C1609 C1617 1.433 . S
C1610 H1606 0.929 . S
C1610 C1612 1.378 . S
C1610 C1614 1.350 . S
C1611 C1614 1.463 . S
C1611 C1616 1.350 . S
C1611 N1619 1.427 . S
C1612 H1603 0.930 . S
C1612 C1610 1.378 . S
C1612 C1613 1.367 . S
C1613 C1612 1.367 . S
C1613 C1615 1.433 . S
C1614 C1610 1.350 . S
C1614 C1611 1.463 . S
C1614 N1618 1.427 . S
C1615 H1605 0.929 . S
C1615 C1613 1.433 . S
C1615 N1618 1.384 . S
C1616 H1607 0.929 . S
C1616 C1608 1.378 . S
C1616 C1611 1.350 . S
C1617 H1604 0.929 . S
C1617 C1609 1.433 . S
C1617 N1619 1.384 . S
N1618 C1614 1.427 . S
N1618 C1615 1.384 . S
N1619 C1611 1.427 . S
N1619 C1617 1.384 . S
H1620 C1626 0.930 . S
H1621 C1630 0.930 . S
H1622 C1635 0.929 . S
H1623 C1633 0.929 . S
H1624 C1628 0.929 . S
H1625 C1634 0.929 . S
C1626 H1620 0.930 . S
C1626 C1627 1.367 . S
C1626 C1634 1.378 . S
C1627 C1626 1.367 . S
C1627 C1635 1.433 . S
C1628 H1624 0.929 . S
C1628 C1630 1.378 . S
C1628 C1632 1.350 . S
C1629 C1632 1.463 . S
C1629 C1634 1.350 . S
C1629 N1637 1.427 . S
C1630 H1621 0.930 . S
C1630 C1628 1.378 . S
C1630 C1631 1.367 . S
C1631 C1630 1.367 . S
C1631 C1633 1.433 . S
C1632 C1628 1.350 . S
C1632 C1629 1.463 . S
C1632 N1636 1.427 . S
C1633 H1623 0.929 . S
C1633 C1631 1.433 . S
C1633 N1636 1.384 . S
C1634 H1625 0.929 . S
C1634 C1626 1.378 . S
C1634 C1629 1.350 . S
C1635 H1622 0.929 . S
C1635 C1627 1.433 . S
C1635 N1637 1.384 . S
N1636 C1632 1.427 . S
N1636 C1633 1.384 . S
N1637 C1629 1.427 . S
N1637 C1635 1.384 . S
H1638 C1644 0.930 . S
H1639 C1648 0.930 . S
H1640 C1653 0.929 . S
H1641 C1651 0.929 . S
H1642 C1646 0.929 . S
H1643 C1652 0.929 . S
C1644 H1638 0.930 . S
C1644 C1645 1.367 . S
C1644 C1652 1.378 . S
C1645 C1644 1.367 . S
C1645 C1653 1.433 . S
C1646 H1642 0.929 . S
C1646 C1648 1.378 . S
C1646 C1650 1.350 . S
C1647 C1650 1.463 . S
C1647 C1652 1.350 . S
C1647 N1655 1.427 . S
C1648 H1639 0.930 . S
C1648 C1646 1.378 . S
C1648 C1649 1.367 . S
C1649 C1648 1.367 . S
C1649 C1651 1.433 . S
C1650 C1646 1.350 . S
C1650 C1647 1.463 . S
C1650 N1654 1.427 . S
C1651 H1641 0.929 . S
C1651 C1649 1.433 . S
C1651 N1654 1.384 . S
C1652 H1643 0.929 . S
C1652 C1644 1.378 . S
C1652 C1647 1.350 . S
C1653 H1640 0.929 . S
C1653 C1645 1.433 . S
C1653 N1655 1.384 . S
N1654 C1650 1.427 . S
N1654 C1651 1.384 . S
N1655 C1647 1.427 . S
N1655 C1653 1.384 . S
H1656 C1662 0.930 . S
H1657 C1666 0.930 . S
H1658 C1671 0.929 . S
H1659 C1669 0.929 . S
H1660 C1664 0.929 . S
H1661 C1670 0.929 . S
C1662 H1656 0.930 . S
C1662 C1663 1.367 . S
C1662 C1670 1.378 . S
C1663 C1662 1.367 . S
C1663 C1671 1.433 . S
C1664 H1660 0.929 . S
C1664 C1666 1.378 . S
C1664 C1668 1.350 . S
C1665 C1668 1.463 . S
C1665 C1670 1.350 . S
C1665 N1673 1.427 . S
C1666 H1657 0.930 . S
C1666 C1664 1.378 . S
C1666 C1667 1.367 . S
C1667 C1666 1.367 . S
C1667 C1669 1.433 . S
C1668 C1664 1.350 . S
C1668 C1665 1.463 . S
C1668 N1672 1.427 . S
C1669 H1659 0.929 . S
C1669 C1667 1.433 . S
C1669 N1672 1.384 . S
C1670 H1661 0.929 . S
C1670 C1662 1.378 . S
C1670 C1665 1.350 . S
C1671 H1658 0.929 . S
C1671 C1663 1.433 . S
C1671 N1673 1.384 . S
N1672 C1668 1.427 . S
N1672 C1669 1.384 . S
N1673 C1665 1.427 . S
N1673 C1671 1.384 . S
H1674 C1680 0.930 . S
H1675 C1684 0.930 . S
H1676 C1689 0.929 . S
H1677 C1687 0.929 . S
H1678 C1682 0.929 . S
H1679 C1688 0.929 . S
C1680 H1674 0.930 . S
C1680 C1681 1.367 . S
C1680 C1688 1.378 . S
C1681 C1680 1.367 . S
C1681 C1689 1.433 . S
C1682 H1678 0.929 . S
C1682 C1684 1.378 . S
C1682 C1686 1.350 . S
C1683 C1686 1.463 . S
C1683 C1688 1.350 . S
C1683 N1691 1.427 . S
C1684 H1675 0.930 . S
C1684 C1682 1.378 . S
C1684 C1685 1.367 . S
C1685 C1684 1.367 . S
C1685 C1687 1.433 . S
C1686 C1682 1.350 . S
C1686 C1683 1.463 . S
C1686 N1690 1.427 . S
C1687 H1677 0.929 . S
C1687 C1685 1.433 . S
C1687 N1690 1.384 . S
C1688 H1679 0.929 . S
C1688 C1680 1.378 . S
C1688 C1683 1.350 . S
C1689 H1676 0.929 . S
C1689 C1681 1.433 . S
C1689 N1691 1.384 . S
N1690 C1686 1.427 . S
N1690 C1687 1.384 . S
N1691 C1683 1.427 . S
N1691 C1689 1.384 . S
H1692 C1698 0.930 . S
H1693 C1702 0.930 . S
H1694 C1707 0.929 . S
H1695 C1705 0.929 . S
H1696 C1700 0.929 . S
H1697 C1706 0.929 . S
C1698 H1692 0.930 . S
C1698 C1699 1.367 . S
C1698 C1706 1.378 . S
C1699 C1698 1.367 . S
C1699 C1707 1.433 . S
C1700 H1696 0.929 . S
C1700 C1702 1.378 . S
C1700 C1704 1.350 . S
C1701 C1704 1.463 . S
C1701 C1706 1.350 . S
C1701 N1709 1.427 . S
C1702 H1693 0.930 . S
C1702 C1700 1.378 . S
C1702 C1703 1.367 . S
C1703 C1702 1.367 . S
C1703 C1705 1.433 . S
C1704 C1700 1.350 . S
C1704 C1701 1.463 . S
C1704 N1708 1.427 . S
C1705 H1695 0.929 . S
C1705 C1703 1.433 . S
C1705 N1708 1.384 . S
C1706 H1697 0.929 . S
C1706 C1698 1.378 . S
C1706 C1701 1.350 . S
C1707 H1694 0.929 . S
C1707 C1699 1.433 . S
C1707 N1709 1.384 . S
N1708 C1704 1.427 . S
N1708 C1705 1.384 . S
N1709 C1701 1.427 . S
N1709 C1707 1.384 . S
H1710 C1716 0.930 . S
H1711 C1720 0.930 . S
H1712 C1725 0.929 . S
H1713 C1723 0.929 . S
H1714 C1718 0.929 . S
H1715 C1724 0.929 . S
C1716 H1710 0.930 . S
C1716 C1717 1.367 . S
C1716 C1724 1.378 . S
C1717 C1716 1.367 . S
C1717 C1725 1.433 . S
C1718 H1714 0.929 . S
C1718 C1720 1.378 . S
C1718 C1722 1.350 . S
C1719 C1722 1.463 . S
C1719 C1724 1.350 . S
C1719 N1727 1.427 . S
C1720 H1711 0.930 . S
C1720 C1718 1.378 . S
C1720 C1721 1.367 . S
C1721 C1720 1.367 . S
C1721 C1723 1.433 . S
C1722 C1718 1.350 . S
C1722 C1719 1.463 . S
C1722 N1726 1.427 . S
C1723 H1713 0.929 . S
C1723 C1721 1.433 . S
C1723 N1726 1.384 . S
C1724 H1715 0.929 . S
C1724 C1716 1.378 . S
C1724 C1719 1.350 . S
C1725 H1712 0.929 . S
C1725 C1717 1.433 . S
C1725 N1727 1.384 . S
N1726 C1722 1.427 . S
N1726 C1723 1.384 . S
N1727 C1719 1.427 . S
N1727 C1725 1.384 . S
H1728 C1734 0.930 . S
H1729 C1738 0.930 . S
H1730 C1743 0.929 . S
H1731 C1741 0.929 . S
H1732 C1736 0.929 . S
H1733 C1742 0.929 . S
C1734 H1728 0.930 . S
C1734 C1735 1.367 . S
C1734 C1742 1.378 . S
C1735 C1734 1.367 . S
C1735 C1743 1.433 . S
C1736 H1732 0.929 . S
C1736 C1738 1.378 . S
C1736 C1740 1.350 . S
C1737 C1740 1.463 . S
C1737 C1742 1.350 . S
C1737 N1745 1.427 . S
C1738 H1729 0.930 . S
C1738 C1736 1.378 . S
C1738 C1739 1.367 . S
C1739 C1738 1.367 . S
C1739 C1741 1.433 . S
C1740 C1736 1.350 . S
C1740 C1737 1.463 . S
C1740 N1744 1.427 . S
C1741 H1731 0.929 . S
C1741 C1739 1.433 . S
C1741 N1744 1.384 . S
C1742 H1733 0.929 . S
C1742 C1734 1.378 . S
C1742 C1737 1.350 . S
C1743 H1730 0.929 . S
C1743 C1735 1.433 . S
C1743 N1745 1.384 . S
N1744 C1740 1.427 . S
N1744 C1741 1.384 . S
N1745 C1737 1.427 . S
N1745 C1743 1.384 . S
H1746 C1752 0.930 . S
H1747 C1756 0.930 . S
H1748 C1761 0.929 . S
H1749 C1759 0.929 . S
H1750 C1754 0.929 . S
H1751 C1760 0.929 . S
C1752 H1746 0.930 . S
C1752 C1753 1.367 . S
C1752 C1760 1.378 . S
C1753 C1752 1.367 . S
C1753 C1761 1.433 . S
C1754 H1750 0.929 . S
C1754 C1756 1.378 . S
C1754 C1758 1.350 . S
C1755 C1758 1.463 . S
C1755 C1760 1.350 . S
C1755 N1763 1.427 . S
C1756 H1747 0.930 . S
C1756 C1754 1.378 . S
C1756 C1757 1.367 . S
C1757 C1756 1.367 . S
C1757 C1759 1.433 . S
C1758 C1754 1.350 . S
C1758 C1755 1.463 . S
C1758 N1762 1.427 . S
C1759 H1749 0.929 . S
C1759 C1757 1.433 . S
C1759 N1762 1.384 . S
C1760 H1751 0.929 . S
C1760 C1752 1.378 . S
C1760 C1755 1.350 . S
C1761 H1748 0.929 . S
C1761 C1753 1.433 . S
C1761 N1763 1.384 . S
N1762 C1758 1.427 . S
N1762 C1759 1.384 . S
N1763 C1755 1.427 . S
N1763 C1761 1.384 . S
H1764 C1770 0.930 . S
H1765 C1774 0.930 . S
H1766 C1779 0.929 . S
H1767 C1777 0.929 . S
H1768 C1772 0.929 . S
H1769 C1778 0.929 . S
C1770 H1764 0.930 . S
C1770 C1771 1.367 . S
C1770 C1778 1.378 . S
C1771 C1770 1.367 . S
C1771 C1779 1.433 . S
C1772 H1768 0.929 . S
C1772 C1774 1.378 . S
C1772 C1776 1.350 . S
C1773 C1776 1.463 . S
C1773 C1778 1.350 . S
C1773 N1781 1.427 . S
C1774 H1765 0.930 . S
C1774 C1772 1.378 . S
C1774 C1775 1.367 . S
C1775 C1774 1.367 . S
C1775 C1777 1.433 . S
C1776 C1772 1.350 . S
C1776 C1773 1.463 . S
C1776 N1780 1.427 . S
C1777 H1767 0.929 . S
C1777 C1775 1.433 . S
C1777 N1780 1.384 . S
C1778 H1769 0.929 . S
C1778 C1770 1.378 . S
C1778 C1773 1.350 . S
C1779 H1766 0.929 . S
C1779 C1771 1.433 . S
C1779 N1781 1.384 . S
N1780 C1776 1.427 . S
N1780 C1777 1.384 . S
N1781 C1773 1.427 . S
N1781 C1779 1.384 . S
H1782 C1788 0.930 . S
H1783 C1792 0.930 . S
H1784 C1797 0.929 . S
H1785 C1795 0.929 . S
H1786 C1790 0.929 . S
H1787 C1796 0.929 . S
C1788 H1782 0.930 . S
C1788 C1789 1.367 . S
C1788 C1796 1.378 . S
C1789 C1788 1.367 . S
C1789 C1797 1.433 . S
C1790 H1786 0.929 . S
C1790 C1792 1.378 . S
C1790 C1794 1.350 . S
C1791 C1794 1.463 . S
C1791 C1796 1.350 . S
C1791 N1799 1.427 . S
C1792 H1783 0.930 . S
C1792 C1790 1.378 . S
C1792 C1793 1.367 . S
C1793 C1792 1.367 . S
C1793 C1795 1.433 . S
C1794 C1790 1.350 . S
C1794 C1791 1.463 . S
C1794 N1798 1.427 . S
C1795 H1785 0.929 . S
C1795 C1793 1.433 . S
C1795 N1798 1.384 . S
C1796 H1787 0.929 . S
C1796 C1788 1.378 . S
C1796 C1791 1.350 . S
C1797 H1784 0.929 . S
C1797 C1789 1.433 . S
C1797 N1799 1.384 . S
N1798 C1794 1.427 . S
N1798 C1795 1.384 . S
N1799 C1791 1.427 . S
N1799 C1797 1.384 . S
H1800 C1806 0.930 . S
H1801 C1810 0.930 . S
H1802 C1815 0.929 . S
H1803 C1813 0.929 . S
H1804 C1808 0.929 . S
H1805 C1814 0.929 . S
C1806 H1800 0.930 . S
C1806 C1807 1.367 . S
C1806 C1814 1.378 . S
C1807 C1806 1.367 . S
C1807 C1815 1.433 . S
C1808 H1804 0.929 . S
C1808 C1810 1.378 . S
C1808 C1812 1.350 . S
C1809 C1812 1.463 . S
C1809 C1814 1.350 . S
C1809 N1817 1.427 . S
C1810 H1801 0.930 . S
C1810 C1808 1.378 . S
C1810 C1811 1.367 . S
C1811 C1810 1.367 . S
C1811 C1813 1.433 . S
C1812 C1808 1.350 . S
C1812 C1809 1.463 . S
C1812 N1816 1.427 . S
C1813 H1803 0.929 . S
C1813 C1811 1.433 . S
C1813 N1816 1.384 . S
C1814 H1805 0.929 . S
C1814 C1806 1.378 . S
C1814 C1809 1.350 . S
C1815 H1802 0.929 . S
C1815 C1807 1.433 . S
C1815 N1817 1.384 . S
N1816 C1812 1.427 . S
N1816 C1813 1.384 . S
N1817 C1809 1.427 . S
N1817 C1815 1.384 . S
H1818 C1824 0.930 . S
H1819 C1828 0.930 . S
H1820 C1833 0.929 . S
H1821 C1831 0.929 . S
H1822 C1826 0.929 . S
H1823 C1832 0.929 . S
C1824 H1818 0.930 . S
C1824 C1825 1.367 . S
C1824 C1832 1.378 . S
C1825 C1824 1.367 . S
C1825 C1833 1.433 . S
C1826 H1822 0.929 . S
C1826 C1828 1.378 . S
C1826 C1830 1.350 . S
C1827 C1830 1.463 . S
C1827 C1832 1.350 . S
C1827 N1835 1.427 . S
C1828 H1819 0.930 . S
C1828 C1826 1.378 . S
C1828 C1829 1.367 . S
C1829 C1828 1.367 . S
C1829 C1831 1.433 . S
C1830 C1826 1.350 . S
C1830 C1827 1.463 . S
C1830 N1834 1.427 . S
C1831 H1821 0.929 . S
C1831 C1829 1.433 . S
C1831 N1834 1.384 . S
C1832 H1823 0.929 . S
C1832 C1824 1.378 . S
C1832 C1827 1.350 . S
C1833 H1820 0.929 . S
C1833 C1825 1.433 . S
C1833 N1835 1.384 . S
N1834 C1830 1.427 . S
N1834 C1831 1.384 . S
N1835 C1827 1.427 . S
N1835 C1833 1.384 . S
H1836 C1842 0.930 . S
H1837 C1846 0.930 . S
H1838 C1851 0.929 . S
H1839 C1849 0.929 . S
H1840 C1844 0.929 . S
H1841 C1850 0.929 . S
C1842 H1836 0.930 . S
C1842 C1843 1.367 . S
C1842 C1850 1.378 . S
C1843 C1842 1.367 . S
C1843 C1851 1.433 . S
C1844 H1840 0.929 . S
C1844 C1846 1.378 . S
C1844 C1848 1.350 . S
C1845 C1848 1.463 . S
C1845 C1850 1.350 . S
C1845 N1853 1.427 . S
C1846 H1837 0.930 . S
C1846 C1844 1.378 . S
C1846 C1847 1.367 . S
C1847 C1846 1.367 . S
C1847 C1849 1.433 . S
C1848 C1844 1.350 . S
C1848 C1845 1.463 . S
C1848 N1852 1.427 . S
C1849 H1839 0.929 . S
C1849 C1847 1.433 . S
C1849 N1852 1.384 . S
C1850 H1841 0.929 . S
C1850 C1842 1.378 . S
C1850 C1845 1.350 . S
C1851 H1838 0.929 . S
C1851 C1843 1.433 . S
C1851 N1853 1.384 . S
N1852 C1848 1.427 . S
N1852 C1849 1.384 . S
N1853 C1845 1.427 . S
N1853 C1851 1.384 . S
H1854 C1860 0.930 . S
H1855 C1864 0.930 . S
H1856 C1869 0.929 . S
H1857 C1867 0.929 . S
H1858 C1862 0.929 . S
H1859 C1868 0.929 . S
C1860 H1854 0.930 . S
C1860 C1861 1.367 . S
C1860 C1868 1.378 . S
C1861 C1860 1.367 . S
C1861 C1869 1.433 . S
C1862 H1858 0.929 . S
C1862 C1864 1.378 . S
C1862 C1866 1.350 . S
C1863 C1866 1.463 . S
C1863 C1868 1.350 . S
C1863 N1871 1.427 . S
C1864 H1855 0.930 . S
C1864 C1862 1.378 . S
C1864 C1865 1.367 . S
C1865 C1864 1.367 . S
C1865 C1867 1.433 . S
C1866 C1862 1.350 . S
C1866 C1863 1.463 . S
C1866 N1870 1.427 . S
C1867 H1857 0.929 . S
C1867 C1865 1.433 . S
C1867 N1870 1.384 . S
C1868 H1859 0.929 . S
C1868 C1860 1.378 . S
C1868 C1863 1.350 . S
C1869 H1856 0.929 . S
C1869 C1861 1.433 . S
C1869 N1871 1.384 . S
N1870 C1866 1.427 . S
N1870 C1867 1.384 . S
N1871 C1863 1.427 . S
N1871 C1869 1.384 . S
H1872 C1878 0.930 . S
H1873 C1882 0.930 . S
H1874 C1887 0.929 . S
H1875 C1885 0.929 . S
H1876 C1880 0.929 . S
H1877 C1886 0.929 . S
C1878 H1872 0.930 . S
C1878 C1879 1.367 . S
C1878 C1886 1.378 . S
C1879 C1878 1.367 . S
C1879 C1887 1.433 . S
C1880 H1876 0.929 . S
C1880 C1882 1.378 . S
C1880 C1884 1.350 . S
C1881 C1884 1.463 . S
C1881 C1886 1.350 . S
C1881 N1889 1.427 . S
C1882 H1873 0.930 . S
C1882 C1880 1.378 . S
C1882 C1883 1.367 . S
C1883 C1882 1.367 . S
C1883 C1885 1.433 . S
C1884 C1880 1.350 . S
C1884 C1881 1.463 . S
C1884 N1888 1.427 . S
C1885 H1875 0.929 . S
C1885 C1883 1.433 . S
C1885 N1888 1.384 . S
C1886 H1877 0.929 . S
C1886 C1878 1.378 . S
C1886 C1881 1.350 . S
C1887 H1874 0.929 . S
C1887 C1879 1.433 . S
C1887 N1889 1.384 . S
N1888 C1884 1.427 . S
N1888 C1885 1.384 . S
N1889 C1881 1.427 . S
N1889 C1887 1.384 . S
H1890 C1896 0.930 . S
H1891 C1900 0.930 . S
H1892 C1905 0.929 . S
H1893 C1903 0.929 . S
H1894 C1898 0.929 . S
H1895 C1904 0.929 . S
C1896 H1890 0.930 . S
C1896 C1897 1.367 . S
C1896 C1904 1.378 . S
C1897 C1896 1.367 . S
C1897 C1905 1.433 . S
C1898 H1894 0.929 . S
C1898 C1900 1.378 . S
C1898 C1902 1.350 . S
C1899 C1902 1.463 . S
C1899 C1904 1.350 . S
C1899 N1907 1.427 . S
C1900 H1891 0.930 . S
C1900 C1898 1.378 . S
C1900 C1901 1.367 . S
C1901 C1900 1.367 . S
C1901 C1903 1.433 . S
C1902 C1898 1.350 . S
C1902 C1899 1.463 . S
C1902 N1906 1.427 . S
C1903 H1893 0.929 . S
C1903 C1901 1.433 . S
C1903 N1906 1.384 . S
C1904 H1895 0.929 . S
C1904 C1896 1.378 . S
C1904 C1899 1.350 . S
C1905 H1892 0.929 . S
C1905 C1897 1.433 . S
C1905 N1907 1.384 . S
N1906 C1902 1.427 . S
N1906 C1903 1.384 . S
N1907 C1899 1.427 . S
N1907 C1905 1.384 . S
H1908 C1914 0.930 . S
H1909 C1918 0.930 . S
H1910 C1923 0.929 . S
H1911 C1921 0.929 . S
H1912 C1916 0.929 . S
H1913 C1922 0.929 . S
C1914 H1908 0.930 . S
C1914 C1915 1.367 . S
C1914 C1922 1.378 . S
C1915 C1914 1.367 . S
C1915 C1923 1.433 . S
C1916 H1912 0.929 . S
C1916 C1918 1.378 . S
C1916 C1920 1.350 . S
C1917 C1920 1.463 . S
C1917 C1922 1.350 . S
C1917 N1925 1.427 . S
C1918 H1909 0.930 . S
C1918 C1916 1.378 . S
C1918 C1919 1.367 . S
C1919 C1918 1.367 . S
C1919 C1921 1.433 . S
C1920 C1916 1.350 . S
C1920 C1917 1.463 . S
C1920 N1924 1.427 . S
C1921 H1911 0.929 . S
C1921 C1919 1.433 . S
C1921 N1924 1.384 . S
C1922 H1913 0.929 . S
C1922 C1914 1.378 . S
C1922 C1917 1.350 . S
C1923 H1910 0.929 . S
C1923 C1915 1.433 . S
C1923 N1925 1.384 . S
N1924 C1920 1.427 . S
N1924 C1921 1.384 . S
N1925 C1917 1.427 . S
N1925 C1923 1.384 . S
H1926 C1932 0.930 . S
H1927 C1936 0.930 . S
H1928 C1941 0.929 . S
H1929 C1939 0.929 . S
H1930 C1934 0.929 . S
H1931 C1940 0.929 . S
C1932 H1926 0.930 . S
C1932 C1933 1.367 . S
C1932 C1940 1.378 . S
C1933 C1932 1.367 . S
C1933 C1941 1.433 . S
C1934 H1930 0.929 . S
C1934 C1936 1.378 . S
C1934 C1938 1.350 . S
C1935 C1938 1.463 . S
C1935 C1940 1.350 . S
C1935 N1943 1.427 . S
C1936 H1927 0.930 . S
C1936 C1934 1.378 . S
C1936 C1937 1.367 . S
C1937 C1936 1.367 . S
C1937 C1939 1.433 . S
C1938 C1934 1.350 . S
C1938 C1935 1.463 . S
C1938 N1942 1.427 . S
C1939 H1929 0.929 . S
C1939 C1937 1.433 . S
C1939 N1942 1.384 . S
C1940 H1931 0.929 . S
C1940 C1932 1.378 . S
C1940 C1935 1.350 . S
C1941 H1928 0.929 . S
C1941 C1933 1.433 . S
C1941 N1943 1.384 . S
N1942 C1938 1.427 . S
N1942 C1939 1.384 . S
N1943 C1935 1.427 . S
N1943 C1941 1.384 . S
H1944 C1950 0.930 . S
H1945 C1954 0.930 . S
H1946 C1959 0.929 . S
H1947 C1957 0.929 . S
H1948 C1952 0.929 . S
H1949 C1958 0.929 . S
C1950 H1944 0.930 . S
C1950 C1951 1.367 . S
C1950 C1958 1.378 . S
C1951 C1950 1.367 . S
C1951 C1959 1.433 . S
C1952 H1948 0.929 . S
C1952 C1954 1.378 . S
C1952 C1956 1.350 . S
C1953 C1956 1.463 . S
C1953 C1958 1.350 . S
C1953 N1961 1.427 . S
C1954 H1945 0.930 . S
C1954 C1952 1.378 . S
C1954 C1955 1.367 . S
C1955 C1954 1.367 . S
C1955 C1957 1.433 . S
C1956 C1952 1.350 . S
C1956 C1953 1.463 . S
C1956 N1960 1.427 . S
C1957 H1947 0.929 . S
C1957 C1955 1.433 . S
C1957 N1960 1.384 . S
C1958 H1949 0.929 . S
C1958 C1950 1.378 . S
C1958 C1953 1.350 . S
C1959 H1946 0.929 . S
C1959 C1951 1.433 . S
C1959 N1961 1.384 . S
N1960 C1956 1.427 . S
N1960 C1957 1.384 . S
N1961 C1953 1.427 . S
N1961 C1959 1.384 . S
C997 N170 1.980 . S
C1001 C301 1.910 . S
C1015 N184 0.970 . S
C1019 C385 0.931 . S
C1033 N158 1.561 . S
C1037 C465 1.538 . S
C1051 N145 1.532 . S
C1055 C381 1.504 1_556 S
C1073 C469 0.905 . S
C1069 N119 0.909 . S
C1087 N131 1.936 . S
C1091 C297 1.897 . S
C1109 C290 1.571 . S
C1105 N144 1.644 . S
C1127 C374 1.352 . S
C1123 N118 1.374 . S
C1141 N132 1.439 . S
C1145 C476 1.434 . S
C1159 N171 1.420 . S
C1163 C392 1.411 . S
C1177 N183 1.324 . S
C1181 C458 1.298 . S
C1199 C308 1.567 . S
C1195 N157 1.602 . S
C1217 C553 1.901 . S
C1213 N14 1.980 . S
C1231 N28 0.967 . S
C1235 C637 0.928 . S
C1249 N2 1.557 . S
C1253 C717 1.528 . S
C1267 N223 1.532 . S
C1271 C633 1.503 . S
C1285 N197 0.906 . S
C1289 C721 0.894 . S
C1303 N209 1.934 . S
C1307 C549 1.892 . S
C1321 N222 1.646 . S
C1325 C542 1.576 . S
C1339 N196 1.371 . S
C1343 C626 1.344 . S
C1361 C728 1.434 . S
C1357 N210 1.439 . S
C1375 N15 1.423 . S
C1379 C644 1.415 . S
C1397 C710 1.301 . S
C1393 N27 1.316 . S
C1411 N1 1.603 . S
C1415 C560 1.568 . S
C1433 C805 1.912 . S
C1429 N92 1.982 . S
C1447 N106 0.957 . S
C1451 C889 0.951 . S
C1469 C969 1.527 . S
C1465 N80 1.558 . S
C1487 C885 1.513 . S
C1483 N67 1.536 . S
C1505 C973 0.903 . S
C1501 N41 0.906 . S
C1519 N53 1.936 . S
C1523 C801 1.900 . S
C1537 N66 1.648 . S
C1541 C794 1.583 . S
C1555 N40 1.370 . S
C1559 C878 1.343 . S
C1577 C980 1.428 . S
C1573 N54 1.434 . S
C1591 N93 1.419 . S
C1595 C896 1.413 . S
C1609 N105 1.319 . S
C1613 C962 1.304 . S
C1627 N79 1.603 . S
C1631 C812 1.569 . S
C1645 N200 1.252 . S
C1649 C304 1.126 . S
C1667 C388 1.608 . S
C1663 N213 1.785 . S
C1681 N226 1.504 . S
C1685 C460 1.386 . S
C1699 N83 1.531 . S
C1703 C376 1.400 . S
C1717 N96 1.756 . S
C1721 C472 1.570 . S
C1739 C292 1.161 . S
C1735 N109 1.270 . S
C1753 N44 1.245 . S
C1757 C556 1.153 . S
C1771 N57 1.784 . S
C1775 C640 1.595 . S
C1789 N70 1.499 . S
C1793 C712 1.381 . S
C1807 N161 1.536 . S
C1811 C628 1.407 . S
C1829 C724 1.571 . S
C1825 N174 1.757 . S
C1843 N187 1.276 . S
C1847 C544 1.164 . S
C1861 N122 1.254 . S
C1865 C808 1.135 . S
C1879 N135 1.784 . S
C1883 C892 1.608 . S
C1901 C964 1.367 . S
C1897 N148 1.498 . S
C1915 N5 1.530 . S
C1919 C880 1.395 . S
C1933 N18 1.761 . S
C1937 C976 1.592 . S
C1951 N31 1.271 . S
C1955 C796 1.187 . S
