# Generated by pormake.
# Topology sit, (3,6)-cn, num edge types: 1
# Building blocks:
#     Node 0, Type 0, BuildingBlock: KAKCAD_clean_linker_0, # of connection points: 3
#     Node 1, Type 0, BuildingBlock: KAKCAD_clean_linker_0, # of connection points: 3
#     Node 2, Type 0, BuildingBlock: KAKCAD_clean_linker_0, # of connection points: 3
#     Node 3, Type 0, BuildingBlock: KAKCAD_clean_linker_0, # of connection points: 3
#     Node 4, Type 1, BuildingBlock: MIDCAF_clean_sbu_0, # of connection points: 6
#     Node 5, Type 1, BuildingBlock: MIDCAF_clean_sbu_0, # of connection points: 6
#     Edge 6, Type (0, 1), BuildingBlock: XIVTED_clean_linker_0, # of connection points: 2
#     Edge 7, Type (0, 1), BuildingBlock: XIVTED_clean_linker_0, # of connection points: 2
#     Edge 8, Type (0, 1), BuildingBlock: XIVTED_clean_linker_0, # of connection points: 2
#     Edge 9, Type (0, 1), BuildingBlock: XIVTED_clean_linker_0, # of connection points: 2
#     Edge 10, Type (0, 1), BuildingBlock: XIVTED_clean_linker_0, # of connection points: 2
#     Edge 11, Type (0, 1), BuildingBlock: XIVTED_clean_linker_0, # of connection points: 2
#     Edge 12, Type (0, 1), BuildingBlock: XIVTED_clean_linker_0, # of connection points: 2
#     Edge 13, Type (0, 1), BuildingBlock: XIVTED_clean_linker_0, # of connection points: 2
#     Edge 14, Type (0, 1), BuildingBlock: XIVTED_clean_linker_0, # of connection points: 2
#     Edge 15, Type (0, 1), BuildingBlock: XIVTED_clean_linker_0, # of connection points: 2
#     Edge 16, Type (0, 1), BuildingBlock: XIVTED_clean_linker_0, # of connection points: 2
#     Edge 17, Type (0, 1), BuildingBlock: XIVTED_clean_linker_0, # of connection points: 2
# Relax obj value: 0.110
# Max RMSD: 0.193
# Mean RMSD: 0.106
data_MOF--net-sit--node1-MIDCAF_clean_sbu_0--node2-KAKCAD_clean_linker_0--edge1-XIVTED_clean_linker_0
_symmetry_space_group_name_H-M    P1
_symmetry_Int_Tables_number       1
_symmetry_cell_setting            triclinic
loop_
_symmetry_equiv_pos_as_xyz
'x, y, z'
_cell_length_a     28.607446
_cell_length_b     38.82215
_cell_length_c     43.483709
_cell_angle_alpha  90.24558
_cell_angle_beta   89.52644
_cell_angle_gamma 84.444262
loop_
_atom_site_label
_atom_site_type_symbol
_atom_site_fract_x
_atom_site_fract_y
_atom_site_fract_z
_atom_type_partial_charge
C0 C 0.27004 0.33557 0.01378 0.0
C1 C 0.27042 0.37171 0.01569 0.0
C2 C 0.2304 0.31982 0.02311 0.0
C3 C 0.19058 0.33998 0.03455 0.0
C4 C 0.19261 0.37572 0.03887 0.0
C5 C 0.23208 0.39145 0.02941 0.0
C6 C 0.14517 0.32489 0.03769 0.0
C7 C 0.14216 0.29231 0.05117 0.0
C8 C 0.09913 0.27749 0.05188 0.0
C9 C 0.05943 0.29541 0.03839 0.0
C10 C 0.06204 0.32794 0.02502 0.0
C11 C 0.10486 0.34251 0.0249 0.0
C12 C 0.02079 0.34618 0.00977 0.0
C13 C -0.00576 0.3284 0.98909 0.0
C14 C 0.00914 0.38181 0.01462 0.0
C15 C 0.9721 0.39947 -0.00136 0.0
C16 C 0.94639 0.38184 0.97733 0.0
C17 C 0.09491 0.24366 0.067 0.0
C18 C 0.13025 0.21598 0.06384 0.0
C19 C 0.05477 0.23886 0.0847 0.0
C20 C 0.04977 0.20721 0.09866 0.0
C21 C 0.08489 0.17949 0.09552 0.0
C22 C 0.12536 0.1842 0.07808 0.0
C23 C 0.95748 0.34608 0.97297 0.0
H24 H 0.29905 0.31972 0.00314 0.0
H25 H 0.22974 0.29227 0.01936 0.0
H26 H 0.1627 0.39178 0.04818 0.0
H27 H 0.23184 0.41927 0.03168 0.0
H28 H 0.17305 0.27886 0.06149 0.0
H29 H 0.10729 0.36702 0.01341 0.0
H30 H 0.02631 0.28401 0.03817 0.0
H31 H 0.00272 0.301 0.98474 0.0
H32 H 0.02892 0.39606 0.03061 0.0
H33 H 0.96435 0.42704 0.00237 0.0
H34 H 0.16141 0.21875 0.05011 0.0
H35 H 0.02739 0.25982 0.08826 0.0
H36 H 0.9378 0.33177 0.95697 0.0
H37 H 0.15302 0.16329 0.07532 0.0
H38 H 0.01879 0.20479 0.11268 0.0
C39 C 0.85521 0.68269 0.01854 0.0
C40 C 0.85698 0.64651 0.02152 0.0
C41 C 0.89506 0.69981 0.02425 0.0
C42 C 0.93716 0.68096 0.03295 0.0
C43 C 0.93734 0.64547 0.0392 0.0
C44 C 0.89758 0.62838 0.03352 0.0
C45 C 0.98212 0.69643 0.02943 0.0
C46 C 0.9891 0.72874 0.04232 0.0
C47 C 0.03091 0.7443 0.03633 0.0
C48 C 0.06483 0.72694 0.01651 0.0
C49 C 0.0589 0.69402 0.00469 0.0
C50 C 0.01738 0.67917 0.01103 0.0
C51 C 0.09667 0.67437 0.9866 0.0
C52 C 0.12063 0.69043 0.96321 0.0
C53 C 0.10941 0.63929 0.99309 0.0
C54 C 0.14578 0.62072 0.97677 0.0
C55 C 0.17007 0.63684 0.95358 0.0
C56 C 0.04065 0.77726 0.05206 0.0
C57 C 0.00398 0.80145 0.06251 0.0
C58 C 0.08717 0.78404 0.0582 0.0
C59 C 0.09664 0.81319 0.07492 0.0
C60 C 0.06001 0.83573 0.08757 0.0
C61 C 0.01348 0.82998 0.08042 0.0
C62 C 0.15694 0.67181 0.94679 0.0
H63 H 0.82446 0.69737 0.00924 0.0
H64 H 0.89412 0.72717 0.01917 0.0
H65 H 0.9693 0.63049 0.04635 0.0
H66 H 0.89958 0.6006 0.03661 0.0
H67 H 0.96229 0.74099 0.05755 0.0
H68 H 0.01193 0.65438 0.00076 0.0
H69 H 0.09664 0.73846 0.01066 0.0
H70 H 0.11126 0.71736 0.95759 0.0
H71 H 0.09179 0.62633 0.01121 0.0
H72 H 0.15493 0.59376 0.98234 0.0
H73 H 0.96769 0.79814 0.05757 0.0
H74 H 0.11688 0.76628 0.05131 0.0
H75 H 0.17543 0.68501 0.92925 0.0
H76 H 0.98407 0.84657 0.08964 0.0
H77 H 0.13304 0.81721 0.07878 0.0
C78 C 0.7167 0.82392 0.47596 0.0
C79 C 0.72792 0.85831 0.4783 0.0
C80 C 0.67609 0.81383 0.48997 0.0
C81 C 0.64591 0.83791 0.50669 0.0
C82 C 0.65783 0.87203 0.50973 0.0
C83 C 0.69822 0.88215 0.49561 0.0
C84 C 0.60117 0.82797 0.51992 0.0
C85 C 0.59902 0.79582 0.53418 0.0
C86 C 0.55634 0.78611 0.54607 0.0
C87 C 0.51568 0.80952 0.54406 0.0
C88 C 0.51738 0.84202 0.53016 0.0
C89 C 0.56016 0.85068 0.51782 0.0
C90 C 0.4745 0.86664 0.52708 0.0
C91 C 0.43121 0.85469 0.51943 0.0
C92 C 0.4774 0.90257 0.5294 0.0
C93 C 0.439 0.92595 0.52201 0.0
C94 C 0.39663 0.9139 0.5128 0.0
C95 C 0.55486 0.75191 0.56122 0.0
C96 C 0.58275 0.72253 0.5501 0.0
C97 C 0.52723 0.74866 0.58776 0.0
C98 C 0.52879 0.71723 0.60339 0.0
C99 C 0.55841 0.68846 0.59306 0.0
C100 C 0.58482 0.69123 0.56601 0.0
C101 C 0.3926 0.87811 0.51251 0.0
H102 H 0.73917 0.80478 0.46317 0.0
H103 H 0.66774 0.78741 0.48703 0.0
H104 H 0.63567 0.89108 0.52283 0.0
H105 H 0.70546 0.90892 0.49764 0.0
H106 H 0.63096 0.77868 0.53664 0.0
H107 H 0.56133 0.87487 0.50564 0.0
H108 H 0.48266 0.80242 0.55323 0.0
H109 H 0.42775 0.82728 0.51712 0.0
H110 H 0.50986 0.91269 0.53601 0.0
H111 H 0.4428 0.95344 0.52264 0.0
H112 H 0.60364 0.72382 0.52932 0.0
H113 H 0.50584 0.77074 0.59728 0.0
H114 H 0.36042 0.86815 0.5051 0.0
H115 H 0.60769 0.66934 0.55747 0.0
H116 H 0.50861 0.71596 0.62447 0.0
C117 C 0.36201 0.20839 0.47915 0.0
C118 C 0.35131 0.17419 0.48375 0.0
C119 C 0.40314 0.21959 0.49124 0.0
C120 C 0.43412 0.19672 0.50807 0.0
C121 C 0.42182 0.16327 0.51426 0.0
C122 C 0.38086 0.15212 0.50223 0.0
C123 C 0.48109 0.2063 0.51675 0.0
C124 C 0.4868 0.2383 0.53057 0.0
C125 C 0.53181 0.24709 0.53844 0.0
C126 C 0.57108 0.22321 0.53224 0.0
C127 C 0.56585 0.19104 0.51839 0.0
C128 C 0.5207 0.1831 0.5105 0.0
C129 C 0.60728 0.16591 0.51136 0.0
C130 C 0.64991 0.17751 0.50138 0.0
C131 C 0.60391 0.12999 0.5133 0.0
C132 C 0.64146 0.10636 0.50419 0.0
C133 C 0.68351 0.11815 0.49375 0.0
C134 C 0.53773 0.28064 0.554 0.0
C135 C 0.50905 0.31094 0.54648 0.0
C136 C 0.57136 0.28237 0.57723 0.0
C137 C 0.57561 0.31331 0.59291 0.0
C138 C 0.5459 0.34317 0.5861 0.0
C139 C 0.51283 0.34182 0.56256 0.0
C140 C 0.68772 0.15386 0.49291 0.0
H141 H 0.33994 0.22591 0.46488 0.0
H142 H 0.41193 0.24547 0.48606 0.0
H143 H 0.44468 0.14535 0.52769 0.0
H144 H 0.37294 0.12587 0.50672 0.0
H145 H 0.456 0.25586 0.53593 0.0
H146 H 0.51626 0.15907 0.49859 0.0
H147 H 0.60583 0.22967 0.53824 0.0
H148 H 0.65369 0.20486 0.49904 0.0
H149 H 0.57207 0.12003 0.52157 0.0
H150 H 0.63762 0.0789 0.50516 0.0
H151 H 0.48337 0.31077 0.52834 0.0
H152 H 0.59341 0.25954 0.58418 0.0
H153 H 0.71972 0.16353 0.48451 0.0
H154 H 0.48954 0.36454 0.55688 0.0
H155 H 0.60072 0.3134 0.61141 0.0
Zn156 Zn 0.00778 0.07529 0.33487 0.0
Zn157 Zn 0.09076 0.94332 0.34137 0.0
Zn158 Zn 0.0512 0.00934 0.33928 0.0
C159 C 0.08701 0.96196 0.28003 0.0
C160 C 0.00076 0.9452 0.36715 0.0
O161 O 0.09657 0.04371 0.3617 0.0
O162 O 0.0587 0.09614 0.35804 0.0
C163 C 0.02905 0.0508 0.27536 0.0
O164 O 0.06439 0.98923 0.29186 0.0
O165 O 0.10558 0.93833 0.29709 0.0
O166 O 0.03374 0.92355 0.35791 0.0
O167 O 0.00258 0.97787 0.36297 0.0
O168 O 0.00776 0.07639 0.28925 0.0
O169 O 0.04718 0.02437 0.29043 0.0
O170 O 0.98259 0.01255 0.36339 0.0
O171 O 0.94987 0.06619 0.35714 0.0
C172 C 0.94838 0.03617 0.36783 0.0
O173 O 0.11483 0.00914 0.36724 0.0
O174 O 0.14107 0.95359 0.3701 0.0
C175 C 0.09394 0.07655 0.36679 0.0
C176 C 0.14424 0.98477 0.37741 0.0
Zn177 Zn 0.55634 0.57309 0.83793 0.0
Zn178 Zn 0.58511 0.44519 0.8368 0.0
Zn179 Zn 0.56948 0.50925 0.8394 0.0
C180 C 0.56102 0.46316 0.7787 0.0
C181 C 0.51376 0.45845 0.87918 0.0
O182 O 0.62455 0.5298 0.86771 0.0
O183 O 0.59093 0.58275 0.87572 0.0
C184 C 0.58168 0.55668 0.77995 0.0
O185 O 0.56951 0.49233 0.79058 0.0
O186 O 0.55953 0.43692 0.79553 0.0
O187 O 0.54657 0.43523 0.87319 0.0
O188 O 0.51262 0.48808 0.86584 0.0
O189 O 0.58519 0.5822 0.79752 0.0
O190 O 0.57121 0.52769 0.79113 0.0
O191 O 0.50038 0.52356 0.86061 0.0
O192 O 0.4867 0.57599 0.84109 0.0
C193 C 0.4724 0.55094 0.85567 0.0
O194 O 0.63707 0.49438 0.86207 0.0
O195 O 0.65424 0.44212 0.84226 0.0
C196 C 0.62279 0.5591 0.88192 0.0
C197 C 0.66608 0.46723 0.85796 0.0
H198 H 0.00674 0.14444 0.1005 0.0
H199 H 0.11051 0.0349 0.24309 0.0
H200 H 0.1513 0.14037 0.12896 0.0
H201 H 0.96552 0.07443 0.23261 0.0
H202 H 0.12681 0.05409 0.19061 0.0
H203 H -0.00631 0.0993 0.13771 0.0
C204 C 0.03596 0.1336 0.11421 0.0
C205 C 0.07982 0.14685 0.11229 0.0
C206 C 0.09121 0.05766 0.19955 0.0
C207 C 0.06515 0.09515 0.15471 0.0
C208 C 0.08187 0.04656 0.22932 0.0
C209 C 0.03675 0.05354 0.24206 0.0
C210 C 0.055 0.07548 0.1826 0.0
C211 C 0.00086 0.06897 0.22357 0.0
C212 C 0.02851 0.10778 0.13533 0.0
C213 C 0.1168 0.13116 0.12994 0.0
N214 N 0.01084 0.07976 0.19485 0.0
N215 N 0.1084 0.10655 0.1509 0.0
H216 H 0.13322 0.83338 0.12818 0.0
H217 H 0.01873 0.97929 0.23734 0.0
H218 H 0.01041 0.89944 0.10054 0.0
H219 H 0.15957 0.93029 0.24713 0.0
H220 H 0.01746 0.95667 0.18454 0.0
H221 H 0.14638 0.87368 0.16857 0.0
C222 C 0.1094 0.85671 0.12994 0.0
C223 C 0.07044 0.86264 0.11051 0.0
C224 C 0.04904 0.95163 0.19799 0.0
C225 C 0.08448 0.90876 0.15856 0.0
C226 C 0.04987 0.96471 0.22801 0.0
C227 C 0.08915 0.95625 0.24656 0.0
C228 C 0.08757 0.92972 0.1869 0.0
C229 C 0.12836 0.93693 0.23365 0.0
C230 C 0.11684 0.87977 0.15347 0.0
C231 C 0.04032 0.89316 0.11523 0.0
N232 N 0.12632 0.92392 0.2048 0.0
N233 N 0.04751 0.91479 0.13911 0.0
H234 H 0.64128 0.65418 0.61088 0.0
H235 H 0.52008 0.54091 0.73582 0.0
H236 H 0.49127 0.65224 0.61982 0.0
H237 H 0.65043 0.58581 0.74922 0.0
H238 H 0.51769 0.56274 0.68275 0.0
H239 H 0.65231 0.60993 0.65079 0.0
C240 C 0.61071 0.64373 0.62064 0.0
C241 C 0.56527 0.65715 0.61241 0.0
C242 C 0.54737 0.56696 0.69712 0.0
C243 C 0.57768 0.60677 0.65794 0.0
C244 C 0.54889 0.55439 0.72719 0.0
C245 C 0.58541 0.56185 0.74666 0.0
C246 C 0.5829 0.58669 0.68665 0.0
C247 C 0.62164 0.57975 0.73477 0.0
C248 C 0.61704 0.61866 0.64348 0.0
C249 C 0.52686 0.64291 0.62594 0.0
N250 N 0.61934 0.59181 0.70554 0.0
N251 N 0.53389 0.61868 0.64833 0.0
H252 H 0.62188 0.37549 0.60473 0.0
H253 H 0.61413 0.48472 0.73113 0.0
H254 H 0.47116 0.38021 0.61362 0.0
H255 H 0.49168 0.43213 0.75148 0.0
H256 H 0.60854 0.46774 0.67677 0.0
H257 H 0.62319 0.41739 0.64677 0.0
C258 C 0.58896 0.38616 0.615 0.0
C259 C 0.5464 0.37416 0.60599 0.0
C260 C 0.58266 0.46027 0.69311 0.0
C261 C 0.54748 0.42207 0.65395 0.0
C262 C 0.58554 0.47026 0.72394 0.0
C263 C 0.55357 0.45938 0.74556 0.0
C264 C 0.54751 0.43938 0.68423 0.0
C265 C 0.51727 0.44059 0.73539 0.0
C266 C 0.58964 0.41033 0.63881 0.0
C267 C 0.5047 0.38881 0.61988 0.0
N268 N 0.51537 0.43099 0.70546 0.0
N269 N 0.5064 0.41134 0.64372 0.0
H270 H 0.36556 0.35414 0.01735 0.0
H271 H 0.4191 0.47733 0.87795 0.0
H272 H 0.26047 0.42795 0.9781 0.0
H273 H 0.52713 0.4206 0.93102 0.0
H274 H 0.36016 0.46099 0.91509 0.0
H275 H 0.42567 0.37913 0.98657 0.0
C276 C 0.35527 0.37582 0.00246 0.0
C277 C 0.30806 0.38897 0.00023 0.0
C278 C 0.39684 0.45251 0.91884 0.0
C279 C 0.37632 0.41747 0.96474 0.0
C280 C 0.43038 0.46213 0.89784 0.0
C281 C 0.47787 0.45088 0.9019 0.0
C282 C 0.41105 0.43087 0.94361 0.0
C283 C 0.49073 0.4299 0.9272 0.0
C284 C 0.38953 0.39014 0.98496 0.0
C285 C 0.29658 0.41724 0.98074 0.0
N286 N 0.4575 0.42043 0.94703 0.0
N287 N 0.3304 0.43032 0.96349 0.0
H288 H 0.76116 0.66135 0.02493 0.0
H289 H 0.7172 0.53925 0.88281 0.0
H290 H 0.86916 0.58906 0.985 0.0
H291 H 0.60547 0.59575 0.93455 0.0
H292 H 0.7732 0.55438 0.92188 0.0
H293 H 0.70266 0.63508 -0.00585 0.0
C294 C 0.77241 0.63963 0.01004 0.0
C295 C 0.82005 0.62746 0.00746 0.0
C296 C 0.73632 0.56305 0.92493 0.0
C297 C 0.75365 0.59759 0.97188 0.0
C298 C 0.70444 0.55414 0.90279 0.0
C299 C 0.65679 0.56576 0.90587 0.0
C300 C 0.72034 0.58435 0.94988 0.0
C301 C 0.64206 0.58624 0.93145 0.0
C302 C 0.73908 0.6246 0.99249 0.0
C303 C 0.83275 0.59908 0.98794 0.0
N304 N 0.67375 0.59506 0.95239 0.0
N305 N 0.79985 0.58542 0.9706 0.0
H306 H 0.87648 0.43022 -0.00249 0.0
H307 H 0.74962 0.44037 0.83415 0.0
H308 H 0.93079 0.37636 0.91583 0.0
H309 H 0.6845 0.48304 0.91744 0.0
H310 H 0.82227 0.42534 0.86232 0.0
H311 H 0.81171 0.45814 0.96719 0.0
C312 C 0.87497 0.42455 0.97315 0.0
C313 C 0.90859 0.4006 0.9592 0.0
C314 C 0.79239 0.43848 0.87441 0.0
C315 C 0.83488 0.43227 0.92452 0.0
C316 C 0.75109 0.44712 0.85831 0.0
C317 C 0.71155 0.46329 0.87353 0.0
C318 C 0.79381 0.44552 0.90609 0.0
C319 C 0.71473 0.47116 0.90487 0.0
C320 C 0.83799 0.44037 0.95591 0.0
C321 C 0.90503 0.3941 0.9276 0.0
N322 N 0.75517 0.46197 0.92024 0.0
N323 N 0.86871 0.4097 0.91138 0.0
H324 H 0.19079 0.63692 0.89204 0.0
H325 H 0.44354 0.53353 0.9129 0.0
H326 H 0.24074 0.59328 0.97821 0.0
H327 H 0.39373 0.57913 0.82762 0.0
H328 H 0.36531 0.54771 0.93563 0.0
H329 H 0.26097 0.60917 0.86647 0.0
C330 C 0.21649 0.62138 0.90554 0.0
C331 C 0.21024 0.6177 0.93732 0.0
C332 C 0.37125 0.55415 0.9118 0.0
C333 C 0.29054 0.5858 0.90829 0.0
C334 C 0.41568 0.54578 0.89881 0.0
C335 C 0.42453 0.55482 0.86834 0.0
C336 C 0.33591 0.57221 0.89423 0.0
C337 C 0.38798 0.57164 0.85121 0.0
C338 C 0.25642 0.60539 0.89093 0.0
C339 C 0.24414 0.59671 0.95363 0.0
N340 N 0.34528 0.57999 0.86445 0.0
N341 N 0.2831 0.58182 0.93898 0.0
H342 H 0.76162 0.83904 0.42087 0.0
H343 H 0.96025 0.9703 0.42023 0.0
H344 H 0.78893 0.90384 0.4984 0.0
H345 H 0.95242 0.89064 0.35184 0.0
H346 H 0.89315 0.94947 0.44737 0.0
H347 H 0.82845 0.85972 0.39378 0.0
C348 C 0.78191 0.85734 0.43236 0.0
C349 C 0.76955 0.86968 0.46202 0.0
C350 C 0.90592 0.93658 0.42637 0.0
C351 C 0.84555 0.894 0.43081 0.0
C352 C 0.94359 0.94885 0.4107 0.0
C353 C 0.96061 0.93276 0.38347 0.0
C354 C 0.88546 0.90781 0.41471 0.0
C355 C 0.93979 0.90387 0.37271 0.0
C356 C 0.81988 0.86931 0.41677 0.0
C357 C 0.79664 0.89397 0.47542 0.0
N358 N 0.90304 0.89237 0.3883 0.0
N359 N 0.83325 0.90541 0.45968 0.0
H360 H 0.26148 0.20495 0.47607 0.0
H361 H 0.187 0.05413 0.36632 0.0
H362 H 0.35174 0.11255 0.45356 0.0
H363 H 0.08734 0.13414 0.40355 0.0
H364 H 0.24911 0.07736 0.3959 0.0
H365 H 0.19809 0.18188 0.44713 0.0
C366 C 0.26789 0.17984 0.46508 0.0
C367 C 0.31178 0.16053 0.46737 0.0
C368 C 0.21363 0.08977 0.3978 0.0
C369 C 0.23982 0.13413 0.43425 0.0
C370 C 0.17816 0.07622 0.38121 0.0
C371 C 0.13192 0.09154 0.38335 0.0
C372 C 0.20286 0.11933 0.41623 0.0
C373 C 0.12261 0.1214 0.40152 0.0
C374 C 0.23174 0.16664 0.44869 0.0
C375 C 0.31822 0.12806 0.45281 0.0
N376 N 0.15781 0.13432 0.41737 0.0
N377 N 0.28271 0.11595 0.43681 0.0
H378 H 0.30254 0.91875 0.52633 0.0
H379 H 0.2367 0.98858 0.36579 0.0
H380 H 0.40481 0.9627 0.46887 0.0
H381 H 0.13368 0.99411 0.43883 0.0
H382 H 0.2992 0.9844 0.40412 0.0
H383 H 0.2397 0.95031 0.49685 0.0
C384 C 0.31165 0.93565 0.50791 0.0
C385 C 0.35874 0.93792 0.49976 0.0
C386 C 0.26296 0.98758 0.41187 0.0
C387 C 0.28746 0.97347 0.4657 0.0
C388 C 0.22745 0.99002 0.39001 0.0
C389 C 0.18044 0.99192 0.39943 0.0
C390 C 0.2511 0.98549 0.44319 0.0
C391 C 0.16979 0.993 0.43091 0.0
C392 C 0.27589 0.95377 0.4912 0.0
C393 C 0.36886 0.96028 0.47585 0.0
N394 N 0.20496 0.98893 0.45178 0.0
N395 N 0.33349 0.97659 0.45917 0.0
H396 H 0.77546 0.1126 0.51043 0.0
H397 H 0.85839 0.02366 0.35523 0.0
H398 H 0.67889 0.06897 0.44922 0.0
H399 H 0.95267 0.04005 0.42938 0.0
H400 H 0.79192 0.03196 0.39146 0.0
H401 H 0.84076 0.07914 0.48413 0.0
C402 C 0.76812 0.09546 0.49173 0.0
C403 C 0.72206 0.09371 0.48167 0.0
C404 C 0.82724 0.03268 0.40004 0.0
C405 C 0.79632 0.05589 0.45105 0.0
C406 C 0.86501 0.0278 0.3794 0.0
C407 C 0.91062 0.03095 0.38964 0.0
C408 C 0.83544 0.04179 0.43074 0.0
C409 C 0.91778 0.03716 0.42087 0.0
C410 C 0.80528 0.07626 0.47676 0.0
C411 C 0.7141 0.07099 0.45753 0.0
N412 N 0.88048 0.04293 0.44029 0.0
N413 N 0.75101 0.05346 0.44256 0.0
loop_
_geom_bond_atom_site_label_1
_geom_bond_atom_site_label_2
_geom_bond_distance
_geom_bond_site_symmetry_2
_ccdc_geom_bond_type
C0 C1 1.386 . S
C0 C2 1.397 . S
C0 H24 0.931 . S
C1 C0 1.386 . S
C1 C5 1.397 . S
C2 C0 1.397 . S
C2 C3 1.384 . S
C2 H25 0.930 . S
C3 C2 1.384 . S
C3 C4 1.377 . S
C3 C6 1.481 1_556 S
C4 C3 1.377 . S
C4 C5 1.389 . S
C4 H26 0.929 . S
C5 C1 1.397 . S
C5 C4 1.389 . S
C5 H27 0.931 . S
C6 C3 1.481 1_554 S
C6 C7 1.387 . S
C6 C11 1.390 1_554 S
C7 C6 1.387 . S
C7 C8 1.401 . S
C7 H28 0.930 . S
C8 C7 1.401 . S
C8 C9 1.376 . S
C8 C17 1.511 . S
C9 C8 1.376 . S
C9 C10 1.392 . S
C9 H30 0.931 . S
C10 C9 1.392 . S
C10 C11 1.361 1_554 S
C10 C12 1.500 1_554 S
C11 C6 1.390 1_556 S
C11 C10 1.361 1_556 S
C11 H29 0.931 . S
C12 C10 1.500 1_556 S
C12 C13 1.371 1_455 S
C12 C14 1.365 . S
C13 C12 1.371 1_655 S
C13 C23 1.386 . S
C13 H31 0.931 1_655 S
C14 C12 1.365 . S
C14 C15 1.409 1_455 S
C14 H32 0.929 . S
C15 C14 1.409 1_655 S
C15 C16 1.380 . S
C15 H33 0.930 . S
C16 C15 1.380 . S
C16 C23 1.357 . S
C17 C8 1.511 . S
C17 C18 1.341 . S
C17 C19 1.371 . S
C18 C17 1.341 . S
C18 C22 1.394 . S
C18 H34 0.930 . S
C19 C17 1.371 . S
C19 C20 1.392 . S
C19 H35 0.931 . S
C20 C19 1.392 . S
C20 C21 1.331 . S
C20 H38 0.932 . S
C21 C20 1.331 . S
C21 C22 1.336 . S
C22 C18 1.394 . S
C22 C21 1.336 . S
C22 H37 0.929 . S
C23 C13 1.386 . S
C23 C16 1.357 . S
C23 H36 0.928 . S
H24 C0 0.931 . S
H25 C2 0.930 . S
H26 C4 0.929 . S
H27 C5 0.931 . S
H28 C7 0.930 . S
H29 C11 0.931 . S
H30 C9 0.931 . S
H31 C13 0.931 1_455 S
H32 C14 0.929 . S
H33 C15 0.930 . S
H34 C18 0.930 . S
H35 C19 0.931 . S
H36 C23 0.928 . S
H37 C22 0.929 . S
H38 C20 0.932 . S
C39 C40 1.386 . S
C39 C41 1.397 . S
C39 H63 0.931 . S
C40 C39 1.386 . S
C40 C44 1.397 . S
C41 C39 1.397 . S
C41 C42 1.384 . S
C41 H64 0.930 . S
C42 C41 1.384 . S
C42 C43 1.377 . S
C42 C45 1.481 1_556 S
C43 C42 1.377 . S
C43 C44 1.389 . S
C43 H65 0.929 . S
C44 C40 1.397 . S
C44 C43 1.389 . S
C44 H66 0.931 . S
C45 C42 1.481 1_554 S
C45 C46 1.387 . S
C45 C50 1.390 1_654 S
C46 C45 1.387 . S
C46 C47 1.401 1_655 S
C46 H67 0.930 . S
C47 C46 1.401 1_455 S
C47 C48 1.376 . S
C47 C56 1.511 . S
C48 C47 1.376 . S
C48 C49 1.392 . S
C48 H69 0.931 . S
C49 C48 1.392 . S
C49 C50 1.361 1_554 S
C49 C51 1.500 1_554 S
C50 C45 1.390 1_456 S
C50 C49 1.361 1_556 S
C50 H68 0.931 . S
C51 C49 1.500 1_556 S
C51 C52 1.371 . S
C51 C53 1.365 . S
C52 C51 1.371 . S
C52 C62 1.386 . S
C52 H70 0.931 . S
C53 C51 1.365 . S
C53 C54 1.409 . S
C53 H71 0.929 . S
C54 C53 1.409 . S
C54 C55 1.380 . S
C54 H72 0.930 . S
C55 C54 1.380 . S
C55 C62 1.357 . S
C56 C47 1.511 . S
C56 C57 1.341 1_455 S
C56 C58 1.371 . S
C57 C56 1.341 1_655 S
C57 C61 1.394 . S
C57 H73 0.930 . S
C58 C56 1.371 . S
C58 C59 1.392 . S
C58 H74 0.931 . S
C59 C58 1.392 . S
C59 C60 1.333 1_455 S
C59 H77 0.932 . S
C60 C59 1.333 1_655 S
C60 C61 1.334 . S
C61 C57 1.394 . S
C61 C60 1.334 . S
C61 H76 0.929 . S
C62 C52 1.386 . S
C62 C55 1.357 . S
C62 H75 0.928 . S
H63 C39 0.931 . S
H64 C41 0.930 . S
H65 C43 0.929 . S
H66 C44 0.931 . S
H67 C46 0.930 . S
H68 C50 0.931 . S
H69 C48 0.931 . S
H70 C52 0.931 . S
H71 C53 0.929 . S
H72 C54 0.930 . S
H73 C57 0.930 . S
H74 C58 0.931 . S
H75 C62 0.928 . S
H76 C61 0.929 . S
H77 C59 0.932 . S
C78 C79 1.386 . S
C78 C80 1.397 . S
C78 H102 0.931 . S
C79 C78 1.386 . S
C79 C83 1.397 . S
C80 C78 1.397 . S
C80 C81 1.384 . S
C80 H103 0.930 . S
C81 C80 1.384 . S
C81 C82 1.377 . S
C81 C84 1.481 . S
C82 C81 1.377 . S
C82 C83 1.389 . S
C82 H104 0.929 . S
C83 C79 1.397 . S
C83 C82 1.389 . S
C83 H105 0.931 . S
C84 C81 1.481 . S
C84 C85 1.387 . S
C84 C89 1.390 . S
C85 C84 1.387 . S
C85 C86 1.401 . S
C85 H106 0.930 . S
C86 C85 1.401 . S
C86 C87 1.376 . S
C86 C95 1.511 . S
C87 C86 1.376 . S
C87 C88 1.392 . S
C87 H108 0.931 . S
C88 C87 1.392 . S
C88 C89 1.361 . S
C88 C90 1.500 . S
C89 C84 1.390 . S
C89 C88 1.361 . S
C89 H107 0.931 . S
C90 C88 1.500 . S
C90 C91 1.371 . S
C90 C92 1.365 . S
C91 C90 1.371 . S
C91 C101 1.386 . S
C91 H109 0.931 . S
C92 C90 1.365 . S
C92 C93 1.409 . S
C92 H110 0.929 . S
C93 C92 1.409 . S
C93 C94 1.380 . S
C93 H111 0.930 . S
C94 C93 1.380 . S
C94 C101 1.357 . S
C95 C86 1.511 . S
C95 C96 1.341 . S
C95 C97 1.371 . S
C96 C95 1.341 . S
C96 C100 1.394 . S
C96 H112 0.930 . S
C97 C95 1.371 . S
C97 C98 1.392 . S
C97 H113 0.931 . S
C98 C97 1.392 . S
C98 C99 1.331 . S
C98 H116 0.932 . S
C99 C98 1.331 . S
C99 C100 1.336 . S
C100 C96 1.394 . S
C100 C99 1.336 . S
C100 H115 0.929 . S
C101 C91 1.386 . S
C101 C94 1.357 . S
C101 H114 0.928 . S
H102 C78 0.931 . S
H103 C80 0.930 . S
H104 C82 0.929 . S
H105 C83 0.931 . S
H106 C85 0.930 . S
H107 C89 0.931 . S
H108 C87 0.931 . S
H109 C91 0.931 . S
H110 C92 0.929 . S
H111 C93 0.930 . S
H112 C96 0.930 . S
H113 C97 0.931 . S
H114 C101 0.928 . S
H115 C100 0.929 . S
H116 C98 0.932 . S
C117 C118 1.386 . S
C117 C119 1.397 . S
C117 H141 0.931 . S
C118 C117 1.386 . S
C118 C122 1.397 . S
C119 C117 1.397 . S
C119 C120 1.384 . S
C119 H142 0.930 . S
C120 C119 1.384 . S
C120 C121 1.377 . S
C120 C123 1.481 . S
C121 C120 1.377 . S
C121 C122 1.389 . S
C121 H143 0.929 . S
C122 C118 1.397 . S
C122 C121 1.389 . S
C122 H144 0.931 . S
C123 C120 1.481 . S
C123 C124 1.387 . S
C123 C128 1.390 . S
C124 C123 1.387 . S
C124 C125 1.401 . S
C124 H145 0.930 . S
C125 C124 1.401 . S
C125 C126 1.376 . S
C125 C134 1.511 . S
C126 C125 1.376 . S
C126 C127 1.392 . S
C126 H147 0.931 . S
C127 C126 1.392 . S
C127 C128 1.361 . S
C127 C129 1.500 . S
C128 C123 1.390 . S
C128 C127 1.361 . S
C128 H146 0.931 . S
C129 C127 1.500 . S
C129 C130 1.371 . S
C129 C131 1.365 . S
C130 C129 1.371 . S
C130 C140 1.386 . S
C130 H148 0.931 . S
C131 C129 1.365 . S
C131 C132 1.409 . S
C131 H149 0.929 . S
C132 C131 1.409 . S
C132 C133 1.380 . S
C132 H150 0.930 . S
C133 C132 1.380 . S
C133 C140 1.357 . S
C134 C125 1.511 . S
C134 C135 1.341 . S
C134 C136 1.371 . S
C135 C134 1.341 . S
C135 C139 1.394 . S
C135 H151 0.930 . S
C136 C134 1.371 . S
C136 C137 1.392 . S
C136 H152 0.931 . S
C137 C136 1.392 . S
C137 C138 1.331 . S
C137 H155 0.932 . S
C138 C137 1.331 . S
C138 C139 1.336 . S
C139 C135 1.394 . S
C139 C138 1.336 . S
C139 H154 0.929 . S
C140 C130 1.386 . S
C140 C133 1.357 . S
C140 H153 0.928 . S
H141 C117 0.931 . S
H142 C119 0.930 . S
H143 C121 0.929 . S
H144 C122 0.931 . S
H145 C124 0.930 . S
H146 C128 0.931 . S
H147 C126 0.931 . S
H148 C130 0.931 . S
H149 C131 0.929 . S
H150 C132 0.930 . S
H151 C135 0.930 . S
H152 C136 0.931 . S
H153 C140 0.928 . S
H154 C139 0.929 . S
H155 C137 0.932 . S
Zn156 O162 1.920 . S
Zn156 O168 1.898 . S
Zn156 O171 1.905 1_455 S
Zn157 O165 1.905 . S
Zn157 O166 1.898 . S
Zn157 O174 1.920 . S
Zn158 O161 2.080 . S
Zn158 O164 2.114 1_545 S
Zn158 O167 2.120 1_545 S
Zn158 O169 2.120 . S
Zn158 O170 2.114 . S
Zn158 O173 2.080 1_545 S
C159 O164 1.166 . S
C159 O165 1.182 . S
C160 O166 1.167 . S
C160 O167 1.299 . S
O161 Zn158 2.080 . S
O161 C175 1.305 . S
O162 Zn156 1.920 . S
O162 C175 1.234 . S
C163 O168 1.167 . S
C163 O169 1.299 . S
O164 Zn158 2.114 1_565 S
O164 C159 1.166 . S
O165 Zn157 1.905 . S
O165 C159 1.182 . S
O166 Zn157 1.898 . S
O166 C160 1.167 . S
O167 Zn158 2.120 1_565 S
O167 C160 1.299 . S
O168 Zn156 1.898 . S
O168 C163 1.167 . S
O169 Zn158 2.120 . S
O169 C163 1.299 . S
O170 Zn158 2.114 . S
O170 C172 1.166 1_455 S
O171 Zn156 1.905 1_655 S
O171 C172 1.182 . S
C172 O170 1.166 1_655 S
C172 O171 1.182 . S
O173 Zn158 2.080 1_565 S
O173 C176 1.305 . S
O174 Zn157 1.920 . S
O174 C176 1.234 . S
C175 O161 1.305 . S
C175 O162 1.234 . S
C176 O173 1.305 . S
C176 O174 1.234 . S
Zn177 O183 1.920 . S
Zn177 O189 1.898 . S
Zn177 O192 1.905 . S
Zn178 O186 1.905 . S
Zn178 O187 1.898 . S
Zn178 O195 1.920 . S
Zn179 O182 2.080 . S
Zn179 O185 2.114 . S
Zn179 O188 2.120 . S
Zn179 O190 2.120 . S
Zn179 O191 2.114 . S
Zn179 O194 2.080 . S
C180 O185 1.166 . S
C180 O186 1.182 . S
C181 O187 1.167 . S
C181 O188 1.299 . S
O182 Zn179 2.080 . S
O182 C196 1.305 . S
O183 Zn177 1.920 . S
O183 C196 1.234 . S
C184 O189 1.167 . S
C184 O190 1.299 . S
O185 Zn179 2.114 . S
O185 C180 1.166 . S
O186 Zn178 1.905 . S
O186 C180 1.182 . S
O187 Zn178 1.898 . S
O187 C181 1.167 . S
O188 Zn179 2.120 . S
O188 C181 1.299 . S
O189 Zn177 1.898 . S
O189 C184 1.167 . S
O190 Zn179 2.120 . S
O190 C184 1.299 . S
O191 Zn179 2.114 . S
O191 C193 1.166 . S
O192 Zn177 1.905 . S
O192 C193 1.182 . S
C193 O191 1.166 . S
C193 O192 1.182 . S
O194 Zn179 2.080 . S
O194 C197 1.305 . S
O195 Zn178 1.920 . S
O195 C197 1.234 . S
C196 O182 1.305 . S
C196 O183 1.234 . S
C197 O194 1.305 . S
C197 O195 1.234 . S
H198 C204 0.930 . S
H199 C208 0.930 . S
H200 C213 0.929 . S
H201 C211 0.929 . S
H202 C206 0.929 . S
H203 C212 0.929 . S
C204 H198 0.930 . S
C204 C205 1.367 . S
C204 C212 1.378 . S
C205 C204 1.367 . S
C205 C213 1.433 . S
C206 H202 0.929 . S
C206 C208 1.378 . S
C206 C210 1.350 . S
C207 C210 1.463 . S
C207 C212 1.350 . S
C207 N215 1.427 . S
C208 H199 0.930 . S
C208 C206 1.378 . S
C208 C209 1.367 . S
C209 C208 1.367 . S
C209 C211 1.433 . S
C210 C206 1.350 . S
C210 C207 1.463 . S
C210 N214 1.427 . S
C211 H201 0.929 . S
C211 C209 1.433 . S
C211 N214 1.384 . S
C212 H203 0.929 . S
C212 C204 1.378 . S
C212 C207 1.350 . S
C213 H200 0.929 . S
C213 C205 1.433 . S
C213 N215 1.384 . S
N214 C210 1.427 . S
N214 C211 1.384 . S
N215 C207 1.427 . S
N215 C213 1.384 . S
H216 C222 0.930 . S
H217 C226 0.930 . S
H218 C231 0.929 1_655 S
H219 C229 0.929 . S
H220 C224 0.929 . S
H221 C230 0.929 . S
C222 H216 0.930 . S
C222 C223 1.367 . S
C222 C230 1.378 . S
C223 C222 1.367 . S
C223 C231 1.433 . S
C224 H220 0.929 . S
C224 C226 1.378 . S
C224 C228 1.350 . S
C225 C228 1.463 . S
C225 C230 1.350 . S
C225 N233 1.427 . S
C226 H217 0.930 . S
C226 C224 1.378 . S
C226 C227 1.367 . S
C227 C226 1.367 . S
C227 C229 1.433 . S
C228 C224 1.350 . S
C228 C225 1.463 . S
C228 N232 1.427 . S
C229 H219 0.929 . S
C229 C227 1.433 . S
C229 N232 1.384 . S
C230 H221 0.929 . S
C230 C222 1.378 . S
C230 C225 1.350 . S
C231 H218 0.929 1_455 S
C231 C223 1.433 . S
C231 N233 1.384 . S
N232 C228 1.427 . S
N232 C229 1.384 . S
N233 C225 1.427 . S
N233 C231 1.384 . S
H234 C240 0.930 . S
H235 C244 0.930 . S
H236 C249 0.929 . S
H237 C247 0.929 . S
H238 C242 0.929 . S
H239 C248 0.929 . S
C240 H234 0.930 . S
C240 C241 1.367 . S
C240 C248 1.378 . S
C241 C240 1.367 . S
C241 C249 1.433 . S
C242 H238 0.929 . S
C242 C244 1.378 . S
C242 C246 1.350 . S
C243 C246 1.463 . S
C243 C248 1.350 . S
C243 N251 1.427 . S
C244 H235 0.930 . S
C244 C242 1.378 . S
C244 C245 1.367 . S
C245 C244 1.367 . S
C245 C247 1.433 . S
C246 C242 1.350 . S
C246 C243 1.463 . S
C246 N250 1.427 . S
C247 H237 0.929 . S
C247 C245 1.433 . S
C247 N250 1.384 . S
C248 H239 0.929 . S
C248 C240 1.378 . S
C248 C243 1.350 . S
C249 H236 0.929 . S
C249 C241 1.433 . S
C249 N251 1.384 . S
N250 C246 1.427 . S
N250 C247 1.384 . S
N251 C243 1.427 . S
N251 C249 1.384 . S
H252 C258 0.930 . S
H253 C262 0.930 . S
H254 C267 0.929 . S
H255 C265 0.929 . S
H256 C260 0.929 . S
H257 C266 0.929 . S
C258 H252 0.930 . S
C258 C259 1.367 . S
C258 C266 1.378 . S
C259 C258 1.367 . S
C259 C267 1.433 . S
C260 H256 0.929 . S
C260 C262 1.378 . S
C260 C264 1.350 . S
C261 C264 1.463 . S
C261 C266 1.350 . S
C261 N269 1.427 . S
C262 H253 0.930 . S
C262 C260 1.378 . S
C262 C263 1.367 . S
C263 C262 1.367 . S
C263 C265 1.433 . S
C264 C260 1.350 . S
C264 C261 1.463 . S
C264 N268 1.427 . S
C265 H255 0.929 . S
C265 C263 1.433 . S
C265 N268 1.384 . S
C266 H257 0.929 . S
C266 C258 1.378 . S
C266 C261 1.350 . S
C267 H254 0.929 . S
C267 C259 1.433 . S
C267 N269 1.384 . S
N268 C264 1.427 . S
N268 C265 1.384 . S
N269 C261 1.427 . S
N269 C267 1.384 . S
H270 C276 0.910 1_554 S
H271 C280 0.930 . S
H272 C285 0.929 . S
H273 C283 0.929 . S
H274 C278 0.929 . S
H275 C284 0.929 . S
C276 H270 0.910 1_556 S
C276 C277 1.367 . S
C276 C284 1.378 . S
C277 C276 1.367 . S
C277 C285 1.433 . S
C278 H274 0.929 . S
C278 C280 1.378 . S
C278 C282 1.350 . S
C279 C282 1.463 . S
C279 C284 1.350 . S
C279 N287 1.427 . S
C280 H271 0.930 . S
C280 C278 1.378 . S
C280 C281 1.367 . S
C281 C280 1.367 . S
C281 C283 1.433 . S
C282 C278 1.350 . S
C282 C279 1.463 . S
C282 N286 1.427 . S
C283 H273 0.929 . S
C283 C281 1.433 . S
C283 N286 1.384 . S
C284 H275 0.929 . S
C284 C276 1.378 . S
C284 C279 1.350 . S
C285 H272 0.929 . S
C285 C277 1.433 . S
C285 N287 1.384 . S
N286 C282 1.427 . S
N286 C283 1.384 . S
N287 C279 1.427 . S
N287 C285 1.384 . S
H288 C294 0.930 . S
H289 C298 0.930 . S
H290 C303 0.929 . S
H291 C301 0.929 . S
H292 C296 0.929 . S
H293 C302 0.929 . S
C294 H288 0.930 . S
C294 C295 1.367 . S
C294 C302 1.378 . S
C295 C294 1.367 . S
C295 C303 1.433 . S
C296 H292 0.929 . S
C296 C298 1.378 . S
C296 C300 1.350 . S
C297 C300 1.463 . S
C297 C302 1.350 . S
C297 N305 1.427 . S
C298 H289 0.930 . S
C298 C296 1.378 . S
C298 C299 1.367 . S
C299 C298 1.367 . S
C299 C301 1.433 . S
C300 C296 1.350 . S
C300 C297 1.463 . S
C300 N304 1.427 . S
C301 H291 0.929 . S
C301 C299 1.433 . S
C301 N304 1.384 . S
C302 H293 0.929 . S
C302 C294 1.378 . S
C302 C297 1.350 . S
C303 H290 0.929 . S
C303 C295 1.433 . S
C303 N305 1.384 . S
N304 C300 1.427 . S
N304 C301 1.384 . S
N305 C297 1.427 . S
N305 C303 1.384 . S
H306 C312 0.930 . S
H307 C316 0.930 . S
H308 C321 0.929 . S
H309 C319 0.929 . S
H310 C314 0.929 . S
H311 C320 0.929 . S
C312 H306 0.930 . S
C312 C313 1.367 . S
C312 C320 1.378 . S
C313 C312 1.367 . S
C313 C321 1.433 . S
C314 H310 0.929 . S
C314 C316 1.378 . S
C314 C318 1.350 . S
C315 C318 1.463 . S
C315 C320 1.350 . S
C315 N323 1.427 . S
C316 H307 0.930 . S
C316 C314 1.378 . S
C316 C317 1.367 . S
C317 C316 1.367 . S
C317 C319 1.433 . S
C318 C314 1.350 . S
C318 C315 1.463 . S
C318 N322 1.427 . S
C319 H309 0.929 . S
C319 C317 1.433 . S
C319 N322 1.384 . S
C320 H311 0.929 . S
C320 C312 1.378 . S
C320 C315 1.350 . S
C321 H308 0.929 . S
C321 C313 1.433 . S
C321 N323 1.384 . S
N322 C318 1.427 . S
N322 C319 1.384 . S
N323 C315 1.427 . S
N323 C321 1.384 . S
H324 C330 0.930 . S
H325 C334 0.930 . S
H326 C339 0.929 . S
H327 C337 0.929 . S
H328 C332 0.929 . S
H329 C338 0.929 . S
C330 H324 0.930 . S
C330 C331 1.367 . S
C330 C338 1.378 . S
C331 C330 1.367 . S
C331 C339 1.433 . S
C332 H328 0.929 . S
C332 C334 1.378 . S
C332 C336 1.350 . S
C333 C336 1.463 . S
C333 C338 1.350 . S
C333 N341 1.427 . S
C334 H325 0.930 . S
C334 C332 1.378 . S
C334 C335 1.367 . S
C335 C334 1.367 . S
C335 C337 1.433 . S
C336 C332 1.350 . S
C336 C333 1.463 . S
C336 N340 1.427 . S
C337 H327 0.929 . S
C337 C335 1.433 . S
C337 N340 1.384 . S
C338 H329 0.929 . S
C338 C330 1.378 . S
C338 C333 1.350 . S
C339 H326 0.929 . S
C339 C331 1.433 . S
C339 N341 1.384 . S
N340 C336 1.427 . S
N340 C337 1.384 . S
N341 C333 1.427 . S
N341 C339 1.384 . S
H342 C348 0.930 . S
H343 C352 0.930 . S
H344 C357 0.929 . S
H345 C355 0.929 1_455 S
H346 C350 0.929 . S
H347 C356 0.929 . S
C348 H342 0.930 . S
C348 C349 1.367 . S
C348 C356 1.378 . S
C349 C348 1.367 . S
C349 C357 1.433 . S
C350 H346 0.929 . S
C350 C352 1.378 . S
C350 C354 1.350 . S
C351 C354 1.463 . S
C351 C356 1.350 . S
C351 N359 1.427 . S
C352 H343 0.930 . S
C352 C350 1.378 . S
C352 C353 1.367 . S
C353 C352 1.367 . S
C353 C355 1.433 . S
C354 C350 1.350 . S
C354 C351 1.463 . S
C354 N358 1.427 . S
C355 H345 0.929 1_655 S
C355 C353 1.433 . S
C355 N358 1.384 . S
C356 H347 0.929 . S
C356 C348 1.378 . S
C356 C351 1.350 . S
C357 H344 0.929 . S
C357 C349 1.433 . S
C357 N359 1.384 . S
N358 C354 1.427 . S
N358 C355 1.384 . S
N359 C351 1.427 . S
N359 C357 1.384 . S
H360 C366 0.930 . S
H361 C370 0.930 . S
H362 C375 0.929 . S
H363 C373 0.929 . S
H364 C368 0.929 . S
H365 C374 0.929 . S
C366 H360 0.930 . S
C366 C367 1.367 . S
C366 C374 1.378 . S
C367 C366 1.367 . S
C367 C375 1.433 . S
C368 H364 0.929 . S
C368 C370 1.378 . S
C368 C372 1.350 . S
C369 C372 1.463 . S
C369 C374 1.350 . S
C369 N377 1.427 . S
C370 H361 0.930 . S
C370 C368 1.378 . S
C370 C371 1.367 . S
C371 C370 1.367 . S
C371 C373 1.433 . S
C372 C368 1.350 . S
C372 C369 1.463 . S
C372 N376 1.427 . S
C373 H363 0.929 . S
C373 C371 1.433 . S
C373 N376 1.384 . S
C374 H365 0.929 . S
C374 C366 1.378 . S
C374 C369 1.350 . S
C375 H362 0.929 . S
C375 C367 1.433 . S
C375 N377 1.384 . S
N376 C372 1.427 . S
N376 C373 1.384 . S
N377 C369 1.427 . S
N377 C375 1.384 . S
H378 C384 0.930 . S
H379 C388 0.930 . S
H380 C393 0.929 . S
H381 C391 0.929 . S
H382 C386 0.929 . S
H383 C392 0.929 . S
C384 H378 0.930 . S
C384 C385 1.367 . S
C384 C392 1.378 . S
C385 C384 1.367 . S
C385 C393 1.433 . S
C386 H382 0.929 . S
C386 C388 1.378 . S
C386 C390 1.350 . S
C387 C390 1.463 . S
C387 C392 1.350 . S
C387 N395 1.427 . S
C388 H379 0.930 . S
C388 C386 1.378 . S
C388 C389 1.367 . S
C389 C388 1.367 . S
C389 C391 1.433 . S
C390 C386 1.350 . S
C390 C387 1.463 . S
C390 N394 1.427 . S
C391 H381 0.929 . S
C391 C389 1.433 . S
C391 N394 1.384 . S
C392 H383 0.929 . S
C392 C384 1.378 . S
C392 C387 1.350 . S
C393 H380 0.929 . S
C393 C385 1.433 . S
C393 N395 1.384 . S
N394 C390 1.427 . S
N394 C391 1.384 . S
N395 C387 1.427 . S
N395 C393 1.384 . S
H396 C402 0.930 . S
H397 C406 0.930 . S
H398 C411 0.929 . S
H399 C409 0.929 . S
H400 C404 0.929 . S
H401 C410 0.929 . S
C402 H396 0.930 . S
C402 C403 1.367 . S
C402 C410 1.378 . S
C403 C402 1.367 . S
C403 C411 1.433 . S
C404 H400 0.929 . S
C404 C406 1.378 . S
C404 C408 1.350 . S
C405 C408 1.463 . S
C405 C410 1.350 . S
C405 N413 1.427 . S
C406 H397 0.930 . S
C406 C404 1.378 . S
C406 C407 1.367 . S
C407 C406 1.367 . S
C407 C409 1.433 . S
C408 C404 1.350 . S
C408 C405 1.463 . S
C408 N412 1.427 . S
C409 H399 0.929 . S
C409 C407 1.433 . S
C409 N412 1.384 . S
C410 H401 0.929 . S
C410 C402 1.378 . S
C410 C405 1.350 . S
C411 H398 0.929 . S
C411 C403 1.433 . S
C411 N413 1.384 . S
N412 C408 1.427 . S
N412 C409 1.384 . S
N413 C405 1.427 . S
N413 C411 1.384 . S
C209 C163 1.445 . S
C205 C21 1.528 . S
C227 C159 1.458 . S
C223 C60 1.529 1_455 S
C245 C184 1.449 . S
C241 C99 1.528 . S
C259 C138 1.535 . S
C263 C180 1.439 . S
C277 C1 1.223 . S
C281 C181 1.072 . S
C299 C196 1.099 . S
C295 C40 1.247 . S
C313 C16 1.700 . S
C317 C197 1.553 . S
C335 C193 1.588 . S
C331 C55 1.716 . S
C353 C160 1.093 1_655 S
C349 C79 1.229 . S
C367 C118 1.247 . S
C371 C175 1.101 . S
C389 C176 1.571 . S
C385 C94 1.706 . S
C407 C172 1.581 . S
C403 C133 1.713 . S
