# Generated by pormake.
# Topology ant, (3,6)-cn, num edge types: 1
# Building blocks:
#     Node 0, Type 0, BuildingBlock: CUQRIR_clean_linker_1, # of connection points: 3
#     Node 1, Type 0, BuildingBlock: CUQRIR_clean_linker_1, # of connection points: 3
#     Node 2, Type 0, BuildingBlock: CUQRIR_clean_linker_1, # of connection points: 3
#     Node 3, Type 0, BuildingBlock: CUQRIR_clean_linker_1, # of connection points: 3
#     Node 4, Type 0, BuildingBlock: CUQRIR_clean_linker_1, # of connection points: 3
#     Node 5, Type 0, BuildingBlock: CUQRIR_clean_linker_1, # of connection points: 3
#     Node 6, Type 0, BuildingBlock: CUQRIR_clean_linker_1, # of connection points: 3
#     Node 7, Type 0, BuildingBlock: CUQRIR_clean_linker_1, # of connection points: 3
#     Node 8, Type 1, BuildingBlock: MIDCAF_clean_sbu_0, # of connection points: 6
#     Node 9, Type 1, BuildingBlock: MIDCAF_clean_sbu_0, # of connection points: 6
#     Node 10, Type 1, BuildingBlock: MIDCAF_clean_sbu_0, # of connection points: 6
#     Node 11, Type 1, BuildingBlock: MIDCAF_clean_sbu_0, # of connection points: 6
#     Edge 12, Type (0, 1), BuildingBlock: XUDNAN_clean_linker_2, # of connection points: 2
#     Edge 13, Type (0, 1), BuildingBlock: XUDNAN_clean_linker_2, # of connection points: 2
#     Edge 14, Type (0, 1), BuildingBlock: XUDNAN_clean_linker_2, # of connection points: 2
#     Edge 15, Type (0, 1), BuildingBlock: XUDNAN_clean_linker_2, # of connection points: 2
#     Edge 16, Type (0, 1), BuildingBlock: XUDNAN_clean_linker_2, # of connection points: 2
#     Edge 17, Type (0, 1), BuildingBlock: XUDNAN_clean_linker_2, # of connection points: 2
#     Edge 18, Type (0, 1), BuildingBlock: XUDNAN_clean_linker_2, # of connection points: 2
#     Edge 19, Type (0, 1), BuildingBlock: XUDNAN_clean_linker_2, # of connection points: 2
#     Edge 20, Type (0, 1), BuildingBlock: XUDNAN_clean_linker_2, # of connection points: 2
#     Edge 21, Type (0, 1), BuildingBlock: XUDNAN_clean_linker_2, # of connection points: 2
#     Edge 22, Type (0, 1), BuildingBlock: XUDNAN_clean_linker_2, # of connection points: 2
#     Edge 23, Type (0, 1), BuildingBlock: XUDNAN_clean_linker_2, # of connection points: 2
#     Edge 24, Type (0, 1), BuildingBlock: XUDNAN_clean_linker_2, # of connection points: 2
#     Edge 25, Type (0, 1), BuildingBlock: XUDNAN_clean_linker_2, # of connection points: 2
#     Edge 26, Type (0, 1), BuildingBlock: XUDNAN_clean_linker_2, # of connection points: 2
#     Edge 27, Type (0, 1), BuildingBlock: XUDNAN_clean_linker_2, # of connection points: 2
#     Edge 28, Type (0, 1), BuildingBlock: XUDNAN_clean_linker_2, # of connection points: 2
#     Edge 29, Type (0, 1), BuildingBlock: XUDNAN_clean_linker_2, # of connection points: 2
#     Edge 30, Type (0, 1), BuildingBlock: XUDNAN_clean_linker_2, # of connection points: 2
#     Edge 31, Type (0, 1), BuildingBlock: XUDNAN_clean_linker_2, # of connection points: 2
#     Edge 32, Type (0, 1), BuildingBlock: XUDNAN_clean_linker_2, # of connection points: 2
#     Edge 33, Type (0, 1), BuildingBlock: XUDNAN_clean_linker_2, # of connection points: 2
#     Edge 34, Type (0, 1), BuildingBlock: XUDNAN_clean_linker_2, # of connection points: 2
#     Edge 35, Type (0, 1), BuildingBlock: XUDNAN_clean_linker_2, # of connection points: 2
# Relax obj value: 0.110
# Max RMSD: 0.219
# Mean RMSD: 0.147
data_MOF--net-ant--node1-MIDCAF_clean_sbu_0--node2-CUQRIR_clean_linker_1--edge1-XUDNAN_clean_linker_2
_symmetry_space_group_name_H-M    P1
_symmetry_Int_Tables_number       1
_symmetry_cell_setting            triclinic
loop_
_symmetry_equiv_pos_as_xyz
'x, y, z'
_cell_length_a     26.747699
_cell_length_b     26.55014
_cell_length_c     66.157512
_cell_angle_alpha  84.267464
_cell_angle_beta   95.231749
_cell_angle_gamma 90.113647
loop_
_atom_site_label
_atom_site_type_symbol
_atom_site_fract_x
_atom_site_fract_y
_atom_site_fract_z
_atom_type_partial_charge
C0 C 0.19163 0.28011 0.08134 0.0
N1 N 0.19083 0.23715 0.07181 0.0
N2 N 0.17083 0.31951 0.06861 0.0
C3 C 0.21127 0.28324 0.10322 0.0
C4 C 0.157 0.29837 0.0511 0.0
N5 N 0.16889 0.24853 0.05311 0.0
C6 C 0.13382 0.32652 0.03165 0.0
H7 H 0.20978 0.24611 0.1124 0.0
H8 H 0.18956 0.31149 0.11018 0.0
H9 H 0.25107 0.29525 0.10376 0.0
H10 H 0.14478 0.30881 0.01818 0.0
H11 H 0.14539 0.36677 0.03044 0.0
H12 H 0.09234 0.32477 0.03147 0.0
C13 C 0.05484 0.76897 0.34625 0.0
N14 N 0.09041 0.77047 0.33272 0.0
N15 N 0.00923 0.78265 0.33667 0.0
C16 C 0.06421 0.75419 0.36884 0.0
C17 C 0.01813 0.79332 0.31693 0.0
N18 N 0.06738 0.78653 0.31452 0.0
C19 C 0.97844 0.80909 0.2998 0.0
H20 H 0.05608 0.71334 0.37206 0.0
H21 H 0.03903 0.77549 0.37738 0.0
H22 H 0.10373 0.7613 0.3744 0.0
H23 H 0.93989 0.80285 0.30432 0.0
H24 H 0.98363 0.78812 0.28643 0.0
H25 H 0.9824 0.85004 0.29504 0.0
C26 C 0.64123 0.77321 0.58143 0.0
N27 N 0.64283 0.73693 0.56814 0.0
N28 N 0.63389 0.82003 0.57121 0.0
C29 C 0.63961 0.76323 0.60413 0.0
C30 C 0.63073 0.81152 0.5514 0.0
N31 N 0.63579 0.76176 0.54945 0.0
C32 C 0.62137 0.85189 0.53378 0.0
H33 H 0.62351 0.72549 0.6083 0.0
H34 H 0.61669 0.79253 0.60992 0.0
H35 H 0.67823 0.76518 0.61169 0.0
H36 H 0.6368 0.88877 0.53782 0.0
H37 H 0.58028 0.85633 0.52986 0.0
H38 H 0.63844 0.84117 0.52013 0.0
C39 C 0.56823 0.30838 0.84321 0.0
N40 N 0.60637 0.31351 0.83108 0.0
N41 N 0.52347 0.30981 0.83181 0.0
C42 C 0.57473 0.29675 0.86596 0.0
C43 C 0.53593 0.31563 0.81237 0.0
N44 N 0.58633 0.3175 0.81186 0.0
C45 C 0.49926 0.31094 0.79396 0.0
H46 H 0.58013 0.25531 0.86967 0.0
H47 H 0.54095 0.3085 0.87292 0.0
H48 H 0.60844 0.316 0.87249 0.0
H49 H 0.45997 0.31665 0.79742 0.0
H50 H 0.50296 0.27269 0.78883 0.0
H51 H 0.50778 0.33921 0.78126 0.0
C52 C 0.0103 0.69202 0.91233 0.0
N53 N 0.03022 0.71856 0.92765 0.0
N54 N 0.01513 0.64127 0.91765 0.0
C55 C 0.98297 0.71557 0.89283 0.0
C56 C 0.03949 0.63814 0.93665 0.0
N57 N 0.04816 0.6847 0.94271 0.0
C58 C 0.0573 0.58973 0.94907 0.0
H59 H 0.95336 0.68994 0.88704 0.0
H60 H 0.01008 0.72261 0.88115 0.0
H61 H 0.96572 0.7523 0.89513 0.0
H62 H 0.0662 0.56044 0.93908 0.0
H63 H 0.02738 0.57537 0.95865 0.0
H64 H 0.09123 0.59619 0.9594 0.0
C65 C 0.67262 0.83401 0.16329 0.0
N66 N 0.70602 0.81699 0.17929 0.0
N67 N 0.62591 0.83838 0.16947 0.0
C68 C 0.68456 0.84295 0.14148 0.0
C69 C 0.63179 0.82257 0.18958 0.0
N70 N 0.68009 0.80962 0.19553 0.0
C71 C 0.58948 0.81641 0.20315 0.0
H72 H 0.69781 0.88239 0.13852 0.0
H73 H 0.65074 0.83801 0.13086 0.0
H74 H 0.71472 0.81683 0.13845 0.0
H75 H 0.57455 0.77743 0.20285 0.0
H76 H 0.55847 0.8435 0.19776 0.0
H77 H 0.60288 0.82193 0.21915 0.0
C78 C 0.52898 0.17456 0.41536 0.0
N79 N 0.53521 0.20525 0.43075 0.0
N80 N 0.52966 0.12509 0.4229 0.0
C81 C 0.51983 0.19246 0.39303 0.0
C82 C 0.53592 0.1265 0.44333 0.0
N83 N 0.53866 0.17491 0.44815 0.0
C84 C 0.53815 0.08033 0.45864 0.0
H85 H 0.50014 0.22961 0.39073 0.0
H86 H 0.49731 0.16466 0.38472 0.0
H87 H 0.55643 0.19651 0.38641 0.0
H88 H 0.5553 0.0476 0.45265 0.0
H89 H 0.49937 0.06977 0.46196 0.0
H90 H 0.55996 0.08789 0.47309 0.0
C91 C 0.17671 0.3356 0.67173 0.0
N92 N 0.21215 0.31982 0.68726 0.0
N93 N 0.13082 0.33965 0.67873 0.0
C94 C 0.18669 0.34983 0.64992 0.0
C95 C 0.13935 0.32583 0.69898 0.0
N96 N 0.1885 0.31443 0.70423 0.0
C97 C 0.09878 0.31913 0.71341 0.0
H98 H 0.22454 0.36659 0.649 0.0
H99 H 0.15802 0.37722 0.64226 0.0
H100 H 0.18459 0.31539 0.64167 0.0
H101 H 0.06082 0.31822 0.70519 0.0
H102 H 0.10034 0.3511 0.72304 0.0
H103 H 0.10497 0.28359 0.72368 0.0
Zn104 Zn 0.21366 0.70301 0.1521 0.0
Zn105 Zn 0.09295 0.82493 0.10717 0.0
Zn106 Zn 0.15848 0.77029 0.12901 0.0
C107 C 0.112 0.75025 0.08349 0.0
C108 C 0.17792 0.88545 0.11434 0.0
O109 O 0.1307 0.76174 0.15964 0.0
O110 O 0.18536 0.71026 0.1785 0.0
C111 C 0.17707 0.65171 0.12026 0.0
O112 O 0.13899 0.73525 0.10016 0.0
O113 O 0.08694 0.79078 0.08209 0.0
O114 O 0.13221 0.88726 0.10766 0.0
O115 O 0.19836 0.84301 0.122 0.0
O116 O 0.20019 0.64212 0.13772 0.0
O117 O 0.16086 0.69713 0.11432 0.0
O118 O 0.234 0.80637 0.13157 0.0
O119 O 0.27659 0.73935 0.14647 0.0
C120 C 0.27616 0.78428 0.1381 0.0
O121 O 0.08972 0.78096 0.14626 0.0
O122 O 0.03559 0.82225 0.1233 0.0
C123 C 0.14782 0.73955 0.17716 0.0
C124 C 0.04569 0.80086 0.14106 0.0
Zn125 Zn 0.52834 0.62404 0.34381 0.0
Zn126 Zn 0.65204 0.782 0.41377 0.0
Zn127 Zn 0.56267 0.68164 0.36885 0.0
C128 C 0.54863 0.78083 0.38402 0.0
C129 C 0.66293 0.73322 0.37143 0.0
O130 O 0.55826 0.60634 0.38712 0.0
O131 O 0.54511 0.55905 0.36156 0.0
C132 C 0.45151 0.69525 0.35225 0.0
O133 O 0.52225 0.75218 0.37272 0.0
O134 O 0.59034 0.76242 0.39266 0.0
O135 O 0.64173 0.74415 0.387 0.0
O136 O 0.63693 0.7065 0.35931 0.0
O137 O 0.45944 0.65472 0.3444 0.0
O138 O 0.48817 0.71739 0.36166 0.0
O139 O 0.61091 0.68697 0.34306 0.0
O140 O 0.56883 0.64389 0.32036 0.0
C141 C 0.6053 0.67206 0.32504 0.0
O142 O 0.57701 0.64426 0.39978 0.0
O143 O 0.61715 0.71452 0.40401 0.0
C144 C 0.55354 0.56234 0.3805 0.0
C145 C 0.6013 0.67222 0.4119 0.0
Zn146 Zn 0.60502 0.33095 0.61475 0.0
Zn147 Zn 0.72254 0.20906 0.6481 0.0
Zn148 Zn 0.66213 0.27313 0.63147 0.0
C149 C 0.78369 0.28745 0.63593 0.0
C150 C 0.67302 0.15481 0.62051 0.0
O151 O 0.59747 0.28467 0.65131 0.0
O152 O 0.54129 0.30792 0.62576 0.0
C153 C 0.68211 0.38975 0.62137 0.0
O154 O 0.74002 0.30882 0.63185 0.0
O155 O 0.78636 0.2409 0.64198 0.0
O156 O 0.70596 0.14743 0.63537 0.0
O157 O 0.65343 0.19958 0.61595 0.0
O158 O 0.63665 0.39352 0.62464 0.0
O159 O 0.7007 0.345 0.62111 0.0
O160 O 0.63084 0.24135 0.60344 0.0
O161 O 0.61363 0.31553 0.58616 0.0
C162 C 0.61864 0.26823 0.58638 0.0
O163 O 0.64125 0.26396 0.66287 0.0
O164 O 0.70288 0.21192 0.676 0.0
C165 C 0.55103 0.29333 0.64441 0.0
C166 C 0.66527 0.23862 0.67835 0.0
Zn167 Zn 0.02909 0.14128 0.85097 0.0
Zn168 Zn 0.12292 0.25938 0.89793 0.0
Zn169 Zn 0.07354 0.19978 0.87645 0.0
C170 C 0.11465 0.17024 0.92318 0.0
C171 C 0.0338 0.30931 0.88735 0.0
O172 O 0.11769 0.19603 0.84957 0.0
O173 O 0.07106 0.15388 0.82769 0.0
C174 C 0.05593 0.07944 0.88718 0.0
O175 O 0.08645 0.15789 0.90758 0.0
O176 O 0.13752 0.21184 0.92221 0.0
O177 O 0.07265 0.31213 0.89944 0.0
O178 O 0.02726 0.27069 0.87697 0.0
O179 O 0.04228 0.0774 0.86851 0.0
O180 O 0.06584 0.12272 0.89398 0.0
O181 O 0.99867 0.2344 0.86666 0.0
O182 O 0.96145 0.17387 0.85025 0.0
C183 C 0.95913 0.21597 0.85751 0.0
O184 O 0.14748 0.21989 0.86423 0.0
O185 O 0.18043 0.2789 0.88255 0.0
C186 C 0.11028 0.17856 0.83203 0.0
C187 C 0.18317 0.25124 0.86828 0.0
H188 H 0.23917 0.38091 0.08669 0.0
H189 H 0.08505 0.37526 0.06058 0.0
H190 H 0.07228 0.4642 0.06723 0.0
H191 H 0.21036 0.4483 0.12819 0.0
H192 H 0.26792 0.48377 0.12884 0.0
H193 H 0.266 0.42217 0.11967 0.0
H194 H 0.29842 0.46072 0.08576 0.0
H195 H 0.29983 0.52261 0.09477 0.0
H196 H 0.26454 0.51263 0.07098 0.0
H197 H 0.07649 0.55467 0.07751 0.0
H198 H 0.09349 0.63258 0.09478 0.0
H199 H 0.24183 0.57483 0.11712 0.0
C200 C 0.2027 0.3983 0.08245 0.0
C201 C 0.16332 0.37132 0.07282 0.0
C202 C 0.11616 0.39564 0.06745 0.0
C203 C 0.10853 0.4461 0.07124 0.0
C204 C 0.14822 0.47166 0.08076 0.0
C205 C 0.19413 0.44818 0.08659 0.0
C206 C 0.22928 0.48211 0.09823 0.0
C207 C 0.24424 0.45764 0.12002 0.0
C208 C 0.27576 0.49529 0.08674 0.0
C209 C 0.19586 0.5281 0.09827 0.0
C210 C 0.14962 0.52201 0.08771 0.0
C211 C 0.11259 0.55973 0.08583 0.0
C212 C 0.12263 0.60402 0.09554 0.0
C213 C 0.16891 0.60965 0.10724 0.0
C214 C 0.20607 0.57147 0.10827 0.0
H215 H 0.93349 0.71765 0.32932 0.0
H216 H 0.97694 0.84592 0.36224 0.0
H217 H 0.89255 0.8472 0.3751 0.0
H218 H 0.80696 0.75979 0.31334 0.0
H219 H 0.78097 0.697 0.31587 0.0
H220 H 0.84512 0.70576 0.31017 0.0
H221 H 0.87406 0.64332 0.34181 0.0
H222 H 0.80981 0.6351 0.34753 0.0
H223 H 0.85616 0.65525 0.36653 0.0
H224 H 0.80301 0.83476 0.38381 0.0
H225 H 0.71508 0.81004 0.38786 0.0
H226 H 0.7291 0.69077 0.3484 0.0
C227 C 0.92503 0.74558 0.33939 0.0
C228 C 0.96135 0.78146 0.34505 0.0
C229 C 0.94945 0.81792 0.35805 0.0
C230 C 0.90171 0.81897 0.36528 0.0
C231 C 0.86633 0.78343 0.35921 0.0
C232 C 0.87741 0.7474 0.34655 0.0
C233 C 0.83239 0.71424 0.34193 0.0
C234 C 0.81536 0.71956 0.31897 0.0
C235 C 0.8438 0.65869 0.34994 0.0
C236 C 0.7942 0.73718 0.35398 0.0
C237 C 0.81458 0.77696 0.36388 0.0
C238 C 0.78669 0.80373 0.37611 0.0
C239 C 0.7368 0.78936 0.37834 0.0
C240 C 0.71511 0.74881 0.36831 0.0
C241 C 0.74437 0.72247 0.35599 0.0
H242 H 0.70124 0.68729 0.60127 0.0
H243 H 0.60334 0.65649 0.54793 0.0
H244 H 0.63212 0.57015 0.5517 0.0
H245 H 0.79479 0.58621 0.60501 0.0
H246 H 0.78888 0.56665 0.63156 0.0
H247 H 0.77705 0.6317 0.6216 0.0
H248 H 0.68824 0.62783 0.63438 0.0
H249 H 0.70064 0.56348 0.64491 0.0
H250 H 0.64611 0.57822 0.62721 0.0
H251 H 0.67174 0.48569 0.56066 0.0
H252 H 0.68073 0.40306 0.58105 0.0
H253 H 0.72155 0.47804 0.63536 0.0
C254 C 0.68518 0.66302 0.5903 0.0
C255 C 0.65341 0.68248 0.57278 0.0
C256 C 0.63292 0.6469 0.55966 0.0
C257 C 0.64825 0.59621 0.56203 0.0
C258 C 0.68082 0.57926 0.57883 0.0
C259 C 0.69575 0.61062 0.59361 0.0
C260 C 0.71719 0.57942 0.61306 0.0
C261 C 0.77279 0.59175 0.6181 0.0
C262 C 0.68619 0.58771 0.63095 0.0
C263 C 0.71118 0.52587 0.60674 0.0
C264 C 0.69351 0.52747 0.58642 0.0
C265 C 0.68516 0.48373 0.57666 0.0
C266 C 0.6911 0.43687 0.58832 0.0
C267 C 0.70236 0.43411 0.60969 0.0
C268 C 0.71429 0.47908 0.61896 0.0
H269 H 0.66 0.23042 0.8471 0.0
H270 H 0.67187 0.38979 0.82744 0.0
H271 H 0.76456 0.38459 0.83502 0.0
H272 H 0.76468 0.21911 0.88724 0.0
H273 H 0.78469 0.15866 0.88052 0.0
H274 H 0.71945 0.17694 0.87617 0.0
H275 H 0.71984 0.16234 0.83803 0.0
H276 H 0.78504 0.14417 0.84221 0.0
H277 H 0.76515 0.19485 0.82298 0.0
H278 H 0.85668 0.36033 0.84365 0.0
H279 H 0.94 0.31783 0.84933 0.0
H280 H 0.86743 0.17312 0.86065 0.0
C281 C 0.68233 0.26424 0.84488 0.0
C282 C 0.65941 0.31079 0.83717 0.0
C283 C 0.6893 0.35416 0.8337 0.0
C284 C 0.74172 0.35144 0.83795 0.0
C285 C 0.76355 0.30473 0.84532 0.0
C286 C 0.73475 0.26177 0.84852 0.0
C287 C 0.76747 0.21522 0.8544 0.0
C288 C 0.75854 0.19107 0.87586 0.0
C289 C 0.75887 0.1769 0.83846 0.0
C290 C 0.81914 0.23858 0.85405 0.0
C291 C 0.81623 0.29036 0.84911 0.0
C292 C 0.85933 0.31983 0.84765 0.0
C293 C 0.90651 0.29559 0.85108 0.0
C294 C 0.91009 0.24249 0.85565 0.0
C295 C 0.86575 0.21387 0.85722 0.0
H296 H 0.9671 0.55618 0.93112 0.0
H297 H 0.03047 0.63079 0.87825 0.0
H298 H 0.01689 0.55358 0.8605 0.0
H299 H 0.0365 0.44996 0.93153 0.0
H300 H 0.99047 0.4062 0.94104 0.0
H301 H 0.98917 0.47089 0.9466 0.0
H302 H 0.89675 0.47888 0.93085 0.0
H303 H 0.89819 0.41402 0.92499 0.0
H304 H 0.881 0.46394 0.90506 0.0
H305 H 0.01114 0.46452 0.85096 0.0
H306 H 0.02745 0.3726 0.85266 0.0
H307 H 0.97902 0.35302 0.91349 0.0
C308 C 0.97707 0.55654 0.91563 0.0
C309 C 0.99954 0.59964 0.90602 0.0
C310 C 0.01209 0.59871 0.88574 0.0
C311 C 0.00455 0.55486 0.87557 0.0
C312 C 0.98477 0.51198 0.88593 0.0
C313 C 0.97165 0.51247 0.90565 0.0
C314 C 0.96145 0.45946 0.91509 0.0
C315 C 0.9965 0.44584 0.9347 0.0
C316 C 0.90604 0.45375 0.91924 0.0
C317 C 0.97356 0.42862 0.89805 0.0
C318 C 0.9846 0.45973 0.88098 0.0
C319 C 0.00144 0.43988 0.86404 0.0
C320 C 0.01009 0.38747 0.86502 0.0
C321 C 0.00299 0.35569 0.88297 0.0
C322 C 0.98262 0.37631 0.89931 0.0
H323 H 0.77429 0.8812 0.16349 0.0
H324 H 0.75781 0.73082 0.19384 0.0
H325 H 0.84852 0.71435 0.1925 0.0
H326 H 0.85334 0.84434 0.12813 0.0
H327 H 0.89009 0.90137 0.12753 0.0
H328 H 0.82613 0.90283 0.13377 0.0
H329 H 0.85569 0.93971 0.16768 0.0
H330 H 0.91996 0.93764 0.16163 0.0
H331 H 0.90241 0.90609 0.18532 0.0
H332 H 0.94141 0.71261 0.18515 0.0
H333 H 0.0222 0.72269 0.16937 0.0
H334 H 0.97511 0.8726 0.14264 0.0
C335 C 0.78996 0.84498 0.16998 0.0
C336 C 0.75922 0.80757 0.17902 0.0
C337 C 0.78095 0.76052 0.18733 0.0
C338 C 0.83245 0.75081 0.18656 0.0
C339 C 0.86179 0.78852 0.17738 0.0
C340 C 0.84102 0.83458 0.16912 0.0
C341 C 0.87892 0.86709 0.15835 0.0
C342 C 0.86107 0.8796 0.13561 0.0
C343 C 0.88988 0.9155 0.16888 0.0
C344 C 0.92393 0.83176 0.1613 0.0
C345 C 0.91399 0.78696 0.17268 0.0
C346 C 0.94963 0.74778 0.17638 0.0
C347 C 0.99559 0.75387 0.16751 0.0
C348 C 0.00488 0.79841 0.15485 0.0
C349 C 0.96915 0.83823 0.15237 0.0
H350 H 0.58987 0.26469 0.40523 0.0
H351 H 0.48532 0.27095 0.45121 0.0
H352 H 0.4884 0.36455 0.44691 0.0
H353 H 0.66219 0.37819 0.41435 0.0
H354 H 0.66565 0.39669 0.38755 0.0
H355 H 0.66162 0.33067 0.39668 0.0
H356 H 0.58285 0.32127 0.37149 0.0
H357 H 0.58699 0.387 0.36215 0.0
H358 H 0.52979 0.36286 0.37179 0.0
H359 H 0.50076 0.45947 0.43608 0.0
H360 H 0.51124 0.54353 0.41682 0.0
H361 H 0.59801 0.47322 0.37497 0.0
C362 C 0.56758 0.28568 0.4144 0.0
C363 C 0.53788 0.26018 0.42877 0.0
C364 C 0.50955 0.28934 0.44055 0.0
C365 C 0.51085 0.34266 0.4381 0.0
C366 C 0.53998 0.36655 0.42353 0.0
C367 C 0.5672 0.33876 0.41167 0.0
C368 C 0.59093 0.37284 0.39549 0.0
C369 C 0.64852 0.36938 0.39872 0.0
C370 C 0.57146 0.36025 0.37396 0.0
C371 C 0.57225 0.42419 0.39981 0.0
C372 C 0.54407 0.42015 0.4164 0.0
C373 C 0.52278 0.4629 0.42309 0.0
C374 C 0.52915 0.51056 0.41216 0.0
C375 C 0.55543 0.51482 0.39445 0.0
C376 C 0.57787 0.47108 0.38851 0.0
H377 H 0.07879 0.27827 0.65443 0.0
H378 H 0.072 0.42179 0.67954 0.0
H379 H 0.9826 0.43217 0.6658 0.0
H380 H 0.98803 0.30956 0.60789 0.0
H381 H 0.96154 0.24699 0.6102 0.0
H382 H 0.0267 0.25615 0.61855 0.0
H383 H 0.01246 0.21247 0.65436 0.0
H384 H 0.94752 0.2032 0.64614 0.0
H385 H 0.96416 0.23632 0.66825 0.0
H386 H 0.8897 0.42056 0.65293 0.0
H387 H 0.80473 0.38589 0.64451 0.0
H388 H 0.87329 0.24951 0.62839 0.0
C389 C 0.05885 0.31277 0.6562 0.0
C390 C 0.0824 0.35001 0.66746 0.0
C391 C 0.05473 0.39362 0.67045 0.0
C392 C 0.00396 0.39965 0.66274 0.0
C393 C 0.9812 0.36158 0.65206 0.0
C394 C 0.00804 0.31901 0.64875 0.0
C395 C 0.97392 0.28073 0.63908 0.0
C396 C 0.98842 0.27291 0.61765 0.0
C397 C 0.97455 0.23024 0.65278 0.0
C398 C 0.92353 0.30747 0.63801 0.0
C399 C 0.92825 0.35449 0.64519 0.0
C400 C 0.88582 0.38412 0.64697 0.0
C401 C 0.83758 0.36438 0.642 0.0
C402 C 0.83221 0.31518 0.63562 0.0
C403 C 0.87603 0.28753 0.63298 0.0
H404 H 0.25895 0.2733 0.65888 0.0
H405 H 0.2878 0.35125 0.71317 0.0
H406 H 0.37928 0.34338 0.71083 0.0
H407 H 0.36785 0.1885 0.66653 0.0
H408 H 0.3785 0.19503 0.63989 0.0
H409 H 0.31585 0.20116 0.64737 0.0
H410 H 0.30681 0.28972 0.62698 0.0
H411 H 0.36913 0.28358 0.61928 0.0
H412 H 0.35308 0.3374 0.63205 0.0
H413 H 0.46923 0.33155 0.70089 0.0
H414 H 0.546 0.32322 0.68297 0.0
H415 H 0.45736 0.25846 0.63414 0.0
C416 C 0.28441 0.28888 0.67025 0.0
C417 C 0.26586 0.31291 0.68625 0.0
C418 C 0.30088 0.3319 0.70099 0.0
C419 C 0.35303 0.32779 0.69971 0.0
C420 C 0.37001 0.30475 0.6835 0.0
C421 C 0.33653 0.28594 0.66896 0.0
C422 C 0.36388 0.26662 0.65213 0.0
C423 C 0.35605 0.20942 0.65145 0.0
C424 C 0.34725 0.2961 0.63139 0.0
C425 C 0.4179 0.27817 0.65924 0.0
C426 C 0.42099 0.29929 0.67756 0.0
C427 C 0.46716 0.31443 0.68667 0.0
C428 C 0.51084 0.30903 0.67654 0.0
C429 C 0.5081 0.28928 0.65739 0.0
C430 C 0.46092 0.27304 0.64892 0.0
H431 H 0.57067 0.76867 0.15137 0.0
H432 H 0.57272 0.92555 0.16317 0.0
H433 H 0.48235 0.93415 0.15065 0.0
H434 H 0.4733 0.78089 0.10554 0.0
H435 H 0.4463 0.72093 0.11381 0.0
H436 H 0.51262 0.73128 0.11917 0.0
H437 H 0.50453 0.70671 0.15764 0.0
H438 H 0.43837 0.6969 0.15249 0.0
H439 H 0.46051 0.74055 0.17045 0.0
H440 H 0.38781 0.92036 0.14227 0.0
H441 H 0.30136 0.88545 0.13946 0.0
H442 H 0.36316 0.73759 0.1334 0.0
C443 C 0.55243 0.80534 0.15023 0.0
C444 C 0.57849 0.84693 0.15749 0.0
C445 C 0.55334 0.89389 0.15697 0.0
C446 C 0.50208 0.89888 0.14999 0.0
C447 C 0.47666 0.85648 0.14354 0.0
C448 C 0.5014 0.8107 0.1434 0.0
C449 C 0.46506 0.76912 0.13836 0.0
C450 C 0.47491 0.74941 0.11801 0.0
C451 C 0.46725 0.72582 0.15577 0.0
C452 C 0.41582 0.79789 0.13653 0.0
C453 C 0.42289 0.84844 0.13918 0.0
C454 C 0.38201 0.88104 0.13975 0.0
C455 C 0.33298 0.86107 0.13805 0.0
C456 C 0.32554 0.80896 0.13609 0.0
C457 C 0.3676 0.7777 0.13477 0.0
H458 H 0.44923 0.36401 0.84444 0.0
H459 H 0.49115 0.21436 0.83133 0.0
H460 H 0.40469 0.18402 0.83601 0.0
H461 H 0.36806 0.32353 0.88381 0.0
H462 H 0.32364 0.37445 0.87633 0.0
H463 H 0.3886 0.38303 0.87184 0.0
H464 H 0.36152 0.40829 0.83357 0.0
H465 H 0.29646 0.398 0.83772 0.0
H466 H 0.32477 0.36501 0.81909 0.0
H467 H 0.31297 0.17127 0.84123 0.0
H468 H 0.22684 0.17323 0.85201 0.0
H469 H 0.24551 0.33132 0.86213 0.0
C470 C 0.44007 0.32471 0.84301 0.0
C471 C 0.47627 0.29101 0.83788 0.0
C472 C 0.46349 0.24006 0.83563 0.0
C473 C 0.41458 0.22287 0.838 0.0
C474 C 0.37909 0.25732 0.84259 0.0
C475 C 0.39143 0.30696 0.84541 0.0
C476 C 0.34673 0.33588 0.85087 0.0
C477 C 0.35739 0.35534 0.87197 0.0
C478 C 0.33148 0.37937 0.83433 0.0
C479 C 0.30767 0.29454 0.85111 0.0
C480 C 0.32666 0.24979 0.84585 0.0
C481 C 0.29766 0.20611 0.84537 0.0
C482 C 0.24866 0.20766 0.85132 0.0
C483 C 0.22964 0.25242 0.85784 0.0
C484 C 0.25914 0.29662 0.85716 0.0
H485 H 0.17617 0.81834 0.32124 0.0
H486 H 0.12132 0.68133 0.35287 0.0
H487 H 0.20818 0.65365 0.36389 0.0
H488 H 0.2816 0.75382 0.30246 0.0
H489 H 0.32353 0.80674 0.30436 0.0
H490 H 0.25678 0.81744 0.2997 0.0
H491 H 0.25937 0.86787 0.3313 0.0
H492 H 0.32599 0.85655 0.3363 0.0
H493 H 0.28473 0.8383 0.3558 0.0
H494 H 0.29874 0.642 0.37293 0.0
H495 H 0.39083 0.6375 0.37413 0.0
H496 H 0.39193 0.77729 0.33421 0.0
C497 C 0.18271 0.78241 0.33036 0.0
C498 C 0.14188 0.75273 0.33688 0.0
C499 C 0.15189 0.70552 0.34845 0.0
C500 C 0.20112 0.68942 0.35471 0.0
C501 C 0.24043 0.72028 0.3488 0.0
C502 C 0.23217 0.76503 0.3364 0.0
C503 C 0.28199 0.78868 0.33117 0.0
C504 C 0.28624 0.79185 0.30805 0.0
C505 C 0.28837 0.84096 0.33912 0.0
C506 C 0.31926 0.7504 0.34279 0.0
C507 C 0.29394 0.71185 0.35309 0.0
C508 C 0.31905 0.67181 0.3649 0.0
C509 C 0.37138 0.66981 0.36563 0.0
C510 C 0.39847 0.7073 0.35455 0.0
C511 C 0.37219 0.74876 0.3432 0.0
H512 H 0.70347 0.87072 0.59339 0.0
H513 H 0.55084 0.87907 0.56541 0.0
H514 H 0.54364 0.96766 0.57385 0.0
H515 H 0.68422 0.94807 0.63501 0.0
H516 H 0.74482 0.97753 0.63396 0.0
H517 H 0.73579 0.91434 0.62669 0.0
H518 H 0.76828 0.94299 0.59165 0.0
H519 H 0.77645 0.00649 0.59867 0.0
H520 H 0.73794 0.99534 0.57577 0.0
H521 H 0.55504 0.05762 0.5846 0.0
H522 H 0.58223 0.13726 0.59896 0.0
H523 H 0.72825 0.06989 0.61845 0.0
C524 C 0.66828 0.89103 0.58954 0.0
C525 C 0.62748 0.86828 0.57898 0.0
C526 C 0.58225 0.89607 0.57368 0.0
C527 C 0.578 0.94635 0.5783 0.0
C528 C 0.61946 0.9684 0.58823 0.0
C529 C 0.66358 0.94136 0.59396 0.0
C530 C 0.70298 0.97394 0.60409 0.0
C531 C 0.71781 0.95218 0.62625 0.0
C532 C 0.74913 0.98004 0.5918 0.0
C533 C 0.6743 0.02342 0.60317 0.0
C534 C 0.6262 0.01978 0.59395 0.0
C535 C 0.59279 0.06088 0.59175 0.0
C536 C 0.60867 0.10632 0.59963 0.0
C537 C 0.65752 0.11036 0.60946 0.0
C538 C 0.69067 0.06833 0.61091 0.0
H539 H 0.14622 0.17746 0.1 0.0
H540 H 0.26942 0.1839 0.06196 0.0
H541 H 0.29096 0.09415 0.07382 0.0
H542 H 0.20816 0.09017 0.14306 0.0
H543 H 0.14995 0.05814 0.14723 0.0
H544 H 0.14946 0.12429 0.13784 0.0
H545 H 0.0886 0.10582 0.10666 0.0
H546 H 0.08853 0.04003 0.11607 0.0
H547 H 0.10571 0.05864 0.09068 0.0
H548 H 0.29085 0.99996 0.08657 0.0
H549 H 0.26567 0.91172 0.09715 0.0
H550 H 0.14565 0.96948 0.12816 0.0
C551 C 0.17861 0.16012 0.09474 0.0
C552 C 0.20661 0.18709 0.08031 0.0
C553 C 0.24782 0.16338 0.07311 0.0
C554 C 0.26046 0.11272 0.07989 0.0
C555 C 0.23179 0.08668 0.0941 0.0
C556 C 0.19186 0.1099 0.10152 0.0
C557 C 0.16378 0.07287 0.11509 0.0
C558 C 0.16812 0.08724 0.13711 0.0
C559 C 0.10843 0.06911 0.10661 0.0
C560 C 0.19269 0.02471 0.11352 0.0
C561 C 0.23238 0.03321 0.10165 0.0
C562 C 0.26069 0.99305 0.09631 0.0
C563 C 0.24656 0.94306 0.10252 0.0
C564 C 0.20448 0.93415 0.11379 0.0
C565 C 0.17886 0.97551 0.12001 0.0
H566 H 0.60085 0.05633 0.41883 0.0
H567 H 0.44334 0.09182 0.40434 0.0
H568 H 0.4299 0.00834 0.39068 0.0
H569 H 0.61784 0.98295 0.37535 0.0
H570 H 0.65972 0.93825 0.39068 0.0
H571 H 0.65682 0.00275 0.39678 0.0
H572 H 0.63731 0.97069 0.43352 0.0
H573 H 0.63946 0.90619 0.42746 0.0
H574 H 0.58427 0.92989 0.4372 0.0
H575 H 0.43408 0.91658 0.38071 0.0
H576 H 0.45549 0.82786 0.37559 0.0
H577 H 0.60987 0.85431 0.39785 0.0
C578 C 0.56392 0.04681 0.41224 0.0
C579 C 0.52323 0.08042 0.41222 0.0
C580 C 0.475 0.06664 0.40405 0.0
C581 C 0.46712 0.0193 0.3964 0.0
C582 C 0.50794 0.9862 0.39712 0.0
C583 C 0.55549 0.99967 0.40477 0.0
C584 C 0.59256 0.95655 0.4052 0.0
C585 C 0.63418 0.97099 0.39116 0.0
C586 C 0.61468 0.93986 0.42715 0.0
C587 C 0.55857 0.91642 0.39685 0.0
C588 C 0.50994 0.93397 0.39208 0.0
C589 C 0.47215 0.90266 0.38436 0.0
C590 C 0.48456 0.85231 0.38152 0.0
C591 C 0.53416 0.8337 0.38663 0.0
C592 C 0.57135 0.86668 0.3942 0.0
H593 H 0.0733 0.78026 0.89934 0.0
H594 H 0.9976 0.78031 0.95437 0.0
H595 H 0.00611 0.87349 0.95298 0.0
H596 H 0.15966 0.88471 0.90805 0.0
H597 H 0.15343 0.90961 0.88157 0.0
H598 H 0.14648 0.84273 0.88846 0.0
H599 H 0.05855 0.84504 0.86831 0.0
H600 H 0.06552 0.91166 0.86119 0.0
H601 H 0.01187 0.88915 0.87398 0.0
H602 H 0.01875 0.96953 0.94377 0.0
H603 H 0.02718 0.05604 0.92619 0.0
H604 H 0.0912 0.99141 0.87671 0.0
C605 C 0.05891 0.79997 0.91116 0.0
C606 C 0.0357 0.77296 0.92719 0.0
C607 C 0.01696 0.79999 0.94233 0.0
C608 C 0.02138 0.85305 0.94156 0.0
C609 C 0.04447 0.87867 0.92547 0.0
C610 C 0.0626 0.85279 0.91048 0.0
C611 C 0.08216 0.88887 0.8939 0.0
C612 C 0.1388 0.881 0.89295 0.0
C613 C 0.05276 0.88336 0.87312 0.0
C614 C 0.07139 0.93921 0.9016 0.0
C615 C 0.05042 0.93293 0.92 0.0
C616 C 0.03561 0.97471 0.92946 0.0
C617 C 0.04094 0.0238 0.91951 0.0
C618 C 0.06026 0.03048 0.90022 0.0
C619 C 0.07668 0.98753 0.89155 0.0
H620 H 0.22854 0.2107 0.02773 0.0
H621 H 0.07679 0.21097 0.04484 0.0
H622 H 0.04889 0.16258 0.0157 0.0
H623 H 0.20175 0.23838 0.97836 0.0
H624 H 0.24897 0.1995 0.96962 0.0
H625 H 0.25807 0.22039 0.99457 0.0
H626 H 0.26967 0.12711 0.01019 0.0
H627 H 0.2598 0.10595 0.98506 0.0
H628 H 0.22148 0.08154 0.0048 0.0
H629 H 0.03471 0.13429 0.98088 0.0
H630 H 0.03483 0.13687 0.9435 0.0
H631 H 0.19646 0.14926 0.94921 0.0
C632 C 0.19011 0.198 0.02582 0.0
C633 C 0.15486 0.21302 0.03859 0.0
C634 C 0.10419 0.19856 0.03529 0.0
C635 C 0.08827 0.1709 0.01888 0.0
C636 C 0.12373 0.15753 0.00608 0.0
C637 C 0.17385 0.17023 0.00954 0.0
C638 C 0.20293 0.15928 0.99188 0.0
C639 C 0.22938 0.20723 0.98309 0.0
C640 C 0.2407 0.11588 0.99837 0.0
C641 C 0.16067 0.14289 0.97714 0.0
C642 C 0.11548 0.14025 0.98584 0.0
C643 C 0.07003 0.13439 0.9741 0.0
C644 C 0.07037 0.13512 0.95282 0.0
C645 C 0.11578 0.14225 0.9436 0.0
C646 C 0.16153 0.14213 0.95607 0.0
H647 H 0.11039 0.71245 0.2964 0.0
H648 H 0.06956 0.87122 0.2889 0.0
H649 H 0.08306 0.87565 0.25227 0.0
H650 H 0.21037 0.726 0.25974 0.0
H651 H 0.19649 0.66488 0.25101 0.0
H652 H 0.18738 0.67599 0.27686 0.0
H653 H 0.0951 0.64698 0.27107 0.0
H654 H 0.10333 0.6373 0.24503 0.0
H655 H 0.05426 0.67885 0.25058 0.0
H656 H 0.08791 0.85928 0.2159 0.0
H657 H 0.10484 0.82933 0.18304 0.0
H658 H 0.15008 0.68274 0.21429 0.0
C659 C 0.10628 0.74842 0.28713 0.0
C660 C 0.08865 0.79152 0.29523 0.0
C661 C 0.08279 0.83793 0.28274 0.0
C662 C 0.09006 0.84065 0.26198 0.0
C663 C 0.10454 0.7968 0.25411 0.0
C664 C 0.11447 0.75201 0.26639 0.0
C665 C 0.12998 0.71061 0.25398 0.0
C666 C 0.18429 0.69336 0.2608 0.0
C667 C 0.09348 0.6658 0.25525 0.0
C668 C 0.12573 0.73877 0.23278 0.0
C669 C 0.11025 0.78822 0.23318 0.0
C670 C 0.10102 0.82093 0.21541 0.0
C671 C 0.11007 0.80335 0.19677 0.0
C672 C 0.12884 0.75378 0.19612 0.0
C673 C 0.13591 0.7209 0.21435 0.0
H674 H 0.69979 0.7383 0.52227 0.0
H675 H 0.54326 0.74204 0.53354 0.0
H676 H 0.5199 0.70262 0.50158 0.0
H677 H 0.67378 0.77995 0.4695 0.0
H678 H 0.72458 0.74464 0.46142 0.0
H679 H 0.72919 0.76484 0.48666 0.0
H680 H 0.74563 0.67176 0.5018 0.0
H681 H 0.73984 0.65121 0.47653 0.0
H682 H 0.70078 0.62371 0.49549 0.0
H683 H 0.51401 0.66181 0.46899 0.0
H684 H 0.52131 0.64747 0.43301 0.0
H685 H 0.67962 0.68314 0.44024 0.0
C686 C 0.6609 0.72967 0.51804 0.0
C687 C 0.62331 0.74027 0.5306 0.0
C688 C 0.57228 0.7322 0.5242 0.0
C689 C 0.55892 0.70946 0.5063 0.0
C690 C 0.59697 0.69738 0.49453 0.0
C691 C 0.64667 0.70906 0.4997 0.0
C692 C 0.67877 0.70064 0.48261 0.0
C693 C 0.70298 0.75047 0.47457 0.0
C694 C 0.71862 0.65936 0.48953 0.0
C695 C 0.63931 0.68278 0.46704 0.0
C696 C 0.59278 0.67918 0.47457 0.0
C697 C 0.55022 0.66441 0.46289 0.0
C698 C 0.55476 0.65579 0.44258 0.0
C699 C 0.60109 0.66368 0.43412 0.0
C700 C 0.64409 0.67591 0.44661 0.0
H701 H 0.59598 0.37122 0.77546 0.0
H702 H 0.62685 0.22632 0.81037 0.0
H703 H 0.65136 0.19074 0.77967 0.0
H704 H 0.53826 0.32312 0.73211 0.0
H705 H 0.5632 0.36937 0.71389 0.0
H706 H 0.55511 0.38517 0.7392 0.0
H707 H 0.64941 0.40916 0.74398 0.0
H708 H 0.65712 0.3934 0.71857 0.0
H709 H 0.69651 0.3636 0.73998 0.0
H710 H 0.6627 0.16834 0.74516 0.0
H711 H 0.67141 0.16239 0.70871 0.0
H712 H 0.63235 0.32145 0.6952 0.0
C713 C 0.60977 0.33264 0.7766 0.0
C714 C 0.61112 0.30165 0.79522 0.0
C715 C 0.62762 0.25086 0.79633 0.0
C716 C 0.64077 0.23023 0.77893 0.0
C717 C 0.63695 0.26105 0.76057 0.0
C718 C 0.62278 0.31139 0.75927 0.0
C719 C 0.61937 0.33519 0.73737 0.0
C720 C 0.56579 0.3543 0.73023 0.0
C721 C 0.65791 0.37786 0.73483 0.0
C722 C 0.63286 0.29001 0.72659 0.0
C723 C 0.64272 0.24772 0.74034 0.0
C724 C 0.65552 0.20121 0.73423 0.0
C725 C 0.66006 0.19815 0.71353 0.0
C726 C 0.65166 0.24126 0.69922 0.0
C727 C 0.63734 0.28763 0.70579 0.0
H728 H 0.99492 0.69425 0.97441 0.0
H729 H 0.1458 0.69366 0.95609 0.0
H730 H 0.18017 0.69796 0.99215 0.0
H731 H 0.01763 0.78577 0.01039 0.0
H732 H 0.97531 0.75651 0.02769 0.0
H733 H 0.96478 0.75004 1.00084 0.0
H734 H 0.96499 0.65232 0.00894 0.0
H735 H 0.97698 0.65861 0.03582 0.0
H736 H 0.01874 0.62129 0.02333 0.0
H737 H 0.19676 0.70098 0.03065 0.0
H738 H 0.19465 0.72046 0.06647 0.0
H739 H 0.03221 0.7253 0.05841 0.0
C740 C 0.03513 0.69591 0.9781 0.0
C741 C 0.06803 0.6947 0.96276 0.0
C742 C 0.12044 0.69569 0.96784 0.0
C743 C 0.14002 0.69738 0.98821 0.0
C744 C 0.10642 0.69811 0.00315 0.0
C745 C 0.05504 0.69853 0.99821 0.0
C746 C 0.02673 0.70338 0.01666 0.0
C747 C 0.99423 0.75181 0.01372 0.0
C748 C 0.99499 0.65608 0.02146 0.0
C749 C 0.07013 0.70672 0.03277 0.0
C750 C 0.11584 0.70198 0.02489 0.0
C751 C 0.16119 0.70471 0.03696 0.0
C752 C 0.15969 0.71522 0.05731 0.0
C753 C 0.11326 0.724 0.06503 0.0
C754 C 0.06809 0.71812 0.05282 0.0
H755 H 0.66331 0.71547 0.21109 0.0
H756 H 0.73087 0.85693 0.22506 0.0
H757 H 0.73554 0.82792 0.26203 0.0
H758 H 0.58305 0.71011 0.24541 0.0
H759 H 0.58408 0.64284 0.25277 0.0
H760 H 0.60099 0.66668 0.22802 0.0
H761 H 0.68729 0.62119 0.23497 0.0
H762 H 0.67033 0.59589 0.25972 0.0
H763 H 0.72745 0.63139 0.25757 0.0
H764 H 0.71139 0.79364 0.29629 0.0
H765 H 0.66629 0.75548 0.32476 0.0
H766 H 0.61558 0.63426 0.28878 0.0
C767 C 0.68191 0.73864 0.22204 0.0
C768 C 0.69798 0.78759 0.21555 0.0
C769 C 0.71985 0.81871 0.22997 0.0
C770 C 0.72234 0.80252 0.25091 0.0
C771 C 0.70324 0.75493 0.25699 0.0
C772 C 0.68441 0.72292 0.24289 0.0
C773 C 0.6587 0.67761 0.25304 0.0
C774 C 0.60347 0.67418 0.2443 0.0
C775 C 0.68769 0.62861 0.25122 0.0
C776 C 0.66275 0.69078 0.27484 0.0
C777 C 0.68948 0.7349 0.27694 0.0
C778 C 0.69215 0.75804 0.29502 0.0
C779 C 0.66655 0.73587 0.31122 0.0
C780 C 0.63852 0.69102 0.30926 0.0
C781 C 0.63766 0.66786 0.29094 0.0
H782 H 0.61068 0.23024 0.46754 0.0
H783 H 0.47024 0.15216 0.47472 0.0
H784 H 0.47792 0.16419 0.51145 0.0
H785 H 0.67499 0.18353 0.51486 0.0
H786 H 0.70542 0.24214 0.51998 0.0
H787 H 0.68865 0.22908 0.49403 0.0
H788 H 0.63703 0.31247 0.48701 0.0
H789 H 0.65453 0.32634 0.51282 0.0
H790 H 0.58918 0.32466 0.50344 0.0
H791 H 0.50359 0.1787 0.54751 0.0
H792 H 0.53885 0.20756 0.58023 0.0
H793 H 0.66061 0.28071 0.55001 0.0
C794 C 0.58129 0.21671 0.47688 0.0
C795 C 0.54013 0.18976 0.46855 0.0
C796 C 0.50221 0.17236 0.48106 0.0
C797 C 0.50636 0.1789 0.50186 0.0
C798 C 0.54829 0.20384 0.50986 0.0
C799 C 0.5845 0.22368 0.49773 0.0
C800 C 0.62512 0.24995 0.51026 0.0
C801 C 0.67659 0.22465 0.50975 0.0
C802 C 0.62653 0.30673 0.50295 0.0
C803 C 0.60641 0.24101 0.53131 0.0
C804 C 0.56233 0.21375 0.53071 0.0
C805 C 0.53809 0.20006 0.5482 0.0
C806 C 0.55873 0.21582 0.56675 0.0
C807 C 0.60304 0.24481 0.56763 0.0
C808 C 0.62718 0.2576 0.54971 0.0
H809 H 0.194 0.35397 0.74022 0.0
H810 H 0.21983 0.21789 0.71199 0.0
H811 H 0.2221 0.16763 0.74562 0.0
H812 H 0.26685 0.30873 0.79357 0.0
H813 H 0.22097 0.34034 0.80623 0.0
H814 H 0.23845 0.36718 0.78174 0.0
H815 H 0.1448 0.36864 0.7676 0.0
H816 H 0.12708 0.34114 0.79175 0.0
H817 H 0.10964 0.31055 0.76902 0.0
H818 H 0.19528 0.13092 0.77874 0.0
H819 H 0.15039 0.11137 0.80958 0.0
H820 H 0.14516 0.27075 0.81794 0.0
C821 C 0.20334 0.31407 0.74152 0.0
C822 C 0.2076 0.28959 0.72376 0.0
C823 C 0.21776 0.23714 0.72557 0.0
C824 C 0.21881 0.20843 0.74461 0.0
C825 C 0.21075 0.23307 0.76174 0.0
C826 C 0.20478 0.2851 0.76051 0.0
C827 C 0.18916 0.30145 0.7804 0.0
C828 C 0.23137 0.33119 0.79111 0.0
C829 C 0.13975 0.3322 0.77697 0.0
C830 C 0.18236 0.25037 0.79222 0.0
C831 C 0.19628 0.21143 0.7814 0.0
C832 C 0.18622 0.161 0.78772 0.0
C833 C 0.16049 0.1502 0.80518 0.0
C834 C 0.14551 0.18952 0.81627 0.0
C835 C 0.15795 0.24001 0.81007 0.0
loop_
_geom_bond_atom_site_label_1
_geom_bond_atom_site_label_2
_geom_bond_distance
_geom_bond_site_symmetry_2
_ccdc_geom_bond_type
C0 N1 1.317 . S
C0 N2 1.348 . S
C0 C3 1.485 . S
N1 C0 1.317 . S
N1 N5 1.370 . S
N2 C0 1.348 . S
N2 C4 1.346 . S
C3 C0 1.485 . S
C3 H7 0.960 . S
C3 H8 0.961 . S
C3 H9 0.960 . S
C4 N2 1.346 . S
C4 N5 1.307 . S
C4 C6 1.486 . S
N5 N1 1.370 . S
N5 C4 1.307 . S
C6 C4 1.486 . S
C6 H10 0.960 . S
C6 H11 0.960 . S
C6 H12 0.959 . S
H7 C3 0.960 . S
H8 C3 0.961 . S
H9 C3 0.960 . S
H10 C6 0.960 . S
H11 C6 0.960 . S
H12 C6 0.959 . S
C13 N14 1.317 . S
C13 N15 1.348 . S
C13 C16 1.485 . S
N14 C13 1.317 . S
N14 N18 1.370 . S
N15 C13 1.348 . S
N15 C17 1.346 . S
C16 C13 1.485 . S
C16 H20 0.960 . S
C16 H21 0.961 . S
C16 H22 0.960 . S
C17 N15 1.346 . S
C17 N18 1.307 . S
C17 C19 1.486 . S
N18 N14 1.370 . S
N18 C17 1.307 . S
C19 C17 1.486 . S
C19 H23 0.960 1_455 S
C19 H24 0.960 1_455 S
C19 H25 0.959 . S
H20 C16 0.960 . S
H21 C16 0.961 . S
H22 C16 0.960 . S
H23 C19 0.960 1_655 S
H24 C19 0.960 1_655 S
H25 C19 0.959 . S
C26 N27 1.317 . S
C26 N28 1.348 . S
C26 C29 1.485 . S
N27 C26 1.317 . S
N27 N31 1.370 . S
N28 C26 1.348 . S
N28 C30 1.346 . S
C29 C26 1.485 . S
C29 H33 0.960 . S
C29 H34 0.961 . S
C29 H35 0.960 . S
C30 N28 1.346 . S
C30 N31 1.307 . S
C30 C32 1.486 . S
N31 N27 1.370 . S
N31 C30 1.307 . S
C32 C30 1.486 . S
C32 H36 0.960 . S
C32 H37 0.960 . S
C32 H38 0.959 . S
H33 C29 0.960 . S
H34 C29 0.961 . S
H35 C29 0.960 . S
H36 C32 0.960 . S
H37 C32 0.960 . S
H38 C32 0.959 . S
C39 N40 1.317 . S
C39 N41 1.348 . S
C39 C42 1.485 . S
N40 C39 1.317 . S
N40 N44 1.370 . S
N41 C39 1.348 . S
N41 C43 1.346 . S
C42 C39 1.485 . S
C42 H46 0.960 . S
C42 H47 0.961 . S
C42 H48 0.960 . S
C43 N41 1.346 . S
C43 N44 1.307 . S
C43 C45 1.486 . S
N44 N40 1.370 . S
N44 C43 1.307 . S
C45 C43 1.486 . S
C45 H49 0.960 . S
C45 H50 0.960 . S
C45 H51 0.959 . S
H46 C42 0.960 . S
H47 C42 0.961 . S
H48 C42 0.960 . S
H49 C45 0.960 . S
H50 C45 0.960 . S
H51 C45 0.959 . S
C52 N53 1.317 . S
C52 N54 1.348 . S
C52 C55 1.485 . S
N53 C52 1.317 . S
N53 N57 1.370 . S
N54 C52 1.348 . S
N54 C56 1.346 . S
C55 C52 1.485 . S
C55 H59 0.960 . S
C55 H60 0.961 . S
C55 H61 0.960 . S
C56 N54 1.346 . S
C56 N57 1.307 . S
C56 C58 1.486 . S
N57 N53 1.370 . S
N57 C56 1.307 . S
C58 C56 1.486 . S
C58 H62 0.960 . S
C58 H63 0.960 . S
C58 H64 0.959 . S
H59 C55 0.960 . S
H60 C55 0.961 . S
H61 C55 0.960 . S
H62 C58 0.960 . S
H63 C58 0.960 . S
H64 C58 0.959 . S
C65 N66 1.317 . S
C65 N67 1.348 . S
C65 C68 1.485 . S
N66 C65 1.317 . S
N66 N70 1.370 . S
N67 C65 1.348 . S
N67 C69 1.346 . S
C68 C65 1.485 . S
C68 H72 0.960 . S
C68 H73 0.961 . S
C68 H74 0.960 . S
C69 N67 1.346 . S
C69 N70 1.307 . S
C69 C71 1.486 . S
N70 N66 1.370 . S
N70 C69 1.307 . S
C71 C69 1.486 . S
C71 H75 0.960 . S
C71 H76 0.960 . S
C71 H77 0.959 . S
H72 C68 0.960 . S
H73 C68 0.961 . S
H74 C68 0.960 . S
H75 C71 0.960 . S
H76 C71 0.960 . S
H77 C71 0.959 . S
C78 N79 1.317 . S
C78 N80 1.348 . S
C78 C81 1.485 . S
N79 C78 1.317 . S
N79 N83 1.370 . S
N80 C78 1.348 . S
N80 C82 1.346 . S
C81 C78 1.485 . S
C81 H85 0.960 . S
C81 H86 0.961 . S
C81 H87 0.960 . S
C82 N80 1.346 . S
C82 N83 1.307 . S
C82 C84 1.486 . S
N83 N79 1.370 . S
N83 C82 1.307 . S
C84 C82 1.486 . S
C84 H88 0.960 . S
C84 H89 0.960 . S
C84 H90 0.959 . S
H85 C81 0.960 . S
H86 C81 0.961 . S
H87 C81 0.960 . S
H88 C84 0.960 . S
H89 C84 0.960 . S
H90 C84 0.959 . S
C91 N92 1.317 . S
C91 N93 1.348 . S
C91 C94 1.485 . S
N92 C91 1.317 . S
N92 N96 1.370 . S
N93 C91 1.348 . S
N93 C95 1.346 . S
C94 C91 1.485 . S
C94 H98 0.960 . S
C94 H99 0.961 . S
C94 H100 0.960 . S
C95 N93 1.346 . S
C95 N96 1.307 . S
C95 C97 1.486 . S
N96 N92 1.370 . S
N96 C95 1.307 . S
C97 C95 1.486 . S
C97 H101 0.960 . S
C97 H102 0.960 . S
C97 H103 0.959 . S
H98 C94 0.960 . S
H99 C94 0.961 . S
H100 C94 0.960 . S
H101 C97 0.960 . S
H102 C97 0.960 . S
H103 C97 0.959 . S
Zn104 O110 1.920 . S
Zn104 O116 1.898 . S
Zn104 O119 1.905 . S
Zn105 O113 1.905 . S
Zn105 O114 1.898 . S
Zn105 O122 1.920 1_455 S
Zn106 O109 2.080 . S
Zn106 O112 2.114 . S
Zn106 O115 2.120 . S
Zn106 O117 2.120 . S
Zn106 O118 2.114 . S
Zn106 O121 2.080 . S
C107 O112 1.166 . S
C107 O113 1.182 . S
C108 O114 1.167 . S
C108 O115 1.299 . S
O109 Zn106 2.080 . S
O109 C123 1.305 . S
O110 Zn104 1.920 . S
O110 C123 1.234 . S
C111 O116 1.167 . S
C111 O117 1.299 . S
O112 Zn106 2.114 . S
O112 C107 1.166 . S
O113 Zn105 1.905 . S
O113 C107 1.182 . S
O114 Zn105 1.898 . S
O114 C108 1.167 . S
O115 Zn106 2.120 . S
O115 C108 1.299 . S
O116 Zn104 1.898 . S
O116 C111 1.167 . S
O117 Zn106 2.120 . S
O117 C111 1.299 . S
O118 Zn106 2.114 . S
O118 C120 1.166 . S
O119 Zn104 1.905 . S
O119 C120 1.182 . S
C120 O118 1.166 . S
C120 O119 1.182 . S
O121 Zn106 2.080 . S
O121 C124 1.305 . S
O122 Zn105 1.920 1_655 S
O122 C124 1.234 1_655 S
C123 O109 1.305 . S
C123 O110 1.234 . S
C124 O121 1.305 . S
C124 O122 1.234 1_455 S
Zn125 O131 1.920 . S
Zn125 O137 1.898 . S
Zn125 O140 1.905 . S
Zn126 O134 1.905 . S
Zn126 O135 1.898 . S
Zn126 O143 1.920 . S
Zn127 O130 2.080 . S
Zn127 O133 2.114 . S
Zn127 O136 2.120 . S
Zn127 O138 2.120 . S
Zn127 O139 2.114 . S
Zn127 O142 2.080 . S
C128 O133 1.166 . S
C128 O134 1.182 . S
C129 O135 1.167 . S
C129 O136 1.299 . S
O130 Zn127 2.080 . S
O130 C144 1.305 . S
O131 Zn125 1.920 . S
O131 C144 1.234 . S
C132 O137 1.167 . S
C132 O138 1.299 . S
O133 Zn127 2.114 . S
O133 C128 1.166 . S
O134 Zn126 1.905 . S
O134 C128 1.182 . S
O135 Zn126 1.898 . S
O135 C129 1.167 . S
O136 Zn127 2.120 . S
O136 C129 1.299 . S
O137 Zn125 1.898 . S
O137 C132 1.167 . S
O138 Zn127 2.120 . S
O138 C132 1.299 . S
O139 Zn127 2.114 . S
O139 C141 1.166 . S
O140 Zn125 1.905 . S
O140 C141 1.182 . S
C141 O139 1.166 . S
C141 O140 1.182 . S
O142 Zn127 2.080 . S
O142 C145 1.305 . S
O143 Zn126 1.920 . S
O143 C145 1.234 . S
C144 O130 1.305 . S
C144 O131 1.234 . S
C145 O142 1.305 . S
C145 O143 1.234 . S
Zn146 O152 1.920 . S
Zn146 O158 1.898 . S
Zn146 O161 1.905 . S
Zn147 O155 1.905 . S
Zn147 O156 1.898 . S
Zn147 O164 1.920 . S
Zn148 O151 2.080 . S
Zn148 O154 2.114 . S
Zn148 O157 2.120 . S
Zn148 O159 2.120 . S
Zn148 O160 2.114 . S
Zn148 O163 2.080 . S
C149 O154 1.166 . S
C149 O155 1.182 . S
C150 O156 1.167 . S
C150 O157 1.299 . S
O151 Zn148 2.080 . S
O151 C165 1.305 . S
O152 Zn146 1.920 . S
O152 C165 1.234 . S
C153 O158 1.167 . S
C153 O159 1.299 . S
O154 Zn148 2.114 . S
O154 C149 1.166 . S
O155 Zn147 1.905 . S
O155 C149 1.182 . S
O156 Zn147 1.898 . S
O156 C150 1.167 . S
O157 Zn148 2.120 . S
O157 C150 1.299 . S
O158 Zn146 1.898 . S
O158 C153 1.167 . S
O159 Zn148 2.120 . S
O159 C153 1.299 . S
O160 Zn148 2.114 . S
O160 C162 1.166 . S
O161 Zn146 1.905 . S
O161 C162 1.182 . S
C162 O160 1.166 . S
C162 O161 1.182 . S
O163 Zn148 2.080 . S
O163 C166 1.305 . S
O164 Zn147 1.920 . S
O164 C166 1.234 . S
C165 O151 1.305 . S
C165 O152 1.234 . S
C166 O163 1.305 . S
C166 O164 1.234 . S
Zn167 O173 1.920 . S
Zn167 O179 1.898 . S
Zn167 O182 1.905 1_455 S
Zn168 O176 1.905 . S
Zn168 O177 1.898 . S
Zn168 O185 1.920 . S
Zn169 O172 2.080 . S
Zn169 O175 2.114 . S
Zn169 O178 2.120 . S
Zn169 O180 2.120 . S
Zn169 O181 2.114 . S
Zn169 O184 2.080 . S
C170 O175 1.166 . S
C170 O176 1.182 . S
C171 O177 1.167 . S
C171 O178 1.299 . S
O172 Zn169 2.080 . S
O172 C186 1.305 . S
O173 Zn167 1.920 . S
O173 C186 1.234 . S
C174 O179 1.167 . S
C174 O180 1.299 . S
O175 Zn169 2.114 . S
O175 C170 1.166 . S
O176 Zn168 1.905 . S
O176 C170 1.182 . S
O177 Zn168 1.898 . S
O177 C171 1.167 . S
O178 Zn169 2.120 . S
O178 C171 1.299 . S
O179 Zn167 1.898 . S
O179 C174 1.167 . S
O180 Zn169 2.120 . S
O180 C174 1.299 . S
O181 Zn169 2.114 . S
O181 C183 1.172 . S
O182 Zn167 1.905 1_655 S
O182 C183 1.180 1_655 S
C183 O181 1.172 . S
C183 O182 1.180 1_455 S
O184 Zn169 2.080 . S
O184 C187 1.305 . S
O185 Zn168 1.920 . S
O185 C187 1.234 . S
C186 O172 1.305 . S
C186 O173 1.234 . S
C187 O184 1.305 . S
C187 O185 1.234 . S
H188 C200 0.930 . S
H189 C202 0.930 . S
H190 C203 0.930 . S
H191 C207 0.959 . S
H192 C207 0.959 . S
H193 C207 0.961 . S
H194 C208 0.960 . S
H195 C208 0.961 . S
H196 C208 0.959 . S
H197 C211 0.929 . S
H198 C212 0.931 . S
H199 C214 0.930 . S
C200 H188 0.930 . S
C200 C201 1.399 . S
C200 C205 1.399 . S
C201 C200 1.399 . S
C201 C202 1.376 . S
C202 H189 0.930 . S
C202 C201 1.376 . S
C202 C203 1.388 . S
C203 H190 0.930 . S
C203 C202 1.388 . S
C203 C204 1.390 . S
C204 C203 1.390 . S
C204 C205 1.394 . S
C204 C210 1.465 . S
C205 C200 1.399 . S
C205 C204 1.394 . S
C205 C206 1.516 . S
C206 C205 1.516 . S
C206 C207 1.502 . S
C206 C208 1.561 . S
C206 C209 1.526 . S
C207 H191 0.959 . S
C207 H192 0.959 . S
C207 H193 0.961 . S
C207 C206 1.502 . S
C208 H194 0.960 . S
C208 H195 0.961 . S
C208 H196 0.959 . S
C208 C206 1.561 . S
C209 C206 1.526 . S
C209 C210 1.396 . S
C209 C214 1.390 . S
C210 C204 1.465 . S
C210 C209 1.396 . S
C210 C211 1.399 . S
C211 H197 0.929 . S
C211 C210 1.399 . S
C211 C212 1.385 . S
C212 H198 0.931 . S
C212 C211 1.385 . S
C212 C213 1.389 . S
C213 C212 1.389 . S
C213 C214 1.387 . S
C214 H199 0.930 . S
C214 C209 1.390 . S
C214 C213 1.387 . S
H215 C227 0.930 . S
H216 C229 0.930 1_455 S
H217 C230 0.930 . S
H218 C234 0.959 . S
H219 C234 0.959 . S
H220 C234 0.961 . S
H221 C235 0.960 . S
H222 C235 0.961 . S
H223 C235 0.959 . S
H224 C238 0.929 . S
H225 C239 0.931 . S
H226 C241 0.930 . S
C227 H215 0.930 . S
C227 C228 1.399 1_655 S
C227 C232 1.399 . S
C228 C227 1.399 1_455 S
C228 C229 1.376 1_455 S
C229 H216 0.930 1_655 S
C229 C228 1.376 1_655 S
C229 C230 1.388 . S
C230 H217 0.930 . S
C230 C229 1.388 . S
C230 C231 1.390 . S
C231 C230 1.390 . S
C231 C232 1.394 . S
C231 C237 1.465 . S
C232 C227 1.399 . S
C232 C231 1.394 . S
C232 C233 1.516 . S
C233 C232 1.516 . S
C233 C234 1.502 . S
C233 C235 1.561 . S
C233 C236 1.526 . S
C234 H218 0.959 . S
C234 H219 0.959 . S
C234 H220 0.961 . S
C234 C233 1.502 . S
C235 H221 0.960 . S
C235 H222 0.961 . S
C235 H223 0.959 . S
C235 C233 1.561 . S
C236 C233 1.526 . S
C236 C237 1.396 . S
C236 C241 1.390 . S
C237 C231 1.465 . S
C237 C236 1.396 . S
C237 C238 1.399 . S
C238 H224 0.929 . S
C238 C237 1.399 . S
C238 C239 1.385 . S
C239 H225 0.931 . S
C239 C238 1.385 . S
C239 C240 1.389 . S
C240 C239 1.389 . S
C240 C241 1.387 . S
C241 H226 0.930 . S
C241 C236 1.390 . S
C241 C240 1.387 . S
H242 C254 0.930 . S
H243 C256 0.930 . S
H244 C257 0.930 . S
H245 C261 0.959 . S
H246 C261 0.959 . S
H247 C261 0.961 . S
H248 C262 0.960 . S
H249 C262 0.961 . S
H250 C262 0.959 . S
H251 C265 0.929 . S
H252 C266 0.931 . S
H253 C268 0.930 . S
C254 H242 0.930 . S
C254 C255 1.399 . S
C254 C259 1.399 . S
C255 C254 1.399 . S
C255 C256 1.376 . S
C256 H243 0.930 . S
C256 C255 1.376 . S
C256 C257 1.388 . S
C257 H244 0.930 . S
C257 C256 1.388 . S
C257 C258 1.390 . S
C258 C257 1.390 . S
C258 C259 1.394 . S
C258 C264 1.465 . S
C259 C254 1.399 . S
C259 C258 1.394 . S
C259 C260 1.516 . S
C260 C259 1.516 . S
C260 C261 1.502 . S
C260 C262 1.561 . S
C260 C263 1.526 . S
C261 H245 0.959 . S
C261 H246 0.959 . S
C261 H247 0.961 . S
C261 C260 1.502 . S
C262 H248 0.960 . S
C262 H249 0.961 . S
C262 H250 0.959 . S
C262 C260 1.561 . S
C263 C260 1.526 . S
C263 C264 1.396 . S
C263 C268 1.390 . S
C264 C258 1.465 . S
C264 C263 1.396 . S
C264 C265 1.399 . S
C265 H251 0.929 . S
C265 C264 1.399 . S
C265 C266 1.385 . S
C266 H252 0.931 . S
C266 C265 1.385 . S
C266 C267 1.389 . S
C267 C266 1.389 . S
C267 C268 1.387 . S
C268 H253 0.930 . S
C268 C263 1.390 . S
C268 C267 1.387 . S
H269 C281 0.930 . S
H270 C283 0.930 . S
H271 C284 0.930 . S
H272 C288 0.959 . S
H273 C288 0.959 . S
H274 C288 0.961 . S
H275 C289 0.960 . S
H276 C289 0.961 . S
H277 C289 0.959 . S
H278 C292 0.929 . S
H279 C293 0.931 . S
H280 C295 0.930 . S
C281 H269 0.930 . S
C281 C282 1.399 . S
C281 C286 1.399 . S
C282 C281 1.399 . S
C282 C283 1.376 . S
C283 H270 0.930 . S
C283 C282 1.376 . S
C283 C284 1.388 . S
C284 H271 0.930 . S
C284 C283 1.388 . S
C284 C285 1.390 . S
C285 C284 1.390 . S
C285 C286 1.394 . S
C285 C291 1.465 . S
C286 C281 1.399 . S
C286 C285 1.394 . S
C286 C287 1.516 . S
C287 C286 1.516 . S
C287 C288 1.502 . S
C287 C289 1.561 . S
C287 C290 1.526 . S
C288 H272 0.959 . S
C288 H273 0.959 . S
C288 H274 0.961 . S
C288 C287 1.502 . S
C289 H275 0.960 . S
C289 H276 0.961 . S
C289 H277 0.959 . S
C289 C287 1.561 . S
C290 C287 1.526 . S
C290 C291 1.396 . S
C290 C295 1.390 . S
C291 C285 1.465 . S
C291 C290 1.396 . S
C291 C292 1.399 . S
C292 H278 0.929 . S
C292 C291 1.399 . S
C292 C293 1.385 . S
C293 H279 0.931 . S
C293 C292 1.385 . S
C293 C294 1.389 . S
C294 C293 1.389 . S
C294 C295 1.387 . S
C295 H280 0.930 . S
C295 C290 1.390 . S
C295 C294 1.387 . S
H296 C308 0.930 . S
H297 C310 0.930 . S
H298 C311 0.930 . S
H299 C315 0.959 . S
H300 C315 0.959 . S
H301 C315 0.961 . S
H302 C316 0.961 . S
H303 C316 0.961 . S
H304 C316 0.959 1_655 S
H305 C319 0.929 . S
H306 C320 0.931 . S
H307 C322 0.930 . S
C308 H296 0.930 . S
C308 C309 1.399 . S
C308 C313 1.399 . S
C309 C308 1.399 . S
C309 C310 1.376 . S
C310 H297 0.930 . S
C310 C309 1.376 . S
C310 C311 1.388 . S
C311 H298 0.930 . S
C311 C310 1.388 . S
C311 C312 1.390 . S
C312 C311 1.390 . S
C312 C313 1.394 . S
C312 C318 1.465 . S
C313 C308 1.399 . S
C313 C312 1.394 . S
C313 C314 1.516 . S
C314 C313 1.516 . S
C314 C315 1.502 . S
C314 C316 1.561 . S
C314 C317 1.526 . S
C315 H299 0.959 . S
C315 H300 0.959 . S
C315 H301 0.961 . S
C315 C314 1.502 . S
C316 H302 0.961 . S
C316 H303 0.961 . S
C316 H304 0.959 1_455 S
C316 C314 1.561 . S
C317 C314 1.526 . S
C317 C318 1.396 . S
C317 C322 1.390 . S
C318 C312 1.465 . S
C318 C317 1.396 . S
C318 C319 1.399 . S
C319 H305 0.929 . S
C319 C318 1.399 . S
C319 C320 1.385 . S
C320 H306 0.931 . S
C320 C319 1.385 . S
C320 C321 1.389 . S
C321 C320 1.389 . S
C321 C322 1.387 . S
C322 H307 0.930 . S
C322 C317 1.390 . S
C322 C321 1.387 . S
H323 C335 0.930 . S
H324 C337 0.930 . S
H325 C338 0.930 . S
H326 C342 0.959 . S
H327 C342 0.959 . S
H328 C342 0.961 . S
H329 C343 0.960 . S
H330 C343 0.961 . S
H331 C343 0.959 . S
H332 C346 0.929 . S
H333 C347 0.931 . S
H334 C349 0.930 . S
C335 H323 0.930 . S
C335 C336 1.399 . S
C335 C340 1.399 . S
C336 C335 1.399 . S
C336 C337 1.376 . S
C337 H324 0.930 . S
C337 C336 1.376 . S
C337 C338 1.388 . S
C338 H325 0.930 . S
C338 C337 1.388 . S
C338 C339 1.390 . S
C339 C338 1.390 . S
C339 C340 1.394 . S
C339 C345 1.465 . S
C340 C335 1.399 . S
C340 C339 1.394 . S
C340 C341 1.516 . S
C341 C340 1.516 . S
C341 C342 1.502 . S
C341 C343 1.561 . S
C341 C344 1.526 . S
C342 H326 0.959 . S
C342 H327 0.959 . S
C342 H328 0.961 . S
C342 C341 1.502 . S
C343 H329 0.960 . S
C343 H330 0.961 . S
C343 H331 0.959 . S
C343 C341 1.561 . S
C344 C341 1.526 . S
C344 C345 1.396 . S
C344 C349 1.390 . S
C345 C339 1.465 . S
C345 C344 1.396 . S
C345 C346 1.399 . S
C346 H332 0.929 . S
C346 C345 1.399 . S
C346 C347 1.385 . S
C347 H333 0.931 . S
C347 C346 1.385 . S
C347 C348 1.389 . S
C348 C347 1.389 . S
C348 C349 1.387 . S
C349 H334 0.930 . S
C349 C344 1.390 . S
C349 C348 1.387 . S
H350 C362 0.930 . S
H351 C364 0.930 . S
H352 C365 0.930 . S
H353 C369 0.959 . S
H354 C369 0.959 . S
H355 C369 0.961 . S
H356 C370 0.960 . S
H357 C370 0.961 . S
H358 C370 0.959 . S
H359 C373 0.929 . S
H360 C374 0.931 . S
H361 C376 0.930 . S
C362 H350 0.930 . S
C362 C363 1.399 . S
C362 C367 1.399 . S
C363 C362 1.399 . S
C363 C364 1.376 . S
C364 H351 0.930 . S
C364 C363 1.376 . S
C364 C365 1.388 . S
C365 H352 0.930 . S
C365 C364 1.388 . S
C365 C366 1.390 . S
C366 C365 1.390 . S
C366 C367 1.394 . S
C366 C372 1.465 . S
C367 C362 1.399 . S
C367 C366 1.394 . S
C367 C368 1.516 . S
C368 C367 1.516 . S
C368 C369 1.502 . S
C368 C370 1.561 . S
C368 C371 1.526 . S
C369 H353 0.959 . S
C369 H354 0.959 . S
C369 H355 0.961 . S
C369 C368 1.502 . S
C370 H356 0.960 . S
C370 H357 0.961 . S
C370 H358 0.959 . S
C370 C368 1.561 . S
C371 C368 1.526 . S
C371 C372 1.396 . S
C371 C376 1.390 . S
C372 C366 1.465 . S
C372 C371 1.396 . S
C372 C373 1.399 . S
C373 H359 0.929 . S
C373 C372 1.399 . S
C373 C374 1.385 . S
C374 H360 0.931 . S
C374 C373 1.385 . S
C374 C375 1.389 . S
C375 C374 1.389 . S
C375 C376 1.387 . S
C376 H361 0.930 . S
C376 C371 1.390 . S
C376 C375 1.387 . S
H377 C389 0.930 1_455 S
H378 C391 0.930 . S
H379 C392 0.930 . S
H380 C396 0.959 . S
H381 C396 0.959 . S
H382 C396 0.961 . S
H383 C397 0.960 . S
H384 C397 0.961 . S
H385 C397 0.959 . S
H386 C400 0.929 . S
H387 C401 0.931 . S
H388 C403 0.930 . S
C389 H377 0.930 1_655 S
C389 C390 1.399 1_655 S
C389 C394 1.399 . S
C390 C389 1.399 1_455 S
C390 C391 1.376 . S
C391 H378 0.930 . S
C391 C390 1.376 . S
C391 C392 1.388 1_455 S
C392 H379 0.930 . S
C392 C391 1.388 1_655 S
C392 C393 1.390 . S
C393 C392 1.390 . S
C393 C394 1.394 . S
C393 C399 1.465 . S
C394 C389 1.399 . S
C394 C393 1.394 . S
C394 C395 1.516 . S
C395 C394 1.516 . S
C395 C396 1.502 . S
C395 C397 1.561 . S
C395 C398 1.526 . S
C396 H380 0.959 . S
C396 H381 0.959 . S
C396 H382 0.961 . S
C396 C395 1.502 . S
C397 H383 0.960 . S
C397 H384 0.961 . S
C397 H385 0.959 . S
C397 C395 1.561 . S
C398 C395 1.526 . S
C398 C399 1.396 . S
C398 C403 1.390 . S
C399 C393 1.465 . S
C399 C398 1.396 . S
C399 C400 1.399 . S
C400 H386 0.929 . S
C400 C399 1.399 . S
C400 C401 1.385 . S
C401 H387 0.931 . S
C401 C400 1.385 . S
C401 C402 1.389 . S
C402 C401 1.389 . S
C402 C403 1.387 . S
C403 H388 0.930 . S
C403 C398 1.390 . S
C403 C402 1.387 . S
H404 C416 0.930 . S
H405 C418 0.930 . S
H406 C419 0.930 . S
H407 C423 0.959 . S
H408 C423 0.959 . S
H409 C423 0.961 . S
H410 C424 0.960 . S
H411 C424 0.961 . S
H412 C424 0.959 . S
H413 C427 0.929 . S
H414 C428 0.931 . S
H415 C430 0.930 . S
C416 H404 0.930 . S
C416 C417 1.399 . S
C416 C421 1.399 . S
C417 C416 1.399 . S
C417 C418 1.376 . S
C418 H405 0.930 . S
C418 C417 1.376 . S
C418 C419 1.388 . S
C419 H406 0.930 . S
C419 C418 1.388 . S
C419 C420 1.390 . S
C420 C419 1.390 . S
C420 C421 1.394 . S
C420 C426 1.465 . S
C421 C416 1.399 . S
C421 C420 1.394 . S
C421 C422 1.516 . S
C422 C421 1.516 . S
C422 C423 1.502 . S
C422 C424 1.561 . S
C422 C425 1.526 . S
C423 H407 0.959 . S
C423 H408 0.959 . S
C423 H409 0.961 . S
C423 C422 1.502 . S
C424 H410 0.960 . S
C424 H411 0.961 . S
C424 H412 0.959 . S
C424 C422 1.561 . S
C425 C422 1.526 . S
C425 C426 1.396 . S
C425 C430 1.390 . S
C426 C420 1.465 . S
C426 C425 1.396 . S
C426 C427 1.399 . S
C427 H413 0.929 . S
C427 C426 1.399 . S
C427 C428 1.385 . S
C428 H414 0.931 . S
C428 C427 1.385 . S
C428 C429 1.389 . S
C429 C428 1.389 . S
C429 C430 1.387 . S
C430 H415 0.930 . S
C430 C425 1.390 . S
C430 C429 1.387 . S
H431 C443 0.930 . S
H432 C445 0.930 . S
H433 C446 0.930 . S
H434 C450 0.959 . S
H435 C450 0.959 . S
H436 C450 0.961 . S
H437 C451 0.960 . S
H438 C451 0.961 . S
H439 C451 0.959 . S
H440 C454 0.929 . S
H441 C455 0.931 . S
H442 C457 0.930 . S
C443 H431 0.930 . S
C443 C444 1.399 . S
C443 C448 1.399 . S
C444 C443 1.399 . S
C444 C445 1.376 . S
C445 H432 0.930 . S
C445 C444 1.376 . S
C445 C446 1.388 . S
C446 H433 0.930 . S
C446 C445 1.388 . S
C446 C447 1.390 . S
C447 C446 1.390 . S
C447 C448 1.394 . S
C447 C453 1.465 . S
C448 C443 1.399 . S
C448 C447 1.394 . S
C448 C449 1.516 . S
C449 C448 1.516 . S
C449 C450 1.502 . S
C449 C451 1.561 . S
C449 C452 1.526 . S
C450 H434 0.959 . S
C450 H435 0.959 . S
C450 H436 0.961 . S
C450 C449 1.502 . S
C451 H437 0.960 . S
C451 H438 0.961 . S
C451 H439 0.959 . S
C451 C449 1.561 . S
C452 C449 1.526 . S
C452 C453 1.396 . S
C452 C457 1.390 . S
C453 C447 1.465 . S
C453 C452 1.396 . S
C453 C454 1.399 . S
C454 H440 0.929 . S
C454 C453 1.399 . S
C454 C455 1.385 . S
C455 H441 0.931 . S
C455 C454 1.385 . S
C455 C456 1.389 . S
C456 C455 1.389 . S
C456 C457 1.387 . S
C457 H442 0.930 . S
C457 C452 1.390 . S
C457 C456 1.387 . S
H458 C470 0.930 . S
H459 C472 0.930 . S
H460 C473 0.930 . S
H461 C477 0.959 . S
H462 C477 0.959 . S
H463 C477 0.961 . S
H464 C478 0.960 . S
H465 C478 0.961 . S
H466 C478 0.959 . S
H467 C481 0.929 . S
H468 C482 0.931 . S
H469 C484 0.930 . S
C470 H458 0.930 . S
C470 C471 1.399 . S
C470 C475 1.399 . S
C471 C470 1.399 . S
C471 C472 1.376 . S
C472 H459 0.930 . S
C472 C471 1.376 . S
C472 C473 1.388 . S
C473 H460 0.930 . S
C473 C472 1.388 . S
C473 C474 1.390 . S
C474 C473 1.390 . S
C474 C475 1.394 . S
C474 C480 1.465 . S
C475 C470 1.399 . S
C475 C474 1.394 . S
C475 C476 1.516 . S
C476 C475 1.516 . S
C476 C477 1.502 . S
C476 C478 1.561 . S
C476 C479 1.526 . S
C477 H461 0.959 . S
C477 H462 0.959 . S
C477 H463 0.961 . S
C477 C476 1.502 . S
C478 H464 0.960 . S
C478 H465 0.961 . S
C478 H466 0.959 . S
C478 C476 1.561 . S
C479 C476 1.526 . S
C479 C480 1.396 . S
C479 C484 1.390 . S
C480 C474 1.465 . S
C480 C479 1.396 . S
C480 C481 1.399 . S
C481 H467 0.929 . S
C481 C480 1.399 . S
C481 C482 1.385 . S
C482 H468 0.931 . S
C482 C481 1.385 . S
C482 C483 1.389 . S
C483 C482 1.389 . S
C483 C484 1.387 . S
C484 H469 0.930 . S
C484 C479 1.390 . S
C484 C483 1.387 . S
H485 C497 0.930 . S
H486 C499 0.930 . S
H487 C500 0.930 . S
H488 C504 0.959 . S
H489 C504 0.959 . S
H490 C504 0.961 . S
H491 C505 0.960 . S
H492 C505 0.961 . S
H493 C505 0.959 . S
H494 C508 0.929 . S
H495 C509 0.931 . S
H496 C511 0.930 . S
C497 H485 0.930 . S
C497 C498 1.399 . S
C497 C502 1.399 . S
C498 C497 1.399 . S
C498 C499 1.376 . S
C499 H486 0.930 . S
C499 C498 1.376 . S
C499 C500 1.388 . S
C500 H487 0.930 . S
C500 C499 1.388 . S
C500 C501 1.390 . S
C501 C500 1.390 . S
C501 C502 1.394 . S
C501 C507 1.465 . S
C502 C497 1.399 . S
C502 C501 1.394 . S
C502 C503 1.516 . S
C503 C502 1.516 . S
C503 C504 1.502 . S
C503 C505 1.561 . S
C503 C506 1.526 . S
C504 H488 0.959 . S
C504 H489 0.959 . S
C504 H490 0.961 . S
C504 C503 1.502 . S
C505 H491 0.960 . S
C505 H492 0.961 . S
C505 H493 0.959 . S
C505 C503 1.561 . S
C506 C503 1.526 . S
C506 C507 1.396 . S
C506 C511 1.390 . S
C507 C501 1.465 . S
C507 C506 1.396 . S
C507 C508 1.399 . S
C508 H494 0.929 . S
C508 C507 1.399 . S
C508 C509 1.385 . S
C509 H495 0.931 . S
C509 C508 1.385 . S
C509 C510 1.389 . S
C510 C509 1.389 . S
C510 C511 1.387 . S
C511 H496 0.930 . S
C511 C506 1.390 . S
C511 C510 1.387 . S
H512 C524 0.930 . S
H513 C526 0.930 . S
H514 C527 0.930 . S
H515 C531 0.959 . S
H516 C531 0.959 1_545 S
H517 C531 0.961 . S
H518 C532 0.960 1_565 S
H519 C532 0.961 . S
H520 C532 0.959 . S
H521 C535 0.929 . S
H522 C536 0.931 . S
H523 C538 0.930 . S
C524 H512 0.930 . S
C524 C525 1.399 . S
C524 C529 1.399 . S
C525 C524 1.399 . S
C525 C526 1.376 . S
C526 H513 0.930 . S
C526 C525 1.376 . S
C526 C527 1.388 . S
C527 H514 0.930 . S
C527 C526 1.388 . S
C527 C528 1.390 . S
C528 C527 1.390 . S
C528 C529 1.394 . S
C528 C534 1.465 1_565 S
C529 C524 1.399 . S
C529 C528 1.394 . S
C529 C530 1.516 . S
C530 C529 1.516 . S
C530 C531 1.502 . S
C530 C532 1.561 1_565 S
C530 C533 1.526 1_565 S
C531 H515 0.959 . S
C531 H516 0.959 1_565 S
C531 H517 0.961 . S
C531 C530 1.502 . S
C532 H518 0.960 1_545 S
C532 H519 0.961 . S
C532 H520 0.959 . S
C532 C530 1.561 1_545 S
C533 C530 1.526 1_545 S
C533 C534 1.396 . S
C533 C538 1.390 . S
C534 C528 1.465 1_545 S
C534 C533 1.396 . S
C534 C535 1.399 . S
C535 H521 0.929 . S
C535 C534 1.399 . S
C535 C536 1.385 . S
C536 H522 0.931 . S
C536 C535 1.385 . S
C536 C537 1.389 . S
C537 C536 1.389 . S
C537 C538 1.387 . S
C538 H523 0.930 . S
C538 C533 1.390 . S
C538 C537 1.387 . S
H539 C551 0.930 . S
H540 C553 0.930 . S
H541 C554 0.930 . S
H542 C558 0.959 . S
H543 C558 0.959 . S
H544 C558 0.961 . S
H545 C559 0.960 . S
H546 C559 0.961 . S
H547 C559 0.959 . S
H548 C562 0.929 . S
H549 C563 0.931 . S
H550 C565 0.930 . S
C551 H539 0.930 . S
C551 C552 1.399 . S
C551 C556 1.399 . S
C552 C551 1.399 . S
C552 C553 1.376 . S
C553 H540 0.930 . S
C553 C552 1.376 . S
C553 C554 1.388 . S
C554 H541 0.930 . S
C554 C553 1.388 . S
C554 C555 1.390 . S
C555 C554 1.390 . S
C555 C556 1.394 . S
C555 C561 1.465 . S
C556 C551 1.399 . S
C556 C555 1.394 . S
C556 C557 1.516 . S
C557 C556 1.516 . S
C557 C558 1.502 . S
C557 C559 1.561 . S
C557 C560 1.526 . S
C558 H542 0.959 . S
C558 H543 0.959 . S
C558 H544 0.961 . S
C558 C557 1.502 . S
C559 H545 0.960 . S
C559 H546 0.961 . S
C559 H547 0.959 . S
C559 C557 1.561 . S
C560 C557 1.526 . S
C560 C561 1.396 . S
C560 C565 1.390 1_545 S
C561 C555 1.465 . S
C561 C560 1.396 . S
C561 C562 1.399 1_545 S
C562 H548 0.929 . S
C562 C561 1.399 1_565 S
C562 C563 1.385 . S
C563 H549 0.931 . S
C563 C562 1.385 . S
C563 C564 1.389 . S
C564 C563 1.389 . S
C564 C565 1.387 . S
C565 H550 0.930 . S
C565 C560 1.390 1_565 S
C565 C564 1.387 . S
H566 C578 0.930 . S
H567 C580 0.930 . S
H568 C581 0.930 . S
H569 C585 0.959 . S
H570 C585 0.959 . S
H571 C585 0.961 . S
H572 C586 0.960 . S
H573 C586 0.961 . S
H574 C586 0.959 . S
H575 C589 0.929 . S
H576 C590 0.931 . S
H577 C592 0.930 . S
C578 H566 0.930 . S
C578 C579 1.399 . S
C578 C583 1.399 . S
C579 C578 1.399 . S
C579 C580 1.376 . S
C580 H567 0.930 . S
C580 C579 1.376 . S
C580 C581 1.388 . S
C581 H568 0.930 . S
C581 C580 1.388 . S
C581 C582 1.390 . S
C582 C581 1.390 . S
C582 C583 1.394 . S
C582 C588 1.465 1_545 S
C583 C578 1.399 . S
C583 C582 1.394 . S
C583 C584 1.516 1_545 S
C584 C583 1.516 1_565 S
C584 C585 1.502 . S
C584 C586 1.561 . S
C584 C587 1.526 . S
C585 H569 0.959 . S
C585 H570 0.959 . S
C585 H571 0.961 . S
C585 C584 1.502 . S
C586 H572 0.960 . S
C586 H573 0.961 . S
C586 H574 0.959 . S
C586 C584 1.561 . S
C587 C584 1.526 . S
C587 C588 1.396 . S
C587 C592 1.390 . S
C588 C582 1.465 1_565 S
C588 C587 1.396 . S
C588 C589 1.399 . S
C589 H575 0.929 . S
C589 C588 1.399 . S
C589 C590 1.385 . S
C590 H576 0.931 . S
C590 C589 1.385 . S
C590 C591 1.389 . S
C591 C590 1.389 . S
C591 C592 1.387 . S
C592 H577 0.930 . S
C592 C587 1.390 . S
C592 C591 1.387 . S
H593 C605 0.930 . S
H594 C607 0.930 . S
H595 C608 0.930 . S
H596 C612 0.959 . S
H597 C612 0.959 . S
H598 C612 0.961 . S
H599 C613 0.960 . S
H600 C613 0.961 . S
H601 C613 0.959 . S
H602 C616 0.929 . S
H603 C617 0.931 . S
H604 C619 0.930 . S
C605 H593 0.930 . S
C605 C606 1.399 . S
C605 C610 1.399 . S
C606 C605 1.399 . S
C606 C607 1.376 . S
C607 H594 0.930 . S
C607 C606 1.376 . S
C607 C608 1.388 . S
C608 H595 0.930 . S
C608 C607 1.388 . S
C608 C609 1.390 . S
C609 C608 1.390 . S
C609 C610 1.394 . S
C609 C615 1.465 . S
C610 C605 1.399 . S
C610 C609 1.394 . S
C610 C611 1.516 . S
C611 C610 1.516 . S
C611 C612 1.502 . S
C611 C613 1.561 . S
C611 C614 1.526 . S
C612 H596 0.959 . S
C612 H597 0.959 . S
C612 H598 0.961 . S
C612 C611 1.502 . S
C613 H599 0.960 . S
C613 H600 0.961 . S
C613 H601 0.959 . S
C613 C611 1.561 . S
C614 C611 1.526 . S
C614 C615 1.396 . S
C614 C619 1.390 1_565 S
C615 C609 1.465 . S
C615 C614 1.396 . S
C615 C616 1.401 . S
C616 H602 0.929 . S
C616 C615 1.401 . S
C616 C617 1.383 1_565 S
C617 H603 0.931 . S
C617 C616 1.383 1_545 S
C617 C618 1.389 . S
C618 C617 1.389 . S
C618 C619 1.387 . S
C619 H604 0.930 . S
C619 C614 1.390 1_545 S
C619 C618 1.387 . S
H620 C632 0.930 . S
H621 C634 0.930 . S
H622 C635 0.930 . S
H623 C639 0.959 . S
H624 C639 0.959 . S
H625 C639 0.961 . S
H626 C640 0.960 . S
H627 C640 0.961 . S
H628 C640 0.959 . S
H629 C643 0.929 . S
H630 C644 0.931 . S
H631 C646 0.930 . S
C632 H620 0.930 . S
C632 C633 1.399 . S
C632 C637 1.399 . S
C633 C632 1.399 . S
C633 C634 1.376 . S
C634 H621 0.930 . S
C634 C633 1.376 . S
C634 C635 1.388 . S
C635 H622 0.930 . S
C635 C634 1.388 . S
C635 C636 1.390 . S
C636 C635 1.390 . S
C636 C637 1.394 . S
C636 C642 1.465 1_554 S
C637 C632 1.399 . S
C637 C636 1.394 . S
C637 C638 1.516 1_554 S
C638 C637 1.516 1_556 S
C638 C639 1.502 . S
C638 C640 1.561 . S
C638 C641 1.526 . S
C639 H623 0.959 . S
C639 H624 0.959 . S
C639 H625 0.961 . S
C639 C638 1.502 . S
C640 H626 0.960 . S
C640 H627 0.961 . S
C640 H628 0.959 . S
C640 C638 1.561 . S
C641 C638 1.526 . S
C641 C642 1.396 . S
C641 C646 1.390 . S
C642 C636 1.465 1_556 S
C642 C641 1.396 . S
C642 C643 1.399 . S
C643 H629 0.929 . S
C643 C642 1.399 . S
C643 C644 1.385 . S
C644 H630 0.931 . S
C644 C643 1.385 . S
C644 C645 1.389 . S
C645 C644 1.389 . S
C645 C646 1.387 . S
C646 H631 0.930 . S
C646 C641 1.390 . S
C646 C645 1.387 . S
H647 C659 0.930 . S
H648 C661 0.930 . S
H649 C662 0.930 . S
H650 C666 0.959 . S
H651 C666 0.959 . S
H652 C666 0.961 . S
H653 C667 0.960 . S
H654 C667 0.961 . S
H655 C667 0.959 . S
H656 C670 0.929 . S
H657 C671 0.931 . S
H658 C673 0.930 . S
C659 H647 0.930 . S
C659 C660 1.399 . S
C659 C664 1.399 . S
C660 C659 1.399 . S
C660 C661 1.376 . S
C661 H648 0.930 . S
C661 C660 1.376 . S
C661 C662 1.388 . S
C662 H649 0.930 . S
C662 C661 1.388 . S
C662 C663 1.390 . S
C663 C662 1.390 . S
C663 C664 1.394 . S
C663 C669 1.465 . S
C664 C659 1.399 . S
C664 C663 1.394 . S
C664 C665 1.516 . S
C665 C664 1.516 . S
C665 C666 1.502 . S
C665 C667 1.561 . S
C665 C668 1.526 . S
C666 H650 0.959 . S
C666 H651 0.959 . S
C666 H652 0.961 . S
C666 C665 1.502 . S
C667 H653 0.960 . S
C667 H654 0.961 . S
C667 H655 0.959 . S
C667 C665 1.561 . S
C668 C665 1.526 . S
C668 C669 1.396 . S
C668 C673 1.390 . S
C669 C663 1.465 . S
C669 C668 1.396 . S
C669 C670 1.399 . S
C670 H656 0.929 . S
C670 C669 1.399 . S
C670 C671 1.385 . S
C671 H657 0.931 . S
C671 C670 1.385 . S
C671 C672 1.389 . S
C672 C671 1.389 . S
C672 C673 1.387 . S
C673 H658 0.930 . S
C673 C668 1.390 . S
C673 C672 1.387 . S
H674 C686 0.930 . S
H675 C688 0.930 . S
H676 C689 0.930 . S
H677 C693 0.959 . S
H678 C693 0.959 . S
H679 C693 0.961 . S
H680 C694 0.960 . S
H681 C694 0.961 . S
H682 C694 0.959 . S
H683 C697 0.929 . S
H684 C698 0.931 . S
H685 C700 0.930 . S
C686 H674 0.930 . S
C686 C687 1.399 . S
C686 C691 1.399 . S
C687 C686 1.399 . S
C687 C688 1.376 . S
C688 H675 0.930 . S
C688 C687 1.376 . S
C688 C689 1.388 . S
C689 H676 0.930 . S
C689 C688 1.388 . S
C689 C690 1.390 . S
C690 C689 1.390 . S
C690 C691 1.394 . S
C690 C696 1.465 . S
C691 C686 1.399 . S
C691 C690 1.394 . S
C691 C692 1.516 . S
C692 C691 1.516 . S
C692 C693 1.502 . S
C692 C694 1.561 . S
C692 C695 1.526 . S
C693 H677 0.959 . S
C693 H678 0.959 . S
C693 H679 0.961 . S
C693 C692 1.502 . S
C694 H680 0.960 . S
C694 H681 0.961 . S
C694 H682 0.959 . S
C694 C692 1.561 . S
C695 C692 1.526 . S
C695 C696 1.396 . S
C695 C700 1.390 . S
C696 C690 1.465 . S
C696 C695 1.396 . S
C696 C697 1.399 . S
C697 H683 0.929 . S
C697 C696 1.399 . S
C697 C698 1.385 . S
C698 H684 0.931 . S
C698 C697 1.385 . S
C698 C699 1.389 . S
C699 C698 1.389 . S
C699 C700 1.387 . S
C700 H685 0.930 . S
C700 C695 1.390 . S
C700 C699 1.387 . S
H701 C713 0.930 . S
H702 C715 0.930 . S
H703 C716 0.930 . S
H704 C720 0.959 . S
H705 C720 0.959 . S
H706 C720 0.961 . S
H707 C721 0.960 . S
H708 C721 0.961 . S
H709 C721 0.959 . S
H710 C724 0.929 . S
H711 C725 0.931 . S
H712 C727 0.930 . S
C713 H701 0.930 . S
C713 C714 1.399 . S
C713 C718 1.399 . S
C714 C713 1.399 . S
C714 C715 1.376 . S
C715 H702 0.930 . S
C715 C714 1.376 . S
C715 C716 1.388 . S
C716 H703 0.930 . S
C716 C715 1.388 . S
C716 C717 1.390 . S
C717 C716 1.390 . S
C717 C718 1.394 . S
C717 C723 1.465 . S
C718 C713 1.399 . S
C718 C717 1.394 . S
C718 C719 1.516 . S
C719 C718 1.516 . S
C719 C720 1.502 . S
C719 C721 1.561 . S
C719 C722 1.526 . S
C720 H704 0.959 . S
C720 H705 0.959 . S
C720 H706 0.961 . S
C720 C719 1.502 . S
C721 H707 0.960 . S
C721 H708 0.961 . S
C721 H709 0.959 . S
C721 C719 1.561 . S
C722 C719 1.526 . S
C722 C723 1.396 . S
C722 C727 1.390 . S
C723 C717 1.465 . S
C723 C722 1.396 . S
C723 C724 1.399 . S
C724 H710 0.929 . S
C724 C723 1.399 . S
C724 C725 1.385 . S
C725 H711 0.931 . S
C725 C724 1.385 . S
C725 C726 1.389 . S
C726 C725 1.389 . S
C726 C727 1.387 . S
C727 H712 0.930 . S
C727 C722 1.390 . S
C727 C726 1.387 . S
H728 C740 0.930 . S
H729 C742 0.930 . S
H730 C743 0.930 . S
H731 C747 0.959 . S
H732 C747 0.959 . S
H733 C747 0.961 . S
H734 C748 0.960 . S
H735 C748 0.961 . S
H736 C748 0.959 . S
H737 C751 0.929 . S
H738 C752 0.931 . S
H739 C754 0.930 . S
C740 H728 0.930 . S
C740 C741 1.399 . S
C740 C745 1.399 . S
C741 C740 1.399 . S
C741 C742 1.376 . S
C742 H729 0.930 . S
C742 C741 1.376 . S
C742 C743 1.388 . S
C743 H730 0.930 . S
C743 C742 1.388 . S
C743 C744 1.390 . S
C744 C743 1.390 . S
C744 C745 1.394 . S
C744 C750 1.465 1_556 S
C745 C740 1.399 . S
C745 C744 1.394 . S
C745 C746 1.516 1_556 S
C746 C745 1.516 1_554 S
C746 C747 1.502 1_455 S
C746 C748 1.561 . S
C746 C749 1.526 . S
C747 H731 0.959 . S
C747 H732 0.959 . S
C747 H733 0.961 . S
C747 C746 1.502 1_655 S
C748 H734 0.960 . S
C748 H735 0.961 . S
C748 H736 0.959 . S
C748 C746 1.561 . S
C749 C746 1.526 . S
C749 C750 1.396 . S
C749 C754 1.390 . S
C750 C744 1.465 1_554 S
C750 C749 1.396 . S
C750 C751 1.399 . S
C751 H737 0.929 . S
C751 C750 1.399 . S
C751 C752 1.385 . S
C752 H738 0.931 . S
C752 C751 1.385 . S
C752 C753 1.389 . S
C753 C752 1.389 . S
C753 C754 1.387 . S
C754 H739 0.930 . S
C754 C749 1.390 . S
C754 C753 1.387 . S
H755 C767 0.930 . S
H756 C769 0.930 . S
H757 C770 0.930 . S
H758 C774 0.959 . S
H759 C774 0.959 . S
H760 C774 0.961 . S
H761 C775 0.960 . S
H762 C775 0.961 . S
H763 C775 0.959 . S
H764 C778 0.929 . S
H765 C779 0.931 . S
H766 C781 0.930 . S
C767 H755 0.930 . S
C767 C768 1.399 . S
C767 C772 1.399 . S
C768 C767 1.399 . S
C768 C769 1.376 . S
C769 H756 0.930 . S
C769 C768 1.376 . S
C769 C770 1.388 . S
C770 H757 0.930 . S
C770 C769 1.388 . S
C770 C771 1.390 . S
C771 C770 1.390 . S
C771 C772 1.394 . S
C771 C777 1.465 . S
C772 C767 1.399 . S
C772 C771 1.394 . S
C772 C773 1.516 . S
C773 C772 1.516 . S
C773 C774 1.502 . S
C773 C775 1.561 . S
C773 C776 1.526 . S
C774 H758 0.959 . S
C774 H759 0.959 . S
C774 H760 0.961 . S
C774 C773 1.502 . S
C775 H761 0.960 . S
C775 H762 0.961 . S
C775 H763 0.959 . S
C775 C773 1.561 . S
C776 C773 1.526 . S
C776 C777 1.396 . S
C776 C781 1.390 . S
C777 C771 1.465 . S
C777 C776 1.396 . S
C777 C778 1.399 . S
C778 H764 0.929 . S
C778 C777 1.399 . S
C778 C779 1.385 . S
C779 H765 0.931 . S
C779 C778 1.385 . S
C779 C780 1.389 . S
C780 C779 1.389 . S
C780 C781 1.387 . S
C781 H766 0.930 . S
C781 C776 1.390 . S
C781 C780 1.387 . S
H782 C794 0.930 . S
H783 C796 0.930 . S
H784 C797 0.930 . S
H785 C801 0.959 . S
H786 C801 0.959 . S
H787 C801 0.961 . S
H788 C802 0.960 . S
H789 C802 0.961 . S
H790 C802 0.959 . S
H791 C805 0.929 . S
H792 C806 0.931 . S
H793 C808 0.930 . S
C794 H782 0.930 . S
C794 C795 1.399 . S
C794 C799 1.399 . S
C795 C794 1.399 . S
C795 C796 1.376 . S
C796 H783 0.930 . S
C796 C795 1.376 . S
C796 C797 1.388 . S
C797 H784 0.930 . S
C797 C796 1.388 . S
C797 C798 1.390 . S
C798 C797 1.390 . S
C798 C799 1.394 . S
C798 C804 1.465 . S
C799 C794 1.399 . S
C799 C798 1.394 . S
C799 C800 1.516 . S
C800 C799 1.516 . S
C800 C801 1.502 . S
C800 C802 1.561 . S
C800 C803 1.526 . S
C801 H785 0.959 . S
C801 H786 0.959 . S
C801 H787 0.961 . S
C801 C800 1.502 . S
C802 H788 0.960 . S
C802 H789 0.961 . S
C802 H790 0.959 . S
C802 C800 1.561 . S
C803 C800 1.526 . S
C803 C804 1.396 . S
C803 C808 1.390 . S
C804 C798 1.465 . S
C804 C803 1.396 . S
C804 C805 1.399 . S
C805 H791 0.929 . S
C805 C804 1.399 . S
C805 C806 1.385 . S
C806 H792 0.931 . S
C806 C805 1.385 . S
C806 C807 1.389 . S
C807 C806 1.389 . S
C807 C808 1.387 . S
C808 H793 0.930 . S
C808 C803 1.390 . S
C808 C807 1.387 . S
H809 C821 0.930 . S
H810 C823 0.930 . S
H811 C824 0.930 . S
H812 C828 0.959 . S
H813 C828 0.959 . S
H814 C828 0.961 . S
H815 C829 0.960 . S
H816 C829 0.961 . S
H817 C829 0.959 . S
H818 C832 0.929 . S
H819 C833 0.931 . S
H820 C835 0.930 . S
C821 H809 0.930 . S
C821 C822 1.399 . S
C821 C826 1.399 . S
C822 C821 1.399 . S
C822 C823 1.376 . S
C823 H810 0.930 . S
C823 C822 1.376 . S
C823 C824 1.388 . S
C824 H811 0.930 . S
C824 C823 1.388 . S
C824 C825 1.390 . S
C825 C824 1.390 . S
C825 C826 1.394 . S
C825 C831 1.465 . S
C826 C821 1.399 . S
C826 C825 1.394 . S
C826 C827 1.516 . S
C827 C826 1.516 . S
C827 C828 1.502 . S
C827 C829 1.561 . S
C827 C830 1.526 . S
C828 H812 0.959 . S
C828 H813 0.959 . S
C828 H814 0.961 . S
C828 C827 1.502 . S
C829 H815 0.960 . S
C829 H816 0.961 . S
C829 H817 0.959 . S
C829 C827 1.561 . S
C830 C827 1.526 . S
C830 C831 1.396 . S
C830 C835 1.390 . S
C831 C825 1.465 . S
C831 C830 1.396 . S
C831 C832 1.399 . S
C832 H818 0.929 . S
C832 C831 1.399 . S
C832 C833 1.385 . S
C833 H819 0.931 . S
C833 C832 1.385 . S
C833 C834 1.389 . S
C834 C833 1.389 . S
C834 C835 1.387 . S
C835 H820 0.930 . S
C835 C830 1.390 . S
C835 C834 1.387 . S
C213 C111 1.514 . S
C201 N2 1.585 . S
C240 C129 1.035 . S
C228 N15 1.184 . S
C255 N27 1.338 . S
C267 C153 1.162 . S
C294 C183 1.552 1_655 S
C282 N40 1.719 . S
C321 C171 1.329 . S
C309 N54 1.436 . S
C336 N66 1.706 . S
C348 C124 1.652 1_655 S
C363 N79 1.550 . S
C375 C144 1.360 . S
C390 N93 1.172 . S
C402 C149 1.107 . S
C417 N92 1.687 . S
C429 C165 1.566 . S
C444 N67 1.181 . S
C456 C120 1.119 . S
C483 C187 1.168 . S
C471 N41 1.156 . S
C510 C132 1.470 . S
C498 N14 1.712 . S
C525 N28 1.574 . S
C537 C150 1.523 . S
C552 N1 1.349 . S
C564 C108 1.182 . S
C591 C128 1.342 . S
C579 N80 1.438 . S
C618 C174 1.425 . S
C606 N53 1.560 . S
C645 C170 1.401 . S
C633 N5 1.578 . S
C672 C123 1.388 . S
C660 N18 1.424 . S
C687 N31 1.535 . S
C699 C145 1.274 . S
C714 N44 1.429 . S
C726 C166 1.412 . S
C753 C107 1.350 . S
C741 N57 1.469 . S
C768 N70 1.572 . S
C780 C141 1.524 . S
C807 C162 1.426 . S
C795 N83 1.476 . S
C834 C186 1.418 . S
C822 N96 1.489 . S
