# Generated by pormake.
# Topology pth, (4,4)-cn, num edge types: 1
# Building blocks:
#     Node 0, Type 0, BuildingBlock: AZAVOO_clean_sbu_0, # of connection points: 4
#     Node 1, Type 0, BuildingBlock: AZAVOO_clean_sbu_0, # of connection points: 4
#     Node 2, Type 0, BuildingBlock: AZAVOO_clean_sbu_0, # of connection points: 4
#     Node 3, Type 1, BuildingBlock: NAWXER_clean_linker_0, # of connection points: 4
#     Node 4, Type 1, BuildingBlock: NAWXER_clean_linker_0, # of connection points: 4
#     Node 5, Type 1, BuildingBlock: NAWXER_clean_linker_0, # of connection points: 4
#     Edge 6, Type (0, 1), BuildingBlock: XUDNAN_clean_linker_2, # of connection points: 2
#     Edge 7, Type (0, 1), BuildingBlock: XUDNAN_clean_linker_2, # of connection points: 2
#     Edge 8, Type (0, 1), BuildingBlock: XUDNAN_clean_linker_2, # of connection points: 2
#     Edge 9, Type (0, 1), BuildingBlock: XUDNAN_clean_linker_2, # of connection points: 2
#     Edge 10, Type (0, 1), BuildingBlock: XUDNAN_clean_linker_2, # of connection points: 2
#     Edge 11, Type (0, 1), BuildingBlock: XUDNAN_clean_linker_2, # of connection points: 2
#     Edge 12, Type (0, 1), BuildingBlock: XUDNAN_clean_linker_2, # of connection points: 2
#     Edge 13, Type (0, 1), BuildingBlock: XUDNAN_clean_linker_2, # of connection points: 2
#     Edge 14, Type (0, 1), BuildingBlock: XUDNAN_clean_linker_2, # of connection points: 2
#     Edge 15, Type (0, 1), BuildingBlock: XUDNAN_clean_linker_2, # of connection points: 2
#     Edge 16, Type (0, 1), BuildingBlock: XUDNAN_clean_linker_2, # of connection points: 2
#     Edge 17, Type (0, 1), BuildingBlock: XUDNAN_clean_linker_2, # of connection points: 2
# Relax obj value: 0.065
# Max RMSD: 0.212
# Mean RMSD: 0.105
data_MOF--net-pth--node1-AZAVOO_clean_sbu_0--node2-NAWXER_clean_linker_0--edge1-XUDNAN_clean_linker_2
_symmetry_space_group_name_H-M    P1
_symmetry_Int_Tables_number       1
_symmetry_cell_setting            triclinic
loop_
_symmetry_equiv_pos_as_xyz
'x, y, z'
_cell_length_a     28.710182
_cell_length_b     29.269071
_cell_length_c     64.58906
_cell_angle_alpha  90.887668
_cell_angle_beta   92.713959
_cell_angle_gamma 121.89213
loop_
_atom_site_label
_atom_site_type_symbol
_atom_site_fract_x
_atom_site_fract_y
_atom_site_fract_z
_atom_type_partial_charge
Mg0 Mg 0.11741 0.0871 0.03895 0.0
O1 O 0.03338 0.03564 0.02096 0.0
O2 O 0.02002 0.09224 0.00244 0.0
Mg3 Mg 0.09594 0.17731 0.00699 0.0
C4 C 0.004 0.045 0.00837 0.0
C5 C 0.14195 0.02774 0.07071 0.0
O6 O 0.1891 0.07215 0.06786 0.0
O7 O 0.08303 0.12235 0.06083 0.0
O8 O 0.07669 0.18084 0.04091 0.0
O9 O 0.15844 0.07478 0.01287 0.0
O10 O 0.14485 0.14209 0.01574 0.0
C11 C 0.07252 0.15928 0.05834 0.0
C12 C 0.16227 0.11712 0.00513 0.0
O13 O 0.09909 0.01952 0.06049 0.0
Mg14 Mg 0.95395 0.02596 0.36403 0.0
O15 O 0.02718 0.03366 0.3831 0.0
O16 O 0.06645 0.10965 0.40297 0.0
Mg17 Mg 0.01511 0.14806 0.39813 0.0
C18 C 0.06433 0.06708 0.39652 0.0
C19 C 0.90564 0.92309 0.33528 0.0
O20 O 0.86061 0.92092 0.34015 0.0
O21 O 0.01014 0.09358 0.34346 0.0
O22 O 0.03834 0.16627 0.36437 0.0
O23 O 0.89748 0.98026 0.38889 0.0
O24 O 0.94414 0.06897 0.38743 0.0
C25 C 0.03551 0.14464 0.34663 0.0
C26 C 0.91167 0.0268 0.39714 0.0
O27 O 0.95184 0.96233 0.34256 0.0
Mg28 Mg -0.00169 0.01099 0.70381 0.0
O29 O 0.07181 0.08719 0.71983 0.0
O30 O 0.04065 0.11886 0.74363 0.0
Mg31 Mg 0.9471 0.06355 0.74241 0.0
C32 C 0.08008 0.12151 0.73424 0.0
C33 C 0.04557 0.96814 0.67319 0.0
O34 O 0.00683 0.92445 0.68139 0.0
O35 O 0.97164 0.05939 0.68517 0.0
O36 O 0.93944 0.08924 0.70942 0.0
O37 O 0.00675 0.96293 0.72814 0.0
O38 O 0.95362 0.99647 0.73003 0.0
C39 C 0.9496 0.08545 0.69063 0.0
C40 C 0.97391 0.97068 0.73859 0.0
O41 O 0.05296 0.01337 0.67889 0.0
C42 C 0.99651 0.37387 0.23283 0.0
C43 C 0.03994 0.3915 0.2481 0.0
C44 C 0.98818 0.41099 0.22262 0.0
C45 C 0.02331 0.46638 0.22741 0.0
C46 C 0.07396 0.44702 0.25325 0.0
C47 C 0.06547 0.48403 0.24308 0.0
C48 C 0.01893 0.50652 0.21533 0.0
C49 C 0.07396 0.42008 0.17526 0.0
C50 C 0.03519 0.39015 0.15871 0.0
C51 C 0.07183 0.46034 0.18626 0.0
C52 C 0.03023 0.47065 0.18116 0.0
C53 C 0.99495 0.40208 0.15314 0.0
C54 C 0.99259 0.44207 0.16425 0.0
C55 C 0.02439 0.50981 0.19371 0.0
C56 C 0.08127 0.73444 0.18183 0.0
C57 C 0.06267 0.73015 0.16095 0.0
C58 C 0.06565 0.68841 0.19284 0.0
C59 C 0.03025 0.6369 0.18336 0.0
C60 C 0.02629 0.67867 0.15156 0.0
C61 C 0.01054 0.63244 0.16264 0.0
C62 C 0.01894 0.58827 0.19434 0.0
C63 C 0.93565 0.65356 0.22989 0.0
C64 C 0.9581 0.67395 0.25016 0.0
C65 C 0.95237 0.62417 0.21864 0.0
C66 C 0.99225 0.61487 0.22734 0.0
C67 C 0.9979 0.66449 0.2589 0.0
C68 C 0.01448 0.63483 0.24764 0.0
C69 C 0.00855 0.58207 0.21563 0.0
H70 H 0.96875 0.33137 0.22882 0.0
H71 H 0.95494 0.39655 0.21073 0.0
H72 H 0.10802 0.46205 0.2648 0.0
H73 H 0.0931 0.52667 0.24694 0.0
H74 H 0.10617 0.41259 0.17962 0.0
H75 H 0.10223 0.48293 0.19891 0.0
H76 H 0.96445 0.37961 0.1405 0.0
H77 H 0.96038 0.44963 0.16001 0.0
H78 H 0.10894 0.77351 0.18957 0.0
H79 H 0.08301 0.69328 0.20856 0.0
H80 H 0.01172 0.67406 0.13544 0.0
H81 H 0.98379 0.59317 0.15491 0.0
H82 H 0.9052 0.66044 0.22268 0.0
H83 H 0.93349 0.60809 0.20322 0.0
H84 H 0.01545 0.67913 0.27458 0.0
H85 H 0.04485 0.62766 0.25476 0.0
N86 N 0.01048 0.5423 0.22547 0.0
N87 N 0.02492 0.55098 0.18405 0.0
C88 C 0.69664 0.11442 0.50511 0.0
C89 C 0.68593 0.06614 0.49526 0.0
C90 C 0.65556 0.116 0.51532 0.0
C91 C 0.6029 0.06962 0.51553 0.0
C92 C 0.63277 0.01989 0.49563 0.0
C93 C 0.59154 0.02192 0.50534 0.0
C94 C 0.55936 0.06939 0.52676 0.0
C95 C 0.6819 0.07008 0.57266 0.0
C96 C 0.70081 0.10858 0.58934 0.0
C97 C 0.63605 0.0582 0.5598 0.0
C98 C 0.60959 0.08662 0.56244 0.0
C99 C 0.6726 0.13528 0.59249 0.0
C100 C 0.62788 0.12469 0.57912 0.0
C101 C 0.56162 0.07573 0.54859 0.0
C102 C 0.32484 0.98425 0.56329 0.0
C103 C 0.32974 0.01522 0.58107 0.0
C104 C 0.37027 -0.00113 0.55181 0.0
C105 C 0.42147 0.04551 0.55754 0.0
C106 C 0.38106 0.06189 0.58682 0.0
C107 C 0.42652 0.07671 0.57521 0.0
C108 C 0.47055 0.0592 0.54616 0.0
C109 C 0.35608 0.07218 0.50022 0.0
C110 C 0.34017 0.03913 0.48196 0.0
C111 C 0.39807 0.0779 0.51401 0.0
C112 C 0.42413 0.04958 0.51015 0.0
C113 C 0.36724 0.01183 0.47793 0.0
C114 C 0.4086 0.01694 0.49187 0.0
C115 C 0.46988 0.05619 0.52424 0.0
H116 H 0.73654 0.1512 0.50482 0.0
H117 H 0.6648 0.15329 0.52301 0.0
H118 H 0.62292 0.98162 0.48873 0.0
H119 H 0.55109 0.98565 0.50551 0.0
H120 H 0.70228 0.04875 0.5694 0.0
H121 H 0.62123 0.02627 0.54795 0.0
H122 H 0.68427 0.16388 0.60546 0.0
H123 H 0.60749 0.14634 0.58185 0.0
H124 H 0.28588 0.94835 0.5583 0.0
H125 H 0.36551 0.97302 0.53865 0.0
H126 H 0.38652 0.08619 0.6006 0.0
H127 H 0.46579 0.11236 0.58014 0.0
H128 H 0.33601 0.09356 0.50397 0.0
H129 H 0.41042 0.10494 0.52758 0.0
H130 H 0.35715 0.98704 0.46383 0.0
H131 H 0.42859 0.99532 0.48831 0.0
N132 N 0.51395 0.06032 0.51548 0.0
N133 N 0.51686 0.07006 0.55742 0.0
C134 C 0.44859 0.38067 0.82633 0.0
C135 C 0.41818 0.39404 0.81283 0.0
C136 C 0.48706 0.41864 0.84128 0.0
C137 C 0.49598 0.4706 0.84276 0.0
C138 C 0.42779 0.44632 0.81419 0.0
C139 C 0.46682 0.48446 0.82891 0.0
C140 C 0.53494 0.51062 0.85888 0.0
C141 C 0.38662 0.38686 0.89165 0.0
C142 C 0.40017 0.35574 0.90391 0.0
C143 C 0.42807 0.43462 0.8837 0.0
C144 C 0.48353 0.45214 0.88816 0.0
C145 C 0.45572 0.3732 0.90812 0.0
C146 C 0.49706 0.42129 0.90047 0.0
C147 C 0.52789 0.50274 0.88024 0.0
C148 C 0.65004 0.69498 0.9315 0.0
C149 C 0.70765 0.72117 0.93242 0.0
C150 C 0.61755 0.65106 0.91757 0.0
C151 C 0.64202 0.63284 0.90418 0.0
C152 C 0.73194 0.70099 0.91975 0.0
C153 C 0.69935 0.65704 0.90579 0.0
C154 C 0.60708 0.59007 0.88811 0.0
C155 C 0.74516 0.68222 0.83948 0.0
C156 C 0.75539 0.73436 0.84292 0.0
C157 C 0.69925 0.63788 0.84716 0.0
C158 C 0.66314 0.64483 0.85867 0.0
C159 C 0.71875 0.74129 0.85426 0.0
C160 C 0.67297 0.69679 0.86216 0.0
C161 C 0.6153 0.59707 0.86672 0.0
H162 H 0.44168 0.34053 0.82565 0.0
H163 H 0.5096 0.40741 0.85174 0.0
H164 H 0.40513 0.45766 0.80385 0.0
H165 H 0.47335 0.52446 0.82981 0.0
H166 H 0.34405 0.37425 0.88827 0.0
H167 H 0.41694 0.45821 0.87432 0.0
H168 H 0.46722 0.35035 0.9178 0.0
H169 H 0.53969 0.43432 0.90407 0.0
H170 H 0.63011 0.70903 0.94131 0.0
H171 H 0.57333 0.63255 0.91673 0.0
H172 H 0.77621 0.72038 0.92006 0.0
H173 H 0.71902 0.64284 0.8959 0.0
H174 H 0.77207 0.67555 0.83045 0.0
H175 H 0.69212 0.59804 0.84423 0.0
H176 H 0.72563 0.78106 0.85704 0.0
H177 H 0.64513 0.70281 0.87085 0.0
N178 N 0.57867 0.55728 0.85288 0.0
N179 N 0.56382 0.54292 0.8941 0.0
H180 H 0.04274 0.23405 0.05839 0.0
H181 H 0.07352 0.13516 0.09932 0.0
H182 H 0.06177 0.17985 0.12963 0.0
H183 H 0.11701 0.35325 0.08865 0.0
H184 H 0.07044 0.3758 0.08303 0.0
H185 H 0.07531 0.33215 0.06454 0.0
H186 H 0.97042 0.26351 0.06485 0.0
H187 H 0.96509 0.30721 0.08325 0.0
H188 H 0.94027 0.23835 0.08917 0.0
H189 H 0.05544 0.24171 0.15555 0.0
H190 H 0.05045 0.31253 0.17485 0.0
H191 H 0.02429 0.37033 0.11666 0.0
C192 C 0.0461 0.22097 0.07367 0.0
C193 C 0.05908 0.18102 0.07643 0.0
C194 C 0.06336 0.16547 0.09677 0.0
C195 C 0.05682 0.19068 0.11409 0.0
C196 C 0.04553 0.23094 0.1108 0.0
C197 C 0.03961 0.24553 0.09106 0.0
C198 C 0.0301 0.29168 0.09167 0.0
C199 C 0.07596 0.34113 0.08137 0.0
C200 C 0.97307 0.27412 0.08164 0.0
C201 C 0.03295 0.30176 0.11485 0.0
C202 C 0.04158 0.26618 0.12565 0.0
C203 C 0.04812 0.2694 0.14725 0.0
C204 C 0.04567 0.30997 0.15806 0.0
C205 C 0.03683 0.34679 0.14724 0.0
C206 C 0.03015 0.34222 0.12536 0.0
H207 H 0.80456 0.97361 0.40559 0.0
H208 H 0.96801 0.09431 0.43088 0.0
H209 H 0.92811 0.11233 0.46081 0.0
H210 H 0.74745 0.0497 0.41612 0.0
H211 H 0.68099 0.99377 0.42196 0.0
H212 H 0.72235 0.98343 0.40474 0.0
H213 H 0.71735 0.9096 0.42791 0.0
H214 H 0.67549 0.91941 0.44515 0.0
H215 H 0.7381 0.92509 0.45517 0.0
H216 H 0.86952 0.12074 0.4867 0.0
H217 H 0.79783 0.12272 0.5055 0.0
H218 H 0.67334 0.00423 0.46036 0.0
C219 C 0.83182 0.00243 0.41784 0.0
C220 C 0.88917 0.03184 0.41635 0.0
C221 C 0.9239 0.07105 0.43205 0.0
C222 C 0.90162 0.08138 0.44906 0.0
C223 C 0.84459 0.05273 0.44984 0.0
C224 C 0.81017 0.01424 0.43457 0.0
C225 C 0.75047 0.99385 0.43763 0.0
C226 C 0.72378 0.00594 0.41901 0.0
C227 C 0.71848 0.9334 0.44171 0.0
C228 C 0.75667 0.02729 0.45683 0.0
C229 C 0.81108 0.06024 0.46389 0.0
C230 C 0.82674 0.09515 0.48129 0.0
C231 C 0.78563 0.09644 0.49172 0.0
C232 C 0.72952 0.06384 0.48448 0.0
C233 C 0.71538 0.02894 0.46673 0.0
H234 H 0.88481 0.95271 0.75883 0.0
H235 H 0.02602 0.9357 0.76421 0.0
H236 H 0.99192 0.88573 0.79603 0.0
H237 H 0.86696 0.95915 0.81628 0.0
H238 H 0.79315 0.91949 0.81206 0.0
H239 H 0.83448 0.96399 0.79255 0.0
H240 H 0.7889 0.88398 0.76528 0.0
H241 H 0.74778 0.83936 0.78464 0.0
H242 H 0.79097 0.8246 0.77026 0.0
H243 H 0.93597 0.82573 0.82335 0.0
H244 H 0.86128 0.75843 0.84374 0.0
H245 H 0.75508 0.81228 0.82026 0.0
C246 C 0.90954 0.94017 0.76715 0.0
C247 C 0.95828 0.94844 0.75922 0.0
C248 C 0.98871 0.93001 0.77012 0.0
C249 C 0.96981 0.90186 0.78827 0.0
C250 C 0.92051 0.89262 0.7953 0.0
C251 C 0.89087 0.91147 0.78514 0.0
C252 C 0.83566 0.88996 0.79418 0.0
C253 C 0.8324 0.9359 0.80438 0.0
C254 C 0.78806 0.85755 0.77761 0.0
C255 C 0.83771 0.85394 0.8103 0.0
C256 C 0.88752 0.85703 0.81101 0.0
C257 C 0.89723 0.82375 0.82325 0.0
C258 C 0.85453 0.78546 0.83466 0.0
C259 C 0.80266 0.78048 0.83362 0.0
C260 C 0.79478 0.81618 0.82172 0.0
H261 H 0.05181 0.92998 0.08009 0.0
H262 H 0.22743 0.03673 0.09462 0.0
H263 H 0.22556 0.97217 0.11903 0.0
H264 H 0.01687 0.88473 0.13198 0.0
H265 H 0.96516 0.81647 0.12352 0.0
H266 H 0.97979 0.87106 0.10707 0.0
H267 H -0.0009 0.82409 0.07732 0.0
H268 H 0.98463 0.76941 0.0937 0.0
H269 H 0.04948 0.80577 0.08188 0.0
H270 H 0.20574 0.89708 0.14163 0.0
H271 H 0.16873 0.81492 0.16138 0.0
H272 H 0.00561 0.75595 0.13281 0.0
C273 C 0.08983 0.93977 0.08842 0.0
C274 C 0.13978 0.98849 0.08543 0.0
C275 C 0.18865 -0.00026 0.09662 0.0
C276 C 0.18807 0.96332 0.11054 0.0
C277 C 0.13832 0.91574 0.11312 0.0
C278 C 0.09004 0.90374 0.10242 0.0
C279 C 0.04226 0.84954 0.10815 0.0
C280 C -0.00156 0.85585 0.11829 0.0
C281 C 0.01742 0.80986 0.08913 0.0
C282 C 0.07138 0.83311 0.12371 0.0
C283 C 0.12675 0.87203 0.12631 0.0
C284 C 0.16239 0.86638 0.13983 0.0
C285 C 0.14089 0.81971 0.15107 0.0
C286 C 0.0842 0.77922 0.1488 0.0
C287 C 0.04914 0.78606 0.13482 0.0
H288 H 0.15711 0.13294 0.42189 0.0
H289 H 0.06085 0.97189 0.39272 0.0
H290 H 0.12229 0.94799 0.41068 0.0
H291 H 0.29085 0.14607 0.4197 0.0
H292 H 0.31631 0.18281 0.44443 0.0
H293 H 0.26625 0.18793 0.42846 0.0
H294 H 0.2022 0.15822 0.45893 0.0
H295 H 0.2518 0.15251 0.47493 0.0
H296 H 0.18233 0.09561 0.47079 0.0
H297 H 0.18965 0.9394 0.43389 0.0
H298 H 0.26194 0.94851 0.45888 0.0
H299 H 0.31741 0.11667 0.4714 0.0
C300 C 0.1492 0.0928 0.41909 0.0
C301 C 0.104 0.0543 0.4059 0.0
C302 C 0.09526 0.00221 0.40267 0.0
C303 C 0.12985 0.98816 0.41285 0.0
C304 C 0.17337 0.02678 0.42602 0.0
C305 C 0.18358 0.07822 0.42897 0.0
C306 C 0.23273 0.11195 0.44414 0.0
C307 C 0.27929 0.16003 0.43354 0.0
C308 C 0.21625 0.13065 0.46333 0.0
C309 C 0.2479 0.07109 0.44957 0.0
C310 C 0.21313 0.02223 0.43897 0.0
C311 C 0.21772 0.97774 0.44203 0.0
C312 C 0.25921 0.98346 0.4562 0.0
C313 C 0.29596 0.03345 0.46707 0.0
C314 C 0.28993 0.07773 0.46357 0.0
H315 H 0.11479 0.20907 0.76092 0.0
H316 H 0.17493 0.12757 0.72419 0.0
H317 H 0.26918 0.19135 0.73905 0.0
H318 H 0.23513 0.34594 0.75717 0.0
H319 H 0.23176 0.3656 0.78337 0.0
H320 H 0.16979 0.31596 0.76864 0.0
H321 H 0.14786 0.2489 0.79781 0.0
H322 H 0.20987 0.2981 0.81254 0.0
H323 H 0.19796 0.23248 0.80607 0.0
H324 H 0.35529 0.25831 0.76058 0.0
H325 H 0.42789 0.32809 0.78524 0.0
H326 H 0.31178 0.3672 0.80686 0.0
C327 C 0.14782 0.20503 0.75574 0.0
C328 C 0.13734 0.1632 0.74139 0.0
C329 C 0.18186 0.15938 0.73508 0.0
C330 C 0.23558 0.19536 0.74347 0.0
C331 C 0.24421 0.23533 0.75794 0.0
C332 C 0.20168 0.24082 0.7638 0.0
C333 C 0.22157 0.28619 0.78006 0.0
C334 C 0.21413 0.33108 0.77181 0.0
C335 C 0.19259 0.26513 0.80031 0.0
C336 C 0.28171 0.3046 0.78277 0.0
C337 C 0.29402 0.27477 0.7699 0.0
C338 C 0.34633 0.28246 0.77051 0.0
C339 C 0.38715 0.32185 0.7846 0.0
C340 C 0.37539 0.35317 0.79773 0.0
C341 C 0.32205 0.34447 0.79669 0.0
H342 H 0.88605 0.02913 0.65628 0.0
H343 H 0.95959 0.18363 0.68973 0.0
H344 H 0.91106 0.21071 0.66479 0.0
H345 H 0.87777 0.07233 0.60325 0.0
H346 H 0.81105 0.01269 0.59707 0.0
H347 H 0.85952 0.00997 0.61498 0.0
H348 H 0.78723 0.97294 0.64271 0.0
H349 H 0.73877 0.97579 0.62495 0.0
H350 H 0.75657 0.01044 0.65009 0.0
H351 H 0.85003 0.21816 0.63714 0.0
H352 H 0.77649 0.20334 0.61155 0.0
H353 H 0.73384 0.03833 0.60012 0.0
C354 C 0.89338 0.06937 0.65785 0.0
C355 C 0.92759 0.10505 0.67444 0.0
C356 C 0.93428 0.15635 0.67678 0.0
C357 C 0.90698 0.17197 0.66271 0.0
C358 C 0.87238 0.13526 0.64672 0.0
C359 C 0.86515 0.0848 0.64438 0.0
C360 C 0.82027 0.05012 0.62782 0.0
C361 C 0.84356 0.03543 0.60971 0.0
C362 C 0.77292 -0.00064 0.63695 0.0
C363 C 0.80275 0.08858 0.62139 0.0
C364 C 0.83408 0.13788 0.63207 0.0
C365 C 0.82504 0.17956 0.62877 0.0
C366 C 0.7825 0.1704 0.61433 0.0
C367 C 0.74831 0.11935 0.60373 0.0
C368 C 0.75929 0.07825 0.60741 0.0
H369 H 0.97314 0.93941 0.00242 0.0
H370 H 0.91557 0.04863 0.99347 0.0
H371 H 0.82968 0.97488 0.97568 0.0
H372 H 0.92608 0.87435 0.95325 0.0
H373 H 0.90656 0.80838 0.96157 0.0
H374 H 0.96036 0.86747 0.97601 0.0
H375 H 0.90808 0.83348 0.00949 0.0
H376 H 0.85417 0.77402 0.99517 0.0
H377 H 0.83789 0.8165 0.00957 0.0
H378 H 0.75363 0.89195 0.95674 0.0
H379 H 0.69341 0.80584 0.93684 0.0
H380 H 0.80094 0.75051 0.95717 0.0
C381 C 0.94186 0.94741 -0.00285 0.0
C382 C 0.95071 -0.00043 -0.00052 0.0
C383 C 0.90951 0.0089 0.99188 0.0
C384 C 0.86053 0.96725 0.98183 0.0
C385 C 0.85353 0.91658 0.9794 0.0
C386 C 0.89302 0.90644 0.98681 0.0
C387 C 0.87724 0.84961 0.98062 0.0
C388 C 0.92011 0.85001 0.96706 0.0
C389 C 0.86884 0.81644 -0.00014 0.0
C390 C 0.8233 0.82984 0.96823 0.0
C391 C 0.81004 0.86886 0.968 0.0
C392 C 0.76318 0.8608 0.95701 0.0
C393 C 0.72911 0.81166 0.94583 0.0
C394 C 0.74226 0.77131 0.94556 0.0
C395 C 0.78986 0.78059 0.95706 0.0
H396 H 0.99068 0.9126 0.3238 0.0
H397 H 0.81331 0.83606 0.31624 0.0
H398 H 0.80752 0.76382 0.29392 0.0
H399 H 0.01 0.8834 0.27174 0.0
H400 H 0.0634 0.87108 0.27951 0.0
H401 H 0.05364 0.91682 0.29492 0.0
H402 H 0.04291 0.8616 0.32729 0.0
H403 H 0.05249 0.81559 0.31196 0.0
H404 H 0.9918 0.79047 0.32626 0.0
H405 H 0.82085 0.70017 0.27233 0.0
H406 H 0.85247 0.64919 0.25298 0.0
H407 H 0.0211 0.76704 0.27453 0.0
C408 C 0.9506 0.88071 0.31744 0.0
C409 C 0.90242 0.88005 0.32177 0.0
C410 C 0.85079 0.83748 0.31316 0.0
C411 C 0.84705 0.79623 0.30046 0.0
C412 C 0.89529 0.79805 0.29655 0.0
C413 C 0.94608 0.83913 0.30477 0.0
C414 C 0.99158 0.83152 0.29815 0.0
C415 C 0.03203 0.87849 0.28531 0.0
C416 C 0.02144 0.82436 0.31704 0.0
C417 C 0.95841 0.77976 0.28489 0.0
C418 C 0.90296 0.76118 0.28416 0.0
C419 C 0.86417 0.71436 0.27275 0.0
C420 C 0.88256 0.68585 0.26173 0.0
C421 C 0.93925 0.7042 0.2622 0.0
C422 C 0.97748 0.7517 0.27404 0.0
H423 H 0.13251 0.05091 0.65423 0.0
H424 H 0.03995 0.87706 0.65875 0.0
H425 H 0.10144 0.87041 0.63522 0.0
H426 H 0.15964 0.05132 0.59973 0.0
H427 H 0.22793 0.11039 0.60324 0.0
H428 H 0.17556 0.10153 0.61997 0.0
H429 H 0.23834 0.11171 0.65215 0.0
H430 H 0.29078 0.12035 0.63552 0.0
H431 H 0.26498 0.06816 0.65399 0.0
H432 H 0.17451 0.88245 0.61242 0.0
H433 H 0.25375 0.91233 0.59111 0.0
H434 H 0.29806 0.07822 0.60052 0.0
C435 C 0.12492 0.01141 0.65016 0.0
C436 C 0.08134 0.96449 0.65834 0.0
C437 C 0.07299 0.91359 0.65268 0.0
C438 C 0.1077 0.90935 0.63932 0.0
C439 C 0.1505 0.95634 0.63169 0.0
C440 C 0.15917 0.00639 0.6368 0.0
C441 C 0.20876 0.05059 0.62665 0.0
C442 C 0.19195 0.08019 0.6115 0.0
C443 C 0.25334 0.09002 0.64306 0.0
C444 C 0.22683 0.01752 0.61522 0.0
C445 C 0.19256 0.96327 0.61832 0.0
C446 C 0.20134 0.92479 0.60969 0.0
C447 C 0.24632 0.94218 0.59749 0.0
C448 C 0.28197 0.99761 0.59394 0.0
C449 C 0.27186 0.03563 0.603 0.0
H450 H 0.17975 0.20744 0.9863 0.0
H451 H 0.20498 0.07438 0.97972 0.0
H452 H 0.25925 0.1158 0.9494 0.0
H453 H 0.17347 0.23039 0.9295 0.0
H454 H 0.20956 0.30232 0.93438 0.0
H455 H 0.16535 0.25775 0.95329 0.0
H456 H 0.24627 0.30396 0.98135 0.0
H457 H 0.29071 0.3483 0.96258 0.0
H458 H 0.30953 0.30737 0.97687 0.0
H459 H 0.32244 0.17846 0.92366 0.0
H460 H 0.38701 0.25614 0.90373 0.0
H461 H 0.31838 0.34681 0.92656 0.0
C462 C 0.19512 0.18604 0.97812 0.0
C463 C 0.18782 0.13749 0.98531 0.0
C464 C 0.20977 0.11146 0.97441 0.0
C465 C 0.24054 0.13462 0.95714 0.0
C466 C 0.24831 0.18338 0.95082 0.0
C467 C 0.22562 0.20845 0.96084 0.0
C468 C 0.2441 0.2629 0.95225 0.0
C469 C 0.1952 0.26334 0.94173 0.0
C470 C 0.27446 0.30827 0.96928 0.0
C471 C 0.28272 0.2657 0.93649 0.0
C472 C 0.28412 0.21918 0.9357 0.0
C473 C 0.32076 0.21454 0.92377 0.0
C474 C 0.3574 0.25884 0.91261 0.0
C475 C 0.357 0.30698 0.91347 0.0
C476 C 0.31841 0.3099 0.92522 0.0
H477 H 0.07444 0.2523 0.34657 0.0
H478 H 0.03411 0.1153 0.30576 0.0
H479 H 0.04318 0.16894 0.27537 0.0
H480 H 0.99436 0.28652 0.32032 0.0
H481 H 0.03912 0.35852 0.32433 0.0
H482 H 0.04272 0.3148 0.34265 0.0
H483 H 0.14664 0.35827 0.3377 0.0
H484 H 0.14369 0.403 0.31955 0.0
H485 H 0.16962 0.36141 0.31197 0.0
H486 H 0.041 0.23205 0.24979 0.0
H487 H 0.03149 0.30023 0.23128 0.0
H488 H 0.06852 0.3932 0.28932 0.0
C489 C 0.06956 0.23403 0.33128 0.0
C490 C 0.0537 0.17952 0.32861 0.0
C491 C 0.04662 0.15704 0.30825 0.0
C492 C 0.05168 0.18724 0.29087 0.0
C493 C 0.06426 0.23991 0.29412 0.0
C494 C 0.07385 0.26333 0.31385 0.0
C495 C 0.08001 0.31794 0.31337 0.0
C496 C 0.03645 0.31947 0.3259 0.0
C497 C 0.13847 0.36281 0.3211 0.0
C498 C 0.06986 0.3206 0.29038 0.0
C499 C 0.06187 0.27577 0.27945 0.0
C500 C 0.04804 0.26769 0.25816 0.0
C501 C 0.04209 0.30634 0.24783 0.0
C502 C 0.04927 0.35216 0.25884 0.0
C503 C 0.06393 0.35935 0.28035 0.0
loop_
_geom_bond_atom_site_label_1
_geom_bond_atom_site_label_2
_geom_bond_distance
_geom_bond_site_symmetry_2
_ccdc_geom_bond_type
Mg0 O1 2.028 . S
Mg0 O7 1.986 . S
Mg0 O9 2.114 . S
Mg0 O10 2.251 . S
Mg0 O13 2.010 . S
O1 Mg0 2.028 . S
O1 C4 1.250 1_455 S
O2 Mg3 2.028 1_655 S
O2 C4 1.248 . S
Mg3 O2 2.028 1_455 S
Mg3 O8 2.032 . S
Mg3 O10 2.079 . S
C4 O1 1.250 1_655 S
C4 O2 1.248 . S
C5 O6 1.264 1_565 S
C5 O13 1.249 1_565 S
O6 C5 1.264 1_545 S
O7 Mg0 1.986 . S
O7 C11 1.246 . S
O8 Mg3 2.032 . S
O8 C11 1.259 . S
O9 Mg0 2.114 . S
O9 C12 1.252 . S
O10 Mg0 2.251 . S
O10 Mg3 2.079 . S
O10 C12 1.273 . S
C11 O7 1.246 . S
C11 O8 1.259 . S
C12 O9 1.252 . S
C12 O10 1.273 . S
O13 Mg0 2.010 . S
O13 C5 1.249 1_545 S
Mg14 O15 2.028 1_655 S
Mg14 O21 1.986 1_655 S
Mg14 O23 2.114 1_545 S
Mg14 O24 2.251 . S
Mg14 O27 2.010 1_545 S
O15 Mg14 2.028 1_455 S
O15 C18 1.250 . S
O16 Mg17 2.028 . S
O16 C18 1.248 . S
Mg17 O16 2.028 . S
Mg17 O22 2.032 . S
Mg17 O24 2.079 1_455 S
C18 O15 1.250 . S
C18 O16 1.248 . S
C19 O20 1.264 . S
C19 O27 1.249 . S
O20 C19 1.264 . S
O21 Mg14 1.986 1_455 S
O21 C25 1.246 . S
O22 Mg17 2.032 . S
O22 C25 1.259 . S
O23 Mg14 2.114 1_565 S
O23 C26 1.252 1_565 S
O24 Mg14 2.251 . S
O24 Mg17 2.079 1_655 S
O24 C26 1.273 . S
C25 O21 1.246 . S
C25 O22 1.259 . S
C26 O23 1.252 1_545 S
C26 O24 1.273 . S
O27 Mg14 2.010 1_565 S
O27 C19 1.249 . S
Mg28 O29 2.028 . S
Mg28 O35 1.986 1_455 S
Mg28 O37 2.114 1_545 S
Mg28 O38 2.251 1_445 S
Mg28 O41 2.010 . S
O29 Mg28 2.028 . S
O29 C32 1.250 . S
O30 Mg31 2.028 1_455 S
O30 C32 1.248 . S
Mg31 O30 2.028 1_655 S
Mg31 O36 2.032 . S
Mg31 O38 2.079 1_545 S
C32 O29 1.250 . S
C32 O30 1.248 . S
C33 O34 1.264 1_545 S
C33 O41 1.249 . S
O34 C33 1.264 1_565 S
O35 Mg28 1.986 1_655 S
O35 C39 1.246 . S
O36 Mg31 2.032 . S
O36 C39 1.259 . S
O37 Mg28 2.114 1_565 S
O37 C40 1.252 1_455 S
O38 Mg28 2.251 1_665 S
O38 Mg31 2.079 1_565 S
O38 C40 1.273 . S
C39 O35 1.246 . S
C39 O36 1.259 . S
C40 O37 1.252 1_655 S
C40 O38 1.273 . S
O41 Mg28 2.010 . S
O41 C33 1.249 . S
C42 C43 1.384 1_655 S
C42 C44 1.384 . S
C42 H70 0.931 . S
C43 C42 1.384 1_455 S
C43 C46 1.382 . S
C44 C42 1.384 . S
C44 C45 1.381 1_655 S
C44 H71 0.930 . S
C45 C44 1.381 1_455 S
C45 C47 1.381 . S
C45 C48 1.487 . S
C46 C43 1.382 . S
C46 C47 1.387 . S
C46 H72 0.930 . S
C47 C45 1.381 . S
C47 C46 1.387 . S
C47 H73 0.931 . S
C48 C45 1.487 . S
C48 C55 1.399 . S
C48 N86 1.343 . S
C49 C50 1.384 . S
C49 C51 1.384 . S
C49 H74 0.931 . S
C50 C49 1.384 . S
C50 C53 1.382 . S
C51 C49 1.384 . S
C51 C52 1.381 . S
C51 H75 0.930 . S
C52 C51 1.381 . S
C52 C54 1.381 . S
C52 C55 1.487 . S
C53 C50 1.382 . S
C53 C54 1.387 . S
C53 H76 0.930 1_455 S
C54 C52 1.381 . S
C54 C53 1.387 . S
C54 H77 0.931 1_455 S
C55 C48 1.399 . S
C55 C52 1.487 . S
C55 N87 1.343 . S
C56 C57 1.384 . S
C56 C58 1.384 . S
C56 H78 0.931 . S
C57 C56 1.384 . S
C57 C60 1.382 . S
C58 C56 1.384 . S
C58 C59 1.381 . S
C58 H79 0.930 . S
C59 C58 1.381 . S
C59 C61 1.381 . S
C59 C62 1.487 . S
C60 C57 1.382 . S
C60 C61 1.387 . S
C60 H80 0.930 1_455 S
C61 C59 1.381 . S
C61 C60 1.387 . S
C61 H81 0.931 1_455 S
C62 C59 1.487 . S
C62 C69 1.399 . S
C62 N87 1.343 . S
C63 C64 1.384 1_655 S
C63 C65 1.384 . S
C63 H82 0.931 . S
C64 C63 1.384 1_455 S
C64 C67 1.382 . S
C65 C63 1.384 . S
C65 C66 1.381 1_655 S
C65 H83 0.930 . S
C66 C65 1.381 1_455 S
C66 C68 1.381 . S
C66 C69 1.487 . S
C67 C64 1.382 . S
C67 C68 1.387 . S
C67 H84 0.930 . S
C68 C66 1.381 . S
C68 C67 1.387 . S
C68 H85 0.931 . S
C69 C62 1.399 . S
C69 C66 1.487 . S
C69 N86 1.343 . S
H70 C42 0.931 . S
H71 C44 0.930 . S
H72 C46 0.930 . S
H73 C47 0.931 . S
H74 C49 0.931 . S
H75 C51 0.930 . S
H76 C53 0.930 1_655 S
H77 C54 0.931 1_655 S
H78 C56 0.931 . S
H79 C58 0.930 . S
H80 C60 0.930 1_655 S
H81 C61 0.931 1_655 S
H82 C63 0.931 . S
H83 C65 0.930 . S
H84 C67 0.930 . S
H85 C68 0.931 . S
N86 C48 1.343 . S
N86 C69 1.343 . S
N87 C55 1.343 . S
N87 C62 1.343 . S
C88 C89 1.384 . S
C88 C90 1.384 . S
C88 H116 0.931 . S
C89 C88 1.384 . S
C89 C92 1.382 . S
C90 C88 1.384 . S
C90 C91 1.381 . S
C90 H117 0.930 . S
C91 C90 1.381 . S
C91 C93 1.381 . S
C91 C94 1.487 . S
C92 C89 1.382 . S
C92 C93 1.387 . S
C92 H118 0.930 . S
C93 C91 1.381 . S
C93 C92 1.387 . S
C93 H119 0.931 . S
C94 C91 1.487 . S
C94 C101 1.399 . S
C94 N132 1.343 . S
C95 C96 1.384 . S
C95 C97 1.384 . S
C95 H120 0.931 . S
C96 C95 1.384 . S
C96 C99 1.382 . S
C97 C95 1.384 . S
C97 C98 1.381 . S
C97 H121 0.930 . S
C98 C97 1.381 . S
C98 C100 1.381 . S
C98 C101 1.487 . S
C99 C96 1.382 . S
C99 C100 1.387 . S
C99 H122 0.930 . S
C100 C98 1.381 . S
C100 C99 1.387 . S
C100 H123 0.931 . S
C101 C94 1.399 . S
C101 C98 1.487 . S
C101 N133 1.343 . S
C102 C103 1.384 . S
C102 C104 1.384 . S
C102 H124 0.931 . S
C103 C102 1.384 . S
C103 C106 1.382 . S
C104 C102 1.384 . S
C104 C105 1.381 . S
C104 H125 0.930 . S
C105 C104 1.381 . S
C105 C107 1.381 . S
C105 C108 1.487 . S
C106 C103 1.382 . S
C106 C107 1.387 . S
C106 H126 0.930 . S
C107 C105 1.381 . S
C107 C106 1.387 . S
C107 H127 0.931 . S
C108 C105 1.487 . S
C108 C115 1.399 . S
C108 N133 1.343 . S
C109 C110 1.384 . S
C109 C111 1.384 . S
C109 H128 0.931 . S
C110 C109 1.384 . S
C110 C113 1.382 . S
C111 C109 1.384 . S
C111 C112 1.381 . S
C111 H129 0.930 . S
C112 C111 1.381 . S
C112 C114 1.381 . S
C112 C115 1.487 . S
C113 C110 1.382 . S
C113 C114 1.387 . S
C113 H130 0.930 . S
C114 C112 1.381 . S
C114 C113 1.387 . S
C114 H131 0.931 . S
C115 C108 1.399 . S
C115 C112 1.487 . S
C115 N132 1.343 . S
H116 C88 0.931 . S
H117 C90 0.930 . S
H118 C92 0.930 . S
H119 C93 0.931 . S
H120 C95 0.931 . S
H121 C97 0.930 . S
H122 C99 0.930 . S
H123 C100 0.931 . S
H124 C102 0.931 . S
H125 C104 0.930 . S
H126 C106 0.930 . S
H127 C107 0.931 . S
H128 C109 0.931 . S
H129 C111 0.930 . S
H130 C113 0.930 . S
H131 C114 0.931 . S
N132 C94 1.343 . S
N132 C115 1.343 . S
N133 C101 1.343 . S
N133 C108 1.343 . S
C134 C135 1.384 . S
C134 C136 1.384 . S
C134 H162 0.931 . S
C135 C134 1.384 . S
C135 C138 1.382 . S
C136 C134 1.384 . S
C136 C137 1.381 . S
C136 H163 0.930 . S
C137 C136 1.381 . S
C137 C139 1.381 . S
C137 C140 1.487 . S
C138 C135 1.382 . S
C138 C139 1.387 . S
C138 H164 0.930 . S
C139 C137 1.381 . S
C139 C138 1.387 . S
C139 H165 0.931 . S
C140 C137 1.487 . S
C140 C147 1.399 . S
C140 N178 1.343 . S
C141 C142 1.384 . S
C141 C143 1.384 . S
C141 H166 0.931 . S
C142 C141 1.384 . S
C142 C145 1.382 . S
C143 C141 1.384 . S
C143 C144 1.381 . S
C143 H167 0.930 . S
C144 C143 1.381 . S
C144 C146 1.381 . S
C144 C147 1.487 . S
C145 C142 1.382 . S
C145 C146 1.387 . S
C145 H168 0.930 . S
C146 C144 1.381 . S
C146 C145 1.387 . S
C146 H169 0.931 . S
C147 C140 1.399 . S
C147 C144 1.487 . S
C147 N179 1.343 . S
C148 C149 1.384 . S
C148 C150 1.384 . S
C148 H170 0.931 . S
C149 C148 1.384 . S
C149 C152 1.382 . S
C150 C148 1.384 . S
C150 C151 1.381 . S
C150 H171 0.930 . S
C151 C150 1.381 . S
C151 C153 1.381 . S
C151 C154 1.487 . S
C152 C149 1.382 . S
C152 C153 1.387 . S
C152 H172 0.930 . S
C153 C151 1.381 . S
C153 C152 1.387 . S
C153 H173 0.931 . S
C154 C151 1.487 . S
C154 C161 1.399 . S
C154 N179 1.343 . S
C155 C156 1.384 . S
C155 C157 1.384 . S
C155 H174 0.931 . S
C156 C155 1.384 . S
C156 C159 1.382 . S
C157 C155 1.384 . S
C157 C158 1.381 . S
C157 H175 0.930 . S
C158 C157 1.381 . S
C158 C160 1.381 . S
C158 C161 1.487 . S
C159 C156 1.382 . S
C159 C160 1.387 . S
C159 H176 0.930 . S
C160 C158 1.381 . S
C160 C159 1.387 . S
C160 H177 0.931 . S
C161 C154 1.399 . S
C161 C158 1.487 . S
C161 N178 1.343 . S
H162 C134 0.931 . S
H163 C136 0.930 . S
H164 C138 0.930 . S
H165 C139 0.931 . S
H166 C141 0.931 . S
H167 C143 0.930 . S
H168 C145 0.930 . S
H169 C146 0.931 . S
H170 C148 0.931 . S
H171 C150 0.930 . S
H172 C152 0.930 . S
H173 C153 0.931 . S
H174 C155 0.931 . S
H175 C157 0.930 . S
H176 C159 0.930 . S
H177 C160 0.931 . S
N178 C140 1.343 . S
N178 C161 1.343 . S
N179 C147 1.343 . S
N179 C154 1.343 . S
H180 C192 0.930 . S
H181 C194 0.930 . S
H182 C195 0.930 . S
H183 C199 0.959 . S
H184 C199 0.959 . S
H185 C199 0.961 . S
H186 C200 0.960 . S
H187 C200 0.961 . S
H188 C200 0.959 1_655 S
H189 C203 0.929 . S
H190 C204 0.931 1_655 S
H191 C206 0.930 . S
C192 H180 0.930 . S
C192 C193 1.399 . S
C192 C197 1.399 . S
C193 C192 1.399 . S
C193 C194 1.376 1_455 S
C194 H181 0.930 . S
C194 C193 1.376 1_655 S
C194 C195 1.388 . S
C195 H182 0.930 . S
C195 C194 1.388 . S
C195 C196 1.390 1_655 S
C196 C195 1.390 1_455 S
C196 C197 1.394 . S
C196 C202 1.465 . S
C197 C192 1.399 . S
C197 C196 1.394 . S
C197 C198 1.516 . S
C198 C197 1.516 . S
C198 C199 1.502 . S
C198 C200 1.561 . S
C198 C201 1.526 . S
C199 H183 0.959 . S
C199 H184 0.959 . S
C199 H185 0.961 . S
C199 C198 1.502 . S
C200 H186 0.960 . S
C200 H187 0.961 . S
C200 H188 0.959 1_455 S
C200 C198 1.561 . S
C201 C198 1.526 . S
C201 C202 1.396 . S
C201 C206 1.390 . S
C202 C196 1.465 . S
C202 C201 1.396 . S
C202 C203 1.399 1_455 S
C203 H189 0.929 . S
C203 C202 1.399 1_655 S
C203 C204 1.385 1_655 S
C204 H190 0.931 1_455 S
C204 C203 1.385 1_455 S
C204 C205 1.389 . S
C205 C204 1.389 . S
C205 C206 1.387 . S
C206 H191 0.930 . S
C206 C201 1.390 . S
C206 C205 1.387 . S
H207 C219 0.930 . S
H208 C221 0.930 . S
H209 C222 0.930 . S
H210 C226 0.959 . S
H211 C226 0.959 . S
H212 C226 0.961 . S
H213 C227 0.960 . S
H214 C227 0.961 . S
H215 C227 0.959 . S
H216 C230 0.929 . S
H217 C231 0.931 . S
H218 C233 0.930 . S
C219 H207 0.930 . S
C219 C220 1.399 . S
C219 C224 1.399 . S
C220 C219 1.399 . S
C220 C221 1.376 . S
C221 H208 0.930 . S
C221 C220 1.376 . S
C221 C222 1.388 . S
C222 H209 0.930 . S
C222 C221 1.388 . S
C222 C223 1.390 . S
C223 C222 1.390 . S
C223 C224 1.394 . S
C223 C229 1.465 . S
C224 C219 1.399 . S
C224 C223 1.394 . S
C224 C225 1.516 . S
C225 C224 1.516 . S
C225 C226 1.502 . S
C225 C227 1.561 1_545 S
C225 C228 1.526 . S
C226 H210 0.959 . S
C226 H211 0.959 . S
C226 H212 0.961 . S
C226 C225 1.502 . S
C227 H213 0.960 . S
C227 H214 0.961 . S
C227 H215 0.959 . S
C227 C225 1.561 1_565 S
C228 C225 1.526 . S
C228 C229 1.396 . S
C228 C233 1.390 . S
C229 C223 1.465 . S
C229 C228 1.396 . S
C229 C230 1.399 . S
C230 H216 0.929 . S
C230 C229 1.399 . S
C230 C231 1.385 . S
C231 H217 0.931 . S
C231 C230 1.385 . S
C231 C232 1.389 . S
C232 C231 1.389 . S
C232 C233 1.387 . S
C233 H218 0.930 . S
C233 C228 1.390 . S
C233 C232 1.387 . S
H234 C246 0.930 . S
H235 C248 0.930 . S
H236 C249 0.930 . S
H237 C253 0.959 . S
H238 C253 0.959 . S
H239 C253 0.961 . S
H240 C254 0.960 . S
H241 C254 0.961 . S
H242 C254 0.959 . S
H243 C257 0.929 . S
H244 C258 0.931 . S
H245 C260 0.930 . S
C246 H234 0.930 . S
C246 C247 1.399 . S
C246 C251 1.399 . S
C247 C246 1.399 . S
C247 C248 1.376 . S
C248 H235 0.930 . S
C248 C247 1.376 . S
C248 C249 1.388 . S
C249 H236 0.930 . S
C249 C248 1.388 . S
C249 C250 1.390 . S
C250 C249 1.390 . S
C250 C251 1.394 . S
C250 C256 1.465 . S
C251 C246 1.399 . S
C251 C250 1.394 . S
C251 C252 1.516 . S
C252 C251 1.516 . S
C252 C253 1.502 . S
C252 C254 1.561 . S
C252 C255 1.526 . S
C253 H237 0.959 . S
C253 H238 0.959 . S
C253 H239 0.961 . S
C253 C252 1.502 . S
C254 H240 0.960 . S
C254 H241 0.961 . S
C254 H242 0.959 . S
C254 C252 1.561 . S
C255 C252 1.526 . S
C255 C256 1.396 . S
C255 C260 1.390 . S
C256 C250 1.465 . S
C256 C255 1.396 . S
C256 C257 1.399 . S
C257 H243 0.929 . S
C257 C256 1.399 . S
C257 C258 1.385 . S
C258 H244 0.931 . S
C258 C257 1.385 . S
C258 C259 1.389 . S
C259 C258 1.389 . S
C259 C260 1.387 . S
C260 H245 0.930 . S
C260 C255 1.390 . S
C260 C259 1.387 . S
H261 C273 0.930 . S
H262 C275 0.930 . S
H263 C276 0.930 . S
H264 C280 0.959 . S
H265 C280 0.959 1_655 S
H266 C280 0.961 1_655 S
H267 C281 0.960 . S
H268 C281 0.961 . S
H269 C281 0.959 . S
H270 C284 0.929 . S
H271 C285 0.931 . S
H272 C287 0.930 1_655 S
C273 H261 0.930 . S
C273 C274 1.399 . S
C273 C278 1.399 . S
C274 C273 1.399 . S
C274 C275 1.376 . S
C275 H262 0.930 . S
C275 C274 1.376 . S
C275 C276 1.388 . S
C276 H263 0.930 . S
C276 C275 1.388 . S
C276 C277 1.390 . S
C277 C276 1.390 . S
C277 C278 1.394 . S
C277 C283 1.465 . S
C278 C273 1.399 . S
C278 C277 1.394 . S
C278 C279 1.516 . S
C279 C278 1.516 . S
C279 C280 1.502 . S
C279 C281 1.561 1_455 S
C279 C282 1.526 . S
C280 H264 0.959 . S
C280 H265 0.959 1_455 S
C280 H266 0.961 1_455 S
C280 C279 1.502 . S
C281 H267 0.960 . S
C281 H268 0.961 . S
C281 H269 0.959 . S
C281 C279 1.561 1_655 S
C282 C279 1.526 . S
C282 C283 1.396 . S
C282 C287 1.390 . S
C283 C277 1.465 . S
C283 C282 1.396 . S
C283 C284 1.399 . S
C284 H270 0.929 . S
C284 C283 1.399 . S
C284 C285 1.385 . S
C285 H271 0.931 . S
C285 C284 1.385 . S
C285 C286 1.389 . S
C286 C285 1.389 . S
C286 C287 1.387 . S
C287 H272 0.930 1_455 S
C287 C282 1.390 . S
C287 C286 1.387 . S
H288 C300 0.930 . S
H289 C302 0.930 . S
H290 C303 0.930 1_565 S
H291 C307 0.959 . S
H292 C307 0.959 . S
H293 C307 0.961 . S
H294 C308 0.960 . S
H295 C308 0.961 . S
H296 C308 0.959 . S
H297 C311 0.929 1_565 S
H298 C312 0.931 . S
H299 C314 0.930 . S
C300 H288 0.930 . S
C300 C301 1.399 . S
C300 C305 1.399 . S
C301 C300 1.399 . S
C301 C302 1.376 . S
C302 H289 0.930 . S
C302 C301 1.376 . S
C302 C303 1.388 . S
C303 H290 0.930 1_545 S
C303 C302 1.388 . S
C303 C304 1.390 . S
C304 C303 1.390 . S
C304 C305 1.394 . S
C304 C310 1.465 . S
C305 C300 1.399 . S
C305 C304 1.394 . S
C305 C306 1.516 . S
C306 C305 1.516 . S
C306 C307 1.502 . S
C306 C308 1.561 . S
C306 C309 1.526 . S
C307 H291 0.959 . S
C307 H292 0.959 . S
C307 H293 0.961 . S
C307 C306 1.502 . S
C308 H294 0.960 . S
C308 H295 0.961 . S
C308 H296 0.959 . S
C308 C306 1.561 . S
C309 C306 1.526 . S
C309 C310 1.396 . S
C309 C314 1.390 . S
C310 C304 1.465 . S
C310 C309 1.396 . S
C310 C311 1.399 . S
C311 H297 0.929 1_545 S
C311 C310 1.399 . S
C311 C312 1.385 . S
C312 H298 0.931 . S
C312 C311 1.385 . S
C312 C313 1.389 . S
C313 C312 1.389 . S
C313 C314 1.387 . S
C314 H299 0.930 . S
C314 C309 1.390 . S
C314 C313 1.387 . S
H315 C327 0.930 . S
H316 C329 0.930 . S
H317 C330 0.930 . S
H318 C334 0.959 . S
H319 C334 0.959 . S
H320 C334 0.961 . S
H321 C335 0.960 . S
H322 C335 0.961 . S
H323 C335 0.959 . S
H324 C338 0.929 . S
H325 C339 0.931 . S
H326 C341 0.930 . S
C327 H315 0.930 . S
C327 C328 1.399 . S
C327 C332 1.399 . S
C328 C327 1.399 . S
C328 C329 1.376 . S
C329 H316 0.930 . S
C329 C328 1.376 . S
C329 C330 1.388 . S
C330 H317 0.930 . S
C330 C329 1.388 . S
C330 C331 1.390 . S
C331 C330 1.390 . S
C331 C332 1.394 . S
C331 C337 1.465 . S
C332 C327 1.399 . S
C332 C331 1.394 . S
C332 C333 1.516 . S
C333 C332 1.516 . S
C333 C334 1.502 . S
C333 C335 1.561 . S
C333 C336 1.526 . S
C334 H318 0.959 . S
C334 H319 0.959 . S
C334 H320 0.961 . S
C334 C333 1.502 . S
C335 H321 0.960 . S
C335 H322 0.961 . S
C335 H323 0.959 . S
C335 C333 1.561 . S
C336 C333 1.526 . S
C336 C337 1.396 . S
C336 C341 1.390 . S
C337 C331 1.465 . S
C337 C336 1.396 . S
C337 C338 1.399 . S
C338 H324 0.929 . S
C338 C337 1.399 . S
C338 C339 1.385 . S
C339 H325 0.931 . S
C339 C338 1.385 . S
C339 C340 1.389 . S
C340 C339 1.389 . S
C340 C341 1.387 . S
C341 H326 0.930 . S
C341 C336 1.390 . S
C341 C340 1.387 . S
H342 C354 0.930 . S
H343 C356 0.930 . S
H344 C357 0.930 . S
H345 C361 0.959 . S
H346 C361 0.959 1_565 S
H347 C361 0.961 1_565 S
H348 C362 0.960 . S
H349 C362 0.961 . S
H350 C362 0.959 . S
H351 C365 0.929 . S
H352 C366 0.931 . S
H353 C368 0.930 . S
C354 H342 0.930 . S
C354 C355 1.399 . S
C354 C359 1.399 . S
C355 C354 1.399 . S
C355 C356 1.376 . S
C356 H343 0.930 . S
C356 C355 1.376 . S
C356 C357 1.388 . S
C357 H344 0.930 . S
C357 C356 1.388 . S
C357 C358 1.390 . S
C358 C357 1.390 . S
C358 C359 1.394 . S
C358 C364 1.465 . S
C359 C354 1.399 . S
C359 C358 1.394 . S
C359 C360 1.516 . S
C360 C359 1.516 . S
C360 C361 1.502 . S
C360 C362 1.561 1_545 S
C360 C363 1.526 . S
C361 H345 0.959 . S
C361 H346 0.959 1_545 S
C361 H347 0.961 1_545 S
C361 C360 1.502 . S
C362 H348 0.960 . S
C362 H349 0.961 . S
C362 H350 0.959 . S
C362 C360 1.561 1_565 S
C363 C360 1.526 . S
C363 C364 1.396 . S
C363 C368 1.390 . S
C364 C358 1.465 . S
C364 C363 1.396 . S
C364 C365 1.399 . S
C365 H351 0.929 . S
C365 C364 1.399 . S
C365 C366 1.385 . S
C366 H352 0.931 . S
C366 C365 1.385 . S
C366 C367 1.389 . S
C367 C366 1.389 . S
C367 C368 1.387 . S
C368 H353 0.930 . S
C368 C363 1.390 . S
C368 C367 1.387 . S
H369 C381 0.930 . S
H370 C383 0.930 1_545 S
H371 C384 0.930 . S
H372 C388 0.959 . S
H373 C388 0.959 . S
H374 C388 0.961 1_554 S
H375 C389 0.960 . S
H376 C389 0.961 . S
H377 C389 0.959 . S
H378 C392 0.929 . S
H379 C393 0.931 . S
H380 C395 0.930 . S
C381 H369 0.930 . S
C381 C382 1.399 . S
C381 C386 1.399 1_554 S
C382 C381 1.399 . S
C382 C383 1.376 1_554 S
C383 H370 0.930 1_565 S
C383 C382 1.376 1_556 S
C383 C384 1.388 . S
C384 H371 0.930 . S
C384 C383 1.388 . S
C384 C385 1.390 . S
C385 C384 1.390 . S
C385 C386 1.394 . S
C385 C391 1.465 . S
C386 C381 1.399 1_556 S
C386 C385 1.394 . S
C386 C387 1.516 . S
C387 C386 1.516 . S
C387 C388 1.502 . S
C387 C389 1.561 1_556 S
C387 C390 1.526 . S
C388 H372 0.959 . S
C388 H373 0.959 . S
C388 H374 0.961 1_556 S
C388 C387 1.502 . S
C389 H375 0.960 . S
C389 H376 0.961 . S
C389 H377 0.959 . S
C389 C387 1.561 1_554 S
C390 C387 1.526 . S
C390 C391 1.396 . S
C390 C395 1.390 . S
C391 C385 1.465 . S
C391 C390 1.396 . S
C391 C392 1.399 . S
C392 H378 0.929 . S
C392 C391 1.399 . S
C392 C393 1.385 . S
C393 H379 0.931 . S
C393 C392 1.385 . S
C393 C394 1.389 . S
C394 C393 1.389 . S
C394 C395 1.387 . S
C395 H380 0.930 . S
C395 C390 1.390 . S
C395 C394 1.387 . S
H396 C408 0.930 . S
H397 C410 0.930 . S
H398 C411 0.930 . S
H399 C415 0.959 . S
H400 C415 0.959 . S
H401 C415 0.961 . S
H402 C416 0.960 . S
H403 C416 0.961 . S
H404 C416 0.959 . S
H405 C419 0.929 . S
H406 C420 0.931 . S
H407 C422 0.930 . S
C408 H396 0.930 . S
C408 C409 1.399 1_455 S
C408 C413 1.399 . S
C409 C408 1.399 1_655 S
C409 C410 1.376 . S
C410 H397 0.930 . S
C410 C409 1.376 . S
C410 C411 1.388 . S
C411 H398 0.930 . S
C411 C410 1.388 . S
C411 C412 1.390 . S
C412 C411 1.390 . S
C412 C413 1.394 1_655 S
C412 C418 1.465 . S
C413 C408 1.399 . S
C413 C412 1.394 1_455 S
C413 C414 1.516 . S
C414 C413 1.516 . S
C414 C415 1.502 . S
C414 C416 1.561 . S
C414 C417 1.526 . S
C415 H399 0.959 . S
C415 H400 0.959 . S
C415 H401 0.961 . S
C415 C414 1.502 . S
C416 H402 0.960 . S
C416 H403 0.961 . S
C416 H404 0.959 . S
C416 C414 1.561 . S
C417 C414 1.526 . S
C417 C418 1.396 1_455 S
C417 C422 1.390 . S
C418 C412 1.465 . S
C418 C417 1.396 1_655 S
C418 C419 1.399 . S
C419 H405 0.929 . S
C419 C418 1.399 . S
C419 C420 1.385 . S
C420 H406 0.931 . S
C420 C419 1.385 . S
C420 C421 1.389 1_655 S
C421 C420 1.389 1_455 S
C421 C422 1.387 . S
C422 H407 0.930 . S
C422 C417 1.390 . S
C422 C421 1.387 . S
H423 C435 0.930 . S
H424 C437 0.930 . S
H425 C438 0.930 . S
H426 C442 0.959 . S
H427 C442 0.959 . S
H428 C442 0.961 . S
H429 C443 0.960 . S
H430 C443 0.961 . S
H431 C443 0.959 . S
H432 C446 0.928 . S
H433 C447 0.931 1_565 S
H434 C449 0.930 . S
C435 H423 0.930 . S
C435 C436 1.399 . S
C435 C440 1.399 . S
C436 C435 1.399 . S
C436 C437 1.376 1_545 S
C437 H424 0.930 . S
C437 C436 1.376 1_565 S
C437 C438 1.388 . S
C438 H425 0.930 . S
C438 C437 1.388 . S
C438 C439 1.390 1_565 S
C439 C438 1.390 1_545 S
C439 C440 1.394 . S
C439 C445 1.465 . S
C440 C435 1.399 . S
C440 C439 1.394 . S
C440 C441 1.516 . S
C441 C440 1.516 . S
C441 C442 1.502 . S
C441 C443 1.561 . S
C441 C444 1.526 . S
C442 H426 0.959 . S
C442 H427 0.959 . S
C442 H428 0.961 . S
C442 C441 1.502 . S
C443 H429 0.960 . S
C443 H430 0.961 . S
C443 H431 0.959 . S
C443 C441 1.561 . S
C444 C441 1.526 . S
C444 C445 1.396 . S
C444 C449 1.390 . S
C445 C439 1.465 . S
C445 C444 1.396 . S
C445 C446 1.400 1_545 S
C446 H432 0.928 . S
C446 C445 1.400 1_565 S
C446 C447 1.385 1_565 S
C447 H433 0.931 1_545 S
C447 C446 1.385 1_545 S
C447 C448 1.389 . S
C448 C447 1.389 . S
C448 C449 1.387 . S
C449 H434 0.930 . S
C449 C444 1.390 . S
C449 C448 1.387 . S
H450 C462 0.930 . S
H451 C464 0.930 . S
H452 C465 0.930 . S
H453 C469 0.959 . S
H454 C469 0.959 . S
H455 C469 0.961 1_554 S
H456 C470 0.960 . S
H457 C470 0.961 . S
H458 C470 0.959 . S
H459 C473 0.929 . S
H460 C474 0.931 . S
H461 C476 0.930 . S
C462 H450 0.930 . S
C462 C463 1.399 . S
C462 C467 1.399 1_554 S
C463 C462 1.399 . S
C463 C464 1.376 1_554 S
C464 H451 0.930 . S
C464 C463 1.376 1_556 S
C464 C465 1.388 . S
C465 H452 0.930 . S
C465 C464 1.388 . S
C465 C466 1.390 . S
C466 C465 1.390 . S
C466 C467 1.394 . S
C466 C472 1.465 . S
C467 C462 1.399 1_556 S
C467 C466 1.394 . S
C467 C468 1.516 . S
C468 C467 1.516 . S
C468 C469 1.502 . S
C468 C470 1.561 1_556 S
C468 C471 1.526 . S
C469 H453 0.959 . S
C469 H454 0.959 . S
C469 H455 0.961 1_556 S
C469 C468 1.502 . S
C470 H456 0.960 . S
C470 H457 0.961 . S
C470 H458 0.959 . S
C470 C468 1.561 1_554 S
C471 C468 1.526 . S
C471 C472 1.396 . S
C471 C476 1.390 . S
C472 C466 1.465 . S
C472 C471 1.396 . S
C472 C473 1.399 . S
C473 H459 0.929 . S
C473 C472 1.399 . S
C473 C474 1.385 . S
C474 H460 0.931 . S
C474 C473 1.385 . S
C474 C475 1.389 . S
C475 C474 1.389 . S
C475 C476 1.387 . S
C476 H461 0.930 . S
C476 C471 1.390 . S
C476 C475 1.387 . S
H477 C489 0.930 . S
H478 C491 0.930 . S
H479 C492 0.930 . S
H480 C496 0.959 . S
H481 C496 0.959 . S
H482 C496 0.961 . S
H483 C497 0.960 . S
H484 C497 0.961 . S
H485 C497 0.959 . S
H486 C500 0.926 . S
H487 C501 0.931 1_655 S
H488 C503 0.930 . S
C489 H477 0.930 . S
C489 C490 1.399 . S
C489 C494 1.399 . S
C490 C489 1.399 . S
C490 C491 1.376 . S
C491 H478 0.930 . S
C491 C490 1.376 . S
C491 C492 1.388 . S
C492 H479 0.930 . S
C492 C491 1.388 . S
C492 C493 1.390 . S
C493 C492 1.390 . S
C493 C494 1.394 . S
C493 C499 1.465 . S
C494 C489 1.399 . S
C494 C493 1.394 . S
C494 C495 1.516 . S
C495 C494 1.516 . S
C495 C496 1.502 . S
C495 C497 1.561 . S
C495 C498 1.526 . S
C496 H480 0.959 . S
C496 H481 0.959 . S
C496 H482 0.961 . S
C496 C495 1.502 . S
C497 H483 0.960 . S
C497 H484 0.961 . S
C497 H485 0.959 . S
C497 C495 1.561 . S
C498 C495 1.526 . S
C498 C499 1.396 . S
C498 C503 1.390 . S
C499 C493 1.465 . S
C499 C498 1.396 . S
C499 C500 1.399 . S
C500 H486 0.926 . S
C500 C499 1.399 . S
C500 C501 1.385 . S
C501 H487 0.931 1_455 S
C501 C500 1.385 . S
C501 C502 1.389 . S
C502 C501 1.389 . S
C502 C503 1.387 . S
C503 H488 0.930 . S
C503 C498 1.390 . S
C503 C502 1.387 . S
C205 C50 1.371 . S
C193 C11 1.386 . S
C220 C26 1.527 . S
C232 C89 1.530 . S
C247 C40 1.418 . S
C259 C156 1.412 . S
C274 C5 1.245 . S
C286 C57 1.379 . S
C313 C110 1.516 . S
C301 C18 1.494 . S
C328 C32 1.382 . S
C340 C135 1.405 . S
C367 C96 1.264 . S
C355 C39 1.237 . S
C382 C4 1.377 1_565 S
C394 C149 1.409 . S
C421 C64 1.386 . S
C409 C19 1.221 . S
C448 C103 1.300 . S
C436 C33 1.173 . S
C475 C142 1.413 . S
C463 C12 1.434 . S
C490 C25 1.393 . S
C502 C43 1.388 . S
