# Generated by pormake.
# Topology ptr, (4,4)-cn, num edge types: 1
# Building blocks:
#     Node 0, Type 0, BuildingBlock: QUQFOY_clean_sbu_3, # of connection points: 4
#     Node 1, Type 0, BuildingBlock: QUQFOY_clean_sbu_3, # of connection points: 4
#     Node 2, Type 0, BuildingBlock: QUQFOY_clean_sbu_3, # of connection points: 4
#     Node 3, Type 0, BuildingBlock: QUQFOY_clean_sbu_3, # of connection points: 4
#     Node 4, Type 0, BuildingBlock: QUQFOY_clean_sbu_3, # of connection points: 4
#     Node 5, Type 0, BuildingBlock: QUQFOY_clean_sbu_3, # of connection points: 4
#     Node 6, Type 0, BuildingBlock: QUQFOY_clean_sbu_3, # of connection points: 4
#     Node 7, Type 0, BuildingBlock: QUQFOY_clean_sbu_3, # of connection points: 4
#     Node 8, Type 0, BuildingBlock: QUQFOY_clean_sbu_3, # of connection points: 4
#     Node 9, Type 0, BuildingBlock: QUQFOY_clean_sbu_3, # of connection points: 4
#     Node 10, Type 0, BuildingBlock: QUQFOY_clean_sbu_3, # of connection points: 4
#     Node 11, Type 0, BuildingBlock: QUQFOY_clean_sbu_3, # of connection points: 4
#     Node 12, Type 0, BuildingBlock: QUQFOY_clean_sbu_3, # of connection points: 4
#     Node 13, Type 0, BuildingBlock: QUQFOY_clean_sbu_3, # of connection points: 4
#     Node 14, Type 0, BuildingBlock: QUQFOY_clean_sbu_3, # of connection points: 4
#     Node 15, Type 0, BuildingBlock: QUQFOY_clean_sbu_3, # of connection points: 4
#     Node 16, Type 0, BuildingBlock: QUQFOY_clean_sbu_3, # of connection points: 4
#     Node 17, Type 0, BuildingBlock: QUQFOY_clean_sbu_3, # of connection points: 4
#     Node 18, Type 1, BuildingBlock: MIFKUJ_clean_linker_1, # of connection points: 4
#     Node 19, Type 1, BuildingBlock: MIFKUJ_clean_linker_1, # of connection points: 4
#     Node 20, Type 1, BuildingBlock: MIFKUJ_clean_linker_1, # of connection points: 4
#     Node 21, Type 1, BuildingBlock: MIFKUJ_clean_linker_1, # of connection points: 4
#     Node 22, Type 1, BuildingBlock: MIFKUJ_clean_linker_1, # of connection points: 4
#     Node 23, Type 1, BuildingBlock: MIFKUJ_clean_linker_1, # of connection points: 4
#     Node 24, Type 1, BuildingBlock: MIFKUJ_clean_linker_1, # of connection points: 4
#     Node 25, Type 1, BuildingBlock: MIFKUJ_clean_linker_1, # of connection points: 4
#     Node 26, Type 1, BuildingBlock: MIFKUJ_clean_linker_1, # of connection points: 4
#     Node 27, Type 1, BuildingBlock: MIFKUJ_clean_linker_1, # of connection points: 4
#     Node 28, Type 1, BuildingBlock: MIFKUJ_clean_linker_1, # of connection points: 4
#     Node 29, Type 1, BuildingBlock: MIFKUJ_clean_linker_1, # of connection points: 4
#     Node 30, Type 1, BuildingBlock: MIFKUJ_clean_linker_1, # of connection points: 4
#     Node 31, Type 1, BuildingBlock: MIFKUJ_clean_linker_1, # of connection points: 4
#     Node 32, Type 1, BuildingBlock: MIFKUJ_clean_linker_1, # of connection points: 4
#     Node 33, Type 1, BuildingBlock: MIFKUJ_clean_linker_1, # of connection points: 4
#     Node 34, Type 1, BuildingBlock: MIFKUJ_clean_linker_1, # of connection points: 4
#     Node 35, Type 1, BuildingBlock: MIFKUJ_clean_linker_1, # of connection points: 4
#     Edge 36, Type (0, 1), BuildingBlock: MIFKUJ_clean_linker_0, # of connection points: 2
#     Edge 37, Type (0, 1), BuildingBlock: MIFKUJ_clean_linker_0, # of connection points: 2
#     Edge 38, Type (0, 1), BuildingBlock: MIFKUJ_clean_linker_0, # of connection points: 2
#     Edge 39, Type (0, 1), BuildingBlock: MIFKUJ_clean_linker_0, # of connection points: 2
#     Edge 40, Type (0, 1), BuildingBlock: MIFKUJ_clean_linker_0, # of connection points: 2
#     Edge 41, Type (0, 1), BuildingBlock: MIFKUJ_clean_linker_0, # of connection points: 2
#     Edge 42, Type (0, 1), BuildingBlock: MIFKUJ_clean_linker_0, # of connection points: 2
#     Edge 43, Type (0, 1), BuildingBlock: MIFKUJ_clean_linker_0, # of connection points: 2
#     Edge 44, Type (0, 1), BuildingBlock: MIFKUJ_clean_linker_0, # of connection points: 2
#     Edge 45, Type (0, 1), BuildingBlock: MIFKUJ_clean_linker_0, # of connection points: 2
#     Edge 46, Type (0, 1), BuildingBlock: MIFKUJ_clean_linker_0, # of connection points: 2
#     Edge 47, Type (0, 1), BuildingBlock: MIFKUJ_clean_linker_0, # of connection points: 2
#     Edge 48, Type (0, 1), BuildingBlock: MIFKUJ_clean_linker_0, # of connection points: 2
#     Edge 49, Type (0, 1), BuildingBlock: MIFKUJ_clean_linker_0, # of connection points: 2
#     Edge 50, Type (0, 1), BuildingBlock: MIFKUJ_clean_linker_0, # of connection points: 2
#     Edge 51, Type (0, 1), BuildingBlock: MIFKUJ_clean_linker_0, # of connection points: 2
#     Edge 52, Type (0, 1), BuildingBlock: MIFKUJ_clean_linker_0, # of connection points: 2
#     Edge 53, Type (0, 1), BuildingBlock: MIFKUJ_clean_linker_0, # of connection points: 2
#     Edge 54, Type (0, 1), BuildingBlock: MIFKUJ_clean_linker_0, # of connection points: 2
#     Edge 55, Type (0, 1), BuildingBlock: MIFKUJ_clean_linker_0, # of connection points: 2
#     Edge 56, Type (0, 1), BuildingBlock: MIFKUJ_clean_linker_0, # of connection points: 2
#     Edge 57, Type (0, 1), BuildingBlock: MIFKUJ_clean_linker_0, # of connection points: 2
#     Edge 58, Type (0, 1), BuildingBlock: MIFKUJ_clean_linker_0, # of connection points: 2
#     Edge 59, Type (0, 1), BuildingBlock: MIFKUJ_clean_linker_0, # of connection points: 2
#     Edge 60, Type (0, 1), BuildingBlock: MIFKUJ_clean_linker_0, # of connection points: 2
#     Edge 61, Type (0, 1), BuildingBlock: MIFKUJ_clean_linker_0, # of connection points: 2
#     Edge 62, Type (0, 1), BuildingBlock: MIFKUJ_clean_linker_0, # of connection points: 2
#     Edge 63, Type (0, 1), BuildingBlock: MIFKUJ_clean_linker_0, # of connection points: 2
#     Edge 64, Type (0, 1), BuildingBlock: MIFKUJ_clean_linker_0, # of connection points: 2
#     Edge 65, Type (0, 1), BuildingBlock: MIFKUJ_clean_linker_0, # of connection points: 2
#     Edge 66, Type (0, 1), BuildingBlock: MIFKUJ_clean_linker_0, # of connection points: 2
#     Edge 67, Type (0, 1), BuildingBlock: MIFKUJ_clean_linker_0, # of connection points: 2
#     Edge 68, Type (0, 1), BuildingBlock: MIFKUJ_clean_linker_0, # of connection points: 2
#     Edge 69, Type (0, 1), BuildingBlock: MIFKUJ_clean_linker_0, # of connection points: 2
#     Edge 70, Type (0, 1), BuildingBlock: MIFKUJ_clean_linker_0, # of connection points: 2
#     Edge 71, Type (0, 1), BuildingBlock: MIFKUJ_clean_linker_0, # of connection points: 2
#     Edge 72, Type (0, 1), BuildingBlock: MIFKUJ_clean_linker_0, # of connection points: 2
#     Edge 73, Type (0, 1), BuildingBlock: MIFKUJ_clean_linker_0, # of connection points: 2
#     Edge 74, Type (0, 1), BuildingBlock: MIFKUJ_clean_linker_0, # of connection points: 2
#     Edge 75, Type (0, 1), BuildingBlock: MIFKUJ_clean_linker_0, # of connection points: 2
#     Edge 76, Type (0, 1), BuildingBlock: MIFKUJ_clean_linker_0, # of connection points: 2
#     Edge 77, Type (0, 1), BuildingBlock: MIFKUJ_clean_linker_0, # of connection points: 2
#     Edge 78, Type (0, 1), BuildingBlock: MIFKUJ_clean_linker_0, # of connection points: 2
#     Edge 79, Type (0, 1), BuildingBlock: MIFKUJ_clean_linker_0, # of connection points: 2
#     Edge 80, Type (0, 1), BuildingBlock: MIFKUJ_clean_linker_0, # of connection points: 2
#     Edge 81, Type (0, 1), BuildingBlock: MIFKUJ_clean_linker_0, # of connection points: 2
#     Edge 82, Type (0, 1), BuildingBlock: MIFKUJ_clean_linker_0, # of connection points: 2
#     Edge 83, Type (0, 1), BuildingBlock: MIFKUJ_clean_linker_0, # of connection points: 2
#     Edge 84, Type (0, 1), BuildingBlock: MIFKUJ_clean_linker_0, # of connection points: 2
#     Edge 85, Type (0, 1), BuildingBlock: MIFKUJ_clean_linker_0, # of connection points: 2
#     Edge 86, Type (0, 1), BuildingBlock: MIFKUJ_clean_linker_0, # of connection points: 2
#     Edge 87, Type (0, 1), BuildingBlock: MIFKUJ_clean_linker_0, # of connection points: 2
#     Edge 88, Type (0, 1), BuildingBlock: MIFKUJ_clean_linker_0, # of connection points: 2
#     Edge 89, Type (0, 1), BuildingBlock: MIFKUJ_clean_linker_0, # of connection points: 2
#     Edge 90, Type (0, 1), BuildingBlock: MIFKUJ_clean_linker_0, # of connection points: 2
#     Edge 91, Type (0, 1), BuildingBlock: MIFKUJ_clean_linker_0, # of connection points: 2
#     Edge 92, Type (0, 1), BuildingBlock: MIFKUJ_clean_linker_0, # of connection points: 2
#     Edge 93, Type (0, 1), BuildingBlock: MIFKUJ_clean_linker_0, # of connection points: 2
#     Edge 94, Type (0, 1), BuildingBlock: MIFKUJ_clean_linker_0, # of connection points: 2
#     Edge 95, Type (0, 1), BuildingBlock: MIFKUJ_clean_linker_0, # of connection points: 2
#     Edge 96, Type (0, 1), BuildingBlock: MIFKUJ_clean_linker_0, # of connection points: 2
#     Edge 97, Type (0, 1), BuildingBlock: MIFKUJ_clean_linker_0, # of connection points: 2
#     Edge 98, Type (0, 1), BuildingBlock: MIFKUJ_clean_linker_0, # of connection points: 2
#     Edge 99, Type (0, 1), BuildingBlock: MIFKUJ_clean_linker_0, # of connection points: 2
#     Edge 100, Type (0, 1), BuildingBlock: MIFKUJ_clean_linker_0, # of connection points: 2
#     Edge 101, Type (0, 1), BuildingBlock: MIFKUJ_clean_linker_0, # of connection points: 2
#     Edge 102, Type (0, 1), BuildingBlock: MIFKUJ_clean_linker_0, # of connection points: 2
#     Edge 103, Type (0, 1), BuildingBlock: MIFKUJ_clean_linker_0, # of connection points: 2
#     Edge 104, Type (0, 1), BuildingBlock: MIFKUJ_clean_linker_0, # of connection points: 2
#     Edge 105, Type (0, 1), BuildingBlock: MIFKUJ_clean_linker_0, # of connection points: 2
#     Edge 106, Type (0, 1), BuildingBlock: MIFKUJ_clean_linker_0, # of connection points: 2
#     Edge 107, Type (0, 1), BuildingBlock: MIFKUJ_clean_linker_0, # of connection points: 2
# Relax obj value: 0.033
# Max RMSD: 0.121
# Mean RMSD: 0.056
data_MOF--net-ptr--node1-QUQFOY_clean_sbu_3--node2-MIFKUJ_clean_linker_1--edge1-MIFKUJ_clean_linker_0
_symmetry_space_group_name_H-M    P1
_symmetry_Int_Tables_number       1
_symmetry_cell_setting            triclinic
loop_
_symmetry_equiv_pos_as_xyz
'x, y, z'
_cell_length_a     112.44839
_cell_length_b     113.06465
_cell_length_c     78.137392
_cell_angle_alpha  90.338614
_cell_angle_beta   89.544762
_cell_angle_gamma 120.50219
loop_
_atom_site_label
_atom_site_type_symbol
_atom_site_fract_x
_atom_site_fract_y
_atom_site_fract_z
_atom_type_partial_charge
C0 C 0.97183 0.32102 0.00172 0.0
O1 O 0.96537 0.32705 0.00626 0.0
Cd2 Cd 0.97626 0.34991 0.01764 0.0
O3 O 0.98484 0.32681 0.00382 0.0
Cd4 Cd 0.00424 0.34838 0.01582 0.0
C5 C -7e-05 0.36701 0.98515 0.0
O6 O 0.99198 0.352 0.03934 0.0
O7 O 0.01243 0.36883 0.03354 0.0
O8 O 0.01151 0.33502 0.03208 0.0
C9 C 0.00176 0.36397 0.04299 0.0
O10 O 0.98901 0.36425 0.99341 0.0
C11 C 0.0235 0.34023 0.02561 0.0
O12 O 0.00748 0.36221 0.98989 0.0
O13 O 0.02665 0.34921 0.014 0.0
C14 C 0.6401 0.67461 0.02052 0.0
O15 O 0.62753 0.66888 0.01606 0.0
Cd16 Cd 0.6155 0.64696 0.00206 0.0
O17 O 0.64735 0.66922 0.01672 0.0
Cd18 Cd 0.64515 0.64923 0.00048 0.0
C19 C 0.62241 0.62756 0.02992 0.0
O20 O 0.62948 0.64826 0.97824 0.0
O21 O 0.63267 0.63103 0.97935 0.0
O22 O 0.66762 0.6655 0.98837 0.0
C23 C 0.62712 0.63693 0.9719 0.0
O24 O 0.61378 0.63022 0.02309 0.0
C25 C 0.673 0.65814 0.99078 0.0
O26 O 0.63496 0.63364 0.02493 0.0
O27 O 0.66548 0.64661 0.99802 0.0
C28 C 0.32484 0.97025 0.02552 0.0
O29 O 0.33132 0.96394 0.02264 0.0
Cd30 Cd 0.35292 0.97403 0.00716 0.0
O31 O 0.32975 0.98256 0.02051 0.0
Cd32 Cd 0.35022 0.00059 0.00561 0.0
C33 C 0.37294 0.00084 0.03389 0.0
O34 O 0.35131 0.98607 0.98311 0.0
O35 O 0.36855 0.00686 0.9845 0.0
O36 O 0.33527 0.00664 0.99078 0.0
C37 C 0.36254 0.99544 0.97668 0.0
O38 O 0.37083 0.98989 0.02647 0.0
C39 C 0.3413 0.01905 0.99569 0.0
O40 O 0.36592 0.00643 0.03012 0.0
O41 O 0.35149 0.02297 0.00569 0.0
C42 C 0.96398 0.6429 0.99861 0.0
O43 O 0.9575 0.63074 0.00443 0.0
Cd44 Cd 0.96904 0.62032 0.0178 0.0
O45 O 0.977 0.65027 0.00037 0.0
Cd46 Cd 0.99626 0.649 0.01352 0.0
C47 C 0.99201 0.62432 0.98565 0.0
O48 O 0.98428 0.63572 0.03916 0.0
O49 O 0.00409 0.6379 0.03336 0.0
O50 O 0.00346 0.67201 0.02354 0.0
C51 C 0.99398 0.63379 0.04363 0.0
O52 O 0.98154 0.61647 0.99484 0.0
C53 C 0.01612 0.67716 0.01974 0.0
O54 O -0.00095 0.63716 0.98873 0.0
O55 O 0.01961 0.66928 0.0125 0.0
C56 C 0.32522 0.35756 0.02199 0.0
O57 O 0.33051 0.36982 0.0167 0.0
Cd58 Cd 0.35287 0.38206 0.00357 0.0
O59 O 0.3312 0.35071 0.0193 0.0
Cd60 Cd 0.35168 0.35315 0.00384 0.0
C61 C 0.37267 0.37664 0.03277 0.0
O62 O 0.35249 0.36788 0.98065 0.0
O63 O 0.37035 0.36566 0.98316 0.0
O64 O 0.33665 0.33119 0.99035 0.0
C65 C 0.36412 0.37047 0.97484 0.0
O66 O 0.36945 0.3847 0.02555 0.0
C67 C 0.34345 0.32556 0.99475 0.0
O68 O 0.36724 0.36417 0.028 0.0
O69 O 0.3541 0.33271 0.00384 0.0
C70 C 0.67959 0.02945 -0.00039 0.0
O71 O 0.67427 0.03648 0.00451 0.0
Cd72 Cd 0.65183 0.02656 0.01735 0.0
O73 O 0.67333 0.01656 0.00228 0.0
Cd74 Cd 0.65175 -0.00154 0.01628 0.0
C75 C 0.63291 0.00261 0.98609 0.0
O76 O 0.64999 0.01174 0.04025 0.0
O77 O 0.63193 0.99214 0.03478 0.0
O78 O 0.66656 0.99093 0.02879 0.0
C79 C 0.63777 0.00262 0.04438 0.0
O80 O 0.6362 0.0137 0.9941 0.0
C81 C 0.65867 0.97826 0.02566 0.0
O82 O 0.63759 0.99496 0.99073 0.0
O83 O 0.64756 0.97488 0.01773 0.0
C84 C 0.6367 0.65855 0.32863 0.0
O85 O 0.63019 0.66474 0.3321 0.0
Cd86 Cd 0.63986 0.68624 0.34706 0.0
O87 O 0.64918 0.66355 0.33334 0.0
Cd88 Cd 0.66725 0.68371 0.34927 0.0
C89 C 0.66737 0.70628 0.32044 0.0
O90 O 0.65198 0.68461 0.37101 0.0
O91 O 0.67321 0.70101 0.37174 0.0
O92 O 0.6731 0.66778 0.36215 0.0
C93 C 0.66118 0.69548 0.37817 0.0
O94 O 0.65569 0.70324 0.32679 0.0
C95 C 0.68589 0.67466 0.35861 0.0
O96 O 0.67372 0.70029 0.32559 0.0
O97 O 0.69009 0.68576 0.35038 0.0
C98 C 0.30866 0.01013 0.35919 0.0
O99 O 0.2958 0.00476 0.3567 0.0
Cd100 Cd 0.28184 0.98233 0.34462 0.0
O101 O 0.31487 0.00383 0.35457 0.0
Cd102 Cd 0.30923 0.98195 0.34005 0.0
C103 C 0.28849 0.96321 0.37279 0.0
O104 O 0.29262 0.98063 0.31882 0.0
O105 O 0.29355 0.96221 0.32251 0.0
O106 O 0.32997 0.99449 0.32263 0.0
C107 C 0.2889 0.9685 0.31403 0.0
O108 O 0.27995 0.96634 0.36678 0.0
C109 C 0.33534 0.98743 0.32684 0.0
O110 O 0.30044 0.96806 0.3661 0.0
O111 O 0.32865 0.97781 0.33753 0.0
C112 C 0.99329 0.30503 0.3569 0.0
O113 O -0.00064 0.29848 0.35308 0.0
Cd114 Cd 0.02128 0.30866 0.33895 0.0
O115 O -0.00124 0.31769 0.35311 0.0
Cd116 Cd 0.02006 0.33552 0.33876 0.0
C117 C 0.04067 0.33368 0.36825 0.0
O118 O 0.02023 0.3213 0.3151 0.0
O119 O 0.03889 0.34078 0.31865 0.0
O120 O 0.00544 0.34365 0.32724 0.0
C121 C 0.03204 0.33016 0.30951 0.0
O122 O 0.03841 0.32286 0.36033 0.0
C123 C 0.014 0.35629 0.32974 0.0
O124 O 0.03443 0.33996 0.36401 0.0
O125 O 0.02529 0.35928 0.33692 0.0
C126 C 0.63095 0.96671 0.32904 0.0
O127 O 0.626 0.95432 0.33369 0.0
Cd128 Cd 0.63868 0.94605 0.34928 0.0
O129 O 0.64323 0.97584 0.33297 0.0
Cd130 Cd 0.66301 0.97783 0.34911 0.0
C131 C 0.66635 0.95596 0.32219 0.0
O132 O 0.64954 0.96207 0.37193 0.0
O133 O 0.6713 0.96915 0.37224 0.0
O134 O 0.66707 -0.00061 0.36145 0.0
C135 C 0.65955 0.96213 0.37928 0.0
O136 O 0.65578 0.9463 0.32963 0.0
C137 C 0.6795 0.00649 0.35635 0.0
O138 O 0.67066 0.96849 0.32586 0.0
O139 O 0.68423 0.00031 0.34749 0.0
C140 C 0.99587 0.69297 0.36029 0.0
O141 O 0.0017 0.70548 0.35586 0.0
Cd142 Cd 0.02368 0.71753 0.3419 0.0
O143 O 0.00148 0.68585 0.35695 0.0
Cd144 Cd 0.0225 0.68884 0.34232 0.0
C145 C 0.04326 0.71246 0.37141 0.0
O146 O 0.02285 0.70318 0.31878 0.0
O147 O 0.04086 0.70124 0.32128 0.0
O148 O 0.00756 0.66573 0.33122 0.0
C149 C 0.03441 0.70571 0.31279 0.0
O150 O 0.04037 0.72063 0.36384 0.0
C151 C 0.0159 0.66155 0.33415 0.0
O152 O 0.03763 0.69993 0.36683 0.0
O153 O 0.02718 0.66995 0.34139 0.0
C154 C 0.3449 0.36388 0.32955 0.0
O155 O 0.33906 0.3707 0.33311 0.0
Cd156 Cd 0.31745 0.3615 0.34792 0.0
O157 O 0.33954 0.35144 0.33436 0.0
Cd158 Cd 0.31899 0.33411 0.35084 0.0
C159 C 0.29732 0.33428 0.32104 0.0
O160 O 0.31858 0.34973 0.3726 0.0
O161 O 0.30109 0.32912 0.37214 0.0
O162 O 0.33496 0.32794 0.36323 0.0
C163 C 0.30723 0.3408 0.37928 0.0
O164 O 0.30053 0.34594 0.32733 0.0
C165 C 0.32698 0.31506 0.36185 0.0
O166 O 0.30294 0.32768 0.32653 0.0
O167 O 0.31535 0.31097 0.35489 0.0
C168 C 0.30614 0.99522 0.66285 0.0
O169 O 0.29948 0.0013 0.66604 0.0
Cd170 Cd 0.30877 0.02265 0.68123 0.0
O171 O 0.31863 0.0004 0.66762 0.0
Cd172 Cd 0.33638 0.02125 0.68284 0.0
C173 C 0.33536 0.04296 0.6538 0.0
O174 O 0.32106 0.02134 0.70526 0.0
O175 O 0.34153 0.03909 0.70422 0.0
O176 O 0.34356 0.0061 0.69512 0.0
C177 C 0.32996 0.03269 0.71181 0.0
O178 O 0.32403 0.04017 0.661 0.0
C179 C 0.35638 0.01399 0.69241 0.0
O180 O 0.34172 0.0368 0.65824 0.0
O181 O 0.35997 0.02524 0.68485 0.0
C182 C 0.97111 0.33681 0.68475 0.0
O183 O 0.95834 0.32988 0.68123 0.0
Cd184 Cd 0.9473 0.30794 0.66742 0.0
O185 O 0.97918 0.33243 0.68049 0.0
Cd186 Cd 0.9778 0.31225 0.66544 0.0
C187 C 0.95604 0.29039 0.69581 0.0
O188 O 0.96141 0.30975 0.64346 0.0
O189 O 0.96558 0.29316 0.64518 0.0
O190 O -0.00115 0.32725 0.6496 0.0
C191 C 0.95961 0.29852 0.63744 0.0
O192 O 0.94691 0.29237 0.68912 0.0
C193 C 0.00565 0.32185 0.65487 0.0
O194 O 0.96845 0.29675 0.69026 0.0
O195 O -0.00039 0.31203 0.66547 0.0
C196 C 0.65994 0.63587 0.68972 0.0
O197 O 0.66606 0.62936 0.68594 0.0
Cd198 Cd 0.68829 0.64006 0.6726 0.0
O199 O 0.66537 0.64854 0.68603 0.0
Cd200 Cd 0.6864 0.66693 0.67176 0.0
C201 C 0.70632 0.66525 0.70259 0.0
O202 O 0.68715 0.65267 0.64869 0.0
O203 O 0.70509 0.67287 0.65115 0.0
O204 O 0.6705 0.67352 0.66056 0.0
C205 C 0.69865 0.66182 0.64265 0.0
O206 O 0.70395 0.65416 0.69531 0.0
C207 C 0.67847 0.68633 0.66263 0.0
O208 O 0.70075 0.67189 0.69716 0.0
O209 O 0.69014 0.69018 0.66934 0.0
C210 C 0.29604 0.30686 0.66555 0.0
O211 O 0.28934 0.29443 0.6704 0.0
Cd212 Cd 0.30015 0.28265 0.68208 0.0
O213 O 0.30903 0.31411 0.66778 0.0
Cd214 Cd 0.32803 0.31252 0.6813 0.0
C215 C 0.32539 0.2894 0.65157 0.0
O216 O 0.31462 0.29697 0.70445 0.0
O217 O 0.33547 0.30106 0.7013 0.0
O218 O 0.33476 0.33404 0.69568 0.0
C219 C 0.32422 0.29513 0.70965 0.0
O220 O 0.31416 0.28102 0.65917 0.0
C221 C 0.34707 0.34043 0.69007 0.0
O222 O 0.33241 0.3019 0.65637 0.0
O223 O 0.35061 0.33389 0.67995 0.0
C224 C 0.66325 0.02705 0.68866 0.0
O225 O 0.66963 0.03959 0.68429 0.0
Cd226 Cd 0.69142 0.05076 0.66986 0.0
O227 O 0.66811 0.01932 0.68487 0.0
Cd228 Cd 0.68823 0.02085 0.66933 0.0
C229 C 0.71038 0.04377 0.69828 0.0
O230 O 0.68939 0.03605 0.64663 0.0
O231 O 0.70653 0.03257 0.64789 0.0
O232 O 0.6728 -0.001 0.65564 0.0
C233 C 0.70058 0.03793 0.64012 0.0
O234 O 0.70771 0.05236 0.69144 0.0
C235 C 0.67919 0.99303 0.6604 0.0
O236 O 0.7044 0.03134 0.69319 0.0
O237 O 0.68974 -8e-05 0.66973 0.0
C238 C 0.0104 0.69474 0.66546 0.0
O239 O 0.00547 0.70198 0.67087 0.0
Cd240 Cd 0.98261 0.69246 0.68194 0.0
O241 O 0.00358 0.68171 0.6671 0.0
Cd242 Cd 0.98155 0.66406 0.68112 0.0
C243 C 0.96349 0.66865 0.65044 0.0
O244 O 0.98038 0.6777 0.70496 0.0
O245 O 0.96154 0.65897 0.69901 0.0
O246 O 0.99535 0.65557 0.69426 0.0
C247 C 0.96793 0.66923 0.70884 0.0
O248 O 0.96706 0.67989 0.65825 0.0
C249 C 0.987 0.64297 0.69123 0.0
O250 O 0.96781 0.66077 0.6554 0.0
O251 O 0.97613 0.64008 0.68304 0.0
H252 H 0.14492 0.31918 0.18156 0.0
H253 H 0.12795 0.32232 0.19718 0.0
H254 H 0.0953 0.28392 0.17665 0.0
H255 H 0.1125 0.28131 0.16019 0.0
H256 H 0.14942 0.29685 0.18399 0.0
H257 H 0.13633 0.32008 0.14526 0.0
H258 H 0.12076 0.32411 0.12795 0.0
H259 H 0.11157 0.2889 0.09672 0.0
H260 H 0.12671 0.28442 0.11467 0.0
H261 H 0.16396 0.28327 0.1173 0.0
H262 H 0.18443 0.28738 0.10093 0.0
H263 H 0.21023 0.3212 0.13441 0.0
H264 H 0.18982 0.31757 0.15019 0.0
H265 H 0.15375 0.29948 0.12075 0.0
H266 H 0.17341 0.28109 0.16151 0.0
H267 H 0.19189 0.28289 0.17981 0.0
H268 H 0.19216 0.31624 0.20752 0.0
H269 H 0.1744 0.31488 0.18879 0.0
C270 C 0.12994 0.29999 0.16983 0.0
C271 C 0.1341 0.31144 0.18044 0.0
C272 C 0.12435 0.31316 0.18946 0.0
C273 C 0.11022 0.30326 0.18843 0.0
C274 C 0.10606 0.2918 0.17765 0.0
C275 C 0.11586 0.29023 0.16833 0.0
C276 C 0.14056 0.29845 0.16049 0.0
C277 C 0.15039 0.29735 0.17014 0.0
C278 C 0.14166 0.2991 0.14244 0.0
C279 C 0.13235 0.30166 0.13166 0.0
C280 C 0.13071 0.31298 0.135 0.0
C281 C 0.12191 0.31536 0.12501 0.0
C282 C 0.1149 0.30673 0.11113 0.0
C283 C 0.11687 0.29568 0.10738 0.0
C284 C 0.12548 0.29312 0.11763 0.0
C285 C 0.17535 0.29992 0.13521 0.0
C286 C 0.17403 0.29152 0.12117 0.0
C287 C 0.18569 0.29384 0.11186 0.0
C288 C 0.19885 0.30449 0.11659 0.0
C289 C 0.20019 0.31276 0.13075 0.0
C290 C 0.18854 0.31064 0.13981 0.0
C291 C 0.1629 0.29812 0.14428 0.0
C292 C 0.15263 0.29853 0.13456 0.0
C293 C 0.16173 0.29746 0.16237 0.0
C294 C 0.17256 0.29792 0.17366 0.0
C295 C 0.17756 0.28886 0.17145 0.0
C296 C 0.18804 0.28982 0.18201 0.0
C297 C 0.19364 0.29981 0.19504 0.0
C298 C 0.18836 0.30863 0.19739 0.0
C299 C 0.17803 0.30774 0.1868 0.0
H300 H 0.72172 0.87796 0.18074 0.0
H301 H 0.72218 0.89562 0.19954 0.0
H302 H 0.68205 0.88571 0.18124 0.0
H303 H 0.68124 0.86761 0.16312 0.0
H304 H 0.70572 0.85195 0.18233 0.0
H305 H 0.71325 0.8855 0.13941 0.0
H306 H 0.70844 0.90111 0.12354 0.0
H307 H 0.66998 0.86652 0.1061 0.0
H308 H 0.67432 0.85121 0.12308 0.0
H309 H 0.67191 0.81663 0.13031 0.0
H310 H 0.66659 0.79568 0.11499 0.0
H311 H 0.70887 0.80552 0.12097 0.0
H312 H 0.71391 0.82623 0.13699 0.0
H313 H 0.69156 0.84362 0.12149 0.0
H314 H 0.68003 0.81226 0.1681 0.0
H315 H 0.6808 0.79568 0.18717 0.0
H316 H 0.724 0.82431 0.19674 0.0
H317 H 0.72301 0.841 0.17786 0.0
C318 C 0.70153 0.87154 0.1703 0.0
C319 C 0.71304 0.87962 0.18068 0.0
C320 C 0.71332 0.88971 0.19138 0.0
C321 C 0.70219 0.89204 0.19169 0.0
C322 C 0.69084 0.88423 0.181 0.0
C323 C 0.69042 0.87394 0.17059 0.0
C324 C 0.70069 0.85993 0.16025 0.0
C325 C 0.70295 0.85036 0.1689 0.0
C326 C 0.69661 0.85754 0.14284 0.0
C327 C 0.69408 0.86716 0.1327 0.0
C328 C 0.70368 0.88131 0.13238 0.0
C329 C 0.70099 0.89023 0.12306 0.0
C330 C 0.68876 0.88515 0.11352 0.0
C331 C 0.67935 0.87092 0.11356 0.0
C332 C 0.68192 0.86207 0.12311 0.0
C333 C 0.6933 0.82296 0.13472 0.0
C334 C 0.68001 0.81424 0.12834 0.0
C335 C 0.67702 0.8023 0.11948 0.0
C336 C 0.68733 0.79895 0.11654 0.0
C337 C 0.70063 0.80768 0.12314 0.0
C338 C 0.70357 0.81956 0.13222 0.0
C339 C 0.69636 0.83576 0.14371 0.0
C340 C 0.6946 0.8455 0.13483 0.0
C341 C 0.70064 0.83823 0.16094 0.0
C342 C 0.7015 0.82781 0.17143 0.0
C343 C 0.68972 0.81487 0.17408 0.0
C344 C 0.69021 0.80538 0.18498 0.0
C345 C 0.70249 0.80862 0.1935 0.0
C346 C 0.71434 0.82153 0.19057 0.0
C347 C 0.71382 0.83105 0.17971 0.0
H348 H 0.11571 0.83852 0.17419 0.0
H349 H 0.10009 0.81889 0.19199 0.0
H350 H 0.11492 0.79447 0.16732 0.0
H351 H 0.13084 0.81426 0.15004 0.0
H352 H 0.14388 0.85111 0.17435 0.0
H353 H 0.10733 0.82598 0.13305 0.0
H354 H 0.09194 0.80533 0.11673 0.0
H355 H 0.12731 0.80731 0.09159 0.0
H356 H 0.14258 0.82727 0.10875 0.0
H357 H 0.17238 0.85865 0.11043 0.0
H358 H 0.19285 0.87599 0.09531 0.0
H359 H 0.1903 0.908 0.12243 0.0
H360 H 0.16924 0.89058 0.13703 0.0
H361 H 0.14746 0.85161 0.11107 0.0
H362 H 0.18293 0.86918 0.15342 0.0
H363 H 0.201 0.88567 0.17239 0.0
H364 H 0.17182 0.89516 0.19564 0.0
H365 H 0.15378 0.87865 0.17655 0.0
C366 C 0.12433 0.82781 0.1607 0.0
C367 C 0.11549 0.82889 0.17254 0.0
C368 C 0.1065 0.81764 0.18259 0.0
C369 C 0.10627 0.80512 0.18105 0.0
C370 C 0.11495 0.804 0.16891 0.0
C371 C 0.12395 0.81526 0.15891 0.0
C372 C 0.13465 0.84004 0.15108 0.0
C373 C 0.14451 0.85136 0.16048 0.0
C374 C 0.13573 0.84008 0.13302 0.0
C375 C 0.12615 0.82811 0.12234 0.0
C376 C 0.11176 0.82188 0.12414 0.0
C377 C 0.10296 0.81015 0.11462 0.0
C378 C 0.10836 0.80456 0.1029 0.0
C379 C 0.12276 0.81111 0.10075 0.0
C380 C 0.13153 0.82268 0.11041 0.0
C381 C 0.16926 0.87326 0.12497 0.0
C382 C 0.17602 0.86938 0.11295 0.0
C383 C 0.18773 0.87928 0.10434 0.0
C384 C 0.19306 0.89326 0.10775 0.0
C385 C 0.18635 0.89724 0.11969 0.0
C386 C 0.17439 0.8873 0.12806 0.0
C387 C 0.15705 0.86245 0.13435 0.0
C388 C 0.14672 0.85148 0.12493 0.0
C389 C 0.15593 0.86237 0.15242 0.0
C390 C 0.16705 0.87283 0.16341 0.0
C391 C 0.18048 0.87497 0.16241 0.0
C392 C 0.1908 0.88441 0.17326 0.0
C393 C 0.18784 0.89174 0.18549 0.0
C394 C 0.17438 0.88958 0.18645 0.0
C395 C 0.16408 0.88019 0.17553 0.0
H396 H 0.28486 0.1726 0.86582 0.0
H397 H 0.28724 0.19133 0.84771 0.0
H398 H 0.3234 0.19413 0.82386 0.0
H399 H 0.32122 0.17581 0.84235 0.0
H400 H 0.29967 0.14905 0.84463 0.0
H401 H 0.28445 0.16819 0.8997 0.0
H402 H 0.28915 0.18894 0.91557 0.0
H403 H 0.33272 0.20677 0.90513 0.0
H404 H 0.32791 0.18609 0.8891 0.0
H405 H 0.32541 0.14668 0.90382 0.0
H406 H 0.32929 0.13042 0.91994 0.0
H407 H 0.28802 0.09792 0.90799 0.0
H408 H 0.28426 0.11418 0.89145 0.0
H409 H 0.30495 0.15411 0.90768 0.0
H410 H 0.32186 0.13396 0.86807 0.0
H411 H 0.32357 0.11672 0.85109 0.0
H412 H 0.28398 0.10428 0.82837 0.0
H413 H 0.28206 0.12119 0.84605 0.0
C414 C 0.30294 0.17293 0.85552 0.0
C415 C 0.29338 0.17739 0.85683 0.0
C416 C 0.29468 0.18799 0.84637 0.0
C417 C 0.30555 0.19426 0.8344 0.0
C418 C 0.31505 0.18969 0.83313 0.0
C419 C 0.31375 0.17914 0.84357 0.0
C420 C 0.30175 0.16171 0.8664 0.0
C421 C 0.30048 0.14997 0.85846 0.0
C422 C 0.30317 0.16309 0.88434 0.0
C423 C 0.30584 0.17574 0.8932 0.0
C424 C 0.29498 0.17665 0.90073 0.0
C425 C 0.29767 0.18847 0.90972 0.0
C426 C 0.3113 0.19941 0.91159 0.0
C427 C 0.32215 0.19843 0.90399 0.0
C428 C 0.31942 0.1867 0.8948 0.0
C429 C 0.30456 0.13159 0.89647 0.0
C430 C 0.31716 0.13607 0.90478 0.0
C431 C 0.31939 0.12681 0.91388 0.0
C432 C 0.30894 0.11299 0.91513 0.0
C433 C 0.29618 0.10856 0.90722 0.0
C434 C 0.29404 0.1178 0.89779 0.0
C435 C 0.30274 0.14135 0.88593 0.0
C436 C 0.30352 0.15285 0.89393 0.0
C437 C 0.30118 0.13986 0.86797 0.0
C438 C 0.30172 0.12871 0.85855 0.0
C439 C 0.31337 0.12728 0.85978 0.0
C440 C 0.31443 0.11754 0.84986 0.0
C441 C 0.30394 0.10916 0.83829 0.0
C442 C 0.29216 0.11045 0.83729 0.0
C443 C 0.29109 0.12016 0.8473 0.0
H444 H 0.84643 0.11725 0.84032 0.0
H445 H 0.82851 0.1005 0.82128 0.0
H446 H 0.80064 0.11375 0.83916 0.0
H447 H 0.81849 0.13026 0.85825 0.0
H448 H 0.85729 0.14562 0.83915 0.0
H449 H 0.83103 0.10846 0.87976 0.0
H450 H 0.80951 0.09211 0.89423 0.0
H451 H 0.80662 0.1259 0.9157 0.0
H452 H 0.82755 0.14206 0.90048 0.0
H453 H 0.85846 0.17324 0.90177 0.0
H454 H 0.87394 0.19363 0.91813 0.0
H455 H 0.90906 0.19324 0.89584 0.0
H456 H 0.8934 0.17224 0.88021 0.0
H457 H 0.85275 0.14865 0.90194 0.0
H458 H 0.87059 0.18386 0.86066 0.0
H459 H 0.88644 0.20275 0.84223 0.0
H460 H 0.90062 0.17698 0.81991 0.0
H461 H 0.88507 0.15824 0.83896 0.0
C462 C 0.83373 0.12487 0.85083 0.0
C463 C 0.83639 0.1164 0.84024 0.0
C464 C 0.82616 0.10688 0.82934 0.0
C465 C 0.81312 0.10575 0.82872 0.0
C466 C 0.81045 0.11414 0.83955 0.0
C467 C 0.82067 0.12363 0.85044 0.0
C468 C 0.84487 0.13568 0.86141 0.0
C469 C 0.85651 0.14613 0.85296 0.0
C470 C 0.84342 0.13664 0.87929 0.0
C471 C 0.83086 0.12652 0.88884 0.0
C472 C 0.82568 0.11233 0.88748 0.0
C473 C 0.81345 0.10299 0.89591 0.0
C474 C 0.80624 0.10767 0.90602 0.0
C475 C 0.8117 0.12189 0.90773 0.0
C476 C 0.82381 0.13118 0.89919 0.0
C477 C 0.87473 0.1712 0.88965 0.0
C478 C 0.86949 0.17743 0.90053 0.0
C479 C 0.87838 0.18923 0.90972 0.0
C480 C 0.89277 0.19522 0.90816 0.0
C481 C 0.89804 0.18888 0.89743 0.0
C482 C 0.88909 0.17694 0.88834 0.0
C483 C 0.86503 0.15882 0.87963 0.0
C484 C 0.85374 0.14801 0.88819 0.0
C485 C 0.86636 0.15792 0.8617 0.0
C486 C 0.87677 0.16968 0.85138 0.0
C487 C 0.87733 0.18236 0.8521 0.0
C488 C 0.88629 0.19311 0.84138 0.0
C489 C 0.89475 0.19136 0.82951 0.0
C490 C 0.89436 0.17873 0.82903 0.0
C491 C 0.88542 0.16798 0.83983 0.0
H492 H 0.81066 0.6813 0.86625 0.0
H493 H 0.79107 0.67908 0.85019 0.0
H494 H 0.81808 0.71771 0.82508 0.0
H495 H 0.83753 0.72008 0.84167 0.0
H496 H 0.84735 0.70225 0.84013 0.0
H497 H 0.82499 0.68229 0.90718 0.0
H498 H 0.80536 0.67859 0.9245 0.0
H499 H 0.80554 0.71261 0.89921 0.0
H500 H 0.82599 0.717 0.88297 0.0
H501 H 0.87875 0.71576 0.90325 0.0
H502 H 0.89402 0.70987 0.91854 0.0
H503 H 0.87755 0.67229 0.88929 0.0
H504 H 0.86215 0.67804 0.87445 0.0
H505 H 0.84989 0.70015 0.90329 0.0
H506 H 0.88677 0.71797 0.85916 0.0
H507 H 0.90283 0.71571 0.83997 0.0
H508 H 0.86877 0.67834 0.81929 0.0
H509 H 0.85285 0.68109 0.83786 0.0
C510 C 0.82552 0.70092 0.85527 0.0
C511 C 0.8123 0.68941 0.85754 0.0
C512 C 0.80115 0.68811 0.84824 0.0
C513 C 0.80303 0.6982 0.83632 0.0
C514 C 0.81624 0.70985 0.83432 0.0
C515 C 0.82739 0.71117 0.84368 0.0
C516 C 0.83755 0.70182 0.86412 0.0
C517 C 0.84799 0.70202 0.85396 0.0
C518 C 0.83823 0.70122 0.88218 0.0
C519 C 0.82691 0.69982 0.89355 0.0
C520 C 0.82101 0.68916 0.9056 0.0
C521 C 0.80959 0.68691 0.91534 0.0
C522 C 0.80362 0.69511 0.91308 0.0
C523 C 0.80985 0.70611 0.90142 0.0
C524 C 0.82147 0.70853 0.89192 0.0
C525 C 0.86945 0.69742 0.88759 0.0
C526 C 0.87854 0.70632 0.90007 0.0
C527 C 0.88729 0.70298 0.90872 0.0
C528 C 0.88693 0.6906 0.90513 0.0
C529 C 0.87794 0.68182 0.89245 0.0
C530 C 0.86925 0.68518 0.88382 0.0
C531 C 0.85946 0.70036 0.87926 0.0
C532 C 0.84941 0.70084 0.88949 0.0
C533 C 0.85878 0.70102 0.86128 0.0
C534 C 0.86863 0.69976 0.84981 0.0
C535 C 0.88282 0.70935 0.8504 0.0
C536 C 0.89198 0.70796 0.83951 0.0
C537 C 0.88713 0.69687 0.82796 0.0
C538 C 0.87289 0.6872 0.82765 0.0
C539 C 0.86375 0.68871 0.83834 0.0
H540 H 0.8021 0.65591 0.48684 0.0
H541 H 0.78461 0.65881 0.50185 0.0
H542 H 0.76598 0.61734 0.52097 0.0
H543 H 0.78344 0.61441 0.50558 0.0
H544 H 0.81284 0.63192 0.51152 0.0
H545 H 0.81289 0.65829 0.45282 0.0
H546 H 0.79697 0.66193 0.43582 0.0
H547 H 0.76587 0.61903 0.44184 0.0
H548 H 0.78167 0.61586 0.45992 0.0
H549 H 0.83354 0.6207 0.44905 0.0
H550 H 0.85539 0.62613 0.43527 0.0
H551 H 0.87689 0.66233 0.467 0.0
H552 H 0.85503 0.65706 0.48034 0.0
H553 H 0.8217 0.63729 0.44892 0.0
H554 H 0.84005 0.61905 0.49133 0.0
H555 H 0.85855 0.62194 0.51036 0.0
H556 H 0.85527 0.65327 0.53834 0.0
H557 H 0.83739 0.65083 0.51885 0.0
C558 C 0.79394 0.63489 0.49496 0.0
C559 C 0.79407 0.64733 0.49394 0.0
C560 C 0.78415 0.64902 0.50265 0.0
C561 C 0.77396 0.63831 0.5126 0.0
C562 C 0.77362 0.62571 0.51324 0.0
C563 C 0.78361 0.62405 0.50456 0.0
C564 C 0.80528 0.63371 0.48705 0.0
C565 C 0.8147 0.63282 0.49781 0.0
C566 C 0.80774 0.63514 0.46925 0.0
C567 C 0.79842 0.63683 0.45759 0.0
C568 C 0.80266 0.64967 0.45034 0.0
C569 C 0.79352 0.65169 0.4405 0.0
C570 C 0.78003 0.64078 0.43734 0.0
C571 C 0.77602 0.62777 0.44424 0.0
C572 C 0.78508 0.62587 0.45443 0.0
C573 C 0.84271 0.63841 0.4658 0.0
C574 C 0.84299 0.62976 0.45306 0.0
C575 C 0.85547 0.63282 0.4453 0.0
C576 C 0.86784 0.64466 0.45005 0.0
C577 C 0.86751 0.65322 0.46295 0.0
C578 C 0.85506 0.65015 0.4707 0.0
C579 C 0.82944 0.63559 0.47341 0.0
C580 C 0.81967 0.63584 0.46258 0.0
C581 C 0.82695 0.63403 0.49129 0.0
C582 C 0.8374 0.63482 0.50352 0.0
C583 C 0.84338 0.62658 0.50152 0.0
C584 C 0.85387 0.62816 0.51251 0.0
C585 C 0.85852 0.63795 0.52579 0.0
C586 C 0.85219 0.64585 0.52804 0.0
C587 C 0.8418 0.64433 0.51702 0.0
H588 H 0.38891 0.21539 0.51377 0.0
H589 H 0.38505 0.23042 0.53291 0.0
H590 H 0.34374 0.21328 0.51314 0.0
H591 H 0.3476 0.19824 0.49422 0.0
H592 H 0.37377 0.18683 0.51414 0.0
H593 H 0.38391 0.22305 0.47439 0.0
H594 H 0.37915 0.23917 0.4596 0.0
H595 H 0.34327 0.20512 0.43628 0.0
H596 H 0.34767 0.18909 0.45178 0.0
H597 H 0.34882 0.15738 0.45249 0.0
H598 H 0.3455 0.13723 0.4368 0.0
H599 H 0.38405 0.14345 0.45655 0.0
H600 H 0.38744 0.16381 0.47215 0.0
H601 H 0.3669 0.18332 0.45131 0.0
H602 H 0.35209 0.14812 0.49353 0.0
H603 H 0.35168 0.13051 0.51185 0.0
H604 H 0.39202 0.1601 0.53114 0.0
H605 H 0.3923 0.17773 0.51279 0.0
C606 C 0.36858 0.20578 0.5025 0.0
C607 C 0.37909 0.21499 0.51347 0.0
C608 C 0.37689 0.22361 0.5243 0.0
C609 C 0.36408 0.22299 0.52453 0.0
C610 C 0.35367 0.2139 0.51333 0.0
C611 C 0.3559 0.20539 0.50243 0.0
C612 C 0.37045 0.19592 0.49192 0.0
C613 C 0.37263 0.18625 0.50033 0.0
C614 C 0.36848 0.19494 0.47399 0.0
C615 C 0.36606 0.20484 0.46438 0.0
C616 C 0.37495 0.21906 0.46621 0.0
C617 C 0.3723 0.22828 0.45758 0.0
C618 C 0.36078 0.22346 0.44679 0.0
C619 C 0.35208 0.2092 0.44471 0.0
C620 C 0.35468 0.20001 0.45342 0.0
C621 C 0.36834 0.16209 0.46359 0.0
C622 C 0.35667 0.15453 0.45329 0.0
C623 C 0.35478 0.14302 0.4443 0.0
C624 C 0.36452 0.13877 0.44542 0.0
C625 C 0.3763 0.14641 0.45558 0.0
C626 C 0.37825 0.15803 0.46449 0.0
C627 C 0.36985 0.17399 0.47359 0.0
C628 C 0.36837 0.18407 0.46506 0.0
C629 C 0.37205 0.17513 0.49149 0.0
C630 C 0.37229 0.16421 0.50165 0.0
C631 C 0.36096 0.15076 0.50145 0.0
C632 C 0.36076 0.14068 0.51192 0.0
C633 C 0.37184 0.14389 0.52293 0.0
C634 C 0.38327 0.15733 0.52292 0.0
C635 C 0.38347 0.1674 0.51241 0.0
H636 H 0.7819 0.17114 0.50191 0.0
H637 H 0.76634 0.15162 0.51994 0.0
H638 H 0.77869 0.12613 0.49276 0.0
H639 H 0.79454 0.14576 0.47528 0.0
H640 H 0.80988 0.18236 0.50111 0.0
H641 H 0.77298 0.16202 0.45829 0.0
H642 H 0.75603 0.14255 0.44126 0.0
H643 H 0.78879 0.13718 0.42058 0.0
H644 H 0.80559 0.15684 0.43714 0.0
H645 H 0.83787 0.18881 0.43745 0.0
H646 H 0.85935 0.20532 0.42352 0.0
H647 H 0.85871 0.23836 0.45086 0.0
H648 H 0.83664 0.22177 0.464 0.0
H649 H 0.81301 0.18341 0.43774 0.0
H650 H 0.8483 0.19765 0.47943 0.0
H651 H 0.86746 0.2132 0.49776 0.0
H652 H 0.84114 0.2256 0.52293 0.0
H653 H 0.82215 0.21041 0.50402 0.0
C654 C 0.78926 0.15987 0.48714 0.0
C655 C 0.7811 0.16129 0.49972 0.0
C656 C 0.77216 0.15011 0.50992 0.0
C657 C 0.77132 0.13735 0.5078 0.0
C658 C 0.77921 0.13587 0.49482 0.0
C659 C 0.78815 0.14704 0.48467 0.0
C660 C 0.79992 0.17203 0.47772 0.0
C661 C 0.81038 0.18281 0.48724 0.0
C662 C 0.80086 0.17229 0.45966 0.0
C663 C 0.79053 0.16087 0.44896 0.0
C664 C 0.77647 0.15667 0.44998 0.0
C665 C 0.7668 0.14549 0.4403 0.0
C666 C 0.77102 0.13827 0.4295 0.0
C667 C 0.78516 0.14264 0.42845 0.0
C668 C 0.7948 0.15386 0.43798 0.0
C669 C 0.83569 0.20401 0.45192 0.0
C670 C 0.8422 0.19963 0.44023 0.0
C671 C 0.85461 0.20908 0.43246 0.0
C672 C 0.8609 0.22315 0.43631 0.0
C673 C 0.85413 0.2276 0.44757 0.0
C674 C 0.84158 0.21812 0.45522 0.0
C675 C 0.82313 0.19365 0.46113 0.0
C676 C 0.81231 0.18323 0.45161 0.0
C677 C 0.82217 0.19339 0.47922 0.0
C678 C 0.83386 0.20304 0.49017 0.0
C679 C 0.84672 0.20388 0.48871 0.0
C680 C 0.85763 0.21266 0.49934 0.0
C681 C 0.85584 0.22066 0.51183 0.0
C682 C 0.84293 0.21976 0.51328 0.0
C683 C 0.83203 0.211 0.50258 0.0
H684 H 0.9693 0.50492 0.17439 0.0
H685 H 0.96841 0.52287 0.15813 0.0
H686 H 0.00768 0.55317 0.17927 0.0
H687 H 0.00863 0.53515 0.19534 0.0
H688 H 0.9873 0.4963 0.17249 0.0
H689 H 0.97386 0.51814 0.21548 0.0
H690 H 0.97648 0.53751 0.23242 0.0
H691 H 0.014 0.54247 0.25418 0.0
H692 H 0.01186 0.52381 0.23628 0.0
H693 H 0.01232 0.49091 0.23437 0.0
H694 H 0.01425 0.47375 0.25082 0.0
H695 H 0.97742 0.44166 0.22651 0.0
H696 H 0.975 0.45899 0.21106 0.0
H697 H 0.99417 0.49812 0.23525 0.0
H698 H 0.01086 0.48072 0.19029 0.0
H699 H 0.01135 0.46363 0.17148 0.0
H700 H 0.96992 0.45076 0.1548 0.0
H701 H 0.96972 0.46816 0.1733 0.0
C702 C 0.98896 0.5187 0.1862 0.0
C703 C 0.97772 0.51543 0.17552 0.0
C704 C 0.97723 0.52568 0.16623 0.0
C705 C 0.98797 0.53941 0.16748 0.0
C706 C -0.00082 0.5427 0.17826 0.0
C707 C -0.00027 0.53242 0.18743 0.0
C708 C 0.98957 0.50768 0.19565 0.0
C709 C 0.98862 0.49661 0.18626 0.0
C710 C 0.99167 0.50828 0.21355 0.0
C711 C 0.99279 0.51965 0.22435 0.0
C712 C 0.98276 0.52354 0.22372 0.0
C713 C 0.98417 0.53451 0.23362 0.0
C714 C 0.99551 0.54165 0.24465 0.0
C715 C 0.00531 0.53745 0.24558 0.0
C716 C 0.004 0.52664 0.23549 0.0
C717 C 0.99359 0.47626 0.22134 0.0
C718 C 0.00462 0.48018 0.23264 0.0
C719 C 0.0058 0.47031 0.24191 0.0
C720 C 0.99604 0.45627 0.23995 0.0
C721 C 0.98504 0.45237 0.22852 0.0
C722 C 0.98376 0.46227 0.21944 0.0
C723 C 0.99219 0.48691 0.21205 0.0
C724 C 0.99286 0.49783 0.22148 0.0
C725 C 0.99012 0.48635 0.19417 0.0
C726 C 0.99023 0.47565 0.18324 0.0
C727 C 0.00187 0.47415 0.18265 0.0
C728 C 0.00209 0.46432 0.17193 0.0
C729 C 0.99067 0.4558 0.1616 0.0
C730 C 0.97899 0.45729 0.16236 0.0
C731 C 0.97881 0.46717 0.17299 0.0
H732 H 0.51005 0.4524 0.17061 0.0
H733 H 0.49123 0.43702 0.15153 0.0
H734 H 0.46532 0.45112 0.17383 0.0
H735 H 0.48423 0.46669 0.19245 0.0
H736 H 0.52245 0.48046 0.17089 0.0
H737 H 0.49694 0.44373 0.21143 0.0
H738 H 0.47553 0.42723 0.22599 0.0
H739 H 0.47291 0.4608 0.24872 0.0
H740 H 0.49385 0.47715 0.23355 0.0
H741 H 0.5249 0.5089 0.2323 0.0
H742 H 0.5406 0.53 0.24736 0.0
H743 H 0.57543 0.52827 0.22657 0.0
H744 H 0.55954 0.50666 0.21209 0.0
H745 H 0.51918 0.48387 0.23385 0.0
H746 H 0.53785 0.51908 0.19164 0.0
H747 H 0.55428 0.53732 0.17279 0.0
H748 H 0.56662 0.50976 0.15161 0.0
H749 H 0.55025 0.49155 0.17073 0.0
C750 C 0.4985 0.46059 0.18306 0.0
C751 C 0.50026 0.45205 0.17149 0.0
C752 C 0.48948 0.44321 0.16068 0.0
C753 C 0.47681 0.44289 0.16116 0.0
C754 C 0.475 0.45123 0.17305 0.0
C755 C 0.48575 0.46004 0.18382 0.0
C756 C 0.51025 0.47087 0.19342 0.0
C757 C 0.52194 0.48102 0.18473 0.0
C758 C 0.50929 0.47182 0.21139 0.0
C759 C 0.49695 0.46169 0.22123 0.0
C760 C 0.49172 0.44752 0.21952 0.0
C761 C 0.47954 0.4381 0.22797 0.0
C762 C 0.47243 0.44269 0.23841 0.0
C763 C 0.47796 0.45689 0.24052 0.0
C764 C 0.49005 0.46627 0.23201 0.0
C765 C 0.54102 0.50622 0.22095 0.0
C766 C 0.53591 0.51294 0.23114 0.0
C767 C 0.54492 0.52512 0.23958 0.0
C768 C 0.55928 0.53095 0.23797 0.0
C769 C 0.56442 0.52403 0.22811 0.0
C770 C 0.55536 0.51175 0.21972 0.0
C771 C 0.53119 0.49372 0.21126 0.0
C772 C 0.51991 0.48311 0.22008 0.0
C773 C 0.53224 0.49263 0.19331 0.0
C774 C 0.54297 0.504 0.18281 0.0
C775 C 0.54433 0.51705 0.18326 0.0
C776 C 0.55372 0.52747 0.17245 0.0
C777 C 0.56177 0.52498 0.16077 0.0
C778 C 0.5605 0.51195 0.16043 0.0
C779 C 0.55118 0.50156 0.17136 0.0
H780 H 0.53726 0.03895 0.17736 0.0
H781 H 0.55564 0.03958 0.15959 0.0
H782 H 0.54292 0.9982 0.175 0.0
H783 H 0.52426 0.99736 0.19214 0.0
H784 H 0.51041 0.02367 0.17519 0.0
H785 H 0.54269 0.03079 0.22123 0.0
H786 H 0.55843 0.02556 0.2363 0.0
H787 H 0.52552 0.98332 0.24166 0.0
H788 H 0.50976 0.98889 0.22741 0.0
H789 H 0.47495 0.9919 0.23034 0.0
H790 H 0.45475 0.98884 0.2461 0.0
H791 H 0.46756 0.03138 0.23699 0.0
H792 H 0.48757 0.03423 0.22085 0.0
H793 H 0.50226 0.00865 0.2358 0.0
H794 H 0.46934 0.00167 0.19351 0.0
H795 H 0.45335 0.00463 0.17558 0.0
H796 H 0.48659 0.04428 0.1595 0.0
H797 H 0.50254 0.04155 0.178 0.0
C798 C 0.52951 0.01821 0.18639 0.0
C799 C 0.53843 0.03001 0.17693 0.0
C800 C 0.54893 0.03038 0.16681 0.0
C801 C 0.55076 0.01898 0.16609 0.0
C802 C 0.54189 0.00721 0.1756 0.0
C803 C 0.53126 0.00676 0.18547 0.0
C804 C 0.51801 0.01763 0.19662 0.0
C805 C 0.50881 0.02072 0.18857 0.0
C806 C 0.51561 0.01329 0.21388 0.0
C807 C 0.5251 0.01022 0.22325 0.0
C808 C 0.5389 0.02044 0.22578 0.0
C809 C 0.5479 0.01738 0.23427 0.0
C810 C 0.54329 0.00399 0.2402 0.0
C811 C 0.5294 0.9938 0.23761 0.0
C812 C 0.52037 0.99693 0.22938 0.0
C813 C 0.4827 0.01326 0.22434 0.0
C814 C 0.47342 0.00057 0.23182 0.0
C815 C 0.46191 -0.00113 0.24089 0.0
C816 C 0.45951 0.00987 0.24285 0.0
C817 C 0.46896 0.02263 0.23552 0.0
C818 C 0.48044 0.0243 0.22634 0.0
C819 C 0.49472 0.01485 0.21442 0.0
C820 C 0.504 0.0119 0.22252 0.0
C821 C 0.49711 0.01927 0.19716 0.0
C822 C 0.48714 0.02148 0.18733 0.0
C823 C 0.47314 0.0112 0.18658 0.0
C824 C 0.464 0.01287 0.17629 0.0
C825 C 0.46875 0.0247 0.16623 0.0
C826 C 0.4827 0.03506 0.16714 0.0
C827 C 0.49179 0.03349 0.17765 0.0
H828 H 0.48085 0.99562 0.85004 0.0
H829 H 0.46237 0.99656 0.86526 0.0
H830 H 0.43218 0.96313 0.83422 0.0
H831 H 0.45079 0.96184 0.81951 0.0
H832 H 0.48722 0.97644 0.84846 0.0
H833 H 0.47621 0.00085 0.80768 0.0
H834 H 0.46057 0.00472 0.79016 0.0
H835 H 0.44794 0.96668 0.76326 0.0
H836 H 0.46355 0.96281 0.78101 0.0
H837 H 0.50397 0.96324 0.78389 0.0
H838 H 0.52504 0.9676 0.76887 0.0
H839 H 0.54893 0.00362 0.80023 0.0
H840 H 0.52786 -0.00054 0.81474 0.0
H841 H 0.49281 0.98003 0.78533 0.0
H842 H 0.51177 0.96146 0.82579 0.0
H843 H 0.52995 0.96275 0.84414 0.0
H844 H 0.52982 0.99532 0.87326 0.0
H845 H 0.51231 0.99448 0.85441 0.0
C846 C 0.46722 0.97869 0.8336 0.0
C847 C 0.47025 0.98845 0.84655 0.0
C848 C 0.45967 0.98909 0.8551 0.0
C849 C 0.44579 0.98 0.85086 0.0
C850 C 0.44275 0.97022 0.83786 0.0
C851 C 0.45338 0.96955 0.82934 0.0
C852 C 0.47864 0.97815 0.82472 0.0
C853 C 0.48849 0.97727 0.83466 0.0
C854 C 0.48016 0.97905 0.80672 0.0
C855 C 0.47091 0.98147 0.79575 0.0
C856 C 0.47005 0.99334 0.79802 0.0
C857 C 0.4612 0.99558 0.78792 0.0
C858 C 0.45302 0.98599 0.77535 0.0
C859 C 0.45401 0.97418 0.77297 0.0
C860 C 0.46297 0.97199 0.78301 0.0
C861 C 0.51439 0.98094 0.80054 0.0
C862 C 0.51377 0.97204 0.78752 0.0
C863 C 0.52581 0.97449 0.77905 0.0
C864 C 0.53864 0.98595 0.78338 0.0
C865 C 0.53919 0.99479 0.79648 0.0
C866 C 0.52718 0.99234 0.80491 0.0
C867 C 0.50162 0.97868 0.80913 0.0
C868 C 0.49144 0.97893 0.79911 0.0
C869 C 0.5001 0.97775 0.82717 0.0
C870 C 0.51074 0.97797 0.83858 0.0
C871 C 0.51577 0.96896 0.83603 0.0
C872 C 0.52607 0.96962 0.84664 0.0
C873 C 0.53145 0.97922 0.86011 0.0
C874 C 0.52617 0.988 0.86281 0.0
C875 C 0.51599 0.98741 0.85215 0.0
H876 H 0.04023 0.53697 0.84771 0.0
H877 H 0.03985 0.5546 0.86568 0.0
H878 H -0.00064 0.54277 0.84652 0.0
H879 H -0.00027 0.52512 0.82872 0.0
H880 H 0.02328 0.50973 0.84902 0.0
H881 H 0.03395 0.54529 0.80744 0.0
H882 H 0.02981 0.56143 0.7917 0.0
H883 H 0.99277 0.52742 0.77028 0.0
H884 H 0.99644 0.51148 0.78701 0.0
H885 H 0.99632 0.47915 0.78829 0.0
H886 H 0.99258 0.459 0.77237 0.0
H887 H 0.03058 0.464 0.79252 0.0
H888 H 0.03465 0.48471 0.80772 0.0
H889 H 0.01475 0.5047 0.78653 0.0
H890 H 0.00023 0.47005 0.82916 0.0
H891 H 0.00023 0.45231 0.84672 0.0
H892 H 0.04009 0.48225 0.86696 0.0
H893 H 0.04032 0.49981 0.84862 0.0
C894 C 0.02008 0.52983 0.83673 0.0
C895 C 0.0313 0.53823 0.84733 0.0
C896 C 0.03107 0.54828 0.85759 0.0
C897 C 0.01959 0.5501 0.85745 0.0
C898 C 0.00844 0.54178 0.84668 0.0
C899 C 0.00864 0.53167 0.83651 0.0
C900 C 0.02006 0.51869 0.82655 0.0
C901 C 0.02168 0.50877 0.83528 0.0
C902 C 0.01748 0.5172 0.80872 0.0
C903 C 0.01541 0.52715 0.79865 0.0
C904 C 0.02483 0.54133 0.79955 0.0
C905 C 0.02253 0.55055 0.79032 0.0
C906 C 0.0109 0.54578 0.77971 0.0
C907 C 0.00167 0.53154 0.77857 0.0
C908 C 0.00386 0.52236 0.78798 0.0
C909 C 0.01571 0.48341 0.79933 0.0
C910 C 0.00393 0.476 0.78917 0.0
C911 C 0.00171 0.46435 0.78024 0.0
C912 C 0.01119 0.45975 0.78132 0.0
C913 C 0.0231 0.46729 0.79132 0.0
C914 C 0.02538 0.47906 0.80016 0.0
C915 C 0.01768 0.49561 0.80905 0.0
C916 C 0.01651 0.50576 0.80023 0.0
C917 C 0.02024 0.49711 0.82687 0.0
C918 C 0.02037 0.48624 0.83734 0.0
C919 C 0.00909 0.47275 0.83713 0.0
C920 C 0.00903 0.46264 0.84738 0.0
C921 C 0.02015 0.46583 0.85833 0.0
C922 C 0.03145 0.47936 0.85851 0.0
C923 C 0.03154 0.48945 0.84814 0.0
H924 H 0.44834 0.50484 0.83692 0.0
H925 H 0.43231 0.48565 0.85511 0.0
H926 H 0.44669 0.46024 0.83223 0.0
H927 H 0.46299 0.47953 0.81465 0.0
H928 H 0.47621 0.51699 0.83812 0.0
H929 H 0.4417 0.49462 0.79332 0.0
H930 H 0.42563 0.47475 0.77619 0.0
H931 H 0.45933 0.46912 0.76007 0.0
H932 H 0.47531 0.48919 0.77675 0.0
H933 H 0.50791 0.52174 0.7786 0.0
H934 H 0.52961 0.53818 0.765 0.0
H935 H 0.52597 0.57161 0.78625 0.0
H936 H 0.50378 0.555 0.79917 0.0
H937 H 0.48263 0.51563 0.77541 0.0
H938 H 0.51528 0.53166 0.82104 0.0
H939 H 0.5332 0.54812 0.84013 0.0
H940 H 0.50605 0.56269 0.85655 0.0
H941 H 0.48805 0.54595 0.83759 0.0
C942 C 0.45675 0.49358 0.8243 0.0
C943 C 0.44789 0.49507 0.8357 0.0
C944 C 0.43869 0.48408 0.846 0.0
C945 C 0.43828 0.47145 0.84514 0.0
C946 C 0.44687 0.46988 0.83332 0.0
C947 C 0.45607 0.48086 0.82309 0.0
C948 C 0.46761 0.50557 0.81483 0.0
C949 C 0.4774 0.51689 0.82433 0.0
C950 C 0.46946 0.50519 0.79696 0.0
C951 C 0.45968 0.49337 0.7863 0.0
C952 C 0.44559 0.48911 0.78602 0.0
C953 C 0.43642 0.4777 0.77629 0.0
C954 C 0.44117 0.4703 0.76672 0.0
C955 C 0.45533 0.4747 0.76698 0.0
C956 C 0.46449 0.48615 0.77658 0.0
C957 C 0.50425 0.53712 0.79001 0.0
C958 C 0.51168 0.5326 0.78017 0.0
C959 C 0.52419 0.54203 0.77258 0.0
C960 C 0.52963 0.55621 0.77476 0.0
C961 C 0.52204 0.56075 0.7843 0.0
C962 C 0.50942 0.55128 0.7918 0.0
C963 C 0.49136 0.52689 0.79875 0.0
C964 C 0.4812 0.51595 0.78912 0.0
C965 C 0.48942 0.52736 0.8166 0.0
C966 C 0.5004 0.5377 0.82778 0.0
C967 C 0.51325 0.53851 0.82863 0.0
C968 C 0.52351 0.54796 0.83951 0.0
C969 C 0.5211 0.55679 0.84983 0.0
C970 C 0.5082 0.55595 0.84892 0.0
C971 C 0.49792 0.54645 0.83805 0.0
H972 H 0.61592 0.83066 0.52085 0.0
H973 H 0.61728 0.84978 0.50461 0.0
H974 H 0.66177 0.87177 0.5095 0.0
H975 H 0.66013 0.85299 0.52645 0.0
H976 H 0.63385 0.81697 0.51157 0.0
H977 H 0.62218 0.83919 0.55744 0.0
H978 H 0.62598 0.8592 0.57406 0.0
H979 H 0.6674 0.86841 0.58551 0.0
H980 H 0.66334 0.84819 0.56928 0.0
H981 H 0.66209 0.8141 0.57154 0.0
H982 H 0.66593 0.79788 0.58733 0.0
H983 H 0.62859 0.76425 0.56592 0.0
H984 H 0.62427 0.78065 0.5512 0.0
H985 H 0.64384 0.82081 0.57375 0.0
H986 H 0.65978 0.80504 0.52613 0.0
H987 H 0.66098 0.78847 0.50718 0.0
H988 H 0.6172 0.76955 0.49743 0.0
H989 H 0.61636 0.78674 0.51572 0.0
C990 C 0.63792 0.84051 0.52483 0.0
C991 C 0.62591 0.83969 0.51848 0.0
C992 C 0.62675 0.8506 0.50912 0.0
C993 C 0.63965 0.86239 0.50569 0.0
C994 C 0.65163 0.86306 0.51216 0.0
C995 C 0.65075 0.85227 0.52173 0.0
C996 C 0.6373 0.829 0.53441 0.0
C997 C 0.63565 0.81758 0.52525 0.0
C998 C 0.64026 0.83017 0.55205 0.0
C999 C 0.64249 0.84225 0.56212 0.0
C1000 C 0.63207 0.84556 0.56353 0.0
C1001 C 0.63429 0.85703 0.57299 0.0
C1002 C 0.647 0.86544 0.58115 0.0
C1003 C 0.6574 0.86205 0.57968 0.0
C1004 C 0.65514 0.85053 0.57033 0.0
C1005 C 0.64295 0.79863 0.56003 0.0
C1006 C 0.65466 0.80324 0.57034 0.0
C1007 C 0.65694 0.79391 0.57921 0.0
C1008 C 0.64764 0.77971 0.57783 0.0
C1009 C 0.63591 0.7751 0.56746 0.0
C1010 C 0.63353 0.78447 0.55879 0.0
C1011 C 0.64054 0.80871 0.55092 0.0
C1012 C 0.64166 0.81993 0.56015 0.0
C1013 C 0.63755 0.80757 0.53322 0.0
C1014 C 0.63798 0.79705 0.52234 0.0
C1015 C 0.65045 0.79727 0.51992 0.0
C1016 C 0.65107 0.7877 0.50916 0.0
C1017 C 0.63917 0.77756 0.50075 0.0
C1018 C 0.62664 0.77731 0.50341 0.0
C1019 C 0.62609 0.78706 0.51396 0.0
H1020 H 0.17788 0.78721 0.51238 0.0
H1021 H 0.15913 0.77186 0.49319 0.0
H1022 H 0.13261 0.78472 0.51672 0.0
H1023 H 0.15143 0.80024 0.5355 0.0
H1024 H 0.18911 0.81566 0.51299 0.0
H1025 H 0.16636 0.77785 0.555 0.0
H1026 H 0.14572 0.76097 0.57063 0.0
H1027 H 0.1398 0.79372 0.58938 0.0
H1028 H 0.1606 0.81041 0.57434 0.0
H1029 H 0.19412 0.84171 0.57865 0.0
H1030 H 0.21095 0.86229 0.59394 0.0
H1031 H 0.24406 0.86185 0.56617 0.0
H1032 H 0.22721 0.84083 0.55133 0.0
H1033 H 0.18748 0.81707 0.57637 0.0
H1034 H 0.2037 0.85329 0.53673 0.0
H1035 H 0.21911 0.87276 0.51874 0.0
H1036 H 0.23203 0.84747 0.4922 0.0
H1037 H 0.21693 0.82813 0.51075 0.0
C1038 C 0.16601 0.79475 0.52547 0.0
C1039 C 0.16795 0.78655 0.51353 0.0
C1040 C 0.15722 0.77775 0.50266 0.0
C1041 C 0.14442 0.77713 0.50342 0.0
C1042 C 0.1424 0.78507 0.51573 0.0
C1043 C 0.1531 0.79383 0.52659 0.0
C1044 C 0.17775 0.80518 0.53567 0.0
C1045 C 0.18901 0.81579 0.52688 0.0
C1046 C 0.17717 0.8057 0.55371 0.0
C1047 C 0.16503 0.79538 0.56358 0.0
C1048 C 0.16063 0.78134 0.56262 0.0
C1049 C 0.14879 0.77171 0.57147 0.0
C1050 C 0.14107 0.77595 0.58136 0.0
C1051 C 0.1456 0.79005 0.58228 0.0
C1052 C 0.15749 0.79964 0.5736 0.0
C1053 C 0.20935 0.83974 0.56368 0.0
C1054 C 0.205 0.84583 0.57606 0.0
C1055 C 0.21462 0.85761 0.58478 0.0
C1056 C 0.22877 0.86363 0.58118 0.0
C1057 C 0.23318 0.85743 0.56906 0.0
C1058 C 0.22356 0.84547 0.56055 0.0
C1059 C 0.19891 0.82772 0.55371 0.0
C1060 C 0.18791 0.81679 0.56251 0.0
C1061 C 0.19933 0.82729 0.53559 0.0
C1062 C 0.2093 0.83929 0.52525 0.0
C1063 C 0.21005 0.852 0.52727 0.0
C1064 C 0.21876 0.86309 0.51684 0.0
C1065 C 0.22677 0.86167 0.50398 0.0
C1066 C 0.22613 0.84897 0.50211 0.0
C1067 C 0.21744 0.83788 0.51262 0.0
H1068 H 0.15874 0.34971 0.50336 0.0
H1069 H 0.14123 0.34923 0.48484 0.0
H1070 H 0.14529 0.385 0.51075 0.0
H1071 H 0.1627 0.38516 0.52969 0.0
H1072 H 0.18532 0.36956 0.50665 0.0
H1073 H 0.14465 0.34682 0.53995 0.0
H1074 H 0.12398 0.343 0.55525 0.0
H1075 H 0.1493 0.37531 0.59081 0.0
H1076 H 0.17006 0.37963 0.57494 0.0
H1077 H 0.20721 0.3794 0.57637 0.0
H1078 H 0.2226 0.37487 0.59371 0.0
H1079 H 0.21599 0.34214 0.55928 0.0
H1080 H 0.20005 0.34608 0.54257 0.0
H1081 H 0.18075 0.36402 0.56968 0.0
H1082 H 0.22257 0.38355 0.53316 0.0
H1083 H 0.24049 0.38178 0.5171 0.0
H1084 H 0.20883 0.34834 0.48753 0.0
H1085 H 0.19112 0.34991 0.50377 0.0
C1086 C 0.16207 0.36751 0.51781 0.0
C1087 C 0.1559 0.35748 0.50502 0.0
C1088 C 0.14593 0.35727 0.49439 0.0
C1089 C 0.14201 0.36722 0.49612 0.0
C1090 C 0.14805 0.37717 0.50912 0.0
C1091 C 0.15802 0.37731 0.5199 0.0
C1092 C 0.17285 0.3676 0.52867 0.0
C1093 C 0.18436 0.36841 0.52046 0.0
C1094 C 0.17153 0.36609 0.54667 0.0
C1095 C 0.15894 0.3638 0.55596 0.0
C1096 C 0.1458 0.35336 0.55074 0.0
C1097 C 0.13398 0.3511 0.55956 0.0
C1098 C 0.13508 0.35893 0.5741 0.0
C1099 C 0.14821 0.36915 0.57962 0.0
C1100 C 0.16004 0.37161 0.57056 0.0
C1101 C 0.20273 0.36332 0.5579 0.0
C1102 C 0.20905 0.37123 0.57257 0.0
C1103 C 0.21784 0.36868 0.58243 0.0
C1104 C 0.22056 0.35832 0.57759 0.0
C1105 C 0.21421 0.35036 0.56302 0.0
C1106 C 0.20519 0.35268 0.55343 0.0
C1107 C 0.19319 0.36583 0.54761 0.0
C1108 C 0.18193 0.36559 0.55594 0.0
C1109 C 0.19443 0.36732 0.52959 0.0
C1110 C 0.2055 0.36682 0.51972 0.0
C1111 C 0.21954 0.37583 0.52324 0.0
C1112 C 0.22974 0.37485 0.51402 0.0
C1113 C 0.22606 0.36482 0.50117 0.0
C1114 C 0.21201 0.35599 0.49756 0.0
C1115 C 0.20187 0.35698 0.50671 0.0
H1116 H 0.97851 0.35829 0.06102 0.0
H1117 H 0.97583 0.37319 0.08161 0.0
H1118 H 0.01904 0.40347 0.07604 0.0
H1119 H 0.02171 0.38881 0.05517 0.0
H1120 H 0.98648 0.38383 0.11183 0.0
H1121 H 0.02358 0.43523 0.07784 0.0
H1122 H 0.03212 0.44367 0.04866 0.0
H1123 H 0.99524 0.41005 0.02743 0.0
H1124 H 0.98639 0.40153 0.05646 0.0
H1125 H 0.00195 0.43959 0.16729 0.0
H1126 H 0.00318 0.42345 0.1475 0.0
H1127 H 0.98097 0.43227 0.10974 0.0
H1128 H 0.98037 0.44898 0.12908 0.0
H1129 H 0.00132 0.43163 0.09496 0.0
H1130 H 0.96533 0.4021 0.13355 0.0
H1131 H 0.95453 0.39277 0.16162 0.0
H1132 H 0.98471 0.38115 0.17163 0.0
H1133 H 0.99582 0.39059 0.14371 0.0
C1134 C 0.98745 0.3681 0.06426 0.0
C1135 C 0.00029 0.37244 0.05636 0.0
C1136 C 0.98591 0.37658 0.07605 0.0
C1137 C 0.99718 0.38954 0.08017 0.0
C1138 C 0.01014 0.39364 0.0728 0.0
C1139 C 0.01165 0.38523 0.06091 0.0
C1140 C 0.99535 0.39893 0.09179 0.0
C1141 C 0.98972 0.39428 0.10816 0.0
C1142 C -0.0007 0.41247 0.08686 0.0
C1143 C 0.00439 0.41768 0.06933 0.0
C1144 C 0.01727 0.42968 0.06694 0.0
C1145 C 0.02216 0.43447 0.05043 0.0
C1146 C 0.01425 0.42737 0.0362 0.0
C1147 C 0.00138 0.41551 0.03845 0.0
C1148 C 0.99643 0.41069 0.05494 0.0
C1149 C 0.99744 0.4382 0.15472 0.0
C1150 C 0.99104 0.44559 0.14981 0.0
C1151 C -0.002 0.42883 0.14349 0.0
C1152 C 0.992 0.4265 0.1272 0.0
C1153 C 0.98563 0.43386 0.12226 0.0
C1154 C 0.98516 0.44331 0.13342 0.0
C1155 C 0.99264 0.41662 0.11514 0.0
C1156 C -0.00194 0.42118 0.09867 0.0
C1157 C 0.98816 0.4029 0.11983 0.0
C1158 C 0.98148 0.39716 0.1366 0.0
C1159 C 0.96973 0.39764 0.14179 0.0
C1160 C 0.96354 0.39232 0.15766 0.0
C1161 C 0.96895 0.3864 0.16841 0.0
C1162 C 0.98054 0.38576 0.16329 0.0
C1163 C 0.98678 0.39108 0.14744 0.0
H1164 H 0.96414 0.38229 0.1807 0.0
H1165 H 0.01807 0.43108 0.02342 0.0
H1166 H 0.63805 0.62128 0.05073 0.0
H1167 H 0.62988 0.60442 0.07393 0.0
H1168 H 0.5879 0.59352 0.06347 0.0
H1169 H 0.59595 0.61048 0.04067 0.0
H1170 H 0.59193 0.59597 0.09635 0.0
H1171 H 0.60135 0.5732 0.05053 0.0
H1172 H 0.61565 0.5706 0.02843 0.0
H1173 H 0.64384 0.5731 0.067 0.0
H1174 H 0.62978 0.57589 0.08931 0.0
H1175 H 0.56414 0.52184 0.12648 0.0
H1176 H 0.57688 0.53982 0.1053 0.0
H1177 H 0.59247 0.57029 0.14547 0.0
H1178 H 0.57956 0.55233 0.16672 0.0
H1179 H 0.6029 0.55868 0.09864 0.0
H1180 H 0.59317 0.59893 0.1313 0.0
H1181 H 0.57662 0.59987 0.15139 0.0
H1182 H 0.54514 0.55964 0.13539 0.0
H1183 H 0.56145 0.55855 0.11506 0.0
C1184 C 0.62708 0.61528 0.05337 0.0
C1185 C 0.61766 0.61725 0.04383 0.0
C1186 C 0.62242 0.60561 0.0666 0.0
C1187 C 0.60826 0.59763 0.07038 0.0
C1188 C 0.59887 0.5996 0.06086 0.0
C1189 C 0.60351 0.60929 0.04777 0.0
C1190 C 0.60307 0.58726 0.0843 0.0
C1191 C 0.59441 0.58787 0.09689 0.0
C1192 C 0.60616 0.57659 0.08494 0.0
C1193 C 0.61461 0.57491 0.07156 0.0
C1194 C 0.61066 0.5733 0.05428 0.0
C1195 C 0.61871 0.57178 0.04172 0.0
C1196 C 0.63067 0.57173 0.0463 0.0
C1197 C 0.63458 0.57317 0.06346 0.0
C1198 C 0.62658 0.57471 0.07607 0.0
C1199 C 0.57048 0.53234 0.13084 0.0
C1200 C 0.57076 0.5357 0.14824 0.0
C1201 C 0.57776 0.54261 0.11872 0.0
C1202 C 0.58548 0.55643 0.12376 0.0
C1203 C 0.58638 0.55973 0.14124 0.0
C1204 C 0.579 0.54947 0.15336 0.0
C1205 C 0.59173 0.56738 0.1106 0.0
C1206 C 0.60059 0.5669 0.0982 0.0
C1207 C 0.58854 0.57798 0.10983 0.0
C1208 C 0.57858 0.57861 0.12182 0.0
C1209 C 0.58271 0.59031 0.13204 0.0
C1210 C 0.57337 0.59087 0.14347 0.0
C1211 C 0.55985 0.5798 0.14471 0.0
C1212 C 0.55563 0.56818 0.13447 0.0
C1213 C 0.56492 0.56759 0.123 0.0
H1214 H 0.55265 0.58025 0.15358 0.0
H1215 H 0.63688 0.57055 0.03656 0.0
H1216 H 0.39803 0.0031 0.03319 0.0
H1217 H 0.41462 0.01016 0.05646 0.0
H1218 H 0.38791 0.01798 0.08857 0.0
H1219 H 0.37162 0.01169 0.06474 0.0
H1220 H 0.41334 0.03568 0.09622 0.0
H1221 H 0.38812 0.98712 0.09068 0.0
H1222 H 0.37805 0.9647 0.0761 0.0
H1223 H 0.41862 0.97282 0.06269 0.0
H1224 H 0.42894 0.99539 0.07699 0.0
H1225 H 0.44276 0.02035 0.17175 0.0
H1226 H 0.42654 0.01935 0.15004 0.0
H1227 H 0.45737 0.02937 0.11082 0.0
H1228 H 0.47366 0.03063 0.13239 0.0
H1229 H 0.42845 0.00239 0.10915 0.0
H1230 H 0.45273 0.05226 0.11567 0.0
H1231 H 0.46104 0.07341 0.1327 0.0
H1232 H 0.41943 0.06058 0.14782 0.0
H1233 H 0.41089 0.03923 0.13107 0.0
C1234 C 0.39582 0.00654 0.04513 0.0
C1235 C 0.38353 0.00673 0.0473 0.0
C1236 C 0.40525 0.01048 0.05847 0.0
C1237 C 0.40231 0.01415 0.07448 0.0
C1238 C 0.39035 0.01506 0.07639 0.0
C1239 C 0.38106 0.01148 0.06281 0.0
C1240 C 0.41138 0.01627 0.08931 0.0
C1241 C 0.41649 0.02831 0.09915 0.0
C1242 C 0.41545 0.00661 0.09333 0.0
C1243 C 0.4093 0.993 0.0848 0.0
C1244 C 0.3949 0.98416 0.08454 0.0
C1245 C 0.38914 0.97143 0.07633 0.0
C1246 C 0.39769 0.96735 0.06844 0.0
C1247 C 0.41202 0.976 0.06879 0.0
C1248 C 0.41782 0.98876 0.07696 0.0
C1249 C 0.44611 0.02256 0.15852 0.0
C1250 C 0.45944 0.02559 0.1537 0.0
C1251 C 0.43689 0.02205 0.1462 0.0
C1252 C 0.44085 0.02435 0.12892 0.0
C1253 C 0.45423 0.02768 0.12415 0.0
C1254 C 0.46351 0.02844 0.13646 0.0
C1255 C 0.43065 0.02192 0.11556 0.0
C1256 C 0.42523 0.00972 0.10615 0.0
C1257 C 0.42606 0.03123 0.11231 0.0
C1258 C 0.4312 0.04407 0.1223 0.0
C1259 C 0.44537 0.05387 0.12278 0.0
C1260 C 0.45012 0.06592 0.13234 0.0
C1261 C 0.44077 0.06832 0.14138 0.0
C1262 C 0.42666 0.0587 0.14084 0.0
C1263 C 0.42186 0.04663 0.1313 0.0
H1264 H 0.44447 0.07765 0.14878 0.0
H1265 H 0.39322 0.95749 0.06209 0.0
H1266 H 0.38486 0.0142 0.9583 0.0
H1267 H 0.39585 0.00985 0.93389 0.0
H1268 H 0.36556 0.96666 0.93639 0.0
H1269 H 0.35445 0.97092 0.96083 0.0
H1270 H 0.39244 0.972 0.93493 0.0
H1271 H 0.36399 0.98472 0.90435 0.0
H1272 H 0.3541 -0.00081 0.89729 0.0
H1273 H 0.39448 0.03261 0.88458 0.0
H1274 H 0.40464 0.01841 0.8918 0.0
H1275 H 0.42118 0.95842 0.86213 0.0
H1276 H 0.4039 0.95942 0.88026 0.0
H1277 H 0.42813 0.00367 0.88007 0.0
H1278 H 0.44509 0.00277 0.86129 0.0
H1279 H 0.40152 0.99547 0.87881 0.0
H1280 H 0.43031 0.98459 0.91281 0.0
H1281 H 0.44111 0.97115 0.92092 0.0
H1282 H 0.40107 0.93543 0.9283 0.0
H1283 H 0.39003 0.94863 0.92 0.0
C1284 C 0.38048 0.00379 0.95358 0.0
C1285 C 0.36882 0.9929 0.96149 0.0
C1286 C 0.38672 0.00134 0.93958 0.0
C1287 C 0.38143 0.98795 0.93327 0.0
C1288 C 0.36974 0.97706 0.94106 0.0
C1289 C 0.36342 0.97952 0.95498 0.0
C1290 C 0.38864 0.9853 0.91918 0.0
C1291 C 0.39418 0.97689 0.92252 0.0
C1292 C 0.39117 0.99196 0.90318 0.0
C1293 C 0.38509 0.00052 0.89875 0.0
C1294 C 0.37077 0.99519 0.90018 0.0
C1295 C 0.36512 0.00334 0.89612 0.0
C1296 C 0.37366 0.01682 0.89052 0.0
C1297 C 0.38787 0.02217 0.88893 0.0
C1298 C 0.39358 0.01407 0.89298 0.0
C1299 C 0.42268 0.96837 0.86562 0.0
C1300 C 0.43461 0.98052 0.86045 0.0
C1301 C 0.41285 0.96892 0.87612 0.0
C1302 C 0.41487 0.98161 0.88179 0.0
C1303 C 0.42641 0.99376 0.87594 0.0
C1304 C 0.43617 0.99322 0.86536 0.0
C1305 C 0.40548 0.98232 0.89464 0.0
C1306 C 0.39958 0.9904 0.89111 0.0
C1307 C 0.40274 0.97548 0.91057 0.0
C1308 C 0.40935 0.96754 0.91559 0.0
C1309 C 0.42382 0.97384 0.91604 0.0
C1310 C 0.42998 0.96627 0.92068 0.0
C1311 C 0.42178 0.95243 0.92507 0.0
C1312 C 0.40741 0.94614 0.92486 0.0
C1313 C 0.40119 0.95366 0.92019 0.0
H1314 H 0.42658 0.94659 0.92867 0.0
H1315 H 0.36926 0.02311 0.88739 0.0
H1316 H 0.0251 0.38133 0.96871 0.0
H1317 H 0.03115 0.39747 0.94477 0.0
H1318 H 0.98924 0.38913 0.94357 0.0
H1319 H 0.98316 0.37316 0.96726 0.0
H1320 H -0.00057 0.38986 0.91141 0.0
H1321 H 0.01339 0.41706 0.96343 0.0
H1322 H 0.02632 0.42558 0.9904 0.0
H1323 H 0.06458 0.44137 0.96282 0.0
H1324 H 0.05185 0.43278 0.9357 0.0
H1325 H -0.00205 0.44588 0.876 0.0
H1326 H 0.99715 0.42841 0.89486 0.0
H1327 H 0.0406 0.44431 0.88638 0.0
H1328 H 0.04146 0.46173 0.86706 0.0
H1329 H 0.03313 0.4393 0.92073 0.0
H1330 H 0.01852 0.41502 0.86784 0.0
H1331 H 0.00502 0.40686 0.84126 0.0
H1332 H 0.96751 0.38563 0.87058 0.0
H1333 H 0.98077 0.39384 0.89736 0.0
C1334 C 0.01717 0.38286 0.96321 0.0
C1335 C 0.00368 0.37604 0.96996 0.0
C1336 C 0.02064 0.3921 0.9496 0.0
C1337 C 0.01064 0.39454 0.94247 0.0
C1338 C 0.9971 0.38739 0.94885 0.0
C1339 C 0.99367 0.37831 0.96247 0.0
C1340 C 0.01417 0.40489 0.92882 0.0
C1341 C 0.0068 0.40067 0.91343 0.0
C1342 C 0.02402 0.41894 0.93131 0.0
C1343 C 0.03167 0.42412 0.94759 0.0
C1344 C 0.02456 0.42224 0.96314 0.0
C1345 C 0.03185 0.4271 0.97845 0.0
C1346 C 0.04626 0.43396 0.97833 0.0
C1347 C 0.05341 0.43602 0.9629 0.0
C1348 C 0.04617 0.43116 0.94756 0.0
C1349 C 0.00731 0.44557 0.87787 0.0
C1350 C 0.01975 0.45518 0.86986 0.0
C1351 C 0.00685 0.43559 0.88874 0.0
C1352 C 0.01878 0.43496 0.89186 0.0
C1353 C 0.03127 0.44461 0.88411 0.0
C1354 C 0.03174 0.45459 0.87313 0.0
C1355 C 0.01811 0.4243 0.9035 0.0
C1356 C 0.026 0.42846 0.91851 0.0
C1357 C 0.00867 0.41018 0.9007 0.0
C1358 C 0.00065 0.40512 0.88462 0.0
C1359 C 0.00739 0.40869 0.86863 0.0
C1360 C -0.00022 0.40404 0.85352 0.0
C1361 C 0.98542 0.39575 0.85423 0.0
C1362 C 0.97864 0.39206 0.87005 0.0
C1363 C 0.9862 0.39669 0.8852 0.0
H1364 H 0.97954 0.39216 0.84252 0.0
H1365 H 0.05189 0.43773 0.99019 0.0
H1366 H 0.61112 0.64558 0.95646 0.0
H1367 H 0.59298 0.63317 0.93525 0.0
H1368 H 0.6021 0.60042 0.9348 0.0
H1369 H 0.62007 0.61264 0.95616 0.0
H1370 H 0.59229 0.62414 0.90321 0.0
H1371 H 0.57233 0.56999 0.93169 0.0
H1372 H 0.57108 0.55941 0.95968 0.0
H1373 H 0.57182 0.59346 0.98534 0.0
H1374 H 0.57287 0.60414 0.95751 0.0
H1375 H 0.54905 0.57218 0.84436 0.0
H1376 H 0.56683 0.58699 0.86476 0.0
H1377 H 0.53542 0.57864 0.90265 0.0
H1378 H 0.51762 0.5633 0.8826 0.0
H1379 H 0.55528 0.57654 0.91653 0.0
H1380 H 0.55299 0.60986 0.88173 0.0
H1381 H 0.55305 0.62127 0.8549 0.0
H1382 H 0.59433 0.63037 0.84394 0.0
H1383 H 0.59445 0.61886 0.8706 0.0
C1384 C 0.60932 0.63577 0.95175 0.0
C1385 C 0.61693 0.63002 0.9581 0.0
C1386 C 0.59898 0.62872 0.93961 0.0
C1387 C 0.59606 0.61579 0.93364 0.0
C1388 C 0.60402 0.61028 0.93946 0.0
C1389 C 0.61431 0.61729 0.95163 0.0
C1390 C 0.58441 0.60783 0.92175 0.0
C1391 C 0.58419 0.61373 0.9061 0.0
C1392 C 0.57368 0.59437 0.92571 0.0
C1393 C 0.57281 0.58792 0.94251 0.0
C1394 C 0.57216 0.57518 0.94331 0.0
C1395 C 0.5715 0.56918 0.95914 0.0
C1396 C 0.57141 0.57578 0.97428 0.0
C1397 C 0.57193 0.58838 0.97361 0.0
C1398 C 0.57258 0.59442 0.95781 0.0
C1399 C 0.54591 0.57344 0.85706 0.0
C1400 C 0.53189 0.56651 0.86184 0.0
C1401 C 0.55609 0.58204 0.86865 0.0
C1402 C 0.55246 0.58404 0.8852 0.0
C1403 C 0.53847 0.57728 0.88994 0.0
C1404 C 0.52829 0.56861 0.87839 0.0
C1405 C 0.56327 0.59273 0.89778 0.0
C1406 C 0.56335 0.58695 0.9136 0.0
C1407 C 0.57369 0.60641 0.89411 0.0
C1408 C 0.57368 0.61339 0.8781 0.0
C1409 C 0.56204 0.61421 0.87354 0.0
C1410 C 0.56205 0.62071 0.85837 0.0
C1411 C 0.57368 0.62651 0.8477 0.0
C1412 C 0.58533 0.62586 0.85221 0.0
C1413 C 0.58537 0.61936 0.86736 0.0
H1414 H 0.57366 0.63154 0.83596 0.0
H1415 H 0.57092 0.57112 0.98652 0.0
H1416 H 0.98027 0.59724 0.97733 0.0
H1417 H 0.98656 0.58701 0.95411 0.0
H1418 H 0.01855 0.62723 0.9379 0.0
H1419 H 0.01247 0.63763 0.96148 0.0
H1420 H 0.98596 0.58893 0.92078 0.0
H1421 H 0.04512 0.62408 0.9203 0.0
H1422 H 0.06395 0.63898 0.94 0.0
H1423 H 0.03982 0.61469 0.98271 0.0
H1424 H 0.02093 0.59956 0.96324 0.0
H1425 H 0.01094 0.56819 0.85016 0.0
H1426 H 0.00811 0.58337 0.87015 0.0
H1427 H 0.02363 0.56961 0.91113 0.0
H1428 H 0.02661 0.55458 0.89121 0.0
H1429 H 0.03319 0.59633 0.91427 0.0
H1430 H 0.98885 0.55569 0.90475 0.0
H1431 H 0.96941 0.53874 0.88726 0.0
H1432 H 0.9627 0.57052 0.86861 0.0
H1433 H 0.98224 0.5877 0.88584 0.0
C1434 C 0.98865 0.60396 0.96887 0.0
C1435 C 0.99589 0.61827 0.97132 0.0
C1436 C 0.9922 0.59808 0.95553 0.0
C1437 C 0.00305 0.60633 0.9443 0.0
C1438 C 0.01024 0.62065 0.94655 0.0
C1439 C 0.00673 0.62657 0.96 0.0
C1440 C 0.00676 0.59976 0.93039 0.0
C1441 C 0.99632 0.59065 0.91928 0.0
C1442 C 0.02024 0.60187 0.92851 0.0
C1443 C 0.03156 0.61081 0.94033 0.0
C1444 C 0.04385 0.62192 0.93389 0.0
C1445 C 0.05453 0.6304 0.94502 0.0
C1446 C 0.05306 0.62782 0.9626 0.0
C1447 C 0.04092 0.61672 0.96909 0.0
C1448 C 0.03022 0.6082 0.95802 0.0
C1449 C 0.01381 0.56847 0.86342 0.0
C1450 C 0.01891 0.56013 0.86915 0.0
C1451 C 0.01221 0.57716 0.87481 0.0
C1452 C 0.0155 0.5775 0.89219 0.0
C1453 C 0.02107 0.56956 0.89778 0.0
C1454 C 0.02277 0.56097 0.88638 0.0
C1455 C 0.01235 0.58542 0.9048 0.0
C1456 C 0.02289 0.5948 0.91561 0.0
C1457 C -0.00112 0.58331 0.90671 0.0
C1458 C 0.98709 0.57299 0.89642 0.0
C1459 C 0.98329 0.55907 0.89682 0.0
C1460 C 0.97225 0.54942 0.88697 0.0
C1461 C 0.96485 0.55356 0.87679 0.0
C1462 C 0.96846 0.56734 0.87648 0.0
C1463 C 0.97951 0.57704 0.88628 0.0
H1464 H 0.9563 0.54607 0.86917 0.0
H1465 H 0.06133 0.6344 0.97119 0.0
H1466 H 0.38925 0.3784 0.96043 0.0
H1467 H 0.40078 0.39499 0.9374 0.0
H1468 H 0.36568 0.40055 0.93342 0.0
H1469 H 0.35398 0.38382 0.95633 0.0
H1470 H 0.37569 0.39924 0.90202 0.0
H1471 H 0.39373 0.42377 0.95456 0.0
H1472 H 0.40436 0.42807 0.9831 0.0
H1473 H 0.44056 0.4303 0.96111 0.0
H1474 H 0.43006 0.42581 0.93245 0.0
H1475 H 0.41164 0.46248 0.85543 0.0
H1476 H 0.39803 0.44472 0.87667 0.0
H1477 H 0.4318 0.43738 0.88338 0.0
H1478 H 0.44555 0.45531 0.86261 0.0
H1479 H 0.42171 0.43994 0.9136 0.0
H1480 H 0.40338 0.41504 0.861 0.0
H1481 H 0.39265 0.4108 0.83252 0.0
H1482 H 0.35694 0.40953 0.85466 0.0
H1483 H 0.36755 0.41396 0.88326 0.0
C1484 C 0.38395 0.38309 0.95459 0.0
C1485 C 0.37076 0.37989 0.96028 0.0
C1486 C 0.39056 0.39259 0.94148 0.0
C1487 C 0.38415 0.39914 0.93389 0.0
C1488 C 0.3708 0.39564 0.93915 0.0
C1489 C 0.36417 0.38611 0.95227 0.0
C1490 C 0.39157 0.40991 0.92083 0.0
C1491 C 0.38567 0.40824 0.90459 0.0
C1492 C 0.40467 0.42154 0.92417 0.0
C1493 C 0.41105 0.42433 0.94138 0.0
C1494 C 0.40391 0.42507 0.95583 0.0
C1495 C 0.40992 0.42756 0.97203 0.0
C1496 C 0.42311 0.42942 0.97393 0.0
C1497 C 0.43033 0.42884 0.95962 0.0
C1498 C 0.42437 0.42633 0.9434 0.0
C1499 C 0.41615 0.45708 0.86146 0.0
C1500 C 0.42964 0.46025 0.85729 0.0
C1501 C 0.40834 0.44687 0.87348 0.0
C1502 C 0.41388 0.43968 0.88149 0.0
C1503 C 0.42731 0.44279 0.8773 0.0
C1504 C 0.43511 0.45295 0.86531 0.0
C1505 C 0.40593 0.42919 0.89469 0.0
C1506 C 0.41172 0.43095 0.911 0.0
C1507 C 0.39273 0.41768 0.89141 0.0
C1508 C 0.38632 0.41498 0.87424 0.0
C1509 C 0.39329 0.41398 0.85977 0.0
C1510 C 0.38722 0.41152 0.84361 0.0
C1511 C 0.37414 0.40994 0.84177 0.0
C1512 C 0.36708 0.41078 0.8561 0.0
C1513 C 0.37311 0.41325 0.87229 0.0
H1514 H 0.36946 0.40803 0.82925 0.0
H1515 H 0.42774 0.43134 0.98648 0.0
H1516 H 0.62672 0.01924 0.96806 0.0
H1517 H 0.60953 0.01284 0.94577 0.0
H1518 H 0.59978 0.97076 0.94875 0.0
H1519 H 0.61737 0.9772 0.97102 0.0
H1520 H 0.59944 0.97836 0.91564 0.0
H1521 H 0.57907 0.97997 0.96853 0.0
H1522 H 0.57754 0.98966 0.99625 0.0
H1523 H 0.57938 0.024 0.97051 0.0
H1524 H 0.58113 0.01462 0.94264 0.0
H1525 H 0.53442 0.95819 0.87281 0.0
H1526 H 0.55188 0.95997 0.89295 0.0
H1527 H 0.57061 0.00401 0.89351 0.0
H1528 H 0.55359 0.00241 0.87306 0.0
H1529 H 0.5644 0.99195 0.92616 0.0
H1530 H 0.58635 0.99042 0.87324 0.0
H1531 H 0.58748 0.9801 0.84584 0.0
H1532 H 0.58149 0.94428 0.8723 0.0
H1533 H 0.58013 0.95432 0.89986 0.0
C1534 C 0.621 0.00862 0.96395 0.0
C1535 C 0.62328 -0.00131 0.97149 0.0
C1536 C 0.61115 0.00497 0.9512 0.0
C1537 C 0.60314 0.99126 0.94588 0.0
C1538 C 0.60579 0.98138 0.95277 0.0
C1539 C 0.61581 0.98507 0.96549 0.0
C1540 C 0.59169 0.98739 0.93363 0.0
C1541 C 0.59162 0.98109 0.91805 0.0
C1542 C 0.58151 0.99099 0.93676 0.0
C1543 C 0.58032 0.99663 0.95349 0.0
C1544 C 0.57924 0.98963 0.96878 0.0
C1545 C 0.57832 0.99506 0.98453 0.0
C1546 C 0.57838 0.00745 0.98514 0.0
C1547 C 0.57933 0.01441 0.97001 0.0
C1548 C 0.58027 0.00903 0.95423 0.0
C1549 C 0.54241 0.96828 0.87697 0.0
C1550 C 0.5425 0.98016 0.87144 0.0
C1551 C 0.55234 0.96926 0.88852 0.0
C1552 C 0.56248 0.98212 0.89475 0.0
C1553 C 0.56279 0.99398 0.88895 0.0
C1554 C 0.55299 0.99303 0.87733 0.0
C1555 C 0.57242 0.98334 0.90798 0.0
C1556 C 0.57213 0.98907 0.92382 0.0
C1557 C 0.58212 0.97907 0.90513 0.0
C1558 C 0.58297 0.97305 0.88858 0.0
C1559 C 0.58514 0.98029 0.8732 0.0
C1560 C 0.58585 0.9745 0.85765 0.0
C1561 C 0.58451 0.96152 0.85732 0.0
C1562 C 0.5825 0.95432 0.87257 0.0
C1563 C 0.58176 0.96006 0.88816 0.0
H1564 H 0.58507 0.95706 0.84527 0.0
H1565 H 0.57767 0.01164 0.99734 0.0
H1566 H 0.61046 0.98665 0.0521 0.0
H1567 H 0.59732 0.99059 0.07402 0.0
H1568 H 0.63444 0.02699 0.09061 0.0
H1569 H 0.64763 0.02332 0.06822 0.0
H1570 H 0.59751 0.99121 0.10697 0.0
H1571 H 0.62637 0.05053 0.10534 0.0
H1572 H 0.64 0.06946 0.08514 0.0
H1573 H 0.61903 0.04268 0.04278 0.0
H1574 H 0.60517 0.02366 0.06273 0.0
H1575 H 0.56978 0.01179 0.17442 0.0
H1576 H 0.58648 0.0105 0.15534 0.0
H1577 H 0.57216 0.02453 0.1133 0.0
H1578 H 0.55585 0.02631 0.1325 0.0
H1579 H 0.59853 0.03554 0.11051 0.0
H1580 H 0.56097 0.98965 0.12022 0.0
H1581 H 0.54485 0.96964 0.13759 0.0
H1582 H 0.57887 0.96751 0.15864 0.0
H1583 H 0.59522 0.98764 0.14155 0.0
C1584 C 0.61586 0.99549 0.06043 0.0
C1585 C 0.63008 0.00473 0.05836 0.0
C1586 C 0.60833 0.9977 0.07301 0.0
C1587 C 0.61484 0.00916 0.08388 0.0
C1588 C 0.62914 0.01821 0.08218 0.0
C1589 C 0.63668 0.01607 0.06944 0.0
C1590 C 0.60651 0.01165 0.09671 0.0
C1591 C 0.59781 0.00094 0.1078 0.0
C1592 C 0.60668 0.02425 0.09764 0.0
C1593 C 0.61486 0.03565 0.08553 0.0
C1594 C 0.62465 0.0487 0.09172 0.0
C1595 C 0.63242 0.05944 0.08031 0.0
C1596 C 0.63042 0.05726 0.06268 0.0
C1597 C 0.62061 0.04434 0.05643 0.0
C1598 C 0.61281 0.03358 0.06778 0.0
C1599 C 0.5703 0.01469 0.16112 0.0
C1600 C 0.5615 0.01908 0.15488 0.0
C1601 C 0.5798 0.01391 0.15022 0.0
C1602 C 0.58042 0.01717 0.13278 0.0
C1603 C 0.57191 0.02197 0.12668 0.0
C1604 C 0.56258 0.02297 0.13765 0.0
C1605 C 0.58949 0.01508 0.12072 0.0
C1606 C 0.59836 0.02587 0.10981 0.0
C1607 C 0.58913 0.00239 0.11954 0.0
C1608 C 0.57932 0.99023 0.12975 0.0
C1609 C 0.56502 0.98497 0.12864 0.0
C1610 C 0.55584 0.9736 0.13842 0.0
C1611 C 0.56084 0.96733 0.14925 0.0
C1612 C 0.57502 0.97239 0.15027 0.0
C1613 C 0.58425 0.98378 0.14053 0.0
H1614 H 0.55371 0.95853 0.15681 0.0
H1615 H 0.63645 0.06558 0.05387 0.0
H1616 H 0.974 0.62425 0.06855 0.0
H1617 H 0.97215 0.6105 0.09365 0.0
H1618 H 0.00965 0.61155 0.07842 0.0
H1619 H 0.01176 0.62554 0.05371 0.0
H1620 H 0.96852 0.58599 0.09557 0.0
H1621 H 0.02701 0.61016 0.1118 0.0
H1622 H 0.04811 0.63301 0.11158 0.0
H1623 H 0.0236 0.65216 0.11585 0.0
H1624 H 0.00236 0.62943 0.11638 0.0
H1625 H 0.98172 0.53821 0.13368 0.0
H1626 H 0.98153 0.55597 0.11632 0.0
H1627 H 0.9933 0.58271 0.16037 0.0
H1628 H 0.99373 0.56496 0.17779 0.0
H1629 H 0.00771 0.59665 0.1339 0.0
H1630 H 0.96007 0.56701 0.14464 0.0
H1631 H 0.93803 0.54507 0.14673 0.0
H1632 H 0.93904 0.53882 0.09261 0.0
H1633 H 0.96119 0.56062 0.09022 0.0
C1634 C 0.98192 0.62166 0.07068 0.0
C1635 C 0.99303 0.62597 0.05917 0.0
C1636 C 0.98084 0.6138 0.085 0.0
C1637 C 0.99084 0.61013 0.08804 0.0
C1638 C 0.00196 0.6145 0.07658 0.0
C1639 C 0.00311 0.62243 0.06237 0.0
C1640 C 0.98933 0.60107 0.10257 0.0
C1641 C 0.97705 0.58837 0.10405 0.0
C1642 C 0.00031 0.60434 0.11398 0.0
C1643 C 0.01307 0.61806 0.11402 0.0
C1644 C 0.02612 0.61923 0.11281 0.0
C1645 C 0.0381 0.63217 0.11261 0.0
C1646 C 0.03719 0.64403 0.11366 0.0
C1647 C 0.02429 0.64297 0.11498 0.0
C1648 C 0.01227 0.63006 0.11522 0.0
C1649 C 0.98412 0.54782 0.13971 0.0
C1650 C 0.98765 0.55018 0.15711 0.0
C1651 C 0.98399 0.55796 0.12979 0.0
C1652 C 0.98716 0.5706 0.13711 0.0
C1653 C 0.99077 0.57303 0.15447 0.0
C1654 C 0.99103 0.5629 0.16439 0.0
C1655 C 0.98712 0.58136 0.12637 0.0
C1656 C -0.00089 0.59437 0.12561 0.0
C1657 C 0.97573 0.57853 0.11595 0.0
C1658 C 0.96235 0.56543 0.11728 0.0
C1659 C 0.95564 0.56092 0.1332 0.0
C1660 C 0.94312 0.54851 0.13444 0.0
C1661 C 0.93715 0.54055 0.11982 0.0
C1662 C 0.94368 0.545 0.10392 0.0
C1663 C 0.95621 0.55739 0.10262 0.0
H1664 H 0.92746 0.53094 0.1208 0.0
H1665 H 0.04648 0.65404 0.11346 0.0
H1666 H 0.38359 0.36327 0.0501 0.0
H1667 H 0.40141 0.37276 0.07221 0.0
H1668 H 0.40291 0.41157 0.06897 0.0
H1669 H 0.38536 0.40231 0.04681 0.0
H1670 H 0.42823 0.41519 0.06847 0.0
H1671 H 0.3868 0.38929 0.10236 0.0
H1672 H 0.36528 0.36849 0.11124 0.0
H1673 H 0.38804 0.3485 0.12298 0.0
H1674 H 0.40969 0.36913 0.11395 0.0
H1675 H 0.46133 0.45068 0.14304 0.0
H1676 H 0.44382 0.4375 0.12161 0.0
H1677 H 0.45009 0.40327 0.12888 0.0
H1678 H 0.46756 0.41639 0.15072 0.0
H1679 H 0.42213 0.39546 0.12664 0.0
H1680 H 0.46387 0.42231 0.09497 0.0
H1681 H 0.4853 0.44337 0.08658 0.0
H1682 H 0.46184 0.46172 0.07077 0.0
H1683 H 0.44026 0.44084 0.07931 0.0
C1684 C 0.38768 0.37381 0.05415 0.0
C1685 C 0.38305 0.38203 0.04664 0.0
C1686 C 0.39783 0.3792 0.06683 0.0
C1687 C 0.40345 0.39286 0.07229 0.0
C1688 C 0.39876 0.40102 0.06491 0.0
C1689 C 0.38868 0.39568 0.05225 0.0
C1690 C 0.41446 0.3989 0.0854 0.0
C1691 C 0.42684 0.41093 0.08123 0.0
C1692 C 0.41283 0.39309 0.10187 0.0
C1693 C 0.39983 0.38069 0.10728 0.0
C1694 C 0.3872 0.38041 0.10669 0.0
C1695 C 0.37498 0.36867 0.11178 0.0
C1696 C 0.37529 0.35717 0.11762 0.0
C1697 C 0.38782 0.3574 0.11842 0.0
C1698 C 0.40006 0.36912 0.11333 0.0
C1699 C 0.45887 0.44029 0.14028 0.0
C1700 C 0.46582 0.43457 0.14859 0.0
C1701 C 0.44894 0.43281 0.12792 0.0
C1702 C 0.44578 0.41947 0.12354 0.0
C1703 C 0.45244 0.41357 0.13206 0.0
C1704 C 0.46246 0.4211 0.14442 0.0
C1705 C 0.43568 0.41193 0.1098 0.0
C1706 C 0.42354 0.39962 0.11382 0.0
C1707 C 0.43749 0.41748 0.09317 0.0
C1708 C 0.45045 0.43004 0.0879 0.0
C1709 C 0.46328 0.43087 0.08982 0.0
C1710 C 0.47546 0.44277 0.08502 0.0
C1711 C 0.47494 0.45389 0.07818 0.0
C1712 C 0.46223 0.45311 0.07608 0.0
C1713 C 0.45002 0.44123 0.08088 0.0
H1714 H 0.48438 0.46309 0.07447 0.0
H1715 H 0.36582 0.34808 0.12156 0.0
H1716 H 0.63618 0.69273 0.38573 0.0
H1717 H 0.63115 0.70538 0.40747 0.0
H1718 H 0.67352 0.72578 0.42391 0.0
H1719 H 0.67876 0.71353 0.40185 0.0
H1720 H 0.64705 0.71169 0.45063 0.0
H1721 H 0.67189 0.74549 0.40478 0.0
H1722 H 0.67506 0.75232 0.3744 0.0
H1723 H 0.63343 0.74426 0.37256 0.0
H1724 H 0.62998 0.73718 0.40289 0.0
H1725 H 0.65534 0.76585 0.50373 0.0
H1726 H 0.65778 0.75078 0.48351 0.0
H1727 H 0.62653 0.75046 0.45148 0.0
H1728 H 0.62489 0.76652 0.47089 0.0
H1729 H 0.64574 0.75292 0.43213 0.0
H1730 H 0.62091 0.72218 0.47757 0.0
H1731 H 0.61559 0.7137 0.50725 0.0
H1732 H 0.65363 0.7135 0.50968 0.0
H1733 H 0.65927 0.72217 0.48008 0.0
C1734 C 0.64438 0.69982 0.39408 0.0
C1735 C 0.65786 0.7022 0.39211 0.0
C1736 C 0.6415 0.70702 0.40645 0.0
C1737 C 0.65199 0.71647 0.4172 0.0
C1738 C 0.66533 0.7185 0.41569 0.0
C1739 C 0.66828 0.71154 0.40308 0.0
C1740 C 0.6492 0.72473 0.42951 0.0
C1741 C 0.64689 0.7208 0.44673 0.0
C1742 C 0.6485 0.73625 0.42414 0.0
C1743 C 0.65063 0.74064 0.406 0.0
C1744 C 0.66338 0.74503 0.39784 0.0
C1745 C 0.66524 0.74899 0.38065 0.0
C1746 C 0.65444 0.74868 0.37153 0.0
C1747 C 0.64178 0.74447 0.37962 0.0
C1748 C 0.63987 0.74049 0.39681 0.0
C1749 C 0.64908 0.76274 0.4923 0.0
C1750 C 0.63995 0.76752 0.48899 0.0
C1751 C 0.65032 0.75388 0.48085 0.0
C1752 C 0.64217 0.74924 0.46606 0.0
C1753 C 0.63291 0.75383 0.46282 0.0
C1754 C 0.63185 0.76291 0.47409 0.0
C1755 C 0.64376 0.7401 0.45362 0.0
C1756 C 0.64581 0.74382 0.43624 0.0
C1757 C 0.64394 0.7282 0.45884 0.0
C1758 C 0.64057 0.72294 0.47664 0.0
C1759 C 0.62819 0.72042 0.48447 0.0
C1760 C 0.62511 0.71557 0.50128 0.0
C1761 C 0.63428 0.71309 0.51036 0.0
C1762 C 0.64654 0.71543 0.50263 0.0
C1763 C 0.64968 0.72031 0.48583 0.0
H1764 H 0.63188 0.70933 0.52337 0.0
H1765 H 0.65589 0.75174 0.35823 0.0
H1766 H 0.26503 0.95339 0.39206 0.0
H1767 H 0.25778 0.93756 0.41609 0.0
H1768 H 0.29508 0.93578 0.41143 0.0
H1769 H 0.30246 0.95166 0.38715 0.0
H1770 H 0.27192 0.91021 0.41486 0.0
H1771 H 0.29196 0.95308 0.44407 0.0
H1772 H 0.29626 0.97628 0.45063 0.0
H1773 H 0.25364 0.95941 0.46444 0.0
H1774 H 0.24902 0.93612 0.45771 0.0
H1775 H 0.25285 0.87023 0.49166 0.0
H1776 H 0.26622 0.88865 0.47109 0.0
H1777 H 0.23316 0.89746 0.46879 0.0
H1778 H 0.21976 0.87908 0.48916 0.0
H1779 H 0.2579 0.92076 0.47061 0.0
H1780 H 0.23743 0.87859 0.43776 0.0
H1781 H 0.23278 0.85535 0.43061 0.0
H1782 H 0.27616 0.87105 0.42341 0.0
H1783 H 0.28108 0.89437 0.43075 0.0
C1784 C 0.27176 0.9497 0.39613 0.0
C1785 C 0.28435 0.95382 0.38766 0.0
C1786 C 0.26761 0.9407 0.40996 0.0
C1787 C 0.27597 0.93562 0.41568 0.0
C1788 C 0.28852 0.93963 0.40725 0.0
C1789 C 0.29272 0.94873 0.39341 0.0
C1790 C 0.27122 0.92577 0.43012 0.0
C1791 C 0.26914 0.9126 0.42719 0.0
C1792 C 0.2674 0.92885 0.44609 0.0
C1793 C 0.27013 0.94284 0.45027 0.0
C1794 C 0.28348 0.95432 0.44839 0.0
C1795 C 0.28597 0.96749 0.45215 0.0
C1796 C 0.27522 0.96932 0.45792 0.0
C1797 C 0.26195 0.95798 0.45996 0.0
C1798 C 0.2594 0.94478 0.4562 0.0
C1799 C 0.24843 0.87607 0.48673 0.0
C1800 C 0.23523 0.87318 0.49205 0.0
C1801 C 0.25609 0.88661 0.47501 0.0
C1802 C 0.25065 0.89437 0.46832 0.0
C1803 C 0.2376 0.89166 0.47385 0.0
C1804 C 0.22996 0.88116 0.48555 0.0
C1805 C 0.25828 0.9051 0.4552 0.0
C1806 C 0.26091 0.91845 0.45838 0.0
C1807 C 0.26258 0.90218 0.43946 0.0
C1808 C 0.25963 0.88818 0.43501 0.0
C1809 C 0.24598 0.87706 0.43479 0.0
C1810 C 0.2433 0.86388 0.43068 0.0
C1811 C 0.25417 0.86171 0.42661 0.0
C1812 C 0.26775 0.87274 0.4266 0.0
C1813 C 0.27049 0.88594 0.43073 0.0
H1814 H 0.25207 0.8515 0.42343 0.0
H1815 H 0.27718 0.97952 0.46082 0.0
H1816 H 0.04429 0.35275 0.3927 0.0
H1817 H 0.06033 0.36056 0.41683 0.0
H1818 H 0.0757 0.33435 0.39989 0.0
H1819 H 0.05949 0.32623 0.37622 0.0
H1820 H 0.07166 0.33177 0.43258 0.0
H1821 H 0.09355 0.37012 0.39356 0.0
H1822 H 0.09503 0.38874 0.3757 0.0
H1823 H 0.08812 0.40712 0.42004 0.0
H1824 H 0.08643 0.3885 0.43814 0.0
H1825 H 0.13982 0.36209 0.46179 0.0
H1826 H 0.12123 0.35879 0.44289 0.0
H1827 H 0.10246 0.36919 0.48409 0.0
H1828 H 0.1208 0.37197 0.50349 0.0
H1829 H 0.10603 0.3808 0.44346 0.0
H1830 H 0.08543 0.34154 0.48247 0.0
H1831 H 0.0862 0.32329 0.4987 0.0
H1832 H 0.09263 0.307 0.45204 0.0
H1833 H 0.09212 0.3253 0.43557 0.0
C1834 C 0.05112 0.34869 0.39412 0.0
C1835 C 0.0506 0.33885 0.38257 0.0
C1836 C 0.06031 0.3532 0.40788 0.0
C1837 C 0.06928 0.34811 0.41013 0.0
C1838 C 0.06882 0.33837 0.3985 0.0
C1839 C 0.05956 0.33376 0.38492 0.0
C1840 C 0.07908 0.35264 0.42466 0.0
C1841 C 0.07911 0.34251 0.43494 0.0
C1842 C 0.08869 0.36666 0.42802 0.0
C1843 C 0.08969 0.37783 0.41715 0.0
C1844 C 0.09223 0.37807 0.39947 0.0
C1845 C 0.09313 0.38864 0.38931 0.0
C1846 C 0.09162 0.39908 0.39672 0.0
C1847 C 0.08925 0.39901 0.41431 0.0
C1848 C 0.08833 0.38846 0.42453 0.0
C1849 C 0.13175 0.36367 0.4669 0.0
C1850 C 0.13166 0.36703 0.48425 0.0
C1851 C 0.12123 0.36192 0.45602 0.0
C1852 C 0.11051 0.3637 0.46217 0.0
C1853 C 0.11072 0.36783 0.47917 0.0
C1854 C 0.12121 0.36943 0.49019 0.0
C1855 C 0.09859 0.35992 0.45102 0.0
C1856 C 0.09825 0.37013 0.44133 0.0
C1857 C 0.08878 0.34598 0.448 0.0
C1858 C 0.08886 0.33485 0.45783 0.0
C1859 C 0.08713 0.33413 0.4757 0.0
C1860 C 0.0875 0.32377 0.48494 0.0
C1861 C 0.0895 0.31401 0.47641 0.0
C1862 C 0.09109 0.31457 0.45863 0.0
C1863 C 0.09075 0.32493 0.44934 0.0
H1864 H 0.08978 0.306 0.48358 0.0
H1865 H 0.09233 0.40726 0.38884 0.0
H1866 H 0.05916 0.34318 0.30034 0.0
H1867 H 0.06953 0.33794 0.27617 0.0
H1868 H 0.02917 0.30615 0.25974 0.0
H1869 H 0.01877 0.31096 0.2845 0.0
H1870 H 0.04546 0.29678 0.25745 0.0
H1871 H 0.04848 0.33751 0.2374 0.0
H1872 H 0.05329 0.36135 0.23806 0.0
H1873 H 0.09642 0.37612 0.24523 0.0
H1874 H 0.09186 0.35236 0.24486 0.0
H1875 H 0.08369 0.29637 0.17989 0.0
H1876 H 0.06738 0.29982 0.19719 0.0
H1877 H 0.09753 0.31793 0.23731 0.0
H1878 H 0.11352 0.31381 0.2208 0.0
H1879 H 0.08285 0.33328 0.22221 0.0
H1880 H 0.07689 0.29055 0.24745 0.0
H1881 H 0.07096 0.2664 0.24498 0.0
H1882 H 0.0313 0.25546 0.22457 0.0
H1883 H 0.03711 0.27961 0.2267 0.0
C1884 C 0.05247 0.33514 0.29151 0.0
C1885 C 0.03816 0.32748 0.29428 0.0
C1886 C 0.0584 0.33222 0.27759 0.0
C1887 C 0.05012 0.32183 0.26588 0.0
C1888 C 0.03577 0.31425 0.26854 0.0
C1889 C 0.02985 0.31701 0.28267 0.0
C1890 C 0.05662 0.31844 0.25153 0.0
C1891 C 0.05341 0.30476 0.2495 0.0
C1892 C 0.06695 0.32877 0.24101 0.0
C1893 C 0.0698 0.34312 0.24118 0.0
C1894 C 0.05898 0.34583 0.23922 0.0
C1895 C 0.06167 0.35933 0.23954 0.0
C1896 C 0.07515 0.37024 0.24171 0.0
C1897 C 0.08598 0.36766 0.24354 0.0
C1898 C 0.08335 0.35418 0.24325 0.0
C1899 C 0.08678 0.30087 0.19251 0.0
C1900 C 0.10002 0.30493 0.19885 0.0
C1901 C 0.07749 0.30293 0.20228 0.0
C1902 C 0.08137 0.30922 0.21838 0.0
C1903 C 0.09446 0.31319 0.22479 0.0
C1904 C 0.10362 0.31091 0.21525 0.0
C1905 C 0.07196 0.31186 0.22875 0.0
C1906 C 0.07465 0.32536 0.22995 0.0
C1907 C 0.06097 0.30137 0.23821 0.0
C1908 C 0.0575 0.28689 0.237 0.0
C1909 C 0.06697 0.28302 0.24226 0.0
C1910 C 0.06362 0.26933 0.24097 0.0
C1911 C 0.05078 0.25941 0.23456 0.0
C1912 C 0.04126 0.26316 0.22949 0.0
C1913 C 0.04457 0.27684 0.23074 0.0
H1914 H 0.0482 0.24881 0.23358 0.0
H1915 H 0.07721 0.38069 0.24195 0.0
H1916 H 0.69348 0.71844 0.30632 0.0
H1917 H 0.70357 0.73711 0.28524 0.0
H1918 H 0.66507 0.73676 0.28311 0.0
H1919 H 0.65506 0.71846 0.30417 0.0
H1920 H 0.69718 0.73964 0.25262 0.0
H1921 H 0.67059 0.76843 0.28043 0.0
H1922 H 0.66295 0.77224 0.30855 0.0
H1923 H 0.69286 0.76549 0.33356 0.0
H1924 H 0.70083 0.76186 0.30559 0.0
H1925 H 0.6894 0.78053 0.19119 0.0
H1926 H 0.68763 0.76444 0.21309 0.0
H1927 H 0.71458 0.7983 0.24585 0.0
H1928 H 0.71578 0.81446 0.22437 0.0
H1929 H 0.69361 0.78104 0.26339 0.0
H1930 H 0.72502 0.77691 0.22673 0.0
H1931 H 0.73447 0.7738 0.19961 0.0
H1932 H 0.69911 0.73338 0.19409 0.0
H1933 H 0.68934 0.73632 0.22106 0.0
C1934 C 0.68717 0.72234 0.30132 0.0
C1935 C 0.67351 0.71704 0.30708 0.0
C1936 C 0.69294 0.73298 0.28926 0.0
C1937 C 0.68515 0.73849 0.28284 0.0
C1938 C 0.67139 0.73288 0.28817 0.0
C1939 C 0.66566 0.72237 0.3002 0.0
C1940 C 0.69123 0.75018 0.27069 0.0
C1941 C 0.69651 0.74875 0.25498 0.0
C1942 C 0.69074 0.76225 0.27401 0.0
C1943 C 0.68625 0.76479 0.29089 0.0
C1944 C 0.67561 0.76786 0.29192 0.0
C1945 C 0.6712 0.76996 0.30784 0.0
C1946 C 0.67739 0.76907 0.32283 0.0
C1947 C 0.68805 0.76614 0.32193 0.0
C1948 C 0.69251 0.76405 0.30605 0.0
C1949 C 0.69496 0.78458 0.20305 0.0
C1950 C 0.70266 0.79882 0.20602 0.0
C1951 C 0.6941 0.77535 0.21549 0.0
C1952 C 0.70109 0.78013 0.2311 0.0
C1953 C 0.70912 0.79434 0.2339 0.0
C1954 C 0.7099 0.80359 0.22152 0.0
C1955 C 0.69908 0.7703 0.24496 0.0
C1956 C 0.69453 0.77206 0.26104 0.0
C1957 C 0.70057 0.75873 0.2421 0.0
C1958 C 0.70641 0.75688 0.22589 0.0
C1959 C 0.71921 0.76739 0.21968 0.0
C1960 C 0.72463 0.76565 0.20434 0.0
C1961 C 0.71738 0.75341 0.19512 0.0
C1962 C 0.70471 0.74286 0.20124 0.0
C1963 C 0.69924 0.74455 0.21657 0.0
H1964 H 0.7216 0.75208 0.18324 0.0
H1965 H 0.67395 0.77068 0.33514 0.0
H1966 H 0.27593 0.94149 0.3048 0.0
H1967 H 0.25956 0.93026 0.28155 0.0
H1968 H 0.26347 0.96897 0.26765 0.0
H1969 H 0.27956 0.98021 0.2913 0.0
H1970 H 0.23764 0.94987 0.2664 0.0
H1971 H 0.27933 0.95453 0.24397 0.0
H1972 H 0.30019 0.95257 0.24372 0.0
H1973 H 0.27503 0.90867 0.24669 0.0
H1974 H 0.25401 0.91039 0.2472 0.0
H1975 H 0.21491 0.91051 0.17845 0.0
H1976 H 0.23286 0.92557 0.19866 0.0
H1977 H 0.20319 0.90932 0.24001 0.0
H1978 H 0.18524 0.89434 0.2199 0.0
H1979 H 0.2435 0.91984 0.22483 0.0
H1980 H 0.21093 0.93347 0.27035 0.0
H1981 H 0.19128 0.93736 0.26865 0.0
H1982 H 0.20046 0.94833 0.21567 0.0
H1983 H 0.22028 0.9447 0.2171 0.0
C1984 C 0.27333 0.94763 0.29678 0.0
C1985 C 0.27907 0.96175 0.29984 0.0
C1986 C 0.26401 0.9412 0.28342 0.0
C1987 C 0.26044 0.9488 0.27265 0.0
C1988 C 0.26609 0.96289 0.27576 0.0
C1989 C 0.2753 0.96931 0.28925 0.0
C1990 C 0.25064 0.94196 0.25833 0.0
C1991 C 0.23894 0.94334 0.25728 0.0
C1992 C 0.25249 0.93369 0.24615 0.0
C1993 C 0.2651 0.9326 0.24575 0.0
C1994 C 0.27825 0.94447 0.24468 0.0
C1995 C 0.2901 0.9434 0.24448 0.0
C1996 C 0.28894 0.9305 0.24522 0.0
C1997 C 0.27591 0.91865 0.24613 0.0
C1998 C 0.26403 0.91967 0.24635 0.0
C1999 C 0.21223 0.91017 0.19186 0.0
C2000 C 0.19865 0.90127 0.19757 0.0
C2001 C 0.22248 0.91879 0.20338 0.0
C2002 C 0.21935 0.91869 0.22083 0.0
C2003 C 0.2058 0.9098 0.22656 0.0
C2004 C 0.19554 0.90124 0.21504 0.0
C2005 C 0.23033 0.92748 0.23318 0.0
C2006 C 0.24224 0.92645 0.23387 0.0
C2007 C 0.22884 0.93634 0.24474 0.0
C2008 C 0.21702 0.93869 0.24381 0.0
C2009 C 0.20879 0.93677 0.25836 0.0
C2010 C 0.19762 0.93892 0.25744 0.0
C2011 C 0.1946 0.94305 0.24205 0.0
C2012 C 0.20278 0.94508 0.22756 0.0
C2013 C 0.21397 0.94296 0.22842 0.0
H2014 H 0.18594 0.9447 0.24136 0.0
H2015 H 0.29812 0.9297 0.24506 0.0
H2016 H 0.67989 0.97077 0.2937 0.0
H2017 H 0.68953 0.96359 0.27019 0.0
H2018 H 0.67852 0.92626 0.29727 0.0
H2019 H 0.66848 0.93311 0.32046 0.0
H2020 H 0.70782 0.94329 0.27996 0.0
H2021 H 0.65744 0.92089 0.27147 0.0
H2022 H 0.63621 0.92195 0.26805 0.0
H2023 H 0.65437 0.9491 0.22522 0.0
H2024 H 0.6758 0.94835 0.22858 0.0
H2025 H 0.70525 0.89239 0.22609 0.0
H2026 H 0.70265 0.90705 0.24699 0.0
H2027 H 0.69625 0.92867 0.20601 0.0
H2028 H 0.69808 0.91339 0.18511 0.0
H2029 H 0.6785 0.92403 0.22846 0.0
H2030 H 0.72679 0.94349 0.23216 0.0
H2031 H 0.74906 0.94438 0.23474 0.0
H2032 H 0.73747 0.92627 0.2847 0.0
H2033 H 0.71503 0.92508 0.28234 0.0
C2034 C 0.67969 0.96112 0.2947 0.0
C2035 C 0.67339 0.95244 0.30882 0.0
C2036 C 0.68518 0.95705 0.2813 0.0
C2037 C 0.68472 0.94443 0.2821 0.0
C2038 C 0.679 0.93606 0.29652 0.0
C2039 C 0.67321 0.93995 0.30968 0.0
C2040 C 0.68923 0.93937 0.26741 0.0
C2041 C 0.70147 0.93903 0.26867 0.0
C2042 C 0.68116 0.93436 0.25249 0.0
C2043 C 0.66826 0.93471 0.25042 0.0
C2044 C 0.65695 0.92719 0.26144 0.0
C2045 C 0.64488 0.92771 0.25949 0.0
C2046 C 0.64396 0.93563 0.24647 0.0
C2047 C 0.65511 0.943 0.23533 0.0
C2048 C 0.66721 0.94253 0.23725 0.0
C2049 C 0.70349 0.90041 0.22157 0.0
C2050 C 0.70192 0.90184 0.20405 0.0
C2051 C 0.7021 0.90887 0.23351 0.0
C2052 C 0.69952 0.91921 0.22813 0.0
C2053 C 0.69826 0.92082 0.21052 0.0
C2054 C 0.69934 0.91213 0.19859 0.0
C2055 C 0.69708 0.92754 0.24099 0.0
C2056 C 0.68515 0.9285 0.23948 0.0
C2057 C 0.70567 0.93342 0.25549 0.0
C2058 C 0.71917 0.93413 0.25702 0.0
C2059 C 0.72894 0.93961 0.24366 0.0
C2060 C 0.74161 0.94018 0.24508 0.0
C2061 C 0.74467 0.93537 0.25986 0.0
C2062 C 0.73508 0.93 0.27326 0.0
C2063 C 0.72239 0.92939 0.27189 0.0
H2064 H 0.75448 0.93581 0.26094 0.0
H2065 H 0.6346 0.93601 0.24497 0.0
H2066 H 0.02378 0.71824 0.29351 0.0
H2067 H 0.03494 0.73405 0.26959 0.0
H2068 H 0.07036 0.72906 0.27409 0.0
H2069 H 0.05936 0.71339 0.2981 0.0
H2070 H 0.07779 0.75565 0.2724 0.0
H2071 H 0.0478 0.71439 0.24125 0.0
H2072 H 0.02555 0.69404 0.23354 0.0
H2073 H 0.00961 0.71998 0.21943 0.0
H2074 H 0.03171 0.74049 0.22728 0.0
H2075 H 0.11355 0.78847 0.19732 0.0
H2076 H 0.10007 0.77048 0.21814 0.0
H2077 H 0.06629 0.77797 0.21282 0.0
H2078 H 0.07962 0.79579 0.19151 0.0
H2079 H 0.05742 0.75031 0.21476 0.0
H2080 H 0.08725 0.79145 0.24589 0.0
H2081 H 0.10943 0.81188 0.25362 0.0
H2082 H 0.1255 0.78612 0.26805 0.0
H2083 H 0.10347 0.76553 0.26015 0.0
C2084 C 0.0339 0.72043 0.28931 0.0
C2085 C 0.04072 0.71461 0.29771 0.0
C2086 C 0.04023 0.72942 0.2756 0.0
C2087 C 0.05344 0.73266 0.27001 0.0
C2088 C 0.06017 0.7267 0.27822 0.0
C2089 C 0.05386 0.71773 0.29192 0.0
C2090 C 0.06057 0.74276 0.25614 0.0
C2091 C 0.07342 0.75437 0.25973 0.0
C2092 C 0.05465 0.74129 0.23978 0.0
C2093 C 0.04136 0.72897 0.23502 0.0
C2094 C 0.03951 0.71576 0.23664 0.0
C2095 C 0.02694 0.70419 0.23222 0.0
C2096 C 0.01616 0.70571 0.22604 0.0
C2097 C 0.01795 0.71881 0.22424 0.0
C2098 C 0.03051 0.73041 0.22866 0.0
C2099 C 0.10316 0.78613 0.20031 0.0
C2100 C 0.09766 0.79358 0.19281 0.0
C2101 C 0.09552 0.77593 0.21233 0.0
C2102 C 0.08227 0.77304 0.21717 0.0
C2103 C 0.07653 0.7801 0.20929 0.0
C2104 C 0.08419 0.79033 0.19724 0.0
C2105 C 0.0747 0.76306 0.23099 0.0
C2106 C 0.06177 0.75154 0.22744 0.0
C2107 C 0.08051 0.7646 0.24743 0.0
C2108 C 0.09375 0.77696 0.25227 0.0
C2109 C 0.09555 0.79015 0.25058 0.0
C2110 C 0.10809 0.80175 0.25501 0.0
C2111 C 0.11888 0.8003 0.26128 0.0
C2112 C 0.11714 0.78723 0.26317 0.0
C2113 C 0.10463 0.77559 0.25873 0.0
H2114 H 0.12858 0.8093 0.26471 0.0
H2115 H 0.00643 0.69675 0.22262 0.0
H2116 H 0.28753 0.34776 0.30251 0.0
H2117 H 0.26955 0.33848 0.28099 0.0
H2118 H 0.26509 0.2985 0.28668 0.0
H2119 H 0.28349 0.30786 0.30823 0.0
H2120 H 0.26336 0.30418 0.25305 0.0
H2121 H 0.24163 0.30449 0.30511 0.0
H2122 H 0.23856 0.31377 0.33234 0.0
H2123 H 0.23604 0.3453 0.30514 0.0
H2124 H 0.23931 0.33635 0.27774 0.0
H2125 H 0.19699 0.27931 0.20889 0.0
H2126 H 0.21449 0.28192 0.22959 0.0
H2127 H 0.23286 0.32588 0.22777 0.0
H2128 H 0.2159 0.32347 0.20672 0.0
H2129 H 0.22496 0.31333 0.26153 0.0
H2130 H 0.24936 0.31355 0.20962 0.0
H2131 H 0.25185 0.30334 0.18284 0.0
H2132 H 0.24785 0.26892 0.21085 0.0
H2133 H 0.24513 0.27885 0.23779 0.0
C2134 C 0.28279 0.33699 0.29922 0.0
C2135 C 0.28685 0.32852 0.30727 0.0
C2136 C 0.27247 0.33169 0.2869 0.0
C2137 C 0.26575 0.31773 0.28249 0.0
C2138 C 0.27007 0.30928 0.29 0.0
C2139 C 0.28056 0.31464 0.30232 0.0
C2140 C 0.25405 0.31216 0.2703 0.0
C2141 C 0.2548 0.30591 0.25506 0.0
C2142 C 0.24285 0.31438 0.27291 0.0
C2143 C 0.24079 0.31978 0.28936 0.0
C2144 C 0.24051 0.31346 0.30493 0.0
C2145 C 0.23873 0.31866 0.3204 0.0
C2146 C 0.23713 0.33013 0.32047 0.0
C2147 C 0.23728 0.33642 0.30506 0.0
C2148 C 0.23908 0.33127 0.28955 0.0
C2149 C 0.20493 0.28954 0.21262 0.0
C2150 C 0.20489 0.30117 0.20632 0.0
C2151 C 0.21487 0.291 0.2245 0.0
C2152 C 0.22486 0.30409 0.23028 0.0
C2153 C 0.22514 0.31569 0.22357 0.0
C2154 C 0.21536 0.31427 0.21162 0.0
C2155 C 0.23459 0.3059 0.24408 0.0
C2156 C 0.23339 0.31138 0.25968 0.0
C2157 C 0.2452 0.30277 0.24186 0.0
C2158 C 0.24685 0.29685 0.22568 0.0
C2159 C 0.24886 0.30373 0.21005 0.0
C2160 C 0.25035 0.29802 0.19485 0.0
C2161 C 0.24996 0.28547 0.19514 0.0
C2162 C 0.24812 0.27863 0.21064 0.0
C2163 C 0.24661 0.2843 0.22588 0.0
H2164 H 0.25112 0.28106 0.18336 0.0
H2165 H 0.23575 0.33414 0.33246 0.0
H2166 H 0.31532 0.36604 0.39331 0.0
H2167 H 0.30341 0.37148 0.41564 0.0
H2168 H 0.27271 0.32849 0.42 0.0
H2169 H 0.28435 0.32305 0.39749 0.0
H2170 H 0.26073 0.34312 0.41762 0.0
H2171 H 0.29799 0.34599 0.45085 0.0
H2172 H 0.32232 0.35434 0.45795 0.0
H2173 H 0.33012 0.39559 0.46161 0.0
H2174 H 0.30586 0.38751 0.45431 0.0
H2175 H 0.22576 0.34127 0.49256 0.0
H2176 H 0.24161 0.33878 0.47341 0.0
H2177 H 0.2663 0.38277 0.46837 0.0
H2178 H 0.25034 0.38537 0.48748 0.0
H2179 H 0.28211 0.36955 0.4707 0.0
H2180 H 0.24449 0.36627 0.43824 0.0
H2181 H 0.21999 0.35759 0.43173 0.0
H2182 H 0.21291 0.31666 0.42686 0.0
H2183 H 0.23733 0.32506 0.43361 0.0
C2184 C 0.3061 0.35775 0.39915 0.0
C2185 C 0.30073 0.34412 0.3936 0.0
C2186 C 0.29933 0.36086 0.41196 0.0
C2187 C 0.28719 0.35038 0.41958 0.0
C2188 C 0.28203 0.33675 0.41428 0.0
C2189 C 0.28871 0.33366 0.40142 0.0
C2190 C 0.2794 0.35356 0.43243 0.0
C2191 C 0.2654 0.34876 0.42931 0.0
C2192 C 0.28557 0.36129 0.44745 0.0
C2193 C 0.30015 0.36617 0.45185 0.0
C2194 C 0.30492 0.35686 0.45303 0.0
C2195 C 0.31869 0.36154 0.45712 0.0
C2196 C 0.32777 0.37549 0.46018 0.0
C2197 C 0.32308 0.38479 0.45921 0.0
C2198 C 0.30932 0.38016 0.45511 0.0
C2199 C 0.23459 0.35044 0.48744 0.0
C2200 C 0.23667 0.36352 0.4913 0.0
C2201 C 0.24366 0.34899 0.47656 0.0
C2202 C 0.25499 0.36058 0.46928 0.0
C2203 C 0.25759 0.37371 0.47385 0.0
C2204 C 0.24848 0.37517 0.48477 0.0
C2205 C 0.26345 0.35882 0.456 0.0
C2206 C 0.27752 0.36395 0.45897 0.0
C2207 C 0.25737 0.35134 0.44083 0.0
C2208 C 0.24271 0.34628 0.43657 0.0
C2209 C 0.23769 0.3554 0.4359 0.0
C2210 C 0.22382 0.35053 0.43216 0.0
C2211 C 0.2149 0.33658 0.42892 0.0
C2212 C 0.21984 0.32747 0.42938 0.0
C2213 C 0.23369 0.33228 0.43315 0.0
H2214 H 0.20416 0.33283 0.42602 0.0
H2215 H 0.33843 0.3791 0.46334 0.0
H2216 H 0.67844 0.96474 0.40296 0.0
H2217 H 0.67486 0.94926 0.42673 0.0
H2218 H 0.6323 0.92335 0.41186 0.0
H2219 H 0.63567 0.93921 0.38874 0.0
H2220 H 0.63299 0.92404 0.44425 0.0
H2221 H 0.65903 0.9162 0.40154 0.0
H2222 H 0.67828 0.92229 0.3814 0.0
H2223 H 0.70693 0.93689 0.42313 0.0
H2224 H 0.68786 0.93105 0.44351 0.0
H2225 H 0.62389 0.86046 0.47791 0.0
H2226 H 0.62683 0.87892 0.45906 0.0
H2227 H 0.6613 0.90829 0.48914 0.0
H2228 H 0.65799 0.8901 0.50875 0.0
H2229 H 0.66518 0.90649 0.45071 0.0
H2230 H 0.63683 0.91184 0.49334 0.0
H2231 H 0.61625 0.90351 0.51182 0.0
H2232 H 0.59025 0.89068 0.46751 0.0
H2233 H 0.61068 0.89875 0.44876 0.0
C2234 C 0.66831 0.95578 0.40487 0.0
C2235 C 0.65735 0.95312 0.39399 0.0
C2236 C 0.66628 0.94689 0.41839 0.0
C2237 C 0.65338 0.93495 0.4209 0.0
C2238 C 0.64236 0.93247 0.41022 0.0
C2239 C 0.64429 0.94152 0.39697 0.0
C2240 C 0.65138 0.92487 0.43439 0.0
C2241 C 0.63999 0.92014 0.44552 0.0
C2242 C 0.66055 0.91982 0.43624 0.0
C2243 C 0.67204 0.92333 0.42403 0.0
C2244 C 0.66945 0.9208 0.40641 0.0
C2245 C 0.68033 0.92419 0.39495 0.0
C2246 C 0.69382 0.93001 0.40098 0.0
C2247 C 0.69647 0.93241 0.41848 0.0
C2248 C 0.68563 0.92905 0.42999 0.0
C2249 C 0.63187 0.87087 0.48086 0.0
C2250 C 0.64075 0.87372 0.49486 0.0
C2251 C 0.63359 0.88139 0.46997 0.0
C2252 C 0.6443 0.89489 0.47274 0.0
C2253 C 0.65302 0.89787 0.4868 0.0
C2254 C 0.65116 0.88742 0.49789 0.0
C2255 C 0.64685 0.90575 0.46036 0.0
C2256 C 0.6583 0.91054 0.44943 0.0
C2257 C 0.63756 0.91057 0.45842 0.0
C2258 C 0.62528 0.90577 0.46966 0.0
C2259 C 0.62672 0.90712 0.48754 0.0
C2260 C 0.61508 0.90247 0.49807 0.0
C2261 C 0.60195 0.89653 0.49085 0.0
C2262 C 0.60043 0.89527 0.47308 0.0
C2263 C 0.61203 0.89989 0.46251 0.0
H2264 H 0.59295 0.89295 0.49901 0.0
H2265 H 0.70223 0.93263 0.39209 0.0
H2266 H 0.05485 0.73764 0.38663 0.0
H2267 H 0.07203 0.74676 0.40923 0.0
H2268 H 0.07203 0.70863 0.41084 0.0
H2269 H 0.05453 0.69925 0.38831 0.0
H2270 H 0.0726 0.71834 0.44274 0.0
H2271 H 0.09811 0.73623 0.39095 0.0
H2272 H 0.10372 0.74765 0.36282 0.0
H2273 H 0.10962 0.78468 0.38629 0.0
H2274 H 0.10386 0.77342 0.41454 0.0
H2275 H 0.13556 0.75096 0.49195 0.0
H2276 H 0.11834 0.73825 0.46974 0.0
H2277 H 0.11167 0.77236 0.46389 0.0
H2278 H 0.12893 0.78514 0.48577 0.0
H2279 H 0.11565 0.76295 0.43321 0.0
H2280 H 0.08849 0.74414 0.48477 0.0
H2281 H 0.08298 0.73252 0.51276 0.0
H2282 H 0.08072 0.69697 0.48939 0.0
H2283 H 0.08641 0.70846 0.46128 0.0
C2284 C 0.05846 0.73115 0.39176 0.0
C2285 C 0.05339 0.71774 0.38553 0.0
C2286 C 0.06833 0.73641 0.40467 0.0
C2287 C 0.0735 0.72847 0.4115 0.0
C2288 C 0.06822 0.71495 0.40567 0.0
C2289 C 0.05825 0.70963 0.39277 0.0
C2290 C 0.08451 0.73446 0.4246 0.0
C2291 C 0.08213 0.72797 0.44056 0.0
C2292 C 0.09688 0.74708 0.42181 0.0
C2293 C 0.10045 0.75394 0.40485 0.0
C2294 C 0.10052 0.74678 0.3901 0.0
C2295 C 0.10374 0.75323 0.37413 0.0
C2296 C 0.107 0.76687 0.37277 0.0
C2297 C 0.10708 0.77411 0.38737 0.0
C2298 C 0.10386 0.7677 0.40337 0.0
C2299 C 0.1304 0.75572 0.48592 0.0
C2300 C 0.13355 0.76902 0.49065 0.0
C2301 C 0.12052 0.74842 0.47333 0.0
C2302 C 0.1137 0.75435 0.46525 0.0
C2303 C 0.11681 0.7676 0.47 0.0
C2304 C 0.12659 0.77484 0.48261 0.0
C2305 C 0.10359 0.74703 0.45146 0.0
C2306 C 0.10618 0.75325 0.43532 0.0
C2307 C 0.09149 0.73414 0.45408 0.0
C2308 C 0.08804 0.72722 0.47096 0.0
C2309 C 0.08694 0.73389 0.48562 0.0
C2310 C 0.08376 0.72732 0.50151 0.0
C2311 C 0.08155 0.71403 0.50287 0.0
C2312 C 0.08247 0.70727 0.48833 0.0
C2313 C 0.08566 0.71381 0.47242 0.0
H2314 H 0.07908 0.70896 0.51517 0.0
H2315 H 0.10949 0.77185 0.3604 0.0
H2316 H 0.30526 0.02238 0.72872 0.0
H2317 H 0.2995 0.03322 0.75202 0.0
H2318 H 0.34112 0.06777 0.751 0.0
H2319 H 0.347 0.05696 0.72789 0.0
H2320 H 0.33205 0.06 0.78345 0.0
H2321 H 0.31503 0.06937 0.73172 0.0
H2322 H 0.30126 0.06315 0.70529 0.0
H2323 H 0.26406 0.03962 0.73458 0.0
H2324 H 0.27763 0.04556 0.76118 0.0
H2325 H 0.32729 0.11397 0.82132 0.0
H2326 H 0.33019 0.09865 0.80192 0.0
H2327 H 0.2874 0.06767 0.80904 0.0
H2328 H 0.28443 0.08295 0.82873 0.0
H2329 H 0.29499 0.07101 0.77539 0.0
H2330 H 0.31195 0.06366 0.82755 0.0
H2331 H 0.3258 0.07027 0.85391 0.0
H2332 H 0.3631 0.09006 0.82402 0.0
H2333 H 0.34947 0.08375 0.79747 0.0
C2334 C 0.3132 0.03225 0.73353 0.0
C2335 C 0.32657 0.03886 0.72641 0.0
C2336 C 0.30988 0.03845 0.7468 0.0
C2337 C 0.31985 0.05137 0.75311 0.0
C2338 C 0.33328 0.0578 0.74631 0.0
C2339 C 0.3366 0.05163 0.73306 0.0
C2340 C 0.31629 0.05841 0.76652 0.0
C2341 C 0.32402 0.06249 0.78165 0.0
C2342 C 0.30552 0.0613 0.76437 0.0
C2343 C 0.29736 0.05777 0.7484 0.0
C2344 C 0.30392 0.06278 0.73251 0.0
C2345 C 0.29615 0.05932 0.7175 0.0
C2346 C 0.2818 0.05096 0.71825 0.0
C2347 C 0.27518 0.04607 0.73402 0.0
C2348 C 0.2829 0.04948 0.74906 0.0
C2349 C 0.31854 0.10382 0.81901 0.0
C2350 C 0.30565 0.09964 0.82671 0.0
C2351 C 0.32021 0.09509 0.80786 0.0
C2352 C 0.30906 0.08195 0.80421 0.0
C2353 C 0.29614 0.07776 0.81173 0.0
C2354 C 0.29446 0.08651 0.82293 0.0
C2355 C 0.31094 0.07283 0.79218 0.0
C2356 C 0.3029 0.06836 0.77731 0.0
C2357 C 0.32142 0.06958 0.79457 0.0
C2358 C 0.32968 0.07331 0.81051 0.0
C2359 C 0.3231 0.06951 0.82659 0.0
C2360 C 0.33092 0.07319 0.84157 0.0
C2361 C 0.34532 0.0806 0.84064 0.0
C2362 C 0.35194 0.08432 0.82472 0.0
C2363 C 0.34418 0.08068 0.8097 0.0
H2364 H 0.35135 0.08345 0.85225 0.0
H2365 H 0.2758 0.0483 0.70662 0.0
H2366 H 0.93164 0.27823 0.71331 0.0
H2367 H 0.9249 0.26271 0.73757 0.0
H2368 H 0.9644 0.26508 0.73604 0.0
H2369 H 0.97134 0.28079 0.71153 0.0
H2370 H 0.94172 0.23806 0.73973 0.0
H2371 H 0.95938 0.28157 0.76679 0.0
H2372 H 0.96239 0.30449 0.77166 0.0
H2373 H 0.91929 0.28615 0.7838 0.0
H2374 H 0.91597 0.26311 0.77874 0.0
H2375 H 0.92121 0.19993 0.81857 0.0
H2376 H 0.93488 0.21775 0.7974 0.0
H2377 H 0.90132 0.22547 0.79119 0.0
H2378 H 0.88764 0.20771 0.81212 0.0
H2379 H 0.92555 0.24907 0.79351 0.0
H2380 H 0.90739 0.20619 0.76232 0.0
H2381 H 0.9039 0.18315 0.75668 0.0
H2382 H 0.94771 0.20033 0.75198 0.0
H2383 H 0.95146 0.22346 0.75783 0.0
C2384 C 0.93895 0.2755 0.71806 0.0
C2385 C 0.95207 0.28081 0.71047 0.0
C2386 C 0.93508 0.26665 0.732 0.0
C2387 C 0.94421 0.26288 0.73872 0.0
C2388 C 0.95724 0.26794 0.73107 0.0
C2389 C 0.96119 0.27692 0.71711 0.0
C2390 C 0.93986 0.25354 0.75366 0.0
C2391 C 0.93848 0.24056 0.75166 0.0
C2392 C 0.93547 0.25677 0.7691 0.0
C2393 C 0.93742 0.2706 0.77228 0.0
C2394 C 0.95052 0.28242 0.77038 0.0
C2395 C 0.95229 0.29544 0.77319 0.0
C2396 C 0.94103 0.29678 0.77802 0.0
C2397 C 0.928 0.2851 0.78007 0.0
C2398 C 0.92617 0.27205 0.77725 0.0
C2399 C 0.91674 0.2054 0.81264 0.0
C2400 C 0.90334 0.20242 0.81708 0.0
C2401 C 0.92457 0.21559 0.80057 0.0
C2402 C 0.9191 0.2229 0.79265 0.0
C2403 C 0.9058 0.22003 0.79721 0.0
C2404 C 0.898 0.20989 0.80925 0.0
C2405 C 0.92699 0.23342 0.7794 0.0
C2406 C 0.92905 0.24665 0.78173 0.0
C2407 C 0.93196 0.2304 0.76426 0.0
C2408 C 0.92971 0.21651 0.76073 0.0
C2409 C 0.91628 0.20503 0.76023 0.0
C2410 C 0.91425 0.19197 0.75697 0.0
C2411 C 0.92558 0.19027 0.75403 0.0
C2412 C 0.93895 0.20165 0.7543 0.0
C2413 C 0.94103 0.21474 0.75758 0.0
H2414 H 0.92399 0.18015 0.7515 0.0
H2415 H 0.94242 0.30686 0.78019 0.0
H2416 H 0.71694 0.69011 0.71904 0.0
H2417 H 0.7319 0.69793 0.74427 0.0
H2418 H 0.73091 0.65932 0.74576 0.0
H2419 H 0.71608 0.65145 0.72068 0.0
H2420 H 0.72677 0.6678 0.77782 0.0
H2421 H 0.758 0.68655 0.72885 0.0
H2422 H 0.76694 0.70052 0.70267 0.0
H2423 H 0.77466 0.73645 0.73083 0.0
H2424 H 0.76558 0.72263 0.75714 0.0
H2425 H 0.78412 0.67458 0.82046 0.0
H2426 H 0.76607 0.67133 0.80072 0.0
H2427 H 0.77791 0.71389 0.80661 0.0
H2428 H 0.79609 0.71723 0.82658 0.0
H2429 H 0.77497 0.70669 0.77355 0.0
H2430 H 0.74762 0.68911 0.82348 0.0
H2431 H 0.7389 0.67557 0.84999 0.0
H2432 H 0.72352 0.63825 0.8211 0.0
H2433 H 0.73233 0.65156 0.79443 0.0
C2434 C 0.7199 0.68328 0.72476 0.0
C2435 C 0.71536 0.67017 0.7178 0.0
C2436 C 0.72844 0.68777 0.73915 0.0
C2437 C 0.7325 0.67919 0.74683 0.0
C2438 C 0.72784 0.66607 0.74004 0.0
C2439 C 0.71943 0.66162 0.72563 0.0
C2440 C 0.74189 0.68386 0.7617 0.0
C2441 C 0.73732 0.67628 0.77692 0.0
C2442 C 0.75547 0.69525 0.76069 0.0
C2443 C 0.76095 0.70353 0.74489 0.0
C2444 C 0.76149 0.6974 0.72942 0.0
C2445 C 0.76661 0.7053 0.71457 0.0
C2446 C 0.77132 0.71936 0.71507 0.0
C2447 C 0.77097 0.72555 0.73045 0.0
C2448 C 0.76585 0.7177 0.74533 0.0
C2449 C 0.78273 0.6832 0.81787 0.0
C2450 C 0.7915 0.69615 0.82518 0.0
C2451 C 0.77239 0.68133 0.80655 0.0
C2452 C 0.77052 0.69232 0.80236 0.0
C2453 C 0.77917 0.70526 0.80971 0.0
C2454 C 0.78955 0.70715 0.82107 0.0
C2455 C 0.76 0.69032 0.78953 0.0
C2456 C 0.76434 0.6984 0.77467 0.0
C2457 C 0.74616 0.67946 0.79095 0.0
C2458 C 0.74071 0.67135 0.80694 0.0
C2459 C 0.74246 0.67801 0.82278 0.0
C2460 C 0.73749 0.67038 0.83784 0.0
C2461 C 0.73068 0.65606 0.83723 0.0
C2462 C 0.7288 0.64934 0.82155 0.0
C2463 C 0.73376 0.65693 0.80645 0.0
H2464 H 0.72685 0.65016 0.84891 0.0
H2465 H 0.77528 0.72545 0.70356 0.0
H2466 H 0.72453 0.6781 0.62955 0.0
H2467 H 0.73481 0.67358 0.60459 0.0
H2468 H 0.69668 0.63565 0.59552 0.0
H2469 H 0.68643 0.63994 0.62081 0.0
H2470 H 0.71765 0.63161 0.59328 0.0
H2471 H 0.70731 0.6641 0.56946 0.0
H2472 H 0.70695 0.68569 0.56798 0.0
H2473 H 0.75124 0.70875 0.56632 0.0
H2474 H 0.75188 0.68731 0.56803 0.0
H2475 H 0.74603 0.62144 0.51661 0.0
H2476 H 0.73064 0.62497 0.53563 0.0
H2477 H 0.76509 0.66376 0.55193 0.0
H2478 H 0.78038 0.66039 0.53282 0.0
H2479 H 0.74294 0.66598 0.54778 0.0
H2480 H 0.75304 0.63373 0.57551 0.0
H2481 H 0.75353 0.61221 0.57739 0.0
H2482 H 0.70948 0.5888 0.57176 0.0
H2483 H 0.70877 0.6102 0.56963 0.0
C2484 C 0.7183 0.66883 0.62219 0.0
C2485 C 0.70468 0.65936 0.62714 0.0
C2486 C 0.72416 0.6663 0.60784 0.0
C2487 C 0.71645 0.65437 0.59802 0.0
C2488 C 0.7028 0.64494 0.60288 0.0
C2489 C 0.69697 0.64741 0.61732 0.0
C2490 C 0.72291 0.65142 0.58326 0.0
C2491 C 0.72293 0.63901 0.58313 0.0
C2492 C 0.72998 0.66115 0.57015 0.0
C2493 C 0.72964 0.67408 0.56899 0.0
C2494 C 0.71698 0.67377 0.56889 0.0
C2495 C 0.71672 0.68599 0.56799 0.0
C2496 C 0.72906 0.69858 0.56708 0.0
C2497 C 0.74169 0.69899 0.56703 0.0
C2498 C 0.742 0.6868 0.56794 0.0
C2499 C 0.75027 0.63073 0.52422 0.0
C2500 C 0.76439 0.64063 0.52327 0.0
C2501 C 0.74149 0.63274 0.53506 0.0
C2502 C 0.74676 0.64456 0.54535 0.0
C2503 C 0.76079 0.6546 0.54406 0.0
C2504 C 0.76951 0.65266 0.53313 0.0
C2505 C 0.73792 0.64633 0.55806 0.0
C2506 C 0.73745 0.6585 0.55779 0.0
C2507 C 0.73044 0.6364 0.57081 0.0
C2508 C 0.73087 0.62355 0.57223 0.0
C2509 C 0.74347 0.62399 0.57457 0.0
C2510 C 0.74379 0.61182 0.57569 0.0
C2511 C 0.73155 0.59914 0.57464 0.0
C2512 C 0.71896 0.59862 0.57253 0.0
C2513 C 0.71859 0.61076 0.57138 0.0
H2514 H 0.73181 0.58973 0.57551 0.0
H2515 H 0.72884 0.70803 0.56639 0.0
H2516 H 0.35618 0.0485 0.63073 0.0
H2517 H 0.36438 0.06518 0.60726 0.0
H2518 H 0.3355 0.07778 0.62261 0.0
H2519 H 0.32708 0.06103 0.64562 0.0
H2520 H 0.33441 0.07441 0.5897 0.0
H2521 H 0.37085 0.09726 0.63116 0.0
H2522 H 0.38925 0.09953 0.65029 0.0
H2523 H 0.41085 0.09528 0.60732 0.0
H2524 H 0.39248 0.09281 0.58796 0.0
H2525 H 0.37947 0.14752 0.55658 0.0
H2526 H 0.37571 0.12991 0.57741 0.0
H2527 H 0.35841 0.09899 0.53789 0.0
H2528 H 0.36222 0.11658 0.51691 0.0
H2529 H 0.38337 0.11076 0.58149 0.0
H2530 H 0.33006 0.071 0.55486 0.0
H2531 H 0.31137 0.07026 0.53769 0.0
H2532 H 0.32295 0.11088 0.55471 0.0
H2533 H 0.34157 0.11177 0.57216 0.0
C2534 C 0.35164 0.05488 0.62912 0.0
C2535 C 0.34094 0.05339 0.64002 0.0
C2536 C 0.35635 0.06443 0.61573 0.0
C2537 C 0.35058 0.07278 0.61318 0.0
C2538 C 0.34005 0.0714 0.62421 0.0
C2539 C 0.33527 0.06182 0.63742 0.0
C2540 C 0.3552 0.08283 0.59892 0.0
C2541 C 0.34514 0.08228 0.58786 0.0
C2542 C 0.36917 0.09319 0.59654 0.0
C2543 C 0.38022 0.0947 0.60815 0.0
C2544 C 0.37947 0.09671 0.62582 0.0
C2545 C 0.3899 0.09805 0.63669 0.0
C2546 C 0.40119 0.09751 0.63003 0.0
C2547 C 0.40209 0.09567 0.61247 0.0
C2548 C 0.39168 0.09431 0.60154 0.0
C2549 C 0.37516 0.13702 0.55221 0.0
C2550 C 0.37102 0.13344 0.5351 0.0
C2551 C 0.37301 0.12696 0.56415 0.0
C2552 C 0.36664 0.11312 0.55925 0.0
C2553 C 0.36317 0.10959 0.542 0.0
C2554 C 0.3653 0.11964 0.53005 0.0
C2555 C 0.36256 0.10234 0.57245 0.0
C2556 C 0.37269 0.10273 0.58323 0.0
C2557 C 0.3486 0.092 0.57487 0.0
C2558 C 0.3373 0.0915 0.56463 0.0
C2559 C 0.32858 0.07975 0.55496 0.0
C2560 C 0.318 0.07931 0.54519 0.0
C2561 C 0.31601 0.09054 0.54505 0.0
C2562 C 0.32454 0.10221 0.55477 0.0
C2563 C 0.33511 0.10269 0.56459 0.0
H2564 H 0.30782 0.09019 0.53746 0.0
H2565 H 0.40925 0.09855 0.63847 0.0
H2566 H 0.94419 0.30693 0.62017 0.0
H2567 H 0.92743 0.2947 0.59753 0.0
H2568 H 0.93625 0.2618 0.59994 0.0
H2569 H 0.95316 0.27405 0.6225 0.0
H2570 H 0.93409 0.26835 0.56693 0.0
H2571 H 0.9079 0.25847 0.61926 0.0
H2572 H 0.90024 0.26426 0.64606 0.0
H2573 H 0.88512 0.28626 0.61762 0.0
H2574 H 0.89287 0.28076 0.59065 0.0
H2575 H 0.87411 0.21495 0.5273 0.0
H2576 H 0.89266 0.22945 0.547 0.0
H2577 H 0.88194 0.26094 0.54306 0.0
H2578 H 0.86344 0.24656 0.52311 0.0
H2579 H 0.88542 0.25609 0.57603 0.0
H2580 H 0.91058 0.26508 0.52351 0.0
H2581 H 0.91817 0.25926 0.49669 0.0
H2582 H 0.93517 0.23902 0.52522 0.0
H2583 H 0.9275 0.24454 0.55223 0.0
C2584 C 0.94262 0.29712 0.61583 0.0
C2585 C 0.94993 0.2914 0.62321 0.0
C2586 C 0.93301 0.29013 0.60292 0.0
C2587 C 0.93048 0.27727 0.5972 0.0
C2588 C 0.93804 0.27171 0.6042 0.0
C2589 C 0.94765 0.27869 0.61713 0.0
C2590 C 0.91968 0.26945 0.58425 0.0
C2591 C 0.92341 0.26553 0.56898 0.0
C2592 C 0.90583 0.26608 0.58677 0.0
C2593 C 0.9011 0.26933 0.60296 0.0
C2594 C 0.90304 0.26464 0.61873 0.0
C2595 C 0.89867 0.26785 0.63395 0.0
C2596 C 0.89223 0.27565 0.63355 0.0
C2597 C 0.89012 0.28023 0.61791 0.0
C2598 C 0.8945 0.27706 0.60266 0.0
C2599 C 0.87582 0.22504 0.5304 0.0
C2600 C 0.8673 0.22961 0.52357 0.0
C2601 C 0.88641 0.23331 0.5417 0.0
C2602 C 0.88877 0.24633 0.54637 0.0
C2603 C 0.88029 0.25092 0.53962 0.0
C2604 C 0.86969 0.24267 0.52828 0.0
C2605 C 0.89979 0.25493 0.55872 0.0
C2606 C 0.8961 0.25897 0.57391 0.0
C2607 C 0.91367 0.25842 0.55611 0.0
C2608 C 0.91835 0.25512 0.53989 0.0
C2609 C 0.91584 0.25929 0.52407 0.0
C2610 C 0.92017 0.25607 0.50883 0.0
C2611 C 0.92712 0.24875 0.50925 0.0
C2612 C 0.92978 0.24467 0.52492 0.0
C2613 C 0.92545 0.24786 0.54019 0.0
H2614 H 0.93047 0.24627 0.49744 0.0
H2615 H 0.88885 0.27813 0.64534 0.0
H2616 H 0.31287 0.26348 0.63838 0.0
H2617 H 0.32157 0.25446 0.61638 0.0
H2618 H 0.35802 0.29438 0.61054 0.0
H2619 H 0.34932 0.30363 0.63265 0.0
H2620 H 0.34717 0.28101 0.57919 0.0
H2621 H 0.36082 0.27145 0.63258 0.0
H2622 H 0.3575 0.26326 0.66238 0.0
H2623 H 0.32789 0.22248 0.6458 0.0
H2624 H 0.33086 0.23047 0.61592 0.0
H2625 H 0.38043 0.25028 0.53242 0.0
H2626 H 0.37573 0.26355 0.55361 0.0
H2627 H 0.33682 0.22743 0.56603 0.0
H2628 H 0.34147 0.21416 0.54502 0.0
H2629 H 0.35211 0.24121 0.59471 0.0
H2630 H 0.337 0.25121 0.54193 0.0
H2631 H 0.3398 0.25935 0.51216 0.0
H2632 H 0.37221 0.29929 0.52765 0.0
H2633 H 0.36974 0.29132 0.5575 0.0
C2634 C 0.32271 0.27042 0.63241 0.0
C2635 C 0.33044 0.28428 0.63741 0.0
C2636 C 0.32768 0.26521 0.61984 0.0
C2637 C 0.34053 0.2737 0.61203 0.0
C2638 C 0.3481 0.28765 0.6165 0.0
C2639 C 0.34313 0.2929 0.62915 0.0
C2640 C 0.34606 0.26773 0.59958 0.0
C2641 C 0.34853 0.27249 0.58263 0.0
C2642 C 0.34765 0.25651 0.60407 0.0
C2643 C 0.34599 0.25159 0.62201 0.0
C2644 C 0.35353 0.26075 0.6353 0.0
C2645 C 0.35172 0.25614 0.65221 0.0
C2646 C 0.34247 0.24237 0.65599 0.0
C2647 C 0.33504 0.23316 0.64286 0.0
C2648 C 0.3368 0.23772 0.62592 0.0
C2649 C 0.37089 0.2452 0.5397 0.0
C2650 C 0.36128 0.23121 0.53703 0.0
C2651 C 0.3682 0.25279 0.55172 0.0
C2652 C 0.3559 0.24646 0.56132 0.0
C2653 C 0.34636 0.23249 0.55874 0.0
C2654 C 0.34898 0.22496 0.54664 0.0
C2655 C 0.35293 0.25427 0.57424 0.0
C2656 C 0.35096 0.24986 0.59131 0.0
C2657 C 0.35183 0.26581 0.56985 0.0
C2658 C 0.35331 0.27062 0.55191 0.0
C2659 C 0.34482 0.26169 0.53897 0.0
C2660 C 0.34632 0.26628 0.52208 0.0
C2661 C 0.3562 0.27982 0.518 0.0
C2662 C 0.36458 0.2888 0.53082 0.0
C2663 C 0.36313 0.28425 0.54773 0.0
H2664 H 0.35734 0.28336 0.50492 0.0
H2665 H 0.34107 0.23882 0.66909 0.0
H2666 H 0.72469 0.0442 0.62394 0.0
H2667 H 0.73584 0.06013 0.60017 0.0
H2668 H 0.70231 0.06829 0.59904 0.0
H2669 H 0.69099 0.05222 0.62265 0.0
H2670 H 0.71016 0.06569 0.567 0.0
H2671 H 0.73218 0.09059 0.61823 0.0
H2672 H 0.74436 0.0947 0.64569 0.0
H2673 H 0.77798 0.09412 0.62007 0.0
H2674 H 0.76591 0.08982 0.59248 0.0
H2675 H 0.74537 0.12878 0.52043 0.0
H2676 H 0.73254 0.11087 0.54178 0.0
H2677 H 0.76569 0.10218 0.54354 0.0
H2678 H 0.77871 0.12027 0.52265 0.0
H2679 H 0.75771 0.10495 0.57509 0.0
H2680 H 0.73567 0.08041 0.52361 0.0
H2681 H 0.72343 0.07652 0.49625 0.0
H2682 H 0.6898 0.07675 0.52236 0.0
H2683 H 0.70194 0.08084 0.54986 0.0
C2684 C 0.71966 0.04933 0.61858 0.0
C2685 C 0.70702 0.04704 0.62525 0.0
C2686 C 0.72605 0.05845 0.60503 0.0
C2687 C 0.71998 0.06553 0.59801 0.0
C2688 C 0.70717 0.06295 0.6043 0.0
C2689 C 0.70075 0.05381 0.61783 0.0
C2690 C 0.7272 0.0759 0.58445 0.0
C2691 C 0.72049 0.07437 0.56882 0.0
C2692 C 0.74077 0.08709 0.58676 0.0
C2693 C 0.74808 0.08975 0.60332 0.0
C2694 C 0.74213 0.09124 0.61847 0.0
C2695 C 0.74901 0.09362 0.63406 0.0
C2696 C 0.76192 0.09463 0.63463 0.0
C2697 C 0.76798 0.09331 0.61961 0.0
C2698 C 0.76112 0.09091 0.60399 0.0
C2699 C 0.7499 0.12304 0.52537 0.0
C2700 C 0.76303 0.12591 0.51982 0.0
C2701 C 0.74252 0.11274 0.53744 0.0
C2702 C 0.74813 0.10514 0.54413 0.0
C2703 C 0.76116 0.1079 0.5385 0.0
C2704 C 0.76853 0.11816 0.52644 0.0
C2705 C 0.74073 0.09469 0.55757 0.0
C2706 C 0.74739 0.09625 0.57323 0.0
C2707 C 0.72712 0.08358 0.55528 0.0
C2708 C 0.71978 0.08107 0.53877 0.0
C2709 C 0.72572 0.07975 0.5235 0.0
C2710 C 0.71879 0.07748 0.50797 0.0
C2711 C 0.70586 0.07642 0.50756 0.0
C2712 C 0.69982 0.07759 0.52269 0.0
C2713 C 0.70672 0.07987 0.53826 0.0
H2714 H 0.70051 0.07467 0.49552 0.0
H2715 H 0.76724 0.09648 0.6467 0.0
H2716 H 0.9568 0.68501 0.63249 0.0
H2717 H 0.93942 0.67824 0.61029 0.0
H2718 H 0.93048 0.63643 0.61342 0.0
H2719 H 0.94821 0.64322 0.63548 0.0
H2720 H 0.92973 0.64342 0.58061 0.0
H2721 H 0.90969 0.64587 0.63356 0.0
H2722 H 0.90825 0.65622 0.66079 0.0
H2723 H 0.90891 0.68937 0.6334 0.0
H2724 H 0.91056 0.67932 0.606 0.0
H2725 H 0.86361 0.61856 0.53944 0.0
H2726 H 0.88199 0.62237 0.55933 0.0
H2727 H 0.89757 0.66594 0.55805 0.0
H2728 H 0.87956 0.66231 0.53792 0.0
H2729 H 0.89368 0.65567 0.59088 0.0
H2730 H 0.91461 0.65308 0.5378 0.0
H2731 H 0.91563 0.64212 0.51089 0.0
H2732 H 0.91232 0.60809 0.53912 0.0
H2733 H 0.91108 0.61877 0.5662 0.0
C2734 C 0.95122 0.67438 0.6284 0.0
C2735 C 0.95378 0.66462 0.63591 0.0
C2736 C 0.94125 0.67051 0.61573 0.0
C2737 C 0.93342 0.65676 0.61047 0.0
C2738 C 0.93634 0.64708 0.61736 0.0
C2739 C 0.94646 0.65098 0.62998 0.0
C2740 C 0.92187 0.65255 0.59827 0.0
C2741 C 0.92172 0.6459 0.58297 0.0
C2742 C 0.91145 0.65586 0.60128 0.0
C2743 C 0.91035 0.66189 0.61773 0.0
C2744 C 0.90962 0.65542 0.63334 0.0
C2745 C 0.90875 0.66122 0.64881 0.0
C2746 C 0.90851 0.67346 0.64882 0.0
C2747 C 0.9091 0.6799 0.63337 0.0
C2748 C 0.90999 0.67414 0.61787 0.0
C2749 C 0.87108 0.62897 0.54318 0.0
C2750 C 0.87001 0.64012 0.5372 0.0
C2751 C 0.88155 0.63112 0.55458 0.0
C2752 C 0.89112 0.64444 0.56018 0.0
C2753 C 0.89023 0.65557 0.55398 0.0
C2754 C 0.87986 0.65346 0.54255 0.0
C2755 C 0.90174 0.64685 0.57306 0.0
C2756 C 0.90165 0.65311 0.58856 0.0
C2757 C 0.91181 0.64305 0.57028 0.0
C2758 C 0.91259 0.63665 0.55401 0.0
C2759 C 0.91397 0.6432 0.53826 0.0
C2760 C 0.91462 0.63705 0.52298 0.0
C2761 C 0.914 0.6244 0.52329 0.0
C2762 C 0.91277 0.61789 0.5389 0.0
C2763 C 0.91211 0.62398 0.55421 0.0
H2764 H 0.91451 0.61966 0.51145 0.0
H2765 H 0.90784 0.67794 0.66081 0.0
H2766 H 0.97912 0.687 0.73578 0.0
H2767 H 0.96682 0.69274 0.75737 0.0
H2768 H 0.92808 0.66458 0.73346 0.0
H2769 H 0.94019 0.65851 0.71219 0.0
H2770 H 0.93476 0.69376 0.7403 0.0
H2771 H 0.93256 0.65373 0.76661 0.0
H2772 H 0.943 0.64076 0.77787 0.0
H2773 H 0.96655 0.67312 0.81378 0.0
H2774 H 0.9564 0.68639 0.80254 0.0
H2775 H 0.88241 0.68731 0.79493 0.0
H2776 H 0.89761 0.68376 0.7761 0.0
H2777 H 0.92933 0.7003 0.81464 0.0
H2778 H 0.91372 0.7029 0.83417 0.0
H2779 H 0.92879 0.67931 0.80111 0.0
H2780 H 0.93069 0.71885 0.77772 0.0
H2781 H 0.92195 0.73339 0.76669 0.0
H2782 H 0.90157 0.70481 0.72569 0.0
H2783 H 0.91002 0.68999 0.7366 0.0
C2784 C 0.96797 0.68197 0.73523 0.0
C2785 C 0.96061 0.67231 0.72233 0.0
C2786 C 0.96099 0.68524 0.74754 0.0
C2787 C 0.94658 0.67908 0.74692 0.0
C2788 C 0.93921 0.66943 0.73409 0.0
C2789 C 0.94614 0.66595 0.72202 0.0
C2790 C 0.93913 0.68288 0.75938 0.0
C2791 C 0.93332 0.69053 0.75358 0.0
C2792 C 0.93782 0.67912 0.77679 0.0
C2793 C 0.94386 0.67112 0.78358 0.0
C2794 C 0.94008 0.65815 0.77678 0.0
C2795 C 0.94592 0.65072 0.78319 0.0
C2796 C 0.95547 0.65613 0.79649 0.0
C2797 C 0.95918 0.66896 0.80345 0.0
C2798 C 0.95338 0.67643 0.79707 0.0
C2799 C 0.89254 0.69004 0.79957 0.0
C2800 C 0.89677 0.69535 0.81617 0.0
C2801 C 0.90134 0.68822 0.78862 0.0
C2802 C 0.91475 0.69201 0.79378 0.0
C2803 C 0.91906 0.69737 0.81031 0.0
C2804 C 0.91016 0.69899 0.82141 0.0
C2805 C 0.92405 0.68999 0.78201 0.0
C2806 C 0.93028 0.68271 0.78791 0.0
C2807 C 0.926 0.69436 0.76472 0.0
C2808 C 0.92091 0.70325 0.75807 0.0
C2809 C 0.92426 0.71561 0.76642 0.0
C2810 C 0.91937 0.72391 0.76018 0.0
C2811 C 0.91119 0.72001 0.74552 0.0
C2812 C 0.9079 0.70781 0.73705 0.0
C2813 C 0.91275 0.69947 0.74325 0.0
H2814 H 0.90742 0.72645 0.74071 0.0
H2815 H 0.95998 0.65037 0.80144 0.0
H2816 H 0.34371 0.29287 0.72743 0.0
H2817 H 0.33993 0.27618 0.74966 0.0
H2818 H 0.29587 0.25856 0.74511 0.0
H2819 H 0.29963 0.2756 0.72335 0.0
H2820 H 0.30205 0.25939 0.7772 0.0
H2821 H 0.31327 0.24348 0.72627 0.0
H2822 H 0.32691 0.24503 0.70061 0.0
H2823 H 0.36144 0.25353 0.73222 0.0
H2824 H 0.34807 0.25221 0.75806 0.0
H2825 H 0.28506 0.19573 0.81753 0.0
H2826 H 0.28766 0.21339 0.79738 0.0
H2827 H 0.3317 0.23533 0.80512 0.0
H2828 H 0.32919 0.21785 0.82542 0.0
H2829 H 0.32471 0.23166 0.77113 0.0
H2830 H 0.3121 0.24709 0.82237 0.0
H2831 H 0.29723 0.24436 0.84718 0.0
H2832 H 0.26354 0.23499 0.81353 0.0
H2833 H 0.27816 0.23747 0.78852 0.0
C2834 C 0.33322 0.28547 0.73124 0.0
C2835 C 0.32195 0.28546 0.7236 0.0
C2836 C 0.33107 0.2759 0.74388 0.0
C2837 C 0.31761 0.26592 0.7488 0.0
C2838 C 0.30635 0.26612 0.74148 0.0
C2839 C 0.3085 0.27585 0.72903 0.0
C2840 C 0.31529 0.25518 0.76142 0.0
C2841 C 0.30686 0.25321 0.77575 0.0
C2842 C 0.32165 0.24717 0.75961 0.0
C2843 C 0.3297 0.24787 0.7441 0.0
C2844 C 0.3238 0.24577 0.72774 0.0
C2845 C 0.33148 0.2466 0.71316 0.0
C2846 C 0.34504 0.24941 0.71478 0.0
C2847 C 0.35094 0.25137 0.73099 0.0
C2848 C 0.34331 0.25057 0.74561 0.0
C2849 C 0.29527 0.20443 0.81516 0.0
C2850 C 0.30693 0.20536 0.82302 0.0
C2851 C 0.29674 0.21449 0.80361 0.0
C2852 C 0.30987 0.22567 0.7998 0.0
C2853 C 0.32149 0.22674 0.80783 0.0
C2854 C 0.32003 0.21672 0.81938 0.0
C2855 C 0.31163 0.23603 0.78696 0.0
C2856 C 0.31991 0.23787 0.77255 0.0
C2857 C 0.30495 0.24373 0.78855 0.0
C2858 C 0.29619 0.24234 0.80358 0.0
C2859 C 0.30149 0.24434 0.82027 0.0
C2860 C 0.29312 0.24286 0.83437 0.0
C2861 C 0.27944 0.23947 0.83194 0.0
C2862 C 0.27413 0.2376 0.8154 0.0
C2863 C 0.28246 0.23905 0.80126 0.0
H2864 H 0.27297 0.23832 0.84287 0.0
H2865 H 0.35096 0.25005 0.70348 0.0
H2866 H 0.72435 0.03153 0.71052 0.0
H2867 H 0.74184 0.04013 0.73305 0.0
H2868 H 0.73634 0.07491 0.74068 0.0
H2869 H 0.71933 0.06668 0.71789 0.0
H2870 H 0.76215 0.08351 0.73988 0.0
H2871 H 0.72318 0.04664 0.76897 0.0
H2872 H 0.70433 0.02277 0.77329 0.0
H2873 H 0.73376 0.00926 0.77493 0.0
H2874 H 0.75277 0.03304 0.77041 0.0
H2875 H 0.78512 0.08967 0.83336 0.0
H2876 H 0.7677 0.07704 0.81149 0.0
H2877 H 0.79985 0.08803 0.7738 0.0
H2878 H 0.8173 0.10111 0.79538 0.0
H2879 H 0.761 0.05594 0.7897 0.0
H2880 H 0.79014 0.09642 0.737 0.0
H2881 H 0.80736 0.12111 0.73449 0.0
H2882 H 0.79445 0.1287 0.78315 0.0
H2883 H 0.77704 0.10411 0.78583 0.0
C2884 C 0.72685 0.04098 0.71707 0.0
C2885 C 0.72051 0.04845 0.71237 0.0
C2886 C 0.7368 0.04586 0.73 0.0
C2887 C 0.74037 0.05814 0.73867 0.0
C2888 C 0.73386 0.06546 0.73413 0.0
C2889 C 0.7241 0.06072 0.72109 0.0
C2890 C 0.75115 0.06372 0.75213 0.0
C2891 C 0.76188 0.07743 0.75072 0.0
C2892 C 0.75079 0.05588 0.76641 0.0
C2893 C 0.73938 0.04159 0.76917 0.0
C2894 C 0.72562 0.03856 0.77013 0.0
C2895 C 0.71491 0.02505 0.77264 0.0
C2896 C 0.71784 0.0145 0.77434 0.0
C2897 C 0.7315 0.01744 0.77358 0.0
C2898 C 0.74225 0.03093 0.77106 0.0
C2899 C 0.78849 0.08937 0.82042 0.0
C2900 C 0.8026 0.09656 0.81608 0.0
C2901 C 0.77852 0.08202 0.80798 0.0
C2902 C 0.78247 0.08175 0.79098 0.0
C2903 C 0.79657 0.08824 0.78682 0.0
C2904 C 0.80654 0.09563 0.79922 0.0
C2905 C 0.77188 0.07567 0.77738 0.0
C2906 C 0.76126 0.06192 0.77875 0.0
C2907 C 0.77209 0.08356 0.76327 0.0
C2908 C 0.78241 0.0984 0.76169 0.0
C2909 C 0.79096 0.10337 0.74713 0.0
C2910 C 0.80075 0.11734 0.74569 0.0
C2911 C 0.80203 0.12646 0.75868 0.0
C2912 C 0.79349 0.12162 0.77313 0.0
C2913 C 0.78367 0.10767 0.77462 0.0
H2914 H 0.80962 0.13727 0.75755 0.0
H2915 H 0.70953 0.00405 0.77628 0.0
H2916 H 0.02143 0.32643 0.05486 0.0
H2917 H 0.03819 0.32109 0.06665 0.0
H2918 H 0.0647 0.33968 0.02285 0.0
H2919 H 0.04802 0.3454 0.01102 0.0
H2920 H 0.05867 0.31085 0.03626 0.0
H2921 H 0.07592 0.35829 0.05217 0.0
H2922 H 0.07341 0.37724 0.06382 0.0
H2923 H 0.05964 0.3562 0.1119 0.0
H2924 H 0.06186 0.33702 0.10042 0.0
H2925 H 0.11508 0.30955 0.07641 0.0
H2926 H 0.10053 0.31541 0.05948 0.0
H2927 H 0.07893 0.3153 0.10549 0.0
H2928 H 0.09386 0.31006 0.12241 0.0
H2929 H 0.08408 0.3363 0.08822 0.0
H2930 H 0.06506 0.28872 0.07373 0.0
H2931 H 0.06542 0.26829 0.06322 0.0
H2932 H 0.0801 0.28742 0.01421 0.0
H2933 H 0.07999 0.30804 0.02451 0.0
C2934 C 0.03077 0.32932 0.04763 0.0
C2935 C 0.03343 0.33638 0.03202 0.0
C2936 C 0.04033 0.32625 0.05441 0.0
C2937 C 0.05264 0.33001 0.04562 0.0
C2938 C 0.05521 0.33669 0.02977 0.0
C2939 C 0.04572 0.33998 0.02309 0.0
C2940 C 0.06298 0.3274 0.05357 0.0
C2941 C 0.06448 0.31655 0.04742 0.0
C2942 C 0.07015 0.3346 0.0684 0.0
C2943 C 0.06893 0.34617 0.07538 0.0
C2944 C 0.07224 0.35765 0.06517 0.0
C2945 C 0.07089 0.36844 0.07175 0.0
C2946 C 0.06634 0.36791 0.08858 0.0
C2947 C 0.06315 0.3566 0.09886 0.0
C2948 C 0.06447 0.34577 0.09233 0.0
C2949 C 0.10713 0.31068 0.08282 0.0
C2950 C 0.10557 0.30937 0.10068 0.0
C2951 C 0.09879 0.31398 0.07315 0.0
C2952 C 0.0885 0.31569 0.08115 0.0
C2953 C 0.08682 0.31413 0.09899 0.0
C2954 C 0.09532 0.3111 0.10866 0.0
C2955 C 0.07974 0.31951 0.07115 0.0
C2956 C 0.07848 0.33062 0.07694 0.0
C2957 C 0.0726 0.31236 0.05617 0.0
C2958 C 0.07267 0.29998 0.04995 0.0
C2959 C 0.06847 0.28861 0.06076 0.0
C2960 C 0.06861 0.27699 0.05483 0.0
C2961 C 0.07282 0.27658 0.03807 0.0
C2962 C 0.07686 0.28777 0.02719 0.0
C2963 C 0.07676 0.29942 0.03307 0.0
H2964 H 0.07292 0.26757 0.0335 0.0
H2965 H 0.0653 0.37627 0.09365 0.0
H2966 H 0.66349 0.68609 0.03997 0.0
H2967 H 0.67353 0.7076 0.0563 0.0
H2968 H 0.64111 0.71427 0.03891 0.0
H2969 H 0.63086 0.69271 0.02283 0.0
H2970 H 0.6693 0.73771 0.03611 0.0
H2971 H 0.63797 0.70314 0.07657 0.0
H2972 H 0.62913 0.68171 0.09303 0.0
H2973 H 0.66877 0.69734 0.11644 0.0
H2974 H 0.67791 0.71879 0.09991 0.0
H2975 H 0.67065 0.7886 0.08849 0.0
H2976 H 0.66475 0.76788 0.07243 0.0
H2977 H 0.69164 0.76081 0.10439 0.0
H2978 H 0.69689 0.78111 0.12138 0.0
H2979 H 0.66909 0.73777 0.09962 0.0
H2980 H 0.70043 0.77279 0.06217 0.0
H2981 H 0.71061 0.79427 0.0456 0.0
H2982 H 0.67349 0.77834 0.01614 0.0
H2983 H 0.663 0.75682 0.03269 0.0
C2984 C 0.65852 0.69215 0.03961 0.0
C2985 C 0.64636 0.68769 0.03015 0.0
C2986 C 0.66425 0.7044 0.04895 0.0
C2987 C 0.65803 0.71246 0.04879 0.0
C2988 C 0.64605 0.70817 0.03915 0.0
C2989 C 0.64018 0.69583 0.03005 0.0
C2990 C 0.66387 0.72533 0.05881 0.0
C2991 C 0.66918 0.73777 0.04999 0.0
C2992 C 0.66418 0.72536 0.07689 0.0
C2993 C 0.65867 0.71249 0.08685 0.0
C2994 C 0.64484 0.70195 0.0851 0.0
C2995 C 0.63977 0.68981 0.09447 0.0
C2996 C 0.64839 0.68815 0.10573 0.0
C2997 C 0.66211 0.69863 0.10768 0.0
C2998 C 0.66724 0.71078 0.09833 0.0
C2999 C 0.67521 0.78258 0.0923 0.0
C3000 C 0.68422 0.78654 0.10633 0.0
C3001 C 0.67199 0.77082 0.08288 0.0
C3002 C 0.67795 0.7629 0.08696 0.0
C3003 C 0.68698 0.76681 0.10092 0.0
C3004 C 0.69008 0.7785 0.11052 0.0
C3005 C 0.67431 0.75029 0.07695 0.0
C3006 C 0.66941 0.73784 0.08574 0.0
C3007 C 0.67462 0.7503 0.05881 0.0
C3008 C 0.68089 0.76321 0.04877 0.0
C3009 C 0.6944 0.7739 0.05224 0.0
C3010 C 0.70023 0.78608 0.04284 0.0
C3011 C 0.6927 0.78768 0.02985 0.0
C3012 C 0.67932 0.77708 0.02621 0.0
C3013 C 0.67343 0.76488 0.03559 0.0
H3014 H 0.69723 0.79712 0.02259 0.0
H3015 H 0.64444 0.67875 0.11297 0.0
H3016 H 0.31373 0.94676 0.04461 0.0
H3017 H 0.29124 0.93513 0.05896 0.0
H3018 H 0.28287 0.96608 0.04052 0.0
H3019 H 0.30551 0.97801 0.02672 0.0
H3020 H 0.27405 0.96012 0.07164 0.0
H3021 H 0.269 0.93387 0.02114 0.0
H3022 H 0.2747 0.92076 0.00067 0.0
H3023 H 0.26781 0.89139 0.03978 0.0
H3024 H 0.26224 0.90442 0.06055 0.0
H3025 H 0.19811 0.89645 0.07358 0.0
H3026 H 0.22016 0.91149 0.05929 0.0
H3027 H 0.23914 0.92736 0.10839 0.0
H3028 H 0.2169 0.91271 0.1226 0.0
H3029 H 0.2422 0.91053 0.0607 0.0
H3030 H 0.26744 0.95886 0.10446 0.0
H3031 H 0.26047 0.97258 0.12198 0.0
H3032 H 0.22445 0.95898 0.09095 0.0
H3033 H 0.2313 0.94533 0.07312 0.0
C3034 C 0.30711 0.95109 0.04365 0.0
C3035 C 0.31136 0.96325 0.03446 0.0
C3036 C 0.29424 0.94442 0.05181 0.0
C3037 C 0.28527 0.94961 0.05059 0.0
C3038 C 0.28961 0.96188 0.04165 0.0
C3039 C 0.30254 0.96866 0.03372 0.0
C3040 C 0.27126 0.94214 0.05831 0.0
C3041 C 0.26707 0.94928 0.06925 0.0
C3042 C 0.26202 0.92807 0.0549 0.0
C3043 C 0.26533 0.92019 0.04243 0.0
C3044 C 0.26879 0.92466 0.0254 0.0
C3045 C 0.27199 0.91724 0.01374 0.0
C3046 C 0.27165 0.90527 0.01893 0.0
C3047 C 0.26809 0.90068 0.03578 0.0
C3048 C 0.2649 0.90807 0.0475 0.0
C3049 C 0.20696 0.90337 0.08124 0.0
C3050 C 0.20589 0.90351 0.09913 0.0
C3051 C 0.21954 0.9119 0.07311 0.0
C3052 C 0.23133 0.92059 0.08274 0.0
C3053 C 0.23016 0.92096 0.10064 0.0
C3054 C 0.21748 0.91258 0.10876 0.0
C3055 C 0.24496 0.92848 0.07412 0.0
C3056 C 0.24912 0.92139 0.06307 0.0
C3057 C 0.25397 0.94268 0.07701 0.0
C3058 C 0.24983 0.95097 0.08756 0.0
C3059 C 0.25807 0.95884 0.10134 0.0
C3060 C 0.25413 0.9666 0.11133 0.0
C3061 C 0.242 0.96662 0.10762 0.0
C3062 C 0.23381 0.95891 0.09386 0.0
C3063 C 0.23771 0.95115 0.08382 0.0
H3064 H 0.23897 0.97262 0.11537 0.0
H3065 H 0.27412 0.89954 0.00988 0.0
H3066 H 0.32525 0.01537 0.96809 0.0
H3067 H 0.3193 0.0315 0.95605 0.0
H3068 H 0.34098 0.06001 0.9971 0.0
H3069 H 0.34758 0.0441 0.00874 0.0
H3070 H 0.30506 0.042 0.96506 0.0
H3071 H 0.35457 0.09264 0.98353 0.0
H3072 H 0.37919 0.10116 0.98918 0.0
H3073 H 0.37755 0.06917 0.95759 0.0
H3074 H 0.35299 0.06057 0.95158 0.0
H3075 H 0.29468 0.09679 0.94222 0.0
H3076 H 0.29967 0.08107 0.95786 0.0
H3077 H 0.33381 0.09115 0.92352 0.0
H3078 H 0.32923 0.10735 0.90855 0.0
H3079 H 0.34156 0.0901 0.95337 0.0
H3080 H 0.30121 0.06022 0.92097 0.0
H3081 H 0.27736 0.05061 0.91071 0.0
H3082 H 0.26199 0.03907 0.96204 0.0
H3083 H 0.28578 0.04878 0.97264 0.0
C3084 C 0.32873 0.02506 0.97459 0.0
C3085 C 0.33698 0.02853 0.98928 0.0
C3086 C 0.32527 0.03426 0.96773 0.0
C3087 C 0.32982 0.04707 0.97552 0.0
C3088 C 0.3376 0.05033 0.99062 0.0
C3089 C 0.34132 0.04122 0.99731 0.0
C3090 C 0.32669 0.05704 0.96744 0.0
C3091 C 0.31304 0.05253 0.96257 0.0
C3092 C 0.33712 0.07072 0.96386 0.0
C3093 C 0.35191 0.07587 0.96729 0.0
C3094 C 0.35948 0.08745 0.97776 0.0
C3095 C 0.37342 0.09229 0.98103 0.0
C3096 C 0.37991 0.08568 0.9738 0.0
C3097 C 0.3725 0.07425 0.96323 0.0
C3098 C 0.35856 0.06937 0.95991 0.0
C3099 C 0.30322 0.09557 0.93808 0.0
C3100 C 0.31158 0.10319 0.92425 0.0
C3101 C 0.30604 0.08658 0.94695 0.0
C3102 C 0.31703 0.08478 0.94176 0.0
C3103 C 0.32533 0.09239 0.92785 0.0
C3104 C 0.32269 0.10159 0.91925 0.0
C3105 C 0.31996 0.07501 0.95077 0.0
C3106 C 0.33356 0.07959 0.95595 0.0
C3107 C 0.3096 0.06122 0.95395 0.0
C3108 C 0.29528 0.05536 0.94762 0.0
C3109 C 0.29275 0.05572 0.93009 0.0
C3110 C 0.27924 0.05024 0.92421 0.0
C3111 C 0.26817 0.04427 0.93572 0.0
C3112 C 0.27058 0.04373 0.95314 0.0
C3113 C 0.28407 0.04921 0.95909 0.0
H3114 H 0.25772 0.04003 0.93115 0.0
H3115 H 0.3907 0.08944 0.97636 0.0
H3116 H 0.9811 0.30329 0.99457 0.0
H3117 H 0.96869 0.28114 0.97985 0.0
H3118 H 0.93323 0.28602 0.97473 0.0
H3119 H 0.94538 0.30789 0.98986 0.0
H3120 H 0.92503 0.26084 0.98319 0.0
H3121 H 0.95662 0.29229 0.94112 0.0
H3122 H 0.97938 0.30943 0.92949 0.0
H3123 H 0.99332 0.28056 0.93376 0.0
H3124 H 0.97068 0.26329 0.94562 0.0
H3125 H 0.88951 0.2173 0.91392 0.0
H3126 H 0.90398 0.23768 0.93106 0.0
H3127 H 0.93205 0.22309 0.94058 0.0
H3128 H 0.91734 0.20231 0.92389 0.0
H3129 H 0.94497 0.25176 0.93135 0.0
H3130 H 0.91183 0.21965 0.9713 0.0
H3131 H 0.88846 0.20281 0.98156 0.0
H3132 H 0.87686 0.23358 0.97991 0.0
H3133 H 0.90011 0.25056 0.96937 0.0
C3134 C 0.97064 0.29961 0.99036 0.0
C3135 C 0.96425 0.30739 0.99334 0.0
C3136 C 0.96358 0.28698 0.98188 0.0
C3137 C 0.95009 0.28199 0.97594 0.0
C3138 C 0.94362 0.28964 0.97918 0.0
C3139 C 0.9506 0.30217 0.98782 0.0
C3140 C 0.94265 0.26888 0.96626 0.0
C3141 C 0.92937 0.25893 0.97179 0.0
C3142 C 0.94841 0.2662 0.95159 0.0
C3143 C 0.96202 0.27656 0.94444 0.0
C3144 C 0.96458 0.28963 0.9397 0.0
C3145 C 0.97745 0.29937 0.93305 0.0
C3146 C 0.98781 0.2961 0.93094 0.0
C3147 C 0.9853 0.28308 0.93543 0.0
C3148 C 0.97245 0.27332 0.94211 0.0
C3149 C 0.89867 0.2183 0.91979 0.0
C3150 C 0.90214 0.20804 0.9177 0.0
C3151 C 0.90697 0.23002 0.92949 0.0
C3152 C 0.91898 0.23179 0.93721 0.0
C3153 C 0.9228 0.22186 0.93471 0.0
C3154 C 0.9144 0.21004 0.92511 0.0
C3155 C 0.92733 0.24395 0.94815 0.0
C3156 C 0.94074 0.25367 0.94287 0.0
C3157 C 0.92164 0.24651 0.96293 0.0
C3158 C 0.90768 0.23635 0.96941 0.0
C3159 C 0.90426 0.2228 0.97299 0.0
C3160 C 0.89105 0.21323 0.97888 0.0
C3161 C 0.88117 0.21711 0.98135 0.0
C3162 C 0.88452 0.23059 0.97798 0.0
C3163 C 0.89772 0.24019 0.97207 0.0
H3164 H 0.87094 0.20969 0.98591 0.0
H3165 H -0.00223 0.30365 0.92578 0.0
H3166 H 0.68539 0.64273 0.98793 0.0
H3167 H 0.70826 0.64986 0.9762 0.0
H3168 H 0.71564 0.69085 0.96879 0.0
H3169 H 0.69259 0.68365 0.97994 0.0
H3170 H 0.72325 0.68333 0.94156 0.0
H3171 H 0.73162 0.68252 0.00133 0.0
H3172 H 0.72768 0.6728 0.03039 0.0
H3173 H 0.7341 0.6406 0.01196 0.0
H3174 H 0.7379 0.65003 0.98273 0.0
H3175 H 0.79589 0.71307 0.92566 0.0
H3176 H 0.77418 0.70744 0.93987 0.0
H3177 H 0.76057 0.66435 0.9365 0.0
H3178 H 0.78181 0.66973 0.9215 0.0
H3179 H 0.75697 0.67398 0.96989 0.0
H3180 H 0.74745 0.67462 0.90984 0.0
H3181 H 0.75186 0.68491 0.88107 0.0
H3182 H 0.74826 0.71845 0.90097 0.0
H3183 H 0.74402 0.70844 0.92993 0.0
C3184 C 0.69193 0.65329 0.98393 0.0
C3185 C 0.68719 0.66263 0.98485 0.0
C3186 C 0.70504 0.65738 0.9773 0.0
C3187 C 0.71377 0.67095 0.97178 0.0
C3188 C 0.70911 0.68033 0.97294 0.0
C3189 C 0.69594 0.67621 0.97936 0.0
C3190 C 0.72752 0.67522 0.96412 0.0
C3191 C 0.7307 0.68149 0.94794 0.0
C3192 C 0.73718 0.67261 0.97224 0.0
C3193 C 0.73492 0.66692 0.98981 0.0
C3194 C 0.73209 0.67331 0.00345 0.0
C3195 C 0.7299 0.66786 0.01995 0.0
C3196 C 0.7306 0.65607 0.02301 0.0
C3197 C 0.73354 0.64972 0.00957 0.0
C3198 C 0.73573 0.65512 0.99304 0.0
C3199 C 0.78824 0.70238 0.92774 0.0
C3200 C 0.79069 0.69188 0.92239 0.0
C3201 C 0.77589 0.6992 0.93599 0.0
C3202 C 0.76583 0.68549 0.93923 0.0
C3203 C 0.76829 0.675 0.93423 0.0
C3204 C 0.78051 0.67814 0.92574 0.0
C3205 C 0.75257 0.68202 0.94747 0.0
C3206 C 0.74951 0.6759 0.96369 0.0
C3207 C 0.74307 0.68486 0.93948 0.0
C3208 C 0.74558 0.69087 0.92208 0.0
C3209 C 0.74773 0.68426 0.90811 0.0
C3210 C 0.75017 0.69002 0.89176 0.0
C3211 C 0.75038 0.70235 0.8892 0.0
C3212 C 0.74812 0.70891 0.90298 0.0
C3213 C 0.74569 0.7032 0.91936 0.0
H3214 H 0.75226 0.70679 0.87653 0.0
H3215 H 0.72891 0.65187 0.0358 0.0
H3216 H 0.97426 0.66889 0.98613 0.0
H3217 H 0.96185 0.67789 0.97042 0.0
H3218 H 0.92426 0.63868 0.97473 0.0
H3219 H 0.93658 0.62954 0.99034 0.0
H3220 H 0.92878 0.64886 0.94223 0.0
H3221 H 0.92915 0.66528 -0.00056 0.0
H3222 H 0.93998 0.67745 0.02627 0.0
H3223 H 0.9637 0.71512 0.99853 0.0
H3224 H 0.95313 0.70312 0.97147 0.0
H3225 H 0.87894 0.66553 0.91879 0.0
H3226 H 0.89299 0.65851 0.93452 0.0
H3227 H 0.92826 0.69938 0.9297 0.0
H3228 H 0.91417 0.70651 0.91394 0.0
H3229 H 0.92628 0.68945 0.96153 0.0
H3230 H 0.92562 0.67364 0.90459 0.0
H3231 H 0.91512 0.66178 0.87748 0.0
H3232 H 0.89267 0.62341 0.90413 0.0
H3233 H 0.90289 0.63508 0.93145 0.0
C3234 C 0.96334 0.66218 0.98379 0.0
C3235 C 0.95641 0.64849 0.9895 0.0
C3236 C 0.95626 0.66736 0.97487 0.0
C3237 C 0.94213 0.65897 0.97153 0.0
C3238 C 0.93518 0.64532 0.9772 0.0
C3239 C 0.94223 0.64013 0.98616 0.0
C3240 C 0.93461 0.66431 0.96178 0.0
C3241 C 0.92809 0.65764 0.94655 0.0
C3242 C 0.93413 0.67604 0.96715 0.0
C3243 C 0.94045 0.68327 0.98341 0.0
C3244 C 0.93676 0.67613 -0.00096 0.0
C3245 C 0.94283 0.683 0.01429 0.0
C3246 C 0.95255 0.69704 0.0141 0.0
C3247 C 0.95618 0.70424 0.99865 0.0
C3248 C 0.95015 0.69741 0.98336 0.0
C3249 C 0.88972 0.673 0.92095 0.0
C3250 C 0.8955 0.68653 0.91497 0.0
C3251 C 0.89773 0.66898 0.92996 0.0
C3252 C 0.91173 0.67837 0.93302 0.0
C3253 C 0.91749 0.69197 0.92741 0.0
C3254 C 0.90943 0.69603 0.91844 0.0
C3255 C 0.92027 0.67387 0.9421 0.0
C3256 C 0.92702 0.68072 0.95717 0.0
C3257 C 0.92105 0.66234 0.93653 0.0
C3258 C 0.91494 0.65526 0.9201 0.0
C3259 C 0.91837 0.66269 0.90469 0.0
C3260 C 0.91248 0.656 0.88928 0.0
C3261 C 0.90321 0.64185 0.88909 0.0
C3262 C 0.89984 0.63437 0.9043 0.0
C3263 C 0.90569 0.64101 0.91975 0.0
H3264 H 0.89866 0.63669 0.87715 0.0
H3265 H 0.95724 0.70234 0.02592 0.0
H3266 H 0.35491 0.31004 0.00339 0.0
H3267 H 0.34898 0.2875 0.99191 0.0
H3268 H 0.31734 0.28729 0.96079 0.0
H3269 H 0.32292 0.30953 0.97252 0.0
H3270 H 0.30832 0.26269 0.97382 0.0
H3271 H 0.34987 0.29644 0.94458 0.0
H3272 H 0.37403 0.31546 0.94297 0.0
H3273 H 0.38745 0.29066 0.96822 0.0
H3274 H 0.36334 0.27155 0.97016 0.0
H3275 H 0.29875 0.2146 0.90923 0.0
H3276 H 0.30391 0.23516 0.92562 0.0
H3277 H 0.33545 0.23233 0.95328 0.0
H3278 H 0.33056 0.21199 0.93656 0.0
H3279 H 0.34475 0.25767 0.94434 0.0
H3280 H 0.3032 0.22315 0.97148 0.0
H3281 H 0.27904 0.20413 0.97269 0.0
H3282 H 0.2655 0.23019 0.95134 0.0
H3283 H 0.2896 0.24932 0.94979 0.0
C3284 C 0.34662 0.30512 0.99421 0.0
C3285 C 0.33944 0.3116 0.98878 0.0
C3286 C 0.34328 0.29228 0.98761 0.0
C3287 C 0.33285 0.2858 0.97528 0.0
C3288 C 0.32542 0.29208 0.97026 0.0
C3289 C 0.32866 0.30483 0.97695 0.0
C3290 C 0.32989 0.2727 0.96714 0.0
C3291 C 0.31626 0.26161 0.96726 0.0
C3292 C 0.34031 0.27118 0.95894 0.0
C3293 C 0.3548 0.28263 0.95768 0.0
C3294 C 0.35797 0.29509 0.94989 0.0
C3295 C 0.37165 0.30587 0.9489 0.0
C3296 C 0.38226 0.30429 0.95553 0.0
C3297 C 0.37922 0.29189 0.96312 0.0
C3298 C 0.36555 0.28107 0.96416 0.0
C3299 C 0.30671 0.21834 0.9189 0.0
C3300 C 0.31425 0.21172 0.92166 0.0
C3301 C 0.30963 0.23004 0.9283 0.0
C3302 C 0.31992 0.23517 0.9409 0.0
C3303 C 0.32746 0.22856 0.94365 0.0
C3304 C 0.32467 0.21696 0.93409 0.0
C3305 C 0.32312 0.24767 0.95084 0.0
C3306 C 0.33681 0.25866 0.95104 0.0
C3307 C 0.31274 0.24909 0.95933 0.0
C3308 C 0.29822 0.23764 0.96041 0.0
C3309 C 0.29508 0.2248 0.96695 0.0
C3310 C 0.28139 0.214 0.96771 0.0
C3311 C 0.27074 0.21595 0.96207 0.0
C3312 C 0.27375 0.2287 0.9557 0.0
C3313 C 0.28742 0.23953 0.9549 0.0
H3314 H 0.26015 0.20757 0.96266 0.0
H3315 H 0.39285 0.31265 0.95476 0.0
H3316 H 0.69262 0.05501 0.98539 0.0
H3317 H 0.71404 0.06593 0.96877 0.0
H3318 H 0.71824 0.03043 0.97583 0.0
H3319 H 0.69664 0.01929 0.9924 0.0
H3320 H 0.74315 0.05676 0.98145 0.0
H3321 H 0.70805 0.03317 0.93923 0.0
H3322 H 0.68613 0.02636 0.92463 0.0
H3323 H 0.70073 0.06846 0.91188 0.0
H3324 H 0.72268 0.07554 0.92664 0.0
H3325 H 0.79909 0.08317 0.92168 0.0
H3326 H 0.77747 0.06758 0.93648 0.0
H3327 H 0.76208 0.09473 0.92535 0.0
H3328 H 0.78323 0.10987 0.90973 0.0
H3329 H 0.74241 0.06964 0.92103 0.0
H3330 H 0.77593 0.09382 0.96532 0.0
H3331 H 0.79768 0.10163 0.98089 0.0
H3332 H 0.7861 0.05978 0.99067 0.0
H3333 H 0.76434 0.05172 0.97496 0.0
C3334 C 0.6981 0.04952 0.9835 0.0
C3335 C 0.6929 0.03625 0.99018 0.0
C3336 C 0.71032 0.05576 0.97395 0.0
C3337 C 0.71763 0.04893 0.97098 0.0
C3338 C 0.71269 0.03584 0.97797 0.0
C3339 C 0.70035 0.02949 0.98737 0.0
C3340 C 0.73035 0.05552 0.96039 0.0
C3341 C 0.74301 0.05936 0.96814 0.0
C3342 C 0.73012 0.05913 0.94316 0.0
C3343 C 0.71697 0.05489 0.93416 0.0
C3344 C 0.70655 0.04099 0.93344 0.0
C3345 C 0.69413 0.03708 0.92511 0.0
C3346 C 0.69203 0.04697 0.91737 0.0
C3347 C 0.70237 0.0608 0.9179 0.0
C3348 C 0.71481 0.06477 0.92622 0.0
C3349 C 0.79103 0.08572 0.92216 0.0
C3350 C 0.79299 0.09787 0.91465 0.0
C3351 C 0.77872 0.07687 0.93081 0.0
C3352 C 0.76822 0.08009 0.9323 0.0
C3353 C 0.77004 0.09204 0.92446 0.0
C3354 C 0.78224 0.10079 0.91569 0.0
C3355 C 0.75536 0.07122 0.94217 0.0
C3356 C 0.74261 0.06691 0.93428 0.0
C3357 C 0.75554 0.06734 0.95934 0.0
C3358 C 0.7686 0.07217 0.96879 0.0
C3359 C 0.77808 0.08629 0.97068 0.0
C3360 C 0.79039 0.09076 0.97955 0.0
C3361 C 0.79329 0.08121 0.98672 0.0
C3362 C 0.78385 0.06717 0.98508 0.0
C3363 C 0.77153 0.06264 0.9762 0.0
H3364 H 0.80283 0.08469 0.99359 0.0
H3365 H 0.6824 0.04393 0.91093 0.0
H3366 H 0.641 0.9508 0.03051 0.0
H3367 H 0.6462 0.93438 0.04388 0.0
H3368 H 0.68898 0.96599 0.04819 0.0
H3369 H 0.68382 0.98254 0.03519 0.0
H3370 H 0.68337 0.93861 0.03627 0.0
H3371 H 0.67191 0.9609 0.08145 0.0
H3372 H 0.65699 0.96821 0.09553 0.0
H3373 H 0.62418 0.92622 0.09891 0.0
H3374 H 0.63887 0.91868 0.08459 0.0
H3375 H 0.70707 0.90882 0.09641 0.0
H3376 H 0.70201 0.92421 0.08049 0.0
H3377 H 0.65857 0.89781 0.09107 0.0
H3378 H 0.66362 0.88302 0.1082 0.0
H3379 H 0.6641 0.9223 0.09442 0.0
H3380 H 0.67446 0.89915 0.05066 0.0
H3381 H 0.68806 0.89076 0.03545 0.0
H3382 H 0.72098 0.93225 0.02774 0.0
H3383 H 0.70765 0.94089 0.04311 0.0
C3384 C 0.65154 0.9542 0.0341 0.0
C3385 C 0.66199 0.96796 0.03189 0.0
C3386 C 0.65448 0.94483 0.04175 0.0
C3387 C 0.66795 0.94902 0.04706 0.0
C3388 C 0.67853 0.96258 0.04415 0.0
C3389 C 0.67555 0.97201 0.03679 0.0
C3390 C 0.67088 0.93953 0.05662 0.0
C3391 C 0.67929 0.9351 0.04905 0.0
C3392 C 0.66522 0.93472 0.07307 0.0
C3393 C 0.65643 0.93924 0.08178 0.0
C3394 C 0.66148 0.95324 0.08505 0.0
C3395 C 0.65307 0.95742 0.0931 0.0
C3396 C 0.63963 0.94769 0.09806 0.0
C3397 C 0.63459 0.93375 0.09503 0.0
C3398 C 0.64295 0.92951 0.08696 0.0
C3399 C 0.69645 0.90637 0.0956 0.0
C3400 C 0.68576 0.89457 0.10359 0.0
C3401 C 0.69354 0.91509 0.08621 0.0
C3402 C 0.67986 0.91205 0.08423 0.0
C3403 C 0.6692 0.90036 0.09229 0.0
C3404 C 0.67211 0.89178 0.10193 0.0
C3405 C 0.67664 0.9212 0.07413 0.0
C3406 C 0.66817 0.92565 0.08161 0.0
C3407 C 0.68206 0.92581 0.05745 0.0
C3408 C 0.69011 0.92066 0.04818 0.0
C3409 C 0.68464 0.90648 0.04583 0.0
C3410 C 0.6923 0.90168 0.03716 0.0
C3411 C 0.70539 0.91097 0.03067 0.0
C3412 C 0.71084 0.92507 0.0328 0.0
C3413 C 0.70324 0.92992 0.04147 0.0
H3414 H 0.7113 0.90723 0.02397 0.0
H3415 H 0.63314 0.95095 0.1043 0.0
H3416 H 0.04409 0.68875 0.02209 0.0
H3417 H 0.06051 0.71128 0.03414 0.0
H3418 H 0.02767 0.72009 0.04084 0.0
H3419 H 0.01118 0.69755 0.02904 0.0
H3420 H 0.0534 0.74277 0.02819 0.0
H3421 H 0.03539 0.70896 0.07351 0.0
H3422 H 0.03013 0.6872 0.08714 0.0
H3423 H 0.07319 0.69993 0.08653 0.0
H3424 H 0.07868 0.7217 0.07265 0.0
H3425 H 0.08292 0.7966 0.0892 0.0
H3426 H 0.06778 0.77553 0.07351 0.0
H3427 H 0.098 0.76295 0.07794 0.0
H3428 H 0.11275 0.78349 0.09459 0.0
H3429 H 0.07398 0.74215 0.08389 0.0
H3430 H 0.09267 0.77614 0.0398 0.0
H3431 H 0.09853 0.79779 0.02538 0.0
H3432 H 0.05553 0.785 0.02248 0.0
H3433 H 0.04942 0.76334 0.03709 0.0
C3434 C 0.04042 0.69558 0.02587 0.0
C3435 C 0.02635 0.69137 0.02475 0.0
C3436 C 0.04979 0.70841 0.03278 0.0
C3437 C 0.04524 0.71726 0.03848 0.0
C3438 C 0.03135 0.71338 0.0365 0.0
C3439 C 0.02195 0.7005 0.02982 0.0
C3440 C 0.05473 0.7301 0.04763 0.0
C3441 C 0.05784 0.74269 0.04043 0.0
C3442 C 0.0607 0.72992 0.0634 0.0
C3443 C 0.05742 0.71688 0.07187 0.0
C3444 C 0.04372 0.70707 0.07615 0.0
C3445 C 0.0407 0.69474 0.08394 0.0
C3446 C 0.05131 0.69216 0.08765 0.0
C3447 C 0.06497 0.70193 0.08362 0.0
C3448 C 0.06805 0.71426 0.0758 0.0
C3449 C 0.08629 0.78929 0.08702 0.0
C3450 C 0.09912 0.79183 0.09312 0.0
C3451 C 0.07769 0.77732 0.07782 0.0
C3452 C 0.08185 0.76775 0.07425 0.0
C3453 C 0.09459 0.7702 0.08042 0.0
C3454 C 0.1031 0.78206 0.0898 0.0
C3455 C 0.0728 0.755 0.06447 0.0
C3456 C 0.06968 0.74235 0.07158 0.0
C3457 C 0.06696 0.75517 0.04852 0.0
C3458 C 0.0706 0.76817 0.03969 0.0
C3459 C 0.08447 0.77799 0.0362 0.0
C3460 C 0.08784 0.79026 0.02798 0.0
C3461 C 0.07741 0.79279 0.02306 0.0
C3462 C 0.0636 0.78303 0.02632 0.0
C3463 C 0.06017 0.77075 0.03456 0.0
H3464 H 0.08004 0.80229 0.01669 0.0
H3465 H 0.04895 0.68261 0.09369 0.0
H3466 H 0.30449 0.36316 0.01868 0.0
H3467 H 0.28253 0.35264 0.03414 0.0
H3468 H 0.29435 0.32753 0.06239 0.0
H3469 H 0.31599 0.33745 0.04615 0.0
H3470 H 0.26901 0.31278 0.05563 0.0
H3471 H 0.2957 0.35762 0.07953 0.0
H3472 H 0.31014 0.38287 0.07977 0.0
H3473 H 0.27717 0.38605 0.05723 0.0
H3474 H 0.26259 0.3608 0.05666 0.0
H3475 H 0.22301 0.30712 0.12758 0.0
H3476 H 0.24411 0.31438 0.11062 0.0
H3477 H 0.22355 0.31684 0.06561 0.0
H3478 H 0.20234 0.30924 0.08238 0.0
H3479 H 0.25304 0.34243 0.08184 0.0
H3480 H 0.22716 0.29569 0.0577 0.0
H3481 H 0.21367 0.27053 0.06099 0.0
H3482 H 0.24697 0.27161 0.08886 0.0
H3483 H 0.26057 0.29683 0.08595 0.0
C3484 C 0.30238 0.35538 0.02819 0.0
C3485 C 0.31195 0.35117 0.03132 0.0
C3486 C 0.28986 0.34943 0.03709 0.0
C3487 C 0.28688 0.33951 0.04976 0.0
C3488 C 0.29639 0.33517 0.05273 0.0
C3489 C 0.30877 0.34087 0.04349 0.0
C3490 C 0.27387 0.33367 0.05986 0.0
C3491 C 0.26564 0.31933 0.06146 0.0
C3492 C 0.26937 0.34212 0.06756 0.0
C3493 C 0.2781 0.35732 0.06791 0.0
C3494 C 0.29156 0.3637 0.07452 0.0
C3495 C 0.29977 0.37801 0.07473 0.0
C3496 C 0.29459 0.38606 0.06848 0.0
C3497 C 0.28118 0.37981 0.06205 0.0
C3498 C 0.27293 0.3655 0.06179 0.0
C3499 C 0.22298 0.30901 0.11401 0.0
C3500 C 0.21111 0.3076 0.10621 0.0
C3501 C 0.23497 0.31312 0.10438 0.0
C3502 C 0.23527 0.31604 0.08693 0.0
C3503 C 0.2234 0.31448 0.07906 0.0
C3504 C 0.21133 0.31012 0.0886 0.0
C3505 C 0.24829 0.32173 0.0772 0.0
C3506 C 0.25651 0.33601 0.07586 0.0
C3507 C 0.25293 0.31327 0.07014 0.0
C3508 C 0.24479 0.29814 0.07181 0.0
C3509 C 0.23153 0.29058 0.06471 0.0
C3510 C 0.22389 0.2763 0.06645 0.0
C3511 C 0.22944 0.26948 0.07519 0.0
C3512 C 0.24267 0.27691 0.08214 0.0
C3513 C 0.25035 0.29119 0.08043 0.0
H3514 H 0.22351 0.25843 0.07652 0.0
H3515 H 0.30096 0.39714 0.06865 0.0
H3516 H 0.67947 0.65147 0.37646 0.0
H3517 H 0.69534 0.6448 0.38797 0.0
H3518 H 0.72979 0.68095 0.36587 0.0
H3519 H 0.71393 0.68767 0.35412 0.0
H3520 H 0.73209 0.65772 0.36214 0.0
H3521 H 0.72218 0.68091 0.40736 0.0
H3522 H 0.70684 0.6847 0.42644 0.0
H3523 H 0.68972 0.64393 0.44649 0.0
H3524 H 0.70484 0.63983 0.42735 0.0
H3525 H 0.78551 0.65867 0.41057 0.0
H3526 H 0.76955 0.66375 0.39617 0.0
H3527 H 0.7358 0.63252 0.42592 0.0
H3528 H 0.75187 0.62835 0.44163 0.0
H3529 H 0.73286 0.65304 0.42515 0.0
H3530 H 0.74226 0.62926 0.38096 0.0
H3531 H 0.75673 0.62445 0.36159 0.0
H3532 H 0.77362 0.66444 0.33919 0.0
H3533 H 0.75937 0.66956 0.35858 0.0
C3534 C 0.69041 0.65797 0.37392 0.0
C3535 C 0.69546 0.67017 0.36449 0.0
C3536 C 0.69946 0.65415 0.38055 0.0
C3537 C 0.71375 0.66248 0.37798 0.0
C3538 C 0.7188 0.6744 0.36803 0.0
C3539 C 0.70973 0.67824 0.36138 0.0
C3540 C 0.72342 0.65902 0.38624 0.0
C3541 C 0.73239 0.65682 0.37593 0.0
C3542 C 0.72353 0.65751 0.40418 0.0
C3543 C 0.71455 0.66002 0.41582 0.0
C3544 C 0.71508 0.67272 0.41576 0.0
C3545 C 0.70644 0.67493 0.4266 0.0
C3546 C 0.69729 0.66455 0.43764 0.0
C3547 C 0.6968 0.65195 0.43791 0.0
C3548 C 0.70541 0.64969 0.42709 0.0
C3549 C 0.77473 0.65297 0.41427 0.0
C3550 C 0.77009 0.6431 0.42742 0.0
C3551 C 0.76553 0.65572 0.40573 0.0
C3552 C 0.75137 0.64836 0.40969 0.0
C3553 C 0.74666 0.63833 0.42255 0.0
C3554 C 0.75589 0.63581 0.4314 0.0
C3555 C 0.74156 0.65156 0.40108 0.0
C3556 C 0.73257 0.65381 0.41134 0.0
C3557 C 0.74132 0.65292 0.38306 0.0
C3558 C 0.74984 0.64983 0.37132 0.0
C3559 C 0.74913 0.63706 0.37198 0.0
C3560 C 0.75728 0.63427 0.36098 0.0
C3561 C 0.76611 0.64415 0.3492 0.0
C3562 C 0.76678 0.65681 0.34834 0.0
C3563 C 0.75866 0.65965 0.35931 0.0
H3564 H 0.77242 0.64197 0.3407 0.0
H3565 H 0.6906 0.66628 0.44602 0.0
H3566 H 0.3365 0.0255 0.36516 0.0
H3567 H 0.34896 0.04737 0.38056 0.0
H3568 H 0.31082 0.04711 0.38832 0.0
H3569 H 0.29829 0.0253 0.37308 0.0
H3570 H 0.35193 0.07253 0.37446 0.0
H3571 H 0.31089 0.05937 0.42796 0.0
H3572 H 0.2935 0.03906 0.44389 0.0
H3573 H 0.31664 0.01893 0.43463 0.0
H3574 H 0.33426 0.03919 0.41886 0.0
H3575 H 0.35545 0.13095 0.4127 0.0
H3576 H 0.34932 0.10924 0.39866 0.0
H3577 H 0.36202 0.09641 0.44341 0.0
H3578 H 0.36789 0.11804 0.45771 0.0
H3579 H 0.33716 0.07682 0.43307 0.0
H3580 H 0.38103 0.10435 0.40693 0.0
H3581 H 0.39959 0.12436 0.39176 0.0
H3582 H 0.37338 0.1153 0.34808 0.0
H3583 H 0.35459 0.09535 0.36307 0.0
C3584 C 0.33076 0.0301 0.37012 0.0
C3585 C 0.31638 0.02361 0.36794 0.0
C3586 C 0.33791 0.04261 0.37888 0.0
C3587 C 0.33079 0.04876 0.38575 0.0
C3588 C 0.31649 0.04243 0.38334 0.0
C3589 C 0.30935 0.02998 0.37455 0.0
C3590 C 0.3382 0.06181 0.39549 0.0
C3591 C 0.34876 0.07348 0.3873 0.0
C3592 C 0.3343 0.06294 0.41241 0.0
C3593 C 0.32384 0.05077 0.42211 0.0
C3594 C 0.3123 0.05064 0.4294 0.0
C3595 C 0.3024 0.03913 0.43838 0.0
C3596 C 0.30394 0.0277 0.44023 0.0
C3597 C 0.31543 0.02777 0.43314 0.0
C3598 C 0.32537 0.03926 0.42416 0.0
C3599 C 0.357 0.12353 0.41952 0.0
C3600 C 0.3621 0.12617 0.43633 0.0
C3601 C 0.35361 0.11118 0.41143 0.0
C3602 C 0.35531 0.10124 0.41994 0.0
C3603 C 0.36068 0.10396 0.43659 0.0
C3604 C 0.36412 0.11635 0.44469 0.0
C3605 C 0.35057 0.08768 0.41182 0.0
C3606 C 0.34047 0.07588 0.4203 0.0
C3607 C 0.35507 0.08641 0.39529 0.0
C3608 C 0.36636 0.09839 0.38618 0.0
C3609 C 0.37918 0.10668 0.39413 0.0
C3610 C 0.38975 0.118 0.38556 0.0
C3611 C 0.38766 0.12111 0.36898 0.0
C3612 C 0.37499 0.11288 0.36093 0.0
C3613 C 0.36438 0.10155 0.36945 0.0
H3614 H 0.39586 0.12989 0.36236 0.0
H3615 H 0.29625 0.01879 0.44718 0.0
H3616 H 0.97975 0.27883 0.36918 0.0
H3617 H 0.95703 0.26666 0.38266 0.0
H3618 H 0.95314 0.30252 0.37763 0.0
H3619 H 0.97607 0.31494 0.36435 0.0
H3620 H 0.94393 0.29052 0.40856 0.0
H3621 H 0.93636 0.27611 0.35024 0.0
H3622 H 0.94033 0.26735 0.32312 0.0
H3623 H 0.9306 0.22961 0.34776 0.0
H3624 H 0.92676 0.23822 0.3751 0.0
H3625 H 0.87018 0.24928 0.42443 0.0
H3626 H 0.89267 0.26497 0.41137 0.0
H3627 H 0.9049 0.2348 0.41802 0.0
H3628 H 0.88277 0.2193 0.43157 0.0
H3629 H 0.90883 0.24548 0.38454 0.0
H3630 H 0.91788 0.26098 0.44336 0.0
H3631 H 0.91362 0.26991 0.47014 0.0
H3632 H 0.91998 0.3059 0.44376 0.0
H3633 H 0.92405 0.29706 0.41673 0.0
C3634 C 0.9741 0.28417 0.37094 0.0
C3635 C 0.97969 0.29783 0.36556 0.0
C3636 C 0.96109 0.27718 0.37861 0.0
C3637 C 0.95332 0.28362 0.38087 0.0
C3638 C 0.95897 0.29736 0.37592 0.0
C3639 C 0.97205 0.30441 0.3683 0.0
C3640 C 0.93922 0.27585 0.38822 0.0
C3641 C 0.93616 0.28078 0.40314 0.0
C3642 C 0.92914 0.26311 0.3812 0.0
C3643 C 0.93137 0.25786 0.36476 0.0
C3644 C 0.93516 0.26598 0.34991 0.0
C3645 C 0.93737 0.26103 0.33449 0.0
C3646 C 0.93574 0.24794 0.33372 0.0
C3647 C 0.93187 0.23975 0.34837 0.0
C3648 C 0.92966 0.24465 0.36383 0.0
C3649 C 0.87773 0.24607 0.42334 0.0
C3650 C 0.87461 0.23297 0.42888 0.0
C3651 C 0.89054 0.25502 0.41582 0.0
C3652 C 0.90037 0.25097 0.4137 0.0
C3653 C 0.89737 0.23803 0.41943 0.0
C3654 C 0.88468 0.22916 0.42707 0.0
C3655 C 0.91369 0.25998 0.40506 0.0
C3656 C 0.91656 0.25528 0.38983 0.0
C3657 C 0.92351 0.27295 0.41173 0.0
C3658 C 0.9211 0.27828 0.42798 0.0
C3659 C 0.91824 0.27073 0.44323 0.0
C3660 C 0.91589 0.27579 0.45847 0.0
C3661 C 0.91649 0.28844 0.45865 0.0
C3662 C 0.91949 0.29608 0.44359 0.0
C3663 C 0.92182 0.29106 0.42831 0.0
H3664 H 0.91468 0.29235 0.47046 0.0
H3665 H 0.93746 0.24413 0.32177 0.0
H3666 H 0.98932 0.35322 0.3202 0.0
H3667 H 0.98528 0.37041 0.30701 0.0
H3668 H 0.02868 0.40046 0.31104 0.0
H3669 H 0.03266 0.38345 0.32489 0.0
H3670 H 0.01455 0.41238 0.31706 0.0
H3671 H 0.01389 0.38223 0.27324 0.0
H3672 H 0.00642 0.36002 0.25904 0.0
H3673 H 0.965 0.35243 0.25608 0.0
H3674 H 0.97219 0.37452 0.27048 0.0
H3675 H 0.01964 0.45627 0.24861 0.0
H3676 H 0.02162 0.43948 0.26597 0.0
H3677 H 0.97733 0.41545 0.27081 0.0
H3678 H 0.97519 0.4325 0.25413 0.0
H3679 H 0.99095 0.40047 0.26085 0.0
H3680 H 0.9933 0.43248 0.3036 0.0
H3681 H 0.00234 0.45548 0.31629 0.0
H3682 H 0.04274 0.46043 0.31931 0.0
H3683 H 0.03398 0.43753 0.30638 0.0
C3684 C -0.00204 0.36354 0.31846 0.0
C3685 C 0.01132 0.36698 0.32344 0.0
C3686 C 0.99566 0.37334 0.31083 0.0
C3687 C 0.00673 0.38664 0.30765 0.0
C3688 C 0.01998 0.39025 0.31329 0.0
C3689 C 0.02225 0.38052 0.32119 0.0
C3690 C 0.00463 0.39663 0.29785 0.0
C3691 C 0.0095 0.4098 0.3047 0.0
C3692 C -0.0021 0.39324 0.28179 0.0
C3693 C 0.99355 0.37995 0.2731 0.0
C3694 C 0.00317 0.37577 0.26968 0.0
C3695 C -0.00101 0.36322 0.26158 0.0
C3696 C 0.98524 0.3548 0.25671 0.0
C3697 C 0.97565 0.35895 0.25989 0.0
C3698 C 0.97977 0.37149 0.26801 0.0
C3699 C 0.0103 0.44754 0.25356 0.0
C3700 C 0.99725 0.44581 0.25001 0.0
C3701 C 0.01147 0.43792 0.26339 0.0
C3702 C -0.00038 0.42632 0.26972 0.0
C3703 C 0.98658 0.42437 0.26599 0.0
C3704 C 0.9854 0.43408 0.25635 0.0
C3705 C 0.00089 0.41613 0.28007 0.0
C3706 C 0.9959 0.40296 0.27327 0.0
C3707 C 0.00774 0.41961 0.296 0.0
C3708 C 0.013 0.43334 0.30387 0.0
C3709 C 0.00414 0.43852 0.30683 0.0
C3710 C 0.00921 0.45153 0.31409 0.0
C3711 C 0.02311 0.45942 0.31857 0.0
C3712 C 0.03197 0.45431 0.31582 0.0
C3713 C 0.02695 0.44131 0.30854 0.0
H3714 H 0.02702 0.46949 0.32419 0.0
H3715 H 0.98203 0.34508 0.25043 0.0
H3716 H 0.64571 0.64041 0.32313 0.0
H3717 H 0.63381 0.61852 0.3078 0.0
H3718 H 0.60014 0.62525 0.29686 0.0
H3719 H 0.61178 0.64692 0.31252 0.0
H3720 H 0.59041 0.60004 0.30713 0.0
H3721 H 0.62489 0.62956 0.26622 0.0
H3722 H 0.64847 0.6457 0.25593 0.0
H3723 H 0.66022 0.61562 0.26514 0.0
H3724 H 0.63674 0.59935 0.2757 0.0
H3725 H 0.55644 0.5535 0.24025 0.0
H3726 H 0.57091 0.57476 0.25589 0.0
H3727 H 0.59824 0.56021 0.27006 0.0
H3728 H 0.58359 0.53864 0.2547 0.0
H3729 H 0.61199 0.58824 0.25946 0.0
H3730 H 0.57663 0.5583 0.29883 0.0
H3731 H 0.5527 0.5423 0.3081 0.0
H3732 H 0.54239 0.57365 0.30084 0.0
H3733 H 0.56622 0.58979 0.29127 0.0
C3734 C 0.63579 0.63724 0.31742 0.0
C3735 C 0.6297 0.64542 0.31906 0.0
C3736 C 0.62902 0.62475 0.30859 0.0
C3737 C 0.61614 0.62029 0.30102 0.0
C3738 C 0.61007 0.62845 0.30262 0.0
C3739 C 0.61675 0.64087 0.31156 0.0
C3740 C 0.60875 0.60699 0.29173 0.0
C3741 C 0.59511 0.59755 0.2966 0.0
C3742 C 0.61499 0.60354 0.27829 0.0
C3743 C 0.6291 0.6133 0.27193 0.0
C3744 C 0.63253 0.62643 0.26618 0.0
C3745 C 0.64588 0.63559 0.26028 0.0
C3746 C 0.65585 0.6317 0.25993 0.0
C3747 C 0.65249 0.61862 0.26545 0.0
C3748 C 0.63916 0.60942 0.27138 0.0
C3749 C 0.56547 0.55474 0.24678 0.0
C3750 C 0.56873 0.54426 0.24645 0.0
C3751 C 0.57376 0.56694 0.25563 0.0
C3752 C 0.58552 0.56896 0.2643 0.0
C3753 C 0.58918 0.5588 0.26345 0.0
C3754 C 0.58082 0.54652 0.25464 0.0
C3755 C 0.59364 0.58152 0.27468 0.0
C3756 C 0.60739 0.59076 0.27008 0.0
C3757 C 0.58749 0.58486 0.2883 0.0
C3758 C 0.57318 0.57522 0.2942 0.0
C3759 C 0.56923 0.56175 0.29909 0.0
C3760 C 0.55569 0.55266 0.30442 0.0
C3761 C 0.54603 0.55695 0.30503 0.0
C3762 C 0.54989 0.57035 0.30035 0.0
C3763 C 0.56342 0.57947 0.29499 0.0
H3764 H 0.53555 0.5499 0.30916 0.0
H3765 H 0.66618 0.63881 0.25536 0.0
H3766 H 0.3505 0.97549 0.33513 0.0
H3767 H 0.37202 0.97952 0.3217 0.0
H3768 H 0.37145 0.00925 0.2879 0.0
H3769 H 0.35001 0.00531 0.30122 0.0
H3770 H 0.37628 0.99065 0.27087 0.0
H3771 H 0.39332 0.01999 0.32051 0.0
H3772 H 0.39497 0.0253 0.35135 0.0
H3773 H 0.40828 0.99646 0.36097 0.0
H3774 H 0.40652 0.99083 0.33019 0.0
H3775 H 0.44302 0.02046 0.23511 0.0
H3776 H 0.42246 0.01694 0.25035 0.0
H3777 H 0.42689 0.99088 0.28672 0.0
H3778 H 0.44791 0.99495 0.27208 0.0
H3779 H 0.41987 0.00695 0.30282 0.0
H3780 H 0.40313 0.97747 0.25386 0.0
H3781 H 0.40126 0.97147 0.22322 0.0
H3782 H 0.38693 -0.00066 0.21253 0.0
H3783 H 0.38889 0.00565 0.24309 0.0
C3784 C 0.355 0.98293 0.3249 0.0
C3785 C 0.34857 0.99009 0.31925 0.0
C3786 C 0.3673 0.98525 0.31727 0.0
C3787 C 0.37334 0.99473 0.30386 0.0
C3788 C 0.36694 0.00189 0.29823 0.0
C3789 C 0.35472 -0.00035 0.3059 0.0
C3790 C 0.38619 0.99703 0.2954 0.0
C3791 C 0.38587 0.99437 0.2778 0.0
C3792 C 0.39855 0.00149 0.30457 0.0
C3793 C 0.39964 0.00488 0.32307 0.0
C3794 C 0.39648 0.01469 0.32922 0.0
C3795 C 0.39746 0.01778 0.34669 0.0
C3796 C 0.40169 0.01119 0.35812 0.0
C3797 C 0.40498 0.00153 0.3521 0.0
C3798 C 0.404 -0.0016 0.33464 0.0
C3799 C 0.43976 0.01415 0.24649 0.0
C3800 C 0.44711 0.00794 0.2523 0.0
C3801 C 0.42789 0.012 0.25508 0.0
C3802 C 0.42297 0.00344 0.26951 0.0
C3803 C 0.43043 0.99746 0.27555 0.0
C3804 C 0.44237 -0.00031 0.26705 0.0
C3805 C 0.41002 0.00067 0.27822 0.0
C3806 C 0.41029 0.0032 0.29587 0.0
C3807 C 0.39756 0.99596 0.26912 0.0
C3808 C 0.39628 0.99213 0.25075 0.0
C3809 C 0.39968 0.98239 0.24496 0.0
C3810 C 0.39858 0.97892 0.22761 0.0
C3811 C 0.39401 0.98505 0.21593 0.0
C3812 C 0.39048 0.99462 0.22159 0.0
C3813 C 0.39157 0.99814 0.23893 0.0
H3814 H 0.39318 0.98235 0.2025 0.0
H3815 H 0.40244 0.0136 0.37164 0.0
H3816 H 0.63958 0.98938 0.30905 0.0
H3817 H 0.62531 0.99595 0.29294 0.0
H3818 H 0.58859 0.95976 0.31114 0.0
H3819 H 0.60285 0.95283 0.32665 0.0
H3820 H 0.58535 0.96303 0.27946 0.0
H3821 H 0.60061 0.9931 0.32811 0.0
H3822 H 0.61751 0.01015 0.34819 0.0
H3823 H 0.63634 0.03906 0.30715 0.0
H3824 H 0.61966 0.02211 0.28678 0.0
H3825 H 0.53759 0.98614 0.26688 0.0
H3826 H 0.55316 0.98002 0.28052 0.0
H3827 H 0.5865 0.00848 0.248 0.0
H3828 H 0.57086 0.01417 0.23352 0.0
H3829 H 0.59189 0.00967 0.28573 0.0
H3830 H 0.57503 0.97865 0.23751 0.0
H3831 H 0.5569 0.9613 0.21888 0.0
H3832 H 0.53957 0.93376 0.26148 0.0
H3833 H 0.55749 0.95105 0.28044 0.0
C3834 C 0.62846 0.98282 0.30961 0.0
C3835 C 0.62233 0.97063 0.31918 0.0
C3836 C 0.62031 0.98662 0.30046 0.0
C3837 C 0.60585 0.97849 0.30107 0.0
C3838 C 0.59972 0.96622 0.31047 0.0
C3839 C 0.60788 0.96228 0.31936 0.0
C3840 C 0.59708 0.98271 0.2919 0.0
C3841 C 0.58671 0.97318 0.28102 0.0
C3842 C 0.59896 0.99605 0.29366 0.0
C3843 C 0.60898 0.00628 0.30589 0.0
C3844 C 0.60842 0.00306 0.32335 0.0
C3845 C 0.61795 0.01271 0.33478 0.0
C3846 C 0.62802 0.02567 0.32894 0.0
C3847 C 0.62855 0.02901 0.31166 0.0
C3848 C 0.61906 0.01939 0.30016 0.0
C3849 C 0.54816 0.99097 0.26238 0.0
C3850 C 0.5529 0.00062 0.24898 0.0
C3851 C 0.55706 0.98753 0.27032 0.0
C3852 C 0.57092 0.99378 0.2652 0.0
C3853 C 0.57582 0.0036 0.25213 0.0
C3854 C 0.56687 0.00689 0.24396 0.0
C3855 C 0.58023 0.98996 0.27351 0.0
C3856 C 0.59065 -0.00044 0.2842 0.0
C3857 C 0.57825 0.97664 0.27182 0.0
C3858 C 0.56752 0.9662 0.26043 0.0
C3859 C 0.56728 0.96895 0.24294 0.0
C3860 C 0.55705 0.95911 0.23231 0.0
C3861 C 0.54706 0.94645 0.239 0.0
C3862 C 0.5473 0.94358 0.25633 0.0
C3863 C 0.55749 0.95339 0.26701 0.0
H3864 H 0.53916 0.93884 0.23075 0.0
H3865 H 0.63538 0.03313 0.33782 0.0
H3866 H 0.03423 0.65267 0.33037 0.0
H3867 H 0.03006 0.63128 0.31697 0.0
H3868 H 0.98706 0.61834 0.31102 0.0
H3869 H 0.99117 0.63983 0.32414 0.0
H3870 H 0.9935 0.59708 0.32267 0.0
H3871 H 0.00443 0.63113 0.27852 0.0
H3872 H 0.01869 0.65392 0.26536 0.0
H3873 H 0.05329 0.64768 0.26305 0.0
H3874 H 0.03928 0.62491 0.27646 0.0
H3875 H 0.97536 0.54493 0.2603 0.0
H3876 H 0.97832 0.56462 0.27681 0.0
H3877 H 0.02246 0.5845 0.26996 0.0
H3878 H 0.01954 0.56536 0.25241 0.0
H3879 H 0.0152 0.60227 0.26554 0.0
H3880 H 0.0053 0.56859 0.3087 0.0
H3881 H 0.9922 0.54611 0.32297 0.0
H3882 H 0.9573 0.55163 0.32863 0.0
H3883 H 0.97014 0.57407 0.31418 0.0
C3884 C 0.02384 0.64518 0.32647 0.0
C3885 C 0.01303 0.64794 0.32819 0.0
C3886 C 0.02149 0.63299 0.3188 0.0
C3887 C 0.00828 0.62333 0.31296 0.0
C3888 C 0.99731 0.62571 0.31549 0.0
C3889 C -0.0003 0.63799 0.32291 0.0
C3890 C 0.00616 0.61125 0.30304 0.0
C3891 C -0.00191 0.59813 0.3101 0.0
C3892 C 0.01246 0.61276 0.28686 0.0
C3893 C 0.02085 0.62639 0.27866 0.0
C3894 C 0.01512 0.63467 0.27535 0.0
C3895 C 0.02315 0.64757 0.26782 0.0
C3896 C 0.0369 0.65226 0.26341 0.0
C3897 C 0.04264 0.64404 0.26649 0.0
C3898 C 0.03466 0.63113 0.27405 0.0
C3899 C 0.9857 0.55356 0.2621 0.0
C3900 C 0.99721 0.55349 0.25503 0.0
C3901 C 0.98739 0.56474 0.27179 0.0
C3902 C 0.00064 0.57596 0.27491 0.0
C3903 C 0.01214 0.57594 0.26783 0.0
C3904 C 0.01045 0.56488 0.25793 0.0
C3905 C 0.00256 0.58791 0.28515 0.0
C3906 C 0.01059 0.60109 0.27813 0.0
C3907 C 0.99638 0.58644 0.30148 0.0
C3908 C 0.98864 0.57295 0.3102 0.0
C3909 C 0.9948 0.56497 0.31287 0.0
C3910 C 0.98743 0.55224 0.32101 0.0
C3911 C 0.97392 0.54743 0.32666 0.0
C3912 C 0.96776 0.55536 0.32422 0.0
C3913 C 0.97508 0.56809 0.31607 0.0
H3914 H 0.96823 0.53757 0.33296 0.0
H3915 H 0.0431 0.66225 0.25758 0.0
H3916 H 0.36267 0.35433 0.3238 0.0
H3917 H 0.38426 0.36545 0.30727 0.0
H3918 H 0.37811 0.39928 0.29613 0.0
H3919 H 0.35663 0.38833 0.31259 0.0
H3920 H 0.38565 0.38967 0.26744 0.0
H3921 H 0.40018 0.40287 0.32624 0.0
H3922 H 0.40187 0.39826 0.35667 0.0
H3923 H 0.42184 0.37577 0.3426 0.0
H3924 H 0.4201 0.3801 0.31206 0.0
H3925 H 0.44938 0.4448 0.2418 0.0
H3926 H 0.4278 0.4291 0.25625 0.0
H3927 H 0.4433 0.40211 0.26774 0.0
H3928 H 0.46529 0.41817 0.2539 0.0
H3929 H 0.43083 0.40505 0.29499 0.0
H3930 H 0.41889 0.39377 0.23663 0.0
H3931 H 0.41728 0.39794 0.20603 0.0
H3932 H 0.39232 0.4156 0.21847 0.0
H3933 H 0.39395 0.41172 0.24918 0.0
C3934 C 0.36591 0.36413 0.31781 0.0
C3935 C 0.35795 0.37046 0.31956 0.0
C3936 C 0.37825 0.37047 0.30842 0.0
C3937 C 0.38278 0.3832 0.30054 0.0
C3938 C 0.37477 0.38944 0.30209 0.0
C3939 C 0.36253 0.38319 0.31158 0.0
C3940 C 0.39593 0.3902 0.29079 0.0
C3941 C 0.39555 0.39311 0.27345 0.0
C3942 C 0.40877 0.39423 0.29853 0.0
C3943 C 0.40985 0.39166 0.31687 0.0
C3944 C 0.40482 0.39684 0.32964 0.0
C3945 C 0.40581 0.39429 0.3469 0.0
C3946 C 0.41192 0.38668 0.35156 0.0
C3947 C 0.41709 0.38164 0.33897 0.0
C3948 C 0.41611 0.38414 0.32168 0.0
C3949 C 0.44828 0.4356 0.24752 0.0
C3950 C 0.45911 0.43279 0.24675 0.0
C3951 C 0.43584 0.42652 0.25559 0.0
C3952 C 0.43383 0.41431 0.26286 0.0
C3953 C 0.44459 0.41143 0.26213 0.0
C3954 C 0.45711 0.42057 0.2541 0.0
C3955 C 0.42061 0.40486 0.27167 0.0
C3956 C 0.42095 0.40144 0.28884 0.0
C3957 C 0.4077 0.40024 0.26372 0.0
C3958 C 0.40662 0.40253 0.24524 0.0
C3959 C 0.41314 0.39863 0.23286 0.0
C3960 C 0.41221 0.40093 0.21549 0.0
C3961 C 0.40472 0.40705 0.21031 0.0
C3962 C 0.39812 0.41086 0.2225 0.0
C3963 C 0.39903 0.4086 0.23989 0.0
H3964 H 0.40402 0.40882 0.19686 0.0
H3965 H 0.41268 0.38473 0.36494 0.0
H3966 H 0.35268 0.32034 0.37062 0.0
H3967 H 0.35879 0.30466 0.38416 0.0
H3968 H 0.3161 0.27238 0.3831 0.0
H3969 H 0.30992 0.28792 0.36925 0.0
H3970 H 0.33007 0.27755 0.41613 0.0
H3971 H 0.33573 0.26945 0.35658 0.0
H3972 H 0.3451 0.27649 0.32738 0.0
H3973 H 0.38636 0.29419 0.34662 0.0
H3974 H 0.37723 0.28743 0.37599 0.0
H3975 H 0.33553 0.2209 0.44147 0.0
H3976 H 0.33044 0.23661 0.42641 0.0
H3977 H 0.37394 0.26415 0.4175 0.0
H3978 H 0.37909 0.2481 0.43182 0.0
H3979 H 0.36022 0.26218 0.38964 0.0
H3980 H 0.35609 0.27094 0.44826 0.0
H3981 H 0.3482 0.26557 0.47823 0.0
H3982 H 0.30622 0.24902 0.46232 0.0
H3983 H 0.31383 0.25409 0.43219 0.0
C3984 C 0.34461 0.30987 0.37312 0.0
C3985 C 0.33082 0.30534 0.36887 0.0
C3986 C 0.34812 0.30093 0.38083 0.0
C3987 C 0.33788 0.2874 0.38461 0.0
C3988 C 0.32413 0.28281 0.38027 0.0
C3989 C 0.32064 0.29167 0.3723 0.0
C3990 C 0.34148 0.27815 0.39359 0.0
C3991 C 0.33649 0.274 0.41029 0.0
C3992 C 0.35031 0.27403 0.38616 0.0
C3993 C 0.3558 0.27806 0.3685 0.0
C3994 C 0.34681 0.27496 0.35461 0.0
C3995 C 0.35207 0.27887 0.33802 0.0
C3996 C 0.36632 0.28582 0.33515 0.0
C3997 C 0.37533 0.28883 0.34887 0.0
C3998 C 0.37011 0.28495 0.36548 0.0
C3999 C 0.34403 0.23021 0.43615 0.0
C4000 C 0.35773 0.23321 0.43787 0.0
C4001 C 0.3411 0.23929 0.42771 0.0
C4002 C 0.35182 0.25167 0.42102 0.0
C4003 C 0.3655 0.25468 0.42261 0.0
C4004 C 0.36844 0.24555 0.43096 0.0
C4005 C 0.34867 0.26137 0.41221 0.0
C4006 C 0.35378 0.26568 0.39555 0.0
C4007 C 0.34017 0.26587 0.41983 0.0
C4008 C 0.33552 0.26278 0.43794 0.0
C4009 C 0.34516 0.26605 0.45113 0.0
C4010 C 0.34074 0.26308 0.46815 0.0
C4011 C 0.32672 0.25694 0.47218 0.0
C4012 C 0.31708 0.25377 0.45918 0.0
C4013 C 0.32144 0.2567 0.44213 0.0
H4014 H 0.32331 0.25465 0.48536 0.0
H4015 H 0.37038 0.28883 0.3223 0.0
H4016 H 0.7046 0.02547 0.34306 0.0
H4017 H 0.71963 0.04911 0.35274 0.0
H4018 H 0.68941 0.04378 0.391 0.0
H4019 H 0.67412 0.02038 0.3809 0.0
H4020 H 0.70025 0.06827 0.37865 0.0
H4021 H 0.71853 0.04107 0.40019 0.0
H4022 H 0.72746 0.02517 0.39846 0.0
H4023 H 0.76072 0.05356 0.36611 0.0
H4024 H 0.75188 0.06956 0.36747 0.0
H4025 H 0.74518 0.11821 0.43985 0.0
H4026 H 0.72907 0.09725 0.42456 0.0
H4027 H 0.75768 0.10905 0.38226 0.0
H4028 H 0.77365 0.13032 0.39711 0.0
H4029 H 0.74818 0.08224 0.39499 0.0
H4030 H 0.72998 0.11034 0.3764 0.0
H4031 H 0.72085 0.12593 0.38039 0.0
H4032 H 0.68708 0.09525 0.41014 0.0
H4033 H 0.69611 0.07955 0.40653 0.0
C4034 C 0.70112 0.02939 0.35343 0.0
C4035 C 0.68823 0.02105 0.36131 0.0
C4036 C 0.70975 0.04288 0.35902 0.0
C4037 C 0.70579 0.04815 0.37285 0.0
C4038 C 0.69272 0.03996 0.38034 0.0
C4039 C 0.684 0.02656 0.37457 0.0
C4040 C 0.7154 0.06199 0.37997 0.0
C4041 C 0.71068 0.07126 0.38235 0.0
C4042 C 0.72911 0.06602 0.3846 0.0
C4043 C 0.73446 0.05643 0.38377 0.0
C4044 C 0.72769 0.04387 0.3926 0.0
C4045 C 0.73274 0.03485 0.39171 0.0
C4046 C 0.74462 0.03834 0.38214 0.0
C4047 C 0.7515 0.05087 0.37349 0.0
C4048 C 0.74648 0.05992 0.37432 0.0
C4049 C 0.74794 0.11654 0.42714 0.0
C4050 C 0.76077 0.12596 0.41977 0.0
C4051 C 0.73873 0.10451 0.41845 0.0
C4052 C 0.74221 0.10164 0.4023 0.0
C4053 C 0.75486 0.11109 0.39476 0.0
C4054 C 0.764 0.12319 0.40333 0.0
C4055 C 0.73297 0.0884 0.39371 0.0
C4056 C 0.73777 0.07926 0.39112 0.0
C4057 C 0.71929 0.08441 0.3892 0.0
C4058 C 0.7138 0.09382 0.39132 0.0
C4059 C 0.72067 0.10696 0.38392 0.0
C4060 C 0.7155 0.11581 0.38608 0.0
C4061 C 0.70341 0.1116 0.39555 0.0
C4062 C 0.69645 0.09851 0.40282 0.0
C4063 C 0.70158 0.08963 0.4007 0.0
H4064 H 0.69942 0.11846 0.39721 0.0
H4065 H 0.74852 0.03134 0.38147 0.0
H4066 H 0.98171 0.70547 0.37075 0.0
H4067 H 0.96003 0.69538 0.38669 0.0
H4068 H 0.95807 0.65628 0.38702 0.0
H4069 H 0.9798 0.66628 0.37088 0.0
H4070 H 0.93299 0.65392 0.37939 0.0
H4071 H 0.96756 0.67493 0.42244 0.0
H4072 H 0.98856 0.69351 0.43593 0.0
H4073 H 0.97007 0.71866 0.43859 0.0
H4074 H 0.94902 0.7003 0.42489 0.0
H4075 H 0.87792 0.62786 0.44133 0.0
H4076 H 0.8997 0.63431 0.42658 0.0
H4077 H 0.90903 0.67629 0.42394 0.0
H4078 H 0.88737 0.66993 0.43861 0.0
H4079 H 0.93091 0.67501 0.43437 0.0
H4080 H 0.89725 0.65487 0.38913 0.0
H4081 H 0.87632 0.63652 0.37523 0.0
H4082 H 0.89308 0.60984 0.37658 0.0
H4083 H 0.91405 0.628 0.3907 0.0
C4084 C 0.97669 0.69472 0.37416 0.0
C4085 C 0.98254 0.6867 0.36962 0.0
C4086 C 0.96432 0.68898 0.38333 0.0
C4087 C 0.95757 0.67514 0.38822 0.0
C4088 C 0.96318 0.667 0.38341 0.0
C4089 C 0.9756 0.67275 0.37424 0.0
C4090 C 0.94468 0.66929 0.39841 0.0
C4091 C 0.93255 0.65835 0.39157 0.0
C4092 C 0.94413 0.67522 0.41418 0.0
C4093 C 0.95674 0.68627 0.42252 0.0
C4094 C 0.96801 0.68446 0.42579 0.0
C4095 C 0.97991 0.69495 0.43349 0.0
C4096 C 0.98066 0.70727 0.43808 0.0
C4097 C 0.96948 0.70911 0.43502 0.0
C4098 C 0.95755 0.69866 0.4273 0.0
C4099 C 0.88459 0.63844 0.43749 0.0
C4100 C 0.88098 0.64841 0.44117 0.0
C4101 C 0.89702 0.64211 0.42909 0.0
C4102 C 0.90594 0.65577 0.4241 0.0
C4103 C 0.90233 0.66571 0.42777 0.0
C4104 C 0.88997 0.66207 0.4362 0.0
C4105 C 0.91913 0.65987 0.41515 0.0
C4106 C 0.93135 0.67047 0.42228 0.0
C4107 C 0.91973 0.65364 0.39966 0.0
C4108 C 0.90714 0.64273 0.39115 0.0
C4109 C 0.89642 0.64505 0.38659 0.0
C4110 C 0.88456 0.63469 0.37865 0.0
C4111 C 0.88335 0.622 0.37508 0.0
C4112 C 0.89402 0.61966 0.37939 0.0
C4113 C 0.9059 0.62999 0.38736 0.0
H4114 H 0.87416 0.614 0.36892 0.0
H4115 H 0.98989 0.71538 0.44405 0.0
H4116 H 0.35138 0.98951 0.70533 0.0
H4117 H 0.36803 0.98414 0.7175 0.0
H4118 H 0.40108 0.02518 0.70613 0.0
H4119 H 0.38449 0.0305 0.69348 0.0
H4120 H 0.4092 0.00728 0.69984 0.0
H4121 H 0.38698 0.01609 0.74666 0.0
H4122 H 0.36734 0.01333 0.76405 0.0
H4123 H 0.35428 0.97096 0.77262 0.0
H4124 H 0.37375 0.97341 0.75507 0.0
H4125 H 0.458 0.00971 0.75984 0.0
H4126 H 0.4417 0.0137 0.74391 0.0
H4127 H 0.40995 0.97144 0.75148 0.0
H4128 H 0.42617 0.96743 0.7676 0.0
H4129 H 0.4012 0.98961 0.75933 0.0
H4130 H 0.42461 0.98163 0.713 0.0
H4131 H 0.44485 0.98527 0.69623 0.0
H4132 H 0.45644 0.02726 0.6876 0.0
H4133 H 0.43636 0.02393 0.70454 0.0
C4134 C 0.36221 0.99736 0.70529 0.0
C4135 C 0.36661 0.01046 0.69857 0.0
C4136 C 0.37171 0.9943 0.71233 0.0
C4137 C 0.38578 0.00434 0.71305 0.0
C4138 C 0.39027 0.01728 0.70578 0.0
C4139 C 0.38078 0.02031 0.69858 0.0
C4140 C 0.39572 0.00146 0.72183 0.0
C4141 C 0.40753 0.00356 0.71291 0.0
C4142 C 0.39344 0.9964 0.73881 0.0
C4143 C 0.38174 0.9949 0.7494 0.0
C4144 C 0.37986 0.00615 0.75214 0.0
C4145 C 0.36877 0.00465 0.76205 0.0
C4146 C 0.35955 0.99197 0.7694 0.0
C4147 C 0.36142 0.98077 0.76689 0.0
C4148 C 0.37249 0.98221 0.75698 0.0
C4149 C 0.44754 0.00127 0.75809 0.0
C4150 C 0.44335 0.98826 0.76497 0.0
C4151 C 0.43828 0.00354 0.74889 0.0
C4152 C 0.42465 0.99284 0.74642 0.0
C4153 C 0.42044 0.97982 0.7532 0.0
C4154 C 0.42974 0.97752 0.7623 0.0
C4155 C 0.41463 0.99538 0.73733 0.0
C4156 C 0.40282 0.99326 0.74622 0.0
C4157 C 0.41699 0.00055 0.72042 0.0
C4158 C 0.42905 0.00256 0.71018 0.0
C4159 C 0.43154 0.99168 0.70765 0.0
C4160 C 0.44297 0.99368 0.69809 0.0
C4161 C 0.45195 0.0065 0.69089 0.0
C4162 C 0.44949 0.01734 0.6932 0.0
C4163 C 0.43807 0.0154 0.70277 0.0
H4164 H 0.46079 0.00803 0.68349 0.0
H4165 H 0.35097 0.99082 0.77706 0.0
H4166 H -0.00187 0.35612 0.69134 0.0
H4167 H 0.0068 0.37766 0.7072 0.0
H4168 H 0.965 0.3685 0.71576 0.0
H4169 H 0.95631 0.34722 0.69961 0.0
H4170 H 0.9804 0.39414 0.70696 0.0
H4171 H 0.9844 0.36431 0.74727 0.0
H4172 H 0.99215 0.34876 0.75755 0.0
H4173 H 0.03444 0.38078 0.75165 0.0
H4174 H 0.02693 0.39648 0.74112 0.0
H4175 H 0.9865 0.43591 0.7772 0.0
H4176 H 0.98178 0.41588 0.76011 0.0
H4177 H 0.02504 0.43453 0.74774 0.0
H4178 H 0.02987 0.45492 0.7644 0.0
H4179 H 0.01131 0.40565 0.75701 0.0
H4180 H 0.00638 0.4359 0.71863 0.0
H4181 H -0.00225 0.45107 0.70973 0.0
H4182 H 0.95602 0.41744 0.71334 0.0
H4183 H 0.9644 0.40211 0.72253 0.0
C4184 C 0.9908 0.35871 0.69659 0.0
C4185 C 0.97653 0.34994 0.69421 0.0
C4186 C 0.99576 0.371 0.70572 0.0
C4187 C 0.98655 0.37464 0.71284 0.0
C4188 C 0.97232 0.36593 0.71037 0.0
C4189 C 0.96736 0.35374 0.70114 0.0
C4190 C 0.99159 0.38755 0.72275 0.0
C4191 C 0.98707 0.39657 0.71798 0.0
C4192 C 0.00057 0.39093 0.73689 0.0
C4193 C 0.00511 0.38151 0.74322 0.0
C4194 C 0.99535 0.368 0.74803 0.0
C4195 C -0.0003 0.35916 0.75393 0.0
C4196 C 0.01378 0.36376 0.7552 0.0
C4197 C 0.02354 0.37722 0.75062 0.0
C4198 C 0.01924 0.3861 0.7447 0.0
C4199 C 0.99503 0.43585 0.77075 0.0
C4200 C 0.00855 0.44714 0.77199 0.0
C4201 C 0.99231 0.42434 0.76109 0.0
C4202 C 0.00304 0.42382 0.75255 0.0
C4203 C 0.01663 0.43477 0.75426 0.0
C4204 C 0.01936 0.44639 0.76383 0.0
C4205 C -0.00014 0.41197 0.74137 0.0
C4206 C 0.00475 0.40322 0.74588 0.0
C4207 C 0.99109 0.40873 0.72709 0.0
C4208 C 0.98602 0.41789 0.7214 0.0
C4209 C 0.99536 0.43176 0.71766 0.0
C4210 C 0.99052 0.44039 0.71253 0.0
C4211 C 0.97635 0.43523 0.711 0.0
C4212 C 0.96699 0.42142 0.71454 0.0
C4213 C 0.97179 0.41276 0.71969 0.0
H4214 H 0.97262 0.44192 0.70703 0.0
H4215 H 0.01713 0.35691 0.75977 0.0
H4216 H 0.64185 0.645 0.69519 0.0
H4217 H 0.6194 0.63287 0.7096 0.0
H4218 H 0.62521 0.59856 0.719 0.0
H4219 H 0.64743 0.61043 0.70424 0.0
H4220 H 0.60026 0.58972 0.70791 0.0
H4221 H 0.62929 0.62214 0.75074 0.0
H4222 H 0.64554 0.64509 0.76238 0.0
H4223 H 0.61601 0.6578 0.75376 0.0
H4224 H 0.59964 0.63497 0.74185 0.0
H4225 H 0.55277 0.55416 0.77357 0.0
H4226 H 0.57451 0.56927 0.75889 0.0
H4227 H 0.55936 0.59601 0.74452 0.0
H4228 H 0.53731 0.58067 0.75882 0.0
H4229 H 0.58779 0.60969 0.75672 0.0
H4230 H 0.55823 0.57605 0.71547 0.0
H4231 H 0.54217 0.55258 0.7052 0.0
H4232 H 0.5733 0.54175 0.71217 0.0
H4233 H 0.58949 0.56511 0.72275 0.0
C4234 C 0.63835 0.63488 0.70036 0.0
C4235 C 0.64642 0.62867 0.69857 0.0
C4236 C 0.62554 0.62799 0.70865 0.0
C4237 C 0.62069 0.61487 0.71554 0.0
C4238 C 0.62874 0.60867 0.71376 0.0
C4239 C 0.64146 0.61548 0.70534 0.0
C4240 C 0.60711 0.60738 0.72431 0.0
C4241 C 0.59761 0.59407 0.71868 0.0
C4242 C 0.60349 0.61318 0.73807 0.0
C4243 C 0.61331 0.6269 0.74522 0.0
C4244 C 0.62631 0.62987 0.75119 0.0
C4245 C 0.63553 0.64285 0.75786 0.0
C4246 C 0.63183 0.65291 0.75876 0.0
C4247 C 0.61888 0.65 0.75303 0.0
C4248 C 0.60962 0.63705 0.74633 0.0
C4249 C 0.554 0.5632 0.76722 0.0
C4250 C 0.54322 0.56609 0.76712 0.0
C4251 C 0.56646 0.57187 0.75895 0.0
C4252 C 0.56842 0.58363 0.7505 0.0
C4253 C 0.55798 0.58694 0.751 0.0
C4254 C 0.54543 0.5782 0.75919 0.0
C4255 C 0.58119 0.59201 0.7405 0.0
C4256 C 0.59046 0.60546 0.74586 0.0
C4257 C 0.58469 0.58631 0.72658 0.0
C4258 C 0.57503 0.5723 0.72003 0.0
C4259 C 0.56162 0.56863 0.71494 0.0
C4260 C 0.5525 0.55536 0.70904 0.0
C4261 C 0.55671 0.54567 0.70806 0.0
C4262 C 0.57006 0.54926 0.71294 0.0
C4263 C 0.57921 0.56252 0.71887 0.0
H4264 H 0.54963 0.5354 0.7035 0.0
H4265 H 0.63898 0.66295 0.76393 0.0
H4266 H 0.65274 0.6813 0.65482 0.0
H4267 H 0.64657 0.69722 0.64234 0.0
H4268 H 0.68936 0.72945 0.64344 0.0
H4269 H 0.69548 0.71369 0.6566 0.0
H4270 H 0.67408 0.73981 0.65114 0.0
H4271 H 0.67347 0.71033 0.60641 0.0
H4272 H 0.66674 0.68831 0.59214 0.0
H4273 H 0.62429 0.6778 0.59288 0.0
H4274 H 0.63075 0.69969 0.60737 0.0
H4275 H 0.67243 0.78134 0.58391 0.0
H4276 H 0.67659 0.76552 0.60035 0.0
H4277 H 0.63286 0.73948 0.60896 0.0
H4278 H 0.62856 0.75556 0.59324 0.0
H4279 H 0.6476 0.72587 0.59695 0.0
H4280 H 0.64967 0.75714 0.64059 0.0
H4281 H 0.65782 0.78 0.65325 0.0
H4282 H 0.69948 0.78807 0.65247 0.0
H4283 H 0.6916 0.76532 0.63956 0.0
C4284 C 0.6608 0.69182 0.65256 0.0
C4285 C 0.67461 0.69625 0.65654 0.0
C4286 C 0.65728 0.70089 0.64534 0.0
C4287 C 0.66755 0.71445 0.64157 0.0
C4288 C 0.68127 0.71902 0.64616 0.0
C4289 C 0.68476 0.71001 0.65366 0.0
C4290 C 0.66407 0.72373 0.63234 0.0
C4291 C 0.6684 0.73679 0.63921 0.0
C4292 C 0.65649 0.71975 0.61687 0.0
C4293 C 0.65258 0.70658 0.60814 0.0
C4294 C 0.66269 0.70328 0.60365 0.0
C4295 C 0.65892 0.69083 0.5955 0.0
C4296 C 0.64509 0.68165 0.59165 0.0
C4297 C 0.63499 0.68491 0.5959 0.0
C4298 C 0.6387 0.69734 0.60407 0.0
C4299 C 0.66367 0.77237 0.5895 0.0
C4300 C 0.65014 0.7698 0.5873 0.0
C4301 C 0.66609 0.76331 0.5988 0.0
C4302 C 0.65503 0.75142 0.60592 0.0
C4303 C 0.64151 0.74863 0.60352 0.0
C4304 C 0.63908 0.75779 0.59442 0.0
C4305 C 0.65765 0.74187 0.61575 0.0
C4306 C 0.65318 0.72879 0.60895 0.0
C4307 C 0.6653 0.74593 0.63109 0.0
C4308 C 0.67005 0.75957 0.63896 0.0
C4309 C 0.66058 0.76383 0.64298 0.0
C4310 C 0.66515 0.77676 0.65023 0.0
C4311 C 0.67916 0.7855 0.65362 0.0
C4312 C 0.68863 0.7813 0.64982 0.0
C4313 C 0.68412 0.76839 0.64255 0.0
H4314 H 0.68268 0.7955 0.65923 0.0
H4315 H 0.64219 0.67201 0.58534 0.0
H4316 H 0.31349 0.97556 0.66197 0.0
H4317 H 0.30148 0.95327 0.64758 0.0
H4318 H 0.27157 0.96286 0.62795 0.0
H4319 H 0.28317 0.98486 0.64293 0.0
H4320 H 0.25865 0.93842 0.63862 0.0
H4321 H 0.29813 0.96329 0.60252 0.0
H4322 H 0.32287 0.9774 0.59531 0.0
H4323 H 0.32975 0.94568 0.61377 0.0
H4324 H 0.30507 0.93144 0.6213 0.0
H4325 H 0.24852 0.88711 0.56587 0.0
H4326 H 0.26297 0.90958 0.57931 0.0
H4327 H 0.24609 0.89196 0.62876 0.0
H4328 H 0.2313 0.86963 0.61525 0.0
H4329 H 0.28249 0.92077 0.60196 0.0
H4330 H 0.24171 0.91398 0.65298 0.0
H4331 H 0.2164 0.90121 0.6567 0.0
H4332 H 0.21121 0.89946 0.60218 0.0
H4333 H 0.23648 0.91239 0.59815 0.0
C4334 C 0.30438 0.97293 0.65453 0.0
C4335 C 0.29926 0.98195 0.6536 0.0
C4336 C 0.29757 0.96021 0.64622 0.0
C4337 C 0.28569 0.95641 0.63648 0.0
C4338 C 0.28068 0.9655 0.63542 0.0
C4339 C 0.28733 0.9781 0.64397 0.0
C4340 C 0.27819 0.9428 0.62787 0.0
C4341 C 0.2639 0.9346 0.6306 0.0
C4342 C 0.28493 0.93783 0.61715 0.0
C4343 C 0.29978 0.94636 0.61263 0.0
C4344 C 0.30494 0.95936 0.60516 0.0
C4345 C 0.31894 0.96738 0.60099 0.0
C4346 C 0.32788 0.96245 0.60412 0.0
C4347 C 0.32282 0.94949 0.61138 0.0
C4348 C 0.30882 0.94144 0.61558 0.0
C4349 C 0.24806 0.88804 0.57963 0.0
C4350 C 0.23873 0.87672 0.58954 0.0
C4351 C 0.25631 0.90086 0.58731 0.0
C4352 C 0.25542 0.90253 0.60501 0.0
C4353 C 0.2467 0.89101 0.61503 0.0
C4354 C 0.2383 0.87825 0.60733 0.0
C4355 C 0.26303 0.91642 0.61285 0.0
C4356 C 0.2773 0.92463 0.61001 0.0
C4357 C 0.2562 0.92163 0.62298 0.0
C4358 C 0.24098 0.91403 0.62528 0.0
C4359 C 0.23516 0.91092 0.6418 0.0
C4360 C 0.22083 0.90364 0.64395 0.0
C4361 C 0.2122 0.89948 0.62968 0.0
C4362 C 0.2179 0.90264 0.61322 0.0
C4363 C 0.23223 0.90994 0.61099 0.0
H4364 H 0.20111 0.89384 0.63138 0.0
H4365 H 0.33872 0.96867 0.60088 0.0
H4366 H 0.01799 0.33736 0.62662 0.0
H4367 H 0.04066 0.34391 0.61465 0.0
H4368 H 0.04793 0.32357 0.65629 0.0
H4369 H 0.02502 0.31665 0.66822 0.0
H4370 H 0.07106 0.35264 0.64575 0.0
H4371 H 0.04034 0.30663 0.62447 0.0
H4372 H 0.01905 0.28876 0.61069 0.0
H4373 H 0.02924 0.31331 0.56526 0.0
H4374 H 0.0505 0.33143 0.57889 0.0
H4375 H 0.12974 0.35395 0.60824 0.0
H4376 H 0.10833 0.34805 0.6235 0.0
H4377 H 0.09089 0.35237 0.57654 0.0
H4378 H 0.11206 0.35764 0.56119 0.0
H4379 H 0.07273 0.33071 0.59129 0.0
H4380 H 0.10252 0.37672 0.61087 0.0
H4381 H 0.12337 0.39599 0.62373 0.0
H4382 H 0.11488 0.37371 0.67087 0.0
H4383 H 0.09407 0.35422 0.65821 0.0
C4384 C 0.02443 0.33435 0.63332 0.0
C4385 C 0.01971 0.32645 0.64834 0.0
C4386 C 0.03736 0.33809 0.62645 0.0
C4387 C 0.0459 0.33419 0.6346 0.0
C4388 C 0.04145 0.32668 0.64987 0.0
C4389 C 0.02837 0.3227 0.65661 0.0
C4390 C 0.0592 0.33751 0.62662 0.0
C4391 C 0.07151 0.34773 0.63399 0.0
C4392 C 0.05966 0.33137 0.61103 0.0
C4393 C 0.04693 0.32044 0.60277 0.0
C4394 C 0.03798 0.30828 0.61161 0.0
C4395 C 0.02593 0.29809 0.60381 0.0
C4396 C 0.02277 0.29992 0.58713 0.0
C4397 C 0.03168 0.31192 0.57819 0.0
C4398 C 0.04374 0.32214 0.58594 0.0
C4399 C 0.12135 0.35374 0.60126 0.0
C4400 C 0.1225 0.35624 0.58357 0.0
C4401 C 0.10914 0.35043 0.60998 0.0
C4402 C 0.098 0.34991 0.60125 0.0
C4403 C 0.09928 0.35264 0.58359 0.0
C4404 C 0.11138 0.35568 0.57482 0.0
C4405 C 0.0848 0.34603 0.61027 0.0
C4406 C 0.07243 0.33566 0.60309 0.0
C4407 C 0.08431 0.35225 0.62588 0.0
C4408 C 0.09682 0.36395 0.63353 0.0
C4409 C 0.10516 0.37589 0.62394 0.0
C4410 C 0.11696 0.38686 0.6312 0.0
C4411 C 0.12047 0.38606 0.64809 0.0
C4412 C 0.11216 0.3743 0.65778 0.0
C4413 C 0.10036 0.36329 0.65057 0.0
H4414 H 0.12961 0.39457 0.65369 0.0
H4415 H 0.01344 0.29202 0.58111 0.0
H4416 H 0.30648 0.32824 0.64313 0.0
H4417 H 0.29421 0.33823 0.6293 0.0
H4418 H 0.25694 0.3099 0.65651 0.0
H4419 H 0.26901 0.29938 0.66958 0.0
H4420 H 0.25029 0.31119 0.62634 0.0
H4421 H 0.27806 0.34569 0.66703 0.0
H4422 H 0.2993 0.36212 0.68222 0.0
H4423 H 0.31665 0.38412 0.63541 0.0
H4424 H 0.29557 0.36771 0.61989 0.0
H4425 H 0.21719 0.35056 0.61094 0.0
H4426 H 0.23098 0.34326 0.62722 0.0
H4427 H 0.25818 0.35239 0.58382 0.0
H4428 H 0.24415 0.35926 0.56732 0.0
H4429 H 0.26954 0.36152 0.62307 0.0
H4430 H 0.24085 0.32391 0.58298 0.0
H4431 H 0.21832 0.30781 0.57007 0.0
H4432 H 0.20139 0.29221 0.61989 0.0
H4433 H 0.22378 0.3084 0.6331 0.0
C4434 C 0.29567 0.32418 0.64617 0.0
C4435 C 0.28869 0.31305 0.65743 0.0
C4436 C 0.28869 0.32996 0.63836 0.0
C4437 C 0.27469 0.32502 0.64209 0.0
C4438 C 0.26773 0.31391 0.6534 0.0
C4439 C 0.27463 0.30791 0.66089 0.0
C4440 C 0.26718 0.33108 0.63375 0.0
C4441 C 0.25449 0.3222 0.62589 0.0
C4442 C 0.27259 0.34547 0.63297 0.0
C4443 C 0.28528 0.35539 0.64227 0.0
C4444 C 0.28644 0.35397 0.65995 0.0
C4445 C 0.29845 0.36329 0.66862 0.0
C4446 C 0.30933 0.37413 0.65978 0.0
C4447 C 0.30822 0.3757 0.64224 0.0
C4448 C 0.29624 0.36641 0.6335 0.0
C4449 C 0.22623 0.35117 0.60502 0.0
C4450 C 0.22967 0.35541 0.58795 0.0
C4451 C 0.23406 0.34703 0.61428 0.0
C4452 C 0.24555 0.34734 0.60666 0.0
C4453 C 0.24936 0.35216 0.58987 0.0
C4454 C 0.24136 0.35601 0.58048 0.0
C4455 C 0.25292 0.34161 0.61575 0.0
C4456 C 0.26548 0.35054 0.6237 0.0
C4457 C 0.24729 0.32729 0.61697 0.0
C4458 C 0.23391 0.31746 0.60902 0.0
C4459 C 0.23228 0.31714 0.59118 0.0
C4460 C 0.21955 0.30798 0.58381 0.0
C4461 C 0.20842 0.29902 0.59416 0.0
C4462 C 0.21001 0.29917 0.61189 0.0
C4463 C 0.22272 0.30833 0.61933 0.0
H4464 H 0.19857 0.29194 0.58843 0.0
H4465 H 0.31862 0.38133 0.66652 0.0
H4466 H 0.6888 0.97641 0.67115 0.0
H4467 H 0.68245 0.95364 0.66015 0.0
H4468 H 0.65391 0.95539 0.62511 0.0
H4469 H 0.65984 0.97787 0.63643 0.0
H4470 H 0.64283 0.9307 0.63749 0.0
H4471 H 0.68688 0.96264 0.61262 0.0
H4472 H 0.71142 0.98083 0.61276 0.0
H4473 H 0.72143 0.95489 0.64166 0.0
H4474 H 0.6969 0.9366 0.64188 0.0
H4475 H 0.63861 0.8837 0.5734 0.0
H4476 H 0.6431 0.90417 0.58943 0.0
H4477 H 0.66586 0.8959 0.62693 0.0
H4478 H 0.66109 0.87517 0.61129 0.0
H4479 H 0.67977 0.92295 0.61519 0.0
H4480 H 0.63506 0.89018 0.63743 0.0
H4481 H 0.6105 0.87224 0.63551 0.0
H4482 H 0.60173 0.90022 0.60938 0.0
H4483 H 0.62628 0.91828 0.61092 0.0
C4484 C 0.68109 0.97188 0.6612 0.0
C4485 C 0.67488 0.97896 0.65459 0.0
C4486 C 0.67752 0.9589 0.65486 0.0
C4487 C 0.66787 0.95289 0.64159 0.0
C4488 C 0.66139 0.9598 0.63534 0.0
C4489 C 0.66482 0.97268 0.64179 0.0
C4490 C 0.66476 0.9396 0.63383 0.0
C4491 C 0.65091 0.92906 0.63249 0.0
C4492 C 0.6753 0.93735 0.62756 0.0
C4493 C 0.69004 0.94832 0.62743 0.0
C4494 C 0.6943 0.96086 0.61912 0.0
C4495 C 0.70821 0.97117 0.61911 0.0
C4496 C 0.71797 0.96903 0.62726 0.0
C4497 C 0.71385 0.95654 0.63539 0.0
C4498 C 0.69995 0.9462 0.63545 0.0
C4499 C 0.64437 0.88608 0.58521 0.0
C4500 C 0.64948 0.87776 0.59105 0.0
C4501 C 0.64697 0.89782 0.59431 0.0
C4502 C 0.65474 0.90148 0.6094 0.0
C4503 C 0.65986 0.89324 0.61528 0.0
C4504 C 0.65718 0.88145 0.60627 0.0
C4505 C 0.65788 0.91417 0.61873 0.0
C4506 C 0.67172 0.92458 0.62034 0.0
C4507 C 0.64733 0.91637 0.62503 0.0
C4508 C 0.63254 0.90555 0.62417 0.0
C4509 C 0.62792 0.89247 0.63116 0.0
C4510 C 0.61399 0.88229 0.63016 0.0
C4511 C 0.60457 0.88508 0.62229 0.0
C4512 C 0.60904 0.89807 0.61545 0.0
C4513 C 0.62296 0.90829 0.6164 0.0
H4514 H 0.59379 0.87718 0.62153 0.0
H4515 H 0.72873 0.97703 0.62724 0.0
H4516 H 0.03098 0.72122 0.66952 0.0
H4517 H 0.0532 0.73309 0.65481 0.0
H4518 H 0.04298 0.69595 0.62723 0.0
H4519 H 0.02086 0.68379 0.6426 0.0
H4520 H 0.069 0.7085 0.63503 0.0
H4521 H 0.04047 0.72264 0.60844 0.0
H4522 H 0.02438 0.73133 0.60652 0.0
H4523 H 0.05461 0.7695 0.6292 0.0
H4524 H 0.07083 0.76097 0.63148 0.0
H4525 H 0.12127 0.75011 0.57064 0.0
H4526 H 0.09934 0.73432 0.58478 0.0
H4527 H 0.10938 0.76319 0.62614 0.0
H4528 H 0.13156 0.77873 0.61267 0.0
H4529 H 0.0827 0.7534 0.60835 0.0
H4530 H 0.11075 0.73732 0.63528 0.0
H4531 H 0.12629 0.72789 0.63485 0.0
H4532 H 0.09585 0.6923 0.6077 0.0
H4533 H 0.0802 0.70163 0.60776 0.0
C4534 C 0.03347 0.71555 0.66037 0.0
C4535 C 0.02412 0.70161 0.65707 0.0
C4536 C 0.04616 0.72237 0.65189 0.0
C4537 C 0.04964 0.71553 0.63954 0.0
C4538 C 0.0405 0.70148 0.63661 0.0
C4539 C 0.02786 0.69455 0.64537 0.0
C4540 C 0.06272 0.72322 0.62962 0.0
C4541 C 0.07188 0.7182 0.62897 0.0
C4542 C 0.06653 0.7359 0.62164 0.0
C4543 C 0.05683 0.74111 0.62025 0.0
C4544 C 0.04366 0.73285 0.61312 0.0
C4545 C 0.03452 0.73776 0.61196 0.0
C4546 C 0.03846 0.75095 0.61777 0.0
C4547 C 0.05157 0.75928 0.62472 0.0
C4548 C 0.06075 0.75442 0.62593 0.0
C4549 C 0.11899 0.75299 0.58294 0.0
C4550 C 0.12818 0.7658 0.59041 0.0
C4551 C 0.10641 0.74397 0.59093 0.0
C4552 C 0.10277 0.74766 0.60642 0.0
C4553 C 0.11201 0.76023 0.61411 0.0
C4554 C 0.12464 0.76914 0.6063 0.0
C4555 C 0.08901 0.73884 0.61423 0.0
C4556 C 0.07972 0.74363 0.61434 0.0
C4557 C 0.08499 0.72586 0.62132 0.0
C4558 C 0.09438 0.72025 0.62134 0.0
C4559 C 0.10743 0.72756 0.62906 0.0
C4560 C 0.11624 0.72221 0.62892 0.0
C4561 C 0.11208 0.70953 0.6212 0.0
C4562 C 0.09907 0.70214 0.61365 0.0
C4563 C 0.09022 0.70745 0.61374 0.0
H4564 H 0.11891 0.70541 0.62111 0.0
H4565 H 0.03136 0.75473 0.61686 0.0
H4566 H 0.96829 0.61568 0.69563 0.0
H4567 H 0.97219 0.59848 0.70932 0.0
H4568 H 0.01526 0.62875 0.71537 0.0
H4569 H 0.01141 0.64606 0.70202 0.0
H4570 H 0.00929 0.60168 0.70327 0.0
H4571 H 0.99679 0.62334 0.74802 0.0
H4572 H 0.98179 0.63082 0.76152 0.0
H4573 H 0.94825 0.58908 0.76284 0.0
H4574 H 0.96301 0.58138 0.7491 0.0
H4575 H 0.02996 0.57001 0.76437 0.0
H4576 H 0.02568 0.58595 0.74846 0.0
H4577 H 0.98183 0.5593 0.75578 0.0
H4578 H 0.98605 0.54382 0.77278 0.0
H4579 H 0.98753 0.58402 0.76005 0.0
H4580 H -0.00094 0.5616 0.71663 0.0
H4581 H 0.01293 0.55322 0.70209 0.0
H4582 H 0.0466 0.59463 0.69666 0.0
H4583 H 0.03299 0.60325 0.71138 0.0
C4584 C 0.97862 0.61862 0.69969 0.0
C4585 C 0.98954 0.63222 0.69783 0.0
C4586 C 0.98081 0.60881 0.70754 0.0
C4587 C 0.994 0.6124 0.71341 0.0
C4588 C 0.00503 0.6258 0.71091 0.0
C4589 C 0.00279 0.63567 0.70333 0.0
C4590 C 0.99618 0.60239 0.72295 0.0
C4591 C 0.00466 0.59789 0.71576 0.0
C4592 C 0.9898 0.5972 0.739 0.0
C4593 C 0.98096 0.60181 0.74736 0.0
C4594 C 0.98618 0.61577 0.75105 0.0
C4595 C 0.97773 0.62005 0.75877 0.0
C4596 C 0.96407 0.61044 0.76299 0.0
C4597 C 0.95883 0.59652 0.75954 0.0
C4598 C 0.96724 0.59219 0.75179 0.0
C4599 C 0.0194 0.5676 0.76283 0.0
C4600 C 0.00836 0.55554 0.76985 0.0
C4601 C 0.01696 0.57665 0.75347 0.0
C4602 C 0.0034 0.57372 0.75058 0.0
C4603 C 0.99238 0.56177 0.75771 0.0
C4604 C 0.99482 0.55282 0.76728 0.0
C4605 C 0.00072 0.58322 0.74044 0.0
C4606 C 0.99214 0.58768 0.74752 0.0
C4607 C 0.00683 0.58819 0.72415 0.0
C4608 C 0.01505 0.58306 0.71526 0.0
C4609 C 0.00946 0.56891 0.71245 0.0
C4610 C 0.01727 0.56412 0.70415 0.0
C4611 C 0.03065 0.57339 0.69849 0.0
C4612 C 0.03624 0.58747 0.70107 0.0
C4613 C 0.02848 0.59231 0.70938 0.0
H4614 H 0.03668 0.56966 0.69207 0.0
H4615 H 0.95754 0.61377 0.76898 0.0
H4616 H 0.3731 0.35802 0.67772 0.0
H4617 H 0.38941 0.38121 0.68802 0.0
H4618 H 0.35957 0.37779 0.72573 0.0
H4619 H 0.34313 0.35491 0.71515 0.0
H4620 H 0.37163 0.40223 0.71278 0.0
H4621 H 0.38727 0.37299 0.73546 0.0
H4622 H 0.3951 0.3562 0.73408 0.0
H4623 H 0.42963 0.38382 0.70277 0.0
H4624 H 0.4219 0.40071 0.70379 0.0
H4625 H 0.41487 0.4504 0.77566 0.0
H4626 H 0.39919 0.42962 0.75977 0.0
H4627 H 0.42974 0.44084 0.71987 0.0
H4628 H 0.44536 0.46192 0.73534 0.0
H4629 H 0.41835 0.41363 0.73144 0.0
H4630 H 0.40306 0.4438 0.71175 0.0
H4631 H 0.39505 0.46035 0.71503 0.0
H4632 H 0.35945 0.43046 0.743 0.0
H4633 H 0.36735 0.41379 0.7401 0.0
C4634 C 0.37001 0.36227 0.68814 0.0
C4635 C 0.35686 0.35463 0.69567 0.0
C4636 C 0.37936 0.37549 0.69407 0.0
C4637 C 0.3758 0.38118 0.70783 0.0
C4638 C 0.36257 0.37364 0.7151 0.0
C4639 C 0.35318 0.36053 0.70906 0.0
C4640 C 0.38587 0.39486 0.71498 0.0
C4641 C 0.3818 0.40466 0.71698 0.0
C4642 C 0.39926 0.39818 0.72017 0.0
C4643 C 0.40392 0.38804 0.71953 0.0
C4644 C 0.39647 0.37544 0.72817 0.0
C4645 C 0.4009 0.36591 0.72747 0.0
C4646 C 0.41283 0.36892 0.7183 0.0
C4647 C 0.42038 0.38149 0.70984 0.0
C4648 C 0.41598 0.39104 0.71048 0.0
C4649 C 0.41819 0.44862 0.76335 0.0
C4650 C 0.43141 0.45787 0.7568 0.0
C4651 C 0.40923 0.43669 0.75434 0.0
C4652 C 0.41331 0.43375 0.73863 0.0
C4653 C 0.42644 0.44293 0.732 0.0
C4654 C 0.43536 0.45493 0.74092 0.0
C4655 C 0.404 0.42084 0.72943 0.0
C4656 C 0.40822 0.41121 0.72707 0.0
C4657 C 0.39068 0.4176 0.72415 0.0
C4658 C 0.38586 0.42759 0.72583 0.0
C4659 C 0.39358 0.44079 0.71872 0.0
C4660 C 0.38905 0.45019 0.72049 0.0
C4661 C 0.37677 0.44647 0.72925 0.0
C4662 C 0.36897 0.43333 0.73623 0.0
C4663 C 0.37346 0.4239 0.73451 0.0
H4664 H 0.37328 0.45376 0.7306 0.0
H4665 H 0.41625 0.36154 0.71778 0.0
H4666 H 0.65101 0.04104 0.70067 0.0
H4667 H 0.62986 0.0321 0.71751 0.0
H4668 H 0.62471 0.99162 0.71595 0.0
H4669 H 0.64592 0.00046 0.69893 0.0
H4670 H 0.6004 0.99144 0.70969 0.0
H4671 H 0.63597 0.00952 0.75169 0.0
H4672 H 0.65788 0.02677 0.76491 0.0
H4673 H 0.64258 0.05453 0.77017 0.0
H4674 H 0.62064 0.03752 0.75674 0.0
H4675 H 0.54689 0.96789 0.77348 0.0
H4676 H 0.56801 0.9731 0.75794 0.0
H4677 H 0.58016 0.01593 0.75652 0.0
H4678 H 0.55913 0.01082 0.77192 0.0
H4679 H 0.60129 0.01263 0.76583 0.0
H4680 H 0.56668 0.99543 0.72155 0.0
H4681 H 0.54484 0.97839 0.70797 0.0
H4682 H 0.55838 0.94906 0.70698 0.0
H4683 H 0.58023 0.96587 0.72077 0.0
C4684 C 0.64541 0.03022 0.70385 0.0
C4685 C 0.65021 0.02148 0.69851 0.0
C4686 C 0.63334 0.02515 0.71355 0.0
C4687 C 0.62584 0.01125 0.71815 0.0
C4688 C 0.6304 0.0024 0.71257 0.0
C4689 C 0.64254 0.00748 0.70289 0.0
C4690 C 0.61325 0.00609 0.72882 0.0
C4691 C 0.6006 0.99587 0.72212 0.0
C4692 C 0.61354 0.01203 0.74491 0.0
C4693 C 0.62669 0.02227 0.75308 0.0
C4694 C 0.63731 0.01934 0.75554 0.0
C4695 C 0.64973 0.02907 0.76309 0.0
C4696 C 0.65163 0.04175 0.76834 0.0
C4697 C 0.6411 0.04471 0.76608 0.0
C4698 C 0.62866 0.03502 0.75852 0.0
C4699 C 0.55402 0.9784 0.76974 0.0
C4700 C 0.55137 0.98895 0.77395 0.0
C4701 C 0.56608 0.98135 0.76089 0.0
C4702 C 0.57561 0.99489 0.75602 0.0
C4703 C 0.57298 0.00542 0.76026 0.0
C4704 C 0.56098 0.00249 0.7691 0.0
C4705 C 0.58838 0.99822 0.74653 0.0
C4706 C 0.60109 0.00807 0.7535 0.0
C4707 C 0.58813 0.99195 0.7307 0.0
C4708 C 0.57501 0.98185 0.72237 0.0
C4709 C 0.56495 0.9853 0.71857 0.0
C4710 C 0.55258 0.9757 0.7108 0.0
C4711 C 0.5502 0.96264 0.70666 0.0
C4712 C 0.56022 0.95917 0.71022 0.0
C4713 C 0.5726 0.96874 0.71801 0.0
H4714 H 0.54062 0.95521 0.70065 0.0
H4715 H 0.66125 0.04926 0.77419 0.0
loop_
_geom_bond_atom_site_label_1
_geom_bond_atom_site_label_2
_geom_bond_distance
_geom_bond_site_symmetry_2
_ccdc_geom_bond_type
C0 O1 1.306 1_556 S
C0 O3 1.160 . S
O1 C0 1.306 1_554 S
O1 Cd2 2.228 . S
Cd2 O1 2.228 . S
Cd2 O6 2.273 . S
Cd2 O10 2.277 1_554 S
O3 C0 1.160 . S
O3 Cd4 2.203 1_656 S
Cd4 O3 2.203 1_454 S
Cd4 O6 2.411 1_455 S
Cd4 O7 2.333 . S
Cd4 O8 2.352 . S
Cd4 O12 2.277 1_554 S
Cd4 O13 2.356 . S
C5 O10 1.209 1_455 S
C5 O12 1.226 . S
O6 Cd2 2.273 . S
O6 Cd4 2.411 1_655 S
O6 C9 1.320 1_655 S
O7 Cd4 2.333 . S
O7 C9 1.214 . S
O8 Cd4 2.352 . S
O8 C11 1.258 . S
C9 O6 1.320 1_455 S
C9 O7 1.214 . S
O10 Cd2 2.277 1_556 S
O10 C5 1.209 1_655 S
C11 O8 1.258 . S
C11 O13 1.282 . S
O12 Cd4 2.277 1_556 S
O12 C5 1.226 . S
O13 Cd4 2.356 . S
O13 C11 1.282 . S
C14 O15 1.306 . S
C14 O17 1.160 . S
O15 C14 1.306 . S
O15 Cd16 2.228 . S
Cd16 O15 2.228 . S
Cd16 O20 2.273 1_554 S
Cd16 O24 2.277 . S
O17 C14 1.160 . S
O17 Cd18 2.203 . S
Cd18 O17 2.203 . S
Cd18 O20 2.411 1_554 S
Cd18 O21 2.333 1_554 S
Cd18 O22 2.352 1_554 S
Cd18 O26 2.277 . S
Cd18 O27 2.356 . S
C19 O24 1.209 . S
C19 O26 1.226 . S
O20 Cd16 2.273 1_556 S
O20 Cd18 2.411 1_556 S
O20 C23 1.320 . S
O21 Cd18 2.333 1_556 S
O21 C23 1.214 . S
O22 Cd18 2.352 1_556 S
O22 C25 1.258 . S
C23 O20 1.320 . S
C23 O21 1.214 . S
O24 Cd16 2.277 . S
O24 C19 1.209 . S
C25 O22 1.258 . S
C25 O27 1.282 1_556 S
O26 Cd18 2.277 . S
O26 C19 1.226 . S
O27 Cd18 2.356 . S
O27 C25 1.282 1_554 S
C28 O29 1.306 . S
C28 O31 1.160 . S
O29 C28 1.306 . S
O29 Cd30 2.228 . S
Cd30 O29 2.228 . S
Cd30 O34 2.273 1_554 S
Cd30 O38 2.277 . S
O31 C28 1.160 . S
O31 Cd32 2.203 1_565 S
Cd32 O31 2.203 1_545 S
Cd32 O34 2.411 1_544 S
Cd32 O35 2.333 1_554 S
Cd32 O36 2.352 1_554 S
Cd32 O40 2.277 . S
Cd32 O41 2.356 . S
C33 O38 1.209 1_545 S
C33 O40 1.226 . S
O34 Cd30 2.273 1_556 S
O34 Cd32 2.411 1_566 S
O34 C37 1.320 1_565 S
O35 Cd32 2.333 1_556 S
O35 C37 1.214 . S
O36 Cd32 2.352 1_556 S
O36 C39 1.258 . S
C37 O34 1.320 1_545 S
C37 O35 1.214 . S
O38 Cd30 2.277 . S
O38 C33 1.209 1_565 S
C39 O36 1.258 . S
C39 O41 1.282 1_556 S
O40 Cd32 2.277 . S
O40 C33 1.226 . S
O41 Cd32 2.356 . S
O41 C39 1.282 1_554 S
C42 O43 1.306 1_556 S
C42 O45 1.160 . S
O43 C42 1.306 1_554 S
O43 Cd44 2.228 . S
Cd44 O43 2.228 . S
Cd44 O48 2.273 . S
Cd44 O52 2.277 1_554 S
O45 C42 1.160 . S
O45 Cd46 2.203 1_656 S
Cd46 O45 2.203 1_454 S
Cd46 O48 2.411 1_455 S
Cd46 O49 2.333 . S
Cd46 O50 2.352 . S
Cd46 O54 2.277 1_554 S
Cd46 O55 2.356 . S
C47 O52 1.209 1_455 S
C47 O54 1.226 . S
O48 Cd44 2.273 . S
O48 Cd46 2.411 1_655 S
O48 C51 1.320 . S
O49 Cd46 2.333 . S
O49 C51 1.214 1_455 S
O50 Cd46 2.352 . S
O50 C53 1.258 . S
C51 O48 1.320 . S
C51 O49 1.214 1_655 S
O52 Cd44 2.277 1_556 S
O52 C47 1.209 1_655 S
C53 O50 1.258 . S
C53 O55 1.282 . S
O54 Cd46 2.277 1_556 S
O54 C47 1.226 . S
O55 Cd46 2.356 . S
O55 C53 1.282 . S
C56 O57 1.306 . S
C56 O59 1.160 . S
O57 C56 1.306 . S
O57 Cd58 2.228 . S
Cd58 O57 2.228 . S
Cd58 O62 2.273 1_554 S
Cd58 O66 2.277 . S
O59 C56 1.160 . S
O59 Cd60 2.203 . S
Cd60 O59 2.203 . S
Cd60 O62 2.411 1_554 S
Cd60 O63 2.333 1_554 S
Cd60 O64 2.352 1_554 S
Cd60 O68 2.277 . S
Cd60 O69 2.356 . S
C61 O66 1.209 . S
C61 O68 1.226 . S
O62 Cd58 2.273 1_556 S
O62 Cd60 2.411 1_556 S
O62 C65 1.320 . S
O63 Cd60 2.333 1_556 S
O63 C65 1.214 . S
O64 Cd60 2.352 1_556 S
O64 C67 1.258 . S
C65 O62 1.320 . S
C65 O63 1.214 . S
O66 Cd58 2.277 . S
O66 C61 1.209 . S
C67 O64 1.258 . S
C67 O69 1.282 1_556 S
O68 Cd60 2.277 . S
O68 C61 1.226 . S
O69 Cd60 2.356 . S
O69 C67 1.282 1_554 S
C70 O71 1.306 1_556 S
C70 O73 1.160 . S
O71 C70 1.306 1_554 S
O71 Cd72 2.228 . S
Cd72 O71 2.228 . S
Cd72 O76 2.273 . S
Cd72 O80 2.277 1_554 S
O73 C70 1.160 . S
O73 Cd74 2.203 1_546 S
Cd74 O73 2.203 1_564 S
Cd74 O76 2.411 1_565 S
Cd74 O77 2.333 . S
Cd74 O78 2.352 . S
Cd74 O82 2.277 1_554 S
Cd74 O83 2.356 . S
C75 O80 1.209 1_565 S
C75 O82 1.226 . S
O76 Cd72 2.273 . S
O76 Cd74 2.411 1_545 S
O76 C79 1.320 . S
O77 Cd74 2.333 . S
O77 C79 1.214 1_565 S
O78 Cd74 2.352 . S
O78 C81 1.258 . S
C79 O76 1.320 . S
C79 O77 1.214 1_545 S
O80 Cd72 2.277 1_556 S
O80 C75 1.209 1_545 S
C81 O78 1.258 . S
C81 O83 1.282 . S
O82 Cd74 2.277 1_556 S
O82 C75 1.226 . S
O83 Cd74 2.356 . S
O83 C81 1.282 . S
C84 O85 1.306 . S
C84 O87 1.160 . S
O85 C84 1.306 . S
O85 Cd86 2.228 . S
Cd86 O85 2.228 . S
Cd86 O90 2.273 . S
Cd86 O94 2.277 . S
O87 C84 1.160 . S
O87 Cd88 2.203 . S
Cd88 O87 2.203 . S
Cd88 O90 2.411 . S
Cd88 O91 2.333 . S
Cd88 O92 2.352 . S
Cd88 O96 2.277 . S
Cd88 O97 2.356 . S
C89 O94 1.209 . S
C89 O96 1.226 . S
O90 Cd86 2.273 . S
O90 Cd88 2.411 . S
O90 C93 1.320 . S
O91 Cd88 2.333 . S
O91 C93 1.214 . S
O92 Cd88 2.352 . S
O92 C95 1.258 . S
C93 O90 1.320 . S
C93 O91 1.214 . S
O94 Cd86 2.277 . S
O94 C89 1.209 . S
C95 O92 1.258 . S
C95 O97 1.282 . S
O96 Cd88 2.277 . S
O96 C89 1.226 . S
O97 Cd88 2.356 . S
O97 C95 1.282 . S
C98 O99 1.306 . S
C98 O101 1.160 . S
O99 C98 1.306 . S
O99 Cd100 2.228 1_545 S
Cd100 O99 2.228 1_565 S
Cd100 O104 2.273 . S
Cd100 O108 2.277 . S
O101 C98 1.160 . S
O101 Cd102 2.203 1_545 S
Cd102 O101 2.203 1_565 S
Cd102 O104 2.411 . S
Cd102 O105 2.333 . S
Cd102 O106 2.352 . S
Cd102 O110 2.277 . S
Cd102 O111 2.356 . S
C103 O108 1.209 . S
C103 O110 1.226 . S
O104 Cd100 2.273 . S
O104 Cd102 2.411 . S
O104 C107 1.320 . S
O105 Cd102 2.333 . S
O105 C107 1.214 . S
O106 Cd102 2.352 . S
O106 C109 1.258 . S
C107 O104 1.320 . S
C107 O105 1.214 . S
O108 Cd100 2.277 . S
O108 C103 1.209 . S
C109 O106 1.258 . S
C109 O111 1.282 . S
O110 Cd102 2.277 . S
O110 C103 1.226 . S
O111 Cd102 2.356 . S
O111 C109 1.282 . S
C112 O113 1.306 1_655 S
C112 O115 1.160 1_655 S
O113 C112 1.306 1_455 S
O113 Cd114 2.228 . S
Cd114 O113 2.228 . S
Cd114 O118 2.273 . S
Cd114 O122 2.277 . S
O115 C112 1.160 1_455 S
O115 Cd116 2.203 . S
Cd116 O115 2.203 . S
Cd116 O118 2.411 . S
Cd116 O119 2.333 . S
Cd116 O120 2.352 . S
Cd116 O124 2.277 . S
Cd116 O125 2.356 . S
C117 O122 1.209 . S
C117 O124 1.226 . S
O118 Cd114 2.273 . S
O118 Cd116 2.411 . S
O118 C121 1.320 . S
O119 Cd116 2.333 . S
O119 C121 1.214 . S
O120 Cd116 2.352 . S
O120 C123 1.258 . S
C121 O118 1.320 . S
C121 O119 1.214 . S
O122 Cd114 2.277 . S
O122 C117 1.209 . S
C123 O120 1.258 . S
C123 O125 1.282 . S
O124 Cd116 2.277 . S
O124 C117 1.226 . S
O125 Cd116 2.356 . S
O125 C123 1.282 . S
C126 O127 1.306 . S
C126 O129 1.160 . S
O127 C126 1.306 . S
O127 Cd128 2.228 . S
Cd128 O127 2.228 . S
Cd128 O132 2.273 . S
Cd128 O136 2.277 . S
O129 C126 1.160 . S
O129 Cd130 2.203 . S
Cd130 O129 2.203 . S
Cd130 O132 2.411 . S
Cd130 O133 2.333 . S
Cd130 O134 2.352 1_565 S
Cd130 O138 2.277 . S
Cd130 O139 2.356 1_565 S
C131 O136 1.209 . S
C131 O138 1.226 . S
O132 Cd128 2.273 . S
O132 Cd130 2.411 . S
O132 C135 1.320 . S
O133 Cd130 2.333 . S
O133 C135 1.214 . S
O134 Cd130 2.352 1_545 S
O134 C137 1.258 . S
C135 O132 1.320 . S
C135 O133 1.214 . S
O136 Cd128 2.277 . S
O136 C131 1.209 . S
C137 O134 1.258 . S
C137 O139 1.282 . S
O138 Cd130 2.277 . S
O138 C131 1.226 . S
O139 Cd130 2.356 1_545 S
O139 C137 1.282 . S
C140 O141 1.294 . S
C140 O143 1.160 1_655 S
O141 C140 1.294 . S
O141 Cd142 2.201 1_655 S
Cd142 O141 2.201 1_455 S
Cd142 O146 2.273 . S
Cd142 O150 2.277 . S
O143 C140 1.160 1_455 S
O143 Cd144 2.203 . S
Cd144 O143 2.203 . S
Cd144 O146 2.411 . S
Cd144 O147 2.333 . S
Cd144 O148 2.352 . S
Cd144 O152 2.277 . S
Cd144 O153 2.356 . S
C145 O150 1.209 . S
C145 O152 1.226 . S
O146 Cd142 2.273 . S
O146 Cd144 2.411 . S
O146 C149 1.320 . S
O147 Cd144 2.333 . S
O147 C149 1.214 . S
O148 Cd144 2.352 . S
O148 C151 1.258 . S
C149 O146 1.320 . S
C149 O147 1.214 . S
O150 Cd142 2.277 . S
O150 C145 1.209 . S
C151 O148 1.258 . S
C151 O153 1.282 . S
O152 Cd144 2.277 . S
O152 C145 1.226 . S
O153 Cd144 2.356 . S
O153 C151 1.282 . S
C154 O155 1.306 . S
C154 O157 1.160 . S
O155 C154 1.306 . S
O155 Cd156 2.228 . S
Cd156 O155 2.228 . S
Cd156 O160 2.273 . S
Cd156 O164 2.277 . S
O157 C154 1.160 . S
O157 Cd158 2.203 . S
Cd158 O157 2.203 . S
Cd158 O160 2.411 . S
Cd158 O161 2.333 . S
Cd158 O162 2.352 . S
Cd158 O166 2.277 . S
Cd158 O167 2.356 . S
C159 O164 1.209 . S
C159 O166 1.226 . S
O160 Cd156 2.273 . S
O160 Cd158 2.411 . S
O160 C163 1.320 . S
O161 Cd158 2.333 . S
O161 C163 1.214 . S
O162 Cd158 2.352 . S
O162 C165 1.258 . S
C163 O160 1.320 . S
C163 O161 1.214 . S
O164 Cd156 2.277 . S
O164 C159 1.209 . S
C165 O162 1.258 . S
C165 O167 1.282 . S
O166 Cd158 2.277 . S
O166 C159 1.226 . S
O167 Cd158 2.356 . S
O167 C165 1.282 . S
C168 O169 1.368 . S
C168 O171 1.160 1_565 S
O169 C168 1.368 . S
O169 Cd170 2.144 1_565 S
Cd170 O169 2.144 1_545 S
Cd170 O174 2.273 . S
Cd170 O178 2.277 . S
O171 C168 1.160 1_545 S
O171 Cd172 2.203 . S
Cd172 O171 2.203 . S
Cd172 O174 2.411 . S
Cd172 O175 2.333 . S
Cd172 O176 2.352 . S
Cd172 O180 2.277 . S
Cd172 O181 2.356 . S
C173 O178 1.209 . S
C173 O180 1.226 . S
O174 Cd170 2.273 . S
O174 Cd172 2.411 . S
O174 C177 1.320 . S
O175 Cd172 2.333 . S
O175 C177 1.214 . S
O176 Cd172 2.352 . S
O176 C179 1.258 . S
C177 O174 1.320 . S
C177 O175 1.214 . S
O178 Cd170 2.277 . S
O178 C173 1.209 . S
C179 O176 1.258 . S
C179 O181 1.282 . S
O180 Cd172 2.277 . S
O180 C173 1.226 . S
O181 Cd172 2.356 . S
O181 C179 1.282 . S
C182 O183 1.306 . S
C182 O185 1.160 . S
O183 C182 1.306 . S
O183 Cd184 2.228 . S
Cd184 O183 2.228 . S
Cd184 O188 2.273 . S
Cd184 O192 2.277 . S
O185 C182 1.160 . S
O185 Cd186 2.203 . S
Cd186 O185 2.203 . S
Cd186 O188 2.411 . S
Cd186 O189 2.333 . S
Cd186 O190 2.352 1_655 S
Cd186 O194 2.277 . S
Cd186 O195 2.356 1_655 S
C187 O192 1.209 . S
C187 O194 1.226 . S
O188 Cd184 2.273 . S
O188 Cd186 2.411 . S
O188 C191 1.320 . S
O189 Cd186 2.333 . S
O189 C191 1.214 . S
O190 Cd186 2.352 1_455 S
O190 C193 1.258 . S
C191 O188 1.320 . S
C191 O189 1.214 . S
O192 Cd184 2.277 . S
O192 C187 1.209 . S
C193 O190 1.258 . S
C193 O195 1.282 . S
O194 Cd186 2.277 . S
O194 C187 1.226 . S
O195 Cd186 2.356 1_455 S
O195 C193 1.282 . S
C196 O197 1.306 . S
C196 O199 1.160 . S
O197 C196 1.306 . S
O197 Cd198 2.228 . S
Cd198 O197 2.228 . S
Cd198 O202 2.273 . S
Cd198 O206 2.277 . S
O199 C196 1.160 . S
O199 Cd200 2.203 . S
Cd200 O199 2.203 . S
Cd200 O202 2.411 . S
Cd200 O203 2.333 . S
Cd200 O204 2.352 . S
Cd200 O208 2.277 . S
Cd200 O209 2.356 . S
C201 O206 1.209 . S
C201 O208 1.226 . S
O202 Cd198 2.273 . S
O202 Cd200 2.411 . S
O202 C205 1.320 . S
O203 Cd200 2.333 . S
O203 C205 1.214 . S
O204 Cd200 2.352 . S
O204 C207 1.258 . S
C205 O202 1.320 . S
C205 O203 1.214 . S
O206 Cd198 2.277 . S
O206 C201 1.209 . S
C207 O204 1.258 . S
C207 O209 1.282 . S
O208 Cd200 2.277 . S
O208 C201 1.226 . S
O209 Cd200 2.356 . S
O209 C207 1.282 . S
C210 O211 1.306 . S
C210 O213 1.160 . S
O211 C210 1.306 . S
O211 Cd212 2.228 . S
Cd212 O211 2.228 . S
Cd212 O216 2.273 . S
Cd212 O220 2.277 . S
O213 C210 1.160 . S
O213 Cd214 2.203 . S
Cd214 O213 2.203 . S
Cd214 O216 2.411 . S
Cd214 O217 2.333 . S
Cd214 O218 2.352 . S
Cd214 O222 2.277 . S
Cd214 O223 2.356 . S
C215 O220 1.209 . S
C215 O222 1.226 . S
O216 Cd212 2.273 . S
O216 Cd214 2.411 . S
O216 C219 1.320 . S
O217 Cd214 2.333 . S
O217 C219 1.214 . S
O218 Cd214 2.352 . S
O218 C221 1.258 . S
C219 O216 1.320 . S
C219 O217 1.214 . S
O220 Cd212 2.277 . S
O220 C215 1.209 . S
C221 O218 1.258 . S
C221 O223 1.282 . S
O222 Cd214 2.277 . S
O222 C215 1.226 . S
O223 Cd214 2.356 . S
O223 C221 1.282 . S
C224 O225 1.306 . S
C224 O227 1.160 . S
O225 C224 1.306 . S
O225 Cd226 2.228 . S
Cd226 O225 2.228 . S
Cd226 O230 2.273 . S
Cd226 O234 2.277 . S
O227 C224 1.160 . S
O227 Cd228 2.203 . S
Cd228 O227 2.203 . S
Cd228 O230 2.411 . S
Cd228 O231 2.333 . S
Cd228 O232 2.317 1_545 S
Cd228 O236 2.277 . S
Cd228 O237 2.356 1_545 S
C229 O234 1.209 . S
C229 O236 1.226 . S
O230 Cd226 2.273 . S
O230 Cd228 2.411 . S
O230 C233 1.320 . S
O231 Cd228 2.333 . S
O231 C233 1.214 . S
O232 Cd228 2.317 1_565 S
O232 C235 1.330 . S
C233 O230 1.320 . S
C233 O231 1.214 . S
O234 Cd226 2.277 . S
O234 C229 1.209 . S
C235 O232 1.330 . S
C235 O237 1.282 . S
O236 Cd228 2.277 . S
O236 C229 1.226 . S
O237 Cd228 2.356 1_565 S
O237 C235 1.282 . S
C238 O239 1.306 . S
C238 O241 1.160 . S
O239 C238 1.306 . S
O239 Cd240 2.228 1_455 S
Cd240 O239 2.228 1_655 S
Cd240 O244 2.273 . S
Cd240 O248 2.277 . S
O241 C238 1.160 . S
O241 Cd242 2.203 1_455 S
Cd242 O241 2.203 1_655 S
Cd242 O244 2.411 . S
Cd242 O245 2.333 . S
Cd242 O246 2.352 . S
Cd242 O250 2.277 . S
Cd242 O251 2.356 . S
C243 O248 1.209 . S
C243 O250 1.226 . S
O244 Cd240 2.273 . S
O244 Cd242 2.411 . S
O244 C247 1.320 . S
O245 Cd242 2.333 . S
O245 C247 1.214 . S
O246 Cd242 2.352 . S
O246 C249 1.258 . S
C247 O244 1.320 . S
C247 O245 1.214 . S
O248 Cd240 2.277 . S
O248 C243 1.209 . S
C249 O246 1.258 . S
C249 O251 1.282 . S
O250 Cd242 2.277 . S
O250 C243 1.226 . S
O251 Cd242 2.356 . S
O251 C249 1.282 . S
H252 C271 0.949 . S
H253 C272 0.950 . S
H254 C274 0.950 . S
H255 C275 0.950 . S
H256 C277 0.950 . S
H257 C280 0.950 . S
H258 C281 0.950 . S
H259 C283 0.951 . S
H260 C284 0.949 . S
H261 C286 0.949 . S
H262 C287 0.950 . S
H263 C289 0.950 . S
H264 C290 0.950 . S
H265 C292 0.950 . S
H266 C295 0.950 . S
H267 C296 0.950 . S
H268 C298 0.951 . S
H269 C299 0.949 . S
C270 C271 1.376 . S
C270 C275 1.386 . S
C270 C276 1.483 . S
C271 H252 0.949 . S
C271 C270 1.376 . S
C271 C272 1.397 . S
C272 H253 0.950 . S
C272 C271 1.397 . S
C272 C273 1.391 . S
C273 C272 1.391 . S
C273 C274 1.405 . S
C274 H254 0.950 . S
C274 C273 1.405 . S
C274 C275 1.367 . S
C275 H255 0.950 . S
C275 C270 1.386 . S
C275 C274 1.367 . S
C276 C270 1.483 . S
C276 C277 1.382 . S
C276 C278 1.403 . S
C277 H256 0.950 . S
C277 C276 1.382 . S
C277 C293 1.411 . S
C278 C276 1.403 . S
C278 C279 1.489 . S
C278 C292 1.411 . S
C279 C278 1.489 . S
C279 C280 1.383 . S
C279 C284 1.382 . S
C280 H257 0.950 . S
C280 C279 1.383 . S
C280 C281 1.395 . S
C281 H258 0.950 . S
C281 C280 1.395 . S
C281 C282 1.288 . S
C282 C281 1.288 . S
C282 C283 1.392 . S
C283 H259 0.951 . S
C283 C282 1.392 . S
C283 C284 1.392 . S
C284 H260 0.949 . S
C284 C279 1.382 . S
C284 C283 1.392 . S
C285 C286 1.376 . S
C285 C290 1.386 . S
C285 C291 1.483 . S
C286 H261 0.949 . S
C286 C285 1.376 . S
C286 C287 1.397 . S
C287 H262 0.950 . S
C287 C286 1.397 . S
C287 C288 1.391 . S
C288 C287 1.391 . S
C288 C289 1.405 . S
C289 H263 0.950 . S
C289 C288 1.405 . S
C289 C290 1.367 . S
C290 H264 0.950 . S
C290 C285 1.386 . S
C290 C289 1.367 . S
C291 C285 1.483 . S
C291 C292 1.382 . S
C291 C293 1.403 . S
C292 H265 0.950 . S
C292 C278 1.411 . S
C292 C291 1.382 . S
C293 C277 1.411 . S
C293 C291 1.403 . S
C293 C294 1.489 . S
C294 C293 1.489 . S
C294 C295 1.383 . S
C294 C299 1.382 . S
C295 H266 0.950 . S
C295 C294 1.383 . S
C295 C296 1.395 . S
C296 H267 0.950 . S
C296 C295 1.395 . S
C296 C297 1.288 . S
C297 C296 1.288 . S
C297 C298 1.392 . S
C298 H268 0.951 . S
C298 C297 1.392 . S
C298 C299 1.392 . S
C299 H269 0.949 . S
C299 C294 1.382 . S
C299 C298 1.392 . S
H300 C319 0.949 . S
H301 C320 0.950 . S
H302 C322 0.950 . S
H303 C323 0.950 . S
H304 C325 0.950 . S
H305 C328 0.950 . S
H306 C329 0.950 . S
H307 C331 0.951 . S
H308 C332 0.949 . S
H309 C334 0.949 . S
H310 C335 0.950 . S
H311 C337 0.950 . S
H312 C338 0.950 . S
H313 C340 0.950 . S
H314 C343 0.950 . S
H315 C344 0.950 . S
H316 C346 0.951 . S
H317 C347 0.949 . S
C318 C319 1.376 . S
C318 C323 1.386 . S
C318 C324 1.483 . S
C319 H300 0.949 . S
C319 C318 1.376 . S
C319 C320 1.397 . S
C320 H301 0.950 . S
C320 C319 1.397 . S
C320 C321 1.391 . S
C321 C320 1.391 . S
C321 C322 1.405 . S
C322 H302 0.950 . S
C322 C321 1.405 . S
C322 C323 1.367 . S
C323 H303 0.950 . S
C323 C318 1.386 . S
C323 C322 1.367 . S
C324 C318 1.483 . S
C324 C325 1.382 . S
C324 C326 1.403 . S
C325 H304 0.950 . S
C325 C324 1.382 . S
C325 C341 1.411 . S
C326 C324 1.403 . S
C326 C327 1.489 . S
C326 C340 1.411 . S
C327 C326 1.489 . S
C327 C328 1.383 . S
C327 C332 1.382 . S
C328 H305 0.950 . S
C328 C327 1.383 . S
C328 C329 1.395 . S
C329 H306 0.950 . S
C329 C328 1.395 . S
C329 C330 1.288 . S
C330 C329 1.288 . S
C330 C331 1.392 . S
C331 H307 0.951 . S
C331 C330 1.392 . S
C331 C332 1.392 . S
C332 H308 0.949 . S
C332 C327 1.382 . S
C332 C331 1.392 . S
C333 C334 1.376 . S
C333 C338 1.386 . S
C333 C339 1.483 . S
C334 H309 0.949 . S
C334 C333 1.376 . S
C334 C335 1.397 . S
C335 H310 0.950 . S
C335 C334 1.397 . S
C335 C336 1.391 . S
C336 C335 1.391 . S
C336 C337 1.405 . S
C337 H311 0.950 . S
C337 C336 1.405 . S
C337 C338 1.367 . S
C338 H312 0.950 . S
C338 C333 1.386 . S
C338 C337 1.367 . S
C339 C333 1.483 . S
C339 C340 1.382 . S
C339 C341 1.403 . S
C340 H313 0.950 . S
C340 C326 1.411 . S
C340 C339 1.382 . S
C341 C325 1.411 . S
C341 C339 1.403 . S
C341 C342 1.489 . S
C342 C341 1.489 . S
C342 C343 1.383 . S
C342 C347 1.382 . S
C343 H314 0.950 . S
C343 C342 1.383 . S
C343 C344 1.395 . S
C344 H315 0.950 . S
C344 C343 1.395 . S
C344 C345 1.288 . S
C345 C344 1.288 . S
C345 C346 1.392 . S
C346 H316 0.951 . S
C346 C345 1.392 . S
C346 C347 1.392 . S
C347 H317 0.949 . S
C347 C342 1.382 . S
C347 C346 1.392 . S
H348 C367 0.949 . S
H349 C368 0.950 . S
H350 C370 0.950 . S
H351 C371 0.950 . S
H352 C373 0.950 . S
H353 C376 0.950 . S
H354 C377 0.950 . S
H355 C379 0.951 . S
H356 C380 0.949 . S
H357 C382 0.949 . S
H358 C383 0.950 . S
H359 C385 0.950 . S
H360 C386 0.950 . S
H361 C388 0.950 . S
H362 C391 0.950 . S
H363 C392 0.950 . S
H364 C394 0.951 . S
H365 C395 0.949 . S
C366 C367 1.376 . S
C366 C371 1.386 . S
C366 C372 1.483 . S
C367 H348 0.949 . S
C367 C366 1.376 . S
C367 C368 1.397 . S
C368 H349 0.950 . S
C368 C367 1.397 . S
C368 C369 1.391 . S
C369 C368 1.391 . S
C369 C370 1.405 . S
C370 H350 0.950 . S
C370 C369 1.405 . S
C370 C371 1.367 . S
C371 H351 0.950 . S
C371 C366 1.386 . S
C371 C370 1.367 . S
C372 C366 1.483 . S
C372 C373 1.382 . S
C372 C374 1.403 . S
C373 H352 0.950 . S
C373 C372 1.382 . S
C373 C389 1.411 . S
C374 C372 1.403 . S
C374 C375 1.489 . S
C374 C388 1.411 . S
C375 C374 1.489 . S
C375 C376 1.383 . S
C375 C380 1.382 . S
C376 H353 0.950 . S
C376 C375 1.383 . S
C376 C377 1.395 . S
C377 H354 0.950 . S
C377 C376 1.395 . S
C377 C378 1.288 . S
C378 C377 1.288 . S
C378 C379 1.392 . S
C379 H355 0.951 . S
C379 C378 1.392 . S
C379 C380 1.392 . S
C380 H356 0.949 . S
C380 C375 1.382 . S
C380 C379 1.392 . S
C381 C382 1.376 . S
C381 C386 1.386 . S
C381 C387 1.483 . S
C382 H357 0.949 . S
C382 C381 1.376 . S
C382 C383 1.397 . S
C383 H358 0.950 . S
C383 C382 1.397 . S
C383 C384 1.391 . S
C384 C383 1.391 . S
C384 C385 1.405 . S
C385 H359 0.950 . S
C385 C384 1.405 . S
C385 C386 1.367 . S
C386 H360 0.950 . S
C386 C381 1.386 . S
C386 C385 1.367 . S
C387 C381 1.483 . S
C387 C388 1.382 . S
C387 C389 1.403 . S
C388 H361 0.950 . S
C388 C374 1.411 . S
C388 C387 1.382 . S
C389 C373 1.411 . S
C389 C387 1.403 . S
C389 C390 1.489 . S
C390 C389 1.489 . S
C390 C391 1.383 . S
C390 C395 1.382 . S
C391 H362 0.950 . S
C391 C390 1.383 . S
C391 C392 1.395 . S
C392 H363 0.950 . S
C392 C391 1.395 . S
C392 C393 1.288 . S
C393 C392 1.288 . S
C393 C394 1.392 . S
C394 H364 0.951 . S
C394 C393 1.392 . S
C394 C395 1.392 . S
C395 H365 0.949 . S
C395 C390 1.382 . S
C395 C394 1.392 . S
H396 C415 0.949 . S
H397 C416 0.950 . S
H398 C418 0.950 . S
H399 C419 0.950 . S
H400 C421 0.950 . S
H401 C424 0.950 . S
H402 C425 0.950 . S
H403 C427 0.951 . S
H404 C428 0.949 . S
H405 C430 0.949 . S
H406 C431 0.950 . S
H407 C433 0.950 . S
H408 C434 0.950 . S
H409 C436 0.950 . S
H410 C439 0.950 . S
H411 C440 0.950 . S
H412 C442 0.951 . S
H413 C443 0.949 . S
C414 C415 1.376 . S
C414 C419 1.386 . S
C414 C420 1.483 . S
C415 H396 0.949 . S
C415 C414 1.376 . S
C415 C416 1.397 . S
C416 H397 0.950 . S
C416 C415 1.397 . S
C416 C417 1.391 . S
C417 C416 1.391 . S
C417 C418 1.405 . S
C418 H398 0.950 . S
C418 C417 1.405 . S
C418 C419 1.367 . S
C419 H399 0.950 . S
C419 C414 1.386 . S
C419 C418 1.367 . S
C420 C414 1.483 . S
C420 C421 1.382 . S
C420 C422 1.403 . S
C421 H400 0.950 . S
C421 C420 1.382 . S
C421 C437 1.411 . S
C422 C420 1.403 . S
C422 C423 1.489 . S
C422 C436 1.411 . S
C423 C422 1.489 . S
C423 C424 1.383 . S
C423 C428 1.382 . S
C424 H401 0.950 . S
C424 C423 1.383 . S
C424 C425 1.395 . S
C425 H402 0.950 . S
C425 C424 1.395 . S
C425 C426 1.288 . S
C426 C425 1.288 . S
C426 C427 1.392 . S
C427 H403 0.951 . S
C427 C426 1.392 . S
C427 C428 1.392 . S
C428 H404 0.949 . S
C428 C423 1.382 . S
C428 C427 1.392 . S
C429 C430 1.376 . S
C429 C434 1.386 . S
C429 C435 1.483 . S
C430 H405 0.949 . S
C430 C429 1.376 . S
C430 C431 1.397 . S
C431 H406 0.950 . S
C431 C430 1.397 . S
C431 C432 1.391 . S
C432 C431 1.391 . S
C432 C433 1.405 . S
C433 H407 0.950 . S
C433 C432 1.405 . S
C433 C434 1.367 . S
C434 H408 0.950 . S
C434 C429 1.386 . S
C434 C433 1.367 . S
C435 C429 1.483 . S
C435 C436 1.382 . S
C435 C437 1.403 . S
C436 H409 0.950 . S
C436 C422 1.411 . S
C436 C435 1.382 . S
C437 C421 1.411 . S
C437 C435 1.403 . S
C437 C438 1.489 . S
C438 C437 1.489 . S
C438 C439 1.383 . S
C438 C443 1.382 . S
C439 H410 0.950 . S
C439 C438 1.383 . S
C439 C440 1.395 . S
C440 H411 0.950 . S
C440 C439 1.395 . S
C440 C441 1.288 . S
C441 C440 1.288 . S
C441 C442 1.392 . S
C442 H412 0.951 . S
C442 C441 1.392 . S
C442 C443 1.392 . S
C443 H413 0.949 . S
C443 C438 1.382 . S
C443 C442 1.392 . S
H444 C463 0.949 . S
H445 C464 0.950 . S
H446 C466 0.950 . S
H447 C467 0.950 . S
H448 C469 0.950 . S
H449 C472 0.950 . S
H450 C473 0.950 . S
H451 C475 0.951 . S
H452 C476 0.949 . S
H453 C478 0.949 . S
H454 C479 0.950 . S
H455 C481 0.950 . S
H456 C482 0.950 . S
H457 C484 0.950 . S
H458 C487 0.950 . S
H459 C488 0.950 . S
H460 C490 0.951 . S
H461 C491 0.949 . S
C462 C463 1.376 . S
C462 C467 1.386 . S
C462 C468 1.483 . S
C463 H444 0.949 . S
C463 C462 1.376 . S
C463 C464 1.397 . S
C464 H445 0.950 . S
C464 C463 1.397 . S
C464 C465 1.391 . S
C465 C464 1.391 . S
C465 C466 1.405 . S
C466 H446 0.950 . S
C466 C465 1.405 . S
C466 C467 1.367 . S
C467 H447 0.950 . S
C467 C462 1.386 . S
C467 C466 1.367 . S
C468 C462 1.483 . S
C468 C469 1.382 . S
C468 C470 1.403 . S
C469 H448 0.950 . S
C469 C468 1.382 . S
C469 C485 1.411 . S
C470 C468 1.403 . S
C470 C471 1.489 . S
C470 C484 1.411 . S
C471 C470 1.489 . S
C471 C472 1.383 . S
C471 C476 1.382 . S
C472 H449 0.950 . S
C472 C471 1.383 . S
C472 C473 1.395 . S
C473 H450 0.950 . S
C473 C472 1.395 . S
C473 C474 1.288 . S
C474 C473 1.288 . S
C474 C475 1.392 . S
C475 H451 0.951 . S
C475 C474 1.392 . S
C475 C476 1.392 . S
C476 H452 0.949 . S
C476 C471 1.382 . S
C476 C475 1.392 . S
C477 C478 1.376 . S
C477 C482 1.386 . S
C477 C483 1.483 . S
C478 H453 0.949 . S
C478 C477 1.376 . S
C478 C479 1.397 . S
C479 H454 0.950 . S
C479 C478 1.397 . S
C479 C480 1.391 . S
C480 C479 1.391 . S
C480 C481 1.405 . S
C481 H455 0.950 . S
C481 C480 1.405 . S
C481 C482 1.367 . S
C482 H456 0.950 . S
C482 C477 1.386 . S
C482 C481 1.367 . S
C483 C477 1.483 . S
C483 C484 1.382 . S
C483 C485 1.403 . S
C484 H457 0.950 . S
C484 C470 1.411 . S
C484 C483 1.382 . S
C485 C469 1.411 . S
C485 C483 1.403 . S
C485 C486 1.489 . S
C486 C485 1.489 . S
C486 C487 1.383 . S
C486 C491 1.382 . S
C487 H458 0.950 . S
C487 C486 1.383 . S
C487 C488 1.395 . S
C488 H459 0.950 . S
C488 C487 1.395 . S
C488 C489 1.288 . S
C489 C488 1.288 . S
C489 C490 1.392 . S
C490 H460 0.951 . S
C490 C489 1.392 . S
C490 C491 1.392 . S
C491 H461 0.949 . S
C491 C486 1.382 . S
C491 C490 1.392 . S
H492 C511 0.949 . S
H493 C512 0.950 . S
H494 C514 0.950 . S
H495 C515 0.950 . S
H496 C517 0.950 . S
H497 C520 0.950 . S
H498 C521 0.950 . S
H499 C523 0.951 . S
H500 C524 0.949 . S
H501 C526 0.949 . S
H502 C527 0.950 . S
H503 C529 0.950 . S
H504 C530 0.950 . S
H505 C532 0.950 . S
H506 C535 0.950 . S
H507 C536 0.950 . S
H508 C538 0.951 . S
H509 C539 0.949 . S
C510 C511 1.376 . S
C510 C515 1.386 . S
C510 C516 1.483 . S
C511 H492 0.949 . S
C511 C510 1.376 . S
C511 C512 1.397 . S
C512 H493 0.950 . S
C512 C511 1.397 . S
C512 C513 1.391 . S
C513 C512 1.391 . S
C513 C514 1.405 . S
C514 H494 0.950 . S
C514 C513 1.405 . S
C514 C515 1.367 . S
C515 H495 0.950 . S
C515 C510 1.386 . S
C515 C514 1.367 . S
C516 C510 1.483 . S
C516 C517 1.382 . S
C516 C518 1.403 . S
C517 H496 0.950 . S
C517 C516 1.382 . S
C517 C533 1.411 . S
C518 C516 1.403 . S
C518 C519 1.489 . S
C518 C532 1.411 . S
C519 C518 1.489 . S
C519 C520 1.383 . S
C519 C524 1.382 . S
C520 H497 0.950 . S
C520 C519 1.383 . S
C520 C521 1.395 . S
C521 H498 0.950 . S
C521 C520 1.395 . S
C521 C522 1.288 . S
C522 C521 1.288 . S
C522 C523 1.392 . S
C523 H499 0.951 . S
C523 C522 1.392 . S
C523 C524 1.392 . S
C524 H500 0.949 . S
C524 C519 1.382 . S
C524 C523 1.392 . S
C525 C526 1.376 . S
C525 C530 1.386 . S
C525 C531 1.483 . S
C526 H501 0.949 . S
C526 C525 1.376 . S
C526 C527 1.397 . S
C527 H502 0.950 . S
C527 C526 1.397 . S
C527 C528 1.391 . S
C528 C527 1.391 . S
C528 C529 1.405 . S
C529 H503 0.950 . S
C529 C528 1.405 . S
C529 C530 1.367 . S
C530 H504 0.950 . S
C530 C525 1.386 . S
C530 C529 1.367 . S
C531 C525 1.483 . S
C531 C532 1.382 . S
C531 C533 1.403 . S
C532 H505 0.950 . S
C532 C518 1.411 . S
C532 C531 1.382 . S
C533 C517 1.411 . S
C533 C531 1.403 . S
C533 C534 1.489 . S
C534 C533 1.489 . S
C534 C535 1.383 . S
C534 C539 1.382 . S
C535 H506 0.950 . S
C535 C534 1.383 . S
C535 C536 1.395 . S
C536 H507 0.950 . S
C536 C535 1.395 . S
C536 C537 1.288 . S
C537 C536 1.288 . S
C537 C538 1.392 . S
C538 H508 0.951 . S
C538 C537 1.392 . S
C538 C539 1.392 . S
C539 H509 0.949 . S
C539 C534 1.382 . S
C539 C538 1.392 . S
H540 C559 0.949 . S
H541 C560 0.950 . S
H542 C562 0.950 . S
H543 C563 0.950 . S
H544 C565 0.950 . S
H545 C568 0.950 . S
H546 C569 0.950 . S
H547 C571 0.951 . S
H548 C572 0.949 . S
H549 C574 0.949 . S
H550 C575 0.950 . S
H551 C577 0.950 . S
H552 C578 0.950 . S
H553 C580 0.950 . S
H554 C583 0.950 . S
H555 C584 0.950 . S
H556 C586 0.951 . S
H557 C587 0.949 . S
C558 C559 1.376 . S
C558 C563 1.386 . S
C558 C564 1.483 . S
C559 H540 0.949 . S
C559 C558 1.376 . S
C559 C560 1.397 . S
C560 H541 0.950 . S
C560 C559 1.397 . S
C560 C561 1.391 . S
C561 C560 1.391 . S
C561 C562 1.405 . S
C562 H542 0.950 . S
C562 C561 1.405 . S
C562 C563 1.367 . S
C563 H543 0.950 . S
C563 C558 1.386 . S
C563 C562 1.367 . S
C564 C558 1.483 . S
C564 C565 1.382 . S
C564 C566 1.403 . S
C565 H544 0.950 . S
C565 C564 1.382 . S
C565 C581 1.411 . S
C566 C564 1.403 . S
C566 C567 1.489 . S
C566 C580 1.411 . S
C567 C566 1.489 . S
C567 C568 1.383 . S
C567 C572 1.382 . S
C568 H545 0.950 . S
C568 C567 1.383 . S
C568 C569 1.395 . S
C569 H546 0.950 . S
C569 C568 1.395 . S
C569 C570 1.288 . S
C570 C569 1.288 . S
C570 C571 1.392 . S
C571 H547 0.951 . S
C571 C570 1.392 . S
C571 C572 1.392 . S
C572 H548 0.949 . S
C572 C567 1.382 . S
C572 C571 1.392 . S
C573 C574 1.376 . S
C573 C578 1.386 . S
C573 C579 1.483 . S
C574 H549 0.949 . S
C574 C573 1.376 . S
C574 C575 1.397 . S
C575 H550 0.950 . S
C575 C574 1.397 . S
C575 C576 1.391 . S
C576 C575 1.391 . S
C576 C577 1.405 . S
C577 H551 0.950 . S
C577 C576 1.405 . S
C577 C578 1.367 . S
C578 H552 0.950 . S
C578 C573 1.386 . S
C578 C577 1.367 . S
C579 C573 1.483 . S
C579 C580 1.382 . S
C579 C581 1.403 . S
C580 H553 0.950 . S
C580 C566 1.411 . S
C580 C579 1.382 . S
C581 C565 1.411 . S
C581 C579 1.403 . S
C581 C582 1.489 . S
C582 C581 1.489 . S
C582 C583 1.383 . S
C582 C587 1.382 . S
C583 H554 0.950 . S
C583 C582 1.383 . S
C583 C584 1.395 . S
C584 H555 0.950 . S
C584 C583 1.395 . S
C584 C585 1.288 . S
C585 C584 1.288 . S
C585 C586 1.392 . S
C586 H556 0.951 . S
C586 C585 1.392 . S
C586 C587 1.392 . S
C587 H557 0.949 . S
C587 C582 1.382 . S
C587 C586 1.392 . S
H588 C607 0.949 . S
H589 C608 0.950 . S
H590 C610 0.950 . S
H591 C611 0.950 . S
H592 C613 0.950 . S
H593 C616 0.950 . S
H594 C617 0.950 . S
H595 C619 0.951 . S
H596 C620 0.949 . S
H597 C622 0.949 . S
H598 C623 0.950 . S
H599 C625 0.950 . S
H600 C626 0.950 . S
H601 C628 0.950 . S
H602 C631 0.950 . S
H603 C632 0.950 . S
H604 C634 0.951 . S
H605 C635 0.949 . S
C606 C607 1.376 . S
C606 C611 1.386 . S
C606 C612 1.483 . S
C607 H588 0.949 . S
C607 C606 1.376 . S
C607 C608 1.397 . S
C608 H589 0.950 . S
C608 C607 1.397 . S
C608 C609 1.391 . S
C609 C608 1.391 . S
C609 C610 1.405 . S
C610 H590 0.950 . S
C610 C609 1.405 . S
C610 C611 1.367 . S
C611 H591 0.950 . S
C611 C606 1.386 . S
C611 C610 1.367 . S
C612 C606 1.483 . S
C612 C613 1.382 . S
C612 C614 1.403 . S
C613 H592 0.950 . S
C613 C612 1.382 . S
C613 C629 1.411 . S
C614 C612 1.403 . S
C614 C615 1.489 . S
C614 C628 1.411 . S
C615 C614 1.489 . S
C615 C616 1.383 . S
C615 C620 1.382 . S
C616 H593 0.950 . S
C616 C615 1.383 . S
C616 C617 1.395 . S
C617 H594 0.950 . S
C617 C616 1.395 . S
C617 C618 1.288 . S
C618 C617 1.288 . S
C618 C619 1.392 . S
C619 H595 0.951 . S
C619 C618 1.392 . S
C619 C620 1.392 . S
C620 H596 0.949 . S
C620 C615 1.382 . S
C620 C619 1.392 . S
C621 C622 1.376 . S
C621 C626 1.386 . S
C621 C627 1.483 . S
C622 H597 0.949 . S
C622 C621 1.376 . S
C622 C623 1.397 . S
C623 H598 0.950 . S
C623 C622 1.397 . S
C623 C624 1.391 . S
C624 C623 1.391 . S
C624 C625 1.405 . S
C625 H599 0.950 . S
C625 C624 1.405 . S
C625 C626 1.367 . S
C626 H600 0.950 . S
C626 C621 1.386 . S
C626 C625 1.367 . S
C627 C621 1.483 . S
C627 C628 1.382 . S
C627 C629 1.403 . S
C628 H601 0.950 . S
C628 C614 1.411 . S
C628 C627 1.382 . S
C629 C613 1.411 . S
C629 C627 1.403 . S
C629 C630 1.489 . S
C630 C629 1.489 . S
C630 C631 1.383 . S
C630 C635 1.382 . S
C631 H602 0.950 . S
C631 C630 1.383 . S
C631 C632 1.395 . S
C632 H603 0.950 . S
C632 C631 1.395 . S
C632 C633 1.288 . S
C633 C632 1.288 . S
C633 C634 1.392 . S
C634 H604 0.951 . S
C634 C633 1.392 . S
C634 C635 1.392 . S
C635 H605 0.949 . S
C635 C630 1.382 . S
C635 C634 1.392 . S
H636 C655 0.949 . S
H637 C656 0.950 . S
H638 C658 0.950 . S
H639 C659 0.950 . S
H640 C661 0.950 . S
H641 C664 0.950 . S
H642 C665 0.950 . S
H643 C667 0.951 . S
H644 C668 0.949 . S
H645 C670 0.949 . S
H646 C671 0.950 . S
H647 C673 0.950 . S
H648 C674 0.950 . S
H649 C676 0.950 . S
H650 C679 0.950 . S
H651 C680 0.950 . S
H652 C682 0.951 . S
H653 C683 0.949 . S
C654 C655 1.376 . S
C654 C659 1.386 . S
C654 C660 1.483 . S
C655 H636 0.949 . S
C655 C654 1.376 . S
C655 C656 1.397 . S
C656 H637 0.950 . S
C656 C655 1.397 . S
C656 C657 1.391 . S
C657 C656 1.391 . S
C657 C658 1.405 . S
C658 H638 0.950 . S
C658 C657 1.405 . S
C658 C659 1.367 . S
C659 H639 0.950 . S
C659 C654 1.386 . S
C659 C658 1.367 . S
C660 C654 1.483 . S
C660 C661 1.382 . S
C660 C662 1.403 . S
C661 H640 0.950 . S
C661 C660 1.382 . S
C661 C677 1.411 . S
C662 C660 1.403 . S
C662 C663 1.489 . S
C662 C676 1.411 . S
C663 C662 1.489 . S
C663 C664 1.383 . S
C663 C668 1.382 . S
C664 H641 0.950 . S
C664 C663 1.383 . S
C664 C665 1.395 . S
C665 H642 0.950 . S
C665 C664 1.395 . S
C665 C666 1.288 . S
C666 C665 1.288 . S
C666 C667 1.392 . S
C667 H643 0.951 . S
C667 C666 1.392 . S
C667 C668 1.392 . S
C668 H644 0.949 . S
C668 C663 1.382 . S
C668 C667 1.392 . S
C669 C670 1.376 . S
C669 C674 1.386 . S
C669 C675 1.483 . S
C670 H645 0.949 . S
C670 C669 1.376 . S
C670 C671 1.397 . S
C671 H646 0.950 . S
C671 C670 1.397 . S
C671 C672 1.391 . S
C672 C671 1.391 . S
C672 C673 1.405 . S
C673 H647 0.950 . S
C673 C672 1.405 . S
C673 C674 1.367 . S
C674 H648 0.950 . S
C674 C669 1.386 . S
C674 C673 1.367 . S
C675 C669 1.483 . S
C675 C676 1.382 . S
C675 C677 1.403 . S
C676 H649 0.950 . S
C676 C662 1.411 . S
C676 C675 1.382 . S
C677 C661 1.411 . S
C677 C675 1.403 . S
C677 C678 1.489 . S
C678 C677 1.489 . S
C678 C679 1.383 . S
C678 C683 1.382 . S
C679 H650 0.950 . S
C679 C678 1.383 . S
C679 C680 1.395 . S
C680 H651 0.950 . S
C680 C679 1.395 . S
C680 C681 1.288 . S
C681 C680 1.288 . S
C681 C682 1.392 . S
C682 H652 0.951 . S
C682 C681 1.392 . S
C682 C683 1.392 . S
C683 H653 0.949 . S
C683 C678 1.382 . S
C683 C682 1.392 . S
H684 C703 0.949 . S
H685 C704 0.950 . S
H686 C706 0.950 . S
H687 C707 0.950 . S
H688 C709 0.950 . S
H689 C712 0.950 . S
H690 C713 0.950 . S
H691 C715 0.951 . S
H692 C716 0.949 . S
H693 C718 0.949 . S
H694 C719 0.950 . S
H695 C721 0.950 . S
H696 C722 0.950 . S
H697 C724 0.950 . S
H698 C727 0.950 . S
H699 C728 0.950 . S
H700 C730 0.951 . S
H701 C731 0.949 . S
C702 C703 1.376 . S
C702 C707 1.386 1_655 S
C702 C708 1.483 . S
C703 H684 0.949 . S
C703 C702 1.376 . S
C703 C704 1.397 . S
C704 H685 0.950 . S
C704 C703 1.397 . S
C704 C705 1.391 . S
C705 C704 1.391 . S
C705 C706 1.405 1_655 S
C706 H686 0.950 . S
C706 C705 1.405 1_455 S
C706 C707 1.367 . S
C707 H687 0.950 . S
C707 C702 1.386 1_455 S
C707 C706 1.367 . S
C708 C702 1.483 . S
C708 C709 1.382 . S
C708 C710 1.403 1_655 S
C709 H688 0.950 . S
C709 C708 1.382 . S
C709 C725 1.411 . S
C710 C708 1.403 1_455 S
C710 C711 1.489 . S
C710 C724 1.411 . S
C711 C710 1.489 . S
C711 C712 1.383 1_455 S
C711 C716 1.382 . S
C712 H689 0.950 . S
C712 C711 1.383 1_655 S
C712 C713 1.395 . S
C713 H690 0.950 . S
C713 C712 1.395 . S
C713 C714 1.288 1_655 S
C714 C713 1.288 1_455 S
C714 C715 1.392 . S
C715 H691 0.951 . S
C715 C714 1.392 . S
C715 C716 1.392 . S
C716 H692 0.949 . S
C716 C711 1.382 . S
C716 C715 1.392 . S
C717 C718 1.376 . S
C717 C722 1.386 1_455 S
C717 C723 1.483 . S
C718 H693 0.949 . S
C718 C717 1.376 . S
C718 C719 1.397 . S
C719 H694 0.950 . S
C719 C718 1.397 . S
C719 C720 1.391 . S
C720 C719 1.391 . S
C720 C721 1.405 1_455 S
C721 H695 0.950 . S
C721 C720 1.405 1_655 S
C721 C722 1.367 . S
C722 H696 0.950 . S
C722 C717 1.386 1_655 S
C722 C721 1.367 . S
C723 C717 1.483 . S
C723 C724 1.382 . S
C723 C725 1.403 1_455 S
C724 H697 0.950 . S
C724 C710 1.411 . S
C724 C723 1.382 . S
C725 C709 1.411 . S
C725 C723 1.403 1_655 S
C725 C726 1.489 . S
C726 C725 1.489 . S
C726 C727 1.383 1_655 S
C726 C731 1.382 . S
C727 H698 0.950 . S
C727 C726 1.383 1_455 S
C727 C728 1.395 . S
C728 H699 0.950 . S
C728 C727 1.395 . S
C728 C729 1.288 1_455 S
C729 C728 1.288 1_655 S
C729 C730 1.392 . S
C730 H700 0.951 . S
C730 C729 1.392 . S
C730 C731 1.392 . S
C731 H701 0.949 . S
C731 C726 1.382 . S
C731 C730 1.392 . S
H732 C751 0.949 . S
H733 C752 0.950 . S
H734 C754 0.950 . S
H735 C755 0.950 . S
H736 C757 0.950 . S
H737 C760 0.950 . S
H738 C761 0.950 . S
H739 C763 0.951 . S
H740 C764 0.949 . S
H741 C766 0.949 . S
H742 C767 0.950 . S
H743 C769 0.950 . S
H744 C770 0.950 . S
H745 C772 0.950 . S
H746 C775 0.950 . S
H747 C776 0.950 . S
H748 C778 0.951 . S
H749 C779 0.949 . S
C750 C751 1.376 . S
C750 C755 1.386 . S
C750 C756 1.483 . S
C751 H732 0.949 . S
C751 C750 1.376 . S
C751 C752 1.397 . S
C752 H733 0.950 . S
C752 C751 1.397 . S
C752 C753 1.391 . S
C753 C752 1.391 . S
C753 C754 1.405 . S
C754 H734 0.950 . S
C754 C753 1.405 . S
C754 C755 1.367 . S
C755 H735 0.950 . S
C755 C750 1.386 . S
C755 C754 1.367 . S
C756 C750 1.483 . S
C756 C757 1.382 . S
C756 C758 1.403 . S
C757 H736 0.950 . S
C757 C756 1.382 . S
C757 C773 1.411 . S
C758 C756 1.403 . S
C758 C759 1.489 . S
C758 C772 1.411 . S
C759 C758 1.489 . S
C759 C760 1.383 . S
C759 C764 1.382 . S
C760 H737 0.950 . S
C760 C759 1.383 . S
C760 C761 1.395 . S
C761 H738 0.950 . S
C761 C760 1.395 . S
C761 C762 1.288 . S
C762 C761 1.288 . S
C762 C763 1.392 . S
C763 H739 0.951 . S
C763 C762 1.392 . S
C763 C764 1.392 . S
C764 H740 0.949 . S
C764 C759 1.382 . S
C764 C763 1.392 . S
C765 C766 1.376 . S
C765 C770 1.386 . S
C765 C771 1.483 . S
C766 H741 0.949 . S
C766 C765 1.376 . S
C766 C767 1.397 . S
C767 H742 0.950 . S
C767 C766 1.397 . S
C767 C768 1.391 . S
C768 C767 1.391 . S
C768 C769 1.405 . S
C769 H743 0.950 . S
C769 C768 1.405 . S
C769 C770 1.367 . S
C770 H744 0.950 . S
C770 C765 1.386 . S
C770 C769 1.367 . S
C771 C765 1.483 . S
C771 C772 1.382 . S
C771 C773 1.403 . S
C772 H745 0.950 . S
C772 C758 1.411 . S
C772 C771 1.382 . S
C773 C757 1.411 . S
C773 C771 1.403 . S
C773 C774 1.489 . S
C774 C773 1.489 . S
C774 C775 1.383 . S
C774 C779 1.382 . S
C775 H746 0.950 . S
C775 C774 1.383 . S
C775 C776 1.395 . S
C776 H747 0.950 . S
C776 C775 1.395 . S
C776 C777 1.288 . S
C777 C776 1.288 . S
C777 C778 1.392 . S
C778 H748 0.951 . S
C778 C777 1.392 . S
C778 C779 1.392 . S
C779 H749 0.949 . S
C779 C774 1.382 . S
C779 C778 1.392 . S
H780 C799 0.949 . S
H781 C800 0.950 . S
H782 C802 0.950 . S
H783 C803 0.950 . S
H784 C805 0.950 . S
H785 C808 0.950 . S
H786 C809 0.950 . S
H787 C811 0.951 . S
H788 C812 0.949 . S
H789 C814 0.949 . S
H790 C815 0.950 . S
H791 C817 0.950 . S
H792 C818 0.950 . S
H793 C820 0.950 . S
H794 C823 0.950 . S
H795 C824 0.950 . S
H796 C826 0.951 . S
H797 C827 0.949 . S
C798 C799 1.376 . S
C798 C803 1.386 1_545 S
C798 C804 1.483 . S
C799 H780 0.949 . S
C799 C798 1.376 . S
C799 C800 1.397 . S
C800 H781 0.950 . S
C800 C799 1.397 . S
C800 C801 1.391 . S
C801 C800 1.391 . S
C801 C802 1.405 1_545 S
C802 H782 0.950 . S
C802 C801 1.405 1_565 S
C802 C803 1.367 . S
C803 H783 0.950 . S
C803 C798 1.386 1_565 S
C803 C802 1.367 . S
C804 C798 1.483 . S
C804 C805 1.382 . S
C804 C806 1.403 1_545 S
C805 H784 0.950 . S
C805 C804 1.382 . S
C805 C821 1.411 . S
C806 C804 1.403 1_565 S
C806 C807 1.489 . S
C806 C820 1.411 . S
C807 C806 1.489 . S
C807 C808 1.383 1_565 S
C807 C812 1.382 . S
C808 H785 0.950 . S
C808 C807 1.383 1_545 S
C808 C809 1.395 . S
C809 H786 0.950 . S
C809 C808 1.395 . S
C809 C810 1.288 1_545 S
C810 C809 1.288 1_565 S
C810 C811 1.392 . S
C811 H787 0.951 . S
C811 C810 1.392 . S
C811 C812 1.392 . S
C812 H788 0.949 . S
C812 C807 1.382 . S
C812 C811 1.392 . S
C813 C814 1.376 . S
C813 C818 1.386 1_565 S
C813 C819 1.483 . S
C814 H789 0.949 . S
C814 C813 1.376 . S
C814 C815 1.397 . S
C815 H790 0.950 . S
C815 C814 1.397 . S
C815 C816 1.391 . S
C816 C815 1.391 . S
C816 C817 1.405 1_565 S
C817 H791 0.950 . S
C817 C816 1.405 1_545 S
C817 C818 1.367 . S
C818 H792 0.950 . S
C818 C813 1.386 1_545 S
C818 C817 1.367 . S
C819 C813 1.483 . S
C819 C820 1.382 . S
C819 C821 1.403 1_565 S
C820 H793 0.950 . S
C820 C806 1.411 . S
C820 C819 1.382 . S
C821 C805 1.411 . S
C821 C819 1.403 1_545 S
C821 C822 1.489 . S
C822 C821 1.489 . S
C822 C823 1.383 1_545 S
C822 C827 1.382 . S
C823 H794 0.950 . S
C823 C822 1.383 1_565 S
C823 C824 1.395 . S
C824 H795 0.950 . S
C824 C823 1.395 . S
C824 C825 1.288 1_565 S
C825 C824 1.288 1_545 S
C825 C826 1.392 . S
C826 H796 0.951 . S
C826 C825 1.392 . S
C826 C827 1.392 . S
C827 H797 0.949 . S
C827 C822 1.382 . S
C827 C826 1.392 . S
H828 C847 0.949 . S
H829 C848 0.950 . S
H830 C850 0.950 . S
H831 C851 0.950 . S
H832 C853 0.950 . S
H833 C856 0.950 . S
H834 C857 0.950 . S
H835 C859 0.951 . S
H836 C860 0.949 . S
H837 C862 0.949 . S
H838 C863 0.950 . S
H839 C865 0.950 . S
H840 C866 0.950 . S
H841 C868 0.950 . S
H842 C871 0.950 . S
H843 C872 0.950 . S
H844 C874 0.951 . S
H845 C875 0.949 . S
C846 C847 1.397 . S
C846 C851 1.376 1_545 S
C846 C852 1.501 . S
C847 H828 0.949 . S
C847 C846 1.397 . S
C847 C848 1.397 . S
C848 H829 0.950 . S
C848 C847 1.397 . S
C848 C849 1.391 1_545 S
C849 C848 1.391 1_565 S
C849 C850 1.405 . S
C850 H830 0.950 . S
C850 C849 1.405 . S
C850 C851 1.367 . S
C851 H831 0.950 . S
C851 C846 1.376 1_565 S
C851 C850 1.367 . S
C852 C846 1.501 . S
C852 C853 1.354 . S
C852 C854 1.399 1_545 S
C853 H832 0.950 . S
C853 C852 1.354 . S
C853 C869 1.443 . S
C854 C852 1.399 1_565 S
C854 C855 1.482 . S
C854 C868 1.432 . S
C855 C854 1.482 . S
C855 C856 1.359 1_565 S
C855 C860 1.395 . S
C856 H833 0.950 . S
C856 C855 1.359 1_545 S
C856 C857 1.395 . S
C857 H834 0.950 . S
C857 C856 1.395 . S
C857 C858 1.288 . S
C858 C857 1.288 . S
C858 C859 1.392 1_545 S
C859 H835 0.951 . S
C859 C858 1.392 1_565 S
C859 C860 1.392 . S
C860 H836 0.949 . S
C860 C855 1.395 . S
C860 C859 1.392 . S
C861 C862 1.381 . S
C861 C866 1.384 1_565 S
C861 C867 1.501 . S
C862 H837 0.949 . S
C862 C861 1.381 . S
C862 C863 1.397 . S
C863 H838 0.950 . S
C863 C862 1.397 . S
C863 C864 1.391 1_565 S
C864 C863 1.391 1_545 S
C864 C865 1.405 . S
C865 H839 0.950 . S
C865 C864 1.405 . S
C865 C866 1.367 . S
C866 H840 0.950 . S
C866 C861 1.384 1_545 S
C866 C865 1.367 . S
C867 C861 1.501 . S
C867 C868 1.363 . S
C867 C869 1.399 1_565 S
C868 H841 0.950 . S
C868 C854 1.432 . S
C868 C867 1.363 . S
C869 C853 1.443 . S
C869 C867 1.399 1_545 S
C869 C870 1.482 . S
C870 C869 1.482 . S
C870 C871 1.337 1_545 S
C870 C875 1.406 . S
C871 H842 0.950 . S
C871 C870 1.337 1_565 S
C871 C872 1.395 . S
C872 H843 0.950 . S
C872 C871 1.395 . S
C872 C873 1.336 . S
C873 C872 1.336 . S
C873 C874 1.299 1_565 S
C874 H844 0.951 . S
C874 C873 1.299 1_545 S
C874 C875 1.392 . S
C875 H845 0.949 . S
C875 C870 1.406 . S
C875 C874 1.392 . S
H876 C895 0.949 . S
H877 C896 0.950 . S
H878 C898 0.950 . S
H879 C899 0.950 . S
H880 C901 0.950 . S
H881 C904 0.950 . S
H882 C905 0.950 . S
H883 C907 0.951 . S
H884 C908 0.949 . S
H885 C910 0.949 . S
H886 C911 0.950 . S
H887 C913 0.950 . S
H888 C914 0.950 . S
H889 C916 0.950 . S
H890 C919 0.950 . S
H891 C920 0.950 . S
H892 C922 0.951 . S
H893 C923 0.949 . S
C894 C895 1.376 . S
C894 C899 1.386 1_455 S
C894 C900 1.483 . S
C895 H876 0.949 . S
C895 C894 1.376 . S
C895 C896 1.397 . S
C896 H877 0.950 . S
C896 C895 1.397 . S
C896 C897 1.391 . S
C897 C896 1.391 . S
C897 C898 1.405 1_455 S
C898 H878 0.950 . S
C898 C897 1.405 1_655 S
C898 C899 1.367 . S
C899 H879 0.950 . S
C899 C894 1.386 1_655 S
C899 C898 1.367 . S
C900 C894 1.483 . S
C900 C901 1.382 . S
C900 C902 1.403 1_455 S
C901 H880 0.950 . S
C901 C900 1.382 . S
C901 C917 1.411 . S
C902 C900 1.403 1_655 S
C902 C903 1.489 . S
C902 C916 1.411 . S
C903 C902 1.489 . S
C903 C904 1.383 1_655 S
C903 C908 1.382 . S
C904 H881 0.950 . S
C904 C903 1.383 1_455 S
C904 C905 1.395 . S
C905 H882 0.950 . S
C905 C904 1.395 . S
C905 C906 1.288 1_455 S
C906 C905 1.288 1_655 S
C906 C907 1.392 . S
C907 H883 0.951 . S
C907 C906 1.392 . S
C907 C908 1.392 . S
C908 H884 0.949 . S
C908 C903 1.382 . S
C908 C907 1.392 . S
C909 C910 1.376 . S
C909 C914 1.386 1_655 S
C909 C915 1.483 . S
C910 H885 0.949 . S
C910 C909 1.376 . S
C910 C911 1.397 . S
C911 H886 0.950 . S
C911 C910 1.397 . S
C911 C912 1.391 . S
C912 C911 1.391 . S
C912 C913 1.405 1_655 S
C913 H887 0.950 . S
C913 C912 1.405 1_455 S
C913 C914 1.367 . S
C914 H888 0.950 . S
C914 C909 1.386 1_455 S
C914 C913 1.367 . S
C915 C909 1.483 . S
C915 C916 1.382 . S
C915 C917 1.403 1_655 S
C916 H889 0.950 . S
C916 C902 1.411 . S
C916 C915 1.382 . S
C917 C901 1.411 . S
C917 C915 1.403 1_455 S
C917 C918 1.489 . S
C918 C917 1.489 . S
C918 C919 1.383 1_455 S
C918 C923 1.382 . S
C919 H890 0.950 . S
C919 C918 1.383 1_655 S
C919 C920 1.395 . S
C920 H891 0.950 . S
C920 C919 1.395 . S
C920 C921 1.288 1_655 S
C921 C920 1.288 1_455 S
C921 C922 1.392 . S
C922 H892 0.951 . S
C922 C921 1.392 . S
C922 C923 1.392 . S
C923 H893 0.949 . S
C923 C918 1.382 . S
C923 C922 1.392 . S
H924 C943 0.949 . S
H925 C944 0.950 . S
H926 C946 0.950 . S
H927 C947 0.950 . S
H928 C949 0.950 . S
H929 C952 0.950 . S
H930 C953 0.950 . S
H931 C955 0.951 . S
H932 C956 0.949 . S
H933 C958 0.949 . S
H934 C959 0.950 . S
H935 C961 0.950 . S
H936 C962 0.950 . S
H937 C964 0.950 . S
H938 C967 0.950 . S
H939 C968 0.950 . S
H940 C970 0.951 . S
H941 C971 0.949 . S
C942 C943 1.376 . S
C942 C947 1.386 . S
C942 C948 1.483 . S
C943 H924 0.949 . S
C943 C942 1.376 . S
C943 C944 1.397 . S
C944 H925 0.950 . S
C944 C943 1.397 . S
C944 C945 1.391 . S
C945 C944 1.391 . S
C945 C946 1.405 . S
C946 H926 0.950 . S
C946 C945 1.405 . S
C946 C947 1.367 . S
C947 H927 0.950 . S
C947 C942 1.386 . S
C947 C946 1.367 . S
C948 C942 1.483 . S
C948 C949 1.382 . S
C948 C950 1.403 . S
C949 H928 0.950 . S
C949 C948 1.382 . S
C949 C965 1.411 . S
C950 C948 1.403 . S
C950 C951 1.489 . S
C950 C964 1.411 . S
C951 C950 1.489 . S
C951 C952 1.383 . S
C951 C956 1.382 . S
C952 H929 0.950 . S
C952 C951 1.383 . S
C952 C953 1.395 . S
C953 H930 0.950 . S
C953 C952 1.395 . S
C953 C954 1.288 . S
C954 C953 1.288 . S
C954 C955 1.392 . S
C955 H931 0.951 . S
C955 C954 1.392 . S
C955 C956 1.392 . S
C956 H932 0.949 . S
C956 C951 1.382 . S
C956 C955 1.392 . S
C957 C958 1.376 . S
C957 C962 1.386 . S
C957 C963 1.483 . S
C958 H933 0.949 . S
C958 C957 1.376 . S
C958 C959 1.397 . S
C959 H934 0.950 . S
C959 C958 1.397 . S
C959 C960 1.391 . S
C960 C959 1.391 . S
C960 C961 1.405 . S
C961 H935 0.950 . S
C961 C960 1.405 . S
C961 C962 1.367 . S
C962 H936 0.950 . S
C962 C957 1.386 . S
C962 C961 1.367 . S
C963 C957 1.483 . S
C963 C964 1.382 . S
C963 C965 1.403 . S
C964 H937 0.950 . S
C964 C950 1.411 . S
C964 C963 1.382 . S
C965 C949 1.411 . S
C965 C963 1.403 . S
C965 C966 1.489 . S
C966 C965 1.489 . S
C966 C967 1.383 . S
C966 C971 1.382 . S
C967 H938 0.950 . S
C967 C966 1.383 . S
C967 C968 1.395 . S
C968 H939 0.950 . S
C968 C967 1.395 . S
C968 C969 1.288 . S
C969 C968 1.288 . S
C969 C970 1.392 . S
C970 H940 0.951 . S
C970 C969 1.392 . S
C970 C971 1.392 . S
C971 H941 0.949 . S
C971 C966 1.382 . S
C971 C970 1.392 . S
H972 C991 0.949 . S
H973 C992 0.950 . S
H974 C994 0.950 . S
H975 C995 0.950 . S
H976 C997 0.950 . S
H977 C1000 0.950 . S
H978 C1001 0.950 . S
H979 C1003 0.951 . S
H980 C1004 0.949 . S
H981 C1006 0.949 . S
H982 C1007 0.950 . S
H983 C1009 0.950 . S
H984 C1010 0.950 . S
H985 C1012 0.950 . S
H986 C1015 0.950 . S
H987 C1016 0.950 . S
H988 C1018 0.951 . S
H989 C1019 0.949 . S
C990 C991 1.376 . S
C990 C995 1.386 . S
C990 C996 1.483 . S
C991 H972 0.949 . S
C991 C990 1.376 . S
C991 C992 1.397 . S
C992 H973 0.950 . S
C992 C991 1.397 . S
C992 C993 1.391 . S
C993 C992 1.391 . S
C993 C994 1.405 . S
C994 H974 0.950 . S
C994 C993 1.405 . S
C994 C995 1.367 . S
C995 H975 0.950 . S
C995 C990 1.386 . S
C995 C994 1.367 . S
C996 C990 1.483 . S
C996 C997 1.382 . S
C996 C998 1.403 . S
C997 H976 0.950 . S
C997 C996 1.382 . S
C997 C1013 1.411 . S
C998 C996 1.403 . S
C998 C999 1.489 . S
C998 C1012 1.411 . S
C999 C998 1.489 . S
C999 C1000 1.383 . S
C999 C1004 1.382 . S
C1000 H977 0.950 . S
C1000 C999 1.383 . S
C1000 C1001 1.395 . S
C1001 H978 0.950 . S
C1001 C1000 1.395 . S
C1001 C1002 1.288 . S
C1002 C1001 1.288 . S
C1002 C1003 1.392 . S
C1003 H979 0.951 . S
C1003 C1002 1.392 . S
C1003 C1004 1.392 . S
C1004 H980 0.949 . S
C1004 C999 1.382 . S
C1004 C1003 1.392 . S
C1005 C1006 1.376 . S
C1005 C1010 1.386 . S
C1005 C1011 1.483 . S
C1006 H981 0.949 . S
C1006 C1005 1.376 . S
C1006 C1007 1.397 . S
C1007 H982 0.950 . S
C1007 C1006 1.397 . S
C1007 C1008 1.391 . S
C1008 C1007 1.391 . S
C1008 C1009 1.405 . S
C1009 H983 0.950 . S
C1009 C1008 1.405 . S
C1009 C1010 1.367 . S
C1010 H984 0.950 . S
C1010 C1005 1.386 . S
C1010 C1009 1.367 . S
C1011 C1005 1.483 . S
C1011 C1012 1.382 . S
C1011 C1013 1.403 . S
C1012 H985 0.950 . S
C1012 C998 1.411 . S
C1012 C1011 1.382 . S
C1013 C997 1.411 . S
C1013 C1011 1.403 . S
C1013 C1014 1.489 . S
C1014 C1013 1.489 . S
C1014 C1015 1.383 . S
C1014 C1019 1.382 . S
C1015 H986 0.950 . S
C1015 C1014 1.383 . S
C1015 C1016 1.395 . S
C1016 H987 0.950 . S
C1016 C1015 1.395 . S
C1016 C1017 1.288 . S
C1017 C1016 1.288 . S
C1017 C1018 1.392 . S
C1018 H988 0.951 . S
C1018 C1017 1.392 . S
C1018 C1019 1.392 . S
C1019 H989 0.949 . S
C1019 C1014 1.382 . S
C1019 C1018 1.392 . S
H1020 C1039 0.949 . S
H1021 C1040 0.950 . S
H1022 C1042 0.950 . S
H1023 C1043 0.950 . S
H1024 C1045 0.950 . S
H1025 C1048 0.950 . S
H1026 C1049 0.950 . S
H1027 C1051 0.951 . S
H1028 C1052 0.949 . S
H1029 C1054 0.949 . S
H1030 C1055 0.950 . S
H1031 C1057 0.950 . S
H1032 C1058 0.950 . S
H1033 C1060 0.950 . S
H1034 C1063 0.950 . S
H1035 C1064 0.950 . S
H1036 C1066 0.951 . S
H1037 C1067 0.949 . S
C1038 C1039 1.376 . S
C1038 C1043 1.386 . S
C1038 C1044 1.483 . S
C1039 H1020 0.949 . S
C1039 C1038 1.376 . S
C1039 C1040 1.397 . S
C1040 H1021 0.950 . S
C1040 C1039 1.397 . S
C1040 C1041 1.391 . S
C1041 C1040 1.391 . S
C1041 C1042 1.405 . S
C1042 H1022 0.950 . S
C1042 C1041 1.405 . S
C1042 C1043 1.367 . S
C1043 H1023 0.950 . S
C1043 C1038 1.386 . S
C1043 C1042 1.367 . S
C1044 C1038 1.483 . S
C1044 C1045 1.382 . S
C1044 C1046 1.403 . S
C1045 H1024 0.950 . S
C1045 C1044 1.382 . S
C1045 C1061 1.411 . S
C1046 C1044 1.403 . S
C1046 C1047 1.489 . S
C1046 C1060 1.411 . S
C1047 C1046 1.489 . S
C1047 C1048 1.383 . S
C1047 C1052 1.382 . S
C1048 H1025 0.950 . S
C1048 C1047 1.383 . S
C1048 C1049 1.395 . S
C1049 H1026 0.950 . S
C1049 C1048 1.395 . S
C1049 C1050 1.288 . S
C1050 C1049 1.288 . S
C1050 C1051 1.392 . S
C1051 H1027 0.951 . S
C1051 C1050 1.392 . S
C1051 C1052 1.392 . S
C1052 H1028 0.949 . S
C1052 C1047 1.382 . S
C1052 C1051 1.392 . S
C1053 C1054 1.376 . S
C1053 C1058 1.386 . S
C1053 C1059 1.483 . S
C1054 H1029 0.949 . S
C1054 C1053 1.376 . S
C1054 C1055 1.397 . S
C1055 H1030 0.950 . S
C1055 C1054 1.397 . S
C1055 C1056 1.391 . S
C1056 C1055 1.391 . S
C1056 C1057 1.405 . S
C1057 H1031 0.950 . S
C1057 C1056 1.405 . S
C1057 C1058 1.367 . S
C1058 H1032 0.950 . S
C1058 C1053 1.386 . S
C1058 C1057 1.367 . S
C1059 C1053 1.483 . S
C1059 C1060 1.382 . S
C1059 C1061 1.403 . S
C1060 H1033 0.950 . S
C1060 C1046 1.411 . S
C1060 C1059 1.382 . S
C1061 C1045 1.411 . S
C1061 C1059 1.403 . S
C1061 C1062 1.489 . S
C1062 C1061 1.489 . S
C1062 C1063 1.383 . S
C1062 C1067 1.382 . S
C1063 H1034 0.950 . S
C1063 C1062 1.383 . S
C1063 C1064 1.395 . S
C1064 H1035 0.950 . S
C1064 C1063 1.395 . S
C1064 C1065 1.288 . S
C1065 C1064 1.288 . S
C1065 C1066 1.392 . S
C1066 H1036 0.951 . S
C1066 C1065 1.392 . S
C1066 C1067 1.392 . S
C1067 H1037 0.949 . S
C1067 C1062 1.382 . S
C1067 C1066 1.392 . S
H1068 C1087 0.949 . S
H1069 C1088 0.950 . S
H1070 C1090 0.950 . S
H1071 C1091 0.950 . S
H1072 C1093 0.950 . S
H1073 C1096 0.950 . S
H1074 C1097 0.950 . S
H1075 C1099 0.951 . S
H1076 C1100 0.949 . S
H1077 C1102 0.949 . S
H1078 C1103 0.950 . S
H1079 C1105 0.950 . S
H1080 C1106 0.950 . S
H1081 C1108 0.950 . S
H1082 C1111 0.950 . S
H1083 C1112 0.950 . S
H1084 C1114 0.951 . S
H1085 C1115 0.949 . S
C1086 C1087 1.376 . S
C1086 C1091 1.386 . S
C1086 C1092 1.483 . S
C1087 H1068 0.949 . S
C1087 C1086 1.376 . S
C1087 C1088 1.397 . S
C1088 H1069 0.950 . S
C1088 C1087 1.397 . S
C1088 C1089 1.391 . S
C1089 C1088 1.391 . S
C1089 C1090 1.405 . S
C1090 H1070 0.950 . S
C1090 C1089 1.405 . S
C1090 C1091 1.367 . S
C1091 H1071 0.950 . S
C1091 C1086 1.386 . S
C1091 C1090 1.367 . S
C1092 C1086 1.483 . S
C1092 C1093 1.382 . S
C1092 C1094 1.403 . S
C1093 H1072 0.950 . S
C1093 C1092 1.382 . S
C1093 C1109 1.411 . S
C1094 C1092 1.403 . S
C1094 C1095 1.489 . S
C1094 C1108 1.411 . S
C1095 C1094 1.489 . S
C1095 C1096 1.383 . S
C1095 C1100 1.382 . S
C1096 H1073 0.950 . S
C1096 C1095 1.383 . S
C1096 C1097 1.395 . S
C1097 H1074 0.950 . S
C1097 C1096 1.395 . S
C1097 C1098 1.288 . S
C1098 C1097 1.288 . S
C1098 C1099 1.392 . S
C1099 H1075 0.951 . S
C1099 C1098 1.392 . S
C1099 C1100 1.392 . S
C1100 H1076 0.949 . S
C1100 C1095 1.382 . S
C1100 C1099 1.392 . S
C1101 C1102 1.376 . S
C1101 C1106 1.386 . S
C1101 C1107 1.483 . S
C1102 H1077 0.949 . S
C1102 C1101 1.376 . S
C1102 C1103 1.397 . S
C1103 H1078 0.950 . S
C1103 C1102 1.397 . S
C1103 C1104 1.391 . S
C1104 C1103 1.391 . S
C1104 C1105 1.405 . S
C1105 H1079 0.950 . S
C1105 C1104 1.405 . S
C1105 C1106 1.367 . S
C1106 H1080 0.950 . S
C1106 C1101 1.386 . S
C1106 C1105 1.367 . S
C1107 C1101 1.483 . S
C1107 C1108 1.382 . S
C1107 C1109 1.403 . S
C1108 H1081 0.950 . S
C1108 C1094 1.411 . S
C1108 C1107 1.382 . S
C1109 C1093 1.411 . S
C1109 C1107 1.403 . S
C1109 C1110 1.489 . S
C1110 C1109 1.489 . S
C1110 C1111 1.383 . S
C1110 C1115 1.382 . S
C1111 H1082 0.950 . S
C1111 C1110 1.383 . S
C1111 C1112 1.395 . S
C1112 H1083 0.950 . S
C1112 C1111 1.395 . S
C1112 C1113 1.288 . S
C1113 C1112 1.288 . S
C1113 C1114 1.392 . S
C1114 H1084 0.951 . S
C1114 C1113 1.392 . S
C1114 C1115 1.392 . S
C1115 H1085 0.949 . S
C1115 C1110 1.382 . S
C1115 C1114 1.392 . S
H1116 C1134 0.951 . S
H1117 C1136 0.951 . S
H1118 C1138 0.950 . S
H1119 C1139 0.950 . S
H1120 C1141 0.950 . S
H1121 C1144 0.950 . S
H1122 C1145 0.950 . S
H1123 C1147 0.950 . S
H1124 C1148 0.950 . S
H1125 C1149 0.951 . S
H1126 C1151 0.951 . S
H1127 C1153 0.950 . S
H1128 C1154 0.950 . S
H1129 C1156 0.950 . S
H1130 C1159 0.950 . S
H1131 C1160 0.950 . S
H1132 C1162 0.985 . S
H1133 C1163 0.950 . S
C1134 H1116 0.951 . S
C1134 C1135 1.415 . S
C1134 C1136 1.388 . S
C1135 C1134 1.415 . S
C1135 C1139 1.356 1_655 S
C1136 H1117 0.951 . S
C1136 C1134 1.388 . S
C1136 C1137 1.383 . S
C1137 C1136 1.383 . S
C1137 C1138 1.385 1_655 S
C1137 C1140 1.505 . S
C1138 H1118 0.950 . S
C1138 C1137 1.385 1_455 S
C1138 C1139 1.374 . S
C1139 H1119 0.950 . S
C1139 C1135 1.356 1_455 S
C1139 C1138 1.374 . S
C1140 C1137 1.505 . S
C1140 C1141 1.373 . S
C1140 C1142 1.401 . S
C1141 H1120 0.950 . S
C1141 C1140 1.373 . S
C1141 C1157 1.377 . S
C1142 C1140 1.401 . S
C1142 C1143 1.524 1_655 S
C1142 C1156 1.373 . S
C1143 C1142 1.524 1_455 S
C1143 C1144 1.397 . S
C1143 C1148 1.363 1_455 S
C1144 H1121 0.950 . S
C1144 C1143 1.397 . S
C1144 C1145 1.334 . S
C1145 H1122 0.950 . S
C1145 C1144 1.334 . S
C1145 C1146 1.287 . S
C1146 C1145 1.287 . S
C1146 C1147 1.524 1_455 S
C1146 H1165 0.913 . S
C1147 H1123 0.950 . S
C1147 C1146 1.524 1_655 S
C1147 C1148 1.415 . S
C1148 H1124 0.950 . S
C1148 C1143 1.363 1_655 S
C1148 C1147 1.415 . S
C1149 H1125 0.951 . S
C1149 C1150 1.366 1_455 S
C1149 C1151 1.388 . S
C1150 C1149 1.366 1_655 S
C1150 C1154 1.385 . S
C1151 H1126 0.951 . S
C1151 C1149 1.388 . S
C1151 C1152 1.366 1_455 S
C1152 C1151 1.366 1_655 S
C1152 C1153 1.414 . S
C1152 C1155 1.499 . S
C1153 H1127 0.950 . S
C1153 C1152 1.414 . S
C1153 C1154 1.374 . S
C1154 H1128 0.950 . S
C1154 C1150 1.385 . S
C1154 C1153 1.374 . S
C1155 C1152 1.499 . S
C1155 C1156 1.373 . S
C1155 C1157 1.389 . S
C1156 H1129 0.950 . S
C1156 C1142 1.373 . S
C1156 C1155 1.373 . S
C1157 C1141 1.377 . S
C1157 C1155 1.389 . S
C1157 C1158 1.524 . S
C1158 C1157 1.524 . S
C1158 C1159 1.397 . S
C1158 C1163 1.363 1_655 S
C1159 H1130 0.950 . S
C1159 C1158 1.397 . S
C1159 C1160 1.334 . S
C1160 H1131 0.950 . S
C1160 C1159 1.334 . S
C1160 C1161 1.287 . S
C1161 C1160 1.287 . S
C1161 C1162 1.484 1_655 S
C1161 H1164 0.999 . S
C1162 H1132 0.985 . S
C1162 C1161 1.484 1_455 S
C1162 C1163 1.415 . S
C1163 H1133 0.950 . S
C1163 C1158 1.363 1_455 S
C1163 C1162 1.415 . S
H1164 C1161 0.999 . S
H1165 C1146 0.913 . S
H1166 C1184 0.951 . S
H1167 C1186 0.951 . S
H1168 C1188 0.950 . S
H1169 C1189 0.950 . S
H1170 C1191 0.950 . S
H1171 C1194 0.950 . S
H1172 C1195 0.950 . S
H1173 C1197 0.950 . S
H1174 C1198 0.950 . S
H1175 C1199 0.951 . S
H1176 C1201 0.951 . S
H1177 C1203 0.950 . S
H1178 C1204 0.950 . S
H1179 C1206 0.950 . S
H1180 C1209 0.950 . S
H1181 C1210 0.950 . S
H1182 C1212 0.950 . S
H1183 C1213 0.950 . S
C1184 H1166 0.951 . S
C1184 C1185 1.366 . S
C1184 C1186 1.388 . S
C1185 C1184 1.366 . S
C1185 C1189 1.385 . S
C1186 H1167 0.951 . S
C1186 C1184 1.388 . S
C1186 C1187 1.366 . S
C1187 C1186 1.366 . S
C1187 C1188 1.414 . S
C1187 C1190 1.499 . S
C1188 H1168 0.950 . S
C1188 C1187 1.414 . S
C1188 C1189 1.374 . S
C1189 H1169 0.950 . S
C1189 C1185 1.385 . S
C1189 C1188 1.374 . S
C1190 C1187 1.499 . S
C1190 C1191 1.373 . S
C1190 C1192 1.389 . S
C1191 H1170 0.950 . S
C1191 C1190 1.373 . S
C1191 C1207 1.377 . S
C1192 C1190 1.389 . S
C1192 C1193 1.524 . S
C1192 C1206 1.377 . S
C1193 C1192 1.524 . S
C1193 C1194 1.397 . S
C1193 C1198 1.363 . S
C1194 H1171 0.950 . S
C1194 C1193 1.397 . S
C1194 C1195 1.334 . S
C1195 H1172 0.950 . S
C1195 C1194 1.334 . S
C1195 C1196 1.287 . S
C1196 C1195 1.287 . S
C1196 C1197 1.524 . S
C1196 H1215 0.913 . S
C1197 H1173 0.950 . S
C1197 C1196 1.524 . S
C1197 C1198 1.415 . S
C1198 H1174 0.950 . S
C1198 C1193 1.363 . S
C1198 C1197 1.415 . S
C1199 H1175 0.951 . S
C1199 C1200 1.366 . S
C1199 C1201 1.388 . S
C1200 C1199 1.366 . S
C1200 C1204 1.385 . S
C1201 H1176 0.951 . S
C1201 C1199 1.388 . S
C1201 C1202 1.366 . S
C1202 C1201 1.366 . S
C1202 C1203 1.414 . S
C1202 C1205 1.499 . S
C1203 H1177 0.950 . S
C1203 C1202 1.414 . S
C1203 C1204 1.374 . S
C1204 H1178 0.950 . S
C1204 C1200 1.385 . S
C1204 C1203 1.374 . S
C1205 C1202 1.499 . S
C1205 C1206 1.373 . S
C1205 C1207 1.389 . S
C1206 H1179 0.950 . S
C1206 C1192 1.377 . S
C1206 C1205 1.373 . S
C1207 C1191 1.377 . S
C1207 C1205 1.389 . S
C1207 C1208 1.524 . S
C1208 C1207 1.524 . S
C1208 C1209 1.397 . S
C1208 C1213 1.363 . S
C1209 H1180 0.950 . S
C1209 C1208 1.397 . S
C1209 C1210 1.334 . S
C1210 H1181 0.950 . S
C1210 C1209 1.334 . S
C1210 C1211 1.287 . S
C1211 C1210 1.287 . S
C1211 C1212 1.524 . S
C1211 H1214 0.999 . S
C1212 H1182 0.950 . S
C1212 C1211 1.524 . S
C1212 C1213 1.415 . S
C1213 H1183 0.950 . S
C1213 C1208 1.363 . S
C1213 C1212 1.415 . S
H1214 C1211 0.999 . S
H1215 C1196 0.913 . S
H1216 C1234 0.951 . S
H1217 C1236 0.951 . S
H1218 C1238 0.950 . S
H1219 C1239 0.950 . S
H1220 C1241 0.950 . S
H1221 C1244 0.950 . S
H1222 C1245 0.950 . S
H1223 C1247 0.950 . S
H1224 C1248 0.950 . S
H1225 C1249 0.948 1_565 S
H1226 C1251 0.934 . S
H1227 C1253 0.950 . S
H1228 C1254 0.950 . S
H1229 C1256 0.950 . S
H1230 C1259 0.950 . S
H1231 C1260 0.950 . S
H1232 C1262 0.950 . S
H1233 C1263 0.950 . S
C1234 H1216 0.951 . S
C1234 C1235 1.366 . S
C1234 C1236 1.388 . S
C1235 C1234 1.366 . S
C1235 C1239 1.385 . S
C1236 H1217 0.951 . S
C1236 C1234 1.388 . S
C1236 C1237 1.366 . S
C1237 C1236 1.366 . S
C1237 C1238 1.414 . S
C1237 C1240 1.499 . S
C1238 H1218 0.950 . S
C1238 C1237 1.414 . S
C1238 C1239 1.374 . S
C1239 H1219 0.950 . S
C1239 C1235 1.385 . S
C1239 C1238 1.374 . S
C1240 C1237 1.499 . S
C1240 C1241 1.373 . S
C1240 C1242 1.389 1_545 S
C1241 H1220 0.950 . S
C1241 C1240 1.373 . S
C1241 C1257 1.377 . S
C1242 C1240 1.389 1_565 S
C1242 C1243 1.524 . S
C1242 C1256 1.377 . S
C1243 C1242 1.524 . S
C1243 C1244 1.397 . S
C1243 C1248 1.363 . S
C1244 H1221 0.950 . S
C1244 C1243 1.397 . S
C1244 C1245 1.334 . S
C1245 H1222 0.950 . S
C1245 C1244 1.334 . S
C1245 C1246 1.287 . S
C1246 C1245 1.287 . S
C1246 C1247 1.524 . S
C1246 H1265 0.913 . S
C1247 H1223 0.950 . S
C1247 C1246 1.524 . S
C1247 C1248 1.415 . S
C1248 H1224 0.950 . S
C1248 C1243 1.363 . S
C1248 C1247 1.415 . S
C1249 H1225 0.948 1_545 S
C1249 C1250 1.366 . S
C1249 C1251 1.388 . S
C1250 C1249 1.366 . S
C1250 C1254 1.385 . S
C1251 H1226 0.934 . S
C1251 C1249 1.388 . S
C1251 C1252 1.366 . S
C1252 C1251 1.366 . S
C1252 C1253 1.414 . S
C1252 C1255 1.499 . S
C1253 H1227 0.950 . S
C1253 C1252 1.414 . S
C1253 C1254 1.374 . S
C1254 H1228 0.950 . S
C1254 C1250 1.385 . S
C1254 C1253 1.374 . S
C1255 C1252 1.499 . S
C1255 C1256 1.373 1_545 S
C1255 C1257 1.389 . S
C1256 H1229 0.950 . S
C1256 C1242 1.377 . S
C1256 C1255 1.373 1_565 S
C1257 C1241 1.377 . S
C1257 C1255 1.389 . S
C1257 C1258 1.524 . S
C1258 C1257 1.524 . S
C1258 C1259 1.397 . S
C1258 C1263 1.363 . S
C1259 H1230 0.950 . S
C1259 C1258 1.397 . S
C1259 C1260 1.334 . S
C1260 H1231 0.950 . S
C1260 C1259 1.334 . S
C1260 C1261 1.287 . S
C1261 C1260 1.287 . S
C1261 C1262 1.524 . S
C1261 H1264 0.999 . S
C1262 H1232 0.950 . S
C1262 C1261 1.524 . S
C1262 C1263 1.415 . S
C1263 H1233 0.950 . S
C1263 C1258 1.363 . S
C1263 C1262 1.415 . S
H1264 C1261 0.999 . S
H1265 C1246 0.913 . S
H1266 C1284 0.951 . S
H1267 C1286 0.951 . S
H1268 C1288 0.950 . S
H1269 C1289 0.950 . S
H1270 C1291 0.950 . S
H1271 C1294 0.950 . S
H1272 C1295 0.950 . S
H1273 C1297 0.950 . S
H1274 C1298 0.950 . S
H1275 C1299 0.951 . S
H1276 C1301 0.951 . S
H1277 C1303 0.950 . S
H1278 C1304 0.950 . S
H1279 C1306 0.950 . S
H1280 C1309 0.950 . S
H1281 C1310 0.950 . S
H1282 C1312 0.950 . S
H1283 C1313 0.950 . S
C1284 H1266 0.951 . S
C1284 C1285 1.386 . S
C1284 C1286 1.388 . S
C1285 C1284 1.386 . S
C1285 C1289 1.351 1_545 S
C1286 H1267 0.951 . S
C1286 C1284 1.388 . S
C1286 C1287 1.322 1_545 S
C1287 C1286 1.322 1_565 S
C1287 C1288 1.440 . S
C1287 C1290 1.518 . S
C1288 H1268 0.950 . S
C1288 C1287 1.440 . S
C1288 C1289 1.374 . S
C1289 H1269 0.950 . S
C1289 C1285 1.351 1_565 S
C1289 C1288 1.374 . S
C1290 C1287 1.518 . S
C1290 C1291 1.373 . S
C1290 C1292 1.389 1_565 S
C1291 H1270 0.950 . S
C1291 C1290 1.373 . S
C1291 C1307 1.377 . S
C1292 C1290 1.389 1_545 S
C1292 C1293 1.524 . S
C1292 C1306 1.377 . S
C1293 C1292 1.524 . S
C1293 C1294 1.397 1_545 S
C1293 C1298 1.363 . S
C1294 H1271 0.950 . S
C1294 C1293 1.397 1_565 S
C1294 C1295 1.334 . S
C1295 H1272 0.950 . S
C1295 C1294 1.334 . S
C1295 C1296 1.287 1_565 S
C1296 C1295 1.287 1_545 S
C1296 C1297 1.524 . S
C1296 H1315 0.913 . S
C1297 H1273 0.950 . S
C1297 C1296 1.524 . S
C1297 C1298 1.415 . S
C1298 H1274 0.950 . S
C1298 C1293 1.363 . S
C1298 C1297 1.415 . S
C1299 H1275 0.951 . S
C1299 C1300 1.366 . S
C1299 C1301 1.388 . S
C1300 C1299 1.366 . S
C1300 C1304 1.385 1_565 S
C1301 H1276 0.951 . S
C1301 C1299 1.388 . S
C1301 C1302 1.457 . S
C1302 C1301 1.457 . S
C1302 C1303 1.362 1_565 S
C1302 C1305 1.467 . S
C1303 H1277 0.950 . S
C1303 C1302 1.362 1_545 S
C1303 C1304 1.374 . S
C1304 H1278 0.950 . S
C1304 C1300 1.385 1_545 S
C1304 C1303 1.374 . S
C1305 C1302 1.467 . S
C1305 C1306 1.364 1_565 S
C1305 C1307 1.393 . S
C1306 H1279 0.950 . S
C1306 C1292 1.377 . S
C1306 C1305 1.364 1_545 S
C1307 C1291 1.377 . S
C1307 C1305 1.393 . S
C1307 C1308 1.524 . S
C1308 C1307 1.524 . S
C1308 C1309 1.397 1_565 S
C1308 C1313 1.363 . S
C1309 H1280 0.950 . S
C1309 C1308 1.397 1_545 S
C1309 C1310 1.334 . S
C1310 H1281 0.950 . S
C1310 C1309 1.334 . S
C1310 C1311 1.287 1_545 S
C1311 C1310 1.287 1_565 S
C1311 C1312 1.524 . S
C1311 H1314 0.999 . S
C1312 H1282 0.950 . S
C1312 C1311 1.524 . S
C1312 C1313 1.415 . S
C1313 H1283 0.950 . S
C1313 C1308 1.363 . S
C1313 C1312 1.415 . S
H1314 C1311 0.999 . S
H1315 C1296 0.913 . S
H1316 C1334 0.951 . S
H1317 C1336 0.951 . S
H1318 C1338 0.950 . S
H1319 C1339 0.950 . S
H1320 C1341 0.950 . S
H1321 C1344 0.950 . S
H1322 C1345 0.950 . S
H1323 C1347 0.950 . S
H1324 C1348 0.950 . S
H1325 C1349 0.951 . S
H1326 C1351 0.951 . S
H1327 C1353 0.950 . S
H1328 C1354 0.950 . S
H1329 C1356 0.950 . S
H1330 C1359 0.950 . S
H1331 C1360 0.950 . S
H1332 C1362 0.950 . S
H1333 C1363 0.950 . S
C1334 H1316 0.951 . S
C1334 C1335 1.366 . S
C1334 C1336 1.388 . S
C1335 C1334 1.366 . S
C1335 C1339 1.385 1_455 S
C1336 H1317 0.951 . S
C1336 C1334 1.388 . S
C1336 C1337 1.366 . S
C1337 C1336 1.366 . S
C1337 C1338 1.414 1_455 S
C1337 C1340 1.499 . S
C1338 H1318 0.950 . S
C1338 C1337 1.414 1_655 S
C1338 C1339 1.374 . S
C1339 H1319 0.950 . S
C1339 C1335 1.385 1_655 S
C1339 C1338 1.374 . S
C1340 C1337 1.499 . S
C1340 C1341 1.373 1_455 S
C1340 C1342 1.389 . S
C1341 H1320 0.950 . S
C1341 C1340 1.373 1_655 S
C1341 C1357 1.377 . S
C1342 C1340 1.389 . S
C1342 C1343 1.524 . S
C1342 C1356 1.377 . S
C1343 C1342 1.524 . S
C1343 C1344 1.397 . S
C1343 C1348 1.363 . S
C1344 H1321 0.950 . S
C1344 C1343 1.397 . S
C1344 C1345 1.334 . S
C1345 H1322 0.950 . S
C1345 C1344 1.334 . S
C1345 C1346 1.287 . S
C1346 C1345 1.287 . S
C1346 C1347 1.524 . S
C1346 H1365 0.913 . S
C1347 H1323 0.950 . S
C1347 C1346 1.524 . S
C1347 C1348 1.415 . S
C1348 H1324 0.950 . S
C1348 C1343 1.363 . S
C1348 C1347 1.415 . S
C1349 H1325 0.951 . S
C1349 C1350 1.366 1_655 S
C1349 C1351 1.388 . S
C1350 C1349 1.366 1_455 S
C1350 C1354 1.385 . S
C1351 H1326 0.951 . S
C1351 C1349 1.388 . S
C1351 C1352 1.366 1_655 S
C1352 C1351 1.366 1_455 S
C1352 C1353 1.414 . S
C1352 C1355 1.499 . S
C1353 H1327 0.950 . S
C1353 C1352 1.414 . S
C1353 C1354 1.374 . S
C1354 H1328 0.950 . S
C1354 C1350 1.385 . S
C1354 C1353 1.374 . S
C1355 C1352 1.499 . S
C1355 C1356 1.373 . S
C1355 C1357 1.389 1_455 S
C1356 H1329 0.950 . S
C1356 C1342 1.377 . S
C1356 C1355 1.373 . S
C1357 C1341 1.377 . S
C1357 C1355 1.389 1_655 S
C1357 C1358 1.524 . S
C1358 C1357 1.524 . S
C1358 C1359 1.397 . S
C1358 C1363 1.363 . S
C1359 H1330 0.950 . S
C1359 C1358 1.397 . S
C1359 C1360 1.334 . S
C1360 H1331 0.950 . S
C1360 C1359 1.334 . S
C1360 C1361 1.287 . S
C1361 C1360 1.287 . S
C1361 C1362 1.524 . S
C1361 H1364 0.999 . S
C1362 H1332 0.950 . S
C1362 C1361 1.524 . S
C1362 C1363 1.415 . S
C1363 H1333 0.950 . S
C1363 C1358 1.363 . S
C1363 C1362 1.415 . S
H1364 C1361 0.999 . S
H1365 C1346 0.913 . S
H1366 C1384 0.951 . S
H1367 C1386 0.951 . S
H1368 C1388 0.950 . S
H1369 C1389 0.950 . S
H1370 C1391 0.950 . S
H1371 C1394 0.950 . S
H1372 C1395 0.950 . S
H1373 C1397 0.950 . S
H1374 C1398 0.950 . S
H1375 C1399 0.951 . S
H1376 C1401 0.951 . S
H1377 C1403 0.950 . S
H1378 C1404 0.950 . S
H1379 C1406 0.950 . S
H1380 C1409 0.950 . S
H1381 C1410 0.950 . S
H1382 C1412 0.950 . S
H1383 C1413 0.950 . S
C1384 H1366 0.951 . S
C1384 C1385 1.366 . S
C1384 C1386 1.388 . S
C1385 C1384 1.366 . S
C1385 C1389 1.385 . S
C1386 H1367 0.951 . S
C1386 C1384 1.388 . S
C1386 C1387 1.366 . S
C1387 C1386 1.366 . S
C1387 C1388 1.414 . S
C1387 C1390 1.499 . S
C1388 H1368 0.950 . S
C1388 C1387 1.414 . S
C1388 C1389 1.374 . S
C1389 H1369 0.950 . S
C1389 C1385 1.385 . S
C1389 C1388 1.374 . S
C1390 C1387 1.499 . S
C1390 C1391 1.373 . S
C1390 C1392 1.389 . S
C1391 H1370 0.950 . S
C1391 C1390 1.373 . S
C1391 C1407 1.377 . S
C1392 C1390 1.389 . S
C1392 C1393 1.524 . S
C1392 C1406 1.377 . S
C1393 C1392 1.524 . S
C1393 C1394 1.397 . S
C1393 C1398 1.363 . S
C1394 H1371 0.950 . S
C1394 C1393 1.397 . S
C1394 C1395 1.334 . S
C1395 H1372 0.950 . S
C1395 C1394 1.334 . S
C1395 C1396 1.287 . S
C1396 C1395 1.287 . S
C1396 C1397 1.524 . S
C1396 H1415 0.913 . S
C1397 H1373 0.950 . S
C1397 C1396 1.524 . S
C1397 C1398 1.415 . S
C1398 H1374 0.950 . S
C1398 C1393 1.363 . S
C1398 C1397 1.415 . S
C1399 H1375 0.951 . S
C1399 C1400 1.366 . S
C1399 C1401 1.388 . S
C1400 C1399 1.366 . S
C1400 C1404 1.385 . S
C1401 H1376 0.951 . S
C1401 C1399 1.388 . S
C1401 C1402 1.366 . S
C1402 C1401 1.366 . S
C1402 C1403 1.414 . S
C1402 C1405 1.499 . S
C1403 H1377 0.950 . S
C1403 C1402 1.414 . S
C1403 C1404 1.374 . S
C1404 H1378 0.950 . S
C1404 C1400 1.385 . S
C1404 C1403 1.374 . S
C1405 C1402 1.499 . S
C1405 C1406 1.373 . S
C1405 C1407 1.389 . S
C1406 H1379 0.950 . S
C1406 C1392 1.377 . S
C1406 C1405 1.373 . S
C1407 C1391 1.377 . S
C1407 C1405 1.389 . S
C1407 C1408 1.524 . S
C1408 C1407 1.524 . S
C1408 C1409 1.397 . S
C1408 C1413 1.363 . S
C1409 H1380 0.950 . S
C1409 C1408 1.397 . S
C1409 C1410 1.334 . S
C1410 H1381 0.950 . S
C1410 C1409 1.334 . S
C1410 C1411 1.287 . S
C1411 C1410 1.287 . S
C1411 C1412 1.524 . S
C1411 H1414 0.999 . S
C1412 H1382 0.950 . S
C1412 C1411 1.524 . S
C1412 C1413 1.415 . S
C1413 H1383 0.950 . S
C1413 C1408 1.363 . S
C1413 C1412 1.415 . S
H1414 C1411 0.999 . S
H1415 C1396 0.913 . S
H1416 C1434 0.951 . S
H1417 C1436 0.951 . S
H1418 C1438 0.992 . S
H1419 C1439 1.007 . S
H1420 C1441 0.950 . S
H1421 C1444 0.950 . S
H1422 C1445 0.950 . S
H1423 C1447 0.950 . S
H1424 C1448 0.950 . S
H1425 C1449 0.951 . S
H1426 C1451 0.951 . S
H1427 C1453 0.950 . S
H1428 C1454 0.950 . S
H1429 C1456 0.950 . S
H1430 C1459 0.950 . S
H1431 C1460 0.950 . S
H1432 C1462 0.950 . S
H1433 C1463 0.950 . S
C1434 H1416 0.951 . S
C1434 C1435 1.366 . S
C1434 C1436 1.388 . S
C1435 C1434 1.366 . S
C1435 C1439 1.357 1_455 S
C1436 H1417 0.951 . S
C1436 C1434 1.388 . S
C1436 C1437 1.366 . S
C1437 C1436 1.366 . S
C1437 C1438 1.345 1_455 S
C1437 C1440 1.499 . S
C1438 H1418 0.992 . S
C1438 C1437 1.345 1_655 S
C1438 C1439 1.380 . S
C1439 H1419 1.007 . S
C1439 C1435 1.357 1_655 S
C1439 C1438 1.380 . S
C1440 C1437 1.499 . S
C1440 C1441 1.373 1_455 S
C1440 C1442 1.389 . S
C1441 H1420 0.950 . S
C1441 C1440 1.373 1_655 S
C1441 C1457 1.377 . S
C1442 C1440 1.389 . S
C1442 C1443 1.524 . S
C1442 C1456 1.377 . S
C1443 C1442 1.524 . S
C1443 C1444 1.397 . S
C1443 C1448 1.363 . S
C1444 H1421 0.950 . S
C1444 C1443 1.397 . S
C1444 C1445 1.334 . S
C1445 H1422 0.950 . S
C1445 C1444 1.334 . S
C1445 C1446 1.287 . S
C1446 C1445 1.287 . S
C1446 C1447 1.524 . S
C1446 H1465 0.913 . S
C1447 H1423 0.950 . S
C1447 C1446 1.524 . S
C1447 C1448 1.415 . S
C1448 H1424 0.950 . S
C1448 C1443 1.363 . S
C1448 C1447 1.415 . S
C1449 H1425 0.951 . S
C1449 C1450 1.366 1_655 S
C1449 C1451 1.388 . S
C1450 C1449 1.366 1_455 S
C1450 C1454 1.385 . S
C1451 H1426 0.951 . S
C1451 C1449 1.388 . S
C1451 C1452 1.366 1_655 S
C1452 C1451 1.366 1_455 S
C1452 C1453 1.414 . S
C1452 C1455 1.499 . S
C1453 H1427 0.950 . S
C1453 C1452 1.414 . S
C1453 C1454 1.374 . S
C1454 H1428 0.950 . S
C1454 C1450 1.385 . S
C1454 C1453 1.374 . S
C1455 C1452 1.499 . S
C1455 C1456 1.373 . S
C1455 C1457 1.389 1_455 S
C1456 H1429 0.950 . S
C1456 C1442 1.377 . S
C1456 C1455 1.373 . S
C1457 C1441 1.377 . S
C1457 C1455 1.389 1_655 S
C1457 C1458 1.524 . S
C1458 C1457 1.524 . S
C1458 C1459 1.397 . S
C1458 C1463 1.363 . S
C1459 H1430 0.950 . S
C1459 C1458 1.397 . S
C1459 C1460 1.334 . S
C1460 H1431 0.950 . S
C1460 C1459 1.334 . S
C1460 C1461 1.287 . S
C1461 C1460 1.287 . S
C1461 C1462 1.524 . S
C1461 H1464 0.999 . S
C1462 H1432 0.950 . S
C1462 C1461 1.524 . S
C1462 C1463 1.415 . S
C1463 H1433 0.950 . S
C1463 C1458 1.363 . S
C1463 C1462 1.415 . S
H1464 C1461 0.999 . S
H1465 C1446 0.913 . S
H1466 C1484 0.951 . S
H1467 C1486 0.951 . S
H1468 C1488 0.950 . S
H1469 C1489 0.950 . S
H1470 C1491 0.950 . S
H1471 C1494 0.950 . S
H1472 C1495 0.950 . S
H1473 C1497 0.950 . S
H1474 C1498 0.950 . S
H1475 C1499 0.951 . S
H1476 C1501 0.951 . S
H1477 C1503 0.950 . S
H1478 C1504 0.950 . S
H1479 C1506 0.950 . S
H1480 C1509 0.950 . S
H1481 C1510 0.950 . S
H1482 C1512 0.950 . S
H1483 C1513 0.950 . S
C1484 H1466 0.951 . S
C1484 C1485 1.366 . S
C1484 C1486 1.388 . S
C1485 C1484 1.366 . S
C1485 C1489 1.385 . S
C1486 H1467 0.951 . S
C1486 C1484 1.388 . S
C1486 C1487 1.366 . S
C1487 C1486 1.366 . S
C1487 C1488 1.414 . S
C1487 C1490 1.499 . S
C1488 H1468 0.950 . S
C1488 C1487 1.414 . S
C1488 C1489 1.374 . S
C1489 H1469 0.950 . S
C1489 C1485 1.385 . S
C1489 C1488 1.374 . S
C1490 C1487 1.499 . S
C1490 C1491 1.373 . S
C1490 C1492 1.389 . S
C1491 H1470 0.950 . S
C1491 C1490 1.373 . S
C1491 C1507 1.377 . S
C1492 C1490 1.389 . S
C1492 C1493 1.524 . S
C1492 C1506 1.377 . S
C1493 C1492 1.524 . S
C1493 C1494 1.397 . S
C1493 C1498 1.363 . S
C1494 H1471 0.950 . S
C1494 C1493 1.397 . S
C1494 C1495 1.334 . S
C1495 H1472 0.950 . S
C1495 C1494 1.334 . S
C1495 C1496 1.287 . S
C1496 C1495 1.287 . S
C1496 C1497 1.524 . S
C1496 H1515 0.913 . S
C1497 H1473 0.950 . S
C1497 C1496 1.524 . S
C1497 C1498 1.415 . S
C1498 H1474 0.950 . S
C1498 C1493 1.363 . S
C1498 C1497 1.415 . S
C1499 H1475 0.951 . S
C1499 C1500 1.366 . S
C1499 C1501 1.388 . S
C1500 C1499 1.366 . S
C1500 C1504 1.385 . S
C1501 H1476 0.951 . S
C1501 C1499 1.388 . S
C1501 C1502 1.366 . S
C1502 C1501 1.366 . S
C1502 C1503 1.414 . S
C1502 C1505 1.499 . S
C1503 H1477 0.950 . S
C1503 C1502 1.414 . S
C1503 C1504 1.374 . S
C1504 H1478 0.950 . S
C1504 C1500 1.385 . S
C1504 C1503 1.374 . S
C1505 C1502 1.499 . S
C1505 C1506 1.373 . S
C1505 C1507 1.389 . S
C1506 H1479 0.950 . S
C1506 C1492 1.377 . S
C1506 C1505 1.373 . S
C1507 C1491 1.377 . S
C1507 C1505 1.389 . S
C1507 C1508 1.524 . S
C1508 C1507 1.524 . S
C1508 C1509 1.397 . S
C1508 C1513 1.363 . S
C1509 H1480 0.950 . S
C1509 C1508 1.397 . S
C1509 C1510 1.334 . S
C1510 H1481 0.950 . S
C1510 C1509 1.334 . S
C1510 C1511 1.287 . S
C1511 C1510 1.287 . S
C1511 C1512 1.524 . S
C1511 H1514 0.999 . S
C1512 H1482 0.950 . S
C1512 C1511 1.524 . S
C1512 C1513 1.415 . S
C1513 H1483 0.950 . S
C1513 C1508 1.363 . S
C1513 C1512 1.415 . S
H1514 C1511 0.999 . S
H1515 C1496 0.913 . S
H1516 C1534 0.951 . S
H1517 C1536 0.951 . S
H1518 C1538 0.950 . S
H1519 C1539 0.950 . S
H1520 C1541 0.950 . S
H1521 C1544 0.950 1_565 S
H1522 C1545 0.950 . S
H1523 C1547 0.950 . S
H1524 C1548 0.950 . S
H1525 C1549 0.951 . S
H1526 C1551 0.951 . S
H1527 C1553 0.950 . S
H1528 C1554 0.950 . S
H1529 C1556 0.950 . S
H1530 C1559 0.950 . S
H1531 C1560 0.950 . S
H1532 C1562 0.950 . S
H1533 C1563 0.950 . S
C1534 H1516 0.951 . S
C1534 C1535 1.366 1_545 S
C1534 C1536 1.388 . S
C1535 C1534 1.366 1_565 S
C1535 C1539 1.385 . S
C1536 H1517 0.951 . S
C1536 C1534 1.388 . S
C1536 C1537 1.366 1_545 S
C1537 C1536 1.366 1_565 S
C1537 C1538 1.414 . S
C1537 C1540 1.499 . S
C1538 H1518 0.950 . S
C1538 C1537 1.414 . S
C1538 C1539 1.374 . S
C1539 H1519 0.950 . S
C1539 C1535 1.385 . S
C1539 C1538 1.374 . S
C1540 C1537 1.499 . S
C1540 C1541 1.373 . S
C1540 C1542 1.389 1_565 S
C1541 H1520 0.950 . S
C1541 C1540 1.373 . S
C1541 C1557 1.377 . S
C1542 C1540 1.389 1_545 S
C1542 C1543 1.524 . S
C1542 C1556 1.377 . S
C1543 C1542 1.524 . S
C1543 C1544 1.397 . S
C1543 C1548 1.363 . S
C1544 H1521 0.950 1_545 S
C1544 C1543 1.397 . S
C1544 C1545 1.334 . S
C1545 H1522 0.950 . S
C1545 C1544 1.334 . S
C1545 C1546 1.287 . S
C1546 C1545 1.287 . S
C1546 C1547 1.524 . S
C1546 H1565 0.913 . S
C1547 H1523 0.950 . S
C1547 C1546 1.524 . S
C1547 C1548 1.415 . S
C1548 H1524 0.950 . S
C1548 C1543 1.363 . S
C1548 C1547 1.415 . S
C1549 H1525 0.951 . S
C1549 C1550 1.366 . S
C1549 C1551 1.388 . S
C1550 C1549 1.366 . S
C1550 C1554 1.385 1_565 S
C1551 H1526 0.951 . S
C1551 C1549 1.388 . S
C1551 C1552 1.366 . S
C1552 C1551 1.366 . S
C1552 C1553 1.414 1_565 S
C1552 C1555 1.499 . S
C1553 H1527 0.950 . S
C1553 C1552 1.414 1_545 S
C1553 C1554 1.374 . S
C1554 H1528 0.950 . S
C1554 C1550 1.385 1_545 S
C1554 C1553 1.374 . S
C1555 C1552 1.499 . S
C1555 C1556 1.373 1_565 S
C1555 C1557 1.389 . S
C1556 H1529 0.950 . S
C1556 C1542 1.377 . S
C1556 C1555 1.373 1_545 S
C1557 C1541 1.377 . S
C1557 C1555 1.389 . S
C1557 C1558 1.524 . S
C1558 C1557 1.524 . S
C1558 C1559 1.397 . S
C1558 C1563 1.363 . S
C1559 H1530 0.950 . S
C1559 C1558 1.397 . S
C1559 C1560 1.334 . S
C1560 H1531 0.950 . S
C1560 C1559 1.334 . S
C1560 C1561 1.287 . S
C1561 C1560 1.287 . S
C1561 C1562 1.524 . S
C1561 H1564 0.999 . S
C1562 H1532 0.950 . S
C1562 C1561 1.524 . S
C1562 C1563 1.415 . S
C1563 H1533 0.950 . S
C1563 C1558 1.363 . S
C1563 C1562 1.415 . S
H1564 C1561 0.999 . S
H1565 C1546 0.913 . S
H1566 C1584 0.951 . S
H1567 C1586 0.951 . S
H1568 C1588 0.950 . S
H1569 C1589 0.950 . S
H1570 C1591 0.950 . S
H1571 C1594 0.950 . S
H1572 C1595 0.950 . S
H1573 C1597 0.950 . S
H1574 C1598 0.950 . S
H1575 C1599 0.951 . S
H1576 C1601 0.951 . S
H1577 C1603 0.950 . S
H1578 C1604 0.950 . S
H1579 C1606 0.950 . S
H1580 C1609 0.950 . S
H1581 C1610 0.950 . S
H1582 C1612 0.950 . S
H1583 C1613 0.950 . S
C1584 H1566 0.951 . S
C1584 C1585 1.366 . S
C1584 C1586 1.388 . S
C1585 C1584 1.366 . S
C1585 C1589 1.385 . S
C1586 H1567 0.951 . S
C1586 C1584 1.388 . S
C1586 C1587 1.366 . S
C1587 C1586 1.366 . S
C1587 C1588 1.414 . S
C1587 C1590 1.499 . S
C1588 H1568 0.950 . S
C1588 C1587 1.414 . S
C1588 C1589 1.374 . S
C1589 H1569 0.950 . S
C1589 C1585 1.385 . S
C1589 C1588 1.374 . S
C1590 C1587 1.499 . S
C1590 C1591 1.373 1_545 S
C1590 C1592 1.389 . S
C1591 H1570 0.950 . S
C1591 C1590 1.373 1_565 S
C1591 C1607 1.377 . S
C1592 C1590 1.389 . S
C1592 C1593 1.524 . S
C1592 C1606 1.377 . S
C1593 C1592 1.524 . S
C1593 C1594 1.397 . S
C1593 C1598 1.363 . S
C1594 H1571 0.950 . S
C1594 C1593 1.397 . S
C1594 C1595 1.334 . S
C1595 H1572 0.950 . S
C1595 C1594 1.334 . S
C1595 C1596 1.287 . S
C1596 C1595 1.287 . S
C1596 C1597 1.524 . S
C1596 H1615 0.913 . S
C1597 H1573 0.950 . S
C1597 C1596 1.524 . S
C1597 C1598 1.415 . S
C1598 H1574 0.950 . S
C1598 C1593 1.363 . S
C1598 C1597 1.415 . S
C1599 H1575 0.951 . S
C1599 C1600 1.366 . S
C1599 C1601 1.388 . S
C1600 C1599 1.366 . S
C1600 C1604 1.385 . S
C1601 H1576 0.951 . S
C1601 C1599 1.388 . S
C1601 C1602 1.366 . S
C1602 C1601 1.366 . S
C1602 C1603 1.414 . S
C1602 C1605 1.499 . S
C1603 H1577 0.950 . S
C1603 C1602 1.414 . S
C1603 C1604 1.374 . S
C1604 H1578 0.950 . S
C1604 C1600 1.385 . S
C1604 C1603 1.374 . S
C1605 C1602 1.499 . S
C1605 C1606 1.373 . S
C1605 C1607 1.389 1_545 S
C1606 H1579 0.950 . S
C1606 C1592 1.377 . S
C1606 C1605 1.373 . S
C1607 C1591 1.377 . S
C1607 C1605 1.389 1_565 S
C1607 C1608 1.524 . S
C1608 C1607 1.524 . S
C1608 C1609 1.397 . S
C1608 C1613 1.363 . S
C1609 H1580 0.950 . S
C1609 C1608 1.397 . S
C1609 C1610 1.334 . S
C1610 H1581 0.950 . S
C1610 C1609 1.334 . S
C1610 C1611 1.287 . S
C1611 C1610 1.287 . S
C1611 C1612 1.524 . S
C1611 H1614 0.999 . S
C1612 H1582 0.950 . S
C1612 C1611 1.524 . S
C1612 C1613 1.415 . S
C1613 H1583 0.950 . S
C1613 C1608 1.363 . S
C1613 C1612 1.415 . S
H1614 C1611 0.999 . S
H1615 C1596 0.913 . S
H1616 C1634 0.951 . S
H1617 C1636 0.951 . S
H1618 C1638 0.950 . S
H1619 C1639 0.977 . S
H1620 C1641 0.950 . S
H1621 C1644 0.950 . S
H1622 C1645 0.950 . S
H1623 C1647 0.950 . S
H1624 C1648 0.950 . S
H1625 C1649 0.954 . S
H1626 C1651 0.950 1_455 S
H1627 C1653 0.950 . S
H1628 C1654 0.950 . S
H1629 C1656 0.950 . S
H1630 C1659 0.950 . S
H1631 C1660 0.950 . S
H1632 C1662 0.950 . S
H1633 C1663 0.950 . S
C1634 H1616 0.951 . S
C1634 C1635 1.366 . S
C1634 C1636 1.388 . S
C1635 C1634 1.366 . S
C1635 C1639 1.327 1_655 S
C1636 H1617 0.951 . S
C1636 C1634 1.388 . S
C1636 C1637 1.366 . S
C1637 C1636 1.366 . S
C1637 C1638 1.414 1_655 S
C1637 C1640 1.499 . S
C1638 H1618 0.950 . S
C1638 C1637 1.414 1_455 S
C1638 C1639 1.413 . S
C1639 H1619 0.977 . S
C1639 C1635 1.327 1_455 S
C1639 C1638 1.413 . S
C1640 C1637 1.499 . S
C1640 C1641 1.373 . S
C1640 C1642 1.389 1_655 S
C1641 H1620 0.950 . S
C1641 C1640 1.373 . S
C1641 C1657 1.377 . S
C1642 C1640 1.389 1_455 S
C1642 C1643 1.524 . S
C1642 C1656 1.377 . S
C1643 C1642 1.524 . S
C1643 C1644 1.397 . S
C1643 C1648 1.363 . S
C1644 H1621 0.950 . S
C1644 C1643 1.397 . S
C1644 C1645 1.334 . S
C1645 H1622 0.950 . S
C1645 C1644 1.334 . S
C1645 C1646 1.287 . S
C1646 C1645 1.287 . S
C1646 C1647 1.524 . S
C1646 H1665 0.913 . S
C1647 H1623 0.950 . S
C1647 C1646 1.524 . S
C1647 C1648 1.415 . S
C1648 H1624 0.950 . S
C1648 C1643 1.363 . S
C1648 C1647 1.415 . S
C1649 H1625 0.954 . S
C1649 C1650 1.365 1_455 S
C1649 C1651 1.385 1_455 S
C1650 C1649 1.365 1_655 S
C1650 C1654 1.385 . S
C1651 H1626 0.950 1_655 S
C1651 C1649 1.385 1_655 S
C1651 C1652 1.368 . S
C1652 C1651 1.368 . S
C1652 C1653 1.414 . S
C1652 C1655 1.499 . S
C1653 H1627 0.950 . S
C1653 C1652 1.414 . S
C1653 C1654 1.374 . S
C1654 H1628 0.950 . S
C1654 C1650 1.385 . S
C1654 C1653 1.374 . S
C1655 C1652 1.499 . S
C1655 C1656 1.373 1_655 S
C1655 C1657 1.389 . S
C1656 H1629 0.950 . S
C1656 C1642 1.377 . S
C1656 C1655 1.373 1_455 S
C1657 C1641 1.377 . S
C1657 C1655 1.389 . S
C1657 C1658 1.524 . S
C1658 C1657 1.524 . S
C1658 C1659 1.397 . S
C1658 C1663 1.363 . S
C1659 H1630 0.950 . S
C1659 C1658 1.397 . S
C1659 C1660 1.334 . S
C1660 H1631 0.950 . S
C1660 C1659 1.334 . S
C1660 C1661 1.287 . S
C1661 C1660 1.287 . S
C1661 C1662 1.524 . S
C1661 H1664 0.999 . S
C1662 H1632 0.950 . S
C1662 C1661 1.524 . S
C1662 C1663 1.415 . S
C1663 H1633 0.950 . S
C1663 C1658 1.363 . S
C1663 C1662 1.415 . S
H1664 C1661 0.999 . S
H1665 C1646 0.913 . S
H1666 C1684 0.951 . S
H1667 C1686 0.951 . S
H1668 C1688 0.950 . S
H1669 C1689 0.950 . S
H1670 C1691 0.950 . S
H1671 C1694 0.950 . S
H1672 C1695 0.950 . S
H1673 C1697 0.950 . S
H1674 C1698 0.950 . S
H1675 C1699 0.951 . S
H1676 C1701 0.951 . S
H1677 C1703 0.950 . S
H1678 C1704 0.950 . S
H1679 C1706 0.950 . S
H1680 C1709 0.950 . S
H1681 C1710 0.950 . S
H1682 C1712 0.950 . S
H1683 C1713 0.950 . S
C1684 H1666 0.951 . S
C1684 C1685 1.366 . S
C1684 C1686 1.388 . S
C1685 C1684 1.366 . S
C1685 C1689 1.385 . S
C1686 H1667 0.951 . S
C1686 C1684 1.388 . S
C1686 C1687 1.366 . S
C1687 C1686 1.366 . S
C1687 C1688 1.414 . S
C1687 C1690 1.499 . S
C1688 H1668 0.950 . S
C1688 C1687 1.414 . S
C1688 C1689 1.374 . S
C1689 H1669 0.950 . S
C1689 C1685 1.385 . S
C1689 C1688 1.374 . S
C1690 C1687 1.499 . S
C1690 C1691 1.373 . S
C1690 C1692 1.389 . S
C1691 H1670 0.950 . S
C1691 C1690 1.373 . S
C1691 C1707 1.377 . S
C1692 C1690 1.389 . S
C1692 C1693 1.524 . S
C1692 C1706 1.377 . S
C1693 C1692 1.524 . S
C1693 C1694 1.397 . S
C1693 C1698 1.363 . S
C1694 H1671 0.950 . S
C1694 C1693 1.397 . S
C1694 C1695 1.334 . S
C1695 H1672 0.950 . S
C1695 C1694 1.334 . S
C1695 C1696 1.287 . S
C1696 C1695 1.287 . S
C1696 C1697 1.524 . S
C1696 H1715 0.913 . S
C1697 H1673 0.950 . S
C1697 C1696 1.524 . S
C1697 C1698 1.415 . S
C1698 H1674 0.950 . S
C1698 C1693 1.363 . S
C1698 C1697 1.415 . S
C1699 H1675 0.951 . S
C1699 C1700 1.366 . S
C1699 C1701 1.388 . S
C1700 C1699 1.366 . S
C1700 C1704 1.385 . S
C1701 H1676 0.951 . S
C1701 C1699 1.388 . S
C1701 C1702 1.366 . S
C1702 C1701 1.366 . S
C1702 C1703 1.414 . S
C1702 C1705 1.499 . S
C1703 H1677 0.950 . S
C1703 C1702 1.414 . S
C1703 C1704 1.374 . S
C1704 H1678 0.950 . S
C1704 C1700 1.385 . S
C1704 C1703 1.374 . S
C1705 C1702 1.499 . S
C1705 C1706 1.373 . S
C1705 C1707 1.389 . S
C1706 H1679 0.950 . S
C1706 C1692 1.377 . S
C1706 C1705 1.373 . S
C1707 C1691 1.377 . S
C1707 C1705 1.389 . S
C1707 C1708 1.524 . S
C1708 C1707 1.524 . S
C1708 C1709 1.397 . S
C1708 C1713 1.363 . S
C1709 H1680 0.950 . S
C1709 C1708 1.397 . S
C1709 C1710 1.334 . S
C1710 H1681 0.950 . S
C1710 C1709 1.334 . S
C1710 C1711 1.287 . S
C1711 C1710 1.287 . S
C1711 C1712 1.524 . S
C1711 H1714 0.999 . S
C1712 H1682 0.950 . S
C1712 C1711 1.524 . S
C1712 C1713 1.415 . S
C1713 H1683 0.950 . S
C1713 C1708 1.363 . S
C1713 C1712 1.415 . S
H1714 C1711 0.999 . S
H1715 C1696 0.913 . S
H1716 C1734 0.951 . S
H1717 C1736 0.951 . S
H1718 C1738 0.950 . S
H1719 C1739 0.950 . S
H1720 C1741 0.950 . S
H1721 C1744 0.950 . S
H1722 C1745 0.950 . S
H1723 C1747 0.950 . S
H1724 C1748 0.950 . S
H1725 C1749 0.951 . S
H1726 C1751 0.951 . S
H1727 C1753 0.950 . S
H1728 C1754 0.950 . S
H1729 C1756 0.950 . S
H1730 C1759 0.950 . S
H1731 C1760 0.950 . S
H1732 C1762 0.950 . S
H1733 C1763 0.950 . S
C1734 H1716 0.951 . S
C1734 C1735 1.366 . S
C1734 C1736 1.388 . S
C1735 C1734 1.366 . S
C1735 C1739 1.385 . S
C1736 H1717 0.951 . S
C1736 C1734 1.388 . S
C1736 C1737 1.366 . S
C1737 C1736 1.366 . S
C1737 C1738 1.414 . S
C1737 C1740 1.499 . S
C1738 H1718 0.950 . S
C1738 C1737 1.414 . S
C1738 C1739 1.374 . S
C1739 H1719 0.950 . S
C1739 C1735 1.385 . S
C1739 C1738 1.374 . S
C1740 C1737 1.499 . S
C1740 C1741 1.373 . S
C1740 C1742 1.389 . S
C1741 H1720 0.950 . S
C1741 C1740 1.373 . S
C1741 C1757 1.377 . S
C1742 C1740 1.389 . S
C1742 C1743 1.524 . S
C1742 C1756 1.377 . S
C1743 C1742 1.524 . S
C1743 C1744 1.397 . S
C1743 C1748 1.363 . S
C1744 H1721 0.950 . S
C1744 C1743 1.397 . S
C1744 C1745 1.334 . S
C1745 H1722 0.950 . S
C1745 C1744 1.334 . S
C1745 C1746 1.287 . S
C1746 C1745 1.287 . S
C1746 C1747 1.524 . S
C1746 H1765 0.913 . S
C1747 H1723 0.950 . S
C1747 C1746 1.524 . S
C1747 C1748 1.415 . S
C1748 H1724 0.950 . S
C1748 C1743 1.363 . S
C1748 C1747 1.415 . S
C1749 H1725 0.951 . S
C1749 C1750 1.366 . S
C1749 C1751 1.388 . S
C1750 C1749 1.366 . S
C1750 C1754 1.385 . S
C1751 H1726 0.951 . S
C1751 C1749 1.388 . S
C1751 C1752 1.366 . S
C1752 C1751 1.366 . S
C1752 C1753 1.414 . S
C1752 C1755 1.499 . S
C1753 H1727 0.950 . S
C1753 C1752 1.414 . S
C1753 C1754 1.374 . S
C1754 H1728 0.950 . S
C1754 C1750 1.385 . S
C1754 C1753 1.374 . S
C1755 C1752 1.499 . S
C1755 C1756 1.373 . S
C1755 C1757 1.389 . S
C1756 H1729 0.950 . S
C1756 C1742 1.377 . S
C1756 C1755 1.373 . S
C1757 C1741 1.377 . S
C1757 C1755 1.389 . S
C1757 C1758 1.524 . S
C1758 C1757 1.524 . S
C1758 C1759 1.397 . S
C1758 C1763 1.363 . S
C1759 H1730 0.950 . S
C1759 C1758 1.397 . S
C1759 C1760 1.334 . S
C1760 H1731 0.950 . S
C1760 C1759 1.334 . S
C1760 C1761 1.287 . S
C1761 C1760 1.287 . S
C1761 C1762 1.524 . S
C1761 H1764 0.999 . S
C1762 H1732 0.950 . S
C1762 C1761 1.524 . S
C1762 C1763 1.415 . S
C1763 H1733 0.950 . S
C1763 C1758 1.363 . S
C1763 C1762 1.415 . S
H1764 C1761 0.999 . S
H1765 C1746 0.913 . S
H1766 C1784 0.951 . S
H1767 C1786 0.951 . S
H1768 C1788 0.950 . S
H1769 C1789 0.950 . S
H1770 C1791 0.950 . S
H1771 C1794 0.950 . S
H1772 C1795 0.950 . S
H1773 C1797 0.950 . S
H1774 C1798 0.950 . S
H1775 C1799 0.951 . S
H1776 C1801 0.951 . S
H1777 C1803 0.950 . S
H1778 C1804 0.950 . S
H1779 C1806 0.950 . S
H1780 C1809 0.950 . S
H1781 C1810 0.950 . S
H1782 C1812 0.950 . S
H1783 C1813 0.950 . S
C1784 H1766 0.951 . S
C1784 C1785 1.366 . S
C1784 C1786 1.388 . S
C1785 C1784 1.366 . S
C1785 C1789 1.385 . S
C1786 H1767 0.951 . S
C1786 C1784 1.388 . S
C1786 C1787 1.366 . S
C1787 C1786 1.366 . S
C1787 C1788 1.414 . S
C1787 C1790 1.499 . S
C1788 H1768 0.950 . S
C1788 C1787 1.414 . S
C1788 C1789 1.374 . S
C1789 H1769 0.950 . S
C1789 C1785 1.385 . S
C1789 C1788 1.374 . S
C1790 C1787 1.499 . S
C1790 C1791 1.373 . S
C1790 C1792 1.389 . S
C1791 H1770 0.950 . S
C1791 C1790 1.373 . S
C1791 C1807 1.377 . S
C1792 C1790 1.389 . S
C1792 C1793 1.524 . S
C1792 C1806 1.377 . S
C1793 C1792 1.524 . S
C1793 C1794 1.397 . S
C1793 C1798 1.363 . S
C1794 H1771 0.950 . S
C1794 C1793 1.397 . S
C1794 C1795 1.334 . S
C1795 H1772 0.950 . S
C1795 C1794 1.334 . S
C1795 C1796 1.287 . S
C1796 C1795 1.287 . S
C1796 C1797 1.524 . S
C1796 H1815 0.913 . S
C1797 H1773 0.950 . S
C1797 C1796 1.524 . S
C1797 C1798 1.415 . S
C1798 H1774 0.950 . S
C1798 C1793 1.363 . S
C1798 C1797 1.415 . S
C1799 H1775 0.951 . S
C1799 C1800 1.366 . S
C1799 C1801 1.388 . S
C1800 C1799 1.366 . S
C1800 C1804 1.385 . S
C1801 H1776 0.951 . S
C1801 C1799 1.388 . S
C1801 C1802 1.366 . S
C1802 C1801 1.366 . S
C1802 C1803 1.414 . S
C1802 C1805 1.499 . S
C1803 H1777 0.950 . S
C1803 C1802 1.414 . S
C1803 C1804 1.374 . S
C1804 H1778 0.950 . S
C1804 C1800 1.385 . S
C1804 C1803 1.374 . S
C1805 C1802 1.499 . S
C1805 C1806 1.373 . S
C1805 C1807 1.389 . S
C1806 H1779 0.950 . S
C1806 C1792 1.377 . S
C1806 C1805 1.373 . S
C1807 C1791 1.377 . S
C1807 C1805 1.389 . S
C1807 C1808 1.524 . S
C1808 C1807 1.524 . S
C1808 C1809 1.397 . S
C1808 C1813 1.363 . S
C1809 H1780 0.950 . S
C1809 C1808 1.397 . S
C1809 C1810 1.334 . S
C1810 H1781 0.950 . S
C1810 C1809 1.334 . S
C1810 C1811 1.287 . S
C1811 C1810 1.287 . S
C1811 C1812 1.524 . S
C1811 H1814 0.999 . S
C1812 H1782 0.950 . S
C1812 C1811 1.524 . S
C1812 C1813 1.415 . S
C1813 H1783 0.950 . S
C1813 C1808 1.363 . S
C1813 C1812 1.415 . S
H1814 C1811 0.999 . S
H1815 C1796 0.913 . S
H1816 C1834 0.951 . S
H1817 C1836 0.951 . S
H1818 C1838 0.950 . S
H1819 C1839 0.950 . S
H1820 C1841 0.950 . S
H1821 C1844 0.950 . S
H1822 C1845 0.950 . S
H1823 C1847 0.950 . S
H1824 C1848 0.950 . S
H1825 C1849 0.951 . S
H1826 C1851 0.951 . S
H1827 C1853 0.950 . S
H1828 C1854 0.950 . S
H1829 C1856 0.950 . S
H1830 C1859 0.950 . S
H1831 C1860 0.950 . S
H1832 C1862 0.950 . S
H1833 C1863 0.950 . S
C1834 H1816 0.951 . S
C1834 C1835 1.366 . S
C1834 C1836 1.388 . S
C1835 C1834 1.366 . S
C1835 C1839 1.385 . S
C1836 H1817 0.951 . S
C1836 C1834 1.388 . S
C1836 C1837 1.366 . S
C1837 C1836 1.366 . S
C1837 C1838 1.414 . S
C1837 C1840 1.499 . S
C1838 H1818 0.950 . S
C1838 C1837 1.414 . S
C1838 C1839 1.374 . S
C1839 H1819 0.950 . S
C1839 C1835 1.385 . S
C1839 C1838 1.374 . S
C1840 C1837 1.499 . S
C1840 C1841 1.373 . S
C1840 C1842 1.389 . S
C1841 H1820 0.950 . S
C1841 C1840 1.373 . S
C1841 C1857 1.377 . S
C1842 C1840 1.389 . S
C1842 C1843 1.524 . S
C1842 C1856 1.377 . S
C1843 C1842 1.524 . S
C1843 C1844 1.397 . S
C1843 C1848 1.363 . S
C1844 H1821 0.950 . S
C1844 C1843 1.397 . S
C1844 C1845 1.334 . S
C1845 H1822 0.950 . S
C1845 C1844 1.334 . S
C1845 C1846 1.287 . S
C1846 C1845 1.287 . S
C1846 C1847 1.524 . S
C1846 H1865 0.913 . S
C1847 H1823 0.950 . S
C1847 C1846 1.524 . S
C1847 C1848 1.415 . S
C1848 H1824 0.950 . S
C1848 C1843 1.363 . S
C1848 C1847 1.415 . S
C1849 H1825 0.951 . S
C1849 C1850 1.366 . S
C1849 C1851 1.388 . S
C1850 C1849 1.366 . S
C1850 C1854 1.385 . S
C1851 H1826 0.951 . S
C1851 C1849 1.388 . S
C1851 C1852 1.366 . S
C1852 C1851 1.366 . S
C1852 C1853 1.414 . S
C1852 C1855 1.499 . S
C1853 H1827 0.950 . S
C1853 C1852 1.414 . S
C1853 C1854 1.374 . S
C1854 H1828 0.950 . S
C1854 C1850 1.385 . S
C1854 C1853 1.374 . S
C1855 C1852 1.499 . S
C1855 C1856 1.373 . S
C1855 C1857 1.389 . S
C1856 H1829 0.950 . S
C1856 C1842 1.377 . S
C1856 C1855 1.373 . S
C1857 C1841 1.377 . S
C1857 C1855 1.389 . S
C1857 C1858 1.524 . S
C1858 C1857 1.524 . S
C1858 C1859 1.397 . S
C1858 C1863 1.363 . S
C1859 H1830 0.950 . S
C1859 C1858 1.397 . S
C1859 C1860 1.334 . S
C1860 H1831 0.950 . S
C1860 C1859 1.334 . S
C1860 C1861 1.287 . S
C1861 C1860 1.287 . S
C1861 C1862 1.524 . S
C1861 H1864 0.999 . S
C1862 H1832 0.950 . S
C1862 C1861 1.524 . S
C1862 C1863 1.415 . S
C1863 H1833 0.950 . S
C1863 C1858 1.363 . S
C1863 C1862 1.415 . S
H1864 C1861 0.999 . S
H1865 C1846 0.913 . S
H1866 C1884 0.951 . S
H1867 C1886 0.951 . S
H1868 C1888 0.950 . S
H1869 C1889 0.950 . S
H1870 C1891 0.950 . S
H1871 C1894 0.950 . S
H1872 C1895 0.950 . S
H1873 C1897 0.950 . S
H1874 C1898 0.950 . S
H1875 C1899 0.951 . S
H1876 C1901 0.951 . S
H1877 C1903 0.950 . S
H1878 C1904 0.950 . S
H1879 C1906 0.950 . S
H1880 C1909 0.950 . S
H1881 C1910 0.950 . S
H1882 C1912 0.950 . S
H1883 C1913 0.950 . S
C1884 H1866 0.951 . S
C1884 C1885 1.366 . S
C1884 C1886 1.388 . S
C1885 C1884 1.366 . S
C1885 C1889 1.385 . S
C1886 H1867 0.951 . S
C1886 C1884 1.388 . S
C1886 C1887 1.366 . S
C1887 C1886 1.366 . S
C1887 C1888 1.414 . S
C1887 C1890 1.499 . S
C1888 H1868 0.950 . S
C1888 C1887 1.414 . S
C1888 C1889 1.374 . S
C1889 H1869 0.950 . S
C1889 C1885 1.385 . S
C1889 C1888 1.374 . S
C1890 C1887 1.499 . S
C1890 C1891 1.373 . S
C1890 C1892 1.389 . S
C1891 H1870 0.950 . S
C1891 C1890 1.373 . S
C1891 C1907 1.377 . S
C1892 C1890 1.389 . S
C1892 C1893 1.524 . S
C1892 C1906 1.377 . S
C1893 C1892 1.524 . S
C1893 C1894 1.397 . S
C1893 C1898 1.363 . S
C1894 H1871 0.950 . S
C1894 C1893 1.397 . S
C1894 C1895 1.334 . S
C1895 H1872 0.950 . S
C1895 C1894 1.334 . S
C1895 C1896 1.287 . S
C1896 C1895 1.287 . S
C1896 C1897 1.524 . S
C1896 H1915 0.913 . S
C1897 H1873 0.950 . S
C1897 C1896 1.524 . S
C1897 C1898 1.415 . S
C1898 H1874 0.950 . S
C1898 C1893 1.363 . S
C1898 C1897 1.415 . S
C1899 H1875 0.951 . S
C1899 C1900 1.366 . S
C1899 C1901 1.388 . S
C1900 C1899 1.366 . S
C1900 C1904 1.385 . S
C1901 H1876 0.951 . S
C1901 C1899 1.388 . S
C1901 C1902 1.366 . S
C1902 C1901 1.366 . S
C1902 C1903 1.414 . S
C1902 C1905 1.499 . S
C1903 H1877 0.950 . S
C1903 C1902 1.414 . S
C1903 C1904 1.374 . S
C1904 H1878 0.950 . S
C1904 C1900 1.385 . S
C1904 C1903 1.374 . S
C1905 C1902 1.499 . S
C1905 C1906 1.373 . S
C1905 C1907 1.389 . S
C1906 H1879 0.950 . S
C1906 C1892 1.377 . S
C1906 C1905 1.373 . S
C1907 C1891 1.377 . S
C1907 C1905 1.389 . S
C1907 C1908 1.524 . S
C1908 C1907 1.524 . S
C1908 C1909 1.397 . S
C1908 C1913 1.363 . S
C1909 H1880 0.950 . S
C1909 C1908 1.397 . S
C1909 C1910 1.334 . S
C1910 H1881 0.950 . S
C1910 C1909 1.334 . S
C1910 C1911 1.287 . S
C1911 C1910 1.287 . S
C1911 C1912 1.524 . S
C1911 H1914 0.999 . S
C1912 H1882 0.950 . S
C1912 C1911 1.524 . S
C1912 C1913 1.415 . S
C1913 H1883 0.950 . S
C1913 C1908 1.363 . S
C1913 C1912 1.415 . S
H1914 C1911 0.999 . S
H1915 C1896 0.913 . S
H1916 C1934 0.951 . S
H1917 C1936 0.951 . S
H1918 C1938 0.950 . S
H1919 C1939 0.950 . S
H1920 C1941 0.950 . S
H1921 C1944 0.950 . S
H1922 C1945 0.950 . S
H1923 C1947 0.950 . S
H1924 C1948 0.950 . S
H1925 C1949 0.951 . S
H1926 C1951 0.951 . S
H1927 C1953 0.950 . S
H1928 C1954 0.950 . S
H1929 C1956 0.950 . S
H1930 C1959 0.950 . S
H1931 C1960 0.950 . S
H1932 C1962 0.950 . S
H1933 C1963 0.950 . S
C1934 H1916 0.951 . S
C1934 C1935 1.366 . S
C1934 C1936 1.388 . S
C1935 C1934 1.366 . S
C1935 C1939 1.385 . S
C1936 H1917 0.951 . S
C1936 C1934 1.388 . S
C1936 C1937 1.366 . S
C1937 C1936 1.366 . S
C1937 C1938 1.414 . S
C1937 C1940 1.499 . S
C1938 H1918 0.950 . S
C1938 C1937 1.414 . S
C1938 C1939 1.374 . S
C1939 H1919 0.950 . S
C1939 C1935 1.385 . S
C1939 C1938 1.374 . S
C1940 C1937 1.499 . S
C1940 C1941 1.373 . S
C1940 C1942 1.389 . S
C1941 H1920 0.950 . S
C1941 C1940 1.373 . S
C1941 C1957 1.377 . S
C1942 C1940 1.389 . S
C1942 C1943 1.524 . S
C1942 C1956 1.377 . S
C1943 C1942 1.524 . S
C1943 C1944 1.397 . S
C1943 C1948 1.363 . S
C1944 H1921 0.950 . S
C1944 C1943 1.397 . S
C1944 C1945 1.334 . S
C1945 H1922 0.950 . S
C1945 C1944 1.334 . S
C1945 C1946 1.287 . S
C1946 C1945 1.287 . S
C1946 C1947 1.524 . S
C1946 H1965 0.913 . S
C1947 H1923 0.950 . S
C1947 C1946 1.524 . S
C1947 C1948 1.415 . S
C1948 H1924 0.950 . S
C1948 C1943 1.363 . S
C1948 C1947 1.415 . S
C1949 H1925 0.951 . S
C1949 C1950 1.366 . S
C1949 C1951 1.388 . S
C1950 C1949 1.366 . S
C1950 C1954 1.385 . S
C1951 H1926 0.951 . S
C1951 C1949 1.388 . S
C1951 C1952 1.366 . S
C1952 C1951 1.366 . S
C1952 C1953 1.414 . S
C1952 C1955 1.499 . S
C1953 H1927 0.950 . S
C1953 C1952 1.414 . S
C1953 C1954 1.374 . S
C1954 H1928 0.950 . S
C1954 C1950 1.385 . S
C1954 C1953 1.374 . S
C1955 C1952 1.499 . S
C1955 C1956 1.373 . S
C1955 C1957 1.389 . S
C1956 H1929 0.950 . S
C1956 C1942 1.377 . S
C1956 C1955 1.373 . S
C1957 C1941 1.377 . S
C1957 C1955 1.389 . S
C1957 C1958 1.524 . S
C1958 C1957 1.524 . S
C1958 C1959 1.397 . S
C1958 C1963 1.363 . S
C1959 H1930 0.950 . S
C1959 C1958 1.397 . S
C1959 C1960 1.334 . S
C1960 H1931 0.950 . S
C1960 C1959 1.334 . S
C1960 C1961 1.287 . S
C1961 C1960 1.287 . S
C1961 C1962 1.524 . S
C1961 H1964 0.999 . S
C1962 H1932 0.950 . S
C1962 C1961 1.524 . S
C1962 C1963 1.415 . S
C1963 H1933 0.950 . S
C1963 C1958 1.363 . S
C1963 C1962 1.415 . S
H1964 C1961 0.999 . S
H1965 C1946 0.913 . S
H1966 C1984 0.951 . S
H1967 C1986 0.951 . S
H1968 C1988 0.950 . S
H1969 C1989 0.950 . S
H1970 C1991 0.950 . S
H1971 C1994 0.950 . S
H1972 C1995 0.950 . S
H1973 C1997 0.950 . S
H1974 C1998 0.950 . S
H1975 C1999 0.951 . S
H1976 C2001 0.951 . S
H1977 C2003 0.950 . S
H1978 C2004 0.950 . S
H1979 C2006 0.950 . S
H1980 C2009 0.950 . S
H1981 C2010 0.950 . S
H1982 C2012 0.950 . S
H1983 C2013 0.950 . S
C1984 H1966 0.951 . S
C1984 C1985 1.366 . S
C1984 C1986 1.388 . S
C1985 C1984 1.366 . S
C1985 C1989 1.385 . S
C1986 H1967 0.951 . S
C1986 C1984 1.388 . S
C1986 C1987 1.366 . S
C1987 C1986 1.366 . S
C1987 C1988 1.414 . S
C1987 C1990 1.499 . S
C1988 H1968 0.950 . S
C1988 C1987 1.414 . S
C1988 C1989 1.374 . S
C1989 H1969 0.950 . S
C1989 C1985 1.385 . S
C1989 C1988 1.374 . S
C1990 C1987 1.499 . S
C1990 C1991 1.373 . S
C1990 C1992 1.389 . S
C1991 H1970 0.950 . S
C1991 C1990 1.373 . S
C1991 C2007 1.377 . S
C1992 C1990 1.389 . S
C1992 C1993 1.524 . S
C1992 C2006 1.377 . S
C1993 C1992 1.524 . S
C1993 C1994 1.397 . S
C1993 C1998 1.363 . S
C1994 H1971 0.950 . S
C1994 C1993 1.397 . S
C1994 C1995 1.334 . S
C1995 H1972 0.950 . S
C1995 C1994 1.334 . S
C1995 C1996 1.287 . S
C1996 C1995 1.287 . S
C1996 C1997 1.524 . S
C1996 H2015 0.913 . S
C1997 H1973 0.950 . S
C1997 C1996 1.524 . S
C1997 C1998 1.415 . S
C1998 H1974 0.950 . S
C1998 C1993 1.363 . S
C1998 C1997 1.415 . S
C1999 H1975 0.951 . S
C1999 C2000 1.366 . S
C1999 C2001 1.388 . S
C2000 C1999 1.366 . S
C2000 C2004 1.385 . S
C2001 H1976 0.951 . S
C2001 C1999 1.388 . S
C2001 C2002 1.366 . S
C2002 C2001 1.366 . S
C2002 C2003 1.414 . S
C2002 C2005 1.499 . S
C2003 H1977 0.950 . S
C2003 C2002 1.414 . S
C2003 C2004 1.374 . S
C2004 H1978 0.950 . S
C2004 C2000 1.385 . S
C2004 C2003 1.374 . S
C2005 C2002 1.499 . S
C2005 C2006 1.373 . S
C2005 C2007 1.389 . S
C2006 H1979 0.950 . S
C2006 C1992 1.377 . S
C2006 C2005 1.373 . S
C2007 C1991 1.377 . S
C2007 C2005 1.389 . S
C2007 C2008 1.524 . S
C2008 C2007 1.524 . S
C2008 C2009 1.397 . S
C2008 C2013 1.363 . S
C2009 H1980 0.950 . S
C2009 C2008 1.397 . S
C2009 C2010 1.334 . S
C2010 H1981 0.950 . S
C2010 C2009 1.334 . S
C2010 C2011 1.287 . S
C2011 C2010 1.287 . S
C2011 C2012 1.524 . S
C2011 H2014 0.999 . S
C2012 H1982 0.950 . S
C2012 C2011 1.524 . S
C2012 C2013 1.415 . S
C2013 H1983 0.950 . S
C2013 C2008 1.363 . S
C2013 C2012 1.415 . S
H2014 C2011 0.999 . S
H2015 C1996 0.913 . S
H2016 C2034 0.951 . S
H2017 C2036 0.951 . S
H2018 C2038 0.950 . S
H2019 C2039 0.950 . S
H2020 C2041 0.950 . S
H2021 C2044 0.950 . S
H2022 C2045 0.950 . S
H2023 C2047 0.950 . S
H2024 C2048 0.950 . S
H2025 C2049 0.951 . S
H2026 C2051 0.951 . S
H2027 C2053 0.950 . S
H2028 C2054 0.950 . S
H2029 C2056 0.950 . S
H2030 C2059 0.950 . S
H2031 C2060 0.950 . S
H2032 C2062 0.950 . S
H2033 C2063 0.950 . S
C2034 H2016 0.951 . S
C2034 C2035 1.366 . S
C2034 C2036 1.388 . S
C2035 C2034 1.366 . S
C2035 C2039 1.385 . S
C2036 H2017 0.951 . S
C2036 C2034 1.388 . S
C2036 C2037 1.366 . S
C2037 C2036 1.366 . S
C2037 C2038 1.414 . S
C2037 C2040 1.499 . S
C2038 H2018 0.950 . S
C2038 C2037 1.414 . S
C2038 C2039 1.374 . S
C2039 H2019 0.950 . S
C2039 C2035 1.385 . S
C2039 C2038 1.374 . S
C2040 C2037 1.499 . S
C2040 C2041 1.373 . S
C2040 C2042 1.389 . S
C2041 H2020 0.950 . S
C2041 C2040 1.373 . S
C2041 C2057 1.377 . S
C2042 C2040 1.389 . S
C2042 C2043 1.524 . S
C2042 C2056 1.377 . S
C2043 C2042 1.524 . S
C2043 C2044 1.397 . S
C2043 C2048 1.363 . S
C2044 H2021 0.950 . S
C2044 C2043 1.397 . S
C2044 C2045 1.334 . S
C2045 H2022 0.950 . S
C2045 C2044 1.334 . S
C2045 C2046 1.287 . S
C2046 C2045 1.287 . S
C2046 C2047 1.524 . S
C2046 H2065 0.913 . S
C2047 H2023 0.950 . S
C2047 C2046 1.524 . S
C2047 C2048 1.415 . S
C2048 H2024 0.950 . S
C2048 C2043 1.363 . S
C2048 C2047 1.415 . S
C2049 H2025 0.951 . S
C2049 C2050 1.366 . S
C2049 C2051 1.388 . S
C2050 C2049 1.366 . S
C2050 C2054 1.385 . S
C2051 H2026 0.951 . S
C2051 C2049 1.388 . S
C2051 C2052 1.366 . S
C2052 C2051 1.366 . S
C2052 C2053 1.414 . S
C2052 C2055 1.499 . S
C2053 H2027 0.950 . S
C2053 C2052 1.414 . S
C2053 C2054 1.374 . S
C2054 H2028 0.950 . S
C2054 C2050 1.385 . S
C2054 C2053 1.374 . S
C2055 C2052 1.499 . S
C2055 C2056 1.373 . S
C2055 C2057 1.389 . S
C2056 H2029 0.950 . S
C2056 C2042 1.377 . S
C2056 C2055 1.373 . S
C2057 C2041 1.377 . S
C2057 C2055 1.389 . S
C2057 C2058 1.524 . S
C2058 C2057 1.524 . S
C2058 C2059 1.397 . S
C2058 C2063 1.363 . S
C2059 H2030 0.950 . S
C2059 C2058 1.397 . S
C2059 C2060 1.334 . S
C2060 H2031 0.950 . S
C2060 C2059 1.334 . S
C2060 C2061 1.287 . S
C2061 C2060 1.287 . S
C2061 C2062 1.524 . S
C2061 H2064 0.999 . S
C2062 H2032 0.950 . S
C2062 C2061 1.524 . S
C2062 C2063 1.415 . S
C2063 H2033 0.950 . S
C2063 C2058 1.363 . S
C2063 C2062 1.415 . S
H2064 C2061 0.999 . S
H2065 C2046 0.913 . S
H2066 C2084 0.951 . S
H2067 C2086 0.951 . S
H2068 C2088 0.950 . S
H2069 C2089 0.950 . S
H2070 C2091 0.950 . S
H2071 C2094 0.950 . S
H2072 C2095 0.950 . S
H2073 C2097 0.950 . S
H2074 C2098 0.950 . S
H2075 C2099 0.951 . S
H2076 C2101 0.951 . S
H2077 C2103 0.950 . S
H2078 C2104 0.950 . S
H2079 C2106 0.950 . S
H2080 C2109 0.950 . S
H2081 C2110 0.950 . S
H2082 C2112 0.950 . S
H2083 C2113 0.950 . S
C2084 H2066 0.951 . S
C2084 C2085 1.366 . S
C2084 C2086 1.388 . S
C2085 C2084 1.366 . S
C2085 C2089 1.385 . S
C2086 H2067 0.951 . S
C2086 C2084 1.388 . S
C2086 C2087 1.366 . S
C2087 C2086 1.366 . S
C2087 C2088 1.414 . S
C2087 C2090 1.499 . S
C2088 H2068 0.950 . S
C2088 C2087 1.414 . S
C2088 C2089 1.374 . S
C2089 H2069 0.950 . S
C2089 C2085 1.385 . S
C2089 C2088 1.374 . S
C2090 C2087 1.499 . S
C2090 C2091 1.373 . S
C2090 C2092 1.389 . S
C2091 H2070 0.950 . S
C2091 C2090 1.373 . S
C2091 C2107 1.377 . S
C2092 C2090 1.389 . S
C2092 C2093 1.524 . S
C2092 C2106 1.377 . S
C2093 C2092 1.524 . S
C2093 C2094 1.397 . S
C2093 C2098 1.363 . S
C2094 H2071 0.950 . S
C2094 C2093 1.397 . S
C2094 C2095 1.334 . S
C2095 H2072 0.950 . S
C2095 C2094 1.334 . S
C2095 C2096 1.287 . S
C2096 C2095 1.287 . S
C2096 C2097 1.524 . S
C2096 H2115 0.913 . S
C2097 H2073 0.950 . S
C2097 C2096 1.524 . S
C2097 C2098 1.415 . S
C2098 H2074 0.950 . S
C2098 C2093 1.363 . S
C2098 C2097 1.415 . S
C2099 H2075 0.951 . S
C2099 C2100 1.366 . S
C2099 C2101 1.388 . S
C2100 C2099 1.366 . S
C2100 C2104 1.385 . S
C2101 H2076 0.951 . S
C2101 C2099 1.388 . S
C2101 C2102 1.366 . S
C2102 C2101 1.366 . S
C2102 C2103 1.414 . S
C2102 C2105 1.499 . S
C2103 H2077 0.950 . S
C2103 C2102 1.414 . S
C2103 C2104 1.374 . S
C2104 H2078 0.950 . S
C2104 C2100 1.385 . S
C2104 C2103 1.374 . S
C2105 C2102 1.499 . S
C2105 C2106 1.373 . S
C2105 C2107 1.389 . S
C2106 H2079 0.950 . S
C2106 C2092 1.377 . S
C2106 C2105 1.373 . S
C2107 C2091 1.377 . S
C2107 C2105 1.389 . S
C2107 C2108 1.524 . S
C2108 C2107 1.524 . S
C2108 C2109 1.397 . S
C2108 C2113 1.363 . S
C2109 H2080 0.950 . S
C2109 C2108 1.397 . S
C2109 C2110 1.334 . S
C2110 H2081 0.950 . S
C2110 C2109 1.334 . S
C2110 C2111 1.287 . S
C2111 C2110 1.287 . S
C2111 C2112 1.524 . S
C2111 H2114 0.999 . S
C2112 H2082 0.950 . S
C2112 C2111 1.524 . S
C2112 C2113 1.415 . S
C2113 H2083 0.950 . S
C2113 C2108 1.363 . S
C2113 C2112 1.415 . S
H2114 C2111 0.999 . S
H2115 C2096 0.913 . S
H2116 C2134 0.951 . S
H2117 C2136 0.951 . S
H2118 C2138 0.950 . S
H2119 C2139 0.950 . S
H2120 C2141 0.950 . S
H2121 C2144 0.950 . S
H2122 C2145 0.950 . S
H2123 C2147 0.950 . S
H2124 C2148 0.950 . S
H2125 C2149 0.951 . S
H2126 C2151 0.951 . S
H2127 C2153 0.950 . S
H2128 C2154 0.950 . S
H2129 C2156 0.950 . S
H2130 C2159 0.950 . S
H2131 C2160 0.950 . S
H2132 C2162 0.950 . S
H2133 C2163 0.950 . S
C2134 H2116 0.951 . S
C2134 C2135 1.366 . S
C2134 C2136 1.388 . S
C2135 C2134 1.366 . S
C2135 C2139 1.385 . S
C2136 H2117 0.951 . S
C2136 C2134 1.388 . S
C2136 C2137 1.366 . S
C2137 C2136 1.366 . S
C2137 C2138 1.414 . S
C2137 C2140 1.499 . S
C2138 H2118 0.950 . S
C2138 C2137 1.414 . S
C2138 C2139 1.374 . S
C2139 H2119 0.950 . S
C2139 C2135 1.385 . S
C2139 C2138 1.374 . S
C2140 C2137 1.499 . S
C2140 C2141 1.373 . S
C2140 C2142 1.389 . S
C2141 H2120 0.950 . S
C2141 C2140 1.373 . S
C2141 C2157 1.377 . S
C2142 C2140 1.389 . S
C2142 C2143 1.524 . S
C2142 C2156 1.377 . S
C2143 C2142 1.524 . S
C2143 C2144 1.397 . S
C2143 C2148 1.363 . S
C2144 H2121 0.950 . S
C2144 C2143 1.397 . S
C2144 C2145 1.334 . S
C2145 H2122 0.950 . S
C2145 C2144 1.334 . S
C2145 C2146 1.287 . S
C2146 C2145 1.287 . S
C2146 C2147 1.524 . S
C2146 H2165 0.913 . S
C2147 H2123 0.950 . S
C2147 C2146 1.524 . S
C2147 C2148 1.415 . S
C2148 H2124 0.950 . S
C2148 C2143 1.363 . S
C2148 C2147 1.415 . S
C2149 H2125 0.951 . S
C2149 C2150 1.366 . S
C2149 C2151 1.388 . S
C2150 C2149 1.366 . S
C2150 C2154 1.385 . S
C2151 H2126 0.951 . S
C2151 C2149 1.388 . S
C2151 C2152 1.366 . S
C2152 C2151 1.366 . S
C2152 C2153 1.414 . S
C2152 C2155 1.499 . S
C2153 H2127 0.950 . S
C2153 C2152 1.414 . S
C2153 C2154 1.374 . S
C2154 H2128 0.950 . S
C2154 C2150 1.385 . S
C2154 C2153 1.374 . S
C2155 C2152 1.499 . S
C2155 C2156 1.373 . S
C2155 C2157 1.389 . S
C2156 H2129 0.950 . S
C2156 C2142 1.377 . S
C2156 C2155 1.373 . S
C2157 C2141 1.377 . S
C2157 C2155 1.389 . S
C2157 C2158 1.524 . S
C2158 C2157 1.524 . S
C2158 C2159 1.397 . S
C2158 C2163 1.363 . S
C2159 H2130 0.950 . S
C2159 C2158 1.397 . S
C2159 C2160 1.334 . S
C2160 H2131 0.950 . S
C2160 C2159 1.334 . S
C2160 C2161 1.287 . S
C2161 C2160 1.287 . S
C2161 C2162 1.524 . S
C2161 H2164 0.999 . S
C2162 H2132 0.950 . S
C2162 C2161 1.524 . S
C2162 C2163 1.415 . S
C2163 H2133 0.950 . S
C2163 C2158 1.363 . S
C2163 C2162 1.415 . S
H2164 C2161 0.999 . S
H2165 C2146 0.913 . S
H2166 C2184 0.951 . S
H2167 C2186 0.951 . S
H2168 C2188 0.950 . S
H2169 C2189 0.950 . S
H2170 C2191 0.950 . S
H2171 C2194 0.950 . S
H2172 C2195 0.950 . S
H2173 C2197 0.950 . S
H2174 C2198 0.950 . S
H2175 C2199 0.951 . S
H2176 C2201 0.951 . S
H2177 C2203 0.950 . S
H2178 C2204 0.950 . S
H2179 C2206 0.950 . S
H2180 C2209 0.950 . S
H2181 C2210 0.950 . S
H2182 C2212 0.950 . S
H2183 C2213 0.950 . S
C2184 H2166 0.951 . S
C2184 C2185 1.366 . S
C2184 C2186 1.388 . S
C2185 C2184 1.366 . S
C2185 C2189 1.385 . S
C2186 H2167 0.951 . S
C2186 C2184 1.388 . S
C2186 C2187 1.366 . S
C2187 C2186 1.366 . S
C2187 C2188 1.414 . S
C2187 C2190 1.499 . S
C2188 H2168 0.950 . S
C2188 C2187 1.414 . S
C2188 C2189 1.374 . S
C2189 H2169 0.950 . S
C2189 C2185 1.385 . S
C2189 C2188 1.374 . S
C2190 C2187 1.499 . S
C2190 C2191 1.373 . S
C2190 C2192 1.389 . S
C2191 H2170 0.950 . S
C2191 C2190 1.373 . S
C2191 C2207 1.377 . S
C2192 C2190 1.389 . S
C2192 C2193 1.524 . S
C2192 C2206 1.377 . S
C2193 C2192 1.524 . S
C2193 C2194 1.397 . S
C2193 C2198 1.363 . S
C2194 H2171 0.950 . S
C2194 C2193 1.397 . S
C2194 C2195 1.334 . S
C2195 H2172 0.950 . S
C2195 C2194 1.334 . S
C2195 C2196 1.287 . S
C2196 C2195 1.287 . S
C2196 C2197 1.524 . S
C2196 H2215 0.913 . S
C2197 H2173 0.950 . S
C2197 C2196 1.524 . S
C2197 C2198 1.415 . S
C2198 H2174 0.950 . S
C2198 C2193 1.363 . S
C2198 C2197 1.415 . S
C2199 H2175 0.951 . S
C2199 C2200 1.366 . S
C2199 C2201 1.388 . S
C2200 C2199 1.366 . S
C2200 C2204 1.385 . S
C2201 H2176 0.951 . S
C2201 C2199 1.388 . S
C2201 C2202 1.366 . S
C2202 C2201 1.366 . S
C2202 C2203 1.414 . S
C2202 C2205 1.499 . S
C2203 H2177 0.950 . S
C2203 C2202 1.414 . S
C2203 C2204 1.374 . S
C2204 H2178 0.950 . S
C2204 C2200 1.385 . S
C2204 C2203 1.374 . S
C2205 C2202 1.499 . S
C2205 C2206 1.373 . S
C2205 C2207 1.389 . S
C2206 H2179 0.950 . S
C2206 C2192 1.377 . S
C2206 C2205 1.373 . S
C2207 C2191 1.377 . S
C2207 C2205 1.389 . S
C2207 C2208 1.524 . S
C2208 C2207 1.524 . S
C2208 C2209 1.397 . S
C2208 C2213 1.363 . S
C2209 H2180 0.950 . S
C2209 C2208 1.397 . S
C2209 C2210 1.334 . S
C2210 H2181 0.950 . S
C2210 C2209 1.334 . S
C2210 C2211 1.287 . S
C2211 C2210 1.287 . S
C2211 C2212 1.524 . S
C2211 H2214 0.999 . S
C2212 H2182 0.950 . S
C2212 C2211 1.524 . S
C2212 C2213 1.415 . S
C2213 H2183 0.950 . S
C2213 C2208 1.363 . S
C2213 C2212 1.415 . S
H2214 C2211 0.999 . S
H2215 C2196 0.913 . S
H2216 C2234 0.951 . S
H2217 C2236 0.951 . S
H2218 C2238 0.950 . S
H2219 C2239 0.950 . S
H2220 C2241 0.950 . S
H2221 C2244 0.950 . S
H2222 C2245 0.950 . S
H2223 C2247 0.950 . S
H2224 C2248 0.950 . S
H2225 C2249 0.951 . S
H2226 C2251 0.951 . S
H2227 C2253 0.950 . S
H2228 C2254 0.950 . S
H2229 C2256 0.950 . S
H2230 C2259 0.950 . S
H2231 C2260 0.950 . S
H2232 C2262 0.950 . S
H2233 C2263 0.950 . S
C2234 H2216 0.951 . S
C2234 C2235 1.366 . S
C2234 C2236 1.388 . S
C2235 C2234 1.366 . S
C2235 C2239 1.385 . S
C2236 H2217 0.951 . S
C2236 C2234 1.388 . S
C2236 C2237 1.366 . S
C2237 C2236 1.366 . S
C2237 C2238 1.414 . S
C2237 C2240 1.499 . S
C2238 H2218 0.950 . S
C2238 C2237 1.414 . S
C2238 C2239 1.374 . S
C2239 H2219 0.950 . S
C2239 C2235 1.385 . S
C2239 C2238 1.374 . S
C2240 C2237 1.499 . S
C2240 C2241 1.373 . S
C2240 C2242 1.389 . S
C2241 H2220 0.950 . S
C2241 C2240 1.373 . S
C2241 C2257 1.377 . S
C2242 C2240 1.389 . S
C2242 C2243 1.524 . S
C2242 C2256 1.377 . S
C2243 C2242 1.524 . S
C2243 C2244 1.397 . S
C2243 C2248 1.363 . S
C2244 H2221 0.950 . S
C2244 C2243 1.397 . S
C2244 C2245 1.334 . S
C2245 H2222 0.950 . S
C2245 C2244 1.334 . S
C2245 C2246 1.287 . S
C2246 C2245 1.287 . S
C2246 C2247 1.524 . S
C2246 H2265 0.913 . S
C2247 H2223 0.950 . S
C2247 C2246 1.524 . S
C2247 C2248 1.415 . S
C2248 H2224 0.950 . S
C2248 C2243 1.363 . S
C2248 C2247 1.415 . S
C2249 H2225 0.951 . S
C2249 C2250 1.366 . S
C2249 C2251 1.388 . S
C2250 C2249 1.366 . S
C2250 C2254 1.385 . S
C2251 H2226 0.951 . S
C2251 C2249 1.388 . S
C2251 C2252 1.366 . S
C2252 C2251 1.366 . S
C2252 C2253 1.414 . S
C2252 C2255 1.499 . S
C2253 H2227 0.950 . S
C2253 C2252 1.414 . S
C2253 C2254 1.374 . S
C2254 H2228 0.950 . S
C2254 C2250 1.385 . S
C2254 C2253 1.374 . S
C2255 C2252 1.499 . S
C2255 C2256 1.373 . S
C2255 C2257 1.389 . S
C2256 H2229 0.950 . S
C2256 C2242 1.377 . S
C2256 C2255 1.373 . S
C2257 C2241 1.377 . S
C2257 C2255 1.389 . S
C2257 C2258 1.524 . S
C2258 C2257 1.524 . S
C2258 C2259 1.397 . S
C2258 C2263 1.363 . S
C2259 H2230 0.950 . S
C2259 C2258 1.397 . S
C2259 C2260 1.334 . S
C2260 H2231 0.950 . S
C2260 C2259 1.334 . S
C2260 C2261 1.287 . S
C2261 C2260 1.287 . S
C2261 C2262 1.524 . S
C2261 H2264 0.999 . S
C2262 H2232 0.950 . S
C2262 C2261 1.524 . S
C2262 C2263 1.415 . S
C2263 H2233 0.950 . S
C2263 C2258 1.363 . S
C2263 C2262 1.415 . S
H2264 C2261 0.999 . S
H2265 C2246 0.913 . S
H2266 C2284 0.951 . S
H2267 C2286 0.951 . S
H2268 C2288 0.950 . S
H2269 C2289 0.950 . S
H2270 C2291 0.950 . S
H2271 C2294 0.950 . S
H2272 C2295 0.950 . S
H2273 C2297 0.950 . S
H2274 C2298 0.950 . S
H2275 C2299 0.951 . S
H2276 C2301 0.951 . S
H2277 C2303 0.950 . S
H2278 C2304 0.950 . S
H2279 C2306 0.950 . S
H2280 C2309 0.950 . S
H2281 C2310 0.950 . S
H2282 C2312 0.950 . S
H2283 C2313 0.950 . S
C2284 H2266 0.951 . S
C2284 C2285 1.366 . S
C2284 C2286 1.388 . S
C2285 C2284 1.366 . S
C2285 C2289 1.385 . S
C2286 H2267 0.951 . S
C2286 C2284 1.388 . S
C2286 C2287 1.366 . S
C2287 C2286 1.366 . S
C2287 C2288 1.414 . S
C2287 C2290 1.499 . S
C2288 H2268 0.950 . S
C2288 C2287 1.414 . S
C2288 C2289 1.374 . S
C2289 H2269 0.950 . S
C2289 C2285 1.385 . S
C2289 C2288 1.374 . S
C2290 C2287 1.499 . S
C2290 C2291 1.373 . S
C2290 C2292 1.389 . S
C2291 H2270 0.950 . S
C2291 C2290 1.373 . S
C2291 C2307 1.377 . S
C2292 C2290 1.389 . S
C2292 C2293 1.524 . S
C2292 C2306 1.377 . S
C2293 C2292 1.524 . S
C2293 C2294 1.397 . S
C2293 C2298 1.363 . S
C2294 H2271 0.950 . S
C2294 C2293 1.397 . S
C2294 C2295 1.334 . S
C2295 H2272 0.950 . S
C2295 C2294 1.334 . S
C2295 C2296 1.287 . S
C2296 C2295 1.287 . S
C2296 C2297 1.524 . S
C2296 H2315 0.913 . S
C2297 H2273 0.950 . S
C2297 C2296 1.524 . S
C2297 C2298 1.415 . S
C2298 H2274 0.950 . S
C2298 C2293 1.363 . S
C2298 C2297 1.415 . S
C2299 H2275 0.951 . S
C2299 C2300 1.366 . S
C2299 C2301 1.388 . S
C2300 C2299 1.366 . S
C2300 C2304 1.385 . S
C2301 H2276 0.951 . S
C2301 C2299 1.388 . S
C2301 C2302 1.366 . S
C2302 C2301 1.366 . S
C2302 C2303 1.414 . S
C2302 C2305 1.499 . S
C2303 H2277 0.950 . S
C2303 C2302 1.414 . S
C2303 C2304 1.374 . S
C2304 H2278 0.950 . S
C2304 C2300 1.385 . S
C2304 C2303 1.374 . S
C2305 C2302 1.499 . S
C2305 C2306 1.373 . S
C2305 C2307 1.389 . S
C2306 H2279 0.950 . S
C2306 C2292 1.377 . S
C2306 C2305 1.373 . S
C2307 C2291 1.377 . S
C2307 C2305 1.389 . S
C2307 C2308 1.524 . S
C2308 C2307 1.524 . S
C2308 C2309 1.397 . S
C2308 C2313 1.363 . S
C2309 H2280 0.950 . S
C2309 C2308 1.397 . S
C2309 C2310 1.334 . S
C2310 H2281 0.950 . S
C2310 C2309 1.334 . S
C2310 C2311 1.287 . S
C2311 C2310 1.287 . S
C2311 C2312 1.524 . S
C2311 H2314 0.999 . S
C2312 H2282 0.950 . S
C2312 C2311 1.524 . S
C2312 C2313 1.415 . S
C2313 H2283 0.950 . S
C2313 C2308 1.363 . S
C2313 C2312 1.415 . S
H2314 C2311 0.999 . S
H2315 C2296 0.913 . S
H2316 C2334 0.951 . S
H2317 C2336 0.951 . S
H2318 C2338 0.950 . S
H2319 C2339 0.950 . S
H2320 C2341 0.950 . S
H2321 C2344 0.950 . S
H2322 C2345 0.950 . S
H2323 C2347 0.950 . S
H2324 C2348 0.950 . S
H2325 C2349 0.951 . S
H2326 C2351 0.951 . S
H2327 C2353 0.950 . S
H2328 C2354 0.950 . S
H2329 C2356 0.950 . S
H2330 C2359 0.950 . S
H2331 C2360 0.950 . S
H2332 C2362 0.950 . S
H2333 C2363 0.950 . S
C2334 H2316 0.951 . S
C2334 C2335 1.366 . S
C2334 C2336 1.388 . S
C2335 C2334 1.366 . S
C2335 C2339 1.385 . S
C2336 H2317 0.951 . S
C2336 C2334 1.388 . S
C2336 C2337 1.366 . S
C2337 C2336 1.366 . S
C2337 C2338 1.414 . S
C2337 C2340 1.499 . S
C2338 H2318 0.950 . S
C2338 C2337 1.414 . S
C2338 C2339 1.374 . S
C2339 H2319 0.950 . S
C2339 C2335 1.385 . S
C2339 C2338 1.374 . S
C2340 C2337 1.499 . S
C2340 C2341 1.373 . S
C2340 C2342 1.389 . S
C2341 H2320 0.950 . S
C2341 C2340 1.373 . S
C2341 C2357 1.377 . S
C2342 C2340 1.389 . S
C2342 C2343 1.524 . S
C2342 C2356 1.377 . S
C2343 C2342 1.524 . S
C2343 C2344 1.397 . S
C2343 C2348 1.363 . S
C2344 H2321 0.950 . S
C2344 C2343 1.397 . S
C2344 C2345 1.334 . S
C2345 H2322 0.950 . S
C2345 C2344 1.334 . S
C2345 C2346 1.287 . S
C2346 C2345 1.287 . S
C2346 C2347 1.524 . S
C2346 H2365 0.913 . S
C2347 H2323 0.950 . S
C2347 C2346 1.524 . S
C2347 C2348 1.415 . S
C2348 H2324 0.950 . S
C2348 C2343 1.363 . S
C2348 C2347 1.415 . S
C2349 H2325 0.951 . S
C2349 C2350 1.366 . S
C2349 C2351 1.388 . S
C2350 C2349 1.366 . S
C2350 C2354 1.385 . S
C2351 H2326 0.951 . S
C2351 C2349 1.388 . S
C2351 C2352 1.366 . S
C2352 C2351 1.366 . S
C2352 C2353 1.414 . S
C2352 C2355 1.499 . S
C2353 H2327 0.950 . S
C2353 C2352 1.414 . S
C2353 C2354 1.374 . S
C2354 H2328 0.950 . S
C2354 C2350 1.385 . S
C2354 C2353 1.374 . S
C2355 C2352 1.499 . S
C2355 C2356 1.373 . S
C2355 C2357 1.389 . S
C2356 H2329 0.950 . S
C2356 C2342 1.377 . S
C2356 C2355 1.373 . S
C2357 C2341 1.377 . S
C2357 C2355 1.389 . S
C2357 C2358 1.524 . S
C2358 C2357 1.524 . S
C2358 C2359 1.397 . S
C2358 C2363 1.363 . S
C2359 H2330 0.950 . S
C2359 C2358 1.397 . S
C2359 C2360 1.334 . S
C2360 H2331 0.950 . S
C2360 C2359 1.334 . S
C2360 C2361 1.287 . S
C2361 C2360 1.287 . S
C2361 C2362 1.524 . S
C2361 H2364 0.999 . S
C2362 H2332 0.950 . S
C2362 C2361 1.524 . S
C2362 C2363 1.415 . S
C2363 H2333 0.950 . S
C2363 C2358 1.363 . S
C2363 C2362 1.415 . S
H2364 C2361 0.999 . S
H2365 C2346 0.913 . S
H2366 C2384 0.951 . S
H2367 C2386 0.951 . S
H2368 C2388 0.950 . S
H2369 C2389 0.950 . S
H2370 C2391 0.950 . S
H2371 C2394 0.950 . S
H2372 C2395 0.950 . S
H2373 C2397 0.950 . S
H2374 C2398 0.950 . S
H2375 C2399 0.951 . S
H2376 C2401 0.951 . S
H2377 C2403 0.950 . S
H2378 C2404 0.950 . S
H2379 C2406 0.950 . S
H2380 C2409 0.950 . S
H2381 C2410 0.950 . S
H2382 C2412 0.950 . S
H2383 C2413 0.950 . S
C2384 H2366 0.951 . S
C2384 C2385 1.366 . S
C2384 C2386 1.388 . S
C2385 C2384 1.366 . S
C2385 C2389 1.385 . S
C2386 H2367 0.951 . S
C2386 C2384 1.388 . S
C2386 C2387 1.366 . S
C2387 C2386 1.366 . S
C2387 C2388 1.414 . S
C2387 C2390 1.499 . S
C2388 H2368 0.950 . S
C2388 C2387 1.414 . S
C2388 C2389 1.374 . S
C2389 H2369 0.950 . S
C2389 C2385 1.385 . S
C2389 C2388 1.374 . S
C2390 C2387 1.499 . S
C2390 C2391 1.373 . S
C2390 C2392 1.389 . S
C2391 H2370 0.950 . S
C2391 C2390 1.373 . S
C2391 C2407 1.377 . S
C2392 C2390 1.389 . S
C2392 C2393 1.524 . S
C2392 C2406 1.377 . S
C2393 C2392 1.524 . S
C2393 C2394 1.397 . S
C2393 C2398 1.363 . S
C2394 H2371 0.950 . S
C2394 C2393 1.397 . S
C2394 C2395 1.334 . S
C2395 H2372 0.950 . S
C2395 C2394 1.334 . S
C2395 C2396 1.287 . S
C2396 C2395 1.287 . S
C2396 C2397 1.524 . S
C2396 H2415 0.913 . S
C2397 H2373 0.950 . S
C2397 C2396 1.524 . S
C2397 C2398 1.415 . S
C2398 H2374 0.950 . S
C2398 C2393 1.363 . S
C2398 C2397 1.415 . S
C2399 H2375 0.951 . S
C2399 C2400 1.366 . S
C2399 C2401 1.388 . S
C2400 C2399 1.366 . S
C2400 C2404 1.385 . S
C2401 H2376 0.951 . S
C2401 C2399 1.388 . S
C2401 C2402 1.366 . S
C2402 C2401 1.366 . S
C2402 C2403 1.414 . S
C2402 C2405 1.499 . S
C2403 H2377 0.950 . S
C2403 C2402 1.414 . S
C2403 C2404 1.374 . S
C2404 H2378 0.950 . S
C2404 C2400 1.385 . S
C2404 C2403 1.374 . S
C2405 C2402 1.499 . S
C2405 C2406 1.373 . S
C2405 C2407 1.389 . S
C2406 H2379 0.950 . S
C2406 C2392 1.377 . S
C2406 C2405 1.373 . S
C2407 C2391 1.377 . S
C2407 C2405 1.389 . S
C2407 C2408 1.524 . S
C2408 C2407 1.524 . S
C2408 C2409 1.397 . S
C2408 C2413 1.363 . S
C2409 H2380 0.950 . S
C2409 C2408 1.397 . S
C2409 C2410 1.334 . S
C2410 H2381 0.950 . S
C2410 C2409 1.334 . S
C2410 C2411 1.287 . S
C2411 C2410 1.287 . S
C2411 C2412 1.524 . S
C2411 H2414 0.999 . S
C2412 H2382 0.950 . S
C2412 C2411 1.524 . S
C2412 C2413 1.415 . S
C2413 H2383 0.950 . S
C2413 C2408 1.363 . S
C2413 C2412 1.415 . S
H2414 C2411 0.999 . S
H2415 C2396 0.913 . S
H2416 C2434 0.951 . S
H2417 C2436 0.951 . S
H2418 C2438 0.950 . S
H2419 C2439 0.950 . S
H2420 C2441 0.950 . S
H2421 C2444 0.950 . S
H2422 C2445 0.950 . S
H2423 C2447 0.950 . S
H2424 C2448 0.950 . S
H2425 C2449 0.951 . S
H2426 C2451 0.951 . S
H2427 C2453 0.950 . S
H2428 C2454 0.950 . S
H2429 C2456 0.950 . S
H2430 C2459 0.950 . S
H2431 C2460 0.950 . S
H2432 C2462 0.950 . S
H2433 C2463 0.950 . S
C2434 H2416 0.951 . S
C2434 C2435 1.366 . S
C2434 C2436 1.388 . S
C2435 C2434 1.366 . S
C2435 C2439 1.385 . S
C2436 H2417 0.951 . S
C2436 C2434 1.388 . S
C2436 C2437 1.366 . S
C2437 C2436 1.366 . S
C2437 C2438 1.414 . S
C2437 C2440 1.499 . S
C2438 H2418 0.950 . S
C2438 C2437 1.414 . S
C2438 C2439 1.374 . S
C2439 H2419 0.950 . S
C2439 C2435 1.385 . S
C2439 C2438 1.374 . S
C2440 C2437 1.499 . S
C2440 C2441 1.373 . S
C2440 C2442 1.389 . S
C2441 H2420 0.950 . S
C2441 C2440 1.373 . S
C2441 C2457 1.377 . S
C2442 C2440 1.389 . S
C2442 C2443 1.524 . S
C2442 C2456 1.377 . S
C2443 C2442 1.524 . S
C2443 C2444 1.397 . S
C2443 C2448 1.363 . S
C2444 H2421 0.950 . S
C2444 C2443 1.397 . S
C2444 C2445 1.334 . S
C2445 H2422 0.950 . S
C2445 C2444 1.334 . S
C2445 C2446 1.287 . S
C2446 C2445 1.287 . S
C2446 C2447 1.524 . S
C2446 H2465 0.913 . S
C2447 H2423 0.950 . S
C2447 C2446 1.524 . S
C2447 C2448 1.415 . S
C2448 H2424 0.950 . S
C2448 C2443 1.363 . S
C2448 C2447 1.415 . S
C2449 H2425 0.951 . S
C2449 C2450 1.366 . S
C2449 C2451 1.388 . S
C2450 C2449 1.366 . S
C2450 C2454 1.385 . S
C2451 H2426 0.951 . S
C2451 C2449 1.388 . S
C2451 C2452 1.366 . S
C2452 C2451 1.366 . S
C2452 C2453 1.414 . S
C2452 C2455 1.499 . S
C2453 H2427 0.950 . S
C2453 C2452 1.414 . S
C2453 C2454 1.374 . S
C2454 H2428 0.950 . S
C2454 C2450 1.385 . S
C2454 C2453 1.374 . S
C2455 C2452 1.499 . S
C2455 C2456 1.373 . S
C2455 C2457 1.389 . S
C2456 H2429 0.950 . S
C2456 C2442 1.377 . S
C2456 C2455 1.373 . S
C2457 C2441 1.377 . S
C2457 C2455 1.389 . S
C2457 C2458 1.524 . S
C2458 C2457 1.524 . S
C2458 C2459 1.397 . S
C2458 C2463 1.363 . S
C2459 H2430 0.950 . S
C2459 C2458 1.397 . S
C2459 C2460 1.334 . S
C2460 H2431 0.950 . S
C2460 C2459 1.334 . S
C2460 C2461 1.287 . S
C2461 C2460 1.287 . S
C2461 C2462 1.524 . S
C2461 H2464 0.999 . S
C2462 H2432 0.950 . S
C2462 C2461 1.524 . S
C2462 C2463 1.415 . S
C2463 H2433 0.950 . S
C2463 C2458 1.363 . S
C2463 C2462 1.415 . S
H2464 C2461 0.999 . S
H2465 C2446 0.913 . S
H2466 C2484 0.951 . S
H2467 C2486 0.951 . S
H2468 C2488 0.950 . S
H2469 C2489 0.950 . S
H2470 C2491 0.950 . S
H2471 C2494 0.950 . S
H2472 C2495 0.950 . S
H2473 C2497 0.950 . S
H2474 C2498 0.950 . S
H2475 C2499 0.951 . S
H2476 C2501 0.951 . S
H2477 C2503 0.950 . S
H2478 C2504 0.950 . S
H2479 C2506 0.950 . S
H2480 C2509 0.950 . S
H2481 C2510 0.950 . S
H2482 C2512 0.950 . S
H2483 C2513 0.950 . S
C2484 H2466 0.951 . S
C2484 C2485 1.366 . S
C2484 C2486 1.388 . S
C2485 C2484 1.366 . S
C2485 C2489 1.385 . S
C2486 H2467 0.951 . S
C2486 C2484 1.388 . S
C2486 C2487 1.366 . S
C2487 C2486 1.366 . S
C2487 C2488 1.414 . S
C2487 C2490 1.499 . S
C2488 H2468 0.950 . S
C2488 C2487 1.414 . S
C2488 C2489 1.374 . S
C2489 H2469 0.950 . S
C2489 C2485 1.385 . S
C2489 C2488 1.374 . S
C2490 C2487 1.499 . S
C2490 C2491 1.373 . S
C2490 C2492 1.389 . S
C2491 H2470 0.950 . S
C2491 C2490 1.373 . S
C2491 C2507 1.377 . S
C2492 C2490 1.389 . S
C2492 C2493 1.524 . S
C2492 C2506 1.377 . S
C2493 C2492 1.524 . S
C2493 C2494 1.397 . S
C2493 C2498 1.363 . S
C2494 H2471 0.950 . S
C2494 C2493 1.397 . S
C2494 C2495 1.334 . S
C2495 H2472 0.950 . S
C2495 C2494 1.334 . S
C2495 C2496 1.287 . S
C2496 C2495 1.287 . S
C2496 C2497 1.524 . S
C2496 H2515 0.913 . S
C2497 H2473 0.950 . S
C2497 C2496 1.524 . S
C2497 C2498 1.415 . S
C2498 H2474 0.950 . S
C2498 C2493 1.363 . S
C2498 C2497 1.415 . S
C2499 H2475 0.951 . S
C2499 C2500 1.366 . S
C2499 C2501 1.388 . S
C2500 C2499 1.366 . S
C2500 C2504 1.385 . S
C2501 H2476 0.951 . S
C2501 C2499 1.388 . S
C2501 C2502 1.366 . S
C2502 C2501 1.366 . S
C2502 C2503 1.414 . S
C2502 C2505 1.499 . S
C2503 H2477 0.950 . S
C2503 C2502 1.414 . S
C2503 C2504 1.374 . S
C2504 H2478 0.950 . S
C2504 C2500 1.385 . S
C2504 C2503 1.374 . S
C2505 C2502 1.499 . S
C2505 C2506 1.373 . S
C2505 C2507 1.389 . S
C2506 H2479 0.950 . S
C2506 C2492 1.377 . S
C2506 C2505 1.373 . S
C2507 C2491 1.377 . S
C2507 C2505 1.389 . S
C2507 C2508 1.524 . S
C2508 C2507 1.524 . S
C2508 C2509 1.397 . S
C2508 C2513 1.363 . S
C2509 H2480 0.950 . S
C2509 C2508 1.397 . S
C2509 C2510 1.334 . S
C2510 H2481 0.950 . S
C2510 C2509 1.334 . S
C2510 C2511 1.287 . S
C2511 C2510 1.287 . S
C2511 C2512 1.524 . S
C2511 H2514 0.999 . S
C2512 H2482 0.950 . S
C2512 C2511 1.524 . S
C2512 C2513 1.415 . S
C2513 H2483 0.950 . S
C2513 C2508 1.363 . S
C2513 C2512 1.415 . S
H2514 C2511 0.999 . S
H2515 C2496 0.913 . S
H2516 C2534 0.951 . S
H2517 C2536 0.951 . S
H2518 C2538 0.950 . S
H2519 C2539 0.950 . S
H2520 C2541 0.950 . S
H2521 C2544 0.950 . S
H2522 C2545 0.950 . S
H2523 C2547 0.950 . S
H2524 C2548 0.950 . S
H2525 C2549 0.951 . S
H2526 C2551 0.951 . S
H2527 C2553 0.950 . S
H2528 C2554 0.950 . S
H2529 C2556 0.950 . S
H2530 C2559 0.950 . S
H2531 C2560 0.950 . S
H2532 C2562 0.950 . S
H2533 C2563 0.950 . S
C2534 H2516 0.951 . S
C2534 C2535 1.366 . S
C2534 C2536 1.388 . S
C2535 C2534 1.366 . S
C2535 C2539 1.385 . S
C2536 H2517 0.951 . S
C2536 C2534 1.388 . S
C2536 C2537 1.366 . S
C2537 C2536 1.366 . S
C2537 C2538 1.414 . S
C2537 C2540 1.499 . S
C2538 H2518 0.950 . S
C2538 C2537 1.414 . S
C2538 C2539 1.374 . S
C2539 H2519 0.950 . S
C2539 C2535 1.385 . S
C2539 C2538 1.374 . S
C2540 C2537 1.499 . S
C2540 C2541 1.373 . S
C2540 C2542 1.389 . S
C2541 H2520 0.950 . S
C2541 C2540 1.373 . S
C2541 C2557 1.377 . S
C2542 C2540 1.389 . S
C2542 C2543 1.524 . S
C2542 C2556 1.377 . S
C2543 C2542 1.524 . S
C2543 C2544 1.397 . S
C2543 C2548 1.363 . S
C2544 H2521 0.950 . S
C2544 C2543 1.397 . S
C2544 C2545 1.334 . S
C2545 H2522 0.950 . S
C2545 C2544 1.334 . S
C2545 C2546 1.287 . S
C2546 C2545 1.287 . S
C2546 C2547 1.524 . S
C2546 H2565 0.913 . S
C2547 H2523 0.950 . S
C2547 C2546 1.524 . S
C2547 C2548 1.415 . S
C2548 H2524 0.950 . S
C2548 C2543 1.363 . S
C2548 C2547 1.415 . S
C2549 H2525 0.951 . S
C2549 C2550 1.366 . S
C2549 C2551 1.388 . S
C2550 C2549 1.366 . S
C2550 C2554 1.385 . S
C2551 H2526 0.951 . S
C2551 C2549 1.388 . S
C2551 C2552 1.366 . S
C2552 C2551 1.366 . S
C2552 C2553 1.414 . S
C2552 C2555 1.499 . S
C2553 H2527 0.950 . S
C2553 C2552 1.414 . S
C2553 C2554 1.374 . S
C2554 H2528 0.950 . S
C2554 C2550 1.385 . S
C2554 C2553 1.374 . S
C2555 C2552 1.499 . S
C2555 C2556 1.373 . S
C2555 C2557 1.389 . S
C2556 H2529 0.950 . S
C2556 C2542 1.377 . S
C2556 C2555 1.373 . S
C2557 C2541 1.377 . S
C2557 C2555 1.389 . S
C2557 C2558 1.524 . S
C2558 C2557 1.524 . S
C2558 C2559 1.397 . S
C2558 C2563 1.363 . S
C2559 H2530 0.950 . S
C2559 C2558 1.397 . S
C2559 C2560 1.334 . S
C2560 H2531 0.950 . S
C2560 C2559 1.334 . S
C2560 C2561 1.287 . S
C2561 C2560 1.287 . S
C2561 C2562 1.524 . S
C2561 H2564 0.999 . S
C2562 H2532 0.950 . S
C2562 C2561 1.524 . S
C2562 C2563 1.415 . S
C2563 H2533 0.950 . S
C2563 C2558 1.363 . S
C2563 C2562 1.415 . S
H2564 C2561 0.999 . S
H2565 C2546 0.913 . S
H2566 C2584 0.951 . S
H2567 C2586 0.951 . S
H2568 C2588 0.950 . S
H2569 C2589 0.950 . S
H2570 C2591 0.950 . S
H2571 C2594 0.950 . S
H2572 C2595 0.950 . S
H2573 C2597 0.950 . S
H2574 C2598 0.950 . S
H2575 C2599 0.951 . S
H2576 C2601 0.951 . S
H2577 C2603 0.950 . S
H2578 C2604 0.950 . S
H2579 C2606 0.950 . S
H2580 C2609 0.950 . S
H2581 C2610 0.950 . S
H2582 C2612 0.950 . S
H2583 C2613 0.950 . S
C2584 H2566 0.951 . S
C2584 C2585 1.366 . S
C2584 C2586 1.388 . S
C2585 C2584 1.366 . S
C2585 C2589 1.385 . S
C2586 H2567 0.951 . S
C2586 C2584 1.388 . S
C2586 C2587 1.366 . S
C2587 C2586 1.366 . S
C2587 C2588 1.414 . S
C2587 C2590 1.499 . S
C2588 H2568 0.950 . S
C2588 C2587 1.414 . S
C2588 C2589 1.374 . S
C2589 H2569 0.950 . S
C2589 C2585 1.385 . S
C2589 C2588 1.374 . S
C2590 C2587 1.499 . S
C2590 C2591 1.373 . S
C2590 C2592 1.389 . S
C2591 H2570 0.950 . S
C2591 C2590 1.373 . S
C2591 C2607 1.377 . S
C2592 C2590 1.389 . S
C2592 C2593 1.524 . S
C2592 C2606 1.377 . S
C2593 C2592 1.524 . S
C2593 C2594 1.397 . S
C2593 C2598 1.363 . S
C2594 H2571 0.950 . S
C2594 C2593 1.397 . S
C2594 C2595 1.334 . S
C2595 H2572 0.950 . S
C2595 C2594 1.334 . S
C2595 C2596 1.287 . S
C2596 C2595 1.287 . S
C2596 C2597 1.524 . S
C2596 H2615 0.913 . S
C2597 H2573 0.950 . S
C2597 C2596 1.524 . S
C2597 C2598 1.415 . S
C2598 H2574 0.950 . S
C2598 C2593 1.363 . S
C2598 C2597 1.415 . S
C2599 H2575 0.951 . S
C2599 C2600 1.366 . S
C2599 C2601 1.388 . S
C2600 C2599 1.366 . S
C2600 C2604 1.385 . S
C2601 H2576 0.951 . S
C2601 C2599 1.388 . S
C2601 C2602 1.366 . S
C2602 C2601 1.366 . S
C2602 C2603 1.414 . S
C2602 C2605 1.499 . S
C2603 H2577 0.950 . S
C2603 C2602 1.414 . S
C2603 C2604 1.374 . S
C2604 H2578 0.950 . S
C2604 C2600 1.385 . S
C2604 C2603 1.374 . S
C2605 C2602 1.499 . S
C2605 C2606 1.373 . S
C2605 C2607 1.389 . S
C2606 H2579 0.950 . S
C2606 C2592 1.377 . S
C2606 C2605 1.373 . S
C2607 C2591 1.377 . S
C2607 C2605 1.389 . S
C2607 C2608 1.524 . S
C2608 C2607 1.524 . S
C2608 C2609 1.397 . S
C2608 C2613 1.363 . S
C2609 H2580 0.950 . S
C2609 C2608 1.397 . S
C2609 C2610 1.334 . S
C2610 H2581 0.950 . S
C2610 C2609 1.334 . S
C2610 C2611 1.287 . S
C2611 C2610 1.287 . S
C2611 C2612 1.524 . S
C2611 H2614 0.999 . S
C2612 H2582 0.950 . S
C2612 C2611 1.524 . S
C2612 C2613 1.415 . S
C2613 H2583 0.950 . S
C2613 C2608 1.363 . S
C2613 C2612 1.415 . S
H2614 C2611 0.999 . S
H2615 C2596 0.913 . S
H2616 C2634 0.951 . S
H2617 C2636 0.951 . S
H2618 C2638 0.950 . S
H2619 C2639 0.950 . S
H2620 C2641 0.950 . S
H2621 C2644 0.950 . S
H2622 C2645 0.950 . S
H2623 C2647 0.950 . S
H2624 C2648 0.950 . S
H2625 C2649 0.951 . S
H2626 C2651 0.951 . S
H2627 C2653 0.950 . S
H2628 C2654 0.950 . S
H2629 C2656 0.950 . S
H2630 C2659 0.950 . S
H2631 C2660 0.950 . S
H2632 C2662 0.950 . S
H2633 C2663 0.950 . S
C2634 H2616 0.951 . S
C2634 C2635 1.366 . S
C2634 C2636 1.388 . S
C2635 C2634 1.366 . S
C2635 C2639 1.385 . S
C2636 H2617 0.951 . S
C2636 C2634 1.388 . S
C2636 C2637 1.366 . S
C2637 C2636 1.366 . S
C2637 C2638 1.414 . S
C2637 C2640 1.499 . S
C2638 H2618 0.950 . S
C2638 C2637 1.414 . S
C2638 C2639 1.374 . S
C2639 H2619 0.950 . S
C2639 C2635 1.385 . S
C2639 C2638 1.374 . S
C2640 C2637 1.499 . S
C2640 C2641 1.373 . S
C2640 C2642 1.389 . S
C2641 H2620 0.950 . S
C2641 C2640 1.373 . S
C2641 C2657 1.377 . S
C2642 C2640 1.389 . S
C2642 C2643 1.524 . S
C2642 C2656 1.377 . S
C2643 C2642 1.524 . S
C2643 C2644 1.397 . S
C2643 C2648 1.363 . S
C2644 H2621 0.950 . S
C2644 C2643 1.397 . S
C2644 C2645 1.334 . S
C2645 H2622 0.950 . S
C2645 C2644 1.334 . S
C2645 C2646 1.287 . S
C2646 C2645 1.287 . S
C2646 C2647 1.524 . S
C2646 H2665 0.913 . S
C2647 H2623 0.950 . S
C2647 C2646 1.524 . S
C2647 C2648 1.415 . S
C2648 H2624 0.950 . S
C2648 C2643 1.363 . S
C2648 C2647 1.415 . S
C2649 H2625 0.951 . S
C2649 C2650 1.366 . S
C2649 C2651 1.388 . S
C2650 C2649 1.366 . S
C2650 C2654 1.385 . S
C2651 H2626 0.951 . S
C2651 C2649 1.388 . S
C2651 C2652 1.366 . S
C2652 C2651 1.366 . S
C2652 C2653 1.414 . S
C2652 C2655 1.499 . S
C2653 H2627 0.950 . S
C2653 C2652 1.414 . S
C2653 C2654 1.374 . S
C2654 H2628 0.950 . S
C2654 C2650 1.385 . S
C2654 C2653 1.374 . S
C2655 C2652 1.499 . S
C2655 C2656 1.373 . S
C2655 C2657 1.389 . S
C2656 H2629 0.950 . S
C2656 C2642 1.377 . S
C2656 C2655 1.373 . S
C2657 C2641 1.377 . S
C2657 C2655 1.389 . S
C2657 C2658 1.524 . S
C2658 C2657 1.524 . S
C2658 C2659 1.397 . S
C2658 C2663 1.363 . S
C2659 H2630 0.950 . S
C2659 C2658 1.397 . S
C2659 C2660 1.334 . S
C2660 H2631 0.950 . S
C2660 C2659 1.334 . S
C2660 C2661 1.287 . S
C2661 C2660 1.287 . S
C2661 C2662 1.524 . S
C2661 H2664 0.999 . S
C2662 H2632 0.950 . S
C2662 C2661 1.524 . S
C2662 C2663 1.415 . S
C2663 H2633 0.950 . S
C2663 C2658 1.363 . S
C2663 C2662 1.415 . S
H2664 C2661 0.999 . S
H2665 C2646 0.913 . S
H2666 C2684 0.951 . S
H2667 C2686 0.951 . S
H2668 C2688 0.950 . S
H2669 C2689 0.950 . S
H2670 C2691 0.950 . S
H2671 C2694 0.950 . S
H2672 C2695 0.950 . S
H2673 C2697 0.950 . S
H2674 C2698 0.950 . S
H2675 C2699 0.951 . S
H2676 C2701 0.951 . S
H2677 C2703 0.950 . S
H2678 C2704 0.950 . S
H2679 C2706 0.950 . S
H2680 C2709 0.950 . S
H2681 C2710 0.950 . S
H2682 C2712 0.950 . S
H2683 C2713 0.950 . S
C2684 H2666 0.951 . S
C2684 C2685 1.366 . S
C2684 C2686 1.388 . S
C2685 C2684 1.366 . S
C2685 C2689 1.385 . S
C2686 H2667 0.951 . S
C2686 C2684 1.388 . S
C2686 C2687 1.366 . S
C2687 C2686 1.366 . S
C2687 C2688 1.414 . S
C2687 C2690 1.499 . S
C2688 H2668 0.950 . S
C2688 C2687 1.414 . S
C2688 C2689 1.374 . S
C2689 H2669 0.950 . S
C2689 C2685 1.385 . S
C2689 C2688 1.374 . S
C2690 C2687 1.499 . S
C2690 C2691 1.373 . S
C2690 C2692 1.389 . S
C2691 H2670 0.950 . S
C2691 C2690 1.373 . S
C2691 C2707 1.377 . S
C2692 C2690 1.389 . S
C2692 C2693 1.524 . S
C2692 C2706 1.377 . S
C2693 C2692 1.524 . S
C2693 C2694 1.397 . S
C2693 C2698 1.363 . S
C2694 H2671 0.950 . S
C2694 C2693 1.397 . S
C2694 C2695 1.334 . S
C2695 H2672 0.950 . S
C2695 C2694 1.334 . S
C2695 C2696 1.287 . S
C2696 C2695 1.287 . S
C2696 C2697 1.524 . S
C2696 H2715 0.913 . S
C2697 H2673 0.950 . S
C2697 C2696 1.524 . S
C2697 C2698 1.415 . S
C2698 H2674 0.950 . S
C2698 C2693 1.363 . S
C2698 C2697 1.415 . S
C2699 H2675 0.951 . S
C2699 C2700 1.366 . S
C2699 C2701 1.388 . S
C2700 C2699 1.366 . S
C2700 C2704 1.385 . S
C2701 H2676 0.951 . S
C2701 C2699 1.388 . S
C2701 C2702 1.366 . S
C2702 C2701 1.366 . S
C2702 C2703 1.414 . S
C2702 C2705 1.499 . S
C2703 H2677 0.950 . S
C2703 C2702 1.414 . S
C2703 C2704 1.374 . S
C2704 H2678 0.950 . S
C2704 C2700 1.385 . S
C2704 C2703 1.374 . S
C2705 C2702 1.499 . S
C2705 C2706 1.373 . S
C2705 C2707 1.389 . S
C2706 H2679 0.950 . S
C2706 C2692 1.377 . S
C2706 C2705 1.373 . S
C2707 C2691 1.377 . S
C2707 C2705 1.389 . S
C2707 C2708 1.524 . S
C2708 C2707 1.524 . S
C2708 C2709 1.397 . S
C2708 C2713 1.363 . S
C2709 H2680 0.950 . S
C2709 C2708 1.397 . S
C2709 C2710 1.334 . S
C2710 H2681 0.950 . S
C2710 C2709 1.334 . S
C2710 C2711 1.287 . S
C2711 C2710 1.287 . S
C2711 C2712 1.524 . S
C2711 H2714 0.999 . S
C2712 H2682 0.950 . S
C2712 C2711 1.524 . S
C2712 C2713 1.415 . S
C2713 H2683 0.950 . S
C2713 C2708 1.363 . S
C2713 C2712 1.415 . S
H2714 C2711 0.999 . S
H2715 C2696 0.913 . S
H2716 C2734 0.951 . S
H2717 C2736 0.951 . S
H2718 C2738 0.950 . S
H2719 C2739 0.950 . S
H2720 C2741 0.950 . S
H2721 C2744 0.950 . S
H2722 C2745 0.950 . S
H2723 C2747 0.950 . S
H2724 C2748 0.950 . S
H2725 C2749 0.951 . S
H2726 C2751 0.951 . S
H2727 C2753 0.950 . S
H2728 C2754 0.950 . S
H2729 C2756 0.950 . S
H2730 C2759 0.950 . S
H2731 C2760 0.950 . S
H2732 C2762 0.950 . S
H2733 C2763 0.950 . S
C2734 H2716 0.951 . S
C2734 C2735 1.366 . S
C2734 C2736 1.388 . S
C2735 C2734 1.366 . S
C2735 C2739 1.385 . S
C2736 H2717 0.951 . S
C2736 C2734 1.388 . S
C2736 C2737 1.366 . S
C2737 C2736 1.366 . S
C2737 C2738 1.414 . S
C2737 C2740 1.499 . S
C2738 H2718 0.950 . S
C2738 C2737 1.414 . S
C2738 C2739 1.374 . S
C2739 H2719 0.950 . S
C2739 C2735 1.385 . S
C2739 C2738 1.374 . S
C2740 C2737 1.499 . S
C2740 C2741 1.373 . S
C2740 C2742 1.389 . S
C2741 H2720 0.950 . S
C2741 C2740 1.373 . S
C2741 C2757 1.377 . S
C2742 C2740 1.389 . S
C2742 C2743 1.524 . S
C2742 C2756 1.377 . S
C2743 C2742 1.524 . S
C2743 C2744 1.397 . S
C2743 C2748 1.363 . S
C2744 H2721 0.950 . S
C2744 C2743 1.397 . S
C2744 C2745 1.334 . S
C2745 H2722 0.950 . S
C2745 C2744 1.334 . S
C2745 C2746 1.287 . S
C2746 C2745 1.287 . S
C2746 C2747 1.524 . S
C2746 H2765 0.913 . S
C2747 H2723 0.950 . S
C2747 C2746 1.524 . S
C2747 C2748 1.415 . S
C2748 H2724 0.950 . S
C2748 C2743 1.363 . S
C2748 C2747 1.415 . S
C2749 H2725 0.951 . S
C2749 C2750 1.366 . S
C2749 C2751 1.388 . S
C2750 C2749 1.366 . S
C2750 C2754 1.385 . S
C2751 H2726 0.951 . S
C2751 C2749 1.388 . S
C2751 C2752 1.366 . S
C2752 C2751 1.366 . S
C2752 C2753 1.414 . S
C2752 C2755 1.499 . S
C2753 H2727 0.950 . S
C2753 C2752 1.414 . S
C2753 C2754 1.374 . S
C2754 H2728 0.950 . S
C2754 C2750 1.385 . S
C2754 C2753 1.374 . S
C2755 C2752 1.499 . S
C2755 C2756 1.373 . S
C2755 C2757 1.389 . S
C2756 H2729 0.950 . S
C2756 C2742 1.377 . S
C2756 C2755 1.373 . S
C2757 C2741 1.377 . S
C2757 C2755 1.389 . S
C2757 C2758 1.524 . S
C2758 C2757 1.524 . S
C2758 C2759 1.397 . S
C2758 C2763 1.363 . S
C2759 H2730 0.950 . S
C2759 C2758 1.397 . S
C2759 C2760 1.334 . S
C2760 H2731 0.950 . S
C2760 C2759 1.334 . S
C2760 C2761 1.287 . S
C2761 C2760 1.287 . S
C2761 C2762 1.524 . S
C2761 H2764 0.999 . S
C2762 H2732 0.950 . S
C2762 C2761 1.524 . S
C2762 C2763 1.415 . S
C2763 H2733 0.950 . S
C2763 C2758 1.363 . S
C2763 C2762 1.415 . S
H2764 C2761 0.999 . S
H2765 C2746 0.913 . S
H2766 C2784 0.951 . S
H2767 C2786 0.951 . S
H2768 C2788 0.950 . S
H2769 C2789 0.950 . S
H2770 C2791 0.950 . S
H2771 C2794 0.950 . S
H2772 C2795 0.950 . S
H2773 C2797 0.950 . S
H2774 C2798 0.950 . S
H2775 C2799 0.951 . S
H2776 C2801 0.951 . S
H2777 C2803 0.950 . S
H2778 C2804 0.950 . S
H2779 C2806 0.950 . S
H2780 C2809 0.950 . S
H2781 C2810 0.950 . S
H2782 C2812 0.950 . S
H2783 C2813 0.950 . S
C2784 H2766 0.951 . S
C2784 C2785 1.366 . S
C2784 C2786 1.388 . S
C2785 C2784 1.366 . S
C2785 C2789 1.385 . S
C2786 H2767 0.951 . S
C2786 C2784 1.388 . S
C2786 C2787 1.366 . S
C2787 C2786 1.366 . S
C2787 C2788 1.414 . S
C2787 C2790 1.499 . S
C2788 H2768 0.950 . S
C2788 C2787 1.414 . S
C2788 C2789 1.374 . S
C2789 H2769 0.950 . S
C2789 C2785 1.385 . S
C2789 C2788 1.374 . S
C2790 C2787 1.499 . S
C2790 C2791 1.373 . S
C2790 C2792 1.389 . S
C2791 H2770 0.950 . S
C2791 C2790 1.373 . S
C2791 C2807 1.377 . S
C2792 C2790 1.389 . S
C2792 C2793 1.524 . S
C2792 C2806 1.377 . S
C2793 C2792 1.524 . S
C2793 C2794 1.397 . S
C2793 C2798 1.363 . S
C2794 H2771 0.950 . S
C2794 C2793 1.397 . S
C2794 C2795 1.334 . S
C2795 H2772 0.950 . S
C2795 C2794 1.334 . S
C2795 C2796 1.287 . S
C2796 C2795 1.287 . S
C2796 C2797 1.524 . S
C2796 H2815 0.913 . S
C2797 H2773 0.950 . S
C2797 C2796 1.524 . S
C2797 C2798 1.415 . S
C2798 H2774 0.950 . S
C2798 C2793 1.363 . S
C2798 C2797 1.415 . S
C2799 H2775 0.951 . S
C2799 C2800 1.366 . S
C2799 C2801 1.388 . S
C2800 C2799 1.366 . S
C2800 C2804 1.385 . S
C2801 H2776 0.951 . S
C2801 C2799 1.388 . S
C2801 C2802 1.366 . S
C2802 C2801 1.366 . S
C2802 C2803 1.414 . S
C2802 C2805 1.499 . S
C2803 H2777 0.950 . S
C2803 C2802 1.414 . S
C2803 C2804 1.374 . S
C2804 H2778 0.950 . S
C2804 C2800 1.385 . S
C2804 C2803 1.374 . S
C2805 C2802 1.499 . S
C2805 C2806 1.373 . S
C2805 C2807 1.389 . S
C2806 H2779 0.950 . S
C2806 C2792 1.377 . S
C2806 C2805 1.373 . S
C2807 C2791 1.377 . S
C2807 C2805 1.389 . S
C2807 C2808 1.524 . S
C2808 C2807 1.524 . S
C2808 C2809 1.397 . S
C2808 C2813 1.363 . S
C2809 H2780 0.950 . S
C2809 C2808 1.397 . S
C2809 C2810 1.334 . S
C2810 H2781 0.950 . S
C2810 C2809 1.334 . S
C2810 C2811 1.287 . S
C2811 C2810 1.287 . S
C2811 C2812 1.524 . S
C2811 H2814 0.999 . S
C2812 H2782 0.950 . S
C2812 C2811 1.524 . S
C2812 C2813 1.415 . S
C2813 H2783 0.950 . S
C2813 C2808 1.363 . S
C2813 C2812 1.415 . S
H2814 C2811 0.999 . S
H2815 C2796 0.913 . S
H2816 C2834 0.951 . S
H2817 C2836 0.951 . S
H2818 C2838 0.950 . S
H2819 C2839 0.950 . S
H2820 C2841 0.950 . S
H2821 C2844 0.950 . S
H2822 C2845 0.950 . S
H2823 C2847 0.950 . S
H2824 C2848 0.950 . S
H2825 C2849 0.951 . S
H2826 C2851 0.951 . S
H2827 C2853 0.950 . S
H2828 C2854 0.950 . S
H2829 C2856 0.950 . S
H2830 C2859 0.950 . S
H2831 C2860 0.950 . S
H2832 C2862 0.950 . S
H2833 C2863 0.950 . S
C2834 H2816 0.951 . S
C2834 C2835 1.366 . S
C2834 C2836 1.388 . S
C2835 C2834 1.366 . S
C2835 C2839 1.385 . S
C2836 H2817 0.951 . S
C2836 C2834 1.388 . S
C2836 C2837 1.366 . S
C2837 C2836 1.366 . S
C2837 C2838 1.414 . S
C2837 C2840 1.499 . S
C2838 H2818 0.950 . S
C2838 C2837 1.414 . S
C2838 C2839 1.374 . S
C2839 H2819 0.950 . S
C2839 C2835 1.385 . S
C2839 C2838 1.374 . S
C2840 C2837 1.499 . S
C2840 C2841 1.373 . S
C2840 C2842 1.389 . S
C2841 H2820 0.950 . S
C2841 C2840 1.373 . S
C2841 C2857 1.377 . S
C2842 C2840 1.389 . S
C2842 C2843 1.524 . S
C2842 C2856 1.377 . S
C2843 C2842 1.524 . S
C2843 C2844 1.397 . S
C2843 C2848 1.363 . S
C2844 H2821 0.950 . S
C2844 C2843 1.397 . S
C2844 C2845 1.334 . S
C2845 H2822 0.950 . S
C2845 C2844 1.334 . S
C2845 C2846 1.287 . S
C2846 C2845 1.287 . S
C2846 C2847 1.524 . S
C2846 H2865 0.913 . S
C2847 H2823 0.950 . S
C2847 C2846 1.524 . S
C2847 C2848 1.415 . S
C2848 H2824 0.950 . S
C2848 C2843 1.363 . S
C2848 C2847 1.415 . S
C2849 H2825 0.951 . S
C2849 C2850 1.366 . S
C2849 C2851 1.388 . S
C2850 C2849 1.366 . S
C2850 C2854 1.385 . S
C2851 H2826 0.951 . S
C2851 C2849 1.388 . S
C2851 C2852 1.366 . S
C2852 C2851 1.366 . S
C2852 C2853 1.414 . S
C2852 C2855 1.499 . S
C2853 H2827 0.950 . S
C2853 C2852 1.414 . S
C2853 C2854 1.374 . S
C2854 H2828 0.950 . S
C2854 C2850 1.385 . S
C2854 C2853 1.374 . S
C2855 C2852 1.499 . S
C2855 C2856 1.373 . S
C2855 C2857 1.389 . S
C2856 H2829 0.950 . S
C2856 C2842 1.377 . S
C2856 C2855 1.373 . S
C2857 C2841 1.377 . S
C2857 C2855 1.389 . S
C2857 C2858 1.524 . S
C2858 C2857 1.524 . S
C2858 C2859 1.397 . S
C2858 C2863 1.363 . S
C2859 H2830 0.950 . S
C2859 C2858 1.397 . S
C2859 C2860 1.334 . S
C2860 H2831 0.950 . S
C2860 C2859 1.334 . S
C2860 C2861 1.287 . S
C2861 C2860 1.287 . S
C2861 C2862 1.524 . S
C2861 H2864 0.999 . S
C2862 H2832 0.950 . S
C2862 C2861 1.524 . S
C2862 C2863 1.415 . S
C2863 H2833 0.950 . S
C2863 C2858 1.363 . S
C2863 C2862 1.415 . S
H2864 C2861 0.999 . S
H2865 C2846 0.913 . S
H2866 C2884 0.951 . S
H2867 C2886 0.951 . S
H2868 C2888 0.950 . S
H2869 C2889 0.950 . S
H2870 C2891 0.950 . S
H2871 C2894 0.950 . S
H2872 C2895 0.950 . S
H2873 C2897 0.950 . S
H2874 C2898 0.950 . S
H2875 C2899 0.951 . S
H2876 C2901 0.951 . S
H2877 C2903 0.950 . S
H2878 C2904 0.950 . S
H2879 C2906 0.950 . S
H2880 C2909 0.950 . S
H2881 C2910 0.950 . S
H2882 C2912 0.950 . S
H2883 C2913 0.950 . S
C2884 H2866 0.951 . S
C2884 C2885 1.366 . S
C2884 C2886 1.388 . S
C2885 C2884 1.366 . S
C2885 C2889 1.385 . S
C2886 H2867 0.951 . S
C2886 C2884 1.388 . S
C2886 C2887 1.366 . S
C2887 C2886 1.366 . S
C2887 C2888 1.414 . S
C2887 C2890 1.499 . S
C2888 H2868 0.950 . S
C2888 C2887 1.414 . S
C2888 C2889 1.374 . S
C2889 H2869 0.950 . S
C2889 C2885 1.385 . S
C2889 C2888 1.374 . S
C2890 C2887 1.499 . S
C2890 C2891 1.373 . S
C2890 C2892 1.389 . S
C2891 H2870 0.950 . S
C2891 C2890 1.373 . S
C2891 C2907 1.377 . S
C2892 C2890 1.389 . S
C2892 C2893 1.524 . S
C2892 C2906 1.377 . S
C2893 C2892 1.524 . S
C2893 C2894 1.397 . S
C2893 C2898 1.363 . S
C2894 H2871 0.950 . S
C2894 C2893 1.397 . S
C2894 C2895 1.334 . S
C2895 H2872 0.950 . S
C2895 C2894 1.334 . S
C2895 C2896 1.287 . S
C2896 C2895 1.287 . S
C2896 C2897 1.524 . S
C2896 H2915 0.913 . S
C2897 H2873 0.950 . S
C2897 C2896 1.524 . S
C2897 C2898 1.415 . S
C2898 H2874 0.950 . S
C2898 C2893 1.363 . S
C2898 C2897 1.415 . S
C2899 H2875 0.951 . S
C2899 C2900 1.366 . S
C2899 C2901 1.388 . S
C2900 C2899 1.366 . S
C2900 C2904 1.385 . S
C2901 H2876 0.951 . S
C2901 C2899 1.388 . S
C2901 C2902 1.366 . S
C2902 C2901 1.366 . S
C2902 C2903 1.414 . S
C2902 C2905 1.499 . S
C2903 H2877 0.950 . S
C2903 C2902 1.414 . S
C2903 C2904 1.374 . S
C2904 H2878 0.950 . S
C2904 C2900 1.385 . S
C2904 C2903 1.374 . S
C2905 C2902 1.499 . S
C2905 C2906 1.373 . S
C2905 C2907 1.389 . S
C2906 H2879 0.950 . S
C2906 C2892 1.377 . S
C2906 C2905 1.373 . S
C2907 C2891 1.377 . S
C2907 C2905 1.389 . S
C2907 C2908 1.524 . S
C2908 C2907 1.524 . S
C2908 C2909 1.397 . S
C2908 C2913 1.363 . S
C2909 H2880 0.950 . S
C2909 C2908 1.397 . S
C2909 C2910 1.334 . S
C2910 H2881 0.950 . S
C2910 C2909 1.334 . S
C2910 C2911 1.287 . S
C2911 C2910 1.287 . S
C2911 C2912 1.524 . S
C2911 H2914 0.999 . S
C2912 H2882 0.950 . S
C2912 C2911 1.524 . S
C2912 C2913 1.415 . S
C2913 H2883 0.950 . S
C2913 C2908 1.363 . S
C2913 C2912 1.415 . S
H2914 C2911 0.999 . S
H2915 C2896 0.913 . S
H2916 C2934 0.951 . S
H2917 C2936 0.951 . S
H2918 C2938 0.950 . S
H2919 C2939 0.950 . S
H2920 C2941 0.950 . S
H2921 C2944 0.950 . S
H2922 C2945 0.950 . S
H2923 C2947 0.950 . S
H2924 C2948 0.950 . S
H2925 C2949 0.951 . S
H2926 C2951 0.951 . S
H2927 C2953 0.950 . S
H2928 C2954 0.950 . S
H2929 C2956 0.950 . S
H2930 C2959 0.950 . S
H2931 C2960 0.950 . S
H2932 C2962 0.950 . S
H2933 C2963 0.950 . S
C2934 H2916 0.951 . S
C2934 C2935 1.366 . S
C2934 C2936 1.388 . S
C2935 C2934 1.366 . S
C2935 C2939 1.385 . S
C2936 H2917 0.951 . S
C2936 C2934 1.388 . S
C2936 C2937 1.366 . S
C2937 C2936 1.366 . S
C2937 C2938 1.414 . S
C2937 C2940 1.499 . S
C2938 H2918 0.950 . S
C2938 C2937 1.414 . S
C2938 C2939 1.374 . S
C2939 H2919 0.950 . S
C2939 C2935 1.385 . S
C2939 C2938 1.374 . S
C2940 C2937 1.499 . S
C2940 C2941 1.373 . S
C2940 C2942 1.389 . S
C2941 H2920 0.950 . S
C2941 C2940 1.373 . S
C2941 C2957 1.377 . S
C2942 C2940 1.389 . S
C2942 C2943 1.524 . S
C2942 C2956 1.377 . S
C2943 C2942 1.524 . S
C2943 C2944 1.397 . S
C2943 C2948 1.363 . S
C2944 H2921 0.950 . S
C2944 C2943 1.397 . S
C2944 C2945 1.334 . S
C2945 H2922 0.950 . S
C2945 C2944 1.334 . S
C2945 C2946 1.287 . S
C2946 C2945 1.287 . S
C2946 C2947 1.524 . S
C2946 H2965 0.913 . S
C2947 H2923 0.950 . S
C2947 C2946 1.524 . S
C2947 C2948 1.415 . S
C2948 H2924 0.950 . S
C2948 C2943 1.363 . S
C2948 C2947 1.415 . S
C2949 H2925 0.951 . S
C2949 C2950 1.366 . S
C2949 C2951 1.388 . S
C2950 C2949 1.366 . S
C2950 C2954 1.385 . S
C2951 H2926 0.951 . S
C2951 C2949 1.388 . S
C2951 C2952 1.366 . S
C2952 C2951 1.366 . S
C2952 C2953 1.414 . S
C2952 C2955 1.499 . S
C2953 H2927 0.950 . S
C2953 C2952 1.414 . S
C2953 C2954 1.374 . S
C2954 H2928 0.950 . S
C2954 C2950 1.385 . S
C2954 C2953 1.374 . S
C2955 C2952 1.499 . S
C2955 C2956 1.373 . S
C2955 C2957 1.389 . S
C2956 H2929 0.950 . S
C2956 C2942 1.377 . S
C2956 C2955 1.373 . S
C2957 C2941 1.377 . S
C2957 C2955 1.389 . S
C2957 C2958 1.524 . S
C2958 C2957 1.524 . S
C2958 C2959 1.397 . S
C2958 C2963 1.363 . S
C2959 H2930 0.950 . S
C2959 C2958 1.397 . S
C2959 C2960 1.334 . S
C2960 H2931 0.950 . S
C2960 C2959 1.334 . S
C2960 C2961 1.287 . S
C2961 C2960 1.287 . S
C2961 C2962 1.524 . S
C2961 H2964 0.999 . S
C2962 H2932 0.950 . S
C2962 C2961 1.524 . S
C2962 C2963 1.415 . S
C2963 H2933 0.950 . S
C2963 C2958 1.363 . S
C2963 C2962 1.415 . S
H2964 C2961 0.999 . S
H2965 C2946 0.913 . S
H2966 C2984 0.951 . S
H2967 C2986 0.951 . S
H2968 C2988 0.950 . S
H2969 C2989 0.950 . S
H2970 C2991 0.950 . S
H2971 C2994 0.950 . S
H2972 C2995 0.950 . S
H2973 C2997 0.950 . S
H2974 C2998 0.950 . S
H2975 C2999 0.951 . S
H2976 C3001 0.951 . S
H2977 C3003 0.950 . S
H2978 C3004 0.950 . S
H2979 C3006 0.950 . S
H2980 C3009 0.950 . S
H2981 C3010 0.950 . S
H2982 C3012 0.950 . S
H2983 C3013 0.950 . S
C2984 H2966 0.951 . S
C2984 C2985 1.366 . S
C2984 C2986 1.388 . S
C2985 C2984 1.366 . S
C2985 C2989 1.385 . S
C2986 H2967 0.951 . S
C2986 C2984 1.388 . S
C2986 C2987 1.366 . S
C2987 C2986 1.366 . S
C2987 C2988 1.414 . S
C2987 C2990 1.499 . S
C2988 H2968 0.950 . S
C2988 C2987 1.414 . S
C2988 C2989 1.374 . S
C2989 H2969 0.950 . S
C2989 C2985 1.385 . S
C2989 C2988 1.374 . S
C2990 C2987 1.499 . S
C2990 C2991 1.373 . S
C2990 C2992 1.389 . S
C2991 H2970 0.950 . S
C2991 C2990 1.373 . S
C2991 C3007 1.377 . S
C2992 C2990 1.389 . S
C2992 C2993 1.524 . S
C2992 C3006 1.377 . S
C2993 C2992 1.524 . S
C2993 C2994 1.397 . S
C2993 C2998 1.363 . S
C2994 H2971 0.950 . S
C2994 C2993 1.397 . S
C2994 C2995 1.334 . S
C2995 H2972 0.950 . S
C2995 C2994 1.334 . S
C2995 C2996 1.287 . S
C2996 C2995 1.287 . S
C2996 C2997 1.524 . S
C2996 H3015 0.913 . S
C2997 H2973 0.950 . S
C2997 C2996 1.524 . S
C2997 C2998 1.415 . S
C2998 H2974 0.950 . S
C2998 C2993 1.363 . S
C2998 C2997 1.415 . S
C2999 H2975 0.951 . S
C2999 C3000 1.366 . S
C2999 C3001 1.388 . S
C3000 C2999 1.366 . S
C3000 C3004 1.385 . S
C3001 H2976 0.951 . S
C3001 C2999 1.388 . S
C3001 C3002 1.366 . S
C3002 C3001 1.366 . S
C3002 C3003 1.414 . S
C3002 C3005 1.499 . S
C3003 H2977 0.950 . S
C3003 C3002 1.414 . S
C3003 C3004 1.374 . S
C3004 H2978 0.950 . S
C3004 C3000 1.385 . S
C3004 C3003 1.374 . S
C3005 C3002 1.499 . S
C3005 C3006 1.373 . S
C3005 C3007 1.389 . S
C3006 H2979 0.950 . S
C3006 C2992 1.377 . S
C3006 C3005 1.373 . S
C3007 C2991 1.377 . S
C3007 C3005 1.389 . S
C3007 C3008 1.524 . S
C3008 C3007 1.524 . S
C3008 C3009 1.397 . S
C3008 C3013 1.363 . S
C3009 H2980 0.950 . S
C3009 C3008 1.397 . S
C3009 C3010 1.334 . S
C3010 H2981 0.950 . S
C3010 C3009 1.334 . S
C3010 C3011 1.287 . S
C3011 C3010 1.287 . S
C3011 C3012 1.524 . S
C3011 H3014 0.999 . S
C3012 H2982 0.950 . S
C3012 C3011 1.524 . S
C3012 C3013 1.415 . S
C3013 H2983 0.950 . S
C3013 C3008 1.363 . S
C3013 C3012 1.415 . S
H3014 C3011 0.999 . S
H3015 C2996 0.913 . S
H3016 C3034 0.951 . S
H3017 C3036 0.951 . S
H3018 C3038 0.950 . S
H3019 C3039 0.950 . S
H3020 C3041 0.950 . S
H3021 C3044 0.950 . S
H3022 C3045 0.950 . S
H3023 C3047 0.950 . S
H3024 C3048 0.950 . S
H3025 C3049 0.951 . S
H3026 C3051 0.951 . S
H3027 C3053 0.950 . S
H3028 C3054 0.950 . S
H3029 C3056 0.950 . S
H3030 C3059 0.950 . S
H3031 C3060 0.950 . S
H3032 C3062 0.950 . S
H3033 C3063 0.950 . S
C3034 H3016 0.951 . S
C3034 C3035 1.366 . S
C3034 C3036 1.388 . S
C3035 C3034 1.366 . S
C3035 C3039 1.385 . S
C3036 H3017 0.951 . S
C3036 C3034 1.388 . S
C3036 C3037 1.366 . S
C3037 C3036 1.366 . S
C3037 C3038 1.414 . S
C3037 C3040 1.499 . S
C3038 H3018 0.950 . S
C3038 C3037 1.414 . S
C3038 C3039 1.374 . S
C3039 H3019 0.950 . S
C3039 C3035 1.385 . S
C3039 C3038 1.374 . S
C3040 C3037 1.499 . S
C3040 C3041 1.373 . S
C3040 C3042 1.389 . S
C3041 H3020 0.950 . S
C3041 C3040 1.373 . S
C3041 C3057 1.377 . S
C3042 C3040 1.389 . S
C3042 C3043 1.524 . S
C3042 C3056 1.377 . S
C3043 C3042 1.524 . S
C3043 C3044 1.397 . S
C3043 C3048 1.363 . S
C3044 H3021 0.950 . S
C3044 C3043 1.397 . S
C3044 C3045 1.334 . S
C3045 H3022 0.950 . S
C3045 C3044 1.334 . S
C3045 C3046 1.287 . S
C3046 C3045 1.287 . S
C3046 C3047 1.524 . S
C3046 H3065 0.913 . S
C3047 H3023 0.950 . S
C3047 C3046 1.524 . S
C3047 C3048 1.415 . S
C3048 H3024 0.950 . S
C3048 C3043 1.363 . S
C3048 C3047 1.415 . S
C3049 H3025 0.951 . S
C3049 C3050 1.366 . S
C3049 C3051 1.388 . S
C3050 C3049 1.366 . S
C3050 C3054 1.385 . S
C3051 H3026 0.951 . S
C3051 C3049 1.388 . S
C3051 C3052 1.366 . S
C3052 C3051 1.366 . S
C3052 C3053 1.414 . S
C3052 C3055 1.499 . S
C3053 H3027 0.950 . S
C3053 C3052 1.414 . S
C3053 C3054 1.374 . S
C3054 H3028 0.950 . S
C3054 C3050 1.385 . S
C3054 C3053 1.374 . S
C3055 C3052 1.499 . S
C3055 C3056 1.373 . S
C3055 C3057 1.389 . S
C3056 H3029 0.950 . S
C3056 C3042 1.377 . S
C3056 C3055 1.373 . S
C3057 C3041 1.377 . S
C3057 C3055 1.389 . S
C3057 C3058 1.524 . S
C3058 C3057 1.524 . S
C3058 C3059 1.397 . S
C3058 C3063 1.363 . S
C3059 H3030 0.950 . S
C3059 C3058 1.397 . S
C3059 C3060 1.334 . S
C3060 H3031 0.950 . S
C3060 C3059 1.334 . S
C3060 C3061 1.287 . S
C3061 C3060 1.287 . S
C3061 C3062 1.524 . S
C3061 H3064 0.999 . S
C3062 H3032 0.950 . S
C3062 C3061 1.524 . S
C3062 C3063 1.415 . S
C3063 H3033 0.950 . S
C3063 C3058 1.363 . S
C3063 C3062 1.415 . S
H3064 C3061 0.999 . S
H3065 C3046 0.913 . S
H3066 C3084 0.951 . S
H3067 C3086 0.951 . S
H3068 C3088 0.950 . S
H3069 C3089 0.950 1_554 S
H3070 C3091 0.950 . S
H3071 C3094 0.950 . S
H3072 C3095 0.950 . S
H3073 C3097 0.950 . S
H3074 C3098 0.950 . S
H3075 C3099 0.951 . S
H3076 C3101 0.951 . S
H3077 C3103 0.950 . S
H3078 C3104 0.950 . S
H3079 C3106 0.950 . S
H3080 C3109 0.950 . S
H3081 C3110 0.950 . S
H3082 C3112 0.950 . S
H3083 C3113 0.950 . S
C3084 H3066 0.951 . S
C3084 C3085 1.366 . S
C3084 C3086 1.388 . S
C3085 C3084 1.366 . S
C3085 C3089 1.385 . S
C3086 H3067 0.951 . S
C3086 C3084 1.388 . S
C3086 C3087 1.366 . S
C3087 C3086 1.366 . S
C3087 C3088 1.414 . S
C3087 C3090 1.499 . S
C3088 H3068 0.950 . S
C3088 C3087 1.414 . S
C3088 C3089 1.374 . S
C3089 H3069 0.950 1_556 S
C3089 C3085 1.385 . S
C3089 C3088 1.374 . S
C3090 C3087 1.499 . S
C3090 C3091 1.373 . S
C3090 C3092 1.389 . S
C3091 H3070 0.950 . S
C3091 C3090 1.373 . S
C3091 C3107 1.377 . S
C3092 C3090 1.389 . S
C3092 C3093 1.524 . S
C3092 C3106 1.377 . S
C3093 C3092 1.524 . S
C3093 C3094 1.397 . S
C3093 C3098 1.363 . S
C3094 H3071 0.950 . S
C3094 C3093 1.397 . S
C3094 C3095 1.334 . S
C3095 H3072 0.950 . S
C3095 C3094 1.334 . S
C3095 C3096 1.287 . S
C3096 C3095 1.287 . S
C3096 C3097 1.524 . S
C3096 H3115 0.913 . S
C3097 H3073 0.950 . S
C3097 C3096 1.524 . S
C3097 C3098 1.415 . S
C3098 H3074 0.950 . S
C3098 C3093 1.363 . S
C3098 C3097 1.415 . S
C3099 H3075 0.951 . S
C3099 C3100 1.366 . S
C3099 C3101 1.388 . S
C3100 C3099 1.366 . S
C3100 C3104 1.385 . S
C3101 H3076 0.951 . S
C3101 C3099 1.388 . S
C3101 C3102 1.366 . S
C3102 C3101 1.366 . S
C3102 C3103 1.414 . S
C3102 C3105 1.499 . S
C3103 H3077 0.950 . S
C3103 C3102 1.414 . S
C3103 C3104 1.374 . S
C3104 H3078 0.950 . S
C3104 C3100 1.385 . S
C3104 C3103 1.374 . S
C3105 C3102 1.499 . S
C3105 C3106 1.373 . S
C3105 C3107 1.389 . S
C3106 H3079 0.950 . S
C3106 C3092 1.377 . S
C3106 C3105 1.373 . S
C3107 C3091 1.377 . S
C3107 C3105 1.389 . S
C3107 C3108 1.524 . S
C3108 C3107 1.524 . S
C3108 C3109 1.397 . S
C3108 C3113 1.363 . S
C3109 H3080 0.950 . S
C3109 C3108 1.397 . S
C3109 C3110 1.334 . S
C3110 H3081 0.950 . S
C3110 C3109 1.334 . S
C3110 C3111 1.287 . S
C3111 C3110 1.287 . S
C3111 C3112 1.524 . S
C3111 H3114 0.999 . S
C3112 H3082 0.950 . S
C3112 C3111 1.524 . S
C3112 C3113 1.415 . S
C3113 H3083 0.950 . S
C3113 C3108 1.363 . S
C3113 C3112 1.415 . S
H3114 C3111 0.999 . S
H3115 C3096 0.913 . S
H3116 C3134 0.951 1_554 S
H3117 C3136 0.951 . S
H3118 C3138 0.950 . S
H3119 C3139 0.950 . S
H3120 C3141 0.950 . S
H3121 C3144 0.950 . S
H3122 C3145 0.950 . S
H3123 C3147 0.950 . S
H3124 C3148 0.950 . S
H3125 C3149 0.951 . S
H3126 C3151 0.951 . S
H3127 C3153 0.950 . S
H3128 C3154 0.950 . S
H3129 C3156 0.950 . S
H3130 C3159 0.950 . S
H3131 C3160 0.950 . S
H3132 C3162 0.950 . S
H3133 C3163 0.950 . S
C3134 H3116 0.951 1_556 S
C3134 C3135 1.366 . S
C3134 C3136 1.388 . S
C3135 C3134 1.366 . S
C3135 C3139 1.385 . S
C3136 H3117 0.951 . S
C3136 C3134 1.388 . S
C3136 C3137 1.366 . S
C3137 C3136 1.366 . S
C3137 C3138 1.414 . S
C3137 C3140 1.499 . S
C3138 H3118 0.950 . S
C3138 C3137 1.414 . S
C3138 C3139 1.374 . S
C3139 H3119 0.950 . S
C3139 C3135 1.385 . S
C3139 C3138 1.374 . S
C3140 C3137 1.499 . S
C3140 C3141 1.373 . S
C3140 C3142 1.389 . S
C3141 H3120 0.950 . S
C3141 C3140 1.373 . S
C3141 C3157 1.377 . S
C3142 C3140 1.389 . S
C3142 C3143 1.524 . S
C3142 C3156 1.377 . S
C3143 C3142 1.524 . S
C3143 C3144 1.397 . S
C3143 C3148 1.363 . S
C3144 H3121 0.950 . S
C3144 C3143 1.397 . S
C3144 C3145 1.334 . S
C3145 H3122 0.950 . S
C3145 C3144 1.334 . S
C3145 C3146 1.287 . S
C3146 C3145 1.287 . S
C3146 C3147 1.524 . S
C3146 H3165 0.913 1_655 S
C3147 H3123 0.950 . S
C3147 C3146 1.524 . S
C3147 C3148 1.415 . S
C3148 H3124 0.950 . S
C3148 C3143 1.363 . S
C3148 C3147 1.415 . S
C3149 H3125 0.951 . S
C3149 C3150 1.366 . S
C3149 C3151 1.388 . S
C3150 C3149 1.366 . S
C3150 C3154 1.385 . S
C3151 H3126 0.951 . S
C3151 C3149 1.388 . S
C3151 C3152 1.366 . S
C3152 C3151 1.366 . S
C3152 C3153 1.414 . S
C3152 C3155 1.499 . S
C3153 H3127 0.950 . S
C3153 C3152 1.414 . S
C3153 C3154 1.374 . S
C3154 H3128 0.950 . S
C3154 C3150 1.385 . S
C3154 C3153 1.374 . S
C3155 C3152 1.499 . S
C3155 C3156 1.373 . S
C3155 C3157 1.389 . S
C3156 H3129 0.950 . S
C3156 C3142 1.377 . S
C3156 C3155 1.373 . S
C3157 C3141 1.377 . S
C3157 C3155 1.389 . S
C3157 C3158 1.524 . S
C3158 C3157 1.524 . S
C3158 C3159 1.397 . S
C3158 C3163 1.363 . S
C3159 H3130 0.950 . S
C3159 C3158 1.397 . S
C3159 C3160 1.334 . S
C3160 H3131 0.950 . S
C3160 C3159 1.334 . S
C3160 C3161 1.287 . S
C3161 C3160 1.287 . S
C3161 C3162 1.524 . S
C3161 H3164 0.999 . S
C3162 H3132 0.950 . S
C3162 C3161 1.524 . S
C3162 C3163 1.415 . S
C3163 H3133 0.950 . S
C3163 C3158 1.363 . S
C3163 C3162 1.415 . S
H3164 C3161 0.999 . S
H3165 C3146 0.913 1_455 S
H3166 C3184 0.951 . S
H3167 C3186 0.951 . S
H3168 C3188 0.950 . S
H3169 C3189 0.950 1_554 S
H3170 C3191 0.950 . S
H3171 C3194 0.950 . S
H3172 C3195 0.950 . S
H3173 C3197 0.950 . S
H3174 C3198 0.950 . S
H3175 C3199 0.951 . S
H3176 C3201 0.951 . S
H3177 C3203 0.950 . S
H3178 C3204 0.950 . S
H3179 C3206 0.950 . S
H3180 C3209 0.950 . S
H3181 C3210 0.950 . S
H3182 C3212 0.950 . S
H3183 C3213 0.950 . S
C3184 H3166 0.951 . S
C3184 C3185 1.366 . S
C3184 C3186 1.388 . S
C3185 C3184 1.366 . S
C3185 C3189 1.385 . S
C3186 H3167 0.951 . S
C3186 C3184 1.388 . S
C3186 C3187 1.366 . S
C3187 C3186 1.366 . S
C3187 C3188 1.414 . S
C3187 C3190 1.499 . S
C3188 H3168 0.950 . S
C3188 C3187 1.414 . S
C3188 C3189 1.374 . S
C3189 H3169 0.950 1_556 S
C3189 C3185 1.385 . S
C3189 C3188 1.374 . S
C3190 C3187 1.499 . S
C3190 C3191 1.373 . S
C3190 C3192 1.389 . S
C3191 H3170 0.950 . S
C3191 C3190 1.373 . S
C3191 C3207 1.377 . S
C3192 C3190 1.389 . S
C3192 C3193 1.524 . S
C3192 C3206 1.377 . S
C3193 C3192 1.524 . S
C3193 C3194 1.397 . S
C3193 C3198 1.363 . S
C3194 H3171 0.950 . S
C3194 C3193 1.397 . S
C3194 C3195 1.334 . S
C3195 H3172 0.950 . S
C3195 C3194 1.334 . S
C3195 C3196 1.287 . S
C3196 C3195 1.287 . S
C3196 C3197 1.524 . S
C3196 H3215 0.913 . S
C3197 H3173 0.950 . S
C3197 C3196 1.524 . S
C3197 C3198 1.415 . S
C3198 H3174 0.950 . S
C3198 C3193 1.363 . S
C3198 C3197 1.415 . S
C3199 H3175 0.951 . S
C3199 C3200 1.366 . S
C3199 C3201 1.388 . S
C3200 C3199 1.366 . S
C3200 C3204 1.385 . S
C3201 H3176 0.951 . S
C3201 C3199 1.388 . S
C3201 C3202 1.366 . S
C3202 C3201 1.366 . S
C3202 C3203 1.414 . S
C3202 C3205 1.499 . S
C3203 H3177 0.950 . S
C3203 C3202 1.414 . S
C3203 C3204 1.374 . S
C3204 H3178 0.950 . S
C3204 C3200 1.385 . S
C3204 C3203 1.374 . S
C3205 C3202 1.499 . S
C3205 C3206 1.373 . S
C3205 C3207 1.389 . S
C3206 H3179 0.950 . S
C3206 C3192 1.377 . S
C3206 C3205 1.373 . S
C3207 C3191 1.377 . S
C3207 C3205 1.389 . S
C3207 C3208 1.524 . S
C3208 C3207 1.524 . S
C3208 C3209 1.397 . S
C3208 C3213 1.363 . S
C3209 H3180 0.950 . S
C3209 C3208 1.397 . S
C3209 C3210 1.334 . S
C3210 H3181 0.950 . S
C3210 C3209 1.334 . S
C3210 C3211 1.287 . S
C3211 C3210 1.287 . S
C3211 C3212 1.524 . S
C3211 H3214 0.999 . S
C3212 H3182 0.950 . S
C3212 C3211 1.524 . S
C3212 C3213 1.415 . S
C3213 H3183 0.950 . S
C3213 C3208 1.363 . S
C3213 C3212 1.415 . S
H3214 C3211 0.999 . S
H3215 C3196 0.913 . S
H3216 C3234 0.951 . S
H3217 C3236 0.951 . S
H3218 C3238 0.950 . S
H3219 C3239 0.950 1_554 S
H3220 C3241 0.950 . S
H3221 C3244 0.950 . S
H3222 C3245 0.950 1_554 S
H3223 C3247 0.950 . S
H3224 C3248 0.950 . S
H3225 C3249 0.951 . S
H3226 C3251 0.951 . S
H3227 C3253 0.950 . S
H3228 C3254 0.950 . S
H3229 C3256 0.950 . S
H3230 C3259 0.950 . S
H3231 C3260 0.950 . S
H3232 C3262 0.950 . S
H3233 C3263 0.950 . S
C3234 H3216 0.951 . S
C3234 C3235 1.366 . S
C3234 C3236 1.388 . S
C3235 C3234 1.366 . S
C3235 C3239 1.385 . S
C3236 H3217 0.951 . S
C3236 C3234 1.388 . S
C3236 C3237 1.366 . S
C3237 C3236 1.366 . S
C3237 C3238 1.414 . S
C3237 C3240 1.499 . S
C3238 H3218 0.950 . S
C3238 C3237 1.414 . S
C3238 C3239 1.374 . S
C3239 H3219 0.950 1_556 S
C3239 C3235 1.385 . S
C3239 C3238 1.374 . S
C3240 C3237 1.499 . S
C3240 C3241 1.373 . S
C3240 C3242 1.389 . S
C3241 H3220 0.950 . S
C3241 C3240 1.373 . S
C3241 C3257 1.377 . S
C3242 C3240 1.389 . S
C3242 C3243 1.524 . S
C3242 C3256 1.377 . S
C3243 C3242 1.524 . S
C3243 C3244 1.397 . S
C3243 C3248 1.363 . S
C3244 H3221 0.950 . S
C3244 C3243 1.397 . S
C3244 C3245 1.334 . S
C3245 H3222 0.950 1_556 S
C3245 C3244 1.334 . S
C3245 C3246 1.287 . S
C3246 C3245 1.287 . S
C3246 C3247 1.524 . S
C3246 H3265 0.913 . S
C3247 H3223 0.950 . S
C3247 C3246 1.524 . S
C3247 C3248 1.415 . S
C3248 H3224 0.950 . S
C3248 C3243 1.363 . S
C3248 C3247 1.415 . S
C3249 H3225 0.951 . S
C3249 C3250 1.366 . S
C3249 C3251 1.388 . S
C3250 C3249 1.366 . S
C3250 C3254 1.385 . S
C3251 H3226 0.951 . S
C3251 C3249 1.388 . S
C3251 C3252 1.366 . S
C3252 C3251 1.366 . S
C3252 C3253 1.414 . S
C3252 C3255 1.499 . S
C3253 H3227 0.950 . S
C3253 C3252 1.414 . S
C3253 C3254 1.374 . S
C3254 H3228 0.950 . S
C3254 C3250 1.385 . S
C3254 C3253 1.374 . S
C3255 C3252 1.499 . S
C3255 C3256 1.373 . S
C3255 C3257 1.389 . S
C3256 H3229 0.950 . S
C3256 C3242 1.377 . S
C3256 C3255 1.373 . S
C3257 C3241 1.377 . S
C3257 C3255 1.389 . S
C3257 C3258 1.524 . S
C3258 C3257 1.524 . S
C3258 C3259 1.397 . S
C3258 C3263 1.363 . S
C3259 H3230 0.950 . S
C3259 C3258 1.397 . S
C3259 C3260 1.334 . S
C3260 H3231 0.950 . S
C3260 C3259 1.334 . S
C3260 C3261 1.287 . S
C3261 C3260 1.287 . S
C3261 C3262 1.524 . S
C3261 H3264 0.999 . S
C3262 H3232 0.950 . S
C3262 C3261 1.524 . S
C3262 C3263 1.415 . S
C3263 H3233 0.950 . S
C3263 C3258 1.363 . S
C3263 C3262 1.415 . S
H3264 C3261 0.999 . S
H3265 C3246 0.913 . S
H3266 C3284 0.951 1_554 S
H3267 C3286 0.951 . S
H3268 C3288 0.950 . S
H3269 C3289 0.950 . S
H3270 C3291 0.950 . S
H3271 C3294 0.950 . S
H3272 C3295 0.950 . S
H3273 C3297 0.950 . S
H3274 C3298 0.950 . S
H3275 C3299 0.951 . S
H3276 C3301 0.951 . S
H3277 C3303 0.950 . S
H3278 C3304 0.950 . S
H3279 C3306 0.950 . S
H3280 C3309 0.950 . S
H3281 C3310 0.950 . S
H3282 C3312 0.950 . S
H3283 C3313 0.950 . S
C3284 H3266 0.951 1_556 S
C3284 C3285 1.366 . S
C3284 C3286 1.388 . S
C3285 C3284 1.366 . S
C3285 C3289 1.385 . S
C3286 H3267 0.951 . S
C3286 C3284 1.388 . S
C3286 C3287 1.366 . S
C3287 C3286 1.366 . S
C3287 C3288 1.414 . S
C3287 C3290 1.499 . S
C3288 H3268 0.950 . S
C3288 C3287 1.414 . S
C3288 C3289 1.374 . S
C3289 H3269 0.950 . S
C3289 C3285 1.385 . S
C3289 C3288 1.374 . S
C3290 C3287 1.499 . S
C3290 C3291 1.373 . S
C3290 C3292 1.389 . S
C3291 H3270 0.950 . S
C3291 C3290 1.373 . S
C3291 C3307 1.377 . S
C3292 C3290 1.389 . S
C3292 C3293 1.524 . S
C3292 C3306 1.377 . S
C3293 C3292 1.524 . S
C3293 C3294 1.397 . S
C3293 C3298 1.363 . S
C3294 H3271 0.950 . S
C3294 C3293 1.397 . S
C3294 C3295 1.334 . S
C3295 H3272 0.950 . S
C3295 C3294 1.334 . S
C3295 C3296 1.287 . S
C3296 C3295 1.287 . S
C3296 C3297 1.524 1_556 S
C3296 H3315 0.913 1_556 S
C3297 H3273 0.950 . S
C3297 C3296 1.524 1_554 S
C3297 C3298 1.415 1_554 S
C3298 H3274 0.950 . S
C3298 C3293 1.363 . S
C3298 C3297 1.415 1_556 S
C3299 H3275 0.951 . S
C3299 C3300 1.366 . S
C3299 C3301 1.388 . S
C3300 C3299 1.366 . S
C3300 C3304 1.385 . S
C3301 H3276 0.951 . S
C3301 C3299 1.388 . S
C3301 C3302 1.366 . S
C3302 C3301 1.366 . S
C3302 C3303 1.414 . S
C3302 C3305 1.499 . S
C3303 H3277 0.950 . S
C3303 C3302 1.414 . S
C3303 C3304 1.374 . S
C3304 H3278 0.950 . S
C3304 C3300 1.385 . S
C3304 C3303 1.374 . S
C3305 C3302 1.499 . S
C3305 C3306 1.373 . S
C3305 C3307 1.389 . S
C3306 H3279 0.950 . S
C3306 C3292 1.377 . S
C3306 C3305 1.373 . S
C3307 C3291 1.377 . S
C3307 C3305 1.389 . S
C3307 C3308 1.524 . S
C3308 C3307 1.524 . S
C3308 C3309 1.397 . S
C3308 C3313 1.363 . S
C3309 H3280 0.950 . S
C3309 C3308 1.397 . S
C3309 C3310 1.334 . S
C3310 H3281 0.950 . S
C3310 C3309 1.334 . S
C3310 C3311 1.287 . S
C3311 C3310 1.287 . S
C3311 C3312 1.524 . S
C3311 H3314 0.999 . S
C3312 H3282 0.950 . S
C3312 C3311 1.524 . S
C3312 C3313 1.415 . S
C3313 H3283 0.950 . S
C3313 C3308 1.363 . S
C3313 C3312 1.415 . S
H3314 C3311 0.999 . S
H3315 C3296 0.913 1_554 S
H3316 C3334 0.951 . S
H3317 C3336 0.951 . S
H3318 C3338 0.950 . S
H3319 C3339 0.950 . S
H3320 C3341 0.950 . S
H3321 C3344 0.950 . S
H3322 C3345 0.950 . S
H3323 C3347 0.950 . S
H3324 C3348 0.950 . S
H3325 C3349 0.951 . S
H3326 C3351 0.951 . S
H3327 C3353 0.950 . S
H3328 C3354 0.950 . S
H3329 C3356 0.950 . S
H3330 C3359 0.950 . S
H3331 C3360 0.950 . S
H3332 C3362 0.950 . S
H3333 C3363 0.950 . S
C3334 H3316 0.951 . S
C3334 C3335 1.366 . S
C3334 C3336 1.388 . S
C3335 C3334 1.366 . S
C3335 C3339 1.385 . S
C3336 H3317 0.951 . S
C3336 C3334 1.388 . S
C3336 C3337 1.366 . S
C3337 C3336 1.366 . S
C3337 C3338 1.414 . S
C3337 C3340 1.499 . S
C3338 H3318 0.950 . S
C3338 C3337 1.414 . S
C3338 C3339 1.374 . S
C3339 H3319 0.950 . S
C3339 C3335 1.385 . S
C3339 C3338 1.374 . S
C3340 C3337 1.499 . S
C3340 C3341 1.373 . S
C3340 C3342 1.389 . S
C3341 H3320 0.950 . S
C3341 C3340 1.373 . S
C3341 C3357 1.377 . S
C3342 C3340 1.389 . S
C3342 C3343 1.524 . S
C3342 C3356 1.377 . S
C3343 C3342 1.524 . S
C3343 C3344 1.397 . S
C3343 C3348 1.363 . S
C3344 H3321 0.950 . S
C3344 C3343 1.397 . S
C3344 C3345 1.334 . S
C3345 H3322 0.950 . S
C3345 C3344 1.334 . S
C3345 C3346 1.287 . S
C3346 C3345 1.287 . S
C3346 C3347 1.524 . S
C3346 H3365 0.913 . S
C3347 H3323 0.950 . S
C3347 C3346 1.524 . S
C3347 C3348 1.415 . S
C3348 H3324 0.950 . S
C3348 C3343 1.363 . S
C3348 C3347 1.415 . S
C3349 H3325 0.951 . S
C3349 C3350 1.366 . S
C3349 C3351 1.388 . S
C3350 C3349 1.366 . S
C3350 C3354 1.385 . S
C3351 H3326 0.951 . S
C3351 C3349 1.388 . S
C3351 C3352 1.366 . S
C3352 C3351 1.366 . S
C3352 C3353 1.414 . S
C3352 C3355 1.499 . S
C3353 H3327 0.950 . S
C3353 C3352 1.414 . S
C3353 C3354 1.374 . S
C3354 H3328 0.950 . S
C3354 C3350 1.385 . S
C3354 C3353 1.374 . S
C3355 C3352 1.499 . S
C3355 C3356 1.373 . S
C3355 C3357 1.389 . S
C3356 H3329 0.950 . S
C3356 C3342 1.377 . S
C3356 C3355 1.373 . S
C3357 C3341 1.377 . S
C3357 C3355 1.389 . S
C3357 C3358 1.524 . S
C3358 C3357 1.524 . S
C3358 C3359 1.397 . S
C3358 C3363 1.363 . S
C3359 H3330 0.950 . S
C3359 C3358 1.397 . S
C3359 C3360 1.334 . S
C3360 H3331 0.950 . S
C3360 C3359 1.334 . S
C3360 C3361 1.287 . S
C3361 C3360 1.287 . S
C3361 C3362 1.524 . S
C3361 H3364 0.999 . S
C3362 H3332 0.950 . S
C3362 C3361 1.524 . S
C3362 C3363 1.415 . S
C3363 H3333 0.950 . S
C3363 C3358 1.363 . S
C3363 C3362 1.415 . S
H3364 C3361 0.999 . S
H3365 C3346 0.913 . S
H3366 C3384 0.951 . S
H3367 C3386 0.951 . S
H3368 C3388 0.950 . S
H3369 C3389 0.950 . S
H3370 C3391 0.950 . S
H3371 C3394 0.950 . S
H3372 C3395 0.950 . S
H3373 C3397 0.950 . S
H3374 C3398 0.950 . S
H3375 C3399 0.951 . S
H3376 C3401 0.951 . S
H3377 C3403 0.950 . S
H3378 C3404 0.950 . S
H3379 C3406 0.950 . S
H3380 C3409 0.950 . S
H3381 C3410 0.950 . S
H3382 C3412 0.950 . S
H3383 C3413 0.950 . S
C3384 H3366 0.951 . S
C3384 C3385 1.366 . S
C3384 C3386 1.388 . S
C3385 C3384 1.366 . S
C3385 C3389 1.385 . S
C3386 H3367 0.951 . S
C3386 C3384 1.388 . S
C3386 C3387 1.366 . S
C3387 C3386 1.366 . S
C3387 C3388 1.414 . S
C3387 C3390 1.499 . S
C3388 H3368 0.950 . S
C3388 C3387 1.414 . S
C3388 C3389 1.374 . S
C3389 H3369 0.950 . S
C3389 C3385 1.385 . S
C3389 C3388 1.374 . S
C3390 C3387 1.499 . S
C3390 C3391 1.373 . S
C3390 C3392 1.389 . S
C3391 H3370 0.950 . S
C3391 C3390 1.373 . S
C3391 C3407 1.377 . S
C3392 C3390 1.389 . S
C3392 C3393 1.524 . S
C3392 C3406 1.377 . S
C3393 C3392 1.524 . S
C3393 C3394 1.397 . S
C3393 C3398 1.363 . S
C3394 H3371 0.950 . S
C3394 C3393 1.397 . S
C3394 C3395 1.334 . S
C3395 H3372 0.950 . S
C3395 C3394 1.334 . S
C3395 C3396 1.287 . S
C3396 C3395 1.287 . S
C3396 C3397 1.524 . S
C3396 H3415 0.913 . S
C3397 H3373 0.950 . S
C3397 C3396 1.524 . S
C3397 C3398 1.415 . S
C3398 H3374 0.950 . S
C3398 C3393 1.363 . S
C3398 C3397 1.415 . S
C3399 H3375 0.951 . S
C3399 C3400 1.366 . S
C3399 C3401 1.388 . S
C3400 C3399 1.366 . S
C3400 C3404 1.385 . S
C3401 H3376 0.951 . S
C3401 C3399 1.388 . S
C3401 C3402 1.366 . S
C3402 C3401 1.366 . S
C3402 C3403 1.414 . S
C3402 C3405 1.499 . S
C3403 H3377 0.950 . S
C3403 C3402 1.414 . S
C3403 C3404 1.374 . S
C3404 H3378 0.950 . S
C3404 C3400 1.385 . S
C3404 C3403 1.374 . S
C3405 C3402 1.499 . S
C3405 C3406 1.373 . S
C3405 C3407 1.389 . S
C3406 H3379 0.950 . S
C3406 C3392 1.377 . S
C3406 C3405 1.373 . S
C3407 C3391 1.377 . S
C3407 C3405 1.389 . S
C3407 C3408 1.524 . S
C3408 C3407 1.524 . S
C3408 C3409 1.397 . S
C3408 C3413 1.363 . S
C3409 H3380 0.950 . S
C3409 C3408 1.397 . S
C3409 C3410 1.334 . S
C3410 H3381 0.950 . S
C3410 C3409 1.334 . S
C3410 C3411 1.287 . S
C3411 C3410 1.287 . S
C3411 C3412 1.524 . S
C3411 H3414 0.999 . S
C3412 H3382 0.950 . S
C3412 C3411 1.524 . S
C3412 C3413 1.415 . S
C3413 H3383 0.950 . S
C3413 C3408 1.363 . S
C3413 C3412 1.415 . S
H3414 C3411 0.999 . S
H3415 C3396 0.913 . S
H3416 C3434 0.951 . S
H3417 C3436 0.951 . S
H3418 C3438 0.950 . S
H3419 C3439 0.950 . S
H3420 C3441 0.950 . S
H3421 C3444 0.950 . S
H3422 C3445 0.950 . S
H3423 C3447 0.950 . S
H3424 C3448 0.950 . S
H3425 C3449 0.951 . S
H3426 C3451 0.951 . S
H3427 C3453 0.950 . S
H3428 C3454 0.950 . S
H3429 C3456 0.950 . S
H3430 C3459 0.950 . S
H3431 C3460 0.950 . S
H3432 C3462 0.950 . S
H3433 C3463 0.950 . S
C3434 H3416 0.951 . S
C3434 C3435 1.366 . S
C3434 C3436 1.388 . S
C3435 C3434 1.366 . S
C3435 C3439 1.385 . S
C3436 H3417 0.951 . S
C3436 C3434 1.388 . S
C3436 C3437 1.366 . S
C3437 C3436 1.366 . S
C3437 C3438 1.414 . S
C3437 C3440 1.499 . S
C3438 H3418 0.950 . S
C3438 C3437 1.414 . S
C3438 C3439 1.374 . S
C3439 H3419 0.950 . S
C3439 C3435 1.385 . S
C3439 C3438 1.374 . S
C3440 C3437 1.499 . S
C3440 C3441 1.373 . S
C3440 C3442 1.389 . S
C3441 H3420 0.950 . S
C3441 C3440 1.373 . S
C3441 C3457 1.377 . S
C3442 C3440 1.389 . S
C3442 C3443 1.524 . S
C3442 C3456 1.377 . S
C3443 C3442 1.524 . S
C3443 C3444 1.397 . S
C3443 C3448 1.363 . S
C3444 H3421 0.950 . S
C3444 C3443 1.397 . S
C3444 C3445 1.334 . S
C3445 H3422 0.950 . S
C3445 C3444 1.334 . S
C3445 C3446 1.287 . S
C3446 C3445 1.287 . S
C3446 C3447 1.524 . S
C3446 H3465 0.913 . S
C3447 H3423 0.950 . S
C3447 C3446 1.524 . S
C3447 C3448 1.415 . S
C3448 H3424 0.950 . S
C3448 C3443 1.363 . S
C3448 C3447 1.415 . S
C3449 H3425 0.951 . S
C3449 C3450 1.366 . S
C3449 C3451 1.388 . S
C3450 C3449 1.366 . S
C3450 C3454 1.385 . S
C3451 H3426 0.951 . S
C3451 C3449 1.388 . S
C3451 C3452 1.366 . S
C3452 C3451 1.366 . S
C3452 C3453 1.414 . S
C3452 C3455 1.499 . S
C3453 H3427 0.950 . S
C3453 C3452 1.414 . S
C3453 C3454 1.374 . S
C3454 H3428 0.950 . S
C3454 C3450 1.385 . S
C3454 C3453 1.374 . S
C3455 C3452 1.499 . S
C3455 C3456 1.373 . S
C3455 C3457 1.389 . S
C3456 H3429 0.950 . S
C3456 C3442 1.377 . S
C3456 C3455 1.373 . S
C3457 C3441 1.377 . S
C3457 C3455 1.389 . S
C3457 C3458 1.524 . S
C3458 C3457 1.524 . S
C3458 C3459 1.397 . S
C3458 C3463 1.363 . S
C3459 H3430 0.950 . S
C3459 C3458 1.397 . S
C3459 C3460 1.334 . S
C3460 H3431 0.950 . S
C3460 C3459 1.334 . S
C3460 C3461 1.287 . S
C3461 C3460 1.287 . S
C3461 C3462 1.524 . S
C3461 H3464 0.999 . S
C3462 H3432 0.950 . S
C3462 C3461 1.524 . S
C3462 C3463 1.415 . S
C3463 H3433 0.950 . S
C3463 C3458 1.363 . S
C3463 C3462 1.415 . S
H3464 C3461 0.999 . S
H3465 C3446 0.913 . S
H3466 C3484 0.951 . S
H3467 C3486 0.951 . S
H3468 C3488 0.950 . S
H3469 C3489 0.950 . S
H3470 C3491 0.950 . S
H3471 C3494 0.950 . S
H3472 C3495 0.950 . S
H3473 C3497 0.950 . S
H3474 C3498 0.950 . S
H3475 C3499 0.951 . S
H3476 C3501 0.951 . S
H3477 C3503 0.950 . S
H3478 C3504 0.950 . S
H3479 C3506 0.950 . S
H3480 C3509 0.950 . S
H3481 C3510 0.950 . S
H3482 C3512 0.950 . S
H3483 C3513 0.950 . S
C3484 H3466 0.951 . S
C3484 C3485 1.366 . S
C3484 C3486 1.388 . S
C3485 C3484 1.366 . S
C3485 C3489 1.385 . S
C3486 H3467 0.951 . S
C3486 C3484 1.388 . S
C3486 C3487 1.366 . S
C3487 C3486 1.366 . S
C3487 C3488 1.414 . S
C3487 C3490 1.499 . S
C3488 H3468 0.950 . S
C3488 C3487 1.414 . S
C3488 C3489 1.374 . S
C3489 H3469 0.950 . S
C3489 C3485 1.385 . S
C3489 C3488 1.374 . S
C3490 C3487 1.499 . S
C3490 C3491 1.373 . S
C3490 C3492 1.389 . S
C3491 H3470 0.950 . S
C3491 C3490 1.373 . S
C3491 C3507 1.377 . S
C3492 C3490 1.389 . S
C3492 C3493 1.524 . S
C3492 C3506 1.377 . S
C3493 C3492 1.524 . S
C3493 C3494 1.397 . S
C3493 C3498 1.363 . S
C3494 H3471 0.950 . S
C3494 C3493 1.397 . S
C3494 C3495 1.334 . S
C3495 H3472 0.950 . S
C3495 C3494 1.334 . S
C3495 C3496 1.287 . S
C3496 C3495 1.287 . S
C3496 C3497 1.524 . S
C3496 H3515 0.913 . S
C3497 H3473 0.950 . S
C3497 C3496 1.524 . S
C3497 C3498 1.415 . S
C3498 H3474 0.950 . S
C3498 C3493 1.363 . S
C3498 C3497 1.415 . S
C3499 H3475 0.951 . S
C3499 C3500 1.366 . S
C3499 C3501 1.388 . S
C3500 C3499 1.366 . S
C3500 C3504 1.385 . S
C3501 H3476 0.951 . S
C3501 C3499 1.388 . S
C3501 C3502 1.366 . S
C3502 C3501 1.366 . S
C3502 C3503 1.414 . S
C3502 C3505 1.499 . S
C3503 H3477 0.950 . S
C3503 C3502 1.414 . S
C3503 C3504 1.374 . S
C3504 H3478 0.950 . S
C3504 C3500 1.385 . S
C3504 C3503 1.374 . S
C3505 C3502 1.499 . S
C3505 C3506 1.373 . S
C3505 C3507 1.389 . S
C3506 H3479 0.950 . S
C3506 C3492 1.377 . S
C3506 C3505 1.373 . S
C3507 C3491 1.377 . S
C3507 C3505 1.389 . S
C3507 C3508 1.524 . S
C3508 C3507 1.524 . S
C3508 C3509 1.397 . S
C3508 C3513 1.363 . S
C3509 H3480 0.950 . S
C3509 C3508 1.397 . S
C3509 C3510 1.334 . S
C3510 H3481 0.950 . S
C3510 C3509 1.334 . S
C3510 C3511 1.287 . S
C3511 C3510 1.287 . S
C3511 C3512 1.524 . S
C3511 H3514 0.999 . S
C3512 H3482 0.950 . S
C3512 C3511 1.524 . S
C3512 C3513 1.415 . S
C3513 H3483 0.950 . S
C3513 C3508 1.363 . S
C3513 C3512 1.415 . S
H3514 C3511 0.999 . S
H3515 C3496 0.913 . S
H3516 C3534 0.951 . S
H3517 C3536 0.951 . S
H3518 C3538 0.950 . S
H3519 C3539 0.950 . S
H3520 C3541 0.950 . S
H3521 C3544 0.950 . S
H3522 C3545 0.950 . S
H3523 C3547 0.950 . S
H3524 C3548 0.950 . S
H3525 C3549 0.951 . S
H3526 C3551 0.951 . S
H3527 C3553 0.950 . S
H3528 C3554 0.950 . S
H3529 C3556 0.950 . S
H3530 C3559 0.950 . S
H3531 C3560 0.950 . S
H3532 C3562 0.950 . S
H3533 C3563 0.950 . S
C3534 H3516 0.951 . S
C3534 C3535 1.366 . S
C3534 C3536 1.388 . S
C3535 C3534 1.366 . S
C3535 C3539 1.385 . S
C3536 H3517 0.951 . S
C3536 C3534 1.388 . S
C3536 C3537 1.366 . S
C3537 C3536 1.366 . S
C3537 C3538 1.414 . S
C3537 C3540 1.499 . S
C3538 H3518 0.950 . S
C3538 C3537 1.414 . S
C3538 C3539 1.374 . S
C3539 H3519 0.950 . S
C3539 C3535 1.385 . S
C3539 C3538 1.374 . S
C3540 C3537 1.499 . S
C3540 C3541 1.373 . S
C3540 C3542 1.389 . S
C3541 H3520 0.950 . S
C3541 C3540 1.373 . S
C3541 C3557 1.377 . S
C3542 C3540 1.389 . S
C3542 C3543 1.524 . S
C3542 C3556 1.377 . S
C3543 C3542 1.524 . S
C3543 C3544 1.397 . S
C3543 C3548 1.363 . S
C3544 H3521 0.950 . S
C3544 C3543 1.397 . S
C3544 C3545 1.334 . S
C3545 H3522 0.950 . S
C3545 C3544 1.334 . S
C3545 C3546 1.287 . S
C3546 C3545 1.287 . S
C3546 C3547 1.524 . S
C3546 H3565 0.913 . S
C3547 H3523 0.950 . S
C3547 C3546 1.524 . S
C3547 C3548 1.415 . S
C3548 H3524 0.950 . S
C3548 C3543 1.363 . S
C3548 C3547 1.415 . S
C3549 H3525 0.951 . S
C3549 C3550 1.366 . S
C3549 C3551 1.388 . S
C3550 C3549 1.366 . S
C3550 C3554 1.385 . S
C3551 H3526 0.951 . S
C3551 C3549 1.388 . S
C3551 C3552 1.366 . S
C3552 C3551 1.366 . S
C3552 C3553 1.414 . S
C3552 C3555 1.499 . S
C3553 H3527 0.950 . S
C3553 C3552 1.414 . S
C3553 C3554 1.374 . S
C3554 H3528 0.950 . S
C3554 C3550 1.385 . S
C3554 C3553 1.374 . S
C3555 C3552 1.499 . S
C3555 C3556 1.373 . S
C3555 C3557 1.389 . S
C3556 H3529 0.950 . S
C3556 C3542 1.377 . S
C3556 C3555 1.373 . S
C3557 C3541 1.377 . S
C3557 C3555 1.389 . S
C3557 C3558 1.524 . S
C3558 C3557 1.524 . S
C3558 C3559 1.397 . S
C3558 C3563 1.363 . S
C3559 H3530 0.950 . S
C3559 C3558 1.397 . S
C3559 C3560 1.334 . S
C3560 H3531 0.950 . S
C3560 C3559 1.334 . S
C3560 C3561 1.287 . S
C3561 C3560 1.287 . S
C3561 C3562 1.524 . S
C3561 H3564 0.999 . S
C3562 H3532 0.950 . S
C3562 C3561 1.524 . S
C3562 C3563 1.415 . S
C3563 H3533 0.950 . S
C3563 C3558 1.363 . S
C3563 C3562 1.415 . S
H3564 C3561 0.999 . S
H3565 C3546 0.913 . S
H3566 C3584 0.951 . S
H3567 C3586 0.951 . S
H3568 C3588 0.950 . S
H3569 C3589 0.950 . S
H3570 C3591 0.950 . S
H3571 C3594 0.950 . S
H3572 C3595 0.950 . S
H3573 C3597 0.950 . S
H3574 C3598 0.950 . S
H3575 C3599 0.951 . S
H3576 C3601 0.951 . S
H3577 C3603 0.950 . S
H3578 C3604 0.950 . S
H3579 C3606 0.950 . S
H3580 C3609 0.950 . S
H3581 C3610 0.950 . S
H3582 C3612 0.950 . S
H3583 C3613 0.950 . S
C3584 H3566 0.951 . S
C3584 C3585 1.366 . S
C3584 C3586 1.388 . S
C3585 C3584 1.366 . S
C3585 C3589 1.385 . S
C3586 H3567 0.951 . S
C3586 C3584 1.388 . S
C3586 C3587 1.366 . S
C3587 C3586 1.366 . S
C3587 C3588 1.414 . S
C3587 C3590 1.499 . S
C3588 H3568 0.950 . S
C3588 C3587 1.414 . S
C3588 C3589 1.374 . S
C3589 H3569 0.950 . S
C3589 C3585 1.385 . S
C3589 C3588 1.374 . S
C3590 C3587 1.499 . S
C3590 C3591 1.373 . S
C3590 C3592 1.389 . S
C3591 H3570 0.950 . S
C3591 C3590 1.373 . S
C3591 C3607 1.377 . S
C3592 C3590 1.389 . S
C3592 C3593 1.524 . S
C3592 C3606 1.377 . S
C3593 C3592 1.524 . S
C3593 C3594 1.397 . S
C3593 C3598 1.363 . S
C3594 H3571 0.950 . S
C3594 C3593 1.397 . S
C3594 C3595 1.334 . S
C3595 H3572 0.950 . S
C3595 C3594 1.334 . S
C3595 C3596 1.287 . S
C3596 C3595 1.287 . S
C3596 C3597 1.524 . S
C3596 H3615 0.913 . S
C3597 H3573 0.950 . S
C3597 C3596 1.524 . S
C3597 C3598 1.415 . S
C3598 H3574 0.950 . S
C3598 C3593 1.363 . S
C3598 C3597 1.415 . S
C3599 H3575 0.951 . S
C3599 C3600 1.366 . S
C3599 C3601 1.388 . S
C3600 C3599 1.366 . S
C3600 C3604 1.385 . S
C3601 H3576 0.951 . S
C3601 C3599 1.388 . S
C3601 C3602 1.366 . S
C3602 C3601 1.366 . S
C3602 C3603 1.414 . S
C3602 C3605 1.499 . S
C3603 H3577 0.950 . S
C3603 C3602 1.414 . S
C3603 C3604 1.374 . S
C3604 H3578 0.950 . S
C3604 C3600 1.385 . S
C3604 C3603 1.374 . S
C3605 C3602 1.499 . S
C3605 C3606 1.373 . S
C3605 C3607 1.389 . S
C3606 H3579 0.950 . S
C3606 C3592 1.377 . S
C3606 C3605 1.373 . S
C3607 C3591 1.377 . S
C3607 C3605 1.389 . S
C3607 C3608 1.524 . S
C3608 C3607 1.524 . S
C3608 C3609 1.397 . S
C3608 C3613 1.363 . S
C3609 H3580 0.950 . S
C3609 C3608 1.397 . S
C3609 C3610 1.334 . S
C3610 H3581 0.950 . S
C3610 C3609 1.334 . S
C3610 C3611 1.287 . S
C3611 C3610 1.287 . S
C3611 C3612 1.524 . S
C3611 H3614 0.999 . S
C3612 H3582 0.950 . S
C3612 C3611 1.524 . S
C3612 C3613 1.415 . S
C3613 H3583 0.950 . S
C3613 C3608 1.363 . S
C3613 C3612 1.415 . S
H3614 C3611 0.999 . S
H3615 C3596 0.913 . S
H3616 C3634 0.951 . S
H3617 C3636 0.951 . S
H3618 C3638 0.950 . S
H3619 C3639 0.950 . S
H3620 C3641 0.950 . S
H3621 C3644 0.950 . S
H3622 C3645 0.950 . S
H3623 C3647 0.950 . S
H3624 C3648 0.950 . S
H3625 C3649 0.951 . S
H3626 C3651 0.951 . S
H3627 C3653 0.950 . S
H3628 C3654 0.950 . S
H3629 C3656 0.950 . S
H3630 C3659 0.950 . S
H3631 C3660 0.950 . S
H3632 C3662 0.950 . S
H3633 C3663 0.950 . S
C3634 H3616 0.951 . S
C3634 C3635 1.366 . S
C3634 C3636 1.388 . S
C3635 C3634 1.366 . S
C3635 C3639 1.385 . S
C3636 H3617 0.951 . S
C3636 C3634 1.388 . S
C3636 C3637 1.366 . S
C3637 C3636 1.366 . S
C3637 C3638 1.414 . S
C3637 C3640 1.499 . S
C3638 H3618 0.950 . S
C3638 C3637 1.414 . S
C3638 C3639 1.374 . S
C3639 H3619 0.950 . S
C3639 C3635 1.385 . S
C3639 C3638 1.374 . S
C3640 C3637 1.499 . S
C3640 C3641 1.373 . S
C3640 C3642 1.389 . S
C3641 H3620 0.950 . S
C3641 C3640 1.373 . S
C3641 C3657 1.377 . S
C3642 C3640 1.389 . S
C3642 C3643 1.524 . S
C3642 C3656 1.377 . S
C3643 C3642 1.524 . S
C3643 C3644 1.397 . S
C3643 C3648 1.363 . S
C3644 H3621 0.950 . S
C3644 C3643 1.397 . S
C3644 C3645 1.334 . S
C3645 H3622 0.950 . S
C3645 C3644 1.334 . S
C3645 C3646 1.287 . S
C3646 C3645 1.287 . S
C3646 C3647 1.524 . S
C3646 H3665 0.913 . S
C3647 H3623 0.950 . S
C3647 C3646 1.524 . S
C3647 C3648 1.415 . S
C3648 H3624 0.950 . S
C3648 C3643 1.363 . S
C3648 C3647 1.415 . S
C3649 H3625 0.951 . S
C3649 C3650 1.366 . S
C3649 C3651 1.388 . S
C3650 C3649 1.366 . S
C3650 C3654 1.385 . S
C3651 H3626 0.951 . S
C3651 C3649 1.388 . S
C3651 C3652 1.366 . S
C3652 C3651 1.366 . S
C3652 C3653 1.414 . S
C3652 C3655 1.499 . S
C3653 H3627 0.950 . S
C3653 C3652 1.414 . S
C3653 C3654 1.374 . S
C3654 H3628 0.950 . S
C3654 C3650 1.385 . S
C3654 C3653 1.374 . S
C3655 C3652 1.499 . S
C3655 C3656 1.373 . S
C3655 C3657 1.389 . S
C3656 H3629 0.950 . S
C3656 C3642 1.377 . S
C3656 C3655 1.373 . S
C3657 C3641 1.377 . S
C3657 C3655 1.389 . S
C3657 C3658 1.524 . S
C3658 C3657 1.524 . S
C3658 C3659 1.397 . S
C3658 C3663 1.363 . S
C3659 H3630 0.950 . S
C3659 C3658 1.397 . S
C3659 C3660 1.334 . S
C3660 H3631 0.950 . S
C3660 C3659 1.334 . S
C3660 C3661 1.287 . S
C3661 C3660 1.287 . S
C3661 C3662 1.524 . S
C3661 H3664 0.999 . S
C3662 H3632 0.950 . S
C3662 C3661 1.524 . S
C3662 C3663 1.415 . S
C3663 H3633 0.950 . S
C3663 C3658 1.363 . S
C3663 C3662 1.415 . S
H3664 C3661 0.999 . S
H3665 C3646 0.913 . S
H3666 C3684 0.951 1_655 S
H3667 C3686 0.951 1_655 S
H3668 C3688 0.950 . S
H3669 C3689 0.950 . S
H3670 C3691 0.950 . S
H3671 C3694 0.950 . S
H3672 C3695 0.950 . S
H3673 C3697 0.950 . S
H3674 C3698 0.950 . S
H3675 C3699 0.951 . S
H3676 C3701 0.951 . S
H3677 C3703 0.950 . S
H3678 C3704 0.950 . S
H3679 C3706 0.950 . S
H3680 C3709 0.950 . S
H3681 C3710 0.950 . S
H3682 C3712 0.950 . S
H3683 C3713 0.950 . S
C3684 H3666 0.951 1_455 S
C3684 C3685 1.366 . S
C3684 C3686 1.388 . S
C3685 C3684 1.366 . S
C3685 C3689 1.385 . S
C3686 H3667 0.951 1_455 S
C3686 C3684 1.388 . S
C3686 C3687 1.366 . S
C3687 C3686 1.366 . S
C3687 C3688 1.414 . S
C3687 C3690 1.499 . S
C3688 H3668 0.950 . S
C3688 C3687 1.414 . S
C3688 C3689 1.374 . S
C3689 H3669 0.950 . S
C3689 C3685 1.385 . S
C3689 C3688 1.374 . S
C3690 C3687 1.499 . S
C3690 C3691 1.373 . S
C3690 C3692 1.389 1_455 S
C3691 H3670 0.950 . S
C3691 C3690 1.373 . S
C3691 C3707 1.377 . S
C3692 C3690 1.389 1_655 S
C3692 C3693 1.524 . S
C3692 C3706 1.377 . S
C3693 C3692 1.524 . S
C3693 C3694 1.397 . S
C3693 C3698 1.363 . S
C3694 H3671 0.950 . S
C3694 C3693 1.397 . S
C3694 C3695 1.334 . S
C3695 H3672 0.950 . S
C3695 C3694 1.334 . S
C3695 C3696 1.287 . S
C3696 C3695 1.287 . S
C3696 C3697 1.524 . S
C3696 H3715 0.913 . S
C3697 H3673 0.950 . S
C3697 C3696 1.524 . S
C3697 C3698 1.415 . S
C3698 H3674 0.950 . S
C3698 C3693 1.363 . S
C3698 C3697 1.415 . S
C3699 H3675 0.951 . S
C3699 C3700 1.366 . S
C3699 C3701 1.388 . S
C3700 C3699 1.366 . S
C3700 C3704 1.385 1_455 S
C3701 H3676 0.951 . S
C3701 C3699 1.388 . S
C3701 C3702 1.366 . S
C3702 C3701 1.366 . S
C3702 C3703 1.414 1_455 S
C3702 C3705 1.499 . S
C3703 H3677 0.950 . S
C3703 C3702 1.414 1_655 S
C3703 C3704 1.374 . S
C3704 H3678 0.950 . S
C3704 C3700 1.385 1_655 S
C3704 C3703 1.374 . S
C3705 C3702 1.499 . S
C3705 C3706 1.373 1_455 S
C3705 C3707 1.389 . S
C3706 H3679 0.950 . S
C3706 C3692 1.377 . S
C3706 C3705 1.373 1_655 S
C3707 C3691 1.377 . S
C3707 C3705 1.389 . S
C3707 C3708 1.524 . S
C3708 C3707 1.524 . S
C3708 C3709 1.397 . S
C3708 C3713 1.363 . S
C3709 H3680 0.950 . S
C3709 C3708 1.397 . S
C3709 C3710 1.334 . S
C3710 H3681 0.950 . S
C3710 C3709 1.334 . S
C3710 C3711 1.287 . S
C3711 C3710 1.287 . S
C3711 C3712 1.524 . S
C3711 H3714 0.999 . S
C3712 H3682 0.950 . S
C3712 C3711 1.524 . S
C3712 C3713 1.415 . S
C3713 H3683 0.950 . S
C3713 C3708 1.363 . S
C3713 C3712 1.415 . S
H3714 C3711 0.999 . S
H3715 C3696 0.913 . S
H3716 C3734 0.951 . S
H3717 C3736 0.951 . S
H3718 C3738 0.950 . S
H3719 C3739 0.950 . S
H3720 C3741 0.950 . S
H3721 C3744 0.950 . S
H3722 C3745 0.950 . S
H3723 C3747 0.950 . S
H3724 C3748 0.950 . S
H3725 C3749 0.951 . S
H3726 C3751 0.951 . S
H3727 C3753 0.950 . S
H3728 C3754 0.950 . S
H3729 C3756 0.950 . S
H3730 C3759 0.950 . S
H3731 C3760 0.950 . S
H3732 C3762 0.950 . S
H3733 C3763 0.950 . S
C3734 H3716 0.951 . S
C3734 C3735 1.366 . S
C3734 C3736 1.388 . S
C3735 C3734 1.366 . S
C3735 C3739 1.385 . S
C3736 H3717 0.951 . S
C3736 C3734 1.388 . S
C3736 C3737 1.366 . S
C3737 C3736 1.366 . S
C3737 C3738 1.414 . S
C3737 C3740 1.499 . S
C3738 H3718 0.950 . S
C3738 C3737 1.414 . S
C3738 C3739 1.374 . S
C3739 H3719 0.950 . S
C3739 C3735 1.385 . S
C3739 C3738 1.374 . S
C3740 C3737 1.499 . S
C3740 C3741 1.373 . S
C3740 C3742 1.389 . S
C3741 H3720 0.950 . S
C3741 C3740 1.373 . S
C3741 C3757 1.377 . S
C3742 C3740 1.389 . S
C3742 C3743 1.524 . S
C3742 C3756 1.377 . S
C3743 C3742 1.524 . S
C3743 C3744 1.397 . S
C3743 C3748 1.363 . S
C3744 H3721 0.950 . S
C3744 C3743 1.397 . S
C3744 C3745 1.334 . S
C3745 H3722 0.950 . S
C3745 C3744 1.334 . S
C3745 C3746 1.287 . S
C3746 C3745 1.287 . S
C3746 C3747 1.524 . S
C3746 H3765 0.913 . S
C3747 H3723 0.950 . S
C3747 C3746 1.524 . S
C3747 C3748 1.415 . S
C3748 H3724 0.950 . S
C3748 C3743 1.363 . S
C3748 C3747 1.415 . S
C3749 H3725 0.951 . S
C3749 C3750 1.366 . S
C3749 C3751 1.388 . S
C3750 C3749 1.366 . S
C3750 C3754 1.385 . S
C3751 H3726 0.951 . S
C3751 C3749 1.388 . S
C3751 C3752 1.366 . S
C3752 C3751 1.366 . S
C3752 C3753 1.414 . S
C3752 C3755 1.499 . S
C3753 H3727 0.950 . S
C3753 C3752 1.414 . S
C3753 C3754 1.374 . S
C3754 H3728 0.950 . S
C3754 C3750 1.385 . S
C3754 C3753 1.374 . S
C3755 C3752 1.499 . S
C3755 C3756 1.373 . S
C3755 C3757 1.389 . S
C3756 H3729 0.950 . S
C3756 C3742 1.377 . S
C3756 C3755 1.373 . S
C3757 C3741 1.377 . S
C3757 C3755 1.389 . S
C3757 C3758 1.524 . S
C3758 C3757 1.524 . S
C3758 C3759 1.397 . S
C3758 C3763 1.363 . S
C3759 H3730 0.950 . S
C3759 C3758 1.397 . S
C3759 C3760 1.334 . S
C3760 H3731 0.950 . S
C3760 C3759 1.334 . S
C3760 C3761 1.287 . S
C3761 C3760 1.287 . S
C3761 C3762 1.524 . S
C3761 H3764 0.999 . S
C3762 H3732 0.950 . S
C3762 C3761 1.524 . S
C3762 C3763 1.415 . S
C3763 H3733 0.950 . S
C3763 C3758 1.363 . S
C3763 C3762 1.415 . S
H3764 C3761 0.999 . S
H3765 C3746 0.913 . S
H3766 C3784 0.951 . S
H3767 C3786 0.951 . S
H3768 C3788 0.950 . S
H3769 C3789 0.950 . S
H3770 C3791 0.950 . S
H3771 C3794 0.950 . S
H3772 C3795 0.950 . S
H3773 C3797 0.950 . S
H3774 C3798 0.950 . S
H3775 C3799 0.952 . S
H3776 C3801 0.951 . S
H3777 C3803 0.950 . S
H3778 C3804 0.950 . S
H3779 C3806 0.950 . S
H3780 C3809 0.950 . S
H3781 C3810 0.950 . S
H3782 C3812 0.950 . S
H3783 C3813 0.950 . S
C3784 H3766 0.951 . S
C3784 C3785 1.366 . S
C3784 C3786 1.388 . S
C3785 C3784 1.366 . S
C3785 C3789 1.385 . S
C3786 H3767 0.951 . S
C3786 C3784 1.388 . S
C3786 C3787 1.366 . S
C3787 C3786 1.366 . S
C3787 C3788 1.414 . S
C3787 C3790 1.499 . S
C3788 H3768 0.950 . S
C3788 C3787 1.414 . S
C3788 C3789 1.374 . S
C3789 H3769 0.950 . S
C3789 C3785 1.385 . S
C3789 C3788 1.374 . S
C3790 C3787 1.499 . S
C3790 C3791 1.373 . S
C3790 C3792 1.389 1_565 S
C3791 H3770 0.950 . S
C3791 C3790 1.373 . S
C3791 C3807 1.377 . S
C3792 C3790 1.389 1_545 S
C3792 C3793 1.524 . S
C3792 C3806 1.377 . S
C3793 C3792 1.524 . S
C3793 C3794 1.397 . S
C3793 C3798 1.363 . S
C3794 H3771 0.950 . S
C3794 C3793 1.397 . S
C3794 C3795 1.334 . S
C3795 H3772 0.950 . S
C3795 C3794 1.334 . S
C3795 C3796 1.287 . S
C3796 C3795 1.287 . S
C3796 C3797 1.524 . S
C3796 H3815 0.913 . S
C3797 H3773 0.950 . S
C3797 C3796 1.524 . S
C3797 C3798 1.415 . S
C3798 H3774 0.950 . S
C3798 C3793 1.363 . S
C3798 C3797 1.415 . S
C3799 H3775 0.952 . S
C3799 C3800 1.366 . S
C3799 C3801 1.388 . S
C3800 C3799 1.366 . S
C3800 C3804 1.385 . S
C3801 H3776 0.951 . S
C3801 C3799 1.388 . S
C3801 C3802 1.366 . S
C3802 C3801 1.366 . S
C3802 C3803 1.414 . S
C3802 C3805 1.499 . S
C3803 H3777 0.950 . S
C3803 C3802 1.414 . S
C3803 C3804 1.374 . S
C3804 H3778 0.950 . S
C3804 C3800 1.385 . S
C3804 C3803 1.374 . S
C3805 C3802 1.499 . S
C3805 C3806 1.373 1_565 S
C3805 C3807 1.389 . S
C3806 H3779 0.950 . S
C3806 C3792 1.377 . S
C3806 C3805 1.373 1_545 S
C3807 C3791 1.377 . S
C3807 C3805 1.389 . S
C3807 C3808 1.524 . S
C3808 C3807 1.524 . S
C3808 C3809 1.397 . S
C3808 C3813 1.363 . S
C3809 H3780 0.950 . S
C3809 C3808 1.397 . S
C3809 C3810 1.334 . S
C3810 H3781 0.950 . S
C3810 C3809 1.334 . S
C3810 C3811 1.287 . S
C3811 C3810 1.287 . S
C3811 C3812 1.524 . S
C3811 H3814 0.999 . S
C3812 H3782 0.950 . S
C3812 C3811 1.524 . S
C3812 C3813 1.415 . S
C3813 H3783 0.950 . S
C3813 C3808 1.363 . S
C3813 C3812 1.415 . S
H3814 C3811 0.999 . S
H3815 C3796 0.913 . S
H3816 C3834 0.951 . S
H3817 C3836 0.951 . S
H3818 C3838 0.950 . S
H3819 C3839 0.950 . S
H3820 C3841 0.950 . S
H3821 C3844 0.950 . S
H3822 C3845 0.950 . S
H3823 C3847 0.950 . S
H3824 C3848 0.950 . S
H3825 C3849 0.951 . S
H3826 C3851 0.951 . S
H3827 C3853 0.967 1_545 S
H3828 C3854 0.940 1_545 S
H3829 C3856 0.950 . S
H3830 C3859 0.950 . S
H3831 C3860 0.950 . S
H3832 C3862 0.950 . S
H3833 C3863 0.950 . S
C3834 H3816 0.951 . S
C3834 C3835 1.366 . S
C3834 C3836 1.388 . S
C3835 C3834 1.366 . S
C3835 C3839 1.385 . S
C3836 H3817 0.951 . S
C3836 C3834 1.388 . S
C3836 C3837 1.366 . S
C3837 C3836 1.366 . S
C3837 C3838 1.414 . S
C3837 C3840 1.499 . S
C3838 H3818 0.950 . S
C3838 C3837 1.414 . S
C3838 C3839 1.374 . S
C3839 H3819 0.950 . S
C3839 C3835 1.385 . S
C3839 C3838 1.374 . S
C3840 C3837 1.499 . S
C3840 C3841 1.373 . S
C3840 C3842 1.389 1_565 S
C3841 H3820 0.950 . S
C3841 C3840 1.373 . S
C3841 C3857 1.377 . S
C3842 C3840 1.389 1_545 S
C3842 C3843 1.524 . S
C3842 C3856 1.377 . S
C3843 C3842 1.524 . S
C3843 C3844 1.397 . S
C3843 C3848 1.363 . S
C3844 H3821 0.950 . S
C3844 C3843 1.397 . S
C3844 C3845 1.334 . S
C3845 H3822 0.950 . S
C3845 C3844 1.334 . S
C3845 C3846 1.287 . S
C3846 C3845 1.287 . S
C3846 C3847 1.524 . S
C3846 H3865 0.913 . S
C3847 H3823 0.950 . S
C3847 C3846 1.524 . S
C3847 C3848 1.415 . S
C3848 H3824 0.950 . S
C3848 C3843 1.363 . S
C3848 C3847 1.415 . S
C3849 H3825 0.951 . S
C3849 C3850 1.366 . S
C3849 C3851 1.388 . S
C3850 C3849 1.366 . S
C3850 C3854 1.373 . S
C3851 H3826 0.951 . S
C3851 C3849 1.388 . S
C3851 C3852 1.366 . S
C3852 C3851 1.366 . S
C3852 C3853 1.414 . S
C3852 C3855 1.499 . S
C3853 H3827 0.967 1_565 S
C3853 C3852 1.414 . S
C3853 C3854 1.398 . S
C3854 H3828 0.940 1_565 S
C3854 C3850 1.373 . S
C3854 C3853 1.398 . S
C3855 C3852 1.499 . S
C3855 C3856 1.373 1_565 S
C3855 C3857 1.389 . S
C3856 H3829 0.950 . S
C3856 C3842 1.377 . S
C3856 C3855 1.373 1_545 S
C3857 C3841 1.377 . S
C3857 C3855 1.389 . S
C3857 C3858 1.524 . S
C3858 C3857 1.524 . S
C3858 C3859 1.397 . S
C3858 C3863 1.363 . S
C3859 H3830 0.950 . S
C3859 C3858 1.397 . S
C3859 C3860 1.334 . S
C3860 H3831 0.950 . S
C3860 C3859 1.334 . S
C3860 C3861 1.287 . S
C3861 C3860 1.287 . S
C3861 C3862 1.524 . S
C3861 H3864 0.999 . S
C3862 H3832 0.950 . S
C3862 C3861 1.524 . S
C3862 C3863 1.415 . S
C3863 H3833 0.950 . S
C3863 C3858 1.363 . S
C3863 C3862 1.415 . S
H3864 C3861 0.999 . S
H3865 C3846 0.913 . S
H3866 C3884 0.951 . S
H3867 C3886 0.951 . S
H3868 C3888 0.950 . S
H3869 C3889 0.998 . S
H3870 C3891 0.978 . S
H3871 C3894 0.950 1_655 S
H3872 C3895 0.932 1_655 S
H3873 C3897 0.950 . S
H3874 C3898 0.950 . S
H3875 C3899 0.951 . S
H3876 C3901 0.951 . S
H3877 C3903 0.950 . S
H3878 C3904 0.950 . S
H3879 C3906 0.950 . S
H3880 C3909 0.950 . S
H3881 C3910 0.950 . S
H3882 C3912 0.950 . S
H3883 C3913 0.950 . S
C3884 H3866 0.951 . S
C3884 C3885 1.366 . S
C3884 C3886 1.388 . S
C3885 C3884 1.366 . S
C3885 C3889 1.359 1_455 S
C3886 H3867 0.951 . S
C3886 C3884 1.388 . S
C3886 C3887 1.366 . S
C3887 C3886 1.366 . S
C3887 C3888 1.414 1_455 S
C3887 C3890 1.499 . S
C3888 H3868 0.950 . S
C3888 C3887 1.414 1_655 S
C3888 C3889 1.354 . S
C3889 H3869 0.998 . S
C3889 C3885 1.359 1_655 S
C3889 C3888 1.354 . S
C3890 C3887 1.499 . S
C3890 C3891 1.373 . S
C3890 C3892 1.389 . S
C3891 H3870 0.978 . S
C3891 C3890 1.373 . S
C3891 C3907 1.377 . S
C3892 C3890 1.389 . S
C3892 C3893 1.524 . S
C3892 C3906 1.377 . S
C3893 C3892 1.524 . S
C3893 C3894 1.397 . S
C3893 C3898 1.363 . S
C3894 H3871 0.950 1_455 S
C3894 C3893 1.397 . S
C3894 C3895 1.334 . S
C3895 H3872 0.932 1_455 S
C3895 C3894 1.334 . S
C3895 C3896 1.287 . S
C3896 C3895 1.287 . S
C3896 C3897 1.524 . S
C3896 H3915 0.913 . S
C3897 H3873 0.950 . S
C3897 C3896 1.524 . S
C3897 C3898 1.415 . S
C3898 H3874 0.950 . S
C3898 C3893 1.363 . S
C3898 C3897 1.415 . S
C3899 H3875 0.951 . S
C3899 C3900 1.366 1_655 S
C3899 C3901 1.388 . S
C3900 C3899 1.366 1_455 S
C3900 C3904 1.385 . S
C3901 H3876 0.951 . S
C3901 C3899 1.388 . S
C3901 C3902 1.366 1_655 S
C3902 C3901 1.366 1_455 S
C3902 C3903 1.414 . S
C3902 C3905 1.499 . S
C3903 H3877 0.950 . S
C3903 C3902 1.414 . S
C3903 C3904 1.374 . S
C3904 H3878 0.950 . S
C3904 C3900 1.385 . S
C3904 C3903 1.374 . S
C3905 C3902 1.499 . S
C3905 C3906 1.373 . S
C3905 C3907 1.389 . S
C3906 H3879 0.950 . S
C3906 C3892 1.377 . S
C3906 C3905 1.373 . S
C3907 C3891 1.377 . S
C3907 C3905 1.389 . S
C3907 C3908 1.524 1_455 S
C3908 C3907 1.524 1_655 S
C3908 C3909 1.399 1_655 S
C3908 C3913 1.361 . S
C3909 H3880 0.950 . S
C3909 C3908 1.399 1_455 S
C3909 C3910 1.334 . S
C3910 H3881 0.950 . S
C3910 C3909 1.334 . S
C3910 C3911 1.287 1_455 S
C3911 C3910 1.287 1_655 S
C3911 C3912 1.524 . S
C3911 H3914 0.999 . S
C3912 H3882 0.950 . S
C3912 C3911 1.524 . S
C3912 C3913 1.415 . S
C3913 H3883 0.950 . S
C3913 C3908 1.361 . S
C3913 C3912 1.415 . S
H3914 C3911 0.999 . S
H3915 C3896 0.913 . S
H3916 C3934 0.951 . S
H3917 C3936 0.951 . S
H3918 C3938 0.950 . S
H3919 C3939 0.950 . S
H3920 C3941 0.950 . S
H3921 C3944 0.950 . S
H3922 C3945 0.950 . S
H3923 C3947 0.950 . S
H3924 C3948 0.950 . S
H3925 C3949 0.951 . S
H3926 C3951 0.951 . S
H3927 C3953 0.950 . S
H3928 C3954 0.950 . S
H3929 C3956 0.950 . S
H3930 C3959 0.950 . S
H3931 C3960 0.950 . S
H3932 C3962 0.950 . S
H3933 C3963 0.950 . S
C3934 H3916 0.951 . S
C3934 C3935 1.366 . S
C3934 C3936 1.388 . S
C3935 C3934 1.366 . S
C3935 C3939 1.385 . S
C3936 H3917 0.951 . S
C3936 C3934 1.388 . S
C3936 C3937 1.366 . S
C3937 C3936 1.366 . S
C3937 C3938 1.414 . S
C3937 C3940 1.499 . S
C3938 H3918 0.950 . S
C3938 C3937 1.414 . S
C3938 C3939 1.374 . S
C3939 H3919 0.950 . S
C3939 C3935 1.385 . S
C3939 C3938 1.374 . S
C3940 C3937 1.499 . S
C3940 C3941 1.373 . S
C3940 C3942 1.389 . S
C3941 H3920 0.950 . S
C3941 C3940 1.373 . S
C3941 C3957 1.377 . S
C3942 C3940 1.389 . S
C3942 C3943 1.524 . S
C3942 C3956 1.377 . S
C3943 C3942 1.524 . S
C3943 C3944 1.397 . S
C3943 C3948 1.363 . S
C3944 H3921 0.950 . S
C3944 C3943 1.397 . S
C3944 C3945 1.334 . S
C3945 H3922 0.950 . S
C3945 C3944 1.334 . S
C3945 C3946 1.287 . S
C3946 C3945 1.287 . S
C3946 C3947 1.524 . S
C3946 H3965 0.913 . S
C3947 H3923 0.950 . S
C3947 C3946 1.524 . S
C3947 C3948 1.415 . S
C3948 H3924 0.950 . S
C3948 C3943 1.363 . S
C3948 C3947 1.415 . S
C3949 H3925 0.951 . S
C3949 C3950 1.366 . S
C3949 C3951 1.388 . S
C3950 C3949 1.366 . S
C3950 C3954 1.385 . S
C3951 H3926 0.951 . S
C3951 C3949 1.388 . S
C3951 C3952 1.366 . S
C3952 C3951 1.366 . S
C3952 C3953 1.414 . S
C3952 C3955 1.499 . S
C3953 H3927 0.950 . S
C3953 C3952 1.414 . S
C3953 C3954 1.374 . S
C3954 H3928 0.950 . S
C3954 C3950 1.385 . S
C3954 C3953 1.374 . S
C3955 C3952 1.499 . S
C3955 C3956 1.373 . S
C3955 C3957 1.389 . S
C3956 H3929 0.950 . S
C3956 C3942 1.377 . S
C3956 C3955 1.373 . S
C3957 C3941 1.377 . S
C3957 C3955 1.389 . S
C3957 C3958 1.524 . S
C3958 C3957 1.524 . S
C3958 C3959 1.397 . S
C3958 C3963 1.363 . S
C3959 H3930 0.950 . S
C3959 C3958 1.397 . S
C3959 C3960 1.334 . S
C3960 H3931 0.950 . S
C3960 C3959 1.334 . S
C3960 C3961 1.287 . S
C3961 C3960 1.287 . S
C3961 C3962 1.524 . S
C3961 H3964 0.999 . S
C3962 H3932 0.950 . S
C3962 C3961 1.524 . S
C3962 C3963 1.415 . S
C3963 H3933 0.950 . S
C3963 C3958 1.363 . S
C3963 C3962 1.415 . S
H3964 C3961 0.999 . S
H3965 C3946 0.913 . S
H3966 C3984 0.951 . S
H3967 C3986 0.951 . S
H3968 C3988 0.950 . S
H3969 C3989 0.950 . S
H3970 C3991 0.950 . S
H3971 C3994 0.950 . S
H3972 C3995 0.950 . S
H3973 C3997 0.950 . S
H3974 C3998 0.950 . S
H3975 C3999 0.951 . S
H3976 C4001 0.951 . S
H3977 C4003 0.950 . S
H3978 C4004 0.950 . S
H3979 C4006 0.950 . S
H3980 C4009 0.950 . S
H3981 C4010 0.950 . S
H3982 C4012 0.950 . S
H3983 C4013 0.950 . S
C3984 H3966 0.951 . S
C3984 C3985 1.366 . S
C3984 C3986 1.388 . S
C3985 C3984 1.366 . S
C3985 C3989 1.385 . S
C3986 H3967 0.951 . S
C3986 C3984 1.388 . S
C3986 C3987 1.366 . S
C3987 C3986 1.366 . S
C3987 C3988 1.414 . S
C3987 C3990 1.499 . S
C3988 H3968 0.950 . S
C3988 C3987 1.414 . S
C3988 C3989 1.374 . S
C3989 H3969 0.950 . S
C3989 C3985 1.385 . S
C3989 C3988 1.374 . S
C3990 C3987 1.499 . S
C3990 C3991 1.373 . S
C3990 C3992 1.389 . S
C3991 H3970 0.950 . S
C3991 C3990 1.373 . S
C3991 C4007 1.377 . S
C3992 C3990 1.389 . S
C3992 C3993 1.524 . S
C3992 C4006 1.377 . S
C3993 C3992 1.524 . S
C3993 C3994 1.397 . S
C3993 C3998 1.363 . S
C3994 H3971 0.950 . S
C3994 C3993 1.397 . S
C3994 C3995 1.334 . S
C3995 H3972 0.950 . S
C3995 C3994 1.334 . S
C3995 C3996 1.287 . S
C3996 C3995 1.287 . S
C3996 C3997 1.524 . S
C3996 H4015 0.913 . S
C3997 H3973 0.950 . S
C3997 C3996 1.524 . S
C3997 C3998 1.415 . S
C3998 H3974 0.950 . S
C3998 C3993 1.363 . S
C3998 C3997 1.415 . S
C3999 H3975 0.951 . S
C3999 C4000 1.366 . S
C3999 C4001 1.388 . S
C4000 C3999 1.366 . S
C4000 C4004 1.385 . S
C4001 H3976 0.951 . S
C4001 C3999 1.388 . S
C4001 C4002 1.366 . S
C4002 C4001 1.366 . S
C4002 C4003 1.414 . S
C4002 C4005 1.499 . S
C4003 H3977 0.950 . S
C4003 C4002 1.414 . S
C4003 C4004 1.374 . S
C4004 H3978 0.950 . S
C4004 C4000 1.385 . S
C4004 C4003 1.374 . S
C4005 C4002 1.499 . S
C4005 C4006 1.373 . S
C4005 C4007 1.389 . S
C4006 H3979 0.950 . S
C4006 C3992 1.377 . S
C4006 C4005 1.373 . S
C4007 C3991 1.377 . S
C4007 C4005 1.389 . S
C4007 C4008 1.524 . S
C4008 C4007 1.524 . S
C4008 C4009 1.397 . S
C4008 C4013 1.363 . S
C4009 H3980 0.950 . S
C4009 C4008 1.397 . S
C4009 C4010 1.334 . S
C4010 H3981 0.950 . S
C4010 C4009 1.334 . S
C4010 C4011 1.287 . S
C4011 C4010 1.287 . S
C4011 C4012 1.524 . S
C4011 H4014 0.999 . S
C4012 H3982 0.950 . S
C4012 C4011 1.524 . S
C4012 C4013 1.415 . S
C4013 H3983 0.950 . S
C4013 C4008 1.363 . S
C4013 C4012 1.415 . S
H4014 C4011 0.999 . S
H4015 C3996 0.913 . S
H4016 C4034 0.951 . S
H4017 C4036 0.951 . S
H4018 C4038 0.950 . S
H4019 C4039 0.950 . S
H4020 C4041 0.950 . S
H4021 C4044 0.950 . S
H4022 C4045 0.950 . S
H4023 C4047 0.950 . S
H4024 C4048 0.950 . S
H4025 C4049 0.951 . S
H4026 C4051 0.951 . S
H4027 C4053 0.950 . S
H4028 C4054 0.950 . S
H4029 C4056 0.950 . S
H4030 C4059 0.950 . S
H4031 C4060 0.950 . S
H4032 C4062 0.950 . S
H4033 C4063 0.950 . S
C4034 H4016 0.951 . S
C4034 C4035 1.366 . S
C4034 C4036 1.388 . S
C4035 C4034 1.366 . S
C4035 C4039 1.385 . S
C4036 H4017 0.951 . S
C4036 C4034 1.388 . S
C4036 C4037 1.366 . S
C4037 C4036 1.366 . S
C4037 C4038 1.414 . S
C4037 C4040 1.499 . S
C4038 H4018 0.950 . S
C4038 C4037 1.414 . S
C4038 C4039 1.374 . S
C4039 H4019 0.950 . S
C4039 C4035 1.385 . S
C4039 C4038 1.374 . S
C4040 C4037 1.499 . S
C4040 C4041 1.373 . S
C4040 C4042 1.389 . S
C4041 H4020 0.950 . S
C4041 C4040 1.373 . S
C4041 C4057 1.377 . S
C4042 C4040 1.389 . S
C4042 C4043 1.524 . S
C4042 C4056 1.377 . S
C4043 C4042 1.524 . S
C4043 C4044 1.397 . S
C4043 C4048 1.363 . S
C4044 H4021 0.950 . S
C4044 C4043 1.397 . S
C4044 C4045 1.334 . S
C4045 H4022 0.950 . S
C4045 C4044 1.334 . S
C4045 C4046 1.287 . S
C4046 C4045 1.287 . S
C4046 C4047 1.524 . S
C4046 H4065 0.913 . S
C4047 H4023 0.950 . S
C4047 C4046 1.524 . S
C4047 C4048 1.415 . S
C4048 H4024 0.950 . S
C4048 C4043 1.363 . S
C4048 C4047 1.415 . S
C4049 H4025 0.951 . S
C4049 C4050 1.366 . S
C4049 C4051 1.388 . S
C4050 C4049 1.366 . S
C4050 C4054 1.385 . S
C4051 H4026 0.951 . S
C4051 C4049 1.388 . S
C4051 C4052 1.366 . S
C4052 C4051 1.366 . S
C4052 C4053 1.414 . S
C4052 C4055 1.499 . S
C4053 H4027 0.950 . S
C4053 C4052 1.414 . S
C4053 C4054 1.374 . S
C4054 H4028 0.950 . S
C4054 C4050 1.385 . S
C4054 C4053 1.374 . S
C4055 C4052 1.499 . S
C4055 C4056 1.373 . S
C4055 C4057 1.389 . S
C4056 H4029 0.950 . S
C4056 C4042 1.377 . S
C4056 C4055 1.373 . S
C4057 C4041 1.377 . S
C4057 C4055 1.389 . S
C4057 C4058 1.524 . S
C4058 C4057 1.524 . S
C4058 C4059 1.397 . S
C4058 C4063 1.363 . S
C4059 H4030 0.950 . S
C4059 C4058 1.397 . S
C4059 C4060 1.334 . S
C4060 H4031 0.950 . S
C4060 C4059 1.334 . S
C4060 C4061 1.287 . S
C4061 C4060 1.287 . S
C4061 C4062 1.524 . S
C4061 H4064 0.999 . S
C4062 H4032 0.950 . S
C4062 C4061 1.524 . S
C4062 C4063 1.415 . S
C4063 H4033 0.950 . S
C4063 C4058 1.363 . S
C4063 C4062 1.415 . S
H4064 C4061 0.999 . S
H4065 C4046 0.913 . S
H4066 C4084 0.951 . S
H4067 C4086 0.951 . S
H4068 C4088 0.950 . S
H4069 C4089 0.950 . S
H4070 C4091 0.950 . S
H4071 C4094 0.950 . S
H4072 C4095 0.950 . S
H4073 C4097 0.950 . S
H4074 C4098 0.950 . S
H4075 C4099 0.951 . S
H4076 C4101 0.951 . S
H4077 C4103 0.950 . S
H4078 C4104 0.950 . S
H4079 C4106 0.950 . S
H4080 C4109 0.950 . S
H4081 C4110 0.950 . S
H4082 C4112 0.950 . S
H4083 C4113 0.950 . S
C4084 H4066 0.951 . S
C4084 C4085 1.366 . S
C4084 C4086 1.388 . S
C4085 C4084 1.366 . S
C4085 C4089 1.385 . S
C4086 H4067 0.951 . S
C4086 C4084 1.388 . S
C4086 C4087 1.366 . S
C4087 C4086 1.366 . S
C4087 C4088 1.414 . S
C4087 C4090 1.499 . S
C4088 H4068 0.950 . S
C4088 C4087 1.414 . S
C4088 C4089 1.374 . S
C4089 H4069 0.950 . S
C4089 C4085 1.385 . S
C4089 C4088 1.374 . S
C4090 C4087 1.499 . S
C4090 C4091 1.373 . S
C4090 C4092 1.389 . S
C4091 H4070 0.950 . S
C4091 C4090 1.373 . S
C4091 C4107 1.377 . S
C4092 C4090 1.389 . S
C4092 C4093 1.524 . S
C4092 C4106 1.377 . S
C4093 C4092 1.524 . S
C4093 C4094 1.397 . S
C4093 C4098 1.363 . S
C4094 H4071 0.950 . S
C4094 C4093 1.397 . S
C4094 C4095 1.334 . S
C4095 H4072 0.950 . S
C4095 C4094 1.334 . S
C4095 C4096 1.287 . S
C4096 C4095 1.287 . S
C4096 C4097 1.524 . S
C4096 H4115 0.913 . S
C4097 H4073 0.950 . S
C4097 C4096 1.524 . S
C4097 C4098 1.415 . S
C4098 H4074 0.950 . S
C4098 C4093 1.363 . S
C4098 C4097 1.415 . S
C4099 H4075 0.951 . S
C4099 C4100 1.366 . S
C4099 C4101 1.388 . S
C4100 C4099 1.366 . S
C4100 C4104 1.385 . S
C4101 H4076 0.951 . S
C4101 C4099 1.388 . S
C4101 C4102 1.366 . S
C4102 C4101 1.366 . S
C4102 C4103 1.414 . S
C4102 C4105 1.499 . S
C4103 H4077 0.950 . S
C4103 C4102 1.414 . S
C4103 C4104 1.374 . S
C4104 H4078 0.950 . S
C4104 C4100 1.385 . S
C4104 C4103 1.374 . S
C4105 C4102 1.499 . S
C4105 C4106 1.373 . S
C4105 C4107 1.389 . S
C4106 H4079 0.950 . S
C4106 C4092 1.377 . S
C4106 C4105 1.373 . S
C4107 C4091 1.377 . S
C4107 C4105 1.389 . S
C4107 C4108 1.524 . S
C4108 C4107 1.524 . S
C4108 C4109 1.397 . S
C4108 C4113 1.363 . S
C4109 H4080 0.950 . S
C4109 C4108 1.397 . S
C4109 C4110 1.334 . S
C4110 H4081 0.950 . S
C4110 C4109 1.334 . S
C4110 C4111 1.287 . S
C4111 C4110 1.287 . S
C4111 C4112 1.524 . S
C4111 H4114 0.999 . S
C4112 H4082 0.950 . S
C4112 C4111 1.524 . S
C4112 C4113 1.415 . S
C4113 H4083 0.950 . S
C4113 C4108 1.363 . S
C4113 C4112 1.415 . S
H4114 C4111 0.999 . S
H4115 C4096 0.913 . S
H4116 C4134 0.948 . S
H4117 C4136 1.017 . S
H4118 C4138 0.950 . S
H4119 C4139 0.950 . S
H4120 C4141 0.950 . S
H4121 C4144 0.950 . S
H4122 C4145 0.950 . S
H4123 C4147 0.950 . S
H4124 C4148 0.950 . S
H4125 C4149 0.951 . S
H4126 C4151 0.951 . S
H4127 C4153 0.950 . S
H4128 C4154 0.950 . S
H4129 C4156 0.961 . S
H4130 C4159 0.960 . S
H4131 C4160 0.943 . S
H4132 C4162 0.950 . S
H4133 C4163 0.950 . S
C4134 H4116 0.948 . S
C4134 C4135 1.374 1_565 S
C4134 C4136 1.345 . S
C4135 C4134 1.374 1_545 S
C4135 C4139 1.385 . S
C4136 H4117 1.017 . S
C4136 C4134 1.345 . S
C4136 C4137 1.344 1_565 S
C4137 C4136 1.344 1_545 S
C4137 C4138 1.414 . S
C4137 C4140 1.499 . S
C4138 H4118 0.950 . S
C4138 C4137 1.414 . S
C4138 C4139 1.374 . S
C4139 H4119 0.950 . S
C4139 C4135 1.385 . S
C4139 C4138 1.374 . S
C4140 C4137 1.499 . S
C4140 C4141 1.373 . S
C4140 C4142 1.389 . S
C4141 H4120 0.950 . S
C4141 C4140 1.373 . S
C4141 C4157 1.377 . S
C4142 C4140 1.389 . S
C4142 C4143 1.524 . S
C4142 C4156 1.377 . S
C4143 C4142 1.524 . S
C4143 C4144 1.397 . S
C4143 C4148 1.363 1_545 S
C4144 H4121 0.950 . S
C4144 C4143 1.397 . S
C4144 C4145 1.334 . S
C4145 H4122 0.950 . S
C4145 C4144 1.334 . S
C4145 C4146 1.287 . S
C4146 C4145 1.287 . S
C4146 C4147 1.524 1_545 S
C4146 H4165 0.913 . S
C4147 H4123 0.950 . S
C4147 C4146 1.524 1_565 S
C4147 C4148 1.415 . S
C4148 H4124 0.950 . S
C4148 C4143 1.363 1_565 S
C4148 C4147 1.415 . S
C4149 H4125 0.951 . S
C4149 C4150 1.366 . S
C4149 C4151 1.388 . S
C4150 C4149 1.366 . S
C4150 C4154 1.385 1_545 S
C4151 H4126 0.951 . S
C4151 C4149 1.388 . S
C4151 C4152 1.366 . S
C4152 C4151 1.366 . S
C4152 C4153 1.414 1_545 S
C4152 C4155 1.499 . S
C4153 H4127 0.950 . S
C4153 C4152 1.414 1_565 S
C4153 C4154 1.374 . S
C4154 H4128 0.950 . S
C4154 C4150 1.385 1_565 S
C4154 C4153 1.374 . S
C4155 C4152 1.499 . S
C4155 C4156 1.373 . S
C4155 C4157 1.389 . S
C4156 H4129 0.961 . S
C4156 C4142 1.377 . S
C4156 C4155 1.373 . S
C4157 C4141 1.377 . S
C4157 C4155 1.389 . S
C4157 C4158 1.524 . S
C4158 C4157 1.524 . S
C4158 C4159 1.379 1_545 S
C4158 C4163 1.363 . S
C4159 H4130 0.960 . S
C4159 C4158 1.379 1_565 S
C4159 C4160 1.344 . S
C4160 H4131 0.943 . S
C4160 C4159 1.344 . S
C4160 C4161 1.291 1_565 S
C4161 C4160 1.291 1_545 S
C4161 C4162 1.524 . S
C4161 H4164 0.999 . S
C4162 H4132 0.950 . S
C4162 C4161 1.524 . S
C4162 C4163 1.415 . S
C4163 H4133 0.950 . S
C4163 C4158 1.363 . S
C4163 C4162 1.415 . S
H4164 C4161 0.999 . S
H4165 C4146 0.913 . S
H4166 C4184 0.951 . S
H4167 C4186 0.951 . S
H4168 C4188 0.950 . S
H4169 C4189 0.950 . S
H4170 C4191 0.950 . S
H4171 C4194 0.950 . S
H4172 C4195 0.950 . S
H4173 C4197 0.950 . S
H4174 C4198 0.950 . S
H4175 C4199 0.951 . S
H4176 C4201 0.951 . S
H4177 C4203 0.950 . S
H4178 C4204 0.950 . S
H4179 C4206 0.950 . S
H4180 C4209 0.950 1_455 S
H4181 C4210 0.969 . S
H4182 C4212 0.950 . S
H4183 C4213 0.950 . S
C4184 H4166 0.951 . S
C4184 C4185 1.366 1_455 S
C4184 C4186 1.388 . S
C4185 C4184 1.366 1_655 S
C4185 C4189 1.385 . S
C4186 H4167 0.951 . S
C4186 C4184 1.388 . S
C4186 C4187 1.366 1_455 S
C4187 C4186 1.366 1_655 S
C4187 C4188 1.414 . S
C4187 C4190 1.499 . S
C4188 H4168 0.950 . S
C4188 C4187 1.414 . S
C4188 C4189 1.374 . S
C4189 H4169 0.950 . S
C4189 C4185 1.385 . S
C4189 C4188 1.374 . S
C4190 C4187 1.499 . S
C4190 C4191 1.373 . S
C4190 C4192 1.393 . S
C4191 H4170 0.950 . S
C4191 C4190 1.373 . S
C4191 C4207 1.377 . S
C4192 C4190 1.393 . S
C4192 C4193 1.516 1_655 S
C4192 C4206 1.381 1_655 S
C4193 C4192 1.516 1_455 S
C4193 C4194 1.397 1_455 S
C4193 C4198 1.363 . S
C4194 H4171 0.950 . S
C4194 C4193 1.397 1_655 S
C4194 C4195 1.334 . S
C4195 H4172 0.950 . S
C4195 C4194 1.334 . S
C4195 C4196 1.287 1_655 S
C4196 C4195 1.287 1_455 S
C4196 C4197 1.524 . S
C4196 H4215 0.913 . S
C4197 H4173 0.950 . S
C4197 C4196 1.524 . S
C4197 C4198 1.415 . S
C4198 H4174 0.950 . S
C4198 C4193 1.363 . S
C4198 C4197 1.415 . S
C4199 H4175 0.951 . S
C4199 C4200 1.366 . S
C4199 C4201 1.388 . S
C4200 C4199 1.366 . S
C4200 C4204 1.385 1_655 S
C4201 H4176 0.951 . S
C4201 C4199 1.388 . S
C4201 C4202 1.366 . S
C4202 C4201 1.366 . S
C4202 C4203 1.414 1_655 S
C4202 C4205 1.499 . S
C4203 H4177 0.950 . S
C4203 C4202 1.414 1_455 S
C4203 C4204 1.374 . S
C4204 H4178 0.950 . S
C4204 C4200 1.385 1_455 S
C4204 C4203 1.374 . S
C4205 C4202 1.499 . S
C4205 C4206 1.373 1_655 S
C4205 C4207 1.389 . S
C4206 H4179 0.950 . S
C4206 C4192 1.381 1_455 S
C4206 C4205 1.373 1_455 S
C4207 C4191 1.377 . S
C4207 C4205 1.389 . S
C4207 C4208 1.524 . S
C4208 C4207 1.524 . S
C4208 C4209 1.397 . S
C4208 C4213 1.363 . S
C4209 H4180 0.950 1_655 S
C4209 C4208 1.397 . S
C4209 C4210 1.334 . S
C4210 H4181 0.969 . S
C4210 C4209 1.334 . S
C4210 C4211 1.287 . S
C4211 C4210 1.287 . S
C4211 C4212 1.524 . S
C4211 H4214 0.999 . S
C4212 H4182 0.950 . S
C4212 C4211 1.524 . S
C4212 C4213 1.415 . S
C4213 H4183 0.950 . S
C4213 C4208 1.363 . S
C4213 C4212 1.415 . S
H4214 C4211 0.999 . S
H4215 C4196 0.913 . S
H4216 C4234 0.951 . S
H4217 C4236 0.951 . S
H4218 C4238 0.950 . S
H4219 C4239 0.950 . S
H4220 C4241 0.950 . S
H4221 C4244 0.950 . S
H4222 C4245 0.950 . S
H4223 C4247 0.950 . S
H4224 C4248 0.950 . S
H4225 C4249 0.951 . S
H4226 C4251 0.951 . S
H4227 C4253 0.950 . S
H4228 C4254 0.950 . S
H4229 C4256 0.950 . S
H4230 C4259 0.950 . S
H4231 C4260 0.950 . S
H4232 C4262 0.950 . S
H4233 C4263 0.950 . S
C4234 H4216 0.951 . S
C4234 C4235 1.366 . S
C4234 C4236 1.388 . S
C4235 C4234 1.366 . S
C4235 C4239 1.385 . S
C4236 H4217 0.951 . S
C4236 C4234 1.388 . S
C4236 C4237 1.366 . S
C4237 C4236 1.366 . S
C4237 C4238 1.414 . S
C4237 C4240 1.499 . S
C4238 H4218 0.950 . S
C4238 C4237 1.414 . S
C4238 C4239 1.374 . S
C4239 H4219 0.950 . S
C4239 C4235 1.385 . S
C4239 C4238 1.374 . S
C4240 C4237 1.499 . S
C4240 C4241 1.373 . S
C4240 C4242 1.389 . S
C4241 H4220 0.950 . S
C4241 C4240 1.373 . S
C4241 C4257 1.377 . S
C4242 C4240 1.389 . S
C4242 C4243 1.524 . S
C4242 C4256 1.377 . S
C4243 C4242 1.524 . S
C4243 C4244 1.397 . S
C4243 C4248 1.363 . S
C4244 H4221 0.950 . S
C4244 C4243 1.397 . S
C4244 C4245 1.334 . S
C4245 H4222 0.950 . S
C4245 C4244 1.334 . S
C4245 C4246 1.287 . S
C4246 C4245 1.287 . S
C4246 C4247 1.524 . S
C4246 H4265 0.913 . S
C4247 H4223 0.950 . S
C4247 C4246 1.524 . S
C4247 C4248 1.415 . S
C4248 H4224 0.950 . S
C4248 C4243 1.363 . S
C4248 C4247 1.415 . S
C4249 H4225 0.951 . S
C4249 C4250 1.366 . S
C4249 C4251 1.388 . S
C4250 C4249 1.366 . S
C4250 C4254 1.385 . S
C4251 H4226 0.951 . S
C4251 C4249 1.388 . S
C4251 C4252 1.366 . S
C4252 C4251 1.366 . S
C4252 C4253 1.414 . S
C4252 C4255 1.499 . S
C4253 H4227 0.950 . S
C4253 C4252 1.414 . S
C4253 C4254 1.374 . S
C4254 H4228 0.950 . S
C4254 C4250 1.385 . S
C4254 C4253 1.374 . S
C4255 C4252 1.499 . S
C4255 C4256 1.373 . S
C4255 C4257 1.389 . S
C4256 H4229 0.950 . S
C4256 C4242 1.377 . S
C4256 C4255 1.373 . S
C4257 C4241 1.377 . S
C4257 C4255 1.389 . S
C4257 C4258 1.524 . S
C4258 C4257 1.524 . S
C4258 C4259 1.397 . S
C4258 C4263 1.363 . S
C4259 H4230 0.950 . S
C4259 C4258 1.397 . S
C4259 C4260 1.334 . S
C4260 H4231 0.950 . S
C4260 C4259 1.334 . S
C4260 C4261 1.287 . S
C4261 C4260 1.287 . S
C4261 C4262 1.524 . S
C4261 H4264 0.999 . S
C4262 H4232 0.950 . S
C4262 C4261 1.524 . S
C4262 C4263 1.415 . S
C4263 H4233 0.950 . S
C4263 C4258 1.363 . S
C4263 C4262 1.415 . S
H4264 C4261 0.999 . S
H4265 C4246 0.913 . S
H4266 C4284 0.951 . S
H4267 C4286 0.951 . S
H4268 C4288 0.950 . S
H4269 C4289 0.950 . S
H4270 C4291 0.950 . S
H4271 C4294 0.950 . S
H4272 C4295 0.950 . S
H4273 C4297 0.950 . S
H4274 C4298 0.950 . S
H4275 C4299 0.951 . S
H4276 C4301 0.951 . S
H4277 C4303 0.950 . S
H4278 C4304 0.950 . S
H4279 C4306 0.950 . S
H4280 C4309 0.950 . S
H4281 C4310 0.950 . S
H4282 C4312 0.950 . S
H4283 C4313 0.950 . S
C4284 H4266 0.951 . S
C4284 C4285 1.366 . S
C4284 C4286 1.388 . S
C4285 C4284 1.366 . S
C4285 C4289 1.385 . S
C4286 H4267 0.951 . S
C4286 C4284 1.388 . S
C4286 C4287 1.366 . S
C4287 C4286 1.366 . S
C4287 C4288 1.414 . S
C4287 C4290 1.499 . S
C4288 H4268 0.950 . S
C4288 C4287 1.414 . S
C4288 C4289 1.374 . S
C4289 H4269 0.950 . S
C4289 C4285 1.385 . S
C4289 C4288 1.374 . S
C4290 C4287 1.499 . S
C4290 C4291 1.373 . S
C4290 C4292 1.389 . S
C4291 H4270 0.950 . S
C4291 C4290 1.373 . S
C4291 C4307 1.377 . S
C4292 C4290 1.389 . S
C4292 C4293 1.524 . S
C4292 C4306 1.377 . S
C4293 C4292 1.524 . S
C4293 C4294 1.397 . S
C4293 C4298 1.363 . S
C4294 H4271 0.950 . S
C4294 C4293 1.397 . S
C4294 C4295 1.334 . S
C4295 H4272 0.950 . S
C4295 C4294 1.334 . S
C4295 C4296 1.287 . S
C4296 C4295 1.287 . S
C4296 C4297 1.524 . S
C4296 H4315 0.913 . S
C4297 H4273 0.950 . S
C4297 C4296 1.524 . S
C4297 C4298 1.415 . S
C4298 H4274 0.950 . S
C4298 C4293 1.363 . S
C4298 C4297 1.415 . S
C4299 H4275 0.951 . S
C4299 C4300 1.366 . S
C4299 C4301 1.388 . S
C4300 C4299 1.366 . S
C4300 C4304 1.385 . S
C4301 H4276 0.951 . S
C4301 C4299 1.388 . S
C4301 C4302 1.366 . S
C4302 C4301 1.366 . S
C4302 C4303 1.414 . S
C4302 C4305 1.499 . S
C4303 H4277 0.950 . S
C4303 C4302 1.414 . S
C4303 C4304 1.374 . S
C4304 H4278 0.950 . S
C4304 C4300 1.385 . S
C4304 C4303 1.374 . S
C4305 C4302 1.499 . S
C4305 C4306 1.373 . S
C4305 C4307 1.389 . S
C4306 H4279 0.950 . S
C4306 C4292 1.377 . S
C4306 C4305 1.373 . S
C4307 C4291 1.377 . S
C4307 C4305 1.389 . S
C4307 C4308 1.524 . S
C4308 C4307 1.524 . S
C4308 C4309 1.397 . S
C4308 C4313 1.363 . S
C4309 H4280 0.950 . S
C4309 C4308 1.397 . S
C4309 C4310 1.334 . S
C4310 H4281 0.950 . S
C4310 C4309 1.334 . S
C4310 C4311 1.287 . S
C4311 C4310 1.287 . S
C4311 C4312 1.524 . S
C4311 H4314 0.999 . S
C4312 H4282 0.950 . S
C4312 C4311 1.524 . S
C4312 C4313 1.415 . S
C4313 H4283 0.950 . S
C4313 C4308 1.363 . S
C4313 C4312 1.415 . S
H4314 C4311 0.999 . S
H4315 C4296 0.913 . S
H4316 C4334 0.951 . S
H4317 C4336 0.951 . S
H4318 C4338 0.950 . S
H4319 C4339 0.950 . S
H4320 C4341 0.950 . S
H4321 C4344 0.950 . S
H4322 C4345 0.950 . S
H4323 C4347 0.950 . S
H4324 C4348 0.950 . S
H4325 C4349 0.951 . S
H4326 C4351 0.951 . S
H4327 C4353 0.950 . S
H4328 C4354 0.950 . S
H4329 C4356 0.950 . S
H4330 C4359 0.950 . S
H4331 C4360 0.950 . S
H4332 C4362 0.950 . S
H4333 C4363 0.950 . S
C4334 H4316 0.951 . S
C4334 C4335 1.366 . S
C4334 C4336 1.388 . S
C4335 C4334 1.366 . S
C4335 C4339 1.385 . S
C4336 H4317 0.951 . S
C4336 C4334 1.388 . S
C4336 C4337 1.366 . S
C4337 C4336 1.366 . S
C4337 C4338 1.414 . S
C4337 C4340 1.499 . S
C4338 H4318 0.950 . S
C4338 C4337 1.414 . S
C4338 C4339 1.374 . S
C4339 H4319 0.950 . S
C4339 C4335 1.385 . S
C4339 C4338 1.374 . S
C4340 C4337 1.499 . S
C4340 C4341 1.373 . S
C4340 C4342 1.389 . S
C4341 H4320 0.950 . S
C4341 C4340 1.373 . S
C4341 C4357 1.377 . S
C4342 C4340 1.389 . S
C4342 C4343 1.524 . S
C4342 C4356 1.377 . S
C4343 C4342 1.524 . S
C4343 C4344 1.397 . S
C4343 C4348 1.363 . S
C4344 H4321 0.950 . S
C4344 C4343 1.397 . S
C4344 C4345 1.334 . S
C4345 H4322 0.950 . S
C4345 C4344 1.334 . S
C4345 C4346 1.287 . S
C4346 C4345 1.287 . S
C4346 C4347 1.524 . S
C4346 H4365 0.913 . S
C4347 H4323 0.950 . S
C4347 C4346 1.524 . S
C4347 C4348 1.415 . S
C4348 H4324 0.950 . S
C4348 C4343 1.363 . S
C4348 C4347 1.415 . S
C4349 H4325 0.951 . S
C4349 C4350 1.366 . S
C4349 C4351 1.388 . S
C4350 C4349 1.366 . S
C4350 C4354 1.385 . S
C4351 H4326 0.951 . S
C4351 C4349 1.388 . S
C4351 C4352 1.366 . S
C4352 C4351 1.366 . S
C4352 C4353 1.414 . S
C4352 C4355 1.499 . S
C4353 H4327 0.950 . S
C4353 C4352 1.414 . S
C4353 C4354 1.374 . S
C4354 H4328 0.950 . S
C4354 C4350 1.385 . S
C4354 C4353 1.374 . S
C4355 C4352 1.499 . S
C4355 C4356 1.373 . S
C4355 C4357 1.389 . S
C4356 H4329 0.950 . S
C4356 C4342 1.377 . S
C4356 C4355 1.373 . S
C4357 C4341 1.377 . S
C4357 C4355 1.389 . S
C4357 C4358 1.524 . S
C4358 C4357 1.524 . S
C4358 C4359 1.397 . S
C4358 C4363 1.363 . S
C4359 H4330 0.950 . S
C4359 C4358 1.397 . S
C4359 C4360 1.334 . S
C4360 H4331 0.950 . S
C4360 C4359 1.334 . S
C4360 C4361 1.287 . S
C4361 C4360 1.287 . S
C4361 C4362 1.524 . S
C4361 H4364 0.999 . S
C4362 H4332 0.950 . S
C4362 C4361 1.524 . S
C4362 C4363 1.415 . S
C4363 H4333 0.950 . S
C4363 C4358 1.363 . S
C4363 C4362 1.415 . S
H4364 C4361 0.999 . S
H4365 C4346 0.913 . S
H4366 C4384 0.951 . S
H4367 C4386 0.951 . S
H4368 C4388 0.950 . S
H4369 C4389 0.950 . S
H4370 C4391 0.950 . S
H4371 C4394 0.950 . S
H4372 C4395 0.950 . S
H4373 C4397 0.950 . S
H4374 C4398 0.950 . S
H4375 C4399 0.951 . S
H4376 C4401 0.951 . S
H4377 C4403 0.950 . S
H4378 C4404 0.950 . S
H4379 C4406 0.950 . S
H4380 C4409 0.950 . S
H4381 C4410 0.950 . S
H4382 C4412 0.950 . S
H4383 C4413 0.950 . S
C4384 H4366 0.951 . S
C4384 C4385 1.366 . S
C4384 C4386 1.388 . S
C4385 C4384 1.366 . S
C4385 C4389 1.385 . S
C4386 H4367 0.951 . S
C4386 C4384 1.388 . S
C4386 C4387 1.366 . S
C4387 C4386 1.366 . S
C4387 C4388 1.414 . S
C4387 C4390 1.499 . S
C4388 H4368 0.950 . S
C4388 C4387 1.414 . S
C4388 C4389 1.374 . S
C4389 H4369 0.950 . S
C4389 C4385 1.385 . S
C4389 C4388 1.374 . S
C4390 C4387 1.499 . S
C4390 C4391 1.373 . S
C4390 C4392 1.389 . S
C4391 H4370 0.950 . S
C4391 C4390 1.373 . S
C4391 C4407 1.377 . S
C4392 C4390 1.389 . S
C4392 C4393 1.524 . S
C4392 C4406 1.377 . S
C4393 C4392 1.524 . S
C4393 C4394 1.397 . S
C4393 C4398 1.363 . S
C4394 H4371 0.950 . S
C4394 C4393 1.397 . S
C4394 C4395 1.334 . S
C4395 H4372 0.950 . S
C4395 C4394 1.334 . S
C4395 C4396 1.287 . S
C4396 C4395 1.287 . S
C4396 C4397 1.524 . S
C4396 H4415 0.913 . S
C4397 H4373 0.950 . S
C4397 C4396 1.524 . S
C4397 C4398 1.415 . S
C4398 H4374 0.950 . S
C4398 C4393 1.363 . S
C4398 C4397 1.415 . S
C4399 H4375 0.951 . S
C4399 C4400 1.366 . S
C4399 C4401 1.388 . S
C4400 C4399 1.366 . S
C4400 C4404 1.385 . S
C4401 H4376 0.951 . S
C4401 C4399 1.388 . S
C4401 C4402 1.366 . S
C4402 C4401 1.366 . S
C4402 C4403 1.414 . S
C4402 C4405 1.499 . S
C4403 H4377 0.950 . S
C4403 C4402 1.414 . S
C4403 C4404 1.374 . S
C4404 H4378 0.950 . S
C4404 C4400 1.385 . S
C4404 C4403 1.374 . S
C4405 C4402 1.499 . S
C4405 C4406 1.373 . S
C4405 C4407 1.389 . S
C4406 H4379 0.950 . S
C4406 C4392 1.377 . S
C4406 C4405 1.373 . S
C4407 C4391 1.377 . S
C4407 C4405 1.389 . S
C4407 C4408 1.524 . S
C4408 C4407 1.524 . S
C4408 C4409 1.397 . S
C4408 C4413 1.363 . S
C4409 H4380 0.950 . S
C4409 C4408 1.397 . S
C4409 C4410 1.334 . S
C4410 H4381 0.950 . S
C4410 C4409 1.334 . S
C4410 C4411 1.287 . S
C4411 C4410 1.287 . S
C4411 C4412 1.524 . S
C4411 H4414 0.999 . S
C4412 H4382 0.950 . S
C4412 C4411 1.524 . S
C4412 C4413 1.415 . S
C4413 H4383 0.950 . S
C4413 C4408 1.363 . S
C4413 C4412 1.415 . S
H4414 C4411 0.999 . S
H4415 C4396 0.913 . S
H4416 C4434 0.951 . S
H4417 C4436 0.951 . S
H4418 C4438 0.950 . S
H4419 C4439 0.950 . S
H4420 C4441 0.950 . S
H4421 C4444 0.950 . S
H4422 C4445 0.950 . S
H4423 C4447 0.950 . S
H4424 C4448 0.950 . S
H4425 C4449 0.951 . S
H4426 C4451 0.951 . S
H4427 C4453 0.950 . S
H4428 C4454 0.950 . S
H4429 C4456 0.950 . S
H4430 C4459 0.950 . S
H4431 C4460 0.950 . S
H4432 C4462 0.950 . S
H4433 C4463 0.950 . S
C4434 H4416 0.951 . S
C4434 C4435 1.366 . S
C4434 C4436 1.388 . S
C4435 C4434 1.366 . S
C4435 C4439 1.385 . S
C4436 H4417 0.951 . S
C4436 C4434 1.388 . S
C4436 C4437 1.366 . S
C4437 C4436 1.366 . S
C4437 C4438 1.414 . S
C4437 C4440 1.499 . S
C4438 H4418 0.950 . S
C4438 C4437 1.414 . S
C4438 C4439 1.374 . S
C4439 H4419 0.950 . S
C4439 C4435 1.385 . S
C4439 C4438 1.374 . S
C4440 C4437 1.499 . S
C4440 C4441 1.373 . S
C4440 C4442 1.389 . S
C4441 H4420 0.950 . S
C4441 C4440 1.373 . S
C4441 C4457 1.377 . S
C4442 C4440 1.389 . S
C4442 C4443 1.524 . S
C4442 C4456 1.377 . S
C4443 C4442 1.524 . S
C4443 C4444 1.397 . S
C4443 C4448 1.363 . S
C4444 H4421 0.950 . S
C4444 C4443 1.397 . S
C4444 C4445 1.334 . S
C4445 H4422 0.950 . S
C4445 C4444 1.334 . S
C4445 C4446 1.287 . S
C4446 C4445 1.287 . S
C4446 C4447 1.524 . S
C4446 H4465 0.913 . S
C4447 H4423 0.950 . S
C4447 C4446 1.524 . S
C4447 C4448 1.415 . S
C4448 H4424 0.950 . S
C4448 C4443 1.363 . S
C4448 C4447 1.415 . S
C4449 H4425 0.951 . S
C4449 C4450 1.366 . S
C4449 C4451 1.388 . S
C4450 C4449 1.366 . S
C4450 C4454 1.385 . S
C4451 H4426 0.951 . S
C4451 C4449 1.388 . S
C4451 C4452 1.366 . S
C4452 C4451 1.366 . S
C4452 C4453 1.414 . S
C4452 C4455 1.499 . S
C4453 H4427 0.950 . S
C4453 C4452 1.414 . S
C4453 C4454 1.374 . S
C4454 H4428 0.950 . S
C4454 C4450 1.385 . S
C4454 C4453 1.374 . S
C4455 C4452 1.499 . S
C4455 C4456 1.373 . S
C4455 C4457 1.389 . S
C4456 H4429 0.950 . S
C4456 C4442 1.377 . S
C4456 C4455 1.373 . S
C4457 C4441 1.377 . S
C4457 C4455 1.389 . S
C4457 C4458 1.524 . S
C4458 C4457 1.524 . S
C4458 C4459 1.397 . S
C4458 C4463 1.363 . S
C4459 H4430 0.950 . S
C4459 C4458 1.397 . S
C4459 C4460 1.334 . S
C4460 H4431 0.950 . S
C4460 C4459 1.334 . S
C4460 C4461 1.287 . S
C4461 C4460 1.287 . S
C4461 C4462 1.524 . S
C4461 H4464 0.999 . S
C4462 H4432 0.950 . S
C4462 C4461 1.524 . S
C4462 C4463 1.415 . S
C4463 H4433 0.950 . S
C4463 C4458 1.363 . S
C4463 C4462 1.415 . S
H4464 C4461 0.999 . S
H4465 C4446 0.913 . S
H4466 C4484 0.951 . S
H4467 C4486 0.951 . S
H4468 C4488 0.950 . S
H4469 C4489 0.950 . S
H4470 C4491 0.950 . S
H4471 C4494 0.950 . S
H4472 C4495 0.950 . S
H4473 C4497 0.950 . S
H4474 C4498 0.950 . S
H4475 C4499 0.951 . S
H4476 C4501 0.951 . S
H4477 C4503 0.950 . S
H4478 C4504 0.950 . S
H4479 C4506 0.950 . S
H4480 C4509 0.950 . S
H4481 C4510 0.950 . S
H4482 C4512 0.950 . S
H4483 C4513 0.950 . S
C4484 H4466 0.951 . S
C4484 C4485 1.366 . S
C4484 C4486 1.388 . S
C4485 C4484 1.366 . S
C4485 C4489 1.385 . S
C4486 H4467 0.951 . S
C4486 C4484 1.388 . S
C4486 C4487 1.366 . S
C4487 C4486 1.366 . S
C4487 C4488 1.414 . S
C4487 C4490 1.499 . S
C4488 H4468 0.950 . S
C4488 C4487 1.414 . S
C4488 C4489 1.374 . S
C4489 H4469 0.950 . S
C4489 C4485 1.385 . S
C4489 C4488 1.374 . S
C4490 C4487 1.499 . S
C4490 C4491 1.373 . S
C4490 C4492 1.389 . S
C4491 H4470 0.950 . S
C4491 C4490 1.373 . S
C4491 C4507 1.377 . S
C4492 C4490 1.389 . S
C4492 C4493 1.524 . S
C4492 C4506 1.377 . S
C4493 C4492 1.524 . S
C4493 C4494 1.397 . S
C4493 C4498 1.363 . S
C4494 H4471 0.950 . S
C4494 C4493 1.397 . S
C4494 C4495 1.334 . S
C4495 H4472 0.950 . S
C4495 C4494 1.334 . S
C4495 C4496 1.287 . S
C4496 C4495 1.287 . S
C4496 C4497 1.524 . S
C4496 H4515 0.913 . S
C4497 H4473 0.950 . S
C4497 C4496 1.524 . S
C4497 C4498 1.415 . S
C4498 H4474 0.950 . S
C4498 C4493 1.363 . S
C4498 C4497 1.415 . S
C4499 H4475 0.951 . S
C4499 C4500 1.366 . S
C4499 C4501 1.388 . S
C4500 C4499 1.366 . S
C4500 C4504 1.385 . S
C4501 H4476 0.951 . S
C4501 C4499 1.388 . S
C4501 C4502 1.366 . S
C4502 C4501 1.366 . S
C4502 C4503 1.414 . S
C4502 C4505 1.499 . S
C4503 H4477 0.950 . S
C4503 C4502 1.414 . S
C4503 C4504 1.374 . S
C4504 H4478 0.950 . S
C4504 C4500 1.385 . S
C4504 C4503 1.374 . S
C4505 C4502 1.499 . S
C4505 C4506 1.373 . S
C4505 C4507 1.389 . S
C4506 H4479 0.950 . S
C4506 C4492 1.377 . S
C4506 C4505 1.373 . S
C4507 C4491 1.377 . S
C4507 C4505 1.389 . S
C4507 C4508 1.524 . S
C4508 C4507 1.524 . S
C4508 C4509 1.397 . S
C4508 C4513 1.363 . S
C4509 H4480 0.950 . S
C4509 C4508 1.397 . S
C4509 C4510 1.334 . S
C4510 H4481 0.950 . S
C4510 C4509 1.334 . S
C4510 C4511 1.287 . S
C4511 C4510 1.287 . S
C4511 C4512 1.524 . S
C4511 H4514 0.999 . S
C4512 H4482 0.950 . S
C4512 C4511 1.524 . S
C4512 C4513 1.415 . S
C4513 H4483 0.950 . S
C4513 C4508 1.363 . S
C4513 C4512 1.415 . S
H4514 C4511 0.999 . S
H4515 C4496 0.913 . S
H4516 C4534 0.951 . S
H4517 C4536 0.951 . S
H4518 C4538 0.950 . S
H4519 C4539 0.950 . S
H4520 C4541 0.950 . S
H4521 C4544 0.950 . S
H4522 C4545 0.950 . S
H4523 C4547 0.950 . S
H4524 C4548 0.950 . S
H4525 C4549 0.951 . S
H4526 C4551 0.951 . S
H4527 C4553 0.950 . S
H4528 C4554 0.950 . S
H4529 C4556 0.950 . S
H4530 C4559 0.950 . S
H4531 C4560 0.950 . S
H4532 C4562 0.950 . S
H4533 C4563 0.950 . S
C4534 H4516 0.951 . S
C4534 C4535 1.366 . S
C4534 C4536 1.388 . S
C4535 C4534 1.366 . S
C4535 C4539 1.385 . S
C4536 H4517 0.951 . S
C4536 C4534 1.388 . S
C4536 C4537 1.366 . S
C4537 C4536 1.366 . S
C4537 C4538 1.414 . S
C4537 C4540 1.499 . S
C4538 H4518 0.950 . S
C4538 C4537 1.414 . S
C4538 C4539 1.374 . S
C4539 H4519 0.950 . S
C4539 C4535 1.385 . S
C4539 C4538 1.374 . S
C4540 C4537 1.499 . S
C4540 C4541 1.373 . S
C4540 C4542 1.389 . S
C4541 H4520 0.950 . S
C4541 C4540 1.373 . S
C4541 C4557 1.377 . S
C4542 C4540 1.389 . S
C4542 C4543 1.524 . S
C4542 C4556 1.377 . S
C4543 C4542 1.524 . S
C4543 C4544 1.397 . S
C4543 C4548 1.363 . S
C4544 H4521 0.950 . S
C4544 C4543 1.397 . S
C4544 C4545 1.334 . S
C4545 H4522 0.950 . S
C4545 C4544 1.334 . S
C4545 C4546 1.287 . S
C4546 C4545 1.287 . S
C4546 C4547 1.524 . S
C4546 H4565 0.913 . S
C4547 H4523 0.950 . S
C4547 C4546 1.524 . S
C4547 C4548 1.415 . S
C4548 H4524 0.950 . S
C4548 C4543 1.363 . S
C4548 C4547 1.415 . S
C4549 H4525 0.951 . S
C4549 C4550 1.366 . S
C4549 C4551 1.388 . S
C4550 C4549 1.366 . S
C4550 C4554 1.385 . S
C4551 H4526 0.951 . S
C4551 C4549 1.388 . S
C4551 C4552 1.366 . S
C4552 C4551 1.366 . S
C4552 C4553 1.414 . S
C4552 C4555 1.499 . S
C4553 H4527 0.950 . S
C4553 C4552 1.414 . S
C4553 C4554 1.374 . S
C4554 H4528 0.950 . S
C4554 C4550 1.385 . S
C4554 C4553 1.374 . S
C4555 C4552 1.499 . S
C4555 C4556 1.373 . S
C4555 C4557 1.389 . S
C4556 H4529 0.950 . S
C4556 C4542 1.377 . S
C4556 C4555 1.373 . S
C4557 C4541 1.377 . S
C4557 C4555 1.389 . S
C4557 C4558 1.524 . S
C4558 C4557 1.524 . S
C4558 C4559 1.397 . S
C4558 C4563 1.363 . S
C4559 H4530 0.950 . S
C4559 C4558 1.397 . S
C4559 C4560 1.334 . S
C4560 H4531 0.950 . S
C4560 C4559 1.334 . S
C4560 C4561 1.287 . S
C4561 C4560 1.287 . S
C4561 C4562 1.524 . S
C4561 H4564 0.999 . S
C4562 H4532 0.950 . S
C4562 C4561 1.524 . S
C4562 C4563 1.415 . S
C4563 H4533 0.950 . S
C4563 C4558 1.363 . S
C4563 C4562 1.415 . S
H4564 C4561 0.999 . S
H4565 C4546 0.913 . S
H4566 C4584 0.951 . S
H4567 C4586 0.951 . S
H4568 C4588 0.950 . S
H4569 C4589 0.950 . S
H4570 C4591 0.950 . S
H4571 C4594 0.950 . S
H4572 C4595 0.950 . S
H4573 C4597 0.950 . S
H4574 C4598 0.950 . S
H4575 C4599 0.951 . S
H4576 C4601 0.951 . S
H4577 C4603 0.950 . S
H4578 C4604 0.950 . S
H4579 C4606 0.950 . S
H4580 C4609 0.950 1_655 S
H4581 C4610 0.950 . S
H4582 C4612 0.950 . S
H4583 C4613 0.950 . S
C4584 H4566 0.951 . S
C4584 C4585 1.366 . S
C4584 C4586 1.388 . S
C4585 C4584 1.366 . S
C4585 C4589 1.385 1_655 S
C4586 H4567 0.951 . S
C4586 C4584 1.388 . S
C4586 C4587 1.366 . S
C4587 C4586 1.366 . S
C4587 C4588 1.414 1_655 S
C4587 C4590 1.499 . S
C4588 H4568 0.950 . S
C4588 C4587 1.414 1_455 S
C4588 C4589 1.374 . S
C4589 H4569 0.950 . S
C4589 C4585 1.385 1_455 S
C4589 C4588 1.374 . S
C4590 C4587 1.499 . S
C4590 C4591 1.373 1_655 S
C4590 C4592 1.389 . S
C4591 H4570 0.950 . S
C4591 C4590 1.373 1_455 S
C4591 C4607 1.377 . S
C4592 C4590 1.389 . S
C4592 C4593 1.524 . S
C4592 C4606 1.377 . S
C4593 C4592 1.524 . S
C4593 C4594 1.397 . S
C4593 C4598 1.363 . S
C4594 H4571 0.950 . S
C4594 C4593 1.397 . S
C4594 C4595 1.334 . S
C4595 H4572 0.950 . S
C4595 C4594 1.334 . S
C4595 C4596 1.287 . S
C4596 C4595 1.287 . S
C4596 C4597 1.524 . S
C4596 H4615 0.913 . S
C4597 H4573 0.950 . S
C4597 C4596 1.524 . S
C4597 C4598 1.415 . S
C4598 H4574 0.950 . S
C4598 C4593 1.363 . S
C4598 C4597 1.415 . S
C4599 H4575 0.951 . S
C4599 C4600 1.366 1_455 S
C4599 C4601 1.388 . S
C4600 C4599 1.366 1_655 S
C4600 C4604 1.385 . S
C4601 H4576 0.951 . S
C4601 C4599 1.388 . S
C4601 C4602 1.366 1_455 S
C4602 C4601 1.366 1_655 S
C4602 C4603 1.414 . S
C4602 C4605 1.499 . S
C4603 H4577 0.950 . S
C4603 C4602 1.414 . S
C4603 C4604 1.374 . S
C4604 H4578 0.950 . S
C4604 C4600 1.385 . S
C4604 C4603 1.374 . S
C4605 C4602 1.499 . S
C4605 C4606 1.373 . S
C4605 C4607 1.389 1_655 S
C4606 H4579 0.950 . S
C4606 C4592 1.377 . S
C4606 C4605 1.373 . S
C4607 C4591 1.377 . S
C4607 C4605 1.389 1_455 S
C4607 C4608 1.524 . S
C4608 C4607 1.524 . S
C4608 C4609 1.397 . S
C4608 C4613 1.363 . S
C4609 H4580 0.950 1_455 S
C4609 C4608 1.397 . S
C4609 C4610 1.334 . S
C4610 H4581 0.950 . S
C4610 C4609 1.334 . S
C4610 C4611 1.287 . S
C4611 C4610 1.287 . S
C4611 C4612 1.524 . S
C4611 H4614 0.999 . S
C4612 H4582 0.950 . S
C4612 C4611 1.524 . S
C4612 C4613 1.415 . S
C4613 H4583 0.950 . S
C4613 C4608 1.363 . S
C4613 C4612 1.415 . S
H4614 C4611 0.999 . S
H4615 C4596 0.913 . S
H4616 C4634 0.951 . S
H4617 C4636 0.951 . S
H4618 C4638 0.950 . S
H4619 C4639 0.950 . S
H4620 C4641 0.950 . S
H4621 C4644 0.950 . S
H4622 C4645 0.950 . S
H4623 C4647 0.950 . S
H4624 C4648 0.950 . S
H4625 C4649 0.951 . S
H4626 C4651 0.951 . S
H4627 C4653 0.950 . S
H4628 C4654 0.950 . S
H4629 C4656 0.950 . S
H4630 C4659 0.950 . S
H4631 C4660 0.950 . S
H4632 C4662 0.950 . S
H4633 C4663 0.950 . S
C4634 H4616 0.951 . S
C4634 C4635 1.366 . S
C4634 C4636 1.388 . S
C4635 C4634 1.366 . S
C4635 C4639 1.385 . S
C4636 H4617 0.951 . S
C4636 C4634 1.388 . S
C4636 C4637 1.366 . S
C4637 C4636 1.366 . S
C4637 C4638 1.414 . S
C4637 C4640 1.499 . S
C4638 H4618 0.950 . S
C4638 C4637 1.414 . S
C4638 C4639 1.374 . S
C4639 H4619 0.950 . S
C4639 C4635 1.385 . S
C4639 C4638 1.374 . S
C4640 C4637 1.499 . S
C4640 C4641 1.373 . S
C4640 C4642 1.389 . S
C4641 H4620 0.950 . S
C4641 C4640 1.373 . S
C4641 C4657 1.377 . S
C4642 C4640 1.389 . S
C4642 C4643 1.524 . S
C4642 C4656 1.377 . S
C4643 C4642 1.524 . S
C4643 C4644 1.397 . S
C4643 C4648 1.363 . S
C4644 H4621 0.950 . S
C4644 C4643 1.397 . S
C4644 C4645 1.334 . S
C4645 H4622 0.950 . S
C4645 C4644 1.334 . S
C4645 C4646 1.287 . S
C4646 C4645 1.287 . S
C4646 C4647 1.524 . S
C4646 H4665 0.913 . S
C4647 H4623 0.950 . S
C4647 C4646 1.524 . S
C4647 C4648 1.415 . S
C4648 H4624 0.950 . S
C4648 C4643 1.363 . S
C4648 C4647 1.415 . S
C4649 H4625 0.951 . S
C4649 C4650 1.366 . S
C4649 C4651 1.388 . S
C4650 C4649 1.366 . S
C4650 C4654 1.385 . S
C4651 H4626 0.951 . S
C4651 C4649 1.388 . S
C4651 C4652 1.366 . S
C4652 C4651 1.366 . S
C4652 C4653 1.414 . S
C4652 C4655 1.499 . S
C4653 H4627 0.950 . S
C4653 C4652 1.414 . S
C4653 C4654 1.374 . S
C4654 H4628 0.950 . S
C4654 C4650 1.385 . S
C4654 C4653 1.374 . S
C4655 C4652 1.499 . S
C4655 C4656 1.373 . S
C4655 C4657 1.389 . S
C4656 H4629 0.950 . S
C4656 C4642 1.377 . S
C4656 C4655 1.373 . S
C4657 C4641 1.377 . S
C4657 C4655 1.389 . S
C4657 C4658 1.524 . S
C4658 C4657 1.524 . S
C4658 C4659 1.397 . S
C4658 C4663 1.363 . S
C4659 H4630 0.950 . S
C4659 C4658 1.397 . S
C4659 C4660 1.334 . S
C4660 H4631 0.950 . S
C4660 C4659 1.334 . S
C4660 C4661 1.287 . S
C4661 C4660 1.287 . S
C4661 C4662 1.524 . S
C4661 H4664 0.999 . S
C4662 H4632 0.950 . S
C4662 C4661 1.524 . S
C4662 C4663 1.415 . S
C4663 H4633 0.950 . S
C4663 C4658 1.363 . S
C4663 C4662 1.415 . S
H4664 C4661 0.999 . S
H4665 C4646 0.913 . S
H4666 C4684 0.951 . S
H4667 C4686 0.951 . S
H4668 C4688 0.950 . S
H4669 C4689 0.974 . S
H4670 C4691 0.977 . S
H4671 C4694 0.950 . S
H4672 C4695 0.950 . S
H4673 C4697 0.950 . S
H4674 C4698 0.950 . S
H4675 C4699 0.951 . S
H4676 C4701 0.951 . S
H4677 C4703 0.950 . S
H4678 C4704 0.950 . S
H4679 C4706 0.950 . S
H4680 C4709 0.950 1_545 S
H4681 C4710 0.950 . S
H4682 C4712 0.950 . S
H4683 C4713 0.950 . S
C4684 H4666 0.951 . S
C4684 C4685 1.366 . S
C4684 C4686 1.388 . S
C4685 C4684 1.366 . S
C4685 C4689 1.370 1_545 S
C4686 H4667 0.951 . S
C4686 C4684 1.388 . S
C4686 C4687 1.366 . S
C4687 C4686 1.366 . S
C4687 C4688 1.414 1_545 S
C4687 C4690 1.499 . S
C4688 H4668 0.950 . S
C4688 C4687 1.414 1_565 S
C4688 C4689 1.365 . S
C4689 H4669 0.974 . S
C4689 C4685 1.370 1_565 S
C4689 C4688 1.365 . S
C4690 C4687 1.499 . S
C4690 C4691 1.366 1_545 S
C4690 C4692 1.389 . S
C4691 H4670 0.977 . S
C4691 C4690 1.366 1_565 S
C4691 C4707 1.359 . S
C4692 C4690 1.389 . S
C4692 C4693 1.524 . S
C4692 C4706 1.377 . S
C4693 C4692 1.524 . S
C4693 C4694 1.397 . S
C4693 C4698 1.363 . S
C4694 H4671 0.950 . S
C4694 C4693 1.397 . S
C4694 C4695 1.334 . S
C4695 H4672 0.950 . S
C4695 C4694 1.334 . S
C4695 C4696 1.287 . S
C4696 C4695 1.287 . S
C4696 C4697 1.524 . S
C4696 H4715 0.913 . S
C4697 H4673 0.950 . S
C4697 C4696 1.524 . S
C4697 C4698 1.415 . S
C4698 H4674 0.950 . S
C4698 C4693 1.363 . S
C4698 C4697 1.415 . S
C4699 H4675 0.951 . S
C4699 C4700 1.366 1_565 S
C4699 C4701 1.388 . S
C4700 C4699 1.366 1_545 S
C4700 C4704 1.385 . S
C4701 H4676 0.951 . S
C4701 C4699 1.388 . S
C4701 C4702 1.366 1_565 S
C4702 C4701 1.366 1_545 S
C4702 C4703 1.414 . S
C4702 C4705 1.499 . S
C4703 H4677 0.950 . S
C4703 C4702 1.414 . S
C4703 C4704 1.374 . S
C4704 H4678 0.950 . S
C4704 C4700 1.385 . S
C4704 C4703 1.374 . S
C4705 C4702 1.499 . S
C4705 C4706 1.373 . S
C4705 C4707 1.389 1_545 S
C4706 H4679 0.950 . S
C4706 C4692 1.377 . S
C4706 C4705 1.373 . S
C4707 C4691 1.359 . S
C4707 C4705 1.389 1_565 S
C4707 C4708 1.524 . S
C4708 C4707 1.524 . S
C4708 C4709 1.397 . S
C4708 C4713 1.363 . S
C4709 H4680 0.950 1_565 S
C4709 C4708 1.397 . S
C4709 C4710 1.334 . S
C4710 H4681 0.950 . S
C4710 C4709 1.334 . S
C4710 C4711 1.287 . S
C4711 C4710 1.287 . S
C4711 C4712 1.524 . S
C4711 H4714 0.999 . S
C4712 H4682 0.950 . S
C4712 C4711 1.524 . S
C4712 C4713 1.415 . S
C4713 H4683 0.950 . S
C4713 C4708 1.363 . S
C4713 C4712 1.415 . S
H4714 C4711 0.999 . S
H4715 C4696 0.913 . S
C1135 C9 1.442 1_655 S
C1150 C729 1.469 . S
C1185 C19 1.571 . S
C1200 C777 1.568 . S
C1250 C825 1.522 . S
C1235 C33 1.525 . S
C1285 C37 1.502 . S
C1300 C849 1.493 . S
C1335 C5 1.467 . S
C1350 C921 1.471 . S
C1385 C23 1.602 . S
C1400 C969 1.598 . S
C1435 C47 1.490 . S
C1450 C897 1.494 . S
C1500 C945 1.621 . S
C1485 C65 1.625 . S
C1550 C873 1.533 . S
C1535 C75 1.488 . S
C1585 C79 1.416 . S
C1600 C801 1.420 . S
C1650 C705 1.516 . S
C1635 C51 1.505 . S
C1685 C61 1.595 . S
C1700 C753 1.593 . S
C1735 C93 1.710 . S
C1750 C1017 1.705 . S
C1785 C103 1.645 . S
C1800 C1065 1.639 . S
C1850 C1089 1.652 . S
C1835 C117 1.667 . S
C1885 C121 1.618 . S
C1900 C273 1.601 . S
C1935 C89 1.641 . S
C1950 C345 1.636 . S
C1985 C107 1.652 . S
C2000 C393 1.645 . S
C2035 C131 1.603 . S
C2050 C321 1.598 . S
C2085 C149 1.666 . S
C2100 C369 1.660 . S
C2150 C297 1.594 . S
C2135 C159 1.630 . S
C2200 C1113 1.634 . S
C2185 C163 1.673 . S
C2250 C993 1.676 . S
C2235 C135 1.685 . S
C2300 C1041 1.665 . S
C2285 C145 1.671 . S
C2335 C177 1.612 . S
C2350 C441 1.609 . S
C2385 C187 1.607 . S
C2400 C489 1.600 . S
C2435 C201 1.675 . S
C2450 C513 1.661 . S
C2485 C205 1.716 . S
C2500 C561 1.698 . S
C2550 C633 1.631 . S
C2535 C173 1.635 . S
C2600 C681 1.682 . S
C2585 C191 1.691 . S
C2650 C609 1.707 . S
C2635 C215 1.711 . S
C2700 C657 1.702 . S
C2685 C233 1.710 . S
C2735 C243 1.617 . S
C2750 C585 1.581 . S
C2800 C537 1.527 . S
C2785 C247 1.564 . S
C2835 C219 1.694 . S
C2850 C417 1.688 . S
C2900 C465 1.641 . S
C2885 C229 1.647 . S
C2950 C282 1.562 . S
C2935 C11 1.563 . S
C2985 C14 1.489 . S
C3000 C336 1.468 . S
C3050 C384 1.618 . S
C3035 C28 1.641 . S
C3100 C432 1.610 . S
C3085 C39 1.635 . S
C3150 C480 1.555 . S
C3135 C0 1.574 . S
C3200 C522 1.449 . S
C3185 C25 1.450 . S
C3235 C42 1.635 . S
C3250 C528 1.628 . S
C3285 C67 1.511 . S
C3300 C426 1.477 . S
C3335 C70 1.516 . S
C3350 C474 1.484 . S
C3385 C81 1.558 . S
C3400 C330 1.536 . S
C3450 C378 1.573 . S
C3435 C53 1.611 . S
C3485 C56 1.529 . S
C3500 C288 1.518 . S
C3550 C570 1.525 . S
C3535 C95 1.525 . S
C3585 C98 1.631 . S
C3600 C624 1.614 . S
C3635 C112 1.710 . S
C3650 C672 1.690 . S
C3700 C720 1.422 . S
C3685 C123 1.414 . S
C3735 C84 1.552 . S
C3750 C768 1.536 . S
C3785 C109 1.348 . S
C3800 C816 1.357 . S
C3835 C126 1.442 . S
C3850 C810 1.445 . S
C3885 C151 1.393 . S
C3900 C714 1.399 . S
C3950 C762 1.500 . S
C3935 C154 1.522 . S
C3985 C165 1.509 . S
C4000 C618 1.480 . S
C4035 C137 1.661 . S
C4050 C666 1.628 . S
C4100 C576 1.661 . S
C4085 C140 1.669 . S
C4150 C858 1.394 . S
C4135 C179 1.381 . S
C4185 C182 1.385 . S
C4200 C912 1.399 . S
C4235 C196 1.617 . S
C4250 C960 1.599 . S
C4300 C1008 1.570 . S
C4285 C207 1.594 . S
C4350 C1056 1.614 . S
C4335 C168 1.630 . S
C4385 C193 1.601 . S
C4400 C1098 1.602 . S
C4435 C210 1.609 . S
C4450 C1104 1.600 . S
C4485 C235 1.653 . S
C4500 C1002 1.620 . S
C4550 C1050 1.574 . S
C4535 C238 1.596 . S
C4600 C906 1.347 . S
C4585 C249 1.337 . S
C4650 C954 1.547 . S
C4635 C221 1.579 . S
C4685 C224 1.418 . S
C4700 C864 1.430 . S
