# Generated by pormake.
# Topology pyr, (3,6)-cn, num edge types: 1
# Building blocks:
#     Node 0, Type 0, BuildingBlock: VETTIZ_charged_linker_0, # of connection points: 3
#     Node 1, Type 0, BuildingBlock: VETTIZ_charged_linker_0, # of connection points: 3
#     Node 2, Type 0, BuildingBlock: VETTIZ_charged_linker_0, # of connection points: 3
#     Node 3, Type 0, BuildingBlock: VETTIZ_charged_linker_0, # of connection points: 3
#     Node 4, Type 0, BuildingBlock: VETTIZ_charged_linker_0, # of connection points: 3
#     Node 5, Type 0, BuildingBlock: VETTIZ_charged_linker_0, # of connection points: 3
#     Node 6, Type 0, BuildingBlock: VETTIZ_charged_linker_0, # of connection points: 3
#     Node 7, Type 0, BuildingBlock: VETTIZ_charged_linker_0, # of connection points: 3
#     Node 8, Type 1, BuildingBlock: INOVEN_clean_sbu_0, # of connection points: 6
#     Node 9, Type 1, BuildingBlock: INOVEN_clean_sbu_0, # of connection points: 6
#     Node 10, Type 1, BuildingBlock: INOVEN_clean_sbu_0, # of connection points: 6
#     Node 11, Type 1, BuildingBlock: INOVEN_clean_sbu_0, # of connection points: 6
#     Edge 12, Type (0, 1), BuildingBlock: CIFDUS_clean_linker_0, # of connection points: 2
#     Edge 13, Type (0, 1), BuildingBlock: CIFDUS_clean_linker_0, # of connection points: 2
#     Edge 14, Type (0, 1), BuildingBlock: CIFDUS_clean_linker_0, # of connection points: 2
#     Edge 15, Type (0, 1), BuildingBlock: CIFDUS_clean_linker_0, # of connection points: 2
#     Edge 16, Type (0, 1), BuildingBlock: CIFDUS_clean_linker_0, # of connection points: 2
#     Edge 17, Type (0, 1), BuildingBlock: CIFDUS_clean_linker_0, # of connection points: 2
#     Edge 18, Type (0, 1), BuildingBlock: CIFDUS_clean_linker_0, # of connection points: 2
#     Edge 19, Type (0, 1), BuildingBlock: CIFDUS_clean_linker_0, # of connection points: 2
#     Edge 20, Type (0, 1), BuildingBlock: CIFDUS_clean_linker_0, # of connection points: 2
#     Edge 21, Type (0, 1), BuildingBlock: CIFDUS_clean_linker_0, # of connection points: 2
#     Edge 22, Type (0, 1), BuildingBlock: CIFDUS_clean_linker_0, # of connection points: 2
#     Edge 23, Type (0, 1), BuildingBlock: CIFDUS_clean_linker_0, # of connection points: 2
#     Edge 24, Type (0, 1), BuildingBlock: CIFDUS_clean_linker_0, # of connection points: 2
#     Edge 25, Type (0, 1), BuildingBlock: CIFDUS_clean_linker_0, # of connection points: 2
#     Edge 26, Type (0, 1), BuildingBlock: CIFDUS_clean_linker_0, # of connection points: 2
#     Edge 27, Type (0, 1), BuildingBlock: CIFDUS_clean_linker_0, # of connection points: 2
#     Edge 28, Type (0, 1), BuildingBlock: CIFDUS_clean_linker_0, # of connection points: 2
#     Edge 29, Type (0, 1), BuildingBlock: CIFDUS_clean_linker_0, # of connection points: 2
#     Edge 30, Type (0, 1), BuildingBlock: CIFDUS_clean_linker_0, # of connection points: 2
#     Edge 31, Type (0, 1), BuildingBlock: CIFDUS_clean_linker_0, # of connection points: 2
#     Edge 32, Type (0, 1), BuildingBlock: CIFDUS_clean_linker_0, # of connection points: 2
#     Edge 33, Type (0, 1), BuildingBlock: CIFDUS_clean_linker_0, # of connection points: 2
#     Edge 34, Type (0, 1), BuildingBlock: CIFDUS_clean_linker_0, # of connection points: 2
#     Edge 35, Type (0, 1), BuildingBlock: CIFDUS_clean_linker_0, # of connection points: 2
# Relax obj value: 0.109
# Max RMSD: 0.132
# Mean RMSD: 0.062
data_MOF--net-pyr--node1-INOVEN_clean_sbu_0--node2-VETTIZ_charged_linker_0--edge1-CIFDUS_clean_linker_0
_symmetry_space_group_name_H-M    P1
_symmetry_Int_Tables_number       1
_symmetry_cell_setting            triclinic
loop_
_symmetry_equiv_pos_as_xyz
'x, y, z'
_cell_length_a     41.360027
_cell_length_b     44.567514
_cell_length_c     40.654388
_cell_angle_alpha  91.202042
_cell_angle_beta   88.835045
_cell_angle_gamma 99.623267
loop_
_atom_site_label
_atom_site_type_symbol
_atom_site_fract_x
_atom_site_fract_y
_atom_site_fract_z
_atom_type_partial_charge
C0 C 0.30569 0.23802 0.33662 0.0
C1 C 0.27997 0.25042 0.35201 0.0
C2 C 0.27294 0.27833 0.34083 0.0
C3 C 0.31042 0.27635 0.29469 0.0
C4 C 0.32052 0.25129 0.30796 0.0
C5 C 0.3451 0.23882 0.28602 0.0
H6 H 0.3997 0.21759 0.1323 0.0
C7 C 0.32427 0.28011 0.26103 0.0
C8 C 0.34504 0.25854 0.25588 0.0
H9 H 0.43149 0.18278 0.22248 0.0
H10 H 0.40027 0.2148 0.25429 0.0
H11 H 0.40967 0.28862 0.15991 0.0
H12 H 0.32452 0.21821 0.15404 0.0
H13 H 0.31354 0.25247 0.14115 0.0
H14 H 0.34432 0.23629 0.11819 0.0
H15 H 0.39083 0.27628 0.12145 0.0
H16 H 0.37649 0.3052 0.14689 0.0
C17 C 0.37878 0.24435 0.30324 0.0
C18 C 0.33191 0.20482 0.27828 0.0
C19 C 0.26993 0.34215 0.18269 0.0
C20 C 0.26873 0.34286 0.14822 0.0
C21 C 0.29059 0.32806 0.12936 0.0
C22 C 0.3119 0.31141 0.14468 0.0
C23 C 0.31102 0.3092 0.17919 0.0
C24 C 0.29057 0.32484 0.19754 0.0
C25 C 0.29097 0.31857 0.23365 0.0
C26 C 0.31508 0.29638 0.23407 0.0
C27 C 0.32697 0.29112 0.20218 0.0
C28 C 0.30477 0.34868 0.25185 0.0
C29 C 0.2557 0.30407 0.24508 0.0
C30 C 0.39974 0.21685 0.15891 0.0
C31 C 0.41748 0.19733 0.17501 0.0
C32 C 0.41784 0.19754 0.20964 0.0
C33 C 0.39961 0.21592 0.22804 0.0
C34 C 0.38063 0.23405 0.21168 0.0
C35 C 0.38196 0.2354 0.17778 0.0
C36 C 0.36219 0.25808 0.16511 0.0
C37 C 0.34863 0.26976 0.19709 0.0
C38 C 0.35864 0.25464 0.22408 0.0
C39 C 0.38579 0.28338 0.14715 0.0
C40 C 0.33475 0.24062 0.14327 0.0
H41 H 0.28082 0.31189 0.30404 0.0
H42 H 0.31206 0.21686 0.34484 0.0
H43 H 0.30614 0.20193 0.26983 0.0
H44 H 0.34601 0.19506 0.25876 0.0
H45 H 0.33244 0.19077 0.30044 0.0
H46 H 0.37936 0.26067 0.3244 0.0
H47 H 0.38487 0.22288 0.31292 0.0
H48 H 0.39889 0.25465 0.28644 0.0
H49 H 0.25393 0.35371 0.198 0.0
H50 H 0.29022 0.32823 0.10274 0.0
H51 H 0.32737 0.30001 0.12903 0.0
H52 H 0.32633 0.3612 0.23824 0.0
H53 H 0.28599 0.36378 0.25407 0.0
H54 H 0.31367 0.34494 0.27664 0.0
H55 H 0.23867 0.29834 0.2242 0.0
H56 H 0.2552 0.28213 0.25755 0.0
H57 H 0.24454 0.31968 0.2618 0.0
H58 H 0.25412 0.28901 0.35294 0.0
C59 C 0.28819 0.29143 0.3123 0.0
C60 C 0.15599 0.85081 0.60724 0.0
C61 C 0.14275 0.87029 0.62943 0.0
C62 C 0.15361 0.87318 0.66206 0.0
C63 C 0.19323 0.84023 0.64916 0.0
C64 C 0.18146 0.83626 0.6175 0.0
C65 C 0.2011 0.81762 0.59615 0.0
H66 H 0.33926 0.75621 0.57628 0.0
C67 C 0.22237 0.82532 0.65093 0.0
C68 C 0.22719 0.81201 0.61996 0.0
H69 H 0.26157 0.75324 0.50642 0.0
H70 H 0.23058 0.77946 0.54607 0.0
H71 H 0.33809 0.82487 0.60694 0.0
H72 H 0.29427 0.73405 0.6333 0.0
H73 H 0.30115 0.75424 0.67071 0.0
H74 H 0.33558 0.74956 0.64412 0.0
H75 H 0.36081 0.79663 0.62065 0.0
H76 H 0.34347 0.82101 0.64936 0.0
C77 C 0.21586 0.83731 0.56683 0.0
C78 C 0.17852 0.78772 0.58597 0.0
C79 C 0.29231 0.8411 0.75298 0.0
C80 C 0.32311 0.8337 0.76016 0.0
C81 C 0.33754 0.81489 0.73799 0.0
C82 C 0.32242 0.80505 0.70828 0.0
C83 C 0.29266 0.8143 0.7005 0.0
C84 C 0.27762 0.83123 0.7231 0.0
C85 C 0.24647 0.83954 0.71033 0.0
C86 C 0.24541 0.82488 0.67623 0.0
C87 C 0.27271 0.81055 0.67053 0.0
C88 C 0.25072 0.8748 0.70906 0.0
C89 C 0.21766 0.82449 0.73253 0.0
C90 C 0.31595 0.76198 0.56919 0.0
C91 C 0.30322 0.75386 0.53798 0.0
C92 C 0.27206 0.76012 0.53015 0.0
C93 C 0.25417 0.77509 0.55322 0.0
C94 C 0.26752 0.78329 0.58443 0.0
C95 C 0.29769 0.77614 0.592 0.0
C96 C 0.30718 0.78394 0.62691 0.0
C97 C 0.27799 0.79761 0.63917 0.0
C98 C 0.25508 0.79778 0.61412 0.0
C99 C 0.33915 0.80772 0.62623 0.0
C100 C 0.30997 0.75407 0.64483 0.0
H101 H 0.18633 0.86167 0.69712 0.0
H102 H 0.14823 0.84863 0.58189 0.0
H103 H 0.16014 0.78009 0.60572 0.0
H104 H 0.19212 0.76856 0.5821 0.0
H105 H 0.1649 0.79075 0.56334 0.0
H106 H 0.22602 0.86079 0.57544 0.0
H107 H 0.19687 0.83898 0.54833 0.0
H108 H 0.2364 0.82869 0.55429 0.0
H109 H 0.28078 0.8559 0.76925 0.0
H110 H 0.36107 0.80858 0.7432 0.0
H111 H 0.33509 0.79151 0.69206 0.0
H112 H 0.27684 0.88511 0.70475 0.0
H113 H 0.24251 0.88459 0.73251 0.0
H114 H 0.23767 0.88293 0.68849 0.0
H115 H 0.22149 0.80154 0.74022 0.0
H116 H 0.19394 0.8205 0.7198 0.0
H117 H 0.21538 0.83837 0.7552 0.0
H118 H 0.14358 0.88814 0.67939 0.0
C119 C 0.17853 0.85796 0.67216 0.0
C120 C 0.62795 0.26048 0.90314 0.0
C121 C 0.60019 0.24041 0.89101 0.0
C122 C 0.5847 0.25094 0.86353 0.0
C123 C 0.62425 0.29882 0.86065 0.0
C124 C 0.63948 0.28899 0.88763 0.0
C125 C 0.66939 0.31185 0.89686 0.0
H126 H 0.77919 0.4426 0.87245 0.0
C127 C 0.64298 0.32964 0.84996 0.0
C128 C 0.66968 0.33698 0.87156 0.0
H129 H 0.77887 0.37434 0.94656 0.0
H130 H 0.72857 0.34665 0.92602 0.0
H131 H 0.69708 0.44276 0.87976 0.0
H132 H 0.75157 0.39477 0.81025 0.0
H133 H 0.72365 0.41377 0.78991 0.0
H134 H 0.75688 0.43564 0.8123 0.0
H135 H 0.72405 0.46255 0.84918 0.0
H136 H 0.6826 0.44533 0.83963 0.0
C137 C 0.66378 0.32364 0.93229 0.0
C138 C 0.69981 0.2959 0.89266 0.0
C139 C 0.60654 0.38843 0.75079 0.0
C140 C 0.61817 0.41736 0.73626 0.0
C141 C 0.6462 0.43478 0.75102 0.0
C142 C 0.66206 0.42419 0.77818 0.0
C143 C 0.6502 0.39555 0.79214 0.0
C144 C 0.62252 0.37825 0.77858 0.0
C145 C 0.61278 0.34865 0.7974 0.0
C146 C 0.63895 0.35083 0.82417 0.0
C147 C 0.66136 0.37857 0.8208 0.0
C148 C 0.57824 0.34832 0.81256 0.0
C149 C 0.61467 0.32172 0.77338 0.0
C150 C 0.76819 0.42179 0.88437 0.0
C151 C 0.78443 0.41072 0.91116 0.0
C152 C 0.76831 0.38346 0.92558 0.0
C153 C 0.73858 0.36719 0.91358 0.0
C154 C 0.72342 0.3777 0.8864 0.0
C155 C 0.73787 0.40489 0.87244 0.0
C156 C 0.71712 0.41259 0.84415 0.0
C157 C 0.68876 0.38531 0.84293 0.0
C158 C 0.69273 0.3648 0.86802 0.0
C159 C 0.70461 0.4425 0.85334 0.0
C160 C 0.73832 0.41451 0.81234 0.0
H161 H 0.58307 0.28537 0.82792 0.0
H162 H 0.64116 0.25379 0.92374 0.0
H163 H 0.69705 0.27985 0.87117 0.0
H164 H 0.72264 0.31189 0.88738 0.0
H165 H 0.70329 0.28263 0.91476 0.0
H166 H 0.63757 0.32567 0.9366 0.0
H167 H 0.67042 0.30791 0.95089 0.0
H168 H 0.67742 0.34676 0.93713 0.0
H169 H 0.58507 0.37404 0.74102 0.0
H170 H 0.65659 0.45668 0.74103 0.0
H171 H 0.68334 0.43886 0.78733 0.0
H172 H 0.57662 0.37057 0.82484 0.0
H173 H 0.55924 0.34418 0.7933 0.0
H174 H 0.57209 0.33097 0.83164 0.0
H175 H 0.63802 0.32575 0.75884 0.0
H176 H 0.61435 0.3001 0.78619 0.0
H177 H 0.59406 0.31879 0.75587 0.0
H178 H 0.56317 0.23698 0.85332 0.0
C179 C 0.59629 0.27946 0.84862 0.0
C180 C 0.92818 0.78583 0.37315 0.0
C181 C 0.91759 0.80254 0.40072 0.0
C182 C 0.88793 0.78936 0.41648 0.0
C183 C 0.88109 0.74467 0.37961 0.0
C184 C 0.90961 0.75705 0.36312 0.0
C185 C 0.91656 0.73597 0.33452 0.0
H186 H 0.87318 0.59879 0.24939 0.0
C187 C 0.86725 0.71456 0.36386 0.0
C188 C 0.88794 0.709 0.33708 0.0
H189 H 0.95586 0.66874 0.22745 0.0
H190 H 0.93954 0.70007 0.27263 0.0
H191 H 0.8782 0.60373 0.33037 0.0
H192 H 0.82049 0.6463 0.2633 0.0
H193 H 0.79588 0.63133 0.29693 0.0
H194 H 0.81329 0.60589 0.26937 0.0
H195 H 0.84638 0.58202 0.30607 0.0
H196 H 0.83711 0.59975 0.34452 0.0
C197 C 0.94986 0.72591 0.34017 0.0
C198 C 0.91562 0.75318 0.30214 0.0
C199 C 0.76231 0.65385 0.41457 0.0
C200 C 0.74255 0.62524 0.40799 0.0
C201 C 0.75209 0.60834 0.38056 0.0
C202 C 0.78039 0.61921 0.36103 0.0
C203 C 0.79999 0.64763 0.36844 0.0
C204 C 0.79044 0.66437 0.39487 0.0
C205 C 0.81359 0.69406 0.39958 0.0
C206 C 0.83882 0.69266 0.37189 0.0
C207 C 0.83104 0.66537 0.3534 0.0
C208 C 0.82913 0.69372 0.43394 0.0
C209 C 0.79392 0.72034 0.39479 0.0
C210 C 0.88807 0.62077 0.25414 0.0
C211 C 0.91632 0.63067 0.23413 0.0
C212 C 0.934 0.66006 0.24167 0.0
C213 C 0.92455 0.67831 0.26828 0.0
C214 C 0.89661 0.66775 0.28814 0.0
C215 C 0.87871 0.63939 0.28042 0.0
C216 C 0.84914 0.6317 0.30319 0.0
C217 C 0.85214 0.65958 0.32616 0.0
C218 C 0.88033 0.68109 0.31763 0.0
C219 C 0.85257 0.60265 0.32201 0.0
C220 C 0.8179 0.62838 0.28227 0.0
H221 H 0.84798 0.75309 0.42001 0.0
H222 H 0.95055 0.79469 0.35988 0.0
H223 H 0.89357 0.76444 0.30181 0.0
H224 H 0.91404 0.73792 0.28033 0.0
H225 H 0.93766 0.77105 0.29941 0.0
H226 H 0.95093 0.71757 0.36566 0.0
H227 H 0.97034 0.74523 0.33673 0.0
H228 H 0.9541 0.70706 0.3235 0.0
H229 H 0.75603 0.66816 0.43474 0.0
H230 H 0.73808 0.58623 0.37455 0.0
H231 H 0.78616 0.60488 0.34093 0.0
H232 H 0.83322 0.67041 0.43995 0.0
H233 H 0.81296 0.70116 0.45355 0.0
H234 H 0.85366 0.70792 0.43543 0.0
H235 H 0.77434 0.7139 0.37635 0.0
H236 H 0.80914 0.74104 0.38487 0.0
H237 H 0.78191 0.72626 0.41817 0.0
H238 H 0.87777 0.80119 0.43667 0.0
C239 C 0.87008 0.76108 0.40638 0.0
C240 C 0.74179 0.72728 0.915 0.0
C241 C 0.76444 0.70891 0.90378 0.0
C242 C 0.76704 0.70257 0.86981 0.0
C243 C 0.72901 0.73661 0.85854 0.0
C244 C 0.72394 0.74049 0.89192 0.0
C245 C 0.69904 0.76095 0.8991 0.0
H246 H 0.60909 0.86273 0.84406 0.0
C247 C 0.71021 0.75642 0.84103 0.0
C248 C 0.69159 0.76995 0.86451 0.0
H249 H 0.61601 0.83271 0.94353 0.0
H250 H 0.64974 0.79613 0.92465 0.0
H251 H 0.60511 0.79361 0.80514 0.0
H252 H 0.67719 0.87091 0.82881 0.0
H253 H 0.69577 0.8533 0.79631 0.0
H254 H 0.65806 0.86746 0.78957 0.0
H255 H 0.60825 0.83099 0.78835 0.0
H256 H 0.63043 0.80316 0.77004 0.0
C257 C 0.66871 0.74192 0.91607 0.0
C258 C 0.71578 0.78858 0.91981 0.0
C259 C 0.74675 0.78898 0.72596 0.0
C260 C 0.74109 0.81404 0.70774 0.0
C261 C 0.71324 0.8274 0.71572 0.0
C262 C 0.69377 0.81825 0.74348 0.0
C263 C 0.70273 0.7962 0.76403 0.0
C264 C 0.72797 0.78102 0.75447 0.0
C265 C 0.73554 0.75974 0.78043 0.0
C266 C 0.71191 0.7661 0.80788 0.0
C267 C 0.69282 0.78748 0.79807 0.0
C268 C 0.72731 0.72662 0.76688 0.0
C269 C 0.77193 0.76958 0.79009 0.0
C270 C 0.61727 0.84766 0.86151 0.0
C271 C 0.60979 0.85014 0.89514 0.0
C272 C 0.62152 0.83092 0.91746 0.0
C273 C 0.64113 0.80984 0.90645 0.0
C274 C 0.64973 0.80851 0.87289 0.0
C275 C 0.63753 0.82699 0.85099 0.0
C276 C 0.65115 0.82411 0.81672 0.0
C277 C 0.67252 0.79996 0.82142 0.0
C278 C 0.67178 0.79112 0.85442 0.0
C279 C 0.62231 0.81251 0.7936 0.0
C280 C 0.67145 0.85544 0.80712 0.0
H281 H 0.75291 0.71128 0.82156 0.0
H282 H 0.7387 0.73186 0.94104 0.0
H283 H 0.74086 0.79706 0.90995 0.0
H284 H 0.70279 0.80823 0.91938 0.0
H285 H 0.7181 0.78224 0.94583 0.0
H286 H 0.66582 0.71752 0.90837 0.0
H287 H 0.67086 0.74305 0.94328 0.0
H288 H 0.64545 0.74909 0.90918 0.0
H289 H 0.76723 0.77752 0.71982 0.0
H290 H 0.70789 0.84659 0.70218 0.0
H291 H 0.67376 0.8301 0.74905 0.0
H292 H 0.70971 0.72465 0.74629 0.0
H293 H 0.74967 0.71829 0.75746 0.0
H294 H 0.71503 0.71075 0.78567 0.0
H295 H 0.77742 0.79461 0.79462 0.0
H296 H 0.77857 0.75915 0.81269 0.0
H297 H 0.78871 0.76377 0.77016 0.0
H298 H 0.78418 0.68835 0.86059 0.0
C299 C 0.74922 0.71614 0.84717 0.0
C300 C 0.88548 0.20111 0.45599 0.0
C301 C 0.9045 0.18535 0.43499 0.0
C302 C 0.90128 0.18657 0.40077 0.0
C303 C 0.85637 0.21446 0.40875 0.0
C304 C 0.86136 0.21552 0.44231 0.0
C305 C 0.83619 0.2306 0.46074 0.0
H306 H 0.68664 0.27331 0.45917 0.0
C307 C 0.82569 0.22585 0.40267 0.0
C308 C 0.81363 0.23547 0.43294 0.0
H309 H 0.75569 0.28732 0.53838 0.0
H310 H 0.79512 0.26474 0.50469 0.0
H311 H 0.70247 0.20676 0.43159 0.0
H312 H 0.73617 0.30043 0.40751 0.0
H313 H 0.73408 0.27994 0.37009 0.0
H314 H 0.69714 0.2804 0.39441 0.0
H315 H 0.67731 0.22991 0.41181 0.0
H316 H 0.70396 0.20897 0.3885 0.0
C317 C 0.81857 0.20827 0.48658 0.0
C318 C 0.85367 0.26115 0.47567 0.0
C319 C 0.77375 0.20427 0.29113 0.0
C320 C 0.74184 0.20442 0.28005 0.0
C321 C 0.71986 0.21794 0.30012 0.0
C322 C 0.72889 0.22928 0.33161 0.0
C323 C 0.76008 0.22677 0.34328 0.0
C324 C 0.78214 0.21506 0.32283 0.0
C325 C 0.81334 0.21229 0.33987 0.0
C326 C 0.8063 0.22414 0.3741 0.0
C327 C 0.77516 0.23255 0.37591 0.0
C328 C 0.81717 0.17809 0.3395 0.0
C329 C 0.84177 0.23362 0.32265 0.0
C330 C 0.70988 0.27058 0.46959 0.0
C331 C 0.7179 0.28093 0.50162 0.0
C332 C 0.74893 0.27866 0.51395 0.0
C333 C 0.77173 0.2659 0.49431 0.0
C334 C 0.76343 0.256 0.46197 0.0
C335 C 0.73308 0.25891 0.45007 0.0
C336 C 0.72957 0.25063 0.41424 0.0
C337 C 0.76296 0.24246 0.40634 0.0
C338 C 0.78239 0.24471 0.43454 0.0
C339 C 0.70179 0.22275 0.41104 0.0
C340 C 0.7237 0.27911 0.39538 0.0
H341 H 0.87538 0.20062 0.36128 0.0
H342 H 0.88775 0.20027 0.48243 0.0
H343 H 0.87622 0.27037 0.46133 0.0
H344 H 0.83829 0.2792 0.47506 0.0
H345 H 0.86106 0.25838 0.50141 0.0
H346 H 0.81039 0.18546 0.47509 0.0
H347 H 0.8352 0.20554 0.50701 0.0
H348 H 0.79648 0.21558 0.49745 0.0
H349 H 0.79131 0.19428 0.27618 0.0
H350 H 0.69505 0.21821 0.29227 0.0
H351 H 0.71072 0.23837 0.34611 0.0
H352 H 0.79373 0.16274 0.33403 0.0
H353 H 0.83547 0.17322 0.32062 0.0
H354 H 0.82415 0.17047 0.36368 0.0
H355 H 0.83407 0.25553 0.31632 0.0
H356 H 0.86332 0.24001 0.3385 0.0
H357 H 0.84952 0.22305 0.29944 0.0
H358 H 0.9159 0.17451 0.38441 0.0
C359 C 0.87754 0.20141 0.3875 0.0
C360 C 0.42342 0.66983 0.2979 0.0
C361 C 0.41162 0.64089 0.31246 0.0
C362 C 0.38358 0.62361 0.29757 0.0
C363 C 0.37997 0.66281 0.25627 0.0
C364 C 0.4076 0.68008 0.26998 0.0
C365 C 0.4174 0.70973 0.2512 0.0
H366 H 0.38889 0.80428 0.12424 0.0
C367 C 0.36902 0.67977 0.22746 0.0
C368 C 0.39142 0.70756 0.2242 0.0
H369 H 0.46659 0.82202 0.19491 0.0
H370 H 0.44707 0.77357 0.22046 0.0
H371 H 0.33305 0.77801 0.17635 0.0
H372 H 0.39388 0.73339 0.11137 0.0
H373 H 0.35476 0.71092 0.11109 0.0
H374 H 0.36001 0.74962 0.09694 0.0
H375 H 0.32722 0.77508 0.13271 0.0
H376 H 0.30788 0.74578 0.16004 0.0
C377 C 0.41531 0.73663 0.27517 0.0
C378 C 0.45205 0.71022 0.23628 0.0
C379 C 0.26287 0.63641 0.16263 0.0
C380 C 0.24714 0.64742 0.13543 0.0
C381 C 0.26363 0.67454 0.12102 0.0
C382 C 0.29312 0.6908 0.13346 0.0
C383 C 0.30773 0.6804 0.16105 0.0
C384 C 0.29304 0.65328 0.17496 0.0
C385 C 0.31346 0.64564 0.20358 0.0
C386 C 0.34184 0.67293 0.20506 0.0
C387 C 0.33812 0.69334 0.17981 0.0
C388 C 0.29188 0.64379 0.23513 0.0
C389 C 0.32604 0.6157 0.1947 0.0
C390 C 0.40213 0.79784 0.14493 0.0
C391 C 0.42963 0.81819 0.15708 0.0
C392 C 0.44518 0.80789 0.18469 0.0
C393 C 0.43382 0.77932 0.19969 0.0
C394 C 0.40607 0.75969 0.18762 0.0
C395 C 0.39088 0.76932 0.1605 0.0
C396 C 0.3613 0.74623 0.15105 0.0
C397 C 0.36105 0.72122 0.17645 0.0
C398 C 0.38752 0.72873 0.19829 0.0
C399 C 0.33064 0.76191 0.1549 0.0
C400 C 0.36743 0.73445 0.1157 0.0
H401 H 0.34664 0.61963 0.26105 0.0
H402 H 0.44487 0.68418 0.30774 0.0
H403 H 0.45369 0.68817 0.22355 0.0
H404 H 0.45844 0.72798 0.21767 0.0
H405 H 0.47085 0.71393 0.25575 0.0
H406 H 0.39169 0.73273 0.28926 0.0
H407 H 0.43558 0.73935 0.29307 0.0
H408 H 0.41614 0.75831 0.26234 0.0
H409 H 0.25163 0.61565 0.17451 0.0
H410 H 0.25357 0.68356 0.09968 0.0
H411 H 0.30338 0.71125 0.12099 0.0
H412 H 0.27867 0.66355 0.23699 0.0
H413 H 0.27328 0.62268 0.23501 0.0
H414 H 0.30629 0.64453 0.25775 0.0
H415 H 0.33402 0.61545 0.16841 0.0
H416 H 0.34777 0.61281 0.20881 0.0
H417 H 0.30648 0.59568 0.19856 0.0
H418 H 0.37299 0.60176 0.30755 0.0
C419 C 0.36794 0.63422 0.27027 0.0
C420 C 0.10723 0.26071 0.67687 0.0
C421 C 0.11853 0.24432 0.64948 0.0
C422 C 0.14779 0.25835 0.63359 0.0
C423 C 0.15303 0.30313 0.67037 0.0
C424 C 0.12479 0.28989 0.68678 0.0
C425 C 0.11667 0.31061 0.71512 0.0
H426 H 0.15586 0.44397 0.80697 0.0
C427 C 0.16574 0.3335 0.68631 0.0
C428 C 0.14457 0.33818 0.71291 0.0
H429 H 0.07247 0.37224 0.82029 0.0
H430 H 0.09062 0.34449 0.7741 0.0
H431 H 0.15153 0.44307 0.72371 0.0
H432 H 0.21078 0.39865 0.78771 0.0
H433 H 0.23473 0.4179 0.75567 0.0
H434 H 0.21536 0.43942 0.7859 0.0
H435 H 0.18203 0.46445 0.74978 0.0
H436 H 0.19307 0.44905 0.71065 0.0
C437 C 0.08299 0.31968 0.70855 0.0
C438 C 0.11767 0.29344 0.74757 0.0
C439 C 0.26896 0.3976 0.63654 0.0
C440 C 0.28793 0.4265 0.64348 0.0
C441 C 0.27807 0.44258 0.67142 0.0
C442 C 0.25012 0.43066 0.69103 0.0
C443 C 0.23121 0.40202 0.68316 0.0
C444 C 0.2412 0.38606 0.65628 0.0
C445 C 0.21899 0.35592 0.65114 0.0
C446 C 0.19362 0.35622 0.67885 0.0
C447 C 0.20056 0.38332 0.69797 0.0
C448 C 0.20332 0.35616 0.61684 0.0
C449 C 0.23965 0.3303 0.65546 0.0
C450 C 0.14124 0.4224 0.80007 0.0
C451 C 0.11256 0.41066 0.81889 0.0
C452 C 0.095 0.38214 0.80791 0.0
C453 C 0.10548 0.36585 0.78047 0.0
C454 C 0.13413 0.37762 0.76252 0.0
C455 C 0.15143 0.40568 0.77232 0.0
C456 C 0.18113 0.41493 0.74985 0.0
C457 C 0.17904 0.38801 0.72536 0.0
C458 C 0.15119 0.3658 0.73284 0.0
C459 C 0.17702 0.44457 0.7326 0.0
C460 C 0.2123 0.41812 0.77076 0.0
H461 H 0.18657 0.29582 0.62993 0.0
H462 H 0.08504 0.2513 0.69012 0.0
H463 H 0.13972 0.28218 0.7479 0.0
H464 H 0.11942 0.30865 0.76942 0.0
H465 H 0.09566 0.27555 0.75038 0.0
H466 H 0.08128 0.32568 0.6823 0.0
H467 H 0.06276 0.3006 0.714 0.0
H468 H 0.07879 0.33996 0.72294 0.0
H469 H 0.27558 0.38385 0.61604 0.0
H470 H 0.29155 0.46483 0.67779 0.0
H471 H 0.2441 0.44434 0.71159 0.0
H472 H 0.19768 0.37912 0.61156 0.0
H473 H 0.22015 0.35019 0.59704 0.0
H474 H 0.17957 0.34074 0.61495 0.0
H475 H 0.25923 0.33709 0.67384 0.0
H476 H 0.22509 0.3092 0.66524 0.0
H477 H 0.25176 0.32494 0.63193 0.0
H478 H 0.15836 0.24685 0.61341 0.0
C479 C 0.16469 0.28712 0.64361 0.0
Gd480 Gd 0.04258 0.02903 0.49866 0.0
Gd481 Gd 0.99662 1.01581 0.5543 0.0
C482 C 0.04796 0.08124 0.55592 0.0
C483 C 0.07353 0.04396 0.44431 0.0
C484 C 0.09362 0.07257 0.43358 0.0
C485 C 0.12422 0.07184 0.41846 0.0
C486 C 0.08395 0.10081 0.44084 0.0
C487 C 0.1355 0.12714 0.4182 0.0
C488 C 0.10464 0.12789 0.43293 0.0
C489 C 0.14506 0.09889 0.41093 0.0
C490 C 0.0665 1.00192 0.54912 0.0
C491 C 0.99094 0.96374 0.49668 0.0
C492 C 0.96519 1.0019 0.60876 0.0
C493 C 0.9423 0.97496 0.62001 0.0
C494 C 0.91037 0.97826 0.62986 0.0
C495 C 0.95113 0.94581 0.61944 0.0
C496 C 0.8963 0.92381 0.63831 0.0
C497 C 0.92835 0.92046 0.62878 0.0
C498 C 0.88752 0.95292 0.63875 0.0
C499 C 0.97328 0.04413 0.50423 0.0
O500 O 0.05385 0.07527 0.52446 0.0
O501 O 0.02898 0.0602 0.5737 0.0
O502 O 0.08608 0.03035 0.46791 0.0
O503 O 0.042 0.04394 0.44836 0.0
O504 O 0.08333 1.02421 0.533 0.0
O505 O 0.03828 0.99478 0.5375 0.0
O506 O 0.98417 0.96989 0.52792 0.0
O507 O 1.01083 0.98442 0.4793 0.0
O508 O 0.95411 1.01732 0.58574 0.0
O509 O 0.99595 0.99896 0.60398 0.0
O510 O 0.9562 1.02153 0.51973 0.0
O511 O 1.00145 0.05042 0.51604 0.0
H512 H 0.13223 0.0503 0.41299 0.0
H513 H 0.06067 0.10199 0.45309 0.0
H514 H 0.09681 0.1494 0.43886 0.0
H515 H 0.16858 0.09775 0.39917 0.0
H516 H 0.903 1.00049 0.63041 0.0
H517 H 0.97549 0.9425 0.61158 0.0
H518 H 0.93566 0.89822 0.62825 0.0
H519 H 0.86311 0.95615 0.64652 0.0
Gd520 Gd 0.53662 0.03282 0.04456 0.0
Gd521 Gd 0.4887 1.02615 1.00172 0.0
C522 C 0.48093 0.06807 0.06493 0.0
C523 C 0.59191 0.04419 0.07476 0.0
C524 C 0.61055 0.07064 0.09172 0.0
C525 C 0.64476 0.07397 0.09239 0.0
C526 C 0.5945 0.09223 0.10794 0.0
C527 C 0.64668 0.11852 0.12835 0.0
C528 C 0.61243 0.11595 0.12623 0.0
C529 C 0.66274 0.09781 0.11045 0.0
C530 C 0.49209 0.98137 0.06219 0.0
C531 C 0.54449 0.99084 0.98171 0.0
C532 C 0.43435 1.01509 0.96974 0.0
C533 C 0.41683 0.98936 0.95033 0.0
C534 C 0.41276 0.99312 0.9166 0.0
C535 C 0.40518 0.96092 0.96443 0.0
C536 C 0.38716 0.94022 0.91088 0.0
C537 C 0.3902 0.93655 0.94481 0.0
C538 C 0.39828 0.96875 0.89702 0.0
C539 C 0.53386 0.07738 0.98458 0.0
O540 O 0.51277 0.07001 0.06647 0.0
O541 O 0.46481 0.04848 0.04409 0.0
O542 O 0.56437 0.03205 0.0889 0.0
O543 O 0.58953 0.04638 0.043 0.0
O544 O 0.5053 1.00288 0.08192 0.0
O545 O 0.50185 0.98874 0.03297 0.0
O546 O 0.5126 0.98857 0.98021 0.0
O547 O 0.56039 1.01102 1.00203 0.0
O548 O 0.46201 0.02852 0.95691 0.0
O549 O 0.43592 1.01177 1.00148 0.0
O550 O 0.52115 0.05575 0.96472 0.0
O551 O 0.52334 0.0701 1.01356 0.0
H552 H 0.65751 0.05772 0.07959 0.0
H553 H 0.56805 0.09021 0.10734 0.0
H554 H 0.59929 0.13135 0.13993 0.0
H555 H 0.68915 0.09954 0.11113 0.0
H556 H 0.42133 1.01486 0.90525 0.0
H557 H 0.40802 0.95733 0.99041 0.0
H558 H 0.38174 0.9147 0.95594 0.0
H559 H 0.39574 0.97218 0.87095 0.0
Gd560 Gd 0.51211 0.50068 0.50808 0.0
Gd561 Gd 0.51584 0.55614 0.54138 0.0
C562 C 0.54478 0.50609 0.58298 0.0
C563 C 0.52999 0.45265 0.4817 0.0
C564 C 0.55378 0.43412 0.4929 0.0
C565 C 0.55041 0.40321 0.48425 0.0
C566 C 0.5802 0.44742 0.51241 0.0
C567 C 0.60057 0.39941 0.51334 0.0
C568 C 0.60314 0.43019 0.5228 0.0
C569 C 0.5737 0.38599 0.49425 0.0
C570 C 0.4554 0.50145 0.54356 0.0
C571 C 0.483 0.55123 0.46664 0.0
C572 C 0.49875 0.60468 0.5669 0.0
C573 C 0.4811 0.62749 0.55315 0.0
C574 C 0.4908 0.64174 0.52309 0.0
C575 C 0.45183 0.63246 0.5686 0.0
C576 C 0.44146 0.66459 0.52383 0.0
C577 C 0.43212 0.65068 0.55401 0.0
C578 C 0.47123 0.66049 0.5087 0.0
C579 C 0.57268 0.55475 0.50633 0.0
O580 O 0.54004 0.49039 0.55482 0.0
O581 O 0.5359 0.53332 0.58476 0.0
O582 O 0.50331 0.45162 0.49962 0.0
O583 O 0.54256 0.48031 0.47325 0.0
O584 O 0.45676 0.49117 0.51345 0.0
O585 O 0.48443 0.51168 0.5531 0.0
O586 O 0.48962 0.56768 0.49409 0.0
O587 O 0.48985 0.52315 0.4656 0.0
O588 O 0.52843 0.60383 0.55569 0.0
O589 O 0.48112 0.57765 0.56982 0.0
O590 O 0.57125 0.56517 0.53635 0.0
O591 O 0.54365 0.54499 0.49659 0.0
H592 H 0.53018 0.39257 0.46924 0.0
H593 H 0.58358 0.47133 0.51916 0.0
H594 H 0.62323 0.44118 0.53778 0.0
H595 H 0.57124 0.36247 0.48602 0.0
H596 H 0.51305 0.63792 0.51037 0.0
H597 H 0.44378 0.62155 0.59162 0.0
H598 H 0.40954 0.65407 0.56644 0.0
H599 H 0.47894 0.67125 0.48555 0.0
Gd600 Gd 0.01688 0.49745 0.03787 0.0
Gd601 Gd 0.01758 0.56026 1.00306 0.0
C602 C 0.07923 0.55383 0.05108 0.0
C603 C 0.03062 0.44418 0.0494 0.0
C604 C 0.05799 0.43173 0.06388 0.0
C605 C 0.06401 0.43427 0.09781 0.0
C606 C 0.07833 0.41682 0.04345 0.0
C607 C 0.11006 0.40702 0.09055 0.0
C608 C 0.10423 0.40473 0.05661 0.0
C609 C 0.08976 0.42199 0.11099 0.0
C610 C 0.98745 0.53645 0.07912 0.0
C611 C 0.95432 0.504 0.99218 0.0
C612 C 1.00327 0.61294 0.99011 0.0
C613 C 0.97195 0.62427 0.99067 0.0
C614 C 0.96982 0.65219 0.97645 0.0
C615 C 0.94325 0.60543 1.00157 0.0
C616 C 0.91024 0.64082 0.98059 0.0
C617 C 0.9126 0.61355 0.99637 0.0
C618 C 0.93916 0.66054 0.97163 0.0
C619 C 0.04891 0.52321 0.96182 0.0
O620 O 0.06655 0.52439 0.05422 0.0
O621 O 0.06435 0.57227 0.03342 0.0
O622 O 1.01242 0.45815 0.06919 0.0
O623 O 0.03697 0.45783 1.0213 0.0
O624 O 0.99062 0.50877 0.08612 0.0
O625 O 0.99944 0.54066 0.05015 0.0
O626 O 0.96622 0.53372 0.99095 0.0
O627 O 0.97059 0.48507 1.00727 0.0
O628 O 1.00543 0.59191 0.96766 0.0
O629 O 1.01443 0.60658 1.01858 0.0
O630 O 0.04667 0.55143 0.95673 0.0
O631 O 0.03587 0.51716 0.99022 0.0
H632 H 0.04884 0.44566 0.11425 0.0
H633 H 0.0741 0.41438 1.01723 0.0
H634 H 0.11924 0.39301 0.04034 0.0
H635 H 0.09389 0.42432 0.13722 0.0
H636 H 0.99173 0.66686 0.96769 0.0
H637 H 0.94447 0.58382 1.01276 0.0
H638 H 0.8907 0.59806 1.00368 0.0
H639 H 0.93801 0.68155 0.95913 0.0
H640 H 0.21366 0.24409 0.35336 0.0
H641 H 0.29417 0.2131 0.40091 0.0
H642 H 0.25571 0.17306 0.42784 0.0
H643 H 0.19999 0.14324 0.43221 0.0
H644 H 0.12 0.17471 0.38453 0.0
H645 H 0.15754 0.21881 0.36387 0.0
C646 C 0.22287 0.22935 0.37049 0.0
C647 C 0.25688 0.23144 0.37476 0.0
C648 C 0.20072 0.20623 0.38552 0.0
C649 C 0.26818 0.21169 0.39673 0.0
C650 C 0.24621 0.18876 0.41209 0.0
C651 C 0.19084 0.15998 0.41756 0.0
C652 C 0.15748 0.15563 0.40944 0.0
C653 C 0.21258 0.18514 0.40564 0.0
C654 C 0.14563 0.17764 0.39101 0.0
C655 C 0.16708 0.20274 0.3791 0.0
H656 H 0.30066 0.84192 0.8227 0.0
H657 H 0.3873 0.86001 0.76049 0.0
H658 H 0.41599 0.89218 0.80348 0.0
H659 H 0.41436 0.91992 0.85591 0.0
H660 H 0.32782 0.90341 0.91804 0.0
H661 H 0.30112 0.86577 0.87804 0.0
C662 C 0.32594 0.85265 0.81878 0.0
C663 C 0.34174 0.84875 0.7884 0.0
C664 C 0.34215 0.87162 0.84341 0.0
C665 C 0.37466 0.8624 0.78375 0.0
C666 C 0.39101 0.88105 0.8082 0.0
C667 C 0.38978 0.90778 0.86075 0.0
C668 C 0.37278 0.91455 0.88943 0.0
C669 C 0.37467 0.88653 0.83765 0.0
C670 C 0.34122 0.89847 0.89596 0.0
C671 C 0.32596 0.87713 0.87307 0.0
H672 H 0.61084 0.47713 0.71965 0.0
H673 H 0.58931 0.38496 0.68199 0.0
H674 H 0.56648 0.40306 0.63243 0.0
H675 H 0.55231 0.44557 0.59806 0.0
H676 H 0.57166 0.53716 0.63775 0.0
H677 H 0.59527 0.51896 0.68659 0.0
C678 C 0.6013 0.46074 0.70073 0.0
C679 C 0.60236 0.4292 0.70565 0.0
C680 C 0.58756 0.47143 0.67178 0.0
C681 C 0.589 0.4091 0.68011 0.0
C682 C 0.57594 0.4196 0.65123 0.0
C683 C 0.56172 0.46171 0.61727 0.0
C684 C 0.55991 0.49324 0.61317 0.0
C685 C 0.57502 0.4508 0.6465 0.0
C686 C 0.5723 0.51304 0.63927 0.0
C687 C 0.58599 0.50251 0.66762 0.0
H688 H 0.94491 0.64454 0.17108 0.0
H689 H 0.91471 0.56874 0.23534 0.0
H690 H 0.9329 0.5343 0.1943 0.0
H691 H 0.95834 0.52455 0.14013 0.0
H692 H 0.98724 0.59897 0.07432 0.0
H693 H 0.96899 0.63421 0.11517 0.0
C694 C 0.94228 0.62051 0.17629 0.0
C695 C 0.92791 0.60981 0.20708 0.0
C696 C 0.95277 0.60014 0.15188 0.0
C697 C 0.9249 0.57822 0.21233 0.0
C698 C 0.9356 0.55825 0.18867 0.0
C699 C 0.96062 0.54848 0.13446 0.0
C700 C 0.97458 0.55866 0.10351 0.0
C701 C 0.94962 0.56879 0.15831 0.0
C702 C 0.97688 0.58997 0.09736 0.0
C703 C 0.96636 0.61032 0.12105 0.0
H704 H 0.3919 0.15684 0.12812 0.0
H705 H 0.48095 0.18921 0.1804 0.0
H706 H 0.50841 0.15162 0.15128 0.0
H707 H 0.50683 0.1094 0.11132 0.0
H708 H 0.41708 0.07584 0.06031 0.0
H709 H 0.39005 0.11387 0.08878 0.0
C710 C 0.41742 0.15579 0.1328 0.0
C711 C 0.43455 0.1758 0.15607 0.0
C712 C 0.43277 0.13377 0.11648 0.0
C713 C 0.46738 0.17397 0.16251 0.0
C714 C 0.48302 0.1525 0.14593 0.0
C715 C 0.48131 0.11031 0.10651 0.0
C716 C 0.46402 0.08982 0.08371 0.0
C717 C 0.46589 0.13218 0.123 0.0
C718 C 0.43095 0.09127 0.07782 0.0
C719 C 0.41549 0.11311 0.09398 0.0
H720 H 0.15519 0.93121 0.6313 0.0
H721 H 0.08366 0.85509 0.59941 0.0
H722 H 0.05131 0.88997 0.57471 0.0
H723 H 0.04604 0.94185 0.55869 0.0
H724 H 0.121 1.01722 0.58569 0.0
H725 H 0.14937 0.98301 0.61635 0.0
C726 C 0.13219 0.92241 0.61942 0.0
C727 C 0.12143 0.89087 0.61733 0.0
C728 C 0.1146 0.94243 0.60436 0.0
C729 C 0.09211 0.87941 0.60131 0.0
C730 C 0.07377 0.89929 0.58721 0.0
C731 C 0.06836 0.95077 0.57169 0.0
C732 C 0.08157 0.98188 0.5701 0.0
C733 C 0.08512 0.93081 0.58808 0.0
C734 C 0.11059 0.99327 0.58663 0.0
C735 C 0.12677 0.97375 0.60406 0.0
H736 H 0.81258 0.47271 0.92276 0.0
H737 H 0.83459 0.38171 0.9288 0.0
H738 H 0.88653 0.4014 0.95447 0.0
H739 H 0.92663 0.44406 0.97694 0.0
H740 H 0.90717 0.53567 0.96958 0.0
H741 H 0.85477 0.51639 0.94332 0.0
C742 C 0.82879 0.45714 0.92935 0.0
C743 C 0.81843 0.42528 0.92395 0.0
C744 C 0.85969 0.46882 0.9444 0.0
C745 C 0.84064 0.40606 0.933 0.0
C746 C 0.87083 0.41739 0.94775 0.0
C747 C 0.91103 0.45997 0.96974 0.0
C748 C 0.92154 0.49158 0.97586 0.0
C749 C 0.88064 0.44867 0.95403 0.0
C750 C 0.90042 0.51134 0.96561 0.0
C751 C 0.87011 0.50023 0.9504 0.0
H752 H 0.68221 0.58896 0.3925 0.0
H753 H 0.73599 0.63309 0.47505 0.0
H754 H 0.68981 0.61541 0.51167 0.0
H755 H 0.6334 0.58775 0.52137 0.0
H756 H 0.57897 0.54317 0.43975 0.0
H757 H 0.62566 0.56008 0.40255 0.0
C758 C 0.68409 0.59462 0.41851 0.0
C759 C 0.7132 0.61301 0.43034 0.0
C760 C 0.65696 0.58408 0.44005 0.0
C761 C 0.71424 0.61984 0.46444 0.0
C762 C 0.68767 0.60943 0.48574 0.0
C763 C 0.63167 0.58154 0.49546 0.0
C764 C 0.60222 0.56399 0.4837 0.0
C765 C 0.65878 0.59164 0.47395 0.0
C766 C 0.60097 0.55649 0.44984 0.0
C767 C 0.62784 0.56629 0.42842 0.0
H768 H 0.20531 0.33872 0.16802 0.0
H769 H 0.27365 0.37773 0.09267 0.0
H770 H 0.23034 0.40054 0.06761 0.0
H771 H 0.17318 0.41031 0.06814 0.0
H772 H 0.10612 0.37203 0.14489 0.0
H773 H 0.1492 0.34867 0.16895 0.0
C774 C 0.21099 0.35261 0.1464 0.0
C775 C 0.24283 0.35682 0.1325 0.0
C776 C 0.18623 0.36592 0.13252 0.0
C777 C 0.24934 0.37405 0.10383 0.0
C778 C 0.22463 0.38721 0.08961 0.0
C779 C 0.16804 0.39672 0.09004 0.0
C780 C 0.13656 0.393 0.10482 0.0
C781 C 0.193 0.38338 0.10383 0.0
C782 C 0.13026 0.37557 0.13333 0.0
C783 C 0.15481 0.36207 0.14699 0.0
H784 H 0.59572 0.21883 0.95684 0.0
H785 H 0.57714 0.18753 0.85677 0.0
H786 H 0.55621 0.13652 0.87597 0.0
H787 H 0.54201 0.09933 0.92084 0.0
H788 H 0.55872 0.12927 1.02136 0.0
H789 H 0.58112 0.18083 1.00256 0.0
C790 C 0.58726 0.20092 0.93908 0.0
C791 C 0.58812 0.2082 0.90488 0.0
C792 C 0.57461 0.17068 0.95053 0.0
C793 C 0.5766 0.18382 0.88301 0.0
C794 C 0.56462 0.15414 0.89407 0.0
C795 C 0.55057 0.117 0.93885 0.0
C796 C 0.54841 0.10959 0.97286 0.0
C797 C 0.56325 0.14711 0.92774 0.0
C798 C 0.55979 0.13355 0.9952 0.0
C799 C 0.57272 0.16336 0.98431 0.0
H800 H 0.92061 0.82719 0.46448 0.0
H801 H 0.9569 0.84927 0.36621 0.0
H802 H 0.98289 0.89974 0.38609 0.0
H803 H 0.99415 0.93941 0.43178 0.0
H804 H 0.95492 0.91591 0.52886 0.0
H805 H 0.93116 0.86552 0.50881 0.0
C806 C 0.93371 0.84291 0.44691 0.0
C807 C 0.93594 0.83355 0.41332 0.0
C808 C 0.94824 0.87243 0.45847 0.0
C809 C 0.95445 0.85487 0.39207 0.0
C810 C 0.96927 0.88418 0.40351 0.0
C811 C 0.98041 0.92334 0.44862 0.0
C812 C 0.97663 0.93238 0.4822 0.0
C813 C 0.96618 0.89352 0.43671 0.0
C814 C 0.95855 0.91052 0.50309 0.0
C815 C 0.9448 0.88128 0.49157 0.0
H816 H 0.36441 0.77054 0.51336 0.0
H817 H 0.2837 0.6958 0.51657 0.0
H818 H 0.32114 0.65986 0.50427 0.0
H819 H 0.37759 0.64966 0.50827 0.0
H820 H 0.45846 0.72439 0.50919 0.0
H821 H 0.4205 0.76053 0.50357 0.0
C822 C 0.35497 0.7465 0.50973 0.0
C823 C 0.32164 0.73559 0.51628 0.0
C824 C 0.37686 0.72599 0.50433 0.0
C825 C 0.30934 0.70456 0.51157 0.0
C826 C 0.33083 0.684 0.50509 0.0
C827 C 0.38682 0.67381 0.50606 0.0
C828 C 0.42047 0.68461 0.50982 0.0
C829 C 0.36479 0.69437 0.50383 0.0
C830 C 0.43254 0.71575 0.50654 0.0
C831 C 0.41083 0.73637 0.50359 0.0
H832 H 0.80701 0.82048 0.71518 0.0
H833 H 0.73403 0.84416 0.65038 0.0
H834 H 0.77652 0.87904 0.62139 0.0
H835 H 0.83338 0.90682 0.61868 0.0
H836 H 0.90572 0.88191 0.68314 0.0
H837 H 0.86442 0.84258 0.70742 0.0
C838 C 0.80029 0.83232 0.694 0.0
C839 C 0.76712 0.8298 0.6853 0.0
C840 C 0.82474 0.85232 0.67755 0.0
C841 C 0.7592 0.84602 0.65809 0.0
C842 C 0.7835 0.86597 0.64146 0.0
C843 C 0.84007 0.89249 0.63779 0.0
C844 C 0.87235 0.8974 0.64945 0.0
C845 C 0.81615 0.87004 0.65174 0.0
C846 C 0.881 0.87847 0.6738 0.0
C847 C 0.85738 0.85612 0.68778 0.0
H848 H 0.70227 0.22017 0.23249 0.0
H849 H 0.75473 0.1489 0.26061 0.0
H850 H 0.73215 0.11744 0.21435 0.0
H851 H 0.69397 0.10813 0.16927 0.0
H852 H 0.63987 0.178 0.14092 0.0
H853 H 0.66616 0.21184 0.18437 0.0
C854 C 0.70885 0.19782 0.22832 0.0
C855 C 0.73028 0.18702 0.24989 0.0
C856 C 0.69523 0.17946 0.20193 0.0
C857 C 0.73881 0.15808 0.24407 0.0
C858 C 0.72565 0.13989 0.21778 0.0
C859 C 0.68848 0.13103 0.17197 0.0
C860 C 0.66505 0.14054 0.15187 0.0
C861 C 0.70346 0.15015 0.19694 0.0
C862 C 0.65764 0.17004 0.15631 0.0
C863 C 0.6727 0.1894 0.18108 0.0
H864 H 0.41713 0.58079 0.32993 0.0
H865 H 0.44198 0.67319 0.36624 0.0
H866 H 0.46463 0.6549 0.4158 0.0
H867 H 0.47779 0.61217 0.45053 0.0
H868 H 0.45445 0.52022 0.41248 0.0
H869 H 0.43126 0.53868 0.36354 0.0
C870 C 0.42732 0.59721 0.34855 0.0
C871 C 0.42727 0.62889 0.34318 0.0
C872 C 0.44089 0.58639 0.37756 0.0
C873 C 0.44149 0.64895 0.36839 0.0
C874 C 0.45447 0.63834 0.39728 0.0
C875 C 0.46757 0.59599 0.43169 0.0
C876 C 0.46816 0.56427 0.43631 0.0
C877 C 0.45437 0.60703 0.40244 0.0
C878 C 0.45477 0.54447 0.41061 0.0
C879 C 0.44131 0.55515 0.38218 0.0
H880 H 0.12017 0.47326 0.8351 0.0
H881 H 0.07757 0.38598 0.87413 0.0
H882 H 0.05522 0.41102 0.92106 0.0
H883 H 0.04538 0.45864 0.95187 0.0
H884 H 0.09 0.54526 0.91266 0.0
H885 H 0.1135 0.51986 0.86694 0.0
C886 C 0.10634 0.45942 0.85385 0.0
C887 C 0.10055 0.4272 0.84958 0.0
C888 C 0.0935 0.47415 0.88175 0.0
C889 C 0.08213 0.41059 0.87509 0.0
C890 C 0.06935 0.42504 0.90262 0.0
C891 C 0.06066 0.47201 0.93371 0.0
C892 C 0.0656 0.50437 0.93661 0.0
C893 C 0.07448 0.45696 0.90635 0.0
C894 C 0.08533 0.5206 0.91185 0.0
C895 C 0.09895 0.50598 0.88523 0.0
H896 H 0.63443 0.8968 0.93482 0.0
H897 H 0.54765 0.8588 0.88175 0.0
H898 H 0.51972 0.90001 0.90272 0.0
H899 H 0.51987 0.94604 0.93776 0.0
H900 H 0.6083 0.98472 0.98856 0.0
H901 H 0.63587 0.94435 0.96652 0.0
C902 C 0.60936 0.89762 0.92801 0.0
C903 C 0.59277 0.8748 0.90736 0.0
C904 C 0.59391 0.92156 0.93955 0.0
C905 C 0.56061 0.87616 0.89794 0.0
C906 C 0.54476 0.89968 0.90985 0.0
C907 C 0.54527 0.94578 0.94372 0.0
C908 C 0.56189 0.96828 0.96495 0.0
C909 C 0.56113 0.92244 0.93086 0.0
C910 C 0.59486 0.96771 0.97231 0.0
C911 C 0.61066 0.94453 0.95985 0.0
H912 H 0.88639 0.12515 0.43332 0.0
H913 H 0.96312 0.19616 0.46648 0.0
H914 H 0.99303 0.15787 0.4884 0.0
H915 H 0.99588 0.10436 0.49949 0.0
H916 H 0.91662 0.03377 0.47016 0.0
H917 H 0.88904 0.07174 0.44471 0.0
C918 C 0.90975 0.13205 0.44528 0.0
C919 C 0.92288 0.16307 0.44837 0.0
C920 C 0.92618 0.11009 0.45821 0.0
C921 C 0.95285 0.17223 0.46403 0.0
C922 C 0.96983 0.15041 0.4764 0.0
C923 C 0.97274 0.09729 0.48719 0.0
C924 C 0.95821 0.06641 0.48644 0.0
C925 C 0.9566 0.1193 0.47376 0.0
C926 C 0.92812 0.05748 0.47088 0.0
C927 C 0.91237 0.07913 0.45649 0.0
H928 H 0.21863 0.58542 0.12472 0.0
H929 H 0.19781 0.67655 0.11549 0.0
H930 H 0.14669 0.65683 0.08839 0.0
H931 H 0.107 0.61402 0.06543 0.0
H932 H 0.12496 0.52234 0.07665 0.0
H933 H 0.1766 0.54171 0.10419 0.0
C934 C 0.20285 0.60103 0.11714 0.0
C935 C 0.2134 0.63292 0.122 0.0
C936 C 0.17236 0.58933 0.10136 0.0
C937 C 0.1917 0.65216 0.11169 0.0
C938 C 0.16195 0.64082 0.09611 0.0
C939 C 0.12213 0.59812 0.07375 0.0
C940 C 0.11146 0.56646 0.06828 0.0
C941 C 0.15202 0.60949 0.09032 0.0
C942 C 0.13189 0.54671 0.08005 0.0
C943 C 0.16175 0.55788 0.096 0.0
H944 H 0.34783 0.46391 0.65862 0.0
H945 H 0.29367 0.41996 0.57621 0.0
H946 H 0.33902 0.43897 0.53916 0.0
H947 H 0.39489 0.46766 0.529 0.0
H948 H 0.44972 0.51214 0.61042 0.0
H949 H 0.40381 0.49396 0.64808 0.0
C950 C 0.34569 0.45857 0.63255 0.0
C951 C 0.31673 0.43979 0.62089 0.0
C952 C 0.37236 0.4699 0.61073 0.0
C953 C 0.31534 0.43346 0.5867 0.0
C954 C 0.34143 0.44464 0.56515 0.0
C955 C 0.39687 0.47358 0.55496 0.0
C956 C 0.42622 0.49149 0.5665 0.0
C957 C 0.37021 0.46275 0.57675 0.0
C958 C 0.42779 0.49858 0.60046 0.0
C959 C 0.40136 0.48805 0.62216 0.0
H960 H 0.77977 0.65228 0.90888 0.0
H961 H 0.80224 0.74357 0.9489 0.0
H962 H 0.84818 0.72992 0.9789 0.0
H963 H 0.88565 0.69352 0.98858 0.0
H964 H 0.86297 0.60225 0.94845 0.0
H965 H 0.81336 0.61423 0.92391 0.0
C966 C 0.79446 0.66898 0.92461 0.0
C967 C 0.78787 0.69889 0.92653 0.0
C968 C 0.82096 0.66105 0.94151 0.0
C969 C 0.80677 0.72033 0.94722 0.0
C970 C 0.8332 0.71262 0.96413 0.0
C971 C 0.86955 0.67622 0.9748 0.0
C972 C 0.878 0.64716 0.9701 0.0
C973 C 0.84111 0.6833 0.96067 0.0
C974 C 0.85685 0.62475 0.95254 0.0
C975 C 0.8286 0.63164 0.93832 0.0
H976 H 0.43228 0.83966 0.09121 0.0
H977 H 0.45355 0.87128 0.19075 0.0
H978 H 0.47359 0.92228 0.17107 0.0
H979 H 0.48609 0.95941 0.12595 0.0
H980 H 0.46648 0.92927 0.02594 0.0
H981 H 0.44515 0.87763 0.04522 0.0
C982 C 0.44115 0.85761 0.10877 0.0
C983 C 0.44134 0.8504 0.14296 0.0
C984 C 0.45321 0.88788 0.09704 0.0
C985 C 0.45334 0.87488 0.16451 0.0
C986 C 0.46478 0.90458 0.15318 0.0
C987 C 0.47713 0.94168 0.10815 0.0
C988 C 0.47817 0.94907 0.07413 0.0
C989 C 0.46506 0.91154 0.11954 0.0
C990 C 0.46629 0.92502 0.05208 0.0
C991 C 0.45397 0.89517 0.06325 0.0
H992 H 0.11614 0.21884 0.58608 0.0
H993 H 0.08084 0.19726 0.68478 0.0
H994 H 0.05587 0.14626 0.6657 0.0
H995 H 0.045 0.10605 0.62061 0.0
H996 H 0.08291 0.12909 0.52296 0.0
H997 H 0.10596 0.17991 0.54225 0.0
C998 C 0.10345 0.20313 0.60389 0.0
C999 C 0.10115 0.21281 0.63735 0.0
C1000 C 0.08944 0.1733 0.59279 0.0
C1001 C 0.08327 0.19144 0.65897 0.0
C1002 C 0.06903 0.16182 0.64801 0.0
C1003 C 0.05832 0.12211 0.60349 0.0
C1004 C 0.06194 0.11282 0.56999 0.0
C1005 C 0.07208 0.1522 0.61492 0.0
C1006 C 0.07943 0.13468 0.5487 0.0
C1007 C 0.09277 0.16417 0.55977 0.0
H1008 H 0.72817 0.34095 0.51368 0.0
H1009 H 0.65656 0.25972 0.52513 0.0
H1010 H 0.61339 0.29046 0.53528 0.0
H1011 H 0.59499 0.33982 0.53054 0.0
H1012 H 0.66655 0.42033 0.51235 0.0
H1013 H 0.71069 0.39082 0.51594 0.0
C1014 C 0.70333 0.33016 0.51981 0.0
C1015 C 0.69536 0.29833 0.519 0.0
C1016 C 0.6785 0.3479 0.52365 0.0
C1017 C 0.66308 0.2843 0.5261 0.0
C1018 C 0.63841 0.30185 0.53142 0.0
C1019 C 0.62026 0.35093 0.52763 0.0
C1020 C 0.62729 0.38217 0.52072 0.0
C1021 C 0.64559 0.33359 0.5285 0.0
C1022 C 0.66027 0.39637 0.51786 0.0
C1023 C 0.68563 0.37946 0.51966 0.0
loop_
_geom_bond_atom_site_label_1
_geom_bond_atom_site_label_2
_geom_bond_distance
_geom_bond_site_symmetry_2
_ccdc_geom_bond_type
C0 C1 1.391 . S
C0 C4 1.391 . S
C0 H42 0.948 . S
C1 C0 1.391 . S
C1 C2 1.391 . S
C2 C1 1.391 . S
C2 H58 0.947 . S
C2 C59 1.392 . S
C3 C4 1.391 . S
C3 C7 1.397 . S
C3 C59 1.419 . S
C4 C0 1.391 . S
C4 C3 1.391 . S
C4 C5 1.399 . S
C5 C4 1.399 . S
C5 C8 1.396 . S
C5 C17 1.453 . S
C5 C18 1.684 . S
H6 C30 0.948 . S
C7 C3 1.397 . S
C7 C8 1.394 . S
C7 C26 1.723 . S
C8 C5 1.396 . S
C8 C7 1.394 . S
C8 C38 1.723 . S
H9 C32 0.947 . S
H10 C33 0.948 . S
H11 C39 0.982 . S
H12 C40 0.979 . S
H13 C40 0.980 . S
H14 C40 0.983 . S
H15 C39 0.979 . S
H16 C39 0.977 . S
C17 C5 1.453 . S
C17 H46 0.982 . S
C17 H47 0.979 . S
C17 H48 0.977 . S
C18 C5 1.684 . S
C18 H43 0.979 . S
C18 H44 0.980 . S
C18 H45 0.983 . S
C19 C20 1.391 . S
C19 C24 1.391 . S
C19 H49 0.948 . S
C20 C19 1.391 . S
C20 C21 1.391 . S
C21 C20 1.391 . S
C21 C22 1.392 . S
C21 H50 0.947 . S
C22 C21 1.392 . S
C22 C23 1.419 . S
C22 H51 0.948 . S
C23 C22 1.419 . S
C23 C24 1.391 . S
C23 C27 1.397 . S
C24 C19 1.391 . S
C24 C23 1.391 . S
C24 C25 1.399 . S
C25 C24 1.399 . S
C25 C26 1.396 . S
C25 C28 1.453 . S
C25 C29 1.684 . S
C26 C7 1.723 . S
C26 C25 1.396 . S
C26 C27 1.394 . S
C27 C23 1.397 . S
C27 C26 1.394 . S
C27 C37 1.723 . S
C28 C25 1.453 . S
C28 H52 0.982 . S
C28 H53 0.979 . S
C28 H54 0.977 . S
C29 C25 1.684 . S
C29 H55 0.979 . S
C29 H56 0.980 . S
C29 H57 0.983 . S
C30 H6 0.948 . S
C30 C31 1.391 . S
C30 C35 1.391 . S
C31 C30 1.391 . S
C31 C32 1.391 . S
C32 H9 0.947 . S
C32 C31 1.391 . S
C32 C33 1.392 . S
C33 H10 0.948 . S
C33 C32 1.392 . S
C33 C34 1.419 . S
C34 C33 1.419 . S
C34 C35 1.391 . S
C34 C38 1.397 . S
C35 C30 1.391 . S
C35 C34 1.391 . S
C35 C36 1.399 . S
C36 C35 1.399 . S
C36 C37 1.396 . S
C36 C39 1.453 . S
C36 C40 1.684 . S
C37 C27 1.723 . S
C37 C36 1.396 . S
C37 C38 1.394 . S
C38 C8 1.723 . S
C38 C34 1.397 . S
C38 C37 1.394 . S
C39 H11 0.982 . S
C39 H15 0.979 . S
C39 H16 0.977 . S
C39 C36 1.453 . S
C40 H12 0.979 . S
C40 H13 0.980 . S
C40 H14 0.983 . S
C40 C36 1.684 . S
H41 C59 0.948 . S
H42 C0 0.948 . S
H43 C18 0.979 . S
H44 C18 0.980 . S
H45 C18 0.983 . S
H46 C17 0.982 . S
H47 C17 0.979 . S
H48 C17 0.977 . S
H49 C19 0.948 . S
H50 C21 0.947 . S
H51 C22 0.948 . S
H52 C28 0.982 . S
H53 C28 0.979 . S
H54 C28 0.977 . S
H55 C29 0.979 . S
H56 C29 0.980 . S
H57 C29 0.983 . S
H58 C2 0.947 . S
C59 C2 1.392 . S
C59 C3 1.419 . S
C59 H41 0.948 . S
C60 C61 1.391 . S
C60 C64 1.391 . S
C60 H102 0.948 . S
C61 C60 1.391 . S
C61 C62 1.391 . S
C62 C61 1.391 . S
C62 H118 0.947 . S
C62 C119 1.392 . S
C63 C64 1.391 . S
C63 C67 1.397 . S
C63 C119 1.419 . S
C64 C60 1.391 . S
C64 C63 1.391 . S
C64 C65 1.399 . S
C65 C64 1.399 . S
C65 C68 1.396 . S
C65 C77 1.453 . S
C65 C78 1.684 . S
H66 C90 0.948 . S
C67 C63 1.397 . S
C67 C68 1.394 . S
C67 C86 1.723 . S
C68 C65 1.396 . S
C68 C67 1.394 . S
C68 C98 1.723 . S
H69 C92 0.947 . S
H70 C93 0.948 . S
H71 C99 0.982 . S
H72 C100 0.979 . S
H73 C100 0.980 . S
H74 C100 0.983 . S
H75 C99 0.979 . S
H76 C99 0.977 . S
C77 C65 1.453 . S
C77 H106 0.982 . S
C77 H107 0.979 . S
C77 H108 0.977 . S
C78 C65 1.684 . S
C78 H103 0.979 . S
C78 H104 0.980 . S
C78 H105 0.983 . S
C79 C80 1.391 . S
C79 C84 1.391 . S
C79 H109 0.948 . S
C80 C79 1.391 . S
C80 C81 1.391 . S
C81 C80 1.391 . S
C81 C82 1.392 . S
C81 H110 0.947 . S
C82 C81 1.392 . S
C82 C83 1.419 . S
C82 H111 0.948 . S
C83 C82 1.419 . S
C83 C84 1.391 . S
C83 C87 1.397 . S
C84 C79 1.391 . S
C84 C83 1.391 . S
C84 C85 1.399 . S
C85 C84 1.399 . S
C85 C86 1.396 . S
C85 C88 1.453 . S
C85 C89 1.684 . S
C86 C67 1.723 . S
C86 C85 1.396 . S
C86 C87 1.394 . S
C87 C83 1.397 . S
C87 C86 1.394 . S
C87 C97 1.723 . S
C88 C85 1.453 . S
C88 H112 0.982 . S
C88 H113 0.979 . S
C88 H114 0.977 . S
C89 C85 1.684 . S
C89 H115 0.979 . S
C89 H116 0.980 . S
C89 H117 0.983 . S
C90 H66 0.948 . S
C90 C91 1.391 . S
C90 C95 1.391 . S
C91 C90 1.391 . S
C91 C92 1.391 . S
C92 H69 0.947 . S
C92 C91 1.391 . S
C92 C93 1.392 . S
C93 H70 0.948 . S
C93 C92 1.392 . S
C93 C94 1.419 . S
C94 C93 1.419 . S
C94 C95 1.391 . S
C94 C98 1.397 . S
C95 C90 1.391 . S
C95 C94 1.391 . S
C95 C96 1.399 . S
C96 C95 1.399 . S
C96 C97 1.396 . S
C96 C99 1.453 . S
C96 C100 1.684 . S
C97 C87 1.723 . S
C97 C96 1.396 . S
C97 C98 1.394 . S
C98 C68 1.723 . S
C98 C94 1.397 . S
C98 C97 1.394 . S
C99 H71 0.982 . S
C99 H75 0.979 . S
C99 H76 0.977 . S
C99 C96 1.453 . S
C100 H72 0.979 . S
C100 H73 0.980 . S
C100 H74 0.983 . S
C100 C96 1.684 . S
H101 C119 0.948 . S
H102 C60 0.948 . S
H103 C78 0.979 . S
H104 C78 0.980 . S
H105 C78 0.983 . S
H106 C77 0.982 . S
H107 C77 0.979 . S
H108 C77 0.977 . S
H109 C79 0.948 . S
H110 C81 0.947 . S
H111 C82 0.948 . S
H112 C88 0.982 . S
H113 C88 0.979 . S
H114 C88 0.977 . S
H115 C89 0.979 . S
H116 C89 0.980 . S
H117 C89 0.983 . S
H118 C62 0.947 . S
C119 C62 1.392 . S
C119 C63 1.419 . S
C119 H101 0.948 . S
C120 C121 1.391 . S
C120 C124 1.391 . S
C120 H162 0.948 . S
C121 C120 1.391 . S
C121 C122 1.391 . S
C122 C121 1.391 . S
C122 H178 0.947 . S
C122 C179 1.392 . S
C123 C124 1.391 . S
C123 C127 1.397 . S
C123 C179 1.419 . S
C124 C120 1.391 . S
C124 C123 1.391 . S
C124 C125 1.399 . S
C125 C124 1.399 . S
C125 C128 1.396 . S
C125 C137 1.453 . S
C125 C138 1.684 . S
H126 C150 0.948 . S
C127 C123 1.397 . S
C127 C128 1.394 . S
C127 C146 1.723 . S
C128 C125 1.396 . S
C128 C127 1.394 . S
C128 C158 1.723 . S
H129 C152 0.947 . S
H130 C153 0.948 . S
H131 C159 0.982 . S
H132 C160 0.979 . S
H133 C160 0.980 . S
H134 C160 0.983 . S
H135 C159 0.979 . S
H136 C159 0.977 . S
C137 C125 1.453 . S
C137 H166 0.982 . S
C137 H167 0.979 . S
C137 H168 0.977 . S
C138 C125 1.684 . S
C138 H163 0.979 . S
C138 H164 0.980 . S
C138 H165 0.983 . S
C139 C140 1.391 . S
C139 C144 1.391 . S
C139 H169 0.948 . S
C140 C139 1.391 . S
C140 C141 1.391 . S
C141 C140 1.391 . S
C141 C142 1.392 . S
C141 H170 0.947 . S
C142 C141 1.392 . S
C142 C143 1.419 . S
C142 H171 0.948 . S
C143 C142 1.419 . S
C143 C144 1.391 . S
C143 C147 1.397 . S
C144 C139 1.391 . S
C144 C143 1.391 . S
C144 C145 1.399 . S
C145 C144 1.399 . S
C145 C146 1.396 . S
C145 C148 1.453 . S
C145 C149 1.684 . S
C146 C127 1.723 . S
C146 C145 1.396 . S
C146 C147 1.394 . S
C147 C143 1.397 . S
C147 C146 1.394 . S
C147 C157 1.723 . S
C148 C145 1.453 . S
C148 H172 0.982 . S
C148 H173 0.979 . S
C148 H174 0.977 . S
C149 C145 1.684 . S
C149 H175 0.979 . S
C149 H176 0.980 . S
C149 H177 0.983 . S
C150 H126 0.948 . S
C150 C151 1.391 . S
C150 C155 1.391 . S
C151 C150 1.391 . S
C151 C152 1.391 . S
C152 H129 0.947 . S
C152 C151 1.391 . S
C152 C153 1.392 . S
C153 H130 0.948 . S
C153 C152 1.392 . S
C153 C154 1.419 . S
C154 C153 1.419 . S
C154 C155 1.391 . S
C154 C158 1.397 . S
C155 C150 1.391 . S
C155 C154 1.391 . S
C155 C156 1.399 . S
C156 C155 1.399 . S
C156 C157 1.396 . S
C156 C159 1.453 . S
C156 C160 1.684 . S
C157 C147 1.723 . S
C157 C156 1.396 . S
C157 C158 1.394 . S
C158 C128 1.723 . S
C158 C154 1.397 . S
C158 C157 1.394 . S
C159 H131 0.982 . S
C159 H135 0.979 . S
C159 H136 0.977 . S
C159 C156 1.453 . S
C160 H132 0.979 . S
C160 H133 0.980 . S
C160 H134 0.983 . S
C160 C156 1.684 . S
H161 C179 0.948 . S
H162 C120 0.948 . S
H163 C138 0.979 . S
H164 C138 0.980 . S
H165 C138 0.983 . S
H166 C137 0.982 . S
H167 C137 0.979 . S
H168 C137 0.977 . S
H169 C139 0.948 . S
H170 C141 0.947 . S
H171 C142 0.948 . S
H172 C148 0.982 . S
H173 C148 0.979 . S
H174 C148 0.977 . S
H175 C149 0.979 . S
H176 C149 0.980 . S
H177 C149 0.983 . S
H178 C122 0.947 . S
C179 C122 1.392 . S
C179 C123 1.419 . S
C179 H161 0.948 . S
C180 C181 1.391 . S
C180 C184 1.391 . S
C180 H222 0.948 . S
C181 C180 1.391 . S
C181 C182 1.391 . S
C182 C181 1.391 . S
C182 H238 0.947 . S
C182 C239 1.392 . S
C183 C184 1.391 . S
C183 C187 1.397 . S
C183 C239 1.419 . S
C184 C180 1.391 . S
C184 C183 1.391 . S
C184 C185 1.399 . S
C185 C184 1.399 . S
C185 C188 1.396 . S
C185 C197 1.453 . S
C185 C198 1.684 . S
H186 C210 0.948 . S
C187 C183 1.397 . S
C187 C188 1.394 . S
C187 C206 1.723 . S
C188 C185 1.396 . S
C188 C187 1.394 . S
C188 C218 1.723 . S
H189 C212 0.947 . S
H190 C213 0.948 . S
H191 C219 0.982 . S
H192 C220 0.979 . S
H193 C220 0.980 . S
H194 C220 0.983 . S
H195 C219 0.979 . S
H196 C219 0.977 . S
C197 C185 1.453 . S
C197 H226 0.982 . S
C197 H227 0.979 . S
C197 H228 0.977 . S
C198 C185 1.684 . S
C198 H223 0.979 . S
C198 H224 0.980 . S
C198 H225 0.983 . S
C199 C200 1.391 . S
C199 C204 1.391 . S
C199 H229 0.948 . S
C200 C199 1.391 . S
C200 C201 1.391 . S
C201 C200 1.391 . S
C201 C202 1.392 . S
C201 H230 0.947 . S
C202 C201 1.392 . S
C202 C203 1.419 . S
C202 H231 0.948 . S
C203 C202 1.419 . S
C203 C204 1.391 . S
C203 C207 1.397 . S
C204 C199 1.391 . S
C204 C203 1.391 . S
C204 C205 1.399 . S
C205 C204 1.399 . S
C205 C206 1.396 . S
C205 C208 1.453 . S
C205 C209 1.684 . S
C206 C187 1.723 . S
C206 C205 1.396 . S
C206 C207 1.394 . S
C207 C203 1.397 . S
C207 C206 1.394 . S
C207 C217 1.723 . S
C208 C205 1.453 . S
C208 H232 0.982 . S
C208 H233 0.979 . S
C208 H234 0.977 . S
C209 C205 1.684 . S
C209 H235 0.979 . S
C209 H236 0.980 . S
C209 H237 0.983 . S
C210 H186 0.948 . S
C210 C211 1.391 . S
C210 C215 1.391 . S
C211 C210 1.391 . S
C211 C212 1.391 . S
C212 H189 0.947 . S
C212 C211 1.391 . S
C212 C213 1.392 . S
C213 H190 0.948 . S
C213 C212 1.392 . S
C213 C214 1.419 . S
C214 C213 1.419 . S
C214 C215 1.391 . S
C214 C218 1.397 . S
C215 C210 1.391 . S
C215 C214 1.391 . S
C215 C216 1.399 . S
C216 C215 1.399 . S
C216 C217 1.396 . S
C216 C219 1.453 . S
C216 C220 1.684 . S
C217 C207 1.723 . S
C217 C216 1.396 . S
C217 C218 1.394 . S
C218 C188 1.723 . S
C218 C214 1.397 . S
C218 C217 1.394 . S
C219 H191 0.982 . S
C219 H195 0.979 . S
C219 H196 0.977 . S
C219 C216 1.453 . S
C220 H192 0.979 . S
C220 H193 0.980 . S
C220 H194 0.983 . S
C220 C216 1.684 . S
H221 C239 0.948 . S
H222 C180 0.948 . S
H223 C198 0.979 . S
H224 C198 0.980 . S
H225 C198 0.983 . S
H226 C197 0.982 . S
H227 C197 0.979 . S
H228 C197 0.977 . S
H229 C199 0.948 . S
H230 C201 0.947 . S
H231 C202 0.948 . S
H232 C208 0.982 . S
H233 C208 0.979 . S
H234 C208 0.977 . S
H235 C209 0.979 . S
H236 C209 0.980 . S
H237 C209 0.983 . S
H238 C182 0.947 . S
C239 C182 1.392 . S
C239 C183 1.419 . S
C239 H221 0.948 . S
C240 C241 1.391 . S
C240 C244 1.391 . S
C240 H282 0.948 . S
C241 C240 1.391 . S
C241 C242 1.391 . S
C242 C241 1.391 . S
C242 H298 0.947 . S
C242 C299 1.392 . S
C243 C244 1.391 . S
C243 C247 1.397 . S
C243 C299 1.419 . S
C244 C240 1.391 . S
C244 C243 1.391 . S
C244 C245 1.399 . S
C245 C244 1.399 . S
C245 C248 1.396 . S
C245 C257 1.453 . S
C245 C258 1.684 . S
H246 C270 0.948 . S
C247 C243 1.397 . S
C247 C248 1.394 . S
C247 C266 1.723 . S
C248 C245 1.396 . S
C248 C247 1.394 . S
C248 C278 1.723 . S
H249 C272 0.947 . S
H250 C273 0.948 . S
H251 C279 0.982 . S
H252 C280 0.979 . S
H253 C280 0.980 . S
H254 C280 0.983 . S
H255 C279 0.979 . S
H256 C279 0.977 . S
C257 C245 1.453 . S
C257 H286 0.982 . S
C257 H287 0.979 . S
C257 H288 0.977 . S
C258 C245 1.684 . S
C258 H283 0.979 . S
C258 H284 0.980 . S
C258 H285 0.983 . S
C259 C260 1.391 . S
C259 C264 1.391 . S
C259 H289 0.948 . S
C260 C259 1.391 . S
C260 C261 1.391 . S
C261 C260 1.391 . S
C261 C262 1.392 . S
C261 H290 0.947 . S
C262 C261 1.392 . S
C262 C263 1.419 . S
C262 H291 0.948 . S
C263 C262 1.419 . S
C263 C264 1.391 . S
C263 C267 1.397 . S
C264 C259 1.391 . S
C264 C263 1.391 . S
C264 C265 1.399 . S
C265 C264 1.399 . S
C265 C266 1.396 . S
C265 C268 1.453 . S
C265 C269 1.684 . S
C266 C247 1.723 . S
C266 C265 1.396 . S
C266 C267 1.394 . S
C267 C263 1.397 . S
C267 C266 1.394 . S
C267 C277 1.723 . S
C268 C265 1.453 . S
C268 H292 0.982 . S
C268 H293 0.979 . S
C268 H294 0.977 . S
C269 C265 1.684 . S
C269 H295 0.979 . S
C269 H296 0.980 . S
C269 H297 0.983 . S
C270 H246 0.948 . S
C270 C271 1.391 . S
C270 C275 1.391 . S
C271 C270 1.391 . S
C271 C272 1.391 . S
C272 H249 0.947 . S
C272 C271 1.391 . S
C272 C273 1.392 . S
C273 H250 0.948 . S
C273 C272 1.392 . S
C273 C274 1.419 . S
C274 C273 1.419 . S
C274 C275 1.391 . S
C274 C278 1.397 . S
C275 C270 1.391 . S
C275 C274 1.391 . S
C275 C276 1.399 . S
C276 C275 1.399 . S
C276 C277 1.396 . S
C276 C279 1.453 . S
C276 C280 1.684 . S
C277 C267 1.723 . S
C277 C276 1.396 . S
C277 C278 1.394 . S
C278 C248 1.723 . S
C278 C274 1.397 . S
C278 C277 1.394 . S
C279 H251 0.982 . S
C279 H255 0.979 . S
C279 H256 0.977 . S
C279 C276 1.453 . S
C280 H252 0.979 . S
C280 H253 0.980 . S
C280 H254 0.983 . S
C280 C276 1.684 . S
H281 C299 0.948 . S
H282 C240 0.948 . S
H283 C258 0.979 . S
H284 C258 0.980 . S
H285 C258 0.983 . S
H286 C257 0.982 . S
H287 C257 0.979 . S
H288 C257 0.977 . S
H289 C259 0.948 . S
H290 C261 0.947 . S
H291 C262 0.948 . S
H292 C268 0.982 . S
H293 C268 0.979 . S
H294 C268 0.977 . S
H295 C269 0.979 . S
H296 C269 0.980 . S
H297 C269 0.983 . S
H298 C242 0.947 . S
C299 C242 1.392 . S
C299 C243 1.419 . S
C299 H281 0.948 . S
C300 C301 1.391 . S
C300 C304 1.391 . S
C300 H342 0.948 . S
C301 C300 1.391 . S
C301 C302 1.391 . S
C302 C301 1.391 . S
C302 H358 0.947 . S
C302 C359 1.392 . S
C303 C304 1.391 . S
C303 C307 1.397 . S
C303 C359 1.419 . S
C304 C300 1.391 . S
C304 C303 1.391 . S
C304 C305 1.399 . S
C305 C304 1.399 . S
C305 C308 1.396 . S
C305 C317 1.453 . S
C305 C318 1.684 . S
H306 C330 0.948 . S
C307 C303 1.397 . S
C307 C308 1.394 . S
C307 C326 1.723 . S
C308 C305 1.396 . S
C308 C307 1.394 . S
C308 C338 1.723 . S
H309 C332 0.947 . S
H310 C333 0.948 . S
H311 C339 0.982 . S
H312 C340 0.979 . S
H313 C340 0.980 . S
H314 C340 0.983 . S
H315 C339 0.979 . S
H316 C339 0.977 . S
C317 C305 1.453 . S
C317 H346 0.982 . S
C317 H347 0.979 . S
C317 H348 0.977 . S
C318 C305 1.684 . S
C318 H343 0.979 . S
C318 H344 0.980 . S
C318 H345 0.983 . S
C319 C320 1.391 . S
C319 C324 1.391 . S
C319 H349 0.948 . S
C320 C319 1.391 . S
C320 C321 1.391 . S
C321 C320 1.391 . S
C321 C322 1.392 . S
C321 H350 0.947 . S
C322 C321 1.392 . S
C322 C323 1.419 . S
C322 H351 0.948 . S
C323 C322 1.419 . S
C323 C324 1.391 . S
C323 C327 1.397 . S
C324 C319 1.391 . S
C324 C323 1.391 . S
C324 C325 1.399 . S
C325 C324 1.399 . S
C325 C326 1.396 . S
C325 C328 1.453 . S
C325 C329 1.684 . S
C326 C307 1.723 . S
C326 C325 1.396 . S
C326 C327 1.394 . S
C327 C323 1.397 . S
C327 C326 1.394 . S
C327 C337 1.723 . S
C328 C325 1.453 . S
C328 H352 0.982 . S
C328 H353 0.979 . S
C328 H354 0.977 . S
C329 C325 1.684 . S
C329 H355 0.979 . S
C329 H356 0.980 . S
C329 H357 0.983 . S
C330 H306 0.948 . S
C330 C331 1.391 . S
C330 C335 1.391 . S
C331 C330 1.391 . S
C331 C332 1.391 . S
C332 H309 0.947 . S
C332 C331 1.391 . S
C332 C333 1.392 . S
C333 H310 0.948 . S
C333 C332 1.392 . S
C333 C334 1.419 . S
C334 C333 1.419 . S
C334 C335 1.391 . S
C334 C338 1.397 . S
C335 C330 1.391 . S
C335 C334 1.391 . S
C335 C336 1.399 . S
C336 C335 1.399 . S
C336 C337 1.396 . S
C336 C339 1.453 . S
C336 C340 1.684 . S
C337 C327 1.723 . S
C337 C336 1.396 . S
C337 C338 1.394 . S
C338 C308 1.723 . S
C338 C334 1.397 . S
C338 C337 1.394 . S
C339 H311 0.982 . S
C339 H315 0.979 . S
C339 H316 0.977 . S
C339 C336 1.453 . S
C340 H312 0.979 . S
C340 H313 0.980 . S
C340 H314 0.983 . S
C340 C336 1.684 . S
H341 C359 0.948 . S
H342 C300 0.948 . S
H343 C318 0.979 . S
H344 C318 0.980 . S
H345 C318 0.983 . S
H346 C317 0.982 . S
H347 C317 0.979 . S
H348 C317 0.977 . S
H349 C319 0.948 . S
H350 C321 0.947 . S
H351 C322 0.948 . S
H352 C328 0.982 . S
H353 C328 0.979 . S
H354 C328 0.977 . S
H355 C329 0.979 . S
H356 C329 0.980 . S
H357 C329 0.983 . S
H358 C302 0.947 . S
C359 C302 1.392 . S
C359 C303 1.419 . S
C359 H341 0.948 . S
C360 C361 1.391 . S
C360 C364 1.391 . S
C360 H402 0.948 . S
C361 C360 1.391 . S
C361 C362 1.391 . S
C362 C361 1.391 . S
C362 H418 0.947 . S
C362 C419 1.392 . S
C363 C364 1.391 . S
C363 C367 1.397 . S
C363 C419 1.419 . S
C364 C360 1.391 . S
C364 C363 1.391 . S
C364 C365 1.399 . S
C365 C364 1.399 . S
C365 C368 1.396 . S
C365 C377 1.453 . S
C365 C378 1.684 . S
H366 C390 0.948 . S
C367 C363 1.397 . S
C367 C368 1.394 . S
C367 C386 1.723 . S
C368 C365 1.396 . S
C368 C367 1.394 . S
C368 C398 1.723 . S
H369 C392 0.947 . S
H370 C393 0.948 . S
H371 C399 0.982 . S
H372 C400 0.979 . S
H373 C400 0.980 . S
H374 C400 0.983 . S
H375 C399 0.979 . S
H376 C399 0.977 . S
C377 C365 1.453 . S
C377 H406 0.982 . S
C377 H407 0.979 . S
C377 H408 0.977 . S
C378 C365 1.684 . S
C378 H403 0.979 . S
C378 H404 0.980 . S
C378 H405 0.983 . S
C379 C380 1.391 . S
C379 C384 1.391 . S
C379 H409 0.948 . S
C380 C379 1.391 . S
C380 C381 1.391 . S
C381 C380 1.391 . S
C381 C382 1.392 . S
C381 H410 0.947 . S
C382 C381 1.392 . S
C382 C383 1.419 . S
C382 H411 0.948 . S
C383 C382 1.419 . S
C383 C384 1.391 . S
C383 C387 1.397 . S
C384 C379 1.391 . S
C384 C383 1.391 . S
C384 C385 1.399 . S
C385 C384 1.399 . S
C385 C386 1.396 . S
C385 C388 1.453 . S
C385 C389 1.684 . S
C386 C367 1.723 . S
C386 C385 1.396 . S
C386 C387 1.394 . S
C387 C383 1.397 . S
C387 C386 1.394 . S
C387 C397 1.723 . S
C388 C385 1.453 . S
C388 H412 0.982 . S
C388 H413 0.979 . S
C388 H414 0.977 . S
C389 C385 1.684 . S
C389 H415 0.979 . S
C389 H416 0.980 . S
C389 H417 0.983 . S
C390 H366 0.948 . S
C390 C391 1.391 . S
C390 C395 1.391 . S
C391 C390 1.391 . S
C391 C392 1.391 . S
C392 H369 0.947 . S
C392 C391 1.391 . S
C392 C393 1.392 . S
C393 H370 0.948 . S
C393 C392 1.392 . S
C393 C394 1.419 . S
C394 C393 1.419 . S
C394 C395 1.391 . S
C394 C398 1.397 . S
C395 C390 1.391 . S
C395 C394 1.391 . S
C395 C396 1.399 . S
C396 C395 1.399 . S
C396 C397 1.396 . S
C396 C399 1.453 . S
C396 C400 1.684 . S
C397 C387 1.723 . S
C397 C396 1.396 . S
C397 C398 1.394 . S
C398 C368 1.723 . S
C398 C394 1.397 . S
C398 C397 1.394 . S
C399 H371 0.982 . S
C399 H375 0.979 . S
C399 H376 0.977 . S
C399 C396 1.453 . S
C400 H372 0.979 . S
C400 H373 0.980 . S
C400 H374 0.983 . S
C400 C396 1.684 . S
H401 C419 0.948 . S
H402 C360 0.948 . S
H403 C378 0.979 . S
H404 C378 0.980 . S
H405 C378 0.983 . S
H406 C377 0.982 . S
H407 C377 0.979 . S
H408 C377 0.977 . S
H409 C379 0.948 . S
H410 C381 0.947 . S
H411 C382 0.948 . S
H412 C388 0.982 . S
H413 C388 0.979 . S
H414 C388 0.977 . S
H415 C389 0.979 . S
H416 C389 0.980 . S
H417 C389 0.983 . S
H418 C362 0.947 . S
C419 C362 1.392 . S
C419 C363 1.419 . S
C419 H401 0.948 . S
C420 C421 1.391 . S
C420 C424 1.391 . S
C420 H462 0.948 . S
C421 C420 1.391 . S
C421 C422 1.391 . S
C422 C421 1.391 . S
C422 H478 0.947 . S
C422 C479 1.392 . S
C423 C424 1.391 . S
C423 C427 1.397 . S
C423 C479 1.419 . S
C424 C420 1.391 . S
C424 C423 1.391 . S
C424 C425 1.399 . S
C425 C424 1.399 . S
C425 C428 1.396 . S
C425 C437 1.453 . S
C425 C438 1.684 . S
H426 C450 0.948 . S
C427 C423 1.397 . S
C427 C428 1.394 . S
C427 C446 1.723 . S
C428 C425 1.396 . S
C428 C427 1.394 . S
C428 C458 1.723 . S
H429 C452 0.947 . S
H430 C453 0.948 . S
H431 C459 0.982 . S
H432 C460 0.979 . S
H433 C460 0.980 . S
H434 C460 0.983 . S
H435 C459 0.979 . S
H436 C459 0.977 . S
C437 C425 1.453 . S
C437 H466 0.982 . S
C437 H467 0.979 . S
C437 H468 0.977 . S
C438 C425 1.684 . S
C438 H463 0.979 . S
C438 H464 0.980 . S
C438 H465 0.983 . S
C439 C440 1.391 . S
C439 C444 1.391 . S
C439 H469 0.948 . S
C440 C439 1.391 . S
C440 C441 1.391 . S
C441 C440 1.391 . S
C441 C442 1.392 . S
C441 H470 0.947 . S
C442 C441 1.392 . S
C442 C443 1.419 . S
C442 H471 0.948 . S
C443 C442 1.419 . S
C443 C444 1.391 . S
C443 C447 1.397 . S
C444 C439 1.391 . S
C444 C443 1.391 . S
C444 C445 1.399 . S
C445 C444 1.399 . S
C445 C446 1.396 . S
C445 C448 1.453 . S
C445 C449 1.684 . S
C446 C427 1.723 . S
C446 C445 1.396 . S
C446 C447 1.394 . S
C447 C443 1.397 . S
C447 C446 1.394 . S
C447 C457 1.723 . S
C448 C445 1.453 . S
C448 H472 0.982 . S
C448 H473 0.979 . S
C448 H474 0.977 . S
C449 C445 1.684 . S
C449 H475 0.979 . S
C449 H476 0.980 . S
C449 H477 0.983 . S
C450 H426 0.948 . S
C450 C451 1.391 . S
C450 C455 1.391 . S
C451 C450 1.391 . S
C451 C452 1.391 . S
C452 H429 0.947 . S
C452 C451 1.391 . S
C452 C453 1.392 . S
C453 H430 0.948 . S
C453 C452 1.392 . S
C453 C454 1.419 . S
C454 C453 1.419 . S
C454 C455 1.391 . S
C454 C458 1.397 . S
C455 C450 1.391 . S
C455 C454 1.391 . S
C455 C456 1.399 . S
C456 C455 1.399 . S
C456 C457 1.396 . S
C456 C459 1.453 . S
C456 C460 1.684 . S
C457 C447 1.723 . S
C457 C456 1.396 . S
C457 C458 1.394 . S
C458 C428 1.723 . S
C458 C454 1.397 . S
C458 C457 1.394 . S
C459 H431 0.982 . S
C459 H435 0.979 . S
C459 H436 0.977 . S
C459 C456 1.453 . S
C460 H432 0.979 . S
C460 H433 0.980 . S
C460 H434 0.983 . S
C460 C456 1.684 . S
H461 C479 0.948 . S
H462 C420 0.948 . S
H463 C438 0.979 . S
H464 C438 0.980 . S
H465 C438 0.983 . S
H466 C437 0.982 . S
H467 C437 0.979 . S
H468 C437 0.977 . S
H469 C439 0.948 . S
H470 C441 0.947 . S
H471 C442 0.948 . S
H472 C448 0.982 . S
H473 C448 0.979 . S
H474 C448 0.977 . S
H475 C449 0.979 . S
H476 C449 0.980 . S
H477 C449 0.983 . S
H478 C422 0.947 . S
C479 C422 1.392 . S
C479 C423 1.419 . S
C479 H461 0.948 . S
Gd480 C483 2.818 . S
Gd480 O500 2.377 . S
Gd480 O502 2.448 . S
Gd480 O503 2.506 . S
Gd480 O504 2.435 1_545 S
Gd480 O505 2.717 1_545 S
Gd480 O507 2.395 1_445 S
Gd480 O511 2.327 1_455 S
Gd481 C492 2.818 . S
Gd481 O501 2.395 1_665 S
Gd481 O505 2.327 1_655 S
Gd481 O506 2.377 . S
Gd481 O508 2.448 . S
Gd481 O509 2.506 . S
Gd481 O510 2.435 1_565 S
Gd481 O511 2.717 1_565 S
C482 O500 1.240 . S
C482 O501 1.240 . S
C483 Gd480 2.818 . S
C483 C484 1.510 . S
C483 O502 1.249 . S
C483 O503 1.252 . S
C484 C483 1.510 . S
C484 C485 1.404 . S
C484 C486 1.352 . S
C485 C484 1.404 . S
C485 C489 1.389 . S
C485 H512 0.930 . S
C486 C484 1.352 . S
C486 C488 1.374 . S
C486 H513 0.931 . S
C487 C488 1.359 . S
C487 C489 1.364 . S
C488 C486 1.374 . S
C488 C487 1.359 . S
C488 H514 0.931 . S
C489 C485 1.389 . S
C489 C487 1.364 . S
C489 H515 0.931 . S
C490 O504 1.256 . S
C490 O505 1.257 . S
C491 O506 1.240 . S
C491 O507 1.240 . S
C492 Gd481 2.818 . S
C492 C493 1.510 . S
C492 O508 1.249 . S
C492 O509 1.252 . S
C493 C492 1.510 . S
C493 C494 1.404 . S
C493 C495 1.352 . S
C494 C493 1.404 . S
C494 C498 1.389 . S
C494 H516 0.930 . S
C495 C493 1.352 . S
C495 C497 1.374 . S
C495 H517 0.931 . S
C496 C497 1.359 . S
C496 C498 1.364 . S
C497 C495 1.374 . S
C497 C496 1.359 . S
C497 H518 0.931 . S
C498 C494 1.389 . S
C498 C496 1.364 . S
C498 H519 0.931 . S
C499 O510 1.256 . S
C499 O511 1.257 . S
O500 Gd480 2.377 . S
O500 C482 1.240 . S
O501 Gd481 2.395 1_445 S
O501 C482 1.240 . S
O502 Gd480 2.448 . S
O502 C483 1.249 . S
O503 Gd480 2.506 . S
O503 C483 1.252 . S
O504 Gd480 2.435 1_565 S
O504 C490 1.256 . S
O505 Gd480 2.717 1_565 S
O505 Gd481 2.327 1_455 S
O505 C490 1.257 . S
O506 Gd481 2.377 . S
O506 C491 1.240 . S
O507 Gd480 2.395 1_665 S
O507 C491 1.240 . S
O508 Gd481 2.448 . S
O508 C492 1.249 . S
O509 Gd481 2.506 . S
O509 C492 1.252 . S
O510 Gd481 2.435 1_545 S
O510 C499 1.256 . S
O511 Gd480 2.327 1_655 S
O511 Gd481 2.717 1_545 S
O511 C499 1.257 . S
H512 C485 0.930 . S
H513 C486 0.931 . S
H514 C488 0.931 . S
H515 C489 0.931 . S
H516 C494 0.930 . S
H517 C495 0.931 . S
H518 C497 0.931 . S
H519 C498 0.931 . S
Gd520 C523 2.818 1_565 S
Gd520 O540 2.377 1_565 S
Gd520 O542 2.448 1_565 S
Gd520 O543 2.506 1_565 S
Gd520 O544 2.435 . S
Gd520 O545 2.717 . S
Gd520 O547 2.395 1_554 S
Gd520 O551 2.327 1_564 S
Gd521 C532 2.818 1_545 S
Gd521 O541 2.395 1_556 S
Gd521 O545 2.327 1_546 S
Gd521 O546 2.377 1_545 S
Gd521 O548 2.448 1_545 S
Gd521 O549 2.506 1_545 S
Gd521 O550 2.435 . S
Gd521 O551 2.717 . S
C522 O540 1.240 . S
C522 O541 1.240 . S
C523 Gd520 2.818 1_545 S
C523 C524 1.510 . S
C523 O542 1.249 . S
C523 O543 1.252 . S
C524 C523 1.510 . S
C524 C525 1.404 . S
C524 C526 1.352 . S
C525 C524 1.404 . S
C525 C529 1.389 . S
C525 H552 0.930 . S
C526 C524 1.352 . S
C526 C528 1.374 . S
C526 H553 0.931 . S
C527 C528 1.359 . S
C527 C529 1.364 . S
C528 C526 1.374 . S
C528 C527 1.359 . S
C528 H554 0.931 . S
C529 C525 1.389 . S
C529 C527 1.364 . S
C529 H555 0.931 . S
C530 O544 1.256 . S
C530 O545 1.257 . S
C531 O546 1.240 . S
C531 O547 1.240 . S
C532 Gd521 2.818 1_565 S
C532 C533 1.510 . S
C532 O548 1.249 . S
C532 O549 1.252 . S
C533 C532 1.510 . S
C533 C534 1.404 . S
C533 C535 1.352 . S
C534 C533 1.404 . S
C534 C538 1.389 . S
C534 H556 0.930 . S
C535 C533 1.352 . S
C535 C537 1.374 . S
C535 H557 0.931 . S
C536 C537 1.359 . S
C536 C538 1.364 . S
C537 C535 1.374 . S
C537 C536 1.359 . S
C537 H558 0.931 . S
C538 C534 1.389 . S
C538 C536 1.364 . S
C538 H559 0.931 . S
C539 O550 1.256 . S
C539 O551 1.257 . S
O540 Gd520 2.377 1_545 S
O540 C522 1.240 . S
O541 Gd521 2.395 1_554 S
O541 C522 1.240 . S
O542 Gd520 2.448 1_545 S
O542 C523 1.249 . S
O543 Gd520 2.506 1_545 S
O543 C523 1.252 . S
O544 Gd520 2.435 . S
O544 C530 1.256 . S
O545 Gd520 2.717 . S
O545 Gd521 2.327 1_564 S
O545 C530 1.257 . S
O546 Gd521 2.377 1_565 S
O546 C531 1.240 . S
O547 Gd520 2.395 1_556 S
O547 C531 1.240 . S
O548 Gd521 2.448 1_565 S
O548 C532 1.249 . S
O549 Gd521 2.506 1_565 S
O549 C532 1.252 . S
O550 Gd521 2.435 . S
O550 C539 1.256 . S
O551 Gd520 2.327 1_546 S
O551 Gd521 2.717 . S
O551 C539 1.257 . S
H552 C525 0.930 . S
H553 C526 0.931 . S
H554 C528 0.931 . S
H555 C529 0.931 . S
H556 C534 0.930 . S
H557 C535 0.931 . S
H558 C537 0.931 . S
H559 C538 0.931 . S
Gd560 C563 2.818 . S
Gd560 O580 2.377 . S
Gd560 O582 2.448 . S
Gd560 O583 2.506 . S
Gd560 O584 2.435 . S
Gd560 O585 2.717 . S
Gd560 O587 2.395 . S
Gd560 O591 2.327 . S
Gd561 C572 2.818 . S
Gd561 O581 2.395 . S
Gd561 O585 2.327 . S
Gd561 O586 2.377 . S
Gd561 O588 2.448 . S
Gd561 O589 2.506 . S
Gd561 O590 2.435 . S
Gd561 O591 2.717 . S
C562 O580 1.240 . S
C562 O581 1.240 . S
C563 Gd560 2.818 . S
C563 C564 1.510 . S
C563 O582 1.249 . S
C563 O583 1.252 . S
C564 C563 1.510 . S
C564 C565 1.404 . S
C564 C566 1.352 . S
C565 C564 1.404 . S
C565 C569 1.389 . S
C565 H592 0.930 . S
C566 C564 1.352 . S
C566 C568 1.374 . S
C566 H593 0.931 . S
C567 C568 1.359 . S
C567 C569 1.364 . S
C568 C566 1.374 . S
C568 C567 1.359 . S
C568 H594 0.931 . S
C569 C565 1.389 . S
C569 C567 1.364 . S
C569 H595 0.931 . S
C570 O584 1.256 . S
C570 O585 1.257 . S
C571 O586 1.240 . S
C571 O587 1.240 . S
C572 Gd561 2.818 . S
C572 C573 1.510 . S
C572 O588 1.249 . S
C572 O589 1.252 . S
C573 C572 1.510 . S
C573 C574 1.404 . S
C573 C575 1.352 . S
C574 C573 1.404 . S
C574 C578 1.389 . S
C574 H596 0.930 . S
C575 C573 1.352 . S
C575 C577 1.374 . S
C575 H597 0.931 . S
C576 C577 1.359 . S
C576 C578 1.364 . S
C577 C575 1.374 . S
C577 C576 1.359 . S
C577 H598 0.931 . S
C578 C574 1.389 . S
C578 C576 1.364 . S
C578 H599 0.931 . S
C579 O590 1.256 . S
C579 O591 1.257 . S
O580 Gd560 2.377 . S
O580 C562 1.240 . S
O581 Gd561 2.395 . S
O581 C562 1.240 . S
O582 Gd560 2.448 . S
O582 C563 1.249 . S
O583 Gd560 2.506 . S
O583 C563 1.252 . S
O584 Gd560 2.435 . S
O584 C570 1.256 . S
O585 Gd560 2.717 . S
O585 Gd561 2.327 . S
O585 C570 1.257 . S
O586 Gd561 2.377 . S
O586 C571 1.240 . S
O587 Gd560 2.395 . S
O587 C571 1.240 . S
O588 Gd561 2.448 . S
O588 C572 1.249 . S
O589 Gd561 2.506 . S
O589 C572 1.252 . S
O590 Gd561 2.435 . S
O590 C579 1.256 . S
O591 Gd560 2.327 . S
O591 Gd561 2.717 . S
O591 C579 1.257 . S
H592 C565 0.930 . S
H593 C566 0.931 . S
H594 C568 0.931 . S
H595 C569 0.931 . S
H596 C574 0.930 . S
H597 C575 0.931 . S
H598 C577 0.931 . S
H599 C578 0.931 . S
Gd600 C603 2.818 . S
Gd600 O620 2.377 . S
Gd600 O622 2.448 . S
Gd600 O623 2.506 . S
Gd600 O624 2.435 1_455 S
Gd600 O625 2.717 1_455 S
Gd600 O627 2.395 1_454 S
Gd600 O631 2.327 1_554 S
Gd601 C612 2.818 . S
Gd601 O621 2.395 1_656 S
Gd601 O625 2.327 1_556 S
Gd601 O626 2.377 . S
Gd601 O628 2.448 . S
Gd601 O629 2.506 . S
Gd601 O630 2.435 1_655 S
Gd601 O631 2.717 1_655 S
C602 O620 1.240 . S
C602 O621 1.240 . S
C603 Gd600 2.818 . S
C603 C604 1.510 . S
C603 O622 1.249 . S
C603 O623 1.252 . S
C604 C603 1.510 . S
C604 C605 1.404 . S
C604 C606 1.352 . S
C605 C604 1.404 . S
C605 C609 1.389 . S
C605 H632 0.930 . S
C606 C604 1.352 . S
C606 C608 1.374 . S
C606 H633 0.931 . S
C607 C608 1.359 . S
C607 C609 1.364 . S
C608 C606 1.374 . S
C608 C607 1.359 . S
C608 H634 0.931 . S
C609 C605 1.389 . S
C609 C607 1.364 . S
C609 H635 0.931 . S
C610 O624 1.256 . S
C610 O625 1.257 . S
C611 O626 1.240 . S
C611 O627 1.240 . S
C612 Gd601 2.818 . S
C612 C613 1.510 . S
C612 O628 1.249 . S
C612 O629 1.252 . S
C613 C612 1.510 . S
C613 C614 1.404 . S
C613 C615 1.352 . S
C614 C613 1.404 . S
C614 C618 1.389 . S
C614 H636 0.930 . S
C615 C613 1.352 . S
C615 C617 1.374 . S
C615 H637 0.931 . S
C616 C617 1.359 . S
C616 C618 1.364 . S
C617 C615 1.374 . S
C617 C616 1.359 . S
C617 H638 0.931 . S
C618 C614 1.389 . S
C618 C616 1.364 . S
C618 H639 0.931 . S
C619 O630 1.256 . S
C619 O631 1.257 . S
O620 Gd600 2.377 . S
O620 C602 1.240 . S
O621 Gd601 2.395 1_454 S
O621 C602 1.240 . S
O622 Gd600 2.448 . S
O622 C603 1.249 . S
O623 Gd600 2.506 . S
O623 C603 1.252 . S
O624 Gd600 2.435 1_655 S
O624 C610 1.256 . S
O625 Gd600 2.717 1_655 S
O625 Gd601 2.327 1_554 S
O625 C610 1.257 . S
O626 Gd601 2.377 . S
O626 C611 1.240 . S
O627 Gd600 2.395 1_656 S
O627 C611 1.240 . S
O628 Gd601 2.448 . S
O628 C612 1.249 . S
O629 Gd601 2.506 . S
O629 C612 1.252 . S
O630 Gd601 2.435 1_455 S
O630 C619 1.256 . S
O631 Gd600 2.327 1_556 S
O631 Gd601 2.717 1_455 S
O631 C619 1.257 . S
H632 C605 0.930 . S
H633 C606 0.931 . S
H634 C608 0.931 . S
H635 C609 0.931 . S
H636 C614 0.930 . S
H637 C615 0.931 . S
H638 C617 0.931 . S
H639 C618 0.931 . S
H640 C646 0.930 . S
H641 C649 0.930 . S
H642 C650 0.930 . S
H643 C651 0.930 . S
H644 C654 0.930 . S
H645 C655 0.930 . S
C646 H640 0.930 . S
C646 C647 1.355 . S
C646 C648 1.415 . S
C647 C646 1.355 . S
C647 C649 1.419 . S
C648 C646 1.415 . S
C648 C653 1.425 . S
C648 C655 1.409 . S
C649 H641 0.930 . S
C649 C647 1.419 . S
C649 C650 1.362 . S
C650 H642 0.930 . S
C650 C649 1.362 . S
C650 C653 1.409 . S
C651 H643 0.930 . S
C651 C652 1.355 . S
C651 C653 1.415 . S
C652 C651 1.355 . S
C652 C654 1.419 . S
C653 C648 1.425 . S
C653 C650 1.409 . S
C653 C651 1.415 . S
C654 H644 0.930 . S
C654 C652 1.419 . S
C654 C655 1.362 . S
C655 H645 0.930 . S
C655 C648 1.409 . S
C655 C654 1.362 . S
H656 C662 0.930 . S
H657 C665 0.930 . S
H658 C666 0.930 . S
H659 C667 0.930 . S
H660 C670 0.930 . S
H661 C671 0.930 . S
C662 H656 0.930 . S
C662 C663 1.355 . S
C662 C664 1.415 . S
C663 C662 1.355 . S
C663 C665 1.419 . S
C664 C662 1.415 . S
C664 C669 1.425 . S
C664 C671 1.409 . S
C665 H657 0.930 . S
C665 C663 1.419 . S
C665 C666 1.362 . S
C666 H658 0.930 . S
C666 C665 1.362 . S
C666 C669 1.409 . S
C667 H659 0.930 . S
C667 C668 1.355 . S
C667 C669 1.415 . S
C668 C667 1.355 . S
C668 C670 1.419 . S
C669 C664 1.425 . S
C669 C666 1.409 . S
C669 C667 1.415 . S
C670 H660 0.930 . S
C670 C668 1.419 . S
C670 C671 1.362 . S
C671 H661 0.930 . S
C671 C664 1.409 . S
C671 C670 1.362 . S
H672 C678 0.930 . S
H673 C681 0.930 . S
H674 C682 0.930 . S
H675 C683 0.930 . S
H676 C686 0.930 . S
H677 C687 0.930 . S
C678 H672 0.930 . S
C678 C679 1.355 . S
C678 C680 1.415 . S
C679 C678 1.355 . S
C679 C681 1.419 . S
C680 C678 1.415 . S
C680 C685 1.425 . S
C680 C687 1.409 . S
C681 H673 0.930 . S
C681 C679 1.419 . S
C681 C682 1.362 . S
C682 H674 0.930 . S
C682 C681 1.362 . S
C682 C685 1.409 . S
C683 H675 0.930 . S
C683 C684 1.355 . S
C683 C685 1.415 . S
C684 C683 1.355 . S
C684 C686 1.419 . S
C685 C680 1.425 . S
C685 C682 1.409 . S
C685 C683 1.415 . S
C686 H676 0.930 . S
C686 C684 1.419 . S
C686 C687 1.362 . S
C687 H677 0.930 . S
C687 C680 1.409 . S
C687 C686 1.362 . S
H688 C694 0.930 . S
H689 C697 0.930 . S
H690 C698 0.930 . S
H691 C699 0.930 . S
H692 C702 0.930 . S
H693 C703 0.930 . S
C694 H688 0.930 . S
C694 C695 1.355 . S
C694 C696 1.415 . S
C695 C694 1.355 . S
C695 C697 1.419 . S
C696 C694 1.415 . S
C696 C701 1.425 . S
C696 C703 1.409 . S
C697 H689 0.930 . S
C697 C695 1.419 . S
C697 C698 1.362 . S
C698 H690 0.930 . S
C698 C697 1.362 . S
C698 C701 1.409 . S
C699 H691 0.930 . S
C699 C700 1.355 . S
C699 C701 1.415 . S
C700 C699 1.355 . S
C700 C702 1.419 . S
C701 C696 1.425 . S
C701 C698 1.409 . S
C701 C699 1.415 . S
C702 H692 0.930 . S
C702 C700 1.419 . S
C702 C703 1.362 . S
C703 H693 0.930 . S
C703 C696 1.409 . S
C703 C702 1.362 . S
H704 C710 0.930 . S
H705 C713 0.930 . S
H706 C714 0.930 . S
H707 C715 0.930 . S
H708 C718 0.930 . S
H709 C719 0.930 . S
C710 H704 0.930 . S
C710 C711 1.355 . S
C710 C712 1.415 . S
C711 C710 1.355 . S
C711 C713 1.419 . S
C712 C710 1.415 . S
C712 C717 1.425 . S
C712 C719 1.409 . S
C713 H705 0.930 . S
C713 C711 1.419 . S
C713 C714 1.362 . S
C714 H706 0.930 . S
C714 C713 1.362 . S
C714 C717 1.409 . S
C715 H707 0.930 . S
C715 C716 1.355 . S
C715 C717 1.415 . S
C716 C715 1.355 . S
C716 C718 1.419 . S
C717 C712 1.425 . S
C717 C714 1.409 . S
C717 C715 1.415 . S
C718 H708 0.930 . S
C718 C716 1.419 . S
C718 C719 1.362 . S
C719 H709 0.930 . S
C719 C712 1.409 . S
C719 C718 1.362 . S
H720 C726 0.930 . S
H721 C729 0.930 . S
H722 C730 0.930 . S
H723 C731 0.930 . S
H724 C734 0.930 . S
H725 C735 0.930 . S
C726 H720 0.930 . S
C726 C727 1.355 . S
C726 C728 1.415 . S
C727 C726 1.355 . S
C727 C729 1.419 . S
C728 C726 1.415 . S
C728 C733 1.425 . S
C728 C735 1.409 . S
C729 H721 0.930 . S
C729 C727 1.419 . S
C729 C730 1.362 . S
C730 H722 0.930 . S
C730 C729 1.362 . S
C730 C733 1.409 . S
C731 H723 0.930 . S
C731 C732 1.355 . S
C731 C733 1.415 . S
C732 C731 1.355 . S
C732 C734 1.419 . S
C733 C728 1.425 . S
C733 C730 1.409 . S
C733 C731 1.415 . S
C734 H724 0.930 . S
C734 C732 1.419 . S
C734 C735 1.362 . S
C735 H725 0.930 . S
C735 C728 1.409 . S
C735 C734 1.362 . S
H736 C742 0.930 . S
H737 C745 0.930 . S
H738 C746 0.930 . S
H739 C747 0.930 . S
H740 C750 0.930 . S
H741 C751 0.930 . S
C742 H736 0.930 . S
C742 C743 1.355 . S
C742 C744 1.415 . S
C743 C742 1.355 . S
C743 C745 1.419 . S
C744 C742 1.415 . S
C744 C749 1.425 . S
C744 C751 1.409 . S
C745 H737 0.930 . S
C745 C743 1.419 . S
C745 C746 1.362 . S
C746 H738 0.930 . S
C746 C745 1.362 . S
C746 C749 1.409 . S
C747 H739 0.930 . S
C747 C748 1.355 . S
C747 C749 1.415 . S
C748 C747 1.355 . S
C748 C750 1.419 . S
C749 C744 1.425 . S
C749 C746 1.409 . S
C749 C747 1.415 . S
C750 H740 0.930 . S
C750 C748 1.419 . S
C750 C751 1.362 . S
C751 H741 0.930 . S
C751 C744 1.409 . S
C751 C750 1.362 . S
H752 C758 0.930 . S
H753 C761 0.930 . S
H754 C762 0.930 . S
H755 C763 0.930 . S
H756 C766 0.930 . S
H757 C767 0.930 . S
C758 H752 0.930 . S
C758 C759 1.355 . S
C758 C760 1.415 . S
C759 C758 1.355 . S
C759 C761 1.419 . S
C760 C758 1.415 . S
C760 C765 1.425 . S
C760 C767 1.409 . S
C761 H753 0.930 . S
C761 C759 1.419 . S
C761 C762 1.362 . S
C762 H754 0.930 . S
C762 C761 1.362 . S
C762 C765 1.409 . S
C763 H755 0.930 . S
C763 C764 1.355 . S
C763 C765 1.415 . S
C764 C763 1.355 . S
C764 C766 1.419 . S
C765 C760 1.425 . S
C765 C762 1.409 . S
C765 C763 1.415 . S
C766 H756 0.930 . S
C766 C764 1.419 . S
C766 C767 1.362 . S
C767 H757 0.930 . S
C767 C760 1.409 . S
C767 C766 1.362 . S
H768 C774 0.930 . S
H769 C777 0.930 . S
H770 C778 0.930 . S
H771 C779 0.930 . S
H772 C782 0.930 . S
H773 C783 0.930 . S
C774 H768 0.930 . S
C774 C775 1.355 . S
C774 C776 1.415 . S
C775 C774 1.355 . S
C775 C777 1.419 . S
C776 C774 1.415 . S
C776 C781 1.425 . S
C776 C783 1.409 . S
C777 H769 0.930 . S
C777 C775 1.419 . S
C777 C778 1.362 . S
C778 H770 0.930 . S
C778 C777 1.362 . S
C778 C781 1.409 . S
C779 H771 0.930 . S
C779 C780 1.355 . S
C779 C781 1.415 . S
C780 C779 1.355 . S
C780 C782 1.419 . S
C781 C776 1.425 . S
C781 C778 1.409 . S
C781 C779 1.415 . S
C782 H772 0.930 . S
C782 C780 1.419 . S
C782 C783 1.362 . S
C783 H773 0.930 . S
C783 C776 1.409 . S
C783 C782 1.362 . S
H784 C790 0.930 . S
H785 C793 0.930 . S
H786 C794 0.930 . S
H787 C795 0.930 . S
H788 C798 0.930 . S
H789 C799 0.930 . S
C790 H784 0.930 . S
C790 C791 1.355 . S
C790 C792 1.415 . S
C791 C790 1.355 . S
C791 C793 1.419 . S
C792 C790 1.415 . S
C792 C797 1.425 . S
C792 C799 1.409 . S
C793 H785 0.930 . S
C793 C791 1.419 . S
C793 C794 1.362 . S
C794 H786 0.930 . S
C794 C793 1.362 . S
C794 C797 1.409 . S
C795 H787 0.930 . S
C795 C796 1.355 . S
C795 C797 1.415 . S
C796 C795 1.355 . S
C796 C798 1.419 . S
C797 C792 1.425 . S
C797 C794 1.409 . S
C797 C795 1.415 . S
C798 H788 0.930 . S
C798 C796 1.419 . S
C798 C799 1.362 . S
C799 H789 0.930 . S
C799 C792 1.409 . S
C799 C798 1.362 . S
H800 C806 0.930 . S
H801 C809 0.930 . S
H802 C810 0.930 . S
H803 C811 0.930 . S
H804 C814 0.930 . S
H805 C815 0.930 . S
C806 H800 0.930 . S
C806 C807 1.355 . S
C806 C808 1.415 . S
C807 C806 1.355 . S
C807 C809 1.419 . S
C808 C806 1.415 . S
C808 C813 1.425 . S
C808 C815 1.409 . S
C809 H801 0.930 . S
C809 C807 1.419 . S
C809 C810 1.362 . S
C810 H802 0.930 . S
C810 C809 1.362 . S
C810 C813 1.409 . S
C811 H803 0.930 . S
C811 C812 1.355 . S
C811 C813 1.415 . S
C812 C811 1.355 . S
C812 C814 1.419 . S
C813 C808 1.425 . S
C813 C810 1.409 . S
C813 C811 1.415 . S
C814 H804 0.930 . S
C814 C812 1.419 . S
C814 C815 1.362 . S
C815 H805 0.930 . S
C815 C808 1.409 . S
C815 C814 1.362 . S
H816 C822 0.930 . S
H817 C825 0.930 . S
H818 C826 0.930 . S
H819 C827 0.930 . S
H820 C830 0.930 . S
H821 C831 0.930 . S
C822 H816 0.930 . S
C822 C823 1.355 . S
C822 C824 1.415 . S
C823 C822 1.355 . S
C823 C825 1.419 . S
C824 C822 1.415 . S
C824 C829 1.425 . S
C824 C831 1.409 . S
C825 H817 0.930 . S
C825 C823 1.419 . S
C825 C826 1.362 . S
C826 H818 0.930 . S
C826 C825 1.362 . S
C826 C829 1.409 . S
C827 H819 0.930 . S
C827 C828 1.355 . S
C827 C829 1.415 . S
C828 C827 1.355 . S
C828 C830 1.419 . S
C829 C824 1.425 . S
C829 C826 1.409 . S
C829 C827 1.415 . S
C830 H820 0.930 . S
C830 C828 1.419 . S
C830 C831 1.362 . S
C831 H821 0.930 . S
C831 C824 1.409 . S
C831 C830 1.362 . S
H832 C838 0.930 . S
H833 C841 0.930 . S
H834 C842 0.930 . S
H835 C843 0.930 . S
H836 C846 0.930 . S
H837 C847 0.930 . S
C838 H832 0.930 . S
C838 C839 1.355 . S
C838 C840 1.415 . S
C839 C838 1.355 . S
C839 C841 1.419 . S
C840 C838 1.415 . S
C840 C845 1.425 . S
C840 C847 1.409 . S
C841 H833 0.930 . S
C841 C839 1.419 . S
C841 C842 1.362 . S
C842 H834 0.930 . S
C842 C841 1.362 . S
C842 C845 1.409 . S
C843 H835 0.930 . S
C843 C844 1.355 . S
C843 C845 1.415 . S
C844 C843 1.355 . S
C844 C846 1.419 . S
C845 C840 1.425 . S
C845 C842 1.409 . S
C845 C843 1.415 . S
C846 H836 0.930 . S
C846 C844 1.419 . S
C846 C847 1.362 . S
C847 H837 0.930 . S
C847 C840 1.409 . S
C847 C846 1.362 . S
H848 C854 0.930 . S
H849 C857 0.930 . S
H850 C858 0.930 . S
H851 C859 0.930 . S
H852 C862 0.930 . S
H853 C863 0.930 . S
C854 H848 0.930 . S
C854 C855 1.355 . S
C854 C856 1.415 . S
C855 C854 1.355 . S
C855 C857 1.419 . S
C856 C854 1.415 . S
C856 C861 1.425 . S
C856 C863 1.409 . S
C857 H849 0.930 . S
C857 C855 1.419 . S
C857 C858 1.362 . S
C858 H850 0.930 . S
C858 C857 1.362 . S
C858 C861 1.409 . S
C859 H851 0.930 . S
C859 C860 1.355 . S
C859 C861 1.415 . S
C860 C859 1.355 . S
C860 C862 1.419 . S
C861 C856 1.425 . S
C861 C858 1.409 . S
C861 C859 1.415 . S
C862 H852 0.930 . S
C862 C860 1.419 . S
C862 C863 1.362 . S
C863 H853 0.930 . S
C863 C856 1.409 . S
C863 C862 1.362 . S
H864 C870 0.930 . S
H865 C873 0.930 . S
H866 C874 0.930 . S
H867 C875 0.930 . S
H868 C878 0.930 . S
H869 C879 0.930 . S
C870 H864 0.930 . S
C870 C871 1.355 . S
C870 C872 1.415 . S
C871 C870 1.355 . S
C871 C873 1.419 . S
C872 C870 1.415 . S
C872 C877 1.425 . S
C872 C879 1.409 . S
C873 H865 0.930 . S
C873 C871 1.419 . S
C873 C874 1.362 . S
C874 H866 0.930 . S
C874 C873 1.362 . S
C874 C877 1.409 . S
C875 H867 0.930 . S
C875 C876 1.355 . S
C875 C877 1.415 . S
C876 C875 1.355 . S
C876 C878 1.419 . S
C877 C872 1.425 . S
C877 C874 1.409 . S
C877 C875 1.415 . S
C878 H868 0.930 . S
C878 C876 1.419 . S
C878 C879 1.362 . S
C879 H869 0.930 . S
C879 C872 1.409 . S
C879 C878 1.362 . S
H880 C886 0.930 . S
H881 C889 0.930 . S
H882 C890 0.930 . S
H883 C891 0.930 . S
H884 C894 0.930 . S
H885 C895 0.930 . S
C886 H880 0.930 . S
C886 C887 1.355 . S
C886 C888 1.415 . S
C887 C886 1.355 . S
C887 C889 1.419 . S
C888 C886 1.415 . S
C888 C893 1.425 . S
C888 C895 1.409 . S
C889 H881 0.930 . S
C889 C887 1.419 . S
C889 C890 1.362 . S
C890 H882 0.930 . S
C890 C889 1.362 . S
C890 C893 1.409 . S
C891 H883 0.930 . S
C891 C892 1.355 . S
C891 C893 1.415 . S
C892 C891 1.355 . S
C892 C894 1.419 . S
C893 C888 1.425 . S
C893 C890 1.409 . S
C893 C891 1.415 . S
C894 H884 0.930 . S
C894 C892 1.419 . S
C894 C895 1.362 . S
C895 H885 0.930 . S
C895 C888 1.409 . S
C895 C894 1.362 . S
H896 C902 0.930 . S
H897 C905 0.930 . S
H898 C906 0.930 . S
H899 C907 0.930 . S
H900 C910 0.930 . S
H901 C911 0.930 . S
C902 H896 0.930 . S
C902 C903 1.355 . S
C902 C904 1.415 . S
C903 C902 1.355 . S
C903 C905 1.419 . S
C904 C902 1.415 . S
C904 C909 1.425 . S
C904 C911 1.409 . S
C905 H897 0.930 . S
C905 C903 1.419 . S
C905 C906 1.362 . S
C906 H898 0.930 . S
C906 C905 1.362 . S
C906 C909 1.409 . S
C907 H899 0.930 . S
C907 C908 1.355 . S
C907 C909 1.415 . S
C908 C907 1.355 . S
C908 C910 1.419 . S
C909 C904 1.425 . S
C909 C906 1.409 . S
C909 C907 1.415 . S
C910 H900 0.930 . S
C910 C908 1.419 . S
C910 C911 1.362 . S
C911 H901 0.930 . S
C911 C904 1.409 . S
C911 C910 1.362 . S
H912 C918 0.930 . S
H913 C921 0.930 . S
H914 C922 0.930 . S
H915 C923 0.930 . S
H916 C926 0.930 . S
H917 C927 0.930 . S
C918 H912 0.930 . S
C918 C919 1.355 . S
C918 C920 1.415 . S
C919 C918 1.355 . S
C919 C921 1.419 . S
C920 C918 1.415 . S
C920 C925 1.425 . S
C920 C927 1.409 . S
C921 H913 0.930 . S
C921 C919 1.419 . S
C921 C922 1.362 . S
C922 H914 0.930 . S
C922 C921 1.362 . S
C922 C925 1.409 . S
C923 H915 0.930 . S
C923 C924 1.355 . S
C923 C925 1.415 . S
C924 C923 1.355 . S
C924 C926 1.419 . S
C925 C920 1.425 . S
C925 C922 1.409 . S
C925 C923 1.415 . S
C926 H916 0.930 . S
C926 C924 1.419 . S
C926 C927 1.362 . S
C927 H917 0.930 . S
C927 C920 1.409 . S
C927 C926 1.362 . S
H928 C934 0.930 . S
H929 C937 0.930 . S
H930 C938 0.930 . S
H931 C939 0.930 . S
H932 C942 0.930 . S
H933 C943 0.930 . S
C934 H928 0.930 . S
C934 C935 1.355 . S
C934 C936 1.415 . S
C935 C934 1.355 . S
C935 C937 1.419 . S
C936 C934 1.415 . S
C936 C941 1.425 . S
C936 C943 1.409 . S
C937 H929 0.930 . S
C937 C935 1.419 . S
C937 C938 1.362 . S
C938 H930 0.930 . S
C938 C937 1.362 . S
C938 C941 1.409 . S
C939 H931 0.930 . S
C939 C940 1.355 . S
C939 C941 1.415 . S
C940 C939 1.355 . S
C940 C942 1.419 . S
C941 C936 1.425 . S
C941 C938 1.409 . S
C941 C939 1.415 . S
C942 H932 0.930 . S
C942 C940 1.419 . S
C942 C943 1.362 . S
C943 H933 0.930 . S
C943 C936 1.409 . S
C943 C942 1.362 . S
H944 C950 0.930 . S
H945 C953 0.930 . S
H946 C954 0.930 . S
H947 C955 0.930 . S
H948 C958 0.930 . S
H949 C959 0.930 . S
C950 H944 0.930 . S
C950 C951 1.355 . S
C950 C952 1.415 . S
C951 C950 1.355 . S
C951 C953 1.419 . S
C952 C950 1.415 . S
C952 C957 1.425 . S
C952 C959 1.409 . S
C953 H945 0.930 . S
C953 C951 1.419 . S
C953 C954 1.362 . S
C954 H946 0.930 . S
C954 C953 1.362 . S
C954 C957 1.409 . S
C955 H947 0.930 . S
C955 C956 1.355 . S
C955 C957 1.415 . S
C956 C955 1.355 . S
C956 C958 1.419 . S
C957 C952 1.425 . S
C957 C954 1.409 . S
C957 C955 1.415 . S
C958 H948 0.930 . S
C958 C956 1.419 . S
C958 C959 1.362 . S
C959 H949 0.930 . S
C959 C952 1.409 . S
C959 C958 1.362 . S
H960 C966 0.930 . S
H961 C969 0.930 . S
H962 C970 0.930 . S
H963 C971 0.930 . S
H964 C974 0.930 . S
H965 C975 0.930 . S
C966 H960 0.930 . S
C966 C967 1.355 . S
C966 C968 1.415 . S
C967 C966 1.355 . S
C967 C969 1.419 . S
C968 C966 1.415 . S
C968 C973 1.425 . S
C968 C975 1.409 . S
C969 H961 0.930 . S
C969 C967 1.419 . S
C969 C970 1.362 . S
C970 H962 0.930 . S
C970 C969 1.362 . S
C970 C973 1.409 . S
C971 H963 0.930 . S
C971 C972 1.355 . S
C971 C973 1.415 . S
C972 C971 1.355 . S
C972 C974 1.419 . S
C973 C968 1.425 . S
C973 C970 1.409 . S
C973 C971 1.415 . S
C974 H964 0.930 . S
C974 C972 1.419 . S
C974 C975 1.362 . S
C975 H965 0.930 . S
C975 C968 1.409 . S
C975 C974 1.362 . S
H976 C982 0.930 . S
H977 C985 0.930 . S
H978 C986 0.930 . S
H979 C987 0.930 . S
H980 C990 0.930 . S
H981 C991 0.930 . S
C982 H976 0.930 . S
C982 C983 1.355 . S
C982 C984 1.415 . S
C983 C982 1.355 . S
C983 C985 1.419 . S
C984 C982 1.415 . S
C984 C989 1.425 . S
C984 C991 1.409 . S
C985 H977 0.930 . S
C985 C983 1.419 . S
C985 C986 1.362 . S
C986 H978 0.930 . S
C986 C985 1.362 . S
C986 C989 1.409 . S
C987 H979 0.930 . S
C987 C988 1.355 . S
C987 C989 1.415 . S
C988 C987 1.355 . S
C988 C990 1.419 . S
C989 C984 1.425 . S
C989 C986 1.409 . S
C989 C987 1.415 . S
C990 H980 0.930 . S
C990 C988 1.419 . S
C990 C991 1.362 . S
C991 H981 0.930 . S
C991 C984 1.409 . S
C991 C990 1.362 . S
H992 C998 0.930 . S
H993 C1001 0.930 . S
H994 C1002 0.930 . S
H995 C1003 0.930 . S
H996 C1006 0.930 . S
H997 C1007 0.930 . S
C998 H992 0.930 . S
C998 C999 1.355 . S
C998 C1000 1.415 . S
C999 C998 1.355 . S
C999 C1001 1.419 . S
C1000 C998 1.415 . S
C1000 C1005 1.425 . S
C1000 C1007 1.409 . S
C1001 H993 0.930 . S
C1001 C999 1.419 . S
C1001 C1002 1.362 . S
C1002 H994 0.930 . S
C1002 C1001 1.362 . S
C1002 C1005 1.409 . S
C1003 H995 0.930 . S
C1003 C1004 1.355 . S
C1003 C1005 1.415 . S
C1004 C1003 1.355 . S
C1004 C1006 1.419 . S
C1005 C1000 1.425 . S
C1005 C1002 1.409 . S
C1005 C1003 1.415 . S
C1006 H996 0.930 . S
C1006 C1004 1.419 . S
C1006 C1007 1.362 . S
C1007 H997 0.930 . S
C1007 C1000 1.409 . S
C1007 C1006 1.362 . S
H1008 C1014 0.930 . S
H1009 C1017 0.930 . S
H1010 C1018 0.930 . S
H1011 C1019 0.930 . S
H1012 C1022 0.930 . S
H1013 C1023 0.930 . S
C1014 H1008 0.930 . S
C1014 C1015 1.355 . S
C1014 C1016 1.415 . S
C1015 C1014 1.355 . S
C1015 C1017 1.419 . S
C1016 C1014 1.415 . S
C1016 C1021 1.425 . S
C1016 C1023 1.409 . S
C1017 H1009 0.930 . S
C1017 C1015 1.419 . S
C1017 C1018 1.362 . S
C1018 H1010 0.930 . S
C1018 C1017 1.362 . S
C1018 C1021 1.409 . S
C1019 H1011 0.930 . S
C1019 C1020 1.355 . S
C1019 C1021 1.415 . S
C1020 C1019 1.355 . S
C1020 C1022 1.419 . S
C1021 C1016 1.425 . S
C1021 C1018 1.409 . S
C1021 C1019 1.415 . S
C1022 H1012 0.930 . S
C1022 C1020 1.419 . S
C1022 C1023 1.362 . S
C1023 H1013 0.930 . S
C1023 C1016 1.409 . S
C1023 C1022 1.362 . S
C647 C1 1.249 . S
C652 C487 1.358 . S
C663 C80 0.928 . S
C668 C536 0.982 . S
C684 C562 2.470 . S
C679 C140 2.454 . S
C695 C211 2.390 . S
C700 C610 2.368 . S
C716 C522 2.522 . S
C711 C31 2.223 . S
C732 C490 0.810 . S
C727 C61 0.810 . S
C748 C611 1.923 . S
C743 C151 1.902 . S
C764 C579 1.603 . S
C759 C200 1.631 . S
C775 C20 1.664 . S
C780 C607 1.794 . S
C796 C539 2.294 . S
C791 C121 2.391 . S
C807 C181 2.285 . S
C812 C491 2.333 . S
C823 C91 1.041 . S
C828 C576 1.025 . S
C844 C496 1.352 . S
C839 C260 1.221 . S
C855 C320 0.980 . S
C860 C527 1.005 . S
C871 C361 2.430 . S
C876 C571 2.440 . S
C887 C451 2.360 . S
C892 C619 2.333 . S
C903 C271 2.341 . S
C908 C531 2.530 . S
C924 C499 0.828 . S
C919 C301 0.855 . S
C940 C602 1.917 . S
C935 C380 1.886 . S
C956 C570 1.613 . S
C951 C440 1.639 . S
C967 C241 1.518 . S
C972 C616 1.768 . S
C988 C530 2.339 . S
C983 C391 2.374 . S
C1004 C482 2.331 . S
C999 C421 2.300 . S
C1015 C331 1.007 . S
C1020 C567 0.960 . S
