# Generated by pormake.
# Topology llj, (12,3)-cn, num edge types: 1
# Building blocks:
#     Node 0, Type 0, BuildingBlock: QEWDON_clean_sbu_0, # of connection points: 12
#     Node 1, Type 0, BuildingBlock: QEWDON_clean_sbu_0, # of connection points: 12
#     Node 2, Type 1, BuildingBlock: ESEHIV_clean_linker_0, # of connection points: 3
#     Node 3, Type 1, BuildingBlock: ESEHIV_clean_linker_0, # of connection points: 3
#     Node 4, Type 1, BuildingBlock: ESEHIV_clean_linker_0, # of connection points: 3
#     Node 5, Type 1, BuildingBlock: ESEHIV_clean_linker_0, # of connection points: 3
#     Node 6, Type 1, BuildingBlock: ESEHIV_clean_linker_0, # of connection points: 3
#     Node 7, Type 1, BuildingBlock: ESEHIV_clean_linker_0, # of connection points: 3
#     Node 8, Type 1, BuildingBlock: ESEHIV_clean_linker_0, # of connection points: 3
#     Node 9, Type 1, BuildingBlock: ESEHIV_clean_linker_0, # of connection points: 3
#     Edge 10, Type (0, 1), BuildingBlock: KIFKEQ_clean_linker_1, # of connection points: 2
#     Edge 11, Type (0, 1), BuildingBlock: KIFKEQ_clean_linker_1, # of connection points: 2
#     Edge 12, Type (0, 1), BuildingBlock: KIFKEQ_clean_linker_1, # of connection points: 2
#     Edge 13, Type (0, 1), BuildingBlock: KIFKEQ_clean_linker_1, # of connection points: 2
#     Edge 14, Type (0, 1), BuildingBlock: KIFKEQ_clean_linker_1, # of connection points: 2
#     Edge 15, Type (0, 1), BuildingBlock: KIFKEQ_clean_linker_1, # of connection points: 2
#     Edge 16, Type (0, 1), BuildingBlock: KIFKEQ_clean_linker_1, # of connection points: 2
#     Edge 17, Type (0, 1), BuildingBlock: KIFKEQ_clean_linker_1, # of connection points: 2
#     Edge 18, Type (0, 1), BuildingBlock: KIFKEQ_clean_linker_1, # of connection points: 2
#     Edge 19, Type (0, 1), BuildingBlock: KIFKEQ_clean_linker_1, # of connection points: 2
#     Edge 20, Type (0, 1), BuildingBlock: KIFKEQ_clean_linker_1, # of connection points: 2
#     Edge 21, Type (0, 1), BuildingBlock: KIFKEQ_clean_linker_1, # of connection points: 2
#     Edge 22, Type (0, 1), BuildingBlock: KIFKEQ_clean_linker_1, # of connection points: 2
#     Edge 23, Type (0, 1), BuildingBlock: KIFKEQ_clean_linker_1, # of connection points: 2
#     Edge 24, Type (0, 1), BuildingBlock: KIFKEQ_clean_linker_1, # of connection points: 2
#     Edge 25, Type (0, 1), BuildingBlock: KIFKEQ_clean_linker_1, # of connection points: 2
#     Edge 26, Type (0, 1), BuildingBlock: KIFKEQ_clean_linker_1, # of connection points: 2
#     Edge 27, Type (0, 1), BuildingBlock: KIFKEQ_clean_linker_1, # of connection points: 2
#     Edge 28, Type (0, 1), BuildingBlock: KIFKEQ_clean_linker_1, # of connection points: 2
#     Edge 29, Type (0, 1), BuildingBlock: KIFKEQ_clean_linker_1, # of connection points: 2
#     Edge 30, Type (0, 1), BuildingBlock: KIFKEQ_clean_linker_1, # of connection points: 2
#     Edge 31, Type (0, 1), BuildingBlock: KIFKEQ_clean_linker_1, # of connection points: 2
#     Edge 32, Type (0, 1), BuildingBlock: KIFKEQ_clean_linker_1, # of connection points: 2
#     Edge 33, Type (0, 1), BuildingBlock: KIFKEQ_clean_linker_1, # of connection points: 2
# Relax obj value: 0.011
# Max RMSD: 0.055
# Mean RMSD: 0.051
data_MOF--net-llj--node1-QEWDON_clean_sbu_0--node2-ESEHIV_clean_linker_0--edge1-KIFKEQ_clean_linker_1
_symmetry_space_group_name_H-M    P1
_symmetry_Int_Tables_number       1
_symmetry_cell_setting            triclinic
loop_
_symmetry_equiv_pos_as_xyz
'x, y, z'
_cell_length_a     36.431622
_cell_length_b     36.389978
_cell_length_c     25.330785
_cell_angle_alpha  90.048034
_cell_angle_beta   90.040489
_cell_angle_gamma 89.83474
loop_
_atom_site_label
_atom_site_type_symbol
_atom_site_fract_x
_atom_site_fract_y
_atom_site_fract_z
_atom_type_partial_charge
Zn0 Zn 0.94602 0.05605 0.96249 0.0
Zn1 Zn 0.94651 0.05799 0.08666 0.0
O2 O 0.97921 0.04881 0.02532 0.0
H3 H 0.00098 0.03366 0.02489 0.0
C4 C 0.89461 0.99056 0.88113 0.0
O5 O 0.88963 0.0053 0.92794 0.0
Zn6 Zn 0.05568 0.94065 0.08659 0.0
Zn7 Zn 0.05501 0.94342 0.96151 0.0
O8 O 0.02304 0.95185 0.02544 0.0
H9 H 0.00258 0.96872 0.02618 0.0
Zn10 Zn 0.92055 0.93161 0.94727 0.0
O11 O 0.92773 0.96464 0.01 0.0
Zn12 Zn 0.92458 0.93232 0.07293 0.0
H13 H 0.93884 0.98863 0.00799 0.0
Zn14 Zn 0.08464 0.06517 0.95563 0.0
O15 O 0.07847 0.03225 0.01804 0.0
H16 H 0.06516 0.00953 0.0142 0.0
Zn17 Zn 0.0803 0.06485 0.08125 0.0
C18 C 0.11055 0.00622 0.8896 0.0
O19 O 0.11795 0.99284 0.93658 0.0
O20 O 0.9038 0.09181 0.97901 0.0
O21 O 0.90669 0.09524 0.06672 0.0
O22 O 0.09689 0.9071 0.97695 0.0
O23 O 0.09396 0.90263 0.06455 0.0
O24 O 0.89545 0.88275 0.96588 0.0
O25 O 0.89915 0.88416 0.05362 0.0
C26 C 0.01215 0.07872 0.14434 0.0
O27 O 0.10997 0.11362 0.9749 0.0
O28 O 0.10798 0.1123 0.06289 0.0
O29 O 0.027 0.93677 0.89125 0.0
C30 C 0.89253 0.10509 0.02271 0.0
O31 O 0.97392 0.06316 0.89247 0.0
C32 C 0.99046 0.92077 0.14277 0.0
O33 O 0.90735 0.95811 0.87788 0.0
C34 C 0.10792 0.89312 0.02029 0.0
O35 O 0.09656 0.03814 0.88595 0.0
C36 C 0.90148 0.9936 0.13367 0.0
O37 O 0.97751 0.07554 0.14827 0.0
O38 O 0.0271 0.07352 0.09964 0.0
C39 C 0.88932 0.86831 0.01084 0.0
O40 O 0.02499 0.92382 0.14871 0.0
O41 O 0.97696 0.92522 0.09697 0.0
C42 C 0.09684 0.00257 0.14255 0.0
O43 O 0.89572 0.95935 0.12885 0.0
O44 O 0.92461 0.00827 0.10261 0.0
C45 C 0.11726 0.12794 0.01966 0.0
O46 O 0.10372 0.03679 0.142 0.0
O47 O 0.07857 0.98929 0.10445 0.0
C48 C 0.00018 0.91455 0.89222 0.0
O49 O 0.99249 0.89752 0.93656 0.0
C50 C 0.00204 0.08358 0.89578 0.0
O51 O 0.01018 0.09854 0.94154 0.0
Zn52 Zn 0.44218 0.55958 0.45536 0.0
Zn53 Zn 0.44546 0.56082 0.57983 0.0
O54 O 0.4767 0.5519 0.51678 0.0
H55 H 0.4975 0.53544 0.51504 0.0
C56 C 0.39318 0.49321 0.37619 0.0
O57 O 0.38686 0.50701 0.42325 0.0
Zn58 Zn 0.55458 0.43995 0.58038 0.0
Zn59 Zn 0.55596 0.44067 0.45596 0.0
O60 O 0.52283 0.45064 0.51822 0.0
H61 H 0.50312 0.46842 0.51782 0.0
Zn62 Zn 0.41807 0.43387 0.44184 0.0
O63 O 0.42608 0.46702 0.50426 0.0
Zn64 Zn 0.42253 0.43486 0.56713 0.0
H65 H 0.43846 0.49037 0.50203 0.0
Zn66 Zn 0.583 0.56717 0.44274 0.0
O67 O 0.57594 0.53293 0.50399 0.0
H68 H 0.564 0.50939 0.50092 0.0
Zn69 Zn 0.57957 0.56354 0.56863 0.0
C70 C 0.60851 0.50921 0.37461 0.0
O71 O 0.61341 0.49415 0.4212 0.0
O72 O 0.39875 0.59352 0.47387 0.0
O73 O 0.40398 0.59665 0.56138 0.0
O74 O 0.59669 0.40347 0.47398 0.0
O75 O 0.59268 0.40084 0.56166 0.0
O76 O 0.39188 0.38549 0.46058 0.0
O77 O 0.39622 0.38717 0.54825 0.0
C78 C 0.51235 0.58019 0.63555 0.0
O79 O 0.60793 0.61563 0.46458 0.0
O80 O 0.60429 0.6126 0.55232 0.0
O81 O 0.52883 0.43449 0.38488 0.0
C82 C 0.38815 0.60607 0.51835 0.0
O83 O 0.46856 0.56724 0.38417 0.0
C84 C 0.48796 0.42274 0.63649 0.0
O85 O 0.40625 0.46091 0.37238 0.0
C86 C 0.60695 0.39014 0.51815 0.0
O87 O 0.59599 0.54179 0.37194 0.0
C88 C 0.40126 0.49654 0.62833 0.0
O89 O 0.47758 0.58023 0.63964 0.0
O90 O 0.52694 0.56942 0.59276 0.0
C91 C 0.3858 0.37133 0.50576 0.0
O92 O 0.52249 0.4252 0.64252 0.0
O93 O 0.47469 0.42687 0.59052 0.0
C94 C 0.60373 0.50152 0.62546 0.0
O95 O 0.39483 0.46241 0.62356 0.0
O96 O 0.42441 0.51086 0.59694 0.0
C97 C 0.61402 0.62927 0.51016 0.0
O98 O 0.61013 0.5357 0.62169 0.0
O99 O 0.57908 0.48821 0.59559 0.0
C100 C 0.5004 0.41441 0.38667 0.0
O101 O 0.49125 0.39922 0.43182 0.0
C102 C 0.49759 0.58637 0.38714 0.0
O103 O 0.50732 0.5999 0.43317 0.0
H104 H 0.38409 0.39967 0.01167 0.0
H105 H 0.30645 0.33544 0.09954 0.0
H106 H 0.29769 0.34269 0.93052 0.0
C107 C 0.35934 0.38323 0.01281 0.0
C108 C 0.34214 0.37318 0.96537 0.0
C109 C 0.34661 0.36979 0.0614 0.0
C110 C 0.31585 0.34656 0.06227 0.0
C111 C 0.29821 0.33629 0.01521 0.0
C112 C 0.31125 0.35023 0.96704 0.0
H113 H 0.66335 0.41286 0.99457 0.0
H114 H 0.71661 0.33048 0.08861 0.0
H115 H 0.72606 0.32745 0.91919 0.0
C116 C 0.68066 0.38865 -0.00293 0.0
C117 C 0.69433 0.37245 0.95075 0.0
C118 C 0.6886 0.37376 0.04679 0.0
C119 C 0.70969 0.34152 0.05014 0.0
C120 C 0.72332 0.3245 0.00426 0.0
C121 C 0.71545 0.3402 0.95471 0.0
H122 H 0.60786 0.61462 0.01247 0.0
H123 H 0.69553 0.67035 0.93269 0.0
H124 H 0.69373 0.66555 0.10262 0.0
C125 C 0.63362 0.62945 0.01404 0.0
C126 C 0.64903 0.63844 0.06306 0.0
C127 C 0.65041 0.64067 0.96697 0.0
C128 C 0.68331 0.6606 0.96907 0.0
C129 C 0.69895 0.67019 0.01794 0.0
C130 C 0.68177 0.65861 0.06472 0.0
H131 H 0.34155 0.5889 -0.00257 0.0
H132 H 0.2863 0.67169 0.08825 0.0
H133 H 0.277 0.67148 0.91882 0.0
C134 C 0.32368 0.61274 -0.00106 0.0
C135 C 0.30968 0.62771 0.95201 0.0
C136 C 0.31519 0.62824 0.04808 0.0
C137 C 0.29358 0.66014 0.05021 0.0
C138 C 0.27985 0.67612 0.00368 0.0
C139 C 0.28793 0.65961 0.95475 0.0
H140 H 0.88472 0.89802 0.5152 0.0
H141 H 0.81023 0.8306 0.60417 0.0
H142 H 0.79897 0.83949 0.43552 0.0
C143 C 0.86089 0.8803 0.51678 0.0
C144 C 0.84339 0.8702 0.46969 0.0
C145 C 0.84914 0.86629 0.56558 0.0
C146 C 0.81861 0.84269 0.56702 0.0
C147 C 0.80049 0.83258 0.52016 0.0
C148 C 0.81283 0.84693 0.47185 0.0
H149 H 0.14227 0.90062 0.51096 0.0
H150 H 0.20155 0.81971 0.59991 0.0
H151 H 0.19702 0.81197 0.43031 0.0
C152 C 0.1584 0.87556 0.51196 0.0
C153 C 0.16742 0.85759 0.46463 0.0
C154 C 0.17053 0.86206 0.56072 0.0
C155 C 0.19199 0.83006 0.5622 0.0
C156 C 0.20202 0.81193 0.51532 0.0
C157 C 0.18932 0.82569 0.46664 0.0
H158 H 0.11548 0.1037 0.52612 0.0
H159 H 0.19571 0.16519 0.43904 0.0
H160 H 0.19925 0.16317 0.60896 0.0
C161 C 0.13991 0.12063 0.52543 0.0
C162 C 0.15572 0.13198 0.57315 0.0
C163 C 0.15417 0.1324 0.47688 0.0
C164 C 0.18543 0.15492 0.47634 0.0
C165 C 0.2018 0.16642 0.52387 0.0
C166 C 0.18687 0.15453 0.57208 0.0
H167 H 0.83799 0.08368 0.50183 0.0
H168 H 0.78575 0.16791 0.59351 0.0
H169 H 0.77364 0.16723 0.42449 0.0
C170 C 0.82053 0.10781 0.50356 0.0
C171 C 0.80659 0.1232 0.45682 0.0
C172 C 0.81269 0.1234 0.55284 0.0
C173 C 0.7917 0.15567 0.55542 0.0
C174 C 0.77792 0.17193 0.50916 0.0
C175 C 0.78535 0.15546 0.46001 0.0
H176 H 0.13538 0.17156 0.93624 0.0
H177 H 0.1477 0.1626 0.10557 0.0
H178 H 0.17559 0.22468 0.93597 0.0
H179 H 0.18864 0.21572 0.10497 0.0
H180 H 0.24068 0.33053 0.08497 0.0
H181 H 0.19339 0.2829 0.08747 0.0
H182 H 0.24153 0.23173 0.94995 0.0
H183 H 0.28865 0.27872 0.9477 0.0
C184 C 0.14651 0.181 0.97352 0.0
C185 C 0.13868 0.16247 0.02088 0.0
C186 C 0.16969 0.21141 0.97327 0.0
C187 C 0.1857 0.22407 0.02031 0.0
C188 C 0.17658 0.20669 0.06809 0.0
C189 C 0.15327 0.17616 0.06839 0.0
C190 C 0.24111 0.30906 0.05534 0.0
C191 C 0.26828 0.30862 0.01588 0.0
C192 C 0.21406 0.28183 0.0568 0.0
C193 C 0.21358 0.25372 0.0187 0.0
C194 C 0.24064 0.25344 0.97921 0.0
C195 C 0.26765 0.28048 0.97786 0.0
H196 H 0.85953 0.13506 0.93602 0.0
H197 H 0.86101 0.1413 0.10656 0.0
H198 H 0.81701 0.18658 0.93285 0.0
H199 H 0.81836 0.19328 0.10303 0.0
H200 H 0.71484 0.2653 0.07024 0.0
H201 H 0.75366 0.21052 0.07633 0.0
H202 H 0.82319 0.25325 0.95297 0.0
H203 H 0.7851 0.30814 0.94752 0.0
C204 C 0.85065 0.14723 0.97292 0.0
C205 C 0.86403 0.13423 0.02157 0.0
C206 C 0.82639 0.17691 0.971 0.0
C207 C 0.81473 0.19422 0.01763 0.0
C208 C 0.82684 0.18038 0.06645 0.0
C209 C 0.85136 0.15072 0.06842 0.0
C210 C 0.73861 0.26314 0.04475 0.0
C211 C 0.7467 0.29103 0.00813 0.0
C212 C 0.76075 0.23175 0.04821 0.0
C213 C 0.79125 0.22751 0.01485 0.0
C214 C 0.79944 0.25545 0.9785 0.0
C215 C 0.77753 0.28686 0.97529 0.0
H216 H 0.86241 0.8278 0.92854 0.0
H217 H 0.8673 0.83089 0.09909 0.0
H218 H 0.82044 0.77607 0.93286 0.0
H219 H 0.82583 0.77852 0.10321 0.0
H220 H 0.70994 0.72825 0.08421 0.0
H221 H 0.76071 0.77134 0.0847 0.0
H222 H 0.81199 0.7117 0.9568 0.0
H223 H 0.7609 0.66827 0.95637 0.0
C224 C 0.85504 0.81708 0.96697 0.0
C225 C 0.86785 0.83386 0.01349 0.0
C226 C 0.83113 0.78721 0.9694 0.0
C227 C 0.81953 0.77338 0.01839 0.0
C228 C 0.83379 0.78896 0.06487 0.0
C229 C 0.85771 0.81886 0.06248 0.0
C230 C 0.73238 0.7238 0.0569 0.0
C231 C 0.73139 0.69477 0.02028 0.0
C232 C 0.76155 0.74853 0.05722 0.0
C233 C 0.79045 0.74493 0.02086 0.0
C234 C 0.78992 0.71543 0.98495 0.0
C235 C 0.76068 0.69061 0.98466 0.0
H236 H 0.13956 0.86248 0.93301 0.0
H237 H 0.14057 0.85771 0.10367 0.0
H238 H 0.18282 0.81152 0.92953 0.0
H239 H 0.18385 0.80636 0.09984 0.0
H240 H 0.2881 0.73663 0.06704 0.0
H241 H 0.24844 0.7908 0.07195 0.0
H242 H 0.17861 0.74484 0.95109 0.0
H243 H 0.21763 0.69052 0.94679 0.0
C244 C 0.14911 0.85072 0.96983 0.0
C245 C 0.1363 0.86397 0.01865 0.0
C246 C 0.17378 0.82139 0.96774 0.0
C247 C 0.18639 0.80478 0.01437 0.0
C248 C 0.17466 0.81878 0.06327 0.0
C249 C 0.14976 0.84805 0.06541 0.0
C250 C 0.26411 0.73797 0.04182 0.0
C251 C 0.25612 0.70931 0.00635 0.0
C252 C 0.24149 0.76899 0.0446 0.0
C253 C 0.2106 0.77208 0.0117 0.0
C254 C 0.20262 0.74348 0.97627 0.0
C255 C 0.22504 0.7124 0.97373 0.0
H256 H 0.64264 0.66165 0.59905 0.0
H257 H 0.6345 0.67474 0.42978 0.0
H258 H 0.68523 0.7133 0.60295 0.0
H259 H 0.67642 0.72652 0.43399 0.0
H260 H 0.79096 0.77536 0.45214 0.0
H261 H 0.74227 0.73003 0.45127 0.0
H262 H 0.6939 0.78043 0.58921 0.0
H263 H 0.74294 0.82642 0.5899 0.0
C264 C 0.64939 0.6759 0.56282 0.0
C265 C 0.63556 0.66367 0.51399 0.0
C266 C 0.67371 0.70558 0.56513 0.0
C267 C 0.68463 0.72361 0.51868 0.0
C268 C 0.66916 0.71266 0.47034 0.0
C269 C 0.64497 0.68306 0.46799 0.0
C270 C 0.76968 0.77724 0.48186 0.0
C271 C 0.77058 0.80486 0.52067 0.0
C272 C 0.74172 0.7512 0.48136 0.0
C273 C 0.71393 0.75191 0.51975 0.0
C274 C 0.715 0.77914 0.55917 0.0
C275 C 0.74306 0.8054 0.5596 0.0
H276 H 0.35813 0.64044 0.60463 0.0
H277 H 0.34918 0.63327 0.43467 0.0
H278 H 0.31065 0.68784 0.60542 0.0
H279 H 0.3024 0.68103 0.43554 0.0
H280 H 0.19746 0.74749 0.4594 0.0
H281 H 0.23976 0.69526 0.46201 0.0
H282 H 0.30576 0.75175 0.57813 0.0
H283 H 0.26366 0.8037 0.57553 0.0
C284 C 0.34601 0.64885 0.56747 0.0
C285 C 0.35773 0.63322 0.51957 0.0
C286 C 0.31891 0.67616 0.56791 0.0
C287 C 0.30289 0.6884 0.5205 0.0
C288 C 0.31388 0.672 0.4728 0.0
C289 C 0.34094 0.64475 0.47233 0.0
C290 C 0.22107 0.74873 0.48534 0.0
C291 C 0.22713 0.7797 0.51735 0.0
C292 C 0.24528 0.71882 0.48689 0.0
C293 C 0.27608 0.71928 0.52043 0.0
C294 C 0.28194 0.75017 0.55263 0.0
C295 C 0.2578 0.78 0.55108 0.0
H296 H 0.3572 0.33087 0.42446 0.0
H297 H 0.36517 0.3341 0.59477 0.0
H298 H 0.31607 0.27844 0.43046 0.0
H299 H 0.32457 0.28118 0.60053 0.0
H300 H 0.21087 0.22627 0.5875 0.0
H301 H 0.25928 0.27198 0.58443 0.0
H302 H 0.31047 0.21363 0.45526 0.0
H303 H 0.26182 0.16752 0.45848 0.0
C304 C 0.35062 0.32011 0.46316 0.0
C305 C 0.36417 0.33701 0.50916 0.0
C306 C 0.3272 0.28987 0.46655 0.0
C307 C 0.31681 0.27584 0.51598 0.0
C308 C 0.33158 0.29175 0.56188 0.0
C309 C 0.35501 0.32198 0.55853 0.0
C310 C 0.2328 0.22272 0.55909 0.0
C311 C 0.23255 0.19314 0.52335 0.0
C312 C 0.26059 0.24897 0.55733 0.0
C313 C 0.28881 0.24639 0.51972 0.0
C314 C 0.28889 0.21657 0.48437 0.0
C315 C 0.26105 0.1902 0.48618 0.0
H316 H 0.63842 0.35622 0.60372 0.0
H317 H 0.63891 0.35703 0.43299 0.0
H318 H 0.68226 0.30539 0.6032 0.0
H319 H 0.68176 0.30585 0.43259 0.0
H320 H 0.72164 0.18613 0.5774 0.0
H321 H 0.68283 0.24071 0.5813 0.0
H322 H 0.74391 0.28848 0.45236 0.0
H323 H 0.78239 0.23355 0.44809 0.0
C324 C 0.64787 0.34562 0.56612 0.0
C325 C 0.63498 0.3606 0.51841 0.0
C326 C 0.67285 0.31637 0.56582 0.0
C327 C 0.68541 0.30144 0.51785 0.0
C328 C 0.67307 0.31696 0.47025 0.0
C329 C 0.64825 0.34622 0.47052 0.0
C330 C 0.72699 0.20847 0.55027 0.0
C331 C 0.75497 0.20556 0.51234 0.0
C332 C 0.70483 0.23981 0.5526 0.0
C333 C 0.71025 0.26899 0.51714 0.0
C334 C 0.73864 0.26627 0.47971 0.0
C335 C 0.76068 0.23484 0.47724 0.0
H336 H 0.07699 0.11559 0.15247 0.0
H337 H 0.99653 0.05699 0.24427 0.0
H338 H 0.11293 0.12697 0.23226 0.0
H339 H 0.03218 0.06834 0.32413 0.0
H340 H 0.08053 0.13575 0.45929 0.0
H341 H 0.04741 0.12143 0.37858 0.0
H342 H 0.14978 0.09541 0.30087 0.0
H343 H 0.18316 0.10991 0.38222 0.0
C344 C 0.0674 0.10462 0.18956 0.0
C345 C 0.03432 0.08508 0.19213 0.0
C346 C 0.08787 0.11117 0.23526 0.0
C347 C 0.07537 0.09857 0.28448 0.0
C348 C 0.04228 0.07885 0.2869 0.0
C349 C 0.02192 0.07228 0.24121 0.0
C350 C 0.09599 0.12652 0.42523 0.0
C351 C 0.13443 0.12357 0.42725 0.0
C352 C 0.07699 0.11832 0.37896 0.0
C353 C 0.09596 0.10703 0.33349 0.0
C354 C 0.13446 0.10434 0.33522 0.0
C355 C 0.15354 0.11259 0.38169 0.0
H356 H 0.91145 0.06557 0.16315 0.0
H357 H 0.84693 0.96948 0.19829 0.0
H358 H 0.8849 0.09723 0.23788 0.0
H359 H 0.81784 0.00201 0.2707 0.0
H360 H 0.81113 0.0495 0.43575 0.0
H361 H 0.83101 0.02006 0.35528 0.0
H362 H 0.83555 0.1259 0.27784 0.0
H363 H 0.81929 0.15578 0.36051 0.0
C364 C 0.89136 0.0513 0.18637 0.0
C365 C 0.88218 0.01471 0.17529 0.0
C366 C 0.87552 0.06971 0.22907 0.0
C367 C 0.84935 0.05219 0.26111 0.0
C368 C 0.83864 0.01617 0.24808 0.0
C369 C 0.85512 0.99756 0.2061 0.0
C370 C 0.81686 0.06667 0.40186 0.0
C371 C 0.81436 0.10518 0.40521 0.0
C372 C 0.82757 0.04961 0.35506 0.0
C373 C 0.83511 0.07047 0.30965 0.0
C374 C 0.83078 0.1089 0.31218 0.0
C375 C 0.82083 0.12607 0.3595 0.0
H376 H 0.92546 0.88433 0.14655 0.0
H377 H 0.00215 0.9443 0.24337 0.0
H378 H 0.8852 0.87621 0.22247 0.0
H379 H 0.96272 0.93497 0.32014 0.0
H380 H 0.8699 0.93747 0.43935 0.0
H381 H 0.90286 0.95214 0.35797 0.0
H382 H 0.88723 0.84073 0.30344 0.0
H383 H 0.85435 0.82622 0.38417 0.0
C384 C 0.93346 0.89606 0.18398 0.0
C385 C 0.96655 0.91533 0.18895 0.0
C386 C 0.91065 0.89112 0.22761 0.0
C387 C 0.92071 0.90506 0.2773 0.0
C388 C 0.95389 0.92442 0.28222 0.0
C389 C 0.97668 0.92937 0.23848 0.0
C390 C 0.87331 0.91627 0.4097 0.0
C391 C 0.85956 0.8807 0.41815 0.0
C392 C 0.89224 0.92462 0.36325 0.0
C393 C 0.89782 0.89752 0.32445 0.0
C394 C 0.88295 0.86236 0.3322 0.0
C395 C 0.86404 0.85405 0.37849 0.0
H396 H 0.12382 0.93281 0.1412 0.0
H397 H 0.09483 0.02155 0.24601 0.0
H398 H 0.13945 0.8941 0.21708 0.0
H399 H 0.11047 0.98312 0.32208 0.0
H400 H 0.10087 0.88864 0.44124 0.0
H401 H 0.08392 0.92272 0.36203 0.0
H402 H 0.18878 0.89645 0.29226 0.0
H403 H 0.20656 0.86343 0.37237 0.0
C404 C 0.12028 0.94373 0.1805 0.0
C405 C 0.10747 0.97974 0.18796 0.0
C406 C 0.12963 0.92184 0.2238 0.0
C407 C 0.1258 0.93556 0.27532 0.0
C408 C 0.1132 0.97175 0.28273 0.0
C409 C 0.10449 0.99378 0.23936 0.0
C410 C 0.12043 0.89017 0.40914 0.0
C411 C 0.15531 0.87372 0.41353 0.0
C412 C 0.11063 0.90961 0.36381 0.0
C413 C 0.13522 0.9125 0.32146 0.0
C414 C 0.16931 0.8945 0.32444 0.0
C415 C 0.17937 0.87543 0.37018 0.0
H416 H 0.1429 0.93854 0.88405 0.0
H417 H 0.09521 0.02401 0.7873 0.0
H418 H 0.15707 0.90302 0.80506 0.0
H419 H 0.10826 0.98795 0.70847 0.0
H420 H 0.17644 0.93562 0.57805 0.0
H421 H 0.16107 0.96965 0.65781 0.0
H422 H 0.12909 0.86843 0.734 0.0
H423 H 0.14503 0.8343 0.65401 0.0
C424 C 0.13525 0.94967 0.84594 0.0
C425 C 0.11824 0.98426 0.84183 0.0
C426 C 0.14312 0.92917 0.8007 0.0
C427 C 0.134 0.94278 0.75045 0.0
C428 C 0.11631 0.97706 0.74653 0.0
C429 C 0.10862 0.99762 0.7917 0.0
C430 C 0.16591 0.92069 0.61175 0.0
C431 C 0.16173 0.88236 0.60981 0.0
C432 C 0.15701 0.94017 0.6574 0.0
C433 C 0.14361 0.92178 0.70215 0.0
C434 C 0.13972 0.88335 0.70037 0.0
C435 C 0.14879 0.86381 0.65465 0.0
H436 H 0.99397 0.05598 0.79594 0.0
H437 H 0.06375 0.12557 0.8909 0.0
H438 H 0.03332 0.06675 0.71978 0.0
H439 H 0.10398 0.13493 0.81563 0.0
H440 H 0.14042 0.1787 0.65418 0.0
H441 H 0.10438 0.16626 0.73295 0.0
H442 H 0.093 0.05288 0.68477 0.0
H443 H 0.1288 0.06558 0.60545 0.0
C444 C 0.01782 0.0734 0.80064 0.0
C445 C 0.02574 0.08995 0.84944 0.0
C446 C 0.04057 0.07932 0.75712 0.0
C447 C 0.07189 0.10164 0.76161 0.0
C448 C 0.07984 0.11799 0.81057 0.0
C449 C 0.05689 0.11241 0.85386 0.0
C450 C 0.13084 0.15095 0.66097 0.0
C451 C 0.13742 0.1231 0.62373 0.0
C452 C 0.11013 0.1438 0.7061 0.0
C453 C 0.09567 0.10857 0.71512 0.0
C454 C 0.10324 0.08043 0.6786 0.0
C455 C 0.12384 0.08764 0.63331 0.0
H456 H 0.90205 0.96838 0.77882 0.0
H457 H 0.86526 0.05954 0.87479 0.0
H458 H 0.88459 0.00174 0.69951 0.0
H459 H 0.84649 0.09244 0.79552 0.0
H460 H 0.84657 0.15439 0.63839 0.0
H461 H 0.86882 0.12311 0.71767 0.0
H462 H 0.82906 0.01976 0.65605 0.0
H463 H 0.80764 0.05089 0.57683 0.0
C464 C 0.89023 0.99553 0.78296 0.0
C465 C 0.88487 0.01122 0.83303 0.0
C466 C 0.87996 0.01458 0.73753 0.0
C467 C 0.86386 0.04966 0.74119 0.0
C468 C 0.85915 0.06564 0.79128 0.0
C469 C 0.86964 0.04664 0.83674 0.0
C470 C 0.84255 0.12502 0.6421 0.0
C471 C 0.8256 0.10499 0.60149 0.0
C472 C 0.85522 0.10711 0.68741 0.0
C473 C 0.85091 0.0689 0.69303 0.0
C474 C 0.83357 0.04906 0.6525 0.0
C475 C 0.82116 0.06689 0.60721 0.0
H476 H 0.94099 0.86927 0.88204 0.0
H477 H 0.00863 0.94519 0.7944 0.0
H478 H 0.90344 0.85903 0.80369 0.0
H479 H 0.97122 0.93452 0.71589 0.0
H480 H 0.92374 0.86802 0.57612 0.0
H481 H 0.95948 0.88119 0.65496 0.0
H482 H 0.85956 0.89428 0.74464 0.0
H483 H 0.82342 0.88173 0.66511 0.0
C484 C 0.9478 0.88384 0.84614 0.0
C485 C 0.97774 0.90811 0.84448 0.0
C486 C 0.92619 0.87807 0.80136 0.0
C487 C 0.93443 0.89598 0.75379 0.0
C488 C 0.96448 0.92009 0.75198 0.0
C489 C 0.98581 0.92625 0.79695 0.0
C490 C 0.90926 0.8743 0.61236 0.0
C491 C 0.87065 0.87418 0.61416 0.0
C492 C 0.9298 0.88174 0.65756 0.0
C493 C 0.9123 0.88888 0.7058 0.0
C494 C 0.87374 0.88854 0.70795 0.0
C495 C 0.85309 0.88132 0.66252 0.0
H496 H 0.51578 0.64708 0.6825 0.0
H497 H 0.55677 0.53623 0.69281 0.0
H498 H 0.55154 0.66381 0.76111 0.0
H499 H 0.59389 0.55296 0.76973 0.0
H500 H 0.67948 0.60911 0.87843 0.0
H501 H 0.64773 0.59593 0.79501 0.0
H502 H 0.54839 0.64398 0.8578 0.0
H503 H 0.57996 0.65689 0.94085 0.0
C504 C 0.53308 0.62657 0.70114 0.0
C505 C 0.53497 0.5908 0.68084 0.0
C506 C 0.55341 0.63603 0.74592 0.0
C507 C 0.57584 0.60978 0.77094 0.0
C508 C 0.57757 0.57395 0.75042 0.0
C509 C 0.55682 0.56446 0.70615 0.0
C510 C 0.65094 0.61698 0.87404 0.0
C511 C 0.63201 0.63374 0.91593 0.0
C512 C 0.6328 0.60935 0.82662 0.0
C513 C 0.59569 0.61904 0.8201 0.0
C514 C 0.57708 0.63654 0.86165 0.0
C515 C 0.59502 0.64362 0.90922 0.0
H516 H 0.34665 0.47328 0.69355 0.0
H517 H 0.41248 0.56832 0.65756 0.0
H518 H 0.31867 0.50625 0.7665 0.0
H519 H 0.38686 0.60044 0.7325 0.0
H520 H 0.3224 0.65994 0.85547 0.0
H521 H 0.33779 0.62971 0.77276 0.0
H522 H 0.33354 0.52415 0.85102 0.0
H523 H 0.31457 0.55398 0.93174 0.0
C524 C 0.35531 0.50124 0.70119 0.0
C525 C 0.38241 0.51798 0.66999 0.0
C526 C 0.33947 0.52009 0.74346 0.0
C527 C 0.35084 0.55593 0.75627 0.0
C528 C 0.377 0.57306 0.72382 0.0
C529 C 0.39225 0.55441 0.68095 0.0
C530 C 0.32385 0.63023 0.85469 0.0
C531 C 0.31763 0.60951 0.90063 0.0
C532 C 0.33327 0.61286 0.80734 0.0
C533 C 0.33733 0.57441 0.80501 0.0
C534 C 0.33024 0.55373 0.85072 0.0
C535 C 0.32008 0.57099 0.89761 0.0
H536 H 0.42271 0.38664 0.64129 0.0
H537 H 0.49971 0.4475 0.7364 0.0
H538 H 0.38294 0.37883 0.71784 0.0
H539 H 0.46084 0.43844 0.81379 0.0
H540 H 0.36952 0.44015 0.93535 0.0
H541 H 0.40183 0.45493 0.85345 0.0
H542 H 0.3854 0.34369 0.79865 0.0
H543 H 0.35306 0.32914 0.8798 0.0
C544 C 0.43086 0.39868 0.67846 0.0
C545 C 0.46393 0.41806 0.68277 0.0
C546 C 0.40834 0.39389 0.72248 0.0
C547 C 0.41868 0.40807 0.77194 0.0
C548 C 0.45177 0.42768 0.77612 0.0
C549 C 0.47423 0.4325 0.73199 0.0
C550 C 0.37266 0.419 0.90555 0.0
C551 C 0.35873 0.3835 0.91399 0.0
C552 C 0.3912 0.42741 0.85878 0.0
C553 C 0.3963 0.40044 0.81964 0.0
C554 C 0.38146 0.36528 0.82757 0.0
C555 C 0.36288 0.35692 0.87415 0.0
H556 H 0.66191 0.5222 0.68597 0.0
H557 H 0.58942 0.43083 0.65731 0.0
H558 H 0.68966 0.48906 0.759 0.0
H559 H 0.61522 0.39855 0.73218 0.0
H560 H 0.67927 0.33849 0.85608 0.0
H561 H 0.66403 0.36742 0.77219 0.0
H562 H 0.67408 0.47444 0.84515 0.0
H563 H 0.6923 0.44571 0.92715 0.0
C564 C 0.65182 0.49498 0.69516 0.0
C565 C 0.62287 0.47941 0.66614 0.0
C566 C 0.66755 0.47605 0.73744 0.0
C567 C 0.6543 0.44131 0.7524 0.0
C568 C 0.62645 0.42509 0.72182 0.0
C569 C 0.6112 0.44383 0.67896 0.0
C570 C 0.67905 0.3682 0.85384 0.0
C571 C 0.68664 0.38972 0.89865 0.0
C572 C 0.66979 0.38483 0.80585 0.0
C573 C 0.6675 0.42335 0.80172 0.0
C574 C 0.67601 0.44476 0.84629 0.0
C575 C 0.6858 0.4282 0.89386 0.0
H576 H 0.59897 0.5306 0.27201 0.0
H577 H 0.63909 0.44089 0.36798 0.0
H578 H 0.616 0.49683 0.19253 0.0
H579 H 0.65714 0.40769 0.28874 0.0
H580 H 0.65607 0.34371 0.13395 0.0
H581 H 0.63405 0.37581 0.21264 0.0
H582 H 0.67091 0.47894 0.14701 0.0
H583 H 0.69222 0.44694 0.06838 0.0
C584 C 0.6115 0.50374 0.27613 0.0
C585 C 0.61794 0.48855 0.32625 0.0
C586 C 0.62143 0.48445 0.23061 0.0
C587 C 0.63815 0.44964 0.23426 0.0
C588 C 0.64395 0.43423 0.28445 0.0
C589 C 0.63386 0.45343 0.32992 0.0
C590 C 0.65953 0.37321 0.13661 0.0
C591 C 0.67571 0.39285 0.09505 0.0
C592 C 0.64697 0.39161 0.18161 0.0
C593 C 0.65058 0.42999 0.18605 0.0
C594 C 0.66698 0.4495 0.14447 0.0
C595 C 0.67932 0.43116 0.09948 0.0
H596 H 0.56021 0.62681 0.38131 0.0
H597 H 0.48695 0.56072 0.28664 0.0
H598 H 0.59899 0.6369 0.3048 0.0
H599 H 0.52496 0.57221 0.20923 0.0
H600 H 0.61877 0.57252 0.09072 0.0
H601 H 0.58327 0.55857 0.16999 0.0
H602 H 0.59829 0.6702 0.2243 0.0
H603 H 0.63431 0.68369 0.14587 0.0
C604 C 0.55227 0.61457 0.34406 0.0
C605 C 0.52053 0.59294 0.34006 0.0
C606 C 0.5744 0.62059 0.30004 0.0
C607 C 0.56503 0.60553 0.25074 0.0
C608 C 0.53325 0.58382 0.24674 0.0
C609 C 0.51127 0.57751 0.29099 0.0
C610 C 0.61455 0.59392 0.11987 0.0
C611 C 0.62937 0.62912 0.11236 0.0
C612 C 0.59413 0.58602 0.16511 0.0
C613 C 0.58788 0.61326 0.20352 0.0
C614 C 0.6031 0.64836 0.19606 0.0
C615 C 0.62372 0.65614 0.1511 0.0
H616 H 0.36124 0.5611 0.37091 0.0
H617 H 0.40592 0.4742 0.27365 0.0
H618 H 0.34381 0.59506 0.29185 0.0
H619 H 0.38955 0.50872 0.19472 0.0
H620 H 0.3122 0.55534 0.0706 0.0
H621 H 0.33322 0.52421 0.14994 0.0
H622 H 0.3675 0.62828 0.21567 0.0
H623 H 0.34596 0.6596 0.13592 0.0
C624 C 0.36762 0.54938 0.33267 0.0
C625 C 0.38452 0.51473 0.32844 0.0
C626 C 0.35788 0.56899 0.28739 0.0
C627 C 0.365 0.55438 0.23705 0.0
C628 C 0.38302 0.52029 0.23297 0.0
C629 C 0.39257 0.50062 0.27817 0.0
C630 C 0.32451 0.57154 0.10181 0.0
C631 C 0.3277 0.60985 0.097 0.0
C632 C 0.33664 0.55371 0.14722 0.0
C633 C 0.35234 0.57374 0.18889 0.0
C634 C 0.35525 0.61215 0.18437 0.0
C635 C 0.34296 0.63006 0.13882 0.0
H636 H 0.43926 0.37191 0.378 0.0
H637 H 0.50995 0.44348 0.28792 0.0
H638 H 0.4007 0.36288 0.30079 0.0
H639 H 0.47212 0.4332 0.20981 0.0
H640 H 0.37546 0.43533 0.09443 0.0
H641 H 0.41251 0.44675 0.17311 0.0
H642 H 0.40256 0.33249 0.21699 0.0
H643 H 0.36569 0.32116 0.13864 0.0
C644 C 0.44668 0.38559 0.34163 0.0
C645 C 0.47762 0.40846 0.33914 0.0
C646 C 0.4247 0.38019 0.2972 0.0
C647 C 0.43337 0.39718 0.249 0.0
C648 C 0.46441 0.42004 0.24647 0.0
C649 C 0.48625 0.4257 0.29112 0.0
C650 C 0.38119 0.41272 0.12101 0.0
C651 C 0.36745 0.37741 0.11054 0.0
C652 C 0.40244 0.41924 0.16601 0.0
C653 C 0.41037 0.39059 0.2015 0.0
C654 C 0.3964 0.35535 0.19108 0.0
C655 C 0.37519 0.34885 0.14617 0.0
loop_
_geom_bond_atom_site_label_1
_geom_bond_atom_site_label_2
_geom_bond_distance
_geom_bond_site_symmetry_2
_ccdc_geom_bond_type
Zn0 O2 1.933 1_556 S
Zn0 O20 1.985 . S
Zn0 O31 1.955 . S
Zn1 O2 1.911 . S
Zn1 O21 1.970 . S
Zn1 O37 1.945 . S
Zn1 O44 1.981 . S
O2 Zn0 1.933 1_554 S
O2 Zn1 1.911 . S
O2 H3 0.841 1_655 S
H3 O2 0.841 1_455 S
C4 O5 1.246 . S
C4 O33 1.276 1_545 S
O5 C4 1.246 . S
Zn6 O8 1.911 . S
Zn6 O23 1.970 . S
Zn6 O40 1.945 . S
Zn6 O47 1.981 . S
Zn7 O8 1.933 1_556 S
Zn7 O22 1.985 . S
Zn7 O29 1.955 . S
O8 Zn6 1.911 . S
O8 Zn7 1.933 1_554 S
O8 H9 0.841 1_455 S
H9 O8 0.841 1_655 S
Zn10 O11 1.933 1_556 S
Zn10 O24 1.985 . S
Zn10 O33 1.955 . S
O11 Zn10 1.933 1_554 S
O11 Zn12 1.911 . S
O11 H13 0.841 1_565 S
Zn12 O11 1.911 . S
Zn12 O25 1.970 . S
Zn12 O41 1.981 . S
Zn12 O43 1.945 . S
H13 O11 0.841 1_545 S
Zn14 O15 1.933 1_556 S
Zn14 O27 1.985 . S
Zn14 O35 1.955 . S
O15 Zn14 1.933 1_554 S
O15 H16 0.841 1_545 S
O15 Zn17 1.911 . S
H16 O15 0.841 1_565 S
Zn17 O15 1.911 . S
Zn17 O28 1.970 . S
Zn17 O38 1.981 . S
Zn17 O46 1.945 . S
C18 O19 1.246 . S
C18 O35 1.276 1_565 S
O19 C18 1.246 . S
O20 Zn0 1.985 . S
O20 C30 1.245 1_556 S
O21 Zn1 1.970 . S
O21 C30 1.263 . S
O22 Zn7 1.985 . S
O22 C34 1.245 1_556 S
O23 Zn6 1.970 . S
O23 C34 1.263 . S
O24 Zn10 1.985 . S
O24 C39 1.245 1_556 S
O25 Zn12 1.970 . S
O25 C39 1.263 . S
C26 O37 1.262 1_455 S
C26 O38 1.245 . S
O27 Zn14 1.985 . S
O27 C45 1.245 1_556 S
O28 Zn17 1.970 . S
O28 C45 1.263 . S
O29 Zn7 1.955 . S
O29 C48 1.276 1_455 S
C30 O20 1.245 1_554 S
C30 O21 1.263 . S
O31 Zn0 1.955 . S
O31 C50 1.276 1_655 S
C32 O40 1.262 1_655 S
C32 O41 1.245 . S
O33 C4 1.276 1_565 S
O33 Zn10 1.955 . S
C34 O22 1.245 1_554 S
C34 O23 1.263 . S
O35 Zn14 1.955 . S
O35 C18 1.276 1_545 S
C36 O43 1.262 1_545 S
C36 O44 1.245 . S
O37 Zn1 1.945 . S
O37 C26 1.262 1_655 S
O38 Zn17 1.981 . S
O38 C26 1.245 . S
C39 O24 1.245 1_554 S
C39 O25 1.263 . S
O40 Zn6 1.945 . S
O40 C32 1.262 1_455 S
O41 Zn12 1.981 . S
O41 C32 1.245 . S
C42 O46 1.262 1_565 S
C42 O47 1.245 . S
O43 Zn12 1.945 . S
O43 C36 1.262 1_565 S
O44 Zn1 1.981 . S
O44 C36 1.245 . S
C45 O27 1.245 1_554 S
C45 O28 1.263 . S
O46 Zn17 1.945 . S
O46 C42 1.262 1_545 S
O47 Zn6 1.981 . S
O47 C42 1.245 . S
C48 O29 1.276 1_655 S
C48 O49 1.246 . S
O49 C48 1.246 . S
C50 O31 1.276 1_455 S
C50 O51 1.246 . S
O51 C50 1.246 . S
Zn52 O54 1.933 . S
Zn52 O72 1.985 . S
Zn52 O83 1.955 . S
Zn53 O54 1.911 . S
Zn53 O73 1.970 . S
Zn53 O89 1.945 . S
Zn53 O96 1.981 . S
O54 Zn52 1.933 . S
O54 Zn53 1.911 . S
O54 H55 0.841 . S
H55 O54 0.841 . S
C56 O57 1.246 . S
C56 O85 1.276 . S
O57 C56 1.246 . S
Zn58 O60 1.911 . S
Zn58 O75 1.970 . S
Zn58 O92 1.945 . S
Zn58 O99 1.981 . S
Zn59 O60 1.933 . S
Zn59 O74 1.985 . S
Zn59 O81 1.955 . S
O60 Zn58 1.911 . S
O60 Zn59 1.933 . S
O60 H61 0.841 . S
H61 O60 0.841 . S
Zn62 O63 1.933 . S
Zn62 O76 1.985 . S
Zn62 O85 1.955 . S
O63 Zn62 1.933 . S
O63 Zn64 1.911 . S
O63 H65 0.841 . S
Zn64 O63 1.911 . S
Zn64 O77 1.970 . S
Zn64 O93 1.981 . S
Zn64 O95 1.945 . S
H65 O63 0.841 . S
Zn66 O67 1.933 . S
Zn66 O79 1.985 . S
Zn66 O87 1.955 . S
O67 Zn66 1.933 . S
O67 H68 0.841 . S
O67 Zn69 1.911 . S
H68 O67 0.841 . S
Zn69 O67 1.911 . S
Zn69 O80 1.970 . S
Zn69 O90 1.981 . S
Zn69 O98 1.945 . S
C70 O71 1.246 . S
C70 O87 1.276 . S
O71 C70 1.246 . S
O72 Zn52 1.985 . S
O72 C82 1.245 . S
O73 Zn53 1.970 . S
O73 C82 1.263 . S
O74 Zn59 1.985 . S
O74 C86 1.245 . S
O75 Zn58 1.970 . S
O75 C86 1.263 . S
O76 Zn62 1.985 . S
O76 C91 1.245 . S
O77 Zn64 1.970 . S
O77 C91 1.263 . S
C78 O89 1.262 . S
C78 O90 1.245 . S
O79 Zn66 1.985 . S
O79 C97 1.245 . S
O80 Zn69 1.970 . S
O80 C97 1.263 . S
O81 Zn59 1.955 . S
O81 C100 1.276 . S
C82 O72 1.245 . S
C82 O73 1.263 . S
O83 Zn52 1.955 . S
O83 C102 1.276 . S
C84 O92 1.262 . S
C84 O93 1.245 . S
O85 C56 1.276 . S
O85 Zn62 1.955 . S
C86 O74 1.245 . S
C86 O75 1.263 . S
O87 Zn66 1.955 . S
O87 C70 1.276 . S
C88 O95 1.262 . S
C88 O96 1.245 . S
O89 Zn53 1.945 . S
O89 C78 1.262 . S
O90 Zn69 1.981 . S
O90 C78 1.245 . S
C91 O76 1.245 . S
C91 O77 1.263 . S
O92 Zn58 1.945 . S
O92 C84 1.262 . S
O93 Zn64 1.981 . S
O93 C84 1.245 . S
C94 O98 1.262 . S
C94 O99 1.245 . S
O95 Zn64 1.945 . S
O95 C88 1.262 . S
O96 Zn53 1.981 . S
O96 C88 1.245 . S
C97 O79 1.245 . S
C97 O80 1.263 . S
O98 Zn69 1.945 . S
O98 C94 1.262 . S
O99 Zn58 1.981 . S
O99 C94 1.245 . S
C100 O81 1.276 . S
C100 O101 1.246 . S
O101 C100 1.246 . S
C102 O83 1.276 . S
C102 O103 1.246 . S
O103 C102 1.246 . S
H104 C107 0.931 . S
H105 C110 0.928 . S
H106 C112 0.930 . S
C107 H104 0.931 . S
C107 C108 1.413 1_554 S
C107 C109 1.360 . S
C108 C107 1.413 1_556 S
C108 C112 1.429 . S
C109 C107 1.360 . S
C109 C110 1.372 . S
C110 H105 0.928 . S
C110 C109 1.372 . S
C110 C111 1.404 . S
C111 C110 1.404 . S
C111 C112 1.391 1_554 S
C112 H106 0.930 . S
C112 C108 1.429 . S
C112 C111 1.391 1_556 S
H113 C116 0.931 . S
H114 C119 0.928 . S
H115 C121 0.930 . S
C116 H113 0.931 . S
C116 C117 1.413 1_554 S
C116 C118 1.360 . S
C117 C116 1.413 1_556 S
C117 C121 1.429 . S
C118 C116 1.360 . S
C118 C119 1.372 . S
C119 H114 0.928 . S
C119 C118 1.372 . S
C119 C120 1.404 . S
C120 C119 1.404 . S
C120 C121 1.391 1_554 S
C121 H115 0.930 . S
C121 C117 1.429 . S
C121 C120 1.391 1_556 S
H122 C125 0.931 . S
H123 C128 0.928 . S
H124 C130 0.930 . S
C125 H122 0.931 . S
C125 C126 1.413 . S
C125 C127 1.360 1_554 S
C126 C125 1.413 . S
C126 C130 1.429 . S
C127 C125 1.360 1_556 S
C127 C128 1.372 . S
C128 H123 0.928 . S
C128 C127 1.372 . S
C128 C129 1.404 1_556 S
C129 C128 1.404 1_554 S
C129 C130 1.391 . S
C130 H124 0.930 . S
C130 C126 1.429 . S
C130 C129 1.391 . S
H131 C134 0.931 . S
H132 C137 0.928 . S
H133 C139 0.930 . S
C134 H131 0.931 . S
C134 C135 1.413 1_554 S
C134 C136 1.360 . S
C135 C134 1.413 1_556 S
C135 C139 1.429 . S
C136 C134 1.360 . S
C136 C137 1.372 . S
C137 H132 0.928 . S
C137 C136 1.372 . S
C137 C138 1.404 . S
C138 C137 1.404 . S
C138 C139 1.391 1_554 S
C139 H133 0.930 . S
C139 C135 1.429 . S
C139 C138 1.391 1_556 S
H140 C143 0.931 . S
H141 C146 0.928 . S
H142 C148 0.930 . S
C143 H140 0.931 . S
C143 C144 1.413 . S
C143 C145 1.360 . S
C144 C143 1.413 . S
C144 C148 1.429 . S
C145 C143 1.360 . S
C145 C146 1.372 . S
C146 H141 0.928 . S
C146 C145 1.372 . S
C146 C147 1.404 . S
C147 C146 1.404 . S
C147 C148 1.391 . S
C148 H142 0.930 . S
C148 C144 1.429 . S
C148 C147 1.391 . S
H149 C152 0.931 . S
H150 C155 0.928 . S
H151 C157 0.930 . S
C152 H149 0.931 . S
C152 C153 1.413 . S
C152 C154 1.360 . S
C153 C152 1.413 . S
C153 C157 1.429 . S
C154 C152 1.360 . S
C154 C155 1.372 . S
C155 H150 0.928 . S
C155 C154 1.372 . S
C155 C156 1.404 . S
C156 C155 1.404 . S
C156 C157 1.391 . S
C157 H151 0.930 . S
C157 C153 1.429 . S
C157 C156 1.391 . S
H158 C161 0.931 . S
H159 C164 0.928 . S
H160 C166 0.930 . S
C161 H158 0.931 . S
C161 C162 1.413 . S
C161 C163 1.360 . S
C162 C161 1.413 . S
C162 C166 1.429 . S
C163 C161 1.360 . S
C163 C164 1.372 . S
C164 H159 0.928 . S
C164 C163 1.372 . S
C164 C165 1.404 . S
C165 C164 1.404 . S
C165 C166 1.391 . S
C166 H160 0.930 . S
C166 C162 1.429 . S
C166 C165 1.391 . S
H167 C170 0.931 . S
H168 C173 0.928 . S
H169 C175 0.930 . S
C170 H167 0.931 . S
C170 C171 1.413 . S
C170 C172 1.360 . S
C171 C170 1.413 . S
C171 C175 1.429 . S
C172 C170 1.360 . S
C172 C173 1.372 . S
C173 H168 0.928 . S
C173 C172 1.372 . S
C173 C174 1.404 . S
C174 C173 1.404 . S
C174 C175 1.391 . S
C175 H169 0.930 . S
C175 C171 1.429 . S
C175 C174 1.391 . S
H176 C184 0.950 . S
H177 C189 0.950 . S
H178 C186 0.950 . S
H179 C188 0.950 . S
H180 C190 0.950 . S
H181 C192 0.950 . S
H182 C194 0.950 . S
H183 C195 0.950 . S
C184 H176 0.950 . S
C184 C185 1.386 1_556 S
C184 C186 1.391 . S
C185 C184 1.386 1_554 S
C185 C189 1.393 . S
C186 H178 0.950 . S
C186 C184 1.391 . S
C186 C187 1.400 1_556 S
C187 C186 1.400 1_554 S
C187 C188 1.398 . S
C187 C193 1.491 . S
C188 H179 0.950 . S
C188 C187 1.398 . S
C188 C189 1.391 . S
C189 H177 0.950 . S
C189 C185 1.393 . S
C189 C188 1.391 . S
C190 H180 0.950 . S
C190 C191 1.386 . S
C190 C192 1.391 . S
C191 C190 1.386 . S
C191 C195 1.393 1_554 S
C192 H181 0.950 . S
C192 C190 1.391 . S
C192 C193 1.400 . S
C193 C187 1.491 . S
C193 C192 1.400 . S
C193 C194 1.398 1_554 S
C194 H182 0.950 . S
C194 C193 1.398 1_556 S
C194 C195 1.391 . S
C195 H183 0.950 . S
C195 C191 1.393 1_556 S
C195 C194 1.391 . S
H196 C204 0.950 . S
H197 C209 0.950 . S
H198 C206 0.950 . S
H199 C208 0.950 . S
H200 C210 0.950 . S
H201 C212 0.950 . S
H202 C214 0.950 . S
H203 C215 0.950 . S
C204 H196 0.950 . S
C204 C205 1.386 1_556 S
C204 C206 1.391 . S
C205 C204 1.386 1_554 S
C205 C209 1.393 . S
C206 H198 0.950 . S
C206 C204 1.391 . S
C206 C207 1.400 1_556 S
C207 C206 1.400 1_554 S
C207 C208 1.398 . S
C207 C213 1.491 . S
C208 H199 0.950 . S
C208 C207 1.398 . S
C208 C209 1.391 . S
C209 H197 0.950 . S
C209 C205 1.393 . S
C209 C208 1.391 . S
C210 H200 0.950 . S
C210 C211 1.386 . S
C210 C212 1.391 . S
C211 C210 1.386 . S
C211 C215 1.393 1_554 S
C212 H201 0.950 . S
C212 C210 1.391 . S
C212 C213 1.400 . S
C213 C207 1.491 . S
C213 C212 1.400 . S
C213 C214 1.398 1_554 S
C214 H202 0.950 . S
C214 C213 1.398 1_556 S
C214 C215 1.391 . S
C215 H203 0.950 . S
C215 C211 1.393 1_556 S
C215 C214 1.391 . S
H216 C224 0.950 . S
H217 C229 0.950 . S
H218 C226 0.950 . S
H219 C228 0.950 . S
H220 C230 0.950 . S
H221 C232 0.950 . S
H222 C234 0.950 . S
H223 C235 0.950 . S
C224 H216 0.950 . S
C224 C225 1.386 1_556 S
C224 C226 1.391 . S
C225 C224 1.386 1_554 S
C225 C229 1.393 . S
C226 H218 0.950 . S
C226 C224 1.391 . S
C226 C227 1.400 1_556 S
C227 C226 1.400 1_554 S
C227 C228 1.398 . S
C227 C233 1.491 . S
C228 H219 0.950 . S
C228 C227 1.398 . S
C228 C229 1.391 . S
C229 H217 0.950 . S
C229 C225 1.393 . S
C229 C228 1.391 . S
C230 H220 0.950 . S
C230 C231 1.386 . S
C230 C232 1.391 . S
C231 C230 1.386 . S
C231 C235 1.393 1_554 S
C232 H221 0.950 . S
C232 C230 1.391 . S
C232 C233 1.400 . S
C233 C227 1.491 . S
C233 C232 1.400 . S
C233 C234 1.398 1_554 S
C234 H222 0.950 . S
C234 C233 1.398 1_556 S
C234 C235 1.391 . S
C235 H223 0.950 . S
C235 C231 1.393 1_556 S
C235 C234 1.391 . S
H236 C244 0.950 . S
H237 C249 0.950 . S
H238 C246 0.950 . S
H239 C248 0.950 . S
H240 C250 0.950 . S
H241 C252 0.950 . S
H242 C254 0.950 . S
H243 C255 0.950 . S
C244 H236 0.950 . S
C244 C245 1.386 1_556 S
C244 C246 1.391 . S
C245 C244 1.386 1_554 S
C245 C249 1.393 . S
C246 H238 0.950 . S
C246 C244 1.391 . S
C246 C247 1.400 1_556 S
C247 C246 1.400 1_554 S
C247 C248 1.398 . S
C247 C253 1.491 . S
C248 H239 0.950 . S
C248 C247 1.398 . S
C248 C249 1.391 . S
C249 H237 0.950 . S
C249 C245 1.393 . S
C249 C248 1.391 . S
C250 H240 0.950 . S
C250 C251 1.386 . S
C250 C252 1.391 . S
C251 C250 1.386 . S
C251 C255 1.393 1_554 S
C252 H241 0.950 . S
C252 C250 1.391 . S
C252 C253 1.400 . S
C253 C247 1.491 . S
C253 C252 1.400 . S
C253 C254 1.398 1_554 S
C254 H242 0.950 . S
C254 C253 1.398 1_556 S
C254 C255 1.391 . S
C255 H243 0.950 . S
C255 C251 1.393 1_556 S
C255 C254 1.391 . S
H256 C264 0.950 . S
H257 C269 0.950 . S
H258 C266 0.950 . S
H259 C268 0.950 . S
H260 C270 0.950 . S
H261 C272 0.950 . S
H262 C274 0.950 . S
H263 C275 0.950 . S
C264 H256 0.950 . S
C264 C265 1.386 . S
C264 C266 1.391 . S
C265 C264 1.386 . S
C265 C269 1.393 . S
C266 H258 0.950 . S
C266 C264 1.391 . S
C266 C267 1.400 . S
C267 C266 1.400 . S
C267 C268 1.398 . S
C267 C273 1.491 . S
C268 H259 0.950 . S
C268 C267 1.398 . S
C268 C269 1.391 . S
C269 H257 0.950 . S
C269 C265 1.393 . S
C269 C268 1.391 . S
C270 H260 0.950 . S
C270 C271 1.386 . S
C270 C272 1.391 . S
C271 C270 1.386 . S
C271 C275 1.393 . S
C272 H261 0.950 . S
C272 C270 1.391 . S
C272 C273 1.400 . S
C273 C267 1.491 . S
C273 C272 1.400 . S
C273 C274 1.398 . S
C274 H262 0.950 . S
C274 C273 1.398 . S
C274 C275 1.391 . S
C275 H263 0.950 . S
C275 C271 1.393 . S
C275 C274 1.391 . S
H276 C284 0.950 . S
H277 C289 0.950 . S
H278 C286 0.950 . S
H279 C288 0.950 . S
H280 C290 0.950 . S
H281 C292 0.950 . S
H282 C294 0.950 . S
H283 C295 0.950 . S
C284 H276 0.950 . S
C284 C285 1.386 . S
C284 C286 1.391 . S
C285 C284 1.386 . S
C285 C289 1.393 . S
C286 H278 0.950 . S
C286 C284 1.391 . S
C286 C287 1.400 . S
C287 C286 1.400 . S
C287 C288 1.398 . S
C287 C293 1.491 . S
C288 H279 0.950 . S
C288 C287 1.398 . S
C288 C289 1.391 . S
C289 H277 0.950 . S
C289 C285 1.393 . S
C289 C288 1.391 . S
C290 H280 0.950 . S
C290 C291 1.386 . S
C290 C292 1.391 . S
C291 C290 1.386 . S
C291 C295 1.393 . S
C292 H281 0.950 . S
C292 C290 1.391 . S
C292 C293 1.400 . S
C293 C287 1.491 . S
C293 C292 1.400 . S
C293 C294 1.398 . S
C294 H282 0.950 . S
C294 C293 1.398 . S
C294 C295 1.391 . S
C295 H283 0.950 . S
C295 C291 1.393 . S
C295 C294 1.391 . S
H296 C304 0.950 . S
H297 C309 0.950 . S
H298 C306 0.950 . S
H299 C308 0.950 . S
H300 C310 0.950 . S
H301 C312 0.950 . S
H302 C314 0.950 . S
H303 C315 0.950 . S
C304 H296 0.950 . S
C304 C305 1.386 . S
C304 C306 1.391 . S
C305 C304 1.386 . S
C305 C309 1.393 . S
C306 H298 0.950 . S
C306 C304 1.391 . S
C306 C307 1.400 . S
C307 C306 1.400 . S
C307 C308 1.398 . S
C307 C313 1.491 . S
C308 H299 0.950 . S
C308 C307 1.398 . S
C308 C309 1.391 . S
C309 H297 0.950 . S
C309 C305 1.393 . S
C309 C308 1.391 . S
C310 H300 0.950 . S
C310 C311 1.386 . S
C310 C312 1.391 . S
C311 C310 1.386 . S
C311 C315 1.393 . S
C312 H301 0.950 . S
C312 C310 1.391 . S
C312 C313 1.400 . S
C313 C307 1.491 . S
C313 C312 1.400 . S
C313 C314 1.398 . S
C314 H302 0.950 . S
C314 C313 1.398 . S
C314 C315 1.391 . S
C315 H303 0.950 . S
C315 C311 1.393 . S
C315 C314 1.391 . S
H316 C324 0.950 . S
H317 C329 0.950 . S
H318 C326 0.950 . S
H319 C328 0.950 . S
H320 C330 0.950 . S
H321 C332 0.950 . S
H322 C334 0.950 . S
H323 C335 0.950 . S
C324 H316 0.950 . S
C324 C325 1.386 . S
C324 C326 1.391 . S
C325 C324 1.386 . S
C325 C329 1.393 . S
C326 H318 0.950 . S
C326 C324 1.391 . S
C326 C327 1.400 . S
C327 C326 1.400 . S
C327 C328 1.398 . S
C327 C333 1.491 . S
C328 H319 0.950 . S
C328 C327 1.398 . S
C328 C329 1.391 . S
C329 H317 0.950 . S
C329 C325 1.393 . S
C329 C328 1.391 . S
C330 H320 0.950 . S
C330 C331 1.386 . S
C330 C332 1.391 . S
C331 C330 1.386 . S
C331 C335 1.393 . S
C332 H321 0.950 . S
C332 C330 1.391 . S
C332 C333 1.400 . S
C333 C327 1.491 . S
C333 C332 1.400 . S
C333 C334 1.398 . S
C334 H322 0.950 . S
C334 C333 1.398 . S
C334 C335 1.391 . S
C335 H323 0.950 . S
C335 C331 1.393 . S
C335 C334 1.391 . S
H336 C344 0.950 . S
H337 C349 0.950 1_655 S
H338 C346 0.950 . S
H339 C348 0.950 . S
H340 C350 0.950 . S
H341 C352 0.950 . S
H342 C354 0.950 . S
H343 C355 0.950 . S
C344 H336 0.950 . S
C344 C345 1.386 . S
C344 C346 1.391 . S
C345 C344 1.386 . S
C345 C349 1.393 . S
C346 H338 0.950 . S
C346 C344 1.391 . S
C346 C347 1.400 . S
C347 C346 1.400 . S
C347 C348 1.398 . S
C347 C353 1.491 . S
C348 H339 0.950 . S
C348 C347 1.398 . S
C348 C349 1.391 . S
C349 H337 0.950 1_455 S
C349 C345 1.393 . S
C349 C348 1.391 . S
C350 H340 0.950 . S
C350 C351 1.386 . S
C350 C352 1.391 . S
C351 C350 1.386 . S
C351 C355 1.393 . S
C352 H341 0.950 . S
C352 C350 1.391 . S
C352 C353 1.400 . S
C353 C347 1.491 . S
C353 C352 1.400 . S
C353 C354 1.398 . S
C354 H342 0.950 . S
C354 C353 1.398 . S
C354 C355 1.391 . S
C355 H343 0.950 . S
C355 C351 1.393 . S
C355 C354 1.391 . S
H356 C364 0.950 . S
H357 C369 0.950 1_565 S
H358 C366 0.950 . S
H359 C368 0.950 . S
H360 C370 0.950 . S
H361 C372 0.950 . S
H362 C374 0.950 . S
H363 C375 0.950 . S
C364 H356 0.950 . S
C364 C365 1.386 . S
C364 C366 1.391 . S
C365 C364 1.386 . S
C365 C369 1.393 . S
C366 H358 0.950 . S
C366 C364 1.391 . S
C366 C367 1.400 . S
C367 C366 1.400 . S
C367 C368 1.398 . S
C367 C373 1.491 . S
C368 H359 0.950 . S
C368 C367 1.398 . S
C368 C369 1.391 . S
C369 H357 0.950 1_545 S
C369 C365 1.393 . S
C369 C368 1.391 . S
C370 H360 0.950 . S
C370 C371 1.386 . S
C370 C372 1.391 . S
C371 C370 1.386 . S
C371 C375 1.393 . S
C372 H361 0.950 . S
C372 C370 1.391 . S
C372 C373 1.400 . S
C373 C367 1.491 . S
C373 C372 1.400 . S
C373 C374 1.398 . S
C374 H362 0.950 . S
C374 C373 1.398 . S
C374 C375 1.391 . S
C375 H363 0.950 . S
C375 C371 1.393 . S
C375 C374 1.391 . S
H376 C384 0.950 . S
H377 C389 0.950 . S
H378 C386 0.950 . S
H379 C388 0.950 . S
H380 C390 0.950 . S
H381 C392 0.950 . S
H382 C394 0.950 . S
H383 C395 0.950 . S
C384 H376 0.950 . S
C384 C385 1.386 . S
C384 C386 1.391 . S
C385 C384 1.386 . S
C385 C389 1.393 . S
C386 H378 0.950 . S
C386 C384 1.391 . S
C386 C387 1.400 . S
C387 C386 1.400 . S
C387 C388 1.398 . S
C387 C393 1.491 . S
C388 H379 0.950 . S
C388 C387 1.398 . S
C388 C389 1.391 . S
C389 H377 0.950 . S
C389 C385 1.393 . S
C389 C388 1.391 . S
C390 H380 0.950 . S
C390 C391 1.386 . S
C390 C392 1.391 . S
C391 C390 1.386 . S
C391 C395 1.393 . S
C392 H381 0.950 . S
C392 C390 1.391 . S
C392 C393 1.400 . S
C393 C387 1.491 . S
C393 C392 1.400 . S
C393 C394 1.398 . S
C394 H382 0.950 . S
C394 C393 1.398 . S
C394 C395 1.391 . S
C395 H383 0.950 . S
C395 C391 1.393 . S
C395 C394 1.391 . S
H396 C404 0.950 . S
H397 C409 0.950 . S
H398 C406 0.950 . S
H399 C408 0.950 . S
H400 C410 0.950 . S
H401 C412 0.950 . S
H402 C414 0.950 . S
H403 C415 0.950 . S
C404 H396 0.950 . S
C404 C405 1.386 . S
C404 C406 1.391 . S
C405 C404 1.386 . S
C405 C409 1.393 . S
C406 H398 0.950 . S
C406 C404 1.391 . S
C406 C407 1.400 . S
C407 C406 1.400 . S
C407 C408 1.398 . S
C407 C413 1.491 . S
C408 H399 0.950 . S
C408 C407 1.398 . S
C408 C409 1.391 . S
C409 H397 0.950 . S
C409 C405 1.393 . S
C409 C408 1.391 . S
C410 H400 0.950 . S
C410 C411 1.386 . S
C410 C412 1.391 . S
C411 C410 1.386 . S
C411 C415 1.393 . S
C412 H401 0.950 . S
C412 C410 1.391 . S
C412 C413 1.400 . S
C413 C407 1.491 . S
C413 C412 1.400 . S
C413 C414 1.398 . S
C414 H402 0.950 . S
C414 C413 1.398 . S
C414 C415 1.391 . S
C415 H403 0.950 . S
C415 C411 1.393 . S
C415 C414 1.391 . S
H416 C424 0.950 . S
H417 C429 0.950 1_545 S
H418 C426 0.950 . S
H419 C428 0.950 . S
H420 C430 0.950 . S
H421 C432 0.950 . S
H422 C434 0.950 . S
H423 C435 0.950 . S
C424 H416 0.950 . S
C424 C425 1.386 . S
C424 C426 1.391 . S
C425 C424 1.386 . S
C425 C429 1.393 . S
C426 H418 0.950 . S
C426 C424 1.391 . S
C426 C427 1.400 . S
C427 C426 1.400 . S
C427 C428 1.398 . S
C427 C433 1.491 . S
C428 H419 0.950 . S
C428 C427 1.398 . S
C428 C429 1.391 . S
C429 H417 0.950 1_565 S
C429 C425 1.393 . S
C429 C428 1.391 . S
C430 H420 0.950 . S
C430 C431 1.386 . S
C430 C432 1.391 . S
C431 C430 1.386 . S
C431 C435 1.393 . S
C432 H421 0.950 . S
C432 C430 1.391 . S
C432 C433 1.400 . S
C433 C427 1.491 . S
C433 C432 1.400 . S
C433 C434 1.398 . S
C434 H422 0.950 . S
C434 C433 1.398 . S
C434 C435 1.391 . S
C435 H423 0.950 . S
C435 C431 1.393 . S
C435 C434 1.391 . S
H436 C444 0.950 . S
H437 C449 0.950 . S
H438 C446 0.950 . S
H439 C448 0.950 . S
H440 C450 0.950 . S
H441 C452 0.950 . S
H442 C454 0.950 . S
H443 C455 0.950 . S
C444 H436 0.950 . S
C444 C445 1.386 . S
C444 C446 1.391 . S
C445 C444 1.386 . S
C445 C449 1.393 . S
C446 H438 0.950 . S
C446 C444 1.391 . S
C446 C447 1.400 . S
C447 C446 1.400 . S
C447 C448 1.398 . S
C447 C453 1.491 . S
C448 H439 0.950 . S
C448 C447 1.398 . S
C448 C449 1.391 . S
C449 H437 0.950 . S
C449 C445 1.393 . S
C449 C448 1.391 . S
C450 H440 0.950 . S
C450 C451 1.386 . S
C450 C452 1.391 . S
C451 C450 1.386 . S
C451 C455 1.393 . S
C452 H441 0.950 . S
C452 C450 1.391 . S
C452 C453 1.400 . S
C453 C447 1.491 . S
C453 C452 1.400 . S
C453 C454 1.398 . S
C454 H442 0.950 . S
C454 C453 1.398 . S
C454 C455 1.391 . S
C455 H443 0.950 . S
C455 C451 1.393 . S
C455 C454 1.391 . S
H456 C464 0.950 . S
H457 C469 0.950 . S
H458 C466 0.950 . S
H459 C468 0.950 . S
H460 C470 0.950 . S
H461 C472 0.950 . S
H462 C474 0.950 . S
H463 C475 0.950 . S
C464 H456 0.950 . S
C464 C465 1.386 . S
C464 C466 1.391 . S
C465 C464 1.386 . S
C465 C469 1.393 . S
C466 H458 0.950 . S
C466 C464 1.391 . S
C466 C467 1.400 . S
C467 C466 1.400 . S
C467 C468 1.398 . S
C467 C473 1.491 . S
C468 H459 0.950 . S
C468 C467 1.398 . S
C468 C469 1.391 . S
C469 H457 0.950 . S
C469 C465 1.393 . S
C469 C468 1.391 . S
C470 H460 0.950 . S
C470 C471 1.386 . S
C470 C472 1.391 . S
C471 C470 1.386 . S
C471 C475 1.393 . S
C472 H461 0.950 . S
C472 C470 1.391 . S
C472 C473 1.400 . S
C473 C467 1.491 . S
C473 C472 1.400 . S
C473 C474 1.398 . S
C474 H462 0.950 . S
C474 C473 1.398 . S
C474 C475 1.391 . S
C475 H463 0.950 . S
C475 C471 1.393 . S
C475 C474 1.391 . S
H476 C484 0.950 . S
H477 C489 0.950 1_455 S
H478 C486 0.950 . S
H479 C488 0.950 . S
H480 C490 0.950 . S
H481 C492 0.950 . S
H482 C494 0.950 . S
H483 C495 0.950 . S
C484 H476 0.950 . S
C484 C485 1.386 . S
C484 C486 1.391 . S
C485 C484 1.386 . S
C485 C489 1.393 . S
C486 H478 0.950 . S
C486 C484 1.391 . S
C486 C487 1.400 . S
C487 C486 1.400 . S
C487 C488 1.398 . S
C487 C493 1.491 . S
C488 H479 0.950 . S
C488 C487 1.398 . S
C488 C489 1.391 . S
C489 H477 0.950 1_655 S
C489 C485 1.393 . S
C489 C488 1.391 . S
C490 H480 0.950 . S
C490 C491 1.386 . S
C490 C492 1.391 . S
C491 C490 1.386 . S
C491 C495 1.393 . S
C492 H481 0.950 . S
C492 C490 1.391 . S
C492 C493 1.400 . S
C493 C487 1.491 . S
C493 C492 1.400 . S
C493 C494 1.398 . S
C494 H482 0.950 . S
C494 C493 1.398 . S
C494 C495 1.391 . S
C495 H483 0.950 . S
C495 C491 1.393 . S
C495 C494 1.391 . S
H496 C504 0.950 . S
H497 C509 0.950 . S
H498 C506 0.950 . S
H499 C508 0.950 . S
H500 C510 0.950 . S
H501 C512 0.950 . S
H502 C514 0.950 . S
H503 C515 0.950 . S
C504 H496 0.950 . S
C504 C505 1.386 . S
C504 C506 1.391 . S
C505 C504 1.386 . S
C505 C509 1.393 . S
C506 H498 0.950 . S
C506 C504 1.391 . S
C506 C507 1.400 . S
C507 C506 1.400 . S
C507 C508 1.398 . S
C507 C513 1.491 . S
C508 H499 0.950 . S
C508 C507 1.398 . S
C508 C509 1.391 . S
C509 H497 0.950 . S
C509 C505 1.393 . S
C509 C508 1.391 . S
C510 H500 0.950 . S
C510 C511 1.386 . S
C510 C512 1.391 . S
C511 C510 1.386 . S
C511 C515 1.393 . S
C512 H501 0.950 . S
C512 C510 1.391 . S
C512 C513 1.400 . S
C513 C507 1.491 . S
C513 C512 1.400 . S
C513 C514 1.398 . S
C514 H502 0.950 . S
C514 C513 1.398 . S
C514 C515 1.391 . S
C515 H503 0.950 . S
C515 C511 1.393 . S
C515 C514 1.391 . S
H516 C524 0.950 . S
H517 C529 0.950 . S
H518 C526 0.950 . S
H519 C528 0.950 . S
H520 C530 0.950 . S
H521 C532 0.950 . S
H522 C534 0.950 . S
H523 C535 0.950 . S
C524 H516 0.950 . S
C524 C525 1.386 . S
C524 C526 1.391 . S
C525 C524 1.386 . S
C525 C529 1.393 . S
C526 H518 0.950 . S
C526 C524 1.391 . S
C526 C527 1.400 . S
C527 C526 1.400 . S
C527 C528 1.398 . S
C527 C533 1.491 . S
C528 H519 0.950 . S
C528 C527 1.398 . S
C528 C529 1.391 . S
C529 H517 0.950 . S
C529 C525 1.393 . S
C529 C528 1.391 . S
C530 H520 0.950 . S
C530 C531 1.386 . S
C530 C532 1.391 . S
C531 C530 1.386 . S
C531 C535 1.393 . S
C532 H521 0.950 . S
C532 C530 1.391 . S
C532 C533 1.400 . S
C533 C527 1.491 . S
C533 C532 1.400 . S
C533 C534 1.398 . S
C534 H522 0.950 . S
C534 C533 1.398 . S
C534 C535 1.391 . S
C535 H523 0.950 . S
C535 C531 1.393 . S
C535 C534 1.391 . S
H536 C544 0.950 . S
H537 C549 0.950 . S
H538 C546 0.950 . S
H539 C548 0.950 . S
H540 C550 0.950 . S
H541 C552 0.950 . S
H542 C554 0.950 . S
H543 C555 0.950 . S
C544 H536 0.950 . S
C544 C545 1.386 . S
C544 C546 1.391 . S
C545 C544 1.386 . S
C545 C549 1.393 . S
C546 H538 0.950 . S
C546 C544 1.391 . S
C546 C547 1.400 . S
C547 C546 1.400 . S
C547 C548 1.398 . S
C547 C553 1.491 . S
C548 H539 0.950 . S
C548 C547 1.398 . S
C548 C549 1.391 . S
C549 H537 0.950 . S
C549 C545 1.393 . S
C549 C548 1.391 . S
C550 H540 0.950 . S
C550 C551 1.386 . S
C550 C552 1.391 . S
C551 C550 1.386 . S
C551 C555 1.393 . S
C552 H541 0.950 . S
C552 C550 1.391 . S
C552 C553 1.400 . S
C553 C547 1.491 . S
C553 C552 1.400 . S
C553 C554 1.398 . S
C554 H542 0.950 . S
C554 C553 1.398 . S
C554 C555 1.391 . S
C555 H543 0.950 . S
C555 C551 1.393 . S
C555 C554 1.391 . S
H556 C564 0.950 . S
H557 C569 0.950 . S
H558 C566 0.950 . S
H559 C568 0.950 . S
H560 C570 0.950 . S
H561 C572 0.950 . S
H562 C574 0.950 . S
H563 C575 0.950 . S
C564 H556 0.950 . S
C564 C565 1.386 . S
C564 C566 1.391 . S
C565 C564 1.386 . S
C565 C569 1.393 . S
C566 H558 0.950 . S
C566 C564 1.391 . S
C566 C567 1.400 . S
C567 C566 1.400 . S
C567 C568 1.398 . S
C567 C573 1.491 . S
C568 H559 0.950 . S
C568 C567 1.398 . S
C568 C569 1.391 . S
C569 H557 0.950 . S
C569 C565 1.393 . S
C569 C568 1.391 . S
C570 H560 0.950 . S
C570 C571 1.386 . S
C570 C572 1.391 . S
C571 C570 1.386 . S
C571 C575 1.393 . S
C572 H561 0.950 . S
C572 C570 1.391 . S
C572 C573 1.400 . S
C573 C567 1.491 . S
C573 C572 1.400 . S
C573 C574 1.398 . S
C574 H562 0.950 . S
C574 C573 1.398 . S
C574 C575 1.391 . S
C575 H563 0.950 . S
C575 C571 1.393 . S
C575 C574 1.391 . S
H576 C584 0.950 . S
H577 C589 0.950 . S
H578 C586 0.950 . S
H579 C588 0.950 . S
H580 C590 0.950 . S
H581 C592 0.950 . S
H582 C594 0.950 . S
H583 C595 0.950 . S
C584 H576 0.950 . S
C584 C585 1.386 . S
C584 C586 1.391 . S
C585 C584 1.386 . S
C585 C589 1.393 . S
C586 H578 0.950 . S
C586 C584 1.391 . S
C586 C587 1.400 . S
C587 C586 1.400 . S
C587 C588 1.398 . S
C587 C593 1.491 . S
C588 H579 0.950 . S
C588 C587 1.398 . S
C588 C589 1.391 . S
C589 H577 0.950 . S
C589 C585 1.393 . S
C589 C588 1.391 . S
C590 H580 0.950 . S
C590 C591 1.386 . S
C590 C592 1.391 . S
C591 C590 1.386 . S
C591 C595 1.393 . S
C592 H581 0.950 . S
C592 C590 1.391 . S
C592 C593 1.400 . S
C593 C587 1.491 . S
C593 C592 1.400 . S
C593 C594 1.398 . S
C594 H582 0.950 . S
C594 C593 1.398 . S
C594 C595 1.391 . S
C595 H583 0.950 . S
C595 C591 1.393 . S
C595 C594 1.391 . S
H596 C604 0.950 . S
H597 C609 0.950 . S
H598 C606 0.950 . S
H599 C608 0.950 . S
H600 C610 0.950 . S
H601 C612 0.950 . S
H602 C614 0.950 . S
H603 C615 0.950 . S
C604 H596 0.950 . S
C604 C605 1.386 . S
C604 C606 1.391 . S
C605 C604 1.386 . S
C605 C609 1.393 . S
C606 H598 0.950 . S
C606 C604 1.391 . S
C606 C607 1.400 . S
C607 C606 1.400 . S
C607 C608 1.398 . S
C607 C613 1.491 . S
C608 H599 0.950 . S
C608 C607 1.398 . S
C608 C609 1.391 . S
C609 H597 0.950 . S
C609 C605 1.393 . S
C609 C608 1.391 . S
C610 H600 0.950 . S
C610 C611 1.386 . S
C610 C612 1.391 . S
C611 C610 1.386 . S
C611 C615 1.393 . S
C612 H601 0.950 . S
C612 C610 1.391 . S
C612 C613 1.400 . S
C613 C607 1.491 . S
C613 C612 1.400 . S
C613 C614 1.398 . S
C614 H602 0.950 . S
C614 C613 1.398 . S
C614 C615 1.391 . S
C615 H603 0.950 . S
C615 C611 1.393 . S
C615 C614 1.391 . S
H616 C624 0.950 . S
H617 C629 0.950 . S
H618 C626 0.950 . S
H619 C628 0.950 . S
H620 C630 0.950 . S
H621 C632 0.950 . S
H622 C634 0.950 . S
H623 C635 0.950 . S
C624 H616 0.950 . S
C624 C625 1.386 . S
C624 C626 1.391 . S
C625 C624 1.386 . S
C625 C629 1.393 . S
C626 H618 0.950 . S
C626 C624 1.391 . S
C626 C627 1.400 . S
C627 C626 1.400 . S
C627 C628 1.398 . S
C627 C633 1.491 . S
C628 H619 0.950 . S
C628 C627 1.398 . S
C628 C629 1.391 . S
C629 H617 0.950 . S
C629 C625 1.393 . S
C629 C628 1.391 . S
C630 H620 0.950 . S
C630 C631 1.386 . S
C630 C632 1.391 . S
C631 C630 1.386 . S
C631 C635 1.393 . S
C632 H621 0.950 . S
C632 C630 1.391 . S
C632 C633 1.400 . S
C633 C627 1.491 . S
C633 C632 1.400 . S
C633 C634 1.398 . S
C634 H622 0.950 . S
C634 C633 1.398 . S
C634 C635 1.391 . S
C635 H623 0.950 . S
C635 C631 1.393 . S
C635 C634 1.391 . S
H636 C644 0.950 . S
H637 C649 0.950 . S
H638 C646 0.950 . S
H639 C648 0.950 . S
H640 C650 0.950 . S
H641 C652 0.950 . S
H642 C654 0.950 . S
H643 C655 0.950 . S
C644 H636 0.950 . S
C644 C645 1.386 . S
C644 C646 1.391 . S
C645 C644 1.386 . S
C645 C649 1.393 . S
C646 H638 0.950 . S
C646 C644 1.391 . S
C646 C647 1.400 . S
C647 C646 1.400 . S
C647 C648 1.398 . S
C647 C653 1.491 . S
C648 H639 0.950 . S
C648 C647 1.398 . S
C648 C649 1.391 . S
C649 H637 0.950 . S
C649 C645 1.393 . S
C649 C648 1.391 . S
C650 H640 0.950 . S
C650 C651 1.386 . S
C650 C652 1.391 . S
C651 C650 1.386 . S
C651 C655 1.393 . S
C652 H641 0.950 . S
C652 C650 1.391 . S
C652 C653 1.400 . S
C653 C647 1.491 . S
C653 C652 1.400 . S
C653 C654 1.398 . S
C654 H642 0.950 . S
C654 C653 1.398 . S
C654 C655 1.391 . S
C655 H643 0.950 . S
C655 C651 1.393 . S
C655 C654 1.391 . S
C185 C45 1.549 . S
C191 C111 1.558 . S
C205 C30 1.551 . S
C211 C120 1.559 . S
C225 C39 1.551 . S
C231 C129 1.557 . S
C251 C138 1.559 . S
C245 C34 1.551 . S
C265 C97 1.539 . S
C271 C147 1.551 . S
C291 C156 1.551 . S
C285 C82 1.538 . S
C311 C165 1.555 . S
C305 C91 1.550 . S
C331 C174 1.556 . S
C325 C86 1.545 . S
C351 C163 1.457 . S
C345 C26 1.415 . S
C371 C171 1.463 . S
C365 C36 1.420 . S
C391 C144 1.463 . S
C385 C32 1.418 . S
C411 C153 1.464 . S
C405 C42 1.422 . S
C425 C18 1.502 . S
C431 C154 1.550 . S
C451 C162 1.535 . S
C445 C50 1.480 . S
C465 C4 1.475 . S
C471 C172 1.537 . S
C485 C48 1.498 . S
C491 C145 1.548 . S
C511 C127 1.464 . S
C505 C78 1.429 . S
C525 C88 1.430 . S
C531 C135 1.468 . S
C551 C108 1.467 . S
C545 C84 1.427 . S
C571 C117 1.467 . S
C565 C94 1.429 . S
C591 C118 1.539 . S
C585 C70 1.479 . S
C611 C126 1.544 . S
C605 C102 1.499 . S
C625 C56 1.502 . S
C631 C136 1.550 . S
C645 C100 1.497 . S
C651 C109 1.547 . S
