# Generated by pormake.
# Topology wbl, (4,4)-cn, num edge types: 1
# Building blocks:
#     Node 0, Type 0, BuildingBlock: MUDLON_clean_linker_0, # of connection points: 4
#     Node 1, Type 0, BuildingBlock: MUDLON_clean_linker_0, # of connection points: 4
#     Node 2, Type 0, BuildingBlock: MUDLON_clean_linker_0, # of connection points: 4
#     Node 3, Type 0, BuildingBlock: MUDLON_clean_linker_0, # of connection points: 4
#     Node 4, Type 0, BuildingBlock: MUDLON_clean_linker_0, # of connection points: 4
#     Node 5, Type 0, BuildingBlock: MUDLON_clean_linker_0, # of connection points: 4
#     Node 6, Type 0, BuildingBlock: MUDLON_clean_linker_0, # of connection points: 4
#     Node 7, Type 0, BuildingBlock: MUDLON_clean_linker_0, # of connection points: 4
#     Node 8, Type 1, BuildingBlock: QUQFOY_clean_sbu_1, # of connection points: 4
#     Node 9, Type 1, BuildingBlock: QUQFOY_clean_sbu_1, # of connection points: 4
#     Node 10, Type 1, BuildingBlock: QUQFOY_clean_sbu_1, # of connection points: 4
#     Node 11, Type 1, BuildingBlock: QUQFOY_clean_sbu_1, # of connection points: 4
#     Node 12, Type 1, BuildingBlock: QUQFOY_clean_sbu_1, # of connection points: 4
#     Node 13, Type 1, BuildingBlock: QUQFOY_clean_sbu_1, # of connection points: 4
#     Node 14, Type 1, BuildingBlock: QUQFOY_clean_sbu_1, # of connection points: 4
#     Node 15, Type 1, BuildingBlock: QUQFOY_clean_sbu_1, # of connection points: 4
#     Edge 16, Type (0, 1), BuildingBlock: EZIPEK_clean_linker_0, # of connection points: 2
#     Edge 17, Type (0, 1), BuildingBlock: EZIPEK_clean_linker_0, # of connection points: 2
#     Edge 18, Type (0, 1), BuildingBlock: EZIPEK_clean_linker_0, # of connection points: 2
#     Edge 19, Type (0, 1), BuildingBlock: EZIPEK_clean_linker_0, # of connection points: 2
#     Edge 20, Type (0, 1), BuildingBlock: EZIPEK_clean_linker_0, # of connection points: 2
#     Edge 21, Type (0, 1), BuildingBlock: EZIPEK_clean_linker_0, # of connection points: 2
#     Edge 22, Type (0, 1), BuildingBlock: EZIPEK_clean_linker_0, # of connection points: 2
#     Edge 23, Type (0, 1), BuildingBlock: EZIPEK_clean_linker_0, # of connection points: 2
#     Edge 24, Type (0, 1), BuildingBlock: EZIPEK_clean_linker_0, # of connection points: 2
#     Edge 25, Type (0, 1), BuildingBlock: EZIPEK_clean_linker_0, # of connection points: 2
#     Edge 26, Type (0, 1), BuildingBlock: EZIPEK_clean_linker_0, # of connection points: 2
#     Edge 27, Type (0, 1), BuildingBlock: EZIPEK_clean_linker_0, # of connection points: 2
#     Edge 28, Type (0, 1), BuildingBlock: EZIPEK_clean_linker_0, # of connection points: 2
#     Edge 29, Type (0, 1), BuildingBlock: EZIPEK_clean_linker_0, # of connection points: 2
#     Edge 30, Type (0, 1), BuildingBlock: EZIPEK_clean_linker_0, # of connection points: 2
#     Edge 31, Type (0, 1), BuildingBlock: EZIPEK_clean_linker_0, # of connection points: 2
#     Edge 32, Type (0, 1), BuildingBlock: EZIPEK_clean_linker_0, # of connection points: 2
#     Edge 33, Type (0, 1), BuildingBlock: EZIPEK_clean_linker_0, # of connection points: 2
#     Edge 34, Type (0, 1), BuildingBlock: EZIPEK_clean_linker_0, # of connection points: 2
#     Edge 35, Type (0, 1), BuildingBlock: EZIPEK_clean_linker_0, # of connection points: 2
#     Edge 36, Type (0, 1), BuildingBlock: EZIPEK_clean_linker_0, # of connection points: 2
#     Edge 37, Type (0, 1), BuildingBlock: EZIPEK_clean_linker_0, # of connection points: 2
#     Edge 38, Type (0, 1), BuildingBlock: EZIPEK_clean_linker_0, # of connection points: 2
#     Edge 39, Type (0, 1), BuildingBlock: EZIPEK_clean_linker_0, # of connection points: 2
#     Edge 40, Type (0, 1), BuildingBlock: EZIPEK_clean_linker_0, # of connection points: 2
#     Edge 41, Type (0, 1), BuildingBlock: EZIPEK_clean_linker_0, # of connection points: 2
#     Edge 42, Type (0, 1), BuildingBlock: EZIPEK_clean_linker_0, # of connection points: 2
#     Edge 43, Type (0, 1), BuildingBlock: EZIPEK_clean_linker_0, # of connection points: 2
#     Edge 44, Type (0, 1), BuildingBlock: EZIPEK_clean_linker_0, # of connection points: 2
#     Edge 45, Type (0, 1), BuildingBlock: EZIPEK_clean_linker_0, # of connection points: 2
#     Edge 46, Type (0, 1), BuildingBlock: EZIPEK_clean_linker_0, # of connection points: 2
#     Edge 47, Type (0, 1), BuildingBlock: EZIPEK_clean_linker_0, # of connection points: 2
# Relax obj value: 0.139
# Max RMSD: 0.212
# Mean RMSD: 0.165
data_MOF--net-wbl--node1-QUQFOY_clean_sbu_1--node2-MUDLON_clean_linker_0--edge1-EZIPEK_clean_linker_0
_symmetry_space_group_name_H-M    P1
_symmetry_Int_Tables_number       1
_symmetry_cell_setting            triclinic
loop_
_symmetry_equiv_pos_as_xyz
'x, y, z'
_cell_length_a     43.180707
_cell_length_b     43.217598
_cell_length_c     63.200711
_cell_angle_alpha  93.703531
_cell_angle_beta   93.689467
_cell_angle_gamma 90.220582
loop_
_atom_site_label
_atom_site_type_symbol
_atom_site_fract_x
_atom_site_fract_y
_atom_site_fract_z
_atom_type_partial_charge
H0 H 0.2247 0.97412 0.37025 0.0
N1 N 0.1741 0.95582 0.3438 0.0
H2 H 0.23245 0.96556 0.40813 0.0
H3 H 0.13489 0.92952 0.36813 0.0
H4 H 0.14231 0.92183 0.40637 0.0
H5 H 0.18605 0.89859 0.3292 0.0
H6 H 0.23395 0.87974 0.31399 0.0
H7 H 0.22086 0.99249 0.33049 0.0
H8 H 0.26833 0.97362 0.31529 0.0
H9 H 0.19023 0.0163 0.3555 0.0
H10 H 0.11907 0.95758 0.32284 0.0
H11 H 0.15674 0.06139 0.3518 0.0
H12 H 0.08494 0.00263 0.31983 0.0
H13 H 0.98808 0.11619 0.36338 0.0
H14 H 0.97242 0.13779 0.39768 0.0
H15 H 0.04718 0.20462 0.40051 0.0
H16 H 0.06321 0.18275 0.36591 0.0
H17 H 0.99826 0.08859 0.32295 0.0
H18 H 0.94768 0.09283 0.3042 0.0
H19 H 0.95823 0.19216 0.30627 0.0
H20 H 0.00962 0.18817 0.32487 0.0
H21 H 0.08866 0.13622 0.32269 0.0
H22 H 0.12516 0.09266 0.32038 0.0
H23 H 0.06282 0.03704 0.3531 0.0
N24 N 0.03469 0.13806 0.34075 0.0
H25 H 0.02722 0.08042 0.356 0.0
C26 C 0.17933 0.95184 0.36624 0.0
C27 C 0.20664 0.96251 0.37787 0.0
C28 C 0.21102 0.95782 0.39952 0.0
C29 C 0.188 0.94297 0.40995 0.0
C30 C 0.16035 0.93323 0.39853 0.0
C31 C 0.15617 0.9375 0.37681 0.0
C32 C 0.19965 0.94684 0.33112 0.0
C33 C 0.20352 0.91518 0.32563 0.0
C34 C 0.23075 0.90445 0.31698 0.0
C35 C 0.25457 0.92534 0.3136 0.0
C36 C 0.25006 0.95723 0.31772 0.0
C37 C 0.22284 0.96796 0.32648 0.0
C38 C 0.1573 0.98353 0.33902 0.0
C39 C 0.16782 0.0132 0.34693 0.0
C40 C 0.14862 0.03896 0.34495 0.0
C41 C 0.11837 0.03535 0.33555 0.0
C42 C 0.10823 0.00593 0.32712 0.0
C43 C 0.12767 0.98031 0.32871 0.0
C44 C 0.02709 0.1478 0.36208 0.0
C45 C 0.00166 0.13499 0.37147 0.0
C46 C 0.99256 0.14741 0.39099 0.0
C47 C 0.00866 0.17273 0.40149 0.0
C48 C 0.0346 0.18498 0.39257 0.0
C49 C 0.04374 0.17252 0.37298 0.0
C50 C 0.00812 0.13829 0.32557 0.0
C51 C 0.99054 0.11134 0.31903 0.0
C52 C 0.96143 0.11364 0.30827 0.0
C53 C 0.94926 0.14279 0.30414 0.0
C54 C 0.96735 0.16948 0.30942 0.0
C55 C 0.99663 0.16717 0.31989 0.0
C56 C 0.05507 0.11168 0.33928 0.0
C57 C 0.08292 0.11458 0.3293 0.0
C58 C 0.10366 0.08982 0.328 0.0
C59 C 0.09649 0.06153 0.33635 0.0
C60 C 0.06859 0.05853 0.34627 0.0
C61 C 0.04827 0.08345 0.348 0.0
H62 H 0.94965 0.47714 0.5916 0.0
N63 N 0.93674 0.53403 0.57602 0.0
H64 H 0.93642 0.45966 0.62576 0.0
H65 H 0.91282 0.56762 0.60805 0.0
H66 H 0.90235 0.5508 0.64342 0.0
H67 H 0.88403 0.50107 0.56795 0.0
H68 H 0.87856 0.45071 0.54811 0.0
H69 H 0.97417 0.51299 0.5432 0.0
H70 H 0.96802 0.46312 0.52327 0.0
H71 H 0.99485 0.51042 0.58352 0.0
H72 H 0.94505 0.5941 0.57092 0.0
H73 H 0.04364 0.53908 0.58649 0.0
H74 H 0.9936 0.62374 0.57543 0.0
H75 H 0.18393 0.6529 0.62907 0.0
H76 H 0.18904 0.67179 0.66666 0.0
H77 H 0.09403 0.70243 0.66253 0.0
H78 H 0.08907 0.68397 0.62482 0.0
H79 H 0.10752 0.71259 0.59539 0.0
H80 H 0.13168 0.75613 0.57943 0.0
H81 H 0.21007 0.69891 0.56498 0.0
H82 H 0.18565 0.65507 0.58075 0.0
H83 H 0.11957 0.60285 0.61681 0.0
H84 H 0.07223 0.5727 0.60933 0.0
H85 H 0.04092 0.63668 0.56273 0.0
N86 N 0.13459 0.65651 0.60204 0.0
H87 H 0.08733 0.66782 0.5713 0.0
C88 C 0.93128 0.52362 0.59688 0.0
C89 C 0.93882 0.49337 0.60255 0.0
C90 C 0.9314 0.48336 0.62215 0.0
C91 C 0.91804 0.50378 0.63711 0.0
C92 C 0.91216 0.53449 0.632 0.0
C93 C 0.91825 0.54412 0.61193 0.0
C94 C 0.93069 0.50986 0.55897 0.0
C95 C 0.90238 0.49333 0.558 0.0
C96 C 0.89915 0.46462 0.54663 0.0
C97 C 0.92355 0.45272 0.5351 0.0
C98 C 0.94942 0.4716 0.53275 0.0
C99 C 0.95306 0.50001 0.54459 0.0
C100 C 0.96626 0.55012 0.57666 0.0
C101 C 0.99447 0.53507 0.58142 0.0
C102 C 0.02241 0.55168 0.58333 0.0
C103 C 0.02283 0.58397 0.58139 0.0
C104 C 0.9945 0.59889 0.57662 0.0
C105 C 0.96661 0.58206 0.57417 0.0
C106 C 0.13623 0.66687 0.62425 0.0
C107 C 0.16423 0.66361 0.63631 0.0
C108 C 0.16712 0.67438 0.65763 0.0
C109 C 0.14192 0.68853 0.66722 0.0
C110 C 0.11369 0.69163 0.65529 0.0
C111 C 0.1109 0.68109 0.63387 0.0
C112 C 0.14468 0.68034 0.58899 0.0
C113 C 0.12943 0.70906 0.58824 0.0
C114 C 0.14324 0.73392 0.57923 0.0
C115 C 0.1726 0.73061 0.57111 0.0
C116 C 0.18731 0.70175 0.57109 0.0
C117 C 0.17334 0.67678 0.57992 0.0
C118 C 0.1072 0.63808 0.59513 0.0
C119 C 0.10249 0.6104 0.60496 0.0
C120 C 0.07539 0.59294 0.60046 0.0
C121 C 0.0524 0.60212 0.5854 0.0
C122 C 0.05764 0.62919 0.57481 0.0
C123 C 0.08458 0.6471 0.57969 0.0
H124 H 0.6346 0.45856 0.8499 0.0
N125 N 0.58174 0.44012 0.8259 0.0
H126 H 0.6471 0.44933 0.88721 0.0
H127 H 0.54682 0.41123 0.85211 0.0
H128 H 0.55864 0.4036 0.89006 0.0
H129 H 0.6226 0.39275 0.82632 0.0
H130 H 0.6686 0.38604 0.80613 0.0
H131 H 0.5967 0.47219 0.79093 0.0
H132 H 0.64251 0.46471 0.77066 0.0
H133 H 0.60589 0.499 0.83185 0.0
H134 H 0.52086 0.44691 0.8186 0.0
H135 H 0.57667 0.54709 0.83408 0.0
H136 H 0.49107 0.49473 0.82199 0.0
H137 H 0.46631 0.68736 0.87256 0.0
H138 H 0.4517 0.69671 0.90934 0.0
H139 H 0.42586 0.60039 0.91068 0.0
H140 H 0.4398 0.59119 0.87372 0.0
H141 H 0.40426 0.60389 0.8431 0.0
H142 H 0.35516 0.62536 0.82907 0.0
H143 H 0.40387 0.70634 0.81191 0.0
H144 H 0.45312 0.68477 0.82586 0.0
H145 H 0.51558 0.6201 0.86487 0.0
H146 H 0.54559 0.57376 0.85744 0.0
H147 H 0.47575 0.54217 0.80866 0.0
N148 N 0.45996 0.63498 0.84816 0.0
H149 H 0.44507 0.58771 0.81684 0.0
C150 C 0.58994 0.43489 0.848 0.0
C151 C 0.61801 0.44612 0.85837 0.0
C152 C 0.62515 0.4409 0.87969 0.0
C153 C 0.60396 0.42546 0.89136 0.0
C154 C 0.57551 0.41513 0.88127 0.0
C155 C 0.56876 0.41951 0.8597 0.0
C156 C 0.6072 0.43481 0.8119 0.0
C157 C 0.62678 0.40905 0.81449 0.0
C158 C 0.65295 0.4049 0.80279 0.0
C159 C 0.65951 0.42554 0.78744 0.0
C160 C 0.63829 0.4491 0.78292 0.0
C161 C 0.61225 0.45357 0.79487 0.0
C162 C 0.56551 0.46928 0.82477 0.0
C163 C 0.58088 0.49796 0.82926 0.0
C164 C 0.56402 0.52547 0.83076 0.0
C165 C 0.53133 0.52498 0.82846 0.0
C166 C 0.51614 0.49627 0.82354 0.0
C167 C 0.5331 0.46882 0.82165 0.0
C168 C 0.45439 0.63867 0.87047 0.0
C169 C 0.45786 0.66823 0.88089 0.0
C170 C 0.44945 0.67353 0.90175 0.0
C171 C 0.43761 0.64924 0.9126 0.0
C172 C 0.43489 0.61939 0.90248 0.0
C173 C 0.44295 0.61416 0.88148 0.0
C174 C 0.43251 0.64269 0.83533 0.0
C175 C 0.4046 0.62575 0.83568 0.0
C176 C 0.37659 0.63802 0.82778 0.0
C177 C 0.37604 0.66743 0.8196 0.0
C178 C 0.40397 0.68355 0.81812 0.0
C179 C 0.432 0.67118 0.82589 0.0
C180 C 0.47739 0.60743 0.84212 0.0
C181 C 0.50656 0.6031 0.85266 0.0
C182 C 0.52396 0.57664 0.84816 0.0
C183 C 0.51317 0.55392 0.83245 0.0
C184 C 0.48453 0.55873 0.82122 0.0
C185 C 0.46682 0.5851 0.82596 0.0
H186 H 0.56088 0.89705 0.13568 0.0
N187 N 0.53936 0.93613 0.10783 0.0
H188 H 0.54433 0.89228 0.17178 0.0
H189 H 0.50403 0.97808 0.12954 0.0
H190 H 0.48732 0.97332 0.1658 0.0
H191 H 0.47764 0.94664 0.09945 0.0
H192 H 0.43979 0.90859 0.08257 0.0
H193 H 0.55194 0.88326 0.08656 0.0
H194 H 0.51415 0.84536 0.0694 0.0
H195 H 0.60006 0.94211 0.10646 0.0
H196 H 0.51385 0.98702 0.09002 0.0
H197 H 0.62879 0.98369 0.09203 0.0
H198 H 0.54227 0.02851 0.07466 0.0
H199 H 0.72112 0.08219 0.08816 0.0
H200 H 0.73984 0.09371 0.12548 0.0
H201 H 0.66272 0.1554 0.13416 0.0
H202 H 0.64537 0.14556 0.09671 0.0
H203 H 0.71581 0.14979 0.06784 0.0
H204 H 0.71456 0.19748 0.04942 0.0
H205 H 0.62563 0.17119 0.01857 0.0
H206 H 0.62585 0.12366 0.03775 0.0
H207 H 0.6766 0.04704 0.05416 0.0
H208 H 0.64095 0.00497 0.06012 0.0
H209 H 0.57586 0.07198 0.08441 0.0
N210 N 0.67183 0.10603 0.06763 0.0
H211 H 0.61074 0.11383 0.07697 0.0
C212 C 0.53377 0.93786 0.13005 0.0
C213 C 0.54549 0.91426 0.14239 0.0
C214 C 0.53597 0.91148 0.16285 0.0
C215 C 0.51457 0.93237 0.17132 0.0
C216 C 0.50392 0.95706 0.15946 0.0
C217 C 0.51348 0.95979 0.13887 0.0
C218 C 0.51761 0.9176 0.09423 0.0
C219 C 0.48588 0.92497 0.09244 0.0
C220 C 0.46431 0.9033 0.08289 0.0
C221 C 0.47432 0.87426 0.07489 0.0
C222 C 0.50612 0.86773 0.07547 0.0
C223 C 0.5276 0.88929 0.08512 0.0
C224 C 0.55501 0.96146 0.09927 0.0
C225 C 0.58739 0.96096 0.09954 0.0
C226 C 0.60368 0.9846 0.091 0.0
C227 C 0.58789 0.00934 0.08178 0.0
C228 C 0.55523 0.0099 0.08164 0.0
C229 C 0.53891 0.98617 0.09037 0.0
C230 C 0.68171 0.11261 0.08975 0.0
C231 C 0.70833 0.09815 0.09816 0.0
C232 C 0.71887 0.10462 0.11937 0.0
C233 C 0.70247 0.12518 0.13256 0.0
C234 C 0.67552 0.13929 0.12425 0.0
C235 C 0.66548 0.13345 0.10294 0.0
C236 C 0.67019 0.13351 0.05544 0.0
C237 C 0.6956 0.1543 0.05749 0.0
C238 C 0.69509 0.18149 0.04682 0.0
C239 C 0.66969 0.18823 0.03307 0.0
C240 C 0.64515 0.16666 0.02954 0.0
C241 C 0.64526 0.13955 0.04071 0.0
C242 C 0.64676 0.08353 0.06541 0.0
C243 C 0.6541 0.05265 0.05996 0.0
C244 C 0.63388 0.02862 0.06377 0.0
C245 C 0.60595 0.03496 0.07348 0.0
C246 C 0.59723 0.06611 0.07707 0.0
C247 C 0.61735 0.09019 0.07296 0.0
H248 H 0.14031 0.66533 0.95743 0.0
N249 N 0.08589 0.684 0.97467 0.0
H250 H 0.15669 0.67598 0.92254 0.0
H251 H 0.05193 0.70799 0.94289 0.0
H252 H 0.0671 0.71522 0.90667 0.0
H253 H 0.11432 0.7366 0.9886 0.0
H254 H 0.16648 0.74194 0.00623 0.0
H255 H 0.11619 0.63825 0.99725 0.0
H256 H 0.16787 0.64386 0.01474 0.0
H257 H 0.09132 0.62169 0.96495 0.0
H258 H 0.02814 0.69251 0.98548 0.0
H259 H 0.0501 0.58317 0.96335 0.0
H260 H 0.98555 0.65546 0.98113 0.0
H261 H 0.92131 0.48728 0.92643 0.0
H262 H 0.91652 0.46484 0.88958 0.0
H263 H 0.88814 0.55368 0.868 0.0
H264 H 0.89272 0.57602 0.90492 0.0
H265 H 0.84536 0.53537 0.92922 0.0
H266 H 0.80964 0.50177 0.94542 0.0
H267 H 0.88021 0.48481 0.99474 0.0
H268 H 0.91751 0.51546 0.97683 0.0
H269 H 0.96595 0.53344 0.93088 0.0
H270 H 0.01042 0.56425 0.94314 0.0
H271 H 0.95511 0.61632 0.98768 0.0
N272 N 0.90514 0.54573 0.93986 0.0
H273 H 0.90929 0.58747 0.97306 0.0
C274 C 0.09511 0.6869 0.95322 0.0
C275 C 0.1243 0.67692 0.9468 0.0
C276 C 0.13361 0.68274 0.9267 0.0
C277 C 0.11331 0.6968 0.91199 0.0
C278 C 0.08339 0.70488 0.91785 0.0
C279 C 0.07467 0.70057 0.93842 0.0
C280 C 0.11124 0.68707 0.99093 0.0
C281 C 0.1253 0.71641 0.995 0.0
C282 C 0.15508 0.71946 0.00498 0.0
C283 C 0.17112 0.69319 0.0114 0.0
C284 C 0.15585 0.66435 0.0097 0.0
C285 C 0.12616 0.66122 0.99949 0.0
C286 C 0.063 0.65989 0.97604 0.0
C287 C 0.06856 0.62881 0.96954 0.0
C288 C 0.04449 0.60687 0.96805 0.0
C289 C 0.01374 0.61576 0.9717 0.0
C290 C 0.0086 0.64695 0.97859 0.0
C291 C 0.033 0.6685 0.98098 0.0
C292 C 0.90714 0.53326 0.91826 0.0
C293 C 0.91462 0.50198 0.9137 0.0
C294 C 0.91191 0.48926 0.89279 0.0
C295 C 0.90184 0.50767 0.87624 0.0
C296 C 0.89596 0.53925 0.88065 0.0
C297 C 0.8986 0.55194 0.90157 0.0
C298 C 0.88422 0.52815 0.95165 0.0
C299 C 0.85336 0.52426 0.94343 0.0
C300 C 0.83293 0.50505 0.9527 0.0
C301 C 0.84211 0.49065 0.97134 0.0
C302 C 0.87265 0.49541 0.98024 0.0
C303 C 0.89384 0.51328 0.97015 0.0
C304 C 0.93355 0.55853 0.95056 0.0
C305 C 0.96302 0.55139 0.94329 0.0
C306 C 0.98907 0.5691 0.95069 0.0
C307 C 0.9869 0.59375 0.96626 0.0
C308 C 0.95794 0.59867 0.97505 0.0
C309 C 0.93159 0.58172 0.96698 0.0
H310 H 0.63039 0.39028 0.18511 0.0
N311 N 0.65886 0.43919 0.20838 0.0
H312 H 0.63397 0.37731 0.14693 0.0
H313 H 0.69137 0.46873 0.18154 0.0
H314 H 0.69609 0.45498 0.14352 0.0
H315 H 0.71667 0.42006 0.21423 0.0
H316 H 0.73474 0.37322 0.23085 0.0
H317 H 0.62405 0.40275 0.23299 0.0
H318 H 0.64259 0.35682 0.25034 0.0
H319 H 0.59699 0.42324 0.20317 0.0
H320 H 0.66078 0.49775 0.22378 0.0
H321 H 0.55345 0.45859 0.20627 0.0
H322 H 0.61705 0.53352 0.22677 0.0
H323 H 0.43435 0.55224 0.1842 0.0
H324 H 0.41295 0.56747 0.14928 0.0
H325 H 0.47923 0.64268 0.15208 0.0
H326 H 0.50037 0.62781 0.18667 0.0
H327 H 0.42706 0.60276 0.22623 0.0
H328 H 0.41991 0.65362 0.24492 0.0
H329 H 0.51805 0.67188 0.24477 0.0
H330 H 0.5253 0.62169 0.22596 0.0
H331 H 0.48086 0.5291 0.22925 0.0
H332 H 0.52474 0.49332 0.23263 0.0
H333 H 0.5799 0.55409 0.19828 0.0
N334 N 0.47829 0.5816 0.20956 0.0
H335 H 0.53632 0.58928 0.19478 0.0
C336 C 0.66029 0.43086 0.18601 0.0
C337 C 0.64429 0.40485 0.17608 0.0
C338 C 0.64654 0.39728 0.15439 0.0
C339 C 0.66533 0.41518 0.14249 0.0
C340 C 0.68148 0.44093 0.15247 0.0
C341 C 0.67879 0.44879 0.17404 0.0
C342 C 0.66897 0.41494 0.22191 0.0
C343 C 0.7004 0.40666 0.22235 0.0
C344 C 0.7107 0.37998 0.2318 0.0
C345 C 0.68985 0.36133 0.24145 0.0
C346 C 0.6589 0.37081 0.2427 0.0
C347 C 0.64834 0.39714 0.23268 0.0
C348 C 0.63234 0.45779 0.2135 0.0
C349 C 0.60168 0.447 0.20887 0.0
C350 C 0.5767 0.46728 0.21065 0.0
C351 C 0.58188 0.49883 0.21667 0.0
C352 C 0.61241 0.50935 0.22196 0.0
C353 C 0.63734 0.48895 0.22045 0.0
C354 C 0.46901 0.58863 0.18804 0.0
C355 C 0.4446 0.57161 0.17705 0.0
C356 C 0.43239 0.58031 0.15727 0.0
C357 C 0.4446 0.60616 0.14824 0.0
C358 C 0.46965 0.6226 0.15883 0.0
C359 C 0.48181 0.61395 0.17855 0.0
C360 C 0.47657 0.6081 0.22461 0.0
C361 C 0.44716 0.61732 0.2308 0.0
C362 C 0.44306 0.64628 0.24133 0.0
C363 C 0.46847 0.66635 0.24607 0.0
C364 C 0.49824 0.65653 0.24124 0.0
C365 C 0.50231 0.62769 0.23051 0.0
C366 C 0.50511 0.56191 0.21186 0.0
C367 C 0.50251 0.53471 0.22258 0.0
C368 C 0.5275 0.51433 0.22445 0.0
C369 C 0.55577 0.52104 0.21583 0.0
C370 C 0.55855 0.54854 0.20536 0.0
C371 C 0.53345 0.56865 0.20325 0.0
H372 H 0.47031 0.96511 0.44886 0.0
N373 N 0.52213 0.96053 0.47592 0.0
H374 H 0.46324 0.9426 0.41235 0.0
H375 H 0.56118 0.92417 0.45502 0.0
H376 H 0.5541 0.90181 0.41815 0.0
H377 H 0.50829 0.91021 0.49534 0.0
H378 H 0.45982 0.899 0.51175 0.0
H379 H 0.4773 0.00378 0.48692 0.0
H380 H 0.42936 0.99244 0.50323 0.0
H381 H 0.50209 0.01263 0.45653 0.0
H382 H 0.57852 0.97429 0.49331 0.0
H383 H 0.53347 0.05805 0.4512 0.0
H384 H 0.61054 0.01966 0.48742 0.0
H385 H 0.706 0.12577 0.42748 0.0
H386 H 0.72069 0.12558 0.39107 0.0
H387 H 0.62566 0.14206 0.36969 0.0
H388 H 0.61116 0.1452 0.40681 0.0
H389 H 0.68945 0.11136 0.46913 0.0
H390 H 0.73671 0.13381 0.48696 0.0
H391 H 0.71192 0.22331 0.46504 0.0
H392 H 0.66399 0.20093 0.44712 0.0
H393 H 0.59497 0.14635 0.46018 0.0
H394 H 0.56289 0.10446 0.47199 0.0
H395 H 0.63083 0.03756 0.45197 0.0
N396 N 0.64858 0.14124 0.44188 0.0
H397 H 0.66238 0.07937 0.43983 0.0
C398 C 0.51629 0.94601 0.4548 0.0
C399 C 0.48863 0.95107 0.44248 0.0
C400 C 0.4846 0.93834 0.42162 0.0
C401 C 0.50814 0.92058 0.41268 0.0
C402 C 0.53568 0.91539 0.42489 0.0
C403 C 0.53966 0.928 0.44583 0.0
C404 C 0.49668 0.95761 0.48956 0.0
C405 C 0.4916 0.92858 0.49758 0.0
C406 C 0.464 0.92217 0.50692 0.0
C407 C 0.44104 0.94486 0.50857 0.0
C408 C 0.4469 0.97466 0.5021 0.0
C409 C 0.47444 0.98103 0.49262 0.0
C410 C 0.53772 0.99016 0.47585 0.0
C411 C 0.52526 0.01437 0.46411 0.0
C412 C 0.54332 0.04032 0.4609 0.0
C413 C 0.57442 0.04231 0.46886 0.0
C414 C 0.58663 0.01863 0.48107 0.0
C415 C 0.56832 0.99292 0.48463 0.0
C416 C 0.65738 0.13655 0.42015 0.0
C417 C 0.68813 0.12974 0.41521 0.0
C418 C 0.69661 0.12941 0.39428 0.0
C419 C 0.67441 0.13434 0.37765 0.0
C420 C 0.64328 0.13875 0.38232 0.0
C421 C 0.63499 0.14037 0.40342 0.0
C422 C 0.67282 0.15453 0.45664 0.0
C423 C 0.69327 0.13598 0.46862 0.0
C424 C 0.72047 0.14874 0.47881 0.0
C425 C 0.72772 0.18007 0.47716 0.0
C426 C 0.70654 0.19907 0.46648 0.0
C427 C 0.67924 0.18636 0.45638 0.0
C428 C 0.63098 0.11604 0.44923 0.0
C429 C 0.60292 0.12264 0.45846 0.0
C430 C 0.5847 0.09878 0.46516 0.0
C431 C 0.59454 0.06786 0.46302 0.0
C432 C 0.62294 0.06125 0.45408 0.0
C433 C 0.64088 0.08508 0.44704 0.0
H434 H 0.14787 0.98072 0.69707 0.0
N435 N 0.17724 0.02741 0.72201 0.0
H436 H 0.15894 0.96392 0.66049 0.0
H437 H 0.21722 0.05288 0.69765 0.0
H438 H 0.22831 0.036 0.66092 0.0
H439 H 0.22547 0.98972 0.72702 0.0
H440 H 0.22898 0.94291 0.74674 0.0
H441 H 0.13479 0.00787 0.75025 0.0
H442 H 0.13895 0.96149 0.77015 0.0
H443 H 0.11458 0.01849 0.71349 0.0
H444 H 0.18469 0.08703 0.73379 0.0
H445 H 0.07512 0.05861 0.7129 0.0
H446 H 0.14611 0.12778 0.73173 0.0
H447 H 0.97615 0.18092 0.6825 0.0
H448 H 0.95462 0.18665 0.64625 0.0
H449 H 0.04251 0.22259 0.6296 0.0
H450 H 0.0637 0.21836 0.66641 0.0
H451 H 0.03805 0.26193 0.70704 0.0
H452 H 0.9994 0.29623 0.72279 0.0
H453 H 0.94621 0.21654 0.73723 0.0
H454 H 0.98523 0.18208 0.72154 0.0
H455 H 0.02506 0.14024 0.68335 0.0
H456 H 0.05745 0.09718 0.69245 0.0
H457 H 0.10431 0.15447 0.74351 0.0
N458 N 0.03336 0.20116 0.69919 0.0
H459 H 0.07337 0.19861 0.73293 0.0
C460 C 0.18184 0.0181 0.70007 0.0
C461 C 0.16514 0.9932 0.68923 0.0
C462 C 0.17149 0.98357 0.66843 0.0
C463 C 0.19439 0.99878 0.65811 0.0
C464 C 0.21051 0.02409 0.66867 0.0
C465 C 0.20423 0.03366 0.68952 0.0
C466 C 0.17937 0.00199 0.73606 0.0
C467 C 0.20638 0.98385 0.73636 0.0
C468 C 0.20849 0.9572 0.74768 0.0
C469 C 0.18395 0.94843 0.75952 0.0
C470 C 0.1579 0.96765 0.76076 0.0
C471 C 0.1555 0.99414 0.74909 0.0
C472 C 0.15263 0.04975 0.72406 0.0
C473 C 0.12144 0.04221 0.71803 0.0
C474 C 0.09889 0.06538 0.71746 0.0
C475 C 0.10715 0.0968 0.72211 0.0
C476 C 0.13837 0.10401 0.72851 0.0
C477 C 0.16068 0.08073 0.72959 0.0
C478 C 0.02146 0.1999 0.67726 0.0
C479 C 0.99085 0.1901 0.67115 0.0
C480 C 0.9786 0.19314 0.65043 0.0
C481 C 0.9969 0.20532 0.63536 0.0
C482 C 0.02802 0.21332 0.64109 0.0
C483 C 0.04009 0.21085 0.66196 0.0
C484 C 0.01448 0.21961 0.71309 0.0
C485 C 0.01864 0.25186 0.71427 0.0
C486 C 0.99656 0.27134 0.7231 0.0
C487 C 0.96997 0.25883 0.73098 0.0
C488 C 0.96668 0.22651 0.73122 0.0
C489 C 0.98892 0.20694 0.72237 0.0
C490 C 0.04704 0.1733 0.70719 0.0
C491 C 0.04203 0.1438 0.69663 0.0
C492 C 0.0606 0.11873 0.70206 0.0
C493 C 0.08419 0.12215 0.71854 0.0
C494 C 0.08723 0.15098 0.73026 0.0
C495 C 0.06917 0.17625 0.72446 0.0
O496 O 0.37552 0.70484 0.99642 0.0
Cd497 Cd 0.35534 0.72436 0.02278 0.0
Cd498 Cd 0.40352 0.69583 0.04319 0.0
O499 O 0.41052 0.67659 0.01321 0.0
O500 O 0.31219 0.73384 0.01251 0.0
O501 O 0.3234 0.70018 0.0369 0.0
C502 C 0.30291 0.71389 0.02506 0.0
C503 C 0.40762 0.66453 0.07178 0.0
C504 C 0.39733 0.6852 0.99605 0.0
C505 C 0.40161 0.76605 0.0466 0.0
O506 O 0.4166 0.74153 0.05026 0.0
O507 O 0.37511 0.76477 0.03662 0.0
O508 O 0.43176 0.67274 0.06252 0.0
O509 O 0.38068 0.67324 0.0644 0.0
O510 O 0.44864 0.86139 0.32529 0.0
Cd511 Cd 0.42147 0.84698 0.29856 0.0
Cd512 Cd 0.4756 0.86023 0.28003 0.0
O513 O 0.49002 0.87769 0.31028 0.0
O514 O 0.3793 0.84689 0.30938 0.0
O515 O 0.3932 0.87837 0.28525 0.0
C516 C 0.37259 0.86938 0.29752 0.0
C517 C 0.4812 0.88911 0.25074 0.0
C518 C 0.47516 0.87438 0.32671 0.0
C519 C 0.45251 0.79398 0.27625 0.0
O520 O 0.47439 0.81277 0.27357 0.0
O521 O 0.42818 0.80306 0.285 0.0
O522 O 0.50474 0.87621 0.26008 0.0
O523 O 0.45444 0.88683 0.2586 0.0
O524 O 0.24229 0.9001 0.49954 0.0
Cd525 Cd 0.26685 0.88807 0.52677 0.0
Cd526 Cd 0.21479 0.9124 0.54335 0.0
O527 O 0.20496 0.92789 0.51348 0.0
O528 O 0.30854 0.87936 0.51615 0.0
O529 O 0.29984 0.91828 0.53951 0.0
C530 C 0.31865 0.90371 0.52735 0.0
C531 C 0.21402 0.94405 0.57437 0.0
C532 C 0.21894 0.91766 0.4974 0.0
C533 C 0.22581 0.84422 0.54639 0.0
O534 O 0.20651 0.86627 0.54728 0.0
O535 O 0.25292 0.84832 0.54027 0.0
O536 O 0.18861 0.93528 0.56381 0.0
O537 O 0.24013 0.93642 0.56663 0.0
O538 O 0.19787 0.75011 0.75529 0.0
Cd539 Cd 0.21654 0.7727 0.78283 0.0
Cd540 Cd 0.18821 0.72496 0.79964 0.0
O541 O 0.16401 0.72179 0.77034 0.0
O542 O 0.22705 0.8145 0.77377 0.0
O543 O 0.1914 0.80669 0.79665 0.0
C544 C 0.20548 0.82539 0.78524 0.0
C545 C 0.16236 0.71885 0.83056 0.0
C546 C 0.17484 0.73161 0.75379 0.0
C547 C 0.25791 0.72571 0.80097 0.0
O548 O 0.23349 0.70928 0.80137 0.0
O549 O 0.25637 0.75383 0.79621 0.0
O550 O 0.16467 0.69639 0.81635 0.0
O551 O 0.17354 0.74553 0.82669 0.0
O552 O 0.91844 0.25241 0.55279 0.0
Cd553 Cd 0.89685 0.26995 0.52607 0.0
Cd554 Cd 0.9207 0.21761 0.50703 0.0
O555 O 0.94258 0.21359 0.53666 0.0
O556 O 0.88835 0.31389 0.53474 0.0
O557 O 0.92031 0.29991 0.50976 0.0
C558 C 0.90741 0.32158 0.52108 0.0
C559 C 0.95024 0.21161 0.4777 0.0
C560 C 0.93717 0.22983 0.55346 0.0
C561 C 0.85106 0.22418 0.50522 0.0
O562 O 0.87404 0.20674 0.50167 0.0
O563 O 0.85501 0.25116 0.51419 0.0
O564 O 0.9421 0.18807 0.48763 0.0
O565 O 0.94214 0.23897 0.48468 0.0
O566 O 0.85672 0.42132 0.79314 0.0
Cd567 Cd 0.83671 0.39752 0.76644 0.0
Cd568 Cd 0.8836 0.42815 0.74822 0.0
O569 O 0.88448 0.45422 0.77674 0.0
O570 O 0.79521 0.38567 0.7755 0.0
O571 O 0.80156 0.41838 0.75049 0.0
C572 C 0.78335 0.40502 0.76262 0.0
C573 C 0.89106 0.45316 0.71712 0.0
C574 C 0.87392 0.44526 0.79362 0.0
C575 C 0.88692 0.35837 0.74999 0.0
O576 O 0.90115 0.3837 0.74796 0.0
O577 O 0.85901 0.35813 0.7553 0.0
O578 O 0.91283 0.45154 0.7319 0.0
O579 O 0.86431 0.4415 0.72034 0.0
O580 O 0.70979 0.37936 0.04789 0.0
Cd581 Cd 0.71505 0.3614 0.01716 0.0
Cd582 Cd 0.6798 0.40574 0.00998 0.0
O583 O 0.66321 0.39579 0.03863 0.0
O584 O 0.72496 0.31667 0.01908 0.0
O585 O 0.68009 0.33358 0.00512 0.0
C586 C 0.69689 0.31085 0.01148 0.0
C587 C 0.64983 0.40995 0.97829 0.0
C588 C 0.6835 0.38927 0.05307 0.0
C589 C 0.74487 0.41471 0.00206 0.0
O590 O 0.72243 0.428 0.01095 0.0
O591 O 0.74424 0.38532 0.99887 0.0
O592 O 0.64821 0.4304 0.99398 0.0
O593 O 0.66679 0.38584 0.9813 0.0
O594 O 0.76706 0.17792 0.22376 0.0
Cd595 Cd 0.77526 0.20018 0.25325 0.0
Cd596 Cd 0.75469 0.14806 0.26602 0.0
O597 O 0.73418 0.14496 0.23531 0.0
O598 O 0.77378 0.24526 0.24871 0.0
O599 O 0.73906 0.22109 0.26635 0.0
C600 C 0.74832 0.24601 0.25835 0.0
C601 C 0.72609 0.14296 0.29565 0.0
C602 C 0.74592 0.1575 0.21999 0.0
C603 C 0.82241 0.16176 0.27368 0.0
O604 O 0.80192 0.14037 0.27114 0.0
O605 O 0.81576 0.18947 0.26972 0.0
O606 O 0.73175 0.11925 0.28306 0.0
O607 O 0.73546 0.16985 0.29076 0.0
C608 C 0.30941 0.91291 0.32511 0.0
C609 C 0.28563 0.9134 0.30856 0.0
C610 C 0.31941 0.88593 0.2839 0.0
C611 C 0.34351 0.88673 0.30028 0.0
N612 N 0.36424 0.90768 0.3346 0.0
N613 N 0.26916 0.90538 0.27147 0.0
C614 C 0.33933 0.90229 0.32032 0.0
C615 C 0.29102 0.90145 0.28767 0.0
N616 N 0.30308 0.92128 0.34563 0.0
N617 N 0.32321 0.86929 0.26512 0.0
H618 H 0.24809 0.91641 0.27382 0.0
H619 H 0.2728 0.89994 0.25554 0.0
H620 H 0.34387 0.8581 0.26178 0.0
H621 H 0.30539 0.86488 0.25341 0.0
H622 H 0.31847 0.91786 0.35863 0.0
H623 H 0.28146 0.9292 0.34997 0.0
H624 H 0.36327 0.92175 0.34855 0.0
H625 H 0.38671 0.90069 0.33154 0.0
C626 C 0.18664 0.76494 0.54256 0.0
C627 C 0.18897 0.75815 0.56426 0.0
C628 C 0.22093 0.80486 0.57327 0.0
C629 C 0.21582 0.81325 0.55203 0.0
N630 N 0.19317 0.80287 0.51642 0.0
N631 N 0.20688 0.7715 0.60067 0.0
C632 C 0.19868 0.79359 0.5366 0.0
C633 C 0.20593 0.77798 0.57972 0.0
N634 N 0.17316 0.7438 0.5277 0.0
N635 N 0.24038 0.82254 0.58715 0.0
H636 H 0.19737 0.75135 0.6059 0.0
H637 H 0.21558 0.78671 0.61308 0.0
H638 H 0.25126 0.84265 0.58296 0.0
H639 H 0.24763 0.81629 0.60229 0.0
H640 H 0.1735 0.74568 0.51138 0.0
H641 H 0.16331 0.72303 0.53162 0.0
H642 H 0.17786 0.79162 0.50503 0.0
H643 H 0.20285 0.82299 0.51126 0.0
C644 C 0.33206 0.70105 0.83085 0.0
C645 C 0.34596 0.68272 0.8146 0.0
C646 C 0.30161 0.69187 0.78961 0.0
C647 C 0.28853 0.71151 0.80553 0.0
N648 N 0.2923 0.73811 0.8403 0.0
N649 N 0.34666 0.66352 0.77803 0.0
C650 C 0.3041 0.71712 0.82586 0.0
C651 C 0.33147 0.67892 0.79382 0.0
N652 N 0.3452 0.70235 0.85118 0.0
N653 N 0.28521 0.68528 0.77059 0.0
H654 H 0.36818 0.65308 0.78072 0.0
H655 H 0.33911 0.66274 0.76203 0.0
H656 H 0.26395 0.69544 0.76656 0.0
H657 H 0.29165 0.66845 0.75922 0.0
H658 H 0.33449 0.71221 0.86425 0.0
H659 H 0.36615 0.69172 0.85537 0.0
H660 H 0.30416 0.74597 0.85449 0.0
H661 H 0.27126 0.74939 0.8375 0.0
C662 C 0.44277 0.84399 0.0459 0.0
C663 C 0.45164 0.84931 0.0678 0.0
C664 C 0.42119 0.80403 0.07586 0.0
C665 C 0.41591 0.79637 0.05378 0.0
N666 N 0.42327 0.8073 0.01746 0.0
N667 N 0.45103 0.83412 0.10386 0.0
C668 C 0.42674 0.81609 0.03866 0.0
C669 C 0.44108 0.8294 0.0829 0.0
N670 N 0.44963 0.86572 0.03208 0.0
N671 N 0.40663 0.78734 0.09005 0.0
H672 H 0.46473 0.85306 0.10978 0.0
H673 H 0.44734 0.81835 0.11523 0.0
H674 H 0.39178 0.7687 0.08534 0.0
H675 H 0.40699 0.79352 0.10625 0.0
H676 H 0.44114 0.86483 0.01626 0.0
H677 H 0.46179 0.88614 0.03691 0.0
H678 H 0.43382 0.81877 0.00581 0.0
H679 H 0.41151 0.78716 0.01149 0.0
C680 C 0.21726 0.70942 0.0362 0.0
C681 C 0.20521 0.6952 0.01649 0.0
C682 C 0.25805 0.68661 0.00547 0.0
C683 C 0.26982 0.70457 0.02376 0.0
N684 N 0.26143 0.73437 0.05635 0.0
N685 N 0.21386 0.67392 0.98102 0.0
C686 C 0.24968 0.71611 0.03923 0.0
C687 C 0.22553 0.6845 0.00082 0.0
N688 N 0.19773 0.71611 0.05201 0.0
N689 N 0.27806 0.67123 0.99265 0.0
H690 H 0.1902 0.6722 0.97671 0.0
H691 H 0.22759 0.66934 0.96825 0.0
H692 H 0.3021 0.67225 0.99566 0.0
H693 H 0.27087 0.65512 0.98032 0.0
H694 H 0.20528 0.72386 0.06742 0.0
H695 H 0.17392 0.71156 0.05014 0.0
H696 H 0.24771 0.74642 0.067 0.0
H697 H 0.28513 0.73886 0.05927 0.0
C698 C 0.45915 0.72203 0.23912 0.0
C699 C 0.46347 0.69888 0.25398 0.0
C700 C 0.46121 0.73824 0.28356 0.0
C701 C 0.45534 0.7611 0.26869 0.0
N702 N 0.44378 0.77473 0.23267 0.0
N703 N 0.4646 0.6835 0.28997 0.0
C704 C 0.45298 0.753 0.24654 0.0
C705 C 0.46325 0.70656 0.27613 0.0
N706 N 0.46152 0.71446 0.21793 0.0
N707 N 0.46606 0.74702 0.3047 0.0
H708 H 0.46711 0.66017 0.28509 0.0
H709 H 0.46112 0.68708 0.30609 0.0
H710 H 0.46443 0.76996 0.31074 0.0
H711 H 0.47382 0.73208 0.31614 0.0
H712 H 0.46241 0.73077 0.20656 0.0
H713 H 0.46462 0.69182 0.21171 0.0
H714 H 0.43831 0.76965 0.21654 0.0
H715 H 0.43915 0.79768 0.23754 0.0
C716 C 0.40316 0.93131 0.53545 0.0
C717 C 0.40935 0.9361 0.5141 0.0
C718 C 0.35482 0.92541 0.50285 0.0
C719 C 0.34946 0.91683 0.52361 0.0
N720 N 0.36873 0.90897 0.55946 0.0
N721 N 0.3924 0.93258 0.47682 0.0
C722 C 0.37363 0.91927 0.53995 0.0
C723 C 0.38552 0.93182 0.49762 0.0
N724 N 0.42532 0.93879 0.5514 0.0
N725 N 0.33036 0.92853 0.4883 0.0
H726 H 0.41463 0.93696 0.47213 0.0
H727 H 0.37665 0.92605 0.46412 0.0
H728 H 0.30734 0.92484 0.49164 0.0
H729 H 0.33256 0.93789 0.47368 0.0
H730 H 0.42132 0.93879 0.56746 0.0
H731 H 0.44718 0.94737 0.54854 0.0
H732 H 0.38628 0.90697 0.57137 0.0
H733 H 0.34733 0.90035 0.56328 0.0
C734 C 0.20811 0.91342 0.78616 0.0
C735 C 0.18528 0.91812 0.76951 0.0
C736 C 0.1691 0.86365 0.76956 0.0
C737 C 0.19541 0.85788 0.78329 0.0
N738 N 0.24034 0.87667 0.80485 0.0
N739 N 0.14599 0.89681 0.74358 0.0
C740 C 0.21491 0.88268 0.79181 0.0
C741 C 0.16589 0.89312 0.76094 0.0
N742 N 0.22296 0.93843 0.79667 0.0
N743 N 0.14741 0.84082 0.76448 0.0
H744 H 0.14324 0.91772 0.73637 0.0
H745 H 0.1341 0.87846 0.73513 0.0
H746 H 0.14916 0.81886 0.77035 0.0
H747 H 0.12626 0.84455 0.7562 0.0
H748 H 0.2379 0.93689 0.81015 0.0
H749 H 0.21812 0.96118 0.793 0.0
H750 H 0.25759 0.89302 0.8096 0.0
H751 H 0.24487 0.85467 0.81017 0.0
C752 C 0.69568 0.39694 0.76349 0.0
C753 C 0.68962 0.42323 0.7772 0.0
C754 C 0.74259 0.44233 0.77399 0.0
C755 C 0.75016 0.4135 0.76365 0.0
N756 N 0.73435 0.36313 0.74818 0.0
N757 N 0.70843 0.46955 0.79757 0.0
C758 C 0.72672 0.3908 0.75812 0.0
C759 C 0.71322 0.44586 0.78274 0.0
N760 N 0.67165 0.37813 0.75545 0.0
N761 N 0.7636 0.46624 0.77579 0.0
H762 H 0.68756 0.47286 0.80478 0.0
H763 H 0.72602 0.48442 0.80416 0.0
H764 H 0.78548 0.46456 0.76981 0.0
H765 H 0.75822 0.48868 0.78131 0.0
H766 H 0.67397 0.36012 0.74392 0.0
H767 H 0.6487 0.38233 0.75897 0.0
H768 H 0.71933 0.34412 0.74598 0.0
H769 H 0.75641 0.35879 0.74287 0.0
C770 C 0.65283 0.24363 0.03189 0.0
C771 C 0.66959 0.21841 0.02291 0.0
C772 C 0.69628 0.25389 0.00108 0.0
C773 C 0.68346 0.27936 0.01266 0.0
N774 N 0.6495 0.29921 0.0392 0.0
N775 N 0.70555 0.19835 0.998 0.0
C776 C 0.66111 0.27446 0.02771 0.0
C777 C 0.6905 0.2232 0.00695 0.0
N778 N 0.62941 0.23813 0.04476 0.0
N779 N 0.7137 0.25925 0.98436 0.0
H780 H 0.70026 0.17553 0.00102 0.0
H781 H 0.72379 0.20018 0.98817 0.0
H782 H 0.71786 0.28156 0.97971 0.0
H783 H 0.72192 0.24187 0.97407 0.0
H784 H 0.61396 0.25501 0.04987 0.0
H785 H 0.62365 0.21606 0.04904 0.0
H786 H 0.63671 0.29721 0.05245 0.0
H787 H 0.6541 0.3222 0.03639 0.0
C788 C 0.90931 0.14883 0.27407 0.0
C789 C 0.91648 0.1457 0.29604 0.0
C790 C 0.86166 0.15229 0.30331 0.0
C791 C 0.85441 0.15449 0.28126 0.0
N792 N 0.86952 0.15018 0.24517 0.0
N793 N 0.89991 0.14052 0.33141 0.0
C794 C 0.87775 0.15141 0.26648 0.0
C795 C 0.89272 0.14615 0.31061 0.0
N796 N 0.93278 0.14997 0.2606 0.0
N797 N 0.839 0.15732 0.31729 0.0
H798 H 0.92257 0.13753 0.33767 0.0
H799 H 0.88341 0.13689 0.34231 0.0
H800 H 0.81583 0.16102 0.31246 0.0
H801 H 0.84325 0.15971 0.33371 0.0
H802 H 0.9296 0.15577 0.24488 0.0
H803 H 0.95604 0.14683 0.26547 0.0
H804 H 0.88484 0.14485 0.23344 0.0
H805 H 0.84662 0.15225 0.23911 0.0
C806 C 0.9425 0.39859 0.54009 0.0
C807 C 0.9236 0.41918 0.5283 0.0
C808 C 0.89792 0.37465 0.50816 0.0
C809 C 0.91641 0.35447 0.52041 0.0
N810 N 0.95962 0.34674 0.54558 0.0
N811 N 0.88824 0.42741 0.49822 0.0
C812 C 0.94006 0.36638 0.53523 0.0
C813 C 0.90284 0.40734 0.51134 0.0
N814 N 0.96226 0.40873 0.55682 0.0
N815 N 0.87494 0.36251 0.49415 0.0
H816 H 0.89162 0.45138 0.50021 0.0
H817 H 0.87479 0.42042 0.48448 0.0
H818 H 0.87185 0.33866 0.4909 0.0
H819 H 0.85823 0.37579 0.48641 0.0
H820 H 0.96511 0.43179 0.5625 0.0
H821 H 0.96511 0.43179 0.5625 0.0
H822 H 0.97702 0.3546 0.55691 0.0
H823 H 0.95922 0.32283 0.5421 0.0
C824 C 0.78223 0.19314 0.46958 0.0
C825 C 0.75907 0.19202 0.48447 0.0
C826 C 0.79688 0.20979 0.5133 0.0
C827 C 0.81933 0.21328 0.49815 0.0
N828 N 0.83196 0.21395 0.46152 0.0
N829 N 0.74252 0.20316 0.5198 0.0
C830 C 0.81165 0.20646 0.47617 0.0
C831 C 0.76585 0.20153 0.50615 0.0
N832 N 0.77637 0.1807 0.44924 0.0
N833 N 0.80553 0.21306 0.53453 0.0
H834 H 0.71965 0.19673 0.51512 0.0
H835 H 0.74523 0.21309 0.53526 0.0
H836 H 0.82811 0.21876 0.54038 0.0
H837 H 0.79109 0.2076 0.54635 0.0
H838 H 0.79344 0.17754 0.43841 0.0
H839 H 0.75494 0.17119 0.44361 0.0
H840 H 0.8263 0.2127 0.44522 0.0
H841 H 0.85361 0.22417 0.46566 0.0
C842 C 0.94247 0.2919 0.75801 0.0
C843 C 0.94436 0.27996 0.73671 0.0
C844 C 0.90495 0.31665 0.72451 0.0
C845 C 0.90342 0.32894 0.74575 0.0
N846 N 0.91521 0.32486 0.78321 0.0
N847 N 0.92306 0.27556 0.70043 0.0
C848 C 0.92035 0.31531 0.7627 0.0
C849 C 0.92407 0.29059 0.72019 0.0
N850 N 0.96274 0.28177 0.77354 0.0
N851 N 0.88899 0.33068 0.7084 0.0
H852 H 0.93699 0.25656 0.69671 0.0
H853 H 0.90677 0.28014 0.6882 0.0
H854 H 0.87366 0.34891 0.71109 0.0
H855 H 0.89202 0.32543 0.69237 0.0
H856 H 0.96516 0.29192 0.78895 0.0
H857 H 0.97847 0.26395 0.77071 0.0
H858 H 0.92458 0.31406 0.79638 0.0
H859 H 0.89948 0.34228 0.78707 0.0
C860 C 0.8246 0.43994 0.98551 0.0
C861 C 0.81891 0.47145 0.98139 0.0
C862 C 0.76431 0.46378 0.98764 0.0
C863 C 0.77068 0.43383 0.99485 0.0
N864 N 0.81025 0.39765 0.00619 0.0
N865 N 0.78487 0.51537 0.98576 0.0
C866 C 0.80184 0.42305 0.99546 0.0
C867 C 0.78928 0.48405 0.9849 0.0
N868 N 0.85081 0.42552 0.97912 0.0
N869 N 0.73471 0.47237 0.98189 0.0
H870 H 0.80304 0.53114 0.9849 0.0
H871 H 0.76396 0.52546 0.98978 0.0
H872 H 0.716 0.45696 0.98088 0.0
H873 H 0.72965 0.49333 0.97518 0.0
H874 H 0.85434 0.4018 0.98016 0.0
H875 H 0.86733 0.43635 0.97076 0.0
H876 H 0.83327 0.39067 0.00832 0.0
H877 H 0.79512 0.38598 0.01516 0.0
C878 C 0.69032 0.3029 0.23727 0.0
C879 C 0.70047 0.33087 0.24877 0.0
C880 C 0.73874 0.30166 0.26981 0.0
C881 C 0.72878 0.27403 0.25796 0.0
N882 N 0.69177 0.24735 0.23273 0.0
N883 N 0.72888 0.35602 0.27919 0.0
C884 C 0.70314 0.27434 0.24284 0.0
C885 C 0.72302 0.32995 0.26611 0.0
N886 N 0.66942 0.30261 0.22016 0.0
N887 N 0.76379 0.30091 0.28412 0.0
H888 H 0.71738 0.37688 0.27699 0.0
H889 H 0.743 0.35642 0.29319 0.0
H890 H 0.77458 0.28026 0.28798 0.0
H891 H 0.7747 0.32065 0.29147 0.0
H892 H 0.65946 0.32234 0.21397 0.0
H893 H 0.65946 0.32234 0.21397 0.0
H894 H 0.67327 0.24682 0.22122 0.0
H895 H 0.69993 0.22554 0.23639 0.0
C896 C 0.19747 0.90569 0.4385 0.0
C897 C 0.19341 0.93665 0.43271 0.0
C898 C 0.20555 0.9558 0.46971 0.0
C899 C 0.20747 0.92472 0.47566 0.0
N900 N 0.19707 0.87038 0.46666 0.0
N901 N 0.18678 0.99072 0.4433 0.0
C902 C 0.20091 0.89974 0.46032 0.0
C903 C 0.19532 0.96161 0.4485 0.0
N904 N 0.19949 0.88205 0.4232 0.0
N905 N 0.21501 0.9797 0.48391 0.0
H906 H 0.17894 0.99574 0.42795 0.0
H907 H 0.18471 0.00918 0.45455 0.0
H908 H 0.22306 0.97648 0.49951 0.0
H909 H 0.21737 0.00246 0.47971 0.0
H910 H 0.20581 0.85959 0.42662 0.0
H911 H 0.19774 0.88539 0.40698 0.0
H912 H 0.18928 0.85182 0.45632 0.0
H913 H 0.19841 0.86526 0.4826 0.0
C914 C 0.14914 0.67799 0.70562 0.0
C915 C 0.14552 0.69983 0.68989 0.0
C916 C 0.15301 0.74224 0.71736 0.0
C917 C 0.1618 0.72039 0.73242 0.0
N918 N 0.17273 0.66717 0.74002 0.0
N919 N 0.14711 0.75293 0.68019 0.0
C920 C 0.16073 0.68811 0.72644 0.0
C921 C 0.14802 0.73208 0.69559 0.0
N922 N 0.14136 0.64758 0.70066 0.0
N923 N 0.14882 0.77259 0.72395 0.0
H924 H 0.14352 0.74647 0.66404 0.0
H925 H 0.15237 0.77639 0.68331 0.0
H926 H 0.1516 0.78062 0.73988 0.0
H927 H 0.13959 0.78903 0.71402 0.0
H928 H 0.1406 0.63119 0.712 0.0
H929 H 0.13267 0.63944 0.68552 0.0
H930 H 0.17561 0.6438 0.7355 0.0
H931 H 0.18262 0.67339 0.75517 0.0
C932 C 0.44991 0.66409 0.95122 0.0
C933 C 0.42752 0.65554 0.93446 0.0
C934 C 0.38638 0.66027 0.95938 0.0
C935 C 0.40816 0.67325 0.97531 0.0
N936 N 0.46008 0.69277 0.98507 0.0
N937 N 0.37367 0.65016 0.92172 0.0
C938 C 0.43987 0.6764 0.97097 0.0
C939 C 0.3955 0.65478 0.93829 0.0
N940 N 0.48077 0.66005 0.94837 0.0
N941 N 0.35729 0.65229 0.96453 0.0
H942 H 0.37928 0.64648 0.90595 0.0
H943 H 0.34997 0.65276 0.9234 0.0
H944 H 0.35021 0.65491 0.98001 0.0
H945 H 0.34141 0.64009 0.95398 0.0
H946 H 0.49793 0.66297 0.96071 0.0
H947 H 0.48896 0.65082 0.93414 0.0
H948 H 0.48258 0.6985 0.9816 0.0
H949 H 0.45362 0.70338 0.99938 0.0
C950 C 0.47699 0.90457 0.19199 0.0
C951 C 0.50165 0.9263 0.19188 0.0
C952 C 0.50618 0.9297 0.23083 0.0
C953 C 0.48501 0.90449 0.23076 0.0
N954 N 0.45205 0.86578 0.2112 0.0
N955 N 0.54058 0.95937 0.21076 0.0
C956 C 0.47043 0.89165 0.21135 0.0
C957 C 0.51629 0.93911 0.21121 0.0
N958 N 0.45997 0.89617 0.1735 0.0
N959 N 0.51611 0.94493 0.2497 0.0
H960 H 0.54774 0.96761 0.19668 0.0
H961 H 0.5547 0.96674 0.22412 0.0
H962 H 0.50873 0.93876 0.26426 0.0
H963 H 0.52932 0.96524 0.25083 0.0
H964 H 0.43969 0.88292 0.17285 0.0
H965 H 0.46454 0.90475 0.15895 0.0
H966 H 0.44397 0.85311 0.19735 0.0
H967 H 0.44667 0.85535 0.22492 0.0
C968 C 0.12287 0.73272 0.88276 0.0
C969 C 0.12364 0.70251 0.89046 0.0
C970 C 0.15342 0.68464 0.86052 0.0
C971 C 0.14868 0.71344 0.85112 0.0
N972 N 0.12065 0.76191 0.85138 0.0
N973 N 0.13155 0.64775 0.88255 0.0
C974 C 0.13095 0.73668 0.86164 0.0
C975 C 0.13625 0.6778 0.87799 0.0
N976 N 0.11589 0.75788 0.89574 0.0
N977 N 0.17573 0.66454 0.85393 0.0
H978 H 0.11773 0.64166 0.8946 0.0
H979 H 0.13842 0.629 0.87276 0.0
H980 H 0.19159 0.66985 0.84293 0.0
H981 H 0.18122 0.64444 0.86161 0.0
H982 H 0.11782 0.78056 0.89124 0.0
H983 H 0.11158 0.75641 0.91168 0.0
H984 H 0.10555 0.77803 0.85801 0.0
H985 H 0.12393 0.76469 0.83542 0.0
C986 C 0.41071 0.64386 0.12949 0.0
C987 C 0.43024 0.61758 0.12829 0.0
C988 C 0.4267 0.61754 0.08946 0.0
C989 C 0.41149 0.64656 0.09092 0.0
N990 N 0.39128 0.68913 0.11246 0.0
N991 N 0.45828 0.57975 0.10752 0.0
C992 C 0.40361 0.66003 0.11094 0.0
C993 C 0.43837 0.60425 0.10835 0.0
N994 N 0.39896 0.65328 0.14841 0.0
N995 N 0.42946 0.6025 0.06997 0.0
H996 H 0.46665 0.56896 0.12101 0.0
H997 H 0.46803 0.57131 0.09367 0.0
H998 H 0.4207 0.61151 0.05589 0.0
H999 H 0.43771 0.57998 0.06787 0.0
H1000 H 0.3821 0.67031 0.14989 0.0
H1001 H 0.40395 0.64206 0.16235 0.0
H1002 H 0.38864 0.70162 0.12687 0.0
H1003 H 0.38582 0.70198 0.09935 0.0
C1004 C 0.50484 0.92842 0.37369 0.0
C1005 C 0.50384 0.90795 0.3903 0.0
C1006 C 0.49213 0.86452 0.36416 0.0
C1007 C 0.48838 0.88574 0.34799 0.0
N1008 N 0.48774 0.93858 0.33759 0.0
N1009 N 0.49369 0.85697 0.40186 0.0
C1010 C 0.49417 0.91788 0.35272 0.0
C1011 C 0.49697 0.87602 0.38568 0.0
N1012 N 0.51632 0.95785 0.37797 0.0
N1013 N 0.49174 0.83333 0.35885 0.0
H1014 H 0.49721 0.86446 0.41785 0.0
H1015 H 0.48517 0.83435 0.39949 0.0
H1016 H 0.48883 0.82415 0.34316 0.0
H1017 H 0.49733 0.81675 0.36968 0.0
H1018 H 0.52058 0.97282 0.3662 0.0
H1019 H 0.52433 0.96631 0.39318 0.0
H1020 H 0.48804 0.96251 0.34086 0.0
H1021 H 0.47962 0.93197 0.32206 0.0
C1022 C 0.18961 0.00108 0.61833 0.0
C1023 C 0.20242 0.98703 0.63656 0.0
C1024 C 0.22459 0.94569 0.61397 0.0
C1025 C 0.21279 0.96035 0.59567 0.0
N1026 N 0.18974 0.00496 0.58018 0.0
N1027 N 0.23763 0.95026 0.65194 0.0
C1028 C 0.19699 0.989 0.59779 0.0
C1029 C 0.22175 0.96072 0.63441 0.0
N1030 N 0.16956 0.02529 0.62066 0.0
N1031 N 0.23672 0.91652 0.61197 0.0
H1032 H 0.23579 0.96045 0.66722 0.0
H1033 H 0.25467 0.93331 0.65112 0.0
H1034 H 0.23893 0.90432 0.59738 0.0
H1035 H 0.24221 0.90324 0.62485 0.0
H1036 H 0.15665 0.03427 0.60802 0.0
H1037 H 0.16418 0.03516 0.63546 0.0
H1038 H 0.18092 0.02736 0.5808 0.0
H1039 H 0.19521 0.99686 0.56497 0.0
C1040 C 0.61451 0.39139 0.92217 0.0
C1041 C 0.61152 0.42138 0.91437 0.0
C1042 C 0.63347 0.44439 0.94846 0.0
C1043 C 0.63413 0.4146 0.95697 0.0
N1044 N 0.61548 0.36156 0.95328 0.0
N1045 N 0.60869 0.47654 0.9225 0.0
C1046 C 0.62161 0.38861 0.94425 0.0
C1047 C 0.61781 0.44791 0.92834 0.0
N1048 N 0.61206 0.36554 0.90853 0.0
N1049 N 0.64952 0.46902 0.95852 0.0
H1050 H 0.59643 0.47991 0.90807 0.0
H1051 H 0.61025 0.49625 0.93295 0.0
H1052 H 0.66334 0.4678 0.9725 0.0
H1053 H 0.65203 0.49005 0.95159 0.0
H1054 H 0.6172 0.34339 0.91328 0.0
H1055 H 0.60785 0.36646 0.89216 0.0
H1056 H 0.604 0.34285 0.94493 0.0
H1057 H 0.61834 0.35923 0.96961 0.0
C1058 C 0.71608 0.10987 0.16983 0.0
C1059 C 0.7141 0.13305 0.15491 0.0
C1060 C 0.72879 0.17253 0.18327 0.0
C1061 C 0.73465 0.14894 0.19766 0.0
N1062 N 0.74097 0.09422 0.20274 0.0
N1063 N 0.7262 0.18533 0.14656 0.0
C1064 C 0.73025 0.11728 0.19045 0.0
C1065 C 0.72275 0.16407 0.16136 0.0
N1066 N 0.70364 0.08106 0.16461 0.0
N1067 N 0.72747 0.20296 0.1905 0.0
H1068 H 0.72304 0.17985 0.13025 0.0
H1069 H 0.73541 0.20746 0.15042 0.0
H1070 H 0.73016 0.21035 0.20652 0.0
H1071 H 0.72021 0.22051 0.18079 0.0
H1072 H 0.70177 0.06436 0.17565 0.0
H1073 H 0.69242 0.07489 0.14982 0.0
H1074 H 0.74086 0.07094 0.19727 0.0
H1075 H 0.75315 0.09848 0.21742 0.0
C1076 C 0.01027 0.17952 0.44133 0.0
C1077 C 0.99692 0.18721 0.42129 0.0
C1078 C 0.95433 0.21402 0.43839 0.0
C1079 C 0.96791 0.20672 0.4585 0.0
N1080 N 0.01213 0.18938 0.47963 0.0
N1081 N 0.96096 0.21775 0.40082 0.0
C1082 C 0.99699 0.1916 0.46011 0.0
C1083 C 0.9705 0.20652 0.41988 0.0
N1084 N 0.03482 0.15967 0.44237 0.0
N1085 N 0.92518 0.22627 0.43678 0.0
H1086 H 0.97218 0.21247 0.38691 0.0
H1087 H 0.94381 0.23444 0.39915 0.0
H1088 H 0.91238 0.23201 0.44989 0.0
H1089 H 0.91261 0.22856 0.42236 0.0
H1090 H 0.04325 0.15024 0.45634 0.0
H1091 H 0.04561 0.15097 0.42896 0.0
H1092 H 0.03471 0.18127 0.48178 0.0
H1093 H 0.00316 0.19845 0.49365 0.0
C1094 C 0.88037 0.49414 0.66526 0.0
C1095 C 0.91096 0.49274 0.6582 0.0
C1096 C 0.92658 0.4615 0.68788 0.0
C1097 C 0.89744 0.46674 0.69671 0.0
N1098 N 0.84939 0.4955 0.69582 0.0
N1099 N 0.96517 0.48259 0.66678 0.0
C1100 C 0.87504 0.48523 0.68601 0.0
C1101 C 0.93473 0.47884 0.6708 0.0
N1102 N 0.8561 0.50263 0.65199 0.0
N1103 N 0.94583 0.43867 0.69474 0.0
H1104 H 0.97226 0.49641 0.65501 0.0
H1105 H 0.98334 0.47487 0.67673 0.0
H1106 H 0.93964 0.42303 0.70565 0.0
H1107 H 0.96614 0.43266 0.68744 0.0
H1108 H 0.83306 0.50116 0.65586 0.0
H1109 H 0.85862 0.50792 0.63633 0.0
H1110 H 0.83393 0.51123 0.6892 0.0
H1111 H 0.84549 0.49135 0.71149 0.0
C1112 C 0.70093 0.10994 0.34655 0.0
C1113 C 0.68436 0.13527 0.35551 0.0
C1114 C 0.68891 0.16191 0.32276 0.0
C1115 C 0.71044 0.13935 0.31571 0.0
N1116 N 0.74261 0.09543 0.32449 0.0
N1117 N 0.66822 0.18866 0.35341 0.0
C1118 C 0.71792 0.11413 0.32848 0.0
C1119 C 0.67974 0.1622 0.34396 0.0
N1120 N 0.70033 0.08178 0.35518 0.0
N1121 N 0.67639 0.18249 0.30915 0.0
H1122 H 0.66268 0.19062 0.36924 0.0
H1123 H 0.66734 0.20964 0.34614 0.0
H1124 H 0.68092 0.18184 0.29312 0.0
H1125 H 0.65868 0.19766 0.31319 0.0
H1126 H 0.70999 0.06196 0.34807 0.0
H1127 H 0.68726 0.07757 0.36803 0.0
H1128 H 0.75027 0.07855 0.33463 0.0
H1129 H 0.75788 0.09919 0.31281 0.0
C1130 C 0.97146 0.18621 0.59996 0.0
C1131 C 0.98282 0.21128 0.61395 0.0
C1132 C 0.96883 0.24747 0.58677 0.0
C1133 C 0.95352 0.22307 0.57401 0.0
N1134 N 0.93522 0.16991 0.57054 0.0
N1135 N 0.98613 0.26663 0.62233 0.0
C1136 C 0.95352 0.19253 0.58111 0.0
C1137 C 0.97978 0.2422 0.60784 0.0
N1138 N 0.97838 0.1564 0.60441 0.0
N1139 N 0.97418 0.2753 0.57853 0.0
H1140 H 0.99332 0.26392 0.63816 0.0
H1141 H 0.98121 0.28952 0.61913 0.0
H1142 H 0.96814 0.27952 0.56275 0.0
H1143 H 0.98778 0.29284 0.58659 0.0
H1144 H 0.97329 0.13743 0.59371 0.0
H1145 H 0.9919 0.15091 0.61791 0.0
H1146 H 0.93206 0.14815 0.57632 0.0
H1147 H 0.92067 0.17379 0.55719 0.0
C1148 C 0.91947 0.48468 0.84162 0.0
C1149 C 0.89489 0.49317 0.85458 0.0
C1150 C 0.85685 0.47471 0.82614 0.0
C1151 C 0.88138 0.46294 0.81415 0.0
N1152 N 0.93598 0.45233 0.81176 0.0
N1153 N 0.8403 0.49203 0.86077 0.0
C1154 C 0.91275 0.46689 0.82215 0.0
C1155 C 0.86357 0.48707 0.84728 0.0
N1156 N 0.94914 0.49407 0.84777 0.0
N1157 N 0.82725 0.47508 0.81707 0.0
H1158 H 0.84416 0.5011 0.87642 0.0
H1159 H 0.81748 0.48468 0.85705 0.0
H1160 H 0.82151 0.46678 0.80146 0.0
H1161 H 0.80898 0.48631 0.82426 0.0
H1162 H 0.96756 0.49145 0.83797 0.0
H1163 H 0.95487 0.50691 0.86205 0.0
H1164 H 0.95884 0.45161 0.81804 0.0
H1165 H 0.93205 0.43856 0.79767 0.0
C1166 C 0.68311 0.37962 0.11253 0.0
C1167 C 0.66811 0.40728 0.11946 0.0
C1168 C 0.66532 0.4241 0.08317 0.0
C1169 C 0.67735 0.39506 0.07583 0.0
N1170 N 0.69133 0.34251 0.08315 0.0
N1171 N 0.63818 0.4522 0.11057 0.0
C1172 C 0.68439 0.37199 0.0904 0.0
C1173 C 0.65705 0.42836 0.1045 0.0
N1174 N 0.69731 0.36128 0.12702 0.0
N1175 N 0.66361 0.44836 0.07029 0.0
H1176 H 0.63115 0.45578 0.12602 0.0
H1177 H 0.62702 0.4664 0.0998 0.0
H1178 H 0.67127 0.44714 0.05496 0.0
H1179 H 0.65789 0.47078 0.07568 0.0
H1180 H 0.71141 0.34269 0.12277 0.0
H1181 H 0.69743 0.36629 0.14339 0.0
H1182 H 0.69343 0.32408 0.09298 0.0
H1183 H 0.69193 0.3357 0.06707 0.0
loop_
_geom_bond_atom_site_label_1
_geom_bond_atom_site_label_2
_geom_bond_distance
_geom_bond_site_symmetry_2
_ccdc_geom_bond_type
H0 C27 0.929 . S
N1 C26 1.433 . S
N1 C32 1.435 . S
N1 C38 1.423 . S
H2 C28 0.930 . S
H3 C31 0.931 . S
H4 C30 0.929 . S
H5 C33 0.930 . S
H6 C34 0.932 . S
H7 C37 0.929 . S
H8 C36 0.931 . S
H9 C39 0.929 . S
H10 C43 0.932 . S
H11 C40 0.931 . S
H12 C42 0.929 1_565 S
H13 C45 0.929 . S
H14 C46 0.930 . S
H15 C48 0.929 . S
H16 C49 0.931 . S
H17 C51 0.930 . S
H18 C52 0.932 . S
H19 C54 0.931 . S
H20 C55 0.929 1_455 S
H21 C57 0.929 . S
H22 C58 0.931 . S
H23 C60 0.929 . S
N24 C44 1.433 . S
N24 C50 1.435 . S
N24 C56 1.423 1_655 S
H25 C61 0.932 . S
C26 N1 1.433 . S
C26 C27 1.363 . S
C26 C31 1.370 . S
C27 H0 0.929 . S
C27 C26 1.363 . S
C27 C28 1.385 . S
C28 H2 0.930 . S
C28 C27 1.385 . S
C28 C29 1.357 . S
C29 C28 1.357 . S
C29 C30 1.406 . S
C30 H4 0.929 . S
C30 C29 1.406 . S
C30 C31 1.391 . S
C31 H3 0.931 . S
C31 C26 1.370 . S
C31 C30 1.391 . S
C32 N1 1.435 . S
C32 C33 1.358 . S
C32 C37 1.371 . S
C33 H5 0.930 . S
C33 C32 1.358 . S
C33 C34 1.405 . S
C34 H6 0.932 . S
C34 C33 1.405 . S
C34 C35 1.383 . S
C35 C34 1.383 . S
C35 C36 1.393 . S
C36 H8 0.931 . S
C36 C35 1.393 . S
C36 C37 1.382 . S
C37 H7 0.929 . S
C37 C32 1.371 . S
C37 C36 1.382 . S
C38 N1 1.423 . S
C38 C39 1.362 1_565 S
C38 C43 1.388 . S
C39 H9 0.929 . S
C39 C38 1.362 1_545 S
C39 C40 1.376 . S
C40 H11 0.931 . S
C40 C39 1.376 . S
C40 C41 1.396 . S
C41 C40 1.396 . S
C41 C42 1.348 . S
C41 C59 1.472 . S
C42 H12 0.929 1_545 S
C42 C41 1.348 . S
C42 C43 1.443 1_545 S
C43 H10 0.932 . S
C43 C38 1.388 . S
C43 C42 1.443 1_565 S
C44 N24 1.433 . S
C44 C45 1.363 . S
C44 C49 1.370 . S
C45 H13 0.929 . S
C45 C44 1.363 . S
C45 C46 1.385 . S
C46 H14 0.930 . S
C46 C45 1.385 . S
C46 C47 1.357 . S
C47 C46 1.357 . S
C47 C48 1.406 . S
C48 H15 0.929 . S
C48 C47 1.406 . S
C48 C49 1.391 . S
C49 H16 0.931 . S
C49 C44 1.370 . S
C49 C48 1.391 . S
C50 N24 1.435 . S
C50 C51 1.358 . S
C50 C55 1.371 . S
C51 H17 0.930 . S
C51 C50 1.358 . S
C51 C52 1.405 . S
C52 H18 0.932 . S
C52 C51 1.405 . S
C52 C53 1.383 . S
C53 C52 1.383 . S
C53 C54 1.393 . S
C54 H19 0.931 . S
C54 C53 1.393 . S
C54 C55 1.382 . S
C55 H20 0.929 1_655 S
C55 C50 1.371 . S
C55 C54 1.382 . S
C56 N24 1.423 1_455 S
C56 C57 1.362 . S
C56 C61 1.388 . S
C57 H21 0.929 . S
C57 C56 1.362 . S
C57 C58 1.376 . S
C58 H22 0.931 . S
C58 C57 1.376 . S
C58 C59 1.396 . S
C59 C41 1.472 . S
C59 C58 1.396 . S
C59 C60 1.348 . S
C60 H23 0.929 . S
C60 C59 1.348 . S
C60 C61 1.443 . S
C61 H25 0.932 . S
C61 C56 1.388 . S
C61 C60 1.443 . S
H62 C89 0.929 . S
N63 C88 1.433 . S
N63 C94 1.435 . S
N63 C100 1.423 1_655 S
H64 C90 0.930 . S
H65 C93 0.931 . S
H66 C92 0.929 . S
H67 C95 0.930 . S
H68 C96 0.932 . S
H69 C99 0.929 1_455 S
H70 C98 0.931 . S
H71 C101 0.929 . S
H72 C105 0.932 1_655 S
H73 C102 0.931 . S
H74 C104 0.929 . S
H75 C107 0.929 . S
H76 C108 0.930 . S
H77 C110 0.929 . S
H78 C111 0.931 . S
H79 C113 0.930 . S
H80 C114 0.932 . S
H81 C116 0.931 . S
H82 C117 0.929 . S
H83 C119 0.929 . S
H84 C120 0.931 . S
H85 C122 0.929 . S
N86 C106 1.433 . S
N86 C112 1.435 . S
N86 C118 1.423 . S
H87 C123 0.932 . S
C88 N63 1.433 . S
C88 C89 1.363 . S
C88 C93 1.370 . S
C89 H62 0.929 . S
C89 C88 1.363 . S
C89 C90 1.385 . S
C90 H64 0.930 . S
C90 C89 1.385 . S
C90 C91 1.357 . S
C91 C90 1.357 . S
C91 C92 1.406 . S
C92 H66 0.929 . S
C92 C91 1.406 . S
C92 C93 1.391 . S
C93 H65 0.931 . S
C93 C88 1.370 . S
C93 C92 1.391 . S
C94 N63 1.435 . S
C94 C95 1.358 . S
C94 C99 1.371 . S
C95 H67 0.930 . S
C95 C94 1.358 . S
C95 C96 1.405 . S
C96 H68 0.932 . S
C96 C95 1.405 . S
C96 C97 1.383 . S
C97 C96 1.383 . S
C97 C98 1.393 . S
C98 H70 0.931 . S
C98 C97 1.393 . S
C98 C99 1.382 . S
C99 H69 0.929 1_655 S
C99 C94 1.371 . S
C99 C98 1.382 . S
C100 N63 1.423 1_455 S
C100 C101 1.362 . S
C100 C105 1.388 . S
C101 H71 0.929 . S
C101 C100 1.362 . S
C101 C102 1.376 . S
C102 H73 0.931 . S
C102 C101 1.376 . S
C102 C103 1.396 . S
C103 C102 1.396 . S
C103 C104 1.348 . S
C103 C121 1.472 . S
C104 H74 0.929 . S
C104 C103 1.348 . S
C104 C105 1.443 . S
C105 H72 0.932 1_455 S
C105 C100 1.388 . S
C105 C104 1.443 . S
C106 N86 1.433 . S
C106 C107 1.363 . S
C106 C111 1.370 . S
C107 H75 0.929 . S
C107 C106 1.363 . S
C107 C108 1.385 . S
C108 H76 0.930 . S
C108 C107 1.385 . S
C108 C109 1.357 . S
C109 C108 1.357 . S
C109 C110 1.406 . S
C110 H77 0.929 . S
C110 C109 1.406 . S
C110 C111 1.391 . S
C111 H78 0.931 . S
C111 C106 1.370 . S
C111 C110 1.391 . S
C112 N86 1.435 . S
C112 C113 1.358 . S
C112 C117 1.371 . S
C113 H79 0.930 . S
C113 C112 1.358 . S
C113 C114 1.405 . S
C114 H80 0.932 . S
C114 C113 1.405 . S
C114 C115 1.383 . S
C115 C114 1.383 . S
C115 C116 1.393 . S
C116 H81 0.931 . S
C116 C115 1.393 . S
C116 C117 1.382 . S
C117 H82 0.929 . S
C117 C112 1.371 . S
C117 C116 1.382 . S
C118 N86 1.423 . S
C118 C119 1.362 . S
C118 C123 1.388 . S
C119 H83 0.929 . S
C119 C118 1.362 . S
C119 C120 1.376 . S
C120 H84 0.931 . S
C120 C119 1.376 . S
C120 C121 1.396 . S
C121 C103 1.472 . S
C121 C120 1.396 . S
C121 C122 1.348 . S
C122 H85 0.929 . S
C122 C121 1.348 . S
C122 C123 1.443 . S
C123 H87 0.932 . S
C123 C118 1.388 . S
C123 C122 1.443 . S
H124 C151 0.929 . S
N125 C150 1.433 . S
N125 C156 1.435 . S
N125 C162 1.423 . S
H126 C152 0.930 . S
H127 C155 0.931 . S
H128 C154 0.929 . S
H129 C157 0.930 . S
H130 C158 0.932 . S
H131 C161 0.929 . S
H132 C160 0.931 . S
H133 C163 0.929 . S
H134 C167 0.932 . S
H135 C164 0.931 . S
H136 C166 0.929 . S
H137 C169 0.929 . S
H138 C170 0.930 . S
H139 C172 0.929 . S
H140 C173 0.931 . S
H141 C175 0.930 . S
H142 C176 0.932 . S
H143 C178 0.931 . S
H144 C179 0.929 . S
H145 C181 0.929 . S
H146 C182 0.931 . S
H147 C184 0.929 . S
N148 C168 1.433 . S
N148 C174 1.435 . S
N148 C180 1.423 . S
H149 C185 0.932 . S
C150 N125 1.433 . S
C150 C151 1.363 . S
C150 C155 1.370 . S
C151 H124 0.929 . S
C151 C150 1.363 . S
C151 C152 1.385 . S
C152 H126 0.930 . S
C152 C151 1.385 . S
C152 C153 1.357 . S
C153 C152 1.357 . S
C153 C154 1.406 . S
C154 H128 0.929 . S
C154 C153 1.406 . S
C154 C155 1.391 . S
C155 H127 0.931 . S
C155 C150 1.370 . S
C155 C154 1.391 . S
C156 N125 1.435 . S
C156 C157 1.358 . S
C156 C161 1.371 . S
C157 H129 0.930 . S
C157 C156 1.358 . S
C157 C158 1.405 . S
C158 H130 0.932 . S
C158 C157 1.405 . S
C158 C159 1.383 . S
C159 C158 1.383 . S
C159 C160 1.393 . S
C160 H132 0.931 . S
C160 C159 1.393 . S
C160 C161 1.382 . S
C161 H131 0.929 . S
C161 C156 1.371 . S
C161 C160 1.382 . S
C162 N125 1.423 . S
C162 C163 1.362 . S
C162 C167 1.388 . S
C163 H133 0.929 . S
C163 C162 1.362 . S
C163 C164 1.376 . S
C164 H135 0.931 . S
C164 C163 1.376 . S
C164 C165 1.396 . S
C165 C164 1.396 . S
C165 C166 1.348 . S
C165 C183 1.472 . S
C166 H136 0.929 . S
C166 C165 1.348 . S
C166 C167 1.443 . S
C167 H134 0.932 . S
C167 C162 1.388 . S
C167 C166 1.443 . S
C168 N148 1.433 . S
C168 C169 1.363 . S
C168 C173 1.370 . S
C169 H137 0.929 . S
C169 C168 1.363 . S
C169 C170 1.385 . S
C170 H138 0.930 . S
C170 C169 1.385 . S
C170 C171 1.357 . S
C171 C170 1.357 . S
C171 C172 1.406 . S
C172 H139 0.929 . S
C172 C171 1.406 . S
C172 C173 1.391 . S
C173 H140 0.931 . S
C173 C168 1.370 . S
C173 C172 1.391 . S
C174 N148 1.435 . S
C174 C175 1.358 . S
C174 C179 1.371 . S
C175 H141 0.930 . S
C175 C174 1.358 . S
C175 C176 1.405 . S
C176 H142 0.932 . S
C176 C175 1.405 . S
C176 C177 1.383 . S
C177 C176 1.383 . S
C177 C178 1.393 . S
C178 H143 0.931 . S
C178 C177 1.393 . S
C178 C179 1.382 . S
C179 H144 0.929 . S
C179 C174 1.371 . S
C179 C178 1.382 . S
C180 N148 1.423 . S
C180 C181 1.362 . S
C180 C185 1.388 . S
C181 H145 0.929 . S
C181 C180 1.362 . S
C181 C182 1.376 . S
C182 H146 0.931 . S
C182 C181 1.376 . S
C182 C183 1.396 . S
C183 C165 1.472 . S
C183 C182 1.396 . S
C183 C184 1.348 . S
C184 H147 0.929 . S
C184 C183 1.348 . S
C184 C185 1.443 . S
C185 H149 0.932 . S
C185 C180 1.388 . S
C185 C184 1.443 . S
H186 C213 0.929 . S
N187 C212 1.433 . S
N187 C218 1.435 . S
N187 C224 1.423 . S
H188 C214 0.930 . S
H189 C217 0.931 . S
H190 C216 0.929 . S
H191 C219 0.930 . S
H192 C220 0.932 . S
H193 C223 0.929 . S
H194 C222 0.931 . S
H195 C225 0.929 . S
H196 C229 0.932 . S
H197 C226 0.931 . S
H198 C228 0.929 . S
H199 C231 0.929 . S
H200 C232 0.930 . S
H201 C234 0.929 . S
H202 C235 0.931 . S
H203 C237 0.930 . S
H204 C238 0.932 . S
H205 C240 0.931 . S
H206 C241 0.929 . S
H207 C243 0.929 . S
H208 C244 0.931 1_565 S
H209 C246 0.929 . S
N210 C230 1.433 . S
N210 C236 1.435 . S
N210 C242 1.423 . S
H211 C247 0.932 . S
C212 N187 1.433 . S
C212 C213 1.363 . S
C212 C217 1.370 . S
C213 H186 0.929 . S
C213 C212 1.363 . S
C213 C214 1.385 . S
C214 H188 0.930 . S
C214 C213 1.385 . S
C214 C215 1.357 . S
C215 C214 1.357 . S
C215 C216 1.406 . S
C216 H190 0.929 . S
C216 C215 1.406 . S
C216 C217 1.391 . S
C217 H189 0.931 . S
C217 C212 1.370 . S
C217 C216 1.391 . S
C218 N187 1.435 . S
C218 C219 1.358 . S
C218 C223 1.371 . S
C219 H191 0.930 . S
C219 C218 1.358 . S
C219 C220 1.405 . S
C220 H192 0.932 . S
C220 C219 1.405 . S
C220 C221 1.383 . S
C221 C220 1.383 . S
C221 C222 1.393 . S
C222 H194 0.931 . S
C222 C221 1.393 . S
C222 C223 1.382 . S
C223 H193 0.929 . S
C223 C218 1.371 . S
C223 C222 1.382 . S
C224 N187 1.423 . S
C224 C225 1.362 . S
C224 C229 1.388 . S
C225 H195 0.929 . S
C225 C224 1.362 . S
C225 C226 1.376 . S
C226 H197 0.931 . S
C226 C225 1.376 . S
C226 C227 1.396 . S
C227 C226 1.396 . S
C227 C228 1.348 . S
C227 C245 1.467 1_565 S
C228 H198 0.929 . S
C228 C227 1.348 . S
C228 C229 1.443 . S
C229 H196 0.932 . S
C229 C224 1.388 . S
C229 C228 1.443 . S
C230 N210 1.433 . S
C230 C231 1.363 . S
C230 C235 1.370 . S
C231 H199 0.929 . S
C231 C230 1.363 . S
C231 C232 1.385 . S
C232 H200 0.930 . S
C232 C231 1.385 . S
C232 C233 1.357 . S
C233 C232 1.357 . S
C233 C234 1.406 . S
C234 H201 0.929 . S
C234 C233 1.406 . S
C234 C235 1.391 . S
C235 H202 0.931 . S
C235 C230 1.370 . S
C235 C234 1.391 . S
C236 N210 1.435 . S
C236 C237 1.358 . S
C236 C241 1.371 . S
C237 H203 0.930 . S
C237 C236 1.358 . S
C237 C238 1.405 . S
C238 H204 0.932 . S
C238 C237 1.405 . S
C238 C239 1.383 . S
C239 C238 1.383 . S
C239 C240 1.393 . S
C240 H205 0.931 . S
C240 C239 1.393 . S
C240 C241 1.382 . S
C241 H206 0.929 . S
C241 C236 1.371 . S
C241 C240 1.382 . S
C242 N210 1.423 . S
C242 C243 1.362 . S
C242 C247 1.388 . S
C243 H207 0.929 . S
C243 C242 1.362 . S
C243 C244 1.376 . S
C244 H208 0.931 1_545 S
C244 C243 1.376 . S
C244 C245 1.396 . S
C245 C227 1.467 1_545 S
C245 C244 1.396 . S
C245 C246 1.353 . S
C246 H209 0.929 . S
C246 C245 1.353 . S
C246 C247 1.443 . S
C247 H211 0.932 . S
C247 C242 1.388 . S
C247 C246 1.443 . S
H248 C275 0.929 . S
N249 C274 1.433 . S
N249 C280 1.435 . S
N249 C286 1.423 . S
H250 C276 0.930 . S
H251 C279 0.931 . S
H252 C278 0.929 . S
H253 C281 0.930 . S
H254 C282 0.932 . S
H255 C285 0.929 . S
H256 C284 0.931 . S
H257 C287 0.929 . S
H258 C291 0.932 . S
H259 C288 0.931 . S
H260 C290 0.929 . S
H261 C293 0.929 . S
H262 C294 0.930 . S
H263 C296 0.929 . S
H264 C297 0.931 . S
H265 C299 0.930 . S
H266 C300 0.932 . S
H267 C302 0.931 1_554 S
H268 C303 0.929 . S
H269 C305 0.929 . S
H270 C306 0.931 1_455 S
H271 C308 0.929 . S
N272 C292 1.433 . S
N272 C298 1.435 . S
N272 C304 1.423 . S
H273 C309 0.932 . S
C274 N249 1.433 . S
C274 C275 1.363 . S
C274 C279 1.370 . S
C275 H248 0.929 . S
C275 C274 1.363 . S
C275 C276 1.385 . S
C276 H250 0.930 . S
C276 C275 1.385 . S
C276 C277 1.357 . S
C277 C276 1.357 . S
C277 C278 1.406 . S
C278 H252 0.929 . S
C278 C277 1.406 . S
C278 C279 1.391 . S
C279 H251 0.931 . S
C279 C274 1.370 . S
C279 C278 1.391 . S
C280 N249 1.435 . S
C280 C281 1.358 . S
C280 C285 1.371 1_556 S
C281 H253 0.930 . S
C281 C280 1.358 . S
C281 C282 1.405 1_556 S
C282 H254 0.932 . S
C282 C281 1.405 1_554 S
C282 C283 1.383 . S
C283 C282 1.383 . S
C283 C284 1.393 . S
C284 H256 0.931 . S
C284 C283 1.393 . S
C284 C285 1.382 . S
C285 H255 0.929 . S
C285 C280 1.371 1_554 S
C285 C284 1.382 . S
C286 N249 1.423 . S
C286 C287 1.362 . S
C286 C291 1.388 . S
C287 H257 0.929 . S
C287 C286 1.362 . S
C287 C288 1.376 . S
C288 H259 0.931 . S
C288 C287 1.376 . S
C288 C289 1.396 . S
C289 C288 1.396 . S
C289 C290 1.348 . S
C289 C307 1.472 . S
C290 H260 0.929 . S
C290 C289 1.348 . S
C290 C291 1.443 . S
C291 H258 0.932 . S
C291 C286 1.388 . S
C291 C290 1.443 . S
C292 N272 1.433 . S
C292 C293 1.363 . S
C292 C297 1.370 . S
C293 H261 0.929 . S
C293 C292 1.363 . S
C293 C294 1.385 . S
C294 H262 0.930 . S
C294 C293 1.385 . S
C294 C295 1.357 . S
C295 C294 1.357 . S
C295 C296 1.406 . S
C296 H263 0.929 . S
C296 C295 1.406 . S
C296 C297 1.391 . S
C297 H264 0.931 . S
C297 C292 1.370 . S
C297 C296 1.391 . S
C298 N272 1.435 . S
C298 C299 1.358 . S
C298 C303 1.371 . S
C299 H265 0.930 . S
C299 C298 1.358 . S
C299 C300 1.405 . S
C300 H266 0.932 . S
C300 C299 1.405 . S
C300 C301 1.419 . S
C301 C300 1.419 . S
C301 C302 1.397 . S
C302 H267 0.931 1_556 S
C302 C301 1.397 . S
C302 C303 1.382 . S
C303 H268 0.929 . S
C303 C298 1.371 . S
C303 C302 1.382 . S
C304 N272 1.423 . S
C304 C305 1.362 . S
C304 C309 1.388 . S
C305 H269 0.929 . S
C305 C304 1.362 . S
C305 C306 1.376 . S
C306 H270 0.931 1_655 S
C306 C305 1.376 . S
C306 C307 1.396 1_655 S
C307 C289 1.472 . S
C307 C306 1.396 1_455 S
C307 C308 1.348 1_455 S
C308 H271 0.929 . S
C308 C307 1.348 1_655 S
C308 C309 1.443 . S
C309 H273 0.932 . S
C309 C304 1.388 . S
C309 C308 1.443 . S
H310 C337 0.929 . S
N311 C336 1.433 . S
N311 C342 1.435 . S
N311 C348 1.423 . S
H312 C338 0.930 . S
H313 C341 0.931 . S
H314 C340 0.929 . S
H315 C343 0.930 . S
H316 C344 0.932 . S
H317 C347 0.929 . S
H318 C346 0.931 . S
H319 C349 0.929 . S
H320 C353 0.932 . S
H321 C350 0.931 . S
H322 C352 0.929 . S
H323 C355 0.929 . S
H324 C356 0.930 . S
H325 C358 0.929 . S
H326 C359 0.931 . S
H327 C361 0.930 . S
H328 C362 0.932 . S
H329 C364 0.931 . S
H330 C365 0.929 . S
H331 C367 0.929 . S
H332 C368 0.931 . S
H333 C370 0.929 . S
N334 C354 1.433 . S
N334 C360 1.435 . S
N334 C366 1.423 . S
H335 C371 0.932 . S
C336 N311 1.433 . S
C336 C337 1.363 . S
C336 C341 1.370 . S
C337 H310 0.929 . S
C337 C336 1.363 . S
C337 C338 1.385 . S
C338 H312 0.930 . S
C338 C337 1.385 . S
C338 C339 1.357 . S
C339 C338 1.357 . S
C339 C340 1.406 . S
C340 H314 0.929 . S
C340 C339 1.406 . S
C340 C341 1.391 . S
C341 H313 0.931 . S
C341 C336 1.370 . S
C341 C340 1.391 . S
C342 N311 1.435 . S
C342 C343 1.358 . S
C342 C347 1.371 . S
C343 H315 0.930 . S
C343 C342 1.358 . S
C343 C344 1.405 . S
C344 H316 0.932 . S
C344 C343 1.405 . S
C344 C345 1.383 . S
C345 C344 1.383 . S
C345 C346 1.393 . S
C346 H318 0.931 . S
C346 C345 1.393 . S
C346 C347 1.382 . S
C347 H317 0.929 . S
C347 C342 1.371 . S
C347 C346 1.382 . S
C348 N311 1.423 . S
C348 C349 1.362 . S
C348 C353 1.388 . S
C349 H319 0.929 . S
C349 C348 1.362 . S
C349 C350 1.376 . S
C350 H321 0.931 . S
C350 C349 1.376 . S
C350 C351 1.396 . S
C351 C350 1.396 . S
C351 C352 1.348 . S
C351 C369 1.472 . S
C352 H322 0.929 . S
C352 C351 1.348 . S
C352 C353 1.443 . S
C353 H320 0.932 . S
C353 C348 1.388 . S
C353 C352 1.443 . S
C354 N334 1.433 . S
C354 C355 1.363 . S
C354 C359 1.370 . S
C355 H323 0.929 . S
C355 C354 1.363 . S
C355 C356 1.385 . S
C356 H324 0.930 . S
C356 C355 1.385 . S
C356 C357 1.357 . S
C357 C356 1.357 . S
C357 C358 1.406 . S
C358 H325 0.929 . S
C358 C357 1.406 . S
C358 C359 1.391 . S
C359 H326 0.931 . S
C359 C354 1.370 . S
C359 C358 1.391 . S
C360 N334 1.435 . S
C360 C361 1.358 . S
C360 C365 1.371 . S
C361 H327 0.930 . S
C361 C360 1.358 . S
C361 C362 1.405 . S
C362 H328 0.932 . S
C362 C361 1.405 . S
C362 C363 1.383 . S
C363 C362 1.383 . S
C363 C364 1.393 . S
C364 H329 0.931 . S
C364 C363 1.393 . S
C364 C365 1.382 . S
C365 H330 0.929 . S
C365 C360 1.371 . S
C365 C364 1.382 . S
C366 N334 1.423 . S
C366 C367 1.362 . S
C366 C371 1.388 . S
C367 H331 0.929 . S
C367 C366 1.362 . S
C367 C368 1.376 . S
C368 H332 0.931 . S
C368 C367 1.376 . S
C368 C369 1.396 . S
C369 C351 1.472 . S
C369 C368 1.396 . S
C369 C370 1.348 . S
C370 H333 0.929 . S
C370 C369 1.348 . S
C370 C371 1.443 . S
C371 H335 0.932 . S
C371 C366 1.388 . S
C371 C370 1.443 . S
H372 C399 0.929 . S
N373 C398 1.433 . S
N373 C404 1.435 . S
N373 C410 1.423 . S
H374 C400 0.930 . S
H375 C403 0.931 . S
H376 C402 0.929 . S
H377 C405 0.930 . S
H378 C406 0.932 . S
H379 C409 0.929 . S
H380 C408 0.931 . S
H381 C411 0.929 . S
H382 C415 0.932 . S
H383 C412 0.931 . S
H384 C414 0.929 . S
H385 C417 0.929 . S
H386 C418 0.930 . S
H387 C420 0.929 . S
H388 C421 0.931 . S
H389 C423 0.930 . S
H390 C424 0.932 . S
H391 C426 0.931 . S
H392 C427 0.929 . S
H393 C429 0.929 . S
H394 C430 0.931 . S
H395 C432 0.929 . S
N396 C416 1.433 . S
N396 C422 1.435 . S
N396 C428 1.423 . S
H397 C433 0.932 . S
C398 N373 1.433 . S
C398 C399 1.363 . S
C398 C403 1.370 . S
C399 H372 0.929 . S
C399 C398 1.363 . S
C399 C400 1.385 . S
C400 H374 0.930 . S
C400 C399 1.385 . S
C400 C401 1.357 . S
C401 C400 1.357 . S
C401 C402 1.406 . S
C402 H376 0.929 . S
C402 C401 1.406 . S
C402 C403 1.391 . S
C403 H375 0.931 . S
C403 C398 1.370 . S
C403 C402 1.391 . S
C404 N373 1.435 . S
C404 C405 1.358 . S
C404 C409 1.371 . S
C405 H377 0.930 . S
C405 C404 1.358 . S
C405 C406 1.405 . S
C406 H378 0.932 . S
C406 C405 1.405 . S
C406 C407 1.383 . S
C407 C406 1.383 . S
C407 C408 1.393 . S
C408 H380 0.931 . S
C408 C407 1.393 . S
C408 C409 1.382 . S
C409 H379 0.929 . S
C409 C404 1.371 . S
C409 C408 1.382 . S
C410 N373 1.423 . S
C410 C411 1.362 1_565 S
C410 C415 1.388 . S
C411 H381 0.929 . S
C411 C410 1.362 1_545 S
C411 C412 1.376 . S
C412 H383 0.931 . S
C412 C411 1.376 . S
C412 C413 1.396 . S
C413 C412 1.396 . S
C413 C414 1.348 . S
C413 C431 1.472 . S
C414 H384 0.929 . S
C414 C413 1.348 . S
C414 C415 1.443 1_545 S
C415 H382 0.932 . S
C415 C410 1.388 . S
C415 C414 1.443 1_565 S
C416 N396 1.433 . S
C416 C417 1.363 . S
C416 C421 1.370 . S
C417 H385 0.929 . S
C417 C416 1.363 . S
C417 C418 1.385 . S
C418 H386 0.930 . S
C418 C417 1.385 . S
C418 C419 1.357 . S
C419 C418 1.357 . S
C419 C420 1.406 . S
C420 H387 0.929 . S
C420 C419 1.406 . S
C420 C421 1.391 . S
C421 H388 0.931 . S
C421 C416 1.370 . S
C421 C420 1.391 . S
C422 N396 1.435 . S
C422 C423 1.358 . S
C422 C427 1.371 . S
C423 H389 0.930 . S
C423 C422 1.358 . S
C423 C424 1.405 . S
C424 H390 0.932 . S
C424 C423 1.405 . S
C424 C425 1.383 . S
C425 C424 1.383 . S
C425 C426 1.393 . S
C426 H391 0.931 . S
C426 C425 1.393 . S
C426 C427 1.382 . S
C427 H392 0.929 . S
C427 C422 1.371 . S
C427 C426 1.382 . S
C428 N396 1.423 . S
C428 C429 1.362 . S
C428 C433 1.388 . S
C429 H393 0.929 . S
C429 C428 1.362 . S
C429 C430 1.376 . S
C430 H394 0.931 . S
C430 C429 1.376 . S
C430 C431 1.396 . S
C431 C413 1.472 . S
C431 C430 1.396 . S
C431 C432 1.348 . S
C432 H395 0.929 . S
C432 C431 1.348 . S
C432 C433 1.443 . S
C433 H397 0.932 . S
C433 C428 1.388 . S
C433 C432 1.443 . S
H434 C461 0.929 . S
N435 C460 1.433 . S
N435 C466 1.435 . S
N435 C472 1.423 . S
H436 C462 0.930 . S
H437 C465 0.931 . S
H438 C464 0.929 . S
H439 C467 0.930 . S
H440 C468 0.932 1_565 S
H441 C471 0.929 . S
H442 C470 0.930 . S
H443 C473 0.929 . S
H444 C477 0.932 . S
H445 C474 0.931 . S
H446 C476 0.929 . S
H447 C479 0.929 . S
H448 C480 0.930 . S
H449 C482 0.929 . S
H450 C483 0.931 . S
H451 C485 0.930 . S
H452 C486 0.932 . S
H453 C488 0.931 . S
H454 C489 0.929 . S
H455 C491 0.929 1_655 S
H456 C492 0.931 . S
H457 C494 0.929 . S
N458 C478 1.433 . S
N458 C484 1.435 . S
N458 C490 1.423 1_655 S
H459 C495 0.932 . S
C460 N435 1.433 . S
C460 C461 1.363 1_545 S
C460 C465 1.370 . S
C461 H434 0.929 . S
C461 C460 1.363 1_565 S
C461 C462 1.385 . S
C462 H436 0.930 . S
C462 C461 1.385 . S
C462 C463 1.357 1_565 S
C463 C462 1.357 1_545 S
C463 C464 1.406 . S
C464 H438 0.929 . S
C464 C463 1.406 . S
C464 C465 1.391 . S
C465 H437 0.931 . S
C465 C460 1.370 . S
C465 C464 1.391 . S
C466 N435 1.435 . S
C466 C467 1.358 . S
C466 C471 1.371 . S
C467 H439 0.930 . S
C467 C466 1.358 . S
C467 C468 1.405 . S
C468 H440 0.932 1_545 S
C468 C467 1.405 . S
C468 C469 1.383 1_545 S
C469 C468 1.383 1_565 S
C469 C470 1.392 . S
C470 H442 0.930 . S
C470 C469 1.392 . S
C470 C471 1.384 1_565 S
C471 H441 0.929 . S
C471 C466 1.371 . S
C471 C470 1.384 1_545 S
C472 N435 1.423 . S
C472 C473 1.362 . S
C472 C477 1.388 . S
C473 H443 0.929 . S
C473 C472 1.362 . S
C473 C474 1.376 . S
C474 H445 0.931 . S
C474 C473 1.376 . S
C474 C475 1.396 . S
C475 C474 1.396 . S
C475 C476 1.348 . S
C475 C493 1.472 . S
C476 H446 0.929 . S
C476 C475 1.348 . S
C476 C477 1.443 . S
C477 H444 0.932 . S
C477 C472 1.388 . S
C477 C476 1.443 . S
C478 N458 1.433 . S
C478 C479 1.363 . S
C478 C483 1.370 1_655 S
C479 H447 0.929 . S
C479 C478 1.363 . S
C479 C480 1.385 . S
C480 H448 0.930 . S
C480 C479 1.385 . S
C480 C481 1.357 . S
C481 C480 1.357 . S
C481 C482 1.406 1_655 S
C482 H449 0.929 . S
C482 C481 1.406 1_455 S
C482 C483 1.391 . S
C483 H450 0.931 . S
C483 C478 1.370 1_455 S
C483 C482 1.391 . S
C484 N458 1.435 . S
C484 C485 1.358 . S
C484 C489 1.371 . S
C485 H451 0.930 . S
C485 C484 1.358 . S
C485 C486 1.405 . S
C486 H452 0.932 . S
C486 C485 1.405 . S
C486 C487 1.383 . S
C487 C486 1.383 . S
C487 C488 1.393 . S
C488 H453 0.931 . S
C488 C487 1.393 . S
C488 C489 1.382 . S
C489 H454 0.929 . S
C489 C484 1.371 . S
C489 C488 1.382 . S
C490 N458 1.423 1_455 S
C490 C491 1.362 . S
C490 C495 1.388 . S
C491 H455 0.929 1_455 S
C491 C490 1.362 . S
C491 C492 1.376 . S
C492 H456 0.931 . S
C492 C491 1.376 . S
C492 C493 1.396 . S
C493 C475 1.472 . S
C493 C492 1.396 . S
C493 C494 1.348 . S
C494 H457 0.929 . S
C494 C493 1.348 . S
C494 C495 1.443 . S
C495 H459 0.932 . S
C495 C490 1.388 . S
C495 C494 1.443 . S
O496 Cd497 2.223 . S
O496 C504 1.315 . S
Cd497 O496 2.223 . S
Cd497 O500 2.297 . S
Cd497 O501 2.439 . S
Cd497 O507 2.240 . S
Cd498 O499 2.240 . S
Cd498 O506 2.223 . S
Cd498 O508 2.297 . S
Cd498 O509 2.439 . S
O499 Cd498 2.240 . S
O499 C504 1.279 . S
O500 Cd497 2.297 . S
O500 C502 1.247 . S
O501 Cd497 2.439 . S
O501 C502 1.208 . S
C502 O500 1.247 . S
C502 O501 1.208 . S
C503 O508 1.247 . S
C503 O509 1.208 . S
C504 O496 1.315 . S
C504 O499 1.279 . S
C505 O506 1.315 . S
C505 O507 1.279 . S
O506 Cd498 2.223 . S
O506 C505 1.315 . S
O507 Cd497 2.240 . S
O507 C505 1.279 . S
O508 Cd498 2.297 . S
O508 C503 1.247 . S
O509 Cd498 2.439 . S
O509 C503 1.208 . S
O510 Cd511 2.223 . S
O510 C518 1.315 . S
Cd511 O510 2.223 . S
Cd511 O514 2.297 . S
Cd511 O515 2.439 . S
Cd511 O521 2.240 . S
Cd512 O513 2.240 . S
Cd512 O520 2.223 . S
Cd512 O522 2.297 . S
Cd512 O523 2.439 . S
O513 Cd512 2.240 . S
O513 C518 1.279 . S
O514 Cd511 2.297 . S
O514 C516 1.247 . S
O515 Cd511 2.439 . S
O515 C516 1.208 . S
C516 O514 1.247 . S
C516 O515 1.208 . S
C517 O522 1.247 . S
C517 O523 1.208 . S
C518 O510 1.315 . S
C518 O513 1.279 . S
C519 O520 1.315 . S
C519 O521 1.279 . S
O520 Cd512 2.223 . S
O520 C519 1.315 . S
O521 Cd511 2.240 . S
O521 C519 1.279 . S
O522 Cd512 2.297 . S
O522 C517 1.247 . S
O523 Cd512 2.439 . S
O523 C517 1.208 . S
O524 Cd525 2.223 . S
O524 C532 1.315 . S
Cd525 O524 2.223 . S
Cd525 O528 2.297 . S
Cd525 O529 2.439 . S
Cd525 O535 2.240 . S
Cd526 O527 2.240 . S
Cd526 O534 2.223 . S
Cd526 O536 2.297 . S
Cd526 O537 2.439 . S
O527 Cd526 2.240 . S
O527 C532 1.279 . S
O528 Cd525 2.297 . S
O528 C530 1.247 . S
O529 Cd525 2.439 . S
O529 C530 1.208 . S
C530 O528 1.247 . S
C530 O529 1.208 . S
C531 O536 1.247 . S
C531 O537 1.208 . S
C532 O524 1.315 . S
C532 O527 1.279 . S
C533 O534 1.315 . S
C533 O535 1.279 . S
O534 Cd526 2.223 . S
O534 C533 1.315 . S
O535 Cd525 2.240 . S
O535 C533 1.279 . S
O536 Cd526 2.297 . S
O536 C531 1.247 . S
O537 Cd526 2.439 . S
O537 C531 1.208 . S
O538 Cd539 2.223 . S
O538 C546 1.315 . S
Cd539 O538 2.223 . S
Cd539 O542 2.297 . S
Cd539 O543 2.439 . S
Cd539 O549 2.240 . S
Cd540 O541 2.240 . S
Cd540 O548 2.223 . S
Cd540 O550 2.297 . S
Cd540 O551 2.439 . S
O541 Cd540 2.240 . S
O541 C546 1.279 . S
O542 Cd539 2.297 . S
O542 C544 1.247 . S
O543 Cd539 2.439 . S
O543 C544 1.208 . S
C544 O542 1.247 . S
C544 O543 1.208 . S
C545 O550 1.247 . S
C545 O551 1.208 . S
C546 O538 1.315 . S
C546 O541 1.279 . S
C547 O548 1.315 . S
C547 O549 1.279 . S
O548 Cd540 2.223 . S
O548 C547 1.315 . S
O549 Cd539 2.240 . S
O549 C547 1.279 . S
O550 Cd540 2.297 . S
O550 C545 1.247 . S
O551 Cd540 2.439 . S
O551 C545 1.208 . S
O552 Cd553 2.223 . S
O552 C560 1.315 . S
Cd553 O552 2.223 . S
Cd553 O556 2.297 . S
Cd553 O557 2.439 . S
Cd553 O563 2.240 . S
Cd554 O555 2.240 . S
Cd554 O562 2.223 . S
Cd554 O564 2.297 . S
Cd554 O565 2.439 . S
O555 Cd554 2.240 . S
O555 C560 1.279 . S
O556 Cd553 2.297 . S
O556 C558 1.247 . S
O557 Cd553 2.439 . S
O557 C558 1.208 . S
C558 O556 1.247 . S
C558 O557 1.208 . S
C559 O564 1.247 . S
C559 O565 1.208 . S
C560 O552 1.315 . S
C560 O555 1.279 . S
C561 O562 1.315 . S
C561 O563 1.279 . S
O562 Cd554 2.223 . S
O562 C561 1.315 . S
O563 Cd553 2.240 . S
O563 C561 1.279 . S
O564 Cd554 2.297 . S
O564 C559 1.247 . S
O565 Cd554 2.439 . S
O565 C559 1.208 . S
O566 Cd567 2.223 . S
O566 C574 1.315 . S
Cd567 O566 2.223 . S
Cd567 O570 2.297 . S
Cd567 O571 2.439 . S
Cd567 O577 2.240 . S
Cd568 O569 2.240 . S
Cd568 O576 2.223 . S
Cd568 O578 2.297 . S
Cd568 O579 2.439 . S
O569 Cd568 2.240 . S
O569 C574 1.279 . S
O570 Cd567 2.297 . S
O570 C572 1.247 . S
O571 Cd567 2.439 . S
O571 C572 1.208 . S
C572 O570 1.247 . S
C572 O571 1.208 . S
C573 O578 1.247 . S
C573 O579 1.208 . S
C574 O566 1.315 . S
C574 O569 1.279 . S
C575 O576 1.315 . S
C575 O577 1.279 . S
O576 Cd568 2.223 . S
O576 C575 1.315 . S
O577 Cd567 2.240 . S
O577 C575 1.279 . S
O578 Cd568 2.297 . S
O578 C573 1.247 . S
O579 Cd568 2.439 . S
O579 C573 1.208 . S
O580 Cd581 2.223 . S
O580 C588 1.315 . S
Cd581 O580 2.223 . S
Cd581 O584 2.297 . S
Cd581 O585 2.439 . S
Cd581 O591 2.240 1_554 S
Cd582 O583 2.240 1_556 S
Cd582 O590 2.223 1_556 S
Cd582 O592 2.297 . S
Cd582 O593 2.439 . S
O583 Cd582 2.240 1_554 S
O583 C588 1.279 . S
O584 Cd581 2.297 . S
O584 C586 1.247 . S
O585 Cd581 2.439 . S
O585 C586 1.208 . S
C586 O584 1.247 . S
C586 O585 1.208 . S
C587 O592 1.247 . S
C587 O593 1.208 . S
C588 O580 1.315 . S
C588 O583 1.279 . S
C589 O590 1.313 1_556 S
C589 O591 1.279 . S
O590 Cd582 2.223 1_554 S
O590 C589 1.313 1_554 S
O591 Cd581 2.240 1_556 S
O591 C589 1.279 . S
O592 Cd582 2.297 . S
O592 C587 1.247 . S
O593 Cd582 2.439 . S
O593 C587 1.208 . S
O594 Cd595 2.223 . S
O594 C602 1.315 . S
Cd595 O594 2.223 . S
Cd595 O598 2.297 . S
Cd595 O599 2.439 . S
Cd595 O605 2.240 . S
Cd596 O597 2.240 . S
Cd596 O604 2.223 . S
Cd596 O606 2.297 . S
Cd596 O607 2.439 . S
O597 Cd596 2.240 . S
O597 C602 1.279 . S
O598 Cd595 2.297 . S
O598 C600 1.247 . S
O599 Cd595 2.439 . S
O599 C600 1.208 . S
C600 O598 1.247 . S
C600 O599 1.208 . S
C601 O606 1.247 . S
C601 O607 1.208 . S
C602 O594 1.315 . S
C602 O597 1.279 . S
C603 O604 1.315 . S
C603 O605 1.279 . S
O604 Cd596 2.223 . S
O604 C603 1.315 . S
O605 Cd595 2.240 . S
O605 C603 1.279 . S
O606 Cd596 2.297 . S
O606 C601 1.247 . S
O607 Cd596 2.439 . S
O607 C601 1.208 . S
C608 C609 1.363 . S
C608 C614 1.379 . S
C608 N616 1.356 . S
C609 C608 1.363 . S
C609 C615 1.363 . S
C610 C611 1.363 . S
C610 C615 1.379 . S
C610 N617 1.356 . S
C611 C610 1.363 . S
C611 C614 1.363 . S
N612 C614 1.356 . S
N612 H624 0.984 . S
N612 H625 0.985 . S
N613 C615 1.356 . S
N613 H618 0.984 . S
N613 H619 0.985 . S
C614 C608 1.379 . S
C614 C611 1.363 . S
C614 N612 1.356 . S
C615 C609 1.363 . S
C615 C610 1.379 . S
C615 N613 1.356 . S
N616 C608 1.356 . S
N616 H622 0.984 . S
N616 H623 0.984 . S
N617 C610 1.356 . S
N617 H620 0.984 . S
N617 H621 0.985 . S
H618 N613 0.984 . S
H619 N613 0.985 . S
H620 N617 0.984 . S
H621 N617 0.985 . S
H622 N616 0.984 . S
H623 N616 0.984 . S
H624 N612 0.984 . S
H625 N612 0.985 . S
C626 C627 1.363 . S
C626 C632 1.379 . S
C626 N634 1.356 . S
C627 C626 1.363 . S
C627 C633 1.363 . S
C628 C629 1.363 . S
C628 C633 1.379 . S
C628 N635 1.356 . S
C629 C628 1.363 . S
C629 C632 1.363 . S
N630 C632 1.356 . S
N630 H642 0.984 . S
N630 H643 0.985 . S
N631 C633 1.356 . S
N631 H636 0.984 . S
N631 H637 0.985 . S
C632 C626 1.379 . S
C632 C629 1.363 . S
C632 N630 1.356 . S
C633 C627 1.363 . S
C633 C628 1.379 . S
C633 N631 1.356 . S
N634 C626 1.356 . S
N634 H640 0.984 . S
N634 H641 0.984 . S
N635 C628 1.356 . S
N635 H638 0.984 . S
N635 H639 0.985 . S
H636 N631 0.984 . S
H637 N631 0.985 . S
H638 N635 0.984 . S
H639 N635 0.985 . S
H640 N634 0.984 . S
H641 N634 0.984 . S
H642 N630 0.984 . S
H643 N630 0.985 . S
C644 C645 1.363 . S
C644 C650 1.379 . S
C644 N652 1.356 . S
C645 C644 1.363 . S
C645 C651 1.363 . S
C646 C647 1.363 . S
C646 C651 1.379 . S
C646 N653 1.356 . S
C647 C646 1.363 . S
C647 C650 1.363 . S
N648 C650 1.356 . S
N648 H660 0.984 . S
N648 H661 0.985 . S
N649 C651 1.356 . S
N649 H654 0.984 . S
N649 H655 0.985 . S
C650 C644 1.379 . S
C650 C647 1.363 . S
C650 N648 1.356 . S
C651 C645 1.363 . S
C651 C646 1.379 . S
C651 N649 1.356 . S
N652 C644 1.356 . S
N652 H658 0.984 . S
N652 H659 0.984 . S
N653 C646 1.356 . S
N653 H656 0.984 . S
N653 H657 0.985 . S
H654 N649 0.984 . S
H655 N649 0.985 . S
H656 N653 0.984 . S
H657 N653 0.985 . S
H658 N652 0.984 . S
H659 N652 0.984 . S
H660 N648 0.984 . S
H661 N648 0.985 . S
C662 C663 1.363 . S
C662 C668 1.379 . S
C662 N670 1.356 1_554 S
C663 C662 1.363 . S
C663 C669 1.363 . S
C664 C665 1.363 . S
C664 C669 1.379 . S
C664 N671 1.356 . S
C665 C664 1.363 . S
C665 C668 1.363 . S
N666 C668 1.356 . S
N666 H678 0.984 1_554 S
N666 H679 0.985 . S
N667 C669 1.356 . S
N667 H672 0.984 . S
N667 H673 0.985 . S
C668 C662 1.379 . S
C668 C665 1.363 . S
C668 N666 1.356 . S
C669 C663 1.363 . S
C669 C664 1.379 . S
C669 N667 1.356 . S
N670 C662 1.356 1_556 S
N670 H676 0.984 . S
N670 H677 0.984 . S
N671 C664 1.356 . S
N671 H674 0.984 . S
N671 H675 0.985 . S
H672 N667 0.984 . S
H673 N667 0.985 . S
H674 N671 0.984 . S
H675 N671 0.985 . S
H676 N670 0.984 . S
H677 N670 0.984 . S
H678 N666 0.984 1_556 S
H679 N666 0.985 . S
C680 C681 1.363 . S
C680 C686 1.379 . S
C680 N688 1.356 . S
C681 C680 1.363 . S
C681 C687 1.363 . S
C682 C683 1.363 . S
C682 C687 1.379 . S
C682 N689 1.356 . S
C683 C682 1.363 . S
C683 C686 1.363 . S
N684 C686 1.356 . S
N684 H696 0.984 . S
N684 H697 0.985 . S
N685 C687 1.356 . S
N685 H690 0.984 . S
N685 H691 0.985 . S
C686 C680 1.379 . S
C686 C683 1.363 . S
C686 N684 1.356 . S
C687 C681 1.363 . S
C687 C682 1.379 . S
C687 N685 1.356 . S
N688 C680 1.356 . S
N688 H694 0.984 . S
N688 H695 0.984 . S
N689 C682 1.356 . S
N689 H692 0.984 . S
N689 H693 0.985 . S
H690 N685 0.984 . S
H691 N685 0.985 . S
H692 N689 0.984 . S
H693 N689 0.985 . S
H694 N688 0.984 . S
H695 N688 0.984 . S
H696 N684 0.984 . S
H697 N684 0.985 . S
C698 C699 1.363 . S
C698 C704 1.379 . S
C698 N706 1.356 . S
C699 C698 1.363 . S
C699 C705 1.363 . S
C700 C701 1.363 . S
C700 C705 1.379 . S
C700 N707 1.356 . S
C701 C700 1.363 . S
C701 C704 1.363 . S
N702 C704 1.356 . S
N702 H714 0.984 . S
N702 H715 0.985 . S
N703 C705 1.356 . S
N703 H708 0.984 . S
N703 H709 0.985 . S
C704 C698 1.379 . S
C704 C701 1.363 . S
C704 N702 1.356 . S
C705 C699 1.363 . S
C705 C700 1.379 . S
C705 N703 1.356 . S
N706 C698 1.356 . S
N706 H712 0.984 . S
N706 H713 0.984 . S
N707 C700 1.356 . S
N707 H710 0.984 . S
N707 H711 0.985 . S
H708 N703 0.984 . S
H709 N703 0.985 . S
H710 N707 0.984 . S
H711 N707 0.985 . S
H712 N706 0.984 . S
H713 N706 0.984 . S
H714 N702 0.984 . S
H715 N702 0.985 . S
C716 C717 1.363 . S
C716 C722 1.379 . S
C716 N724 1.356 . S
C717 C716 1.363 . S
C717 C723 1.363 . S
C718 C719 1.363 . S
C718 C723 1.379 . S
C718 N725 1.356 . S
C719 C718 1.363 . S
C719 C722 1.363 . S
N720 C722 1.356 . S
N720 H732 0.984 . S
N720 H733 0.985 . S
N721 C723 1.356 . S
N721 H726 0.984 . S
N721 H727 0.985 . S
C722 C716 1.379 . S
C722 C719 1.363 . S
C722 N720 1.356 . S
C723 C717 1.363 . S
C723 C718 1.379 . S
C723 N721 1.356 . S
N724 C716 1.356 . S
N724 H730 0.984 . S
N724 H731 0.984 . S
N725 C718 1.356 . S
N725 H728 0.984 . S
N725 H729 0.985 . S
H726 N721 0.984 . S
H727 N721 0.985 . S
H728 N725 0.984 . S
H729 N725 0.985 . S
H730 N724 0.984 . S
H731 N724 0.984 . S
H732 N720 0.984 . S
H733 N720 0.985 . S
C734 C735 1.363 . S
C734 C740 1.379 . S
C734 N742 1.356 . S
C735 C734 1.363 . S
C735 C741 1.363 . S
C736 C737 1.363 . S
C736 C741 1.379 . S
C736 N743 1.356 . S
C737 C736 1.363 . S
C737 C740 1.363 . S
N738 C740 1.356 . S
N738 H750 0.984 . S
N738 H751 0.985 . S
N739 C741 1.356 . S
N739 H744 0.984 . S
N739 H745 0.985 . S
C740 C734 1.379 . S
C740 C737 1.363 . S
C740 N738 1.356 . S
C741 C735 1.363 . S
C741 C736 1.379 . S
C741 N739 1.356 . S
N742 C734 1.356 . S
N742 H748 0.984 . S
N742 H749 0.984 . S
N743 C736 1.356 . S
N743 H746 0.984 . S
N743 H747 0.985 . S
H744 N739 0.984 . S
H745 N739 0.985 . S
H746 N743 0.984 . S
H747 N743 0.985 . S
H748 N742 0.984 . S
H749 N742 0.984 . S
H750 N738 0.984 . S
H751 N738 0.985 . S
C752 C753 1.363 . S
C752 C758 1.379 . S
C752 N760 1.356 . S
C753 C752 1.363 . S
C753 C759 1.363 . S
C754 C755 1.363 . S
C754 C759 1.379 . S
C754 N761 1.356 . S
C755 C754 1.363 . S
C755 C758 1.363 . S
N756 C758 1.356 . S
N756 H768 0.984 . S
N756 H769 0.985 . S
N757 C759 1.356 . S
N757 H762 0.984 . S
N757 H763 0.985 . S
C758 C752 1.379 . S
C758 C755 1.363 . S
C758 N756 1.356 . S
C759 C753 1.363 . S
C759 C754 1.379 . S
C759 N757 1.356 . S
N760 C752 1.356 . S
N760 H766 0.984 . S
N760 H767 0.984 . S
N761 C754 1.356 . S
N761 H764 0.984 . S
N761 H765 0.985 . S
H762 N757 0.984 . S
H763 N757 0.985 . S
H764 N761 0.984 . S
H765 N761 0.985 . S
H766 N760 0.984 . S
H767 N760 0.984 . S
H768 N756 0.984 . S
H769 N756 0.985 . S
C770 C771 1.363 . S
C770 C776 1.379 . S
C770 N778 1.356 . S
C771 C770 1.363 . S
C771 C777 1.363 . S
C772 C773 1.363 . S
C772 C777 1.379 . S
C772 N779 1.356 1_554 S
C773 C772 1.363 . S
C773 C776 1.363 . S
N774 C776 1.356 . S
N774 H786 0.984 . S
N774 H787 0.985 . S
N775 C777 1.356 1_556 S
N775 H780 0.984 . S
N775 H781 0.985 . S
C776 C770 1.379 . S
C776 C773 1.363 . S
C776 N774 1.356 . S
C777 C771 1.363 . S
C777 C772 1.379 . S
C777 N775 1.356 1_554 S
N778 C770 1.356 . S
N778 H784 0.984 . S
N778 H785 0.984 . S
N779 C772 1.356 1_556 S
N779 H782 0.984 . S
N779 H783 0.985 . S
H780 N775 0.984 . S
H781 N775 0.985 . S
H782 N779 0.984 . S
H783 N779 0.985 . S
H784 N778 0.984 . S
H785 N778 0.984 . S
H786 N774 0.984 . S
H787 N774 0.985 . S
C788 C789 1.363 . S
C788 C794 1.379 . S
C788 N796 1.356 . S
C789 C788 1.363 . S
C789 C795 1.363 . S
C790 C791 1.363 . S
C790 C795 1.379 . S
C790 N797 1.356 . S
C791 C790 1.363 . S
C791 C794 1.363 . S
N792 C794 1.356 . S
N792 H804 0.984 . S
N792 H805 0.985 . S
N793 C795 1.356 . S
N793 H798 0.984 . S
N793 H799 0.985 . S
C794 C788 1.379 . S
C794 C791 1.363 . S
C794 N792 1.356 . S
C795 C789 1.363 . S
C795 C790 1.379 . S
C795 N793 1.356 . S
N796 C788 1.356 . S
N796 H802 0.984 . S
N796 H803 0.984 . S
N797 C790 1.356 . S
N797 H800 0.984 . S
N797 H801 0.985 . S
H798 N793 0.984 . S
H799 N793 0.985 . S
H800 N797 0.984 . S
H801 N797 0.985 . S
H802 N796 0.984 . S
H803 N796 0.984 . S
H804 N792 0.984 . S
H805 N792 0.985 . S
C806 C807 1.363 . S
C806 C812 1.379 . S
C806 N814 1.356 . S
C807 C806 1.363 . S
C807 C813 1.363 . S
C808 C809 1.363 . S
C808 C813 1.379 . S
C808 N815 1.356 . S
C809 C808 1.363 . S
C809 C812 1.363 . S
N810 C812 1.356 . S
N810 H822 0.984 . S
N810 H823 0.985 . S
N811 C813 1.356 . S
N811 H816 0.984 . S
N811 H817 0.985 . S
C812 C806 1.379 . S
C812 C809 1.363 . S
C812 N810 1.356 . S
C813 C807 1.363 . S
C813 C808 1.379 . S
C813 N811 1.356 . S
N814 C806 1.356 . S
N814 H820 0.984 . S
N814 H821 0.984 . S
N815 C808 1.356 . S
N815 H818 0.984 . S
N815 H819 0.985 . S
H816 N811 0.984 . S
H817 N811 0.985 . S
H818 N815 0.984 . S
H819 N815 0.985 . S
H820 N814 0.984 . S
H821 N814 0.984 . S
H822 N810 0.984 . S
H823 N810 0.985 . S
C824 C825 1.363 . S
C824 C830 1.379 . S
C824 N832 1.356 . S
C825 C824 1.363 . S
C825 C831 1.363 . S
C826 C827 1.363 . S
C826 C831 1.379 . S
C826 N833 1.356 . S
C827 C826 1.363 . S
C827 C830 1.363 . S
N828 C830 1.356 . S
N828 H840 0.984 . S
N828 H841 0.985 . S
N829 C831 1.356 . S
N829 H834 0.984 . S
N829 H835 0.985 . S
C830 C824 1.379 . S
C830 C827 1.363 . S
C830 N828 1.356 . S
C831 C825 1.363 . S
C831 C826 1.379 . S
C831 N829 1.356 . S
N832 C824 1.356 . S
N832 H838 0.984 . S
N832 H839 0.984 . S
N833 C826 1.356 . S
N833 H836 0.984 . S
N833 H837 0.985 . S
H834 N829 0.984 . S
H835 N829 0.985 . S
H836 N833 0.984 . S
H837 N833 0.985 . S
H838 N832 0.984 . S
H839 N832 0.984 . S
H840 N828 0.984 . S
H841 N828 0.985 . S
C842 C843 1.363 . S
C842 C848 1.379 . S
C842 N850 1.356 . S
C843 C842 1.363 . S
C843 C849 1.363 . S
C844 C845 1.363 . S
C844 C849 1.379 . S
C844 N851 1.356 . S
C845 C844 1.363 . S
C845 C848 1.363 . S
N846 C848 1.356 . S
N846 H858 0.984 . S
N846 H859 0.985 . S
N847 C849 1.356 . S
N847 H852 0.984 . S
N847 H853 0.985 . S
C848 C842 1.379 . S
C848 C845 1.363 . S
C848 N846 1.356 . S
C849 C843 1.363 . S
C849 C844 1.379 . S
C849 N847 1.356 . S
N850 C842 1.356 . S
N850 H856 0.984 . S
N850 H857 0.984 . S
N851 C844 1.356 . S
N851 H854 0.984 . S
N851 H855 0.985 . S
H852 N847 0.984 . S
H853 N847 0.985 . S
H854 N851 0.984 . S
H855 N851 0.985 . S
H856 N850 0.984 . S
H857 N850 0.984 . S
H858 N846 0.984 . S
H859 N846 0.985 . S
C860 C861 1.363 . S
C860 C866 1.379 . S
C860 N868 1.356 . S
C861 C860 1.363 . S
C861 C867 1.363 1_554 S
C862 C863 1.374 . S
C862 C867 1.379 . S
C862 N869 1.356 . S
C863 C862 1.374 . S
C863 C866 1.351 1_556 S
N864 C866 1.356 . S
N864 H876 0.984 . S
N864 H877 0.985 . S
N865 C867 1.356 . S
N865 H870 0.985 1_556 S
N865 H871 0.985 . S
C866 C860 1.379 . S
C866 C863 1.351 1_554 S
C866 N864 1.356 . S
C867 C861 1.363 1_556 S
C867 C862 1.379 . S
C867 N865 1.356 . S
N868 C860 1.356 . S
N868 H874 0.984 . S
N868 H875 0.984 . S
N869 C862 1.356 . S
N869 H872 0.984 . S
N869 H873 0.985 . S
H870 N865 0.985 1_554 S
H871 N865 0.985 . S
H872 N869 0.984 . S
H873 N869 0.985 . S
H874 N868 0.984 . S
H875 N868 0.984 . S
H876 N864 0.984 . S
H877 N864 0.985 . S
C878 C879 1.363 . S
C878 C884 1.379 . S
C878 N886 1.356 . S
C879 C878 1.363 . S
C879 C885 1.363 . S
C880 C881 1.363 . S
C880 C885 1.379 . S
C880 N887 1.356 . S
C881 C880 1.363 . S
C881 C884 1.363 . S
N882 C884 1.356 . S
N882 H894 0.984 . S
N882 H895 0.985 . S
N883 C885 1.356 . S
N883 H888 0.984 . S
N883 H889 0.985 . S
C884 C878 1.379 . S
C884 C881 1.363 . S
C884 N882 1.356 . S
C885 C879 1.363 . S
C885 C880 1.379 . S
C885 N883 1.356 . S
N886 C878 1.356 . S
N886 H892 0.984 . S
N886 H893 0.984 . S
N887 C880 1.356 . S
N887 H890 0.984 . S
N887 H891 0.985 . S
H888 N883 0.984 . S
H889 N883 0.985 . S
H890 N887 0.984 . S
H891 N887 0.985 . S
H892 N886 0.984 . S
H893 N886 0.984 . S
H894 N882 0.984 . S
H895 N882 0.985 . S
C896 C897 1.363 . S
C896 C902 1.379 . S
C896 N904 1.356 . S
C897 C896 1.363 . S
C897 C903 1.363 . S
C898 C899 1.363 . S
C898 C903 1.379 . S
C898 N905 1.356 . S
C899 C898 1.363 . S
C899 C902 1.363 . S
N900 C902 1.356 . S
N900 H912 0.984 . S
N900 H913 0.985 . S
N901 C903 1.356 . S
N901 H906 0.984 . S
N901 H907 0.985 . S
C902 C896 1.379 . S
C902 C899 1.363 . S
C902 N900 1.356 . S
C903 C897 1.363 . S
C903 C898 1.379 . S
C903 N901 1.356 . S
N904 C896 1.356 . S
N904 H910 0.984 . S
N904 H911 0.984 . S
N905 C898 1.356 . S
N905 H908 0.984 . S
N905 H909 0.985 . S
H906 N901 0.984 . S
H907 N901 0.985 . S
H908 N905 0.984 . S
H909 N905 0.985 . S
H910 N904 0.984 . S
H911 N904 0.984 . S
H912 N900 0.984 . S
H913 N900 0.985 . S
C914 C915 1.363 . S
C914 C920 1.379 . S
C914 N922 1.356 . S
C915 C914 1.363 . S
C915 C921 1.363 . S
C916 C917 1.363 . S
C916 C921 1.379 . S
C916 N923 1.356 . S
C917 C916 1.363 . S
C917 C920 1.363 . S
N918 C920 1.356 . S
N918 H930 0.984 . S
N918 H931 0.985 . S
N919 C921 1.356 . S
N919 H924 0.984 . S
N919 H925 0.985 . S
C920 C914 1.379 . S
C920 C917 1.363 . S
C920 N918 1.356 . S
C921 C915 1.363 . S
C921 C916 1.379 . S
C921 N919 1.356 . S
N922 C914 1.356 . S
N922 H928 0.984 . S
N922 H929 0.984 . S
N923 C916 1.356 . S
N923 H926 0.984 . S
N923 H927 0.985 . S
H924 N919 0.984 . S
H925 N919 0.985 . S
H926 N923 0.984 . S
H927 N923 0.985 . S
H928 N922 0.984 . S
H929 N922 0.984 . S
H930 N918 0.984 . S
H931 N918 0.985 . S
C932 C933 1.363 . S
C932 C938 1.379 . S
C932 N940 1.356 . S
C933 C932 1.363 . S
C933 C939 1.363 . S
C934 C935 1.363 . S
C934 C939 1.379 . S
C934 N941 1.356 . S
C935 C934 1.363 . S
C935 C938 1.363 . S
N936 C938 1.356 . S
N936 H948 0.984 . S
N936 H949 0.985 . S
N937 C939 1.356 . S
N937 H942 0.984 . S
N937 H943 0.985 . S
C938 C932 1.379 . S
C938 C935 1.363 . S
C938 N936 1.356 . S
C939 C933 1.363 . S
C939 C934 1.379 . S
C939 N937 1.356 . S
N940 C932 1.356 . S
N940 H946 0.984 . S
N940 H947 0.984 . S
N941 C934 1.356 . S
N941 H944 0.984 . S
N941 H945 0.985 . S
H942 N937 0.984 . S
H943 N937 0.985 . S
H944 N941 0.984 . S
H945 N941 0.985 . S
H946 N940 0.984 . S
H947 N940 0.984 . S
H948 N936 0.984 . S
H949 N936 0.985 . S
C950 C951 1.363 . S
C950 C956 1.379 . S
C950 N958 1.356 . S
C951 C950 1.363 . S
C951 C957 1.363 . S
C952 C953 1.363 . S
C952 C957 1.379 . S
C952 N959 1.356 . S
C953 C952 1.363 . S
C953 C956 1.363 . S
N954 C956 1.356 . S
N954 H966 0.984 . S
N954 H967 0.985 . S
N955 C957 1.356 . S
N955 H960 0.984 . S
N955 H961 0.985 . S
C956 C950 1.379 . S
C956 C953 1.363 . S
C956 N954 1.356 . S
C957 C951 1.363 . S
C957 C952 1.379 . S
C957 N955 1.356 . S
N958 C950 1.356 . S
N958 H964 0.984 . S
N958 H965 0.984 . S
N959 C952 1.356 . S
N959 H962 0.984 . S
N959 H963 0.985 . S
H960 N955 0.984 . S
H961 N955 0.985 . S
H962 N959 0.984 . S
H963 N959 0.985 . S
H964 N958 0.984 . S
H965 N958 0.984 . S
H966 N954 0.984 . S
H967 N954 0.985 . S
C968 C969 1.363 . S
C968 C974 1.379 . S
C968 N976 1.356 . S
C969 C968 1.363 . S
C969 C975 1.363 . S
C970 C971 1.363 . S
C970 C975 1.379 . S
C970 N977 1.356 . S
C971 C970 1.363 . S
C971 C974 1.363 . S
N972 C974 1.356 . S
N972 H984 0.984 . S
N972 H985 0.985 . S
N973 C975 1.356 . S
N973 H978 0.984 . S
N973 H979 0.985 . S
C974 C968 1.379 . S
C974 C971 1.363 . S
C974 N972 1.356 . S
C975 C969 1.363 . S
C975 C970 1.379 . S
C975 N973 1.356 . S
N976 C968 1.356 . S
N976 H982 0.984 . S
N976 H983 0.984 . S
N977 C970 1.356 . S
N977 H980 0.984 . S
N977 H981 0.985 . S
H978 N973 0.984 . S
H979 N973 0.985 . S
H980 N977 0.984 . S
H981 N977 0.985 . S
H982 N976 0.984 . S
H983 N976 0.984 . S
H984 N972 0.984 . S
H985 N972 0.985 . S
C986 C987 1.363 . S
C986 C992 1.379 . S
C986 N994 1.356 . S
C987 C986 1.363 . S
C987 C993 1.363 . S
C988 C989 1.363 . S
C988 C993 1.379 . S
C988 N995 1.356 . S
C989 C988 1.363 . S
C989 C992 1.363 . S
N990 C992 1.356 . S
N990 H1002 0.984 . S
N990 H1003 0.985 . S
N991 C993 1.356 . S
N991 H996 0.984 . S
N991 H997 0.985 . S
C992 C986 1.379 . S
C992 C989 1.363 . S
C992 N990 1.356 . S
C993 C987 1.363 . S
C993 C988 1.379 . S
C993 N991 1.356 . S
N994 C986 1.356 . S
N994 H1000 0.984 . S
N994 H1001 0.984 . S
N995 C988 1.356 . S
N995 H998 0.984 . S
N995 H999 0.985 . S
H996 N991 0.984 . S
H997 N991 0.985 . S
H998 N995 0.984 . S
H999 N995 0.985 . S
H1000 N994 0.984 . S
H1001 N994 0.984 . S
H1002 N990 0.984 . S
H1003 N990 0.985 . S
C1004 C1005 1.363 . S
C1004 C1010 1.379 . S
C1004 N1012 1.356 . S
C1005 C1004 1.363 . S
C1005 C1011 1.363 . S
C1006 C1007 1.363 . S
C1006 C1011 1.379 . S
C1006 N1013 1.356 . S
C1007 C1006 1.363 . S
C1007 C1010 1.363 . S
N1008 C1010 1.356 . S
N1008 H1020 0.984 . S
N1008 H1021 0.985 . S
N1009 C1011 1.356 . S
N1009 H1014 0.984 . S
N1009 H1015 0.985 . S
C1010 C1004 1.379 . S
C1010 C1007 1.363 . S
C1010 N1008 1.356 . S
C1011 C1005 1.363 . S
C1011 C1006 1.379 . S
C1011 N1009 1.356 . S
N1012 C1004 1.356 . S
N1012 H1018 0.984 . S
N1012 H1019 0.984 . S
N1013 C1006 1.356 . S
N1013 H1016 0.984 . S
N1013 H1017 0.985 . S
H1014 N1009 0.984 . S
H1015 N1009 0.985 . S
H1016 N1013 0.984 . S
H1017 N1013 0.985 . S
H1018 N1012 0.984 . S
H1019 N1012 0.984 . S
H1020 N1008 0.984 . S
H1021 N1008 0.985 . S
C1022 C1023 1.363 . S
C1022 C1028 1.379 . S
C1022 N1030 1.358 . S
C1023 C1022 1.363 . S
C1023 C1029 1.363 . S
C1024 C1025 1.363 . S
C1024 C1029 1.379 . S
C1024 N1031 1.356 . S
C1025 C1024 1.363 . S
C1025 C1028 1.363 . S
N1026 C1028 1.356 . S
N1026 H1038 0.984 . S
N1026 H1039 0.985 . S
N1027 C1029 1.356 . S
N1027 H1032 1.003 . S
N1027 H1033 0.985 . S
C1028 C1022 1.379 . S
C1028 C1025 1.363 . S
C1028 N1026 1.356 . S
C1029 C1023 1.363 . S
C1029 C1024 1.379 . S
C1029 N1027 1.356 . S
N1030 C1022 1.358 . S
N1030 H1036 0.984 1_565 S
N1030 H1037 0.983 1_565 S
N1031 C1024 1.356 . S
N1031 H1034 0.984 . S
N1031 H1035 0.985 . S
H1032 N1027 1.003 . S
H1033 N1027 0.985 . S
H1034 N1031 0.984 . S
H1035 N1031 0.985 . S
H1036 N1030 0.984 1_545 S
H1037 N1030 0.983 1_545 S
H1038 N1026 0.984 . S
H1039 N1026 0.985 . S
C1040 C1041 1.363 . S
C1040 C1046 1.379 . S
C1040 N1048 1.356 . S
C1041 C1040 1.363 . S
C1041 C1047 1.363 . S
C1042 C1043 1.363 . S
C1042 C1047 1.379 . S
C1042 N1049 1.356 . S
C1043 C1042 1.363 . S
C1043 C1046 1.363 . S
N1044 C1046 1.356 . S
N1044 H1056 0.984 . S
N1044 H1057 0.985 . S
N1045 C1047 1.356 . S
N1045 H1050 0.984 . S
N1045 H1051 0.985 . S
C1046 C1040 1.379 . S
C1046 C1043 1.363 . S
C1046 N1044 1.356 . S
C1047 C1041 1.363 . S
C1047 C1042 1.379 . S
C1047 N1045 1.356 . S
N1048 C1040 1.356 . S
N1048 H1054 0.984 . S
N1048 H1055 0.984 . S
N1049 C1042 1.356 . S
N1049 H1052 0.984 . S
N1049 H1053 0.985 . S
H1050 N1045 0.984 . S
H1051 N1045 0.985 . S
H1052 N1049 0.984 . S
H1053 N1049 0.985 . S
H1054 N1048 0.984 . S
H1055 N1048 0.984 . S
H1056 N1044 0.984 . S
H1057 N1044 0.985 . S
C1058 C1059 1.363 . S
C1058 C1064 1.379 . S
C1058 N1066 1.356 . S
C1059 C1058 1.363 . S
C1059 C1065 1.363 . S
C1060 C1061 1.363 . S
C1060 C1065 1.379 . S
C1060 N1067 1.356 . S
C1061 C1060 1.363 . S
C1061 C1064 1.363 . S
N1062 C1064 1.356 . S
N1062 H1074 0.984 . S
N1062 H1075 0.985 . S
N1063 C1065 1.356 . S
N1063 H1068 0.984 . S
N1063 H1069 0.985 . S
C1064 C1058 1.379 . S
C1064 C1061 1.363 . S
C1064 N1062 1.356 . S
C1065 C1059 1.363 . S
C1065 C1060 1.379 . S
C1065 N1063 1.356 . S
N1066 C1058 1.356 . S
N1066 H1072 0.984 . S
N1066 H1073 0.984 . S
N1067 C1060 1.356 . S
N1067 H1070 0.984 . S
N1067 H1071 0.985 . S
H1068 N1063 0.984 . S
H1069 N1063 0.985 . S
H1070 N1067 0.984 . S
H1071 N1067 0.985 . S
H1072 N1066 0.984 . S
H1073 N1066 0.984 . S
H1074 N1062 0.984 . S
H1075 N1062 0.985 . S
C1076 C1077 1.363 . S
C1076 C1082 1.379 . S
C1076 N1084 1.356 . S
C1077 C1076 1.363 . S
C1077 C1083 1.363 . S
C1078 C1079 1.363 . S
C1078 C1083 1.379 . S
C1078 N1085 1.356 . S
C1079 C1078 1.363 . S
C1079 C1082 1.363 . S
N1080 C1082 1.356 . S
N1080 H1092 0.984 . S
N1080 H1093 0.985 . S
N1081 C1083 1.356 . S
N1081 H1086 0.984 . S
N1081 H1087 0.985 . S
C1082 C1076 1.379 . S
C1082 C1079 1.363 . S
C1082 N1080 1.356 . S
C1083 C1077 1.363 . S
C1083 C1078 1.379 . S
C1083 N1081 1.356 . S
N1084 C1076 1.356 . S
N1084 H1090 0.984 . S
N1084 H1091 0.984 . S
N1085 C1078 1.356 . S
N1085 H1088 0.984 . S
N1085 H1089 0.985 . S
H1086 N1081 0.984 . S
H1087 N1081 0.985 . S
H1088 N1085 0.984 . S
H1089 N1085 0.985 . S
H1090 N1084 0.984 . S
H1091 N1084 0.984 . S
H1092 N1080 0.984 . S
H1093 N1080 0.985 . S
C1094 C1095 1.363 . S
C1094 C1100 1.379 . S
C1094 N1102 1.356 . S
C1095 C1094 1.363 . S
C1095 C1101 1.363 . S
C1096 C1097 1.363 . S
C1096 C1101 1.379 . S
C1096 N1103 1.356 . S
C1097 C1096 1.363 . S
C1097 C1100 1.363 . S
N1098 C1100 1.356 . S
N1098 H1110 0.984 . S
N1098 H1111 0.985 . S
N1099 C1101 1.356 . S
N1099 H1104 0.984 . S
N1099 H1105 0.985 . S
C1100 C1094 1.379 . S
C1100 C1097 1.363 . S
C1100 N1098 1.356 . S
C1101 C1095 1.363 . S
C1101 C1096 1.379 . S
C1101 N1099 1.356 . S
N1102 C1094 1.356 . S
N1102 H1108 0.984 . S
N1102 H1109 0.984 . S
N1103 C1096 1.356 . S
N1103 H1106 0.984 . S
N1103 H1107 0.985 . S
H1104 N1099 0.984 . S
H1105 N1099 0.985 . S
H1106 N1103 0.984 . S
H1107 N1103 0.985 . S
H1108 N1102 0.984 . S
H1109 N1102 0.984 . S
H1110 N1098 0.984 . S
H1111 N1098 0.985 . S
C1112 C1113 1.363 . S
C1112 C1118 1.379 . S
C1112 N1120 1.356 . S
C1113 C1112 1.363 . S
C1113 C1119 1.363 . S
C1114 C1115 1.363 . S
C1114 C1119 1.379 . S
C1114 N1121 1.356 . S
C1115 C1114 1.363 . S
C1115 C1118 1.363 . S
N1116 C1118 1.356 . S
N1116 H1128 0.984 . S
N1116 H1129 0.985 . S
N1117 C1119 1.356 . S
N1117 H1122 0.984 . S
N1117 H1123 0.985 . S
C1118 C1112 1.379 . S
C1118 C1115 1.363 . S
C1118 N1116 1.356 . S
C1119 C1113 1.363 . S
C1119 C1114 1.379 . S
C1119 N1117 1.356 . S
N1120 C1112 1.356 . S
N1120 H1126 0.984 . S
N1120 H1127 0.984 . S
N1121 C1114 1.356 . S
N1121 H1124 0.984 . S
N1121 H1125 0.985 . S
H1122 N1117 0.984 . S
H1123 N1117 0.985 . S
H1124 N1121 0.984 . S
H1125 N1121 0.985 . S
H1126 N1120 0.984 . S
H1127 N1120 0.984 . S
H1128 N1116 0.984 . S
H1129 N1116 0.985 . S
C1130 C1131 1.363 . S
C1130 C1136 1.379 . S
C1130 N1138 1.356 . S
C1131 C1130 1.363 . S
C1131 C1137 1.363 . S
C1132 C1133 1.363 . S
C1132 C1137 1.379 . S
C1132 N1139 1.356 . S
C1133 C1132 1.363 . S
C1133 C1136 1.363 . S
N1134 C1136 1.356 . S
N1134 H1146 0.984 . S
N1134 H1147 0.985 . S
N1135 C1137 1.356 . S
N1135 H1140 0.984 . S
N1135 H1141 0.985 . S
C1136 C1130 1.379 . S
C1136 C1133 1.363 . S
C1136 N1134 1.356 . S
C1137 C1131 1.363 . S
C1137 C1132 1.379 . S
C1137 N1135 1.356 . S
N1138 C1130 1.356 . S
N1138 H1144 0.984 1_655 S
N1138 H1145 0.984 1_655 S
N1139 C1132 1.356 . S
N1139 H1142 0.984 . S
N1139 H1143 0.985 . S
H1140 N1135 0.984 . S
H1141 N1135 0.985 . S
H1142 N1139 0.984 . S
H1143 N1139 0.985 . S
H1144 N1138 0.984 1_455 S
H1145 N1138 0.984 1_455 S
H1146 N1134 0.984 . S
H1147 N1134 0.985 . S
C1148 C1149 1.363 . S
C1148 C1154 1.379 . S
C1148 N1156 1.356 . S
C1149 C1148 1.363 . S
C1149 C1155 1.363 . S
C1150 C1151 1.363 . S
C1150 C1155 1.379 . S
C1150 N1157 1.356 . S
C1151 C1150 1.363 . S
C1151 C1154 1.363 . S
N1152 C1154 1.356 . S
N1152 H1164 0.984 . S
N1152 H1165 0.985 . S
N1153 C1155 1.356 . S
N1153 H1158 0.984 . S
N1153 H1159 0.985 . S
C1154 C1148 1.379 . S
C1154 C1151 1.363 . S
C1154 N1152 1.356 . S
C1155 C1149 1.363 . S
C1155 C1150 1.379 . S
C1155 N1153 1.356 . S
N1156 C1148 1.356 . S
N1156 H1162 0.984 . S
N1156 H1163 0.984 . S
N1157 C1150 1.356 . S
N1157 H1160 0.984 . S
N1157 H1161 0.985 . S
H1158 N1153 0.984 . S
H1159 N1153 0.985 . S
H1160 N1157 0.984 . S
H1161 N1157 0.985 . S
H1162 N1156 0.984 . S
H1163 N1156 0.984 . S
H1164 N1152 0.984 . S
H1165 N1152 0.985 . S
C1166 C1167 1.363 . S
C1166 C1172 1.379 . S
C1166 N1174 1.356 . S
C1167 C1166 1.363 . S
C1167 C1173 1.363 . S
C1168 C1169 1.363 . S
C1168 C1173 1.379 . S
C1168 N1175 1.356 . S
C1169 C1168 1.363 . S
C1169 C1172 1.363 . S
N1170 C1172 1.356 . S
N1170 H1182 0.984 . S
N1170 H1183 0.985 . S
N1171 C1173 1.356 . S
N1171 H1176 0.984 . S
N1171 H1177 0.985 . S
C1172 C1166 1.379 . S
C1172 C1169 1.363 . S
C1172 N1170 1.356 . S
C1173 C1167 1.363 . S
C1173 C1168 1.379 . S
C1173 N1171 1.356 . S
N1174 C1166 1.356 . S
N1174 H1180 0.984 . S
N1174 H1181 0.984 . S
N1175 C1168 1.356 . S
N1175 H1178 0.984 . S
N1175 H1179 0.985 . S
H1176 N1171 0.984 . S
H1177 N1171 0.985 . S
H1178 N1175 0.984 . S
H1179 N1175 0.985 . S
H1180 N1174 0.984 . S
H1181 N1174 0.984 . S
H1182 N1170 0.984 . S
H1183 N1170 0.985 . S
C611 C516 1.565 . S
C609 C35 1.383 . S
C629 C533 1.517 . S
C627 C115 1.374 . S
C647 C547 1.644 . S
C645 C177 1.464 . S
C663 C221 1.377 . S
C665 C505 1.591 . S
C681 C283 1.434 . S
C683 C502 1.699 . S
C699 C363 1.309 . S
C701 C519 1.533 . S
C719 C530 1.759 . S
C717 C407 1.578 . S
C737 C544 1.707 . S
C735 C469 1.477 . S
C753 C159 1.477 . S
C755 C572 1.707 . S
C773 C586 1.759 . S
C771 C239 1.626 . S
C789 C53 1.309 . S
C791 C603 1.533 . S
C809 C558 1.699 . S
C807 C97 1.434 . S
C825 C425 1.365 . S
C827 C561 1.591 . S
C843 C487 1.464 . S
C845 C575 1.644 . S
C863 C589 1.517 . S
C861 C301 1.355 1_554 S
C879 C345 1.383 . S
C881 C600 1.565 . S
C899 C532 2.136 . S
C897 C29 2.171 . S
C917 C546 2.275 . S
C915 C109 2.214 . S
C933 C171 2.132 . S
C935 C504 2.206 1_556 S
C951 C215 2.028 . S
C953 C517 1.927 . S
C969 C277 1.781 . S
C971 C545 1.676 . S
C989 C503 1.715 . S
C987 C357 1.773 . S
C1007 C518 2.032 . S
C1005 C401 2.054 . S
C1025 C531 1.782 . S
C1023 C463 1.874 1_565 S
C1043 C587 1.782 . S
C1041 C153 1.875 . S
C1061 C602 2.032 . S
C1059 C233 2.048 . S
C1077 C47 1.772 . S
C1079 C559 1.715 . S
C1097 C573 1.677 . S
C1095 C91 1.781 . S
C1115 C601 1.928 . S
C1113 C419 1.927 . S
C1131 C481 2.132 . S
C1133 C560 2.205 . S
C1151 C574 2.275 . S
C1149 C295 2.214 . S
C1169 C588 2.135 . S
C1167 C339 2.171 . S
