# Generated by pormake.
# Topology ptr, (4,4)-cn, num edge types: 1
# Building blocks:
#     Node 0, Type 0, BuildingBlock: KUFVIS_clean_sbu_0, # of connection points: 4
#     Node 1, Type 0, BuildingBlock: KUFVIS_clean_sbu_0, # of connection points: 4
#     Node 2, Type 0, BuildingBlock: KUFVIS_clean_sbu_0, # of connection points: 4
#     Node 3, Type 0, BuildingBlock: KUFVIS_clean_sbu_0, # of connection points: 4
#     Node 4, Type 0, BuildingBlock: KUFVIS_clean_sbu_0, # of connection points: 4
#     Node 5, Type 0, BuildingBlock: KUFVIS_clean_sbu_0, # of connection points: 4
#     Node 6, Type 0, BuildingBlock: KUFVIS_clean_sbu_0, # of connection points: 4
#     Node 7, Type 0, BuildingBlock: KUFVIS_clean_sbu_0, # of connection points: 4
#     Node 8, Type 0, BuildingBlock: KUFVIS_clean_sbu_0, # of connection points: 4
#     Node 9, Type 0, BuildingBlock: KUFVIS_clean_sbu_0, # of connection points: 4
#     Node 10, Type 0, BuildingBlock: KUFVIS_clean_sbu_0, # of connection points: 4
#     Node 11, Type 0, BuildingBlock: KUFVIS_clean_sbu_0, # of connection points: 4
#     Node 12, Type 0, BuildingBlock: KUFVIS_clean_sbu_0, # of connection points: 4
#     Node 13, Type 0, BuildingBlock: KUFVIS_clean_sbu_0, # of connection points: 4
#     Node 14, Type 0, BuildingBlock: KUFVIS_clean_sbu_0, # of connection points: 4
#     Node 15, Type 0, BuildingBlock: KUFVIS_clean_sbu_0, # of connection points: 4
#     Node 16, Type 0, BuildingBlock: KUFVIS_clean_sbu_0, # of connection points: 4
#     Node 17, Type 0, BuildingBlock: KUFVIS_clean_sbu_0, # of connection points: 4
#     Node 18, Type 1, BuildingBlock: NAHDIM_clean_linker_0, # of connection points: 4
#     Node 19, Type 1, BuildingBlock: NAHDIM_clean_linker_0, # of connection points: 4
#     Node 20, Type 1, BuildingBlock: NAHDIM_clean_linker_0, # of connection points: 4
#     Node 21, Type 1, BuildingBlock: NAHDIM_clean_linker_0, # of connection points: 4
#     Node 22, Type 1, BuildingBlock: NAHDIM_clean_linker_0, # of connection points: 4
#     Node 23, Type 1, BuildingBlock: NAHDIM_clean_linker_0, # of connection points: 4
#     Node 24, Type 1, BuildingBlock: NAHDIM_clean_linker_0, # of connection points: 4
#     Node 25, Type 1, BuildingBlock: NAHDIM_clean_linker_0, # of connection points: 4
#     Node 26, Type 1, BuildingBlock: NAHDIM_clean_linker_0, # of connection points: 4
#     Node 27, Type 1, BuildingBlock: NAHDIM_clean_linker_0, # of connection points: 4
#     Node 28, Type 1, BuildingBlock: NAHDIM_clean_linker_0, # of connection points: 4
#     Node 29, Type 1, BuildingBlock: NAHDIM_clean_linker_0, # of connection points: 4
#     Node 30, Type 1, BuildingBlock: NAHDIM_clean_linker_0, # of connection points: 4
#     Node 31, Type 1, BuildingBlock: NAHDIM_clean_linker_0, # of connection points: 4
#     Node 32, Type 1, BuildingBlock: NAHDIM_clean_linker_0, # of connection points: 4
#     Node 33, Type 1, BuildingBlock: NAHDIM_clean_linker_0, # of connection points: 4
#     Node 34, Type 1, BuildingBlock: NAHDIM_clean_linker_0, # of connection points: 4
#     Node 35, Type 1, BuildingBlock: NAHDIM_clean_linker_0, # of connection points: 4
#     Edge 36, Type (0, 1), BuildingBlock: XUDNAN_clean_linker_2, # of connection points: 2
#     Edge 37, Type (0, 1), BuildingBlock: XUDNAN_clean_linker_2, # of connection points: 2
#     Edge 38, Type (0, 1), BuildingBlock: XUDNAN_clean_linker_2, # of connection points: 2
#     Edge 39, Type (0, 1), BuildingBlock: XUDNAN_clean_linker_2, # of connection points: 2
#     Edge 40, Type (0, 1), BuildingBlock: XUDNAN_clean_linker_2, # of connection points: 2
#     Edge 41, Type (0, 1), BuildingBlock: XUDNAN_clean_linker_2, # of connection points: 2
#     Edge 42, Type (0, 1), BuildingBlock: XUDNAN_clean_linker_2, # of connection points: 2
#     Edge 43, Type (0, 1), BuildingBlock: XUDNAN_clean_linker_2, # of connection points: 2
#     Edge 44, Type (0, 1), BuildingBlock: XUDNAN_clean_linker_2, # of connection points: 2
#     Edge 45, Type (0, 1), BuildingBlock: XUDNAN_clean_linker_2, # of connection points: 2
#     Edge 46, Type (0, 1), BuildingBlock: XUDNAN_clean_linker_2, # of connection points: 2
#     Edge 47, Type (0, 1), BuildingBlock: XUDNAN_clean_linker_2, # of connection points: 2
#     Edge 48, Type (0, 1), BuildingBlock: XUDNAN_clean_linker_2, # of connection points: 2
#     Edge 49, Type (0, 1), BuildingBlock: XUDNAN_clean_linker_2, # of connection points: 2
#     Edge 50, Type (0, 1), BuildingBlock: XUDNAN_clean_linker_2, # of connection points: 2
#     Edge 51, Type (0, 1), BuildingBlock: XUDNAN_clean_linker_2, # of connection points: 2
#     Edge 52, Type (0, 1), BuildingBlock: XUDNAN_clean_linker_2, # of connection points: 2
#     Edge 53, Type (0, 1), BuildingBlock: XUDNAN_clean_linker_2, # of connection points: 2
#     Edge 54, Type (0, 1), BuildingBlock: XUDNAN_clean_linker_2, # of connection points: 2
#     Edge 55, Type (0, 1), BuildingBlock: XUDNAN_clean_linker_2, # of connection points: 2
#     Edge 56, Type (0, 1), BuildingBlock: XUDNAN_clean_linker_2, # of connection points: 2
#     Edge 57, Type (0, 1), BuildingBlock: XUDNAN_clean_linker_2, # of connection points: 2
#     Edge 58, Type (0, 1), BuildingBlock: XUDNAN_clean_linker_2, # of connection points: 2
#     Edge 59, Type (0, 1), BuildingBlock: XUDNAN_clean_linker_2, # of connection points: 2
#     Edge 60, Type (0, 1), BuildingBlock: XUDNAN_clean_linker_2, # of connection points: 2
#     Edge 61, Type (0, 1), BuildingBlock: XUDNAN_clean_linker_2, # of connection points: 2
#     Edge 62, Type (0, 1), BuildingBlock: XUDNAN_clean_linker_2, # of connection points: 2
#     Edge 63, Type (0, 1), BuildingBlock: XUDNAN_clean_linker_2, # of connection points: 2
#     Edge 64, Type (0, 1), BuildingBlock: XUDNAN_clean_linker_2, # of connection points: 2
#     Edge 65, Type (0, 1), BuildingBlock: XUDNAN_clean_linker_2, # of connection points: 2
#     Edge 66, Type (0, 1), BuildingBlock: XUDNAN_clean_linker_2, # of connection points: 2
#     Edge 67, Type (0, 1), BuildingBlock: XUDNAN_clean_linker_2, # of connection points: 2
#     Edge 68, Type (0, 1), BuildingBlock: XUDNAN_clean_linker_2, # of connection points: 2
#     Edge 69, Type (0, 1), BuildingBlock: XUDNAN_clean_linker_2, # of connection points: 2
#     Edge 70, Type (0, 1), BuildingBlock: XUDNAN_clean_linker_2, # of connection points: 2
#     Edge 71, Type (0, 1), BuildingBlock: XUDNAN_clean_linker_2, # of connection points: 2
#     Edge 72, Type (0, 1), BuildingBlock: XUDNAN_clean_linker_2, # of connection points: 2
#     Edge 73, Type (0, 1), BuildingBlock: XUDNAN_clean_linker_2, # of connection points: 2
#     Edge 74, Type (0, 1), BuildingBlock: XUDNAN_clean_linker_2, # of connection points: 2
#     Edge 75, Type (0, 1), BuildingBlock: XUDNAN_clean_linker_2, # of connection points: 2
#     Edge 76, Type (0, 1), BuildingBlock: XUDNAN_clean_linker_2, # of connection points: 2
#     Edge 77, Type (0, 1), BuildingBlock: XUDNAN_clean_linker_2, # of connection points: 2
#     Edge 78, Type (0, 1), BuildingBlock: XUDNAN_clean_linker_2, # of connection points: 2
#     Edge 79, Type (0, 1), BuildingBlock: XUDNAN_clean_linker_2, # of connection points: 2
#     Edge 80, Type (0, 1), BuildingBlock: XUDNAN_clean_linker_2, # of connection points: 2
#     Edge 81, Type (0, 1), BuildingBlock: XUDNAN_clean_linker_2, # of connection points: 2
#     Edge 82, Type (0, 1), BuildingBlock: XUDNAN_clean_linker_2, # of connection points: 2
#     Edge 83, Type (0, 1), BuildingBlock: XUDNAN_clean_linker_2, # of connection points: 2
#     Edge 84, Type (0, 1), BuildingBlock: XUDNAN_clean_linker_2, # of connection points: 2
#     Edge 85, Type (0, 1), BuildingBlock: XUDNAN_clean_linker_2, # of connection points: 2
#     Edge 86, Type (0, 1), BuildingBlock: XUDNAN_clean_linker_2, # of connection points: 2
#     Edge 87, Type (0, 1), BuildingBlock: XUDNAN_clean_linker_2, # of connection points: 2
#     Edge 88, Type (0, 1), BuildingBlock: XUDNAN_clean_linker_2, # of connection points: 2
#     Edge 89, Type (0, 1), BuildingBlock: XUDNAN_clean_linker_2, # of connection points: 2
#     Edge 90, Type (0, 1), BuildingBlock: XUDNAN_clean_linker_2, # of connection points: 2
#     Edge 91, Type (0, 1), BuildingBlock: XUDNAN_clean_linker_2, # of connection points: 2
#     Edge 92, Type (0, 1), BuildingBlock: XUDNAN_clean_linker_2, # of connection points: 2
#     Edge 93, Type (0, 1), BuildingBlock: XUDNAN_clean_linker_2, # of connection points: 2
#     Edge 94, Type (0, 1), BuildingBlock: XUDNAN_clean_linker_2, # of connection points: 2
#     Edge 95, Type (0, 1), BuildingBlock: XUDNAN_clean_linker_2, # of connection points: 2
#     Edge 96, Type (0, 1), BuildingBlock: XUDNAN_clean_linker_2, # of connection points: 2
#     Edge 97, Type (0, 1), BuildingBlock: XUDNAN_clean_linker_2, # of connection points: 2
#     Edge 98, Type (0, 1), BuildingBlock: XUDNAN_clean_linker_2, # of connection points: 2
#     Edge 99, Type (0, 1), BuildingBlock: XUDNAN_clean_linker_2, # of connection points: 2
#     Edge 100, Type (0, 1), BuildingBlock: XUDNAN_clean_linker_2, # of connection points: 2
#     Edge 101, Type (0, 1), BuildingBlock: XUDNAN_clean_linker_2, # of connection points: 2
#     Edge 102, Type (0, 1), BuildingBlock: XUDNAN_clean_linker_2, # of connection points: 2
#     Edge 103, Type (0, 1), BuildingBlock: XUDNAN_clean_linker_2, # of connection points: 2
#     Edge 104, Type (0, 1), BuildingBlock: XUDNAN_clean_linker_2, # of connection points: 2
#     Edge 105, Type (0, 1), BuildingBlock: XUDNAN_clean_linker_2, # of connection points: 2
#     Edge 106, Type (0, 1), BuildingBlock: XUDNAN_clean_linker_2, # of connection points: 2
#     Edge 107, Type (0, 1), BuildingBlock: XUDNAN_clean_linker_2, # of connection points: 2
# Relax obj value: 0.038
# Max RMSD: 0.204
# Mean RMSD: 0.072
data_MOF--net-ptr--node1-KUFVIS_clean_sbu_0--node2-NAHDIM_clean_linker_0--edge1-XUDNAN_clean_linker_2
_symmetry_space_group_name_H-M    P1
_symmetry_Int_Tables_number       1
_symmetry_cell_setting            triclinic
loop_
_symmetry_equiv_pos_as_xyz
'x, y, z'
_cell_length_a     94.315392
_cell_length_b     93.376502
_cell_length_c     80.273599
_cell_angle_alpha  90.540905
_cell_angle_beta   91.022495
_cell_angle_gamma 119.56801
loop_
_atom_site_label
_atom_site_type_symbol
_atom_site_fract_x
_atom_site_fract_y
_atom_site_fract_z
_atom_type_partial_charge
Mn0 Mn 0.00951 0.34312 0.00786 0.0
Mn1 Mn 0.04207 0.38144 0.00945 0.0
C2 C 0.00845 0.36415 0.994 0.0
C3 C 0.99565 0.31695 0.99549 0.0
C4 C 0.01814 0.36698 0.03751 0.0
O5 O 0.02767 0.33936 0.01694 0.0
O6 O 0.04897 0.36504 0.01515 0.0
C7 C 0.05991 0.37804 0.98109 0.0
N8 N 0.05288 0.38599 0.98866 0.0
C9 C 0.06124 0.40593 0.96696 0.0
C10 C 0.06875 0.39807 0.95901 0.0
C11 C 0.06797 0.38399 0.96605 0.0
C12 C 0.05318 0.39929 0.98178 0.0
H13 H 0.05937 0.36724 0.98647 0.0
C14 C 0.04288 0.34969 0.01821 0.0
O15 O 0.99287 0.31953 0.01071 0.0
O16 O 0.00681 0.32942 0.98772 0.0
N17 N 0.03744 0.39866 0.00405 0.0
C18 C 0.02948 0.40475 0.0132 0.0
C19 C 0.02865 0.41851 0.00756 0.0
C20 C 0.0363 0.42609 0.99278 0.0
C21 C 0.0448 0.41989 0.98382 0.0
C22 C 0.04508 0.40604 0.98996 0.0
H23 H 0.02369 0.39909 0.02464 0.0
O24 O 0.99517 0.35076 0.99738 0.0
O25 O 0.02206 0.36463 0.99822 0.0
O26 O 0.00852 0.35323 0.03025 0.0
O27 O 0.03131 0.37799 0.03111 0.0
C28 C 0.05315 0.42701 0.96913 0.0
C29 C 0.06141 0.42006 0.96073 0.0
H30 H 0.07505 0.40268 0.94746 0.0
H31 H 0.07363 0.37778 0.95993 0.0
H32 H 0.02218 0.4233 0.01462 0.0
H33 H 0.03568 0.43674 0.98849 0.0
H34 H 0.05321 0.43777 0.96412 0.0
H35 H 0.06764 0.42555 0.94935 0.0
Mn36 Mn 0.64971 0.6485 0.02277 0.0
Mn37 Mn 0.65595 0.61791 0.00893 0.0
C38 C 0.63584 0.62303 0.03471 0.0
C39 C 0.6591 0.67215 0.03941 0.0
C40 C 0.63492 0.62921 0.99041 0.0
O41 O 0.66981 0.66009 0.00873 0.0
O42 O 0.67497 0.63948 0.0033 0.0
C43 C 0.68398 0.6239 0.03083 0.0
N44 N 0.66847 0.61368 0.02507 0.0
C45 C 0.66687 0.59109 0.04066 0.0
C46 C 0.68284 0.60135 0.04675 0.0
C47 C 0.69139 0.61786 0.0419 0.0
C48 C 0.66 0.5979 0.02996 0.0
H49 H 0.69067 0.63653 0.02692 0.0
C50 C 0.67868 0.65463 0.00278 0.0
O51 O 0.64982 0.66972 0.02631 0.0
O52 O 0.66259 0.6607 0.04294 0.0
N53 N 0.63869 0.59623 0.01342 0.0
C54 C 0.62352 0.58786 0.00615 0.0
C55 C 0.61321 0.5713 0.01005 0.0
C56 C 0.61877 0.56338 0.02099 0.0
C57 C 0.63463 0.57208 0.02787 0.0
C58 C 0.64425 0.58864 0.02376 0.0
H59 H 0.61927 0.5938 0.9975 0.0
O60 O 0.63103 0.63376 0.03671 0.0
O61 O 0.64915 0.62784 0.02645 0.0
O62 O 0.63544 0.63934 0.00153 0.0
O63 O 0.64269 0.62125 0.99171 0.0
C64 C 0.64138 0.56488 0.03838 0.0
C65 C 0.65753 0.57436 0.04469 0.0
H66 H 0.68865 0.59668 0.05514 0.0
H67 H 0.70372 0.62586 0.04654 0.0
H68 H 0.60105 0.56461 0.00453 0.0
H69 H 0.61083 0.55056 0.02387 0.0
H70 H 0.63427 0.55207 0.04171 0.0
H71 H 0.66256 0.56871 0.05283 0.0
Mn72 Mn 0.33361 0.99622 0.0138 0.0
Mn73 Mn 0.36676 0.03201 0.00446 0.0
C74 C 0.35754 0.00471 0.02881 0.0
C75 C 0.30943 0.98369 0.02841 0.0
C76 C 0.35403 0.0005 0.98361 0.0
O77 O 0.32473 0.0077 0.9992 0.0
O78 O 0.34687 0.03275 0.99675 0.0
C79 C 0.36244 0.05498 0.02664 0.0
N80 N 0.3716 0.04822 0.0216 0.0
C81 C 0.39288 0.06458 0.04175 0.0
C82 C 0.38372 0.0718 0.04709 0.0
C83 C 0.36844 0.06697 0.0395 0.0
C84 C 0.38636 0.05282 0.02876 0.0
H85 H 0.35064 0.05122 0.02091 0.0
C86 C 0.3316 0.02257 0.99446 0.0
O87 O 0.31128 0.97649 0.01533 0.0
O88 O 0.32157 0.99787 0.03287 0.0
N89 N 0.3867 0.03288 0.01143 0.0
C90 C 0.39344 0.02387 0.00567 0.0
C91 C 0.40844 0.02668 0.01246 0.0
C92 C 0.4164 0.03878 0.02503 0.0
C93 C 0.40927 0.04797 0.03069 0.0
C94 C 0.39436 0.0447 0.02336 0.0
H95 H 0.38739 0.01454 0.99605 0.0
O96 O 0.3461 0.98941 0.02895 0.0
O97 O 0.35439 0.01457 0.02017 0.0
O98 O 0.34287 0.99076 0.99324 0.0
O99 O 0.36294 0.01598 0.98635 0.0
C100 C 0.4162 0.05996 0.04359 0.0
C101 C 0.40801 0.06827 0.04911 0.0
H102 H 0.38823 0.08094 0.05711 0.0
H103 H 0.36126 0.07242 0.04361 0.0
H104 H 0.41383 0.01949 0.00806 0.0
H105 H 0.4279 0.04082 0.03034 0.0
H106 H 0.4277 0.06271 0.04953 0.0
H107 H 0.41334 0.07728 0.05921 0.0
Mn108 Mn 0.99718 0.65615 0.00905 0.0
Mn109 Mn 0.03514 0.66272 0.01673 0.0
C110 C 0.00597 0.64067 0.99471 0.0
C111 C 0.98126 0.66515 0.99496 0.0
C112 C 0.00673 0.64353 0.03958 0.0
O113 O 0.0082 0.67748 0.02254 0.0
O114 O 0.03422 0.68286 0.02346 0.0
C115 C 0.05301 0.68864 0.99222 0.0
N116 N 0.04857 0.67346 0.99828 0.0
C117 C 0.06478 0.6691 0.97823 0.0
C118 C 0.0696 0.68472 0.97181 0.0
C119 C 0.06361 0.69449 0.97878 0.0
C120 C 0.05402 0.66385 0.99148 0.0
H121 H 0.04851 0.69622 0.99762 0.0
C122 C 0.02324 0.68681 0.02624 0.0
O123 O 0.97628 0.65686 0.0086 0.0
O124 O 0.9952 0.66786 0.98953 0.0
N125 N 0.03797 0.64441 0.01079 0.0
C126 C 0.0322 0.62967 0.01847 0.0
C127 C 0.03672 0.61828 0.01271 0.0
C128 C 0.04736 0.62227 0.99935 0.0
C129 C 0.05349 0.63768 0.99195 0.0
C130 C 0.04847 0.64849 0.99815 0.0
H131 H 0.02414 0.62658 0.02884 0.0
O132 O 0.99055 0.63605 0.99501 0.0
O133 O 0.01582 0.65469 0.0021 0.0
O134 O 0.99549 0.64328 0.03022 0.0
O135 O 0.02187 0.65119 0.03609 0.0
C136 C 0.06449 0.6428 0.97877 0.0
C137 C 0.0702 0.65854 0.97198 0.0
H138 H 0.07784 0.6893 0.9615 0.0
H139 H 0.06724 0.70653 0.97387 0.0
H140 H 0.03204 0.60646 0.01858 0.0
H141 H 0.05083 0.61346 0.99496 0.0
H142 H 0.06861 0.63472 0.97373 0.0
H143 H 0.0786 0.66231 0.9618 0.0
Mn144 Mn 0.35248 0.3617 0.00601 0.0
Mn145 Mn 0.38306 0.35392 0.99861 0.0
C146 C 0.37614 0.37476 0.02224 0.0
C147 C 0.32747 0.35341 0.0183 0.0
C148 C 0.37492 0.37543 0.97671 0.0
O149 O 0.34206 0.3411 0.99113 0.0
O150 O 0.36211 0.33463 0.99084 0.0
C151 C 0.37483 0.32647 0.02162 0.0
N152 N 0.38554 0.34188 0.01646 0.0
C153 C 0.40602 0.34429 0.03636 0.0
C154 C 0.39524 0.32841 0.04184 0.0
C155 C 0.37954 0.31951 0.03452 0.0
C156 C 0.40055 0.35068 0.02366 0.0
H157 H 0.36281 0.31953 0.0159 0.0
C158 C 0.34745 0.33135 0.98752 0.0
O159 O 0.33178 0.36258 0.00523 0.0
O160 O 0.33779 0.34932 0.02435 0.0
N161 N 0.40405 0.37148 0.00563 0.0
C162 C 0.4131 0.38652 0.9987 0.0
C163 C 0.42903 0.39707 0.00481 0.0
C164 C 0.4356 0.39195 0.01776 0.0
C165 C 0.42621 0.37627 0.02441 0.0
C166 C 0.41037 0.36632 0.01788 0.0
H167 H 0.40824 0.39047 0.9886 0.0
O168 O 0.3661 0.3805 0.02181 0.0
O169 O 0.37172 0.36134 0.01359 0.0
O170 O 0.36428 0.37574 0.98607 0.0
O171 O 0.38175 0.36679 0.97974 0.0
C172 C 0.43201 0.37005 0.03713 0.0
C173 C 0.42197 0.35403 0.04299 0.0
H174 H 0.39887 0.32296 0.05171 0.0
H175 H 0.37113 0.30727 0.03872 0.0
H176 H 0.43625 0.4091 0.99951 0.0
H177 H 0.44791 0.40011 0.02242 0.0
H178 H 0.4442 0.37746 0.04242 0.0
H179 H 0.4266 0.34936 0.05274 0.0
Mn180 Mn 0.6587 0.00075 0.00851 0.0
Mn181 Mn 0.62348 0.96529 0.01266 0.0
C182 C 0.63565 0.99725 0.99454 0.0
C183 C 0.68355 0.01398 0.99499 0.0
C184 C 0.63789 0.99268 0.03908 0.0
O185 O 0.66535 0.9855 0.01974 0.0
O186 O 0.64199 0.96125 0.0175 0.0
C187 C 0.62585 0.94587 0.98461 0.0
N188 N 0.61773 0.9526 0.99239 0.0
C189 C 0.59587 0.94078 0.97187 0.0
C190 C 0.60394 0.93365 0.96366 0.0
C191 C 0.61904 0.93628 0.97002 0.0
C192 C 0.60335 0.95038 0.98623 0.0
H193 H 0.6374 0.9478 0.98953 0.0
C194 C 0.65724 0.96992 0.02118 0.0
O195 O 0.68188 0.01917 0.00953 0.0
O196 O 0.67084 0.00133 0.98845 0.0
N197 N 0.60451 0.96729 0.00831 0.0
C198 C 0.59832 0.97506 0.01768 0.0
C199 C 0.58347 0.97403 0.01275 0.0
C200 C 0.57501 0.96477 0.99844 0.0
C201 C 0.58142 0.95653 0.98924 0.0
C202 C 0.59631 0.9581 0.99469 0.0
H203 H 0.60467 0.98207 0.02878 0.0
O204 O 0.64831 0.01181 0.99633 0.0
O205 O 0.63722 0.9851 0.00023 0.0
O206 O 0.64948 0.00355 0.03057 0.0
O207 O 0.62835 0.97789 0.03393 0.0
C208 C 0.57355 0.94673 0.97495 0.0
C209 C 0.58073 0.93878 0.96633 0.0
H210 H 0.59869 0.92618 0.95245 0.0
H211 H 0.62537 0.93086 0.96373 0.0
H212 H 0.57855 0.98032 0.01999 0.0
H213 H 0.56355 0.96398 0.99469 0.0
H214 H 0.562 0.94525 0.97045 0.0
H215 H 0.5746 0.93134 0.95531 0.0
Mn216 Mn 0.6673 0.67868 0.34174 0.0
Mn217 Mn 0.704 0.7131 0.34691 0.0
C218 C 0.67724 0.69781 0.32086 0.0
C219 C 0.65199 0.6511 0.33353 0.0
C220 C 0.67325 0.70868 0.36298 0.0
O221 O 0.67767 0.67299 0.36118 0.0
O222 O 0.70224 0.69608 0.36269 0.0
C223 C 0.72472 0.69966 0.33506 0.0
N224 N 0.71979 0.7111 0.33402 0.0
C225 C 0.73853 0.72509 0.31215 0.0
C226 C 0.7439 0.71353 0.31306 0.0
C227 C 0.73693 0.70073 0.32453 0.0
C228 C 0.72636 0.72341 0.32298 0.0
H229 H 0.71936 0.6898 0.34384 0.0
C230 C 0.69201 0.68162 0.36748 0.0
O231 O 0.64627 0.65769 0.34382 0.0
O232 O 0.66658 0.66043 0.3282 0.0
N233 N 0.7076 0.73073 0.33252 0.0
C234 C 0.70062 0.74048 0.3328 0.0
C235 C 0.70609 0.75378 0.32196 0.0
C236 C 0.71866 0.75691 0.31094 0.0
C237 C 0.7258 0.74683 0.31103 0.0
C238 C 0.72002 0.73391 0.3223 0.0
H239 H 0.69095 0.73814 0.34122 0.0
O240 O 0.66177 0.68737 0.32149 0.0
O241 O 0.68651 0.69662 0.33233 0.0
O242 O 0.66348 0.69437 0.35684 0.0
O243 O 0.68851 0.71643 0.36021 0.0
C244 C 0.73826 0.74894 0.30021 0.0
C245 C 0.74458 0.73804 0.30073 0.0
H246 H 0.75327 0.71427 0.30492 0.0
H247 H 0.74094 0.69172 0.32525 0.0
H248 H 0.70061 0.76159 0.3221 0.0
H249 H 0.7227 0.76706 0.30245 0.0
H250 H 0.7429 0.75876 0.29128 0.0
H251 H 0.754 0.73965 0.29219 0.0
Mn252 Mn 0.31782 0.98985 0.35193 0.0
Mn253 Mn 0.31315 0.9533 0.3388 0.0
C254 C 0.30263 0.9667 0.36737 0.0
C255 C 0.33346 0.01497 0.36588 0.0
C256 C 0.29437 0.96893 0.32373 0.0
O257 O 0.33495 0.99606 0.33425 0.0
O258 O 0.33299 0.97146 0.32876 0.0
C259 C 0.34239 0.95511 0.35516 0.0
N260 N 0.3259 0.94727 0.35276 0.0
C261 C 0.3224 0.9251 0.37033 0.0
C262 C 0.33935 0.9329 0.37296 0.0
C263 C 0.34938 0.94802 0.36542 0.0
C264 C 0.31612 0.93289 0.36023 0.0
H265 H 0.35015 0.96666 0.34925 0.0
C266 C 0.33986 0.9871 0.3271 0.0
O267 O 0.32274 0.01312 0.35446 0.0
O268 O 0.33518 0.00232 0.36915 0.0
N269 N 0.2946 0.93454 0.34754 0.0
C270 C 0.27851 0.92846 0.34353 0.0
C271 C 0.26683 0.91357 0.35036 0.0
C272 C 0.27183 0.90489 0.36092 0.0
C273 C 0.28849 0.91113 0.36444 0.0
C274 C 0.29956 0.92611 0.35741 0.0
H275 H 0.27458 0.93494 0.33525 0.0
O276 O 0.30127 0.97975 0.36949 0.0
O277 O 0.31341 0.96781 0.35677 0.0
O278 O 0.29978 0.98121 0.33387 0.0
O279 O 0.29919 0.9583 0.324 0.0
C280 C 0.29455 0.90294 0.37443 0.0
C281 C 0.3115 0.90987 0.3773 0.0
H282 H 0.34479 0.9274 0.38076 0.0
H283 H 0.36247 0.95414 0.36741 0.0
H284 H 0.254 0.90875 0.34744 0.0
H285 H 0.26279 0.89338 0.36612 0.0
H286 H 0.28629 0.8913 0.38 0.0
H287 H 0.31602 0.90349 0.38508 0.0
Mn288 Mn 0.01266 0.32931 0.34536 0.0
Mn289 Mn 0.05033 0.36014 0.33666 0.0
C290 C 0.03343 0.33892 0.36538 0.0
C291 C 0.98641 0.32015 0.35495 0.0
C292 C 0.03684 0.32514 0.32368 0.0
O293 O 0.00843 0.33963 0.32493 0.0
O294 O 0.03404 0.36037 0.32092 0.0
C295 C 0.046 0.38859 0.34539 0.0
N296 N 0.05418 0.3801 0.34748 0.0
C297 C 0.07301 0.40036 0.36729 0.0
C298 C 0.06484 0.40938 0.36528 0.0
C299 C 0.05125 0.40344 0.35432 0.0
C300 C 0.06726 0.38569 0.35801 0.0
H301 H 0.03553 0.38406 0.33699 0.0
C302 C 0.01878 0.35227 0.31716 0.0
O303 O 0.98962 0.31099 0.3452 0.0
O304 O 0.99837 0.33471 0.35883 0.0
N305 N 0.06725 0.36141 0.35115 0.0
C306 C 0.07307 0.3507 0.35245 0.0
C307 C 0.08642 0.35459 0.36325 0.0
C308 C 0.09367 0.36946 0.37251 0.0
C309 C 0.08743 0.38026 0.37098 0.0
C310 C 0.07422 0.37581 0.3599 0.0
H311 H 0.06757 0.33928 0.34531 0.0
O312 O 0.02101 0.32419 0.36631 0.0
O313 O 0.03341 0.3474 0.35267 0.0
O314 O 0.02318 0.31903 0.33089 0.0
O315 O 0.04775 0.34029 0.32507 0.0
C316 C 0.09364 0.39514 0.38022 0.0
C317 C 0.08642 0.40517 0.3784 0.0
H318 H 0.0688 0.42079 0.37221 0.0
H319 H 0.04484 0.41029 0.35276 0.0
H320 H 0.09112 0.34615 0.36443 0.0
H321 H 0.10396 0.37243 0.38083 0.0
H322 H 0.1038 0.39887 0.38895 0.0
H323 H 0.09113 0.41646 0.38576 0.0
Mn324 Mn 0.66383 0.97887 0.34031 0.0
Mn325 Mn 0.69938 0.98449 0.35688 0.0
C326 C 0.67981 0.97169 0.32487 0.0
C327 C 0.64812 0.98824 0.32678 0.0
C328 C 0.66624 0.95713 0.36688 0.0
O329 O 0.6685 0.99477 0.35984 0.0
O330 O 0.6938 0.00024 0.36772 0.0
C331 C 0.72223 0.01813 0.34569 0.0
N332 N 0.7176 0.00183 0.34615 0.0
C333 C 0.74074 0.00608 0.33031 0.0
C334 C 0.74579 0.02293 0.32973 0.0
C335 C 0.73648 0.02897 0.33743 0.0
C336 C 0.72651 0.9959 0.33885 0.0
H337 H 0.71509 0.02283 0.35157 0.0
C338 C 0.68172 0.00291 0.36845 0.0
O339 O 0.64181 0.97592 0.33677 0.0
O340 O 0.66376 0.99537 0.32464 0.0
N341 N 0.70617 0.97015 0.34707 0.0
C342 C 0.69896 0.95343 0.34766 0.0
C343 C 0.70637 0.94535 0.33992 0.0
C344 C 0.72115 0.95453 0.33174 0.0
C345 C 0.72836 0.97172 0.33132 0.0
C346 C 0.72046 0.97911 0.33934 0.0
H347 H 0.68759 0.9463 0.35389 0.0
O348 O 0.66437 0.96536 0.32124 0.0
O349 O 0.68549 0.98226 0.33728 0.0
O350 O 0.65809 0.95992 0.35592 0.0
O351 O 0.68165 0.96609 0.36898 0.0
C352 C 0.74286 0.98177 0.32292 0.0
C353 C 0.74906 0.99894 0.32242 0.0
H354 H 0.75671 0.03131 0.32326 0.0
H355 H 0.74026 0.04195 0.33698 0.0
H356 H 0.70068 0.93206 0.3402 0.0
H357 H 0.72678 0.94825 0.32569 0.0
H358 H 0.74921 0.9764 0.31657 0.0
H359 H 0.76008 0.00651 0.31571 0.0
Mn360 Mn 0.02348 0.69371 0.34446 0.0
Mn361 Mn 0.05746 0.69225 0.33559 0.0
C362 C 0.04704 0.70933 0.36028 0.0
C363 C 0.99852 0.68177 0.35775 0.0
C364 C 0.04417 0.7102 0.31466 0.0
O365 O 0.01548 0.6735 0.32918 0.0
O366 O 0.03814 0.67119 0.32808 0.0
C367 C 0.05451 0.66588 0.35784 0.0
N368 N 0.06295 0.68178 0.35287 0.0
C369 C 0.08524 0.68762 0.37188 0.0
C370 C 0.07684 0.67127 0.37714 0.0
C371 C 0.06135 0.66039 0.37017 0.0
C372 C 0.07772 0.69243 0.35971 0.0
H373 H 0.04269 0.65743 0.35235 0.0
C374 C 0.0229 0.66571 0.3251 0.0
O375 O 0.00113 0.69102 0.34489 0.0
O376 O 0.01041 0.67959 0.36289 0.0
N377 N 0.07699 0.71189 0.34237 0.0
C378 C 0.08354 0.72724 0.33587 0.0
C379 C 0.09883 0.73971 0.34184 0.0
C380 C 0.10733 0.73623 0.35423 0.0
C381 C 0.10048 0.72028 0.3605 0.0
C382 C 0.08517 0.70837 0.35414 0.0
H383 H 0.07717 0.72996 0.32622 0.0
O384 O 0.03531 0.71281 0.36045 0.0
O385 O 0.04435 0.69659 0.35125 0.0
O386 O 0.03314 0.7088 0.32456 0.0
O387 O 0.05307 0.70359 0.31718 0.0
C388 C 0.10832 0.71569 0.37269 0.0
C389 C 0.10078 0.69934 0.37826 0.0
H390 H 0.08211 0.66698 0.38659 0.0
H391 H 0.05476 0.64777 0.37421 0.0
H392 H 0.10407 0.75197 0.33687 0.0
H393 H 0.11913 0.74587 0.35878 0.0
H394 H 0.12019 0.72462 0.37783 0.0
H395 H 0.10696 0.69595 0.3876 0.0
Mn396 Mn 0.32434 0.3403 0.34707 0.0
Mn397 Mn 0.29151 0.30444 0.35753 0.0
C398 C 0.30151 0.32841 0.32961 0.0
C399 C 0.34994 0.35486 0.33543 0.0
C400 C 0.30006 0.33737 0.37346 0.0
O401 O 0.33346 0.33134 0.36472 0.0
O402 O 0.31116 0.30698 0.36976 0.0
C403 C 0.30097 0.28136 0.34262 0.0
N404 N 0.29008 0.28686 0.34391 0.0
C405 C 0.27145 0.26609 0.32437 0.0
C406 C 0.28242 0.26012 0.32292 0.0
C407 C 0.29726 0.26783 0.33205 0.0
C408 C 0.2758 0.27959 0.33513 0.0
H409 H 0.31242 0.28726 0.34958 0.0
C410 C 0.32632 0.3175 0.37192 0.0
O411 O 0.34528 0.36136 0.34696 0.0
O412 O 0.33964 0.3399 0.33052 0.0
N413 N 0.27161 0.30018 0.34653 0.0
C414 C 0.26276 0.30797 0.3487 0.0
C415 C 0.24767 0.30194 0.34026 0.0
C416 C 0.24182 0.28798 0.32971 0.0
C417 C 0.25111 0.28016 0.32769 0.0
C418 C 0.26595 0.28658 0.33662 0.0
H419 H 0.26717 0.31867 0.35684 0.0
O420 O 0.3119 0.34404 0.3288 0.0
O421 O 0.30484 0.32023 0.34055 0.0
O422 O 0.31245 0.34604 0.36469 0.0
O423 O 0.29162 0.32171 0.37206 0.0
C424 C 0.24633 0.26638 0.31703 0.0
C425 C 0.25652 0.25938 0.31533 0.0
H426 H 0.27963 0.24973 0.31472 0.0
H427 H 0.30583 0.26335 0.33092 0.0
H428 H 0.24056 0.30805 0.34188 0.0
H429 H 0.2302 0.28342 0.32314 0.0
H430 H 0.23496 0.26122 0.30989 0.0
H431 H 0.25283 0.24894 0.3069 0.0
Mn432 Mn 0.33044 0.0227 0.67328 0.0
Mn433 Mn 0.36822 0.05561 0.67875 0.0
C434 C 0.33961 0.04401 0.65479 0.0
C435 C 0.31276 0.99613 0.66318 0.0
C436 C 0.33918 0.05235 0.69697 0.0
O437 O 0.34082 0.01427 0.69006 0.0
O438 O 0.36482 0.03751 0.6938 0.0
C439 C 0.3854 0.03889 0.66524 0.0
N440 N 0.38239 0.05174 0.66504 0.0
C441 C 0.4027 0.06559 0.64448 0.0
C442 C 0.40606 0.05254 0.64447 0.0
C443 C 0.39726 0.03906 0.6548 0.0
C444 C 0.39038 0.06448 0.65475 0.0
H445 H 0.37886 0.02864 0.67336 0.0
C446 C 0.35473 0.02259 0.69722 0.0
O447 O 0.3089 0.00252 0.67552 0.0
O448 O 0.32707 0.00501 0.65698 0.0
N449 N 0.3742 0.0746 0.66554 0.0
C450 C 0.37036 0.08675 0.6679 0.0
C451 C 0.37804 0.10108 0.65848 0.0
C452 C 0.39024 0.1032 0.64739 0.0
C453 C 0.39469 0.09098 0.64589 0.0
C454 C 0.3862 0.07669 0.65517 0.0
H455 H 0.36141 0.08545 0.67686 0.0
O456 O 0.3242 0.03359 0.65591 0.0
O457 O 0.34959 0.04123 0.6639 0.0
O458 O 0.32905 0.0379 0.69131 0.0
O459 O 0.35409 0.06033 0.69275 0.0
C460 C 0.40754 0.09262 0.63592 0.0
C461 C 0.41135 0.07981 0.63498 0.0
H462 H 0.41542 0.05278 0.63667 0.0
H463 H 0.39978 0.02894 0.65488 0.0
H464 H 0.37476 0.11061 0.65997 0.0
H465 H 0.39633 0.1144 0.64034 0.0
H466 H 0.41444 0.10361 0.62875 0.0
H467 H 0.42109 0.08112 0.62707 0.0
Mn468 Mn 0.98222 0.31367 0.68359 0.0
Mn469 Mn 0.98383 0.28188 0.66524 0.0
C470 C 0.96544 0.28726 0.69235 0.0
C471 C 0.99119 0.33521 0.7029 0.0
C472 C 0.96601 0.29805 0.64975 0.0
O473 O 0.00369 0.32494 0.67177 0.0
O474 O 0.00372 0.30305 0.65984 0.0
C475 C 0.01204 0.28419 0.68438 0.0
N476 N 0.99609 0.27536 0.67935 0.0
C477 C 0.99315 0.25101 0.69244 0.0
C478 C 0.00955 0.25982 0.69775 0.0
C479 C 0.01901 0.27652 0.6938 0.0
C480 C 0.98679 0.25939 0.6834 0.0
H481 H 0.01942 0.29695 0.68115 0.0
C482 C 0.01024 0.31857 0.6628 0.0
O483 O 0.98409 0.3353 0.68896 0.0
O484 O 0.99331 0.32271 0.70566 0.0
N485 N 0.96565 0.26064 0.66934 0.0
C486 C 0.95001 0.2539 0.66333 0.0
C487 C 0.93878 0.23744 0.66676 0.0
C488 C 0.94386 0.22796 0.67594 0.0
C489 C 0.96012 0.23504 0.68161 0.0
C490 C 0.97067 0.2516 0.6781 0.0
H491 H 0.94609 0.26106 0.65607 0.0
O492 O 0.96178 0.29878 0.69506 0.0
O493 O 0.97905 0.29158 0.68479 0.0
O494 O 0.96966 0.30877 0.66137 0.0
O495 O 0.97065 0.28732 0.64988 0.0
C496 C 0.96633 0.22627 0.69041 0.0
C497 C 0.98286 0.23422 0.69574 0.0
H498 H 0.01501 0.2539 0.70487 0.0
H499 H 0.03168 0.28341 0.69785 0.0
H500 H 0.92628 0.23203 0.66222 0.0
H501 H 0.9352 0.21522 0.67843 0.0
H502 H 0.95849 0.21341 0.69321 0.0
H503 H 0.98746 0.22737 0.70261 0.0
Mn504 Mn 0.67523 0.65791 0.67636 0.0
Mn505 Mn 0.71135 0.6921 0.66976 0.0
C506 C 0.6958 0.66758 0.69664 0.0
C507 C 0.64828 0.64459 0.6847 0.0
C508 C 0.70158 0.65899 0.65369 0.0
O509 O 0.66975 0.66894 0.65744 0.0
O510 O 0.69426 0.69173 0.6547 0.0
C511 C 0.70321 0.71719 0.68178 0.0
N512 N 0.71289 0.71018 0.68259 0.0
C513 C 0.73024 0.72975 0.70374 0.0
C514 C 0.72051 0.73725 0.70307 0.0
C515 C 0.70691 0.7309 0.69207 0.0
C516 C 0.72597 0.71615 0.69315 0.0
H517 H 0.69274 0.71235 0.67336 0.0
C518 C 0.67912 0.6827 0.65073 0.0
O519 O 0.65345 0.63801 0.67382 0.0
O520 O 0.65873 0.65901 0.69084 0.0
N521 N 0.72895 0.69417 0.6837 0.0
C522 C 0.73646 0.68489 0.68355 0.0
C523 C 0.7501 0.68937 0.6941 0.0
C524 C 0.75591 0.70335 0.70463 0.0
C525 C 0.74795 0.71266 0.70459 0.0
C526 C 0.73453 0.70772 0.69367 0.0
H527 H 0.73208 0.67418 0.67543 0.0
O528 O 0.68444 0.65221 0.6963 0.0
O529 O 0.69485 0.67669 0.68502 0.0
O530 O 0.68785 0.65122 0.66063 0.0
O531 O 0.71131 0.67436 0.65609 0.0
C532 C 0.75267 0.72652 0.71513 0.0
C533 C 0.7438 0.73504 0.71473 0.0
H534 H 0.72328 0.74778 0.71104 0.0
H535 H 0.6993 0.73657 0.69154 0.0
H536 H 0.75613 0.68207 0.69413 0.0
H537 H 0.76642 0.70676 0.71277 0.0
H538 H 0.76296 0.73058 0.72377 0.0
H539 H 0.74739 0.74552 0.72307 0.0
Mn540 Mn 0.32787 0.31353 0.67733 0.0
Mn541 Mn 0.36664 0.32217 0.68462 0.0
C542 C 0.33846 0.30061 0.66136 0.0
C543 C 0.30967 0.32089 0.66579 0.0
C544 C 0.33853 0.30008 0.7065 0.0
O545 O 0.33774 0.33438 0.69162 0.0
O546 O 0.36409 0.34084 0.6933 0.0
C547 C 0.38375 0.35051 0.66243 0.0
N548 N 0.38011 0.33509 0.66702 0.0
C549 C 0.39812 0.33414 0.64677 0.0
C550 C 0.40213 0.35004 0.64185 0.0
C551 C 0.39481 0.35821 0.64964 0.0
C552 C 0.38679 0.32697 0.65936 0.0
H553 H 0.37829 0.3569 0.66852 0.0
C554 C 0.35256 0.34405 0.69593 0.0
O555 O 0.30615 0.31182 0.67888 0.0
O556 O 0.32358 0.3252 0.659 0.0
N557 N 0.37103 0.30535 0.67682 0.0
C558 C 0.36599 0.29013 0.68313 0.0
C559 C 0.37183 0.28016 0.67637 0.0
C560 C 0.38304 0.28607 0.66344 0.0
C561 C 0.38839 0.30194 0.65747 0.0
C562 C 0.38202 0.31125 0.66457 0.0
H563 H 0.35753 0.28559 0.6932 0.0
O564 O 0.32278 0.29456 0.66207 0.0
O565 O 0.34747 0.3144 0.66954 0.0
O566 O 0.32732 0.30011 0.69744 0.0
O567 O 0.35367 0.3085 0.70326 0.0
C568 C 0.39997 0.30898 0.64492 0.0
C569 C 0.40496 0.32514 0.6397 0.0
H570 H 0.41076 0.35608 0.63209 0.0
H571 H 0.39781 0.37047 0.64589 0.0
H572 H 0.36776 0.26798 0.68115 0.0
H573 H 0.38757 0.27837 0.6583 0.0
H574 H 0.40517 0.30211 0.63923 0.0
H575 H 0.41388 0.33042 0.63004 0.0
Mn576 Mn 0.68312 0.01961 0.67509 0.0
Mn577 Mn 0.71184 0.01219 0.65927 0.0
C578 C 0.70769 0.02909 0.68931 0.0
C579 C 0.65964 0.01135 0.69028 0.0
C580 C 0.70429 0.03805 0.64586 0.0
O581 O 0.67053 0.00131 0.65788 0.0
O582 O 0.69002 0.99555 0.65003 0.0
C583 C 0.70239 0.98003 0.67446 0.0
N584 N 0.71378 0.99604 0.67203 0.0
C585 C 0.73389 0.99322 0.68833 0.0
C586 C 0.7224 0.97668 0.69094 0.0
C587 C 0.70657 0.97007 0.684 0.0
C588 C 0.72905 0.00252 0.67863 0.0
H589 H 0.6902 0.97491 0.66917 0.0
C590 C 0.67523 0.99263 0.64981 0.0
O591 O 0.66378 0.02224 0.67874 0.0
O592 O 0.66918 0.00522 0.69304 0.0
N593 N 0.73347 0.02722 0.66736 0.0
C594 C 0.7428 0.04363 0.66449 0.0
C595 C 0.75885 0.05222 0.67097 0.0
C596 C 0.76516 0.04386 0.68025 0.0
C597 C 0.75536 0.02697 0.683 0.0
C598 C 0.7395 0.01902 0.6761 0.0
H599 H 0.73804 0.05012 0.65735 0.0
O600 O 0.6986 0.03566 0.69212 0.0
O601 O 0.702 0.01699 0.67841 0.0
O602 O 0.69391 0.03628 0.65673 0.0
O603 O 0.7112 0.02925 0.64533 0.0
C604 C 0.76059 0.01778 0.69255 0.0
C605 C 0.74986 0.00092 0.69523 0.0
H606 H 0.72555 0.96898 0.69836 0.0
H607 H 0.69761 0.95733 0.68601 0.0
H608 H 0.76634 0.06526 0.66884 0.0
H609 H 0.77752 0.05054 0.68532 0.0
H610 H 0.77277 0.02362 0.69809 0.0
H611 H 0.75395 0.99405 0.70279 0.0
Mn612 Mn 0.99059 0.67776 0.67715 0.0
Mn613 Mn 0.95453 0.64427 0.6854 0.0
C614 C 0.96806 0.6709 0.66017 0.0
C615 C 0.01642 0.69019 0.66592 0.0
C616 C 0.96783 0.67665 0.70443 0.0
O617 O 0.99702 0.66502 0.69288 0.0
O618 O 0.97259 0.64276 0.69712 0.0
C619 C 0.9594 0.6188 0.66843 0.0
N620 N 0.95063 0.62669 0.6703 0.0
C621 C 0.92983 0.60793 0.65093 0.0
C622 C 0.93861 0.59957 0.64881 0.0
C623 C 0.95353 0.60511 0.65751 0.0
C624 C 0.93646 0.6217 0.6617 0.0
H625 H 0.97073 0.62283 0.67531 0.0
C626 C 0.98812 0.65105 0.69931 0.0
O627 O 0.01305 0.69665 0.67854 0.0
O628 O 0.00466 0.67653 0.65954 0.0
N629 N 0.93592 0.64375 0.67482 0.0
C630 C 0.92902 0.65327 0.67811 0.0
C631 C 0.91434 0.64975 0.66991 0.0
C632 C 0.90673 0.63627 0.65871 0.0
C633 C 0.91389 0.62645 0.65579 0.0
C634 C 0.92867 0.63072 0.6641 0.0
H635 H 0.93477 0.66359 0.68675 0.0
O636 O 0.98031 0.68583 0.66061 0.0
O637 O 0.96946 0.66027 0.66943 0.0
O638 O 0.98089 0.68424 0.69633 0.0
O639 O 0.95708 0.66166 0.70143 0.0
C640 C 0.90683 0.61245 0.64513 0.0
C641 C 0.91473 0.60312 0.64281 0.0
H642 H 0.93403 0.5889 0.64053 0.0
H643 H 0.96038 0.59873 0.65594 0.0
H644 H 0.90887 0.65737 0.67229 0.0
H645 H 0.89535 0.63353 0.65249 0.0
H646 H 0.89534 0.60876 0.63862 0.0
H647 H 0.90923 0.59243 0.6345 0.0
C648 C 0.22723 0.2811 0.0882 0.0
C649 C 0.22523 0.2946 0.07943 0.0
C650 C 0.21024 0.30268 0.09874 0.0
C651 C 0.21111 0.31594 0.10781 0.0
C652 C 0.1975 0.3146 0.11601 0.0
C653 C 0.18275 0.29936 0.11562 0.0
C654 C 0.18179 0.28581 0.10657 0.0
C655 C 0.19545 0.28767 0.09803 0.0
C656 C 0.19888 0.32954 0.12498 0.0
C657 C 0.16632 0.26933 0.10591 0.0
C658 C 0.09883 0.31467 0.05152 0.0
C659 C 0.10543 0.30397 0.05706 0.0
C660 C 0.10811 0.2962 0.085 0.0
C661 C 0.10484 0.28166 0.09288 0.0
C662 C 0.11547 0.28165 0.10537 0.0
C663 C 0.12934 0.2967 0.11045 0.0
C664 C 0.132 0.31161 0.10332 0.0
C665 C 0.12141 0.31118 0.09057 0.0
C666 C 0.11232 0.26548 0.11253 0.0
C667 C 0.14637 0.32794 0.10872 0.0
C668 C 0.09633 0.28951 0.21967 0.0
C669 C 0.09511 0.27512 0.21254 0.0
C670 C 0.1079 0.2758 0.20321 0.0
C671 C 0.12206 0.29117 0.20083 0.0
C672 C 0.12316 0.30569 0.20772 0.0
C673 C 0.11029 0.30463 0.2171 0.0
C674 C 0.10639 0.26009 0.19607 0.0
C675 C 0.13805 0.32229 0.20539 0.0
C676 C 0.19498 0.27486 0.26246 0.0
C677 C 0.20875 0.28191 0.24986 0.0
C678 C 0.19792 0.29375 0.22931 0.0
C679 C 0.18562 0.27867 0.22242 0.0
C680 C 0.17417 0.27823 0.2107 0.0
C681 C 0.17509 0.29312 0.20566 0.0
C682 C 0.18774 0.30832 0.21214 0.0
C683 C 0.19901 0.30841 0.22386 0.0
C684 C 0.16089 0.26183 0.2039 0.0
C685 C 0.18915 0.32444 0.20693 0.0
C686 C 0.16822 0.29769 0.12429 0.0
C687 C 0.15584 0.29784 0.11461 0.0
C688 C 0.14195 0.29669 0.12185 0.0
C689 C 0.14039 0.2956 0.13935 0.0
C690 C 0.12686 0.29496 0.14714 0.0
C691 C 0.12541 0.29375 0.16437 0.0
C692 C 0.13746 0.2932 0.17447 0.0
C693 C 0.13612 0.29199 0.19199 0.0
C694 C 0.1485 0.29183 0.20166 0.0
C695 C 0.16227 0.29279 0.19438 0.0
C696 C 0.16372 0.29371 0.17687 0.0
C697 C 0.17726 0.29435 0.1691 0.0
C698 C 0.17866 0.29544 0.15188 0.0
C699 C 0.16668 0.29614 0.14177 0.0
C700 C 0.15278 0.29523 0.14932 0.0
C701 C 0.1513 0.29401 0.16689 0.0
C702 C 0.05731 0.27215 0.21867 0.0
C703 C 0.06957 0.27631 0.23319 0.0
O704 O 0.22394 0.30494 0.09105 0.0
O705 O 0.20878 0.29477 0.24134 0.0
O706 O 0.08451 0.28954 0.22912 0.0
O707 O 0.09885 0.29539 0.0715 0.0
H708 H 0.21395 0.28838 0.07143 0.0
H709 H 0.21567 0.2721 0.09395 0.0
H710 H 0.23671 0.28643 0.09831 0.0
H711 H 0.23054 0.27427 0.0791 0.0
H712 H 0.22251 0.3275 0.10826 0.0
H713 H 0.19442 0.27726 0.091 0.0
H714 H 0.18829 0.33117 0.12168 0.0
H715 H 0.21027 0.34098 0.12198 0.0
H716 H 0.19884 0.32779 0.13864 0.0
H717 H 0.16819 0.25948 0.1003 0.0
H718 H 0.15687 0.2703 0.09836 0.0
H719 H 0.16157 0.26565 0.11864 0.0
H720 H 0.11891 0.3092 0.05636 0.0
H721 H 0.0866 0.3036 0.0284 0.0
H722 H 0.10952 0.32756 0.05248 0.0
H723 H 0.09242 0.31628 0.06252 0.0
H724 H 0.09445 0.27018 0.08855 0.0
H725 H 0.12367 0.32251 0.08472 0.0
H726 H 0.12309 0.26384 0.11079 0.0
H727 H 0.10145 0.25479 0.10664 0.0
H728 H 0.1104 0.26551 0.12612 0.0
H729 H 0.14524 0.3385 0.10405 0.0
H730 H 0.15771 0.32884 0.10383 0.0
H731 H 0.14761 0.32889 0.12253 0.0
H732 H 0.07096 0.26542 0.23599 0.0
H733 H 0.08435 0.26331 0.21425 0.0
H734 H 0.1111 0.31567 0.22258 0.0
H735 H 0.10738 0.2609 0.18232 0.0
H736 H 0.09465 0.24908 0.19912 0.0
H737 H 0.11656 0.25842 0.20099 0.0
H738 H 0.13644 0.33255 0.2103 0.0
H739 H 0.14088 0.32426 0.19195 0.0
H740 H 0.1487 0.32268 0.21194 0.0
H741 H 0.20701 0.27202 0.24085 0.0
H742 H 0.19532 0.26488 0.26959 0.0
H743 H 0.18289 0.26957 0.25603 0.0
H744 H 0.19621 0.28464 0.27134 0.0
H745 H 0.18468 0.26717 0.22623 0.0
H746 H 0.20858 0.31998 0.2291 0.0
H747 H 0.16103 0.26172 0.19007 0.0
H748 H 0.14882 0.25999 0.20759 0.0
H749 H 0.16224 0.25137 0.20849 0.0
H750 H 0.20004 0.33524 0.21264 0.0
H751 H 0.17808 0.32489 0.21062 0.0
H752 H 0.18986 0.32539 0.19316 0.0
H753 H 0.15705 0.29891 0.10119 0.0
H754 H 0.11725 0.29539 0.13997 0.0
H755 H 0.11472 0.29328 0.1697 0.0
H756 H 0.14746 0.29108 0.21511 0.0
H757 H 0.18691 0.294 0.17627 0.0
H758 H 0.18931 0.29582 0.14658 0.0
H759 H 0.0556 0.28286 0.21595 0.0
H760 H 0.04534 0.26144 0.22171 0.0
H761 H 0.06172 0.26892 0.20728 0.0
C762 C 0.73972 0.948 0.08893 0.0
C763 C 0.72366 0.93263 0.08359 0.0
C764 C 0.71356 0.91221 0.10569 0.0
C765 C 0.6995 0.90245 0.11457 0.0
C766 C 0.69755 0.88854 0.12303 0.0
C767 C 0.71033 0.88472 0.12315 0.0
C768 C 0.7248 0.89482 0.11454 0.0
C769 C 0.72619 0.90835 0.10575 0.0
C770 C 0.68177 0.87787 0.1317 0.0
C771 C 0.73879 0.89128 0.11448 0.0
C772 C 0.71434 0.7956 0.0654 0.0
C773 C 0.70779 0.78628 0.08163 0.0
C774 C 0.69818 0.80218 0.09787 0.0
C775 C 0.71374 0.81531 0.10233 0.0
C776 C 0.71554 0.82818 0.11288 0.0
C777 C 0.70152 0.82814 0.1189 0.0
C778 C 0.68585 0.81513 0.11428 0.0
C779 C 0.68439 0.80229 0.10385 0.0
C780 C 0.73246 0.84187 0.11761 0.0
C781 C 0.67067 0.81479 0.12043 0.0
C782 C 0.7038 0.79694 0.22395 0.0
C783 C 0.71848 0.80751 0.21616 0.0
C784 C 0.72082 0.82209 0.20884 0.0
C785 C 0.70807 0.82595 0.20893 0.0
C786 C 0.69342 0.8155 0.21707 0.0
C787 C 0.6916 0.80126 0.22471 0.0
C788 C 0.7369 0.83332 0.20094 0.0
C789 C 0.67958 0.81924 0.21748 0.0
C790 C 0.73506 0.9488 0.21996 0.0
C791 C 0.72403 0.93721 0.23332 0.0
C792 C 0.72621 0.91246 0.23082 0.0
C793 C 0.73879 0.90937 0.22672 0.0
C794 C 0.73552 0.89505 0.21772 0.0
C795 C 0.71923 0.88349 0.21305 0.0
C796 C 0.70637 0.8861 0.21807 0.0
C797 C 0.71 0.90058 0.22694 0.0
C798 C 0.74949 0.89251 0.21275 0.0
C799 C 0.68882 0.87377 0.21374 0.0
C800 C 0.70849 0.87002 0.13203 0.0
C801 C 0.70506 0.85603 0.12249 0.0
C802 C 0.70342 0.84185 0.12996 0.0
C803 C 0.70471 0.84133 0.14749 0.0
C804 C 0.70261 0.82708 0.15543 0.0
C805 C 0.70406 0.82675 0.17268 0.0
C806 C 0.70801 0.84077 0.18264 0.0
C807 C 0.70992 0.84068 0.20017 0.0
C808 C 0.71368 0.85478 0.2097 0.0
C809 C 0.71567 0.86908 0.2022 0.0
C810 C 0.71404 0.86948 0.18468 0.0
C811 C 0.71629 0.88378 0.1767 0.0
C812 C 0.71456 0.88403 0.15948 0.0
C813 C 0.71042 0.86996 0.14955 0.0
C814 C 0.70834 0.85549 0.1573 0.0
C815 C 0.71012 0.85524 0.17489 0.0
C816 C 0.69835 0.76328 0.20982 0.0
C817 C 0.70701 0.77246 0.22603 0.0
O818 O 0.71452 0.92531 0.09747 0.0
O819 O 0.73006 0.92704 0.23838 0.0
O820 O 0.70097 0.78264 0.23105 0.0
O821 O 0.69587 0.78929 0.08787 0.0
H822 H 0.72686 0.92406 0.07706 0.0
H823 H 0.74762 0.94441 0.09607 0.0
H824 H 0.73741 0.95625 0.09711 0.0
H825 H 0.74646 0.9548 0.07782 0.0
H826 H 0.68985 0.90558 0.11451 0.0
H827 H 0.73725 0.91595 0.09914 0.0
H828 H 0.67705 0.86469 0.12834 0.0
H829 H 0.67227 0.88119 0.12848 0.0
H830 H 0.68399 0.87928 0.1454 0.0
H831 H 0.75015 0.90185 0.10992 0.0
H832 H 0.73549 0.88047 0.10618 0.0
H833 H 0.74122 0.88825 0.12718 0.0
H834 H 0.71816 0.79058 0.09074 0.0
H835 H 0.72332 0.79255 0.05999 0.0
H836 H 0.72057 0.80908 0.06789 0.0
H837 H 0.7043 0.79245 0.05613 0.0
H838 H 0.72461 0.81575 0.09764 0.0
H839 H 0.67244 0.7922 0.10031 0.0
H840 H 0.73412 0.85372 0.11291 0.0
H841 H 0.74215 0.83975 0.11247 0.0
H842 H 0.73402 0.84308 0.13138 0.0
H843 H 0.65935 0.80399 0.11541 0.0
H844 H 0.67064 0.82622 0.11678 0.0
H845 H 0.67061 0.81443 0.13425 0.0
H846 H 0.72031 0.77981 0.22397 0.0
H847 H 0.72827 0.80467 0.21592 0.0
H848 H 0.68041 0.79314 0.23093 0.0
H849 H 0.73518 0.83258 0.18718 0.0
H850 H 0.74636 0.82993 0.20415 0.0
H851 H 0.74141 0.8463 0.20495 0.0
H852 H 0.66848 0.80915 0.22305 0.0
H853 H 0.67645 0.82132 0.20466 0.0
H854 H 0.68344 0.83072 0.2249 0.0
H855 H 0.71174 0.92997 0.22727 0.0
H856 H 0.73093 0.95762 0.21626 0.0
H857 H 0.73447 0.9415 0.2087 0.0
H858 H 0.74796 0.95564 0.22451 0.0
H859 H 0.75124 0.91851 0.23005 0.0
H860 H 0.70018 0.9026 0.23081 0.0
H861 H 0.74974 0.89174 0.19895 0.0
H862 H 0.74768 0.88067 0.21767 0.0
H863 H 0.76146 0.90261 0.21744 0.0
H864 H 0.68017 0.87697 0.21967 0.0
H865 H 0.68602 0.8613 0.21772 0.0
H866 H 0.68684 0.8732 0.20002 0.0
H867 H 0.70396 0.85628 0.10903 0.0
H868 H 0.69972 0.81598 0.1484 0.0
H869 H 0.70214 0.81537 0.17808 0.0
H870 H 0.71504 0.85462 0.22314 0.0
H871 H 0.71945 0.89498 0.18368 0.0
H872 H 0.71652 0.89541 0.15405 0.0
H873 H 0.70302 0.75501 0.20574 0.0
H874 H 0.70061 0.77222 0.19978 0.0
H875 H 0.68498 0.75584 0.21156 0.0
C876 C 0.18859 0.91839 0.06083 0.0
C877 C 0.20004 0.92369 0.07625 0.0
C878 C 0.18687 0.90031 0.09517 0.0
C879 C 0.17425 0.90329 0.09996 0.0
C880 C 0.16219 0.89271 0.11077 0.0
C881 C 0.16255 0.8787 0.11676 0.0
C882 C 0.1753 0.87574 0.11218 0.0
C883 C 0.18736 0.88667 0.10152 0.0
C884 C 0.14878 0.89626 0.11545 0.0
C885 C 0.17593 0.8608 0.11819 0.0
C886 C 0.06969 0.81136 0.04832 0.0
C887 C 0.07389 0.803 0.06233 0.0
C888 C 0.08206 0.81531 0.09023 0.0
C889 C 0.09357 0.8104 0.09419 0.0
C890 C 0.10574 0.81893 0.1065 0.0
C891 C 0.10642 0.83266 0.11491 0.0
C892 C 0.0943 0.83707 0.1115 0.0
C893 C 0.08209 0.82811 0.09937 0.0
C894 C 0.1182 0.81364 0.11011 0.0
C895 C 0.0947 0.85173 0.12007 0.0
C896 C 0.07686 0.81014 0.22122 0.0
C897 C 0.08779 0.80513 0.21565 0.0
C898 C 0.10232 0.81629 0.20803 0.0
C899 C 0.1058 0.8327 0.20564 0.0
C900 C 0.09506 0.83791 0.21178 0.0
C901 C 0.08083 0.82658 0.21975 0.0
C902 C 0.11381 0.81046 0.2023 0.0
C903 C 0.09841 0.85534 0.20959 0.0
C904 C 0.2165 0.94104 0.21999 0.0
C905 C 0.20803 0.93292 0.23614 0.0
C906 C 0.18871 0.90467 0.22615 0.0
C907 C 0.18641 0.88873 0.22457 0.0
C908 C 0.17323 0.87646 0.21516 0.0
C909 C 0.1619 0.88019 0.20737 0.0
C910 C 0.16389 0.89616 0.20927 0.0
C911 C 0.17734 0.90828 0.21848 0.0
C912 C 0.17151 0.85957 0.21339 0.0
C913 C 0.15182 0.90048 0.20146 0.0
C914 C 0.14874 0.86641 0.1265 0.0
C915 C 0.13485 0.85494 0.11754 0.0
C916 C 0.12086 0.84359 0.12561 0.0
C917 C 0.12069 0.84345 0.14322 0.0
C918 C 0.10685 0.83217 0.15176 0.0
C919 C 0.10668 0.83243 0.16909 0.0
C920 C 0.12043 0.84385 0.17857 0.0
C921 C 0.12035 0.84426 0.1962 0.0
C922 C 0.13412 0.85602 0.20518 0.0
C923 C 0.14808 0.86747 0.19706 0.0
C924 C 0.14849 0.86706 0.17945 0.0
C925 C 0.16241 0.87823 0.17086 0.0
C926 C 0.16255 0.87803 0.15352 0.0
C927 C 0.14883 0.86656 0.14411 0.0
C928 C 0.13473 0.85503 0.1525 0.0
C929 C 0.13458 0.85526 0.17019 0.0
C930 C 0.03496 0.77972 0.22042 0.0
C931 C 0.05253 0.78317 0.22272 0.0
O932 O 0.1986 0.91001 0.08436 0.0
O933 O 0.20204 0.91605 0.23507 0.0
O934 O 0.06237 0.79941 0.22794 0.0
O935 O 0.07097 0.80814 0.07752 0.0
H936 H 0.1966 0.93093 0.08466 0.0
H937 H 0.17569 0.91182 0.06466 0.0
H938 H 0.19056 0.90996 0.05257 0.0
H939 H 0.1906 0.92936 0.05371 0.0
H940 H 0.17345 0.91366 0.09518 0.0
H941 H 0.1971 0.88443 0.09782 0.0
H942 H 0.13709 0.88683 0.10953 0.0
H943 H 0.15124 0.90861 0.1114 0.0
H944 H 0.14722 0.89553 0.12916 0.0
H945 H 0.18676 0.86034 0.11367 0.0
H946 H 0.16475 0.84945 0.11385 0.0
H947 H 0.1762 0.86082 0.13203 0.0
H948 H 0.08708 0.80698 0.06123 0.0
H949 H 0.07196 0.80746 0.03599 0.0
H950 H 0.07745 0.82494 0.04966 0.0
H951 H 0.05669 0.80821 0.04875 0.0
H952 H 0.09316 0.80005 0.08754 0.0
H953 H 0.07296 0.83159 0.09636 0.0
H954 H 0.12004 0.81327 0.12377 0.0
H955 H 0.13007 0.82275 0.10494 0.0
H956 H 0.11457 0.80134 0.10451 0.0
H957 H 0.08473 0.8539 0.11552 0.0
H958 H 0.10656 0.86297 0.118 0.0
H959 H 0.09354 0.84979 0.1337 0.0
H960 H 0.05617 0.78111 0.21017 0.0
H961 H 0.08501 0.79252 0.21728 0.0
H962 H 0.07241 0.83037 0.22431 0.0
H963 H 0.1134 0.80963 0.18849 0.0
H964 H 0.11058 0.79817 0.20723 0.0
H965 H 0.12654 0.81942 0.20631 0.0
H966 H 0.08825 0.85709 0.21395 0.0
H967 H 0.10046 0.85865 0.19625 0.0
H968 H 0.1097 0.86397 0.21671 0.0
H969 H 0.19785 0.93545 0.2383 0.0
H970 H 0.2214 0.95457 0.22085 0.0
H971 H 0.20773 0.93616 0.20924 0.0
H972 H 0.22668 0.93858 0.21759 0.0
H973 H 0.19517 0.886 0.23055 0.0
H974 H 0.1788 0.92048 0.21957 0.0
H975 H 0.17073 0.85613 0.19999 0.0
H976 H 0.16002 0.85036 0.21914 0.0
H977 H 0.18186 0.85891 0.21941 0.0
H978 H 0.15404 0.91281 0.20563 0.0
H979 H 0.13919 0.89113 0.20459 0.0
H980 H 0.15271 0.90042 0.18769 0.0
H981 H 0.13481 0.85511 0.10402 0.0
H982 H 0.09595 0.82308 0.14511 0.0
H983 H 0.09559 0.82358 0.17496 0.0
H984 H 0.13389 0.85641 0.21869 0.0
H985 H 0.17334 0.88732 0.17745 0.0
H986 H 0.17354 0.88699 0.14757 0.0
H987 H 0.02678 0.76661 0.21671 0.0
H988 H 0.03436 0.78757 0.21043 0.0
H989 H 0.0305 0.78251 0.23204 0.0
C990 C 0.27455 0.08913 0.96399 0.0
C991 C 0.27728 0.08119 0.94847 0.0
C992 C 0.28646 0.10343 0.92812 0.0
C993 C 0.27105 0.10188 0.92472 0.0
C994 C 0.26939 0.1129 0.91419 0.0
C995 C 0.2834 0.1259 0.90711 0.0
C996 C 0.29891 0.12751 0.91048 0.0
C997 C 0.30018 0.11612 0.92079 0.0
C998 C 0.25265 0.11077 0.9108 0.0
C999 C 0.31417 0.14142 0.90341 0.0
C1000 C 0.27129 0.20646 0.96816 0.0
C1001 C 0.28301 0.21457 0.95391 0.0
C1002 C 0.27597 0.19867 0.9279 0.0
C1003 C 0.29126 0.20081 0.92371 0.0
C1004 C 0.29249 0.18949 0.91305 0.0
C1005 C 0.27811 0.17577 0.9065 0.0
C1006 C 0.2627 0.17397 0.9102 0.0
C1007 C 0.26186 0.18562 0.9207 0.0
C1008 C 0.30912 0.19201 0.90901 0.0
C1009 C 0.24713 0.15951 0.90341 0.0
C1010 C 0.27666 0.20138 0.80194 0.0
C1011 C 0.29196 0.20373 0.8072 0.0
C1012 C 0.29343 0.19084 0.81429 0.0
C1013 C 0.27931 0.17532 0.81618 0.0
C1014 C 0.26406 0.17265 0.80991 0.0
C1015 C 0.26298 0.18573 0.80271 0.0
C1016 C 0.30998 0.19394 0.82032 0.0
C1017 C 0.24883 0.15617 0.81146 0.0
C1018 C 0.30438 0.08375 0.76673 0.0
C1019 C 0.29339 0.0856 0.77851 0.0
C1020 C 0.29699 0.10682 0.79923 0.0
C1021 C 0.30879 0.12055 0.80819 0.0
C1022 C 0.30472 0.13103 0.81691 0.0
C1023 C 0.28828 0.12741 0.81697 0.0
C1024 C 0.27618 0.11339 0.80806 0.0
C1025 C 0.28067 0.10323 0.79921 0.0
C1026 C 0.31805 0.146 0.826 0.0
C1027 C 0.25853 0.10914 0.80799 0.0
C1028 C 0.28189 0.13826 0.89688 0.0
C1029 C 0.28062 0.15074 0.90526 0.0
C1030 C 0.27918 0.16287 0.89657 0.0
C1031 C 0.27907 0.16266 0.87896 0.0
C1032 C 0.27769 0.17469 0.86982 0.0
C1033 C 0.2778 0.17449 0.8525 0.0
C1034 C 0.27954 0.16239 0.84364 0.0
C1035 C 0.28025 0.16244 0.82604 0.0
C1036 C 0.28251 0.15055 0.81766 0.0
C1037 C 0.2839 0.13839 0.8264 0.0
C1038 C 0.28265 0.1378 0.84395 0.0
C1039 C 0.28344 0.12542 0.85308 0.0
C1040 C 0.28293 0.12537 0.8704 0.0
C1041 C 0.28177 0.1378 0.87926 0.0
C1042 C 0.28047 0.15013 0.87028 0.0
C1043 C 0.28078 0.15004 0.8526 0.0
C1044 C 0.27201 0.23664 0.80617 0.0
C1045 C 0.28365 0.23026 0.80171 0.0
O1046 O 0.28872 0.0932 0.93845 0.0
O1047 O 0.30201 0.09757 0.79071 0.0
O1048 O 0.27463 0.21396 0.79636 0.0
O1049 O 0.27447 0.20899 0.93884 0.0
H1050 H 0.26554 0.07403 0.94139 0.0
H1051 H 0.26969 0.09736 0.96038 0.0
H1052 H 0.28619 0.09655 0.97116 0.0
H1053 H 0.26557 0.07949 0.97215 0.0
H1054 H 0.26024 0.0922 0.93024 0.0
H1055 H 0.312 0.11725 0.92346 0.0
H1056 H 0.25184 0.12106 0.91685 0.0
H1057 H 0.24281 0.09898 0.91559 0.0
H1058 H 0.25056 0.11119 0.89719 0.0
H1059 H 0.32541 0.14172 0.90832 0.0
H1060 H 0.31489 0.1534 0.90639 0.0
H1061 H 0.31376 0.14004 0.88964 0.0
H1062 H 0.29256 0.21089 0.95515 0.0
H1063 H 0.27788 0.21081 0.98038 0.0
H1064 H 0.26598 0.19288 0.96723 0.0
H1065 H 0.26118 0.20933 0.9676 0.0
H1066 H 0.30223 0.21132 0.92876 0.0
H1067 H 0.25013 0.18426 0.92383 0.0
H1068 H 0.31021 0.19137 0.89531 0.0
H1069 H 0.31067 0.18199 0.91453 0.0
H1070 H 0.31911 0.20402 0.91388 0.0
H1071 H 0.23611 0.15974 0.90769 0.0
H1072 H 0.24646 0.14783 0.90738 0.0
H1073 H 0.24708 0.15952 0.88958 0.0
H1074 H 0.2906 0.23131 0.81346 0.0
H1075 H 0.30274 0.21567 0.80596 0.0
H1076 H 0.25128 0.18396 0.79831 0.0
H1077 H 0.31026 0.19359 0.83414 0.0
H1078 H 0.31996 0.20607 0.81639 0.0
H1079 H 0.31228 0.1841 0.81551 0.0
H1080 H 0.23801 0.15589 0.80541 0.0
H1081 H 0.24633 0.1533 0.82484 0.0
H1082 H 0.25066 0.14636 0.80572 0.0
H1083 H 0.2833 0.07399 0.78344 0.0
H1084 H 0.30203 0.0708 0.76859 0.0
H1085 H 0.31688 0.08966 0.77292 0.0
H1086 H 0.29973 0.09188 0.74349 0.0
H1087 H 0.32135 0.12318 0.8081 0.0
H1088 H 0.27142 0.0925 0.79241 0.0
H1089 H 0.31643 0.14439 0.83964 0.0
H1090 H 0.31733 0.15715 0.82269 0.0
H1091 H 0.3304 0.14811 0.82309 0.0
H1092 H 0.25044 0.09724 0.80141 0.0
H1093 H 0.25723 0.11901 0.80177 0.0
H1094 H 0.25443 0.10846 0.82099 0.0
H1095 H 0.28078 0.15103 0.91879 0.0
H1096 H 0.27654 0.18442 0.87597 0.0
H1097 H 0.27667 0.18408 0.84616 0.0
H1098 H 0.2836 0.15102 0.80422 0.0
H1099 H 0.28452 0.11564 0.84692 0.0
H1100 H 0.28365 0.11557 0.87677 0.0
H1101 H 0.26377 0.23522 0.79545 0.0
H1102 H 0.27901 0.24984 0.81006 0.0
H1103 H 0.26437 0.22954 0.81671 0.0
C1104 C 0.805 0.07823 0.96233 0.0
C1105 C 0.79365 0.08057 0.95018 0.0
C1106 C 0.80775 0.0907 0.92412 0.0
C1107 C 0.80627 0.10471 0.92141 0.0
C1108 C 0.81728 0.11738 0.9113 0.0
C1109 C 0.83011 0.11604 0.9039 0.0
C1110 C 0.83134 0.10168 0.90628 0.0
C1111 C 0.81993 0.08905 0.91615 0.0
C1112 C 0.81532 0.1323 0.90868 0.0
C1113 C 0.8449 0.09985 0.8987 0.0
C1114 C 0.93264 0.2303 0.95482 0.0
C1115 C 0.9166 0.2161 0.94959 0.0
C1116 C 0.90532 0.19408 0.92823 0.0
C1117 C 0.90849 0.18374 0.91819 0.0
C1118 C 0.89624 0.1715 0.90788 0.0
C1119 C 0.88052 0.16994 0.90721 0.0
C1120 C 0.87724 0.18045 0.91727 0.0
C1121 C 0.88958 0.19223 0.92785 0.0
C1122 C 0.90012 0.16017 0.89784 0.0
C1123 C 0.86066 0.17921 0.91697 0.0
C1124 C 0.89644 0.20293 0.79588 0.0
C1125 C 0.90226 0.19276 0.80228 0.0
C1126 C 0.89252 0.17954 0.81258 0.0
C1127 C 0.8769 0.17678 0.81697 0.0
C1128 C 0.87143 0.18755 0.81124 0.0
C1129 C 0.8812 0.20035 0.80063 0.0
C1130 C 0.89868 0.16821 0.81832 0.0
C1131 C 0.855 0.18523 0.81586 0.0
C1132 C 0.81813 0.08518 0.75463 0.0
C1133 C 0.80333 0.07654 0.76587 0.0
C1134 C 0.81038 0.09777 0.78793 0.0
C1135 C 0.82343 0.09662 0.79526 0.0
C1136 C 0.83351 0.108 0.80767 0.0
C1137 C 0.83027 0.12054 0.81309 0.0
C1138 C 0.81657 0.12109 0.80645 0.0
C1139 C 0.80685 0.10973 0.79391 0.0
C1140 C 0.84798 0.10699 0.81457 0.0
C1141 C 0.81253 0.13408 0.81214 0.0
C1142 C 0.8428 0.13012 0.89464 0.0
C1143 C 0.8554 0.14293 0.90398 0.0
C1144 C 0.86739 0.15701 0.89638 0.0
C1145 C 0.8668 0.15849 0.87888 0.0
C1146 C 0.87813 0.17284 0.87087 0.0
C1147 C 0.87766 0.17404 0.85361 0.0
C1148 C 0.86597 0.16086 0.8437 0.0
C1149 C 0.86561 0.16179 0.82613 0.0
C1150 C 0.85389 0.14837 0.8167 0.0
C1151 C 0.84218 0.13409 0.82425 0.0
C1152 C 0.84207 0.13305 0.84181 0.0
C1153 C 0.83014 0.11911 0.84988 0.0
C1154 C 0.83021 0.11819 0.86719 0.0
C1155 C 0.84239 0.13105 0.87706 0.0
C1156 C 0.85447 0.1453 0.86918 0.0
C1157 C 0.85418 0.14639 0.85155 0.0
C1158 C 0.92323 0.22886 0.76286 0.0
C1159 C 0.92025 0.2201 0.77892 0.0
O1160 O 0.79736 0.07843 0.93401 0.0
O1161 O 0.80111 0.08797 0.77492 0.0
O1162 O 0.90477 0.21499 0.78479 0.0
O1163 O 0.91774 0.20566 0.93795 0.0
H1164 H 0.79561 0.09324 0.95219 0.0
H1165 H 0.81789 0.08728 0.95977 0.0
H1166 H 0.80328 0.06561 0.96093 0.0
H1167 H 0.80257 0.08022 0.9754 0.0
H1168 H 0.79643 0.10568 0.92708 0.0
H1169 H 0.82077 0.07803 0.91814 0.0
H1170 H 0.82553 0.14313 0.91514 0.0
H1171 H 0.80365 0.1306 0.91357 0.0
H1172 H 0.81584 0.13506 0.89521 0.0
H1173 H 0.8445 0.08819 0.90227 0.0
H1174 H 0.85689 0.11036 0.90273 0.0
H1175 H 0.84401 0.10009 0.88491 0.0
H1176 H 0.90815 0.20943 0.95984 0.0
H1177 H 0.93398 0.22845 0.96849 0.0
H1178 H 0.93163 0.25121 0.94568 0.0
H1179 H 0.94225 0.22717 0.95095 0.0
H1180 H 0.92062 0.18518 0.9186 0.0
H1181 H 0.88684 0.19999 0.9357 0.0
H1182 H 0.8904 0.14715 0.89911 0.0
H1183 H 0.91199 0.16128 0.90173 0.0
H1184 H 0.90068 0.16323 0.88446 0.0
H1185 H 0.86095 0.19013 0.92295 0.0
H1186 H 0.85205 0.16812 0.92382 0.0
H1187 H 0.85587 0.17786 0.90397 0.0
H1188 H 0.93004 0.22608 0.78873 0.0
H1189 H 0.91417 0.1948 0.79897 0.0
H1190 H 0.87687 0.20833 0.79575 0.0
H1191 H 0.89943 0.1684 0.83214 0.0
H1192 H 0.9109 0.17174 0.81344 0.0
H1193 H 0.88999 0.15537 0.81418 0.0
H1194 H 0.85378 0.19618 0.81291 0.0
H1195 H 0.85293 0.18272 0.82936 0.0
H1196 H 0.84532 0.17446 0.80881 0.0
H1197 H 0.80529 0.06844 0.77457 0.0
H1198 H 0.8193 0.07594 0.74682 0.0
H1199 H 0.82957 0.09212 0.76216 0.0
H1200 H 0.81689 0.09399 0.74634 0.0
H1201 H 0.82611 0.08717 0.79114 0.0
H1202 H 0.79663 0.1104 0.78836 0.0
H1203 H 0.84725 0.10591 0.82832 0.0
H1204 H 0.85941 0.11849 0.81181 0.0
H1205 H 0.84871 0.09635 0.80927 0.0
H1206 H 0.80016 0.13128 0.8078 0.0
H1207 H 0.82155 0.14614 0.8071 0.0
H1208 H 0.81331 0.13528 0.82595 0.0
H1209 H 0.85582 0.14196 0.91743 0.0
H1210 H 0.88748 0.18334 0.87786 0.0
H1211 H 0.88669 0.18536 0.84811 0.0
H1212 H 0.85378 0.14913 0.80321 0.0
H1213 H 0.82059 0.10878 0.84287 0.0
H1214 H 0.8207 0.10719 0.87274 0.0
H1215 H 0.93315 0.24182 0.76594 0.0
H1216 H 0.91345 0.23239 0.76123 0.0
H1217 H 0.92625 0.21313 0.74546 0.0
C1218 C 0.79786 0.72211 0.96406 0.0
C1219 C 0.78523 0.71559 0.94963 0.0
C1220 C 0.79796 0.70475 0.9304 0.0
C1221 C 0.81043 0.72008 0.92513 0.0
C1222 C 0.82279 0.72105 0.91494 0.0
C1223 C 0.82268 0.70643 0.90993 0.0
C1224 C 0.80995 0.69099 0.91487 0.0
C1225 C 0.7977 0.69037 0.92499 0.0
C1226 C 0.83614 0.73771 0.90972 0.0
C1227 C 0.80946 0.67518 0.90966 0.0
C1228 C 0.9166 0.72477 0.97458 0.0
C1229 C 0.91284 0.7125 0.96015 0.0
C1230 C 0.9026 0.71763 0.93387 0.0
C1231 C 0.88997 0.70164 0.92995 0.0
C1232 C 0.87745 0.69907 0.91849 0.0
C1233 C 0.87762 0.71275 0.91086 0.0
C1234 C 0.8907 0.72881 0.91433 0.0
C1235 C 0.90317 0.73099 0.92562 0.0
C1236 C 0.86388 0.68175 0.91477 0.0
C1237 C 0.89125 0.74372 0.90653 0.0
C1238 C 0.90103 0.71431 0.79858 0.0
C1239 C 0.88768 0.69895 0.80181 0.0
C1240 C 0.87546 0.69741 0.81252 0.0
C1241 C 0.87653 0.7117 0.81998 0.0
C1242 C 0.89028 0.7273 0.81718 0.0
C1243 C 0.90255 0.72842 0.8067 0.0
C1244 C 0.86121 0.68052 0.81547 0.0
C1245 C 0.89183 0.7428 0.82497 0.0
C1246 C 0.76194 0.70066 0.81062 0.0
C1247 C 0.7712 0.70621 0.79433 0.0
C1248 C 0.79383 0.70106 0.80078 0.0
C1249 C 0.7971 0.68806 0.8021 0.0
C1250 C 0.81052 0.68976 0.81154 0.0
C1251 C 0.82131 0.7051 0.81939 0.0
C1252 C 0.81849 0.71856 0.81751 0.0
C1253 C 0.80465 0.71634 0.80844 0.0
C1254 C 0.81313 0.67513 0.81309 0.0
C1255 C 0.83009 0.7353 0.82507 0.0
C1256 C 0.83625 0.70738 0.90009 0.0
C1257 C 0.84995 0.7091 0.90882 0.0
C1258 C 0.86341 0.71044 0.90048 0.0
C1259 C 0.86328 0.71007 0.88285 0.0
C1260 C 0.87653 0.71125 0.87402 0.0
C1261 C 0.87638 0.71124 0.85666 0.0
C1262 C 0.86299 0.71009 0.8475 0.0
C1263 C 0.86281 0.71036 0.82989 0.0
C1264 C 0.84918 0.70891 0.82118 0.0
C1265 C 0.83552 0.70704 0.82954 0.0
C1266 C 0.83548 0.70683 0.84716 0.0
C1267 C 0.82194 0.7049 0.85601 0.0
C1268 C 0.82216 0.70512 0.87334 0.0
C1269 C 0.83584 0.70698 0.88249 0.0
C1270 C 0.84947 0.70848 0.87384 0.0
C1271 C 0.84933 0.70849 0.85615 0.0
C1272 C 0.91957 0.73759 0.76902 0.0
C1273 C 0.92513 0.7284 0.78088 0.0
O1274 O 0.78608 0.7032 0.94081 0.0
O1275 O 0.78023 0.69832 0.79197 0.0
O1276 O 0.91185 0.71479 0.78736 0.0
O1277 O 0.91458 0.72064 0.94529 0.0
H1278 H 0.78748 0.72581 0.94115 0.0
H1279 H 0.81041 0.72765 0.95931 0.0
H1280 H 0.79591 0.71197 0.97251 0.0
H1281 H 0.7969 0.73178 0.97132 0.0
H1282 H 0.81072 0.73135 0.92898 0.0
H1283 H 0.78799 0.6786 0.92902 0.0
H1284 H 0.84806 0.73986 0.91483 0.0
H1285 H 0.83415 0.74789 0.91409 0.0
H1286 H 0.83687 0.73804 0.89592 0.0
H1287 H 0.79856 0.66413 0.9143 0.0
H1288 H 0.82058 0.6752 0.91449 0.0
H1289 H 0.80941 0.67427 0.89585 0.0
H1290 H 0.90008 0.70237 0.96155 0.0
H1291 H 0.91486 0.71861 0.98674 0.0
H1292 H 0.90822 0.72993 0.9738 0.0
H1293 H 0.92936 0.73508 0.97405 0.0
H1294 H 0.88989 0.69118 0.93575 0.0
H1295 H 0.91316 0.74325 0.92853 0.0
H1296 H 0.86182 0.6796 0.9011 0.0
H1297 H 0.85241 0.68011 0.92013 0.0
H1298 H 0.86653 0.67235 0.92007 0.0
H1299 H 0.902 0.75541 0.91098 0.0
H1300 H 0.88 0.74416 0.90943 0.0
H1301 H 0.8917 0.74282 0.89277 0.0
H1302 H 0.93281 0.73684 0.79123 0.0
H1303 H 0.88672 0.68812 0.79564 0.0
H1304 H 0.91308 0.74035 0.80473 0.0
H1305 H 0.85825 0.67894 0.82889 0.0
H1306 H 0.86361 0.67057 0.81126 0.0
H1307 H 0.85035 0.67914 0.80845 0.0
H1308 H 0.90272 0.75407 0.82067 0.0
H1309 H 0.89276 0.74232 0.83873 0.0
H1310 H 0.88078 0.74372 0.82194 0.0
H1311 H 0.7794 0.71976 0.7949 0.0
H1312 H 0.75462 0.70687 0.8126 0.0
H1313 H 0.77065 0.70394 0.82135 0.0
H1314 H 0.75366 0.68711 0.81033 0.0
H1315 H 0.7888 0.67638 0.796 0.0
H1316 H 0.80259 0.72668 0.80725 0.0
H1317 H 0.81605 0.6737 0.82622 0.0
H1318 H 0.82362 0.67716 0.80546 0.0
H1319 H 0.80228 0.6635 0.80869 0.0
H1320 H 0.82756 0.745 0.82041 0.0
H1321 H 0.84289 0.73883 0.82229 0.0
H1322 H 0.82897 0.73487 0.83882 0.0
H1323 H 0.8502 0.70954 0.92235 0.0
H1324 H 0.88718 0.71224 0.88044 0.0
H1325 H 0.88694 0.71223 0.85051 0.0
H1326 H 0.84914 0.70908 0.80766 0.0
H1327 H 0.81103 0.70334 0.84965 0.0
H1328 H 0.81146 0.70378 0.87949 0.0
H1329 H 0.91143 0.72919 0.7589 0.0
H1330 H 0.93032 0.74804 0.76336 0.0
H1331 H 0.91284 0.7427 0.77574 0.0
C1332 C 0.87572 0.62662 0.38295 0.0
C1333 C 0.88645 0.63839 0.397 0.0
C1334 C 0.87 0.63128 0.42185 0.0
C1335 C 0.87084 0.64626 0.42622 0.0
C1336 C 0.85907 0.64662 0.4364 0.0
C1337 C 0.84612 0.63167 0.44221 0.0
C1338 C 0.84539 0.61656 0.43795 0.0
C1339 C 0.85754 0.61661 0.42806 0.0
C1340 C 0.86045 0.66299 0.44093 0.0
C1341 C 0.8317 0.60035 0.44372 0.0
C1342 C 0.74129 0.64988 0.40987 0.0
C1343 C 0.75022 0.64075 0.41303 0.0
C1344 C 0.77565 0.64623 0.42759 0.0
C1345 C 0.77184 0.62971 0.42879 0.0
C1346 C 0.7826 0.62562 0.43706 0.0
C1347 C 0.79737 0.6383 0.44423 0.0
C1348 C 0.80124 0.65492 0.44288 0.0
C1349 C 0.79031 0.65864 0.43456 0.0
C1350 C 0.77817 0.60779 0.4383 0.0
C1351 C 0.81687 0.66878 0.45036 0.0
C1352 C 0.77029 0.62823 0.55339 0.0
C1353 C 0.76775 0.61379 0.54501 0.0
C1354 C 0.78005 0.61374 0.53545 0.0
C1355 C 0.79509 0.62847 0.53392 0.0
C1356 C 0.79767 0.64301 0.54226 0.0
C1357 C 0.78527 0.64264 0.55199 0.0
C1358 C 0.77697 0.59793 0.52696 0.0
C1359 C 0.8135 0.65897 0.54086 0.0
C1360 C 0.91074 0.63126 0.54441 0.0
C1361 C 0.90318 0.63916 0.55535 0.0
C1362 C 0.87401 0.62843 0.54927 0.0
C1363 C 0.86 0.61349 0.54525 0.0
C1364 C 0.84661 0.61307 0.53683 0.0
C1365 C 0.84724 0.62803 0.53256 0.0
C1366 C 0.8611 0.64321 0.53721 0.0
C1367 C 0.87431 0.64326 0.5456 0.0
C1368 C 0.83192 0.59669 0.53227 0.0
C1369 C 0.86197 0.65938 0.53321 0.0
C1370 C 0.83327 0.63183 0.45255 0.0
C1371 C 0.82102 0.63366 0.44445 0.0
C1372 C 0.80878 0.63433 0.4534 0.0
C1373 C 0.80836 0.63264 0.4709 0.0
C1374 C 0.79601 0.63291 0.48023 0.0
C1375 C 0.79587 0.63155 0.49749 0.0
C1376 C 0.8081 0.62992 0.50609 0.0
C1377 C 0.80813 0.62865 0.52365 0.0
C1378 C 0.82084 0.62769 0.53184 0.0
C1379 C 0.83355 0.62788 0.52298 0.0
C1380 C 0.83348 0.62865 0.50539 0.0
C1381 C 0.84593 0.62856 0.49606 0.0
C1382 C 0.84586 0.62954 0.47877 0.0
C1383 C 0.83337 0.63068 0.47012 0.0
C1384 C 0.82076 0.63091 0.47929 0.0
C1385 C 0.82073 0.62974 0.49693 0.0
C1386 C 0.73254 0.61612 0.54904 0.0
C1387 C 0.74264 0.61676 0.56449 0.0
O1388 O 0.88132 0.63064 0.41214 0.0
O1389 O 0.88674 0.62798 0.55699 0.0
O1390 O 0.75877 0.62889 0.56286 0.0
O1391 O 0.76564 0.65086 0.41995 0.0
H1392 H 0.8852 0.64962 0.39654 0.0
H1393 H 0.86278 0.62316 0.38479 0.0
H1394 H 0.8767 0.61523 0.38283 0.0
H1395 H 0.87942 0.63262 0.37069 0.0
H1396 H 0.88086 0.65769 0.42194 0.0
H1397 H 0.85716 0.60514 0.42478 0.0
H1398 H 0.85056 0.66406 0.43438 0.0
H1399 H 0.87234 0.67354 0.43739 0.0
H1400 H 0.85895 0.66384 0.45454 0.0
H1401 H 0.83202 0.58964 0.43798 0.0
H1402 H 0.81974 0.59941 0.44062 0.0
H1403 H 0.8326 0.59969 0.45746 0.0
H1404 H 0.74999 0.63268 0.40259 0.0
H1405 H 0.73949 0.64928 0.39591 0.0
H1406 H 0.75061 0.66341 0.41019 0.0
H1407 H 0.72141 0.63934 0.42655 0.0
H1408 H 0.76052 0.62 0.42335 0.0
H1409 H 0.79311 0.67133 0.43354 0.0
H1410 H 0.78777 0.60591 0.43256 0.0
H1411 H 0.76625 0.59936 0.43205 0.0
H1412 H 0.77761 0.60448 0.45161 0.0
H1413 H 0.81826 0.68108 0.44783 0.0
H1414 H 0.82747 0.66827 0.44526 0.0
H1415 H 0.81715 0.66734 0.46406 0.0
H1416 H 0.74192 0.6046 0.56602 0.0
H1417 H 0.75626 0.60249 0.54585 0.0
H1418 H 0.78716 0.6537 0.55847 0.0
H1419 H 0.77651 0.59914 0.51325 0.0
H1420 H 0.76532 0.58719 0.53072 0.0
H1421 H 0.78711 0.59547 0.52994 0.0
H1422 H 0.81298 0.66953 0.54669 0.0
H1423 H 0.81663 0.66166 0.52756 0.0
H1424 H 0.82347 0.65779 0.5471 0.0
H1425 H 0.90515 0.65031 0.54863 0.0
H1426 H 0.92408 0.63963 0.54344 0.0
H1427 H 0.90518 0.62892 0.53166 0.0
H1428 H 0.90837 0.61927 0.54948 0.0
H1429 H 0.85973 0.6021 0.54842 0.0
H1430 H 0.88468 0.65493 0.54941 0.0
H1431 H 0.82994 0.59561 0.51853 0.0
H1432 H 0.82087 0.59592 0.53784 0.0
H1433 H 0.83326 0.58614 0.53659 0.0
H1434 H 0.87342 0.67014 0.53807 0.0
H1435 H 0.85144 0.65982 0.53861 0.0
H1436 H 0.8612 0.66043 0.51949 0.0
H1437 H 0.82124 0.63497 0.43102 0.0
H1438 H 0.7863 0.63417 0.4743 0.0
H1439 H 0.78608 0.63188 0.504 0.0
H1440 H 0.82094 0.62699 0.54532 0.0
H1441 H 0.85587 0.62773 0.50203 0.0
H1442 H 0.8558 0.62948 0.47228 0.0
H1443 H 0.7196 0.60646 0.55034 0.0
H1444 H 0.73722 0.6131 0.53772 0.0
H1445 H 0.73315 0.6282 0.54728 0.0
C1446 C 0.40808 0.27582 0.39457 0.0
C1447 C 0.39204 0.26732 0.40396 0.0
C1448 C 0.39083 0.25009 0.42728 0.0
C1449 C 0.37496 0.23678 0.42486 0.0
C1450 C 0.36997 0.2219 0.4331 0.0
C1451 C 0.38122 0.22016 0.44362 0.0
C1452 C 0.39737 0.23342 0.44567 0.0
C1453 C 0.40181 0.24836 0.4378 0.0
C1454 C 0.35261 0.20813 0.43073 0.0
C1455 C 0.40996 0.23193 0.45623 0.0
C1456 C 0.37722 0.10358 0.40612 0.0
C1457 C 0.38155 0.11882 0.41592 0.0
C1458 C 0.37074 0.13695 0.42342 0.0
C1459 C 0.38369 0.14697 0.43453 0.0
C1460 C 0.38365 0.15985 0.44363 0.0
C1461 C 0.3702 0.16256 0.44195 0.0
C1462 C 0.35708 0.15244 0.4309 0.0
C1463 C 0.3576 0.13985 0.42166 0.0
C1464 C 0.39805 0.1706 0.45503 0.0
C1465 C 0.34248 0.15487 0.42891 0.0
C1466 C 0.34677 0.12826 0.54989 0.0
C1467 C 0.36219 0.1369 0.54272 0.0
C1468 C 0.36651 0.15114 0.53352 0.0
C1469 C 0.35485 0.15628 0.53059 0.0
C1470 C 0.3391 0.14719 0.53725 0.0
C1471 C 0.33539 0.13346 0.54702 0.0
C1472 C 0.38365 0.16077 0.52719 0.0
C1473 C 0.32622 0.15206 0.53427 0.0
C1474 C 0.38594 0.28269 0.55258 0.0
C1475 C 0.37334 0.26671 0.56067 0.0
C1476 C 0.3763 0.24289 0.55244 0.0
C1477 C 0.38869 0.23931 0.54902 0.0
C1478 C 0.38562 0.22551 0.53922 0.0
C1479 C 0.36964 0.2149 0.53289 0.0
C1480 C 0.3569 0.21814 0.53674 0.0
C1481 C 0.36033 0.23208 0.54656 0.0
C1482 C 0.39946 0.2223 0.53556 0.0
C1483 C 0.33967 0.20685 0.53047 0.0
C1484 C 0.37597 0.2046 0.45274 0.0
C1485 C 0.37467 0.19099 0.44392 0.0
C1486 C 0.36998 0.17605 0.45176 0.0
C1487 C 0.36633 0.17452 0.4689 0.0
C1488 C 0.36099 0.15953 0.47707 0.0
C1489 C 0.35823 0.15837 0.4941 0.0
C1490 C 0.36099 0.17224 0.50368 0.0
C1491 C 0.35925 0.1715 0.52118 0.0
C1492 C 0.36203 0.18556 0.53025 0.0
C1493 C 0.36629 0.20035 0.52234 0.0
C1494 C 0.36798 0.2013 0.50486 0.0
C1495 C 0.37202 0.21593 0.49647 0.0
C1496 C 0.37419 0.2169 0.47934 0.0
C1497 C 0.37279 0.20342 0.46999 0.0
C1498 C 0.36816 0.18839 0.47811 0.0
C1499 C 0.36563 0.18729 0.49555 0.0
C1500 C 0.347 0.09903 0.58013 0.0
C1501 C 0.3514 0.10746 0.56385 0.0
O1502 O 0.39575 0.26489 0.42013 0.0
O1503 O 0.38016 0.25653 0.56191 0.0
O1504 O 0.34248 0.11523 0.56001 0.0
O1505 O 0.37049 0.12448 0.41423 0.0
H1506 H 0.38417 0.25535 0.39733 0.0
H1507 H 0.41494 0.26912 0.39653 0.0
H1508 H 0.41582 0.28873 0.39917 0.0
H1509 H 0.40569 0.27563 0.38095 0.0
H1510 H 0.36631 0.23813 0.41693 0.0
H1511 H 0.41402 0.25872 0.43961 0.0
H1512 H 0.3525 0.19772 0.42381 0.0
H1513 H 0.34491 0.21205 0.42366 0.0
H1514 H 0.34709 0.20351 0.44301 0.0
H1515 H 0.42254 0.24189 0.45376 0.0
H1516 H 0.40927 0.21985 0.45393 0.0
H1517 H 0.40759 0.23271 0.4696 0.0
H1518 H 0.39453 0.1287 0.41503 0.0
H1519 H 0.38731 0.10728 0.39698 0.0
H1520 H 0.36787 0.1023 0.39637 0.0
H1521 H 0.37236 0.08558 0.42467 0.0
H1522 H 0.39396 0.14492 0.43613 0.0
H1523 H 0.34764 0.13207 0.41312 0.0
H1524 H 0.40233 0.18381 0.45278 0.0
H1525 H 0.40841 0.16826 0.45332 0.0
H1526 H 0.3943 0.16818 0.46819 0.0
H1527 H 0.33262 0.14504 0.42101 0.0
H1528 H 0.34627 0.16694 0.42311 0.0
H1529 H 0.33754 0.15509 0.44131 0.0
H1530 H 0.35224 0.10022 0.55318 0.0
H1531 H 0.37105 0.13286 0.5445 0.0
H1532 H 0.32351 0.12669 0.55253 0.0
H1533 H 0.38356 0.15821 0.51366 0.0
H1534 H 0.39207 0.15734 0.53357 0.0
H1535 H 0.38853 0.17421 0.52899 0.0
H1536 H 0.31391 0.14218 0.53773 0.0
H1537 H 0.3258 0.15506 0.52098 0.0
H1538 H 0.32929 0.16325 0.54189 0.0
H1539 H 0.36229 0.26123 0.55239 0.0
H1540 H 0.38033 0.29016 0.54858 0.0
H1541 H 0.39065 0.27973 0.54123 0.0
H1542 H 0.3964 0.29005 0.56133 0.0
H1543 H 0.4009 0.24756 0.55389 0.0
H1544 H 0.35046 0.23423 0.54985 0.0
H1545 H 0.40104 0.22229 0.52189 0.0
H1546 H 0.39651 0.20995 0.54007 0.0
H1547 H 0.41117 0.23167 0.54153 0.0
H1548 H 0.33112 0.21113 0.53441 0.0
H1549 H 0.33533 0.19426 0.5352 0.0
H1550 H 0.33937 0.20602 0.51665 0.0
H1551 H 0.37761 0.19213 0.43081 0.0
H1552 H 0.35896 0.14852 0.47038 0.0
H1553 H 0.35416 0.14652 0.49972 0.0
H1554 H 0.36096 0.185 0.5437 0.0
H1555 H 0.37361 0.22681 0.50307 0.0
H1556 H 0.37726 0.22848 0.47357 0.0
H1557 H 0.36871 0.11224 0.59532 0.0
H1558 H 0.34155 0.08554 0.57681 0.0
H1559 H 0.33497 0.09791 0.58363 0.0
C1560 C 0.86356 0.25454 0.38106 0.0
C1561 C 0.8745 0.25975 0.39683 0.0
C1562 C 0.86167 0.23529 0.41449 0.0
C1563 C 0.84804 0.23681 0.41876 0.0
C1564 C 0.83602 0.22534 0.42909 0.0
C1565 C 0.83756 0.21202 0.43524 0.0
C1566 C 0.85119 0.2104 0.43096 0.0
C1567 C 0.86308 0.22209 0.42068 0.0
C1568 C 0.82163 0.22743 0.43344 0.0
C1569 C 0.85316 0.19629 0.43724 0.0
C1570 C 0.72366 0.11031 0.44221 0.0
C1571 C 0.72801 0.11153 0.42374 0.0
C1572 C 0.7575 0.13107 0.42681 0.0
C1573 C 0.77251 0.13167 0.42889 0.0
C1574 C 0.78629 0.14596 0.43506 0.0
C1575 C 0.78503 0.16008 0.43894 0.0
C1576 C 0.77012 0.15991 0.43587 0.0
C1577 C 0.75646 0.14537 0.42989 0.0
C1578 C 0.80203 0.14575 0.43805 0.0
C1579 C 0.76849 0.17491 0.43949 0.0
C1580 C 0.76437 0.14315 0.54694 0.0
C1581 C 0.77778 0.14144 0.54239 0.0
C1582 C 0.7905 0.1537 0.53333 0.0
C1583 C 0.78984 0.16797 0.52883 0.0
C1584 C 0.77667 0.17002 0.53398 0.0
C1585 C 0.76416 0.15761 0.54313 0.0
C1586 C 0.80458 0.15133 0.52838 0.0
C1587 C 0.77566 0.18515 0.52951 0.0
C1588 C 0.89741 0.28164 0.53909 0.0
C1589 C 0.88892 0.27197 0.55457 0.0
C1590 C 0.87048 0.24389 0.5434 0.0
C1591 C 0.86875 0.22824 0.54133 0.0
C1592 C 0.85536 0.21568 0.53249 0.0
C1593 C 0.8432 0.21881 0.52577 0.0
C1594 C 0.84472 0.23456 0.52798 0.0
C1595 C 0.85845 0.24702 0.53659 0.0
C1596 C 0.85419 0.19905 0.53035 0.0
C1597 C 0.83181 0.23821 0.52127 0.0
C1598 C 0.82482 0.19973 0.44605 0.0
C1599 C 0.8113 0.18631 0.43833 0.0
C1600 C 0.79879 0.17439 0.44774 0.0
C1601 C 0.79962 0.17587 0.46533 0.0
C1602 C 0.78719 0.16411 0.47515 0.0
C1603 C 0.78807 0.16565 0.49242 0.0
C1604 C 0.80151 0.17891 0.5006 0.0
C1605 C 0.8026 0.18043 0.51818 0.0
C1606 C 0.81616 0.19369 0.52594 0.0
C1607 C 0.82885 0.20551 0.5166 0.0
C1608 C 0.82797 0.20422 0.49898 0.0
C1609 C 0.84052 0.21584 0.48917 0.0
C1610 C 0.83947 0.21449 0.47184 0.0
C1611 C 0.82595 0.20132 0.46365 0.0
C1612 C 0.81325 0.18938 0.4733 0.0
C1613 C 0.81422 0.19088 0.49097 0.0
C1614 C 0.73077 0.1095 0.53869 0.0
C1615 C 0.74425 0.11447 0.55207 0.0
O1616 O 0.87361 0.24606 0.40445 0.0
O1617 O 0.8839 0.25542 0.55204 0.0
O1618 O 0.75164 0.13129 0.55528 0.0
O1619 O 0.74439 0.11641 0.4221 0.0
H1620 H 0.87042 0.26623 0.40555 0.0
H1621 H 0.85062 0.24645 0.38423 0.0
H1622 H 0.86709 0.24767 0.37222 0.0
H1623 H 0.86455 0.26555 0.37479 0.0
H1624 H 0.84658 0.24683 0.41408 0.0
H1625 H 0.87357 0.22095 0.41734 0.0
H1626 H 0.81018 0.21656 0.42878 0.0
H1627 H 0.8224 0.23869 0.42804 0.0
H1628 H 0.82088 0.22809 0.44719 0.0
H1629 H 0.8643 0.19657 0.43253 0.0
H1630 H 0.84236 0.1844 0.43335 0.0
H1631 H 0.85383 0.19674 0.45107 0.0
H1632 H 0.72529 0.12056 0.4176 0.0
H1633 H 0.71042 0.10587 0.44344 0.0
H1634 H 0.73044 0.12254 0.44857 0.0
H1635 H 0.72675 0.10167 0.44863 0.0
H1636 H 0.77324 0.12065 0.42625 0.0
H1637 H 0.74501 0.14522 0.42792 0.0
H1638 H 0.80553 0.148 0.4515 0.0
H1639 H 0.81196 0.15581 0.43109 0.0
H1640 H 0.80108 0.13385 0.43415 0.0
H1641 H 0.75678 0.17349 0.43454 0.0
H1642 H 0.77872 0.18597 0.43398 0.0
H1643 H 0.76915 0.17709 0.45317 0.0
H1644 H 0.75312 0.11101 0.54721 0.0
H1645 H 0.77851 0.13071 0.54605 0.0
H1646 H 0.7539 0.15894 0.54697 0.0
H1647 H 0.80495 0.15075 0.51458 0.0
H1648 H 0.80367 0.13989 0.53346 0.0
H1649 H 0.81626 0.16201 0.53287 0.0
H1650 H 0.76471 0.18498 0.53462 0.0
H1651 H 0.7753 0.18607 0.51574 0.0
H1652 H 0.78672 0.19634 0.53435 0.0
H1653 H 0.87823 0.27355 0.55721 0.0
H1654 H 0.90143 0.29491 0.54101 0.0
H1655 H 0.8889 0.27703 0.52811 0.0
H1656 H 0.90821 0.28028 0.53636 0.0
H1657 H 0.87807 0.22592 0.54662 0.0
H1658 H 0.85957 0.25906 0.53793 0.0
H1659 H 0.85184 0.19504 0.51704 0.0
H1660 H 0.84379 0.18982 0.53752 0.0
H1661 H 0.86546 0.19913 0.53477 0.0
H1662 H 0.83398 0.25054 0.5254 0.0
H1663 H 0.81959 0.22872 0.52539 0.0
H1664 H 0.83162 0.23774 0.50745 0.0
H1665 H 0.81055 0.1851 0.42485 0.0
H1666 H 0.77658 0.15357 0.46961 0.0
H1667 H 0.77809 0.15625 0.49928 0.0
H1668 H 0.81696 0.19469 0.53944 0.0
H1669 H 0.85128 0.22616 0.49478 0.0
H1670 H 0.84945 0.22385 0.46495 0.0
H1671 H 0.72162 0.11297 0.54266 0.0
H1672 H 0.72455 0.096 0.5362 0.0
H1673 H 0.73615 0.11585 0.52691 0.0
C1674 C 0.00194 0.44427 0.2874 0.0
C1675 C 0.99551 0.43336 0.27161 0.0
C1676 C 0.99969 0.45326 0.24985 0.0
C1677 C 0.98358 0.44976 0.24678 0.0
C1678 C 0.98033 0.46071 0.23785 0.0
C1679 C 0.99345 0.47547 0.23199 0.0
C1680 C 0.00969 0.47906 0.23515 0.0
C1681 C 0.01257 0.46774 0.24381 0.0
C1682 C 0.96286 0.45638 0.23444 0.0
C1683 C 0.02397 0.4948 0.22929 0.0
C1684 C 0.96492 0.54051 0.29602 0.0
C1685 C 0.97639 0.55171 0.28277 0.0
C1686 C 0.97243 0.53847 0.25557 0.0
C1687 C 0.98861 0.54359 0.25142 0.0
C1688 C 0.9922 0.53435 0.2401 0.0
C1689 C 0.97934 0.5197 0.23285 0.0
C1690 C 0.96298 0.5149 0.23652 0.0
C1691 C 0.95974 0.52453 0.24767 0.0
C1692 C 0.00975 0.54002 0.23617 0.0
C1693 C 0.94896 0.49931 0.22911 0.0
C1694 C 0.96473 0.53819 0.12795 0.0
C1695 C 0.98109 0.54476 0.13312 0.0
C1696 C 0.98668 0.53464 0.14008 0.0
C1697 C 0.97555 0.5177 0.14223 0.0
C1698 C 0.95924 0.51094 0.13622 0.0
C1699 C 0.95412 0.52127 0.1289 0.0
C1700 C 0.00434 0.54216 0.14559 0.0
C1701 C 0.94706 0.49291 0.13807 0.0
C1702 C 0.00422 0.42367 0.14433 0.0
C1703 C 0.99381 0.42186 0.12875 0.0
C1704 C 0.9956 0.44883 0.12778 0.0
C1705 C 0.00814 0.4652 0.12874 0.0
C1706 C 0.00562 0.47752 0.13591 0.0
C1707 C 0.99005 0.47334 0.14189 0.0
C1708 C 0.97704 0.45698 0.13991 0.0
C1709 C 0.97996 0.44487 0.13291 0.0
C1710 C 0.01974 0.49485 0.13774 0.0
C1711 C 0.96015 0.45217 0.1457 0.0
C1712 C 0.99012 0.48696 0.22223 0.0
C1713 C 0.98685 0.49796 0.23094 0.0
C1714 C 0.98306 0.50874 0.22255 0.0
C1715 C 0.98259 0.50865 0.20493 0.0
C1716 C 0.97868 0.5192 0.19608 0.0
C1717 C 0.9779 0.51873 0.17873 0.0
C1718 C 0.98132 0.50792 0.16953 0.0
C1719 C 0.98056 0.50734 0.15187 0.0
C1720 C 0.98382 0.49625 0.14318 0.0
C1721 C 0.98771 0.48558 0.15166 0.0
C1722 C 0.98864 0.48608 0.16928 0.0
C1723 C 0.99253 0.47551 0.17818 0.0
C1724 C 0.99298 0.47574 0.19549 0.0
C1725 C 0.98978 0.4867 0.20462 0.0
C1726 C 0.98599 0.49759 0.19594 0.0
C1727 C 0.98541 0.49727 0.17823 0.0
C1728 C 0.94649 0.56249 0.13394 0.0
C1729 C 0.96238 0.56294 0.12937 0.0
O1730 O 0.00333 0.44274 0.25794 0.0
O1731 O 0.99899 0.43719 0.12185 0.0
O1732 O 0.95879 0.54789 0.12227 0.0
O1733 O 0.96876 0.54666 0.26721 0.0
H1734 H 0.98213 0.42832 0.2705 0.0
H1735 H 0.99969 0.45484 0.28639 0.0
H1736 H 0.01527 0.44913 0.28912 0.0
H1737 H 0.99563 0.43725 0.29858 0.0
H1738 H 0.97349 0.43831 0.25085 0.0
H1739 H 0.02495 0.47024 0.24611 0.0
H1740 H 0.9605 0.46568 0.24059 0.0
H1741 H 0.95402 0.44402 0.23905 0.0
H1742 H 0.96068 0.45669 0.22084 0.0
H1743 H 0.03582 0.49645 0.23408 0.0
H1744 H 0.02278 0.50555 0.23339 0.0
H1745 H 0.02403 0.49469 0.21547 0.0
H1746 H 0.98754 0.55047 0.28354 0.0
H1747 H 0.97078 0.54442 0.30861 0.0
H1748 H 0.9621 0.52762 0.2936 0.0
H1749 H 0.95329 0.54082 0.2958 0.0
H1750 H 0.9984 0.55476 0.25708 0.0
H1751 H 0.94729 0.52085 0.25081 0.0
H1752 H 0.01335 0.53132 0.24151 0.0
H1753 H 0.01817 0.55256 0.24133 0.0
H1754 H 0.0112 0.54001 0.22247 0.0
H1755 H 0.93697 0.49708 0.23357 0.0
H1756 H 0.95049 0.4886 0.23234 0.0
H1757 H 0.94893 0.50003 0.21532 0.0
H1758 H 0.96943 0.56516 0.14133 0.0
H1759 H 0.98945 0.55781 0.13183 0.0
H1760 H 0.94159 0.51631 0.12458 0.0
H1761 H 0.00529 0.54331 0.15939 0.0
H1762 H 0.01194 0.55459 0.14039 0.0
H1763 H 0.00934 0.53412 0.14172 0.0
H1764 H 0.93459 0.48981 0.13374 0.0
H1765 H 0.94661 0.48941 0.15131 0.0
H1766 H 0.95095 0.48539 0.1307 0.0
H1767 H 0.9809 0.41632 0.1325 0.0
H1768 H 0.00032 0.41142 0.14979 0.0
H1769 H 0.00274 0.43151 0.15386 0.0
H1770 H 0.01733 0.42948 0.14124 0.0
H1771 H 0.0201 0.46818 0.12445 0.0
H1772 H 0.96997 0.43239 0.13146 0.0
H1773 H 0.02233 0.49835 0.15117 0.0
H1774 H 0.01648 0.50357 0.13181 0.0
H1775 H 0.03098 0.49623 0.13204 0.0
H1776 H 0.95097 0.43951 0.14148 0.0
H1777 H 0.95636 0.46095 0.14098 0.0
H1778 H 0.96026 0.45278 0.15952 0.0
H1779 H 0.98708 0.49801 0.24447 0.0
H1780 H 0.97604 0.52784 0.20248 0.0
H1781 H 0.97457 0.52698 0.17265 0.0
H1782 H 0.98301 0.49571 0.12966 0.0
H1783 H 0.9952 0.46684 0.17187 0.0
H1784 H 0.99589 0.4672 0.20162 0.0
H1785 H 0.94909 0.57457 0.13935 0.0
H1786 H 0.9401 0.5529 0.14336 0.0
H1787 H 0.93823 0.55951 0.12285 0.0
C1788 C 0.45304 0.38501 0.26631 0.0
C1789 C 0.45257 0.39982 0.27419 0.0
C1790 C 0.46354 0.42256 0.25439 0.0
C1791 C 0.45968 0.43309 0.24564 0.0
C1792 C 0.47172 0.4469 0.23759 0.0
C1793 C 0.488 0.44995 0.23788 0.0
C1794 C 0.492 0.43927 0.2466 0.0
C1795 C 0.47976 0.42575 0.25488 0.0
C1796 C 0.46703 0.4582 0.22874 0.0
C1797 C 0.50919 0.44206 0.24706 0.0
C1798 C 0.55874 0.53331 0.30426 0.0
C1799 C 0.57155 0.54043 0.29072 0.0
C1800 C 0.55553 0.53118 0.26464 0.0
C1801 C 0.5594 0.51916 0.25935 0.0
C1802 C 0.54924 0.50671 0.24785 0.0
C1803 C 0.53502 0.50635 0.24139 0.0
C1804 C 0.53149 0.51888 0.2461 0.0
C1805 C 0.54191 0.53124 0.25757 0.0
C1806 C 0.55359 0.49377 0.24277 0.0
C1807 C 0.51654 0.51898 0.23927 0.0
C1808 C 0.55949 0.53397 0.13101 0.0
C1809 C 0.56576 0.52512 0.13952 0.0
C1810 C 0.55557 0.51149 0.14912 0.0
C1811 C 0.53897 0.50704 0.15072 0.0
C1812 C 0.53282 0.51632 0.14263 0.0
C1813 C 0.54314 0.52955 0.13274 0.0
C1814 C 0.56245 0.50166 0.15728 0.0
C1815 C 0.51526 0.51211 0.14419 0.0
C1816 C 0.44504 0.37933 0.12543 0.0
C1817 C 0.44821 0.39656 0.12082 0.0
C1818 C 0.47453 0.42048 0.12896 0.0
C1819 C 0.49045 0.42418 0.13304 0.0
C1820 C 0.50086 0.43819 0.14275 0.0
C1821 C 0.49525 0.44896 0.14815 0.0
C1822 C 0.47935 0.44563 0.14347 0.0
C1823 C 0.46912 0.43138 0.13394 0.0
C1824 C 0.51777 0.44141 0.14739 0.0
C1825 C 0.47318 0.45714 0.14856 0.0
C1826 C 0.50076 0.4642 0.2289 0.0
C1827 C 0.5114 0.47834 0.23818 0.0
C1828 C 0.52343 0.49234 0.23047 0.0
C1829 C 0.52461 0.49249 0.21292 0.0
C1830 C 0.53605 0.50659 0.20467 0.0
C1831 C 0.53699 0.50661 0.18737 0.0
C1832 C 0.52681 0.49241 0.1777 0.0
C1833 C 0.52776 0.49223 0.16013 0.0
C1834 C 0.51743 0.47788 0.15094 0.0
C1835 C 0.50601 0.46363 0.15876 0.0
C1836 C 0.50486 0.46356 0.1763 0.0
C1837 C 0.49358 0.4494 0.18459 0.0
C1838 C 0.49228 0.44955 0.20181 0.0
C1839 C 0.50225 0.46384 0.21143 0.0
C1840 C 0.51404 0.47812 0.20339 0.0
C1841 C 0.51527 0.47802 0.18579 0.0
C1842 C 0.58946 0.56207 0.10149 0.0
C1843 C 0.58502 0.55341 0.11761 0.0
O1844 O 0.45121 0.40943 0.26191 0.0
O1845 O 0.46497 0.40656 0.1198 0.0
O1846 O 0.56853 0.54653 0.12069 0.0
O1847 O 0.5647 0.54293 0.27637 0.0
H1848 H 0.46411 0.40704 0.28163 0.0
H1849 H 0.46475 0.38916 0.25998 0.0
H1850 H 0.44308 0.37863 0.2568 0.0
H1851 H 0.45199 0.37618 0.27604 0.0
H1852 H 0.44715 0.43053 0.2453 0.0
H1853 H 0.48297 0.41767 0.26146 0.0
H1854 H 0.47564 0.47124 0.23231 0.0
H1855 H 0.45444 0.45541 0.23159 0.0
H1856 H 0.46773 0.45686 0.21507 0.0
H1857 H 0.50998 0.43169 0.25282 0.0
H1858 H 0.51721 0.4535 0.25437 0.0
H1859 H 0.51394 0.44373 0.23425 0.0
H1860 H 0.57566 0.53134 0.2884 0.0
H1861 H 0.55334 0.54133 0.30666 0.0
H1862 H 0.54877 0.52094 0.30019 0.0
H1863 H 0.5643 0.53195 0.31603 0.0
H1864 H 0.57038 0.51947 0.26399 0.0
H1865 H 0.53919 0.54075 0.26147 0.0
H1866 H 0.54395 0.48149 0.24677 0.0
H1867 H 0.56546 0.49617 0.24831 0.0
H1868 H 0.55416 0.49325 0.22898 0.0
H1869 H 0.51575 0.52984 0.24378 0.0
H1870 H 0.50544 0.50761 0.24299 0.0
H1871 H 0.51665 0.51898 0.22544 0.0
H1872 H 0.59302 0.56021 0.12859 0.0
H1873 H 0.57846 0.52857 0.1385 0.0
H1874 H 0.53845 0.53649 0.12618 0.0
H1875 H 0.56236 0.50293 0.17103 0.0
H1876 H 0.57516 0.50577 0.15355 0.0
H1877 H 0.55474 0.48839 0.15395 0.0
H1878 H 0.513 0.52186 0.13912 0.0
H1879 H 0.51173 0.51025 0.15745 0.0
H1880 H 0.50726 0.50042 0.13725 0.0
H1881 H 0.44324 0.40083 0.13099 0.0
H1882 H 0.43231 0.37143 0.12938 0.0
H1883 H 0.45314 0.38029 0.13611 0.0
H1884 H 0.44757 0.37333 0.11474 0.0
H1885 H 0.49459 0.41582 0.12887 0.0
H1886 H 0.45703 0.42895 0.1302 0.0
H1887 H 0.51961 0.44268 0.16114 0.0
H1888 H 0.52696 0.4532 0.14197 0.0
H1889 H 0.52 0.43142 0.14289 0.0
H1890 H 0.46102 0.4535 0.14286 0.0
H1891 H 0.48193 0.4699 0.14488 0.0
H1892 H 0.47226 0.45722 0.16233 0.0
H1893 H 0.51039 0.47842 0.25162 0.0
H1894 H 0.54427 0.51781 0.21149 0.0
H1895 H 0.54588 0.51789 0.18167 0.0
H1896 H 0.51816 0.47785 0.13746 0.0
H1897 H 0.48557 0.43805 0.17785 0.0
H1898 H 0.48334 0.43829 0.20749 0.0
H1899 H 0.59719 0.54807 0.08676 0.0
H1900 H 0.59779 0.57541 0.10509 0.0
H1901 H 0.57904 0.56406 0.09749 0.0
C1902 C 0.45472 0.02852 0.28468 0.0
C1903 C 0.44349 0.02572 0.26947 0.0
C1904 C 0.45422 0.01346 0.24953 0.0
C1905 C 0.4683 0.02825 0.24555 0.0
C1906 C 0.48049 0.02815 0.23585 0.0
C1907 C 0.47874 0.01299 0.23009 0.0
C1908 C 0.46451 0.9981 0.23379 0.0
C1909 C 0.45236 0.99857 0.24332 0.0
C1910 C 0.49542 0.04429 0.23199 0.0
C1911 C 0.46232 0.9817 0.22799 0.0
C1912 C 0.5849 0.00314 0.27649 0.0
C1913 C 0.56904 0.99984 0.26907 0.0
C1914 C 0.55692 0.0128 0.25207 0.0
C1915 C 0.54169 0.99848 0.24958 0.0
C1916 C 0.52909 0.99889 0.24043 0.0
C1917 C 0.53156 0.014 0.23407 0.0
C1918 C 0.54653 0.02862 0.23738 0.0
C1919 C 0.55913 0.02774 0.24606 0.0
C1920 C 0.51324 0.98306 0.23726 0.0
C1921 C 0.54935 0.04509 0.23147 0.0
C1922 C 0.56736 0.02558 0.12977 0.0
C1923 C 0.5562 0.00957 0.13459 0.0
C1924 C 0.5413 0.0061 0.14157 0.0
C1925 C 0.53775 0.01903 0.14411 0.0
C1926 C 0.54885 0.03509 0.13878 0.0
C1927 C 0.56343 0.03808 0.13141 0.0
C1928 C 0.52947 0.98869 0.14641 0.0
C1929 C 0.54547 0.04917 0.14114 0.0
C1930 C 0.41736 0.99503 0.12879 0.0
C1931 C 0.43026 0.00931 0.11889 0.0
C1932 C 0.45474 0.00714 0.12085 0.0
C1933 C 0.45703 0.99363 0.1233 0.0
C1934 C 0.47038 0.99524 0.13281 0.0
C1935 C 0.48186 0.01087 0.13961 0.0
C1936 C 0.48006 0.02476 0.13635 0.0
C1937 C 0.46643 0.02271 0.12705 0.0
C1938 C 0.47202 0.98021 0.13593 0.0
C1939 C 0.49237 0.04169 0.14292 0.0
C1940 C 0.4923 0.01279 0.22109 0.0
C1941 C 0.50518 0.01353 0.23067 0.0
C1942 C 0.51879 0.01425 0.22319 0.0
C1943 C 0.5198 0.01456 0.20563 0.0
C1944 C 0.53351 0.01572 0.1977 0.0
C1945 C 0.53462 0.01648 0.18046 0.0
C1946 C 0.52177 0.0154 0.17038 0.0
C1947 C 0.52272 0.01597 0.15279 0.0
C1948 C 0.50951 0.01437 0.14316 0.0
C1949 C 0.49543 0.01255 0.1506 0.0
C1950 C 0.49446 0.01246 0.16818 0.0
C1951 C 0.48066 0.01111 0.1761 0.0
C1952 C 0.47998 0.01139 0.19341 0.0
C1953 C 0.49288 0.01257 0.20348 0.0
C1954 C 0.50677 0.01363 0.19574 0.0
C1955 C 0.50765 0.01378 0.17809 0.0
C1956 C 0.60678 0.04231 0.1395 0.0
C1957 C 0.59332 0.02622 0.13163 0.0
O1958 O 0.44237 0.01298 0.25943 0.0
O1959 O 0.44114 0.00486 0.11253 0.0
O1960 O 0.58198 0.0292 0.12347 0.0
O1961 O 0.56978 0.0127 0.25992 0.0
H1962 H 0.44851 0.03721 0.26223 0.0
H1963 H 0.46726 0.03223 0.28071 0.0
H1964 H 0.45013 0.01708 0.29196 0.0
H1965 H 0.45539 0.03851 0.29287 0.0
H1966 H 0.47005 0.03996 0.25004 0.0
H1967 H 0.44149 0.98722 0.24633 0.0
H1968 H 0.50626 0.04499 0.23845 0.0
H1969 H 0.49428 0.05509 0.236 0.0
H1970 H 0.49762 0.04502 0.2184 0.0
H1971 H 0.45069 0.97121 0.23217 0.0
H1972 H 0.47261 0.98021 0.23283 0.0
H1973 H 0.4625 0.98126 0.21418 0.0
H1974 H 0.5621 0.98754 0.26274 0.0
H1975 H 0.58168 0.00393 0.30266 0.0
H1976 H 0.59465 0.01388 0.26963 0.0
H1977 H 0.58753 0.9938 0.27041 0.0
H1978 H 0.53955 0.98683 0.25437 0.0
H1979 H 0.57081 0.03878 0.24822 0.0
H1980 H 0.50322 0.98382 0.2435 0.0
H1981 H 0.5137 0.97214 0.24195 0.0
H1982 H 0.51022 0.98123 0.22369 0.0
H1983 H 0.56029 0.05548 0.23762 0.0
H1984 H 0.53857 0.04654 0.23391 0.0
H1985 H 0.55116 0.04584 0.21782 0.0
H1986 H 0.58754 0.01748 0.14198 0.0
H1987 H 0.55915 0.99983 0.13284 0.0
H1988 H 0.57208 0.05035 0.1274 0.0
H1989 H 0.5292 0.98789 0.16019 0.0
H1990 H 0.5329 0.97972 0.14139 0.0
H1991 H 0.51696 0.98512 0.14183 0.0
H1992 H 0.55592 0.06116 0.13755 0.0
H1993 H 0.54267 0.05009 0.15436 0.0
H1994 H 0.53462 0.04683 0.13342 0.0
H1995 H 0.43668 0.02014 0.12754 0.0
H1996 H 0.4085 0.99838 0.13397 0.0
H1997 H 0.42329 0.99219 0.13934 0.0
H1998 H 0.41067 0.98381 0.12073 0.0
H1999 H 0.448 0.9817 0.11822 0.0
H2000 H 0.46488 0.03326 0.1246 0.0
H2001 H 0.47245 0.97842 0.14956 0.0
H2002 H 0.48365 0.98205 0.13082 0.0
H2003 H 0.4618 0.96886 0.13016 0.0
H2004 H 0.49011 0.05144 0.13786 0.0
H2005 H 0.50488 0.04451 0.13972 0.0
H2006 H 0.49186 0.04202 0.15671 0.0
H2007 H 0.50462 0.01353 0.24416 0.0
H2008 H 0.54367 0.01628 0.20473 0.0
H2009 H 0.54564 0.01776 0.17514 0.0
H2010 H 0.51025 0.01472 0.12968 0.0
H2011 H 0.47028 0.00999 0.16901 0.0
H2012 H 0.46916 0.01053 0.19881 0.0
H2013 H 0.61604 0.04018 0.14605 0.0
H2014 H 0.60146 0.04712 0.14875 0.0
H2015 H 0.61286 0.05177 0.12987 0.0
C2016 C 0.54313 0.98222 0.72214 0.0
C2017 C 0.55554 0.99111 0.7364 0.0
C2018 C 0.53801 0.98367 0.7605 0.0
C2019 C 0.5384 0.99861 0.76407 0.0
C2020 C 0.52637 0.99899 0.77381 0.0
C2021 C 0.51365 0.98411 0.77998 0.0
C2022 C 0.51333 0.96906 0.7765 0.0
C2023 C 0.5257 0.9691 0.76703 0.0
C2024 C 0.52733 0.0153 0.77764 0.0
C2025 C 0.49989 0.95294 0.78275 0.0
C2026 C 0.40653 0.99559 0.74259 0.0
C2027 C 0.41717 0.98836 0.74612 0.0
C2028 C 0.44132 0.99511 0.76381 0.0
C2029 C 0.43918 0.97911 0.76402 0.0
C2030 C 0.45029 0.97588 0.77281 0.0
C2031 C 0.46385 0.98892 0.78134 0.0
C2032 C 0.46615 0.00508 0.78085 0.0
C2033 C 0.45474 0.0079 0.77221 0.0
C2034 C 0.44752 0.95854 0.77309 0.0
C2035 C 0.48066 0.01942 0.78945 0.0
C2036 C 0.44324 0.99025 0.8923 0.0
C2037 C 0.44283 0.97516 0.89052 0.0
C2038 C 0.45373 0.97337 0.88017 0.0
C2039 C 0.46556 0.98717 0.87161 0.0
C2040 C 0.46609 0.00252 0.87334 0.0
C2041 C 0.45474 0.00383 0.88339 0.0
C2042 C 0.45271 0.95678 0.87852 0.0
C2043 C 0.47879 0.01766 0.86477 0.0
C2044 C 0.58513 0.00953 0.88761 0.0
C2045 C 0.57281 0.00547 0.90151 0.0
C2046 C 0.54541 0.99059 0.88831 0.0
C2047 C 0.53117 0.97532 0.8868 0.0
C2048 C 0.51742 0.97348 0.87785 0.0
C2049 C 0.51793 0.98735 0.87032 0.0
C2050 C 0.53226 0.00288 0.87182 0.0
C2051 C 0.54591 0.00431 0.88059 0.0
C2052 C 0.50236 0.95673 0.87641 0.0
C2053 C 0.5332 0.01801 0.86412 0.0
C2054 C 0.50077 0.98431 0.79019 0.0
C2055 C 0.4881 0.98528 0.78193 0.0
C2056 C 0.47574 0.98584 0.79077 0.0
C2057 C 0.47568 0.98492 0.80835 0.0
C2058 C 0.46307 0.98472 0.8176 0.0
C2059 C 0.46351 0.98458 0.83494 0.0
C2060 C 0.47671 0.9849 0.8437 0.0
C2061 C 0.47777 0.98572 0.86132 0.0
C2062 C 0.49114 0.98611 0.86958 0.0
C2063 C 0.50355 0.98567 0.86075 0.0
C2064 C 0.50265 0.98471 0.84314 0.0
C2065 C 0.51488 0.98414 0.83387 0.0
C2066 C 0.51426 0.98391 0.81654 0.0
C2067 C 0.50131 0.98413 0.8078 0.0
C2068 C 0.48869 0.98439 0.8169 0.0
C2069 C 0.48929 0.98454 0.83459 0.0
C2070 C 0.44437 0.01703 0.91809 0.0
C2071 C 0.43071 0.00477 0.90615 0.0
O2072 O 0.54948 0.9829 0.75115 0.0
O2073 O 0.55824 0.99145 0.89723 0.0
O2074 O 0.43254 0.99118 0.90288 0.0
O2075 O 0.43078 0.99884 0.75582 0.0
H2076 H 0.5578 0.00394 0.73743 0.0
H2077 H 0.53155 0.98212 0.72472 0.0
H2078 H 0.54054 0.96929 0.72075 0.0
H2079 H 0.54782 0.98865 0.71022 0.0
H2080 H 0.54825 0.01004 0.75964 0.0
H2081 H 0.52564 0.95767 0.76435 0.0
H2082 H 0.5168 0.01558 0.77157 0.0
H2083 H 0.53875 0.02589 0.77319 0.0
H2084 H 0.5266 0.01683 0.79128 0.0
H2085 H 0.50053 0.94219 0.77762 0.0
H2086 H 0.4878 0.95156 0.77933 0.0
H2087 H 0.50076 0.95286 0.79655 0.0
H2088 H 0.41997 0.98279 0.73522 0.0
H2089 H 0.40694 0.99711 0.72867 0.0
H2090 H 0.41403 0.00923 0.74536 0.0
H2091 H 0.38455 0.97999 0.75522 0.0
H2092 H 0.42884 0.96913 0.75748 0.0
H2093 H 0.45629 0.02019 0.77192 0.0
H2094 H 0.44752 0.95476 0.78617 0.0
H2095 H 0.45764 0.95806 0.76675 0.0
H2096 H 0.43582 0.94956 0.7668 0.0
H2097 H 0.48167 0.03143 0.78624 0.0
H2098 H 0.4921 0.0196 0.786 0.0
H2099 H 0.47954 0.01802 0.80315 0.0
H2100 H 0.43136 0.01116 0.89432 0.0
H2101 H 0.43391 0.96472 0.89735 0.0
H2102 H 0.45518 0.01559 0.88431 0.0
H2103 H 0.45268 0.95352 0.86517 0.0
H2104 H 0.44162 0.94687 0.88429 0.0
H2105 H 0.4636 0.95732 0.88468 0.0
H2106 H 0.47904 0.02907 0.86926 0.0
H2107 H 0.47613 0.01633 0.85114 0.0
H2108 H 0.49109 0.01907 0.86681 0.0
H2109 H 0.57092 0.01625 0.90308 0.0
H2110 H 0.59735 0.01963 0.89173 0.0
H2111 H 0.58116 0.01365 0.87642 0.0
H2112 H 0.58606 0.99855 0.88389 0.0
H2113 H 0.53086 0.96478 0.8927 0.0
H2114 H 0.55687 0.01619 0.88123 0.0
H2115 H 0.49861 0.95347 0.8631 0.0
H2116 H 0.49218 0.95703 0.88282 0.0
H2117 H 0.50429 0.94696 0.882 0.0
H2118 H 0.54445 0.02948 0.86809 0.0
H2119 H 0.52245 0.01918 0.86755 0.0
H2120 H 0.53303 0.01683 0.85034 0.0
H2121 H 0.48807 0.986 0.76844 0.0
H2122 H 0.45273 0.98473 0.81153 0.0
H2123 H 0.45348 0.98448 0.8414 0.0
H2124 H 0.49207 0.98714 0.88309 0.0
H2125 H 0.52518 0.98402 0.83992 0.0
H2126 H 0.52414 0.98372 0.8101 0.0
H2127 H 0.44516 0.01086 0.92955 0.0
H2128 H 0.44213 0.02725 0.92164 0.0
H2129 H 0.45639 0.0225 0.91211 0.0
C2130 C 0.02498 0.59127 0.78415 0.0
C2131 C 0.02225 0.58455 0.76616 0.0
C2132 C 0.00721 0.55487 0.77166 0.0
C2133 C 0.99152 0.5417 0.77388 0.0
C2134 C 0.98905 0.5273 0.78172 0.0
C2135 C 0.0027 0.52596 0.78715 0.0
C2136 C 0.01863 0.53886 0.78412 0.0
C2137 C 0.02074 0.55324 0.77654 0.0
C2138 C 0.9719 0.51373 0.78467 0.0
C2139 C 0.03346 0.53764 0.7893 0.0
C2140 C 0.99743 0.40959 0.74839 0.0
C2141 C 0.00056 0.42659 0.75177 0.0
C2142 C 0.99161 0.44129 0.77039 0.0
C2143 C 0.00648 0.4562 0.77104 0.0
C2144 C 0.00791 0.47004 0.77959 0.0
C2145 C 0.99405 0.46918 0.78711 0.0
C2146 C 0.97884 0.45445 0.78567 0.0
C2147 C 0.97795 0.44057 0.7777 0.0
C2148 C 0.02435 0.48551 0.78079 0.0
C2149 C 0.96358 0.45324 0.79275 0.0
C2150 C 0.98434 0.44091 0.89419 0.0
C2151 C 0.00083 0.45122 0.89056 0.0
C2152 C 0.00583 0.46607 0.88222 0.0
C2153 C 0.99411 0.47065 0.87752 0.0
C2154 C 0.97762 0.46057 0.88175 0.0
C2155 C 0.97299 0.4459 0.89017 0.0
C2156 C 0.02357 0.47678 0.87824 0.0
C2157 C 0.96482 0.46518 0.87712 0.0
C2158 C 0.03263 0.60031 0.88547 0.0
C2159 C 0.02219 0.58681 0.89769 0.0
C2160 C 0.02286 0.56122 0.89245 0.0
C2161 C 0.03399 0.5564 0.8874 0.0
C2162 C 0.0287 0.54103 0.8796 0.0
C2163 C 0.01181 0.53015 0.87704 0.0
C2164 C 0.00042 0.53459 0.88288 0.0
C2165 C 0.00606 0.55008 0.89062 0.0
C2166 C 0.04118 0.53658 0.87374 0.0
C2167 C 0.98232 0.52307 0.88067 0.0
C2168 C 0.00036 0.51158 0.79698 0.0
C2169 C 0.9974 0.49722 0.78842 0.0
C2170 C 0.99572 0.4835 0.797 0.0
C2171 C 0.99658 0.48393 0.81464 0.0
C2172 C 0.99476 0.47033 0.82373 0.0
C2173 C 0.99522 0.47074 0.84106 0.0
C2174 C 0.99824 0.48503 0.85001 0.0
C2175 C 0.99883 0.48563 0.86764 0.0
C2176 C 0.00307 0.50039 0.87613 0.0
C2177 C 0.00619 0.51452 0.86746 0.0
C2178 C 0.00452 0.51383 0.84988 0.0
C2179 C 0.00655 0.52752 0.84085 0.0
C2180 C 0.00489 0.52672 0.82357 0.0
C2181 C 0.00159 0.51235 0.81459 0.0
C2182 C 0.99957 0.49843 0.82344 0.0
C2183 C 0.00077 0.49909 0.84112 0.0
C2184 C 0.97163 0.39955 0.89211 0.0
C2185 C 0.98484 0.41545 0.90054 0.0
O2186 O 0.00869 0.56891 0.76505 0.0
O2187 O 0.02883 0.57652 0.89935 0.0
O2188 O 0.97889 0.42634 0.90195 0.0
O2189 O 0.99003 0.42734 0.76312 0.0
H2190 H 0.0332 0.58405 0.7621 0.0
H2191 H 0.02744 0.58337 0.79261 0.0
H2192 H 0.01404 0.59162 0.7885 0.0
H2193 H 0.03567 0.6039 0.785 0.0
H2194 H 0.98115 0.54297 0.76993 0.0
H2195 H 0.03299 0.56314 0.77465 0.0
H2196 H 0.96987 0.50213 0.77854 0.0
H2197 H 0.96258 0.51671 0.7798 0.0
H2198 H 0.97017 0.51147 0.79823 0.0
H2199 H 0.04485 0.5477 0.78415 0.0
H2200 H 0.03203 0.52562 0.78511 0.0
H2201 H 0.03472 0.5383 0.8031 0.0
H2202 H 0.00223 0.43422 0.74059 0.0
H2203 H 0.99331 0.40704 0.7349 0.0
H2204 H 0.98495 0.40092 0.75323 0.0
H2205 H 0.01906 0.40999 0.75759 0.0
H2206 H 0.01713 0.45705 0.76527 0.0
H2207 H 0.96649 0.42908 0.77701 0.0
H2208 H 0.02732 0.49013 0.7939 0.0
H2209 H 0.024 0.49524 0.77327 0.0
H2210 H 0.03429 0.48351 0.77617 0.0
H2211 H 0.95239 0.44248 0.78742 0.0
H2212 H 0.96296 0.4646 0.79032 0.0
H2213 H 0.96372 0.45181 0.80645 0.0
H2214 H 0.99568 0.4204 0.89253 0.0
H2215 H 0.00984 0.44786 0.89438 0.0
H2216 H 0.96036 0.438 0.89334 0.0
H2217 H 0.0249 0.47776 0.86452 0.0
H2218 H 0.0313 0.47185 0.88332 0.0
H2219 H 0.0281 0.48941 0.88342 0.0
H2220 H 0.95256 0.45613 0.88155 0.0
H2221 H 0.96412 0.466 0.86337 0.0
H2222 H 0.96829 0.47749 0.88254 0.0
H2223 H 0.00966 0.58021 0.89214 0.0
H2224 H 0.02671 0.60765 0.88204 0.0
H2225 H 0.03391 0.5946 0.8738 0.0
H2226 H 0.04502 0.60853 0.89092 0.0
H2227 H 0.04692 0.56494 0.88921 0.0
H2228 H 0.99732 0.55333 0.89533 0.0
H2229 H 0.04025 0.53505 0.85996 0.0
H2230 H 0.03867 0.52463 0.87905 0.0
H2231 H 0.05383 0.54609 0.87734 0.0
H2232 H 0.97501 0.52814 0.88632 0.0
H2233 H 0.97898 0.51109 0.88644 0.0
H2234 H 0.97906 0.52065 0.86718 0.0
H2235 H 0.99675 0.49683 0.77491 0.0
H2236 H 0.99277 0.45911 0.81757 0.0
H2237 H 0.99343 0.45979 0.84735 0.0
H2238 H 0.00389 0.50088 0.88965 0.0
H2239 H 0.00928 0.53898 0.84705 0.0
H2240 H 0.0064 0.5376 0.81734 0.0
H2241 H 0.96051 0.3938 0.89974 0.0
H2242 H 0.97609 0.39064 0.89033 0.0
H2243 H 0.96832 0.40231 0.87967 0.0
C2244 C 0.54786 0.55501 0.73632 0.0
C2245 C 0.54536 0.57004 0.73652 0.0
C2246 C 0.53285 0.56725 0.76294 0.0
C2247 C 0.51921 0.56935 0.76146 0.0
C2248 C 0.50545 0.56015 0.77114 0.0
C2249 C 0.50531 0.54839 0.78226 0.0
C2250 C 0.51925 0.54641 0.78384 0.0
C2251 C 0.53301 0.55617 0.77439 0.0
C2252 C 0.49096 0.56279 0.76925 0.0
C2253 C 0.51951 0.53367 0.79511 0.0
C2254 C 0.38953 0.44766 0.77258 0.0
C2255 C 0.39744 0.45117 0.75547 0.0
C2256 C 0.42586 0.47028 0.76434 0.0
C2257 C 0.4403 0.47072 0.76947 0.0
C2258 C 0.45282 0.48459 0.77783 0.0
C2259 C 0.45095 0.49852 0.78079 0.0
C2260 C 0.43669 0.49848 0.77495 0.0
C2261 C 0.42422 0.48431 0.7669 0.0
C2262 C 0.46787 0.4842 0.78386 0.0
C2263 C 0.43451 0.5133 0.77751 0.0
C2264 C 0.41775 0.48009 0.8848 0.0
C2265 C 0.4303 0.47704 0.88015 0.0
C2266 C 0.4445 0.4894 0.87299 0.0
C2267 C 0.44601 0.50505 0.87017 0.0
C2268 C 0.4337 0.50837 0.87558 0.0
C2269 C 0.4198 0.49586 0.88306 0.0
C2270 C 0.45768 0.48561 0.86806 0.0
C2271 C 0.435 0.52495 0.87299 0.0
C2272 C 0.55287 0.61559 0.89142 0.0
C2273 C 0.54935 0.60232 0.90435 0.0
C2274 C 0.53028 0.57644 0.88913 0.0
C2275 C 0.52898 0.56205 0.88226 0.0
C2276 C 0.51473 0.55043 0.87379 0.0
C2277 C 0.50153 0.55349 0.87182 0.0
C2278 C 0.50255 0.56784 0.87912 0.0
C2279 C 0.51689 0.57913 0.88788 0.0
C2280 C 0.51396 0.53501 0.8667 0.0
C2281 C 0.48863 0.57138 0.87735 0.0
C2282 C 0.49032 0.53749 0.79149 0.0
C2283 C 0.47753 0.52431 0.78267 0.0
C2284 C 0.46358 0.51278 0.79071 0.0
C2285 C 0.46224 0.51433 0.80808 0.0
C2286 C 0.44845 0.50284 0.8166 0.0
C2287 C 0.44749 0.50414 0.83377 0.0
C2288 C 0.46043 0.51676 0.84316 0.0
C2289 C 0.46 0.51759 0.86075 0.0
C2290 C 0.4733 0.53004 0.86972 0.0
C2291 C 0.48701 0.5419 0.86156 0.0
C2292 C 0.48741 0.54157 0.84395 0.0
C2293 C 0.50078 0.55361 0.83532 0.0
C2294 C 0.50158 0.55256 0.81809 0.0
C2295 C 0.48911 0.53934 0.80884 0.0
C2296 C 0.47513 0.52756 0.81719 0.0
C2297 C 0.47425 0.52872 0.83476 0.0
C2298 C 0.37779 0.44762 0.87949 0.0
C2299 C 0.39518 0.45195 0.88467 0.0
O2300 O 0.54563 0.57532 0.75278 0.0
O2301 O 0.54477 0.58731 0.89655 0.0
O2302 O 0.4035 0.46804 0.89078 0.0
O2303 O 0.41388 0.45605 0.7572 0.0
H2304 H 0.53325 0.56639 0.73054 0.0
H2305 H 0.5376 0.5445 0.74246 0.0
H2306 H 0.55944 0.55792 0.74298 0.0
H2307 H 0.54824 0.55109 0.72329 0.0
H2308 H 0.5193 0.57805 0.75256 0.0
H2309 H 0.54369 0.5547 0.77538 0.0
H2310 H 0.48086 0.55198 0.76262 0.0
H2311 H 0.49388 0.57399 0.76207 0.0
H2312 H 0.48656 0.56389 0.78168 0.0
H2313 H 0.53009 0.53183 0.79279 0.0
H2314 H 0.50813 0.52166 0.79335 0.0
H2315 H 0.52027 0.53768 0.8083 0.0
H2316 H 0.39599 0.46103 0.74936 0.0
H2317 H 0.37631 0.44352 0.7712 0.0
H2318 H 0.3952 0.45896 0.78061 0.0
H2319 H 0.39105 0.43796 0.77893 0.0
H2320 H 0.44152 0.45991 0.76731 0.0
H2321 H 0.41325 0.48432 0.76275 0.0
H2322 H 0.46965 0.4867 0.79751 0.0
H2323 H 0.47876 0.49402 0.77776 0.0
H2324 H 0.46715 0.47216 0.78116 0.0
H2325 H 0.42358 0.51202 0.77068 0.0
H2326 H 0.44545 0.52458 0.77332 0.0
H2327 H 0.43321 0.515 0.79099 0.0
H2328 H 0.40083 0.45068 0.87306 0.0
H2329 H 0.42897 0.46497 0.88207 0.0
H2330 H 0.41014 0.49815 0.88695 0.0
H2331 H 0.45772 0.48459 0.85428 0.0
H2332 H 0.45584 0.47389 0.87338 0.0
H2333 H 0.46985 0.49575 0.87226 0.0
H2334 H 0.42416 0.52542 0.87746 0.0
H2335 H 0.43643 0.5279 0.85954 0.0
H2336 H 0.44602 0.53463 0.87973 0.0
H2337 H 0.53947 0.60113 0.91258 0.0
H2338 H 0.55702 0.62769 0.89777 0.0
H2339 H 0.54174 0.61255 0.88387 0.0
H2340 H 0.56246 0.61669 0.88284 0.0
H2341 H 0.53931 0.56002 0.88345 0.0
H2342 H 0.51759 0.59007 0.89344 0.0
H2343 H 0.51487 0.53586 0.85294 0.0
H2344 H 0.50215 0.524 0.86954 0.0
H2345 H 0.52403 0.5332 0.87166 0.0
H2346 H 0.49163 0.58349 0.883 0.0
H2347 H 0.47774 0.56159 0.88347 0.0
H2348 H 0.48537 0.57122 0.86396 0.0
H2349 H 0.47863 0.52278 0.76942 0.0
H2350 H 0.43826 0.49263 0.81012 0.0
H2351 H 0.43657 0.49491 0.8396 0.0
H2352 H 0.47316 0.53025 0.88323 0.0
H2353 H 0.51086 0.56392 0.84182 0.0
H2354 H 0.51222 0.56209 0.81213 0.0
H2355 H 0.37076 0.4346 0.87498 0.0
H2356 H 0.37817 0.45567 0.86921 0.0
H2357 H 0.37136 0.44945 0.89005 0.0
C2358 C 0.62536 0.74937 0.62469 0.0
C2359 C 0.62831 0.74407 0.60751 0.0
C2360 C 0.6326 0.76731 0.58965 0.0
C2361 C 0.6163 0.76383 0.58861 0.0
C2362 C 0.61201 0.77396 0.57946 0.0
C2363 C 0.62423 0.78779 0.57127 0.0
C2364 C 0.64065 0.79136 0.57247 0.0
C2365 C 0.64456 0.78101 0.58159 0.0
C2366 C 0.59441 0.76984 0.5784 0.0
C2367 C 0.65407 0.80606 0.56401 0.0
C2368 C 0.60674 0.8888 0.57239 0.0
C2369 C 0.61118 0.88609 0.59011 0.0
C2370 C 0.62066 0.86635 0.58368 0.0
C2371 C 0.63467 0.86547 0.58023 0.0
C2372 C 0.63366 0.85125 0.57302 0.0
C2373 C 0.61816 0.83739 0.56949 0.0
C2374 C 0.6039 0.83787 0.57371 0.0
C2375 C 0.60527 0.85239 0.58066 0.0
C2376 C 0.64917 0.8512 0.56883 0.0
C2377 C 0.5872 0.82317 0.57048 0.0
C2378 C 0.6061 0.85499 0.46472 0.0
C2379 C 0.62179 0.85713 0.46751 0.0
C2380 C 0.62389 0.84479 0.47509 0.0
C2381 C 0.61003 0.82998 0.47974 0.0
C2382 C 0.59423 0.82739 0.47594 0.0
C2383 C 0.59249 0.83994 0.4684 0.0
C2384 C 0.64091 0.84776 0.47862 0.0
C2385 C 0.57921 0.81162 0.48042 0.0
C2386 C 0.63767 0.74034 0.43083 0.0
C2387 C 0.62685 0.74186 0.44311 0.0
C2388 C 0.6303 0.76341 0.46337 0.0
C2389 C 0.64203 0.77767 0.47168 0.0
C2390 C 0.63768 0.78787 0.4805 0.0
C2391 C 0.62103 0.78344 0.48134 0.0
C2392 C 0.60901 0.76887 0.47313 0.0
C2393 C 0.61377 0.75899 0.46415 0.0
C2394 C 0.65094 0.80345 0.48881 0.0
C2395 C 0.59117 0.76376 0.4739 0.0
C2396 C 0.61995 0.79843 0.5612 0.0
C2397 C 0.61927 0.8114 0.56933 0.0
C2398 C 0.61698 0.8229 0.56036 0.0
C2399 C 0.61506 0.82133 0.5428 0.0
C2400 C 0.61289 0.83276 0.53337 0.0
C2401 C 0.61156 0.83145 0.51609 0.0
C2402 C 0.61264 0.81884 0.50749 0.0
C2403 C 0.61204 0.81787 0.48988 0.0
C2404 C 0.61403 0.80571 0.4817 0.0
C2405 C 0.61643 0.79428 0.49069 0.0
C2406 C 0.61628 0.79459 0.50831 0.0
C2407 C 0.61803 0.7829 0.51772 0.0
C2408 C 0.61884 0.7839 0.53506 0.0
C2409 C 0.61808 0.7967 0.54364 0.0
C2410 C 0.61575 0.80826 0.53442 0.0
C2411 C 0.6147 0.80712 0.51673 0.0
C2412 C 0.60463 0.89188 0.46735 0.0
C2413 C 0.61395 0.8839 0.45997 0.0
O2414 O 0.63752 0.75801 0.5983 0.0
O2415 O 0.6356 0.7545 0.45466 0.0
O2416 O 0.60353 0.86703 0.45854 0.0
O2417 O 0.62266 0.88091 0.58969 0.0
H2418 H 0.61646 0.73592 0.60098 0.0
H2419 H 0.61981 0.75738 0.62329 0.0
H2420 H 0.63707 0.75639 0.63186 0.0
H2421 H 0.61686 0.73854 0.63192 0.0
H2422 H 0.60689 0.75331 0.59486 0.0
H2423 H 0.65709 0.7836 0.5825 0.0
H2424 H 0.59322 0.78016 0.58387 0.0
H2425 H 0.58624 0.75839 0.58504 0.0
H2426 H 0.59028 0.76835 0.56513 0.0
H2427 H 0.66636 0.80794 0.56737 0.0
H2428 H 0.65365 0.81738 0.56744 0.0
H2429 H 0.65225 0.80431 0.55029 0.0
H2430 H 0.60005 0.87667 0.59629 0.0
H2431 H 0.59782 0.89331 0.57276 0.0
H2432 H 0.60108 0.8771 0.565 0.0
H2433 H 0.61781 0.89796 0.56594 0.0
H2434 H 0.64648 0.87623 0.58278 0.0
H2435 H 0.59429 0.85274 0.58356 0.0
H2436 H 0.64889 0.84784 0.55547 0.0
H2437 H 0.65015 0.84177 0.57631 0.0
H2438 H 0.66021 0.86333 0.5714 0.0
H2439 H 0.57743 0.82479 0.5762 0.0
H2440 H 0.58674 0.8119 0.57546 0.0
H2441 H 0.58471 0.82123 0.55684 0.0
H2442 H 0.6243 0.88686 0.46881 0.0
H2443 H 0.6324 0.86841 0.46389 0.0
H2444 H 0.58044 0.83828 0.46585 0.0
H2445 H 0.64295 0.84766 0.49228 0.0
H2446 H 0.65042 0.8597 0.47376 0.0
H2447 H 0.64232 0.83767 0.47291 0.0
H2448 H 0.56784 0.81094 0.47539 0.0
H2449 H 0.57848 0.81069 0.4942 0.0
H2450 H 0.58001 0.80086 0.47557 0.0
H2451 H 0.61756 0.73019 0.44876 0.0
H2452 H 0.63628 0.72781 0.43305 0.0
H2453 H 0.65048 0.74718 0.43628 0.0
H2454 H 0.63099 0.74681 0.40766 0.0
H2455 H 0.65475 0.78094 0.47097 0.0
H2456 H 0.60459 0.74784 0.45786 0.0
H2457 H 0.65005 0.80225 0.50255 0.0
H2458 H 0.64941 0.81413 0.48544 0.0
H2459 H 0.66333 0.80609 0.4853 0.0
H2460 H 0.58323 0.75151 0.46788 0.0
H2461 H 0.58896 0.77302 0.46755 0.0
H2462 H 0.58766 0.76338 0.48708 0.0
H2463 H 0.62114 0.8129 0.58275 0.0
H2464 H 0.61226 0.84291 0.53923 0.0
H2465 H 0.60996 0.84066 0.50955 0.0
H2466 H 0.61423 0.80548 0.46819 0.0
H2467 H 0.6189 0.77292 0.51177 0.0
H2468 H 0.62031 0.77462 0.54164 0.0
H2469 H 0.61271 0.90543 0.46873 0.0
H2470 H 0.60023 0.88685 0.47986 0.0
H2471 H 0.59392 0.88935 0.45925 0.0
C2472 C 0.11803 0.71702 0.5953 0.0
C2473 C 0.11929 0.73139 0.6059 0.0
C2474 C 0.13254 0.75686 0.58986 0.0
C2475 C 0.13015 0.7694 0.58348 0.0
C2476 C 0.14311 0.78366 0.57701 0.0
C2477 C 0.15881 0.78524 0.5766 0.0
C2478 C 0.16136 0.77262 0.58303 0.0
C2479 C 0.14821 0.75856 0.58965 0.0
C2480 C 0.13996 0.79695 0.57042 0.0
C2481 C 0.17792 0.77387 0.58259 0.0
C2482 C 0.25704 0.90698 0.62533 0.0
C2483 C 0.25142 0.89155 0.61536 0.0
C2484 C 0.2257 0.86788 0.60586 0.0
C2485 C 0.23206 0.85898 0.59774 0.0
C2486 C 0.22214 0.84562 0.58699 0.0
C2487 C 0.20574 0.84156 0.58375 0.0
C2488 C 0.19936 0.8506 0.59191 0.0
C2489 C 0.20937 0.86341 0.60313 0.0
C2490 C 0.22922 0.83581 0.57922 0.0
C2491 C 0.18201 0.84681 0.58878 0.0
C2492 C 0.23652 0.87549 0.47707 0.0
C2493 C 0.2406 0.86375 0.48279 0.0
C2494 C 0.22912 0.84964 0.49095 0.0
C2495 C 0.21333 0.8473 0.49361 0.0
C2496 C 0.20928 0.8592 0.48812 0.0
C2497 C 0.22096 0.87315 0.47993 0.0
C2498 C 0.23382 0.83717 0.49672 0.0
C2499 C 0.1926 0.85714 0.49087 0.0
C2500 C 0.11475 0.72318 0.46849 0.0
C2501 C 0.11832 0.73954 0.46072 0.0
C2502 C 0.14547 0.76263 0.46783 0.0
C2503 C 0.16104 0.76522 0.47179 0.0
C2504 C 0.1721 0.77887 0.48157 0.0
C2505 C 0.1675 0.79035 0.48721 0.0
C2506 C 0.15204 0.78825 0.48252 0.0
C2507 C 0.14117 0.77441 0.47284 0.0
C2508 C 0.18855 0.78084 0.48621 0.0
C2509 C 0.14694 0.80053 0.48795 0.0
C2510 C 0.17233 0.79977 0.5687 0.0
C2511 C 0.18302 0.81312 0.57889 0.0
C2512 C 0.19513 0.82772 0.57209 0.0
C2513 C 0.19663 0.82905 0.55456 0.0
C2514 C 0.20816 0.84373 0.54718 0.0
C2515 C 0.20966 0.8448 0.52994 0.0
C2516 C 0.19956 0.83131 0.5194 0.0
C2517 C 0.20096 0.83225 0.50187 0.0
C2518 C 0.19045 0.81872 0.49175 0.0
C2519 C 0.17853 0.80414 0.49865 0.0
C2520 C 0.1771 0.80286 0.51615 0.0
C2521 C 0.16536 0.78828 0.52348 0.0
C2522 C 0.16385 0.78721 0.54068 0.0
C2523 C 0.17404 0.80066 0.55123 0.0
C2524 C 0.18616 0.81538 0.54413 0.0
C2525 C 0.18763 0.81651 0.52655 0.0
C2526 C 0.27519 0.90233 0.47681 0.0
C2527 C 0.26229 0.89316 0.46292 0.0
O2528 O 0.11934 0.74333 0.59575 0.0
O2529 O 0.13507 0.74884 0.45889 0.0
O2530 O 0.24712 0.88927 0.46893 0.0
O2531 O 0.23484 0.88067 0.61654 0.0
H2532 H 0.13084 0.73653 0.61345 0.0
H2533 H 0.1295 0.72101 0.58854 0.0
H2534 H 0.10794 0.71269 0.58586 0.0
H2535 H 0.11606 0.70662 0.60336 0.0
H2536 H 0.11804 0.76797 0.58365 0.0
H2537 H 0.15025 0.74889 0.5943 0.0
H2538 H 0.149 0.80911 0.57593 0.0
H2539 H 0.1275 0.79461 0.57317 0.0
H2540 H 0.14141 0.79766 0.55671 0.0
H2541 H 0.17787 0.76286 0.58778 0.0
H2542 H 0.18691 0.78494 0.58985 0.0
H2543 H 0.18207 0.77537 0.56954 0.0
H2544 H 0.2592 0.88569 0.61658 0.0
H2545 H 0.26603 0.907 0.63479 0.0
H2546 H 0.24738 0.90438 0.63476 0.0
H2547 H 0.26377 0.92559 0.60708 0.0
H2548 H 0.24463 0.86217 0.60006 0.0
H2549 H 0.20457 0.87031 0.60955 0.0
H2550 H 0.22047 0.8224 0.57976 0.0
H2551 H 0.24086 0.83838 0.58551 0.0
H2552 H 0.23167 0.83904 0.56592 0.0
H2553 H 0.17984 0.85667 0.59382 0.0
H2554 H 0.17357 0.83511 0.59486 0.0
H2555 H 0.17897 0.8452 0.57521 0.0
H2556 H 0.26255 0.88179 0.45921 0.0
H2557 H 0.25269 0.86551 0.48105 0.0
H2558 H 0.21795 0.88231 0.4756 0.0
H2559 H 0.23268 0.83595 0.51044 0.0
H2560 H 0.2465 0.84062 0.49348 0.0
H2561 H 0.22536 0.82492 0.49099 0.0
H2562 H 0.19155 0.86781 0.48639 0.0
H2563 H 0.18987 0.8556 0.50434 0.0
H2564 H 0.18323 0.84583 0.48422 0.0
H2565 H 0.11381 0.74554 0.46953 0.0
H2566 H 0.10195 0.71626 0.4726 0.0
H2567 H 0.12274 0.72562 0.47972 0.0
H2568 H 0.11713 0.71552 0.45951 0.0
H2569 H 0.16435 0.75622 0.46757 0.0
H2570 H 0.12943 0.77293 0.46911 0.0
H2571 H 0.18993 0.78093 0.49999 0.0
H2572 H 0.19834 0.79282 0.48176 0.0
H2573 H 0.19028 0.77081 0.48084 0.0
H2574 H 0.13501 0.79779 0.48228 0.0
H2575 H 0.15632 0.81314 0.4845 0.0
H2576 H 0.146 0.80042 0.50172 0.0
H2577 H 0.18169 0.81226 0.5923 0.0
H2578 H 0.21618 0.85456 0.55464 0.0
H2579 H 0.21882 0.85638 0.52498 0.0
H2580 H 0.19151 0.81958 0.47831 0.0
H2581 H 0.15716 0.77752 0.51602 0.0
H2582 H 0.15457 0.77567 0.54559 0.0
H2583 H 0.28693 0.90298 0.47376 0.0
H2584 H 0.2712 0.89567 0.48871 0.0
H2585 H 0.27711 0.91496 0.47879 0.0
C2586 C 0.09754 0.36477 0.62605 0.0
C2587 C 0.11218 0.3707 0.61567 0.0
C2588 C 0.12715 0.36052 0.59934 0.0
C2589 C 0.1389 0.37614 0.59386 0.0
C2590 C 0.15184 0.37798 0.58403 0.0
C2591 C 0.1529 0.36392 0.57926 0.0
C2592 C 0.14089 0.34816 0.58439 0.0
C2593 C 0.12821 0.34669 0.59443 0.0
C2594 C 0.16449 0.39501 0.57888 0.0
C2595 C 0.14152 0.33289 0.57933 0.0
C2596 C 0.27284 0.39571 0.60688 0.0
C2597 C 0.25868 0.38038 0.61447 0.0
C2598 C 0.23491 0.36992 0.59521 0.0
C2599 C 0.2237 0.3559 0.58616 0.0
C2600 C 0.2099 0.35509 0.57835 0.0
C2601 C 0.20761 0.36896 0.57911 0.0
C2602 C 0.2188 0.38316 0.58842 0.0
C2603 C 0.23224 0.38343 0.59655 0.0
C2604 C 0.19795 0.3395 0.56903 0.0
C2605 C 0.21676 0.39819 0.58946 0.0
C2606 C 0.23685 0.38012 0.47244 0.0
C2607 C 0.22363 0.36461 0.47597 0.0
C2608 C 0.2102 0.36323 0.48457 0.0
C2609 C 0.20991 0.37765 0.48957 0.0
C2610 C 0.22291 0.39328 0.48544 0.0
C2611 C 0.23618 0.3943 0.47679 0.0
C2612 C 0.19634 0.34635 0.48841 0.0
C2613 C 0.22288 0.40888 0.49043 0.0
C2614 C 0.09801 0.37455 0.48013 0.0
C2615 C 0.10741 0.37796 0.46393 0.0
C2616 C 0.12808 0.37012 0.47141 0.0
C2617 C 0.13114 0.35694 0.47117 0.0
C2618 C 0.1444 0.35772 0.48015 0.0
C2619 C 0.1551 0.37227 0.48926 0.0
C2620 C 0.15244 0.38591 0.48908 0.0
C2621 C 0.13881 0.38462 0.48038 0.0
C2622 C 0.14684 0.34291 0.48002 0.0
C2623 C 0.16393 0.40184 0.49819 0.0
C2624 C 0.16685 0.36582 0.56931 0.0
C2625 C 0.18018 0.36639 0.57784 0.0
C2626 C 0.19405 0.36892 0.56941 0.0
C2627 C 0.19481 0.37117 0.55198 0.0
C2628 C 0.2088 0.3743 0.54319 0.0
C2629 C 0.20927 0.37601 0.52599 0.0
C2630 C 0.19586 0.37487 0.51692 0.0
C2631 C 0.19612 0.37629 0.4994 0.0
C2632 C 0.18278 0.37561 0.49081 0.0
C2633 C 0.1689 0.3731 0.49921 0.0
C2634 C 0.16821 0.37114 0.5167 0.0
C2635 C 0.15423 0.36805 0.52549 0.0
C2636 C 0.15375 0.36632 0.54271 0.0
C2637 C 0.16717 0.36747 0.55179 0.0
C2638 C 0.18126 0.37028 0.54313 0.0
C2639 C 0.1818 0.37216 0.52558 0.0
C2640 C 0.27129 0.38129 0.48095 0.0
C2641 C 0.25793 0.37269 0.46745 0.0
O2642 O 0.11479 0.35832 0.60942 0.0
O2643 O 0.11466 0.36821 0.46285 0.0
O2644 O 0.25024 0.38187 0.46457 0.0
O2645 O 0.24821 0.36995 0.60205 0.0
H2646 H 0.12338 0.38144 0.62114 0.0
H2647 H 0.1024 0.37019 0.63887 0.0
H2648 H 0.09405 0.35181 0.62966 0.0
H2649 H 0.08174 0.37059 0.61189 0.0
H2650 H 0.13816 0.38697 0.59729 0.0
H2651 H 0.11906 0.33469 0.59859 0.0
H2652 H 0.17686 0.39739 0.58266 0.0
H2653 H 0.16251 0.40479 0.58447 0.0
H2654 H 0.16415 0.39584 0.56511 0.0
H2655 H 0.13058 0.32144 0.5832 0.0
H2656 H 0.15252 0.33332 0.5851 0.0
H2657 H 0.14255 0.33243 0.5656 0.0
H2658 H 0.25211 0.38465 0.62278 0.0
H2659 H 0.28231 0.40296 0.61661 0.0
H2660 H 0.26844 0.40377 0.60157 0.0
H2661 H 0.27843 0.39227 0.59666 0.0
H2662 H 0.2258 0.3455 0.58526 0.0
H2663 H 0.24075 0.39437 0.60355 0.0
H2664 H 0.19946 0.34151 0.55543 0.0
H2665 H 0.18522 0.33616 0.57191 0.0
H2666 H 0.19986 0.32898 0.57213 0.0
H2667 H 0.22714 0.40868 0.5962 0.0
H2668 H 0.20538 0.39512 0.59603 0.0
H2669 H 0.21562 0.40214 0.57674 0.0
H2670 H 0.24928 0.36031 0.47214 0.0
H2671 H 0.22358 0.35352 0.47185 0.0
H2672 H 0.2463 0.40621 0.47372 0.0
H2673 H 0.19525 0.34491 0.50212 0.0
H2674 H 0.19808 0.33632 0.48308 0.0
H2675 H 0.18467 0.34497 0.48339 0.0
H2676 H 0.23393 0.4201 0.48631 0.0
H2677 H 0.22221 0.40954 0.5042 0.0
H2678 H 0.21192 0.40874 0.48496 0.0
H2679 H 0.11685 0.39119 0.46361 0.0
H2680 H 0.09215 0.38233 0.48109 0.0
H2681 H 0.10643 0.37749 0.49106 0.0
H2682 H 0.08845 0.36138 0.48058 0.0
H2683 H 0.12286 0.34586 0.46414 0.0
H2684 H 0.13675 0.39502 0.48066 0.0
H2685 H 0.14849 0.33976 0.49295 0.0
H2686 H 0.15808 0.34587 0.47322 0.0
H2687 H 0.13643 0.33196 0.4739 0.0
H2688 H 0.16163 0.41202 0.49473 0.0
H2689 H 0.17678 0.40555 0.49549 0.0
H2690 H 0.16239 0.40005 0.51182 0.0
H2691 H 0.17978 0.36489 0.59124 0.0
H2692 H 0.21955 0.3754 0.54948 0.0
H2693 H 0.22032 0.37828 0.5199 0.0
H2694 H 0.18311 0.3768 0.47736 0.0
H2695 H 0.14349 0.36694 0.51917 0.0
H2696 H 0.14268 0.364 0.54881 0.0
H2697 H 0.28022 0.39403 0.47734 0.0
H2698 H 0.27782 0.37427 0.48312 0.0
H2699 H 0.26574 0.38196 0.49282 0.0
H2700 H 0.03343 0.39637 0.05503 0.0
H2701 H 0.99107 0.34735 0.05568 0.0
H2702 H 0.9809 0.35569 0.07992 0.0
H2703 H 0.03805 0.40383 0.10044 0.0
H2704 H 0.04394 0.42524 0.09836 0.0
H2705 H 0.04868 0.41481 0.08226 0.0
H2706 H 0.03375 0.42326 0.06041 0.0
H2707 H 0.02879 0.43355 0.07644 0.0
H2708 H 0.0128 0.41777 0.06349 0.0
H2709 H 0.9743 0.37002 0.10269 0.0
H2710 H 0.97217 0.38908 0.12278 0.0
H2711 H 0.01862 0.42873 0.10687 0.0
C2712 C 0.02218 0.38723 0.06043 0.0
C2713 C 0.01309 0.37116 0.0534 0.0
C2714 C 0.99832 0.35971 0.06083 0.0
C2715 C 0.99242 0.36434 0.07461 0.0
C2716 C 0.00145 0.38043 0.08085 0.0
C2717 C 0.01609 0.39165 0.0741 0.0
C2718 C 0.02301 0.40844 0.08251 0.0
C2719 C 0.03939 0.41336 0.09142 0.0
C2720 C 0.02468 0.42152 0.06996 0.0
C2721 C 0.00982 0.405 0.09485 0.0
C2722 C 0.99754 0.38875 0.09378 0.0
C2723 C 0.98386 0.38276 0.10368 0.0
C2724 C 0.98271 0.39367 0.11497 0.0
C2725 C 0.99507 0.41042 0.11615 0.0
C2726 C 0.00888 0.41605 0.10606 0.0
H2727 H 0.64677 0.61209 0.06045 0.0
H2728 H 0.60472 0.59963 0.02851 0.0
H2729 H 0.5882 0.57467 0.04474 0.0
H2730 H 0.64025 0.57118 0.07264 0.0
H2731 H 0.64834 0.57972 0.09297 0.0
H2732 H 0.65492 0.59288 0.07519 0.0
H2733 H 0.64608 0.61127 0.09212 0.0
H2734 H 0.63776 0.5964 0.10839 0.0
H2735 H 0.62498 0.60273 0.09744 0.0
H2736 H 0.57134 0.54725 0.0639 0.0
H2737 H 0.56162 0.52584 0.09237 0.0
H2738 H 0.62035 0.56163 0.11632 0.0
C2739 C 0.63421 0.60368 0.05676 0.0
C2740 C 0.62704 0.60713 0.04293 0.0
C2741 C 0.61041 0.59671 0.03878 0.0
C2742 C 0.60098 0.58261 0.04794 0.0
C2743 C 0.60814 0.57948 0.06167 0.0
C2744 C 0.62463 0.58988 0.06645 0.0
C2745 C 0.6303 0.58589 0.08313 0.0
C2746 C 0.64431 0.58224 0.08079 0.0
C2747 C 0.63506 0.5999 0.09602 0.0
C2748 C 0.61532 0.5707 0.08835 0.0
C2749 C 0.60008 0.56669 0.07349 0.0
C2750 C 0.57999 0.54938 0.07394 0.0
C2751 C 0.5741 0.53554 0.09107 0.0
C2752 C 0.58928 0.5431 0.10889 0.0
C2753 C 0.61144 0.55808 0.10621 0.0
H2754 H 0.37789 0.99234 0.03446 0.0
H2755 H 0.36564 0.02868 0.05225 0.0
H2756 H 0.38594 0.03647 0.07537 0.0
H2757 H 0.37993 0.97791 0.07339 0.0
H2758 H 0.39652 0.97414 0.06919 0.0
H2759 H 0.38335 0.97352 0.05239 0.0
H2760 H 0.40831 0.99569 0.03668 0.0
H2761 H 0.42149 0.99594 0.05338 0.0
H2762 H 0.4222 0.0148 0.04728 0.0
H2763 H 0.40519 0.03821 0.09794 0.0
H2764 H 0.42122 0.033 0.11929 0.0
H2765 H 0.42001 0.9945 0.08764 0.0
C2766 C 0.37994 0.00229 0.04296 0.0
C2767 C 0.37096 0.01059 0.04119 0.0
C2768 C 0.37312 0.02287 0.05299 0.0
C2769 C 0.38452 0.02727 0.06618 0.0
C2770 C 0.39338 0.019 0.06752 0.0
C2771 C 0.39118 0.00672 0.05627 0.0
C2772 C 0.4008 0.99843 0.06163 0.0
C2773 C 0.38947 0.97991 0.06431 0.0
C2774 C 0.41398 0.00139 0.04898 0.0
C2775 C 0.40831 0.00759 0.07793 0.0
C2776 C 0.40413 0.01962 0.08092 0.0
C2777 C 0.40881 0.02905 0.09561 0.0
C2778 C 0.4179 0.02602 0.10764 0.0
C2779 C 0.42217 0.01364 0.10493 0.0
C2780 C 0.41732 0.00435 0.08983 0.0
H2781 H 0.37251 0.98579 0.98222 0.0
H2782 H 0.34578 0.00289 0.9518 0.0
H2783 H 0.35931 0.00042 0.92672 0.0
H2784 H 0.40822 0.00916 0.96524 0.0
H2785 H 0.41603 0.99501 0.9658 0.0
H2786 H 0.40099 0.99307 0.98037 0.0
H2787 H 0.3819 0.96286 0.97065 0.0
H2788 H 0.39706 0.96452 0.95622 0.0
H2789 H 0.37659 0.95813 0.94883 0.0
H2790 H 0.37993 0.00256 0.90679 0.0
H2791 H 0.40531 0.00806 0.89314 0.0
H2792 H 0.41898 0.98932 0.93612 0.0
C2793 C 0.36885 0.98801 0.97009 0.0
C2794 C 0.35776 0.99396 0.96869 0.0
C2795 C 0.35386 0.99777 0.95289 0.0
C2796 C 0.36154 0.99647 0.93863 0.0
C2797 C 0.37311 0.99137 0.94046 0.0
C2798 C 0.37659 0.98694 0.95577 0.0
C2799 C 0.3913 0.9845 0.95491 0.0
C2800 C 0.40493 0.99613 0.96731 0.0
C2801 C 0.38642 0.96642 0.95782 0.0
C2802 C 0.39611 0.98916 0.93703 0.0
C2803 C 0.38529 0.9928 0.92883 0.0
C2804 C 0.38824 0.99931 0.9129 0.0
C2805 C 0.40273 0.00247 0.90527 0.0
C2806 C 0.41417 0.9992 0.91359 0.0
C2807 C 0.41046 0.9919 0.92943 0.0
H2808 H 0.01957 0.37303 0.96265 0.0
H2809 H 0.99305 0.38115 0.00163 0.0
H2810 H 0.9869 0.39826 0.98273 0.0
H2811 H 0.03477 0.41295 0.93919 0.0
H2812 H 0.03057 0.4016 0.91986 0.0
H2813 H 0.03613 0.39429 0.93817 0.0
H2814 H 0.00924 0.36626 0.93256 0.0
H2815 H 0.00361 0.37473 0.9153 0.0
H2816 H 0.98999 0.36599 0.93239 0.0
H2817 H 0.98088 0.41151 0.95899 0.0
H2818 H 0.97484 0.41962 0.93183 0.0
H2819 H 0.00408 0.40181 0.9075 0.0
C2820 C 0.0131 0.37906 0.96732 0.0
C2821 C 0.00738 0.37653 0.98374 0.0
C2822 C 0.99795 0.38352 0.98922 0.0
C2823 C 0.99443 0.39322 0.97859 0.0
C2824 C 1.00001 0.39534 0.96235 0.0
C2825 C 0.00909 0.38841 0.95667 0.0
C2826 C 0.01123 0.39026 0.93798 0.0
C2827 C 0.02927 0.40037 0.93358 0.0
C2828 C 0.00302 0.3733 0.92904 0.0
C2829 C 0.00225 0.39957 0.93416 0.0
C2830 C 0.99589 0.4024 0.94838 0.0
C2831 C 0.98612 0.40972 0.94781 0.0
C2832 C 0.98279 0.41432 0.93229 0.0
C2833 C 0.98939 0.41177 0.91754 0.0
C2834 C 0.99926 0.40432 0.91861 0.0
H2835 H 0.60755 0.63241 0.98641 0.0
H2836 H 0.6392 0.61894 0.96003 0.0
H2837 H 0.62169 0.61241 0.9348 0.0
H2838 H 0.57061 0.60021 0.96939 0.0
H2839 H 0.56039 0.61216 0.96789 0.0
H2840 H 0.57622 0.61741 0.98351 0.0
H2841 H 0.59195 0.6471 0.97243 0.0
H2842 H 0.57613 0.64196 0.95678 0.0
H2843 H 0.597 0.6502 0.95072 0.0
H2844 H 0.60061 0.60645 0.91283 0.0
H2845 H 0.57611 0.59989 0.89568 0.0
H2846 H 0.55719 0.61598 0.93629 0.0
C2847 C 0.61093 0.62837 0.97522 0.0
C2848 C 0.62479 0.62628 0.97514 0.0
C2849 C 0.62863 0.62062 0.96038 0.0
C2850 C 0.61881 0.61695 0.94596 0.0
C2851 C 0.60513 0.61892 0.94649 0.0
C2852 C 0.60111 0.62443 0.96072 0.0
C2853 C 0.58511 0.62439 0.95819 0.0
C2854 C 0.57233 0.61285 0.97047 0.0
C2855 C 0.58771 0.64196 0.95961 0.0
C2856 C 0.58067 0.61771 0.94044 0.0
C2857 C 0.59254 0.61488 0.93389 0.0
C2858 C 0.5912 0.60857 0.91781 0.0
C2859 C 0.57723 0.60483 0.9082 0.0
C2860 C 0.56462 0.60712 0.91479 0.0
C2861 C 0.56655 0.61393 0.93103 0.0
H2862 H 0.02236 0.65056 0.9659 0.0
H2863 H 0.99941 0.60933 0.99896 0.0
H2864 H 0.00375 0.5918 0.9787 0.0
H2865 H 0.00178 0.62685 0.93093 0.0
H2866 H 0.01784 0.63773 0.91644 0.0
H2867 H 0.01653 0.64825 0.93473 0.0
H2868 H 0.04629 0.65611 0.94445 0.0
H2869 H 0.04738 0.6468 0.92511 0.0
H2870 H 0.05177 0.64008 0.94443 0.0
H2871 H 0.008 0.57815 0.95387 0.0
H2872 H 0.01124 0.56904 0.92596 0.0
H2873 H 0.02928 0.6188 0.90823 0.0
C2874 C 0.01895 0.63804 0.96909 0.0
C2875 C 0.01131 0.63138 0.98423 0.0
C2876 C 0.00586 0.61468 0.98764 0.0
C2877 C 0.00825 0.60468 0.97622 0.0
C2878 C 0.0156 0.61148 0.96122 0.0
C2879 C 0.0208 0.62776 0.95757 0.0
C2880 C 0.02585 0.63127 0.93959 0.0
C2881 C 0.01484 0.63632 0.92986 0.0
C2882 C 0.0439 0.64437 0.93836 0.0
C2883 C 0.02293 0.61453 0.93382 0.0
C2884 C 0.01713 0.60333 0.9465 0.0
C2885 C 0.01286 0.58691 0.94393 0.0
C2886 C 0.01478 0.58187 0.92803 0.0
C2887 C 0.02105 0.59319 0.91485 0.0
C2888 C 0.02493 0.60973 0.91789 0.0
H2889 H 0.36909 0.40079 0.96899 0.0
H2890 H 0.39222 0.37365 0.9505 0.0
H2891 H 0.40085 0.39098 0.92566 0.0
H2892 H 0.35412 0.40606 0.92964 0.0
H2893 H 0.35811 0.42663 0.93447 0.0
H2894 H 0.3539 0.41222 0.95095 0.0
H2895 H 0.3811 0.43286 0.96597 0.0
H2896 H 0.38542 0.44732 0.9495 0.0
H2897 H 0.39992 0.44075 0.95497 0.0
H2898 H 0.40612 0.41049 0.90233 0.0
H2899 H 0.40775 0.43104 0.88216 0.0
H2900 H 0.38238 0.44637 0.91629 0.0
C2901 C 0.37594 0.39845 0.95971 0.0
C2902 C 0.37991 0.38578 0.96171 0.0
C2903 C 0.38902 0.38326 0.9493 0.0
C2904 C 0.394 0.39305 0.93513 0.0
C2905 C 0.38992 0.40543 0.93359 0.0
C2906 C 0.38116 0.40821 0.94555 0.0
C2907 C 0.37836 0.42232 0.94083 0.0
C2908 C 0.36003 0.41645 0.93885 0.0
C2909 C 0.3867 0.43666 0.95358 0.0
C2910 C 0.3867 0.42684 0.92422 0.0
C2911 C 0.39329 0.41695 0.92028 0.0
C2912 C 0.40109 0.41838 0.90531 0.0
C2913 C 0.40196 0.43008 0.89395 0.0
C2914 C 0.39512 0.44023 0.89762 0.0
C2915 C 0.38767 0.43875 0.91312 0.0
H2916 H 0.62545 0.98247 0.96402 0.0
H2917 H 0.616 0.00965 0.00202 0.0
H2918 H 0.59586 0.01131 0.9832 0.0
H2919 H 0.62707 0.00796 0.93282 0.0
H2920 H 0.61835 0.99262 0.91632 0.0
H2921 H 0.62884 0.98961 0.9337 0.0
H2922 H 0.60304 0.96159 0.94045 0.0
H2923 H 0.59357 0.96449 0.92207 0.0
H2924 H 0.5836 0.96097 0.94167 0.0
H2925 H 0.57951 0.013 0.95953 0.0
H2926 H 0.56889 0.01579 0.93216 0.0
H2927 H 0.59007 0.98885 0.90873 0.0
C2928 C 0.6185 0.98805 0.96854 0.0
C2929 C 0.62156 0.99526 0.98465 0.0
C2930 C 0.61326 0.00355 0.9899 0.0
C2931 C 0.60183 0.00453 0.9793 0.0
C2932 C 0.59925 0.99757 0.96333 0.0
C2933 C 0.60736 0.98951 0.9579 0.0
C2934 C 0.60451 0.98569 0.93933 0.0
C2935 C 0.62065 0.9945 0.93 0.0
C2936 C 0.59566 0.96706 0.9357 0.0
C2937 C 0.59363 0.99291 0.93522 0.0
C2938 C 0.59062 0.99954 0.94926 0.0
C2939 C 0.58167 0.00773 0.94846 0.0
C2940 C 0.57577 0.00933 0.93285 0.0
C2941 C 0.57901 0.00298 0.91819 0.0
C2942 C 0.58764 0.9942 0.91955 0.0
H2943 H 0.63406 0.01909 0.04707 0.0
H2944 H 0.63267 0.97564 0.06751 0.0
H2945 H 0.62237 0.98032 0.09394 0.0
H2946 H 0.64485 0.044 0.08638 0.0
H2947 H 0.6316 0.05221 0.08129 0.0
H2948 H 0.641 0.04676 0.0649 0.0
H2949 H 0.6125 0.02772 0.05136 0.0
H2950 H 0.60298 0.03288 0.06782 0.0
H2951 H 0.59698 0.01164 0.06347 0.0
H2952 H 0.61041 0.98839 0.11718 0.0
H2953 H 0.59774 0.99959 0.13611 0.0
H2954 H 0.60553 0.03713 0.10029 0.0
C2955 C 0.63211 0.01094 0.05736 0.0
C2956 C 0.63446 0.99722 0.05551 0.0
C2957 C 0.63114 0.98635 0.06889 0.0
C2958 C 0.62527 0.9889 0.08389 0.0
C2959 C 0.62261 0.00226 0.08521 0.0
C2960 C 0.62595 0.01315 0.07235 0.0
C2961 C 0.62068 0.02568 0.07653 0.0
C2962 C 0.63541 0.0432 0.07733 0.0
C2963 C 0.6075 0.02439 0.06405 0.0
C2964 C 0.61375 0.02003 0.09365 0.0
C2965 C 0.6151 0.00658 0.09844 0.0
C2966 C 0.60933 0.99896 0.1136 0.0
C2967 C 0.60208 0.00534 0.12423 0.0
C2968 C 0.60049 0.01909 0.11958 0.0
C2969 C 0.60646 0.02652 0.10408 0.0
H2970 H 0.97858 0.61475 0.04574 0.0
H2971 H 0.02511 0.65069 0.06817 0.0
H2972 H 0.01885 0.63402 0.09346 0.0
H2973 H 0.95506 0.60391 0.08348 0.0
H2974 H 0.94336 0.58235 0.07781 0.0
H2975 H 0.95111 0.59758 0.06182 0.0
H2976 H 0.96557 0.58295 0.04861 0.0
H2977 H 0.95798 0.56776 0.06463 0.0
H2978 H 0.97958 0.57947 0.06117 0.0
H2979 H 0.00778 0.61347 0.11615 0.0
H2980 H 0.99251 0.59016 0.13484 0.0
H2981 H 0.95383 0.56676 0.09721 0.0
C2982 C 0.9873 0.61922 0.0561 0.0
C2983 C 0.00225 0.63408 0.05509 0.0
C2984 C 0.01356 0.63935 0.06872 0.0
C2985 C 0.01013 0.62998 0.08313 0.0
C2986 C 0.99541 0.61526 0.08364 0.0
C2987 C 0.98418 0.60987 0.0705 0.0
C2988 C 0.96958 0.59325 0.07401 0.0
C2989 C 0.95385 0.59434 0.0743 0.0
C2990 C 0.9681 0.58008 0.06135 0.0
C2991 C 0.97431 0.59025 0.09123 0.0
C2992 C 0.98923 0.60313 0.09656 0.0
C2993 C 0.99609 0.60329 0.11212 0.0
C2994 C 0.98736 0.59001 0.12263 0.0
C2995 C 0.97199 0.57671 0.11748 0.0
C2996 C 0.96553 0.57679 0.10147 0.0
H2997 H 0.37648 0.35979 0.05078 0.0
H2998 H 0.40429 0.4043 0.02307 0.0
H2999 H 0.42621 0.41474 0.04497 0.0
H3000 H 0.38682 0.38348 0.08997 0.0
H3001 H 0.38618 0.36714 0.10226 0.0
H3002 H 0.37345 0.3623 0.08372 0.0
H3003 H 0.38629 0.34526 0.07072 0.0
H3004 H 0.39684 0.34901 0.09057 0.0
H3005 H 0.40821 0.35446 0.07185 0.0
H3006 H 0.44564 0.41925 0.06923 0.0
H3007 H 0.45956 0.41957 0.09557 0.0
H3008 H 0.41675 0.37405 0.1094 0.0
C3009 C 0.38738 0.37158 0.04926 0.0
C3010 C 0.3893 0.38094 0.03495 0.0
C3011 C 0.40307 0.39677 0.03371 0.0
C3012 C 0.41548 0.40277 0.04608 0.0
C3013 C 0.41343 0.39309 0.05994 0.0
C3014 C 0.39949 0.37806 0.06185 0.0
C3015 C 0.39925 0.37119 0.07894 0.0
C3016 C 0.38562 0.37103 0.08933 0.0
C3017 C 0.39752 0.35396 0.0779 0.0
C3018 C 0.4159 0.38394 0.08571 0.0
C3019 C 0.42384 0.39651 0.07463 0.0
C3020 C 0.43953 0.40947 0.07802 0.0
C3021 C 0.44738 0.40945 0.09303 0.0
C3022 C 0.43963 0.39647 0.10448 0.0
C3023 C 0.42342 0.38388 0.10084 0.0
H3024 H 0.64227 0.69641 0.37528 0.0
H3025 H 0.68985 0.74045 0.37456 0.0
H3026 H 0.67982 0.75524 0.39169 0.0
H3027 H 0.61775 0.71541 0.37238 0.0
H3028 H 0.60234 0.7008 0.38575 0.0
H3029 H 0.61441 0.69471 0.37356 0.0
H3030 H 0.62326 0.68562 0.40014 0.0
H3031 H 0.61132 0.69166 0.41262 0.0
H3032 H 0.63277 0.70006 0.41731 0.0
H3033 H 0.66677 0.7711 0.40893 0.0
H3034 H 0.6452 0.7773 0.42924 0.0
H3035 H 0.60137 0.71627 0.4188 0.0
C3036 C 0.65048 0.70916 0.37879 0.0
C3037 C 0.66683 0.71723 0.37356 0.0
C3038 C 0.67729 0.73391 0.37839 0.0
C3039 C 0.67172 0.74248 0.38812 0.0
C3040 C 0.65566 0.73433 0.39309 0.0
C3041 C 0.64484 0.71774 0.38869 0.0
C3042 C 0.62735 0.71041 0.39532 0.0
C3043 C 0.61472 0.70501 0.38089 0.0
C3044 C 0.62345 0.69609 0.40704 0.0
C3045 C 0.6281 0.7247 0.4048 0.0
C3046 C 0.64785 0.74106 0.40309 0.0
C3047 C 0.65453 0.76132 0.41117 0.0
C3048 C 0.641 0.7655 0.42303 0.0
C3049 C 0.62176 0.74658 0.42871 0.0
C3050 C 0.61309 0.72681 0.41629 0.0
H3051 H 0.31546 0.95595 0.3916 0.0
H3052 H 0.26994 0.94765 0.36902 0.0
H3053 H 0.2546 0.9267 0.39005 0.0
H3054 H 0.30243 0.91368 0.40861 0.0
H3055 H 0.31484 0.92341 0.42689 0.0
H3056 H 0.32045 0.93374 0.40727 0.0
H3057 H 0.32059 0.95855 0.42354 0.0
H3058 H 0.31288 0.94647 0.44194 0.0
H3059 H 0.30184 0.9555 0.43228 0.0
H3060 H 0.24434 0.9073 0.41386 0.0
H3061 H 0.23965 0.89233 0.44005 0.0
H3062 H 0.29209 0.91542 0.44881 0.0
C3063 C 0.30226 0.94921 0.3908 0.0
C3064 C 0.29374 0.95267 0.3783 0.0
C3065 C 0.27654 0.9446 0.3782 0.0
C3066 C 0.26777 0.93275 0.39008 0.0
C3067 C 0.27647 0.92963 0.40236 0.0
C3068 C 0.29334 0.93773 0.40294 0.0
C3069 C 0.29967 0.93391 0.41883 0.0
C3070 C 0.30998 0.92572 0.41513 0.0
C3071 C 0.30931 0.94954 0.42979 0.0
C3072 C 0.28375 0.92195 0.42671 0.0
C3073 C 0.27055 0.91965 0.41701 0.0
C3074 C 0.2546 0.90913 0.42166 0.0
C3075 C 0.25208 0.90076 0.43667 0.0
C3076 C 0.26543 0.90313 0.44711 0.0
C3077 C 0.28149 0.91365 0.44169 0.0
H3078 H 0.04897 0.32712 0.38564 0.0
H3079 H 0.03981 0.3679 0.37938 0.0
H3080 H 0.05779 0.38233 0.40374 0.0
H3081 H 0.04821 0.32898 0.43126 0.0
H3082 H 0.06344 0.32287 0.43431 0.0
H3083 H 0.0502 0.3158 0.41604 0.0
H3084 H 0.07541 0.32831 0.39666 0.0
H3085 H 0.08808 0.33414 0.41531 0.0
H3086 H 0.09107 0.34943 0.40027 0.0
H3087 H 0.07825 0.3932 0.42715 0.0
H3088 H 0.0973 0.39841 0.45095 0.0
H3089 H 0.09119 0.34949 0.44393 0.0
C3090 C 0.0509 0.33913 0.38941 0.0
C3091 C 0.04384 0.34691 0.38021 0.0
C3092 C 0.04588 0.36222 0.38585 0.0
C3093 C 0.05592 0.37041 0.39972 0.0
C3094 C 0.06339 0.36284 0.4081 0.0
C3095 C 0.06073 0.34738 0.40345 0.0
C3096 C 0.06944 0.34162 0.41538 0.0
C3097 C 0.05708 0.32642 0.42481 0.0
C3098 C 0.08171 0.33817 0.40634 0.0
C3099 C 0.078 0.35659 0.42692 0.0
C3100 C 0.07433 0.36866 0.42246 0.0
C3101 C 0.08113 0.3838 0.43088 0.0
C3102 C 0.09196 0.38668 0.4443 0.0
C3103 C 0.09593 0.37451 0.44913 0.0
C3104 C 0.08861 0.35916 0.44043 0.0
H3105 H 0.05931 0.33504 0.29923 0.0
H3106 H 0.02141 0.29123 0.32217 0.0
H3107 H 0.02637 0.27385 0.30225 0.0
H3108 H 0.04928 0.31986 0.25769 0.0
H3109 H 0.07012 0.32994 0.25113 0.0
H3110 H 0.06431 0.33872 0.26791 0.0
H3111 H 0.08651 0.33843 0.2872 0.0
H3112 H 0.09241 0.32964 0.27045 0.0
H3113 H 0.08668 0.31939 0.29012 0.0
H3114 H 0.0354 0.26137 0.27928 0.0
H3115 H 0.04688 0.25493 0.25464 0.0
H3116 H 0.07755 0.3072 0.24633 0.0
C3117 C 0.05217 0.32179 0.30027 0.0
C3118 C 0.04006 0.31449 0.31238 0.0
C3119 C 0.03078 0.29709 0.31304 0.0
C3120 C 0.03354 0.28713 0.3018 0.0
C3121 C 0.04551 0.29478 0.28994 0.0
C3122 C 0.0546 0.31172 0.28908 0.0
C3123 C 0.06614 0.31699 0.2747 0.0
C3124 C 0.06222 0.32696 0.26212 0.0
C3125 C 0.08399 0.32668 0.281 0.0
C3126 C 0.06211 0.30036 0.26749 0.0
C3127 C 0.05032 0.28767 0.27653 0.0
C3128 C 0.04467 0.27122 0.27216 0.0
C3129 C 0.05126 0.26767 0.2582 0.0
C3130 C 0.06328 0.2805 0.24871 0.0
C3131 C 0.0686 0.29705 0.25342 0.0
H3132 H 0.66674 0.71727 0.30618 0.0
H3133 H 0.70106 0.69945 0.30126 0.0
H3134 H 0.71229 0.71639 0.27628 0.0
H3135 H 0.65899 0.71651 0.26136 0.0
H3136 H 0.65647 0.73441 0.2621 0.0
H3137 H 0.65132 0.72121 0.27982 0.0
H3138 H 0.67156 0.74614 0.29923 0.0
H3139 H 0.67501 0.75883 0.28133 0.0
H3140 H 0.69201 0.75922 0.29217 0.0
H3141 H 0.72111 0.73688 0.25336 0.0
H3142 H 0.72487 0.75712 0.23178 0.0
H3143 H 0.68319 0.75974 0.25015 0.0
C3144 C 0.67671 0.7171 0.29985 0.0
C3145 C 0.68372 0.70785 0.306 0.0
C3146 C 0.69617 0.70717 0.29709 0.0
C3147 C 0.70248 0.71661 0.28285 0.0
C3148 C 0.69585 0.72625 0.2775 0.0
C3149 C 0.68303 0.72633 0.28551 0.0
C3150 C 0.67756 0.73708 0.27661 0.0
C3151 C 0.66005 0.72668 0.26955 0.0
C3152 C 0.67913 0.75112 0.28805 0.0
C3153 C 0.68978 0.74359 0.26282 0.0
C3154 C 0.70023 0.7372 0.26357 0.0
C3155 C 0.71293 0.74188 0.25255 0.0
C3156 C 0.71503 0.75342 0.24042 0.0
C3157 C 0.70453 0.76021 0.23946 0.0
C3158 C 0.69157 0.75497 0.25068 0.0
H3159 H 0.28011 0.9448 0.29927 0.0
H3160 H 0.27912 0.98737 0.32022 0.0
H3161 H 0.25686 0.98258 0.30039 0.0
H3162 H 0.27249 0.95111 0.2565 0.0
H3163 H 0.25993 0.92942 0.25178 0.0
H3164 H 0.27588 0.93631 0.26756 0.0
H3165 H 0.25481 0.91751 0.28896 0.0
H3166 H 0.23877 0.91064 0.27328 0.0
H3167 H 0.23709 0.91956 0.29264 0.0
H3168 H 0.23441 0.97295 0.27856 0.0
H3169 H 0.2139 0.95955 0.25569 0.0
H3170 H 0.22988 0.92362 0.24876 0.0
C3171 C 0.27531 0.95319 0.29968 0.0
C3172 C 0.28144 0.96649 0.31136 0.0
C3173 C 0.2747 0.97712 0.31141 0.0
C3174 C 0.26202 0.97449 0.30021 0.0
C3175 C 0.25621 0.96121 0.28899 0.0
C3176 C 0.26268 0.95079 0.28857 0.0
C3177 C 0.25427 0.93743 0.27526 0.0
C3178 C 0.26636 0.93865 0.26199 0.0
C3179 C 0.24573 0.92027 0.283 0.0
C3180 C 0.24201 0.94195 0.26825 0.0
C3181 C 0.24329 0.95567 0.27639 0.0
C3182 C 0.23325 0.96216 0.27214 0.0
C3183 C 0.22161 0.95445 0.25921 0.0
C3184 C 0.22004 0.94034 0.25072 0.0
C3185 C 0.23054 0.93416 0.25525 0.0
H3186 H 0.67511 0.94296 0.31085 0.0
H3187 H 0.70699 0.99579 0.31096 0.0
H3188 H 0.72394 0.99257 0.28972 0.0
H3189 H 0.70618 0.93043 0.30236 0.0
H3190 H 0.69225 0.91373 0.28879 0.0
H3191 H 0.68458 0.92034 0.3059 0.0
H3192 H 0.66561 0.92442 0.28484 0.0
H3193 H 0.67372 0.91826 0.26783 0.0
H3194 H 0.67449 0.93793 0.26755 0.0
H3195 H 0.73674 0.98366 0.26787 0.0
H3196 H 0.74264 0.97045 0.24453 0.0
H3197 H 0.701 0.92339 0.25679 0.0
C3198 C 0.68592 0.95375 0.30664 0.0
C3199 C 0.69038 0.96954 0.31311 0.0
C3200 C 0.70399 0.98354 0.30675 0.0
C3201 C 0.7136 0.98182 0.29464 0.0
C3202 C 0.70914 0.96603 0.28878 0.0
C3203 C 0.69551 0.95224 0.29441 0.0
C3204 C 0.69233 0.93691 0.28472 0.0
C3205 C 0.69393 0.92463 0.29613 0.0
C3206 C 0.67555 0.92892 0.2757 0.0
C3207 C 0.70608 0.94429 0.27252 0.0
C3208 C 0.71584 0.96102 0.27533 0.0
C3209 C 0.72914 0.97056 0.26548 0.0
C3210 C 0.73233 0.96288 0.25212 0.0
C3211 C 0.72198 0.94583 0.24847 0.0
C3212 C 0.70898 0.93645 0.25915 0.0
H3213 H 0.03732 0.73524 0.3089 0.0
H3214 H 0.0575 0.70717 0.28591 0.0
H3215 H 0.06247 0.72322 0.26036 0.0
H3216 H 0.01722 0.73921 0.27237 0.0
H3217 H 0.02211 0.76007 0.27721 0.0
H3218 H 0.02005 0.74634 0.29376 0.0
H3219 H 0.04906 0.76724 0.30498 0.0
H3220 H 0.05122 0.78102 0.28842 0.0
H3221 H 0.06607 0.77437 0.29127 0.0
H3222 H 0.06422 0.74137 0.23693 0.0
H3223 H 0.06347 0.76124 0.21737 0.0
H3224 H 0.04395 0.77894 0.25596 0.0
C3225 C 0.04272 0.73244 0.29846 0.0
C3226 C 0.04695 0.71989 0.29937 0.0
C3227 C 0.0542 0.71675 0.28552 0.0
C3228 C 0.05705 0.72578 0.27093 0.0
C3229 C 0.05281 0.73809 0.27045 0.0
C3230 C 0.04592 0.74154 0.28386 0.0
C3231 C 0.04274 0.75561 0.2801 0.0
C3232 C 0.02444 0.74996 0.28091 0.0
C3233 C 0.05288 0.77044 0.2919 0.0
C3234 C 0.04866 0.7593 0.2624 0.0
C3235 C 0.05437 0.74901 0.25708 0.0
C3236 C 0.0599 0.7496 0.24099 0.0
C3237 C 0.05944 0.76092 0.22997 0.0
C3238 C 0.05362 0.77159 0.23512 0.0
C3239 C 0.04841 0.7709 0.25166 0.0
H3240 H 0.2795 0.33688 0.31695 0.0
H3241 H 0.29723 0.30234 0.31086 0.0
H3242 H 0.2765 0.28762 0.28851 0.0
H3243 H 0.23645 0.30971 0.30936 0.0
H3244 H 0.23442 0.32497 0.29782 0.0
H3245 H 0.25035 0.33129 0.31354 0.0
H3246 H 0.27048 0.34849 0.28999 0.0
H3247 H 0.25406 0.34029 0.27462 0.0
H3248 H 0.27165 0.33786 0.27164 0.0
H3249 H 0.25211 0.27493 0.26934 0.0
H3250 H 0.22712 0.26658 0.25221 0.0
H3251 H 0.2262 0.31039 0.26902 0.0
C3252 C 0.2789 0.32619 0.31088 0.0
C3253 C 0.28931 0.32015 0.31607 0.0
C3254 C 0.28879 0.30661 0.30749 0.0
C3255 C 0.2772 0.2983 0.2947 0.0
C3256 C 0.26656 0.30404 0.29034 0.0
C3257 C 0.26747 0.31785 0.29792 0.0
C3258 C 0.25489 0.32169 0.29039 0.0
C3259 C 0.24338 0.32193 0.30359 0.0
C3260 C 0.26327 0.33805 0.28111 0.0
C3261 C 0.24605 0.30722 0.27829 0.0
C3262 C 0.25314 0.29733 0.27831 0.0
C3263 C 0.24664 0.28275 0.2689 0.0
C3264 C 0.23247 0.27811 0.25922 0.0
C3265 C 0.22496 0.28802 0.25899 0.0
C3266 C 0.23193 0.3028 0.26864 0.0
H3267 H 0.27833 0.3235 0.39862 0.0
H3268 H 0.31077 0.37051 0.3765 0.0
H3269 H 0.3027 0.3846 0.39733 0.0
H3270 H 0.24622 0.33234 0.40889 0.0
H3271 H 0.24195 0.32162 0.42831 0.0
H3272 H 0.2498 0.31519 0.41123 0.0
H3273 H 0.27384 0.31853 0.43016 0.0
H3274 H 0.26606 0.32492 0.4473 0.0
H3275 H 0.28668 0.33796 0.44078 0.0
H3276 H 0.29125 0.39359 0.42088 0.0
H3277 H 0.27821 0.39682 0.44607 0.0
H3278 H 0.254 0.34404 0.45303 0.0
C3279 C 0.28369 0.33675 0.39805 0.0
C3280 C 0.29517 0.34587 0.38587 0.0
C3281 C 0.30197 0.36323 0.38572 0.0
C3282 C 0.29742 0.37135 0.39746 0.0
C3283 C 0.28611 0.36196 0.40932 0.0
C3284 C 0.27939 0.34506 0.40974 0.0
C3285 C 0.26795 0.33787 0.42411 0.0
C3286 C 0.25044 0.32606 0.41775 0.0
C3287 C 0.274 0.32932 0.43631 0.0
C3288 C 0.26935 0.35339 0.43179 0.0
C3289 C 0.27977 0.36715 0.42301 0.0
C3290 C 0.28306 0.3829 0.42784 0.0
C3291 C 0.27562 0.38462 0.44213 0.0
C3292 C 0.2651 0.37069 0.45146 0.0
C3293 C 0.26192 0.3549 0.44611 0.0
H3294 H 0.67514 0.95228 0.39826 0.0
H3295 H 0.63659 0.93009 0.36029 0.0
H3296 H 0.62015 0.90747 0.37913 0.0
H3297 H 0.66947 0.91336 0.41606 0.0
H3298 H 0.67334 0.92155 0.4371 0.0
H3299 H 0.68298 0.93504 0.41998 0.0
H3300 H 0.67107 0.95348 0.42942 0.0
H3301 H 0.66138 0.94005 0.44651 0.0
H3302 H 0.64937 0.94439 0.43184 0.0
H3303 H 0.60682 0.88878 0.40267 0.0
H3304 H 0.5974 0.87522 0.42966 0.0
H3305 H 0.6443 0.90936 0.45262 0.0
C3306 C 0.6634 0.94246 0.3938 0.0
C3307 C 0.65718 0.94292 0.37778 0.0
C3308 C 0.6416 0.93002 0.37252 0.0
C3309 C 0.63219 0.91706 0.3831 0.0
C3310 C 0.63851 0.91715 0.39892 0.0
C3311 C 0.65375 0.92947 0.40428 0.0
C3312 C 0.65709 0.92727 0.42234 0.0
C3313 C 0.67158 0.92411 0.42396 0.0
C3314 C 0.65988 0.94218 0.43316 0.0
C3315 C 0.64121 0.91202 0.42636 0.0
C3316 C 0.63075 0.90628 0.41261 0.0
C3317 C 0.61501 0.89294 0.41345 0.0
C3318 C 0.60978 0.88529 0.42881 0.0
C3319 C 0.62028 0.89098 0.44309 0.0
C3320 C 0.6362 0.9045 0.44178 0.0
H3321 H 0.05064 0.69439 0.38738 0.0
H3322 H 0.07173 0.74113 0.36251 0.0
H3323 H 0.0931 0.7537 0.38489 0.0
H3324 H 0.05583 0.71437 0.42755 0.0
H3325 H 0.05866 0.69934 0.43883 0.0
H3326 H 0.04634 0.69335 0.41993 0.0
H3327 H 0.06472 0.68268 0.4062 0.0
H3328 H 0.07502 0.68718 0.42626 0.0
H3329 H 0.08658 0.69581 0.40798 0.0
H3330 H 0.1122 0.76083 0.40993 0.0
H3331 H 0.12605 0.76297 0.43694 0.0
H3332 H 0.09003 0.7122 0.44681 0.0
C3333 C 0.06005 0.70716 0.38652 0.0
C3334 C 0.06021 0.7167 0.37294 0.0
C3335 C 0.07192 0.7336 0.3726 0.0
C3336 C 0.08401 0.74079 0.38523 0.0
C3337 C 0.08367 0.73102 0.39844 0.0
C3338 C 0.07175 0.71466 0.39936 0.0
C3339 C 0.07265 0.70755 0.41599 0.0
C3340 C 0.05747 0.70342 0.42617 0.0
C3341 C 0.07486 0.6924 0.41392 0.0
C3342 C 0.08772 0.72206 0.42368 0.0
C3343 C 0.09381 0.7355 0.41345 0.0
C3344 C 0.10758 0.75034 0.418 0.0
C3345 C 0.11543 0.75138 0.43335 0.0
C3346 C 0.10966 0.73764 0.44394 0.0
C3347 C 0.09531 0.7229 0.43905 0.0
H3348 H 0.30828 0.04091 0.70903 0.0
H3349 H 0.35723 0.08302 0.71112 0.0
H3350 H 0.34806 0.09786 0.72933 0.0
H3351 H 0.28631 0.06224 0.70702 0.0
H3352 H 0.26985 0.04759 0.71938 0.0
H3353 H 0.28153 0.04102 0.70716 0.0
H3354 H 0.28833 0.0296 0.73337 0.0
H3355 H 0.27664 0.03598 0.74585 0.0
H3356 H 0.29769 0.04289 0.75138 0.0
H3357 H 0.33579 0.11433 0.74686 0.0
H3358 H 0.31435 0.12148 0.76633 0.0
H3359 H 0.26836 0.06207 0.75243 0.0
C3360 C 0.317 0.05321 0.71346 0.0
C3361 C 0.33346 0.06077 0.70862 0.0
C3362 C 0.34457 0.0769 0.71459 0.0
C3363 C 0.33949 0.08549 0.72496 0.0
C3364 C 0.32328 0.07789 0.72941 0.0
C3365 C 0.31184 0.06182 0.72393 0.0
C3366 C 0.29418 0.05516 0.72984 0.0
C3367 C 0.28227 0.05127 0.71497 0.0
C3368 C 0.2889 0.04001 0.74075 0.0
C3369 C 0.29551 0.06934 0.73999 0.0
C3370 C 0.31579 0.08487 0.73957 0.0
C3371 C 0.32322 0.105 0.7484 0.0
C3372 C 0.30984 0.10983 0.7597 0.0
C3373 C 0.28963 0.09145 0.76404 0.0
C3374 C 0.28058 0.07216 0.75081 0.0
H3375 H 0.97699 0.27394 0.71508 0.0
H3376 H 0.93298 0.26649 0.68972 0.0
H3377 H 0.91643 0.24257 0.70728 0.0
H3378 H 0.96673 0.23168 0.72494 0.0
H3379 H 0.97765 0.23893 0.74451 0.0
H3380 H 0.98365 0.2525 0.72706 0.0
H3381 H 0.98044 0.27322 0.74648 0.0
H3382 H 0.97294 0.25859 0.76303 0.0
H3383 H 0.96082 0.2672 0.7551 0.0
H3384 H 0.89957 0.21608 0.72789 0.0
H3385 H 0.89157 0.19439 0.75607 0.0
H3386 H 0.95324 0.22386 0.77126 0.0
C3387 C 0.9639 0.26681 0.71305 0.0
C3388 C 0.95615 0.2715 0.7008 0.0
C3389 C 0.93903 0.26269 0.69881 0.0
C3390 C 0.92958 0.24919 0.70876 0.0
C3391 C 0.93737 0.245 0.72107 0.0
C3392 C 0.95446 0.25362 0.72348 0.0
C3393 C 0.96123 0.24853 0.73865 0.0
C3394 C 0.97304 0.24259 0.73343 0.0
C3395 C 0.96933 0.26272 0.75157 0.0
C3396 C 0.94614 0.23458 0.7455 0.0
C3397 C 0.92973 0.23265 0.73347 0.0
C3398 C 0.90908 0.21707 0.73634 0.0
C3399 C 0.90409 0.20298 0.75319 0.0
C3400 C 0.92138 0.20866 0.76846 0.0
C3401 C 0.94326 0.2215 0.76275 0.0
H3402 H 0.71369 0.65671 0.71469 0.0
H3403 H 0.69921 0.69412 0.71367 0.0
H3404 H 0.71687 0.70792 0.73838 0.0
H3405 H 0.71372 0.65527 0.76068 0.0
H3406 H 0.73045 0.65114 0.76201 0.0
H3407 H 0.71684 0.64411 0.74402 0.0
H3408 H 0.74138 0.66005 0.72421 0.0
H3409 H 0.75446 0.66566 0.74254 0.0
H3410 H 0.75565 0.68139 0.72903 0.0
H3411 H 0.7378 0.71906 0.76121 0.0
H3412 H 0.7579 0.7248 0.78406 0.0
H3413 H 0.75712 0.67891 0.77241 0.0
C3414 C 0.71436 0.66784 0.71971 0.0
C3415 C 0.70587 0.67495 0.71185 0.0
C3416 C 0.70633 0.68903 0.7191 0.0
C3417 C 0.71619 0.69686 0.73318 0.0
C3418 C 0.72513 0.69012 0.74016 0.0
C3419 C 0.72402 0.67571 0.734 0.0
C3420 C 0.73416 0.6706 0.74468 0.0
C3421 C 0.72313 0.65432 0.75336 0.0
C3422 C 0.74716 0.66935 0.73448 0.0
C3423 C 0.74182 0.68491 0.75714 0.0
C3424 C 0.73639 0.69598 0.75428 0.0
C3425 C 0.74204 0.71042 0.76373 0.0
C3426 C 0.75351 0.71362 0.77658 0.0
C3427 C 0.75927 0.70248 0.77986 0.0
C3428 C 0.75314 0.68781 0.7701 0.0
H3429 H 0.72529 0.6714 0.63008 0.0
H3430 H 0.68855 0.62555 0.65102 0.0
H3431 H 0.6959 0.60997 0.63134 0.0
H3432 H 0.71815 0.65695 0.58784 0.0
H3433 H 0.73929 0.66838 0.58234 0.0
H3434 H 0.73179 0.676 0.59868 0.0
H3435 H 0.75388 0.67706 0.61913 0.0
H3436 H 0.76145 0.66942 0.60284 0.0
H3437 H 0.75535 0.65874 0.62225 0.0
H3438 H 0.70666 0.5993 0.60899 0.0
H3439 H 0.71975 0.59426 0.58494 0.0
H3440 H 0.74893 0.64693 0.578 0.0
C3441 C 0.7189 0.65809 0.63066 0.0
C3442 C 0.70638 0.64971 0.64217 0.0
C3443 C 0.69816 0.63226 0.64232 0.0
C3444 C 0.70228 0.62329 0.63122 0.0
C3445 C 0.71459 0.63193 0.61998 0.0
C3446 C 0.72274 0.64892 0.61955 0.0
C3447 C 0.73502 0.65515 0.60576 0.0
C3448 C 0.7308 0.66468 0.5929 0.0
C3449 C 0.75246 0.66572 0.61293 0.0
C3450 C 0.73245 0.63899 0.59848 0.0
C3451 C 0.72069 0.62576 0.60694 0.0
C3452 C 0.716 0.60957 0.60235 0.0
C3453 C 0.72351 0.60683 0.58873 0.0
C3454 C 0.73562 0.62019 0.57987 0.0
C3455 C 0.74001 0.63648 0.58478 0.0
H3456 H 0.35785 0.05145 0.62683 0.0
H3457 H 0.33069 0.06706 0.65777 0.0
H3458 H 0.33567 0.08924 0.63825 0.0
H3459 H 0.38899 0.0903 0.60962 0.0
H3460 H 0.38707 0.07942 0.59046 0.0
H3461 H 0.38243 0.06851 0.60978 0.0
H3462 H 0.35415 0.04844 0.59454 0.0
H3463 H 0.35918 0.06166 0.57683 0.0
H3464 H 0.3411 0.05657 0.58831 0.0
H3465 H 0.34509 0.11535 0.61726 0.0
H3466 H 0.35692 0.13609 0.58835 0.0
H3467 H 0.37765 0.09745 0.56688 0.0
C3468 C 0.35339 0.05991 0.62947 0.0
C3469 C 0.34451 0.0582 0.64398 0.0
C3470 C 0.33791 0.06863 0.64688 0.0
C3471 C 0.34061 0.08116 0.63586 0.0
C3472 C 0.34931 0.08266 0.62158 0.0
C3473 C 0.35566 0.07213 0.61801 0.0
C3474 C 0.36391 0.07452 0.60098 0.0
C3475 C 0.38164 0.07836 0.60288 0.0
C3476 C 0.354 0.05941 0.58949 0.0
C3477 C 0.36332 0.08915 0.59435 0.0
C3478 C 0.35274 0.09426 0.60857 0.0
C3479 C 0.35085 0.11233 0.60737 0.0
C3480 C 0.35903 0.12581 0.59007 0.0
C3481 C 0.36595 0.11721 0.57287 0.0
C3482 C 0.37222 0.10131 0.57642 0.0
H3483 H 0.9546 0.27677 0.62257 0.0
H3484 H 0.95273 0.31815 0.64547 0.0
H3485 H 0.93346 0.31637 0.62333 0.0
H3486 H 0.95234 0.28768 0.57949 0.0
H3487 H 0.93977 0.26654 0.57265 0.0
H3488 H 0.95399 0.27154 0.58993 0.0
H3489 H 0.93046 0.25135 0.60841 0.0
H3490 H 0.91616 0.24637 0.59122 0.0
H3491 H 0.9128 0.25381 0.61073 0.0
H3492 H 0.91338 0.30931 0.59952 0.0
H3493 H 0.89444 0.29783 0.57513 0.0
H3494 H 0.90994 0.26161 0.5674 0.0
C3495 C 0.9503 0.28559 0.62287 0.0
C3496 C 0.95524 0.29761 0.63582 0.0
C3497 C 0.94919 0.30883 0.63572 0.0
C3498 C 0.93822 0.30793 0.62319 0.0
C3499 C 0.93346 0.29581 0.61077 0.0
C3500 C 0.93938 0.28491 0.61043 0.0
C3501 C 0.93207 0.27284 0.59586 0.0
C3502 C 0.94534 0.27477 0.58377 0.0
C3503 C 0.92229 0.25504 0.60192 0.0
C3504 C 0.92097 0.27854 0.58818 0.0
C3505 C 0.92195 0.2918 0.59697 0.0
C3506 C 0.91254 0.29895 0.59251 0.0
C3507 C 0.90179 0.29233 0.57871 0.0
C3508 C 0.90047 0.27865 0.56958 0.0
C3509 C 0.91044 0.27189 0.57427 0.0
H3510 H 0.35438 0.31468 0.6331 0.0
H3511 H 0.3353 0.27012 0.66162 0.0
H3512 H 0.34359 0.25707 0.63969 0.0
H3513 H 0.33741 0.29215 0.5952 0.0
H3514 H 0.35331 0.30661 0.58219 0.0
H3515 H 0.3486 0.31367 0.60115 0.0
H3516 H 0.37898 0.32606 0.61284 0.0
H3517 H 0.38282 0.32056 0.59251 0.0
H3518 H 0.38838 0.31331 0.61071 0.0
H3519 H 0.35333 0.24878 0.61427 0.0
H3520 H 0.36202 0.245 0.58657 0.0
H3521 H 0.3716 0.29399 0.57337 0.0
C3522 C 0.35248 0.30237 0.63489 0.0
C3523 C 0.34499 0.29358 0.64931 0.0
C3524 C 0.34159 0.27714 0.65086 0.0
C3525 C 0.34621 0.26967 0.63848 0.0
C3526 C 0.35359 0.27863 0.62433 0.0
C3527 C 0.35645 0.29454 0.62234 0.0
C3528 C 0.36222 0.30051 0.60495 0.0
C3529 C 0.34963 0.3034 0.59531 0.0
C3530 C 0.3791 0.31606 0.60533 0.0
C3531 C 0.36299 0.28585 0.59783 0.0
C3532 C 0.35796 0.27337 0.60918 0.0
C3533 C 0.35749 0.25857 0.60534 0.0
C3534 C 0.36256 0.25659 0.58958 0.0
C3535 C 0.36828 0.26943 0.57783 0.0
C3536 C 0.36799 0.28407 0.58203 0.0
H3537 H 0.72381 0.04419 0.61879 0.0
H3538 H 0.69475 0.06148 0.64451 0.0
H3539 H 0.70223 0.08323 0.62378 0.0
H3540 H 0.75633 0.08396 0.60762 0.0
H3541 H 0.75901 0.07697 0.58753 0.0
H3542 H 0.75152 0.06287 0.60452 0.0
H3543 H 0.72602 0.043 0.58658 0.0
H3544 H 0.73344 0.05702 0.56953 0.0
H3545 H 0.71343 0.05052 0.57739 0.0
H3546 H 0.71282 0.10312 0.60009 0.0
H3547 H 0.72528 0.11916 0.57486 0.0
H3548 H 0.747 0.08859 0.56462 0.0
C3549 C 0.71901 0.05254 0.62013 0.0
C3550 C 0.70869 0.05108 0.63334 0.0
C3551 C 0.70266 0.06228 0.63451 0.0
C3552 C 0.70686 0.07472 0.62281 0.0
C3553 C 0.71706 0.07579 0.60997 0.0
C3554 C 0.72301 0.06497 0.60854 0.0
C3555 C 0.73354 0.06859 0.59343 0.0
C3556 C 0.75114 0.07339 0.59859 0.0
C3557 C 0.72616 0.05391 0.581 0.0
C3558 C 0.73259 0.08315 0.58658 0.0
C3559 C 0.72308 0.08716 0.59633 0.0
C3560 C 0.72034 0.10012 0.5924 0.0
C3561 C 0.72747 0.10917 0.5781 0.0
C3562 C 0.73723 0.10521 0.56792 0.0
C3563 C 0.73975 0.092 0.57227 0.0
H3564 H 0.96058 0.64849 0.63499 0.0
H3565 H 0.94822 0.68394 0.65525 0.0
H3566 H 0.92885 0.67821 0.63153 0.0
H3567 H 0.96225 0.66257 0.59395 0.0
H3568 H 0.9552 0.64284 0.58377 0.0
H3569 H 0.96592 0.6473 0.60359 0.0
H3570 H 0.94125 0.62163 0.61717 0.0
H3571 H 0.93242 0.617 0.59639 0.0
H3572 H 0.921 0.61866 0.61317 0.0
H3573 H 0.91161 0.66926 0.60511 0.0
H3574 H 0.89927 0.65936 0.57699 0.0
H3575 H 0.9249 0.63156 0.57305 0.0
C3576 C 0.95335 0.65458 0.63464 0.0
C3577 C 0.95524 0.66611 0.6472 0.0
C3578 C 0.94647 0.67471 0.64592 0.0
C3579 C 0.93549 0.67153 0.63253 0.0
C3580 C 0.93393 0.66016 0.62023 0.0
C3581 C 0.94276 0.65195 0.62104 0.0
C3582 C 0.94069 0.64226 0.60505 0.0
C3583 C 0.95698 0.64916 0.59606 0.0
C3584 C 0.93343 0.62379 0.6082 0.0
C3585 C 0.92874 0.64567 0.59549 0.0
C3586 C 0.92502 0.65604 0.60442 0.0
C3587 C 0.91444 0.66112 0.598 0.0
C3588 C 0.9075 0.65545 0.58203 0.0
C3589 C 0.91115 0.64484 0.57257 0.0
C3590 C 0.92182 0.63977 0.57962 0.0
H3591 H 0.93837 0.67093 0.71598 0.0
H3592 H 0.99054 0.70346 0.72249 0.0
H3593 H 0.98549 0.71974 0.74365 0.0
H3594 H 0.92826 0.70303 0.71826 0.0
H3595 H 0.9094 0.69071 0.72874 0.0
H3596 H 0.91721 0.681 0.71504 0.0
H3597 H 0.9164 0.66214 0.73893 0.0
H3598 H 0.90859 0.6718 0.75271 0.0
H3599 H 0.92689 0.67127 0.75847 0.0
H3600 H 0.97459 0.73289 0.76362 0.0
H3601 H 0.9586 0.74218 0.78024 0.0
H3602 H 0.9138 0.70172 0.75936 0.0
C3603 C 0.94875 0.68137 0.72195 0.0
C3604 C 0.96484 0.6859 0.71764 0.0
C3605 C 0.97809 0.6998 0.72561 0.0
C3606 C 0.97535 0.70909 0.73765 0.0
C3607 C 0.95931 0.70443 0.74143 0.0
C3608 C 0.94624 0.69096 0.73372 0.0
C3609 C 0.93018 0.68911 0.73922 0.0
C3610 C 0.92071 0.69108 0.72444 0.0
C3611 C 0.91992 0.6726 0.74785 0.0
C3612 C 0.93624 0.70348 0.75143 0.0
C3613 C 0.95307 0.71217 0.75258 0.0
C3614 C 0.9614 0.72612 0.7629 0.0
C3615 C 0.95226 0.73129 0.77229 0.0
C3616 C 0.935 0.72249 0.77131 0.0
C3617 C 0.92698 0.7085 0.7606 0.0
H3618 H 0.30783 0.27614 0.71472 0.0
H3619 H 0.35832 0.30088 0.73243 0.0
H3620 H 0.35001 0.2846 0.75806 0.0
H3621 H 0.29012 0.27471 0.75339 0.0
H3622 H 0.27265 0.2546 0.7497 0.0
H3623 H 0.28268 0.26757 0.7324 0.0
H3624 H 0.28678 0.24448 0.71918 0.0
H3625 H 0.27673 0.2314 0.73644 0.0
H3626 H 0.29695 0.23578 0.73114 0.0
H3627 H 0.33589 0.26706 0.78264 0.0
H3628 H 0.31709 0.24895 0.80389 0.0
H3629 H 0.27615 0.23482 0.76947 0.0
C3630 C 0.31719 0.2781 0.72392 0.0
C3631 C 0.33373 0.28986 0.72157 0.0
C3632 C 0.34557 0.29194 0.73392 0.0
C3633 C 0.34098 0.28275 0.74853 0.0
C3634 C 0.32454 0.27139 0.7505 0.0
C3635 C 0.31286 0.26894 0.73847 0.0
C3636 C 0.29598 0.25622 0.74373 0.0
C3637 C 0.2847 0.26373 0.74488 0.0
C3638 C 0.28868 0.24107 0.73192 0.0
C3639 C 0.29994 0.25215 0.76078 0.0
C3640 C 0.31648 0.26101 0.76445 0.0
C3641 C 0.32294 0.25992 0.77983 0.0
C3642 C 0.31219 0.24963 0.79181 0.0
C3643 C 0.29519 0.24054 0.78833 0.0
C3644 C 0.28908 0.24164 0.77248 0.0
H3645 H 0.73241 0.05949 0.69874 0.0
H3646 H 0.7131 0.00738 0.70663 0.0
H3647 H 0.73584 0.01366 0.72658 0.0
H3648 H 0.77601 0.07278 0.70253 0.0
H3649 H 0.78033 0.09143 0.71349 0.0
H3650 H 0.76338 0.08199 0.6988 0.0
H3651 H 0.74477 0.0819 0.72259 0.0
H3652 H 0.76184 0.09046 0.73717 0.0
H3653 H 0.74379 0.07132 0.74158 0.0
H3654 H 0.76095 0.0257 0.74526 0.0
H3655 H 0.78546 0.04268 0.76308 0.0
H3656 H 0.78731 0.087 0.74441 0.0
C3657 C 0.73319 0.04946 0.70452 0.0
C3658 C 0.72159 0.03294 0.70062 0.0
C3659 C 0.72241 0.02008 0.70893 0.0
C3660 C 0.73517 0.02354 0.72035 0.0
C3661 C 0.74675 0.03996 0.72358 0.0
C3662 C 0.74578 0.05273 0.71606 0.0
C3663 C 0.75916 0.0693 0.72255 0.0
C3664 C 0.77037 0.07946 0.70849 0.0
C3665 C 0.75195 0.0788 0.73151 0.0
C3666 C 0.76793 0.06385 0.73472 0.0
C3667 C 0.76064 0.04689 0.73506 0.0
C3668 C 0.76671 0.039 0.74519 0.0
C3669 C 0.78059 0.04872 0.75527 0.0
C3670 C 0.78815 0.06612 0.75525 0.0
C3671 C 0.78169 0.07371 0.74477 0.0
H3672 H 0.03664 0.32198 0.03546 0.0
H3673 H 0.07491 0.36377 0.01046 0.0
H3674 H 0.09372 0.35309 0.01557 0.0
H3675 H 0.06224 0.31892 0.0682 0.0
H3676 H 0.04986 0.29681 0.0686 0.0
H3677 H 0.0408 0.30919 0.06287 0.0
H3678 H 0.03004 0.29264 0.03522 0.0
H3679 H 0.03917 0.28028 0.04059 0.0
H3680 H 0.04413 0.29127 0.02131 0.0
H3681 H 0.111 0.33665 0.01621 0.0
H3682 H 0.12154 0.31298 0.02388 0.0
H3683 H 0.06712 0.27909 0.05399 0.0
C3684 C 0.04905 0.32884 0.03124 0.0
C3685 C 0.05431 0.34362 0.02248 0.0
C3686 C 0.0706 0.35244 0.0172 0.0
C3687 C 0.08139 0.34647 0.02004 0.0
C3688 C 0.07593 0.33185 0.02852 0.0
C3689 C 0.05996 0.32296 0.03444 0.0
C3690 C 0.05565 0.30684 0.04355 0.0
C3691 C 0.05192 0.30801 0.06189 0.0
C3692 C 0.04141 0.29188 0.03463 0.0
C3693 C 0.07104 0.30595 0.0423 0.0
C3694 C 0.08491 0.32343 0.03182 0.0
C3695 C 0.10358 0.32611 0.02372 0.0
C3696 C 0.10968 0.31096 0.02742 0.0
C3697 C 0.09688 0.29506 0.04278 0.0
C3698 C 0.07534 0.28973 0.04699 0.0
H3699 H 0.65427 0.69867 0.03524 0.0
H3700 H 0.6805 0.68082 0.06582 0.0
H3701 H 0.6944 0.70744 0.08109 0.0
H3702 H 0.68664 0.73893 0.03095 0.0
H3703 H 0.67441 0.74883 0.03224 0.0
H3704 H 0.66542 0.72792 0.02453 0.0
H3705 H 0.64326 0.71855 0.04689 0.0
H3706 H 0.65214 0.73948 0.05463 0.0
H3707 H 0.64931 0.7233 0.06857 0.0
H3708 H 0.70719 0.7365 0.09136 0.0
H3709 H 0.71747 0.7661 0.09667 0.0
H3710 H 0.68232 0.76508 0.06034 0.0
C3711 C 0.66274 0.70028 0.04532 0.0
C3712 C 0.66628 0.68765 0.04936 0.0
C3713 C 0.67755 0.69028 0.06254 0.0
C3714 C 0.68551 0.70536 0.0713 0.0
C3715 C 0.68196 0.71764 0.06685 0.0
C3716 C 0.67074 0.71525 0.05429 0.0
C3717 C 0.66964 0.73073 0.05161 0.0
C3718 C 0.67431 0.73697 0.03378 0.0
C3719 C 0.65257 0.72784 0.05567 0.0
C3720 C 0.68232 0.74229 0.06432 0.0
C3721 C 0.68921 0.73444 0.07301 0.0
C3722 C 0.70177 0.74274 0.08479 0.0
C3723 C 0.70755 0.75956 0.08769 0.0
C3724 C 0.70078 0.76793 0.07885 0.0
C3725 C 0.68778 0.75904 0.06723 0.0
H3726 H 0.28192 0.95293 0.02455 0.0
H3727 H 0.30249 0.99861 0.05362 0.0
H3728 H 0.27729 0.98782 0.06935 0.0
H3729 H 0.24117 0.94618 0.0216 0.0
H3730 H 0.23148 0.92418 0.02383 0.0
H3731 H 0.25136 0.93518 0.01492 0.0
H3732 H 0.26273 0.92319 0.03706 0.0
H3733 H 0.24286 0.91214 0.04602 0.0
H3734 H 0.26028 0.92596 0.05887 0.0
H3735 H 0.24988 0.97298 0.08124 0.0
H3736 H 0.22147 0.95441 0.08899 0.0
H3737 H 0.21847 0.91764 0.05338 0.0
C3738 C 0.28111 0.9606 0.03427 0.0
C3739 C 0.29419 0.97662 0.03784 0.0
C3740 C 0.29268 0.98628 0.05066 0.0
C3741 C 0.2784 0.98028 0.0597 0.0
C3742 C 0.26574 0.96452 0.05589 0.0
C3743 C 0.26691 0.95473 0.04357 0.0
C3744 C 0.25131 0.93826 0.04202 0.0
C3745 C 0.24336 0.93581 0.02455 0.0
C3746 C 0.25449 0.92405 0.04625 0.0
C3747 C 0.24119 0.9405 0.0552 0.0
C3748 C 0.2498 0.95576 0.06301 0.0
C3749 C 0.24299 0.96096 0.07526 0.0
C3750 C 0.22684 0.95034 0.07956 0.0
C3751 C 0.21764 0.93468 0.07162 0.0
C3752 C 0.22508 0.92962 0.0595 0.0
H3753 H 0.34 0.05419 0.98544 0.0
H3754 H 0.2994 0.00401 0.98504 0.0
H3755 H 0.28163 0.01346 0.97232 0.0
H3756 H 0.31709 0.07367 0.9962 0.0
H3757 H 0.32817 0.09118 0.98314 0.0
H3758 H 0.33806 0.08043 0.99151 0.0
H3759 H 0.34533 0.07583 0.96169 0.0
H3760 H 0.33545 0.08657 0.95322 0.0
H3761 H 0.32935 0.06594 0.94599 0.0
H3762 H 0.26787 0.02824 0.96075 0.0
H3763 H 0.25907 0.04766 0.95084 0.0
H3764 H 0.30834 0.08825 0.95867 0.0
C3765 C 0.32742 0.04514 0.98254 0.0
C3766 C 0.32116 0.02833 0.98624 0.0
C3767 C 0.30455 0.01696 0.98236 0.0
C3768 C 0.29432 0.02218 0.97509 0.0
C3769 C 0.30084 0.03882 0.97173 0.0
C3770 C 0.31699 0.05015 0.97529 0.0
C3771 C 0.32076 0.06739 0.97083 0.0
C3772 C 0.32635 0.07884 0.98635 0.0
C3773 C 0.33348 0.07434 0.95711 0.0
C3774 C 0.30415 0.06397 0.96439 0.0
C3775 C 0.29287 0.04739 0.96495 0.0
C3776 C 0.27662 0.04123 0.96006 0.0
C3777 C 0.27174 0.05233 0.95443 0.0
C3778 C 0.28309 0.06937 0.95364 0.0
C3779 C 0.29949 0.07523 0.9588 0.0
H3780 H 0.96492 0.29317 0.00286 0.0
H3781 H 0.00349 0.30539 0.96791 0.0
H3782 H 0.98538 0.28066 0.95089 0.0
H3783 H 0.94492 0.24779 0.99978 0.0
H3784 H 0.92516 0.24601 0.00227 0.0
H3785 H 0.94299 0.263 0.01199 0.0
H3786 H 0.93597 0.28328 0.99736 0.0
H3787 H 0.91842 0.26655 0.9871 0.0
H3788 H 0.93392 0.28261 0.97496 0.0
H3789 H 0.96233 0.25705 0.92986 0.0
H3790 H 0.93125 0.23206 0.91544 0.0
H3791 H 0.90458 0.23571 0.96988 0.0
C3792 C 0.96955 0.29027 0.99184 0.0
C3793 C 0.98556 0.30098 0.98672 0.0
C3794 C 0.99126 0.29723 0.97207 0.0
C3795 C 0.98108 0.28321 0.96235 0.0
C3796 C 0.96515 0.27307 0.96731 0.0
C3797 C 0.95913 0.2764 0.98194 0.0
C3798 C 0.9408 0.2651 0.98505 0.0
C3799 C 0.93832 0.25487 0.0007 0.0
C3800 C 0.93176 0.27498 0.98618 0.0
C3801 C 0.93522 0.25419 0.96982 0.0
C3802 C 0.95235 0.25948 0.95794 0.0
C3803 C 0.95138 0.25222 0.93703 0.0
C3804 C 0.93207 0.23758 0.92758 0.0
C3805 C 0.9149 0.22879 0.94252 0.0
C3806 C 0.91514 0.2398 0.96219 0.0
H3807 H 0.70345 0.64932 0.99282 0.0
H3808 H 0.68863 0.6866 0.99446 0.0
H3809 H 0.71392 0.706 0.98056 0.0
H3810 H 0.74602 0.67681 0.00132 0.0
H3811 H 0.7526 0.66599 0.98756 0.0
H3812 H 0.73321 0.655 0.99744 0.0
H3813 H 0.71884 0.64457 0.96852 0.0
H3814 H 0.73818 0.65561 0.95854 0.0
H3815 H 0.72171 0.65926 0.95267 0.0
H3816 H 0.74081 0.72134 0.96638 0.0
H3817 H 0.7678 0.73172 0.95371 0.0
H3818 H 0.7651 0.68459 0.96194 0.0
C3819 C 0.70546 0.66154 0.99024 0.0
C3820 C 0.69399 0.66639 0.9947 0.0
C3821 C 0.69722 0.68257 0.9912 0.0
C3822 C 0.71154 0.69368 0.98326 0.0
C3823 C 0.72253 0.68846 0.97897 0.0
C3824 C 0.71971 0.67281 0.98241 0.0
C3825 C 0.7336 0.67035 0.97678 0.0
C3826 C 0.74184 0.66684 0.99166 0.0
C3827 C 0.72772 0.65664 0.96332 0.0
C3828 C 0.74468 0.68707 0.96962 0.0
C3829 C 0.73805 0.69732 0.97092 0.0
C3830 C 0.74609 0.71341 0.96521 0.0
C3831 C 0.76135 0.71917 0.958 0.0
C3832 C 0.76835 0.70885 0.95651 0.0
C3833 C 0.7599 0.69265 0.96257 0.0
H3834 H 0.95118 0.66149 0.00243 0.0
H3835 H 0.99085 0.68476 0.96791 0.0
H3836 H 0.97695 0.69804 0.95419 0.0
H3837 H 0.91841 0.65425 0.97212 0.0
H3838 H 0.90702 0.6586 0.98718 0.0
H3839 H 0.91961 0.65007 0.99382 0.0
H3840 H 0.93498 0.67439 0.01491 0.0
H3841 H 0.92247 0.683 0.00831 0.0
H3842 H 0.94436 0.69522 0.00759 0.0
H3843 H 0.96024 0.71079 0.94579 0.0
H3844 H 0.9409 0.72114 0.94231 0.0
H3845 H 0.91113 0.68874 0.98112 0.0
C3846 C 0.95682 0.66921 0.99186 0.0
C3847 C 0.9721 0.67207 0.98625 0.0
C3848 C 0.97914 0.68234 0.97242 0.0
C3849 C 0.97133 0.68995 0.96452 0.0
C3850 C 0.9564 0.68706 0.97045 0.0
C3851 C 0.94911 0.67684 0.98369 0.0
C3852 C 0.9332 0.67623 0.98782 0.0
C3853 C 0.9187 0.65875 0.98507 0.0
C3854 C 0.9338 0.68259 0.00572 0.0
C3855 C 0.93291 0.68796 0.97506 0.0
C3856 C 0.94642 0.69405 0.96517 0.0
C3857 C 0.94941 0.70586 0.9532 0.0
C3858 C 0.93831 0.71163 0.95129 0.0
C3859 C 0.92423 0.70541 0.96114 0.0
C3860 C 0.92156 0.69339 0.97314 0.0
H3861 H 0.35156 0.30435 0.98457 0.0
H3862 H 0.31729 0.32146 0.97312 0.0
H3863 H 0.29779 0.29395 0.96136 0.0
H3864 H 0.34219 0.27718 0.94809 0.0
H3865 H 0.34418 0.2618 0.95967 0.0
H3866 H 0.35593 0.28318 0.96595 0.0
H3867 H 0.34418 0.27601 0.99557 0.0
H3868 H 0.33243 0.25463 0.9894 0.0
H3869 H 0.32238 0.2651 0.99793 0.0
H3870 H 0.28146 0.26412 0.95213 0.0
H3871 H 0.26932 0.2341 0.94702 0.0
H3872 H 0.31412 0.23661 0.96504 0.0
C3873 C 0.34007 0.30243 0.97936 0.0
C3874 C 0.33603 0.31513 0.97968 0.0
C3875 C 0.3207 0.31195 0.973 0.0
C3876 C 0.30956 0.29638 0.96624 0.0
C3877 C 0.31389 0.28411 0.96627 0.0
C3878 C 0.32878 0.28696 0.97269 0.0
C3879 C 0.33011 0.27147 0.97216 0.0
C3880 C 0.34392 0.27354 0.96079 0.0
C3881 C 0.3324 0.26651 0.98981 0.0
C3882 C 0.31357 0.25938 0.96463 0.0
C3883 C 0.30444 0.26693 0.96116 0.0
C3884 C 0.28855 0.25812 0.95464 0.0
C3885 C 0.28178 0.24111 0.95175 0.0
C3886 C 0.29088 0.23311 0.95542 0.0
C3887 C 0.30699 0.24245 0.96187 0.0
H3888 H 0.71147 0.04355 0.00229 0.0
H3889 H 0.69083 0.00186 0.96752 0.0
H3890 H 0.71645 0.0143 0.95223 0.0
H3891 H 0.73343 0.07443 0.97184 0.0
H3892 H 0.75081 0.08658 0.98547 0.0
H3893 H 0.73093 0.07431 0.99406 0.0
H3894 H 0.7422 0.05959 0.01284 0.0
H3895 H 0.76213 0.07185 0.00433 0.0
H3896 H 0.75246 0.04969 0.00345 0.0
H3897 H 0.74443 0.03066 0.94111 0.0
H3898 H 0.77274 0.05062 0.93416 0.0
H3899 H 0.7751 0.08254 0.97505 0.0
C3900 C 0.71238 0.03705 0.99149 0.0
C3901 C 0.69914 0.02172 0.98612 0.0
C3902 C 0.70078 0.01363 0.97187 0.0
C3903 C 0.7153 0.02057 0.96309 0.0
C3904 C 0.72809 0.03569 0.96863 0.0
C3905 C 0.72679 0.0439 0.98244 0.0
C3906 C 0.74237 0.06013 0.98555 0.0
C3907 C 0.73919 0.07472 0.98414 0.0
C3908 C 0.75025 0.06032 0.00255 0.0
C3909 C 0.75254 0.05973 0.97132 0.0
C3910 C 0.7441 0.04546 0.9618 0.0
C3911 C 0.75111 0.042 0.94832 0.0
C3912 C 0.7672 0.05347 0.94442 0.0
C3913 C 0.77601 0.06839 0.95379 0.0
C3914 C 0.76852 0.07142 0.96746 0.0
H3915 H 0.68525 0.98344 0.0404 0.0
H3916 H 0.64844 0.93731 0.01752 0.0
H3917 H 0.66238 0.92318 0.02971 0.0
H3918 H 0.7199 0.97683 0.036 0.0
H3919 H 0.72879 0.98619 0.05601 0.0
H3920 H 0.71656 0.99283 0.0445 0.0
H3921 H 0.69782 0.98663 0.06979 0.0
H3922 H 0.70999 0.98001 0.08137 0.0
H3923 H 0.68836 0.96638 0.07858 0.0
H3924 H 0.68001 0.91403 0.04508 0.0
H3925 H 0.69921 0.91027 0.06343 0.0
H3926 H 0.72345 0.9623 0.07708 0.0
C3927 C 0.68023 0.97041 0.03774 0.0
C3928 C 0.66583 0.96149 0.02789 0.0
C3929 C 0.65947 0.94439 0.02501 0.0
C3930 C 0.66734 0.93628 0.03183 0.0
C3931 C 0.68145 0.94543 0.04159 0.0
C3932 C 0.68778 0.9621 0.04462 0.0
C3933 C 0.70253 0.96893 0.05631 0.0
C3934 C 0.71785 0.98196 0.04769 0.0
C3935 C 0.69948 0.97589 0.07247 0.0
C3936 C 0.70348 0.95347 0.05948 0.0
C3937 C 0.69134 0.94009 0.05074 0.0
C3938 C 0.68964 0.92445 0.05188 0.0
C3939 C 0.70062 0.92245 0.06228 0.0
C3940 C 0.71313 0.93596 0.07146 0.0
C3941 C 0.71439 0.95167 0.07007 0.0
H3942 H 0.05387 0.71407 0.02813 0.0
H3943 H 0.00365 0.69643 0.04179 0.0
H3944 H 0.0115 0.72368 0.05416 0.0
H3945 H 0.0732 0.74077 0.06461 0.0
H3946 H 0.08936 0.75657 0.05284 0.0
H3947 H 0.08005 0.73533 0.046 0.0
H3948 H 0.07325 0.74301 0.01716 0.0
H3949 H 0.08258 0.76425 0.02389 0.0
H3950 H 0.06178 0.75375 0.01607 0.0
H3951 H 0.02446 0.75306 0.06403 0.0
H3952 H 0.04162 0.78296 0.06982 0.0
H3953 H 0.08322 0.78164 0.04939 0.0
C3954 C 0.04456 0.71587 0.03391 0.0
C3955 C 0.02816 0.70308 0.03406 0.0
C3956 C 0.0163 0.70604 0.0415 0.0
C3957 C 0.02064 0.72146 0.04863 0.0
C3958 C 0.03688 0.73382 0.04818 0.0
C3959 C 0.04865 0.73124 0.04097 0.0
C3960 C 0.06505 0.74688 0.04133 0.0
C3961 C 0.07766 0.74475 0.05182 0.0
C3962 C 0.07101 0.75229 0.02355 0.0
C3963 C 0.06062 0.75866 0.04976 0.0
C3964 C 0.04433 0.75084 0.05374 0.0
C3965 C 0.03727 0.75929 0.06114 0.0
C3966 C 0.04709 0.77622 0.06442 0.0
C3967 C 0.06378 0.7845 0.06032 0.0
C3968 C 0.07058 0.77554 0.05293 0.0
H3969 H 0.31745 0.33912 0.04856 0.0
H3970 H 0.30068 0.35319 0.00424 0.0
H3971 H 0.27291 0.3406 0.01546 0.0
H3972 H 0.28259 0.30046 0.05358 0.0
H3973 H 0.28293 0.3018 0.07602 0.0
H3974 H 0.30161 0.31268 0.06491 0.0
H3975 H 0.30743 0.34012 0.07921 0.0
H3976 H 0.28881 0.3293 0.09047 0.0
H3977 H 0.2923 0.34655 0.07785 0.0
H3978 H 0.24652 0.32464 0.03076 0.0
H3979 H 0.22396 0.30778 0.04949 0.0
H3980 H 0.25861 0.30571 0.08435 0.0
C3981 C 0.30798 0.33971 0.04129 0.0
C3982 C 0.3112 0.34711 0.02552 0.0
C3983 C 0.29849 0.34765 0.01639 0.0
C3984 C 0.28268 0.3405 0.02264 0.0
C3985 C 0.27986 0.33308 0.03814 0.0
C3986 C 0.29222 0.33284 0.04743 0.0
C3987 C 0.28599 0.32393 0.06362 0.0
C3988 C 0.28842 0.30882 0.06458 0.0
C3989 C 0.29411 0.33568 0.07868 0.0
C3990 C 0.26811 0.31886 0.06183 0.0
C3991 C 0.2648 0.32422 0.04705 0.0
C3992 C 0.249 0.32043 0.0424 0.0
C3993 C 0.23627 0.31079 0.05307 0.0
C3994 C 0.23934 0.30495 0.06818 0.0
C3995 C 0.25562 0.30951 0.07275 0.0
H3996 H 0.68721 0.65035 0.36909 0.0
H3997 H 0.71002 0.69758 0.39507 0.0
H3998 H 0.72231 0.68732 0.41576 0.0
H3999 H 0.67904 0.62342 0.40482 0.0
H4000 H 0.68326 0.60951 0.39295 0.0
H4001 H 0.67515 0.62109 0.38262 0.0
H4002 H 0.69917 0.63249 0.3627 0.0
H4003 H 0.70794 0.6216 0.3731 0.0
H4004 H 0.71976 0.64362 0.371 0.0
H4005 H 0.7369 0.67507 0.43668 0.0
H4006 H 0.75182 0.65609 0.44798 0.0
H4007 H 0.71704 0.61242 0.40256 0.0
C4008 C 0.6945 0.65824 0.37944 0.0
C4009 C 0.69759 0.67462 0.38074 0.0
C4010 C 0.70747 0.68495 0.39402 0.0
C4011 C 0.71445 0.67922 0.40582 0.0
C4012 C 0.71165 0.66321 0.40409 0.0
C4013 C 0.70183 0.65253 0.39101 0.0
C4014 C 0.70099 0.63557 0.38991 0.0
C4015 C 0.68358 0.62157 0.39275 0.0
C4016 C 0.70734 0.63319 0.3732 0.0
C4017 C 0.71217 0.63667 0.40398 0.0
C4018 C 0.7192 0.65582 0.41372 0.0
C4019 C 0.73331 0.66317 0.43103 0.0
C4020 C 0.74211 0.65118 0.4386 0.0
C4021 C 0.73792 0.63325 0.42468 0.0
C4022 C 0.71979 0.62324 0.41001 0.0
H4023 H 0.32278 0.03406 0.38072 0.0
H4024 H 0.36613 0.03078 0.37151 0.0
H4025 H 0.38295 0.05698 0.38714 0.0
H4026 H 0.33933 0.07805 0.37978 0.0
H4027 H 0.32659 0.07789 0.39634 0.0
H4028 H 0.31968 0.06015 0.38267 0.0
H4029 H 0.31533 0.04179 0.40802 0.0
H4030 H 0.32232 0.05936 0.42192 0.0
H4031 H 0.33205 0.0469 0.4225 0.0
H4032 H 0.39961 0.08435 0.40752 0.0
H4033 H 0.40723 0.1117 0.43023 0.0
H4034 H 0.34598 0.09443 0.4275 0.0
C4035 C 0.33587 0.03916 0.38193 0.0
C4036 C 0.34335 0.03077 0.37482 0.0
C4037 C 0.36032 0.03722 0.37684 0.0
C4038 C 0.36992 0.05206 0.38562 0.0
C4039 C 0.36233 0.06013 0.39266 0.0
C4040 C 0.34533 0.05375 0.39127 0.0
C4041 C 0.33841 0.06316 0.4011 0.0
C4042 C 0.33054 0.07023 0.38927 0.0
C4043 C 0.32631 0.05215 0.41415 0.0
C4044 C 0.35336 0.07677 0.40948 0.0
C4045 C 0.36985 0.07476 0.40303 0.0
C4046 C 0.39015 0.08694 0.41131 0.0
C4047 C 0.39479 0.10322 0.42623 0.0
C4048 C 0.37786 0.1079 0.42903 0.0
C4049 C 0.35594 0.09237 0.42434 0.0
H4050 H 0.96069 0.28846 0.3544 0.0
H4051 H 0.97531 0.3382 0.37148 0.0
H4052 H 0.94847 0.32815 0.38418 0.0
H4053 H 0.9185 0.27585 0.34465 0.0
H4054 H 0.91094 0.25522 0.35199 0.0
H4055 H 0.93115 0.26639 0.34385 0.0
H4056 H 0.94311 0.26183 0.37131 0.0
H4057 H 0.92295 0.25073 0.37957 0.0
H4058 H 0.93876 0.26831 0.39087 0.0
H4059 H 0.92012 0.31281 0.39497 0.0
H4060 H 0.89209 0.2931 0.40325 0.0
H4061 H 0.89609 0.25315 0.37999 0.0
C4062 C 0.95819 0.29725 0.36069 0.0
C4063 C 0.97006 0.31413 0.36189 0.0
C4064 C 0.96639 0.32522 0.37039 0.0
C4065 C 0.95119 0.31963 0.37765 0.0
C4066 C 0.93981 0.3029 0.37639 0.0
C4067 C 0.94311 0.29186 0.36815 0.0
C4068 C 0.92884 0.27447 0.36888 0.0
C4069 C 0.92195 0.26758 0.3513 0.0
C4070 C 0.93371 0.26317 0.37822 0.0
C4071 C 0.917 0.27749 0.37876 0.0
C4072 C 0.92357 0.29398 0.38295 0.0
C4073 C 0.91487 0.29985 0.39185 0.0
C4074 C 0.89899 0.28857 0.39654 0.0
C4075 C 0.892 0.27158 0.39244 0.0
C4076 C 0.90119 0.26603 0.38344 0.0
H4077 H 0.99298 0.35769 0.31839 0.0
H4078 H 0.03292 0.36416 0.28764 0.0
H4079 H 0.02828 0.38271 0.26951 0.0
H4080 H 0.96704 0.36248 0.28397 0.0
H4081 H 0.96139 0.37392 0.29798 0.0
H4082 H 0.96498 0.35793 0.30586 0.0
H4083 H 0.98621 0.37888 0.32714 0.0
H4084 H 0.98302 0.395 0.31915 0.0
H4085 H 0.00324 0.39749 0.31974 0.0
H4086 H 0.02369 0.4048 0.25889 0.0
H4087 H 0.01796 0.4275 0.25486 0.0
H4088 H 0.98046 0.4069 0.29199 0.0
C4089 C 1.0001 0.36232 0.30729 0.0
C4090 C 0.01307 0.3593 0.30413 0.0
C4091 C 0.02276 0.36618 0.29004 0.0
C4092 C 0.02022 0.37672 0.2797 0.0
C4093 C 0.00792 0.38024 0.28364 0.0
C4094 C 0.99783 0.37306 0.29695 0.0
C4095 C 0.98713 0.38071 0.29988 0.0
C4096 C 0.96906 0.368 0.29673 0.0
C4097 C 0.99009 0.38848 0.31752 0.0
C4098 C 0.99332 0.39375 0.28667 0.0
C4099 C 0.00518 0.39314 0.27733 0.0
C4100 C 0.01404 0.4051 0.26572 0.0
C4101 C 0.01071 0.41802 0.26357 0.0
C4102 C 0.9985 0.41886 0.27292 0.0
C4103 C 0.98961 0.40639 0.28444 0.0
H4104 H 0.61909 0.63343 0.32702 0.0
H4105 H 0.66335 0.63012 0.32656 0.0
H4106 H 0.64761 0.60144 0.31571 0.0
H4107 H 0.59111 0.59162 0.33839 0.0
H4108 H 0.57495 0.58958 0.32451 0.0
H4109 H 0.58954 0.60952 0.33306 0.0
H4110 H 0.59642 0.62096 0.30324 0.0
H4111 H 0.5819 0.60103 0.29459 0.0
H4112 H 0.6028 0.61095 0.2882 0.0
H4113 H 0.62712 0.5732 0.30521 0.0
H4114 H 0.60334 0.54743 0.29474 0.0
H4115 H 0.57266 0.56969 0.29995 0.0
C4116 C 0.62538 0.62654 0.32482 0.0
C4117 C 0.64236 0.63381 0.32778 0.0
C4118 C 0.65032 0.62467 0.32439 0.0
C4119 C 0.64149 0.60841 0.31825 0.0
C4120 C 0.62478 0.60162 0.31527 0.0
C4121 C 0.61681 0.61042 0.31829 0.0
C4122 C 0.59892 0.6005 0.31317 0.0
C4123 C 0.58799 0.59764 0.32819 0.0
C4124 C 0.59477 0.60886 0.29896 0.0
C4125 C 0.59802 0.58464 0.30717 0.0
C4126 C 0.61307 0.58555 0.30852 0.0
C4127 C 0.61528 0.57235 0.30402 0.0
C4128 C 0.60171 0.55778 0.29808 0.0
C4129 C 0.58614 0.55652 0.2966 0.0
C4130 C 0.58438 0.57025 0.30103 0.0
H4131 H 0.3583 0.97401 0.31507 0.0
H4132 H 0.35489 0.01875 0.31587 0.0
H4133 H 0.37984 0.03265 0.29951 0.0
H4134 H 0.4012 0.99366 0.3205 0.0
H4135 H 0.40368 0.97958 0.30696 0.0
H4136 H 0.38488 0.97273 0.31768 0.0
H4137 H 0.36881 0.96358 0.28949 0.0
H4138 H 0.38759 0.97046 0.27867 0.0
H4139 H 0.3741 0.97824 0.27305 0.0
H4140 H 0.40576 0.04217 0.28437 0.0
H4141 H 0.43148 0.04696 0.27204 0.0
H4142 H 0.41846 0.99627 0.28117 0.0
C4143 C 0.36265 0.98667 0.31162 0.0
C4144 C 0.35452 0.99524 0.3167 0.0
C4145 C 0.36084 0.01188 0.31213 0.0
C4146 C 0.37499 0.01989 0.30278 0.0
C4147 C 0.38273 0.01111 0.29809 0.0
C4148 C 0.37683 0.99489 0.30237 0.0
C4149 C 0.38797 0.98856 0.29647 0.0
C4150 C 0.39484 0.98333 0.31129 0.0
C4151 C 0.37908 0.97437 0.28366 0.0
C4152 C 0.40117 0.00384 0.28841 0.0
C4153 C 0.3978 0.01665 0.28936 0.0
C4154 C 0.40843 0.03218 0.28335 0.0
C4155 C 0.42298 0.03477 0.27632 0.0
C4156 C 0.42679 0.0219 0.27527 0.0
C4157 C 0.41568 0.00621 0.2814 0.0
H4158 H 0.61696 0.96886 0.31652 0.0
H4159 H 0.65569 0.0196 0.31844 0.0
H4160 H 0.63664 0.02841 0.30707 0.0
H4161 H 0.59756 0.97051 0.27777 0.0
H4162 H 0.57773 0.95549 0.28483 0.0
H4163 H 0.59567 0.95503 0.29219 0.0
H4164 H 0.58786 0.95647 0.32254 0.0
H4165 H 0.57007 0.9573 0.31553 0.0
H4166 H 0.58493 0.97329 0.32923 0.0
H4167 H 0.612 0.03635 0.29925 0.0
H4168 H 0.58075 0.03311 0.28894 0.0
H4169 H 0.55652 0.96998 0.29101 0.0
C4170 C 0.62133 0.98179 0.31436 0.0
C4171 C 0.6376 0.99361 0.31837 0.0
C4172 C 0.64321 0.0104 0.31531 0.0
C4173 C 0.63247 0.01548 0.30895 0.0
C4174 C 0.61631 0.0036 0.30539 0.0
C4175 C 0.61064 0.9867 0.30775 0.0
C4176 C 0.59254 0.97475 0.30336 0.0
C4177 C 0.59078 0.96327 0.28867 0.0
C4178 C 0.58332 0.96488 0.31857 0.0
C4179 C 0.58661 0.98623 0.29835 0.0
C4180 C 0.6032 0.0062 0.29965 0.0
C4181 C 0.60144 0.02431 0.29721 0.0
C4182 C 0.58195 0.02245 0.29179 0.0
C4183 C 0.56582 0.00091 0.28581 0.0
C4184 C 0.56654 0.98237 0.29307 0.0
H4185 H 0.03242 0.64264 0.32014 0.0
H4186 H 0.9918 0.65147 0.31156 0.0
H4187 H 0.97593 0.62382 0.29835 0.0
H4188 H 0.02746 0.61943 0.28194 0.0
H4189 H 0.03282 0.60545 0.29186 0.0
H4190 H 0.04123 0.62625 0.29981 0.0
H4191 H 0.03006 0.61522 0.32899 0.0
H4192 H 0.02166 0.59441 0.32115 0.0
H4193 H 0.00865 0.60083 0.33105 0.0
H4194 H 0.96423 0.59479 0.28679 0.0
H4195 H 0.95735 0.56636 0.27875 0.0
H4196 H 0.00551 0.57668 0.29547 0.0
C4197 C 0.02026 0.63889 0.31534 0.0
C4198 C 0.01341 0.64931 0.31682 0.0
C4199 C 0.99733 0.64373 0.31057 0.0
C4200 C 0.98824 0.62807 0.303 0.0
C4201 C 0.99537 0.61812 0.30182 0.0
C4202 C 0.011 0.6233 0.30787 0.0
C4203 C 0.01562 0.61002 0.30575 0.0
C4204 C 0.03015 0.61563 0.29415 0.0
C4205 C 0.0192 0.60482 0.32275 0.0
C4206 C 1.0001 0.59647 0.29767 0.0
C4207 C 0.9886 0.60141 0.29537 0.0
C4208 C 0.97318 0.59083 0.28843 0.0
C4209 C 0.96939 0.57476 0.28388 0.0
C4210 C 0.98096 0.56943 0.28632 0.0
C4211 C 0.99651 0.5805 0.29326 0.0
H4212 H 0.36158 0.34671 0.30795 0.0
H4213 H 0.37553 0.38374 0.34735 0.0
H4214 H 0.40327 0.3989 0.33625 0.0
H4215 H 0.39958 0.34663 0.30665 0.0
H4216 H 0.39902 0.34425 0.2843 0.0
H4217 H 0.38028 0.33617 0.29543 0.0
H4218 H 0.37112 0.35302 0.2771 0.0
H4219 H 0.38979 0.36107 0.26586 0.0
H4220 H 0.38424 0.37497 0.27571 0.0
H4221 H 0.42957 0.40985 0.32109 0.0
H4222 H 0.45232 0.41636 0.30225 0.0
H4223 H 0.42072 0.37283 0.27211 0.0
C4224 C 0.37047 0.358 0.31425 0.0
C4225 C 0.36642 0.36403 0.32854 0.0
C4226 C 0.37836 0.37891 0.33637 0.0
C4227 C 0.39416 0.38759 0.33019 0.0
C4228 C 0.39778 0.38129 0.3161 0.0
C4229 C 0.38625 0.36691 0.30815 0.0
C4230 C 0.3932 0.363 0.29302 0.0
C4231 C 0.39301 0.34654 0.29498 0.0
C4232 C 0.38404 0.36302 0.27698 0.0
C4233 C 0.41044 0.3774 0.29375 0.0
C4234 C 0.41287 0.38773 0.30722 0.0
C4235 C 0.42784 0.40179 0.31055 0.0
C4236 C 0.4407 0.40535 0.29983 0.0
C4237 C 0.43857 0.39488 0.28599 0.0
C4238 C 0.42306 0.38088 0.2828 0.0
H4239 H 0.35614 0.32173 0.36456 0.0
H4240 H 0.31817 0.30067 0.40098 0.0
H4241 H 0.33301 0.28848 0.41537 0.0
H4242 H 0.35979 0.28698 0.35988 0.0
H4243 H 0.38148 0.2976 0.35682 0.0
H4244 H 0.36974 0.30737 0.35141 0.0
H4245 H 0.38841 0.33234 0.37068 0.0
H4246 H 0.40031 0.32269 0.3761 0.0
H4247 H 0.39142 0.32904 0.39225 0.0
H4248 H 0.3505 0.27634 0.424 0.0
H4249 H 0.3683 0.26406 0.42552 0.0
H4250 H 0.39358 0.29143 0.38192 0.0
C4251 C 0.35131 0.31507 0.37593 0.0
C4252 C 0.33626 0.31243 0.38195 0.0
C4253 C 0.32984 0.30301 0.39638 0.0
C4254 C 0.33819 0.29609 0.40463 0.0
C4255 C 0.35282 0.29853 0.39812 0.0
C4256 C 0.35929 0.30775 0.38405 0.0
C4257 C 0.37397 0.30672 0.3783 0.0
C4258 C 0.37106 0.29921 0.36056 0.0
C4259 C 0.38944 0.32371 0.37941 0.0
C4260 C 0.37455 0.29521 0.39112 0.0
C4261 C 0.36247 0.2909 0.40263 0.0
C4262 C 0.36016 0.27982 0.41518 0.0
C4263 C 0.37036 0.27286 0.4159 0.0
C4264 C 0.38273 0.27685 0.40409 0.0
C4265 C 0.3847 0.28823 0.39152 0.0
H4266 H 0.70703 0.02222 0.39012 0.0
H4267 H 0.66203 0.01693 0.3687 0.0
H4268 H 0.66825 0.0435 0.38173 0.0
H4269 H 0.70634 0.04268 0.4296 0.0
H4270 H 0.72817 0.05582 0.43006 0.0
H4271 H 0.71917 0.03554 0.4206 0.0
H4272 H 0.73408 0.04831 0.39326 0.0
H4273 H 0.74291 0.06863 0.40252 0.0
H4274 H 0.73108 0.06389 0.38334 0.0
H4275 H 0.68087 0.07208 0.39461 0.0
H4276 H 0.69813 0.09956 0.40791 0.0
H4277 H 0.73441 0.08566 0.42121 0.0
C4278 C 0.69826 0.02642 0.38845 0.0
C4279 C 0.68401 0.01741 0.37839 0.0
C4280 C 0.67297 0.02349 0.37645 0.0
C4281 C 0.67642 0.03862 0.38376 0.0
C4282 C 0.69085 0.04743 0.39312 0.0
C4283 C 0.70147 0.04142 0.3957 0.0
C4284 C 0.71653 0.05359 0.40559 0.0
C4285 C 0.71761 0.04648 0.42247 0.0
C4286 C 0.73206 0.05892 0.39557 0.0
C4287 C 0.71295 0.06759 0.4078 0.0
C4288 C 0.69806 0.0638 0.40058 0.0
C4289 C 0.69248 0.07512 0.40043 0.0
C4290 C 0.70238 0.09071 0.40789 0.0
C4291 C 0.71773 0.09486 0.41527 0.0
C4292 C 0.72288 0.08297 0.41543 0.0
H4293 H 0.97266 0.68725 0.35291 0.0
H4294 H 0.98847 0.65813 0.38138 0.0
H4295 H 0.96186 0.64423 0.395 0.0
H4296 H 0.95018 0.69295 0.38599 0.0
H4297 H 0.93421 0.69149 0.37218 0.0
H4298 H 0.95454 0.6992 0.36465 0.0
H4299 H 0.94326 0.67702 0.34095 0.0
H4300 H 0.92291 0.66926 0.3484 0.0
H4301 H 0.93118 0.65561 0.3461 0.0
H4302 H 0.93306 0.63254 0.40454 0.0
H4303 H 0.90458 0.62486 0.4103 0.0
H4304 H 0.9079 0.66247 0.37671 0.0
C4305 C 0.97053 0.67797 0.36203 0.0
C4306 C 0.98263 0.67375 0.36607 0.0
C4307 C 0.97939 0.66159 0.37811 0.0
C4308 C 0.9643 0.65361 0.38591 0.0
C4309 C 0.95262 0.65802 0.38164 0.0
C4310 C 0.95558 0.66999 0.37006 0.0
C4311 C 0.94096 0.67247 0.36777 0.0
C4312 C 0.94523 0.69007 0.37296 0.0
C4313 C 0.93418 0.66834 0.34974 0.0
C4314 C 0.9293 0.65996 0.37978 0.0
C4315 C 0.93623 0.6517 0.38759 0.0
C4316 C 0.92758 0.63911 0.3987 0.0
C4317 C 0.91142 0.63487 0.40195 0.0
C4318 C 0.90416 0.64342 0.39433 0.0
C4319 C 0.91328 0.65604 0.38303 0.0
H4320 H 0.35503 0.99355 0.69533 0.0
H4321 H 0.36663 0.03528 0.72788 0.0
H4322 H 0.37845 0.0248 0.7489 0.0
H4323 H 0.34566 0.962 0.7266 0.0
H4324 H 0.35471 0.95241 0.71443 0.0
H4325 H 0.34555 0.96307 0.7042 0.0
H4326 H 0.37235 0.98093 0.68921 0.0
H4327 H 0.38209 0.97097 0.69965 0.0
H4328 H 0.39094 0.99304 0.70121 0.0
H4329 H 0.39305 0.01292 0.77026 0.0
H4330 H 0.41061 0.99658 0.78178 0.0
H4331 H 0.38854 0.95914 0.72894 0.0
C4332 C 0.35973 1.00008 0.70713 0.0
C4333 C 0.35979 0.015 0.71027 0.0
C4334 C 0.3664 0.02373 0.72545 0.0
C4335 C 0.37309 0.01788 0.73742 0.0
C4336 C 0.37334 0.0034 0.73396 0.0
C4337 C 0.36685 0.99435 0.71892 0.0
C4338 C 0.36929 0.97927 0.71626 0.0
C4339 C 0.35283 0.96324 0.71532 0.0
C4340 C 0.37925 0.98117 0.70067 0.0
C4341 C 0.37876 0.9798 0.73168 0.0
C4342 C 0.38127 0.99651 0.74376 0.0
C4343 C 0.39226 0.00261 0.76324 0.0
C4344 C 0.40261 0.9921 0.77086 0.0
C4345 C 0.40357 0.97765 0.7552 0.0
C4346 C 0.38834 0.96806 0.73751 0.0
H4347 H 0.00887 0.36792 0.6977 0.0
H4348 H 0.98374 0.33215 0.73564 0.0
H4349 H 0.98866 0.35457 0.75567 0.0
H4350 H 0.04111 0.39831 0.72448 0.0
H4351 H 0.04246 0.41511 0.7124 0.0
H4352 H 0.03602 0.39537 0.70251 0.0
H4353 H 0.00982 0.3946 0.69169 0.0
H4354 H 0.01565 0.41409 0.70179 0.0
H4355 H 0.99634 0.39629 0.7062 0.0
H4356 H 0.99378 0.38122 0.77607 0.0
H4357 H 0.00283 0.41433 0.78743 0.0
H4358 H 0.02915 0.43473 0.73027 0.0
C4359 C 0.00465 0.36504 0.71034 0.0
C4360 C 0.9959 0.34854 0.7153 0.0
C4361 C 0.99055 0.34483 0.7318 0.0
C4362 C 0.99321 0.35745 0.74316 0.0
C4363 C 0.0016 0.37368 0.73795 0.0
C4364 C 0.00783 0.37775 0.72179 0.0
C4365 C 0.01752 0.39627 0.7179 0.0
C4366 C 0.03533 0.40157 0.7141 0.0
C4367 C 0.00935 0.40056 0.70355 0.0
C4368 C 0.01662 0.4041 0.73386 0.0
C4369 C 0.00512 0.38827 0.74741 0.0
C4370 C 0.00049 0.39159 0.76809 0.0
C4371 C 0.00676 0.41212 0.77557 0.0
C4372 C 0.0148 0.42795 0.75895 0.0
C4373 C 0.02379 0.42519 0.73942 0.0
H4374 H 0.6367 0.63897 0.71635 0.0
H4375 H 0.62163 0.62962 0.66425 0.0
H4376 H 0.59293 0.61236 0.67225 0.0
H4377 H 0.61127 0.59847 0.72837 0.0
H4378 H 0.60668 0.60356 0.74854 0.0
H4379 H 0.62555 0.61747 0.73892 0.0
H4380 H 0.61859 0.64099 0.74152 0.0
H4381 H 0.59967 0.62711 0.75117 0.0
H4382 H 0.59956 0.63806 0.73284 0.0
H4383 H 0.56652 0.59444 0.68559 0.0
H4384 H 0.54421 0.57526 0.7033 0.0
H4385 H 0.57646 0.59439 0.74686 0.0
C4386 C 0.62723 0.63366 0.70671 0.0
C4387 C 0.63118 0.63582 0.68971 0.0
C4388 C 0.6187 0.62821 0.67734 0.0
C4389 C 0.6024 0.61846 0.68177 0.0
C4390 C 0.59886 0.61626 0.69864 0.0
C4391 C 0.61091 0.62351 0.71095 0.0
C4392 C 0.60406 0.6175 0.72804 0.0
C4393 C 0.61239 0.60873 0.73645 0.0
C4394 C 0.60556 0.63177 0.73904 0.0
C4395 C 0.58639 0.60551 0.72337 0.0
C4396 C 0.58361 0.60528 0.70638 0.0
C4397 C 0.56847 0.59469 0.69894 0.0
C4398 C 0.55587 0.58387 0.70908 0.0
C4399 C 0.55847 0.58361 0.72648 0.0
C4400 C 0.57396 0.59465 0.73368 0.0
H4401 H 0.64829 0.67874 0.64996 0.0
H4402 H 0.69467 0.70308 0.62524 0.0
H4403 H 0.68519 0.71902 0.60877 0.0
H4404 H 0.62222 0.67856 0.61342 0.0
H4405 H 0.60958 0.6828 0.62689 0.0
H4406 H 0.6187 0.67098 0.63438 0.0
H4407 H 0.63182 0.6915 0.65931 0.0
H4408 H 0.623 0.70353 0.65179 0.0
H4409 H 0.64473 0.7131 0.65539 0.0
H4410 H 0.67284 0.73532 0.59852 0.0
H4411 H 0.658 0.75035 0.59407 0.0
H4412 H 0.61891 0.71536 0.62478 0.0
C4413 C 0.65616 0.68693 0.64058 0.0
C4414 C 0.67214 0.68958 0.63873 0.0
C4415 C 0.68235 0.70083 0.62678 0.0
C4416 C 0.67706 0.7099 0.61733 0.0
C4417 C 0.66151 0.70756 0.61994 0.0
C4418 C 0.65109 0.69622 0.63111 0.0
C4419 C 0.63571 0.69743 0.6328 0.0
C4420 C 0.62066 0.68149 0.62649 0.0
C4421 C 0.63371 0.70164 0.65089 0.0
C4422 C 0.63944 0.71162 0.62135 0.0
C4423 C 0.6543 0.71714 0.61396 0.0
C4424 C 0.66104 0.73095 0.604 0.0
C4425 C 0.65247 0.73949 0.60165 0.0
C4426 C 0.63725 0.73427 0.6093 0.0
C4427 C 0.63054 0.71983 0.6189 0.0
H4428 H 0.31917 0.97455 0.64627 0.0
H4429 H 0.27973 0.98176 0.66306 0.0
H4430 H 0.25977 0.95628 0.64813 0.0
H4431 H 0.30542 0.95994 0.60628 0.0
H4432 H 0.31282 0.94544 0.60619 0.0
H4433 H 0.32274 0.96367 0.61929 0.0
H4434 H 0.31844 0.94604 0.64525 0.0
H4435 H 0.30872 0.92763 0.63232 0.0
H4436 H 0.29824 0.92984 0.64988 0.0
H4437 H 0.23988 0.93136 0.62575 0.0
H4438 H 0.22777 0.90361 0.6024 0.0
H4439 H 0.28621 0.91189 0.60231 0.0
C4440 C 0.30628 0.97052 0.64685 0.0
C4441 C 0.3009 0.98002 0.65567 0.0
C4442 C 0.28404 0.97455 0.65642 0.0
C4443 C 0.27264 0.96015 0.64794 0.0
C4444 C 0.27819 0.95109 0.63908 0.0
C4445 C 0.29487 0.95584 0.63864 0.0
C4446 C 0.29924 0.94455 0.62836 0.0
C4447 C 0.31073 0.95397 0.6142 0.0
C4448 C 0.3066 0.93654 0.63962 0.0
C4449 C 0.28298 0.93179 0.6214 0.0
C4450 C 0.26856 0.93656 0.62894 0.0
C4451 C 0.24787 0.92696 0.62143 0.0
C4452 C 0.24051 0.91044 0.60622 0.0
C4453 C 0.25508 0.90262 0.60237 0.0
C4454 C 0.27758 0.9156 0.60627 0.0
H4455 H 0.0248 0.31209 0.63676 0.0
H4456 H 0.03166 0.35038 0.67231 0.0
H4457 H 0.05799 0.36931 0.66 0.0
H4458 H 0.0663 0.32082 0.63451 0.0
H4459 H 0.0642 0.31543 0.61262 0.0
H4460 H 0.04674 0.30578 0.62575 0.0
H4461 H 0.03096 0.31511 0.60625 0.0
H4462 H 0.04828 0.32495 0.593 0.0
H4463 H 0.03955 0.33664 0.6017 0.0
H4464 H 0.0855 0.39016 0.64298 0.0
H4465 H 0.11192 0.40274 0.61964 0.0
H4466 H 0.08415 0.34468 0.59185 0.0
C4467 C 0.03199 0.32444 0.64196 0.0
C4468 C 0.02624 0.32976 0.6555 0.0
C4469 C 0.03579 0.34602 0.66192 0.0
C4470 C 0.05079 0.35686 0.65505 0.0
C4471 C 0.05616 0.35139 0.64168 0.0
C4472 C 0.04695 0.33533 0.63487 0.0
C4473 C 0.05409 0.33125 0.61951 0.0
C4474 C 0.05806 0.31751 0.62333 0.0
C4475 C 0.04253 0.32672 0.60422 0.0
C4476 C 0.06942 0.34715 0.61687 0.0
C4477 C 0.07078 0.36083 0.63256 0.0
C4478 C 0.08595 0.38213 0.63347 0.0
C4479 C 0.10178 0.39031 0.61842 0.0
C4480 C 0.10252 0.37423 0.60497 0.0
C4481 C 0.08425 0.35339 0.60091 0.0
H4482 H 0.31174 0.33705 0.63677 0.0
H4483 H 0.28365 0.31945 0.68164 0.0
H4484 H 0.26742 0.33247 0.67328 0.0
H4485 H 0.31388 0.37579 0.63596 0.0
H4486 H 0.31153 0.37605 0.61365 0.0
H4487 H 0.32047 0.36465 0.62265 0.0
H4488 H 0.29885 0.33808 0.60716 0.0
H4489 H 0.28997 0.34944 0.59794 0.0
H4490 H 0.2775 0.33123 0.60961 0.0
H4491 H 0.25553 0.34898 0.66102 0.0
H4492 H 0.24742 0.36616 0.6446 0.0
H4493 H 0.2823 0.3717 0.6071 0.0
C4494 C 0.30204 0.33576 0.64472 0.0
C4495 C 0.29895 0.32724 0.65985 0.0
C4496 C 0.28617 0.32584 0.66994 0.0
C4497 C 0.27692 0.33324 0.66534 0.0
C4498 C 0.28048 0.34182 0.65051 0.0
C4499 C 0.29255 0.3429 0.64022 0.0
C4500 C 0.29395 0.35291 0.62498 0.0
C4501 C 0.31097 0.36826 0.62428 0.0
C4502 C 0.28982 0.34228 0.60898 0.0
C4503 C 0.281 0.35755 0.62849 0.0
C4504 C 0.27341 0.35109 0.6433 0.0
C4505 C 0.26136 0.35409 0.64938 0.0
C4506 C 0.25691 0.36393 0.64003 0.0
C4507 C 0.26454 0.37073 0.62481 0.0
C4508 C 0.27653 0.36717 0.61889 0.0
H4509 H 0.68034 0.97311 0.62768 0.0
H4510 H 0.6419 0.97805 0.65145 0.0
H4511 H 0.62134 0.95172 0.63831 0.0
H4512 H 0.65769 0.95459 0.58857 0.0
H4513 H 0.66631 0.94123 0.58638 0.0
H4514 H 0.67785 0.96094 0.59691 0.0
H4515 H 0.68123 0.94648 0.62286 0.0
H4516 H 0.66956 0.92673 0.61249 0.0
H4517 H 0.66336 0.93045 0.63244 0.0
H4518 H 0.60509 0.92386 0.62409 0.0
H4519 H 0.59434 0.89736 0.60852 0.0
H4520 H 0.64335 0.91122 0.5935 0.0
C4521 C 0.6676 0.9688 0.62999 0.0
C4522 C 0.66278 0.9777 0.64062 0.0
C4523 C 0.64594 0.97154 0.64329 0.0
C4524 C 0.63415 0.95655 0.63592 0.0
C4525 C 0.63937 0.94795 0.62579 0.0
C4526 C 0.65567 0.95395 0.62265 0.0
C4527 C 0.65811 0.94221 0.61151 0.0
C4528 C 0.66542 0.95022 0.59485 0.0
C4529 C 0.66869 0.93611 0.62036 0.0
C4530 C 0.64065 0.9285 0.60914 0.0
C4531 C 0.63001 0.93203 0.61748 0.0
C4532 C 0.6133 0.92099 0.61747 0.0
C4533 C 0.60732 0.90597 0.60869 0.0
C4534 C 0.61802 0.90208 0.60011 0.0
C4535 C 0.63488 0.91367 0.60018 0.0
H4536 H 0.02626 0.68551 0.63529 0.0
H4537 H 0.04429 0.71232 0.68238 0.0
H4538 H 0.07244 0.72511 0.67239 0.0
H4539 H 0.05949 0.67779 0.62819 0.0
H4540 H 0.05985 0.68109 0.60607 0.0
H4541 H 0.04106 0.67365 0.61701 0.0
H4542 H 0.03792 0.69802 0.60615 0.0
H4543 H 0.05665 0.70548 0.59511 0.0
H4544 H 0.05426 0.71881 0.60979 0.0
H4545 H 0.09857 0.73473 0.65758 0.0
H4546 H 0.12102 0.74172 0.63821 0.0
H4547 H 0.08592 0.70997 0.60016 0.0
C4548 C 0.03616 0.69403 0.64349 0.0
C4549 C 0.03314 0.69788 0.65962 0.0
C4550 C 0.04635 0.70923 0.66995 0.0
C4551 C 0.06238 0.71651 0.66442 0.0
C4552 C 0.06497 0.71247 0.64846 0.0
C4553 C 0.05224 0.70163 0.63806 0.0
C4554 C 0.05837 0.69989 0.62126 0.0
C4555 C 0.05446 0.68205 0.61795 0.0
C4556 C 0.05139 0.70591 0.60725 0.0
C4557 C 0.07653 0.71131 0.62394 0.0
C4558 C 0.08007 0.71834 0.63975 0.0
C4559 C 0.09598 0.72925 0.64517 0.0
C4560 C 0.10864 0.73309 0.63412 0.0
C4561 C 0.10537 0.72602 0.61784 0.0
C4562 C 0.089 0.7152 0.61266 0.0
H4563 H 0.9739 0.62347 0.71872 0.0
H4564 H 0.02086 0.66179 0.70197 0.0
H4565 H 0.03444 0.64879 0.71695 0.0
H4566 H 0.98817 0.61997 0.75997 0.0
H4567 H 0.97498 0.59798 0.76049 0.0
H4568 H 0.96893 0.61043 0.7486 0.0
H4569 H 0.96526 0.59261 0.72221 0.0
H4570 H 0.97143 0.58019 0.73398 0.0
H4571 H 0.98206 0.59014 0.71542 0.0
H4572 H 0.04294 0.63132 0.73296 0.0
H4573 H 0.04588 0.61112 0.75024 0.0
H4574 H 0.99361 0.58462 0.75726 0.0
C4575 C 0.98705 0.6292 0.71825 0.0
C4576 C 0.99628 0.64367 0.70913 0.0
C4577 C 0.01348 0.65075 0.70891 0.0
C4578 C 0.02133 0.64343 0.71733 0.0
C4579 C 0.01185 0.62911 0.72604 0.0
C4580 C 0.99511 0.62213 0.72671 0.0
C4581 C 0.98782 0.60676 0.73709 0.0
C4582 C 0.97949 0.60892 0.75245 0.0
C4583 C 0.97594 0.59152 0.72654 0.0
C4584 C 0.00307 0.6061 0.742 0.0
C4585 C 0.01679 0.61909 0.73544 0.0
C4586 C 0.03229 0.62109 0.73815 0.0
C4587 C 0.03384 0.60953 0.74789 0.0
C4588 C 0.01997 0.59612 0.75476 0.0
C4589 C 0.0044 0.59453 0.75188 0.0
H4590 H 0.37926 0.36418 0.7159 0.0
H4591 H 0.33519 0.36026 0.69349 0.0
H4592 H 0.34227 0.38739 0.70565 0.0
H4593 H 0.37726 0.38328 0.75448 0.0
H4594 H 0.39905 0.39632 0.75662 0.0
H4595 H 0.39069 0.37671 0.74585 0.0
H4596 H 0.40735 0.39122 0.71988 0.0
H4597 H 0.41568 0.41089 0.73054 0.0
H4598 H 0.4052 0.40761 0.71068 0.0
H4599 H 0.35431 0.41513 0.71972 0.0
H4600 H 0.36975 0.44097 0.73632 0.0
H4601 H 0.40521 0.42625 0.75071 0.0
C4602 C 0.37112 0.36905 0.71354 0.0
C4603 C 0.35669 0.36011 0.70371 0.0
C4604 C 0.34627 0.36683 0.70105 0.0
C4605 C 0.35021 0.38227 0.70784 0.0
C4606 C 0.36453 0.39078 0.71741 0.0
C4607 C 0.37474 0.38435 0.72043 0.0
C4608 C 0.38912 0.39581 0.7316 0.0
C4609 C 0.38901 0.38754 0.74811 0.0
C4610 C 0.40529 0.40173 0.72264 0.0
C4611 C 0.38546 0.40973 0.73426 0.0
C4612 C 0.37128 0.40663 0.72587 0.0
C4613 C 0.36545 0.41772 0.72634 0.0
C4614 C 0.37431 0.43236 0.73572 0.0
C4615 C 0.38883 0.43579 0.74451 0.0
C4616 C 0.39435 0.42418 0.74386 0.0
H4617 H 0.6402 0.02541 0.69033 0.0
H4618 H 0.64504 0.98533 0.71135 0.0
H4619 H 0.6193 0.97607 0.72624 0.0
H4620 H 0.62381 0.03428 0.72702 0.0
H4621 H 0.61027 0.03896 0.71513 0.0
H4622 H 0.62918 0.04252 0.70643 0.0
H4623 H 0.61339 0.0242 0.6807 0.0
H4624 H 0.59444 0.02058 0.68931 0.0
H4625 H 0.59723 0.00342 0.68371 0.0
H4626 H 0.5921 0.9703 0.73744 0.0
H4627 H 0.5664 0.96932 0.74522 0.0
H4628 H 0.58019 0.01392 0.71779 0.0
C4629 C 0.63589 0.01472 0.69811 0.0
C4630 C 0.64458 0.00605 0.69967 0.0
C4631 C 0.63857 0.99216 0.71001 0.0
C4632 C 0.62397 0.98681 0.7185 0.0
C4633 C 0.61564 0.99558 0.71661 0.0
C4634 C 0.62146 0.00932 0.70677 0.0
C4635 C 0.61022 0.01656 0.70673 0.0
C4636 C 0.61889 0.03412 0.71428 0.0
C4637 C 0.60342 0.01616 0.68906 0.0
C4638 C 0.59705 0.00465 0.71795 0.0
C4639 C 0.60035 0.99261 0.7235 0.0
C4640 C 0.58953 0.97984 0.73341 0.0
C4641 C 0.57499 0.97941 0.73782 0.0
C4642 C 0.57154 0.99185 0.73252 0.0
C4643 C 0.58273 0.00452 0.72238 0.0
loop_
_geom_bond_atom_site_label_1
_geom_bond_atom_site_label_2
_geom_bond_distance
_geom_bond_site_symmetry_2
_ccdc_geom_bond_type
Mn0 O5 2.095 1_655 S
Mn0 O15 2.162 . S
Mn0 O16 2.297 1_554 S
Mn0 O24 2.385 1_554 S
Mn0 O25 2.209 1_654 S
Mn0 O26 2.094 . S
Mn1 O6 2.121 . S
Mn1 N8 2.257 1_554 S
Mn1 N17 2.282 . S
Mn1 O25 2.215 1_554 S
Mn1 O27 2.117 . S
C2 O24 1.234 1_455 S
C2 O25 1.283 . S
C3 O15 1.281 1_556 S
C3 O16 1.236 . S
C4 O26 1.250 . S
C4 O27 1.235 1_655 S
O5 Mn0 2.095 1_455 S
O5 C14 1.250 . S
O6 Mn1 2.121 . S
O6 C14 1.258 . S
C7 N8 1.326 . S
C7 C11 1.460 . S
C7 H13 0.917 1_556 S
N8 Mn1 2.257 1_556 S
N8 C7 1.326 . S
N8 C12 1.362 . S
C9 C10 1.258 . S
C9 C12 1.431 . S
C9 C29 1.449 . S
C10 C9 1.258 . S
C10 C11 1.477 . S
C10 H30 0.931 . S
C11 C7 1.460 . S
C11 C10 1.477 . S
C11 H31 0.930 . S
C12 N8 1.362 . S
C12 C9 1.431 . S
C12 C22 1.476 . S
H13 C7 0.917 1_554 S
C14 O5 1.250 . S
C14 O6 1.258 . S
O15 Mn0 2.162 . S
O15 C3 1.281 1_554 S
O16 Mn0 2.297 1_556 S
O16 C3 1.236 . S
N17 Mn1 2.282 . S
N17 C18 1.328 . S
N17 C22 1.318 1_554 S
C18 N17 1.328 . S
C18 C19 1.439 1_554 S
C18 H23 0.929 . S
C19 C18 1.439 1_556 S
C19 C20 1.315 . S
C19 H32 0.922 1_556 S
C20 C19 1.315 . S
C20 C21 1.373 . S
C20 H33 0.929 . S
C21 C20 1.373 . S
C21 C22 1.396 . S
C21 C28 1.403 . S
C22 C12 1.476 . S
C22 N17 1.318 1_556 S
C22 C21 1.396 . S
H23 C18 0.929 . S
O24 Mn0 2.385 1_556 S
O24 C2 1.234 1_655 S
O25 Mn0 2.209 1_456 S
O25 Mn1 2.215 1_556 S
O25 C2 1.283 . S
O26 Mn0 2.094 . S
O26 C4 1.250 . S
O27 Mn1 2.117 . S
O27 C4 1.235 1_455 S
C28 C21 1.403 . S
C28 C29 1.399 . S
C28 H34 0.929 . S
C29 C9 1.449 . S
C29 C28 1.399 . S
C29 H35 0.930 . S
H30 C10 0.931 . S
H31 C11 0.930 . S
H32 C19 0.922 1_554 S
H33 C20 0.929 . S
H34 C28 0.929 . S
H35 C29 0.930 . S
Mn36 O41 2.095 1_554 S
Mn36 O51 2.162 . S
Mn36 O52 2.297 . S
Mn36 O60 2.385 . S
Mn36 O61 2.209 . S
Mn36 O62 2.094 1_554 S
Mn37 O42 2.121 1_554 S
Mn37 N44 2.257 . S
Mn37 N53 2.282 . S
Mn37 O61 2.215 . S
Mn37 O63 2.117 1_554 S
C38 O60 1.234 . S
C38 O61 1.283 . S
C39 O51 1.281 . S
C39 O52 1.236 . S
C40 O62 1.240 . S
C40 O63 1.264 . S
O41 Mn36 2.095 1_556 S
O41 C50 1.250 . S
O42 Mn37 2.121 1_556 S
O42 C50 1.258 . S
C43 N44 1.326 . S
C43 C47 1.460 . S
C43 H49 0.929 . S
N44 Mn37 2.257 . S
N44 C43 1.326 . S
N44 C48 1.362 . S
C45 C46 1.258 . S
C45 C48 1.431 . S
C45 C65 1.449 . S
C46 C45 1.258 . S
C46 C47 1.477 . S
C46 H66 0.931 . S
C47 C43 1.460 . S
C47 C46 1.477 . S
C47 H67 0.930 . S
C48 N44 1.362 . S
C48 C45 1.431 . S
C48 C58 1.476 . S
H49 C43 0.929 . S
C50 O41 1.250 . S
C50 O42 1.258 . S
O51 Mn36 2.162 . S
O51 C39 1.281 . S
O52 Mn36 2.297 . S
O52 C39 1.236 . S
N53 Mn37 2.282 . S
N53 C54 1.328 . S
N53 C58 1.318 . S
C54 N53 1.328 . S
C54 C55 1.457 . S
C54 H59 0.929 . S
C55 C54 1.457 . S
C55 C56 1.291 . S
C55 H68 0.931 . S
C56 C55 1.291 . S
C56 C57 1.373 . S
C56 H69 0.929 . S
C57 C56 1.373 . S
C57 C58 1.396 . S
C57 C64 1.403 . S
C58 C48 1.476 . S
C58 N53 1.318 . S
C58 C57 1.396 . S
H59 C54 0.929 . S
O60 Mn36 2.385 . S
O60 C38 1.234 . S
O61 Mn36 2.209 . S
O61 Mn37 2.215 . S
O61 C38 1.283 . S
O62 Mn36 2.094 1_556 S
O62 C40 1.240 . S
O63 Mn37 2.117 1_556 S
O63 C40 1.264 . S
C64 C57 1.403 . S
C64 C65 1.399 . S
C64 H70 0.929 . S
C65 C45 1.449 . S
C65 C64 1.399 . S
C65 H71 0.930 . S
H66 C46 0.931 . S
H67 C47 0.930 . S
H68 C55 0.931 . S
H69 C56 0.929 . S
H70 C64 0.929 . S
H71 C65 0.930 . S
Mn72 O77 2.095 1_564 S
Mn72 O87 2.162 . S
Mn72 O88 2.297 . S
Mn72 O96 2.385 . S
Mn72 O97 2.209 1_565 S
Mn72 O98 2.094 1_554 S
Mn73 O78 2.111 1_554 S
Mn73 N80 2.296 . S
Mn73 N89 2.306 . S
Mn73 O97 2.262 . S
Mn73 O99 2.081 1_554 S
C74 O96 1.234 1_545 S
C74 O97 1.283 . S
C75 O87 1.281 . S
C75 O88 1.236 . S
C76 O98 1.240 . S
C76 O99 1.264 1_565 S
O77 Mn72 2.095 1_546 S
O77 C86 1.250 . S
O78 Mn73 2.111 1_556 S
O78 C86 1.258 . S
C79 N80 1.326 . S
C79 C83 1.460 . S
C79 H85 0.929 . S
N80 Mn73 2.296 . S
N80 C79 1.326 . S
N80 C84 1.362 . S
C81 C82 1.258 . S
C81 C84 1.431 . S
C81 C101 1.449 . S
C82 C81 1.258 . S
C82 C83 1.477 . S
C82 H102 0.931 . S
C83 C79 1.460 . S
C83 C82 1.477 . S
C83 H103 0.930 . S
C84 N80 1.362 . S
C84 C81 1.431 . S
C84 C94 1.476 . S
H85 C79 0.929 . S
C86 O77 1.250 . S
C86 O78 1.258 . S
O87 Mn72 2.162 . S
O87 C75 1.281 . S
O88 Mn72 2.297 . S
O88 C75 1.236 . S
N89 Mn73 2.306 . S
N89 C90 1.328 . S
N89 C94 1.318 . S
C90 N89 1.328 . S
C90 C91 1.457 . S
C90 H95 0.929 . S
C91 C90 1.457 . S
C91 C92 1.291 . S
C91 H104 0.931 . S
C92 C91 1.291 . S
C92 C93 1.373 . S
C92 H105 0.929 . S
C93 C92 1.373 . S
C93 C94 1.396 . S
C93 C100 1.403 . S
C94 C84 1.476 . S
C94 N89 1.318 . S
C94 C93 1.396 . S
H95 C90 0.929 . S
O96 Mn72 2.385 . S
O96 C74 1.234 1_565 S
O97 Mn72 2.209 1_545 S
O97 Mn73 2.262 . S
O97 C74 1.283 . S
O98 Mn72 2.094 1_556 S
O98 C76 1.240 . S
O99 Mn73 2.081 1_556 S
O99 C76 1.264 1_545 S
C100 C93 1.403 . S
C100 C101 1.399 . S
C100 H106 0.929 . S
C101 C81 1.449 . S
C101 C100 1.399 . S
C101 H107 0.930 . S
H102 C82 0.931 . S
H103 C83 0.930 . S
H104 C91 0.931 . S
H105 C92 0.929 . S
H106 C100 0.929 . S
H107 C101 0.930 . S
Mn108 O113 2.095 1_655 S
Mn108 O123 2.162 . S
Mn108 O124 2.297 1_554 S
Mn108 O132 2.385 1_554 S
Mn108 O133 2.209 1_654 S
Mn108 O134 2.094 . S
Mn109 O114 2.121 . S
Mn109 N116 2.257 . S
Mn109 N125 2.282 . S
Mn109 O133 2.215 1_554 S
Mn109 O135 2.117 . S
C110 O132 1.234 1_455 S
C110 O133 1.283 . S
C111 O123 1.281 1_556 S
C111 O124 1.236 . S
C112 O134 1.240 . S
C112 O135 1.264 1_655 S
O113 Mn108 2.095 1_455 S
O113 C122 1.250 . S
O114 Mn109 2.121 . S
O114 C122 1.258 . S
C115 N116 1.330 . S
C115 C119 1.448 1_554 S
C115 H121 0.938 . S
N116 Mn109 2.257 . S
N116 C115 1.330 . S
N116 C120 1.362 1_554 S
C117 C118 1.258 . S
C117 C120 1.431 . S
C117 C137 1.449 . S
C118 C117 1.258 . S
C118 C119 1.477 . S
C118 H138 0.931 . S
C119 C115 1.448 1_556 S
C119 C118 1.477 . S
C119 H139 0.930 . S
C120 N116 1.362 1_556 S
C120 C117 1.431 . S
C120 C130 1.476 . S
H121 C115 0.938 . S
C122 O113 1.250 . S
C122 O114 1.258 . S
O123 Mn108 2.162 . S
O123 C111 1.281 1_554 S
O124 Mn108 2.297 1_556 S
O124 C111 1.236 . S
N125 Mn109 2.282 . S
N125 C126 1.328 . S
N125 C130 1.318 1_554 S
C126 N125 1.328 . S
C126 C127 1.457 . S
C126 H131 0.929 . S
C127 C126 1.457 . S
C127 C128 1.291 1_554 S
C127 H140 0.931 . S
C128 C127 1.291 1_556 S
C128 C129 1.373 . S
C128 H141 0.929 . S
C129 C128 1.373 . S
C129 C130 1.396 . S
C129 C136 1.403 . S
C130 C120 1.476 . S
C130 N125 1.318 1_556 S
C130 C129 1.396 . S
H131 C126 0.929 . S
O132 Mn108 2.385 1_556 S
O132 C110 1.234 1_655 S
O133 Mn108 2.209 1_456 S
O133 Mn109 2.215 1_556 S
O133 C110 1.283 . S
O134 Mn108 2.094 . S
O134 C112 1.240 . S
O135 Mn109 2.117 . S
O135 C112 1.264 1_455 S
C136 C129 1.403 . S
C136 C137 1.399 . S
C136 H142 0.929 . S
C137 C117 1.449 . S
C137 C136 1.399 . S
C137 H143 0.930 . S
H138 C118 0.931 . S
H139 C119 0.930 . S
H140 C127 0.931 . S
H141 C128 0.929 . S
H142 C136 0.929 . S
H143 C137 0.930 . S
Mn144 O149 2.095 1_554 S
Mn144 O159 2.162 . S
Mn144 O160 2.297 . S
Mn144 O168 2.385 . S
Mn144 O169 2.209 . S
Mn144 O170 2.094 1_554 S
Mn145 O150 2.121 . S
Mn145 N152 2.257 1_556 S
Mn145 N161 2.282 1_556 S
Mn145 O169 2.215 1_556 S
Mn145 O171 2.117 . S
C146 O168 1.234 . S
C146 O169 1.283 . S
C147 O159 1.281 . S
C147 O160 1.236 . S
C148 O170 1.240 . S
C148 O171 1.264 . S
O149 Mn144 2.095 1_556 S
O149 C158 1.250 . S
O150 Mn145 2.121 . S
O150 C158 1.258 . S
C151 N152 1.326 . S
C151 C155 1.460 . S
C151 H157 0.929 . S
N152 Mn145 2.257 1_554 S
N152 C151 1.326 . S
N152 C156 1.362 . S
C153 C154 1.258 . S
C153 C156 1.431 . S
C153 C173 1.449 . S
C154 C153 1.258 . S
C154 C155 1.477 . S
C154 H174 0.931 . S
C155 C151 1.460 . S
C155 C154 1.477 . S
C155 H175 0.930 . S
C156 N152 1.362 . S
C156 C153 1.431 . S
C156 C166 1.476 . S
H157 C151 0.929 . S
C158 O149 1.250 . S
C158 O150 1.258 . S
O159 Mn144 2.162 . S
O159 C147 1.281 . S
O160 Mn144 2.297 . S
O160 C147 1.236 . S
N161 Mn145 2.282 1_554 S
N161 C162 1.328 . S
N161 C166 1.318 . S
C162 N161 1.328 . S
C162 C163 1.457 . S
C162 H167 0.929 1_554 S
C163 C162 1.457 . S
C163 C164 1.291 . S
C163 H176 0.931 . S
C164 C163 1.291 . S
C164 C165 1.373 . S
C164 H177 0.929 . S
C165 C164 1.373 . S
C165 C166 1.396 . S
C165 C172 1.403 . S
C166 C156 1.476 . S
C166 N161 1.318 . S
C166 C165 1.396 . S
H167 C162 0.929 1_556 S
O168 Mn144 2.385 . S
O168 C146 1.234 . S
O169 Mn144 2.209 . S
O169 Mn145 2.215 1_554 S
O169 C146 1.283 . S
O170 Mn144 2.094 1_556 S
O170 C148 1.240 . S
O171 Mn145 2.117 . S
O171 C148 1.264 . S
C172 C165 1.403 . S
C172 C173 1.399 . S
C172 H178 0.929 . S
C173 C153 1.449 . S
C173 C172 1.399 . S
C173 H179 0.930 . S
H174 C154 0.931 . S
H175 C155 0.930 . S
H176 C163 0.931 . S
H177 C164 0.929 . S
H178 C172 0.929 . S
H179 C173 0.930 . S
Mn180 O185 2.095 1_545 S
Mn180 O195 2.162 . S
Mn180 O196 2.297 1_554 S
Mn180 O204 2.385 1_554 S
Mn180 O205 2.210 1_544 S
Mn180 O206 2.094 . S
Mn181 O186 2.121 . S
Mn181 N188 2.257 . S
Mn181 N197 2.282 . S
Mn181 O205 2.217 1_554 S
Mn181 O207 2.117 . S
C182 O204 1.234 1_565 S
C182 O205 1.281 . S
C183 O195 1.281 1_556 S
C183 O196 1.236 . S
C184 O206 1.240 . S
C184 O207 1.264 1_545 S
O185 Mn180 2.095 1_565 S
O185 C194 1.250 . S
O186 Mn181 2.121 . S
O186 C194 1.258 . S
C187 N188 1.335 . S
C187 C191 1.433 1_554 S
C187 H193 0.951 . S
N188 Mn181 2.257 . S
N188 C187 1.335 . S
N188 C192 1.362 1_554 S
C189 C190 1.258 . S
C189 C192 1.431 . S
C189 C209 1.449 . S
C190 C189 1.258 . S
C190 C191 1.477 . S
C190 H210 0.931 . S
C191 C187 1.433 1_556 S
C191 C190 1.477 . S
C191 H211 0.930 . S
C192 N188 1.362 1_556 S
C192 C189 1.431 . S
C192 C202 1.476 . S
H193 C187 0.951 . S
C194 O185 1.250 . S
C194 O186 1.258 . S
O195 Mn180 2.162 . S
O195 C183 1.281 1_554 S
O196 Mn180 2.297 1_556 S
O196 C183 1.236 . S
N197 Mn181 2.282 . S
N197 C198 1.328 . S
N197 C202 1.318 1_554 S
C198 N197 1.328 . S
C198 C199 1.457 . S
C198 H203 0.929 . S
C199 C198 1.457 . S
C199 C200 1.291 1_554 S
C199 H212 0.931 . S
C200 C199 1.291 1_556 S
C200 C201 1.373 . S
C200 H213 0.929 . S
C201 C200 1.373 . S
C201 C202 1.396 . S
C201 C208 1.403 . S
C202 C192 1.476 . S
C202 N197 1.318 1_556 S
C202 C201 1.396 . S
H203 C198 0.929 . S
O204 Mn180 2.385 1_556 S
O204 C182 1.234 1_545 S
O205 Mn180 2.210 1_566 S
O205 Mn181 2.217 1_556 S
O205 C182 1.281 . S
O206 Mn180 2.094 . S
O206 C184 1.240 . S
O207 Mn181 2.117 . S
O207 C184 1.264 1_565 S
C208 C201 1.403 . S
C208 C209 1.399 . S
C208 H214 0.929 . S
C209 C189 1.449 . S
C209 C208 1.399 . S
C209 H215 0.930 . S
H210 C190 0.931 . S
H211 C191 0.930 . S
H212 C199 0.931 . S
H213 C200 0.929 . S
H214 C208 0.929 . S
H215 C209 0.930 . S
Mn216 O221 2.095 . S
Mn216 O231 2.162 . S
Mn216 O232 2.297 . S
Mn216 O240 2.385 . S
Mn216 O241 2.209 . S
Mn216 O242 2.094 . S
Mn217 O222 2.121 . S
Mn217 N224 2.257 . S
Mn217 N233 2.282 . S
Mn217 O241 2.215 . S
Mn217 O243 2.117 . S
C218 O240 1.234 . S
C218 O241 1.283 . S
C219 O231 1.281 . S
C219 O232 1.236 . S
C220 O242 1.240 . S
C220 O243 1.264 . S
O221 Mn216 2.095 . S
O221 C230 1.250 . S
O222 Mn217 2.121 . S
O222 C230 1.258 . S
C223 N224 1.326 . S
C223 C227 1.460 . S
C223 H229 0.929 . S
N224 Mn217 2.257 . S
N224 C223 1.326 . S
N224 C228 1.362 . S
C225 C226 1.258 . S
C225 C228 1.431 . S
C225 C245 1.449 . S
C226 C225 1.258 . S
C226 C227 1.477 . S
C226 H246 0.931 . S
C227 C223 1.460 . S
C227 C226 1.477 . S
C227 H247 0.930 . S
C228 N224 1.362 . S
C228 C225 1.431 . S
C228 C238 1.476 . S
H229 C223 0.929 . S
C230 O221 1.250 . S
C230 O222 1.258 . S
O231 Mn216 2.162 . S
O231 C219 1.281 . S
O232 Mn216 2.297 . S
O232 C219 1.236 . S
N233 Mn217 2.282 . S
N233 C234 1.328 . S
N233 C238 1.318 . S
C234 N233 1.328 . S
C234 C235 1.457 . S
C234 H239 0.929 . S
C235 C234 1.457 . S
C235 C236 1.291 . S
C235 H248 0.931 . S
C236 C235 1.291 . S
C236 C237 1.373 . S
C236 H249 0.929 . S
C237 C236 1.373 . S
C237 C238 1.396 . S
C237 C244 1.403 . S
C238 C228 1.476 . S
C238 N233 1.318 . S
C238 C237 1.396 . S
H239 C234 0.929 . S
O240 Mn216 2.385 . S
O240 C218 1.234 . S
O241 Mn216 2.209 . S
O241 Mn217 2.215 . S
O241 C218 1.283 . S
O242 Mn216 2.094 . S
O242 C220 1.240 . S
O243 Mn217 2.117 . S
O243 C220 1.264 . S
C244 C237 1.403 . S
C244 C245 1.399 . S
C244 H250 0.929 . S
C245 C225 1.449 . S
C245 C244 1.399 . S
C245 H251 0.930 . S
H246 C226 0.931 . S
H247 C227 0.930 . S
H248 C235 0.931 . S
H249 C236 0.929 . S
H250 C244 0.929 . S
H251 C245 0.930 . S
Mn252 O257 2.095 . S
Mn252 O267 2.162 1_565 S
Mn252 O268 2.297 1_565 S
Mn252 O276 2.385 . S
Mn252 O277 2.209 . S
Mn252 O278 2.094 . S
Mn253 O258 2.121 . S
Mn253 N260 2.257 . S
Mn253 N269 2.282 . S
Mn253 O277 2.215 . S
Mn253 O279 2.117 . S
C254 O276 1.234 . S
C254 O277 1.283 . S
C255 O267 1.281 . S
C255 O268 1.236 . S
C256 O278 1.240 . S
C256 O279 1.264 . S
O257 Mn252 2.095 . S
O257 C266 1.250 . S
O258 Mn253 2.121 . S
O258 C266 1.258 . S
C259 N260 1.326 . S
C259 C263 1.460 . S
C259 H265 0.929 . S
N260 Mn253 2.257 . S
N260 C259 1.326 . S
N260 C264 1.362 . S
C261 C262 1.258 . S
C261 C264 1.431 . S
C261 C281 1.449 . S
C262 C261 1.258 . S
C262 C263 1.477 . S
C262 H282 0.931 . S
C263 C259 1.460 . S
C263 C262 1.477 . S
C263 H283 0.930 . S
C264 N260 1.362 . S
C264 C261 1.431 . S
C264 C274 1.476 . S
H265 C259 0.929 . S
C266 O257 1.250 . S
C266 O258 1.258 . S
O267 Mn252 2.162 1_545 S
O267 C255 1.281 . S
O268 Mn252 2.297 1_545 S
O268 C255 1.236 . S
N269 Mn253 2.282 . S
N269 C270 1.328 . S
N269 C274 1.318 . S
C270 N269 1.328 . S
C270 C271 1.457 . S
C270 H275 0.929 . S
C271 C270 1.457 . S
C271 C272 1.291 . S
C271 H284 0.931 . S
C272 C271 1.291 . S
C272 C273 1.373 . S
C272 H285 0.929 . S
C273 C272 1.373 . S
C273 C274 1.396 . S
C273 C280 1.403 . S
C274 C264 1.476 . S
C274 N269 1.318 . S
C274 C273 1.396 . S
H275 C270 0.929 . S
O276 Mn252 2.385 . S
O276 C254 1.234 . S
O277 Mn252 2.209 . S
O277 Mn253 2.215 . S
O277 C254 1.283 . S
O278 Mn252 2.094 . S
O278 C256 1.240 . S
O279 Mn253 2.117 . S
O279 C256 1.264 . S
C280 C273 1.403 . S
C280 C281 1.399 . S
C280 H286 0.929 . S
C281 C261 1.449 . S
C281 C280 1.399 . S
C281 H287 0.930 . S
H282 C262 0.931 . S
H283 C263 0.930 . S
H284 C271 0.931 . S
H285 C272 0.929 . S
H286 C280 0.929 . S
H287 C281 0.930 . S
Mn288 O293 2.095 . S
Mn288 O303 2.162 1_455 S
Mn288 O304 2.297 1_455 S
Mn288 O312 2.385 . S
Mn288 O313 2.209 . S
Mn288 O314 2.094 . S
Mn289 O294 2.121 . S
Mn289 N296 2.257 . S
Mn289 N305 2.282 . S
Mn289 O313 2.215 . S
Mn289 O315 2.117 . S
C290 O312 1.234 . S
C290 O313 1.283 . S
C291 O303 1.281 . S
C291 O304 1.236 . S
C292 O314 1.240 . S
C292 O315 1.264 . S
O293 Mn288 2.095 . S
O293 C302 1.250 . S
O294 Mn289 2.121 . S
O294 C302 1.258 . S
C295 N296 1.326 . S
C295 C299 1.460 . S
C295 H301 0.929 . S
N296 Mn289 2.257 . S
N296 C295 1.326 . S
N296 C300 1.362 . S
C297 C298 1.258 . S
C297 C300 1.431 . S
C297 C317 1.449 . S
C298 C297 1.258 . S
C298 C299 1.477 . S
C298 H318 0.931 . S
C299 C295 1.460 . S
C299 C298 1.477 . S
C299 H319 0.930 . S
C300 N296 1.362 . S
C300 C297 1.431 . S
C300 C310 1.476 . S
H301 C295 0.929 . S
C302 O293 1.250 . S
C302 O294 1.258 . S
O303 Mn288 2.162 1_655 S
O303 C291 1.281 . S
O304 Mn288 2.297 1_655 S
O304 C291 1.236 . S
N305 Mn289 2.282 . S
N305 C306 1.328 . S
N305 C310 1.318 . S
C306 N305 1.328 . S
C306 C307 1.457 . S
C306 H311 0.929 . S
C307 C306 1.457 . S
C307 C308 1.291 . S
C307 H320 0.931 . S
C308 C307 1.291 . S
C308 C309 1.373 . S
C308 H321 0.929 . S
C309 C308 1.373 . S
C309 C310 1.396 . S
C309 C316 1.403 . S
C310 C300 1.476 . S
C310 N305 1.318 . S
C310 C309 1.396 . S
H311 C306 0.929 . S
O312 Mn288 2.385 . S
O312 C290 1.234 . S
O313 Mn288 2.209 . S
O313 Mn289 2.215 . S
O313 C290 1.283 . S
O314 Mn288 2.094 . S
O314 C292 1.240 . S
O315 Mn289 2.117 . S
O315 C292 1.264 . S
C316 C309 1.403 . S
C316 C317 1.399 . S
C316 H322 0.929 . S
C317 C297 1.449 . S
C317 C316 1.399 . S
C317 H323 0.930 . S
H318 C298 0.931 . S
H319 C299 0.930 . S
H320 C307 0.931 . S
H321 C308 0.929 . S
H322 C316 0.929 . S
H323 C317 0.930 . S
Mn324 O329 2.095 . S
Mn324 O339 2.162 . S
Mn324 O340 2.297 . S
Mn324 O348 2.385 . S
Mn324 O349 2.209 . S
Mn324 O350 2.094 . S
Mn325 O330 2.121 1_565 S
Mn325 N332 2.257 . S
Mn325 N341 2.282 . S
Mn325 O349 2.215 . S
Mn325 O351 2.117 . S
C326 O348 1.234 . S
C326 O349 1.283 . S
C327 O339 1.281 . S
C327 O340 1.236 . S
C328 O350 1.240 . S
C328 O351 1.264 . S
O329 Mn324 2.095 . S
O329 C338 1.250 1_565 S
O330 Mn325 2.121 1_545 S
O330 C338 1.258 . S
C331 N332 1.326 1_545 S
C331 C335 1.460 . S
C331 H337 0.929 . S
N332 Mn325 2.257 . S
N332 C331 1.326 1_565 S
N332 C336 1.362 . S
C333 C334 1.214 1_565 S
C333 C336 1.431 . S
C333 C353 1.449 . S
C334 C333 1.214 1_545 S
C334 C335 1.532 . S
C334 H354 0.921 . S
C335 C331 1.460 . S
C335 C334 1.532 . S
C335 H355 0.930 . S
C336 N332 1.362 . S
C336 C333 1.431 . S
C336 C346 1.476 . S
H337 C331 0.929 . S
C338 O329 1.250 1_545 S
C338 O330 1.258 . S
O339 Mn324 2.162 . S
O339 C327 1.281 . S
O340 Mn324 2.297 . S
O340 C327 1.236 . S
N341 Mn325 2.282 . S
N341 C342 1.328 . S
N341 C346 1.318 . S
C342 N341 1.328 . S
C342 C343 1.457 . S
C342 H347 0.929 . S
C343 C342 1.457 . S
C343 C344 1.291 . S
C343 H356 0.931 . S
C344 C343 1.291 . S
C344 C345 1.373 . S
C344 H357 0.929 . S
C345 C344 1.373 . S
C345 C346 1.396 . S
C345 C352 1.403 . S
C346 C336 1.476 . S
C346 N341 1.318 . S
C346 C345 1.396 . S
H347 C342 0.929 . S
O348 Mn324 2.385 . S
O348 C326 1.234 . S
O349 Mn324 2.209 . S
O349 Mn325 2.215 . S
O349 C326 1.283 . S
O350 Mn324 2.094 . S
O350 C328 1.240 . S
O351 Mn325 2.117 . S
O351 C328 1.264 . S
C352 C345 1.403 . S
C352 C353 1.399 . S
C352 H358 0.929 . S
C353 C333 1.449 . S
C353 C352 1.399 . S
C353 H359 0.930 . S
H354 C334 0.921 . S
H355 C335 0.930 . S
H356 C343 0.931 . S
H357 C344 0.929 . S
H358 C352 0.929 . S
H359 C353 0.930 . S
Mn360 O365 2.095 . S
Mn360 O375 2.162 1_455 S
Mn360 O376 2.278 1_455 S
Mn360 O384 2.385 . S
Mn360 O385 2.209 . S
Mn360 O386 2.094 . S
Mn361 O366 2.121 . S
Mn361 N368 2.257 . S
Mn361 N377 2.282 . S
Mn361 O385 2.215 . S
Mn361 O387 2.117 . S
C362 O384 1.234 . S
C362 O385 1.283 . S
C363 O375 1.281 . S
C363 O376 1.298 . S
C364 O386 1.240 . S
C364 O387 1.264 . S
O365 Mn360 2.095 . S
O365 C374 1.250 . S
O366 Mn361 2.121 . S
O366 C374 1.258 . S
C367 N368 1.326 . S
C367 C371 1.460 . S
C367 H373 0.929 . S
N368 Mn361 2.257 . S
N368 C367 1.326 . S
N368 C372 1.362 . S
C369 C370 1.258 . S
C369 C372 1.431 . S
C369 C389 1.449 . S
C370 C369 1.258 . S
C370 C371 1.477 . S
C370 H390 0.931 . S
C371 C367 1.460 . S
C371 C370 1.477 . S
C371 H391 0.930 . S
C372 N368 1.362 . S
C372 C369 1.431 . S
C372 C382 1.476 . S
H373 C367 0.929 . S
C374 O365 1.250 . S
C374 O366 1.258 . S
O375 Mn360 2.162 1_655 S
O375 C363 1.281 . S
O376 Mn360 2.278 1_655 S
O376 C363 1.298 . S
N377 Mn361 2.282 . S
N377 C378 1.328 . S
N377 C382 1.318 . S
C378 N377 1.328 . S
C378 C379 1.457 . S
C378 H383 0.929 . S
C379 C378 1.457 . S
C379 C380 1.291 . S
C379 H392 0.931 . S
C380 C379 1.291 . S
C380 C381 1.373 . S
C380 H393 0.929 . S
C381 C380 1.373 . S
C381 C382 1.396 . S
C381 C388 1.403 . S
C382 C372 1.476 . S
C382 N377 1.318 . S
C382 C381 1.396 . S
H383 C378 0.929 . S
O384 Mn360 2.385 . S
O384 C362 1.234 . S
O385 Mn360 2.209 . S
O385 Mn361 2.215 . S
O385 C362 1.283 . S
O386 Mn360 2.094 . S
O386 C364 1.240 . S
O387 Mn361 2.117 . S
O387 C364 1.264 . S
C388 C381 1.403 . S
C388 C389 1.399 . S
C388 H394 0.929 . S
C389 C369 1.449 . S
C389 C388 1.399 . S
C389 H395 0.930 . S
H390 C370 0.931 . S
H391 C371 0.930 . S
H392 C379 0.931 . S
H393 C380 0.929 . S
H394 C388 0.929 . S
H395 C389 0.930 . S
Mn396 O401 2.095 . S
Mn396 O411 2.162 . S
Mn396 O412 2.297 . S
Mn396 O420 2.385 . S
Mn396 O421 2.209 . S
Mn396 O422 2.094 . S
Mn397 O402 2.121 . S
Mn397 N404 2.257 . S
Mn397 N413 2.282 . S
Mn397 O421 2.215 . S
Mn397 O423 2.117 . S
C398 O420 1.234 . S
C398 O421 1.283 . S
C399 O411 1.281 . S
C399 O412 1.236 . S
C400 O422 1.240 . S
C400 O423 1.264 . S
O401 Mn396 2.095 . S
O401 C410 1.250 . S
O402 Mn397 2.121 . S
O402 C410 1.258 . S
C403 N404 1.326 . S
C403 C407 1.460 . S
C403 H409 0.929 . S
N404 Mn397 2.257 . S
N404 C403 1.326 . S
N404 C408 1.362 . S
C405 C406 1.258 . S
C405 C408 1.431 . S
C405 C425 1.449 . S
C406 C405 1.258 . S
C406 C407 1.477 . S
C406 H426 0.931 . S
C407 C403 1.460 . S
C407 C406 1.477 . S
C407 H427 0.930 . S
C408 N404 1.362 . S
C408 C405 1.431 . S
C408 C418 1.476 . S
H409 C403 0.929 . S
C410 O401 1.250 . S
C410 O402 1.258 . S
O411 Mn396 2.162 . S
O411 C399 1.281 . S
O412 Mn396 2.297 . S
O412 C399 1.236 . S
N413 Mn397 2.282 . S
N413 C414 1.328 . S
N413 C418 1.318 . S
C414 N413 1.328 . S
C414 C415 1.457 . S
C414 H419 0.929 . S
C415 C414 1.457 . S
C415 C416 1.291 . S
C415 H428 0.931 . S
C416 C415 1.291 . S
C416 C417 1.373 . S
C416 H429 0.929 . S
C417 C416 1.373 . S
C417 C418 1.396 . S
C417 C424 1.403 . S
C418 C408 1.476 . S
C418 N413 1.318 . S
C418 C417 1.396 . S
H419 C414 0.929 . S
O420 Mn396 2.385 . S
O420 C398 1.234 . S
O421 Mn396 2.209 . S
O421 Mn397 2.215 . S
O421 C398 1.283 . S
O422 Mn396 2.094 . S
O422 C400 1.240 . S
O423 Mn397 2.117 . S
O423 C400 1.264 . S
C424 C417 1.403 . S
C424 C425 1.399 . S
C424 H430 0.929 . S
C425 C405 1.449 . S
C425 C424 1.399 . S
C425 H431 0.930 . S
H426 C406 0.931 . S
H427 C407 0.930 . S
H428 C415 0.931 . S
H429 C416 0.929 . S
H430 C424 0.929 . S
H431 C425 0.930 . S
Mn432 O437 2.095 . S
Mn432 O447 2.162 1_545 S
Mn432 O448 2.297 1_545 S
Mn432 O456 2.385 . S
Mn432 O457 2.209 . S
Mn432 O458 2.094 . S
Mn433 O438 2.121 . S
Mn433 N440 2.257 . S
Mn433 N449 2.282 . S
Mn433 O457 2.215 . S
Mn433 O459 2.117 . S
C434 O456 1.234 . S
C434 O457 1.283 . S
C435 O447 1.281 . S
C435 O448 1.236 . S
C436 O458 1.240 . S
C436 O459 1.264 . S
O437 Mn432 2.095 . S
O437 C446 1.250 . S
O438 Mn433 2.121 . S
O438 C446 1.258 . S
C439 N440 1.326 . S
C439 C443 1.460 . S
C439 H445 0.929 . S
N440 Mn433 2.257 . S
N440 C439 1.326 . S
N440 C444 1.362 . S
C441 C442 1.258 . S
C441 C444 1.431 . S
C441 C461 1.449 . S
C442 C441 1.258 . S
C442 C443 1.477 . S
C442 H462 0.931 . S
C443 C439 1.460 . S
C443 C442 1.477 . S
C443 H463 0.930 . S
C444 N440 1.362 . S
C444 C441 1.431 . S
C444 C454 1.476 . S
H445 C439 0.929 . S
C446 O437 1.250 . S
C446 O438 1.258 . S
O447 Mn432 2.162 1_565 S
O447 C435 1.281 . S
O448 Mn432 2.297 1_565 S
O448 C435 1.236 . S
N449 Mn433 2.282 . S
N449 C450 1.328 . S
N449 C454 1.318 . S
C450 N449 1.328 . S
C450 C451 1.457 . S
C450 H455 0.929 . S
C451 C450 1.457 . S
C451 C452 1.291 . S
C451 H464 0.931 . S
C452 C451 1.291 . S
C452 C453 1.373 . S
C452 H465 0.929 . S
C453 C452 1.373 . S
C453 C454 1.396 . S
C453 C460 1.403 . S
C454 C444 1.476 . S
C454 N449 1.318 . S
C454 C453 1.396 . S
H455 C450 0.929 . S
O456 Mn432 2.385 . S
O456 C434 1.234 . S
O457 Mn432 2.209 . S
O457 Mn433 2.215 . S
O457 C434 1.283 . S
O458 Mn432 2.094 . S
O458 C436 1.240 . S
O459 Mn433 2.117 . S
O459 C436 1.264 . S
C460 C453 1.403 . S
C460 C461 1.399 . S
C460 H466 0.929 . S
C461 C441 1.449 . S
C461 C460 1.399 . S
C461 H467 0.930 . S
H462 C442 0.931 . S
H463 C443 0.930 . S
H464 C451 0.931 . S
H465 C452 0.929 . S
H466 C460 0.929 . S
H467 C461 0.930 . S
Mn468 O473 2.095 . S
Mn468 O483 2.162 . S
Mn468 O484 2.297 . S
Mn468 O492 2.385 . S
Mn468 O493 2.209 . S
Mn468 O494 2.094 . S
Mn469 O474 2.121 1_655 S
Mn469 N476 2.257 . S
Mn469 N485 2.282 . S
Mn469 O493 2.215 . S
Mn469 O495 2.117 . S
C470 O492 1.234 . S
C470 O493 1.283 . S
C471 O483 1.281 . S
C471 O484 1.236 . S
C472 O494 1.240 . S
C472 O495 1.264 . S
O473 Mn468 2.095 . S
O473 C482 1.250 1_655 S
O474 Mn469 2.121 1_455 S
O474 C482 1.258 . S
C475 N476 1.326 1_455 S
C475 C479 1.460 . S
C475 H481 0.929 . S
N476 Mn469 2.257 . S
N476 C475 1.326 1_655 S
N476 C480 1.362 . S
C477 C478 1.212 1_655 S
C477 C480 1.431 . S
C477 C497 1.449 . S
C478 C477 1.212 1_455 S
C478 C479 1.491 . S
C478 H498 0.964 . S
C479 C475 1.460 . S
C479 C478 1.491 . S
C479 H499 0.930 . S
C480 N476 1.362 . S
C480 C477 1.431 . S
C480 C490 1.476 . S
H481 C475 0.929 . S
C482 O473 1.250 1_455 S
C482 O474 1.258 . S
O483 Mn468 2.162 . S
O483 C471 1.281 . S
O484 Mn468 2.297 . S
O484 C471 1.236 . S
N485 Mn469 2.282 . S
N485 C486 1.328 . S
N485 C490 1.318 . S
C486 N485 1.328 . S
C486 C487 1.457 . S
C486 H491 0.929 . S
C487 C486 1.457 . S
C487 C488 1.291 . S
C487 H500 0.931 . S
C488 C487 1.291 . S
C488 C489 1.373 . S
C488 H501 0.929 . S
C489 C488 1.373 . S
C489 C490 1.396 . S
C489 C496 1.403 . S
C490 C480 1.476 . S
C490 N485 1.318 . S
C490 C489 1.396 . S
H491 C486 0.929 . S
O492 Mn468 2.385 . S
O492 C470 1.234 . S
O493 Mn468 2.209 . S
O493 Mn469 2.215 . S
O493 C470 1.283 . S
O494 Mn468 2.094 . S
O494 C472 1.240 . S
O495 Mn469 2.117 . S
O495 C472 1.264 . S
C496 C489 1.403 . S
C496 C497 1.399 . S
C496 H502 0.929 . S
C497 C477 1.449 . S
C497 C496 1.399 . S
C497 H503 0.930 . S
H498 C478 0.964 . S
H499 C479 0.930 . S
H500 C487 0.931 . S
H501 C488 0.929 . S
H502 C496 0.929 . S
H503 C497 0.930 . S
Mn504 O509 2.095 . S
Mn504 O519 2.162 . S
Mn504 O520 2.297 . S
Mn504 O528 2.385 . S
Mn504 O529 2.209 . S
Mn504 O530 2.094 . S
Mn505 O510 2.121 . S
Mn505 N512 2.257 . S
Mn505 N521 2.282 . S
Mn505 O529 2.215 . S
Mn505 O531 2.117 . S
C506 O528 1.234 . S
C506 O529 1.283 . S
C507 O519 1.281 . S
C507 O520 1.236 . S
C508 O530 1.240 . S
C508 O531 1.264 . S
O509 Mn504 2.095 . S
O509 C518 1.250 . S
O510 Mn505 2.121 . S
O510 C518 1.258 . S
C511 N512 1.326 . S
C511 C515 1.460 . S
C511 H517 0.929 . S
N512 Mn505 2.257 . S
N512 C511 1.326 . S
N512 C516 1.362 . S
C513 C514 1.258 . S
C513 C516 1.431 . S
C513 C533 1.449 . S
C514 C513 1.258 . S
C514 C515 1.477 . S
C514 H534 0.931 . S
C515 C511 1.460 . S
C515 C514 1.477 . S
C515 H535 0.930 . S
C516 N512 1.362 . S
C516 C513 1.431 . S
C516 C526 1.476 . S
H517 C511 0.929 . S
C518 O509 1.250 . S
C518 O510 1.258 . S
O519 Mn504 2.162 . S
O519 C507 1.281 . S
O520 Mn504 2.297 . S
O520 C507 1.236 . S
N521 Mn505 2.282 . S
N521 C522 1.328 . S
N521 C526 1.318 . S
C522 N521 1.328 . S
C522 C523 1.457 . S
C522 H527 0.929 . S
C523 C522 1.457 . S
C523 C524 1.291 . S
C523 H536 0.931 . S
C524 C523 1.291 . S
C524 C525 1.373 . S
C524 H537 0.929 . S
C525 C524 1.373 . S
C525 C526 1.396 . S
C525 C532 1.403 . S
C526 C516 1.476 . S
C526 N521 1.318 . S
C526 C525 1.396 . S
H527 C522 0.929 . S
O528 Mn504 2.385 . S
O528 C506 1.234 . S
O529 Mn504 2.209 . S
O529 Mn505 2.215 . S
O529 C506 1.283 . S
O530 Mn504 2.094 . S
O530 C508 1.240 . S
O531 Mn505 2.117 . S
O531 C508 1.264 . S
C532 C525 1.403 . S
C532 C533 1.399 . S
C532 H538 0.929 . S
C533 C513 1.449 . S
C533 C532 1.399 . S
C533 H539 0.930 . S
H534 C514 0.931 . S
H535 C515 0.930 . S
H536 C523 0.931 . S
H537 C524 0.929 . S
H538 C532 0.929 . S
H539 C533 0.930 . S
Mn540 O545 2.095 . S
Mn540 O555 2.162 . S
Mn540 O556 2.297 . S
Mn540 O564 2.385 . S
Mn540 O565 2.209 . S
Mn540 O566 2.094 . S
Mn541 O546 2.121 . S
Mn541 N548 2.257 . S
Mn541 N557 2.282 . S
Mn541 O565 2.215 . S
Mn541 O567 2.117 . S
C542 O564 1.234 . S
C542 O565 1.283 . S
C543 O555 1.281 . S
C543 O556 1.236 . S
C544 O566 1.240 . S
C544 O567 1.264 . S
O545 Mn540 2.095 . S
O545 C554 1.250 . S
O546 Mn541 2.121 . S
O546 C554 1.258 . S
C547 N548 1.326 . S
C547 C551 1.460 . S
C547 H553 0.929 . S
N548 Mn541 2.257 . S
N548 C547 1.326 . S
N548 C552 1.362 . S
C549 C550 1.258 . S
C549 C552 1.431 . S
C549 C569 1.449 . S
C550 C549 1.258 . S
C550 C551 1.477 . S
C550 H570 0.931 . S
C551 C547 1.460 . S
C551 C550 1.477 . S
C551 H571 0.930 . S
C552 N548 1.362 . S
C552 C549 1.431 . S
C552 C562 1.476 . S
H553 C547 0.929 . S
C554 O545 1.250 . S
C554 O546 1.258 . S
O555 Mn540 2.162 . S
O555 C543 1.281 . S
O556 Mn540 2.297 . S
O556 C543 1.236 . S
N557 Mn541 2.282 . S
N557 C558 1.328 . S
N557 C562 1.318 . S
C558 N557 1.328 . S
C558 C559 1.457 . S
C558 H563 0.929 . S
C559 C558 1.457 . S
C559 C560 1.291 . S
C559 H572 0.931 . S
C560 C559 1.291 . S
C560 C561 1.373 . S
C560 H573 0.929 . S
C561 C560 1.373 . S
C561 C562 1.396 . S
C561 C568 1.403 . S
C562 C552 1.476 . S
C562 N557 1.318 . S
C562 C561 1.396 . S
H563 C558 0.929 . S
O564 Mn540 2.385 . S
O564 C542 1.234 . S
O565 Mn540 2.209 . S
O565 Mn541 2.215 . S
O565 C542 1.283 . S
O566 Mn540 2.094 . S
O566 C544 1.240 . S
O567 Mn541 2.117 . S
O567 C544 1.264 . S
C568 C561 1.403 . S
C568 C569 1.399 . S
C568 H574 0.929 . S
C569 C549 1.449 . S
C569 C568 1.399 . S
C569 H575 0.930 . S
H570 C550 0.931 . S
H571 C551 0.930 . S
H572 C559 0.931 . S
H573 C560 0.929 . S
H574 C568 0.929 . S
H575 C569 0.930 . S
Mn576 O581 2.095 . S
Mn576 O591 2.162 . S
Mn576 O592 2.297 . S
Mn576 O600 2.385 . S
Mn576 O601 2.209 . S
Mn576 O602 2.094 . S
Mn577 O582 2.121 1_545 S
Mn577 N584 2.257 . S
Mn577 N593 2.282 . S
Mn577 O601 2.215 . S
Mn577 O603 2.117 . S
C578 O600 1.234 . S
C578 O601 1.283 . S
C579 O591 1.281 . S
C579 O592 1.236 . S
C580 O602 1.240 . S
C580 O603 1.264 . S
O581 Mn576 2.095 . S
O581 C590 1.250 1_545 S
O582 Mn577 2.121 1_565 S
O582 C590 1.258 . S
C583 N584 1.326 1_565 S
C583 C587 1.460 . S
C583 H589 0.929 . S
N584 Mn577 2.257 . S
N584 C583 1.326 1_545 S
N584 C588 1.362 . S
C585 C586 1.258 1_545 S
C585 C588 1.431 . S
C585 C605 1.449 . S
C586 C585 1.258 1_565 S
C586 C587 1.477 . S
C586 H606 0.931 . S
C587 C583 1.460 . S
C587 C586 1.477 . S
C587 H607 0.930 . S
C588 N584 1.362 . S
C588 C585 1.431 . S
C588 C598 1.476 . S
H589 C583 0.929 . S
C590 O581 1.250 1_565 S
C590 O582 1.258 . S
O591 Mn576 2.162 . S
O591 C579 1.281 . S
O592 Mn576 2.297 . S
O592 C579 1.236 . S
N593 Mn577 2.282 . S
N593 C594 1.328 . S
N593 C598 1.318 . S
C594 N593 1.328 . S
C594 C595 1.457 . S
C594 H599 0.929 . S
C595 C594 1.457 . S
C595 C596 1.291 . S
C595 H608 0.931 . S
C596 C595 1.291 . S
C596 C597 1.373 . S
C596 H609 0.929 . S
C597 C596 1.373 . S
C597 C598 1.396 . S
C597 C604 1.403 . S
C598 C588 1.476 . S
C598 N593 1.318 . S
C598 C597 1.396 . S
H599 C594 0.929 . S
O600 Mn576 2.385 . S
O600 C578 1.234 . S
O601 Mn576 2.209 . S
O601 Mn577 2.215 . S
O601 C578 1.283 . S
O602 Mn576 2.094 . S
O602 C580 1.240 . S
O603 Mn577 2.117 . S
O603 C580 1.264 . S
C604 C597 1.403 . S
C604 C605 1.399 . S
C604 H610 0.929 . S
C605 C585 1.449 . S
C605 C604 1.399 . S
C605 H611 0.930 . S
H606 C586 0.931 . S
H607 C587 0.930 . S
H608 C595 0.931 . S
H609 C596 0.929 . S
H610 C604 0.929 . S
H611 C605 0.930 . S
Mn612 O617 2.095 . S
Mn612 O627 2.162 1_655 S
Mn612 O628 2.297 1_655 S
Mn612 O636 2.385 . S
Mn612 O637 2.209 . S
Mn612 O638 2.094 . S
Mn613 O618 2.121 . S
Mn613 N620 2.257 . S
Mn613 N629 2.282 . S
Mn613 O637 2.215 . S
Mn613 O639 2.117 . S
C614 O636 1.234 . S
C614 O637 1.283 . S
C615 O627 1.281 . S
C615 O628 1.236 . S
C616 O638 1.240 . S
C616 O639 1.264 . S
O617 Mn612 2.095 . S
O617 C626 1.250 . S
O618 Mn613 2.121 . S
O618 C626 1.258 . S
C619 N620 1.326 . S
C619 C623 1.460 . S
C619 H625 0.929 . S
N620 Mn613 2.257 . S
N620 C619 1.326 . S
N620 C624 1.362 . S
C621 C622 1.258 . S
C621 C624 1.431 . S
C621 C641 1.449 . S
C622 C621 1.258 . S
C622 C623 1.477 . S
C622 H642 0.931 . S
C623 C619 1.460 . S
C623 C622 1.477 . S
C623 H643 0.930 . S
C624 N620 1.362 . S
C624 C621 1.431 . S
C624 C634 1.476 . S
H625 C619 0.929 . S
C626 O617 1.250 . S
C626 O618 1.258 . S
O627 Mn612 2.162 1_455 S
O627 C615 1.281 . S
O628 Mn612 2.297 1_455 S
O628 C615 1.236 . S
N629 Mn613 2.282 . S
N629 C630 1.328 . S
N629 C634 1.318 . S
C630 N629 1.328 . S
C630 C631 1.457 . S
C630 H635 0.929 . S
C631 C630 1.457 . S
C631 C632 1.291 . S
C631 H644 0.931 . S
C632 C631 1.291 . S
C632 C633 1.373 . S
C632 H645 0.929 . S
C633 C632 1.373 . S
C633 C634 1.396 . S
C633 C640 1.403 . S
C634 C624 1.476 . S
C634 N629 1.318 . S
C634 C633 1.396 . S
H635 C630 0.929 . S
O636 Mn612 2.385 . S
O636 C614 1.234 . S
O637 Mn612 2.209 . S
O637 Mn613 2.215 . S
O637 C614 1.283 . S
O638 Mn612 2.094 . S
O638 C616 1.240 . S
O639 Mn613 2.117 . S
O639 C616 1.264 . S
C640 C633 1.403 . S
C640 C641 1.399 . S
C640 H646 0.929 . S
C641 C621 1.449 . S
C641 C640 1.399 . S
C641 H647 0.930 . S
H642 C622 0.931 . S
H643 C623 0.930 . S
H644 C631 0.931 . S
H645 C632 0.929 . S
H646 C640 0.929 . S
H647 C641 0.930 . S
C648 C649 1.560 . S
C648 H709 0.959 . S
C648 H710 0.959 . S
C648 H711 0.960 . S
C649 C648 1.560 . S
C649 O704 1.426 . S
C649 H708 0.980 . S
C650 C651 1.407 . S
C650 C655 1.418 . S
C650 O704 1.334 . S
C651 C650 1.407 . S
C651 C652 1.360 . S
C651 H712 0.929 . S
C652 C651 1.360 . S
C652 C653 1.401 . S
C652 C656 1.527 . S
C653 C652 1.401 . S
C653 C654 1.405 . S
C653 C686 1.587 . S
C654 C653 1.405 . S
C654 C655 1.332 . S
C654 C657 1.496 . S
C655 C650 1.418 . S
C655 C654 1.332 . S
C655 H713 0.929 . S
C656 C652 1.527 . S
C656 H714 0.959 . S
C656 H715 0.961 . S
C656 H716 0.961 . S
C657 C654 1.496 . S
C657 H717 0.960 . S
C657 H718 0.960 . S
C657 H719 0.961 . S
C658 C659 1.517 . S
C658 H721 0.961 . S
C658 H722 0.960 . S
C658 H723 0.959 . S
C659 C658 1.517 . S
C659 O707 1.468 . S
C659 H720 0.980 . S
C660 C661 1.349 . S
C660 C665 1.367 . S
C660 O707 1.408 . S
C661 C660 1.349 . S
C661 C662 1.407 . S
C661 H724 0.930 . S
C662 C661 1.407 . S
C662 C663 1.449 . S
C662 C666 1.535 . S
C663 C662 1.449 . S
C663 C664 1.384 . S
C663 C688 1.553 . S
C664 C663 1.384 . S
C664 C665 1.364 . S
C664 C667 1.450 . S
C665 C660 1.367 . S
C665 C664 1.364 . S
C665 H725 0.931 . S
C666 C662 1.535 . S
C666 H726 0.959 . S
C666 H727 0.961 . S
C666 H728 0.959 . S
C667 C664 1.450 . S
C667 H729 0.960 . S
C667 H730 0.960 . S
C667 H731 0.960 . S
C668 C669 1.309 . S
C668 C673 1.304 . S
C668 O706 1.435 . S
C669 C668 1.309 . S
C669 C670 1.476 . S
C669 H733 0.930 . S
C670 C669 1.476 . S
C670 C671 1.400 . S
C670 C674 1.567 . S
C671 C670 1.400 . S
C671 C672 1.373 . S
C671 C693 1.432 . S
C672 C671 1.373 . S
C672 C673 1.339 . S
C672 C675 1.530 . S
C673 C668 1.304 . S
C673 C672 1.339 . S
C673 H734 0.930 . S
C674 C670 1.567 . S
C674 H735 0.961 . S
C674 H736 0.960 . S
C674 H737 0.958 . S
C675 C672 1.530 . S
C675 H738 0.961 . S
C675 H739 0.960 . S
C675 H740 0.960 . S
C676 C677 1.530 . S
C676 H742 0.961 . S
C676 H743 0.961 . S
C676 H744 0.959 . S
C677 C676 1.530 . S
C677 O705 1.412 . S
C677 H741 0.980 . S
C678 C679 1.288 . S
C678 C683 1.377 . S
C678 O705 1.393 . S
C679 C678 1.288 . S
C679 C680 1.369 . S
C679 H745 0.932 . S
C680 C679 1.369 . S
C680 C681 1.398 . S
C680 C684 1.527 . S
C681 C680 1.398 . S
C681 C682 1.380 . S
C681 C695 1.497 . S
C682 C681 1.380 . S
C682 C683 1.383 . S
C682 C685 1.603 . S
C683 C678 1.377 . S
C683 C682 1.383 . S
C683 H746 0.929 . S
C684 C680 1.527 . S
C684 H747 0.961 . S
C684 H748 0.959 . S
C684 H749 0.959 . S
C685 C682 1.603 . S
C685 H750 0.960 . S
C685 H751 0.962 . S
C685 H752 0.961 . S
C686 C653 1.587 . S
C686 C687 1.360 . S
C686 C699 1.412 . S
C687 C686 1.360 . S
C687 C688 1.365 . S
C687 H753 0.929 . S
C688 C663 1.553 . S
C688 C687 1.365 . S
C688 C689 1.404 . S
C689 C688 1.404 . S
C689 C690 1.395 . S
C689 C700 1.451 . S
C690 C689 1.395 . S
C690 C691 1.322 . S
C690 H754 0.930 . S
C691 C690 1.322 . S
C691 C692 1.459 . S
C691 H755 0.929 . S
C692 C691 1.459 . S
C692 C693 1.445 . S
C692 C701 1.395 . S
C693 C671 1.432 . S
C693 C692 1.445 . S
C693 C694 1.370 . S
C694 C693 1.370 . S
C694 C695 1.438 . S
C694 H756 0.930 . S
C695 C681 1.497 . S
C695 C694 1.438 . S
C695 C696 1.360 . S
C696 C695 1.360 . S
C696 C697 1.401 . S
C696 C701 1.446 . S
C697 C696 1.401 . S
C697 C698 1.347 . S
C697 H757 0.929 . S
C698 C697 1.347 . S
C698 C699 1.455 . S
C698 H758 0.930 . S
C699 C686 1.412 . S
C699 C698 1.455 . S
C699 C700 1.331 . S
C700 C689 1.451 . S
C700 C699 1.331 . S
C700 C701 1.497 . S
C701 C692 1.395 . S
C701 C696 1.446 . S
C701 C700 1.497 . S
C702 C703 1.582 . S
C702 H759 0.962 . S
C702 H760 0.959 . S
C702 H761 0.958 . S
C703 C702 1.582 . S
C703 O706 1.458 . S
C703 H732 0.980 . S
O704 C649 1.426 . S
O704 C650 1.334 . S
O705 C677 1.412 . S
O705 C678 1.393 . S
O706 C668 1.435 . S
O706 C703 1.458 . S
O707 C659 1.468 . S
O707 C660 1.408 . S
H708 C649 0.980 . S
H709 C648 0.959 . S
H710 C648 0.959 . S
H711 C648 0.960 . S
H712 C651 0.929 . S
H713 C655 0.929 . S
H714 C656 0.959 . S
H715 C656 0.961 . S
H716 C656 0.961 . S
H717 C657 0.960 . S
H718 C657 0.960 . S
H719 C657 0.961 . S
H720 C659 0.980 . S
H721 C658 0.961 . S
H722 C658 0.960 . S
H723 C658 0.959 . S
H724 C661 0.930 . S
H725 C665 0.931 . S
H726 C666 0.959 . S
H727 C666 0.961 . S
H728 C666 0.959 . S
H729 C667 0.960 . S
H730 C667 0.960 . S
H731 C667 0.960 . S
H732 C703 0.980 . S
H733 C669 0.930 . S
H734 C673 0.930 . S
H735 C674 0.961 . S
H736 C674 0.960 . S
H737 C674 0.958 . S
H738 C675 0.961 . S
H739 C675 0.960 . S
H740 C675 0.960 . S
H741 C677 0.980 . S
H742 C676 0.961 . S
H743 C676 0.961 . S
H744 C676 0.959 . S
H745 C679 0.932 . S
H746 C683 0.929 . S
H747 C684 0.961 . S
H748 C684 0.959 . S
H749 C684 0.959 . S
H750 C685 0.960 . S
H751 C685 0.962 . S
H752 C685 0.961 . S
H753 C687 0.929 . S
H754 C690 0.930 . S
H755 C691 0.929 . S
H756 C694 0.930 . S
H757 C697 0.929 . S
H758 C698 0.930 . S
H759 C702 0.962 . S
H760 C702 0.959 . S
H761 C702 0.958 . S
C762 C763 1.560 . S
C762 H823 0.959 . S
C762 H824 0.959 . S
C762 H825 0.960 . S
C763 C762 1.560 . S
C763 O818 1.426 . S
C763 H822 0.980 . S
C764 C765 1.407 . S
C764 C769 1.418 . S
C764 O818 1.334 . S
C765 C764 1.407 . S
C765 C766 1.360 . S
C765 H826 0.929 . S
C766 C765 1.360 . S
C766 C767 1.401 . S
C766 C770 1.527 . S
C767 C766 1.401 . S
C767 C768 1.405 . S
C767 C800 1.587 . S
C768 C767 1.405 . S
C768 C769 1.332 . S
C768 C771 1.496 . S
C769 C764 1.418 . S
C769 C768 1.332 . S
C769 H827 0.929 . S
C770 C766 1.527 . S
C770 H828 0.959 . S
C770 H829 0.961 . S
C770 H830 0.961 . S
C771 C768 1.496 . S
C771 H831 0.960 . S
C771 H832 0.960 . S
C771 H833 0.961 . S
C772 C773 1.517 . S
C772 H835 0.961 . S
C772 H836 0.960 . S
C772 H837 0.959 . S
C773 C772 1.517 . S
C773 O821 1.468 . S
C773 H834 0.980 . S
C774 C775 1.349 . S
C774 C779 1.367 . S
C774 O821 1.408 . S
C775 C774 1.349 . S
C775 C776 1.407 . S
C775 H838 0.930 . S
C776 C775 1.407 . S
C776 C777 1.449 . S
C776 C780 1.535 . S
C777 C776 1.449 . S
C777 C778 1.384 . S
C777 C802 1.553 . S
C778 C777 1.384 . S
C778 C779 1.364 . S
C778 C781 1.450 . S
C779 C774 1.367 . S
C779 C778 1.364 . S
C779 H839 0.931 . S
C780 C776 1.535 . S
C780 H840 0.959 . S
C780 H841 0.961 . S
C780 H842 0.959 . S
C781 C778 1.450 . S
C781 H843 0.960 . S
C781 H844 0.960 . S
C781 H845 0.960 . S
C782 C783 1.309 . S
C782 C787 1.304 . S
C782 O820 1.435 . S
C783 C782 1.309 . S
C783 C784 1.476 . S
C783 H847 0.930 . S
C784 C783 1.476 . S
C784 C785 1.400 . S
C784 C788 1.567 . S
C785 C784 1.400 . S
C785 C786 1.373 . S
C785 C807 1.432 . S
C786 C785 1.373 . S
C786 C787 1.339 . S
C786 C789 1.530 . S
C787 C782 1.304 . S
C787 C786 1.339 . S
C787 H848 0.930 . S
C788 C784 1.567 . S
C788 H849 0.961 . S
C788 H850 0.960 . S
C788 H851 0.958 . S
C789 C786 1.530 . S
C789 H852 0.961 . S
C789 H853 0.960 . S
C789 H854 0.960 . S
C790 C791 1.530 . S
C790 H856 0.961 . S
C790 H857 0.961 . S
C790 H858 0.959 . S
C791 C790 1.530 . S
C791 O819 1.412 . S
C791 H855 0.980 . S
C792 C793 1.288 . S
C792 C797 1.377 . S
C792 O819 1.393 . S
C793 C792 1.288 . S
C793 C794 1.369 . S
C793 H859 0.932 . S
C794 C793 1.369 . S
C794 C795 1.398 . S
C794 C798 1.527 . S
C795 C794 1.398 . S
C795 C796 1.380 . S
C795 C809 1.497 . S
C796 C795 1.380 . S
C796 C797 1.383 . S
C796 C799 1.603 . S
C797 C792 1.377 . S
C797 C796 1.383 . S
C797 H860 0.929 . S
C798 C794 1.527 . S
C798 H861 0.961 . S
C798 H862 0.959 . S
C798 H863 0.959 . S
C799 C796 1.603 . S
C799 H864 0.960 . S
C799 H865 0.962 . S
C799 H866 0.961 . S
C800 C767 1.587 . S
C800 C801 1.360 . S
C800 C813 1.412 . S
C801 C800 1.360 . S
C801 C802 1.365 . S
C801 H867 0.929 . S
C802 C777 1.553 . S
C802 C801 1.365 . S
C802 C803 1.404 . S
C803 C802 1.404 . S
C803 C804 1.395 . S
C803 C814 1.451 . S
C804 C803 1.395 . S
C804 C805 1.322 . S
C804 H868 0.930 . S
C805 C804 1.322 . S
C805 C806 1.459 . S
C805 H869 0.929 . S
C806 C805 1.459 . S
C806 C807 1.445 . S
C806 C815 1.395 . S
C807 C785 1.432 . S
C807 C806 1.445 . S
C807 C808 1.370 . S
C808 C807 1.370 . S
C808 C809 1.438 . S
C808 H870 0.930 . S
C809 C795 1.497 . S
C809 C808 1.438 . S
C809 C810 1.360 . S
C810 C809 1.360 . S
C810 C811 1.401 . S
C810 C815 1.446 . S
C811 C810 1.401 . S
C811 C812 1.347 . S
C811 H871 0.929 . S
C812 C811 1.347 . S
C812 C813 1.455 . S
C812 H872 0.930 . S
C813 C800 1.412 . S
C813 C812 1.455 . S
C813 C814 1.331 . S
C814 C803 1.451 . S
C814 C813 1.331 . S
C814 C815 1.497 . S
C815 C806 1.395 . S
C815 C810 1.446 . S
C815 C814 1.497 . S
C816 C817 1.582 . S
C816 H873 0.962 . S
C816 H874 0.959 . S
C816 H875 0.958 . S
C817 C816 1.582 . S
C817 O820 1.458 . S
C817 H846 0.980 . S
O818 C763 1.426 . S
O818 C764 1.334 . S
O819 C791 1.412 . S
O819 C792 1.393 . S
O820 C782 1.435 . S
O820 C817 1.458 . S
O821 C773 1.468 . S
O821 C774 1.408 . S
H822 C763 0.980 . S
H823 C762 0.959 . S
H824 C762 0.959 . S
H825 C762 0.960 . S
H826 C765 0.929 . S
H827 C769 0.929 . S
H828 C770 0.959 . S
H829 C770 0.961 . S
H830 C770 0.961 . S
H831 C771 0.960 . S
H832 C771 0.960 . S
H833 C771 0.961 . S
H834 C773 0.980 . S
H835 C772 0.961 . S
H836 C772 0.960 . S
H837 C772 0.959 . S
H838 C775 0.930 . S
H839 C779 0.931 . S
H840 C780 0.959 . S
H841 C780 0.961 . S
H842 C780 0.959 . S
H843 C781 0.960 . S
H844 C781 0.960 . S
H845 C781 0.960 . S
H846 C817 0.980 . S
H847 C783 0.930 . S
H848 C787 0.930 . S
H849 C788 0.961 . S
H850 C788 0.960 . S
H851 C788 0.958 . S
H852 C789 0.961 . S
H853 C789 0.960 . S
H854 C789 0.960 . S
H855 C791 0.980 . S
H856 C790 0.961 . S
H857 C790 0.961 . S
H858 C790 0.959 . S
H859 C793 0.932 . S
H860 C797 0.929 . S
H861 C798 0.961 . S
H862 C798 0.959 . S
H863 C798 0.959 . S
H864 C799 0.960 . S
H865 C799 0.962 . S
H866 C799 0.961 . S
H867 C801 0.929 . S
H868 C804 0.930 . S
H869 C805 0.929 . S
H870 C808 0.930 . S
H871 C811 0.929 . S
H872 C812 0.930 . S
H873 C816 0.962 . S
H874 C816 0.959 . S
H875 C816 0.958 . S
C876 C877 1.560 . S
C876 H937 0.959 . S
C876 H938 0.959 . S
C876 H939 0.960 . S
C877 C876 1.560 . S
C877 O932 1.426 . S
C877 H936 0.980 . S
C878 C879 1.407 . S
C878 C883 1.418 . S
C878 O932 1.334 . S
C879 C878 1.407 . S
C879 C880 1.360 . S
C879 H940 0.929 . S
C880 C879 1.360 . S
C880 C881 1.401 . S
C880 C884 1.527 . S
C881 C880 1.401 . S
C881 C882 1.405 . S
C881 C914 1.587 . S
C882 C881 1.405 . S
C882 C883 1.332 . S
C882 C885 1.496 . S
C883 C878 1.418 . S
C883 C882 1.332 . S
C883 H941 0.929 . S
C884 C880 1.527 . S
C884 H942 0.959 . S
C884 H943 0.961 . S
C884 H944 0.961 . S
C885 C882 1.496 . S
C885 H945 0.960 . S
C885 H946 0.960 . S
C885 H947 0.961 . S
C886 C887 1.517 . S
C886 H949 0.961 . S
C886 H950 0.960 . S
C886 H951 0.959 . S
C887 C886 1.517 . S
C887 O935 1.468 . S
C887 H948 0.980 . S
C888 C889 1.349 . S
C888 C893 1.367 . S
C888 O935 1.408 . S
C889 C888 1.349 . S
C889 C890 1.407 . S
C889 H952 0.930 . S
C890 C889 1.407 . S
C890 C891 1.449 . S
C890 C894 1.535 . S
C891 C890 1.449 . S
C891 C892 1.384 . S
C891 C916 1.553 . S
C892 C891 1.384 . S
C892 C893 1.364 . S
C892 C895 1.450 . S
C893 C888 1.367 . S
C893 C892 1.364 . S
C893 H953 0.931 . S
C894 C890 1.535 . S
C894 H954 0.959 . S
C894 H955 0.961 . S
C894 H956 0.959 . S
C895 C892 1.450 . S
C895 H957 0.960 . S
C895 H958 0.960 . S
C895 H959 0.960 . S
C896 C897 1.309 . S
C896 C901 1.304 . S
C896 O934 1.435 . S
C897 C896 1.309 . S
C897 C898 1.476 . S
C897 H961 0.930 . S
C898 C897 1.476 . S
C898 C899 1.400 . S
C898 C902 1.567 . S
C899 C898 1.400 . S
C899 C900 1.373 . S
C899 C921 1.432 . S
C900 C899 1.373 . S
C900 C901 1.339 . S
C900 C903 1.530 . S
C901 C896 1.304 . S
C901 C900 1.339 . S
C901 H962 0.930 . S
C902 C898 1.567 . S
C902 H963 0.961 . S
C902 H964 0.960 . S
C902 H965 0.958 . S
C903 C900 1.530 . S
C903 H966 0.961 . S
C903 H967 0.960 . S
C903 H968 0.960 . S
C904 C905 1.530 . S
C904 H970 0.961 . S
C904 H971 0.961 . S
C904 H972 0.959 . S
C905 C904 1.530 . S
C905 O933 1.412 . S
C905 H969 0.980 . S
C906 C907 1.288 . S
C906 C911 1.377 . S
C906 O933 1.393 . S
C907 C906 1.288 . S
C907 C908 1.369 . S
C907 H973 0.932 . S
C908 C907 1.369 . S
C908 C909 1.398 . S
C908 C912 1.527 . S
C909 C908 1.398 . S
C909 C910 1.380 . S
C909 C923 1.497 . S
C910 C909 1.380 . S
C910 C911 1.383 . S
C910 C913 1.603 . S
C911 C906 1.377 . S
C911 C910 1.383 . S
C911 H974 0.929 . S
C912 C908 1.527 . S
C912 H975 0.961 . S
C912 H976 0.959 . S
C912 H977 0.959 . S
C913 C910 1.603 . S
C913 H978 0.960 . S
C913 H979 0.962 . S
C913 H980 0.961 . S
C914 C881 1.587 . S
C914 C915 1.360 . S
C914 C927 1.412 . S
C915 C914 1.360 . S
C915 C916 1.365 . S
C915 H981 0.929 . S
C916 C891 1.553 . S
C916 C915 1.365 . S
C916 C917 1.404 . S
C917 C916 1.404 . S
C917 C918 1.395 . S
C917 C928 1.451 . S
C918 C917 1.395 . S
C918 C919 1.322 . S
C918 H982 0.930 . S
C919 C918 1.322 . S
C919 C920 1.459 . S
C919 H983 0.929 . S
C920 C919 1.459 . S
C920 C921 1.445 . S
C920 C929 1.395 . S
C921 C899 1.432 . S
C921 C920 1.445 . S
C921 C922 1.370 . S
C922 C921 1.370 . S
C922 C923 1.438 . S
C922 H984 0.930 . S
C923 C909 1.497 . S
C923 C922 1.438 . S
C923 C924 1.360 . S
C924 C923 1.360 . S
C924 C925 1.401 . S
C924 C929 1.446 . S
C925 C924 1.401 . S
C925 C926 1.347 . S
C925 H985 0.929 . S
C926 C925 1.347 . S
C926 C927 1.455 . S
C926 H986 0.930 . S
C927 C914 1.412 . S
C927 C926 1.455 . S
C927 C928 1.331 . S
C928 C917 1.451 . S
C928 C927 1.331 . S
C928 C929 1.497 . S
C929 C920 1.395 . S
C929 C924 1.446 . S
C929 C928 1.497 . S
C930 C931 1.582 . S
C930 H987 0.962 . S
C930 H988 0.959 . S
C930 H989 0.958 . S
C931 C930 1.582 . S
C931 O934 1.458 . S
C931 H960 0.980 . S
O932 C877 1.426 . S
O932 C878 1.334 . S
O933 C905 1.412 . S
O933 C906 1.393 . S
O934 C896 1.435 . S
O934 C931 1.458 . S
O935 C887 1.468 . S
O935 C888 1.408 . S
H936 C877 0.980 . S
H937 C876 0.959 . S
H938 C876 0.959 . S
H939 C876 0.960 . S
H940 C879 0.929 . S
H941 C883 0.929 . S
H942 C884 0.959 . S
H943 C884 0.961 . S
H944 C884 0.961 . S
H945 C885 0.960 . S
H946 C885 0.960 . S
H947 C885 0.961 . S
H948 C887 0.980 . S
H949 C886 0.961 . S
H950 C886 0.960 . S
H951 C886 0.959 . S
H952 C889 0.930 . S
H953 C893 0.931 . S
H954 C894 0.959 . S
H955 C894 0.961 . S
H956 C894 0.959 . S
H957 C895 0.960 . S
H958 C895 0.960 . S
H959 C895 0.960 . S
H960 C931 0.980 . S
H961 C897 0.930 . S
H962 C901 0.930 . S
H963 C902 0.961 . S
H964 C902 0.960 . S
H965 C902 0.958 . S
H966 C903 0.961 . S
H967 C903 0.960 . S
H968 C903 0.960 . S
H969 C905 0.980 . S
H970 C904 0.961 . S
H971 C904 0.961 . S
H972 C904 0.959 . S
H973 C907 0.932 . S
H974 C911 0.929 . S
H975 C912 0.961 . S
H976 C912 0.959 . S
H977 C912 0.959 . S
H978 C913 0.960 . S
H979 C913 0.962 . S
H980 C913 0.961 . S
H981 C915 0.929 . S
H982 C918 0.930 . S
H983 C919 0.929 . S
H984 C922 0.930 . S
H985 C925 0.929 . S
H986 C926 0.930 . S
H987 C930 0.962 . S
H988 C930 0.959 . S
H989 C930 0.958 . S
C990 C991 1.560 . S
C990 H1051 0.959 . S
C990 H1052 0.959 . S
C990 H1053 0.960 . S
C991 C990 1.560 . S
C991 O1046 1.426 . S
C991 H1050 0.980 . S
C992 C993 1.407 . S
C992 C997 1.418 . S
C992 O1046 1.334 . S
C993 C992 1.407 . S
C993 C994 1.360 . S
C993 H1054 0.929 . S
C994 C993 1.360 . S
C994 C995 1.401 . S
C994 C998 1.527 . S
C995 C994 1.401 . S
C995 C996 1.405 . S
C995 C1028 1.587 . S
C996 C995 1.405 . S
C996 C997 1.332 . S
C996 C999 1.496 . S
C997 C992 1.418 . S
C997 C996 1.332 . S
C997 H1055 0.929 . S
C998 C994 1.527 . S
C998 H1056 0.959 . S
C998 H1057 0.961 . S
C998 H1058 0.961 . S
C999 C996 1.496 . S
C999 H1059 0.960 . S
C999 H1060 0.960 . S
C999 H1061 0.961 . S
C1000 C1001 1.517 . S
C1000 H1063 0.961 . S
C1000 H1064 0.960 . S
C1000 H1065 0.959 . S
C1001 C1000 1.517 . S
C1001 O1049 1.468 . S
C1001 H1062 0.980 . S
C1002 C1003 1.349 . S
C1002 C1007 1.367 . S
C1002 O1049 1.408 . S
C1003 C1002 1.349 . S
C1003 C1004 1.407 . S
C1003 H1066 0.930 . S
C1004 C1003 1.407 . S
C1004 C1005 1.449 . S
C1004 C1008 1.535 . S
C1005 C1004 1.449 . S
C1005 C1006 1.384 . S
C1005 C1030 1.553 . S
C1006 C1005 1.384 . S
C1006 C1007 1.364 . S
C1006 C1009 1.450 . S
C1007 C1002 1.367 . S
C1007 C1006 1.364 . S
C1007 H1067 0.931 . S
C1008 C1004 1.535 . S
C1008 H1068 0.959 . S
C1008 H1069 0.961 . S
C1008 H1070 0.959 . S
C1009 C1006 1.450 . S
C1009 H1071 0.960 . S
C1009 H1072 0.960 . S
C1009 H1073 0.960 . S
C1010 C1011 1.309 . S
C1010 C1015 1.304 . S
C1010 O1048 1.435 . S
C1011 C1010 1.309 . S
C1011 C1012 1.476 . S
C1011 H1075 0.930 . S
C1012 C1011 1.476 . S
C1012 C1013 1.400 . S
C1012 C1016 1.567 . S
C1013 C1012 1.400 . S
C1013 C1014 1.373 . S
C1013 C1035 1.432 . S
C1014 C1013 1.373 . S
C1014 C1015 1.339 . S
C1014 C1017 1.530 . S
C1015 C1010 1.304 . S
C1015 C1014 1.339 . S
C1015 H1076 0.930 . S
C1016 C1012 1.567 . S
C1016 H1077 0.961 . S
C1016 H1078 0.960 . S
C1016 H1079 0.958 . S
C1017 C1014 1.530 . S
C1017 H1080 0.961 . S
C1017 H1081 0.960 . S
C1017 H1082 0.960 . S
C1018 C1019 1.530 . S
C1018 H1084 0.961 . S
C1018 H1085 0.961 . S
C1018 H1086 0.959 . S
C1019 C1018 1.530 . S
C1019 O1047 1.412 . S
C1019 H1083 0.980 . S
C1020 C1021 1.288 . S
C1020 C1025 1.377 . S
C1020 O1047 1.393 . S
C1021 C1020 1.288 . S
C1021 C1022 1.369 . S
C1021 H1087 0.932 . S
C1022 C1021 1.369 . S
C1022 C1023 1.398 . S
C1022 C1026 1.527 . S
C1023 C1022 1.398 . S
C1023 C1024 1.380 . S
C1023 C1037 1.497 . S
C1024 C1023 1.380 . S
C1024 C1025 1.383 . S
C1024 C1027 1.603 . S
C1025 C1020 1.377 . S
C1025 C1024 1.383 . S
C1025 H1088 0.929 . S
C1026 C1022 1.527 . S
C1026 H1089 0.961 . S
C1026 H1090 0.959 . S
C1026 H1091 0.959 . S
C1027 C1024 1.603 . S
C1027 H1092 0.960 . S
C1027 H1093 0.962 . S
C1027 H1094 0.961 . S
C1028 C995 1.587 . S
C1028 C1029 1.360 . S
C1028 C1041 1.412 . S
C1029 C1028 1.360 . S
C1029 C1030 1.365 . S
C1029 H1095 0.929 . S
C1030 C1005 1.553 . S
C1030 C1029 1.365 . S
C1030 C1031 1.404 . S
C1031 C1030 1.404 . S
C1031 C1032 1.395 . S
C1031 C1042 1.451 . S
C1032 C1031 1.395 . S
C1032 C1033 1.322 . S
C1032 H1096 0.930 . S
C1033 C1032 1.322 . S
C1033 C1034 1.459 . S
C1033 H1097 0.929 . S
C1034 C1033 1.459 . S
C1034 C1035 1.445 . S
C1034 C1043 1.395 . S
C1035 C1013 1.432 . S
C1035 C1034 1.445 . S
C1035 C1036 1.370 . S
C1036 C1035 1.370 . S
C1036 C1037 1.438 . S
C1036 H1098 0.930 . S
C1037 C1023 1.497 . S
C1037 C1036 1.438 . S
C1037 C1038 1.360 . S
C1038 C1037 1.360 . S
C1038 C1039 1.401 . S
C1038 C1043 1.446 . S
C1039 C1038 1.401 . S
C1039 C1040 1.347 . S
C1039 H1099 0.929 . S
C1040 C1039 1.347 . S
C1040 C1041 1.455 . S
C1040 H1100 0.930 . S
C1041 C1028 1.412 . S
C1041 C1040 1.455 . S
C1041 C1042 1.331 . S
C1042 C1031 1.451 . S
C1042 C1041 1.331 . S
C1042 C1043 1.497 . S
C1043 C1034 1.395 . S
C1043 C1038 1.446 . S
C1043 C1042 1.497 . S
C1044 C1045 1.582 . S
C1044 H1101 0.962 . S
C1044 H1102 0.959 . S
C1044 H1103 0.958 . S
C1045 C1044 1.582 . S
C1045 O1048 1.458 . S
C1045 H1074 0.980 . S
O1046 C991 1.426 . S
O1046 C992 1.334 . S
O1047 C1019 1.412 . S
O1047 C1020 1.393 . S
O1048 C1010 1.435 . S
O1048 C1045 1.458 . S
O1049 C1001 1.468 . S
O1049 C1002 1.408 . S
H1050 C991 0.980 . S
H1051 C990 0.959 . S
H1052 C990 0.959 . S
H1053 C990 0.960 . S
H1054 C993 0.929 . S
H1055 C997 0.929 . S
H1056 C998 0.959 . S
H1057 C998 0.961 . S
H1058 C998 0.961 . S
H1059 C999 0.960 . S
H1060 C999 0.960 . S
H1061 C999 0.961 . S
H1062 C1001 0.980 . S
H1063 C1000 0.961 . S
H1064 C1000 0.960 . S
H1065 C1000 0.959 . S
H1066 C1003 0.930 . S
H1067 C1007 0.931 . S
H1068 C1008 0.959 . S
H1069 C1008 0.961 . S
H1070 C1008 0.959 . S
H1071 C1009 0.960 . S
H1072 C1009 0.960 . S
H1073 C1009 0.960 . S
H1074 C1045 0.980 . S
H1075 C1011 0.930 . S
H1076 C1015 0.930 . S
H1077 C1016 0.961 . S
H1078 C1016 0.960 . S
H1079 C1016 0.958 . S
H1080 C1017 0.961 . S
H1081 C1017 0.960 . S
H1082 C1017 0.960 . S
H1083 C1019 0.980 . S
H1084 C1018 0.961 . S
H1085 C1018 0.961 . S
H1086 C1018 0.959 . S
H1087 C1021 0.932 . S
H1088 C1025 0.929 . S
H1089 C1026 0.961 . S
H1090 C1026 0.959 . S
H1091 C1026 0.959 . S
H1092 C1027 0.960 . S
H1093 C1027 0.962 . S
H1094 C1027 0.961 . S
H1095 C1029 0.929 . S
H1096 C1032 0.930 . S
H1097 C1033 0.929 . S
H1098 C1036 0.930 . S
H1099 C1039 0.929 . S
H1100 C1040 0.930 . S
H1101 C1044 0.962 . S
H1102 C1044 0.959 . S
H1103 C1044 0.958 . S
C1104 C1105 1.560 . S
C1104 H1165 0.959 . S
C1104 H1166 0.959 . S
C1104 H1167 0.960 . S
C1105 C1104 1.560 . S
C1105 O1160 1.426 . S
C1105 H1164 0.980 . S
C1106 C1107 1.407 . S
C1106 C1111 1.418 . S
C1106 O1160 1.334 . S
C1107 C1106 1.407 . S
C1107 C1108 1.360 . S
C1107 H1168 0.929 . S
C1108 C1107 1.360 . S
C1108 C1109 1.401 . S
C1108 C1112 1.527 . S
C1109 C1108 1.401 . S
C1109 C1110 1.405 . S
C1109 C1142 1.587 . S
C1110 C1109 1.405 . S
C1110 C1111 1.332 . S
C1110 C1113 1.496 . S
C1111 C1106 1.418 . S
C1111 C1110 1.332 . S
C1111 H1169 0.929 . S
C1112 C1108 1.527 . S
C1112 H1170 0.959 . S
C1112 H1171 0.961 . S
C1112 H1172 0.961 . S
C1113 C1110 1.496 . S
C1113 H1173 0.960 . S
C1113 H1174 0.960 . S
C1113 H1175 0.961 . S
C1114 C1115 1.517 . S
C1114 H1177 0.961 . S
C1114 H1178 0.960 . S
C1114 H1179 0.959 . S
C1115 C1114 1.517 . S
C1115 O1163 1.468 . S
C1115 H1176 0.980 . S
C1116 C1117 1.349 . S
C1116 C1121 1.367 . S
C1116 O1163 1.408 . S
C1117 C1116 1.349 . S
C1117 C1118 1.407 . S
C1117 H1180 0.930 . S
C1118 C1117 1.407 . S
C1118 C1119 1.449 . S
C1118 C1122 1.535 . S
C1119 C1118 1.449 . S
C1119 C1120 1.384 . S
C1119 C1144 1.553 . S
C1120 C1119 1.384 . S
C1120 C1121 1.364 . S
C1120 C1123 1.450 . S
C1121 C1116 1.367 . S
C1121 C1120 1.364 . S
C1121 H1181 0.931 . S
C1122 C1118 1.535 . S
C1122 H1182 0.959 . S
C1122 H1183 0.961 . S
C1122 H1184 0.959 . S
C1123 C1120 1.450 . S
C1123 H1185 0.960 . S
C1123 H1186 0.960 . S
C1123 H1187 0.960 . S
C1124 C1125 1.309 . S
C1124 C1129 1.304 . S
C1124 O1162 1.435 . S
C1125 C1124 1.309 . S
C1125 C1126 1.476 . S
C1125 H1189 0.930 . S
C1126 C1125 1.476 . S
C1126 C1127 1.400 . S
C1126 C1130 1.567 . S
C1127 C1126 1.400 . S
C1127 C1128 1.373 . S
C1127 C1149 1.432 . S
C1128 C1127 1.373 . S
C1128 C1129 1.339 . S
C1128 C1131 1.530 . S
C1129 C1124 1.304 . S
C1129 C1128 1.339 . S
C1129 H1190 0.930 . S
C1130 C1126 1.567 . S
C1130 H1191 0.961 . S
C1130 H1192 0.960 . S
C1130 H1193 0.958 . S
C1131 C1128 1.530 . S
C1131 H1194 0.961 . S
C1131 H1195 0.960 . S
C1131 H1196 0.960 . S
C1132 C1133 1.530 . S
C1132 H1198 0.961 . S
C1132 H1199 0.961 . S
C1132 H1200 0.959 . S
C1133 C1132 1.530 . S
C1133 O1161 1.412 . S
C1133 H1197 0.980 . S
C1134 C1135 1.288 . S
C1134 C1139 1.377 . S
C1134 O1161 1.393 . S
C1135 C1134 1.288 . S
C1135 C1136 1.369 . S
C1135 H1201 0.932 . S
C1136 C1135 1.369 . S
C1136 C1137 1.398 . S
C1136 C1140 1.527 . S
C1137 C1136 1.398 . S
C1137 C1138 1.380 . S
C1137 C1151 1.497 . S
C1138 C1137 1.380 . S
C1138 C1139 1.383 . S
C1138 C1141 1.603 . S
C1139 C1134 1.377 . S
C1139 C1138 1.383 . S
C1139 H1202 0.929 . S
C1140 C1136 1.527 . S
C1140 H1203 0.961 . S
C1140 H1204 0.959 . S
C1140 H1205 0.959 . S
C1141 C1138 1.603 . S
C1141 H1206 0.960 . S
C1141 H1207 0.962 . S
C1141 H1208 0.961 . S
C1142 C1109 1.587 . S
C1142 C1143 1.360 . S
C1142 C1155 1.412 . S
C1143 C1142 1.360 . S
C1143 C1144 1.365 . S
C1143 H1209 0.929 . S
C1144 C1119 1.553 . S
C1144 C1143 1.365 . S
C1144 C1145 1.404 . S
C1145 C1144 1.404 . S
C1145 C1146 1.395 . S
C1145 C1156 1.451 . S
C1146 C1145 1.395 . S
C1146 C1147 1.322 . S
C1146 H1210 0.930 . S
C1147 C1146 1.322 . S
C1147 C1148 1.459 . S
C1147 H1211 0.929 . S
C1148 C1147 1.459 . S
C1148 C1149 1.445 . S
C1148 C1157 1.395 . S
C1149 C1127 1.432 . S
C1149 C1148 1.445 . S
C1149 C1150 1.370 . S
C1150 C1149 1.370 . S
C1150 C1151 1.438 . S
C1150 H1212 0.930 . S
C1151 C1137 1.497 . S
C1151 C1150 1.438 . S
C1151 C1152 1.360 . S
C1152 C1151 1.360 . S
C1152 C1153 1.401 . S
C1152 C1157 1.446 . S
C1153 C1152 1.401 . S
C1153 C1154 1.347 . S
C1153 H1213 0.929 . S
C1154 C1153 1.347 . S
C1154 C1155 1.455 . S
C1154 H1214 0.930 . S
C1155 C1142 1.412 . S
C1155 C1154 1.455 . S
C1155 C1156 1.331 . S
C1156 C1145 1.451 . S
C1156 C1155 1.331 . S
C1156 C1157 1.497 . S
C1157 C1148 1.395 . S
C1157 C1152 1.446 . S
C1157 C1156 1.497 . S
C1158 C1159 1.582 . S
C1158 H1215 0.962 . S
C1158 H1216 0.959 . S
C1158 H1217 0.958 . S
C1159 C1158 1.582 . S
C1159 O1162 1.458 . S
C1159 H1188 0.980 . S
O1160 C1105 1.426 . S
O1160 C1106 1.334 . S
O1161 C1133 1.412 . S
O1161 C1134 1.393 . S
O1162 C1124 1.435 . S
O1162 C1159 1.458 . S
O1163 C1115 1.468 . S
O1163 C1116 1.408 . S
H1164 C1105 0.980 . S
H1165 C1104 0.959 . S
H1166 C1104 0.959 . S
H1167 C1104 0.960 . S
H1168 C1107 0.929 . S
H1169 C1111 0.929 . S
H1170 C1112 0.959 . S
H1171 C1112 0.961 . S
H1172 C1112 0.961 . S
H1173 C1113 0.960 . S
H1174 C1113 0.960 . S
H1175 C1113 0.961 . S
H1176 C1115 0.980 . S
H1177 C1114 0.961 . S
H1178 C1114 0.960 . S
H1179 C1114 0.959 . S
H1180 C1117 0.930 . S
H1181 C1121 0.931 . S
H1182 C1122 0.959 . S
H1183 C1122 0.961 . S
H1184 C1122 0.959 . S
H1185 C1123 0.960 . S
H1186 C1123 0.960 . S
H1187 C1123 0.960 . S
H1188 C1159 0.980 . S
H1189 C1125 0.930 . S
H1190 C1129 0.930 . S
H1191 C1130 0.961 . S
H1192 C1130 0.960 . S
H1193 C1130 0.958 . S
H1194 C1131 0.961 . S
H1195 C1131 0.960 . S
H1196 C1131 0.960 . S
H1197 C1133 0.980 . S
H1198 C1132 0.961 . S
H1199 C1132 0.961 . S
H1200 C1132 0.959 . S
H1201 C1135 0.932 . S
H1202 C1139 0.929 . S
H1203 C1140 0.961 . S
H1204 C1140 0.959 . S
H1205 C1140 0.959 . S
H1206 C1141 0.960 . S
H1207 C1141 0.962 . S
H1208 C1141 0.961 . S
H1209 C1143 0.929 . S
H1210 C1146 0.930 . S
H1211 C1147 0.929 . S
H1212 C1150 0.930 . S
H1213 C1153 0.929 . S
H1214 C1154 0.930 . S
H1215 C1158 0.962 . S
H1216 C1158 0.959 . S
H1217 C1158 0.958 . S
C1218 C1219 1.560 . S
C1218 H1279 0.959 . S
C1218 H1280 0.959 . S
C1218 H1281 0.960 . S
C1219 C1218 1.560 . S
C1219 O1274 1.426 . S
C1219 H1278 0.980 . S
C1220 C1221 1.407 . S
C1220 C1225 1.418 . S
C1220 O1274 1.334 . S
C1221 C1220 1.407 . S
C1221 C1222 1.360 . S
C1221 H1282 0.929 . S
C1222 C1221 1.360 . S
C1222 C1223 1.401 . S
C1222 C1226 1.527 . S
C1223 C1222 1.401 . S
C1223 C1224 1.405 . S
C1223 C1256 1.587 . S
C1224 C1223 1.405 . S
C1224 C1225 1.332 . S
C1224 C1227 1.496 . S
C1225 C1220 1.418 . S
C1225 C1224 1.332 . S
C1225 H1283 0.929 . S
C1226 C1222 1.527 . S
C1226 H1284 0.959 . S
C1226 H1285 0.961 . S
C1226 H1286 0.961 . S
C1227 C1224 1.496 . S
C1227 H1287 0.960 . S
C1227 H1288 0.960 . S
C1227 H1289 0.961 . S
C1228 C1229 1.517 . S
C1228 H1291 0.961 . S
C1228 H1292 0.960 . S
C1228 H1293 0.959 . S
C1229 C1228 1.517 . S
C1229 O1277 1.468 . S
C1229 H1290 0.980 . S
C1230 C1231 1.349 . S
C1230 C1235 1.367 . S
C1230 O1277 1.408 . S
C1231 C1230 1.349 . S
C1231 C1232 1.407 . S
C1231 H1294 0.930 . S
C1232 C1231 1.407 . S
C1232 C1233 1.449 . S
C1232 C1236 1.535 . S
C1233 C1232 1.449 . S
C1233 C1234 1.384 . S
C1233 C1258 1.553 . S
C1234 C1233 1.384 . S
C1234 C1235 1.364 . S
C1234 C1237 1.450 . S
C1235 C1230 1.367 . S
C1235 C1234 1.364 . S
C1235 H1295 0.931 . S
C1236 C1232 1.535 . S
C1236 H1296 0.959 . S
C1236 H1297 0.961 . S
C1236 H1298 0.959 . S
C1237 C1234 1.450 . S
C1237 H1299 0.960 . S
C1237 H1300 0.960 . S
C1237 H1301 0.960 . S
C1238 C1239 1.309 . S
C1238 C1243 1.304 . S
C1238 O1276 1.435 . S
C1239 C1238 1.309 . S
C1239 C1240 1.476 . S
C1239 H1303 0.930 . S
C1240 C1239 1.476 . S
C1240 C1241 1.400 . S
C1240 C1244 1.567 . S
C1241 C1240 1.400 . S
C1241 C1242 1.373 . S
C1241 C1263 1.432 . S
C1242 C1241 1.373 . S
C1242 C1243 1.339 . S
C1242 C1245 1.530 . S
C1243 C1238 1.304 . S
C1243 C1242 1.339 . S
C1243 H1304 0.930 . S
C1244 C1240 1.567 . S
C1244 H1305 0.961 . S
C1244 H1306 0.960 . S
C1244 H1307 0.958 . S
C1245 C1242 1.530 . S
C1245 H1308 0.961 . S
C1245 H1309 0.960 . S
C1245 H1310 0.960 . S
C1246 C1247 1.530 . S
C1246 H1312 0.961 . S
C1246 H1313 0.961 . S
C1246 H1314 0.959 . S
C1247 C1246 1.530 . S
C1247 O1275 1.412 . S
C1247 H1311 0.980 . S
C1248 C1249 1.288 . S
C1248 C1253 1.377 . S
C1248 O1275 1.393 . S
C1249 C1248 1.288 . S
C1249 C1250 1.369 . S
C1249 H1315 0.932 . S
C1250 C1249 1.369 . S
C1250 C1251 1.398 . S
C1250 C1254 1.527 . S
C1251 C1250 1.398 . S
C1251 C1252 1.380 . S
C1251 C1265 1.497 . S
C1252 C1251 1.380 . S
C1252 C1253 1.383 . S
C1252 C1255 1.603 . S
C1253 C1248 1.377 . S
C1253 C1252 1.383 . S
C1253 H1316 0.929 . S
C1254 C1250 1.527 . S
C1254 H1317 0.961 . S
C1254 H1318 0.959 . S
C1254 H1319 0.959 . S
C1255 C1252 1.603 . S
C1255 H1320 0.960 . S
C1255 H1321 0.962 . S
C1255 H1322 0.961 . S
C1256 C1223 1.587 . S
C1256 C1257 1.360 . S
C1256 C1269 1.412 . S
C1257 C1256 1.360 . S
C1257 C1258 1.365 . S
C1257 H1323 0.929 . S
C1258 C1233 1.553 . S
C1258 C1257 1.365 . S
C1258 C1259 1.404 . S
C1259 C1258 1.404 . S
C1259 C1260 1.395 . S
C1259 C1270 1.451 . S
C1260 C1259 1.395 . S
C1260 C1261 1.322 . S
C1260 H1324 0.930 . S
C1261 C1260 1.322 . S
C1261 C1262 1.459 . S
C1261 H1325 0.929 . S
C1262 C1261 1.459 . S
C1262 C1263 1.445 . S
C1262 C1271 1.395 . S
C1263 C1241 1.432 . S
C1263 C1262 1.445 . S
C1263 C1264 1.370 . S
C1264 C1263 1.370 . S
C1264 C1265 1.438 . S
C1264 H1326 0.930 . S
C1265 C1251 1.497 . S
C1265 C1264 1.438 . S
C1265 C1266 1.360 . S
C1266 C1265 1.360 . S
C1266 C1267 1.401 . S
C1266 C1271 1.446 . S
C1267 C1266 1.401 . S
C1267 C1268 1.347 . S
C1267 H1327 0.929 . S
C1268 C1267 1.347 . S
C1268 C1269 1.455 . S
C1268 H1328 0.930 . S
C1269 C1256 1.412 . S
C1269 C1268 1.455 . S
C1269 C1270 1.331 . S
C1270 C1259 1.451 . S
C1270 C1269 1.331 . S
C1270 C1271 1.497 . S
C1271 C1262 1.395 . S
C1271 C1266 1.446 . S
C1271 C1270 1.497 . S
C1272 C1273 1.582 . S
C1272 H1329 0.962 . S
C1272 H1330 0.959 . S
C1272 H1331 0.958 . S
C1273 C1272 1.582 . S
C1273 O1276 1.458 . S
C1273 H1302 0.980 . S
O1274 C1219 1.426 . S
O1274 C1220 1.334 . S
O1275 C1247 1.412 . S
O1275 C1248 1.393 . S
O1276 C1238 1.435 . S
O1276 C1273 1.458 . S
O1277 C1229 1.468 . S
O1277 C1230 1.408 . S
H1278 C1219 0.980 . S
H1279 C1218 0.959 . S
H1280 C1218 0.959 . S
H1281 C1218 0.960 . S
H1282 C1221 0.929 . S
H1283 C1225 0.929 . S
H1284 C1226 0.959 . S
H1285 C1226 0.961 . S
H1286 C1226 0.961 . S
H1287 C1227 0.960 . S
H1288 C1227 0.960 . S
H1289 C1227 0.961 . S
H1290 C1229 0.980 . S
H1291 C1228 0.961 . S
H1292 C1228 0.960 . S
H1293 C1228 0.959 . S
H1294 C1231 0.930 . S
H1295 C1235 0.931 . S
H1296 C1236 0.959 . S
H1297 C1236 0.961 . S
H1298 C1236 0.959 . S
H1299 C1237 0.960 . S
H1300 C1237 0.960 . S
H1301 C1237 0.960 . S
H1302 C1273 0.980 . S
H1303 C1239 0.930 . S
H1304 C1243 0.930 . S
H1305 C1244 0.961 . S
H1306 C1244 0.960 . S
H1307 C1244 0.958 . S
H1308 C1245 0.961 . S
H1309 C1245 0.960 . S
H1310 C1245 0.960 . S
H1311 C1247 0.980 . S
H1312 C1246 0.961 . S
H1313 C1246 0.961 . S
H1314 C1246 0.959 . S
H1315 C1249 0.932 . S
H1316 C1253 0.929 . S
H1317 C1254 0.961 . S
H1318 C1254 0.959 . S
H1319 C1254 0.959 . S
H1320 C1255 0.960 . S
H1321 C1255 0.962 . S
H1322 C1255 0.961 . S
H1323 C1257 0.929 . S
H1324 C1260 0.930 . S
H1325 C1261 0.929 . S
H1326 C1264 0.930 . S
H1327 C1267 0.929 . S
H1328 C1268 0.930 . S
H1329 C1272 0.962 . S
H1330 C1272 0.959 . S
H1331 C1272 0.958 . S
C1332 C1333 1.560 . S
C1332 H1393 0.959 . S
C1332 H1394 0.959 . S
C1332 H1395 0.960 . S
C1333 C1332 1.560 . S
C1333 O1388 1.426 . S
C1333 H1392 0.980 . S
C1334 C1335 1.407 . S
C1334 C1339 1.418 . S
C1334 O1388 1.334 . S
C1335 C1334 1.407 . S
C1335 C1336 1.360 . S
C1335 H1396 0.929 . S
C1336 C1335 1.360 . S
C1336 C1337 1.401 . S
C1336 C1340 1.527 . S
C1337 C1336 1.401 . S
C1337 C1338 1.405 . S
C1337 C1370 1.587 . S
C1338 C1337 1.405 . S
C1338 C1339 1.332 . S
C1338 C1341 1.496 . S
C1339 C1334 1.418 . S
C1339 C1338 1.332 . S
C1339 H1397 0.929 . S
C1340 C1336 1.527 . S
C1340 H1398 0.959 . S
C1340 H1399 0.961 . S
C1340 H1400 0.961 . S
C1341 C1338 1.496 . S
C1341 H1401 0.960 . S
C1341 H1402 0.960 . S
C1341 H1403 0.961 . S
C1342 C1343 1.517 . S
C1342 H1405 0.961 . S
C1342 H1406 0.960 . S
C1342 H1407 0.959 . S
C1343 C1342 1.517 . S
C1343 O1391 1.468 . S
C1343 H1404 0.980 . S
C1344 C1345 1.349 . S
C1344 C1349 1.367 . S
C1344 O1391 1.408 . S
C1345 C1344 1.349 . S
C1345 C1346 1.407 . S
C1345 H1408 0.930 . S
C1346 C1345 1.407 . S
C1346 C1347 1.449 . S
C1346 C1350 1.535 . S
C1347 C1346 1.449 . S
C1347 C1348 1.384 . S
C1347 C1372 1.553 . S
C1348 C1347 1.384 . S
C1348 C1349 1.364 . S
C1348 C1351 1.450 . S
C1349 C1344 1.367 . S
C1349 C1348 1.364 . S
C1349 H1409 0.931 . S
C1350 C1346 1.535 . S
C1350 H1410 0.959 . S
C1350 H1411 0.961 . S
C1350 H1412 0.959 . S
C1351 C1348 1.450 . S
C1351 H1413 0.960 . S
C1351 H1414 0.960 . S
C1351 H1415 0.960 . S
C1352 C1353 1.309 . S
C1352 C1357 1.304 . S
C1352 O1390 1.435 . S
C1353 C1352 1.309 . S
C1353 C1354 1.476 . S
C1353 H1417 0.930 . S
C1354 C1353 1.476 . S
C1354 C1355 1.400 . S
C1354 C1358 1.567 . S
C1355 C1354 1.400 . S
C1355 C1356 1.373 . S
C1355 C1377 1.432 . S
C1356 C1355 1.373 . S
C1356 C1357 1.339 . S
C1356 C1359 1.530 . S
C1357 C1352 1.304 . S
C1357 C1356 1.339 . S
C1357 H1418 0.930 . S
C1358 C1354 1.567 . S
C1358 H1419 0.961 . S
C1358 H1420 0.960 . S
C1358 H1421 0.958 . S
C1359 C1356 1.530 . S
C1359 H1422 0.961 . S
C1359 H1423 0.960 . S
C1359 H1424 0.960 . S
C1360 C1361 1.530 . S
C1360 H1426 0.961 . S
C1360 H1427 0.961 . S
C1360 H1428 0.959 . S
C1361 C1360 1.530 . S
C1361 O1389 1.412 . S
C1361 H1425 0.980 . S
C1362 C1363 1.288 . S
C1362 C1367 1.377 . S
C1362 O1389 1.393 . S
C1363 C1362 1.288 . S
C1363 C1364 1.369 . S
C1363 H1429 0.932 . S
C1364 C1363 1.369 . S
C1364 C1365 1.398 . S
C1364 C1368 1.527 . S
C1365 C1364 1.398 . S
C1365 C1366 1.380 . S
C1365 C1379 1.497 . S
C1366 C1365 1.380 . S
C1366 C1367 1.383 . S
C1366 C1369 1.603 . S
C1367 C1362 1.377 . S
C1367 C1366 1.383 . S
C1367 H1430 0.929 . S
C1368 C1364 1.527 . S
C1368 H1431 0.961 . S
C1368 H1432 0.959 . S
C1368 H1433 0.959 . S
C1369 C1366 1.603 . S
C1369 H1434 0.960 . S
C1369 H1435 0.962 . S
C1369 H1436 0.961 . S
C1370 C1337 1.587 . S
C1370 C1371 1.360 . S
C1370 C1383 1.412 . S
C1371 C1370 1.360 . S
C1371 C1372 1.365 . S
C1371 H1437 0.929 . S
C1372 C1347 1.553 . S
C1372 C1371 1.365 . S
C1372 C1373 1.404 . S
C1373 C1372 1.404 . S
C1373 C1374 1.395 . S
C1373 C1384 1.451 . S
C1374 C1373 1.395 . S
C1374 C1375 1.322 . S
C1374 H1438 0.930 . S
C1375 C1374 1.322 . S
C1375 C1376 1.459 . S
C1375 H1439 0.929 . S
C1376 C1375 1.459 . S
C1376 C1377 1.445 . S
C1376 C1385 1.395 . S
C1377 C1355 1.432 . S
C1377 C1376 1.445 . S
C1377 C1378 1.370 . S
C1378 C1377 1.370 . S
C1378 C1379 1.438 . S
C1378 H1440 0.930 . S
C1379 C1365 1.497 . S
C1379 C1378 1.438 . S
C1379 C1380 1.360 . S
C1380 C1379 1.360 . S
C1380 C1381 1.401 . S
C1380 C1385 1.446 . S
C1381 C1380 1.401 . S
C1381 C1382 1.347 . S
C1381 H1441 0.929 . S
C1382 C1381 1.347 . S
C1382 C1383 1.455 . S
C1382 H1442 0.930 . S
C1383 C1370 1.412 . S
C1383 C1382 1.455 . S
C1383 C1384 1.331 . S
C1384 C1373 1.451 . S
C1384 C1383 1.331 . S
C1384 C1385 1.497 . S
C1385 C1376 1.395 . S
C1385 C1380 1.446 . S
C1385 C1384 1.497 . S
C1386 C1387 1.582 . S
C1386 H1443 0.962 . S
C1386 H1444 0.959 . S
C1386 H1445 0.958 . S
C1387 C1386 1.582 . S
C1387 O1390 1.458 . S
C1387 H1416 0.980 . S
O1388 C1333 1.426 . S
O1388 C1334 1.334 . S
O1389 C1361 1.412 . S
O1389 C1362 1.393 . S
O1390 C1352 1.435 . S
O1390 C1387 1.458 . S
O1391 C1343 1.468 . S
O1391 C1344 1.408 . S
H1392 C1333 0.980 . S
H1393 C1332 0.959 . S
H1394 C1332 0.959 . S
H1395 C1332 0.960 . S
H1396 C1335 0.929 . S
H1397 C1339 0.929 . S
H1398 C1340 0.959 . S
H1399 C1340 0.961 . S
H1400 C1340 0.961 . S
H1401 C1341 0.960 . S
H1402 C1341 0.960 . S
H1403 C1341 0.961 . S
H1404 C1343 0.980 . S
H1405 C1342 0.961 . S
H1406 C1342 0.960 . S
H1407 C1342 0.959 . S
H1408 C1345 0.930 . S
H1409 C1349 0.931 . S
H1410 C1350 0.959 . S
H1411 C1350 0.961 . S
H1412 C1350 0.959 . S
H1413 C1351 0.960 . S
H1414 C1351 0.960 . S
H1415 C1351 0.960 . S
H1416 C1387 0.980 . S
H1417 C1353 0.930 . S
H1418 C1357 0.930 . S
H1419 C1358 0.961 . S
H1420 C1358 0.960 . S
H1421 C1358 0.958 . S
H1422 C1359 0.961 . S
H1423 C1359 0.960 . S
H1424 C1359 0.960 . S
H1425 C1361 0.980 . S
H1426 C1360 0.961 . S
H1427 C1360 0.961 . S
H1428 C1360 0.959 . S
H1429 C1363 0.932 . S
H1430 C1367 0.929 . S
H1431 C1368 0.961 . S
H1432 C1368 0.959 . S
H1433 C1368 0.959 . S
H1434 C1369 0.960 . S
H1435 C1369 0.962 . S
H1436 C1369 0.961 . S
H1437 C1371 0.929 . S
H1438 C1374 0.930 . S
H1439 C1375 0.929 . S
H1440 C1378 0.930 . S
H1441 C1381 0.929 . S
H1442 C1382 0.930 . S
H1443 C1386 0.962 . S
H1444 C1386 0.959 . S
H1445 C1386 0.958 . S
C1446 C1447 1.560 . S
C1446 H1507 0.959 . S
C1446 H1508 0.959 . S
C1446 H1509 0.960 . S
C1447 C1446 1.560 . S
C1447 O1502 1.426 . S
C1447 H1506 0.980 . S
C1448 C1449 1.407 . S
C1448 C1453 1.418 . S
C1448 O1502 1.334 . S
C1449 C1448 1.407 . S
C1449 C1450 1.360 . S
C1449 H1510 0.929 . S
C1450 C1449 1.360 . S
C1450 C1451 1.401 . S
C1450 C1454 1.527 . S
C1451 C1450 1.401 . S
C1451 C1452 1.405 . S
C1451 C1484 1.587 . S
C1452 C1451 1.405 . S
C1452 C1453 1.332 . S
C1452 C1455 1.496 . S
C1453 C1448 1.418 . S
C1453 C1452 1.332 . S
C1453 H1511 0.929 . S
C1454 C1450 1.527 . S
C1454 H1512 0.959 . S
C1454 H1513 0.961 . S
C1454 H1514 0.961 . S
C1455 C1452 1.496 . S
C1455 H1515 0.960 . S
C1455 H1516 0.960 . S
C1455 H1517 0.961 . S
C1456 C1457 1.517 . S
C1456 H1519 0.961 . S
C1456 H1520 0.960 . S
C1456 H1521 0.959 . S
C1457 C1456 1.517 . S
C1457 O1505 1.468 . S
C1457 H1518 0.980 . S
C1458 C1459 1.349 . S
C1458 C1463 1.367 . S
C1458 O1505 1.408 . S
C1459 C1458 1.349 . S
C1459 C1460 1.407 . S
C1459 H1522 0.930 . S
C1460 C1459 1.407 . S
C1460 C1461 1.449 . S
C1460 C1464 1.535 . S
C1461 C1460 1.449 . S
C1461 C1462 1.384 . S
C1461 C1486 1.553 . S
C1462 C1461 1.384 . S
C1462 C1463 1.364 . S
C1462 C1465 1.450 . S
C1463 C1458 1.367 . S
C1463 C1462 1.364 . S
C1463 H1523 0.931 . S
C1464 C1460 1.535 . S
C1464 H1524 0.959 . S
C1464 H1525 0.961 . S
C1464 H1526 0.959 . S
C1465 C1462 1.450 . S
C1465 H1527 0.960 . S
C1465 H1528 0.960 . S
C1465 H1529 0.960 . S
C1466 C1467 1.309 . S
C1466 C1471 1.304 . S
C1466 O1504 1.435 . S
C1467 C1466 1.309 . S
C1467 C1468 1.476 . S
C1467 H1531 0.930 . S
C1468 C1467 1.476 . S
C1468 C1469 1.400 . S
C1468 C1472 1.567 . S
C1469 C1468 1.400 . S
C1469 C1470 1.373 . S
C1469 C1491 1.432 . S
C1470 C1469 1.373 . S
C1470 C1471 1.339 . S
C1470 C1473 1.530 . S
C1471 C1466 1.304 . S
C1471 C1470 1.339 . S
C1471 H1532 0.930 . S
C1472 C1468 1.567 . S
C1472 H1533 0.961 . S
C1472 H1534 0.960 . S
C1472 H1535 0.958 . S
C1473 C1470 1.530 . S
C1473 H1536 0.961 . S
C1473 H1537 0.960 . S
C1473 H1538 0.960 . S
C1474 C1475 1.530 . S
C1474 H1540 0.961 . S
C1474 H1541 0.961 . S
C1474 H1542 0.959 . S
C1475 C1474 1.530 . S
C1475 O1503 1.412 . S
C1475 H1539 0.980 . S
C1476 C1477 1.288 . S
C1476 C1481 1.377 . S
C1476 O1503 1.393 . S
C1477 C1476 1.288 . S
C1477 C1478 1.369 . S
C1477 H1543 0.932 . S
C1478 C1477 1.369 . S
C1478 C1479 1.398 . S
C1478 C1482 1.527 . S
C1479 C1478 1.398 . S
C1479 C1480 1.380 . S
C1479 C1493 1.497 . S
C1480 C1479 1.380 . S
C1480 C1481 1.383 . S
C1480 C1483 1.603 . S
C1481 C1476 1.377 . S
C1481 C1480 1.383 . S
C1481 H1544 0.929 . S
C1482 C1478 1.527 . S
C1482 H1545 0.961 . S
C1482 H1546 0.959 . S
C1482 H1547 0.959 . S
C1483 C1480 1.603 . S
C1483 H1548 0.960 . S
C1483 H1549 0.962 . S
C1483 H1550 0.961 . S
C1484 C1451 1.587 . S
C1484 C1485 1.360 . S
C1484 C1497 1.412 . S
C1485 C1484 1.360 . S
C1485 C1486 1.365 . S
C1485 H1551 0.929 . S
C1486 C1461 1.553 . S
C1486 C1485 1.365 . S
C1486 C1487 1.404 . S
C1487 C1486 1.404 . S
C1487 C1488 1.395 . S
C1487 C1498 1.451 . S
C1488 C1487 1.395 . S
C1488 C1489 1.322 . S
C1488 H1552 0.930 . S
C1489 C1488 1.322 . S
C1489 C1490 1.459 . S
C1489 H1553 0.929 . S
C1490 C1489 1.459 . S
C1490 C1491 1.445 . S
C1490 C1499 1.395 . S
C1491 C1469 1.432 . S
C1491 C1490 1.445 . S
C1491 C1492 1.370 . S
C1492 C1491 1.370 . S
C1492 C1493 1.438 . S
C1492 H1554 0.930 . S
C1493 C1479 1.497 . S
C1493 C1492 1.438 . S
C1493 C1494 1.360 . S
C1494 C1493 1.360 . S
C1494 C1495 1.401 . S
C1494 C1499 1.446 . S
C1495 C1494 1.401 . S
C1495 C1496 1.347 . S
C1495 H1555 0.929 . S
C1496 C1495 1.347 . S
C1496 C1497 1.455 . S
C1496 H1556 0.930 . S
C1497 C1484 1.412 . S
C1497 C1496 1.455 . S
C1497 C1498 1.331 . S
C1498 C1487 1.451 . S
C1498 C1497 1.331 . S
C1498 C1499 1.497 . S
C1499 C1490 1.395 . S
C1499 C1494 1.446 . S
C1499 C1498 1.497 . S
C1500 C1501 1.582 . S
C1500 H1557 0.962 . S
C1500 H1558 0.959 . S
C1500 H1559 0.958 . S
C1501 C1500 1.582 . S
C1501 O1504 1.458 . S
C1501 H1530 0.980 . S
O1502 C1447 1.426 . S
O1502 C1448 1.334 . S
O1503 C1475 1.412 . S
O1503 C1476 1.393 . S
O1504 C1466 1.435 . S
O1504 C1501 1.458 . S
O1505 C1457 1.468 . S
O1505 C1458 1.408 . S
H1506 C1447 0.980 . S
H1507 C1446 0.959 . S
H1508 C1446 0.959 . S
H1509 C1446 0.960 . S
H1510 C1449 0.929 . S
H1511 C1453 0.929 . S
H1512 C1454 0.959 . S
H1513 C1454 0.961 . S
H1514 C1454 0.961 . S
H1515 C1455 0.960 . S
H1516 C1455 0.960 . S
H1517 C1455 0.961 . S
H1518 C1457 0.980 . S
H1519 C1456 0.961 . S
H1520 C1456 0.960 . S
H1521 C1456 0.959 . S
H1522 C1459 0.930 . S
H1523 C1463 0.931 . S
H1524 C1464 0.959 . S
H1525 C1464 0.961 . S
H1526 C1464 0.959 . S
H1527 C1465 0.960 . S
H1528 C1465 0.960 . S
H1529 C1465 0.960 . S
H1530 C1501 0.980 . S
H1531 C1467 0.930 . S
H1532 C1471 0.930 . S
H1533 C1472 0.961 . S
H1534 C1472 0.960 . S
H1535 C1472 0.958 . S
H1536 C1473 0.961 . S
H1537 C1473 0.960 . S
H1538 C1473 0.960 . S
H1539 C1475 0.980 . S
H1540 C1474 0.961 . S
H1541 C1474 0.961 . S
H1542 C1474 0.959 . S
H1543 C1477 0.932 . S
H1544 C1481 0.929 . S
H1545 C1482 0.961 . S
H1546 C1482 0.959 . S
H1547 C1482 0.959 . S
H1548 C1483 0.960 . S
H1549 C1483 0.962 . S
H1550 C1483 0.961 . S
H1551 C1485 0.929 . S
H1552 C1488 0.930 . S
H1553 C1489 0.929 . S
H1554 C1492 0.930 . S
H1555 C1495 0.929 . S
H1556 C1496 0.930 . S
H1557 C1500 0.962 . S
H1558 C1500 0.959 . S
H1559 C1500 0.958 . S
C1560 C1561 1.560 . S
C1560 H1621 0.959 . S
C1560 H1622 0.959 . S
C1560 H1623 0.960 . S
C1561 C1560 1.560 . S
C1561 O1616 1.426 . S
C1561 H1620 0.980 . S
C1562 C1563 1.407 . S
C1562 C1567 1.418 . S
C1562 O1616 1.334 . S
C1563 C1562 1.407 . S
C1563 C1564 1.360 . S
C1563 H1624 0.929 . S
C1564 C1563 1.360 . S
C1564 C1565 1.401 . S
C1564 C1568 1.527 . S
C1565 C1564 1.401 . S
C1565 C1566 1.405 . S
C1565 C1598 1.587 . S
C1566 C1565 1.405 . S
C1566 C1567 1.332 . S
C1566 C1569 1.496 . S
C1567 C1562 1.418 . S
C1567 C1566 1.332 . S
C1567 H1625 0.929 . S
C1568 C1564 1.527 . S
C1568 H1626 0.959 . S
C1568 H1627 0.961 . S
C1568 H1628 0.961 . S
C1569 C1566 1.496 . S
C1569 H1629 0.960 . S
C1569 H1630 0.960 . S
C1569 H1631 0.961 . S
C1570 C1571 1.517 . S
C1570 H1633 0.961 . S
C1570 H1634 0.960 . S
C1570 H1635 0.959 . S
C1571 C1570 1.517 . S
C1571 O1619 1.468 . S
C1571 H1632 0.980 . S
C1572 C1573 1.349 . S
C1572 C1577 1.367 . S
C1572 O1619 1.408 . S
C1573 C1572 1.349 . S
C1573 C1574 1.407 . S
C1573 H1636 0.930 . S
C1574 C1573 1.407 . S
C1574 C1575 1.449 . S
C1574 C1578 1.535 . S
C1575 C1574 1.449 . S
C1575 C1576 1.384 . S
C1575 C1600 1.553 . S
C1576 C1575 1.384 . S
C1576 C1577 1.364 . S
C1576 C1579 1.450 . S
C1577 C1572 1.367 . S
C1577 C1576 1.364 . S
C1577 H1637 0.931 . S
C1578 C1574 1.535 . S
C1578 H1638 0.959 . S
C1578 H1639 0.961 . S
C1578 H1640 0.959 . S
C1579 C1576 1.450 . S
C1579 H1641 0.960 . S
C1579 H1642 0.960 . S
C1579 H1643 0.960 . S
C1580 C1581 1.309 . S
C1580 C1585 1.304 . S
C1580 O1618 1.435 . S
C1581 C1580 1.309 . S
C1581 C1582 1.476 . S
C1581 H1645 0.930 . S
C1582 C1581 1.476 . S
C1582 C1583 1.400 . S
C1582 C1586 1.567 . S
C1583 C1582 1.400 . S
C1583 C1584 1.373 . S
C1583 C1605 1.432 . S
C1584 C1583 1.373 . S
C1584 C1585 1.339 . S
C1584 C1587 1.530 . S
C1585 C1580 1.304 . S
C1585 C1584 1.339 . S
C1585 H1646 0.930 . S
C1586 C1582 1.567 . S
C1586 H1647 0.961 . S
C1586 H1648 0.960 . S
C1586 H1649 0.958 . S
C1587 C1584 1.530 . S
C1587 H1650 0.961 . S
C1587 H1651 0.960 . S
C1587 H1652 0.960 . S
C1588 C1589 1.530 . S
C1588 H1654 0.961 . S
C1588 H1655 0.961 . S
C1588 H1656 0.959 . S
C1589 C1588 1.530 . S
C1589 O1617 1.412 . S
C1589 H1653 0.980 . S
C1590 C1591 1.288 . S
C1590 C1595 1.377 . S
C1590 O1617 1.393 . S
C1591 C1590 1.288 . S
C1591 C1592 1.369 . S
C1591 H1657 0.932 . S
C1592 C1591 1.369 . S
C1592 C1593 1.398 . S
C1592 C1596 1.527 . S
C1593 C1592 1.398 . S
C1593 C1594 1.380 . S
C1593 C1607 1.497 . S
C1594 C1593 1.380 . S
C1594 C1595 1.383 . S
C1594 C1597 1.603 . S
C1595 C1590 1.377 . S
C1595 C1594 1.383 . S
C1595 H1658 0.929 . S
C1596 C1592 1.527 . S
C1596 H1659 0.961 . S
C1596 H1660 0.959 . S
C1596 H1661 0.959 . S
C1597 C1594 1.603 . S
C1597 H1662 0.960 . S
C1597 H1663 0.962 . S
C1597 H1664 0.961 . S
C1598 C1565 1.587 . S
C1598 C1599 1.360 . S
C1598 C1611 1.412 . S
C1599 C1598 1.360 . S
C1599 C1600 1.365 . S
C1599 H1665 0.929 . S
C1600 C1575 1.553 . S
C1600 C1599 1.365 . S
C1600 C1601 1.404 . S
C1601 C1600 1.404 . S
C1601 C1602 1.395 . S
C1601 C1612 1.451 . S
C1602 C1601 1.395 . S
C1602 C1603 1.322 . S
C1602 H1666 0.930 . S
C1603 C1602 1.322 . S
C1603 C1604 1.459 . S
C1603 H1667 0.929 . S
C1604 C1603 1.459 . S
C1604 C1605 1.445 . S
C1604 C1613 1.395 . S
C1605 C1583 1.432 . S
C1605 C1604 1.445 . S
C1605 C1606 1.370 . S
C1606 C1605 1.370 . S
C1606 C1607 1.438 . S
C1606 H1668 0.930 . S
C1607 C1593 1.497 . S
C1607 C1606 1.438 . S
C1607 C1608 1.360 . S
C1608 C1607 1.360 . S
C1608 C1609 1.401 . S
C1608 C1613 1.446 . S
C1609 C1608 1.401 . S
C1609 C1610 1.347 . S
C1609 H1669 0.929 . S
C1610 C1609 1.347 . S
C1610 C1611 1.455 . S
C1610 H1670 0.930 . S
C1611 C1598 1.412 . S
C1611 C1610 1.455 . S
C1611 C1612 1.331 . S
C1612 C1601 1.451 . S
C1612 C1611 1.331 . S
C1612 C1613 1.497 . S
C1613 C1604 1.395 . S
C1613 C1608 1.446 . S
C1613 C1612 1.497 . S
C1614 C1615 1.582 . S
C1614 H1671 0.962 . S
C1614 H1672 0.959 . S
C1614 H1673 0.958 . S
C1615 C1614 1.582 . S
C1615 O1618 1.458 . S
C1615 H1644 0.980 . S
O1616 C1561 1.426 . S
O1616 C1562 1.334 . S
O1617 C1589 1.412 . S
O1617 C1590 1.393 . S
O1618 C1580 1.435 . S
O1618 C1615 1.458 . S
O1619 C1571 1.468 . S
O1619 C1572 1.408 . S
H1620 C1561 0.980 . S
H1621 C1560 0.959 . S
H1622 C1560 0.959 . S
H1623 C1560 0.960 . S
H1624 C1563 0.929 . S
H1625 C1567 0.929 . S
H1626 C1568 0.959 . S
H1627 C1568 0.961 . S
H1628 C1568 0.961 . S
H1629 C1569 0.960 . S
H1630 C1569 0.960 . S
H1631 C1569 0.961 . S
H1632 C1571 0.980 . S
H1633 C1570 0.961 . S
H1634 C1570 0.960 . S
H1635 C1570 0.959 . S
H1636 C1573 0.930 . S
H1637 C1577 0.931 . S
H1638 C1578 0.959 . S
H1639 C1578 0.961 . S
H1640 C1578 0.959 . S
H1641 C1579 0.960 . S
H1642 C1579 0.960 . S
H1643 C1579 0.960 . S
H1644 C1615 0.980 . S
H1645 C1581 0.930 . S
H1646 C1585 0.930 . S
H1647 C1586 0.961 . S
H1648 C1586 0.960 . S
H1649 C1586 0.958 . S
H1650 C1587 0.961 . S
H1651 C1587 0.960 . S
H1652 C1587 0.960 . S
H1653 C1589 0.980 . S
H1654 C1588 0.961 . S
H1655 C1588 0.961 . S
H1656 C1588 0.959 . S
H1657 C1591 0.932 . S
H1658 C1595 0.929 . S
H1659 C1596 0.961 . S
H1660 C1596 0.959 . S
H1661 C1596 0.959 . S
H1662 C1597 0.960 . S
H1663 C1597 0.962 . S
H1664 C1597 0.961 . S
H1665 C1599 0.929 . S
H1666 C1602 0.930 . S
H1667 C1603 0.929 . S
H1668 C1606 0.930 . S
H1669 C1609 0.929 . S
H1670 C1610 0.930 . S
H1671 C1614 0.962 . S
H1672 C1614 0.959 . S
H1673 C1614 0.958 . S
C1674 C1675 1.560 . S
C1674 H1735 0.959 . S
C1674 H1736 0.959 . S
C1674 H1737 0.960 . S
C1675 C1674 1.560 . S
C1675 O1730 1.426 . S
C1675 H1734 0.980 . S
C1676 C1677 1.407 1_455 S
C1676 C1681 1.418 . S
C1676 O1730 1.334 . S
C1677 C1676 1.407 1_655 S
C1677 C1678 1.360 . S
C1677 H1738 0.929 . S
C1678 C1677 1.360 . S
C1678 C1679 1.401 1_655 S
C1678 C1682 1.527 . S
C1679 C1678 1.401 1_455 S
C1679 C1680 1.405 . S
C1679 C1712 1.587 1_455 S
C1680 C1679 1.405 . S
C1680 C1681 1.332 . S
C1680 C1683 1.496 . S
C1681 C1676 1.418 . S
C1681 C1680 1.332 . S
C1681 H1739 0.929 . S
C1682 C1678 1.527 . S
C1682 H1740 0.959 . S
C1682 H1741 0.961 . S
C1682 H1742 0.961 . S
C1683 C1680 1.496 . S
C1683 H1743 0.960 . S
C1683 H1744 0.960 . S
C1683 H1745 0.961 . S
C1684 C1685 1.517 . S
C1684 H1747 0.974 . S
C1684 H1748 0.960 . S
C1684 H1749 0.959 . S
C1685 C1684 1.517 . S
C1685 O1733 1.468 . S
C1685 H1746 0.980 1_655 S
C1686 C1687 1.349 . S
C1686 C1691 1.367 . S
C1686 O1733 1.408 . S
C1687 C1686 1.349 . S
C1687 C1688 1.368 1_655 S
C1687 H1750 0.930 1_655 S
C1688 C1687 1.368 1_455 S
C1688 C1689 1.414 1_455 S
C1688 C1692 1.604 . S
C1689 C1688 1.414 1_655 S
C1689 C1690 1.384 . S
C1689 C1714 1.553 . S
C1690 C1689 1.384 . S
C1690 C1691 1.364 . S
C1690 C1693 1.450 . S
C1691 C1686 1.367 . S
C1691 C1690 1.364 . S
C1691 H1751 0.931 . S
C1692 C1688 1.604 . S
C1692 H1752 0.959 . S
C1692 H1753 0.961 . S
C1692 H1754 0.959 . S
C1693 C1690 1.450 . S
C1693 H1755 0.960 . S
C1693 H1756 0.960 . S
C1693 H1757 0.960 . S
C1694 C1695 1.309 . S
C1694 C1699 1.304 . S
C1694 O1732 1.435 . S
C1695 C1694 1.309 . S
C1695 C1696 1.447 1_655 S
C1695 H1759 0.930 1_655 S
C1696 C1695 1.447 1_455 S
C1696 C1697 1.381 1_455 S
C1696 C1700 1.616 . S
C1697 C1696 1.381 1_655 S
C1697 C1698 1.373 . S
C1697 C1719 1.432 . S
C1698 C1697 1.373 . S
C1698 C1699 1.339 . S
C1698 C1701 1.530 . S
C1699 C1694 1.304 . S
C1699 C1698 1.339 . S
C1699 H1760 0.930 . S
C1700 C1696 1.616 . S
C1700 H1761 0.961 . S
C1700 H1762 0.960 . S
C1700 H1763 0.958 . S
C1701 C1698 1.530 . S
C1701 H1764 0.961 . S
C1701 H1765 0.960 . S
C1701 H1766 0.960 . S
C1702 C1703 1.511 1_455 S
C1702 H1768 0.961 . S
C1702 H1769 0.961 . S
C1702 H1770 0.959 . S
C1703 C1702 1.511 1_655 S
C1703 O1731 1.407 1_655 S
C1703 H1767 0.986 . S
C1704 C1705 1.288 . S
C1704 C1709 1.377 1_455 S
C1704 O1731 1.393 . S
C1705 C1704 1.288 . S
C1705 C1706 1.369 . S
C1705 H1771 0.932 . S
C1706 C1705 1.369 . S
C1706 C1707 1.398 1_455 S
C1706 C1710 1.527 . S
C1707 C1706 1.398 1_655 S
C1707 C1708 1.380 . S
C1707 C1721 1.497 . S
C1708 C1707 1.380 . S
C1708 C1709 1.383 . S
C1708 C1711 1.603 . S
C1709 C1704 1.377 1_655 S
C1709 C1708 1.383 . S
C1709 H1772 0.929 . S
C1710 C1706 1.527 . S
C1710 H1773 0.961 . S
C1710 H1774 0.959 . S
C1710 H1775 0.959 . S
C1711 C1708 1.603 . S
C1711 H1776 0.960 . S
C1711 H1777 0.962 . S
C1711 H1778 0.961 . S
C1712 C1679 1.587 1_655 S
C1712 C1713 1.360 . S
C1712 C1725 1.412 . S
C1713 C1712 1.360 . S
C1713 C1714 1.365 . S
C1713 H1779 0.929 . S
C1714 C1689 1.553 . S
C1714 C1713 1.365 . S
C1714 C1715 1.404 . S
C1715 C1714 1.404 . S
C1715 C1716 1.395 . S
C1715 C1726 1.451 . S
C1716 C1715 1.395 . S
C1716 C1717 1.322 . S
C1716 H1780 0.930 . S
C1717 C1716 1.322 . S
C1717 C1718 1.459 . S
C1717 H1781 0.929 . S
C1718 C1717 1.459 . S
C1718 C1719 1.445 . S
C1718 C1727 1.395 . S
C1719 C1697 1.432 . S
C1719 C1718 1.445 . S
C1719 C1720 1.370 . S
C1720 C1719 1.370 . S
C1720 C1721 1.438 . S
C1720 H1782 0.930 . S
C1721 C1707 1.497 . S
C1721 C1720 1.438 . S
C1721 C1722 1.360 . S
C1722 C1721 1.360 . S
C1722 C1723 1.401 . S
C1722 C1727 1.446 . S
C1723 C1722 1.401 . S
C1723 C1724 1.347 . S
C1723 H1783 0.929 . S
C1724 C1723 1.347 . S
C1724 C1725 1.455 . S
C1724 H1784 0.930 . S
C1725 C1712 1.412 . S
C1725 C1724 1.455 . S
C1725 C1726 1.331 . S
C1726 C1715 1.451 . S
C1726 C1725 1.331 . S
C1726 C1727 1.497 . S
C1727 C1718 1.395 . S
C1727 C1722 1.446 . S
C1727 C1726 1.497 . S
C1728 C1729 1.582 . S
C1728 H1785 0.962 . S
C1728 H1786 0.959 . S
C1728 H1787 0.958 . S
C1729 C1728 1.582 . S
C1729 O1732 1.458 . S
C1729 H1758 0.980 . S
O1730 C1675 1.426 . S
O1730 C1676 1.334 . S
O1731 C1703 1.407 1_455 S
O1731 C1704 1.393 . S
O1732 C1694 1.435 . S
O1732 C1729 1.458 . S
O1733 C1685 1.468 . S
O1733 C1686 1.408 . S
H1734 C1675 0.980 . S
H1735 C1674 0.959 . S
H1736 C1674 0.959 . S
H1737 C1674 0.960 . S
H1738 C1677 0.929 . S
H1739 C1681 0.929 . S
H1740 C1682 0.959 . S
H1741 C1682 0.961 . S
H1742 C1682 0.961 . S
H1743 C1683 0.960 . S
H1744 C1683 0.960 . S
H1745 C1683 0.961 . S
H1746 C1685 0.980 1_455 S
H1747 C1684 0.974 . S
H1748 C1684 0.960 . S
H1749 C1684 0.959 . S
H1750 C1687 0.930 1_455 S
H1751 C1691 0.931 . S
H1752 C1692 0.959 . S
H1753 C1692 0.961 . S
H1754 C1692 0.959 . S
H1755 C1693 0.960 . S
H1756 C1693 0.960 . S
H1757 C1693 0.960 . S
H1758 C1729 0.980 . S
H1759 C1695 0.930 1_455 S
H1760 C1699 0.930 . S
H1761 C1700 0.961 . S
H1762 C1700 0.960 . S
H1763 C1700 0.958 . S
H1764 C1701 0.961 . S
H1765 C1701 0.960 . S
H1766 C1701 0.960 . S
H1767 C1703 0.986 . S
H1768 C1702 0.961 . S
H1769 C1702 0.961 . S
H1770 C1702 0.959 . S
H1771 C1705 0.932 . S
H1772 C1709 0.929 . S
H1773 C1710 0.961 . S
H1774 C1710 0.959 . S
H1775 C1710 0.959 . S
H1776 C1711 0.960 . S
H1777 C1711 0.962 . S
H1778 C1711 0.961 . S
H1779 C1713 0.929 . S
H1780 C1716 0.930 . S
H1781 C1717 0.929 . S
H1782 C1720 0.930 . S
H1783 C1723 0.929 . S
H1784 C1724 0.930 . S
H1785 C1728 0.962 . S
H1786 C1728 0.959 . S
H1787 C1728 0.958 . S
C1788 C1789 1.560 . S
C1788 H1849 0.959 . S
C1788 H1850 0.959 . S
C1788 H1851 0.960 . S
C1789 C1788 1.560 . S
C1789 O1844 1.426 . S
C1789 H1848 0.980 . S
C1790 C1791 1.407 . S
C1790 C1795 1.418 . S
C1790 O1844 1.334 . S
C1791 C1790 1.407 . S
C1791 C1792 1.360 . S
C1791 H1852 0.929 . S
C1792 C1791 1.360 . S
C1792 C1793 1.401 . S
C1792 C1796 1.527 . S
C1793 C1792 1.401 . S
C1793 C1794 1.405 . S
C1793 C1826 1.587 . S
C1794 C1793 1.405 . S
C1794 C1795 1.332 . S
C1794 C1797 1.496 . S
C1795 C1790 1.418 . S
C1795 C1794 1.332 . S
C1795 H1853 0.929 . S
C1796 C1792 1.527 . S
C1796 H1854 0.959 . S
C1796 H1855 0.961 . S
C1796 H1856 0.961 . S
C1797 C1794 1.496 . S
C1797 H1857 0.960 . S
C1797 H1858 0.960 . S
C1797 H1859 0.961 . S
C1798 C1799 1.517 . S
C1798 H1861 0.961 . S
C1798 H1862 0.960 . S
C1798 H1863 0.959 . S
C1799 C1798 1.517 . S
C1799 O1847 1.468 . S
C1799 H1860 0.980 . S
C1800 C1801 1.349 . S
C1800 C1805 1.367 . S
C1800 O1847 1.408 . S
C1801 C1800 1.349 . S
C1801 C1802 1.407 . S
C1801 H1864 0.930 . S
C1802 C1801 1.407 . S
C1802 C1803 1.449 . S
C1802 C1806 1.535 . S
C1803 C1802 1.449 . S
C1803 C1804 1.384 . S
C1803 C1828 1.553 . S
C1804 C1803 1.384 . S
C1804 C1805 1.364 . S
C1804 C1807 1.450 . S
C1805 C1800 1.367 . S
C1805 C1804 1.364 . S
C1805 H1865 0.931 . S
C1806 C1802 1.535 . S
C1806 H1866 0.959 . S
C1806 H1867 0.961 . S
C1806 H1868 0.959 . S
C1807 C1804 1.450 . S
C1807 H1869 0.960 . S
C1807 H1870 0.960 . S
C1807 H1871 0.960 . S
C1808 C1809 1.309 . S
C1808 C1813 1.304 . S
C1808 O1846 1.435 . S
C1809 C1808 1.309 . S
C1809 C1810 1.476 . S
C1809 H1873 0.930 . S
C1810 C1809 1.476 . S
C1810 C1811 1.400 . S
C1810 C1814 1.567 . S
C1811 C1810 1.400 . S
C1811 C1812 1.373 . S
C1811 C1833 1.432 . S
C1812 C1811 1.373 . S
C1812 C1813 1.339 . S
C1812 C1815 1.530 . S
C1813 C1808 1.304 . S
C1813 C1812 1.339 . S
C1813 H1874 0.930 . S
C1814 C1810 1.567 . S
C1814 H1875 0.961 . S
C1814 H1876 0.960 . S
C1814 H1877 0.958 . S
C1815 C1812 1.530 . S
C1815 H1878 0.961 . S
C1815 H1879 0.960 . S
C1815 H1880 0.960 . S
C1816 C1817 1.530 . S
C1816 H1882 0.961 . S
C1816 H1883 0.961 . S
C1816 H1884 0.959 . S
C1817 C1816 1.530 . S
C1817 O1845 1.412 . S
C1817 H1881 0.980 . S
C1818 C1819 1.288 . S
C1818 C1823 1.377 . S
C1818 O1845 1.393 . S
C1819 C1818 1.288 . S
C1819 C1820 1.369 . S
C1819 H1885 0.932 . S
C1820 C1819 1.369 . S
C1820 C1821 1.398 . S
C1820 C1824 1.527 . S
C1821 C1820 1.398 . S
C1821 C1822 1.380 . S
C1821 C1835 1.497 . S
C1822 C1821 1.380 . S
C1822 C1823 1.383 . S
C1822 C1825 1.603 . S
C1823 C1818 1.377 . S
C1823 C1822 1.383 . S
C1823 H1886 0.929 . S
C1824 C1820 1.527 . S
C1824 H1887 0.961 . S
C1824 H1888 0.959 . S
C1824 H1889 0.959 . S
C1825 C1822 1.603 . S
C1825 H1890 0.960 . S
C1825 H1891 0.962 . S
C1825 H1892 0.961 . S
C1826 C1793 1.587 . S
C1826 C1827 1.360 . S
C1826 C1839 1.412 . S
C1827 C1826 1.360 . S
C1827 C1828 1.365 . S
C1827 H1893 0.929 . S
C1828 C1803 1.553 . S
C1828 C1827 1.365 . S
C1828 C1829 1.404 . S
C1829 C1828 1.404 . S
C1829 C1830 1.395 . S
C1829 C1840 1.451 . S
C1830 C1829 1.395 . S
C1830 C1831 1.322 . S
C1830 H1894 0.930 . S
C1831 C1830 1.322 . S
C1831 C1832 1.459 . S
C1831 H1895 0.929 . S
C1832 C1831 1.459 . S
C1832 C1833 1.445 . S
C1832 C1841 1.395 . S
C1833 C1811 1.432 . S
C1833 C1832 1.445 . S
C1833 C1834 1.370 . S
C1834 C1833 1.370 . S
C1834 C1835 1.438 . S
C1834 H1896 0.930 . S
C1835 C1821 1.497 . S
C1835 C1834 1.438 . S
C1835 C1836 1.360 . S
C1836 C1835 1.360 . S
C1836 C1837 1.401 . S
C1836 C1841 1.446 . S
C1837 C1836 1.401 . S
C1837 C1838 1.347 . S
C1837 H1897 0.929 . S
C1838 C1837 1.347 . S
C1838 C1839 1.455 . S
C1838 H1898 0.930 . S
C1839 C1826 1.412 . S
C1839 C1838 1.455 . S
C1839 C1840 1.331 . S
C1840 C1829 1.451 . S
C1840 C1839 1.331 . S
C1840 C1841 1.497 . S
C1841 C1832 1.395 . S
C1841 C1836 1.446 . S
C1841 C1840 1.497 . S
C1842 C1843 1.582 . S
C1842 H1899 0.962 . S
C1842 H1900 0.959 . S
C1842 H1901 0.958 . S
C1843 C1842 1.582 . S
C1843 O1846 1.458 . S
C1843 H1872 0.980 . S
O1844 C1789 1.426 . S
O1844 C1790 1.334 . S
O1845 C1817 1.412 . S
O1845 C1818 1.393 . S
O1846 C1808 1.435 . S
O1846 C1843 1.458 . S
O1847 C1799 1.468 . S
O1847 C1800 1.408 . S
H1848 C1789 0.980 . S
H1849 C1788 0.959 . S
H1850 C1788 0.959 . S
H1851 C1788 0.960 . S
H1852 C1791 0.929 . S
H1853 C1795 0.929 . S
H1854 C1796 0.959 . S
H1855 C1796 0.961 . S
H1856 C1796 0.961 . S
H1857 C1797 0.960 . S
H1858 C1797 0.960 . S
H1859 C1797 0.961 . S
H1860 C1799 0.980 . S
H1861 C1798 0.961 . S
H1862 C1798 0.960 . S
H1863 C1798 0.959 . S
H1864 C1801 0.930 . S
H1865 C1805 0.931 . S
H1866 C1806 0.959 . S
H1867 C1806 0.961 . S
H1868 C1806 0.959 . S
H1869 C1807 0.960 . S
H1870 C1807 0.960 . S
H1871 C1807 0.960 . S
H1872 C1843 0.980 . S
H1873 C1809 0.930 . S
H1874 C1813 0.930 . S
H1875 C1814 0.961 . S
H1876 C1814 0.960 . S
H1877 C1814 0.958 . S
H1878 C1815 0.961 . S
H1879 C1815 0.960 . S
H1880 C1815 0.960 . S
H1881 C1817 0.980 . S
H1882 C1816 0.961 . S
H1883 C1816 0.961 . S
H1884 C1816 0.959 . S
H1885 C1819 0.932 . S
H1886 C1823 0.929 . S
H1887 C1824 0.961 . S
H1888 C1824 0.959 . S
H1889 C1824 0.959 . S
H1890 C1825 0.960 . S
H1891 C1825 0.962 . S
H1892 C1825 0.961 . S
H1893 C1827 0.929 . S
H1894 C1830 0.930 . S
H1895 C1831 0.929 . S
H1896 C1834 0.930 . S
H1897 C1837 0.929 . S
H1898 C1838 0.930 . S
H1899 C1842 0.962 . S
H1900 C1842 0.959 . S
H1901 C1842 0.958 . S
C1902 C1903 1.560 . S
C1902 H1963 0.959 . S
C1902 H1964 0.959 . S
C1902 H1965 0.960 . S
C1903 C1902 1.560 . S
C1903 O1958 1.426 . S
C1903 H1962 0.980 . S
C1904 C1905 1.407 1_565 S
C1904 C1909 1.418 . S
C1904 O1958 1.334 . S
C1905 C1904 1.407 1_545 S
C1905 C1906 1.360 . S
C1905 H1966 0.929 . S
C1906 C1905 1.360 . S
C1906 C1907 1.401 1_545 S
C1906 C1910 1.527 . S
C1907 C1906 1.401 1_565 S
C1907 C1908 1.405 . S
C1907 C1940 1.587 1_565 S
C1908 C1907 1.405 . S
C1908 C1909 1.332 . S
C1908 C1911 1.496 . S
C1909 C1904 1.418 . S
C1909 C1908 1.332 . S
C1909 H1967 0.929 . S
C1910 C1906 1.527 . S
C1910 H1968 0.959 . S
C1910 H1969 0.961 . S
C1910 H1970 0.961 . S
C1911 C1908 1.496 . S
C1911 H1971 0.960 . S
C1911 H1972 0.960 . S
C1911 H1973 0.961 . S
C1912 C1913 1.517 . S
C1912 H1975 0.910 1_545 S
C1912 H1976 0.960 . S
C1912 H1977 0.959 . S
C1913 C1912 1.517 . S
C1913 O1961 1.468 . S
C1913 H1974 0.980 1_545 S
C1914 C1915 1.349 . S
C1914 C1919 1.367 . S
C1914 O1961 1.408 . S
C1915 C1914 1.349 . S
C1915 C1916 1.407 1_545 S
C1915 H1978 0.930 1_545 S
C1916 C1915 1.407 1_565 S
C1916 C1917 1.449 1_565 S
C1916 C1920 1.535 . S
C1917 C1916 1.449 1_545 S
C1917 C1918 1.384 . S
C1917 C1942 1.553 . S
C1918 C1917 1.384 . S
C1918 C1919 1.364 . S
C1918 C1921 1.450 . S
C1919 C1914 1.367 . S
C1919 C1918 1.364 . S
C1919 H1979 0.931 . S
C1920 C1916 1.535 . S
C1920 H1980 0.959 . S
C1920 H1981 0.961 . S
C1920 H1982 0.959 . S
C1921 C1918 1.450 . S
C1921 H1983 0.960 . S
C1921 H1984 0.960 . S
C1921 H1985 0.960 . S
C1922 C1923 1.309 . S
C1922 C1927 1.304 . S
C1922 O1960 1.435 . S
C1923 C1922 1.309 . S
C1923 C1924 1.486 1_545 S
C1923 H1987 0.930 1_545 S
C1924 C1923 1.486 1_565 S
C1924 C1925 1.365 1_565 S
C1924 C1928 1.591 . S
C1925 C1924 1.365 1_545 S
C1925 C1926 1.373 . S
C1925 C1947 1.432 . S
C1926 C1925 1.373 . S
C1926 C1927 1.339 . S
C1926 C1929 1.530 . S
C1927 C1922 1.304 . S
C1927 C1926 1.339 . S
C1927 H1988 0.930 . S
C1928 C1924 1.591 . S
C1928 H1989 0.961 . S
C1928 H1990 0.960 . S
C1928 H1991 0.958 . S
C1929 C1926 1.530 . S
C1929 H1992 0.961 . S
C1929 H1993 0.960 . S
C1929 H1994 0.960 . S
C1930 C1931 1.530 1_565 S
C1930 H1996 0.961 . S
C1930 H1997 0.961 . S
C1930 H1998 0.959 . S
C1931 C1930 1.530 1_545 S
C1931 O1959 1.412 1_545 S
C1931 H1995 0.980 . S
C1932 C1933 1.288 . S
C1932 C1937 1.377 1_565 S
C1932 O1959 1.393 . S
C1933 C1932 1.288 . S
C1933 C1934 1.369 . S
C1933 H1999 0.932 . S
C1934 C1933 1.369 . S
C1934 C1935 1.398 1_565 S
C1934 C1938 1.527 . S
C1935 C1934 1.398 1_545 S
C1935 C1936 1.380 . S
C1935 C1949 1.497 . S
C1936 C1935 1.380 . S
C1936 C1937 1.383 . S
C1936 C1939 1.603 . S
C1937 C1932 1.377 1_545 S
C1937 C1936 1.383 . S
C1937 H2000 0.929 . S
C1938 C1934 1.527 . S
C1938 H2001 0.961 . S
C1938 H2002 0.959 . S
C1938 H2003 0.959 . S
C1939 C1936 1.603 . S
C1939 H2004 0.960 . S
C1939 H2005 0.962 . S
C1939 H2006 0.961 . S
C1940 C1907 1.587 1_545 S
C1940 C1941 1.360 . S
C1940 C1953 1.412 . S
C1941 C1940 1.360 . S
C1941 C1942 1.365 . S
C1941 H2007 0.929 . S
C1942 C1917 1.553 . S
C1942 C1941 1.365 . S
C1942 C1943 1.404 . S
C1943 C1942 1.404 . S
C1943 C1944 1.395 . S
C1943 C1954 1.451 . S
C1944 C1943 1.395 . S
C1944 C1945 1.322 . S
C1944 H2008 0.930 . S
C1945 C1944 1.322 . S
C1945 C1946 1.459 . S
C1945 H2009 0.929 . S
C1946 C1945 1.459 . S
C1946 C1947 1.445 . S
C1946 C1955 1.395 . S
C1947 C1925 1.432 . S
C1947 C1946 1.445 . S
C1947 C1948 1.370 . S
C1948 C1947 1.370 . S
C1948 C1949 1.438 . S
C1948 H2010 0.930 . S
C1949 C1935 1.497 . S
C1949 C1948 1.438 . S
C1949 C1950 1.360 . S
C1950 C1949 1.360 . S
C1950 C1951 1.401 . S
C1950 C1955 1.446 . S
C1951 C1950 1.401 . S
C1951 C1952 1.347 . S
C1951 H2011 0.929 . S
C1952 C1951 1.347 . S
C1952 C1953 1.455 . S
C1952 H2012 0.930 . S
C1953 C1940 1.412 . S
C1953 C1952 1.455 . S
C1953 C1954 1.331 . S
C1954 C1943 1.451 . S
C1954 C1953 1.331 . S
C1954 C1955 1.497 . S
C1955 C1946 1.395 . S
C1955 C1950 1.446 . S
C1955 C1954 1.497 . S
C1956 C1957 1.582 . S
C1956 H2013 0.962 . S
C1956 H2014 0.959 . S
C1956 H2015 0.958 . S
C1957 C1956 1.582 . S
C1957 O1960 1.458 . S
C1957 H1986 0.980 . S
O1958 C1903 1.426 . S
O1958 C1904 1.334 . S
O1959 C1931 1.412 1_565 S
O1959 C1932 1.393 . S
O1960 C1922 1.435 . S
O1960 C1957 1.458 . S
O1961 C1913 1.468 . S
O1961 C1914 1.408 . S
H1962 C1903 0.980 . S
H1963 C1902 0.959 . S
H1964 C1902 0.959 . S
H1965 C1902 0.960 . S
H1966 C1905 0.929 . S
H1967 C1909 0.929 . S
H1968 C1910 0.959 . S
H1969 C1910 0.961 . S
H1970 C1910 0.961 . S
H1971 C1911 0.960 . S
H1972 C1911 0.960 . S
H1973 C1911 0.961 . S
H1974 C1913 0.980 1_565 S
H1975 C1912 0.910 1_565 S
H1976 C1912 0.960 . S
H1977 C1912 0.959 . S
H1978 C1915 0.930 1_565 S
H1979 C1919 0.931 . S
H1980 C1920 0.959 . S
H1981 C1920 0.961 . S
H1982 C1920 0.959 . S
H1983 C1921 0.960 . S
H1984 C1921 0.960 . S
H1985 C1921 0.960 . S
H1986 C1957 0.980 . S
H1987 C1923 0.930 1_565 S
H1988 C1927 0.930 . S
H1989 C1928 0.961 . S
H1990 C1928 0.960 . S
H1991 C1928 0.958 . S
H1992 C1929 0.961 . S
H1993 C1929 0.960 . S
H1994 C1929 0.960 . S
H1995 C1931 0.980 . S
H1996 C1930 0.961 . S
H1997 C1930 0.961 . S
H1998 C1930 0.959 . S
H1999 C1933 0.932 . S
H2000 C1937 0.929 . S
H2001 C1938 0.961 . S
H2002 C1938 0.959 . S
H2003 C1938 0.959 . S
H2004 C1939 0.960 . S
H2005 C1939 0.962 . S
H2006 C1939 0.961 . S
H2007 C1941 0.929 . S
H2008 C1944 0.930 . S
H2009 C1945 0.929 . S
H2010 C1948 0.930 . S
H2011 C1951 0.929 . S
H2012 C1952 0.930 . S
H2013 C1956 0.962 . S
H2014 C1956 0.959 . S
H2015 C1956 0.958 . S
C2016 C2017 1.560 . S
C2016 H2077 0.959 . S
C2016 H2078 0.959 . S
C2016 H2079 0.960 . S
C2017 C2016 1.560 . S
C2017 O2072 1.426 . S
C2017 H2076 0.980 1_565 S
C2018 C2019 1.407 1_565 S
C2018 C2023 1.418 . S
C2018 O2072 1.334 . S
C2019 C2018 1.407 1_545 S
C2019 C2020 1.360 . S
C2019 H2080 0.929 . S
C2020 C2019 1.360 . S
C2020 C2021 1.401 . S
C2020 C2024 1.527 . S
C2021 C2020 1.401 . S
C2021 C2022 1.405 1_545 S
C2021 C2054 1.587 . S
C2022 C2021 1.405 1_565 S
C2022 C2023 1.332 . S
C2022 C2025 1.496 . S
C2023 C2018 1.418 . S
C2023 C2022 1.332 . S
C2023 H2081 0.929 . S
C2024 C2020 1.527 . S
C2024 H2082 0.959 . S
C2024 H2083 0.961 . S
C2024 H2084 0.961 . S
C2025 C2022 1.496 . S
C2025 H2085 0.960 . S
C2025 H2086 0.960 . S
C2025 H2087 0.961 . S
C2026 C2027 1.517 . S
C2026 H2089 0.961 . S
C2026 H2090 0.960 . S
C2026 H2091 0.959 . S
C2027 C2026 1.517 . S
C2027 O2075 1.468 . S
C2027 H2088 0.980 . S
C2028 C2029 1.349 . S
C2028 C2033 1.367 . S
C2028 O2075 1.408 . S
C2029 C2028 1.349 . S
C2029 C2030 1.407 . S
C2029 H2092 0.919 1_545 S
C2030 C2029 1.407 . S
C2030 C2031 1.449 . S
C2030 C2034 1.535 1_545 S
C2031 C2030 1.449 . S
C2031 C2032 1.384 . S
C2031 C2056 1.553 . S
C2032 C2031 1.384 . S
C2032 C2033 1.364 . S
C2032 C2035 1.450 . S
C2033 C2028 1.367 . S
C2033 C2032 1.364 . S
C2033 H2093 0.931 . S
C2034 C2030 1.535 1_565 S
C2034 H2094 0.959 . S
C2034 H2095 0.961 . S
C2034 H2096 0.959 . S
C2035 C2032 1.450 . S
C2035 H2097 0.960 . S
C2035 H2098 0.960 . S
C2035 H2099 0.960 . S
C2036 C2037 1.309 1_545 S
C2036 C2041 1.304 . S
C2036 O2074 1.435 . S
C2037 C2036 1.309 1_565 S
C2037 C2038 1.476 . S
C2037 H2101 0.930 . S
C2038 C2037 1.476 . S
C2038 C2039 1.400 1_565 S
C2038 C2042 1.567 . S
C2039 C2038 1.400 1_545 S
C2039 C2040 1.373 . S
C2039 C2061 1.432 . S
C2040 C2039 1.373 . S
C2040 C2041 1.339 . S
C2040 C2043 1.530 . S
C2041 C2036 1.304 . S
C2041 C2040 1.339 . S
C2041 H2102 0.930 . S
C2042 C2038 1.567 . S
C2042 H2103 0.961 . S
C2042 H2104 0.960 . S
C2042 H2105 0.958 . S
C2043 C2040 1.530 . S
C2043 H2106 0.961 . S
C2043 H2107 0.960 . S
C2043 H2108 0.960 . S
C2044 C2045 1.530 . S
C2044 H2110 0.961 . S
C2044 H2111 0.961 . S
C2044 H2112 0.959 . S
C2045 C2044 1.530 . S
C2045 O2073 1.412 . S
C2045 H2109 0.981 . S
C2046 C2047 1.288 . S
C2046 C2051 1.377 1_565 S
C2046 O2073 1.393 . S
C2047 C2046 1.288 . S
C2047 C2048 1.369 . S
C2047 H2113 0.932 . S
C2048 C2047 1.369 . S
C2048 C2049 1.398 . S
C2048 C2052 1.527 . S
C2049 C2048 1.398 . S
C2049 C2050 1.380 1_565 S
C2049 C2063 1.497 1_565 S
C2050 C2049 1.380 1_545 S
C2050 C2051 1.383 . S
C2050 C2053 1.603 . S
C2051 C2046 1.377 1_545 S
C2051 C2050 1.383 . S
C2051 H2114 0.929 . S
C2052 C2048 1.527 . S
C2052 H2115 0.961 . S
C2052 H2116 0.959 . S
C2052 H2117 0.959 . S
C2053 C2050 1.603 . S
C2053 H2118 0.960 . S
C2053 H2119 0.962 . S
C2053 H2120 0.961 . S
C2054 C2021 1.587 . S
C2054 C2055 1.360 . S
C2054 C2067 1.412 . S
C2055 C2054 1.360 . S
C2055 C2056 1.365 . S
C2055 H2121 0.929 . S
C2056 C2031 1.553 . S
C2056 C2055 1.365 . S
C2056 C2057 1.404 . S
C2057 C2056 1.404 . S
C2057 C2058 1.395 . S
C2057 C2068 1.451 . S
C2058 C2057 1.395 . S
C2058 C2059 1.322 . S
C2058 H2122 0.930 . S
C2059 C2058 1.322 . S
C2059 C2060 1.459 . S
C2059 H2123 0.929 . S
C2060 C2059 1.459 . S
C2060 C2061 1.445 . S
C2060 C2069 1.395 . S
C2061 C2039 1.432 . S
C2061 C2060 1.445 . S
C2061 C2062 1.370 . S
C2062 C2061 1.370 . S
C2062 C2063 1.438 . S
C2062 H2124 0.930 . S
C2063 C2049 1.497 1_545 S
C2063 C2062 1.438 . S
C2063 C2064 1.360 . S
C2064 C2063 1.360 . S
C2064 C2065 1.401 . S
C2064 C2069 1.446 . S
C2065 C2064 1.401 . S
C2065 C2066 1.347 . S
C2065 H2125 0.978 . S
C2066 C2065 1.347 . S
C2066 C2067 1.455 . S
C2066 H2126 0.930 . S
C2067 C2054 1.412 . S
C2067 C2066 1.455 . S
C2067 C2068 1.331 . S
C2068 C2057 1.451 . S
C2068 C2067 1.331 . S
C2068 C2069 1.497 . S
C2069 C2060 1.395 . S
C2069 C2064 1.446 . S
C2069 C2068 1.497 . S
C2070 C2071 1.599 . S
C2070 H2127 0.962 . S
C2070 H2128 0.959 . S
C2070 H2129 0.958 . S
C2071 C2070 1.599 . S
C2071 O2074 1.465 . S
C2071 H2100 0.980 1_545 S
O2072 C2017 1.426 . S
O2072 C2018 1.334 . S
O2073 C2045 1.412 . S
O2073 C2046 1.393 . S
O2074 C2036 1.435 . S
O2074 C2071 1.465 . S
O2075 C2027 1.468 . S
O2075 C2028 1.408 . S
H2076 C2017 0.980 1_545 S
H2077 C2016 0.959 . S
H2078 C2016 0.959 . S
H2079 C2016 0.960 . S
H2080 C2019 0.929 . S
H2081 C2023 0.929 . S
H2082 C2024 0.959 . S
H2083 C2024 0.961 . S
H2084 C2024 0.961 . S
H2085 C2025 0.960 . S
H2086 C2025 0.960 . S
H2087 C2025 0.961 . S
H2088 C2027 0.980 . S
H2089 C2026 0.961 . S
H2090 C2026 0.960 . S
H2091 C2026 0.959 . S
H2092 C2029 0.919 1_565 S
H2093 C2033 0.931 . S
H2094 C2034 0.959 . S
H2095 C2034 0.961 . S
H2096 C2034 0.959 . S
H2097 C2035 0.960 . S
H2098 C2035 0.960 . S
H2099 C2035 0.960 . S
H2100 C2071 0.980 1_565 S
H2101 C2037 0.930 . S
H2102 C2041 0.930 . S
H2103 C2042 0.961 . S
H2104 C2042 0.960 . S
H2105 C2042 0.958 . S
H2106 C2043 0.961 . S
H2107 C2043 0.960 . S
H2108 C2043 0.960 . S
H2109 C2045 0.981 . S
H2110 C2044 0.961 . S
H2111 C2044 0.961 . S
H2112 C2044 0.959 . S
H2113 C2047 0.932 . S
H2114 C2051 0.929 . S
H2115 C2052 0.961 . S
H2116 C2052 0.959 . S
H2117 C2052 0.959 . S
H2118 C2053 0.960 . S
H2119 C2053 0.962 . S
H2120 C2053 0.961 . S
H2121 C2055 0.929 . S
H2122 C2058 0.930 . S
H2123 C2059 0.929 . S
H2124 C2062 0.930 . S
H2125 C2065 0.978 . S
H2126 C2066 0.930 . S
H2127 C2070 0.962 . S
H2128 C2070 0.959 . S
H2129 C2070 0.958 . S
C2130 C2131 1.560 . S
C2130 H2191 0.959 . S
C2130 H2192 0.959 . S
C2130 H2193 0.960 . S
C2131 C2130 1.560 . S
C2131 O2186 1.426 . S
C2131 H2190 0.980 1_455 S
C2132 C2133 1.407 1_455 S
C2132 C2137 1.418 . S
C2132 O2186 1.334 . S
C2133 C2132 1.407 1_655 S
C2133 C2134 1.360 . S
C2133 H2194 0.929 . S
C2134 C2133 1.360 . S
C2134 C2135 1.401 . S
C2134 C2138 1.527 . S
C2135 C2134 1.401 . S
C2135 C2136 1.405 1_655 S
C2135 C2168 1.587 . S
C2136 C2135 1.405 1_455 S
C2136 C2137 1.332 . S
C2136 C2139 1.496 . S
C2137 C2132 1.418 . S
C2137 C2136 1.332 . S
C2137 H2195 0.929 . S
C2138 C2134 1.527 . S
C2138 H2196 0.959 . S
C2138 H2197 0.961 . S
C2138 H2198 0.961 . S
C2139 C2136 1.496 . S
C2139 H2199 0.960 . S
C2139 H2200 0.960 . S
C2139 H2201 0.961 . S
C2140 C2141 1.517 . S
C2140 H2203 0.961 . S
C2140 H2204 0.960 . S
C2140 H2205 0.959 . S
C2141 C2140 1.517 . S
C2141 O2189 1.468 . S
C2141 H2202 0.980 . S
C2142 C2143 1.349 . S
C2142 C2147 1.367 . S
C2142 O2189 1.408 . S
C2143 C2142 1.349 . S
C2143 C2144 1.407 . S
C2143 H2206 0.967 . S
C2144 C2143 1.407 . S
C2144 C2145 1.449 . S
C2144 C2148 1.535 1_655 S
C2145 C2144 1.449 . S
C2145 C2146 1.384 . S
C2145 C2170 1.553 . S
C2146 C2145 1.384 . S
C2146 C2147 1.364 . S
C2146 C2149 1.450 . S
C2147 C2142 1.367 . S
C2147 C2146 1.364 . S
C2147 H2207 0.931 . S
C2148 C2144 1.535 1_455 S
C2148 H2208 0.959 . S
C2148 H2209 0.961 . S
C2148 H2210 0.959 . S
C2149 C2146 1.450 . S
C2149 H2211 0.960 . S
C2149 H2212 0.960 . S
C2149 H2213 0.960 . S
C2150 C2151 1.309 1_655 S
C2150 C2155 1.304 . S
C2150 O2188 1.435 . S
C2151 C2150 1.309 1_455 S
C2151 C2152 1.476 . S
C2151 H2215 0.930 . S
C2152 C2151 1.476 . S
C2152 C2153 1.400 1_455 S
C2152 C2156 1.567 . S
C2153 C2152 1.400 1_655 S
C2153 C2154 1.373 . S
C2153 C2175 1.432 . S
C2154 C2153 1.373 . S
C2154 C2155 1.339 . S
C2154 C2157 1.530 . S
C2155 C2150 1.304 . S
C2155 C2154 1.339 . S
C2155 H2216 0.930 . S
C2156 C2152 1.567 . S
C2156 H2217 0.961 . S
C2156 H2218 0.960 . S
C2156 H2219 0.958 . S
C2157 C2154 1.530 . S
C2157 H2220 0.961 . S
C2157 H2221 0.960 . S
C2157 H2222 0.960 . S
C2158 C2159 1.530 . S
C2158 H2224 0.961 . S
C2158 H2225 0.961 . S
C2158 H2226 0.959 . S
C2159 C2158 1.530 . S
C2159 O2187 1.412 . S
C2159 H2223 0.980 . S
C2160 C2161 1.288 . S
C2160 C2165 1.377 1_455 S
C2160 O2187 1.393 . S
C2161 C2160 1.288 . S
C2161 C2162 1.369 . S
C2161 H2227 0.932 . S
C2162 C2161 1.369 . S
C2162 C2163 1.398 . S
C2162 C2166 1.527 . S
C2163 C2162 1.398 . S
C2163 C2164 1.380 1_455 S
C2163 C2177 1.497 1_455 S
C2164 C2163 1.380 1_655 S
C2164 C2165 1.383 . S
C2164 C2167 1.603 . S
C2165 C2160 1.377 1_655 S
C2165 C2164 1.383 . S
C2165 H2228 0.929 . S
C2166 C2162 1.527 . S
C2166 H2229 0.961 . S
C2166 H2230 0.959 . S
C2166 H2231 0.959 . S
C2167 C2164 1.603 . S
C2167 H2232 0.960 . S
C2167 H2233 0.962 . S
C2167 H2234 0.961 . S
C2168 C2135 1.587 . S
C2168 C2169 1.360 . S
C2168 C2181 1.412 . S
C2169 C2168 1.360 . S
C2169 C2170 1.365 . S
C2169 H2235 0.929 . S
C2170 C2145 1.553 . S
C2170 C2169 1.365 . S
C2170 C2171 1.404 . S
C2171 C2170 1.404 . S
C2171 C2172 1.395 . S
C2171 C2182 1.451 . S
C2172 C2171 1.395 . S
C2172 C2173 1.322 . S
C2172 H2236 0.930 . S
C2173 C2172 1.322 . S
C2173 C2174 1.459 . S
C2173 H2237 0.929 . S
C2174 C2173 1.459 . S
C2174 C2175 1.445 . S
C2174 C2183 1.395 . S
C2175 C2153 1.432 . S
C2175 C2174 1.445 . S
C2175 C2176 1.370 . S
C2176 C2175 1.370 . S
C2176 C2177 1.438 . S
C2176 H2238 0.930 . S
C2177 C2163 1.497 1_655 S
C2177 C2176 1.438 . S
C2177 C2178 1.360 . S
C2178 C2177 1.360 . S
C2178 C2179 1.401 . S
C2178 C2183 1.446 . S
C2179 C2178 1.401 . S
C2179 C2180 1.347 . S
C2179 H2239 0.916 . S
C2180 C2179 1.347 . S
C2180 C2181 1.455 . S
C2180 H2240 0.930 . S
C2181 C2168 1.412 . S
C2181 C2180 1.455 . S
C2181 C2182 1.331 . S
C2182 C2171 1.451 . S
C2182 C2181 1.331 . S
C2182 C2183 1.497 . S
C2183 C2174 1.395 . S
C2183 C2178 1.446 . S
C2183 C2182 1.497 . S
C2184 C2185 1.581 1_655 S
C2184 H2241 0.979 . S
C2184 H2242 0.959 . S
C2184 H2243 0.958 . S
C2185 C2184 1.581 1_455 S
C2185 O2188 1.423 1_455 S
C2185 H2214 0.994 . S
O2186 C2131 1.426 . S
O2186 C2132 1.334 . S
O2187 C2159 1.412 . S
O2187 C2160 1.393 . S
O2188 C2150 1.435 . S
O2188 C2185 1.423 1_655 S
O2189 C2141 1.468 . S
O2189 C2142 1.408 . S
H2190 C2131 0.980 1_655 S
H2191 C2130 0.959 . S
H2192 C2130 0.959 . S
H2193 C2130 0.960 . S
H2194 C2133 0.929 . S
H2195 C2137 0.929 . S
H2196 C2138 0.959 . S
H2197 C2138 0.961 . S
H2198 C2138 0.961 . S
H2199 C2139 0.960 . S
H2200 C2139 0.960 . S
H2201 C2139 0.961 . S
H2202 C2141 0.980 . S
H2203 C2140 0.961 . S
H2204 C2140 0.960 . S
H2205 C2140 0.959 . S
H2206 C2143 0.967 . S
H2207 C2147 0.931 . S
H2208 C2148 0.959 . S
H2209 C2148 0.961 . S
H2210 C2148 0.959 . S
H2211 C2149 0.960 . S
H2212 C2149 0.960 . S
H2213 C2149 0.960 . S
H2214 C2185 0.994 . S
H2215 C2151 0.930 . S
H2216 C2155 0.930 . S
H2217 C2156 0.961 . S
H2218 C2156 0.960 . S
H2219 C2156 0.958 . S
H2220 C2157 0.961 . S
H2221 C2157 0.960 . S
H2222 C2157 0.960 . S
H2223 C2159 0.980 . S
H2224 C2158 0.961 . S
H2225 C2158 0.961 . S
H2226 C2158 0.959 . S
H2227 C2161 0.932 . S
H2228 C2165 0.929 . S
H2229 C2166 0.961 . S
H2230 C2166 0.959 . S
H2231 C2166 0.959 . S
H2232 C2167 0.960 . S
H2233 C2167 0.962 . S
H2234 C2167 0.961 . S
H2235 C2169 0.929 . S
H2236 C2172 0.930 . S
H2237 C2173 0.929 . S
H2238 C2176 0.930 . S
H2239 C2179 0.916 . S
H2240 C2180 0.930 . S
H2241 C2184 0.979 . S
H2242 C2184 0.959 . S
H2243 C2184 0.958 . S
C2244 C2245 1.560 . S
C2244 H2305 0.959 . S
C2244 H2306 0.959 . S
C2244 H2307 0.960 . S
C2245 C2244 1.560 . S
C2245 O2300 1.426 . S
C2245 H2304 0.980 . S
C2246 C2247 1.407 . S
C2246 C2251 1.418 . S
C2246 O2300 1.334 . S
C2247 C2246 1.407 . S
C2247 C2248 1.360 . S
C2247 H2308 0.929 . S
C2248 C2247 1.360 . S
C2248 C2249 1.401 . S
C2248 C2252 1.527 . S
C2249 C2248 1.401 . S
C2249 C2250 1.405 . S
C2249 C2282 1.587 . S
C2250 C2249 1.405 . S
C2250 C2251 1.332 . S
C2250 C2253 1.496 . S
C2251 C2246 1.418 . S
C2251 C2250 1.332 . S
C2251 H2309 0.929 . S
C2252 C2248 1.527 . S
C2252 H2310 0.959 . S
C2252 H2311 0.961 . S
C2252 H2312 0.961 . S
C2253 C2250 1.496 . S
C2253 H2313 0.960 . S
C2253 H2314 0.960 . S
C2253 H2315 0.961 . S
C2254 C2255 1.517 . S
C2254 H2317 0.961 . S
C2254 H2318 0.960 . S
C2254 H2319 0.959 . S
C2255 C2254 1.517 . S
C2255 O2303 1.468 . S
C2255 H2316 0.980 . S
C2256 C2257 1.349 . S
C2256 C2261 1.367 . S
C2256 O2303 1.408 . S
C2257 C2256 1.349 . S
C2257 C2258 1.407 . S
C2257 H2320 0.930 . S
C2258 C2257 1.407 . S
C2258 C2259 1.449 . S
C2258 C2262 1.535 . S
C2259 C2258 1.449 . S
C2259 C2260 1.384 . S
C2259 C2284 1.553 . S
C2260 C2259 1.384 . S
C2260 C2261 1.364 . S
C2260 C2263 1.450 . S
C2261 C2256 1.367 . S
C2261 C2260 1.364 . S
C2261 H2321 0.931 . S
C2262 C2258 1.535 . S
C2262 H2322 0.959 . S
C2262 H2323 0.961 . S
C2262 H2324 0.959 . S
C2263 C2260 1.450 . S
C2263 H2325 0.960 . S
C2263 H2326 0.960 . S
C2263 H2327 0.960 . S
C2264 C2265 1.309 . S
C2264 C2269 1.304 . S
C2264 O2302 1.435 . S
C2265 C2264 1.309 . S
C2265 C2266 1.476 . S
C2265 H2329 0.930 . S
C2266 C2265 1.476 . S
C2266 C2267 1.400 . S
C2266 C2270 1.567 . S
C2267 C2266 1.400 . S
C2267 C2268 1.373 . S
C2267 C2289 1.432 . S
C2268 C2267 1.373 . S
C2268 C2269 1.339 . S
C2268 C2271 1.530 . S
C2269 C2264 1.304 . S
C2269 C2268 1.339 . S
C2269 H2330 0.930 . S
C2270 C2266 1.567 . S
C2270 H2331 0.961 . S
C2270 H2332 0.960 . S
C2270 H2333 0.958 . S
C2271 C2268 1.530 . S
C2271 H2334 0.961 . S
C2271 H2335 0.960 . S
C2271 H2336 0.960 . S
C2272 C2273 1.530 . S
C2272 H2338 0.961 . S
C2272 H2339 0.961 . S
C2272 H2340 0.959 . S
C2273 C2272 1.530 . S
C2273 O2301 1.412 . S
C2273 H2337 0.980 . S
C2274 C2275 1.288 . S
C2274 C2279 1.377 . S
C2274 O2301 1.393 . S
C2275 C2274 1.288 . S
C2275 C2276 1.369 . S
C2275 H2341 0.932 . S
C2276 C2275 1.369 . S
C2276 C2277 1.398 . S
C2276 C2280 1.527 . S
C2277 C2276 1.398 . S
C2277 C2278 1.380 . S
C2277 C2291 1.497 . S
C2278 C2277 1.380 . S
C2278 C2279 1.383 . S
C2278 C2281 1.603 . S
C2279 C2274 1.377 . S
C2279 C2278 1.383 . S
C2279 H2342 0.929 . S
C2280 C2276 1.527 . S
C2280 H2343 0.961 . S
C2280 H2344 0.959 . S
C2280 H2345 0.959 . S
C2281 C2278 1.603 . S
C2281 H2346 0.960 . S
C2281 H2347 0.962 . S
C2281 H2348 0.961 . S
C2282 C2249 1.587 . S
C2282 C2283 1.360 . S
C2282 C2295 1.412 . S
C2283 C2282 1.360 . S
C2283 C2284 1.365 . S
C2283 H2349 0.929 . S
C2284 C2259 1.553 . S
C2284 C2283 1.365 . S
C2284 C2285 1.404 . S
C2285 C2284 1.404 . S
C2285 C2286 1.395 . S
C2285 C2296 1.451 . S
C2286 C2285 1.395 . S
C2286 C2287 1.322 . S
C2286 H2350 0.930 . S
C2287 C2286 1.322 . S
C2287 C2288 1.459 . S
C2287 H2351 0.929 . S
C2288 C2287 1.459 . S
C2288 C2289 1.445 . S
C2288 C2297 1.395 . S
C2289 C2267 1.432 . S
C2289 C2288 1.445 . S
C2289 C2290 1.370 . S
C2290 C2289 1.370 . S
C2290 C2291 1.438 . S
C2290 H2352 0.930 . S
C2291 C2277 1.497 . S
C2291 C2290 1.438 . S
C2291 C2292 1.360 . S
C2292 C2291 1.360 . S
C2292 C2293 1.401 . S
C2292 C2297 1.446 . S
C2293 C2292 1.401 . S
C2293 C2294 1.347 . S
C2293 H2353 0.929 . S
C2294 C2293 1.347 . S
C2294 C2295 1.455 . S
C2294 H2354 0.930 . S
C2295 C2282 1.412 . S
C2295 C2294 1.455 . S
C2295 C2296 1.331 . S
C2296 C2285 1.451 . S
C2296 C2295 1.331 . S
C2296 C2297 1.497 . S
C2297 C2288 1.395 . S
C2297 C2292 1.446 . S
C2297 C2296 1.497 . S
C2298 C2299 1.582 . S
C2298 H2355 0.962 . S
C2298 H2356 0.959 . S
C2298 H2357 0.958 . S
C2299 C2298 1.582 . S
C2299 O2302 1.458 . S
C2299 H2328 0.980 . S
O2300 C2245 1.426 . S
O2300 C2246 1.334 . S
O2301 C2273 1.412 . S
O2301 C2274 1.393 . S
O2302 C2264 1.435 . S
O2302 C2299 1.458 . S
O2303 C2255 1.468 . S
O2303 C2256 1.408 . S
H2304 C2245 0.980 . S
H2305 C2244 0.959 . S
H2306 C2244 0.959 . S
H2307 C2244 0.960 . S
H2308 C2247 0.929 . S
H2309 C2251 0.929 . S
H2310 C2252 0.959 . S
H2311 C2252 0.961 . S
H2312 C2252 0.961 . S
H2313 C2253 0.960 . S
H2314 C2253 0.960 . S
H2315 C2253 0.961 . S
H2316 C2255 0.980 . S
H2317 C2254 0.961 . S
H2318 C2254 0.960 . S
H2319 C2254 0.959 . S
H2320 C2257 0.930 . S
H2321 C2261 0.931 . S
H2322 C2262 0.959 . S
H2323 C2262 0.961 . S
H2324 C2262 0.959 . S
H2325 C2263 0.960 . S
H2326 C2263 0.960 . S
H2327 C2263 0.960 . S
H2328 C2299 0.980 . S
H2329 C2265 0.930 . S
H2330 C2269 0.930 . S
H2331 C2270 0.961 . S
H2332 C2270 0.960 . S
H2333 C2270 0.958 . S
H2334 C2271 0.961 . S
H2335 C2271 0.960 . S
H2336 C2271 0.960 . S
H2337 C2273 0.980 . S
H2338 C2272 0.961 . S
H2339 C2272 0.961 . S
H2340 C2272 0.959 . S
H2341 C2275 0.932 . S
H2342 C2279 0.929 . S
H2343 C2280 0.961 . S
H2344 C2280 0.959 . S
H2345 C2280 0.959 . S
H2346 C2281 0.960 . S
H2347 C2281 0.962 . S
H2348 C2281 0.961 . S
H2349 C2283 0.929 . S
H2350 C2286 0.930 . S
H2351 C2287 0.929 . S
H2352 C2290 0.930 . S
H2353 C2293 0.929 . S
H2354 C2294 0.930 . S
H2355 C2298 0.962 . S
H2356 C2298 0.959 . S
H2357 C2298 0.958 . S
C2358 C2359 1.560 . S
C2358 H2419 0.959 . S
C2358 H2420 0.959 . S
C2358 H2421 0.960 . S
C2359 C2358 1.560 . S
C2359 O2414 1.426 . S
C2359 H2418 0.980 . S
C2360 C2361 1.407 . S
C2360 C2365 1.418 . S
C2360 O2414 1.334 . S
C2361 C2360 1.407 . S
C2361 C2362 1.360 . S
C2361 H2422 0.929 . S
C2362 C2361 1.360 . S
C2362 C2363 1.401 . S
C2362 C2366 1.527 . S
C2363 C2362 1.401 . S
C2363 C2364 1.405 . S
C2363 C2396 1.587 . S
C2364 C2363 1.405 . S
C2364 C2365 1.332 . S
C2364 C2367 1.496 . S
C2365 C2360 1.418 . S
C2365 C2364 1.332 . S
C2365 H2423 0.929 . S
C2366 C2362 1.527 . S
C2366 H2424 0.959 . S
C2366 H2425 0.961 . S
C2366 H2426 0.961 . S
C2367 C2364 1.496 . S
C2367 H2427 0.960 . S
C2367 H2428 0.960 . S
C2367 H2429 0.961 . S
C2368 C2369 1.517 . S
C2368 H2431 0.961 . S
C2368 H2432 0.960 . S
C2368 H2433 0.959 . S
C2369 C2368 1.517 . S
C2369 O2417 1.468 . S
C2369 H2430 0.980 . S
C2370 C2371 1.349 . S
C2370 C2375 1.367 . S
C2370 O2417 1.408 . S
C2371 C2370 1.349 . S
C2371 C2372 1.407 . S
C2371 H2434 0.930 . S
C2372 C2371 1.407 . S
C2372 C2373 1.449 . S
C2372 C2376 1.535 . S
C2373 C2372 1.449 . S
C2373 C2374 1.384 . S
C2373 C2398 1.553 . S
C2374 C2373 1.384 . S
C2374 C2375 1.364 . S
C2374 C2377 1.450 . S
C2375 C2370 1.367 . S
C2375 C2374 1.364 . S
C2375 H2435 0.931 . S
C2376 C2372 1.535 . S
C2376 H2436 0.959 . S
C2376 H2437 0.961 . S
C2376 H2438 0.959 . S
C2377 C2374 1.450 . S
C2377 H2439 0.960 . S
C2377 H2440 0.960 . S
C2377 H2441 0.960 . S
C2378 C2379 1.309 . S
C2378 C2383 1.304 . S
C2378 O2416 1.435 . S
C2379 C2378 1.309 . S
C2379 C2380 1.476 . S
C2379 H2443 0.930 . S
C2380 C2379 1.476 . S
C2380 C2381 1.400 . S
C2380 C2384 1.567 . S
C2381 C2380 1.400 . S
C2381 C2382 1.373 . S
C2381 C2403 1.432 . S
C2382 C2381 1.373 . S
C2382 C2383 1.339 . S
C2382 C2385 1.530 . S
C2383 C2378 1.304 . S
C2383 C2382 1.339 . S
C2383 H2444 0.930 . S
C2384 C2380 1.567 . S
C2384 H2445 0.961 . S
C2384 H2446 0.960 . S
C2384 H2447 0.958 . S
C2385 C2382 1.530 . S
C2385 H2448 0.961 . S
C2385 H2449 0.960 . S
C2385 H2450 0.960 . S
C2386 C2387 1.530 . S
C2386 H2452 0.961 . S
C2386 H2453 0.961 . S
C2386 H2454 0.959 . S
C2387 C2386 1.530 . S
C2387 O2415 1.412 . S
C2387 H2451 0.980 . S
C2388 C2389 1.288 . S
C2388 C2393 1.377 . S
C2388 O2415 1.393 . S
C2389 C2388 1.288 . S
C2389 C2390 1.369 . S
C2389 H2455 0.932 . S
C2390 C2389 1.369 . S
C2390 C2391 1.398 . S
C2390 C2394 1.527 . S
C2391 C2390 1.398 . S
C2391 C2392 1.380 . S
C2391 C2405 1.497 . S
C2392 C2391 1.380 . S
C2392 C2393 1.383 . S
C2392 C2395 1.603 . S
C2393 C2388 1.377 . S
C2393 C2392 1.383 . S
C2393 H2456 0.929 . S
C2394 C2390 1.527 . S
C2394 H2457 0.961 . S
C2394 H2458 0.959 . S
C2394 H2459 0.959 . S
C2395 C2392 1.603 . S
C2395 H2460 0.960 . S
C2395 H2461 0.962 . S
C2395 H2462 0.961 . S
C2396 C2363 1.587 . S
C2396 C2397 1.360 . S
C2396 C2409 1.412 . S
C2397 C2396 1.360 . S
C2397 C2398 1.365 . S
C2397 H2463 0.929 . S
C2398 C2373 1.553 . S
C2398 C2397 1.365 . S
C2398 C2399 1.404 . S
C2399 C2398 1.404 . S
C2399 C2400 1.395 . S
C2399 C2410 1.451 . S
C2400 C2399 1.395 . S
C2400 C2401 1.322 . S
C2400 H2464 0.930 . S
C2401 C2400 1.322 . S
C2401 C2402 1.459 . S
C2401 H2465 0.929 . S
C2402 C2401 1.459 . S
C2402 C2403 1.445 . S
C2402 C2411 1.395 . S
C2403 C2381 1.432 . S
C2403 C2402 1.445 . S
C2403 C2404 1.370 . S
C2404 C2403 1.370 . S
C2404 C2405 1.438 . S
C2404 H2466 0.930 . S
C2405 C2391 1.497 . S
C2405 C2404 1.438 . S
C2405 C2406 1.360 . S
C2406 C2405 1.360 . S
C2406 C2407 1.401 . S
C2406 C2411 1.446 . S
C2407 C2406 1.401 . S
C2407 C2408 1.347 . S
C2407 H2467 0.929 . S
C2408 C2407 1.347 . S
C2408 C2409 1.455 . S
C2408 H2468 0.930 . S
C2409 C2396 1.412 . S
C2409 C2408 1.455 . S
C2409 C2410 1.331 . S
C2410 C2399 1.451 . S
C2410 C2409 1.331 . S
C2410 C2411 1.497 . S
C2411 C2402 1.395 . S
C2411 C2406 1.446 . S
C2411 C2410 1.497 . S
C2412 C2413 1.582 . S
C2412 H2469 0.962 . S
C2412 H2470 0.959 . S
C2412 H2471 0.958 . S
C2413 C2412 1.582 . S
C2413 O2416 1.458 . S
C2413 H2442 0.980 . S
O2414 C2359 1.426 . S
O2414 C2360 1.334 . S
O2415 C2387 1.412 . S
O2415 C2388 1.393 . S
O2416 C2378 1.435 . S
O2416 C2413 1.458 . S
O2417 C2369 1.468 . S
O2417 C2370 1.408 . S
H2418 C2359 0.980 . S
H2419 C2358 0.959 . S
H2420 C2358 0.959 . S
H2421 C2358 0.960 . S
H2422 C2361 0.929 . S
H2423 C2365 0.929 . S
H2424 C2366 0.959 . S
H2425 C2366 0.961 . S
H2426 C2366 0.961 . S
H2427 C2367 0.960 . S
H2428 C2367 0.960 . S
H2429 C2367 0.961 . S
H2430 C2369 0.980 . S
H2431 C2368 0.961 . S
H2432 C2368 0.960 . S
H2433 C2368 0.959 . S
H2434 C2371 0.930 . S
H2435 C2375 0.931 . S
H2436 C2376 0.959 . S
H2437 C2376 0.961 . S
H2438 C2376 0.959 . S
H2439 C2377 0.960 . S
H2440 C2377 0.960 . S
H2441 C2377 0.960 . S
H2442 C2413 0.980 . S
H2443 C2379 0.930 . S
H2444 C2383 0.930 . S
H2445 C2384 0.961 . S
H2446 C2384 0.960 . S
H2447 C2384 0.958 . S
H2448 C2385 0.961 . S
H2449 C2385 0.960 . S
H2450 C2385 0.960 . S
H2451 C2387 0.980 . S
H2452 C2386 0.961 . S
H2453 C2386 0.961 . S
H2454 C2386 0.959 . S
H2455 C2389 0.932 . S
H2456 C2393 0.929 . S
H2457 C2394 0.961 . S
H2458 C2394 0.959 . S
H2459 C2394 0.959 . S
H2460 C2395 0.960 . S
H2461 C2395 0.962 . S
H2462 C2395 0.961 . S
H2463 C2397 0.929 . S
H2464 C2400 0.930 . S
H2465 C2401 0.929 . S
H2466 C2404 0.930 . S
H2467 C2407 0.929 . S
H2468 C2408 0.930 . S
H2469 C2412 0.962 . S
H2470 C2412 0.959 . S
H2471 C2412 0.958 . S
C2472 C2473 1.560 . S
C2472 H2533 0.959 . S
C2472 H2534 0.959 . S
C2472 H2535 0.960 . S
C2473 C2472 1.560 . S
C2473 O2528 1.426 . S
C2473 H2532 0.980 . S
C2474 C2475 1.407 . S
C2474 C2479 1.418 . S
C2474 O2528 1.334 . S
C2475 C2474 1.407 . S
C2475 C2476 1.360 . S
C2475 H2536 0.929 . S
C2476 C2475 1.360 . S
C2476 C2477 1.401 . S
C2476 C2480 1.527 . S
C2477 C2476 1.401 . S
C2477 C2478 1.405 . S
C2477 C2510 1.587 . S
C2478 C2477 1.405 . S
C2478 C2479 1.332 . S
C2478 C2481 1.496 . S
C2479 C2474 1.418 . S
C2479 C2478 1.332 . S
C2479 H2537 0.929 . S
C2480 C2476 1.527 . S
C2480 H2538 0.959 . S
C2480 H2539 0.961 . S
C2480 H2540 0.961 . S
C2481 C2478 1.496 . S
C2481 H2541 0.960 . S
C2481 H2542 0.960 . S
C2481 H2543 0.961 . S
C2482 C2483 1.517 . S
C2482 H2545 0.961 . S
C2482 H2546 0.960 . S
C2482 H2547 0.959 . S
C2483 C2482 1.517 . S
C2483 O2531 1.468 . S
C2483 H2544 0.980 . S
C2484 C2485 1.349 . S
C2484 C2489 1.367 . S
C2484 O2531 1.408 . S
C2485 C2484 1.349 . S
C2485 C2486 1.407 . S
C2485 H2548 0.930 . S
C2486 C2485 1.407 . S
C2486 C2487 1.449 . S
C2486 C2490 1.535 . S
C2487 C2486 1.449 . S
C2487 C2488 1.384 . S
C2487 C2512 1.553 . S
C2488 C2487 1.384 . S
C2488 C2489 1.364 . S
C2488 C2491 1.450 . S
C2489 C2484 1.367 . S
C2489 C2488 1.364 . S
C2489 H2549 0.931 . S
C2490 C2486 1.535 . S
C2490 H2550 0.959 . S
C2490 H2551 0.961 . S
C2490 H2552 0.959 . S
C2491 C2488 1.450 . S
C2491 H2553 0.960 . S
C2491 H2554 0.960 . S
C2491 H2555 0.960 . S
C2492 C2493 1.309 . S
C2492 C2497 1.304 . S
C2492 O2530 1.435 . S
C2493 C2492 1.309 . S
C2493 C2494 1.476 . S
C2493 H2557 0.930 . S
C2494 C2493 1.476 . S
C2494 C2495 1.400 . S
C2494 C2498 1.567 . S
C2495 C2494 1.400 . S
C2495 C2496 1.373 . S
C2495 C2517 1.432 . S
C2496 C2495 1.373 . S
C2496 C2497 1.339 . S
C2496 C2499 1.530 . S
C2497 C2492 1.304 . S
C2497 C2496 1.339 . S
C2497 H2558 0.930 . S
C2498 C2494 1.567 . S
C2498 H2559 0.961 . S
C2498 H2560 0.960 . S
C2498 H2561 0.958 . S
C2499 C2496 1.530 . S
C2499 H2562 0.961 . S
C2499 H2563 0.960 . S
C2499 H2564 0.960 . S
C2500 C2501 1.530 . S
C2500 H2566 0.961 . S
C2500 H2567 0.961 . S
C2500 H2568 0.959 . S
C2501 C2500 1.530 . S
C2501 O2529 1.412 . S
C2501 H2565 0.980 . S
C2502 C2503 1.288 . S
C2502 C2507 1.377 . S
C2502 O2529 1.393 . S
C2503 C2502 1.288 . S
C2503 C2504 1.369 . S
C2503 H2569 0.932 . S
C2504 C2503 1.369 . S
C2504 C2505 1.398 . S
C2504 C2508 1.527 . S
C2505 C2504 1.398 . S
C2505 C2506 1.380 . S
C2505 C2519 1.497 . S
C2506 C2505 1.380 . S
C2506 C2507 1.383 . S
C2506 C2509 1.603 . S
C2507 C2502 1.377 . S
C2507 C2506 1.383 . S
C2507 H2570 0.929 . S
C2508 C2504 1.527 . S
C2508 H2571 0.961 . S
C2508 H2572 0.959 . S
C2508 H2573 0.959 . S
C2509 C2506 1.603 . S
C2509 H2574 0.960 . S
C2509 H2575 0.962 . S
C2509 H2576 0.961 . S
C2510 C2477 1.587 . S
C2510 C2511 1.360 . S
C2510 C2523 1.412 . S
C2511 C2510 1.360 . S
C2511 C2512 1.365 . S
C2511 H2577 0.929 . S
C2512 C2487 1.553 . S
C2512 C2511 1.365 . S
C2512 C2513 1.404 . S
C2513 C2512 1.404 . S
C2513 C2514 1.395 . S
C2513 C2524 1.451 . S
C2514 C2513 1.395 . S
C2514 C2515 1.322 . S
C2514 H2578 0.930 . S
C2515 C2514 1.322 . S
C2515 C2516 1.459 . S
C2515 H2579 0.929 . S
C2516 C2515 1.459 . S
C2516 C2517 1.445 . S
C2516 C2525 1.395 . S
C2517 C2495 1.432 . S
C2517 C2516 1.445 . S
C2517 C2518 1.370 . S
C2518 C2517 1.370 . S
C2518 C2519 1.438 . S
C2518 H2580 0.930 . S
C2519 C2505 1.497 . S
C2519 C2518 1.438 . S
C2519 C2520 1.360 . S
C2520 C2519 1.360 . S
C2520 C2521 1.401 . S
C2520 C2525 1.446 . S
C2521 C2520 1.401 . S
C2521 C2522 1.347 . S
C2521 H2581 0.929 . S
C2522 C2521 1.347 . S
C2522 C2523 1.455 . S
C2522 H2582 0.930 . S
C2523 C2510 1.412 . S
C2523 C2522 1.455 . S
C2523 C2524 1.331 . S
C2524 C2513 1.451 . S
C2524 C2523 1.331 . S
C2524 C2525 1.497 . S
C2525 C2516 1.395 . S
C2525 C2520 1.446 . S
C2525 C2524 1.497 . S
C2526 C2527 1.582 . S
C2526 H2583 0.962 . S
C2526 H2584 0.959 . S
C2526 H2585 0.958 . S
C2527 C2526 1.582 . S
C2527 O2530 1.458 . S
C2527 H2556 0.980 . S
O2528 C2473 1.426 . S
O2528 C2474 1.334 . S
O2529 C2501 1.412 . S
O2529 C2502 1.393 . S
O2530 C2492 1.435 . S
O2530 C2527 1.458 . S
O2531 C2483 1.468 . S
O2531 C2484 1.408 . S
H2532 C2473 0.980 . S
H2533 C2472 0.959 . S
H2534 C2472 0.959 . S
H2535 C2472 0.960 . S
H2536 C2475 0.929 . S
H2537 C2479 0.929 . S
H2538 C2480 0.959 . S
H2539 C2480 0.961 . S
H2540 C2480 0.961 . S
H2541 C2481 0.960 . S
H2542 C2481 0.960 . S
H2543 C2481 0.961 . S
H2544 C2483 0.980 . S
H2545 C2482 0.961 . S
H2546 C2482 0.960 . S
H2547 C2482 0.959 . S
H2548 C2485 0.930 . S
H2549 C2489 0.931 . S
H2550 C2490 0.959 . S
H2551 C2490 0.961 . S
H2552 C2490 0.959 . S
H2553 C2491 0.960 . S
H2554 C2491 0.960 . S
H2555 C2491 0.960 . S
H2556 C2527 0.980 . S
H2557 C2493 0.930 . S
H2558 C2497 0.930 . S
H2559 C2498 0.961 . S
H2560 C2498 0.960 . S
H2561 C2498 0.958 . S
H2562 C2499 0.961 . S
H2563 C2499 0.960 . S
H2564 C2499 0.960 . S
H2565 C2501 0.980 . S
H2566 C2500 0.961 . S
H2567 C2500 0.961 . S
H2568 C2500 0.959 . S
H2569 C2503 0.932 . S
H2570 C2507 0.929 . S
H2571 C2508 0.961 . S
H2572 C2508 0.959 . S
H2573 C2508 0.959 . S
H2574 C2509 0.960 . S
H2575 C2509 0.962 . S
H2576 C2509 0.961 . S
H2577 C2511 0.929 . S
H2578 C2514 0.930 . S
H2579 C2515 0.929 . S
H2580 C2518 0.930 . S
H2581 C2521 0.929 . S
H2582 C2522 0.930 . S
H2583 C2526 0.962 . S
H2584 C2526 0.959 . S
H2585 C2526 0.958 . S
C2586 C2587 1.560 . S
C2586 H2647 0.959 . S
C2586 H2648 0.959 . S
C2586 H2649 0.960 . S
C2587 C2586 1.560 . S
C2587 O2642 1.426 . S
C2587 H2646 0.980 . S
C2588 C2589 1.407 . S
C2588 C2593 1.418 . S
C2588 O2642 1.334 . S
C2589 C2588 1.407 . S
C2589 C2590 1.360 . S
C2589 H2650 0.929 . S
C2590 C2589 1.360 . S
C2590 C2591 1.401 . S
C2590 C2594 1.527 . S
C2591 C2590 1.401 . S
C2591 C2592 1.405 . S
C2591 C2624 1.587 . S
C2592 C2591 1.405 . S
C2592 C2593 1.332 . S
C2592 C2595 1.496 . S
C2593 C2588 1.418 . S
C2593 C2592 1.332 . S
C2593 H2651 0.929 . S
C2594 C2590 1.527 . S
C2594 H2652 0.959 . S
C2594 H2653 0.961 . S
C2594 H2654 0.961 . S
C2595 C2592 1.496 . S
C2595 H2655 0.960 . S
C2595 H2656 0.960 . S
C2595 H2657 0.961 . S
C2596 C2597 1.517 . S
C2596 H2659 0.961 . S
C2596 H2660 0.960 . S
C2596 H2661 0.959 . S
C2597 C2596 1.517 . S
C2597 O2645 1.468 . S
C2597 H2658 0.980 . S
C2598 C2599 1.349 . S
C2598 C2603 1.367 . S
C2598 O2645 1.408 . S
C2599 C2598 1.349 . S
C2599 C2600 1.407 . S
C2599 H2662 0.930 . S
C2600 C2599 1.407 . S
C2600 C2601 1.449 . S
C2600 C2604 1.535 . S
C2601 C2600 1.449 . S
C2601 C2602 1.384 . S
C2601 C2626 1.553 . S
C2602 C2601 1.384 . S
C2602 C2603 1.364 . S
C2602 C2605 1.450 . S
C2603 C2598 1.367 . S
C2603 C2602 1.364 . S
C2603 H2663 0.931 . S
C2604 C2600 1.535 . S
C2604 H2664 0.959 . S
C2604 H2665 0.961 . S
C2604 H2666 0.959 . S
C2605 C2602 1.450 . S
C2605 H2667 0.960 . S
C2605 H2668 0.960 . S
C2605 H2669 0.960 . S
C2606 C2607 1.309 . S
C2606 C2611 1.304 . S
C2606 O2644 1.435 . S
C2607 C2606 1.309 . S
C2607 C2608 1.476 . S
C2607 H2671 0.930 . S
C2608 C2607 1.476 . S
C2608 C2609 1.400 . S
C2608 C2612 1.567 . S
C2609 C2608 1.400 . S
C2609 C2610 1.373 . S
C2609 C2631 1.432 . S
C2610 C2609 1.373 . S
C2610 C2611 1.339 . S
C2610 C2613 1.530 . S
C2611 C2606 1.304 . S
C2611 C2610 1.339 . S
C2611 H2672 0.930 . S
C2612 C2608 1.567 . S
C2612 H2673 0.961 . S
C2612 H2674 0.960 . S
C2612 H2675 0.958 . S
C2613 C2610 1.530 . S
C2613 H2676 0.961 . S
C2613 H2677 0.960 . S
C2613 H2678 0.960 . S
C2614 C2615 1.530 . S
C2614 H2680 0.961 . S
C2614 H2681 0.961 . S
C2614 H2682 0.959 . S
C2615 C2614 1.530 . S
C2615 O2643 1.412 . S
C2615 H2679 0.980 . S
C2616 C2617 1.288 . S
C2616 C2621 1.377 . S
C2616 O2643 1.393 . S
C2617 C2616 1.288 . S
C2617 C2618 1.369 . S
C2617 H2683 0.932 . S
C2618 C2617 1.369 . S
C2618 C2619 1.398 . S
C2618 C2622 1.527 . S
C2619 C2618 1.398 . S
C2619 C2620 1.380 . S
C2619 C2633 1.497 . S
C2620 C2619 1.380 . S
C2620 C2621 1.383 . S
C2620 C2623 1.603 . S
C2621 C2616 1.377 . S
C2621 C2620 1.383 . S
C2621 H2684 0.929 . S
C2622 C2618 1.527 . S
C2622 H2685 0.961 . S
C2622 H2686 0.959 . S
C2622 H2687 0.959 . S
C2623 C2620 1.603 . S
C2623 H2688 0.960 . S
C2623 H2689 0.962 . S
C2623 H2690 0.961 . S
C2624 C2591 1.587 . S
C2624 C2625 1.360 . S
C2624 C2637 1.412 . S
C2625 C2624 1.360 . S
C2625 C2626 1.365 . S
C2625 H2691 0.929 . S
C2626 C2601 1.553 . S
C2626 C2625 1.365 . S
C2626 C2627 1.404 . S
C2627 C2626 1.404 . S
C2627 C2628 1.395 . S
C2627 C2638 1.451 . S
C2628 C2627 1.395 . S
C2628 C2629 1.322 . S
C2628 H2692 0.930 . S
C2629 C2628 1.322 . S
C2629 C2630 1.459 . S
C2629 H2693 0.929 . S
C2630 C2629 1.459 . S
C2630 C2631 1.445 . S
C2630 C2639 1.395 . S
C2631 C2609 1.432 . S
C2631 C2630 1.445 . S
C2631 C2632 1.370 . S
C2632 C2631 1.370 . S
C2632 C2633 1.438 . S
C2632 H2694 0.930 . S
C2633 C2619 1.497 . S
C2633 C2632 1.438 . S
C2633 C2634 1.360 . S
C2634 C2633 1.360 . S
C2634 C2635 1.401 . S
C2634 C2639 1.446 . S
C2635 C2634 1.401 . S
C2635 C2636 1.347 . S
C2635 H2695 0.929 . S
C2636 C2635 1.347 . S
C2636 C2637 1.455 . S
C2636 H2696 0.930 . S
C2637 C2624 1.412 . S
C2637 C2636 1.455 . S
C2637 C2638 1.331 . S
C2638 C2627 1.451 . S
C2638 C2637 1.331 . S
C2638 C2639 1.497 . S
C2639 C2630 1.395 . S
C2639 C2634 1.446 . S
C2639 C2638 1.497 . S
C2640 C2641 1.582 . S
C2640 H2697 0.962 . S
C2640 H2698 0.959 . S
C2640 H2699 0.958 . S
C2641 C2640 1.582 . S
C2641 O2644 1.458 . S
C2641 H2670 0.980 . S
O2642 C2587 1.426 . S
O2642 C2588 1.334 . S
O2643 C2615 1.412 . S
O2643 C2616 1.393 . S
O2644 C2606 1.435 . S
O2644 C2641 1.458 . S
O2645 C2597 1.468 . S
O2645 C2598 1.408 . S
H2646 C2587 0.980 . S
H2647 C2586 0.959 . S
H2648 C2586 0.959 . S
H2649 C2586 0.960 . S
H2650 C2589 0.929 . S
H2651 C2593 0.929 . S
H2652 C2594 0.959 . S
H2653 C2594 0.961 . S
H2654 C2594 0.961 . S
H2655 C2595 0.960 . S
H2656 C2595 0.960 . S
H2657 C2595 0.961 . S
H2658 C2597 0.980 . S
H2659 C2596 0.961 . S
H2660 C2596 0.960 . S
H2661 C2596 0.959 . S
H2662 C2599 0.930 . S
H2663 C2603 0.931 . S
H2664 C2604 0.959 . S
H2665 C2604 0.961 . S
H2666 C2604 0.959 . S
H2667 C2605 0.960 . S
H2668 C2605 0.960 . S
H2669 C2605 0.960 . S
H2670 C2641 0.980 . S
H2671 C2607 0.930 . S
H2672 C2611 0.930 . S
H2673 C2612 0.961 . S
H2674 C2612 0.960 . S
H2675 C2612 0.958 . S
H2676 C2613 0.961 . S
H2677 C2613 0.960 . S
H2678 C2613 0.960 . S
H2679 C2615 0.980 . S
H2680 C2614 0.961 . S
H2681 C2614 0.961 . S
H2682 C2614 0.959 . S
H2683 C2617 0.932 . S
H2684 C2621 0.929 . S
H2685 C2622 0.961 . S
H2686 C2622 0.959 . S
H2687 C2622 0.959 . S
H2688 C2623 0.960 . S
H2689 C2623 0.962 . S
H2690 C2623 0.961 . S
H2691 C2625 0.929 . S
H2692 C2628 0.930 . S
H2693 C2629 0.929 . S
H2694 C2632 0.930 . S
H2695 C2635 0.929 . S
H2696 C2636 0.930 . S
H2697 C2640 0.962 . S
H2698 C2640 0.959 . S
H2699 C2640 0.958 . S
H2700 C2712 0.930 . S
H2701 C2714 0.930 . S
H2702 C2715 0.930 . S
H2703 C2719 0.959 1_655 S
H2704 C2719 0.959 . S
H2705 C2719 0.961 . S
H2706 C2720 0.960 . S
H2707 C2720 0.961 . S
H2708 C2720 0.959 . S
H2709 C2723 0.929 . S
H2710 C2724 0.931 . S
H2711 C2726 0.930 . S
C2712 H2700 0.930 . S
C2712 C2713 1.399 1_455 S
C2712 C2717 1.399 . S
C2713 C2712 1.399 1_655 S
C2713 C2714 1.376 . S
C2714 H2701 0.930 . S
C2714 C2713 1.376 . S
C2714 C2715 1.388 . S
C2715 H2702 0.930 . S
C2715 C2714 1.388 . S
C2715 C2716 1.390 . S
C2716 C2715 1.390 . S
C2716 C2717 1.394 1_655 S
C2716 C2722 1.465 . S
C2717 C2712 1.399 . S
C2717 C2716 1.394 1_455 S
C2717 C2718 1.516 . S
C2718 C2717 1.516 . S
C2718 C2719 1.502 . S
C2718 C2720 1.561 . S
C2718 C2721 1.562 . S
C2719 H2703 0.959 1_455 S
C2719 H2704 0.959 . S
C2719 H2705 0.961 . S
C2719 C2718 1.502 . S
C2720 H2706 0.960 . S
C2720 H2707 0.961 . S
C2720 H2708 0.959 . S
C2720 C2718 1.561 . S
C2721 C2718 1.562 . S
C2721 C2722 1.369 1_455 S
C2721 C2726 1.379 . S
C2722 C2716 1.465 . S
C2722 C2721 1.369 1_655 S
C2722 C2723 1.399 . S
C2723 H2709 0.929 . S
C2723 C2722 1.399 . S
C2723 C2724 1.385 . S
C2724 H2710 0.931 . S
C2724 C2723 1.385 . S
C2724 C2725 1.389 . S
C2725 C2724 1.389 . S
C2725 C2726 1.387 1_655 S
C2726 H2711 0.930 . S
C2726 C2721 1.379 . S
C2726 C2725 1.387 1_455 S
H2727 C2739 0.930 . S
H2728 C2741 0.930 . S
H2729 C2742 0.930 . S
H2730 C2746 0.959 . S
H2731 C2746 0.959 . S
H2732 C2746 0.961 . S
H2733 C2747 0.960 . S
H2734 C2747 0.961 . S
H2735 C2747 0.959 . S
H2736 C2750 0.929 . S
H2737 C2751 0.931 . S
H2738 C2753 0.930 . S
C2739 H2727 0.930 . S
C2739 C2740 1.399 . S
C2739 C2744 1.399 . S
C2740 C2739 1.399 . S
C2740 C2741 1.376 . S
C2741 H2728 0.930 . S
C2741 C2740 1.376 . S
C2741 C2742 1.388 . S
C2742 H2729 0.930 . S
C2742 C2741 1.388 . S
C2742 C2743 1.390 . S
C2743 C2742 1.390 . S
C2743 C2744 1.394 . S
C2743 C2749 1.465 . S
C2744 C2739 1.399 . S
C2744 C2743 1.394 . S
C2744 C2745 1.516 . S
C2745 C2744 1.516 . S
C2745 C2746 1.502 . S
C2745 C2747 1.561 . S
C2745 C2748 1.526 . S
C2746 H2730 0.959 . S
C2746 H2731 0.959 . S
C2746 H2732 0.961 . S
C2746 C2745 1.502 . S
C2747 H2733 0.960 . S
C2747 H2734 0.961 . S
C2747 H2735 0.959 . S
C2747 C2745 1.561 . S
C2748 C2745 1.526 . S
C2748 C2749 1.396 . S
C2748 C2753 1.390 . S
C2749 C2743 1.465 . S
C2749 C2748 1.396 . S
C2749 C2750 1.399 . S
C2750 H2736 0.929 . S
C2750 C2749 1.399 . S
C2750 C2751 1.385 . S
C2751 H2737 0.931 . S
C2751 C2750 1.385 . S
C2751 C2752 1.389 . S
C2752 C2751 1.389 . S
C2752 C2753 1.387 . S
C2753 H2738 0.930 . S
C2753 C2748 1.390 . S
C2753 C2752 1.387 . S
H2754 C2766 0.930 . S
H2755 C2768 0.930 . S
H2756 C2769 0.930 . S
H2757 C2773 0.959 . S
H2758 C2773 0.959 . S
H2759 C2773 0.961 . S
H2760 C2774 0.960 . S
H2761 C2774 0.961 . S
H2762 C2774 0.959 . S
H2763 C2777 0.929 . S
H2764 C2778 0.931 . S
H2765 C2780 0.930 . S
C2766 H2754 0.930 . S
C2766 C2767 1.399 1_565 S
C2766 C2771 1.397 . S
C2767 C2766 1.399 1_545 S
C2767 C2768 1.376 . S
C2768 H2755 0.930 . S
C2768 C2767 1.376 . S
C2768 C2769 1.388 . S
C2769 H2756 0.930 . S
C2769 C2768 1.388 . S
C2769 C2770 1.390 . S
C2770 C2769 1.390 . S
C2770 C2771 1.389 1_545 S
C2770 C2776 1.465 . S
C2771 C2766 1.397 . S
C2771 C2770 1.389 1_565 S
C2771 C2772 1.522 . S
C2772 C2771 1.522 . S
C2772 C2773 1.502 . S
C2772 C2774 1.561 . S
C2772 C2775 1.526 . S
C2773 H2757 0.959 . S
C2773 H2758 0.959 . S
C2773 H2759 0.961 . S
C2773 C2772 1.502 . S
C2774 H2760 0.960 . S
C2774 H2761 0.961 . S
C2774 H2762 0.959 . S
C2774 C2772 1.561 . S
C2775 C2772 1.526 . S
C2775 C2776 1.397 1_565 S
C2775 C2780 1.389 . S
C2776 C2770 1.465 . S
C2776 C2775 1.397 1_545 S
C2776 C2777 1.399 . S
C2777 H2763 0.929 . S
C2777 C2776 1.399 . S
C2777 C2778 1.385 . S
C2778 H2764 0.931 . S
C2778 C2777 1.385 . S
C2778 C2779 1.389 . S
C2779 C2778 1.389 . S
C2779 C2780 1.387 1_545 S
C2780 H2765 0.930 . S
C2780 C2775 1.389 . S
C2780 C2779 1.387 1_565 S
H2781 C2793 0.930 . S
H2782 C2795 0.930 . S
H2783 C2796 0.930 . S
H2784 C2800 0.959 . S
H2785 C2800 0.959 . S
H2786 C2800 0.961 . S
H2787 C2801 0.960 . S
H2788 C2801 0.961 . S
H2789 C2801 0.959 . S
H2790 C2804 0.929 . S
H2791 C2805 0.931 . S
H2792 C2807 0.930 . S
C2793 H2781 0.930 . S
C2793 C2794 1.399 . S
C2793 C2798 1.399 . S
C2794 C2793 1.399 . S
C2794 C2795 1.376 1_565 S
C2795 H2782 0.930 . S
C2795 C2794 1.376 1_545 S
C2795 C2796 1.388 . S
C2796 H2783 0.930 . S
C2796 C2795 1.388 . S
C2796 C2797 1.390 1_545 S
C2797 C2796 1.390 1_565 S
C2797 C2798 1.394 . S
C2797 C2803 1.445 . S
C2798 C2793 1.399 . S
C2798 C2797 1.394 . S
C2798 C2799 1.516 . S
C2799 C2798 1.516 . S
C2799 C2800 1.502 . S
C2799 C2801 1.561 . S
C2799 C2802 1.526 . S
C2800 H2784 0.959 . S
C2800 H2785 0.959 . S
C2800 H2786 0.961 . S
C2800 C2799 1.502 . S
C2801 H2787 0.960 . S
C2801 H2788 0.961 . S
C2801 H2789 0.959 . S
C2801 C2799 1.561 . S
C2802 C2799 1.526 . S
C2802 C2803 1.460 . S
C2802 C2807 1.390 . S
C2803 C2797 1.445 . S
C2803 C2802 1.460 . S
C2803 C2804 1.368 1_565 S
C2804 H2790 0.929 . S
C2804 C2803 1.368 1_545 S
C2804 C2805 1.385 . S
C2805 H2791 0.931 . S
C2805 C2804 1.385 . S
C2805 C2806 1.389 1_545 S
C2806 C2805 1.389 1_565 S
C2806 C2807 1.387 . S
C2807 H2792 0.930 . S
C2807 C2802 1.390 . S
C2807 C2806 1.387 . S
H2808 C2820 0.930 . S
H2809 C2822 0.930 . S
H2810 C2823 0.930 . S
H2811 C2827 0.959 . S
H2812 C2827 0.959 . S
H2813 C2827 0.961 . S
H2814 C2828 0.960 . S
H2815 C2828 0.961 . S
H2816 C2828 0.959 . S
H2817 C2831 0.929 . S
H2818 C2832 0.931 . S
H2819 C2834 0.930 . S
C2820 H2808 0.930 . S
C2820 C2821 1.399 . S
C2820 C2825 1.399 . S
C2821 C2820 1.399 . S
C2821 C2822 1.376 . S
C2822 H2809 0.930 . S
C2822 C2821 1.376 . S
C2822 C2823 1.388 . S
C2823 H2810 0.930 . S
C2823 C2822 1.388 . S
C2823 C2824 1.390 . S
C2824 C2823 1.390 . S
C2824 C2825 1.394 . S
C2824 C2830 1.465 . S
C2825 C2820 1.399 . S
C2825 C2824 1.394 . S
C2825 C2826 1.516 . S
C2826 C2825 1.516 . S
C2826 C2827 1.502 . S
C2826 C2828 1.561 1_455 S
C2826 C2829 1.526 . S
C2827 H2811 0.959 . S
C2827 H2812 0.959 . S
C2827 H2813 0.961 . S
C2827 C2826 1.502 . S
C2828 H2814 0.960 . S
C2828 H2815 0.961 . S
C2828 H2816 0.959 . S
C2828 C2826 1.561 1_655 S
C2829 C2826 1.526 . S
C2829 C2830 1.396 . S
C2829 C2834 1.390 . S
C2830 C2824 1.465 . S
C2830 C2829 1.396 . S
C2830 C2831 1.399 . S
C2831 H2817 0.929 . S
C2831 C2830 1.399 . S
C2831 C2832 1.385 . S
C2832 H2818 0.931 . S
C2832 C2831 1.385 . S
C2832 C2833 1.389 . S
C2833 C2832 1.389 . S
C2833 C2834 1.387 . S
C2834 H2819 0.930 . S
C2834 C2829 1.390 . S
C2834 C2833 1.387 . S
H2835 C2847 0.930 . S
H2836 C2849 0.930 . S
H2837 C2850 0.930 . S
H2838 C2854 0.959 . S
H2839 C2854 0.959 . S
H2840 C2854 0.961 . S
H2841 C2855 0.960 . S
H2842 C2855 0.961 . S
H2843 C2855 0.959 . S
H2844 C2858 0.929 . S
H2845 C2859 0.931 . S
H2846 C2861 0.930 . S
C2847 H2835 0.930 . S
C2847 C2848 1.399 . S
C2847 C2852 1.399 . S
C2848 C2847 1.399 . S
C2848 C2849 1.376 . S
C2849 H2836 0.930 . S
C2849 C2848 1.376 . S
C2849 C2850 1.388 . S
C2850 H2837 0.930 . S
C2850 C2849 1.388 . S
C2850 C2851 1.390 . S
C2851 C2850 1.390 . S
C2851 C2852 1.394 . S
C2851 C2857 1.465 . S
C2852 C2847 1.399 . S
C2852 C2851 1.394 . S
C2852 C2853 1.516 . S
C2853 C2852 1.516 . S
C2853 C2854 1.502 . S
C2853 C2855 1.561 . S
C2853 C2856 1.526 . S
C2854 H2838 0.959 . S
C2854 H2839 0.959 . S
C2854 H2840 0.961 . S
C2854 C2853 1.502 . S
C2855 H2841 0.960 . S
C2855 H2842 0.961 . S
C2855 H2843 0.959 . S
C2855 C2853 1.561 . S
C2856 C2853 1.526 . S
C2856 C2857 1.396 . S
C2856 C2861 1.390 . S
C2857 C2851 1.465 . S
C2857 C2856 1.396 . S
C2857 C2858 1.399 . S
C2858 H2844 0.929 . S
C2858 C2857 1.399 . S
C2858 C2859 1.385 . S
C2859 H2845 0.931 . S
C2859 C2858 1.385 . S
C2859 C2860 1.389 . S
C2860 C2859 1.389 . S
C2860 C2861 1.387 . S
C2861 H2846 0.930 . S
C2861 C2856 1.390 . S
C2861 C2860 1.387 . S
H2862 C2874 0.930 . S
H2863 C2876 0.930 . S
H2864 C2877 0.930 1_655 S
H2865 C2881 0.959 1_655 S
H2866 C2881 0.959 . S
H2867 C2881 0.961 . S
H2868 C2882 0.960 . S
H2869 C2882 0.961 . S
H2870 C2882 0.959 . S
H2871 C2885 0.929 . S
H2872 C2886 0.931 . S
H2873 C2888 0.930 . S
C2874 H2862 0.930 . S
C2874 C2875 1.399 . S
C2874 C2879 1.399 . S
C2875 C2874 1.399 . S
C2875 C2876 1.376 . S
C2876 H2863 0.930 . S
C2876 C2875 1.376 . S
C2876 C2877 1.388 . S
C2877 H2864 0.930 1_455 S
C2877 C2876 1.388 . S
C2877 C2878 1.390 . S
C2878 C2877 1.390 . S
C2878 C2879 1.394 . S
C2878 C2884 1.465 . S
C2879 C2874 1.399 . S
C2879 C2878 1.394 . S
C2879 C2880 1.516 . S
C2880 C2879 1.516 . S
C2880 C2881 1.502 . S
C2880 C2882 1.561 . S
C2880 C2883 1.526 . S
C2881 H2865 0.959 1_455 S
C2881 H2866 0.959 . S
C2881 H2867 0.961 . S
C2881 C2880 1.502 . S
C2882 H2868 0.960 . S
C2882 H2869 0.961 . S
C2882 H2870 0.959 . S
C2882 C2880 1.561 . S
C2883 C2880 1.526 . S
C2883 C2884 1.396 . S
C2883 C2888 1.390 . S
C2884 C2878 1.465 . S
C2884 C2883 1.396 . S
C2884 C2885 1.399 1_455 S
C2885 H2871 0.929 . S
C2885 C2884 1.399 1_655 S
C2885 C2886 1.385 . S
C2886 H2872 0.931 . S
C2886 C2885 1.385 . S
C2886 C2887 1.389 1_655 S
C2887 C2886 1.389 1_455 S
C2887 C2888 1.387 . S
C2888 H2873 0.930 . S
C2888 C2883 1.390 . S
C2888 C2887 1.387 . S
H2889 C2901 0.930 . S
H2890 C2903 0.930 . S
H2891 C2904 0.930 . S
H2892 C2908 0.959 . S
H2893 C2908 0.959 . S
H2894 C2908 0.961 . S
H2895 C2909 0.960 . S
H2896 C2909 0.961 . S
H2897 C2909 0.959 . S
H2898 C2912 0.929 . S
H2899 C2913 0.931 . S
H2900 C2915 0.930 . S
C2901 H2889 0.930 . S
C2901 C2902 1.399 . S
C2901 C2906 1.399 . S
C2902 C2901 1.399 . S
C2902 C2903 1.376 . S
C2903 H2890 0.930 . S
C2903 C2902 1.376 . S
C2903 C2904 1.388 . S
C2904 H2891 0.930 . S
C2904 C2903 1.388 . S
C2904 C2905 1.390 . S
C2905 C2904 1.390 . S
C2905 C2906 1.394 . S
C2905 C2911 1.465 . S
C2906 C2901 1.399 . S
C2906 C2905 1.394 . S
C2906 C2907 1.516 . S
C2907 C2906 1.516 . S
C2907 C2908 1.502 . S
C2907 C2909 1.561 . S
C2907 C2910 1.526 . S
C2908 H2892 0.959 . S
C2908 H2893 0.959 . S
C2908 H2894 0.961 . S
C2908 C2907 1.502 . S
C2909 H2895 0.960 . S
C2909 H2896 0.961 . S
C2909 H2897 0.959 . S
C2909 C2907 1.561 . S
C2910 C2907 1.526 . S
C2910 C2911 1.396 . S
C2910 C2915 1.390 . S
C2911 C2905 1.465 . S
C2911 C2910 1.396 . S
C2911 C2912 1.399 . S
C2912 H2898 0.929 . S
C2912 C2911 1.399 . S
C2912 C2913 1.385 . S
C2913 H2899 0.931 . S
C2913 C2912 1.385 . S
C2913 C2914 1.389 . S
C2914 C2913 1.389 . S
C2914 C2915 1.387 . S
C2915 H2900 0.930 . S
C2915 C2910 1.390 . S
C2915 C2914 1.387 . S
H2916 C2928 0.930 . S
H2917 C2930 0.930 . S
H2918 C2931 0.930 . S
H2919 C2935 0.959 . S
H2920 C2935 0.959 . S
H2921 C2935 0.961 . S
H2922 C2936 0.960 . S
H2923 C2936 0.961 . S
H2924 C2936 0.959 . S
H2925 C2939 0.929 . S
H2926 C2940 0.931 . S
H2927 C2942 0.930 . S
C2928 H2916 0.930 . S
C2928 C2929 1.399 . S
C2928 C2933 1.399 . S
C2929 C2928 1.399 . S
C2929 C2930 1.376 1_565 S
C2930 H2917 0.930 . S
C2930 C2929 1.376 1_545 S
C2930 C2931 1.388 . S
C2931 H2918 0.930 . S
C2931 C2930 1.388 . S
C2931 C2932 1.390 . S
C2932 C2931 1.390 . S
C2932 C2933 1.394 1_545 S
C2932 C2938 1.465 . S
C2933 C2928 1.399 . S
C2933 C2932 1.394 1_565 S
C2933 C2934 1.516 . S
C2934 C2933 1.516 . S
C2934 C2935 1.502 . S
C2934 C2936 1.561 . S
C2934 C2937 1.526 . S
C2935 H2919 0.959 . S
C2935 H2920 0.959 . S
C2935 H2921 0.961 . S
C2935 C2934 1.502 . S
C2936 H2922 0.960 . S
C2936 H2923 0.961 . S
C2936 H2924 0.959 . S
C2936 C2934 1.561 . S
C2937 C2934 1.526 . S
C2937 C2938 1.396 1_565 S
C2937 C2942 1.390 . S
C2938 C2932 1.465 . S
C2938 C2937 1.396 1_545 S
C2938 C2939 1.399 . S
C2939 H2925 0.929 . S
C2939 C2938 1.399 . S
C2939 C2940 1.385 . S
C2940 H2926 0.931 . S
C2940 C2939 1.385 . S
C2940 C2941 1.422 . S
C2941 C2940 1.422 . S
C2941 C2942 1.345 1_545 S
C2942 H2927 0.930 . S
C2942 C2937 1.390 . S
C2942 C2941 1.345 1_565 S
H2943 C2955 0.930 . S
H2944 C2957 0.930 . S
H2945 C2958 0.930 . S
H2946 C2962 0.959 . S
H2947 C2962 0.959 . S
H2948 C2962 0.961 . S
H2949 C2963 0.960 . S
H2950 C2963 0.961 . S
H2951 C2963 0.959 . S
H2952 C2966 0.929 . S
H2953 C2967 0.931 . S
H2954 C2969 0.930 . S
C2955 H2943 0.930 . S
C2955 C2956 1.399 . S
C2955 C2960 1.399 . S
C2956 C2955 1.399 . S
C2956 C2957 1.376 1_545 S
C2957 H2944 0.930 . S
C2957 C2956 1.376 1_565 S
C2957 C2958 1.388 . S
C2958 H2945 0.930 . S
C2958 C2957 1.388 . S
C2958 C2959 1.436 . S
C2959 C2958 1.436 . S
C2959 C2960 1.355 1_565 S
C2959 C2965 1.452 . S
C2960 C2955 1.399 . S
C2960 C2959 1.355 1_545 S
C2960 C2961 1.516 . S
C2961 C2960 1.516 . S
C2961 C2962 1.502 . S
C2961 C2963 1.561 . S
C2961 C2964 1.526 . S
C2962 H2946 0.959 . S
C2962 H2947 0.959 . S
C2962 H2948 0.961 . S
C2962 C2961 1.502 . S
C2963 H2949 0.960 . S
C2963 H2950 0.961 . S
C2963 H2951 0.959 . S
C2963 C2961 1.561 . S
C2964 C2961 1.526 . S
C2964 C2965 1.396 1_545 S
C2964 C2969 1.390 . S
C2965 C2959 1.452 . S
C2965 C2964 1.396 1_565 S
C2965 C2966 1.399 . S
C2966 H2952 0.929 . S
C2966 C2965 1.399 . S
C2966 C2967 1.385 . S
C2967 H2953 0.931 . S
C2967 C2966 1.385 . S
C2967 C2968 1.367 1_565 S
C2968 C2967 1.367 1_545 S
C2968 C2969 1.399 . S
C2969 H2954 0.930 . S
C2969 C2964 1.390 . S
C2969 C2968 1.399 . S
H2970 C2982 0.930 . S
H2971 C2984 0.930 . S
H2972 C2985 0.930 . S
H2973 C2989 0.959 . S
H2974 C2989 0.959 . S
H2975 C2989 0.961 . S
H2976 C2990 0.954 1_655 S
H2977 C2990 0.968 1_655 S
H2978 C2990 0.978 . S
H2979 C2993 0.929 . S
H2980 C2994 0.931 . S
H2981 C2996 0.930 . S
C2982 H2970 0.930 . S
C2982 C2983 1.399 . S
C2982 C2987 1.399 . S
C2983 C2982 1.399 . S
C2983 C2984 1.376 1_655 S
C2984 H2971 0.930 . S
C2984 C2983 1.376 1_455 S
C2984 C2985 1.388 . S
C2985 H2972 0.930 . S
C2985 C2984 1.388 . S
C2985 C2986 1.390 . S
C2986 C2985 1.390 . S
C2986 C2987 1.394 1_455 S
C2986 C2992 1.465 . S
C2987 C2982 1.399 . S
C2987 C2986 1.394 1_655 S
C2987 C2988 1.516 . S
C2988 C2987 1.516 . S
C2988 C2989 1.502 . S
C2988 C2990 1.541 1_655 S
C2988 C2991 1.526 . S
C2989 H2973 0.959 . S
C2989 H2974 0.959 . S
C2989 H2975 0.961 . S
C2989 C2988 1.502 . S
C2990 H2976 0.954 1_455 S
C2990 H2977 0.968 1_455 S
C2990 H2978 0.978 . S
C2990 C2988 1.541 1_455 S
C2991 C2988 1.526 . S
C2991 C2992 1.396 1_655 S
C2991 C2996 1.390 . S
C2992 C2986 1.465 . S
C2992 C2991 1.396 1_455 S
C2992 C2993 1.399 . S
C2993 H2979 0.929 . S
C2993 C2992 1.399 . S
C2993 C2994 1.385 . S
C2994 H2980 0.931 . S
C2994 C2993 1.385 . S
C2994 C2995 1.390 1_455 S
C2995 C2994 1.390 1_655 S
C2995 C2996 1.391 . S
C2996 H2981 0.930 . S
C2996 C2991 1.390 . S
C2996 C2995 1.391 . S
H2997 C3009 0.930 . S
H2998 C3011 0.930 . S
H2999 C3012 0.930 . S
H3000 C3016 0.959 . S
H3001 C3016 0.959 . S
H3002 C3016 0.961 . S
H3003 C3017 0.960 . S
H3004 C3017 0.961 . S
H3005 C3017 0.959 . S
H3006 C3020 0.929 . S
H3007 C3021 0.931 . S
H3008 C3023 0.930 . S
C3009 H2997 0.930 . S
C3009 C3010 1.399 . S
C3009 C3014 1.399 . S
C3010 C3009 1.399 . S
C3010 C3011 1.376 . S
C3011 H2998 0.930 . S
C3011 C3010 1.376 . S
C3011 C3012 1.388 . S
C3012 H2999 0.930 . S
C3012 C3011 1.388 . S
C3012 C3013 1.390 . S
C3013 C3012 1.390 . S
C3013 C3014 1.394 . S
C3013 C3019 1.465 . S
C3014 C3009 1.399 . S
C3014 C3013 1.394 . S
C3014 C3015 1.516 . S
C3015 C3014 1.516 . S
C3015 C3016 1.502 . S
C3015 C3017 1.561 . S
C3015 C3018 1.526 . S
C3016 H3000 0.959 . S
C3016 H3001 0.959 . S
C3016 H3002 0.961 . S
C3016 C3015 1.502 . S
C3017 H3003 0.960 . S
C3017 H3004 0.961 . S
C3017 H3005 0.959 . S
C3017 C3015 1.561 . S
C3018 C3015 1.526 . S
C3018 C3019 1.396 . S
C3018 C3023 1.390 . S
C3019 C3013 1.465 . S
C3019 C3018 1.396 . S
C3019 C3020 1.399 . S
C3020 H3006 0.929 . S
C3020 C3019 1.399 . S
C3020 C3021 1.385 . S
C3021 H3007 0.931 . S
C3021 C3020 1.385 . S
C3021 C3022 1.389 . S
C3022 C3021 1.389 . S
C3022 C3023 1.387 . S
C3023 H3008 0.930 . S
C3023 C3018 1.390 . S
C3023 C3022 1.387 . S
H3024 C3036 0.930 . S
H3025 C3038 0.930 . S
H3026 C3039 0.930 . S
H3027 C3043 0.959 . S
H3028 C3043 0.959 . S
H3029 C3043 0.961 . S
H3030 C3044 0.960 . S
H3031 C3044 0.961 . S
H3032 C3044 0.959 . S
H3033 C3047 0.929 . S
H3034 C3048 0.931 . S
H3035 C3050 0.930 . S
C3036 H3024 0.930 . S
C3036 C3037 1.399 . S
C3036 C3041 1.399 . S
C3037 C3036 1.399 . S
C3037 C3038 1.376 . S
C3038 H3025 0.930 . S
C3038 C3037 1.376 . S
C3038 C3039 1.388 . S
C3039 H3026 0.930 . S
C3039 C3038 1.388 . S
C3039 C3040 1.390 . S
C3040 C3039 1.390 . S
C3040 C3041 1.394 . S
C3040 C3046 1.465 . S
C3041 C3036 1.399 . S
C3041 C3040 1.394 . S
C3041 C3042 1.516 . S
C3042 C3041 1.516 . S
C3042 C3043 1.502 . S
C3042 C3044 1.561 . S
C3042 C3045 1.526 . S
C3043 H3027 0.959 . S
C3043 H3028 0.959 . S
C3043 H3029 0.961 . S
C3043 C3042 1.502 . S
C3044 H3030 0.960 . S
C3044 H3031 0.961 . S
C3044 H3032 0.959 . S
C3044 C3042 1.561 . S
C3045 C3042 1.526 . S
C3045 C3046 1.396 . S
C3045 C3050 1.390 . S
C3046 C3040 1.465 . S
C3046 C3045 1.396 . S
C3046 C3047 1.399 . S
C3047 H3033 0.929 . S
C3047 C3046 1.399 . S
C3047 C3048 1.385 . S
C3048 H3034 0.931 . S
C3048 C3047 1.385 . S
C3048 C3049 1.389 . S
C3049 C3048 1.389 . S
C3049 C3050 1.387 . S
C3050 H3035 0.930 . S
C3050 C3045 1.390 . S
C3050 C3049 1.387 . S
H3051 C3063 0.930 . S
H3052 C3065 0.930 . S
H3053 C3066 0.930 . S
H3054 C3070 0.959 . S
H3055 C3070 0.959 . S
H3056 C3070 0.961 . S
H3057 C3071 0.960 . S
H3058 C3071 0.961 . S
H3059 C3071 0.959 . S
H3060 C3074 0.929 . S
H3061 C3075 0.931 . S
H3062 C3077 0.930 . S
C3063 H3051 0.930 . S
C3063 C3064 1.399 . S
C3063 C3068 1.399 . S
C3064 C3063 1.399 . S
C3064 C3065 1.376 . S
C3065 H3052 0.930 . S
C3065 C3064 1.376 . S
C3065 C3066 1.388 . S
C3066 H3053 0.930 . S
C3066 C3065 1.388 . S
C3066 C3067 1.390 . S
C3067 C3066 1.390 . S
C3067 C3068 1.394 . S
C3067 C3073 1.465 . S
C3068 C3063 1.399 . S
C3068 C3067 1.394 . S
C3068 C3069 1.516 . S
C3069 C3068 1.516 . S
C3069 C3070 1.502 . S
C3069 C3071 1.561 . S
C3069 C3072 1.526 . S
C3070 H3054 0.959 . S
C3070 H3055 0.959 . S
C3070 H3056 0.961 . S
C3070 C3069 1.502 . S
C3071 H3057 0.960 . S
C3071 H3058 0.961 . S
C3071 H3059 0.959 . S
C3071 C3069 1.561 . S
C3072 C3069 1.526 . S
C3072 C3073 1.396 . S
C3072 C3077 1.390 . S
C3073 C3067 1.465 . S
C3073 C3072 1.396 . S
C3073 C3074 1.399 . S
C3074 H3060 0.929 . S
C3074 C3073 1.399 . S
C3074 C3075 1.385 . S
C3075 H3061 0.931 . S
C3075 C3074 1.385 . S
C3075 C3076 1.389 . S
C3076 C3075 1.389 . S
C3076 C3077 1.387 . S
C3077 H3062 0.930 . S
C3077 C3072 1.390 . S
C3077 C3076 1.387 . S
H3078 C3090 0.930 . S
H3079 C3092 0.930 . S
H3080 C3093 0.930 . S
H3081 C3097 0.959 . S
H3082 C3097 0.959 . S
H3083 C3097 0.961 . S
H3084 C3098 0.960 . S
H3085 C3098 0.961 . S
H3086 C3098 0.959 . S
H3087 C3101 0.929 . S
H3088 C3102 0.931 . S
H3089 C3104 0.930 . S
C3090 H3078 0.930 . S
C3090 C3091 1.399 . S
C3090 C3095 1.399 . S
C3091 C3090 1.399 . S
C3091 C3092 1.376 . S
C3092 H3079 0.930 . S
C3092 C3091 1.376 . S
C3092 C3093 1.388 . S
C3093 H3080 0.930 . S
C3093 C3092 1.388 . S
C3093 C3094 1.390 . S
C3094 C3093 1.390 . S
C3094 C3095 1.394 . S
C3094 C3100 1.465 . S
C3095 C3090 1.399 . S
C3095 C3094 1.394 . S
C3095 C3096 1.516 . S
C3096 C3095 1.516 . S
C3096 C3097 1.502 . S
C3096 C3098 1.561 . S
C3096 C3099 1.526 . S
C3097 H3081 0.959 . S
C3097 H3082 0.959 . S
C3097 H3083 0.961 . S
C3097 C3096 1.502 . S
C3098 H3084 0.960 . S
C3098 H3085 0.961 . S
C3098 H3086 0.959 . S
C3098 C3096 1.561 . S
C3099 C3096 1.526 . S
C3099 C3100 1.396 . S
C3099 C3104 1.390 . S
C3100 C3094 1.465 . S
C3100 C3099 1.396 . S
C3100 C3101 1.399 . S
C3101 H3087 0.929 . S
C3101 C3100 1.399 . S
C3101 C3102 1.385 . S
C3102 H3088 0.931 . S
C3102 C3101 1.385 . S
C3102 C3103 1.389 . S
C3103 C3102 1.389 . S
C3103 C3104 1.387 . S
C3104 H3089 0.930 . S
C3104 C3099 1.390 . S
C3104 C3103 1.387 . S
H3105 C3117 0.930 . S
H3106 C3119 0.930 . S
H3107 C3120 0.930 . S
H3108 C3124 0.959 . S
H3109 C3124 0.959 . S
H3110 C3124 0.961 . S
H3111 C3125 0.960 . S
H3112 C3125 0.961 . S
H3113 C3125 0.959 . S
H3114 C3128 0.929 . S
H3115 C3129 0.931 . S
H3116 C3131 0.930 . S
C3117 H3105 0.930 . S
C3117 C3118 1.399 . S
C3117 C3122 1.399 . S
C3118 C3117 1.399 . S
C3118 C3119 1.376 . S
C3119 H3106 0.930 . S
C3119 C3118 1.376 . S
C3119 C3120 1.388 . S
C3120 H3107 0.930 . S
C3120 C3119 1.388 . S
C3120 C3121 1.390 . S
C3121 C3120 1.390 . S
C3121 C3122 1.394 . S
C3121 C3127 1.465 . S
C3122 C3117 1.399 . S
C3122 C3121 1.394 . S
C3122 C3123 1.516 . S
C3123 C3122 1.516 . S
C3123 C3124 1.502 . S
C3123 C3125 1.561 . S
C3123 C3126 1.526 . S
C3124 H3108 0.959 . S
C3124 H3109 0.959 . S
C3124 H3110 0.961 . S
C3124 C3123 1.502 . S
C3125 H3111 0.960 . S
C3125 H3112 0.961 . S
C3125 H3113 0.959 . S
C3125 C3123 1.561 . S
C3126 C3123 1.526 . S
C3126 C3127 1.396 . S
C3126 C3131 1.390 . S
C3127 C3121 1.465 . S
C3127 C3126 1.396 . S
C3127 C3128 1.399 . S
C3128 H3114 0.929 . S
C3128 C3127 1.399 . S
C3128 C3129 1.385 . S
C3129 H3115 0.931 . S
C3129 C3128 1.385 . S
C3129 C3130 1.389 . S
C3130 C3129 1.389 . S
C3130 C3131 1.387 . S
C3131 H3116 0.930 . S
C3131 C3126 1.390 . S
C3131 C3130 1.387 . S
H3132 C3144 0.930 . S
H3133 C3146 0.930 . S
H3134 C3147 0.930 . S
H3135 C3151 0.959 . S
H3136 C3151 0.959 . S
H3137 C3151 0.961 . S
H3138 C3152 0.960 . S
H3139 C3152 0.961 . S
H3140 C3152 0.959 . S
H3141 C3155 0.929 . S
H3142 C3156 0.931 . S
H3143 C3158 0.930 . S
C3144 H3132 0.930 . S
C3144 C3145 1.399 . S
C3144 C3149 1.399 . S
C3145 C3144 1.399 . S
C3145 C3146 1.376 . S
C3146 H3133 0.930 . S
C3146 C3145 1.376 . S
C3146 C3147 1.388 . S
C3147 H3134 0.930 . S
C3147 C3146 1.388 . S
C3147 C3148 1.390 . S
C3148 C3147 1.390 . S
C3148 C3149 1.394 . S
C3148 C3154 1.465 . S
C3149 C3144 1.399 . S
C3149 C3148 1.394 . S
C3149 C3150 1.516 . S
C3150 C3149 1.516 . S
C3150 C3151 1.502 . S
C3150 C3152 1.561 . S
C3150 C3153 1.526 . S
C3151 H3135 0.959 . S
C3151 H3136 0.959 . S
C3151 H3137 0.961 . S
C3151 C3150 1.502 . S
C3152 H3138 0.960 . S
C3152 H3139 0.961 . S
C3152 H3140 0.959 . S
C3152 C3150 1.561 . S
C3153 C3150 1.526 . S
C3153 C3154 1.396 . S
C3153 C3158 1.390 . S
C3154 C3148 1.465 . S
C3154 C3153 1.396 . S
C3154 C3155 1.399 . S
C3155 H3141 0.929 . S
C3155 C3154 1.399 . S
C3155 C3156 1.385 . S
C3156 H3142 0.931 . S
C3156 C3155 1.385 . S
C3156 C3157 1.389 . S
C3157 C3156 1.389 . S
C3157 C3158 1.387 . S
C3158 H3143 0.930 . S
C3158 C3153 1.390 . S
C3158 C3157 1.387 . S
H3159 C3171 0.930 . S
H3160 C3173 0.930 . S
H3161 C3174 0.930 . S
H3162 C3178 0.959 . S
H3163 C3178 0.959 . S
H3164 C3178 0.961 . S
H3165 C3179 0.960 . S
H3166 C3179 0.961 . S
H3167 C3179 0.959 . S
H3168 C3182 0.929 . S
H3169 C3183 0.931 . S
H3170 C3185 0.930 . S
C3171 H3159 0.930 . S
C3171 C3172 1.399 . S
C3171 C3176 1.399 . S
C3172 C3171 1.399 . S
C3172 C3173 1.376 . S
C3173 H3160 0.930 . S
C3173 C3172 1.376 . S
C3173 C3174 1.388 . S
C3174 H3161 0.930 . S
C3174 C3173 1.388 . S
C3174 C3175 1.390 . S
C3175 C3174 1.390 . S
C3175 C3176 1.394 . S
C3175 C3181 1.465 . S
C3176 C3171 1.399 . S
C3176 C3175 1.394 . S
C3176 C3177 1.516 . S
C3177 C3176 1.516 . S
C3177 C3178 1.502 . S
C3177 C3179 1.561 . S
C3177 C3180 1.526 . S
C3178 H3162 0.959 . S
C3178 H3163 0.959 . S
C3178 H3164 0.961 . S
C3178 C3177 1.502 . S
C3179 H3165 0.960 . S
C3179 H3166 0.961 . S
C3179 H3167 0.959 . S
C3179 C3177 1.561 . S
C3180 C3177 1.526 . S
C3180 C3181 1.396 . S
C3180 C3185 1.390 . S
C3181 C3175 1.465 . S
C3181 C3180 1.396 . S
C3181 C3182 1.399 . S
C3182 H3168 0.929 . S
C3182 C3181 1.399 . S
C3182 C3183 1.385 . S
C3183 H3169 0.931 . S
C3183 C3182 1.385 . S
C3183 C3184 1.389 . S
C3184 C3183 1.389 . S
C3184 C3185 1.387 . S
C3185 H3170 0.930 . S
C3185 C3180 1.390 . S
C3185 C3184 1.387 . S
H3186 C3198 0.930 . S
H3187 C3200 0.930 . S
H3188 C3201 0.930 . S
H3189 C3205 0.959 . S
H3190 C3205 0.959 . S
H3191 C3205 0.961 . S
H3192 C3206 0.960 . S
H3193 C3206 0.961 . S
H3194 C3206 0.959 . S
H3195 C3209 0.929 . S
H3196 C3210 0.931 . S
H3197 C3212 0.930 . S
C3198 H3186 0.930 . S
C3198 C3199 1.399 . S
C3198 C3203 1.399 . S
C3199 C3198 1.399 . S
C3199 C3200 1.376 . S
C3200 H3187 0.930 . S
C3200 C3199 1.376 . S
C3200 C3201 1.388 . S
C3201 H3188 0.930 . S
C3201 C3200 1.388 . S
C3201 C3202 1.390 . S
C3202 C3201 1.390 . S
C3202 C3203 1.394 . S
C3202 C3208 1.465 . S
C3203 C3198 1.399 . S
C3203 C3202 1.394 . S
C3203 C3204 1.516 . S
C3204 C3203 1.516 . S
C3204 C3205 1.502 . S
C3204 C3206 1.561 . S
C3204 C3207 1.526 . S
C3205 H3189 0.959 . S
C3205 H3190 0.959 . S
C3205 H3191 0.961 . S
C3205 C3204 1.502 . S
C3206 H3192 0.960 . S
C3206 H3193 0.961 . S
C3206 H3194 0.959 . S
C3206 C3204 1.561 . S
C3207 C3204 1.526 . S
C3207 C3208 1.396 . S
C3207 C3212 1.390 . S
C3208 C3202 1.465 . S
C3208 C3207 1.396 . S
C3208 C3209 1.399 . S
C3209 H3195 0.929 . S
C3209 C3208 1.399 . S
C3209 C3210 1.385 . S
C3210 H3196 0.931 . S
C3210 C3209 1.385 . S
C3210 C3211 1.389 . S
C3211 C3210 1.389 . S
C3211 C3212 1.387 . S
C3212 H3197 0.930 . S
C3212 C3207 1.390 . S
C3212 C3211 1.387 . S
H3213 C3225 0.930 . S
H3214 C3227 0.930 . S
H3215 C3228 0.930 . S
H3216 C3232 0.959 . S
H3217 C3232 0.959 . S
H3218 C3232 0.961 . S
H3219 C3233 0.960 . S
H3220 C3233 0.961 . S
H3221 C3233 0.959 . S
H3222 C3236 0.929 . S
H3223 C3237 0.931 . S
H3224 C3239 0.930 . S
C3225 H3213 0.930 . S
C3225 C3226 1.399 . S
C3225 C3230 1.399 . S
C3226 C3225 1.399 . S
C3226 C3227 1.376 . S
C3227 H3214 0.930 . S
C3227 C3226 1.376 . S
C3227 C3228 1.388 . S
C3228 H3215 0.930 . S
C3228 C3227 1.388 . S
C3228 C3229 1.390 . S
C3229 C3228 1.390 . S
C3229 C3230 1.394 . S
C3229 C3235 1.465 . S
C3230 C3225 1.399 . S
C3230 C3229 1.394 . S
C3230 C3231 1.516 . S
C3231 C3230 1.516 . S
C3231 C3232 1.502 . S
C3231 C3233 1.561 . S
C3231 C3234 1.526 . S
C3232 H3216 0.959 . S
C3232 H3217 0.959 . S
C3232 H3218 0.961 . S
C3232 C3231 1.502 . S
C3233 H3219 0.960 . S
C3233 H3220 0.961 . S
C3233 H3221 0.959 . S
C3233 C3231 1.561 . S
C3234 C3231 1.526 . S
C3234 C3235 1.396 . S
C3234 C3239 1.390 . S
C3235 C3229 1.465 . S
C3235 C3234 1.396 . S
C3235 C3236 1.399 . S
C3236 H3222 0.929 . S
C3236 C3235 1.399 . S
C3236 C3237 1.385 . S
C3237 H3223 0.931 . S
C3237 C3236 1.385 . S
C3237 C3238 1.389 . S
C3238 C3237 1.389 . S
C3238 C3239 1.387 . S
C3239 H3224 0.930 . S
C3239 C3234 1.390 . S
C3239 C3238 1.387 . S
H3240 C3252 0.930 . S
H3241 C3254 0.930 . S
H3242 C3255 0.930 . S
H3243 C3259 0.959 . S
H3244 C3259 0.959 . S
H3245 C3259 0.961 . S
H3246 C3260 0.960 . S
H3247 C3260 0.961 . S
H3248 C3260 0.959 . S
H3249 C3263 0.929 . S
H3250 C3264 0.931 . S
H3251 C3266 0.930 . S
C3252 H3240 0.930 . S
C3252 C3253 1.399 . S
C3252 C3257 1.399 . S
C3253 C3252 1.399 . S
C3253 C3254 1.376 . S
C3254 H3241 0.930 . S
C3254 C3253 1.376 . S
C3254 C3255 1.388 . S
C3255 H3242 0.930 . S
C3255 C3254 1.388 . S
C3255 C3256 1.390 . S
C3256 C3255 1.390 . S
C3256 C3257 1.394 . S
C3256 C3262 1.465 . S
C3257 C3252 1.399 . S
C3257 C3256 1.394 . S
C3257 C3258 1.516 . S
C3258 C3257 1.516 . S
C3258 C3259 1.502 . S
C3258 C3260 1.561 . S
C3258 C3261 1.526 . S
C3259 H3243 0.959 . S
C3259 H3244 0.959 . S
C3259 H3245 0.961 . S
C3259 C3258 1.502 . S
C3260 H3246 0.960 . S
C3260 H3247 0.961 . S
C3260 H3248 0.959 . S
C3260 C3258 1.561 . S
C3261 C3258 1.526 . S
C3261 C3262 1.396 . S
C3261 C3266 1.390 . S
C3262 C3256 1.465 . S
C3262 C3261 1.396 . S
C3262 C3263 1.399 . S
C3263 H3249 0.929 . S
C3263 C3262 1.399 . S
C3263 C3264 1.385 . S
C3264 H3250 0.931 . S
C3264 C3263 1.385 . S
C3264 C3265 1.389 . S
C3265 C3264 1.389 . S
C3265 C3266 1.387 . S
C3266 H3251 0.930 . S
C3266 C3261 1.390 . S
C3266 C3265 1.387 . S
H3267 C3279 0.930 . S
H3268 C3281 0.930 . S
H3269 C3282 0.930 . S
H3270 C3286 0.959 . S
H3271 C3286 0.959 . S
H3272 C3286 0.961 . S
H3273 C3287 0.960 . S
H3274 C3287 0.961 . S
H3275 C3287 0.959 . S
H3276 C3290 0.929 . S
H3277 C3291 0.931 . S
H3278 C3293 0.930 . S
C3279 H3267 0.930 . S
C3279 C3280 1.399 . S
C3279 C3284 1.399 . S
C3280 C3279 1.399 . S
C3280 C3281 1.376 . S
C3281 H3268 0.930 . S
C3281 C3280 1.376 . S
C3281 C3282 1.388 . S
C3282 H3269 0.930 . S
C3282 C3281 1.388 . S
C3282 C3283 1.390 . S
C3283 C3282 1.390 . S
C3283 C3284 1.394 . S
C3283 C3289 1.465 . S
C3284 C3279 1.399 . S
C3284 C3283 1.394 . S
C3284 C3285 1.516 . S
C3285 C3284 1.516 . S
C3285 C3286 1.502 . S
C3285 C3287 1.561 . S
C3285 C3288 1.526 . S
C3286 H3270 0.959 . S
C3286 H3271 0.959 . S
C3286 H3272 0.961 . S
C3286 C3285 1.502 . S
C3287 H3273 0.960 . S
C3287 H3274 0.961 . S
C3287 H3275 0.959 . S
C3287 C3285 1.561 . S
C3288 C3285 1.526 . S
C3288 C3289 1.396 . S
C3288 C3293 1.390 . S
C3289 C3283 1.465 . S
C3289 C3288 1.396 . S
C3289 C3290 1.399 . S
C3290 H3276 0.929 . S
C3290 C3289 1.399 . S
C3290 C3291 1.385 . S
C3291 H3277 0.931 . S
C3291 C3290 1.385 . S
C3291 C3292 1.389 . S
C3292 C3291 1.389 . S
C3292 C3293 1.387 . S
C3293 H3278 0.930 . S
C3293 C3288 1.390 . S
C3293 C3292 1.387 . S
H3294 C3306 0.930 . S
H3295 C3308 0.930 . S
H3296 C3309 0.930 . S
H3297 C3313 0.959 . S
H3298 C3313 0.959 . S
H3299 C3313 0.961 . S
H3300 C3314 0.960 . S
H3301 C3314 0.961 . S
H3302 C3314 0.959 . S
H3303 C3317 0.929 . S
H3304 C3318 0.931 . S
H3305 C3320 0.930 . S
C3306 H3294 0.930 . S
C3306 C3307 1.399 . S
C3306 C3311 1.399 . S
C3307 C3306 1.399 . S
C3307 C3308 1.376 . S
C3308 H3295 0.930 . S
C3308 C3307 1.376 . S
C3308 C3309 1.388 . S
C3309 H3296 0.930 . S
C3309 C3308 1.388 . S
C3309 C3310 1.390 . S
C3310 C3309 1.390 . S
C3310 C3311 1.394 . S
C3310 C3316 1.465 . S
C3311 C3306 1.399 . S
C3311 C3310 1.394 . S
C3311 C3312 1.516 . S
C3312 C3311 1.516 . S
C3312 C3313 1.502 . S
C3312 C3314 1.561 . S
C3312 C3315 1.526 . S
C3313 H3297 0.959 . S
C3313 H3298 0.959 . S
C3313 H3299 0.961 . S
C3313 C3312 1.502 . S
C3314 H3300 0.960 . S
C3314 H3301 0.961 . S
C3314 H3302 0.959 . S
C3314 C3312 1.561 . S
C3315 C3312 1.526 . S
C3315 C3316 1.396 . S
C3315 C3320 1.390 . S
C3316 C3310 1.465 . S
C3316 C3315 1.396 . S
C3316 C3317 1.399 . S
C3317 H3303 0.929 . S
C3317 C3316 1.399 . S
C3317 C3318 1.385 . S
C3318 H3304 0.931 . S
C3318 C3317 1.385 . S
C3318 C3319 1.389 . S
C3319 C3318 1.389 . S
C3319 C3320 1.387 . S
C3320 H3305 0.930 . S
C3320 C3315 1.390 . S
C3320 C3319 1.387 . S
H3321 C3333 0.930 . S
H3322 C3335 0.930 . S
H3323 C3336 0.930 . S
H3324 C3340 0.959 . S
H3325 C3340 0.959 . S
H3326 C3340 0.961 . S
H3327 C3341 0.960 . S
H3328 C3341 0.961 . S
H3329 C3341 0.959 . S
H3330 C3344 0.929 . S
H3331 C3345 0.931 . S
H3332 C3347 0.930 . S
C3333 H3321 0.930 . S
C3333 C3334 1.399 . S
C3333 C3338 1.399 . S
C3334 C3333 1.399 . S
C3334 C3335 1.376 . S
C3335 H3322 0.930 . S
C3335 C3334 1.376 . S
C3335 C3336 1.388 . S
C3336 H3323 0.930 . S
C3336 C3335 1.388 . S
C3336 C3337 1.390 . S
C3337 C3336 1.390 . S
C3337 C3338 1.394 . S
C3337 C3343 1.465 . S
C3338 C3333 1.399 . S
C3338 C3337 1.394 . S
C3338 C3339 1.516 . S
C3339 C3338 1.516 . S
C3339 C3340 1.502 . S
C3339 C3341 1.561 . S
C3339 C3342 1.526 . S
C3340 H3324 0.959 . S
C3340 H3325 0.959 . S
C3340 H3326 0.961 . S
C3340 C3339 1.502 . S
C3341 H3327 0.960 . S
C3341 H3328 0.961 . S
C3341 H3329 0.959 . S
C3341 C3339 1.561 . S
C3342 C3339 1.526 . S
C3342 C3343 1.396 . S
C3342 C3347 1.390 . S
C3343 C3337 1.465 . S
C3343 C3342 1.396 . S
C3343 C3344 1.399 . S
C3344 H3330 0.929 . S
C3344 C3343 1.399 . S
C3344 C3345 1.385 . S
C3345 H3331 0.931 . S
C3345 C3344 1.385 . S
C3345 C3346 1.389 . S
C3346 C3345 1.389 . S
C3346 C3347 1.387 . S
C3347 H3332 0.930 . S
C3347 C3342 1.390 . S
C3347 C3346 1.387 . S
H3348 C3360 0.930 . S
H3349 C3362 0.930 . S
H3350 C3363 0.930 . S
H3351 C3367 0.959 . S
H3352 C3367 0.959 . S
H3353 C3367 0.961 . S
H3354 C3368 0.960 . S
H3355 C3368 0.961 . S
H3356 C3368 0.959 . S
H3357 C3371 0.929 . S
H3358 C3372 0.931 . S
H3359 C3374 0.930 . S
C3360 H3348 0.930 . S
C3360 C3361 1.399 . S
C3360 C3365 1.399 . S
C3361 C3360 1.399 . S
C3361 C3362 1.376 . S
C3362 H3349 0.930 . S
C3362 C3361 1.376 . S
C3362 C3363 1.388 . S
C3363 H3350 0.930 . S
C3363 C3362 1.388 . S
C3363 C3364 1.390 . S
C3364 C3363 1.390 . S
C3364 C3365 1.394 . S
C3364 C3370 1.465 . S
C3365 C3360 1.399 . S
C3365 C3364 1.394 . S
C3365 C3366 1.516 . S
C3366 C3365 1.516 . S
C3366 C3367 1.502 . S
C3366 C3368 1.561 . S
C3366 C3369 1.526 . S
C3367 H3351 0.959 . S
C3367 H3352 0.959 . S
C3367 H3353 0.961 . S
C3367 C3366 1.502 . S
C3368 H3354 0.960 . S
C3368 H3355 0.961 . S
C3368 H3356 0.959 . S
C3368 C3366 1.561 . S
C3369 C3366 1.526 . S
C3369 C3370 1.396 . S
C3369 C3374 1.390 . S
C3370 C3364 1.465 . S
C3370 C3369 1.396 . S
C3370 C3371 1.399 . S
C3371 H3357 0.929 . S
C3371 C3370 1.399 . S
C3371 C3372 1.385 . S
C3372 H3358 0.931 . S
C3372 C3371 1.385 . S
C3372 C3373 1.389 . S
C3373 C3372 1.389 . S
C3373 C3374 1.387 . S
C3374 H3359 0.930 . S
C3374 C3369 1.390 . S
C3374 C3373 1.387 . S
H3375 C3387 0.930 . S
H3376 C3389 0.930 . S
H3377 C3390 0.930 . S
H3378 C3394 0.959 . S
H3379 C3394 0.959 . S
H3380 C3394 0.961 . S
H3381 C3395 0.960 . S
H3382 C3395 0.961 . S
H3383 C3395 0.959 . S
H3384 C3398 0.929 . S
H3385 C3399 0.931 . S
H3386 C3401 0.930 . S
C3387 H3375 0.930 . S
C3387 C3388 1.399 . S
C3387 C3392 1.399 . S
C3388 C3387 1.399 . S
C3388 C3389 1.376 . S
C3389 H3376 0.930 . S
C3389 C3388 1.376 . S
C3389 C3390 1.388 . S
C3390 H3377 0.930 . S
C3390 C3389 1.388 . S
C3390 C3391 1.390 . S
C3391 C3390 1.390 . S
C3391 C3392 1.394 . S
C3391 C3397 1.465 . S
C3392 C3387 1.399 . S
C3392 C3391 1.394 . S
C3392 C3393 1.516 . S
C3393 C3392 1.516 . S
C3393 C3394 1.502 . S
C3393 C3395 1.561 . S
C3393 C3396 1.526 . S
C3394 H3378 0.959 . S
C3394 H3379 0.959 . S
C3394 H3380 0.961 . S
C3394 C3393 1.502 . S
C3395 H3381 0.960 . S
C3395 H3382 0.961 . S
C3395 H3383 0.959 . S
C3395 C3393 1.561 . S
C3396 C3393 1.526 . S
C3396 C3397 1.396 . S
C3396 C3401 1.390 . S
C3397 C3391 1.465 . S
C3397 C3396 1.396 . S
C3397 C3398 1.399 . S
C3398 H3384 0.929 . S
C3398 C3397 1.399 . S
C3398 C3399 1.385 . S
C3399 H3385 0.931 . S
C3399 C3398 1.385 . S
C3399 C3400 1.389 . S
C3400 C3399 1.389 . S
C3400 C3401 1.387 . S
C3401 H3386 0.930 . S
C3401 C3396 1.390 . S
C3401 C3400 1.387 . S
H3402 C3414 0.930 . S
H3403 C3416 0.930 . S
H3404 C3417 0.930 . S
H3405 C3421 0.959 . S
H3406 C3421 0.959 . S
H3407 C3421 0.961 . S
H3408 C3422 0.960 . S
H3409 C3422 0.961 . S
H3410 C3422 0.959 . S
H3411 C3425 0.929 . S
H3412 C3426 0.931 . S
H3413 C3428 0.930 . S
C3414 H3402 0.930 . S
C3414 C3415 1.399 . S
C3414 C3419 1.399 . S
C3415 C3414 1.399 . S
C3415 C3416 1.376 . S
C3416 H3403 0.930 . S
C3416 C3415 1.376 . S
C3416 C3417 1.388 . S
C3417 H3404 0.930 . S
C3417 C3416 1.388 . S
C3417 C3418 1.390 . S
C3418 C3417 1.390 . S
C3418 C3419 1.394 . S
C3418 C3424 1.465 . S
C3419 C3414 1.399 . S
C3419 C3418 1.394 . S
C3419 C3420 1.516 . S
C3420 C3419 1.516 . S
C3420 C3421 1.502 . S
C3420 C3422 1.561 . S
C3420 C3423 1.526 . S
C3421 H3405 0.959 . S
C3421 H3406 0.959 . S
C3421 H3407 0.961 . S
C3421 C3420 1.502 . S
C3422 H3408 0.960 . S
C3422 H3409 0.961 . S
C3422 H3410 0.959 . S
C3422 C3420 1.561 . S
C3423 C3420 1.526 . S
C3423 C3424 1.396 . S
C3423 C3428 1.390 . S
C3424 C3418 1.465 . S
C3424 C3423 1.396 . S
C3424 C3425 1.399 . S
C3425 H3411 0.929 . S
C3425 C3424 1.399 . S
C3425 C3426 1.385 . S
C3426 H3412 0.931 . S
C3426 C3425 1.385 . S
C3426 C3427 1.389 . S
C3427 C3426 1.389 . S
C3427 C3428 1.387 . S
C3428 H3413 0.930 . S
C3428 C3423 1.390 . S
C3428 C3427 1.387 . S
H3429 C3441 0.930 . S
H3430 C3443 0.930 . S
H3431 C3444 0.930 . S
H3432 C3448 0.959 . S
H3433 C3448 0.959 . S
H3434 C3448 0.961 . S
H3435 C3449 0.960 . S
H3436 C3449 0.961 . S
H3437 C3449 0.959 . S
H3438 C3452 0.929 . S
H3439 C3453 0.931 . S
H3440 C3455 0.930 . S
C3441 H3429 0.930 . S
C3441 C3442 1.399 . S
C3441 C3446 1.399 . S
C3442 C3441 1.399 . S
C3442 C3443 1.376 . S
C3443 H3430 0.930 . S
C3443 C3442 1.376 . S
C3443 C3444 1.388 . S
C3444 H3431 0.930 . S
C3444 C3443 1.388 . S
C3444 C3445 1.390 . S
C3445 C3444 1.390 . S
C3445 C3446 1.394 . S
C3445 C3451 1.465 . S
C3446 C3441 1.399 . S
C3446 C3445 1.394 . S
C3446 C3447 1.516 . S
C3447 C3446 1.516 . S
C3447 C3448 1.502 . S
C3447 C3449 1.561 . S
C3447 C3450 1.526 . S
C3448 H3432 0.959 . S
C3448 H3433 0.959 . S
C3448 H3434 0.961 . S
C3448 C3447 1.502 . S
C3449 H3435 0.960 . S
C3449 H3436 0.961 . S
C3449 H3437 0.959 . S
C3449 C3447 1.561 . S
C3450 C3447 1.526 . S
C3450 C3451 1.396 . S
C3450 C3455 1.390 . S
C3451 C3445 1.465 . S
C3451 C3450 1.396 . S
C3451 C3452 1.399 . S
C3452 H3438 0.929 . S
C3452 C3451 1.399 . S
C3452 C3453 1.385 . S
C3453 H3439 0.931 . S
C3453 C3452 1.385 . S
C3453 C3454 1.389 . S
C3454 C3453 1.389 . S
C3454 C3455 1.387 . S
C3455 H3440 0.930 . S
C3455 C3450 1.390 . S
C3455 C3454 1.387 . S
H3456 C3468 0.930 . S
H3457 C3470 0.930 . S
H3458 C3471 0.930 . S
H3459 C3475 0.959 . S
H3460 C3475 0.959 . S
H3461 C3475 0.961 . S
H3462 C3476 0.960 . S
H3463 C3476 0.961 . S
H3464 C3476 0.959 . S
H3465 C3479 0.929 . S
H3466 C3480 0.931 . S
H3467 C3482 0.930 . S
C3468 H3456 0.930 . S
C3468 C3469 1.399 . S
C3468 C3473 1.399 . S
C3469 C3468 1.399 . S
C3469 C3470 1.376 . S
C3470 H3457 0.930 . S
C3470 C3469 1.376 . S
C3470 C3471 1.388 . S
C3471 H3458 0.930 . S
C3471 C3470 1.388 . S
C3471 C3472 1.390 . S
C3472 C3471 1.390 . S
C3472 C3473 1.394 . S
C3472 C3478 1.465 . S
C3473 C3468 1.399 . S
C3473 C3472 1.394 . S
C3473 C3474 1.516 . S
C3474 C3473 1.516 . S
C3474 C3475 1.502 . S
C3474 C3476 1.561 . S
C3474 C3477 1.526 . S
C3475 H3459 0.959 . S
C3475 H3460 0.959 . S
C3475 H3461 0.961 . S
C3475 C3474 1.502 . S
C3476 H3462 0.960 . S
C3476 H3463 0.961 . S
C3476 H3464 0.959 . S
C3476 C3474 1.561 . S
C3477 C3474 1.526 . S
C3477 C3478 1.396 . S
C3477 C3482 1.390 . S
C3478 C3472 1.465 . S
C3478 C3477 1.396 . S
C3478 C3479 1.399 . S
C3479 H3465 0.929 . S
C3479 C3478 1.399 . S
C3479 C3480 1.385 . S
C3480 H3466 0.931 . S
C3480 C3479 1.385 . S
C3480 C3481 1.389 . S
C3481 C3480 1.389 . S
C3481 C3482 1.387 . S
C3482 H3467 0.930 . S
C3482 C3477 1.390 . S
C3482 C3481 1.387 . S
H3483 C3495 0.930 . S
H3484 C3497 0.930 . S
H3485 C3498 0.930 . S
H3486 C3502 0.959 . S
H3487 C3502 0.959 . S
H3488 C3502 0.961 . S
H3489 C3503 0.960 . S
H3490 C3503 0.961 . S
H3491 C3503 0.959 . S
H3492 C3506 0.929 . S
H3493 C3507 0.931 . S
H3494 C3509 0.930 . S
C3495 H3483 0.930 . S
C3495 C3496 1.399 . S
C3495 C3500 1.399 . S
C3496 C3495 1.399 . S
C3496 C3497 1.376 . S
C3497 H3484 0.930 . S
C3497 C3496 1.376 . S
C3497 C3498 1.388 . S
C3498 H3485 0.930 . S
C3498 C3497 1.388 . S
C3498 C3499 1.390 . S
C3499 C3498 1.390 . S
C3499 C3500 1.394 . S
C3499 C3505 1.465 . S
C3500 C3495 1.399 . S
C3500 C3499 1.394 . S
C3500 C3501 1.516 . S
C3501 C3500 1.516 . S
C3501 C3502 1.502 . S
C3501 C3503 1.561 . S
C3501 C3504 1.526 . S
C3502 H3486 0.959 . S
C3502 H3487 0.959 . S
C3502 H3488 0.961 . S
C3502 C3501 1.502 . S
C3503 H3489 0.960 . S
C3503 H3490 0.961 . S
C3503 H3491 0.959 . S
C3503 C3501 1.561 . S
C3504 C3501 1.526 . S
C3504 C3505 1.396 . S
C3504 C3509 1.390 . S
C3505 C3499 1.465 . S
C3505 C3504 1.396 . S
C3505 C3506 1.399 . S
C3506 H3492 0.929 . S
C3506 C3505 1.399 . S
C3506 C3507 1.385 . S
C3507 H3493 0.931 . S
C3507 C3506 1.385 . S
C3507 C3508 1.389 . S
C3508 C3507 1.389 . S
C3508 C3509 1.387 . S
C3509 H3494 0.930 . S
C3509 C3504 1.390 . S
C3509 C3508 1.387 . S
H3510 C3522 0.930 . S
H3511 C3524 0.930 . S
H3512 C3525 0.930 . S
H3513 C3529 0.959 . S
H3514 C3529 0.959 . S
H3515 C3529 0.961 . S
H3516 C3530 0.960 . S
H3517 C3530 0.961 . S
H3518 C3530 0.959 . S
H3519 C3533 0.929 . S
H3520 C3534 0.931 . S
H3521 C3536 0.930 . S
C3522 H3510 0.930 . S
C3522 C3523 1.399 . S
C3522 C3527 1.399 . S
C3523 C3522 1.399 . S
C3523 C3524 1.376 . S
C3524 H3511 0.930 . S
C3524 C3523 1.376 . S
C3524 C3525 1.388 . S
C3525 H3512 0.930 . S
C3525 C3524 1.388 . S
C3525 C3526 1.390 . S
C3526 C3525 1.390 . S
C3526 C3527 1.394 . S
C3526 C3532 1.465 . S
C3527 C3522 1.399 . S
C3527 C3526 1.394 . S
C3527 C3528 1.516 . S
C3528 C3527 1.516 . S
C3528 C3529 1.502 . S
C3528 C3530 1.561 . S
C3528 C3531 1.526 . S
C3529 H3513 0.959 . S
C3529 H3514 0.959 . S
C3529 H3515 0.961 . S
C3529 C3528 1.502 . S
C3530 H3516 0.960 . S
C3530 H3517 0.961 . S
C3530 H3518 0.959 . S
C3530 C3528 1.561 . S
C3531 C3528 1.526 . S
C3531 C3532 1.396 . S
C3531 C3536 1.390 . S
C3532 C3526 1.465 . S
C3532 C3531 1.396 . S
C3532 C3533 1.399 . S
C3533 H3519 0.929 . S
C3533 C3532 1.399 . S
C3533 C3534 1.385 . S
C3534 H3520 0.931 . S
C3534 C3533 1.385 . S
C3534 C3535 1.389 . S
C3535 C3534 1.389 . S
C3535 C3536 1.387 . S
C3536 H3521 0.930 . S
C3536 C3531 1.390 . S
C3536 C3535 1.387 . S
H3537 C3549 0.930 . S
H3538 C3551 0.930 . S
H3539 C3552 0.930 . S
H3540 C3556 0.959 . S
H3541 C3556 0.959 . S
H3542 C3556 0.961 . S
H3543 C3557 0.960 . S
H3544 C3557 0.961 . S
H3545 C3557 0.959 . S
H3546 C3560 0.929 . S
H3547 C3561 0.931 . S
H3548 C3563 0.930 . S
C3549 H3537 0.930 . S
C3549 C3550 1.399 . S
C3549 C3554 1.399 . S
C3550 C3549 1.399 . S
C3550 C3551 1.376 . S
C3551 H3538 0.930 . S
C3551 C3550 1.376 . S
C3551 C3552 1.388 . S
C3552 H3539 0.930 . S
C3552 C3551 1.388 . S
C3552 C3553 1.390 . S
C3553 C3552 1.390 . S
C3553 C3554 1.394 . S
C3553 C3559 1.465 . S
C3554 C3549 1.399 . S
C3554 C3553 1.394 . S
C3554 C3555 1.516 . S
C3555 C3554 1.516 . S
C3555 C3556 1.502 . S
C3555 C3557 1.561 . S
C3555 C3558 1.526 . S
C3556 H3540 0.959 . S
C3556 H3541 0.959 . S
C3556 H3542 0.961 . S
C3556 C3555 1.502 . S
C3557 H3543 0.960 . S
C3557 H3544 0.961 . S
C3557 H3545 0.959 . S
C3557 C3555 1.561 . S
C3558 C3555 1.526 . S
C3558 C3559 1.396 . S
C3558 C3563 1.390 . S
C3559 C3553 1.465 . S
C3559 C3558 1.396 . S
C3559 C3560 1.399 . S
C3560 H3546 0.929 . S
C3560 C3559 1.399 . S
C3560 C3561 1.385 . S
C3561 H3547 0.931 . S
C3561 C3560 1.385 . S
C3561 C3562 1.389 . S
C3562 C3561 1.389 . S
C3562 C3563 1.387 . S
C3563 H3548 0.930 . S
C3563 C3558 1.390 . S
C3563 C3562 1.387 . S
H3564 C3576 0.930 . S
H3565 C3578 0.930 . S
H3566 C3579 0.930 . S
H3567 C3583 0.959 . S
H3568 C3583 0.959 . S
H3569 C3583 0.961 . S
H3570 C3584 0.960 . S
H3571 C3584 0.961 . S
H3572 C3584 0.959 . S
H3573 C3587 0.929 . S
H3574 C3588 0.931 . S
H3575 C3590 0.930 . S
C3576 H3564 0.930 . S
C3576 C3577 1.399 . S
C3576 C3581 1.399 . S
C3577 C3576 1.399 . S
C3577 C3578 1.376 . S
C3578 H3565 0.930 . S
C3578 C3577 1.376 . S
C3578 C3579 1.388 . S
C3579 H3566 0.930 . S
C3579 C3578 1.388 . S
C3579 C3580 1.390 . S
C3580 C3579 1.390 . S
C3580 C3581 1.394 . S
C3580 C3586 1.465 . S
C3581 C3576 1.399 . S
C3581 C3580 1.394 . S
C3581 C3582 1.516 . S
C3582 C3581 1.516 . S
C3582 C3583 1.502 . S
C3582 C3584 1.561 . S
C3582 C3585 1.526 . S
C3583 H3567 0.959 . S
C3583 H3568 0.959 . S
C3583 H3569 0.961 . S
C3583 C3582 1.502 . S
C3584 H3570 0.960 . S
C3584 H3571 0.961 . S
C3584 H3572 0.959 . S
C3584 C3582 1.561 . S
C3585 C3582 1.526 . S
C3585 C3586 1.396 . S
C3585 C3590 1.390 . S
C3586 C3580 1.465 . S
C3586 C3585 1.396 . S
C3586 C3587 1.399 . S
C3587 H3573 0.929 . S
C3587 C3586 1.399 . S
C3587 C3588 1.385 . S
C3588 H3574 0.931 . S
C3588 C3587 1.385 . S
C3588 C3589 1.389 . S
C3589 C3588 1.389 . S
C3589 C3590 1.387 . S
C3590 H3575 0.930 . S
C3590 C3585 1.390 . S
C3590 C3589 1.387 . S
H3591 C3603 0.930 . S
H3592 C3605 0.930 . S
H3593 C3606 0.930 . S
H3594 C3610 0.959 . S
H3595 C3610 0.959 . S
H3596 C3610 0.961 . S
H3597 C3611 0.960 . S
H3598 C3611 0.961 . S
H3599 C3611 0.959 . S
H3600 C3614 0.929 . S
H3601 C3615 0.931 . S
H3602 C3617 0.930 . S
C3603 H3591 0.930 . S
C3603 C3604 1.399 . S
C3603 C3608 1.399 . S
C3604 C3603 1.399 . S
C3604 C3605 1.376 . S
C3605 H3592 0.930 . S
C3605 C3604 1.376 . S
C3605 C3606 1.388 . S
C3606 H3593 0.930 . S
C3606 C3605 1.388 . S
C3606 C3607 1.390 . S
C3607 C3606 1.390 . S
C3607 C3608 1.394 . S
C3607 C3613 1.465 . S
C3608 C3603 1.399 . S
C3608 C3607 1.394 . S
C3608 C3609 1.516 . S
C3609 C3608 1.516 . S
C3609 C3610 1.502 . S
C3609 C3611 1.561 . S
C3609 C3612 1.526 . S
C3610 H3594 0.959 . S
C3610 H3595 0.959 . S
C3610 H3596 0.961 . S
C3610 C3609 1.502 . S
C3611 H3597 0.960 . S
C3611 H3598 0.961 . S
C3611 H3599 0.959 . S
C3611 C3609 1.561 . S
C3612 C3609 1.526 . S
C3612 C3613 1.396 . S
C3612 C3617 1.390 . S
C3613 C3607 1.465 . S
C3613 C3612 1.396 . S
C3613 C3614 1.399 . S
C3614 H3600 0.929 . S
C3614 C3613 1.399 . S
C3614 C3615 1.385 . S
C3615 H3601 0.931 . S
C3615 C3614 1.385 . S
C3615 C3616 1.389 . S
C3616 C3615 1.389 . S
C3616 C3617 1.387 . S
C3617 H3602 0.930 . S
C3617 C3612 1.390 . S
C3617 C3616 1.387 . S
H3618 C3630 0.930 . S
H3619 C3632 0.930 . S
H3620 C3633 0.930 . S
H3621 C3637 0.959 . S
H3622 C3637 0.959 . S
H3623 C3637 0.961 . S
H3624 C3638 0.960 . S
H3625 C3638 0.961 . S
H3626 C3638 0.959 . S
H3627 C3641 0.929 . S
H3628 C3642 0.931 . S
H3629 C3644 0.930 . S
C3630 H3618 0.930 . S
C3630 C3631 1.399 . S
C3630 C3635 1.399 . S
C3631 C3630 1.399 . S
C3631 C3632 1.376 . S
C3632 H3619 0.930 . S
C3632 C3631 1.376 . S
C3632 C3633 1.388 . S
C3633 H3620 0.930 . S
C3633 C3632 1.388 . S
C3633 C3634 1.390 . S
C3634 C3633 1.390 . S
C3634 C3635 1.394 . S
C3634 C3640 1.465 . S
C3635 C3630 1.399 . S
C3635 C3634 1.394 . S
C3635 C3636 1.516 . S
C3636 C3635 1.516 . S
C3636 C3637 1.502 . S
C3636 C3638 1.561 . S
C3636 C3639 1.526 . S
C3637 H3621 0.959 . S
C3637 H3622 0.959 . S
C3637 H3623 0.961 . S
C3637 C3636 1.502 . S
C3638 H3624 0.960 . S
C3638 H3625 0.961 . S
C3638 H3626 0.959 . S
C3638 C3636 1.561 . S
C3639 C3636 1.526 . S
C3639 C3640 1.396 . S
C3639 C3644 1.390 . S
C3640 C3634 1.465 . S
C3640 C3639 1.396 . S
C3640 C3641 1.399 . S
C3641 H3627 0.929 . S
C3641 C3640 1.399 . S
C3641 C3642 1.385 . S
C3642 H3628 0.931 . S
C3642 C3641 1.385 . S
C3642 C3643 1.389 . S
C3643 C3642 1.389 . S
C3643 C3644 1.387 . S
C3644 H3629 0.930 . S
C3644 C3639 1.390 . S
C3644 C3643 1.387 . S
H3645 C3657 0.930 . S
H3646 C3659 0.930 . S
H3647 C3660 0.930 . S
H3648 C3664 0.959 . S
H3649 C3664 0.959 . S
H3650 C3664 0.961 . S
H3651 C3665 0.960 . S
H3652 C3665 0.961 . S
H3653 C3665 0.959 . S
H3654 C3668 0.929 . S
H3655 C3669 0.931 . S
H3656 C3671 0.930 . S
C3657 H3645 0.930 . S
C3657 C3658 1.399 . S
C3657 C3662 1.399 . S
C3658 C3657 1.399 . S
C3658 C3659 1.376 . S
C3659 H3646 0.930 . S
C3659 C3658 1.376 . S
C3659 C3660 1.388 . S
C3660 H3647 0.930 . S
C3660 C3659 1.388 . S
C3660 C3661 1.390 . S
C3661 C3660 1.390 . S
C3661 C3662 1.394 . S
C3661 C3667 1.465 . S
C3662 C3657 1.399 . S
C3662 C3661 1.394 . S
C3662 C3663 1.516 . S
C3663 C3662 1.516 . S
C3663 C3664 1.502 . S
C3663 C3665 1.561 . S
C3663 C3666 1.526 . S
C3664 H3648 0.959 . S
C3664 H3649 0.959 . S
C3664 H3650 0.961 . S
C3664 C3663 1.502 . S
C3665 H3651 0.960 . S
C3665 H3652 0.961 . S
C3665 H3653 0.959 . S
C3665 C3663 1.561 . S
C3666 C3663 1.526 . S
C3666 C3667 1.396 . S
C3666 C3671 1.390 . S
C3667 C3661 1.465 . S
C3667 C3666 1.396 . S
C3667 C3668 1.399 . S
C3668 H3654 0.929 . S
C3668 C3667 1.399 . S
C3668 C3669 1.385 . S
C3669 H3655 0.931 . S
C3669 C3668 1.385 . S
C3669 C3670 1.389 . S
C3670 C3669 1.389 . S
C3670 C3671 1.387 . S
C3671 H3656 0.930 . S
C3671 C3666 1.390 . S
C3671 C3670 1.387 . S
H3672 C3684 0.930 . S
H3673 C3686 0.930 . S
H3674 C3687 0.930 . S
H3675 C3691 0.959 . S
H3676 C3691 0.959 . S
H3677 C3691 0.961 . S
H3678 C3692 0.960 . S
H3679 C3692 0.961 . S
H3680 C3692 0.959 . S
H3681 C3695 0.929 . S
H3682 C3696 0.931 . S
H3683 C3698 0.930 . S
C3684 H3672 0.930 . S
C3684 C3685 1.399 . S
C3684 C3689 1.399 . S
C3685 C3684 1.399 . S
C3685 C3686 1.376 . S
C3686 H3673 0.930 . S
C3686 C3685 1.376 . S
C3686 C3687 1.388 . S
C3687 H3674 0.930 . S
C3687 C3686 1.388 . S
C3687 C3688 1.390 . S
C3688 C3687 1.390 . S
C3688 C3689 1.394 . S
C3688 C3694 1.465 . S
C3689 C3684 1.399 . S
C3689 C3688 1.394 . S
C3689 C3690 1.516 . S
C3690 C3689 1.516 . S
C3690 C3691 1.502 . S
C3690 C3692 1.561 . S
C3690 C3693 1.526 . S
C3691 H3675 0.959 . S
C3691 H3676 0.959 . S
C3691 H3677 0.961 . S
C3691 C3690 1.502 . S
C3692 H3678 0.960 . S
C3692 H3679 0.961 . S
C3692 H3680 0.959 . S
C3692 C3690 1.561 . S
C3693 C3690 1.526 . S
C3693 C3694 1.396 . S
C3693 C3698 1.390 . S
C3694 C3688 1.465 . S
C3694 C3693 1.396 . S
C3694 C3695 1.399 . S
C3695 H3681 0.929 . S
C3695 C3694 1.399 . S
C3695 C3696 1.385 . S
C3696 H3682 0.931 . S
C3696 C3695 1.385 . S
C3696 C3697 1.389 . S
C3697 C3696 1.389 . S
C3697 C3698 1.387 . S
C3698 H3683 0.930 . S
C3698 C3693 1.390 . S
C3698 C3697 1.387 . S
H3699 C3711 0.930 . S
H3700 C3713 0.930 . S
H3701 C3714 0.930 . S
H3702 C3718 0.959 . S
H3703 C3718 0.959 . S
H3704 C3718 0.961 . S
H3705 C3719 0.960 . S
H3706 C3719 0.961 . S
H3707 C3719 0.959 . S
H3708 C3722 0.929 . S
H3709 C3723 0.931 . S
H3710 C3725 0.930 . S
C3711 H3699 0.930 . S
C3711 C3712 1.399 . S
C3711 C3716 1.399 . S
C3712 C3711 1.399 . S
C3712 C3713 1.376 . S
C3713 H3700 0.930 . S
C3713 C3712 1.376 . S
C3713 C3714 1.388 . S
C3714 H3701 0.930 . S
C3714 C3713 1.388 . S
C3714 C3715 1.390 . S
C3715 C3714 1.390 . S
C3715 C3716 1.394 . S
C3715 C3721 1.465 . S
C3716 C3711 1.399 . S
C3716 C3715 1.394 . S
C3716 C3717 1.516 . S
C3717 C3716 1.516 . S
C3717 C3718 1.502 . S
C3717 C3719 1.561 . S
C3717 C3720 1.526 . S
C3718 H3702 0.959 . S
C3718 H3703 0.959 . S
C3718 H3704 0.961 . S
C3718 C3717 1.502 . S
C3719 H3705 0.960 . S
C3719 H3706 0.961 . S
C3719 H3707 0.959 . S
C3719 C3717 1.561 . S
C3720 C3717 1.526 . S
C3720 C3721 1.396 . S
C3720 C3725 1.390 . S
C3721 C3715 1.465 . S
C3721 C3720 1.396 . S
C3721 C3722 1.399 . S
C3722 H3708 0.929 . S
C3722 C3721 1.399 . S
C3722 C3723 1.385 . S
C3723 H3709 0.931 . S
C3723 C3722 1.385 . S
C3723 C3724 1.389 . S
C3724 C3723 1.389 . S
C3724 C3725 1.387 . S
C3725 H3710 0.930 . S
C3725 C3720 1.390 . S
C3725 C3724 1.387 . S
H3726 C3738 0.930 . S
H3727 C3740 0.930 . S
H3728 C3741 0.930 . S
H3729 C3745 0.959 . S
H3730 C3745 0.959 . S
H3731 C3745 0.961 . S
H3732 C3746 0.960 . S
H3733 C3746 0.961 . S
H3734 C3746 0.959 . S
H3735 C3749 0.929 . S
H3736 C3750 0.931 . S
H3737 C3752 0.930 . S
C3738 H3726 0.930 . S
C3738 C3739 1.399 . S
C3738 C3743 1.399 . S
C3739 C3738 1.399 . S
C3739 C3740 1.376 . S
C3740 H3727 0.930 . S
C3740 C3739 1.376 . S
C3740 C3741 1.388 . S
C3741 H3728 0.930 . S
C3741 C3740 1.388 . S
C3741 C3742 1.390 . S
C3742 C3741 1.390 . S
C3742 C3743 1.394 . S
C3742 C3748 1.465 . S
C3743 C3738 1.399 . S
C3743 C3742 1.394 . S
C3743 C3744 1.516 . S
C3744 C3743 1.516 . S
C3744 C3745 1.502 . S
C3744 C3746 1.561 . S
C3744 C3747 1.526 . S
C3745 H3729 0.959 . S
C3745 H3730 0.959 . S
C3745 H3731 0.961 . S
C3745 C3744 1.502 . S
C3746 H3732 0.960 . S
C3746 H3733 0.961 . S
C3746 H3734 0.959 . S
C3746 C3744 1.561 . S
C3747 C3744 1.526 . S
C3747 C3748 1.396 . S
C3747 C3752 1.390 . S
C3748 C3742 1.465 . S
C3748 C3747 1.396 . S
C3748 C3749 1.399 . S
C3749 H3735 0.929 . S
C3749 C3748 1.399 . S
C3749 C3750 1.385 . S
C3750 H3736 0.931 . S
C3750 C3749 1.385 . S
C3750 C3751 1.389 . S
C3751 C3750 1.389 . S
C3751 C3752 1.387 . S
C3752 H3737 0.930 . S
C3752 C3747 1.390 . S
C3752 C3751 1.387 . S
H3753 C3765 0.930 . S
H3754 C3767 0.930 1_554 S
H3755 C3768 0.930 . S
H3756 C3772 0.959 . S
H3757 C3772 0.959 . S
H3758 C3772 0.961 . S
H3759 C3773 0.960 . S
H3760 C3773 0.961 . S
H3761 C3773 0.959 . S
H3762 C3776 0.929 . S
H3763 C3777 0.931 . S
H3764 C3779 0.930 . S
C3765 H3753 0.930 . S
C3765 C3766 1.399 . S
C3765 C3770 1.399 . S
C3766 C3765 1.399 . S
C3766 C3767 1.376 . S
C3767 H3754 0.930 1_556 S
C3767 C3766 1.376 . S
C3767 C3768 1.388 . S
C3768 H3755 0.930 . S
C3768 C3767 1.388 . S
C3768 C3769 1.390 . S
C3769 C3768 1.390 . S
C3769 C3770 1.394 . S
C3769 C3775 1.465 . S
C3770 C3765 1.399 . S
C3770 C3769 1.394 . S
C3770 C3771 1.516 . S
C3771 C3770 1.516 . S
C3771 C3772 1.502 . S
C3771 C3773 1.561 . S
C3771 C3774 1.526 . S
C3772 H3756 0.959 . S
C3772 H3757 0.959 . S
C3772 H3758 0.961 . S
C3772 C3771 1.502 . S
C3773 H3759 0.960 . S
C3773 H3760 0.961 . S
C3773 H3761 0.959 . S
C3773 C3771 1.561 . S
C3774 C3771 1.526 . S
C3774 C3775 1.396 . S
C3774 C3779 1.390 . S
C3775 C3769 1.465 . S
C3775 C3774 1.396 . S
C3775 C3776 1.399 . S
C3776 H3762 0.929 . S
C3776 C3775 1.399 . S
C3776 C3777 1.385 . S
C3777 H3763 0.931 . S
C3777 C3776 1.385 . S
C3777 C3778 1.389 . S
C3778 C3777 1.389 . S
C3778 C3779 1.387 . S
C3779 H3764 0.930 . S
C3779 C3774 1.390 . S
C3779 C3778 1.387 . S
H3780 C3792 0.930 . S
H3781 C3794 0.930 . S
H3782 C3795 0.930 . S
H3783 C3799 0.959 . S
H3784 C3799 0.959 . S
H3785 C3799 0.961 . S
H3786 C3800 0.960 . S
H3787 C3800 0.961 . S
H3788 C3800 0.959 . S
H3789 C3803 0.929 . S
H3790 C3804 0.931 . S
H3791 C3806 0.930 . S
C3792 H3780 0.930 . S
C3792 C3793 1.399 . S
C3792 C3797 1.399 . S
C3793 C3792 1.399 . S
C3793 C3794 1.376 . S
C3794 H3781 0.930 . S
C3794 C3793 1.376 . S
C3794 C3795 1.388 . S
C3795 H3782 0.930 . S
C3795 C3794 1.388 . S
C3795 C3796 1.390 . S
C3796 C3795 1.390 . S
C3796 C3797 1.394 . S
C3796 C3802 1.465 . S
C3797 C3792 1.399 . S
C3797 C3796 1.394 . S
C3797 C3798 1.516 . S
C3798 C3797 1.516 . S
C3798 C3799 1.502 . S
C3798 C3800 1.561 . S
C3798 C3801 1.526 . S
C3799 H3783 0.959 . S
C3799 H3784 0.959 . S
C3799 H3785 0.961 . S
C3799 C3798 1.502 . S
C3800 H3786 0.960 . S
C3800 H3787 0.961 . S
C3800 H3788 0.959 . S
C3800 C3798 1.561 . S
C3801 C3798 1.526 . S
C3801 C3802 1.396 . S
C3801 C3806 1.390 . S
C3802 C3796 1.465 . S
C3802 C3801 1.396 . S
C3802 C3803 1.399 . S
C3803 H3789 0.929 . S
C3803 C3802 1.399 . S
C3803 C3804 1.385 . S
C3804 H3790 0.931 . S
C3804 C3803 1.385 . S
C3804 C3805 1.389 . S
C3805 C3804 1.389 . S
C3805 C3806 1.387 . S
C3806 H3791 0.930 . S
C3806 C3801 1.390 . S
C3806 C3805 1.387 . S
H3807 C3819 0.930 . S
H3808 C3821 0.930 . S
H3809 C3822 0.930 . S
H3810 C3826 0.959 . S
H3811 C3826 0.959 . S
H3812 C3826 0.961 . S
H3813 C3827 0.960 . S
H3814 C3827 0.961 . S
H3815 C3827 0.959 . S
H3816 C3830 0.929 . S
H3817 C3831 0.931 . S
H3818 C3833 0.930 . S
C3819 H3807 0.930 . S
C3819 C3820 1.399 . S
C3819 C3824 1.399 . S
C3820 C3819 1.399 . S
C3820 C3821 1.376 . S
C3821 H3808 0.930 . S
C3821 C3820 1.376 . S
C3821 C3822 1.388 . S
C3822 H3809 0.930 . S
C3822 C3821 1.388 . S
C3822 C3823 1.390 . S
C3823 C3822 1.390 . S
C3823 C3824 1.394 . S
C3823 C3829 1.465 . S
C3824 C3819 1.399 . S
C3824 C3823 1.394 . S
C3824 C3825 1.516 . S
C3825 C3824 1.516 . S
C3825 C3826 1.502 . S
C3825 C3827 1.561 . S
C3825 C3828 1.526 . S
C3826 H3810 0.959 . S
C3826 H3811 0.959 . S
C3826 H3812 0.961 . S
C3826 C3825 1.502 . S
C3827 H3813 0.960 . S
C3827 H3814 0.961 . S
C3827 H3815 0.959 . S
C3827 C3825 1.561 . S
C3828 C3825 1.526 . S
C3828 C3829 1.396 . S
C3828 C3833 1.390 . S
C3829 C3823 1.465 . S
C3829 C3828 1.396 . S
C3829 C3830 1.399 . S
C3830 H3816 0.929 . S
C3830 C3829 1.399 . S
C3830 C3831 1.385 . S
C3831 H3817 0.931 . S
C3831 C3830 1.385 . S
C3831 C3832 1.389 . S
C3832 C3831 1.389 . S
C3832 C3833 1.387 . S
C3833 H3818 0.930 . S
C3833 C3828 1.390 . S
C3833 C3832 1.387 . S
H3834 C3846 0.930 . S
H3835 C3848 0.930 . S
H3836 C3849 0.930 . S
H3837 C3853 0.959 . S
H3838 C3853 0.959 . S
H3839 C3853 0.961 . S
H3840 C3854 0.960 . S
H3841 C3854 0.961 . S
H3842 C3854 0.959 . S
H3843 C3857 0.929 . S
H3844 C3858 0.931 . S
H3845 C3860 0.930 . S
C3846 H3834 0.930 . S
C3846 C3847 1.399 . S
C3846 C3851 1.399 . S
C3847 C3846 1.399 . S
C3847 C3848 1.376 . S
C3848 H3835 0.930 . S
C3848 C3847 1.376 . S
C3848 C3849 1.388 . S
C3849 H3836 0.930 . S
C3849 C3848 1.388 . S
C3849 C3850 1.390 . S
C3850 C3849 1.390 . S
C3850 C3851 1.394 . S
C3850 C3856 1.465 . S
C3851 C3846 1.399 . S
C3851 C3850 1.394 . S
C3851 C3852 1.516 . S
C3852 C3851 1.516 . S
C3852 C3853 1.502 . S
C3852 C3854 1.561 . S
C3852 C3855 1.526 . S
C3853 H3837 0.959 . S
C3853 H3838 0.959 . S
C3853 H3839 0.961 . S
C3853 C3852 1.502 . S
C3854 H3840 0.960 . S
C3854 H3841 0.961 . S
C3854 H3842 0.959 . S
C3854 C3852 1.561 . S
C3855 C3852 1.526 . S
C3855 C3856 1.396 . S
C3855 C3860 1.390 . S
C3856 C3850 1.465 . S
C3856 C3855 1.396 . S
C3856 C3857 1.399 . S
C3857 H3843 0.929 . S
C3857 C3856 1.399 . S
C3857 C3858 1.385 . S
C3858 H3844 0.931 . S
C3858 C3857 1.385 . S
C3858 C3859 1.389 . S
C3859 C3858 1.389 . S
C3859 C3860 1.387 . S
C3860 H3845 0.930 . S
C3860 C3855 1.390 . S
C3860 C3859 1.387 . S
H3861 C3873 0.930 . S
H3862 C3875 0.930 . S
H3863 C3876 0.930 . S
H3864 C3880 0.959 . S
H3865 C3880 0.959 . S
H3866 C3880 0.961 . S
H3867 C3881 0.960 . S
H3868 C3881 0.961 . S
H3869 C3881 0.959 . S
H3870 C3884 0.929 . S
H3871 C3885 0.931 . S
H3872 C3887 0.930 . S
C3873 H3861 0.930 . S
C3873 C3874 1.399 . S
C3873 C3878 1.399 . S
C3874 C3873 1.399 . S
C3874 C3875 1.376 . S
C3875 H3862 0.930 . S
C3875 C3874 1.376 . S
C3875 C3876 1.388 . S
C3876 H3863 0.930 . S
C3876 C3875 1.388 . S
C3876 C3877 1.390 . S
C3877 C3876 1.390 . S
C3877 C3878 1.394 . S
C3877 C3883 1.465 . S
C3878 C3873 1.399 . S
C3878 C3877 1.394 . S
C3878 C3879 1.516 . S
C3879 C3878 1.516 . S
C3879 C3880 1.502 . S
C3879 C3881 1.561 . S
C3879 C3882 1.526 . S
C3880 H3864 0.959 . S
C3880 H3865 0.959 . S
C3880 H3866 0.961 . S
C3880 C3879 1.502 . S
C3881 H3867 0.960 . S
C3881 H3868 0.961 . S
C3881 H3869 0.959 . S
C3881 C3879 1.561 . S
C3882 C3879 1.526 . S
C3882 C3883 1.396 . S
C3882 C3887 1.390 . S
C3883 C3877 1.465 . S
C3883 C3882 1.396 . S
C3883 C3884 1.399 . S
C3884 H3870 0.929 . S
C3884 C3883 1.399 . S
C3884 C3885 1.385 . S
C3885 H3871 0.931 . S
C3885 C3884 1.385 . S
C3885 C3886 1.389 . S
C3886 C3885 1.389 . S
C3886 C3887 1.387 . S
C3887 H3872 0.930 . S
C3887 C3882 1.390 . S
C3887 C3886 1.387 . S
H3888 C3900 0.953 . S
H3889 C3902 0.930 . S
H3890 C3903 0.930 . S
H3891 C3907 0.959 . S
H3892 C3907 0.959 . S
H3893 C3907 0.961 1_554 S
H3894 C3908 0.960 . S
H3895 C3908 0.961 . S
H3896 C3908 0.959 . S
H3897 C3911 0.929 . S
H3898 C3912 0.931 . S
H3899 C3914 0.930 . S
C3900 H3888 0.953 . S
C3900 C3901 1.399 . S
C3900 C3905 1.399 . S
C3901 C3900 1.399 . S
C3901 C3902 1.376 . S
C3902 H3889 0.930 . S
C3902 C3901 1.376 . S
C3902 C3903 1.388 . S
C3903 H3890 0.930 . S
C3903 C3902 1.388 . S
C3903 C3904 1.390 . S
C3904 C3903 1.390 . S
C3904 C3905 1.394 . S
C3904 C3910 1.465 . S
C3905 C3900 1.399 . S
C3905 C3904 1.394 . S
C3905 C3906 1.516 . S
C3906 C3905 1.516 . S
C3906 C3907 1.502 . S
C3906 C3908 1.561 . S
C3906 C3909 1.526 . S
C3907 H3891 0.959 . S
C3907 H3892 0.959 . S
C3907 H3893 0.961 1_556 S
C3907 C3906 1.502 . S
C3908 H3894 0.960 . S
C3908 H3895 0.961 . S
C3908 H3896 0.959 . S
C3908 C3906 1.561 . S
C3909 C3906 1.526 . S
C3909 C3910 1.396 . S
C3909 C3914 1.390 . S
C3910 C3904 1.465 . S
C3910 C3909 1.396 . S
C3910 C3911 1.399 . S
C3911 H3897 0.929 . S
C3911 C3910 1.399 . S
C3911 C3912 1.385 . S
C3912 H3898 0.931 . S
C3912 C3911 1.385 . S
C3912 C3913 1.389 . S
C3913 C3912 1.389 . S
C3913 C3914 1.387 . S
C3914 H3899 0.930 . S
C3914 C3909 1.390 . S
C3914 C3913 1.387 . S
H3915 C3927 0.930 . S
H3916 C3929 0.930 . S
H3917 C3930 0.930 . S
H3918 C3934 0.959 . S
H3919 C3934 0.959 . S
H3920 C3934 0.961 . S
H3921 C3935 0.960 . S
H3922 C3935 0.961 . S
H3923 C3935 0.959 . S
H3924 C3938 0.929 . S
H3925 C3939 0.931 . S
H3926 C3941 0.930 . S
C3927 H3915 0.930 . S
C3927 C3928 1.399 . S
C3927 C3932 1.399 . S
C3928 C3927 1.399 . S
C3928 C3929 1.376 . S
C3929 H3916 0.930 . S
C3929 C3928 1.376 . S
C3929 C3930 1.388 . S
C3930 H3917 0.930 . S
C3930 C3929 1.388 . S
C3930 C3931 1.390 . S
C3931 C3930 1.390 . S
C3931 C3932 1.394 . S
C3931 C3937 1.465 . S
C3932 C3927 1.399 . S
C3932 C3931 1.394 . S
C3932 C3933 1.516 . S
C3933 C3932 1.516 . S
C3933 C3934 1.502 . S
C3933 C3935 1.561 . S
C3933 C3936 1.526 . S
C3934 H3918 0.959 . S
C3934 H3919 0.959 . S
C3934 H3920 0.961 . S
C3934 C3933 1.502 . S
C3935 H3921 0.960 . S
C3935 H3922 0.961 . S
C3935 H3923 0.959 . S
C3935 C3933 1.561 . S
C3936 C3933 1.526 . S
C3936 C3937 1.396 . S
C3936 C3941 1.390 . S
C3937 C3931 1.465 . S
C3937 C3936 1.396 . S
C3937 C3938 1.399 . S
C3938 H3924 0.929 . S
C3938 C3937 1.399 . S
C3938 C3939 1.385 . S
C3939 H3925 0.931 . S
C3939 C3938 1.385 . S
C3939 C3940 1.389 . S
C3940 C3939 1.389 . S
C3940 C3941 1.387 . S
C3941 H3926 0.930 . S
C3941 C3936 1.390 . S
C3941 C3940 1.387 . S
H3942 C3954 0.930 . S
H3943 C3956 0.930 . S
H3944 C3957 0.930 . S
H3945 C3961 0.959 . S
H3946 C3961 0.959 . S
H3947 C3961 0.961 . S
H3948 C3962 0.960 . S
H3949 C3962 0.961 . S
H3950 C3962 0.959 . S
H3951 C3965 0.929 . S
H3952 C3966 0.931 . S
H3953 C3968 0.930 . S
C3954 H3942 0.930 . S
C3954 C3955 1.399 . S
C3954 C3959 1.399 . S
C3955 C3954 1.399 . S
C3955 C3956 1.376 . S
C3956 H3943 0.930 . S
C3956 C3955 1.376 . S
C3956 C3957 1.388 . S
C3957 H3944 0.930 . S
C3957 C3956 1.388 . S
C3957 C3958 1.390 . S
C3958 C3957 1.390 . S
C3958 C3959 1.394 . S
C3958 C3964 1.465 . S
C3959 C3954 1.399 . S
C3959 C3958 1.394 . S
C3959 C3960 1.516 . S
C3960 C3959 1.516 . S
C3960 C3961 1.502 . S
C3960 C3962 1.561 . S
C3960 C3963 1.526 . S
C3961 H3945 0.959 . S
C3961 H3946 0.959 . S
C3961 H3947 0.961 . S
C3961 C3960 1.502 . S
C3962 H3948 0.960 . S
C3962 H3949 0.961 . S
C3962 H3950 0.959 . S
C3962 C3960 1.561 . S
C3963 C3960 1.526 . S
C3963 C3964 1.396 . S
C3963 C3968 1.390 . S
C3964 C3958 1.465 . S
C3964 C3963 1.396 . S
C3964 C3965 1.399 . S
C3965 H3951 0.929 . S
C3965 C3964 1.399 . S
C3965 C3966 1.385 . S
C3966 H3952 0.931 . S
C3966 C3965 1.385 . S
C3966 C3967 1.389 . S
C3967 C3966 1.389 . S
C3967 C3968 1.387 . S
C3968 H3953 0.930 . S
C3968 C3963 1.390 . S
C3968 C3967 1.387 . S
H3969 C3981 0.930 . S
H3970 C3983 0.930 . S
H3971 C3984 0.930 . S
H3972 C3988 0.959 . S
H3973 C3988 0.959 . S
H3974 C3988 0.961 . S
H3975 C3989 0.960 . S
H3976 C3989 0.961 . S
H3977 C3989 0.959 . S
H3978 C3992 0.929 . S
H3979 C3993 0.931 . S
H3980 C3995 0.930 . S
C3981 H3969 0.930 . S
C3981 C3982 1.399 . S
C3981 C3986 1.399 . S
C3982 C3981 1.399 . S
C3982 C3983 1.376 . S
C3983 H3970 0.930 . S
C3983 C3982 1.376 . S
C3983 C3984 1.388 . S
C3984 H3971 0.930 . S
C3984 C3983 1.388 . S
C3984 C3985 1.390 . S
C3985 C3984 1.390 . S
C3985 C3986 1.394 . S
C3985 C3991 1.465 . S
C3986 C3981 1.399 . S
C3986 C3985 1.394 . S
C3986 C3987 1.516 . S
C3987 C3986 1.516 . S
C3987 C3988 1.502 . S
C3987 C3989 1.561 . S
C3987 C3990 1.526 . S
C3988 H3972 0.959 . S
C3988 H3973 0.959 . S
C3988 H3974 0.961 . S
C3988 C3987 1.502 . S
C3989 H3975 0.960 . S
C3989 H3976 0.961 . S
C3989 H3977 0.959 . S
C3989 C3987 1.561 . S
C3990 C3987 1.526 . S
C3990 C3991 1.396 . S
C3990 C3995 1.390 . S
C3991 C3985 1.465 . S
C3991 C3990 1.396 . S
C3991 C3992 1.399 . S
C3992 H3978 0.929 . S
C3992 C3991 1.399 . S
C3992 C3993 1.385 . S
C3993 H3979 0.931 . S
C3993 C3992 1.385 . S
C3993 C3994 1.389 . S
C3994 C3993 1.389 . S
C3994 C3995 1.387 . S
C3995 H3980 0.930 . S
C3995 C3990 1.390 . S
C3995 C3994 1.387 . S
H3996 C4008 0.930 . S
H3997 C4010 0.930 . S
H3998 C4011 0.930 . S
H3999 C4015 0.959 . S
H4000 C4015 0.959 . S
H4001 C4015 0.961 . S
H4002 C4016 0.960 . S
H4003 C4016 0.961 . S
H4004 C4016 0.959 . S
H4005 C4019 0.929 . S
H4006 C4020 0.931 . S
H4007 C4022 0.930 . S
C4008 H3996 0.930 . S
C4008 C4009 1.399 . S
C4008 C4013 1.399 . S
C4009 C4008 1.399 . S
C4009 C4010 1.376 . S
C4010 H3997 0.930 . S
C4010 C4009 1.376 . S
C4010 C4011 1.388 . S
C4011 H3998 0.930 . S
C4011 C4010 1.388 . S
C4011 C4012 1.390 . S
C4012 C4011 1.390 . S
C4012 C4013 1.394 . S
C4012 C4018 1.465 . S
C4013 C4008 1.399 . S
C4013 C4012 1.394 . S
C4013 C4014 1.516 . S
C4014 C4013 1.516 . S
C4014 C4015 1.502 . S
C4014 C4016 1.561 . S
C4014 C4017 1.526 . S
C4015 H3999 0.959 . S
C4015 H4000 0.959 . S
C4015 H4001 0.961 . S
C4015 C4014 1.502 . S
C4016 H4002 0.960 . S
C4016 H4003 0.961 . S
C4016 H4004 0.959 . S
C4016 C4014 1.561 . S
C4017 C4014 1.526 . S
C4017 C4018 1.396 . S
C4017 C4022 1.390 . S
C4018 C4012 1.465 . S
C4018 C4017 1.396 . S
C4018 C4019 1.399 . S
C4019 H4005 0.929 . S
C4019 C4018 1.399 . S
C4019 C4020 1.385 . S
C4020 H4006 0.931 . S
C4020 C4019 1.385 . S
C4020 C4021 1.389 . S
C4021 C4020 1.389 . S
C4021 C4022 1.387 . S
C4022 H4007 0.930 . S
C4022 C4017 1.390 . S
C4022 C4021 1.387 . S
H4023 C4035 0.930 . S
H4024 C4037 0.930 . S
H4025 C4038 0.930 . S
H4026 C4042 0.959 . S
H4027 C4042 0.959 . S
H4028 C4042 0.961 . S
H4029 C4043 0.960 . S
H4030 C4043 0.961 . S
H4031 C4043 0.959 . S
H4032 C4046 0.929 . S
H4033 C4047 0.931 . S
H4034 C4049 0.930 . S
C4035 H4023 0.930 . S
C4035 C4036 1.399 . S
C4035 C4040 1.399 . S
C4036 C4035 1.399 . S
C4036 C4037 1.376 . S
C4037 H4024 0.930 . S
C4037 C4036 1.376 . S
C4037 C4038 1.388 . S
C4038 H4025 0.930 . S
C4038 C4037 1.388 . S
C4038 C4039 1.390 . S
C4039 C4038 1.390 . S
C4039 C4040 1.394 . S
C4039 C4045 1.465 . S
C4040 C4035 1.399 . S
C4040 C4039 1.394 . S
C4040 C4041 1.516 . S
C4041 C4040 1.516 . S
C4041 C4042 1.502 . S
C4041 C4043 1.561 . S
C4041 C4044 1.526 . S
C4042 H4026 0.959 . S
C4042 H4027 0.959 . S
C4042 H4028 0.961 . S
C4042 C4041 1.502 . S
C4043 H4029 0.960 . S
C4043 H4030 0.961 . S
C4043 H4031 0.959 . S
C4043 C4041 1.561 . S
C4044 C4041 1.526 . S
C4044 C4045 1.396 . S
C4044 C4049 1.390 . S
C4045 C4039 1.465 . S
C4045 C4044 1.396 . S
C4045 C4046 1.399 . S
C4046 H4032 0.929 . S
C4046 C4045 1.399 . S
C4046 C4047 1.385 . S
C4047 H4033 0.931 . S
C4047 C4046 1.385 . S
C4047 C4048 1.389 . S
C4048 C4047 1.389 . S
C4048 C4049 1.387 . S
C4049 H4034 0.930 . S
C4049 C4044 1.390 . S
C4049 C4048 1.387 . S
H4050 C4062 0.930 . S
H4051 C4064 0.930 . S
H4052 C4065 0.930 . S
H4053 C4069 0.959 . S
H4054 C4069 0.959 . S
H4055 C4069 0.961 . S
H4056 C4070 0.960 . S
H4057 C4070 0.961 . S
H4058 C4070 0.959 . S
H4059 C4073 0.929 . S
H4060 C4074 0.931 . S
H4061 C4076 0.930 . S
C4062 H4050 0.930 . S
C4062 C4063 1.399 . S
C4062 C4067 1.399 . S
C4063 C4062 1.399 . S
C4063 C4064 1.376 . S
C4064 H4051 0.930 . S
C4064 C4063 1.376 . S
C4064 C4065 1.388 . S
C4065 H4052 0.930 . S
C4065 C4064 1.388 . S
C4065 C4066 1.390 . S
C4066 C4065 1.390 . S
C4066 C4067 1.394 . S
C4066 C4072 1.465 . S
C4067 C4062 1.399 . S
C4067 C4066 1.394 . S
C4067 C4068 1.516 . S
C4068 C4067 1.516 . S
C4068 C4069 1.502 . S
C4068 C4070 1.561 . S
C4068 C4071 1.526 . S
C4069 H4053 0.959 . S
C4069 H4054 0.959 . S
C4069 H4055 0.961 . S
C4069 C4068 1.502 . S
C4070 H4056 0.960 . S
C4070 H4057 0.961 . S
C4070 H4058 0.959 . S
C4070 C4068 1.561 . S
C4071 C4068 1.526 . S
C4071 C4072 1.396 . S
C4071 C4076 1.390 . S
C4072 C4066 1.465 . S
C4072 C4071 1.396 . S
C4072 C4073 1.399 . S
C4073 H4059 0.929 . S
C4073 C4072 1.399 . S
C4073 C4074 1.385 . S
C4074 H4060 0.931 . S
C4074 C4073 1.385 . S
C4074 C4075 1.389 . S
C4075 C4074 1.389 . S
C4075 C4076 1.387 . S
C4076 H4061 0.930 . S
C4076 C4071 1.390 . S
C4076 C4075 1.387 . S
H4077 C4089 0.930 . S
H4078 C4091 0.930 . S
H4079 C4092 0.930 . S
H4080 C4096 0.959 . S
H4081 C4096 0.926 . S
H4082 C4096 0.961 . S
H4083 C4097 0.960 . S
H4084 C4097 0.961 . S
H4085 C4097 0.959 . S
H4086 C4100 0.929 . S
H4087 C4101 0.931 . S
H4088 C4103 0.930 . S
C4089 H4077 0.930 . S
C4089 C4090 1.399 . S
C4089 C4094 1.399 . S
C4090 C4089 1.399 . S
C4090 C4091 1.376 . S
C4091 H4078 0.930 . S
C4091 C4090 1.376 . S
C4091 C4092 1.388 . S
C4092 H4079 0.930 . S
C4092 C4091 1.388 . S
C4092 C4093 1.390 . S
C4093 C4092 1.390 . S
C4093 C4094 1.394 . S
C4093 C4099 1.465 . S
C4094 C4089 1.399 . S
C4094 C4093 1.394 . S
C4094 C4095 1.516 . S
C4095 C4094 1.516 . S
C4095 C4096 1.502 1_455 S
C4095 C4097 1.561 . S
C4095 C4098 1.526 . S
C4096 H4080 0.959 . S
C4096 H4081 0.926 . S
C4096 H4082 0.961 . S
C4096 C4095 1.502 1_655 S
C4097 H4083 0.960 . S
C4097 H4084 0.961 . S
C4097 H4085 0.959 . S
C4097 C4095 1.561 . S
C4098 C4095 1.526 . S
C4098 C4099 1.396 . S
C4098 C4103 1.390 . S
C4099 C4093 1.465 . S
C4099 C4098 1.396 . S
C4099 C4100 1.399 . S
C4100 H4086 0.929 . S
C4100 C4099 1.399 . S
C4100 C4101 1.385 . S
C4101 H4087 0.931 . S
C4101 C4100 1.385 . S
C4101 C4102 1.389 . S
C4102 C4101 1.389 . S
C4102 C4103 1.387 . S
C4103 H4088 0.930 . S
C4103 C4098 1.390 . S
C4103 C4102 1.387 . S
H4104 C4116 0.930 . S
H4105 C4118 0.930 . S
H4106 C4119 0.930 . S
H4107 C4123 0.959 . S
H4108 C4123 0.959 . S
H4109 C4123 0.961 . S
H4110 C4124 0.960 . S
H4111 C4124 0.961 . S
H4112 C4124 0.959 . S
H4113 C4127 0.929 . S
H4114 C4128 0.931 . S
H4115 C4130 0.930 . S
C4116 H4104 0.930 . S
C4116 C4117 1.399 . S
C4116 C4121 1.399 . S
C4117 C4116 1.399 . S
C4117 C4118 1.376 . S
C4118 H4105 0.930 . S
C4118 C4117 1.376 . S
C4118 C4119 1.388 . S
C4119 H4106 0.930 . S
C4119 C4118 1.388 . S
C4119 C4120 1.390 . S
C4120 C4119 1.390 . S
C4120 C4121 1.394 . S
C4120 C4126 1.465 . S
C4121 C4116 1.399 . S
C4121 C4120 1.394 . S
C4121 C4122 1.516 . S
C4122 C4121 1.516 . S
C4122 C4123 1.502 . S
C4122 C4124 1.561 . S
C4122 C4125 1.526 . S
C4123 H4107 0.959 . S
C4123 H4108 0.959 . S
C4123 H4109 0.961 . S
C4123 C4122 1.502 . S
C4124 H4110 0.960 . S
C4124 H4111 0.961 . S
C4124 H4112 0.959 . S
C4124 C4122 1.561 . S
C4125 C4122 1.526 . S
C4125 C4126 1.396 . S
C4125 C4130 1.390 . S
C4126 C4120 1.465 . S
C4126 C4125 1.396 . S
C4126 C4127 1.399 . S
C4127 H4113 0.929 . S
C4127 C4126 1.399 . S
C4127 C4128 1.385 . S
C4128 H4114 0.931 . S
C4128 C4127 1.385 . S
C4128 C4129 1.389 . S
C4129 C4128 1.389 . S
C4129 C4130 1.387 . S
C4130 H4115 0.930 . S
C4130 C4125 1.390 . S
C4130 C4129 1.387 . S
H4131 C4143 0.930 . S
H4132 C4145 0.930 . S
H4133 C4146 0.930 . S
H4134 C4150 0.959 . S
H4135 C4150 0.959 . S
H4136 C4150 0.961 . S
H4137 C4151 0.960 . S
H4138 C4151 0.961 . S
H4139 C4151 0.959 . S
H4140 C4154 0.929 . S
H4141 C4155 0.931 . S
H4142 C4157 0.930 . S
C4143 H4131 0.930 . S
C4143 C4144 1.399 . S
C4143 C4148 1.399 . S
C4144 C4143 1.399 . S
C4144 C4145 1.376 1_565 S
C4145 H4132 0.930 . S
C4145 C4144 1.376 1_545 S
C4145 C4146 1.388 . S
C4146 H4133 0.930 . S
C4146 C4145 1.388 . S
C4146 C4147 1.390 1_545 S
C4147 C4146 1.390 1_565 S
C4147 C4148 1.394 . S
C4147 C4153 1.465 . S
C4148 C4143 1.399 . S
C4148 C4147 1.394 . S
C4148 C4149 1.516 . S
C4149 C4148 1.516 . S
C4149 C4150 1.502 . S
C4149 C4151 1.561 . S
C4149 C4152 1.526 . S
C4150 H4134 0.959 . S
C4150 H4135 0.959 . S
C4150 H4136 0.961 . S
C4150 C4149 1.502 . S
C4151 H4137 0.960 . S
C4151 H4138 0.961 . S
C4151 H4139 0.959 . S
C4151 C4149 1.561 . S
C4152 C4149 1.526 . S
C4152 C4153 1.396 . S
C4152 C4157 1.390 . S
C4153 C4147 1.465 . S
C4153 C4152 1.396 . S
C4153 C4154 1.399 1_565 S
C4154 H4140 0.929 . S
C4154 C4153 1.399 1_545 S
C4154 C4155 1.385 . S
C4155 H4141 0.931 . S
C4155 C4154 1.385 . S
C4155 C4156 1.389 1_545 S
C4156 C4155 1.389 1_565 S
C4156 C4157 1.387 . S
C4157 H4142 0.930 . S
C4157 C4152 1.390 . S
C4157 C4156 1.387 . S
H4158 C4170 0.930 . S
H4159 C4172 0.930 . S
H4160 C4173 0.930 . S
H4161 C4177 0.959 . S
H4162 C4177 0.959 . S
H4163 C4177 0.961 . S
H4164 C4178 0.960 . S
H4165 C4178 0.961 . S
H4166 C4178 0.959 . S
H4167 C4181 0.929 . S
H4168 C4182 0.931 . S
H4169 C4184 0.930 . S
C4170 H4158 0.930 . S
C4170 C4171 1.399 . S
C4170 C4175 1.399 . S
C4171 C4170 1.399 . S
C4171 C4172 1.376 1_565 S
C4172 H4159 0.930 . S
C4172 C4171 1.376 1_545 S
C4172 C4173 1.388 . S
C4173 H4160 0.930 . S
C4173 C4172 1.388 . S
C4173 C4174 1.390 1_545 S
C4174 C4173 1.390 1_565 S
C4174 C4175 1.394 . S
C4174 C4180 1.431 1_565 S
C4175 C4170 1.399 . S
C4175 C4174 1.394 . S
C4175 C4176 1.516 . S
C4176 C4175 1.516 . S
C4176 C4177 1.502 . S
C4176 C4178 1.561 . S
C4176 C4179 1.526 . S
C4177 H4161 0.959 . S
C4177 H4162 0.959 . S
C4177 H4163 0.961 . S
C4177 C4176 1.502 . S
C4178 H4164 0.960 . S
C4178 H4165 0.961 . S
C4178 H4166 0.959 . S
C4178 C4176 1.561 . S
C4179 C4176 1.526 . S
C4179 C4180 1.354 1_565 S
C4179 C4184 1.390 . S
C4180 C4174 1.431 1_545 S
C4180 C4179 1.354 1_545 S
C4180 C4181 1.465 . S
C4181 H4167 0.929 . S
C4181 C4180 1.465 . S
C4181 C4182 1.385 . S
C4182 H4168 0.931 . S
C4182 C4181 1.385 . S
C4182 C4183 1.361 1_545 S
C4183 C4182 1.361 1_565 S
C4183 C4184 1.432 . S
C4184 H4169 0.930 . S
C4184 C4179 1.390 . S
C4184 C4183 1.432 . S
H4185 C4197 0.930 . S
H4186 C4199 0.878 1_655 S
H4187 C4200 0.930 . S
H4188 C4204 0.959 . S
H4189 C4204 0.959 . S
H4190 C4204 0.961 . S
H4191 C4205 0.960 . S
H4192 C4205 0.961 . S
H4193 C4205 0.959 1_655 S
H4194 C4208 0.929 . S
H4195 C4209 0.931 . S
H4196 C4211 0.930 . S
C4197 H4185 0.930 . S
C4197 C4198 1.399 . S
C4197 C4202 1.399 . S
C4198 C4197 1.399 . S
C4198 C4199 1.421 . S
C4199 H4186 0.878 1_455 S
C4199 C4198 1.421 . S
C4199 C4200 1.400 1_455 S
C4200 H4187 0.930 . S
C4200 C4199 1.400 1_655 S
C4200 C4201 1.390 1_655 S
C4201 C4200 1.390 1_455 S
C4201 C4202 1.394 . S
C4201 C4207 1.468 1_455 S
C4202 C4197 1.399 . S
C4202 C4201 1.394 . S
C4202 C4203 1.516 . S
C4203 C4202 1.516 . S
C4203 C4204 1.502 . S
C4203 C4205 1.561 . S
C4203 C4206 1.526 . S
C4204 H4188 0.959 . S
C4204 H4189 0.959 . S
C4204 H4190 0.961 . S
C4204 C4203 1.502 . S
C4205 H4191 0.960 . S
C4205 H4192 0.961 . S
C4205 H4193 0.959 1_455 S
C4205 C4203 1.561 . S
C4206 C4203 1.526 . S
C4206 C4207 1.388 1_455 S
C4206 C4211 1.390 . S
C4207 C4201 1.468 1_655 S
C4207 C4206 1.388 1_655 S
C4207 C4208 1.402 . S
C4208 H4194 0.929 . S
C4208 C4207 1.402 . S
C4208 C4209 1.385 . S
C4209 H4195 0.931 . S
C4209 C4208 1.385 . S
C4209 C4210 1.392 1_655 S
C4210 C4209 1.392 1_455 S
C4210 C4211 1.386 . S
C4211 H4196 0.930 . S
C4211 C4206 1.390 . S
C4211 C4210 1.386 . S
H4212 C4224 0.930 . S
H4213 C4226 0.930 . S
H4214 C4227 0.930 . S
H4215 C4231 0.959 . S
H4216 C4231 0.959 . S
H4217 C4231 0.961 . S
H4218 C4232 0.960 . S
H4219 C4232 0.961 . S
H4220 C4232 0.959 . S
H4221 C4235 0.929 . S
H4222 C4236 0.931 . S
H4223 C4238 0.930 . S
C4224 H4212 0.930 . S
C4224 C4225 1.399 . S
C4224 C4229 1.399 . S
C4225 C4224 1.399 . S
C4225 C4226 1.376 . S
C4226 H4213 0.930 . S
C4226 C4225 1.376 . S
C4226 C4227 1.388 . S
C4227 H4214 0.930 . S
C4227 C4226 1.388 . S
C4227 C4228 1.390 . S
C4228 C4227 1.390 . S
C4228 C4229 1.394 . S
C4228 C4234 1.465 . S
C4229 C4224 1.399 . S
C4229 C4228 1.394 . S
C4229 C4230 1.516 . S
C4230 C4229 1.516 . S
C4230 C4231 1.502 . S
C4230 C4232 1.561 . S
C4230 C4233 1.526 . S
C4231 H4215 0.959 . S
C4231 H4216 0.959 . S
C4231 H4217 0.961 . S
C4231 C4230 1.502 . S
C4232 H4218 0.960 . S
C4232 H4219 0.961 . S
C4232 H4220 0.959 . S
C4232 C4230 1.561 . S
C4233 C4230 1.526 . S
C4233 C4234 1.396 . S
C4233 C4238 1.390 . S
C4234 C4228 1.465 . S
C4234 C4233 1.396 . S
C4234 C4235 1.399 . S
C4235 H4221 0.929 . S
C4235 C4234 1.399 . S
C4235 C4236 1.385 . S
C4236 H4222 0.931 . S
C4236 C4235 1.385 . S
C4236 C4237 1.389 . S
C4237 C4236 1.389 . S
C4237 C4238 1.387 . S
C4238 H4223 0.930 . S
C4238 C4233 1.390 . S
C4238 C4237 1.387 . S
H4239 C4251 0.930 . S
H4240 C4253 0.930 . S
H4241 C4254 0.930 . S
H4242 C4258 0.959 . S
H4243 C4258 0.959 . S
H4244 C4258 0.961 . S
H4245 C4259 0.960 . S
H4246 C4259 0.961 . S
H4247 C4259 0.959 . S
H4248 C4262 0.929 . S
H4249 C4263 0.931 . S
H4250 C4265 0.930 . S
C4251 H4239 0.930 . S
C4251 C4252 1.399 . S
C4251 C4256 1.399 . S
C4252 C4251 1.399 . S
C4252 C4253 1.376 . S
C4253 H4240 0.930 . S
C4253 C4252 1.376 . S
C4253 C4254 1.388 . S
C4254 H4241 0.930 . S
C4254 C4253 1.388 . S
C4254 C4255 1.390 . S
C4255 C4254 1.390 . S
C4255 C4256 1.394 . S
C4255 C4261 1.465 . S
C4256 C4251 1.399 . S
C4256 C4255 1.394 . S
C4256 C4257 1.516 . S
C4257 C4256 1.516 . S
C4257 C4258 1.502 . S
C4257 C4259 1.561 . S
C4257 C4260 1.526 . S
C4258 H4242 0.959 . S
C4258 H4243 0.959 . S
C4258 H4244 0.961 . S
C4258 C4257 1.502 . S
C4259 H4245 0.960 . S
C4259 H4246 0.961 . S
C4259 H4247 0.959 . S
C4259 C4257 1.561 . S
C4260 C4257 1.526 . S
C4260 C4261 1.396 . S
C4260 C4265 1.390 . S
C4261 C4255 1.465 . S
C4261 C4260 1.396 . S
C4261 C4262 1.399 . S
C4262 H4248 0.929 . S
C4262 C4261 1.399 . S
C4262 C4263 1.385 . S
C4263 H4249 0.931 . S
C4263 C4262 1.385 . S
C4263 C4264 1.389 . S
C4264 C4263 1.389 . S
C4264 C4265 1.387 . S
C4265 H4250 0.930 . S
C4265 C4260 1.390 . S
C4265 C4264 1.387 . S
H4266 C4278 0.930 . S
H4267 C4280 0.930 . S
H4268 C4281 0.930 . S
H4269 C4285 0.959 . S
H4270 C4285 0.959 . S
H4271 C4285 0.961 . S
H4272 C4286 0.960 . S
H4273 C4286 0.961 . S
H4274 C4286 0.959 . S
H4275 C4289 0.929 . S
H4276 C4290 0.931 . S
H4277 C4292 0.930 . S
C4278 H4266 0.930 . S
C4278 C4279 1.399 . S
C4278 C4283 1.399 . S
C4279 C4278 1.399 . S
C4279 C4280 1.376 . S
C4280 H4267 0.930 . S
C4280 C4279 1.376 . S
C4280 C4281 1.388 . S
C4281 H4268 0.930 . S
C4281 C4280 1.388 . S
C4281 C4282 1.390 . S
C4282 C4281 1.390 . S
C4282 C4283 1.394 . S
C4282 C4288 1.465 . S
C4283 C4278 1.399 . S
C4283 C4282 1.394 . S
C4283 C4284 1.516 . S
C4284 C4283 1.516 . S
C4284 C4285 1.502 . S
C4284 C4286 1.561 . S
C4284 C4287 1.526 . S
C4285 H4269 0.959 . S
C4285 H4270 0.959 . S
C4285 H4271 0.961 . S
C4285 C4284 1.502 . S
C4286 H4272 0.960 . S
C4286 H4273 0.961 . S
C4286 H4274 0.959 . S
C4286 C4284 1.561 . S
C4287 C4284 1.526 . S
C4287 C4288 1.396 . S
C4287 C4292 1.390 . S
C4288 C4282 1.465 . S
C4288 C4287 1.396 . S
C4288 C4289 1.399 . S
C4289 H4275 0.929 . S
C4289 C4288 1.399 . S
C4289 C4290 1.385 . S
C4290 H4276 0.931 . S
C4290 C4289 1.385 . S
C4290 C4291 1.389 . S
C4291 C4290 1.389 . S
C4291 C4292 1.387 . S
C4292 H4277 0.930 . S
C4292 C4287 1.390 . S
C4292 C4291 1.387 . S
H4293 C4305 0.930 . S
H4294 C4307 0.930 . S
H4295 C4308 0.930 . S
H4296 C4312 0.959 . S
H4297 C4312 0.959 . S
H4298 C4312 0.961 . S
H4299 C4313 0.960 . S
H4300 C4313 0.961 . S
H4301 C4313 0.959 . S
H4302 C4316 0.929 . S
H4303 C4317 0.931 . S
H4304 C4319 0.930 . S
C4305 H4293 0.930 . S
C4305 C4306 1.399 . S
C4305 C4310 1.399 . S
C4306 C4305 1.399 . S
C4306 C4307 1.376 . S
C4307 H4294 0.930 . S
C4307 C4306 1.376 . S
C4307 C4308 1.388 . S
C4308 H4295 0.930 . S
C4308 C4307 1.388 . S
C4308 C4309 1.390 . S
C4309 C4308 1.390 . S
C4309 C4310 1.394 . S
C4309 C4315 1.465 . S
C4310 C4305 1.399 . S
C4310 C4309 1.394 . S
C4310 C4311 1.516 . S
C4311 C4310 1.516 . S
C4311 C4312 1.502 . S
C4311 C4313 1.561 . S
C4311 C4314 1.526 . S
C4312 H4296 0.959 . S
C4312 H4297 0.959 . S
C4312 H4298 0.961 . S
C4312 C4311 1.502 . S
C4313 H4299 0.960 . S
C4313 H4300 0.961 . S
C4313 H4301 0.959 . S
C4313 C4311 1.561 . S
C4314 C4311 1.526 . S
C4314 C4315 1.396 . S
C4314 C4319 1.390 . S
C4315 C4309 1.465 . S
C4315 C4314 1.396 . S
C4315 C4316 1.399 . S
C4316 H4302 0.929 . S
C4316 C4315 1.399 . S
C4316 C4317 1.385 . S
C4317 H4303 0.931 . S
C4317 C4316 1.385 . S
C4317 C4318 1.389 . S
C4318 C4317 1.389 . S
C4318 C4319 1.387 . S
C4319 H4304 0.930 . S
C4319 C4314 1.390 . S
C4319 C4318 1.387 . S
H4320 C4332 0.930 1_565 S
H4321 C4334 0.930 . S
H4322 C4335 0.930 . S
H4323 C4339 0.959 . S
H4324 C4339 0.959 . S
H4325 C4339 0.961 . S
H4326 C4340 0.960 . S
H4327 C4340 0.961 . S
H4328 C4340 0.959 . S
H4329 C4343 0.929 . S
H4330 C4344 0.931 . S
H4331 C4346 0.930 . S
C4332 H4320 0.930 1_545 S
C4332 C4333 1.399 . S
C4332 C4337 1.399 . S
C4333 C4332 1.399 . S
C4333 C4334 1.376 . S
C4334 H4321 0.930 . S
C4334 C4333 1.376 . S
C4334 C4335 1.388 . S
C4335 H4322 0.930 . S
C4335 C4334 1.388 . S
C4335 C4336 1.390 . S
C4336 C4335 1.390 . S
C4336 C4337 1.394 . S
C4336 C4342 1.465 . S
C4337 C4332 1.399 . S
C4337 C4336 1.394 . S
C4337 C4338 1.516 1_545 S
C4338 C4337 1.516 1_565 S
C4338 C4339 1.502 . S
C4338 C4340 1.561 . S
C4338 C4341 1.526 1_565 S
C4339 H4323 0.959 . S
C4339 H4324 0.959 . S
C4339 H4325 0.961 . S
C4339 C4338 1.502 . S
C4340 H4326 0.960 . S
C4340 H4327 0.961 . S
C4340 H4328 0.959 . S
C4340 C4338 1.561 . S
C4341 C4338 1.526 1_545 S
C4341 C4342 1.396 . S
C4341 C4346 1.390 1_545 S
C4342 C4336 1.465 . S
C4342 C4341 1.396 . S
C4342 C4343 1.399 . S
C4343 H4329 0.929 . S
C4343 C4342 1.399 . S
C4343 C4344 1.385 . S
C4344 H4330 0.931 . S
C4344 C4343 1.385 . S
C4344 C4345 1.389 . S
C4345 C4344 1.389 . S
C4345 C4346 1.387 1_545 S
C4346 H4331 0.930 . S
C4346 C4341 1.390 1_565 S
C4346 C4345 1.387 1_565 S
H4347 C4359 0.930 1_455 S
H4348 C4361 0.930 . S
H4349 C4362 0.930 . S
H4350 C4366 0.959 . S
H4351 C4366 0.959 . S
H4352 C4366 0.961 . S
H4353 C4367 0.960 . S
H4354 C4367 0.961 . S
H4355 C4367 0.959 . S
H4356 C4370 0.929 . S
H4357 C4371 0.931 . S
H4358 C4373 0.930 . S
C4359 H4347 0.930 1_655 S
C4359 C4360 1.399 . S
C4359 C4364 1.399 . S
C4360 C4359 1.399 . S
C4360 C4361 1.376 . S
C4361 H4348 0.930 . S
C4361 C4360 1.376 . S
C4361 C4362 1.388 . S
C4362 H4349 0.930 . S
C4362 C4361 1.388 . S
C4362 C4363 1.390 . S
C4363 C4362 1.390 . S
C4363 C4364 1.394 . S
C4363 C4369 1.465 . S
C4364 C4359 1.399 . S
C4364 C4363 1.394 . S
C4364 C4365 1.516 1_655 S
C4365 C4364 1.516 1_455 S
C4365 C4366 1.502 . S
C4365 C4367 1.561 . S
C4365 C4368 1.526 1_455 S
C4366 H4350 0.959 . S
C4366 H4351 0.959 . S
C4366 H4352 0.961 . S
C4366 C4365 1.502 . S
C4367 H4353 0.960 . S
C4367 H4354 0.961 . S
C4367 H4355 0.959 . S
C4367 C4365 1.561 . S
C4368 C4365 1.526 1_655 S
C4368 C4369 1.396 . S
C4368 C4373 1.390 1_655 S
C4369 C4363 1.465 . S
C4369 C4368 1.396 . S
C4369 C4370 1.399 . S
C4370 H4356 0.929 . S
C4370 C4369 1.399 . S
C4370 C4371 1.385 . S
C4371 H4357 0.931 . S
C4371 C4370 1.385 . S
C4371 C4372 1.389 . S
C4372 C4371 1.389 . S
C4372 C4373 1.387 1_655 S
C4373 H4358 0.930 . S
C4373 C4368 1.390 1_455 S
C4373 C4372 1.387 1_455 S
H4374 C4386 0.930 . S
H4375 C4388 0.930 . S
H4376 C4389 0.930 . S
H4377 C4393 0.959 . S
H4378 C4393 0.959 . S
H4379 C4393 0.961 . S
H4380 C4394 0.960 . S
H4381 C4394 0.961 . S
H4382 C4394 0.959 . S
H4383 C4397 0.929 . S
H4384 C4398 0.931 . S
H4385 C4400 0.930 . S
C4386 H4374 0.930 . S
C4386 C4387 1.399 . S
C4386 C4391 1.399 . S
C4387 C4386 1.399 . S
C4387 C4388 1.376 . S
C4388 H4375 0.930 . S
C4388 C4387 1.376 . S
C4388 C4389 1.388 . S
C4389 H4376 0.930 . S
C4389 C4388 1.388 . S
C4389 C4390 1.390 . S
C4390 C4389 1.390 . S
C4390 C4391 1.394 . S
C4390 C4396 1.465 . S
C4391 C4386 1.399 . S
C4391 C4390 1.394 . S
C4391 C4392 1.516 . S
C4392 C4391 1.516 . S
C4392 C4393 1.502 . S
C4392 C4394 1.561 . S
C4392 C4395 1.526 . S
C4393 H4377 0.959 . S
C4393 H4378 0.959 . S
C4393 H4379 0.961 . S
C4393 C4392 1.502 . S
C4394 H4380 0.960 . S
C4394 H4381 0.961 . S
C4394 H4382 0.959 . S
C4394 C4392 1.561 . S
C4395 C4392 1.526 . S
C4395 C4396 1.396 . S
C4395 C4400 1.390 . S
C4396 C4390 1.465 . S
C4396 C4395 1.396 . S
C4396 C4397 1.399 . S
C4397 H4383 0.929 . S
C4397 C4396 1.399 . S
C4397 C4398 1.385 . S
C4398 H4384 0.931 . S
C4398 C4397 1.385 . S
C4398 C4399 1.389 . S
C4399 C4398 1.389 . S
C4399 C4400 1.387 . S
C4400 H4385 0.930 . S
C4400 C4395 1.390 . S
C4400 C4399 1.387 . S
H4401 C4413 0.930 . S
H4402 C4415 0.930 . S
H4403 C4416 0.930 . S
H4404 C4420 0.959 . S
H4405 C4420 0.959 . S
H4406 C4420 0.961 . S
H4407 C4421 0.960 . S
H4408 C4421 0.961 . S
H4409 C4421 0.959 . S
H4410 C4424 0.929 . S
H4411 C4425 0.931 . S
H4412 C4427 0.930 . S
C4413 H4401 0.930 . S
C4413 C4414 1.399 . S
C4413 C4418 1.399 . S
C4414 C4413 1.399 . S
C4414 C4415 1.376 . S
C4415 H4402 0.930 . S
C4415 C4414 1.376 . S
C4415 C4416 1.388 . S
C4416 H4403 0.930 . S
C4416 C4415 1.388 . S
C4416 C4417 1.390 . S
C4417 C4416 1.390 . S
C4417 C4418 1.394 . S
C4417 C4423 1.465 . S
C4418 C4413 1.399 . S
C4418 C4417 1.394 . S
C4418 C4419 1.516 . S
C4419 C4418 1.516 . S
C4419 C4420 1.502 . S
C4419 C4421 1.561 . S
C4419 C4422 1.526 . S
C4420 H4404 0.959 . S
C4420 H4405 0.959 . S
C4420 H4406 0.961 . S
C4420 C4419 1.502 . S
C4421 H4407 0.960 . S
C4421 H4408 0.961 . S
C4421 H4409 0.959 . S
C4421 C4419 1.561 . S
C4422 C4419 1.526 . S
C4422 C4423 1.396 . S
C4422 C4427 1.390 . S
C4423 C4417 1.465 . S
C4423 C4422 1.396 . S
C4423 C4424 1.399 . S
C4424 H4410 0.929 . S
C4424 C4423 1.399 . S
C4424 C4425 1.385 . S
C4425 H4411 0.931 . S
C4425 C4424 1.385 . S
C4425 C4426 1.389 . S
C4426 C4425 1.389 . S
C4426 C4427 1.387 . S
C4427 H4412 0.930 . S
C4427 C4422 1.390 . S
C4427 C4426 1.387 . S
H4428 C4440 0.930 . S
H4429 C4442 0.930 . S
H4430 C4443 0.930 . S
H4431 C4447 0.959 . S
H4432 C4447 0.959 . S
H4433 C4447 0.961 . S
H4434 C4448 0.960 . S
H4435 C4448 0.961 . S
H4436 C4448 0.959 . S
H4437 C4451 0.929 . S
H4438 C4452 0.931 . S
H4439 C4454 0.930 . S
C4440 H4428 0.930 . S
C4440 C4441 1.399 . S
C4440 C4445 1.399 . S
C4441 C4440 1.399 . S
C4441 C4442 1.376 . S
C4442 H4429 0.930 . S
C4442 C4441 1.376 . S
C4442 C4443 1.388 . S
C4443 H4430 0.930 . S
C4443 C4442 1.388 . S
C4443 C4444 1.390 . S
C4444 C4443 1.390 . S
C4444 C4445 1.394 . S
C4444 C4450 1.465 . S
C4445 C4440 1.399 . S
C4445 C4444 1.394 . S
C4445 C4446 1.516 . S
C4446 C4445 1.516 . S
C4446 C4447 1.502 . S
C4446 C4448 1.561 . S
C4446 C4449 1.526 . S
C4447 H4431 0.959 . S
C4447 H4432 0.959 . S
C4447 H4433 0.961 . S
C4447 C4446 1.502 . S
C4448 H4434 0.960 . S
C4448 H4435 0.961 . S
C4448 H4436 0.959 . S
C4448 C4446 1.561 . S
C4449 C4446 1.526 . S
C4449 C4450 1.396 . S
C4449 C4454 1.390 . S
C4450 C4444 1.465 . S
C4450 C4449 1.396 . S
C4450 C4451 1.399 . S
C4451 H4437 0.929 . S
C4451 C4450 1.399 . S
C4451 C4452 1.385 . S
C4452 H4438 0.931 . S
C4452 C4451 1.385 . S
C4452 C4453 1.389 . S
C4453 C4452 1.389 . S
C4453 C4454 1.387 . S
C4454 H4439 0.930 . S
C4454 C4449 1.390 . S
C4454 C4453 1.387 . S
H4455 C4467 0.930 . S
H4456 C4469 0.930 . S
H4457 C4470 0.930 . S
H4458 C4474 0.959 . S
H4459 C4474 0.959 . S
H4460 C4474 0.961 . S
H4461 C4475 0.960 . S
H4462 C4475 0.961 . S
H4463 C4475 0.959 . S
H4464 C4478 0.929 . S
H4465 C4479 0.931 . S
H4466 C4481 0.930 . S
C4467 H4455 0.930 . S
C4467 C4468 1.399 . S
C4467 C4472 1.399 . S
C4468 C4467 1.399 . S
C4468 C4469 1.376 . S
C4469 H4456 0.930 . S
C4469 C4468 1.376 . S
C4469 C4470 1.388 . S
C4470 H4457 0.930 . S
C4470 C4469 1.388 . S
C4470 C4471 1.390 . S
C4471 C4470 1.390 . S
C4471 C4472 1.394 . S
C4471 C4477 1.465 . S
C4472 C4467 1.399 . S
C4472 C4471 1.394 . S
C4472 C4473 1.516 . S
C4473 C4472 1.516 . S
C4473 C4474 1.502 . S
C4473 C4475 1.561 . S
C4473 C4476 1.526 . S
C4474 H4458 0.959 . S
C4474 H4459 0.959 . S
C4474 H4460 0.961 . S
C4474 C4473 1.502 . S
C4475 H4461 0.960 . S
C4475 H4462 0.961 . S
C4475 H4463 0.959 . S
C4475 C4473 1.561 . S
C4476 C4473 1.526 . S
C4476 C4477 1.396 . S
C4476 C4481 1.390 . S
C4477 C4471 1.465 . S
C4477 C4476 1.396 . S
C4477 C4478 1.399 . S
C4478 H4464 0.929 . S
C4478 C4477 1.399 . S
C4478 C4479 1.385 . S
C4479 H4465 0.931 . S
C4479 C4478 1.385 . S
C4479 C4480 1.389 . S
C4480 C4479 1.389 . S
C4480 C4481 1.387 . S
C4481 H4466 0.930 . S
C4481 C4476 1.390 . S
C4481 C4480 1.387 . S
H4482 C4494 0.930 . S
H4483 C4496 0.930 . S
H4484 C4497 0.930 . S
H4485 C4501 0.959 . S
H4486 C4501 0.959 . S
H4487 C4501 0.961 . S
H4488 C4502 0.960 . S
H4489 C4502 0.961 . S
H4490 C4502 0.959 . S
H4491 C4505 0.929 . S
H4492 C4506 0.931 . S
H4493 C4508 0.930 . S
C4494 H4482 0.930 . S
C4494 C4495 1.399 . S
C4494 C4499 1.399 . S
C4495 C4494 1.399 . S
C4495 C4496 1.376 . S
C4496 H4483 0.930 . S
C4496 C4495 1.376 . S
C4496 C4497 1.388 . S
C4497 H4484 0.930 . S
C4497 C4496 1.388 . S
C4497 C4498 1.390 . S
C4498 C4497 1.390 . S
C4498 C4499 1.394 . S
C4498 C4504 1.465 . S
C4499 C4494 1.399 . S
C4499 C4498 1.394 . S
C4499 C4500 1.516 . S
C4500 C4499 1.516 . S
C4500 C4501 1.502 . S
C4500 C4502 1.561 . S
C4500 C4503 1.526 . S
C4501 H4485 0.959 . S
C4501 H4486 0.959 . S
C4501 H4487 0.961 . S
C4501 C4500 1.502 . S
C4502 H4488 0.960 . S
C4502 H4489 0.961 . S
C4502 H4490 0.959 . S
C4502 C4500 1.561 . S
C4503 C4500 1.526 . S
C4503 C4504 1.396 . S
C4503 C4508 1.390 . S
C4504 C4498 1.465 . S
C4504 C4503 1.396 . S
C4504 C4505 1.399 . S
C4505 H4491 0.929 . S
C4505 C4504 1.399 . S
C4505 C4506 1.385 . S
C4506 H4492 0.931 . S
C4506 C4505 1.385 . S
C4506 C4507 1.389 . S
C4507 C4506 1.389 . S
C4507 C4508 1.387 . S
C4508 H4493 0.930 . S
C4508 C4503 1.390 . S
C4508 C4507 1.387 . S
H4509 C4521 0.930 . S
H4510 C4523 0.930 . S
H4511 C4524 0.930 . S
H4512 C4528 0.959 . S
H4513 C4528 0.959 . S
H4514 C4528 0.961 . S
H4515 C4529 0.960 . S
H4516 C4529 0.961 . S
H4517 C4529 0.959 . S
H4518 C4532 0.929 . S
H4519 C4533 0.931 . S
H4520 C4535 0.930 . S
C4521 H4509 0.930 . S
C4521 C4522 1.399 . S
C4521 C4526 1.399 . S
C4522 C4521 1.399 . S
C4522 C4523 1.376 . S
C4523 H4510 0.930 . S
C4523 C4522 1.376 . S
C4523 C4524 1.388 . S
C4524 H4511 0.930 . S
C4524 C4523 1.388 . S
C4524 C4525 1.390 . S
C4525 C4524 1.390 . S
C4525 C4526 1.394 . S
C4525 C4531 1.465 . S
C4526 C4521 1.399 . S
C4526 C4525 1.394 . S
C4526 C4527 1.516 . S
C4527 C4526 1.516 . S
C4527 C4528 1.502 . S
C4527 C4529 1.561 . S
C4527 C4530 1.526 . S
C4528 H4512 0.959 . S
C4528 H4513 0.959 . S
C4528 H4514 0.961 . S
C4528 C4527 1.502 . S
C4529 H4515 0.960 . S
C4529 H4516 0.961 . S
C4529 H4517 0.959 . S
C4529 C4527 1.561 . S
C4530 C4527 1.526 . S
C4530 C4531 1.396 . S
C4530 C4535 1.390 . S
C4531 C4525 1.465 . S
C4531 C4530 1.396 . S
C4531 C4532 1.399 . S
C4532 H4518 0.929 . S
C4532 C4531 1.399 . S
C4532 C4533 1.385 . S
C4533 H4519 0.931 . S
C4533 C4532 1.385 . S
C4533 C4534 1.389 . S
C4534 C4533 1.389 . S
C4534 C4535 1.387 . S
C4535 H4520 0.930 . S
C4535 C4530 1.390 . S
C4535 C4534 1.387 . S
H4536 C4548 0.930 . S
H4537 C4550 0.930 . S
H4538 C4551 0.930 . S
H4539 C4555 0.959 . S
H4540 C4555 0.959 . S
H4541 C4555 0.961 . S
H4542 C4556 0.960 . S
H4543 C4556 0.961 . S
H4544 C4556 0.959 . S
H4545 C4559 0.929 . S
H4546 C4560 0.931 . S
H4547 C4562 0.930 . S
C4548 H4536 0.930 . S
C4548 C4549 1.399 . S
C4548 C4553 1.399 . S
C4549 C4548 1.399 . S
C4549 C4550 1.376 . S
C4550 H4537 0.930 . S
C4550 C4549 1.376 . S
C4550 C4551 1.388 . S
C4551 H4538 0.930 . S
C4551 C4550 1.388 . S
C4551 C4552 1.390 . S
C4552 C4551 1.390 . S
C4552 C4553 1.394 . S
C4552 C4558 1.465 . S
C4553 C4548 1.399 . S
C4553 C4552 1.394 . S
C4553 C4554 1.516 . S
C4554 C4553 1.516 . S
C4554 C4555 1.502 . S
C4554 C4556 1.561 . S
C4554 C4557 1.526 . S
C4555 H4539 0.959 . S
C4555 H4540 0.959 . S
C4555 H4541 0.961 . S
C4555 C4554 1.502 . S
C4556 H4542 0.960 . S
C4556 H4543 0.961 . S
C4556 H4544 0.959 . S
C4556 C4554 1.561 . S
C4557 C4554 1.526 . S
C4557 C4558 1.396 . S
C4557 C4562 1.390 . S
C4558 C4552 1.465 . S
C4558 C4557 1.396 . S
C4558 C4559 1.399 . S
C4559 H4545 0.929 . S
C4559 C4558 1.399 . S
C4559 C4560 1.385 . S
C4560 H4546 0.931 . S
C4560 C4559 1.385 . S
C4560 C4561 1.389 . S
C4561 C4560 1.389 . S
C4561 C4562 1.387 . S
C4562 H4547 0.930 . S
C4562 C4557 1.390 . S
C4562 C4561 1.387 . S
H4563 C4575 0.930 . S
H4564 C4577 0.917 1_455 S
H4565 C4578 0.930 . S
H4566 C4582 0.959 . S
H4567 C4582 0.959 . S
H4568 C4582 0.961 . S
H4569 C4583 0.960 . S
H4570 C4583 0.961 . S
H4571 C4583 0.959 . S
H4572 C4586 0.929 . S
H4573 C4587 0.931 . S
H4574 C4589 0.930 . S
C4575 H4563 0.930 . S
C4575 C4576 1.399 . S
C4575 C4580 1.399 . S
C4576 C4575 1.399 . S
C4576 C4577 1.432 . S
C4577 H4564 0.917 1_655 S
C4577 C4576 1.432 . S
C4577 C4578 1.349 1_655 S
C4578 H4565 0.930 . S
C4578 C4577 1.349 1_455 S
C4578 C4579 1.390 1_455 S
C4579 C4578 1.390 1_655 S
C4579 C4580 1.394 . S
C4579 C4585 1.465 . S
C4580 C4575 1.399 . S
C4580 C4579 1.394 . S
C4580 C4581 1.516 . S
C4581 C4580 1.516 . S
C4581 C4582 1.502 . S
C4581 C4583 1.561 . S
C4581 C4584 1.526 . S
C4582 H4566 0.959 . S
C4582 H4567 0.959 . S
C4582 H4568 0.961 . S
C4582 C4581 1.502 . S
C4583 H4569 0.960 . S
C4583 H4570 0.961 . S
C4583 H4571 0.959 . S
C4583 C4581 1.561 . S
C4584 C4581 1.526 . S
C4584 C4585 1.396 . S
C4584 C4589 1.390 . S
C4585 C4579 1.465 . S
C4585 C4584 1.396 . S
C4585 C4586 1.399 1_655 S
C4586 H4572 0.929 . S
C4586 C4585 1.399 1_455 S
C4586 C4587 1.385 . S
C4587 H4573 0.931 . S
C4587 C4586 1.385 . S
C4587 C4588 1.389 1_455 S
C4588 C4587 1.389 1_655 S
C4588 C4589 1.387 . S
C4589 H4574 0.930 . S
C4589 C4584 1.390 . S
C4589 C4588 1.387 . S
H4590 C4602 0.930 . S
H4591 C4604 0.930 . S
H4592 C4605 0.930 . S
H4593 C4609 0.959 . S
H4594 C4609 0.959 . S
H4595 C4609 0.961 . S
H4596 C4610 0.960 . S
H4597 C4610 0.961 . S
H4598 C4610 0.959 . S
H4599 C4613 0.929 . S
H4600 C4614 0.931 . S
H4601 C4616 0.930 . S
C4602 H4590 0.930 . S
C4602 C4603 1.399 . S
C4602 C4607 1.399 . S
C4603 C4602 1.399 . S
C4603 C4604 1.376 . S
C4604 H4591 0.930 . S
C4604 C4603 1.376 . S
C4604 C4605 1.388 . S
C4605 H4592 0.930 . S
C4605 C4604 1.388 . S
C4605 C4606 1.390 . S
C4606 C4605 1.390 . S
C4606 C4607 1.394 . S
C4606 C4612 1.465 . S
C4607 C4602 1.399 . S
C4607 C4606 1.394 . S
C4607 C4608 1.516 . S
C4608 C4607 1.516 . S
C4608 C4609 1.502 . S
C4608 C4610 1.561 . S
C4608 C4611 1.526 . S
C4609 H4593 0.959 . S
C4609 H4594 0.959 . S
C4609 H4595 0.961 . S
C4609 C4608 1.502 . S
C4610 H4596 0.960 . S
C4610 H4597 0.961 . S
C4610 H4598 0.959 . S
C4610 C4608 1.561 . S
C4611 C4608 1.526 . S
C4611 C4612 1.396 . S
C4611 C4616 1.390 . S
C4612 C4606 1.465 . S
C4612 C4611 1.396 . S
C4612 C4613 1.399 . S
C4613 H4599 0.929 . S
C4613 C4612 1.399 . S
C4613 C4614 1.385 . S
C4614 H4600 0.931 . S
C4614 C4613 1.385 . S
C4614 C4615 1.389 . S
C4615 C4614 1.389 . S
C4615 C4616 1.387 . S
C4616 H4601 0.930 . S
C4616 C4611 1.390 . S
C4616 C4615 1.387 . S
H4617 C4629 0.930 . S
H4618 C4631 0.930 . S
H4619 C4632 0.930 . S
H4620 C4636 0.959 . S
H4621 C4636 0.959 . S
H4622 C4636 0.961 . S
H4623 C4637 0.960 . S
H4624 C4637 0.961 . S
H4625 C4637 0.959 . S
H4626 C4640 0.929 . S
H4627 C4641 0.931 . S
H4628 C4643 0.930 . S
C4629 H4617 0.930 . S
C4629 C4630 1.399 . S
C4629 C4634 1.399 . S
C4630 C4629 1.399 . S
C4630 C4631 1.376 1_545 S
C4631 H4618 0.930 . S
C4631 C4630 1.376 1_565 S
C4631 C4632 1.388 . S
C4632 H4619 0.930 . S
C4632 C4631 1.388 . S
C4632 C4633 1.449 . S
C4633 C4632 1.449 . S
C4633 C4634 1.342 1_565 S
C4633 C4639 1.448 . S
C4634 C4629 1.399 . S
C4634 C4633 1.342 1_545 S
C4634 C4635 1.516 . S
C4635 C4634 1.516 . S
C4635 C4636 1.502 . S
C4635 C4637 1.561 . S
C4635 C4638 1.526 . S
C4636 H4620 0.959 . S
C4636 H4621 0.959 . S
C4636 H4622 0.961 . S
C4636 C4635 1.502 . S
C4637 H4623 0.960 . S
C4637 H4624 0.961 . S
C4637 H4625 0.959 . S
C4637 C4635 1.561 . S
C4638 C4635 1.526 . S
C4638 C4639 1.396 1_545 S
C4638 C4643 1.390 . S
C4639 C4633 1.448 . S
C4639 C4638 1.396 1_565 S
C4639 C4640 1.399 . S
C4640 H4626 0.929 . S
C4640 C4639 1.399 . S
C4640 C4641 1.385 . S
C4641 H4627 0.931 . S
C4641 C4640 1.385 . S
C4641 C4642 1.350 1_565 S
C4642 C4641 1.350 1_545 S
C4642 C4643 1.408 . S
C4643 H4628 0.930 . S
C4643 C4638 1.390 . S
C4643 C4642 1.408 . S
C2713 C4 1.296 . S
C2725 C1703 1.166 . S
C2740 C38 1.868 . S
C2752 C1843 1.243 . S
C2779 C1931 1.189 . S
C2767 C74 1.323 . S
C2794 C76 1.351 . S
C2806 C2071 0.913 1_565 S
C2821 C2 1.400 . S
C2833 C2185 1.166 . S
C2848 C40 1.681 . S
C2860 C2273 1.235 . S
C2875 C110 1.302 . S
C2887 C2159 1.179 . S
C2914 C2299 1.382 . S
C2902 C148 1.602 . S
C2941 C2045 1.217 1_545 S
C2929 C182 1.323 . S
C2956 C184 1.370 . S
C2968 C1957 1.168 . S
C2995 C1729 1.023 . S
C2983 C112 1.313 . S
C3010 C146 1.690 . S
C3022 C1817 1.548 . S
C3037 C220 1.808 . S
C3049 C2387 1.241 . S
C3064 C254 1.981 . S
C3076 C2527 1.335 . S
C3103 C2615 1.400 . S
C3091 C290 1.803 . S
C3118 C292 1.735 . S
C3130 C703 1.101 . S
C3145 C218 1.901 . S
C3157 C817 1.192 . S
C3172 C256 1.758 . S
C3184 C905 1.306 . S
C3199 C326 1.668 . S
C3211 C791 1.473 . S
C3226 C364 1.696 . S
C3238 C931 1.493 . S
C3265 C677 1.552 . S
C3253 C398 1.767 . S
C3292 C2641 1.501 . S
C3280 C400 1.824 . S
C3319 C2413 1.367 . S
C3307 C328 1.584 . S
C3346 C2501 1.682 . S
C3334 C362 1.785 . S
C3361 C436 1.667 . S
C3373 C1019 1.104 . S
C3388 C470 1.967 . S
C3400 C1159 1.182 . S
C3415 C506 1.827 . S
C3427 C1247 1.413 . S
C3442 C508 1.881 . S
C3454 C1387 1.251 . S
C3481 C1501 1.225 . S
C3469 C434 1.857 . S
C3508 C1589 1.371 . S
C3496 C472 1.771 . S
C3535 C1475 1.685 . S
C3523 C542 1.820 . S
C3562 C1615 1.430 . S
C3550 C580 1.711 . S
C3577 C614 1.707 . S
C3589 C1361 1.602 . S
C3616 C1273 1.387 . S
C3604 C616 1.660 . S
C3631 C544 1.622 . S
C3643 C1045 1.456 . S
C3670 C1133 1.550 . S
C3658 C578 1.751 . S
C3697 C659 0.954 . S
C3685 C14 1.894 . S
C3712 C39 1.647 . S
C3724 C773 0.917 . S
C3751 C877 1.314 . S
C3739 C75 1.694 . S
C3778 C991 1.144 . S
C3766 C86 1.570 . S
C3805 C1115 1.028 . S
C3793 C3 1.800 . S
C3832 C1219 1.281 . S
C3820 C50 1.691 . S
C3847 C111 1.907 . S
C3859 C1229 1.442 . S
C3874 C158 1.742 . S
C3886 C1001 1.376 . S
C3901 C183 1.964 . S
C3913 C1105 1.793 . S
C3928 C194 1.814 . S
C3940 C763 1.601 . S
C3967 C887 1.495 . S
C3955 C122 1.836 . S
C3982 C147 1.680 . S
C3994 C649 1.432 . S
C4021 C1343 0.988 . S
C4009 C230 1.774 . S
C4036 C255 1.820 . S
C4048 C1457 1.072 . S
C4063 C291 1.719 . S
C4075 C1561 1.328 . S
C4102 C1675 1.057 . S
C4090 C302 1.083 . S
C4117 C219 1.676 . S
C4129 C1799 0.900 . S
C4144 C266 1.314 . S
C4156 C1903 1.192 . S
C4171 C327 1.355 . S
C4183 C1913 0.747 1_565 S
C4198 C374 1.288 . S
C4210 C1685 0.939 1_455 S
C4237 C1789 1.649 . S
C4225 C399 1.878 . S
C4252 C410 1.733 . S
C4264 C1447 1.608 . S
C4279 C338 1.860 . S
C4291 C1571 1.394 . S
C4318 C1333 1.628 . S
C4306 C363 1.835 . S
C4345 C2027 0.862 . S
C4333 C446 1.338 . S
C4360 C471 1.305 . S
C4372 C2141 0.786 . S
C4387 C507 1.607 . S
C4399 C2245 1.109 . S
C4426 C2359 1.205 . S
C4414 C518 1.487 . S
C4453 C2483 0.977 . S
C4441 C435 1.816 . S
C4468 C482 1.824 . S
C4480 C2587 1.283 . S
C4495 C543 1.807 . S
C4507 C2597 1.330 . S
C4522 C590 1.888 . S
C4534 C2369 1.414 . S
C4561 C2473 1.694 . S
C4549 C615 1.959 . S
C4588 C2131 0.960 1_655 S
C4576 C626 1.248 . S
C4615 C2255 1.284 . S
C4603 C554 1.775 . S
C4630 C579 1.292 . S
C4642 C2017 1.039 1_545 S
