# Generated by pormake.
# Topology anh, (6,3)-cn, num edge types: 1
# Building blocks:
#     Node 0, Type 0, BuildingBlock: BETFEN_clean_sbu_0, # of connection points: 6
#     Node 1, Type 0, BuildingBlock: BETFEN_clean_sbu_0, # of connection points: 6
#     Node 2, Type 0, BuildingBlock: BETFEN_clean_sbu_0, # of connection points: 6
#     Node 3, Type 1, BuildingBlock: BELTOD_clean_linker_0, # of connection points: 3
#     Node 4, Type 1, BuildingBlock: BELTOD_clean_linker_0, # of connection points: 3
#     Node 5, Type 1, BuildingBlock: BELTOD_clean_linker_0, # of connection points: 3
#     Node 6, Type 1, BuildingBlock: BELTOD_clean_linker_0, # of connection points: 3
#     Node 7, Type 1, BuildingBlock: BELTOD_clean_linker_0, # of connection points: 3
#     Node 8, Type 1, BuildingBlock: BELTOD_clean_linker_0, # of connection points: 3
#     Edge 9, Type (0, 1), BuildingBlock: ZUJKAS_clean_linker_0, # of connection points: 2
#     Edge 10, Type (0, 1), BuildingBlock: ZUJKAS_clean_linker_0, # of connection points: 2
#     Edge 11, Type (0, 1), BuildingBlock: ZUJKAS_clean_linker_0, # of connection points: 2
#     Edge 12, Type (0, 1), BuildingBlock: ZUJKAS_clean_linker_0, # of connection points: 2
#     Edge 13, Type (0, 1), BuildingBlock: ZUJKAS_clean_linker_0, # of connection points: 2
#     Edge 14, Type (0, 1), BuildingBlock: ZUJKAS_clean_linker_0, # of connection points: 2
#     Edge 15, Type (0, 1), BuildingBlock: ZUJKAS_clean_linker_0, # of connection points: 2
#     Edge 16, Type (0, 1), BuildingBlock: ZUJKAS_clean_linker_0, # of connection points: 2
#     Edge 17, Type (0, 1), BuildingBlock: ZUJKAS_clean_linker_0, # of connection points: 2
#     Edge 18, Type (0, 1), BuildingBlock: ZUJKAS_clean_linker_0, # of connection points: 2
#     Edge 19, Type (0, 1), BuildingBlock: ZUJKAS_clean_linker_0, # of connection points: 2
#     Edge 20, Type (0, 1), BuildingBlock: ZUJKAS_clean_linker_0, # of connection points: 2
#     Edge 21, Type (0, 1), BuildingBlock: ZUJKAS_clean_linker_0, # of connection points: 2
#     Edge 22, Type (0, 1), BuildingBlock: ZUJKAS_clean_linker_0, # of connection points: 2
#     Edge 23, Type (0, 1), BuildingBlock: ZUJKAS_clean_linker_0, # of connection points: 2
#     Edge 24, Type (0, 1), BuildingBlock: ZUJKAS_clean_linker_0, # of connection points: 2
#     Edge 25, Type (0, 1), BuildingBlock: ZUJKAS_clean_linker_0, # of connection points: 2
#     Edge 26, Type (0, 1), BuildingBlock: ZUJKAS_clean_linker_0, # of connection points: 2
# Relax obj value: 0.158
# Max RMSD: 0.194
# Mean RMSD: 0.142
data_MOF--net-anh--node1-BETFEN_clean_sbu_0--node2-BELTOD_clean_linker_0--edge1-ZUJKAS_clean_linker_0
_symmetry_space_group_name_H-M    P1
_symmetry_Int_Tables_number       1
_symmetry_cell_setting            triclinic
loop_
_symmetry_equiv_pos_as_xyz
'x, y, z'
_cell_length_a     42.504785
_cell_length_b     44.774412
_cell_length_c     76.643177
_cell_angle_alpha  90.479976
_cell_angle_beta   92.549753
_cell_angle_gamma 109.51708
loop_
_atom_site_label
_atom_site_type_symbol
_atom_site_fract_x
_atom_site_fract_y
_atom_site_fract_z
_atom_type_partial_charge
Pr0 Pr 1.01332 0.52727 0.15262 0.0
Pr1 Pr 0.03819 0.5976 0.14584 0.0
C2 C 0.98443 0.46922 0.16567 0.0
C3 C 0.95174 0.44547 0.16896 0.0
C4 C 0.9241 0.43953 0.15706 0.0
C5 C 0.89382 0.41581 0.16027 0.0
C6 C 0.8906 0.39782 0.17549 0.0
C7 C 0.91824 0.40433 0.18747 0.0
C8 C 0.94846 0.42787 0.18421 0.0
C9 C 0.02062 0.54123 0.11734 0.0
C10 C 0.95777 0.56474 0.14609 0.0
C11 C 0.06975 0.65751 0.13601 0.0
C12 C 0.10151 0.68236 0.14127 0.0
C13 C 0.12039 0.67869 0.15606 0.0
C14 C 0.15026 0.70258 0.16126 0.0
C15 C 0.16194 0.73056 0.15172 0.0
C16 C 0.14298 0.73391 0.13678 0.0
C17 C 0.11301 0.71001 0.13162 0.0
C18 C 0.03257 0.58266 0.18117 0.0
C19 C 0.09349 0.55887 0.14891 0.0
O20 O 0.99367 0.49525 0.17529 0.0
O21 O 0.99276 0.47388 0.14944 0.0
O22 O 1.00832 0.55539 0.12802 0.0
O23 O 0.02805 0.51811 0.12455 0.0
O24 O 0.98156 0.58765 0.13894 0.0
O25 O 0.96455 0.54136 0.15406 0.0
O26 O 0.07209 0.63262 0.12785 0.0
O27 O 0.04717 0.65024 0.14774 0.0
O28 O 0.04465 0.56939 0.17 0.0
O29 O 0.02405 0.60543 0.17439 0.0
O30 O 0.07039 0.53499 0.15579 0.0
O31 O 0.0864 0.5835 0.14277 0.0
H32 H 0.92599 0.45301 0.14525 0.0
H33 H 0.87289 0.41161 0.15089 0.0
H34 H 0.91681 0.39069 0.19919 0.0
H35 H 0.96951 0.43208 0.19353 0.0
H36 H 0.11185 0.65744 0.16367 0.0
H37 H 0.16389 0.69931 0.17296 0.0
H38 H 0.15142 0.75488 0.12896 0.0
H39 H 0.0988 0.71314 0.12011 0.0
Pr40 Pr 0.56902 0.06415 0.52124 0.0
Pr41 Pr 0.49003 0.03783 0.52577 0.0
C42 C 0.63264 0.09432 0.51291 0.0
C43 C 0.65559 0.12532 0.50742 0.0
C44 C 0.68317 0.1419 0.51854 0.0
C45 C 0.70631 0.17041 0.51347 0.0
C46 C 0.70265 0.18302 0.49705 0.0
C47 C 0.67466 0.16668 0.48601 0.0
C48 C 0.65138 0.13809 0.49113 0.0
C49 C 0.54855 0.04586 0.55453 0.0
C50 C 0.52719 0.11715 0.5256 0.0
C51 C 0.42875 1.00977 0.5376 0.0
C52 C 0.39996 0.9819 0.53167 0.0
C53 C 0.39314 0.97398 0.51381 0.0
C54 C 0.3674 0.9463 0.5083 0.0
C55 C 0.34805 0.92569 0.52054 0.0
C56 C 0.35466 0.93399 0.53843 0.0
C57 C 0.38039 0.96181 0.54392 0.0
C58 C 0.50299 0.04007 0.48999 0.0
C59 C 0.53257 0.98537 0.52172 0.0
O60 O 0.60948 0.0771 0.5016 0.0
O61 O 0.62268 0.09291 0.52889 0.0
O62 O 0.53553 0.06126 0.54449 0.0
O63 O 0.57372 0.04058 0.54774 0.0
O64 O 0.5 0.0933 0.52947 0.0
O65 O 0.55472 0.1117 0.52103 0.0
O66 O 0.45519 1.00363 0.54371 0.0
O67 O 0.43603 0.03454 0.52758 0.0
O68 O 0.52376 0.04775 0.50275 0.0
O69 O 0.47303 0.03034 0.49563 0.0
O70 O 0.55888 1.00887 0.51652 0.0
O71 O 0.50578 0.99117 0.52713 0.0
H72 H 0.68706 0.13259 0.53115 0.0
H73 H 0.72716 0.18257 0.52245 0.0
H74 H 0.67119 0.17552 0.47322 0.0
H75 H 0.63041 0.12585 0.48223 0.0
H76 H 0.40803 0.98895 0.50408 0.0
H77 H 0.36275 0.94101 0.49442 0.0
H78 H 0.3406 0.91855 0.54823 0.0
H79 H 0.38545 0.9673 0.55778 0.0
Pr80 Pr 0.50337 0.52688 0.81547 0.0
Pr81 Pr 0.53201 0.59963 0.83037 0.0
C82 C 0.47587 0.46973 0.79984 0.0
C83 C 0.47695 0.43847 0.80464 0.0
C84 C 0.48203 0.43208 0.82224 0.0
C85 C 0.48502 0.40312 0.82688 0.0
C86 C 0.48327 0.38009 0.81398 0.0
C87 C 0.47773 0.38641 0.79635 0.0
C88 C 0.47462 0.41546 0.79172 0.0
C89 C 0.51108 0.53546 0.85162 0.0
C90 C 0.58491 0.55959 0.82447 0.0
C91 C 0.54805 0.64767 0.85377 0.0
C92 C 0.52813 0.65636 0.86683 0.0
C93 C 0.49365 0.649 0.86355 0.0
C94 C 0.47499 0.66013 0.87478 0.0
C95 C 0.49033 0.67867 0.88973 0.0
C96 C 0.5244 0.68348 0.89381 0.0
C97 C 0.5432 0.67255 0.88237 0.0
C98 C 0.53637 0.5971 0.79381 0.0
C99 C 0.45121 0.56821 0.8189 0.0
O100 O 0.50419 0.4901 0.79519 0.0
O101 O 0.4597 0.48201 0.81032 0.0
O102 O 0.50056 0.55193 0.84117 0.0
O103 O 0.51611 0.51198 0.84353 0.0
O104 O 0.57887 0.58301 0.83281 0.0
O105 O 0.56134 0.53743 0.81514 0.0
O106 O 0.55489 0.62162 0.85667 0.0
O107 O 0.53912 0.65046 0.8374 0.0
O108 O 0.52539 0.57474 0.80401 0.0
O109 O 0.5467 0.62374 0.80278 0.0
O110 O 0.45762 0.54497 0.81057 0.0
O111 O 0.47439 0.58997 0.82855 0.0
H112 H 0.48405 0.44964 0.83242 0.0
H113 H 0.48884 0.3988 0.84056 0.0
H114 H 0.47673 0.36927 0.7861 0.0
H115 H 0.471 0.42017 0.77807 0.0
H116 H 0.48134 0.63597 0.85181 0.0
H117 H 0.44906 0.65608 0.87092 0.0
H118 H 0.53693 0.69702 0.90539 0.0
H119 H 0.56968 0.67774 0.88533 0.0
P120 P 0.56834 0.0242 0.24741 0.0
H121 H 0.53079 0.0311 0.21507 0.0
H122 H 0.47802 0.99681 0.20096 0.0
H123 H 0.4649 0.93277 0.24401 0.0
H124 H 0.51771 0.96677 0.25782 0.0
H125 H 0.61042 0.03967 0.21754 0.0
H126 H 0.64331 0.08984 0.20515 0.0
H127 H 0.60273 0.14021 0.24136 0.0
H128 H 0.57033 0.08985 0.25388 0.0
H129 H 0.61203 0.02587 0.27818 0.0
H130 H 0.51715 0.03868 0.26693 0.0
O131 O 0.59258 1.00178 0.24575 0.0
H132 H 0.60639 0.03284 0.30937 0.0
H133 H 0.51164 0.04659 0.29812 0.0
C134 C 0.52801 1.00157 0.23757 0.0
C135 C 0.51637 1.00987 0.22154 0.0
C136 C 0.48614 0.99027 0.21351 0.0
C137 C 0.46733 0.96193 0.22131 0.0
C138 C 0.47897 0.95414 0.23751 0.0
C139 C 0.50903 0.9737 0.24551 0.0
C140 C 0.5885 0.06106 0.23687 0.0
C141 C 0.6084 0.0615 0.22272 0.0
C142 C 0.62704 0.09024 0.21556 0.0
C143 C 0.62598 0.11916 0.22237 0.0
C144 C 0.60465 0.11844 0.23602 0.0
C145 C 0.58596 0.08962 0.24316 0.0
C146 C 0.56468 0.0311 0.27031 0.0
C147 C 0.59001 0.03032 0.28244 0.0
C148 C 0.58687 0.03459 0.30028 0.0
C149 C 0.55843 0.04008 0.30632 0.0
C150 C 0.53354 0.04178 0.29399 0.0
C151 C 0.5367 0.0374 0.27614 0.0
P152 P 0.55745 0.55969 0.54705 0.0
H153 H 0.5709 0.52375 0.5172 0.0
H154 H 0.56325 0.46758 0.51253 0.0
H155 H 0.50184 0.44476 0.55712 0.0
H156 H 0.50903 0.50069 0.56143 0.0
H157 H 0.60224 0.62291 0.53828 0.0
H158 H 0.59573 0.67363 0.53344 0.0
H159 H 0.48856 0.62996 0.53339 0.0
H160 H 0.49551 0.57822 0.53866 0.0
H161 H 0.60184 0.55849 0.57731 0.0
H162 H 0.50246 0.56254 0.56842 0.0
O163 O 0.5983 0.56769 0.54468 0.0
H164 H 0.59672 0.56174 0.6087 0.0
H165 H 0.49687 0.56521 0.59995 0.0
C166 C 0.54037 0.51742 0.53958 0.0
C167 C 0.55474 0.50668 0.52565 0.0
C168 C 0.55088 0.47417 0.52321 0.0
C169 C 0.53237 0.45074 0.5346 0.0
C170 C 0.51625 0.46136 0.54789 0.0
C171 C 0.52024 0.4939 0.55035 0.0
C172 C 0.54946 0.59555 0.53852 0.0
C173 C 0.57704 0.6235 0.53677 0.0
C174 C 0.57324 0.65323 0.53397 0.0
C175 C 0.54153 0.65696 0.53285 0.0
C176 C 0.51361 0.62883 0.53429 0.0
C177 C 0.5175 0.59875 0.5371 0.0
C178 C 0.55283 0.56103 0.5704 0.0
C179 C 0.57886 0.56013 0.58206 0.0
C180 C 0.57578 0.56168 0.6001 0.0
C181 C 0.54642 0.56389 0.60693 0.0
C182 C 0.52008 0.56415 0.59518 0.0
C183 C 0.52323 0.56262 0.5771 0.0
P184 P 0.03846 0.6056 0.87239 0.0
H185 H 0.06816 0.61219 0.83847 0.0
H186 H 0.11558 0.5991 0.82803 0.0
H187 H 0.11746 0.54633 0.87479 0.0
H188 H 0.07087 0.56031 0.88531 0.0
H189 H 0.99493 0.64265 0.86589 0.0
H190 H 0.93683 0.62933 0.85573 0.0
H191 H 0.93016 0.53168 0.8479 0.0
H192 H 0.98908 0.54544 0.85827 0.0
H193 H 0.0694 0.64508 0.90333 0.0
H194 H 1.0015 0.55024 0.89239 0.0
O195 O 0.05674 0.64454 0.87003 0.0
H196 H 0.06526 0.63599 0.93461 0.0
H197 H 0.99718 0.54098 0.92381 0.0
C198 C 0.0659 0.58742 0.8627 0.0
C199 C 0.07823 0.5971 0.84626 0.0
C200 C 0.10546 0.58958 0.8403 0.0
C201 C 0.12091 0.57208 0.85068 0.0
C202 C 0.10683 0.56051 0.86661 0.0
C203 C 0.07975 0.5682 0.87258 0.0
C204 C 0.99668 0.59521 0.86247 0.0
C205 C 0.98133 0.61847 0.86163 0.0
C206 C 0.94793 0.61079 0.85579 0.0
C207 C 0.92873 0.57946 0.85081 0.0
C208 C 0.94417 0.55604 0.85165 0.0
C209 C 0.9779 0.56388 0.85743 0.0
C210 C 0.03539 0.59848 0.8955 0.0
C211 C 0.05342 0.62233 0.90763 0.0
C212 C 0.05096 0.61715 0.92555 0.0
C213 C 0.0307 0.58785 0.9317 0.0
C214 C 1.01309 0.56377 0.91949 0.0
C215 C 0.01535 0.56909 0.90153 0.0
P216 P 0.06596 0.53225 0.42626 0.0
H217 H 0.07222 0.555 0.46258 0.0
H218 H 0.10067 0.60736 0.47625 0.0
H219 H 0.11732 0.648 0.42514 0.0
H220 H 0.08962 0.59585 0.41166 0.0
H221 H 0.04804 0.46463 0.43102 0.0
H222 H 0.99883 0.42442 0.44149 0.0
H223 H 0.954 0.49624 0.45094 0.0
H224 H 1.00379 0.53668 0.44018 0.0
H225 H 0.10542 0.52727 0.39677 0.0
H226 H 1.01118 0.5408 0.4045 0.0
O227 O 0.09822 0.51944 0.43003 0.0
H228 H 0.09691 0.53039 0.36528 0.0
H229 H 1.00211 0.54342 0.37281 0.0
C230 C 0.07829 0.57148 0.4361 0.0
C231 C 0.08115 0.57537 0.45434 0.0
C232 C 0.09748 0.60533 0.46214 0.0
C233 C 0.11159 0.63186 0.45178 0.0
C234 C 0.1072 0.62802 0.4335 0.0
C235 C 0.09093 0.59814 0.42576 0.0
C236 C 0.02992 0.50375 0.43522 0.0
C237 C 0.02788 0.47189 0.43558 0.0
C238 C 0.99967 0.44887 0.44162 0.0
C239 C 0.97258 0.45711 0.44729 0.0
C240 C 0.97444 0.4891 0.44667 0.0
C241 C 1.00292 0.51226 0.44066 0.0
C242 C 0.05868 0.53333 0.40296 0.0
C243 C 0.08265 0.53053 0.39168 0.0
C244 C 0.07768 0.53219 0.37363 0.0
C245 C 0.04868 0.53689 0.36648 0.0
C246 C 0.02479 0.53994 0.37788 0.0
C247 C 0.0298 0.53821 0.39598 0.0
P248 P 0.55881 0.99634 0.7975 0.0
H249 H 0.60662 0.05972 0.80641 0.0
H250 H 0.59864 0.1096 0.81473 0.0
H251 H 0.49157 0.06279 0.81073 0.0
H252 H 0.49973 1.01345 0.80217 0.0
H253 H 0.50869 0.93241 0.78992 0.0
H254 H 0.47278 0.8932 0.80915 0.0
H255 H 0.51532 0.95557 0.8537 0.0
H256 H 0.55063 0.99462 0.83456 0.0
H257 H 0.60257 1.00942 0.76849 0.0
H258 H 0.4964 0.97744 0.77544 0.0
O259 O 0.59807 0.99793 0.8022 0.0
H260 H 0.59235 1.01291 0.73711 0.0
H261 H 0.48603 0.9803 0.74383 0.0
C262 C 0.55374 0.033 0.80381 0.0
C263 C 0.58148 0.06027 0.80739 0.0
C264 C 0.5769 0.08864 0.81224 0.0
C265 C 0.54448 0.09003 0.81339 0.0
C266 C 0.51682 0.06253 0.80976 0.0
C267 C 0.52145 0.03431 0.80494 0.0
C268 C 0.53189 0.96662 0.81081 0.0
C269 C 0.50984 0.93786 0.80376 0.0
C270 C 0.48928 0.91555 0.81472 0.0
C271 C 0.49115 0.92159 0.83285 0.0
C272 C 0.51335 0.9504 0.83977 0.0
C273 C 0.53354 0.97265 0.82885 0.0
C274 C 0.55023 0.99221 0.77425 0.0
C275 C 0.577 1.00227 0.76322 0.0
C276 C 0.57118 1.00459 0.74531 0.0
C277 C 0.53841 0.9969 0.7381 0.0
C278 C 0.51149 0.98604 0.74907 0.0
C279 C 0.51741 0.98418 0.76709 0.0
P280 P 0.50511 0.50893 0.09716 0.0
H281 H 0.53433 0.5018 0.13139 0.0
H282 H 0.59237 0.51748 0.14286 0.0
H283 H 0.62425 0.57202 0.09668 0.0
H284 H 0.56644 0.55732 0.08574 0.0
H285 H 0.43548 0.47095 0.09959 0.0
H286 H 0.38708 0.48183 0.10996 0.0
H287 H 0.44985 0.57683 0.12547 0.0
H288 H 0.49863 0.56563 0.11478 0.0
H289 H 0.53118 0.4845 0.06795 0.0
H290 H 0.48168 0.55296 0.076 0.0
O291 O 0.49769 0.47004 0.0987 0.0
H292 H 0.53324 0.49568 0.03682 0.0
H293 H 0.48389 0.5645 0.04482 0.0
C294 C 0.54595 0.52809 0.10765 0.0
C295 C 0.55377 0.51791 0.12401 0.0
C296 C 0.58707 0.52658 0.13043 0.0
C297 C 0.61325 0.54554 0.12056 0.0
C298 C 0.60494 0.55753 0.10473 0.0
C299 C 0.57165 0.54896 0.09838 0.0
C300 C 0.47081 0.51721 0.1068 0.0
C301 C 0.43906 0.49396 0.10552 0.0
C302 C 0.4113 0.50022 0.1115 0.0
C303 C 0.41451 0.53011 0.11875 0.0
C304 C 0.44647 0.55356 0.11995 0.0
C305 C 0.47441 0.54715 0.114 0.0
C306 C 0.50566 0.51738 0.07421 0.0
C307 C 0.52061 0.50185 0.06299 0.0
C308 C 0.52207 0.50851 0.04522 0.0
C309 C 0.5087 0.53097 0.03833 0.0
C310 C 0.49402 0.54678 0.04968 0.0
C311 C 0.49275 0.5402 0.06752 0.0
H312 H 0.11777 0.51148 0.15871 0.0
H313 H 0.17409 0.50961 0.15542 0.0
H314 H 0.20386 0.6024 0.13311 0.0
H315 H 0.14761 0.60438 0.13614 0.0
H316 H 0.22217 0.55916 0.11375 0.0
H317 H 0.26079 0.55591 0.18358 0.0
H318 H 0.22188 0.52584 0.17709 0.0
H319 H 0.22508 0.56689 0.17662 0.0
C320 C 0.13634 0.53163 0.15324 0.0
C321 C 0.12805 0.55809 0.14771 0.0
C322 C 0.16864 0.53059 0.15146 0.0
C323 C 0.19341 0.55606 0.14424 0.0
C324 C 0.18524 0.58253 0.13879 0.0
H325 H 0.39783 0.58383 0.11378 0.0
H326 H 0.34567 0.59228 0.12076 0.0
C327 C 0.153 0.58361 0.14056 0.0
C328 C 0.22732 0.55449 0.14156 0.0
H329 H 0.29588 0.54528 0.16276 0.0
C330 C 0.23841 0.5564 0.12448 0.0
C331 C 0.2485 0.55084 0.15556 0.0
C332 C 0.23866 0.55004 0.17427 0.0
C333 C 0.26962 0.55388 0.12096 0.0
C334 C 0.29071 0.54997 0.13494 0.0
C335 C 0.27976 0.54835 0.15205 0.0
C336 C 0.32358 0.54619 0.13197 0.0
C337 C 0.27926 0.55438 0.10222 0.0
C338 C 0.32916 0.51807 0.13663 0.0
C339 C 0.35907 0.51333 0.13285 0.0
C340 C 0.3842 0.53667 0.12436 0.0
C341 C 0.37912 0.5654 0.12037 0.0
C342 C 0.34913 0.57012 0.12416 0.0
H343 H 0.2573 0.54988 0.0929 0.0
H344 H 0.29736 0.57805 0.09952 0.0
H345 H 0.29133 0.53636 0.09973 0.0
H346 H 0.30998 0.49939 0.14281 0.0
H347 H 0.36234 0.49115 0.1364 0.0
H348 H 0.69358 0.23257 0.47886 0.0
H349 H 0.73669 0.28061 0.46941 0.0
H350 H 0.81313 0.24883 0.49348 0.0
H351 H 0.77057 0.20047 0.50238 0.0
H352 H 0.78541 0.32821 0.48928 0.0
H353 H 0.84446 0.26805 0.4441 0.0
H354 H 0.80391 0.24844 0.45255 0.0
H355 H 0.84132 0.25226 0.46564 0.0
C356 C 0.71959 0.23563 0.48196 0.0
C357 C 0.72854 0.21254 0.49136 0.0
C358 C 0.74418 0.26322 0.47666 0.0
C359 C 0.77817 0.26812 0.48052 0.0
C360 C 0.78712 0.24533 0.49007 0.0
H361 H 0.97073 0.40767 0.46838 0.0
H362 H 0.92187 0.3636 0.47626 0.0
C363 C 0.76265 0.21782 0.49534 0.0
C364 C 0.80448 0.29712 0.47479 0.0
H365 H 0.8756 0.32183 0.45205 0.0
C366 C 0.80495 0.3269 0.48098 0.0
C367 C 0.82986 0.29539 0.46389 0.0
C368 C 0.82976 0.26435 0.45601 0.0
C369 C 0.83092 0.35485 0.47716 0.0
C370 C 0.85684 0.35293 0.46672 0.0
C371 C 0.85585 0.32324 0.46017 0.0
C372 C 0.88596 0.38115 0.46286 0.0
C373 C 0.8311 0.38605 0.48481 0.0
C374 C 0.88203 0.40589 0.45282 0.0
C375 C 0.91004 0.43117 0.44821 0.0
C376 C 0.9425 0.43201 0.45346 0.0
C377 C 0.94617 0.40755 0.46389 0.0
C378 C 0.91825 0.38239 0.46847 0.0
H379 H 0.81331 0.38274 0.4954 0.0
H380 H 0.85652 0.40024 0.4901 0.0
H381 H 0.82376 0.39985 0.4744 0.0
H382 H 0.85739 0.40518 0.4481 0.0
H383 H 0.90634 0.4494 0.44 0.0
H384 H 0.51686 0.73924 0.90308 0.0
H385 H 0.48692 0.77597 0.90595 0.0
H386 H 0.39308 0.69963 0.89817 0.0
H387 H 0.42312 0.66189 0.89609 0.0
H388 H 0.4077 0.73858 0.87075 0.0
H389 H 0.42532 0.81376 0.9296 0.0
H390 H 0.46373 0.80689 0.92604 0.0
H391 H 0.42686 0.77386 0.93035 0.0
C392 C 0.48987 0.72964 0.90307 0.0
C393 C 0.47251 0.69763 0.89861 0.0
C394 C 0.47257 0.75092 0.90481 0.0
C395 C 0.43768 0.74069 0.90202 0.0
C396 C 0.42002 0.70809 0.90027 0.0
H397 H 0.42402 0.88749 0.83133 0.0
H398 H 0.39452 0.84452 0.8506 0.0
C399 C 0.43734 0.68661 0.89883 0.0
C400 C 0.42259 0.76405 0.89536 0.0
H401 H 0.43566 0.84274 0.90135 0.0
C402 C 0.41229 0.76107 0.87758 0.0
C403 C 0.42785 0.79309 0.90433 0.0
C404 C 0.4362 0.79689 0.92371 0.0
C405 C 0.41337 0.78774 0.86785 0.0
C406 C 0.4239 0.81788 0.8764 0.0
C407 C 0.42836 0.81976 0.89472 0.0
C408 C 0.43883 0.8472 0.86653 0.0
C409 C 0.40755 0.78383 0.84825 0.0
C410 C 0.47306 0.86394 0.8696 0.0
C411 C 0.4896 0.88861 0.85891 0.0
C412 C 0.47238 0.89695 0.84478 0.0
C413 C 0.43786 0.8811 0.84202 0.0
C414 C 0.42106 0.85663 0.853 0.0
H415 H 0.40247 0.75899 0.84365 0.0
H416 H 0.38572 0.79083 0.84411 0.0
H417 H 0.4297 0.79926 0.84165 0.0
H418 H 0.48743 0.85699 0.87984 0.0
H419 H 0.51625 0.90034 0.86127 0.0
H420 H 0.90114 0.51832 0.15593 0.0
H421 H 0.84334 0.51752 0.15265 0.0
H422 H 0.87704 0.61003 0.13002 0.0
H423 H 0.93481 0.61078 0.13291 0.0
H424 H 0.81256 0.55693 0.16608 0.0
H425 H 0.80672 0.56004 0.09369 0.0
H426 H 0.8403 0.55233 0.10595 0.0
H427 H 0.84017 0.59227 0.10383 0.0
C428 C 0.89631 0.53851 0.15023 0.0
C429 C 0.92269 0.56453 0.14456 0.0
C430 C 0.8632 0.53802 0.14837 0.0
C431 C 0.85571 0.56346 0.1408 0.0
C432 C 0.88205 0.58976 0.1355 0.0
H433 H 0.66845 0.59893 0.1171 0.0
H434 H 0.72727 0.60455 0.12301 0.0
C435 C 0.91515 0.59023 0.13726 0.0
C436 C 0.82038 0.56251 0.13856 0.0
H437 H 0.76059 0.56567 0.10795 0.0
C438 C 0.80118 0.55877 0.15336 0.0
C439 C 0.80547 0.5649 0.12196 0.0
C440 C 0.82409 0.56731 0.10542 0.0
C441 C 0.76769 0.55769 0.15204 0.0
C442 C 0.75285 0.56008 0.13545 0.0
C443 C 0.77207 0.56404 0.12068 0.0
C444 C 0.71708 0.5574 0.13301 0.0
C445 C 0.74857 0.5544 0.16844 0.0
C446 C 0.69177 0.52905 0.13669 0.0
C447 C 0.65813 0.52563 0.13318 0.0
C448 C 0.64896 0.5505 0.12587 0.0
C449 C 0.67446 0.57914 0.12254 0.0
C450 C 0.70814 0.58247 0.12598 0.0
H451 H 0.76557 0.56099 0.18033 0.0
H452 H 0.7324 0.56943 0.16802 0.0
H453 H 0.73228 0.52937 0.16954 0.0
H454 H 0.69807 0.50915 0.14176 0.0
H455 H 0.6394 0.50299 0.13557 0.0
H456 H 0.28598 0.89712 0.53352 0.0
H457 H 0.24388 0.84657 0.52401 0.0
H458 H 0.30812 0.83552 0.48428 0.0
H459 H 0.35074 0.88512 0.49411 0.0
H460 H 0.21003 0.82788 0.49208 0.0
H461 H 0.28549 0.7514 0.50847 0.0
H462 H 0.29727 0.79199 0.51627 0.0
H463 H 0.30644 0.7831 0.49451 0.0
C464 C 0.29135 0.88374 0.5229 0.0
C465 C 0.3219 0.89525 0.51464 0.0
C466 C 0.26714 0.85494 0.51741 0.0
C467 C 0.27304 0.83695 0.50362 0.0
C468 C 0.30324 0.84861 0.49518 0.0
H469 H 0.17126 0.67093 0.44081 0.0
H470 H 0.20794 0.72065 0.45432 0.0
C471 C 0.32745 0.87728 0.50068 0.0
C472 C 0.24752 0.8063 0.49776 0.0
H473 H 0.23667 0.72821 0.48969 0.0
C474 C 0.21568 0.806 0.49176 0.0
C475 C 0.25483 0.77768 0.49743 0.0
C476 C 0.28774 0.77591 0.50468 0.0
C477 C 0.19153 0.77816 0.48474 0.0
C478 C 0.19934 0.74988 0.48386 0.0
C479 C 0.23081 0.74999 0.49029 0.0
C480 C 0.17594 0.72025 0.47552 0.0
C481 C 0.15827 0.7794 0.47774 0.0
C482 C 0.14569 0.70342 0.48299 0.0
C483 C 0.1245 0.67488 0.47525 0.0
C484 C 0.13314 0.66275 0.45986 0.0
C485 C 0.16345 0.67984 0.45244 0.0
C486 C 0.18462 0.70817 0.46022 0.0
H487 H 0.1582 0.80412 0.47672 0.0
H488 H 0.15172 0.76755 0.46464 0.0
H489 H 0.13854 0.76656 0.48661 0.0
H490 H 0.13872 0.71213 0.49493 0.0
H491 H 0.10134 0.66234 0.48127 0.0
H492 H 0.44891 0.32033 0.80118 0.0
H493 H 0.46021 0.27152 0.80784 0.0
H494 H 0.53998 0.32304 0.8447 0.0
H495 H 0.52964 0.37221 0.83766 0.0
H496 H 0.55908 0.28714 0.82126 0.0
H497 H 0.44161 0.21474 0.84997 0.0
H498 H 0.43397 0.23086 0.8295 0.0
H499 H 0.45301 0.25715 0.84781 0.0
C500 C 0.46878 0.32124 0.81074 0.0
C501 C 0.48842 0.35009 0.81887 0.0
C502 C 0.47488 0.29328 0.81473 0.0
C503 C 0.5005 0.29363 0.82701 0.0
C504 C 0.51981 0.32227 0.83536 0.0
H505 H 0.57741 0.134 0.83892 0.0
H506 H 0.56858 0.1842 0.84575 0.0
C507 C 0.51378 0.35027 0.83136 0.0
C508 C 0.50917 0.26466 0.82971 0.0
H509 H 0.47483 0.18591 0.83772 0.0
C510 C 0.54098 0.26511 0.82524 0.0
C511 C 0.48552 0.23613 0.83503 0.0
C512 C 0.45174 0.23473 0.84103 0.0
C513 C 0.54893 0.23719 0.82469 0.0
C514 C 0.52449 0.2083 0.82892 0.0
C515 C 0.4934 0.20817 0.8344 0.0
C516 C 0.52925 0.17765 0.82568 0.0
C517 C 0.58259 0.23843 0.81855 0.0
C518 C 0.50972 0.15739 0.81235 0.0
C519 C 0.51471 0.12896 0.80841 0.0
C520 C 0.53927 0.1202 0.81781 0.0
C521 C 0.55862 0.1404 0.83133 0.0
C522 C 0.55355 0.16893 0.83528 0.0
H523 H 0.5969 0.26205 0.81353 0.0
H524 H 0.59752 0.23317 0.8296 0.0
H525 H 0.57955 0.22026 0.80807 0.0
H526 H 0.49099 0.16391 0.80475 0.0
H527 H 0.49975 0.11411 0.79778 0.0
H528 H 0.48523 0.93138 0.53377 0.0
H529 H 0.48653 0.8772 0.53538 0.0
H530 H 0.58189 0.90672 0.51183 0.0
H531 H 0.58112 0.96119 0.51065 0.0
H532 H 0.48588 0.83229 0.51328 0.0
H533 H 0.60634 0.8607 0.55106 0.0
H534 H 0.58598 0.88973 0.54756 0.0
H535 H 0.61072 0.88137 0.53091 0.0
C536 C 0.50667 0.92658 0.52896 0.0
C537 C 0.53318 0.95142 0.52216 0.0
C538 C 0.50737 0.89518 0.52988 0.0
C539 C 0.53465 0.88706 0.52412 0.0
C540 C 0.56085 0.91175 0.51697 0.0
H541 H 0.58323 0.70985 0.51625 0.0
H542 H 0.58059 0.76331 0.51448 0.0
C543 C 0.56024 0.94322 0.51612 0.0
C544 C 0.53523 0.853 0.52537 0.0
H545 H 0.58341 0.80829 0.53912 0.0
C546 C 0.50726 0.82727 0.51906 0.0
C547 C 0.56281 0.84541 0.53291 0.0
C548 C 0.593 0.8707 0.54116 0.0
C549 C 0.50641 0.79519 0.51966 0.0
C550 C 0.5341 0.78769 0.52704 0.0
C551 C 0.56203 0.81336 0.53337 0.0
C552 C 0.53494 0.75375 0.5281 0.0
C553 C 0.47598 0.76963 0.51183 0.0
C554 C 0.51035 0.72939 0.53644 0.0
C555 C 0.51197 0.69827 0.53769 0.0
C556 C 0.53836 0.69004 0.53071 0.0
C557 C 0.56272 0.71453 0.52222 0.0
C558 C 0.56116 0.74558 0.52106 0.0
H559 H 0.46139 0.77941 0.50251 0.0
H560 H 0.48304 0.7511 0.50492 0.0
H561 H 0.45947 0.75825 0.52243 0.0
H562 H 0.49007 0.73454 0.54241 0.0
H563 H 0.49283 0.68088 0.5446 0.0
H564 H 0.60845 0.5144 0.81078 0.0
H565 H 0.66517 0.5119 0.81418 0.0
H566 H 0.69647 0.59908 0.84469 0.0
H567 H 0.6401 0.60162 0.8416 0.0
H568 H 0.72594 0.55361 0.80454 0.0
H569 H 0.72736 0.54074 0.8763 0.0
H570 H 0.6894 0.53552 0.86326 0.0
H571 H 0.71687 0.57468 0.86958 0.0
C572 C 0.62736 0.53303 0.81825 0.0
C573 C 0.61947 0.5581 0.82601 0.0
C574 C 0.65982 0.53156 0.82017 0.0
C575 C 0.68501 0.55497 0.82998 0.0
C576 C 0.67734 0.5803 0.83743 0.0
H577 H 0.8995 0.61352 0.83011 0.0
H578 H 0.84001 0.60407 0.82423 0.0
C579 C 0.64501 0.5818 0.83554 0.0
C580 C 0.71949 0.55344 0.83224 0.0
H581 H 0.78035 0.55495 0.86329 0.0
C582 C 0.73772 0.55358 0.81738 0.0
C583 C 0.73479 0.55283 0.84898 0.0
C584 C 0.716 0.55059 0.86543 0.0
C585 C 0.77118 0.55448 0.81883 0.0
C586 C 0.78708 0.55578 0.8356 0.0
C587 C 0.76839 0.5543 0.85043 0.0
C588 C 0.82338 0.56011 0.83814 0.0
C589 C 0.78913 0.55396 0.80235 0.0
C590 C 0.83414 0.53877 0.8481 0.0
C591 C 0.86832 0.54432 0.85167 0.0
C592 C 0.89252 0.57155 0.84551 0.0
C593 C 0.88163 0.59246 0.83521 0.0
C594 C 0.84753 0.58689 0.83165 0.0
H595 H 0.77126 0.5428 0.79122 0.0
H596 H 0.8032 0.57866 0.79882 0.0
H597 H 0.8071 0.54092 0.80414 0.0
H598 H 0.81603 0.51804 0.85337 0.0
H599 H 0.87572 0.52791 0.85981 0.0
H600 H 0.22035 0.72426 0.16501 0.0
H601 H 0.27142 0.76616 0.17544 0.0
H602 H 0.22719 0.83679 0.16109 0.0
H603 H 0.17545 0.795 0.15132 0.0
H604 H 0.31406 0.81543 0.15778 0.0
H605 H 0.25874 0.86186 0.21162 0.0
H606 H 0.23713 0.82449 0.20045 0.0
H607 H 0.23845 0.86107 0.19048 0.0
C608 C 0.22125 0.74868 0.16427 0.0
C609 C 0.19358 0.75617 0.15745 0.0
C610 C 0.2506 0.77263 0.17011 0.0
C611 C 0.25297 0.80461 0.16931 0.0
C612 C 0.22572 0.81226 0.16217 0.0
H613 H 0.4165 0.9767 0.20414 0.0
H614 H 0.36486 0.9399 0.19014 0.0
C615 C 0.19628 0.78831 0.15637 0.0
C616 C 0.28412 0.82979 0.17583 0.0
H617 H 0.31526 0.88986 0.20632 0.0
C618 C 0.31431 0.83172 0.16838 0.0
C619 C 0.28442 0.85114 0.18963 0.0
C620 C 0.25303 0.84947 0.19864 0.0
C621 C 0.34475 0.8543 0.17437 0.0
C622 C 0.34511 0.87526 0.18835 0.0
C623 C 0.31488 0.87381 0.19558 0.0
C624 C 0.37677 0.8977 0.19627 0.0
C625 C 0.37629 0.85563 0.16563 0.0
C626 C 0.40043 0.88616 0.20445 0.0
C627 C 0.42984 0.90704 0.21241 0.0
C628 C 0.43621 0.93997 0.21245 0.0
C629 C 0.4125 0.95151 0.20419 0.0
C630 C 0.38294 0.93053 0.19627 0.0
H631 H 0.37078 0.84445 0.15234 0.0
H632 H 0.39321 0.88049 0.16461 0.0
H633 H 0.38968 0.84256 0.17355 0.0
H634 H 0.39595 0.8609 0.20485 0.0
H635 H 0.44771 0.89736 0.21848 0.0
H636 H 0.57738 0.17304 0.51787 0.0
H637 H 0.57736 0.22778 0.51942 0.0
H638 H 0.47659 0.19447 0.53645 0.0
H639 H 0.47663 0.13975 0.53517 0.0
H640 H 0.5421 0.2598 0.50286 0.0
H641 H 0.51643 0.26289 0.5728 0.0
H642 H 0.52707 0.23091 0.5631 0.0
H643 H 0.48505 0.23176 0.56064 0.0
C644 C 0.55514 0.17717 0.52206 0.0
C645 C 0.52707 0.15127 0.5265 0.0
C646 C 0.55515 0.20885 0.52291 0.0
C647 C 0.52723 0.21621 0.5284 0.0
C648 C 0.49901 0.1903 0.53263 0.0
H649 H 0.48136 0.39492 0.54266 0.0
H650 H 0.48027 0.33993 0.54087 0.0
C651 C 0.49895 0.1586 0.53174 0.0
C652 C 0.52753 0.25058 0.52933 0.0
H653 H 0.5141 0.30674 0.55628 0.0
C654 C 0.53611 0.26994 0.51463 0.0
C655 C 0.51966 0.26466 0.54453 0.0
C656 C 0.51185 0.24663 0.56122 0.0
C657 C 0.53636 0.30185 0.51456 0.0
C658 C 0.52867 0.31601 0.5298 0.0
C659 C 0.52003 0.29661 0.54449 0.0
C660 C 0.52949 0.35056 0.53081 0.0
C661 C 0.54385 0.31967 0.49779 0.0
C662 C 0.55758 0.37608 0.52607 0.0
C663 C 0.55828 0.40795 0.52708 0.0
C664 C 0.53106 0.41603 0.53309 0.0
C665 C 0.50311 0.39045 0.53807 0.0
C666 C 0.5024 0.35854 0.53699 0.0
H667 H 0.53835 0.30325 0.48625 0.0
H668 H 0.52914 0.33589 0.4961 0.0
H669 H 0.57082 0.33394 0.49804 0.0
H670 H 0.57952 0.37152 0.52182 0.0
H671 H 0.58079 0.42638 0.52351 0.0
H672 H 0.42895 0.61399 0.83239 0.0
H673 H 0.37126 0.61193 0.83506 0.0
H674 H 0.3361 0.52137 0.80779 0.0
H675 H 0.3939 0.52299 0.8052 0.0
H676 H 0.31873 0.60606 0.80992 0.0
H677 H 0.28849 0.50374 0.85426 0.0
H678 H 0.33084 0.52643 0.84937 0.0
H679 H 0.30465 0.49773 0.83373 0.0
C680 C 0.40907 0.59367 0.82683 0.0
C681 C 0.41624 0.56852 0.8187 0.0
C682 C 0.376 0.59258 0.82836 0.0
C683 C 0.34928 0.56627 0.82189 0.0
C684 C 0.35629 0.54166 0.81316 0.0
H685 H 0.13983 0.56123 0.81786 0.0
H686 H 0.19398 0.5585 0.80979 0.0
C687 C 0.38941 0.54276 0.81158 0.0
C688 C 0.31424 0.56442 0.82479 0.0
H689 H 0.24487 0.52332 0.84646 0.0
C690 C 0.30247 0.58784 0.81779 0.0
C691 C 0.29318 0.54087 0.83527 0.0
C692 C 0.30488 0.51587 0.84374 0.0
C693 C 0.27034 0.58844 0.82105 0.0
C694 C 0.24921 0.56478 0.83145 0.0
C695 C 0.26093 0.54127 0.83837 0.0
C696 C 0.21571 0.56516 0.83621 0.0
C697 C 0.2597 0.61503 0.81383 0.0
C698 C 0.2095 0.56894 0.85377 0.0
C699 C 0.17863 0.57055 0.85844 0.0
C700 C 0.15298 0.56817 0.84564 0.0
C701 C 0.15904 0.56362 0.82806 0.0
C702 C 0.19003 0.56206 0.8234 0.0
H703 H 0.28122 0.63483 0.8093 0.0
H704 H 0.24167 0.60587 0.80253 0.0
H705 H 0.2471 0.62445 0.82382 0.0
H706 H 0.22889 0.57141 0.86389 0.0
H707 H 0.17529 0.57463 0.87207 0.0
H708 H 0.85067 0.35307 0.15207 0.0
H709 H 0.8009 0.30796 0.15796 0.0
H710 H 0.81016 0.33761 0.21216 0.0
H711 H 0.85934 0.38312 0.20632 0.0
H712 H 0.7991 0.25977 0.18104 0.0
H713 H 0.71104 0.3206 0.19979 0.0
H714 H 0.74841 0.34024 0.18838 0.0
H715 H 0.75085 0.33509 0.21159 0.0
C716 C 0.8417 0.35037 0.16517 0.0
C717 C 0.85899 0.37172 0.17873 0.0
C718 C 0.81337 0.32447 0.16853 0.0
C719 C 0.80157 0.31961 0.18545 0.0
C720 C 0.81843 0.34118 0.19894 0.0
H721 H 0.66147 0.1725 0.24165 0.0
H722 H 0.702 0.22122 0.23147 0.0
C723 C 0.84678 0.367 0.19561 0.0
C724 C 0.77312 0.29084 0.18931 0.0
H725 H 0.69627 0.26585 0.20674 0.0
C726 C 0.77643 0.26105 0.18645 0.0
C727 C 0.74362 0.2926 0.19644 0.0
C728 C 0.73803 0.32383 0.19909 0.0
C729 C 0.75157 0.23302 0.19109 0.0
C730 C 0.72231 0.23479 0.1985 0.0
C731 C 0.71872 0.26455 0.20108 0.0
C732 C 0.69581 0.20607 0.20429 0.0
C733 C 0.75744 0.20184 0.18865 0.0
C734 C 0.67819 0.18169 0.19232 0.0
C735 C 0.65486 0.1538 0.19809 0.0
C736 C 0.64853 0.14983 0.21595 0.0
C737 C 0.6654 0.17484 0.2278 0.0
C738 C 0.68873 0.20268 0.22202 0.0
H739 H 0.78411 0.20521 0.1866 0.0
H740 H 0.74958 0.18667 0.20014 0.0
H741 H 0.7424 0.18903 0.17699 0.0
H742 H 0.68274 0.18409 0.17853 0.0
H743 H 0.64191 0.13526 0.18857 0.0
H744 H 0.03708 0.50675 0.09208 0.0
H745 H 0.03807 0.51555 0.06058 0.0
H746 H 1.00789 0.5974 0.06825 0.0
H747 H 1.00673 0.58867 0.09984 0.0
H748 H 0.98166 0.5194 0.03786 0.0
H749 H 0.09378 0.62844 0.03891 0.0
H750 H 0.08518 0.6012 0.05674 0.0
H751 H 0.06204 0.62791 0.0538 0.0
C752 C 0.03074 0.52668 0.08707 0.0
C753 C 0.0218 0.54703 0.09839 0.0
C754 C 0.03128 0.53163 0.06908 0.0
C755 C 0.02329 0.55723 0.06213 0.0
C756 C 1.01448 0.5777 0.0734 0.0
H757 H 0.02264 0.62797 0.95686 0.0
H758 H 0.01942 0.61987 0.98835 0.0
C759 C 1.01371 0.57263 0.0914 0.0
C760 C 0.02358 0.56205 0.04302 0.0
H761 H 0.06498 0.61154 0.01164 0.0
C762 C 0.99986 0.53951 0.03208 0.0
C763 C 0.04726 0.58838 0.0356 0.0
C764 C 0.07372 0.61284 0.04679 0.0
C765 C 0.99893 0.54278 0.01387 0.0
C766 C 0.02297 0.56889 0.00637 0.0
C767 C 0.0466 0.59151 0.01737 0.0
C768 C 0.02414 0.57325 0.98717 0.0
C769 C 0.9717 0.51863 0.0029 0.0
C770 C 0.02812 0.54985 0.97601 0.0
C771 C 0.02978 0.55436 0.95798 0.0
C772 C 0.02804 0.58259 0.95079 0.0
C773 C 0.02433 0.60608 0.96201 0.0
C774 C 0.0224 0.60145 0.98001 0.0
H775 H 0.95001 0.50611 0.01073 0.0
H776 H 0.96281 0.52988 0.99175 0.0
H777 H 0.98165 0.50061 0.99762 0.0
H778 H 0.03044 0.52827 0.98126 0.0
H779 H 0.03318 0.53605 0.94971 0.0
H780 H 0.56422 0.06485 0.47596 0.0
H781 H 0.57638 0.06871 0.44489 0.0
H782 H 0.47151 1.02343 0.43108 0.0
H783 H 0.45928 1.01997 0.462 0.0
H784 H 0.56431 1.02095 0.41968 0.0
H785 H 0.49507 0.10216 0.40155 0.0
H786 H 0.50529 0.09552 0.42397 0.0
H787 H 0.46991 0.0675 0.41229 0.0
C788 C 0.54384 0.05579 0.46628 0.0
C789 C 0.51084 0.04222 0.47137 0.0
C790 C 0.55078 0.05803 0.44855 0.0
C791 C 0.52477 0.04688 0.43565 0.0
C792 C 0.49187 0.0329 0.44077 0.0
H793 H 0.50135 1.01619 0.32427 0.0
H794 H 0.49512 1.01978 0.35569 0.0
C795 C 0.48495 0.03075 0.45845 0.0
C796 C 0.53195 0.04891 0.41684 0.0
H797 H 0.51102 0.07592 0.37797 0.0
C798 C 0.55299 0.03327 0.41058 0.0
C799 C 0.51719 0.06506 0.405 0.0
C800 C 0.49587 0.08378 0.41105 0.0
C801 C 0.55867 0.03235 0.3927 0.0
C802 C 0.54319 0.0478 0.38082 0.0
C803 C 0.5227 0.06397 0.38711 0.0
C804 C 0.54716 0.04665 0.36174 0.0
C805 C 0.58026 1.01399 0.38655 0.0
C806 C 0.57839 0.06108 0.3547 0.0
C807 C 0.58201 0.05934 0.3367 0.0
C808 C 0.55442 0.04315 0.32539 0.0
C809 C 0.52304 0.02919 0.33252 0.0
C810 C 0.51945 0.03104 0.3505 0.0
H811 H 0.58485 0.99832 0.3968 0.0
H812 H 0.5685 0.99928 0.37473 0.0
H813 H 0.60478 0.03085 0.38303 0.0
H814 H 0.59996 0.07375 0.36313 0.0
H815 H 0.6064 0.07085 0.33164 0.0
H816 H 0.56147 0.64374 0.77046 0.0
H817 H 0.56183 0.63799 0.73861 0.0
H818 H 0.51344 0.53702 0.74211 0.0
H819 H 0.51276 0.54269 0.77391 0.0
H820 H 0.59131 0.60195 0.71896 0.0
H821 H 0.45394 0.56248 0.70546 0.0
H822 H 0.47364 0.58068 0.72606 0.0
H823 H 0.46758 0.53967 0.72141 0.0
C824 C 0.55086 0.62035 0.76441 0.0
C825 C 0.53701 0.59367 0.77463 0.0
C826 C 0.55109 0.61709 0.74623 0.0
C827 C 0.53723 0.58714 0.73795 0.0
C828 C 0.5237 0.56042 0.74817 0.0
H829 H 0.56844 0.53235 0.63271 0.0
H830 H 0.56622 0.53829 0.66433 0.0
C831 C 0.52353 0.56367 0.76635 0.0
C832 C 0.53757 0.58379 0.71865 0.0
H833 H 0.48688 0.55957 0.68168 0.0
C834 C 0.56848 0.59275 0.7108 0.0
C835 C 0.50775 0.57212 0.70799 0.0
C836 C 0.4738 0.56343 0.71559 0.0
C837 C 0.57041 0.58984 0.69264 0.0
C838 C 0.54062 0.57731 0.68205 0.0
C839 C 0.50968 0.56889 0.68984 0.0
C840 C 0.54114 0.57308 0.66282 0.0
C841 C 0.6043 0.60061 0.6849 0.0
C842 C 0.52697 0.59003 0.65143 0.0
C843 C 0.52829 0.58678 0.63331 0.0
C844 C 0.54364 0.56633 0.6262 0.0
C845 C 0.55706 0.5488 0.6377 0.0
C846 C 0.55578 0.55212 0.6558 0.0
H847 H 0.62384 0.61646 0.69408 0.0
H848 H 0.61156 0.57959 0.68187 0.0
H849 H 0.60374 0.61329 0.67256 0.0
H850 H 0.51545 0.60626 0.65658 0.0
H851 H 0.51799 0.60088 0.6249 0.0
H852 H 0.56201 1.00063 0.57347 0.0
H853 H 0.55179 0.9891 0.60416 0.0
H854 H 0.50443 0.06046 0.60703 0.0
H855 H 0.51343 0.07112 0.57594 0.0
H856 H 0.57908 0.02944 0.62986 0.0
H857 H 0.44152 0.99103 0.63413 0.0
H858 H 0.46132 0.99367 0.61357 0.0
H859 H 0.45858 0.02873 0.6241 0.0
C860 C 0.54886 1.01345 0.58057 0.0
C861 C 0.53869 0.0369 0.57244 0.0
C862 C 0.543 1.00683 0.5981 0.0
C863 C 0.52721 1.02379 0.60794 0.0
C864 C 0.51601 0.04657 0.59966 0.0
H865 H 0.56685 0.0501 0.71988 0.0
H866 H 0.56134 0.05719 0.68843 0.0
C867 C 0.52137 0.05283 0.58195 0.0
C868 C 0.5259 1.01974 0.62713 0.0
H869 H 0.47396 1.00308 0.66117 0.0
C870 C 0.55601 1.02348 0.63666 0.0
C871 C 0.49579 1.01173 0.63601 0.0
C872 C 0.46242 1.00574 0.62642 0.0
C873 C 0.55698 1.01954 0.65475 0.0
C874 C 0.52713 1.01276 0.66376 0.0
C875 C 0.49687 1.00867 0.65427 0.0
C876 C 0.52713 1.00961 0.683 0.0
C877 C 0.58996 1.02203 0.66396 0.0
C878 C 0.5083 0.98109 0.69052 0.0
C879 C 0.51103 0.97717 0.70857 0.0
C880 C 0.53282 1.00166 0.71929 0.0
C881 C 0.55042 0.03064 0.71182 0.0
C882 C 0.54732 0.03469 0.69388 0.0
H883 H 0.60768 1.0179 0.65477 0.0
H884 H 0.60162 0.04623 0.66976 0.0
H885 H 0.5865 1.0047 0.67459 0.0
H886 H 0.49241 0.96151 0.68236 0.0
H887 H 0.49713 0.95465 0.71405 0.0
H888 H 0.49473 0.57949 0.87075 0.0
H889 H 0.49503 0.5842 0.90266 0.0
H890 H 0.53141 0.50536 0.90755 0.0
H891 H 0.53113 0.50052 0.87572 0.0
H892 H 0.4749 0.49998 0.92687 0.0
H893 H 0.57491 0.61671 0.9388 0.0
H894 H 0.54229 0.61583 0.92283 0.0
H895 H 0.57001 0.59421 0.91859 0.0
C896 C 0.50317 0.56344 0.87866 0.0
C897 C 0.51296 0.53965 0.87079 0.0
C898 C 0.50343 0.56622 0.89687 0.0
C899 C 0.5135 0.54528 0.90746 0.0
C900 C 0.52363 0.52179 0.8996 0.0
H901 H 0.56071 0.53836 0.0171 0.0
H902 H 0.56066 0.54424 0.98537 0.0
C903 C 0.52347 0.51906 0.88143 0.0
C904 C 0.51191 0.54655 0.92672 0.0
H905 H 0.54632 0.59168 0.96336 0.0
C906 C 0.49039 0.52008 0.93485 0.0
C907 C 0.53226 0.57278 0.93705 0.0
C908 C 0.5564 0.60146 0.92896 0.0
C909 C 0.48887 0.51897 0.95309 0.0
C910 C 0.5092 0.54516 0.96345 0.0
C911 C 0.53059 0.57176 0.95533 0.0
C912 C 0.50985 0.54441 0.98278 0.0
C913 C 0.46626 0.48938 0.96118 0.0
C914 C 0.4815 0.54324 0.99184 0.0
C915 C 0.48139 0.53974 0.00996 0.0
C916 C 0.50964 0.53731 0.01932 0.0
C917 C 0.53838 0.53964 0.01023 0.0
C918 C 0.5385 0.54325 0.99214 0.0
H919 H 0.45702 0.46922 0.9516 0.0
H920 H 0.4795 0.48225 0.97234 0.0
H921 H 0.4443 0.49419 0.96621 0.0
H922 H 0.45925 0.54439 0.98484 0.0
H923 H 0.45883 0.53788 0.01656 0.0
H924 H 0.05292 0.53804 0.1978 0.0
H925 H 0.05247 0.52742 0.22915 0.0
H926 H 1.01062 0.60132 0.23828 0.0
H927 H 1.01057 0.61171 0.20698 0.0
H928 H 0.08557 0.56929 0.25625 0.0
H929 H 0.94873 0.52712 0.26426 0.0
H930 H 0.96659 0.53005 0.24314 0.0
H931 H 0.96415 0.56486 0.25407 0.0
C932 C 0.0434 0.55184 0.20649 0.0
C933 C 0.03173 0.57567 0.19998 0.0
C934 C 0.04316 0.54576 0.22438 0.0
C935 C 0.03105 0.56326 0.23602 0.0
C936 C 0.01939 0.58706 0.2295 0.0
H937 H 0.02443 0.57809 0.3486 0.0
H938 H 0.01944 0.58334 0.3169 0.0
C939 C 0.0196 0.59312 0.21164 0.0
C940 C 0.03211 0.55769 0.25507 0.0
H941 H 0.98356 0.53832 0.29039 0.0
C942 C 0.06325 0.56227 0.2637 0.0
C943 C 1.00295 0.54865 0.26476 0.0
C944 C 0.96867 0.54208 0.25608 0.0
C945 C 0.06613 0.55874 0.28183 0.0
C946 C 0.03701 0.54989 0.29154 0.0
C947 C 1.00584 0.54516 0.28291 0.0
C948 C 0.03851 0.54558 0.31069 0.0
C949 C 0.10043 0.56534 0.2905 0.0
C950 C 0.05013 0.52211 0.31768 0.0
C951 C 0.05288 0.51896 0.33576 0.0
C952 C 0.04391 0.53913 0.34723 0.0
C953 C 0.03132 0.56201 0.34015 0.0
C954 C 0.02859 0.56515 0.32204 0.0
H955 H 0.12049 0.57923 0.28205 0.0
H956 H 0.10287 0.57852 0.30311 0.0
H957 H 0.1044 0.54252 0.29323 0.0
H958 H 0.05721 0.50629 0.30914 0.0
H959 H 0.06202 0.50067 0.34076 0.0
loop_
_geom_bond_atom_site_label_1
_geom_bond_atom_site_label_2
_geom_bond_distance
_geom_bond_site_symmetry_2
_ccdc_geom_bond_type
Pr0 C2 2.880 . S
Pr0 O20 2.562 . S
Pr0 O21 2.490 . S
Pr0 O22 2.695 1_655 S
Pr0 O23 2.512 . S
Pr0 O25 2.437 . S
Pr0 O28 2.440 1_655 S
Pr0 O30 2.438 1_655 S
Pr1 C11 2.880 . S
Pr1 O22 2.436 . S
Pr1 O24 2.438 1_455 S
Pr1 O26 2.562 . S
Pr1 O27 2.490 . S
Pr1 O28 2.698 . S
Pr1 O29 2.512 . S
Pr1 O31 2.437 . S
C2 Pr0 2.880 . S
C2 C3 1.491 . S
C2 O20 1.254 . S
C2 O21 1.225 . S
C3 C2 1.491 . S
C3 C4 1.392 . S
C3 C8 1.356 . S
C4 C3 1.392 . S
C4 C5 1.368 . S
C4 H32 0.929 . S
C5 C4 1.368 . S
C5 C6 1.386 . S
C5 H33 0.929 . S
C6 C5 1.386 . S
C6 C7 1.373 . S
C7 C6 1.373 . S
C7 C8 1.409 . S
C7 H34 0.931 . S
C8 C3 1.356 . S
C8 C7 1.409 . S
C8 H35 0.930 . S
C9 O22 1.270 . S
C9 O23 1.248 1_455 S
C10 O24 1.267 . S
C10 O25 1.278 . S
C11 Pr1 2.880 . S
C11 C12 1.491 . S
C11 O26 1.254 . S
C11 O27 1.225 . S
C12 C11 1.491 . S
C12 C13 1.392 . S
C12 C17 1.356 . S
C13 C12 1.392 . S
C13 C14 1.368 . S
C13 H36 0.929 . S
C14 C13 1.368 . S
C14 C15 1.386 . S
C14 H37 0.929 . S
C15 C14 1.386 . S
C15 C16 1.373 . S
C16 C15 1.373 . S
C16 C17 1.409 . S
C16 H38 0.931 . S
C17 C12 1.356 . S
C17 C16 1.409 . S
C17 H39 0.930 . S
C18 O28 1.274 . S
C18 O29 1.248 . S
C19 O30 1.267 . S
C19 O31 1.278 . S
O20 Pr0 2.562 . S
O20 C2 1.254 . S
O21 Pr0 2.490 . S
O21 C2 1.225 . S
O22 Pr0 2.695 1_455 S
O22 Pr1 2.436 . S
O22 C9 1.270 . S
O23 Pr0 2.512 . S
O23 C9 1.248 1_655 S
O24 Pr1 2.438 1_655 S
O24 C10 1.267 . S
O25 Pr0 2.437 . S
O25 C10 1.278 . S
O26 Pr1 2.562 . S
O26 C11 1.254 . S
O27 Pr1 2.490 . S
O27 C11 1.225 . S
O28 Pr0 2.440 1_455 S
O28 Pr1 2.698 . S
O28 C18 1.274 . S
O29 Pr1 2.512 . S
O29 C18 1.248 . S
O30 Pr0 2.438 1_455 S
O30 C19 1.267 . S
O31 Pr1 2.437 . S
O31 C19 1.278 . S
H32 C4 0.929 . S
H33 C5 0.929 . S
H34 C7 0.931 . S
H35 C8 0.930 . S
H36 C13 0.929 . S
H37 C14 0.929 . S
H38 C16 0.931 . S
H39 C17 0.930 . S
Pr40 C42 2.880 . S
Pr40 O60 2.562 . S
Pr40 O61 2.490 . S
Pr40 O62 2.695 . S
Pr40 O63 2.512 . S
Pr40 O65 2.437 . S
Pr40 O68 2.436 . S
Pr40 O70 2.438 1_545 S
Pr41 C51 2.880 1_545 S
Pr41 O62 2.436 . S
Pr41 O64 2.438 . S
Pr41 O66 2.562 1_545 S
Pr41 O67 2.490 1_545 S
Pr41 O68 2.695 . S
Pr41 O69 2.512 . S
Pr41 O71 2.437 1_545 S
C42 Pr40 2.880 . S
C42 C43 1.491 . S
C42 O60 1.254 . S
C42 O61 1.225 . S
C43 C42 1.491 . S
C43 C44 1.392 . S
C43 C48 1.356 . S
C44 C43 1.392 . S
C44 C45 1.368 . S
C44 H72 0.929 . S
C45 C44 1.368 . S
C45 C46 1.386 . S
C45 H73 0.929 . S
C46 C45 1.386 . S
C46 C47 1.373 . S
C47 C46 1.373 . S
C47 C48 1.409 . S
C47 H74 0.931 . S
C48 C43 1.356 . S
C48 C47 1.409 . S
C48 H75 0.930 . S
C49 O62 1.270 . S
C49 O63 1.248 . S
C50 O64 1.267 . S
C50 O65 1.278 . S
C51 Pr41 2.880 1_565 S
C51 C52 1.491 . S
C51 O66 1.254 . S
C51 O67 1.225 . S
C52 C51 1.491 . S
C52 C53 1.392 . S
C52 C57 1.356 . S
C53 C52 1.392 . S
C53 C54 1.368 . S
C53 H76 0.929 . S
C54 C53 1.368 . S
C54 C55 1.386 . S
C54 H77 0.929 . S
C55 C54 1.386 . S
C55 C56 1.373 . S
C56 C55 1.373 . S
C56 C57 1.409 . S
C56 H78 0.931 . S
C57 C52 1.356 . S
C57 C56 1.409 . S
C57 H79 0.930 . S
C58 O68 1.270 . S
C58 O69 1.248 . S
C59 O70 1.267 . S
C59 O71 1.278 . S
O60 Pr40 2.562 . S
O60 C42 1.254 . S
O61 Pr40 2.490 . S
O61 C42 1.225 . S
O62 Pr40 2.695 . S
O62 Pr41 2.436 . S
O62 C49 1.270 . S
O63 Pr40 2.512 . S
O63 C49 1.248 . S
O64 Pr41 2.438 . S
O64 C50 1.267 . S
O65 Pr40 2.437 . S
O65 C50 1.278 . S
O66 Pr41 2.562 1_565 S
O66 C51 1.254 . S
O67 Pr41 2.490 1_565 S
O67 C51 1.225 . S
O68 Pr40 2.436 . S
O68 Pr41 2.695 . S
O68 C58 1.270 . S
O69 Pr41 2.512 . S
O69 C58 1.248 . S
O70 Pr40 2.438 1_565 S
O70 C59 1.267 . S
O71 Pr41 2.437 1_565 S
O71 C59 1.278 . S
H72 C44 0.929 . S
H73 C45 0.929 . S
H74 C47 0.931 . S
H75 C48 0.930 . S
H76 C53 0.929 . S
H77 C54 0.929 . S
H78 C56 0.931 . S
H79 C57 0.930 . S
Pr80 C82 2.880 . S
Pr80 O100 2.562 . S
Pr80 O101 2.490 . S
Pr80 O102 2.695 . S
Pr80 O103 2.512 . S
Pr80 O105 2.437 . S
Pr80 O108 2.436 . S
Pr80 O110 2.438 . S
Pr81 C91 2.880 . S
Pr81 O102 2.436 . S
Pr81 O104 2.438 . S
Pr81 O106 2.562 . S
Pr81 O107 2.490 . S
Pr81 O108 2.695 . S
Pr81 O109 2.512 . S
Pr81 O111 2.437 . S
C82 Pr80 2.880 . S
C82 C83 1.491 . S
C82 O100 1.254 . S
C82 O101 1.225 . S
C83 C82 1.491 . S
C83 C84 1.392 . S
C83 C88 1.356 . S
C84 C83 1.392 . S
C84 C85 1.368 . S
C84 H112 0.929 . S
C85 C84 1.368 . S
C85 C86 1.386 . S
C85 H113 0.929 . S
C86 C85 1.386 . S
C86 C87 1.373 . S
C87 C86 1.373 . S
C87 C88 1.409 . S
C87 H114 0.931 . S
C88 C83 1.356 . S
C88 C87 1.409 . S
C88 H115 0.930 . S
C89 O102 1.270 . S
C89 O103 1.248 . S
C90 O104 1.267 . S
C90 O105 1.278 . S
C91 Pr81 2.880 . S
C91 C92 1.491 . S
C91 O106 1.254 . S
C91 O107 1.225 . S
C92 C91 1.491 . S
C92 C93 1.392 . S
C92 C97 1.356 . S
C93 C92 1.392 . S
C93 C94 1.368 . S
C93 H116 0.929 . S
C94 C93 1.368 . S
C94 C95 1.386 . S
C94 H117 0.929 . S
C95 C94 1.386 . S
C95 C96 1.373 . S
C96 C95 1.373 . S
C96 C97 1.409 . S
C96 H118 0.931 . S
C97 C92 1.356 . S
C97 C96 1.409 . S
C97 H119 0.930 . S
C98 O108 1.270 . S
C98 O109 1.248 . S
C99 O110 1.267 . S
C99 O111 1.278 . S
O100 Pr80 2.562 . S
O100 C82 1.254 . S
O101 Pr80 2.490 . S
O101 C82 1.225 . S
O102 Pr80 2.695 . S
O102 Pr81 2.436 . S
O102 C89 1.270 . S
O103 Pr80 2.512 . S
O103 C89 1.248 . S
O104 Pr81 2.438 . S
O104 C90 1.267 . S
O105 Pr80 2.437 . S
O105 C90 1.278 . S
O106 Pr81 2.562 . S
O106 C91 1.254 . S
O107 Pr81 2.490 . S
O107 C91 1.225 . S
O108 Pr80 2.436 . S
O108 Pr81 2.695 . S
O108 C98 1.270 . S
O109 Pr81 2.512 . S
O109 C98 1.248 . S
O110 Pr80 2.438 . S
O110 C99 1.267 . S
O111 Pr81 2.437 . S
O111 C99 1.278 . S
H112 C84 0.929 . S
H113 C85 0.929 . S
H114 C87 0.931 . S
H115 C88 0.930 . S
H116 C93 0.929 . S
H117 C94 0.929 . S
H118 C96 0.931 . S
H119 C97 0.930 . S
P120 O131 1.490 1_545 S
P120 C134 1.812 1_545 S
P120 C140 1.803 . S
P120 C146 1.819 . S
H121 C135 0.941 . S
H122 C136 0.939 . S
H123 C138 0.940 . S
H124 C139 0.940 1_545 S
H125 C141 0.939 . S
H126 C142 0.942 . S
H127 C144 0.940 . S
H128 C145 0.939 . S
H129 C147 0.941 . S
H130 C151 0.939 . S
O131 P120 1.490 1_565 S
H132 C148 0.939 1_565 S
H133 C150 0.940 . S
C134 P120 1.812 1_565 S
C134 C135 1.389 . S
C134 C139 1.391 . S
C135 H121 0.941 . S
C135 C134 1.389 . S
C135 C136 1.397 . S
C136 H122 0.939 . S
C136 C135 1.397 . S
C136 C137 1.378 . S
C137 C136 1.378 . S
C137 C138 1.378 . S
C138 H123 0.940 . S
C138 C137 1.378 . S
C138 C139 1.396 . S
C139 H124 0.940 1_565 S
C139 C134 1.391 . S
C139 C138 1.396 . S
C140 P120 1.803 . S
C140 C141 1.378 . S
C140 C145 1.400 . S
C141 H125 0.939 . S
C141 C140 1.378 . S
C141 C142 1.361 . S
C142 H126 0.942 . S
C142 C141 1.361 . S
C142 C143 1.369 . S
C143 C142 1.369 . S
C143 C144 1.404 . S
C144 H127 0.940 . S
C144 C143 1.404 . S
C144 C145 1.389 . S
C145 H128 0.939 . S
C145 C140 1.400 . S
C145 C144 1.389 . S
C146 P120 1.819 . S
C146 C147 1.391 1_545 S
C146 C151 1.391 . S
C147 H129 0.941 . S
C147 C146 1.391 1_565 S
C147 C148 1.396 1_565 S
C148 H132 0.939 1_545 S
C148 C147 1.396 1_545 S
C148 C149 1.397 . S
C149 C148 1.397 . S
C149 C150 1.385 . S
C150 H133 0.940 . S
C150 C149 1.385 . S
C150 C151 1.388 . S
C151 H130 0.939 . S
C151 C146 1.391 . S
C151 C150 1.388 . S
P152 O163 1.490 . S
P152 C166 1.812 . S
P152 C172 1.803 . S
P152 C178 1.819 . S
H153 C167 0.941 . S
H154 C168 0.939 . S
H155 C170 0.940 . S
H156 C171 0.940 . S
H157 C173 0.939 . S
H158 C174 0.942 . S
H159 C176 0.940 . S
H160 C177 0.939 . S
H161 C179 0.941 . S
H162 C183 0.939 . S
O163 P152 1.490 . S
H164 C180 0.939 . S
H165 C182 0.940 . S
C166 P152 1.812 . S
C166 C167 1.389 . S
C166 C171 1.391 . S
C167 H153 0.941 . S
C167 C166 1.389 . S
C167 C168 1.397 . S
C168 H154 0.939 . S
C168 C167 1.397 . S
C168 C169 1.378 . S
C169 C168 1.378 . S
C169 C170 1.378 . S
C170 H155 0.940 . S
C170 C169 1.378 . S
C170 C171 1.396 . S
C171 H156 0.940 . S
C171 C166 1.391 . S
C171 C170 1.396 . S
C172 P152 1.803 . S
C172 C173 1.378 . S
C172 C177 1.400 . S
C173 H157 0.939 . S
C173 C172 1.378 . S
C173 C174 1.361 . S
C174 H158 0.942 . S
C174 C173 1.361 . S
C174 C175 1.369 . S
C175 C174 1.369 . S
C175 C176 1.404 . S
C176 H159 0.940 . S
C176 C175 1.404 . S
C176 C177 1.389 . S
C177 H160 0.939 . S
C177 C172 1.400 . S
C177 C176 1.389 . S
C178 P152 1.819 . S
C178 C179 1.391 . S
C178 C183 1.391 . S
C179 H161 0.941 . S
C179 C178 1.391 . S
C179 C180 1.396 . S
C180 H164 0.939 . S
C180 C179 1.396 . S
C180 C181 1.397 . S
C181 C180 1.397 . S
C181 C182 1.385 . S
C182 H165 0.940 . S
C182 C181 1.385 . S
C182 C183 1.388 . S
C183 H162 0.939 . S
C183 C178 1.391 . S
C183 C182 1.388 . S
P184 O195 1.490 . S
P184 C198 1.812 . S
P184 C204 1.803 1_455 S
P184 C210 1.819 . S
H185 C199 0.941 . S
H186 C200 0.939 . S
H187 C202 0.940 . S
H188 C203 0.940 . S
H189 C205 0.939 . S
H190 C206 0.942 . S
H191 C208 0.940 . S
H192 C209 0.939 . S
H193 C211 0.941 . S
H194 C215 0.939 . S
O195 P184 1.490 . S
H196 C212 0.939 . S
H197 C214 0.940 . S
C198 P184 1.812 . S
C198 C199 1.389 . S
C198 C203 1.391 . S
C199 H185 0.941 . S
C199 C198 1.389 . S
C199 C200 1.397 . S
C200 H186 0.939 . S
C200 C199 1.397 . S
C200 C201 1.378 . S
C201 C200 1.378 . S
C201 C202 1.378 . S
C202 H187 0.940 . S
C202 C201 1.378 . S
C202 C203 1.396 . S
C203 H188 0.940 . S
C203 C198 1.391 . S
C203 C202 1.396 . S
C204 P184 1.803 1_655 S
C204 C205 1.378 . S
C204 C209 1.400 . S
C205 H189 0.939 . S
C205 C204 1.378 . S
C205 C206 1.361 . S
C206 H190 0.942 . S
C206 C205 1.361 . S
C206 C207 1.369 . S
C207 C206 1.369 . S
C207 C208 1.404 . S
C208 H191 0.940 . S
C208 C207 1.404 . S
C208 C209 1.389 . S
C209 H192 0.939 . S
C209 C204 1.400 . S
C209 C208 1.389 . S
C210 P184 1.819 . S
C210 C211 1.391 . S
C210 C215 1.391 1_455 S
C211 H193 0.941 . S
C211 C210 1.391 . S
C211 C212 1.396 . S
C212 H196 0.939 . S
C212 C211 1.396 . S
C212 C213 1.397 . S
C213 C212 1.397 . S
C213 C214 1.385 1_455 S
C214 H197 0.940 . S
C214 C213 1.385 1_655 S
C214 C215 1.388 . S
C215 H194 0.939 . S
C215 C210 1.391 1_655 S
C215 C214 1.388 . S
P216 O227 1.490 . S
P216 C230 1.812 . S
P216 C236 1.803 1_455 S
P216 C242 1.819 . S
H217 C231 0.941 . S
H218 C232 0.939 . S
H219 C234 0.940 . S
H220 C235 0.940 . S
H221 C237 0.939 . S
H222 C238 0.942 . S
H223 C240 0.940 . S
H224 C241 0.939 . S
H225 C243 0.941 . S
H226 C247 0.939 . S
O227 P216 1.490 . S
H228 C244 0.939 . S
H229 C246 0.940 . S
C230 P216 1.812 . S
C230 C231 1.389 . S
C230 C235 1.391 . S
C231 H217 0.941 . S
C231 C230 1.389 . S
C231 C232 1.397 . S
C232 H218 0.939 . S
C232 C231 1.397 . S
C232 C233 1.378 . S
C233 C232 1.378 . S
C233 C234 1.378 . S
C234 H219 0.940 . S
C234 C233 1.378 . S
C234 C235 1.396 . S
C235 H220 0.940 . S
C235 C230 1.391 . S
C235 C234 1.396 . S
C236 P216 1.803 1_655 S
C236 C237 1.378 . S
C236 C241 1.400 . S
C237 H221 0.939 . S
C237 C236 1.378 . S
C237 C238 1.361 . S
C238 H222 0.942 . S
C238 C237 1.361 . S
C238 C239 1.369 . S
C239 C238 1.369 . S
C239 C240 1.404 . S
C240 H223 0.940 . S
C240 C239 1.404 . S
C240 C241 1.389 . S
C241 H224 0.939 . S
C241 C236 1.400 . S
C241 C240 1.389 . S
C242 P216 1.819 . S
C242 C243 1.391 . S
C242 C247 1.391 1_455 S
C243 H225 0.941 . S
C243 C242 1.391 . S
C243 C244 1.396 . S
C244 H228 0.939 . S
C244 C243 1.396 . S
C244 C245 1.397 . S
C245 C244 1.397 . S
C245 C246 1.385 1_455 S
C246 H229 0.940 . S
C246 C245 1.385 1_655 S
C246 C247 1.388 . S
C247 H226 0.939 . S
C247 C242 1.391 1_655 S
C247 C246 1.388 . S
P248 O259 1.490 . S
P248 C262 1.812 . S
P248 C268 1.803 1_545 S
P248 C274 1.819 . S
H249 C263 0.941 . S
H250 C264 0.939 . S
H251 C266 0.940 . S
H252 C267 0.940 . S
H253 C269 0.939 . S
H254 C270 0.942 . S
H255 C272 0.940 . S
H256 C273 0.939 . S
H257 C275 0.941 . S
H258 C279 0.939 . S
O259 P248 1.490 . S
H260 C276 0.939 . S
H261 C278 0.940 . S
C262 P248 1.812 . S
C262 C263 1.389 . S
C262 C267 1.391 . S
C263 H249 0.941 . S
C263 C262 1.389 . S
C263 C264 1.397 . S
C264 H250 0.939 . S
C264 C263 1.397 . S
C264 C265 1.378 . S
C265 C264 1.378 . S
C265 C266 1.378 . S
C266 H251 0.940 . S
C266 C265 1.378 . S
C266 C267 1.396 . S
C267 H252 0.940 . S
C267 C262 1.391 . S
C267 C266 1.396 . S
C268 P248 1.803 1_565 S
C268 C269 1.378 . S
C268 C273 1.400 . S
C269 H253 0.939 . S
C269 C268 1.378 . S
C269 C270 1.361 . S
C270 H254 0.942 . S
C270 C269 1.361 . S
C270 C271 1.369 . S
C271 C270 1.369 . S
C271 C272 1.404 . S
C272 H255 0.940 . S
C272 C271 1.404 . S
C272 C273 1.389 . S
C273 H256 0.939 . S
C273 C268 1.400 . S
C273 C272 1.389 . S
C274 P248 1.819 . S
C274 C275 1.391 . S
C274 C279 1.391 1_545 S
C275 H257 0.941 . S
C275 C274 1.391 . S
C275 C276 1.396 . S
C276 H260 0.939 . S
C276 C275 1.396 . S
C276 C277 1.397 . S
C277 C276 1.397 . S
C277 C278 1.385 1_545 S
C278 H261 0.940 . S
C278 C277 1.385 1_565 S
C278 C279 1.388 . S
C279 H258 0.939 . S
C279 C274 1.391 1_565 S
C279 C278 1.388 . S
P280 O291 1.490 . S
P280 C294 1.812 . S
P280 C300 1.803 . S
P280 C306 1.819 . S
H281 C295 0.941 . S
H282 C296 0.939 . S
H283 C298 0.940 . S
H284 C299 0.940 . S
H285 C301 0.939 . S
H286 C302 0.942 . S
H287 C304 0.940 . S
H288 C305 0.939 . S
H289 C307 0.941 . S
H290 C311 0.939 . S
O291 P280 1.490 . S
H292 C308 0.939 . S
H293 C310 0.940 . S
C294 P280 1.812 . S
C294 C295 1.389 . S
C294 C299 1.391 . S
C295 H281 0.941 . S
C295 C294 1.389 . S
C295 C296 1.397 . S
C296 H282 0.939 . S
C296 C295 1.397 . S
C296 C297 1.378 . S
C297 C296 1.378 . S
C297 C298 1.378 . S
C298 H283 0.940 . S
C298 C297 1.378 . S
C298 C299 1.396 . S
C299 H284 0.940 . S
C299 C294 1.391 . S
C299 C298 1.396 . S
C300 P280 1.803 . S
C300 C301 1.378 . S
C300 C305 1.400 . S
C301 H285 0.939 . S
C301 C300 1.378 . S
C301 C302 1.361 . S
C302 H286 0.942 . S
C302 C301 1.361 . S
C302 C303 1.369 . S
C303 C302 1.369 . S
C303 C304 1.404 . S
C304 H287 0.940 . S
C304 C303 1.404 . S
C304 C305 1.389 . S
C305 H288 0.939 . S
C305 C300 1.400 . S
C305 C304 1.389 . S
C306 P280 1.819 . S
C306 C307 1.391 . S
C306 C311 1.391 . S
C307 H289 0.941 . S
C307 C306 1.391 . S
C307 C308 1.396 . S
C308 H292 0.939 . S
C308 C307 1.396 . S
C308 C309 1.397 . S
C309 C308 1.397 . S
C309 C310 1.385 . S
C310 H293 0.940 . S
C310 C309 1.385 . S
C310 C311 1.388 . S
C311 H290 0.939 . S
C311 C306 1.391 . S
C311 C310 1.388 . S
H312 C320 0.929 . S
H313 C322 0.930 . S
H314 C324 0.930 . S
H315 C327 0.929 . S
H316 C330 0.930 . S
H317 C332 0.960 . S
H318 C332 0.960 . S
H319 C332 0.960 . S
C320 H312 0.929 . S
C320 C321 1.377 . S
C320 C322 1.384 . S
C321 C320 1.377 . S
C321 C327 1.390 . S
C322 H313 0.930 . S
C322 C320 1.384 . S
C322 C323 1.372 . S
C323 C322 1.372 . S
C323 C324 1.400 . S
C323 C328 1.490 . S
C324 H314 0.930 . S
C324 C323 1.400 . S
C324 C327 1.386 . S
H325 C341 0.930 . S
H326 C342 0.931 . S
C327 H315 0.929 . S
C327 C321 1.390 . S
C327 C324 1.386 . S
C328 C323 1.490 . S
C328 C330 1.395 . S
C328 C331 1.403 . S
H329 C335 0.930 . S
C330 H316 0.930 . S
C330 C328 1.395 . S
C330 C333 1.403 . S
C331 C328 1.403 . S
C331 C332 1.524 . S
C331 C335 1.400 . S
C332 H317 0.960 . S
C332 H318 0.960 . S
C332 H319 0.960 . S
C332 C331 1.524 . S
C333 C330 1.403 . S
C333 C334 1.392 . S
C333 C337 1.495 . S
C334 C333 1.392 . S
C334 C335 1.385 . S
C334 C336 1.478 . S
C335 H329 0.930 . S
C335 C331 1.400 . S
C335 C334 1.385 . S
C336 C334 1.478 . S
C336 C338 1.381 . S
C336 C342 1.383 . S
C337 C333 1.495 . S
C337 H343 0.959 . S
C337 H344 0.961 . S
C337 H345 0.960 . S
C338 C336 1.381 . S
C338 C339 1.394 . S
C338 H346 0.930 . S
C339 C338 1.394 . S
C339 C340 1.383 . S
C339 H347 0.929 . S
C340 C339 1.383 . S
C340 C341 1.377 . S
C341 H325 0.930 . S
C341 C340 1.377 . S
C341 C342 1.379 . S
C342 H326 0.931 . S
C342 C336 1.383 . S
C342 C341 1.379 . S
H343 C337 0.959 . S
H344 C337 0.961 . S
H345 C337 0.960 . S
H346 C338 0.930 . S
H347 C339 0.929 . S
H348 C356 0.929 . S
H349 C358 0.930 . S
H350 C360 0.930 . S
H351 C363 0.929 . S
H352 C366 0.930 . S
H353 C368 0.960 . S
H354 C368 0.960 . S
H355 C368 0.960 . S
C356 H348 0.929 . S
C356 C357 1.377 . S
C356 C358 1.384 . S
C357 C356 1.377 . S
C357 C363 1.390 . S
C358 H349 0.930 . S
C358 C356 1.384 . S
C358 C359 1.372 . S
C359 C358 1.372 . S
C359 C360 1.400 . S
C359 C364 1.490 . S
C360 H350 0.930 . S
C360 C359 1.400 . S
C360 C363 1.386 . S
H361 C377 0.930 . S
H362 C378 0.931 . S
C363 H351 0.929 . S
C363 C357 1.390 . S
C363 C360 1.386 . S
C364 C359 1.490 . S
C364 C366 1.395 . S
C364 C367 1.403 . S
H365 C371 0.930 . S
C366 H352 0.930 . S
C366 C364 1.395 . S
C366 C369 1.403 . S
C367 C364 1.403 . S
C367 C368 1.524 . S
C367 C371 1.400 . S
C368 H353 0.960 . S
C368 H354 0.960 . S
C368 H355 0.960 . S
C368 C367 1.524 . S
C369 C366 1.403 . S
C369 C370 1.392 . S
C369 C373 1.495 . S
C370 C369 1.392 . S
C370 C371 1.385 . S
C370 C372 1.478 . S
C371 H365 0.930 . S
C371 C367 1.400 . S
C371 C370 1.385 . S
C372 C370 1.478 . S
C372 C374 1.381 . S
C372 C378 1.383 . S
C373 C369 1.495 . S
C373 H379 0.959 . S
C373 H380 0.961 . S
C373 H381 0.960 . S
C374 C372 1.381 . S
C374 C375 1.394 . S
C374 H382 0.930 . S
C375 C374 1.394 . S
C375 C376 1.383 . S
C375 H383 0.929 . S
C376 C375 1.383 . S
C376 C377 1.377 . S
C377 H361 0.930 . S
C377 C376 1.377 . S
C377 C378 1.379 . S
C378 H362 0.931 . S
C378 C372 1.383 . S
C378 C377 1.379 . S
H379 C373 0.959 . S
H380 C373 0.961 . S
H381 C373 0.960 . S
H382 C374 0.930 . S
H383 C375 0.929 . S
H384 C392 0.929 . S
H385 C394 0.930 . S
H386 C396 0.930 . S
H387 C399 0.929 . S
H388 C402 0.930 . S
H389 C404 0.960 . S
H390 C404 0.960 . S
H391 C404 0.960 . S
C392 H384 0.929 . S
C392 C393 1.377 . S
C392 C394 1.384 . S
C393 C392 1.377 . S
C393 C399 1.390 . S
C394 H385 0.930 . S
C394 C392 1.384 . S
C394 C395 1.372 . S
C395 C394 1.372 . S
C395 C396 1.400 . S
C395 C400 1.490 . S
C396 H386 0.930 . S
C396 C395 1.400 . S
C396 C399 1.386 . S
H397 C413 0.930 . S
H398 C414 0.931 . S
C399 H387 0.929 . S
C399 C393 1.390 . S
C399 C396 1.386 . S
C400 C395 1.490 . S
C400 C402 1.395 . S
C400 C403 1.403 . S
H401 C407 0.930 . S
C402 H388 0.930 . S
C402 C400 1.395 . S
C402 C405 1.403 . S
C403 C400 1.403 . S
C403 C404 1.524 . S
C403 C407 1.400 . S
C404 H389 0.960 . S
C404 H390 0.960 . S
C404 H391 0.960 . S
C404 C403 1.524 . S
C405 C402 1.403 . S
C405 C406 1.392 . S
C405 C409 1.495 . S
C406 C405 1.392 . S
C406 C407 1.385 . S
C406 C408 1.478 . S
C407 H401 0.930 . S
C407 C403 1.400 . S
C407 C406 1.385 . S
C408 C406 1.478 . S
C408 C410 1.381 . S
C408 C414 1.383 . S
C409 C405 1.495 . S
C409 H415 0.959 . S
C409 H416 0.961 . S
C409 H417 0.960 . S
C410 C408 1.381 . S
C410 C411 1.394 . S
C410 H418 0.930 . S
C411 C410 1.394 . S
C411 C412 1.383 . S
C411 H419 0.929 . S
C412 C411 1.383 . S
C412 C413 1.377 . S
C413 H397 0.930 . S
C413 C412 1.377 . S
C413 C414 1.379 . S
C414 H398 0.931 . S
C414 C408 1.383 . S
C414 C413 1.379 . S
H415 C409 0.959 . S
H416 C409 0.961 . S
H417 C409 0.960 . S
H418 C410 0.930 . S
H419 C411 0.929 . S
H420 C428 0.929 . S
H421 C430 0.930 . S
H422 C432 0.930 . S
H423 C435 0.929 . S
H424 C438 0.930 . S
H425 C440 0.960 . S
H426 C440 0.960 . S
H427 C440 0.960 . S
C428 H420 0.929 . S
C428 C429 1.377 . S
C428 C430 1.384 . S
C429 C428 1.377 . S
C429 C435 1.390 . S
C430 H421 0.930 . S
C430 C428 1.384 . S
C430 C431 1.372 . S
C431 C430 1.372 . S
C431 C432 1.400 . S
C431 C436 1.490 . S
C432 H422 0.930 . S
C432 C431 1.400 . S
C432 C435 1.386 . S
H433 C449 0.930 . S
H434 C450 0.931 . S
C435 H423 0.929 . S
C435 C429 1.390 . S
C435 C432 1.386 . S
C436 C431 1.490 . S
C436 C438 1.395 . S
C436 C439 1.403 . S
H437 C443 0.930 . S
C438 H424 0.930 . S
C438 C436 1.395 . S
C438 C441 1.403 . S
C439 C436 1.403 . S
C439 C440 1.524 . S
C439 C443 1.400 . S
C440 H425 0.960 . S
C440 H426 0.960 . S
C440 H427 0.960 . S
C440 C439 1.524 . S
C441 C438 1.403 . S
C441 C442 1.392 . S
C441 C445 1.495 . S
C442 C441 1.392 . S
C442 C443 1.385 . S
C442 C444 1.478 . S
C443 H437 0.930 . S
C443 C439 1.400 . S
C443 C442 1.385 . S
C444 C442 1.478 . S
C444 C446 1.381 . S
C444 C450 1.383 . S
C445 C441 1.495 . S
C445 H451 0.959 . S
C445 H452 0.961 . S
C445 H453 0.960 . S
C446 C444 1.381 . S
C446 C447 1.394 . S
C446 H454 0.930 . S
C447 C446 1.394 . S
C447 C448 1.383 . S
C447 H455 0.929 . S
C448 C447 1.383 . S
C448 C449 1.377 . S
C449 H433 0.930 . S
C449 C448 1.377 . S
C449 C450 1.379 . S
C450 H434 0.931 . S
C450 C444 1.383 . S
C450 C449 1.379 . S
H451 C445 0.959 . S
H452 C445 0.961 . S
H453 C445 0.960 . S
H454 C446 0.930 . S
H455 C447 0.929 . S
H456 C464 0.929 . S
H457 C466 0.930 . S
H458 C468 0.930 . S
H459 C471 0.929 . S
H460 C474 0.930 . S
H461 C476 0.960 . S
H462 C476 0.960 . S
H463 C476 0.960 . S
C464 H456 0.929 . S
C464 C465 1.377 . S
C464 C466 1.384 . S
C465 C464 1.377 . S
C465 C471 1.390 . S
C466 H457 0.930 . S
C466 C464 1.384 . S
C466 C467 1.372 . S
C467 C466 1.372 . S
C467 C468 1.400 . S
C467 C472 1.490 . S
C468 H458 0.930 . S
C468 C467 1.400 . S
C468 C471 1.386 . S
H469 C485 0.930 . S
H470 C486 0.931 . S
C471 H459 0.929 . S
C471 C465 1.390 . S
C471 C468 1.386 . S
C472 C467 1.490 . S
C472 C474 1.395 . S
C472 C475 1.403 . S
H473 C479 0.930 . S
C474 H460 0.930 . S
C474 C472 1.395 . S
C474 C477 1.403 . S
C475 C472 1.403 . S
C475 C476 1.524 . S
C475 C479 1.400 . S
C476 H461 0.960 . S
C476 H462 0.960 . S
C476 H463 0.960 . S
C476 C475 1.524 . S
C477 C474 1.403 . S
C477 C478 1.392 . S
C477 C481 1.495 . S
C478 C477 1.392 . S
C478 C479 1.385 . S
C478 C480 1.478 . S
C479 H473 0.930 . S
C479 C475 1.400 . S
C479 C478 1.385 . S
C480 C478 1.478 . S
C480 C482 1.381 . S
C480 C486 1.383 . S
C481 C477 1.495 . S
C481 H487 0.959 . S
C481 H488 0.961 . S
C481 H489 0.960 . S
C482 C480 1.381 . S
C482 C483 1.394 . S
C482 H490 0.930 . S
C483 C482 1.394 . S
C483 C484 1.383 . S
C483 H491 0.929 . S
C484 C483 1.383 . S
C484 C485 1.377 . S
C485 H469 0.930 . S
C485 C484 1.377 . S
C485 C486 1.379 . S
C486 H470 0.931 . S
C486 C480 1.383 . S
C486 C485 1.379 . S
H487 C481 0.959 . S
H488 C481 0.961 . S
H489 C481 0.960 . S
H490 C482 0.930 . S
H491 C483 0.929 . S
H492 C500 0.929 . S
H493 C502 0.930 . S
H494 C504 0.930 . S
H495 C507 0.929 . S
H496 C510 0.930 . S
H497 C512 0.960 . S
H498 C512 0.960 . S
H499 C512 0.960 . S
C500 H492 0.929 . S
C500 C501 1.377 . S
C500 C502 1.384 . S
C501 C500 1.377 . S
C501 C507 1.390 . S
C502 H493 0.930 . S
C502 C500 1.384 . S
C502 C503 1.372 . S
C503 C502 1.372 . S
C503 C504 1.400 . S
C503 C508 1.490 . S
C504 H494 0.930 . S
C504 C503 1.400 . S
C504 C507 1.386 . S
H505 C521 0.930 . S
H506 C522 0.931 . S
C507 H495 0.929 . S
C507 C501 1.390 . S
C507 C504 1.386 . S
C508 C503 1.490 . S
C508 C510 1.395 . S
C508 C511 1.403 . S
H509 C515 0.930 . S
C510 H496 0.930 . S
C510 C508 1.395 . S
C510 C513 1.403 . S
C511 C508 1.403 . S
C511 C512 1.524 . S
C511 C515 1.400 . S
C512 H497 0.960 . S
C512 H498 0.960 . S
C512 H499 0.960 . S
C512 C511 1.524 . S
C513 C510 1.403 . S
C513 C514 1.392 . S
C513 C517 1.495 . S
C514 C513 1.392 . S
C514 C515 1.385 . S
C514 C516 1.478 . S
C515 H509 0.930 . S
C515 C511 1.400 . S
C515 C514 1.385 . S
C516 C514 1.478 . S
C516 C518 1.381 . S
C516 C522 1.383 . S
C517 C513 1.495 . S
C517 H523 0.959 . S
C517 H524 0.961 . S
C517 H525 0.960 . S
C518 C516 1.381 . S
C518 C519 1.394 . S
C518 H526 0.930 . S
C519 C518 1.394 . S
C519 C520 1.383 . S
C519 H527 0.929 . S
C520 C519 1.383 . S
C520 C521 1.377 . S
C521 H505 0.930 . S
C521 C520 1.377 . S
C521 C522 1.379 . S
C522 H506 0.931 . S
C522 C516 1.383 . S
C522 C521 1.379 . S
H523 C517 0.959 . S
H524 C517 0.961 . S
H525 C517 0.960 . S
H526 C518 0.930 . S
H527 C519 0.929 . S
H528 C536 0.929 . S
H529 C538 0.930 . S
H530 C540 0.930 . S
H531 C543 0.929 . S
H532 C546 0.930 . S
H533 C548 0.960 . S
H534 C548 0.960 . S
H535 C548 0.960 . S
C536 H528 0.929 . S
C536 C537 1.377 . S
C536 C538 1.384 . S
C537 C536 1.377 . S
C537 C543 1.390 . S
C538 H529 0.930 . S
C538 C536 1.384 . S
C538 C539 1.372 . S
C539 C538 1.372 . S
C539 C540 1.400 . S
C539 C544 1.490 . S
C540 H530 0.930 . S
C540 C539 1.400 . S
C540 C543 1.386 . S
H541 C557 0.930 . S
H542 C558 0.931 . S
C543 H531 0.929 . S
C543 C537 1.390 . S
C543 C540 1.386 . S
C544 C539 1.490 . S
C544 C546 1.395 . S
C544 C547 1.403 . S
H545 C551 0.930 . S
C546 H532 0.930 . S
C546 C544 1.395 . S
C546 C549 1.403 . S
C547 C544 1.403 . S
C547 C548 1.524 . S
C547 C551 1.400 . S
C548 H533 0.960 . S
C548 H534 0.960 . S
C548 H535 0.960 . S
C548 C547 1.524 . S
C549 C546 1.403 . S
C549 C550 1.392 . S
C549 C553 1.495 . S
C550 C549 1.392 . S
C550 C551 1.385 . S
C550 C552 1.478 . S
C551 H545 0.930 . S
C551 C547 1.400 . S
C551 C550 1.385 . S
C552 C550 1.478 . S
C552 C554 1.381 . S
C552 C558 1.383 . S
C553 C549 1.495 . S
C553 H559 0.959 . S
C553 H560 0.961 . S
C553 H561 0.960 . S
C554 C552 1.381 . S
C554 C555 1.394 . S
C554 H562 0.930 . S
C555 C554 1.394 . S
C555 C556 1.383 . S
C555 H563 0.929 . S
C556 C555 1.383 . S
C556 C557 1.377 . S
C557 H541 0.930 . S
C557 C556 1.377 . S
C557 C558 1.379 . S
C558 H542 0.931 . S
C558 C552 1.383 . S
C558 C557 1.379 . S
H559 C553 0.959 . S
H560 C553 0.961 . S
H561 C553 0.960 . S
H562 C554 0.930 . S
H563 C555 0.929 . S
H564 C572 0.929 . S
H565 C574 0.930 . S
H566 C576 0.930 . S
H567 C579 0.929 . S
H568 C582 0.930 . S
H569 C584 0.960 . S
H570 C584 0.960 . S
H571 C584 0.960 . S
C572 H564 0.929 . S
C572 C573 1.377 . S
C572 C574 1.384 . S
C573 C572 1.377 . S
C573 C579 1.390 . S
C574 H565 0.930 . S
C574 C572 1.384 . S
C574 C575 1.372 . S
C575 C574 1.372 . S
C575 C576 1.400 . S
C575 C580 1.490 . S
C576 H566 0.930 . S
C576 C575 1.400 . S
C576 C579 1.386 . S
H577 C593 0.930 . S
H578 C594 0.931 . S
C579 H567 0.929 . S
C579 C573 1.390 . S
C579 C576 1.386 . S
C580 C575 1.490 . S
C580 C582 1.395 . S
C580 C583 1.403 . S
H581 C587 0.930 . S
C582 H568 0.930 . S
C582 C580 1.395 . S
C582 C585 1.403 . S
C583 C580 1.403 . S
C583 C584 1.524 . S
C583 C587 1.400 . S
C584 H569 0.960 . S
C584 H570 0.960 . S
C584 H571 0.960 . S
C584 C583 1.524 . S
C585 C582 1.403 . S
C585 C586 1.392 . S
C585 C589 1.495 . S
C586 C585 1.392 . S
C586 C587 1.385 . S
C586 C588 1.478 . S
C587 H581 0.930 . S
C587 C583 1.400 . S
C587 C586 1.385 . S
C588 C586 1.478 . S
C588 C590 1.381 . S
C588 C594 1.383 . S
C589 C585 1.495 . S
C589 H595 0.959 . S
C589 H596 0.961 . S
C589 H597 0.960 . S
C590 C588 1.381 . S
C590 C591 1.394 . S
C590 H598 0.930 . S
C591 C590 1.394 . S
C591 C592 1.383 . S
C591 H599 0.929 . S
C592 C591 1.383 . S
C592 C593 1.377 . S
C593 H577 0.930 . S
C593 C592 1.377 . S
C593 C594 1.379 . S
C594 H578 0.931 . S
C594 C588 1.383 . S
C594 C593 1.379 . S
H595 C589 0.959 . S
H596 C589 0.961 . S
H597 C589 0.960 . S
H598 C590 0.930 . S
H599 C591 0.929 . S
H600 C608 0.929 . S
H601 C610 0.930 . S
H602 C612 0.930 . S
H603 C615 0.929 . S
H604 C618 0.930 . S
H605 C620 0.960 . S
H606 C620 0.960 . S
H607 C620 0.960 . S
C608 H600 0.929 . S
C608 C609 1.377 . S
C608 C610 1.384 . S
C609 C608 1.377 . S
C609 C615 1.390 . S
C610 H601 0.930 . S
C610 C608 1.384 . S
C610 C611 1.372 . S
C611 C610 1.372 . S
C611 C612 1.400 . S
C611 C616 1.490 . S
C612 H602 0.930 . S
C612 C611 1.400 . S
C612 C615 1.386 . S
H613 C629 0.930 . S
H614 C630 0.931 . S
C615 H603 0.929 . S
C615 C609 1.390 . S
C615 C612 1.386 . S
C616 C611 1.490 . S
C616 C618 1.395 . S
C616 C619 1.403 . S
H617 C623 0.930 . S
C618 H604 0.930 . S
C618 C616 1.395 . S
C618 C621 1.403 . S
C619 C616 1.403 . S
C619 C620 1.524 . S
C619 C623 1.400 . S
C620 H605 0.960 . S
C620 H606 0.960 . S
C620 H607 0.960 . S
C620 C619 1.524 . S
C621 C618 1.403 . S
C621 C622 1.392 . S
C621 C625 1.495 . S
C622 C621 1.392 . S
C622 C623 1.385 . S
C622 C624 1.478 . S
C623 H617 0.930 . S
C623 C619 1.400 . S
C623 C622 1.385 . S
C624 C622 1.478 . S
C624 C626 1.381 . S
C624 C630 1.383 . S
C625 C621 1.495 . S
C625 H631 0.959 . S
C625 H632 0.961 . S
C625 H633 0.960 . S
C626 C624 1.381 . S
C626 C627 1.394 . S
C626 H634 0.930 . S
C627 C626 1.394 . S
C627 C628 1.383 . S
C627 H635 0.929 . S
C628 C627 1.383 . S
C628 C629 1.377 . S
C629 H613 0.930 . S
C629 C628 1.377 . S
C629 C630 1.379 . S
C630 H614 0.931 . S
C630 C624 1.383 . S
C630 C629 1.379 . S
H631 C625 0.959 . S
H632 C625 0.961 . S
H633 C625 0.960 . S
H634 C626 0.930 . S
H635 C627 0.929 . S
H636 C644 0.929 . S
H637 C646 0.930 . S
H638 C648 0.930 . S
H639 C651 0.929 . S
H640 C654 0.930 . S
H641 C656 0.960 . S
H642 C656 0.960 . S
H643 C656 0.960 . S
C644 H636 0.929 . S
C644 C645 1.377 . S
C644 C646 1.384 . S
C645 C644 1.377 . S
C645 C651 1.390 . S
C646 H637 0.930 . S
C646 C644 1.384 . S
C646 C647 1.372 . S
C647 C646 1.372 . S
C647 C648 1.400 . S
C647 C652 1.490 . S
C648 H638 0.930 . S
C648 C647 1.400 . S
C648 C651 1.386 . S
H649 C665 0.930 . S
H650 C666 0.931 . S
C651 H639 0.929 . S
C651 C645 1.390 . S
C651 C648 1.386 . S
C652 C647 1.490 . S
C652 C654 1.395 . S
C652 C655 1.403 . S
H653 C659 0.930 . S
C654 H640 0.930 . S
C654 C652 1.395 . S
C654 C657 1.403 . S
C655 C652 1.403 . S
C655 C656 1.524 . S
C655 C659 1.400 . S
C656 H641 0.960 . S
C656 H642 0.960 . S
C656 H643 0.960 . S
C656 C655 1.524 . S
C657 C654 1.403 . S
C657 C658 1.392 . S
C657 C661 1.495 . S
C658 C657 1.392 . S
C658 C659 1.385 . S
C658 C660 1.478 . S
C659 H653 0.930 . S
C659 C655 1.400 . S
C659 C658 1.385 . S
C660 C658 1.478 . S
C660 C662 1.381 . S
C660 C666 1.383 . S
C661 C657 1.495 . S
C661 H667 0.959 . S
C661 H668 0.961 . S
C661 H669 0.960 . S
C662 C660 1.381 . S
C662 C663 1.394 . S
C662 H670 0.930 . S
C663 C662 1.394 . S
C663 C664 1.383 . S
C663 H671 0.929 . S
C664 C663 1.383 . S
C664 C665 1.377 . S
C665 H649 0.930 . S
C665 C664 1.377 . S
C665 C666 1.379 . S
C666 H650 0.931 . S
C666 C660 1.383 . S
C666 C665 1.379 . S
H667 C661 0.959 . S
H668 C661 0.961 . S
H669 C661 0.960 . S
H670 C662 0.930 . S
H671 C663 0.929 . S
H672 C680 0.929 . S
H673 C682 0.930 . S
H674 C684 0.930 . S
H675 C687 0.929 . S
H676 C690 0.930 . S
H677 C692 0.960 . S
H678 C692 0.960 . S
H679 C692 0.960 . S
C680 H672 0.929 . S
C680 C681 1.377 . S
C680 C682 1.384 . S
C681 C680 1.377 . S
C681 C687 1.390 . S
C682 H673 0.930 . S
C682 C680 1.384 . S
C682 C683 1.372 . S
C683 C682 1.372 . S
C683 C684 1.400 . S
C683 C688 1.490 . S
C684 H674 0.930 . S
C684 C683 1.400 . S
C684 C687 1.386 . S
H685 C701 0.930 . S
H686 C702 0.931 . S
C687 H675 0.929 . S
C687 C681 1.390 . S
C687 C684 1.386 . S
C688 C683 1.490 . S
C688 C690 1.395 . S
C688 C691 1.403 . S
H689 C695 0.930 . S
C690 H676 0.930 . S
C690 C688 1.395 . S
C690 C693 1.403 . S
C691 C688 1.403 . S
C691 C692 1.524 . S
C691 C695 1.400 . S
C692 H677 0.960 . S
C692 H678 0.960 . S
C692 H679 0.960 . S
C692 C691 1.524 . S
C693 C690 1.403 . S
C693 C694 1.392 . S
C693 C697 1.495 . S
C694 C693 1.392 . S
C694 C695 1.385 . S
C694 C696 1.478 . S
C695 H689 0.930 . S
C695 C691 1.400 . S
C695 C694 1.385 . S
C696 C694 1.478 . S
C696 C698 1.381 . S
C696 C702 1.383 . S
C697 C693 1.495 . S
C697 H703 0.959 . S
C697 H704 0.961 . S
C697 H705 0.960 . S
C698 C696 1.381 . S
C698 C699 1.394 . S
C698 H706 0.930 . S
C699 C698 1.394 . S
C699 C700 1.383 . S
C699 H707 0.929 . S
C700 C699 1.383 . S
C700 C701 1.377 . S
C701 H685 0.930 . S
C701 C700 1.377 . S
C701 C702 1.379 . S
C702 H686 0.931 . S
C702 C696 1.383 . S
C702 C701 1.379 . S
H703 C697 0.959 . S
H704 C697 0.961 . S
H705 C697 0.960 . S
H706 C698 0.930 . S
H707 C699 0.929 . S
H708 C716 0.929 . S
H709 C718 0.930 . S
H710 C720 0.930 . S
H711 C723 0.929 . S
H712 C726 0.930 . S
H713 C728 0.960 . S
H714 C728 0.960 . S
H715 C728 0.960 . S
C716 H708 0.929 . S
C716 C717 1.377 . S
C716 C718 1.384 . S
C717 C716 1.377 . S
C717 C723 1.390 . S
C718 H709 0.930 . S
C718 C716 1.384 . S
C718 C719 1.372 . S
C719 C718 1.372 . S
C719 C720 1.400 . S
C719 C724 1.490 . S
C720 H710 0.930 . S
C720 C719 1.400 . S
C720 C723 1.386 . S
H721 C737 0.930 . S
H722 C738 0.931 . S
C723 H711 0.929 . S
C723 C717 1.390 . S
C723 C720 1.386 . S
C724 C719 1.490 . S
C724 C726 1.395 . S
C724 C727 1.403 . S
H725 C731 0.930 . S
C726 H712 0.930 . S
C726 C724 1.395 . S
C726 C729 1.403 . S
C727 C724 1.403 . S
C727 C728 1.524 . S
C727 C731 1.400 . S
C728 H713 0.960 . S
C728 H714 0.960 . S
C728 H715 0.960 . S
C728 C727 1.524 . S
C729 C726 1.403 . S
C729 C730 1.392 . S
C729 C733 1.495 . S
C730 C729 1.392 . S
C730 C731 1.385 . S
C730 C732 1.478 . S
C731 H725 0.930 . S
C731 C727 1.400 . S
C731 C730 1.385 . S
C732 C730 1.478 . S
C732 C734 1.381 . S
C732 C738 1.383 . S
C733 C729 1.495 . S
C733 H739 0.959 . S
C733 H740 0.961 . S
C733 H741 0.960 . S
C734 C732 1.381 . S
C734 C735 1.394 . S
C734 H742 0.930 . S
C735 C734 1.394 . S
C735 C736 1.383 . S
C735 H743 0.929 . S
C736 C735 1.383 . S
C736 C737 1.377 . S
C737 H721 0.930 . S
C737 C736 1.377 . S
C737 C738 1.379 . S
C738 H722 0.931 . S
C738 C732 1.383 . S
C738 C737 1.379 . S
H739 C733 0.959 . S
H740 C733 0.961 . S
H741 C733 0.960 . S
H742 C734 0.930 . S
H743 C735 0.929 . S
H744 C752 0.929 . S
H745 C754 0.930 . S
H746 C756 0.930 . S
H747 C759 0.929 . S
H748 C762 0.930 . S
H749 C764 0.960 . S
H750 C764 0.960 . S
H751 C764 0.960 . S
C752 H744 0.929 . S
C752 C753 1.377 . S
C752 C754 1.384 . S
C753 C752 1.377 . S
C753 C759 1.390 . S
C754 H745 0.930 . S
C754 C752 1.384 . S
C754 C755 1.372 . S
C755 C754 1.372 . S
C755 C756 1.400 . S
C755 C760 1.490 . S
C756 H746 0.930 . S
C756 C755 1.400 . S
C756 C759 1.386 . S
H757 C773 0.944 . S
H758 C774 0.931 1_655 S
C759 H747 0.929 . S
C759 C753 1.390 . S
C759 C756 1.386 . S
C760 C755 1.490 . S
C760 C762 1.395 1_455 S
C760 C763 1.403 . S
H761 C767 0.930 . S
C762 H748 0.930 . S
C762 C760 1.395 1_655 S
C762 C765 1.403 . S
C763 C760 1.403 . S
C763 C764 1.524 . S
C763 C767 1.400 . S
C764 H749 0.960 . S
C764 H750 0.960 . S
C764 H751 0.960 . S
C764 C763 1.524 . S
C765 C762 1.403 . S
C765 C766 1.392 1_655 S
C765 C769 1.495 . S
C766 C765 1.392 1_455 S
C766 C767 1.385 . S
C766 C768 1.478 1_554 S
C767 H761 0.930 . S
C767 C763 1.400 . S
C767 C766 1.385 . S
C768 C766 1.478 1_556 S
C768 C770 1.381 . S
C768 C774 1.383 . S
C769 C765 1.495 . S
C769 H775 0.959 . S
C769 H776 0.961 . S
C769 H777 0.960 . S
C770 C768 1.381 . S
C770 C771 1.394 . S
C770 H778 0.930 . S
C771 C770 1.394 . S
C771 C772 1.383 . S
C771 H779 0.929 . S
C772 C771 1.383 . S
C772 C773 1.377 . S
C773 H757 0.944 . S
C773 C772 1.377 . S
C773 C774 1.379 . S
C774 H758 0.931 1_455 S
C774 C768 1.383 . S
C774 C773 1.379 . S
H775 C769 0.959 . S
H776 C769 0.961 . S
H777 C769 0.960 . S
H778 C770 0.930 . S
H779 C771 0.929 . S
H780 C788 0.929 . S
H781 C790 0.930 . S
H782 C792 0.930 . S
H783 C795 0.929 . S
H784 C798 0.896 1_565 S
H785 C800 0.960 . S
H786 C800 0.960 . S
H787 C800 0.960 . S
C788 H780 0.929 . S
C788 C789 1.377 . S
C788 C790 1.384 . S
C789 C788 1.377 . S
C789 C795 1.390 . S
C790 H781 0.930 . S
C790 C788 1.384 . S
C790 C791 1.372 . S
C791 C790 1.372 . S
C791 C792 1.400 . S
C791 C796 1.490 . S
C792 H782 0.930 . S
C792 C791 1.400 . S
C792 C795 1.386 . S
H793 C809 0.930 . S
H794 C810 0.931 . S
C795 H783 0.929 . S
C795 C789 1.390 . S
C795 C792 1.386 . S
C796 C791 1.490 . S
C796 C798 1.429 . S
C796 C799 1.403 . S
H797 C803 0.930 . S
C798 H784 0.896 1_545 S
C798 C796 1.429 . S
C798 C801 1.402 1_545 S
C799 C796 1.403 . S
C799 C800 1.524 . S
C799 C803 1.400 . S
C800 H785 0.960 . S
C800 H786 0.960 . S
C800 H787 0.960 . S
C800 C799 1.524 . S
C801 C798 1.402 1_565 S
C801 C802 1.369 1_565 S
C801 C805 1.519 . S
C802 C801 1.369 1_545 S
C802 C803 1.385 . S
C802 C804 1.478 . S
C803 H797 0.930 . S
C803 C799 1.400 . S
C803 C802 1.385 . S
C804 C802 1.478 . S
C804 C806 1.381 . S
C804 C810 1.383 . S
C805 C801 1.519 . S
C805 H811 0.959 . S
C805 H812 0.961 . S
C805 H813 0.960 . S
C806 C804 1.381 . S
C806 C807 1.394 . S
C806 H814 0.930 . S
C807 C806 1.394 . S
C807 C808 1.383 . S
C807 H815 0.929 . S
C808 C807 1.383 . S
C808 C809 1.377 . S
C809 H793 0.930 . S
C809 C808 1.377 . S
C809 C810 1.379 . S
C810 H794 0.931 . S
C810 C804 1.383 . S
C810 C809 1.379 . S
H811 C805 0.959 . S
H812 C805 0.961 . S
H813 C805 0.960 . S
H814 C806 0.930 . S
H815 C807 0.929 . S
H816 C824 0.929 . S
H817 C826 0.930 . S
H818 C828 0.930 . S
H819 C831 0.929 . S
H820 C834 0.930 . S
H821 C836 0.960 . S
H822 C836 0.960 . S
H823 C836 0.960 . S
C824 H816 0.929 . S
C824 C825 1.377 . S
C824 C826 1.384 . S
C825 C824 1.377 . S
C825 C831 1.390 . S
C826 H817 0.930 . S
C826 C824 1.384 . S
C826 C827 1.372 . S
C827 C826 1.372 . S
C827 C828 1.400 . S
C827 C832 1.490 . S
C828 H818 0.930 . S
C828 C827 1.400 . S
C828 C831 1.386 . S
H829 C845 0.930 . S
H830 C846 0.931 . S
C831 H819 0.929 . S
C831 C825 1.390 . S
C831 C828 1.386 . S
C832 C827 1.490 . S
C832 C834 1.395 . S
C832 C835 1.403 . S
H833 C839 0.930 . S
C834 H820 0.930 . S
C834 C832 1.395 . S
C834 C837 1.403 . S
C835 C832 1.403 . S
C835 C836 1.524 . S
C835 C839 1.400 . S
C836 H821 0.960 . S
C836 H822 0.960 . S
C836 H823 0.960 . S
C836 C835 1.524 . S
C837 C834 1.403 . S
C837 C838 1.392 . S
C837 C841 1.495 . S
C838 C837 1.392 . S
C838 C839 1.385 . S
C838 C840 1.478 . S
C839 H833 0.930 . S
C839 C835 1.400 . S
C839 C838 1.385 . S
C840 C838 1.478 . S
C840 C842 1.381 . S
C840 C846 1.383 . S
C841 C837 1.495 . S
C841 H847 0.959 . S
C841 H848 0.961 . S
C841 H849 0.960 . S
C842 C840 1.381 . S
C842 C843 1.394 . S
C842 H850 0.930 . S
C843 C842 1.394 . S
C843 C844 1.383 . S
C843 H851 0.929 . S
C844 C843 1.383 . S
C844 C845 1.377 . S
C845 H829 0.930 . S
C845 C844 1.377 . S
C845 C846 1.379 . S
C846 H830 0.931 . S
C846 C840 1.383 . S
C846 C845 1.379 . S
H847 C841 0.959 . S
H848 C841 0.961 . S
H849 C841 0.960 . S
H850 C842 0.930 . S
H851 C843 0.929 . S
H852 C860 0.929 . S
H853 C862 0.930 . S
H854 C864 0.930 . S
H855 C867 0.929 . S
H856 C870 0.930 . S
H857 C872 0.960 . S
H858 C872 0.960 . S
H859 C872 0.960 . S
C860 H852 0.929 . S
C860 C861 1.377 1_565 S
C860 C862 1.384 . S
C861 C860 1.377 1_545 S
C861 C867 1.390 . S
C862 H853 0.930 . S
C862 C860 1.384 . S
C862 C863 1.372 1_565 S
C863 C862 1.372 1_545 S
C863 C864 1.400 . S
C863 C868 1.490 . S
C864 H854 0.930 . S
C864 C863 1.400 . S
C864 C867 1.386 . S
H865 C881 0.930 . S
H866 C882 0.931 . S
C867 H855 0.929 . S
C867 C861 1.390 . S
C867 C864 1.386 . S
C868 C863 1.490 . S
C868 C870 1.395 1_545 S
C868 C871 1.403 . S
H869 C875 0.930 . S
C870 H856 0.930 . S
C870 C868 1.395 1_565 S
C870 C873 1.403 . S
C871 C868 1.403 . S
C871 C872 1.524 . S
C871 C875 1.400 . S
C872 H857 0.960 . S
C872 H858 0.960 . S
C872 H859 0.960 . S
C872 C871 1.524 . S
C873 C870 1.403 . S
C873 C874 1.392 1_565 S
C873 C877 1.495 . S
C874 C873 1.392 1_545 S
C874 C875 1.385 . S
C874 C876 1.478 . S
C875 H869 0.930 . S
C875 C871 1.400 . S
C875 C874 1.385 . S
C876 C874 1.478 . S
C876 C878 1.381 1_545 S
C876 C882 1.383 . S
C877 C873 1.495 . S
C877 H883 0.959 . S
C877 H884 0.961 . S
C877 H885 0.960 . S
C878 C876 1.381 1_565 S
C878 C879 1.394 . S
C878 H886 0.930 . S
C879 C878 1.394 . S
C879 C880 1.383 1_565 S
C879 H887 0.929 . S
C880 C879 1.383 1_545 S
C880 C881 1.377 . S
C881 H865 0.930 . S
C881 C880 1.377 . S
C881 C882 1.379 . S
C882 H866 0.931 . S
C882 C876 1.383 . S
C882 C881 1.379 . S
H883 C877 0.959 . S
H884 C877 0.961 . S
H885 C877 0.960 . S
H886 C878 0.930 . S
H887 C879 0.929 . S
H888 C896 0.929 . S
H889 C898 0.930 . S
H890 C900 0.930 . S
H891 C903 0.929 . S
H892 C906 0.930 . S
H893 C908 0.960 . S
H894 C908 0.960 . S
H895 C908 0.960 . S
C896 H888 0.929 . S
C896 C897 1.377 . S
C896 C898 1.384 . S
C897 C896 1.377 . S
C897 C903 1.390 . S
C898 H889 0.930 . S
C898 C896 1.384 . S
C898 C899 1.372 . S
C899 C898 1.372 . S
C899 C900 1.400 . S
C899 C904 1.490 . S
C900 H890 0.930 . S
C900 C899 1.400 . S
C900 C903 1.386 . S
H901 C917 0.930 . S
H902 C918 0.931 . S
C903 H891 0.929 . S
C903 C897 1.390 . S
C903 C900 1.386 . S
C904 C899 1.490 . S
C904 C906 1.395 . S
C904 C907 1.403 . S
H905 C911 0.930 . S
C906 H892 0.930 . S
C906 C904 1.395 . S
C906 C909 1.403 . S
C907 C904 1.403 . S
C907 C908 1.524 . S
C907 C911 1.400 . S
C908 H893 0.960 . S
C908 H894 0.960 . S
C908 H895 0.960 . S
C908 C907 1.524 . S
C909 C906 1.403 . S
C909 C910 1.392 . S
C909 C913 1.495 . S
C910 C909 1.392 . S
C910 C911 1.385 . S
C910 C912 1.478 1_556 S
C911 H905 0.930 . S
C911 C907 1.400 . S
C911 C910 1.385 . S
C912 C910 1.478 1_554 S
C912 C914 1.381 . S
C912 C918 1.383 . S
C913 C909 1.495 . S
C913 H919 0.959 . S
C913 H920 0.961 . S
C913 H921 0.960 . S
C914 C912 1.381 . S
C914 C915 1.394 . S
C914 H922 0.930 . S
C915 C914 1.394 . S
C915 C916 1.383 . S
C915 H923 0.929 . S
C916 C915 1.383 . S
C916 C917 1.377 . S
C917 H901 0.930 . S
C917 C916 1.377 . S
C917 C918 1.379 . S
C918 H902 0.931 . S
C918 C912 1.383 . S
C918 C917 1.379 . S
H919 C913 0.959 . S
H920 C913 0.961 . S
H921 C913 0.960 . S
H922 C914 0.930 . S
H923 C915 0.929 . S
H924 C932 0.929 . S
H925 C934 0.930 . S
H926 C936 0.930 . S
H927 C939 0.929 . S
H928 C942 0.930 . S
H929 C944 0.960 . S
H930 C944 0.960 . S
H931 C944 0.960 . S
C932 H924 0.929 . S
C932 C933 1.377 . S
C932 C934 1.384 . S
C933 C932 1.377 . S
C933 C939 1.390 1_455 S
C934 H925 0.930 . S
C934 C932 1.384 . S
C934 C935 1.372 . S
C935 C934 1.372 . S
C935 C936 1.400 1_455 S
C935 C940 1.490 . S
C936 H926 0.930 . S
C936 C935 1.400 1_655 S
C936 C939 1.386 . S
H937 C953 0.930 . S
H938 C954 0.922 1_655 S
C939 H927 0.929 . S
C939 C933 1.390 1_655 S
C939 C936 1.386 . S
C940 C935 1.490 . S
C940 C942 1.395 . S
C940 C943 1.403 1_455 S
H941 C947 0.930 . S
C942 H928 0.930 . S
C942 C940 1.395 . S
C942 C945 1.403 . S
C943 C940 1.403 1_655 S
C943 C944 1.524 . S
C943 C947 1.400 . S
C944 H929 0.960 . S
C944 H930 0.960 . S
C944 H931 0.960 . S
C944 C943 1.524 . S
C945 C942 1.403 . S
C945 C946 1.392 . S
C945 C949 1.495 . S
C946 C945 1.392 . S
C946 C947 1.385 1_455 S
C946 C948 1.478 . S
C947 H941 0.930 . S
C947 C943 1.400 . S
C947 C946 1.385 1_655 S
C948 C946 1.478 . S
C948 C950 1.381 . S
C948 C954 1.394 . S
C949 C945 1.495 . S
C949 H955 0.959 . S
C949 H956 0.961 . S
C949 H957 0.960 . S
C950 C948 1.381 . S
C950 C951 1.394 . S
C950 H958 0.930 . S
C951 C950 1.394 . S
C951 C952 1.383 . S
C951 H959 0.929 . S
C952 C951 1.383 . S
C952 C953 1.377 1_455 S
C953 H937 0.930 . S
C953 C952 1.377 1_655 S
C953 C954 1.377 1_655 S
C954 H938 0.922 1_455 S
C954 C948 1.394 . S
C954 C953 1.377 1_455 S
H955 C949 0.959 . S
H956 C949 0.961 . S
H957 C949 0.960 . S
H958 C950 0.930 . S
H959 C951 0.929 . S
C321 C19 1.807 . S
C340 C303 1.738 . S
C357 C46 1.155 . S
C376 C239 1.167 . S
C393 C95 0.369 . S
C412 C271 0.231 . S
C429 C10 1.923 . S
C448 C297 1.899 . S
C484 C233 1.232 . S
C465 C55 1.224 . S
C520 C265 0.392 . S
C501 C86 0.403 . S
C537 C59 3.032 . S
C556 C175 2.973 . S
C573 C90 1.907 . S
C592 C207 1.903 . S
C609 C15 1.209 . S
C628 C137 1.186 . S
C664 C169 2.868 . S
C645 C50 2.888 . S
C700 C201 1.796 . S
C681 C99 1.843 . S
C717 C6 1.156 . S
C736 C143 1.119 . S
C772 C213 1.375 . S
C753 C9 1.342 . S
C789 C58 1.459 . S
C808 C149 1.462 . S
C825 C98 1.687 . S
C844 C181 1.705 . S
C880 C277 1.066 . S
C861 C49 1.101 . S
C916 C309 1.326 . S
C897 C89 1.342 . S
C933 C18 1.447 . S
C952 C245 1.438 . S
