# Generated by pormake.
# Topology dag, (6,3)-cn, num edge types: 1
# Building blocks:
#     Node 0, Type 0, BuildingBlock: MIDCAF_clean_sbu_0, # of connection points: 6
#     Node 1, Type 0, BuildingBlock: MIDCAF_clean_sbu_0, # of connection points: 6
#     Node 2, Type 0, BuildingBlock: MIDCAF_clean_sbu_0, # of connection points: 6
#     Node 3, Type 0, BuildingBlock: MIDCAF_clean_sbu_0, # of connection points: 6
#     Node 4, Type 1, BuildingBlock: BETDIP_clean_linker_0, # of connection points: 3
#     Node 5, Type 1, BuildingBlock: BETDIP_clean_linker_0, # of connection points: 3
#     Node 6, Type 1, BuildingBlock: BETDIP_clean_linker_0, # of connection points: 3
#     Node 7, Type 1, BuildingBlock: BETDIP_clean_linker_0, # of connection points: 3
#     Node 8, Type 1, BuildingBlock: BETDIP_clean_linker_0, # of connection points: 3
#     Node 9, Type 1, BuildingBlock: BETDIP_clean_linker_0, # of connection points: 3
#     Node 10, Type 1, BuildingBlock: BETDIP_clean_linker_0, # of connection points: 3
#     Node 11, Type 1, BuildingBlock: BETDIP_clean_linker_0, # of connection points: 3
#     Edge 12, Type (0, 1), BuildingBlock: EYOCIG_clean_linker_4, # of connection points: 2
#     Edge 13, Type (0, 1), BuildingBlock: EYOCIG_clean_linker_4, # of connection points: 2
#     Edge 14, Type (0, 1), BuildingBlock: EYOCIG_clean_linker_4, # of connection points: 2
#     Edge 15, Type (0, 1), BuildingBlock: EYOCIG_clean_linker_4, # of connection points: 2
#     Edge 16, Type (0, 1), BuildingBlock: EYOCIG_clean_linker_4, # of connection points: 2
#     Edge 17, Type (0, 1), BuildingBlock: EYOCIG_clean_linker_4, # of connection points: 2
#     Edge 18, Type (0, 1), BuildingBlock: EYOCIG_clean_linker_4, # of connection points: 2
#     Edge 19, Type (0, 1), BuildingBlock: EYOCIG_clean_linker_4, # of connection points: 2
#     Edge 20, Type (0, 1), BuildingBlock: EYOCIG_clean_linker_4, # of connection points: 2
#     Edge 21, Type (0, 1), BuildingBlock: EYOCIG_clean_linker_4, # of connection points: 2
#     Edge 22, Type (0, 1), BuildingBlock: EYOCIG_clean_linker_4, # of connection points: 2
#     Edge 23, Type (0, 1), BuildingBlock: EYOCIG_clean_linker_4, # of connection points: 2
#     Edge 24, Type (0, 1), BuildingBlock: EYOCIG_clean_linker_4, # of connection points: 2
#     Edge 25, Type (0, 1), BuildingBlock: EYOCIG_clean_linker_4, # of connection points: 2
#     Edge 26, Type (0, 1), BuildingBlock: EYOCIG_clean_linker_4, # of connection points: 2
#     Edge 27, Type (0, 1), BuildingBlock: EYOCIG_clean_linker_4, # of connection points: 2
#     Edge 28, Type (0, 1), BuildingBlock: EYOCIG_clean_linker_4, # of connection points: 2
#     Edge 29, Type (0, 1), BuildingBlock: EYOCIG_clean_linker_4, # of connection points: 2
#     Edge 30, Type (0, 1), BuildingBlock: EYOCIG_clean_linker_4, # of connection points: 2
#     Edge 31, Type (0, 1), BuildingBlock: EYOCIG_clean_linker_4, # of connection points: 2
#     Edge 32, Type (0, 1), BuildingBlock: EYOCIG_clean_linker_4, # of connection points: 2
#     Edge 33, Type (0, 1), BuildingBlock: EYOCIG_clean_linker_4, # of connection points: 2
#     Edge 34, Type (0, 1), BuildingBlock: EYOCIG_clean_linker_4, # of connection points: 2
#     Edge 35, Type (0, 1), BuildingBlock: EYOCIG_clean_linker_4, # of connection points: 2
# Relax obj value: 0.126
# Max RMSD: 0.136
# Mean RMSD: 0.110
data_MOF--net-dag--node1-MIDCAF_clean_sbu_0--node2-BETDIP_clean_linker_0--edge1-EYOCIG_clean_linker_4
_symmetry_space_group_name_H-M    P1
_symmetry_Int_Tables_number       1
_symmetry_cell_setting            triclinic
loop_
_symmetry_equiv_pos_as_xyz
'x, y, z'
_cell_length_a     33.413435
_cell_length_b     32.058926
_cell_length_c     24.734883
_cell_angle_alpha  86.756629
_cell_angle_beta   89.980187
_cell_angle_gamma 90.037476
loop_
_atom_site_label
_atom_site_type_symbol
_atom_site_fract_x
_atom_site_fract_y
_atom_site_fract_z
_atom_type_partial_charge
Zn0 Zn 0.1278 0.87171 0.11724 0.0
Zn1 Zn 0.11155 0.85688 0.90417 0.0
Zn2 Zn 0.12231 0.86384 1.01019 0.0
C3 C 0.11979 0.94149 0.91965 0.0
C4 C 0.04804 0.81686 0.95936 0.0
O5 O 0.16802 0.81936 0.04066 0.0
O6 O 0.16006 0.81961 0.12967 0.0
C7 C 0.15926 0.94391 0.06136 0.0
O8 O 0.1294 0.92635 0.96727 0.0
O9 O 0.10682 0.918 0.88432 0.0
O10 O 0.06363 0.81996 0.91286 0.0
O11 O 0.0636 0.8353 0.99915 0.0
O12 O 0.15779 0.92558 0.10783 0.0
O13 O 0.1437 0.92739 0.02012 0.0
O14 O 0.06224 0.85287 0.049 0.0
O15 O 0.0689 0.87163 0.13333 0.0
C16 C 0.04694 0.86002 0.09548 0.0
O17 O 0.16872 0.82085 0.98414 0.0
O18 O 0.16423 0.82944 0.89476 0.0
C19 C 0.17635 0.80482 0.08886 0.0
C20 C 0.18187 0.81432 0.93648 0.0
Zn21 Zn 0.6301 0.61244 0.44052 0.0
Zn22 Zn 0.6119 0.62606 0.65458 0.0
Zn23 Zn 0.6235 0.61969 0.54812 0.0
C24 C 0.62158 0.54163 0.63818 0.0
C25 C 0.54803 0.66501 0.59899 0.0
O26 O 0.66933 0.66459 0.5188 0.0
O27 O 0.66308 0.66423 0.42955 0.0
C28 C 0.65979 0.53933 0.49601 0.0
O29 O 0.63086 0.55709 0.59057 0.0
O30 O 0.60847 0.56476 0.67381 0.0
O31 O 0.56316 0.66164 0.64574 0.0
O32 O 0.56443 0.64753 0.55902 0.0
O33 O 0.6589 0.55789 0.44965 0.0
O34 O 0.64454 0.55607 0.53731 0.0
O35 O 0.56385 0.63085 0.50852 0.0
O36 O 0.57131 0.61352 0.42368 0.0
C37 C 0.549 0.62449 0.46153 0.0
O38 O 0.66948 0.66283 0.57531 0.0
O39 O 0.66389 0.65475 0.66465 0.0
C40 C 0.6785 0.67913 0.47087 0.0
C41 C 0.68192 0.6698 0.62317 0.0
Zn42 Zn 0.83518 0.12561 0.93688 0.0
Zn43 Zn 0.87384 0.09942 0.123 0.0
Zn44 Zn 0.85106 0.12055 0.03627 0.0
C45 C 0.93867 0.12899 0.08412 0.0
C46 C 0.79862 0.06813 0.10651 0.0
O47 O 0.79165 0.14949 0.03753 0.0
O48 O 0.78431 0.15713 0.94848 0.0
C49 C 0.90353 0.17537 0.9558 0.0
O50 O 0.90977 0.1474 0.05813 0.0
O51 O 0.9326 0.09438 0.10985 0.0
O52 O 0.8326 0.05404 0.12108 0.0
O53 O 0.79607 0.10429 0.08124 0.0
O54 O 0.88482 0.15933 0.9177 0.0
O55 O 0.89438 0.16577 1.00523 0.0
O56 O 0.85481 0.05648 0.01611 0.0
O57 O 0.8329 0.06294 0.93207 0.0
C58 C 0.84373 0.04015 0.9728 0.0
O59 O 0.80964 0.15127 0.09064 0.0
O60 O 0.85501 0.15357 0.15517 0.0
C61 C 0.77164 0.16281 0.99562 0.0
C62 C 0.82281 0.16715 0.13396 0.0
Zn63 Zn 0.33273 0.35589 0.62328 0.0
Zn64 Zn 0.37354 0.38288 0.43752 0.0
Zn65 Zn 0.34954 0.36186 0.524 0.0
C66 C 0.43759 0.35239 0.47638 0.0
C67 C 0.29874 0.41521 0.45267 0.0
O68 O 0.29011 0.33299 0.52162 0.0
O69 O 0.28217 0.32416 0.61049 0.0
C70 C 0.40181 0.30717 0.60486 0.0
O71 O 0.4083 0.3347 0.50245 0.0
O72 O 0.43232 0.3871 0.45057 0.0
O73 O 0.33307 0.42887 0.43895 0.0
O74 O 0.29541 0.37904 0.47774 0.0
O75 O 0.38258 0.32273 0.64287 0.0
O76 O 0.39288 0.31682 0.55537 0.0
O77 O 0.35289 0.42574 0.54525 0.0
O78 O 0.32988 0.41843 0.62873 0.0
C79 C 0.34112 0.44162 0.58856 0.0
O80 O 0.30841 0.33158 0.46883 0.0
O81 O 0.35431 0.32905 0.40496 0.0
C82 C 0.26981 0.31914 0.56303 0.0
C83 C 0.32186 0.31565 0.4257 0.0
H84 H 0.12904 0.21035 0.19997 0.0
H85 H 0.2353 0.13608 0.17991 0.0
H86 H 0.13148 0.11694 0.08227 0.0
H87 H 0.24187 0.14724 0.27088 0.0
C88 C 0.23243 0.17951 0.27265 0.0
C89 C 0.14525 0.1869 0.17887 0.0
C90 C 0.12625 0.16553 0.13821 0.0
C91 C 0.18444 0.17616 0.1949 0.0
C92 C 0.20513 0.14493 0.16818 0.0
C93 C 0.18594 0.12398 0.12732 0.0
C94 C 0.14677 0.13445 0.11246 0.0
N95 N 0.20162 0.19657 0.23876 0.0
H96 H 0.28493 0.63798 0.70837 0.0
H97 H 0.35928 0.74826 0.70096 0.0
H98 H 0.37954 0.65146 0.5912 0.0
H99 H 0.35112 0.73606 0.79549 0.0
C100 C 0.31916 0.73008 0.79721 0.0
C101 C 0.3082 0.65685 0.68859 0.0
C102 C 0.33021 0.6411 0.64601 0.0
C103 C 0.3188 0.69529 0.70923 0.0
C104 C 0.35017 0.719 0.68485 0.0
C105 C 0.37173 0.70315 0.64206 0.0
C106 C 0.36134 0.66463 0.62242 0.0
N107 N 0.29961 0.70767 0.75695 0.0
H108 H 0.86936 0.81294 0.24791 0.0
H109 H 0.75926 0.88112 0.2641 0.0
H110 H 0.84107 0.91585 0.13514 0.0
H111 H 0.77346 0.8641 0.35596 0.0
C112 C 0.78135 0.8315 0.35275 0.0
C113 C 0.849 0.83736 0.23327 0.0
C114 C 0.85918 0.86321 0.18766 0.0
C115 C 0.81348 0.84408 0.2618 0.0
C116 C 0.78705 0.87588 0.24296 0.0
C117 C 0.7968 0.90146 0.19712 0.0
C118 C 0.83292 0.89518 0.16965 0.0
N119 N 0.80505 0.81845 0.30918 0.0
H120 H 0.57199 0.2325 0.77954 0.0
H121 H 0.64674 0.3402 0.80063 0.0
H122 H 0.56566 0.33885 0.66599 0.0
H123 H 0.63788 0.3171 0.89212 0.0
C124 C 0.64048 0.28354 0.88952 0.0
C125 C 0.58267 0.26315 0.76539 0.0
C126 C 0.56609 0.28316 0.71898 0.0
C127 C 0.61111 0.28378 0.79592 0.0
C128 C 0.62434 0.32408 0.778 0.0
C129 C 0.60834 0.3436 0.73054 0.0
C130 C 0.57916 0.32311 0.70148 0.0
N131 N 0.62552 0.26311 0.84434 0.0
H132 H 0.62768 0.26806 0.36044 0.0
H133 H 0.73247 0.34482 0.3797 0.0
H134 H 0.62803 0.36267 0.47661 0.0
H135 H 0.73897 0.33363 0.28876 0.0
C136 C 0.73047 0.30104 0.28736 0.0
C137 C 0.6434 0.29202 0.38125 0.0
C138 C 0.62388 0.3134 0.42149 0.0
C139 C 0.68243 0.30349 0.36517 0.0
C140 C 0.70243 0.33542 0.39147 0.0
C141 C 0.68273 0.35637 0.4319 0.0
C142 C 0.64373 0.34518 0.44681 0.0
N143 N 0.70013 0.28323 0.32153 0.0
H144 H 0.07155 0.25134 0.77857 0.0
H145 H 0.14407 0.14236 0.75591 0.0
H146 H 0.06484 0.14521 0.89245 0.0
H147 H 0.13458 0.16558 0.66458 0.0
C148 C 0.13779 0.19909 0.66713 0.0
C149 C 0.08187 0.22052 0.79252 0.0
C150 C 0.06556 0.20084 0.83935 0.0
C151 C 0.10951 0.19938 0.76135 0.0
C152 C 0.12226 0.15887 0.77903 0.0
C153 C 0.10656 0.13967 0.82691 0.0
C154 C 0.07815 0.16069 0.85661 0.0
N155 N 0.12366 0.21977 0.71259 0.0
H156 H 0.37053 0.67177 0.30997 0.0
H157 H 0.26038 0.6033 0.29509 0.0
H158 H 0.34348 0.56802 0.42214 0.0
H159 H 0.2737 0.62089 0.20318 0.0
C160 C 0.28143 0.65352 0.20663 0.0
C161 C 0.35037 0.64715 0.32469 0.0
C162 C 0.36102 0.62105 0.36983 0.0
C163 C 0.31458 0.64049 0.29674 0.0
C164 C 0.2884 0.60847 0.31572 0.0
C165 C 0.29862 0.58262 0.36109 0.0
C166 C 0.335 0.58885 0.38796 0.0
N167 N 0.3056 0.66641 0.24983 0.0
H168 H 0.7865 0.84486 0.85454 0.0
H169 H 0.85882 0.73328 0.8596 0.0
H170 H 0.88151 0.82871 0.97059 0.0
H171 H 0.85092 0.74747 0.76501 0.0
C172 C 0.81897 0.75358 0.7637 0.0
C173 C 0.8095 0.82541 0.87386 0.0
C174 C 0.83204 0.84039 0.91646 0.0
C175 C 0.81927 0.78699 0.85257 0.0
C176 C 0.85032 0.76252 0.87632 0.0
C177 C 0.87242 0.7776 0.9191 0.0
C178 C 0.86286 0.81612 0.93942 0.0
N179 N 0.79972 0.77545 0.80473 0.0
C180 C 0.19426 0.01696 0.06234 0.0
C181 C 0.17788 0.98415 0.05615 0.0
C182 C 0.20518 0.05573 0.08179 0.0
C183 C 0.2027 0.08736 0.10544 0.0
C184 C 0.48114 0.70784 0.59326 0.0
C185 C 0.51155 0.68793 0.59155 0.0
C186 C 0.44278 0.72193 0.60657 0.0
C187 C 0.40983 0.72017 0.62595 0.0
C188 C 0.75209 0.00885 0.13751 0.0
C189 C 0.76493 0.04172 0.11892 0.0
C190 C 0.75638 0.96811 0.16148 0.0
C191 C 0.77204 0.93688 0.181 0.0
C192 C 0.46727 0.26777 0.63628 0.0
C193 C 0.43798 0.28487 0.61753 0.0
C194 C 0.50307 0.26037 0.66511 0.0
C195 C 0.53188 0.26608 0.69287 0.0
C196 C 0.692 0.4649 0.49486 0.0
C197 C 0.67689 0.49837 0.50092 0.0
C198 C 0.70164 0.42556 0.47603 0.0
C199 C 0.6988 0.3936 0.45312 0.0
C200 C 0.96821 0.2162 0.92433 0.0
C201 C 0.93927 0.19854 0.94333 0.0
C202 C 0.0036 0.22412 0.89475 0.0
C203 C 0.03198 0.21845 0.86619 0.0
C204 C 0.25338 0.4752 0.42079 0.0
C205 C 0.26558 0.44214 0.43958 0.0
C206 C 0.25818 0.51591 0.39687 0.0
C207 C 0.27393 0.54715 0.37742 0.0
C208 C 0.98189 0.77267 0.96548 0.0
C209 C 0.01194 0.79324 0.96671 0.0
C210 C 0.94356 0.75808 0.95296 0.0
C211 C 0.91042 0.75993 0.93426 0.0
C212 C 0.83556 0.95927 0.9623 0.0
C213 C 0.84024 -0.00434 0.97054 0.0
C214 C 0.82993 0.91784 0.94726 0.0
C215 C 0.82888 0.88307 0.93115 0.0
C216 C 0.50838 0.3181 0.46387 0.0
C217 C 0.4753 0.33143 0.47189 0.0
C218 C 0.5478 0.30831 0.44847 0.0
C219 C 0.582 0.30735 0.43307 0.0
C220 C 0.12487 0.02145 0.88817 0.0
C221 C 0.12345 0.98551 0.90558 0.0
C222 C 0.12286 0.06269 0.86466 0.0
C223 C 0.11714 0.09748 0.84484 0.0
C224 C 0.47179 0.62992 0.43746 0.0
C225 C 0.50648 0.6282 0.45166 0.0
C226 C 0.43231 0.62872 0.41622 0.0
C227 C 0.39988 0.62529 0.39503 0.0
C228 C 0.33253 0.5223 0.60022 0.0
C229 C 0.33744 0.48604 0.59148 0.0
C230 C 0.3269 0.56362 0.61565 0.0
C231 C 0.32617 0.59839 0.63178 0.0
C232 C 0.96962 0.85454 0.11896 0.0
C233 C 0.00436 0.8562 0.10491 0.0
C234 C 0.93018 0.8557 0.14039 0.0
C235 C 0.89787 0.85908 0.16196 0.0
C236 C 0.62729 0.46164 0.66911 0.0
C237 C 0.62561 0.4976 0.65185 0.0
C238 C 0.6253 0.42039 0.69259 0.0
C239 C 0.61936 0.38566 0.71251 0.0
C240 C 0.01039 0.16131 0.0962 0.0
C241 C 0.97694 0.14889 0.08839 0.0
C242 C 0.05009 0.17026 0.11128 0.0
C243 C 0.08434 0.17101 0.12646 0.0
C244 C 0.22555 0.74282 0.11351 0.0
C245 C 0.20382 0.77082 0.09756 0.0
C246 C 0.24798 0.7108 0.14056 0.0
C247 C 0.26455 0.6843 0.16882 0.0
C248 C 0.74522 0.71162 0.65033 0.0
C249 C 0.71736 0.69372 0.63129 0.0
C250 C 0.77438 0.72874 0.68372 0.0
C251 C 0.7961 0.74087 0.71835 0.0
C252 C 0.78299 0.22395 0.18485 0.0
C253 C 0.80011 0.19801 0.16019 0.0
C254 C 0.76431 0.25293 0.21739 0.0
C255 C 0.74886 0.27591 0.24807 0.0
C256 C 0.20611 0.27221 0.5679 0.0
C257 C 0.23462 0.29421 0.55743 0.0
C258 C 0.17789 0.24527 0.59407 0.0
C259 C 0.15794 0.22317 0.62451 0.0
C260 C 0.72718 0.74183 0.44728 0.0
C261 C 0.70566 0.71354 0.463 0.0
C262 C 0.74912 0.77418 0.42004 0.0
C263 C 0.76514 0.80082 0.39133 0.0
C264 C 0.70813 0.20993 0.9891 0.0
C265 C 0.7365 0.18794 1.00024 0.0
C266 C 0.6802 0.23691 0.96247 0.0
C267 C 0.66047 0.25913 0.93194 0.0
C268 C 0.28282 0.25818 0.37496 0.0
C269 C 0.29953 0.28442 0.39959 0.0
C270 C 0.2649 0.22859 0.3426 0.0
C271 C 0.25013 0.20507 0.31202 0.0
C272 C 0.24561 0.77295 0.91017 0.0
C273 C 0.2175 0.79063 0.92889 0.0
C274 C 0.2749 0.75579 0.87701 0.0
C275 C 0.29655 0.74338 0.8425 0.0
loop_
_geom_bond_atom_site_label_1
_geom_bond_atom_site_label_2
_geom_bond_distance
_geom_bond_site_symmetry_2
_ccdc_geom_bond_type
Zn0 O6 1.920 . S
Zn0 O12 1.898 . S
Zn0 O15 1.905 . S
Zn1 O9 1.905 . S
Zn1 O10 1.898 . S
Zn1 O18 1.920 . S
Zn2 O5 2.081 . S
Zn2 O8 2.114 1_554 S
Zn2 O11 2.120 1_554 S
Zn2 O13 2.120 . S
Zn2 O14 2.114 . S
Zn2 O17 2.080 1_554 S
C3 O8 1.166 . S
C3 O9 1.182 . S
C4 O10 1.167 . S
C4 O11 1.299 . S
O5 Zn2 2.081 . S
O5 C19 1.305 . S
O6 Zn0 1.920 . S
O6 C19 1.234 . S
C7 O12 1.167 . S
C7 O13 1.299 . S
O8 Zn2 2.114 1_556 S
O8 C3 1.166 . S
O9 Zn1 1.905 . S
O9 C3 1.182 . S
O10 Zn1 1.898 . S
O10 C4 1.167 . S
O11 Zn2 2.120 1_556 S
O11 C4 1.299 . S
O12 Zn0 1.898 . S
O12 C7 1.167 . S
O13 Zn2 2.120 . S
O13 C7 1.299 . S
O14 Zn2 2.114 . S
O14 C16 1.166 . S
O15 Zn0 1.905 . S
O15 C16 1.182 . S
C16 O14 1.166 . S
C16 O15 1.182 . S
O17 Zn2 2.080 1_556 S
O17 C20 1.305 . S
O18 Zn1 1.920 . S
O18 C20 1.234 . S
C19 O5 1.305 . S
C19 O6 1.234 . S
C20 O17 1.305 . S
C20 O18 1.234 . S
Zn21 O27 1.920 . S
Zn21 O33 1.898 . S
Zn21 O36 1.905 . S
Zn22 O30 1.905 . S
Zn22 O31 1.898 . S
Zn22 O39 1.920 . S
Zn23 O26 2.080 . S
Zn23 O29 2.114 . S
Zn23 O32 2.120 . S
Zn23 O34 2.120 . S
Zn23 O35 2.114 . S
Zn23 O38 2.080 . S
C24 O29 1.166 . S
C24 O30 1.182 . S
C25 O31 1.167 . S
C25 O32 1.299 . S
O26 Zn23 2.080 . S
O26 C40 1.305 . S
O27 Zn21 1.920 . S
O27 C40 1.234 . S
C28 O33 1.167 . S
C28 O34 1.299 . S
O29 Zn23 2.114 . S
O29 C24 1.166 . S
O30 Zn22 1.905 . S
O30 C24 1.182 . S
O31 Zn22 1.898 . S
O31 C25 1.167 . S
O32 Zn23 2.120 . S
O32 C25 1.299 . S
O33 Zn21 1.898 . S
O33 C28 1.167 . S
O34 Zn23 2.120 . S
O34 C28 1.299 . S
O35 Zn23 2.114 . S
O35 C37 1.166 . S
O36 Zn21 1.905 . S
O36 C37 1.182 . S
C37 O35 1.166 . S
C37 O36 1.182 . S
O38 Zn23 2.080 . S
O38 C41 1.305 . S
O39 Zn22 1.920 . S
O39 C41 1.234 . S
C40 O26 1.305 . S
C40 O27 1.234 . S
C41 O38 1.305 . S
C41 O39 1.234 . S
Zn42 O48 1.920 . S
Zn42 O54 1.898 . S
Zn42 O57 1.905 . S
Zn43 O51 1.905 . S
Zn43 O52 1.898 . S
Zn43 O60 1.920 . S
Zn44 O47 2.080 1_554 S
Zn44 O50 2.114 . S
Zn44 O53 2.120 . S
Zn44 O55 2.120 1_554 S
Zn44 O56 2.114 1_554 S
Zn44 O59 2.080 . S
C45 O50 1.166 . S
C45 O51 1.182 . S
C46 O52 1.167 . S
C46 O53 1.299 . S
O47 Zn44 2.080 1_556 S
O47 C61 1.305 . S
O48 Zn42 1.920 . S
O48 C61 1.234 . S
C49 O54 1.167 . S
C49 O55 1.299 . S
O50 Zn44 2.114 . S
O50 C45 1.166 . S
O51 Zn43 1.905 . S
O51 C45 1.182 . S
O52 Zn43 1.898 . S
O52 C46 1.167 . S
O53 Zn44 2.120 . S
O53 C46 1.299 . S
O54 Zn42 1.898 . S
O54 C49 1.167 . S
O55 Zn44 2.120 1_556 S
O55 C49 1.299 . S
O56 Zn44 2.114 1_556 S
O56 C58 1.166 . S
O57 Zn42 1.905 . S
O57 C58 1.182 . S
C58 O56 1.166 . S
C58 O57 1.182 . S
O59 Zn44 2.080 . S
O59 C62 1.305 . S
O60 Zn43 1.920 . S
O60 C62 1.234 . S
C61 O47 1.305 . S
C61 O48 1.234 . S
C62 O59 1.305 . S
C62 O60 1.234 . S
Zn63 O69 1.920 . S
Zn63 O75 1.898 . S
Zn63 O78 1.905 . S
Zn64 O72 1.905 . S
Zn64 O73 1.898 . S
Zn64 O81 1.920 . S
Zn65 O68 2.080 . S
Zn65 O71 2.114 . S
Zn65 O74 2.120 . S
Zn65 O76 2.120 . S
Zn65 O77 2.114 . S
Zn65 O80 2.080 . S
C66 O71 1.166 . S
C66 O72 1.182 . S
C67 O73 1.167 . S
C67 O74 1.299 . S
O68 Zn65 2.080 . S
O68 C82 1.305 . S
O69 Zn63 1.920 . S
O69 C82 1.234 . S
C70 O75 1.167 . S
C70 O76 1.299 . S
O71 Zn65 2.114 . S
O71 C66 1.166 . S
O72 Zn64 1.905 . S
O72 C66 1.182 . S
O73 Zn64 1.898 . S
O73 C67 1.167 . S
O74 Zn65 2.120 . S
O74 C67 1.299 . S
O75 Zn63 1.898 . S
O75 C70 1.167 . S
O76 Zn65 2.120 . S
O76 C70 1.299 . S
O77 Zn65 2.114 . S
O77 C79 1.166 . S
O78 Zn63 1.905 . S
O78 C79 1.182 . S
C79 O77 1.166 . S
C79 O78 1.182 . S
O80 Zn65 2.080 . S
O80 C83 1.305 . S
O81 Zn64 1.920 . S
O81 C83 1.234 . S
C82 O68 1.305 . S
C82 O69 1.234 . S
C83 O80 1.305 . S
C83 O81 1.234 . S
H84 C89 0.930 . S
H85 C92 0.930 . S
H86 C94 0.930 . S
H87 C88 1.016 . S
C88 H87 1.016 . S
C88 N95 1.286 . S
C89 H84 0.930 . S
C89 C90 1.397 . S
C89 C91 1.361 . S
C90 C89 1.397 . S
C90 C94 1.390 . S
C91 C89 1.361 . S
C91 C92 1.393 . S
C91 N95 1.413 . S
C92 H85 0.930 . S
C92 C91 1.393 . S
C92 C93 1.399 . S
C93 C92 1.399 . S
C93 C94 1.381 . S
C94 H86 0.930 . S
C94 C90 1.390 . S
C94 C93 1.381 . S
N95 C88 1.286 . S
N95 C91 1.413 . S
H96 C101 0.930 . S
H97 C104 0.930 . S
H98 C106 0.930 . S
H99 C100 1.016 . S
C100 H99 1.016 . S
C100 N107 1.286 . S
C101 H96 0.930 . S
C101 C102 1.397 . S
C101 C103 1.361 . S
C102 C101 1.397 . S
C102 C106 1.390 . S
C103 C101 1.361 . S
C103 C104 1.393 . S
C103 N107 1.413 . S
C104 H97 0.930 . S
C104 C103 1.393 . S
C104 C105 1.399 . S
C105 C104 1.399 . S
C105 C106 1.381 . S
C106 H98 0.930 . S
C106 C102 1.390 . S
C106 C105 1.381 . S
N107 C100 1.286 . S
N107 C103 1.413 . S
H108 C113 0.930 . S
H109 C116 0.930 . S
H110 C118 0.930 . S
H111 C112 1.016 . S
C112 H111 1.016 . S
C112 N119 1.286 . S
C113 H108 0.930 . S
C113 C114 1.397 . S
C113 C115 1.361 . S
C114 C113 1.397 . S
C114 C118 1.390 . S
C115 C113 1.361 . S
C115 C116 1.393 . S
C115 N119 1.413 . S
C116 H109 0.930 . S
C116 C115 1.393 . S
C116 C117 1.399 . S
C117 C116 1.399 . S
C117 C118 1.381 . S
C118 H110 0.930 . S
C118 C114 1.390 . S
C118 C117 1.381 . S
N119 C112 1.286 . S
N119 C115 1.413 . S
H120 C125 0.930 . S
H121 C128 0.930 . S
H122 C130 0.930 . S
H123 C124 1.016 . S
C124 H123 1.016 . S
C124 N131 1.286 . S
C125 H120 0.930 . S
C125 C126 1.397 . S
C125 C127 1.361 . S
C126 C125 1.397 . S
C126 C130 1.390 . S
C127 C125 1.361 . S
C127 C128 1.393 . S
C127 N131 1.413 . S
C128 H121 0.930 . S
C128 C127 1.393 . S
C128 C129 1.399 . S
C129 C128 1.399 . S
C129 C130 1.381 . S
C130 H122 0.930 . S
C130 C126 1.390 . S
C130 C129 1.381 . S
N131 C124 1.286 . S
N131 C127 1.413 . S
H132 C137 0.930 . S
H133 C140 0.930 . S
H134 C142 0.930 . S
H135 C136 1.016 . S
C136 H135 1.016 . S
C136 N143 1.286 . S
C137 H132 0.930 . S
C137 C138 1.397 . S
C137 C139 1.361 . S
C138 C137 1.397 . S
C138 C142 1.390 . S
C139 C137 1.361 . S
C139 C140 1.393 . S
C139 N143 1.413 . S
C140 H133 0.930 . S
C140 C139 1.393 . S
C140 C141 1.399 . S
C141 C140 1.399 . S
C141 C142 1.381 . S
C142 H134 0.930 . S
C142 C138 1.390 . S
C142 C141 1.381 . S
N143 C136 1.286 . S
N143 C139 1.413 . S
H144 C149 0.930 . S
H145 C152 0.930 . S
H146 C154 0.930 . S
H147 C148 1.016 . S
C148 H147 1.016 . S
C148 N155 1.286 . S
C149 H144 0.930 . S
C149 C150 1.397 . S
C149 C151 1.361 . S
C150 C149 1.397 . S
C150 C154 1.390 . S
C151 C149 1.361 . S
C151 C152 1.393 . S
C151 N155 1.413 . S
C152 H145 0.930 . S
C152 C151 1.393 . S
C152 C153 1.399 . S
C153 C152 1.399 . S
C153 C154 1.381 . S
C154 H146 0.930 . S
C154 C150 1.390 . S
C154 C153 1.381 . S
N155 C148 1.286 . S
N155 C151 1.413 . S
H156 C161 0.930 . S
H157 C164 0.930 . S
H158 C166 0.930 . S
H159 C160 1.016 . S
C160 H159 1.016 . S
C160 N167 1.286 . S
C161 H156 0.930 . S
C161 C162 1.397 . S
C161 C163 1.361 . S
C162 C161 1.397 . S
C162 C166 1.390 . S
C163 C161 1.361 . S
C163 C164 1.393 . S
C163 N167 1.413 . S
C164 H157 0.930 . S
C164 C163 1.393 . S
C164 C165 1.399 . S
C165 C164 1.399 . S
C165 C166 1.381 . S
C166 H158 0.930 . S
C166 C162 1.390 . S
C166 C165 1.381 . S
N167 C160 1.286 . S
N167 C163 1.413 . S
H168 C173 0.930 . S
H169 C176 0.930 . S
H170 C178 0.930 . S
H171 C172 1.016 . S
C172 H171 1.016 . S
C172 N179 1.286 . S
C173 H168 0.930 . S
C173 C174 1.397 . S
C173 C175 1.361 . S
C174 C173 1.397 . S
C174 C178 1.390 . S
C175 C173 1.361 . S
C175 C176 1.393 . S
C175 N179 1.413 . S
C176 H169 0.930 . S
C176 C175 1.393 . S
C176 C177 1.399 . S
C177 C176 1.399 . S
C177 C178 1.381 . S
C178 H170 0.930 . S
C178 C174 1.390 . S
C178 C177 1.381 . S
N179 C172 1.286 . S
N179 C175 1.413 . S
C180 C181 1.154 1_545 S
C180 C182 1.396 . S
C181 C180 1.154 1_565 S
C182 C180 1.396 . S
C182 C183 1.170 . S
C183 C182 1.170 . S
C184 C185 1.170 . S
C184 C186 1.380 . S
C185 C184 1.170 . S
C186 C184 1.380 . S
C186 C187 1.170 . S
C187 C186 1.170 . S
C188 C189 1.170 . S
C188 C190 1.380 1_545 S
C189 C188 1.170 . S
C190 C188 1.380 1_565 S
C190 C191 1.170 . S
C191 C190 1.170 . S
C192 C193 1.170 . S
C192 C194 1.380 . S
C193 C192 1.170 . S
C194 C192 1.380 . S
C194 C195 1.170 . S
C195 C194 1.170 . S
C196 C197 1.170 . S
C196 C198 1.380 . S
C197 C196 1.170 . S
C198 C196 1.380 . S
C198 C199 1.170 . S
C199 C198 1.170 . S
C200 C201 1.170 . S
C200 C202 1.380 . S
C201 C200 1.170 . S
C202 C200 1.380 . S
C202 C203 1.170 1_655 S
C203 C202 1.170 1_455 S
C204 C205 1.170 . S
C204 C206 1.380 . S
C205 C204 1.170 . S
C206 C204 1.380 . S
C206 C207 1.170 . S
C207 C206 1.170 . S
C208 C209 1.170 . S
C208 C210 1.380 1_455 S
C209 C208 1.170 . S
C210 C208 1.380 1_655 S
C210 C211 1.170 . S
C211 C210 1.170 . S
C212 C213 1.146 1_565 S
C212 C214 1.380 . S
C213 C212 1.146 1_545 S
C214 C212 1.380 . S
C214 C215 1.170 . S
C215 C214 1.170 . S
C216 C217 1.170 . S
C216 C218 1.380 . S
C217 C216 1.170 . S
C218 C216 1.380 . S
C218 C219 1.170 . S
C219 C218 1.170 . S
C220 C221 1.170 . S
C220 C222 1.380 . S
C221 C220 1.170 . S
C222 C220 1.380 . S
C222 C223 1.170 . S
C223 C222 1.170 . S
C224 C225 1.170 . S
C224 C226 1.380 . S
C225 C224 1.170 . S
C226 C224 1.380 . S
C226 C227 1.170 . S
C227 C226 1.170 . S
C228 C229 1.170 . S
C228 C230 1.380 . S
C229 C228 1.170 . S
C230 C228 1.380 . S
C230 C231 1.170 . S
C231 C230 1.170 . S
C232 C233 1.170 1_655 S
C232 C234 1.380 . S
C233 C232 1.170 1_455 S
C234 C232 1.380 . S
C234 C235 1.170 . S
C235 C234 1.170 . S
C236 C237 1.170 . S
C236 C238 1.380 . S
C237 C236 1.170 . S
C238 C236 1.380 . S
C238 C239 1.170 . S
C239 C238 1.170 . S
C240 C241 1.170 1_455 S
C240 C242 1.380 . S
C241 C240 1.170 1_655 S
C242 C240 1.380 . S
C242 C243 1.170 . S
C243 C242 1.170 . S
C244 C245 1.170 . S
C244 C246 1.380 . S
C245 C244 1.170 . S
C246 C244 1.380 . S
C246 C247 1.170 . S
C247 C246 1.170 . S
C248 C249 1.170 . S
C248 C250 1.380 . S
C249 C248 1.170 . S
C250 C248 1.380 . S
C250 C251 1.170 . S
C251 C250 1.170 . S
C252 C253 1.170 . S
C252 C254 1.380 . S
C253 C252 1.170 . S
C254 C252 1.380 . S
C254 C255 1.170 . S
C255 C254 1.170 . S
C256 C257 1.170 . S
C256 C258 1.380 . S
C257 C256 1.170 . S
C258 C256 1.380 . S
C258 C259 1.170 . S
C259 C258 1.170 . S
C260 C261 1.170 . S
C260 C262 1.380 . S
C261 C260 1.170 . S
C262 C260 1.380 . S
C262 C263 1.170 . S
C263 C262 1.170 . S
C264 C265 1.170 . S
C264 C266 1.380 . S
C265 C264 1.170 . S
C266 C264 1.380 . S
C266 C267 1.170 . S
C267 C266 1.170 . S
C268 C269 1.170 . S
C268 C270 1.380 . S
C269 C268 1.170 . S
C270 C268 1.380 . S
C270 C271 1.170 . S
C271 C270 1.170 . S
C272 C273 1.170 . S
C272 C274 1.380 . S
C273 C272 1.170 . S
C274 C272 1.380 . S
C274 C275 1.170 . S
C275 C274 1.170 . S
C181 C7 0.936 . S
C183 C93 0.928 . S
C185 C25 1.026 . S
C187 C105 1.040 . S
C189 C46 0.918 . S
C191 C117 0.901 . S
C195 C126 0.969 . S
C193 C70 0.970 . S
C199 C141 0.978 . S
C197 C28 0.916 . S
C201 C49 0.984 . S
C203 C150 0.997 . S
C205 C67 0.819 . S
C207 C165 0.893 . S
C209 C4 1.036 . S
C211 C177 1.034 . S
C213 C58 1.594 . S
C215 C174 1.604 . S
C219 C138 1.634 . S
C217 C66 1.566 . S
C223 C153 1.700 . S
C221 C3 1.586 1_545 S
C225 C37 1.506 . S
C227 C162 1.616 . S
C231 C102 1.617 . S
C229 C79 1.561 . S
C233 C16 1.523 . S
C235 C114 1.602 . S
C239 C129 1.672 . S
C237 C24 1.618 . S
C243 C90 1.645 . S
C241 C45 1.530 . S
C247 C160 1.384 . S
C245 C19 1.292 . S
C251 C172 1.431 . S
C249 C41 1.265 . S
C253 C62 1.302 . S
C255 C136 1.446 . S
C259 C148 1.407 . S
C257 C82 1.275 . S
C263 C112 1.386 . S
C261 C40 1.230 . S
C265 C61 1.273 . S
C267 C124 1.405 . S
C271 C88 1.441 . S
C269 C83 1.277 . S
C275 C100 1.436 . S
C273 C20 1.295 . S
