# Generated by pormake.
# Topology anh, (6,3)-cn, num edge types: 1
# Building blocks:
#     Node 0, Type 0, BuildingBlock: CUWYAW_clean_sbu_0, # of connection points: 6
#     Node 1, Type 0, BuildingBlock: CUWYAW_clean_sbu_0, # of connection points: 6
#     Node 2, Type 0, BuildingBlock: CUWYAW_clean_sbu_0, # of connection points: 6
#     Node 3, Type 1, BuildingBlock: CUQRIR_clean_linker_1, # of connection points: 3
#     Node 4, Type 1, BuildingBlock: CUQRIR_clean_linker_1, # of connection points: 3
#     Node 5, Type 1, BuildingBlock: CUQRIR_clean_linker_1, # of connection points: 3
#     Node 6, Type 1, BuildingBlock: CUQRIR_clean_linker_1, # of connection points: 3
#     Node 7, Type 1, BuildingBlock: CUQRIR_clean_linker_1, # of connection points: 3
#     Node 8, Type 1, BuildingBlock: CUQRIR_clean_linker_1, # of connection points: 3
#     Edge 9, Type (0, 1), BuildingBlock: UVAHIK_clean_linker_0, # of connection points: 2
#     Edge 10, Type (0, 1), BuildingBlock: UVAHIK_clean_linker_0, # of connection points: 2
#     Edge 11, Type (0, 1), BuildingBlock: UVAHIK_clean_linker_0, # of connection points: 2
#     Edge 12, Type (0, 1), BuildingBlock: UVAHIK_clean_linker_0, # of connection points: 2
#     Edge 13, Type (0, 1), BuildingBlock: UVAHIK_clean_linker_0, # of connection points: 2
#     Edge 14, Type (0, 1), BuildingBlock: UVAHIK_clean_linker_0, # of connection points: 2
#     Edge 15, Type (0, 1), BuildingBlock: UVAHIK_clean_linker_0, # of connection points: 2
#     Edge 16, Type (0, 1), BuildingBlock: UVAHIK_clean_linker_0, # of connection points: 2
#     Edge 17, Type (0, 1), BuildingBlock: UVAHIK_clean_linker_0, # of connection points: 2
#     Edge 18, Type (0, 1), BuildingBlock: UVAHIK_clean_linker_0, # of connection points: 2
#     Edge 19, Type (0, 1), BuildingBlock: UVAHIK_clean_linker_0, # of connection points: 2
#     Edge 20, Type (0, 1), BuildingBlock: UVAHIK_clean_linker_0, # of connection points: 2
#     Edge 21, Type (0, 1), BuildingBlock: UVAHIK_clean_linker_0, # of connection points: 2
#     Edge 22, Type (0, 1), BuildingBlock: UVAHIK_clean_linker_0, # of connection points: 2
#     Edge 23, Type (0, 1), BuildingBlock: UVAHIK_clean_linker_0, # of connection points: 2
#     Edge 24, Type (0, 1), BuildingBlock: UVAHIK_clean_linker_0, # of connection points: 2
#     Edge 25, Type (0, 1), BuildingBlock: UVAHIK_clean_linker_0, # of connection points: 2
#     Edge 26, Type (0, 1), BuildingBlock: UVAHIK_clean_linker_0, # of connection points: 2
# Relax obj value: 0.223
# Max RMSD: 0.200
# Mean RMSD: 0.150
data_MOF--net-anh--node1-CUWYAW_clean_sbu_0--node2-CUQRIR_clean_linker_1--edge1-UVAHIK_clean_linker_0
_symmetry_space_group_name_H-M    P1
_symmetry_Int_Tables_number       1
_symmetry_cell_setting            triclinic
loop_
_symmetry_equiv_pos_as_xyz
'x, y, z'
_cell_length_a     36.69815
_cell_length_b     36.742897
_cell_length_c     61.600617
_cell_angle_alpha  86.078946
_cell_angle_beta   91.866371
_cell_angle_gamma 120.27757
loop_
_atom_site_label
_atom_site_type_symbol
_atom_site_fract_x
_atom_site_fract_y
_atom_site_fract_z
_atom_type_partial_charge
C0 C 1.03272 0.44813 0.14012 0.0
Eu1 Eu 1.08324 0.52055 0.15596 0.0
C2 C 0.99124 0.43263 0.12979 0.0
C3 C 0.95953 0.39068 0.13398 0.0
C4 C 0.91801 0.37765 0.1278 0.0
C5 C 0.90746 0.4065 0.11742 0.0
C6 C 0.93988 0.44787 0.11195 0.0
C7 C 0.98147 0.46081 0.11804 0.0
C8 C 1.09974 0.54052 0.19799 0.0
C9 C 1.03006 0.57172 0.15622 0.0
C10 C 0.18275 0.68737 0.17397 0.0
Eu11 Eu 0.1288 0.61327 0.16139 0.0
C12 C 0.22924 0.71114 0.1717 0.0
C13 C 0.24836 0.73417 0.15212 0.0
C14 C 0.29174 0.75229 0.14901 0.0
C15 C 0.31698 0.74794 0.16543 0.0
C16 C 0.29806 0.72574 0.18517 0.0
C17 C 0.25469 0.70766 0.1883 0.0
C18 C 0.11271 0.59146 0.11975 0.0
C19 C 0.18366 0.56387 0.15803 0.0
O20 O 1.06474 0.47882 0.12929 0.0
O21 O 1.03395 0.45451 0.16085 0.0
O22 O 1.10125 0.5094 0.19004 0.0
O23 O 1.08754 0.55852 0.1837 0.0
O24 O 1.03188 0.53863 0.15029 0.0
O25 O 1.06361 0.60434 0.16416 0.0
O26 O 0.16698 0.65333 0.18714 0.0
O27 O 0.16117 0.68161 0.15592 0.0
O28 O 0.11057 0.6229 0.12668 0.0
O29 O 0.12517 0.57521 0.1346 0.0
O30 O 0.18321 0.59893 0.16151 0.0
O31 O 0.14827 0.52833 0.15455 0.0
H32 H 0.96643 0.3686 0.14312 0.0
H33 H 0.89377 0.34572 0.13263 0.0
H34 H 0.93282 0.47073 0.10388 0.0
H35 H 1.00557 0.49342 0.1145 0.0
H36 H 0.22974 0.73748 0.13896 0.0
H37 H 0.30544 0.76923 0.13363 0.0
H38 H 0.31686 0.72274 0.19833 0.0
H39 H 0.241 0.6903 0.20361 0.0
C40 C 0.61018 0.18098 0.46516 0.0
Eu41 Eu 0.63525 0.13702 0.48919 0.0
C42 C 0.63374 0.21646 0.44912 0.0
C43 C 0.63019 0.25255 0.44941 0.0
C44 C 0.65892 0.28973 0.43785 0.0
C45 C 0.69172 0.29146 0.42564 0.0
C46 C 0.69266 0.25401 0.42383 0.0
C47 C 0.66429 0.21704 0.43567 0.0
C48 C 0.63859 0.12871 0.53324 0.0
C49 C 0.73848 0.19417 0.49244 0.0
C50 C 0.71598 1.05923 0.53285 0.0
Eu51 Eu 0.68537 0.09612 0.50709 0.0
C52 C 0.71059 1.01798 0.53966 0.0
C53 C 0.74395 1.01654 0.55048 0.0
C54 C 0.74067 0.97788 0.55666 0.0
C55 C 0.70389 0.93998 0.55209 0.0
C56 C 0.66995 0.94145 0.54167 0.0
C57 C 0.67335 0.98037 0.53538 0.0
C58 C 0.68439 0.10507 0.46338 0.0
C59 C 0.58217 1.03585 0.49737 0.0
O60 O 0.60375 0.14422 0.46005 0.0
O61 O 0.62219 0.18883 0.48538 0.0
O62 O 0.60517 0.12378 0.5228 0.0
O63 O 0.66847 0.13969 0.52015 0.0
O64 O 0.70406 0.1875 0.48158 0.0
O65 O 0.7373 0.16486 0.50662 0.0
O66 O 0.68641 1.06658 0.53869 0.0
O67 O 0.72958 0.07355 0.51297 0.0
O68 O 0.71636 0.10705 0.47411 0.0
O69 O 0.65404 0.09483 0.47599 0.0
O70 O 0.61735 1.03851 0.50587 0.0
O71 O 0.58164 0.06979 0.4891 0.0
H72 H 0.60705 0.25285 0.45977 0.0
H73 H 0.65731 0.31786 0.44004 0.0
H74 H 0.71694 0.25384 0.41438 0.0
H75 H 0.66805 0.18974 0.43532 0.0
H76 H 0.77277 1.04541 0.55397 0.0
H77 H 0.76704 0.9776 0.56494 0.0
H78 H 0.64138 0.91263 0.53787 0.0
H79 H 0.64731 0.98114 0.52701 0.0
C80 C 0.81765 0.70197 0.79847 0.0
Eu81 Eu 0.74778 0.66157 0.82044 0.0
C82 C 0.83865 0.68452 0.78606 0.0
C83 C 0.87227 0.68123 0.79552 0.0
C84 C 0.88397 0.65397 0.78749 0.0
C85 C 0.86223 0.62957 0.76985 0.0
C86 C 0.83198 0.63647 0.75887 0.0
C87 C 0.82063 0.66415 0.76675 0.0
C88 C 0.73371 0.65342 0.86385 0.0
C89 C 0.70889 0.56108 0.82904 0.0
C90 C 0.58547 0.56267 0.85441 0.0
Eu91 Eu 0.65541 0.61156 0.83321 0.0
C92 C 0.55323 0.56131 0.86849 0.0
C93 C 0.53274 0.52707 0.88374 0.0
C94 C 0.4976 0.52093 0.89507 0.0
C95 C 0.4823 0.54899 0.89132 0.0
C96 C 0.50457 0.58488 0.87704 0.0
C97 C 0.53981 0.59097 0.86565 0.0
C98 C 0.67059 0.61546 0.79003 0.0
C99 C 0.69334 0.71098 0.82116 0.0
O100 O 0.78154 0.69626 0.79073 0.0
O101 O 0.8165 0.69446 0.81963 0.0
O102 O 0.76611 0.65461 0.85522 0.0
O103 O 0.71219 0.66006 0.84939 0.0
O104 O 0.73973 0.59619 0.8196 0.0
O105 O 0.67534 0.5607 0.83697 0.0
O106 O 0.62277 0.5747 0.86283 0.0
O107 O 0.58693 0.57646 0.8341 0.0
O108 O 0.63746 0.61471 0.79746 0.0
O109 O 0.69136 0.6114 0.80557 0.0
O110 O 0.66232 0.67703 0.8315 0.0
O111 O 0.72713 0.71078 0.81424 0.0
H112 H 0.8872 0.69703 0.81021 0.0
H113 H 0.90749 0.64929 0.79627 0.0
H114 H 0.81548 0.61863 0.74497 0.0
H115 H 0.79556 0.66706 0.75861 0.0
H116 H 0.54284 0.50399 0.8862 0.0
H117 H 0.48142 0.49334 0.90619 0.0
H118 H 0.49337 0.60691 0.87373 0.0
H119 H 0.55538 0.61775 0.85399 0.0
C120 C 0.66184 0.10139 0.20493 0.0
N121 N 0.67094 0.13241 0.21847 0.0
N122 N 0.66715 0.07057 0.21519 0.0
C123 C 0.64592 0.10014 0.18199 0.0
C124 C 0.68026 0.08432 0.23537 0.0
N125 N 0.6833 0.12222 0.23724 0.0
C126 C 0.68582 1.05871 0.25394 0.0
H127 H 0.65314 0.08065 0.17199 0.0
H128 H 0.66019 0.1324 0.17404 0.0
H129 H 0.61117 0.08616 0.1824 0.0
H130 H 0.68485 1.03018 0.24834 0.0
H131 H 0.66048 1.04912 0.26613 0.0
H132 H 0.71647 0.07815 0.26208 0.0
C133 C 0.7739 0.58963 0.54349 0.0
N134 N 0.75602 0.58872 0.56246 0.0
N135 N 0.78395 0.55887 0.54399 0.0
C136 C 0.78436 0.62249 0.52506 0.0
C137 C 0.77178 0.53936 0.56413 0.0
N138 N 0.75475 0.55764 0.57538 0.0
C139 C 0.77385 0.50092 0.57216 0.0
H140 H 0.75662 0.61208 0.51417 0.0
H141 H 0.81152 0.62699 0.51543 0.0
H142 H 0.79194 0.65315 0.53131 0.0
H143 H 0.80561 0.5111 0.57909 0.0
H144 H 0.76894 0.48061 0.55856 0.0
H145 H 0.74991 0.4824 0.58502 0.0
C146 C 1.03712 0.41686 0.87525 0.0
N147 N 1.0553 0.43003 0.89479 0.0
N148 N 0.99868 0.41358 0.87413 0.0
C149 C 1.05673 0.40694 0.85717 0.0
C150 C 0.99399 0.42503 0.89387 0.0
N151 N 1.02828 0.4347 0.90648 0.0
C152 C 0.95865 0.43228 0.89959 0.0
H153 H 1.07651 0.4361 0.84688 0.0
H154 H 1.03193 0.38339 0.84676 0.0
H155 H 1.07716 0.39467 0.8639 0.0
H156 H 0.9499 0.44638 0.88532 0.0
H157 H 0.96719 0.45334 0.91322 0.0
H158 H 0.93055 0.40143 0.90438 0.0
C159 C 0.16423 0.61154 0.4607 0.0
N160 N 0.13508 0.5867 0.44594 0.0
N161 N 0.19702 0.64649 0.45063 0.0
C162 C 0.16106 0.60137 0.48485 0.0
C163 C 0.18644 0.64214 0.42929 0.0
N164 N 0.14907 0.60631 0.42643 0.0
C165 C 0.21345 0.67248 0.41109 0.0
H166 H 0.12766 0.5852 0.49024 0.0
H167 H 0.17977 0.63012 0.49395 0.0
H168 H 0.17363 0.57988 0.48884 0.0
H169 H 0.23464 0.66183 0.40526 0.0
H170 H 0.23313 0.70483 0.41675 0.0
H171 H 0.19405 0.67351 0.39717 0.0
C172 C 0.69296 0.1342 0.79707 0.0
N173 N 0.6857 0.10512 0.78226 0.0
N174 N 0.68936 0.16697 0.78774 0.0
C175 C 0.70217 0.13025 0.82076 0.0
C176 C 0.67935 0.15673 0.76686 0.0
N177 N 0.67677 0.11941 0.76354 0.0
C178 C 0.67263 0.18352 0.7494 0.0
H179 H 0.68609 0.09661 0.82683 0.0
H180 H 0.69199 0.14784 0.83053 0.0
H181 H 0.73669 0.14397 0.8229 0.0
H182 H 0.69119 0.18728 0.73469 0.0
H183 H 0.68157 0.21511 0.75482 0.0
H184 H 0.63883 0.16722 0.74474 0.0
C185 C 0.61038 0.57574 0.1247 0.0
N186 N 0.64068 0.58027 0.11061 0.0
N187 N 0.57881 0.57874 0.11392 0.0
C188 C 0.60946 0.56453 0.14867 0.0
C189 C 0.59123 0.58553 0.09283 0.0
N190 N 0.62808 0.58599 0.09078 0.0
C191 C 0.56851 0.59403 0.07412 0.0
H192 H 0.62584 0.54638 0.15229 0.0
H193 H 0.57651 0.54572 0.15473 0.0
H194 H 0.62575 0.59402 0.15746 0.0
H195 H 0.55013 0.6081 0.07967 0.0
H196 H 0.5466 0.56385 0.06671 0.0
H197 H 0.59115 0.61573 0.06137 0.0
C198 C 0.22701 0.52782 0.15843 0.0
C199 C 0.2251 0.56519 0.15661 0.0
C200 C 0.26547 0.52869 0.15618 0.0
C201 C 0.38431 0.60302 0.15172 0.0
H202 H 0.37975 0.50403 0.13057 0.0
C203 C 0.53887 0.59705 0.13893 0.0
C204 C 0.53943 0.57334 0.12209 0.0
C205 C 0.501 0.59493 0.14495 0.0
C206 C 0.38216 0.53242 0.13618 0.0
H207 H 0.263 0.63312 0.15105 0.0
H208 H 0.32933 0.63468 0.14608 0.0
H209 H 0.31513 0.50409 0.1362 0.0
H210 H 0.50012 0.52745 0.09912 0.0
H211 H 0.43534 0.52519 0.10851 0.0
H212 H 0.45166 0.63225 0.15027 0.0
C213 C 0.30149 0.60445 0.14995 0.0
C214 C 0.34443 0.53213 0.13993 0.0
C215 C 0.26307 0.60361 0.15266 0.0
C216 C 0.50096 0.54654 0.11196 0.0
C217 C 0.46342 0.54489 0.11766 0.0
C218 C 0.42218 0.60361 0.14756 0.0
C219 C 0.30352 0.56693 0.15149 0.0
C220 C 0.34453 0.56739 0.14778 0.0
C221 C 0.46253 0.56928 0.13417 0.0
C222 C 0.42195 0.56835 0.13958 0.0
H223 H 0.19864 0.49764 0.16171 0.0
H224 H 0.26506 0.49902 0.15825 0.0
H225 H 0.38655 0.63078 0.15811 0.0
H226 H 0.56795 0.6181 0.14703 0.0
H227 H 0.50213 0.61367 0.15803 0.0
C228 C 0.8176 0.24117 0.49729 0.0
C229 C 0.77928 0.235 0.48819 0.0
C230 C 0.85591 0.27906 0.49289 0.0
C231 C 0.90616 0.37444 0.45359 0.0
H232 H 0.99248 0.42039 0.49789 0.0
C233 C 1.05727 0.54132 0.44157 0.0
C234 C 1.09568 0.54706 0.45019 0.0
C235 C 1.01899 0.50349 0.44607 0.0
C236 C 0.96901 0.40793 0.48518 0.0
H237 H 0.75188 0.26509 0.46748 0.0
H238 H 0.81805 0.33112 0.46048 0.0
H239 H 0.92616 0.35527 0.50616 0.0
H240 H 0.12378 0.51658 0.46978 0.0
H241 H 1.05738 0.4509 0.47781 0.0
H242 H 0.9489 0.42722 0.43264 0.0
C243 C 0.81879 0.30619 0.47048 0.0
C244 C 0.9307 0.3703 0.48995 0.0
C245 C 0.78055 0.26823 0.47473 0.0
C246 C 1.09475 0.51364 0.46325 0.0
C247 C 1.05648 0.47587 0.46785 0.0
C248 C 0.94437 0.41218 0.44885 0.0
C249 C 0.85729 0.31227 0.47931 0.0
C250 C 0.89848 0.3528 0.47426 0.0
C251 C 1.0178 0.47009 0.45941 0.0
C252 C 0.97661 0.42965 0.46453 0.0
H253 H 0.81818 0.21646 0.50766 0.0
H254 H 0.88462 0.28193 0.49989 0.0
H255 H 0.88292 0.36175 0.44081 0.0
H256 H 1.05674 0.56654 0.43166 0.0
H257 H 0.99013 0.50085 0.43943 0.0
C258 C 0.72178 0.78527 0.80429 0.0
C259 C 0.69121 0.7509 0.81731 0.0
C260 C 0.72051 0.82284 0.80055 0.0
C261 C 0.64988 0.86948 0.80487 0.0
H262 H 0.75528 0.97503 0.79639 0.0
C263 C 0.65336 1.02757 0.77841 0.0
C264 C 0.68642 1.06573 0.78582 0.0
C265 C 0.65361 0.98938 0.7822 0.0
C266 C 0.72537 0.9461 0.79893 0.0
H267 H 0.63503 0.73004 0.8366 0.0
H268 H 0.63323 0.79562 0.83055 0.0
H269 H 0.75608 0.90975 0.80389 0.0
H270 H 0.74623 0.09329 0.80265 0.0
H271 H 0.74621 1.02718 0.80998 0.0
H272 H 0.61928 0.90617 0.80064 0.0
C273 C 0.658 0.79335 0.82281 0.0
C274 C 0.72579 0.9081 0.80293 0.0
C275 C 0.65914 0.75553 0.82644 0.0
C276 C 0.71991 1.06454 0.79698 0.0
C277 C 0.7201 1.02639 0.8009 0.0
C278 C 0.64946 0.90758 0.80097 0.0
C279 C 0.68877 0.8279 0.80981 0.0
C280 C 0.68807 0.86888 0.8059 0.0
C281 C 0.68693 0.9879 0.79362 0.0
C282 C 0.68721 0.94676 0.79786 0.0
H283 H 0.74686 0.78318 0.79675 0.0
H284 H 0.74437 0.84778 0.79006 0.0
H285 H 0.61996 0.84035 0.80679 0.0
H286 H 0.62687 1.0271 0.76991 0.0
H287 H 0.62768 0.96104 0.77593 0.0
C288 C 0.9902 0.61094 0.14901 0.0
C289 C 0.98977 0.57256 0.153 0.0
C290 C 0.95259 0.61165 0.14483 0.0
C291 C 0.83705 0.54026 0.13104 0.0
H292 H 0.83029 0.63871 0.14311 0.0
C293 C 0.69064 0.55474 0.10392 0.0
C294 C 0.67915 0.57893 0.11571 0.0
C295 C 0.72811 0.55406 0.10861 0.0
C296 C 0.83097 0.6105 0.13985 0.0
H297 H 0.94875 0.50473 0.15636 0.0
H298 H 0.88328 0.50603 0.15095 0.0
H299 H 0.89395 0.63666 0.15207 0.0
H300 H 0.6986 0.62135 0.14181 0.0
H301 H 0.76225 0.61845 0.15092 0.0
H302 H 0.77326 0.51316 0.11993 0.0
C303 C 0.91273 0.5357 0.14971 0.0
C304 C 0.86832 0.60965 0.14467 0.0
C305 C 0.95046 0.53493 0.15319 0.0
C306 C 0.70613 0.60203 0.13252 0.0
C307 C 0.74326 0.60084 0.13749 0.0
C308 C 0.79945 0.54084 0.12655 0.0
C309 C 0.91294 0.57401 0.14505 0.0
C310 C 0.87234 0.57461 0.14027 0.0
C311 C 0.75526 0.57699 0.12557 0.0
C312 C 0.79561 0.57608 0.13072 0.0
H313 H 1.01987 0.64056 0.14849 0.0
H314 H 0.95499 0.64195 0.14099 0.0
H315 H 0.83833 0.51277 0.12693 0.0
H316 H 0.67041 0.53587 0.09114 0.0
H317 H 0.73583 0.53573 0.09866 0.0
C318 C 0.53915 0.95557 0.50419 0.0
C319 C 0.54252 0.99365 0.49549 0.0
C320 C 0.50187 0.91642 0.50155 0.0
C321 C 0.38699 0.86976 0.48541 0.0
H322 H 0.39276 0.76888 0.47841 0.0
C323 C 0.23359 0.70839 0.47361 0.0
C324 C 0.2353 0.68047 0.45973 0.0
C325 C 0.27076 0.74442 0.4801 0.0
C326 C 0.39031 0.79669 0.48013 0.0
H327 H 0.50851 1.0194 0.47691 0.0
H328 H 0.44515 0.95236 0.47197 0.0
H329 H 0.45712 0.83503 0.48497 0.0
H330 H 0.27753 0.66847 0.44196 0.0
H331 H 0.34207 0.7313 0.45267 0.0
H332 H 0.32065 0.83214 0.47965 0.0
C333 C 0.47053 0.95227 0.48137 0.0
C334 C 0.42752 0.83485 0.48425 0.0
C335 C 0.50744 0.99115 0.48411 0.0
C336 C 0.27521 0.68916 0.45283 0.0
C337 C 0.31235 0.72528 0.45913 0.0
C338 C 0.34991 0.83176 0.48115 0.0
C339 C 0.46679 0.91402 0.49005 0.0
C340 C 0.4267 0.87231 0.48676 0.0
C341 C 0.31093 0.75404 0.47268 0.0
C342 C 0.35075 0.79443 0.47826 0.0
H343 H 0.5653 0.95594 0.51305 0.0
H344 H 0.50053 0.88806 0.50875 0.0
H345 H 0.3843 0.89727 0.48763 0.0
H346 H 0.20333 0.70301 0.4789 0.0
H347 H 0.2678 0.76492 0.49081 0.0
C348 C 0.74422 0.52052 0.81878 0.0
C349 C 0.70954 0.52057 0.82798 0.0
C350 C 0.74398 0.48258 0.81634 0.0
C351 C 0.68689 0.36637 0.83401 0.0
H352 H 0.74167 0.35847 0.78329 0.0
C353 C 0.66203 0.20537 0.80717 0.0
C354 C 0.69555 0.205 0.79701 0.0
C355 C 0.6655 0.24363 0.81266 0.0
C356 C 0.72665 0.36003 0.79775 0.0
H357 H 0.64738 0.47975 0.84192 0.0
H358 H 0.6466 0.41387 0.83742 0.0
H359 H 0.74391 0.42426 0.78929 0.0
H360 H 0.75898 0.24431 0.78472 0.0
H361 H 0.7658 0.311 0.79467 0.0
H362 H 0.66902 0.30172 0.84222 0.0
C363 C 0.67452 0.44326 0.83239 0.0
C364 C 0.72799 0.39816 0.80125 0.0
C365 C 0.67484 0.48129 0.83491 0.0
C366 C 0.73296 0.24367 0.79288 0.0
C367 C 0.7365 0.28194 0.79831 0.0
C368 C 0.68538 0.32812 0.83045 0.0
C369 C 0.70895 0.44309 0.82288 0.0
C370 C 0.70806 0.40215 0.81942 0.0
C371 C 0.70254 0.28277 0.80795 0.0
C372 C 0.70513 0.32415 0.81222 0.0
H373 H 0.77165 0.54991 0.8132 0.0
H374 H 0.77157 0.4844 0.80935 0.0
H375 H 0.67174 0.3679 0.84842 0.0
H376 H 0.63253 0.17611 0.81006 0.0
H377 H 0.63837 0.24256 0.81978 0.0
C378 C 0.73685 0.8952 0.55228 0.0
C379 C 0.70225 0.8994 0.55743 0.0
C380 C 0.73682 0.85793 0.55794 0.0
C381 C 0.6682 0.74506 0.57091 0.0
H382 H 0.77503 0.75492 0.58865 0.0
C383 C 0.75768 0.64086 0.58615 0.0
C384 C 0.74161 0.61675 0.56791 0.0
C385 C 0.74547 0.66992 0.5906 0.0
C386 C 0.74458 0.7512 0.58425 0.0
H387 H 0.64005 0.86777 0.57213 0.0
H388 H 0.64 0.80194 0.58219 0.0
H389 H 0.768 0.81715 0.58605 0.0
H390 H 0.69903 0.602 0.54062 0.0
H391 H 0.67935 0.65443 0.54745 0.0
H392 H 0.64484 0.67895 0.56904 0.0
C393 C 0.66709 0.82768 0.57372 0.0
C394 C 0.74078 0.78709 0.58243 0.0
C395 C 0.66707 0.86518 0.56795 0.0
C396 C 0.7121 0.62089 0.5546 0.0
C397 C 0.70037 0.65037 0.55879 0.0
C398 C 0.67186 0.70892 0.57293 0.0
C399 C 0.70225 0.82397 0.56899 0.0
C400 C 0.7032 0.78471 0.57482 0.0
C401 C 0.71764 0.67593 0.57657 0.0
C402 C 0.71065 0.71192 0.57877 0.0
H403 H 0.76396 0.92077 0.54373 0.0
H404 H 0.76382 0.85559 0.55344 0.0
H405 H 0.63876 0.74224 0.5651 0.0
H406 H 0.78048 0.63793 0.5966 0.0
H407 H 0.75882 0.68857 0.60464 0.0
C408 C 0.82996 0.55217 0.76626 0.0
C409 C 0.8662 0.59257 0.76565 0.0
C410 C 0.83372 0.5161 0.76832 0.0
C411 C 0.91041 0.47788 0.77007 0.0
H412 H 0.85763 0.42415 0.82566 0.0
C413 C 0.99725 0.44425 0.83774 0.0
C414 C 0.97612 0.41357 0.8546 0.0
C415 C 0.97495 0.44919 0.8202 0.0
C416 C 0.87174 0.43748 0.80982 0.0
H417 H 0.93442 0.62704 0.76447 0.0
H418 H 0.94115 0.56422 0.76798 0.0
H419 H 0.833 0.46521 0.80419 0.0
H420 H 0.91563 0.36258 0.86607 0.0
H421 H 0.87589 0.37097 0.83513 0.0
H422 H 0.9507 0.45196 0.7763 0.0
C423 C 0.90982 0.5602 0.76682 0.0
C424 C 0.85757 0.46119 0.79746 0.0
C425 C 0.90608 0.59625 0.76497 0.0
C426 C 0.93239 0.38639 0.85314 0.0
C427 C 0.90984 0.39132 0.8355 0.0
C428 C 0.92426 0.45374 0.7823 0.0
C429 C 0.87374 0.51988 0.76964 0.0
C430 C 0.87868 0.48392 0.77821 0.0
C431 C 0.93078 0.42366 0.81913 0.0
C432 C 0.90709 0.43585 0.80305 0.0
H433 H 0.79878 0.54845 0.76699 0.0
H434 H 0.80546 0.48542 0.77033 0.0
H435 H 0.92666 0.49442 0.75506 0.0
H436 H 1.03079 0.46625 0.83883 0.0
H437 H 0.99219 0.47514 0.80831 0.0
C438 C 0.38605 0.81022 0.15361 0.0
C439 C 0.36328 0.76858 0.16256 0.0
C440 C 0.43 0.83213 0.15381 0.0
C441 C 0.5243 0.87427 0.15396 0.0
H442 H 0.55857 0.86696 0.21352 0.0
C443 C 0.66275 1.01776 0.1909 0.0
C444 C 0.64812 1.02783 0.20902 0.0
C445 C 0.63998 0.97721 0.18318 0.0
C446 C 0.5499 0.86899 0.19669 0.0
H447 H 0.36853 0.71576 0.17677 0.0
H448 H 0.4457 0.75433 0.17729 0.0
H449 H 0.49283 0.80972 0.20033 0.0
H450 H 0.6004 1.00385 0.23408 0.0
H451 H 0.56086 0.93314 0.22101 0.0
H452 H 0.57925 0.93566 0.15114 0.0
C453 C 0.42947 0.77018 0.17041 0.0
C454 C 0.51233 0.83597 0.18902 0.0
C455 C 0.38536 0.74822 0.17024 0.0
C456 C 0.61224 0.99639 0.22018 0.0
C457 C 0.58988 0.95593 0.21273 0.0
C458 C 0.56177 0.90744 0.16169 0.0
C459 C 0.45225 0.8129 0.16295 0.0
C460 C 0.4977 0.83964 0.16807 0.0
C461 C 0.60272 0.94619 0.19376 0.0
C462 C 0.57328 0.90629 0.1836 0.0
H463 H 0.36999 0.82688 0.14772 0.0
H464 H 0.44634 0.86517 0.14826 0.0
H465 H 0.51435 0.87746 0.13754 0.0
H466 H 0.69068 1.04177 0.18225 0.0
H467 H 0.65057 0.97054 0.16854 0.0
C468 C 0.72344 0.36824 0.4139 0.0
C469 C 0.72868 0.33327 0.4189 0.0
C470 C 0.75669 0.40898 0.41696 0.0
C471 C 0.83403 0.44372 0.45926 0.0
H472 H 0.82878 0.54555 0.4462 0.0
C473 C 0.83424 0.54228 0.52771 0.0
C474 C 0.79838 0.5466 0.52596 0.0
C475 C 0.84804 0.53085 0.50979 0.0
C476 C 0.8313 0.51766 0.44997 0.0
H477 H 0.77569 0.31458 0.42575 0.0
H478 H 0.83373 0.3857 0.43005 0.0
H479 H 0.81649 0.49844 0.41729 0.0
H480 H 0.74865 0.54229 0.5046 0.0
H481 H 0.77222 0.52238 0.47347 0.0
H482 H 0.8449 0.46081 0.49226 0.0
C483 C 0.80334 0.3814 0.42505 0.0
C484 C 0.82438 0.49076 0.4334 0.0
C485 C 0.76988 0.34051 0.42241 0.0
C486 C 0.7768 0.5398 0.50613 0.0
C487 C 0.79063 0.52884 0.48828 0.0
C488 C 0.84089 0.47058 0.47579 0.0
C489 C 0.79587 0.41532 0.42472 0.0
C490 C 0.82195 0.45168 0.43831 0.0
C491 C 0.82625 0.52396 0.48987 0.0
C492 C 0.83604 0.50591 0.47163 0.0
H493 H 0.69254 0.36392 0.41005 0.0
H494 H 0.74976 0.4344 0.41597 0.0
H495 H 0.83287 0.41414 0.46375 0.0
H496 H 0.85144 0.54776 0.54289 0.0
H497 H 0.87536 0.52695 0.51154 0.0
C498 C 0.40631 0.49715 0.8988 0.0
C499 C 0.44077 0.53823 0.90025 0.0
C500 C 0.36596 0.48747 0.90479 0.0
C501 C 0.30347 0.53947 0.90958 0.0
H502 H 0.21721 0.42541 0.92763 0.0
C503 C 0.10928 0.42911 0.91954 0.0
C504 C 1.09868 0.4444 0.90034 0.0
C505 C 0.15169 0.44358 0.92473 0.0
C506 C 0.24087 0.45766 0.92299 0.0
H507 H 0.46041 0.60092 0.9102 0.0
H508 H 0.3898 0.58384 0.92122 0.0
H509 H 0.29111 0.44486 0.92923 0.0
H510 H 0.12332 0.48801 0.87212 0.0
H511 H 0.19689 0.51177 0.88037 0.0
H512 H 0.25334 0.55243 0.90358 0.0
C513 C 0.39385 0.55927 0.91496 0.0
C514 C 0.28332 0.46869 0.92362 0.0
C515 C 0.4343 0.56908 0.90872 0.0
C516 C 0.13087 0.475 0.8867 0.0
C517 C 0.17303 0.48921 0.89173 0.0
C518 C 0.26112 0.52861 0.90924 0.0
C519 C 0.35897 0.51855 0.91259 0.0
C520 C 0.31503 0.50923 0.91606 0.0
C521 C 0.18409 0.4736 0.91076 0.0
C522 C 0.22917 0.48709 0.91505 0.0
H523 H 0.41012 0.47285 0.89198 0.0
H524 H 0.33996 0.45605 0.90224 0.0
H525 H 0.32681 0.57097 0.90358 0.0
H526 H 1.08473 0.40583 0.93037 0.0
H527 H 0.15906 0.43124 0.93964 0.0
C528 C 0.83147 0.35371 0.11132 0.0
C529 C 0.86247 0.39493 0.11587 0.0
C530 C 0.7897 0.33793 0.11754 0.0
C531 C 0.74624 0.35342 0.16503 0.0
H532 H 0.65786 0.24246 0.15005 0.0
C533 C 0.63719 0.17179 0.20264 0.0
C534 C 0.67162 0.17146 0.2131 0.0
C535 C 0.64201 0.20917 0.19243 0.0
C536 C 0.68118 0.27383 0.15457 0.0
H537 H 0.87278 0.4543 0.12665 0.0
H538 H 0.79979 0.42699 0.13733 0.0
H539 H 0.69959 0.29451 0.12138 0.0
H540 H 0.73583 0.20999 0.22378 0.0
H541 H 0.74466 0.27518 0.20626 0.0
H542 H 0.72957 0.33179 0.19829 0.0
C543 C 0.80785 0.40636 0.12959 0.0
C544 C 0.70545 0.30364 0.13804 0.0
C545 C 0.84973 0.4221 0.12338 0.0
C546 C 0.70905 0.20966 0.21567 0.0
C547 C 0.71385 0.24702 0.20567 0.0
C548 C 0.72164 0.32382 0.18152 0.0
C549 C 0.77819 0.36316 0.12843 0.0
C550 C 0.74102 0.34204 0.14329 0.0
C551 C 0.68122 0.24676 0.19284 0.0
C552 C 0.69181 0.2824 0.17652 0.0
H553 H 0.84018 0.33239 0.10492 0.0
H554 H 0.76791 0.30457 0.1161 0.0
H555 H 0.77277 0.38296 0.16981 0.0
H556 H 0.60756 0.14264 0.2011 0.0
H557 H 0.61609 0.20806 0.183 0.0
C558 C 0.11752 0.55063 0.09049 0.0
C559 C 0.10405 0.57761 0.09736 0.0
C560 C 0.10934 0.53702 0.06936 0.0
C561 C 1.03782 0.51818 0.02349 0.0
H562 H 0.12779 0.52223 0.99011 0.0
C563 C 1.00935 0.42949 0.94498 0.0
C564 C 1.03663 0.45219 0.92748 0.0
C565 C 1.01715 0.4464 0.96539 0.0
C566 C 0.10243 0.52114 -0.00081 0.0
H567 H 1.07115 0.61122 0.08778 0.0
H568 H 1.05631 0.5869 0.05068 0.0
H569 H 0.14246 0.54945 0.0264 0.0
H570 H 1.09253 0.51056 0.91714 0.0
H571 H 0.10707 0.53989 0.95304 0.0
H572 H 0.99768 0.4894 -0.00366 0.0
C573 C 1.07333 0.57649 0.06168 0.0
C574 C 0.11074 0.53641 0.01999 0.0
C575 C 1.082 0.59057 0.08279 0.0
C576 C 1.07166 0.49219 0.93059 0.0
C577 C 1.07981 0.50893 0.95105 0.0
C578 C 1.02937 0.50242 0.00277 0.0
C579 C 1.08715 0.54976 0.05475 0.0
C580 C 1.0785 0.53494 0.03238 0.0
C581 C 1.05262 0.4862 0.96866 0.0
C582 C 1.06159 0.50365 0.99044 0.0
H583 H 0.13459 0.54017 0.10142 0.0
H584 H 0.11994 0.51606 0.06453 0.0
H585 H 1.01234 0.51643 0.03276 0.0
H586 H 0.98216 0.3986 0.94279 0.0
H587 H 0.99588 0.42804 0.97872 0.0
C588 C 0.64599 0.1058 0.42943 0.0
C589 C 0.68398 0.11503 0.43987 0.0
C590 C 0.64557 0.11641 0.40728 0.0
C591 C 0.71562 0.18021 0.3604 0.0
H592 H 0.62385 0.09664 0.32686 0.0
C593 C 0.72375 0.15553 0.26977 0.0
C594 C 0.68682 0.14105 0.25741 0.0
C595 C 0.72375 0.16379 0.29157 0.0
C596 C 0.64925 0.1208 0.336 0.0
H597 H 0.75126 0.14214 0.43551 0.0
H598 H 0.75048 0.15915 0.39656 0.0
H599 H 0.62274 0.08672 0.36619 0.0
H600 H 0.62224 0.1272 0.257 0.0
H601 H 0.62198 0.14188 0.29522 0.0
H602 H 0.7431 0.21295 0.32981 0.0
C603 C 0.72112 0.14495 0.40555 0.0
C604 C 0.64866 0.11511 0.35861 0.0
C605 C 0.72154 0.13468 0.42779 0.0
C606 C 0.65099 0.13848 0.26641 0.0
C607 C 0.65083 0.14653 0.28822 0.0
C608 C 0.71641 0.18568 0.33768 0.0
C609 C 0.68309 0.13584 0.395 0.0
C610 C 0.68217 0.14431 0.3711 0.0
C611 C 0.68665 0.15741 0.30126 0.0
C612 C 0.68352 0.15564 0.32526 0.0
H613 H 0.61654 0.09042 0.4384 0.0
H614 H 0.6158 0.1094 0.3998 0.0
H615 H 0.74155 0.20375 0.36954 0.0
H616 H 0.75163 0.15771 0.26292 0.0
H617 H 0.75176 0.17194 0.30121 0.0
C618 C 0.64833 0.60511 0.75075 0.0
C619 C 0.67594 0.60716 0.76758 0.0
C620 C 0.65347 0.59532 0.72984 0.0
C621 C 0.65995 0.54782 0.69156 0.0
H622 H 0.77353 0.60691 0.66795 0.0
C623 C 0.69937 0.54167 0.60203 0.0
C624 C 0.73924 0.54756 0.59741 0.0
C625 C 0.68838 0.54297 0.62334 0.0
C626 C 0.74173 0.58941 0.67441 0.0
H627 H 0.72986 0.59974 0.77588 0.0
H628 H 0.73866 0.5829 0.73975 0.0
H629 H 0.76053 0.62323 0.70342 0.0
H630 H 0.79733 0.55536 0.61132 0.0
H631 H 0.77755 0.55537 0.64885 0.0
H632 H 0.64124 0.51351 0.66262 0.0
C633 C 0.71361 0.58951 0.74247 0.0
C634 C 0.73425 0.59912 0.69468 0.0
C635 C 0.70845 0.59909 0.7632 0.0
C636 C 0.7664 0.55069 0.6146 0.0
C637 C 0.75527 0.55145 0.63598 0.0
C638 C 0.6675 0.53775 0.67128 0.0
C639 C 0.68643 0.58773 0.72553 0.0
C640 C 0.69336 0.5784 0.7035 0.0
C641 C 0.71693 0.54958 0.64049 0.0
C642 C 0.70857 0.55838 0.66248 0.0
H643 H 0.62279 0.61085 0.75375 0.0
H644 H 0.6321 0.59419 0.717 0.0
H645 H 0.62819 0.53105 0.69811 0.0
H646 H 0.67793 0.53897 0.58891 0.0
H647 H 0.65867 0.54149 0.6261 0.0
C648 C 0.6063 0.10665 0.5707 0.0
C649 C 0.64178 0.12235 0.55714 0.0
C650 C 0.60968 0.10035 0.59324 0.0
C651 C 0.68895 0.13308 0.6379 0.0
H652 H 0.59838 1.0385 0.67067 0.0
C653 C 0.70474 0.10867 0.73033 0.0
C654 C 0.67011 0.10192 0.74257 0.0
C655 C 0.70098 0.104 0.70781 0.0
C656 C 0.62394 1.06515 0.66178 0.0
H657 H 0.70866 0.14386 0.5566 0.0
H658 H 0.71447 0.1322 0.59564 0.0
H659 H 0.59239 1.04606 0.63122 0.0
H660 H 0.60409 0.0829 0.7414 0.0
H661 H 0.59693 0.074 0.70223 0.0
H662 H 0.72028 0.15251 0.66841 0.0
C663 C 0.68406 0.12524 0.58906 0.0
C664 C 0.62043 0.06962 0.63912 0.0
C665 C 0.68068 0.13167 0.5666 0.0
C666 C 0.63094 0.08747 0.73226 0.0
C667 C 0.62703 0.0826 0.70981 0.0
C668 C 0.6925 0.12855 0.6605 0.0
C669 C 0.64867 0.10962 0.60276 0.0
C670 C 0.65274 0.10388 0.62687 0.0
C671 C 0.66241 0.09245 0.69712 0.0
C672 C 0.65992 0.09475 0.67281 0.0
H673 H 0.5759 0.09925 0.56389 0.0
H674 H 0.58184 0.08886 0.60324 0.0
H675 H 0.71421 0.16029 0.62918 0.0
H676 H 0.73537 0.12055 0.73795 0.0
H677 H 0.72874 0.11122 0.69863 0.0
C678 C 0.69057 0.6487 0.89596 0.0
C679 C 0.72513 0.64765 0.88756 0.0
C680 C 0.68257 0.64258 0.91842 0.0
C681 C 0.73311 0.64419 0.97221 0.0
H682 H 0.61738 0.57744 0.99231 0.0
C683 C 0.62766 0.55742 0.05592 0.0
C684 C 0.64795 0.58984 0.0703 0.0
C685 C 0.64036 0.56395 0.03418 0.0
C686 C 0.64997 0.5958 0.98704 0.0
H687 H 0.77838 0.6394 0.89607 0.0
H688 H 0.76429 0.62833 0.93507 0.0
H689 H 0.63215 0.59008 0.95348 0.0
H690 H 0.69799 0.65402 0.07367 0.0
H691 H 0.72065 0.666 0.03545 0.0
H692 H 0.75087 0.64914 0.00588 0.0
C693 C 0.74364 0.63449 0.92447 0.0
C694 C 0.6584 0.6036 0.96468 0.0
C695 C 0.75159 0.64057 0.90206 0.0
C696 C 0.68255 0.62841 0.06287 0.0
C697 C 0.69525 0.63516 0.041 0.0
C698 C 0.72465 0.63637 -0.00538 0.0
C699 C 0.70898 0.63531 0.933 0.0
C700 C 0.70008 0.62782 0.95692 0.0
C701 C 0.67339 0.60339 0.0262 0.0
C702 C 0.68295 0.61185 0.00235 0.0
H703 H 0.66968 0.6542 0.88519 0.0
H704 H 0.65586 0.64394 0.92437 0.0
H705 H 0.76559 0.66339 0.96689 0.0
H706 H 0.60061 0.52762 0.06138 0.0
H707 H 0.62339 0.53842 0.02347 0.0
C708 C 1.09269 0.5757 0.23004 0.0
C709 C 0.10245 0.547 0.22166 0.0
C710 C 1.09365 0.58006 0.25256 0.0
C711 C 1.09218 0.52454 0.30604 0.0
H712 H 0.13415 0.63482 0.32834 0.0
C713 C 0.13786 0.56021 0.39667 0.0
C714 C 0.13106 0.59035 0.40562 0.0
C715 C 0.12905 0.5516 0.37466 0.0
C716 C 0.1217 0.60363 0.32243 0.0
H717 H 0.12181 0.5011 0.23031 0.0
H718 H 0.12429 0.50917 0.26933 0.0
H719 H 0.13079 0.62779 0.2892 0.0
H720 H 0.10807 0.63371 0.39924 0.0
H721 H 1.09172 0.61831 0.36087 0.0
H722 H 1.08382 0.50057 0.33935 0.0
C723 C 0.1149 0.52769 0.25869 0.0
C724 C 0.11979 0.5996 0.29989 0.0
C725 C 0.11382 0.52329 0.23624 0.0
C726 C 0.11318 0.61009 0.3926 0.0
C727 C 0.10444 0.60165 0.37062 0.0
C728 C 1.09422 0.5286 0.32859 0.0
C729 C 0.10452 0.55589 0.26725 0.0
C730 C 0.10527 0.56004 0.29133 0.0
C731 C 0.11343 0.57321 0.36115 0.0
C732 C 0.1092 0.56825 0.33712 0.0
H733 H 1.08374 0.59438 0.21922 0.0
H734 H 1.08509 0.60184 0.25847 0.0
H735 H 1.08004 0.49339 0.30014 0.0
H736 H 0.15225 0.54517 0.40642 0.0
H737 H 0.13666 0.52973 0.36798 0.0
loop_
_geom_bond_atom_site_label_1
_geom_bond_atom_site_label_2
_geom_bond_distance
_geom_bond_site_symmetry_2
_ccdc_geom_bond_type
C0 Eu1 2.835 . S
C0 C2 1.500 . S
C0 O20 1.257 . S
C0 O21 1.260 . S
Eu1 C0 2.835 . S
Eu1 O20 2.473 . S
Eu1 O21 2.480 . S
Eu1 O22 2.430 1_655 S
Eu1 O23 2.670 1_655 S
Eu1 O24 2.394 . S
Eu1 O29 2.355 1_655 S
Eu1 O31 2.374 1_655 S
C2 C0 1.500 . S
C2 C3 1.377 . S
C2 C7 1.377 . S
C3 C2 1.377 . S
C3 C4 1.395 . S
C3 H32 0.931 . S
C4 C3 1.395 . S
C4 C5 1.383 . S
C4 H33 0.931 . S
C5 C4 1.383 . S
C5 C6 1.394 . S
C6 C5 1.394 . S
C6 C7 1.378 . S
C6 H34 0.931 . S
C7 C2 1.377 . S
C7 C6 1.378 . S
C7 H35 0.931 . S
C8 O22 1.259 . S
C8 O23 1.270 . S
C9 O24 1.251 . S
C9 O25 1.251 . S
C10 Eu11 2.835 . S
C10 C12 1.500 . S
C10 O26 1.257 . S
C10 O27 1.260 . S
Eu11 C10 2.835 . S
Eu11 O23 2.355 . S
Eu11 O25 2.374 1_455 S
Eu11 O26 2.473 . S
Eu11 O27 2.480 . S
Eu11 O28 2.430 . S
Eu11 O29 2.670 . S
Eu11 O30 2.394 . S
C12 C10 1.500 . S
C12 C13 1.377 . S
C12 C17 1.377 . S
C13 C12 1.377 . S
C13 C14 1.395 . S
C13 H36 0.931 . S
C14 C13 1.395 . S
C14 C15 1.383 . S
C14 H37 0.931 . S
C15 C14 1.383 . S
C15 C16 1.394 . S
C16 C15 1.394 . S
C16 C17 1.378 . S
C16 H38 0.931 . S
C17 C12 1.377 . S
C17 C16 1.378 . S
C17 H39 0.931 . S
C18 O28 1.259 . S
C18 O29 1.270 . S
C19 O30 1.251 . S
C19 O31 1.251 . S
O20 C0 1.257 . S
O20 Eu1 2.473 . S
O21 C0 1.260 . S
O21 Eu1 2.480 . S
O22 Eu1 2.430 1_455 S
O22 C8 1.259 . S
O23 Eu1 2.670 1_455 S
O23 C8 1.270 . S
O23 Eu11 2.355 . S
O24 Eu1 2.394 . S
O24 C9 1.251 . S
O25 C9 1.251 . S
O25 Eu11 2.374 1_655 S
O26 C10 1.257 . S
O26 Eu11 2.473 . S
O27 C10 1.260 . S
O27 Eu11 2.480 . S
O28 Eu11 2.430 . S
O28 C18 1.259 . S
O29 Eu1 2.355 1_455 S
O29 Eu11 2.670 . S
O29 C18 1.270 . S
O30 Eu11 2.394 . S
O30 C19 1.251 . S
O31 Eu1 2.374 1_455 S
O31 C19 1.251 . S
H32 C3 0.931 . S
H33 C4 0.931 . S
H34 C6 0.931 . S
H35 C7 0.931 . S
H36 C13 0.931 . S
H37 C14 0.931 . S
H38 C16 0.931 . S
H39 C17 0.931 . S
C40 Eu41 2.835 . S
C40 C42 1.500 . S
C40 O60 1.257 . S
C40 O61 1.260 . S
Eu41 C40 2.835 . S
Eu41 O60 2.473 . S
Eu41 O61 2.480 . S
Eu41 O62 2.430 . S
Eu41 O63 2.670 . S
Eu41 O64 2.394 . S
Eu41 O69 2.355 . S
Eu41 O71 2.374 1_545 S
C42 C40 1.500 . S
C42 C43 1.377 . S
C42 C47 1.377 . S
C43 C42 1.377 . S
C43 C44 1.395 . S
C43 H72 0.931 . S
C44 C43 1.395 . S
C44 C45 1.383 . S
C44 H73 0.931 . S
C45 C44 1.383 . S
C45 C46 1.394 . S
C46 C45 1.394 . S
C46 C47 1.378 . S
C46 H74 0.931 . S
C47 C42 1.377 . S
C47 C46 1.378 . S
C47 H75 0.931 . S
C48 O62 1.259 . S
C48 O63 1.270 . S
C49 O64 1.251 . S
C49 O65 1.251 . S
C50 Eu51 2.835 1_565 S
C50 C52 1.500 . S
C50 O66 1.257 . S
C50 O67 1.260 . S
Eu51 C50 2.835 1_545 S
Eu51 O63 2.355 . S
Eu51 O65 2.374 . S
Eu51 O66 2.473 1_545 S
Eu51 O67 2.480 1_545 S
Eu51 O68 2.430 . S
Eu51 O69 2.670 . S
Eu51 O70 2.394 1_545 S
C52 C50 1.500 . S
C52 C53 1.377 . S
C52 C57 1.377 . S
C53 C52 1.377 . S
C53 C54 1.395 . S
C53 H76 0.931 . S
C54 C53 1.395 . S
C54 C55 1.383 . S
C54 H77 0.931 . S
C55 C54 1.383 . S
C55 C56 1.394 . S
C56 C55 1.394 . S
C56 C57 1.378 . S
C56 H78 0.931 . S
C57 C52 1.377 . S
C57 C56 1.378 . S
C57 H79 0.931 . S
C58 O68 1.259 . S
C58 O69 1.270 . S
C59 O70 1.251 . S
C59 O71 1.251 . S
O60 C40 1.257 . S
O60 Eu41 2.473 . S
O61 C40 1.260 . S
O61 Eu41 2.480 . S
O62 Eu41 2.430 . S
O62 C48 1.259 . S
O63 Eu41 2.670 . S
O63 C48 1.270 . S
O63 Eu51 2.355 . S
O64 Eu41 2.394 . S
O64 C49 1.251 . S
O65 C49 1.251 . S
O65 Eu51 2.374 . S
O66 C50 1.257 . S
O66 Eu51 2.473 1_565 S
O67 C50 1.260 . S
O67 Eu51 2.480 1_565 S
O68 Eu51 2.430 . S
O68 C58 1.259 . S
O69 Eu41 2.355 . S
O69 Eu51 2.670 . S
O69 C58 1.270 . S
O70 Eu51 2.394 1_565 S
O70 C59 1.251 . S
O71 Eu41 2.374 1_565 S
O71 C59 1.251 . S
H72 C43 0.931 . S
H73 C44 0.931 . S
H74 C46 0.931 . S
H75 C47 0.931 . S
H76 C53 0.931 . S
H77 C54 0.931 . S
H78 C56 0.931 . S
H79 C57 0.931 . S
C80 Eu81 2.835 . S
C80 C82 1.500 . S
C80 O100 1.257 . S
C80 O101 1.260 . S
Eu81 C80 2.835 . S
Eu81 O100 2.473 . S
Eu81 O101 2.480 . S
Eu81 O102 2.430 . S
Eu81 O103 2.670 . S
Eu81 O104 2.394 . S
Eu81 O109 2.355 . S
Eu81 O111 2.374 . S
C82 C80 1.500 . S
C82 C83 1.377 . S
C82 C87 1.377 . S
C83 C82 1.377 . S
C83 C84 1.395 . S
C83 H112 0.931 . S
C84 C83 1.395 . S
C84 C85 1.383 . S
C84 H113 0.931 . S
C85 C84 1.383 . S
C85 C86 1.394 . S
C86 C85 1.394 . S
C86 C87 1.378 . S
C86 H114 0.931 . S
C87 C82 1.377 . S
C87 C86 1.378 . S
C87 H115 0.931 . S
C88 O102 1.259 . S
C88 O103 1.270 . S
C89 O104 1.251 . S
C89 O105 1.251 . S
C90 Eu91 2.835 . S
C90 C92 1.500 . S
C90 O106 1.257 . S
C90 O107 1.260 . S
Eu91 C90 2.835 . S
Eu91 O103 2.355 . S
Eu91 O105 2.374 . S
Eu91 O106 2.473 . S
Eu91 O107 2.480 . S
Eu91 O108 2.430 . S
Eu91 O109 2.670 . S
Eu91 O110 2.394 . S
C92 C90 1.500 . S
C92 C93 1.377 . S
C92 C97 1.377 . S
C93 C92 1.377 . S
C93 C94 1.395 . S
C93 H116 0.931 . S
C94 C93 1.395 . S
C94 C95 1.383 . S
C94 H117 0.931 . S
C95 C94 1.383 . S
C95 C96 1.394 . S
C96 C95 1.394 . S
C96 C97 1.378 . S
C96 H118 0.931 . S
C97 C92 1.377 . S
C97 C96 1.378 . S
C97 H119 0.931 . S
C98 O108 1.259 . S
C98 O109 1.270 . S
C99 O110 1.251 . S
C99 O111 1.251 . S
O100 C80 1.257 . S
O100 Eu81 2.473 . S
O101 C80 1.260 . S
O101 Eu81 2.480 . S
O102 Eu81 2.430 . S
O102 C88 1.259 . S
O103 Eu81 2.670 . S
O103 C88 1.270 . S
O103 Eu91 2.355 . S
O104 Eu81 2.394 . S
O104 C89 1.251 . S
O105 C89 1.251 . S
O105 Eu91 2.374 . S
O106 C90 1.257 . S
O106 Eu91 2.473 . S
O107 C90 1.260 . S
O107 Eu91 2.480 . S
O108 Eu91 2.430 . S
O108 C98 1.259 . S
O109 Eu81 2.355 . S
O109 Eu91 2.670 . S
O109 C98 1.270 . S
O110 Eu91 2.394 . S
O110 C99 1.251 . S
O111 Eu81 2.374 . S
O111 C99 1.251 . S
H112 C83 0.931 . S
H113 C84 0.931 . S
H114 C86 0.931 . S
H115 C87 0.931 . S
H116 C93 0.931 . S
H117 C94 0.931 . S
H118 C96 0.931 . S
H119 C97 0.931 . S
C120 N121 1.317 . S
C120 N122 1.348 1_545 S
C120 C123 1.485 . S
N121 C120 1.317 . S
N121 N125 1.370 . S
N122 C120 1.348 1_565 S
N122 C124 1.346 . S
C123 C120 1.485 . S
C123 H127 0.960 . S
C123 H128 0.961 . S
C123 H129 0.960 . S
C124 N122 1.346 . S
C124 N125 1.307 1_565 S
C124 C126 1.486 . S
N125 N121 1.370 . S
N125 C124 1.307 1_545 S
C126 C124 1.486 . S
C126 H130 0.960 . S
C126 H131 0.960 . S
C126 H132 0.959 . S
H127 C123 0.960 . S
H128 C123 0.961 . S
H129 C123 0.960 . S
H130 C126 0.960 . S
H131 C126 0.960 . S
H132 C126 0.959 . S
C133 N134 1.317 . S
C133 N135 1.348 . S
C133 C136 1.485 . S
N134 C133 1.317 . S
N134 N138 1.370 . S
N135 C133 1.348 . S
N135 C137 1.346 . S
C136 C133 1.485 . S
C136 H140 0.960 . S
C136 H141 0.961 . S
C136 H142 0.960 . S
C137 N135 1.346 . S
C137 N138 1.307 . S
C137 C139 1.486 . S
N138 N134 1.370 . S
N138 C137 1.307 . S
C139 C137 1.486 . S
C139 H143 0.960 . S
C139 H144 0.960 . S
C139 H145 0.959 . S
H140 C136 0.960 . S
H141 C136 0.961 . S
H142 C136 0.960 . S
H143 C139 0.960 . S
H144 C139 0.960 . S
H145 C139 0.959 . S
C146 N147 1.317 . S
C146 N148 1.348 1_455 S
C146 C149 1.485 . S
N147 C146 1.317 . S
N147 N151 1.370 . S
N148 C146 1.348 1_655 S
N148 C150 1.346 . S
C149 C146 1.485 . S
C149 H153 0.960 . S
C149 H154 0.961 1_455 S
C149 H155 0.960 . S
C150 N148 1.346 . S
C150 N151 1.307 1_655 S
C150 C152 1.486 . S
N151 N147 1.370 . S
N151 C150 1.307 1_455 S
C152 C150 1.486 . S
C152 H156 0.960 . S
C152 H157 0.960 . S
C152 H158 0.959 . S
H153 C149 0.960 . S
H154 C149 0.961 1_655 S
H155 C149 0.960 . S
H156 C152 0.960 . S
H157 C152 0.960 . S
H158 C152 0.959 . S
C159 N160 1.317 . S
C159 N161 1.348 . S
C159 C162 1.485 . S
N160 C159 1.317 . S
N160 N164 1.370 . S
N161 C159 1.348 . S
N161 C163 1.346 . S
C162 C159 1.485 . S
C162 H166 0.960 . S
C162 H167 0.961 . S
C162 H168 0.960 . S
C163 N161 1.346 . S
C163 N164 1.307 . S
C163 C165 1.486 . S
N164 N160 1.370 . S
N164 C163 1.307 . S
C165 C163 1.486 . S
C165 H169 0.960 . S
C165 H170 0.960 . S
C165 H171 0.959 . S
H166 C162 0.960 . S
H167 C162 0.961 . S
H168 C162 0.960 . S
H169 C165 0.960 . S
H170 C165 0.960 . S
H171 C165 0.959 . S
C172 N173 1.317 . S
C172 N174 1.348 . S
C172 C175 1.485 . S
N173 C172 1.317 . S
N173 N177 1.370 . S
N174 C172 1.348 . S
N174 C176 1.346 . S
C175 C172 1.485 . S
C175 H179 0.960 . S
C175 H180 0.961 . S
C175 H181 0.960 . S
C176 N174 1.346 . S
C176 N177 1.307 . S
C176 C178 1.486 . S
N177 N173 1.370 . S
N177 C176 1.307 . S
C178 C176 1.486 . S
C178 H182 0.960 . S
C178 H183 0.960 . S
C178 H184 0.959 . S
H179 C175 0.960 . S
H180 C175 0.961 . S
H181 C175 0.960 . S
H182 C178 0.960 . S
H183 C178 0.960 . S
H184 C178 0.959 . S
C185 N186 1.317 . S
C185 N187 1.348 . S
C185 C188 1.485 . S
N186 C185 1.317 . S
N186 N190 1.370 . S
N187 C185 1.348 . S
N187 C189 1.346 . S
C188 C185 1.485 . S
C188 H192 0.960 . S
C188 H193 0.961 . S
C188 H194 0.960 . S
C189 N187 1.346 . S
C189 N190 1.307 . S
C189 C191 1.486 . S
N190 N186 1.370 . S
N190 C189 1.307 . S
C191 C189 1.486 . S
C191 H195 0.960 . S
C191 H196 0.960 . S
C191 H197 0.959 . S
H192 C188 0.960 . S
H193 C188 0.961 . S
H194 C188 0.960 . S
H195 C191 0.960 . S
H196 C191 0.960 . S
H197 C191 0.959 . S
C198 C199 1.349 . S
C198 C200 1.327 . S
C198 H223 0.950 . S
C199 C198 1.349 . S
C199 C215 1.349 . S
C200 C198 1.327 . S
C200 C219 1.429 . S
C200 H224 0.950 . S
C201 C218 1.574 . S
C201 C220 1.368 . S
C201 H225 0.949 . S
H202 C206 0.949 . S
C203 C204 1.349 . S
C203 C205 1.327 . S
C203 H226 0.950 . S
C204 C203 1.349 . S
C204 C216 1.349 . S
C205 C203 1.327 . S
C205 C221 1.429 . S
C205 H227 0.950 . S
C206 H202 0.949 . S
C206 C214 1.574 . S
C206 C222 1.368 . S
H207 C215 0.950 . S
H208 C213 0.950 . S
H209 C214 0.949 . S
H210 C216 0.950 . S
H211 C217 0.950 . S
H212 C218 0.949 . S
C213 H208 0.950 . S
C213 C215 1.327 . S
C213 C219 1.429 . S
C214 C206 1.574 . S
C214 H209 0.949 . S
C214 C220 1.368 . S
C215 C199 1.349 . S
C215 H207 0.950 . S
C215 C213 1.327 . S
C216 C204 1.349 . S
C216 H210 0.950 . S
C216 C217 1.327 . S
C217 H211 0.950 . S
C217 C216 1.327 . S
C217 C221 1.429 . S
C218 C201 1.574 . S
C218 H212 0.949 . S
C218 C222 1.368 . S
C219 C200 1.429 . S
C219 C213 1.429 . S
C219 C220 1.523 . S
C220 C201 1.368 . S
C220 C214 1.368 . S
C220 C219 1.523 . S
C221 C205 1.429 . S
C221 C217 1.429 . S
C221 C222 1.523 . S
C222 C206 1.368 . S
C222 C218 1.368 . S
C222 C221 1.523 . S
H223 C198 0.950 . S
H224 C200 0.950 . S
H225 C201 0.949 . S
H226 C203 0.950 . S
H227 C205 0.950 . S
C228 C229 1.349 . S
C228 C230 1.327 . S
C228 H253 0.950 . S
C229 C228 1.349 . S
C229 C245 1.349 . S
C230 C228 1.327 . S
C230 C249 1.429 . S
C230 H254 0.950 . S
C231 C248 1.574 . S
C231 C250 1.368 . S
C231 H255 0.949 . S
H232 C236 0.949 . S
C233 C234 1.349 1_655 S
C233 C235 1.327 . S
C233 H256 0.950 . S
C234 C233 1.349 1_455 S
C234 C246 1.349 1_455 S
C235 C233 1.327 . S
C235 C251 1.429 . S
C235 H257 0.950 . S
C236 H232 0.949 . S
C236 C244 1.574 . S
C236 C252 1.368 . S
H237 C245 0.950 . S
H238 C243 0.950 . S
H239 C244 0.949 . S
H240 C246 0.948 1_455 S
H241 C247 0.950 . S
H242 C248 0.949 . S
C243 H238 0.950 . S
C243 C245 1.327 . S
C243 C249 1.429 . S
C244 C236 1.574 . S
C244 H239 0.949 . S
C244 C250 1.368 . S
C245 C229 1.349 . S
C245 H237 0.950 . S
C245 C243 1.327 . S
C246 C234 1.349 1_655 S
C246 H240 0.948 1_655 S
C246 C247 1.328 . S
C247 H241 0.950 . S
C247 C246 1.328 . S
C247 C251 1.429 . S
C248 C231 1.574 . S
C248 H242 0.949 . S
C248 C252 1.368 . S
C249 C230 1.429 . S
C249 C243 1.429 . S
C249 C250 1.523 . S
C250 C231 1.368 . S
C250 C244 1.368 . S
C250 C249 1.523 . S
C251 C235 1.429 . S
C251 C247 1.429 . S
C251 C252 1.523 . S
C252 C236 1.368 . S
C252 C248 1.368 . S
C252 C251 1.523 . S
H253 C228 0.950 . S
H254 C230 0.950 . S
H255 C231 0.949 . S
H256 C233 0.950 . S
H257 C235 0.950 . S
C258 C259 1.349 . S
C258 C260 1.327 . S
C258 H283 0.950 . S
C259 C258 1.349 . S
C259 C275 1.349 . S
C260 C258 1.327 . S
C260 C279 1.429 . S
C260 H284 0.950 . S
C261 C278 1.574 . S
C261 C280 1.368 . S
C261 H285 0.949 . S
H262 C266 0.949 . S
C263 C264 1.349 . S
C263 C265 1.327 . S
C263 H286 0.950 . S
C264 C263 1.349 . S
C264 C276 1.349 . S
C265 C263 1.327 . S
C265 C281 1.429 . S
C265 H287 0.950 . S
C266 H262 0.949 . S
C266 C274 1.574 . S
C266 C282 1.368 . S
H267 C275 0.950 . S
H268 C273 0.950 . S
H269 C274 0.949 . S
H270 C276 0.950 . S
H271 C277 0.950 . S
H272 C278 0.949 . S
C273 H268 0.950 . S
C273 C275 1.327 . S
C273 C279 1.429 . S
C274 C266 1.574 . S
C274 H269 0.949 . S
C274 C280 1.368 . S
C275 C259 1.349 . S
C275 H267 0.950 . S
C275 C273 1.327 . S
C276 C264 1.349 . S
C276 H270 0.950 . S
C276 C277 1.327 . S
C277 H271 0.950 . S
C277 C276 1.327 . S
C277 C281 1.429 . S
C278 C261 1.574 . S
C278 H272 0.949 . S
C278 C282 1.368 . S
C279 C260 1.429 . S
C279 C273 1.429 . S
C279 C280 1.523 . S
C280 C261 1.368 . S
C280 C274 1.368 . S
C280 C279 1.523 . S
C281 C265 1.429 . S
C281 C277 1.429 . S
C281 C282 1.523 . S
C282 C266 1.368 . S
C282 C278 1.368 . S
C282 C281 1.523 . S
H283 C258 0.950 . S
H284 C260 0.950 . S
H285 C261 0.949 . S
H286 C263 0.950 . S
H287 C265 0.950 . S
C288 C289 1.349 . S
C288 C290 1.327 . S
C288 H313 0.950 . S
C289 C288 1.349 . S
C289 C305 1.349 . S
C290 C288 1.327 . S
C290 C309 1.429 . S
C290 H314 0.950 . S
C291 C308 1.574 . S
C291 C310 1.368 . S
C291 H315 0.949 . S
H292 C296 0.949 . S
C293 C294 1.349 . S
C293 C295 1.327 . S
C293 H316 0.950 . S
C294 C293 1.349 . S
C294 C306 1.349 . S
C295 C293 1.327 . S
C295 C311 1.429 . S
C295 H317 0.950 . S
C296 H292 0.949 . S
C296 C304 1.574 . S
C296 C312 1.368 . S
H297 C305 0.950 . S
H298 C303 0.950 . S
H299 C304 0.949 . S
H300 C306 0.950 . S
H301 C307 0.950 . S
H302 C308 0.949 . S
C303 H298 0.950 . S
C303 C305 1.327 . S
C303 C309 1.429 . S
C304 C296 1.574 . S
C304 H299 0.949 . S
C304 C310 1.368 . S
C305 C289 1.349 . S
C305 H297 0.950 . S
C305 C303 1.327 . S
C306 C294 1.349 . S
C306 H300 0.950 . S
C306 C307 1.327 . S
C307 H301 0.950 . S
C307 C306 1.327 . S
C307 C311 1.429 . S
C308 C291 1.574 . S
C308 H302 0.949 . S
C308 C312 1.368 . S
C309 C290 1.429 . S
C309 C303 1.429 . S
C309 C310 1.523 . S
C310 C291 1.368 . S
C310 C304 1.368 . S
C310 C309 1.523 . S
C311 C295 1.429 . S
C311 C307 1.429 . S
C311 C312 1.523 . S
C312 C296 1.368 . S
C312 C308 1.368 . S
C312 C311 1.523 . S
H313 C288 0.950 . S
H314 C290 0.950 . S
H315 C291 0.949 . S
H316 C293 0.950 . S
H317 C295 0.950 . S
C318 C319 1.349 . S
C318 C320 1.327 . S
C318 H343 0.950 . S
C319 C318 1.349 . S
C319 C335 1.349 . S
C320 C318 1.327 . S
C320 C339 1.429 . S
C320 H344 0.950 . S
C321 C338 1.574 . S
C321 C340 1.368 . S
C321 H345 0.949 . S
H322 C326 0.949 . S
C323 C324 1.349 . S
C323 C325 1.327 . S
C323 H346 0.950 . S
C324 C323 1.349 . S
C324 C336 1.349 . S
C325 C323 1.327 . S
C325 C341 1.429 . S
C325 H347 0.950 . S
C326 H322 0.949 . S
C326 C334 1.574 . S
C326 C342 1.368 . S
H327 C335 0.950 . S
H328 C333 0.950 . S
H329 C334 0.949 . S
H330 C336 0.950 . S
H331 C337 0.950 . S
H332 C338 0.949 . S
C333 H328 0.950 . S
C333 C335 1.327 . S
C333 C339 1.429 . S
C334 C326 1.574 . S
C334 H329 0.949 . S
C334 C340 1.368 . S
C335 C319 1.349 . S
C335 H327 0.950 . S
C335 C333 1.327 . S
C336 C324 1.349 . S
C336 H330 0.950 . S
C336 C337 1.327 . S
C337 H331 0.950 . S
C337 C336 1.327 . S
C337 C341 1.429 . S
C338 C321 1.574 . S
C338 H332 0.949 . S
C338 C342 1.368 . S
C339 C320 1.429 . S
C339 C333 1.429 . S
C339 C340 1.523 . S
C340 C321 1.368 . S
C340 C334 1.368 . S
C340 C339 1.523 . S
C341 C325 1.429 . S
C341 C337 1.429 . S
C341 C342 1.523 . S
C342 C326 1.368 . S
C342 C338 1.368 . S
C342 C341 1.523 . S
H343 C318 0.950 . S
H344 C320 0.950 . S
H345 C321 0.949 . S
H346 C323 0.950 . S
H347 C325 0.950 . S
C348 C349 1.349 . S
C348 C350 1.327 . S
C348 H373 0.950 . S
C349 C348 1.349 . S
C349 C365 1.349 . S
C350 C348 1.327 . S
C350 C369 1.429 . S
C350 H374 0.950 . S
C351 C368 1.574 . S
C351 C370 1.368 . S
C351 H375 0.949 . S
H352 C356 0.949 . S
C353 C354 1.349 . S
C353 C355 1.327 . S
C353 H376 0.950 . S
C354 C353 1.349 . S
C354 C366 1.349 . S
C355 C353 1.327 . S
C355 C371 1.429 . S
C355 H377 0.950 . S
C356 H352 0.949 . S
C356 C364 1.574 . S
C356 C372 1.368 . S
H357 C365 0.950 . S
H358 C363 0.950 . S
H359 C364 0.949 . S
H360 C366 0.950 . S
H361 C367 0.950 . S
H362 C368 0.949 . S
C363 H358 0.950 . S
C363 C365 1.327 . S
C363 C369 1.429 . S
C364 C356 1.574 . S
C364 H359 0.949 . S
C364 C370 1.368 . S
C365 C349 1.349 . S
C365 H357 0.950 . S
C365 C363 1.327 . S
C366 C354 1.349 . S
C366 H360 0.950 . S
C366 C367 1.327 . S
C367 H361 0.950 . S
C367 C366 1.327 . S
C367 C371 1.429 . S
C368 C351 1.574 . S
C368 H362 0.949 . S
C368 C372 1.368 . S
C369 C350 1.429 . S
C369 C363 1.429 . S
C369 C370 1.523 . S
C370 C351 1.368 . S
C370 C364 1.368 . S
C370 C369 1.523 . S
C371 C355 1.429 . S
C371 C367 1.429 . S
C371 C372 1.523 . S
C372 C356 1.368 . S
C372 C368 1.368 . S
C372 C371 1.523 . S
H373 C348 0.950 . S
H374 C350 0.950 . S
H375 C351 0.949 . S
H376 C353 0.950 . S
H377 C355 0.950 . S
C378 C379 1.349 . S
C378 C380 1.327 . S
C378 H403 0.950 . S
C379 C378 1.349 . S
C379 C395 1.349 . S
C380 C378 1.327 . S
C380 C399 1.429 . S
C380 H404 0.950 . S
C381 C398 1.574 . S
C381 C400 1.368 . S
C381 H405 0.949 . S
H382 C386 0.949 . S
C383 C384 1.349 . S
C383 C385 1.327 . S
C383 H406 0.950 . S
C384 C383 1.349 . S
C384 C396 1.349 . S
C385 C383 1.327 . S
C385 C401 1.429 . S
C385 H407 0.950 . S
C386 H382 0.949 . S
C386 C394 1.574 . S
C386 C402 1.368 . S
H387 C395 0.950 . S
H388 C393 0.950 . S
H389 C394 0.949 . S
H390 C396 0.950 . S
H391 C397 0.950 . S
H392 C398 0.949 . S
C393 H388 0.950 . S
C393 C395 1.327 . S
C393 C399 1.429 . S
C394 C386 1.574 . S
C394 H389 0.949 . S
C394 C400 1.368 . S
C395 C379 1.349 . S
C395 H387 0.950 . S
C395 C393 1.327 . S
C396 C384 1.349 . S
C396 H390 0.950 . S
C396 C397 1.327 . S
C397 H391 0.950 . S
C397 C396 1.327 . S
C397 C401 1.429 . S
C398 C381 1.574 . S
C398 H392 0.949 . S
C398 C402 1.368 . S
C399 C380 1.429 . S
C399 C393 1.429 . S
C399 C400 1.523 . S
C400 C381 1.368 . S
C400 C394 1.368 . S
C400 C399 1.523 . S
C401 C385 1.429 . S
C401 C397 1.429 . S
C401 C402 1.523 . S
C402 C386 1.368 . S
C402 C398 1.368 . S
C402 C401 1.523 . S
H403 C378 0.950 . S
H404 C380 0.950 . S
H405 C381 0.949 . S
H406 C383 0.950 . S
H407 C385 0.950 . S
C408 C409 1.349 . S
C408 C410 1.327 . S
C408 H433 0.950 . S
C409 C408 1.349 . S
C409 C425 1.349 . S
C410 C408 1.327 . S
C410 C429 1.429 . S
C410 H434 0.950 . S
C411 C428 1.574 . S
C411 C430 1.368 . S
C411 H435 0.949 . S
H412 C416 0.949 . S
C413 C414 1.349 . S
C413 C415 1.327 . S
C413 H436 0.950 1_655 S
C414 C413 1.349 . S
C414 C426 1.349 . S
C415 C413 1.327 . S
C415 C431 1.429 . S
C415 H437 0.950 . S
C416 H412 0.949 . S
C416 C424 1.574 . S
C416 C432 1.368 . S
H417 C425 0.950 . S
H418 C423 0.950 . S
H419 C424 0.949 . S
H420 C426 0.950 . S
H421 C427 0.950 . S
H422 C428 0.949 . S
C423 H418 0.950 . S
C423 C425 1.327 . S
C423 C429 1.429 . S
C424 C416 1.574 . S
C424 H419 0.949 . S
C424 C430 1.368 . S
C425 C409 1.349 . S
C425 H417 0.950 . S
C425 C423 1.327 . S
C426 C414 1.349 . S
C426 H420 0.950 . S
C426 C427 1.327 . S
C427 H421 0.950 . S
C427 C426 1.327 . S
C427 C431 1.429 . S
C428 C411 1.574 . S
C428 H422 0.949 . S
C428 C432 1.368 . S
C429 C410 1.429 . S
C429 C423 1.429 . S
C429 C430 1.523 . S
C430 C411 1.368 . S
C430 C424 1.368 . S
C430 C429 1.523 . S
C431 C415 1.429 . S
C431 C427 1.429 . S
C431 C432 1.523 . S
C432 C416 1.368 . S
C432 C428 1.368 . S
C432 C431 1.523 . S
H433 C408 0.950 . S
H434 C410 0.950 . S
H435 C411 0.949 . S
H436 C413 0.950 1_455 S
H437 C415 0.950 . S
C438 C439 1.349 . S
C438 C440 1.327 . S
C438 H463 0.950 . S
C439 C438 1.349 . S
C439 C455 1.349 . S
C440 C438 1.327 . S
C440 C459 1.429 . S
C440 H464 0.950 . S
C441 C458 1.574 . S
C441 C460 1.368 . S
C441 H465 0.949 . S
H442 C446 0.949 . S
C443 C444 1.349 . S
C443 C445 1.327 . S
C443 H466 0.950 . S
C444 C443 1.349 . S
C444 C456 1.349 . S
C445 C443 1.327 . S
C445 C461 1.429 . S
C445 H467 0.950 . S
C446 H442 0.949 . S
C446 C454 1.574 . S
C446 C462 1.368 . S
H447 C455 0.950 . S
H448 C453 0.950 . S
H449 C454 0.949 . S
H450 C456 0.950 . S
H451 C457 0.950 . S
H452 C458 0.949 . S
C453 H448 0.950 . S
C453 C455 1.327 . S
C453 C459 1.429 . S
C454 C446 1.574 . S
C454 H449 0.949 . S
C454 C460 1.368 . S
C455 C439 1.349 . S
C455 H447 0.950 . S
C455 C453 1.327 . S
C456 C444 1.349 . S
C456 H450 0.950 . S
C456 C457 1.327 . S
C457 H451 0.950 . S
C457 C456 1.327 . S
C457 C461 1.429 . S
C458 C441 1.574 . S
C458 H452 0.949 . S
C458 C462 1.368 . S
C459 C440 1.429 . S
C459 C453 1.429 . S
C459 C460 1.523 . S
C460 C441 1.368 . S
C460 C454 1.368 . S
C460 C459 1.523 . S
C461 C445 1.429 . S
C461 C457 1.429 . S
C461 C462 1.523 . S
C462 C446 1.368 . S
C462 C458 1.368 . S
C462 C461 1.523 . S
H463 C438 0.950 . S
H464 C440 0.950 . S
H465 C441 0.949 . S
H466 C443 0.950 . S
H467 C445 0.950 . S
C468 C469 1.349 . S
C468 C470 1.327 . S
C468 H493 0.950 . S
C469 C468 1.349 . S
C469 C485 1.349 . S
C470 C468 1.327 . S
C470 C489 1.429 . S
C470 H494 0.950 . S
C471 C488 1.574 . S
C471 C490 1.368 . S
C471 H495 0.949 . S
H472 C476 0.949 . S
C473 C474 1.349 . S
C473 C475 1.327 . S
C473 H496 0.950 . S
C474 C473 1.349 . S
C474 C486 1.349 . S
C475 C473 1.327 . S
C475 C491 1.429 . S
C475 H497 0.950 . S
C476 H472 0.949 . S
C476 C484 1.574 . S
C476 C492 1.368 . S
H477 C485 0.950 . S
H478 C483 0.950 . S
H479 C484 0.949 . S
H480 C486 0.950 . S
H481 C487 0.950 . S
H482 C488 0.949 . S
C483 H478 0.950 . S
C483 C485 1.327 . S
C483 C489 1.429 . S
C484 C476 1.574 . S
C484 H479 0.949 . S
C484 C490 1.368 . S
C485 C469 1.349 . S
C485 H477 0.950 . S
C485 C483 1.327 . S
C486 C474 1.349 . S
C486 H480 0.950 . S
C486 C487 1.327 . S
C487 H481 0.950 . S
C487 C486 1.327 . S
C487 C491 1.429 . S
C488 C471 1.574 . S
C488 H482 0.949 . S
C488 C492 1.368 . S
C489 C470 1.429 . S
C489 C483 1.429 . S
C489 C490 1.523 . S
C490 C471 1.368 . S
C490 C484 1.368 . S
C490 C489 1.523 . S
C491 C475 1.429 . S
C491 C487 1.429 . S
C491 C492 1.523 . S
C492 C476 1.368 . S
C492 C488 1.368 . S
C492 C491 1.523 . S
H493 C468 0.950 . S
H494 C470 0.950 . S
H495 C471 0.949 . S
H496 C473 0.950 . S
H497 C475 0.950 . S
C498 C499 1.349 . S
C498 C500 1.327 . S
C498 H523 0.950 . S
C499 C498 1.349 . S
C499 C515 1.349 . S
C500 C498 1.327 . S
C500 C519 1.429 . S
C500 H524 0.950 . S
C501 C518 1.574 . S
C501 C520 1.368 . S
C501 H525 0.949 . S
H502 C506 0.949 . S
C503 C504 1.349 . S
C503 C505 1.327 . S
C503 H526 0.950 . S
C504 C503 1.349 . S
C504 C516 1.349 . S
C505 C503 1.327 . S
C505 C521 1.429 . S
C505 H527 0.950 . S
C506 H502 0.949 . S
C506 C514 1.574 . S
C506 C522 1.368 . S
H507 C515 0.950 . S
H508 C513 0.950 . S
H509 C514 0.949 . S
H510 C516 0.950 . S
H511 C517 0.950 . S
H512 C518 0.949 . S
C513 H508 0.950 . S
C513 C515 1.327 . S
C513 C519 1.429 . S
C514 C506 1.574 . S
C514 H509 0.949 . S
C514 C520 1.368 . S
C515 C499 1.349 . S
C515 H507 0.950 . S
C515 C513 1.327 . S
C516 C504 1.349 . S
C516 H510 0.950 . S
C516 C517 1.327 . S
C517 H511 0.950 . S
C517 C516 1.327 . S
C517 C521 1.429 . S
C518 C501 1.574 . S
C518 H512 0.949 . S
C518 C522 1.368 . S
C519 C500 1.429 . S
C519 C513 1.429 . S
C519 C520 1.523 . S
C520 C501 1.368 . S
C520 C514 1.368 . S
C520 C519 1.523 . S
C521 C505 1.429 . S
C521 C517 1.429 . S
C521 C522 1.523 . S
C522 C506 1.368 . S
C522 C518 1.368 . S
C522 C521 1.523 . S
H523 C498 0.950 . S
H524 C500 0.950 . S
H525 C501 0.949 . S
H526 C503 0.950 . S
H527 C505 0.950 . S
C528 C529 1.349 . S
C528 C530 1.327 . S
C528 H553 0.950 . S
C529 C528 1.349 . S
C529 C545 1.349 . S
C530 C528 1.327 . S
C530 C549 1.429 . S
C530 H554 0.950 . S
C531 C548 1.574 . S
C531 C550 1.368 . S
C531 H555 0.949 . S
H532 C536 0.949 . S
C533 C534 1.349 . S
C533 C535 1.327 . S
C533 H556 0.950 . S
C534 C533 1.349 . S
C534 C546 1.349 . S
C535 C533 1.327 . S
C535 C551 1.429 . S
C535 H557 0.950 . S
C536 H532 0.949 . S
C536 C544 1.574 . S
C536 C552 1.368 . S
H537 C545 0.950 . S
H538 C543 0.950 . S
H539 C544 0.949 . S
H540 C546 0.950 . S
H541 C547 0.950 . S
H542 C548 0.949 . S
C543 H538 0.950 . S
C543 C545 1.327 . S
C543 C549 1.429 . S
C544 C536 1.574 . S
C544 H539 0.949 . S
C544 C550 1.368 . S
C545 C529 1.349 . S
C545 H537 0.950 . S
C545 C543 1.327 . S
C546 C534 1.349 . S
C546 H540 0.950 . S
C546 C547 1.327 . S
C547 H541 0.950 . S
C547 C546 1.327 . S
C547 C551 1.429 . S
C548 C531 1.574 . S
C548 H542 0.949 . S
C548 C552 1.368 . S
C549 C530 1.429 . S
C549 C543 1.429 . S
C549 C550 1.523 . S
C550 C531 1.368 . S
C550 C544 1.368 . S
C550 C549 1.523 . S
C551 C535 1.429 . S
C551 C547 1.429 . S
C551 C552 1.523 . S
C552 C536 1.368 . S
C552 C548 1.368 . S
C552 C551 1.523 . S
H553 C528 0.950 . S
H554 C530 0.950 . S
H555 C531 0.949 . S
H556 C533 0.950 . S
H557 C535 0.950 . S
C558 C559 1.349 . S
C558 C560 1.327 . S
C558 H583 0.950 . S
C559 C558 1.349 . S
C559 C575 1.349 1_455 S
C560 C558 1.327 . S
C560 C579 1.429 . S
C560 H584 0.950 . S
C561 C578 1.574 . S
C561 C580 1.368 1_655 S
C561 H585 0.949 . S
H562 C566 0.949 . S
C563 C564 1.349 1_655 S
C563 C565 1.327 . S
C563 H586 0.950 . S
C564 C563 1.349 1_455 S
C564 C576 1.349 . S
C565 C563 1.327 . S
C565 C581 1.429 1_655 S
C565 H587 0.950 . S
C566 H562 0.949 . S
C566 C574 1.574 1_556 S
C566 C582 1.368 . S
H567 C575 0.950 . S
H568 C573 0.950 . S
H569 C574 0.949 . S
H570 C576 0.950 . S
H571 C577 0.950 . S
H572 C578 0.949 1_556 S
C573 H568 0.950 . S
C573 C575 1.327 . S
C573 C579 1.429 1_655 S
C574 C566 1.574 1_554 S
C574 H569 0.949 . S
C574 C580 1.368 . S
C575 C559 1.349 1_655 S
C575 H567 0.950 . S
C575 C573 1.327 . S
C576 C564 1.349 . S
C576 H570 0.950 . S
C576 C577 1.327 . S
C577 H571 0.950 . S
C577 C576 1.327 . S
C577 C581 1.429 . S
C578 C561 1.574 . S
C578 H572 0.949 1_554 S
C578 C582 1.368 1_654 S
C579 C560 1.429 . S
C579 C573 1.429 1_455 S
C579 C580 1.523 . S
C580 C561 1.368 1_455 S
C580 C574 1.368 . S
C580 C579 1.523 . S
C581 C565 1.429 1_455 S
C581 C577 1.429 . S
C581 C582 1.523 . S
C582 C566 1.368 . S
C582 C578 1.368 1_456 S
C582 C581 1.523 . S
H583 C558 0.950 . S
H584 C560 0.950 . S
H585 C561 0.949 . S
H586 C563 0.950 . S
H587 C565 0.950 . S
C588 C589 1.349 . S
C588 C590 1.327 . S
C588 H613 0.950 1_545 S
C589 C588 1.349 . S
C589 C605 1.349 . S
C590 C588 1.327 . S
C590 C609 1.429 . S
C590 H614 0.950 1_545 S
C591 C608 1.574 . S
C591 C610 1.368 . S
C591 H615 0.949 . S
H592 C596 0.949 1_565 S
C593 C594 1.349 . S
C593 C595 1.327 . S
C593 H616 0.950 . S
C594 C593 1.349 . S
C594 C606 1.349 . S
C595 C593 1.327 . S
C595 C611 1.429 . S
C595 H617 0.950 . S
C596 H592 0.949 1_545 S
C596 C604 1.574 . S
C596 C612 1.368 . S
H597 C605 0.950 . S
H598 C603 0.950 . S
H599 C604 0.949 1_565 S
H600 C606 0.950 1_565 S
H601 C607 0.950 1_565 S
H602 C608 0.949 . S
C603 H598 0.950 . S
C603 C605 1.327 . S
C603 C609 1.429 . S
C604 C596 1.574 . S
C604 H599 0.949 1_545 S
C604 C610 1.368 . S
C605 C589 1.349 . S
C605 H597 0.950 . S
C605 C603 1.327 . S
C606 C594 1.349 . S
C606 H600 0.950 1_545 S
C606 C607 1.327 . S
C607 H601 0.950 1_545 S
C607 C606 1.327 . S
C607 C611 1.429 . S
C608 C591 1.574 . S
C608 H602 0.949 . S
C608 C612 1.368 . S
C609 C590 1.429 . S
C609 C603 1.429 . S
C609 C610 1.523 . S
C610 C591 1.368 . S
C610 C604 1.368 . S
C610 C609 1.523 . S
C611 C595 1.429 . S
C611 C607 1.429 . S
C611 C612 1.523 . S
C612 C596 1.368 . S
C612 C608 1.368 . S
C612 C611 1.523 . S
H613 C588 0.950 1_565 S
H614 C590 0.950 1_565 S
H615 C591 0.949 . S
H616 C593 0.950 . S
H617 C595 0.950 . S
C618 C619 1.349 . S
C618 C620 1.327 . S
C618 H643 0.950 . S
C619 C618 1.349 . S
C619 C635 1.349 . S
C620 C618 1.327 . S
C620 C639 1.429 . S
C620 H644 0.950 . S
C621 C638 1.574 . S
C621 C640 1.368 . S
C621 H645 0.949 . S
H622 C626 0.949 . S
C623 C624 1.349 . S
C623 C625 1.327 . S
C623 H646 0.950 . S
C624 C623 1.349 . S
C624 C636 1.349 . S
C625 C623 1.327 . S
C625 C641 1.429 . S
C625 H647 0.950 . S
C626 H622 0.949 . S
C626 C634 1.574 . S
C626 C642 1.368 . S
H627 C635 0.950 . S
H628 C633 0.950 . S
H629 C634 0.949 . S
H630 C636 0.950 . S
H631 C637 0.950 . S
H632 C638 0.949 . S
C633 H628 0.950 . S
C633 C635 1.327 . S
C633 C639 1.429 . S
C634 C626 1.574 . S
C634 H629 0.949 . S
C634 C640 1.368 . S
C635 C619 1.349 . S
C635 H627 0.950 . S
C635 C633 1.327 . S
C636 C624 1.349 . S
C636 H630 0.950 . S
C636 C637 1.327 . S
C637 H631 0.950 . S
C637 C636 1.327 . S
C637 C641 1.429 . S
C638 C621 1.574 . S
C638 H632 0.949 . S
C638 C642 1.368 . S
C639 C620 1.429 . S
C639 C633 1.429 . S
C639 C640 1.523 . S
C640 C621 1.368 . S
C640 C634 1.368 . S
C640 C639 1.523 . S
C641 C625 1.429 . S
C641 C637 1.429 . S
C641 C642 1.523 . S
C642 C626 1.368 . S
C642 C638 1.368 . S
C642 C641 1.523 . S
H643 C618 0.950 . S
H644 C620 0.950 . S
H645 C621 0.949 . S
H646 C623 0.950 . S
H647 C625 0.950 . S
C648 C649 1.349 1_565 S
C648 C650 1.327 . S
C648 H673 0.950 . S
C649 C648 1.349 1_545 S
C649 C665 1.349 . S
C650 C648 1.327 . S
C650 C669 1.429 1_565 S
C650 H674 0.950 . S
C651 C668 1.574 . S
C651 C670 1.368 . S
C651 H675 0.949 . S
H652 C656 0.949 . S
C653 C654 1.349 . S
C653 C655 1.327 . S
C653 H676 0.950 . S
C654 C653 1.349 . S
C654 C666 1.349 1_545 S
C655 C653 1.327 . S
C655 C671 1.429 . S
C655 H677 0.950 . S
C656 H652 0.949 . S
C656 C664 1.574 . S
C656 C672 1.368 1_565 S
H657 C665 0.950 . S
H658 C663 0.950 . S
H659 C664 0.949 . S
H660 C666 0.950 . S
H661 C667 0.950 . S
H662 C668 0.949 . S
C663 H658 0.950 . S
C663 C665 1.327 . S
C663 C669 1.429 . S
C664 C656 1.574 . S
C664 H659 0.949 . S
C664 C670 1.368 1_565 S
C665 C649 1.349 . S
C665 H657 0.950 . S
C665 C663 1.327 . S
C666 C654 1.349 1_565 S
C666 H660 0.950 . S
C666 C667 1.327 . S
C667 H661 0.950 . S
C667 C666 1.327 . S
C667 C671 1.429 1_565 S
C668 C651 1.574 . S
C668 H662 0.949 . S
C668 C672 1.368 . S
C669 C650 1.429 1_545 S
C669 C663 1.429 . S
C669 C670 1.523 . S
C670 C651 1.368 . S
C670 C664 1.368 1_545 S
C670 C669 1.523 . S
C671 C655 1.429 . S
C671 C667 1.429 1_545 S
C671 C672 1.523 . S
C672 C656 1.368 1_545 S
C672 C668 1.368 . S
C672 C671 1.523 . S
H673 C648 0.950 . S
H674 C650 0.950 . S
H675 C651 0.949 . S
H676 C653 0.950 . S
H677 C655 0.950 . S
C678 C679 1.349 . S
C678 C680 1.327 . S
C678 H703 0.950 . S
C679 C678 1.349 . S
C679 C695 1.349 . S
C680 C678 1.327 . S
C680 C699 1.429 . S
C680 H704 0.950 . S
C681 C698 1.574 1_556 S
C681 C700 1.368 . S
C681 H705 0.949 . S
H682 C686 0.949 . S
C683 C684 1.349 . S
C683 C685 1.327 . S
C683 H706 0.950 . S
C684 C683 1.349 . S
C684 C696 1.349 . S
C685 C683 1.327 . S
C685 C701 1.429 . S
C685 H707 0.950 . S
C686 H682 0.949 . S
C686 C694 1.574 1_554 S
C686 C702 1.368 . S
H687 C695 0.950 . S
H688 C693 0.950 . S
H689 C694 0.949 . S
H690 C696 0.950 . S
H691 C697 0.950 . S
H692 C698 0.949 . S
C693 H688 0.950 . S
C693 C695 1.327 . S
C693 C699 1.429 . S
C694 C686 1.574 1_556 S
C694 H689 0.949 . S
C694 C700 1.368 . S
C695 C679 1.349 . S
C695 H687 0.950 . S
C695 C693 1.327 . S
C696 C684 1.349 . S
C696 H690 0.950 . S
C696 C697 1.327 . S
C697 H691 0.950 . S
C697 C696 1.327 . S
C697 C701 1.429 . S
C698 C681 1.574 1_554 S
C698 H692 0.949 . S
C698 C702 1.368 . S
C699 C680 1.429 . S
C699 C693 1.429 . S
C699 C700 1.523 . S
C700 C681 1.368 . S
C700 C694 1.368 . S
C700 C699 1.523 . S
C701 C685 1.429 . S
C701 C697 1.429 . S
C701 C702 1.523 . S
C702 C686 1.368 . S
C702 C698 1.368 . S
C702 C701 1.523 . S
H703 C678 0.950 . S
H704 C680 0.950 . S
H705 C681 0.949 . S
H706 C683 0.950 . S
H707 C685 0.950 . S
C708 C709 1.349 . S
C708 C710 1.327 . S
C708 H733 0.950 . S
C709 C708 1.349 . S
C709 C725 1.349 . S
C710 C708 1.327 . S
C710 C729 1.429 . S
C710 H734 0.950 . S
C711 C728 1.574 . S
C711 C730 1.368 . S
C711 H735 0.949 . S
H712 C716 0.949 . S
C713 C714 1.349 . S
C713 C715 1.327 . S
C713 H736 0.950 . S
C714 C713 1.349 . S
C714 C726 1.349 . S
C715 C713 1.327 . S
C715 C731 1.429 . S
C715 H737 0.950 . S
C716 H712 0.949 . S
C716 C724 1.574 . S
C716 C732 1.368 . S
H717 C725 0.950 . S
H718 C723 0.950 . S
H719 C724 0.949 . S
H720 C726 0.950 . S
H721 C727 0.950 . S
H722 C728 0.949 . S
C723 H718 0.950 . S
C723 C725 1.327 . S
C723 C729 1.429 . S
C724 C716 1.574 . S
C724 H719 0.949 . S
C724 C730 1.368 . S
C725 C709 1.349 . S
C725 H717 0.950 . S
C725 C723 1.327 . S
C726 C714 1.349 . S
C726 H720 0.950 . S
C726 C727 1.327 . S
C727 H721 0.950 . S
C727 C726 1.327 . S
C727 C731 1.429 . S
C728 C711 1.574 . S
C728 H722 0.949 . S
C728 C732 1.368 . S
C729 C710 1.429 . S
C729 C723 1.429 . S
C729 C730 1.523 . S
C730 C711 1.368 . S
C730 C724 1.368 . S
C730 C729 1.523 . S
C731 C715 1.429 . S
C731 C727 1.429 . S
C731 C732 1.523 . S
C732 C716 1.368 . S
C732 C728 1.368 . S
C732 C731 1.523 . S
H733 C708 0.950 . S
H734 C710 0.950 . S
H735 C711 0.949 . S
H736 C713 0.950 . S
H737 C715 0.950 . S
C199 C19 2.590 . S
C204 N187 2.566 . S
C229 C49 2.898 . S
C234 N160 2.898 . S
C259 C99 2.809 . S
C264 N173 2.831 1_565 S
C289 C9 3.348 . S
C294 N186 3.355 . S
C324 N161 3.008 . S
C319 C59 2.997 . S
C354 N174 3.076 . S
C349 C89 3.102 . S
C379 C55 0.124 . S
C384 N134 0.130 . S
C409 C85 0.373 . S
C414 N148 0.235 . S
C439 C15 0.416 . S
C444 N122 0.419 . S
C474 N135 0.265 . S
C469 C45 0.389 . S
C504 N147 0.659 . S
C499 C95 0.662 . S
C529 C5 0.280 . S
C534 N121 0.215 . S
C564 N151 1.236 . S
C559 C18 1.219 . S
C589 C58 1.310 . S
C594 N125 1.318 . S
C619 C98 1.202 . S
C624 N138 1.237 . S
C654 N177 1.810 . S
C649 C48 1.700 . S
C684 N190 1.713 . S
C679 C88 1.676 . S
C709 C8 1.681 . S
C714 N164 1.716 . S
