# Generated by pormake.
# Topology pth, (4,4)-cn, num edge types: 1
# Building blocks:
#     Node 0, Type 0, BuildingBlock: QUQFOY_clean_sbu_1, # of connection points: 4
#     Node 1, Type 0, BuildingBlock: QUQFOY_clean_sbu_1, # of connection points: 4
#     Node 2, Type 0, BuildingBlock: QUQFOY_clean_sbu_1, # of connection points: 4
#     Node 3, Type 1, BuildingBlock: MUDLON_clean_linker_0, # of connection points: 4
#     Node 4, Type 1, BuildingBlock: MUDLON_clean_linker_0, # of connection points: 4
#     Node 5, Type 1, BuildingBlock: MUDLON_clean_linker_0, # of connection points: 4
#     Edge 6, Type (0, 1), BuildingBlock: XUDNAN_clean_linker_2, # of connection points: 2
#     Edge 7, Type (0, 1), BuildingBlock: XUDNAN_clean_linker_2, # of connection points: 2
#     Edge 8, Type (0, 1), BuildingBlock: XUDNAN_clean_linker_2, # of connection points: 2
#     Edge 9, Type (0, 1), BuildingBlock: XUDNAN_clean_linker_2, # of connection points: 2
#     Edge 10, Type (0, 1), BuildingBlock: XUDNAN_clean_linker_2, # of connection points: 2
#     Edge 11, Type (0, 1), BuildingBlock: XUDNAN_clean_linker_2, # of connection points: 2
#     Edge 12, Type (0, 1), BuildingBlock: XUDNAN_clean_linker_2, # of connection points: 2
#     Edge 13, Type (0, 1), BuildingBlock: XUDNAN_clean_linker_2, # of connection points: 2
#     Edge 14, Type (0, 1), BuildingBlock: XUDNAN_clean_linker_2, # of connection points: 2
#     Edge 15, Type (0, 1), BuildingBlock: XUDNAN_clean_linker_2, # of connection points: 2
#     Edge 16, Type (0, 1), BuildingBlock: XUDNAN_clean_linker_2, # of connection points: 2
#     Edge 17, Type (0, 1), BuildingBlock: XUDNAN_clean_linker_2, # of connection points: 2
# Relax obj value: 0.050
# Max RMSD: 0.152
# Mean RMSD: 0.116
data_MOF--net-pth--node1-QUQFOY_clean_sbu_1--node2-MUDLON_clean_linker_0--edge1-XUDNAN_clean_linker_2
_symmetry_space_group_name_H-M    P1
_symmetry_Int_Tables_number       1
_symmetry_cell_setting            triclinic
loop_
_symmetry_equiv_pos_as_xyz
'x, y, z'
_cell_length_a     32.467573
_cell_length_b     34.966572
_cell_length_c     70.21083
_cell_angle_alpha  89.903589
_cell_angle_beta   90.001463
_cell_angle_gamma 119.87209
loop_
_atom_site_label
_atom_site_type_symbol
_atom_site_fract_x
_atom_site_fract_y
_atom_site_fract_z
_atom_type_partial_charge
O0 O 0.04173 0.07508 0.01911 0.0
Cd1 Cd 0.98161 0.04063 0.0355 0.0
Cd2 Cd 0.01892 0.98483 0.03807 0.0
O3 O 0.07747 0.03654 0.02486 0.0
O4 O 0.95883 0.08356 0.03943 0.0
O5 O 0.9838 0.05848 0.06304 0.0
C6 C 0.96814 0.08401 0.05728 0.0
C7 C 0.02835 0.95037 0.06486 0.0
C8 C 0.07732 0.0695 0.01722 0.0
C9 C 0.92487 0.95189 0.01762 0.0
O10 O 0.95949 0.94602 0.02167 0.0
O11 O 0.92511 0.98673 0.02294 0.0
O12 O 0.03752 0.94205 0.048 0.0
O13 O 0.01517 0.9795 0.06664 0.0
O14 O 0.98216 0.05144 0.38384 0.0
Cd15 Cd 0.03712 0.05993 0.36658 0.0
Cd16 Cd 0.98246 0.96919 0.36501 0.0
O17 O 0.93392 0.97983 0.38015 0.0
O18 O 0.06451 0.11973 0.35443 0.0
O19 O 0.02544 0.05694 0.3386 0.0
C20 C 0.04638 0.09948 0.33861 0.0
C21 C 0.96435 0.9262 0.33751 0.0
C22 C 0.94268 0.01677 0.38712 0.0
C23 C 0.08088 0.0102 0.38292 0.0
O24 O 0.04133 0.97605 0.37919 0.0
O25 O 0.08839 0.04848 0.37854 0.0
O26 O 0.95084 0.90803 0.35406 0.0
O27 O 0.98528 0.96867 0.33655 0.0
O28 O 0.93619 0.98858 0.68569 0.0
Cd29 Cd 0.97688 0.97216 0.70256 0.0
Cd30 Cd 0.0308 0.06232 0.70583 0.0
O31 O 0.97384 0.06025 0.69141 0.0
O32 O 0.93562 0.91198 0.71396 0.0
O33 O 0.96867 0.97388 0.73061 0.0
C34 C 0.94138 0.93163 0.73012 0.0
C35 C 0.06028 0.10051 0.73441 0.0
C36 C 0.93998 0.02635 0.68354 0.0
C37 C 0.07445 0.01405 0.68596 0.0
O38 O 0.07762 0.05068 0.69042 0.0
O39 O 0.03761 0.97777 0.69031 0.0
O40 O 0.06962 0.12136 0.71839 0.0
O41 O 0.03265 0.05832 0.73418 0.0
H42 H 0.89293 0.63498 0.21467 0.0
N43 N 0.97052 0.63643 0.20168 0.0
H44 H 0.8897 0.68431 0.23878 0.0
H45 H 0.04077 0.68476 0.22767 0.0
H46 H 0.03797 0.73499 0.25109 0.0
H47 H 0.05957 0.70761 0.19598 0.0
H48 H 0.07994 0.76679 0.17305 0.0
H49 H 0.91941 0.63428 0.17168 0.0
H50 H 0.94024 0.69338 0.14824 0.0
H51 H 0.91042 0.55076 0.19838 0.0
H52 H 0.05867 0.64454 0.20675 0.0
H53 H 0.92814 0.4905 0.19853 0.0
H54 H 0.07656 0.58474 0.20783 0.0
H55 H 0.96523 0.31907 0.21296 0.0
H56 H 0.96016 0.26558 0.23649 0.0
H57 H 0.10983 0.34706 0.24832 0.0
H58 H 0.1147 0.40083 0.2246 0.0
H59 H 0.1034 0.37208 0.17981 0.0
H60 H 0.08136 0.32182 0.15265 0.0
H61 H 0.93885 0.30158 0.15482 0.0
H62 H 0.96143 0.35227 0.18177 0.0
H63 H 0.96751 0.38776 0.21596 0.0
H64 H 0.95042 0.44805 0.21749 0.0
H65 H 0.08231 0.53297 0.18821 0.0
N66 N 0.04715 0.39098 0.2003 0.0
H67 H 0.09996 0.47273 0.18751 0.0
C68 C 0.96699 0.65622 0.21918 0.0
C69 C 0.92416 0.65534 0.22316 0.0
C70 C 0.92238 0.68355 0.23683 0.0
C71 C 0.96366 0.71335 0.24662 0.0
C72 C 0.00571 0.71209 0.24369 0.0
C73 C 0.00727 0.68334 0.23025 0.0
C74 C 0.98757 0.66633 0.18567 0.0
C75 C 0.03352 0.70344 0.18541 0.0
C76 C 0.04517 0.73752 0.17232 0.0
C77 C 0.01149 0.73484 0.15903 0.0
C78 C 0.96693 0.69621 0.15829 0.0
C79 C 0.95505 0.66242 0.1716 0.0
C80 C 0.98289 0.60214 0.20265 0.0
C81 C 0.94673 0.55825 0.2005 0.0
C82 C 0.95697 0.52382 0.20074 0.0
C83 C 1.00386 0.53247 0.20325 0.0
C84 C 0.04011 0.57666 0.2056 0.0
C85 C 0.02982 0.61113 0.2052 0.0
C86 C 0.04059 0.36418 0.21695 0.0
C87 C 0.99675 0.32625 0.22094 0.0
C88 C 0.99395 0.29538 0.2343 0.0
C89 C 0.03475 0.30181 0.24404 0.0
C90 C 0.07776 0.34126 0.24109 0.0
C91 C 0.0806 0.37204 0.22759 0.0
C92 C 0.03439 0.36627 0.18274 0.0
C93 C 0.06769 0.35741 0.17415 0.0
C94 C 0.05484 0.32828 0.15881 0.0
C95 C 0.0082 0.30733 0.15168 0.0
C96 C 0.97516 0.3174 0.15987 0.0
C97 C 0.98805 0.34648 0.17529 0.0
C98 C 0.03553 0.42578 0.20177 0.0
C99 C 0.99306 0.41934 0.21004 0.0
C100 C 0.98308 0.45399 0.21075 0.0
C101 C 0.01496 0.49572 0.20301 0.0
C102 C 0.05726 0.50178 0.19468 0.0
C103 C 0.06733 0.46727 0.19413 0.0
H104 H 0.69819 0.0394 0.54262 0.0
N105 N 0.62586 0.9558 0.53517 0.0
H106 H 0.74954 0.06268 0.57069 0.0
H107 H 0.61605 0.90883 0.56624 0.0
H108 H 0.66571 0.93214 0.59479 0.0
H109 H 0.66648 0.91149 0.52195 0.0
H110 H 0.71873 0.9292 0.49432 0.0
H111 H 0.6474 0.02231 0.50909 0.0
H112 H 0.69683 0.03859 0.48104 0.0
H113 H 0.61485 0.02835 0.53825 0.0
H114 H 0.53918 0.88711 0.53218 0.0
H115 H 0.54019 0.02905 0.5369 0.0
H116 H 0.46389 0.88661 0.53249 0.0
H117 H 0.32709 0.03003 0.5456 0.0
H118 H 0.29829 0.04783 0.57445 0.0
H119 H 0.23869 0.91291 0.59358 0.0
H120 H 0.26653 0.89519 0.56424 0.0
H121 H 0.23517 0.8918 0.51727 0.0
H122 H 0.20519 0.90217 0.48682 0.0
H123 H 0.32296 0.03554 0.48367 0.0
H124 H 0.35324 0.02448 0.51413 0.0
H125 H 0.39577 0.0122 0.55245 0.0
H126 H 0.47175 0.01443 0.55256 0.0
H127 H 0.4137 0.90103 0.51522 0.0
N128 N 0.31318 0.94891 0.53546 0.0
H129 H 0.33669 0.89686 0.51665 0.0
C130 C 0.65377 0.97204 0.55227 0.0
C131 C 0.69082 0.01592 0.55399 0.0
C132 C 0.71995 0.02926 0.57015 0.0
C133 C 0.71221 0.99914 0.58494 0.0
C134 C 0.67351 0.95594 0.5835 0.0
C135 C 0.64482 0.94258 0.5673 0.0
C136 C 0.65262 0.96513 0.51767 0.0
C137 C 0.67274 0.93904 0.51293 0.0
C138 C 0.70236 0.9491 0.49704 0.0
C139 C 0.71225 0.98547 0.48538 0.0
C140 C 0.69084 0.01083 0.48985 0.0
C141 C 0.66184 1.00115 0.5059 0.0
C142 C 0.58249 0.9576 0.53483 0.0
C143 C 0.58204 0.99742 0.53662 0.0
C144 C 0.53905 0.99763 0.53612 0.0
C145 C 0.49548 0.9579 0.53442 0.0
C146 C 0.4964 0.91809 0.5332 0.0
C147 C 0.5394 0.91811 0.53321 0.0
C148 C 0.29852 0.96105 0.55272 0.0
C149 C 0.30772 1.00426 0.55594 0.0
C150 C 0.2916 0.01448 0.57258 0.0
C151 C 0.2661 0.98178 0.58636 0.0
C152 C 0.25761 0.93874 0.58317 0.0
C153 C 0.27369 0.92858 0.5665 0.0
C154 C 0.29605 0.95728 0.51792 0.0
C155 C 0.25434 0.92326 0.51001 0.0
C156 C 0.2375 0.9292 0.49263 0.0
C157 C 0.26197 0.96959 0.48286 0.0
C158 C 0.30337 1.00418 0.49097 0.0
C159 C 0.32059 0.99795 0.50833 0.0
C160 C 0.35994 0.95363 0.53481 0.0
C161 C 0.39912 0.98752 0.54443 0.0
C162 C 0.44306 0.98908 0.54428 0.0
C163 C 0.44925 0.95759 0.53408 0.0
C164 C 0.41035 0.92504 0.52378 0.0
C165 C 0.36626 0.92284 0.52437 0.0
H166 H 0.63662 0.67065 0.8944 0.0
N167 N 0.68493 0.63413 0.87721 0.0
H168 H 0.66465 0.7232 0.92055 0.0
H169 H 0.76589 0.66459 0.89645 0.0
H170 H 0.79593 0.71955 0.92178 0.0
H171 H 0.75597 0.64309 0.85517 0.0
H172 H 0.7951 0.69676 0.82938 0.0
H173 H 0.65259 0.68542 0.86086 0.0
H174 H 0.69225 0.7399 0.83551 0.0
H175 H 0.63092 0.58846 0.9078 0.0
H176 H 0.62803 0.59203 0.84618 0.0
H177 H 0.54972 0.52741 0.90787 0.0
H178 H 0.54727 0.52985 0.84655 0.0
H179 H 0.28084 0.3741 0.90346 0.0
H180 H 0.24924 0.32612 0.93125 0.0
H181 H 0.35327 0.28452 0.9232 0.0
H182 H 0.38702 0.33577 0.89649 0.0
H183 H 0.35508 0.31175 0.86629 0.0
H184 H 0.30387 0.25971 0.84223 0.0
H185 H 0.23933 0.33989 0.83193 0.0
H186 H 0.29039 0.39191 0.85653 0.0
H187 H 0.3852 0.45953 0.89732 0.0
H188 H 0.46743 0.52054 0.89649 0.0
H189 H 0.50502 0.44531 0.85886 0.0
N190 N 0.34886 0.38218 0.88007 0.0
H191 H 0.42331 0.38387 0.86017 0.0
C192 C 0.69897 0.66305 0.89362 0.0
C193 C 0.67109 0.68058 0.90052 0.0
C194 C 0.68751 0.71115 0.9154 0.0
C195 C 0.73281 0.72608 0.92338 0.0
C196 C 0.76048 0.70835 0.91641 0.0
C197 C 0.74356 0.67705 0.90182 0.0
C198 C 0.70181 0.66054 0.86007 0.0
C199 C 0.74122 0.66335 0.85058 0.0
C200 C 0.76345 0.69395 0.83589 0.0
C201 C 0.74694 0.72273 0.83062 0.0
C202 C 0.70597 0.7184 0.83946 0.0
C203 C 0.68332 0.68733 0.85394 0.0
C204 C 0.63561 0.59823 0.87707 0.0
C205 C 0.61287 0.57733 0.89427 0.0
C206 C 0.5664 0.54188 0.89437 0.0
C207 C 0.54202 0.5246 0.87724 0.0
C208 C 0.56518 0.54307 0.85997 0.0
C209 C 0.61141 0.57925 0.85985 0.0
C210 C 0.33543 0.35777 0.89771 0.0
C211 C 0.29727 0.35521 0.908 0.0
C212 C 0.27891 0.32721 0.92372 0.0
C213 C 0.29765 0.30019 0.92926 0.0
C214 C 0.33773 0.30464 0.91947 0.0
C215 C 0.35681 0.33358 0.90399 0.0
C216 C 0.32629 0.35577 0.86342 0.0
C217 C 0.33055 0.31874 0.85877 0.0
C218 C 0.30114 0.28884 0.845 0.0
C219 C 0.26729 0.29554 0.83542 0.0
C220 C 0.26523 0.33403 0.83909 0.0
C221 C 0.29435 0.36373 0.85308 0.0
C222 C 0.39766 0.4172 0.87876 0.0
C223 C 0.41119 0.45618 0.88891 0.0
C224 C 0.45805 0.49088 0.88846 0.0
C225 C 0.49236 0.48759 0.87755 0.0
C226 C 0.47902 0.44872 0.86724 0.0
C227 C 0.43219 0.41352 0.86802 0.0
H228 H 0.00625 0.11023 0.09311 0.0
H229 H 0.92057 0.12867 0.05061 0.0
H230 H 0.91841 0.18534 0.07078 0.0
H231 H 0.95019 0.12781 0.13523 0.0
H232 H 0.00562 0.15712 0.14792 0.0
H233 H 0.99688 0.1152 0.13091 0.0
H234 H 0.07277 0.17168 0.1129 0.0
H235 H 0.08152 0.21383 0.12974 0.0
H236 H 0.07766 0.22265 0.10466 0.0
H237 H 0.9292 0.24299 0.09467 0.0
H238 H 0.95235 0.29749 0.12064 0.0
H239 H 0.03168 0.24232 0.14749 0.0
C240 C 0.98626 0.12558 0.08823 0.0
C241 C 0.9633 0.11479 0.07034 0.0
C242 C 0.93832 0.13628 0.06429 0.0
C243 C 0.93684 0.16851 0.07565 0.0
C244 C 0.96061 0.17904 0.09303 0.0
C245 C 0.98475 0.15816 0.09935 0.0
C246 C 0.00942 0.1773 0.11814 0.0
C247 C 0.98931 0.14227 0.13399 0.0
C248 C 0.06354 0.19757 0.11623 0.0
C249 C 0.99593 0.21257 0.12123 0.0
C250 C 0.96744 0.21277 0.10667 0.0
C251 C 0.95119 0.24292 0.10623 0.0
C252 C 0.96441 0.27367 0.12108 0.0
C253 C 0.99386 0.27428 0.1361 0.0
C254 C 0.00957 0.24309 0.13611 0.0
H255 H 0.86166 0.94917 0.40364 0.0
H256 H 0.94584 0.09195 0.39962 0.0
H257 H 0.89303 0.09886 0.42271 0.0
H258 H 0.74542 0.94332 0.40935 0.0
H259 H 0.72414 0.8984 0.42615 0.0
H260 H 0.76617 0.90421 0.40801 0.0
H261 H 0.82295 0.9046 0.43403 0.0
H262 H 0.78129 0.89908 0.45224 0.0
H263 H 0.8415 0.94436 0.45305 0.0
H264 H 0.83629 0.09117 0.44808 0.0
H265 H 0.77723 0.06915 0.47372 0.0
H266 H 0.72681 0.93123 0.46091 0.0
C267 C 0.86846 0.98184 0.40736 0.0
C268 C 0.90797 0.01999 0.39977 0.0
C269 C 0.91594 0.06218 0.40523 0.0
C270 C 0.88605 0.06652 0.41832 0.0
C271 C 0.84809 0.0284 0.42582 0.0
C272 C 0.83889 0.98684 0.42049 0.0
C273 C 0.79686 0.95139 0.43145 0.0
C274 C 0.75571 0.92264 0.41793 0.0
C275 C 0.81155 0.92321 0.4434 0.0
C276 C 0.78471 0.97965 0.44402 0.0
C277 C 0.8146 0.02394 0.44043 0.0
C278 C 0.81202 0.05656 0.4508 0.0
C279 C 0.77801 0.04363 0.46529 0.0
C280 C 0.74668 0.99838 0.46929 0.0
C281 C 0.75013 0.96609 0.45833 0.0
H282 H 0.89535 0.84186 0.73637 0.0
H283 H 0.92833 0.96605 0.76284 0.0
H284 H 0.88094 0.92582 0.79096 0.0
H285 H 0.77581 0.77839 0.75318 0.0
H286 H 0.7789 0.72907 0.75754 0.0
H287 H 0.81551 0.76734 0.73935 0.0
H288 H 0.8908 0.774 0.75527 0.0
H289 H 0.85439 0.73549 0.77343 0.0
H290 H 0.9023 0.78911 0.78004 0.0
H291 H 0.827 0.87249 0.81545 0.0
H292 H 0.77635 0.80944 0.83637 0.0
H293 H 0.78131 0.71962 0.79511 0.0
C294 C 0.89275 0.86055 0.74813 0.0
C295 C 0.91542 0.90711 0.74739 0.0
C296 C 0.91141 0.9304 0.7631 0.0
C297 C 0.88439 0.90785 0.77912 0.0
C298 C 0.86205 0.86199 0.77932 0.0
C299 C 0.86646 0.83855 0.7644 0.0
C300 C 0.83968 0.7894 0.76851 0.0
C301 C 0.80013 0.7646 0.75377 0.0
C302 C 0.87384 0.77092 0.76937 0.0
C303 C 0.81922 0.78893 0.78798 0.0
C304 C 0.83222 0.83118 0.79383 0.0
C305 C 0.8168 0.83927 0.81108 0.0
C306 C 0.7878 0.80328 0.8228 0.0
C307 C 0.77491 0.75977 0.81732 0.0
C308 C 0.79085 0.75259 0.79966 0.0
H309 H 0.01302 0.86625 0.06544 0.0
H310 H 0.04868 0.97867 0.10178 0.0
H311 H 0.05249 0.9368 0.12959 0.0
H312 H 0.93536 0.78543 0.09905 0.0
H313 H 0.95141 0.74486 0.09226 0.0
H314 H 0.95506 0.78477 0.0751 0.0
H315 H 0.04356 0.80942 0.06901 0.0
H316 H 0.04021 0.76962 0.08618 0.0
H317 H 0.08439 0.82699 0.08876 0.0
H318 H 0.05312 0.88274 0.15325 0.0
H319 H 0.04259 0.81824 0.17175 0.0
H320 H 1.00055 0.73919 0.12035 0.0
C321 C 0.02219 0.8822 0.07923 0.0
C322 C 0.03125 0.92588 0.08149 0.0
C323 C 0.04189 0.94531 0.09979 0.0
C324 C 0.04427 0.92184 0.11561 0.0
C325 C 0.03508 0.87876 0.1129 0.0
C326 C 0.02359 0.85891 0.09521 0.0
C327 C 0.01208 0.81128 0.09635 0.0
C328 C 0.96041 0.77973 0.09034 0.0
C329 C 0.04716 0.80392 0.08436 0.0
C330 C 0.0191 0.80743 0.11744 0.0
C331 C 0.03302 0.84692 0.12668 0.0
C332 C 0.04216 0.85166 0.14617 0.0
C333 C 0.03635 0.81496 0.15653 0.0
C334 C 0.02093 0.77389 0.14745 0.0
C335 C 0.01231 0.77021 0.12763 0.0
H336 H 0.14099 0.06151 0.41139 0.0
H337 H 0.10015 0.94396 0.37787 0.0
H338 H 0.1518 0.92678 0.39753 0.0
H339 H 0.26611 0.08782 0.42242 0.0
H340 H 0.26275 0.10441 0.4464 0.0
H341 H 0.22991 0.11232 0.42758 0.0
H342 H 0.15222 0.06807 0.44694 0.0
H343 H 0.18466 0.0598 0.46572 0.0
H344 H 0.13491 0.01295 0.45479 0.0
H345 H 0.19823 0.91663 0.42283 0.0
H346 H 0.23625 0.91351 0.45275 0.0
H347 H 0.24625 0.03629 0.471 0.0
C348 C 0.14441 0.03309 0.40783 0.0
C349 C 0.11726 1.00435 0.39297 0.0
C350 C 0.12103 0.96651 0.38911 0.0
C351 C 0.15039 0.95659 0.40015 0.0
C352 C 0.17561 0.98474 0.41508 0.0
C353 C 0.17311 0.0223 0.41896 0.0
C354 C 0.19941 0.04394 0.43723 0.0
C355 C 0.24209 0.08985 0.43316 0.0
C356 C 0.16578 0.0463 0.45204 0.0
C357 C 0.2155 0.01179 0.4433 0.0
C358 C 0.20202 0.97834 0.43011 0.0
C359 C 0.20964 0.94297 0.43313 0.0
C360 C 0.23096 0.94132 0.4502 0.0
C361 C 0.24422 0.97468 0.46411 0.0
C362 C 0.23723 0.01081 0.46043 0.0
H363 H 0.11979 0.18955 0.73989 0.0
H364 H 0.0532 0.06354 0.76941 0.0
H365 H 0.09705 0.10042 0.79861 0.0
H366 H 0.23318 0.2324 0.7605 0.0
H367 H 0.24453 0.28821 0.76253 0.0
H368 H 0.20562 0.25272 0.74417 0.0
H369 H 0.13841 0.26606 0.75624 0.0
H370 H 0.17726 0.30192 0.77457 0.0
H371 H 0.12046 0.25547 0.78088 0.0
H372 H 0.15265 0.14932 0.82368 0.0
H373 H 0.21257 0.20855 0.84396 0.0
H374 H 0.24172 0.30367 0.79886 0.0
C375 C 0.11388 0.16981 0.75258 0.0
C376 C 0.08301 0.12361 0.75235 0.0
C377 C 0.07651 0.09896 0.76923 0.0
C378 C 0.10133 0.11959 0.7859 0.0
C379 C 0.13218 0.16498 0.78554 0.0
C380 C 0.13814 0.18996 0.76942 0.0
C381 C 0.17434 0.23811 0.77278 0.0
C382 C 0.21693 0.25376 0.75919 0.0
C383 C 0.15123 0.2671 0.77101 0.0
C384 C 0.18841 0.2361 0.79319 0.0
C385 C 0.16367 0.19353 0.80023 0.0
C386 C 0.17191 0.18286 0.81841 0.0
C387 C 0.2062 0.21661 0.82976 0.0
C388 C 0.23168 0.26055 0.82294 0.0
C389 C 0.22239 0.2704 0.80445 0.0
H390 H 0.87338 0.96347 0.66021 0.0
H391 H 0.93004 0.09938 0.67805 0.0
H392 H 0.87547 0.10685 0.6557 0.0
H393 H 0.86404 0.98186 0.61134 0.0
H394 H 0.81007 0.93012 0.60781 0.0
H395 H 0.85122 0.93496 0.62609 0.0
H396 H 0.78419 0.90829 0.65134 0.0
H397 H 0.74277 0.90335 0.63312 0.0
H398 H 0.75113 0.93688 0.65382 0.0
H399 H 0.81574 0.09953 0.63034 0.0
H400 H 0.75747 0.07851 0.60415 0.0
H401 H 0.74372 0.94852 0.60258 0.0
C402 C 0.87404 0.99472 0.65965 0.0
C403 C 0.90586 0.03078 0.67099 0.0
C404 C 0.90589 0.07124 0.66955 0.0
C405 C 0.87498 0.07577 0.65691 0.0
C406 C 0.84442 0.03959 0.6458 0.0
C407 C 0.84384 0.99989 0.64707 0.0
C408 C 0.80932 0.96656 0.63305 0.0
C409 C 0.83522 0.95258 0.61872 0.0
C410 C 0.76949 0.92641 0.64346 0.0
C411 C 0.79066 0.99371 0.62356 0.0
C412 C 0.81099 0.03566 0.63114 0.0
C413 C 0.79958 0.06673 0.62433 0.0
C414 C 0.76666 0.05456 0.60936 0.0
C415 C 0.74571 0.01176 0.60129 0.0
C416 C 0.75811 0.98117 0.60862 0.0
H417 H 0.9063 0.86892 0.00758 0.0
H418 H 0.85624 0.9621 0.99944 0.0
H419 H 0.79751 0.91187 0.97605 0.0
H420 H 0.9001 0.83752 0.96025 0.0
H421 H 0.87958 0.78013 0.96501 0.0
H422 H 0.91446 0.82114 0.98251 0.0
H423 H 0.84827 0.78031 0.00768 0.0
H424 H 0.8133 0.73885 0.99029 0.0
H425 H 0.78853 0.76806 0.00252 0.0
H426 H 0.7513 0.85593 0.95079 0.0
H427 H 0.71724 0.79634 0.92711 0.0
H428 H 0.7932 0.73676 0.95327 0.0
C429 C 0.88244 0.87846 1.00114 0.0
C430 C 0.88594 0.91952 0.00536 0.0
C431 C 0.85412 0.93076 0.99654 0.0
C432 C 0.82066 0.90246 0.9832 0.0
C433 C 0.81895 0.86274 0.97904 0.0
C434 C 0.84849 0.85041 0.98796 0.0
C435 C 0.84066 0.8067 0.98043 0.0
C436 C 0.88642 0.8117 0.97152 0.0
C437 C 0.82154 0.77139 0.99617 0.0
C438 C 0.80324 0.79711 0.96543 0.0
C439 C 0.79109 0.82974 0.9649 0.0
C440 C 0.75968 0.82962 0.95137 0.0
C441 C 0.74022 0.7953 0.93801 0.0
C442 C 0.75188 0.76118 0.93829 0.0
C443 C 0.78352 0.76219 0.95243 0.0
H444 H 0.92464 0.83602 0.33496 0.0
H445 H 0.99721 0.95657 0.30166 0.0
H446 H 1.00162 0.91425 0.27448 0.0
H447 H 0.9909 0.78856 0.31906 0.0
H448 H 0.94206 0.73271 0.31806 0.0
H449 H 0.94018 0.77134 0.33444 0.0
H450 H 0.86025 0.75686 0.32003 0.0
H451 H 0.86153 0.71771 0.30373 0.0
H452 H 0.85597 0.76325 0.29475 0.0
H453 H 0.00635 0.86094 0.25229 0.0
H454 H 1.00422 0.79811 0.23523 0.0
H455 H 0.92592 0.71108 0.28201 0.0
C456 C 0.94052 0.85337 0.32181 0.0
C457 C 0.96052 0.89967 0.32045 0.0
C458 C 0.98144 0.92116 0.30305 0.0
C459 C 0.98423 0.8974 0.28752 0.0
C460 C 0.96546 0.85207 0.28952 0.0
C461 C 0.9433 0.83007 0.30609 0.0
C462 C 0.92745 0.78134 0.30466 0.0
C463 C 0.9516 0.76771 0.31996 0.0
C464 C 0.87306 0.75312 0.30586 0.0
C465 C 0.94527 0.77965 0.28489 0.0
C466 C 0.96713 0.82091 0.27644 0.0
C467 C 0.9887 0.82838 0.25862 0.0
C468 C 0.98758 0.79269 0.2491 0.0
C469 C 0.96482 0.75012 0.25735 0.0
C470 C 0.94319 0.7434 0.27542 0.0
H471 H 0.06861 0.94859 0.66266 0.0
H472 H 0.16645 0.08063 0.68287 0.0
H473 H 0.22842 0.08432 0.66133 0.0
H474 H 0.15698 0.9126 0.65526 0.0
H475 H 0.12838 0.88285 0.63384 0.0
H476 H 0.09363 0.88843 0.65251 0.0
H477 H 0.06053 0.9225 0.62837 0.0
H478 H 0.09527 0.91723 0.60968 0.0
H479 H 0.10131 0.9703 0.61476 0.0
H480 H 0.2777 0.07598 0.63597 0.0
H481 H 0.3105 0.05653 0.60831 0.0
H482 H 0.17936 0.93123 0.60365 0.0
C483 C 0.10344 0.97783 0.66289 0.0
C484 C 0.11286 0.01418 0.67457 0.0
C485 C 0.15851 0.05233 0.67409 0.0
C486 C 0.19398 0.0547 0.66195 0.0
C487 C 0.18322 0.0187 0.6503 0.0
C488 C 0.1391 0.98095 0.65068 0.0
C489 C 0.13549 0.94837 0.63565 0.0
C490 C 0.1282 0.90552 0.64487 0.0
C491 C 0.09581 0.93908 0.62127 0.0
C492 C 0.18414 0.97403 0.62655 0.0
C493 C 0.21131 0.0143 0.63535 0.0
C494 C 0.25686 0.04443 0.62902 0.0
C495 C 0.27503 0.03322 0.6132 0.0
C496 C 0.24756 0.99237 0.60376 0.0
C497 C 0.20165 0.96237 0.61072 0.0
H498 H 0.07554 0.12083 0.98848 0.0
H499 H 0.17091 0.09049 0.01979 0.0
H500 H 0.23888 0.14702 1.00101 0.0
H501 H 0.13332 0.13604 0.94295 0.0
H502 H 0.12195 0.17945 0.9358 0.0
H503 H 0.08186 0.1371 0.95191 0.0
H504 H 0.09293 0.19702 0.97635 0.0
H505 H 0.13337 0.23953 0.96038 0.0
H506 H 0.15189 0.23652 0.98427 0.0
H507 H 0.29681 0.21035 0.97942 0.0
H508 H 0.33813 0.2695 0.95558 0.0
H509 H 0.2021 0.25217 0.93715 0.0
C510 C 0.11073 0.12607 0.99144 0.0
C511 C 0.11813 0.10163 0.0057 0.0
C512 C 0.16456 0.10893 0.00891 0.0
C513 C 0.20331 0.14104 0.99837 0.0
C514 C 0.19473 0.1649 0.9845 0.0
C515 C 0.1494 0.15721 0.98088 0.0
C516 C 0.14903 0.18607 0.9649 0.0
C517 C 0.11982 0.15798 0.94788 0.0
C518 C 0.13073 0.21659 0.97191 0.0
C519 C 0.20139 0.21181 0.96023 0.0
C520 C 0.22736 0.19951 0.97172 0.0
C521 C 0.27666 0.21982 0.97021 0.0
C522 C 0.29981 0.25329 0.95652 0.0
C523 C 0.27365 0.26587 0.94435 0.0
C524 C 0.22368 0.24441 0.94636 0.0
H525 H 0.08197 0.18892 0.33455 0.0
H526 H 0.00851 0.06496 0.30382 0.0
H527 H 0.99942 0.10376 0.27621 0.0
H528 H 0.01084 0.23246 0.31846 0.0
H529 H 0.05873 0.28856 0.3163 0.0
H530 H 0.06278 0.25195 0.33329 0.0
H531 H 0.14225 0.26673 0.31824 0.0
H532 H 0.13871 0.30377 0.3013 0.0
H533 H 0.14488 0.25807 0.29307 0.0
H534 H 0.99276 0.15446 0.25294 0.0
H535 H 0.99403 0.21506 0.23443 0.0
H536 H 0.07282 0.30689 0.27976 0.0
C537 C 0.06471 0.17005 0.32189 0.0
C538 C 0.04604 0.12384 0.32136 0.0
C539 C 0.02326 0.10035 0.30458 0.0
C540 C 0.01783 0.12209 0.28882 0.0
C541 C 0.03563 0.16741 0.28997 0.0
C542 C 0.05911 0.19128 0.30597 0.0
C543 C 0.07377 0.23959 0.30364 0.0
C544 C 0.05011 0.25396 0.31883 0.0
C545 C 0.12814 0.26876 0.30409 0.0
C546 C 0.05421 0.23895 0.28395 0.0
C547 C 0.03228 0.19692 0.27637 0.0
C548 C 0.01011 0.18757 0.25867 0.0
C549 C 0.01065 0.22214 0.24834 0.0
C550 C 0.03331 0.26563 0.25569 0.0
C551 C 0.05551 0.27404 0.27373 0.0
loop_
_geom_bond_atom_site_label_1
_geom_bond_atom_site_label_2
_geom_bond_distance
_geom_bond_site_symmetry_2
_ccdc_geom_bond_type
O0 Cd1 2.223 1_455 S
O0 C8 1.315 . S
Cd1 O0 2.223 1_655 S
Cd1 O4 2.297 . S
Cd1 O5 2.439 . S
Cd1 O11 2.240 1_545 S
Cd2 O3 2.240 1_565 S
Cd2 O10 2.223 1_455 S
Cd2 O12 2.297 . S
Cd2 O13 2.439 . S
O3 Cd2 2.240 1_545 S
O3 C8 1.279 . S
O4 Cd1 2.297 . S
O4 C6 1.247 . S
O5 Cd1 2.439 . S
O5 C6 1.208 . S
C6 O4 1.247 . S
C6 O5 1.208 . S
C7 O12 1.247 . S
C7 O13 1.208 . S
C8 O0 1.315 . S
C8 O3 1.279 . S
C9 O10 1.315 . S
C9 O11 1.279 . S
O10 Cd2 2.223 1_655 S
O10 C9 1.315 . S
O11 Cd1 2.240 1_565 S
O11 C9 1.279 . S
O12 Cd2 2.297 . S
O12 C7 1.247 . S
O13 Cd2 2.439 . S
O13 C7 1.208 . S
O14 Cd15 2.223 1_655 S
O14 C22 1.315 . S
Cd15 O14 2.223 1_455 S
Cd15 O18 2.297 . S
Cd15 O19 2.439 . S
Cd15 O25 2.240 . S
Cd16 O17 2.240 . S
Cd16 O24 2.223 1_655 S
Cd16 O26 2.297 . S
Cd16 O27 2.439 . S
O17 Cd16 2.240 . S
O17 C22 1.279 1_565 S
O18 Cd15 2.297 . S
O18 C20 1.247 . S
O19 Cd15 2.439 . S
O19 C20 1.208 . S
C20 O18 1.247 . S
C20 O19 1.208 . S
C21 O26 1.247 . S
C21 O27 1.208 . S
C22 O14 1.315 . S
C22 O17 1.279 1_545 S
C23 O24 1.315 . S
C23 O25 1.279 1_565 S
O24 Cd16 2.223 1_455 S
O24 C23 1.315 . S
O25 Cd15 2.240 . S
O25 C23 1.279 1_545 S
O26 Cd16 2.297 . S
O26 C21 1.247 . S
O27 Cd16 2.439 . S
O27 C21 1.208 . S
O28 Cd29 2.223 . S
O28 C36 1.315 . S
Cd29 O28 2.223 . S
Cd29 O32 2.297 . S
Cd29 O33 2.439 . S
Cd29 O39 2.240 1_655 S
Cd30 O31 2.240 1_455 S
Cd30 O38 2.223 . S
Cd30 O40 2.297 . S
Cd30 O41 2.439 . S
O31 Cd30 2.240 1_655 S
O31 C36 1.279 1_545 S
O32 Cd29 2.297 . S
O32 C34 1.247 . S
O33 Cd29 2.439 . S
O33 C34 1.208 . S
C34 O32 1.247 . S
C34 O33 1.208 . S
C35 O40 1.247 . S
C35 O41 1.208 . S
C36 O28 1.315 . S
C36 O31 1.279 1_565 S
C37 O38 1.315 . S
C37 O39 1.279 1_545 S
O38 Cd30 2.223 . S
O38 C37 1.315 . S
O39 Cd29 2.240 1_455 S
O39 C37 1.279 1_565 S
O40 Cd30 2.297 . S
O40 C35 1.247 . S
O41 Cd30 2.439 . S
O41 C35 1.208 . S
H42 C69 0.929 . S
N43 C68 1.433 . S
N43 C74 1.435 . S
N43 C80 1.423 . S
H44 C70 0.930 . S
H45 C73 0.931 . S
H46 C72 0.929 . S
H47 C75 0.930 . S
H48 C76 0.932 . S
H49 C79 0.929 . S
H50 C78 0.931 . S
H51 C81 0.929 . S
H52 C85 0.932 1_455 S
H53 C82 0.931 . S
H54 C84 0.929 1_455 S
H55 C87 0.929 . S
H56 C88 0.930 . S
H57 C90 0.929 . S
H58 C91 0.931 . S
H59 C93 0.930 . S
H60 C94 0.932 . S
H61 C96 0.931 . S
H62 C97 0.929 . S
H63 C99 0.929 . S
H64 C100 0.931 . S
H65 C102 0.929 1_455 S
N66 C86 1.433 . S
N66 C92 1.435 . S
N66 C98 1.423 . S
H67 C103 0.932 1_455 S
C68 N43 1.433 . S
C68 C69 1.363 . S
C68 C73 1.370 1_655 S
C69 H42 0.929 . S
C69 C68 1.363 . S
C69 C70 1.385 . S
C70 H44 0.930 . S
C70 C69 1.385 . S
C70 C71 1.357 . S
C71 C70 1.357 . S
C71 C72 1.406 1_655 S
C72 H46 0.929 . S
C72 C71 1.406 1_455 S
C72 C73 1.391 . S
C73 H45 0.931 . S
C73 C68 1.370 1_455 S
C73 C72 1.391 . S
C74 N43 1.435 . S
C74 C75 1.358 1_655 S
C74 C79 1.371 . S
C75 H47 0.930 . S
C75 C74 1.358 1_455 S
C75 C76 1.405 . S
C76 H48 0.932 . S
C76 C75 1.405 . S
C76 C77 1.383 1_455 S
C77 C76 1.383 1_655 S
C77 C78 1.393 . S
C78 H50 0.931 . S
C78 C77 1.393 . S
C78 C79 1.382 . S
C79 H49 0.929 . S
C79 C74 1.371 . S
C79 C78 1.382 . S
C80 N43 1.423 . S
C80 C81 1.362 . S
C80 C85 1.388 . S
C81 H51 0.929 . S
C81 C80 1.362 . S
C81 C82 1.376 . S
C82 H53 0.931 . S
C82 C81 1.376 . S
C82 C83 1.396 . S
C83 C82 1.396 . S
C83 C84 1.348 . S
C83 C101 1.472 . S
C84 H54 0.929 1_655 S
C84 C83 1.348 . S
C84 C85 1.443 . S
C85 H52 0.932 1_655 S
C85 C80 1.388 . S
C85 C84 1.443 . S
C86 N66 1.433 . S
C86 C87 1.363 . S
C86 C91 1.370 1_655 S
C87 H55 0.929 . S
C87 C86 1.363 . S
C87 C88 1.385 . S
C88 H56 0.930 . S
C88 C87 1.385 . S
C88 C89 1.357 . S
C89 C88 1.357 . S
C89 C90 1.406 1_655 S
C90 H57 0.929 . S
C90 C89 1.406 1_455 S
C90 C91 1.391 . S
C91 H58 0.931 . S
C91 C86 1.370 1_455 S
C91 C90 1.391 . S
C92 N66 1.435 . S
C92 C93 1.358 1_655 S
C92 C97 1.371 . S
C93 H59 0.930 . S
C93 C92 1.358 1_455 S
C93 C94 1.405 . S
C94 H60 0.932 . S
C94 C93 1.405 . S
C94 C95 1.383 1_455 S
C95 C94 1.383 1_655 S
C95 C96 1.393 . S
C96 H61 0.931 . S
C96 C95 1.393 . S
C96 C97 1.382 . S
C97 H62 0.929 . S
C97 C92 1.371 . S
C97 C96 1.382 . S
C98 N66 1.423 . S
C98 C99 1.362 . S
C98 C103 1.388 . S
C99 H63 0.929 . S
C99 C98 1.362 . S
C99 C100 1.376 . S
C100 H64 0.931 . S
C100 C99 1.376 . S
C100 C101 1.396 . S
C101 C83 1.472 . S
C101 C100 1.396 . S
C101 C102 1.348 . S
C102 H65 0.929 1_655 S
C102 C101 1.348 . S
C102 C103 1.443 . S
C103 H67 0.932 1_655 S
C103 C98 1.388 . S
C103 C102 1.443 . S
H104 C131 0.929 . S
N105 C130 1.433 . S
N105 C136 1.435 . S
N105 C142 1.423 . S
H106 C132 0.930 . S
H107 C135 0.931 . S
H108 C134 0.929 . S
H109 C137 0.930 . S
H110 C138 0.932 . S
H111 C141 0.929 . S
H112 C140 0.931 . S
H113 C143 0.929 . S
H114 C147 0.932 1_565 S
H115 C144 0.931 . S
H116 C146 0.929 1_565 S
H117 C149 0.929 . S
H118 C150 0.930 . S
H119 C152 0.929 . S
H120 C153 0.931 . S
H121 C155 0.930 . S
H122 C156 0.932 . S
H123 C158 0.931 . S
H124 C159 0.929 . S
H125 C161 0.929 . S
H126 C162 0.931 . S
H127 C164 0.929 1_565 S
N128 C148 1.433 . S
N128 C154 1.435 . S
N128 C160 1.423 . S
H129 C165 0.932 1_565 S
C130 N105 1.433 . S
C130 C131 1.363 . S
C130 C135 1.370 1_545 S
C131 H104 0.929 . S
C131 C130 1.363 . S
C131 C132 1.385 . S
C132 H106 0.930 . S
C132 C131 1.385 . S
C132 C133 1.357 . S
C133 C132 1.357 . S
C133 C134 1.406 1_545 S
C134 H108 0.929 . S
C134 C133 1.406 1_565 S
C134 C135 1.391 . S
C135 H107 0.931 . S
C135 C130 1.370 1_565 S
C135 C134 1.391 . S
C136 N105 1.435 . S
C136 C137 1.358 1_545 S
C136 C141 1.371 . S
C137 H109 0.930 . S
C137 C136 1.358 1_565 S
C137 C138 1.405 . S
C138 H110 0.932 . S
C138 C137 1.405 . S
C138 C139 1.383 1_565 S
C139 C138 1.383 1_545 S
C139 C140 1.393 . S
C140 H112 0.931 . S
C140 C139 1.393 . S
C140 C141 1.382 . S
C141 H111 0.929 . S
C141 C136 1.371 . S
C141 C140 1.382 . S
C142 N105 1.423 . S
C142 C143 1.362 . S
C142 C147 1.388 . S
C143 H113 0.929 . S
C143 C142 1.362 . S
C143 C144 1.376 . S
C144 H115 0.931 . S
C144 C143 1.376 . S
C144 C145 1.396 . S
C145 C144 1.396 . S
C145 C146 1.348 . S
C145 C163 1.472 . S
C146 H116 0.929 1_545 S
C146 C145 1.348 . S
C146 C147 1.443 . S
C147 H114 0.932 1_545 S
C147 C142 1.388 . S
C147 C146 1.443 . S
C148 N128 1.433 . S
C148 C149 1.363 . S
C148 C153 1.370 1_545 S
C149 H117 0.929 . S
C149 C148 1.363 . S
C149 C150 1.385 . S
C150 H118 0.930 . S
C150 C149 1.385 . S
C150 C151 1.357 . S
C151 C150 1.357 . S
C151 C152 1.406 1_545 S
C152 H119 0.929 . S
C152 C151 1.406 1_565 S
C152 C153 1.391 . S
C153 H120 0.931 . S
C153 C148 1.370 1_565 S
C153 C152 1.391 . S
C154 N128 1.435 . S
C154 C155 1.358 1_545 S
C154 C159 1.371 . S
C155 H121 0.930 . S
C155 C154 1.358 1_565 S
C155 C156 1.405 . S
C156 H122 0.932 . S
C156 C155 1.405 . S
C156 C157 1.383 1_565 S
C157 C156 1.383 1_545 S
C157 C158 1.393 . S
C158 H123 0.931 . S
C158 C157 1.393 . S
C158 C159 1.382 . S
C159 H124 0.929 . S
C159 C154 1.371 . S
C159 C158 1.382 . S
C160 N128 1.423 . S
C160 C161 1.362 . S
C160 C165 1.388 . S
C161 H125 0.929 . S
C161 C160 1.362 . S
C161 C162 1.376 . S
C162 H126 0.931 . S
C162 C161 1.376 . S
C162 C163 1.396 . S
C163 C145 1.472 . S
C163 C162 1.396 . S
C163 C164 1.348 . S
C164 H127 0.929 1_545 S
C164 C163 1.348 . S
C164 C165 1.443 . S
C165 H129 0.932 1_545 S
C165 C160 1.388 . S
C165 C164 1.443 . S
H166 C193 0.929 . S
N167 C192 1.433 . S
N167 C198 1.435 . S
N167 C204 1.423 . S
H168 C194 0.930 . S
H169 C197 0.931 . S
H170 C196 0.929 . S
H171 C199 0.930 . S
H172 C200 0.932 . S
H173 C203 0.929 . S
H174 C202 0.931 . S
H175 C205 0.929 . S
H176 C209 0.932 . S
H177 C206 0.931 . S
H178 C208 0.929 . S
H179 C211 0.929 . S
H180 C212 0.930 . S
H181 C214 0.929 . S
H182 C215 0.931 . S
H183 C217 0.930 . S
H184 C218 0.932 . S
H185 C220 0.931 . S
H186 C221 0.929 . S
H187 C223 0.929 . S
H188 C224 0.931 . S
H189 C226 0.929 . S
N190 C210 1.433 . S
N190 C216 1.435 . S
N190 C222 1.423 . S
H191 C227 0.932 . S
C192 N167 1.433 . S
C192 C193 1.363 . S
C192 C197 1.370 . S
C193 H166 0.929 . S
C193 C192 1.363 . S
C193 C194 1.385 . S
C194 H168 0.930 . S
C194 C193 1.385 . S
C194 C195 1.357 . S
C195 C194 1.357 . S
C195 C196 1.406 . S
C196 H170 0.929 . S
C196 C195 1.406 . S
C196 C197 1.391 . S
C197 H169 0.931 . S
C197 C192 1.370 . S
C197 C196 1.391 . S
C198 N167 1.435 . S
C198 C199 1.358 . S
C198 C203 1.371 . S
C199 H171 0.930 . S
C199 C198 1.358 . S
C199 C200 1.405 . S
C200 H172 0.932 . S
C200 C199 1.405 . S
C200 C201 1.383 . S
C201 C200 1.383 . S
C201 C202 1.393 . S
C202 H174 0.931 . S
C202 C201 1.393 . S
C202 C203 1.382 . S
C203 H173 0.929 . S
C203 C198 1.371 . S
C203 C202 1.382 . S
C204 N167 1.423 . S
C204 C205 1.362 . S
C204 C209 1.388 . S
C205 H175 0.929 . S
C205 C204 1.362 . S
C205 C206 1.376 . S
C206 H177 0.931 . S
C206 C205 1.376 . S
C206 C207 1.396 . S
C207 C206 1.396 . S
C207 C208 1.348 . S
C207 C225 1.472 . S
C208 H178 0.929 . S
C208 C207 1.348 . S
C208 C209 1.443 . S
C209 H176 0.932 . S
C209 C204 1.388 . S
C209 C208 1.443 . S
C210 N190 1.433 . S
C210 C211 1.363 . S
C210 C215 1.370 . S
C211 H179 0.929 . S
C211 C210 1.363 . S
C211 C212 1.385 . S
C212 H180 0.930 . S
C212 C211 1.385 . S
C212 C213 1.357 . S
C213 C212 1.357 . S
C213 C214 1.406 . S
C214 H181 0.929 . S
C214 C213 1.406 . S
C214 C215 1.391 . S
C215 H182 0.931 . S
C215 C210 1.370 . S
C215 C214 1.391 . S
C216 N190 1.435 . S
C216 C217 1.358 . S
C216 C221 1.371 . S
C217 H183 0.930 . S
C217 C216 1.358 . S
C217 C218 1.405 . S
C218 H184 0.932 . S
C218 C217 1.405 . S
C218 C219 1.383 . S
C219 C218 1.383 . S
C219 C220 1.393 . S
C220 H185 0.931 . S
C220 C219 1.393 . S
C220 C221 1.382 . S
C221 H186 0.929 . S
C221 C216 1.371 . S
C221 C220 1.382 . S
C222 N190 1.423 . S
C222 C223 1.362 . S
C222 C227 1.388 . S
C223 H187 0.929 . S
C223 C222 1.362 . S
C223 C224 1.376 . S
C224 H188 0.931 . S
C224 C223 1.376 . S
C224 C225 1.396 . S
C225 C207 1.472 . S
C225 C224 1.396 . S
C225 C226 1.348 . S
C226 H189 0.929 . S
C226 C225 1.348 . S
C226 C227 1.443 . S
C227 H191 0.932 . S
C227 C222 1.388 . S
C227 C226 1.443 . S
H228 C240 0.930 . S
H229 C242 0.930 . S
H230 C243 0.930 . S
H231 C247 0.959 . S
H232 C247 0.959 . S
H233 C247 0.961 . S
H234 C248 0.960 . S
H235 C248 0.961 . S
H236 C248 0.959 1_455 S
H237 C251 0.929 . S
H238 C252 0.931 . S
H239 C254 0.930 . S
C240 H228 0.930 . S
C240 C241 1.399 1_655 S
C240 C245 1.399 . S
C241 C240 1.399 1_455 S
C241 C242 1.376 . S
C242 H229 0.930 . S
C242 C241 1.376 . S
C242 C243 1.388 . S
C243 H230 0.930 . S
C243 C242 1.388 . S
C243 C244 1.390 . S
C244 C243 1.390 . S
C244 C245 1.394 1_455 S
C244 C250 1.465 . S
C245 C240 1.399 . S
C245 C244 1.394 1_655 S
C245 C246 1.516 . S
C246 C245 1.516 . S
C246 C247 1.502 . S
C246 C248 1.561 . S
C246 C249 1.526 . S
C247 H231 0.959 . S
C247 H232 0.959 . S
C247 H233 0.961 . S
C247 C246 1.502 . S
C248 H234 0.960 . S
C248 H235 0.961 . S
C248 H236 0.959 1_655 S
C248 C246 1.561 . S
C249 C246 1.526 . S
C249 C250 1.396 1_655 S
C249 C254 1.390 . S
C250 C244 1.465 . S
C250 C249 1.396 1_455 S
C250 C251 1.399 . S
C251 H237 0.929 . S
C251 C250 1.399 . S
C251 C252 1.385 . S
C252 H238 0.931 . S
C252 C251 1.385 . S
C252 C253 1.389 . S
C253 C252 1.389 . S
C253 C254 1.387 1_455 S
C254 H239 0.930 . S
C254 C249 1.390 . S
C254 C253 1.387 1_655 S
H255 C267 0.930 . S
H256 C269 0.930 . S
H257 C270 0.930 . S
H258 C274 0.959 . S
H259 C274 0.959 . S
H260 C274 0.961 . S
H261 C275 0.960 . S
H262 C275 0.961 . S
H263 C275 0.959 . S
H264 C278 0.929 . S
H265 C279 0.931 . S
H266 C281 0.930 . S
C267 H255 0.930 . S
C267 C268 1.399 1_565 S
C267 C272 1.399 . S
C268 C267 1.399 1_545 S
C268 C269 1.376 . S
C269 H256 0.930 . S
C269 C268 1.376 . S
C269 C270 1.388 . S
C270 H257 0.930 . S
C270 C269 1.388 . S
C270 C271 1.390 . S
C271 C270 1.390 . S
C271 C272 1.394 1_545 S
C271 C277 1.465 . S
C272 C267 1.399 . S
C272 C271 1.394 1_565 S
C272 C273 1.516 . S
C273 C272 1.516 . S
C273 C274 1.502 . S
C273 C275 1.561 . S
C273 C276 1.526 . S
C274 H258 0.959 . S
C274 H259 0.959 . S
C274 H260 0.961 . S
C274 C273 1.502 . S
C275 H261 0.960 . S
C275 H262 0.961 . S
C275 H263 0.959 . S
C275 C273 1.561 . S
C276 C273 1.526 . S
C276 C277 1.396 1_565 S
C276 C281 1.390 . S
C277 C271 1.465 . S
C277 C276 1.396 1_545 S
C277 C278 1.399 . S
C278 H264 0.929 . S
C278 C277 1.399 . S
C278 C279 1.385 . S
C279 H265 0.931 . S
C279 C278 1.385 . S
C279 C280 1.389 . S
C280 C279 1.389 . S
C280 C281 1.387 1_545 S
C281 H266 0.930 . S
C281 C276 1.390 . S
C281 C280 1.387 1_565 S
H282 C294 0.930 . S
H283 C296 0.930 . S
H284 C297 0.930 . S
H285 C301 0.959 . S
H286 C301 0.959 . S
H287 C301 0.961 . S
H288 C302 0.960 . S
H289 C302 0.961 . S
H290 C302 0.959 . S
H291 C305 0.929 . S
H292 C306 0.931 . S
H293 C308 0.930 . S
C294 H282 0.930 . S
C294 C295 1.399 . S
C294 C299 1.399 . S
C295 C294 1.399 . S
C295 C296 1.376 . S
C296 H283 0.930 . S
C296 C295 1.376 . S
C296 C297 1.388 . S
C297 H284 0.930 . S
C297 C296 1.388 . S
C297 C298 1.390 . S
C298 C297 1.390 . S
C298 C299 1.394 . S
C298 C304 1.465 . S
C299 C294 1.399 . S
C299 C298 1.394 . S
C299 C300 1.516 . S
C300 C299 1.516 . S
C300 C301 1.502 . S
C300 C302 1.561 . S
C300 C303 1.526 . S
C301 H285 0.959 . S
C301 H286 0.959 . S
C301 H287 0.961 . S
C301 C300 1.502 . S
C302 H288 0.960 . S
C302 H289 0.961 . S
C302 H290 0.959 . S
C302 C300 1.561 . S
C303 C300 1.526 . S
C303 C304 1.396 . S
C303 C308 1.390 . S
C304 C298 1.465 . S
C304 C303 1.396 . S
C304 C305 1.399 . S
C305 H291 0.929 . S
C305 C304 1.399 . S
C305 C306 1.385 . S
C306 H292 0.931 . S
C306 C305 1.385 . S
C306 C307 1.389 . S
C307 C306 1.389 . S
C307 C308 1.387 . S
C308 H293 0.930 . S
C308 C303 1.390 . S
C308 C307 1.387 . S
H309 C321 0.930 . S
H310 C323 0.930 . S
H311 C324 0.930 . S
H312 C328 0.959 . S
H313 C328 0.959 . S
H314 C328 0.961 . S
H315 C329 0.965 . S
H316 C329 0.958 . S
H317 C329 0.948 1_455 S
H318 C332 0.929 . S
H319 C333 0.931 . S
H320 C335 0.930 . S
C321 H309 0.930 . S
C321 C322 1.399 1_655 S
C321 C326 1.399 . S
C322 C321 1.399 1_455 S
C322 C323 1.376 . S
C323 H310 0.930 . S
C323 C322 1.376 . S
C323 C324 1.388 . S
C324 H311 0.930 . S
C324 C323 1.388 . S
C324 C325 1.390 . S
C325 C324 1.390 . S
C325 C326 1.394 1_455 S
C325 C331 1.465 . S
C326 C321 1.399 . S
C326 C325 1.394 1_655 S
C326 C327 1.516 . S
C327 C326 1.516 . S
C327 C328 1.502 . S
C327 C329 1.571 . S
C327 C330 1.526 . S
C328 H312 0.959 . S
C328 H313 0.959 . S
C328 H314 0.961 . S
C328 C327 1.502 . S
C329 H315 0.965 . S
C329 H316 0.958 . S
C329 H317 0.948 1_655 S
C329 C327 1.571 . S
C330 C327 1.526 . S
C330 C331 1.396 1_655 S
C330 C335 1.390 . S
C331 C325 1.465 . S
C331 C330 1.396 1_455 S
C331 C332 1.399 . S
C332 H318 0.929 . S
C332 C331 1.399 . S
C332 C333 1.385 . S
C333 H319 0.931 . S
C333 C332 1.385 . S
C333 C334 1.389 . S
C334 C333 1.389 . S
C334 C335 1.387 1_455 S
C335 H320 0.930 . S
C335 C330 1.390 . S
C335 C334 1.387 1_655 S
H336 C348 0.930 . S
H337 C350 0.930 . S
H338 C351 0.930 . S
H339 C355 0.959 . S
H340 C355 0.959 . S
H341 C355 0.961 . S
H342 C356 0.960 . S
H343 C356 0.961 . S
H344 C356 0.959 . S
H345 C359 0.929 . S
H346 C360 0.931 . S
H347 C362 0.930 . S
C348 H336 0.930 . S
C348 C349 1.399 1_545 S
C348 C353 1.399 . S
C349 C348 1.399 1_565 S
C349 C350 1.376 . S
C350 H337 0.930 . S
C350 C349 1.376 . S
C350 C351 1.388 . S
C351 H338 0.930 . S
C351 C350 1.388 . S
C351 C352 1.390 . S
C352 C351 1.390 . S
C352 C353 1.394 1_565 S
C352 C358 1.465 . S
C353 C348 1.399 . S
C353 C352 1.394 1_545 S
C353 C354 1.516 . S
C354 C353 1.516 . S
C354 C355 1.502 . S
C354 C356 1.561 . S
C354 C357 1.526 . S
C355 H339 0.959 . S
C355 H340 0.959 . S
C355 H341 0.961 . S
C355 C354 1.502 . S
C356 H342 0.960 . S
C356 H343 0.961 . S
C356 H344 0.959 . S
C356 C354 1.561 . S
C357 C354 1.526 . S
C357 C358 1.396 1_545 S
C357 C362 1.390 . S
C358 C352 1.465 . S
C358 C357 1.396 1_565 S
C358 C359 1.399 . S
C359 H345 0.929 . S
C359 C358 1.399 . S
C359 C360 1.385 . S
C360 H346 0.931 . S
C360 C359 1.385 . S
C360 C361 1.389 . S
C361 C360 1.389 . S
C361 C362 1.387 1_565 S
C362 H347 0.930 . S
C362 C357 1.390 . S
C362 C361 1.387 1_545 S
H363 C375 0.930 . S
H364 C377 0.930 . S
H365 C378 0.930 . S
H366 C382 0.959 . S
H367 C382 0.959 . S
H368 C382 0.961 . S
H369 C383 0.960 . S
H370 C383 0.961 . S
H371 C383 0.959 . S
H372 C386 0.929 . S
H373 C387 0.931 . S
H374 C389 0.930 . S
C375 H363 0.930 . S
C375 C376 1.399 . S
C375 C380 1.399 . S
C376 C375 1.399 . S
C376 C377 1.376 . S
C377 H364 0.930 . S
C377 C376 1.376 . S
C377 C378 1.388 . S
C378 H365 0.930 . S
C378 C377 1.388 . S
C378 C379 1.390 . S
C379 C378 1.390 . S
C379 C380 1.394 . S
C379 C385 1.465 . S
C380 C375 1.399 . S
C380 C379 1.394 . S
C380 C381 1.516 . S
C381 C380 1.516 . S
C381 C382 1.502 . S
C381 C383 1.561 . S
C381 C384 1.526 . S
C382 H366 0.959 . S
C382 H367 0.959 . S
C382 H368 0.961 . S
C382 C381 1.502 . S
C383 H369 0.960 . S
C383 H370 0.961 . S
C383 H371 0.959 . S
C383 C381 1.561 . S
C384 C381 1.526 . S
C384 C385 1.396 . S
C384 C389 1.390 . S
C385 C379 1.465 . S
C385 C384 1.396 . S
C385 C386 1.399 . S
C386 H372 0.929 . S
C386 C385 1.399 . S
C386 C387 1.385 . S
C387 H373 0.931 . S
C387 C386 1.385 . S
C387 C388 1.389 . S
C388 C387 1.389 . S
C388 C389 1.387 . S
C389 H374 0.930 . S
C389 C384 1.390 . S
C389 C388 1.387 . S
H390 C402 0.930 . S
H391 C404 0.930 . S
H392 C405 0.930 . S
H393 C409 0.959 . S
H394 C409 0.959 . S
H395 C409 0.961 . S
H396 C410 0.960 . S
H397 C410 0.961 . S
H398 C410 0.959 . S
H399 C413 0.929 . S
H400 C414 0.931 . S
H401 C416 0.930 . S
C402 H390 0.930 . S
C402 C403 1.399 . S
C402 C407 1.399 . S
C403 C402 1.399 . S
C403 C404 1.376 1_565 S
C404 H391 0.930 . S
C404 C403 1.376 1_545 S
C404 C405 1.388 . S
C405 H392 0.930 . S
C405 C404 1.388 . S
C405 C406 1.390 . S
C406 C405 1.390 . S
C406 C407 1.394 1_545 S
C406 C412 1.465 . S
C407 C402 1.399 . S
C407 C406 1.394 1_565 S
C407 C408 1.516 . S
C408 C407 1.516 . S
C408 C409 1.502 . S
C408 C410 1.561 . S
C408 C411 1.526 . S
C409 H393 0.959 . S
C409 H394 0.959 . S
C409 H395 0.961 . S
C409 C408 1.502 . S
C410 H396 0.960 . S
C410 H397 0.961 . S
C410 H398 0.959 . S
C410 C408 1.561 . S
C411 C408 1.526 . S
C411 C412 1.396 1_565 S
C411 C416 1.390 . S
C412 C406 1.465 . S
C412 C411 1.396 1_545 S
C412 C413 1.399 . S
C413 H399 0.929 . S
C413 C412 1.399 . S
C413 C414 1.385 . S
C414 H400 0.931 . S
C414 C413 1.385 . S
C414 C415 1.389 . S
C415 C414 1.389 . S
C415 C416 1.387 1_545 S
C416 H401 0.930 . S
C416 C411 1.390 . S
C416 C415 1.387 1_565 S
H417 C429 0.930 1_554 S
H418 C431 0.930 . S
H419 C432 0.930 . S
H420 C436 0.967 . S
H421 C436 0.957 1_554 S
H422 C436 0.946 1_554 S
H423 C437 0.960 1_554 S
H424 C437 0.961 . S
H425 C437 0.959 . S
H426 C440 0.929 . S
H427 C441 0.931 . S
H428 C443 0.930 . S
C429 H417 0.930 1_556 S
C429 C430 1.399 . S
C429 C434 1.399 . S
C430 C429 1.399 . S
C430 C431 1.376 . S
C431 H418 0.930 . S
C431 C430 1.376 . S
C431 C432 1.388 . S
C432 H419 0.930 . S
C432 C431 1.388 . S
C432 C433 1.390 . S
C433 C432 1.390 . S
C433 C434 1.394 . S
C433 C439 1.465 . S
C434 C429 1.399 . S
C434 C433 1.394 . S
C434 C435 1.516 . S
C435 C434 1.516 . S
C435 C436 1.511 . S
C435 C437 1.561 . S
C435 C438 1.526 . S
C436 H420 0.967 . S
C436 H421 0.957 1_556 S
C436 H422 0.946 1_556 S
C436 C435 1.511 . S
C437 H423 0.960 1_556 S
C437 H424 0.961 . S
C437 H425 0.959 . S
C437 C435 1.561 . S
C438 C435 1.526 . S
C438 C439 1.396 . S
C438 C443 1.390 . S
C439 C433 1.465 . S
C439 C438 1.396 . S
C439 C440 1.399 . S
C440 H426 0.929 . S
C440 C439 1.399 . S
C440 C441 1.385 . S
C441 H427 0.931 . S
C441 C440 1.385 . S
C441 C442 1.389 . S
C442 C441 1.389 . S
C442 C443 1.387 . S
C443 H428 0.930 . S
C443 C438 1.390 . S
C443 C442 1.387 . S
H444 C456 0.930 . S
H445 C458 0.930 . S
H446 C459 0.930 . S
H447 C463 0.959 1_455 S
H448 C463 0.959 . S
H449 C463 0.961 . S
H450 C464 0.960 . S
H451 C464 0.961 . S
H452 C464 0.959 . S
H453 C467 0.929 . S
H454 C468 0.931 . S
H455 C470 0.930 . S
C456 H444 0.930 . S
C456 C457 1.399 1_655 S
C456 C461 1.399 . S
C457 C456 1.399 1_455 S
C457 C458 1.376 . S
C458 H445 0.930 . S
C458 C457 1.376 . S
C458 C459 1.388 . S
C459 H446 0.930 . S
C459 C458 1.388 . S
C459 C460 1.390 . S
C460 C459 1.390 . S
C460 C461 1.394 1_455 S
C460 C466 1.465 . S
C461 C456 1.399 . S
C461 C460 1.394 1_655 S
C461 C462 1.516 . S
C462 C461 1.516 . S
C462 C463 1.502 . S
C462 C464 1.561 . S
C462 C465 1.526 . S
C463 H447 0.959 1_655 S
C463 H448 0.959 . S
C463 H449 0.961 . S
C463 C462 1.502 . S
C464 H450 0.960 . S
C464 H451 0.961 . S
C464 H452 0.959 . S
C464 C462 1.561 . S
C465 C462 1.526 . S
C465 C466 1.396 1_655 S
C465 C470 1.390 . S
C466 C460 1.465 . S
C466 C465 1.396 1_455 S
C466 C467 1.399 . S
C467 H453 0.929 . S
C467 C466 1.399 . S
C467 C468 1.385 . S
C468 H454 0.931 . S
C468 C467 1.385 . S
C468 C469 1.389 . S
C469 C468 1.389 . S
C469 C470 1.387 1_455 S
C470 H455 0.930 . S
C470 C465 1.390 . S
C470 C469 1.387 1_655 S
H471 C483 0.930 . S
H472 C485 0.930 . S
H473 C486 0.930 . S
H474 C490 0.959 . S
H475 C490 0.959 . S
H476 C490 0.961 . S
H477 C491 0.960 . S
H478 C491 0.961 . S
H479 C491 0.959 . S
H480 C494 0.929 . S
H481 C495 0.931 . S
H482 C497 0.930 . S
C483 H471 0.930 . S
C483 C484 1.399 1_565 S
C483 C488 1.399 . S
C484 C483 1.399 1_545 S
C484 C485 1.376 . S
C485 H472 0.930 . S
C485 C484 1.376 . S
C485 C486 1.388 . S
C486 H473 0.930 . S
C486 C485 1.388 . S
C486 C487 1.390 . S
C487 C486 1.390 . S
C487 C488 1.394 1_545 S
C487 C493 1.465 . S
C488 C483 1.399 . S
C488 C487 1.394 1_565 S
C488 C489 1.516 . S
C489 C488 1.516 . S
C489 C490 1.502 . S
C489 C491 1.561 . S
C489 C492 1.526 . S
C490 H474 0.959 . S
C490 H475 0.959 . S
C490 H476 0.961 . S
C490 C489 1.502 . S
C491 H477 0.960 . S
C491 H478 0.961 . S
C491 H479 0.959 . S
C491 C489 1.561 . S
C492 C489 1.526 . S
C492 C493 1.396 1_565 S
C492 C497 1.390 . S
C493 C487 1.465 . S
C493 C492 1.396 1_545 S
C493 C494 1.399 . S
C494 H480 0.929 . S
C494 C493 1.399 . S
C494 C495 1.385 . S
C495 H481 0.931 . S
C495 C494 1.385 . S
C495 C496 1.389 . S
C496 C495 1.389 . S
C496 C497 1.387 1_545 S
C497 H482 0.930 . S
C497 C492 1.390 . S
C497 C496 1.387 1_565 S
H498 C510 0.930 . S
H499 C512 0.930 . S
H500 C513 0.930 1_554 S
H501 C517 0.959 . S
H502 C517 0.959 . S
H503 C517 0.961 . S
H504 C518 0.960 . S
H505 C518 0.961 . S
H506 C518 0.959 . S
H507 C521 0.929 . S
H508 C522 0.931 . S
H509 C524 0.930 . S
C510 H498 0.930 . S
C510 C511 1.399 . S
C510 C515 1.399 . S
C511 C510 1.399 . S
C511 C512 1.376 1_556 S
C512 H499 0.930 . S
C512 C511 1.376 1_554 S
C512 C513 1.388 1_554 S
C513 H500 0.930 1_556 S
C513 C512 1.388 1_556 S
C513 C514 1.390 . S
C514 C513 1.390 . S
C514 C515 1.394 . S
C514 C520 1.465 . S
C515 C510 1.399 . S
C515 C514 1.394 . S
C515 C516 1.516 . S
C516 C515 1.516 . S
C516 C517 1.502 . S
C516 C518 1.561 . S
C516 C519 1.526 . S
C517 H501 0.959 . S
C517 H502 0.959 . S
C517 H503 0.961 . S
C517 C516 1.502 . S
C518 H504 0.960 . S
C518 H505 0.961 . S
C518 H506 0.959 . S
C518 C516 1.561 . S
C519 C516 1.526 . S
C519 C520 1.396 . S
C519 C524 1.390 . S
C520 C514 1.465 . S
C520 C519 1.396 . S
C520 C521 1.399 . S
C521 H507 0.929 . S
C521 C520 1.399 . S
C521 C522 1.385 . S
C522 H508 0.931 . S
C522 C521 1.385 . S
C522 C523 1.389 . S
C523 C522 1.389 . S
C523 C524 1.387 . S
C524 H509 0.930 . S
C524 C519 1.390 . S
C524 C523 1.387 . S
H525 C537 0.930 . S
H526 C539 0.930 . S
H527 C540 0.930 . S
H528 C544 0.959 . S
H529 C544 0.959 . S
H530 C544 0.961 . S
H531 C545 0.960 . S
H532 C545 0.961 . S
H533 C545 0.959 . S
H534 C548 0.929 . S
H535 C549 0.931 . S
H536 C551 0.930 . S
C537 H525 0.930 . S
C537 C538 1.399 . S
C537 C542 1.399 . S
C538 C537 1.399 . S
C538 C539 1.376 1_655 S
C539 H526 0.930 . S
C539 C538 1.376 1_455 S
C539 C540 1.388 . S
C540 H527 0.930 . S
C540 C539 1.388 . S
C540 C541 1.390 . S
C541 C540 1.390 . S
C541 C542 1.394 1_455 S
C541 C547 1.465 . S
C542 C537 1.399 . S
C542 C541 1.394 1_655 S
C542 C543 1.516 . S
C543 C542 1.516 . S
C543 C544 1.502 . S
C543 C545 1.561 1_655 S
C543 C546 1.524 . S
C544 H528 0.959 . S
C544 H529 0.959 . S
C544 H530 0.961 . S
C544 C543 1.502 . S
C545 H531 0.960 . S
C545 H532 0.961 . S
C545 H533 0.959 . S
C545 C543 1.561 1_455 S
C546 C543 1.524 . S
C546 C547 1.389 1_655 S
C546 C551 1.397 . S
C547 C541 1.465 . S
C547 C546 1.389 1_455 S
C547 C548 1.399 . S
C548 H534 0.929 . S
C548 C547 1.399 . S
C548 C549 1.385 . S
C549 H535 0.931 . S
C549 C548 1.385 . S
C549 C550 1.402 . S
C550 C549 1.402 . S
C550 C551 1.387 1_455 S
C551 H536 0.930 . S
C551 C546 1.397 . S
C551 C550 1.387 1_655 S
C253 C95 1.369 1_455 S
C241 C6 1.352 1_455 S
C268 C22 1.517 . S
C280 C139 1.544 . S
C295 C34 1.172 . S
C307 C201 1.140 . S
C322 C7 1.338 . S
C334 C77 1.343 1_455 S
C361 C157 1.559 1_565 S
C349 C23 1.511 . S
C376 C35 1.150 . S
C388 C219 1.139 . S
C415 C133 1.729 . S
C403 C36 1.806 . S
C430 C9 2.069 1_556 S
C442 C195 1.935 . S
C469 C71 1.560 1_455 S
C457 C21 1.694 1_455 S
C496 C151 1.690 . S
C484 C37 1.793 . S
C523 C213 1.994 . S
C511 C8 2.022 1_556 S
C538 C20 1.677 1_655 S
C550 C89 1.541 1_455 S
