# Generated by pormake.
# Topology dag, (6,3)-cn, num edge types: 1
# Building blocks:
#     Node 0, Type 0, BuildingBlock: OJICUG_clean_sbu_0, # of connection points: 6
#     Node 1, Type 0, BuildingBlock: OJICUG_clean_sbu_0, # of connection points: 6
#     Node 2, Type 0, BuildingBlock: OJICUG_clean_sbu_0, # of connection points: 6
#     Node 3, Type 0, BuildingBlock: OJICUG_clean_sbu_0, # of connection points: 6
#     Node 4, Type 1, BuildingBlock: KAKCAD_clean_linker_0, # of connection points: 3
#     Node 5, Type 1, BuildingBlock: KAKCAD_clean_linker_0, # of connection points: 3
#     Node 6, Type 1, BuildingBlock: KAKCAD_clean_linker_0, # of connection points: 3
#     Node 7, Type 1, BuildingBlock: KAKCAD_clean_linker_0, # of connection points: 3
#     Node 8, Type 1, BuildingBlock: KAKCAD_clean_linker_0, # of connection points: 3
#     Node 9, Type 1, BuildingBlock: KAKCAD_clean_linker_0, # of connection points: 3
#     Node 10, Type 1, BuildingBlock: KAKCAD_clean_linker_0, # of connection points: 3
#     Node 11, Type 1, BuildingBlock: KAKCAD_clean_linker_0, # of connection points: 3
#     Edge 12, Type (0, 1), BuildingBlock: KIFKEQ_clean_linker_1, # of connection points: 2
#     Edge 13, Type (0, 1), BuildingBlock: KIFKEQ_clean_linker_1, # of connection points: 2
#     Edge 14, Type (0, 1), BuildingBlock: KIFKEQ_clean_linker_1, # of connection points: 2
#     Edge 15, Type (0, 1), BuildingBlock: KIFKEQ_clean_linker_1, # of connection points: 2
#     Edge 16, Type (0, 1), BuildingBlock: KIFKEQ_clean_linker_1, # of connection points: 2
#     Edge 17, Type (0, 1), BuildingBlock: KIFKEQ_clean_linker_1, # of connection points: 2
#     Edge 18, Type (0, 1), BuildingBlock: KIFKEQ_clean_linker_1, # of connection points: 2
#     Edge 19, Type (0, 1), BuildingBlock: KIFKEQ_clean_linker_1, # of connection points: 2
#     Edge 20, Type (0, 1), BuildingBlock: KIFKEQ_clean_linker_1, # of connection points: 2
#     Edge 21, Type (0, 1), BuildingBlock: KIFKEQ_clean_linker_1, # of connection points: 2
#     Edge 22, Type (0, 1), BuildingBlock: KIFKEQ_clean_linker_1, # of connection points: 2
#     Edge 23, Type (0, 1), BuildingBlock: KIFKEQ_clean_linker_1, # of connection points: 2
#     Edge 24, Type (0, 1), BuildingBlock: KIFKEQ_clean_linker_1, # of connection points: 2
#     Edge 25, Type (0, 1), BuildingBlock: KIFKEQ_clean_linker_1, # of connection points: 2
#     Edge 26, Type (0, 1), BuildingBlock: KIFKEQ_clean_linker_1, # of connection points: 2
#     Edge 27, Type (0, 1), BuildingBlock: KIFKEQ_clean_linker_1, # of connection points: 2
#     Edge 28, Type (0, 1), BuildingBlock: KIFKEQ_clean_linker_1, # of connection points: 2
#     Edge 29, Type (0, 1), BuildingBlock: KIFKEQ_clean_linker_1, # of connection points: 2
#     Edge 30, Type (0, 1), BuildingBlock: KIFKEQ_clean_linker_1, # of connection points: 2
#     Edge 31, Type (0, 1), BuildingBlock: KIFKEQ_clean_linker_1, # of connection points: 2
#     Edge 32, Type (0, 1), BuildingBlock: KIFKEQ_clean_linker_1, # of connection points: 2
#     Edge 33, Type (0, 1), BuildingBlock: KIFKEQ_clean_linker_1, # of connection points: 2
#     Edge 34, Type (0, 1), BuildingBlock: KIFKEQ_clean_linker_1, # of connection points: 2
#     Edge 35, Type (0, 1), BuildingBlock: KIFKEQ_clean_linker_1, # of connection points: 2
# Relax obj value: 0.252
# Max RMSD: 0.199
# Mean RMSD: 0.164
data_MOF--net-dag--node1-OJICUG_clean_sbu_0--node2-KAKCAD_clean_linker_0--edge1-KIFKEQ_clean_linker_1
_symmetry_space_group_name_H-M    P1
_symmetry_Int_Tables_number       1
_symmetry_cell_setting            triclinic
loop_
_symmetry_equiv_pos_as_xyz
'x, y, z'
_cell_length_a     44.642082
_cell_length_b     46.699608
_cell_length_c     45.864906
_cell_angle_alpha  95.155489
_cell_angle_beta   90.1137
_cell_angle_gamma 90.031412
loop_
_atom_site_label
_atom_site_type_symbol
_atom_site_fract_x
_atom_site_fract_y
_atom_site_fract_z
_atom_type_partial_charge
Sc0 Sc 0.12343 0.8582 0.03909 0.0
Sc1 Sc 0.13889 0.78451 0.04025 0.0
Sc2 Sc 0.1884 0.83648 0.07457 0.0
O3 O 0.15025 0.82636 0.05133 0.0
C4 C 0.18789 0.88541 0.03015 0.0
C5 C 0.12288 0.81367 0.9819 0.0
C6 C 0.21012 0.78434 0.03039 0.0
C7 C 0.07477 0.8122 0.0555 0.0
C8 C 0.14156 0.88154 0.10439 0.0
C9 C 0.16395 0.78194 0.10487 0.0
O10 O 0.16018 0.88264 0.02427 0.0
O11 O 0.13021 0.79181 0.99501 0.0
O12 O 0.21524 0.80773 0.04604 0.0
O13 O 0.08321 0.8377 0.05228 0.0
O14 O 0.16502 0.86617 0.10557 0.0
O15 O 0.14632 0.77295 0.08422 0.0
O16 O 0.12504 0.88115 0.08175 0.0
O17 O 0.09223 0.79071 0.05163 0.0
O18 O 0.18096 0.80363 0.10367 0.0
O19 O 0.11931 0.83849 0.99522 0.0
O20 O 0.20109 0.87066 0.04828 0.0
O21 O 0.18411 0.77328 0.02738 0.0
Sc22 Sc 0.69026 0.67091 0.47149 0.0
Sc23 Sc 0.63643 0.72035 0.50261 0.0
Sc24 Sc 0.62176 0.64605 0.49734 0.0
O25 O 0.64952 0.67914 0.4905 0.0
C26 C 0.64887 0.62537 0.4345 0.0
C27 C 0.6681 0.72633 0.44121 0.0
C28 C 0.57536 0.69211 0.47714 0.0
C29 C 0.70605 0.72191 0.51993 0.0
C30 C 0.68524 0.62044 0.51386 0.0
C31 C 0.61267 0.6877 0.556 0.0
O32 O 0.67221 0.641 0.43724 0.0
O33 O 0.64893 0.73442 0.46074 0.0
O34 O 0.58385 0.66647 0.47942 0.0
O35 O 0.71304 0.69969 0.50332 0.0
O36 O 0.65687 0.62189 0.51593 0.0
O37 O 0.62252 0.71027 0.54566 0.0
O38 O 0.70034 0.63644 0.49832 0.0
O39 O 0.67959 0.73204 0.52146 0.0
O40 O 0.61063 0.66358 0.5409 0.0
O41 O 0.68484 0.70447 0.44269 0.0
O42 O 0.62921 0.6249 0.45444 0.0
O43 O 0.59143 0.71386 0.4854 0.0
Sc44 Sc 0.86194 0.21923 0.00565 0.0
Sc45 Sc 0.81778 0.1645 0.96809 0.0
Sc46 Sc 0.88051 0.14611 0.00851 0.0
O47 O 0.85339 0.17668 0.9941 0.0
C48 C 0.92812 0.19487 0.996 0.0
C49 C 0.84189 0.21987 0.93895 0.0
C50 C 0.86939 0.12222 0.94205 0.0
C51 C 0.79047 0.21594 0.01025 0.0
C52 C 0.87455 0.19033 0.06528 0.0
C53 C 0.81683 0.11528 0.01175 0.0
O54 O 0.90936 0.21539 0.99641 0.0
O55 O 0.82737 0.19644 0.93858 0.0
O56 O 0.88504 0.12433 0.96536 0.0
O57 O 0.81555 0.22811 0.01616 0.0
O58 O 0.87825 0.16514 0.05282 0.0
O59 O 0.80371 0.1307 0.9942 0.0
O60 O 0.86944 0.21216 0.05122 0.0
O61 O 0.78783 0.19276 0.99365 0.0
O62 O 0.84427 0.11848 0.01851 0.0
O63 O 0.85557 0.23103 0.96155 0.0
O64 O 0.92059 0.16942 0.00044 0.0
O65 O 0.84444 0.13506 0.9399 0.0
Sc66 Sc 0.36856 0.35278 0.53801 0.0
Sc67 Sc 0.3062 0.33084 0.57649 0.0
Sc68 Sc 0.35471 0.27889 0.54142 0.0
O69 O 0.34321 0.32077 0.55195 0.0
C70 C 0.36847 0.30681 0.48191 0.0
C71 C 0.30392 0.37933 0.53164 0.0
C72 C 0.28315 0.27896 0.53316 0.0
C73 C 0.35351 0.37593 0.60437 0.0
C74 C 0.41869 0.30824 0.5544 0.0
C75 C 0.33131 0.27603 0.60609 0.0
O76 O 0.37211 0.33196 0.49448 0.0
O77 O 0.29278 0.3661 0.55205 0.0
O78 O 0.30877 0.26692 0.53068 0.0
O79 O 0.36766 0.37699 0.5804 0.0
O80 O 0.40174 0.28626 0.55107 0.0
O81 O 0.31362 0.29712 0.60458 0.0
O82 O 0.40947 0.33349 0.55111 0.0
O83 O 0.33138 0.35919 0.60712 0.0
O84 O 0.34948 0.26778 0.58578 0.0
O85 O 0.33066 0.37551 0.52285 0.0
O86 O 0.36167 0.28529 0.49577 0.0
O87 O 0.27879 0.30315 0.54759 0.0
C88 C 0.97011 0.19521 0.28131 0.0
C89 C 0.94667 0.17897 0.2675 0.0
C90 C 0.98946 0.18294 0.30073 0.0
C91 C 0.98568 0.1542 0.30689 0.0
C92 C 0.96071 0.13886 0.29513 0.0
C93 C 0.94153 0.15102 0.27557 0.0
C94 C 0.00975 0.13913 0.32196 0.0
C95 C 0.02557 0.15286 0.34584 0.0
C96 C 0.05093 0.13981 0.35734 0.0
C97 C 0.06016 0.1127 0.34465 0.0
C98 C 0.04431 0.09858 0.32124 0.0
C99 C 0.01906 0.11175 0.3102 0.0
C100 C 0.05564 0.07135 0.30629 0.0
C101 C 0.08533 0.06945 0.29634 0.0
C102 C 0.03631 0.04791 0.29996 0.0
C103 C 0.04622 0.02334 0.28311 0.0
C104 C 0.07553 0.02195 0.27175 0.0
C105 C 0.0693 0.15505 0.38104 0.0
C106 C 0.07467 0.1848 0.38156 0.0
C107 C 0.08367 0.1395 0.40197 0.0
C108 C 0.10431 0.15293 0.42159 0.0
C109 C 0.11052 0.18232 0.42118 0.0
C110 C 0.09494 0.19834 0.4016 0.0
C111 C 0.09514 0.0451 0.27911 0.0
H112 H 0.97437 0.217 0.27609 0.0
H113 H 0.00848 0.19538 0.30938 0.0
H114 H 0.95687 0.11684 0.29985 0.0
H115 H 0.92389 0.1377 0.26537 0.0
H116 H 0.01828 0.17381 0.35523 0.0
H117 H 0.00787 0.10139 0.29107 0.0
H118 H 0.08029 0.1028 0.35233 0.0
H119 H 0.10057 0.0874 0.30068 0.0
H120 H 0.01337 0.0488 0.30767 0.0
H121 H 0.03069 0.00571 0.27847 0.0
H122 H 0.06435 0.19744 0.36561 0.0
H123 H 0.07954 0.11673 0.40273 0.0
H124 H 0.11768 0.04509 0.27044 0.0
H125 H 0.09955 0.22104 0.40083 0.0
H126 H 0.11585 0.14026 0.43677 0.0
C127 C 0.40153 0.5342 0.78304 0.0
C128 C 0.42291 0.51341 0.77328 0.0
C129 C 0.41003 0.55888 0.80051 0.0
C130 C 0.44016 0.56353 0.80847 0.0
C131 C 0.46137 0.54223 0.79993 0.0
C132 C 0.45281 0.51733 0.78268 0.0
C133 C 0.44956 0.59195 0.82257 0.0
C134 C 0.43245 0.60588 0.84518 0.0
C135 C 0.43737 0.63501 0.85456 0.0
C136 C 0.46062 0.64987 0.84173 0.0
C137 C 0.47829 0.63607 0.81935 0.0
C138 C 0.47286 0.60699 0.81026 0.0
C139 C 0.49897 0.65269 0.80196 0.0
C140 C 0.48926 0.67844 0.79135 0.0
C141 C 0.52652 0.64087 0.79221 0.0
C142 C 0.54277 0.6532 0.7705 0.0
C143 C 0.53168 0.67751 0.75806 0.0
C144 C 0.41595 0.65064 0.87502 0.0
C145 C 0.38506 0.64534 0.87191 0.0
C146 C 0.42579 0.67172 0.89678 0.0
C147 C 0.4051 0.68735 0.91477 0.0
C148 C 0.37419 0.68226 0.91125 0.0
C149 C 0.3645 0.66083 0.88986 0.0
C150 C 0.50545 0.6907 0.76958 0.0
H151 H 0.37843 0.53228 0.77591 0.0
H152 H 0.39324 0.57512 0.80633 0.0
H153 H 0.48472 0.54521 0.80596 0.0
H154 H 0.46978 0.50152 0.7761 0.0
H155 H 0.41445 0.59424 0.85469 0.0
H156 H 0.48504 0.59674 0.79174 0.0
H157 H 0.46392 0.67259 0.84799 0.0
H158 H 0.46804 0.68799 0.79825 0.0
H159 H 0.53466 0.62116 0.8002 0.0
H160 H 0.56284 0.64245 0.762 0.0
H161 H 0.37658 0.62965 0.85508 0.0
H162 H 0.44945 0.67621 0.8998 0.0
H163 H 0.49655 0.70963 0.76061 0.0
H164 H 0.34089 0.65602 0.88687 0.0
H165 H 0.41327 0.70382 0.93097 0.0
C166 C 0.83277 0.79386 0.08347 0.0
C167 C 0.85596 0.79359 0.10427 0.0
C168 C 0.80358 0.80112 0.09219 0.0
C169 C 0.7969 0.80809 0.1219 0.0
C170 C 0.81954 0.80565 0.14287 0.0
C171 C 0.84878 0.79851 0.13414 0.0
C172 C 0.76785 0.82167 0.13069 0.0
C173 C 0.75281 0.81458 0.1559 0.0
C174 C 0.72802 0.83077 0.1667 0.0
C175 C 0.71818 0.85418 0.15198 0.0
C176 C 0.73262 0.86111 0.12637 0.0
C177 C 0.75719 0.84456 0.11578 0.0
C178 C 0.72496 0.88754 0.11234 0.0
C179 C 0.72387 0.88698 0.08169 0.0
C180 C 0.7233 0.91413 0.12921 0.0
C181 C 0.72345 0.93978 0.11564 0.0
C182 C 0.7252 0.93922 0.08498 0.0
C183 C 0.71422 0.82451 0.19472 0.0
C184 C 0.70602 0.79627 0.19944 0.0
C185 C 0.71125 0.84636 0.21765 0.0
C186 C 0.70153 0.83984 0.24524 0.0
C187 C 0.69417 0.81143 0.25019 0.0
C188 C 0.69586 0.78982 0.22688 0.0
C189 C 0.72391 0.91257 0.06814 0.0
H190 H 0.83744 0.78959 0.06033 0.0
H191 H 0.78646 0.80246 0.0756 0.0
H192 H 0.81516 0.81119 0.16591 0.0
H193 H 0.8661 0.79874 0.15073 0.0
H194 H 0.76118 0.79721 0.16782 0.0
H195 H 0.76948 0.85093 0.09704 0.0
H196 H 0.69952 0.86714 0.1606 0.0
H197 H 0.72469 0.86673 0.06819 0.0
H198 H 0.7243 0.9152 0.15289 0.0
H199 H 0.7246 0.95995 0.12924 0.0
H200 H 0.70806 0.77909 0.18204 0.0
H201 H 0.71766 0.86827 0.21459 0.0
H202 H 0.72466 0.91148 0.04446 0.0
H203 H 0.69057 0.76771 0.23021 0.0
H204 H 0.70034 0.85686 0.26287 0.0
C205 C 0.64373 0.30283 0.63694 0.0
C206 C 0.63751 0.29883 0.60677 0.0
C207 C 0.67243 0.31074 0.64689 0.0
C208 C 0.69547 0.31493 0.62688 0.0
C209 C 0.68976 0.30923 0.59679 0.0
C210 C 0.66112 0.30114 0.58684 0.0
C211 C 0.72421 0.32824 0.63723 0.0
C212 C 0.73885 0.31939 0.66195 0.0
C213 C 0.76427 0.33415 0.67352 0.0
C214 C 0.77519 0.35788 0.65998 0.0
C215 C 0.76048 0.36731 0.63546 0.0
C216 C 0.73529 0.35205 0.62404 0.0
C217 C 0.76848 0.39508 0.62394 0.0
C218 C 0.77421 0.41955 0.64331 0.0
C219 C 0.76639 0.39825 0.59382 0.0
C220 C 0.76723 0.42552 0.58359 0.0
C221 C 0.77044 0.45024 0.60325 0.0
C222 C 0.77788 0.32615 0.70112 0.0
C223 C 0.75954 0.32204 0.72522 0.0
C224 C 0.80903 0.32284 0.70373 0.0
C225 C 0.82151 0.31495 0.72985 0.0
C226 C 0.80308 0.31073 0.75391 0.0
C227 C 0.77201 0.31452 0.75136 0.0
C228 C 0.77529 0.44682 0.63305 0.0
H229 H 0.62605 0.30154 0.6529 0.0
H230 H 0.6761 0.31526 0.6702 0.0
H231 H 0.70723 0.31192 0.58091 0.0
H232 H 0.65724 0.29763 0.56348 0.0
H233 H 0.73022 0.3012 0.67244 0.0
H234 H 0.7229 0.35994 0.60606 0.0
H235 H 0.79434 0.36972 0.6693 0.0
H236 H 0.77586 0.41795 0.66666 0.0
H237 H 0.76248 0.37975 0.57827 0.0
H238 H 0.76332 0.42724 0.56051 0.0
H239 H 0.73549 0.3248 0.72391 0.0
H240 H 0.82362 0.3259 0.68542 0.0
H241 H 0.77845 0.46536 0.64871 0.0
H242 H 0.75722 0.31106 0.76942 0.0
H243 H 0.84555 0.31221 0.73128 0.0
C244 C 0.59973 0.46384 0.25233 0.0
C245 C 0.60898 0.46468 0.28171 0.0
C246 C 0.58831 0.43842 0.23799 0.0
C247 C 0.58544 0.41364 0.25301 0.0
C248 C 0.5952 0.41437 0.28217 0.0
C249 C 0.60699 0.43957 0.29633 0.0
C250 C 0.57134 0.38728 0.23882 0.0
C251 C 0.5818 0.37469 0.21187 0.0
C252 C 0.56945 0.34869 0.19909 0.0
C253 C 0.54561 0.33601 0.21349 0.0
C254 C 0.53561 0.34809 0.24085 0.0
C255 C 0.54839 0.37378 0.25321 0.0
C256 C 0.51366 0.33296 0.25806 0.0
C257 C 0.48507 0.32563 0.24697 0.0
C258 C 0.52104 0.32718 0.28669 0.0
C259 C 0.49992 0.31529 0.30437 0.0
C260 C 0.47082 0.30906 0.29392 0.0
C261 C 0.58377 0.33346 0.17268 0.0
C262 C 0.59792 0.34894 0.15163 0.0
C263 C 0.58592 0.30327 0.16974 0.0
C264 C 0.60304 0.28915 0.14743 0.0
C265 C 0.61921 0.3048 0.12786 0.0
C266 C 0.6157 0.33486 0.12977 0.0
C267 C 0.46366 0.31399 0.26488 0.0
H268 H 0.60111 0.4829 0.24057 0.0
H269 H 0.58088 0.43834 0.21548 0.0
H270 H 0.59344 0.39546 0.29413 0.0
H271 H 0.61361 0.43967 0.31908 0.0
H272 H 0.60077 0.38444 0.20188 0.0
H273 H 0.54055 0.38322 0.27429 0.0
H274 H 0.53559 0.31612 0.20417 0.0
H275 H 0.47896 0.32993 0.22491 0.0
H276 H 0.54305 0.33248 0.29563 0.0
H277 H 0.50605 0.31221 0.32674 0.0
H278 H 0.59616 0.37212 0.15256 0.0
H279 H 0.57565 0.2904 0.18547 0.0
H280 H 0.44141 0.30935 0.25627 0.0
H281 H 0.62774 0.34783 0.11528 0.0
H282 H 0.60431 0.26593 0.14619 0.0
C283 C 0.15364 0.20916 0.92213 0.0
C284 C 0.14755 0.21276 0.95232 0.0
C285 C 0.1822 0.20117 0.91207 0.0
C286 C 0.2053 0.19644 0.93193 0.0
C287 C 0.19976 0.20164 0.96207 0.0
C288 C 0.17123 0.20988 0.97216 0.0
C289 C 0.2338 0.18304 0.92114 0.0
C290 C 0.24781 0.192 0.89621 0.0
C291 C 0.27176 0.1763 0.8829 0.0
C292 C 0.28256 0.15204 0.89567 0.0
C293 C 0.26878 0.14268 0.9207 0.0
C294 C 0.24461 0.15859 0.9334 0.0
C295 C 0.27631 0.11428 0.93124 0.0
C296 C 0.28192 0.09033 0.91115 0.0
C297 C 0.2742 0.11005 0.96114 0.0
C298 C 0.27476 0.08235 0.97037 0.0
C299 C 0.27793 0.0582 0.94996 0.0
C300 C 0.28278 0.18313 0.85378 0.0
C301 C 0.26213 0.18985 0.83228 0.0
C302 C 0.31343 0.18183 0.84671 0.0
C303 C 0.32314 0.1872 0.81867 0.0
C304 C 0.30232 0.19372 0.79719 0.0
C305 C 0.27177 0.19519 0.80445 0.0
C306 C 0.28297 0.06267 0.92044 0.0
H307 H 0.13596 0.21077 0.90618 0.0
H308 H 0.18567 0.19697 0.8887 0.0
H309 H 0.21726 0.19846 0.97785 0.0
H310 H 0.16748 0.21304 0.99555 0.0
H311 H 0.23931 0.21073 0.88654 0.0
H312 H 0.23256 0.15068 0.95153 0.0
H313 H 0.30062 0.13957 0.88517 0.0
H314 H 0.28358 0.09259 0.88792 0.0
H315 H 0.27054 0.12807 0.97732 0.0
H316 H 0.27073 0.07991 0.99328 0.0
H317 H 0.23831 0.1905 0.83676 0.0
H318 H 0.32988 0.17675 0.86285 0.0
H319 H 0.28627 0.04466 0.90419 0.0
H320 H 0.25517 0.2007 0.78863 0.0
H321 H 0.34683 0.18588 0.81371 0.0
C322 C 0.33814 0.71238 0.41921 0.0
C323 C 0.36096 0.69157 0.41626 0.0
C324 C 0.30807 0.70426 0.41493 0.0
C325 C 0.30047 0.67518 0.40837 0.0
C326 C 0.32334 0.6545 0.40566 0.0
C327 C 0.3532 0.6626 0.40945 0.0
C328 C 0.26902 0.66588 0.40339 0.0
C329 C 0.25147 0.67769 0.38206 0.0
C330 C 0.22407 0.66485 0.37294 0.0
C331 C 0.2139 0.64059 0.38609 0.0
C332 C 0.23084 0.62934 0.40809 0.0
C333 C 0.25816 0.64213 0.4168 0.0
C334 C 0.22298 0.60157 0.41879 0.0
C335 C 0.21129 0.60027 0.44695 0.0
C336 C 0.23134 0.57619 0.40227 0.0
C337 C 0.2297 0.54988 0.41436 0.0
C338 C 0.21936 0.54842 0.4432 0.0
C339 C 0.20845 0.67439 0.34701 0.0
C340 C 0.2037 0.70375 0.34423 0.0
C341 C 0.20066 0.65419 0.32365 0.0
C342 C 0.18978 0.66327 0.29746 0.0
C343 C 0.18615 0.69267 0.29426 0.0
C344 C 0.19242 0.71281 0.31813 0.0
C345 C 0.20914 0.57385 0.45895 0.0
H346 H 0.3436 0.73485 0.42446 0.0
H347 H 0.29078 0.72057 0.41703 0.0
H348 H 0.31814 0.63198 0.40021 0.0
H349 H 0.37028 0.64607 0.40741 0.0
H350 H 0.26032 0.69533 0.37084 0.0
H351 H 0.27184 0.63248 0.43287 0.0
H352 H 0.19336 0.6299 0.37859 0.0
H353 H 0.20489 0.61978 0.46002 0.0
H354 H 0.24083 0.57695 0.38062 0.0
H355 H 0.23831 0.53103 0.40165 0.0
H356 H 0.20947 0.71972 0.36196 0.0
H357 H 0.20439 0.63144 0.32508 0.0
H358 H 0.20051 0.57353 0.48096 0.0
H359 H 0.19003 0.73563 0.3161 0.0
H360 H 0.18503 0.64735 0.27938 0.0
C361 C 0.06157 0.82973 0.75498 0.0
C362 C 0.05211 0.81188 0.77642 0.0
C363 C 0.04071 0.84153 0.73669 0.0
C364 C 0.01022 0.83488 0.73877 0.0
C365 C 0.00116 0.81458 0.75768 0.0
C366 C 0.02183 0.80334 0.77648 0.0
C367 C 0.98733 0.85297 0.72619 0.0
C368 C 0.96484 0.84075 0.70773 0.0
C369 C 0.94027 0.85736 0.69998 0.0
C370 C 0.93808 0.88617 0.7118 0.0
C371 C 0.96015 0.8985 0.73096 0.0
C372 C 0.98533 0.88195 0.73693 0.0
C373 C 0.95523 0.92713 0.74745 0.0
C374 C 0.93993 0.94935 0.73482 0.0
C375 C 0.96406 0.93168 0.777 0.0
C376 C 0.95749 0.95741 0.79352 0.0
C377 C 0.94142 0.97911 0.78116 0.0
C378 C 0.91601 0.84408 0.68106 0.0
C379 C 0.92287 0.82491 0.65659 0.0
C380 C 0.88578 0.85023 0.68751 0.0
C381 C 0.86298 0.83761 0.66986 0.0
C382 C 0.86981 0.81836 0.64544 0.0
C383 C 0.90004 0.81217 0.63902 0.0
C384 C 0.93283 0.97499 0.75162 0.0
H385 H 0.0848 0.83609 0.75353 0.0
H386 H 0.04813 0.85712 0.72213 0.0
H387 H 0.97765 0.80939 0.75982 0.0
H388 H 0.01337 0.78993 0.79267 0.0
H389 H 0.96598 0.81807 0.70033 0.0
H390 H 0.00267 0.89102 0.75155 0.0
H391 H 0.91858 0.89865 0.70689 0.0
H392 H 0.93309 0.94684 0.71207 0.0
H393 H 0.97503 0.91495 0.78793 0.0
H394 H 0.96388 0.95982 0.81641 0.0
H395 H 0.94592 0.81987 0.6509 0.0
H396 H 0.87965 0.86452 0.70645 0.0
H397 H 0.92048 0.99151 0.7416 0.0
H398 H 0.90611 0.79716 0.6206 0.0
H399 H 0.83997 0.84313 0.67528 0.0
H400 H 0.16125 0.88112 0.16124 0.0
H401 H 0.1018 0.9258 0.10622 0.0
H402 H 0.14475 0.91231 0.20387 0.0
H403 H 0.08621 0.95727 0.14825 0.0
H404 H 0.0413 0.99306 0.22912 0.0
H405 H 0.05713 0.9568 0.19125 0.0
H406 H 0.14725 0.9611 0.22595 0.0
H407 H 0.13088 0.99606 0.26535 0.0
C408 C 0.14486 0.89769 0.1582 0.0
C409 C 0.13271 0.90083 0.13035 0.0
C410 C 0.13546 0.91561 0.1826 0.0
C411 C 0.11388 0.93711 0.17958 0.0
C412 C 0.10223 0.94047 0.1516 0.0
C413 C 0.11138 0.9225 0.12738 0.0
C414 C 0.06432 0.98579 0.2293 0.0
C415 C 0.08481 0.99773 0.25032 0.0
C416 C 0.07354 0.96527 0.20719 0.0
C417 C 0.10361 0.95641 0.20516 0.0
C418 C 0.1239 0.96739 0.22685 0.0
C419 C 0.11458 0.98774 0.24924 0.0
H420 H 0.62886 0.72651 0.60201 0.0
H421 H 0.57225 0.65273 0.57916 0.0
H422 H 0.61037 0.72862 0.65265 0.0
H423 H 0.55366 0.65528 0.62916 0.0
H424 H 0.50159 0.68917 0.70904 0.0
H425 H 0.52229 0.69543 0.66094 0.0
H426 H 0.61183 0.69052 0.69566 0.0
H427 H 0.59109 0.68419 0.74425 0.0
C428 C 0.61245 0.71088 0.60775 0.0
C429 C 0.602 0.68945 0.58662 0.0
C430 C 0.60202 0.71205 0.63665 0.0
C431 C 0.58049 0.69224 0.64458 0.0
C432 C 0.57006 0.67096 0.62346 0.0
C433 C 0.58085 0.66943 0.5949 0.0
C434 C 0.5257 0.69024 0.70672 0.0
C435 C 0.54473 0.68617 0.73044 0.0
C436 C 0.5375 0.6936 0.67912 0.0
C437 C 0.56858 0.69326 0.67469 0.0
C438 C 0.58777 0.69095 0.69865 0.0
C439 C 0.57592 0.68719 0.72632 0.0
H440 H 0.75608 0.10463 0.01013 0.0
H441 H 0.84015 0.07149 0.03997 0.0
H442 H 0.73006 0.06269 0.02671 0.0
H443 H 0.81423 0.02999 0.05601 0.0
H444 H 0.76718 0.94445 0.04308 0.0
H445 H 0.78613 0.98833 0.02503 0.0
H446 H 0.72172 0.03822 0.07799 0.0
H447 H 0.70229 0.9939 0.09618 0.0
C448 C 0.76897 0.08858 0.02032 0.0
C449 C 0.80025 0.09135 0.02353 0.0
C450 C 0.75405 0.0647 0.02985 0.0
C451 C 0.77027 0.04307 0.04226 0.0
C452 C 0.8013 0.04623 0.04613 0.0
C453 C 0.81609 0.07012 0.03705 0.0
C454 C 0.75642 0.96461 0.05036 0.0
C455 C 0.73318 0.96568 0.07106 0.0
C456 C 0.76751 0.98976 0.04022 0.0
C457 C 0.75555 0.01657 0.05038 0.0
C458 C 0.73126 0.01773 0.06986 0.0
C459 C 0.72028 0.99245 0.08032 0.0
H460 H 0.46171 0.34984 0.56114 0.0
H461 H 0.44851 0.25842 0.56449 0.0
H462 H 0.51439 0.34436 0.57214 0.0
H463 H 0.50184 0.25299 0.57525 0.0
H464 H 0.59225 0.26668 0.6283 0.0
H465 H 0.53919 0.2669 0.61486 0.0
H466 H 0.55886 0.32325 0.5477 0.0
H467 H 0.61134 0.32398 0.56173 0.0
C468 C 0.47 0.32851 0.56414 0.0
C469 C 0.45076 0.30455 0.56179 0.0
C470 C 0.50034 0.32536 0.57025 0.0
C471 C 0.51236 0.2982 0.57421 0.0
C472 C 0.49317 0.27421 0.57235 0.0
C473 C 0.46267 0.27733 0.5661 0.0
C474 C 0.58522 0.27899 0.61058 0.0
C475 C 0.60606 0.29544 0.59623 0.0
C476 C 0.55489 0.2789 0.60273 0.0
C477 C 0.54481 0.29537 0.58047 0.0
C478 C 0.56586 0.31071 0.56527 0.0
C479 C 0.59606 0.3108 0.57307 0.0
H480 H 0.59645 0.60231 0.4129 0.0
H481 H 0.69139 0.60472 0.39496 0.0
H482 H 0.58947 0.56697 0.37112 0.0
H483 H 0.68428 0.56908 0.35297 0.0
H484 H 0.65786 0.47351 0.31724 0.0
H485 H 0.66939 0.51627 0.35004 0.0
H486 H 0.59341 0.55992 0.31606 0.0
H487 H 0.58175 0.51704 0.28339 0.0
C488 C 0.6158 0.59551 0.39985 0.0
C489 C 0.64452 0.60612 0.4074 0.0
C490 C 0.61174 0.57544 0.37575 0.0
C491 C 0.63634 0.56528 0.35882 0.0
C492 C 0.66496 0.57649 0.36576 0.0
C493 C 0.66899 0.59693 0.3897 0.0
C494 C 0.64394 0.49242 0.31648 0.0
C495 C 0.61878 0.49192 0.29798 0.0
C496 C 0.65067 0.51695 0.33506 0.0
C497 C 0.63217 0.54133 0.3357 0.0
C498 C 0.6079 0.54133 0.31613 0.0
C499 C 0.60136 0.51689 0.29732 0.0
H500 H 0.95559 0.2463 0.98703 0.0
H501 H 0.97374 0.15599 0.99273 0.0
H502 H 0.00908 0.25468 0.97944 0.0
H503 H 0.02645 0.16433 0.98479 0.0
H504 H 0.1214 0.18792 0.99759 0.0
H505 H 0.06874 0.18745 0.01045 0.0
H506 H 0.04888 0.24288 0.94247 0.0
H507 H 0.10211 0.24458 0.93042 0.0
C508 C 0.97087 0.22826 0.98662 0.0
C509 C 0.96028 0.20049 0.99064 0.0
C510 C 0.00147 0.23307 0.98221 0.0
C511 C 0.02204 0.21024 0.9819 0.0
C512 C 0.01134 0.18252 0.98561 0.0
C513 C 0.98095 0.17771 0.98993 0.0
C514 C 0.10607 0.20076 0.98589 0.0
C515 C 0.11608 0.21612 0.96277 0.0
C516 C 0.07574 0.20014 0.99302 0.0
C517 C 0.05456 0.21466 0.9771 0.0
C518 C 0.06465 0.23143 0.95513 0.0
C519 C 0.09511 0.23216 0.94804 0.0
H520 H 0.25594 0.40939 0.55539 0.0
H521 H 0.31025 0.39784 0.47732 0.0
H522 H 0.22847 0.44808 0.53444 0.0
H523 H 0.28251 0.4361 0.45637 0.0
H524 H 0.21259 0.49266 0.41883 0.0
H525 H 0.22805 0.44889 0.44008 0.0
H526 H 0.24826 0.49845 0.52168 0.0
H527 H 0.23442 0.54234 0.50033 0.0
C528 C 0.26167 0.41477 0.5336 0.0
C529 C 0.28541 0.40078 0.51808 0.0
C530 C 0.24599 0.4369 0.52169 0.0
C531 C 0.25337 0.44493 0.49381 0.0
C532 C 0.27619 0.43009 0.47779 0.0
C533 C 0.29222 0.40838 0.48989 0.0
C534 C 0.22019 0.4943 0.44134 0.0
C535 C 0.22267 0.52124 0.45763 0.0
C536 C 0.22884 0.46919 0.45351 0.0
C537 C 0.23949 0.47042 0.4824 0.0
C538 C 0.23986 0.49692 0.49941 0.0
C539 C 0.23175 0.52209 0.48712 0.0
H540 H 0.1276 0.76486 0.94346 0.0
H541 H 0.10691 0.8556 0.94736 0.0
H542 H 0.11799 0.76066 0.89063 0.0
H543 H 0.09675 0.85124 0.89551 0.0
H544 H 0.0535 0.76456 0.80871 0.0
H545 H 0.07566 0.76263 0.85707 0.0
H546 H 0.11975 0.84381 0.84875 0.0
H547 H 0.09585 0.84709 0.80195 0.0
C548 C 0.12111 0.78388 0.93313 0.0
C549 C 0.11798 0.81055 0.94976 0.0
C550 C 0.11556 0.78145 0.90289 0.0
C551 C 0.10691 0.80566 0.88873 0.0
C552 C 0.10411 0.83226 0.90543 0.0
C553 C 0.10965 0.83469 0.9354 0.0
C554 C 0.06804 0.78196 0.81709 0.0
C555 C 0.07201 0.80638 0.80154 0.0
C556 C 0.0811 0.78063 0.84471 0.0
C557 C 0.09879 0.80349 0.85714 0.0
C558 C 0.10549 0.82625 0.84018 0.0
C559 C 0.09208 0.82784 0.81291 0.0
H560 H 0.84892 0.11894 0.88537 0.0
H561 H 0.91567 0.08391 0.94059 0.0
H562 H 0.86763 0.08832 0.84346 0.0
H563 H 0.93361 0.05279 0.89913 0.0
H564 H 0.9764 0.01408 0.81774 0.0
H565 H 0.95992 0.05195 0.85427 0.0
H566 H 0.86847 0.03888 0.82473 0.0
H567 H 0.88531 0.00172 0.78758 0.0
C568 C 0.86749 0.10465 0.88862 0.0
C569 C 0.88074 0.10387 0.91639 0.0
C570 C 0.87817 0.08703 0.86459 0.0
C571 C 0.90222 0.06812 0.86783 0.0
C572 C 0.91549 0.0675 0.8956 0.0
C573 C 0.905 0.08522 0.91951 0.0
C574 C 0.95286 0.01972 0.81882 0.0
C575 C 0.93209 0.00493 0.80002 0.0
C576 C 0.94335 0.04123 0.83985 0.0
C577 C 0.91277 0.04815 0.84284 0.0
C578 C 0.8922 0.03432 0.82296 0.0
C579 C 0.90181 0.013 0.80166 0.0
H580 H 0.37132 0.34785 0.4434 0.0
H581 H 0.37902 0.25613 0.4482 0.0
H582 H 0.38865 0.34239 0.39318 0.0
H583 H 0.39602 0.25059 0.39733 0.0
H584 H 0.47582 0.26911 0.33368 0.0
H585 H 0.44329 0.26398 0.37541 0.0
H586 H 0.3807 0.32396 0.34258 0.0
H587 H 0.41387 0.32983 0.3013 0.0
C588 C 0.37619 0.3264 0.43355 0.0
C589 C 0.37428 0.30249 0.45002 0.0
C590 C 0.38582 0.32322 0.40455 0.0
C591 C 0.39388 0.29605 0.39124 0.0
C592 C 0.39025 0.27185 0.40709 0.0
C593 C 0.38041 0.27502 0.43618 0.0
C594 C 0.45481 0.28074 0.33508 0.0
C595 C 0.44768 0.3003 0.31455 0.0
C596 C 0.43598 0.27759 0.35886 0.0
C597 C 0.40962 0.29394 0.36259 0.0
C598 C 0.40113 0.31145 0.34056 0.0
C599 C 0.41999 0.31459 0.31675 0.0
H600 H 0.24721 0.90052 0.03776 0.0
H601 H 0.16731 0.92062 0.99018 0.0
H602 H 0.27407 0.93884 0.01584 0.0
H603 H 0.19375 0.95898 0.9691 0.0
H604 H 0.24883 0.01397 0.91853 0.0
H605 H 0.23214 0.96893 0.93529 0.0
H606 H 0.27435 0.9912 0.01911 0.0
H607 H 0.29291 0.03569 0.00164 0.0
C608 C 0.2354 0.91295 0.02257 0.0
C609 C 0.20503 0.90749 0.01585 0.0
C610 C 0.25077 0.93499 0.01012 0.0
C611 C 0.23612 0.95193 0.99063 0.0
C612 C 0.20596 0.94604 0.98356 0.0
C613 C 0.19067 0.92411 0.99591 0.0
C614 C 0.25555 0.00898 0.94019 0.0
C615 C 0.27205 0.02877 0.9588 0.0
C616 C 0.2455 0.98325 0.94998 0.0
C617 C 0.25132 0.97672 0.97876 0.0
C618 C 0.26944 0.99555 0.9968 0.0
C619 C 0.27977 0.02125 0.98689 0.0
H620 H 0.54057 0.65209 0.44647 0.0
H621 H 0.54163 0.74166 0.47987 0.0
H622 H 0.48987 0.65739 0.42889 0.0
H623 H 0.49041 0.74702 0.46174 0.0
H624 H 0.38602 0.72449 0.46235 0.0
H625 H 0.43943 0.7291 0.47419 0.0
H626 H 0.46108 0.68058 0.3923 0.0
H627 H 0.40788 0.67566 0.3808 0.0
C628 C 0.53008 0.67303 0.44987 0.0
C629 C 0.54517 0.69641 0.46476 0.0
C630 C 0.50103 0.67613 0.4395 0.0
C631 C 0.48615 0.70268 0.44377 0.0
C632 C 0.50129 0.72628 0.45824 0.0
C633 C 0.53063 0.72323 0.46847 0.0
C634 C 0.40229 0.71547 0.44663 0.0
C635 C 0.3929 0.69932 0.42091 0.0
C636 C 0.43285 0.71813 0.45336 0.0
C637 C 0.45442 0.70475 0.4344 0.0
C638 C 0.44496 0.69056 0.40765 0.0
C639 C 0.41455 0.6878 0.40102 0.0
H640 H 0.34018 0.37156 0.66215 0.0
H641 H 0.39029 0.42269 0.60514 0.0
H642 H 0.35858 0.40168 0.70461 0.0
H643 H 0.40771 0.45333 0.6473 0.0
H644 H 0.45594 0.49005 0.72679 0.0
H645 H 0.44026 0.45451 0.68794 0.0
H646 H 0.35394 0.44831 0.72943 0.0
H647 H 0.37044 0.48235 0.76951 0.0
C648 C 0.3549 0.38938 0.65865 0.0
C649 C 0.36378 0.39468 0.63023 0.0
C650 C 0.3654 0.4067 0.68301 0.0
C651 C 0.38481 0.42989 0.67948 0.0
C652 C 0.3934 0.43529 0.65099 0.0
C653 C 0.38317 0.41783 0.62672 0.0
C654 C 0.43392 0.48056 0.72816 0.0
C655 C 0.41442 0.48931 0.75131 0.0
C656 C 0.4247 0.46049 0.70551 0.0
C657 C 0.39561 0.44889 0.70518 0.0
C658 C 0.37654 0.45669 0.72894 0.0
C659 C 0.38589 0.47653 0.75179 0.0
H660 H 0.03014 0.85222 0.06175 0.0
H661 H 0.04715 0.7616 0.06669 0.0
H662 H 0.97767 0.84478 0.07243 0.0
H663 H 0.99412 0.75421 0.0772 0.0
H664 H 0.90239 0.76469 0.1282 0.0
H665 H 0.9557 0.76745 0.11628 0.0
H666 H 0.93456 0.82093 0.04698 0.0
H667 H 0.88177 0.81901 0.05936 0.0
C668 C 0.02276 0.83068 0.06511 0.0
C669 C 0.04297 0.80749 0.06319 0.0
C670 C 0.99255 0.82639 0.07104 0.0
C671 C 0.98169 0.79885 0.0753 0.0
C672 C 0.00188 0.77569 0.07405 0.0
C673 C 0.03222 0.77995 0.06794 0.0
C674 C 0.90916 0.77688 0.11032 0.0
C675 C 0.8878 0.7917 0.09481 0.0
C676 C 0.93964 0.77828 0.10336 0.0
C677 C 0.94931 0.79468 0.08092 0.0
C678 C 0.92783 0.80847 0.06469 0.0
C679 C 0.89749 0.80703 0.07155 0.0
H680 H 0.66146 0.58507 0.55211 0.0
H681 H 0.74494 0.60599 0.51125 0.0
H682 H 0.68637 0.54717 0.57567 0.0
H683 H 0.77005 0.5681 0.53546 0.0
H684 H 0.78755 0.4713 0.55162 0.0
H685 H 0.76978 0.51515 0.53203 0.0
H686 H 0.72303 0.53883 0.61298 0.0
H687 H 0.73946 0.49458 0.63198 0.0
C688 C 0.68522 0.58181 0.54834 0.0
C689 C 0.70112 0.59856 0.52962 0.0
C690 C 0.69958 0.56017 0.5621 0.0
C691 C 0.73024 0.55468 0.55755 0.0
C692 C 0.74635 0.57169 0.53924 0.0
C693 C 0.73197 0.59348 0.52548 0.0
C694 C 0.77368 0.48599 0.56531 0.0
C695 C 0.7647 0.47919 0.59326 0.0
C696 C 0.76374 0.51126 0.5542 0.0
C697 C 0.74464 0.53026 0.57081 0.0
C698 C 0.73729 0.52437 0.59943 0.0
C699 C 0.74711 0.49913 0.61049 0.0
H700 H 0.89155 0.23889 0.09942 0.0
H701 H 0.86532 0.15033 0.1039 0.0
H702 H 0.90359 0.24267 0.1518 0.0
H703 H 0.87714 0.15417 0.15591 0.0
H704 H 0.96894 0.2101 0.22458 0.0
H705 H 0.94533 0.21871 0.17844 0.0
H706 H 0.86404 0.17876 0.20555 0.0
H707 H 0.88733 0.1708 0.25238 0.0
C708 C 0.88777 0.22046 0.11168 0.0
C709 C 0.87781 0.19422 0.0975 0.0
C710 C 0.89475 0.2226 0.14159 0.0
C711 C 0.89134 0.19871 0.15791 0.0
C712 C 0.87971 0.17305 0.14403 0.0
C713 C 0.87319 0.17077 0.11415 0.0
C714 C 0.94567 0.20408 0.22133 0.0
C715 C 0.93021 0.18937 0.24218 0.0
C716 C 0.93215 0.209 0.19474 0.0
C717 C 0.90297 0.19911 0.18827 0.0
C718 C 0.88674 0.18624 0.20984 0.0
C719 C 0.90014 0.18158 0.23658 0.0
H720 H 0.21196 0.77675 0.14031 0.0
H721 H 0.11885 0.75261 0.12968 0.0
H722 H 0.21444 0.75241 0.18517 0.0
H723 H 0.12129 0.72876 0.17531 0.0
H724 H 0.14346 0.73151 0.2808 0.0
H725 H 0.13549 0.75083 0.23326 0.0
H726 H 0.20567 0.69593 0.19554 0.0
H727 H 0.21333 0.67634 0.24265 0.0
C728 C 0.19202 0.76628 0.14761 0.0
C729 C 0.16521 0.76652 0.13154 0.0
C730 C 0.1935 0.75229 0.17316 0.0
C731 C 0.16806 0.73879 0.18348 0.0
C732 C 0.14114 0.73911 0.16765 0.0
C733 C 0.13982 0.75258 0.1416 0.0
C734 C 0.1568 0.72333 0.26219 0.0
C735 C 0.17895 0.70245 0.26528 0.0
C736 C 0.15215 0.73421 0.23509 0.0
C737 C 0.17001 0.72477 0.21097 0.0
C738 C 0.19163 0.70345 0.21391 0.0
C739 C 0.1959 0.6922 0.24076 0.0
H740 H 0.69965 0.7645 0.56468 0.0
H741 H 0.76646 0.71249 0.51672 0.0
H742 H 0.73907 0.78833 0.59482 0.0
H743 H 0.80565 0.73621 0.54699 0.0
H744 H 0.86859 0.80785 0.5857 0.0
H745 H 0.82889 0.78488 0.55537 0.0
H746 H 0.77603 0.77543 0.63266 0.0
H747 H 0.8159 0.79788 0.66313 0.0
C748 C 0.72269 0.75816 0.56052 0.0
C749 C 0.72986 0.73657 0.53824 0.0
C750 C 0.74523 0.7717 0.5779 0.0
C751 C 0.77542 0.76414 0.57322 0.0
C752 C 0.78261 0.7427 0.55089 0.0
C753 C 0.76009 0.72899 0.53367 0.0
C754 C 0.84865 0.80062 0.59628 0.0
C755 C 0.84548 0.80469 0.62688 0.0
C756 C 0.82589 0.78753 0.57888 0.0
C757 C 0.79938 0.77839 0.59166 0.0
C758 C 0.79606 0.78263 0.62218 0.0
C759 C 0.8189 0.79554 0.63961 0.0
H760 H 0.78058 0.2724 0.02867 0.0
H761 H 0.73886 0.18855 0.02319 0.0
H762 H 0.73627 0.29319 0.05386 0.0
H763 H 0.69495 0.20936 0.04897 0.0
H764 H 0.65395 0.25775 0.13634 0.0
H765 H 0.69243 0.23562 0.10449 0.0
H766 H 0.67583 0.29738 0.04192 0.0
H767 H 0.63563 0.31871 0.07278 0.0
C768 C 0.76192 0.25847 0.03273 0.0
C769 C 0.76319 0.22885 0.02406 0.0
C770 C 0.73656 0.2704 0.04692 0.0
C771 C 0.71235 0.25281 0.05322 0.0
C772 C 0.71341 0.22329 0.04428 0.0
C773 C 0.73847 0.21147 0.02951 0.0
C774 C 0.6576 0.26622 0.11543 0.0
C775 C 0.64137 0.29012 0.10726 0.0
C776 C 0.67991 0.25359 0.09732 0.0
C777 C 0.68701 0.26489 0.07091 0.0
C778 C 0.67078 0.28846 0.06236 0.0
C779 C 0.64793 0.30075 0.08018 0.0
H780 H 0.37614 0.24606 0.63101 0.0
H781 H 0.28314 0.27062 0.64095 0.0
H782 H 0.37313 0.22168 0.67632 0.0
H783 H 0.28014 0.24603 0.68543 0.0
H784 H 0.27576 0.17535 0.74524 0.0
H785 H 0.28582 0.19186 0.69729 0.0
H786 H 0.36105 0.24138 0.73312 0.0
H787 H 0.35054 0.22554 0.78158 0.0
C788 C 0.35507 0.24601 0.64269 0.0
C789 C 0.32989 0.26027 0.63255 0.0
C790 C 0.35342 0.23221 0.66855 0.0
C791 C 0.32637 0.23189 0.6841 0.0
C792 C 0.30117 0.24573 0.67363 0.0
C793 C 0.30296 0.25995 0.64829 0.0
C794 C 0.29458 0.18962 0.74292 0.0
C795 C 0.31194 0.19967 0.76735 0.0
C796 C 0.30042 0.19888 0.71546 0.0
C797 C 0.32398 0.21807 0.71172 0.0
C798 C 0.34282 0.22645 0.73552 0.0
C799 C 0.3368 0.21738 0.7632 0.0
H800 H 0.71745 0.73118 0.40734 0.0
H801 H 0.62504 0.75801 0.41624 0.0
H802 H 0.7217 0.75579 0.3628 0.0
H803 H 0.62928 0.78229 0.37115 0.0
H804 H 0.64749 0.77902 0.26739 0.0
H805 H 0.63963 0.76198 0.31583 0.0
H806 H 0.718 0.80883 0.34829 0.0
H807 H 0.72571 0.82606 0.30005 0.0
C808 C 0.69809 0.74244 0.39983 0.0
C809 C 0.6709 0.74265 0.41522 0.0
C810 C 0.70059 0.75665 0.37447 0.0
C811 C 0.67582 0.77092 0.36367 0.0
C812 C 0.64866 0.77138 0.3791 0.0
C813 C 0.64631 0.75762 0.40488 0.0
C814 C 0.66272 0.78597 0.28504 0.0
C815 C 0.6872 0.80379 0.28005 0.0
C816 C 0.65814 0.77639 0.31271 0.0
C817 C 0.67829 0.78407 0.33564 0.0
C818 C 0.70223 0.80258 0.33088 0.0
C819 C 0.70652 0.81254 0.30339 0.0
H820 H 0.85318 0.27683 0.93289 0.0
H821 H 0.8316 0.19625 0.88344 0.0
H822 H 0.84975 0.30138 0.88797 0.0
H823 H 0.82822 0.22068 0.83894 0.0
H824 H 0.8434 0.26765 0.75944 0.0
H825 H 0.85885 0.2475 0.80452 0.0
H826 H 0.80603 0.31149 0.85507 0.0
H827 H 0.79089 0.33182 0.81006 0.0
C828 C 0.84808 0.26433 0.91244 0.0
C829 C 0.84237 0.23467 0.91176 0.0
C830 C 0.84603 0.27838 0.8868 0.0
C831 C 0.83875 0.26292 0.85999 0.0
C832 C 0.83421 0.23311 0.8592 0.0
C833 C 0.83586 0.21918 0.88478 0.0
C834 C 0.83568 0.27779 0.78024 0.0
C835 C 0.81574 0.30111 0.78128 0.0
C836 C 0.84434 0.26616 0.80599 0.0
C837 C 0.83345 0.27781 0.83325 0.0
C838 C 0.81492 0.30218 0.8344 0.0
C839 C 0.80604 0.31364 0.80864 0.0
H840 H 0.27463 0.22133 0.52041 0.0
H841 H 0.23325 0.30377 0.5123 0.0
H842 H 0.23184 0.19737 0.49592 0.0
H843 H 0.19131 0.28015 0.4862 0.0
H844 H 0.10761 0.23009 0.46 0.0
H845 H 0.14847 0.25261 0.48925 0.0
H846 H 0.20951 0.18796 0.45065 0.0
H847 H 0.16822 0.16478 0.42306 0.0
C848 C 0.25647 0.23431 0.51309 0.0
C849 C 0.25726 0.26438 0.51824 0.0
C850 C 0.23197 0.22062 0.49887 0.0
C851 C 0.20798 0.23673 0.48884 0.0
C852 C 0.20893 0.26689 0.49406 0.0
C853 C 0.23312 0.28051 0.50885 0.0
C854 C 0.1298 0.22071 0.45812 0.0
C855 C 0.13486 0.1957 0.43952 0.0
C856 C 0.1533 0.23367 0.47465 0.0
C857 C 0.18251 0.22224 0.47237 0.0
C858 C 0.18735 0.19712 0.45361 0.0
C859 C 0.16373 0.18387 0.43761 0.0
H860 H 0.27024 0.7967 0.035 0.0
H861 H 0.20706 0.73852 0.98906 0.0
H862 H 0.31118 0.77318 0.00677 0.0
H863 H 0.24789 0.71515 0.96124 0.0
H864 H 0.32143 0.70414 0.89306 0.0
H865 H 0.28285 0.72919 0.92275 0.0
H866 H 0.3377 0.72498 -0.00011 0.0
H867 H 0.37641 0.69938 0.97014 0.0
C868 C 0.26506 0.77888 0.01902 0.0
C869 C 0.2353 0.7696 0.01425 0.0
C870 C 0.28854 0.76535 0.00298 0.0
C871 C 0.28267 0.74249 0.98168 0.0
C872 C 0.25302 0.733 0.97721 0.0
C873 C 0.22964 0.74632 0.99333 0.0
C874 C 0.32525 0.70835 0.91638 0.0
C875 C 0.35182 0.69938 0.9293 0.0
C876 C 0.30315 0.72275 0.93337 0.0
C877 C 0.30713 0.72872 0.96367 0.0
C878 C 0.33411 0.72074 0.97654 0.0
C879 C 0.35626 0.70613 0.95951 0.0
loop_
_geom_bond_atom_site_label_1
_geom_bond_atom_site_label_2
_geom_bond_distance
_geom_bond_site_symmetry_2
_ccdc_geom_bond_type
Sc0 O3 2.025 . S
Sc0 O10 2.105 . S
Sc0 O13 2.105 . S
Sc0 O16 2.105 . S
Sc0 O19 2.105 1_554 S
Sc1 O3 2.025 . S
Sc1 O11 2.105 1_554 S
Sc1 O15 2.105 . S
Sc1 O17 2.105 . S
Sc1 O21 2.105 . S
Sc2 O3 2.025 . S
Sc2 O12 2.105 . S
Sc2 O14 2.105 . S
Sc2 O18 2.105 . S
Sc2 O20 2.105 . S
O3 Sc0 2.025 . S
O3 Sc1 2.025 . S
O3 Sc2 2.025 . S
C4 O10 1.268 . S
C4 O20 1.268 . S
C5 O11 1.268 . S
C5 O19 1.268 . S
C6 O12 1.268 . S
C6 O21 1.268 . S
C7 O13 1.268 . S
C7 O17 1.268 . S
C8 O14 1.268 . S
C8 O16 1.268 . S
C9 O15 1.268 . S
C9 O18 1.268 . S
O10 Sc0 2.105 . S
O10 C4 1.268 . S
O11 Sc1 2.105 1_556 S
O11 C5 1.268 . S
O12 Sc2 2.105 . S
O12 C6 1.268 . S
O13 Sc0 2.105 . S
O13 C7 1.268 . S
O14 Sc2 2.105 . S
O14 C8 1.268 . S
O15 Sc1 2.105 . S
O15 C9 1.268 . S
O16 Sc0 2.105 . S
O16 C8 1.268 . S
O17 Sc1 2.105 . S
O17 C7 1.268 . S
O18 Sc2 2.105 . S
O18 C9 1.268 . S
O19 Sc0 2.105 1_556 S
O19 C5 1.268 . S
O20 Sc2 2.105 . S
O20 C4 1.268 . S
O21 Sc1 2.105 . S
O21 C6 1.268 . S
Sc22 O25 2.025 . S
Sc22 O32 2.105 . S
Sc22 O35 2.105 . S
Sc22 O38 2.105 . S
Sc22 O41 2.105 . S
Sc23 O25 2.025 . S
Sc23 O33 2.105 . S
Sc23 O37 2.105 . S
Sc23 O39 2.105 . S
Sc23 O43 2.105 . S
Sc24 O25 2.025 . S
Sc24 O34 2.105 . S
Sc24 O36 2.105 . S
Sc24 O40 2.105 . S
Sc24 O42 2.105 . S
O25 Sc22 2.025 . S
O25 Sc23 2.025 . S
O25 Sc24 2.025 . S
C26 O32 1.268 . S
C26 O42 1.268 . S
C27 O33 1.268 . S
C27 O41 1.268 . S
C28 O34 1.268 . S
C28 O43 1.268 . S
C29 O35 1.268 . S
C29 O39 1.268 . S
C30 O36 1.268 . S
C30 O38 1.268 . S
C31 O37 1.268 . S
C31 O40 1.268 . S
O32 Sc22 2.105 . S
O32 C26 1.268 . S
O33 Sc23 2.105 . S
O33 C27 1.268 . S
O34 Sc24 2.105 . S
O34 C28 1.268 . S
O35 Sc22 2.105 . S
O35 C29 1.268 . S
O36 Sc24 2.105 . S
O36 C30 1.268 . S
O37 Sc23 2.105 . S
O37 C31 1.268 . S
O38 Sc22 2.105 . S
O38 C30 1.268 . S
O39 Sc23 2.105 . S
O39 C29 1.268 . S
O40 Sc24 2.105 . S
O40 C31 1.268 . S
O41 Sc22 2.105 . S
O41 C27 1.268 . S
O42 Sc24 2.105 . S
O42 C26 1.268 . S
O43 Sc23 2.105 . S
O43 C28 1.268 . S
Sc44 O47 2.027 . S
Sc44 O54 2.105 1_554 S
Sc44 O57 2.105 . S
Sc44 O60 2.105 . S
Sc44 O63 2.105 1_554 S
Sc45 O47 2.021 1_556 S
Sc45 O55 2.105 . S
Sc45 O59 2.105 1_556 S
Sc45 O61 2.105 1_556 S
Sc45 O65 2.105 . S
Sc46 O47 2.028 . S
Sc46 O56 2.105 1_554 S
Sc46 O58 2.105 . S
Sc46 O62 2.105 . S
Sc46 O64 2.105 1_554 S
O47 Sc44 2.027 . S
O47 Sc45 2.021 1_554 S
O47 Sc46 2.028 . S
C48 O54 1.268 . S
C48 O64 1.268 . S
C49 O55 1.268 . S
C49 O63 1.268 . S
C50 O56 1.268 . S
C50 O65 1.268 . S
C51 O57 1.268 . S
C51 O61 1.268 . S
C52 O58 1.268 . S
C52 O60 1.268 . S
C53 O59 1.268 . S
C53 O62 1.268 . S
O54 Sc44 2.105 1_556 S
O54 C48 1.268 . S
O55 Sc45 2.105 . S
O55 C49 1.268 . S
O56 Sc46 2.105 1_556 S
O56 C50 1.268 . S
O57 Sc44 2.105 . S
O57 C51 1.268 . S
O58 Sc46 2.105 . S
O58 C52 1.268 . S
O59 Sc45 2.105 1_554 S
O59 C53 1.268 . S
O60 Sc44 2.105 . S
O60 C52 1.268 . S
O61 Sc45 2.105 1_554 S
O61 C51 1.268 . S
O62 Sc46 2.105 . S
O62 C53 1.268 . S
O63 Sc44 2.105 1_556 S
O63 C49 1.268 . S
O64 Sc46 2.105 1_556 S
O64 C48 1.268 . S
O65 Sc45 2.105 . S
O65 C50 1.268 . S
Sc66 O69 2.025 . S
Sc66 O76 2.105 . S
Sc66 O79 2.105 . S
Sc66 O82 2.105 . S
Sc66 O85 2.105 . S
Sc67 O69 2.025 . S
Sc67 O77 2.105 . S
Sc67 O81 2.105 . S
Sc67 O83 2.105 . S
Sc67 O87 2.105 . S
Sc68 O69 2.025 . S
Sc68 O78 2.105 . S
Sc68 O80 2.105 . S
Sc68 O84 2.105 . S
Sc68 O86 2.105 . S
O69 Sc66 2.025 . S
O69 Sc67 2.025 . S
O69 Sc68 2.025 . S
C70 O76 1.268 . S
C70 O86 1.268 . S
C71 O77 1.268 . S
C71 O85 1.268 . S
C72 O78 1.268 . S
C72 O87 1.268 . S
C73 O79 1.268 . S
C73 O83 1.268 . S
C74 O80 1.268 . S
C74 O82 1.268 . S
C75 O81 1.268 . S
C75 O84 1.268 . S
O76 Sc66 2.105 . S
O76 C70 1.268 . S
O77 Sc67 2.105 . S
O77 C71 1.268 . S
O78 Sc68 2.105 . S
O78 C72 1.268 . S
O79 Sc66 2.105 . S
O79 C73 1.268 . S
O80 Sc68 2.105 . S
O80 C74 1.268 . S
O81 Sc67 2.105 . S
O81 C75 1.268 . S
O82 Sc66 2.105 . S
O82 C74 1.268 . S
O83 Sc67 2.105 . S
O83 C73 1.268 . S
O84 Sc68 2.105 . S
O84 C75 1.268 . S
O85 Sc66 2.105 . S
O85 C71 1.268 . S
O86 Sc68 2.105 . S
O86 C70 1.268 . S
O87 Sc67 2.105 . S
O87 C72 1.268 . S
C88 C89 1.386 . S
C88 C90 1.397 1_655 S
C88 H112 0.931 . S
C89 C88 1.386 . S
C89 C93 1.397 . S
C90 C88 1.397 1_455 S
C90 C91 1.384 . S
C90 H113 0.930 . S
C91 C90 1.384 . S
C91 C92 1.377 1_455 S
C91 C94 1.481 . S
C92 C91 1.377 1_655 S
C92 C93 1.389 . S
C92 H114 0.929 . S
C93 C89 1.397 . S
C93 C92 1.389 . S
C93 H115 0.931 . S
C94 C91 1.481 . S
C94 C95 1.387 . S
C94 C99 1.390 . S
C95 C94 1.387 . S
C95 C96 1.401 . S
C95 H116 0.930 . S
C96 C95 1.401 . S
C96 C97 1.376 . S
C96 C105 1.511 . S
C97 C96 1.376 . S
C97 C98 1.392 . S
C97 H118 0.931 . S
C98 C97 1.392 . S
C98 C99 1.361 . S
C98 C100 1.500 . S
C99 C94 1.390 . S
C99 C98 1.361 . S
C99 H117 0.931 . S
C100 C98 1.500 . S
C100 C101 1.371 . S
C100 C102 1.365 . S
C101 C100 1.371 . S
C101 C111 1.386 . S
C101 H119 0.931 . S
C102 C100 1.365 . S
C102 C103 1.409 . S
C102 H120 0.929 . S
C103 C102 1.409 . S
C103 C104 1.380 . S
C103 H121 0.930 . S
C104 C103 1.380 . S
C104 C111 1.357 . S
C105 C96 1.511 . S
C105 C106 1.341 . S
C105 C107 1.371 . S
C106 C105 1.341 . S
C106 C110 1.394 . S
C106 H122 0.930 . S
C107 C105 1.371 . S
C107 C108 1.392 . S
C107 H123 0.931 . S
C108 C107 1.392 . S
C108 C109 1.331 . S
C108 H126 0.932 . S
C109 C108 1.331 . S
C109 C110 1.336 . S
C110 C106 1.394 . S
C110 C109 1.336 . S
C110 H125 0.929 . S
C111 C101 1.386 . S
C111 C104 1.357 . S
C111 H124 0.928 . S
H112 C88 0.931 . S
H113 C90 0.930 . S
H114 C92 0.929 . S
H115 C93 0.931 . S
H116 C95 0.930 . S
H117 C99 0.931 . S
H118 C97 0.931 . S
H119 C101 0.931 . S
H120 C102 0.929 . S
H121 C103 0.930 . S
H122 C106 0.930 . S
H123 C107 0.931 . S
H124 C111 0.928 . S
H125 C110 0.929 . S
H126 C108 0.932 . S
C127 C128 1.386 . S
C127 C129 1.397 . S
C127 H151 0.931 . S
C128 C127 1.386 . S
C128 C132 1.397 . S
C129 C127 1.397 . S
C129 C130 1.384 . S
C129 H152 0.930 . S
C130 C129 1.384 . S
C130 C131 1.377 . S
C130 C133 1.481 . S
C131 C130 1.377 . S
C131 C132 1.389 . S
C131 H153 0.929 . S
C132 C128 1.397 . S
C132 C131 1.389 . S
C132 H154 0.931 . S
C133 C130 1.481 . S
C133 C134 1.387 . S
C133 C138 1.390 . S
C134 C133 1.387 . S
C134 C135 1.401 . S
C134 H155 0.930 . S
C135 C134 1.401 . S
C135 C136 1.376 . S
C135 C144 1.511 . S
C136 C135 1.376 . S
C136 C137 1.392 . S
C136 H157 0.931 . S
C137 C136 1.392 . S
C137 C138 1.361 . S
C137 C139 1.500 . S
C138 C133 1.390 . S
C138 C137 1.361 . S
C138 H156 0.931 . S
C139 C137 1.500 . S
C139 C140 1.371 . S
C139 C141 1.365 . S
C140 C139 1.371 . S
C140 C150 1.386 . S
C140 H158 0.931 . S
C141 C139 1.365 . S
C141 C142 1.409 . S
C141 H159 0.929 . S
C142 C141 1.409 . S
C142 C143 1.380 . S
C142 H160 0.930 . S
C143 C142 1.380 . S
C143 C150 1.357 . S
C144 C135 1.511 . S
C144 C145 1.341 . S
C144 C146 1.371 . S
C145 C144 1.341 . S
C145 C149 1.394 . S
C145 H161 0.930 . S
C146 C144 1.371 . S
C146 C147 1.392 . S
C146 H162 0.931 . S
C147 C146 1.392 . S
C147 C148 1.331 . S
C147 H165 0.932 . S
C148 C147 1.331 . S
C148 C149 1.336 . S
C149 C145 1.394 . S
C149 C148 1.336 . S
C149 H164 0.929 . S
C150 C140 1.386 . S
C150 C143 1.357 . S
C150 H163 0.928 . S
H151 C127 0.931 . S
H152 C129 0.930 . S
H153 C131 0.929 . S
H154 C132 0.931 . S
H155 C134 0.930 . S
H156 C138 0.931 . S
H157 C136 0.931 . S
H158 C140 0.931 . S
H159 C141 0.929 . S
H160 C142 0.930 . S
H161 C145 0.930 . S
H162 C146 0.931 . S
H163 C150 0.928 . S
H164 C149 0.929 . S
H165 C147 0.932 . S
C166 C167 1.386 . S
C166 C168 1.397 . S
C166 H190 0.931 . S
C167 C166 1.386 . S
C167 C171 1.397 . S
C168 C166 1.397 . S
C168 C169 1.384 . S
C168 H191 0.930 . S
C169 C168 1.384 . S
C169 C170 1.377 . S
C169 C172 1.481 . S
C170 C169 1.377 . S
C170 C171 1.389 . S
C170 H192 0.929 . S
C171 C167 1.397 . S
C171 C170 1.389 . S
C171 H193 0.931 . S
C172 C169 1.481 . S
C172 C173 1.387 . S
C172 C177 1.390 . S
C173 C172 1.387 . S
C173 C174 1.401 . S
C173 H194 0.930 . S
C174 C173 1.401 . S
C174 C175 1.376 . S
C174 C183 1.511 . S
C175 C174 1.376 . S
C175 C176 1.392 . S
C175 H196 0.931 . S
C176 C175 1.392 . S
C176 C177 1.361 . S
C176 C178 1.500 . S
C177 C172 1.390 . S
C177 C176 1.361 . S
C177 H195 0.931 . S
C178 C176 1.500 . S
C178 C179 1.371 . S
C178 C180 1.365 . S
C179 C178 1.371 . S
C179 C189 1.386 . S
C179 H197 0.931 . S
C180 C178 1.365 . S
C180 C181 1.409 . S
C180 H198 0.929 . S
C181 C180 1.409 . S
C181 C182 1.380 . S
C181 H199 0.930 . S
C182 C181 1.380 . S
C182 C189 1.357 . S
C183 C174 1.511 . S
C183 C184 1.341 . S
C183 C185 1.371 . S
C184 C183 1.341 . S
C184 C188 1.394 . S
C184 H200 0.930 . S
C185 C183 1.371 . S
C185 C186 1.392 . S
C185 H201 0.931 . S
C186 C185 1.392 . S
C186 C187 1.331 . S
C186 H204 0.932 . S
C187 C186 1.331 . S
C187 C188 1.336 . S
C188 C184 1.394 . S
C188 C187 1.336 . S
C188 H203 0.929 . S
C189 C179 1.386 . S
C189 C182 1.357 . S
C189 H202 0.928 . S
H190 C166 0.931 . S
H191 C168 0.930 . S
H192 C170 0.929 . S
H193 C171 0.931 . S
H194 C173 0.930 . S
H195 C177 0.931 . S
H196 C175 0.931 . S
H197 C179 0.931 . S
H198 C180 0.929 . S
H199 C181 0.930 . S
H200 C184 0.930 . S
H201 C185 0.931 . S
H202 C189 0.928 . S
H203 C188 0.929 . S
H204 C186 0.932 . S
C205 C206 1.386 . S
C205 C207 1.397 . S
C205 H229 0.931 . S
C206 C205 1.386 . S
C206 C210 1.397 . S
C207 C205 1.397 . S
C207 C208 1.384 . S
C207 H230 0.930 . S
C208 C207 1.384 . S
C208 C209 1.377 . S
C208 C211 1.481 . S
C209 C208 1.377 . S
C209 C210 1.389 . S
C209 H231 0.929 . S
C210 C206 1.397 . S
C210 C209 1.389 . S
C210 H232 0.931 . S
C211 C208 1.481 . S
C211 C212 1.387 . S
C211 C216 1.390 . S
C212 C211 1.387 . S
C212 C213 1.401 . S
C212 H233 0.930 . S
C213 C212 1.401 . S
C213 C214 1.376 . S
C213 C222 1.511 . S
C214 C213 1.376 . S
C214 C215 1.392 . S
C214 H235 0.931 . S
C215 C214 1.392 . S
C215 C216 1.361 . S
C215 C217 1.500 . S
C216 C211 1.390 . S
C216 C215 1.361 . S
C216 H234 0.931 . S
C217 C215 1.500 . S
C217 C218 1.371 . S
C217 C219 1.365 . S
C218 C217 1.371 . S
C218 C228 1.386 . S
C218 H236 0.931 . S
C219 C217 1.365 . S
C219 C220 1.409 . S
C219 H237 0.929 . S
C220 C219 1.409 . S
C220 C221 1.380 . S
C220 H238 0.930 . S
C221 C220 1.380 . S
C221 C228 1.357 . S
C222 C213 1.511 . S
C222 C223 1.341 . S
C222 C224 1.371 . S
C223 C222 1.341 . S
C223 C227 1.394 . S
C223 H239 0.930 . S
C224 C222 1.371 . S
C224 C225 1.392 . S
C224 H240 0.931 . S
C225 C224 1.392 . S
C225 C226 1.331 . S
C225 H243 0.932 . S
C226 C225 1.331 . S
C226 C227 1.336 . S
C227 C223 1.394 . S
C227 C226 1.336 . S
C227 H242 0.929 . S
C228 C218 1.386 . S
C228 C221 1.357 . S
C228 H241 0.928 . S
H229 C205 0.931 . S
H230 C207 0.930 . S
H231 C209 0.929 . S
H232 C210 0.931 . S
H233 C212 0.930 . S
H234 C216 0.931 . S
H235 C214 0.931 . S
H236 C218 0.931 . S
H237 C219 0.929 . S
H238 C220 0.930 . S
H239 C223 0.930 . S
H240 C224 0.931 . S
H241 C228 0.928 . S
H242 C227 0.929 . S
H243 C225 0.932 . S
C244 C245 1.386 . S
C244 C246 1.397 . S
C244 H268 0.931 . S
C245 C244 1.386 . S
C245 C249 1.397 . S
C246 C244 1.397 . S
C246 C247 1.384 . S
C246 H269 0.930 . S
C247 C246 1.384 . S
C247 C248 1.377 . S
C247 C250 1.481 . S
C248 C247 1.377 . S
C248 C249 1.389 . S
C248 H270 0.929 . S
C249 C245 1.397 . S
C249 C248 1.389 . S
C249 H271 0.931 . S
C250 C247 1.481 . S
C250 C251 1.387 . S
C250 C255 1.390 . S
C251 C250 1.387 . S
C251 C252 1.401 . S
C251 H272 0.930 . S
C252 C251 1.401 . S
C252 C253 1.376 . S
C252 C261 1.511 . S
C253 C252 1.376 . S
C253 C254 1.392 . S
C253 H274 0.931 . S
C254 C253 1.392 . S
C254 C255 1.361 . S
C254 C256 1.500 . S
C255 C250 1.390 . S
C255 C254 1.361 . S
C255 H273 0.931 . S
C256 C254 1.500 . S
C256 C257 1.371 . S
C256 C258 1.365 . S
C257 C256 1.371 . S
C257 C267 1.386 . S
C257 H275 0.931 . S
C258 C256 1.365 . S
C258 C259 1.409 . S
C258 H276 0.929 . S
C259 C258 1.409 . S
C259 C260 1.380 . S
C259 H277 0.930 . S
C260 C259 1.380 . S
C260 C267 1.357 . S
C261 C252 1.511 . S
C261 C262 1.341 . S
C261 C263 1.371 . S
C262 C261 1.341 . S
C262 C266 1.394 . S
C262 H278 0.930 . S
C263 C261 1.371 . S
C263 C264 1.392 . S
C263 H279 0.931 . S
C264 C263 1.392 . S
C264 C265 1.331 . S
C264 H282 0.932 . S
C265 C264 1.331 . S
C265 C266 1.336 . S
C266 C262 1.394 . S
C266 C265 1.336 . S
C266 H281 0.929 . S
C267 C257 1.386 . S
C267 C260 1.357 . S
C267 H280 0.928 . S
H268 C244 0.931 . S
H269 C246 0.930 . S
H270 C248 0.929 . S
H271 C249 0.931 . S
H272 C251 0.930 . S
H273 C255 0.931 . S
H274 C253 0.931 . S
H275 C257 0.931 . S
H276 C258 0.929 . S
H277 C259 0.930 . S
H278 C262 0.930 . S
H279 C263 0.931 . S
H280 C267 0.928 . S
H281 C266 0.929 . S
H282 C264 0.932 . S
C283 C284 1.386 . S
C283 C285 1.397 . S
C283 H307 0.931 . S
C284 C283 1.386 . S
C284 C288 1.397 . S
C285 C283 1.397 . S
C285 C286 1.384 . S
C285 H308 0.930 . S
C286 C285 1.384 . S
C286 C287 1.377 . S
C286 C289 1.481 . S
C287 C286 1.377 . S
C287 C288 1.389 . S
C287 H309 0.929 . S
C288 C284 1.397 . S
C288 C287 1.389 . S
C288 H310 0.931 . S
C289 C286 1.481 . S
C289 C290 1.387 . S
C289 C294 1.390 . S
C290 C289 1.387 . S
C290 C291 1.401 . S
C290 H311 0.930 . S
C291 C290 1.401 . S
C291 C292 1.376 . S
C291 C300 1.511 . S
C292 C291 1.376 . S
C292 C293 1.392 . S
C292 H313 0.931 . S
C293 C292 1.392 . S
C293 C294 1.361 . S
C293 C295 1.500 . S
C294 C289 1.390 . S
C294 C293 1.361 . S
C294 H312 0.931 . S
C295 C293 1.500 . S
C295 C296 1.371 . S
C295 C297 1.365 . S
C296 C295 1.371 . S
C296 C306 1.386 . S
C296 H314 0.931 . S
C297 C295 1.365 . S
C297 C298 1.409 . S
C297 H315 0.929 . S
C298 C297 1.409 . S
C298 C299 1.380 . S
C298 H316 0.930 . S
C299 C298 1.380 . S
C299 C306 1.357 . S
C300 C291 1.511 . S
C300 C301 1.341 . S
C300 C302 1.371 . S
C301 C300 1.341 . S
C301 C305 1.394 . S
C301 H317 0.930 . S
C302 C300 1.371 . S
C302 C303 1.392 . S
C302 H318 0.931 . S
C303 C302 1.392 . S
C303 C304 1.331 . S
C303 H321 0.932 . S
C304 C303 1.331 . S
C304 C305 1.336 . S
C305 C301 1.394 . S
C305 C304 1.336 . S
C305 H320 0.929 . S
C306 C296 1.386 . S
C306 C299 1.357 . S
C306 H319 0.928 . S
H307 C283 0.931 . S
H308 C285 0.930 . S
H309 C287 0.929 . S
H310 C288 0.931 . S
H311 C290 0.930 . S
H312 C294 0.931 . S
H313 C292 0.931 . S
H314 C296 0.931 . S
H315 C297 0.929 . S
H316 C298 0.930 . S
H317 C301 0.930 . S
H318 C302 0.931 . S
H319 C306 0.928 . S
H320 C305 0.929 . S
H321 C303 0.932 . S
C322 C323 1.386 . S
C322 C324 1.397 . S
C322 H346 0.931 . S
C323 C322 1.386 . S
C323 C327 1.397 . S
C324 C322 1.397 . S
C324 C325 1.384 . S
C324 H347 0.930 . S
C325 C324 1.384 . S
C325 C326 1.377 . S
C325 C328 1.481 . S
C326 C325 1.377 . S
C326 C327 1.389 . S
C326 H348 0.929 . S
C327 C323 1.397 . S
C327 C326 1.389 . S
C327 H349 0.931 . S
C328 C325 1.481 . S
C328 C329 1.387 . S
C328 C333 1.390 . S
C329 C328 1.387 . S
C329 C330 1.401 . S
C329 H350 0.930 . S
C330 C329 1.401 . S
C330 C331 1.376 . S
C330 C339 1.511 . S
C331 C330 1.376 . S
C331 C332 1.392 . S
C331 H352 0.931 . S
C332 C331 1.392 . S
C332 C333 1.361 . S
C332 C334 1.500 . S
C333 C328 1.390 . S
C333 C332 1.361 . S
C333 H351 0.931 . S
C334 C332 1.500 . S
C334 C335 1.371 . S
C334 C336 1.365 . S
C335 C334 1.371 . S
C335 C345 1.386 . S
C335 H353 0.931 . S
C336 C334 1.365 . S
C336 C337 1.409 . S
C336 H354 0.929 . S
C337 C336 1.409 . S
C337 C338 1.380 . S
C337 H355 0.930 . S
C338 C337 1.380 . S
C338 C345 1.357 . S
C339 C330 1.511 . S
C339 C340 1.341 . S
C339 C341 1.371 . S
C340 C339 1.341 . S
C340 C344 1.394 . S
C340 H356 0.930 . S
C341 C339 1.371 . S
C341 C342 1.392 . S
C341 H357 0.931 . S
C342 C341 1.392 . S
C342 C343 1.331 . S
C342 H360 0.932 . S
C343 C342 1.331 . S
C343 C344 1.336 . S
C344 C340 1.394 . S
C344 C343 1.336 . S
C344 H359 0.929 . S
C345 C335 1.386 . S
C345 C338 1.357 . S
C345 H358 0.928 . S
H346 C322 0.931 . S
H347 C324 0.930 . S
H348 C326 0.929 . S
H349 C327 0.931 . S
H350 C329 0.930 . S
H351 C333 0.931 . S
H352 C331 0.931 . S
H353 C335 0.931 . S
H354 C336 0.929 . S
H355 C337 0.930 . S
H356 C340 0.930 . S
H357 C341 0.931 . S
H358 C345 0.928 . S
H359 C344 0.929 . S
H360 C342 0.932 . S
C361 C362 1.386 . S
C361 C363 1.397 . S
C361 H385 0.931 . S
C362 C361 1.386 . S
C362 C366 1.397 . S
C363 C361 1.397 . S
C363 C364 1.384 1_455 S
C363 H386 0.930 . S
C364 C363 1.384 1_655 S
C364 C365 1.377 . S
C364 C367 1.481 . S
C365 C364 1.377 . S
C365 C366 1.389 1_655 S
C365 H387 0.929 . S
C366 C362 1.397 . S
C366 C365 1.389 1_455 S
C366 H388 0.931 . S
C367 C364 1.481 . S
C367 C368 1.387 . S
C367 C372 1.390 . S
C368 C367 1.387 . S
C368 C369 1.401 . S
C368 H389 0.930 . S
C369 C368 1.401 . S
C369 C370 1.376 . S
C369 C378 1.511 . S
C370 C369 1.376 . S
C370 C371 1.392 . S
C370 H391 0.931 . S
C371 C370 1.392 . S
C371 C372 1.361 . S
C371 C373 1.500 . S
C372 C367 1.390 . S
C372 C371 1.361 . S
C372 H390 0.931 . S
C373 C371 1.500 . S
C373 C374 1.371 . S
C373 C375 1.365 . S
C374 C373 1.371 . S
C374 C384 1.386 . S
C374 H392 0.931 . S
C375 C373 1.365 . S
C375 C376 1.409 . S
C375 H393 0.929 . S
C376 C375 1.409 . S
C376 C377 1.380 . S
C376 H394 0.930 . S
C377 C376 1.380 . S
C377 C384 1.357 . S
C378 C369 1.511 . S
C378 C379 1.341 . S
C378 C380 1.371 . S
C379 C378 1.341 . S
C379 C383 1.394 . S
C379 H395 0.930 . S
C380 C378 1.371 . S
C380 C381 1.392 . S
C380 H396 0.931 . S
C381 C380 1.392 . S
C381 C382 1.331 . S
C381 H399 0.932 . S
C382 C381 1.331 . S
C382 C383 1.336 . S
C383 C379 1.394 . S
C383 C382 1.336 . S
C383 H398 0.929 . S
C384 C374 1.386 . S
C384 C377 1.357 . S
C384 H397 0.928 . S
H385 C361 0.931 . S
H386 C363 0.930 . S
H387 C365 0.929 . S
H388 C366 0.931 . S
H389 C368 0.930 . S
H390 C372 0.931 . S
H391 C370 0.931 . S
H392 C374 0.931 . S
H393 C375 0.929 . S
H394 C376 0.930 . S
H395 C379 0.930 . S
H396 C380 0.931 . S
H397 C384 0.928 . S
H398 C383 0.929 . S
H399 C381 0.932 . S
H400 C408 0.950 . S
H401 C413 0.950 . S
H402 C410 0.950 . S
H403 C412 0.950 . S
H404 C414 0.950 . S
H405 C416 0.950 . S
H406 C418 0.950 . S
H407 C419 0.950 . S
C408 H400 0.950 . S
C408 C409 1.386 . S
C408 C410 1.391 . S
C409 C408 1.386 . S
C409 C413 1.393 . S
C410 H402 0.950 . S
C410 C408 1.391 . S
C410 C411 1.400 . S
C411 C410 1.400 . S
C411 C412 1.398 . S
C411 C417 1.491 . S
C412 H403 0.950 . S
C412 C411 1.398 . S
C412 C413 1.391 . S
C413 H401 0.950 . S
C413 C409 1.393 . S
C413 C412 1.391 . S
C414 H404 0.950 . S
C414 C415 1.386 . S
C414 C416 1.391 . S
C415 C414 1.386 . S
C415 C419 1.393 . S
C416 H405 0.950 . S
C416 C414 1.391 . S
C416 C417 1.400 . S
C417 C411 1.491 . S
C417 C416 1.400 . S
C417 C418 1.398 . S
C418 H406 0.950 . S
C418 C417 1.398 . S
C418 C419 1.391 . S
C419 H407 0.950 . S
C419 C415 1.393 . S
C419 C418 1.391 . S
H420 C428 0.950 . S
H421 C433 0.950 . S
H422 C430 0.950 . S
H423 C432 0.950 . S
H424 C434 0.950 . S
H425 C436 0.950 . S
H426 C438 0.950 . S
H427 C439 0.950 . S
C428 H420 0.950 . S
C428 C429 1.386 . S
C428 C430 1.391 . S
C429 C428 1.386 . S
C429 C433 1.393 . S
C430 H422 0.950 . S
C430 C428 1.391 . S
C430 C431 1.400 . S
C431 C430 1.400 . S
C431 C432 1.398 . S
C431 C437 1.491 . S
C432 H423 0.950 . S
C432 C431 1.398 . S
C432 C433 1.391 . S
C433 H421 0.950 . S
C433 C429 1.393 . S
C433 C432 1.391 . S
C434 H424 0.950 . S
C434 C435 1.386 . S
C434 C436 1.391 . S
C435 C434 1.386 . S
C435 C439 1.393 . S
C436 H425 0.950 . S
C436 C434 1.391 . S
C436 C437 1.400 . S
C437 C431 1.491 . S
C437 C436 1.400 . S
C437 C438 1.398 . S
C438 H426 0.950 . S
C438 C437 1.398 . S
C438 C439 1.391 . S
C439 H427 0.950 . S
C439 C435 1.393 . S
C439 C438 1.391 . S
H440 C448 0.950 . S
H441 C453 0.950 . S
H442 C450 0.950 . S
H443 C452 0.950 . S
H444 C454 0.950 . S
H445 C456 0.950 . S
H446 C458 0.950 . S
H447 C459 0.950 . S
C448 H440 0.950 . S
C448 C449 1.386 . S
C448 C450 1.391 . S
C449 C448 1.386 . S
C449 C453 1.393 . S
C450 H442 0.950 . S
C450 C448 1.391 . S
C450 C451 1.400 . S
C451 C450 1.400 . S
C451 C452 1.398 . S
C451 C457 1.491 . S
C452 H443 0.950 . S
C452 C451 1.398 . S
C452 C453 1.391 . S
C453 H441 0.950 . S
C453 C449 1.393 . S
C453 C452 1.391 . S
C454 H444 0.950 . S
C454 C455 1.386 . S
C454 C456 1.391 . S
C455 C454 1.386 . S
C455 C459 1.393 1_565 S
C456 H445 0.950 . S
C456 C454 1.391 . S
C456 C457 1.400 1_565 S
C457 C451 1.491 . S
C457 C456 1.400 1_545 S
C457 C458 1.398 . S
C458 H446 0.950 . S
C458 C457 1.398 . S
C458 C459 1.391 . S
C459 H447 0.950 . S
C459 C455 1.393 1_545 S
C459 C458 1.391 . S
H460 C468 0.950 . S
H461 C473 0.950 . S
H462 C470 0.950 . S
H463 C472 0.950 . S
H464 C474 0.950 . S
H465 C476 0.950 . S
H466 C478 0.950 . S
H467 C479 0.950 . S
C468 H460 0.950 . S
C468 C469 1.386 . S
C468 C470 1.391 . S
C469 C468 1.386 . S
C469 C473 1.393 . S
C470 H462 0.950 . S
C470 C468 1.391 . S
C470 C471 1.400 . S
C471 C470 1.400 . S
C471 C472 1.398 . S
C471 C477 1.491 . S
C472 H463 0.950 . S
C472 C471 1.398 . S
C472 C473 1.391 . S
C473 H461 0.950 . S
C473 C469 1.393 . S
C473 C472 1.391 . S
C474 H464 0.950 . S
C474 C475 1.386 . S
C474 C476 1.391 . S
C475 C474 1.386 . S
C475 C479 1.393 . S
C476 H465 0.950 . S
C476 C474 1.391 . S
C476 C477 1.400 . S
C477 C471 1.491 . S
C477 C476 1.400 . S
C477 C478 1.398 . S
C478 H466 0.950 . S
C478 C477 1.398 . S
C478 C479 1.391 . S
C479 H467 0.950 . S
C479 C475 1.393 . S
C479 C478 1.391 . S
H480 C488 0.950 . S
H481 C493 0.950 . S
H482 C490 0.950 . S
H483 C492 0.950 . S
H484 C494 0.950 . S
H485 C496 0.950 . S
H486 C498 0.950 . S
H487 C499 0.950 . S
C488 H480 0.950 . S
C488 C489 1.386 . S
C488 C490 1.391 . S
C489 C488 1.386 . S
C489 C493 1.393 . S
C490 H482 0.950 . S
C490 C488 1.391 . S
C490 C491 1.400 . S
C491 C490 1.400 . S
C491 C492 1.398 . S
C491 C497 1.491 . S
C492 H483 0.950 . S
C492 C491 1.398 . S
C492 C493 1.391 . S
C493 H481 0.950 . S
C493 C489 1.393 . S
C493 C492 1.391 . S
C494 H484 0.950 . S
C494 C495 1.386 . S
C494 C496 1.391 . S
C495 C494 1.386 . S
C495 C499 1.393 . S
C496 H485 0.950 . S
C496 C494 1.391 . S
C496 C497 1.400 . S
C497 C491 1.491 . S
C497 C496 1.400 . S
C497 C498 1.398 . S
C498 H486 0.950 . S
C498 C497 1.398 . S
C498 C499 1.391 . S
C499 H487 0.950 . S
C499 C495 1.393 . S
C499 C498 1.391 . S
H500 C508 0.950 . S
H501 C513 0.947 . S
H502 C510 0.950 . S
H503 C512 0.950 1_455 S
H504 C514 0.950 . S
H505 C516 0.950 . S
H506 C518 0.950 . S
H507 C519 0.950 . S
C508 H500 0.950 . S
C508 C509 1.386 . S
C508 C510 1.391 . S
C509 C508 1.386 . S
C509 C513 1.393 . S
C510 H502 0.950 . S
C510 C508 1.391 . S
C510 C511 1.400 1_655 S
C511 C510 1.400 1_455 S
C511 C512 1.398 1_455 S
C511 C517 1.491 . S
C512 H503 0.950 1_655 S
C512 C511 1.398 1_655 S
C512 C513 1.391 . S
C513 H501 0.947 . S
C513 C509 1.393 . S
C513 C512 1.391 . S
C514 H504 0.950 . S
C514 C515 1.386 . S
C514 C516 1.391 . S
C515 C514 1.386 . S
C515 C519 1.393 . S
C516 H505 0.950 . S
C516 C514 1.391 . S
C516 C517 1.400 . S
C517 C511 1.491 . S
C517 C516 1.400 . S
C517 C518 1.398 . S
C518 H506 0.950 . S
C518 C517 1.398 . S
C518 C519 1.391 . S
C519 H507 0.950 . S
C519 C515 1.393 . S
C519 C518 1.391 . S
H520 C528 0.950 . S
H521 C533 0.950 . S
H522 C530 0.950 . S
H523 C532 0.950 . S
H524 C534 0.950 . S
H525 C536 0.950 . S
H526 C538 0.950 . S
H527 C539 0.950 . S
C528 H520 0.950 . S
C528 C529 1.386 . S
C528 C530 1.391 . S
C529 C528 1.386 . S
C529 C533 1.393 . S
C530 H522 0.950 . S
C530 C528 1.391 . S
C530 C531 1.400 . S
C531 C530 1.400 . S
C531 C532 1.398 . S
C531 C537 1.491 . S
C532 H523 0.950 . S
C532 C531 1.398 . S
C532 C533 1.391 . S
C533 H521 0.950 . S
C533 C529 1.393 . S
C533 C532 1.391 . S
C534 H524 0.950 . S
C534 C535 1.386 . S
C534 C536 1.391 . S
C535 C534 1.386 . S
C535 C539 1.393 . S
C536 H525 0.950 . S
C536 C534 1.391 . S
C536 C537 1.400 . S
C537 C531 1.491 . S
C537 C536 1.400 . S
C537 C538 1.398 . S
C538 H526 0.950 . S
C538 C537 1.398 . S
C538 C539 1.391 . S
C539 H527 0.950 . S
C539 C535 1.393 . S
C539 C538 1.391 . S
H540 C548 0.950 . S
H541 C553 0.950 . S
H542 C550 0.950 . S
H543 C552 0.950 . S
H544 C554 0.950 . S
H545 C556 0.950 . S
H546 C558 0.950 . S
H547 C559 0.950 . S
C548 H540 0.950 . S
C548 C549 1.386 . S
C548 C550 1.391 . S
C549 C548 1.386 . S
C549 C553 1.393 . S
C550 H542 0.950 . S
C550 C548 1.391 . S
C550 C551 1.400 . S
C551 C550 1.400 . S
C551 C552 1.398 . S
C551 C557 1.491 . S
C552 H543 0.950 . S
C552 C551 1.398 . S
C552 C553 1.391 . S
C553 H541 0.950 . S
C553 C549 1.393 . S
C553 C552 1.391 . S
C554 H544 0.950 . S
C554 C555 1.386 . S
C554 C556 1.391 . S
C555 C554 1.386 . S
C555 C559 1.393 . S
C556 H545 0.950 . S
C556 C554 1.391 . S
C556 C557 1.400 . S
C557 C551 1.491 . S
C557 C556 1.400 . S
C557 C558 1.398 . S
C558 H546 0.950 . S
C558 C557 1.398 . S
C558 C559 1.391 . S
C559 H547 0.950 . S
C559 C555 1.393 . S
C559 C558 1.391 . S
H560 C568 0.950 . S
H561 C573 0.950 . S
H562 C570 0.950 . S
H563 C572 0.950 . S
H564 C574 0.950 1_565 S
H565 C576 0.950 . S
H566 C578 0.950 . S
H567 C579 0.950 . S
C568 H560 0.950 . S
C568 C569 1.386 . S
C568 C570 1.391 . S
C569 C568 1.386 . S
C569 C573 1.393 . S
C570 H562 0.950 . S
C570 C568 1.391 . S
C570 C571 1.400 . S
C571 C570 1.400 . S
C571 C572 1.398 . S
C571 C577 1.491 . S
C572 H563 0.950 . S
C572 C571 1.398 . S
C572 C573 1.391 . S
C573 H561 0.950 . S
C573 C569 1.393 . S
C573 C572 1.391 . S
C574 H564 0.950 1_545 S
C574 C575 1.386 . S
C574 C576 1.391 . S
C575 C574 1.386 . S
C575 C579 1.393 . S
C576 H565 0.950 . S
C576 C574 1.391 . S
C576 C577 1.400 . S
C577 C571 1.491 . S
C577 C576 1.400 . S
C577 C578 1.398 . S
C578 H566 0.950 . S
C578 C577 1.398 . S
C578 C579 1.391 . S
C579 H567 0.950 . S
C579 C575 1.393 . S
C579 C578 1.391 . S
H580 C588 0.950 . S
H581 C593 0.950 . S
H582 C590 0.950 . S
H583 C592 0.950 . S
H584 C594 0.950 . S
H585 C596 0.950 . S
H586 C598 0.950 . S
H587 C599 0.950 . S
C588 H580 0.950 . S
C588 C589 1.386 . S
C588 C590 1.391 . S
C589 C588 1.386 . S
C589 C593 1.393 . S
C590 H582 0.950 . S
C590 C588 1.391 . S
C590 C591 1.400 . S
C591 C590 1.400 . S
C591 C592 1.398 . S
C591 C597 1.491 . S
C592 H583 0.950 . S
C592 C591 1.398 . S
C592 C593 1.391 . S
C593 H581 0.950 . S
C593 C589 1.393 . S
C593 C592 1.391 . S
C594 H584 0.950 . S
C594 C595 1.386 . S
C594 C596 1.391 . S
C595 C594 1.386 . S
C595 C599 1.393 . S
C596 H585 0.950 . S
C596 C594 1.391 . S
C596 C597 1.400 . S
C597 C591 1.491 . S
C597 C596 1.400 . S
C597 C598 1.398 . S
C598 H586 0.950 . S
C598 C597 1.398 . S
C598 C599 1.391 . S
C599 H587 0.950 . S
C599 C595 1.393 . S
C599 C598 1.391 . S
H600 C608 0.950 . S
H601 C613 0.950 . S
H602 C610 0.950 1_554 S
H603 C612 0.950 . S
H604 C614 0.950 . S
H605 C616 0.950 . S
H606 C618 0.950 . S
H607 C619 0.950 . S
C608 H600 0.950 . S
C608 C609 1.380 1_554 S
C608 C610 1.391 1_554 S
C609 C608 1.380 1_556 S
C609 C613 1.411 . S
C610 H602 0.950 1_556 S
C610 C608 1.391 1_556 S
C610 C611 1.400 . S
C611 C610 1.400 . S
C611 C612 1.398 . S
C611 C617 1.491 . S
C612 H603 0.950 . S
C612 C611 1.398 . S
C612 C613 1.391 . S
C613 H601 0.950 . S
C613 C609 1.411 . S
C613 C612 1.391 . S
C614 H604 0.950 . S
C614 C615 1.386 . S
C614 C616 1.391 1_545 S
C615 C614 1.386 . S
C615 C619 1.393 . S
C616 H605 0.950 . S
C616 C614 1.391 1_565 S
C616 C617 1.400 . S
C617 C611 1.491 . S
C617 C616 1.400 . S
C617 C618 1.398 . S
C618 H606 0.950 . S
C618 C617 1.398 . S
C618 C619 1.391 1_565 S
C619 H607 0.950 . S
C619 C615 1.393 . S
C619 C618 1.391 1_545 S
H620 C628 0.950 . S
H621 C633 0.950 . S
H622 C630 0.950 . S
H623 C632 0.950 . S
H624 C634 0.950 . S
H625 C636 0.950 . S
H626 C638 0.950 . S
H627 C639 0.950 . S
C628 H620 0.950 . S
C628 C629 1.386 . S
C628 C630 1.391 . S
C629 C628 1.386 . S
C629 C633 1.393 . S
C630 H622 0.950 . S
C630 C628 1.391 . S
C630 C631 1.400 . S
C631 C630 1.400 . S
C631 C632 1.398 . S
C631 C637 1.491 . S
C632 H623 0.950 . S
C632 C631 1.398 . S
C632 C633 1.391 . S
C633 H621 0.950 . S
C633 C629 1.393 . S
C633 C632 1.391 . S
C634 H624 0.950 . S
C634 C635 1.386 . S
C634 C636 1.391 . S
C635 C634 1.386 . S
C635 C639 1.393 . S
C636 H625 0.950 . S
C636 C634 1.391 . S
C636 C637 1.400 . S
C637 C631 1.491 . S
C637 C636 1.400 . S
C637 C638 1.398 . S
C638 H626 0.950 . S
C638 C637 1.398 . S
C638 C639 1.391 . S
C639 H627 0.950 . S
C639 C635 1.393 . S
C639 C638 1.391 . S
H640 C648 0.950 . S
H641 C653 0.950 . S
H642 C650 0.950 . S
H643 C652 0.950 . S
H644 C654 0.950 . S
H645 C656 0.950 . S
H646 C658 0.950 . S
H647 C659 0.950 . S
C648 H640 0.950 . S
C648 C649 1.386 . S
C648 C650 1.391 . S
C649 C648 1.386 . S
C649 C653 1.393 . S
C650 H642 0.950 . S
C650 C648 1.391 . S
C650 C651 1.400 . S
C651 C650 1.400 . S
C651 C652 1.398 . S
C651 C657 1.491 . S
C652 H643 0.950 . S
C652 C651 1.398 . S
C652 C653 1.391 . S
C653 H641 0.950 . S
C653 C649 1.393 . S
C653 C652 1.391 . S
C654 H644 0.950 . S
C654 C655 1.386 . S
C654 C656 1.391 . S
C655 C654 1.386 . S
C655 C659 1.393 . S
C656 H645 0.950 . S
C656 C654 1.391 . S
C656 C657 1.400 . S
C657 C651 1.491 . S
C657 C656 1.400 . S
C657 C658 1.398 . S
C658 H646 0.950 . S
C658 C657 1.398 . S
C658 C659 1.391 . S
C659 H647 0.950 . S
C659 C655 1.393 . S
C659 C658 1.391 . S
H660 C668 0.950 . S
H661 C673 0.950 . S
H662 C670 0.950 1_655 S
H663 C672 0.950 . S
H664 C674 0.950 . S
H665 C676 0.950 . S
H666 C678 0.950 . S
H667 C679 0.950 . S
C668 H660 0.950 . S
C668 C669 1.386 . S
C668 C670 1.391 . S
C669 C668 1.386 . S
C669 C673 1.393 . S
C670 H662 0.950 1_455 S
C670 C668 1.391 . S
C670 C671 1.400 1_455 S
C671 C670 1.400 1_655 S
C671 C672 1.398 1_655 S
C671 C677 1.491 . S
C672 H663 0.950 . S
C672 C671 1.398 1_455 S
C672 C673 1.391 . S
C673 H661 0.950 . S
C673 C669 1.393 . S
C673 C672 1.391 . S
C674 H664 0.950 . S
C674 C675 1.386 . S
C674 C676 1.391 . S
C675 C674 1.386 . S
C675 C679 1.393 . S
C676 H665 0.950 . S
C676 C674 1.391 . S
C676 C677 1.400 . S
C677 C671 1.491 . S
C677 C676 1.400 . S
C677 C678 1.398 . S
C678 H666 0.950 . S
C678 C677 1.398 . S
C678 C679 1.391 . S
C679 H667 0.950 . S
C679 C675 1.393 . S
C679 C678 1.391 . S
H680 C688 0.950 . S
H681 C693 0.950 . S
H682 C690 0.950 . S
H683 C692 0.950 . S
H684 C694 0.950 . S
H685 C696 0.950 . S
H686 C698 0.950 . S
H687 C699 0.950 . S
C688 H680 0.950 . S
C688 C689 1.386 . S
C688 C690 1.391 . S
C689 C688 1.386 . S
C689 C693 1.393 . S
C690 H682 0.950 . S
C690 C688 1.391 . S
C690 C691 1.400 . S
C691 C690 1.400 . S
C691 C692 1.398 . S
C691 C697 1.491 . S
C692 H683 0.950 . S
C692 C691 1.398 . S
C692 C693 1.391 . S
C693 H681 0.950 . S
C693 C689 1.393 . S
C693 C692 1.391 . S
C694 H684 0.950 . S
C694 C695 1.386 . S
C694 C696 1.391 . S
C695 C694 1.386 . S
C695 C699 1.393 . S
C696 H685 0.950 . S
C696 C694 1.391 . S
C696 C697 1.400 . S
C697 C691 1.491 . S
C697 C696 1.400 . S
C697 C698 1.398 . S
C698 H686 0.950 . S
C698 C697 1.398 . S
C698 C699 1.391 . S
C699 H687 0.950 . S
C699 C695 1.393 . S
C699 C698 1.391 . S
H700 C708 0.950 . S
H701 C713 0.950 . S
H702 C710 0.950 . S
H703 C712 0.950 . S
H704 C714 0.950 . S
H705 C716 0.950 . S
H706 C718 0.950 . S
H707 C719 0.950 . S
C708 H700 0.950 . S
C708 C709 1.386 . S
C708 C710 1.391 . S
C709 C708 1.386 . S
C709 C713 1.393 . S
C710 H702 0.950 . S
C710 C708 1.391 . S
C710 C711 1.400 . S
C711 C710 1.400 . S
C711 C712 1.398 . S
C711 C717 1.491 . S
C712 H703 0.950 . S
C712 C711 1.398 . S
C712 C713 1.391 . S
C713 H701 0.950 . S
C713 C709 1.393 . S
C713 C712 1.391 . S
C714 H704 0.950 . S
C714 C715 1.386 . S
C714 C716 1.391 . S
C715 C714 1.386 . S
C715 C719 1.393 . S
C716 H705 0.950 . S
C716 C714 1.391 . S
C716 C717 1.400 . S
C717 C711 1.491 . S
C717 C716 1.400 . S
C717 C718 1.398 . S
C718 H706 0.950 . S
C718 C717 1.398 . S
C718 C719 1.391 . S
C719 H707 0.950 . S
C719 C715 1.393 . S
C719 C718 1.391 . S
H720 C728 0.950 . S
H721 C733 0.950 . S
H722 C730 0.950 . S
H723 C732 0.950 . S
H724 C734 0.950 . S
H725 C736 0.950 . S
H726 C738 0.950 . S
H727 C739 0.950 . S
C728 H720 0.950 . S
C728 C729 1.386 . S
C728 C730 1.391 . S
C729 C728 1.386 . S
C729 C733 1.393 . S
C730 H722 0.950 . S
C730 C728 1.391 . S
C730 C731 1.400 . S
C731 C730 1.400 . S
C731 C732 1.398 . S
C731 C737 1.491 . S
C732 H723 0.950 . S
C732 C731 1.398 . S
C732 C733 1.391 . S
C733 H721 0.950 . S
C733 C729 1.393 . S
C733 C732 1.391 . S
C734 H724 0.950 . S
C734 C735 1.386 . S
C734 C736 1.391 . S
C735 C734 1.386 . S
C735 C739 1.393 . S
C736 H725 0.950 . S
C736 C734 1.391 . S
C736 C737 1.400 . S
C737 C731 1.491 . S
C737 C736 1.400 . S
C737 C738 1.398 . S
C738 H726 0.950 . S
C738 C737 1.398 . S
C738 C739 1.391 . S
C739 H727 0.950 . S
C739 C735 1.393 . S
C739 C738 1.391 . S
H740 C748 0.950 . S
H741 C753 0.950 . S
H742 C750 0.950 . S
H743 C752 0.950 . S
H744 C754 0.950 . S
H745 C756 0.950 . S
H746 C758 0.950 . S
H747 C759 0.950 . S
C748 H740 0.950 . S
C748 C749 1.386 . S
C748 C750 1.391 . S
C749 C748 1.386 . S
C749 C753 1.393 . S
C750 H742 0.950 . S
C750 C748 1.391 . S
C750 C751 1.400 . S
C751 C750 1.400 . S
C751 C752 1.398 . S
C751 C757 1.491 . S
C752 H743 0.950 . S
C752 C751 1.398 . S
C752 C753 1.391 . S
C753 H741 0.950 . S
C753 C749 1.393 . S
C753 C752 1.391 . S
C754 H744 0.950 . S
C754 C755 1.386 . S
C754 C756 1.391 . S
C755 C754 1.386 . S
C755 C759 1.393 . S
C756 H745 0.950 . S
C756 C754 1.391 . S
C756 C757 1.400 . S
C757 C751 1.491 . S
C757 C756 1.400 . S
C757 C758 1.398 . S
C758 H746 0.950 . S
C758 C757 1.398 . S
C758 C759 1.391 . S
C759 H747 0.950 . S
C759 C755 1.393 . S
C759 C758 1.391 . S
H760 C768 0.950 . S
H761 C773 0.950 . S
H762 C770 0.950 . S
H763 C772 0.950 . S
H764 C774 0.950 . S
H765 C776 0.950 . S
H766 C778 0.950 . S
H767 C779 0.950 . S
C768 H760 0.950 . S
C768 C769 1.386 . S
C768 C770 1.391 . S
C769 C768 1.386 . S
C769 C773 1.393 . S
C770 H762 0.950 . S
C770 C768 1.391 . S
C770 C771 1.400 . S
C771 C770 1.400 . S
C771 C772 1.398 . S
C771 C777 1.491 . S
C772 H763 0.950 . S
C772 C771 1.398 . S
C772 C773 1.391 . S
C773 H761 0.950 . S
C773 C769 1.393 . S
C773 C772 1.391 . S
C774 H764 0.950 . S
C774 C775 1.386 . S
C774 C776 1.391 . S
C775 C774 1.386 . S
C775 C779 1.393 . S
C776 H765 0.950 . S
C776 C774 1.391 . S
C776 C777 1.400 . S
C777 C771 1.491 . S
C777 C776 1.400 . S
C777 C778 1.398 . S
C778 H766 0.950 . S
C778 C777 1.398 . S
C778 C779 1.391 . S
C779 H767 0.950 . S
C779 C775 1.393 . S
C779 C778 1.391 . S
H780 C788 0.950 . S
H781 C793 0.950 . S
H782 C790 0.950 . S
H783 C792 0.950 . S
H784 C794 0.950 . S
H785 C796 0.950 . S
H786 C798 0.950 . S
H787 C799 0.950 . S
C788 H780 0.950 . S
C788 C789 1.386 . S
C788 C790 1.391 . S
C789 C788 1.386 . S
C789 C793 1.393 . S
C790 H782 0.950 . S
C790 C788 1.391 . S
C790 C791 1.400 . S
C791 C790 1.400 . S
C791 C792 1.398 . S
C791 C797 1.491 . S
C792 H783 0.950 . S
C792 C791 1.398 . S
C792 C793 1.391 . S
C793 H781 0.950 . S
C793 C789 1.393 . S
C793 C792 1.391 . S
C794 H784 0.950 . S
C794 C795 1.386 . S
C794 C796 1.391 . S
C795 C794 1.386 . S
C795 C799 1.393 . S
C796 H785 0.950 . S
C796 C794 1.391 . S
C796 C797 1.400 . S
C797 C791 1.491 . S
C797 C796 1.400 . S
C797 C798 1.398 . S
C798 H786 0.950 . S
C798 C797 1.398 . S
C798 C799 1.391 . S
C799 H787 0.950 . S
C799 C795 1.393 . S
C799 C798 1.391 . S
H800 C808 0.950 . S
H801 C813 0.950 . S
H802 C810 0.950 . S
H803 C812 0.950 . S
H804 C814 0.950 . S
H805 C816 0.950 . S
H806 C818 0.950 . S
H807 C819 0.950 . S
C808 H800 0.950 . S
C808 C809 1.386 . S
C808 C810 1.391 . S
C809 C808 1.386 . S
C809 C813 1.393 . S
C810 H802 0.950 . S
C810 C808 1.391 . S
C810 C811 1.400 . S
C811 C810 1.400 . S
C811 C812 1.398 . S
C811 C817 1.491 . S
C812 H803 0.950 . S
C812 C811 1.398 . S
C812 C813 1.391 . S
C813 H801 0.950 . S
C813 C809 1.393 . S
C813 C812 1.391 . S
C814 H804 0.950 . S
C814 C815 1.386 . S
C814 C816 1.391 . S
C815 C814 1.386 . S
C815 C819 1.393 . S
C816 H805 0.950 . S
C816 C814 1.391 . S
C816 C817 1.400 . S
C817 C811 1.491 . S
C817 C816 1.400 . S
C817 C818 1.398 . S
C818 H806 0.950 . S
C818 C817 1.398 . S
C818 C819 1.391 . S
C819 H807 0.950 . S
C819 C815 1.393 . S
C819 C818 1.391 . S
H820 C828 0.950 . S
H821 C833 0.950 . S
H822 C830 0.950 . S
H823 C832 0.950 . S
H824 C834 0.950 . S
H825 C836 0.950 . S
H826 C838 0.950 . S
H827 C839 0.950 . S
C828 H820 0.950 . S
C828 C829 1.386 . S
C828 C830 1.391 . S
C829 C828 1.386 . S
C829 C833 1.393 . S
C830 H822 0.950 . S
C830 C828 1.391 . S
C830 C831 1.400 . S
C831 C830 1.400 . S
C831 C832 1.398 . S
C831 C837 1.491 . S
C832 H823 0.950 . S
C832 C831 1.398 . S
C832 C833 1.391 . S
C833 H821 0.950 . S
C833 C829 1.393 . S
C833 C832 1.391 . S
C834 H824 0.950 . S
C834 C835 1.386 . S
C834 C836 1.391 . S
C835 C834 1.386 . S
C835 C839 1.393 . S
C836 H825 0.950 . S
C836 C834 1.391 . S
C836 C837 1.400 . S
C837 C831 1.491 . S
C837 C836 1.400 . S
C837 C838 1.398 . S
C838 H826 0.950 . S
C838 C837 1.398 . S
C838 C839 1.391 . S
C839 H827 0.950 . S
C839 C835 1.393 . S
C839 C838 1.391 . S
H840 C848 0.950 . S
H841 C853 0.950 . S
H842 C850 0.950 . S
H843 C852 0.950 . S
H844 C854 0.950 . S
H845 C856 0.950 . S
H846 C858 0.950 . S
H847 C859 0.950 . S
C848 H840 0.950 . S
C848 C849 1.386 . S
C848 C850 1.391 . S
C849 C848 1.386 . S
C849 C853 1.393 . S
C850 H842 0.950 . S
C850 C848 1.391 . S
C850 C851 1.400 . S
C851 C850 1.400 . S
C851 C852 1.398 . S
C851 C857 1.491 . S
C852 H843 0.950 . S
C852 C851 1.398 . S
C852 C853 1.391 . S
C853 H841 0.950 . S
C853 C849 1.393 . S
C853 C852 1.391 . S
C854 H844 0.950 . S
C854 C855 1.386 . S
C854 C856 1.391 . S
C855 C854 1.386 . S
C855 C859 1.393 . S
C856 H845 0.950 . S
C856 C854 1.391 . S
C856 C857 1.400 . S
C857 C851 1.491 . S
C857 C856 1.400 . S
C857 C858 1.398 . S
C858 H846 0.950 . S
C858 C857 1.398 . S
C858 C859 1.391 . S
C859 H847 0.950 . S
C859 C855 1.393 . S
C859 C858 1.391 . S
H860 C868 0.950 . S
H861 C873 0.950 . S
H862 C870 0.970 . S
H863 C872 0.950 . S
H864 C874 0.950 . S
H865 C876 0.950 . S
H866 C878 0.950 . S
H867 C879 0.950 . S
C868 H860 0.950 . S
C868 C869 1.386 1_554 S
C868 C870 1.406 . S
C869 C868 1.386 1_556 S
C869 C873 1.393 . S
C870 H862 0.970 . S
C870 C868 1.406 . S
C870 C871 1.367 1_554 S
C871 C870 1.367 1_556 S
C871 C872 1.398 . S
C871 C877 1.491 . S
C872 H863 0.950 . S
C872 C871 1.398 . S
C872 C873 1.391 . S
C873 H861 0.950 . S
C873 C869 1.393 . S
C873 C872 1.391 . S
C874 H864 0.950 . S
C874 C875 1.386 . S
C874 C876 1.391 . S
C875 C874 1.386 . S
C875 C879 1.393 . S
C876 H865 0.950 . S
C876 C874 1.391 . S
C876 C877 1.400 . S
C877 C871 1.491 . S
C877 C876 1.400 . S
C877 C878 1.398 . S
C878 H866 0.950 . S
C878 C877 1.398 . S
C878 C879 1.391 . S
C879 H867 0.950 . S
C879 C875 1.393 . S
C879 C878 1.391 . S
C409 C8 1.591 . S
C415 C104 1.545 1_565 S
C429 C31 1.519 . S
C435 C143 1.417 . S
C449 C53 1.786 . S
C455 C182 1.674 . S
C475 C206 1.442 . S
C469 C74 1.452 . S
C495 C245 1.519 . S
C489 C26 1.595 . S
C509 C48 1.438 . S
C515 C284 1.426 . S
C529 C71 1.783 . S
C535 C338 1.694 . S
C549 C5 1.518 . S
C555 C362 1.425 . S
C569 C50 1.597 . S
C575 C377 1.521 1_545 S
C595 C260 1.430 . S
C589 C70 1.514 . S
C615 C299 1.687 . S
C609 C4 1.784 1_556 S
C629 C28 1.429 . S
C635 C323 1.440 . S
C655 C128 1.516 . S
C649 C73 1.592 . S
C669 C7 1.447 . S
C675 C167 1.432 . S
C695 C221 1.692 . S
C689 C30 1.777 . S
C715 C89 1.429 . S
C709 C52 1.514 . S
C735 C343 1.502 . S
C729 C9 1.548 . S
C755 C382 1.364 . S
C749 C29 1.380 . S
C769 C51 1.372 . S
C775 C265 1.362 . S
C795 C304 1.488 . S
C789 C75 1.557 . S
C815 C187 1.506 . S
C809 C27 1.557 . S
C829 C49 1.550 . S
C835 C226 1.470 . S
C855 C109 1.348 . S
C849 C72 1.372 . S
C875 C148 1.359 . S
C869 C6 1.373 1_556 S
