# Generated by pormake.
# Topology ctn, (3,4)-cn, num edge types: 1
# Building blocks:
#     Node 0, Type 0, BuildingBlock: CUQRIR_clean_linker_1, # of connection points: 3
#     Node 1, Type 0, BuildingBlock: CUQRIR_clean_linker_1, # of connection points: 3
#     Node 2, Type 0, BuildingBlock: CUQRIR_clean_linker_1, # of connection points: 3
#     Node 3, Type 0, BuildingBlock: CUQRIR_clean_linker_1, # of connection points: 3
#     Node 4, Type 0, BuildingBlock: CUQRIR_clean_linker_1, # of connection points: 3
#     Node 5, Type 0, BuildingBlock: CUQRIR_clean_linker_1, # of connection points: 3
#     Node 6, Type 0, BuildingBlock: CUQRIR_clean_linker_1, # of connection points: 3
#     Node 7, Type 0, BuildingBlock: CUQRIR_clean_linker_1, # of connection points: 3
#     Node 8, Type 0, BuildingBlock: CUQRIR_clean_linker_1, # of connection points: 3
#     Node 9, Type 0, BuildingBlock: CUQRIR_clean_linker_1, # of connection points: 3
#     Node 10, Type 0, BuildingBlock: CUQRIR_clean_linker_1, # of connection points: 3
#     Node 11, Type 0, BuildingBlock: CUQRIR_clean_linker_1, # of connection points: 3
#     Node 12, Type 0, BuildingBlock: CUQRIR_clean_linker_1, # of connection points: 3
#     Node 13, Type 0, BuildingBlock: CUQRIR_clean_linker_1, # of connection points: 3
#     Node 14, Type 0, BuildingBlock: CUQRIR_clean_linker_1, # of connection points: 3
#     Node 15, Type 0, BuildingBlock: CUQRIR_clean_linker_1, # of connection points: 3
#     Node 16, Type 1, BuildingBlock: NAHDIM_clean_sbu_0, # of connection points: 4
#     Node 17, Type 1, BuildingBlock: NAHDIM_clean_sbu_0, # of connection points: 4
#     Node 18, Type 1, BuildingBlock: NAHDIM_clean_sbu_0, # of connection points: 4
#     Node 19, Type 1, BuildingBlock: NAHDIM_clean_sbu_0, # of connection points: 4
#     Node 20, Type 1, BuildingBlock: NAHDIM_clean_sbu_0, # of connection points: 4
#     Node 21, Type 1, BuildingBlock: NAHDIM_clean_sbu_0, # of connection points: 4
#     Node 22, Type 1, BuildingBlock: NAHDIM_clean_sbu_0, # of connection points: 4
#     Node 23, Type 1, BuildingBlock: NAHDIM_clean_sbu_0, # of connection points: 4
#     Node 24, Type 1, BuildingBlock: NAHDIM_clean_sbu_0, # of connection points: 4
#     Node 25, Type 1, BuildingBlock: NAHDIM_clean_sbu_0, # of connection points: 4
#     Node 26, Type 1, BuildingBlock: NAHDIM_clean_sbu_0, # of connection points: 4
#     Node 27, Type 1, BuildingBlock: NAHDIM_clean_sbu_0, # of connection points: 4
#     Edge 28, Type (0, 1), BuildingBlock: ZUJKAS_clean_linker_0, # of connection points: 2
#     Edge 29, Type (0, 1), BuildingBlock: ZUJKAS_clean_linker_0, # of connection points: 2
#     Edge 30, Type (0, 1), BuildingBlock: ZUJKAS_clean_linker_0, # of connection points: 2
#     Edge 31, Type (0, 1), BuildingBlock: ZUJKAS_clean_linker_0, # of connection points: 2
#     Edge 32, Type (0, 1), BuildingBlock: ZUJKAS_clean_linker_0, # of connection points: 2
#     Edge 33, Type (0, 1), BuildingBlock: ZUJKAS_clean_linker_0, # of connection points: 2
#     Edge 34, Type (0, 1), BuildingBlock: ZUJKAS_clean_linker_0, # of connection points: 2
#     Edge 35, Type (0, 1), BuildingBlock: ZUJKAS_clean_linker_0, # of connection points: 2
#     Edge 36, Type (0, 1), BuildingBlock: ZUJKAS_clean_linker_0, # of connection points: 2
#     Edge 37, Type (0, 1), BuildingBlock: ZUJKAS_clean_linker_0, # of connection points: 2
#     Edge 38, Type (0, 1), BuildingBlock: ZUJKAS_clean_linker_0, # of connection points: 2
#     Edge 39, Type (0, 1), BuildingBlock: ZUJKAS_clean_linker_0, # of connection points: 2
#     Edge 40, Type (0, 1), BuildingBlock: ZUJKAS_clean_linker_0, # of connection points: 2
#     Edge 41, Type (0, 1), BuildingBlock: ZUJKAS_clean_linker_0, # of connection points: 2
#     Edge 42, Type (0, 1), BuildingBlock: ZUJKAS_clean_linker_0, # of connection points: 2
#     Edge 43, Type (0, 1), BuildingBlock: ZUJKAS_clean_linker_0, # of connection points: 2
#     Edge 44, Type (0, 1), BuildingBlock: ZUJKAS_clean_linker_0, # of connection points: 2
#     Edge 45, Type (0, 1), BuildingBlock: ZUJKAS_clean_linker_0, # of connection points: 2
#     Edge 46, Type (0, 1), BuildingBlock: ZUJKAS_clean_linker_0, # of connection points: 2
#     Edge 47, Type (0, 1), BuildingBlock: ZUJKAS_clean_linker_0, # of connection points: 2
#     Edge 48, Type (0, 1), BuildingBlock: ZUJKAS_clean_linker_0, # of connection points: 2
#     Edge 49, Type (0, 1), BuildingBlock: ZUJKAS_clean_linker_0, # of connection points: 2
#     Edge 50, Type (0, 1), BuildingBlock: ZUJKAS_clean_linker_0, # of connection points: 2
#     Edge 51, Type (0, 1), BuildingBlock: ZUJKAS_clean_linker_0, # of connection points: 2
#     Edge 52, Type (0, 1), BuildingBlock: ZUJKAS_clean_linker_0, # of connection points: 2
#     Edge 53, Type (0, 1), BuildingBlock: ZUJKAS_clean_linker_0, # of connection points: 2
#     Edge 54, Type (0, 1), BuildingBlock: ZUJKAS_clean_linker_0, # of connection points: 2
#     Edge 55, Type (0, 1), BuildingBlock: ZUJKAS_clean_linker_0, # of connection points: 2
#     Edge 56, Type (0, 1), BuildingBlock: ZUJKAS_clean_linker_0, # of connection points: 2
#     Edge 57, Type (0, 1), BuildingBlock: ZUJKAS_clean_linker_0, # of connection points: 2
#     Edge 58, Type (0, 1), BuildingBlock: ZUJKAS_clean_linker_0, # of connection points: 2
#     Edge 59, Type (0, 1), BuildingBlock: ZUJKAS_clean_linker_0, # of connection points: 2
#     Edge 60, Type (0, 1), BuildingBlock: ZUJKAS_clean_linker_0, # of connection points: 2
#     Edge 61, Type (0, 1), BuildingBlock: ZUJKAS_clean_linker_0, # of connection points: 2
#     Edge 62, Type (0, 1), BuildingBlock: ZUJKAS_clean_linker_0, # of connection points: 2
#     Edge 63, Type (0, 1), BuildingBlock: ZUJKAS_clean_linker_0, # of connection points: 2
#     Edge 64, Type (0, 1), BuildingBlock: ZUJKAS_clean_linker_0, # of connection points: 2
#     Edge 65, Type (0, 1), BuildingBlock: ZUJKAS_clean_linker_0, # of connection points: 2
#     Edge 66, Type (0, 1), BuildingBlock: ZUJKAS_clean_linker_0, # of connection points: 2
#     Edge 67, Type (0, 1), BuildingBlock: ZUJKAS_clean_linker_0, # of connection points: 2
#     Edge 68, Type (0, 1), BuildingBlock: ZUJKAS_clean_linker_0, # of connection points: 2
#     Edge 69, Type (0, 1), BuildingBlock: ZUJKAS_clean_linker_0, # of connection points: 2
#     Edge 70, Type (0, 1), BuildingBlock: ZUJKAS_clean_linker_0, # of connection points: 2
#     Edge 71, Type (0, 1), BuildingBlock: ZUJKAS_clean_linker_0, # of connection points: 2
#     Edge 72, Type (0, 1), BuildingBlock: ZUJKAS_clean_linker_0, # of connection points: 2
#     Edge 73, Type (0, 1), BuildingBlock: ZUJKAS_clean_linker_0, # of connection points: 2
#     Edge 74, Type (0, 1), BuildingBlock: ZUJKAS_clean_linker_0, # of connection points: 2
#     Edge 75, Type (0, 1), BuildingBlock: ZUJKAS_clean_linker_0, # of connection points: 2
# Relax obj value: 0.076
# Max RMSD: 0.205
# Mean RMSD: 0.129
data_MOF--net-ctn--node1-NAHDIM_clean_sbu_0--node2-CUQRIR_clean_linker_1--edge1-ZUJKAS_clean_linker_0
_symmetry_space_group_name_H-M    P1
_symmetry_Int_Tables_number       1
_symmetry_cell_setting            triclinic
loop_
_symmetry_equiv_pos_as_xyz
'x, y, z'
_cell_length_a     68.955922
_cell_length_b     64.754163
_cell_length_c     65.69302
_cell_angle_alpha  97.641691
_cell_angle_beta   88.871979
_cell_angle_gamma 94.662465
loop_
_atom_site_label
_atom_site_type_symbol
_atom_site_fract_x
_atom_site_fract_y
_atom_site_fract_z
_atom_type_partial_charge
C0 C 0.0343 0.01334 0.07125 0.0
N1 N 0.04337 0.02139 0.05521 0.0
N2 N 0.02025 0.02553 0.07924 0.0
C3 C 0.04027 0.99466 0.08028 0.0
C4 C 0.02116 0.04136 0.06766 0.0
N5 N 0.03538 0.039 0.05322 0.0
C6 C 0.00735 0.05837 0.06961 0.0
H7 H 0.03311 0.98026 0.07163 0.0
H8 H 0.03585 0.99529 0.09666 0.0
H9 H 0.05625 0.99371 0.07902 0.0
H10 H 0.01418 0.07238 0.07918 0.0
H11 H 0.99346 0.05341 0.07702 0.0
H12 H 0.00422 0.06278 0.05432 0.0
C13 C 0.27814 0.72697 0.22832 0.0
N14 N 0.28609 0.71676 0.24238 0.0
N15 N 0.2916 0.7406 0.22105 0.0
C16 C 0.25766 0.72244 0.22048 0.0
C17 C 0.30811 0.73814 0.231 0.0
N18 N 0.3048 0.72347 0.24389 0.0
C19 C 0.32703 0.75105 0.2291 0.0
H20 H 0.25648 0.72653 0.2047 0.0
H21 H 0.24782 0.7319 0.23077 0.0
H22 H 0.25271 0.7057 0.22044 0.0
H23 H 0.32462 0.76612 0.22362 0.0
H24 H 0.33654 0.74229 0.21782 0.0
H25 H 0.33462 0.75419 0.24406 0.0
C26 C 0.96698 0.48489 0.06382 0.0
N27 N 0.97756 0.46819 0.06423 0.0
N28 N 0.95278 0.48046 0.04961 0.0
C29 C 0.97033 0.50543 0.07743 0.0
C30 C 0.95494 0.46045 0.04151 0.0
N31 N 0.96983 0.45287 0.05059 0.0
C32 C 0.94271 0.44837 0.02453 0.0
H33 H 0.97483 0.50289 0.09298 0.0
H34 H 0.95713 0.51422 0.07876 0.0
H35 H 0.9822 0.51507 0.07071 0.0
H36 H 0.93455 0.45876 0.01634 0.0
H37 H 0.93207 0.4373 0.03121 0.0
H38 H 0.95199 0.43912 0.01339 0.0
C39 C 0.68979 0.77137 0.22318 0.0
N40 N 0.70619 0.78095 0.21592 0.0
N41 N 0.6855 0.78042 0.24234 0.0
C42 C 0.67867 0.7523 0.21219 0.0
C43 C 0.69993 0.79579 0.24654 0.0
N44 N 0.71266 0.79596 0.23056 0.0
C45 C 0.70049 0.81184 0.26538 0.0
H46 H 0.66776 0.75731 0.20206 0.0
H47 H 0.6709 0.74295 0.22326 0.0
H48 H 0.68856 0.74233 0.20252 0.0
H49 H 0.70982 0.80675 0.27704 0.0
H50 H 0.68573 0.81357 0.27209 0.0
H51 H 0.70671 0.82727 0.26172 0.0
C52 C 0.03377 0.96792 0.47334 0.0
N53 N 0.05016 0.97055 0.48475 0.0
N54 N 0.03294 0.98375 0.46191 0.0
C55 C 0.0178 0.95083 0.47463 0.0
C56 C 0.04934 0.99623 0.46694 0.0
N57 N 0.0597 0.98832 0.48099 0.0
C58 C 0.05594 0.01529 0.45704 0.0
H59 H 0.0211 0.93694 0.46371 0.0
H60 H 0.00353 0.95586 0.47057 0.0
H61 H 0.01677 0.94621 0.49031 0.0
H62 H 0.04981 0.01433 0.44142 0.0
H63 H 0.07205 0.01723 0.45599 0.0
H64 H 0.05087 0.02931 0.46658 0.0
C65 C 0.19718 0.72906 0.79653 0.0
N66 N 0.21138 0.72148 0.80661 0.0
N67 N 0.1905 0.71484 0.78076 0.0
C68 C 0.18884 0.74974 0.80304 0.0
C69 C 0.20099 0.6982 0.78178 0.0
N70 N 0.21361 0.70218 0.79766 0.0
C71 C 0.19993 0.67879 0.76634 0.0
H72 H 0.18964 0.75405 0.81994 0.0
H73 H 0.17347 0.7493 0.79824 0.0
H74 H 0.19745 0.76203 0.79572 0.0
H75 H 0.19439 0.68196 0.75141 0.0
H76 H 0.18986 0.66667 0.77223 0.0
H77 H 0.21445 0.67259 0.76392 0.0
C78 C 0.96015 0.52908 0.45995 0.0
N79 N 0.97393 0.54536 0.46137 0.0
N80 N 0.94721 0.53162 0.47569 0.0
C81 C 0.9592 0.51091 0.44306 0.0
C82 C 0.95367 0.54988 0.4868 0.0
N83 N 0.96996 0.55815 0.4782 0.0
C84 C 0.94395 0.55971 0.50597 0.0
H85 H 0.95235 0.5156 0.42942 0.0
H86 H 0.9504 0.49715 0.44762 0.0
H87 H 0.97406 0.50649 0.4386 0.0
H88 H 0.93604 0.54762 0.51417 0.0
H89 H 0.93328 0.57025 0.5016 0.0
H90 H 0.9547 0.56914 0.51644 0.0
C91 C 0.7879 0.80342 0.81615 0.0
N92 N 0.80355 0.79192 0.81351 0.0
N93 N 0.79011 0.8198 0.80526 0.0
C94 C 0.7711 0.79956 0.83049 0.0
C95 C 0.8077 0.81795 0.79597 0.0
N96 N 0.81603 0.80116 0.80121 0.0
C97 C 0.81589 0.83143 0.78036 0.0
H98 H 0.76016 0.78806 0.8223 0.0
H99 H 0.76405 0.81417 0.83567 0.0
H100 H 0.77601 0.79302 0.84412 0.0
H101 H 0.82611 0.84401 0.78811 0.0
H102 H 0.80421 0.83875 0.7732 0.0
H103 H 0.824 0.82213 0.7681 0.0
C104 C 0.28967 0.30348 0.31341 0.0
N105 N 0.30553 0.29234 0.31083 0.0
N106 N 0.2915 0.31974 0.30235 0.0
C107 C 0.27284 0.29909 0.32756 0.0
C108 C 0.30909 0.31816 0.29301 0.0
N109 N 0.31779 0.30165 0.29839 0.0
C110 C 0.31695 0.3316 0.27722 0.0
H111 H 0.2622 0.28739 0.31917 0.0
H112 H 0.26544 0.31348 0.33278 0.0
H113 H 0.27779 0.29253 0.34115 0.0
H114 H 0.32707 0.34438 0.2848 0.0
H115 H 0.30508 0.33864 0.27009 0.0
H116 H 0.32509 0.32234 0.26496 0.0
C117 C 0.46512 0.98418 0.5672 0.0
N118 N 0.47557 0.96728 0.56698 0.0
N119 N 0.45031 0.98006 0.55364 0.0
C120 C 0.46832 0.00408 0.58182 0.0
C121 C 0.45204 0.96004 0.54525 0.0
N122 N 0.46723 0.95216 0.55353 0.0
C123 C 0.4399 0.94878 0.52777 0.0
H124 H 0.45461 0.01189 0.5847 0.0
H125 H 0.47914 0.01486 0.57499 0.0
H126 H 0.47405 1.00093 0.59668 0.0
H127 H 0.43391 0.95998 0.51863 0.0
H128 H 0.42758 0.93942 0.5341 0.0
H129 H 0.44859 0.93799 0.51747 0.0
C130 C 0.19002 0.26518 0.7253 0.0
N131 N 0.2065 0.27495 0.71833 0.0
N132 N 0.18244 0.2772 0.7415 0.0
C133 C 0.18038 0.24477 0.71528 0.0
C134 C 0.1948 0.29465 0.74409 0.0
N135 N 0.20929 0.29339 0.72989 0.0
C136 C 0.19351 0.31223 0.76142 0.0
H137 H 0.16446 0.24385 0.71825 0.0
H138 H 0.18653 0.23175 0.72172 0.0
H139 H 0.18306 0.24279 0.69845 0.0
H140 H 0.1858 0.3067 0.7749 0.0
H141 H 0.18532 0.32456 0.75615 0.0
H142 H 0.20822 0.31923 0.76616 0.0
C143 C 0.78636 0.2147 0.71411 0.0
N144 N 0.79354 0.20611 0.72978 0.0
N145 N 0.79599 0.23344 0.71235 0.0
C146 C 0.76894 0.20555 0.70154 0.0
C147 C 0.8092 0.23606 0.72767 0.0
N148 N 0.8076 0.21949 0.73843 0.0
C149 C 0.82461 0.25397 0.73098 0.0
H150 H 0.77388 0.19468 0.68832 0.0
H151 H 0.76137 0.21795 0.69556 0.0
H152 H 0.75849 0.19663 0.71079 0.0
H153 H 0.81933 0.26626 0.74269 0.0
H154 H 0.82777 0.26087 0.71658 0.0
H155 H 0.83823 0.24878 0.73661 0.0
C156 C 0.5363 0.51669 0.57117 0.0
N157 N 0.5455 0.5242 0.55493 0.0
N158 N 0.52191 0.5288 0.57838 0.0
C159 C 0.54246 0.49866 0.58114 0.0
C160 C 0.52279 0.54406 0.56612 0.0
N161 N 0.5373 0.54145 0.55204 0.0
C162 C 0.5086 0.56064 0.56694 0.0
H163 H 0.53533 0.48389 0.57318 0.0
H164 H 0.53813 0.50011 0.59759 0.0
H165 H 0.55845 0.49777 0.57991 0.0
H166 H 0.51487 0.57505 0.57635 0.0
H167 H 0.49456 0.55556 0.57399 0.0
H168 H 0.50586 0.56445 0.55133 0.0
C169 C 0.52819 0.47795 0.97965 0.0
N170 N 0.54548 0.47937 0.98934 0.0
N171 N 0.52953 0.48877 0.96334 0.0
C172 C 0.51035 0.46492 0.98538 0.0
C173 C 0.54835 0.49667 0.96336 0.0
N174 N 0.55813 0.49075 0.97907 0.0
C175 C 0.5567 0.5116 0.94915 0.0
H176 H 0.50108 0.45951 0.9718 0.0
H177 H 0.50178 0.47454 0.99695 0.0
H178 H 0.51437 0.45113 0.99226 0.0
H179 H 0.54513 0.5201 0.94324 0.0
H180 H 0.56384 0.50263 0.93592 0.0
H181 H 0.56777 0.52311 0.95711 0.0
C182 C 0.68689 0.22527 0.30553 0.0
N183 N 0.70168 0.21702 0.31405 0.0
N184 N 0.68299 0.21505 0.28655 0.0
C185 C 0.67735 0.24443 0.31498 0.0
C186 C 0.69611 0.20044 0.28369 0.0
N187 N 0.70763 0.20175 0.3004 0.0
C188 C 0.69666 0.184 0.26527 0.0
H189 H 0.66515 0.23961 0.32503 0.0
H190 H 0.67147 0.25272 0.30302 0.0
H191 H 0.68781 0.25538 0.3245 0.0
H192 H 0.70749 0.18946 0.25405 0.0
H193 H 0.68227 0.18113 0.25771 0.0
H194 H 0.70106 0.16912 0.26971 0.0
C195 C 0.45678 0.02831 0.9581 0.0
N196 N 0.47053 0.04464 0.95958 0.0
N197 N 0.44416 0.03046 0.97416 0.0
C198 C 0.45559 0.01045 0.94087 0.0
C199 C 0.45079 0.0485 0.98554 0.0
N200 N 0.4669 0.05701 0.97679 0.0
C201 C 0.44124 0.05803 0.00496 0.0
H202 H 0.44679 0.99659 0.94519 0.0
H203 H 0.47038 0.00602 0.93612 0.0
H204 H 0.44861 0.01548 0.92748 0.0
H205 H 0.43337 0.0458 0.01299 0.0
H206 H 0.43058 0.06874 1.00091 0.0
H207 H 0.45206 0.06725 0.01549 0.0
C208 C 0.21358 0.91257 0.02131 0.0
O209 O 0.22745 0.91578 0.00783 0.0
O210 O 0.23682 0.86058 0.00521 0.0
Zn211 Zn 0.2393 0.88238 0.03035 0.0
O212 O 0.26283 0.90241 0.02681 0.0
C213 C 0.25086 0.85074 0.0535 0.0
O214 O 0.25601 0.84243 0.03505 0.0
O215 O 0.21527 0.89872 0.03309 0.0
C216 C 0.27981 0.8961 0.02447 0.0
O217 O 0.28215 0.87624 0.0249 0.0
C218 C 0.24346 0.86436 0.98777 0.0
O219 O 0.25159 0.88307 0.98587 0.0
O220 O 0.24291 0.86798 0.05555 0.0
C221 C 0.16611 0.48101 0.27929 0.0
O222 O 0.17337 0.50039 0.28419 0.0
O223 O 0.11541 0.50925 0.28898 0.0
Zn224 Zn 0.13425 0.50188 0.26557 0.0
O225 O 0.15348 0.52676 0.26257 0.0
C226 C 0.10748 0.50578 0.23332 0.0
O227 O 0.10598 0.52412 0.24425 0.0
O228 O 0.14932 0.47764 0.27126 0.0
C229 C 0.15042 0.54542 0.26985 0.0
O230 O 0.13372 0.54916 0.27899 0.0
C231 C 0.12093 0.51344 0.30754 0.0
O232 O 0.13939 0.51276 0.31174 0.0
O233 O 0.11896 0.49345 0.2393 0.0
C234 C 0.80981 0.61072 0.9922 0.0
O235 O 0.81073 0.61758 0.97424 0.0
O236 O 0.78324 0.65101 0.97558 0.0
Zn237 Zn 0.77505 0.63432 0.99896 0.0
O238 O 0.74977 0.61623 0.99324 0.0
C239 C 0.76674 0.67278 0.02532 0.0
O240 O 0.76451 0.68008 0.00786 0.0
O241 O 0.7961 0.61582 0.00462 0.0
C242 C 0.74435 0.6039 0.00619 0.0
O243 O 0.75541 0.60338 0.02215 0.0
C244 C 0.77523 0.64811 0.95803 0.0
O245 O 0.7609 0.6335 0.95442 0.0
O246 O 0.77122 0.65408 0.02503 0.0
C247 C 0.83676 0.0402 0.30179 0.0
O248 O 0.83517 0.02674 0.31515 0.0
O249 O 0.88206 0.01253 0.30758 0.0
Zn250 Zn 0.86531 0.01289 0.28268 0.0
O251 O 0.84832 0.9859 0.27684 0.0
C252 C 0.89237 1.00081 0.25022 0.0
O253 O 0.89055 0.98315 0.25812 0.0
O254 O 0.84868 0.0374 0.28686 0.0
C255 C 0.83927 0.98177 0.25992 0.0
O256 O 0.84075 0.99554 0.24686 0.0
C257 C 0.88748 0.9954 0.31211 0.0
O258 O 0.88144 0.97783 0.30086 0.0
O259 O 0.88289 0.01594 0.2582 0.0
C260 C 0.30083 0.10179 0.49578 0.0
O261 O 0.28906 0.09314 0.48101 0.0
O262 O 0.28145 0.14988 0.47296 0.0
Zn263 Zn 0.27477 0.13494 0.49796 0.0
O264 O 0.25121 0.11411 0.49254 0.0
C265 C 0.28019 0.16956 0.53164 0.0
O266 O 0.29785 0.17214 0.52403 0.0
O267 O 0.2977 0.11974 0.50506 0.0
C268 C 0.24364 0.10605 0.50778 0.0
O269 O 0.25162 0.11126 0.52593 0.0
C270 C 0.27673 0.1683 0.47185 0.0
O271 O 0.26698 0.1779 0.48717 0.0
O272 O 0.26829 0.15527 0.52283 0.0
C273 C 0.35148 0.54993 0.79802 0.0
O274 O 0.36809 0.55233 0.80785 0.0
O275 O 0.38279 0.50706 0.80251 0.0
Zn276 Zn 0.36441 0.50919 0.77944 0.0
O277 O 0.34694 0.48263 0.77294 0.0
C278 C 0.39483 0.5022 0.74985 0.0
O279 O 0.39833 0.48818 0.76175 0.0
O280 O 0.34735 0.53325 0.78583 0.0
C281 C 0.35174 0.46446 0.77496 0.0
O282 O 0.36896 0.46235 0.78226 0.0
C283 C 0.37825 0.50727 0.82137 0.0
O284 O 0.36007 0.50914 0.8272 0.0
O285 O 0.38069 0.51347 0.7543 0.0
C286 C 0.71556 0.41418 0.52051 0.0
O287 O 0.72888 0.41654 0.50624 0.0
O288 O 0.73804 0.36265 0.50443 0.0
Zn289 Zn 0.7415 0.38441 0.52966 0.0
O290 O 0.76507 0.40436 0.52601 0.0
C291 C 0.75145 0.35166 0.55238 0.0
O292 O 0.75519 0.34276 0.53372 0.0
O293 O 0.71768 0.40098 0.53287 0.0
C294 C 0.78225 0.40011 0.52963 0.0
O295 O 0.78487 0.3823 0.53629 0.0
C296 C 0.75044 0.36088 0.48982 0.0
O297 O 0.766 0.37405 0.4905 0.0
O298 O 0.74515 0.36978 0.55475 0.0
C299 C 0.66528 0.98149 0.78143 0.0
O300 O 0.67178 1.00087 0.78774 0.0
O301 O 0.61416 0.00865 0.78926 0.0
Zn302 Zn 0.6336 1.00194 0.76631 0.0
O303 O 0.65199 0.02763 0.76448 0.0
C304 C 0.60677 0.00533 0.73402 0.0
O305 O 0.60441 0.02323 0.74541 0.0
O306 O 0.64909 0.97805 0.7721 0.0
C307 C 0.66572 0.02759 0.75127 0.0
O308 O 0.66745 0.01073 0.73803 0.0
C309 C 0.6196 0.01563 0.80744 0.0
O310 O 0.63829 0.01821 0.81147 0.0
O311 O 0.6189 0.99349 0.73967 0.0
C312 C 0.99055 0.18428 0.92217 0.0
O313 O 0.97284 0.18205 0.91475 0.0
O314 O 0.96988 0.21573 0.88691 0.0
Zn315 Zn 0.99464 0.22351 0.90357 0.0
O316 O 0.992 0.24991 0.92345 0.0
C317 C 0.01873 0.24435 0.87448 0.0
O318 O 0.00569 0.25819 0.87739 0.0
O319 O 1.00161 0.20035 0.91932 0.0
C320 C 0.00548 0.25739 0.93589 0.0
O321 O 0.02143 0.2476 0.93599 0.0
C322 C 0.95777 0.22931 0.88555 0.0
O323 O 0.9612 0.24816 0.89557 0.0
O324 O 0.01689 0.22846 0.88403 0.0
C325 C 0.49573 0.6958 0.43257 0.0
O326 O 0.48374 0.70838 0.4426 0.0
O327 O 0.47262 0.7184 0.38383 0.0
Zn328 Zn 0.49622 0.72504 0.40226 0.0
O329 O 0.49205 0.74953 0.42419 0.0
C330 C 0.51797 0.73994 0.36794 0.0
O331 O 0.50063 0.74308 0.36159 0.0
O332 O 0.50239 0.69971 0.41519 0.0
C333 C 0.50645 0.76153 0.4316 0.0
O334 O 0.52408 0.75767 0.42503 0.0
C335 C 0.45534 0.72179 0.38969 0.0
O336 O 0.45216 0.72937 0.40892 0.0
O337 O 0.51948 0.73257 0.38479 0.0
C338 C 0.01465 0.80898 0.606 0.0
O339 O 0.008 0.79194 0.59431 0.0
O340 O 0.98536 0.78544 0.65802 0.0
Zn341 Zn 0.00844 0.78217 0.6383 0.0
O342 O 0.00298 0.75739 0.61626 0.0
C343 C 0.03079 0.75888 0.662 0.0
O344 O 0.01529 0.74569 0.65895 0.0
O345 O 0.01563 0.80875 0.62531 0.0
C346 C 0.01705 0.74901 0.60645 0.0
O347 O 0.03492 0.75691 0.61057 0.0
C348 C 0.97268 0.77028 0.65963 0.0
O349 O 0.97407 0.75258 0.64756 0.0
O350 O 0.03132 0.7761 0.65462 0.0
C351 C 0.51438 0.32836 0.12628 0.0
O352 O 0.50804 0.3325 0.14526 0.0
O353 O 0.48498 0.28794 0.15215 0.0
Zn354 Zn 0.50869 0.28418 0.1333 0.0
O355 O 0.50383 0.25914 0.11133 0.0
C356 C 0.5297 0.27312 0.16762 0.0
O357 O 0.51205 0.26984 0.17501 0.0
O358 O 0.5155 0.30942 0.11852 0.0
C359 C 0.51169 0.24211 0.11192 0.0
O360 O 0.52281 0.24037 0.1275 0.0
C361 C 0.47263 0.27261 0.15423 0.0
O362 O 0.47476 0.25448 0.14317 0.0
O363 O 0.53188 0.27966 0.15023 0.0
H364 H 0.20837 0.7095 0.84426 0.0
H365 H 0.21741 0.73163 0.87668 0.0
H366 H 0.24396 0.77898 0.84231 0.0
H367 H 0.23458 0.75697 0.81009 0.0
H368 H 0.25275 0.75397 0.89454 0.0
H369 H 0.19832 0.80641 0.87435 0.0
H370 H 0.19992 0.78031 0.86115 0.0
H371 H 0.21677 0.80133 0.85507 0.0
C372 C 0.21668 0.72436 0.8438 0.0
C373 C 0.22077 0.73176 0.82495 0.0
C374 C 0.22176 0.73699 0.86221 0.0
C375 C 0.23099 0.75709 0.86183 0.0
C376 C 0.23656 0.76365 0.8429 0.0
H377 H 0.25494 0.86794 0.9483 0.0
H378 H 0.25273 0.84087 0.91858 0.0
C379 C 0.23136 0.75112 0.82458 0.0
C380 C 0.23292 0.77206 0.88091 0.0
H381 H 0.21767 0.81859 0.90352 0.0
C382 C 0.24506 0.76807 0.8966 0.0
C383 C 0.22265 0.7903 0.88358 0.0
C384 C 0.20853 0.79481 0.86775 0.0
C385 C 0.24769 0.78228 0.91467 0.0
C386 C 0.23774 0.80073 0.91709 0.0
C387 C 0.22539 0.8045 0.90152 0.0
C388 C 0.24002 0.81659 0.9355 0.0
C389 C 0.26143 0.77774 0.9308 0.0
C390 C 0.23347 0.81191 0.95484 0.0
C391 C 0.23463 0.8274 0.97189 0.0
C392 C 0.24231 0.84784 0.96984 0.0
C393 C 0.24894 0.85239 0.95043 0.0
C394 C 0.24772 0.83693 0.93342 0.0
H395 H 0.271 0.76528 0.92477 0.0
H396 H 0.27066 0.79205 0.93671 0.0
H397 H 0.25286 0.77245 0.94389 0.0
H398 H 0.22713 0.7964 0.95668 0.0
H399 H 0.22939 0.82338 0.98663 0.0
H400 H 0.97203 0.54807 0.421 0.0
H401 H 0.99916 0.54639 0.39623 0.0
H402 H 0.03937 0.54722 0.44589 0.0
H403 H 0.01204 0.54814 0.47051 0.0
H404 H 0.03344 0.5711 0.39126 0.0
H405 H 0.04871 0.49266 0.40958 0.0
H406 H 0.02696 0.50495 0.41835 0.0
H407 H 0.04967 0.51288 0.43115 0.0
C408 C 0.98672 0.54812 0.42653 0.0
C409 C 0.99007 0.54809 0.44752 0.0
C410 C 1.00218 0.54721 0.41245 0.0
C411 C 0.02125 0.54624 0.41917 0.0
C412 C 0.02473 0.54754 0.44033 0.0
H413 H 0.12754 0.52113 0.34889 0.0
H414 H 0.10413 0.53066 0.37634 0.0
C415 C 0.00921 0.54836 0.4544 0.0
C416 C 0.03716 0.54265 0.40387 0.0
H417 H 0.06936 0.50718 0.38527 0.0
C418 C 0.04135 0.55717 0.38999 0.0
C419 C 0.0474 0.5244 0.40217 0.0
C420 C 0.04289 0.50771 0.41596 0.0
C421 C 0.05554 0.55394 0.37449 0.0
C422 C 0.0656 0.53559 0.37267 0.0
C423 C 0.06164 0.52125 0.38674 0.0
C424 C 0.07989 0.53059 0.35592 0.0
C425 C 0.05973 0.57024 0.36025 0.0
C426 C 0.07397 0.52718 0.33535 0.0
C427 C 0.08729 0.52164 0.31962 0.0
C428 C 0.10679 0.51936 0.32418 0.0
C429 C 0.11265 0.52279 0.34483 0.0
C430 C 0.0993 0.52825 0.36054 0.0
H431 H 0.05463 0.58558 0.36684 0.0
H432 H 0.07555 0.57234 0.35683 0.0
H433 H 0.05204 0.56509 0.34554 0.0
H434 H 0.05897 0.52849 0.33147 0.0
H435 H 0.08226 0.51908 0.3039 0.0
H436 H 0.78124 0.75572 0.81111 0.0
H437 H 0.78196 0.72918 0.83445 0.0
H438 H 0.83336 0.76208 0.86306 0.0
H439 H 0.83242 0.78878 0.83971 0.0
H440 H 0.81063 0.70251 0.84535 0.0
H441 H 0.79183 0.76273 0.90973 0.0
H442 H 0.78999 0.76661 0.88316 0.0
H443 H 0.81338 0.76885 0.89515 0.0
C444 C 0.79293 0.75691 0.82207 0.0
C445 C 0.80672 0.7742 0.8238 0.0
C446 C 0.79334 0.74182 0.83539 0.0
C447 C 0.8075 0.74386 0.85074 0.0
C448 C 0.82214 0.76037 0.85151 0.0
H449 H 0.8051 0.679 0.95989 0.0
H450 H 0.81514 0.70127 0.93359 0.0
C451 C 0.82175 0.77546 0.8381 0.0
C452 C 0.80577 0.72972 0.86686 0.0
H453 H 0.79404 0.72867 0.91751 0.0
C454 C 0.80718 0.70822 0.86117 0.0
C455 C 0.80121 0.73721 0.88749 0.0
C456 C 0.79884 0.76007 0.89433 0.0
C457 C 0.80402 0.69398 0.87555 0.0
C458 C 0.79887 0.7014 0.89604 0.0
C459 C 0.79798 0.72297 0.90182 0.0
C460 C 0.79348 0.68706 0.91154 0.0
C461 C 0.80632 0.67114 0.86863 0.0
C462 C 0.77785 0.67175 0.90802 0.0
C463 C 0.77211 0.65896 0.92299 0.0
C464 C 0.78173 0.66133 0.94195 0.0
C465 C 0.79738 0.6767 0.94546 0.0
C466 C 0.80315 0.68945 0.93044 0.0
H467 H 0.81607 0.66896 0.85497 0.0
H468 H 0.81227 0.66352 0.88107 0.0
H469 H 0.79188 0.6631 0.86428 0.0
H470 H 0.76981 0.66995 0.89381 0.0
H471 H 0.75993 0.6474 0.91979 0.0
H472 H 0.01954 0.95544 0.43058 0.0
H473 H 0.99378 0.95935 0.4064 0.0
H474 H 0.98763 0.02199 0.43622 0.0
H475 H 0.01317 0.01787 0.46068 0.0
H476 H 0.95377 0.97057 0.418 0.0
H477 H 0.99534 0.02683 0.3731 0.0
H478 H 0.0072 0.01036 0.38832 0.0
H479 H 0.99578 0.03269 0.40066 0.0
C480 C 0.01259 0.96997 0.43195 0.0
C481 C 0.01823 0.98636 0.44741 0.0
C482 C 0.99798 0.97223 0.41816 0.0
C483 C 0.98894 0.99101 0.41946 0.0
C484 C 0.99462 0.00747 0.43483 0.0
H485 H 0.90171 0.02849 0.33968 0.0
H486 H 0.92525 0.02806 0.36704 0.0
C487 C 0.00917 0.00515 0.44872 0.0
C488 C 0.97326 0.99308 0.40498 0.0
H489 H 0.96268 0.01726 0.3639 0.0
C490 C 0.95566 0.98081 0.40619 0.0
C491 C 0.97577 0.00659 0.38975 0.0
C492 C 0.99456 0.01983 0.38767 0.0
C493 C 0.94046 0.98162 0.39248 0.0
C494 C 0.94316 0.99465 0.37681 0.0
C495 C 0.96064 0.00725 0.37589 0.0
C496 C 0.92835 0.99482 0.36074 0.0
C497 C 0.92159 0.96867 0.3951 0.0
C498 C 0.92238 0.97633 0.34801 0.0
C499 C 0.90886 0.9765 0.33248 0.0
C500 C 0.90121 0.99523 0.32916 0.0
C501 C 0.90727 0.01378 0.34186 0.0
C502 C 0.92074 0.01357 0.35749 0.0
H503 H 0.91964 0.96506 0.41112 0.0
H504 H 0.90891 0.9768 0.39106 0.0
H505 H 0.92174 0.95362 0.38484 0.0
H506 H 0.92842 0.96177 0.34986 0.0
H507 H 0.90467 0.96196 0.32287 0.0
H508 H 0.2165 0.29533 0.68593 0.0
H509 H 0.2327 0.28105 0.6541 0.0
H510 H 0.23758 0.22324 0.67887 0.0
H511 H 0.22221 0.23793 0.71095 0.0
H512 H 0.26998 0.23407 0.65706 0.0
H513 H 0.20345 0.23893 0.61217 0.0
H514 H 0.21333 0.26352 0.62527 0.0
H515 H 0.20369 0.24333 0.63985 0.0
C516 C 0.22146 0.27977 0.68465 0.0
C517 C 0.21797 0.26758 0.70068 0.0
C518 C 0.23047 0.27153 0.66643 0.0
C519 C 0.23591 0.25088 0.6639 0.0
C520 C 0.23336 0.23913 0.68038 0.0
H521 H 0.2467 0.16468 0.554 0.0
H522 H 0.23728 0.18553 0.58582 0.0
C523 C 0.22451 0.24744 0.69863 0.0
C524 C 0.24334 0.24101 0.64385 0.0
H525 H 0.23061 0.22623 0.59372 0.0
C526 C 0.26144 0.23245 0.64317 0.0
C527 C 0.23203 0.23863 0.6258 0.0
C528 C 0.21197 0.2464 0.62575 0.0
C529 C 0.26846 0.22138 0.62501 0.0
C530 C 0.25724 0.21922 0.60692 0.0
C531 C 0.23926 0.22802 0.60755 0.0
C532 C 0.26325 0.20681 0.58746 0.0
C533 C 0.28744 0.21141 0.62562 0.0
C534 C 0.28091 0.21196 0.57761 0.0
C535 C 0.28643 0.19992 0.55943 0.0
C536 C 0.27427 0.18268 0.55063 0.0
C537 C 0.25643 0.17785 0.56033 0.0
C538 C 0.251 0.18977 0.57855 0.0
H539 H 0.29167 0.21003 0.64158 0.0
H540 H 0.28655 0.1956 0.61659 0.0
H541 H 0.29914 0.22122 0.61883 0.0
H542 H 0.29039 0.22534 0.58392 0.0
H543 H 0.3002 0.20417 0.55226 0.0
H544 H 0.51566 0.55746 0.61096 0.0
H545 H 0.49335 0.55313 0.63996 0.0
H546 H 0.47686 0.48978 0.61316 0.0
H547 H 0.4988 0.4944 0.58388 0.0
H548 H 0.44523 0.51211 0.62734 0.0
H549 H 0.50255 0.51903 0.68657 0.0
H550 H 0.50342 0.54057 0.67187 0.0
H551 H 0.50793 0.51495 0.6594 0.0
C552 C 0.50715 0.5427 0.61131 0.0
C553 C 0.50888 0.52622 0.59537 0.0
C554 C 0.49459 0.54016 0.6279 0.0
C555 C 0.48369 0.52103 0.62885 0.0
C556 C 0.48523 0.50462 0.61277 0.0
H557 H 0.42513 0.47954 0.7356 0.0
H558 H 0.44598 0.48398 0.70576 0.0
C559 C 0.49778 0.50719 0.59617 0.0
C560 C 0.47056 0.51815 0.64653 0.0
H561 H 0.46985 0.51854 0.69854 0.0
C562 C 0.45059 0.51347 0.64292 0.0
C563 C 0.47765 0.51969 0.66678 0.0
C564 C 0.49908 0.52364 0.67144 0.0
C565 C 0.43745 0.51053 0.65908 0.0
C566 C 0.44448 0.51267 0.6794 0.0
C567 C 0.46448 0.51711 0.68297 0.0
C568 C 0.43143 0.50987 0.69718 0.0
C569 C 0.41625 0.50477 0.65421 0.0
C570 C 0.41641 0.52305 0.70232 0.0
C571 C 0.40439 0.52052 0.71936 0.0
C572 C 0.40732 0.50484 0.73164 0.0
C573 C 0.42246 0.49175 0.72648 0.0
C574 C 0.43441 0.49427 0.70943 0.0
H575 H 0.4141 0.49856 0.63775 0.0
H576 H 0.40996 0.49289 0.66372 0.0
H577 H 0.40807 0.51891 0.65764 0.0
H578 H 0.41411 0.53547 0.69331 0.0
H579 H 0.39294 0.53094 0.72299 0.0
H580 H 0.79631 0.22377 0.67127 0.0
H581 H 0.78861 0.2463 0.64579 0.0
H582 H 0.78035 0.29656 0.69452 0.0
H583 H 0.78818 0.27391 0.71997 0.0
H584 H 0.75384 0.26455 0.64309 0.0
H585 H 0.8159 0.32521 0.65427 0.0
H586 H 0.81597 0.3004 0.66395 0.0
H587 H 0.80241 0.32074 0.67716 0.0
C588 C 0.79299 0.23969 0.67642 0.0
C589 C 0.79282 0.24721 0.69745 0.0
C590 C 0.78861 0.25253 0.66194 0.0
C591 C 0.78408 0.27318 0.66823 0.0
C592 C 0.78417 0.28083 0.68928 0.0
H593 H 0.74892 0.36657 0.59348 0.0
H594 H 0.75575 0.34831 0.62269 0.0
C595 C 0.7886 0.26794 0.70378 0.0
C596 C 0.77832 0.2862 0.65273 0.0
H597 H 0.79146 0.33054 0.63116 0.0
C598 C 0.76206 0.27899 0.64051 0.0
C599 C 0.78896 0.30513 0.6495 0.0
C600 C 0.80688 0.31331 0.66177 0.0
C601 C 0.75625 0.29007 0.62501 0.0
C602 C 0.76716 0.3087 0.62142 0.0
C603 C 0.78313 0.31624 0.63397 0.0
C604 C 0.76289 0.31985 0.60392 0.0
C605 C 0.73847 0.28172 0.61257 0.0
C606 C 0.76485 0.30997 0.58374 0.0
C607 C 0.76101 0.3203 0.5671 0.0
C608 C 0.75516 0.34081 0.57026 0.0
C609 C 0.75329 0.35075 0.59052 0.0
C610 C 0.75723 0.34038 0.60721 0.0
H611 H 0.72885 0.27081 0.6207 0.0
H612 H 0.72996 0.29465 0.60908 0.0
H613 H 0.7431 0.27304 0.5978 0.0
H614 H 0.76952 0.29426 0.58085 0.0
H615 H 0.7627 0.31219 0.55173 0.0
H616 H 0.50877 0.99222 0.57106 0.0
H617 H 0.53331 0.99331 0.59772 0.0
H618 H 0.503 0.93941 0.6195 0.0
H619 H 0.47812 0.93879 0.59304 0.0
H620 H 0.50966 0.97131 0.65005 0.0
H621 H 0.5782 0.95925 0.60665 0.0
H622 H 0.56555 0.97964 0.59817 0.0
H623 H 0.55459 0.95322 0.59492 0.0
C624 C 0.50764 0.9804 0.58133 0.0
C625 C 0.49164 0.96547 0.58015 0.0
C626 C 0.52172 0.9809 0.59644 0.0
C627 C 0.52016 0.9663 0.61052 0.0
C628 C 0.50458 0.95075 0.60874 0.0
H629 H 0.60698 0.96877 0.70747 0.0
H630 H 0.58608 0.95753 0.67762 0.0
C631 C 0.49047 0.95029 0.5936 0.0
C632 C 0.53348 0.96882 0.62838 0.0
H633 H 0.58147 0.97574 0.64171 0.0
C634 C 0.52535 0.97197 0.64821 0.0
C635 C 0.55397 0.96949 0.62606 0.0
C636 C 0.56359 0.965 0.6053 0.0
C637 C 0.53712 0.97665 0.66568 0.0
C638 C 0.5576 0.97863 0.66326 0.0
C639 C 0.56577 0.97454 0.64353 0.0
C640 C 0.57067 0.9856 0.681 0.0
C641 C 0.52749 0.97954 0.68658 0.0
C642 C 0.56923 0.00528 0.69255 0.0
C643 C 0.58111 0.01174 0.70958 0.0
C644 C 0.5948 0.9987 0.71539 0.0
C645 C 0.59655 0.97918 0.70349 0.0
C646 C 0.58463 0.97272 0.68641 0.0
H647 H 0.51255 0.97165 0.68628 0.0
H648 H 0.53611 0.97333 0.69817 0.0
H649 H 0.52634 0.99646 0.69153 0.0
H650 H 0.55886 0.01567 0.68839 0.0
H651 H 0.57945 0.02693 0.71828 0.0
H652 H 0.81484 0.24555 0.77341 0.0
H653 H 0.83885 0.24216 0.79959 0.0
H654 H 0.85148 0.18215 0.76744 0.0
H655 H 0.82789 0.18598 0.74087 0.0
H656 H 0.84308 0.21271 0.82592 0.0
H657 H 0.90475 0.21465 0.77018 0.0
H658 H 0.88075 0.22115 0.76418 0.0
H659 H 0.8858 0.19429 0.7636 0.0
C660 C 0.82275 0.23165 0.77205 0.0
C661 C 0.81979 0.21615 0.75509 0.0
C662 C 0.83636 0.22965 0.78701 0.0
C663 C 0.84727 0.21209 0.78527 0.0
C664 C 0.84355 0.19604 0.76887 0.0
H665 H 0.94831 0.19374 0.85871 0.0
H666 H 0.92063 0.18703 0.83518 0.0
C667 C 0.82995 0.19809 0.75385 0.0
C668 C 0.863 0.21118 0.80021 0.0
H669 H 0.91237 0.21148 0.80432 0.0
C670 C 0.85822 0.2123 0.82118 0.0
C671 C 0.88277 0.21064 0.79402 0.0
C672 C 0.88893 0.21029 0.77181 0.0
C673 C 0.87266 0.21315 0.83614 0.0
C674 C 0.89244 0.21318 0.82999 0.0
C675 C 0.89719 0.21141 0.80899 0.0
C676 C 0.90851 0.21653 0.84511 0.0
C677 C 0.86663 0.21411 0.85842 0.0
C678 C 0.91093 0.23537 0.85841 0.0
C679 C 0.92672 0.23928 0.87177 0.0
C680 C 0.9405 0.22445 0.87209 0.0
C681 C 0.93793 0.20546 0.85891 0.0
C682 C 0.92214 0.2016 0.84544 0.0
H683 H 0.85128 0.20786 0.86011 0.0
H684 H 0.87614 0.20518 0.86687 0.0
H685 H 0.86791 0.23064 0.86567 0.0
H686 H 0.90083 0.24729 0.85812 0.0
H687 H 0.92824 0.25409 0.88164 0.0
H688 H 0.50251 0.94329 0.53792 0.0
H689 H 0.5112 0.90906 0.52069 0.0
H690 H 0.45528 0.88118 0.53761 0.0
H691 H 0.44674 0.9153 0.55485 0.0
H692 H 0.50915 0.86508 0.53419 0.0
H693 H 0.45829 0.87564 0.47234 0.0
H694 H 0.46801 0.89717 0.49056 0.0
H695 H 0.44886 0.87925 0.49819 0.0
C696 C 0.49241 0.92966 0.53845 0.0
C697 C 0.47395 0.93175 0.54749 0.0
C698 C 0.4973 0.9102 0.52858 0.0
C699 C 0.48375 0.89271 0.52766 0.0
C700 C 0.46585 0.89454 0.538 0.0
H701 H 0.47255 0.77228 0.45119 0.0
H702 H 0.46763 0.80332 0.47579 0.0
C703 C 0.461 0.91393 0.54785 0.0
C704 C 0.48738 0.87311 0.51426 0.0
H705 H 0.47266 0.84359 0.46945 0.0
C706 C 0.50124 0.86033 0.52001 0.0
C707 C 0.47698 0.86702 0.49581 0.0
C708 C 0.46228 0.8805 0.48868 0.0
C709 C 0.50471 0.84134 0.50793 0.0
C710 C 0.49436 0.83528 0.48938 0.0
C711 C 0.48054 0.84817 0.48368 0.0
C712 C 0.49771 0.81582 0.47543 0.0
C713 C 0.51909 0.82774 0.5154 0.0
C714 C 0.51622 0.81252 0.46694 0.0
C715 C 0.51909 0.79473 0.45298 0.0
C716 C 0.50345 0.77998 0.44697 0.0
C717 C 0.48491 0.78332 0.45548 0.0
C718 C 0.48208 0.80105 0.46956 0.0
H719 H 0.52122 0.8313 0.53227 0.0
H720 H 0.51426 0.8109 0.51164 0.0
H721 H 0.53338 0.83067 0.50783 0.0
H722 H 0.5284 0.82393 0.47077 0.0
H723 H 0.53353 0.79275 0.44661 0.0
H724 H 0.17421 0.2434 0.76093 0.0
H725 H 0.14545 0.23638 0.78245 0.0
H726 H 0.12361 0.29421 0.77071 0.0
H727 H 0.15214 0.3009 0.74889 0.0
H728 H 0.13391 0.26171 0.81795 0.0
H729 H 0.07656 0.25171 0.75857 0.0
H730 H 0.10208 0.25055 0.75223 0.0
H731 H 0.09213 0.27539 0.75898 0.0
C732 C 0.16306 0.25436 0.76277 0.0
C733 C 0.16521 0.27262 0.75332 0.0
C734 C 0.14675 0.25044 0.77507 0.0
C735 C 0.13229 0.26465 0.77796 0.0
C736 C 0.1344 0.28285 0.76838 0.0
H737 H 0.02731 0.27659 0.85189 0.0
H738 H 0.05509 0.28124 0.8287 0.0
C739 C 0.15071 0.28676 0.75611 0.0
C740 C 0.11546 0.26099 0.79177 0.0
H741 H 0.06582 0.25487 0.7934 0.0
C742 C 0.11902 0.26005 0.81258 0.0
C743 C 0.09607 0.25894 0.78471 0.0
C744 C 0.09142 0.259 0.76237 0.0
C745 C 0.10368 0.25757 0.82662 0.0
C746 C 0.08427 0.2556 0.81958 0.0
C747 C 0.08071 0.25644 0.79875 0.0
C748 C 0.06746 0.25267 0.8336 0.0
C749 C 0.10835 0.25762 0.84898 0.0
C750 C 0.06509 0.23493 0.84383 0.0
C751 C 0.04927 0.23224 0.85711 0.0
C752 C 0.03543 0.24718 0.86031 0.0
C753 C 0.03772 0.26481 0.84982 0.0
C754 C 0.05356 0.26749 0.83655 0.0
H755 H 0.12334 0.26456 0.85268 0.0
H756 H 0.09792 0.26646 0.85908 0.0
H757 H 0.10727 0.24129 0.85255 0.0
H758 H 0.07543 0.22309 0.84145 0.0
H759 H 0.04789 0.21841 0.86483 0.0
H760 H 0.53307 0.52918 0.51153 0.0
H761 H 0.5313 0.5526 0.48513 0.0
H762 H 0.54758 0.60556 0.53028 0.0
H763 H 0.54951 0.58209 0.55636 0.0
H764 H 0.50464 0.58174 0.48901 0.0
H765 H 0.57786 0.62128 0.48032 0.0
H766 H 0.57396 0.59729 0.4916 0.0
H767 H 0.57068 0.62205 0.50678 0.0
C768 C 0.53708 0.54573 0.51543 0.0
C769 C 0.54153 0.55398 0.53577 0.0
C770 C 0.53593 0.55911 0.50047 0.0
C771 C 0.53943 0.58086 0.50567 0.0
C772 C 0.54522 0.58886 0.52574 0.0
H773 H 0.48369 0.68249 0.46892 0.0
H774 H 0.49464 0.65321 0.48438 0.0
C775 C 0.5463 0.57551 0.54064 0.0
C776 C 0.53421 0.59539 0.49133 0.0
H777 H 0.55076 0.63954 0.47107 0.0
C778 C 0.51483 0.59415 0.48477 0.0
C779 C 0.54749 0.61151 0.48568 0.0
C780 C 0.56871 0.61301 0.49129 0.0
C781 C 0.50816 0.60918 0.47363 0.0
C782 C 0.52114 0.62608 0.46918 0.0
C783 C 0.54076 0.62673 0.47476 0.0
C784 C 0.5144 0.64366 0.45953 0.0
C785 C 0.4872 0.60698 0.46697 0.0
C786 C 0.52212 0.64827 0.44059 0.0
C787 C 0.51591 0.66505 0.4317 0.0
C788 C 0.50197 0.67767 0.4417 0.0
C789 C 0.49435 0.67305 0.46074 0.0
C790 C 0.50053 0.65625 0.46957 0.0
H791 H 0.48086 0.59057 0.46627 0.0
H792 H 0.47856 0.61685 0.47824 0.0
H793 H 0.48576 0.61219 0.45167 0.0
H794 H 0.53291 0.63882 0.43265 0.0
H795 H 0.52214 0.66821 0.41707 0.0
H796 H 0.85143 0.82194 0.8031 0.0
H797 H 0.87951 0.81297 0.78116 0.0
H798 H 0.84888 0.75405 0.75793 0.0
H799 H 0.82054 0.76346 0.77952 0.0
H800 H 0.90406 0.78093 0.7743 0.0
H801 H 0.85758 0.78261 0.70646 0.0
H802 H 0.84983 0.79153 0.73229 0.0
H803 H 0.84887 0.76402 0.72318 0.0
C804 C 0.85097 0.80688 0.79365 0.0
C805 C 0.83389 0.79345 0.79275 0.0
C806 C 0.86695 0.80176 0.78111 0.0
C807 C 0.8661 0.78309 0.76748 0.0
C808 C 0.84967 0.76878 0.76797 0.0
H809 H 0.94243 0.74159 0.66536 0.0
H810 H 0.9172 0.74393 0.69206 0.0
C811 C 0.83362 0.77397 0.78048 0.0
C812 C 0.88167 0.77961 0.75168 0.0
H813 H 0.89002 0.77466 0.69985 0.0
C814 C 0.90099 0.77946 0.75802 0.0
C815 C 0.87768 0.77794 0.73041 0.0
C816 C 0.85742 0.77921 0.72261 0.0
C817 C 0.91638 0.77752 0.74368 0.0
C818 C 0.91236 0.77594 0.72247 0.0
C819 C 0.89305 0.77583 0.71612 0.0
C820 C 0.92798 0.77455 0.70654 0.0
C821 C 0.93679 0.77699 0.75133 0.0
C822 C 0.94226 0.79116 0.7056 0.0
C823 C 0.95668 0.78994 0.69025 0.0
C824 C 0.95707 0.77207 0.67553 0.0
C825 C 0.94261 0.75556 0.67644 0.0
C826 C 0.92818 0.75685 0.69172 0.0
H827 H 0.93687 0.77332 0.76737 0.0
H828 H 0.94478 0.76524 0.74136 0.0
H829 H 0.94475 0.79254 0.75096 0.0
H830 H 0.94216 0.80515 0.71664 0.0
H831 H 0.96756 0.80294 0.68999 0.0
H832 H 0.05472 0.9813 0.52553 0.0
H833 H 0.0556 0.95689 0.55117 0.0
H834 H 0.05629 0.90538 0.50225 0.0
H835 H 0.05589 0.92981 0.47692 0.0
H836 H 0.02658 0.92746 0.55534 0.0
H837 H 0.09449 0.88818 0.54082 0.0
H838 H 0.0907 0.91232 0.53106 0.0
H839 H 0.08138 0.8876 0.51744 0.0
C840 C 0.05587 0.96484 0.52042 0.0
C841 C 0.05532 0.9573 0.49939 0.0
C842 C 0.05621 0.9509 0.53499 0.0
C843 C 0.05618 0.92926 0.52868 0.0
C844 C 0.05679 0.92197 0.50758 0.0
H845 H 0.01841 0.81249 0.56517 0.0
H846 H 0.03007 0.8432 0.54924 0.0
C847 C 0.05647 0.93588 0.49309 0.0
C848 C 0.05285 0.91406 0.54375 0.0
H849 H 0.06798 0.86848 0.55641 0.0
C850 C 0.03589 0.91485 0.55597 0.0
C851 C 0.06496 0.89756 0.54457 0.0
C852 C 0.084 0.89649 0.53291 0.0
C853 C 0.03012 0.89894 0.56794 0.0
C854 C 0.04166 0.88186 0.5678 0.0
C855 C 0.05908 0.88154 0.55638 0.0
C856 C 0.03504 0.86335 0.57794 0.0
C857 C 0.01117 0.89987 0.57978 0.0
C858 C 0.03404 0.86448 0.59942 0.0
C859 C 0.02739 0.84687 0.60866 0.0
C860 C 0.02156 0.82786 0.59652 0.0
C861 C 0.02268 0.82687 0.57501 0.0
C862 C 0.02942 0.84439 0.56584 0.0
H863 H 0.00277 0.9129 0.57632 0.0
H864 H 1.00203 0.88494 0.57619 0.0
H865 H 0.01419 0.9021 0.59649 0.0
H866 H 0.03845 0.87896 0.60903 0.0
H867 H 0.02678 0.84815 0.62526 0.0
H868 H 0.15798 0.68932 0.77253 0.0
H869 H 0.13116 0.69475 0.75017 0.0
H870 H 0.16229 0.75145 0.73536 0.0
H871 H 0.1892 0.74565 0.75725 0.0
H872 H 0.10896 0.72886 0.7552 0.0
H873 H 0.14557 0.72223 0.67897 0.0
H874 H 0.15573 0.71315 0.70098 0.0
H875 H 0.15825 0.74048 0.6981 0.0
C876 C 0.15915 0.70266 0.76411 0.0
C877 C 0.17553 0.71707 0.76645 0.0
C878 C 0.14387 0.70582 0.75147 0.0
C879 C 0.14484 0.72337 0.74091 0.0
C880 C 0.16139 0.73759 0.74302 0.0
H881 H 0.06563 0.7818 0.66992 0.0
H882 H 0.09306 0.77272 0.68919 0.0
C883 C 0.17665 0.7344 0.75562 0.0
C884 C 0.12804 0.72761 0.72879 0.0
H885 H 0.11472 0.73664 0.68115 0.0
C886 C 0.11015 0.73036 0.73896 0.0
C887 C 0.12968 0.72968 0.70764 0.0
C888 C 0.14829 0.72604 0.69571 0.0
C889 C 0.09398 0.7356 0.72867 0.0
C890 C 0.09568 0.73785 0.70757 0.0
C891 C 0.11351 0.73497 0.69735 0.0
C892 C 0.07908 0.74321 0.69585 0.0
C893 C 0.07535 0.73925 0.74057 0.0
C894 C 0.06225 0.7295 0.69305 0.0
C895 C 0.04656 0.73463 0.68208 0.0
C896 C 0.04745 0.75354 0.67364 0.0
C897 C 0.06444 0.76715 0.6763 0.0
C898 C 0.08014 0.76198 0.68726 0.0
H899 H 0.07779 0.74181 0.75742 0.0
H900 H 0.0686 0.75297 0.73612 0.0
H901 H 0.06488 0.72533 0.73709 0.0
H902 H 0.06128 0.71477 0.69927 0.0
H903 H 0.03375 0.72373 0.68022 0.0
H904 H 0.99877 0.56483 0.50559 0.0
H905 H 0.01019 0.59883 0.52455 0.0
H906 H 0.97375 0.62964 0.48737 0.0
H907 H 0.96268 0.59554 0.46826 0.0
H908 H 0.01084 0.65232 0.49799 0.0
H909 H 0.97013 0.62635 0.56512 0.0
H910 H 0.98813 0.60935 0.55444 0.0
H911 H 0.96732 0.61259 0.53947 0.0
C912 C 0.9939 0.57901 0.50103 0.0
C913 C 0.98016 0.57787 0.48541 0.0
C914 C 1.00019 0.59833 0.51195 0.0
C915 C 0.99257 0.61669 0.50755 0.0
C916 C 0.97981 0.61565 0.49099 0.0
H917 H 0.98198 0.72912 0.59362 0.0
H918 H 0.97626 0.6979 0.56842 0.0
C919 C 0.97358 0.59631 0.48003 0.0
C920 C 0.99627 0.63652 0.52149 0.0
H921 H 0.98836 0.65907 0.57063 0.0
C922 C 0.00597 0.65384 0.51388 0.0
C923 C 0.98952 0.63854 0.54209 0.0
C924 C 0.97803 0.62081 0.55078 0.0
C925 C 0.00942 0.67307 0.52649 0.0
C926 C 0.0032 0.67487 0.54728 0.0
C927 C 0.99324 0.65762 0.55474 0.0
C928 C 0.00676 0.69448 0.56164 0.0
C929 C 0.01936 0.69137 0.51735 0.0
C930 C 0.02581 0.70287 0.56627 0.0
C931 C 0.02913 0.72073 0.58063 0.0
C932 C 0.01345 0.73046 0.59078 0.0
C933 C 0.99438 0.72204 0.58607 0.0
C934 C 0.99108 0.7042 0.57167 0.0
H935 H 0.01839 0.68913 0.50032 0.0
H936 H 0.01289 0.70614 0.52343 0.0
H937 H 0.03499 0.69302 0.52146 0.0
H938 H 0.03814 0.69537 0.55908 0.0
H939 H 0.044 0.72673 0.58397 0.0
H940 H 0.74273 0.80539 0.25648 0.0
H941 H 0.76658 0.83577 0.25749 0.0
H942 H 0.74283 0.85118 0.20163 0.0
H943 H 0.71856 0.82111 0.20109 0.0
H944 H 0.79512 0.85001 0.23083 0.0
H945 H 0.73526 0.90307 0.24286 0.0
H946 H 0.73146 0.87544 0.24447 0.0
H947 H 0.73346 0.88469 0.21984 0.0
C948 C 0.74287 0.81517 0.24431 0.0
C949 C 0.7288 0.8112 0.22885 0.0
C950 C 0.75646 0.83243 0.24485 0.0
C951 C 0.75619 0.84599 0.22989 0.0
C952 C 0.74302 0.84115 0.21357 0.0
H953 H 0.81682 0.96908 0.22601 0.0
H954 H 0.79766 0.93567 0.21741 0.0
C955 C 0.72935 0.8239 0.2131 0.0
C956 C 0.76876 0.86586 0.23231 0.0
H957 H 0.76713 0.91889 0.24113 0.0
C958 C 0.78902 0.86508 0.23298 0.0
C959 C 0.76075 0.8855 0.23527 0.0
C960 C 0.73905 0.88734 0.23577 0.0
C961 C 0.8015 0.88344 0.23649 0.0
C962 C 0.79345 0.90304 0.23966 0.0
C963 C 0.77323 0.90383 0.23865 0.0
C964 C 0.80566 0.92294 0.24459 0.0
C965 C 0.82318 0.88175 0.23667 0.0
C966 C 0.81633 0.92694 0.26286 0.0
C967 C 0.82724 0.94606 0.26789 0.0
C968 C 0.82762 0.96155 0.25474 0.0
C969 C 0.81687 0.95749 0.23647 0.0
C970 C 0.80592 0.9384 0.23151 0.0
H971 H 0.8272 0.86636 0.22889 0.0
H972 H 0.83105 0.89431 0.22903 0.0
H973 H 0.82816 0.88346 0.25281 0.0
H974 H 0.81601 0.91537 0.27338 0.0
H975 H 0.83532 0.94869 0.28209 0.0
H976 H 0.73857 0.19325 0.27593 0.0
H977 H 0.76176 0.16708 0.27935 0.0
H978 H 0.73345 0.15374 0.33582 0.0
H979 H 0.70997 0.17957 0.33205 0.0
H980 H 0.78782 0.16264 0.31119 0.0
H981 H 0.73064 0.09661 0.29946 0.0
H982 H 0.72678 0.12248 0.29379 0.0
H983 H 0.72592 0.11697 0.3199 0.0
C984 C 0.73741 0.18471 0.28905 0.0
C985 C 0.72246 0.18813 0.30361 0.0
C986 C 0.75066 0.16989 0.29106 0.0
C987 C 0.7491 0.15822 0.30765 0.0
C988 C 0.73469 0.16232 0.32272 0.0
H989 H 0.80954 0.05059 0.33154 0.0
H990 H 0.78908 0.08004 0.33445 0.0
C991 C 0.72143 0.17716 0.32069 0.0
C992 C 0.76213 0.14127 0.30866 0.0
H993 H 0.76233 0.08826 0.30619 0.0
C994 C 0.78227 0.14637 0.31016 0.0
C995 C 0.75483 0.12007 0.3073 0.0
C996 C 0.73339 0.11358 0.30485 0.0
C997 C 0.79532 0.13083 0.31039 0.0
C998 C 0.78804 0.10961 0.30869 0.0
C999 C 0.76787 0.10454 0.30752 0.0
C1000 C 0.80107 0.09232 0.30741 0.0
C1001 C 0.81677 0.13729 0.31264 0.0
C1002 C 0.81447 0.08933 0.29114 0.0
C1003 C 0.82618 0.07253 0.28942 0.0
C1004 C 0.82462 0.05826 0.30388 0.0
C1005 C 0.81115 0.06129 0.32016 0.0
C1006 C 0.79944 0.07811 0.32186 0.0
H1007 H 0.81941 0.15386 0.31959 0.0
H1008 H 0.82386 0.12726 0.32226 0.0
H1009 H 0.8238 0.13563 0.29723 0.0
H1010 H 0.81566 0.09981 0.27954 0.0
H1011 H 0.83631 0.07062 0.27663 0.0
H1012 H 0.40687 0.03973 0.97555 0.0
H1013 H 0.3784 0.01732 0.98481 0.0
H1014 H 0.41573 0.96835 0.99158 0.0
H1015 H 0.44415 0.99105 0.98282 0.0
H1016 H 0.36383 0.97826 0.96612 0.0
H1017 H 0.38615 0.9745 0.04615 0.0
H1018 H 0.39754 0.99324 0.0307 0.0
H1019 H 0.40418 0.9667 0.02721 0.0
C1020 C 0.40883 0.02415 0.97901 0.0
C1021 C 0.42747 0.0169 0.9784 0.0
C1022 C 0.39267 0.0114 0.98427 0.0
C1023 C 0.395 0.99129 0.98916 0.0
C1024 C 0.41366 0.98395 0.98823 0.0
H1025 H 0.31804 0.88792 0.0203 0.0
H1026 H 0.34559 0.91155 0.01176 0.0
C1027 C 0.4298 0.99674 0.98303 0.0
C1028 C 0.37789 0.97793 0.99504 0.0
H1029 H 0.35915 0.95148 0.03354 0.0
C1030 C 0.36273 0.9725 0.98091 0.0
C1031 C 0.3765 0.9705 0.01437 0.0
C1032 C 0.39186 0.97667 0.03057 0.0
C1033 C 0.34641 0.95941 0.98539 0.0
C1034 C 0.34514 0.9518 0.00461 0.0
C1035 C 0.36022 0.95733 0.0188 0.0
C1036 C 0.32841 0.93777 0.01016 0.0
C1037 C 0.33086 0.95341 0.96936 0.0
C1038 C 0.30969 0.94484 0.01241 0.0
C1039 C 0.2939 0.9314 0.01734 0.0
C1040 C 0.29659 0.91066 0.02013 0.0
C1041 C 0.31545 0.90377 0.01819 0.0
C1042 C 0.33122 0.91724 0.01333 0.0
H1043 H 0.33597 0.95685 0.95393 0.0
H1044 H 0.32606 0.93652 0.96838 0.0
H1045 H 0.31804 0.9624 0.97372 0.0
H1046 H 0.3073 0.96076 0.01034 0.0
H1047 H 0.27958 0.93721 0.01877 0.0
H1048 H 0.2539 0.31278 0.29104 0.0
H1049 H 0.23117 0.33934 0.28707 0.0
H1050 H 0.27602 0.38802 0.30638 0.0
H1051 H 0.29866 0.36144 0.3102 0.0
H1052 H 0.218 0.37141 0.31541 0.0
H1053 H 0.25893 0.40354 0.25163 0.0
H1054 H 0.2637 0.37896 0.25989 0.0
H1055 H 0.27342 0.4032 0.27397 0.0
C1056 C 0.25875 0.32918 0.29452 0.0
C1057 C 0.27795 0.33521 0.30079 0.0
C1058 C 0.24584 0.34429 0.29222 0.0
C1059 C 0.25201 0.36565 0.29607 0.0
C1060 C 0.27109 0.37164 0.30286 0.0
H1061 H 0.2029 0.48336 0.29447 0.0
H1062 H 0.22261 0.4546 0.29874 0.0
C1063 C 0.28396 0.35654 0.3051 0.0
C1064 C 0.23856 0.38171 0.29306 0.0
H1065 H 0.23354 0.42322 0.26705 0.0
C1066 C 0.22129 0.38264 0.30472 0.0
C1067 C 0.24286 0.39628 0.27903 0.0
C1068 C 0.26064 0.39537 0.26526 0.0
C1069 C 0.20852 0.39822 0.30322 0.0
C1070 C 0.21306 0.41305 0.28952 0.0
C1071 C 0.23016 0.41189 0.27762 0.0
C1072 C 0.20057 0.43026 0.2876 0.0
C1073 C 0.19058 0.39909 0.31673 0.0
C1074 C 0.18162 0.4261 0.27986 0.0
C1075 C 0.17027 0.44255 0.27736 0.0
C1076 C 0.17773 0.46344 0.2825 0.0
C1077 C 0.19668 0.46749 0.29037 0.0
C1078 C 0.208 0.45106 0.29281 0.0
H1079 H 0.19129 0.38939 0.32939 0.0
H1080 H 0.18854 0.41544 0.32346 0.0
H1081 H 0.17762 0.39314 0.30733 0.0
H1082 H 0.17574 0.41015 0.27544 0.0
H1083 H 0.15576 0.43889 0.2712 0.0
H1084 H 0.09372 0.97098 0.47389 0.0
H1085 H 0.12628 0.98879 0.48055 0.0
H1086 H 0.10015 0.04277 0.51172 0.0
H1087 H 0.06773 0.02506 0.50441 0.0
H1088 H 0.12485 0.05344 0.48277 0.0
H1089 H 0.16117 0.00309 0.52967 0.0
H1090 H 0.15146 0.98915 0.50616 0.0
H1091 H 0.13523 1.00044 0.52555 0.0
C1092 C 0.09511 0.98637 0.48273 0.0
C1093 C 0.07844 0.99671 0.48882 0.0
C1094 C 0.11365 0.99656 0.48654 0.0
C1095 C 0.11573 0.01711 0.49678 0.0
C1096 C 0.09896 0.02694 0.50381 0.0
H1097 H 0.22176 0.09047 0.5382 0.0
H1098 H 0.19125 0.06842 0.53487 0.0
C1099 C 0.08049 0.01684 0.49979 0.0
C1100 C 0.13507 0.02921 0.49835 0.0
H1101 H 0.18153 0.02935 0.51561 0.0
C1102 C 0.13721 0.04819 0.49005 0.0
C1103 C 0.1512 0.02246 0.50792 0.0
C1104 C 0.14965 0.00277 0.51801 0.0
C1105 C 0.15493 0.06058 0.49104 0.0
C1106 C 0.17123 0.05355 0.50006 0.0
C1107 C 0.16911 0.03461 0.50846 0.0
C1108 C 0.19032 0.0661 0.50174 0.0
C1109 C 0.15582 0.08137 0.48288 0.0
C1110 C 0.20022 0.07186 0.48418 0.0
C1111 C 0.21763 0.08469 0.48605 0.0
C1112 C 0.22563 0.09176 0.5055 0.0
C1113 C 0.21601 0.08538 0.52298 0.0
C1114 C 0.19856 0.07271 0.52111 0.0
H1115 H 0.1411 0.0869 0.48169 0.0
H1116 H 0.16485 0.09349 0.49285 0.0
H1117 H 0.16243 0.07968 0.46727 0.0
H1118 H 0.19441 0.06655 0.46903 0.0
H1119 H 0.22477 0.08913 0.47227 0.0
H1120 H 0.79211 0.16779 0.70834 0.0
H1121 H 0.7728 0.13659 0.71711 0.0
H1122 H 0.75787 0.1704 0.77564 0.0
H1123 H 0.77718 0.20168 0.76666 0.0
H1124 H 0.77184 0.11264 0.75201 0.0
H1125 H 0.70525 0.15426 0.74469 0.0
H1126 H 0.72873 0.1634 0.73523 0.0
H1127 H 0.72344 0.16715 0.76227 0.0
C1128 C 0.78507 0.16826 0.72326 0.0
C1129 C 0.78594 0.18695 0.73684 0.0
C1130 C 0.77407 0.15054 0.72826 0.0
C1131 C 0.76367 0.15131 0.74688 0.0
C1132 C 0.76562 0.16958 0.76109 0.0
H1133 H 0.66842 0.06333 0.77887 0.0
H1134 H 0.69289 0.09299 0.77975 0.0
C1135 C 0.77673 0.18732 0.75609 0.0
C1136 C 0.74948 0.13366 0.75036 0.0
H1137 H 0.70071 0.11948 0.75135 0.0
C1138 C 0.75629 0.11413 0.75206 0.0
C1139 C 0.7292 0.13568 0.75035 0.0
C1140 C 0.7211 0.15617 0.7479 0.0
C1141 C 0.74332 0.0965 0.75365 0.0
C1142 C 0.72303 0.09838 0.753 0.0
C1143 C 0.71625 0.11805 0.75181 0.0
C1144 C 0.70855 0.08006 0.75278 0.0
C1145 C 0.75149 0.07606 0.7561 0.0
C1146 C 0.709 0.06308 0.73713 0.0
C1147 C 0.69506 0.04608 0.73659 0.0
C1148 C 0.68022 0.04583 0.75158 0.0
C1149 C 0.67964 0.06301 0.76708 0.0
C1150 C 0.69364 0.07996 0.76764 0.0
H1151 H 0.76636 0.07859 0.76265 0.0
H1152 H 0.74203 0.06699 0.76617 0.0
H1153 H 0.75247 0.06658 0.74081 0.0
H1154 H 0.72003 0.06305 0.72516 0.0
H1155 H 0.69588 0.03319 0.72437 0.0
H1156 H 0.45695 0.01855 0.54231 0.0
H1157 H 0.43241 0.04149 0.5338 0.0
H1158 H 0.38685 0.99479 0.54569 0.0
H1159 H 0.41139 0.97217 0.55465 0.0
H1160 H 0.4049 0.03338 0.50293 0.0
H1161 H 0.36907 0.04778 0.57922 0.0
H1162 H 0.39247 0.03708 0.5757 0.0
H1163 H 0.37048 0.02055 0.57007 0.0
C1164 C 0.44167 0.01342 0.54334 0.0
C1165 C 0.43595 0.99373 0.54917 0.0
C1166 C 0.4277 0.02642 0.53841 0.0
C1167 C 0.40779 0.01997 0.53937 0.0
C1168 C 0.40209 1.00026 0.54522 0.0
H1169 H 0.31117 0.0631 0.47944 0.0
H1170 H 0.33778 0.04425 0.48995 0.0
C1171 C 0.41606 0.98729 0.55014 0.0
C1172 C 0.39299 0.03344 0.53348 0.0
H1173 H 0.35247 0.05758 0.55089 0.0
C1174 C 0.39351 0.0388 0.51345 0.0
C1175 C 0.37829 0.04073 0.54731 0.0
C1176 C 0.3776 0.03644 0.56934 0.0
C1177 C 0.3794 0.05075 0.50669 0.0
C1178 C 0.3642 0.05724 0.52023 0.0
C1179 C 0.36401 0.0524 0.54045 0.0
C1180 C 0.34824 0.06885 0.51367 0.0
C1181 C 0.38098 0.05644 0.48514 0.0
C1182 C 0.34499 0.08878 0.5238 0.0
C1183 C 0.3297 0.09957 0.51791 0.0
C1184 C 0.31727 0.09056 0.50183 0.0
C1185 C 0.32052 0.07055 0.49178 0.0
C1186 C 0.33581 0.05979 0.4977 0.0
H1187 H 0.396 0.0554 0.47888 0.0
H1188 H 0.37111 0.04541 0.47498 0.0
H1189 H 0.37666 0.07251 0.48465 0.0
H1190 H 0.35435 0.09601 0.53625 0.0
H1191 H 0.32759 0.11492 0.52601 0.0
H1192 H 0.54834 0.48548 0.53524 0.0
H1193 H 0.57863 0.4692 0.52544 0.0
H1194 H 0.61123 0.52868 0.54165 0.0
H1195 H 0.58079 0.54478 0.55194 0.0
H1196 H 0.61 0.47544 0.49904 0.0
H1197 H 0.63201 0.4917 0.58092 0.0
H1198 H 0.60783 0.49511 0.57264 0.0
H1199 H 0.62749 0.51436 0.56921 0.0
C1200 C 0.56198 0.49509 0.53619 0.0
C1201 C 0.56241 0.51624 0.54446 0.0
C1202 C 0.57925 0.48584 0.53064 0.0
C1203 C 0.59723 0.49762 0.53328 0.0
C1204 C 0.59753 0.51921 0.53989 0.0
H1205 H 0.70828 0.44537 0.49812 0.0
H1206 H 0.68009 0.46616 0.50058 0.0
C1207 C 0.5802 0.52846 0.5455 0.0
C1208 C 0.6155 0.48682 0.53085 0.0
H1209 H 0.65379 0.47438 0.55786 0.0
C1210 C 0.61968 0.47533 0.51183 0.0
C1211 C 0.62787 0.48632 0.54771 0.0
C1212 C 0.62355 0.49735 0.56884 0.0
C1213 C 0.63587 0.46332 0.50922 0.0
C1214 C 0.6484 0.4631 0.526 0.0
C1215 C 0.64425 0.47466 0.54498 0.0
C1216 C 0.66558 0.45049 0.52444 0.0
C1217 C 0.63902 0.45044 0.48871 0.0
C1218 C 0.6671 0.43514 0.53743 0.0
C1219 C 0.68331 0.42334 0.53621 0.0
C1220 C 0.69838 0.42671 0.522 0.0
C1221 C 0.69688 0.44224 0.50914 0.0
C1222 C 0.6807 0.45407 0.51042 0.0
H1223 H 0.62558 0.44803 0.47936 0.0
H1224 H 0.65045 0.45871 0.47999 0.0
H1225 H 0.64393 0.43493 0.49071 0.0
H1226 H 0.65564 0.43218 0.54844 0.0
H1227 H 0.684 0.41155 0.54637 0.0
H1228 H 0.68437 0.22044 0.35115 0.0
H1229 H 0.69721 0.24146 0.38256 0.0
H1230 H 0.752 0.25309 0.35163 0.0
H1231 H 0.7389 0.23228 0.32007 0.0
H1232 H 0.73096 0.24201 0.40788 0.0
H1233 H 0.73078 0.31139 0.36613 0.0
H1234 H 0.71872 0.28636 0.35639 0.0
H1235 H 0.74471 0.29062 0.35442 0.0
C1236 C 0.6993 0.22711 0.35134 0.0
C1237 C 0.71067 0.22504 0.33336 0.0
C1238 C 0.70662 0.23905 0.3692 0.0
C1239 C 0.72542 0.24913 0.36927 0.0
C1240 C 0.73736 0.24567 0.35176 0.0
H1241 H 0.77462 0.35229 0.45685 0.0
H1242 H 0.7702 0.32405 0.42831 0.0
C1243 C 0.72999 0.23368 0.33387 0.0
C1244 C 0.73156 0.26488 0.38686 0.0
H1245 H 0.74028 0.31749 0.40065 0.0
C1246 C 0.73317 0.2585 0.40631 0.0
C1247 C 0.73428 0.2864 0.38475 0.0
C1248 C 0.7319 0.29423 0.36436 0.0
C1249 C 0.73742 0.27312 0.42376 0.0
C1250 C 0.73973 0.29466 0.4217 0.0
C1251 C 0.73851 0.30097 0.40217 0.0
C1252 C 0.7428 0.31106 0.43961 0.0
C1253 C 0.73947 0.26537 0.44421 0.0
C1254 C 0.72875 0.31328 0.45533 0.0
C1255 C 0.73121 0.32943 0.47168 0.0
C1256 C 0.74772 0.34377 0.47252 0.0
C1257 C 0.76174 0.34153 0.4567 0.0
C1258 C 0.75927 0.32537 0.44038 0.0
H1259 H 0.74289 0.24874 0.44229 0.0
H1260 H 0.75106 0.27491 0.45353 0.0
H1261 H 0.72553 0.26655 0.45286 0.0
H1262 H 0.71569 0.30273 0.45479 0.0
H1263 H 0.7201 0.33075 0.48357 0.0
H1264 H 0.46872 0.04662 0.91899 0.0
H1265 H 0.49601 0.04519 0.89445 0.0
H1266 H 0.5361 0.04833 0.94458 0.0
H1267 H 0.50862 0.04881 0.969 0.0
H1268 H 0.52907 0.07025 0.88871 0.0
H1269 H 0.54791 0.9941 0.9099 0.0
H1270 H 0.52573 0.00562 0.91846 0.0
H1271 H 0.54836 0.01488 0.93093 0.0
C1272 C 0.4834 0.04711 0.92467 0.0
C1273 C 0.48667 0.04751 0.94574 0.0
C1274 C 0.49896 0.04639 0.91072 0.0
C1275 C 0.51807 0.04614 0.91764 0.0
C1276 C 0.52145 0.04799 0.93886 0.0
H1277 H 0.62608 0.02673 0.84854 0.0
H1278 H 0.60207 0.03553 0.8756 0.0
C1279 C 0.50583 0.04856 0.95281 0.0
C1280 C 0.53417 0.04283 0.9025 0.0
H1281 H 0.56817 0.00883 0.88535 0.0
C1282 C 0.53766 0.05686 0.88802 0.0
C1283 C 0.5453 0.02526 0.90152 0.0
C1284 C 0.54157 0.00898 0.91589 0.0
C1285 C 0.55197 0.05381 0.87263 0.0
C1286 C 0.56296 0.03619 0.87161 0.0
C1287 C 0.55973 0.02236 0.88625 0.0
C1288 C 0.57751 0.03146 0.85509 0.0
C1289 C 0.5553 0.06947 0.8576 0.0
C1290 C 0.57159 0.02602 0.83463 0.0
C1291 C 0.58524 0.02083 0.81914 0.0
C1292 C 0.60508 0.02102 0.82383 0.0
C1293 C 0.61093 0.02648 0.84438 0.0
C1294 C 0.59725 0.03152 0.85987 0.0
H1295 H 0.54892 0.08442 0.8632 0.0
H1296 H 0.57109 0.07275 0.85466 0.0
H1297 H 0.54836 0.06294 0.84279 0.0
H1298 H 0.55637 0.02554 0.83069 0.0
H1299 H 0.58023 0.01668 0.8035 0.0
H1300 H 0.32977 0.29324 0.34242 0.0
H1301 H 0.32855 0.26772 0.367 0.0
H1302 H 0.28705 0.22762 0.32858 0.0
H1303 H 0.28789 0.25365 0.30454 0.0
H1304 H 0.27317 0.2355 0.36582 0.0
H1305 H 0.34784 0.212 0.37236 0.0
H1306 H 0.34717 0.23987 0.37608 0.0
H1307 H 0.34067 0.22528 0.35156 0.0
C1308 C 0.32108 0.27854 0.33893 0.0
C1309 C 0.30912 0.27512 0.3216 0.0
C1310 C 0.32034 0.26395 0.35294 0.0
C1311 C 0.30782 0.24557 0.34963 0.0
C1312 C 0.29687 0.2416 0.33149 0.0
H1313 H 0.29459 0.15235 0.43603 0.0
H1314 H 0.30237 0.16996 0.4057 0.0
C1315 C 0.29745 0.25631 0.31767 0.0
C1316 C 0.30399 0.23212 0.36625 0.0
H1317 H 0.32584 0.20601 0.40035 0.0
C1318 C 0.2847 0.22884 0.37314 0.0
C1319 C 0.31895 0.22325 0.37581 0.0
C1320 C 0.33978 0.22509 0.36843 0.0
C1321 C 0.28003 0.21752 0.38961 0.0
C1322 C 0.29509 0.20967 0.39992 0.0
C1323 C 0.31432 0.21229 0.39264 0.0
C1324 C 0.2911 0.19915 0.41855 0.0
C1325 C 0.25892 0.21405 0.39574 0.0
C1326 C 0.28252 0.20982 0.436 0.0
C1327 C 0.27794 0.1998 0.45326 0.0
C1328 C 0.28204 0.17891 0.45357 0.0
C1329 C 0.29113 0.16841 0.43628 0.0
C1330 C 0.29564 0.17846 0.41894 0.0
H1331 H 0.24907 0.21535 0.38286 0.0
H1332 H 0.25577 0.19844 0.40084 0.0
H1333 H 0.25553 0.22614 0.40864 0.0
H1334 H 0.27928 0.22594 0.43626 0.0
H1335 H 0.27116 0.20846 0.46636 0.0
H1336 H 0.494 0.50195 0.97295 0.0
H1337 H 0.46769 0.50473 0.94905 0.0
H1338 H 0.50509 0.4848 0.89798 0.0
H1339 H 0.53107 0.48122 0.92199 0.0
H1340 H 0.46603 0.52877 0.9182 0.0
H1341 H 0.45717 0.44489 0.8863 0.0
H1342 H 0.47119 0.45425 0.90905 0.0
H1343 H 0.48157 0.45634 0.88399 0.0
C1344 C 0.49644 0.49799 0.95662 0.0
C1345 C 0.5144 0.49121 0.94924 0.0
C1346 C 0.4815 0.49967 0.94299 0.0
C1347 C 0.48429 0.49459 0.92173 0.0
C1348 C 0.50244 0.48831 0.91432 0.0
H1349 H 0.41625 0.49955 0.81367 0.0
H1350 H 0.44151 0.49685 0.83855 0.0
C1351 C 0.51733 0.48651 0.92798 0.0
C1352 C 0.46829 0.49617 0.90734 0.0
H1353 H 0.44046 0.46821 0.86914 0.0
C1354 C 0.46035 0.5155 0.90757 0.0
C1355 C 0.46084 0.47881 0.89352 0.0
C1356 C 0.46798 0.45735 0.89329 0.0
C1357 C 0.44547 0.51805 0.89403 0.0
C1358 C 0.43825 0.50077 0.88004 0.0
C1359 C 0.44609 0.48143 0.87987 0.0
C1360 C 0.42279 0.50254 0.86516 0.0
C1361 C 0.43787 0.5393 0.89444 0.0
C1362 C 0.40383 0.50642 0.8719 0.0
C1363 C 0.38929 0.5079 0.85771 0.0
C1364 C 0.39349 0.50554 0.83652 0.0
C1365 C 0.41251 0.50154 0.82987 0.0
C1366 C 0.42698 0.49995 0.84405 0.0
H1367 H 0.44752 0.55181 0.90321 0.0
H1368 H 0.43635 0.54312 0.87859 0.0
H1369 H 0.42327 0.53922 0.90183 0.0
H1370 H 0.40025 0.50817 0.88814 0.0
H1371 H 0.37479 0.51094 0.86334 0.0
H1372 H 0.69009 0.77866 0.17871 0.0
H1373 H 0.70358 0.76294 0.14595 0.0
H1374 H 0.75654 0.7542 0.17647 0.0
H1375 H 0.74289 0.76991 0.20934 0.0
H1376 H 0.76082 0.768 0.13473 0.0
H1377 H 0.70917 0.69815 0.13894 0.0
H1378 H 0.69833 0.7227 0.14168 0.0
H1379 H 0.71475 0.71747 0.16091 0.0
C1380 C 0.70471 0.77365 0.17826 0.0
C1381 C 0.71543 0.77518 0.19639 0.0
C1382 C 0.71239 0.7647 0.15964 0.0
C1383 C 0.73092 0.75713 0.15889 0.0
C1384 C 0.74219 0.7599 0.17677 0.0
H1385 H 0.76924 0.66207 0.06404 0.0
H1386 H 0.76247 0.68324 0.09667 0.0
C1387 C 0.73446 0.76889 0.19545 0.0
C1388 C 0.73772 0.74481 0.13985 0.0
H1389 H 0.72736 0.69921 0.10813 0.0
C1390 C 0.75359 0.75293 0.1289 0.0
C1391 C 0.72841 0.72502 0.13251 0.0
C1392 C 0.71182 0.71517 0.14416 0.0
C1393 C 0.76009 0.74195 0.11043 0.0
C1394 C 0.75032 0.72248 0.10272 0.0
C1395 C 0.73475 0.71419 0.11398 0.0
C1396 C 0.75583 0.71038 0.08295 0.0
C1397 C 0.77745 0.75114 0.09943 0.0
C1398 C 0.75431 0.7186 0.06438 0.0
C1399 C 0.75815 0.70652 0.04566 0.0
C1400 C 0.76347 0.68594 0.04517 0.0
C1401 C 0.76518 0.67785 0.06384 0.0
C1402 C 0.76133 0.68993 0.08252 0.0
H1403 H 0.78628 0.7631 0.10982 0.0
H1404 H 0.78691 0.73879 0.09287 0.0
H1405 H 0.77233 0.75881 0.08661 0.0
H1406 H 0.74969 0.73418 0.06431 0.0
H1407 H 0.75664 0.71322 0.03157 0.0
H1408 H 0.01624 0.05272 0.11346 0.0
H1409 H 0.99429 0.04794 0.14271 0.0
H1410 H 0.97382 0.98692 0.11275 0.0
H1411 H 0.9957 0.99187 0.08343 0.0
H1412 H 0.94384 0.01386 0.12913 0.0
H1413 H 1.00103 0.0072 0.18587 0.0
H1414 H 0.00453 0.02943 0.17207 0.0
H1415 H 0.00547 0.00356 0.15849 0.0
C1416 C 0.007 0.03835 0.11323 0.0
C1417 C 0.00754 0.02262 0.0964 0.0
C1418 C 0.99461 0.03557 0.1299 0.0
C1419 C 0.98262 0.017 0.12993 0.0
C1420 C 0.98305 1.00132 0.11302 0.0
H1421 H 0.91684 0.97274 0.23167 0.0
H1422 H 0.93833 0.97647 0.20208 0.0
C1423 C 0.99551 0.00408 0.09639 0.0
C1424 C 0.96939 0.01408 0.14749 0.0
H1425 H 0.96875 0.00929 0.19863 0.0
C1426 C 0.94924 0.01281 0.14433 0.0
C1427 C 0.97655 0.01254 0.1672 0.0
C1428 C 0.99807 0.01307 0.17119 0.0
C1429 C 0.93602 0.01038 0.16052 0.0
C1430 C 0.94319 0.00935 0.18034 0.0
C1431 C 0.96333 0.01026 0.18342 0.0
C1432 C 0.93 0.00715 0.19808 0.0
C1433 C 0.91448 0.00872 0.15628 0.0
C1434 C 0.91836 0.02327 0.2057 0.0
C1435 C 0.90611 0.02125 0.22265 0.0
C1436 C 0.90531 0.00303 0.23226 0.0
C1437 C 0.91706 0.98694 0.22459 0.0
C1438 C 0.92937 0.98904 0.20771 0.0
H1439 H 0.9114 0.00529 0.13959 0.0
H1440 H 0.90679 0.99629 0.16424 0.0
H1441 H 0.90845 0.02376 0.1622 0.0
H1442 H 0.91887 0.0375 0.19863 0.0
H1443 H 0.89728 0.03395 0.2282 0.0
H1444 H 0.3107 0.74057 0.18493 0.0
H1445 H 0.30416 0.76123 0.15729 0.0
H1446 H 0.2596 0.79084 0.19483 0.0
H1447 H 0.26616 0.77012 0.22238 0.0
H1448 H 0.26367 0.76072 0.13965 0.0
H1449 H 0.29604 0.83949 0.17222 0.0
H1450 H 0.30397 0.8157 0.17976 0.0
H1451 H 0.2811 0.82479 0.18892 0.0
C1452 C 0.29977 0.75177 0.18728 0.0
C1453 C 0.28894 0.75393 0.20564 0.0
C1454 C 0.29598 0.76345 0.17156 0.0
C1455 C 0.2815 0.77763 0.17413 0.0
C1456 C 0.27097 0.78014 0.19267 0.0
H1457 H 0.23859 0.86046 0.09344 0.0
H1458 H 0.24524 0.8426 0.12293 0.0
C1459 C 0.27465 0.76832 0.2083 0.0
C1460 C 0.27656 0.78885 0.15695 0.0
H1461 H 0.27939 0.83701 0.14083 0.0
C1462 C 0.26713 0.77739 0.13985 0.0
C1463 C 0.28087 0.81061 0.15745 0.0
C1464 C 0.29115 0.82348 0.17549 0.0
C1465 C 0.26179 0.78714 0.12318 0.0
C1466 C 0.26655 0.80887 0.12338 0.0
C1467 C 0.2758 0.82037 0.14065 0.0
C1468 C 0.26252 0.81978 0.10559 0.0
C1469 C 0.25075 0.77411 0.10573 0.0
C1470 C 0.27026 0.81312 0.08613 0.0
C1471 C 0.26634 0.82312 0.06928 0.0
C1472 C 0.25483 0.84027 0.07156 0.0
C1473 C 0.24743 0.84725 0.09115 0.0
C1474 C 0.25124 0.83709 0.10802 0.0
H1475 H 0.24301 0.7599 0.11076 0.0
H1476 H 0.23995 0.78319 0.09924 0.0
H1477 H 0.26115 0.76892 0.09337 0.0
H1478 H 0.27945 0.8002 0.08397 0.0
H1479 H 0.27249 0.81749 0.05448 0.0
H1480 H 0.97943 0.44031 0.09103 0.0
H1481 H 0.00353 0.44168 0.11843 0.0
H1482 H 0.03461 0.4949 0.0962 0.0
H1483 H 0.01083 0.49308 0.06859 0.0
H1484 H 0.05933 0.46719 0.10944 0.0
H1485 H 1.0019 0.48793 0.16747 0.0
H1486 H 0.99696 0.46356 0.1512 0.0
H1487 H 0.99832 0.48767 0.14031 0.0
C1488 C 0.99171 0.45192 0.0918 0.0
C1489 C 0.99326 0.46677 0.078 0.0
C1490 C 0.00533 0.45285 0.10751 0.0
C1491 C 0.02062 0.4687 0.10964 0.0
C1492 C 0.02285 0.48265 0.09497 0.0
H1493 H 0.08221 0.52888 0.21633 0.0
H1494 H 0.06197 0.51839 0.18605 0.0
C1495 C 0.00928 0.48168 0.07929 0.0
C1496 C 0.0335 0.47186 0.12785 0.0
H1497 H 0.03336 0.48588 0.17986 0.0
C1498 C 0.05367 0.47111 0.12487 0.0
C1499 C 0.02609 0.4773 0.14793 0.0
C1500 C 0.00467 0.47937 0.15201 0.0
C1501 C 0.06664 0.47582 0.14141 0.0
C1502 C 0.0592 0.48116 0.1615 0.0
C1503 C 0.03903 0.48167 0.16447 0.0
C1504 C 0.07207 0.48741 0.17953 0.0
C1505 C 0.08822 0.47578 0.13716 0.0
C1506 C 0.08448 0.47345 0.18601 0.0
C1507 C 0.09616 0.47944 0.20335 0.0
C1508 C 0.09554 0.49946 0.21462 0.0
C1509 C 0.08308 0.51336 0.20805 0.0
C1510 C 0.07147 0.50738 0.19073 0.0
H1511 H 0.09169 0.47601 0.1206 0.0
H1512 H 0.09624 0.48947 0.14614 0.0
H1513 H 0.09356 0.4614 0.1418 0.0
H1514 H 0.08493 0.45783 0.17785 0.0
H1515 H 0.1055 0.4683 0.20805 0.0
H1516 H 0.34013 0.70938 0.23516 0.0
H1517 H 0.36506 0.70462 0.25996 0.0
H1518 H 0.32506 0.72088 0.30976 0.0
H1519 H 0.30018 0.72547 0.28486 0.0
H1520 H 0.38047 0.73578 0.28848 0.0
H1521 H 0.3479 0.67038 0.32767 0.0
H1522 H 0.33886 0.67616 0.30361 0.0
H1523 H 0.33224 0.69117 0.32739 0.0
C1524 C 0.33667 0.71157 0.25141 0.0
C1525 C 0.31837 0.71782 0.25821 0.0
C1526 C 0.35084 0.70885 0.26555 0.0
C1527 C 0.34691 0.71222 0.28675 0.0
C1528 C 0.32833 0.71774 0.29351 0.0
H1529 H 0.41687 0.72831 0.39681 0.0
H1530 H 0.39074 0.72494 0.37159 0.0
C1531 C 0.31414 0.72039 0.27933 0.0
C1532 C 0.36278 0.71192 0.30169 0.0
H1533 H 0.37562 0.69011 0.3436 0.0
C1534 C 0.37948 0.72563 0.3004 0.0
C1535 C 0.36143 0.69879 0.31734 0.0
C1536 C 0.34423 0.68315 0.31902 0.0
C1537 C 0.39468 0.7269 0.31454 0.0
C1538 C 0.39331 0.71386 0.33025 0.0
C1539 C 0.37665 0.70008 0.33153 0.0
C1540 C 0.40894 0.71462 0.34564 0.0
C1541 C 0.41184 0.74264 0.31289 0.0
C1542 C 0.42776 0.70951 0.33948 0.0
C1543 C 0.44274 0.71145 0.35384 0.0
C1544 C 0.43918 0.71847 0.37468 0.0
C1545 C 0.42016 0.72295 0.38089 0.0
C1546 C 0.40518 0.72099 0.3665 0.0
H1547 H 0.40853 0.75477 0.30326 0.0
H1548 H 0.4164 0.7505 0.3283 0.0
H1549 H 0.42429 0.73448 0.30569 0.0
H1550 H 0.43091 0.70421 0.32351 0.0
H1551 H 0.45718 0.70774 0.34853 0.0
H1552 H 0.00533 0.44509 0.03512 0.0
H1553 H 0.01523 0.41106 0.0187 0.0
H1554 H 0.96011 0.38152 0.03595 0.0
H1555 H 0.95047 0.41546 0.05253 0.0
H1556 H 0.99288 0.35726 0.03914 0.0
H1557 H 0.98867 0.38642 0.96353 0.0
H1558 H 0.00463 0.40182 0.98201 0.0
H1559 H 0.97887 0.39987 0.98682 0.0
C1560 C 0.99566 0.43116 0.03584 0.0
C1561 C 0.97714 0.43271 0.04485 0.0
C1562 C 1.0012 0.41183 0.02635 0.0
C1563 C 0.98824 0.39385 0.02579 0.0
C1564 C 0.97029 0.39521 0.03611 0.0
H1565 H 0.97513 0.2824 0.93837 0.0
H1566 H 0.97195 0.31515 0.961 0.0
C1567 C 0.96477 0.41451 0.04553 0.0
C1568 C 0.9925 0.37404 0.01302 0.0
H1569 H 0.99705 0.35187 0.96315 0.0
C1570 C 0.99397 0.35608 0.02254 0.0
C1571 C 0.99356 0.37251 0.99134 0.0
C1572 C 0.99121 0.3911 0.98022 0.0
C1573 C 0.99645 0.33658 0.01093 0.0
C1574 C 0.99763 0.33509 0.98926 0.0
C1575 C 0.99625 0.35309 0.97977 0.0
C1576 C 0.99955 0.3149 0.97603 0.0
C1577 C 0.99716 0.3176 0.02188 0.0
C1578 C 0.01619 0.30394 0.97688 0.0
C1579 C 0.01807 0.28519 0.96394 0.0
C1580 C 0.00336 0.27708 0.94985 0.0
C1581 C 0.98672 0.28814 0.94906 0.0
C1582 C 0.98487 0.30689 0.96196 0.0
H1583 H 0.99185 0.32051 0.03801 0.0
H1584 H 0.98829 0.30404 0.01374 0.0
H1585 H 0.01242 0.31338 0.02215 0.0
H1586 H 0.02784 0.31002 0.98736 0.0
H1587 H 0.03112 0.27713 0.9649 0.0
H1588 H 0.68587 0.77122 0.2811 0.0
H1589 H 0.65744 0.76345 0.30281 0.0
H1590 H 0.61941 0.77151 0.25355 0.0
H1591 H 0.64785 0.77907 0.23191 0.0
H1592 H 0.62782 0.78834 0.31567 0.0
H1593 H 0.59822 0.71524 0.2691 0.0
H1594 H 0.62251 0.72682 0.26531 0.0
H1595 H 0.60195 0.73695 0.25471 0.0
C1596 C 0.67139 0.77122 0.27502 0.0
C1597 C 0.66889 0.77555 0.25491 0.0
C1598 C 0.65521 0.76679 0.28733 0.0
C1599 C 0.63631 0.76656 0.27967 0.0
C1600 C 0.63385 0.77108 0.2596 0.0
H1601 H 0.51962 0.75228 0.32967 0.0
H1602 H 0.54864 0.75907 0.30877 0.0
C1603 C 0.65002 0.77544 0.24729 0.0
C1604 C 0.61917 0.7623 0.29289 0.0
H1605 H 0.57767 0.73016 0.29571 0.0
C1606 C 0.61692 0.77553 0.31139 0.0
C1607 C 0.60498 0.74557 0.28726 0.0
C1608 C 0.60708 0.7302 0.26812 0.0
C1609 C 0.60064 0.77277 0.32419 0.0
C1610 C 0.58635 0.75621 0.31842 0.0
C1611 C 0.58863 0.7429 0.30001 0.0
C1612 C 0.5689 0.75242 0.33131 0.0
C1613 C 0.5986 0.78785 0.34356 0.0
C1614 C 0.57072 0.7463 0.35083 0.0
C1615 C 0.55418 0.74236 0.36279 0.0
C1616 C 0.53551 0.74445 0.35542 0.0
C1617 C 0.53377 0.7506 0.33583 0.0
C1618 C 0.55032 0.75444 0.32385 0.0
H1619 H 0.60851 0.80225 0.3435 0.0
H1620 H 0.5834 0.79232 0.34559 0.0
H1621 H 0.60224 0.7802 0.35698 0.0
H1622 H 0.58493 0.74435 0.35672 0.0
H1623 H 0.55604 0.7376 0.37778 0.0
H1624 H 0.02976 0.02807 0.01273 0.0
H1625 H 0.02704 0.05251 0.98749 0.0
H1626 H 0.04601 0.10394 0.03323 0.0
H1627 H 0.04842 0.07945 0.05836 0.0
H1628 H 0.00992 0.10759 0.01746 0.0
H1629 H 0.06293 0.08955 0.95418 0.0
H1630 H 0.04828 0.06723 0.96102 0.0
H1631 H 0.06523 0.08141 0.97923 0.0
C1632 C 0.03413 0.0445 0.01699 0.0
C1633 C 0.03935 0.05203 0.0373 0.0
C1634 C 0.03254 0.05846 0.00264 0.0
C1635 C 0.03635 0.08008 0.00846 0.0
C1636 C 0.04303 0.08735 0.02839 0.0
H1637 H 0.02706 0.183 0.93741 0.0
H1638 H 0.03843 0.15727 0.9576 0.0
C1639 C 0.04453 0.07342 0.04268 0.0
C1640 C 0.03064 0.09524 0.99502 0.0
H1641 H 0.0383 0.11177 0.94802 0.0
C1642 C 0.01623 0.10857 0.00232 0.0
C1643 C 0.03887 0.09652 0.9753 0.0
C1644 C 0.05481 0.08305 0.96698 0.0
C1645 C 0.00968 0.12298 0.99039 0.0
C1646 C 0.01754 0.12393 0.97048 0.0
C1647 C 0.03217 0.11085 0.96323 0.0
C1648 C 0.01089 0.13872 0.95719 0.0
C1649 C 0.99452 0.13727 0.99928 0.0
C1650 C 0.99169 0.13664 0.95004 0.0
C1651 C 0.98511 0.15131 0.9385 0.0
C1652 C 0.99763 0.16836 0.9339 0.0
C1653 C 0.01699 0.17013 0.94076 0.0
C1654 C 0.02356 0.1554 0.95223 0.0
H1655 H 0.99311 0.13775 0.01621 0.0
H1656 H 0.99812 0.15342 0.99567 0.0
H1657 H 0.98019 0.13155 0.9924 0.0
H1658 H 0.98173 0.12374 0.95354 0.0
H1659 H 0.97016 0.1494 0.93338 0.0
H1660 H 0.35292 0.32301 0.2999 0.0
H1661 H 0.38079 0.31459 0.27745 0.0
H1662 H 0.35086 0.25511 0.2548 0.0
H1663 H 0.32271 0.26397 0.27689 0.0
H1664 H 0.40596 0.28326 0.26988 0.0
H1665 H 0.35767 0.28372 0.20324 0.0
H1666 H 0.35034 0.29244 0.22925 0.0
H1667 H 0.34978 0.26497 0.22008 0.0
C1668 C 0.35259 0.30793 0.29049 0.0
C1669 C 0.33573 0.29419 0.28989 0.0
C1670 C 0.36845 0.30313 0.27765 0.0
C1671 C 0.36771 0.28446 0.26401 0.0
C1672 C 0.35156 0.26983 0.26483 0.0
H1673 H 0.44283 0.24365 0.16066 0.0
H1674 H 0.41795 0.24597 0.18773 0.0
C1675 C 0.33563 0.27471 0.27764 0.0
C1676 C 0.38298 0.28134 0.24783 0.0
H1677 H 0.39016 0.27634 0.1958 0.0
C1678 C 0.4025 0.28166 0.25369 0.0
C1679 C 0.37849 0.27951 0.22667 0.0
C1680 C 0.35798 0.28032 0.21936 0.0
C1681 C 0.4176 0.28 0.23897 0.0
C1682 C 0.41307 0.27821 0.21786 0.0
C1683 C 0.39357 0.27767 0.212 0.0
C1684 C 0.42834 0.27697 0.20156 0.0
C1685 C 0.43825 0.27998 0.2461 0.0
C1686 C 0.44224 0.29382 0.20009 0.0
C1687 C 0.45645 0.29262 0.18451 0.0
C1688 C 0.45701 0.27452 0.17011 0.0
C1689 C 0.44287 0.25781 0.1715 0.0
C1690 C 0.42864 0.25908 0.18699 0.0
H1691 H 0.43885 0.27658 0.2622 0.0
H1692 H 0.44621 0.26825 0.23605 0.0
H1693 H 0.44592 0.2956 0.2453 0.0
H1694 H 0.44205 0.30795 0.21094 0.0
H1695 H 0.4671 0.30578 0.1839 0.0
H1696 H 0.5327 0.48839 0.02798 0.0
H1697 H 0.53211 0.46533 0.05481 0.0
H1698 H 0.56473 0.42202 0.01491 0.0
H1699 H 0.56579 0.44562 0.98849 0.0
H1700 H 0.51356 0.42771 0.04952 0.0
H1701 H 0.58996 0.41883 0.06883 0.0
H1702 H 0.58326 0.43949 0.05508 0.0
H1703 H 0.58559 0.41366 0.04174 0.0
C1704 C 0.54044 0.47436 0.02545 0.0
C1705 C 0.54954 0.46879 0.00648 0.0
C1706 C 0.53998 0.46112 0.04062 0.0
C1707 C 0.54847 0.44194 0.037 0.0
C1708 C 0.55849 0.43691 0.01835 0.0
H1709 H 0.53158 0.32538 0.08818 0.0
H1710 H 0.54053 0.3536 0.06759 0.0
C1711 C 0.55912 0.45034 0.00326 0.0
C1712 C 0.54457 0.42617 0.05144 0.0
H1713 H 0.56599 0.39298 0.07886 0.0
C1714 C 0.52507 0.42035 0.05615 0.0
C1715 C 0.55954 0.41638 0.05997 0.0
C1716 C 0.58076 0.42255 0.05631 0.0
C1717 C 0.52013 0.40481 0.06875 0.0
C1718 C 0.53507 0.39485 0.07703 0.0
C1719 C 0.55457 0.40066 0.07247 0.0
C1720 C 0.53056 0.37803 0.09008 0.0
C1721 C 0.49893 0.39872 0.07269 0.0
C1722 C 0.52218 0.38247 0.10966 0.0
C1723 C 0.51707 0.36638 0.12151 0.0
C1724 C 0.52019 0.34553 0.11396 0.0
C1725 C 0.52887 0.34122 0.09443 0.0
C1726 C 0.53408 0.35734 0.08266 0.0
H1727 H 0.48922 0.40514 0.06221 0.0
H1728 H 0.49611 0.38145 0.07083 0.0
H1729 H 0.49509 0.40483 0.08872 0.0
H1730 H 0.51948 0.39838 0.11571 0.0
H1731 H 0.51049 0.37028 0.13649 0.0
H1732 H 0.68824 0.22397 0.24779 0.0
H1733 H 0.66334 0.23427 0.22556 0.0
H1734 H 0.61978 0.22553 0.27237 0.0
H1735 H 0.64468 0.21538 0.29448 0.0
H1736 H 0.62779 0.21342 0.21033 0.0
H1737 H 0.61576 0.28619 0.26218 0.0
H1738 H 0.6365 0.27136 0.26441 0.0
H1739 H 0.61324 0.26315 0.27477 0.0
C1740 C 0.67327 0.22405 0.25309 0.0
C1741 C 0.66824 0.21909 0.27276 0.0
C1742 C 0.65913 0.22997 0.2405 0.0
C1743 C 0.63982 0.23107 0.24752 0.0
C1744 C 0.63469 0.22525 0.26687 0.0
H1745 H 0.52987 0.26038 0.20556 0.0
H1746 H 0.55759 0.25065 0.22374 0.0
C1747 C 0.64881 0.21939 0.27941 0.0
C1748 C 0.62502 0.2386 0.23487 0.0
H1749 H 0.59258 0.27582 0.2356 0.0
C1750 C 0.62021 0.22717 0.21572 0.0
C1751 C 0.61526 0.25663 0.24192 0.0
C1752 C 0.62056 0.27018 0.26185 0.0
C1753 C 0.60529 0.23283 0.2038 0.0
C1754 C 0.59517 0.25051 0.21116 0.0
C1755 C 0.60032 0.26221 0.23006 0.0
C1756 C 0.57861 0.25664 0.19993 0.0
C1757 C 0.6 0.21946 0.18378 0.0
C1758 C 0.58132 0.26354 0.18064 0.0
C1759 C 0.56549 0.26918 0.17019 0.0
C1760 C 0.54669 0.26803 0.1789 0.0
C1761 C 0.54412 0.2614 0.19837 0.0
C1762 C 0.55995 0.25583 0.20881 0.0
H1763 H 0.60657 0.20421 0.18225 0.0
H1764 H 0.58395 0.21648 0.18242 0.0
H1765 H 0.60534 0.22781 0.17082 0.0
H1766 H 0.59569 0.2646 0.1737 0.0
H1767 H 0.56796 0.27427 0.15523 0.0
H1768 H 0.49326 0.06453 0.00678 0.0
H1769 H 0.50408 0.09905 0.02504 0.0
H1770 H 0.47285 0.12846 0.98196 0.0
H1771 H 0.46201 0.09377 0.96386 0.0
H1772 H 0.52342 0.13767 0.01338 0.0
H1773 H 0.44642 0.14442 0.03881 0.0
H1774 H 0.45519 0.12002 0.02729 0.0
H1775 H 0.45063 0.13972 0.01156 0.0
C1776 C 0.48936 0.07847 1.00091 0.0
C1777 C 0.477 0.07679 0.98399 0.0
C1778 C 0.49541 0.0981 0.01132 0.0
C1779 C 0.48902 0.11626 0.00501 0.0
C1780 C 0.47777 0.11461 0.98718 0.0
H1781 H 0.49045 0.24053 0.07677 0.0
H1782 H 0.48592 0.21136 0.04901 0.0
C1783 C 0.47175 0.09493 0.97676 0.0
C1784 C 0.49244 0.1365 0.01835 0.0
H1785 H 0.4692 0.1718 0.05147 0.0
C1786 C 0.51158 0.14527 0.02159 0.0
C1787 C 0.47693 0.1463 0.02906 0.0
C1788 C 0.45613 0.13713 0.0267 0.0
C1789 C 0.51565 0.16355 0.0354 0.0
C1790 C 0.50019 0.17301 0.04656 0.0
C1791 C 0.48101 0.16453 0.04289 0.0
C1792 C 0.50362 0.19102 0.06292 0.0
C1793 C 0.53647 0.17258 0.03789 0.0
C1794 C 0.51481 0.18916 0.08009 0.0
C1795 C 0.51742 0.20576 0.09596 0.0
C1796 C 0.50873 0.22453 0.09507 0.0
C1797 C 0.49737 0.22631 0.07793 0.0
C1798 C 0.49479 0.20967 0.06203 0.0
H1799 H 0.54543 0.16763 0.02413 0.0
H1800 H 0.53736 0.18992 0.04065 0.0
H1801 H 0.54287 0.16686 0.05127 0.0
H1802 H 0.52132 0.17473 0.08138 0.0
H1803 H 0.52616 0.20379 0.10897 0.0
H1804 H 0.20731 0.33315 0.72343 0.0
H1805 H 0.23376 0.36104 0.72765 0.0
H1806 H 0.27384 0.31604 0.73881 0.0
H1807 H 0.24725 0.28812 0.73427 0.0
H1808 H 0.25308 0.37106 0.76447 0.0
H1809 H 0.30551 0.35164 0.70084 0.0
H1810 H 0.28061 0.3405 0.70034 0.0
H1811 H 0.29833 0.33067 0.71546 0.0
C1812 C 0.22191 0.32927 0.72625 0.0
C1813 C 0.22542 0.30869 0.72856 0.0
C1814 C 0.23697 0.34511 0.7287 0.0
C1815 C 0.2558 0.34062 0.73347 0.0
C1816 C 0.25952 0.31981 0.73477 0.0
H1817 H 0.35762 0.42322 0.7759 0.0
H1818 H 0.3348 0.3927 0.76582 0.0
C1819 C 0.24441 0.30391 0.73221 0.0
C1820 C 0.27078 0.35804 0.73936 0.0
H1821 H 0.31575 0.37922 0.72689 0.0
C1822 C 0.26675 0.37288 0.75619 0.0
C1823 C 0.28869 0.36024 0.72869 0.0
C1824 C 0.29355 0.34503 0.71022 0.0
C1825 C 0.28008 0.38988 0.76263 0.0
C1826 C 0.29784 0.39231 0.75176 0.0
C1827 C 0.30208 0.37731 0.73514 0.0
C1828 C 0.3119 0.41067 0.75721 0.0
C1829 C 0.27515 0.40499 0.78118 0.0
C1830 C 0.30664 0.43083 0.75545 0.0
C1831 C 0.31958 0.44827 0.76122 0.0
C1832 C 0.3381 0.44589 0.7688 0.0
C1833 C 0.34344 0.42562 0.77023 0.0
C1834 C 0.33047 0.40815 0.76441 0.0
H1835 H 0.26354 0.3981 0.79078 0.0
H1836 H 0.28818 0.40992 0.79084 0.0
H1837 H 0.26984 0.41914 0.776 0.0
H1838 H 0.29248 0.43307 0.74963 0.0
H1839 H 0.31503 0.46362 0.75977 0.0
H1840 H 0.20769 0.66251 0.80595 0.0
H1841 H 0.23277 0.63862 0.8102 0.0
H1842 H 0.2774 0.68835 0.80476 0.0
H1843 H 0.25222 0.71208 0.80016 0.0
H1844 H 0.28231 0.65178 0.77795 0.0
H1845 H 0.26957 0.63413 0.85768 0.0
H1846 H 0.24801 0.63091 0.8423 0.0
H1847 H 0.26037 0.65646 0.84837 0.0
C1848 C 0.22287 0.6683 0.80597 0.0
C1849 C 0.22815 0.689 0.80272 0.0
C1850 C 0.23716 0.65477 0.80855 0.0
C1851 C 0.25695 0.66177 0.80801 0.0
C1852 C 0.2622 0.68267 0.80537 0.0
H1853 H 0.35411 0.58635 0.8248 0.0
H1854 H 0.33189 0.61436 0.82806 0.0
C1855 C 0.24789 0.69622 0.80286 0.0
C1856 C 0.2721 0.6468 0.80824 0.0
H1857 H 0.28938 0.61141 0.83614 0.0
C1858 C 0.284 0.64312 0.79076 0.0
C1859 C 0.27436 0.63561 0.82501 0.0
C1860 C 0.26253 0.63957 0.8445 0.0
C1861 C 0.29765 0.62804 0.78933 0.0
C1862 C 0.29932 0.61623 0.80573 0.0
C1863 C 0.28792 0.62039 0.82351 0.0
C1864 C 0.31242 0.59905 0.80431 0.0
C1865 C 0.31011 0.62476 0.77021 0.0
C1866 C 0.30862 0.58106 0.79011 0.0
C1867 C 0.32119 0.56504 0.78825 0.0
C1868 C 0.33786 0.5667 0.80056 0.0
C1869 C 0.34146 0.58462 0.81502 0.0
C1870 C 0.32878 0.60062 0.81695 0.0
H1871 H 0.3103 0.63817 0.76125 0.0
H1872 H 0.3253 0.62244 0.77417 0.0
H1873 H 0.30421 0.61052 0.76027 0.0
H1874 H 0.29593 0.57946 0.78039 0.0
H1875 H 0.31792 0.55144 0.77701 0.0
H1876 H 0.9471 0.49307 0.48655 0.0
H1877 H 0.91847 0.47066 0.49547 0.0
H1878 H 0.88119 0.51823 0.48415 0.0
H1879 H 0.90988 0.54044 0.47507 0.0
H1880 H 0.89063 0.48134 0.5273 0.0
H1881 H 0.85661 0.4642 0.45026 0.0
H1882 H 0.88178 0.4739 0.45382 0.0
H1883 H 0.86283 0.49139 0.459 0.0
C1884 C 0.93271 0.49846 0.48573 0.0
C1885 C 0.93045 0.51817 0.47989 0.0
C1886 C 0.91645 0.4858 0.49088 0.0
C1887 C 0.89772 0.4927 0.49019 0.0
C1888 C 0.89548 0.51247 0.4844 0.0
H1889 H 0.78197 0.43833 0.51619 0.0
H1890 H 0.81002 0.46131 0.50758 0.0
C1891 C 0.91177 0.52513 0.47931 0.0
C1892 C 0.88059 0.47951 0.49625 0.0
H1893 H 0.83835 0.45284 0.47816 0.0
C1894 C 0.87921 0.47503 0.51657 0.0
C1895 C 0.86571 0.47144 0.48221 0.0
C1896 C 0.86679 0.47529 0.46004 0.0
C1897 C 0.86318 0.46289 0.52333 0.0
C1898 C 0.84837 0.45464 0.50924 0.0
C1899 C 0.84972 0.4592 0.48893 0.0
C1900 C 0.83145 0.44099 0.51515 0.0
C1901 C 0.86206 0.45937 0.54559 0.0
C1902 C 0.83421 0.4219 0.52216 0.0
C1903 C 0.81823 0.40878 0.52719 0.0
C1904 C 0.79917 0.41441 0.5251 0.0
C1905 C 0.79646 0.43354 0.51803 0.0
C1906 C 0.81246 0.44668 0.51307 0.0
H1907 H 0.87138 0.47138 0.5554 0.0
H1908 H 0.84688 0.4596 0.55151 0.0
H1909 H 0.86725 0.44386 0.54705 0.0
H1910 H 0.84872 0.41698 0.52344 0.0
H1911 H 0.82083 0.39409 0.53243 0.0
H1912 H 0.75265 0.81336 0.79347 0.0
H1913 H 0.73031 0.84024 0.78933 0.0
H1914 H 0.77538 0.88837 0.80956 0.0
H1915 H 0.79766 0.86145 0.81345 0.0
H1916 H 0.71687 0.87179 0.81729 0.0
H1917 H 0.75941 0.90517 0.75523 0.0
H1918 H 0.76403 0.88046 0.7633 0.0
H1919 H 0.77336 0.90459 0.77789 0.0
C1920 C 0.75763 0.82971 0.79708 0.0
C1921 C 0.77679 0.83549 0.80363 0.0
C1922 C 0.74496 0.84501 0.7947 0.0
C1923 C 0.7513 0.86631 0.79876 0.0
C1924 C 0.77032 0.87205 0.80584 0.0
H1925 H 0.7015 0.98409 0.79807 0.0
H1926 H 0.72141 0.95549 0.80243 0.0
C1927 C 0.78299 0.85675 0.80814 0.0
C1928 C 0.73803 0.88256 0.79573 0.0
H1929 H 0.7337 0.92463 0.77027 0.0
C1930 C 0.72046 0.88326 0.8069 0.0
C1931 C 0.74271 0.89744 0.78208 0.0
C1932 C 0.76081 0.89681 0.76878 0.0
C1933 C 0.70773 0.89883 0.80525 0.0
C1934 C 0.71263 0.91393 0.79192 0.0
C1935 C 0.73005 0.91307 0.78056 0.0
C1936 C 0.70009 0.93104 0.7898 0.0
C1937 C 0.68941 0.89937 0.81817 0.0
C1938 C 0.68151 0.92677 0.78115 0.0
C1939 C 0.67007 0.94311 0.77857 0.0
C1940 C 0.67704 0.96403 0.78458 0.0
C1941 C 0.69564 0.96819 0.79332 0.0
C1942 C 0.70707 0.95187 0.79581 0.0
H1943 H 0.68971 0.88936 0.83062 0.0
H1944 H 0.6872 0.91561 0.82514 0.0
H1945 H 0.67673 0.89362 0.80827 0.0
H1946 H 0.67598 0.9108 0.77612 0.0
H1947 H 0.65584 0.93937 0.77173 0.0
H1948 H 0.58993 0.48511 0.95526 0.0
H1949 H 0.62273 0.50193 0.96213 0.0
H1950 H 0.60375 0.52854 0.02221 0.0
H1951 H 0.57079 0.51191 0.01506 0.0
H1952 H 0.62152 0.55794 0.99937 0.0
H1953 H 0.66718 0.49124 0.99855 0.0
H1954 H 0.65192 0.48933 0.97644 0.0
H1955 H 0.64103 0.4885 1.00145 0.0
C1956 C 0.59298 0.49417 0.97008 0.0
C1957 C 0.578 0.49725 0.98468 0.0
C1958 C 0.61169 0.5037 0.97405 0.0
C1959 C 0.61577 0.51639 0.99275 0.0
C1960 C 0.60096 0.51874 0.00771 0.0
H1961 H 0.7296 0.57552 0.03087 0.0
H1962 H 0.6985 0.55446 0.02781 0.0
C1963 C 0.58223 0.50914 0.00373 0.0
C1964 C 0.63487 0.52873 0.99583 0.0
H1965 H 0.68396 0.52455 0.99578 0.0
C1966 C 0.63517 0.55063 0.99875 0.0
C1967 C 0.65267 0.5192 0.99511 0.0
C1968 C 0.65325 0.49577 0.99292 0.0
C1969 C 0.65277 0.56327 1.00053 0.0
C1970 C 0.67059 0.55375 0.99906 0.0
C1971 C 0.6703 0.53184 0.99664 0.0
C1972 C 0.68967 0.56629 1.00044 0.0
C1973 C 0.65212 0.5867 0.0042 0.0
C1974 C 0.69521 0.57974 0.98587 0.0
C1975 C 0.71303 0.59186 0.98756 0.0
C1976 C 0.72568 0.59069 0.00384 0.0
C1977 C 0.7202 0.5769 0.01818 0.0
C1978 C 0.70243 0.56479 0.01645 0.0
H1979 H 0.63764 0.59132 0.00999 0.0
H1980 H 0.66335 0.59394 0.01541 0.0
H1981 H 0.6551 0.59314 0.98951 0.0
H1982 H 0.68574 0.58087 0.97317 0.0
H1983 H 0.71683 0.60222 0.97619 0.0
H1984 H 0.29516 0.67677 0.23677 0.0
H1985 H 0.27394 0.64648 0.245 0.0
H1986 H 0.23399 0.6882 0.27623 0.0
H1987 H 0.25509 0.71831 0.26769 0.0
H1988 H 0.2558 0.63266 0.2816 0.0
H1989 H 0.20267 0.65524 0.22771 0.0
H1990 H 0.22757 0.66629 0.22921 0.0
H1991 H 0.20998 0.67552 0.24811 0.0
C1992 C 0.28215 0.67932 0.24597 0.0
C1993 C 0.27657 0.69966 0.25158 0.0
C1994 C 0.27002 0.66211 0.25056 0.0
C1995 C 0.25221 0.66513 0.26083 0.0
C1996 C 0.24751 0.68554 0.26798 0.0
H1997 H 0.1483 0.58701 0.28321 0.0
H1998 H 0.17373 0.61538 0.28176 0.0
C1999 C 0.25956 0.70268 0.26328 0.0
C2000 C 0.23767 0.64719 0.26228 0.0
H2001 H 0.19226 0.62743 0.24632 0.0
C2002 C 0.24192 0.63144 0.27387 0.0
C2003 C 0.21965 0.64558 0.25199 0.0
C2004 C 0.2147 0.66143 0.23839 0.0
C2005 C 0.22835 0.61439 0.27591 0.0
C2006 C 0.21023 0.61297 0.26585 0.0
C2007 C 0.20611 0.62863 0.25411 0.0
C2008 C 0.19519 0.59548 0.26732 0.0
C2009 C 0.2333 0.59829 0.28918 0.0
C2010 C 0.19874 0.57489 0.25945 0.0
C2011 C 0.18419 0.55861 0.26018 0.0
C2012 C 0.16579 0.56265 0.26874 0.0
C2013 C 0.16229 0.58333 0.27652 0.0
C2014 C 0.17682 0.59957 0.27574 0.0
H2015 H 0.24562 0.60414 0.2996 0.0
H2016 H 0.22053 0.5936 0.29857 0.0
H2017 H 0.23758 0.58415 0.2792 0.0
H2018 H 0.21268 0.57145 0.25249 0.0
H2019 H 0.18738 0.54288 0.25403 0.0
H2020 H 0.92132 0.49239 0.07144 0.0
H2021 H 0.89695 0.51489 0.06148 0.0
H2022 H 0.92891 0.52142 0.00525 0.0
H2023 H 0.95311 0.49882 0.0153 0.0
H2024 H 0.90235 0.55647 0.05223 0.0
H2025 H 0.87343 0.50178 0.98542 0.0
H2026 H 0.88822 0.49363 0.00481 0.0
H2027 H 0.89935 0.50753 0.98513 0.0
C2028 C 0.923 0.49873 0.05701 0.0
C2029 C 0.93886 0.494 0.04403 0.0
C2030 C 0.90918 0.51151 0.05132 0.0
C2031 C 0.91098 0.51957 0.03249 0.0
C2032 C 0.92704 0.51505 0.01966 0.0
H2033 H 0.84181 0.59803 0.97008 0.0
H2034 H 0.86656 0.57642 0.98017 0.0
C2035 C 0.94087 0.5023 0.02539 0.0
C2036 C 0.89616 0.53289 0.02638 0.0
H2037 H 0.86222 0.53575 0.98988 0.0
C2038 C 0.89351 0.55193 0.03865 0.0
C2039 C 0.88469 0.52692 0.00862 0.0
C2040 C 0.88638 0.50628 0.99529 0.0
C2041 C 0.87992 0.56535 0.03345 0.0
C2042 C 0.8684 0.55936 0.01572 0.0
C2043 C 0.87108 0.54032 0.00344 0.0
C2044 C 0.85339 0.57253 0.00973 0.0
C2045 C 0.87832 0.58602 0.04676 0.0
C2046 C 0.83761 0.57728 0.02286 0.0
C2047 C 0.82346 0.58965 0.01717 0.0
C2048 C 0.82472 0.59741 0.99812 0.0
C2049 C 0.84041 0.59237 0.98487 0.0
C2050 C 0.85457 0.58001 0.9906 0.0
H2051 H 0.89151 0.5907 0.05623 0.0
H2052 H 0.87604 0.59859 0.03729 0.0
H2053 H 0.86567 0.58466 0.05734 0.0
H2054 H 0.83616 0.57128 0.03749 0.0
H2055 H 0.81151 0.59309 0.02769 0.0
H2056 H 0.07858 0.04221 0.05323 0.0
H2057 H 0.10911 0.02664 0.04242 0.0
H2058 H 0.0768 0.96742 0.02393 0.0
H2059 H 0.04643 0.98321 0.03428 0.0
H2060 H 0.12196 0.99541 0.06095 0.0
H2061 H 0.11604 0.96925 0.97751 0.0
H2062 H 0.10066 0.98801 0.99089 0.0
H2063 H 0.09502 0.96046 0.99147 0.0
C2064 C 0.07806 0.02613 0.04606 0.0
C2065 C 0.06032 0.01384 0.04449 0.0
C2066 C 0.09545 0.01718 0.04007 0.0
C2067 C 0.09527 0.99586 0.03226 0.0
C2068 C 0.07734 0.98396 0.02952 0.0
H2069 H 0.18182 0.90985 0.04695 0.0
H2070 H 0.1537 0.93083 0.04919 0.0
C2071 C 0.06001 0.99292 0.03549 0.0
C2072 C 0.11373 0.98541 0.02949 0.0
H2073 H 0.13914 0.95277 0.99568 0.0
C2074 C 0.12584 0.98631 0.04659 0.0
C2075 C 0.11888 0.97362 0.01075 0.0
C2076 C 0.10706 0.97293 0.99156 0.0
C2077 C 0.14258 0.97523 0.04565 0.0
C2078 C 0.14716 0.96256 0.02722 0.0
C2079 C 0.13546 0.96223 0.0099 0.0
C2080 C 0.16405 0.94956 0.02565 0.0
C2081 C 0.15523 0.97725 0.06441 0.0
C2082 C 0.17897 0.95271 0.0113 0.0
C2083 C 0.195 0.94065 0.00989 0.0
C2084 C 0.1964 0.92511 0.02275 0.0
C2085 C 0.18128 0.92178 0.03692 0.0
C2086 C 0.16524 0.93384 0.03829 0.0
H2087 H 0.15287 0.9917 0.07502 0.0
H2088 H 0.15154 0.96369 0.07286 0.0
H2089 H 0.17088 0.97742 0.06007 0.0
H2090 H 0.17831 0.96467 1.00132 0.0
H2091 H 0.20633 0.94361 0.99875 0.0
loop_
_geom_bond_atom_site_label_1
_geom_bond_atom_site_label_2
_geom_bond_distance
_geom_bond_site_symmetry_2
_ccdc_geom_bond_type
C0 N1 1.317 . S
C0 N2 1.348 . S
C0 C3 1.485 1_545 S
N1 C0 1.317 . S
N1 N5 1.370 . S
N2 C0 1.348 . S
N2 C4 1.346 . S
C3 C0 1.485 1_565 S
C3 H7 0.960 . S
C3 H8 0.961 . S
C3 H9 0.960 . S
C4 N2 1.346 . S
C4 N5 1.307 . S
C4 C6 1.486 1_455 S
N5 N1 1.370 . S
N5 C4 1.307 . S
C6 C4 1.486 1_655 S
C6 H10 0.960 . S
C6 H11 0.960 . S
C6 H12 0.959 . S
H7 C3 0.960 . S
H8 C3 0.961 . S
H9 C3 0.960 . S
H10 C6 0.960 . S
H11 C6 0.960 . S
H12 C6 0.959 . S
C13 N14 1.317 . S
C13 N15 1.348 . S
C13 C16 1.485 . S
N14 C13 1.317 . S
N14 N18 1.370 . S
N15 C13 1.348 . S
N15 C17 1.346 . S
C16 C13 1.485 . S
C16 H20 0.960 . S
C16 H21 0.961 . S
C16 H22 0.960 . S
C17 N15 1.346 . S
C17 N18 1.307 . S
C17 C19 1.486 . S
N18 N14 1.370 . S
N18 C17 1.307 . S
C19 C17 1.486 . S
C19 H23 0.960 . S
C19 H24 0.960 . S
C19 H25 0.959 . S
H20 C16 0.960 . S
H21 C16 0.961 . S
H22 C16 0.960 . S
H23 C19 0.960 . S
H24 C19 0.960 . S
H25 C19 0.959 . S
C26 N27 1.317 . S
C26 N28 1.348 . S
C26 C29 1.485 . S
N27 C26 1.317 . S
N27 N31 1.370 . S
N28 C26 1.348 . S
N28 C30 1.346 . S
C29 C26 1.485 . S
C29 H33 0.960 . S
C29 H34 0.961 . S
C29 H35 0.960 . S
C30 N28 1.346 . S
C30 N31 1.307 . S
C30 C32 1.486 . S
N31 N27 1.370 . S
N31 C30 1.307 . S
C32 C30 1.486 . S
C32 H36 0.960 . S
C32 H37 0.960 . S
C32 H38 0.959 . S
H33 C29 0.960 . S
H34 C29 0.961 . S
H35 C29 0.960 . S
H36 C32 0.960 . S
H37 C32 0.960 . S
H38 C32 0.959 . S
C39 N40 1.317 . S
C39 N41 1.348 . S
C39 C42 1.485 . S
N40 C39 1.317 . S
N40 N44 1.370 . S
N41 C39 1.348 . S
N41 C43 1.346 . S
C42 C39 1.485 . S
C42 H46 0.960 . S
C42 H47 0.961 . S
C42 H48 0.960 . S
C43 N41 1.346 . S
C43 N44 1.307 . S
C43 C45 1.486 . S
N44 N40 1.370 . S
N44 C43 1.307 . S
C45 C43 1.486 . S
C45 H49 0.960 . S
C45 H50 0.960 . S
C45 H51 0.959 . S
H46 C42 0.960 . S
H47 C42 0.961 . S
H48 C42 0.960 . S
H49 C45 0.960 . S
H50 C45 0.960 . S
H51 C45 0.959 . S
C52 N53 1.317 . S
C52 N54 1.348 . S
C52 C55 1.485 . S
N53 C52 1.317 . S
N53 N57 1.370 . S
N54 C52 1.348 . S
N54 C56 1.346 . S
C55 C52 1.485 . S
C55 H59 0.960 . S
C55 H60 0.961 1_455 S
C55 H61 0.960 . S
C56 N54 1.346 . S
C56 N57 1.307 . S
C56 C58 1.486 1_565 S
N57 N53 1.370 . S
N57 C56 1.307 . S
C58 C56 1.486 1_545 S
C58 H62 0.960 . S
C58 H63 0.960 . S
C58 H64 0.959 . S
H59 C55 0.960 . S
H60 C55 0.961 1_655 S
H61 C55 0.960 . S
H62 C58 0.960 . S
H63 C58 0.960 . S
H64 C58 0.959 . S
C65 N66 1.317 . S
C65 N67 1.348 . S
C65 C68 1.485 . S
N66 C65 1.317 . S
N66 N70 1.370 . S
N67 C65 1.348 . S
N67 C69 1.346 . S
C68 C65 1.485 . S
C68 H72 0.960 . S
C68 H73 0.961 . S
C68 H74 0.960 . S
C69 N67 1.346 . S
C69 N70 1.307 . S
C69 C71 1.486 . S
N70 N66 1.370 . S
N70 C69 1.307 . S
C71 C69 1.486 . S
C71 H75 0.960 . S
C71 H76 0.960 . S
C71 H77 0.959 . S
H72 C68 0.960 . S
H73 C68 0.961 . S
H74 C68 0.960 . S
H75 C71 0.960 . S
H76 C71 0.960 . S
H77 C71 0.959 . S
C78 N79 1.317 . S
C78 N80 1.348 . S
C78 C81 1.485 . S
N79 C78 1.317 . S
N79 N83 1.370 . S
N80 C78 1.348 . S
N80 C82 1.346 . S
C81 C78 1.485 . S
C81 H85 0.960 . S
C81 H86 0.961 . S
C81 H87 0.960 . S
C82 N80 1.346 . S
C82 N83 1.307 . S
C82 C84 1.486 . S
N83 N79 1.370 . S
N83 C82 1.307 . S
C84 C82 1.486 . S
C84 H88 0.960 . S
C84 H89 0.960 . S
C84 H90 0.959 . S
H85 C81 0.960 . S
H86 C81 0.961 . S
H87 C81 0.960 . S
H88 C84 0.960 . S
H89 C84 0.960 . S
H90 C84 0.959 . S
C91 N92 1.317 . S
C91 N93 1.348 . S
C91 C94 1.485 . S
N92 C91 1.317 . S
N92 N96 1.370 . S
N93 C91 1.348 . S
N93 C95 1.346 . S
C94 C91 1.485 . S
C94 H98 0.960 . S
C94 H99 0.961 . S
C94 H100 0.960 . S
C95 N93 1.346 . S
C95 N96 1.307 . S
C95 C97 1.486 . S
N96 N92 1.370 . S
N96 C95 1.307 . S
C97 C95 1.486 . S
C97 H101 0.960 . S
C97 H102 0.960 . S
C97 H103 0.959 . S
H98 C94 0.960 . S
H99 C94 0.961 . S
H100 C94 0.960 . S
H101 C97 0.960 . S
H102 C97 0.960 . S
H103 C97 0.959 . S
C104 N105 1.317 . S
C104 N106 1.348 . S
C104 C107 1.485 . S
N105 C104 1.317 . S
N105 N109 1.370 . S
N106 C104 1.348 . S
N106 C108 1.346 . S
C107 C104 1.485 . S
C107 H111 0.960 . S
C107 H112 0.961 . S
C107 H113 0.960 . S
C108 N106 1.346 . S
C108 N109 1.307 . S
C108 C110 1.486 . S
N109 N105 1.370 . S
N109 C108 1.307 . S
C110 C108 1.486 . S
C110 H114 0.960 . S
C110 H115 0.960 . S
C110 H116 0.959 . S
H111 C107 0.960 . S
H112 C107 0.961 . S
H113 C107 0.960 . S
H114 C110 0.960 . S
H115 C110 0.960 . S
H116 C110 0.959 . S
C117 N118 1.317 . S
C117 N119 1.348 . S
C117 C120 1.524 . S
N118 C117 1.317 . S
N118 N122 1.370 . S
N119 C117 1.348 . S
N119 C121 1.346 . S
C120 C117 1.524 . S
C120 H124 0.971 . S
C120 H125 0.911 1_565 S
C120 H126 0.965 . S
C121 N119 1.346 . S
C121 N122 1.307 . S
C121 C123 1.486 . S
N122 N118 1.370 . S
N122 C121 1.307 . S
C123 C121 1.486 . S
C123 H127 0.960 . S
C123 H128 0.960 . S
C123 H129 0.959 . S
H124 C120 0.971 . S
H125 C120 0.911 1_545 S
H126 C120 0.965 . S
H127 C123 0.960 . S
H128 C123 0.960 . S
H129 C123 0.959 . S
C130 N131 1.317 . S
C130 N132 1.348 . S
C130 C133 1.485 . S
N131 C130 1.317 . S
N131 N135 1.370 . S
N132 C130 1.348 . S
N132 C134 1.346 . S
C133 C130 1.485 . S
C133 H137 0.960 . S
C133 H138 0.961 . S
C133 H139 0.960 . S
C134 N132 1.346 . S
C134 N135 1.307 . S
C134 C136 1.486 . S
N135 N131 1.370 . S
N135 C134 1.307 . S
C136 C134 1.486 . S
C136 H140 0.960 . S
C136 H141 0.960 . S
C136 H142 0.959 . S
H137 C133 0.960 . S
H138 C133 0.961 . S
H139 C133 0.960 . S
H140 C136 0.960 . S
H141 C136 0.960 . S
H142 C136 0.959 . S
C143 N144 1.317 . S
C143 N145 1.348 . S
C143 C146 1.485 . S
N144 C143 1.317 . S
N144 N148 1.370 . S
N145 C143 1.348 . S
N145 C147 1.346 . S
C146 C143 1.485 . S
C146 H150 0.960 . S
C146 H151 0.961 . S
C146 H152 0.960 . S
C147 N145 1.346 . S
C147 N148 1.307 . S
C147 C149 1.486 . S
N148 N144 1.370 . S
N148 C147 1.307 . S
C149 C147 1.486 . S
C149 H153 0.960 . S
C149 H154 0.960 . S
C149 H155 0.959 . S
H150 C146 0.960 . S
H151 C146 0.961 . S
H152 C146 0.960 . S
H153 C149 0.960 . S
H154 C149 0.960 . S
H155 C149 0.959 . S
C156 N157 1.317 . S
C156 N158 1.348 . S
C156 C159 1.485 . S
N157 C156 1.317 . S
N157 N161 1.370 . S
N158 C156 1.348 . S
N158 C160 1.346 . S
C159 C156 1.485 . S
C159 H163 0.960 . S
C159 H164 0.961 . S
C159 H165 0.960 . S
C160 N158 1.346 . S
C160 N161 1.307 . S
C160 C162 1.486 . S
N161 N157 1.370 . S
N161 C160 1.307 . S
C162 C160 1.486 . S
C162 H166 0.960 . S
C162 H167 0.960 . S
C162 H168 0.959 . S
H163 C159 0.960 . S
H164 C159 0.961 . S
H165 C159 0.960 . S
H166 C162 0.960 . S
H167 C162 0.960 . S
H168 C162 0.959 . S
C169 N170 1.317 . S
C169 N171 1.348 . S
C169 C172 1.485 . S
N170 C169 1.317 . S
N170 N174 1.370 . S
N171 C169 1.348 . S
N171 C173 1.346 . S
C172 C169 1.485 . S
C172 H176 0.960 . S
C172 H177 0.961 . S
C172 H178 0.960 . S
C173 N171 1.346 . S
C173 N174 1.307 . S
C173 C175 1.486 . S
N174 N170 1.370 . S
N174 C173 1.307 . S
C175 C173 1.486 . S
C175 H179 0.960 . S
C175 H180 0.960 . S
C175 H181 0.959 . S
H176 C172 0.960 . S
H177 C172 0.961 . S
H178 C172 0.960 . S
H179 C175 0.960 . S
H180 C175 0.960 . S
H181 C175 0.959 . S
C182 N183 1.317 . S
C182 N184 1.348 . S
C182 C185 1.485 . S
N183 C182 1.317 . S
N183 N187 1.370 . S
N184 C182 1.348 . S
N184 C186 1.346 . S
C185 C182 1.485 . S
C185 H189 0.960 . S
C185 H190 0.961 . S
C185 H191 0.960 . S
C186 N184 1.346 . S
C186 N187 1.307 . S
C186 C188 1.486 . S
N187 N183 1.370 . S
N187 C186 1.307 . S
C188 C186 1.486 . S
C188 H192 0.960 . S
C188 H193 0.960 . S
C188 H194 0.959 . S
H189 C185 0.960 . S
H190 C185 0.961 . S
H191 C185 0.960 . S
H192 C188 0.960 . S
H193 C188 0.960 . S
H194 C188 0.959 . S
C195 N196 1.317 . S
C195 N197 1.348 . S
C195 C198 1.485 . S
N196 C195 1.317 . S
N196 N200 1.370 . S
N197 C195 1.348 . S
N197 C199 1.346 . S
C198 C195 1.485 . S
C198 H202 0.960 . S
C198 H203 0.961 1_545 S
C198 H204 0.960 . S
C199 N197 1.346 . S
C199 N200 1.307 . S
C199 C201 1.486 1_556 S
N200 N196 1.370 . S
N200 C199 1.307 . S
C201 C199 1.486 1_554 S
C201 H205 0.960 . S
C201 H206 0.968 . S
C201 H207 0.959 . S
H202 C198 0.960 . S
H203 C198 0.961 1_565 S
H204 C198 0.960 . S
H205 C201 0.960 . S
H206 C201 0.968 . S
H207 C201 0.959 . S
C208 O209 1.160 . S
C208 O215 1.185 . S
O209 C208 1.160 . S
O210 Zn211 1.899 1_556 S
O210 C218 1.284 . S
Zn211 O210 1.899 1_554 S
Zn211 O212 2.032 . S
Zn211 O215 2.086 . S
Zn211 O220 1.977 . S
O212 Zn211 2.032 . S
O212 C216 1.278 . S
C213 O214 1.203 . S
C213 O220 1.267 . S
O214 C213 1.203 . S
O215 C208 1.185 . S
O215 Zn211 2.086 . S
C216 O212 1.278 . S
C216 O217 1.211 . S
O217 C216 1.211 . S
C218 O210 1.284 . S
C218 O219 1.273 . S
O219 C218 1.273 . S
O220 Zn211 1.977 . S
O220 C213 1.267 . S
C221 O222 1.160 . S
C221 O228 1.185 . S
O222 C221 1.160 . S
O223 Zn224 1.899 . S
O223 C231 1.284 . S
Zn224 O223 1.899 . S
Zn224 O225 2.032 . S
Zn224 O228 2.086 . S
Zn224 O233 1.977 . S
O225 Zn224 2.032 . S
O225 C229 1.278 . S
C226 O227 1.203 . S
C226 O233 1.267 . S
O227 C226 1.203 . S
O228 C221 1.185 . S
O228 Zn224 2.086 . S
C229 O225 1.278 . S
C229 O230 1.211 . S
O230 C229 1.211 . S
C231 O223 1.284 . S
C231 O232 1.273 . S
O232 C231 1.273 . S
O233 Zn224 1.977 . S
O233 C226 1.267 . S
C234 O235 1.160 1_554 S
C234 O241 1.185 . S
O235 C234 1.160 1_556 S
O236 Zn237 1.899 1_556 S
O236 C244 1.284 . S
Zn237 O236 1.899 1_554 S
Zn237 O238 2.032 1_554 S
Zn237 O241 2.086 . S
Zn237 O246 1.977 . S
O238 Zn237 2.032 1_556 S
O238 C242 1.278 . S
C239 O240 1.203 . S
C239 O246 1.267 . S
O240 C239 1.203 . S
O241 C234 1.185 . S
O241 Zn237 2.086 . S
C242 O238 1.278 . S
C242 O243 1.211 1_556 S
O243 C242 1.211 1_554 S
C244 O236 1.284 . S
C244 O245 1.273 . S
O245 C244 1.273 . S
O246 Zn237 1.977 . S
O246 C239 1.267 . S
C247 O248 1.160 . S
C247 O254 1.185 . S
O248 C247 1.160 . S
O249 Zn250 1.899 . S
O249 C257 1.284 . S
Zn250 O249 1.899 . S
Zn250 O251 2.032 1_545 S
Zn250 O254 2.086 . S
Zn250 O259 1.977 . S
O251 Zn250 2.032 1_565 S
O251 C255 1.278 . S
C252 O253 1.203 1_545 S
C252 O259 1.267 . S
O253 C252 1.203 1_565 S
O254 C247 1.185 . S
O254 Zn250 2.086 . S
C255 O251 1.278 . S
C255 O256 1.211 . S
O256 C255 1.211 . S
C257 O249 1.284 . S
C257 O258 1.273 1_545 S
O258 C257 1.273 1_565 S
O259 Zn250 1.977 . S
O259 C252 1.267 . S
C260 O261 1.160 . S
C260 O267 1.185 . S
O261 C260 1.160 . S
O262 Zn263 1.899 . S
O262 C270 1.284 . S
Zn263 O262 1.899 . S
Zn263 O264 2.032 . S
Zn263 O267 2.086 . S
Zn263 O272 1.977 . S
O264 Zn263 2.032 . S
O264 C268 1.278 . S
C265 O266 1.203 . S
C265 O272 1.267 . S
O266 C265 1.203 . S
O267 C260 1.185 . S
O267 Zn263 2.086 . S
C268 O264 1.278 . S
C268 O269 1.211 . S
O269 C268 1.211 . S
C270 O262 1.284 . S
C270 O271 1.273 . S
O271 C270 1.273 . S
O272 Zn263 1.977 . S
O272 C265 1.267 . S
C273 O274 1.160 . S
C273 O280 1.185 . S
O274 C273 1.160 . S
O275 Zn276 1.899 . S
O275 C283 1.284 . S
Zn276 O275 1.899 . S
Zn276 O277 2.032 . S
Zn276 O280 2.086 . S
Zn276 O285 1.977 . S
O277 Zn276 2.032 . S
O277 C281 1.278 . S
C278 O279 1.203 . S
C278 O285 1.267 . S
O279 C278 1.203 . S
O280 C273 1.185 . S
O280 Zn276 2.086 . S
C281 O277 1.278 . S
C281 O282 1.211 . S
O282 C281 1.211 . S
C283 O275 1.284 . S
C283 O284 1.273 . S
O284 C283 1.273 . S
O285 Zn276 1.977 . S
O285 C278 1.267 . S
C286 O287 1.160 . S
C286 O293 1.185 . S
O287 C286 1.160 . S
O288 Zn289 1.899 . S
O288 C296 1.284 . S
Zn289 O288 1.899 . S
Zn289 O290 2.032 . S
Zn289 O293 2.086 . S
Zn289 O298 1.977 . S
O290 Zn289 2.032 . S
O290 C294 1.278 . S
C291 O292 1.203 . S
C291 O298 1.267 . S
O292 C291 1.203 . S
O293 C286 1.185 . S
O293 Zn289 2.086 . S
C294 O290 1.278 . S
C294 O295 1.211 . S
O295 C294 1.211 . S
C296 O288 1.284 . S
C296 O297 1.273 . S
O297 C296 1.273 . S
O298 Zn289 1.977 . S
O298 C291 1.267 . S
C299 O300 1.160 . S
C299 O306 1.185 . S
O300 C299 1.160 . S
O301 Zn302 1.905 . S
O301 C309 1.284 1_565 S
Zn302 O301 1.905 . S
Zn302 O303 1.999 1_565 S
Zn302 O306 2.126 . S
Zn302 O311 1.982 . S
O303 Zn302 1.999 1_545 S
O303 C307 1.278 . S
C304 O305 1.180 1_565 S
C304 O311 1.286 . S
O305 C304 1.180 1_545 S
O306 C299 1.185 . S
O306 Zn302 2.126 . S
C307 O303 1.278 . S
C307 O308 1.211 . S
O308 C307 1.211 . S
C309 O301 1.284 1_545 S
C309 O310 1.273 . S
O310 C309 1.273 . S
O311 Zn302 1.982 . S
O311 C304 1.286 . S
C312 O313 1.161 1_455 S
C312 O319 1.184 . S
O313 C312 1.161 1_655 S
O314 Zn315 1.899 1_655 S
O314 C322 1.284 . S
Zn315 O314 1.899 1_455 S
Zn315 O316 2.032 1_455 S
Zn315 O319 2.086 . S
Zn315 O324 1.977 . S
O316 Zn315 2.032 1_655 S
O316 C320 1.278 1_655 S
C317 O318 1.203 . S
C317 O324 1.267 . S
O318 C317 1.203 . S
O319 C312 1.184 . S
O319 Zn315 2.086 . S
C320 O316 1.278 1_455 S
C320 O321 1.211 . S
O321 C320 1.211 . S
C322 O314 1.284 . S
C322 O323 1.273 . S
O323 C322 1.273 . S
O324 Zn315 1.977 . S
O324 C317 1.267 . S
C325 O326 1.160 . S
C325 O332 1.185 . S
O326 C325 1.160 . S
O327 Zn328 1.899 . S
O327 C335 1.284 . S
Zn328 O327 1.899 . S
Zn328 O329 2.032 . S
Zn328 O332 2.086 . S
Zn328 O337 1.977 . S
O329 Zn328 2.032 . S
O329 C333 1.278 . S
C330 O331 1.203 . S
C330 O337 1.267 . S
O331 C330 1.203 . S
O332 C325 1.185 . S
O332 Zn328 2.086 . S
C333 O329 1.278 . S
C333 O334 1.211 . S
O334 C333 1.211 . S
C335 O327 1.284 . S
C335 O336 1.273 . S
O336 C335 1.273 . S
O337 Zn328 1.977 . S
O337 C330 1.267 . S
C338 O339 1.160 . S
C338 O345 1.185 . S
O339 C338 1.160 . S
O340 Zn341 1.899 . S
O340 C348 1.284 1_455 S
Zn341 O340 1.899 . S
Zn341 O342 2.032 . S
Zn341 O345 2.086 . S
Zn341 O350 1.977 . S
O342 Zn341 2.032 . S
O342 C346 1.278 . S
C343 O344 1.203 . S
C343 O350 1.267 . S
O344 C343 1.203 . S
O345 C338 1.185 . S
O345 Zn341 2.086 . S
C346 O342 1.278 . S
C346 O347 1.211 . S
O347 C346 1.211 . S
C348 O340 1.284 1_655 S
C348 O349 1.273 . S
O349 C348 1.273 . S
O350 Zn341 1.977 . S
O350 C343 1.267 . S
C351 O352 1.160 . S
C351 O358 1.185 . S
O352 C351 1.160 . S
O353 Zn354 1.899 . S
O353 C361 1.284 . S
Zn354 O353 1.899 . S
Zn354 O355 2.032 . S
Zn354 O358 2.086 . S
Zn354 O363 1.977 . S
O355 Zn354 2.032 . S
O355 C359 1.278 . S
C356 O357 1.203 . S
C356 O363 1.267 . S
O357 C356 1.203 . S
O358 C351 1.185 . S
O358 Zn354 2.086 . S
C359 O355 1.278 . S
C359 O360 1.211 . S
O360 C359 1.211 . S
C361 O353 1.284 . S
C361 O362 1.273 . S
O362 C361 1.273 . S
O363 Zn354 1.977 . S
O363 C356 1.267 . S
H364 C372 0.929 . S
H365 C374 0.930 . S
H366 C376 0.930 . S
H367 C379 0.929 . S
H368 C382 0.930 . S
H369 C384 0.960 . S
H370 C384 0.960 . S
H371 C384 0.960 . S
C372 H364 0.929 . S
C372 C373 1.377 . S
C372 C374 1.384 . S
C373 C372 1.377 . S
C373 C379 1.390 . S
C374 H365 0.930 . S
C374 C372 1.384 . S
C374 C375 1.372 . S
C375 C374 1.372 . S
C375 C376 1.400 . S
C375 C380 1.490 . S
C376 H366 0.930 . S
C376 C375 1.400 . S
C376 C379 1.386 . S
H377 C393 0.930 . S
H378 C394 0.931 . S
C379 H367 0.929 . S
C379 C373 1.390 . S
C379 C376 1.386 . S
C380 C375 1.490 . S
C380 C382 1.395 . S
C380 C383 1.403 . S
H381 C387 0.930 . S
C382 H368 0.930 . S
C382 C380 1.395 . S
C382 C385 1.403 . S
C383 C380 1.403 . S
C383 C384 1.524 . S
C383 C387 1.400 . S
C384 H369 0.960 . S
C384 H370 0.960 . S
C384 H371 0.960 . S
C384 C383 1.524 . S
C385 C382 1.403 . S
C385 C386 1.392 . S
C385 C389 1.495 . S
C386 C385 1.392 . S
C386 C387 1.385 . S
C386 C388 1.478 . S
C387 H381 0.930 . S
C387 C383 1.400 . S
C387 C386 1.385 . S
C388 C386 1.478 . S
C388 C390 1.381 . S
C388 C394 1.383 . S
C389 C385 1.495 . S
C389 H395 0.959 . S
C389 H396 0.961 . S
C389 H397 0.960 . S
C390 C388 1.381 . S
C390 C391 1.394 . S
C390 H398 0.930 . S
C391 C390 1.394 . S
C391 C392 1.383 . S
C391 H399 0.929 . S
C392 C391 1.383 . S
C392 C393 1.377 . S
C393 H377 0.930 . S
C393 C392 1.377 . S
C393 C394 1.379 . S
C394 H378 0.931 . S
C394 C388 1.383 . S
C394 C393 1.379 . S
H395 C389 0.959 . S
H396 C389 0.961 . S
H397 C389 0.960 . S
H398 C390 0.930 . S
H399 C391 0.929 . S
H400 C408 0.929 . S
H401 C410 0.930 . S
H402 C412 0.930 . S
H403 C415 0.929 . S
H404 C418 0.930 . S
H405 C420 0.960 . S
H406 C420 0.960 . S
H407 C420 0.960 . S
C408 H400 0.929 . S
C408 C409 1.377 . S
C408 C410 1.384 . S
C409 C408 1.377 . S
C409 C415 1.390 . S
C410 H401 0.930 . S
C410 C408 1.384 . S
C410 C411 1.372 1_655 S
C411 C410 1.372 1_455 S
C411 C412 1.400 . S
C411 C416 1.490 . S
C412 H402 0.930 . S
C412 C411 1.400 . S
C412 C415 1.386 1_455 S
H413 C429 0.930 . S
H414 C430 0.931 . S
C415 H403 0.929 . S
C415 C409 1.390 . S
C415 C412 1.386 1_655 S
C416 C411 1.490 . S
C416 C418 1.395 . S
C416 C419 1.403 . S
H417 C423 0.930 . S
C418 H404 0.930 . S
C418 C416 1.395 . S
C418 C421 1.403 . S
C419 C416 1.403 . S
C419 C420 1.524 . S
C419 C423 1.400 . S
C420 H405 0.960 . S
C420 H406 0.960 . S
C420 H407 0.960 . S
C420 C419 1.524 . S
C421 C418 1.403 . S
C421 C422 1.392 . S
C421 C425 1.495 . S
C422 C421 1.392 . S
C422 C423 1.385 . S
C422 C424 1.478 . S
C423 H417 0.930 . S
C423 C419 1.400 . S
C423 C422 1.385 . S
C424 C422 1.478 . S
C424 C426 1.381 . S
C424 C430 1.383 . S
C425 C421 1.495 . S
C425 H431 0.959 . S
C425 H432 0.961 . S
C425 H433 0.960 . S
C426 C424 1.381 . S
C426 C427 1.394 . S
C426 H434 0.930 . S
C427 C426 1.394 . S
C427 C428 1.383 . S
C427 H435 0.929 . S
C428 C427 1.383 . S
C428 C429 1.377 . S
C429 H413 0.930 . S
C429 C428 1.377 . S
C429 C430 1.379 . S
C430 H414 0.931 . S
C430 C424 1.383 . S
C430 C429 1.379 . S
H431 C425 0.959 . S
H432 C425 0.961 . S
H433 C425 0.960 . S
H434 C426 0.930 . S
H435 C427 0.929 . S
H436 C444 0.929 . S
H437 C446 0.930 . S
H438 C448 0.930 . S
H439 C451 0.929 . S
H440 C454 0.930 . S
H441 C456 0.960 . S
H442 C456 0.960 . S
H443 C456 0.960 . S
C444 H436 0.929 . S
C444 C445 1.377 . S
C444 C446 1.384 . S
C445 C444 1.377 . S
C445 C451 1.390 . S
C446 H437 0.930 . S
C446 C444 1.384 . S
C446 C447 1.372 . S
C447 C446 1.372 . S
C447 C448 1.400 . S
C447 C452 1.490 . S
C448 H438 0.930 . S
C448 C447 1.400 . S
C448 C451 1.386 . S
H449 C465 0.930 . S
H450 C466 0.931 . S
C451 H439 0.929 . S
C451 C445 1.390 . S
C451 C448 1.386 . S
C452 C447 1.490 . S
C452 C454 1.395 . S
C452 C455 1.403 . S
H453 C459 0.930 . S
C454 H440 0.930 . S
C454 C452 1.395 . S
C454 C457 1.403 . S
C455 C452 1.403 . S
C455 C456 1.524 . S
C455 C459 1.400 . S
C456 H441 0.960 . S
C456 H442 0.960 . S
C456 H443 0.960 . S
C456 C455 1.524 . S
C457 C454 1.403 . S
C457 C458 1.392 . S
C457 C461 1.495 . S
C458 C457 1.392 . S
C458 C459 1.385 . S
C458 C460 1.478 . S
C459 H453 0.930 . S
C459 C455 1.400 . S
C459 C458 1.385 . S
C460 C458 1.478 . S
C460 C462 1.381 . S
C460 C466 1.383 . S
C461 C457 1.495 . S
C461 H467 0.959 . S
C461 H468 0.961 . S
C461 H469 0.960 . S
C462 C460 1.381 . S
C462 C463 1.394 . S
C462 H470 0.930 . S
C463 C462 1.394 . S
C463 C464 1.383 . S
C463 H471 0.929 . S
C464 C463 1.383 . S
C464 C465 1.377 . S
C465 H449 0.930 . S
C465 C464 1.377 . S
C465 C466 1.379 . S
C466 H450 0.931 . S
C466 C460 1.383 . S
C466 C465 1.379 . S
H467 C461 0.959 . S
H468 C461 0.961 . S
H469 C461 0.960 . S
H470 C462 0.930 . S
H471 C463 0.929 . S
H472 C480 0.929 . S
H473 C482 0.930 . S
H474 C484 0.930 . S
H475 C487 0.929 . S
H476 C490 0.930 . S
H477 C492 0.960 . S
H478 C492 0.960 1_455 S
H479 C492 0.960 . S
C480 H472 0.929 . S
C480 C481 1.377 . S
C480 C482 1.384 1_455 S
C481 C480 1.377 . S
C481 C487 1.390 1_565 S
C482 H473 0.930 . S
C482 C480 1.384 1_655 S
C482 C483 1.372 . S
C483 C482 1.372 . S
C483 C484 1.400 1_565 S
C483 C488 1.490 . S
C484 H474 0.930 . S
C484 C483 1.400 1_545 S
C484 C487 1.386 1_655 S
H485 C501 0.930 . S
H486 C502 0.931 . S
C487 H475 0.929 . S
C487 C481 1.390 1_545 S
C487 C484 1.386 1_455 S
C488 C483 1.490 . S
C488 C490 1.395 . S
C488 C491 1.403 1_565 S
H489 C495 0.930 . S
C490 H476 0.930 . S
C490 C488 1.395 . S
C490 C493 1.403 . S
C491 C488 1.403 1_545 S
C491 C492 1.524 . S
C491 C495 1.400 . S
C492 H477 0.960 . S
C492 H478 0.960 1_655 S
C492 H479 0.960 . S
C492 C491 1.524 . S
C493 C490 1.403 . S
C493 C494 1.392 . S
C493 C497 1.495 . S
C494 C493 1.392 . S
C494 C495 1.385 1_565 S
C494 C496 1.478 . S
C495 H489 0.930 . S
C495 C491 1.400 . S
C495 C494 1.385 1_545 S
C496 C494 1.478 . S
C496 C498 1.381 . S
C496 C502 1.383 1_565 S
C497 C493 1.495 . S
C497 H503 0.959 . S
C497 H504 0.961 . S
C497 H505 0.960 . S
C498 C496 1.381 . S
C498 C499 1.394 . S
C498 H506 0.930 . S
C499 C498 1.394 . S
C499 C500 1.383 1_565 S
C499 H507 0.929 . S
C500 C499 1.383 1_545 S
C500 C501 1.377 . S
C501 H485 0.930 . S
C501 C500 1.377 . S
C501 C502 1.379 . S
C502 H486 0.931 . S
C502 C496 1.383 1_545 S
C502 C501 1.379 . S
H503 C497 0.959 . S
H504 C497 0.961 . S
H505 C497 0.960 . S
H506 C498 0.930 . S
H507 C499 0.929 . S
H508 C516 0.929 . S
H509 C518 0.930 . S
H510 C520 0.930 . S
H511 C523 0.929 . S
H512 C526 0.930 . S
H513 C528 0.960 . S
H514 C528 0.960 . S
H515 C528 0.960 . S
C516 H508 0.929 . S
C516 C517 1.377 . S
C516 C518 1.384 . S
C517 C516 1.377 . S
C517 C523 1.390 . S
C518 H509 0.930 . S
C518 C516 1.384 . S
C518 C519 1.372 . S
C519 C518 1.372 . S
C519 C520 1.400 . S
C519 C524 1.490 . S
C520 H510 0.930 . S
C520 C519 1.400 . S
C520 C523 1.386 . S
H521 C537 0.930 . S
H522 C538 0.931 . S
C523 H511 0.929 . S
C523 C517 1.390 . S
C523 C520 1.386 . S
C524 C519 1.490 . S
C524 C526 1.395 . S
C524 C527 1.403 . S
H525 C531 0.930 . S
C526 H512 0.930 . S
C526 C524 1.395 . S
C526 C529 1.403 . S
C527 C524 1.403 . S
C527 C528 1.524 . S
C527 C531 1.400 . S
C528 H513 0.960 . S
C528 H514 0.960 . S
C528 H515 0.960 . S
C528 C527 1.524 . S
C529 C526 1.403 . S
C529 C530 1.392 . S
C529 C533 1.495 . S
C530 C529 1.392 . S
C530 C531 1.385 . S
C530 C532 1.478 . S
C531 H525 0.930 . S
C531 C527 1.400 . S
C531 C530 1.385 . S
C532 C530 1.478 . S
C532 C534 1.381 . S
C532 C538 1.383 . S
C533 C529 1.495 . S
C533 H539 0.959 . S
C533 H540 0.961 . S
C533 H541 0.960 . S
C534 C532 1.381 . S
C534 C535 1.394 . S
C534 H542 0.930 . S
C535 C534 1.394 . S
C535 C536 1.383 . S
C535 H543 0.929 . S
C536 C535 1.383 . S
C536 C537 1.377 . S
C537 H521 0.930 . S
C537 C536 1.377 . S
C537 C538 1.379 . S
C538 H522 0.931 . S
C538 C532 1.383 . S
C538 C537 1.379 . S
H539 C533 0.959 . S
H540 C533 0.961 . S
H541 C533 0.960 . S
H542 C534 0.930 . S
H543 C535 0.929 . S
H544 C552 0.929 . S
H545 C554 0.930 . S
H546 C556 0.930 . S
H547 C559 0.929 . S
H548 C562 0.930 . S
H549 C564 0.960 . S
H550 C564 0.960 . S
H551 C564 0.960 . S
C552 H544 0.929 . S
C552 C553 1.377 . S
C552 C554 1.384 . S
C553 C552 1.377 . S
C553 C559 1.390 . S
C554 H545 0.930 . S
C554 C552 1.384 . S
C554 C555 1.372 . S
C555 C554 1.372 . S
C555 C556 1.400 . S
C555 C560 1.490 . S
C556 H546 0.930 . S
C556 C555 1.400 . S
C556 C559 1.386 . S
H557 C573 0.930 . S
H558 C574 0.931 . S
C559 H547 0.929 . S
C559 C553 1.390 . S
C559 C556 1.386 . S
C560 C555 1.490 . S
C560 C562 1.395 . S
C560 C563 1.403 . S
H561 C567 0.930 . S
C562 H548 0.930 . S
C562 C560 1.395 . S
C562 C565 1.403 . S
C563 C560 1.403 . S
C563 C564 1.524 . S
C563 C567 1.400 . S
C564 H549 0.960 . S
C564 H550 0.960 . S
C564 H551 0.960 . S
C564 C563 1.524 . S
C565 C562 1.403 . S
C565 C566 1.392 . S
C565 C569 1.495 . S
C566 C565 1.392 . S
C566 C567 1.385 . S
C566 C568 1.478 . S
C567 H561 0.930 . S
C567 C563 1.400 . S
C567 C566 1.385 . S
C568 C566 1.478 . S
C568 C570 1.381 . S
C568 C574 1.383 . S
C569 C565 1.495 . S
C569 H575 0.959 . S
C569 H576 0.961 . S
C569 H577 0.960 . S
C570 C568 1.381 . S
C570 C571 1.394 . S
C570 H578 0.930 . S
C571 C570 1.394 . S
C571 C572 1.383 . S
C571 H579 0.929 . S
C572 C571 1.383 . S
C572 C573 1.377 . S
C573 H557 0.930 . S
C573 C572 1.377 . S
C573 C574 1.379 . S
C574 H558 0.931 . S
C574 C568 1.383 . S
C574 C573 1.379 . S
H575 C569 0.959 . S
H576 C569 0.961 . S
H577 C569 0.960 . S
H578 C570 0.930 . S
H579 C571 0.929 . S
H580 C588 0.929 . S
H581 C590 0.930 . S
H582 C592 0.930 . S
H583 C595 0.929 . S
H584 C598 0.930 . S
H585 C600 0.960 . S
H586 C600 0.960 . S
H587 C600 0.960 . S
C588 H580 0.929 . S
C588 C589 1.377 . S
C588 C590 1.384 . S
C589 C588 1.377 . S
C589 C595 1.390 . S
C590 H581 0.930 . S
C590 C588 1.384 . S
C590 C591 1.372 . S
C591 C590 1.372 . S
C591 C592 1.400 . S
C591 C596 1.490 . S
C592 H582 0.930 . S
C592 C591 1.400 . S
C592 C595 1.386 . S
H593 C609 0.930 . S
H594 C610 0.931 . S
C595 H583 0.929 . S
C595 C589 1.390 . S
C595 C592 1.386 . S
C596 C591 1.490 . S
C596 C598 1.395 . S
C596 C599 1.403 . S
H597 C603 0.930 . S
C598 H584 0.930 . S
C598 C596 1.395 . S
C598 C601 1.403 . S
C599 C596 1.403 . S
C599 C600 1.524 . S
C599 C603 1.400 . S
C600 H585 0.960 . S
C600 H586 0.960 . S
C600 H587 0.960 . S
C600 C599 1.524 . S
C601 C598 1.403 . S
C601 C602 1.392 . S
C601 C605 1.495 . S
C602 C601 1.392 . S
C602 C603 1.385 . S
C602 C604 1.478 . S
C603 H597 0.930 . S
C603 C599 1.400 . S
C603 C602 1.385 . S
C604 C602 1.478 . S
C604 C606 1.381 . S
C604 C610 1.383 . S
C605 C601 1.495 . S
C605 H611 0.959 . S
C605 H612 0.961 . S
C605 H613 0.960 . S
C606 C604 1.381 . S
C606 C607 1.394 . S
C606 H614 0.930 . S
C607 C606 1.394 . S
C607 C608 1.383 . S
C607 H615 0.929 . S
C608 C607 1.383 . S
C608 C609 1.377 . S
C609 H593 0.930 . S
C609 C608 1.377 . S
C609 C610 1.379 . S
C610 H594 0.931 . S
C610 C604 1.383 . S
C610 C609 1.379 . S
H611 C605 0.959 . S
H612 C605 0.961 . S
H613 C605 0.960 . S
H614 C606 0.930 . S
H615 C607 0.929 . S
H616 C624 0.929 . S
H617 C626 0.930 1_545 S
H618 C628 0.930 . S
H619 C631 0.929 . S
H620 C634 0.930 . S
H621 C636 0.960 . S
H622 C636 0.960 . S
H623 C636 0.960 . S
C624 H616 0.929 . S
C624 C625 1.377 . S
C624 C626 1.384 . S
C625 C624 1.377 . S
C625 C631 1.390 . S
C626 H617 0.930 1_565 S
C626 C624 1.384 . S
C626 C627 1.372 . S
C627 C626 1.372 . S
C627 C628 1.400 . S
C627 C632 1.490 . S
C628 H618 0.930 . S
C628 C627 1.400 . S
C628 C631 1.386 . S
H629 C645 0.930 . S
H630 C646 0.931 . S
C631 H619 0.929 . S
C631 C625 1.390 . S
C631 C628 1.386 . S
C632 C627 1.490 . S
C632 C634 1.395 . S
C632 C635 1.403 . S
H633 C639 0.930 . S
C634 H620 0.930 . S
C634 C632 1.395 . S
C634 C637 1.403 . S
C635 C632 1.403 . S
C635 C636 1.524 . S
C635 C639 1.400 . S
C636 H621 0.960 . S
C636 H622 0.960 . S
C636 H623 0.960 . S
C636 C635 1.524 . S
C637 C634 1.403 . S
C637 C638 1.392 . S
C637 C641 1.495 1_565 S
C638 C637 1.392 . S
C638 C639 1.385 . S
C638 C640 1.478 . S
C639 H633 0.930 . S
C639 C635 1.400 . S
C639 C638 1.385 . S
C640 C638 1.478 . S
C640 C642 1.381 1_565 S
C640 C646 1.383 . S
C641 C637 1.495 1_545 S
C641 H647 0.959 . S
C641 H648 0.961 1_545 S
C641 H649 0.960 . S
C642 C640 1.381 1_545 S
C642 C643 1.394 . S
C642 H650 0.930 . S
C643 C642 1.394 . S
C643 C644 1.383 1_545 S
C643 H651 0.929 . S
C644 C643 1.383 1_565 S
C644 C645 1.377 . S
C645 H629 0.930 . S
C645 C644 1.377 . S
C645 C646 1.379 . S
C646 H630 0.931 . S
C646 C640 1.383 . S
C646 C645 1.379 . S
H647 C641 0.959 . S
H648 C641 0.961 1_565 S
H649 C641 0.960 . S
H650 C642 0.930 . S
H651 C643 0.929 . S
H652 C660 0.929 . S
H653 C662 0.930 . S
H654 C664 0.930 . S
H655 C667 0.929 . S
H656 C670 0.930 . S
H657 C672 0.960 . S
H658 C672 0.960 . S
H659 C672 0.960 . S
C660 H652 0.929 . S
C660 C661 1.377 . S
C660 C662 1.384 . S
C661 C660 1.377 . S
C661 C667 1.390 . S
C662 H653 0.930 . S
C662 C660 1.384 . S
C662 C663 1.372 . S
C663 C662 1.372 . S
C663 C664 1.400 . S
C663 C668 1.490 . S
C664 H654 0.930 . S
C664 C663 1.400 . S
C664 C667 1.386 . S
H665 C681 0.930 . S
H666 C682 0.931 . S
C667 H655 0.929 . S
C667 C661 1.390 . S
C667 C664 1.386 . S
C668 C663 1.490 . S
C668 C670 1.395 . S
C668 C671 1.403 . S
H669 C675 0.930 . S
C670 H656 0.930 . S
C670 C668 1.395 . S
C670 C673 1.403 . S
C671 C668 1.403 . S
C671 C672 1.524 . S
C671 C675 1.400 . S
C672 H657 0.960 . S
C672 H658 0.960 . S
C672 H659 0.960 . S
C672 C671 1.524 . S
C673 C670 1.403 . S
C673 C674 1.392 . S
C673 C677 1.495 . S
C674 C673 1.392 . S
C674 C675 1.385 . S
C674 C676 1.478 . S
C675 H669 0.930 . S
C675 C671 1.400 . S
C675 C674 1.385 . S
C676 C674 1.478 . S
C676 C678 1.381 . S
C676 C682 1.383 . S
C677 C673 1.495 . S
C677 H683 0.959 . S
C677 H684 0.961 . S
C677 H685 0.960 . S
C678 C676 1.381 . S
C678 C679 1.394 . S
C678 H686 0.930 . S
C679 C678 1.394 . S
C679 C680 1.383 . S
C679 H687 0.929 . S
C680 C679 1.383 . S
C680 C681 1.377 . S
C681 H665 0.930 . S
C681 C680 1.377 . S
C681 C682 1.379 . S
C682 H666 0.931 . S
C682 C676 1.383 . S
C682 C681 1.379 . S
H683 C677 0.959 . S
H684 C677 0.961 . S
H685 C677 0.960 . S
H686 C678 0.930 . S
H687 C679 0.929 . S
H688 C696 0.929 . S
H689 C698 0.930 . S
H690 C700 0.930 . S
H691 C703 0.929 . S
H692 C706 0.930 . S
H693 C708 0.960 . S
H694 C708 0.960 . S
H695 C708 0.960 . S
C696 H688 0.929 . S
C696 C697 1.377 . S
C696 C698 1.384 . S
C697 C696 1.377 . S
C697 C703 1.390 . S
C698 H689 0.930 . S
C698 C696 1.384 . S
C698 C699 1.372 . S
C699 C698 1.372 . S
C699 C700 1.400 . S
C699 C704 1.490 . S
C700 H690 0.930 . S
C700 C699 1.400 . S
C700 C703 1.386 . S
H701 C717 0.930 . S
H702 C718 0.931 . S
C703 H691 0.929 . S
C703 C697 1.390 . S
C703 C700 1.386 . S
C704 C699 1.490 . S
C704 C706 1.395 . S
C704 C707 1.403 . S
H705 C711 0.930 . S
C706 H692 0.930 . S
C706 C704 1.395 . S
C706 C709 1.403 . S
C707 C704 1.403 . S
C707 C708 1.524 . S
C707 C711 1.400 . S
C708 H693 0.960 . S
C708 H694 0.960 . S
C708 H695 0.960 . S
C708 C707 1.524 . S
C709 C706 1.403 . S
C709 C710 1.392 . S
C709 C713 1.495 . S
C710 C709 1.392 . S
C710 C711 1.385 . S
C710 C712 1.478 . S
C711 H705 0.930 . S
C711 C707 1.400 . S
C711 C710 1.385 . S
C712 C710 1.478 . S
C712 C714 1.381 . S
C712 C718 1.383 . S
C713 C709 1.495 . S
C713 H719 0.959 . S
C713 H720 0.961 . S
C713 H721 0.960 . S
C714 C712 1.381 . S
C714 C715 1.394 . S
C714 H722 0.930 . S
C715 C714 1.394 . S
C715 C716 1.383 . S
C715 H723 0.929 . S
C716 C715 1.383 . S
C716 C717 1.377 . S
C717 H701 0.930 . S
C717 C716 1.377 . S
C717 C718 1.379 . S
C718 H702 0.931 . S
C718 C712 1.383 . S
C718 C717 1.379 . S
H719 C713 0.959 . S
H720 C713 0.961 . S
H721 C713 0.960 . S
H722 C714 0.930 . S
H723 C715 0.929 . S
H724 C732 0.929 . S
H725 C734 0.930 . S
H726 C736 0.930 . S
H727 C739 0.929 . S
H728 C742 0.930 . S
H729 C744 0.960 . S
H730 C744 0.960 . S
H731 C744 0.960 . S
C732 H724 0.929 . S
C732 C733 1.377 . S
C732 C734 1.384 . S
C733 C732 1.377 . S
C733 C739 1.390 . S
C734 H725 0.930 . S
C734 C732 1.384 . S
C734 C735 1.372 . S
C735 C734 1.372 . S
C735 C736 1.400 . S
C735 C740 1.490 . S
C736 H726 0.930 . S
C736 C735 1.400 . S
C736 C739 1.386 . S
H737 C753 0.930 . S
H738 C754 0.931 . S
C739 H727 0.929 . S
C739 C733 1.390 . S
C739 C736 1.386 . S
C740 C735 1.490 . S
C740 C742 1.395 . S
C740 C743 1.403 . S
H741 C747 0.930 . S
C742 H728 0.930 . S
C742 C740 1.395 . S
C742 C745 1.403 . S
C743 C740 1.403 . S
C743 C744 1.524 . S
C743 C747 1.400 . S
C744 H729 0.960 . S
C744 H730 0.960 . S
C744 H731 0.960 . S
C744 C743 1.524 . S
C745 C742 1.403 . S
C745 C746 1.392 . S
C745 C749 1.495 . S
C746 C745 1.392 . S
C746 C747 1.385 . S
C746 C748 1.478 . S
C747 H741 0.930 . S
C747 C743 1.400 . S
C747 C746 1.385 . S
C748 C746 1.478 . S
C748 C750 1.381 . S
C748 C754 1.383 . S
C749 C745 1.495 . S
C749 H755 0.959 . S
C749 H756 0.961 . S
C749 H757 0.960 . S
C750 C748 1.381 . S
C750 C751 1.394 . S
C750 H758 0.930 . S
C751 C750 1.394 . S
C751 C752 1.383 . S
C751 H759 0.929 . S
C752 C751 1.383 . S
C752 C753 1.377 . S
C753 H737 0.930 . S
C753 C752 1.377 . S
C753 C754 1.379 . S
C754 H738 0.931 . S
C754 C748 1.383 . S
C754 C753 1.379 . S
H755 C749 0.959 . S
H756 C749 0.961 . S
H757 C749 0.960 . S
H758 C750 0.930 . S
H759 C751 0.929 . S
H760 C768 0.929 . S
H761 C770 0.930 . S
H762 C772 0.930 . S
H763 C775 0.929 . S
H764 C778 0.930 . S
H765 C780 0.960 . S
H766 C780 0.960 . S
H767 C780 0.960 . S
C768 H760 0.929 . S
C768 C769 1.377 . S
C768 C770 1.384 . S
C769 C768 1.377 . S
C769 C775 1.390 . S
C770 H761 0.930 . S
C770 C768 1.384 . S
C770 C771 1.372 . S
C771 C770 1.372 . S
C771 C772 1.400 . S
C771 C776 1.490 . S
C772 H762 0.930 . S
C772 C771 1.400 . S
C772 C775 1.386 . S
H773 C789 0.930 . S
H774 C790 0.931 . S
C775 H763 0.929 . S
C775 C769 1.390 . S
C775 C772 1.386 . S
C776 C771 1.490 . S
C776 C778 1.395 . S
C776 C779 1.403 . S
H777 C783 0.930 . S
C778 H764 0.930 . S
C778 C776 1.395 . S
C778 C781 1.403 . S
C779 C776 1.403 . S
C779 C780 1.524 . S
C779 C783 1.400 . S
C780 H765 0.960 . S
C780 H766 0.960 . S
C780 H767 0.960 . S
C780 C779 1.524 . S
C781 C778 1.403 . S
C781 C782 1.392 . S
C781 C785 1.495 . S
C782 C781 1.392 . S
C782 C783 1.385 . S
C782 C784 1.478 . S
C783 H777 0.930 . S
C783 C779 1.400 . S
C783 C782 1.385 . S
C784 C782 1.478 . S
C784 C786 1.381 . S
C784 C790 1.383 . S
C785 C781 1.495 . S
C785 H791 0.959 . S
C785 H792 0.961 . S
C785 H793 0.960 . S
C786 C784 1.381 . S
C786 C787 1.394 . S
C786 H794 0.930 . S
C787 C786 1.394 . S
C787 C788 1.383 . S
C787 H795 0.929 . S
C788 C787 1.383 . S
C788 C789 1.377 . S
C789 H773 0.930 . S
C789 C788 1.377 . S
C789 C790 1.379 . S
C790 H774 0.931 . S
C790 C784 1.383 . S
C790 C789 1.379 . S
H791 C785 0.959 . S
H792 C785 0.961 . S
H793 C785 0.960 . S
H794 C786 0.930 . S
H795 C787 0.929 . S
H796 C804 0.929 . S
H797 C806 0.930 . S
H798 C808 0.930 . S
H799 C811 0.929 . S
H800 C814 0.930 . S
H801 C816 0.960 . S
H802 C816 0.960 . S
H803 C816 0.960 . S
C804 H796 0.929 . S
C804 C805 1.377 . S
C804 C806 1.384 . S
C805 C804 1.377 . S
C805 C811 1.390 . S
C806 H797 0.930 . S
C806 C804 1.384 . S
C806 C807 1.372 . S
C807 C806 1.372 . S
C807 C808 1.400 . S
C807 C812 1.490 . S
C808 H798 0.930 . S
C808 C807 1.400 . S
C808 C811 1.386 . S
H809 C825 0.930 . S
H810 C826 0.931 . S
C811 H799 0.929 . S
C811 C805 1.390 . S
C811 C808 1.386 . S
C812 C807 1.490 . S
C812 C814 1.395 . S
C812 C815 1.403 . S
H813 C819 0.930 . S
C814 H800 0.930 . S
C814 C812 1.395 . S
C814 C817 1.403 . S
C815 C812 1.403 . S
C815 C816 1.524 . S
C815 C819 1.400 . S
C816 H801 0.960 . S
C816 H802 0.960 . S
C816 H803 0.960 . S
C816 C815 1.524 . S
C817 C814 1.403 . S
C817 C818 1.392 . S
C817 C821 1.495 . S
C818 C817 1.392 . S
C818 C819 1.385 . S
C818 C820 1.478 . S
C819 H813 0.930 . S
C819 C815 1.400 . S
C819 C818 1.385 . S
C820 C818 1.478 . S
C820 C822 1.381 . S
C820 C826 1.383 . S
C821 C817 1.495 . S
C821 H827 0.959 . S
C821 H828 0.961 . S
C821 H829 0.960 . S
C822 C820 1.381 . S
C822 C823 1.394 . S
C822 H830 0.930 . S
C823 C822 1.394 . S
C823 C824 1.383 . S
C823 H831 0.929 . S
C824 C823 1.383 . S
C824 C825 1.377 . S
C825 H809 0.930 . S
C825 C824 1.377 . S
C825 C826 1.379 . S
C826 H810 0.931 . S
C826 C820 1.383 . S
C826 C825 1.379 . S
H827 C821 0.959 . S
H828 C821 0.961 . S
H829 C821 0.960 . S
H830 C822 0.930 . S
H831 C823 0.929 . S
H832 C840 0.929 . S
H833 C842 0.930 . S
H834 C844 0.930 . S
H835 C847 0.929 . S
H836 C850 0.930 . S
H837 C852 0.960 . S
H838 C852 0.960 . S
H839 C852 0.960 . S
C840 H832 0.929 . S
C840 C841 1.377 . S
C840 C842 1.384 . S
C841 C840 1.377 . S
C841 C847 1.390 . S
C842 H833 0.930 . S
C842 C840 1.384 . S
C842 C843 1.372 . S
C843 C842 1.372 . S
C843 C844 1.400 . S
C843 C848 1.490 . S
C844 H834 0.930 . S
C844 C843 1.400 . S
C844 C847 1.386 . S
H845 C861 0.930 . S
H846 C862 0.931 . S
C847 H835 0.929 . S
C847 C841 1.390 . S
C847 C844 1.386 . S
C848 C843 1.490 . S
C848 C850 1.395 . S
C848 C851 1.403 . S
H849 C855 0.930 . S
C850 H836 0.930 . S
C850 C848 1.395 . S
C850 C853 1.403 . S
C851 C848 1.403 . S
C851 C852 1.524 . S
C851 C855 1.400 . S
C852 H837 0.960 . S
C852 H838 0.960 . S
C852 H839 0.960 . S
C852 C851 1.524 . S
C853 C850 1.403 . S
C853 C854 1.392 . S
C853 C857 1.495 . S
C854 C853 1.392 . S
C854 C855 1.385 . S
C854 C856 1.478 . S
C855 H849 0.930 . S
C855 C851 1.400 . S
C855 C854 1.385 . S
C856 C854 1.478 . S
C856 C858 1.381 . S
C856 C862 1.383 . S
C857 C853 1.495 . S
C857 H863 0.959 . S
C857 H864 0.961 . S
C857 H865 0.960 . S
C858 C856 1.381 . S
C858 C859 1.394 . S
C858 H866 0.930 . S
C859 C858 1.394 . S
C859 C860 1.383 . S
C859 H867 0.929 . S
C860 C859 1.383 . S
C860 C861 1.377 . S
C861 H845 0.930 . S
C861 C860 1.377 . S
C861 C862 1.379 . S
C862 H846 0.931 . S
C862 C856 1.383 . S
C862 C861 1.379 . S
H863 C857 0.959 . S
H864 C857 0.961 . S
H865 C857 0.960 . S
H866 C858 0.930 . S
H867 C859 0.929 . S
H868 C876 0.929 . S
H869 C878 0.930 . S
H870 C880 0.930 . S
H871 C883 0.929 . S
H872 C886 0.930 . S
H873 C888 0.960 . S
H874 C888 0.960 . S
H875 C888 0.960 . S
C876 H868 0.929 . S
C876 C877 1.377 . S
C876 C878 1.384 . S
C877 C876 1.377 . S
C877 C883 1.390 . S
C878 H869 0.930 . S
C878 C876 1.384 . S
C878 C879 1.372 . S
C879 C878 1.372 . S
C879 C880 1.400 . S
C879 C884 1.490 . S
C880 H870 0.930 . S
C880 C879 1.400 . S
C880 C883 1.386 . S
H881 C897 0.930 . S
H882 C898 0.931 . S
C883 H871 0.929 . S
C883 C877 1.390 . S
C883 C880 1.386 . S
C884 C879 1.490 . S
C884 C886 1.395 . S
C884 C887 1.403 . S
H885 C891 0.930 . S
C886 H872 0.930 . S
C886 C884 1.395 . S
C886 C889 1.403 . S
C887 C884 1.403 . S
C887 C888 1.524 . S
C887 C891 1.400 . S
C888 H873 0.960 . S
C888 H874 0.960 . S
C888 H875 0.960 . S
C888 C887 1.524 . S
C889 C886 1.403 . S
C889 C890 1.392 . S
C889 C893 1.495 . S
C890 C889 1.392 . S
C890 C891 1.385 . S
C890 C892 1.478 . S
C891 H885 0.930 . S
C891 C887 1.400 . S
C891 C890 1.385 . S
C892 C890 1.478 . S
C892 C894 1.381 . S
C892 C898 1.383 . S
C893 C889 1.495 . S
C893 H899 0.959 . S
C893 H900 0.961 . S
C893 H901 0.960 . S
C894 C892 1.381 . S
C894 C895 1.394 . S
C894 H902 0.930 . S
C895 C894 1.394 . S
C895 C896 1.383 . S
C895 H903 0.929 . S
C896 C895 1.383 . S
C896 C897 1.377 . S
C897 H881 0.930 . S
C897 C896 1.377 . S
C897 C898 1.379 . S
C898 H882 0.931 . S
C898 C892 1.383 . S
C898 C897 1.379 . S
H899 C893 0.959 . S
H900 C893 0.961 . S
H901 C893 0.960 . S
H902 C894 0.930 . S
H903 C895 0.929 . S
H904 C912 0.929 . S
H905 C914 0.930 . S
H906 C916 0.930 . S
H907 C919 0.929 . S
H908 C922 0.930 . S
H909 C924 0.960 . S
H910 C924 0.960 . S
H911 C924 0.960 . S
C912 H904 0.929 . S
C912 C913 1.377 . S
C912 C914 1.384 . S
C913 C912 1.377 . S
C913 C919 1.390 . S
C914 H905 0.930 . S
C914 C912 1.384 . S
C914 C915 1.372 . S
C915 C914 1.372 . S
C915 C916 1.400 . S
C915 C920 1.490 . S
C916 H906 0.930 . S
C916 C915 1.400 . S
C916 C919 1.386 . S
H917 C933 0.920 1_655 S
H918 C934 0.931 . S
C919 H907 0.929 . S
C919 C913 1.390 . S
C919 C916 1.386 . S
C920 C915 1.490 . S
C920 C922 1.395 1_655 S
C920 C923 1.403 . S
H921 C927 0.930 . S
C922 H908 0.930 . S
C922 C920 1.395 1_455 S
C922 C925 1.403 . S
C923 C920 1.403 . S
C923 C924 1.524 . S
C923 C927 1.400 . S
C924 H909 0.960 . S
C924 H910 0.960 . S
C924 H911 0.960 . S
C924 C923 1.524 . S
C925 C922 1.403 . S
C925 C926 1.392 1_455 S
C925 C929 1.495 . S
C926 C925 1.392 1_655 S
C926 C927 1.385 . S
C926 C928 1.478 1_655 S
C927 H921 0.930 . S
C927 C923 1.400 . S
C927 C926 1.385 . S
C928 C926 1.478 1_455 S
C928 C930 1.381 . S
C928 C934 1.383 1_455 S
C929 C925 1.495 . S
C929 H935 0.959 . S
C929 H936 0.961 . S
C929 H937 0.960 . S
C930 C928 1.381 . S
C930 C931 1.394 . S
C930 H938 0.930 . S
C931 C930 1.394 . S
C931 C932 1.383 . S
C931 H939 0.929 . S
C932 C931 1.383 . S
C932 C933 1.390 . S
C933 H917 0.920 1_455 S
C933 C932 1.390 . S
C933 C934 1.376 1_455 S
C934 H918 0.931 . S
C934 C928 1.383 1_655 S
C934 C933 1.376 1_655 S
H935 C929 0.959 . S
H936 C929 0.961 . S
H937 C929 0.960 . S
H938 C930 0.930 . S
H939 C931 0.929 . S
H940 C948 0.929 . S
H941 C950 0.930 . S
H942 C952 0.930 . S
H943 C955 0.929 . S
H944 C958 0.930 . S
H945 C960 0.960 . S
H946 C960 0.960 . S
H947 C960 0.960 . S
C948 H940 0.929 . S
C948 C949 1.377 . S
C948 C950 1.384 . S
C949 C948 1.377 . S
C949 C955 1.390 . S
C950 H941 0.930 . S
C950 C948 1.384 . S
C950 C951 1.372 . S
C951 C950 1.372 . S
C951 C952 1.400 . S
C951 C956 1.490 . S
C952 H942 0.930 . S
C952 C951 1.400 . S
C952 C955 1.386 . S
H953 C969 0.930 . S
H954 C970 0.931 . S
C955 H943 0.929 . S
C955 C949 1.390 . S
C955 C952 1.386 . S
C956 C951 1.490 . S
C956 C958 1.395 . S
C956 C959 1.403 . S
H957 C963 0.930 . S
C958 H944 0.930 . S
C958 C956 1.395 . S
C958 C961 1.403 . S
C959 C956 1.403 . S
C959 C960 1.524 . S
C959 C963 1.400 . S
C960 H945 0.960 . S
C960 H946 0.960 . S
C960 H947 0.960 . S
C960 C959 1.524 . S
C961 C958 1.403 . S
C961 C962 1.392 . S
C961 C965 1.495 . S
C962 C961 1.392 . S
C962 C963 1.385 . S
C962 C964 1.478 . S
C963 H957 0.930 . S
C963 C959 1.400 . S
C963 C962 1.385 . S
C964 C962 1.478 . S
C964 C966 1.381 . S
C964 C970 1.383 . S
C965 C961 1.495 . S
C965 H971 0.959 . S
C965 H972 0.961 . S
C965 H973 0.960 . S
C966 C964 1.381 . S
C966 C967 1.394 . S
C966 H974 0.930 . S
C967 C966 1.394 . S
C967 C968 1.383 . S
C967 H975 0.929 . S
C968 C967 1.383 . S
C968 C969 1.377 . S
C969 H953 0.930 . S
C969 C968 1.377 . S
C969 C970 1.379 . S
C970 H954 0.931 . S
C970 C964 1.383 . S
C970 C969 1.379 . S
H971 C965 0.959 . S
H972 C965 0.961 . S
H973 C965 0.960 . S
H974 C966 0.930 . S
H975 C967 0.929 . S
H976 C984 0.929 . S
H977 C986 0.930 . S
H978 C988 0.930 . S
H979 C991 0.929 . S
H980 C994 0.930 . S
H981 C996 0.960 . S
H982 C996 0.960 . S
H983 C996 0.960 . S
C984 H976 0.929 . S
C984 C985 1.377 . S
C984 C986 1.384 . S
C985 C984 1.377 . S
C985 C991 1.390 . S
C986 H977 0.930 . S
C986 C984 1.384 . S
C986 C987 1.372 . S
C987 C986 1.372 . S
C987 C988 1.400 . S
C987 C992 1.490 . S
C988 H978 0.930 . S
C988 C987 1.400 . S
C988 C991 1.386 . S
H989 C1005 0.930 . S
H990 C1006 0.931 . S
C991 H979 0.929 . S
C991 C985 1.390 . S
C991 C988 1.386 . S
C992 C987 1.490 . S
C992 C994 1.395 . S
C992 C995 1.403 . S
H993 C999 0.930 . S
C994 H980 0.930 . S
C994 C992 1.395 . S
C994 C997 1.403 . S
C995 C992 1.403 . S
C995 C996 1.524 . S
C995 C999 1.400 . S
C996 H981 0.960 . S
C996 H982 0.960 . S
C996 H983 0.960 . S
C996 C995 1.524 . S
C997 C994 1.403 . S
C997 C998 1.392 . S
C997 C1001 1.495 . S
C998 C997 1.392 . S
C998 C999 1.385 . S
C998 C1000 1.478 . S
C999 H993 0.930 . S
C999 C995 1.400 . S
C999 C998 1.385 . S
C1000 C998 1.478 . S
C1000 C1002 1.381 . S
C1000 C1006 1.383 . S
C1001 C997 1.495 . S
C1001 H1007 0.959 . S
C1001 H1008 0.961 . S
C1001 H1009 0.960 . S
C1002 C1000 1.381 . S
C1002 C1003 1.394 . S
C1002 H1010 0.930 . S
C1003 C1002 1.394 . S
C1003 C1004 1.383 . S
C1003 H1011 0.929 . S
C1004 C1003 1.383 . S
C1004 C1005 1.377 . S
C1005 H989 0.930 . S
C1005 C1004 1.377 . S
C1005 C1006 1.379 . S
C1006 H990 0.931 . S
C1006 C1000 1.383 . S
C1006 C1005 1.379 . S
H1007 C1001 0.959 . S
H1008 C1001 0.961 . S
H1009 C1001 0.960 . S
H1010 C1002 0.930 . S
H1011 C1003 0.929 . S
H1012 C1020 0.929 . S
H1013 C1022 0.909 1_554 S
H1014 C1024 0.930 . S
H1015 C1027 0.929 . S
H1016 C1030 0.930 . S
H1017 C1032 0.960 . S
H1018 C1032 0.960 . S
H1019 C1032 0.948 1_556 S
C1020 H1012 0.929 . S
C1020 C1021 1.377 . S
C1020 C1022 1.384 . S
C1021 C1020 1.377 . S
C1021 C1027 1.390 1_545 S
C1022 H1013 0.909 1_556 S
C1022 C1020 1.384 . S
C1022 C1023 1.372 1_545 S
C1023 C1022 1.372 1_565 S
C1023 C1024 1.400 . S
C1023 C1028 1.490 . S
C1024 H1014 0.930 . S
C1024 C1023 1.400 . S
C1024 C1027 1.386 . S
H1025 C1041 0.930 . S
H1026 C1042 0.931 . S
C1027 H1015 0.929 . S
C1027 C1021 1.390 1_565 S
C1027 C1024 1.386 . S
C1028 C1023 1.490 . S
C1028 C1030 1.395 . S
C1028 C1031 1.374 1_556 S
H1029 C1035 0.930 . S
C1030 H1016 0.930 . S
C1030 C1028 1.395 . S
C1030 C1033 1.403 . S
C1031 C1028 1.374 1_554 S
C1031 C1032 1.546 . S
C1031 C1035 1.409 . S
C1032 H1017 0.960 . S
C1032 H1018 0.960 . S
C1032 H1019 0.948 1_554 S
C1032 C1031 1.546 . S
C1033 C1030 1.403 . S
C1033 C1034 1.392 . S
C1033 C1037 1.495 . S
C1034 C1033 1.392 . S
C1034 C1035 1.385 1_556 S
C1034 C1036 1.479 . S
C1035 H1029 0.930 . S
C1035 C1031 1.409 . S
C1035 C1034 1.385 1_554 S
C1036 C1034 1.479 . S
C1036 C1038 1.377 1_556 S
C1036 C1042 1.385 . S
C1037 C1033 1.495 . S
C1037 H1043 0.959 . S
C1037 H1044 0.961 . S
C1037 H1045 0.960 . S
C1038 C1036 1.377 1_554 S
C1038 C1039 1.394 . S
C1038 H1046 0.930 . S
C1039 C1038 1.394 . S
C1039 C1040 1.383 . S
C1039 H1047 0.929 . S
C1040 C1039 1.383 . S
C1040 C1041 1.377 1_554 S
C1041 H1025 0.930 . S
C1041 C1040 1.377 1_556 S
C1041 C1042 1.379 . S
C1042 H1026 0.931 . S
C1042 C1036 1.385 . S
C1042 C1041 1.379 . S
H1043 C1037 0.959 . S
H1044 C1037 0.961 . S
H1045 C1037 0.960 . S
H1046 C1038 0.930 . S
H1047 C1039 0.929 . S
H1048 C1056 0.929 . S
H1049 C1058 0.930 . S
H1050 C1060 0.930 . S
H1051 C1063 0.929 . S
H1052 C1066 0.930 . S
H1053 C1068 0.960 . S
H1054 C1068 0.960 . S
H1055 C1068 0.960 . S
C1056 H1048 0.929 . S
C1056 C1057 1.377 . S
C1056 C1058 1.384 . S
C1057 C1056 1.377 . S
C1057 C1063 1.390 . S
C1058 H1049 0.930 . S
C1058 C1056 1.384 . S
C1058 C1059 1.372 . S
C1059 C1058 1.372 . S
C1059 C1060 1.400 . S
C1059 C1064 1.490 . S
C1060 H1050 0.930 . S
C1060 C1059 1.400 . S
C1060 C1063 1.386 . S
H1061 C1077 0.930 . S
H1062 C1078 0.931 . S
C1063 H1051 0.929 . S
C1063 C1057 1.390 . S
C1063 C1060 1.386 . S
C1064 C1059 1.490 . S
C1064 C1066 1.395 . S
C1064 C1067 1.403 . S
H1065 C1071 0.930 . S
C1066 H1052 0.930 . S
C1066 C1064 1.395 . S
C1066 C1069 1.403 . S
C1067 C1064 1.403 . S
C1067 C1068 1.524 . S
C1067 C1071 1.400 . S
C1068 H1053 0.960 . S
C1068 H1054 0.960 . S
C1068 H1055 0.960 . S
C1068 C1067 1.524 . S
C1069 C1066 1.403 . S
C1069 C1070 1.392 . S
C1069 C1073 1.495 . S
C1070 C1069 1.392 . S
C1070 C1071 1.385 . S
C1070 C1072 1.478 . S
C1071 H1065 0.930 . S
C1071 C1067 1.400 . S
C1071 C1070 1.385 . S
C1072 C1070 1.478 . S
C1072 C1074 1.381 . S
C1072 C1078 1.383 . S
C1073 C1069 1.495 . S
C1073 H1079 0.959 . S
C1073 H1080 0.961 . S
C1073 H1081 0.960 . S
C1074 C1072 1.381 . S
C1074 C1075 1.394 . S
C1074 H1082 0.930 . S
C1075 C1074 1.394 . S
C1075 C1076 1.383 . S
C1075 H1083 0.929 . S
C1076 C1075 1.383 . S
C1076 C1077 1.377 . S
C1077 H1061 0.930 . S
C1077 C1076 1.377 . S
C1077 C1078 1.379 . S
C1078 H1062 0.931 . S
C1078 C1072 1.383 . S
C1078 C1077 1.379 . S
H1079 C1073 0.959 . S
H1080 C1073 0.961 . S
H1081 C1073 0.960 . S
H1082 C1074 0.930 . S
H1083 C1075 0.929 . S
H1084 C1092 0.929 . S
H1085 C1094 0.930 . S
H1086 C1096 0.930 . S
H1087 C1099 0.910 1_565 S
H1088 C1102 0.930 . S
H1089 C1104 0.960 . S
H1090 C1104 0.960 1_565 S
H1091 C1104 0.960 . S
C1092 H1084 0.929 . S
C1092 C1093 1.373 1_545 S
C1092 C1094 1.384 . S
C1093 C1092 1.373 1_565 S
C1093 C1099 1.389 1_565 S
C1094 H1085 0.930 . S
C1094 C1092 1.384 . S
C1094 C1095 1.372 . S
C1095 C1094 1.372 . S
C1095 C1096 1.400 . S
C1095 C1100 1.490 . S
C1096 H1086 0.930 . S
C1096 C1095 1.400 . S
C1096 C1099 1.386 . S
H1097 C1113 0.930 . S
H1098 C1114 0.931 . S
C1099 H1087 0.910 1_545 S
C1099 C1093 1.389 1_545 S
C1099 C1096 1.386 . S
C1100 C1095 1.490 . S
C1100 C1102 1.395 . S
C1100 C1103 1.403 . S
H1101 C1107 0.930 . S
C1102 H1088 0.930 . S
C1102 C1100 1.395 . S
C1102 C1105 1.403 . S
C1103 C1100 1.403 . S
C1103 C1104 1.524 . S
C1103 C1107 1.400 . S
C1104 H1089 0.960 . S
C1104 H1090 0.960 1_545 S
C1104 H1091 0.960 . S
C1104 C1103 1.524 . S
C1105 C1102 1.403 . S
C1105 C1106 1.392 . S
C1105 C1109 1.495 . S
C1106 C1105 1.392 . S
C1106 C1107 1.385 . S
C1106 C1108 1.478 . S
C1107 H1101 0.930 . S
C1107 C1103 1.400 . S
C1107 C1106 1.385 . S
C1108 C1106 1.478 . S
C1108 C1110 1.381 . S
C1108 C1114 1.383 . S
C1109 C1105 1.495 . S
C1109 H1115 0.959 . S
C1109 H1116 0.961 . S
C1109 H1117 0.960 . S
C1110 C1108 1.381 . S
C1110 C1111 1.394 . S
C1110 H1118 0.930 . S
C1111 C1110 1.394 . S
C1111 C1112 1.383 . S
C1111 H1119 0.929 . S
C1112 C1111 1.383 . S
C1112 C1113 1.377 . S
C1113 H1097 0.930 . S
C1113 C1112 1.377 . S
C1113 C1114 1.379 . S
C1114 H1098 0.931 . S
C1114 C1108 1.383 . S
C1114 C1113 1.379 . S
H1115 C1109 0.959 . S
H1116 C1109 0.961 . S
H1117 C1109 0.960 . S
H1118 C1110 0.930 . S
H1119 C1111 0.929 . S
H1120 C1128 0.929 . S
H1121 C1130 0.930 . S
H1122 C1132 0.930 . S
H1123 C1135 0.929 . S
H1124 C1138 0.930 . S
H1125 C1140 0.960 . S
H1126 C1140 0.960 . S
H1127 C1140 0.960 . S
C1128 H1120 0.929 . S
C1128 C1129 1.377 . S
C1128 C1130 1.384 . S
C1129 C1128 1.377 . S
C1129 C1135 1.390 . S
C1130 H1121 0.930 . S
C1130 C1128 1.384 . S
C1130 C1131 1.372 . S
C1131 C1130 1.372 . S
C1131 C1132 1.400 . S
C1131 C1136 1.490 . S
C1132 H1122 0.930 . S
C1132 C1131 1.400 . S
C1132 C1135 1.386 . S
H1133 C1149 0.930 . S
H1134 C1150 0.931 . S
C1135 H1123 0.929 . S
C1135 C1129 1.390 . S
C1135 C1132 1.386 . S
C1136 C1131 1.490 . S
C1136 C1138 1.395 . S
C1136 C1139 1.403 . S
H1137 C1143 0.930 . S
C1138 H1124 0.930 . S
C1138 C1136 1.395 . S
C1138 C1141 1.403 . S
C1139 C1136 1.403 . S
C1139 C1140 1.524 . S
C1139 C1143 1.400 . S
C1140 H1125 0.960 . S
C1140 H1126 0.960 . S
C1140 H1127 0.960 . S
C1140 C1139 1.524 . S
C1141 C1138 1.403 . S
C1141 C1142 1.392 . S
C1141 C1145 1.495 . S
C1142 C1141 1.392 . S
C1142 C1143 1.385 . S
C1142 C1144 1.478 . S
C1143 H1137 0.930 . S
C1143 C1139 1.400 . S
C1143 C1142 1.385 . S
C1144 C1142 1.478 . S
C1144 C1146 1.381 . S
C1144 C1150 1.383 . S
C1145 C1141 1.495 . S
C1145 H1151 0.959 . S
C1145 H1152 0.961 . S
C1145 H1153 0.960 . S
C1146 C1144 1.381 . S
C1146 C1147 1.394 . S
C1146 H1154 0.930 . S
C1147 C1146 1.394 . S
C1147 C1148 1.383 . S
C1147 H1155 0.929 . S
C1148 C1147 1.383 . S
C1148 C1149 1.377 . S
C1149 H1133 0.930 . S
C1149 C1148 1.377 . S
C1149 C1150 1.379 . S
C1150 H1134 0.931 . S
C1150 C1144 1.383 . S
C1150 C1149 1.379 . S
H1151 C1145 0.959 . S
H1152 C1145 0.961 . S
H1153 C1145 0.960 . S
H1154 C1146 0.930 . S
H1155 C1147 0.929 . S
H1156 C1164 0.929 . S
H1157 C1166 0.930 . S
H1158 C1168 0.930 . S
H1159 C1171 0.929 . S
H1160 C1174 0.930 . S
H1161 C1176 0.960 . S
H1162 C1176 0.960 . S
H1163 C1176 0.960 1_565 S
C1164 H1156 0.929 . S
C1164 C1165 1.377 1_545 S
C1164 C1166 1.384 . S
C1165 C1164 1.377 1_565 S
C1165 C1171 1.390 . S
C1166 H1157 0.930 . S
C1166 C1164 1.384 . S
C1166 C1167 1.372 . S
C1167 C1166 1.372 . S
C1167 C1168 1.400 1_545 S
C1167 C1172 1.490 . S
C1168 H1158 0.930 . S
C1168 C1167 1.400 1_565 S
C1168 C1171 1.386 . S
H1169 C1185 0.930 . S
H1170 C1186 0.931 . S
C1171 H1159 0.929 . S
C1171 C1165 1.390 . S
C1171 C1168 1.386 . S
C1172 C1167 1.490 . S
C1172 C1174 1.395 . S
C1172 C1175 1.403 . S
H1173 C1179 0.930 . S
C1174 H1160 0.930 . S
C1174 C1172 1.395 . S
C1174 C1177 1.403 . S
C1175 C1172 1.403 . S
C1175 C1176 1.524 . S
C1175 C1179 1.400 . S
C1176 H1161 0.960 . S
C1176 H1162 0.960 . S
C1176 H1163 0.960 1_545 S
C1176 C1175 1.524 . S
C1177 C1174 1.403 . S
C1177 C1178 1.392 . S
C1177 C1181 1.495 . S
C1178 C1177 1.392 . S
C1178 C1179 1.385 . S
C1178 C1180 1.478 . S
C1179 H1173 0.930 . S
C1179 C1175 1.400 . S
C1179 C1178 1.385 . S
C1180 C1178 1.478 . S
C1180 C1182 1.381 . S
C1180 C1186 1.383 . S
C1181 C1177 1.495 . S
C1181 H1187 0.959 . S
C1181 H1188 0.961 . S
C1181 H1189 0.960 . S
C1182 C1180 1.381 . S
C1182 C1183 1.394 . S
C1182 H1190 0.930 . S
C1183 C1182 1.394 . S
C1183 C1184 1.383 . S
C1183 H1191 0.929 . S
C1184 C1183 1.383 . S
C1184 C1185 1.377 . S
C1185 H1169 0.930 . S
C1185 C1184 1.377 . S
C1185 C1186 1.379 . S
C1186 H1170 0.931 . S
C1186 C1180 1.383 . S
C1186 C1185 1.379 . S
H1187 C1181 0.959 . S
H1188 C1181 0.961 . S
H1189 C1181 0.960 . S
H1190 C1182 0.930 . S
H1191 C1183 0.929 . S
H1192 C1200 0.929 . S
H1193 C1202 0.930 . S
H1194 C1204 0.930 . S
H1195 C1207 0.929 . S
H1196 C1210 0.930 . S
H1197 C1212 0.960 . S
H1198 C1212 0.960 . S
H1199 C1212 0.960 . S
C1200 H1192 0.929 . S
C1200 C1201 1.377 . S
C1200 C1202 1.384 . S
C1201 C1200 1.377 . S
C1201 C1207 1.390 . S
C1202 H1193 0.930 . S
C1202 C1200 1.384 . S
C1202 C1203 1.372 . S
C1203 C1202 1.372 . S
C1203 C1204 1.400 . S
C1203 C1208 1.490 . S
C1204 H1194 0.930 . S
C1204 C1203 1.400 . S
C1204 C1207 1.386 . S
H1205 C1221 0.930 . S
H1206 C1222 0.931 . S
C1207 H1195 0.929 . S
C1207 C1201 1.390 . S
C1207 C1204 1.386 . S
C1208 C1203 1.490 . S
C1208 C1210 1.395 . S
C1208 C1211 1.403 . S
H1209 C1215 0.930 . S
C1210 H1196 0.930 . S
C1210 C1208 1.395 . S
C1210 C1213 1.403 . S
C1211 C1208 1.403 . S
C1211 C1212 1.524 . S
C1211 C1215 1.400 . S
C1212 H1197 0.960 . S
C1212 H1198 0.960 . S
C1212 H1199 0.960 . S
C1212 C1211 1.524 . S
C1213 C1210 1.403 . S
C1213 C1214 1.392 . S
C1213 C1217 1.495 . S
C1214 C1213 1.392 . S
C1214 C1215 1.385 . S
C1214 C1216 1.478 . S
C1215 H1209 0.930 . S
C1215 C1211 1.400 . S
C1215 C1214 1.385 . S
C1216 C1214 1.478 . S
C1216 C1218 1.381 . S
C1216 C1222 1.383 . S
C1217 C1213 1.495 . S
C1217 H1223 0.959 . S
C1217 H1224 0.961 . S
C1217 H1225 0.960 . S
C1218 C1216 1.381 . S
C1218 C1219 1.394 . S
C1218 H1226 0.930 . S
C1219 C1218 1.394 . S
C1219 C1220 1.383 . S
C1219 H1227 0.929 . S
C1220 C1219 1.383 . S
C1220 C1221 1.377 . S
C1221 H1205 0.930 . S
C1221 C1220 1.377 . S
C1221 C1222 1.379 . S
C1222 H1206 0.931 . S
C1222 C1216 1.383 . S
C1222 C1221 1.379 . S
H1223 C1217 0.959 . S
H1224 C1217 0.961 . S
H1225 C1217 0.960 . S
H1226 C1218 0.930 . S
H1227 C1219 0.929 . S
H1228 C1236 0.929 . S
H1229 C1238 0.930 . S
H1230 C1240 0.930 . S
H1231 C1243 0.929 . S
H1232 C1246 0.930 . S
H1233 C1248 0.960 . S
H1234 C1248 0.960 . S
H1235 C1248 0.960 . S
C1236 H1228 0.929 . S
C1236 C1237 1.377 . S
C1236 C1238 1.384 . S
C1237 C1236 1.377 . S
C1237 C1243 1.390 . S
C1238 H1229 0.930 . S
C1238 C1236 1.384 . S
C1238 C1239 1.372 . S
C1239 C1238 1.372 . S
C1239 C1240 1.400 . S
C1239 C1244 1.490 . S
C1240 H1230 0.930 . S
C1240 C1239 1.400 . S
C1240 C1243 1.386 . S
H1241 C1257 0.930 . S
H1242 C1258 0.931 . S
C1243 H1231 0.929 . S
C1243 C1237 1.390 . S
C1243 C1240 1.386 . S
C1244 C1239 1.490 . S
C1244 C1246 1.395 . S
C1244 C1247 1.403 . S
H1245 C1251 0.930 . S
C1246 H1232 0.930 . S
C1246 C1244 1.395 . S
C1246 C1249 1.403 . S
C1247 C1244 1.403 . S
C1247 C1248 1.524 . S
C1247 C1251 1.400 . S
C1248 H1233 0.960 . S
C1248 H1234 0.960 . S
C1248 H1235 0.960 . S
C1248 C1247 1.524 . S
C1249 C1246 1.403 . S
C1249 C1250 1.392 . S
C1249 C1253 1.495 . S
C1250 C1249 1.392 . S
C1250 C1251 1.385 . S
C1250 C1252 1.478 . S
C1251 H1245 0.930 . S
C1251 C1247 1.400 . S
C1251 C1250 1.385 . S
C1252 C1250 1.478 . S
C1252 C1254 1.381 . S
C1252 C1258 1.383 . S
C1253 C1249 1.495 . S
C1253 H1259 0.959 . S
C1253 H1260 0.961 . S
C1253 H1261 0.960 . S
C1254 C1252 1.381 . S
C1254 C1255 1.394 . S
C1254 H1262 0.930 . S
C1255 C1254 1.394 . S
C1255 C1256 1.383 . S
C1255 H1263 0.929 . S
C1256 C1255 1.383 . S
C1256 C1257 1.377 . S
C1257 H1241 0.930 . S
C1257 C1256 1.377 . S
C1257 C1258 1.379 . S
C1258 H1242 0.931 . S
C1258 C1252 1.383 . S
C1258 C1257 1.379 . S
H1259 C1253 0.959 . S
H1260 C1253 0.961 . S
H1261 C1253 0.960 . S
H1262 C1254 0.930 . S
H1263 C1255 0.929 . S
H1264 C1272 0.929 . S
H1265 C1274 0.930 . S
H1266 C1276 0.930 . S
H1267 C1279 0.929 . S
H1268 C1282 0.930 . S
H1269 C1284 0.960 . S
H1270 C1284 0.960 . S
H1271 C1284 0.967 . S
C1272 H1264 0.929 . S
C1272 C1273 1.377 . S
C1272 C1274 1.384 . S
C1273 C1272 1.377 . S
C1273 C1279 1.390 . S
C1274 H1265 0.930 . S
C1274 C1272 1.384 . S
C1274 C1275 1.372 . S
C1275 C1274 1.372 . S
C1275 C1276 1.400 . S
C1275 C1280 1.490 . S
C1276 H1266 0.930 . S
C1276 C1275 1.400 . S
C1276 C1279 1.386 . S
H1277 C1293 0.930 . S
H1278 C1294 0.931 . S
C1279 H1267 0.929 . S
C1279 C1273 1.390 . S
C1279 C1276 1.386 . S
C1280 C1275 1.490 . S
C1280 C1282 1.395 . S
C1280 C1283 1.403 . S
H1281 C1287 0.930 . S
C1282 H1268 0.930 . S
C1282 C1280 1.395 . S
C1282 C1285 1.403 . S
C1283 C1280 1.403 . S
C1283 C1284 1.524 1_545 S
C1283 C1287 1.400 . S
C1284 H1269 0.960 . S
C1284 H1270 0.960 . S
C1284 H1271 0.967 . S
C1284 C1283 1.524 1_565 S
C1285 C1282 1.403 . S
C1285 C1286 1.392 . S
C1285 C1289 1.495 . S
C1286 C1285 1.392 . S
C1286 C1287 1.385 . S
C1286 C1288 1.478 . S
C1287 H1281 0.930 . S
C1287 C1283 1.400 . S
C1287 C1286 1.385 . S
C1288 C1286 1.478 . S
C1288 C1290 1.381 . S
C1288 C1294 1.383 . S
C1289 C1285 1.495 . S
C1289 H1295 0.959 . S
C1289 H1296 0.961 . S
C1289 H1297 0.960 . S
C1290 C1288 1.381 . S
C1290 C1291 1.394 . S
C1290 H1298 0.930 . S
C1291 C1290 1.394 . S
C1291 C1292 1.383 . S
C1291 H1299 0.929 . S
C1292 C1291 1.383 . S
C1292 C1293 1.377 . S
C1293 H1277 0.930 . S
C1293 C1292 1.377 . S
C1293 C1294 1.379 . S
C1294 H1278 0.931 . S
C1294 C1288 1.383 . S
C1294 C1293 1.379 . S
H1295 C1289 0.959 . S
H1296 C1289 0.961 . S
H1297 C1289 0.960 . S
H1298 C1290 0.930 . S
H1299 C1291 0.929 . S
H1300 C1308 0.929 . S
H1301 C1310 0.930 . S
H1302 C1312 0.930 . S
H1303 C1315 0.929 . S
H1304 C1318 0.930 . S
H1305 C1320 0.960 . S
H1306 C1320 0.960 . S
H1307 C1320 0.960 . S
C1308 H1300 0.929 . S
C1308 C1309 1.377 . S
C1308 C1310 1.384 . S
C1309 C1308 1.377 . S
C1309 C1315 1.390 . S
C1310 H1301 0.930 . S
C1310 C1308 1.384 . S
C1310 C1311 1.372 . S
C1311 C1310 1.372 . S
C1311 C1312 1.400 . S
C1311 C1316 1.490 . S
C1312 H1302 0.930 . S
C1312 C1311 1.400 . S
C1312 C1315 1.386 . S
H1313 C1329 0.930 . S
H1314 C1330 0.931 . S
C1315 H1303 0.929 . S
C1315 C1309 1.390 . S
C1315 C1312 1.386 . S
C1316 C1311 1.490 . S
C1316 C1318 1.395 . S
C1316 C1319 1.403 . S
H1317 C1323 0.930 . S
C1318 H1304 0.930 . S
C1318 C1316 1.395 . S
C1318 C1321 1.403 . S
C1319 C1316 1.403 . S
C1319 C1320 1.524 . S
C1319 C1323 1.400 . S
C1320 H1305 0.960 . S
C1320 H1306 0.960 . S
C1320 H1307 0.960 . S
C1320 C1319 1.524 . S
C1321 C1318 1.403 . S
C1321 C1322 1.392 . S
C1321 C1325 1.495 . S
C1322 C1321 1.392 . S
C1322 C1323 1.385 . S
C1322 C1324 1.478 . S
C1323 H1317 0.930 . S
C1323 C1319 1.400 . S
C1323 C1322 1.385 . S
C1324 C1322 1.478 . S
C1324 C1326 1.381 . S
C1324 C1330 1.383 . S
C1325 C1321 1.495 . S
C1325 H1331 0.959 . S
C1325 H1332 0.961 . S
C1325 H1333 0.960 . S
C1326 C1324 1.381 . S
C1326 C1327 1.394 . S
C1326 H1334 0.930 . S
C1327 C1326 1.394 . S
C1327 C1328 1.383 . S
C1327 H1335 0.929 . S
C1328 C1327 1.383 . S
C1328 C1329 1.377 . S
C1329 H1313 0.930 . S
C1329 C1328 1.377 . S
C1329 C1330 1.379 . S
C1330 H1314 0.931 . S
C1330 C1324 1.383 . S
C1330 C1329 1.379 . S
H1331 C1325 0.959 . S
H1332 C1325 0.961 . S
H1333 C1325 0.960 . S
H1334 C1326 0.930 . S
H1335 C1327 0.929 . S
H1336 C1344 0.929 . S
H1337 C1346 0.930 . S
H1338 C1348 0.930 . S
H1339 C1351 0.929 . S
H1340 C1354 0.930 . S
H1341 C1356 0.960 . S
H1342 C1356 0.960 . S
H1343 C1356 0.960 . S
C1344 H1336 0.929 . S
C1344 C1345 1.377 . S
C1344 C1346 1.384 . S
C1345 C1344 1.377 . S
C1345 C1351 1.390 . S
C1346 H1337 0.930 . S
C1346 C1344 1.384 . S
C1346 C1347 1.372 . S
C1347 C1346 1.372 . S
C1347 C1348 1.400 . S
C1347 C1352 1.490 . S
C1348 H1338 0.930 . S
C1348 C1347 1.400 . S
C1348 C1351 1.386 . S
H1349 C1365 0.930 . S
H1350 C1366 0.931 . S
C1351 H1339 0.929 . S
C1351 C1345 1.390 . S
C1351 C1348 1.386 . S
C1352 C1347 1.490 . S
C1352 C1354 1.395 . S
C1352 C1355 1.403 . S
H1353 C1359 0.930 . S
C1354 H1340 0.930 . S
C1354 C1352 1.395 . S
C1354 C1357 1.403 . S
C1355 C1352 1.403 . S
C1355 C1356 1.524 . S
C1355 C1359 1.400 . S
C1356 H1341 0.960 . S
C1356 H1342 0.960 . S
C1356 H1343 0.960 . S
C1356 C1355 1.524 . S
C1357 C1354 1.403 . S
C1357 C1358 1.392 . S
C1357 C1361 1.495 . S
C1358 C1357 1.392 . S
C1358 C1359 1.385 . S
C1358 C1360 1.478 . S
C1359 H1353 0.930 . S
C1359 C1355 1.400 . S
C1359 C1358 1.385 . S
C1360 C1358 1.478 . S
C1360 C1362 1.381 . S
C1360 C1366 1.383 . S
C1361 C1357 1.495 . S
C1361 H1367 0.959 . S
C1361 H1368 0.961 . S
C1361 H1369 0.960 . S
C1362 C1360 1.381 . S
C1362 C1363 1.394 . S
C1362 H1370 0.930 . S
C1363 C1362 1.394 . S
C1363 C1364 1.383 . S
C1363 H1371 0.929 . S
C1364 C1363 1.383 . S
C1364 C1365 1.377 . S
C1365 H1349 0.930 . S
C1365 C1364 1.377 . S
C1365 C1366 1.379 . S
C1366 H1350 0.931 . S
C1366 C1360 1.383 . S
C1366 C1365 1.379 . S
H1367 C1361 0.959 . S
H1368 C1361 0.961 . S
H1369 C1361 0.960 . S
H1370 C1362 0.930 . S
H1371 C1363 0.929 . S
H1372 C1380 0.929 . S
H1373 C1382 0.930 . S
H1374 C1384 0.930 . S
H1375 C1387 0.929 . S
H1376 C1390 0.930 . S
H1377 C1392 0.960 . S
H1378 C1392 0.960 . S
H1379 C1392 0.960 . S
C1380 H1372 0.929 . S
C1380 C1381 1.377 . S
C1380 C1382 1.384 . S
C1381 C1380 1.377 . S
C1381 C1387 1.390 . S
C1382 H1373 0.930 . S
C1382 C1380 1.384 . S
C1382 C1383 1.372 . S
C1383 C1382 1.372 . S
C1383 C1384 1.400 . S
C1383 C1388 1.490 . S
C1384 H1374 0.930 . S
C1384 C1383 1.400 . S
C1384 C1387 1.386 . S
H1385 C1401 0.930 . S
H1386 C1402 0.931 . S
C1387 H1375 0.929 . S
C1387 C1381 1.390 . S
C1387 C1384 1.386 . S
C1388 C1383 1.490 . S
C1388 C1390 1.395 . S
C1388 C1391 1.403 . S
H1389 C1395 0.930 . S
C1390 H1376 0.930 . S
C1390 C1388 1.395 . S
C1390 C1393 1.403 . S
C1391 C1388 1.403 . S
C1391 C1392 1.524 . S
C1391 C1395 1.400 . S
C1392 H1377 0.960 . S
C1392 H1378 0.960 . S
C1392 H1379 0.960 . S
C1392 C1391 1.524 . S
C1393 C1390 1.403 . S
C1393 C1394 1.392 . S
C1393 C1397 1.495 . S
C1394 C1393 1.392 . S
C1394 C1395 1.385 . S
C1394 C1396 1.478 . S
C1395 H1389 0.930 . S
C1395 C1391 1.400 . S
C1395 C1394 1.385 . S
C1396 C1394 1.478 . S
C1396 C1398 1.381 . S
C1396 C1402 1.383 . S
C1397 C1393 1.495 . S
C1397 H1403 0.959 . S
C1397 H1404 0.961 . S
C1397 H1405 0.960 . S
C1398 C1396 1.381 . S
C1398 C1399 1.394 . S
C1398 H1406 0.930 . S
C1399 C1398 1.394 . S
C1399 C1400 1.383 . S
C1399 H1407 0.929 . S
C1400 C1399 1.383 . S
C1400 C1401 1.377 . S
C1401 H1385 0.930 . S
C1401 C1400 1.377 . S
C1401 C1402 1.379 . S
C1402 H1386 0.931 . S
C1402 C1396 1.383 . S
C1402 C1401 1.379 . S
H1403 C1397 0.959 . S
H1404 C1397 0.961 . S
H1405 C1397 0.960 . S
H1406 C1398 0.930 . S
H1407 C1399 0.929 . S
H1408 C1416 0.929 . S
H1409 C1418 0.930 . S
H1410 C1420 0.930 . S
H1411 C1423 0.929 1_455 S
H1412 C1426 0.930 . S
H1413 C1428 0.960 . S
H1414 C1428 0.960 . S
H1415 C1428 0.960 . S
C1416 H1408 0.929 . S
C1416 C1417 1.377 . S
C1416 C1418 1.384 . S
C1417 C1416 1.377 . S
C1417 C1423 1.390 1_545 S
C1418 H1409 0.930 . S
C1418 C1416 1.384 . S
C1418 C1419 1.372 . S
C1419 C1418 1.372 . S
C1419 C1420 1.400 1_545 S
C1419 C1424 1.490 . S
C1420 H1410 0.930 . S
C1420 C1419 1.400 1_565 S
C1420 C1423 1.386 . S
H1421 C1437 0.930 . S
H1422 C1438 0.931 . S
C1423 H1411 0.929 1_655 S
C1423 C1417 1.390 1_565 S
C1423 C1420 1.386 . S
C1424 C1419 1.490 . S
C1424 C1426 1.395 . S
C1424 C1427 1.403 . S
H1425 C1431 0.930 . S
C1426 H1412 0.930 . S
C1426 C1424 1.395 . S
C1426 C1429 1.403 . S
C1427 C1424 1.403 . S
C1427 C1428 1.524 . S
C1427 C1431 1.400 . S
C1428 H1413 0.960 . S
C1428 H1414 0.960 . S
C1428 H1415 0.960 . S
C1428 C1427 1.524 . S
C1429 C1426 1.403 . S
C1429 C1430 1.392 . S
C1429 C1433 1.495 . S
C1430 C1429 1.392 . S
C1430 C1431 1.385 . S
C1430 C1432 1.478 . S
C1431 H1425 0.930 . S
C1431 C1427 1.400 . S
C1431 C1430 1.385 . S
C1432 C1430 1.478 . S
C1432 C1434 1.381 . S
C1432 C1438 1.383 1_545 S
C1433 C1429 1.495 . S
C1433 H1439 0.959 . S
C1433 H1440 0.961 1_545 S
C1433 H1441 0.960 . S
C1434 C1432 1.381 . S
C1434 C1435 1.394 . S
C1434 H1442 0.930 . S
C1435 C1434 1.394 . S
C1435 C1436 1.383 . S
C1435 H1443 0.929 . S
C1436 C1435 1.383 . S
C1436 C1437 1.377 1_545 S
C1437 H1421 0.930 . S
C1437 C1436 1.377 1_565 S
C1437 C1438 1.379 . S
C1438 H1422 0.931 . S
C1438 C1432 1.383 1_565 S
C1438 C1437 1.379 . S
H1439 C1433 0.959 . S
H1440 C1433 0.961 1_565 S
H1441 C1433 0.960 . S
H1442 C1434 0.930 . S
H1443 C1435 0.929 . S
H1444 C1452 0.929 . S
H1445 C1454 0.930 . S
H1446 C1456 0.930 . S
H1447 C1459 0.929 . S
H1448 C1462 0.930 . S
H1449 C1464 0.960 . S
H1450 C1464 0.960 . S
H1451 C1464 0.960 . S
C1452 H1444 0.929 . S
C1452 C1453 1.377 . S
C1452 C1454 1.384 . S
C1453 C1452 1.377 . S
C1453 C1459 1.390 . S
C1454 H1445 0.930 . S
C1454 C1452 1.384 . S
C1454 C1455 1.372 . S
C1455 C1454 1.372 . S
C1455 C1456 1.400 . S
C1455 C1460 1.490 . S
C1456 H1446 0.930 . S
C1456 C1455 1.400 . S
C1456 C1459 1.386 . S
H1457 C1473 0.930 . S
H1458 C1474 0.931 . S
C1459 H1447 0.929 . S
C1459 C1453 1.390 . S
C1459 C1456 1.386 . S
C1460 C1455 1.490 . S
C1460 C1462 1.395 . S
C1460 C1463 1.403 . S
H1461 C1467 0.930 . S
C1462 H1448 0.930 . S
C1462 C1460 1.395 . S
C1462 C1465 1.403 . S
C1463 C1460 1.403 . S
C1463 C1464 1.524 . S
C1463 C1467 1.400 . S
C1464 H1449 0.960 . S
C1464 H1450 0.960 . S
C1464 H1451 0.960 . S
C1464 C1463 1.524 . S
C1465 C1462 1.403 . S
C1465 C1466 1.392 . S
C1465 C1469 1.495 . S
C1466 C1465 1.392 . S
C1466 C1467 1.385 . S
C1466 C1468 1.478 . S
C1467 H1461 0.930 . S
C1467 C1463 1.400 . S
C1467 C1466 1.385 . S
C1468 C1466 1.478 . S
C1468 C1470 1.381 . S
C1468 C1474 1.383 . S
C1469 C1465 1.495 . S
C1469 H1475 0.959 . S
C1469 H1476 0.961 . S
C1469 H1477 0.960 . S
C1470 C1468 1.381 . S
C1470 C1471 1.394 . S
C1470 H1478 0.930 . S
C1471 C1470 1.394 . S
C1471 C1472 1.383 . S
C1471 H1479 0.929 . S
C1472 C1471 1.383 . S
C1472 C1473 1.377 . S
C1473 H1457 0.930 . S
C1473 C1472 1.377 . S
C1473 C1474 1.379 . S
C1474 H1458 0.931 . S
C1474 C1468 1.383 . S
C1474 C1473 1.379 . S
H1475 C1469 0.959 . S
H1476 C1469 0.961 . S
H1477 C1469 0.960 . S
H1478 C1470 0.930 . S
H1479 C1471 0.929 . S
H1480 C1488 0.929 1_655 S
H1481 C1490 0.930 . S
H1482 C1492 0.930 . S
H1483 C1495 0.929 1_655 S
H1484 C1498 0.930 . S
H1485 C1500 0.960 . S
H1486 C1500 0.945 1_655 S
H1487 C1500 0.960 . S
C1488 H1480 0.929 1_455 S
C1488 C1489 1.377 1_455 S
C1488 C1490 1.384 . S
C1489 C1488 1.377 1_655 S
C1489 C1495 1.390 1_655 S
C1490 H1481 0.930 . S
C1490 C1488 1.384 . S
C1490 C1491 1.372 . S
C1491 C1490 1.372 . S
C1491 C1492 1.400 . S
C1491 C1496 1.490 . S
C1492 H1482 0.930 . S
C1492 C1491 1.400 . S
C1492 C1495 1.386 . S
H1493 C1509 0.930 . S
H1494 C1510 0.931 . S
C1495 H1483 0.929 1_455 S
C1495 C1489 1.390 1_455 S
C1495 C1492 1.386 . S
C1496 C1491 1.490 . S
C1496 C1498 1.395 . S
C1496 C1499 1.403 . S
H1497 C1503 0.930 . S
C1498 H1484 0.930 . S
C1498 C1496 1.395 . S
C1498 C1501 1.403 . S
C1499 C1496 1.403 . S
C1499 C1500 1.524 . S
C1499 C1503 1.400 . S
C1500 H1485 0.960 . S
C1500 H1486 0.945 1_455 S
C1500 H1487 0.960 . S
C1500 C1499 1.524 . S
C1501 C1498 1.403 . S
C1501 C1502 1.392 . S
C1501 C1505 1.495 . S
C1502 C1501 1.392 . S
C1502 C1503 1.385 . S
C1502 C1504 1.478 . S
C1503 H1497 0.930 . S
C1503 C1499 1.400 . S
C1503 C1502 1.385 . S
C1504 C1502 1.478 . S
C1504 C1506 1.381 . S
C1504 C1510 1.383 . S
C1505 C1501 1.495 . S
C1505 H1511 0.959 . S
C1505 H1512 0.961 . S
C1505 H1513 0.960 . S
C1506 C1504 1.381 . S
C1506 C1507 1.394 . S
C1506 H1514 0.930 . S
C1507 C1506 1.394 . S
C1507 C1508 1.383 . S
C1507 H1515 0.929 . S
C1508 C1507 1.383 . S
C1508 C1509 1.377 . S
C1509 H1493 0.930 . S
C1509 C1508 1.377 . S
C1509 C1510 1.379 . S
C1510 H1494 0.931 . S
C1510 C1504 1.383 . S
C1510 C1509 1.379 . S
H1511 C1505 0.959 . S
H1512 C1505 0.961 . S
H1513 C1505 0.960 . S
H1514 C1506 0.930 . S
H1515 C1507 0.929 . S
H1516 C1524 0.929 . S
H1517 C1526 0.930 . S
H1518 C1528 0.930 . S
H1519 C1531 0.929 . S
H1520 C1534 0.930 . S
H1521 C1536 0.960 . S
H1522 C1536 0.960 . S
H1523 C1536 0.960 . S
C1524 H1516 0.929 . S
C1524 C1525 1.377 . S
C1524 C1526 1.384 . S
C1525 C1524 1.377 . S
C1525 C1531 1.390 . S
C1526 H1517 0.930 . S
C1526 C1524 1.384 . S
C1526 C1527 1.372 . S
C1527 C1526 1.372 . S
C1527 C1528 1.400 . S
C1527 C1532 1.490 . S
C1528 H1518 0.930 . S
C1528 C1527 1.400 . S
C1528 C1531 1.386 . S
H1529 C1545 0.930 . S
H1530 C1546 0.931 . S
C1531 H1519 0.929 . S
C1531 C1525 1.390 . S
C1531 C1528 1.386 . S
C1532 C1527 1.490 . S
C1532 C1534 1.395 . S
C1532 C1535 1.403 . S
H1533 C1539 0.930 . S
C1534 H1520 0.930 . S
C1534 C1532 1.395 . S
C1534 C1537 1.403 . S
C1535 C1532 1.403 . S
C1535 C1536 1.524 . S
C1535 C1539 1.400 . S
C1536 H1521 0.960 . S
C1536 H1522 0.960 . S
C1536 H1523 0.960 . S
C1536 C1535 1.524 . S
C1537 C1534 1.403 . S
C1537 C1538 1.392 . S
C1537 C1541 1.495 . S
C1538 C1537 1.392 . S
C1538 C1539 1.385 . S
C1538 C1540 1.478 . S
C1539 H1533 0.930 . S
C1539 C1535 1.400 . S
C1539 C1538 1.385 . S
C1540 C1538 1.478 . S
C1540 C1542 1.381 . S
C1540 C1546 1.383 . S
C1541 C1537 1.495 . S
C1541 H1547 0.959 . S
C1541 H1548 0.961 . S
C1541 H1549 0.960 . S
C1542 C1540 1.381 . S
C1542 C1543 1.394 . S
C1542 H1550 0.930 . S
C1543 C1542 1.394 . S
C1543 C1544 1.383 . S
C1543 H1551 0.929 . S
C1544 C1543 1.383 . S
C1544 C1545 1.377 . S
C1545 H1529 0.930 . S
C1545 C1544 1.377 . S
C1545 C1546 1.379 . S
C1546 H1530 0.931 . S
C1546 C1540 1.383 . S
C1546 C1545 1.379 . S
H1547 C1541 0.959 . S
H1548 C1541 0.961 . S
H1549 C1541 0.960 . S
H1550 C1542 0.930 . S
H1551 C1543 0.929 . S
H1552 C1560 0.929 1_455 S
H1553 C1562 0.899 1_455 S
H1554 C1564 0.930 . S
H1555 C1567 0.929 . S
H1556 C1570 0.945 . S
H1557 C1572 0.960 . S
H1558 C1572 0.960 . S
H1559 C1572 0.960 . S
C1560 H1552 0.929 1_655 S
C1560 C1561 1.377 . S
C1560 C1562 1.391 . S
C1561 C1560 1.377 . S
C1561 C1567 1.390 . S
C1562 H1553 0.899 1_655 S
C1562 C1560 1.391 . S
C1562 C1563 1.396 . S
C1563 C1562 1.396 . S
C1563 C1564 1.400 . S
C1563 C1568 1.490 1_554 S
C1564 H1554 0.930 . S
C1564 C1563 1.400 . S
C1564 C1567 1.386 . S
H1565 C1581 0.930 . S
H1566 C1582 0.931 . S
C1567 H1555 0.929 . S
C1567 C1561 1.390 . S
C1567 C1564 1.386 . S
C1568 C1563 1.490 1_556 S
C1568 C1570 1.395 1_556 S
C1568 C1571 1.403 . S
H1569 C1575 0.930 . S
C1570 H1556 0.945 . S
C1570 C1568 1.395 1_554 S
C1570 C1573 1.403 1_554 S
C1571 C1568 1.403 . S
C1571 C1572 1.524 . S
C1571 C1575 1.400 . S
C1572 H1557 0.960 . S
C1572 H1558 0.960 . S
C1572 H1559 0.960 . S
C1572 C1571 1.524 . S
C1573 C1570 1.403 1_556 S
C1573 C1574 1.392 . S
C1573 C1577 1.495 1_656 S
C1574 C1573 1.392 . S
C1574 C1575 1.385 . S
C1574 C1576 1.478 . S
C1575 H1569 0.930 . S
C1575 C1571 1.400 . S
C1575 C1574 1.385 . S
C1576 C1574 1.478 . S
C1576 C1578 1.381 1_655 S
C1576 C1582 1.383 . S
C1577 C1573 1.495 1_454 S
C1577 H1583 0.959 . S
C1577 H1584 0.961 1_455 S
C1577 H1585 0.960 . S
C1578 C1576 1.381 1_455 S
C1578 C1579 1.394 . S
C1578 H1586 0.930 . S
C1579 C1578 1.394 . S
C1579 C1580 1.383 1_455 S
C1579 H1587 0.929 . S
C1580 C1579 1.383 1_655 S
C1580 C1581 1.377 . S
C1581 H1565 0.930 . S
C1581 C1580 1.377 . S
C1581 C1582 1.379 . S
C1582 H1566 0.931 . S
C1582 C1576 1.383 . S
C1582 C1581 1.379 . S
H1583 C1577 0.959 . S
H1584 C1577 0.961 1_655 S
H1585 C1577 0.960 . S
H1586 C1578 0.930 . S
H1587 C1579 0.929 . S
H1588 C1596 0.929 . S
H1589 C1598 0.930 . S
H1590 C1600 0.930 . S
H1591 C1603 0.929 . S
H1592 C1606 0.930 . S
H1593 C1608 0.960 . S
H1594 C1608 0.960 . S
H1595 C1608 0.960 . S
C1596 H1588 0.929 . S
C1596 C1597 1.377 . S
C1596 C1598 1.384 . S
C1597 C1596 1.377 . S
C1597 C1603 1.390 . S
C1598 H1589 0.930 . S
C1598 C1596 1.384 . S
C1598 C1599 1.372 . S
C1599 C1598 1.372 . S
C1599 C1600 1.400 . S
C1599 C1604 1.490 . S
C1600 H1590 0.930 . S
C1600 C1599 1.400 . S
C1600 C1603 1.386 . S
H1601 C1617 0.930 . S
H1602 C1618 0.931 . S
C1603 H1591 0.929 . S
C1603 C1597 1.390 . S
C1603 C1600 1.386 . S
C1604 C1599 1.490 . S
C1604 C1606 1.395 . S
C1604 C1607 1.403 . S
H1605 C1611 0.930 . S
C1606 H1592 0.930 . S
C1606 C1604 1.395 . S
C1606 C1609 1.403 . S
C1607 C1604 1.403 . S
C1607 C1608 1.524 . S
C1607 C1611 1.400 . S
C1608 H1593 0.960 . S
C1608 H1594 0.960 . S
C1608 H1595 0.960 . S
C1608 C1607 1.524 . S
C1609 C1606 1.403 . S
C1609 C1610 1.392 . S
C1609 C1613 1.495 . S
C1610 C1609 1.392 . S
C1610 C1611 1.385 . S
C1610 C1612 1.478 . S
C1611 H1605 0.930 . S
C1611 C1607 1.400 . S
C1611 C1610 1.385 . S
C1612 C1610 1.478 . S
C1612 C1614 1.381 . S
C1612 C1618 1.383 . S
C1613 C1609 1.495 . S
C1613 H1619 0.959 . S
C1613 H1620 0.961 . S
C1613 H1621 0.960 . S
C1614 C1612 1.381 . S
C1614 C1615 1.394 . S
C1614 H1622 0.930 . S
C1615 C1614 1.394 . S
C1615 C1616 1.383 . S
C1615 H1623 0.929 . S
C1616 C1615 1.383 . S
C1616 C1617 1.377 . S
C1617 H1601 0.930 . S
C1617 C1616 1.377 . S
C1617 C1618 1.379 . S
C1618 H1602 0.931 . S
C1618 C1612 1.383 . S
C1618 C1617 1.379 . S
H1619 C1613 0.959 . S
H1620 C1613 0.961 . S
H1621 C1613 0.960 . S
H1622 C1614 0.930 . S
H1623 C1615 0.929 . S
H1624 C1632 0.929 1_655 S
H1625 C1634 0.930 . S
H1626 C1636 0.930 . S
H1627 C1639 0.929 . S
H1628 C1642 0.930 . S
H1629 C1644 0.960 . S
H1630 C1644 0.960 . S
H1631 C1644 0.960 . S
C1632 H1624 0.929 1_455 S
C1632 C1633 1.377 . S
C1632 C1634 1.384 1_455 S
C1633 C1632 1.377 . S
C1633 C1639 1.390 . S
C1634 H1625 0.930 . S
C1634 C1632 1.384 1_655 S
C1634 C1635 1.372 1_655 S
C1635 C1634 1.372 1_455 S
C1635 C1636 1.400 . S
C1635 C1640 1.523 . S
C1636 H1626 0.930 . S
C1636 C1635 1.400 . S
C1636 C1639 1.386 . S
H1637 C1653 0.930 . S
H1638 C1654 0.931 . S
C1639 H1627 0.929 . S
C1639 C1633 1.390 . S
C1639 C1636 1.386 . S
C1640 C1635 1.523 . S
C1640 C1642 1.405 1_455 S
C1640 C1643 1.361 1_554 S
H1641 C1647 0.930 . S
C1642 H1628 0.930 . S
C1642 C1640 1.405 1_655 S
C1642 C1645 1.403 1_554 S
C1643 C1640 1.361 1_556 S
C1643 C1644 1.524 . S
C1643 C1647 1.400 . S
C1644 H1629 0.960 . S
C1644 H1630 0.960 . S
C1644 H1631 0.960 . S
C1644 C1643 1.524 . S
C1645 C1642 1.403 1_556 S
C1645 C1646 1.392 1_655 S
C1645 C1649 1.495 1_556 S
C1646 C1645 1.392 1_455 S
C1646 C1647 1.385 . S
C1646 C1648 1.478 . S
C1647 H1641 0.930 . S
C1647 C1643 1.400 . S
C1647 C1646 1.385 . S
C1648 C1646 1.478 . S
C1648 C1650 1.381 1_455 S
C1648 C1654 1.383 . S
C1649 C1645 1.495 1_554 S
C1649 H1655 0.959 . S
C1649 H1656 0.961 . S
C1649 H1657 0.960 1_554 S
C1650 C1648 1.381 1_655 S
C1650 C1651 1.394 . S
C1650 H1658 0.930 . S
C1651 C1650 1.394 . S
C1651 C1652 1.383 1_655 S
C1651 H1659 0.929 . S
C1652 C1651 1.383 1_455 S
C1652 C1653 1.377 . S
C1653 H1637 0.930 . S
C1653 C1652 1.377 . S
C1653 C1654 1.379 . S
C1654 H1638 0.931 . S
C1654 C1648 1.383 . S
C1654 C1653 1.379 . S
H1655 C1649 0.959 . S
H1656 C1649 0.961 . S
H1657 C1649 0.960 1_556 S
H1658 C1650 0.930 . S
H1659 C1651 0.929 . S
H1660 C1668 0.929 . S
H1661 C1670 0.930 . S
H1662 C1672 0.930 . S
H1663 C1675 0.929 . S
H1664 C1678 0.930 . S
H1665 C1680 0.960 . S
H1666 C1680 0.960 . S
H1667 C1680 0.960 . S
C1668 H1660 0.929 . S
C1668 C1669 1.377 . S
C1668 C1670 1.384 . S
C1669 C1668 1.377 . S
C1669 C1675 1.390 . S
C1670 H1661 0.930 . S
C1670 C1668 1.384 . S
C1670 C1671 1.372 . S
C1671 C1670 1.372 . S
C1671 C1672 1.400 . S
C1671 C1676 1.490 . S
C1672 H1662 0.930 . S
C1672 C1671 1.400 . S
C1672 C1675 1.386 . S
H1673 C1689 0.930 . S
H1674 C1690 0.931 . S
C1675 H1663 0.929 . S
C1675 C1669 1.390 . S
C1675 C1672 1.386 . S
C1676 C1671 1.490 . S
C1676 C1678 1.395 . S
C1676 C1679 1.403 . S
H1677 C1683 0.930 . S
C1678 H1664 0.930 . S
C1678 C1676 1.395 . S
C1678 C1681 1.403 . S
C1679 C1676 1.403 . S
C1679 C1680 1.524 . S
C1679 C1683 1.400 . S
C1680 H1665 0.960 . S
C1680 H1666 0.960 . S
C1680 H1667 0.960 . S
C1680 C1679 1.524 . S
C1681 C1678 1.403 . S
C1681 C1682 1.392 . S
C1681 C1685 1.495 . S
C1682 C1681 1.392 . S
C1682 C1683 1.385 . S
C1682 C1684 1.478 . S
C1683 H1677 0.930 . S
C1683 C1679 1.400 . S
C1683 C1682 1.385 . S
C1684 C1682 1.478 . S
C1684 C1686 1.381 . S
C1684 C1690 1.383 . S
C1685 C1681 1.495 . S
C1685 H1691 0.959 . S
C1685 H1692 0.961 . S
C1685 H1693 0.960 . S
C1686 C1684 1.381 . S
C1686 C1687 1.394 . S
C1686 H1694 0.930 . S
C1687 C1686 1.394 . S
C1687 C1688 1.383 . S
C1687 H1695 0.929 . S
C1688 C1687 1.383 . S
C1688 C1689 1.377 . S
C1689 H1673 0.930 . S
C1689 C1688 1.377 . S
C1689 C1690 1.379 . S
C1690 H1674 0.931 . S
C1690 C1684 1.383 . S
C1690 C1689 1.379 . S
H1691 C1685 0.959 . S
H1692 C1685 0.961 . S
H1693 C1685 0.960 . S
H1694 C1686 0.930 . S
H1695 C1687 0.929 . S
H1696 C1704 0.929 . S
H1697 C1706 0.930 . S
H1698 C1708 0.930 . S
H1699 C1711 0.929 . S
H1700 C1714 0.930 . S
H1701 C1716 0.960 . S
H1702 C1716 0.960 . S
H1703 C1716 0.960 . S
C1704 H1696 0.929 . S
C1704 C1705 1.377 1_554 S
C1704 C1706 1.384 . S
C1705 C1704 1.377 1_556 S
C1705 C1711 1.390 . S
C1706 H1697 0.930 . S
C1706 C1704 1.384 . S
C1706 C1707 1.372 . S
C1707 C1706 1.372 . S
C1707 C1708 1.400 1_554 S
C1707 C1712 1.490 . S
C1708 H1698 0.930 . S
C1708 C1707 1.400 1_556 S
C1708 C1711 1.386 . S
H1709 C1725 0.930 . S
H1710 C1726 0.931 . S
C1711 H1699 0.929 . S
C1711 C1705 1.390 . S
C1711 C1708 1.386 . S
C1712 C1707 1.490 . S
C1712 C1714 1.395 . S
C1712 C1715 1.403 . S
H1713 C1719 0.930 . S
C1714 H1700 0.930 . S
C1714 C1712 1.395 . S
C1714 C1717 1.403 . S
C1715 C1712 1.403 . S
C1715 C1716 1.524 . S
C1715 C1719 1.400 . S
C1716 H1701 0.960 . S
C1716 H1702 0.960 . S
C1716 H1703 0.960 . S
C1716 C1715 1.524 . S
C1717 C1714 1.403 . S
C1717 C1718 1.392 . S
C1717 C1721 1.495 . S
C1718 C1717 1.392 . S
C1718 C1719 1.385 . S
C1718 C1720 1.478 . S
C1719 H1713 0.930 . S
C1719 C1715 1.400 . S
C1719 C1718 1.385 . S
C1720 C1718 1.478 . S
C1720 C1722 1.381 . S
C1720 C1726 1.383 . S
C1721 C1717 1.495 . S
C1721 H1727 0.959 . S
C1721 H1728 0.961 . S
C1721 H1729 0.960 . S
C1722 C1720 1.381 . S
C1722 C1723 1.394 . S
C1722 H1730 0.930 . S
C1723 C1722 1.394 . S
C1723 C1724 1.383 . S
C1723 H1731 0.929 . S
C1724 C1723 1.383 . S
C1724 C1725 1.377 . S
C1725 H1709 0.930 . S
C1725 C1724 1.377 . S
C1725 C1726 1.379 . S
C1726 H1710 0.931 . S
C1726 C1720 1.383 . S
C1726 C1725 1.379 . S
H1727 C1721 0.959 . S
H1728 C1721 0.961 . S
H1729 C1721 0.960 . S
H1730 C1722 0.930 . S
H1731 C1723 0.929 . S
H1732 C1740 0.929 . S
H1733 C1742 0.930 . S
H1734 C1744 0.930 . S
H1735 C1747 0.929 . S
H1736 C1750 0.930 . S
H1737 C1752 0.960 . S
H1738 C1752 0.960 . S
H1739 C1752 0.960 . S
C1740 H1732 0.929 . S
C1740 C1741 1.377 . S
C1740 C1742 1.384 . S
C1741 C1740 1.377 . S
C1741 C1747 1.390 . S
C1742 H1733 0.930 . S
C1742 C1740 1.384 . S
C1742 C1743 1.372 . S
C1743 C1742 1.372 . S
C1743 C1744 1.400 . S
C1743 C1748 1.490 . S
C1744 H1734 0.930 . S
C1744 C1743 1.400 . S
C1744 C1747 1.386 . S
H1745 C1761 0.930 . S
H1746 C1762 0.931 . S
C1747 H1735 0.929 . S
C1747 C1741 1.390 . S
C1747 C1744 1.386 . S
C1748 C1743 1.490 . S
C1748 C1750 1.395 . S
C1748 C1751 1.403 . S
H1749 C1755 0.930 . S
C1750 H1736 0.930 . S
C1750 C1748 1.395 . S
C1750 C1753 1.403 . S
C1751 C1748 1.403 . S
C1751 C1752 1.524 . S
C1751 C1755 1.400 . S
C1752 H1737 0.960 . S
C1752 H1738 0.960 . S
C1752 H1739 0.960 . S
C1752 C1751 1.524 . S
C1753 C1750 1.403 . S
C1753 C1754 1.392 . S
C1753 C1757 1.495 . S
C1754 C1753 1.392 . S
C1754 C1755 1.385 . S
C1754 C1756 1.478 . S
C1755 H1749 0.930 . S
C1755 C1751 1.400 . S
C1755 C1754 1.385 . S
C1756 C1754 1.478 . S
C1756 C1758 1.381 . S
C1756 C1762 1.383 . S
C1757 C1753 1.495 . S
C1757 H1763 0.959 . S
C1757 H1764 0.961 . S
C1757 H1765 0.960 . S
C1758 C1756 1.381 . S
C1758 C1759 1.394 . S
C1758 H1766 0.930 . S
C1759 C1758 1.394 . S
C1759 C1760 1.383 . S
C1759 H1767 0.929 . S
C1760 C1759 1.383 . S
C1760 C1761 1.377 . S
C1761 H1745 0.930 . S
C1761 C1760 1.377 . S
C1761 C1762 1.379 . S
C1762 H1746 0.931 . S
C1762 C1756 1.383 . S
C1762 C1761 1.379 . S
H1763 C1757 0.959 . S
H1764 C1757 0.961 . S
H1765 C1757 0.960 . S
H1766 C1758 0.930 . S
H1767 C1759 0.929 . S
H1768 C1776 0.929 . S
H1769 C1778 0.930 . S
H1770 C1780 0.930 . S
H1771 C1783 0.929 . S
H1772 C1786 0.930 . S
H1773 C1788 0.960 . S
H1774 C1788 0.960 . S
H1775 C1788 0.960 . S
C1776 H1768 0.929 . S
C1776 C1777 1.377 1_554 S
C1776 C1778 1.384 . S
C1777 C1776 1.377 1_556 S
C1777 C1783 1.390 . S
C1778 H1769 0.930 . S
C1778 C1776 1.384 . S
C1778 C1779 1.372 . S
C1779 C1778 1.372 . S
C1779 C1780 1.400 1_554 S
C1779 C1784 1.490 . S
C1780 H1770 0.930 . S
C1780 C1779 1.400 1_556 S
C1780 C1783 1.386 . S
H1781 C1797 0.930 . S
H1782 C1798 0.931 . S
C1783 H1771 0.929 . S
C1783 C1777 1.390 . S
C1783 C1780 1.386 . S
C1784 C1779 1.490 . S
C1784 C1786 1.395 . S
C1784 C1787 1.403 . S
H1785 C1791 0.930 . S
C1786 H1772 0.930 . S
C1786 C1784 1.395 . S
C1786 C1789 1.403 . S
C1787 C1784 1.403 . S
C1787 C1788 1.524 . S
C1787 C1791 1.400 . S
C1788 H1773 0.960 . S
C1788 H1774 0.960 . S
C1788 H1775 0.960 . S
C1788 C1787 1.524 . S
C1789 C1786 1.403 . S
C1789 C1790 1.392 . S
C1789 C1793 1.495 . S
C1790 C1789 1.392 . S
C1790 C1791 1.385 . S
C1790 C1792 1.478 . S
C1791 H1785 0.930 . S
C1791 C1787 1.400 . S
C1791 C1790 1.385 . S
C1792 C1790 1.478 . S
C1792 C1794 1.381 . S
C1792 C1798 1.383 . S
C1793 C1789 1.495 . S
C1793 H1799 0.959 . S
C1793 H1800 0.961 . S
C1793 H1801 0.960 . S
C1794 C1792 1.381 . S
C1794 C1795 1.394 . S
C1794 H1802 0.930 . S
C1795 C1794 1.394 . S
C1795 C1796 1.383 . S
C1795 H1803 0.929 . S
C1796 C1795 1.383 . S
C1796 C1797 1.377 . S
C1797 H1781 0.930 . S
C1797 C1796 1.377 . S
C1797 C1798 1.379 . S
C1798 H1782 0.931 . S
C1798 C1792 1.383 . S
C1798 C1797 1.379 . S
H1799 C1793 0.959 . S
H1800 C1793 0.961 . S
H1801 C1793 0.960 . S
H1802 C1794 0.930 . S
H1803 C1795 0.929 . S
H1804 C1812 0.929 . S
H1805 C1814 0.930 . S
H1806 C1816 0.930 . S
H1807 C1819 0.929 . S
H1808 C1822 0.930 . S
H1809 C1824 0.960 . S
H1810 C1824 0.960 . S
H1811 C1824 0.960 . S
C1812 H1804 0.929 . S
C1812 C1813 1.377 . S
C1812 C1814 1.384 . S
C1813 C1812 1.377 . S
C1813 C1819 1.390 . S
C1814 H1805 0.930 . S
C1814 C1812 1.384 . S
C1814 C1815 1.372 . S
C1815 C1814 1.372 . S
C1815 C1816 1.400 . S
C1815 C1820 1.490 . S
C1816 H1806 0.930 . S
C1816 C1815 1.400 . S
C1816 C1819 1.386 . S
H1817 C1833 0.930 . S
H1818 C1834 0.931 . S
C1819 H1807 0.929 . S
C1819 C1813 1.390 . S
C1819 C1816 1.386 . S
C1820 C1815 1.490 . S
C1820 C1822 1.395 . S
C1820 C1823 1.403 . S
H1821 C1827 0.930 . S
C1822 H1808 0.930 . S
C1822 C1820 1.395 . S
C1822 C1825 1.403 . S
C1823 C1820 1.403 . S
C1823 C1824 1.524 . S
C1823 C1827 1.400 . S
C1824 H1809 0.960 . S
C1824 H1810 0.960 . S
C1824 H1811 0.960 . S
C1824 C1823 1.524 . S
C1825 C1822 1.403 . S
C1825 C1826 1.392 . S
C1825 C1829 1.495 . S
C1826 C1825 1.392 . S
C1826 C1827 1.385 . S
C1826 C1828 1.478 . S
C1827 H1821 0.930 . S
C1827 C1823 1.400 . S
C1827 C1826 1.385 . S
C1828 C1826 1.478 . S
C1828 C1830 1.381 . S
C1828 C1834 1.383 . S
C1829 C1825 1.495 . S
C1829 H1835 0.959 . S
C1829 H1836 0.961 . S
C1829 H1837 0.960 . S
C1830 C1828 1.381 . S
C1830 C1831 1.394 . S
C1830 H1838 0.930 . S
C1831 C1830 1.394 . S
C1831 C1832 1.383 . S
C1831 H1839 0.929 . S
C1832 C1831 1.383 . S
C1832 C1833 1.377 . S
C1833 H1817 0.930 . S
C1833 C1832 1.377 . S
C1833 C1834 1.379 . S
C1834 H1818 0.931 . S
C1834 C1828 1.383 . S
C1834 C1833 1.379 . S
H1835 C1829 0.959 . S
H1836 C1829 0.961 . S
H1837 C1829 0.960 . S
H1838 C1830 0.930 . S
H1839 C1831 0.929 . S
H1840 C1848 0.929 . S
H1841 C1850 0.930 . S
H1842 C1852 0.930 . S
H1843 C1855 0.929 . S
H1844 C1858 0.930 . S
H1845 C1860 0.960 . S
H1846 C1860 0.960 . S
H1847 C1860 0.960 . S
C1848 H1840 0.929 . S
C1848 C1849 1.377 . S
C1848 C1850 1.384 . S
C1849 C1848 1.377 . S
C1849 C1855 1.390 . S
C1850 H1841 0.930 . S
C1850 C1848 1.384 . S
C1850 C1851 1.372 . S
C1851 C1850 1.372 . S
C1851 C1852 1.400 . S
C1851 C1856 1.490 . S
C1852 H1842 0.930 . S
C1852 C1851 1.400 . S
C1852 C1855 1.386 . S
H1853 C1869 0.930 . S
H1854 C1870 0.931 . S
C1855 H1843 0.929 . S
C1855 C1849 1.390 . S
C1855 C1852 1.386 . S
C1856 C1851 1.490 . S
C1856 C1858 1.395 . S
C1856 C1859 1.403 . S
H1857 C1863 0.930 . S
C1858 H1844 0.930 . S
C1858 C1856 1.395 . S
C1858 C1861 1.403 . S
C1859 C1856 1.403 . S
C1859 C1860 1.524 . S
C1859 C1863 1.400 . S
C1860 H1845 0.960 . S
C1860 H1846 0.960 . S
C1860 H1847 0.960 . S
C1860 C1859 1.524 . S
C1861 C1858 1.403 . S
C1861 C1862 1.392 . S
C1861 C1865 1.495 . S
C1862 C1861 1.392 . S
C1862 C1863 1.385 . S
C1862 C1864 1.478 . S
C1863 H1857 0.930 . S
C1863 C1859 1.400 . S
C1863 C1862 1.385 . S
C1864 C1862 1.478 . S
C1864 C1866 1.381 . S
C1864 C1870 1.383 . S
C1865 C1861 1.495 . S
C1865 H1871 0.959 . S
C1865 H1872 0.961 . S
C1865 H1873 0.960 . S
C1866 C1864 1.381 . S
C1866 C1867 1.394 . S
C1866 H1874 0.930 . S
C1867 C1866 1.394 . S
C1867 C1868 1.383 . S
C1867 H1875 0.929 . S
C1868 C1867 1.383 . S
C1868 C1869 1.377 . S
C1869 H1853 0.930 . S
C1869 C1868 1.377 . S
C1869 C1870 1.379 . S
C1870 H1854 0.931 . S
C1870 C1864 1.383 . S
C1870 C1869 1.379 . S
H1871 C1865 0.959 . S
H1872 C1865 0.961 . S
H1873 C1865 0.960 . S
H1874 C1866 0.930 . S
H1875 C1867 0.929 . S
H1876 C1884 0.929 . S
H1877 C1886 0.930 . S
H1878 C1888 0.930 . S
H1879 C1891 0.929 . S
H1880 C1894 0.930 . S
H1881 C1896 0.960 . S
H1882 C1896 0.960 . S
H1883 C1896 0.960 . S
C1884 H1876 0.929 . S
C1884 C1885 1.377 . S
C1884 C1886 1.384 . S
C1885 C1884 1.377 . S
C1885 C1891 1.390 . S
C1886 H1877 0.930 . S
C1886 C1884 1.384 . S
C1886 C1887 1.372 . S
C1887 C1886 1.372 . S
C1887 C1888 1.400 . S
C1887 C1892 1.490 . S
C1888 H1878 0.930 . S
C1888 C1887 1.400 . S
C1888 C1891 1.386 . S
H1889 C1905 0.930 . S
H1890 C1906 0.931 . S
C1891 H1879 0.929 . S
C1891 C1885 1.390 . S
C1891 C1888 1.386 . S
C1892 C1887 1.490 . S
C1892 C1894 1.395 . S
C1892 C1895 1.403 . S
H1893 C1899 0.930 . S
C1894 H1880 0.930 . S
C1894 C1892 1.395 . S
C1894 C1897 1.403 . S
C1895 C1892 1.403 . S
C1895 C1896 1.524 . S
C1895 C1899 1.400 . S
C1896 H1881 0.960 . S
C1896 H1882 0.960 . S
C1896 H1883 0.960 . S
C1896 C1895 1.524 . S
C1897 C1894 1.403 . S
C1897 C1898 1.392 . S
C1897 C1901 1.495 . S
C1898 C1897 1.392 . S
C1898 C1899 1.385 . S
C1898 C1900 1.478 . S
C1899 H1893 0.930 . S
C1899 C1895 1.400 . S
C1899 C1898 1.385 . S
C1900 C1898 1.478 . S
C1900 C1902 1.381 . S
C1900 C1906 1.383 . S
C1901 C1897 1.495 . S
C1901 H1907 0.959 . S
C1901 H1908 0.961 . S
C1901 H1909 0.960 . S
C1902 C1900 1.381 . S
C1902 C1903 1.394 . S
C1902 H1910 0.930 . S
C1903 C1902 1.394 . S
C1903 C1904 1.383 . S
C1903 H1911 0.929 . S
C1904 C1903 1.383 . S
C1904 C1905 1.377 . S
C1905 H1889 0.930 . S
C1905 C1904 1.377 . S
C1905 C1906 1.379 . S
C1906 H1890 0.931 . S
C1906 C1900 1.383 . S
C1906 C1905 1.379 . S
H1907 C1901 0.959 . S
H1908 C1901 0.961 . S
H1909 C1901 0.960 . S
H1910 C1902 0.930 . S
H1911 C1903 0.929 . S
H1912 C1920 0.929 . S
H1913 C1922 0.930 . S
H1914 C1924 0.930 . S
H1915 C1927 0.929 . S
H1916 C1930 0.930 . S
H1917 C1932 0.960 . S
H1918 C1932 0.960 . S
H1919 C1932 0.960 . S
C1920 H1912 0.929 . S
C1920 C1921 1.377 . S
C1920 C1922 1.384 . S
C1921 C1920 1.377 . S
C1921 C1927 1.390 . S
C1922 H1913 0.930 . S
C1922 C1920 1.384 . S
C1922 C1923 1.372 . S
C1923 C1922 1.372 . S
C1923 C1924 1.400 . S
C1923 C1928 1.490 . S
C1924 H1914 0.930 . S
C1924 C1923 1.400 . S
C1924 C1927 1.386 . S
H1925 C1941 0.930 . S
H1926 C1942 0.931 . S
C1927 H1915 0.929 . S
C1927 C1921 1.390 . S
C1927 C1924 1.386 . S
C1928 C1923 1.490 . S
C1928 C1930 1.395 . S
C1928 C1931 1.403 . S
H1929 C1935 0.930 . S
C1930 H1916 0.930 . S
C1930 C1928 1.395 . S
C1930 C1933 1.403 . S
C1931 C1928 1.403 . S
C1931 C1932 1.524 . S
C1931 C1935 1.400 . S
C1932 H1917 0.960 . S
C1932 H1918 0.960 . S
C1932 H1919 0.960 . S
C1932 C1931 1.524 . S
C1933 C1930 1.403 . S
C1933 C1934 1.392 . S
C1933 C1937 1.495 . S
C1934 C1933 1.392 . S
C1934 C1935 1.385 . S
C1934 C1936 1.478 . S
C1935 H1929 0.930 . S
C1935 C1931 1.400 . S
C1935 C1934 1.385 . S
C1936 C1934 1.478 . S
C1936 C1938 1.381 . S
C1936 C1942 1.383 . S
C1937 C1933 1.495 . S
C1937 H1943 0.959 . S
C1937 H1944 0.961 . S
C1937 H1945 0.960 . S
C1938 C1936 1.381 . S
C1938 C1939 1.394 . S
C1938 H1946 0.930 . S
C1939 C1938 1.394 . S
C1939 C1940 1.383 . S
C1939 H1947 0.929 . S
C1940 C1939 1.383 . S
C1940 C1941 1.377 . S
C1941 H1925 0.930 . S
C1941 C1940 1.377 . S
C1941 C1942 1.379 . S
C1942 H1926 0.931 . S
C1942 C1936 1.383 . S
C1942 C1941 1.379 . S
H1943 C1937 0.959 . S
H1944 C1937 0.961 . S
H1945 C1937 0.960 . S
H1946 C1938 0.930 . S
H1947 C1939 0.929 . S
H1948 C1956 0.929 . S
H1949 C1958 0.930 . S
H1950 C1960 0.963 . S
H1951 C1963 0.929 . S
H1952 C1966 0.930 . S
H1953 C1968 0.960 . S
H1954 C1968 0.960 . S
H1955 C1968 0.960 . S
C1956 H1948 0.929 . S
C1956 C1957 1.377 . S
C1956 C1958 1.384 . S
C1957 C1956 1.377 . S
C1957 C1963 1.390 . S
C1958 H1949 0.930 . S
C1958 C1956 1.384 . S
C1958 C1959 1.372 . S
C1959 C1958 1.372 . S
C1959 C1960 1.400 . S
C1959 C1964 1.490 . S
C1960 H1950 0.963 . S
C1960 C1959 1.400 . S
C1960 C1963 1.386 . S
H1961 C1977 0.930 . S
H1962 C1978 0.931 . S
C1963 H1951 0.929 . S
C1963 C1957 1.390 . S
C1963 C1960 1.386 . S
C1964 C1959 1.490 . S
C1964 C1966 1.395 . S
C1964 C1967 1.403 . S
H1965 C1971 0.930 . S
C1966 H1952 0.930 . S
C1966 C1964 1.395 . S
C1966 C1969 1.403 . S
C1967 C1964 1.403 . S
C1967 C1968 1.524 . S
C1967 C1971 1.400 . S
C1968 H1953 0.960 . S
C1968 H1954 0.960 . S
C1968 H1955 0.960 . S
C1968 C1967 1.524 . S
C1969 C1966 1.403 . S
C1969 C1970 1.392 . S
C1969 C1973 1.495 . S
C1970 C1969 1.392 . S
C1970 C1971 1.385 . S
C1970 C1972 1.478 . S
C1971 H1965 0.930 . S
C1971 C1967 1.400 . S
C1971 C1970 1.385 . S
C1972 C1970 1.478 . S
C1972 C1974 1.381 . S
C1972 C1978 1.383 1_556 S
C1973 C1969 1.495 . S
C1973 H1979 0.959 . S
C1973 H1980 0.961 . S
C1973 H1981 0.960 . S
C1974 C1972 1.381 . S
C1974 C1975 1.394 . S
C1974 H1982 0.930 . S
C1975 C1974 1.394 . S
C1975 C1976 1.383 . S
C1975 H1983 0.929 . S
C1976 C1975 1.383 . S
C1976 C1977 1.377 1_556 S
C1977 H1961 0.930 . S
C1977 C1976 1.377 1_554 S
C1977 C1978 1.379 . S
C1978 H1962 0.931 . S
C1978 C1972 1.383 1_554 S
C1978 C1977 1.379 . S
H1979 C1973 0.959 . S
H1980 C1973 0.961 . S
H1981 C1973 0.960 . S
H1982 C1974 0.930 . S
H1983 C1975 0.929 . S
H1984 C1992 0.929 . S
H1985 C1994 0.930 . S
H1986 C1996 0.930 . S
H1987 C1999 0.929 . S
H1988 C2002 0.930 . S
H1989 C2004 0.960 . S
H1990 C2004 0.960 . S
H1991 C2004 0.960 . S
C1992 H1984 0.929 . S
C1992 C1993 1.377 . S
C1992 C1994 1.384 . S
C1993 C1992 1.377 . S
C1993 C1999 1.390 . S
C1994 H1985 0.930 . S
C1994 C1992 1.384 . S
C1994 C1995 1.372 . S
C1995 C1994 1.372 . S
C1995 C1996 1.400 . S
C1995 C2000 1.490 . S
C1996 H1986 0.930 . S
C1996 C1995 1.400 . S
C1996 C1999 1.386 . S
H1997 C2013 0.930 . S
H1998 C2014 0.931 . S
C1999 H1987 0.929 . S
C1999 C1993 1.390 . S
C1999 C1996 1.386 . S
C2000 C1995 1.490 . S
C2000 C2002 1.395 . S
C2000 C2003 1.403 . S
H2001 C2007 0.930 . S
C2002 H1988 0.930 . S
C2002 C2000 1.395 . S
C2002 C2005 1.403 . S
C2003 C2000 1.403 . S
C2003 C2004 1.524 . S
C2003 C2007 1.400 . S
C2004 H1989 0.960 . S
C2004 H1990 0.960 . S
C2004 H1991 0.960 . S
C2004 C2003 1.524 . S
C2005 C2002 1.403 . S
C2005 C2006 1.392 . S
C2005 C2009 1.495 . S
C2006 C2005 1.392 . S
C2006 C2007 1.385 . S
C2006 C2008 1.478 . S
C2007 H2001 0.930 . S
C2007 C2003 1.400 . S
C2007 C2006 1.385 . S
C2008 C2006 1.478 . S
C2008 C2010 1.381 . S
C2008 C2014 1.383 . S
C2009 C2005 1.495 . S
C2009 H2015 0.959 . S
C2009 H2016 0.961 . S
C2009 H2017 0.960 . S
C2010 C2008 1.381 . S
C2010 C2011 1.394 . S
C2010 H2018 0.930 . S
C2011 C2010 1.394 . S
C2011 C2012 1.383 . S
C2011 H2019 0.929 . S
C2012 C2011 1.383 . S
C2012 C2013 1.377 . S
C2013 H1997 0.930 . S
C2013 C2012 1.377 . S
C2013 C2014 1.379 . S
C2014 H1998 0.931 . S
C2014 C2008 1.383 . S
C2014 C2013 1.379 . S
H2015 C2009 0.959 . S
H2016 C2009 0.961 . S
H2017 C2009 0.960 . S
H2018 C2010 0.930 . S
H2019 C2011 0.929 . S
H2020 C2028 0.929 . S
H2021 C2030 0.930 . S
H2022 C2032 0.930 . S
H2023 C2035 0.929 . S
H2024 C2038 0.930 . S
H2025 C2040 0.960 1_556 S
H2026 C2040 0.960 . S
H2027 C2040 0.934 1_556 S
C2028 H2020 0.929 . S
C2028 C2029 1.377 . S
C2028 C2030 1.384 . S
C2029 C2028 1.377 . S
C2029 C2035 1.390 . S
C2030 H2021 0.930 . S
C2030 C2028 1.384 . S
C2030 C2031 1.372 . S
C2031 C2030 1.372 . S
C2031 C2032 1.400 . S
C2031 C2036 1.490 . S
C2032 H2022 0.930 . S
C2032 C2031 1.400 . S
C2032 C2035 1.386 . S
H2033 C2049 0.930 . S
H2034 C2050 0.931 1_556 S
C2035 H2023 0.929 . S
C2035 C2029 1.390 . S
C2035 C2032 1.386 . S
C2036 C2031 1.490 . S
C2036 C2038 1.395 . S
C2036 C2039 1.403 . S
H2037 C2043 0.930 . S
C2038 H2024 0.930 . S
C2038 C2036 1.395 . S
C2038 C2041 1.403 . S
C2039 C2036 1.403 . S
C2039 C2040 1.524 . S
C2039 C2043 1.400 . S
C2040 H2025 0.960 1_554 S
C2040 H2026 0.960 . S
C2040 H2027 0.934 1_554 S
C2040 C2039 1.524 . S
C2041 C2038 1.403 . S
C2041 C2042 1.392 . S
C2041 C2045 1.495 . S
C2042 C2041 1.392 . S
C2042 C2043 1.385 . S
C2042 C2044 1.478 . S
C2043 H2037 0.930 . S
C2043 C2039 1.400 . S
C2043 C2042 1.385 . S
C2044 C2042 1.478 . S
C2044 C2046 1.381 . S
C2044 C2050 1.383 . S
C2045 C2041 1.495 . S
C2045 H2051 0.959 . S
C2045 H2052 0.961 . S
C2045 H2053 0.960 . S
C2046 C2044 1.381 . S
C2046 C2047 1.394 . S
C2046 H2054 0.930 . S
C2047 C2046 1.394 . S
C2047 C2048 1.383 . S
C2047 H2055 0.929 . S
C2048 C2047 1.383 . S
C2048 C2049 1.377 1_554 S
C2049 H2033 0.930 . S
C2049 C2048 1.377 1_556 S
C2049 C2050 1.379 1_556 S
C2050 H2034 0.931 1_554 S
C2050 C2044 1.383 . S
C2050 C2049 1.379 1_554 S
H2051 C2045 0.959 . S
H2052 C2045 0.961 . S
H2053 C2045 0.960 . S
H2054 C2046 0.930 . S
H2055 C2047 0.929 . S
H2056 C2064 0.929 . S
H2057 C2066 0.930 1_545 S
H2058 C2068 0.930 . S
H2059 C2071 0.929 . S
H2060 C2074 0.930 . S
H2061 C2076 0.960 . S
H2062 C2076 0.960 . S
H2063 C2076 0.960 . S
C2064 H2056 0.929 . S
C2064 C2065 1.369 1_545 S
C2064 C2066 1.384 1_545 S
C2065 C2064 1.369 1_565 S
C2065 C2071 1.411 . S
C2066 H2057 0.930 1_565 S
C2066 C2064 1.384 1_565 S
C2066 C2067 1.372 . S
C2067 C2066 1.372 . S
C2067 C2068 1.400 . S
C2067 C2072 1.490 . S
C2068 H2058 0.930 . S
C2068 C2067 1.400 . S
C2068 C2071 1.386 . S
H2069 C2085 0.930 . S
H2070 C2086 0.931 . S
C2071 H2059 0.929 . S
C2071 C2065 1.411 . S
C2071 C2068 1.386 . S
C2072 C2067 1.490 . S
C2072 C2074 1.395 . S
C2072 C2075 1.403 . S
H2073 C2079 0.930 . S
C2074 H2060 0.930 . S
C2074 C2072 1.395 . S
C2074 C2077 1.403 . S
C2075 C2072 1.403 . S
C2075 C2076 1.524 . S
C2075 C2079 1.400 . S
C2076 H2061 0.960 . S
C2076 H2062 0.960 . S
C2076 H2063 0.960 . S
C2076 C2075 1.524 . S
C2077 C2074 1.403 . S
C2077 C2078 1.392 . S
C2077 C2081 1.495 . S
C2078 C2077 1.392 . S
C2078 C2079 1.385 . S
C2078 C2080 1.478 . S
C2079 H2073 0.930 . S
C2079 C2075 1.400 . S
C2079 C2078 1.385 . S
C2080 C2078 1.478 . S
C2080 C2082 1.381 . S
C2080 C2086 1.383 . S
C2081 C2077 1.495 . S
C2081 H2087 0.919 1_565 S
C2081 H2088 0.961 . S
C2081 H2089 0.960 . S
C2082 C2080 1.381 . S
C2082 C2083 1.394 . S
C2082 H2090 0.930 . S
C2083 C2082 1.394 . S
C2083 C2084 1.383 . S
C2083 H2091 0.929 . S
C2084 C2083 1.383 . S
C2084 C2085 1.377 . S
C2085 H2069 0.930 . S
C2085 C2084 1.377 . S
C2085 C2086 1.379 . S
C2086 H2070 0.931 . S
C2086 C2080 1.383 . S
C2086 C2085 1.379 . S
H2087 C2081 0.919 1_545 S
H2088 C2081 0.961 . S
H2089 C2081 0.960 . S
H2090 C2082 0.930 . S
H2091 C2083 0.929 . S
C392 C218 1.144 . S
C373 N66 1.113 . S
C428 C231 1.667 . S
C409 N79 1.659 . S
C445 N92 1.821 . S
C464 C244 1.821 . S
C500 C257 1.315 . S
C481 N54 1.346 . S
C536 C265 1.494 . S
C517 N131 1.491 . S
C572 C278 1.045 . S
C553 N158 1.031 . S
C589 N145 1.578 . S
C608 C291 1.556 . S
C644 C304 1.772 . S
C625 N118 1.796 . S
C661 N148 1.947 . S
C680 C322 1.915 . S
C716 C333 1.597 . S
C697 N122 1.636 . S
C733 N132 1.122 . S
C752 C317 1.119 . S
C788 C325 1.419 . S
C769 N161 1.424 . S
C805 N96 1.976 . S
C824 C348 1.997 . S
C841 N53 1.756 . S
C860 C338 1.727 . S
C877 N67 0.970 . S
C896 C343 0.913 . S
C913 N83 1.375 . S
C932 C346 1.364 . S
C949 N44 1.350 . S
C968 C255 1.320 . S
C985 N187 1.402 . S
C1004 C247 1.398 . S
C1040 C216 1.195 . S
C1021 N197 1.194 . S
C1076 C221 1.237 . S
C1057 N106 1.276 . S
C1093 N57 1.907 . S
C1112 C268 1.847 . S
C1148 C307 1.430 . S
C1129 N144 1.431 . S
C1184 C260 1.344 . S
C1165 N119 1.375 . S
C1220 C286 1.743 . S
C1201 N157 1.783 . S
C1256 C296 1.142 . S
C1237 N183 1.113 . S
C1273 N196 1.659 . S
C1292 C309 1.660 . S
C1309 N105 1.824 . S
C1328 C270 1.816 . S
C1364 C283 1.332 . S
C1345 N171 1.345 . S
C1381 N40 1.489 . S
C1400 C239 1.486 . S
C1436 C252 1.041 . S
C1417 N2 1.031 1_655 S
C1472 C213 1.540 . S
C1453 N15 1.579 . S
C1508 C226 1.800 . S
C1489 N27 1.798 . S
C1525 N18 1.950 . S
C1544 C335 1.915 . S
C1561 N31 1.639 . S
C1580 C320 1.626 1_655 S
C1597 N41 1.122 . S
C1616 C330 1.085 . S
C1633 N5 1.424 . S
C1652 C312 1.432 . S
C1688 C361 1.998 . S
C1669 N109 1.976 . S
C1724 C351 1.725 . S
C1705 N170 1.755 . S
C1760 C356 0.951 . S
C1741 N184 0.965 . S
C1777 N200 1.375 . S
C1796 C359 1.353 . S
C1813 N135 1.357 . S
C1832 C281 1.361 . S
C1868 C273 1.410 . S
C1849 N70 1.404 . S
C1904 C294 1.144 . S
C1885 N80 1.196 . S
C1940 C299 1.240 . S
C1921 N93 1.276 . S
C1957 N174 1.902 . S
C1976 C242 1.842 . S
C2012 C229 1.442 . S
C1993 N14 1.434 . S
C2029 N28 1.375 . S
C2048 C234 1.352 . S
C2084 C208 1.782 . S
C2065 N1 1.779 1_565 S
