# Generated by pormake.
# Topology anh, (6,3)-cn, num edge types: 1
# Building blocks:
#     Node 0, Type 0, BuildingBlock: NUHQIS_clean_sbu_0, # of connection points: 6
#     Node 1, Type 0, BuildingBlock: NUHQIS_clean_sbu_0, # of connection points: 6
#     Node 2, Type 0, BuildingBlock: NUHQIS_clean_sbu_0, # of connection points: 6
#     Node 3, Type 1, BuildingBlock: BETDIP_clean_linker_0, # of connection points: 3
#     Node 4, Type 1, BuildingBlock: BETDIP_clean_linker_0, # of connection points: 3
#     Node 5, Type 1, BuildingBlock: BETDIP_clean_linker_0, # of connection points: 3
#     Node 6, Type 1, BuildingBlock: BETDIP_clean_linker_0, # of connection points: 3
#     Node 7, Type 1, BuildingBlock: BETDIP_clean_linker_0, # of connection points: 3
#     Node 8, Type 1, BuildingBlock: BETDIP_clean_linker_0, # of connection points: 3
#     Edge 9, Type (0, 1), BuildingBlock: EZIPEK_clean_linker_0, # of connection points: 2
#     Edge 10, Type (0, 1), BuildingBlock: EZIPEK_clean_linker_0, # of connection points: 2
#     Edge 11, Type (0, 1), BuildingBlock: EZIPEK_clean_linker_0, # of connection points: 2
#     Edge 12, Type (0, 1), BuildingBlock: EZIPEK_clean_linker_0, # of connection points: 2
#     Edge 13, Type (0, 1), BuildingBlock: EZIPEK_clean_linker_0, # of connection points: 2
#     Edge 14, Type (0, 1), BuildingBlock: EZIPEK_clean_linker_0, # of connection points: 2
#     Edge 15, Type (0, 1), BuildingBlock: EZIPEK_clean_linker_0, # of connection points: 2
#     Edge 16, Type (0, 1), BuildingBlock: EZIPEK_clean_linker_0, # of connection points: 2
#     Edge 17, Type (0, 1), BuildingBlock: EZIPEK_clean_linker_0, # of connection points: 2
#     Edge 18, Type (0, 1), BuildingBlock: EZIPEK_clean_linker_0, # of connection points: 2
#     Edge 19, Type (0, 1), BuildingBlock: EZIPEK_clean_linker_0, # of connection points: 2
#     Edge 20, Type (0, 1), BuildingBlock: EZIPEK_clean_linker_0, # of connection points: 2
#     Edge 21, Type (0, 1), BuildingBlock: EZIPEK_clean_linker_0, # of connection points: 2
#     Edge 22, Type (0, 1), BuildingBlock: EZIPEK_clean_linker_0, # of connection points: 2
#     Edge 23, Type (0, 1), BuildingBlock: EZIPEK_clean_linker_0, # of connection points: 2
#     Edge 24, Type (0, 1), BuildingBlock: EZIPEK_clean_linker_0, # of connection points: 2
#     Edge 25, Type (0, 1), BuildingBlock: EZIPEK_clean_linker_0, # of connection points: 2
#     Edge 26, Type (0, 1), BuildingBlock: EZIPEK_clean_linker_0, # of connection points: 2
# Relax obj value: 0.377
# Max RMSD: 0.174
# Mean RMSD: 0.133
data_MOF--net-anh--node1-NUHQIS_clean_sbu_0--node2-BETDIP_clean_linker_0--edge1-EZIPEK_clean_linker_0
_symmetry_space_group_name_H-M    P1
_symmetry_Int_Tables_number       1
_symmetry_cell_setting            triclinic
loop_
_symmetry_equiv_pos_as_xyz
'x, y, z'
_cell_length_a     23.628263
_cell_length_b     23.086948
_cell_length_c     36.747529
_cell_angle_alpha  91.988274
_cell_angle_beta   93.52597
_cell_angle_gamma 119.88857
loop_
_atom_site_label
_atom_site_type_symbol
_atom_site_fract_x
_atom_site_fract_y
_atom_site_fract_z
_atom_type_partial_charge
Tb0 Tb 0.20541 0.663 0.16479 0.0
Eu1 Eu 1.13225 0.74612 0.16038 0.0
C2 C 0.16636 0.70263 0.23503 0.0
C3 C 1.04411 0.57644 0.16579 0.0
C4 C 0.33438 0.61843 0.16307 0.0
C5 C 0.41494 0.58387 0.15954 0.0
C6 C 0.35706 0.57488 0.17229 0.0
C7 C 0.3709 0.67255 0.14216 0.0
C8 C 0.42907 0.68181 0.12952 0.0
C9 C 0.45039 0.63658 0.13763 0.0
C10 C 0.27132 0.60558 0.17404 0.0
O11 O 0.19778 0.6688 0.10585 0.0
O12 O 0.14825 0.73261 0.10098 0.0
O13 O 0.24021 0.83307 0.15977 0.0
O14 O 0.29028 0.77223 0.17264 0.0
C15 C 0.17367 0.69909 0.08616 0.0
O16 O 1.06353 0.77032 0.13216 0.0
O17 O 1.10766 0.81658 0.18604 0.0
O18 O 0.16848 0.7536 0.21963 0.0
O19 O 0.16088 0.65234 0.21515 0.0
O20 O 1.10036 0.57688 0.16238 0.0
O21 O 1.04626 0.63551 0.16704 0.0
C22 C 0.29532 0.83214 0.16826 0.0
O23 O 0.27376 0.65054 0.1975 0.0
O24 O 0.22587 0.58867 0.14727 0.0
C25 C 0.99414 0.77631 0.17367 0.0
C26 C 0.87223 0.68836 0.19819 0.0
C27 C 0.8783 0.6959 0.1607 0.0
C28 C 0.93876 0.74001 0.14849 0.0
C29 C 0.98562 0.77528 0.21134 0.0
C30 C 0.92469 0.7316 0.22355 0.0
C31 C 1.06027 0.8027 0.16101 0.0
H32 H 0.43103 0.5485 0.16571 0.0
H33 H 0.32916 0.53301 0.18845 0.0
H34 H 0.35329 0.70617 0.13479 0.0
H35 H 0.45591 0.72227 0.11233 0.0
H36 H 0.83772 0.6634 0.14079 0.0
H37 H 0.94339 0.74077 0.11933 0.0
H38 H 1.02704 0.80365 0.23148 0.0
H39 H 0.92029 0.72671 0.2526 0.0
Tb40 Tb 0.69167 0.23287 0.50296 0.0
Eu41 Eu 0.53632 0.14798 0.48477 0.0
C42 C 0.60039 0.17499 0.56501 0.0
C43 C 0.6204 1.0669 0.49933 0.0
C44 C 0.87581 0.31299 0.50524 0.0
C45 C 0.93524 0.28234 0.46456 0.0
C46 C 0.87651 0.26782 0.47898 0.0
C47 C 0.93425 0.3716 0.51763 0.0
C48 C 0.9927 0.38631 0.5031 0.0
C49 C 0.99333 0.34237 0.47607 0.0
C50 C 0.8144 0.30407 0.51748 0.0
O51 O 0.67871 0.20479 0.44358 0.0
O52 O 0.57317 0.18113 0.43 0.0
O53 O 0.55559 0.25715 0.49779 0.0
O54 O 0.66761 0.316 0.50308 0.0
C55 C 0.62959 0.19272 0.41949 0.0
O56 O 0.4482 1.07714 0.45035 0.0
O57 O 0.43953 0.11997 0.50174 0.0
O58 O 0.55857 0.12803 0.54104 0.0
O59 O 0.64886 0.2299 0.55443 0.0
O60 O 0.67329 0.12727 0.50817 0.0
O61 O 0.56475 1.06394 0.48674 0.0
C62 C 0.61126 0.31598 0.5028 0.0
O63 O 0.78009 0.31811 0.49414 0.0
O64 O 0.77766 0.2498 0.53348 0.0
C65 C 0.36693 1.00421 0.48606 0.0
C66 C 0.31298 0.86858 0.49953 0.0
C67 C 0.29868 0.88674 0.46561 0.0
C68 C 0.32527 0.9541 0.45896 0.0
C69 C 0.37617 0.98591 0.5212 0.0
C70 C 0.34863 0.91828 0.52801 0.0
C71 C 0.40946 1.07269 0.47534 0.0
H72 H 0.9351 0.24806 0.44362 0.0
H73 H 0.83152 0.22266 0.46891 0.0
H74 H 0.93425 0.40716 0.53768 0.0
H75 H 1.03708 0.43287 0.51214 0.0
H76 H 0.271 0.84883 0.44338 0.0
H77 H 0.31758 0.967 0.43174 0.0
H78 H 0.40837 1.02353 0.54263 0.0
H79 H 0.35999 0.90496 0.55434 0.0
Tb80 Tb 0.74212 0.71863 0.84108 0.0
Eu81 Eu 0.6649 0.56206 0.8215 0.0
C82 C 0.7247 0.62118 0.90354 0.0
C83 C 0.83091 0.64172 0.83698 0.0
C84 C 0.77249 0.88096 0.82535 0.0
C85 C 0.69694 0.92374 0.82482 0.0
C86 C 0.74567 0.91523 0.8433 0.0
C87 C 0.75691 0.86462 0.78741 0.0
C88 C 0.70693 0.87093 0.76941 0.0
C89 C 0.67355 0.8962 0.78865 0.0
C90 C 0.79746 0.84398 0.84677 0.0
O91 O 0.71103 0.70749 0.78186 0.0
O92 O 0.6778 0.59822 0.76532 0.0
O93 O 0.5794 0.58697 0.82857 0.0
O94 O 0.63813 0.69893 0.84524 0.0
C95 C 0.6919 0.65789 0.75662 0.0
O96 O 0.64025 0.47055 0.78874 0.0
O97 O 0.58594 0.46605 0.83527 0.0
O98 O 0.70625 0.57198 0.87875 0.0
O99 O 0.73466 0.68037 0.89537 0.0
O100 O 0.8274 0.69736 0.84375 0.0
O101 O 0.77461 0.58495 0.82687 0.0
C102 C 0.57958 0.64331 0.83871 0.0
O103 O 0.75823 0.80647 0.8702 0.0
O104 O 0.81933 0.8114 0.828 0.0
C105 C 0.59795 0.37208 0.82062 0.0
C106 C 0.58395 0.24827 0.8377 0.0
C107 C 0.59359 0.29561 0.86592 0.0
C108 C 0.60059 0.35745 0.85742 0.0
C109 C 0.59172 0.3259 0.79277 0.0
C110 C 0.58495 0.26471 0.80123 0.0
C111 C 0.59651 0.4322 0.81009 0.0
H112 H 0.67241 0.94461 0.83988 0.0
H113 H 0.757 0.92866 0.87244 0.0
H114 H 0.77763 0.83961 0.77234 0.0
H115 H 0.6905 0.85054 0.74129 0.0
H116 H 0.59307 0.28372 0.89419 0.0
H117 H 0.60584 0.39266 0.87946 0.0
H118 H 0.58957 0.33611 0.76431 0.0
H119 H 0.5773 0.22864 0.77907 0.0
H120 H 0.60949 0.14185 0.15312 0.0
H121 H 0.71667 0.25531 0.25544 0.0
H122 H 0.53488 1.07311 0.25753 0.0
H123 H 0.79478 0.32793 0.22801 0.0
C124 C 0.78886 0.32197 0.19848 0.0
C125 C 0.61458 0.14809 0.18267 0.0
C126 C 0.56178 1.09703 0.20273 0.0
C127 C 0.67359 0.20782 0.20104 0.0
C128 C 0.67615 0.21322 0.23972 0.0
C129 C 0.62676 0.1652 0.25961 0.0
C130 C 0.57171 0.10861 0.24121 0.0
N131 N 0.72822 0.26079 0.18165 0.0
H132 H 0.61069 0.63014 0.49142 0.0
H133 H 0.65172 0.75073 0.59343 0.0
H134 H 0.64169 0.56031 0.59451 0.0
H135 H 0.60439 0.80193 0.56537 0.0
C136 C 0.61672 0.80719 0.53728 0.0
C137 C 0.62082 0.6374 0.52085 0.0
C138 C 0.62516 0.58512 0.5404 0.0
C139 C 0.62868 0.69869 0.53959 0.0
C140 C 0.64276 0.70571 0.57809 0.0
C141 C 0.64693 0.65604 0.5977 0.0
C142 C 0.63806 0.59739 0.57876 0.0
N143 N 0.6251 0.75288 0.52038 0.0
H144 H 0.14462 0.63939 0.82034 0.0
H145 H 0.25704 0.66791 0.9245 0.0
H146 H 1.07386 0.66397 0.92256 0.0
H147 H 0.31618 0.63179 0.89828 0.0
C148 C 0.32036 0.64208 0.86974 0.0
C149 C 0.15074 0.64702 0.84985 0.0
C150 C 1.09856 0.651 0.86874 0.0
C151 C 0.21049 0.65199 0.8695 0.0
C152 C 0.21485 0.66226 0.90807 0.0
C153 C 0.16596 0.66637 0.92659 0.0
C154 C 1.11001 0.66082 0.90708 0.0
N155 N 0.26511 0.64878 0.85166 0.0
H156 H 0.26409 0.55325 0.45466 0.0
H157 H 0.22513 0.55106 0.33846 0.0
H158 H 0.2229 0.70008 0.41036 0.0
H159 H 0.26284 0.4085 0.40993 0.0
C160 C 0.23647 0.43583 0.4094 0.0
C161 C 0.25098 0.57334 0.43151 0.0
C162 C 0.24517 0.63068 0.43677 0.0
C163 C 0.24484 0.54524 0.39584 0.0
C164 C 0.22921 0.57227 0.36593 0.0
C165 C 0.21903 0.62663 0.37137 0.0
C166 C 0.22755 0.65585 0.40661 0.0
N167 N 0.25995 0.49372 0.38933 0.0
H168 H 0.4407 0.92954 0.7725 0.0
H169 H 0.45535 0.96574 0.6584 0.0
H170 H 0.55902 0.12988 0.74002 0.0
H171 H 0.38107 0.77006 0.71488 0.0
C172 C 0.41879 0.82256 0.71759 0.0
C173 C 0.45999 0.96393 0.75125 0.0
C174 C 0.50059 1.03269 0.76065 0.0
C175 C 0.44308 0.93995 0.71422 0.0
C176 C 0.4677 0.98458 0.6869 0.0
C177 C 0.51107 1.05275 0.69628 0.0
C178 C 0.52658 1.07673 0.733 0.0
N179 N 0.40358 0.87052 0.70403 0.0
H180 H 0.60799 0.51872 0.13538 0.0
H181 H 0.73248 0.48586 0.06807 0.0
H182 H 0.68097 0.63656 0.04495 0.0
H183 H 0.63029 0.39745 0.17724 0.0
C184 C 0.6571 0.44678 0.16711 0.0
C185 C 0.64242 0.53551 0.11489 0.0
C186 C 0.6461 0.58535 0.09317 0.0
C187 C 0.67716 0.5025 0.10785 0.0
C188 C 0.71095 0.51571 0.07604 0.0
C189 C 0.71125 0.56349 0.05285 0.0
C190 C 0.68237 0.601 0.06304 0.0
N191 N 0.67031 0.44975 0.12955 0.0
C192 C 0.4915 0.59577 0.08842 0.0
C193 C 0.50569 0.63879 0.1202 0.0
C194 C 0.61937 0.6643 0.1251 0.0
C195 C 0.60141 0.6114 0.09818 0.0
N196 N 0.52138 0.5259 0.05351 0.0
N197 N 0.58201 0.71608 0.16879 0.0
C198 C 0.53808 0.57769 0.07905 0.0
C199 C 0.56974 0.67474 0.13822 0.0
N200 N 0.43317 0.57176 0.06763 0.0
N201 N 0.68369 0.70418 0.13787 0.0
H202 H 0.54699 0.72647 0.17821 0.0
H203 H 0.62562 0.73752 0.18569 0.0
H204 H 0.72078 0.69676 0.12879 0.0
H205 H 0.70089 0.74759 0.15499 0.0
H206 H 0.4224 0.54528 0.04226 0.0
H207 H 0.39761 0.58361 0.07419 0.0
H208 H 0.47368 0.494 0.04202 0.0
H209 H 0.55457 0.51195 0.04518 0.0
C210 C 1.10839 0.36304 0.47813 0.0
C211 C 1.05432 0.36185 0.4583 0.0
C212 C 1.11607 0.39687 0.40456 0.0
C213 C 0.17295 0.40734 0.42587 0.0
N214 N 0.2258 0.40708 0.48411 0.0
N215 N 1.01037 0.38924 0.40475 0.0
C216 C 0.16979 0.39181 0.46296 0.0
C217 C 1.0591 0.38195 0.42206 0.0
N218 N 1.10061 0.33543 0.51106 0.0
N219 N 1.11537 0.39807 0.36738 0.0
H220 H 0.96777 0.37932 0.41663 0.0
H221 H 1.01503 0.41108 0.37994 0.0
H222 H 0.15499 0.40503 0.35325 0.0
H223 H 1.07317 0.38469 0.35031 0.0
H224 H 1.13631 0.32868 0.52508 0.0
H225 H 1.05619 0.31378 0.52288 0.0
H226 H 0.22771 0.404 0.51233 0.0
H227 H 0.27168 0.42797 0.47397 0.0
C228 C 0.5507 0.83774 0.78827 0.0
C229 C 0.60868 0.8832 0.77243 0.0
C230 C 0.54197 0.88177 0.71841 0.0
C231 C 0.48437 0.84272 0.73616 0.0
N232 N 0.43446 0.79467 0.79094 0.0
N233 N 0.65925 0.95861 0.72563 0.0
C234 C 0.4889 0.82418 0.77204 0.0
C235 C 0.60416 0.9086 0.73849 0.0
N236 N 0.55381 0.8038 0.81732 0.0
N237 N 0.53738 0.89046 0.68197 0.0
H238 H 0.70526 0.98047 0.74029 0.0
H239 H 0.65838 0.98241 0.70223 0.0
H240 H 0.49268 0.86886 0.66598 0.0
H241 H 0.57789 0.91336 0.66687 0.0
H242 H 0.51221 0.7661 0.82746 0.0
H243 H 0.59704 0.80776 0.82892 0.0
H244 H 0.43648 0.78733 0.81871 0.0
H245 H 0.38801 0.78317 0.77985 0.0
C246 C 0.82031 0.56867 0.21237 0.0
C247 C 0.8153 0.62719 0.20927 0.0
C248 C 0.69609 0.55859 0.20097 0.0
C249 C 0.70378 0.50263 0.19383 0.0
N250 N 0.76188 0.44745 0.21341 0.0
N251 N 0.75001 0.68008 0.21114 0.0
C252 C 0.76242 0.50531 0.20652 0.0
C253 C 0.75326 0.62281 0.20774 0.0
N254 N 0.88034 0.5736 0.21781 0.0
N255 N 0.6345 0.54916 0.20198 0.0
H256 H 0.79205 0.72701 0.21684 0.0
H257 H 0.70654 0.68129 0.2088 0.0
H258 H 0.59337 0.50108 0.19855 0.0
H259 H 0.62429 0.58717 0.20803 0.0
H260 H 0.88731 0.53253 0.21681 0.0
H261 H 0.92387 0.61925 0.22267 0.0
H262 H 0.80139 0.44649 0.22691 0.0
H263 H 0.71906 0.40083 0.20922 0.0
C264 C 0.34917 0.78413 0.4939 0.0
C265 C 0.29956 0.79896 0.50204 0.0
C266 C 0.2153 0.68197 0.48691 0.0
C267 C 0.26351 0.67102 0.47232 0.0
N268 N 0.37641 0.69919 0.47657 0.0
N269 N 0.18995 0.7606 0.51758 0.0
C270 C 0.33067 0.71774 0.48138 0.0
C271 C 0.23398 0.74674 0.50294 0.0
N272 N 0.41295 0.83449 0.49489 0.0
N273 N 0.15149 0.63152 0.48248 0.0
H274 H 0.204 0.8082 0.52936 0.0
H275 H 0.14137 0.72496 0.52017 0.0
H276 H 0.13866 0.58383 0.47135 0.0
H277 H 1.11201 0.63635 0.48954 0.0
H278 H 0.44972 0.82856 0.48435 0.0
H279 H 0.429 0.88348 0.50488 0.0
H280 H 0.42592 0.72927 0.48537 0.0
H281 H 0.36369 0.65073 0.46733 0.0
C282 C 0.60847 0.15633 0.83474 0.0
C283 C 0.56476 0.1782 0.84412 0.0
C284 C 0.47151 1.07554 0.81569 0.0
C285 C 0.51643 1.06182 0.79894 0.0
N286 N 0.62054 1.07002 0.80099 0.0
N287 N 0.45705 0.14686 0.86004 0.0
C288 C 0.58303 1.09536 0.81252 0.0
C289 C 0.49677 0.13247 0.84096 0.0
N290 N 0.6739 0.19777 0.84401 0.0
N291 N 0.4061 1.03845 0.80484 0.0
H292 H 0.47627 0.18953 0.87811 0.0
H293 H 0.40696 0.11421 0.86055 0.0
H294 H 0.38636 0.99563 0.78695 0.0
H295 H 0.37171 1.05082 0.81284 0.0
H296 H 0.71044 0.18888 0.83589 0.0
H297 H 0.691 0.24225 0.86036 0.0
H298 H 0.67016 1.09 0.80916 0.0
H299 H 0.67016 1.09 0.80916 0.0
C300 C 0.59746 0.94339 0.48013 0.0
C301 C 0.62252 1.00019 0.50666 0.0
C302 C 0.6572 0.93476 0.5471 0.0
C303 C 0.62593 0.87524 0.52259 0.0
N304 N 0.56065 0.82414 0.46579 0.0
N305 N 0.66366 1.03865 0.56955 0.0
C306 C 0.59498 0.88039 0.48898 0.0
C307 C 0.64933 0.99254 0.54106 0.0
N308 N 0.5774 0.94994 0.44568 0.0
N309 N 0.69702 0.93733 0.57644 0.0
H310 H 0.6561 1.07915 0.56733 0.0
H311 H 0.67566 1.03259 0.59636 0.0
H312 H 0.70586 0.89821 0.58151 0.0
H313 H 0.72707 0.98082 0.59322 0.0
H314 H 0.56513 0.91477 0.42377 0.0
H315 H 0.57816 0.99346 0.43829 0.0
H316 H 0.5305 0.82054 0.44292 0.0
H317 H 0.55905 0.77926 0.47095 0.0
C318 C 0.96018 0.69362 0.82899 0.0
C319 C 0.90004 0.64241 0.84203 0.0
C320 C 0.96829 0.58918 0.86227 0.0
C321 C 1.02967 0.64381 0.85295 0.0
N322 N 1.08072 0.75374 0.83118 0.0
N323 N 0.85594 0.5471 0.87836 0.0
C324 C 1.02408 0.69726 0.83726 0.0
C325 C 0.90698 0.59159 0.86026 0.0
N326 N 0.95645 0.73826 0.80704 0.0
N327 N 0.96807 0.53305 0.87297 0.0
H328 H 0.81259 0.54828 0.87945 0.0
H329 H 0.85914 0.51394 0.89571 0.0
H330 H 1.0103 0.52918 0.87469 0.0
H331 H 0.92539 0.48834 0.87634 0.0
H332 H 0.9954 0.77224 0.79326 0.0
H333 H 0.91242 0.7368 0.79965 0.0
H334 H 1.08272 0.79811 0.8244 0.0
H335 H 1.12644 0.75723 0.83538 0.0
C336 C 0.37144 0.95968 0.19443 0.0
C337 C 0.36452 0.90127 0.17453 0.0
C338 C 0.48816 0.97233 0.17004 0.0
C339 C 0.49352 1.03202 0.18727 0.0
N340 N 0.43138 1.08136 0.20786 0.0
N341 N 0.42008 0.86178 0.13693 0.0
C342 C 0.43223 1.02476 0.19683 0.0
C343 C 0.42427 0.91073 0.1607 0.0
N344 N 0.321 0.95274 0.21361 0.0
N345 N 0.54471 0.97319 0.16345 0.0
H346 H 0.37558 0.81893 0.12828 0.0
H347 H 0.4591 0.86683 0.12292 0.0
H348 H 0.59062 1.01623 0.16879 0.0
H349 H 0.54634 0.93044 0.15526 0.0
H350 H 0.3248 0.99029 0.23188 0.0
H351 H 0.27803 0.90711 0.21474 0.0
H352 H 0.38835 1.08207 0.21152 0.0
H353 H 0.4731 0.12887 0.20936 0.0
C354 C 0.65564 0.44505 0.49272 0.0
C355 C 0.61123 0.3848 0.50915 0.0
C356 C 0.56543 0.45369 0.53619 0.0
C357 C 0.61545 0.51562 0.52414 0.0
N358 N 0.7144 0.56776 0.49383 0.0
N359 N 0.53169 0.3408 0.55353 0.0
C360 C 0.66197 0.51017 0.50307 0.0
C361 C 0.56795 0.39182 0.53245 0.0
N362 N 0.69042 0.44016 0.46566 0.0
N363 N 0.51382 0.45341 0.55113 0.0
H364 H 0.53453 0.29732 0.55371 0.0
H365 H 0.50487 0.34483 0.57394 0.0
H366 H 0.5096 0.49623 0.55382 0.0
H367 H 0.47218 0.40971 0.55703 0.0
H368 H 0.7184 0.47963 0.44993 0.0
H369 H 0.68559 0.3947 0.45618 0.0
H370 H 0.75445 0.5691 0.48263 0.0
H371 H 0.71989 0.61485 0.4999 0.0
C372 C 0.504 0.67337 0.87766 0.0
C373 C 0.51236 0.6443 0.84457 0.0
C374 C 0.39421 0.61615 0.82457 0.0
C375 C 0.38807 0.64936 0.85676 0.0
N376 N 0.44932 0.72357 0.90985 0.0
N377 N 0.4629 0.59604 0.78392 0.0
C378 C 0.44666 0.68147 0.8819 0.0
C379 C 0.45634 0.61787 0.8175 0.0
N380 N 0.54993 0.69093 0.90663 0.0
N381 N 0.33953 0.58016 0.80093 0.0
H382 H 0.50524 0.59564 0.77789 0.0
H383 H 0.42895 0.58353 0.76139 0.0
H384 H 0.29578 0.57945 0.80465 0.0
H385 H 0.33626 0.54803 0.77928 0.0
H386 H 0.54404 0.7045 0.93284 0.0
H387 H 0.59075 0.68502 0.90551 0.0
H388 H 0.49185 0.75493 0.9267 0.0
H389 H 0.41123 0.73316 0.9135 0.0
C390 C 0.91594 0.48607 0.14945 0.0
C391 C 0.97762 0.50759 0.17075 0.0
C392 C 0.91651 0.39727 0.20031 0.0
C393 C 0.85345 0.37917 0.18234 0.0
N394 N 0.7958 0.41272 0.14014 0.0
N395 N 1.02875 0.48252 0.22175 0.0
C396 C 0.85443 0.42537 0.15675 0.0
C397 C 0.97533 0.46221 0.19726 0.0
N398 N 0.91613 0.5229 0.12117 0.0
N399 N 0.92107 0.35048 0.22007 0.0
H400 H 1.07163 0.52842 0.22147 0.0
H401 H 1.0283 0.4572 0.24474 0.0
H402 H 0.88094 0.30298 0.22241 0.0
H403 H 0.96545 0.35562 0.23052 0.0
H404 H 0.87616 0.50842 0.10209 0.0
H405 H 0.95846 0.56575 0.11501 0.0
H406 H 0.78988 0.44663 0.12475 0.0
H407 H 0.75206 0.36913 0.14381 0.0
C408 C 1.13003 0.62808 0.02619 0.0
C409 C 0.17226 0.69162 0.04528 0.0
C410 C 0.21045 0.73942 0.98654 0.0
C411 C 0.17151 0.67488 0.9678 0.0
N412 N 1.102 0.55585 0.97045 0.0
N413 N 0.25987 0.8056 0.04453 0.0
C414 C 1.13359 0.61867 0.98791 0.0
C415 C 0.21443 0.74676 0.02565 0.0
N416 N 1.08451 0.5772 0.04445 0.0
N417 N 0.24209 0.79412 0.96682 0.0
H418 H 0.26364 0.81288 0.07295 0.0
H419 H 0.29697 0.84538 0.03243 0.0
H420 H 0.2415 0.79055 0.93841 0.0
H421 H 0.26512 0.84328 0.97824 0.0
H422 H 1.04735 0.53209 0.03155 0.0
H423 H 1.08019 0.58205 0.07233 0.0
H424 H 1.07941 0.5121 0.984 0.0
H425 H 1.10305 0.54707 0.94252 0.0
C426 C 0.62363 0.2325 0.35666 0.0
C427 C 0.63628 0.19026 0.37893 0.0
C428 C 0.65197 0.13839 0.32321 0.0
C429 C 0.63189 0.1752 0.30087 0.0
N430 N 0.59099 0.25189 0.29635 0.0
N431 N 0.655 1.09694 0.38278 0.0
C432 C 0.61587 0.22097 0.31766 0.0
C433 C 0.64902 0.14193 0.36204 0.0
N434 N 0.62129 0.2854 0.37285 0.0
N435 N 0.67515 0.10087 0.30734 0.0
H436 H 0.65368 1.09792 0.41107 0.0
H437 H 0.65625 1.05548 0.37176 0.0
H438 H 0.67715 1.09639 0.27916 0.0
H439 H 0.69734 1.07874 0.32216 0.0
H440 H 0.61909 0.32227 0.35833 0.0
H441 H 0.62806 0.2962 0.40112 0.0
H442 H 0.57119 0.27967 0.30688 0.0
H443 H 0.58525 0.24545 0.26786 0.0
C444 C 0.63153 0.67313 0.70144 0.0
C445 C 0.68587 0.66861 0.71665 0.0
C446 C 0.72163 0.6712 0.65459 0.0
C447 C 0.66219 0.66534 0.63894 0.0
N448 N 0.55668 0.65333 0.64795 0.0
N449 N 0.78199 0.66079 0.70756 0.0
C450 C 0.61641 0.66512 0.66254 0.0
C451 C 0.73076 0.66705 0.69311 0.0
N452 N 0.59417 0.685 0.72415 0.0
N453 N 0.77047 0.68306 0.63269 0.0
H454 H 0.79289 0.66217 0.73564 0.0
H455 H 0.8116 0.65072 0.69175 0.0
H456 H 0.76613 0.68783 0.60468 0.0
H457 H 0.81738 0.69451 0.64265 0.0
H458 H 0.5582 0.69588 0.71488 0.0
H459 H 0.60317 0.69006 0.75255 0.0
H460 H 0.51845 0.64507 0.66362 0.0
H461 H 0.54313 0.64607 0.6199 0.0
C462 C 0.52518 0.15116 0.61407 0.0
C463 C 0.5876 0.16529 0.60385 0.0
C464 C 0.60499 0.11645 0.6584 0.0
C465 C 0.54107 1.09894 0.66736 0.0
N466 N 0.4481 0.11515 0.66053 0.0
N467 N 0.69427 0.18004 0.62112 0.0
C468 C 0.50376 0.12167 0.64741 0.0
C469 C 0.63024 0.15464 0.62785 0.0
N470 N 0.48548 0.16364 0.59104 0.0
N471 N 0.63996 1.09342 0.67789 0.0
H472 H 0.71387 0.20737 0.59869 0.0
H473 H 0.72933 0.17907 0.63928 0.0
H474 H 0.62379 1.06693 0.70104 0.0
H475 H 0.68312 1.09705 0.67002 0.0
H476 H 0.4363 0.14656 0.59423 0.0
H477 H 0.50144 0.18911 0.56758 0.0
H478 H 0.42173 0.13617 0.64912 0.0
H479 H 0.43121 1.09335 0.68489 0.0
C480 C 0.6695 0.54912 0.9536 0.0
C481 C 0.72626 0.6047 0.94208 0.0
C482 C 0.78266 0.62273 0.0033 0.0
C483 C 0.72633 0.56591 0.01413 0.0
N484 N 0.62449 0.46394 -0.00335 0.0
N485 N 0.84163 0.68533 0.95323 0.0
C486 C 0.67302 0.52497 0.98803 0.0
C487 C 0.78454 0.63886 0.96609 0.0
N488 N 0.61079 0.52219 0.93276 0.0
N489 N 0.83308 0.66238 0.029 0.0
H490 H 0.84447 0.69806 0.92617 0.0
H491 H 0.88692 0.70734 0.96855 0.0
H492 H 0.8339 0.64938 0.0559 0.0
H493 H 0.87226 0.70882 0.02406 0.0
H494 H 0.56658 0.48611 0.94164 0.0
H495 H 0.60468 0.54101 0.90835 0.0
H496 H 0.58746 0.42939 0.97753 0.0
H497 H 0.62515 0.44496 0.02188 0.0
C498 C 1.12269 0.64877 0.29188 0.0
C499 C 0.17452 0.70077 0.27497 0.0
C500 C 0.25415 0.71111 0.32427 0.0
C501 C 0.20299 0.65586 0.33987 0.0
N502 N 1.08766 0.58161 0.34423 0.0
N503 N 0.28509 0.79332 0.27884 0.0
C504 C 0.13672 0.62794 0.32556 0.0
C505 C 0.23878 0.73633 0.29271 0.0
N506 N 1.06064 0.61794 0.27469 0.0
N507 N 0.31766 0.73707 0.33858 0.0
H508 H 0.27495 0.81243 0.25563 0.0
H509 H 0.33164 0.82495 0.29185 0.0
H510 H 0.33064 0.72067 0.36206 0.0
H511 H 0.35808 0.77224 0.32627 0.0
H512 H 1.02131 0.57465 0.28285 0.0
H513 H 1.04898 0.63539 0.25117 0.0
H514 H 1.03802 0.56289 0.33699 0.0
H515 H 1.09666 0.56465 0.36867 0.0
loop_
_geom_bond_atom_site_label_1
_geom_bond_atom_site_label_2
_geom_bond_distance
_geom_bond_site_symmetry_2
_ccdc_geom_bond_type
Tb0 C10 2.825 . S
Tb0 O11 2.347 . S
Tb0 O14 2.366 . S
Tb0 O19 2.418 . S
Tb0 O20 2.384 1_455 S
Tb0 O23 2.479 . S
Tb0 O24 2.471 . S
Eu1 O12 2.418 . S
Eu1 O13 2.384 . S
Eu1 O16 2.479 1_455 S
Eu1 O17 2.471 1_455 S
Eu1 O18 2.347 . S
Eu1 O21 2.366 1_455 S
Eu1 C31 2.825 1_455 S
C2 O18 1.259 . S
C2 O19 1.265 . S
C3 O20 1.255 . S
C3 O21 1.265 . S
C4 C6 1.380 . S
C4 C7 1.374 . S
C4 C10 1.507 . S
C5 C6 1.384 . S
C5 C9 1.387 . S
C5 H32 0.930 . S
C6 C4 1.380 . S
C6 C5 1.384 . S
C6 H33 0.931 . S
C7 C4 1.374 . S
C7 C8 1.390 . S
C7 H34 0.930 . S
C8 C7 1.390 . S
C8 C9 1.391 . S
C8 H35 0.930 . S
C9 C5 1.387 . S
C9 C8 1.391 . S
C10 Tb0 2.825 . S
C10 C4 1.507 . S
C10 O23 1.238 . S
C10 O24 1.247 . S
O11 Tb0 2.347 . S
O11 C15 1.259 . S
O12 Eu1 2.418 . S
O12 C15 1.265 . S
O13 Eu1 2.384 . S
O13 C22 1.255 . S
O14 Tb0 2.366 . S
O14 C22 1.265 . S
C15 O11 1.259 . S
C15 O12 1.265 . S
O16 Eu1 2.479 1_655 S
O16 C31 1.238 . S
O17 Eu1 2.471 1_655 S
O17 C31 1.247 . S
O18 Eu1 2.347 . S
O18 C2 1.259 . S
O19 Tb0 2.418 . S
O19 C2 1.265 . S
O20 Tb0 2.384 1_655 S
O20 C3 1.255 . S
O21 Eu1 2.366 1_655 S
O21 C3 1.265 . S
C22 O13 1.255 . S
C22 O14 1.265 . S
O23 Tb0 2.479 . S
O23 C10 1.238 . S
O24 Tb0 2.471 . S
O24 C10 1.247 . S
C25 C28 1.380 . S
C25 C29 1.374 . S
C25 C31 1.507 . S
C26 C27 1.387 . S
C26 C30 1.391 . S
C27 C26 1.387 . S
C27 C28 1.384 . S
C27 H36 0.930 . S
C28 C25 1.380 . S
C28 C27 1.384 . S
C28 H37 0.931 . S
C29 C25 1.374 . S
C29 C30 1.390 . S
C29 H38 0.930 . S
C30 C26 1.391 . S
C30 C29 1.390 . S
C30 H39 0.930 . S
C31 Eu1 2.825 1_655 S
C31 O16 1.238 . S
C31 O17 1.247 . S
C31 C25 1.507 . S
H32 C5 0.930 . S
H33 C6 0.931 . S
H34 C7 0.930 . S
H35 C8 0.930 . S
H36 C27 0.930 . S
H37 C28 0.931 . S
H38 C29 0.930 . S
H39 C30 0.930 . S
Tb40 C50 2.825 . S
Tb40 O51 2.347 . S
Tb40 O54 2.366 . S
Tb40 O59 2.418 . S
Tb40 O60 2.384 1_545 S
Tb40 O63 2.479 . S
Tb40 O64 2.471 . S
Eu41 O52 2.418 . S
Eu41 O53 2.384 . S
Eu41 O56 2.479 1_545 S
Eu41 O57 2.471 1_545 S
Eu41 O58 2.347 . S
Eu41 O61 2.366 1_545 S
Eu41 C71 2.825 1_545 S
C42 O58 1.259 . S
C42 O59 1.265 . S
C43 O60 1.255 . S
C43 O61 1.265 . S
C44 C46 1.380 . S
C44 C47 1.374 . S
C44 C50 1.507 . S
C45 C46 1.384 . S
C45 C49 1.387 . S
C45 H72 0.930 . S
C46 C44 1.380 . S
C46 C45 1.384 . S
C46 H73 0.931 . S
C47 C44 1.374 . S
C47 C48 1.390 . S
C47 H74 0.930 . S
C48 C47 1.390 . S
C48 C49 1.391 . S
C48 H75 0.930 . S
C49 C45 1.387 . S
C49 C48 1.391 . S
C50 Tb40 2.825 . S
C50 C44 1.507 . S
C50 O63 1.238 . S
C50 O64 1.247 . S
O51 Tb40 2.347 . S
O51 C55 1.259 . S
O52 Eu41 2.418 . S
O52 C55 1.265 . S
O53 Eu41 2.384 . S
O53 C62 1.255 . S
O54 Tb40 2.366 . S
O54 C62 1.265 . S
C55 O51 1.259 . S
C55 O52 1.265 . S
O56 Eu41 2.479 1_565 S
O56 C71 1.238 . S
O57 Eu41 2.471 1_565 S
O57 C71 1.247 . S
O58 Eu41 2.347 . S
O58 C42 1.259 . S
O59 Tb40 2.418 . S
O59 C42 1.265 . S
O60 Tb40 2.384 1_565 S
O60 C43 1.255 . S
O61 Eu41 2.366 1_565 S
O61 C43 1.265 . S
C62 O53 1.255 . S
C62 O54 1.265 . S
O63 Tb40 2.479 . S
O63 C50 1.238 . S
O64 Tb40 2.471 . S
O64 C50 1.247 . S
C65 C68 1.380 . S
C65 C69 1.374 . S
C65 C71 1.507 . S
C66 C67 1.387 . S
C66 C70 1.391 . S
C67 C66 1.387 . S
C67 C68 1.384 . S
C67 H76 0.930 . S
C68 C65 1.380 . S
C68 C67 1.384 . S
C68 H77 0.931 . S
C69 C65 1.374 . S
C69 C70 1.390 . S
C69 H78 0.930 . S
C70 C66 1.391 . S
C70 C69 1.390 . S
C70 H79 0.930 . S
C71 Eu41 2.825 1_565 S
C71 O56 1.238 . S
C71 O57 1.247 . S
C71 C65 1.507 . S
H72 C45 0.930 . S
H73 C46 0.931 . S
H74 C47 0.930 . S
H75 C48 0.930 . S
H76 C67 0.930 . S
H77 C68 0.931 . S
H78 C69 0.930 . S
H79 C70 0.930 . S
Tb80 C90 2.825 . S
Tb80 O91 2.347 . S
Tb80 O94 2.366 . S
Tb80 O99 2.418 . S
Tb80 O100 2.384 . S
Tb80 O103 2.479 . S
Tb80 O104 2.471 . S
Eu81 O92 2.418 . S
Eu81 O93 2.384 . S
Eu81 O96 2.479 . S
Eu81 O97 2.471 . S
Eu81 O98 2.347 . S
Eu81 O101 2.366 . S
Eu81 C111 2.825 . S
C82 O98 1.259 . S
C82 O99 1.265 . S
C83 O100 1.255 . S
C83 O101 1.265 . S
C84 C86 1.380 . S
C84 C87 1.374 . S
C84 C90 1.507 . S
C85 C86 1.384 . S
C85 C89 1.387 . S
C85 H112 0.930 . S
C86 C84 1.380 . S
C86 C85 1.384 . S
C86 H113 0.931 . S
C87 C84 1.374 . S
C87 C88 1.390 . S
C87 H114 0.930 . S
C88 C87 1.390 . S
C88 C89 1.391 . S
C88 H115 0.930 . S
C89 C85 1.387 . S
C89 C88 1.391 . S
C90 Tb80 2.825 . S
C90 C84 1.507 . S
C90 O103 1.238 . S
C90 O104 1.247 . S
O91 Tb80 2.347 . S
O91 C95 1.259 . S
O92 Eu81 2.418 . S
O92 C95 1.265 . S
O93 Eu81 2.384 . S
O93 C102 1.255 . S
O94 Tb80 2.366 . S
O94 C102 1.265 . S
C95 O91 1.259 . S
C95 O92 1.265 . S
O96 Eu81 2.479 . S
O96 C111 1.238 . S
O97 Eu81 2.471 . S
O97 C111 1.247 . S
O98 Eu81 2.347 . S
O98 C82 1.259 . S
O99 Tb80 2.418 . S
O99 C82 1.265 . S
O100 Tb80 2.384 . S
O100 C83 1.255 . S
O101 Eu81 2.366 . S
O101 C83 1.265 . S
C102 O93 1.255 . S
C102 O94 1.265 . S
O103 Tb80 2.479 . S
O103 C90 1.238 . S
O104 Tb80 2.471 . S
O104 C90 1.247 . S
C105 C108 1.380 . S
C105 C109 1.374 . S
C105 C111 1.507 . S
C106 C107 1.387 . S
C106 C110 1.391 . S
C107 C106 1.387 . S
C107 C108 1.384 . S
C107 H116 0.930 . S
C108 C105 1.380 . S
C108 C107 1.384 . S
C108 H117 0.931 . S
C109 C105 1.374 . S
C109 C110 1.390 . S
C109 H118 0.930 . S
C110 C106 1.391 . S
C110 C109 1.390 . S
C110 H119 0.930 . S
C111 Eu81 2.825 . S
C111 O96 1.238 . S
C111 O97 1.247 . S
C111 C105 1.507 . S
H112 C85 0.930 . S
H113 C86 0.931 . S
H114 C87 0.930 . S
H115 C88 0.930 . S
H116 C107 0.930 . S
H117 C108 0.931 . S
H118 C109 0.930 . S
H119 C110 0.930 . S
H120 C125 0.928 1_565 S
H121 C128 0.930 . S
H122 C130 0.930 . S
H123 C124 1.016 . S
C124 H123 1.016 . S
C124 N131 1.286 . S
C125 H120 0.928 1_545 S
C125 C126 1.397 1_545 S
C125 C127 1.361 . S
C126 C125 1.397 1_565 S
C126 C130 1.390 . S
C127 C125 1.361 . S
C127 C128 1.393 . S
C127 N131 1.413 . S
C128 H121 0.930 . S
C128 C127 1.393 . S
C128 C129 1.399 . S
C129 C128 1.399 . S
C129 C130 1.381 1_545 S
C130 H122 0.930 . S
C130 C126 1.390 . S
C130 C129 1.381 1_565 S
N131 C124 1.286 . S
N131 C127 1.413 . S
H132 C137 0.930 . S
H133 C140 0.930 . S
H134 C142 0.930 . S
H135 C136 1.016 . S
C136 H135 1.016 . S
C136 N143 1.286 . S
C137 H132 0.930 . S
C137 C138 1.397 . S
C137 C139 1.361 . S
C138 C137 1.397 . S
C138 C142 1.390 . S
C139 C137 1.361 . S
C139 C140 1.393 . S
C139 N143 1.413 . S
C140 H133 0.930 . S
C140 C139 1.393 . S
C140 C141 1.399 . S
C141 C140 1.399 . S
C141 C142 1.381 . S
C142 H134 0.930 . S
C142 C138 1.390 . S
C142 C141 1.381 . S
N143 C136 1.286 . S
N143 C139 1.413 . S
H144 C149 0.930 . S
H145 C152 0.930 . S
H146 C154 0.930 . S
H147 C148 1.016 . S
C148 H147 1.016 . S
C148 N155 1.286 . S
C149 H144 0.930 . S
C149 C150 1.397 . S
C149 C151 1.361 1_655 S
C150 C149 1.397 . S
C150 C154 1.390 . S
C151 C149 1.361 1_455 S
C151 C152 1.393 . S
C151 N155 1.413 . S
C152 H145 0.930 . S
C152 C151 1.393 . S
C152 C153 1.399 . S
C153 C152 1.399 . S
C153 C154 1.381 1_455 S
C154 H146 0.930 . S
C154 C150 1.390 . S
C154 C153 1.381 1_655 S
N155 C148 1.286 . S
N155 C151 1.413 . S
H156 C161 0.930 . S
H157 C164 0.930 . S
H158 C166 0.930 . S
H159 C160 1.016 . S
C160 H159 1.016 . S
C160 N167 1.286 . S
C161 H156 0.930 . S
C161 C162 1.397 . S
C161 C163 1.361 . S
C162 C161 1.397 . S
C162 C166 1.390 . S
C163 C161 1.361 . S
C163 C164 1.393 1_455 S
C163 N167 1.413 1_455 S
C164 H157 0.930 . S
C164 C163 1.393 1_655 S
C164 C165 1.399 1_655 S
C165 C164 1.399 1_455 S
C165 C166 1.381 . S
C166 H158 0.930 . S
C166 C162 1.390 . S
C166 C165 1.381 . S
N167 C160 1.286 . S
N167 C163 1.413 1_655 S
H168 C173 0.930 . S
H169 C176 0.930 . S
H170 C178 0.930 . S
H171 C172 1.016 . S
C172 H171 1.016 . S
C172 N179 1.286 . S
C173 H168 0.930 . S
C173 C174 1.397 . S
C173 C175 1.362 1_545 S
C174 C173 1.397 . S
C174 C178 1.390 . S
C175 C173 1.362 1_565 S
C175 C176 1.393 . S
C175 N179 1.412 . S
C176 H169 0.930 . S
C176 C175 1.393 . S
C176 C177 1.399 1_565 S
C177 C176 1.399 1_545 S
C177 C178 1.381 . S
C178 H170 0.930 . S
C178 C174 1.390 . S
C178 C177 1.381 . S
N179 C172 1.286 . S
N179 C175 1.412 . S
H180 C185 0.930 . S
H181 C188 0.930 . S
H182 C190 0.930 . S
H183 C184 1.016 . S
C184 H183 1.016 . S
C184 N191 1.286 . S
C185 H180 0.930 . S
C185 C186 1.397 . S
C185 C187 1.361 . S
C186 C185 1.397 . S
C186 C190 1.390 . S
C187 C185 1.361 . S
C187 C188 1.393 . S
C187 N191 1.413 . S
C188 H181 0.930 . S
C188 C187 1.393 . S
C188 C189 1.399 . S
C189 C188 1.399 . S
C189 C190 1.381 . S
C190 H182 0.930 . S
C190 C186 1.390 . S
C190 C189 1.381 . S
N191 C184 1.286 . S
N191 C187 1.413 . S
C192 C193 1.363 . S
C192 C198 1.379 . S
C192 N200 1.356 . S
C193 C192 1.363 . S
C193 C199 1.363 . S
C194 C195 1.363 . S
C194 C199 1.379 . S
C194 N201 1.356 . S
C195 C194 1.363 . S
C195 C198 1.363 . S
N196 C198 1.356 . S
N196 H208 0.984 . S
N196 H209 0.985 . S
N197 C199 1.356 . S
N197 H202 0.984 . S
N197 H203 0.985 . S
C198 C192 1.379 . S
C198 C195 1.363 . S
C198 N196 1.356 . S
C199 C193 1.363 . S
C199 C194 1.379 . S
C199 N197 1.356 . S
N200 C192 1.356 . S
N200 H206 0.984 . S
N200 H207 0.984 . S
N201 C194 1.356 . S
N201 H204 0.984 . S
N201 H205 0.985 . S
H202 N197 0.984 . S
H203 N197 0.985 . S
H204 N201 0.984 . S
H205 N201 0.985 . S
H206 N200 0.984 . S
H207 N200 0.984 . S
H208 N196 0.984 . S
H209 N196 0.985 . S
C210 C211 1.363 . S
C210 C216 1.379 . S
C210 N218 1.356 . S
C211 C210 1.363 . S
C211 C217 1.363 . S
C212 C213 1.363 . S
C212 C217 1.379 . S
C212 N219 1.356 . S
C213 C212 1.363 . S
C213 C216 1.363 . S
N214 C216 1.356 . S
N214 H226 0.984 . S
N214 H227 0.985 . S
N215 C217 1.356 . S
N215 H220 0.984 . S
N215 H221 0.985 . S
C216 C210 1.379 . S
C216 C213 1.363 . S
C216 N214 1.356 . S
C217 C211 1.363 . S
C217 C212 1.379 . S
C217 N215 1.356 . S
N218 C210 1.356 . S
N218 H224 0.984 . S
N218 H225 0.984 . S
N219 C212 1.356 . S
N219 H222 0.984 . S
N219 H223 0.985 . S
H220 N215 0.984 . S
H221 N215 0.985 . S
H222 N219 0.984 . S
H223 N219 0.985 . S
H224 N218 0.984 . S
H225 N218 0.984 . S
H226 N214 0.984 . S
H227 N214 0.985 . S
C228 C229 1.363 . S
C228 C234 1.379 . S
C228 N236 1.356 . S
C229 C228 1.363 . S
C229 C235 1.363 . S
C230 C231 1.363 . S
C230 C235 1.379 . S
C230 N237 1.356 . S
C231 C230 1.363 . S
C231 C234 1.363 . S
N232 C234 1.356 . S
N232 H244 0.984 . S
N232 H245 0.985 . S
N233 C235 1.356 . S
N233 H238 0.984 . S
N233 H239 0.985 . S
C234 C228 1.379 . S
C234 C231 1.363 . S
C234 N232 1.356 . S
C235 C229 1.363 . S
C235 C230 1.379 . S
C235 N233 1.356 . S
N236 C228 1.356 . S
N236 H242 0.984 . S
N236 H243 0.984 . S
N237 C230 1.356 . S
N237 H240 0.984 . S
N237 H241 0.985 . S
H238 N233 0.984 . S
H239 N233 0.985 . S
H240 N237 0.984 . S
H241 N237 0.985 . S
H242 N236 0.984 . S
H243 N236 0.984 . S
H244 N232 0.984 . S
H245 N232 0.985 . S
C246 C247 1.363 . S
C246 C252 1.379 . S
C246 N254 1.356 . S
C247 C246 1.363 . S
C247 C253 1.363 . S
C248 C249 1.363 . S
C248 C253 1.379 . S
C248 N255 1.356 . S
C249 C248 1.363 . S
C249 C252 1.363 . S
N250 C252 1.356 . S
N250 H262 0.984 . S
N250 H263 0.985 . S
N251 C253 1.356 . S
N251 H256 0.984 . S
N251 H257 0.985 . S
C252 C246 1.379 . S
C252 C249 1.363 . S
C252 N250 1.356 . S
C253 C247 1.363 . S
C253 C248 1.379 . S
C253 N251 1.356 . S
N254 C246 1.356 . S
N254 H260 0.984 . S
N254 H261 0.984 . S
N255 C248 1.356 . S
N255 H258 0.984 . S
N255 H259 0.985 . S
H256 N251 0.984 . S
H257 N251 0.985 . S
H258 N255 0.984 . S
H259 N255 0.985 . S
H260 N254 0.984 . S
H261 N254 0.984 . S
H262 N250 0.984 . S
H263 N250 0.985 . S
C264 C265 1.363 . S
C264 C270 1.379 . S
C264 N272 1.356 . S
C265 C264 1.363 . S
C265 C271 1.363 . S
C266 C267 1.363 . S
C266 C271 1.379 . S
C266 N273 1.356 . S
C267 C266 1.363 . S
C267 C270 1.363 . S
N268 C270 1.356 . S
N268 H280 0.984 . S
N268 H281 0.985 . S
N269 C271 1.356 . S
N269 H274 0.984 . S
N269 H275 0.985 . S
C270 C264 1.379 . S
C270 C267 1.363 . S
C270 N268 1.356 . S
C271 C265 1.363 . S
C271 C266 1.379 . S
C271 N269 1.356 . S
N272 C264 1.356 . S
N272 H278 0.984 . S
N272 H279 0.984 . S
N273 C266 1.356 . S
N273 H276 0.984 . S
N273 H277 0.985 . S
H274 N269 0.984 . S
H275 N269 0.985 . S
H276 N273 0.984 . S
H277 N273 0.985 . S
H278 N272 0.984 . S
H279 N272 0.984 . S
H280 N268 0.984 . S
H281 N268 0.985 . S
C282 C283 1.363 . S
C282 C288 1.379 . S
C282 N290 1.356 . S
C283 C282 1.363 . S
C283 C289 1.363 . S
C284 C285 1.363 . S
C284 C289 1.379 . S
C284 N291 1.356 . S
C285 C284 1.363 . S
C285 C288 1.363 . S
N286 C288 1.356 . S
N286 H298 0.984 . S
N286 H299 0.985 . S
N287 C289 1.356 . S
N287 H292 0.984 . S
N287 H293 0.985 . S
C288 C282 1.379 . S
C288 C285 1.363 . S
C288 N286 1.356 . S
C289 C283 1.363 . S
C289 C284 1.379 . S
C289 N287 1.356 . S
N290 C282 1.356 . S
N290 H296 0.984 . S
N290 H297 0.984 . S
N291 C284 1.356 . S
N291 H294 0.984 . S
N291 H295 0.985 . S
H292 N287 0.984 . S
H293 N287 0.985 . S
H294 N291 0.984 . S
H295 N291 0.985 . S
H296 N290 0.984 . S
H297 N290 0.984 . S
H298 N286 0.984 . S
H299 N286 0.985 . S
C300 C301 1.363 . S
C300 C306 1.379 . S
C300 N308 1.356 . S
C301 C300 1.363 . S
C301 C307 1.363 . S
C302 C303 1.363 . S
C302 C307 1.379 . S
C302 N309 1.356 . S
C303 C302 1.363 . S
C303 C306 1.363 . S
N304 C306 1.356 . S
N304 H316 0.984 . S
N304 H317 0.985 . S
N305 C307 1.356 . S
N305 H310 0.984 . S
N305 H311 0.985 . S
C306 C300 1.379 . S
C306 C303 1.363 . S
C306 N304 1.356 . S
C307 C301 1.363 . S
C307 C302 1.379 . S
C307 N305 1.356 . S
N308 C300 1.356 . S
N308 H314 0.984 . S
N308 H315 0.984 . S
N309 C302 1.356 . S
N309 H312 0.984 . S
N309 H313 0.985 . S
H310 N305 0.984 . S
H311 N305 0.985 . S
H312 N309 0.984 . S
H313 N309 0.985 . S
H314 N308 0.984 . S
H315 N308 0.984 . S
H316 N304 0.984 . S
H317 N304 0.985 . S
C318 C319 1.363 . S
C318 C324 1.379 . S
C318 N326 1.356 . S
C319 C318 1.363 . S
C319 C325 1.363 . S
C320 C321 1.363 . S
C320 C325 1.379 . S
C320 N327 1.356 . S
C321 C320 1.363 . S
C321 C324 1.363 . S
N322 C324 1.356 . S
N322 H334 0.984 . S
N322 H335 0.985 . S
N323 C325 1.356 . S
N323 H328 0.984 . S
N323 H329 0.985 . S
C324 C318 1.379 . S
C324 C321 1.363 . S
C324 N322 1.356 . S
C325 C319 1.363 . S
C325 C320 1.379 . S
C325 N323 1.356 . S
N326 C318 1.356 . S
N326 H332 0.984 . S
N326 H333 0.984 . S
N327 C320 1.356 . S
N327 H330 0.984 . S
N327 H331 0.985 . S
H328 N323 0.984 . S
H329 N323 0.985 . S
H330 N327 0.984 . S
H331 N327 0.985 . S
H332 N326 0.984 . S
H333 N326 0.984 . S
H334 N322 0.984 . S
H335 N322 0.985 . S
C336 C337 1.363 . S
C336 C342 1.379 . S
C336 N344 1.356 . S
C337 C336 1.363 . S
C337 C343 1.363 . S
C338 C339 1.363 . S
C338 C343 1.379 . S
C338 N345 1.356 . S
C339 C338 1.363 . S
C339 C342 1.363 . S
N340 C342 1.356 . S
N340 H352 0.984 . S
N340 H353 0.985 . S
N341 C343 1.356 . S
N341 H346 0.984 . S
N341 H347 0.985 . S
C342 C336 1.379 . S
C342 C339 1.363 . S
C342 N340 1.356 . S
C343 C337 1.363 . S
C343 C338 1.379 . S
C343 N341 1.356 . S
N344 C336 1.356 . S
N344 H350 0.984 . S
N344 H351 0.984 . S
N345 C338 1.356 . S
N345 H348 0.984 . S
N345 H349 0.985 . S
H346 N341 0.984 . S
H347 N341 0.985 . S
H348 N345 0.984 . S
H349 N345 0.985 . S
H350 N344 0.984 . S
H351 N344 0.984 . S
H352 N340 0.984 . S
H353 N340 0.985 . S
C354 C355 1.363 . S
C354 C360 1.379 . S
C354 N362 1.356 . S
C355 C354 1.363 . S
C355 C361 1.363 . S
C356 C357 1.363 . S
C356 C361 1.379 . S
C356 N363 1.356 . S
C357 C356 1.363 . S
C357 C360 1.363 . S
N358 C360 1.356 . S
N358 H370 0.984 . S
N358 H371 0.985 . S
N359 C361 1.356 . S
N359 H364 0.984 . S
N359 H365 0.985 . S
C360 C354 1.379 . S
C360 C357 1.363 . S
C360 N358 1.356 . S
C361 C355 1.363 . S
C361 C356 1.379 . S
C361 N359 1.356 . S
N362 C354 1.356 . S
N362 H368 0.984 . S
N362 H369 0.984 . S
N363 C356 1.356 . S
N363 H366 0.984 . S
N363 H367 0.985 . S
H364 N359 0.984 . S
H365 N359 0.985 . S
H366 N363 0.984 . S
H367 N363 0.985 . S
H368 N362 0.984 . S
H369 N362 0.984 . S
H370 N358 0.984 . S
H371 N358 0.985 . S
C372 C373 1.363 . S
C372 C378 1.379 . S
C372 N380 1.356 . S
C373 C372 1.363 . S
C373 C379 1.363 . S
C374 C375 1.363 . S
C374 C379 1.379 . S
C374 N381 1.356 . S
C375 C374 1.363 . S
C375 C378 1.363 . S
N376 C378 1.356 . S
N376 H388 0.984 . S
N376 H389 0.985 . S
N377 C379 1.356 . S
N377 H382 0.984 . S
N377 H383 0.985 . S
C378 C372 1.379 . S
C378 C375 1.363 . S
C378 N376 1.356 . S
C379 C373 1.363 . S
C379 C374 1.379 . S
C379 N377 1.356 . S
N380 C372 1.356 . S
N380 H386 0.984 . S
N380 H387 0.984 . S
N381 C374 1.356 . S
N381 H384 0.984 . S
N381 H385 0.985 . S
H382 N377 0.984 . S
H383 N377 0.985 . S
H384 N381 0.984 . S
H385 N381 0.985 . S
H386 N380 0.984 . S
H387 N380 0.984 . S
H388 N376 0.984 . S
H389 N376 0.985 . S
C390 C391 1.363 . S
C390 C396 1.379 . S
C390 N398 1.356 . S
C391 C390 1.363 . S
C391 C397 1.363 . S
C392 C393 1.363 . S
C392 C397 1.379 . S
C392 N399 1.356 . S
C393 C392 1.363 . S
C393 C396 1.363 . S
N394 C396 1.356 . S
N394 H406 0.984 . S
N394 H407 0.985 . S
N395 C397 1.356 . S
N395 H400 0.984 . S
N395 H401 0.985 . S
C396 C390 1.379 . S
C396 C393 1.363 . S
C396 N394 1.356 . S
C397 C391 1.363 . S
C397 C392 1.379 . S
C397 N395 1.356 . S
N398 C390 1.356 . S
N398 H404 0.984 . S
N398 H405 0.984 . S
N399 C392 1.356 . S
N399 H402 0.984 . S
N399 H403 0.985 . S
H400 N395 0.984 . S
H401 N395 0.985 . S
H402 N399 0.984 . S
H403 N399 0.985 . S
H404 N398 0.984 . S
H405 N398 0.984 . S
H406 N394 0.984 . S
H407 N394 0.985 . S
C408 C409 1.363 . S
C408 C414 1.379 1_554 S
C408 N416 1.356 . S
C409 C408 1.363 . S
C409 C415 1.363 . S
C410 C411 1.363 1_554 S
C410 C415 1.379 . S
C410 N417 1.356 1_554 S
C411 C410 1.363 1_556 S
C411 C414 1.363 . S
N412 C414 1.356 . S
N412 H424 0.984 . S
N412 H425 0.985 . S
N413 C415 1.356 . S
N413 H418 0.984 . S
N413 H419 0.985 . S
C414 C408 1.379 1_556 S
C414 C411 1.363 . S
C414 N412 1.356 . S
C415 C409 1.363 . S
C415 C410 1.379 . S
C415 N413 1.356 . S
N416 C408 1.356 . S
N416 H422 0.984 . S
N416 H423 0.984 . S
N417 C410 1.356 1_556 S
N417 H420 0.984 . S
N417 H421 0.985 . S
H418 N413 0.984 . S
H419 N413 0.985 . S
H420 N417 0.984 . S
H421 N417 0.985 . S
H422 N416 0.984 . S
H423 N416 0.984 . S
H424 N412 0.984 . S
H425 N412 0.985 . S
C426 C427 1.363 . S
C426 C432 1.379 . S
C426 N434 1.356 . S
C427 C426 1.363 . S
C427 C433 1.363 . S
C428 C429 1.363 . S
C428 C433 1.379 . S
C428 N435 1.356 . S
C429 C428 1.363 . S
C429 C432 1.363 . S
N430 C432 1.356 . S
N430 H442 0.984 . S
N430 H443 0.985 . S
N431 C433 1.356 . S
N431 H436 0.984 . S
N431 H437 0.985 . S
C432 C426 1.379 . S
C432 C429 1.363 . S
C432 N430 1.356 . S
C433 C427 1.363 . S
C433 C428 1.379 . S
C433 N431 1.356 . S
N434 C426 1.356 . S
N434 H440 0.984 . S
N434 H441 0.984 . S
N435 C428 1.356 . S
N435 H438 0.984 . S
N435 H439 0.985 . S
H436 N431 0.984 . S
H437 N431 0.985 . S
H438 N435 0.984 . S
H439 N435 0.985 . S
H440 N434 0.984 . S
H441 N434 0.984 . S
H442 N430 0.984 . S
H443 N430 0.985 . S
C444 C445 1.363 . S
C444 C450 1.379 . S
C444 N452 1.356 . S
C445 C444 1.363 . S
C445 C451 1.363 . S
C446 C447 1.363 . S
C446 C451 1.379 . S
C446 N453 1.356 . S
C447 C446 1.363 . S
C447 C450 1.363 . S
N448 C450 1.356 . S
N448 H460 0.984 . S
N448 H461 0.985 . S
N449 C451 1.356 . S
N449 H454 0.984 . S
N449 H455 0.985 . S
C450 C444 1.379 . S
C450 C447 1.363 . S
C450 N448 1.356 . S
C451 C445 1.363 . S
C451 C446 1.379 . S
C451 N449 1.356 . S
N452 C444 1.356 . S
N452 H458 0.984 . S
N452 H459 0.984 . S
N453 C446 1.356 . S
N453 H456 0.984 . S
N453 H457 0.985 . S
H454 N449 0.984 . S
H455 N449 0.985 . S
H456 N453 0.984 . S
H457 N453 0.985 . S
H458 N452 0.984 . S
H459 N452 0.984 . S
H460 N448 0.984 . S
H461 N448 0.985 . S
C462 C463 1.363 . S
C462 C468 1.379 1_545 S
C462 N470 1.356 1_545 S
C463 C462 1.363 . S
C463 C469 1.363 . S
C464 C465 1.363 . S
C464 C469 1.379 . S
C464 N471 1.356 . S
C465 C464 1.363 . S
C465 C468 1.363 1_545 S
N466 C468 1.356 . S
N466 H478 0.984 . S
N466 H479 0.985 . S
N467 C469 1.356 . S
N467 H472 0.984 . S
N467 H473 0.985 . S
C468 C462 1.379 1_565 S
C468 C465 1.363 1_565 S
C468 N466 1.356 . S
C469 C463 1.363 . S
C469 C464 1.379 . S
C469 N467 1.356 . S
N470 C462 1.356 1_565 S
N470 H476 0.984 . S
N470 H477 0.981 1_565 S
N471 C464 1.356 . S
N471 H474 0.984 . S
N471 H475 0.985 . S
H472 N467 0.984 . S
H473 N467 0.985 . S
H474 N471 0.984 . S
H475 N471 0.985 . S
H476 N470 0.984 . S
H477 N470 0.981 1_545 S
H478 N466 0.984 . S
H479 N466 0.985 . S
C480 C481 1.363 . S
C480 C486 1.379 . S
C480 N488 1.356 . S
C481 C480 1.363 . S
C481 C487 1.363 . S
C482 C483 1.363 . S
C482 C487 1.379 1_554 S
C482 N489 1.356 . S
C483 C482 1.363 . S
C483 C486 1.363 1_554 S
N484 C486 1.356 1_554 S
N484 H496 0.984 . S
N484 H497 0.985 . S
N485 C487 1.356 . S
N485 H490 0.984 . S
N485 H491 0.985 . S
C486 C480 1.379 . S
C486 C483 1.363 1_556 S
C486 N484 1.356 1_556 S
C487 C481 1.363 . S
C487 C482 1.379 1_556 S
C487 N485 1.356 . S
N488 C480 1.356 . S
N488 H494 0.984 . S
N488 H495 0.984 . S
N489 C482 1.356 . S
N489 H492 0.984 . S
N489 H493 0.985 . S
H490 N485 0.984 . S
H491 N485 0.985 . S
H492 N489 0.984 . S
H493 N489 0.985 . S
H494 N488 0.984 . S
H495 N488 0.984 . S
H496 N484 0.984 . S
H497 N484 0.985 . S
C498 C499 1.363 . S
C498 C504 1.379 1_455 S
C498 N506 1.356 1_455 S
C499 C498 1.363 . S
C499 C505 1.363 . S
C500 C501 1.363 . S
C500 C505 1.379 . S
C500 N507 1.356 . S
C501 C500 1.363 . S
C501 C504 1.363 1_455 S
N502 C504 1.356 . S
N502 H514 0.984 . S
N502 H515 0.985 . S
N503 C505 1.356 . S
N503 H508 0.984 . S
N503 H509 0.985 . S
C504 C498 1.379 1_655 S
C504 C501 1.363 1_655 S
C504 N502 1.356 . S
C505 C499 1.363 . S
C505 C500 1.379 . S
C505 N503 1.356 . S
N506 C498 1.356 1_655 S
N506 H512 0.984 . S
N506 H513 0.984 . S
N507 C500 1.356 . S
N507 H510 0.984 . S
N507 H511 0.985 . S
H508 N503 0.984 . S
H509 N503 0.985 . S
H510 N507 0.984 . S
H511 N507 0.985 . S
H512 N506 0.984 . S
H513 N506 0.984 . S
H514 N502 0.984 . S
H515 N502 0.985 . S
C193 C9 0.897 . S
C195 C186 0.943 . S
C211 C49 0.674 . S
C213 C160 0.628 . S
C229 C89 0.626 . S
C231 C172 0.561 . S
C247 C26 0.652 . S
C249 C184 0.543 . S
C267 C162 0.542 . S
C265 C66 0.652 . S
C285 C174 0.590 . S
C283 C106 0.678 . S
C301 C43 3.084 . S
C303 C136 2.998 . S
C319 C83 3.303 . S
C321 C150 3.281 . S
C337 C22 3.084 . S
C339 C126 3.027 . S
C357 C138 3.031 . S
C355 C62 3.086 . S
C375 C148 2.768 . S
C373 C102 2.903 . S
C391 C3 3.085 . S
C393 C124 3.004 . S
C411 C153 1.833 . S
C409 C15 1.741 . S
C427 C55 1.774 . S
C429 C129 1.794 . S
C445 C95 1.754 . S
C447 C141 1.778 . S
C465 C177 1.125 . S
C463 C42 1.100 . S
C483 C189 1.156 . S
C481 C82 1.146 . S
C499 C2 1.095 . S
C501 C165 1.107 . S
