# Generated by pormake.
# Topology nom, (4,4)-cn, num edge types: 1
# Building blocks:
#     Node 0, Type 0, BuildingBlock: KUFVIS_clean_linker_0, # of connection points: 4
#     Node 1, Type 0, BuildingBlock: KUFVIS_clean_linker_0, # of connection points: 4
#     Node 2, Type 0, BuildingBlock: KUFVIS_clean_linker_0, # of connection points: 4
#     Node 3, Type 0, BuildingBlock: KUFVIS_clean_linker_0, # of connection points: 4
#     Node 4, Type 0, BuildingBlock: KUFVIS_clean_linker_0, # of connection points: 4
#     Node 5, Type 0, BuildingBlock: KUFVIS_clean_linker_0, # of connection points: 4
#     Node 6, Type 1, BuildingBlock: GALJAG_clean_sbu_0, # of connection points: 4
#     Node 7, Type 1, BuildingBlock: GALJAG_clean_sbu_0, # of connection points: 4
#     Node 8, Type 1, BuildingBlock: GALJAG_clean_sbu_0, # of connection points: 4
#     Node 9, Type 1, BuildingBlock: GALJAG_clean_sbu_0, # of connection points: 4
#     Node 10, Type 1, BuildingBlock: GALJAG_clean_sbu_0, # of connection points: 4
#     Node 11, Type 1, BuildingBlock: GALJAG_clean_sbu_0, # of connection points: 4
#     Edge 12, Type (0, 1), BuildingBlock: MIFKUJ_clean_linker_0, # of connection points: 2
#     Edge 13, Type (0, 1), BuildingBlock: MIFKUJ_clean_linker_0, # of connection points: 2
#     Edge 14, Type (0, 1), BuildingBlock: MIFKUJ_clean_linker_0, # of connection points: 2
#     Edge 15, Type (0, 1), BuildingBlock: MIFKUJ_clean_linker_0, # of connection points: 2
#     Edge 16, Type (0, 1), BuildingBlock: MIFKUJ_clean_linker_0, # of connection points: 2
#     Edge 17, Type (0, 1), BuildingBlock: MIFKUJ_clean_linker_0, # of connection points: 2
#     Edge 18, Type (0, 1), BuildingBlock: MIFKUJ_clean_linker_0, # of connection points: 2
#     Edge 19, Type (0, 1), BuildingBlock: MIFKUJ_clean_linker_0, # of connection points: 2
#     Edge 20, Type (0, 1), BuildingBlock: MIFKUJ_clean_linker_0, # of connection points: 2
#     Edge 21, Type (0, 1), BuildingBlock: MIFKUJ_clean_linker_0, # of connection points: 2
#     Edge 22, Type (0, 1), BuildingBlock: MIFKUJ_clean_linker_0, # of connection points: 2
#     Edge 23, Type (0, 1), BuildingBlock: MIFKUJ_clean_linker_0, # of connection points: 2
#     Edge 24, Type (0, 1), BuildingBlock: MIFKUJ_clean_linker_0, # of connection points: 2
#     Edge 25, Type (0, 1), BuildingBlock: MIFKUJ_clean_linker_0, # of connection points: 2
#     Edge 26, Type (0, 1), BuildingBlock: MIFKUJ_clean_linker_0, # of connection points: 2
#     Edge 27, Type (0, 1), BuildingBlock: MIFKUJ_clean_linker_0, # of connection points: 2
#     Edge 28, Type (0, 1), BuildingBlock: MIFKUJ_clean_linker_0, # of connection points: 2
#     Edge 29, Type (0, 1), BuildingBlock: MIFKUJ_clean_linker_0, # of connection points: 2
#     Edge 30, Type (0, 1), BuildingBlock: MIFKUJ_clean_linker_0, # of connection points: 2
#     Edge 31, Type (0, 1), BuildingBlock: MIFKUJ_clean_linker_0, # of connection points: 2
#     Edge 32, Type (0, 1), BuildingBlock: MIFKUJ_clean_linker_0, # of connection points: 2
#     Edge 33, Type (0, 1), BuildingBlock: MIFKUJ_clean_linker_0, # of connection points: 2
#     Edge 34, Type (0, 1), BuildingBlock: MIFKUJ_clean_linker_0, # of connection points: 2
#     Edge 35, Type (0, 1), BuildingBlock: MIFKUJ_clean_linker_0, # of connection points: 2
# Relax obj value: 0.012
# Max RMSD: 0.070
# Mean RMSD: 0.062
data_MOF--net-nom--node1-GALJAG_clean_sbu_0--node2-KUFVIS_clean_linker_0--edge1-MIFKUJ_clean_linker_0
_symmetry_space_group_name_H-M    P1
_symmetry_Int_Tables_number       1
_symmetry_cell_setting            triclinic
loop_
_symmetry_equiv_pos_as_xyz
'x, y, z'
_cell_length_a     58.68842
_cell_length_b     58.531045
_cell_length_c     61.413149
_cell_angle_alpha  90.008326
_cell_angle_beta   90.002395
_cell_angle_gamma 120.1112
loop_
_atom_site_label
_atom_site_type_symbol
_atom_site_fract_x
_atom_site_fract_y
_atom_site_fract_z
_atom_type_partial_charge
H0 H 0.11347 0.58378 0.35019 0.0
H1 H 0.05951 0.57817 0.30069 0.0
H2 H 0.0308 0.54185 0.3638 0.0
H3 H 0.9982 0.55011 0.356 0.0
H4 H 0.94159 0.52442 0.30442 0.0
H5 H 0.02057 0.54346 0.28997 0.0
C6 C 0.09337 0.57623 0.34472 0.0
C7 C 0.07265 0.56227 0.35933 0.0
C8 C 0.08878 0.58157 0.32347 0.0
C9 C 0.0628 0.57323 0.31693 0.0
C10 C 0.04132 0.5586 0.33123 0.0
C11 C 0.04668 0.55332 0.35252 0.0
C12 C 1.01349 0.54882 0.32391 0.0
C13 C 0.99369 0.54552 0.33892 0.0
C14 C 0.9678 0.53656 0.33185 0.0
C15 C 0.96168 0.53153 0.3098 0.0
C16 C 0.98068 0.53423 0.29473 0.0
C17 C 1.00637 0.54236 0.30179 0.0
H18 H 0.54944 0.10854 0.51283 0.0
H19 H 0.50286 0.0509 0.46454 0.0
H20 H 0.50663 0.02689 0.53062 0.0
H21 H 0.46595 0.99315 0.52154 0.0
H22 H 0.44471 0.93217 0.47401 0.0
H23 H 0.50203 0.01192 0.4576 0.0
C24 C 0.53665 0.08805 0.5082 0.0
C25 C 0.5287 0.06839 0.524 0.0
C26 C 0.52759 0.08189 0.48676 0.0
C27 C 0.51019 0.05542 0.48108 0.0
C28 C 0.50259 0.03497 0.49666 0.0
C29 C 0.51184 0.04191 0.51827 0.0
C30 C 0.48586 1.00651 0.49027 0.0
C31 C 0.46836 0.9874 0.50533 0.0
C32 C 0.4535 0.96065 0.49941 0.0
C33 C 0.45609 0.95288 0.47848 0.0
C34 C 0.47344 0.97125 0.46337 0.0
C35 C 0.48812 0.99801 0.46923 0.0
H36 H 0.5441 0.4517 0.6371 0.0
H37 H 0.50422 0.46955 0.68709 0.0
H38 H 0.51353 0.50281 0.62255 0.0
H39 H 0.4716 0.49663 0.63333 0.0
H40 H 0.46184 0.54385 0.68193 0.0
H41 H 0.5131 0.51314 0.69478 0.0
C42 C 0.5337 0.4617 0.64237 0.0
C43 C 0.52967 0.4774 0.6275 0.0
C44 C 0.52442 0.45851 0.6638 0.0
C45 C 0.51152 0.47208 0.67055 0.0
C46 C 0.50731 0.48818 0.65578 0.0
C47 C 0.51623 0.49038 0.63411 0.0
C48 C 0.49419 0.50314 0.66304 0.0
C49 C 0.47653 0.50606 0.64917 0.0
C50 C 0.46444 0.52039 0.65605 0.0
C51 C 0.47076 0.53245 0.67656 0.0
C52 C 0.48808 0.52977 0.69051 0.0
C53 C 0.49955 0.51491 0.68388 0.0
H54 H 0.11424 0.53911 0.80811 0.0
H55 H 0.055 0.49602 0.8561 0.0
H56 H 0.03276 0.50307 0.7902 0.0
H57 H 0.99654 0.46294 0.79971 0.0
H58 H 0.93769 0.44787 0.84793 0.0
H59 H 0.01887 0.50015 0.86314 0.0
C60 C 0.09356 0.52757 0.8125 0.0
C61 C 0.07424 0.52172 0.79671 0.0
C62 C 0.08666 0.5184 0.83381 0.0
C63 C 0.05999 0.50324 0.83955 0.0
C64 C 0.03999 0.49764 0.82403 0.0
C65 C 0.0475 0.50675 0.80243 0.0
C66 C 1.01153 0.48334 0.83057 0.0
C67 C 0.9915 0.46651 0.81583 0.0
C68 C 0.96484 0.45352 0.82211 0.0
C69 C 0.95822 0.45771 0.84305 0.0
C70 C 0.97759 0.47423 0.85787 0.0
C71 C 1.00415 0.48691 0.85165 0.0
H72 H 0.52517 0.93941 0.01659 0.0
H73 H 0.55618 0.99411 0.96323 0.0
H74 H 0.54881 0.02052 0.02737 0.0
H75 H 0.58915 0.05653 0.01533 0.0
H76 H 0.59589 0.11109 0.96566 0.0
H77 H 0.5465 0.02794 0.95469 0.0
C78 C 0.53361 0.95935 0.01029 0.0
C79 C 0.53684 0.9795 0.02434 0.0
C80 C 0.54027 0.96428 0.98823 0.0
C81 C 0.55052 0.99015 0.9802 0.0
C82 C 0.55424 1.01095 0.99426 0.0
C83 C 0.54683 1.00517 0.01635 0.0
C84 C 0.56604 0.03869 0.98614 0.0
C85 C 0.58353 0.06014 0.99945 0.0
C86 C 0.5946 0.08629 0.99204 0.0
C87 C 0.58765 0.09094 0.9714 0.0
C88 C 0.57053 0.07011 0.95787 0.0
C89 C 0.55994 0.04397 0.96516 0.0
H90 H 0.50121 0.58356 0.13671 0.0
H91 H 0.55213 0.58003 0.18481 0.0
H92 H 0.5463 0.54688 0.12048 0.0
H93 H 0.58744 0.55662 0.12784 0.0
H94 H 0.62034 0.5306 0.1776 0.0
H95 H 0.55903 0.54669 0.19431 0.0
C96 C 0.5148 0.57703 0.14156 0.0
C97 C 0.52284 0.56487 0.12622 0.0
C98 C 0.52494 0.58215 0.16272 0.0
C99 C 0.54378 0.57515 0.1686 0.0
C100 C 0.55168 0.56197 0.15365 0.0
C101 C 0.541 0.55709 0.13234 0.0
C102 C 0.57088 0.55334 0.16023 0.0
C103 C 0.58776 0.55146 0.14471 0.0
C104 C 0.60559 0.54325 0.15091 0.0
C105 C 0.60705 0.53753 0.1728 0.0
C106 C 0.59064 0.53912 0.18846 0.0
C107 C 0.57225 0.54649 0.18211 0.0
In108 In 0.64865 0.39872 0.40757 0.0
O109 O 0.69179 0.42525 0.41735 0.0
O110 O 0.68401 0.40442 0.38747 0.0
C111 C 0.62798 0.41127 0.44178 0.0
C112 C 0.63672 0.42104 0.37417 0.0
C113 C 0.62859 0.34609 0.41405 0.0
O114 O 0.65213 0.41843 0.44058 0.0
O115 O 0.61426 0.39728 0.42606 0.0
O116 O 0.61816 0.35513 0.40132 0.0
O117 O 0.64919 0.36351 0.42333 0.0
C118 C 0.70113 0.42044 0.4006 0.0
O119 O 0.63319 0.39793 0.37307 0.0
O120 O 0.64648 0.43278 0.39187 0.0
In121 In 0.27242 0.64292 0.57634 0.0
O122 O 0.29828 0.6265 0.5636 0.0
O123 O 0.29661 0.63086 0.59769 0.0
C124 C 0.23577 0.62637 0.54437 0.0
C125 C 0.23751 0.62231 0.6094 0.0
C126 C 0.30466 0.69579 0.57053 0.0
O127 O 0.25179 0.61804 0.54617 0.0
O128 O 0.23856 0.64331 0.5584 0.0
O129 O 0.29474 0.68582 0.58874 0.0
O130 O 0.29868 0.67915 0.55544 0.0
C131 C 0.30556 0.62358 0.5822 0.0
O132 O 0.25266 0.64689 0.60705 0.0
O133 O 0.24025 0.60821 0.59526 0.0
In134 In 0.65005 0.27058 0.74215 0.0
O135 O 0.69178 0.3005 0.72979 0.0
O136 O 0.68782 0.28691 0.76224 0.0
C137 C 0.63159 0.23685 0.70811 0.0
C138 C 0.63011 0.23318 0.77358 0.0
C139 C 0.63017 0.30353 0.73827 0.0
O140 O 0.65597 0.25121 0.71185 0.0
O141 O 0.61683 0.23985 0.72131 0.0
O142 O 0.63768 0.29933 0.75633 0.0
O143 O 0.63324 0.29168 0.72243 0.0
C144 C 0.70315 0.30121 0.74741 0.0
O145 O 0.62594 0.25237 0.77329 0.0
O146 O 0.64451 0.23322 0.75834 0.0
In147 In 0.40419 0.64638 0.90834 0.0
O148 O 0.36147 0.61234 0.9113 0.0
O149 O 0.36734 0.64934 0.9009 0.0
C150 C 0.42413 0.63103 0.94124 0.0
C151 C 0.41909 0.63004 0.87249 0.0
C152 C 0.42595 0.69889 0.91551 0.0
O153 O 0.40155 0.62873 0.94222 0.0
O154 O 0.43666 0.64151 0.92396 0.0
O155 O 0.41896 0.68877 0.89679 0.0
O156 O 0.4216 0.68252 0.93059 0.0
C157 C 0.35107 0.62552 0.9051 0.0
O158 O 0.42937 0.6541 0.87753 0.0
O159 O 0.40094 0.61456 0.88505 0.0
In160 In 0.78032 0.40197 0.07624 0.0
O161 O 0.80322 0.39824 0.10488 0.0
O162 O 0.80525 0.43515 0.10009 0.0
C163 C 0.74908 0.34926 0.06897 0.0
C164 C 0.74675 0.42102 0.07926 0.0
C165 C 0.81814 0.42031 0.04528 0.0
O166 O 0.75339 0.35918 0.08778 0.0
O167 O 0.76009 0.36585 0.05393 0.0
O168 O 0.79873 0.42401 0.04449 0.0
O169 O 0.81835 0.40728 0.06156 0.0
C170 C 0.81248 0.42178 0.1112 0.0
O171 O 0.76161 0.42544 0.06306 0.0
O172 O 0.74842 0.40658 0.09368 0.0
In173 In 0.4039 0.77786 0.24052 0.0
O174 O 0.43525 0.76605 0.24545 0.0
O175 O 0.40174 0.74061 0.22641 0.0
C176 C 0.42029 0.81329 0.27369 0.0
C177 C 0.42186 0.80855 0.20452 0.0
C178 C 0.35164 0.74576 0.24791 0.0
O179 O 0.42078 0.79204 0.27481 0.0
O180 O 0.41138 0.8165 0.25605 0.0
O181 O 0.36041 0.75955 0.2309 0.0
O182 O 0.36916 0.74801 0.26106 0.0
C183 C 0.42344 0.7451 0.23439 0.0
O184 O 0.39881 0.79978 0.21173 0.0
O185 O 0.43558 0.80141 0.21518 0.0
H186 H 0.12917 0.57228 0.3167 0.0
H187 H 0.17124 0.60127 0.29898 0.0
H188 H 0.143 0.6533 0.27915 0.0
H189 H 0.10071 0.62451 0.29746 0.0
H190 H 0.17867 0.64004 0.2469 0.0
H191 H 0.17525 0.67704 0.31733 0.0
H192 H 0.16516 0.67352 0.35656 0.0
H193 H 0.21591 0.64157 0.36792 0.0
H194 H 0.2262 0.64482 0.32867 0.0
H195 H 0.31033 0.7466 0.22803 0.0
H196 H 0.26342 0.71947 0.2367 0.0
H197 H 0.28186 0.6784 0.28577 0.0
H198 H 0.32872 0.7063 0.27784 0.0
H199 H 0.24863 0.68905 0.3018 0.0
H200 H 0.25311 0.6513 0.2335 0.0
H201 H 0.2631 0.65143 0.19447 0.0
H202 H 0.21069 0.68021 0.17865 0.0
H203 H 0.20065 0.68057 0.21763 0.0
C204 C 0.13171 0.58968 0.30828 0.0
C205 C 0.11178 0.59634 0.30876 0.0
C206 C 0.15571 0.60613 0.29808 0.0
C207 C 0.16024 0.62946 0.28793 0.0
C208 C 0.13977 0.63528 0.28687 0.0
C209 C 0.11565 0.61882 0.29728 0.0
C210 C 0.18734 0.64889 0.2809 0.0
C211 C 0.19398 0.65124 0.25877 0.0
C212 C 0.2073 0.66277 0.2965 0.0
C213 C 0.20131 0.66098 0.32009 0.0
C214 C 0.18409 0.66908 0.32818 0.0
C215 C 0.17837 0.66717 0.35042 0.0
C216 C 0.18981 0.65722 0.36473 0.0
C217 C 0.20705 0.64924 0.35682 0.0
C218 C 0.21289 0.65118 0.33459 0.0
C219 C 0.3043 0.73169 0.2406 0.0
C220 C 0.32317 0.72858 0.25229 0.0
C221 C 0.27745 0.71606 0.24546 0.0
C222 C 0.26891 0.69658 0.26175 0.0
C223 C 0.28783 0.6933 0.27319 0.0
C224 C 0.31465 0.70922 0.26862 0.0
C225 C 0.24048 0.68022 0.26761 0.0
C226 C 0.2335 0.67829 0.28969 0.0
C227 C 0.22037 0.66647 0.25191 0.0
C228 C 0.22637 0.66625 0.22849 0.0
C229 C 0.24388 0.65786 0.22171 0.0
C230 C 0.24952 0.6578 0.1996 0.0
C231 C 0.2376 0.6659 0.1841 0.0
C232 C 0.21995 0.67399 0.19068 0.0
C233 C 0.21426 0.67411 0.21277 0.0
H234 H 0.24199 0.66584 0.16699 0.0
H235 H 0.18541 0.65579 0.38196 0.0
H236 H 0.57788 0.11869 0.477 0.0
H237 H 0.59281 0.1613 0.45937 0.0
H238 H 0.51239 0.13838 0.44418 0.0
H239 H 0.49727 0.09545 0.46202 0.0
H240 H 0.55334 0.17212 0.411 0.0
H241 H 0.53226 0.16895 0.4873 0.0
H242 H 0.53425 0.15751 0.52563 0.0
H243 H 0.61822 0.20846 0.52559 0.0
H244 H 0.61679 0.21976 0.48709 0.0
H245 H 0.58042 0.30547 0.40155 0.0
H246 H 0.56123 0.25844 0.40983 0.0
H247 H 0.63237 0.27503 0.44369 0.0
H248 H 0.6512 0.32209 0.4361 0.0
H249 H 0.59246 0.24289 0.46685 0.0
H250 H 0.61495 0.24548 0.39124 0.0
H251 H 0.61485 0.25538 0.35222 0.0
H252 H 0.53074 0.20563 0.35026 0.0
H253 H 0.53031 0.1957 0.38936 0.0
C254 C 0.56345 0.12242 0.46931 0.0
C255 C 0.53642 0.10393 0.471 0.0
C256 C 0.57198 0.14676 0.45927 0.0
C257 C 0.55367 0.15312 0.45078 0.0
C258 C 0.52681 0.13381 0.45065 0.0
C259 C 0.5182 0.10931 0.46076 0.0
C260 C 0.5625 0.18093 0.44495 0.0
C261 C 0.56153 0.18762 0.42319 0.0
C262 C 0.57362 0.20112 0.46086 0.0
C263 C 0.57444 0.19503 0.48424 0.0
C264 C 0.55117 0.17759 0.49542 0.0
C265 C 0.55219 0.17112 0.51718 0.0
C266 C 0.57635 0.18221 0.52803 0.0
C267 C 0.59952 0.19986 0.51716 0.0
C268 C 0.59862 0.20631 0.49536 0.0
C269 C 0.59199 0.29904 0.41067 0.0
C270 C 0.61733 0.31748 0.41817 0.0
C271 C 0.58105 0.27211 0.4153 0.0
C272 C 0.59542 0.26301 0.42719 0.0
C273 C 0.62083 0.28147 0.43452 0.0
C274 C 0.63162 0.30839 0.43013 0.0
C275 C 0.58384 0.23448 0.43268 0.0
C276 C 0.58418 0.22755 0.45453 0.0
C277 C 0.57235 0.21418 0.41678 0.0
C278 C 0.57257 0.22008 0.39328 0.0
C279 C 0.59641 0.23682 0.38253 0.0
C280 C 0.59646 0.2424 0.36039 0.0
C281 C 0.57279 0.2312 0.34879 0.0
C282 C 0.54905 0.21433 0.35928 0.0
C283 C 0.54889 0.2087 0.38143 0.0
H284 H 0.57287 0.23555 0.33165 0.0
H285 H 0.5771 0.17716 0.54487 0.0
H286 H 0.46841 0.53477 0.61293 0.0
H287 H 0.43983 0.54732 0.5933 0.0
H288 H 0.38916 0.52634 0.64958 0.0
H289 H 0.41675 0.51272 0.66862 0.0
H290 H 0.36022 0.51473 0.61546 0.0
H291 H 0.44141 0.59137 0.63892 0.0
H292 H 0.48966 0.62042 0.64042 0.0
H293 H 0.49192 0.63133 0.57114 0.0
H294 H 0.44368 0.60205 0.56922 0.0
H295 H 0.31354 0.60481 0.62026 0.0
H296 H 0.33932 0.58301 0.62612 0.0
H297 H 0.36114 0.59324 0.55829 0.0
H298 H 0.33482 0.61469 0.55216 0.0
H299 H 0.4043 0.60793 0.59061 0.0
H300 H 0.31955 0.53584 0.57027 0.0
H301 H 0.27112 0.5089 0.572 0.0
H302 H 0.27558 0.49155 0.63927 0.0
H303 H 0.32404 0.51873 0.63804 0.0
C304 C 0.45074 0.53216 0.6208 0.0
C305 C 0.44504 0.5232 0.64243 0.0
C306 C 0.43458 0.53961 0.60969 0.0
C307 C 0.41265 0.53845 0.62013 0.0
C308 C 0.40599 0.52765 0.64114 0.0
C309 C 0.42191 0.52003 0.6521 0.0
C310 C 0.39759 0.55013 0.61022 0.0
C311 C 0.36993 0.5351 0.61002 0.0
C312 C 0.4101 0.57663 0.60275 0.0
C313 C 0.43904 0.59428 0.60389 0.0
C314 C 0.45224 0.59983 0.62399 0.0
C315 C 0.47956 0.61634 0.62492 0.0
C316 C 0.49386 0.62764 0.60587 0.0
C317 C 0.48083 0.62251 0.58587 0.0
C318 C 0.45351 0.60596 0.58485 0.0
C319 C 0.32388 0.60251 0.60659 0.0
C320 C 0.32215 0.61144 0.58574 0.0
C321 C 0.33852 0.58997 0.60995 0.0
C322 C 0.35199 0.58638 0.59261 0.0
C323 C 0.35083 0.59579 0.57186 0.0
C324 C 0.33578 0.60798 0.56839 0.0
C325 C 0.36713 0.57269 0.59644 0.0
C326 C 0.39471 0.58738 0.59556 0.0
C327 C 0.35457 0.54607 0.60334 0.0
C328 C 0.32543 0.52948 0.60409 0.0
C329 C 0.3102 0.52645 0.58548 0.0
C330 C 0.28274 0.5111 0.58636 0.0
C331 C 0.27028 0.49856 0.60574 0.0
C332 C 0.28526 0.50129 0.62427 0.0
C333 C 0.31273 0.51663 0.62348 0.0
H334 H 0.24902 0.48669 0.60639 0.0
H335 H 0.51501 0.64043 0.60662 0.0
H336 H 0.92578 0.4036 0.83075 0.0
H337 H 0.88516 0.37744 0.81041 0.0
H338 H 0.91367 0.4365 0.75975 0.0
H339 H 0.95442 0.46328 0.78063 0.0
H340 H 0.8659 0.42482 0.77144 0.0
H341 H 0.90338 0.37317 0.75032 0.0
H342 H 0.92677 0.34829 0.75446 0.0
H343 H 0.86574 0.29308 0.79684 0.0
H344 H 0.84215 0.31783 0.79323 0.0
H345 H 0.74021 0.33863 0.72019 0.0
H346 H 0.7881 0.36435 0.72584 0.0
H347 H 0.77912 0.32454 0.78703 0.0
H348 H 0.73149 0.29906 0.7816 0.0
H349 H 0.82007 0.32765 0.7615 0.0
H350 H 0.78763 0.38494 0.78672 0.0
H351 H 0.76457 0.41012 0.78221 0.0
H352 H 0.81719 0.45482 0.73031 0.0
H353 H 0.84035 0.42962 0.73433 0.0
C354 C 0.92364 0.41075 0.81505 0.0
C355 C 0.9432 0.43551 0.8073 0.0
C356 C 0.90044 0.39569 0.80333 0.0
C357 C 0.8963 0.40482 0.7834 0.0
C358 C 0.91641 0.42899 0.77505 0.0
C359 C 0.93977 0.44416 0.78686 0.0
C360 C 0.86996 0.39021 0.77272 0.0
C361 C 0.85617 0.40368 0.76871 0.0
C362 C 0.85698 0.36254 0.76937 0.0
C363 C 0.87104 0.34746 0.77157 0.0
C364 C 0.89502 0.35582 0.76064 0.0
C365 C 0.90831 0.34172 0.76288 0.0
C366 C 0.89777 0.31913 0.77592 0.0
C367 C 0.87388 0.31057 0.78673 0.0
C368 C 0.86051 0.32461 0.78456 0.0
C369 C 0.74849 0.3354 0.73483 0.0
C370 C 0.73208 0.3169 0.75049 0.0
C371 C 0.77583 0.35009 0.73804 0.0
C372 C 0.78718 0.34637 0.75688 0.0
C373 C 0.77081 0.32767 0.77235 0.0
C374 C 0.74356 0.31322 0.76927 0.0
C375 C 0.81601 0.36219 0.76095 0.0
C376 C 0.83014 0.3489 0.76373 0.0
C377 C 0.82936 0.39001 0.763 0.0
C378 C 0.81549 0.40518 0.76064 0.0
C379 C 0.79412 0.39997 0.77422 0.0
C380 C 0.78107 0.41428 0.77178 0.0
C381 C 0.78935 0.43399 0.75593 0.0
C382 C 0.81076 0.4395 0.74254 0.0
C383 C 0.82386 0.42522 0.7449 0.0
H384 H 0.77922 0.44505 0.75407 0.0
H385 H 0.90809 0.30825 0.77764 0.0
H386 H 0.51523 0.95016 0.94862 0.0
H387 H 0.49908 0.90773 0.92985 0.0
H388 H 0.5367 0.88426 0.9782 0.0
H389 H 0.55355 0.92672 0.99639 0.0
H390 H 0.53912 0.86482 0.94054 0.0
H391 H 0.47159 0.86755 0.9827 0.0
H392 H 0.44303 0.88516 0.99395 0.0
H393 H 0.41017 0.87193 0.92959 0.0
H394 H 0.43883 0.85456 0.91788 0.0
H395 H 0.45403 0.72595 0.95124 0.0
H396 H 0.47641 0.77368 0.95756 0.0
H397 H 0.44913 0.78466 0.8954 0.0
H398 H 0.42716 0.73685 0.88869 0.0
H399 H 0.44176 0.81159 0.93444 0.0
H400 H 0.50785 0.80214 0.89543 0.0
H401 H 0.53555 0.78229 0.88831 0.0
H402 H 0.57015 0.80582 0.95185 0.0
H403 H 0.54235 0.82548 0.95948 0.0
C404 C 0.52073 0.93626 0.95478 0.0
C405 C 0.53539 0.94162 0.9741 0.0
C406 C 0.51126 0.9119 0.94421 0.0
C407 C 0.51617 0.89251 0.95288 0.0
C408 C 0.5325 0.89875 0.97121 0.0
C409 C 0.54204 0.92302 0.98166 0.0
C410 C 0.5027 0.86502 0.94423 0.0
C411 C 0.51784 0.85324 0.9392 0.0
C412 C 0.4749 0.84978 0.94235 0.0
C413 C 0.45757 0.86008 0.94935 0.0
C414 C 0.45841 0.86859 0.97091 0.0
C415 C 0.44219 0.87849 0.97737 0.0
C416 C 0.42486 0.87975 0.96247 0.0
C417 C 0.42365 0.87101 0.94109 0.0
C418 C 0.43987 0.86113 0.93453 0.0
C419 C 0.45276 0.73851 0.93892 0.0
C420 C 0.43886 0.72768 0.91946 0.0
C421 C 0.46562 0.76575 0.94253 0.0
C422 C 0.46449 0.78266 0.92691 0.0
C423 C 0.45024 0.77191 0.90762 0.0
C424 C 0.43777 0.74465 0.90381 0.0
C425 C 0.4782 0.81153 0.93095 0.0
C426 C 0.46307 0.82343 0.93528 0.0
C427 C 0.50594 0.82668 0.9327 0.0
C428 C 0.52286 0.8151 0.92808 0.0
C429 C 0.52121 0.80289 0.90795 0.0
C430 C 0.53696 0.79171 0.90382 0.0
C431 C 0.55456 0.79275 0.91964 0.0
C432 C 0.5565 0.80503 0.93961 0.0
C433 C 0.54077 0.81622 0.94384 0.0
H434 H 0.56674 0.78407 0.9164 0.0
H435 H 0.41231 0.88742 0.9675 0.0
H436 H 0.58882 0.51399 0.11351 0.0
H437 H 0.6124 0.49608 0.09322 0.0
H438 H 0.68131 0.5421 0.13289 0.0
H439 H 0.65813 0.56049 0.15268 0.0
H440 H 0.69609 0.53676 0.09344 0.0
H441 H 0.63425 0.47964 0.1478 0.0
H442 H 0.5904 0.45444 0.16481 0.0
H443 H 0.55972 0.40857 0.10644 0.0
H444 H 0.60337 0.43381 0.08898 0.0
H445 H 0.71763 0.41858 0.11469 0.0
H446 H 0.69283 0.44137 0.12022 0.0
H447 H 0.71266 0.47327 0.05517 0.0
H448 H 0.73818 0.45102 0.04977 0.0
H449 H 0.65169 0.43952 0.10268 0.0
H450 H 0.71912 0.53483 0.0547 0.0
H451 H 0.76555 0.56129 0.04313 0.0
H452 H 0.78948 0.53208 0.09746 0.0
H453 H 0.74327 0.50574 0.10949 0.0
C454 C 0.60933 0.52105 0.11727 0.0
C455 C 0.62156 0.53836 0.13483 0.0
C456 C 0.62271 0.51062 0.10582 0.0
C457 C 0.64843 0.51724 0.11189 0.0
C458 C 0.66146 0.53654 0.12797 0.0
C459 C 0.64816 0.54699 0.13933 0.0
C460 C 0.66064 0.50189 0.10377 0.0
C461 C 0.68624 0.51545 0.09514 0.0
C462 C 0.64811 0.47414 0.10649 0.0
C463 C 0.62195 0.4588 0.11701 0.0
C464 C 0.6181 0.46429 0.13856 0.0
C465 C 0.5933 0.45 0.14828 0.0
C466 C 0.57227 0.42996 0.13669 0.0
C467 C 0.57602 0.42413 0.11538 0.0
C468 C 0.60078 0.43843 0.10556 0.0
C469 C 0.71659 0.43031 0.1015 0.0
C470 C 0.72999 0.43313 0.08184 0.0
C471 C 0.70232 0.44329 0.10466 0.0
C472 C 0.70107 0.45932 0.08822 0.0
C473 C 0.71368 0.4614 0.06825 0.0
C474 C 0.72816 0.44857 0.06514 0.0
C475 C 0.68726 0.47438 0.09244 0.0
C476 C 0.66134 0.46075 0.10041 0.0
C477 C 0.69985 0.50216 0.08977 0.0
C478 C 0.72772 0.51807 0.08281 0.0
C479 C 0.73431 0.53411 0.06419 0.0
C480 C 0.76058 0.54908 0.05755 0.0
C481 C 0.78044 0.54828 0.0695 0.0
C482 C 0.77408 0.5326 0.08817 0.0
C483 C 0.74785 0.51762 0.09488 0.0
H484 H 0.80076 0.55987 0.06433 0.0
H485 H 0.55307 0.41891 0.14425 0.0
H486 H 0.46795 0.94553 0.53635 0.0
H487 H 0.44212 0.90305 0.55516 0.0
H488 H 0.37488 0.8854 0.51511 0.0
H489 H 0.40069 0.92768 0.49627 0.0
H490 H 0.36033 0.8645 0.55729 0.0
H491 H 0.41467 0.86704 0.49735 0.0
H492 H 0.45667 0.88464 0.47747 0.0
H493 H 0.49031 0.8649 0.53129 0.0
H494 H 0.44859 0.8476 0.55165 0.0
H495 H 0.32713 0.72108 0.53247 0.0
H496 H 0.35239 0.76861 0.5258 0.0
H497 H 0.34492 0.78344 0.59349 0.0
H498 H 0.31921 0.73575 0.60021 0.0
H499 H 0.39786 0.80709 0.5404 0.0
H500 H 0.34127 0.84043 0.59683 0.0
H501 H 0.29693 0.82262 0.61275 0.0
H502 H 0.26338 0.76836 0.55935 0.0
H503 H 0.30744 0.78609 0.54299 0.0
C504 C 0.44734 0.93304 0.53226 0.0
C505 C 0.43622 0.93979 0.51495 0.0
C506 C 0.43266 0.90873 0.54288 0.0
C507 C 0.40667 0.89094 0.53634 0.0
C508 C 0.39484 0.89882 0.52045 0.0
C509 C 0.40957 0.92296 0.50972 0.0
C510 C 0.39319 0.86289 0.54346 0.0
C511 C 0.36867 0.852 0.55391 0.0
C512 C 0.40372 0.84641 0.53847 0.0
C513 C 0.42864 0.85632 0.52612 0.0
C514 C 0.43109 0.86663 0.505 0.0
C515 C 0.45483 0.87654 0.49365 0.0
C516 C 0.47617 0.87596 0.50314 0.0
C517 C 0.47377 0.86538 0.52398 0.0
C518 C 0.45009 0.85553 0.53544 0.0
C519 C 0.33093 0.73444 0.54597 0.0
C520 C 0.32109 0.72464 0.56686 0.0
C521 C 0.34546 0.76163 0.54214 0.0
C522 C 0.35041 0.77967 0.55908 0.0
C523 C 0.34107 0.76995 0.58009 0.0
C524 C 0.32648 0.74268 0.58393 0.0
C525 C 0.36498 0.80857 0.55449 0.0
C526 C 0.38972 0.81963 0.54433 0.0
C527 C 0.35431 0.82501 0.55929 0.0
C528 C 0.32769 0.81437 0.56885 0.0
C529 C 0.32441 0.82474 0.58848 0.0
C530 C 0.29933 0.81466 0.59757 0.0
C531 C 0.27737 0.7943 0.58712 0.0
C532 C 0.28042 0.78405 0.56749 0.0
C533 C 0.30544 0.79408 0.55831 0.0
H534 H 0.25797 0.78651 0.59419 0.0
H535 H 0.49454 0.88364 0.49432 0.0
H536 H 0.51489 0.40901 0.65503 0.0
H537 H 0.52896 0.38295 0.6758 0.0
H538 H 0.5573 0.4413 0.72704 0.0
H539 H 0.54405 0.46824 0.7056 0.0
H540 H 0.5935 0.42947 0.71775 0.0
H541 H 0.50331 0.37733 0.7348 0.0
H542 H 0.45531 0.35278 0.7288 0.0
H543 H 0.46323 0.29884 0.6864 0.0
H544 H 0.51133 0.32327 0.69187 0.0
H545 H 0.6281 0.33782 0.76776 0.0
H546 H 0.60672 0.36447 0.76286 0.0
H547 H 0.58227 0.33229 0.69834 0.0
H548 H 0.60378 0.30614 0.70294 0.0
H549 H 0.54155 0.33189 0.72429 0.0
H550 H 0.63321 0.39117 0.70323 0.0
H551 H 0.681 0.41601 0.7104 0.0
H552 H 0.66873 0.4564 0.76349 0.0
H553 H 0.62078 0.4315 0.75679 0.0
C554 C 0.52381 0.41617 0.67086 0.0
C555 C 0.52857 0.4408 0.67859 0.0
C556 C 0.53163 0.40109 0.68287 0.0
C557 C 0.54399 0.40992 0.70318 0.0
C558 C 0.54774 0.434 0.71145 0.0
C559 C 0.53997 0.44927 0.6993 0.0
C560 C 0.55496 0.39495 0.71444 0.0
C561 C 0.5819 0.40821 0.71974 0.0
C562 C 0.54 0.36715 0.71702 0.0
C563 C 0.511 0.35223 0.71371 0.0
C564 C 0.49486 0.36033 0.72409 0.0
C565 C 0.46761 0.34641 0.72079 0.0
C566 C 0.45623 0.32427 0.70722 0.0
C567 C 0.47207 0.31598 0.69693 0.0
C568 C 0.49933 0.32983 0.70016 0.0
C569 C 0.61819 0.33652 0.75254 0.0
C570 C 0.61769 0.31997 0.7357 0.0
C571 C 0.606 0.35171 0.74977 0.0
C572 C 0.59286 0.35029 0.73025 0.0
C573 C 0.59218 0.33359 0.71356 0.0
C574 C 0.60463 0.31877 0.71618 0.0
C575 C 0.58006 0.36635 0.72669 0.0
C576 C 0.55283 0.35323 0.72285 0.0
C577 C 0.59464 0.39425 0.72576 0.0
C578 C 0.62342 0.40924 0.7297 0.0
C579 C 0.64068 0.40517 0.71656 0.0
C580 C 0.6678 0.41929 0.72051 0.0
C581 C 0.67789 0.4377 0.73744 0.0
C582 C 0.66088 0.44209 0.75041 0.0
C583 C 0.63374 0.42798 0.74654 0.0
H584 H 0.69888 0.44863 0.74048 0.0
H585 H 0.43513 0.31353 0.70468 0.0
H586 H 0.11421 0.56484 0.85506 0.0
H587 H 0.15698 0.58155 0.87302 0.0
H588 H 0.15146 0.50581 0.86425 0.0
H589 H 0.10843 0.48902 0.84647 0.0
H590 H 0.17708 0.53155 0.90371 0.0
H591 H 0.18024 0.55011 0.82683 0.0
H592 H 0.16874 0.56721 0.79449 0.0
H593 H 0.20728 0.64504 0.8222 0.0
H594 H 0.21838 0.62828 0.85501 0.0
H595 H 0.31377 0.57319 0.90375 0.0
H596 H 0.26676 0.55368 0.89613 0.0
H597 H 0.2762 0.63161 0.89232 0.0
H598 H 0.32348 0.65118 0.89898 0.0
H599 H 0.24752 0.6043 0.86042 0.0
H600 H 0.24521 0.58695 0.93699 0.0
H601 H 0.25494 0.57022 0.9705 0.0
H602 H 0.21483 0.49147 0.94456 0.0
H603 H 0.20514 0.50778 0.91077 0.0
C604 C 0.12171 0.55153 0.85779 0.0
C605 C 0.10808 0.52564 0.84968 0.0
C606 C 0.14617 0.56109 0.86788 0.0
C607 C 0.15756 0.54503 0.86969 0.0
C608 C 0.14301 0.5185 0.86307 0.0
C609 C 0.11845 0.5089 0.853 0.0
C610 C 0.18573 0.5568 0.87582 0.0
C611 C 0.19256 0.54731 0.8942 0.0
C612 C 0.20585 0.57764 0.86355 0.0
C613 C 0.19994 0.58789 0.84348 0.0
C614 C 0.18614 0.57084 0.82609 0.0
C615 C 0.17968 0.58046 0.80767 0.0
C616 C 0.18727 0.60717 0.80628 0.0
C617 C 0.20139 0.62434 0.8233 0.0
C618 C 0.20775 0.61479 0.84183 0.0
C619 C 0.30576 0.58614 0.90146 0.0
C620 C 0.3223 0.61372 0.902 0.0
C621 C 0.27881 0.57496 0.89723 0.0
C622 C 0.26768 0.5911 0.89395 0.0
C623 C 0.2842 0.61868 0.89478 0.0
C624 C 0.31123 0.62987 0.89866 0.0
C625 C 0.23915 0.57936 0.88862 0.0
C626 C 0.23219 0.58871 0.87017 0.0
C627 C 0.21896 0.55851 0.90093 0.0
C628 C 0.22465 0.54863 0.92127 0.0
C629 C 0.23862 0.56609 0.93837 0.0
C630 C 0.2441 0.55668 0.95743 0.0
C631 C 0.23557 0.52981 0.95964 0.0
C632 C 0.22145 0.51228 0.94282 0.0
C633 C 0.21593 0.52159 0.92372 0.0
H634 H 0.23984 0.52256 0.9744 0.0
H635 H 0.18223 0.61456 0.79201 0.0
H636 H 0.59073 0.09652 0.03518 0.0
H637 H 0.61866 0.13799 0.05482 0.0
H638 H 0.66815 0.16958 0.99804 0.0
H639 H 0.64111 0.12813 0.97886 0.0
H640 H 0.69753 0.18661 0.03258 0.0
H641 H 0.61583 0.18065 0.00944 0.0
H642 H 0.56752 0.16055 0.00795 0.0
H643 H 0.56501 0.16815 0.07734 0.0
H644 H 0.61332 0.18801 0.07925 0.0
H645 H 0.74498 0.32352 0.03097 0.0
H646 H 0.72005 0.27598 0.02412 0.0
H647 H 0.69238 0.26229 0.0905 0.0
H648 H 0.71763 0.31004 0.09758 0.0
H649 H 0.65231 0.23399 0.05836 0.0
H650 H 0.73699 0.24778 0.07892 0.0
H651 H 0.78547 0.26995 0.07781 0.0
H652 H 0.78249 0.24945 0.01032 0.0
H653 H 0.73399 0.22748 0.01094 0.0
C654 C 0.60797 0.11211 0.02715 0.0
C655 C 0.6135 0.10926 0.00538 0.0
C656 C 0.62377 0.13589 0.03829 0.0
C657 C 0.64521 0.15719 0.02776 0.0
C658 C 0.65168 0.15359 0.00653 0.0
C659 C 0.63607 0.12992 0.9955 0.0
C660 C 0.65995 0.18387 0.0379 0.0
C661 C 0.6876 0.19692 0.03821 0.0
C662 C 0.64709 0.19731 0.04565 0.0
C663 C 0.61811 0.18548 0.04452 0.0
C664 C 0.60494 0.17785 0.02439 0.0
C665 C 0.57758 0.16653 0.02347 0.0
C666 C 0.5632 0.16299 0.04255 0.0
C667 C 0.57617 0.17085 0.06258 0.0
C668 C 0.60354 0.18213 0.0636 0.0
C669 C 0.73357 0.31042 0.04412 0.0
C670 C 0.73329 0.3205 0.06483 0.0
C671 C 0.71943 0.28325 0.04021 0.0
C672 C 0.70457 0.2656 0.05686 0.0
C673 C 0.70381 0.27559 0.07746 0.0
C674 C 0.71825 0.30282 0.08148 0.0
C675 C 0.68977 0.23678 0.05246 0.0
C676 C 0.66217 0.22341 0.05319 0.0
C677 C 0.70267 0.22319 0.04533 0.0
C678 C 0.73184 0.23612 0.04495 0.0
C679 C 0.74667 0.24815 0.0638 0.0
C680 C 0.77416 0.26065 0.06327 0.0
C681 C 0.78705 0.26114 0.044 0.0
C682 C 0.77247 0.24906 0.02524 0.0
C683 C 0.74498 0.23654 0.02568 0.0
H684 H 0.80833 0.27085 0.04362 0.0
H685 H 0.54201 0.15423 0.0418 0.0
H686 H 0.55478 0.62759 0.1862 0.0
H687 H 0.53887 0.65479 0.20375 0.0
H688 H 0.45875 0.59481 0.18984 0.0
H689 H 0.47446 0.56769 0.17257 0.0
H690 H 0.47293 0.644 0.17233 0.0
H691 H 0.47896 0.60689 0.24089 0.0
H692 H 0.50187 0.59654 0.2695 0.0
H693 H 0.55642 0.67923 0.27855 0.0
H694 H 0.53406 0.69007 0.24976 0.0
H695 H 0.39854 0.69551 0.21702 0.0
H696 H 0.41719 0.66722 0.20951 0.0
H697 H 0.49216 0.72706 0.23506 0.0
H698 H 0.47325 0.75507 0.24335 0.0
H699 H 0.48378 0.68034 0.247 0.0
H700 H 0.48012 0.71862 0.17954 0.0
H701 H 0.46002 0.73113 0.15003 0.0
H702 H 0.4051 0.64932 0.13734 0.0
H703 H 0.42464 0.63631 0.16699 0.0
C704 C 0.53377 0.61989 0.1876 0.0
C705 C 0.51584 0.59566 0.1779 0.0
C706 C 0.5247 0.63546 0.19752 0.0
C707 C 0.49763 0.6269 0.19789 0.0
C708 C 0.47971 0.60187 0.18959 0.0
C709 C 0.4887 0.58637 0.17979 0.0
C710 C 0.4879 0.64491 0.20451 0.0
C711 C 0.47499 0.65166 0.18875 0.0
C712 C 0.4916 0.65578 0.22565 0.0
C713 C 0.50501 0.64927 0.24299 0.0
C714 C 0.49599 0.62286 0.24883 0.0
C715 C 0.50885 0.6169 0.26511 0.0
C716 C 0.53064 0.63721 0.27579 0.0
C717 C 0.53957 0.66352 0.27024 0.0
C718 C 0.5268 0.66958 0.25396 0.0
C719 C 0.41896 0.70259 0.22113 0.0
C720 C 0.43449 0.7276 0.23059 0.0
C721 C 0.42965 0.68644 0.21677 0.0
C722 C 0.45627 0.69519 0.22131 0.0
C723 C 0.47162 0.71988 0.23134 0.0
C724 C 0.46081 0.73591 0.23599 0.0
C725 C 0.46817 0.67889 0.21492 0.0
C726 C 0.48169 0.67266 0.2306 0.0
C727 C 0.46546 0.66878 0.19353 0.0
C728 C 0.4537 0.6765 0.17562 0.0
C729 C 0.46363 0.7033 0.17056 0.0
C730 C 0.45236 0.71048 0.15379 0.0
C731 C 0.43125 0.69103 0.14185 0.0
C732 C 0.42143 0.66436 0.14662 0.0
C733 C 0.43261 0.65707 0.16339 0.0
H734 H 0.42255 0.69663 0.12887 0.0
H735 H 0.54056 0.63256 0.28839 0.0
H736 H 0.94279 0.56443 0.33788 0.0
H737 H 0.89957 0.54827 0.35485 0.0
H738 H 0.89868 0.47687 0.37405 0.0
H739 H 0.94234 0.49364 0.35785 0.0
H740 H 0.85677 0.50872 0.34152 0.0
H741 H 0.85548 0.44549 0.41473 0.0
H742 H 0.88564 0.44651 0.44318 0.0
H743 H 0.93128 0.53103 0.43847 0.0
H744 H 0.9012 0.53055 0.4102 0.0
H745 H 0.72573 0.41211 0.36628 0.0
H746 H 0.77299 0.43447 0.35863 0.0
H747 H 0.78858 0.48042 0.41737 0.0
H748 H 0.74135 0.45771 0.42533 0.0
H749 H 0.82376 0.46511 0.41303 0.0
H750 H 0.78869 0.50596 0.36702 0.0
H751 H 0.75912 0.5078 0.33943 0.0
H752 H 0.78782 0.47474 0.29172 0.0
H753 H 0.81719 0.4722 0.31913 0.0
C754 C 0.93378 0.54584 0.34661 0.0
C755 C 0.94599 0.53049 0.34705 0.0
C756 C 0.90897 0.53643 0.35605 0.0
C757 C 0.89574 0.51132 0.3658 0.0
C758 C 0.90858 0.49651 0.36708 0.0
C759 C 0.93358 0.50612 0.3579 0.0
C760 C 0.86762 0.49955 0.37247 0.0
C761 C 0.84964 0.49934 0.35723 0.0
C762 C 0.85817 0.48738 0.39299 0.0
C763 C 0.87618 0.48795 0.41021 0.0
C764 C 0.87187 0.4643 0.41984 0.0
C765 C 0.88897 0.46478 0.43592 0.0
C766 C 0.9104 0.48881 0.44258 0.0
C767 C 0.91472 0.51242 0.43323 0.0
C768 C 0.89767 0.51206 0.41716 0.0
C769 C 0.73923 0.42689 0.37762 0.0
C770 C 0.7298 0.43324 0.39636 0.0
C771 C 0.76625 0.43975 0.37318 0.0
C772 C 0.78438 0.45944 0.38725 0.0
C773 C 0.77501 0.46536 0.40624 0.0
C774 C 0.748 0.45241 0.41074 0.0
C775 C 0.81301 0.47411 0.382 0.0
C776 C 0.831 0.47471 0.39741 0.0
C777 C 0.82258 0.48708 0.36178 0.0
C778 C 0.80494 0.48862 0.34523 0.0
C779 C 0.78852 0.49885 0.3507 0.0
C780 C 0.77181 0.50004 0.33509 0.0
C781 C 0.77152 0.4913 0.31386 0.0
C782 C 0.788 0.48143 0.30819 0.0
C783 C 0.80469 0.48011 0.32376 0.0
H784 H 0.75857 0.49225 0.30179 0.0
H785 H 0.92363 0.48914 0.45502 0.0
H786 H 0.05607 0.57361 0.39735 0.0
H787 H 0.07561 0.57792 0.43355 0.0
H788 H 0.12438 0.54835 0.40801 0.0
H789 H 0.1045 0.54343 0.37214 0.0
H790 H 0.11068 0.53301 0.44994 0.0
H791 H 0.14347 0.61363 0.40725 0.0
H792 H 0.13766 0.64724 0.38788 0.0
H793 H 0.11217 0.66649 0.44709 0.0
H794 H 0.11679 0.63222 0.46668 0.0
H795 H 0.22944 0.59468 0.50953 0.0
H796 H 0.19491 0.57864 0.4818 0.0
H797 H 0.15996 0.61921 0.51395 0.0
H798 H 0.19497 0.63599 0.54131 0.0
H799 H 0.16087 0.62705 0.47248 0.0
H800 H 0.13206 0.55037 0.51642 0.0
H801 H 0.13581 0.51583 0.53634 0.0
H802 H 0.15284 0.48928 0.47659 0.0
H803 H 0.14957 0.52391 0.45633 0.0
C804 C 0.07025 0.56714 0.39971 0.0
C805 C 0.07908 0.55855 0.38194 0.0
C806 C 0.08154 0.56979 0.42032 0.0
C807 C 0.1019 0.56403 0.42334 0.0
C808 C 0.10886 0.55308 0.40605 0.0
C809 C 0.09757 0.55039 0.38554 0.0
C810 C 0.11835 0.57236 0.44334 0.0
C811 C 0.12169 0.55356 0.4549 0.0
C812 C 0.13228 0.59911 0.45009 0.0
C813 C 0.13016 0.62013 0.43838 0.0
C814 C 0.13644 0.62489 0.41612 0.0
C815 C 0.13336 0.64406 0.40509 0.0
C816 C 0.12464 0.65904 0.41624 0.0
C817 C 0.1189 0.65485 0.43846 0.0
C818 C 0.12164 0.63548 0.44952 0.0
C819 C 0.21437 0.60015 0.51068 0.0
C820 C 0.21491 0.61659 0.52757 0.0
C821 C 0.1945 0.5908 0.49492 0.0
C822 C 0.17449 0.59731 0.49596 0.0
C823 C 0.17509 0.61383 0.51282 0.0
C824 C 0.19512 0.62341 0.52844 0.0
C825 C 0.15359 0.58776 0.47899 0.0
C826 C 0.14953 0.60639 0.46789 0.0
C827 C 0.13889 0.56084 0.47279 0.0
C828 C 0.14075 0.53988 0.48488 0.0
C829 C 0.13678 0.53728 0.50754 0.0
C830 C 0.13879 0.51767 0.51889 0.0
C831 C 0.14461 0.5004 0.50774 0.0
C832 C 0.14835 0.50268 0.4852 0.0
C833 C 0.14639 0.52228 0.47378 0.0
H834 H 0.14616 0.48523 0.51656 0.0
H835 H 0.12233 0.67391 0.40767 0.0
H836 H 0.57877 0.09156 0.53924 0.0
H837 H 0.59485 0.11501 0.57392 0.0
H838 H 0.51494 0.08927 0.59341 0.0
H839 H 0.49881 0.0654 0.55878 0.0
H840 H 0.54901 0.14462 0.5933 0.0
H841 H 0.54684 0.06733 0.62128 0.0
H842 H 0.55609 0.03064 0.6215 0.0
H843 H 0.63919 0.08603 0.62241 0.0
H844 H 0.63045 0.1231 0.62187 0.0
H845 H 0.58013 0.20568 0.69678 0.0
H846 H 0.56203 0.17317 0.66746 0.0
H847 H 0.64046 0.19151 0.64943 0.0
H848 H 0.65877 0.22406 0.67897 0.0
H849 H 0.60606 0.13822 0.64973 0.0
H850 H 0.60928 0.21502 0.61951 0.0
H851 H 0.60139 0.25258 0.61793 0.0
H852 H 0.51787 0.19909 0.61953 0.0
H853 H 0.52528 0.16119 0.62145 0.0
C854 C 0.56466 0.09014 0.55132 0.0
C855 C 0.5376 0.07652 0.5466 0.0
C856 C 0.57382 0.10357 0.57105 0.0
C857 C 0.55607 0.10386 0.58619 0.0
C858 C 0.52891 0.08917 0.58193 0.0
C859 C 0.51971 0.07539 0.56231 0.0
C860 C 0.56612 0.12194 0.60513 0.0
C861 C 0.56102 0.14291 0.60592 0.0
C862 C 0.58263 0.12023 0.62103 0.0
C863 C 0.58798 0.098 0.62133 0.0
C864 C 0.5671 0.0717 0.62132 0.0
C865 C 0.57224 0.05083 0.62154 0.0
C866 C 0.59821 0.056 0.62191 0.0
C867 C 0.61909 0.08206 0.6221 0.0
C868 C 0.61404 0.10301 0.62186 0.0
C869 C 0.59356 0.20285 0.68656 0.0
C870 C 0.6209 0.21752 0.69009 0.0
C871 C 0.58317 0.18428 0.66979 0.0
C872 C 0.5999 0.18007 0.65614 0.0
C873 C 0.62721 0.19446 0.65977 0.0
C874 C 0.63764 0.21313 0.67656 0.0
C875 C 0.58878 0.1608 0.63799 0.0
C876 C 0.59382 0.13976 0.63725 0.0
C877 C 0.57239 0.16254 0.62195 0.0
C878 C 0.56785 0.18528 0.62088 0.0
C879 C 0.58923 0.21127 0.61974 0.0
C880 C 0.58485 0.23262 0.61874 0.0
C881 C 0.55915 0.22823 0.6187 0.0
C882 C 0.53777 0.20246 0.61961 0.0
C883 C 0.54205 0.18104 0.62064 0.0
H884 H 0.55579 0.24478 0.61791 0.0
H885 H 0.60216 0.03981 0.6221 0.0
H886 H 0.47431 0.50424 0.72937 0.0
H887 H 0.46891 0.52244 0.76374 0.0
H888 H 0.50469 0.59995 0.73477 0.0
H889 H 0.50984 0.58175 0.7004 0.0
H890 H 0.51569 0.59974 0.78097 0.0
H891 H 0.4434 0.56602 0.72954 0.0
H892 H 0.41076 0.53186 0.70509 0.0
H893 H 0.37715 0.47867 0.75914 0.0
H894 H 0.40992 0.51245 0.78387 0.0
H895 H 0.4553 0.65919 0.84111 0.0
H896 H 0.4721 0.64284 0.81212 0.0
H897 H 0.42203 0.56299 0.83473 0.0
H898 H 0.40462 0.57911 0.86317 0.0
H899 H 0.41997 0.56381 0.79267 0.0
H900 H 0.49024 0.59917 0.84504 0.0
H901 H 0.52357 0.63322 0.86917 0.0
H902 H 0.56137 0.68314 0.81401 0.0
H903 H 0.52806 0.64953 0.78956 0.0
C904 C 0.48202 0.52533 0.7307 0.0
C905 C 0.49246 0.54167 0.71239 0.0
C906 C 0.47882 0.53567 0.75024 0.0
C907 C 0.48615 0.56247 0.75165 0.0
C908 C 0.49899 0.57926 0.73401 0.0
C909 C 0.50192 0.56888 0.71443 0.0
C910 C 0.4766 0.57201 0.76987 0.0
C911 C 0.4948 0.59203 0.78355 0.0
C912 C 0.44933 0.56176 0.77323 0.0
C913 C 0.42927 0.54164 0.7585 0.0
C914 C 0.42916 0.54697 0.73618 0.0
C915 C 0.41064 0.52769 0.72227 0.0
C916 C 0.39194 0.50307 0.73054 0.0
C917 C 0.39168 0.49773 0.75275 0.0
C918 C 0.41021 0.51694 0.76672 0.0
C919 C 0.44782 0.63815 0.83979 0.0
C920 C 0.42864 0.62043 0.85438 0.0
C921 C 0.45759 0.62884 0.82334 0.0
C922 C 0.44867 0.60169 0.82144 0.0
C923 C 0.42927 0.584 0.83586 0.0
C924 C 0.41932 0.59326 0.85212 0.0
C925 C 0.45902 0.59151 0.80417 0.0
C926 C 0.4409 0.57143 0.79042 0.0
C927 C 0.48637 0.60174 0.80084 0.0
C928 C 0.50651 0.62192 0.81549 0.0
C929 C 0.50556 0.61748 0.83807 0.0
C930 C 0.52446 0.63669 0.8518 0.0
C931 C 0.54453 0.66035 0.84314 0.0
C932 C 0.54579 0.66482 0.8207 0.0
C933 C 0.52692 0.64568 0.8069 0.0
H934 H 0.55915 0.6752 0.8538 0.0
H935 H 0.37762 0.48816 0.71975 0.0
H936 H 0.94186 0.48898 0.86837 0.0
H937 H 0.92212 0.48611 0.90403 0.0
H938 H 0.97425 0.46253 0.93279 0.0
H939 H 0.9941 0.4654 0.8969 0.0
H940 H 0.92233 0.42797 0.94173 0.0
H941 H 0.98047 0.5207 0.9468 0.0
H942 H 1.0031 0.56706 0.93458 0.0
H943 H 0.92885 0.56446 0.92969 0.0
H944 H 0.9057 0.51794 0.94158 0.0
H945 H 0.86247 0.41627 0.04468 0.0
H946 H 0.89595 0.43103 0.01611 0.0
H947 H 0.85393 0.46077 0.97899 0.0
H948 H 0.82061 0.44646 0.00771 0.0
H949 H 0.90631 0.49464 0.9775 0.0
H950 H 0.84815 0.40118 0.9672 0.0
H951 H 0.8245 0.35436 0.97826 0.0
H952 H 0.89811 0.35813 0.99171 0.0
H953 H 0.9222 0.40511 0.981 0.0
C954 C 0.9495 0.48379 0.88241 0.0
C955 C 0.96943 0.47737 0.87996 0.0
C956 C 0.9383 0.48224 0.90278 0.0
C957 C 0.94677 0.47418 0.92109 0.0
C958 C 0.9675 0.46888 0.91886 0.0
C959 C 0.97892 0.47068 0.89845 0.0
C960 C 0.93197 0.46866 0.94185 0.0
C961 C 0.91935 0.44272 0.94988 0.0
C962 C 0.9275 0.48772 0.95209 0.0
C963 C 0.94133 0.51574 0.94495 0.0
C964 C 0.96893 0.52993 0.94296 0.0
C965 C 0.98186 0.55626 0.93612 0.0
C966 C 0.96742 0.56868 0.93132 0.0
C967 C 0.94001 0.55481 0.9334 0.0
C968 C 0.92698 0.52846 0.94023 0.0
C969 C 0.86043 0.42606 0.03047 0.0
C970 C 0.83881 0.43004 0.02834 0.0
C971 C 0.87955 0.43444 0.01414 0.0
C972 C 0.87729 0.44673 0.99529 0.0
C973 C 0.85608 0.45134 0.9934 0.0
C974 C 0.83699 0.44305 0.00976 0.0
C975 C 0.89642 0.45388 0.97715 0.0
C976 C 0.90971 0.48005 0.96957 0.0
C977 C 0.90139 0.43499 0.96719 0.0
C978 C 0.88695 0.40673 0.97355 0.0
C979 C 0.85928 0.39208 0.97268 0.0
C980 C 0.8458 0.36551 0.97886 0.0
C981 C 0.85979 0.3533 0.98575 0.0
C982 C 0.8873 0.36763 0.98641 0.0
C983 C 0.90088 0.39422 0.98029 0.0
H984 H 0.84932 0.33272 0.99052 0.0
H985 H 0.97746 0.58907 0.92603 0.0
H986 H 0.56056 0.96442 0.054 0.0
H987 H 0.54069 0.9398 0.08749 0.0
H988 H 0.47469 0.95213 0.07891 0.0
H989 H 0.49482 0.97713 0.04534 0.0
H990 H 0.48884 0.95022 0.12423 0.0
H991 H 0.46755 0.90041 0.05804 0.0
H992 H 0.47862 0.8882 0.02282 0.0
H993 H 0.52516 0.86097 0.05566 0.0
H994 H 0.51483 0.87359 0.09109 0.0
H995 H 0.3995 0.83371 0.18363 0.0
H996 H 0.41873 0.86637 0.15428 0.0
H997 H 0.48749 0.85768 0.15419 0.0
H998 H 0.46848 0.82516 0.18354 0.0
H999 H 0.46894 0.85802 0.11253 0.0
H1000 H 0.49027 0.90911 0.17889 0.0
H1001 H 0.47992 0.92306 0.21361 0.0
H1002 H 0.43179 0.94763 0.17979 0.0
H1003 H 0.44155 0.93345 0.14487 0.0
C1004 C 0.54238 0.96283 0.05981 0.0
C1005 C 0.52916 0.97261 0.04728 0.0
C1006 C 0.53099 0.94868 0.07883 0.0
C1007 C 0.50605 0.9438 0.08541 0.0
C1008 C 0.49396 0.95572 0.07406 0.0
C1009 C 0.50547 0.97003 0.05499 0.0
C1010 C 0.4912 0.92314 0.10191 0.0
C1011 C 0.48411 0.92998 0.12161 0.0
C1012 C 0.48516 0.89677 0.0984 0.0
C1013 C 0.49059 0.88816 0.07722 0.0
C1014 C 0.48025 0.89194 0.05775 0.0
C1015 C 0.48639 0.88495 0.03775 0.0
C1016 C 0.50262 0.87385 0.03699 0.0
C1017 C 0.51262 0.8696 0.05627 0.0
C1018 C 0.50661 0.87666 0.07632 0.0
C1019 C 0.41863 0.83864 0.17723 0.0
C1020 C 0.43253 0.82694 0.18589 0.0
C1021 C 0.42963 0.85737 0.16056 0.0
C1022 C 0.45463 0.86459 0.15221 0.0
C1023 C 0.46819 0.8524 0.16043 0.0
C1024 C 0.45733 0.83387 0.17722 0.0
C1025 C 0.46693 0.88512 0.13511 0.0
C1026 C 0.47346 0.8782 0.11517 0.0
C1027 C 0.47217 0.9113 0.13835 0.0
C1028 C 0.4664 0.91994 0.15931 0.0
C1029 C 0.47729 0.91727 0.17888 0.0
C1030 C 0.47157 0.92526 0.19859 0.0
C1031 C 0.45514 0.93615 0.19892 0.0
C1032 C 0.44447 0.93915 0.17952 0.0
C1033 C 0.4501 0.93115 0.15976 0.0
H1034 H 0.45074 0.94233 0.21419 0.0
H1035 H 0.50741 0.86853 0.02148 0.0
H1036 H 0.55162 0.50153 0.21399 0.0
H1037 H 0.55752 0.48338 0.24822 0.0
H1038 H 0.64033 0.54168 0.24773 0.0
H1039 H 0.63452 0.55947 0.21352 0.0
H1040 H 0.6341 0.49436 0.25223 0.0
H1041 H 0.59816 0.5432 0.28565 0.0
H1042 H 0.56577 0.55769 0.29152 0.0
H1043 H 0.5066 0.47826 0.30747 0.0
H1044 H 0.53855 0.46321 0.30139 0.0
H1045 H 0.63874 0.46856 0.37487 0.0
H1046 H 0.62857 0.48989 0.34522 0.0
H1047 H 0.60892 0.42313 0.30361 0.0
H1048 H 0.61913 0.40164 0.33325 0.0
H1049 H 0.58395 0.47591 0.32125 0.0
H1050 H 0.63278 0.44746 0.25278 0.0
H1051 H 0.66842 0.43707 0.24836 0.0
H1052 H 0.70757 0.48355 0.30485 0.0
H1053 H 0.67239 0.49451 0.30941 0.0
C1054 C 0.57087 0.51087 0.22159 0.0
C1055 C 0.59263 0.53182 0.21118 0.0
C1056 C 0.57427 0.50047 0.24108 0.0
C1057 C 0.59943 0.51107 0.25048 0.0
C1058 C 0.62081 0.53302 0.24069 0.0
C1059 C 0.61745 0.54326 0.22124 0.0
C1060 C 0.60409 0.49811 0.26941 0.0
C1061 C 0.62308 0.49034 0.2673 0.0
C1062 C 0.58995 0.49306 0.28918 0.0
C1063 C 0.57069 0.50204 0.29285 0.0
C1064 C 0.57818 0.52878 0.29023 0.0
C1065 C 0.55991 0.5371 0.29363 0.0
C1066 C 0.53413 0.51889 0.29981 0.0
C1067 C 0.52657 0.49233 0.30265 0.0
C1068 C 0.54476 0.4839 0.29925 0.0
C1069 C 0.63218 0.45837 0.35943 0.0
C1070 C 0.62991 0.4335 0.35632 0.0
C1071 C 0.62622 0.47052 0.34255 0.0
C1072 C 0.61812 0.45817 0.3222 0.0
C1073 C 0.61534 0.43309 0.31916 0.0
C1074 C 0.62118 0.42085 0.33609 0.0
C1075 C 0.61374 0.47205 0.30389 0.0
C1076 C 0.59481 0.47989 0.30611 0.0
C1077 C 0.62833 0.47773 0.28435 0.0
C1078 C 0.64978 0.47154 0.28156 0.0
C1079 C 0.64904 0.45552 0.26421 0.0
C1080 C 0.66916 0.44953 0.26169 0.0
C1081 C 0.6902 0.45957 0.27636 0.0
C1082 C 0.69121 0.4757 0.29355 0.0
C1083 C 0.67117 0.48178 0.29612 0.0
H1084 H 0.70573 0.45489 0.27439 0.0
H1085 H 0.52001 0.52538 0.30244 0.0
H1086 H 0.4819 0.93063 0.45452 0.0
H1087 H 0.47894 0.9101 0.41926 0.0
H1088 H 0.46747 0.96951 0.38782 0.0
H1089 H 0.47006 0.98999 0.42338 0.0
H1090 H 0.42987 0.9201 0.3765 0.0
H1091 H 0.52353 0.9675 0.37884 0.0
H1092 H 0.56756 0.98395 0.39487 0.0
H1093 H 0.55243 0.90446 0.40104 0.0
H1094 H 0.50814 0.88747 0.38534 0.0
H1095 H 0.4229 0.86114 0.27369 0.0
H1096 H 0.43737 0.8934 0.30328 0.0
H1097 H 0.45254 0.84207 0.34354 0.0
H1098 H 0.4385 0.80988 0.31383 0.0
H1099 H 0.49146 0.89278 0.3474 0.0
H1100 H 0.39649 0.84547 0.34971 0.0
H1101 H 0.35185 0.82827 0.33469 0.0
H1102 H 0.36928 0.90731 0.32068 0.0
H1103 H 0.41417 0.92496 0.33538 0.0
C1104 C 0.47916 0.93955 0.44004 0.0
C1105 C 0.47604 0.96178 0.44164 0.0
C1106 C 0.47765 0.92792 0.41988 0.0
C1107 C 0.47311 0.93834 0.40087 0.0
C1108 C 0.47105 0.96121 0.40229 0.0
C1109 C 0.4727 0.97298 0.42254 0.0
C1110 C 0.46808 0.92375 0.38001 0.0
C1111 C 0.44361 0.91466 0.36983 0.0
C1112 C 0.48572 0.91608 0.37165 0.0
C1113 C 0.51242 0.9262 0.38103 0.0
C1114 C 0.5295 0.9535 0.38376 0.0
C1115 C 0.55453 0.96293 0.39276 0.0
C1116 C 0.56277 0.94526 0.399 0.0
C1117 C 0.54602 0.91813 0.39621 0.0
C1118 C 0.52096 0.90859 0.38722 0.0
C1119 C 0.42936 0.85674 0.28883 0.0
C1120 C 0.4294 0.8329 0.29151 0.0
C1121 C 0.43759 0.87518 0.30574 0.0
C1122 C 0.44577 0.87003 0.32571 0.0
C1123 C 0.44631 0.84646 0.32826 0.0
C1124 C 0.43817 0.82804 0.31132 0.0
C1125 C 0.45311 0.88884 0.34416 0.0
C1126 C 0.47794 0.89862 0.35388 0.0
C1127 C 0.43577 0.89709 0.35219 0.0
C1128 C 0.40878 0.88651 0.3434 0.0
C1129 C 0.39087 0.85917 0.34326 0.0
C1130 C 0.36552 0.84934 0.33484 0.0
C1131 C 0.35776 0.86668 0.32667 0.0
C1132 C 0.37533 0.89389 0.32697 0.0
C1133 C 0.40073 0.90382 0.33536 0.0
H1134 H 0.33812 0.85903 0.32016 0.0
H1135 H 0.58216 0.95261 0.40597 0.0
H1136 H 0.58006 0.4954 0.61482 0.0
H1137 H 0.59498 0.48911 0.57934 0.0
H1138 H 0.51591 0.45572 0.55429 0.0
H1139 H 0.50093 0.46211 0.59 0.0
H1140 H 0.53615 0.42301 0.5489 0.0
H1141 H 0.56389 0.51296 0.53367 0.0
H1142 H 0.58575 0.56084 0.54063 0.0
H1143 H 0.66064 0.5647 0.54483 0.0
H1144 H 0.63919 0.51675 0.53821 0.0
H1145 H 0.57734 0.40068 0.44605 0.0
H1146 H 0.55917 0.41597 0.47463 0.0
H1147 H 0.63508 0.45619 0.50618 0.0
H1148 H 0.6535 0.44133 0.47737 0.0
H1149 H 0.61313 0.48688 0.50531 0.0
H1150 H 0.58539 0.39717 0.52529 0.0
H1151 H 0.56424 0.34907 0.51966 0.0
H1152 H 0.49006 0.34478 0.50791 0.0
H1153 H 0.51087 0.39295 0.51319 0.0
C1154 C 0.56608 0.4875 0.60152 0.0
C1155 C 0.53941 0.47931 0.60501 0.0
C1156 C 0.57459 0.48393 0.58126 0.0
C1157 C 0.55657 0.47199 0.56414 0.0
C1158 C 0.53013 0.46504 0.56728 0.0
C1159 C 0.52164 0.46887 0.58756 0.0
C1160 C 0.5649 0.46406 0.54407 0.0
C1161 C 0.55258 0.43705 0.53903 0.0
C1162 C 0.58684 0.4823 0.53164 0.0
C1163 C 0.59988 0.51118 0.53558 0.0
C1164 C 0.58499 0.52396 0.53625 0.0
C1165 C 0.59732 0.55114 0.5401 0.0
C1166 C 0.62456 0.5658 0.54321 0.0
C1167 C 0.63954 0.55332 0.54243 0.0
C1168 C 0.6273 0.52614 0.53859 0.0
C1169 C 0.59014 0.4127 0.45912 0.0
C1170 C 0.61682 0.41968 0.45955 0.0
C1171 C 0.57972 0.42141 0.47546 0.0
C1172 C 0.5957 0.43706 0.49266 0.0
C1173 C 0.62239 0.44417 0.49305 0.0
C1174 C 0.63285 0.43554 0.47666 0.0
C1175 C 0.58457 0.44582 0.51036 0.0
C1176 C 0.59643 0.47292 0.51497 0.0
C1177 C 0.5623 0.42766 0.52255 0.0
C1178 C 0.54976 0.3987 0.51938 0.0
C1179 C 0.56462 0.386 0.52132 0.0
C1180 C 0.55268 0.35872 0.51823 0.0
C1181 C 0.52584 0.34389 0.51336 0.0
C1182 C 0.51086 0.3563 0.51164 0.0
C1183 C 0.52271 0.38359 0.51469 0.0
H1184 H 0.51664 0.32276 0.51098 0.0
H1185 H 0.63407 0.58683 0.54619 0.0
H1186 H 0.06428 0.49233 0.75984 0.0
H1187 H 0.08682 0.50771 0.7246 0.0
H1188 H 0.12691 0.58788 0.74839 0.0
H1189 H 0.10475 0.57252 0.78359 0.0
H1190 H 0.11053 0.58247 0.7035 0.0
H1191 H 0.15717 0.55598 0.75333 0.0
H1192 H 0.1609 0.52458 0.77783 0.0
H1193 H 0.14152 0.46988 0.72496 0.0
H1194 H 0.13723 0.50076 0.70023 0.0
H1195 H 0.22772 0.64856 0.64152 0.0
H1196 H 0.19488 0.62953 0.67057 0.0
H1197 H 0.16964 0.55129 0.64608 0.0
H1198 H 0.20272 0.5702 0.61718 0.0
H1199 H 0.17465 0.5525 0.6891 0.0
H1200 H 0.13219 0.58018 0.63814 0.0
H1201 H 0.12768 0.61079 0.61334 0.0
H1202 H 0.1379 0.66208 0.66704 0.0
H1203 H 0.14287 0.63196 0.69214 0.0
C1204 C 0.07728 0.51329 0.75723 0.0
C1205 C 0.08281 0.5313 0.77428 0.0
C1206 C 0.09024 0.52203 0.73722 0.0
C1207 C 0.10865 0.5489 0.734 0.0
C1208 C 0.11272 0.5671 0.75053 0.0
C1209 C 0.10009 0.55834 0.77059 0.0
C1210 C 0.12575 0.55781 0.71446 0.0
C1211 C 0.12465 0.57605 0.70034 0.0
C1212 C 0.14377 0.54898 0.71019 0.0
C1213 C 0.14655 0.53052 0.72501 0.0
C1214 C 0.15346 0.53715 0.74699 0.0
C1215 C 0.15572 0.51948 0.76091 0.0
C1216 C 0.15137 0.49524 0.75297 0.0
C1217 C 0.14482 0.48865 0.73109 0.0
C1218 C 0.14247 0.50622 0.71712 0.0
C1219 C 0.21517 0.62731 0.64232 0.0
C1220 C 0.21778 0.61088 0.62706 0.0
C1221 C 0.19629 0.61645 0.65885 0.0
C1222 C 0.17953 0.58898 0.66034 0.0
C1223 C 0.18228 0.57253 0.64522 0.0
C1224 C 0.20117 0.58337 0.6287 0.0
C1225 C 0.15966 0.57741 0.67805 0.0
C1226 C 0.16032 0.55872 0.69196 0.0
C1227 C 0.14115 0.58574 0.68202 0.0
C1228 C 0.13814 0.60391 0.667 0.0
C1229 C 0.13369 0.59809 0.64464 0.0
C1230 C 0.13101 0.61534 0.63053 0.0
C1231 C 0.13256 0.6384 0.6386 0.0
C1232 C 0.13673 0.64423 0.66081 0.0
C1233 C 0.13946 0.62706 0.67499 0.0
H1234 H 0.13047 0.65172 0.62765 0.0
H1235 H 0.15314 0.48159 0.76377 0.0
H1236 H 0.55218 0.10306 0.94758 0.0
H1237 H 0.55463 0.12298 0.91213 0.0
H1238 H 0.58043 0.0727 0.88299 0.0
H1239 H 0.57833 0.05293 0.91875 0.0
H1240 H 0.61441 0.1235 0.87525 0.0
H1241 H 0.52165 0.06816 0.86797 0.0
H1242 H 0.47509 0.04647 0.87922 0.0
H1243 H 0.48058 0.12209 0.88598 0.0
H1244 H 0.5273 0.14429 0.87506 0.0
H1245 H 0.63215 0.18775 0.77414 0.0
H1246 H 0.61506 0.15333 0.80197 0.0
H1247 H 0.58634 0.19656 0.83872 0.0
H1248 H 0.60289 0.23088 0.81054 0.0
H1249 H 0.55124 0.14437 0.83946 0.0
H1250 H 0.64449 0.19937 0.85191 0.0
H1251 H 0.69151 0.22197 0.84188 0.0
H1252 H 0.68511 0.14734 0.82673 0.0
H1253 H 0.63793 0.12432 0.83641 0.0
C1254 C 0.55756 0.09568 0.93346 0.0
C1255 C 0.56515 0.07655 0.93584 0.0
C1256 C 0.55887 0.10701 0.91318 0.0
C1257 C 0.5677 0.09934 0.89484 0.0
C1258 C 0.57353 0.07889 0.89692 0.0
C1259 C 0.57213 0.06746 0.91727 0.0
C1260 C 0.57426 0.11524 0.87454 0.0
C1261 C 0.60037 0.1275 0.86708 0.0
C1262 C 0.55622 0.12117 0.86432 0.0
C1263 C 0.52806 0.1079 0.87081 0.0
C1264 C 0.513 0.08019 0.872 0.0
C1265 C 0.48656 0.0678 0.8783 0.0
C1266 C 0.47489 0.08289 0.88334 0.0
C1267 C 0.48964 0.11042 0.88206 0.0
C1268 C 0.5161 0.12292 0.87579 0.0
C1269 C 0.62212 0.18991 0.78811 0.0
C1270 C 0.61908 0.21215 0.79028 0.0
C1271 C 0.61238 0.17021 0.80402 0.0
C1272 C 0.59975 0.17252 0.8226 0.0
C1273 C 0.59605 0.19437 0.82453 0.0
C1274 C 0.60563 0.21402 0.8085 0.0
C1275 C 0.59138 0.15271 0.8404 0.0
C1276 C 0.56505 0.13991 0.84742 0.0
C1277 C 0.60924 0.14636 0.85038 0.0
C1278 C 0.63763 0.16016 0.84464 0.0
C1279 C 0.65307 0.1878 0.84628 0.0
C1280 C 0.67975 0.20068 0.84069 0.0
C1281 C 0.69127 0.18611 0.83361 0.0
C1282 C 0.67614 0.15861 0.83218 0.0
C1283 C 0.64944 0.14563 0.83772 0.0
H1284 H 0.71193 0.19612 0.82929 0.0
H1285 H 0.45442 0.07326 0.88822 0.0
H1286 H 0.47202 0.54386 0.11285 0.0
H1287 H 0.45691 0.54992 0.07747 0.0
H1288 H 0.53654 0.58688 0.05306 0.0
H1289 H 0.55183 0.58131 0.08881 0.0
H1290 H 0.51617 0.61773 0.0468 0.0
H1291 H 0.48752 0.52769 0.03195 0.0
H1292 H 0.46563 0.4798 0.03887 0.0
H1293 H 0.3909 0.47615 0.04389 0.0
H1294 H 0.41238 0.52411 0.03732 0.0
H1295 H 0.47336 0.63738 0.94349 0.0
H1296 H 0.49132 0.62164 0.97191 0.0
H1297 H 0.41752 0.58782 0.00656 0.0
H1298 H 0.39937 0.60351 0.97811 0.0
H1299 H 0.43788 0.55393 0.00443 0.0
H1300 H 0.46779 0.64461 0.02341 0.0
H1301 H 0.48974 0.69258 0.01675 0.0
H1302 H 0.56262 0.69453 0.00392 0.0
H1303 H 0.54099 0.64646 0.01021 0.0
C1304 C 0.48618 0.55261 0.09974 0.0
C1305 C 0.5131 0.56224 0.10356 0.0
C1306 C 0.47752 0.55598 0.07948 0.0
C1307 C 0.49557 0.56886 0.06254 0.0
C1308 C 0.52226 0.5769 0.06589 0.0
C1309 C 0.53095 0.57349 0.08622 0.0
C1310 C 0.48694 0.57669 0.04253 0.0
C1311 C 0.49945 0.60365 0.03722 0.0
C1312 C 0.46467 0.55846 0.03035 0.0
C1313 C 0.45162 0.52957 0.03428 0.0
C1314 C 0.46644 0.51673 0.0347 0.0
C1315 C 0.4541 0.48955 0.03853 0.0
C1316 C 0.4269 0.47495 0.04185 0.0
C1317 C 0.41197 0.48749 0.04131 0.0
C1318 C 0.42422 0.51467 0.0375 0.0
C1319 C 0.46095 0.62662 0.95717 0.0
C1320 C 0.43499 0.62179 0.95864 0.0
C1321 C 0.47125 0.61765 0.97339 0.0
C1322 C 0.4558 0.60367 0.99139 0.0
C1323 C 0.42976 0.59853 0.99277 0.0
C1324 C 0.41947 0.60763 0.97659 0.0
C1325 C 0.46697 0.59488 0.009 0.0
C1326 C 0.45487 0.56784 0.01385 0.0
C1327 C 0.48965 0.613 0.02076 0.0
C1328 C 0.5027 0.6419 0.01703 0.0
C1329 C 0.48844 0.65523 0.01898 0.0
C1330 C 0.50083 0.68244 0.01531 0.0
C1331 C 0.52754 0.69658 0.00985 0.0
C1332 C 0.54192 0.68354 0.00811 0.0
C1333 C 0.52961 0.65632 0.01174 0.0
H1334 H 0.5371 0.71765 0.00702 0.0
H1335 H 0.41738 0.45391 0.04482 0.0
H1336 H 0.96268 0.55795 0.26753 0.0
H1337 H 0.93791 0.53954 0.23383 0.0
H1338 H 0.95319 0.47481 0.23771 0.0
H1339 H 0.97855 0.49365 0.27132 0.0
H1340 H 0.95147 0.48906 0.19513 0.0
H1341 H 0.89883 0.46777 0.25922 0.0
H1342 H 0.8831 0.47685 0.29358 0.0
H1343 H 0.85621 0.52262 0.25895 0.0
H1344 H 0.87235 0.51434 0.22442 0.0
H1345 H 0.83725 0.39981 0.13322 0.0
H1346 H 0.86923 0.41957 0.16294 0.0
H1347 H 0.86153 0.48904 0.16047 0.0
H1348 H 0.82972 0.46951 0.1307 0.0
H1349 H 0.85937 0.47014 0.20272 0.0
H1350 H 0.91373 0.49129 0.13839 0.0
H1351 H 0.9292 0.48066 0.10462 0.0
H1352 H 0.95128 0.43194 0.14073 0.0
H1353 H 0.93557 0.44198 0.17469 0.0
C1354 C 0.96151 0.54031 0.26072 0.0
C1355 C 0.97242 0.52714 0.27187 0.0
C1356 C 0.94722 0.5297 0.24161 0.0
C1357 C 0.94319 0.50549 0.23359 0.0
C1358 C 0.95597 0.49346 0.2437 0.0
C1359 C 0.97052 0.50424 0.2628 0.0
C1360 C 0.92347 0.49156 0.21619 0.0
C1361 C 0.93126 0.48464 0.19687 0.0
C1362 C 0.89708 0.48584 0.21849 0.0
C1363 C 0.88706 0.49064 0.23923 0.0
C1364 C 0.88977 0.47996 0.25894 0.0
C1365 C 0.88077 0.48496 0.27845 0.0
C1366 C 0.8687 0.50034 0.27845 0.0
C1367 C 0.8656 0.51074 0.25893 0.0
C1368 C 0.87468 0.50591 0.23937 0.0
C1369 C 0.84233 0.41925 0.13907 0.0
C1370 C 0.83103 0.43315 0.12964 0.0
C1371 C 0.86066 0.43055 0.15596 0.0
C1372 C 0.86787 0.45584 0.16377 0.0
C1373 C 0.85624 0.46951 0.15464 0.0
C1374 C 0.83813 0.45836 0.13763 0.0
C1375 C 0.88749 0.46812 0.18149 0.0
C1376 C 0.87958 0.47458 0.20098 0.0
C1377 C 0.91361 0.47307 0.17943 0.0
C1378 C 0.92321 0.46716 0.15904 0.0
C1379 C 0.92167 0.47813 0.1391 0.0
C1380 C 0.93053 0.47225 0.11993 0.0
C1381 C 0.94115 0.45557 0.12052 0.0
C1382 C 0.94301 0.44481 0.14029 0.0
C1383 C 0.93415 0.45061 0.15951 0.0
H1384 H 0.94799 0.45104 0.10565 0.0
H1385 H 0.86172 0.50416 0.29357 0.0
loop_
_geom_bond_atom_site_label_1
_geom_bond_atom_site_label_2
_geom_bond_distance
_geom_bond_site_symmetry_2
_ccdc_geom_bond_type
H0 C6 0.930 . S
H1 C9 0.931 . S
H2 C11 0.931 . S
H3 C13 0.930 . S
H4 C15 0.930 . S
H5 C17 0.931 1_455 S
C6 H0 0.930 . S
C6 C7 1.380 . S
C6 C8 1.394 . S
C7 C6 1.380 . S
C7 C11 1.382 . S
C8 C6 1.394 . S
C8 C9 1.400 . S
C9 H1 0.931 . S
C9 C8 1.400 . S
C9 C10 1.375 . S
C10 C9 1.375 . S
C10 C11 1.415 . S
C10 C12 1.501 1_455 S
C11 H2 0.931 . S
C11 C7 1.382 . S
C11 C10 1.415 . S
C12 C10 1.501 1_655 S
C12 C13 1.384 . S
C12 C17 1.408 . S
C13 H3 0.930 . S
C13 C12 1.384 . S
C13 C14 1.389 . S
C14 C13 1.389 . S
C14 C15 1.405 . S
C15 H4 0.930 . S
C15 C14 1.405 . S
C15 C16 1.364 . S
C16 C15 1.364 . S
C16 C17 1.400 . S
C17 H5 0.931 1_655 S
C17 C12 1.408 . S
C17 C16 1.400 . S
H18 C24 0.930 . S
H19 C27 0.931 . S
H20 C29 0.931 . S
H21 C31 0.930 . S
H22 C33 0.930 . S
H23 C35 0.931 1_545 S
C24 H18 0.930 . S
C24 C25 1.380 . S
C24 C26 1.394 . S
C25 C24 1.380 . S
C25 C29 1.382 . S
C26 C24 1.394 . S
C26 C27 1.400 . S
C27 H19 0.931 . S
C27 C26 1.400 . S
C27 C28 1.375 . S
C28 C27 1.375 . S
C28 C29 1.415 . S
C28 C30 1.501 1_545 S
C29 H20 0.931 . S
C29 C25 1.382 . S
C29 C28 1.415 . S
C30 C28 1.501 1_565 S
C30 C31 1.384 . S
C30 C35 1.408 . S
C31 H21 0.930 . S
C31 C30 1.384 . S
C31 C32 1.389 . S
C32 C31 1.389 . S
C32 C33 1.405 . S
C33 H22 0.930 . S
C33 C32 1.405 . S
C33 C34 1.364 . S
C34 C33 1.364 . S
C34 C35 1.400 . S
C35 H23 0.931 1_565 S
C35 C30 1.408 . S
C35 C34 1.400 . S
H36 C42 0.930 . S
H37 C45 0.931 . S
H38 C47 0.931 . S
H39 C49 0.930 . S
H40 C51 0.930 . S
H41 C53 0.931 . S
C42 H36 0.930 . S
C42 C43 1.380 . S
C42 C44 1.394 . S
C43 C42 1.380 . S
C43 C47 1.382 . S
C44 C42 1.394 . S
C44 C45 1.400 . S
C45 H37 0.931 . S
C45 C44 1.400 . S
C45 C46 1.375 . S
C46 C45 1.375 . S
C46 C47 1.415 . S
C46 C48 1.501 . S
C47 H38 0.931 . S
C47 C43 1.382 . S
C47 C46 1.415 . S
C48 C46 1.501 . S
C48 C49 1.384 . S
C48 C53 1.408 . S
C49 H39 0.930 . S
C49 C48 1.384 . S
C49 C50 1.389 . S
C50 C49 1.389 . S
C50 C51 1.405 . S
C51 H40 0.930 . S
C51 C50 1.405 . S
C51 C52 1.364 . S
C52 C51 1.364 . S
C52 C53 1.400 . S
C53 H41 0.931 . S
C53 C48 1.408 . S
C53 C52 1.400 . S
H54 C60 0.930 . S
H55 C63 0.931 . S
H56 C65 0.931 . S
H57 C67 0.930 . S
H58 C69 0.930 . S
H59 C71 0.931 1_455 S
C60 H54 0.930 . S
C60 C61 1.380 . S
C60 C62 1.394 . S
C61 C60 1.380 . S
C61 C65 1.382 . S
C62 C60 1.394 . S
C62 C63 1.400 . S
C63 H55 0.931 . S
C63 C62 1.400 . S
C63 C64 1.375 . S
C64 C63 1.375 . S
C64 C65 1.415 . S
C64 C66 1.501 1_455 S
C65 H56 0.931 . S
C65 C61 1.382 . S
C65 C64 1.415 . S
C66 C64 1.501 1_655 S
C66 C67 1.384 . S
C66 C71 1.408 . S
C67 H57 0.930 . S
C67 C66 1.384 . S
C67 C68 1.389 . S
C68 C67 1.389 . S
C68 C69 1.405 . S
C69 H58 0.930 . S
C69 C68 1.405 . S
C69 C70 1.364 . S
C70 C69 1.364 . S
C70 C71 1.400 . S
C71 H59 0.931 1_655 S
C71 C66 1.408 . S
C71 C70 1.400 . S
H72 C78 0.930 . S
H73 C81 0.931 . S
H74 C83 0.931 1_545 S
H75 C85 0.930 . S
H76 C87 0.930 . S
H77 C89 0.931 . S
C78 H72 0.930 . S
C78 C79 1.380 . S
C78 C80 1.394 1_554 S
C79 C78 1.380 . S
C79 C83 1.382 . S
C80 C78 1.394 1_556 S
C80 C81 1.400 . S
C81 H73 0.931 . S
C81 C80 1.400 . S
C81 C82 1.375 . S
C82 C81 1.375 . S
C82 C83 1.415 1_556 S
C82 C84 1.501 1_565 S
C83 H74 0.931 1_565 S
C83 C79 1.382 . S
C83 C82 1.415 1_554 S
C84 C82 1.501 1_545 S
C84 C85 1.384 1_556 S
C84 C89 1.408 . S
C85 H75 0.930 . S
C85 C84 1.384 1_554 S
C85 C86 1.389 1_554 S
C86 C85 1.389 1_556 S
C86 C87 1.405 . S
C87 H76 0.930 . S
C87 C86 1.405 . S
C87 C88 1.364 . S
C88 C87 1.364 . S
C88 C89 1.400 . S
C89 H77 0.931 . S
C89 C84 1.408 . S
C89 C88 1.400 . S
H90 C96 0.930 . S
H91 C99 0.931 . S
H92 C101 0.931 . S
H93 C103 0.930 . S
H94 C105 0.930 . S
H95 C107 0.931 . S
C96 H90 0.930 . S
C96 C97 1.380 . S
C96 C98 1.394 . S
C97 C96 1.380 . S
C97 C101 1.382 . S
C98 C96 1.394 . S
C98 C99 1.400 . S
C99 H91 0.931 . S
C99 C98 1.400 . S
C99 C100 1.375 . S
C100 C99 1.375 . S
C100 C101 1.415 . S
C100 C102 1.501 . S
C101 H92 0.931 . S
C101 C97 1.382 . S
C101 C100 1.415 . S
C102 C100 1.501 . S
C102 C103 1.384 . S
C102 C107 1.408 . S
C103 H93 0.930 . S
C103 C102 1.384 . S
C103 C104 1.389 . S
C104 C103 1.389 . S
C104 C105 1.405 . S
C105 H94 0.930 . S
C105 C104 1.405 . S
C105 C106 1.364 . S
C106 C105 1.364 . S
C106 C107 1.400 . S
C107 H95 0.931 . S
C107 C102 1.408 . S
C107 C106 1.400 . S
In108 O109 2.294 . S
In108 O110 2.326 . S
In108 O114 2.266 . S
In108 O115 2.326 . S
In108 O116 2.266 . S
In108 O117 2.326 . S
In108 O119 2.294 . S
In108 O120 2.326 . S
O109 In108 2.294 . S
O109 C118 1.240 . S
O110 In108 2.326 . S
O110 C118 1.252 . S
C111 O114 1.252 . S
C111 O115 1.260 . S
C112 O119 1.240 . S
C112 O120 1.252 . S
C113 O116 1.252 . S
C113 O117 1.260 . S
O114 In108 2.266 . S
O114 C111 1.252 . S
O115 In108 2.326 . S
O115 C111 1.260 . S
O116 In108 2.266 . S
O116 C113 1.252 . S
O117 In108 2.326 . S
O117 C113 1.260 . S
C118 O109 1.240 . S
C118 O110 1.252 . S
O119 In108 2.294 . S
O119 C112 1.240 . S
O120 In108 2.326 . S
O120 C112 1.252 . S
In121 O122 2.294 . S
In121 O123 2.326 . S
In121 O127 2.266 . S
In121 O128 2.326 . S
In121 O129 2.266 . S
In121 O130 2.326 . S
In121 O132 2.294 . S
In121 O133 2.326 . S
O122 In121 2.294 . S
O122 C131 1.240 . S
O123 In121 2.326 . S
O123 C131 1.252 . S
C124 O127 1.252 . S
C124 O128 1.260 . S
C125 O132 1.240 . S
C125 O133 1.252 . S
C126 O129 1.252 . S
C126 O130 1.260 . S
O127 In121 2.266 . S
O127 C124 1.252 . S
O128 In121 2.326 . S
O128 C124 1.260 . S
O129 In121 2.266 . S
O129 C126 1.252 . S
O130 In121 2.326 . S
O130 C126 1.260 . S
C131 O122 1.240 . S
C131 O123 1.252 . S
O132 In121 2.294 . S
O132 C125 1.240 . S
O133 In121 2.326 . S
O133 C125 1.252 . S
In134 O135 2.294 . S
In134 O136 2.326 . S
In134 O140 2.266 . S
In134 O141 2.326 . S
In134 O142 2.266 . S
In134 O143 2.326 . S
In134 O145 2.294 . S
In134 O146 2.326 . S
O135 In134 2.294 . S
O135 C144 1.240 . S
O136 In134 2.326 . S
O136 C144 1.252 . S
C137 O140 1.252 . S
C137 O141 1.260 . S
C138 O145 1.240 . S
C138 O146 1.252 . S
C139 O142 1.252 . S
C139 O143 1.260 . S
O140 In134 2.266 . S
O140 C137 1.252 . S
O141 In134 2.326 . S
O141 C137 1.260 . S
O142 In134 2.266 . S
O142 C139 1.252 . S
O143 In134 2.326 . S
O143 C139 1.260 . S
C144 O135 1.240 . S
C144 O136 1.252 . S
O145 In134 2.294 . S
O145 C138 1.240 . S
O146 In134 2.326 . S
O146 C138 1.252 . S
In147 O148 2.294 . S
In147 O149 2.326 . S
In147 O153 2.266 . S
In147 O154 2.326 . S
In147 O155 2.266 . S
In147 O156 2.326 . S
In147 O158 2.294 . S
In147 O159 2.326 . S
O148 In147 2.294 . S
O148 C157 1.240 . S
O149 In147 2.326 . S
O149 C157 1.252 . S
C150 O153 1.252 . S
C150 O154 1.260 . S
C151 O158 1.240 . S
C151 O159 1.252 . S
C152 O155 1.252 . S
C152 O156 1.260 . S
O153 In147 2.266 . S
O153 C150 1.252 . S
O154 In147 2.326 . S
O154 C150 1.260 . S
O155 In147 2.266 . S
O155 C152 1.252 . S
O156 In147 2.326 . S
O156 C152 1.260 . S
C157 O148 1.240 . S
C157 O149 1.252 . S
O158 In147 2.294 . S
O158 C151 1.240 . S
O159 In147 2.326 . S
O159 C151 1.252 . S
In160 O161 2.294 . S
In160 O162 2.326 . S
In160 O166 2.266 . S
In160 O167 2.326 . S
In160 O168 2.266 . S
In160 O169 2.326 . S
In160 O171 2.294 . S
In160 O172 2.326 . S
O161 In160 2.294 . S
O161 C170 1.240 . S
O162 In160 2.326 . S
O162 C170 1.252 . S
C163 O166 1.252 . S
C163 O167 1.260 . S
C164 O171 1.240 . S
C164 O172 1.252 . S
C165 O168 1.252 . S
C165 O169 1.260 . S
O166 In160 2.266 . S
O166 C163 1.252 . S
O167 In160 2.326 . S
O167 C163 1.260 . S
O168 In160 2.266 . S
O168 C165 1.252 . S
O169 In160 2.326 . S
O169 C165 1.260 . S
C170 O161 1.240 . S
C170 O162 1.252 . S
O171 In160 2.294 . S
O171 C164 1.240 . S
O172 In160 2.326 . S
O172 C164 1.252 . S
In173 O174 2.294 . S
In173 O175 2.326 . S
In173 O179 2.266 . S
In173 O180 2.326 . S
In173 O181 2.266 . S
In173 O182 2.326 . S
In173 O184 2.294 . S
In173 O185 2.326 . S
O174 In173 2.294 . S
O174 C183 1.240 . S
O175 In173 2.326 . S
O175 C183 1.252 . S
C176 O179 1.252 . S
C176 O180 1.260 . S
C177 O184 1.240 . S
C177 O185 1.252 . S
C178 O181 1.252 . S
C178 O182 1.260 . S
O179 In173 2.266 . S
O179 C176 1.252 . S
O180 In173 2.326 . S
O180 C176 1.260 . S
O181 In173 2.266 . S
O181 C178 1.252 . S
O182 In173 2.326 . S
O182 C178 1.260 . S
C183 O174 1.240 . S
C183 O175 1.252 . S
O184 In173 2.294 . S
O184 C177 1.240 . S
O185 In173 2.326 . S
O185 C177 1.252 . S
H186 C204 0.951 . S
H187 C206 0.951 . S
H188 C208 0.950 . S
H189 C209 0.950 . S
H190 C211 0.950 . S
H191 C214 0.950 . S
H192 C215 0.950 . S
H193 C217 0.950 . S
H194 C218 0.950 . S
H195 C219 0.951 . S
H196 C221 0.951 . S
H197 C223 0.950 . S
H198 C224 0.950 . S
H199 C226 0.950 . S
H200 C229 0.950 . S
H201 C230 0.950 . S
H202 C232 0.950 . S
H203 C233 0.950 . S
C204 H186 0.951 . S
C204 C205 1.366 . S
C204 C206 1.388 . S
C205 C204 1.366 . S
C205 C209 1.385 . S
C206 H187 0.951 . S
C206 C204 1.388 . S
C206 C207 1.366 . S
C207 C206 1.366 . S
C207 C208 1.414 . S
C207 C210 1.499 . S
C208 H188 0.950 . S
C208 C207 1.414 . S
C208 C209 1.374 . S
C209 H189 0.950 . S
C209 C205 1.385 . S
C209 C208 1.374 . S
C210 C207 1.499 . S
C210 C211 1.373 . S
C210 C212 1.389 . S
C211 H190 0.950 . S
C211 C210 1.373 . S
C211 C227 1.377 . S
C212 C210 1.389 . S
C212 C213 1.524 . S
C212 C226 1.377 . S
C213 C212 1.524 . S
C213 C214 1.397 . S
C213 C218 1.363 . S
C214 H191 0.950 . S
C214 C213 1.397 . S
C214 C215 1.334 . S
C215 H192 0.950 . S
C215 C214 1.334 . S
C215 C216 1.287 . S
C216 C215 1.287 . S
C216 C217 1.524 . S
C216 H235 0.913 . S
C217 H193 0.950 . S
C217 C216 1.524 . S
C217 C218 1.415 . S
C218 H194 0.950 . S
C218 C213 1.363 . S
C218 C217 1.415 . S
C219 H195 0.951 . S
C219 C220 1.366 . S
C219 C221 1.388 . S
C220 C219 1.366 . S
C220 C224 1.385 . S
C221 H196 0.951 . S
C221 C219 1.388 . S
C221 C222 1.366 . S
C222 C221 1.366 . S
C222 C223 1.414 . S
C222 C225 1.499 . S
C223 H197 0.950 . S
C223 C222 1.414 . S
C223 C224 1.374 . S
C224 H198 0.950 . S
C224 C220 1.385 . S
C224 C223 1.374 . S
C225 C222 1.499 . S
C225 C226 1.373 . S
C225 C227 1.389 . S
C226 H199 0.950 . S
C226 C212 1.377 . S
C226 C225 1.373 . S
C227 C211 1.377 . S
C227 C225 1.389 . S
C227 C228 1.524 . S
C228 C227 1.524 . S
C228 C229 1.397 . S
C228 C233 1.363 . S
C229 H200 0.950 . S
C229 C228 1.397 . S
C229 C230 1.334 . S
C230 H201 0.950 . S
C230 C229 1.334 . S
C230 C231 1.287 . S
C231 C230 1.287 . S
C231 C232 1.524 . S
C231 H234 0.999 . S
C232 H202 0.950 . S
C232 C231 1.524 . S
C232 C233 1.415 . S
C233 H203 0.950 . S
C233 C228 1.363 . S
C233 C232 1.415 . S
H234 C231 0.999 . S
H235 C216 0.913 . S
H236 C254 0.951 . S
H237 C256 0.951 . S
H238 C258 0.950 . S
H239 C259 0.950 . S
H240 C261 0.950 . S
H241 C264 0.950 . S
H242 C265 0.950 . S
H243 C267 0.950 . S
H244 C268 0.950 . S
H245 C269 0.951 . S
H246 C271 0.951 . S
H247 C273 0.950 . S
H248 C274 0.950 . S
H249 C276 0.950 . S
H250 C279 0.950 . S
H251 C280 0.950 . S
H252 C282 0.950 . S
H253 C283 0.950 . S
C254 H236 0.951 . S
C254 C255 1.366 . S
C254 C256 1.388 . S
C255 C254 1.366 . S
C255 C259 1.385 . S
C256 H237 0.951 . S
C256 C254 1.388 . S
C256 C257 1.366 . S
C257 C256 1.366 . S
C257 C258 1.414 . S
C257 C260 1.499 . S
C258 H238 0.950 . S
C258 C257 1.414 . S
C258 C259 1.374 . S
C259 H239 0.950 . S
C259 C255 1.385 . S
C259 C258 1.374 . S
C260 C257 1.499 . S
C260 C261 1.373 . S
C260 C262 1.389 . S
C261 H240 0.950 . S
C261 C260 1.373 . S
C261 C277 1.377 . S
C262 C260 1.389 . S
C262 C263 1.524 . S
C262 C276 1.377 . S
C263 C262 1.524 . S
C263 C264 1.397 . S
C263 C268 1.363 . S
C264 H241 0.950 . S
C264 C263 1.397 . S
C264 C265 1.334 . S
C265 H242 0.950 . S
C265 C264 1.334 . S
C265 C266 1.287 . S
C266 C265 1.287 . S
C266 C267 1.524 . S
C266 H285 0.913 . S
C267 H243 0.950 . S
C267 C266 1.524 . S
C267 C268 1.415 . S
C268 H244 0.950 . S
C268 C263 1.363 . S
C268 C267 1.415 . S
C269 H245 0.951 . S
C269 C270 1.366 . S
C269 C271 1.388 . S
C270 C269 1.366 . S
C270 C274 1.385 . S
C271 H246 0.951 . S
C271 C269 1.388 . S
C271 C272 1.366 . S
C272 C271 1.366 . S
C272 C273 1.414 . S
C272 C275 1.499 . S
C273 H247 0.950 . S
C273 C272 1.414 . S
C273 C274 1.374 . S
C274 H248 0.950 . S
C274 C270 1.385 . S
C274 C273 1.374 . S
C275 C272 1.499 . S
C275 C276 1.373 . S
C275 C277 1.389 . S
C276 H249 0.950 . S
C276 C262 1.377 . S
C276 C275 1.373 . S
C277 C261 1.377 . S
C277 C275 1.389 . S
C277 C278 1.524 . S
C278 C277 1.524 . S
C278 C279 1.397 . S
C278 C283 1.363 . S
C279 H250 0.950 . S
C279 C278 1.397 . S
C279 C280 1.334 . S
C280 H251 0.950 . S
C280 C279 1.334 . S
C280 C281 1.287 . S
C281 C280 1.287 . S
C281 C282 1.524 . S
C281 H284 0.999 . S
C282 H252 0.950 . S
C282 C281 1.524 . S
C282 C283 1.415 . S
C283 H253 0.950 . S
C283 C278 1.363 . S
C283 C282 1.415 . S
H284 C281 0.999 . S
H285 C266 0.913 . S
H286 C304 0.951 . S
H287 C306 0.951 . S
H288 C308 0.950 . S
H289 C309 0.950 . S
H290 C311 0.950 . S
H291 C314 0.950 . S
H292 C315 0.950 . S
H293 C317 0.950 . S
H294 C318 0.950 . S
H295 C319 0.951 . S
H296 C321 0.951 . S
H297 C323 0.950 . S
H298 C324 0.950 . S
H299 C326 0.950 . S
H300 C329 0.950 . S
H301 C330 0.950 . S
H302 C332 0.950 . S
H303 C333 0.950 . S
C304 H286 0.951 . S
C304 C305 1.366 . S
C304 C306 1.388 . S
C305 C304 1.366 . S
C305 C309 1.385 . S
C306 H287 0.951 . S
C306 C304 1.388 . S
C306 C307 1.366 . S
C307 C306 1.366 . S
C307 C308 1.414 . S
C307 C310 1.499 . S
C308 H288 0.950 . S
C308 C307 1.414 . S
C308 C309 1.374 . S
C309 H289 0.950 . S
C309 C305 1.385 . S
C309 C308 1.374 . S
C310 C307 1.499 . S
C310 C311 1.373 . S
C310 C312 1.389 . S
C311 H290 0.950 . S
C311 C310 1.373 . S
C311 C327 1.377 . S
C312 C310 1.389 . S
C312 C313 1.524 . S
C312 C326 1.377 . S
C313 C312 1.524 . S
C313 C314 1.397 . S
C313 C318 1.363 . S
C314 H291 0.950 . S
C314 C313 1.397 . S
C314 C315 1.334 . S
C315 H292 0.950 . S
C315 C314 1.334 . S
C315 C316 1.287 . S
C316 C315 1.287 . S
C316 C317 1.524 . S
C316 H335 0.913 . S
C317 H293 0.950 . S
C317 C316 1.524 . S
C317 C318 1.415 . S
C318 H294 0.950 . S
C318 C313 1.363 . S
C318 C317 1.415 . S
C319 H295 0.951 . S
C319 C320 1.366 . S
C319 C321 1.388 . S
C320 C319 1.366 . S
C320 C324 1.385 . S
C321 H296 0.951 . S
C321 C319 1.388 . S
C321 C322 1.366 . S
C322 C321 1.366 . S
C322 C323 1.414 . S
C322 C325 1.499 . S
C323 H297 0.950 . S
C323 C322 1.414 . S
C323 C324 1.374 . S
C324 H298 0.950 . S
C324 C320 1.385 . S
C324 C323 1.374 . S
C325 C322 1.499 . S
C325 C326 1.373 . S
C325 C327 1.389 . S
C326 H299 0.950 . S
C326 C312 1.377 . S
C326 C325 1.373 . S
C327 C311 1.377 . S
C327 C325 1.389 . S
C327 C328 1.524 . S
C328 C327 1.524 . S
C328 C329 1.397 . S
C328 C333 1.363 . S
C329 H300 0.950 . S
C329 C328 1.397 . S
C329 C330 1.334 . S
C330 H301 0.950 . S
C330 C329 1.334 . S
C330 C331 1.287 . S
C331 C330 1.287 . S
C331 C332 1.524 . S
C331 H334 0.999 . S
C332 H302 0.950 . S
C332 C331 1.524 . S
C332 C333 1.415 . S
C333 H303 0.950 . S
C333 C328 1.363 . S
C333 C332 1.415 . S
H334 C331 0.999 . S
H335 C316 0.913 . S
H336 C354 0.951 . S
H337 C356 0.951 . S
H338 C358 0.950 . S
H339 C359 0.950 . S
H340 C361 0.950 . S
H341 C364 0.950 . S
H342 C365 0.950 . S
H343 C367 0.950 . S
H344 C368 0.950 . S
H345 C369 0.951 . S
H346 C371 0.951 . S
H347 C373 0.950 . S
H348 C374 0.950 . S
H349 C376 0.950 . S
H350 C379 0.950 . S
H351 C380 0.950 . S
H352 C382 0.950 . S
H353 C383 0.950 . S
C354 H336 0.951 . S
C354 C355 1.366 . S
C354 C356 1.388 . S
C355 C354 1.366 . S
C355 C359 1.385 . S
C356 H337 0.951 . S
C356 C354 1.388 . S
C356 C357 1.366 . S
C357 C356 1.366 . S
C357 C358 1.414 . S
C357 C360 1.499 . S
C358 H338 0.950 . S
C358 C357 1.414 . S
C358 C359 1.374 . S
C359 H339 0.950 . S
C359 C355 1.385 . S
C359 C358 1.374 . S
C360 C357 1.499 . S
C360 C361 1.373 . S
C360 C362 1.389 . S
C361 H340 0.950 . S
C361 C360 1.373 . S
C361 C377 1.377 . S
C362 C360 1.389 . S
C362 C363 1.524 . S
C362 C376 1.377 . S
C363 C362 1.524 . S
C363 C364 1.397 . S
C363 C368 1.363 . S
C364 H341 0.950 . S
C364 C363 1.397 . S
C364 C365 1.334 . S
C365 H342 0.950 . S
C365 C364 1.334 . S
C365 C366 1.287 . S
C366 C365 1.287 . S
C366 C367 1.524 . S
C366 H385 0.913 . S
C367 H343 0.950 . S
C367 C366 1.524 . S
C367 C368 1.415 . S
C368 H344 0.950 . S
C368 C363 1.363 . S
C368 C367 1.415 . S
C369 H345 0.951 . S
C369 C370 1.366 . S
C369 C371 1.388 . S
C370 C369 1.366 . S
C370 C374 1.385 . S
C371 H346 0.951 . S
C371 C369 1.388 . S
C371 C372 1.366 . S
C372 C371 1.366 . S
C372 C373 1.414 . S
C372 C375 1.499 . S
C373 H347 0.950 . S
C373 C372 1.414 . S
C373 C374 1.374 . S
C374 H348 0.950 . S
C374 C370 1.385 . S
C374 C373 1.374 . S
C375 C372 1.499 . S
C375 C376 1.373 . S
C375 C377 1.389 . S
C376 H349 0.950 . S
C376 C362 1.377 . S
C376 C375 1.373 . S
C377 C361 1.377 . S
C377 C375 1.389 . S
C377 C378 1.524 . S
C378 C377 1.524 . S
C378 C379 1.397 . S
C378 C383 1.363 . S
C379 H350 0.950 . S
C379 C378 1.397 . S
C379 C380 1.334 . S
C380 H351 0.950 . S
C380 C379 1.334 . S
C380 C381 1.287 . S
C381 C380 1.287 . S
C381 C382 1.524 . S
C381 H384 0.999 . S
C382 H352 0.950 . S
C382 C381 1.524 . S
C382 C383 1.415 . S
C383 H353 0.950 . S
C383 C378 1.363 . S
C383 C382 1.415 . S
H384 C381 0.999 . S
H385 C366 0.913 . S
H386 C404 0.951 . S
H387 C406 0.951 . S
H388 C408 0.950 . S
H389 C409 0.950 . S
H390 C411 0.950 . S
H391 C414 0.950 . S
H392 C415 0.950 1_554 S
H393 C417 0.950 . S
H394 C418 0.950 . S
H395 C419 0.951 . S
H396 C421 0.951 . S
H397 C423 0.950 . S
H398 C424 0.950 . S
H399 C426 0.950 . S
H400 C429 0.950 . S
H401 C430 0.950 . S
H402 C432 0.950 . S
H403 C433 0.950 . S
C404 H386 0.951 . S
C404 C405 1.366 . S
C404 C406 1.388 . S
C405 C404 1.366 . S
C405 C409 1.385 . S
C406 H387 0.951 . S
C406 C404 1.388 . S
C406 C407 1.366 . S
C407 C406 1.366 . S
C407 C408 1.414 . S
C407 C410 1.499 . S
C408 H388 0.950 . S
C408 C407 1.414 . S
C408 C409 1.374 . S
C409 H389 0.950 . S
C409 C405 1.385 . S
C409 C408 1.374 . S
C410 C407 1.499 . S
C410 C411 1.373 . S
C410 C412 1.389 . S
C411 H390 0.950 . S
C411 C410 1.373 . S
C411 C427 1.377 . S
C412 C410 1.389 . S
C412 C413 1.524 . S
C412 C426 1.377 . S
C413 C412 1.524 . S
C413 C414 1.397 . S
C413 C418 1.363 . S
C414 H391 0.950 . S
C414 C413 1.397 . S
C414 C415 1.334 . S
C415 H392 0.950 1_556 S
C415 C414 1.334 . S
C415 C416 1.287 . S
C416 C415 1.287 . S
C416 C417 1.524 . S
C416 H435 0.913 . S
C417 H393 0.950 . S
C417 C416 1.524 . S
C417 C418 1.415 . S
C418 H394 0.950 . S
C418 C413 1.363 . S
C418 C417 1.415 . S
C419 H395 0.951 . S
C419 C420 1.366 . S
C419 C421 1.388 . S
C420 C419 1.366 . S
C420 C424 1.385 . S
C421 H396 0.951 . S
C421 C419 1.388 . S
C421 C422 1.366 . S
C422 C421 1.366 . S
C422 C423 1.414 . S
C422 C425 1.499 . S
C423 H397 0.950 . S
C423 C422 1.414 . S
C423 C424 1.374 . S
C424 H398 0.950 . S
C424 C420 1.385 . S
C424 C423 1.374 . S
C425 C422 1.499 . S
C425 C426 1.373 . S
C425 C427 1.389 . S
C426 H399 0.950 . S
C426 C412 1.377 . S
C426 C425 1.373 . S
C427 C411 1.377 . S
C427 C425 1.389 . S
C427 C428 1.524 . S
C428 C427 1.524 . S
C428 C429 1.397 . S
C428 C433 1.363 . S
C429 H400 0.950 . S
C429 C428 1.397 . S
C429 C430 1.334 . S
C430 H401 0.950 . S
C430 C429 1.334 . S
C430 C431 1.287 . S
C431 C430 1.287 . S
C431 C432 1.524 . S
C431 H434 0.999 . S
C432 H402 0.950 . S
C432 C431 1.524 . S
C432 C433 1.415 . S
C433 H403 0.950 . S
C433 C428 1.363 . S
C433 C432 1.415 . S
H434 C431 0.999 . S
H435 C416 0.913 . S
H436 C454 0.951 . S
H437 C456 0.951 . S
H438 C458 0.950 . S
H439 C459 0.950 . S
H440 C461 0.950 . S
H441 C464 0.950 . S
H442 C465 0.950 . S
H443 C467 0.950 . S
H444 C468 0.950 . S
H445 C469 0.951 . S
H446 C471 0.951 . S
H447 C473 0.950 . S
H448 C474 0.950 . S
H449 C476 0.950 . S
H450 C479 0.950 . S
H451 C480 0.950 . S
H452 C482 0.950 . S
H453 C483 0.950 . S
C454 H436 0.951 . S
C454 C455 1.366 . S
C454 C456 1.388 . S
C455 C454 1.366 . S
C455 C459 1.385 . S
C456 H437 0.951 . S
C456 C454 1.388 . S
C456 C457 1.366 . S
C457 C456 1.366 . S
C457 C458 1.414 . S
C457 C460 1.499 . S
C458 H438 0.950 . S
C458 C457 1.414 . S
C458 C459 1.374 . S
C459 H439 0.950 . S
C459 C455 1.385 . S
C459 C458 1.374 . S
C460 C457 1.499 . S
C460 C461 1.373 . S
C460 C462 1.389 . S
C461 H440 0.950 . S
C461 C460 1.373 . S
C461 C477 1.377 . S
C462 C460 1.389 . S
C462 C463 1.524 . S
C462 C476 1.377 . S
C463 C462 1.524 . S
C463 C464 1.397 . S
C463 C468 1.363 . S
C464 H441 0.950 . S
C464 C463 1.397 . S
C464 C465 1.334 . S
C465 H442 0.950 . S
C465 C464 1.334 . S
C465 C466 1.287 . S
C466 C465 1.287 . S
C466 C467 1.524 . S
C466 H485 0.913 . S
C467 H443 0.950 . S
C467 C466 1.524 . S
C467 C468 1.415 . S
C468 H444 0.950 . S
C468 C463 1.363 . S
C468 C467 1.415 . S
C469 H445 0.951 . S
C469 C470 1.366 . S
C469 C471 1.388 . S
C470 C469 1.366 . S
C470 C474 1.385 . S
C471 H446 0.951 . S
C471 C469 1.388 . S
C471 C472 1.366 . S
C472 C471 1.366 . S
C472 C473 1.414 . S
C472 C475 1.499 . S
C473 H447 0.950 . S
C473 C472 1.414 . S
C473 C474 1.374 . S
C474 H448 0.950 . S
C474 C470 1.385 . S
C474 C473 1.374 . S
C475 C472 1.499 . S
C475 C476 1.373 . S
C475 C477 1.389 . S
C476 H449 0.950 . S
C476 C462 1.377 . S
C476 C475 1.373 . S
C477 C461 1.377 . S
C477 C475 1.389 . S
C477 C478 1.524 . S
C478 C477 1.524 . S
C478 C479 1.397 . S
C478 C483 1.363 . S
C479 H450 0.950 . S
C479 C478 1.397 . S
C479 C480 1.334 . S
C480 H451 0.950 . S
C480 C479 1.334 . S
C480 C481 1.287 . S
C481 C480 1.287 . S
C481 C482 1.524 . S
C481 H484 0.999 . S
C482 H452 0.950 . S
C482 C481 1.524 . S
C482 C483 1.415 . S
C483 H453 0.950 . S
C483 C478 1.363 . S
C483 C482 1.415 . S
H484 C481 0.999 . S
H485 C466 0.913 . S
H486 C504 0.951 . S
H487 C506 0.951 . S
H488 C508 0.950 . S
H489 C509 0.950 . S
H490 C511 0.950 . S
H491 C514 0.950 . S
H492 C515 0.950 . S
H493 C517 0.950 . S
H494 C518 0.950 . S
H495 C519 0.951 . S
H496 C521 0.951 . S
H497 C523 0.950 . S
H498 C524 0.950 . S
H499 C526 0.950 . S
H500 C529 0.950 . S
H501 C530 0.950 . S
H502 C532 0.950 . S
H503 C533 0.950 . S
C504 H486 0.951 . S
C504 C505 1.366 . S
C504 C506 1.388 . S
C505 C504 1.366 . S
C505 C509 1.385 . S
C506 H487 0.951 . S
C506 C504 1.388 . S
C506 C507 1.366 . S
C507 C506 1.366 . S
C507 C508 1.414 . S
C507 C510 1.499 . S
C508 H488 0.950 . S
C508 C507 1.414 . S
C508 C509 1.374 . S
C509 H489 0.950 . S
C509 C505 1.385 . S
C509 C508 1.374 . S
C510 C507 1.499 . S
C510 C511 1.373 . S
C510 C512 1.389 . S
C511 H490 0.950 . S
C511 C510 1.373 . S
C511 C527 1.377 . S
C512 C510 1.389 . S
C512 C513 1.524 . S
C512 C526 1.377 . S
C513 C512 1.524 . S
C513 C514 1.397 . S
C513 C518 1.363 . S
C514 H491 0.950 . S
C514 C513 1.397 . S
C514 C515 1.334 . S
C515 H492 0.950 . S
C515 C514 1.334 . S
C515 C516 1.287 . S
C516 C515 1.287 . S
C516 C517 1.524 . S
C516 H535 0.913 . S
C517 H493 0.950 . S
C517 C516 1.524 . S
C517 C518 1.415 . S
C518 H494 0.950 . S
C518 C513 1.363 . S
C518 C517 1.415 . S
C519 H495 0.951 . S
C519 C520 1.366 . S
C519 C521 1.388 . S
C520 C519 1.366 . S
C520 C524 1.385 . S
C521 H496 0.951 . S
C521 C519 1.388 . S
C521 C522 1.366 . S
C522 C521 1.366 . S
C522 C523 1.414 . S
C522 C525 1.499 . S
C523 H497 0.950 . S
C523 C522 1.414 . S
C523 C524 1.374 . S
C524 H498 0.950 . S
C524 C520 1.385 . S
C524 C523 1.374 . S
C525 C522 1.499 . S
C525 C526 1.373 . S
C525 C527 1.389 . S
C526 H499 0.950 . S
C526 C512 1.377 . S
C526 C525 1.373 . S
C527 C511 1.377 . S
C527 C525 1.389 . S
C527 C528 1.524 . S
C528 C527 1.524 . S
C528 C529 1.397 . S
C528 C533 1.363 . S
C529 H500 0.950 . S
C529 C528 1.397 . S
C529 C530 1.334 . S
C530 H501 0.950 . S
C530 C529 1.334 . S
C530 C531 1.287 . S
C531 C530 1.287 . S
C531 C532 1.524 . S
C531 H534 0.999 . S
C532 H502 0.950 . S
C532 C531 1.524 . S
C532 C533 1.415 . S
C533 H503 0.950 . S
C533 C528 1.363 . S
C533 C532 1.415 . S
H534 C531 0.999 . S
H535 C516 0.913 . S
H536 C554 0.951 . S
H537 C556 0.951 . S
H538 C558 0.950 . S
H539 C559 0.950 . S
H540 C561 0.950 . S
H541 C564 0.950 . S
H542 C565 0.950 . S
H543 C567 0.950 . S
H544 C568 0.950 . S
H545 C569 0.951 . S
H546 C571 0.951 . S
H547 C573 0.950 . S
H548 C574 0.950 . S
H549 C576 0.950 . S
H550 C579 0.950 . S
H551 C580 0.950 . S
H552 C582 0.950 . S
H553 C583 0.950 . S
C554 H536 0.951 . S
C554 C555 1.366 . S
C554 C556 1.388 . S
C555 C554 1.366 . S
C555 C559 1.385 . S
C556 H537 0.951 . S
C556 C554 1.388 . S
C556 C557 1.366 . S
C557 C556 1.366 . S
C557 C558 1.414 . S
C557 C560 1.499 . S
C558 H538 0.950 . S
C558 C557 1.414 . S
C558 C559 1.374 . S
C559 H539 0.950 . S
C559 C555 1.385 . S
C559 C558 1.374 . S
C560 C557 1.499 . S
C560 C561 1.373 . S
C560 C562 1.389 . S
C561 H540 0.950 . S
C561 C560 1.373 . S
C561 C577 1.377 . S
C562 C560 1.389 . S
C562 C563 1.524 . S
C562 C576 1.377 . S
C563 C562 1.524 . S
C563 C564 1.397 . S
C563 C568 1.363 . S
C564 H541 0.950 . S
C564 C563 1.397 . S
C564 C565 1.334 . S
C565 H542 0.950 . S
C565 C564 1.334 . S
C565 C566 1.287 . S
C566 C565 1.287 . S
C566 C567 1.524 . S
C566 H585 0.913 . S
C567 H543 0.950 . S
C567 C566 1.524 . S
C567 C568 1.415 . S
C568 H544 0.950 . S
C568 C563 1.363 . S
C568 C567 1.415 . S
C569 H545 0.951 . S
C569 C570 1.366 . S
C569 C571 1.388 . S
C570 C569 1.366 . S
C570 C574 1.385 . S
C571 H546 0.951 . S
C571 C569 1.388 . S
C571 C572 1.366 . S
C572 C571 1.366 . S
C572 C573 1.414 . S
C572 C575 1.499 . S
C573 H547 0.950 . S
C573 C572 1.414 . S
C573 C574 1.374 . S
C574 H548 0.950 . S
C574 C570 1.385 . S
C574 C573 1.374 . S
C575 C572 1.499 . S
C575 C576 1.373 . S
C575 C577 1.389 . S
C576 H549 0.950 . S
C576 C562 1.377 . S
C576 C575 1.373 . S
C577 C561 1.377 . S
C577 C575 1.389 . S
C577 C578 1.524 . S
C578 C577 1.524 . S
C578 C579 1.397 . S
C578 C583 1.363 . S
C579 H550 0.950 . S
C579 C578 1.397 . S
C579 C580 1.334 . S
C580 H551 0.950 . S
C580 C579 1.334 . S
C580 C581 1.287 . S
C581 C580 1.287 . S
C581 C582 1.524 . S
C581 H584 0.999 . S
C582 H552 0.950 . S
C582 C581 1.524 . S
C582 C583 1.415 . S
C583 H553 0.950 . S
C583 C578 1.363 . S
C583 C582 1.415 . S
H584 C581 0.999 . S
H585 C566 0.913 . S
H586 C604 0.951 . S
H587 C606 0.951 . S
H588 C608 0.950 . S
H589 C609 0.950 . S
H590 C611 0.950 . S
H591 C614 0.950 . S
H592 C615 0.950 . S
H593 C617 0.950 . S
H594 C618 0.950 . S
H595 C619 0.951 . S
H596 C621 0.951 . S
H597 C623 0.950 . S
H598 C624 0.950 . S
H599 C626 0.950 . S
H600 C629 0.950 . S
H601 C630 0.950 . S
H602 C632 0.950 . S
H603 C633 0.950 . S
C604 H586 0.951 . S
C604 C605 1.366 . S
C604 C606 1.388 . S
C605 C604 1.366 . S
C605 C609 1.385 . S
C606 H587 0.951 . S
C606 C604 1.388 . S
C606 C607 1.366 . S
C607 C606 1.366 . S
C607 C608 1.414 . S
C607 C610 1.499 . S
C608 H588 0.950 . S
C608 C607 1.414 . S
C608 C609 1.374 . S
C609 H589 0.950 . S
C609 C605 1.385 . S
C609 C608 1.374 . S
C610 C607 1.499 . S
C610 C611 1.373 . S
C610 C612 1.389 . S
C611 H590 0.950 . S
C611 C610 1.373 . S
C611 C627 1.377 . S
C612 C610 1.389 . S
C612 C613 1.524 . S
C612 C626 1.377 . S
C613 C612 1.524 . S
C613 C614 1.397 . S
C613 C618 1.363 . S
C614 H591 0.950 . S
C614 C613 1.397 . S
C614 C615 1.334 . S
C615 H592 0.950 . S
C615 C614 1.334 . S
C615 C616 1.287 . S
C616 C615 1.287 . S
C616 C617 1.524 . S
C616 H635 0.913 . S
C617 H593 0.950 . S
C617 C616 1.524 . S
C617 C618 1.415 . S
C618 H594 0.950 . S
C618 C613 1.363 . S
C618 C617 1.415 . S
C619 H595 0.951 . S
C619 C620 1.366 . S
C619 C621 1.388 . S
C620 C619 1.366 . S
C620 C624 1.385 . S
C621 H596 0.951 . S
C621 C619 1.388 . S
C621 C622 1.366 . S
C622 C621 1.366 . S
C622 C623 1.414 . S
C622 C625 1.499 . S
C623 H597 0.950 . S
C623 C622 1.414 . S
C623 C624 1.374 . S
C624 H598 0.950 . S
C624 C620 1.385 . S
C624 C623 1.374 . S
C625 C622 1.499 . S
C625 C626 1.373 . S
C625 C627 1.389 . S
C626 H599 0.950 . S
C626 C612 1.377 . S
C626 C625 1.373 . S
C627 C611 1.377 . S
C627 C625 1.389 . S
C627 C628 1.524 . S
C628 C627 1.524 . S
C628 C629 1.397 . S
C628 C633 1.363 . S
C629 H600 0.950 . S
C629 C628 1.397 . S
C629 C630 1.334 . S
C630 H601 0.950 . S
C630 C629 1.334 . S
C630 C631 1.287 . S
C631 C630 1.287 . S
C631 C632 1.524 . S
C631 H634 0.999 . S
C632 H602 0.950 . S
C632 C631 1.524 . S
C632 C633 1.415 . S
C633 H603 0.950 . S
C633 C628 1.363 . S
C633 C632 1.415 . S
H634 C631 0.999 . S
H635 C616 0.913 . S
H636 C654 0.951 . S
H637 C656 0.951 . S
H638 C658 0.950 . S
H639 C659 0.950 . S
H640 C661 0.950 . S
H641 C664 0.950 . S
H642 C665 0.950 . S
H643 C667 0.950 . S
H644 C668 0.950 . S
H645 C669 0.951 . S
H646 C671 0.951 . S
H647 C673 0.950 . S
H648 C674 0.950 . S
H649 C676 0.950 . S
H650 C679 0.950 . S
H651 C680 0.950 . S
H652 C682 0.950 1_556 S
H653 C683 0.950 1_556 S
C654 H636 0.951 . S
C654 C655 1.366 . S
C654 C656 1.388 . S
C655 C654 1.366 . S
C655 C659 1.385 1_554 S
C656 H637 0.951 . S
C656 C654 1.388 . S
C656 C657 1.366 . S
C657 C656 1.366 . S
C657 C658 1.414 1_554 S
C657 C660 1.499 . S
C658 H638 0.950 . S
C658 C657 1.414 1_556 S
C658 C659 1.374 . S
C659 H639 0.950 . S
C659 C655 1.385 1_556 S
C659 C658 1.374 . S
C660 C657 1.499 . S
C660 C661 1.373 . S
C660 C662 1.389 . S
C661 H640 0.950 . S
C661 C660 1.373 . S
C661 C677 1.377 . S
C662 C660 1.389 . S
C662 C663 1.524 . S
C662 C676 1.377 . S
C663 C662 1.524 . S
C663 C664 1.397 . S
C663 C668 1.363 . S
C664 H641 0.950 . S
C664 C663 1.397 . S
C664 C665 1.334 . S
C665 H642 0.950 . S
C665 C664 1.334 . S
C665 C666 1.287 . S
C666 C665 1.287 . S
C666 C667 1.524 . S
C666 H685 0.913 . S
C667 H643 0.950 . S
C667 C666 1.524 . S
C667 C668 1.415 . S
C668 H644 0.950 . S
C668 C663 1.363 . S
C668 C667 1.415 . S
C669 H645 0.951 . S
C669 C670 1.366 . S
C669 C671 1.388 . S
C670 C669 1.366 . S
C670 C674 1.385 . S
C671 H646 0.951 . S
C671 C669 1.388 . S
C671 C672 1.366 . S
C672 C671 1.366 . S
C672 C673 1.414 . S
C672 C675 1.499 . S
C673 H647 0.950 . S
C673 C672 1.414 . S
C673 C674 1.374 . S
C674 H648 0.950 . S
C674 C670 1.385 . S
C674 C673 1.374 . S
C675 C672 1.499 . S
C675 C676 1.373 . S
C675 C677 1.389 . S
C676 H649 0.950 . S
C676 C662 1.377 . S
C676 C675 1.373 . S
C677 C661 1.377 . S
C677 C675 1.389 . S
C677 C678 1.524 . S
C678 C677 1.524 . S
C678 C679 1.397 . S
C678 C683 1.363 . S
C679 H650 0.950 . S
C679 C678 1.397 . S
C679 C680 1.334 . S
C680 H651 0.950 . S
C680 C679 1.334 . S
C680 C681 1.287 . S
C681 C680 1.287 . S
C681 C682 1.524 . S
C681 H684 0.999 . S
C682 H652 0.950 1_554 S
C682 C681 1.524 . S
C682 C683 1.415 . S
C683 H653 0.950 1_554 S
C683 C678 1.363 . S
C683 C682 1.415 . S
H684 C681 0.999 . S
H685 C666 0.913 . S
H686 C704 0.951 . S
H687 C706 0.951 . S
H688 C708 0.950 . S
H689 C709 0.950 . S
H690 C711 0.950 . S
H691 C714 0.950 . S
H692 C715 0.950 . S
H693 C717 0.950 . S
H694 C718 0.950 . S
H695 C719 0.951 . S
H696 C721 0.951 . S
H697 C723 0.950 . S
H698 C724 0.950 . S
H699 C726 0.950 . S
H700 C729 0.950 . S
H701 C730 0.950 . S
H702 C732 0.950 . S
H703 C733 0.950 . S
C704 H686 0.951 . S
C704 C705 1.366 . S
C704 C706 1.388 . S
C705 C704 1.366 . S
C705 C709 1.385 . S
C706 H687 0.951 . S
C706 C704 1.388 . S
C706 C707 1.366 . S
C707 C706 1.366 . S
C707 C708 1.414 . S
C707 C710 1.499 . S
C708 H688 0.950 . S
C708 C707 1.414 . S
C708 C709 1.374 . S
C709 H689 0.950 . S
C709 C705 1.385 . S
C709 C708 1.374 . S
C710 C707 1.499 . S
C710 C711 1.373 . S
C710 C712 1.389 . S
C711 H690 0.950 . S
C711 C710 1.373 . S
C711 C727 1.377 . S
C712 C710 1.389 . S
C712 C713 1.524 . S
C712 C726 1.377 . S
C713 C712 1.524 . S
C713 C714 1.397 . S
C713 C718 1.363 . S
C714 H691 0.950 . S
C714 C713 1.397 . S
C714 C715 1.334 . S
C715 H692 0.950 . S
C715 C714 1.334 . S
C715 C716 1.287 . S
C716 C715 1.287 . S
C716 C717 1.524 . S
C716 H735 0.913 . S
C717 H693 0.950 . S
C717 C716 1.524 . S
C717 C718 1.415 . S
C718 H694 0.950 . S
C718 C713 1.363 . S
C718 C717 1.415 . S
C719 H695 0.951 . S
C719 C720 1.366 . S
C719 C721 1.388 . S
C720 C719 1.366 . S
C720 C724 1.385 . S
C721 H696 0.951 . S
C721 C719 1.388 . S
C721 C722 1.366 . S
C722 C721 1.366 . S
C722 C723 1.414 . S
C722 C725 1.499 . S
C723 H697 0.950 . S
C723 C722 1.414 . S
C723 C724 1.374 . S
C724 H698 0.950 . S
C724 C720 1.385 . S
C724 C723 1.374 . S
C725 C722 1.499 . S
C725 C726 1.373 . S
C725 C727 1.389 . S
C726 H699 0.950 . S
C726 C712 1.377 . S
C726 C725 1.373 . S
C727 C711 1.377 . S
C727 C725 1.389 . S
C727 C728 1.524 . S
C728 C727 1.524 . S
C728 C729 1.397 . S
C728 C733 1.363 . S
C729 H700 0.950 . S
C729 C728 1.397 . S
C729 C730 1.334 . S
C730 H701 0.950 . S
C730 C729 1.334 . S
C730 C731 1.287 . S
C731 C730 1.287 . S
C731 C732 1.524 . S
C731 H734 0.999 . S
C732 H702 0.950 . S
C732 C731 1.524 . S
C732 C733 1.415 . S
C733 H703 0.950 . S
C733 C728 1.363 . S
C733 C732 1.415 . S
H734 C731 0.999 . S
H735 C716 0.913 . S
H736 C754 0.951 . S
H737 C756 0.951 . S
H738 C758 0.950 . S
H739 C759 0.950 . S
H740 C761 0.950 . S
H741 C764 0.950 . S
H742 C765 0.950 . S
H743 C767 0.950 . S
H744 C768 0.950 . S
H745 C769 0.951 . S
H746 C771 0.951 . S
H747 C773 0.950 . S
H748 C774 0.950 . S
H749 C776 0.950 . S
H750 C779 0.950 . S
H751 C780 0.950 . S
H752 C782 0.950 . S
H753 C783 0.950 . S
C754 H736 0.951 . S
C754 C755 1.366 . S
C754 C756 1.388 . S
C755 C754 1.366 . S
C755 C759 1.385 . S
C756 H737 0.951 . S
C756 C754 1.388 . S
C756 C757 1.366 . S
C757 C756 1.366 . S
C757 C758 1.414 . S
C757 C760 1.499 . S
C758 H738 0.950 . S
C758 C757 1.414 . S
C758 C759 1.374 . S
C759 H739 0.950 . S
C759 C755 1.385 . S
C759 C758 1.374 . S
C760 C757 1.499 . S
C760 C761 1.373 . S
C760 C762 1.389 . S
C761 H740 0.950 . S
C761 C760 1.373 . S
C761 C777 1.377 . S
C762 C760 1.389 . S
C762 C763 1.524 . S
C762 C776 1.377 . S
C763 C762 1.524 . S
C763 C764 1.397 . S
C763 C768 1.363 . S
C764 H741 0.950 . S
C764 C763 1.397 . S
C764 C765 1.334 . S
C765 H742 0.950 . S
C765 C764 1.334 . S
C765 C766 1.287 . S
C766 C765 1.287 . S
C766 C767 1.524 . S
C766 H785 0.913 . S
C767 H743 0.950 . S
C767 C766 1.524 . S
C767 C768 1.415 . S
C768 H744 0.950 . S
C768 C763 1.363 . S
C768 C767 1.415 . S
C769 H745 0.951 . S
C769 C770 1.366 . S
C769 C771 1.388 . S
C770 C769 1.366 . S
C770 C774 1.385 . S
C771 H746 0.951 . S
C771 C769 1.388 . S
C771 C772 1.366 . S
C772 C771 1.366 . S
C772 C773 1.414 . S
C772 C775 1.499 . S
C773 H747 0.950 . S
C773 C772 1.414 . S
C773 C774 1.374 . S
C774 H748 0.950 . S
C774 C770 1.385 . S
C774 C773 1.374 . S
C775 C772 1.499 . S
C775 C776 1.373 . S
C775 C777 1.389 . S
C776 H749 0.950 . S
C776 C762 1.377 . S
C776 C775 1.373 . S
C777 C761 1.377 . S
C777 C775 1.389 . S
C777 C778 1.524 . S
C778 C777 1.524 . S
C778 C779 1.397 . S
C778 C783 1.363 . S
C779 H750 0.950 . S
C779 C778 1.397 . S
C779 C780 1.334 . S
C780 H751 0.950 . S
C780 C779 1.334 . S
C780 C781 1.287 . S
C781 C780 1.287 . S
C781 C782 1.524 . S
C781 H784 0.999 . S
C782 H752 0.950 . S
C782 C781 1.524 . S
C782 C783 1.415 . S
C783 H753 0.950 . S
C783 C778 1.363 . S
C783 C782 1.415 . S
H784 C781 0.999 . S
H785 C766 0.913 . S
H786 C804 0.951 . S
H787 C806 0.951 . S
H788 C808 0.950 . S
H789 C809 0.950 . S
H790 C811 0.950 . S
H791 C814 0.950 . S
H792 C815 0.950 . S
H793 C817 0.950 . S
H794 C818 0.950 . S
H795 C819 0.951 . S
H796 C821 0.951 . S
H797 C823 0.950 . S
H798 C824 0.950 . S
H799 C826 0.950 . S
H800 C829 0.950 . S
H801 C830 0.950 . S
H802 C832 0.950 . S
H803 C833 0.950 . S
C804 H786 0.951 . S
C804 C805 1.366 . S
C804 C806 1.388 . S
C805 C804 1.366 . S
C805 C809 1.385 . S
C806 H787 0.951 . S
C806 C804 1.388 . S
C806 C807 1.366 . S
C807 C806 1.366 . S
C807 C808 1.414 . S
C807 C810 1.499 . S
C808 H788 0.950 . S
C808 C807 1.414 . S
C808 C809 1.374 . S
C809 H789 0.950 . S
C809 C805 1.385 . S
C809 C808 1.374 . S
C810 C807 1.499 . S
C810 C811 1.373 . S
C810 C812 1.389 . S
C811 H790 0.950 . S
C811 C810 1.373 . S
C811 C827 1.377 . S
C812 C810 1.389 . S
C812 C813 1.524 . S
C812 C826 1.377 . S
C813 C812 1.524 . S
C813 C814 1.397 . S
C813 C818 1.363 . S
C814 H791 0.950 . S
C814 C813 1.397 . S
C814 C815 1.334 . S
C815 H792 0.950 . S
C815 C814 1.334 . S
C815 C816 1.287 . S
C816 C815 1.287 . S
C816 C817 1.524 . S
C816 H835 0.913 . S
C817 H793 0.950 . S
C817 C816 1.524 . S
C817 C818 1.415 . S
C818 H794 0.950 . S
C818 C813 1.363 . S
C818 C817 1.415 . S
C819 H795 0.951 . S
C819 C820 1.366 . S
C819 C821 1.388 . S
C820 C819 1.366 . S
C820 C824 1.385 . S
C821 H796 0.951 . S
C821 C819 1.388 . S
C821 C822 1.366 . S
C822 C821 1.366 . S
C822 C823 1.414 . S
C822 C825 1.499 . S
C823 H797 0.950 . S
C823 C822 1.414 . S
C823 C824 1.374 . S
C824 H798 0.950 . S
C824 C820 1.385 . S
C824 C823 1.374 . S
C825 C822 1.499 . S
C825 C826 1.373 . S
C825 C827 1.389 . S
C826 H799 0.950 . S
C826 C812 1.377 . S
C826 C825 1.373 . S
C827 C811 1.377 . S
C827 C825 1.389 . S
C827 C828 1.524 . S
C828 C827 1.524 . S
C828 C829 1.397 . S
C828 C833 1.363 . S
C829 H800 0.950 . S
C829 C828 1.397 . S
C829 C830 1.334 . S
C830 H801 0.950 . S
C830 C829 1.334 . S
C830 C831 1.287 . S
C831 C830 1.287 . S
C831 C832 1.524 . S
C831 H834 0.999 . S
C832 H802 0.950 . S
C832 C831 1.524 . S
C832 C833 1.415 . S
C833 H803 0.950 . S
C833 C828 1.363 . S
C833 C832 1.415 . S
H834 C831 0.999 . S
H835 C816 0.913 . S
H836 C854 0.951 . S
H837 C856 0.951 . S
H838 C858 0.950 . S
H839 C859 0.950 . S
H840 C861 0.950 . S
H841 C864 0.950 . S
H842 C865 0.950 . S
H843 C867 0.950 . S
H844 C868 0.950 . S
H845 C869 0.951 . S
H846 C871 0.951 . S
H847 C873 0.950 . S
H848 C874 0.950 . S
H849 C876 0.950 . S
H850 C879 0.950 . S
H851 C880 0.950 . S
H852 C882 0.950 . S
H853 C883 0.950 . S
C854 H836 0.951 . S
C854 C855 1.366 . S
C854 C856 1.388 . S
C855 C854 1.366 . S
C855 C859 1.385 . S
C856 H837 0.951 . S
C856 C854 1.388 . S
C856 C857 1.366 . S
C857 C856 1.366 . S
C857 C858 1.414 . S
C857 C860 1.499 . S
C858 H838 0.950 . S
C858 C857 1.414 . S
C858 C859 1.374 . S
C859 H839 0.950 . S
C859 C855 1.385 . S
C859 C858 1.374 . S
C860 C857 1.499 . S
C860 C861 1.373 . S
C860 C862 1.389 . S
C861 H840 0.950 . S
C861 C860 1.373 . S
C861 C877 1.377 . S
C862 C860 1.389 . S
C862 C863 1.524 . S
C862 C876 1.377 . S
C863 C862 1.524 . S
C863 C864 1.397 . S
C863 C868 1.363 . S
C864 H841 0.950 . S
C864 C863 1.397 . S
C864 C865 1.334 . S
C865 H842 0.950 . S
C865 C864 1.334 . S
C865 C866 1.287 . S
C866 C865 1.287 . S
C866 C867 1.524 . S
C866 H885 0.913 . S
C867 H843 0.950 . S
C867 C866 1.524 . S
C867 C868 1.415 . S
C868 H844 0.950 . S
C868 C863 1.363 . S
C868 C867 1.415 . S
C869 H845 0.951 . S
C869 C870 1.366 . S
C869 C871 1.388 . S
C870 C869 1.366 . S
C870 C874 1.385 . S
C871 H846 0.951 . S
C871 C869 1.388 . S
C871 C872 1.366 . S
C872 C871 1.366 . S
C872 C873 1.414 . S
C872 C875 1.499 . S
C873 H847 0.950 . S
C873 C872 1.414 . S
C873 C874 1.374 . S
C874 H848 0.950 . S
C874 C870 1.385 . S
C874 C873 1.374 . S
C875 C872 1.499 . S
C875 C876 1.373 . S
C875 C877 1.389 . S
C876 H849 0.950 . S
C876 C862 1.377 . S
C876 C875 1.373 . S
C877 C861 1.377 . S
C877 C875 1.389 . S
C877 C878 1.524 . S
C878 C877 1.524 . S
C878 C879 1.397 . S
C878 C883 1.363 . S
C879 H850 0.950 . S
C879 C878 1.397 . S
C879 C880 1.334 . S
C880 H851 0.950 . S
C880 C879 1.334 . S
C880 C881 1.287 . S
C881 C880 1.287 . S
C881 C882 1.524 . S
C881 H884 0.999 . S
C882 H852 0.950 . S
C882 C881 1.524 . S
C882 C883 1.415 . S
C883 H853 0.950 . S
C883 C878 1.363 . S
C883 C882 1.415 . S
H884 C881 0.999 . S
H885 C866 0.913 . S
H886 C904 0.951 . S
H887 C906 0.951 . S
H888 C908 0.950 . S
H889 C909 0.950 . S
H890 C911 0.950 . S
H891 C914 0.950 . S
H892 C915 0.950 . S
H893 C917 0.950 . S
H894 C918 0.950 . S
H895 C919 0.951 . S
H896 C921 0.951 . S
H897 C923 0.950 . S
H898 C924 0.950 . S
H899 C926 0.950 . S
H900 C929 0.950 . S
H901 C930 0.950 . S
H902 C932 0.950 . S
H903 C933 0.950 . S
C904 H886 0.951 . S
C904 C905 1.366 . S
C904 C906 1.388 . S
C905 C904 1.366 . S
C905 C909 1.385 . S
C906 H887 0.951 . S
C906 C904 1.388 . S
C906 C907 1.366 . S
C907 C906 1.366 . S
C907 C908 1.414 . S
C907 C910 1.499 . S
C908 H888 0.950 . S
C908 C907 1.414 . S
C908 C909 1.374 . S
C909 H889 0.950 . S
C909 C905 1.385 . S
C909 C908 1.374 . S
C910 C907 1.499 . S
C910 C911 1.373 . S
C910 C912 1.389 . S
C911 H890 0.950 . S
C911 C910 1.373 . S
C911 C927 1.377 . S
C912 C910 1.389 . S
C912 C913 1.524 . S
C912 C926 1.377 . S
C913 C912 1.524 . S
C913 C914 1.397 . S
C913 C918 1.363 . S
C914 H891 0.950 . S
C914 C913 1.397 . S
C914 C915 1.334 . S
C915 H892 0.950 . S
C915 C914 1.334 . S
C915 C916 1.287 . S
C916 C915 1.287 . S
C916 C917 1.524 . S
C916 H935 0.913 . S
C917 H893 0.950 . S
C917 C916 1.524 . S
C917 C918 1.415 . S
C918 H894 0.950 . S
C918 C913 1.363 . S
C918 C917 1.415 . S
C919 H895 0.951 . S
C919 C920 1.366 . S
C919 C921 1.388 . S
C920 C919 1.366 . S
C920 C924 1.385 . S
C921 H896 0.951 . S
C921 C919 1.388 . S
C921 C922 1.366 . S
C922 C921 1.366 . S
C922 C923 1.414 . S
C922 C925 1.499 . S
C923 H897 0.950 . S
C923 C922 1.414 . S
C923 C924 1.374 . S
C924 H898 0.950 . S
C924 C920 1.385 . S
C924 C923 1.374 . S
C925 C922 1.499 . S
C925 C926 1.373 . S
C925 C927 1.389 . S
C926 H899 0.950 . S
C926 C912 1.377 . S
C926 C925 1.373 . S
C927 C911 1.377 . S
C927 C925 1.389 . S
C927 C928 1.524 . S
C928 C927 1.524 . S
C928 C929 1.397 . S
C928 C933 1.363 . S
C929 H900 0.950 . S
C929 C928 1.397 . S
C929 C930 1.334 . S
C930 H901 0.950 . S
C930 C929 1.334 . S
C930 C931 1.287 . S
C931 C930 1.287 . S
C931 C932 1.524 . S
C931 H934 0.999 . S
C932 H902 0.950 . S
C932 C931 1.524 . S
C932 C933 1.415 . S
C933 H903 0.950 . S
C933 C928 1.363 . S
C933 C932 1.415 . S
H934 C931 0.999 . S
H935 C916 0.913 . S
H936 C954 0.951 . S
H937 C956 0.951 . S
H938 C958 0.950 . S
H939 C959 0.950 . S
H940 C961 0.950 . S
H941 C964 0.950 . S
H942 C965 0.950 . S
H943 C967 0.950 . S
H944 C968 0.950 . S
H945 C969 0.951 . S
H946 C971 0.951 . S
H947 C973 0.950 . S
H948 C974 0.950 . S
H949 C976 0.950 . S
H950 C979 0.950 . S
H951 C980 0.950 . S
H952 C982 0.950 . S
H953 C983 0.950 . S
C954 H936 0.951 . S
C954 C955 1.366 . S
C954 C956 1.388 . S
C955 C954 1.366 . S
C955 C959 1.385 . S
C956 H937 0.951 . S
C956 C954 1.388 . S
C956 C957 1.366 . S
C957 C956 1.366 . S
C957 C958 1.414 . S
C957 C960 1.499 . S
C958 H938 0.950 . S
C958 C957 1.414 . S
C958 C959 1.374 . S
C959 H939 0.950 . S
C959 C955 1.385 . S
C959 C958 1.374 . S
C960 C957 1.499 . S
C960 C961 1.373 . S
C960 C962 1.389 . S
C961 H940 0.950 . S
C961 C960 1.373 . S
C961 C977 1.377 . S
C962 C960 1.389 . S
C962 C963 1.524 . S
C962 C976 1.377 . S
C963 C962 1.524 . S
C963 C964 1.397 . S
C963 C968 1.363 . S
C964 H941 0.950 . S
C964 C963 1.397 . S
C964 C965 1.334 . S
C965 H942 0.950 . S
C965 C964 1.334 . S
C965 C966 1.287 . S
C966 C965 1.287 . S
C966 C967 1.524 . S
C966 H985 0.913 . S
C967 H943 0.950 . S
C967 C966 1.524 . S
C967 C968 1.415 . S
C968 H944 0.950 . S
C968 C963 1.363 . S
C968 C967 1.415 . S
C969 H945 0.951 . S
C969 C970 1.366 . S
C969 C971 1.388 . S
C970 C969 1.366 . S
C970 C974 1.385 . S
C971 H946 0.951 . S
C971 C969 1.388 . S
C971 C972 1.366 1_554 S
C972 C971 1.366 1_556 S
C972 C973 1.414 . S
C972 C975 1.499 . S
C973 H947 0.950 . S
C973 C972 1.414 . S
C973 C974 1.374 1_556 S
C974 H948 0.950 . S
C974 C970 1.385 . S
C974 C973 1.374 1_554 S
C975 C972 1.499 . S
C975 C976 1.373 . S
C975 C977 1.389 . S
C976 H949 0.950 . S
C976 C962 1.377 . S
C976 C975 1.373 . S
C977 C961 1.377 . S
C977 C975 1.389 . S
C977 C978 1.524 . S
C978 C977 1.524 . S
C978 C979 1.397 . S
C978 C983 1.363 . S
C979 H950 0.950 . S
C979 C978 1.397 . S
C979 C980 1.334 . S
C980 H951 0.950 . S
C980 C979 1.334 . S
C980 C981 1.287 . S
C981 C980 1.287 . S
C981 C982 1.524 . S
C981 H984 0.999 . S
C982 H952 0.950 . S
C982 C981 1.524 . S
C982 C983 1.415 . S
C983 H953 0.950 . S
C983 C978 1.363 . S
C983 C982 1.415 . S
H984 C981 0.999 . S
H985 C966 0.913 . S
H986 C1004 0.951 . S
H987 C1006 0.951 . S
H988 C1008 0.950 . S
H989 C1009 0.950 . S
H990 C1011 0.950 . S
H991 C1014 0.950 . S
H992 C1015 0.950 . S
H993 C1017 0.950 . S
H994 C1018 0.950 . S
H995 C1019 0.951 . S
H996 C1021 0.951 . S
H997 C1023 0.950 . S
H998 C1024 0.950 . S
H999 C1026 0.950 . S
H1000 C1029 0.950 . S
H1001 C1030 0.950 . S
H1002 C1032 0.950 . S
H1003 C1033 0.950 . S
C1004 H986 0.951 . S
C1004 C1005 1.366 . S
C1004 C1006 1.388 . S
C1005 C1004 1.366 . S
C1005 C1009 1.385 . S
C1006 H987 0.951 . S
C1006 C1004 1.388 . S
C1006 C1007 1.366 . S
C1007 C1006 1.366 . S
C1007 C1008 1.414 . S
C1007 C1010 1.499 . S
C1008 H988 0.950 . S
C1008 C1007 1.414 . S
C1008 C1009 1.374 . S
C1009 H989 0.950 . S
C1009 C1005 1.385 . S
C1009 C1008 1.374 . S
C1010 C1007 1.499 . S
C1010 C1011 1.373 . S
C1010 C1012 1.389 . S
C1011 H990 0.950 . S
C1011 C1010 1.373 . S
C1011 C1027 1.377 . S
C1012 C1010 1.389 . S
C1012 C1013 1.524 . S
C1012 C1026 1.377 . S
C1013 C1012 1.524 . S
C1013 C1014 1.397 . S
C1013 C1018 1.363 . S
C1014 H991 0.950 . S
C1014 C1013 1.397 . S
C1014 C1015 1.334 . S
C1015 H992 0.950 . S
C1015 C1014 1.334 . S
C1015 C1016 1.287 . S
C1016 C1015 1.287 . S
C1016 C1017 1.524 . S
C1016 H1035 0.913 . S
C1017 H993 0.950 . S
C1017 C1016 1.524 . S
C1017 C1018 1.415 . S
C1018 H994 0.950 . S
C1018 C1013 1.363 . S
C1018 C1017 1.415 . S
C1019 H995 0.951 . S
C1019 C1020 1.366 . S
C1019 C1021 1.388 . S
C1020 C1019 1.366 . S
C1020 C1024 1.385 . S
C1021 H996 0.951 . S
C1021 C1019 1.388 . S
C1021 C1022 1.366 . S
C1022 C1021 1.366 . S
C1022 C1023 1.414 . S
C1022 C1025 1.499 . S
C1023 H997 0.950 . S
C1023 C1022 1.414 . S
C1023 C1024 1.374 . S
C1024 H998 0.950 . S
C1024 C1020 1.385 . S
C1024 C1023 1.374 . S
C1025 C1022 1.499 . S
C1025 C1026 1.373 . S
C1025 C1027 1.389 . S
C1026 H999 0.950 . S
C1026 C1012 1.377 . S
C1026 C1025 1.373 . S
C1027 C1011 1.377 . S
C1027 C1025 1.389 . S
C1027 C1028 1.524 . S
C1028 C1027 1.524 . S
C1028 C1029 1.397 . S
C1028 C1033 1.363 . S
C1029 H1000 0.950 . S
C1029 C1028 1.397 . S
C1029 C1030 1.334 . S
C1030 H1001 0.950 . S
C1030 C1029 1.334 . S
C1030 C1031 1.287 . S
C1031 C1030 1.287 . S
C1031 C1032 1.524 . S
C1031 H1034 0.999 . S
C1032 H1002 0.950 . S
C1032 C1031 1.524 . S
C1032 C1033 1.415 . S
C1033 H1003 0.950 . S
C1033 C1028 1.363 . S
C1033 C1032 1.415 . S
H1034 C1031 0.999 . S
H1035 C1016 0.913 . S
H1036 C1054 0.951 . S
H1037 C1056 0.951 . S
H1038 C1058 0.950 . S
H1039 C1059 0.950 . S
H1040 C1061 0.950 . S
H1041 C1064 0.950 . S
H1042 C1065 0.950 . S
H1043 C1067 0.950 . S
H1044 C1068 0.950 . S
H1045 C1069 0.951 . S
H1046 C1071 0.951 . S
H1047 C1073 0.950 . S
H1048 C1074 0.950 . S
H1049 C1076 0.950 . S
H1050 C1079 0.950 . S
H1051 C1080 0.950 . S
H1052 C1082 0.950 . S
H1053 C1083 0.950 . S
C1054 H1036 0.951 . S
C1054 C1055 1.366 . S
C1054 C1056 1.388 . S
C1055 C1054 1.366 . S
C1055 C1059 1.385 . S
C1056 H1037 0.951 . S
C1056 C1054 1.388 . S
C1056 C1057 1.366 . S
C1057 C1056 1.366 . S
C1057 C1058 1.414 . S
C1057 C1060 1.499 . S
C1058 H1038 0.950 . S
C1058 C1057 1.414 . S
C1058 C1059 1.374 . S
C1059 H1039 0.950 . S
C1059 C1055 1.385 . S
C1059 C1058 1.374 . S
C1060 C1057 1.499 . S
C1060 C1061 1.373 . S
C1060 C1062 1.389 . S
C1061 H1040 0.950 . S
C1061 C1060 1.373 . S
C1061 C1077 1.377 . S
C1062 C1060 1.389 . S
C1062 C1063 1.524 . S
C1062 C1076 1.377 . S
C1063 C1062 1.524 . S
C1063 C1064 1.397 . S
C1063 C1068 1.363 . S
C1064 H1041 0.950 . S
C1064 C1063 1.397 . S
C1064 C1065 1.334 . S
C1065 H1042 0.950 . S
C1065 C1064 1.334 . S
C1065 C1066 1.287 . S
C1066 C1065 1.287 . S
C1066 C1067 1.524 . S
C1066 H1085 0.913 . S
C1067 H1043 0.950 . S
C1067 C1066 1.524 . S
C1067 C1068 1.415 . S
C1068 H1044 0.950 . S
C1068 C1063 1.363 . S
C1068 C1067 1.415 . S
C1069 H1045 0.951 . S
C1069 C1070 1.366 . S
C1069 C1071 1.388 . S
C1070 C1069 1.366 . S
C1070 C1074 1.385 . S
C1071 H1046 0.951 . S
C1071 C1069 1.388 . S
C1071 C1072 1.366 . S
C1072 C1071 1.366 . S
C1072 C1073 1.414 . S
C1072 C1075 1.499 . S
C1073 H1047 0.950 . S
C1073 C1072 1.414 . S
C1073 C1074 1.374 . S
C1074 H1048 0.950 . S
C1074 C1070 1.385 . S
C1074 C1073 1.374 . S
C1075 C1072 1.499 . S
C1075 C1076 1.373 . S
C1075 C1077 1.389 . S
C1076 H1049 0.950 . S
C1076 C1062 1.377 . S
C1076 C1075 1.373 . S
C1077 C1061 1.377 . S
C1077 C1075 1.389 . S
C1077 C1078 1.524 . S
C1078 C1077 1.524 . S
C1078 C1079 1.397 . S
C1078 C1083 1.363 . S
C1079 H1050 0.950 . S
C1079 C1078 1.397 . S
C1079 C1080 1.334 . S
C1080 H1051 0.950 . S
C1080 C1079 1.334 . S
C1080 C1081 1.287 . S
C1081 C1080 1.287 . S
C1081 C1082 1.524 . S
C1081 H1084 0.999 . S
C1082 H1052 0.950 . S
C1082 C1081 1.524 . S
C1082 C1083 1.415 . S
C1083 H1053 0.950 . S
C1083 C1078 1.363 . S
C1083 C1082 1.415 . S
H1084 C1081 0.999 . S
H1085 C1066 0.913 . S
H1086 C1104 0.951 . S
H1087 C1106 0.951 . S
H1088 C1108 0.950 . S
H1089 C1109 0.950 . S
H1090 C1111 0.950 . S
H1091 C1114 0.950 . S
H1092 C1115 0.950 . S
H1093 C1117 0.950 . S
H1094 C1118 0.950 . S
H1095 C1119 0.951 . S
H1096 C1121 0.951 . S
H1097 C1123 0.950 . S
H1098 C1124 0.950 . S
H1099 C1126 0.950 . S
H1100 C1129 0.950 . S
H1101 C1130 0.950 . S
H1102 C1132 0.950 . S
H1103 C1133 0.950 . S
C1104 H1086 0.951 . S
C1104 C1105 1.366 . S
C1104 C1106 1.388 . S
C1105 C1104 1.366 . S
C1105 C1109 1.385 . S
C1106 H1087 0.951 . S
C1106 C1104 1.388 . S
C1106 C1107 1.366 . S
C1107 C1106 1.366 . S
C1107 C1108 1.414 . S
C1107 C1110 1.499 . S
C1108 H1088 0.950 . S
C1108 C1107 1.414 . S
C1108 C1109 1.374 . S
C1109 H1089 0.950 . S
C1109 C1105 1.385 . S
C1109 C1108 1.374 . S
C1110 C1107 1.499 . S
C1110 C1111 1.373 . S
C1110 C1112 1.389 . S
C1111 H1090 0.950 . S
C1111 C1110 1.373 . S
C1111 C1127 1.377 . S
C1112 C1110 1.389 . S
C1112 C1113 1.524 . S
C1112 C1126 1.377 . S
C1113 C1112 1.524 . S
C1113 C1114 1.397 . S
C1113 C1118 1.363 . S
C1114 H1091 0.950 . S
C1114 C1113 1.397 . S
C1114 C1115 1.334 . S
C1115 H1092 0.950 . S
C1115 C1114 1.334 . S
C1115 C1116 1.287 . S
C1116 C1115 1.287 . S
C1116 C1117 1.524 . S
C1116 H1135 0.913 . S
C1117 H1093 0.950 . S
C1117 C1116 1.524 . S
C1117 C1118 1.415 . S
C1118 H1094 0.950 . S
C1118 C1113 1.363 . S
C1118 C1117 1.415 . S
C1119 H1095 0.951 . S
C1119 C1120 1.366 . S
C1119 C1121 1.388 . S
C1120 C1119 1.366 . S
C1120 C1124 1.385 . S
C1121 H1096 0.951 . S
C1121 C1119 1.388 . S
C1121 C1122 1.366 . S
C1122 C1121 1.366 . S
C1122 C1123 1.414 . S
C1122 C1125 1.499 . S
C1123 H1097 0.950 . S
C1123 C1122 1.414 . S
C1123 C1124 1.374 . S
C1124 H1098 0.950 . S
C1124 C1120 1.385 . S
C1124 C1123 1.374 . S
C1125 C1122 1.499 . S
C1125 C1126 1.373 . S
C1125 C1127 1.389 . S
C1126 H1099 0.950 . S
C1126 C1112 1.377 . S
C1126 C1125 1.373 . S
C1127 C1111 1.377 . S
C1127 C1125 1.389 . S
C1127 C1128 1.524 . S
C1128 C1127 1.524 . S
C1128 C1129 1.397 . S
C1128 C1133 1.363 . S
C1129 H1100 0.950 . S
C1129 C1128 1.397 . S
C1129 C1130 1.334 . S
C1130 H1101 0.950 . S
C1130 C1129 1.334 . S
C1130 C1131 1.287 . S
C1131 C1130 1.287 . S
C1131 C1132 1.524 . S
C1131 H1134 0.999 . S
C1132 H1102 0.950 . S
C1132 C1131 1.524 . S
C1132 C1133 1.415 . S
C1133 H1103 0.950 . S
C1133 C1128 1.363 . S
C1133 C1132 1.415 . S
H1134 C1131 0.999 . S
H1135 C1116 0.913 . S
H1136 C1154 0.951 . S
H1137 C1156 0.951 . S
H1138 C1158 0.950 . S
H1139 C1159 0.950 . S
H1140 C1161 0.950 . S
H1141 C1164 0.950 . S
H1142 C1165 0.950 . S
H1143 C1167 0.950 . S
H1144 C1168 0.950 . S
H1145 C1169 0.951 . S
H1146 C1171 0.951 . S
H1147 C1173 0.950 . S
H1148 C1174 0.950 . S
H1149 C1176 0.950 . S
H1150 C1179 0.950 . S
H1151 C1180 0.950 . S
H1152 C1182 0.950 . S
H1153 C1183 0.950 . S
C1154 H1136 0.951 . S
C1154 C1155 1.366 . S
C1154 C1156 1.388 . S
C1155 C1154 1.366 . S
C1155 C1159 1.385 . S
C1156 H1137 0.951 . S
C1156 C1154 1.388 . S
C1156 C1157 1.366 . S
C1157 C1156 1.366 . S
C1157 C1158 1.414 . S
C1157 C1160 1.499 . S
C1158 H1138 0.950 . S
C1158 C1157 1.414 . S
C1158 C1159 1.374 . S
C1159 H1139 0.950 . S
C1159 C1155 1.385 . S
C1159 C1158 1.374 . S
C1160 C1157 1.499 . S
C1160 C1161 1.373 . S
C1160 C1162 1.389 . S
C1161 H1140 0.950 . S
C1161 C1160 1.373 . S
C1161 C1177 1.377 . S
C1162 C1160 1.389 . S
C1162 C1163 1.524 . S
C1162 C1176 1.377 . S
C1163 C1162 1.524 . S
C1163 C1164 1.397 . S
C1163 C1168 1.363 . S
C1164 H1141 0.950 . S
C1164 C1163 1.397 . S
C1164 C1165 1.334 . S
C1165 H1142 0.950 . S
C1165 C1164 1.334 . S
C1165 C1166 1.287 . S
C1166 C1165 1.287 . S
C1166 C1167 1.524 . S
C1166 H1185 0.913 . S
C1167 H1143 0.950 . S
C1167 C1166 1.524 . S
C1167 C1168 1.415 . S
C1168 H1144 0.950 . S
C1168 C1163 1.363 . S
C1168 C1167 1.415 . S
C1169 H1145 0.951 . S
C1169 C1170 1.366 . S
C1169 C1171 1.388 . S
C1170 C1169 1.366 . S
C1170 C1174 1.385 . S
C1171 H1146 0.951 . S
C1171 C1169 1.388 . S
C1171 C1172 1.366 . S
C1172 C1171 1.366 . S
C1172 C1173 1.414 . S
C1172 C1175 1.499 . S
C1173 H1147 0.950 . S
C1173 C1172 1.414 . S
C1173 C1174 1.374 . S
C1174 H1148 0.950 . S
C1174 C1170 1.385 . S
C1174 C1173 1.374 . S
C1175 C1172 1.499 . S
C1175 C1176 1.373 . S
C1175 C1177 1.389 . S
C1176 H1149 0.950 . S
C1176 C1162 1.377 . S
C1176 C1175 1.373 . S
C1177 C1161 1.377 . S
C1177 C1175 1.389 . S
C1177 C1178 1.524 . S
C1178 C1177 1.524 . S
C1178 C1179 1.397 . S
C1178 C1183 1.363 . S
C1179 H1150 0.950 . S
C1179 C1178 1.397 . S
C1179 C1180 1.334 . S
C1180 H1151 0.950 . S
C1180 C1179 1.334 . S
C1180 C1181 1.287 . S
C1181 C1180 1.287 . S
C1181 C1182 1.524 . S
C1181 H1184 0.999 . S
C1182 H1152 0.950 . S
C1182 C1181 1.524 . S
C1182 C1183 1.415 . S
C1183 H1153 0.950 . S
C1183 C1178 1.363 . S
C1183 C1182 1.415 . S
H1184 C1181 0.999 . S
H1185 C1166 0.913 . S
H1186 C1204 0.951 . S
H1187 C1206 0.951 . S
H1188 C1208 0.950 . S
H1189 C1209 0.950 . S
H1190 C1211 0.950 . S
H1191 C1214 0.950 . S
H1192 C1215 0.950 . S
H1193 C1217 0.950 . S
H1194 C1218 0.950 . S
H1195 C1219 0.951 . S
H1196 C1221 0.951 . S
H1197 C1223 0.950 . S
H1198 C1224 0.950 . S
H1199 C1226 0.950 . S
H1200 C1229 0.950 . S
H1201 C1230 0.950 . S
H1202 C1232 0.950 . S
H1203 C1233 0.950 . S
C1204 H1186 0.951 . S
C1204 C1205 1.366 . S
C1204 C1206 1.388 . S
C1205 C1204 1.366 . S
C1205 C1209 1.385 . S
C1206 H1187 0.951 . S
C1206 C1204 1.388 . S
C1206 C1207 1.366 . S
C1207 C1206 1.366 . S
C1207 C1208 1.414 . S
C1207 C1210 1.499 . S
C1208 H1188 0.950 . S
C1208 C1207 1.414 . S
C1208 C1209 1.374 . S
C1209 H1189 0.950 . S
C1209 C1205 1.385 . S
C1209 C1208 1.374 . S
C1210 C1207 1.499 . S
C1210 C1211 1.373 . S
C1210 C1212 1.389 . S
C1211 H1190 0.950 . S
C1211 C1210 1.373 . S
C1211 C1227 1.377 . S
C1212 C1210 1.389 . S
C1212 C1213 1.524 . S
C1212 C1226 1.377 . S
C1213 C1212 1.524 . S
C1213 C1214 1.397 . S
C1213 C1218 1.363 . S
C1214 H1191 0.950 . S
C1214 C1213 1.397 . S
C1214 C1215 1.334 . S
C1215 H1192 0.950 . S
C1215 C1214 1.334 . S
C1215 C1216 1.287 . S
C1216 C1215 1.287 . S
C1216 C1217 1.524 . S
C1216 H1235 0.913 . S
C1217 H1193 0.950 . S
C1217 C1216 1.524 . S
C1217 C1218 1.415 . S
C1218 H1194 0.950 . S
C1218 C1213 1.363 . S
C1218 C1217 1.415 . S
C1219 H1195 0.951 . S
C1219 C1220 1.366 . S
C1219 C1221 1.388 . S
C1220 C1219 1.366 . S
C1220 C1224 1.385 . S
C1221 H1196 0.951 . S
C1221 C1219 1.388 . S
C1221 C1222 1.366 . S
C1222 C1221 1.366 . S
C1222 C1223 1.414 . S
C1222 C1225 1.499 . S
C1223 H1197 0.950 . S
C1223 C1222 1.414 . S
C1223 C1224 1.374 . S
C1224 H1198 0.950 . S
C1224 C1220 1.385 . S
C1224 C1223 1.374 . S
C1225 C1222 1.499 . S
C1225 C1226 1.373 . S
C1225 C1227 1.389 . S
C1226 H1199 0.950 . S
C1226 C1212 1.377 . S
C1226 C1225 1.373 . S
C1227 C1211 1.377 . S
C1227 C1225 1.389 . S
C1227 C1228 1.524 . S
C1228 C1227 1.524 . S
C1228 C1229 1.397 . S
C1228 C1233 1.363 . S
C1229 H1200 0.950 . S
C1229 C1228 1.397 . S
C1229 C1230 1.334 . S
C1230 H1201 0.950 . S
C1230 C1229 1.334 . S
C1230 C1231 1.287 . S
C1231 C1230 1.287 . S
C1231 C1232 1.524 . S
C1231 H1234 0.999 . S
C1232 H1202 0.950 . S
C1232 C1231 1.524 . S
C1232 C1233 1.415 . S
C1233 H1203 0.950 . S
C1233 C1228 1.363 . S
C1233 C1232 1.415 . S
H1234 C1231 0.999 . S
H1235 C1216 0.913 . S
H1236 C1254 0.951 . S
H1237 C1256 0.951 . S
H1238 C1258 0.950 . S
H1239 C1259 0.950 . S
H1240 C1261 0.950 . S
H1241 C1264 0.950 . S
H1242 C1265 0.950 . S
H1243 C1267 0.950 . S
H1244 C1268 0.950 . S
H1245 C1269 0.951 . S
H1246 C1271 0.951 . S
H1247 C1273 0.950 . S
H1248 C1274 0.950 . S
H1249 C1276 0.950 . S
H1250 C1279 0.950 . S
H1251 C1280 0.950 . S
H1252 C1282 0.950 . S
H1253 C1283 0.950 . S
C1254 H1236 0.951 . S
C1254 C1255 1.366 . S
C1254 C1256 1.388 . S
C1255 C1254 1.366 . S
C1255 C1259 1.385 . S
C1256 H1237 0.951 . S
C1256 C1254 1.388 . S
C1256 C1257 1.366 . S
C1257 C1256 1.366 . S
C1257 C1258 1.414 . S
C1257 C1260 1.499 . S
C1258 H1238 0.950 . S
C1258 C1257 1.414 . S
C1258 C1259 1.374 . S
C1259 H1239 0.950 . S
C1259 C1255 1.385 . S
C1259 C1258 1.374 . S
C1260 C1257 1.499 . S
C1260 C1261 1.373 . S
C1260 C1262 1.389 . S
C1261 H1240 0.950 . S
C1261 C1260 1.373 . S
C1261 C1277 1.377 . S
C1262 C1260 1.389 . S
C1262 C1263 1.524 . S
C1262 C1276 1.377 . S
C1263 C1262 1.524 . S
C1263 C1264 1.397 . S
C1263 C1268 1.363 . S
C1264 H1241 0.950 . S
C1264 C1263 1.397 . S
C1264 C1265 1.334 . S
C1265 H1242 0.950 . S
C1265 C1264 1.334 . S
C1265 C1266 1.287 . S
C1266 C1265 1.287 . S
C1266 C1267 1.524 . S
C1266 H1285 0.913 . S
C1267 H1243 0.950 . S
C1267 C1266 1.524 . S
C1267 C1268 1.415 . S
C1268 H1244 0.950 . S
C1268 C1263 1.363 . S
C1268 C1267 1.415 . S
C1269 H1245 0.951 . S
C1269 C1270 1.366 . S
C1269 C1271 1.388 . S
C1270 C1269 1.366 . S
C1270 C1274 1.385 . S
C1271 H1246 0.951 . S
C1271 C1269 1.388 . S
C1271 C1272 1.366 . S
C1272 C1271 1.366 . S
C1272 C1273 1.414 . S
C1272 C1275 1.499 . S
C1273 H1247 0.950 . S
C1273 C1272 1.414 . S
C1273 C1274 1.374 . S
C1274 H1248 0.950 . S
C1274 C1270 1.385 . S
C1274 C1273 1.374 . S
C1275 C1272 1.499 . S
C1275 C1276 1.373 . S
C1275 C1277 1.389 . S
C1276 H1249 0.950 . S
C1276 C1262 1.377 . S
C1276 C1275 1.373 . S
C1277 C1261 1.377 . S
C1277 C1275 1.389 . S
C1277 C1278 1.524 . S
C1278 C1277 1.524 . S
C1278 C1279 1.397 . S
C1278 C1283 1.363 . S
C1279 H1250 0.950 . S
C1279 C1278 1.397 . S
C1279 C1280 1.334 . S
C1280 H1251 0.950 . S
C1280 C1279 1.334 . S
C1280 C1281 1.287 . S
C1281 C1280 1.287 . S
C1281 C1282 1.524 . S
C1281 H1284 0.999 . S
C1282 H1252 0.950 . S
C1282 C1281 1.524 . S
C1282 C1283 1.415 . S
C1283 H1253 0.950 . S
C1283 C1278 1.363 . S
C1283 C1282 1.415 . S
H1284 C1281 0.999 . S
H1285 C1266 0.913 . S
H1286 C1304 0.951 . S
H1287 C1306 0.951 . S
H1288 C1308 0.950 . S
H1289 C1309 0.950 . S
H1290 C1311 0.950 . S
H1291 C1314 0.950 . S
H1292 C1315 0.950 . S
H1293 C1317 0.950 . S
H1294 C1318 0.950 . S
H1295 C1319 0.951 . S
H1296 C1321 0.951 . S
H1297 C1323 0.950 1_554 S
H1298 C1324 0.950 . S
H1299 C1326 0.950 . S
H1300 C1329 0.950 . S
H1301 C1330 0.950 . S
H1302 C1332 0.950 . S
H1303 C1333 0.950 . S
C1304 H1286 0.951 . S
C1304 C1305 1.366 . S
C1304 C1306 1.388 . S
C1305 C1304 1.366 . S
C1305 C1309 1.385 . S
C1306 H1287 0.951 . S
C1306 C1304 1.388 . S
C1306 C1307 1.366 . S
C1307 C1306 1.366 . S
C1307 C1308 1.414 . S
C1307 C1310 1.499 . S
C1308 H1288 0.950 . S
C1308 C1307 1.414 . S
C1308 C1309 1.374 . S
C1309 H1289 0.950 . S
C1309 C1305 1.385 . S
C1309 C1308 1.374 . S
C1310 C1307 1.499 . S
C1310 C1311 1.373 . S
C1310 C1312 1.389 . S
C1311 H1290 0.950 . S
C1311 C1310 1.373 . S
C1311 C1327 1.377 . S
C1312 C1310 1.389 . S
C1312 C1313 1.524 . S
C1312 C1326 1.377 . S
C1313 C1312 1.524 . S
C1313 C1314 1.397 . S
C1313 C1318 1.363 . S
C1314 H1291 0.950 . S
C1314 C1313 1.397 . S
C1314 C1315 1.334 . S
C1315 H1292 0.950 . S
C1315 C1314 1.334 . S
C1315 C1316 1.287 . S
C1316 C1315 1.287 . S
C1316 C1317 1.524 . S
C1316 H1335 0.913 . S
C1317 H1293 0.950 . S
C1317 C1316 1.524 . S
C1317 C1318 1.415 . S
C1318 H1294 0.950 . S
C1318 C1313 1.363 . S
C1318 C1317 1.415 . S
C1319 H1295 0.951 . S
C1319 C1320 1.366 . S
C1319 C1321 1.388 . S
C1320 C1319 1.366 . S
C1320 C1324 1.385 . S
C1321 H1296 0.951 . S
C1321 C1319 1.388 . S
C1321 C1322 1.366 . S
C1322 C1321 1.366 . S
C1322 C1323 1.414 . S
C1322 C1325 1.499 1_556 S
C1323 H1297 0.950 1_556 S
C1323 C1322 1.414 . S
C1323 C1324 1.374 . S
C1324 H1298 0.950 . S
C1324 C1320 1.385 . S
C1324 C1323 1.374 . S
C1325 C1322 1.499 1_554 S
C1325 C1326 1.373 . S
C1325 C1327 1.389 . S
C1326 H1299 0.950 . S
C1326 C1312 1.377 . S
C1326 C1325 1.373 . S
C1327 C1311 1.377 . S
C1327 C1325 1.389 . S
C1327 C1328 1.524 . S
C1328 C1327 1.524 . S
C1328 C1329 1.397 . S
C1328 C1333 1.363 . S
C1329 H1300 0.950 . S
C1329 C1328 1.397 . S
C1329 C1330 1.334 . S
C1330 H1301 0.950 . S
C1330 C1329 1.334 . S
C1330 C1331 1.287 . S
C1331 C1330 1.287 . S
C1331 C1332 1.524 . S
C1331 H1334 0.999 . S
C1332 H1302 0.950 . S
C1332 C1331 1.524 . S
C1332 C1333 1.415 . S
C1333 H1303 0.950 . S
C1333 C1328 1.363 . S
C1333 C1332 1.415 . S
H1334 C1331 0.999 . S
H1335 C1316 0.913 . S
H1336 C1354 0.951 . S
H1337 C1356 0.951 . S
H1338 C1358 0.950 . S
H1339 C1359 0.950 . S
H1340 C1361 0.950 . S
H1341 C1364 0.950 . S
H1342 C1365 0.950 . S
H1343 C1367 0.950 . S
H1344 C1368 0.950 . S
H1345 C1369 0.951 . S
H1346 C1371 0.951 . S
H1347 C1373 0.950 . S
H1348 C1374 0.950 . S
H1349 C1376 0.950 . S
H1350 C1379 0.950 . S
H1351 C1380 0.950 . S
H1352 C1382 0.950 . S
H1353 C1383 0.950 . S
C1354 H1336 0.951 . S
C1354 C1355 1.366 . S
C1354 C1356 1.388 . S
C1355 C1354 1.366 . S
C1355 C1359 1.385 . S
C1356 H1337 0.951 . S
C1356 C1354 1.388 . S
C1356 C1357 1.366 . S
C1357 C1356 1.366 . S
C1357 C1358 1.414 . S
C1357 C1360 1.499 . S
C1358 H1338 0.950 . S
C1358 C1357 1.414 . S
C1358 C1359 1.374 . S
C1359 H1339 0.950 . S
C1359 C1355 1.385 . S
C1359 C1358 1.374 . S
C1360 C1357 1.499 . S
C1360 C1361 1.373 . S
C1360 C1362 1.389 . S
C1361 H1340 0.950 . S
C1361 C1360 1.373 . S
C1361 C1377 1.377 . S
C1362 C1360 1.389 . S
C1362 C1363 1.524 . S
C1362 C1376 1.377 . S
C1363 C1362 1.524 . S
C1363 C1364 1.397 . S
C1363 C1368 1.363 . S
C1364 H1341 0.950 . S
C1364 C1363 1.397 . S
C1364 C1365 1.334 . S
C1365 H1342 0.950 . S
C1365 C1364 1.334 . S
C1365 C1366 1.287 . S
C1366 C1365 1.287 . S
C1366 C1367 1.524 . S
C1366 H1385 0.913 . S
C1367 H1343 0.950 . S
C1367 C1366 1.524 . S
C1367 C1368 1.415 . S
C1368 H1344 0.950 . S
C1368 C1363 1.363 . S
C1368 C1367 1.415 . S
C1369 H1345 0.951 . S
C1369 C1370 1.366 . S
C1369 C1371 1.388 . S
C1370 C1369 1.366 . S
C1370 C1374 1.385 . S
C1371 H1346 0.951 . S
C1371 C1369 1.388 . S
C1371 C1372 1.366 . S
C1372 C1371 1.366 . S
C1372 C1373 1.414 . S
C1372 C1375 1.499 . S
C1373 H1347 0.950 . S
C1373 C1372 1.414 . S
C1373 C1374 1.374 . S
C1374 H1348 0.950 . S
C1374 C1370 1.385 . S
C1374 C1373 1.374 . S
C1375 C1372 1.499 . S
C1375 C1376 1.373 . S
C1375 C1377 1.389 . S
C1376 H1349 0.950 . S
C1376 C1362 1.377 . S
C1376 C1375 1.373 . S
C1377 C1361 1.377 . S
C1377 C1375 1.389 . S
C1377 C1378 1.524 . S
C1378 C1377 1.524 . S
C1378 C1379 1.397 . S
C1378 C1383 1.363 . S
C1379 H1350 0.950 . S
C1379 C1378 1.397 . S
C1379 C1380 1.334 . S
C1380 H1351 0.950 . S
C1380 C1379 1.334 . S
C1380 C1381 1.287 . S
C1381 C1380 1.287 . S
C1381 C1382 1.524 . S
C1381 H1384 0.999 . S
C1382 H1352 0.950 . S
C1382 C1381 1.524 . S
C1382 C1383 1.415 . S
C1383 H1353 0.950 . S
C1383 C1378 1.363 . S
C1383 C1382 1.415 . S
H1384 C1381 0.999 . S
H1385 C1366 0.913 . S
C220 C178 1.630 . S
C205 C8 1.587 . S
C255 C26 1.593 . S
C270 C113 1.636 . S
C305 C50 1.594 . S
C320 C131 1.638 . S
C355 C68 1.578 . S
C370 C144 1.622 . S
C420 C152 1.634 . S
C405 C80 1.590 . S
C455 C104 1.587 . S
C470 C164 1.631 . S
C505 C32 1.599 . S
C520 C126 1.645 . S
C555 C44 1.588 . S
C570 C139 1.631 . S
C605 C62 1.584 . S
C620 C157 1.626 . S
C670 C163 1.639 . S
C655 C86 1.593 1_554 S
C720 C183 1.618 . S
C705 C98 1.577 . S
C770 C118 1.631 . S
C755 C14 1.587 . S
C805 C7 1.557 . S
C820 C124 1.606 . S
C855 C25 1.558 . S
C870 C137 1.608 . S
C920 C151 1.601 . S
C905 C52 1.556 . S
C955 C70 1.567 . S
C970 C165 1.613 . S
C1020 C177 1.597 . S
C1005 C79 1.549 . S
C1070 C112 1.601 . S
C1055 C106 1.554 . S
C1120 C176 1.606 . S
C1105 C34 1.561 . S
C1155 C43 1.555 . S
C1170 C111 1.604 . S
C1220 C125 1.605 . S
C1205 C61 1.556 . S
C1255 C88 1.552 . S
C1270 C138 1.597 . S
C1305 C97 1.559 . S
C1320 C150 1.608 . S
C1355 C16 1.561 . S
C1370 C170 1.606 . S
