# Generated by pormake.
# Topology llj, (12,3)-cn, num edge types: 1
# Building blocks:
#     Node 0, Type 0, BuildingBlock: QEWDON_clean_sbu_0, # of connection points: 12
#     Node 1, Type 0, BuildingBlock: QEWDON_clean_sbu_0, # of connection points: 12
#     Node 2, Type 1, BuildingBlock: MIDCAF_clean_linker_0, # of connection points: 3
#     Node 3, Type 1, BuildingBlock: MIDCAF_clean_linker_0, # of connection points: 3
#     Node 4, Type 1, BuildingBlock: MIDCAF_clean_linker_0, # of connection points: 3
#     Node 5, Type 1, BuildingBlock: MIDCAF_clean_linker_0, # of connection points: 3
#     Node 6, Type 1, BuildingBlock: MIDCAF_clean_linker_0, # of connection points: 3
#     Node 7, Type 1, BuildingBlock: MIDCAF_clean_linker_0, # of connection points: 3
#     Node 8, Type 1, BuildingBlock: MIDCAF_clean_linker_0, # of connection points: 3
#     Node 9, Type 1, BuildingBlock: MIDCAF_clean_linker_0, # of connection points: 3
#     Edge 10, Type (0, 1), BuildingBlock: KIFKEQ_clean_linker_1, # of connection points: 2
#     Edge 11, Type (0, 1), BuildingBlock: KIFKEQ_clean_linker_1, # of connection points: 2
#     Edge 12, Type (0, 1), BuildingBlock: KIFKEQ_clean_linker_1, # of connection points: 2
#     Edge 13, Type (0, 1), BuildingBlock: KIFKEQ_clean_linker_1, # of connection points: 2
#     Edge 14, Type (0, 1), BuildingBlock: KIFKEQ_clean_linker_1, # of connection points: 2
#     Edge 15, Type (0, 1), BuildingBlock: KIFKEQ_clean_linker_1, # of connection points: 2
#     Edge 16, Type (0, 1), BuildingBlock: KIFKEQ_clean_linker_1, # of connection points: 2
#     Edge 17, Type (0, 1), BuildingBlock: KIFKEQ_clean_linker_1, # of connection points: 2
#     Edge 18, Type (0, 1), BuildingBlock: KIFKEQ_clean_linker_1, # of connection points: 2
#     Edge 19, Type (0, 1), BuildingBlock: KIFKEQ_clean_linker_1, # of connection points: 2
#     Edge 20, Type (0, 1), BuildingBlock: KIFKEQ_clean_linker_1, # of connection points: 2
#     Edge 21, Type (0, 1), BuildingBlock: KIFKEQ_clean_linker_1, # of connection points: 2
#     Edge 22, Type (0, 1), BuildingBlock: KIFKEQ_clean_linker_1, # of connection points: 2
#     Edge 23, Type (0, 1), BuildingBlock: KIFKEQ_clean_linker_1, # of connection points: 2
#     Edge 24, Type (0, 1), BuildingBlock: KIFKEQ_clean_linker_1, # of connection points: 2
#     Edge 25, Type (0, 1), BuildingBlock: KIFKEQ_clean_linker_1, # of connection points: 2
#     Edge 26, Type (0, 1), BuildingBlock: KIFKEQ_clean_linker_1, # of connection points: 2
#     Edge 27, Type (0, 1), BuildingBlock: KIFKEQ_clean_linker_1, # of connection points: 2
#     Edge 28, Type (0, 1), BuildingBlock: KIFKEQ_clean_linker_1, # of connection points: 2
#     Edge 29, Type (0, 1), BuildingBlock: KIFKEQ_clean_linker_1, # of connection points: 2
#     Edge 30, Type (0, 1), BuildingBlock: KIFKEQ_clean_linker_1, # of connection points: 2
#     Edge 31, Type (0, 1), BuildingBlock: KIFKEQ_clean_linker_1, # of connection points: 2
#     Edge 32, Type (0, 1), BuildingBlock: KIFKEQ_clean_linker_1, # of connection points: 2
#     Edge 33, Type (0, 1), BuildingBlock: KIFKEQ_clean_linker_1, # of connection points: 2
# Relax obj value: 0.011
# Max RMSD: 0.055
# Mean RMSD: 0.051
data_MOF--net-llj--node1-QEWDON_clean_sbu_0--node2-MIDCAF_clean_linker_0--edge1-KIFKEQ_clean_linker_1
_symmetry_space_group_name_H-M    P1
_symmetry_Int_Tables_number       1
_symmetry_cell_setting            triclinic
loop_
_symmetry_equiv_pos_as_xyz
'x, y, z'
_cell_length_a     45.643902
_cell_length_b     45.600036
_cell_length_c     32.001661
_cell_angle_alpha  89.917956
_cell_angle_beta   90.006289
_cell_angle_gamma 90.317815
loop_
_atom_site_label
_atom_site_type_symbol
_atom_site_fract_x
_atom_site_fract_y
_atom_site_fract_z
_atom_type_partial_charge
Zn0 Zn 0.93919 0.05457 0.96346 0.0
Zn1 Zn 0.94463 0.05745 0.06002 0.0
O2 O 0.96946 0.06054 0.00901 0.0
H3 H 0.98714 0.07204 0.00557 0.0
C4 C 0.91736 0.99378 0.92038 0.0
O5 O 0.90762 0.99792 0.95854 0.0
Zn6 Zn 0.06242 0.942 0.05702 0.0
Zn7 Zn 0.06663 0.93807 0.95882 0.0
O8 O 0.03744 0.93964 0.00606 0.0
H9 H 0.01762 0.9466 0.00293 0.0
Zn10 Zn 0.95388 0.95245 0.9643 0.0
O11 O 0.96518 0.97722 0.01416 0.0
Zn12 Zn 0.96051 0.951 0.06353 0.0
H13 H 0.97641 0.9952 0.01285 0.0
Zn14 Zn 0.05311 0.04682 0.96649 0.0
O15 O 0.04034 0.02226 0.01582 0.0
H16 H 0.02853 0.00467 0.01416 0.0
Zn17 Zn 0.04631 0.04745 0.06598 0.0
C18 C 0.08225 0.00351 0.91529 0.0
O19 O 0.09417 0.99738 0.95162 0.0
O20 O 0.89921 0.07181 0.97923 0.0
O21 O 0.90466 0.07588 0.04796 0.0
O22 O 0.10638 0.92112 0.97634 0.0
O23 O 0.10239 0.92376 0.04552 0.0
O24 O 0.93156 0.91467 0.97931 0.0
O25 O 0.9341 0.91601 0.04862 0.0
C26 C 0.99281 0.07589 0.10939 0.0
O27 O 0.07861 0.08229 0.98267 0.0
O28 O 0.07451 0.08142 0.05193 0.0
O29 O 0.04897 0.92628 0.90205 0.0
C30 C 0.88956 0.07967 0.0148 0.0
O31 O 0.95436 0.06484 0.90478 0.0
C32 C 0.01442 0.92351 0.10684 0.0
O33 O 0.93755 0.97522 0.91421 0.0
C34 C 0.1168 0.91686 0.01277 0.0
O35 O 0.0638 0.02422 0.91291 0.0
C36 C 0.93862 0.00137 0.10889 0.0
O37 O 0.96514 0.07854 0.10723 0.0
O38 O 0.00548 0.06112 0.08099 0.0
C39 C 0.92508 0.904 0.01494 0.0
O40 O 0.04205 0.92079 0.10438 0.0
O41 O 0.00161 0.93803 0.07824 0.0
C42 C 0.06747 0.99574 0.10821 0.0
O43 O 0.94358 0.97403 0.11181 0.0
O44 O 0.94282 0.01411 0.07399 0.0
C45 C 0.08503 0.09265 0.0185 0.0
O46 O 0.0621 0.02279 0.11367 0.0
O47 O 0.06468 0.98491 0.07187 0.0
C48 C 0.02785 0.94157 0.88846 0.0
O49 O 0.01931 0.96445 0.91011 0.0
C50 C 0.9731 0.04878 0.88674 0.0
O51 O 0.98179 0.02456 0.90512 0.0
Zn52 Zn 0.44581 0.55558 0.47135 0.0
Zn53 Zn 0.4454 0.55199 0.57094 0.0
O54 O 0.47166 0.55035 0.5215 0.0
H55 H 0.48946 0.53907 0.5198 0.0
C56 C 0.411 0.48634 0.43196 0.0
O57 O 0.40622 0.49565 0.47018 0.0
Zn58 Zn 0.55784 0.44661 0.56746 0.0
Zn59 Zn 0.55912 0.44786 0.46854 0.0
O60 O 0.53153 0.44758 0.5176 0.0
H61 H 0.5124 0.45643 0.51602 0.0
Zn62 Zn 0.44489 0.44439 0.47844 0.0
O63 O 0.45399 0.47198 0.52579 0.0
Zn64 Zn 0.45351 0.4467 0.57661 0.0
H65 H 0.46643 0.48897 0.52197 0.0
Zn66 Zn 0.55053 0.55176 0.47291 0.0
O67 O 0.54491 0.52539 0.52301 0.0
H68 H 0.53318 0.50775 0.5218 0.0
Zn69 Zn 0.54917 0.55163 0.57235 0.0
C70 C 0.57863 0.50965 0.42134 0.0
O71 O 0.59185 0.50575 0.4574 0.0
O72 O 0.40675 0.57491 0.48607 0.0
O73 O 0.40702 0.57272 0.55559 0.0
O74 O 0.59884 0.42961 0.48239 0.0
O75 O 0.59636 0.42672 0.55172 0.0
O76 O 0.42542 0.40621 0.49788 0.0
O77 O 0.42775 0.41033 0.56708 0.0
C78 C 0.4942 0.57318 0.61866 0.0
O79 O 0.57461 0.58872 0.48662 0.0
O80 O 0.5745 0.58725 0.55616 0.0
O81 O 0.53975 0.43608 0.41299 0.0
C82 C 0.39479 0.58014 0.52122 0.0
O83 O 0.46742 0.56936 0.41826 0.0
C84 C 0.50964 0.42505 0.61517 0.0
O85 O 0.42722 0.46412 0.4264 0.0
C86 C 0.6098 0.42206 0.51735 0.0
O87 O 0.55937 0.52953 0.41831 0.0
C88 C 0.43589 0.49779 0.62255 0.0
O89 O 0.46634 0.57305 0.61823 0.0
O90 O 0.50749 0.562 0.58766 0.0
C91 C 0.41944 0.39662 0.53431 0.0
O92 O 0.53748 0.42523 0.61505 0.0
O93 O 0.49619 0.43703 0.58505 0.0
C94 C 0.56944 0.50135 0.61818 0.0
O95 O 0.43911 0.47021 0.62638 0.0
O96 O 0.44011 0.50943 0.58698 0.0
C97 C 0.58237 0.59928 0.52181 0.0
O98 O 0.56675 0.52903 0.62088 0.0
O99 O 0.56338 0.48905 0.58363 0.0
C100 C 0.51897 0.45161 0.39892 0.0
O101 O 0.51132 0.47539 0.41926 0.0
C102 C 0.49094 0.5839 0.42366 0.0
O103 O 0.49978 0.5895 0.46191 0.0
C104 C 0.40456 0.3816 0.12175 0.0
C105 C 0.39544 0.37432 0.16229 0.0
C106 C 0.37206 0.35437 0.16747 0.0
C107 C 0.35811 0.34201 0.13257 0.0
H108 H 0.29148 0.28363 0.09068 0.0
H109 H 0.25093 0.24855 0.09329 0.0
H110 H 0.24847 0.24661 0.9584 0.0
H111 H 0.28912 0.28104 0.95559 0.0
H112 H 0.33841 0.31424 0.90117 0.0
H113 H 0.36142 0.32931 0.83524 0.0
H114 H 0.42301 0.38307 0.90373 0.0
H115 H 0.40024 0.36875 0.96866 0.0
H116 H 0.39877 0.37563 0.05656 0.0
H117 H 0.42288 0.39637 0.11659 0.0
H118 H 0.36449 0.34843 0.19844 0.0
H119 H 0.34023 0.32666 0.13741 0.0
N120 N 0.33069 0.31739 0.05648 0.0
N121 N 0.33073 0.31319 0.98309 0.0
N122 N 0.36507 0.34319 0.0164 0.0
C123 C 0.31897 0.3058 0.02086 0.0
C124 C 0.35387 0.33193 0.98074 0.0
C125 C 0.35384 0.33624 0.05425 0.0
C126 C 0.29378 0.2851 0.02292 0.0
C127 C 0.28229 0.27576 0.06155 0.0
C128 C 0.25893 0.25575 0.0631 0.0
C129 C 0.24659 0.24464 0.02607 0.0
C130 C 0.25781 0.25432 0.98753 0.0
C131 C 0.2811 0.27424 0.98596 0.0
C132 C 0.3673 0.34036 0.9403 0.0
C133 C 0.3568 0.32934 0.90205 0.0
C134 C 0.37001 0.33786 0.86436 0.0
C135 C 0.39379 0.35763 0.86436 0.0
C136 C 0.40433 0.36833 0.90259 0.0
C137 C 0.39128 0.35987 0.93997 0.0
C138 C 0.36745 0.34932 0.09199 0.0
C139 C 0.39077 0.36938 0.08717 0.0
C140 C 0.60207 0.3832 0.13982 0.0
C141 C 0.61629 0.37574 0.17722 0.0
C142 C 0.63729 0.3533 0.1768 0.0
C143 C 0.64438 0.33906 0.13948 0.0
H144 H 0.69295 0.27151 0.08937 0.0
H145 H 0.72661 0.2304 0.08751 0.0
H146 H 0.71628 0.22494 0.95352 0.0
H147 H 0.68322 0.26659 0.95512 0.0
H148 H 0.65384 0.321 0.90675 0.0
H149 H 0.64191 0.34814 0.84315 0.0
H150 H 0.5962 0.41268 0.91672 0.0
H151 H 0.60823 0.38606 0.98004 0.0
H152 H 0.59824 0.37593 0.0742 0.0
H153 H 0.58604 0.40061 0.13905 0.0
H154 H 0.64842 0.34694 0.20527 0.0
H155 H 0.66103 0.32223 0.14005 0.0
N156 N 0.65716 0.30996 0.06041 0.0
N157 N 0.65759 0.31174 0.98704 0.0
N158 N 0.63161 0.34684 0.02513 0.0
C159 C 0.66602 0.29855 0.02327 0.0
C160 C 0.64037 0.33596 0.98778 0.0
C161 C 0.63979 0.33404 0.06153 0.0
C162 C 0.68545 0.27257 0.02235 0.0
C163 C 0.69771 0.26151 0.05947 0.0
C164 C 0.71691 0.23776 0.05847 0.0
C165 C 0.72424 0.22436 0.02036 0.0
C166 C 0.71151 0.23503 0.98335 0.0
C167 C 0.69241 0.25887 0.98431 0.0
C168 C 0.63215 0.35135 0.94865 0.0
C169 C 0.64116 0.34092 0.90937 0.0
C170 C 0.63424 0.35639 0.8729 0.0
C171 C 0.6183 0.38265 0.87499 0.0
C172 C 0.60893 0.39278 0.91414 0.0
C173 C 0.61571 0.37734 0.95047 0.0
C174 C 0.63081 0.34721 0.10179 0.0
C175 C 0.60928 0.36917 0.10255 0.0
C176 C 0.58581 0.65428 0.90884 0.0
C177 C 0.60113 0.65222 0.87094 0.0
C178 C 0.63067 0.66123 0.86961 0.0
C179 C 0.64475 0.67129 0.90579 0.0
H180 H 0.71542 0.7232 0.95295 0.0
H181 H 0.76021 0.75253 0.95439 0.0
H182 H 0.76149 0.74736 0.08916 0.0
H183 H 0.71657 0.71857 0.08799 0.0
H184 H 0.66319 0.69167 0.13737 0.0
H185 H 0.63823 0.67842 0.20233 0.0
H186 H 0.56759 0.63953 0.13126 0.0
H187 H 0.59191 0.65306 0.06681 0.0
H188 H 0.58727 0.66507 0.97352 0.0
H189 H 0.56286 0.64826 0.91076 0.0
H190 H 0.64312 0.65977 0.84089 0.0
H191 H 0.66767 0.67746 0.90407 0.0
N192 N 0.67075 0.69496 0.98325 0.0
N193 N 0.67054 0.69543 0.05672 0.0
N194 N 0.63151 0.67418 0.02024 0.0
C195 C 0.68392 0.7024 0.02 0.0
C196 C 0.64433 0.68127 0.05704 0.0
C197 C 0.64442 0.68085 0.98329 0.0
C198 C 0.71215 0.71867 0.02035 0.0
C199 C 0.7253 0.72815 0.98291 0.0
C200 C 0.7511 0.74483 0.98369 0.0
C201 C 0.76431 0.7524 0.02191 0.0
C202 C 0.75159 0.7423 0.05924 0.0
C203 C 0.72585 0.72565 0.05849 0.0
C204 C 0.62958 0.6735 0.09678 0.0
C205 C 0.6423 0.68037 0.13562 0.0
C206 C 0.62809 0.67269 0.17283 0.0
C207 C 0.60088 0.6581 0.17187 0.0
C208 C 0.58827 0.65124 0.13307 0.0
C209 C 0.60239 0.65886 0.09603 0.0
C210 C 0.62957 0.67236 0.94396 0.0
C211 C 0.59984 0.66411 0.94485 0.0
C212 C 0.39817 0.60805 0.91539 0.0
C213 C 0.38922 0.61915 0.87653 0.0
C214 C 0.37152 0.64428 0.87542 0.0
C215 C 0.3625 0.65769 0.9125 0.0
H216 H 0.31619 0.72861 0.96057 0.0
H217 H 0.28522 0.77197 0.96176 0.0
H218 H 0.28482 0.76984 0.09671 0.0
H219 H 0.31521 0.72629 0.09572 0.0
H220 H 0.33835 0.67146 0.14343 0.0
H221 H 0.34292 0.64286 0.20752 0.0
H222 H 0.37886 0.57083 0.13704 0.0
H223 H 0.37411 0.59908 0.07295 0.0
H224 H 0.39601 0.61178 0.98174 0.0
H225 H 0.41153 0.58853 0.91729 0.0
H226 H 0.3645 0.65347 0.84585 0.0
H227 H 0.34852 0.67676 0.91058 0.0
N228 N 0.34527 0.68479 0.99122 0.0
N229 N 0.33852 0.68068 0.06369 0.0
N230 N 0.36333 0.64394 0.02734 0.0
C231 C 0.33469 0.69593 0.02761 0.0
C232 C 0.35276 0.65465 0.06381 0.0
C233 C 0.3598 0.65882 0.99095 0.0
C234 C 0.31797 0.7237 0.02802 0.0
C235 C 0.30973 0.73751 0.99053 0.0
C236 C 0.2921 0.76249 0.99119 0.0
C237 C 0.2824 0.77423 0.02934 0.0
C238 C 0.29151 0.76103 0.0668 0.0
C239 C 0.30904 0.73608 0.06617 0.0
C240 C 0.35589 0.63762 0.10296 0.0
C241 C 0.34721 0.64952 0.14152 0.0
C242 C 0.34991 0.6332 0.17829 0.0
C243 C 0.36114 0.6046 0.17721 0.0
C244 C 0.36975 0.59268 0.13873 0.0
C245 C 0.36723 0.60901 0.10203 0.0
C246 C 0.37081 0.64607 0.95143 0.0
C247 C 0.38904 0.6213 0.95238 0.0
C248 C 0.9141 0.87282 0.60958 0.0
C249 C 0.90571 0.86495 0.65024 0.0
C250 C 0.88263 0.84476 0.65581 0.0
C251 C 0.86825 0.83262 0.62117 0.0
H252 H 0.79635 0.78032 0.58098 0.0
H253 H 0.75226 0.74993 0.58421 0.0
H254 H 0.74495 0.75371 0.44971 0.0
H255 H 0.7892 0.78336 0.44628 0.0
H256 H 0.83894 0.82148 0.39242 0.0
H257 H 0.86353 0.8341 0.32663 0.0
H258 H 0.94627 0.83985 0.39158 0.0
H259 H 0.92191 0.82758 0.45704 0.0
H260 H 0.90731 0.86716 0.54432 0.0
H261 H 0.93207 0.88799 0.60428 0.0
H262 H 0.87566 0.83843 0.68691 0.0
H263 H 0.85064 0.81702 0.6263 0.0
N264 N 0.8372 0.81204 0.54583 0.0
N265 N 0.83775 0.80475 0.47306 0.0
N266 N 0.87601 0.83034 0.50544 0.0
C267 C 0.82443 0.80086 0.51075 0.0
C268 C 0.86369 0.81929 0.47036 0.0
C269 C 0.86298 0.82706 0.54318 0.0
C270 C 0.79657 0.78406 0.51334 0.0
C271 C 0.78525 0.77482 0.5521 0.0
C272 C 0.75987 0.7575 0.554 0.0
C273 C 0.74522 0.74915 0.51719 0.0
C274 C 0.75603 0.75921 0.47861 0.0
C275 C 0.78141 0.77635 0.47668 0.0
C276 C 0.87848 0.8238 0.42985 0.0
C277 C 0.86242 0.82505 0.39245 0.0
C278 C 0.87642 0.83238 0.35495 0.0
C279 C 0.90673 0.83797 0.35421 0.0
C280 C 0.92292 0.83543 0.39127 0.0
C281 C 0.90891 0.82862 0.42875 0.0
C282 C 0.87701 0.84025 0.58044 0.0
C283 C 0.89999 0.8606 0.57516 0.0
C284 C 0.10696 0.88676 0.62274 0.0
C285 C 0.12004 0.87904 0.66089 0.0
C286 C 0.13868 0.85463 0.66223 0.0
C287 C 0.14475 0.83879 0.62588 0.0
H288 H 0.19283 0.77026 0.58113 0.0
H289 H 0.22804 0.73047 0.58259 0.0
H290 H 0.22103 0.72184 0.44855 0.0
H291 H 0.18627 0.76211 0.44679 0.0
H292 H 0.15763 0.81617 0.39543 0.0
H293 H 0.14353 0.83995 0.33008 0.0
H294 H 0.08286 0.89473 0.39746 0.0
H295 H 0.0965 0.87091 0.46246 0.0
H296 H 0.10275 0.87788 0.55759 0.0
H297 H 0.09207 0.90514 0.62084 0.0
H298 H 0.14926 0.84826 0.69113 0.0
H299 H 0.1597 0.82048 0.62785 0.0
N300 N 0.15819 0.80813 0.54885 0.0
N301 N 0.15642 0.80553 0.47563 0.0
N302 N 0.13028 0.84192 0.51102 0.0
C303 C 0.16637 0.79483 0.51272 0.0
C304 C 0.13827 0.82905 0.47459 0.0
C305 C 0.1401 0.83166 0.54826 0.0
C306 C 0.18676 0.7696 0.51379 0.0
C307 C 0.19865 0.75986 0.55191 0.0
C308 C 0.21874 0.73687 0.55283 0.0
C309 C 0.22742 0.723 0.51569 0.0
C310 C 0.21514 0.73235 0.47767 0.0
C311 C 0.19507 0.75537 0.47671 0.0
C312 C 0.12835 0.84171 0.43432 0.0
C313 C 0.14105 0.83305 0.39627 0.0
C314 C 0.13311 0.84679 0.35884 0.0
C315 C 0.11215 0.86927 0.35864 0.0
C316 C 0.09884 0.87727 0.39648 0.0
C317 C 0.10687 0.86371 0.43384 0.0
C318 C 0.13228 0.84704 0.58745 0.0
C319 C 0.113 0.87099 0.58648 0.0
C320 C 0.08176 0.16939 0.38971 0.0
C321 C 0.09927 0.16569 0.3541 0.0
C322 C 0.12973 0.16976 0.35728 0.0
C323 C 0.14255 0.17658 0.3958 0.0
H324 H 0.21681 0.21209 0.45673 0.0
H325 H 0.26157 0.24061 0.46399 0.0
H326 H 0.24587 0.24901 0.59657 0.0
H327 H 0.20129 0.21962 0.58956 0.0
H328 H 0.15231 0.17258 0.62896 0.0
H329 H 0.12622 0.14912 0.68692 0.0
H330 H 0.05828 0.12079 0.60188 0.0
H331 H 0.08412 0.14362 0.54428 0.0
H332 H 0.08052 0.17751 0.45537 0.0
H333 H 0.05825 0.16613 0.38817 0.0
H334 H 0.14364 0.16712 0.33013 0.0
H335 H 0.16615 0.17884 0.39772 0.0
N336 N 0.1649 0.19548 0.47851 0.0
N337 N 0.16245 0.18703 0.55096 0.0
N338 N 0.12434 0.17128 0.5073 0.0
C339 C 0.17695 0.19819 0.51724 0.0
C340 C 0.13613 0.17335 0.54604 0.0
C341 C 0.13845 0.18224 0.47349 0.0
C342 C 0.20524 0.21382 0.52248 0.0
C343 C 0.2229 0.21985 0.48752 0.0
C344 C 0.24855 0.23633 0.49165 0.0
C345 C 0.2571 0.24749 0.53077 0.0
C346 C 0.24002 0.24061 0.56604 0.0
C347 C 0.21438 0.22387 0.56196 0.0
C348 C 0.12042 0.15998 0.58188 0.0
C349 C 0.13182 0.16134 0.62266 0.0
C350 C 0.11686 0.14798 0.65585 0.0
C351 C 0.09035 0.13292 0.64881 0.0
C352 C 0.07894 0.13175 0.60816 0.0
C353 C 0.09374 0.1451 0.57515 0.0
C354 C 0.1251 0.17881 0.4318 0.0
C355 C 0.09456 0.17569 0.42821 0.0
C356 C 0.87769 0.09738 0.40562 0.0
C357 C 0.87053 0.10853 0.36601 0.0
C358 C 0.85319 0.13388 0.3634 0.0
C359 C 0.8429 0.1475 0.39967 0.0
H360 H 0.80165 0.22269 0.4453 0.0
H361 H 0.77406 0.26829 0.44431 0.0
H362 H 0.75989 0.26097 0.5774 0.0
H363 H 0.78786 0.21591 0.57875 0.0
H364 H 0.81056 0.16183 0.62874 0.0
H365 H 0.81867 0.13595 0.69453 0.0
H366 H 0.87208 0.07252 0.62998 0.0
H367 H 0.86355 0.0977 0.56449 0.0
H368 H 0.87334 0.10146 0.47162 0.0
H369 H 0.89147 0.07824 0.40879 0.0
H370 H 0.84708 0.14286 0.33331 0.0
H371 H 0.82929 0.16676 0.39659 0.0
N372 N 0.82358 0.17537 0.47701 0.0
N373 N 0.81719 0.17316 0.54976 0.0
N374 N 0.84219 0.13575 0.51516 0.0
C375 C 0.81304 0.18737 0.51287 0.0
C376 C 0.83176 0.14734 0.55112 0.0
C377 C 0.83825 0.14951 0.47799 0.0
C378 C 0.79693 0.21549 0.51206 0.0
C379 C 0.7928 0.23086 0.4744 0.0
C380 C 0.7769 0.25696 0.47379 0.0
C381 C 0.7648 0.26826 0.51078 0.0
C382 C 0.76931 0.25313 0.54847 0.0
C383 C 0.78519 0.22709 0.54912 0.0
C384 C 0.83637 0.13186 0.59125 0.0
C385 C 0.82395 0.1423 0.62858 0.0
C386 C 0.82866 0.12755 0.66631 0.0
C387 C 0.84586 0.1021 0.66741 0.0
C388 C 0.85822 0.09172 0.63009 0.0
C389 C 0.85348 0.10635 0.5925 0.0
C390 C 0.8497 0.13598 0.43927 0.0
C391 C 0.86737 0.11087 0.44173 0.0
H392 H 0.10806 0.11839 0.08896 0.0
H393 H 0.11051 0.12254 0.95399 0.0
H394 H 0.14658 0.15578 0.09239 0.0
H395 H 0.14841 0.16003 0.95757 0.0
H396 H 0.24028 0.19588 0.97756 0.0
H397 H 0.20005 0.16071 0.97714 0.0
H398 H 0.15794 0.20803 0.07714 0.0
H399 H 0.19838 0.2435 0.07749 0.0
C400 C 0.11655 0.12746 0.06006 0.0
C401 C 0.10639 0.1172 0.02119 0.0
C402 C 0.13854 0.14896 0.06206 0.0
C403 C 0.15081 0.16058 0.02524 0.0
C404 C 0.13986 0.15107 0.9865 0.0
C405 C 0.11797 0.12966 0.98448 0.0
C406 C 0.22234 0.19898 -0.00076 0.0
C407 C 0.22241 0.22268 0.02726 0.0
C408 C 0.19927 0.17881 -0.001 0.0
C409 C 0.17563 0.18177 0.02679 0.0
C410 C 0.17593 0.20508 0.05551 0.0
C411 C 0.19909 0.22535 0.05572 0.0
H412 H 0.85209 0.09203 0.95058 0.0
H413 H 0.86361 0.10429 0.08357 0.0
H414 H 0.80962 0.12403 0.95201 0.0
H415 H 0.82124 0.13666 0.08472 0.0
H416 H 0.73035 0.17846 0.07537 0.0
H417 H 0.76755 0.14013 0.07464 0.0
H418 H 0.80421 0.17712 0.96174 0.0
H419 H 0.76746 0.21549 0.96267 0.0
C420 C 0.84543 0.1013 0.98023 0.0
C421 C 0.86152 0.09586 0.0169 0.0
C422 C 0.82115 0.11977 0.98095 0.0
C423 C 0.81232 0.1332 0.01834 0.0
C424 C 0.82743 0.12655 0.05544 0.0
C425 C 0.85179 0.10808 0.05473 0.0
C426 C 0.74641 0.17845 0.05047 0.0
C427 C 0.74588 0.20009 0.01906 0.0
C428 C 0.76766 0.15646 0.05003 0.0
C429 C 0.78874 0.15553 0.01806 0.0
C430 C 0.78794 0.17689 0.98638 0.0
C431 C 0.76682 0.19891 0.98691 0.0
H432 H 0.89991 0.87433 0.94993 0.0
H433 H 0.9051 0.87537 0.08486 0.0
H434 H 0.86348 0.83537 0.95338 0.0
H435 H 0.86897 0.8358 0.08817 0.0
H436 H 0.77509 0.79807 0.07488 0.0
H437 H 0.81672 0.83159 0.07476 0.0
H438 H 0.85457 0.78439 0.97116 0.0
H439 H 0.8127 0.7508 0.97121 0.0
C440 C 0.89361 0.86598 0.98035 0.0
C441 C 0.90524 0.87822 0.01714 0.0
C442 C 0.87282 0.84346 0.98229 0.0
C443 C 0.86318 0.83258 0.02105 0.0
C444 C 0.87561 0.84404 0.05783 0.0
C445 C 0.89643 0.86661 0.05591 0.0
C446 C 0.79251 0.79452 0.05251 0.0
C447 C 0.79055 0.77179 0.023 0.0
C448 C 0.81643 0.81373 0.0525 0.0
C449 C 0.83899 0.81067 0.02297 0.0
C450 C 0.83735 0.78757 0.99397 0.0
C451 C 0.81337 0.76835 0.99396 0.0
H452 H 0.14503 0.90095 0.08486 0.0
H453 H 0.15268 0.89771 0.95024 0.0
H454 H 0.18848 0.87039 0.0913 0.0
H455 H 0.19557 0.86673 0.95677 0.0
H456 H 0.28288 0.82394 0.98092 0.0
H457 H 0.24626 0.86283 0.97921 0.0
H458 H 0.19788 0.81896 0.07732 0.0
H459 H 0.2343 0.78034 0.07906 0.0
C460 C 0.15611 0.89399 0.05666 0.0
C461 C 0.14513 0.90149 0.01703 0.0
C462 C 0.18092 0.87636 0.06036 0.0
C463 C 0.19529 0.86587 0.02455 0.0
C464 C 0.18519 0.87461 0.985 0.0
C465 C 0.16042 0.89224 0.98128 0.0
C466 C 0.26445 0.82271 0.00218 0.0
C467 C 0.26147 0.79903 0.03006 0.0
C468 C 0.24352 0.84498 0.00125 0.0
C469 C 0.21916 0.844 0.02814 0.0
C470 C 0.21664 0.8207 0.05673 0.0
C471 C 0.23753 0.7985 0.05767 0.0
H472 H 0.60128 0.63194 0.45537 0.0
H473 H 0.60928 0.62453 0.58963 0.0
H474 H 0.63844 0.67034 0.45509 0.0
H475 H 0.64693 0.66278 0.5891 0.0
H476 H 0.69939 0.74898 0.57301 0.0
H477 H 0.6575 0.71527 0.57505 0.0
H478 H 0.69132 0.67021 0.46682 0.0
H479 H 0.73301 0.70348 0.46495 0.0
C480 C 0.61082 0.6386 0.4849 0.0
C481 C 0.60255 0.62485 0.52248 0.0
C482 C 0.63223 0.66054 0.48468 0.0
C483 C 0.64594 0.66929 0.52199 0.0
C484 C 0.63671 0.65659 0.55985 0.0
C485 C 0.61521 0.63458 0.56011 0.0
C486 C 0.6979 0.73178 0.5498 0.0
C487 C 0.71946 0.72907 0.51864 0.0
C488 C 0.6739 0.71252 0.55094 0.0
C489 C 0.67096 0.69025 0.52087 0.0
C490 C 0.69257 0.68754 0.48987 0.0
C491 C 0.7165 0.70665 0.4888 0.0
H492 H 0.36684 0.60449 0.58867 0.0
H493 H 0.36003 0.59391 0.45475 0.0
H494 H 0.32454 0.63706 0.58749 0.0
H495 H 0.31763 0.62589 0.45381 0.0
H496 H 0.27285 0.7154 0.46136 0.0
H497 H 0.31081 0.67824 0.46343 0.0
H498 H 0.27156 0.64067 0.57421 0.0
H499 H 0.23333 0.67796 0.57207 0.0
C500 C 0.35607 0.60872 0.55911 0.0
C501 C 0.36708 0.5969 0.52175 0.0
C502 C 0.33177 0.62731 0.55846 0.0
C503 C 0.31798 0.63437 0.52046 0.0
C504 C 0.32816 0.6214 0.48346 0.0
C505 C 0.35241 0.60293 0.48407 0.0
C506 C 0.272 0.69897 0.48581 0.0
C507 C 0.24998 0.69962 0.51646 0.0
C508 C 0.29379 0.67764 0.48701 0.0
C509 C 0.29414 0.6564 0.5189 0.0
C510 C 0.27206 0.65691 0.5495 0.0
C511 C 0.25019 0.67828 0.54826 0.0
H512 H 0.40554 0.35784 0.47283 0.0
H513 H 0.39028 0.37581 0.60364 0.0
H514 H 0.36864 0.31933 0.47473 0.0
H515 H 0.35274 0.33721 0.60522 0.0
H516 H 0.29927 0.24965 0.59236 0.0
H517 H 0.34159 0.2829 0.59639 0.0
H518 H 0.31493 0.3236 0.48065 0.0
H519 H 0.27283 0.29104 0.47688 0.0
C520 C 0.39451 0.35341 0.50215 0.0
C521 C 0.40046 0.3703 0.53789 0.0
C522 C 0.37328 0.33137 0.50316 0.0
C523 C 0.35737 0.3257 0.53987 0.0
C524 C 0.36464 0.34115 0.57646 0.0
C525 C 0.38606 0.36329 0.57551 0.0
C526 C 0.30243 0.26582 0.56794 0.0
C527 C 0.28287 0.26742 0.534 0.0
C528 C 0.32665 0.28478 0.57024 0.0
C529 C 0.33179 0.30553 0.53853 0.0
C530 C 0.31199 0.30734 0.50503 0.0
C531 C 0.28785 0.28861 0.50284 0.0
H532 H 0.63643 0.39495 0.58361 0.0
H533 H 0.64564 0.4109 0.45098 0.0
H534 H 0.67759 0.36117 0.58104 0.0
H535 H 0.68704 0.37757 0.44872 0.0
H536 H 0.72336 0.28295 0.45307 0.0
H537 H 0.68998 0.32428 0.45468 0.0
H538 H 0.73039 0.35503 0.56871 0.0
H539 H 0.76404 0.31357 0.56699 0.0
C540 C 0.64757 0.39172 0.5541 0.0
C541 C 0.63744 0.40526 0.5174 0.0
C542 C 0.67125 0.37245 0.55267 0.0
C543 C 0.6853 0.36643 0.51455 0.0
C544 C 0.67627 0.38133 0.47838 0.0
C545 C 0.65261 0.40053 0.47977 0.0
C546 C 0.72558 0.29883 0.47801 0.0
C547 C 0.74629 0.29491 0.50997 0.0
C548 C 0.70644 0.32256 0.47894 0.0
C549 C 0.70754 0.34292 0.51186 0.0
C550 C 0.72879 0.33949 0.54323 0.0
C551 C 0.74801 0.31575 0.54225 0.0
H552 H 0.05226 0.08008 0.12039 0.0
H553 H 0.97019 0.10242 0.17857 0.0
H554 H 0.07881 0.10426 0.17594 0.0
H555 H 0.99672 0.12531 0.23595 0.0
H556 H 0.05097 0.18732 0.31461 0.0
H557 H 0.02583 0.16669 0.25397 0.0
H558 H 0.09114 0.0985 0.24667 0.0
H559 H 0.11665 0.11987 0.30617 0.0
C560 C 0.03985 0.09008 0.14491 0.0
C561 C 0.00914 0.08959 0.14436 0.0
C562 C 0.05511 0.10377 0.17727 0.0
C563 C 0.03997 0.11688 0.21052 0.0
C564 C 0.00915 0.11603 0.21041 0.0
C565 C 0.99392 0.10267 0.17762 0.0
C566 C 0.06004 0.16813 0.29958 0.0
C567 C 0.08575 0.15521 0.31486 0.0
C568 C 0.04555 0.15614 0.26511 0.0
C569 C 0.05629 0.13076 0.24557 0.0
C570 C 0.08244 0.1183 0.26043 0.0
C571 C 0.0971 0.13052 0.29455 0.0
H572 H 0.90303 0.04885 0.11295 0.0
H573 H 0.95337 0.99007 0.18972 0.0
H574 H 0.8882 0.0762 0.17477 0.0
H575 H 0.93795 0.01681 0.25208 0.0
H576 H 0.87269 0.04955 0.35171 0.0
H577 H 0.89071 0.02441 0.28984 0.0
H578 H 0.90948 0.10788 0.23153 0.0
H579 H 0.89178 0.1332 0.29383 0.0
C580 C 0.91153 0.04234 0.1429 0.0
C581 C 0.92993 0.01797 0.14635 0.0
C582 C 0.90285 0.05776 0.17839 0.0
C583 C 0.91205 0.04872 0.21822 0.0
C584 C 0.93038 0.02417 0.22176 0.0
C585 C 0.93922 0.00891 0.18614 0.0
C586 C 0.88098 0.06258 0.32592 0.0
C587 C 0.88093 0.09339 0.32779 0.0
C588 C 0.89129 0.04816 0.2905 0.0
C589 C 0.90163 0.0642 0.25601 0.0
C590 C 0.90139 0.09499 0.25759 0.0
C591 C 0.89118 0.10946 0.29317 0.0
H592 H 0.95512 0.91763 0.11729 0.0
H593 H 0.03741 0.89965 0.17789 0.0
H594 H 0.9289 0.89506 0.17443 0.0
H595 H 0.01116 0.87827 0.23682 0.0
H596 H 0.95716 0.8176 0.31919 0.0
H597 H 0.98304 0.83735 0.25851 0.0
H598 H 0.91577 0.90307 0.24404 0.0
H599 H 0.88954 0.88245 0.30351 0.0
C600 C 0.96765 0.90903 0.14276 0.0
C601 C -0.00168 0.91036 0.14248 0.0
C602 C 0.95257 0.89624 0.17603 0.0
C603 C 0.96783 0.88487 0.21049 0.0
C604 C -0.00136 0.88636 0.21053 0.0
C605 C 0.0137 0.89884 0.17682 0.0
C606 C 0.94789 0.83609 0.30263 0.0
C607 C 0.92132 0.84841 0.31572 0.0
C608 C 0.96279 0.84758 0.26813 0.0
C609 C 0.9516 0.87191 0.24638 0.0
C610 C 0.92481 0.884 0.25944 0.0
C611 C 0.90974 0.87223 0.29355 0.0
H612 H 0.10728 0.95188 0.11215 0.0
H613 H 0.04327 0.99784 0.18577 0.0
H614 H 0.11685 0.91884 0.17059 0.0
H615 H 0.05372 0.96588 0.24527 0.0
H616 H 0.05821 0.88614 0.33022 0.0
H617 H 0.04722 0.91604 0.26897 0.0
H618 H 0.13939 0.91937 0.23829 0.0
H619 H 0.15029 0.88939 0.29933 0.0
C620 C 0.09508 0.95462 0.14078 0.0
C621 C 0.07412 0.97682 0.14425 0.0
C622 C 0.10085 0.93607 0.17451 0.0
C623 C 0.08596 0.93961 0.21262 0.0
C624 C 0.06523 0.96222 0.21617 0.0
C625 C 0.05945 0.98072 0.18233 0.0
C626 C 0.07609 0.89324 0.31031 0.0
C627 C 0.10513 0.88545 0.31964 0.0
C628 C 0.06981 0.91041 0.27527 0.0
C629 C 0.09242 0.92021 0.24879 0.0
C630 C 0.12139 0.91186 0.25766 0.0
C631 C 0.12766 0.89465 0.29265 0.0
H632 H 0.06145 0.01072 0.83634 0.0
H633 H 0.11865 0.95611 0.90994 0.0
H634 H 0.06991 0.97987 0.77563 0.0
H635 H 0.1277 0.92542 0.84887 0.0
H636 H 0.10983 0.86016 0.74102 0.0
H637 H 0.10114 0.89025 0.80295 0.0
H638 H 0.11028 0.9686 0.72793 0.0
H639 H 0.11893 0.93867 0.66629 0.0
C640 C 0.07583 0.99214 0.83952 0.0
C641 C 0.08903 0.98567 0.87803 0.0
C642 C 0.08086 0.97455 0.80468 0.0
C643 C 0.09944 0.95017 0.80751 0.0
C644 C 0.11296 0.94384 0.84591 0.0
C645 C 0.10792 0.96152 0.8808 0.0
C646 C 0.11017 0.88381 0.73789 0.0
C647 C 0.11489 0.89704 0.69874 0.0
C648 C 0.10523 0.90101 0.7733 0.0
C649 C 0.10495 0.93176 0.77023 0.0
C650 C 0.10987 0.94495 0.73115 0.0
C651 C 0.11479 0.9278 0.69583 0.0
H652 H 0.00865 0.01794 0.83433 0.0
H653 H 0.97002 0.10329 0.85217 0.0
H654 H 0.0374 0.03729 0.77585 0.0
H655 H -0.0017 0.12241 0.79366 0.0
H656 H 0.07984 0.15528 0.72643 0.0
H657 H 0.05044 0.13347 0.78215 0.0
H658 H 0.03373 0.05761 0.70482 0.0
H659 H 0.06391 0.07902 0.64957 0.0
C660 C 0.00618 0.04074 0.82557 0.0
C661 C 0.98756 0.05922 0.84826 0.0
C662 C 0.0225 0.05177 0.79203 0.0
C663 C 0.02054 0.08151 0.78081 0.0
C664 C 0.00081 0.09958 0.80228 0.0
C665 C 0.98441 0.08853 0.83555 0.0
C666 C 0.07024 0.13378 0.72159 0.0
C667 C 0.07406 0.11892 0.68362 0.0
C668 C 0.0531 0.12145 0.75324 0.0
C669 C 0.0395 0.09399 0.74761 0.0
C670 C 0.04397 0.07877 0.71007 0.0
C671 C 0.06105 0.09113 0.67837 0.0
H672 H 0.87439 0.03554 0.92202 0.0
H673 H 0.93266 0.98967 0.83853 0.0
H674 H 0.85429 0.06263 0.86256 0.0
H675 H 0.91239 0.01628 0.7795 0.0
H676 H 0.84671 0.04303 0.68096 0.0
H677 H 0.8623 0.01738 0.74391 0.0
H678 H 0.87334 0.10019 0.80736 0.0
H679 H 0.85836 0.1261 0.74392 0.0
C680 C 0.88296 0.03128 0.8911 0.0
C681 C 0.90508 0.01039 0.88492 0.0
C682 C 0.87146 0.04678 0.85717 0.0
C683 C 0.88162 0.04127 0.81654 0.0
C684 C 0.90384 0.02057 0.81047 0.0
C685 C 0.91549 0.00538 0.84429 0.0
C686 C 0.85247 0.05581 0.70829 0.0
C687 C 0.85175 0.08661 0.70726 0.0
C688 C 0.86129 0.04112 0.7443 0.0
C689 C 0.86931 0.05689 0.78017 0.0
C690 C 0.86714 0.08758 0.78006 0.0
C691 C 0.85851 0.10235 0.74382 0.0
H692 H 0.98185 0.96921 0.85136 0.0
H693 H 0.03699 0.89287 0.84066 0.0
H694 H 0.95161 0.9512 0.79383 0.0
H695 H 0.0069 0.87507 0.78297 0.0
H696 H 0.92616 0.83574 0.71874 0.0
H697 H 0.9564 0.85541 0.77525 0.0
H698 H 0.95308 0.94136 0.71853 0.0
H699 H 0.92225 0.92186 0.66271 0.0
C700 C 0.98761 0.94872 0.83655 0.0
C701 C 0.01149 0.93224 0.85095 0.0
C702 C 0.97036 0.93847 0.80357 0.0
C703 C 0.97662 0.91153 0.78442 0.0
C704 C 0.00117 0.8956 0.79779 0.0
C705 C 0.0185 0.9059 0.83062 0.0
C706 C 0.93153 0.85891 0.71875 0.0
C707 C 0.92193 0.87726 0.68633 0.0
C708 C 0.94915 0.87008 0.75074 0.0
C709 C 0.95736 0.89985 0.75103 0.0
C710 C 0.94706 0.91836 0.7192 0.0
C711 C 0.92957 0.90716 0.68715 0.0
H712 H 0.47225 0.58377 0.69648 0.0
H713 H 0.55199 0.58872 0.62456 0.0
H714 H 0.49833 0.60286 0.75729 0.0
H715 H 0.5782 0.60727 0.68513 0.0
H716 H 0.60524 0.67142 0.78985 0.0
H717 H 0.57947 0.65217 0.72878 0.0
H718 H 0.53735 0.58677 0.80625 0.0
H719 H 0.56332 0.60563 0.86708 0.0
C720 C 0.49537 0.58886 0.69357 0.0
C721 C 0.51015 0.58459 0.65552 0.0
C722 C 0.51033 0.59962 0.72848 0.0
C723 C 0.54032 0.60657 0.72595 0.0
C724 C 0.55503 0.60239 0.68794 0.0
C725 C 0.54008 0.59146 0.65322 0.0
C726 C 0.59074 0.65274 0.79375 0.0
C727 C 0.58621 0.64019 0.83338 0.0
C728 C 0.57594 0.64176 0.75882 0.0
C729 C 0.55627 0.61808 0.76284 0.0
C730 C 0.55197 0.60537 0.80234 0.0
C731 C 0.56684 0.61622 0.83716 0.0
H732 H 0.45318 0.48869 0.70306 0.0
H733 H 0.40345 0.54738 0.62511 0.0
H734 H 0.44274 0.51942 0.76382 0.0
H735 H 0.39396 0.5788 0.68505 0.0
H736 H 0.35373 0.60623 0.81045 0.0
H737 H 0.36554 0.57741 0.74876 0.0
H738 H 0.45446 0.56775 0.79286 0.0
H739 H 0.4425 0.59643 0.85492 0.0
C740 C 0.44017 0.50829 0.69893 0.0
C741 C 0.42949 0.51604 0.65932 0.0
C742 C 0.43443 0.52602 0.73355 0.0
C743 C 0.41767 0.55166 0.7292 0.0
C744 C 0.40681 0.55914 0.68953 0.0
C745 C 0.41257 0.54142 0.65505 0.0
C746 C 0.37591 0.59834 0.80666 0.0
C747 C 0.39717 0.60356 0.83754 0.0
C748 C 0.38269 0.58179 0.77134 0.0
C749 C 0.41091 0.57017 0.76602 0.0
C750 C 0.43238 0.57595 0.79645 0.0
C751 C 0.42556 0.59243 0.83188 0.0
H752 H 0.46439 0.38656 0.61345 0.0
H753 H 0.51939 0.43624 0.69717 0.0
H754 H 0.43422 0.37024 0.67238 0.0
H755 H 0.49008 0.41916 0.75661 0.0
H756 H 0.41104 0.4129 0.84293 0.0
H757 H 0.43943 0.42799 0.7821 0.0
H758 H 0.43756 0.33901 0.73602 0.0
H759 H 0.40921 0.32378 0.79729 0.0
C760 C 0.46966 0.3942 0.64452 0.0
C761 C 0.49339 0.41327 0.65095 0.0
C762 C 0.45283 0.38449 0.67826 0.0
C763 C 0.45959 0.39373 0.71899 0.0
C764 C 0.48404 0.41213 0.72544 0.0
C765 C 0.50093 0.42169 0.69164 0.0
C766 C 0.41671 0.39654 0.81984 0.0
C767 C 0.40819 0.36709 0.82507 0.0
C768 C 0.43302 0.40517 0.78511 0.0
C769 C 0.44106 0.38459 0.7547 0.0
C770 C 0.43158 0.35535 0.75898 0.0
C771 C 0.41528 0.34666 0.79391 0.0
H772 H 0.55723 0.51429 0.69927 0.0
H773 H 0.59922 0.44981 0.62162 0.0
H774 H 0.56868 0.48518 0.76118 0.0
H775 H 0.61075 0.42056 0.68321 0.0
H776 H 0.59908 0.36221 0.79931 0.0
H777 H 0.58703 0.39085 0.73711 0.0
H778 H 0.6109 0.47043 0.8022 0.0
H779 H 0.62269 0.44187 0.86427 0.0
C780 C 0.56898 0.49388 0.69546 0.0
C781 C 0.57695 0.48398 0.65555 0.0
C782 C 0.57559 0.47724 0.73089 0.0
C783 C 0.59052 0.45047 0.72712 0.0
C784 C 0.59871 0.44077 0.68714 0.0
C785 C 0.59206 0.45743 0.65179 0.0
C786 C 0.60195 0.38579 0.80015 0.0
C787 C 0.6117 0.3998 0.83672 0.0
C788 C 0.59506 0.4022 0.76456 0.0
C789 C 0.59789 0.43294 0.76478 0.0
C790 C 0.60794 0.44686 0.80125 0.0
C791 C 0.61475 0.43049 0.83679 0.0
H792 H 0.61797 0.46489 0.41855 0.0
H793 H 0.55282 0.50943 0.34419 0.0
H794 H 0.6259 0.43022 0.36199 0.0
H795 H 0.56136 0.47521 0.2871 0.0
H796 H 0.56313 0.39261 0.20826 0.0
H797 H 0.55381 0.42405 0.26846 0.0
H798 H 0.64686 0.42905 0.29269 0.0
H799 H 0.65607 0.3974 0.23292 0.0
C800 C 0.60545 0.46739 0.39004 0.0
C801 C 0.5847 0.48986 0.38591 0.0
C802 C 0.6101 0.44759 0.35754 0.0
C803 C 0.59423 0.44991 0.32007 0.0
C804 C 0.57366 0.47257 0.31579 0.0
C805 C 0.569 0.49238 0.34833 0.0
C806 C 0.58154 0.40036 0.22661 0.0
C807 C 0.61033 0.39261 0.21584 0.0
C808 C 0.57623 0.41844 0.26096 0.0
C809 C 0.59961 0.42924 0.28516 0.0
C810 C 0.62833 0.42082 0.27501 0.0
C811 C 0.63362 0.40266 0.24078 0.0
H812 H 0.54208 0.61528 0.42475 0.0
H813 H 0.47812 0.57721 0.34088 0.0
H814 H 0.56944 0.63434 0.36506 0.0
H815 H 0.50559 0.59614 0.28132 0.0
H816 H 0.54262 0.66272 0.18936 0.0
H817 H 0.51672 0.64493 0.25098 0.0
H818 H 0.59865 0.61638 0.30448 0.0
H819 H 0.62466 0.63402 0.2425 0.0
C820 C 0.53394 0.61084 0.39361 0.0
C821 C 0.50789 0.59482 0.38753 0.0
C822 C 0.54968 0.62168 0.35946 0.0
C823 C 0.53954 0.61687 0.3186 0.0
C824 C 0.51367 0.60057 0.31252 0.0
C825 C 0.49803 0.58961 0.34662 0.0
C826 C 0.55511 0.65257 0.21421 0.0
C827 C 0.58564 0.6495 0.21093 0.0
C828 C 0.54027 0.64237 0.24945 0.0
C829 C 0.55564 0.62898 0.28228 0.0
C830 C 0.58629 0.62677 0.27971 0.0
C831 C 0.60116 0.63692 0.24431 0.0
H832 H 0.41093 0.46935 0.35057 0.0
H833 H 0.38319 0.53925 0.43186 0.0
H834 H 0.39649 0.4981 0.28983 0.0
H835 H 0.36769 0.56777 0.37134 0.0
H836 H 0.38311 0.62316 0.252 0.0
H837 H 0.39166 0.59394 0.31463 0.0
H838 H 0.35501 0.51788 0.25291 0.0
H839 H 0.34681 0.54709 0.1901 0.0
C840 C 0.40182 0.49092 0.35537 0.0
C841 C 0.39919 0.5025 0.39577 0.0
C842 C 0.3931 0.50723 0.32067 0.0
C843 C 0.38123 0.53539 0.32573 0.0
C844 C 0.37735 0.54641 0.36635 0.0
C845 C 0.38616 0.53007 0.40103 0.0
C846 C 0.37652 0.6003 0.25206 0.0
C847 C 0.36447 0.58734 0.21613 0.0
C848 C 0.38135 0.58357 0.28795 0.0
C849 C 0.3741 0.55356 0.28868 0.0
C850 C 0.36129 0.54082 0.25308 0.0
C851 C 0.35658 0.55753 0.21715 0.0
H852 H 0.52331 0.39939 0.35797 0.0
H853 H 0.47738 0.48202 0.35571 0.0
H854 H 0.49297 0.38163 0.3007 0.0
H855 H 0.44734 0.46434 0.29795 0.0
H856 H 0.41454 0.43075 0.17215 0.0
H857 H 0.44607 0.4501 0.2269 0.0
H858 H 0.44288 0.36631 0.29015 0.0
H859 H 0.41256 0.34648 0.23402 0.0
C860 C 0.50679 0.41381 0.34516 0.0
C861 C 0.50238 0.44193 0.36182 0.0
C862 C 0.48925 0.40353 0.31255 0.0
C863 C 0.46712 0.42126 0.29562 0.0
C864 C 0.46383 0.44996 0.3108 0.0
C865 C 0.48108 0.46011 0.34385 0.0
C866 C 0.42065 0.41642 0.1977 0.0
C867 C 0.41131 0.38697 0.19853 0.0
C868 C 0.43852 0.4276 0.22929 0.0
C869 C 0.4473 0.40967 0.26269 0.0
C870 C 0.43703 0.38053 0.26437 0.0
C871 C 0.41925 0.36928 0.23259 0.0
loop_
_geom_bond_atom_site_label_1
_geom_bond_atom_site_label_2
_geom_bond_distance
_geom_bond_site_symmetry_2
_ccdc_geom_bond_type
Zn0 O2 1.933 1_556 S
Zn0 O20 1.985 . S
Zn0 O31 1.955 . S
Zn1 O2 1.911 . S
Zn1 O21 1.970 . S
Zn1 O37 1.945 . S
Zn1 O44 1.981 . S
O2 Zn0 1.933 1_554 S
O2 Zn1 1.911 . S
O2 H3 0.841 1_655 S
H3 O2 0.841 1_455 S
C4 O5 1.246 . S
C4 O33 1.276 1_545 S
O5 C4 1.246 . S
Zn6 O8 1.911 . S
Zn6 O23 1.970 . S
Zn6 O40 1.945 . S
Zn6 O47 1.981 . S
Zn7 O8 1.933 1_556 S
Zn7 O22 1.985 . S
Zn7 O29 1.955 . S
O8 Zn6 1.911 . S
O8 Zn7 1.933 1_554 S
O8 H9 0.841 1_455 S
H9 O8 0.841 1_655 S
Zn10 O11 1.933 1_556 S
Zn10 O24 1.985 . S
Zn10 O33 1.955 . S
O11 Zn10 1.933 1_554 S
O11 Zn12 1.911 . S
O11 H13 0.841 1_565 S
Zn12 O11 1.911 . S
Zn12 O25 1.970 . S
Zn12 O41 1.981 . S
Zn12 O43 1.945 . S
H13 O11 0.841 1_545 S
Zn14 O15 1.933 1_556 S
Zn14 O27 1.985 . S
Zn14 O35 1.955 . S
O15 Zn14 1.933 1_554 S
O15 H16 0.841 1_545 S
O15 Zn17 1.911 . S
H16 O15 0.841 1_565 S
Zn17 O15 1.911 . S
Zn17 O28 1.970 . S
Zn17 O38 1.981 . S
Zn17 O46 1.945 . S
C18 O19 1.246 . S
C18 O35 1.276 1_565 S
O19 C18 1.246 . S
O20 Zn0 1.985 . S
O20 C30 1.245 1_556 S
O21 Zn1 1.970 . S
O21 C30 1.263 . S
O22 Zn7 1.985 . S
O22 C34 1.245 1_556 S
O23 Zn6 1.970 . S
O23 C34 1.263 . S
O24 Zn10 1.985 . S
O24 C39 1.245 1_556 S
O25 Zn12 1.970 . S
O25 C39 1.263 . S
C26 O37 1.262 1_455 S
C26 O38 1.245 . S
O27 Zn14 1.985 . S
O27 C45 1.245 1_556 S
O28 Zn17 1.970 . S
O28 C45 1.263 . S
O29 Zn7 1.955 . S
O29 C48 1.276 1_455 S
C30 O20 1.245 1_554 S
C30 O21 1.263 . S
O31 Zn0 1.955 . S
O31 C50 1.276 1_655 S
C32 O40 1.262 1_655 S
C32 O41 1.245 . S
O33 C4 1.276 1_565 S
O33 Zn10 1.955 . S
C34 O22 1.245 1_554 S
C34 O23 1.263 . S
O35 Zn14 1.955 . S
O35 C18 1.276 1_545 S
C36 O43 1.262 1_545 S
C36 O44 1.245 . S
O37 Zn1 1.945 . S
O37 C26 1.262 1_655 S
O38 Zn17 1.981 . S
O38 C26 1.245 . S
C39 O24 1.245 1_554 S
C39 O25 1.263 . S
O40 Zn6 1.945 . S
O40 C32 1.262 1_455 S
O41 Zn12 1.981 . S
O41 C32 1.245 . S
C42 O46 1.262 1_565 S
C42 O47 1.245 . S
O43 Zn12 1.945 . S
O43 C36 1.262 1_565 S
O44 Zn1 1.981 . S
O44 C36 1.245 . S
C45 O27 1.245 1_554 S
C45 O28 1.263 . S
O46 Zn17 1.945 . S
O46 C42 1.262 1_545 S
O47 Zn6 1.981 . S
O47 C42 1.245 . S
C48 O29 1.276 1_655 S
C48 O49 1.246 . S
O49 C48 1.246 . S
C50 O31 1.276 1_455 S
C50 O51 1.246 . S
O51 C50 1.246 . S
Zn52 O54 1.933 . S
Zn52 O72 1.985 . S
Zn52 O83 1.955 . S
Zn53 O54 1.911 . S
Zn53 O73 1.970 . S
Zn53 O89 1.945 . S
Zn53 O96 1.981 . S
O54 Zn52 1.933 . S
O54 Zn53 1.911 . S
O54 H55 0.841 . S
H55 O54 0.841 . S
C56 O57 1.246 . S
C56 O85 1.276 . S
O57 C56 1.246 . S
Zn58 O60 1.911 . S
Zn58 O75 1.970 . S
Zn58 O92 1.945 . S
Zn58 O99 1.981 . S
Zn59 O60 1.933 . S
Zn59 O74 1.985 . S
Zn59 O81 1.955 . S
O60 Zn58 1.911 . S
O60 Zn59 1.933 . S
O60 H61 0.841 . S
H61 O60 0.841 . S
Zn62 O63 1.933 . S
Zn62 O76 1.985 . S
Zn62 O85 1.955 . S
O63 Zn62 1.933 . S
O63 Zn64 1.911 . S
O63 H65 0.841 . S
Zn64 O63 1.911 . S
Zn64 O77 1.970 . S
Zn64 O93 1.981 . S
Zn64 O95 1.945 . S
H65 O63 0.841 . S
Zn66 O67 1.933 . S
Zn66 O79 1.985 . S
Zn66 O87 1.955 . S
O67 Zn66 1.933 . S
O67 H68 0.841 . S
O67 Zn69 1.911 . S
H68 O67 0.841 . S
Zn69 O67 1.911 . S
Zn69 O80 1.970 . S
Zn69 O90 1.981 . S
Zn69 O98 1.945 . S
C70 O71 1.246 . S
C70 O87 1.276 . S
O71 C70 1.246 . S
O72 Zn52 1.985 . S
O72 C82 1.245 . S
O73 Zn53 1.970 . S
O73 C82 1.263 . S
O74 Zn59 1.985 . S
O74 C86 1.245 . S
O75 Zn58 1.970 . S
O75 C86 1.263 . S
O76 Zn62 1.985 . S
O76 C91 1.245 . S
O77 Zn64 1.970 . S
O77 C91 1.263 . S
C78 O89 1.262 . S
C78 O90 1.245 . S
O79 Zn66 1.985 . S
O79 C97 1.245 . S
O80 Zn69 1.970 . S
O80 C97 1.263 . S
O81 Zn59 1.955 . S
O81 C100 1.276 . S
C82 O72 1.245 . S
C82 O73 1.263 . S
O83 Zn52 1.955 . S
O83 C102 1.276 . S
C84 O92 1.262 . S
C84 O93 1.245 . S
O85 C56 1.276 . S
O85 Zn62 1.955 . S
C86 O74 1.245 . S
C86 O75 1.263 . S
O87 Zn66 1.955 . S
O87 C70 1.276 . S
C88 O95 1.262 . S
C88 O96 1.245 . S
O89 Zn53 1.945 . S
O89 C78 1.262 . S
O90 Zn69 1.981 . S
O90 C78 1.245 . S
C91 O76 1.245 . S
C91 O77 1.263 . S
O92 Zn58 1.945 . S
O92 C84 1.262 . S
O93 Zn64 1.981 . S
O93 C84 1.245 . S
C94 O98 1.262 . S
C94 O99 1.245 . S
O95 Zn64 1.945 . S
O95 C88 1.262 . S
O96 Zn53 1.981 . S
O96 C88 1.245 . S
C97 O79 1.245 . S
C97 O80 1.263 . S
O98 Zn69 1.945 . S
O98 C94 1.262 . S
O99 Zn58 1.981 . S
O99 C94 1.245 . S
C100 O81 1.276 . S
C100 O101 1.246 . S
O101 C100 1.246 . S
C102 O83 1.276 . S
C102 O103 1.246 . S
O103 C102 1.246 . S
C104 C105 1.384 . S
C104 H117 0.947 . S
C104 C139 1.382 . S
C105 C104 1.384 . S
C105 C106 1.378 . S
C106 C105 1.378 . S
C106 C107 1.378 . S
C106 H118 0.952 . S
C107 C106 1.378 . S
C107 H119 0.950 . S
C107 C138 1.383 . S
H108 C127 0.947 . S
H109 C128 0.946 . S
H110 C130 0.953 . S
H111 C131 0.945 . S
H112 C133 0.952 . S
H113 C134 0.949 . S
H114 C136 0.950 . S
H115 C137 0.948 . S
H116 C139 0.951 . S
H117 C104 0.947 . S
H118 C106 0.952 . S
H119 C107 0.950 . S
N120 C123 1.382 . S
N120 C125 1.363 . S
N121 C123 1.371 1_556 S
N121 C124 1.372 . S
N122 C124 1.361 1_554 S
N122 C125 1.377 . S
C123 N120 1.382 . S
C123 N121 1.371 1_554 S
C123 C126 1.480 . S
C124 N121 1.372 . S
C124 N122 1.361 1_556 S
C124 C132 1.457 . S
C125 N120 1.363 . S
C125 N122 1.377 . S
C125 C138 1.479 . S
C126 C123 1.480 . S
C126 C127 1.383 . S
C126 C131 1.385 1_554 S
C127 H108 0.947 . S
C127 C126 1.383 . S
C127 C128 1.388 . S
C128 H109 0.946 . S
C128 C127 1.388 . S
C128 C129 1.384 . S
C129 C128 1.384 . S
C129 C130 1.377 1_554 S
C130 H110 0.953 . S
C130 C129 1.377 1_556 S
C130 C131 1.369 . S
C131 H111 0.945 . S
C131 C126 1.385 1_556 S
C131 C130 1.369 . S
C132 C124 1.457 . S
C132 C133 1.372 . S
C132 C137 1.364 . S
C133 H112 0.952 . S
C133 C132 1.372 . S
C133 C134 1.389 . S
C134 H113 0.949 . S
C134 C133 1.389 . S
C134 C135 1.387 . S
C135 C134 1.387 . S
C135 C136 1.372 . S
C136 H114 0.950 . S
C136 C135 1.372 . S
C136 C137 1.379 . S
C137 H115 0.948 . S
C137 C132 1.364 . S
C137 C136 1.379 . S
C138 C107 1.383 . S
C138 C125 1.479 . S
C138 C139 1.398 . S
C139 C104 1.382 . S
C139 H116 0.951 . S
C139 C138 1.398 . S
C140 C141 1.384 . S
C140 H153 0.947 . S
C140 C175 1.382 . S
C141 C140 1.384 . S
C141 C142 1.378 . S
C142 C141 1.378 . S
C142 C143 1.378 . S
C142 H154 0.952 . S
C143 C142 1.378 . S
C143 H155 0.950 . S
C143 C174 1.383 . S
H144 C163 0.947 . S
H145 C164 0.946 . S
H146 C166 0.953 . S
H147 C167 0.945 . S
H148 C169 0.952 . S
H149 C170 0.949 . S
H150 C172 0.950 . S
H151 C173 0.948 . S
H152 C175 0.951 . S
H153 C140 0.947 . S
H154 C142 0.952 . S
H155 C143 0.950 . S
N156 C159 1.382 . S
N156 C161 1.363 . S
N157 C159 1.371 1_556 S
N157 C160 1.372 . S
N158 C160 1.361 1_554 S
N158 C161 1.377 . S
C159 N156 1.382 . S
C159 N157 1.371 1_554 S
C159 C162 1.480 . S
C160 N157 1.372 . S
C160 N158 1.361 1_556 S
C160 C168 1.457 . S
C161 N156 1.363 . S
C161 N158 1.377 . S
C161 C174 1.479 . S
C162 C159 1.480 . S
C162 C163 1.383 . S
C162 C167 1.385 1_554 S
C163 H144 0.947 . S
C163 C162 1.383 . S
C163 C164 1.388 . S
C164 H145 0.946 . S
C164 C163 1.388 . S
C164 C165 1.384 . S
C165 C164 1.384 . S
C165 C166 1.377 1_554 S
C166 H146 0.953 . S
C166 C165 1.377 1_556 S
C166 C167 1.369 . S
C167 H147 0.945 . S
C167 C162 1.385 1_556 S
C167 C166 1.369 . S
C168 C160 1.457 . S
C168 C169 1.372 . S
C168 C173 1.364 . S
C169 H148 0.952 . S
C169 C168 1.372 . S
C169 C170 1.389 . S
C170 H149 0.949 . S
C170 C169 1.389 . S
C170 C171 1.387 . S
C171 C170 1.387 . S
C171 C172 1.372 . S
C172 H150 0.950 . S
C172 C171 1.372 . S
C172 C173 1.379 . S
C173 H151 0.948 . S
C173 C168 1.364 . S
C173 C172 1.379 . S
C174 C143 1.383 . S
C174 C161 1.479 . S
C174 C175 1.398 . S
C175 C140 1.382 . S
C175 H152 0.951 . S
C175 C174 1.398 . S
C176 C177 1.384 . S
C176 H189 0.947 . S
C176 C211 1.382 . S
C177 C176 1.384 . S
C177 C178 1.378 . S
C178 C177 1.378 . S
C178 C179 1.378 . S
C178 H190 0.952 . S
C179 C178 1.378 . S
C179 H191 0.950 . S
C179 C210 1.383 . S
H180 C199 0.947 . S
H181 C200 0.946 . S
H182 C202 0.953 . S
H183 C203 0.945 . S
H184 C205 0.952 . S
H185 C206 0.949 . S
H186 C208 0.950 . S
H187 C209 0.948 . S
H188 C211 0.951 . S
H189 C176 0.947 . S
H190 C178 0.952 . S
H191 C179 0.950 . S
N192 C195 1.382 1_556 S
N192 C197 1.363 . S
N193 C195 1.371 . S
N193 C196 1.372 . S
N194 C196 1.361 . S
N194 C197 1.377 1_554 S
C195 N192 1.382 1_554 S
C195 N193 1.371 . S
C195 C198 1.480 . S
C196 N193 1.372 . S
C196 N194 1.361 . S
C196 C204 1.457 . S
C197 N192 1.363 . S
C197 N194 1.377 1_556 S
C197 C210 1.479 . S
C198 C195 1.480 . S
C198 C199 1.383 1_554 S
C198 C203 1.385 . S
C199 H180 0.947 . S
C199 C198 1.383 1_556 S
C199 C200 1.388 . S
C200 H181 0.946 . S
C200 C199 1.388 . S
C200 C201 1.384 1_556 S
C201 C200 1.384 1_554 S
C201 C202 1.377 . S
C202 H182 0.953 . S
C202 C201 1.377 . S
C202 C203 1.369 . S
C203 H183 0.945 . S
C203 C198 1.385 . S
C203 C202 1.369 . S
C204 C196 1.457 . S
C204 C205 1.372 . S
C204 C209 1.364 . S
C205 H184 0.952 . S
C205 C204 1.372 . S
C205 C206 1.389 . S
C206 H185 0.949 . S
C206 C205 1.389 . S
C206 C207 1.387 . S
C207 C206 1.387 . S
C207 C208 1.372 . S
C208 H186 0.950 . S
C208 C207 1.372 . S
C208 C209 1.379 . S
C209 H187 0.948 . S
C209 C204 1.364 . S
C209 C208 1.379 . S
C210 C179 1.383 . S
C210 C197 1.479 . S
C210 C211 1.398 . S
C211 C176 1.382 . S
C211 H188 0.951 . S
C211 C210 1.398 . S
C212 C213 1.384 . S
C212 H225 0.947 . S
C212 C247 1.382 . S
C213 C212 1.384 . S
C213 C214 1.378 . S
C214 C213 1.378 . S
C214 C215 1.378 . S
C214 H226 0.952 . S
C215 C214 1.378 . S
C215 H227 0.950 . S
C215 C246 1.383 . S
H216 C235 0.947 . S
H217 C236 0.946 . S
H218 C238 0.953 . S
H219 C239 0.945 . S
H220 C241 0.952 . S
H221 C242 0.949 . S
H222 C244 0.950 . S
H223 C245 0.948 . S
H224 C247 0.951 . S
H225 C212 0.947 . S
H226 C214 0.952 . S
H227 C215 0.950 . S
N228 C231 1.382 1_556 S
N228 C233 1.363 . S
N229 C231 1.371 . S
N229 C232 1.372 . S
N230 C232 1.361 . S
N230 C233 1.377 1_554 S
C231 N228 1.382 1_554 S
C231 N229 1.371 . S
C231 C234 1.480 . S
C232 N229 1.372 . S
C232 N230 1.361 . S
C232 C240 1.457 . S
C233 N228 1.363 . S
C233 N230 1.377 1_556 S
C233 C246 1.479 . S
C234 C231 1.480 . S
C234 C235 1.383 1_554 S
C234 C239 1.385 . S
C235 H216 0.947 . S
C235 C234 1.383 1_556 S
C235 C236 1.388 . S
C236 H217 0.946 . S
C236 C235 1.388 . S
C236 C237 1.384 1_556 S
C237 C236 1.384 1_554 S
C237 C238 1.377 . S
C238 H218 0.953 . S
C238 C237 1.377 . S
C238 C239 1.369 . S
C239 H219 0.945 . S
C239 C234 1.385 . S
C239 C238 1.369 . S
C240 C232 1.457 . S
C240 C241 1.372 . S
C240 C245 1.364 . S
C241 H220 0.952 . S
C241 C240 1.372 . S
C241 C242 1.389 . S
C242 H221 0.949 . S
C242 C241 1.389 . S
C242 C243 1.387 . S
C243 C242 1.387 . S
C243 C244 1.372 . S
C244 H222 0.950 . S
C244 C243 1.372 . S
C244 C245 1.379 . S
C245 H223 0.948 . S
C245 C240 1.364 . S
C245 C244 1.379 . S
C246 C215 1.383 . S
C246 C233 1.479 . S
C246 C247 1.398 . S
C247 C212 1.382 . S
C247 H224 0.951 . S
C247 C246 1.398 . S
C248 C249 1.384 . S
C248 H261 0.947 . S
C248 C283 1.382 . S
C249 C248 1.384 . S
C249 C250 1.378 . S
C250 C249 1.378 . S
C250 C251 1.378 . S
C250 H262 0.952 . S
C251 C250 1.378 . S
C251 H263 0.950 . S
C251 C282 1.383 . S
H252 C271 0.947 . S
H253 C272 0.946 . S
H254 C274 0.953 . S
H255 C275 0.945 . S
H256 C277 0.952 . S
H257 C278 0.949 . S
H258 C280 0.950 . S
H259 C281 0.948 . S
H260 C283 0.951 . S
H261 C248 0.947 . S
H262 C250 0.952 . S
H263 C251 0.950 . S
N264 C267 1.382 . S
N264 C269 1.363 . S
N265 C267 1.371 . S
N265 C268 1.372 . S
N266 C268 1.361 . S
N266 C269 1.377 . S
C267 N264 1.382 . S
C267 N265 1.371 . S
C267 C270 1.480 . S
C268 N265 1.372 . S
C268 N266 1.361 . S
C268 C276 1.457 . S
C269 N264 1.363 . S
C269 N266 1.377 . S
C269 C282 1.479 . S
C270 C267 1.480 . S
C270 C271 1.383 . S
C270 C275 1.385 . S
C271 H252 0.947 . S
C271 C270 1.383 . S
C271 C272 1.388 . S
C272 H253 0.946 . S
C272 C271 1.388 . S
C272 C273 1.384 . S
C273 C272 1.384 . S
C273 C274 1.377 . S
C274 H254 0.953 . S
C274 C273 1.377 . S
C274 C275 1.369 . S
C275 H255 0.945 . S
C275 C270 1.385 . S
C275 C274 1.369 . S
C276 C268 1.457 . S
C276 C277 1.372 . S
C276 C281 1.364 . S
C277 H256 0.952 . S
C277 C276 1.372 . S
C277 C278 1.389 . S
C278 H257 0.949 . S
C278 C277 1.389 . S
C278 C279 1.387 . S
C279 C278 1.387 . S
C279 C280 1.372 . S
C280 H258 0.950 . S
C280 C279 1.372 . S
C280 C281 1.379 . S
C281 H259 0.948 . S
C281 C276 1.364 . S
C281 C280 1.379 . S
C282 C251 1.383 . S
C282 C269 1.479 . S
C282 C283 1.398 . S
C283 C248 1.382 . S
C283 H260 0.951 . S
C283 C282 1.398 . S
C284 C285 1.384 . S
C284 H297 0.947 . S
C284 C319 1.382 . S
C285 C284 1.384 . S
C285 C286 1.378 . S
C286 C285 1.378 . S
C286 C287 1.378 . S
C286 H298 0.952 . S
C287 C286 1.378 . S
C287 H299 0.950 . S
C287 C318 1.383 . S
H288 C307 0.947 . S
H289 C308 0.946 . S
H290 C310 0.953 . S
H291 C311 0.945 . S
H292 C313 0.952 . S
H293 C314 0.949 . S
H294 C316 0.950 . S
H295 C317 0.948 . S
H296 C319 0.951 . S
H297 C284 0.947 . S
H298 C286 0.952 . S
H299 C287 0.950 . S
N300 C303 1.382 . S
N300 C305 1.363 . S
N301 C303 1.371 . S
N301 C304 1.372 . S
N302 C304 1.361 . S
N302 C305 1.377 . S
C303 N300 1.382 . S
C303 N301 1.371 . S
C303 C306 1.480 . S
C304 N301 1.372 . S
C304 N302 1.361 . S
C304 C312 1.457 . S
C305 N300 1.363 . S
C305 N302 1.377 . S
C305 C318 1.479 . S
C306 C303 1.480 . S
C306 C307 1.383 . S
C306 C311 1.385 . S
C307 H288 0.947 . S
C307 C306 1.383 . S
C307 C308 1.388 . S
C308 H289 0.946 . S
C308 C307 1.388 . S
C308 C309 1.384 . S
C309 C308 1.384 . S
C309 C310 1.377 . S
C310 H290 0.953 . S
C310 C309 1.377 . S
C310 C311 1.369 . S
C311 H291 0.945 . S
C311 C306 1.385 . S
C311 C310 1.369 . S
C312 C304 1.457 . S
C312 C313 1.372 . S
C312 C317 1.364 . S
C313 H292 0.952 . S
C313 C312 1.372 . S
C313 C314 1.389 . S
C314 H293 0.949 . S
C314 C313 1.389 . S
C314 C315 1.387 . S
C315 C314 1.387 . S
C315 C316 1.372 . S
C316 H294 0.950 . S
C316 C315 1.372 . S
C316 C317 1.379 . S
C317 H295 0.948 . S
C317 C312 1.364 . S
C317 C316 1.379 . S
C318 C287 1.383 . S
C318 C305 1.479 . S
C318 C319 1.398 . S
C319 C284 1.382 . S
C319 H296 0.951 . S
C319 C318 1.398 . S
C320 C321 1.384 . S
C320 H333 0.947 . S
C320 C355 1.382 . S
C321 C320 1.384 . S
C321 C322 1.378 . S
C322 C321 1.378 . S
C322 C323 1.378 . S
C322 H334 0.952 . S
C323 C322 1.378 . S
C323 H335 0.950 . S
C323 C354 1.383 . S
H324 C343 0.947 . S
H325 C344 0.946 . S
H326 C346 0.953 . S
H327 C347 0.945 . S
H328 C349 0.952 . S
H329 C350 0.949 . S
H330 C352 0.950 . S
H331 C353 0.948 . S
H332 C355 0.951 . S
H333 C320 0.947 . S
H334 C322 0.952 . S
H335 C323 0.950 . S
N336 C339 1.382 . S
N336 C341 1.363 . S
N337 C339 1.371 . S
N337 C340 1.372 . S
N338 C340 1.361 . S
N338 C341 1.377 . S
C339 N336 1.382 . S
C339 N337 1.371 . S
C339 C342 1.480 . S
C340 N337 1.372 . S
C340 N338 1.361 . S
C340 C348 1.457 . S
C341 N336 1.363 . S
C341 N338 1.377 . S
C341 C354 1.479 . S
C342 C339 1.480 . S
C342 C343 1.383 . S
C342 C347 1.385 . S
C343 H324 0.947 . S
C343 C342 1.383 . S
C343 C344 1.388 . S
C344 H325 0.946 . S
C344 C343 1.388 . S
C344 C345 1.384 . S
C345 C344 1.384 . S
C345 C346 1.377 . S
C346 H326 0.953 . S
C346 C345 1.377 . S
C346 C347 1.369 . S
C347 H327 0.945 . S
C347 C342 1.385 . S
C347 C346 1.369 . S
C348 C340 1.457 . S
C348 C349 1.372 . S
C348 C353 1.364 . S
C349 H328 0.952 . S
C349 C348 1.372 . S
C349 C350 1.389 . S
C350 H329 0.949 . S
C350 C349 1.389 . S
C350 C351 1.387 . S
C351 C350 1.387 . S
C351 C352 1.372 . S
C352 H330 0.950 . S
C352 C351 1.372 . S
C352 C353 1.379 . S
C353 H331 0.948 . S
C353 C348 1.364 . S
C353 C352 1.379 . S
C354 C323 1.383 . S
C354 C341 1.479 . S
C354 C355 1.398 . S
C355 C320 1.382 . S
C355 H332 0.951 . S
C355 C354 1.398 . S
C356 C357 1.384 . S
C356 H369 0.947 . S
C356 C391 1.382 . S
C357 C356 1.384 . S
C357 C358 1.378 . S
C358 C357 1.378 . S
C358 C359 1.378 . S
C358 H370 0.952 . S
C359 C358 1.378 . S
C359 H371 0.950 . S
C359 C390 1.383 . S
H360 C379 0.947 . S
H361 C380 0.946 . S
H362 C382 0.953 . S
H363 C383 0.945 . S
H364 C385 0.952 . S
H365 C386 0.949 . S
H366 C388 0.950 . S
H367 C389 0.948 . S
H368 C391 0.951 . S
H369 C356 0.947 . S
H370 C358 0.952 . S
H371 C359 0.950 . S
N372 C375 1.382 . S
N372 C377 1.363 . S
N373 C375 1.371 . S
N373 C376 1.372 . S
N374 C376 1.361 . S
N374 C377 1.377 . S
C375 N372 1.382 . S
C375 N373 1.371 . S
C375 C378 1.480 . S
C376 N373 1.372 . S
C376 N374 1.361 . S
C376 C384 1.457 . S
C377 N372 1.363 . S
C377 N374 1.377 . S
C377 C390 1.479 . S
C378 C375 1.480 . S
C378 C379 1.383 . S
C378 C383 1.385 . S
C379 H360 0.947 . S
C379 C378 1.383 . S
C379 C380 1.388 . S
C380 H361 0.946 . S
C380 C379 1.388 . S
C380 C381 1.384 . S
C381 C380 1.384 . S
C381 C382 1.377 . S
C382 H362 0.953 . S
C382 C381 1.377 . S
C382 C383 1.369 . S
C383 H363 0.945 . S
C383 C378 1.385 . S
C383 C382 1.369 . S
C384 C376 1.457 . S
C384 C385 1.372 . S
C384 C389 1.364 . S
C385 H364 0.952 . S
C385 C384 1.372 . S
C385 C386 1.389 . S
C386 H365 0.949 . S
C386 C385 1.389 . S
C386 C387 1.387 . S
C387 C386 1.387 . S
C387 C388 1.372 . S
C388 H366 0.950 . S
C388 C387 1.372 . S
C388 C389 1.379 . S
C389 H367 0.948 . S
C389 C384 1.364 . S
C389 C388 1.379 . S
C390 C359 1.383 . S
C390 C377 1.479 . S
C390 C391 1.398 . S
C391 C356 1.382 . S
C391 H368 0.951 . S
C391 C390 1.398 . S
H392 C400 0.950 . S
H393 C405 0.950 . S
H394 C402 0.950 . S
H395 C404 0.950 . S
H396 C406 0.950 . S
H397 C408 0.950 . S
H398 C410 0.950 . S
H399 C411 0.950 . S
C400 H392 0.950 . S
C400 C401 1.386 . S
C400 C402 1.391 . S
C401 C400 1.386 . S
C401 C405 1.393 1_554 S
C402 H394 0.950 . S
C402 C400 1.391 . S
C402 C403 1.400 . S
C403 C402 1.400 . S
C403 C404 1.398 1_554 S
C403 C409 1.491 . S
C404 H395 0.950 . S
C404 C403 1.398 1_556 S
C404 C405 1.391 . S
C405 H393 0.950 . S
C405 C401 1.393 1_556 S
C405 C404 1.391 . S
C406 H396 0.950 . S
C406 C407 1.386 1_556 S
C406 C408 1.391 . S
C407 C406 1.386 1_554 S
C407 C411 1.393 . S
C408 H397 0.950 . S
C408 C406 1.391 . S
C408 C409 1.400 1_556 S
C409 C403 1.491 . S
C409 C408 1.400 1_554 S
C409 C410 1.398 . S
C410 H398 0.950 . S
C410 C409 1.398 . S
C410 C411 1.391 . S
C411 H399 0.950 . S
C411 C407 1.393 . S
C411 C410 1.391 . S
H412 C420 0.950 . S
H413 C425 0.950 . S
H414 C422 0.950 . S
H415 C424 0.950 . S
H416 C426 0.950 . S
H417 C428 0.950 . S
H418 C430 0.950 . S
H419 C431 0.950 . S
C420 H412 0.950 . S
C420 C421 1.386 1_556 S
C420 C422 1.391 . S
C421 C420 1.386 1_554 S
C421 C425 1.393 . S
C422 H414 0.950 . S
C422 C420 1.391 . S
C422 C423 1.400 1_556 S
C423 C422 1.400 1_554 S
C423 C424 1.398 . S
C423 C429 1.491 . S
C424 H415 0.950 . S
C424 C423 1.398 . S
C424 C425 1.391 . S
C425 H413 0.950 . S
C425 C421 1.393 . S
C425 C424 1.391 . S
C426 H416 0.950 . S
C426 C427 1.386 . S
C426 C428 1.391 . S
C427 C426 1.386 . S
C427 C431 1.393 1_554 S
C428 H417 0.950 . S
C428 C426 1.391 . S
C428 C429 1.400 . S
C429 C423 1.491 . S
C429 C428 1.400 . S
C429 C430 1.398 1_554 S
C430 H418 0.950 . S
C430 C429 1.398 1_556 S
C430 C431 1.391 . S
C431 H419 0.950 . S
C431 C427 1.393 1_556 S
C431 C430 1.391 . S
H432 C440 0.950 1_556 S
H433 C445 0.950 . S
H434 C442 0.950 1_556 S
H435 C444 0.950 . S
H436 C446 0.950 . S
H437 C448 0.950 . S
H438 C450 0.951 . S
H439 C451 0.952 . S
C440 H432 0.950 1_554 S
C440 C441 1.386 . S
C440 C442 1.391 . S
C441 C440 1.386 . S
C441 C445 1.393 . S
C442 H434 0.950 1_554 S
C442 C440 1.391 . S
C442 C443 1.400 . S
C443 C442 1.400 . S
C443 C444 1.398 . S
C443 C449 1.491 . S
C444 H435 0.950 . S
C444 C443 1.398 . S
C444 C445 1.391 . S
C445 H433 0.950 . S
C445 C441 1.393 . S
C445 C444 1.391 . S
C446 H436 0.950 . S
C446 C447 1.386 . S
C446 C448 1.391 . S
C447 C446 1.386 . S
C447 C451 1.390 1_554 S
C448 H437 0.950 . S
C448 C446 1.391 . S
C448 C449 1.400 . S
C449 C443 1.491 . S
C449 C448 1.400 . S
C449 C450 1.397 1_554 S
C450 H438 0.951 . S
C450 C449 1.397 1_556 S
C450 C451 1.391 . S
C451 H439 0.952 . S
C451 C447 1.390 1_556 S
C451 C450 1.391 . S
H452 C460 0.950 . S
H453 C465 0.950 . S
H454 C462 0.950 . S
H455 C464 0.950 . S
H456 C466 0.950 . S
H457 C468 0.950 . S
H458 C470 0.950 . S
H459 C471 0.950 . S
C460 H452 0.950 . S
C460 C461 1.386 . S
C460 C462 1.391 . S
C461 C460 1.386 . S
C461 C465 1.393 1_554 S
C462 H454 0.950 . S
C462 C460 1.391 . S
C462 C463 1.400 . S
C463 C462 1.400 . S
C463 C464 1.398 1_554 S
C463 C469 1.491 . S
C464 H455 0.950 . S
C464 C463 1.398 1_556 S
C464 C465 1.391 . S
C465 H453 0.950 . S
C465 C461 1.393 1_556 S
C465 C464 1.391 . S
C466 H456 0.950 . S
C466 C467 1.386 1_556 S
C466 C468 1.391 . S
C467 C466 1.386 1_554 S
C467 C471 1.393 . S
C468 H457 0.950 . S
C468 C466 1.391 . S
C468 C469 1.400 1_556 S
C469 C463 1.491 . S
C469 C468 1.400 1_554 S
C469 C470 1.398 . S
C470 H458 0.950 . S
C470 C469 1.398 . S
C470 C471 1.391 . S
C471 H459 0.950 . S
C471 C467 1.393 . S
C471 C470 1.391 . S
H472 C480 0.950 . S
H473 C485 0.950 . S
H474 C482 0.950 . S
H475 C484 0.950 . S
H476 C486 0.950 . S
H477 C488 0.950 . S
H478 C490 0.950 . S
H479 C491 0.950 . S
C480 H472 0.950 . S
C480 C481 1.386 . S
C480 C482 1.391 . S
C481 C480 1.386 . S
C481 C485 1.393 . S
C482 H474 0.950 . S
C482 C480 1.391 . S
C482 C483 1.400 . S
C483 C482 1.400 . S
C483 C484 1.398 . S
C483 C489 1.491 . S
C484 H475 0.950 . S
C484 C483 1.398 . S
C484 C485 1.391 . S
C485 H473 0.950 . S
C485 C481 1.393 . S
C485 C484 1.391 . S
C486 H476 0.950 . S
C486 C487 1.386 . S
C486 C488 1.391 . S
C487 C486 1.386 . S
C487 C491 1.393 . S
C488 H477 0.950 . S
C488 C486 1.391 . S
C488 C489 1.400 . S
C489 C483 1.491 . S
C489 C488 1.400 . S
C489 C490 1.398 . S
C490 H478 0.950 . S
C490 C489 1.398 . S
C490 C491 1.391 . S
C491 H479 0.950 . S
C491 C487 1.393 . S
C491 C490 1.391 . S
H492 C500 0.950 . S
H493 C505 0.950 . S
H494 C502 0.950 . S
H495 C504 0.950 . S
H496 C506 0.950 . S
H497 C508 0.950 . S
H498 C510 0.950 . S
H499 C511 0.950 . S
C500 H492 0.950 . S
C500 C501 1.386 . S
C500 C502 1.391 . S
C501 C500 1.386 . S
C501 C505 1.393 . S
C502 H494 0.950 . S
C502 C500 1.391 . S
C502 C503 1.400 . S
C503 C502 1.400 . S
C503 C504 1.398 . S
C503 C509 1.491 . S
C504 H495 0.950 . S
C504 C503 1.398 . S
C504 C505 1.391 . S
C505 H493 0.950 . S
C505 C501 1.393 . S
C505 C504 1.391 . S
C506 H496 0.950 . S
C506 C507 1.386 . S
C506 C508 1.391 . S
C507 C506 1.386 . S
C507 C511 1.393 . S
C508 H497 0.950 . S
C508 C506 1.391 . S
C508 C509 1.400 . S
C509 C503 1.491 . S
C509 C508 1.400 . S
C509 C510 1.398 . S
C510 H498 0.950 . S
C510 C509 1.398 . S
C510 C511 1.391 . S
C511 H499 0.950 . S
C511 C507 1.393 . S
C511 C510 1.391 . S
H512 C520 0.950 . S
H513 C525 0.950 . S
H514 C522 0.950 . S
H515 C524 0.950 . S
H516 C526 0.950 . S
H517 C528 0.950 . S
H518 C530 0.950 . S
H519 C531 0.950 . S
C520 H512 0.950 . S
C520 C521 1.386 . S
C520 C522 1.391 . S
C521 C520 1.386 . S
C521 C525 1.393 . S
C522 H514 0.950 . S
C522 C520 1.391 . S
C522 C523 1.400 . S
C523 C522 1.400 . S
C523 C524 1.398 . S
C523 C529 1.491 . S
C524 H515 0.950 . S
C524 C523 1.398 . S
C524 C525 1.391 . S
C525 H513 0.950 . S
C525 C521 1.393 . S
C525 C524 1.391 . S
C526 H516 0.950 . S
C526 C527 1.386 . S
C526 C528 1.391 . S
C527 C526 1.386 . S
C527 C531 1.393 . S
C528 H517 0.950 . S
C528 C526 1.391 . S
C528 C529 1.400 . S
C529 C523 1.491 . S
C529 C528 1.400 . S
C529 C530 1.398 . S
C530 H518 0.950 . S
C530 C529 1.398 . S
C530 C531 1.391 . S
C531 H519 0.950 . S
C531 C527 1.393 . S
C531 C530 1.391 . S
H532 C540 0.950 . S
H533 C545 0.950 . S
H534 C542 0.950 . S
H535 C544 0.950 . S
H536 C546 0.950 . S
H537 C548 0.950 . S
H538 C550 0.950 . S
H539 C551 0.950 . S
C540 H532 0.950 . S
C540 C541 1.386 . S
C540 C542 1.391 . S
C541 C540 1.386 . S
C541 C545 1.393 . S
C542 H534 0.950 . S
C542 C540 1.391 . S
C542 C543 1.400 . S
C543 C542 1.400 . S
C543 C544 1.398 . S
C543 C549 1.491 . S
C544 H535 0.950 . S
C544 C543 1.398 . S
C544 C545 1.391 . S
C545 H533 0.950 . S
C545 C541 1.393 . S
C545 C544 1.391 . S
C546 H536 0.950 . S
C546 C547 1.386 . S
C546 C548 1.391 . S
C547 C546 1.386 . S
C547 C551 1.393 . S
C548 H537 0.950 . S
C548 C546 1.391 . S
C548 C549 1.400 . S
C549 C543 1.491 . S
C549 C548 1.400 . S
C549 C550 1.398 . S
C550 H538 0.950 . S
C550 C549 1.398 . S
C550 C551 1.391 . S
C551 H539 0.950 . S
C551 C547 1.393 . S
C551 C550 1.391 . S
H552 C560 0.950 . S
H553 C565 0.950 1_655 S
H554 C562 0.950 . S
H555 C564 0.950 1_655 S
H556 C566 0.950 . S
H557 C568 0.950 . S
H558 C570 0.950 . S
H559 C571 0.950 . S
C560 H552 0.950 . S
C560 C561 1.386 . S
C560 C562 1.391 . S
C561 C560 1.386 . S
C561 C565 1.393 . S
C562 H554 0.950 . S
C562 C560 1.391 . S
C562 C563 1.400 . S
C563 C562 1.400 . S
C563 C564 1.398 . S
C563 C569 1.491 . S
C564 H555 0.950 1_455 S
C564 C563 1.398 . S
C564 C565 1.391 . S
C565 H553 0.950 1_455 S
C565 C561 1.393 . S
C565 C564 1.391 . S
C566 H556 0.950 . S
C566 C567 1.386 . S
C566 C568 1.391 . S
C567 C566 1.386 . S
C567 C571 1.393 . S
C568 H557 0.950 . S
C568 C566 1.391 . S
C568 C569 1.400 . S
C569 C563 1.491 . S
C569 C568 1.400 . S
C569 C570 1.398 . S
C570 H558 0.950 . S
C570 C569 1.398 . S
C570 C571 1.391 . S
C571 H559 0.950 . S
C571 C567 1.393 . S
C571 C570 1.391 . S
H572 C580 0.950 . S
H573 C585 0.950 1_565 S
H574 C582 0.950 . S
H575 C584 0.950 1_565 S
H576 C586 0.950 . S
H577 C588 0.950 . S
H578 C590 0.950 . S
H579 C591 0.950 . S
C580 H572 0.950 . S
C580 C581 1.386 . S
C580 C582 1.391 . S
C581 C580 1.386 . S
C581 C585 1.393 . S
C582 H574 0.950 . S
C582 C580 1.391 . S
C582 C583 1.400 . S
C583 C582 1.400 . S
C583 C584 1.398 . S
C583 C589 1.491 . S
C584 H575 0.950 1_545 S
C584 C583 1.398 . S
C584 C585 1.391 . S
C585 H573 0.950 1_545 S
C585 C581 1.393 . S
C585 C584 1.391 . S
C586 H576 0.950 . S
C586 C587 1.386 . S
C586 C588 1.391 . S
C587 C586 1.386 . S
C587 C591 1.393 . S
C588 H577 0.950 . S
C588 C586 1.391 . S
C588 C589 1.400 . S
C589 C583 1.491 . S
C589 C588 1.400 . S
C589 C590 1.398 . S
C590 H578 0.950 . S
C590 C589 1.398 . S
C590 C591 1.391 . S
C591 H579 0.950 . S
C591 C587 1.393 . S
C591 C590 1.391 . S
H592 C600 0.950 . S
H593 C605 0.950 1_455 S
H594 C602 0.950 . S
H595 C604 0.950 1_455 S
H596 C606 0.950 . S
H597 C608 0.950 . S
H598 C610 0.950 . S
H599 C611 0.950 . S
C600 H592 0.950 . S
C600 C601 1.386 . S
C600 C602 1.391 . S
C601 C600 1.386 . S
C601 C605 1.393 . S
C602 H594 0.950 . S
C602 C600 1.391 . S
C602 C603 1.400 . S
C603 C602 1.400 . S
C603 C604 1.398 . S
C603 C609 1.491 . S
C604 H595 0.950 1_655 S
C604 C603 1.398 . S
C604 C605 1.391 . S
C605 H593 0.950 1_655 S
C605 C601 1.393 . S
C605 C604 1.391 . S
C606 H596 0.950 . S
C606 C607 1.386 . S
C606 C608 1.391 . S
C607 C606 1.386 . S
C607 C611 1.393 . S
C608 H597 0.950 . S
C608 C606 1.391 . S
C608 C609 1.400 . S
C609 C603 1.491 . S
C609 C608 1.400 . S
C609 C610 1.398 . S
C610 H598 0.950 . S
C610 C609 1.398 . S
C610 C611 1.391 . S
C611 H599 0.950 . S
C611 C607 1.393 . S
C611 C610 1.391 . S
H612 C620 0.950 . S
H613 C625 0.950 . S
H614 C622 0.950 . S
H615 C624 0.950 . S
H616 C626 0.950 . S
H617 C628 0.950 . S
H618 C630 0.950 . S
H619 C631 0.950 . S
C620 H612 0.950 . S
C620 C621 1.386 . S
C620 C622 1.391 . S
C621 C620 1.386 . S
C621 C625 1.393 . S
C622 H614 0.950 . S
C622 C620 1.391 . S
C622 C623 1.400 . S
C623 C622 1.400 . S
C623 C624 1.398 . S
C623 C629 1.491 . S
C624 H615 0.950 . S
C624 C623 1.398 . S
C624 C625 1.391 . S
C625 H613 0.950 . S
C625 C621 1.393 . S
C625 C624 1.391 . S
C626 H616 0.950 . S
C626 C627 1.386 . S
C626 C628 1.391 . S
C627 C626 1.386 . S
C627 C631 1.393 . S
C628 H617 0.950 . S
C628 C626 1.391 . S
C628 C629 1.400 . S
C629 C623 1.491 . S
C629 C628 1.400 . S
C629 C630 1.398 . S
C630 H618 0.950 . S
C630 C629 1.398 . S
C630 C631 1.391 . S
C631 H619 0.950 . S
C631 C627 1.393 . S
C631 C630 1.391 . S
H632 C640 0.950 1_545 S
H633 C645 0.950 . S
H634 C642 0.950 . S
H635 C644 0.950 . S
H636 C646 0.950 . S
H637 C648 0.950 . S
H638 C650 0.950 . S
H639 C651 0.950 . S
C640 H632 0.950 1_565 S
C640 C641 1.386 . S
C640 C642 1.391 . S
C641 C640 1.386 . S
C641 C645 1.393 . S
C642 H634 0.950 . S
C642 C640 1.391 . S
C642 C643 1.400 . S
C643 C642 1.400 . S
C643 C644 1.398 . S
C643 C649 1.491 . S
C644 H635 0.950 . S
C644 C643 1.398 . S
C644 C645 1.391 . S
C645 H633 0.950 . S
C645 C641 1.393 . S
C645 C644 1.391 . S
C646 H636 0.950 . S
C646 C647 1.386 . S
C646 C648 1.391 . S
C647 C646 1.386 . S
C647 C651 1.393 . S
C648 H637 0.950 . S
C648 C646 1.391 . S
C648 C649 1.400 . S
C649 C643 1.491 . S
C649 C648 1.400 . S
C649 C650 1.398 . S
C650 H638 0.950 . S
C650 C649 1.398 . S
C650 C651 1.391 . S
C651 H639 0.950 . S
C651 C647 1.393 . S
C651 C650 1.391 . S
H652 C660 0.950 . S
H653 C665 0.950 1_655 S
H654 C662 0.950 . S
H655 C664 0.950 . S
H656 C666 0.950 . S
H657 C668 0.950 . S
H658 C670 0.950 . S
H659 C671 0.950 . S
C660 H652 0.950 . S
C660 C661 1.386 . S
C660 C662 1.391 . S
C661 C660 1.386 . S
C661 C665 1.393 . S
C662 H654 0.950 . S
C662 C660 1.391 . S
C662 C663 1.400 . S
C663 C662 1.400 . S
C663 C664 1.398 . S
C663 C669 1.491 . S
C664 H655 0.950 . S
C664 C663 1.398 . S
C664 C665 1.391 . S
C665 H653 0.950 1_455 S
C665 C661 1.393 . S
C665 C664 1.391 . S
C666 H656 0.950 . S
C666 C667 1.386 . S
C666 C668 1.391 . S
C667 C666 1.386 . S
C667 C671 1.393 . S
C668 H657 0.950 . S
C668 C666 1.391 . S
C668 C669 1.400 . S
C669 C663 1.491 . S
C669 C668 1.400 . S
C669 C670 1.398 . S
C670 H658 0.950 . S
C670 C669 1.398 . S
C670 C671 1.391 . S
C671 H659 0.950 . S
C671 C667 1.393 . S
C671 C670 1.391 . S
H672 C680 0.950 . S
H673 C685 0.950 . S
H674 C682 0.950 . S
H675 C684 0.950 . S
H676 C686 0.950 . S
H677 C688 0.950 . S
H678 C690 0.950 . S
H679 C691 0.950 . S
C680 H672 0.950 . S
C680 C681 1.386 . S
C680 C682 1.391 . S
C681 C680 1.386 . S
C681 C685 1.393 . S
C682 H674 0.950 . S
C682 C680 1.391 . S
C682 C683 1.400 . S
C683 C682 1.400 . S
C683 C684 1.398 . S
C683 C689 1.491 . S
C684 H675 0.950 . S
C684 C683 1.398 . S
C684 C685 1.391 . S
C685 H673 0.950 . S
C685 C681 1.393 . S
C685 C684 1.391 . S
C686 H676 0.950 . S
C686 C687 1.386 . S
C686 C688 1.391 . S
C687 C686 1.386 . S
C687 C691 1.393 . S
C688 H677 0.950 . S
C688 C686 1.391 . S
C688 C689 1.400 . S
C689 C683 1.491 . S
C689 C688 1.400 . S
C689 C690 1.398 . S
C690 H678 0.950 . S
C690 C689 1.398 . S
C690 C691 1.391 . S
C691 H679 0.950 . S
C691 C687 1.393 . S
C691 C690 1.391 . S
H692 C700 0.950 . S
H693 C705 0.950 1_455 S
H694 C702 0.950 . S
H695 C704 0.950 . S
H696 C706 0.950 . S
H697 C708 0.950 . S
H698 C710 0.950 . S
H699 C711 0.950 . S
C700 H692 0.950 . S
C700 C701 1.386 . S
C700 C702 1.391 . S
C701 C700 1.386 . S
C701 C705 1.393 . S
C702 H694 0.950 . S
C702 C700 1.391 . S
C702 C703 1.400 . S
C703 C702 1.400 . S
C703 C704 1.398 . S
C703 C709 1.491 . S
C704 H695 0.950 . S
C704 C703 1.398 . S
C704 C705 1.391 . S
C705 H693 0.950 1_655 S
C705 C701 1.393 . S
C705 C704 1.391 . S
C706 H696 0.950 . S
C706 C707 1.386 . S
C706 C708 1.391 . S
C707 C706 1.386 . S
C707 C711 1.393 . S
C708 H697 0.950 . S
C708 C706 1.391 . S
C708 C709 1.400 . S
C709 C703 1.491 . S
C709 C708 1.400 . S
C709 C710 1.398 . S
C710 H698 0.950 . S
C710 C709 1.398 . S
C710 C711 1.391 . S
C711 H699 0.950 . S
C711 C707 1.393 . S
C711 C710 1.391 . S
H712 C720 0.950 . S
H713 C725 0.950 . S
H714 C722 0.950 . S
H715 C724 0.950 . S
H716 C726 0.950 . S
H717 C728 0.950 . S
H718 C730 0.950 . S
H719 C731 0.950 . S
C720 H712 0.950 . S
C720 C721 1.386 . S
C720 C722 1.391 . S
C721 C720 1.386 . S
C721 C725 1.393 . S
C722 H714 0.950 . S
C722 C720 1.391 . S
C722 C723 1.400 . S
C723 C722 1.400 . S
C723 C724 1.398 . S
C723 C729 1.491 . S
C724 H715 0.950 . S
C724 C723 1.398 . S
C724 C725 1.391 . S
C725 H713 0.950 . S
C725 C721 1.393 . S
C725 C724 1.391 . S
C726 H716 0.950 . S
C726 C727 1.386 . S
C726 C728 1.391 . S
C727 C726 1.386 . S
C727 C731 1.393 . S
C728 H717 0.950 . S
C728 C726 1.391 . S
C728 C729 1.400 . S
C729 C723 1.491 . S
C729 C728 1.400 . S
C729 C730 1.398 . S
C730 H718 0.950 . S
C730 C729 1.398 . S
C730 C731 1.391 . S
C731 H719 0.950 . S
C731 C727 1.393 . S
C731 C730 1.391 . S
H732 C740 0.950 . S
H733 C745 0.950 . S
H734 C742 0.950 . S
H735 C744 0.950 . S
H736 C746 0.950 . S
H737 C748 0.950 . S
H738 C750 0.950 . S
H739 C751 0.950 . S
C740 H732 0.950 . S
C740 C741 1.386 . S
C740 C742 1.391 . S
C741 C740 1.386 . S
C741 C745 1.393 . S
C742 H734 0.950 . S
C742 C740 1.391 . S
C742 C743 1.400 . S
C743 C742 1.400 . S
C743 C744 1.398 . S
C743 C749 1.491 . S
C744 H735 0.950 . S
C744 C743 1.398 . S
C744 C745 1.391 . S
C745 H733 0.950 . S
C745 C741 1.393 . S
C745 C744 1.391 . S
C746 H736 0.950 . S
C746 C747 1.386 . S
C746 C748 1.391 . S
C747 C746 1.386 . S
C747 C751 1.393 . S
C748 H737 0.950 . S
C748 C746 1.391 . S
C748 C749 1.400 . S
C749 C743 1.491 . S
C749 C748 1.400 . S
C749 C750 1.398 . S
C750 H738 0.950 . S
C750 C749 1.398 . S
C750 C751 1.391 . S
C751 H739 0.950 . S
C751 C747 1.393 . S
C751 C750 1.391 . S
H752 C760 0.950 . S
H753 C765 0.950 . S
H754 C762 0.950 . S
H755 C764 0.950 . S
H756 C766 0.950 . S
H757 C768 0.950 . S
H758 C770 0.950 . S
H759 C771 0.950 . S
C760 H752 0.950 . S
C760 C761 1.386 . S
C760 C762 1.391 . S
C761 C760 1.386 . S
C761 C765 1.393 . S
C762 H754 0.950 . S
C762 C760 1.391 . S
C762 C763 1.400 . S
C763 C762 1.400 . S
C763 C764 1.398 . S
C763 C769 1.491 . S
C764 H755 0.950 . S
C764 C763 1.398 . S
C764 C765 1.391 . S
C765 H753 0.950 . S
C765 C761 1.393 . S
C765 C764 1.391 . S
C766 H756 0.950 . S
C766 C767 1.386 . S
C766 C768 1.391 . S
C767 C766 1.386 . S
C767 C771 1.393 . S
C768 H757 0.950 . S
C768 C766 1.391 . S
C768 C769 1.400 . S
C769 C763 1.491 . S
C769 C768 1.400 . S
C769 C770 1.398 . S
C770 H758 0.950 . S
C770 C769 1.398 . S
C770 C771 1.391 . S
C771 H759 0.950 . S
C771 C767 1.393 . S
C771 C770 1.391 . S
H772 C780 0.950 . S
H773 C785 0.950 . S
H774 C782 0.950 . S
H775 C784 0.950 . S
H776 C786 0.950 . S
H777 C788 0.950 . S
H778 C790 0.950 . S
H779 C791 0.950 . S
C780 H772 0.950 . S
C780 C781 1.386 . S
C780 C782 1.391 . S
C781 C780 1.386 . S
C781 C785 1.393 . S
C782 H774 0.950 . S
C782 C780 1.391 . S
C782 C783 1.400 . S
C783 C782 1.400 . S
C783 C784 1.398 . S
C783 C789 1.491 . S
C784 H775 0.950 . S
C784 C783 1.398 . S
C784 C785 1.391 . S
C785 H773 0.950 . S
C785 C781 1.393 . S
C785 C784 1.391 . S
C786 H776 0.950 . S
C786 C787 1.386 . S
C786 C788 1.391 . S
C787 C786 1.386 . S
C787 C791 1.393 . S
C788 H777 0.950 . S
C788 C786 1.391 . S
C788 C789 1.400 . S
C789 C783 1.491 . S
C789 C788 1.400 . S
C789 C790 1.398 . S
C790 H778 0.950 . S
C790 C789 1.398 . S
C790 C791 1.391 . S
C791 H779 0.950 . S
C791 C787 1.393 . S
C791 C790 1.391 . S
H792 C800 0.950 . S
H793 C805 0.950 . S
H794 C802 0.950 . S
H795 C804 0.950 . S
H796 C806 0.950 . S
H797 C808 0.950 . S
H798 C810 0.950 . S
H799 C811 0.950 . S
C800 H792 0.950 . S
C800 C801 1.386 . S
C800 C802 1.391 . S
C801 C800 1.386 . S
C801 C805 1.393 . S
C802 H794 0.950 . S
C802 C800 1.391 . S
C802 C803 1.400 . S
C803 C802 1.400 . S
C803 C804 1.398 . S
C803 C809 1.491 . S
C804 H795 0.950 . S
C804 C803 1.398 . S
C804 C805 1.391 . S
C805 H793 0.950 . S
C805 C801 1.393 . S
C805 C804 1.391 . S
C806 H796 0.950 . S
C806 C807 1.386 . S
C806 C808 1.391 . S
C807 C806 1.386 . S
C807 C811 1.393 . S
C808 H797 0.950 . S
C808 C806 1.391 . S
C808 C809 1.400 . S
C809 C803 1.491 . S
C809 C808 1.400 . S
C809 C810 1.398 . S
C810 H798 0.950 . S
C810 C809 1.398 . S
C810 C811 1.391 . S
C811 H799 0.950 . S
C811 C807 1.393 . S
C811 C810 1.391 . S
H812 C820 0.950 . S
H813 C825 0.950 . S
H814 C822 0.950 . S
H815 C824 0.950 . S
H816 C826 0.950 . S
H817 C828 0.950 . S
H818 C830 0.950 . S
H819 C831 0.950 . S
C820 H812 0.950 . S
C820 C821 1.386 . S
C820 C822 1.391 . S
C821 C820 1.386 . S
C821 C825 1.393 . S
C822 H814 0.950 . S
C822 C820 1.391 . S
C822 C823 1.400 . S
C823 C822 1.400 . S
C823 C824 1.398 . S
C823 C829 1.491 . S
C824 H815 0.950 . S
C824 C823 1.398 . S
C824 C825 1.391 . S
C825 H813 0.950 . S
C825 C821 1.393 . S
C825 C824 1.391 . S
C826 H816 0.950 . S
C826 C827 1.386 . S
C826 C828 1.391 . S
C827 C826 1.386 . S
C827 C831 1.393 . S
C828 H817 0.950 . S
C828 C826 1.391 . S
C828 C829 1.400 . S
C829 C823 1.491 . S
C829 C828 1.400 . S
C829 C830 1.398 . S
C830 H818 0.950 . S
C830 C829 1.398 . S
C830 C831 1.391 . S
C831 H819 0.950 . S
C831 C827 1.393 . S
C831 C830 1.391 . S
H832 C840 0.950 . S
H833 C845 0.950 . S
H834 C842 0.950 . S
H835 C844 0.950 . S
H836 C846 0.950 . S
H837 C848 0.950 . S
H838 C850 0.950 . S
H839 C851 0.950 . S
C840 H832 0.950 . S
C840 C841 1.386 . S
C840 C842 1.391 . S
C841 C840 1.386 . S
C841 C845 1.393 . S
C842 H834 0.950 . S
C842 C840 1.391 . S
C842 C843 1.400 . S
C843 C842 1.400 . S
C843 C844 1.398 . S
C843 C849 1.491 . S
C844 H835 0.950 . S
C844 C843 1.398 . S
C844 C845 1.391 . S
C845 H833 0.950 . S
C845 C841 1.393 . S
C845 C844 1.391 . S
C846 H836 0.950 . S
C846 C847 1.386 . S
C846 C848 1.391 . S
C847 C846 1.386 . S
C847 C851 1.393 . S
C848 H837 0.950 . S
C848 C846 1.391 . S
C848 C849 1.400 . S
C849 C843 1.491 . S
C849 C848 1.400 . S
C849 C850 1.398 . S
C850 H838 0.950 . S
C850 C849 1.398 . S
C850 C851 1.391 . S
C851 H839 0.950 . S
C851 C847 1.393 . S
C851 C850 1.391 . S
H852 C860 0.950 . S
H853 C865 0.950 . S
H854 C862 0.950 . S
H855 C864 0.950 . S
H856 C866 0.950 . S
H857 C868 0.950 . S
H858 C870 0.950 . S
H859 C871 0.950 . S
C860 H852 0.950 . S
C860 C861 1.386 . S
C860 C862 1.391 . S
C861 C860 1.386 . S
C861 C865 1.393 . S
C862 H854 0.950 . S
C862 C860 1.391 . S
C862 C863 1.400 . S
C863 C862 1.400 . S
C863 C864 1.398 . S
C863 C869 1.491 . S
C864 H855 0.950 . S
C864 C863 1.398 . S
C864 C865 1.391 . S
C865 H853 0.950 . S
C865 C861 1.393 . S
C865 C864 1.391 . S
C866 H856 0.950 . S
C866 C867 1.386 . S
C866 C868 1.391 . S
C867 C866 1.386 . S
C867 C871 1.393 . S
C868 H857 0.950 . S
C868 C866 1.391 . S
C868 C869 1.400 . S
C869 C863 1.491 . S
C869 C868 1.400 . S
C869 C870 1.398 . S
C870 H858 0.950 . S
C870 C869 1.398 . S
C870 C871 1.391 . S
C871 H859 0.950 . S
C871 C867 1.393 . S
C871 C870 1.391 . S
C401 C45 1.621 . S
C407 C129 1.651 . S
C421 C30 1.636 . S
C427 C165 1.661 . S
C441 C39 1.632 . S
C447 C201 1.621 . S
C467 C237 1.606 . S
C461 C34 1.622 . S
C481 C97 1.636 . S
C487 C273 1.661 . S
C507 C309 1.651 . S
C501 C82 1.619 . S
C527 C345 1.618 . S
C521 C91 1.632 . S
C547 C381 1.604 . S
C541 C86 1.618 . S
C567 C321 1.516 . S
C561 C26 1.474 . S
C587 C357 1.517 . S
C581 C36 1.476 . S
C607 C279 1.548 . S
C601 C32 1.479 . S
C627 C315 1.556 . S
C621 C42 1.488 . S
C641 C18 1.551 . S
C647 C285 1.645 . S
C667 C351 1.612 . S
C661 C50 1.572 . S
C681 C4 1.584 . S
C687 C387 1.621 . S
C701 C48 1.571 . S
C707 C249 1.654 . S
C727 C177 1.532 . S
C721 C78 1.494 . S
C741 C88 1.489 . S
C747 C213 1.527 . S
C767 C135 1.552 . S
C761 C84 1.481 . S
C787 C171 1.562 . S
C781 C94 1.507 . S
C807 C141 1.656 . S
C801 C70 1.578 . S
C827 C207 1.617 . S
C821 C102 1.579 . S
C841 C56 1.554 . S
C847 C243 1.597 . S
C861 C100 1.565 . S
C867 C105 1.652 . S
