# Generated by pormake.
# Topology eea, (3,6)-cn, num edge types: 1
# Building blocks:
#     Node 0, Type 0, BuildingBlock: PAMTOO_clean_linker_0, # of connection points: 3
#     Node 1, Type 0, BuildingBlock: PAMTOO_clean_linker_0, # of connection points: 3
#     Node 2, Type 0, BuildingBlock: PAMTOO_clean_linker_0, # of connection points: 3
#     Node 3, Type 0, BuildingBlock: PAMTOO_clean_linker_0, # of connection points: 3
#     Node 4, Type 0, BuildingBlock: PAMTOO_clean_linker_0, # of connection points: 3
#     Node 5, Type 0, BuildingBlock: PAMTOO_clean_linker_0, # of connection points: 3
#     Node 6, Type 0, BuildingBlock: PAMTOO_clean_linker_0, # of connection points: 3
#     Node 7, Type 0, BuildingBlock: PAMTOO_clean_linker_0, # of connection points: 3
#     Node 8, Type 0, BuildingBlock: PAMTOO_clean_linker_0, # of connection points: 3
#     Node 9, Type 0, BuildingBlock: PAMTOO_clean_linker_0, # of connection points: 3
#     Node 10, Type 0, BuildingBlock: PAMTOO_clean_linker_0, # of connection points: 3
#     Node 11, Type 0, BuildingBlock: PAMTOO_clean_linker_0, # of connection points: 3
#     Node 12, Type 0, BuildingBlock: PAMTOO_clean_linker_0, # of connection points: 3
#     Node 13, Type 0, BuildingBlock: PAMTOO_clean_linker_0, # of connection points: 3
#     Node 14, Type 0, BuildingBlock: PAMTOO_clean_linker_0, # of connection points: 3
#     Node 15, Type 0, BuildingBlock: PAMTOO_clean_linker_0, # of connection points: 3
#     Node 16, Type 0, BuildingBlock: PAMTOO_clean_linker_0, # of connection points: 3
#     Node 17, Type 0, BuildingBlock: PAMTOO_clean_linker_0, # of connection points: 3
#     Node 18, Type 1, BuildingBlock: HISSIN_clean_sbu_0, # of connection points: 6
#     Node 19, Type 1, BuildingBlock: HISSIN_clean_sbu_0, # of connection points: 6
#     Node 20, Type 1, BuildingBlock: HISSIN_clean_sbu_0, # of connection points: 6
#     Node 21, Type 1, BuildingBlock: HISSIN_clean_sbu_0, # of connection points: 6
#     Node 22, Type 1, BuildingBlock: HISSIN_clean_sbu_0, # of connection points: 6
#     Node 23, Type 1, BuildingBlock: HISSIN_clean_sbu_0, # of connection points: 6
#     Node 24, Type 1, BuildingBlock: HISSIN_clean_sbu_0, # of connection points: 6
#     Node 25, Type 1, BuildingBlock: HISSIN_clean_sbu_0, # of connection points: 6
#     Node 26, Type 1, BuildingBlock: HISSIN_clean_sbu_0, # of connection points: 6
#     Edge 27, Type (0, 1), BuildingBlock: OJICUG_clean_linker_0, # of connection points: 2
#     Edge 28, Type (0, 1), BuildingBlock: OJICUG_clean_linker_0, # of connection points: 2
#     Edge 29, Type (0, 1), BuildingBlock: OJICUG_clean_linker_0, # of connection points: 2
#     Edge 30, Type (0, 1), BuildingBlock: OJICUG_clean_linker_0, # of connection points: 2
#     Edge 31, Type (0, 1), BuildingBlock: OJICUG_clean_linker_0, # of connection points: 2
#     Edge 32, Type (0, 1), BuildingBlock: OJICUG_clean_linker_0, # of connection points: 2
#     Edge 33, Type (0, 1), BuildingBlock: OJICUG_clean_linker_0, # of connection points: 2
#     Edge 34, Type (0, 1), BuildingBlock: OJICUG_clean_linker_0, # of connection points: 2
#     Edge 35, Type (0, 1), BuildingBlock: OJICUG_clean_linker_0, # of connection points: 2
#     Edge 36, Type (0, 1), BuildingBlock: OJICUG_clean_linker_0, # of connection points: 2
#     Edge 37, Type (0, 1), BuildingBlock: OJICUG_clean_linker_0, # of connection points: 2
#     Edge 38, Type (0, 1), BuildingBlock: OJICUG_clean_linker_0, # of connection points: 2
#     Edge 39, Type (0, 1), BuildingBlock: OJICUG_clean_linker_0, # of connection points: 2
#     Edge 40, Type (0, 1), BuildingBlock: OJICUG_clean_linker_0, # of connection points: 2
#     Edge 41, Type (0, 1), BuildingBlock: OJICUG_clean_linker_0, # of connection points: 2
#     Edge 42, Type (0, 1), BuildingBlock: OJICUG_clean_linker_0, # of connection points: 2
#     Edge 43, Type (0, 1), BuildingBlock: OJICUG_clean_linker_0, # of connection points: 2
#     Edge 44, Type (0, 1), BuildingBlock: OJICUG_clean_linker_0, # of connection points: 2
#     Edge 45, Type (0, 1), BuildingBlock: OJICUG_clean_linker_0, # of connection points: 2
#     Edge 46, Type (0, 1), BuildingBlock: OJICUG_clean_linker_0, # of connection points: 2
#     Edge 47, Type (0, 1), BuildingBlock: OJICUG_clean_linker_0, # of connection points: 2
#     Edge 48, Type (0, 1), BuildingBlock: OJICUG_clean_linker_0, # of connection points: 2
#     Edge 49, Type (0, 1), BuildingBlock: OJICUG_clean_linker_0, # of connection points: 2
#     Edge 50, Type (0, 1), BuildingBlock: OJICUG_clean_linker_0, # of connection points: 2
#     Edge 51, Type (0, 1), BuildingBlock: OJICUG_clean_linker_0, # of connection points: 2
#     Edge 52, Type (0, 1), BuildingBlock: OJICUG_clean_linker_0, # of connection points: 2
#     Edge 53, Type (0, 1), BuildingBlock: OJICUG_clean_linker_0, # of connection points: 2
#     Edge 54, Type (0, 1), BuildingBlock: OJICUG_clean_linker_0, # of connection points: 2
#     Edge 55, Type (0, 1), BuildingBlock: OJICUG_clean_linker_0, # of connection points: 2
#     Edge 56, Type (0, 1), BuildingBlock: OJICUG_clean_linker_0, # of connection points: 2
#     Edge 57, Type (0, 1), BuildingBlock: OJICUG_clean_linker_0, # of connection points: 2
#     Edge 58, Type (0, 1), BuildingBlock: OJICUG_clean_linker_0, # of connection points: 2
#     Edge 59, Type (0, 1), BuildingBlock: OJICUG_clean_linker_0, # of connection points: 2
#     Edge 60, Type (0, 1), BuildingBlock: OJICUG_clean_linker_0, # of connection points: 2
#     Edge 61, Type (0, 1), BuildingBlock: OJICUG_clean_linker_0, # of connection points: 2
#     Edge 62, Type (0, 1), BuildingBlock: OJICUG_clean_linker_0, # of connection points: 2
#     Edge 63, Type (0, 1), BuildingBlock: OJICUG_clean_linker_0, # of connection points: 2
#     Edge 64, Type (0, 1), BuildingBlock: OJICUG_clean_linker_0, # of connection points: 2
#     Edge 65, Type (0, 1), BuildingBlock: OJICUG_clean_linker_0, # of connection points: 2
#     Edge 66, Type (0, 1), BuildingBlock: OJICUG_clean_linker_0, # of connection points: 2
#     Edge 67, Type (0, 1), BuildingBlock: OJICUG_clean_linker_0, # of connection points: 2
#     Edge 68, Type (0, 1), BuildingBlock: OJICUG_clean_linker_0, # of connection points: 2
#     Edge 69, Type (0, 1), BuildingBlock: OJICUG_clean_linker_0, # of connection points: 2
#     Edge 70, Type (0, 1), BuildingBlock: OJICUG_clean_linker_0, # of connection points: 2
#     Edge 71, Type (0, 1), BuildingBlock: OJICUG_clean_linker_0, # of connection points: 2
#     Edge 72, Type (0, 1), BuildingBlock: OJICUG_clean_linker_0, # of connection points: 2
#     Edge 73, Type (0, 1), BuildingBlock: OJICUG_clean_linker_0, # of connection points: 2
#     Edge 74, Type (0, 1), BuildingBlock: OJICUG_clean_linker_0, # of connection points: 2
#     Edge 75, Type (0, 1), BuildingBlock: OJICUG_clean_linker_0, # of connection points: 2
#     Edge 76, Type (0, 1), BuildingBlock: OJICUG_clean_linker_0, # of connection points: 2
#     Edge 77, Type (0, 1), BuildingBlock: OJICUG_clean_linker_0, # of connection points: 2
#     Edge 78, Type (0, 1), BuildingBlock: OJICUG_clean_linker_0, # of connection points: 2
#     Edge 79, Type (0, 1), BuildingBlock: OJICUG_clean_linker_0, # of connection points: 2
#     Edge 80, Type (0, 1), BuildingBlock: OJICUG_clean_linker_0, # of connection points: 2
# Relax obj value: 0.059
# Max RMSD: 0.226
# Mean RMSD: 0.162
data_MOF--net-eea--node1-HISSIN_clean_sbu_0--node2-PAMTOO_clean_linker_0--edge1-OJICUG_clean_linker_0
_symmetry_space_group_name_H-M    P1
_symmetry_Int_Tables_number       1
_symmetry_cell_setting            triclinic
loop_
_symmetry_equiv_pos_as_xyz
'x, y, z'
_cell_length_a     39.160403
_cell_length_b     40.022556
_cell_length_c     54.787584
_cell_angle_alpha  92.7982
_cell_angle_beta   92.688298
_cell_angle_gamma 120.01676
loop_
_atom_site_label
_atom_site_type_symbol
_atom_site_fract_x
_atom_site_fract_y
_atom_site_fract_z
_atom_type_partial_charge
H0 H 0.274 0.06842 0.42857 0.0
H1 H 0.26154 0.1692 0.42897 0.0
H2 H 0.2082 0.08261 0.36856 0.0
H3 H 0.24748 0.16373 0.35388 0.0
C4 C 0.24558 0.17811 0.37125 0.0
O5 O 0.22191 0.1502 0.38618 0.0
H6 H 0.27603 0.19636 0.38033 0.0
C7 C 0.26252 0.08487 0.41982 0.0
C8 C 0.2398 0.07046 0.39713 0.0
C9 C 0.26999 0.12003 0.43171 0.0
C10 C 0.25566 0.1417 0.4203 0.0
C11 C 0.23431 0.12844 0.39735 0.0
C12 C 0.22593 0.0928 0.38595 0.0
H13 H 0.96132 0.20258 0.43106 0.0
H14 H 0.86221 0.08656 0.42832 0.0
H15 H 0.93704 0.12017 0.36931 0.0
H16 H 0.85089 0.07149 0.35266 0.0
C17 C 0.84069 0.05808 0.37015 0.0
O18 O 0.87317 0.06517 0.38528 0.0
H19 H 0.82447 0.07118 0.37881 0.0
C20 C 0.94386 0.17395 0.42166 0.0
C21 C 0.95402 0.16543 0.39868 0.0
C22 C 0.91133 0.14551 0.43282 0.0
C23 C 0.88802 0.10865 0.42043 0.0
C24 C 0.89698 0.10021 0.3974 0.0
C25 C 0.9301 0.1281 0.38678 0.0
H26 H 0.82182 0.75375 0.43871 0.0
H27 H 0.93675 0.7643 0.44371 0.0
H28 H 0.9024 0.80794 0.38317 0.0
H29 H 0.94001 0.76134 0.37076 0.0
C30 C 0.96219 0.77124 0.38687 0.0
O31 O 0.95768 0.79666 0.40249 0.0
H32 H 0.95671 0.74536 0.39648 0.0
C33 C 0.85041 0.76398 0.43154 0.0
C34 C 0.85843 0.78235 0.40952 0.0
C35 C 0.87844 0.75772 0.44427 0.0
C36 C 0.91466 0.76884 0.43426 0.0
C37 C 0.92283 0.78634 0.41207 0.0
C38 C 0.89503 0.79343 0.39992 0.0
H39 H 0.05636 0.24504 0.57642 0.0
H40 H 0.16128 0.23602 0.57484 0.0
H41 H 0.09251 0.20079 0.63668 0.0
H42 H 0.18002 0.24431 0.64758 0.0
C43 C 0.1883 0.23389 0.63092 0.0
O44 O 0.15447 0.20695 0.6169 0.0
H45 H 0.206 0.25932 0.62036 0.0
C46 C 0.07685 0.23769 0.58515 0.0
C47 C 0.06972 0.22212 0.60822 0.0
C48 C 0.10984 0.24301 0.57288 0.0
C49 C 0.1354 0.23182 0.5837 0.0
C50 C 0.12891 0.21659 0.60654 0.0
C51 C 0.09638 0.21188 0.61877 0.0
H52 H 0.77488 0.80456 0.58619 0.0
H53 H 0.78502 0.91655 0.58451 0.0
H54 H 0.81517 0.88333 0.65152 0.0
H55 H 0.76919 0.92617 0.65605 0.0
C56 C 0.77862 0.94158 0.6391 0.0
O57 O 0.80886 0.9374 0.63045 0.0
H58 H 0.75254 0.92863 0.62533 0.0
C59 C 0.78213 0.83211 0.59549 0.0
C60 C 0.79593 0.84049 0.6205 0.0
C61 C 0.77809 0.85931 0.58227 0.0
C62 C 0.78871 0.8954 0.59414 0.0
C63 C 0.80174 0.90371 0.619 0.0
C64 C 0.80556 0.87654 0.63215 0.0
H65 H 0.20082 0.94208 0.57941 0.0
H66 H 0.08909 0.83604 0.57547 0.0
H67 H 0.12317 0.91902 0.63747 0.0
H68 H 0.08946 0.83715 0.64905 0.0
C69 C 0.06746 0.82273 0.6329 0.0
O70 O 0.06945 0.85044 0.61807 0.0
H71 H 0.07482 0.80279 0.62262 0.0
C72 C 0.17306 0.92393 0.58716 0.0
C73 C 0.16548 0.93588 0.60984 0.0
C74 C 0.14559 0.88847 0.57437 0.0
C75 C 0.11067 0.86362 0.585 0.0
C76 C 0.10311 0.87455 0.60791 0.0
C77 C 0.13015 0.91069 0.62013 0.0
H78 H 0.92944 0.39224 0.76138 0.0
H79 H 0.92303 0.49638 0.76348 0.0
H80 H 0.87466 0.416 0.69967 0.0
H81 H 0.92056 0.49994 0.68885 0.0
C82 C 0.9163 0.51259 0.70619 0.0
O83 O 0.88957 0.48319 0.7191 0.0
H84 H 0.94546 0.52929 0.71707 0.0
C85 C 0.91974 0.41022 0.75279 0.0
C86 C 0.90011 0.39886 0.72911 0.0
C87 C 0.92762 0.4449 0.76554 0.0
C88 C 0.91725 0.46943 0.75399 0.0
C89 C 0.89895 0.45915 0.73013 0.0
C90 C 0.88998 0.42387 0.71782 0.0
H91 H 0.64057 0.54017 0.7703 0.0
H92 H 0.54295 0.42447 0.77254 0.0
H93 H 0.61117 0.45333 0.71035 0.0
H94 H 0.52126 0.40961 0.69996 0.0
C95 C 0.51406 0.39336 0.71667 0.0
O96 O 0.54866 0.40018 0.72912 0.0
H97 H 0.49823 0.40389 0.7283 0.0
C98 C 0.62281 0.51085 0.76193 0.0
C99 C 0.631 0.5005 0.7388 0.0
C100 C 0.59168 0.48346 0.77451 0.0
C101 C 0.56788 0.44572 0.76354 0.0
C102 C 0.57438 0.43553 0.74025 0.0
C103 C 0.60613 0.46245 0.72808 0.0
H104 H 0.48682 0.09002 0.76911 0.0
H105 H 0.59965 0.09573 0.77516 0.0
H106 H 0.56572 0.13392 0.71159 0.0
H107 H 0.60352 0.08834 0.70281 0.0
C108 C 0.62626 0.09994 0.7187 0.0
O109 O 0.62161 0.12611 0.73345 0.0
H110 H 0.62189 0.07523 0.72926 0.0
C111 C 0.51428 0.09662 0.7614 0.0
C112 C 0.52225 0.11222 0.73847 0.0
C113 C 0.54165 0.09014 0.77481 0.0
C114 C 0.57813 0.10065 0.76531 0.0
C115 C 0.58667 0.11657 0.74263 0.0
C116 C 0.55886 0.12231 0.7293 0.0
H117 H 0.72374 0.58034 0.9118 0.0
H118 H 0.8256 0.56675 0.90715 0.0
H119 H 0.76185 0.53623 0.97122 0.0
H120 H 0.85112 0.58052 0.97844 0.0
C121 C 0.85697 0.56733 0.96196 0.0
O122 O 0.82154 0.53985 0.94967 0.0
H123 H 0.87404 0.5909 0.94996 0.0
C124 C 0.74401 0.57223 0.91992 0.0
C125 C 0.73819 0.55754 0.94327 0.0
C126 C 0.77549 0.57581 0.90666 0.0
C127 C 0.80076 0.56374 0.91675 0.0
C128 C 0.79569 0.54957 0.93988 0.0
C129 C 0.76466 0.54654 0.95311 0.0
H130 H 0.43791 0.14242 0.9203 0.0
H131 H 0.45146 0.2557 0.91771 0.0
H132 H 0.4854 0.22427 0.98423 0.0
H133 H 0.44068 0.2677 0.98973 0.0
C134 C 0.4498 0.28354 0.97293 0.0
O135 O 0.47868 0.27818 0.96314 0.0
H136 H 0.4232 0.27172 0.95964 0.0
C137 C 0.44712 0.17077 0.92918 0.0
C138 C 0.46292 0.18 0.95383 0.0
C139 C 0.44229 0.19761 0.91604 0.0
C140 C 0.45462 0.2344 0.92751 0.0
C141 C 0.46987 0.24371 0.95199 0.0
C142 C 0.47419 0.21676 0.96512 0.0
H143 H 0.86812 0.27566 0.91253 0.0
H144 H 0.75565 0.17025 0.90721 0.0
H145 H 0.78946 0.2515 0.97012 0.0
H146 H 0.75504 0.16922 0.98044 0.0
C147 C 0.73261 0.15552 0.96444 0.0
O148 O 0.73544 0.18379 0.94983 0.0
H149 H 0.73873 0.13492 0.95385 0.0
C150 C 0.84014 0.25743 0.92003 0.0
C151 C 0.83232 0.26882 0.94283 0.0
C152 C 0.81261 0.2224 0.90679 0.0
C153 C 0.77733 0.19747 0.91708 0.0
C154 C 0.7695 0.20788 0.94006 0.0
C155 C 0.79665 0.24356 0.95274 0.0
H156 H 0.61272 0.74372 0.09588 0.0
H157 H 0.60243 0.84568 0.09435 0.0
H158 H 0.54737 0.757 0.03526 0.0
H159 H 0.58556 0.83772 0.01923 0.0
C160 C 0.58452 0.85254 0.03666 0.0
O161 O 0.56148 0.82506 0.05201 0.0
H162 H 0.61529 0.87086 0.04524 0.0
C163 C 0.6018 0.76033 0.08676 0.0
C164 C 0.57897 0.7454 0.06412 0.0
C165 C 0.61005 0.79615 0.09812 0.0
C166 C 0.59612 0.81777 0.08618 0.0
C167 C 0.57432 0.80378 0.06339 0.0
C168 C 0.56541 0.76767 0.05252 0.0
H169 H 0.29862 0.87703 0.09958 0.0
H170 H 0.20234 0.76034 0.10058 0.0
H171 H 0.27749 0.78966 0.04175 0.0
H172 H 0.18907 0.74185 0.02698 0.0
C173 C 0.18013 0.72742 0.04431 0.0
O174 O 0.21359 0.73576 0.05884 0.0
H175 H 0.16298 0.73882 0.05371 0.0
C176 C 0.28248 0.84745 0.09147 0.0
C177 C 0.29333 0.83719 0.06928 0.0
C178 C 0.2498 0.81997 0.10293 0.0
C179 C 0.22769 0.78199 0.09208 0.0
C180 C 0.23732 0.77165 0.06989 0.0
C181 C 0.27021 0.79883 0.05867 0.0
H182 H 0.15432 0.41999 0.10296 0.0
H183 H 0.27004 0.43262 0.11002 0.0
H184 H 0.23734 0.47654 0.04898 0.0
H185 H 0.27553 0.43061 0.03726 0.0
C186 C 0.29747 0.44066 0.05351 0.0
O187 O 0.29221 0.46558 0.0691 0.0
H188 H 0.29229 0.41481 0.06307 0.0
C189 C 0.18333 0.43088 0.0963 0.0
C190 C 0.1921 0.44973 0.07444 0.0
C191 C 0.21125 0.42505 0.10956 0.0
C192 C 0.24804 0.43688 0.10019 0.0
C193 C 0.25691 0.45474 0.07815 0.0
C194 C 0.22931 0.46161 0.06555 0.0
H195 H 0.38968 0.91279 0.24343 0.0
H196 H 0.49211 0.90014 0.23875 0.0
H197 H 0.42693 0.86676 0.30214 0.0
H198 H 0.5171 0.91214 0.30919 0.0
C199 C 0.52261 0.89805 0.29302 0.0
O200 O 0.487 0.87114 0.28062 0.0
H201 H 0.54048 0.92108 0.28088 0.0
C202 C 0.40995 0.90463 0.25149 0.0
C203 C 0.40362 0.88898 0.27456 0.0
C204 C 0.44186 0.909 0.23835 0.0
C205 C 0.46704 0.89668 0.24827 0.0
C206 C 0.46148 0.88152 0.27111 0.0
C207 C 0.4301 0.87784 0.28424 0.0
H208 H 0.10242 0.47101 0.25235 0.0
H209 H 0.11482 0.58397 0.2513 0.0
H210 H 0.15018 0.55166 0.3169 0.0
H211 H 0.10578 0.59543 0.32381 0.0
C212 C 0.11384 0.61068 0.30673 0.0
O213 O 0.14276 0.60572 0.29664 0.0
H214 H 0.0867 0.598 0.29383 0.0
C215 C 0.11153 0.49913 0.26155 0.0
C216 C 0.12765 0.50797 0.28615 0.0
C217 C 0.10618 0.5261 0.24892 0.0
C218 C 0.11844 0.56262 0.26074 0.0
C219 C 0.13407 0.57154 0.28512 0.0
C220 C 0.13879 0.54446 0.29782 0.0
H221 H 0.53702 0.6081 0.25215 0.0
H222 H 0.42318 0.50377 0.24308 0.0
H223 H 0.45991 0.57511 0.31092 0.0
H224 H 0.4212 0.49095 0.31489 0.0
C225 C 0.39876 0.4807 0.2989 0.0
O226 O 0.40327 0.51201 0.28691 0.0
H227 H 0.40355 0.46102 0.28631 0.0
C228 C 0.50933 0.58821 0.2594 0.0
C229 C 0.50221 0.59585 0.28337 0.0
C230 C 0.48123 0.5551 0.24468 0.0
C231 C 0.44538 0.52942 0.25414 0.0
C232 C 0.43782 0.53684 0.27795 0.0
C233 C 0.46605 0.57 0.29247 0.0
Eu234 Eu 0.48656 0.98991 0.98123 0.0
Eu235 Eu 0.51551 0.02774 0.03898 0.0
C236 C 0.48288 0.06398 1.00061 0.0
C237 C 0.47732 0.98398 0.91156 0.0
C238 C 0.50183 0.02426 0.91163 0.0
C239 C 0.47495 0.97836 0.86711 0.0
C240 C 0.51282 0.0415 0.88953 0.0
C241 C 0.46401 0.96118 0.88921 0.0
C242 C 0.49949 0.01876 0.86696 0.0
C243 C 0.46671 0.96546 0.93472 0.0
O244 O 0.44978 0.98729 0.03633 0.0
O245 O 0.44145 0.945 1.00371 0.0
C246 C 0.42983 0.95307 0.02419 0.0
O247 O 0.52274 0.9654 0.99652 0.0
O248 O 0.50541 0.05411 0.07164 0.0
O249 O 0.55328 0.04175 0.07288 0.0
O250 O 0.5144 0.97085 0.03735 0.0
C251 C 0.52438 0.95612 0.01898 0.0
O252 O 0.54416 0.04595 0.97995 0.0
O253 O 0.57134 0.05314 0.01935 0.0
O254 O 0.51149 0.07267 0.0176 0.0
O255 O 0.49525 0.96486 0.94749 0.0
O256 O 0.44599 0.97485 0.94844 0.0
O257 O 0.46201 0.02882 0.98992 0.0
C258 C 0.51681 0.03009 0.10757 0.0
C259 C 0.4945 0.98949 0.10542 0.0
C260 C 0.50976 0.02985 0.15141 0.0
C261 C 0.4799 0.96918 0.12609 0.0
C262 C 0.52421 0.05016 0.13065 0.0
C263 C 0.48751 0.98905 0.14941 0.0
C264 C 0.53156 0.0512 0.08561 0.0
C265 C 0.57489 0.06104 0.99626 0.0
H266 H 0.51251 0.04232 0.92877 0.0
H267 H 0.46462 0.9599 0.85014 0.0
H268 H 0.53133 0.07268 0.89011 0.0
H269 H 0.44537 0.93002 0.88884 0.0
H270 H 0.48836 0.97347 0.08771 0.0
H271 H 0.51666 0.04612 0.16909 0.0
H272 H 0.46243 0.93787 0.12374 0.0
H273 H 0.54133 0.08151 0.13264 0.0
Eu274 Eu 0.03215 0.49438 0.9803 0.0
Eu275 Eu 0.99722 0.48257 0.0352 0.0
C276 C 0.95448 0.41536 0.99083 0.0
C277 C 0.03936 0.49533 0.91187 0.0
C278 C 0.99799 0.47385 0.90803 0.0
C279 C 0.04379 0.50203 0.86823 0.0
C280 C 0.97958 0.46635 0.88439 0.0
C281 C 0.06219 0.50943 0.89192 0.0
C282 C 1.00229 0.48038 0.86423 0.0
C283 C 0.05854 0.50453 0.93678 0.0
O284 O 0.03852 0.45911 0.03569 0.0
O285 O 0.0782 0.49216 0.00564 0.0
C286 C 0.07177 0.47262 0.02515 0.0
O287 O 0.05609 0.55314 0.99941 0.0
O288 O 0.97021 0.44556 0.0647 0.0
O289 O 0.98373 0.50518 0.06806 0.0
O290 O 0.05604 0.53881 0.03929 0.0
C291 C 0.06944 0.56363 0.02244 0.0
O292 O 0.97489 0.49514 0.97494 0.0
O293 O 0.97008 0.51197 0.01483 0.0
O294 O 0.94963 0.43227 0.01043 0.0
O295 O 0.05515 0.53053 0.94995 0.0
O296 O 0.0522 0.47503 0.94898 0.0
O297 O 0.98717 0.43137 0.97963 0.0
C298 C 0.99135 0.47875 0.10377 0.0
C299 C 0.0323 0.49367 0.10727 0.0
C300 C 0.98664 0.47443 0.14755 0.0
C301 C 0.05039 0.49902 0.13084 0.0
C302 C 0.96857 0.4689 0.12395 0.0
C303 C 0.02778 0.48979 0.15124 0.0
C304 C 0.97241 0.47358 0.07912 0.0
C305 C 0.95984 0.50823 0.99126 0.0
H306 H 0.97997 0.46319 0.92336 0.0
H307 H 0.06203 0.51283 0.85303 0.0
H308 H 0.94756 0.45002 0.88191 0.0
H309 H 0.09418 0.52627 0.89469 0.0
H310 H 0.05026 0.50161 0.0918 0.0
H311 H 0.96845 0.4667 0.16291 0.0
H312 H 0.08217 0.51133 0.13315 0.0
H313 H 0.93688 0.45718 0.12147 0.0
Eu314 Eu 0.54402 0.51696 0.03584 0.0
Eu315 Eu 0.51735 0.52761 0.97994 0.0
C316 C 0.54639 0.59562 0.02279 0.0
C317 C 0.55178 0.51676 0.1045 0.0
C318 C 0.53244 0.5382 0.10629 0.0
C319 C 0.54543 0.50672 0.14774 0.0
C320 C 0.51977 0.54398 0.12869 0.0
C321 C 0.55822 0.50106 0.12531 0.0
C322 C 0.526 0.52819 0.14967 0.0
C323 C 0.5628 0.50866 0.08063 0.0
O324 O 0.58359 0.55489 0.98339 0.0
O325 O 0.58909 0.51701 0.01131 0.0
C326 C 0.603 0.53948 0.99329 0.0
O327 O 0.50395 0.45784 0.01744 0.0
O328 O 0.52748 0.56345 0.94931 0.0
O329 O 0.47954 0.50393 0.94577 0.0
O330 O 0.51851 0.47156 0.97807 0.0
C331 C 0.50542 0.4467 0.99489 0.0
O332 O 0.48682 0.51676 0.03952 0.0
O333 O 0.46107 0.50037 0.99927 0.0
O334 O 0.52202 0.57794 1.00315 0.0
O335 O 0.53377 0.4811 0.06641 0.0
O336 O 0.58502 0.53867 0.0688 0.0
O337 O 0.56396 0.58005 0.0348 0.0
C338 C 0.5145 0.52854 0.91051 0.0
C339 C 0.49739 0.49131 0.89834 0.0
C340 C 0.55917 0.55394 0.87808 0.0
C341 C 0.51135 0.4854 0.87649 0.0
C342 C 0.54515 0.55988 0.89994 0.0
C343 C 0.5427 0.51655 0.86624 0.0
C344 C 0.50118 0.53465 0.93434 0.0
C345 C 0.45683 0.50375 0.0228 0.0
H346 H 0.5267 0.55005 0.09026 0.0
H347 H 0.55107 0.49457 0.16363 0.0
H348 H 0.50448 0.56024 0.1295 0.0
H349 H 0.57281 0.48416 0.12416 0.0
H350 H 0.4734 0.46657 0.90576 0.0
H351 H 0.58344 0.57853 0.87073 0.0
H352 H 0.49739 0.45636 0.86756 0.0
H353 H 0.55873 0.58897 0.90875 0.0
Eu354 Eu 0.15181 0.31775 0.3137 0.0
Eu355 Eu 0.1797 0.35554 0.37156 0.0
C356 C 0.14775 0.39173 0.33258 0.0
C357 C 0.14448 0.31351 0.24422 0.0
C358 C 0.16138 0.35384 0.24457 0.0
C359 C 0.15143 0.31055 0.20044 0.0
C360 C 0.17303 0.37238 0.22296 0.0
C361 C 0.13962 0.29202 0.22205 0.0
C362 C 0.16828 0.35097 0.20063 0.0
C363 C 0.13377 0.294 0.26704 0.0
O364 O 0.11403 0.31484 0.36887 0.0
O365 O 0.10546 0.27317 0.33569 0.0
C366 C 0.09373 0.2811 0.35618 0.0
O367 O 0.18609 0.29178 0.32975 0.0
O368 O 0.16928 0.38215 0.40399 0.0
O369 O 0.21765 0.3705 0.40547 0.0
O370 O 0.17779 0.2983 0.37053 0.0
C371 C 0.1873 0.28277 0.35234 0.0
O372 O 0.20952 0.37388 0.31302 0.0
O373 O 0.23585 0.37956 0.3524 0.0
O374 O 0.17604 0.40036 0.34981 0.0
O375 O 0.16273 0.29445 0.28002 0.0
O376 O 0.11158 0.30152 0.28064 0.0
O377 O 0.12713 0.35665 0.32177 0.0
C378 C 0.18173 0.3597 0.44033 0.0
C379 C 0.15984 0.31908 0.43881 0.0
C380 C 0.17598 0.36107 0.48429 0.0
C381 C 0.14621 0.29957 0.45987 0.0
C382 C 0.18958 0.38058 0.46316 0.0
C383 C 0.15425 0.32029 0.48292 0.0
C384 C 0.19585 0.38002 0.41804 0.0
C385 C 0.24 0.38806 0.32946 0.0
H386 H 0.16587 0.371 0.2616 0.0
H387 H 0.14695 0.29317 0.18353 0.0
H388 H 0.18634 0.40357 0.22381 0.0
H389 H 0.12688 0.2609 0.22149 0.0
H390 H 0.15333 0.30246 0.42129 0.0
H391 H 0.18313 0.37793 0.50176 0.0
H392 H 0.12913 0.26823 0.45805 0.0
H393 H 0.20639 0.41194 0.46466 0.0
Eu394 Eu 0.69198 0.81758 0.31564 0.0
Eu395 Eu 0.66064 0.81466 0.37062 0.0
C396 C 0.62246 0.7415 0.33278 0.0
C397 C 0.7018 0.82355 0.24669 0.0
C398 C 0.66299 0.81499 0.24028 0.0
C399 C 0.71815 0.83901 0.20501 0.0
C400 C 0.65148 0.81716 0.21618 0.0
C401 C 0.72952 0.83643 0.2291 0.0
C402 C 0.67869 0.82836 0.19809 0.0
C403 C 0.71295 0.81674 0.27113 0.0
O404 O 0.70487 0.79459 0.37404 0.0
O405 O 0.74028 0.81893 0.34057 0.0
C406 C 0.73639 0.80458 0.36201 0.0
O407 O 0.71472 0.8791 0.33004 0.0
O408 O 0.63336 0.78014 0.40107 0.0
O409 O 0.64955 0.84061 0.40294 0.0
O410 O 0.71815 0.87121 0.37099 0.0
C411 C 0.72906 0.89335 0.35264 0.0
O412 O 0.63659 0.82189 0.30966 0.0
O413 O 0.63188 0.84134 0.34902 0.0
O414 O 0.61365 0.76319 0.34665 0.0
O415 O 0.7315 0.84672 0.28709 0.0
O416 O 0.68595 0.78634 0.28068 0.0
O417 O 0.65817 0.75607 0.32559 0.0
C418 C 0.6592 0.81607 0.43897 0.0
C419 C 0.70043 0.83234 0.44092 0.0
C420 C 0.65868 0.81032 0.48277 0.0
C421 C 0.72074 0.83773 0.4637 0.0
C422 C 0.63838 0.80494 0.45993 0.0
C423 C 0.70009 0.82689 0.48489 0.0
C424 C 0.63805 0.80982 0.41493 0.0
C425 C 0.62187 0.83638 0.32535 0.0
H426 H 0.64117 0.80522 0.25367 0.0
H427 H 0.74007 0.84849 0.1917 0.0
H428 H 0.62077 0.8083 0.21155 0.0
H429 H 0.7597 0.84348 0.23381 0.0
H430 H 0.71686 0.84083 0.42479 0.0
H431 H 0.64205 0.80214 0.49882 0.0
H432 H 0.75255 0.85013 0.4647 0.0
H433 H 0.60652 0.79221 0.45865 0.0
Eu434 Eu 0.2081 0.8445 0.36709 0.0
Eu435 Eu 0.17997 0.85441 0.31142 0.0
C436 C 0.20984 0.92264 0.35416 0.0
C437 C 0.21477 0.84345 0.43546 0.0
C438 C 0.19266 0.86221 0.43652 0.0
C439 C 0.20976 0.83555 0.47903 0.0
C440 C 0.17937 0.86781 0.4587 0.0
C441 C 0.2231 0.82997 0.45676 0.0
C442 C 0.18789 0.85469 0.48025 0.0
C443 C 0.22723 0.83636 0.41185 0.0
O444 O 0.24625 0.88176 0.31392 0.0
O445 O 0.25305 0.84494 0.34221 0.0
C446 C 0.26633 0.86709 0.32395 0.0
O447 O 0.16687 0.78546 0.34912 0.0
O448 O 0.18729 0.89057 0.28137 0.0
O449 O 0.14256 0.82975 0.27711 0.0
O450 O 0.1812 0.79838 0.30967 0.0
C451 C 0.16818 0.77385 0.32667 0.0
O452 O 0.15098 0.8444 0.37131 0.0
O453 O 0.12421 0.82733 0.33128 0.0
O454 O 0.18474 0.90454 0.33489 0.0
O455 O 0.19928 0.80828 0.39733 0.0
O456 O 0.24868 0.86689 0.40025 0.0
O457 O 0.22821 0.9075 0.36576 0.0
C458 C 0.17525 0.85775 0.2418 0.0
C459 C 0.1527 0.82372 0.22627 0.0
C460 C 0.2227 0.88374 0.21089 0.0
C461 C 0.1652 0.81955 0.20345 0.0
C462 C 0.21025 0.88787 0.23378 0.0
C463 C 0.20038 0.84947 0.19548 0.0
C464 C 0.16205 0.86151 0.26616 0.0
C465 C 0.12058 0.8312 0.35487 0.0
H466 H 0.18551 0.87235 0.42015 0.0
H467 H 0.21713 0.82547 0.49535 0.0
H468 H 0.16214 0.88217 0.45894 0.0
H469 H 0.23986 0.81514 0.45618 0.0
H470 H 0.12548 0.8001 0.23185 0.0
H471 H 0.24963 0.90756 0.20517 0.0
H472 H 0.14754 0.79254 0.19222 0.0
H473 H 0.22816 0.91468 0.24516 0.0
Eu474 Eu 0.82208 0.65144 0.64843 0.0
Eu475 Eu 0.85019 0.69015 0.70601 0.0
C476 C 0.81701 0.72508 0.66703 0.0
C477 C 0.81374 0.64626 0.57906 0.0
C478 C 0.83119 0.68665 0.57949 0.0
C479 C 0.81958 0.6432 0.53515 0.0
C480 C 0.84259 0.70518 0.55786 0.0
C481 C 0.80805 0.62468 0.55679 0.0
C482 C 0.83701 0.68369 0.53542 0.0
C483 C 0.80346 0.62684 0.60192 0.0
O484 O 0.78461 0.64932 0.70319 0.0
O485 O 0.77698 0.6066 0.67102 0.0
C486 C 0.76515 0.61486 0.69135 0.0
O487 O 0.85818 0.6273 0.66437 0.0
O488 O 0.83961 0.71718 0.73812 0.0
O489 O 0.88778 0.70524 0.7401 0.0
O490 O 0.84966 0.63357 0.70511 0.0
C491 C 0.85973 0.61849 0.68697 0.0
O492 O 0.87919 0.70807 0.64716 0.0
O493 O 0.90621 0.71584 0.68665 0.0
O494 O 0.84553 0.73426 0.68417 0.0
O495 O 0.83277 0.6278 0.61481 0.0
O496 O 0.78119 0.63414 0.61559 0.0
O497 O 0.79676 0.6899 0.6563 0.0
C498 C 0.85141 0.69487 0.77533 0.0
C499 C 0.87117 0.67818 0.78716 0.0
C500 C 0.80319 0.67173 0.80604 0.0
C501 C 0.85684 0.65811 0.80794 0.0
C502 C 0.81748 0.69177 0.78519 0.0
C503 C 0.82251 0.65436 0.81754 0.0
C504 C 0.86549 0.71438 0.75248 0.0
C505 C 0.90982 0.72372 0.66357 0.0
H506 H 0.83632 0.70387 0.5966 0.0
H507 H 0.81446 0.62577 0.51816 0.0
H508 H 0.85636 0.73642 0.55878 0.0
H509 H 0.79488 0.59351 0.55616 0.0
H510 H 0.89761 0.68033 0.78026 0.0
H511 H 0.77659 0.66926 0.81288 0.0
H512 H 0.87293 0.64577 0.81663 0.0
H513 H 0.80163 0.70444 0.77664 0.0
Eu514 Eu 0.36606 0.16414 0.64712 0.0
Eu515 Eu 0.33107 0.14835 0.70162 0.0
C516 C 0.28747 0.08393 0.6562 0.0
C517 C 0.37766 0.16929 0.57891 0.0
C518 C 0.33649 0.14973 0.57377 0.0
C519 C 0.38622 0.17673 0.53561 0.0
C520 C 0.32024 0.14375 0.54964 0.0
C521 C 0.40245 0.18273 0.55978 0.0
C522 C 0.34494 0.15729 0.5303 0.0
C523 C 0.39479 0.17705 0.60428 0.0
O524 O 0.36887 0.12102 0.69844 0.0
O525 O 0.41184 0.162 0.67273 0.0
C526 C 0.40351 0.13733 0.68951 0.0
O527 O 0.38781 0.22169 0.66746 0.0
O528 O 0.30674 0.1104 0.73107 0.0
O529 O 0.31708 0.16891 0.73515 0.0
O530 O 0.38996 0.20455 0.70635 0.0
C531 C 0.40205 0.23085 0.69038 0.0
O532 O 0.30905 0.16506 0.64188 0.0
O533 O 0.30158 0.17676 0.68228 0.0
O534 O 0.28296 0.09945 0.67657 0.0
O535 O 0.39001 0.20197 0.61767 0.0
O536 O 0.38793 0.14683 0.61584 0.0
O537 O 0.31981 0.10103 0.64463 0.0
C538 C 0.32673 0.14289 0.77047 0.0
C539 C 0.36726 0.15559 0.7738 0.0
C540 C 0.32308 0.14334 0.81448 0.0
C541 C 0.38572 0.16246 0.79744 0.0
C542 C 0.30467 0.13645 0.79086 0.0
C543 C 0.36389 0.15685 0.81804 0.0
C544 C 0.3075 0.13734 0.74585 0.0
C545 C 0.29258 0.17557 0.65871 0.0
H546 H 0.31698 0.13925 0.58843 0.0
H547 H 0.40598 0.18779 0.52113 0.0
H548 H 0.28833 0.12815 0.5461 0.0
H549 H 0.43432 0.19815 0.56356 0.0
H550 H 0.38468 0.16075 0.75815 0.0
H551 H 0.30539 0.13823 0.82998 0.0
H552 H 0.41725 0.1732 0.79959 0.0
H553 H 0.27331 0.1265 0.78853 0.0
Eu554 Eu 0.87162 0.17614 0.69806 0.0
Eu555 Eu 0.84336 0.18448 0.64178 0.0
C556 C 0.87216 0.25329 0.68392 0.0
C557 C 0.87948 0.17717 0.76688 0.0
C558 C 0.85814 0.1967 0.76828 0.0
C559 C 0.87527 0.16949 0.81052 0.0
C560 C 0.84569 0.20284 0.79068 0.0
C561 C 0.88786 0.16349 0.78807 0.0
C562 C 0.85414 0.18936 0.81208 0.0
C563 C 0.89113 0.16942 0.74311 0.0
O564 O 0.90971 0.21247 0.64484 0.0
O565 O 0.91661 0.17618 0.67349 0.0
C566 C 0.92989 0.19811 0.65515 0.0
O567 O 0.83089 0.11665 0.68051 0.0
O568 O 0.85165 0.21946 0.61088 0.0
O569 O 0.80598 0.159 0.60755 0.0
O570 O 0.84513 0.1288 0.64094 0.0
C571 C 0.83214 0.10465 0.65815 0.0
O572 O 0.81442 0.17583 0.70175 0.0
O573 O 0.78756 0.15755 0.66174 0.0
O574 O 0.84724 0.23474 0.66463 0.0
O575 O 0.8628 0.14107 0.72895 0.0
O576 O 0.91241 0.19954 0.73112 0.0
O577 O 0.89098 0.23882 0.69578 0.0
C578 C 0.83963 0.18485 0.5726 0.0
C579 C 0.86567 0.17041 0.5716 0.0
C580 C 0.84057 0.18965 0.52861 0.0
C581 C 0.87883 0.16531 0.54919 0.0
C582 C 0.82732 0.19461 0.55104 0.0
C583 C 0.86632 0.17473 0.52741 0.0
C584 C 0.82571 0.19017 0.59612 0.0
C585 C 0.78395 0.16185 0.68531 0.0
H586 H 0.85089 0.20695 0.75199 0.0
H587 H 0.88258 0.15911 0.82671 0.0
H588 H 0.82904 0.21778 0.79119 0.0
H589 H 0.90402 0.14807 0.78724 0.0
H590 H 0.87576 0.16305 0.58816 0.0
H591 H 0.83006 0.19679 0.51214 0.0
H592 H 0.89903 0.15424 0.54894 0.0
H593 H 0.80731 0.2059 0.55153 0.0
C594 C 0.32964 0.86499 0.03156 0.0
C595 C 0.32842 0.86646 0.0573 0.0
H596 H 0.36286 0.89082 1.00082 0.0
C597 C 0.36124 0.89643 0.07165 0.0
H598 H 0.30483 0.8429 0.01974 0.0
C599 C 0.39361 0.92451 0.06069 0.0
C600 C 0.39482 0.92291 0.0351 0.0
H601 H 0.36233 0.8982 0.09147 0.0
H602 H 0.4181 0.94726 0.07239 0.0
C603 C 0.36275 0.89263 0.02061 0.0
C604 C 0.13624 0.46377 0.07472 0.0
C605 C 0.16238 0.45709 0.06134 0.0
H606 H 0.08706 0.47302 0.07372 0.0
C607 C 0.15924 0.457 0.03556 0.0
H608 H 0.13834 0.46557 0.09456 0.0
C609 C 0.1304 0.46287 0.0236 0.0
C610 C 0.10353 0.46792 0.03713 0.0
H611 H 0.17844 0.45159 0.0245 0.0
H612 H 0.12839 0.46235 1.00378 0.0
C613 C 0.10689 0.46845 0.06277 0.0
C614 C 0.56311 0.67692 0.06826 0.0
C615 C 0.5689 0.70641 0.05308 0.0
H616 H 0.55216 0.61923 0.07048 0.0
C617 C 0.56547 0.6983 0.02745 0.0
H618 H 0.56397 0.68127 0.08799 0.0
C619 C 0.55708 0.66188 0.01739 0.0
C620 C 0.55303 0.63335 0.03279 0.0
H621 H 0.57011 0.72026 0.01512 0.0
H622 H 0.55501 0.65644 0.99766 0.0
C623 C 0.55593 0.64111 0.05825 0.0
C624 C 0.86799 0.31244 0.9816 0.0
C625 C 0.86154 0.30717 0.9558 0.0
H626 H 0.90236 0.35129 0.0131 0.0
C627 C 0.88436 0.3388 0.94217 0.0
H628 H 0.85123 0.2888 0.99275 0.0
C629 C 0.91425 0.37378 0.95377 0.0
C630 C 0.92132 0.37862 0.97936 0.0
H631 H 0.87944 0.33661 0.9224 0.0
H632 H 0.93182 0.39724 0.94265 0.0
C633 C 0.89737 0.34808 0.9933 0.0
C634 C 0.69214 0.58114 0.95581 0.0
C635 C 0.7048 0.55396 0.95735 0.0
H636 H 0.65046 0.59798 0.96598 0.0
C637 C 0.6849 0.52311 0.97221 0.0
H638 H 0.70716 0.60584 0.94514 0.0
C639 C 0.65286 0.5192 0.98475 0.0
C640 C 0.63954 0.5457 0.98244 0.0
H641 H 0.69329 0.50125 0.97367 0.0
H642 H 0.63762 0.49462 0.9955 0.0
C643 C 0.65979 0.57688 0.96801 0.0
C644 C 0.43695 0.11172 0.96462 0.0
C645 C 0.46671 0.15091 0.96778 0.0
H646 H 0.41852 0.05375 0.97275 0.0
C647 C 0.50043 0.16175 0.98379 0.0
H648 H 0.41013 0.10248 0.95296 0.0
C649 C 0.50499 0.13374 0.99551 0.0
C650 C 0.47601 0.09438 0.99133 0.0
H651 H 0.52397 0.19169 0.98657 0.0
H652 H 0.53193 0.14275 0.00699 0.0
C653 C 0.44162 0.0838 0.97616 0.0
C654 C 0.68594 0.12836 0.99784 0.0
C655 C 0.69152 0.13328 0.97285 0.0
H656 H 0.64482 0.10199 0.02486 0.0
C657 C 0.65844 0.11525 0.95565 0.0
H658 H 0.711 0.14171 0.01145 0.0
C659 C 0.62044 0.09255 0.96328 0.0
C660 C 0.61482 0.08709 0.98828 0.0
H661 H 0.66211 0.11833 0.93626 0.0
H662 H 0.5956 0.07867 0.9495 0.0
C663 C 0.648 0.10554 0.00548 0.0
C664 C 0.89981 0.53882 0.95142 0.0
C665 C 0.88127 0.54926 0.96915 0.0
H666 H 0.93925 0.51748 0.9444 0.0
C667 C 0.88666 0.54373 0.99379 0.0
H668 H 0.89574 0.5426 0.93227 0.0
C669 C 0.91148 0.52959 1.00076 0.0
C670 C 0.93129 0.52038 0.98322 0.0
H671 H 0.87235 0.55116 0.00776 0.0
H672 H 0.91553 0.52642 0.02003 0.0
C673 C 0.9246 0.52445 0.95838 0.0
C674 C 0.46963 0.34124 1.00275 0.0
C675 C 0.46523 0.326 0.9785 0.0
H676 H 0.48571 0.39114 0.02687 0.0
C677 C 0.47484 0.35074 0.95946 0.0
H678 H 0.46252 0.32274 0.01773 0.0
C679 C 0.48834 0.3902 0.96462 0.0
C680 C 0.4922 0.40537 0.98892 0.0
H681 H 0.47163 0.3394 0.9406 0.0
H682 H 0.4953 0.40863 0.94962 0.0
C683 C 0.48287 0.38045 0.0079 0.0
C684 C 0.14591 0.66756 0.01511 0.0
C685 C 0.15397 0.6844 0.03921 0.0
H686 H 0.11319 0.61634 0.99105 0.0
C687 C 0.13577 0.66092 0.05828 0.0
H688 H 0.15969 0.68501 1.00013 0.0
C689 C 0.10895 0.62122 0.05316 0.0
C690 C 0.09982 0.60466 0.02884 0.0
H691 H 0.14172 0.67351 0.07704 0.0
H692 H 0.09464 0.60383 0.06806 0.0
C693 C 0.11912 0.62819 0.00997 0.0
C694 C 0.37152 0.47413 0.06318 0.0
C695 C 0.33908 0.46033 0.04567 0.0
H696 H 0.43423 0.49904 0.06978 0.0
C697 C 0.3458 0.46278 0.0207 0.0
H698 H 0.36699 0.47232 0.08253 0.0
C699 C 0.38413 0.47785 0.01332 0.0
C700 C 0.41664 0.49082 0.03077 0.0
H701 H 0.32128 0.45223 0.00682 0.0
H702 H 0.38812 0.4786 0.99389 0.0
C703 C 0.40995 0.48936 0.05582 0.0
C704 C 0.5611 0.89749 0.05183 0.0
C705 C 0.56766 0.87832 0.03205 0.0
H706 H 0.54178 0.93683 0.06328 0.0
C707 C 0.55959 0.88454 0.00803 0.0
H708 H 0.56754 0.89335 0.07052 0.0
C709 C 0.54513 0.9095 1.00382 0.0
C710 C 0.53846 0.92875 0.02359 0.0
H711 H 0.5647 0.87029 0.99248 0.0
H712 H 0.53936 0.9138 0.98505 0.0
C713 C 0.54638 0.92231 0.04766 0.0
C714 C 0.99102 0.19582 0.36171 0.0
C715 C 0.98976 0.19508 0.38741 0.0
H716 H 0.02513 0.22315 0.33158 0.0
C717 C 0.02336 0.22273 0.40235 0.0
H718 H 0.96566 0.17561 0.34947 0.0
C719 C 0.05668 0.25066 0.39201 0.0
C720 C 0.05791 0.25114 0.36646 0.0
H721 H 0.02439 0.22268 0.42212 0.0
H722 H 0.08188 0.27156 0.40413 0.0
C723 C 0.02498 0.22323 0.35135 0.0
C724 C 0.82345 0.788 0.37114 0.0
C725 C 0.82846 0.78983 0.39692 0.0
H726 H 0.7906 0.79156 0.33979 0.0
C727 C 0.80379 0.79807 0.41079 0.0
H728 H 0.8415 0.78136 0.35976 0.0
C729 C 0.77402 0.80268 0.39932 0.0
C730 C 0.76868 0.80028 0.37366 0.0
H731 H 0.80737 0.80106 0.43063 0.0
H732 H 0.75537 0.80852 0.41066 0.0
C733 C 0.7941 0.79357 0.35964 0.0
C734 C 0.22729 0.02465 0.35993 0.0
C735 C 0.23029 0.03195 0.38561 0.0
H736 H 0.21781 0.9838 0.3297 0.0
C737 C 0.22471 0.00213 0.40043 0.0
H738 H 0.23176 0.04691 0.34789 0.0
C739 C 0.21823 0.96681 0.39002 0.0
C740 C 0.21581 0.95988 0.36452 0.0
H741 H 0.22525 0.00588 0.42017 0.0
H742 H 0.21461 0.94465 0.40197 0.0
C743 C 0.21957 0.98867 0.34947 0.0
C744 C 0.57295 0.64283 0.29791 0.0
C745 C 0.53265 0.63107 0.29852 0.0
H746 H 0.63281 0.68671 0.30838 0.0
C747 C 0.52203 0.65435 0.31251 0.0
H748 H 0.58211 0.62512 0.28778 0.0
C749 C 0.55121 0.68958 0.32462 0.0
C750 C 0.59151 0.70221 0.32287 0.0
H751 H 0.49125 0.64618 0.31326 0.0
H752 H 0.54217 0.70759 0.3345 0.0
C753 C 0.60203 0.67804 0.30985 0.0
C754 C 0.34986 0.85308 0.30304 0.0
C755 C 0.3696 0.88436 0.28844 0.0
H756 H 0.30228 0.82338 0.32598 0.0
C757 C 0.35613 0.91094 0.28699 0.0
H758 H 0.35877 0.83159 0.30443 0.0
C759 C 0.32323 0.9057 0.29897 0.0
C760 C 0.30323 0.87414 0.31317 0.0
H761 H 0.37094 0.93597 0.27656 0.0
H762 H 0.31335 0.9264 0.29701 0.0
C763 C 0.3173 0.84823 0.3154 0.0
C764 C 0.1021 0.43949 0.29635 0.0
C765 C 0.1317 0.47871 0.29974 0.0
H766 H 0.08376 0.38147 0.30431 0.0
C767 C 0.16534 0.48952 0.31583 0.0
H768 H 0.07534 0.43024 0.28464 0.0
C769 C 0.16989 0.46147 0.3275 0.0
C770 C 0.141 0.42211 0.32319 0.0
H771 H 0.18878 0.51948 0.31876 0.0
H772 H 0.19671 0.47048 0.33911 0.0
C773 C 0.10677 0.41154 0.30784 0.0
C774 C 0.32473 0.44185 0.28962 0.0
C775 C 0.35753 0.4586 0.30703 0.0
H776 H 0.26179 0.40671 0.28301 0.0
C777 C 0.35141 0.45326 0.33191 0.0
H778 H 0.32884 0.44555 0.27032 0.0
C779 C 0.31318 0.43097 0.33924 0.0
C780 C 0.28026 0.41362 0.32182 0.0
H781 H 0.37625 0.46587 0.34569 0.0
H782 H 0.30954 0.42699 0.35855 0.0
C783 C 0.28643 0.41968 0.29693 0.0
C784 C 0.54975 0.87334 0.32568 0.0
C785 C 0.54565 0.87898 0.30091 0.0
H786 H 0.57682 0.85544 0.35275 0.0
C787 C 0.56448 0.86786 0.28375 0.0
H788 H 0.53519 0.88127 0.33922 0.0
C789 C 0.5884 0.85285 0.29144 0.0
C790 C 0.59391 0.8488 0.31645 0.0
H791 H 0.56142 0.87171 0.2645 0.0
H792 H 0.60341 0.8455 0.27792 0.0
C793 C 0.5737 0.85858 0.33338 0.0
C794 C 0.13287 0.66891 0.3358 0.0
C795 C 0.1286 0.65308 0.31174 0.0
H796 H 0.14867 0.7193 0.35931 0.0
C797 C 0.13786 0.67719 0.29235 0.0
H798 H 0.12599 0.6509 0.35103 0.0
C799 C 0.15108 0.71667 0.29702 0.0
C800 C 0.15497 0.73246 0.32114 0.0
H801 H 0.13469 0.66535 0.27363 0.0
H802 H 0.15789 0.73465 0.28178 0.0
C803 C 0.14583 0.70813 0.34046 0.0
C804 C 0.79983 0.9978 0.34165 0.0
C805 C 0.81281 0.01519 0.36565 0.0
H806 H 0.76331 0.94573 0.31873 0.0
C807 C 0.79816 0.99238 0.38547 0.0
H808 H 0.81045 0.01486 0.32608 0.0
C809 C 0.77117 0.95267 0.38134 0.0
C810 C 0.75804 0.9352 0.35729 0.0
H811 H 0.80752 0.00539 0.40414 0.0
H812 H 0.76035 0.9358 0.39697 0.0
C813 C 0.77274 0.95822 0.3375 0.0
C814 C 0.03636 0.8037 0.39598 0.0
C815 C 1.00363 0.79016 0.37872 0.0
H816 H 0.09903 0.82762 0.4021 0.0
C817 C 1.00985 0.79195 0.35366 0.0
H818 H 0.03223 0.80235 0.4154 0.0
C819 C 0.04792 0.80617 0.34598 0.0
C820 C 0.08069 0.81892 0.36318 0.0
H821 H 0.98512 0.78155 0.33995 0.0
H822 H 0.05147 0.80647 0.32649 0.0
C823 C 0.07453 0.81808 0.38832 0.0
C824 C 0.22106 0.20993 0.34222 0.0
C825 C 0.22884 0.2039 0.36635 0.0
H826 H 0.20161 0.23938 0.31888 0.0
C827 C 0.22225 0.22337 0.38594 0.0
H828 H 0.22616 0.19541 0.32682 0.0
C829 C 0.20801 0.24849 0.38147 0.0
C830 C 0.20056 0.25487 0.35729 0.0
H831 H 0.22843 0.21931 0.40471 0.0
H832 H 0.20348 0.26333 0.39694 0.0
C833 C 0.20706 0.23517 0.33773 0.0
C834 C 0.66457 0.52851 0.70028 0.0
C835 C 0.66548 0.52923 0.72612 0.0
H836 H 0.69565 0.55464 0.66887 0.0
C837 C 0.70001 0.55778 0.73993 0.0
H838 H 0.63846 0.50745 0.68891 0.0
C839 C 0.73196 0.58536 0.72842 0.0
C840 C 0.7309 0.58466 0.70274 0.0
H841 H 0.70274 0.55879 0.75974 0.0
H842 H 0.75792 0.60705 0.73971 0.0
C843 C 0.6972 0.55566 0.68871 0.0
C844 C 0.50327 0.14996 0.71067 0.0
C845 C 0.49209 0.11758 0.72428 0.0
H846 H 0.48407 0.18147 0.68879 0.0
C847 C 0.45153 0.09061 0.72479 0.0
H848 H 0.53416 0.17153 0.71 0.0
C849 C 0.42295 0.09668 0.71301 0.0
C850 C 0.4341 0.12952 0.70001 0.0
H851 H 0.44169 0.06476 0.73445 0.0
H852 H 0.39201 0.07569 0.71426 0.0
C853 C 0.47456 0.15575 0.69855 0.0
C854 C 0.89114 0.35576 0.69113 0.0
C855 C 0.89013 0.36077 0.71669 0.0
H856 H 0.88557 0.31714 0.66047 0.0
C857 C 0.88056 0.32911 0.73069 0.0
H858 H 0.89863 0.37947 0.67976 0.0
C859 C 0.87457 0.2943 0.71978 0.0
C860 C 0.87661 0.28974 0.69449 0.0
H861 H 0.87793 0.33117 0.75022 0.0
H862 H 0.86817 0.27076 0.73116 0.0
C863 C 0.88393 0.32026 0.68007 0.0
C864 C 0.20164 0.98067 0.64804 0.0
C865 C 0.1947 0.97464 0.6223 0.0
H866 H 0.23635 0.0204 0.67908 0.0
C867 C 0.21714 0.00585 0.60824 0.0
H868 H 0.18525 0.95738 0.65951 0.0
C869 C 0.24711 0.0412 0.61941 0.0
C870 C 0.25459 0.04679 0.64497 0.0
H871 H 0.21184 0.00305 0.58848 0.0
H872 H 0.26435 0.06434 0.608 0.0
C873 C 0.23106 0.01663 0.65929 0.0
C874 C 0.02072 0.24281 0.61919 0.0
C875 C 0.03475 0.21675 0.62126 0.0
H876 H 0.97693 0.2574 0.62822 0.0
C877 C 0.01482 0.18539 0.63576 0.0
H878 H 0.03564 0.26785 0.60879 0.0
C879 C 0.98163 0.18004 0.64753 0.0
C880 C 0.96712 0.20551 0.64477 0.0
H881 H 0.02417 0.16428 0.63757 0.0
H882 H 0.96655 0.15521 0.65811 0.0
C883 C 0.98719 0.23705 0.63058 0.0
C884 C 0.77099 0.77195 0.63023 0.0
C885 C 0.79975 0.81138 0.63433 0.0
H886 H 0.75365 0.71392 0.63757 0.0
C887 C 0.83268 0.82251 0.65111 0.0
H888 H 0.74479 0.76247 0.6179 0.0
C889 C 0.83753 0.79461 0.66271 0.0
C890 C 0.80962 0.75508 0.65766 0.0
H891 H 0.85547 0.85266 0.65459 0.0
H892 H 0.8639 0.80392 0.67485 0.0
C893 C 0.77593 0.74413 0.64168 0.0
C894 C 0.99354 0.78039 0.62354 0.0
C895 C 0.02627 0.79924 0.64097 0.0
H896 H 0.931 0.74207 0.61695 0.0
C897 C 0.02036 0.79391 0.66588 0.0
H898 H 0.99749 0.78374 0.60419 0.0
C899 C 0.98247 0.76994 0.67324 0.0
C900 C 0.94964 0.75071 0.65582 0.0
H901 H 0.04516 0.80784 0.67968 0.0
H902 H 0.97906 0.76617 0.69259 0.0
C903 C 0.95556 0.75652 0.63088 0.0
C904 C 0.23253 0.20728 0.61989 0.0
C905 C 0.21322 0.21632 0.63779 0.0
H906 H 0.27272 0.18712 0.61235 0.0
C907 C 0.21842 0.20986 0.66226 0.0
H908 H 0.22872 0.21188 0.60087 0.0
C909 C 0.24356 0.19588 0.66889 0.0
C910 C 0.26391 0.18784 0.65115 0.0
H911 H 0.20362 0.21633 0.67638 0.0
H912 H 0.24738 0.19189 0.68803 0.0
C913 C 0.25762 0.19311 0.62649 0.0
C914 C 0.80217 0.00775 0.62441 0.0
C915 C 0.79253 0.98382 0.64389 0.0
H916 H 0.82248 0.06508 0.61355 0.0
C917 C 0.79636 -0.0002 0.66785 0.0
H918 H 0.79949 0.9958 0.60577 0.0
C919 C 0.80925 0.03904 0.6723 0.0
C920 C 0.81882 0.0632 0.65289 0.0
H921 H 0.78929 0.98193 0.68316 0.0
H922 H 0.81178 0.05038 0.69108 0.0
C923 C 0.81532 0.04723 0.62887 0.0
C924 C 0.47643 0.33634 0.68551 0.0
C925 C 0.48721 0.35073 0.71015 0.0
H926 H 0.44132 0.28739 0.66006 0.0
C927 C 0.47112 0.32518 0.72858 0.0
H928 H 0.48849 0.35544 0.67099 0.0
C929 C 0.44391 0.28584 0.72237 0.0
C930 C 0.43227 0.27168 0.69764 0.0
H931 H 0.47912 0.33585 0.74774 0.0
H932 H 0.43143 0.26681 0.73687 0.0
C933 C 0.44925 0.29732 0.67932 0.0
C934 C 0.70059 0.13447 0.72699 0.0
C935 C 0.66732 0.11896 0.70999 0.0
H936 H 0.76351 0.16054 0.73261 0.0
C937 C 0.67278 0.11938 0.68482 0.0
H938 H 0.69705 0.13427 0.74648 0.0
C939 C 0.71072 0.13422 0.6768 0.0
C940 C 0.74406 0.14897 0.69377 0.0
H941 H 0.6476 0.1075 0.67133 0.0
H942 H 0.71378 0.13343 0.65726 0.0
C943 C 0.73858 0.14945 0.71899 0.0
C944 C 0.8937 0.54578 0.67698 0.0
C945 C 0.90123 0.53965 0.70113 0.0
H946 H 0.87461 0.57544 0.65356 0.0
C947 C 0.89471 0.55924 0.72069 0.0
H948 H 0.89852 0.53097 0.66162 0.0
C949 C 0.88079 0.58458 0.71616 0.0
C950 C 0.87345 0.59097 0.69196 0.0
H951 H 0.90046 0.55489 0.73946 0.0
H952 H 0.87617 0.5994 0.7316 0.0
C953 C 0.88002 0.57125 0.67243 0.0
C954 C 0.46318 0.91359 0.19542 0.0
C955 C 0.45018 0.92768 0.21476 0.0
H956 H 0.48559 0.92197 0.16003 0.0
C957 C 0.44776 0.9612 0.21194 0.0
H958 H 0.46499 0.88761 0.19682 0.0
C959 C 0.45922 0.98078 0.19064 0.0
C960 C 0.47331 0.96727 0.1716 0.0
H961 H 0.43818 0.97304 0.22653 0.0
H962 H 0.45724 0.00665 0.18916 0.0
C963 C 0.47463 0.93313 0.17417 0.0
C964 C 0.09581 0.49726 0.20555 0.0
C965 C 0.08573 0.51569 0.22396 0.0
H966 H 0.08527 0.47453 0.16797 0.0
C967 C 0.05587 0.52452 0.21845 0.0
H968 H 0.11878 0.49022 0.20933 0.0
C969 C 0.03681 0.51561 0.19494 0.0
C970 C 0.04723 0.49776 0.17638 0.0
H971 H 0.04713 0.53826 0.23237 0.0
H972 H 0.01439 0.5234 0.19118 0.0
C973 C 0.07686 0.48856 0.18191 0.0
C974 C 0.50751 0.57749 0.20413 0.0
C975 C 0.49009 0.54737 0.21967 0.0
H976 H 0.53276 0.59513 0.17 0.0
C977 C 0.48315 0.51045 0.21165 0.0
H978 H 0.51287 0.60616 0.20971 0.0
C979 C 0.49445 0.50408 0.18884 0.0
C980 C 0.51266 0.53444 0.17352 0.0
H981 H 0.46999 0.48675 0.2233 0.0
H982 H 0.48899 0.47539 0.18321 0.0
C983 C 0.51861 0.57109 0.1813 0.0
C984 C 0.97723 0.49222 0.79865 0.0
C985 C 0.94608 0.45475 0.79102 0.0
H986 H 0.01947 0.52978 0.8279 0.0
C987 C 0.93304 0.42614 0.80776 0.0
H988 H 0.98799 0.51476 0.78609 0.0
C989 C 0.95113 0.4346 0.83153 0.0
C990 C 0.98269 0.47187 0.8391 0.0
H991 H 0.90877 0.3971 0.80247 0.0
H992 H 0.94082 0.41172 0.84385 0.0
C993 C 0.99548 0.50067 0.82247 0.0
C994 C 0.57398 0.46905 0.81755 0.0
C995 C 0.58271 0.49405 0.79872 0.0
H996 H 0.55533 0.45694 0.8537 0.0
C997 C 0.58033 0.52774 0.80271 0.0
H998 H 0.57615 0.44317 0.81511 0.0
C999 C 0.56804 0.53551 0.82479 0.0
C1000 C 0.55804 0.50979 0.84332 0.0
H1001 H 0.58651 0.54733 0.78843 0.0
H1002 H 0.56513 0.56099 0.827 0.0
C1003 C 0.56188 0.47686 0.83959 0.0
C1004 C 0.49302 0.04077 0.80076 0.0
C1005 C 0.53141 0.07167 0.79841 0.0
H1006 H 0.45278 0.00041 0.8241 0.0
C1007 C 0.55948 0.08482 0.81877 0.0
H1008 H 0.47079 0.02953 0.78538 0.0
C1009 C 0.54922 0.06774 0.841 0.0
C1010 C 0.51071 0.037 0.84335 0.0
H1011 H 0.58923 0.1087 0.81765 0.0
H1012 H 0.57159 0.07842 0.85628 0.0
C1013 C 0.48281 0.02373 0.82292 0.0
C1014 C 0.13248 0.24729 0.53032 0.0
C1015 C 0.11858 0.26129 0.54918 0.0
H1016 H 0.15495 0.255 0.49494 0.0
C1017 C 0.1151 0.29408 0.54569 0.0
H1018 H 0.13515 0.22188 0.53229 0.0
C1019 C 0.1262 0.31297 0.52413 0.0
C1020 C 0.14089 0.29942 0.50549 0.0
H1021 H 0.10482 0.30583 0.55991 0.0
H1022 H 0.12335 0.33826 0.52209 0.0
C1023 C 0.14348 0.26609 0.50878 0.0
C1024 C 0.77602 0.87685 0.53918 0.0
C1025 C 0.7604 0.84946 0.55661 0.0
H1026 H 0.76903 0.89129 0.50294 0.0
C1027 C 0.726 0.81367 0.54985 0.0
H1028 H 0.80268 0.90456 0.54383 0.0
C1029 C 0.70683 0.80598 0.52639 0.0
C1030 C 0.72176 0.83387 0.50922 0.0
H1031 H 0.71308 0.79214 0.56297 0.0
H1032 H 0.68006 0.77836 0.52178 0.0
C1033 C 0.75693 0.86913 0.51572 0.0
C1034 C 0.14892 0.84171 0.54348 0.0
C1035 C 0.15379 0.87839 0.54975 0.0
H1036 H 0.15594 0.80537 0.51651 0.0
C1037 C 0.16844 0.90648 0.53269 0.0
H1038 H 0.13782 0.81957 0.55632 0.0
C1039 C 0.17898 0.89852 0.51011 0.0
C1040 C 0.17512 0.86223 0.50399 0.0
H1041 H 0.17211 0.93489 0.53691 0.0
H1042 H 0.19107 0.9212 0.49767 0.0
C1043 C 0.15967 0.83376 0.52083 0.0
C1044 C 0.61847 0.82598 0.14099 0.0
C1045 C 0.63138 0.80961 0.12294 0.0
H1046 H 0.62397 0.84579 0.17872 0.0
C1047 C 0.66284 0.80344 0.12935 0.0
H1048 H 0.59422 0.83102 0.13672 0.0
C1049 C 0.67929 0.81107 0.15353 0.0
C1050 C 0.66499 0.82552 0.17188 0.0
H1051 H 0.67406 0.79161 0.11579 0.0
H1052 H 0.70196 0.80389 0.15797 0.0
C1053 C 0.63519 0.83397 0.16516 0.0
C1054 C 0.26598 0.85096 0.14602 0.0
C1055 C 0.23798 0.83058 0.12604 0.0
H1056 H 0.27603 0.87228 0.18381 0.0
C1057 C 0.19802 0.81848 0.12862 0.0
H1058 H 0.29695 0.86037 0.14456 0.0
C1059 C 0.18605 0.8255 0.15094 0.0
C1060 C 0.21374 0.84459 0.17128 0.0
H1061 H 0.1759 0.80329 0.11337 0.0
H1062 H 0.155 0.81576 0.15227 0.0
C1063 C 0.25397 0.85779 0.16847 0.0
C1064 C 0.18246 0.41772 0.15029 0.0
C1065 C 0.20166 0.40687 0.13324 0.0
H1066 H 0.15673 0.40855 0.18471 0.0
C1067 C 0.2107 0.3781 0.13879 0.0
H1068 H 0.17548 0.44011 0.14671 0.0
C1069 C 0.20006 0.36007 0.16068 0.0
C1070 C 0.18043 0.37064 0.17759 0.0
H1071 H 0.22528 0.36896 0.12599 0.0
H1072 H 0.20735 0.33794 0.16441 0.0
C1073 C 0.17205 0.39989 0.17219 0.0
C1074 C 0.7818 0.62761 0.87982 0.0
C1075 C 0.78352 0.59377 0.88285 0.0
H1076 H 0.79323 0.67356 0.85704 0.0
C1077 C 0.79578 0.57879 0.86359 0.0
H1078 H 0.77292 0.64016 0.8944 0.0
C1079 C 0.80753 0.59797 0.84224 0.0
C1080 C 0.80728 0.63261 0.83957 0.0
H1081 H 0.79677 0.5524 0.86513 0.0
H1082 H 0.81707 0.58574 0.82785 0.0
C1083 C 0.79354 0.64681 0.85842 0.0
C1084 C 0.39353 0.19662 0.88447 0.0
C1085 C 0.42234 0.18675 0.89089 0.0
H1086 H 0.35289 0.19524 0.85648 0.0
C1087 C 0.43153 0.16641 0.87325 0.0
H1088 H 0.3854 0.21181 0.89776 0.0
C1089 C 0.41254 0.15654 0.84957 0.0
C1090 C 0.38382 0.16659 0.84318 0.0
H1091 H 0.45372 0.15856 0.87766 0.0
H1092 H 0.42011 0.14081 0.83632 0.0
C1093 C 0.37453 0.18668 0.86091 0.0
C1094 C 0.81534 0.17589 0.87538 0.0
C1095 C 0.82103 0.21278 0.88209 0.0
H1096 H 0.82141 0.13951 0.84794 0.0
C1097 C 0.83638 0.24131 0.86532 0.0
H1098 H 0.80371 0.1534 0.88796 0.0
C1099 C 0.84662 0.23348 0.84257 0.0
C1100 C 0.84184 0.19692 0.83601 0.0
H1101 H 0.8407 0.26989 0.86987 0.0
H1102 H 0.85912 0.25641 0.83033 0.0
C1103 C 0.82584 0.1681 0.85259 0.0
C1104 C 0.32496 0.12967 0.46187 0.0
C1105 C 0.29138 0.13296 0.45644 0.0
H1106 H 0.36799 0.13446 0.48949 0.0
C1107 C 0.27687 0.14638 0.47519 0.0
H1108 H 0.33706 0.11982 0.44771 0.0
C1109 C 0.29474 0.15503 0.49908 0.0
C1110 C 0.32755 0.15054 0.50467 0.0
H1111 H 0.25089 0.14896 0.47158 0.0
H1112 H 0.28264 0.16489 0.51322 0.0
C1113 C 0.34287 0.13838 0.48574 0.0
C1114 C 0.90132 0.18855 0.46314 0.0
C1115 C 0.90139 0.15397 0.45736 0.0
H1116 H 0.89034 0.22232 0.48981 0.0
C1117 C 0.89087 0.12686 0.47503 0.0
H1118 H 0.90902 0.20989 0.44986 0.0
C1119 C 0.88001 0.13386 0.4978 0.0
C1120 C 0.87926 0.1681 0.50346 0.0
H1121 H 0.89102 0.10011 0.47123 0.0
H1122 H 0.87141 0.11202 0.5108 0.0
C1123 C 0.89024 0.19548 0.48591 0.0
C1124 C 0.85123 0.75104 0.48547 0.0
C1125 C 0.86947 0.73969 0.46801 0.0
H1126 H 0.82647 0.7422 0.52019 0.0
C1127 C 0.87795 0.71041 0.47317 0.0
H1128 H 0.8447 0.77382 0.48219 0.0
C1129 C 0.86762 0.69235 0.49506 0.0
C1130 C 0.84888 0.70339 0.51237 0.0
H1131 H 0.89179 0.70087 0.46004 0.0
H1132 H 0.87444 0.66981 0.49848 0.0
C1133 C 0.84111 0.73317 0.50737 0.0
loop_
_geom_bond_atom_site_label_1
_geom_bond_atom_site_label_2
_geom_bond_distance
_geom_bond_site_symmetry_2
_ccdc_geom_bond_type
H0 C7 0.929 . S
H1 C10 0.930 . S
H2 C12 0.929 . S
H3 C4 0.969 . S
C4 H3 0.969 . S
C4 O5 1.550 . S
C4 H6 0.973 . S
O5 C4 1.550 . S
O5 C11 1.412 . S
H6 C4 0.973 . S
C7 H0 0.929 . S
C7 C8 1.400 . S
C7 C9 1.364 . S
C8 C7 1.400 . S
C8 C12 1.377 . S
C9 C7 1.364 . S
C9 C10 1.374 . S
C10 H1 0.930 . S
C10 C9 1.374 . S
C10 C11 1.383 . S
C11 O5 1.412 . S
C11 C10 1.383 . S
C11 C12 1.394 . S
C12 H2 0.929 . S
C12 C8 1.377 . S
C12 C11 1.394 . S
H13 C20 0.929 . S
H14 C23 0.930 . S
H15 C25 0.929 . S
H16 C17 0.969 . S
C17 H16 0.969 . S
C17 O18 1.550 . S
C17 H19 0.973 . S
O18 C17 1.550 . S
O18 C24 1.412 . S
H19 C17 0.973 . S
C20 H13 0.929 . S
C20 C21 1.400 . S
C20 C22 1.364 . S
C21 C20 1.400 . S
C21 C25 1.377 . S
C22 C20 1.364 . S
C22 C23 1.374 . S
C23 H14 0.930 . S
C23 C22 1.374 . S
C23 C24 1.383 . S
C24 O18 1.412 . S
C24 C23 1.383 . S
C24 C25 1.394 . S
C25 H15 0.929 . S
C25 C21 1.377 . S
C25 C24 1.394 . S
H26 C33 0.929 . S
H27 C36 0.930 . S
H28 C38 0.929 . S
H29 C30 0.969 . S
C30 H29 0.969 . S
C30 O31 1.550 . S
C30 H32 0.973 . S
O31 C30 1.550 . S
O31 C37 1.412 . S
H32 C30 0.973 . S
C33 H26 0.929 . S
C33 C34 1.400 . S
C33 C35 1.364 . S
C34 C33 1.400 . S
C34 C38 1.377 . S
C35 C33 1.364 . S
C35 C36 1.374 . S
C36 H27 0.930 . S
C36 C35 1.374 . S
C36 C37 1.383 . S
C37 O31 1.412 . S
C37 C36 1.383 . S
C37 C38 1.394 . S
C38 H28 0.929 . S
C38 C34 1.377 . S
C38 C37 1.394 . S
H39 C46 0.929 . S
H40 C49 0.930 . S
H41 C51 0.929 . S
H42 C43 0.969 . S
C43 H42 0.969 . S
C43 O44 1.550 . S
C43 H45 0.973 . S
O44 C43 1.550 . S
O44 C50 1.412 . S
H45 C43 0.973 . S
C46 H39 0.929 . S
C46 C47 1.400 . S
C46 C48 1.364 . S
C47 C46 1.400 . S
C47 C51 1.377 . S
C48 C46 1.364 . S
C48 C49 1.374 . S
C49 H40 0.930 . S
C49 C48 1.374 . S
C49 C50 1.383 . S
C50 O44 1.412 . S
C50 C49 1.383 . S
C50 C51 1.394 . S
C51 H41 0.929 . S
C51 C47 1.377 . S
C51 C50 1.394 . S
H52 C59 0.929 . S
H53 C62 0.930 . S
H54 C64 0.929 . S
H55 C56 0.969 . S
C56 H55 0.969 . S
C56 O57 1.550 . S
C56 H58 0.973 . S
O57 C56 1.550 . S
O57 C63 1.412 . S
H58 C56 0.973 . S
C59 H52 0.929 . S
C59 C60 1.400 . S
C59 C61 1.364 . S
C60 C59 1.400 . S
C60 C64 1.377 . S
C61 C59 1.364 . S
C61 C62 1.374 . S
C62 H53 0.930 . S
C62 C61 1.374 . S
C62 C63 1.383 . S
C63 O57 1.412 . S
C63 C62 1.383 . S
C63 C64 1.394 . S
C64 H54 0.929 . S
C64 C60 1.377 . S
C64 C63 1.394 . S
H65 C72 0.929 . S
H66 C75 0.930 . S
H67 C77 0.929 . S
H68 C69 0.969 . S
C69 H68 0.969 . S
C69 O70 1.550 . S
C69 H71 0.973 . S
O70 C69 1.550 . S
O70 C76 1.412 . S
H71 C69 0.973 . S
C72 H65 0.929 . S
C72 C73 1.400 . S
C72 C74 1.364 . S
C73 C72 1.400 . S
C73 C77 1.377 . S
C74 C72 1.364 . S
C74 C75 1.374 . S
C75 H66 0.930 . S
C75 C74 1.374 . S
C75 C76 1.383 . S
C76 O70 1.412 . S
C76 C75 1.383 . S
C76 C77 1.394 . S
C77 H67 0.929 . S
C77 C73 1.377 . S
C77 C76 1.394 . S
H78 C85 0.929 . S
H79 C88 0.930 . S
H80 C90 0.929 . S
H81 C82 0.969 . S
C82 H81 0.969 . S
C82 O83 1.550 . S
C82 H84 0.973 . S
O83 C82 1.550 . S
O83 C89 1.412 . S
H84 C82 0.973 . S
C85 H78 0.929 . S
C85 C86 1.400 . S
C85 C87 1.364 . S
C86 C85 1.400 . S
C86 C90 1.377 . S
C87 C85 1.364 . S
C87 C88 1.374 . S
C88 H79 0.930 . S
C88 C87 1.374 . S
C88 C89 1.383 . S
C89 O83 1.412 . S
C89 C88 1.383 . S
C89 C90 1.394 . S
C90 H80 0.929 . S
C90 C86 1.377 . S
C90 C89 1.394 . S
H91 C98 0.929 . S
H92 C101 0.930 . S
H93 C103 0.929 . S
H94 C95 0.969 . S
C95 H94 0.969 . S
C95 O96 1.550 . S
C95 H97 0.973 . S
O96 C95 1.550 . S
O96 C102 1.412 . S
H97 C95 0.973 . S
C98 H91 0.929 . S
C98 C99 1.400 . S
C98 C100 1.364 . S
C99 C98 1.400 . S
C99 C103 1.377 . S
C100 C98 1.364 . S
C100 C101 1.374 . S
C101 H92 0.930 . S
C101 C100 1.374 . S
C101 C102 1.383 . S
C102 O96 1.412 . S
C102 C101 1.383 . S
C102 C103 1.394 . S
C103 H93 0.929 . S
C103 C99 1.377 . S
C103 C102 1.394 . S
H104 C111 0.929 . S
H105 C114 0.930 . S
H106 C116 0.929 . S
H107 C108 0.969 . S
C108 H107 0.969 . S
C108 O109 1.550 . S
C108 H110 0.973 . S
O109 C108 1.550 . S
O109 C115 1.412 . S
H110 C108 0.973 . S
C111 H104 0.929 . S
C111 C112 1.400 . S
C111 C113 1.364 . S
C112 C111 1.400 . S
C112 C116 1.377 . S
C113 C111 1.364 . S
C113 C114 1.374 . S
C114 H105 0.930 . S
C114 C113 1.374 . S
C114 C115 1.383 . S
C115 O109 1.412 . S
C115 C114 1.383 . S
C115 C116 1.394 . S
C116 H106 0.929 . S
C116 C112 1.377 . S
C116 C115 1.394 . S
H117 C124 0.929 . S
H118 C127 0.930 . S
H119 C129 0.929 . S
H120 C121 0.969 . S
C121 H120 0.969 . S
C121 O122 1.550 . S
C121 H123 0.973 . S
O122 C121 1.550 . S
O122 C128 1.412 . S
H123 C121 0.973 . S
C124 H117 0.929 . S
C124 C125 1.400 . S
C124 C126 1.364 . S
C125 C124 1.400 . S
C125 C129 1.377 . S
C126 C124 1.364 . S
C126 C127 1.374 . S
C127 H118 0.930 . S
C127 C126 1.374 . S
C127 C128 1.383 . S
C128 O122 1.412 . S
C128 C127 1.383 . S
C128 C129 1.394 . S
C129 H119 0.929 . S
C129 C125 1.377 . S
C129 C128 1.394 . S
H130 C137 0.929 . S
H131 C140 0.930 . S
H132 C142 0.929 1_554 S
H133 C134 0.969 . S
C134 H133 0.969 . S
C134 O135 1.550 . S
C134 H136 0.973 . S
O135 C134 1.550 . S
O135 C141 1.412 . S
H136 C134 0.973 . S
C137 H130 0.929 . S
C137 C138 1.400 . S
C137 C139 1.364 . S
C138 C137 1.400 . S
C138 C142 1.377 . S
C139 C137 1.364 . S
C139 C140 1.374 . S
C140 H131 0.930 . S
C140 C139 1.374 . S
C140 C141 1.383 . S
C141 O135 1.412 . S
C141 C140 1.383 . S
C141 C142 1.394 . S
C142 H132 0.929 1_556 S
C142 C138 1.377 . S
C142 C141 1.394 . S
H143 C150 0.929 . S
H144 C153 0.930 . S
H145 C155 0.929 . S
H146 C147 0.969 . S
C147 H146 0.969 . S
C147 O148 1.550 . S
C147 H149 0.973 . S
O148 C147 1.550 . S
O148 C154 1.412 . S
H149 C147 0.973 . S
C150 H143 0.929 . S
C150 C151 1.400 . S
C150 C152 1.364 . S
C151 C150 1.400 . S
C151 C155 1.377 . S
C152 C150 1.364 . S
C152 C153 1.374 . S
C153 H144 0.930 . S
C153 C152 1.374 . S
C153 C154 1.383 . S
C154 O148 1.412 . S
C154 C153 1.383 . S
C154 C155 1.394 . S
C155 H145 0.929 . S
C155 C151 1.377 . S
C155 C154 1.394 . S
H156 C163 0.929 . S
H157 C166 0.930 . S
H158 C168 0.929 . S
H159 C160 0.969 . S
C160 H159 0.969 . S
C160 O161 1.550 . S
C160 H162 0.973 . S
O161 C160 1.550 . S
O161 C167 1.412 . S
H162 C160 0.973 . S
C163 H156 0.929 . S
C163 C164 1.400 . S
C163 C165 1.364 . S
C164 C163 1.400 . S
C164 C168 1.377 . S
C165 C163 1.364 . S
C165 C166 1.374 . S
C166 H157 0.930 . S
C166 C165 1.374 . S
C166 C167 1.383 . S
C167 O161 1.412 . S
C167 C166 1.383 . S
C167 C168 1.394 . S
C168 H158 0.929 . S
C168 C164 1.377 . S
C168 C167 1.394 . S
H169 C176 0.929 . S
H170 C179 0.930 . S
H171 C181 0.929 . S
H172 C173 0.969 . S
C173 H172 0.969 . S
C173 O174 1.550 . S
C173 H175 0.973 . S
O174 C173 1.550 . S
O174 C180 1.412 . S
H175 C173 0.973 . S
C176 H169 0.929 . S
C176 C177 1.400 . S
C176 C178 1.364 . S
C177 C176 1.400 . S
C177 C181 1.377 . S
C178 C176 1.364 . S
C178 C179 1.374 . S
C179 H170 0.930 . S
C179 C178 1.374 . S
C179 C180 1.383 . S
C180 O174 1.412 . S
C180 C179 1.383 . S
C180 C181 1.394 . S
C181 H171 0.929 . S
C181 C177 1.377 . S
C181 C180 1.394 . S
H182 C189 0.929 . S
H183 C192 0.930 . S
H184 C194 0.929 . S
H185 C186 0.969 . S
C186 H185 0.969 . S
C186 O187 1.550 . S
C186 H188 0.973 . S
O187 C186 1.550 . S
O187 C193 1.412 . S
H188 C186 0.973 . S
C189 H182 0.929 . S
C189 C190 1.400 . S
C189 C191 1.364 . S
C190 C189 1.400 . S
C190 C194 1.377 . S
C191 C189 1.364 . S
C191 C192 1.374 . S
C192 H183 0.930 . S
C192 C191 1.374 . S
C192 C193 1.383 . S
C193 O187 1.412 . S
C193 C192 1.383 . S
C193 C194 1.394 . S
C194 H184 0.929 . S
C194 C190 1.377 . S
C194 C193 1.394 . S
H195 C202 0.929 . S
H196 C205 0.930 . S
H197 C207 0.929 . S
H198 C199 0.969 . S
C199 H198 0.969 . S
C199 O200 1.550 . S
C199 H201 0.973 . S
O200 C199 1.550 . S
O200 C206 1.412 . S
H201 C199 0.973 . S
C202 H195 0.929 . S
C202 C203 1.400 . S
C202 C204 1.364 . S
C203 C202 1.400 . S
C203 C207 1.377 . S
C204 C202 1.364 . S
C204 C205 1.374 . S
C205 H196 0.930 . S
C205 C204 1.374 . S
C205 C206 1.383 . S
C206 O200 1.412 . S
C206 C205 1.383 . S
C206 C207 1.394 . S
C207 H197 0.929 . S
C207 C203 1.377 . S
C207 C206 1.394 . S
H208 C215 0.929 . S
H209 C218 0.930 . S
H210 C220 0.929 . S
H211 C212 0.969 . S
C212 H211 0.969 . S
C212 O213 1.550 . S
C212 H214 0.973 . S
O213 C212 1.550 . S
O213 C219 1.412 . S
H214 C212 0.973 . S
C215 H208 0.929 . S
C215 C216 1.400 . S
C215 C217 1.364 . S
C216 C215 1.400 . S
C216 C220 1.377 . S
C217 C215 1.364 . S
C217 C218 1.374 . S
C218 H209 0.930 . S
C218 C217 1.374 . S
C218 C219 1.383 . S
C219 O213 1.412 . S
C219 C218 1.383 . S
C219 C220 1.394 . S
C220 H210 0.929 . S
C220 C216 1.377 . S
C220 C219 1.394 . S
H221 C228 0.929 . S
H222 C231 0.930 . S
H223 C233 0.929 . S
H224 C225 0.969 . S
C225 H224 0.969 . S
C225 O226 1.550 . S
C225 H227 0.973 . S
O226 C225 1.550 . S
O226 C232 1.412 . S
H227 C225 0.973 . S
C228 H221 0.929 . S
C228 C229 1.400 . S
C228 C230 1.364 . S
C229 C228 1.400 . S
C229 C233 1.377 . S
C230 C228 1.364 . S
C230 C231 1.374 . S
C231 H222 0.930 . S
C231 C230 1.374 . S
C231 C232 1.383 . S
C232 O226 1.412 . S
C232 C231 1.383 . S
C232 C233 1.394 . S
C233 H223 0.929 . S
C233 C229 1.377 . S
C233 C232 1.394 . S
Eu234 C243 2.828 1_565 S
Eu234 O245 2.392 . S
Eu234 O247 2.418 . S
Eu234 O252 2.373 1_565 S
Eu234 O255 2.488 . S
Eu234 O256 2.471 1_565 S
Eu234 O257 2.349 1_565 S
Eu235 O244 2.373 1_545 S
Eu235 O248 2.488 . S
Eu235 O249 2.471 1_545 S
Eu235 O250 2.349 1_545 S
Eu235 O253 2.392 . S
Eu235 O254 2.418 . S
Eu235 C264 2.828 . S
C236 O254 1.244 . S
C236 O257 1.265 1_554 S
C237 C238 1.379 . S
C237 C241 1.373 1_545 S
C237 C243 1.505 . S
C238 C237 1.379 . S
C238 C240 1.369 . S
C238 H266 0.930 . S
C239 C241 1.383 1_545 S
C239 C242 1.382 . S
C239 H267 0.930 1_545 S
C240 C238 1.369 . S
C240 C242 1.392 . S
C240 H268 0.930 . S
C241 C237 1.373 1_565 S
C241 C239 1.383 1_565 S
C241 H269 0.931 . S
C242 C239 1.382 . S
C242 C240 1.392 . S
C243 Eu234 2.828 1_545 S
C243 C237 1.505 . S
C243 O255 1.249 1_545 S
C243 O256 1.244 . S
O244 Eu235 2.373 1_565 S
O244 C246 1.258 . S
O245 Eu234 2.392 . S
O245 C246 1.242 1_556 S
C246 O244 1.258 . S
C246 O245 1.242 1_554 S
O247 Eu234 2.418 . S
O247 C251 1.244 1_556 S
O248 Eu235 2.488 . S
O248 C264 1.249 . S
O249 Eu235 2.471 1_565 S
O249 C264 1.244 1_565 S
O250 Eu235 2.349 1_565 S
O250 C251 1.265 . S
C251 O247 1.244 1_554 S
C251 O250 1.265 . S
O252 Eu234 2.373 1_545 S
O252 C265 1.258 . S
O253 Eu235 2.392 . S
O253 C265 1.242 1_554 S
O254 Eu235 2.418 . S
O254 C236 1.244 . S
O255 Eu234 2.488 . S
O255 C243 1.249 1_565 S
O256 Eu234 2.471 1_545 S
O256 C243 1.244 . S
O257 Eu234 2.349 1_545 S
O257 C236 1.265 1_556 S
C258 C259 1.379 . S
C258 C262 1.373 1_565 S
C258 C264 1.505 1_565 S
C259 C258 1.379 . S
C259 C261 1.369 . S
C259 H270 0.930 . S
C260 C262 1.383 . S
C260 C263 1.382 1_545 S
C260 H271 0.930 . S
C261 C259 1.369 . S
C261 C263 1.392 . S
C261 H272 0.930 . S
C262 C258 1.373 1_545 S
C262 C260 1.383 . S
C262 H273 0.931 . S
C263 C260 1.382 1_565 S
C263 C261 1.392 . S
C264 Eu235 2.828 . S
C264 O248 1.249 . S
C264 O249 1.244 1_545 S
C264 C258 1.505 1_545 S
C265 O252 1.258 . S
C265 O253 1.242 1_556 S
H266 C238 0.930 . S
H267 C239 0.930 1_565 S
H268 C240 0.930 . S
H269 C241 0.931 . S
H270 C259 0.930 . S
H271 C260 0.930 . S
H272 C261 0.930 . S
H273 C262 0.931 . S
Eu274 C283 2.827 1_455 S
Eu274 O285 2.392 1_556 S
Eu274 O287 2.418 . S
Eu274 O292 2.373 1_455 S
Eu274 O295 2.488 . S
Eu274 O296 2.471 1_455 S
Eu274 O297 2.349 1_455 S
Eu275 O284 2.373 1_655 S
Eu275 O288 2.488 . S
Eu275 O289 2.471 1_655 S
Eu275 O290 2.349 1_655 S
Eu275 O293 2.392 . S
Eu275 O294 2.418 . S
Eu275 C304 2.828 1_655 S
C276 O294 1.244 1_556 S
C276 O297 1.265 . S
C277 C278 1.379 . S
C277 C281 1.373 1_655 S
C277 C283 1.507 . S
C278 C277 1.379 . S
C278 C280 1.369 . S
C278 H306 0.930 . S
C279 C281 1.383 1_655 S
C279 C282 1.382 . S
C279 H307 0.930 1_655 S
C280 C278 1.369 . S
C280 C282 1.392 . S
C280 H308 0.930 . S
C281 C277 1.373 1_455 S
C281 C279 1.383 1_455 S
C281 H309 0.931 . S
C282 C279 1.382 . S
C282 C280 1.392 . S
C283 Eu274 2.827 1_655 S
C283 C277 1.507 . S
C283 O295 1.247 1_655 S
C283 O296 1.245 . S
O284 Eu275 2.373 1_455 S
O284 C286 1.258 . S
O285 Eu274 2.392 1_554 S
O285 C286 1.242 . S
C286 O284 1.258 . S
C286 O285 1.242 . S
O287 Eu274 2.418 . S
O287 C291 1.244 1_556 S
O288 Eu275 2.488 . S
O288 C304 1.249 1_655 S
O289 Eu275 2.471 1_455 S
O289 C304 1.244 . S
O290 Eu275 2.349 1_455 S
O290 C291 1.265 . S
C291 O287 1.244 1_554 S
C291 O290 1.265 . S
O292 Eu274 2.373 1_655 S
O292 C305 1.258 . S
O293 Eu275 2.392 . S
O293 C305 1.242 1_554 S
O294 Eu275 2.418 . S
O294 C276 1.244 1_554 S
O295 Eu274 2.488 . S
O295 C283 1.247 1_455 S
O296 Eu274 2.471 1_655 S
O296 C283 1.245 . S
O297 Eu274 2.349 1_655 S
O297 C276 1.265 . S
C298 C299 1.379 . S
C298 C302 1.373 1_455 S
C298 C304 1.505 . S
C299 C298 1.379 . S
C299 C301 1.369 . S
C299 H310 0.930 . S
C300 C302 1.383 1_455 S
C300 C303 1.382 . S
C300 H311 0.930 1_455 S
C301 C299 1.369 . S
C301 C303 1.392 . S
C301 H312 0.930 . S
C302 C298 1.373 1_655 S
C302 C300 1.383 1_655 S
C302 H313 0.931 . S
C303 C300 1.382 . S
C303 C301 1.392 . S
C304 Eu275 2.828 1_455 S
C304 O288 1.249 1_455 S
C304 O289 1.244 . S
C304 C298 1.505 . S
C305 O292 1.258 . S
C305 O293 1.242 1_556 S
H306 C278 0.930 . S
H307 C279 0.930 1_455 S
H308 C280 0.930 . S
H309 C281 0.931 . S
H310 C299 0.930 . S
H311 C300 0.930 1_655 S
H312 C301 0.930 . S
H313 C302 0.931 . S
Eu314 C323 2.828 . S
Eu314 O325 2.392 . S
Eu314 O327 2.418 . S
Eu314 O332 2.373 . S
Eu314 O335 2.488 . S
Eu314 O336 2.471 . S
Eu314 O337 2.349 . S
Eu315 O324 2.373 . S
Eu315 O328 2.488 . S
Eu315 O329 2.471 . S
Eu315 O330 2.349 . S
Eu315 O333 2.392 1_556 S
Eu315 O334 2.418 . S
Eu315 C344 2.828 . S
C316 O334 1.244 1_554 S
C316 O337 1.265 . S
C317 C318 1.379 . S
C317 C321 1.373 . S
C317 C323 1.505 . S
C318 C317 1.379 . S
C318 C320 1.369 . S
C318 H346 0.930 . S
C319 C321 1.383 . S
C319 C322 1.382 . S
C319 H347 0.930 . S
C320 C318 1.369 . S
C320 C322 1.392 . S
C320 H348 0.930 . S
C321 C317 1.373 . S
C321 C319 1.383 . S
C321 H349 0.931 . S
C322 C319 1.382 . S
C322 C320 1.392 . S
C323 Eu314 2.828 . S
C323 C317 1.505 . S
C323 O335 1.249 . S
C323 O336 1.244 . S
O324 Eu315 2.373 . S
O324 C326 1.258 . S
O325 Eu314 2.392 . S
O325 C326 1.242 1_554 S
C326 O324 1.258 . S
C326 O325 1.242 1_556 S
O327 Eu314 2.418 . S
O327 C331 1.244 . S
O328 Eu315 2.488 . S
O328 C344 1.249 . S
O329 Eu315 2.471 . S
O329 C344 1.244 . S
O330 Eu315 2.349 . S
O330 C331 1.265 1_556 S
C331 O327 1.244 . S
C331 O330 1.265 1_554 S
O332 Eu314 2.373 . S
O332 C345 1.258 . S
O333 Eu315 2.392 1_554 S
O333 C345 1.242 . S
O334 Eu315 2.418 . S
O334 C316 1.244 1_556 S
O335 Eu314 2.488 . S
O335 C323 1.249 . S
O336 Eu314 2.471 . S
O336 C323 1.244 . S
O337 Eu314 2.349 . S
O337 C316 1.265 . S
C338 C339 1.379 . S
C338 C342 1.373 . S
C338 C344 1.505 . S
C339 C338 1.379 . S
C339 C341 1.369 . S
C339 H350 0.930 . S
C340 C342 1.383 . S
C340 C343 1.382 . S
C340 H351 0.930 . S
C341 C339 1.369 . S
C341 C343 1.392 . S
C341 H352 0.930 . S
C342 C338 1.373 . S
C342 C340 1.383 . S
C342 H353 0.931 . S
C343 C340 1.382 . S
C343 C341 1.392 . S
C344 Eu315 2.828 . S
C344 O328 1.249 . S
C344 O329 1.244 . S
C344 C338 1.505 . S
C345 O332 1.258 . S
C345 O333 1.242 . S
H346 C318 0.930 . S
H347 C319 0.930 . S
H348 C320 0.930 . S
H349 C321 0.931 . S
H350 C339 0.930 . S
H351 C340 0.930 . S
H352 C341 0.930 . S
H353 C342 0.931 . S
Eu354 C363 2.828 . S
Eu354 O365 2.392 . S
Eu354 O367 2.418 . S
Eu354 O372 2.373 . S
Eu354 O375 2.488 . S
Eu354 O376 2.471 . S
Eu354 O377 2.349 . S
Eu355 O364 2.373 . S
Eu355 O368 2.488 . S
Eu355 O369 2.471 . S
Eu355 O370 2.349 . S
Eu355 O373 2.392 . S
Eu355 O374 2.418 . S
Eu355 C384 2.828 . S
C356 O374 1.244 . S
C356 O377 1.265 . S
C357 C358 1.379 . S
C357 C361 1.373 . S
C357 C363 1.505 . S
C358 C357 1.379 . S
C358 C360 1.369 . S
C358 H386 0.930 . S
C359 C361 1.383 . S
C359 C362 1.382 . S
C359 H387 0.930 . S
C360 C358 1.369 . S
C360 C362 1.392 . S
C360 H388 0.930 . S
C361 C357 1.373 . S
C361 C359 1.383 . S
C361 H389 0.931 . S
C362 C359 1.382 . S
C362 C360 1.392 . S
C363 Eu354 2.828 . S
C363 C357 1.505 . S
C363 O375 1.249 . S
C363 O376 1.244 . S
O364 Eu355 2.373 . S
O364 C366 1.258 . S
O365 Eu354 2.392 . S
O365 C366 1.242 . S
C366 O364 1.258 . S
C366 O365 1.242 . S
O367 Eu354 2.418 . S
O367 C371 1.244 . S
O368 Eu355 2.488 . S
O368 C384 1.249 . S
O369 Eu355 2.471 . S
O369 C384 1.244 . S
O370 Eu355 2.349 . S
O370 C371 1.265 . S
C371 O367 1.244 . S
C371 O370 1.265 . S
O372 Eu354 2.373 . S
O372 C385 1.258 . S
O373 Eu355 2.392 . S
O373 C385 1.242 . S
O374 Eu355 2.418 . S
O374 C356 1.244 . S
O375 Eu354 2.488 . S
O375 C363 1.249 . S
O376 Eu354 2.471 . S
O376 C363 1.244 . S
O377 Eu354 2.349 . S
O377 C356 1.265 . S
C378 C379 1.379 . S
C378 C382 1.373 . S
C378 C384 1.505 . S
C379 C378 1.379 . S
C379 C381 1.369 . S
C379 H390 0.930 . S
C380 C382 1.383 . S
C380 C383 1.382 . S
C380 H391 0.930 . S
C381 C379 1.369 . S
C381 C383 1.392 . S
C381 H392 0.930 . S
C382 C378 1.373 . S
C382 C380 1.383 . S
C382 H393 0.931 . S
C383 C380 1.382 . S
C383 C381 1.392 . S
C384 Eu355 2.828 . S
C384 O368 1.249 . S
C384 O369 1.244 . S
C384 C378 1.505 . S
C385 O372 1.258 . S
C385 O373 1.242 . S
H386 C358 0.930 . S
H387 C359 0.930 . S
H388 C360 0.930 . S
H389 C361 0.931 . S
H390 C379 0.930 . S
H391 C380 0.930 . S
H392 C381 0.930 . S
H393 C382 0.931 . S
Eu394 C403 2.828 . S
Eu394 O405 2.392 . S
Eu394 O407 2.418 . S
Eu394 O412 2.373 . S
Eu394 O415 2.488 . S
Eu394 O416 2.471 . S
Eu394 O417 2.349 . S
Eu395 O404 2.373 . S
Eu395 O408 2.488 . S
Eu395 O409 2.471 . S
Eu395 O410 2.349 . S
Eu395 O413 2.392 . S
Eu395 O414 2.418 . S
Eu395 C424 2.828 . S
C396 O414 1.244 . S
C396 O417 1.265 . S
C397 C398 1.379 . S
C397 C401 1.373 . S
C397 C403 1.505 . S
C398 C397 1.379 . S
C398 C400 1.369 . S
C398 H426 0.930 . S
C399 C401 1.383 . S
C399 C402 1.382 . S
C399 H427 0.930 . S
C400 C398 1.369 . S
C400 C402 1.392 . S
C400 H428 0.930 . S
C401 C397 1.373 . S
C401 C399 1.383 . S
C401 H429 0.931 . S
C402 C399 1.382 . S
C402 C400 1.392 . S
C403 Eu394 2.828 . S
C403 C397 1.505 . S
C403 O415 1.249 . S
C403 O416 1.244 . S
O404 Eu395 2.373 . S
O404 C406 1.258 . S
O405 Eu394 2.392 . S
O405 C406 1.242 . S
C406 O404 1.258 . S
C406 O405 1.242 . S
O407 Eu394 2.418 . S
O407 C411 1.244 . S
O408 Eu395 2.488 . S
O408 C424 1.249 . S
O409 Eu395 2.471 . S
O409 C424 1.244 . S
O410 Eu395 2.349 . S
O410 C411 1.265 . S
C411 O407 1.244 . S
C411 O410 1.265 . S
O412 Eu394 2.373 . S
O412 C425 1.258 . S
O413 Eu395 2.392 . S
O413 C425 1.242 . S
O414 Eu395 2.418 . S
O414 C396 1.244 . S
O415 Eu394 2.488 . S
O415 C403 1.249 . S
O416 Eu394 2.471 . S
O416 C403 1.244 . S
O417 Eu394 2.349 . S
O417 C396 1.265 . S
C418 C419 1.379 . S
C418 C422 1.373 . S
C418 C424 1.505 . S
C419 C418 1.379 . S
C419 C421 1.369 . S
C419 H430 0.930 . S
C420 C422 1.383 . S
C420 C423 1.382 . S
C420 H431 0.930 . S
C421 C419 1.369 . S
C421 C423 1.392 . S
C421 H432 0.930 . S
C422 C418 1.373 . S
C422 C420 1.383 . S
C422 H433 0.931 . S
C423 C420 1.382 . S
C423 C421 1.392 . S
C424 Eu395 2.828 . S
C424 O408 1.249 . S
C424 O409 1.244 . S
C424 C418 1.505 . S
C425 O412 1.258 . S
C425 O413 1.242 . S
H426 C398 0.930 . S
H427 C399 0.930 . S
H428 C400 0.930 . S
H429 C401 0.931 . S
H430 C419 0.930 . S
H431 C420 0.930 . S
H432 C421 0.930 . S
H433 C422 0.931 . S
Eu434 C443 2.828 . S
Eu434 O445 2.392 . S
Eu434 O447 2.418 . S
Eu434 O452 2.373 . S
Eu434 O455 2.488 . S
Eu434 O456 2.471 . S
Eu434 O457 2.349 . S
Eu435 O444 2.373 . S
Eu435 O448 2.488 . S
Eu435 O449 2.471 . S
Eu435 O450 2.349 . S
Eu435 O453 2.392 . S
Eu435 O454 2.418 . S
Eu435 C464 2.828 . S
C436 O454 1.244 . S
C436 O457 1.265 . S
C437 C438 1.379 . S
C437 C441 1.373 . S
C437 C443 1.505 . S
C438 C437 1.379 . S
C438 C440 1.369 . S
C438 H466 0.930 . S
C439 C441 1.383 . S
C439 C442 1.382 . S
C439 H467 0.930 . S
C440 C438 1.369 . S
C440 C442 1.392 . S
C440 H468 0.930 . S
C441 C437 1.373 . S
C441 C439 1.383 . S
C441 H469 0.931 . S
C442 C439 1.382 . S
C442 C440 1.392 . S
C443 Eu434 2.828 . S
C443 C437 1.505 . S
C443 O455 1.249 . S
C443 O456 1.244 . S
O444 Eu435 2.373 . S
O444 C446 1.258 . S
O445 Eu434 2.392 . S
O445 C446 1.242 . S
C446 O444 1.258 . S
C446 O445 1.242 . S
O447 Eu434 2.418 . S
O447 C451 1.244 . S
O448 Eu435 2.488 . S
O448 C464 1.249 . S
O449 Eu435 2.471 . S
O449 C464 1.244 . S
O450 Eu435 2.349 . S
O450 C451 1.265 . S
C451 O447 1.244 . S
C451 O450 1.265 . S
O452 Eu434 2.373 . S
O452 C465 1.258 . S
O453 Eu435 2.392 . S
O453 C465 1.242 . S
O454 Eu435 2.418 . S
O454 C436 1.244 . S
O455 Eu434 2.488 . S
O455 C443 1.249 . S
O456 Eu434 2.471 . S
O456 C443 1.244 . S
O457 Eu434 2.349 . S
O457 C436 1.265 . S
C458 C459 1.379 . S
C458 C462 1.373 . S
C458 C464 1.505 . S
C459 C458 1.379 . S
C459 C461 1.369 . S
C459 H470 0.930 . S
C460 C462 1.383 . S
C460 C463 1.382 . S
C460 H471 0.930 . S
C461 C459 1.369 . S
C461 C463 1.392 . S
C461 H472 0.930 . S
C462 C458 1.373 . S
C462 C460 1.383 . S
C462 H473 0.931 . S
C463 C460 1.382 . S
C463 C461 1.392 . S
C464 Eu435 2.828 . S
C464 O448 1.249 . S
C464 O449 1.244 . S
C464 C458 1.505 . S
C465 O452 1.258 . S
C465 O453 1.242 . S
H466 C438 0.930 . S
H467 C439 0.930 . S
H468 C440 0.930 . S
H469 C441 0.931 . S
H470 C459 0.930 . S
H471 C460 0.930 . S
H472 C461 0.930 . S
H473 C462 0.931 . S
Eu474 C483 2.828 . S
Eu474 O485 2.392 . S
Eu474 O487 2.418 . S
Eu474 O492 2.373 . S
Eu474 O495 2.488 . S
Eu474 O496 2.471 . S
Eu474 O497 2.349 . S
Eu475 O484 2.373 . S
Eu475 O488 2.488 . S
Eu475 O489 2.471 . S
Eu475 O490 2.349 . S
Eu475 O493 2.392 . S
Eu475 O494 2.418 . S
Eu475 C504 2.828 . S
C476 O494 1.244 . S
C476 O497 1.265 . S
C477 C478 1.379 . S
C477 C481 1.373 . S
C477 C483 1.505 . S
C478 C477 1.379 . S
C478 C480 1.369 . S
C478 H506 0.930 . S
C479 C481 1.383 . S
C479 C482 1.382 . S
C479 H507 0.930 . S
C480 C478 1.369 . S
C480 C482 1.392 . S
C480 H508 0.930 . S
C481 C477 1.373 . S
C481 C479 1.383 . S
C481 H509 0.931 . S
C482 C479 1.382 . S
C482 C480 1.392 . S
C483 Eu474 2.828 . S
C483 C477 1.505 . S
C483 O495 1.249 . S
C483 O496 1.244 . S
O484 Eu475 2.373 . S
O484 C486 1.258 . S
O485 Eu474 2.392 . S
O485 C486 1.242 . S
C486 O484 1.258 . S
C486 O485 1.242 . S
O487 Eu474 2.418 . S
O487 C491 1.244 . S
O488 Eu475 2.488 . S
O488 C504 1.249 . S
O489 Eu475 2.471 . S
O489 C504 1.244 . S
O490 Eu475 2.349 . S
O490 C491 1.265 . S
C491 O487 1.244 . S
C491 O490 1.265 . S
O492 Eu474 2.373 . S
O492 C505 1.258 . S
O493 Eu475 2.392 . S
O493 C505 1.242 . S
O494 Eu475 2.418 . S
O494 C476 1.244 . S
O495 Eu474 2.488 . S
O495 C483 1.249 . S
O496 Eu474 2.471 . S
O496 C483 1.244 . S
O497 Eu474 2.349 . S
O497 C476 1.265 . S
C498 C499 1.379 . S
C498 C502 1.373 . S
C498 C504 1.505 . S
C499 C498 1.379 . S
C499 C501 1.369 . S
C499 H510 0.930 . S
C500 C502 1.383 . S
C500 C503 1.382 . S
C500 H511 0.930 . S
C501 C499 1.369 . S
C501 C503 1.392 . S
C501 H512 0.930 . S
C502 C498 1.373 . S
C502 C500 1.383 . S
C502 H513 0.931 . S
C503 C500 1.382 . S
C503 C501 1.392 . S
C504 Eu475 2.828 . S
C504 O488 1.249 . S
C504 O489 1.244 . S
C504 C498 1.505 . S
C505 O492 1.258 . S
C505 O493 1.242 . S
H506 C478 0.930 . S
H507 C479 0.930 . S
H508 C480 0.930 . S
H509 C481 0.931 . S
H510 C499 0.930 . S
H511 C500 0.930 . S
H512 C501 0.930 . S
H513 C502 0.931 . S
Eu514 C523 2.828 . S
Eu514 O525 2.392 . S
Eu514 O527 2.418 . S
Eu514 O532 2.373 . S
Eu514 O535 2.488 . S
Eu514 O536 2.471 . S
Eu514 O537 2.349 . S
Eu515 O524 2.373 . S
Eu515 O528 2.488 . S
Eu515 O529 2.471 . S
Eu515 O530 2.349 . S
Eu515 O533 2.392 . S
Eu515 O534 2.418 . S
Eu515 C544 2.828 . S
C516 O534 1.244 . S
C516 O537 1.265 . S
C517 C518 1.379 . S
C517 C521 1.373 . S
C517 C523 1.505 . S
C518 C517 1.379 . S
C518 C520 1.369 . S
C518 H546 0.930 . S
C519 C521 1.383 . S
C519 C522 1.382 . S
C519 H547 0.930 . S
C520 C518 1.369 . S
C520 C522 1.392 . S
C520 H548 0.930 . S
C521 C517 1.373 . S
C521 C519 1.383 . S
C521 H549 0.931 . S
C522 C519 1.382 . S
C522 C520 1.392 . S
C523 Eu514 2.828 . S
C523 C517 1.505 . S
C523 O535 1.249 . S
C523 O536 1.244 . S
O524 Eu515 2.373 . S
O524 C526 1.258 . S
O525 Eu514 2.392 . S
O525 C526 1.242 . S
C526 O524 1.258 . S
C526 O525 1.242 . S
O527 Eu514 2.418 . S
O527 C531 1.244 . S
O528 Eu515 2.488 . S
O528 C544 1.249 . S
O529 Eu515 2.471 . S
O529 C544 1.244 . S
O530 Eu515 2.349 . S
O530 C531 1.265 . S
C531 O527 1.244 . S
C531 O530 1.265 . S
O532 Eu514 2.373 . S
O532 C545 1.258 . S
O533 Eu515 2.392 . S
O533 C545 1.242 . S
O534 Eu515 2.418 . S
O534 C516 1.244 . S
O535 Eu514 2.488 . S
O535 C523 1.249 . S
O536 Eu514 2.471 . S
O536 C523 1.244 . S
O537 Eu514 2.349 . S
O537 C516 1.265 . S
C538 C539 1.379 . S
C538 C542 1.373 . S
C538 C544 1.505 . S
C539 C538 1.379 . S
C539 C541 1.369 . S
C539 H550 0.930 . S
C540 C542 1.383 . S
C540 C543 1.382 . S
C540 H551 0.930 . S
C541 C539 1.369 . S
C541 C543 1.392 . S
C541 H552 0.930 . S
C542 C538 1.373 . S
C542 C540 1.383 . S
C542 H553 0.931 . S
C543 C540 1.382 . S
C543 C541 1.392 . S
C544 Eu515 2.828 . S
C544 O528 1.249 . S
C544 O529 1.244 . S
C544 C538 1.505 . S
C545 O532 1.258 . S
C545 O533 1.242 . S
H546 C518 0.930 . S
H547 C519 0.930 . S
H548 C520 0.930 . S
H549 C521 0.931 . S
H550 C539 0.930 . S
H551 C540 0.930 . S
H552 C541 0.930 . S
H553 C542 0.931 . S
Eu554 C563 2.828 . S
Eu554 O565 2.392 . S
Eu554 O567 2.418 . S
Eu554 O572 2.373 . S
Eu554 O575 2.488 . S
Eu554 O576 2.471 . S
Eu554 O577 2.349 . S
Eu555 O564 2.373 . S
Eu555 O568 2.488 . S
Eu555 O569 2.471 . S
Eu555 O570 2.349 . S
Eu555 O573 2.392 . S
Eu555 O574 2.418 . S
Eu555 C584 2.828 . S
C556 O574 1.244 . S
C556 O577 1.265 . S
C557 C558 1.379 . S
C557 C561 1.373 . S
C557 C563 1.505 . S
C558 C557 1.379 . S
C558 C560 1.369 . S
C558 H586 0.930 . S
C559 C561 1.383 . S
C559 C562 1.382 . S
C559 H587 0.930 . S
C560 C558 1.369 . S
C560 C562 1.392 . S
C560 H588 0.930 . S
C561 C557 1.373 . S
C561 C559 1.383 . S
C561 H589 0.931 . S
C562 C559 1.382 . S
C562 C560 1.392 . S
C563 Eu554 2.828 . S
C563 C557 1.505 . S
C563 O575 1.249 . S
C563 O576 1.244 . S
O564 Eu555 2.373 . S
O564 C566 1.258 . S
O565 Eu554 2.392 . S
O565 C566 1.242 . S
C566 O564 1.258 . S
C566 O565 1.242 . S
O567 Eu554 2.418 . S
O567 C571 1.244 . S
O568 Eu555 2.488 . S
O568 C584 1.249 . S
O569 Eu555 2.471 . S
O569 C584 1.244 . S
O570 Eu555 2.349 . S
O570 C571 1.265 . S
C571 O567 1.244 . S
C571 O570 1.265 . S
O572 Eu554 2.373 . S
O572 C585 1.258 . S
O573 Eu555 2.392 . S
O573 C585 1.242 . S
O574 Eu555 2.418 . S
O574 C556 1.244 . S
O575 Eu554 2.488 . S
O575 C563 1.249 . S
O576 Eu554 2.471 . S
O576 C563 1.244 . S
O577 Eu554 2.349 . S
O577 C556 1.265 . S
C578 C579 1.379 . S
C578 C582 1.373 . S
C578 C584 1.505 . S
C579 C578 1.379 . S
C579 C581 1.369 . S
C579 H590 0.930 . S
C580 C582 1.383 . S
C580 C583 1.382 . S
C580 H591 0.930 . S
C581 C579 1.369 . S
C581 C583 1.392 . S
C581 H592 0.930 . S
C582 C578 1.373 . S
C582 C580 1.383 . S
C582 H593 0.931 . S
C583 C580 1.382 . S
C583 C581 1.392 . S
C584 Eu555 2.828 . S
C584 O568 1.249 . S
C584 O569 1.244 . S
C584 C578 1.505 . S
C585 O572 1.258 . S
C585 O573 1.242 . S
H586 C558 0.930 . S
H587 C559 0.930 . S
H588 C560 0.930 . S
H589 C561 0.931 . S
H590 C579 0.930 . S
H591 C580 0.930 . S
H592 C581 0.930 . S
H593 C582 0.931 . S
C594 C595 1.387 . S
C594 H598 0.950 1_554 S
C594 C603 1.390 . S
C595 C594 1.387 . S
C595 C597 1.387 . S
H596 C603 0.950 1_556 S
C597 C595 1.387 . S
C597 C599 1.390 . S
C597 H601 0.950 . S
H598 C594 0.950 1_556 S
C599 C597 1.390 . S
C599 C600 1.387 . S
C599 H602 0.950 . S
C600 C599 1.387 . S
C600 C603 1.387 . S
H601 C597 0.950 . S
H602 C599 0.950 . S
C603 C594 1.390 . S
C603 H596 0.950 1_554 S
C603 C600 1.387 . S
C604 C605 1.387 . S
C604 H608 0.950 . S
C604 C613 1.390 . S
C605 C604 1.387 . S
C605 C607 1.387 . S
H606 C613 0.950 . S
C607 C605 1.387 . S
C607 C609 1.390 . S
C607 H611 0.950 . S
H608 C604 0.950 . S
C609 C607 1.390 . S
C609 C610 1.387 . S
C609 H612 0.950 . S
C610 C609 1.387 . S
C610 C613 1.387 . S
H611 C607 0.950 . S
H612 C609 0.950 . S
C613 C604 1.390 . S
C613 H606 0.950 . S
C613 C610 1.387 . S
C614 C615 1.387 . S
C614 H618 0.950 . S
C614 C623 1.390 . S
C615 C614 1.387 . S
C615 C617 1.387 . S
H616 C623 0.950 . S
C617 C615 1.387 . S
C617 C619 1.390 1_554 S
C617 H621 0.950 1_554 S
H618 C614 0.950 . S
C619 C617 1.390 1_556 S
C619 C620 1.387 1_556 S
C619 H622 0.950 . S
C620 C619 1.387 1_554 S
C620 C623 1.387 . S
H621 C617 0.950 1_556 S
H622 C619 0.950 . S
C623 C614 1.390 . S
C623 H616 0.950 . S
C623 C620 1.387 . S
C624 C625 1.387 . S
C624 H628 0.950 1_556 S
C624 C633 1.390 1_556 S
C625 C624 1.387 . S
C625 C627 1.387 . S
H626 C633 0.950 . S
C627 C625 1.387 . S
C627 C629 1.390 . S
C627 H631 0.950 . S
H628 C624 0.950 1_554 S
C629 C627 1.390 . S
C629 C630 1.387 . S
C629 H632 0.950 . S
C630 C629 1.387 . S
C630 C633 1.387 1_556 S
H631 C627 0.950 . S
H632 C629 0.950 . S
C633 C624 1.390 1_554 S
C633 H626 0.950 . S
C633 C630 1.387 1_554 S
C634 C635 1.387 . S
C634 H638 0.950 . S
C634 C643 1.390 . S
C635 C634 1.387 . S
C635 C637 1.387 . S
H636 C643 0.950 . S
C637 C635 1.387 . S
C637 C639 1.390 . S
C637 H641 0.950 . S
H638 C634 0.950 . S
C639 C637 1.390 . S
C639 C640 1.387 . S
C639 H642 0.950 . S
C640 C639 1.387 . S
C640 C643 1.387 . S
H641 C637 0.950 . S
H642 C639 0.950 . S
C643 C634 1.390 . S
C643 H636 0.950 . S
C643 C640 1.387 . S
C644 C645 1.387 . S
C644 H648 0.950 . S
C644 C653 1.390 . S
C645 C644 1.387 . S
C645 C647 1.387 1_556 S
H646 C653 0.950 . S
C647 C645 1.387 1_554 S
C647 C649 1.390 . S
C647 H651 0.950 . S
H648 C644 0.950 . S
C649 C647 1.390 . S
C649 C650 1.387 1_554 S
C649 H652 0.950 . S
C650 C649 1.387 1_556 S
C650 C653 1.387 . S
H651 C647 0.950 . S
H652 C649 0.950 . S
C653 C644 1.390 . S
C653 H646 0.950 . S
C653 C650 1.387 . S
C654 C655 1.387 . S
C654 H658 0.950 1_556 S
C654 C663 1.387 1_556 S
C655 C654 1.387 . S
C655 C657 1.387 . S
H656 C663 0.960 . S
C657 C655 1.387 . S
C657 C659 1.390 . S
C657 H661 0.950 . S
H658 C654 0.950 1_554 S
C659 C657 1.390 . S
C659 C660 1.387 . S
C659 H662 0.950 . S
C660 C659 1.387 . S
C660 C663 1.380 1_556 S
H661 C657 0.950 . S
H662 C659 0.950 . S
C663 C654 1.387 1_554 S
C663 H656 0.960 . S
C663 C660 1.380 1_554 S
C664 C665 1.387 . S
C664 H668 0.950 . S
C664 C673 1.390 . S
C665 C664 1.387 . S
C665 C667 1.387 . S
H666 C673 0.950 . S
C667 C665 1.387 . S
C667 C669 1.390 . S
C667 H671 0.950 . S
H668 C664 0.950 . S
C669 C667 1.390 . S
C669 C670 1.387 . S
C669 H672 0.950 1_556 S
C670 C669 1.387 . S
C670 C673 1.387 . S
H671 C667 0.950 . S
H672 C669 0.950 1_554 S
C673 C664 1.390 . S
C673 H666 0.950 . S
C673 C670 1.387 . S
C674 C675 1.387 1_554 S
C674 H678 0.950 . S
C674 C683 1.390 . S
C675 C674 1.387 1_556 S
C675 C677 1.387 . S
H676 C683 0.950 . S
C677 C675 1.387 . S
C677 C679 1.390 . S
C677 H681 0.950 . S
H678 C674 0.950 . S
C679 C677 1.390 . S
C679 C680 1.387 . S
C679 H682 0.950 . S
C680 C679 1.387 . S
C680 C683 1.387 1_556 S
H681 C677 0.950 . S
H682 C679 0.950 . S
C683 C674 1.390 . S
C683 H676 0.950 . S
C683 C680 1.387 1_554 S
C684 C685 1.387 1_556 S
C684 H688 0.950 . S
C684 C693 1.390 . S
C685 C684 1.387 1_554 S
C685 C687 1.387 . S
H686 C693 0.950 . S
C687 C685 1.387 . S
C687 C689 1.390 . S
C687 H691 0.950 . S
H688 C684 0.950 . S
C689 C687 1.390 . S
C689 C690 1.387 . S
C689 H692 0.950 . S
C690 C689 1.387 . S
C690 C693 1.387 1_554 S
H691 C687 0.950 . S
H692 C689 0.950 . S
C693 C684 1.390 . S
C693 H686 0.950 . S
C693 C690 1.387 1_556 S
C694 C695 1.387 . S
C694 H698 0.950 . S
C694 C703 1.390 . S
C695 C694 1.387 . S
C695 C697 1.387 . S
H696 C703 0.950 . S
C697 C695 1.387 . S
C697 C699 1.390 . S
C697 H701 0.950 . S
H698 C694 0.950 . S
C699 C697 1.390 . S
C699 C700 1.387 . S
C699 H702 0.950 1_554 S
C700 C699 1.387 . S
C700 C703 1.387 . S
H701 C697 0.950 . S
H702 C699 0.950 1_556 S
C703 C694 1.390 . S
C703 H696 0.950 . S
C703 C700 1.387 . S
C704 C705 1.387 . S
C704 H708 0.950 . S
C704 C713 1.390 . S
C705 C704 1.387 . S
C705 C707 1.387 1_554 S
H706 C713 0.950 . S
C707 C705 1.387 1_556 S
C707 C709 1.390 . S
C707 H711 0.950 . S
H708 C704 0.950 . S
C709 C707 1.390 . S
C709 C710 1.387 1_556 S
C709 H712 0.950 . S
C710 C709 1.387 1_554 S
C710 C713 1.387 . S
H711 C707 0.950 . S
H712 C709 0.950 . S
C713 C704 1.390 . S
C713 H706 0.950 . S
C713 C710 1.387 . S
C714 C715 1.387 . S
C714 H718 0.950 . S
C714 C723 1.390 . S
C715 C714 1.387 . S
C715 C717 1.387 . S
H716 C723 0.950 1_455 S
C717 C715 1.387 . S
C717 C719 1.390 1_655 S
C717 H721 0.950 . S
H718 C714 0.950 . S
C719 C717 1.390 1_455 S
C719 C720 1.387 . S
C719 H722 0.950 . S
C720 C719 1.387 . S
C720 C723 1.387 1_455 S
H721 C717 0.950 . S
H722 C719 0.950 . S
C723 C714 1.390 . S
C723 H716 0.950 1_655 S
C723 C720 1.387 1_655 S
C724 C725 1.387 . S
C724 H728 0.950 . S
C724 C733 1.390 . S
C725 C724 1.387 . S
C725 C727 1.387 . S
H726 C733 0.950 . S
C727 C725 1.387 . S
C727 C729 1.390 . S
C727 H731 0.950 . S
H728 C724 0.950 . S
C729 C727 1.390 . S
C729 C730 1.387 . S
C729 H732 0.950 . S
C730 C729 1.387 . S
C730 C733 1.387 . S
H731 C727 0.950 . S
H732 C729 0.950 . S
C733 C724 1.390 . S
C733 H726 0.950 . S
C733 C730 1.387 . S
C734 C735 1.387 . S
C734 H738 0.950 . S
C734 C743 1.390 . S
C735 C734 1.387 . S
C735 C737 1.387 . S
H736 C743 0.950 . S
C737 C735 1.387 . S
C737 C739 1.390 . S
C737 H741 0.950 . S
H738 C734 0.950 . S
C739 C737 1.390 . S
C739 C740 1.387 1_545 S
C739 H742 0.950 1_545 S
C740 C739 1.387 1_565 S
C740 C743 1.387 1_565 S
H741 C737 0.950 . S
H742 C739 0.950 1_565 S
C743 C734 1.390 . S
C743 H736 0.950 . S
C743 C740 1.387 1_545 S
C744 C745 1.387 . S
C744 H748 0.950 . S
C744 C753 1.390 . S
C745 C744 1.387 . S
C745 C747 1.387 . S
H746 C753 0.950 . S
C747 C745 1.387 . S
C747 C749 1.390 . S
C747 H751 0.950 . S
H748 C744 0.950 . S
C749 C747 1.390 . S
C749 C750 1.387 . S
C749 H752 0.950 . S
C750 C749 1.387 . S
C750 C753 1.387 . S
H751 C747 0.950 . S
H752 C749 0.950 . S
C753 C744 1.390 . S
C753 H746 0.950 . S
C753 C750 1.387 . S
C754 C755 1.387 . S
C754 H758 0.950 . S
C754 C763 1.390 . S
C755 C754 1.387 . S
C755 C757 1.387 . S
H756 C763 0.950 . S
C757 C755 1.387 . S
C757 C759 1.390 . S
C757 H761 0.950 . S
H758 C754 0.950 . S
C759 C757 1.390 . S
C759 C760 1.387 . S
C759 H762 0.950 . S
C760 C759 1.387 . S
C760 C763 1.387 . S
H761 C757 0.950 . S
H762 C759 0.950 . S
C763 C754 1.390 . S
C763 H756 0.950 . S
C763 C760 1.387 . S
C764 C765 1.387 . S
C764 H768 0.950 . S
C764 C773 1.390 . S
C765 C764 1.387 . S
C765 C767 1.387 . S
H766 C773 0.950 . S
C767 C765 1.387 . S
C767 C769 1.390 . S
C767 H771 0.950 . S
H768 C764 0.950 . S
C769 C767 1.390 . S
C769 C770 1.387 . S
C769 H772 0.950 . S
C770 C769 1.387 . S
C770 C773 1.387 . S
H771 C767 0.950 . S
H772 C769 0.950 . S
C773 C764 1.390 . S
C773 H766 0.950 . S
C773 C770 1.387 . S
C774 C775 1.387 . S
C774 H778 0.950 . S
C774 C783 1.390 . S
C775 C774 1.387 . S
C775 C777 1.387 . S
H776 C783 0.950 . S
C777 C775 1.387 . S
C777 C779 1.390 . S
C777 H781 0.950 . S
H778 C774 0.950 . S
C779 C777 1.390 . S
C779 C780 1.387 . S
C779 H782 0.950 . S
C780 C779 1.387 . S
C780 C783 1.387 . S
H781 C777 0.950 . S
H782 C779 0.950 . S
C783 C774 1.390 . S
C783 H776 0.950 . S
C783 C780 1.387 . S
C784 C785 1.387 . S
C784 H788 0.950 . S
C784 C793 1.390 . S
C785 C784 1.387 . S
C785 C787 1.387 . S
H786 C793 0.950 . S
C787 C785 1.387 . S
C787 C789 1.390 . S
C787 H791 0.950 . S
H788 C784 0.950 . S
C789 C787 1.390 . S
C789 C790 1.387 . S
C789 H792 0.950 . S
C790 C789 1.387 . S
C790 C793 1.387 . S
H791 C787 0.950 . S
H792 C789 0.950 . S
C793 C784 1.390 . S
C793 H786 0.950 . S
C793 C790 1.387 . S
C794 C795 1.387 . S
C794 H798 0.950 . S
C794 C803 1.390 . S
C795 C794 1.387 . S
C795 C797 1.387 . S
H796 C803 0.950 . S
C797 C795 1.387 . S
C797 C799 1.390 . S
C797 H801 0.950 . S
H798 C794 0.950 . S
C799 C797 1.390 . S
C799 C800 1.387 . S
C799 H802 0.950 . S
C800 C799 1.387 . S
C800 C803 1.387 . S
H801 C797 0.950 . S
H802 C799 0.950 . S
C803 C794 1.390 . S
C803 H796 0.950 . S
C803 C800 1.387 . S
C804 C805 1.387 1_565 S
C804 H808 0.950 . S
C804 C813 1.390 . S
C805 C804 1.387 1_545 S
C805 C807 1.387 1_545 S
H806 C813 0.950 . S
C807 C805 1.387 1_565 S
C807 C809 1.390 . S
C807 H811 0.950 . S
H808 C804 0.950 . S
C809 C807 1.390 . S
C809 C810 1.387 . S
C809 H812 0.950 . S
C810 C809 1.387 . S
C810 C813 1.387 . S
H811 C807 0.950 . S
H812 C809 0.950 . S
C813 C804 1.390 . S
C813 H806 0.950 . S
C813 C810 1.387 . S
C814 C815 1.387 . S
C814 H818 0.950 . S
C814 C823 1.390 . S
C815 C814 1.387 . S
C815 C817 1.387 . S
H816 C823 0.950 . S
C817 C815 1.387 . S
C817 C819 1.390 . S
C817 H821 0.950 . S
H818 C814 0.950 . S
C819 C817 1.390 . S
C819 C820 1.387 . S
C819 H822 0.950 . S
C820 C819 1.387 . S
C820 C823 1.387 . S
H821 C817 0.950 . S
H822 C819 0.950 . S
C823 C814 1.390 . S
C823 H816 0.950 . S
C823 C820 1.387 . S
C824 C825 1.387 . S
C824 H828 0.950 . S
C824 C833 1.390 . S
C825 C824 1.387 . S
C825 C827 1.387 . S
H826 C833 0.950 . S
C827 C825 1.387 . S
C827 C829 1.390 . S
C827 H831 0.950 . S
H828 C824 0.950 . S
C829 C827 1.390 . S
C829 C830 1.387 . S
C829 H832 0.950 . S
C830 C829 1.387 . S
C830 C833 1.387 . S
H831 C827 0.950 . S
H832 C829 0.950 . S
C833 C824 1.390 . S
C833 H826 0.950 . S
C833 C830 1.387 . S
C834 C835 1.387 . S
C834 H838 0.950 . S
C834 C843 1.390 . S
C835 C834 1.387 . S
C835 C837 1.387 . S
H836 C843 0.950 . S
C837 C835 1.387 . S
C837 C839 1.390 . S
C837 H841 0.950 . S
H838 C834 0.950 . S
C839 C837 1.390 . S
C839 C840 1.387 . S
C839 H842 0.950 . S
C840 C839 1.387 . S
C840 C843 1.387 . S
H841 C837 0.950 . S
H842 C839 0.950 . S
C843 C834 1.390 . S
C843 H836 0.950 . S
C843 C840 1.387 . S
C844 C845 1.387 . S
C844 H848 0.950 . S
C844 C853 1.390 . S
C845 C844 1.387 . S
C845 C847 1.387 . S
H846 C853 0.950 . S
C847 C845 1.387 . S
C847 C849 1.390 . S
C847 H851 0.950 . S
H848 C844 0.950 . S
C849 C847 1.390 . S
C849 C850 1.387 . S
C849 H852 0.950 . S
C850 C849 1.387 . S
C850 C853 1.387 . S
H851 C847 0.950 . S
H852 C849 0.950 . S
C853 C844 1.390 . S
C853 H846 0.950 . S
C853 C850 1.387 . S
C854 C855 1.387 . S
C854 H858 0.950 . S
C854 C863 1.390 . S
C855 C854 1.387 . S
C855 C857 1.387 . S
H856 C863 0.950 . S
C857 C855 1.387 . S
C857 C859 1.390 . S
C857 H861 0.950 . S
H858 C854 0.950 . S
C859 C857 1.390 . S
C859 C860 1.387 . S
C859 H862 0.950 . S
C860 C859 1.387 . S
C860 C863 1.387 . S
H861 C857 0.950 . S
H862 C859 0.950 . S
C863 C854 1.390 . S
C863 H856 0.950 . S
C863 C860 1.387 . S
C864 C865 1.387 . S
C864 H868 0.950 . S
C864 C873 1.390 . S
C865 C864 1.387 . S
C865 C867 1.387 . S
H866 C873 0.951 1_545 S
C867 C865 1.387 . S
C867 C869 1.390 1_565 S
C867 H871 0.950 . S
H868 C864 0.950 . S
C869 C867 1.390 1_545 S
C869 C870 1.387 . S
C869 H872 0.950 . S
C870 C869 1.387 . S
C870 C873 1.387 1_545 S
H871 C867 0.950 . S
H872 C869 0.950 . S
C873 C864 1.390 . S
C873 H866 0.951 1_565 S
C873 C870 1.387 1_565 S
C874 C875 1.387 . S
C874 H878 0.950 . S
C874 C883 1.390 . S
C875 C874 1.387 . S
C875 C877 1.387 . S
H876 C883 0.950 . S
C877 C875 1.387 . S
C877 C879 1.390 1_455 S
C877 H881 0.950 . S
H878 C874 0.950 . S
C879 C877 1.390 1_655 S
C879 C880 1.387 . S
C879 H882 0.950 . S
C880 C879 1.387 . S
C880 C883 1.387 1_655 S
H881 C877 0.950 . S
H882 C879 0.950 . S
C883 C874 1.390 . S
C883 H876 0.950 . S
C883 C880 1.387 1_455 S
C884 C885 1.387 . S
C884 H888 0.950 . S
C884 C893 1.390 . S
C885 C884 1.387 . S
C885 C887 1.387 . S
H886 C893 0.950 . S
C887 C885 1.387 . S
C887 C889 1.390 . S
C887 H891 0.950 . S
H888 C884 0.950 . S
C889 C887 1.390 . S
C889 C890 1.387 . S
C889 H892 0.950 . S
C890 C889 1.387 . S
C890 C893 1.387 . S
H891 C887 0.950 . S
H892 C889 0.950 . S
C893 C884 1.390 . S
C893 H886 0.950 . S
C893 C890 1.387 . S
C894 C895 1.403 . S
C894 H898 0.950 . S
C894 C903 1.390 . S
C895 C894 1.403 . S
C895 C897 1.403 . S
H896 C903 0.950 . S
C897 C895 1.403 . S
C897 C899 1.390 . S
C897 H901 0.950 1_655 S
H898 C894 0.950 . S
C899 C897 1.390 . S
C899 C900 1.387 . S
C899 H902 0.950 . S
C900 C899 1.387 . S
C900 C903 1.387 . S
H901 C897 0.950 1_455 S
H902 C899 0.950 . S
C903 C894 1.390 . S
C903 H896 0.950 . S
C903 C900 1.387 . S
C904 C905 1.387 . S
C904 H908 0.950 . S
C904 C913 1.390 . S
C905 C904 1.387 . S
C905 C907 1.387 . S
H906 C913 0.950 . S
C907 C905 1.387 . S
C907 C909 1.390 . S
C907 H911 0.950 . S
H908 C904 0.950 . S
C909 C907 1.390 . S
C909 C910 1.387 . S
C909 H912 0.950 . S
C910 C909 1.387 . S
C910 C913 1.387 . S
H911 C907 0.950 . S
H912 C909 0.950 . S
C913 C904 1.390 . S
C913 H906 0.950 . S
C913 C910 1.387 . S
C914 C915 1.387 . S
C914 H918 0.950 . S
C914 C923 1.390 . S
C915 C914 1.387 . S
C915 C917 1.387 . S
H916 C923 0.950 . S
C917 C915 1.387 . S
C917 C919 1.390 . S
C917 H921 0.950 . S
H918 C914 0.950 . S
C919 C917 1.390 . S
C919 C920 1.387 . S
C919 H922 0.950 . S
C920 C919 1.387 . S
C920 C923 1.387 . S
H921 C917 0.950 . S
H922 C919 0.950 . S
C923 C914 1.390 . S
C923 H916 0.950 . S
C923 C920 1.387 . S
C924 C925 1.387 . S
C924 H928 0.950 . S
C924 C933 1.390 . S
C925 C924 1.387 . S
C925 C927 1.387 . S
H926 C933 0.950 . S
C927 C925 1.387 . S
C927 C929 1.390 . S
C927 H931 0.950 . S
H928 C924 0.950 . S
C929 C927 1.390 . S
C929 C930 1.387 . S
C929 H932 0.950 . S
C930 C929 1.387 . S
C930 C933 1.387 . S
H931 C927 0.950 . S
H932 C929 0.950 . S
C933 C924 1.390 . S
C933 H926 0.950 . S
C933 C930 1.387 . S
C934 C935 1.387 . S
C934 H938 0.950 . S
C934 C943 1.390 . S
C935 C934 1.387 . S
C935 C937 1.387 . S
H936 C943 0.950 . S
C937 C935 1.387 . S
C937 C939 1.390 . S
C937 H941 0.950 . S
H938 C934 0.950 . S
C939 C937 1.390 . S
C939 C940 1.387 . S
C939 H942 0.950 . S
C940 C939 1.387 . S
C940 C943 1.387 . S
H941 C937 0.950 . S
H942 C939 0.950 . S
C943 C934 1.390 . S
C943 H936 0.950 . S
C943 C940 1.387 . S
C944 C945 1.387 . S
C944 H948 0.950 . S
C944 C953 1.390 . S
C945 C944 1.387 . S
C945 C947 1.387 . S
H946 C953 0.950 . S
C947 C945 1.387 . S
C947 C949 1.390 . S
C947 H951 0.950 . S
H948 C944 0.950 . S
C949 C947 1.390 . S
C949 C950 1.387 . S
C949 H952 0.950 . S
C950 C949 1.387 . S
C950 C953 1.387 . S
H951 C947 0.950 . S
H952 C949 0.950 . S
C953 C944 1.390 . S
C953 H946 0.950 . S
C953 C950 1.387 . S
C954 C955 1.387 . S
C954 H958 0.950 . S
C954 C963 1.390 . S
C955 C954 1.387 . S
C955 C957 1.387 . S
H956 C963 0.950 . S
C957 C955 1.387 . S
C957 C959 1.390 . S
C957 H961 0.950 . S
H958 C954 0.950 . S
C959 C957 1.390 . S
C959 C960 1.387 . S
C959 H962 0.950 . S
C960 C959 1.387 . S
C960 C963 1.387 . S
H961 C957 0.950 . S
H962 C959 0.950 . S
C963 C954 1.390 . S
C963 H956 0.950 . S
C963 C960 1.387 . S
C964 C965 1.387 . S
C964 H968 0.950 . S
C964 C973 1.390 . S
C965 C964 1.387 . S
C965 C967 1.387 . S
H966 C973 0.950 . S
C967 C965 1.387 . S
C967 C969 1.390 . S
C967 H971 0.924 1_455 S
H968 C964 0.950 . S
C969 C967 1.390 . S
C969 C970 1.387 . S
C969 H972 0.945 1_455 S
C970 C969 1.387 . S
C970 C973 1.387 . S
H971 C967 0.924 1_655 S
H972 C969 0.945 1_655 S
C973 C964 1.390 . S
C973 H966 0.950 . S
C973 C970 1.387 . S
C974 C975 1.387 . S
C974 H978 0.950 . S
C974 C983 1.390 . S
C975 C974 1.387 . S
C975 C977 1.387 . S
H976 C983 0.950 . S
C977 C975 1.387 . S
C977 C979 1.390 . S
C977 H981 0.950 . S
H978 C974 0.950 . S
C979 C977 1.390 . S
C979 C980 1.387 . S
C979 H982 0.950 . S
C980 C979 1.387 . S
C980 C983 1.387 . S
H981 C977 0.950 . S
H982 C979 0.950 . S
C983 C974 1.390 . S
C983 H976 0.950 . S
C983 C980 1.387 . S
C984 C985 1.387 . S
C984 H988 0.950 1_655 S
C984 C993 1.390 . S
C985 C984 1.387 . S
C985 C987 1.387 . S
H986 C993 0.963 . S
C987 C985 1.387 . S
C987 C989 1.390 . S
C987 H991 0.950 . S
H988 C984 0.950 1_455 S
C989 C987 1.390 . S
C989 C990 1.387 . S
C989 H992 0.950 . S
C990 C989 1.387 . S
C990 C993 1.387 . S
H991 C987 0.950 . S
H992 C989 0.950 . S
C993 C984 1.390 . S
C993 H986 0.963 . S
C993 C990 1.387 . S
C994 C995 1.387 . S
C994 H998 0.950 . S
C994 C1003 1.390 . S
C995 C994 1.387 . S
C995 C997 1.387 . S
H996 C1003 0.950 . S
C997 C995 1.387 . S
C997 C999 1.390 . S
C997 H1001 0.950 . S
H998 C994 0.950 . S
C999 C997 1.390 . S
C999 C1000 1.387 . S
C999 H1002 0.950 . S
C1000 C999 1.387 . S
C1000 C1003 1.387 . S
H1001 C997 0.950 . S
H1002 C999 0.950 . S
C1003 C994 1.390 . S
C1003 H996 0.950 . S
C1003 C1000 1.387 . S
C1004 C1005 1.387 . S
C1004 H1008 0.950 . S
C1004 C1013 1.390 . S
C1005 C1004 1.387 . S
C1005 C1007 1.387 . S
H1006 C1013 0.950 . S
C1007 C1005 1.387 . S
C1007 C1009 1.390 . S
C1007 H1011 0.950 . S
H1008 C1004 0.950 . S
C1009 C1007 1.390 . S
C1009 C1010 1.387 . S
C1009 H1012 0.950 . S
C1010 C1009 1.387 . S
C1010 C1013 1.387 . S
H1011 C1007 0.950 . S
H1012 C1009 0.950 . S
C1013 C1004 1.390 . S
C1013 H1006 0.950 . S
C1013 C1010 1.387 . S
C1014 C1015 1.387 . S
C1014 H1018 0.950 . S
C1014 C1023 1.390 . S
C1015 C1014 1.387 . S
C1015 C1017 1.387 . S
H1016 C1023 0.950 . S
C1017 C1015 1.387 . S
C1017 C1019 1.390 . S
C1017 H1021 0.950 . S
H1018 C1014 0.950 . S
C1019 C1017 1.390 . S
C1019 C1020 1.387 . S
C1019 H1022 0.950 . S
C1020 C1019 1.387 . S
C1020 C1023 1.387 . S
H1021 C1017 0.950 . S
H1022 C1019 0.950 . S
C1023 C1014 1.390 . S
C1023 H1016 0.950 . S
C1023 C1020 1.387 . S
C1024 C1025 1.387 . S
C1024 H1028 0.950 . S
C1024 C1033 1.390 . S
C1025 C1024 1.387 . S
C1025 C1027 1.387 . S
H1026 C1033 0.950 . S
C1027 C1025 1.387 . S
C1027 C1029 1.390 . S
C1027 H1031 0.950 . S
H1028 C1024 0.950 . S
C1029 C1027 1.390 . S
C1029 C1030 1.387 . S
C1029 H1032 0.950 . S
C1030 C1029 1.387 . S
C1030 C1033 1.387 . S
H1031 C1027 0.950 . S
H1032 C1029 0.950 . S
C1033 C1024 1.390 . S
C1033 H1026 0.950 . S
C1033 C1030 1.387 . S
C1034 C1035 1.387 . S
C1034 H1038 0.950 . S
C1034 C1043 1.390 . S
C1035 C1034 1.387 . S
C1035 C1037 1.387 . S
H1036 C1043 0.950 . S
C1037 C1035 1.387 . S
C1037 C1039 1.390 . S
C1037 H1041 0.950 . S
H1038 C1034 0.950 . S
C1039 C1037 1.390 . S
C1039 C1040 1.387 . S
C1039 H1042 0.950 . S
C1040 C1039 1.387 . S
C1040 C1043 1.387 . S
H1041 C1037 0.950 . S
H1042 C1039 0.950 . S
C1043 C1034 1.390 . S
C1043 H1036 0.950 . S
C1043 C1040 1.387 . S
C1044 C1045 1.387 . S
C1044 H1048 0.950 . S
C1044 C1053 1.390 . S
C1045 C1044 1.387 . S
C1045 C1047 1.387 . S
H1046 C1053 0.950 . S
C1047 C1045 1.387 . S
C1047 C1049 1.390 . S
C1047 H1051 0.950 . S
H1048 C1044 0.950 . S
C1049 C1047 1.390 . S
C1049 C1050 1.387 . S
C1049 H1052 0.950 . S
C1050 C1049 1.387 . S
C1050 C1053 1.387 . S
H1051 C1047 0.950 . S
H1052 C1049 0.950 . S
C1053 C1044 1.390 . S
C1053 H1046 0.950 . S
C1053 C1050 1.387 . S
C1054 C1055 1.387 . S
C1054 H1058 0.950 . S
C1054 C1063 1.390 . S
C1055 C1054 1.387 . S
C1055 C1057 1.387 . S
H1056 C1063 0.950 . S
C1057 C1055 1.387 . S
C1057 C1059 1.390 . S
C1057 H1061 0.950 . S
H1058 C1054 0.950 . S
C1059 C1057 1.390 . S
C1059 C1060 1.387 . S
C1059 H1062 0.950 . S
C1060 C1059 1.387 . S
C1060 C1063 1.387 . S
H1061 C1057 0.950 . S
H1062 C1059 0.950 . S
C1063 C1054 1.390 . S
C1063 H1056 0.950 . S
C1063 C1060 1.387 . S
C1064 C1065 1.387 . S
C1064 H1068 0.950 . S
C1064 C1073 1.390 . S
C1065 C1064 1.387 . S
C1065 C1067 1.387 . S
H1066 C1073 0.950 . S
C1067 C1065 1.387 . S
C1067 C1069 1.390 . S
C1067 H1071 0.950 . S
H1068 C1064 0.950 . S
C1069 C1067 1.390 . S
C1069 C1070 1.387 . S
C1069 H1072 0.950 . S
C1070 C1069 1.387 . S
C1070 C1073 1.387 . S
H1071 C1067 0.950 . S
H1072 C1069 0.950 . S
C1073 C1064 1.390 . S
C1073 H1066 0.950 . S
C1073 C1070 1.387 . S
C1074 C1075 1.387 . S
C1074 H1078 0.950 . S
C1074 C1083 1.390 . S
C1075 C1074 1.387 . S
C1075 C1077 1.387 . S
H1076 C1083 0.950 . S
C1077 C1075 1.387 . S
C1077 C1079 1.390 . S
C1077 H1081 0.950 . S
H1078 C1074 0.950 . S
C1079 C1077 1.390 . S
C1079 C1080 1.387 . S
C1079 H1082 0.950 . S
C1080 C1079 1.387 . S
C1080 C1083 1.387 . S
H1081 C1077 0.950 . S
H1082 C1079 0.950 . S
C1083 C1074 1.390 . S
C1083 H1076 0.950 . S
C1083 C1080 1.387 . S
C1084 C1085 1.387 . S
C1084 H1088 0.950 . S
C1084 C1093 1.390 . S
C1085 C1084 1.387 . S
C1085 C1087 1.387 . S
H1086 C1093 0.950 . S
C1087 C1085 1.387 . S
C1087 C1089 1.390 . S
C1087 H1091 0.950 . S
H1088 C1084 0.950 . S
C1089 C1087 1.390 . S
C1089 C1090 1.387 . S
C1089 H1092 0.950 . S
C1090 C1089 1.387 . S
C1090 C1093 1.387 . S
H1091 C1087 0.950 . S
H1092 C1089 0.950 . S
C1093 C1084 1.390 . S
C1093 H1086 0.950 . S
C1093 C1090 1.387 . S
C1094 C1095 1.387 . S
C1094 H1098 0.950 . S
C1094 C1103 1.390 . S
C1095 C1094 1.387 . S
C1095 C1097 1.387 . S
H1096 C1103 0.950 . S
C1097 C1095 1.387 . S
C1097 C1099 1.390 . S
C1097 H1101 0.950 . S
H1098 C1094 0.950 . S
C1099 C1097 1.390 . S
C1099 C1100 1.387 . S
C1099 H1102 0.950 . S
C1100 C1099 1.387 . S
C1100 C1103 1.387 . S
H1101 C1097 0.950 . S
H1102 C1099 0.950 . S
C1103 C1094 1.390 . S
C1103 H1096 0.950 . S
C1103 C1100 1.387 . S
C1104 C1105 1.387 . S
C1104 H1108 0.950 . S
C1104 C1113 1.390 . S
C1105 C1104 1.387 . S
C1105 C1107 1.387 . S
H1106 C1113 0.950 . S
C1107 C1105 1.387 . S
C1107 C1109 1.390 . S
C1107 H1111 0.950 . S
H1108 C1104 0.950 . S
C1109 C1107 1.390 . S
C1109 C1110 1.387 . S
C1109 H1112 0.950 . S
C1110 C1109 1.387 . S
C1110 C1113 1.387 . S
H1111 C1107 0.950 . S
H1112 C1109 0.950 . S
C1113 C1104 1.390 . S
C1113 H1106 0.950 . S
C1113 C1110 1.387 . S
C1114 C1115 1.387 . S
C1114 H1118 0.950 . S
C1114 C1123 1.390 . S
C1115 C1114 1.387 . S
C1115 C1117 1.387 . S
H1116 C1123 0.950 . S
C1117 C1115 1.387 . S
C1117 C1119 1.390 . S
C1117 H1121 0.950 . S
H1118 C1114 0.950 . S
C1119 C1117 1.390 . S
C1119 C1120 1.387 . S
C1119 H1122 0.950 . S
C1120 C1119 1.387 . S
C1120 C1123 1.387 . S
H1121 C1117 0.950 . S
H1122 C1119 0.950 . S
C1123 C1114 1.390 . S
C1123 H1116 0.950 . S
C1123 C1120 1.387 . S
C1124 C1125 1.387 . S
C1124 H1128 0.950 . S
C1124 C1133 1.390 . S
C1125 C1124 1.387 . S
C1125 C1127 1.387 . S
H1126 C1133 0.950 . S
C1127 C1125 1.387 . S
C1127 C1129 1.390 . S
C1127 H1131 0.950 . S
H1128 C1124 0.950 . S
C1129 C1127 1.390 . S
C1129 C1130 1.387 . S
C1129 H1132 0.950 . S
C1130 C1129 1.387 . S
C1130 C1133 1.387 . S
H1131 C1127 0.950 . S
H1132 C1129 0.950 . S
C1133 C1124 1.390 . S
C1133 H1126 0.950 . S
C1133 C1130 1.387 . S
C595 C177 1.650 . S
C600 C246 1.663 . S
C605 C190 1.745 . S
C610 C286 1.742 . S
C615 C164 1.587 . S
C620 C316 1.576 . S
C625 C151 1.492 . S
C630 C276 1.471 . S
C640 C326 1.519 . S
C635 C125 1.521 . S
C645 C138 1.405 . S
C650 C236 1.403 1_556 S
C660 C265 1.672 . S
C655 C147 1.651 . S
C670 C305 1.646 . S
C665 C121 1.592 . S
C675 C134 1.612 . S
C680 C331 1.669 1_556 S
C685 C173 1.492 . S
C690 C291 1.529 . S
C695 C186 1.478 . S
C700 C345 1.489 . S
C710 C251 1.525 . S
C705 C160 1.496 . S
C720 C366 1.664 . S
C715 C21 1.650 . S
C725 C34 1.746 . S
C730 C406 1.743 . S
C735 C8 1.586 . S
C740 C436 1.577 . S
C745 C229 1.494 . S
C750 C396 1.470 . S
C755 C203 1.521 . S
C760 C446 1.518 . S
C765 C216 1.405 . S
C770 C356 1.404 . S
C775 C225 1.651 . S
C780 C385 1.670 . S
C785 C199 1.590 . S
C790 C425 1.646 . S
C800 C451 1.668 . S
C795 C212 1.610 . S
C805 C17 1.492 . S
C810 C411 1.530 . S
C820 C465 1.489 . S
C815 C30 1.478 1_455 S
C825 C4 1.498 . S
C830 C371 1.527 . S
C840 C486 1.663 . S
C835 C99 1.650 . S
C845 C112 1.745 . S
C850 C526 1.742 . S
C860 C556 1.577 . S
C855 C86 1.586 . S
C870 C516 1.472 . S
C865 C73 1.493 . S
C880 C566 1.519 . S
C875 C47 1.521 . S
C885 C60 1.405 . S
C890 C476 1.403 . S
C895 C69 1.621 1_655 S
C900 C505 1.670 . S
C905 C43 1.592 . S
C910 C545 1.646 . S
C920 C571 1.667 . S
C915 C56 1.610 1_545 S
C925 C95 1.491 . S
C930 C531 1.529 . S
C935 C108 1.478 . S
C940 C585 1.489 . S
C945 C82 1.497 . S
C950 C491 1.527 . S
C955 C204 1.599 . S
C960 C263 1.560 . S
C970 C303 1.860 . S
C965 C217 1.910 . S
C975 C230 1.553 . S
C980 C322 1.570 . S
C985 C87 1.725 . S
C990 C282 1.720 . S
C995 C100 1.678 . S
C1000 C343 1.651 . S
C1010 C242 1.372 . S
C1005 C113 1.365 . S
C1015 C48 1.599 . S
C1020 C383 1.559 . S
C1025 C61 1.910 . S
C1030 C423 1.860 . S
C1035 C74 1.553 . S
C1040 C442 1.571 . S
C1045 C165 1.726 . S
C1050 C402 1.719 . S
C1060 C463 1.649 . S
C1055 C178 1.676 . S
C1065 C191 1.366 . S
C1070 C362 1.372 . S
C1075 C126 1.597 . S
C1080 C503 1.556 . S
C1085 C139 1.909 . S
C1090 C543 1.859 . S
C1100 C562 1.570 . S
C1095 C152 1.552 . S
C1105 C9 1.724 . S
C1110 C522 1.719 . S
C1115 C22 1.676 . S
C1120 C583 1.649 . S
C1125 C35 1.366 . S
C1130 C482 1.372 . S
