# Generated by pormake.
# Topology ptr, (4,4)-cn, num edge types: 1
# Building blocks:
#     Node 0, Type 0, BuildingBlock: GALJAG_clean_sbu_0, # of connection points: 4
#     Node 1, Type 0, BuildingBlock: GALJAG_clean_sbu_0, # of connection points: 4
#     Node 2, Type 0, BuildingBlock: GALJAG_clean_sbu_0, # of connection points: 4
#     Node 3, Type 0, BuildingBlock: GALJAG_clean_sbu_0, # of connection points: 4
#     Node 4, Type 0, BuildingBlock: GALJAG_clean_sbu_0, # of connection points: 4
#     Node 5, Type 0, BuildingBlock: GALJAG_clean_sbu_0, # of connection points: 4
#     Node 6, Type 0, BuildingBlock: GALJAG_clean_sbu_0, # of connection points: 4
#     Node 7, Type 0, BuildingBlock: GALJAG_clean_sbu_0, # of connection points: 4
#     Node 8, Type 0, BuildingBlock: GALJAG_clean_sbu_0, # of connection points: 4
#     Node 9, Type 0, BuildingBlock: GALJAG_clean_sbu_0, # of connection points: 4
#     Node 10, Type 0, BuildingBlock: GALJAG_clean_sbu_0, # of connection points: 4
#     Node 11, Type 0, BuildingBlock: GALJAG_clean_sbu_0, # of connection points: 4
#     Node 12, Type 0, BuildingBlock: GALJAG_clean_sbu_0, # of connection points: 4
#     Node 13, Type 0, BuildingBlock: GALJAG_clean_sbu_0, # of connection points: 4
#     Node 14, Type 0, BuildingBlock: GALJAG_clean_sbu_0, # of connection points: 4
#     Node 15, Type 0, BuildingBlock: GALJAG_clean_sbu_0, # of connection points: 4
#     Node 16, Type 0, BuildingBlock: GALJAG_clean_sbu_0, # of connection points: 4
#     Node 17, Type 0, BuildingBlock: GALJAG_clean_sbu_0, # of connection points: 4
#     Node 18, Type 1, BuildingBlock: MIFKUJ_clean_linker_1, # of connection points: 4
#     Node 19, Type 1, BuildingBlock: MIFKUJ_clean_linker_1, # of connection points: 4
#     Node 20, Type 1, BuildingBlock: MIFKUJ_clean_linker_1, # of connection points: 4
#     Node 21, Type 1, BuildingBlock: MIFKUJ_clean_linker_1, # of connection points: 4
#     Node 22, Type 1, BuildingBlock: MIFKUJ_clean_linker_1, # of connection points: 4
#     Node 23, Type 1, BuildingBlock: MIFKUJ_clean_linker_1, # of connection points: 4
#     Node 24, Type 1, BuildingBlock: MIFKUJ_clean_linker_1, # of connection points: 4
#     Node 25, Type 1, BuildingBlock: MIFKUJ_clean_linker_1, # of connection points: 4
#     Node 26, Type 1, BuildingBlock: MIFKUJ_clean_linker_1, # of connection points: 4
#     Node 27, Type 1, BuildingBlock: MIFKUJ_clean_linker_1, # of connection points: 4
#     Node 28, Type 1, BuildingBlock: MIFKUJ_clean_linker_1, # of connection points: 4
#     Node 29, Type 1, BuildingBlock: MIFKUJ_clean_linker_1, # of connection points: 4
#     Node 30, Type 1, BuildingBlock: MIFKUJ_clean_linker_1, # of connection points: 4
#     Node 31, Type 1, BuildingBlock: MIFKUJ_clean_linker_1, # of connection points: 4
#     Node 32, Type 1, BuildingBlock: MIFKUJ_clean_linker_1, # of connection points: 4
#     Node 33, Type 1, BuildingBlock: MIFKUJ_clean_linker_1, # of connection points: 4
#     Node 34, Type 1, BuildingBlock: MIFKUJ_clean_linker_1, # of connection points: 4
#     Node 35, Type 1, BuildingBlock: MIFKUJ_clean_linker_1, # of connection points: 4
#     Edge 36, Type (0, 1), None
#     Edge 37, Type (0, 1), None
#     Edge 38, Type (0, 1), None
#     Edge 39, Type (0, 1), None
#     Edge 40, Type (0, 1), None
#     Edge 41, Type (0, 1), None
#     Edge 42, Type (0, 1), None
#     Edge 43, Type (0, 1), None
#     Edge 44, Type (0, 1), None
#     Edge 45, Type (0, 1), None
#     Edge 46, Type (0, 1), None
#     Edge 47, Type (0, 1), None
#     Edge 48, Type (0, 1), None
#     Edge 49, Type (0, 1), None
#     Edge 50, Type (0, 1), None
#     Edge 51, Type (0, 1), None
#     Edge 52, Type (0, 1), None
#     Edge 53, Type (0, 1), None
#     Edge 54, Type (0, 1), None
#     Edge 55, Type (0, 1), None
#     Edge 56, Type (0, 1), None
#     Edge 57, Type (0, 1), None
#     Edge 58, Type (0, 1), None
#     Edge 59, Type (0, 1), None
#     Edge 60, Type (0, 1), None
#     Edge 61, Type (0, 1), None
#     Edge 62, Type (0, 1), None
#     Edge 63, Type (0, 1), None
#     Edge 64, Type (0, 1), None
#     Edge 65, Type (0, 1), None
#     Edge 66, Type (0, 1), None
#     Edge 67, Type (0, 1), None
#     Edge 68, Type (0, 1), None
#     Edge 69, Type (0, 1), None
#     Edge 70, Type (0, 1), None
#     Edge 71, Type (0, 1), None
#     Edge 72, Type (0, 1), None
#     Edge 73, Type (0, 1), None
#     Edge 74, Type (0, 1), None
#     Edge 75, Type (0, 1), None
#     Edge 76, Type (0, 1), None
#     Edge 77, Type (0, 1), None
#     Edge 78, Type (0, 1), None
#     Edge 79, Type (0, 1), None
#     Edge 80, Type (0, 1), None
#     Edge 81, Type (0, 1), None
#     Edge 82, Type (0, 1), None
#     Edge 83, Type (0, 1), None
#     Edge 84, Type (0, 1), None
#     Edge 85, Type (0, 1), None
#     Edge 86, Type (0, 1), None
#     Edge 87, Type (0, 1), None
#     Edge 88, Type (0, 1), None
#     Edge 89, Type (0, 1), None
#     Edge 90, Type (0, 1), None
#     Edge 91, Type (0, 1), None
#     Edge 92, Type (0, 1), None
#     Edge 93, Type (0, 1), None
#     Edge 94, Type (0, 1), None
#     Edge 95, Type (0, 1), None
#     Edge 96, Type (0, 1), None
#     Edge 97, Type (0, 1), None
#     Edge 98, Type (0, 1), None
#     Edge 99, Type (0, 1), None
#     Edge 100, Type (0, 1), None
#     Edge 101, Type (0, 1), None
#     Edge 102, Type (0, 1), None
#     Edge 103, Type (0, 1), None
#     Edge 104, Type (0, 1), None
#     Edge 105, Type (0, 1), None
#     Edge 106, Type (0, 1), None
#     Edge 107, Type (0, 1), None
# Relax obj value: 0.053
# Max RMSD: 0.081
# Mean RMSD: 0.075
data_MOF--net-ptr--node1-GALJAG_clean_sbu_0--node2-MIFKUJ_clean_linker_1--edge1-none
_symmetry_space_group_name_H-M    P1
_symmetry_Int_Tables_number       1
_symmetry_cell_setting            triclinic
loop_
_symmetry_equiv_pos_as_xyz
'x, y, z'
_cell_length_a     48.17925
_cell_length_b     48.240921
_cell_length_c     34.053379
_cell_angle_alpha  90.013006
_cell_angle_beta   90.013674
_cell_angle_gamma 120.09857
loop_
_atom_site_label
_atom_site_type_symbol
_atom_site_fract_x
_atom_site_fract_y
_atom_site_fract_z
_atom_type_partial_charge
In0 In -0.0031 0.34842 0.02995 0.0
O1 O 0.96286 0.35444 0.07193 0.0
O2 O 0.01289 0.38643 0.07762 0.0
C3 C 0.95641 0.29232 0.99491 0.0
C4 C 0.03738 0.33289 0.06505 0.0
C5 C 0.00863 0.38976 0.97 0.0
O6 O 0.94758 0.30424 0.02183 0.0
O7 O 0.98585 0.30834 0.98631 0.0
O8 O 0.03092 0.38854 0.98796 0.0
O9 O 0.98088 0.37034 0.98226 0.0
C10 C 0.98513 0.37801 0.08988 0.0
O11 O 0.04623 0.35366 0.03812 0.0
O12 O 0.00794 0.31945 0.07363 0.0
In13 In 0.64649 0.64768 0.02996 0.0
O14 O 0.64043 0.60767 0.07199 0.0
O15 O 0.60842 0.62558 0.07759 0.0
C16 C 0.7026 0.66326 0.99496 0.0
C17 C 0.66211 0.70375 0.06494 0.0
C18 C 0.60506 0.618 0.96998 0.0
O19 O 0.6906 0.64251 0.0219 0.0
O20 O 0.68666 0.67669 0.98633 0.0
O21 O 0.60635 0.64151 0.98795 0.0
O22 O 0.62444 0.60968 0.98226 0.0
C23 C 0.61684 0.60629 0.0899 0.0
O24 O 0.64132 0.69174 0.038 0.0
O25 O 0.67556 0.68783 0.07359 0.0
In26 In 0.34713 -0.00187 0.02997 0.0
O27 O 0.3523 0.04737 0.02193 0.0
O28 O 0.3181 0.00916 0.98631 0.0
C29 C 0.38853 0.00984 0.08995 0.0
C30 C 0.37679 0.98642 0.97005 0.0
C31 C 0.29099 0.95758 0.06494 0.0
O32 O 0.38731 0.0321 0.072 0.0
O33 O 0.36908 0.98212 0.07766 0.0
O34 O 0.30296 0.94882 0.03799 0.0
O35 O 0.30698 0.98697 0.0736 0.0
C36 C 0.33153 0.03854 0.99496 0.0
O37 O 0.35317 0.96417 0.98793 0.0
O38 O 0.38522 0.01413 0.98238 0.0
In39 In -0.00337 0.64729 0.02992 0.0
O40 O 0.03066 0.64127 0.98794 0.0
O41 O 0.98063 0.60928 0.98226 0.0
C42 C 0.03712 0.7034 0.06496 0.0
C43 C 0.95614 0.66281 0.99484 0.0
C44 C 0.9849 0.60596 0.08988 0.0
O45 O 0.04595 0.69147 0.03804 0.0
O46 O 0.00769 0.68737 0.07357 0.0
O47 O 0.96262 0.60718 0.07192 0.0
O48 O 0.01265 0.62537 0.07761 0.0
C49 C 0.0084 0.6177 0.96999 0.0
O50 O 0.94729 0.64205 0.02177 0.0
O51 O 0.98557 0.67626 0.98625 0.0
In52 In 0.347 0.34804 0.02992 0.0
O53 O 0.35307 0.38806 0.98789 0.0
O54 O 0.38507 0.37014 0.98229 0.0
C55 C 0.2909 0.33246 0.06494 0.0
C56 C 0.33137 0.29197 0.99494 0.0
C57 C 0.38844 0.37771 0.0899 0.0
O58 O 0.3029 0.35321 0.038 0.0
O59 O 0.30684 0.31902 0.07356 0.0
O60 O 0.38715 0.35421 0.07193 0.0
O61 O 0.36905 0.38603 0.07763 0.0
C62 C 0.37666 0.38943 0.96998 0.0
O63 O 0.35216 0.30397 0.02188 0.0
O64 O 0.31793 0.30789 0.9863 0.0
In65 In 0.64642 -0.00233 0.03004 0.0
O66 O 0.6404 0.03164 0.07208 0.0
O67 O 0.60832 0.98168 0.07763 0.0
C68 C 0.70256 0.03818 0.99505 0.0
C69 C 0.66197 0.95721 0.06503 0.0
C70 C 0.60502 0.98598 0.97006 0.0
O71 O 0.69061 0.04696 0.02201 0.0
O72 O 0.68655 0.00878 0.9864 0.0
O73 O 0.60623 0.96371 0.988 0.0
O74 O 0.62448 0.01369 0.98235 0.0
C75 C 0.61677 0.00941 0.08995 0.0
O76 O 0.64119 0.9484 0.03807 0.0
O77 O 0.67542 0.9866 0.07369 0.0
In78 In 0.66356 0.68177 0.36327 0.0
O79 O 0.62952 0.68779 0.40524 0.0
O80 O 0.67954 0.71978 0.41094 0.0
C81 C 0.62306 0.62568 0.32822 0.0
C82 C 0.70404 0.66623 0.39835 0.0
C83 C 0.67531 0.72311 0.30331 0.0
O84 O 0.61423 0.63761 0.35514 0.0
O85 O 0.6525 0.6417 0.31962 0.0
O86 O 0.69759 0.72189 0.32129 0.0
O87 O 0.64755 0.7037 0.31557 0.0
C88 C 0.65178 0.71136 0.4232 0.0
O89 O 0.71289 0.68701 0.37143 0.0
O90 O 0.6746 0.65279 0.40693 0.0
In91 In 0.31317 0.98101 0.36333 0.0
O92 O 0.3071 0.94099 0.40535 0.0
O93 O 0.2751 0.95891 0.41097 0.0
C94 C 0.36928 0.99663 0.32834 0.0
C95 C 0.32877 0.03707 0.39833 0.0
C96 C 0.27173 0.95134 0.30335 0.0
O97 O 0.35728 0.97587 0.35527 0.0
O98 O 0.35333 0.01005 0.31972 0.0
O99 O 0.27302 0.97484 0.32133 0.0
O100 O 0.29112 0.94302 0.31563 0.0
C101 C 0.28352 0.93962 0.42327 0.0
O102 O 0.30798 0.02506 0.37138 0.0
O103 O 0.34222 0.02116 0.40697 0.0
In104 In 0.01375 0.33141 0.36327 0.0
O105 O 0.01896 0.38067 0.35523 0.0
O106 O 0.98475 0.34247 0.3196 0.0
C107 C 0.05514 0.3431 0.42325 0.0
C108 C 0.04342 0.3197 0.30335 0.0
C109 C 0.95761 0.29087 0.39824 0.0
O110 O 0.05392 0.36536 0.40532 0.0
O111 O 0.0357 0.31539 0.41094 0.0
O112 O 0.96957 0.28211 0.37128 0.0
O113 O 0.97361 0.32026 0.40691 0.0
C114 C -0.00181 0.37185 0.32826 0.0
O115 O 0.01979 0.29745 0.32121 0.0
O116 O 0.05186 0.34741 0.31569 0.0
In117 In 0.66327 0.9806 0.36329 0.0
O118 O 0.69731 0.97458 0.32132 0.0
O119 O 0.64728 0.94259 0.31562 0.0
C120 C 0.70377 0.03669 0.39835 0.0
C121 C 0.62281 0.99616 0.32821 0.0
C122 C 0.65152 0.93926 0.42325 0.0
O123 O 0.7126 0.02476 0.37142 0.0
O124 O 0.67434 0.02067 0.40694 0.0
O125 O 0.62924 0.94047 0.40527 0.0
O126 O 0.67927 0.95867 0.41099 0.0
C127 C 0.67504 0.95101 0.30336 0.0
O128 O 0.61395 0.97538 0.35513 0.0
O129 O 0.65224 0.00959 0.31964 0.0
In130 In 0.01369 0.68138 0.36324 0.0
O131 O 0.01975 0.72139 0.32121 0.0
O132 O 0.05176 0.70348 0.3156 0.0
C133 C 0.95758 0.66578 0.39823 0.0
C134 C -0.00191 0.62532 0.32825 0.0
C135 C 0.05513 0.71106 0.42322 0.0
O136 O 0.96958 0.68654 0.3713 0.0
O137 O 0.97352 0.65235 0.40685 0.0
O138 O 0.05384 0.68755 0.40525 0.0
O139 O 0.03574 0.71937 0.41094 0.0
C140 C 0.04334 0.72277 0.3033 0.0
O141 O 0.01888 0.63733 0.35519 0.0
O142 O 0.98464 0.64123 0.3196 0.0
In143 In 0.31309 0.33098 0.36334 0.0
O144 O 0.30788 0.28172 0.37138 0.0
O145 O 0.34209 0.31992 0.40701 0.0
C146 C 0.27169 0.31928 0.30337 0.0
C147 C 0.28342 0.34269 0.42326 0.0
C148 C 0.36923 0.37151 0.32836 0.0
O149 O 0.27291 0.29702 0.3213 0.0
O150 O 0.29114 0.347 0.31567 0.0
O151 O 0.35727 0.38027 0.35532 0.0
O152 O 0.35323 0.34212 0.3197 0.0
C153 C 0.32865 0.29053 0.39834 0.0
O154 O 0.30705 0.36493 0.4054 0.0
O155 O 0.27498 0.31497 0.41092 0.0
In156 In 0.3302 0.01509 0.69667 0.0
O157 O 0.37954 0.02034 0.70483 0.0
O158 O 0.34126 0.98612 0.74034 0.0
C159 C 0.34194 0.05643 0.63671 0.0
C160 C 0.31841 0.04467 0.7566 0.0
C161 C 0.28972 0.95899 0.66162 0.0
O162 O 0.36422 0.05522 0.65469 0.0
O163 O 0.31419 0.03702 0.64897 0.0
O164 O 0.28088 0.97092 0.68854 0.0
O165 O 0.31915 0.97502 0.65302 0.0
C166 C 0.3707 -0.00042 0.73175 0.0
O167 O 0.29615 0.0211 0.73864 0.0
O168 O 0.34618 0.0531 0.74434 0.0
In169 In 0.97983 0.31431 0.69668 0.0
O170 O 0.97463 0.35836 0.70472 0.0
O171 O 0.00888 0.35446 0.74031 0.0
C172 C 0.93839 0.28464 0.6367 0.0
C173 C 0.95018 0.27291 0.75662 0.0
C174 C 0.03593 0.32991 0.66167 0.0
O175 O 0.93968 0.30813 0.65468 0.0
O176 O 0.95778 0.27632 0.64897 0.0
O177 O 0.02394 0.30916 0.68861 0.0
O178 O 0.01999 0.34334 0.65305 0.0
C179 C 0.99543 0.37037 0.73166 0.0
O180 O 0.97377 0.2743 0.7387 0.0
O181 O 0.94176 0.2922 0.74432 0.0
In182 In 0.68042 0.66471 0.69654 0.0
O183 O 0.68562 0.71397 0.6885 0.0
O184 O 0.65141 0.67577 0.65288 0.0
C185 C 0.72181 0.6764 0.75652 0.0
C186 C 0.71008 0.653 0.63662 0.0
C187 C 0.62427 0.62418 0.73152 0.0
O188 O 0.7206 0.69866 0.73858 0.0
O189 O 0.70236 0.64869 0.74421 0.0
O190 O 0.63623 0.61541 0.70456 0.0
O191 O 0.64028 0.65357 0.74018 0.0
C192 C 0.66485 0.70516 0.66154 0.0
O193 O 0.68645 0.63075 0.65448 0.0
O194 O 0.71852 0.68071 0.64896 0.0
In195 In 0.32991 0.31393 0.69664 0.0
O196 O 0.36396 0.3079 0.65468 0.0
O197 O 0.31393 0.27592 0.64897 0.0
C198 C 0.37042 0.37002 0.73169 0.0
C199 C 0.28945 0.32947 0.66155 0.0
C200 C 0.31815 0.27258 0.7566 0.0
O201 O 0.37924 0.35809 0.70477 0.0
O202 O 0.34098 0.354 0.74029 0.0
O203 O 0.29588 0.2738 0.73862 0.0
O204 O 0.34591 0.29199 0.74435 0.0
C205 C 0.3417 0.28434 0.63672 0.0
O206 O 0.28059 0.3087 0.68848 0.0
O207 O 0.31888 0.34291 0.65297 0.0
In208 In 0.68035 0.01468 0.69663 0.0
O209 O 0.68642 0.0547 0.6546 0.0
O210 O 0.71842 0.03678 0.649 0.0
C211 C 0.62424 -0.00089 0.73163 0.0
C212 C 0.66472 0.95861 0.66164 0.0
C213 C 0.72179 0.04435 0.75661 0.0
O214 O 0.63625 0.01986 0.70469 0.0
O215 O 0.64017 0.98567 0.74026 0.0
O216 O 0.72049 0.02084 0.73864 0.0
O217 O 0.70241 0.05267 0.74433 0.0
C218 C 0.71001 0.05607 0.63669 0.0
O219 O 0.68551 0.97061 0.68859 0.0
O220 O 0.65128 0.97454 0.653 0.0
In221 In 0.97973 0.66427 0.69661 0.0
O222 O 0.97452 0.61501 0.70465 0.0
O223 O 0.00874 0.65322 0.74027 0.0
C224 C 0.93834 0.65258 0.63663 0.0
C225 C 0.95006 0.67598 0.75653 0.0
C226 C 0.03588 0.70481 0.66164 0.0
O227 O 0.93955 0.63032 0.65456 0.0
O228 O 0.95778 0.68029 0.64894 0.0
O229 O 0.02391 0.71357 0.6886 0.0
O230 O 0.01988 0.67542 0.65298 0.0
C231 C 0.9953 0.62383 0.73161 0.0
O232 O 0.97369 0.69823 0.73866 0.0
O233 O 0.94162 0.64826 0.74419 0.0
H234 H 0.11813 0.35568 0.20263 0.0
H235 H 0.08434 0.36297 0.25027 0.0
H236 H 0.04272 0.26404 0.28568 0.0
H237 H 0.07714 0.25704 0.23828 0.0
H238 H 0.14567 0.29584 0.24356 0.0
H239 H 0.1402 0.35746 0.10012 0.0
H240 H 0.10263 0.36707 0.06278 0.0
H241 H 0.02322 0.28344 0.11543 0.0
H242 H 0.06095 0.27303 0.15161 0.0
H243 H 0.20722 0.27275 0.15155 0.0
H244 H 0.25534 0.28302 0.11534 0.0
H245 H 0.2601 0.36674 0.06268 0.0
H246 H 0.21296 0.35728 0.10006 0.0
H247 H 0.15517 0.31483 0.09994 0.0
H248 H 0.17497 0.25685 0.23832 0.0
H249 H 0.21637 0.26371 0.28576 0.0
H250 H 0.27442 0.36256 0.25015 0.0
H251 H 0.23336 0.3554 0.20249 0.0
C252 C 0.09994 0.30577 0.21676 0.0
C253 C 0.10127 0.3354 0.22008 0.0
C254 C 0.08211 0.33956 0.24748 0.0
C255 C 0.06105 0.31409 0.27179 0.0
C256 C 0.05868 0.28403 0.26724 0.0
C257 C 0.07828 0.28001 0.24022 0.0
C258 C 0.12393 0.3031 0.19235 0.0
C259 C 0.14731 0.29913 0.21193 0.0
C260 C 0.12681 0.30904 0.15143 0.0
C261 C 0.10352 0.31463 0.12904 0.0
C262 C 0.11473 0.34091 0.10337 0.0
C263 C 0.09322 0.34644 0.08204 0.0
C264 C 0.06001 0.32602 0.08622 0.0
C265 C 0.04872 0.29965 0.11175 0.0
C266 C 0.07028 0.29384 0.1327 0.0
C267 C 0.20653 0.31441 0.12899 0.0
C268 C 0.21882 0.29355 0.13263 0.0
C269 C 0.24617 0.29928 0.11166 0.0
C270 C 0.26138 0.32563 0.08612 0.0
C271 C 0.24876 0.34612 0.08194 0.0
C272 C 0.22175 0.34067 0.10329 0.0
C273 C 0.17769 0.30892 0.15141 0.0
C274 C 0.15323 0.31096 0.13143 0.0
C275 C 0.17462 0.30297 0.19233 0.0
C276 C 0.20126 0.30554 0.21672 0.0
C277 C 0.19695 0.27976 0.24023 0.0
C278 C 0.22056 0.28371 0.26726 0.0
C279 C 0.24846 0.31372 0.27177 0.0
C280 C 0.25308 0.3392 0.2474 0.0
C281 C 0.22976 0.3351 0.21998 0.0
H282 H 0.73779 0.91736 0.23831 0.0
H283 H 0.73077 0.95169 0.28578 0.0
H284 H 0.63176 0.91024 0.25011 0.0
H285 H 0.63908 0.87654 0.20241 0.0
H286 H 0.69893 0.84896 0.24346 0.0
H287 H 0.72185 0.93357 0.15159 0.0
H288 H 0.71147 0.9713 0.11547 0.0
H289 H 0.62775 0.89205 0.06261 0.0
H290 H 0.63732 0.85448 0.0999 0.0
H291 H 0.63739 0.78173 0.09989 0.0
H292 H 0.62785 0.73458 0.06258 0.0
H293 H 0.71164 0.73929 0.11535 0.0
H294 H 0.72198 0.78741 0.15151 0.0
H295 H 0.67993 0.83944 0.09982 0.0
H296 H 0.63923 0.7614 0.20235 0.0
H297 H 0.632 0.7204 0.25003 0.0
H298 H 0.73099 0.77831 0.28574 0.0
H299 H 0.73792 0.81964 0.23828 0.0
C300 C 0.68903 0.89465 0.21666 0.0
C301 C 0.71481 0.91624 0.24021 0.0
C302 C 0.71077 0.93579 0.26727 0.0
C303 C 0.68068 0.93343 0.27177 0.0
C304 C 0.65519 0.91245 0.24736 0.0
C305 C 0.65938 0.89334 0.21992 0.0
C306 C 0.6917 0.87068 0.19224 0.0
C307 C 0.69565 0.84732 0.21183 0.0
C308 C 0.68576 0.8678 0.15132 0.0
C309 C 0.6802 0.89108 0.12892 0.0
C310 C 0.70103 0.92428 0.13264 0.0
C311 C 0.69523 0.94584 0.11173 0.0
C312 C 0.66885 0.93458 0.08616 0.0
C313 C 0.64839 0.90142 0.08189 0.0
C314 C 0.65391 0.87992 0.1032 0.0
C315 C 0.68029 0.78812 0.12888 0.0
C316 C 0.654 0.77292 0.10316 0.0
C317 C 0.6485 0.74591 0.08184 0.0
C318 C 0.66899 0.73327 0.08608 0.0
C319 C 0.69538 0.74847 0.11163 0.0
C320 C 0.70115 0.77582 0.13257 0.0
C321 C 0.68582 0.81696 0.15129 0.0
C322 C 0.68381 0.84139 0.13131 0.0
C323 C 0.69177 0.82003 0.19222 0.0
C324 C 0.68916 0.79341 0.21662 0.0
C325 C 0.65954 0.76498 0.21986 0.0
C326 C 0.65541 0.7417 0.2473 0.0
C327 C 0.68091 0.74631 0.27171 0.0
C328 C 0.71097 0.77414 0.26722 0.0
C329 C 0.71496 0.79771 0.24016 0.0
H330 H 0.07709 0.81917 0.23819 0.0
H331 H 0.04269 0.77775 0.28565 0.0
H332 H 0.08415 0.72037 0.25012 0.0
H333 H 0.11792 0.76146 0.20242 0.0
H334 H 0.14561 0.84889 0.24343 0.0
H335 H 0.06082 0.78695 0.1515 0.0
H336 H 0.02304 0.73874 0.11536 0.0
H337 H 0.10237 0.73454 0.06262 0.0
H338 H 0.13999 0.78179 0.09992 0.0
H339 H 0.21281 0.85474 0.09987 0.0
H340 H 0.26001 0.89243 0.06255 0.0
H341 H 0.2555 0.97148 0.11537 0.0
H342 H 0.20732 0.93362 0.15153 0.0
H343 H 0.15505 0.83943 0.09979 0.0
H344 H 0.23321 0.8769 0.20236 0.0
H345 H 0.27431 0.91073 0.25007 0.0
H346 H 0.21653 0.95173 0.28576 0.0
H347 H 0.1751 0.91727 0.23827 0.0
C348 C 0.09981 0.79321 0.21661 0.0
C349 C 0.0782 0.79733 0.24012 0.0
C350 C 0.05862 0.77371 0.26717 0.0
C351 C 0.06095 0.746 0.27171 0.0
C352 C 0.08195 0.74157 0.24734 0.0
C353 C 0.1011 0.7649 0.21991 0.0
C354 C 0.12381 0.81989 0.19221 0.0
C355 C 0.14724 0.84726 0.2118 0.0
C356 C 0.12668 0.81684 0.15128 0.0
C357 C 0.10335 0.78793 0.12889 0.0
C358 C 0.07012 0.77545 0.13257 0.0
C359 C 0.04853 0.74804 0.11165 0.0
C360 C 0.05979 0.73296 0.08611 0.0
C361 C 0.09299 0.74577 0.08188 0.0
C362 C 0.11452 0.77285 0.10319 0.0
C363 C 0.2065 0.89122 0.12887 0.0
C364 C 0.22167 0.88016 0.10315 0.0
C365 C 0.24872 0.90173 0.08183 0.0
C366 C 0.26143 0.93488 0.08608 0.0
C367 C 0.24627 0.94604 0.11165 0.0
C368 C 0.21888 0.9244 0.13258 0.0
C369 C 0.17762 0.86786 0.15128 0.0
C370 C 0.15313 0.84136 0.13129 0.0
C371 C 0.17457 0.87072 0.1922 0.0
C372 C 0.20126 0.89478 0.21661 0.0
C373 C 0.22969 0.89364 0.21987 0.0
C374 C 0.25303 0.91282 0.24732 0.0
C375 C 0.24848 0.9337 0.27174 0.0
C376 C 0.22066 0.93589 0.26724 0.0
C377 C 0.19703 0.91628 0.24016 0.0
H378 H 0.25553 0.17604 0.82162 0.0
H379 H 0.26247 0.21738 0.77416 0.0
H380 H 0.36146 0.27527 0.80988 0.0
H381 H 0.35421 0.23427 0.85756 0.0
H382 H 0.2945 0.1467 0.81647 0.0
H383 H 0.27147 0.2083 0.9084 0.0
H384 H 0.28183 0.25643 0.94454 0.0
H385 H 0.36561 0.26112 0.99731 0.0
H386 H 0.35606 0.21396 0.96001 0.0
H387 H 0.35612 0.14125 0.96004 0.0
H388 H 0.36572 0.10371 0.99735 0.0
H389 H 0.28201 0.02441 0.94452 0.0
H390 H 0.27161 0.06211 0.90837 0.0
H391 H 0.3135 0.15625 0.96011 0.0
H392 H 0.35436 0.11915 0.85754 0.0
H393 H 0.36168 0.08544 0.80985 0.0
H394 H 0.26267 0.04397 0.77418 0.0
H395 H 0.25563 0.0783 0.82164 0.0
C396 C 0.30428 0.20227 0.84329 0.0
C397 C 0.27849 0.19798 0.81974 0.0
C398 C 0.28248 0.22155 0.79268 0.0
C399 C 0.31255 0.24938 0.7882 0.0
C400 C 0.33804 0.25398 0.81261 0.0
C401 C 0.3339 0.2307 0.84004 0.0
C402 C 0.30167 0.17565 0.8677 0.0
C403 C 0.29778 0.14835 0.8481 0.0
C404 C 0.30761 0.17873 0.90862 0.0
C405 C 0.31315 0.20758 0.93103 0.0
C406 C 0.29231 0.21989 0.92733 0.0
C407 C 0.29809 0.24725 0.94826 0.0
C408 C 0.32449 0.26244 0.97381 0.0
C409 C 0.34496 0.2498 0.97804 0.0
C410 C 0.33946 0.22277 0.95673 0.0
C411 C 0.31325 0.10462 0.93103 0.0
C412 C 0.33954 0.1158 0.95675 0.0
C413 C 0.34507 0.09432 0.97807 0.0
C414 C 0.32463 0.06115 0.97382 0.0
C415 C 0.29824 0.04988 0.94825 0.0
C416 C 0.29243 0.07142 0.92732 0.0
C417 C 0.30767 0.12788 0.90862 0.0
C418 C 0.30962 0.1543 0.92861 0.0
C419 C 0.30173 0.12499 0.8677 0.0
C420 C 0.3044 0.10103 0.84329 0.0
C421 C 0.33406 0.10234 0.84003 0.0
C422 C 0.33825 0.08323 0.81259 0.0
C423 C 0.31277 0.06224 0.78819 0.0
C424 C 0.28266 0.05988 0.79269 0.0
C425 C 0.27863 0.07943 0.81974 0.0
H426 H 0.81842 0.07839 0.82169 0.0
H427 H 0.77698 0.04393 0.77421 0.0
H428 H 0.71923 0.08496 0.80989 0.0
H429 H 0.76033 0.11879 0.8576 0.0
H430 H 0.84792 0.14677 0.8165 0.0
H431 H 0.7862 0.06206 0.90844 0.0
H432 H 0.73802 0.02423 0.94462 0.0
H433 H 0.73357 0.10333 0.99742 0.0
H434 H 0.78078 0.14099 0.96008 0.0
H435 H 0.85355 0.21389 0.95997 0.0
H436 H 0.89117 0.26116 0.99726 0.0
H437 H 0.97051 0.25698 0.94453 0.0
H438 H 0.93273 0.20875 0.9084 0.0
H439 H 0.83851 0.15626 0.96014 0.0
H440 H 0.87561 0.2342 0.85749 0.0
H441 H 0.90937 0.27529 0.8098 0.0
H442 H 0.95084 0.21793 0.77425 0.0
H443 H 0.91645 0.17651 0.82171 0.0
C444 C 0.79228 0.1009 0.84334 0.0
C445 C 0.79649 0.07939 0.81979 0.0
C446 C 0.77286 0.05977 0.79272 0.0
C447 C 0.74504 0.06198 0.78822 0.0
C448 C 0.74051 0.08287 0.81264 0.0
C449 C 0.76385 0.10204 0.84008 0.0
C450 C 0.81897 0.12495 0.86774 0.0
C451 C 0.8463 0.14841 0.84813 0.0
C452 C 0.81593 0.12782 0.90867 0.0
C453 C 0.78705 0.10448 0.93108 0.0
C454 C 0.77465 0.0713 0.92739 0.0
C455 C 0.74726 0.04968 0.94834 0.0
C456 C 0.73212 0.06086 0.97391 0.0
C457 C 0.74485 0.09401 0.97814 0.0
C458 C 0.7719 0.11556 0.9568 0.0
C459 C 0.8902 0.20775 0.93102 0.0
C460 C 0.87903 0.22284 0.9567 0.0
C461 C 0.90056 0.24992 0.978 0.0
C462 C 0.93376 0.26275 0.97378 0.0
C463 C 0.94502 0.24766 0.94824 0.0
C464 C 0.92343 0.22024 0.92733 0.0
C465 C 0.86688 0.17884 0.90864 0.0
C466 C 0.84043 0.15432 0.92864 0.0
C467 C 0.86973 0.17578 0.86771 0.0
C468 C 0.89373 0.20246 0.84329 0.0
C469 C 0.89243 0.23077 0.84 0.0
C470 C 0.91157 0.2541 0.81257 0.0
C471 C 0.93257 0.24967 0.7882 0.0
C472 C 0.93492 0.22197 0.79273 0.0
C473 C 0.91534 0.19835 0.81979 0.0
H474 H 0.76013 0.64028 0.8574 0.0
H475 H 0.71907 0.63312 0.80973 0.0
H476 H 0.77713 0.73197 0.77413 0.0
H477 H 0.81853 0.73883 0.82157 0.0
H478 H 0.84782 0.69983 0.81634 0.0
H479 H 0.78053 0.63841 0.95986 0.0
H480 H 0.7334 0.62897 0.99723 0.0
H481 H 0.73817 0.71269 0.94455 0.0
H482 H 0.78628 0.72294 0.90833 0.0
H483 H 0.93254 0.72265 0.90827 0.0
H484 H 0.97028 0.71226 0.94444 0.0
H485 H 0.89089 0.62863 0.99712 0.0
H486 H 0.8533 0.63823 0.95979 0.0
H487 H 0.83833 0.68085 0.95996 0.0
H488 H 0.91634 0.73863 0.82161 0.0
H489 H 0.95076 0.73164 0.77419 0.0
H490 H 0.90915 0.6327 0.80962 0.0
H491 H 0.87537 0.64 0.85728 0.0
C492 C 0.79223 0.69014 0.84318 0.0
C493 C 0.76373 0.66058 0.83991 0.0
C494 C 0.74041 0.65648 0.81249 0.0
C495 C 0.74504 0.68196 0.78811 0.0
C496 C 0.77294 0.71197 0.79263 0.0
C497 C 0.79654 0.71592 0.81967 0.0
C498 C 0.81887 0.6927 0.86757 0.0
C499 C 0.84618 0.69655 0.84796 0.0
C500 C 0.81581 0.68676 0.90849 0.0
C501 C 0.78696 0.68128 0.93091 0.0
C502 C 0.77174 0.65503 0.95661 0.0
C503 C 0.74473 0.64958 0.97797 0.0
C504 C 0.73212 0.67008 0.97378 0.0
C505 C 0.74733 0.69642 0.94823 0.0
C506 C 0.77468 0.70214 0.92726 0.0
C507 C 0.88998 0.68106 0.93085 0.0
C508 C 0.92322 0.70185 0.92719 0.0
C509 C 0.94479 0.69605 0.94813 0.0
C510 C 0.9335 0.66969 0.97367 0.0
C511 C 0.90029 0.64926 0.97786 0.0
C512 C 0.87878 0.65479 0.95654 0.0
C513 C 0.86669 0.68664 0.90846 0.0
C514 C 0.84026 0.68473 0.92847 0.0
C515 C 0.86957 0.69258 0.86754 0.0
C516 C 0.89355 0.6899 0.84313 0.0
C517 C 0.91521 0.71566 0.81967 0.0
C518 C 0.9348 0.71165 0.79264 0.0
C519 C 0.93243 0.68159 0.78809 0.0
C520 C 0.91138 0.65612 0.81241 0.0
C521 C 0.89222 0.66028 0.83982 0.0
H522 H 0.78478 0.68898 0.53589 0.0
H523 H 0.751 0.69627 0.58353 0.0
H524 H 0.70937 0.59733 0.61894 0.0
H525 H 0.74379 0.59034 0.57153 0.0
H526 H 0.81232 0.62914 0.57681 0.0
H527 H 0.80686 0.69077 0.43339 0.0
H528 H 0.76929 0.7004 0.39607 0.0
H529 H 0.68988 0.61676 0.44871 0.0
H530 H 0.72761 0.60634 0.48486 0.0
H531 H 0.87387 0.60605 0.48481 0.0
H532 H 0.922 0.61633 0.44861 0.0
H533 H 0.92677 0.70006 0.39596 0.0
H534 H 0.87962 0.69058 0.43332 0.0
H535 H 0.82183 0.64814 0.4332 0.0
H536 H 0.84162 0.59014 0.57157 0.0
H537 H 0.88302 0.59701 0.61901 0.0
H538 H 0.94107 0.69586 0.58341 0.0
H539 H 0.90001 0.6887 0.53575 0.0
C540 C 0.76659 0.63907 0.55002 0.0
C541 C 0.76792 0.6687 0.55333 0.0
C542 C 0.74877 0.67286 0.58074 0.0
C543 C 0.72771 0.64739 0.60505 0.0
C544 C 0.72533 0.61732 0.6005 0.0
C545 C 0.74493 0.61331 0.57347 0.0
C546 C 0.79058 0.6364 0.5256 0.0
C547 C 0.81396 0.63242 0.54519 0.0
C548 C 0.79346 0.64234 0.48469 0.0
C549 C 0.77018 0.64794 0.4623 0.0
C550 C 0.78138 0.67422 0.43663 0.0
C551 C 0.75988 0.67976 0.41532 0.0
C552 C 0.72667 0.65934 0.41951 0.0
C553 C 0.71537 0.63297 0.44503 0.0
C554 C 0.73693 0.62716 0.46596 0.0
C555 C 0.87319 0.64771 0.46224 0.0
C556 C 0.88548 0.62686 0.46588 0.0
C557 C 0.91284 0.63259 0.44493 0.0
C558 C 0.92805 0.65894 0.41939 0.0
C559 C 0.91543 0.67943 0.41521 0.0
C560 C 0.88841 0.67398 0.43655 0.0
C561 C 0.84434 0.64222 0.48466 0.0
C562 C 0.81989 0.64426 0.46468 0.0
C563 C 0.84127 0.63627 0.52558 0.0
C564 C 0.86791 0.63884 0.54997 0.0
C565 C 0.8636 0.61306 0.57348 0.0
C566 C 0.88721 0.617 0.60051 0.0
C567 C 0.9151 0.64701 0.60503 0.0
C568 C 0.91973 0.67249 0.58065 0.0
C569 C 0.89641 0.6684 0.55324 0.0
H570 H 0.40445 0.25068 0.57168 0.0
H571 H 0.39743 0.28502 0.61915 0.0
H572 H 0.29842 0.24359 0.58345 0.0
H573 H 0.30574 0.20988 0.53576 0.0
H574 H 0.36557 0.18229 0.57684 0.0
H575 H 0.38851 0.26689 0.48496 0.0
H576 H 0.37815 0.30462 0.44881 0.0
H577 H 0.29443 0.22537 0.39593 0.0
H578 H 0.30399 0.1878 0.43324 0.0
H579 H 0.30403 0.11504 0.43328 0.0
H580 H 0.2945 0.0679 0.39597 0.0
H581 H 0.37828 0.07261 0.44875 0.0
H582 H 0.38862 0.12072 0.48491 0.0
H583 H 0.34659 0.17276 0.4332 0.0
H584 H 0.30586 0.09472 0.53575 0.0
H585 H 0.29863 0.05373 0.58344 0.0
H586 H 0.39762 0.11164 0.61914 0.0
H587 H 0.40456 0.15296 0.57167 0.0
C588 C 0.35568 0.22798 0.55002 0.0
C589 C 0.38146 0.24956 0.57357 0.0
C590 C 0.37743 0.26911 0.60063 0.0
C591 C 0.34733 0.26677 0.60512 0.0
C592 C 0.32185 0.24579 0.58071 0.0
C593 C 0.32603 0.22668 0.55328 0.0
C594 C 0.35835 0.20401 0.52561 0.0
C595 C 0.36229 0.18064 0.54521 0.0
C596 C 0.35242 0.20112 0.48469 0.0
C597 C 0.34686 0.2244 0.46228 0.0
C598 C 0.36769 0.2576 0.466 0.0
C599 C 0.3619 0.27916 0.44507 0.0
C600 C 0.33553 0.2679 0.41949 0.0
C601 C 0.31507 0.23474 0.41522 0.0
C602 C 0.32058 0.21324 0.43654 0.0
C603 C 0.34694 0.12143 0.46228 0.0
C604 C 0.32064 0.10624 0.43656 0.0
C605 C 0.31515 0.07922 0.41524 0.0
C606 C 0.33563 0.06658 0.41947 0.0
C607 C 0.36202 0.08178 0.44503 0.0
C608 C 0.36779 0.10913 0.46597 0.0
C609 C 0.35246 0.15027 0.48468 0.0
C610 C 0.35046 0.1747 0.46469 0.0
C611 C 0.35841 0.15335 0.52561 0.0
C612 C 0.3558 0.12674 0.55002 0.0
C613 C 0.32618 0.0983 0.55327 0.0
C614 C 0.32204 0.07502 0.5807 0.0
C615 C 0.34754 0.07963 0.60511 0.0
C616 C 0.37761 0.10746 0.60062 0.0
C617 C 0.38159 0.13103 0.57356 0.0
H618 H 0.74377 0.15247 0.57158 0.0
H619 H 0.70937 0.11105 0.61904 0.0
H620 H 0.75082 0.05367 0.58352 0.0
H621 H 0.78459 0.09475 0.53582 0.0
H622 H 0.81229 0.18219 0.5768 0.0
H623 H 0.72748 0.12024 0.48489 0.0
H624 H 0.68969 0.07203 0.44875 0.0
H625 H 0.76901 0.06782 0.39601 0.0
H626 H 0.80664 0.11507 0.43331 0.0
H627 H 0.87945 0.18803 0.4332 0.0
H628 H 0.92664 0.22572 0.39586 0.0
H629 H 0.92213 0.30477 0.4487 0.0
H630 H 0.87397 0.26691 0.48488 0.0
H631 H 0.8217 0.17271 0.43316 0.0
H632 H 0.89988 0.21021 0.5357 0.0
H633 H 0.94098 0.24404 0.58341 0.0
H634 H 0.88319 0.28502 0.61911 0.0
H635 H 0.84176 0.25056 0.57162 0.0
C636 C 0.76648 0.1265 0.55 0.0
C637 C 0.74487 0.13062 0.5735 0.0
C638 C 0.72529 0.10701 0.60056 0.0
C639 C 0.72762 0.0793 0.6051 0.0
C640 C 0.74862 0.07487 0.58074 0.0
C641 C 0.76777 0.09819 0.5533 0.0
C642 C 0.79048 0.15319 0.52559 0.0
C643 C 0.81391 0.18055 0.54517 0.0
C644 C 0.79333 0.15012 0.48466 0.0
C645 C 0.77001 0.12122 0.46227 0.0
C646 C 0.73678 0.10874 0.46596 0.0
C647 C 0.71518 0.08133 0.44504 0.0
C648 C 0.72644 0.06625 0.4195 0.0
C649 C 0.75963 0.07905 0.41527 0.0
C650 C 0.78117 0.10613 0.43658 0.0
C651 C 0.87315 0.22451 0.46222 0.0
C652 C 0.8883 0.21345 0.43648 0.0
C653 C 0.91534 0.23502 0.41515 0.0
C654 C 0.92806 0.26816 0.41939 0.0
C655 C 0.9129 0.27933 0.44497 0.0
C656 C 0.88552 0.25769 0.46592 0.0
C657 C 0.84428 0.20115 0.48464 0.0
C658 C 0.81978 0.17465 0.46466 0.0
C659 C 0.84124 0.20402 0.52556 0.0
C660 C 0.86792 0.22808 0.54996 0.0
C661 C 0.89636 0.22695 0.55322 0.0
C662 C 0.91969 0.24612 0.58066 0.0
C663 C 0.91515 0.267 0.60509 0.0
C664 C 0.88732 0.26919 0.60059 0.0
C665 C 0.8637 0.24958 0.57351 0.0
H666 H 0.9223 0.50942 0.15492 0.0
H667 H 0.92922 0.55075 0.10746 0.0
H668 H 0.02822 0.60866 0.14313 0.0
H669 H 0.021 0.56766 0.19081 0.0
H670 H 0.96129 0.48009 0.14974 0.0
H671 H 0.93824 0.54167 0.24167 0.0
H672 H 0.94857 0.58978 0.27782 0.0
H673 H 0.03236 0.59449 0.33061 0.0
H674 H 0.02283 0.54735 0.29329 0.0
H675 H 0.02286 0.47459 0.29333 0.0
H676 H 0.03242 0.43702 0.33066 0.0
H677 H 0.9487 0.35776 0.2778 0.0
H678 H 0.93834 0.39549 0.24164 0.0
H679 H 0.98028 0.48963 0.29338 0.0
H680 H 0.02111 0.45249 0.19082 0.0
H681 H 0.02841 0.41877 0.14313 0.0
H682 H 0.9294 0.37735 0.10745 0.0
H683 H 0.9224 0.4117 0.15491 0.0
C684 C 0.97106 0.53565 0.17656 0.0
C685 C 0.94526 0.53136 0.15302 0.0
C686 C 0.94924 0.55493 0.12597 0.0
C687 C 0.97931 0.58276 0.12147 0.0
C688 C 0.00481 0.58736 0.14588 0.0
C689 C 0.00068 0.56409 0.17331 0.0
C690 C 0.96846 0.50904 0.20097 0.0
C691 C 0.96457 0.48174 0.18137 0.0
C692 C 0.9744 0.51212 0.24189 0.0
C693 C 0.97993 0.54096 0.2643 0.0
C694 C 0.95907 0.55326 0.26061 0.0
C695 C 0.96484 0.58061 0.28154 0.0
C696 C 0.99123 0.5958 0.3071 0.0
C697 C 0.01171 0.58317 0.31134 0.0
C698 C 0.00622 0.55616 0.29002 0.0
C699 C 0.97999 0.43798 0.26431 0.0
C700 C 0.00628 0.44914 0.29004 0.0
C701 C 0.01178 0.42764 0.31137 0.0
C702 C 0.99132 0.39448 0.30711 0.0
C703 C 0.96494 0.38323 0.28153 0.0
C704 C 0.95916 0.40478 0.2606 0.0
C705 C 0.97444 0.46126 0.24189 0.0
C706 C 0.9764 0.48769 0.26189 0.0
C707 C 0.9685 0.45837 0.20097 0.0
C708 C 0.97116 0.4344 0.17656 0.0
C709 C 0.00081 0.43569 0.17331 0.0
C710 C 0.00498 0.41657 0.14588 0.0
C711 C 0.9795 0.39559 0.12147 0.0
C712 C 0.9494 0.39325 0.12596 0.0
C713 C 0.94538 0.41281 0.15302 0.0
H714 H 0.48508 0.41179 0.15497 0.0
H715 H 0.44364 0.37732 0.10749 0.0
H716 H 0.38585 0.41831 0.14319 0.0
H717 H 0.42695 0.45214 0.1909 0.0
H718 H 0.51455 0.48015 0.14978 0.0
H719 H 0.45286 0.39545 0.24172 0.0
H720 H 0.4047 0.35759 0.27791 0.0
H721 H 0.40021 0.43666 0.33073 0.0
H722 H 0.4474 0.47434 0.29338 0.0
H723 H 0.5202 0.54728 0.29327 0.0
H724 H 0.55782 0.59454 0.33056 0.0
H725 H 0.63715 0.59034 0.27783 0.0
H726 H 0.59936 0.54212 0.24169 0.0
H727 H 0.50515 0.48965 0.29343 0.0
H728 H 0.54224 0.56759 0.19076 0.0
H729 H 0.57601 0.60868 0.14306 0.0
H730 H 0.61748 0.55131 0.10755 0.0
H731 H 0.58308 0.50989 0.15501 0.0
C732 C 0.45891 0.43427 0.17663 0.0
C733 C 0.46314 0.41277 0.15308 0.0
C734 C 0.43951 0.39315 0.12601 0.0
C735 C 0.41169 0.39534 0.12151 0.0
C736 C 0.40714 0.41623 0.14593 0.0
C737 C 0.43048 0.43541 0.17338 0.0
C738 C 0.4856 0.45833 0.20103 0.0
C739 C 0.51293 0.4818 0.18141 0.0
C740 C 0.48256 0.46121 0.24195 0.0
C741 C 0.45369 0.43785 0.26438 0.0
C742 C 0.44131 0.40467 0.26068 0.0
C743 C 0.41393 0.38304 0.28163 0.0
C744 C 0.39878 0.39421 0.30721 0.0
C745 C 0.4115 0.42735 0.31144 0.0
C746 C 0.43854 0.44892 0.29011 0.0
C747 C 0.55683 0.54114 0.26431 0.0
C748 C 0.54567 0.55623 0.29 0.0
C749 C 0.5672 0.5833 0.3113 0.0
C750 C 0.6004 0.59611 0.30708 0.0
C751 C 0.61166 0.58103 0.28154 0.0
C752 C 0.59007 0.55362 0.26062 0.0
C753 C 0.53351 0.51223 0.24192 0.0
C754 C 0.50706 0.48771 0.26193 0.0
C755 C 0.53636 0.50917 0.201 0.0
C756 C 0.56036 0.53585 0.17658 0.0
C757 C 0.55907 0.56416 0.17328 0.0
C758 C 0.57821 0.58748 0.14584 0.0
C759 C 0.59922 0.58305 0.12149 0.0
C760 C 0.60156 0.55535 0.12602 0.0
C761 C 0.58197 0.53173 0.15308 0.0
H762 H 0.58308 0.07209 0.15502 0.0
H763 H 0.61749 0.06508 0.10761 0.0
H764 H 0.57585 0.96614 0.14305 0.0
H765 H 0.54208 0.97346 0.1907 0.0
H766 H 0.51456 0.03332 0.14977 0.0
H767 H 0.59927 0.05608 0.24171 0.0
H768 H 0.63699 0.04564 0.27786 0.0
H769 H 0.55756 0.96202 0.33049 0.0
H770 H 0.52 0.97167 0.29318 0.0
H771 H 0.44727 0.97186 0.29325 0.0
H772 H 0.40011 0.96237 0.3306 0.0
H773 H 0.40485 0.04609 0.27797 0.0
H774 H 0.45299 0.05638 0.24177 0.0
H775 H 0.50505 0.01431 0.29338 0.0
H776 H 0.42688 0.97375 0.19084 0.0
H777 H 0.38581 0.96658 0.14318 0.0
H778 H 0.44385 0.06542 0.10755 0.0
H779 H 0.48525 0.0723 0.15499 0.0
C780 C 0.56028 0.02336 0.17655 0.0
C781 C 0.58194 0.04912 0.15309 0.0
C782 C 0.60153 0.04509 0.12606 0.0
C783 C 0.59914 0.01502 0.12151 0.0
C784 C 0.57809 0.98956 0.14584 0.0
C785 C 0.55894 0.99374 0.17325 0.0
C786 C 0.5363 0.02605 0.20097 0.0
C787 C 0.51292 0.03003 0.18139 0.0
C788 C 0.53342 0.02011 0.24188 0.0
C789 C 0.55669 0.0145 0.26427 0.0
C790 C 0.58994 0.03527 0.26061 0.0
C791 C 0.61149 0.02944 0.28154 0.0
C792 C 0.60018 0.00306 0.30706 0.0
C793 C 0.56697 0.98265 0.31125 0.0
C794 C 0.54548 0.98821 0.28993 0.0
C795 C 0.45369 0.01473 0.26433 0.0
C796 C 0.43847 0.98846 0.29001 0.0
C797 C 0.41145 0.983 0.31136 0.0
C798 C 0.39881 0.00347 0.30718 0.0
C799 C 0.41402 0.02983 0.28165 0.0
C800 C 0.44139 0.03558 0.26069 0.0
C801 C 0.48254 0.02024 0.24191 0.0
C802 C 0.50699 0.01819 0.26189 0.0
C803 C 0.48561 0.02618 0.201 0.0
C804 C 0.45896 0.02361 0.1766 0.0
C805 C 0.43047 0.99405 0.17334 0.0
C806 C 0.40714 0.98994 0.14593 0.0
C807 C 0.41177 0.01542 0.12154 0.0
C808 C 0.43966 0.04543 0.12605 0.0
C809 C 0.46327 0.04938 0.15309 0.0
H810 H 0.45147 0.02239 0.86929 0.0
H811 H 0.41769 0.02969 0.91695 0.0
H812 H 0.37609 0.93076 0.95239 0.0
H813 H 0.4105 0.92376 0.90497 0.0
H814 H 0.47902 0.96256 0.91023 0.0
H815 H 0.47353 0.02416 0.76678 0.0
H816 H 0.43595 0.03376 0.72946 0.0
H817 H 0.35656 0.95013 0.78214 0.0
H818 H 0.3943 0.93973 0.8183 0.0
H819 H 0.54055 0.93944 0.81824 0.0
H820 H 0.58866 0.94968 0.78203 0.0
H821 H 0.59345 0.03341 0.72935 0.0
H822 H 0.54632 0.02397 0.76671 0.0
H823 H 0.48852 0.98153 0.76661 0.0
H824 H 0.5083 0.92356 0.90501 0.0
H825 H 0.54969 0.93042 0.95245 0.0
H826 H 0.60778 0.02926 0.91682 0.0
H827 H 0.56672 0.0221 0.86915 0.0
C828 C 0.43329 0.97249 0.88344 0.0
C829 C 0.43462 0.00211 0.88675 0.0
C830 C 0.41547 0.00628 0.91416 0.0
C831 C 0.39442 0.98081 0.93849 0.0
C832 C 0.39205 0.95075 0.93394 0.0
C833 C 0.41164 0.94673 0.90691 0.0
C834 C 0.45728 0.96981 0.85903 0.0
C835 C 0.48066 0.96584 0.87861 0.0
C836 C 0.46016 0.97575 0.81811 0.0
C837 C 0.43686 0.98133 0.79572 0.0
C838 C 0.44806 0.00761 0.77004 0.0
C839 C 0.42654 0.01313 0.74872 0.0
C840 C 0.39334 0.9927 0.75292 0.0
C841 C 0.38205 0.96634 0.77845 0.0
C842 C 0.40362 0.96054 0.79938 0.0
C843 C 0.53988 0.9811 0.79565 0.0
C844 C 0.55215 0.96023 0.79931 0.0
C845 C 0.57951 0.96595 0.77835 0.0
C846 C 0.59472 0.99229 0.7528 0.0
C847 C 0.58211 0.01279 0.74861 0.0
C848 C 0.5551 0.00735 0.76996 0.0
C849 C 0.51103 0.97562 0.81808 0.0
C850 C 0.48658 0.97766 0.7981 0.0
C851 C 0.50797 0.96968 0.859 0.0
C852 C 0.53461 0.97225 0.88339 0.0
C853 C 0.53029 0.94647 0.90691 0.0
C854 C 0.55389 0.95041 0.93395 0.0
C855 C 0.58179 0.98042 0.93846 0.0
C856 C 0.58643 0.00589 0.91407 0.0
C857 C 0.56311 0.0018 0.88665 0.0
H858 H 0.07112 0.58402 0.90494 0.0
H859 H 0.06412 0.61837 0.9524 0.0
H860 H 0.9651 0.57693 0.91675 0.0
H861 H 0.9724 0.54321 0.86906 0.0
H862 H 0.03224 0.51563 0.91013 0.0
H863 H 0.05517 0.60021 0.81822 0.0
H864 H 0.0448 0.63793 0.78206 0.0
H865 H 0.96107 0.55867 0.72923 0.0
H866 H 0.97064 0.5211 0.76655 0.0
H867 H 0.97068 0.44834 0.7666 0.0
H868 H 0.96115 0.40119 0.7293 0.0
H869 H 0.04495 0.40593 0.78207 0.0
H870 H 0.05529 0.45405 0.81821 0.0
H871 H 0.01324 0.50606 0.7665 0.0
H872 H 0.97253 0.42805 0.86906 0.0
H873 H 0.96531 0.38705 0.91674 0.0
H874 H 0.06431 0.44497 0.95242 0.0
H875 H 0.07123 0.4863 0.90496 0.0
C876 C 0.02235 0.56131 0.88331 0.0
C877 C 0.04814 0.5829 0.90684 0.0
C878 C 0.04411 0.60246 0.9339 0.0
C879 C 0.01402 0.60012 0.9384 0.0
C880 C 0.98853 0.57914 0.914 0.0
C881 C 0.99271 0.56002 0.88657 0.0
C882 C 0.02502 0.53733 0.8589 0.0
C883 C 0.02896 0.51397 0.8785 0.0
C884 C 0.01907 0.53444 0.81798 0.0
C885 C 0.01351 0.55772 0.79557 0.0
C886 C 0.03434 0.59091 0.79927 0.0
C887 C 0.02855 0.61246 0.77833 0.0
C888 C 0.00217 0.6012 0.75276 0.0
C889 C 0.98171 0.56804 0.74851 0.0
C890 C 0.98722 0.54655 0.76983 0.0
C891 C 0.0136 0.45475 0.79558 0.0
C892 C 0.9873 0.43954 0.76988 0.0
C893 C 0.9818 0.41252 0.74856 0.0
C894 C 0.00229 0.39989 0.7528 0.0
C895 C 0.02869 0.4151 0.77835 0.0
C896 C 0.03446 0.44245 0.79927 0.0
C897 C 0.01912 0.48359 0.81798 0.0
C898 C 0.01712 0.50802 0.79799 0.0
C899 C 0.02507 0.48667 0.85891 0.0
C900 C 0.02247 0.46006 0.88332 0.0
C901 C 0.99285 0.43163 0.88657 0.0
C902 C 0.98872 0.40835 0.914 0.0
C903 C 0.01423 0.41295 0.9384 0.0
C904 C 0.04429 0.44079 0.93391 0.0
C905 C 0.04827 0.46436 0.90686 0.0
H906 H 0.41042 0.48583 0.90488 0.0
H907 H 0.37602 0.44442 0.95234 0.0
H908 H 0.41747 0.38703 0.91681 0.0
H909 H 0.45124 0.42811 0.86912 0.0
H910 H 0.47894 0.51556 0.91009 0.0
H911 H 0.39413 0.4536 0.8182 0.0
H912 H 0.35634 0.40538 0.78207 0.0
H913 H 0.43566 0.40115 0.72934 0.0
H914 H 0.47329 0.44841 0.76662 0.0
H915 H 0.5461 0.52136 0.76651 0.0
H916 H 0.59329 0.55903 0.72916 0.0
H917 H 0.58881 0.63811 0.78196 0.0
H918 H 0.54064 0.60026 0.81814 0.0
H919 H 0.48835 0.50606 0.76645 0.0
H920 H 0.56654 0.54356 0.86899 0.0
H921 H 0.60764 0.5774 0.9167 0.0
H922 H 0.54987 0.6184 0.95238 0.0
H923 H 0.50843 0.58394 0.90489 0.0
C924 C 0.43314 0.45987 0.8833 0.0
C925 C 0.41153 0.46399 0.90681 0.0
C926 C 0.39194 0.44037 0.93386 0.0
C927 C 0.39427 0.41267 0.9384 0.0
C928 C 0.41528 0.40823 0.91403 0.0
C929 C 0.43442 0.43156 0.8866 0.0
C930 C 0.45713 0.48655 0.85888 0.0
C931 C 0.48057 0.51392 0.87846 0.0
C932 C 0.45999 0.48348 0.81796 0.0
C933 C 0.43666 0.45457 0.79558 0.0
C934 C 0.40343 0.44209 0.79927 0.0
C935 C 0.38183 0.41468 0.77836 0.0
C936 C 0.39308 0.39959 0.75282 0.0
C937 C 0.42628 0.41239 0.7486 0.0
C938 C 0.44782 0.43947 0.76989 0.0
C939 C 0.53981 0.55786 0.7955 0.0
C940 C 0.55496 0.54678 0.76978 0.0
C941 C 0.582 0.56834 0.74844 0.0
C942 C 0.59472 0.60149 0.75267 0.0
C943 C 0.57957 0.61266 0.77824 0.0
C944 C 0.55219 0.59103 0.79919 0.0
C945 C 0.51093 0.5345 0.81793 0.0
C946 C 0.48643 0.508 0.79795 0.0
C947 C 0.50789 0.53738 0.85885 0.0
C948 C 0.53458 0.56144 0.88325 0.0
C949 C 0.56301 0.5603 0.88651 0.0
C950 C 0.58635 0.57948 0.91395 0.0
C951 C 0.58181 0.60037 0.93837 0.0
C952 C 0.55399 0.60257 0.93386 0.0
C953 C 0.53036 0.58295 0.90679 0.0
H954 H 0.5889 0.84272 0.48828 0.0
H955 H 0.59584 0.88405 0.44082 0.0
H956 H 0.69482 0.94196 0.47653 0.0
H957 H 0.68759 0.90097 0.52422 0.0
H958 H 0.62789 0.8134 0.4831 0.0
H959 H 0.60485 0.87497 0.57506 0.0
H960 H 0.61519 0.92308 0.61122 0.0
H961 H 0.69897 0.92777 0.664 0.0
H962 H 0.68943 0.88063 0.62667 0.0
H963 H 0.68949 0.80789 0.62667 0.0
H964 H 0.69906 0.77032 0.66396 0.0
H965 H 0.61535 0.69106 0.61109 0.0
H966 H 0.60497 0.72879 0.57496 0.0
H967 H 0.64688 0.82292 0.62674 0.0
H968 H 0.68774 0.78583 0.52415 0.0
H969 H 0.69506 0.75212 0.47645 0.0
H970 H 0.59604 0.71067 0.44078 0.0
H971 H 0.58902 0.745 0.48825 0.0
C972 C 0.63766 0.86895 0.50994 0.0
C973 C 0.61186 0.86466 0.48639 0.0
C974 C 0.61585 0.88823 0.45934 0.0
C975 C 0.64591 0.91606 0.45485 0.0
C976 C 0.67141 0.92067 0.47927 0.0
C977 C 0.66728 0.89739 0.5067 0.0
C978 C 0.63505 0.84233 0.53434 0.0
C979 C 0.63117 0.81504 0.51473 0.0
C980 C 0.641 0.84541 0.57527 0.0
C981 C 0.64653 0.87424 0.59769 0.0
C982 C 0.62568 0.88655 0.594 0.0
C983 C 0.63145 0.9139 0.61494 0.0
C984 C 0.65784 0.92909 0.6405 0.0
C985 C 0.67832 0.91645 0.64473 0.0
C986 C 0.67283 0.88944 0.6234 0.0
C987 C 0.64661 0.77128 0.59764 0.0
C988 C 0.6729 0.78244 0.62337 0.0
C989 C 0.67842 0.76094 0.64467 0.0
C990 C 0.65797 0.72778 0.64041 0.0
C991 C 0.63159 0.71653 0.61484 0.0
C992 C 0.62579 0.73808 0.59392 0.0
C993 C 0.64105 0.79456 0.57524 0.0
C994 C 0.643 0.82097 0.59525 0.0
C995 C 0.63511 0.79168 0.53432 0.0
C996 C 0.63779 0.76771 0.5099 0.0
C997 C 0.66744 0.76902 0.50664 0.0
C998 C 0.67162 0.74991 0.4792 0.0
C999 C 0.64614 0.72893 0.45479 0.0
C1000 C 0.61604 0.72658 0.45929 0.0
C1001 C 0.61201 0.74612 0.48635 0.0
H1002 H 0.15176 0.74512 0.48831 0.0
H1003 H 0.11032 0.71066 0.44082 0.0
H1004 H 0.05255 0.75166 0.4765 0.0
H1005 H 0.09364 0.78549 0.52422 0.0
H1006 H 0.18124 0.81349 0.48314 0.0
H1007 H 0.11953 0.72877 0.57504 0.0
H1008 H 0.07136 0.69091 0.6112 0.0
H1009 H 0.06685 0.76996 0.66404 0.0
H1010 H 0.11406 0.80765 0.62671 0.0
H1011 H 0.18686 0.88059 0.62664 0.0
H1012 H 0.22447 0.92784 0.66395 0.0
H1013 H 0.30382 0.92366 0.61123 0.0
H1014 H 0.26604 0.87545 0.57507 0.0
H1015 H 0.17181 0.82296 0.62678 0.0
H1016 H 0.20894 0.90093 0.52415 0.0
H1017 H 0.24271 0.94201 0.47646 0.0
H1018 H 0.28416 0.88464 0.44092 0.0
H1019 H 0.24976 0.84321 0.48837 0.0
C1020 C 0.1256 0.76761 0.50996 0.0
C1021 C 0.12982 0.74611 0.48641 0.0
C1022 C 0.1062 0.72649 0.45934 0.0
C1023 C 0.07837 0.72869 0.45483 0.0
C1024 C 0.07383 0.74957 0.47925 0.0
C1025 C 0.09717 0.76875 0.5067 0.0
C1026 C 0.15228 0.79166 0.53437 0.0
C1027 C 0.17962 0.81513 0.51477 0.0
C1028 C 0.14923 0.79453 0.5753 0.0
C1029 C 0.12036 0.77116 0.5977 0.0
C1030 C 0.10798 0.73799 0.594 0.0
C1031 C 0.08059 0.71635 0.61493 0.0
C1032 C 0.06543 0.72751 0.6405 0.0
C1033 C 0.07815 0.76066 0.64475 0.0
C1034 C 0.1052 0.78223 0.62343 0.0
C1035 C 0.2235 0.87445 0.59768 0.0
C1036 C 0.21233 0.88954 0.62338 0.0
C1037 C 0.23386 0.91661 0.64469 0.0
C1038 C 0.26706 0.92943 0.64047 0.0
C1039 C 0.27833 0.91435 0.61493 0.0
C1040 C 0.25674 0.88694 0.594 0.0
C1041 C 0.20018 0.84555 0.57529 0.0
C1042 C 0.17373 0.82102 0.59528 0.0
C1043 C 0.20305 0.84249 0.53436 0.0
C1044 C 0.22705 0.86918 0.50995 0.0
C1045 C 0.22576 0.89749 0.50666 0.0
C1046 C 0.24491 0.92082 0.47923 0.0
C1047 C 0.26591 0.91638 0.45486 0.0
C1048 C 0.26824 0.88868 0.45939 0.0
C1049 C 0.24866 0.86506 0.48645 0.0
H1050 H 0.09349 0.30698 0.52411 0.0
H1051 H 0.05242 0.29982 0.47645 0.0
H1052 H 0.11046 0.39868 0.44086 0.0
H1053 H 0.15187 0.40554 0.4883 0.0
H1054 H 0.18117 0.36655 0.48305 0.0
H1055 H 0.11389 0.30511 0.62655 0.0
H1056 H 0.06675 0.29564 0.66393 0.0
H1057 H 0.07149 0.37936 0.61127 0.0
H1058 H 0.11961 0.38963 0.57506 0.0
H1059 H 0.26589 0.38935 0.575 0.0
H1060 H 0.30361 0.37893 0.61117 0.0
H1061 H 0.2242 0.2953 0.66381 0.0
H1062 H 0.18663 0.30492 0.62648 0.0
H1063 H 0.17167 0.34756 0.62667 0.0
H1064 H 0.2497 0.40534 0.48833 0.0
H1065 H 0.28412 0.39835 0.44092 0.0
H1066 H 0.2425 0.29941 0.47634 0.0
H1067 H 0.20872 0.30671 0.52399 0.0
C1068 C 0.12558 0.35685 0.5099 0.0
C1069 C 0.09708 0.32729 0.50662 0.0
C1070 C 0.07376 0.32319 0.47921 0.0
C1071 C 0.07838 0.34867 0.45484 0.0
C1072 C 0.10628 0.37868 0.45935 0.0
C1073 C 0.12988 0.38262 0.48639 0.0
C1074 C 0.15222 0.35941 0.53429 0.0
C1075 C 0.17953 0.36326 0.51467 0.0
C1076 C 0.14916 0.35347 0.5752 0.0
C1077 C 0.12031 0.34798 0.59763 0.0
C1078 C 0.10509 0.32171 0.62332 0.0
C1079 C 0.07808 0.31626 0.64467 0.0
C1080 C 0.06546 0.33675 0.6405 0.0
C1081 C 0.08066 0.3631 0.61495 0.0
C1082 C 0.10801 0.36883 0.59398 0.0
C1083 C 0.22332 0.34775 0.59756 0.0
C1084 C 0.25656 0.36853 0.59391 0.0
C1085 C 0.27812 0.36272 0.61485 0.0
C1086 C 0.26681 0.33635 0.64038 0.0
C1087 C 0.23361 0.31593 0.64456 0.0
C1088 C 0.21211 0.32147 0.62324 0.0
C1089 C 0.20003 0.35335 0.57517 0.0
C1090 C 0.17361 0.35144 0.59518 0.0
C1091 C 0.20292 0.35929 0.53426 0.0
C1092 C 0.2269 0.35661 0.50984 0.0
C1093 C 0.24856 0.38238 0.48639 0.0
C1094 C 0.26816 0.37836 0.45936 0.0
C1095 C 0.26579 0.3483 0.45482 0.0
C1096 C 0.24473 0.32282 0.47913 0.0
C1097 C 0.22557 0.32699 0.50653 0.0
loop_
_geom_bond_atom_site_label_1
_geom_bond_atom_site_label_2
_geom_bond_distance
_geom_bond_site_symmetry_2
_ccdc_geom_bond_type
In0 O1 2.282 1_455 S
In0 O2 2.328 . S
In0 O6 2.253 1_455 S
In0 O7 2.328 1_454 S
In0 O8 2.270 1_554 S
In0 O9 2.310 1_454 S
In0 O11 2.315 . S
In0 O12 2.338 . S
O1 In0 2.282 1_655 S
O1 C10 1.232 1_655 S
O2 In0 2.328 . S
O2 C10 1.266 . S
C3 O6 1.252 1_556 S
C3 O7 1.260 . S
C4 O11 1.240 . S
C4 O12 1.252 . S
C5 O8 1.257 1_655 S
C5 O9 1.257 . S
O6 In0 2.253 1_655 S
O6 C3 1.252 1_554 S
O7 In0 2.328 1_656 S
O7 C3 1.260 . S
O8 In0 2.270 1_556 S
O8 C5 1.257 1_455 S
O9 In0 2.310 1_656 S
O9 C5 1.257 . S
C10 O1 1.232 1_455 S
C10 O2 1.266 . S
O11 In0 2.315 . S
O11 C4 1.240 . S
O12 In0 2.338 . S
O12 C4 1.252 . S
In13 O14 2.294 . S
In13 O15 2.326 . S
In13 O19 2.270 . S
In13 O20 2.326 1_554 S
In13 O21 2.266 1_554 S
In13 O22 2.326 1_554 S
In13 O24 2.294 . S
In13 O25 2.326 . S
O14 In13 2.294 . S
O14 C23 1.240 . S
O15 In13 2.326 . S
O15 C23 1.252 . S
C16 O19 1.235 1_556 S
C16 O20 1.260 . S
C17 O24 1.240 . S
C17 O25 1.252 . S
C18 O21 1.252 . S
C18 O22 1.260 . S
O19 In13 2.270 . S
O19 C16 1.235 1_554 S
O20 In13 2.326 1_556 S
O20 C16 1.260 . S
O21 In13 2.266 1_556 S
O21 C18 1.252 . S
O22 In13 2.326 1_556 S
O22 C18 1.260 . S
C23 O14 1.240 . S
C23 O15 1.252 . S
O24 In13 2.294 . S
O24 C17 1.240 . S
O25 In13 2.326 . S
O25 C17 1.252 . S
In26 O27 2.322 . S
In26 O28 2.342 1_554 S
In26 O32 2.272 . S
In26 O33 2.305 1_545 S
In26 O34 2.248 1_545 S
In26 O35 2.330 1_545 S
In26 O37 2.278 1_544 S
In26 O38 2.328 1_554 S
O27 In26 2.322 . S
O27 C36 1.240 1_554 S
O28 In26 2.342 1_556 S
O28 C36 1.252 . S
C29 O32 1.258 . S
C29 O33 1.256 1_545 S
C30 O37 1.229 1_545 S
C30 O38 1.273 . S
C31 O34 1.252 . S
C31 O35 1.260 . S
O32 In26 2.272 . S
O32 C29 1.258 . S
O33 In26 2.305 1_565 S
O33 C29 1.256 1_565 S
O34 In26 2.248 1_565 S
O34 C31 1.252 . S
O35 In26 2.330 1_565 S
O35 C31 1.260 . S
C36 O27 1.240 1_556 S
C36 O28 1.252 . S
O37 In26 2.278 1_566 S
O37 C30 1.229 1_565 S
O38 In26 2.328 1_556 S
O38 C30 1.273 . S
In39 O40 2.293 1_554 S
In39 O41 2.326 1_454 S
In39 O45 2.265 . S
In39 O46 2.326 . S
In39 O47 2.267 1_455 S
In39 O48 2.324 . S
In39 O50 2.296 1_455 S
In39 O51 2.328 1_454 S
O40 In39 2.293 1_556 S
O40 C49 1.239 . S
O41 In39 2.326 1_656 S
O41 C49 1.254 1_655 S
C42 O45 1.252 . S
C42 O46 1.260 . S
C43 O50 1.240 1_556 S
C43 O51 1.252 . S
C44 O47 1.232 1_455 S
C44 O48 1.275 . S
O45 In39 2.265 . S
O45 C42 1.252 . S
O46 In39 2.326 . S
O46 C42 1.260 . S
O47 In39 2.267 1_655 S
O47 C44 1.232 1_655 S
O48 In39 2.324 . S
O48 C44 1.275 . S
C49 O40 1.239 . S
C49 O41 1.254 1_455 S
O50 In39 2.296 1_655 S
O50 C43 1.240 1_554 S
O51 In39 2.328 1_656 S
O51 C43 1.252 . S
In52 O53 2.294 1_554 S
In52 O54 2.326 1_554 S
In52 O58 2.266 . S
In52 O59 2.326 . S
In52 O60 2.266 . S
In52 O61 2.326 . S
In52 O63 2.299 . S
In52 O64 2.326 1_554 S
O53 In52 2.294 1_556 S
O53 C62 1.240 . S
O54 In52 2.326 1_556 S
O54 C62 1.252 . S
C55 O58 1.252 . S
C55 O59 1.260 . S
C56 O63 1.216 1_556 S
C56 O64 1.252 . S
C57 O60 1.252 . S
C57 O61 1.260 . S
O58 In52 2.266 . S
O58 C55 1.252 . S
O59 In52 2.326 . S
O59 C55 1.260 . S
O60 In52 2.266 . S
O60 C57 1.252 . S
O61 In52 2.326 . S
O61 C57 1.260 . S
C62 O53 1.240 . S
C62 O54 1.252 . S
O63 In52 2.299 . S
O63 C56 1.216 1_554 S
O64 In52 2.326 1_556 S
O64 C56 1.252 . S
In65 O66 2.293 . S
In65 O67 2.326 1_545 S
In65 O71 2.265 . S
In65 O72 2.326 1_554 S
In65 O73 2.267 1_544 S
In65 O74 2.324 1_554 S
In65 O76 2.296 1_545 S
In65 O77 2.328 1_545 S
O66 In65 2.293 . S
O66 C75 1.239 . S
O67 In65 2.326 1_565 S
O67 C75 1.255 1_565 S
C68 O71 1.252 1_556 S
C68 O72 1.260 . S
C69 O76 1.240 . S
C69 O77 1.252 . S
C70 O73 1.234 1_545 S
C70 O74 1.273 . S
O71 In65 2.265 . S
O71 C68 1.252 1_554 S
O72 In65 2.326 1_556 S
O72 C68 1.260 . S
O73 In65 2.267 1_566 S
O73 C70 1.234 1_565 S
O74 In65 2.324 1_556 S
O74 C70 1.273 . S
C75 O66 1.239 . S
C75 O67 1.255 1_545 S
O76 In65 2.296 1_565 S
O76 C69 1.240 . S
O77 In65 2.328 1_565 S
O77 C69 1.252 . S
In78 O79 2.294 . S
In78 O80 2.326 . S
In78 O84 2.266 . S
In78 O85 2.326 . S
In78 O86 2.266 . S
In78 O87 2.326 . S
In78 O89 2.294 . S
In78 O90 2.326 . S
O79 In78 2.294 . S
O79 C88 1.240 . S
O80 In78 2.326 . S
O80 C88 1.252 . S
C81 O84 1.252 . S
C81 O85 1.260 . S
C82 O89 1.240 . S
C82 O90 1.252 . S
C83 O86 1.252 . S
C83 O87 1.260 . S
O84 In78 2.266 . S
O84 C81 1.252 . S
O85 In78 2.326 . S
O85 C81 1.260 . S
O86 In78 2.266 . S
O86 C83 1.252 . S
O87 In78 2.326 . S
O87 C83 1.260 . S
C88 O79 1.240 . S
C88 O80 1.252 . S
O89 In78 2.294 . S
O89 C82 1.240 . S
O90 In78 2.326 . S
O90 C82 1.252 . S
In91 O92 2.294 . S
In91 O93 2.326 . S
In91 O97 2.266 . S
In91 O98 2.326 1_565 S
In91 O99 2.266 . S
In91 O100 2.326 . S
In91 O102 2.294 1_565 S
In91 O103 2.326 1_565 S
O92 In91 2.294 . S
O92 C101 1.240 . S
O93 In91 2.326 . S
O93 C101 1.252 . S
C94 O97 1.252 . S
C94 O98 1.260 1_565 S
C95 O102 1.240 . S
C95 O103 1.252 . S
C96 O99 1.252 . S
C96 O100 1.260 . S
O97 In91 2.266 . S
O97 C94 1.252 . S
O98 In91 2.326 1_545 S
O98 C94 1.260 1_545 S
O99 In91 2.266 . S
O99 C96 1.252 . S
O100 In91 2.326 . S
O100 C96 1.260 . S
C101 O92 1.240 . S
C101 O93 1.252 . S
O102 In91 2.294 1_545 S
O102 C95 1.240 . S
O103 In91 2.326 1_545 S
O103 C95 1.252 . S
In104 O105 2.294 . S
In104 O106 2.326 1_455 S
In104 O110 2.266 . S
In104 O111 2.326 . S
In104 O112 2.266 1_455 S
In104 O113 2.326 1_455 S
In104 O115 2.294 . S
In104 O116 2.326 . S
O105 In104 2.294 . S
O105 C114 1.240 . S
O106 In104 2.326 1_655 S
O106 C114 1.252 1_655 S
C107 O110 1.252 . S
C107 O111 1.260 . S
C108 O115 1.240 . S
C108 O116 1.252 . S
C109 O112 1.252 . S
C109 O113 1.260 . S
O110 In104 2.266 . S
O110 C107 1.252 . S
O111 In104 2.326 . S
O111 C107 1.260 . S
O112 In104 2.266 1_655 S
O112 C109 1.252 . S
O113 In104 2.326 1_655 S
O113 C109 1.260 . S
C114 O105 1.240 . S
C114 O106 1.252 1_455 S
O115 In104 2.294 . S
O115 C108 1.240 . S
O116 In104 2.326 . S
O116 C108 1.252 . S
In117 O118 2.294 . S
In117 O119 2.326 . S
In117 O123 2.266 1_565 S
In117 O124 2.326 1_565 S
In117 O125 2.266 . S
In117 O126 2.326 . S
In117 O128 2.294 . S
In117 O129 2.326 1_565 S
O118 In117 2.294 . S
O118 C127 1.240 . S
O119 In117 2.326 . S
O119 C127 1.252 . S
C120 O123 1.252 . S
C120 O124 1.260 . S
C121 O128 1.240 . S
C121 O129 1.252 1_565 S
C122 O125 1.252 . S
C122 O126 1.260 . S
O123 In117 2.266 1_545 S
O123 C120 1.252 . S
O124 In117 2.326 1_545 S
O124 C120 1.260 . S
O125 In117 2.266 . S
O125 C122 1.252 . S
O126 In117 2.326 . S
O126 C122 1.260 . S
C127 O118 1.240 . S
C127 O119 1.252 . S
O128 In117 2.294 . S
O128 C121 1.240 . S
O129 In117 2.326 1_545 S
O129 C121 1.252 1_545 S
In130 O131 2.294 . S
In130 O132 2.326 . S
In130 O136 2.266 1_455 S
In130 O137 2.326 1_455 S
In130 O138 2.266 . S
In130 O139 2.326 . S
In130 O141 2.294 . S
In130 O142 2.326 1_455 S
O131 In130 2.294 . S
O131 C140 1.240 . S
O132 In130 2.326 . S
O132 C140 1.252 . S
C133 O136 1.252 . S
C133 O137 1.260 . S
C134 O141 1.240 . S
C134 O142 1.252 1_455 S
C135 O138 1.252 . S
C135 O139 1.260 . S
O136 In130 2.266 1_655 S
O136 C133 1.252 . S
O137 In130 2.326 1_655 S
O137 C133 1.260 . S
O138 In130 2.266 . S
O138 C135 1.252 . S
O139 In130 2.326 . S
O139 C135 1.260 . S
C140 O131 1.240 . S
C140 O132 1.252 . S
O141 In130 2.294 . S
O141 C134 1.240 . S
O142 In130 2.326 1_655 S
O142 C134 1.252 1_655 S
In143 O144 2.294 . S
In143 O145 2.326 . S
In143 O149 2.266 . S
In143 O150 2.326 . S
In143 O151 2.266 . S
In143 O152 2.326 . S
In143 O154 2.294 . S
In143 O155 2.326 . S
O144 In143 2.294 . S
O144 C153 1.240 . S
O145 In143 2.326 . S
O145 C153 1.252 . S
C146 O149 1.252 . S
C146 O150 1.260 . S
C147 O154 1.240 . S
C147 O155 1.252 . S
C148 O151 1.252 . S
C148 O152 1.260 . S
O149 In143 2.266 . S
O149 C146 1.252 . S
O150 In143 2.326 . S
O150 C146 1.260 . S
O151 In143 2.266 . S
O151 C148 1.252 . S
O152 In143 2.326 . S
O152 C148 1.260 . S
C153 O144 1.240 . S
C153 O145 1.252 . S
O154 In143 2.294 . S
O154 C147 1.240 . S
O155 In143 2.326 . S
O155 C147 1.252 . S
In156 O157 2.294 . S
In156 O158 2.326 1_545 S
In156 O162 2.266 . S
In156 O163 2.326 . S
In156 O164 2.266 1_545 S
In156 O165 2.326 1_545 S
In156 O167 2.294 . S
In156 O168 2.326 . S
O157 In156 2.294 . S
O157 C166 1.240 . S
O158 In156 2.326 1_565 S
O158 C166 1.252 1_565 S
C159 O162 1.252 . S
C159 O163 1.260 . S
C160 O167 1.240 . S
C160 O168 1.252 . S
C161 O164 1.252 . S
C161 O165 1.260 . S
O162 In156 2.266 . S
O162 C159 1.252 . S
O163 In156 2.326 . S
O163 C159 1.260 . S
O164 In156 2.266 1_565 S
O164 C161 1.252 . S
O165 In156 2.326 1_565 S
O165 C161 1.260 . S
C166 O157 1.240 . S
C166 O158 1.252 1_545 S
O167 In156 2.294 . S
O167 C160 1.240 . S
O168 In156 2.326 . S
O168 C160 1.252 . S
In169 O170 2.294 . S
In169 O171 2.326 1_655 S
In169 O175 2.266 . S
In169 O176 2.326 . S
In169 O177 2.266 1_655 S
In169 O178 2.326 1_655 S
In169 O180 2.294 . S
In169 O181 2.326 . S
O170 In169 2.294 . S
O170 C179 1.240 . S
O171 In169 2.326 1_455 S
O171 C179 1.252 1_455 S
C172 O175 1.252 . S
C172 O176 1.260 . S
C173 O180 1.240 . S
C173 O181 1.252 . S
C174 O177 1.252 . S
C174 O178 1.260 . S
O175 In169 2.266 . S
O175 C172 1.252 . S
O176 In169 2.326 . S
O176 C172 1.260 . S
O177 In169 2.266 1_455 S
O177 C174 1.252 . S
O178 In169 2.326 1_455 S
O178 C174 1.260 . S
C179 O170 1.240 . S
C179 O171 1.252 1_655 S
O180 In169 2.294 . S
O180 C173 1.240 . S
O181 In169 2.326 . S
O181 C173 1.252 . S
In182 O183 2.294 . S
In182 O184 2.326 . S
In182 O188 2.266 . S
In182 O189 2.326 . S
In182 O190 2.266 . S
In182 O191 2.326 . S
In182 O193 2.294 . S
In182 O194 2.326 . S
O183 In182 2.294 . S
O183 C192 1.240 . S
O184 In182 2.326 . S
O184 C192 1.252 . S
C185 O188 1.252 . S
C185 O189 1.260 . S
C186 O193 1.240 . S
C186 O194 1.252 . S
C187 O190 1.252 . S
C187 O191 1.260 . S
O188 In182 2.266 . S
O188 C185 1.252 . S
O189 In182 2.326 . S
O189 C185 1.260 . S
O190 In182 2.266 . S
O190 C187 1.252 . S
O191 In182 2.326 . S
O191 C187 1.260 . S
C192 O183 1.240 . S
C192 O184 1.252 . S
O193 In182 2.294 . S
O193 C186 1.240 . S
O194 In182 2.326 . S
O194 C186 1.252 . S
In195 O196 2.294 . S
In195 O197 2.326 . S
In195 O201 2.266 . S
In195 O202 2.326 . S
In195 O203 2.266 . S
In195 O204 2.326 . S
In195 O206 2.294 . S
In195 O207 2.326 . S
O196 In195 2.294 . S
O196 C205 1.240 . S
O197 In195 2.326 . S
O197 C205 1.252 . S
C198 O201 1.252 . S
C198 O202 1.260 . S
C199 O206 1.240 . S
C199 O207 1.252 . S
C200 O203 1.252 . S
C200 O204 1.260 . S
O201 In195 2.266 . S
O201 C198 1.252 . S
O202 In195 2.326 . S
O202 C198 1.260 . S
O203 In195 2.266 . S
O203 C200 1.252 . S
O204 In195 2.326 . S
O204 C200 1.260 . S
C205 O196 1.240 . S
C205 O197 1.252 . S
O206 In195 2.294 . S
O206 C199 1.240 . S
O207 In195 2.326 . S
O207 C199 1.252 . S
In208 O209 2.294 . S
In208 O210 2.326 . S
In208 O214 2.266 . S
In208 O215 2.326 1_545 S
In208 O216 2.266 . S
In208 O217 2.326 . S
In208 O219 2.294 1_545 S
In208 O220 2.326 1_545 S
O209 In208 2.294 . S
O209 C218 1.240 . S
O210 In208 2.326 . S
O210 C218 1.252 . S
C211 O214 1.252 . S
C211 O215 1.260 1_545 S
C212 O219 1.240 . S
C212 O220 1.252 . S
C213 O216 1.252 . S
C213 O217 1.260 . S
O214 In208 2.266 . S
O214 C211 1.252 . S
O215 In208 2.326 1_565 S
O215 C211 1.260 1_565 S
O216 In208 2.266 . S
O216 C213 1.252 . S
O217 In208 2.326 . S
O217 C213 1.260 . S
C218 O209 1.240 . S
C218 O210 1.252 . S
O219 In208 2.294 1_565 S
O219 C212 1.240 . S
O220 In208 2.326 1_565 S
O220 C212 1.252 . S
In221 O222 2.294 . S
In221 O223 2.326 1_655 S
In221 O227 2.266 . S
In221 O228 2.326 . S
In221 O229 2.266 1_655 S
In221 O230 2.326 1_655 S
In221 O232 2.294 . S
In221 O233 2.326 . S
O222 In221 2.294 . S
O222 C231 1.240 . S
O223 In221 2.326 1_455 S
O223 C231 1.252 1_455 S
C224 O227 1.252 . S
C224 O228 1.260 . S
C225 O232 1.240 . S
C225 O233 1.252 . S
C226 O229 1.252 . S
C226 O230 1.260 . S
O227 In221 2.266 . S
O227 C224 1.252 . S
O228 In221 2.326 . S
O228 C224 1.260 . S
O229 In221 2.266 1_455 S
O229 C226 1.252 . S
O230 In221 2.326 1_455 S
O230 C226 1.260 . S
C231 O222 1.240 . S
C231 O223 1.252 1_655 S
O232 In221 2.294 . S
O232 C225 1.240 . S
O233 In221 2.326 . S
O233 C225 1.252 . S
H234 C253 0.949 . S
H235 C254 0.950 . S
H236 C256 0.950 . S
H237 C257 0.950 . S
H238 C259 0.950 . S
H239 C262 0.950 . S
H240 C263 0.950 . S
H241 C265 0.951 . S
H242 C266 0.949 . S
H243 C268 0.949 . S
H244 C269 0.950 . S
H245 C271 0.950 . S
H246 C272 0.950 . S
H247 C274 0.950 . S
H248 C277 0.950 . S
H249 C278 0.950 . S
H250 C280 0.951 . S
H251 C281 0.949 . S
C252 C253 1.376 . S
C252 C257 1.386 . S
C252 C258 1.483 . S
C253 H234 0.949 . S
C253 C252 1.376 . S
C253 C254 1.397 . S
C254 H235 0.950 . S
C254 C253 1.397 . S
C254 C255 1.391 . S
C255 C254 1.391 . S
C255 C256 1.405 . S
C256 H236 0.950 . S
C256 C255 1.405 . S
C256 C257 1.367 . S
C257 H237 0.950 . S
C257 C252 1.386 . S
C257 C256 1.367 . S
C258 C252 1.483 . S
C258 C259 1.382 . S
C258 C260 1.403 . S
C259 H238 0.950 . S
C259 C258 1.382 . S
C259 C275 1.411 . S
C260 C258 1.403 . S
C260 C261 1.489 . S
C260 C274 1.411 . S
C261 C260 1.489 . S
C261 C262 1.383 . S
C261 C266 1.382 . S
C262 H239 0.950 . S
C262 C261 1.383 . S
C262 C263 1.395 . S
C263 H240 0.950 . S
C263 C262 1.395 . S
C263 C264 1.288 . S
C264 C263 1.288 . S
C264 C265 1.392 . S
C265 H241 0.951 . S
C265 C264 1.392 . S
C265 C266 1.392 . S
C266 H242 0.949 . S
C266 C261 1.382 . S
C266 C265 1.392 . S
C267 C268 1.376 . S
C267 C272 1.386 . S
C267 C273 1.483 . S
C268 H243 0.949 . S
C268 C267 1.376 . S
C268 C269 1.397 . S
C269 H244 0.950 . S
C269 C268 1.397 . S
C269 C270 1.391 . S
C270 C269 1.391 . S
C270 C271 1.405 . S
C271 H245 0.950 . S
C271 C270 1.405 . S
C271 C272 1.367 . S
C272 H246 0.950 . S
C272 C267 1.386 . S
C272 C271 1.367 . S
C273 C267 1.483 . S
C273 C274 1.382 . S
C273 C275 1.403 . S
C274 H247 0.950 . S
C274 C260 1.411 . S
C274 C273 1.382 . S
C275 C259 1.411 . S
C275 C273 1.403 . S
C275 C276 1.489 . S
C276 C275 1.489 . S
C276 C277 1.383 . S
C276 C281 1.382 . S
C277 H248 0.950 . S
C277 C276 1.383 . S
C277 C278 1.395 . S
C278 H249 0.950 . S
C278 C277 1.395 . S
C278 C279 1.288 . S
C279 C278 1.288 . S
C279 C280 1.392 . S
C280 H250 0.951 . S
C280 C279 1.392 . S
C280 C281 1.392 . S
C281 H251 0.949 . S
C281 C276 1.382 . S
C281 C280 1.392 . S
H282 C301 0.949 . S
H283 C302 0.950 . S
H284 C304 0.950 . S
H285 C305 0.950 . S
H286 C307 0.950 . S
H287 C310 0.950 . S
H288 C311 0.950 . S
H289 C313 0.951 . S
H290 C314 0.949 . S
H291 C316 0.949 . S
H292 C317 0.950 . S
H293 C319 0.950 . S
H294 C320 0.950 . S
H295 C322 0.950 . S
H296 C325 0.950 . S
H297 C326 0.950 . S
H298 C328 0.951 . S
H299 C329 0.949 . S
C300 C301 1.376 . S
C300 C305 1.386 . S
C300 C306 1.483 . S
C301 H282 0.949 . S
C301 C300 1.376 . S
C301 C302 1.397 . S
C302 H283 0.950 . S
C302 C301 1.397 . S
C302 C303 1.391 . S
C303 C302 1.391 . S
C303 C304 1.405 . S
C304 H284 0.950 . S
C304 C303 1.405 . S
C304 C305 1.367 . S
C305 H285 0.950 . S
C305 C300 1.386 . S
C305 C304 1.367 . S
C306 C300 1.483 . S
C306 C307 1.382 . S
C306 C308 1.403 . S
C307 H286 0.950 . S
C307 C306 1.382 . S
C307 C323 1.411 . S
C308 C306 1.403 . S
C308 C309 1.489 . S
C308 C322 1.411 . S
C309 C308 1.489 . S
C309 C310 1.383 . S
C309 C314 1.382 . S
C310 H287 0.950 . S
C310 C309 1.383 . S
C310 C311 1.395 . S
C311 H288 0.950 . S
C311 C310 1.395 . S
C311 C312 1.288 . S
C312 C311 1.288 . S
C312 C313 1.392 . S
C313 H289 0.951 . S
C313 C312 1.392 . S
C313 C314 1.392 . S
C314 H290 0.949 . S
C314 C309 1.382 . S
C314 C313 1.392 . S
C315 C316 1.376 . S
C315 C320 1.386 . S
C315 C321 1.483 . S
C316 H291 0.949 . S
C316 C315 1.376 . S
C316 C317 1.397 . S
C317 H292 0.950 . S
C317 C316 1.397 . S
C317 C318 1.391 . S
C318 C317 1.391 . S
C318 C319 1.405 . S
C319 H293 0.950 . S
C319 C318 1.405 . S
C319 C320 1.367 . S
C320 H294 0.950 . S
C320 C315 1.386 . S
C320 C319 1.367 . S
C321 C315 1.483 . S
C321 C322 1.382 . S
C321 C323 1.403 . S
C322 H295 0.950 . S
C322 C308 1.411 . S
C322 C321 1.382 . S
C323 C307 1.411 . S
C323 C321 1.403 . S
C323 C324 1.489 . S
C324 C323 1.489 . S
C324 C325 1.383 . S
C324 C329 1.382 . S
C325 H296 0.950 . S
C325 C324 1.383 . S
C325 C326 1.395 . S
C326 H297 0.950 . S
C326 C325 1.395 . S
C326 C327 1.288 . S
C327 C326 1.288 . S
C327 C328 1.392 . S
C328 H298 0.951 . S
C328 C327 1.392 . S
C328 C329 1.392 . S
C329 H299 0.949 . S
C329 C324 1.382 . S
C329 C328 1.392 . S
H330 C349 0.949 . S
H331 C350 0.950 . S
H332 C352 0.950 . S
H333 C353 0.950 . S
H334 C355 0.950 . S
H335 C358 0.950 . S
H336 C359 0.950 . S
H337 C361 0.951 . S
H338 C362 0.949 . S
H339 C364 0.949 . S
H340 C365 0.950 . S
H341 C367 0.950 . S
H342 C368 0.950 . S
H343 C370 0.950 . S
H344 C373 0.950 . S
H345 C374 0.950 . S
H346 C376 0.951 . S
H347 C377 0.949 . S
C348 C349 1.376 . S
C348 C353 1.386 . S
C348 C354 1.483 . S
C349 H330 0.949 . S
C349 C348 1.376 . S
C349 C350 1.397 . S
C350 H331 0.950 . S
C350 C349 1.397 . S
C350 C351 1.391 . S
C351 C350 1.391 . S
C351 C352 1.405 . S
C352 H332 0.950 . S
C352 C351 1.405 . S
C352 C353 1.367 . S
C353 H333 0.950 . S
C353 C348 1.386 . S
C353 C352 1.367 . S
C354 C348 1.483 . S
C354 C355 1.382 . S
C354 C356 1.403 . S
C355 H334 0.950 . S
C355 C354 1.382 . S
C355 C371 1.411 . S
C356 C354 1.403 . S
C356 C357 1.489 . S
C356 C370 1.411 . S
C357 C356 1.489 . S
C357 C358 1.383 . S
C357 C362 1.382 . S
C358 H335 0.950 . S
C358 C357 1.383 . S
C358 C359 1.395 . S
C359 H336 0.950 . S
C359 C358 1.395 . S
C359 C360 1.288 . S
C360 C359 1.288 . S
C360 C361 1.392 . S
C361 H337 0.951 . S
C361 C360 1.392 . S
C361 C362 1.392 . S
C362 H338 0.949 . S
C362 C357 1.382 . S
C362 C361 1.392 . S
C363 C364 1.376 . S
C363 C368 1.386 . S
C363 C369 1.483 . S
C364 H339 0.949 . S
C364 C363 1.376 . S
C364 C365 1.397 . S
C365 H340 0.950 . S
C365 C364 1.397 . S
C365 C366 1.391 . S
C366 C365 1.391 . S
C366 C367 1.405 . S
C367 H341 0.950 . S
C367 C366 1.405 . S
C367 C368 1.367 . S
C368 H342 0.950 . S
C368 C363 1.386 . S
C368 C367 1.367 . S
C369 C363 1.483 . S
C369 C370 1.382 . S
C369 C371 1.403 . S
C370 H343 0.950 . S
C370 C356 1.411 . S
C370 C369 1.382 . S
C371 C355 1.411 . S
C371 C369 1.403 . S
C371 C372 1.489 . S
C372 C371 1.489 . S
C372 C373 1.383 . S
C372 C377 1.382 . S
C373 H344 0.950 . S
C373 C372 1.383 . S
C373 C374 1.395 . S
C374 H345 0.950 . S
C374 C373 1.395 . S
C374 C375 1.288 . S
C375 C374 1.288 . S
C375 C376 1.392 . S
C376 H346 0.951 . S
C376 C375 1.392 . S
C376 C377 1.392 . S
C377 H347 0.949 . S
C377 C372 1.382 . S
C377 C376 1.392 . S
H378 C397 0.949 . S
H379 C398 0.950 . S
H380 C400 0.950 . S
H381 C401 0.950 . S
H382 C403 0.950 . S
H383 C406 0.950 . S
H384 C407 0.950 . S
H385 C409 0.951 . S
H386 C410 0.949 . S
H387 C412 0.949 . S
H388 C413 0.950 . S
H389 C415 0.950 . S
H390 C416 0.950 . S
H391 C418 0.950 . S
H392 C421 0.950 . S
H393 C422 0.950 . S
H394 C424 0.951 . S
H395 C425 0.949 . S
C396 C397 1.376 . S
C396 C401 1.386 . S
C396 C402 1.483 . S
C397 H378 0.949 . S
C397 C396 1.376 . S
C397 C398 1.397 . S
C398 H379 0.950 . S
C398 C397 1.397 . S
C398 C399 1.391 . S
C399 C398 1.391 . S
C399 C400 1.405 . S
C400 H380 0.950 . S
C400 C399 1.405 . S
C400 C401 1.367 . S
C401 H381 0.950 . S
C401 C396 1.386 . S
C401 C400 1.367 . S
C402 C396 1.483 . S
C402 C403 1.382 . S
C402 C404 1.403 . S
C403 H382 0.950 . S
C403 C402 1.382 . S
C403 C419 1.411 . S
C404 C402 1.403 . S
C404 C405 1.489 . S
C404 C418 1.411 . S
C405 C404 1.489 . S
C405 C406 1.383 . S
C405 C410 1.382 . S
C406 H383 0.950 . S
C406 C405 1.383 . S
C406 C407 1.395 . S
C407 H384 0.950 . S
C407 C406 1.395 . S
C407 C408 1.288 . S
C408 C407 1.288 . S
C408 C409 1.392 . S
C409 H385 0.951 . S
C409 C408 1.392 . S
C409 C410 1.392 . S
C410 H386 0.949 . S
C410 C405 1.382 . S
C410 C409 1.392 . S
C411 C412 1.376 . S
C411 C416 1.386 . S
C411 C417 1.483 . S
C412 H387 0.949 . S
C412 C411 1.376 . S
C412 C413 1.397 . S
C413 H388 0.950 . S
C413 C412 1.397 . S
C413 C414 1.391 . S
C414 C413 1.391 . S
C414 C415 1.405 . S
C415 H389 0.950 . S
C415 C414 1.405 . S
C415 C416 1.367 . S
C416 H390 0.950 . S
C416 C411 1.386 . S
C416 C415 1.367 . S
C417 C411 1.483 . S
C417 C418 1.382 . S
C417 C419 1.403 . S
C418 H391 0.950 . S
C418 C404 1.411 . S
C418 C417 1.382 . S
C419 C403 1.411 . S
C419 C417 1.403 . S
C419 C420 1.489 . S
C420 C419 1.489 . S
C420 C421 1.383 . S
C420 C425 1.382 . S
C421 H392 0.950 . S
C421 C420 1.383 . S
C421 C422 1.395 . S
C422 H393 0.950 . S
C422 C421 1.395 . S
C422 C423 1.288 . S
C423 C422 1.288 . S
C423 C424 1.392 . S
C424 H394 0.951 . S
C424 C423 1.392 . S
C424 C425 1.392 . S
C425 H395 0.949 . S
C425 C420 1.382 . S
C425 C424 1.392 . S
H426 C445 0.949 . S
H427 C446 0.950 . S
H428 C448 0.950 . S
H429 C449 0.950 . S
H430 C451 0.950 . S
H431 C454 0.950 . S
H432 C455 0.950 . S
H433 C457 0.951 . S
H434 C458 0.949 . S
H435 C460 0.949 . S
H436 C461 0.950 . S
H437 C463 0.950 . S
H438 C464 0.950 . S
H439 C466 0.950 . S
H440 C469 0.950 . S
H441 C470 0.950 . S
H442 C472 0.951 . S
H443 C473 0.949 . S
C444 C445 1.376 . S
C444 C449 1.386 . S
C444 C450 1.483 . S
C445 H426 0.949 . S
C445 C444 1.376 . S
C445 C446 1.397 . S
C446 H427 0.950 . S
C446 C445 1.397 . S
C446 C447 1.391 . S
C447 C446 1.391 . S
C447 C448 1.405 . S
C448 H428 0.950 . S
C448 C447 1.405 . S
C448 C449 1.367 . S
C449 H429 0.950 . S
C449 C444 1.386 . S
C449 C448 1.367 . S
C450 C444 1.483 . S
C450 C451 1.382 . S
C450 C452 1.403 . S
C451 H430 0.950 . S
C451 C450 1.382 . S
C451 C467 1.411 . S
C452 C450 1.403 . S
C452 C453 1.489 . S
C452 C466 1.411 . S
C453 C452 1.489 . S
C453 C454 1.383 . S
C453 C458 1.382 . S
C454 H431 0.950 . S
C454 C453 1.383 . S
C454 C455 1.395 . S
C455 H432 0.950 . S
C455 C454 1.395 . S
C455 C456 1.288 . S
C456 C455 1.288 . S
C456 C457 1.392 . S
C457 H433 0.951 . S
C457 C456 1.392 . S
C457 C458 1.392 . S
C458 H434 0.949 . S
C458 C453 1.382 . S
C458 C457 1.392 . S
C459 C460 1.376 . S
C459 C464 1.386 . S
C459 C465 1.483 . S
C460 H435 0.949 . S
C460 C459 1.376 . S
C460 C461 1.397 . S
C461 H436 0.950 . S
C461 C460 1.397 . S
C461 C462 1.391 . S
C462 C461 1.391 . S
C462 C463 1.405 . S
C463 H437 0.950 . S
C463 C462 1.405 . S
C463 C464 1.367 . S
C464 H438 0.950 . S
C464 C459 1.386 . S
C464 C463 1.367 . S
C465 C459 1.483 . S
C465 C466 1.382 . S
C465 C467 1.403 . S
C466 H439 0.950 . S
C466 C452 1.411 . S
C466 C465 1.382 . S
C467 C451 1.411 . S
C467 C465 1.403 . S
C467 C468 1.489 . S
C468 C467 1.489 . S
C468 C469 1.383 . S
C468 C473 1.382 . S
C469 H440 0.950 . S
C469 C468 1.383 . S
C469 C470 1.395 . S
C470 H441 0.950 . S
C470 C469 1.395 . S
C470 C471 1.288 . S
C471 C470 1.288 . S
C471 C472 1.392 . S
C472 H442 0.951 . S
C472 C471 1.392 . S
C472 C473 1.392 . S
C473 H443 0.949 . S
C473 C468 1.382 . S
C473 C472 1.392 . S
H474 C493 0.949 . S
H475 C494 0.950 . S
H476 C496 0.950 . S
H477 C497 0.950 . S
H478 C499 0.950 . S
H479 C502 0.950 . S
H480 C503 0.950 . S
H481 C505 0.951 . S
H482 C506 0.949 . S
H483 C508 0.949 . S
H484 C509 0.950 . S
H485 C511 0.950 . S
H486 C512 0.950 . S
H487 C514 0.950 . S
H488 C517 0.950 . S
H489 C518 0.950 . S
H490 C520 0.951 . S
H491 C521 0.949 . S
C492 C493 1.376 . S
C492 C497 1.386 . S
C492 C498 1.483 . S
C493 H474 0.949 . S
C493 C492 1.376 . S
C493 C494 1.397 . S
C494 H475 0.950 . S
C494 C493 1.397 . S
C494 C495 1.391 . S
C495 C494 1.391 . S
C495 C496 1.405 . S
C496 H476 0.950 . S
C496 C495 1.405 . S
C496 C497 1.367 . S
C497 H477 0.950 . S
C497 C492 1.386 . S
C497 C496 1.367 . S
C498 C492 1.483 . S
C498 C499 1.382 . S
C498 C500 1.403 . S
C499 H478 0.950 . S
C499 C498 1.382 . S
C499 C515 1.411 . S
C500 C498 1.403 . S
C500 C501 1.489 . S
C500 C514 1.411 . S
C501 C500 1.489 . S
C501 C502 1.383 . S
C501 C506 1.382 . S
C502 H479 0.950 . S
C502 C501 1.383 . S
C502 C503 1.395 . S
C503 H480 0.950 . S
C503 C502 1.395 . S
C503 C504 1.288 . S
C504 C503 1.288 . S
C504 C505 1.392 . S
C505 H481 0.951 . S
C505 C504 1.392 . S
C505 C506 1.392 . S
C506 H482 0.949 . S
C506 C501 1.382 . S
C506 C505 1.392 . S
C507 C508 1.376 . S
C507 C512 1.386 . S
C507 C513 1.483 . S
C508 H483 0.949 . S
C508 C507 1.376 . S
C508 C509 1.397 . S
C509 H484 0.950 . S
C509 C508 1.397 . S
C509 C510 1.391 . S
C510 C509 1.391 . S
C510 C511 1.405 . S
C511 H485 0.950 . S
C511 C510 1.405 . S
C511 C512 1.367 . S
C512 H486 0.950 . S
C512 C507 1.386 . S
C512 C511 1.367 . S
C513 C507 1.483 . S
C513 C514 1.382 . S
C513 C515 1.403 . S
C514 H487 0.950 . S
C514 C500 1.411 . S
C514 C513 1.382 . S
C515 C499 1.411 . S
C515 C513 1.403 . S
C515 C516 1.489 . S
C516 C515 1.489 . S
C516 C517 1.383 . S
C516 C521 1.382 . S
C517 H488 0.950 . S
C517 C516 1.383 . S
C517 C518 1.395 . S
C518 H489 0.950 . S
C518 C517 1.395 . S
C518 C519 1.288 . S
C519 C518 1.288 . S
C519 C520 1.392 . S
C520 H490 0.951 . S
C520 C519 1.392 . S
C520 C521 1.392 . S
C521 H491 0.949 . S
C521 C516 1.382 . S
C521 C520 1.392 . S
H522 C541 0.949 . S
H523 C542 0.950 . S
H524 C544 0.950 . S
H525 C545 0.950 . S
H526 C547 0.950 . S
H527 C550 0.950 . S
H528 C551 0.950 . S
H529 C553 0.951 . S
H530 C554 0.949 . S
H531 C556 0.949 . S
H532 C557 0.950 . S
H533 C559 0.950 . S
H534 C560 0.950 . S
H535 C562 0.950 . S
H536 C565 0.950 . S
H537 C566 0.950 . S
H538 C568 0.951 . S
H539 C569 0.949 . S
C540 C541 1.376 . S
C540 C545 1.386 . S
C540 C546 1.483 . S
C541 H522 0.949 . S
C541 C540 1.376 . S
C541 C542 1.397 . S
C542 H523 0.950 . S
C542 C541 1.397 . S
C542 C543 1.391 . S
C543 C542 1.391 . S
C543 C544 1.405 . S
C544 H524 0.950 . S
C544 C543 1.405 . S
C544 C545 1.367 . S
C545 H525 0.950 . S
C545 C540 1.386 . S
C545 C544 1.367 . S
C546 C540 1.483 . S
C546 C547 1.382 . S
C546 C548 1.403 . S
C547 H526 0.950 . S
C547 C546 1.382 . S
C547 C563 1.411 . S
C548 C546 1.403 . S
C548 C549 1.489 . S
C548 C562 1.411 . S
C549 C548 1.489 . S
C549 C550 1.383 . S
C549 C554 1.382 . S
C550 H527 0.950 . S
C550 C549 1.383 . S
C550 C551 1.395 . S
C551 H528 0.950 . S
C551 C550 1.395 . S
C551 C552 1.288 . S
C552 C551 1.288 . S
C552 C553 1.392 . S
C553 H529 0.951 . S
C553 C552 1.392 . S
C553 C554 1.392 . S
C554 H530 0.949 . S
C554 C549 1.382 . S
C554 C553 1.392 . S
C555 C556 1.376 . S
C555 C560 1.386 . S
C555 C561 1.483 . S
C556 H531 0.949 . S
C556 C555 1.376 . S
C556 C557 1.397 . S
C557 H532 0.950 . S
C557 C556 1.397 . S
C557 C558 1.391 . S
C558 C557 1.391 . S
C558 C559 1.405 . S
C559 H533 0.950 . S
C559 C558 1.405 . S
C559 C560 1.367 . S
C560 H534 0.950 . S
C560 C555 1.386 . S
C560 C559 1.367 . S
C561 C555 1.483 . S
C561 C562 1.382 . S
C561 C563 1.403 . S
C562 H535 0.950 . S
C562 C548 1.411 . S
C562 C561 1.382 . S
C563 C547 1.411 . S
C563 C561 1.403 . S
C563 C564 1.489 . S
C564 C563 1.489 . S
C564 C565 1.383 . S
C564 C569 1.382 . S
C565 H536 0.950 . S
C565 C564 1.383 . S
C565 C566 1.395 . S
C566 H537 0.950 . S
C566 C565 1.395 . S
C566 C567 1.288 . S
C567 C566 1.288 . S
C567 C568 1.392 . S
C568 H538 0.951 . S
C568 C567 1.392 . S
C568 C569 1.392 . S
C569 H539 0.949 . S
C569 C564 1.382 . S
C569 C568 1.392 . S
H570 C589 0.949 . S
H571 C590 0.950 . S
H572 C592 0.950 . S
H573 C593 0.950 . S
H574 C595 0.950 . S
H575 C598 0.950 . S
H576 C599 0.950 . S
H577 C601 0.951 . S
H578 C602 0.949 . S
H579 C604 0.949 . S
H580 C605 0.950 . S
H581 C607 0.950 . S
H582 C608 0.950 . S
H583 C610 0.950 . S
H584 C613 0.950 . S
H585 C614 0.950 . S
H586 C616 0.951 . S
H587 C617 0.949 . S
C588 C589 1.376 . S
C588 C593 1.386 . S
C588 C594 1.483 . S
C589 H570 0.949 . S
C589 C588 1.376 . S
C589 C590 1.397 . S
C590 H571 0.950 . S
C590 C589 1.397 . S
C590 C591 1.391 . S
C591 C590 1.391 . S
C591 C592 1.405 . S
C592 H572 0.950 . S
C592 C591 1.405 . S
C592 C593 1.367 . S
C593 H573 0.950 . S
C593 C588 1.386 . S
C593 C592 1.367 . S
C594 C588 1.483 . S
C594 C595 1.382 . S
C594 C596 1.403 . S
C595 H574 0.950 . S
C595 C594 1.382 . S
C595 C611 1.411 . S
C596 C594 1.403 . S
C596 C597 1.489 . S
C596 C610 1.411 . S
C597 C596 1.489 . S
C597 C598 1.383 . S
C597 C602 1.382 . S
C598 H575 0.950 . S
C598 C597 1.383 . S
C598 C599 1.395 . S
C599 H576 0.950 . S
C599 C598 1.395 . S
C599 C600 1.288 . S
C600 C599 1.288 . S
C600 C601 1.392 . S
C601 H577 0.951 . S
C601 C600 1.392 . S
C601 C602 1.392 . S
C602 H578 0.949 . S
C602 C597 1.382 . S
C602 C601 1.392 . S
C603 C604 1.376 . S
C603 C608 1.386 . S
C603 C609 1.483 . S
C604 H579 0.949 . S
C604 C603 1.376 . S
C604 C605 1.397 . S
C605 H580 0.950 . S
C605 C604 1.397 . S
C605 C606 1.391 . S
C606 C605 1.391 . S
C606 C607 1.405 . S
C607 H581 0.950 . S
C607 C606 1.405 . S
C607 C608 1.367 . S
C608 H582 0.950 . S
C608 C603 1.386 . S
C608 C607 1.367 . S
C609 C603 1.483 . S
C609 C610 1.382 . S
C609 C611 1.403 . S
C610 H583 0.950 . S
C610 C596 1.411 . S
C610 C609 1.382 . S
C611 C595 1.411 . S
C611 C609 1.403 . S
C611 C612 1.489 . S
C612 C611 1.489 . S
C612 C613 1.383 . S
C612 C617 1.382 . S
C613 H584 0.950 . S
C613 C612 1.383 . S
C613 C614 1.395 . S
C614 H585 0.950 . S
C614 C613 1.395 . S
C614 C615 1.288 . S
C615 C614 1.288 . S
C615 C616 1.392 . S
C616 H586 0.951 . S
C616 C615 1.392 . S
C616 C617 1.392 . S
C617 H587 0.949 . S
C617 C612 1.382 . S
C617 C616 1.392 . S
H618 C637 0.949 . S
H619 C638 0.950 . S
H620 C640 0.950 . S
H621 C641 0.950 . S
H622 C643 0.950 . S
H623 C646 0.950 . S
H624 C647 0.950 . S
H625 C649 0.951 . S
H626 C650 0.949 . S
H627 C652 0.949 . S
H628 C653 0.950 . S
H629 C655 0.950 . S
H630 C656 0.950 . S
H631 C658 0.950 . S
H632 C661 0.950 . S
H633 C662 0.950 . S
H634 C664 0.951 . S
H635 C665 0.949 . S
C636 C637 1.376 . S
C636 C641 1.386 . S
C636 C642 1.483 . S
C637 H618 0.949 . S
C637 C636 1.376 . S
C637 C638 1.397 . S
C638 H619 0.950 . S
C638 C637 1.397 . S
C638 C639 1.391 . S
C639 C638 1.391 . S
C639 C640 1.405 . S
C640 H620 0.950 . S
C640 C639 1.405 . S
C640 C641 1.367 . S
C641 H621 0.950 . S
C641 C636 1.386 . S
C641 C640 1.367 . S
C642 C636 1.483 . S
C642 C643 1.382 . S
C642 C644 1.403 . S
C643 H622 0.950 . S
C643 C642 1.382 . S
C643 C659 1.411 . S
C644 C642 1.403 . S
C644 C645 1.489 . S
C644 C658 1.411 . S
C645 C644 1.489 . S
C645 C646 1.383 . S
C645 C650 1.382 . S
C646 H623 0.950 . S
C646 C645 1.383 . S
C646 C647 1.395 . S
C647 H624 0.950 . S
C647 C646 1.395 . S
C647 C648 1.288 . S
C648 C647 1.288 . S
C648 C649 1.392 . S
C649 H625 0.951 . S
C649 C648 1.392 . S
C649 C650 1.392 . S
C650 H626 0.949 . S
C650 C645 1.382 . S
C650 C649 1.392 . S
C651 C652 1.376 . S
C651 C656 1.386 . S
C651 C657 1.483 . S
C652 H627 0.949 . S
C652 C651 1.376 . S
C652 C653 1.397 . S
C653 H628 0.950 . S
C653 C652 1.397 . S
C653 C654 1.391 . S
C654 C653 1.391 . S
C654 C655 1.405 . S
C655 H629 0.950 . S
C655 C654 1.405 . S
C655 C656 1.367 . S
C656 H630 0.950 . S
C656 C651 1.386 . S
C656 C655 1.367 . S
C657 C651 1.483 . S
C657 C658 1.382 . S
C657 C659 1.403 . S
C658 H631 0.950 . S
C658 C644 1.411 . S
C658 C657 1.382 . S
C659 C643 1.411 . S
C659 C657 1.403 . S
C659 C660 1.489 . S
C660 C659 1.489 . S
C660 C661 1.383 . S
C660 C665 1.382 . S
C661 H632 0.950 . S
C661 C660 1.383 . S
C661 C662 1.395 . S
C662 H633 0.950 . S
C662 C661 1.395 . S
C662 C663 1.288 . S
C663 C662 1.288 . S
C663 C664 1.392 . S
C664 H634 0.951 . S
C664 C663 1.392 . S
C664 C665 1.392 . S
C665 H635 0.949 . S
C665 C660 1.382 . S
C665 C664 1.392 . S
H666 C685 0.949 . S
H667 C686 0.950 . S
H668 C688 0.950 . S
H669 C689 0.950 . S
H670 C691 0.950 . S
H671 C694 0.950 . S
H672 C695 0.950 . S
H673 C697 0.951 . S
H674 C698 0.949 . S
H675 C700 0.949 . S
H676 C701 0.950 . S
H677 C703 0.950 . S
H678 C704 0.950 . S
H679 C706 0.950 . S
H680 C709 0.950 . S
H681 C710 0.950 . S
H682 C712 0.951 . S
H683 C713 0.949 . S
C684 C685 1.376 . S
C684 C689 1.386 1_655 S
C684 C690 1.483 . S
C685 H666 0.949 . S
C685 C684 1.376 . S
C685 C686 1.397 . S
C686 H667 0.950 . S
C686 C685 1.397 . S
C686 C687 1.391 . S
C687 C686 1.391 . S
C687 C688 1.405 1_655 S
C688 H668 0.950 . S
C688 C687 1.405 1_455 S
C688 C689 1.367 . S
C689 H669 0.950 . S
C689 C684 1.386 1_455 S
C689 C688 1.367 . S
C690 C684 1.483 . S
C690 C691 1.382 . S
C690 C692 1.403 1_655 S
C691 H670 0.950 . S
C691 C690 1.382 . S
C691 C707 1.411 . S
C692 C690 1.403 1_455 S
C692 C693 1.489 . S
C692 C706 1.411 . S
C693 C692 1.489 . S
C693 C694 1.383 1_455 S
C693 C698 1.382 . S
C694 H671 0.950 . S
C694 C693 1.383 1_655 S
C694 C695 1.395 . S
C695 H672 0.950 . S
C695 C694 1.395 . S
C695 C696 1.288 1_655 S
C696 C695 1.288 1_455 S
C696 C697 1.392 . S
C697 H673 0.951 . S
C697 C696 1.392 . S
C697 C698 1.392 . S
C698 H674 0.949 . S
C698 C693 1.382 . S
C698 C697 1.392 . S
C699 C700 1.376 . S
C699 C704 1.386 1_455 S
C699 C705 1.483 . S
C700 H675 0.949 . S
C700 C699 1.376 . S
C700 C701 1.397 . S
C701 H676 0.950 . S
C701 C700 1.397 . S
C701 C702 1.391 . S
C702 C701 1.391 . S
C702 C703 1.405 1_455 S
C703 H677 0.950 . S
C703 C702 1.405 1_655 S
C703 C704 1.367 . S
C704 H678 0.950 . S
C704 C699 1.386 1_655 S
C704 C703 1.367 . S
C705 C699 1.483 . S
C705 C706 1.382 . S
C705 C707 1.403 1_455 S
C706 H679 0.950 . S
C706 C692 1.411 . S
C706 C705 1.382 . S
C707 C691 1.411 . S
C707 C705 1.403 1_655 S
C707 C708 1.489 . S
C708 C707 1.489 . S
C708 C709 1.383 1_655 S
C708 C713 1.382 . S
C709 H680 0.950 . S
C709 C708 1.383 1_455 S
C709 C710 1.395 . S
C710 H681 0.950 . S
C710 C709 1.395 . S
C710 C711 1.288 1_455 S
C711 C710 1.288 1_655 S
C711 C712 1.392 . S
C712 H682 0.951 . S
C712 C711 1.392 . S
C712 C713 1.392 . S
C713 H683 0.949 . S
C713 C708 1.382 . S
C713 C712 1.392 . S
H714 C733 0.949 . S
H715 C734 0.950 . S
H716 C736 0.950 . S
H717 C737 0.950 . S
H718 C739 0.950 . S
H719 C742 0.950 . S
H720 C743 0.950 . S
H721 C745 0.951 . S
H722 C746 0.949 . S
H723 C748 0.949 . S
H724 C749 0.950 . S
H725 C751 0.950 . S
H726 C752 0.950 . S
H727 C754 0.950 . S
H728 C757 0.950 . S
H729 C758 0.950 . S
H730 C760 0.951 . S
H731 C761 0.949 . S
C732 C733 1.376 . S
C732 C737 1.386 . S
C732 C738 1.483 . S
C733 H714 0.949 . S
C733 C732 1.376 . S
C733 C734 1.397 . S
C734 H715 0.950 . S
C734 C733 1.397 . S
C734 C735 1.391 . S
C735 C734 1.391 . S
C735 C736 1.405 . S
C736 H716 0.950 . S
C736 C735 1.405 . S
C736 C737 1.367 . S
C737 H717 0.950 . S
C737 C732 1.386 . S
C737 C736 1.367 . S
C738 C732 1.483 . S
C738 C739 1.382 . S
C738 C740 1.403 . S
C739 H718 0.950 . S
C739 C738 1.382 . S
C739 C755 1.411 . S
C740 C738 1.403 . S
C740 C741 1.489 . S
C740 C754 1.411 . S
C741 C740 1.489 . S
C741 C742 1.383 . S
C741 C746 1.382 . S
C742 H719 0.950 . S
C742 C741 1.383 . S
C742 C743 1.395 . S
C743 H720 0.950 . S
C743 C742 1.395 . S
C743 C744 1.288 . S
C744 C743 1.288 . S
C744 C745 1.392 . S
C745 H721 0.951 . S
C745 C744 1.392 . S
C745 C746 1.392 . S
C746 H722 0.949 . S
C746 C741 1.382 . S
C746 C745 1.392 . S
C747 C748 1.376 . S
C747 C752 1.386 . S
C747 C753 1.483 . S
C748 H723 0.949 . S
C748 C747 1.376 . S
C748 C749 1.397 . S
C749 H724 0.950 . S
C749 C748 1.397 . S
C749 C750 1.391 . S
C750 C749 1.391 . S
C750 C751 1.405 . S
C751 H725 0.950 . S
C751 C750 1.405 . S
C751 C752 1.367 . S
C752 H726 0.950 . S
C752 C747 1.386 . S
C752 C751 1.367 . S
C753 C747 1.483 . S
C753 C754 1.382 . S
C753 C755 1.403 . S
C754 H727 0.950 . S
C754 C740 1.411 . S
C754 C753 1.382 . S
C755 C739 1.411 . S
C755 C753 1.403 . S
C755 C756 1.489 . S
C756 C755 1.489 . S
C756 C757 1.383 . S
C756 C761 1.382 . S
C757 H728 0.950 . S
C757 C756 1.383 . S
C757 C758 1.395 . S
C758 H729 0.950 . S
C758 C757 1.395 . S
C758 C759 1.288 . S
C759 C758 1.288 . S
C759 C760 1.392 . S
C760 H730 0.951 . S
C760 C759 1.392 . S
C760 C761 1.392 . S
C761 H731 0.949 . S
C761 C756 1.382 . S
C761 C760 1.392 . S
H762 C781 0.949 . S
H763 C782 0.950 . S
H764 C784 0.950 . S
H765 C785 0.950 . S
H766 C787 0.950 . S
H767 C790 0.950 . S
H768 C791 0.950 . S
H769 C793 0.951 . S
H770 C794 0.949 . S
H771 C796 0.949 . S
H772 C797 0.950 . S
H773 C799 0.950 . S
H774 C800 0.950 . S
H775 C802 0.950 . S
H776 C805 0.950 . S
H777 C806 0.950 . S
H778 C808 0.951 . S
H779 C809 0.949 . S
C780 C781 1.376 . S
C780 C785 1.386 1_545 S
C780 C786 1.483 . S
C781 H762 0.949 . S
C781 C780 1.376 . S
C781 C782 1.397 . S
C782 H763 0.950 . S
C782 C781 1.397 . S
C782 C783 1.391 . S
C783 C782 1.391 . S
C783 C784 1.405 1_545 S
C784 H764 0.950 . S
C784 C783 1.405 1_565 S
C784 C785 1.367 . S
C785 H765 0.950 . S
C785 C780 1.386 1_565 S
C785 C784 1.367 . S
C786 C780 1.483 . S
C786 C787 1.382 . S
C786 C788 1.403 1_545 S
C787 H766 0.950 . S
C787 C786 1.382 . S
C787 C803 1.411 . S
C788 C786 1.403 1_565 S
C788 C789 1.489 . S
C788 C802 1.411 . S
C789 C788 1.489 . S
C789 C790 1.383 1_565 S
C789 C794 1.382 . S
C790 H767 0.950 . S
C790 C789 1.383 1_545 S
C790 C791 1.395 . S
C791 H768 0.950 . S
C791 C790 1.395 . S
C791 C792 1.288 1_545 S
C792 C791 1.288 1_565 S
C792 C793 1.392 . S
C793 H769 0.951 . S
C793 C792 1.392 . S
C793 C794 1.392 . S
C794 H770 0.949 . S
C794 C789 1.382 . S
C794 C793 1.392 . S
C795 C796 1.376 . S
C795 C800 1.386 1_565 S
C795 C801 1.483 . S
C796 H771 0.949 . S
C796 C795 1.376 . S
C796 C797 1.397 . S
C797 H772 0.950 . S
C797 C796 1.397 . S
C797 C798 1.391 . S
C798 C797 1.391 . S
C798 C799 1.405 1_565 S
C799 H773 0.950 . S
C799 C798 1.405 1_545 S
C799 C800 1.367 . S
C800 H774 0.950 . S
C800 C795 1.386 1_545 S
C800 C799 1.367 . S
C801 C795 1.483 . S
C801 C802 1.382 . S
C801 C803 1.403 1_565 S
C802 H775 0.950 . S
C802 C788 1.411 . S
C802 C801 1.382 . S
C803 C787 1.411 . S
C803 C801 1.403 1_545 S
C803 C804 1.489 . S
C804 C803 1.489 . S
C804 C805 1.383 1_545 S
C804 C809 1.382 . S
C805 H776 0.950 . S
C805 C804 1.383 1_565 S
C805 C806 1.395 . S
C806 H777 0.950 . S
C806 C805 1.395 . S
C806 C807 1.288 1_565 S
C807 C806 1.288 1_545 S
C807 C808 1.392 . S
C808 H778 0.951 . S
C808 C807 1.392 . S
C808 C809 1.392 . S
C809 H779 0.949 . S
C809 C804 1.382 . S
C809 C808 1.392 . S
H810 C829 0.949 . S
H811 C830 0.950 . S
H812 C832 0.950 . S
H813 C833 0.950 . S
H814 C835 0.950 . S
H815 C838 0.950 . S
H816 C839 0.950 . S
H817 C841 0.951 . S
H818 C842 0.949 . S
H819 C844 0.949 . S
H820 C845 0.950 . S
H821 C847 0.950 . S
H822 C848 0.950 . S
H823 C850 0.950 . S
H824 C853 0.950 . S
H825 C854 0.950 . S
H826 C856 0.951 . S
H827 C857 0.949 . S
C828 C829 1.382 . S
C828 C833 1.383 1_545 S
C828 C834 1.480 . S
C829 H810 0.949 . S
C829 C828 1.382 . S
C829 C830 1.397 . S
C830 H811 0.950 . S
C830 C829 1.397 . S
C830 C831 1.391 1_545 S
C831 C830 1.391 1_565 S
C831 C832 1.405 . S
C832 H812 0.950 . S
C832 C831 1.405 . S
C832 C833 1.367 . S
C833 H813 0.950 . S
C833 C828 1.383 1_565 S
C833 C832 1.367 . S
C834 C828 1.480 . S
C834 C835 1.382 . S
C834 C836 1.403 1_545 S
C835 H814 0.950 . S
C835 C834 1.382 . S
C835 C851 1.411 . S
C836 C834 1.403 1_565 S
C836 C837 1.489 . S
C836 C850 1.411 . S
C837 C836 1.489 . S
C837 C838 1.383 1_565 S
C837 C842 1.382 . S
C838 H815 0.950 . S
C838 C837 1.383 1_545 S
C838 C839 1.395 . S
C839 H816 0.950 . S
C839 C838 1.395 . S
C839 C840 1.288 . S
C840 C839 1.288 . S
C840 C841 1.392 1_545 S
C841 H817 0.951 . S
C841 C840 1.392 1_565 S
C841 C842 1.392 . S
C842 H818 0.949 . S
C842 C837 1.382 . S
C842 C841 1.392 . S
C843 C844 1.375 . S
C843 C848 1.387 1_565 S
C843 C849 1.483 . S
C844 H819 0.949 . S
C844 C843 1.375 . S
C844 C845 1.397 . S
C845 H820 0.950 . S
C845 C844 1.397 . S
C845 C846 1.391 1_565 S
C846 C845 1.391 1_545 S
C846 C847 1.405 . S
C847 H821 0.950 . S
C847 C846 1.405 . S
C847 C848 1.367 . S
C848 H822 0.950 . S
C848 C843 1.387 1_545 S
C848 C847 1.367 . S
C849 C843 1.483 . S
C849 C850 1.382 . S
C849 C851 1.403 1_565 S
C850 H823 0.950 . S
C850 C836 1.411 . S
C850 C849 1.382 . S
C851 C835 1.411 . S
C851 C849 1.403 1_545 S
C851 C852 1.489 . S
C852 C851 1.489 . S
C852 C853 1.383 1_545 S
C852 C857 1.382 . S
C853 H824 0.950 . S
C853 C852 1.383 1_565 S
C853 C854 1.395 . S
C854 H825 0.950 . S
C854 C853 1.395 . S
C854 C855 1.288 . S
C855 C854 1.288 . S
C855 C856 1.392 1_565 S
C856 H826 0.951 . S
C856 C855 1.392 1_545 S
C856 C857 1.392 . S
C857 H827 0.949 . S
C857 C852 1.382 . S
C857 C856 1.392 . S
H858 C877 0.949 . S
H859 C878 0.950 . S
H860 C880 0.950 . S
H861 C881 0.950 . S
H862 C883 0.950 . S
H863 C886 0.950 . S
H864 C887 0.950 . S
H865 C889 0.951 . S
H866 C890 0.949 . S
H867 C892 0.949 . S
H868 C893 0.950 . S
H869 C895 0.950 . S
H870 C896 0.950 . S
H871 C898 0.950 . S
H872 C901 0.950 . S
H873 C902 0.950 . S
H874 C904 0.951 . S
H875 C905 0.949 . S
C876 C877 1.376 . S
C876 C881 1.386 1_455 S
C876 C882 1.483 . S
C877 H858 0.949 . S
C877 C876 1.376 . S
C877 C878 1.397 . S
C878 H859 0.950 . S
C878 C877 1.397 . S
C878 C879 1.391 . S
C879 C878 1.391 . S
C879 C880 1.405 1_455 S
C880 H860 0.950 . S
C880 C879 1.405 1_655 S
C880 C881 1.367 . S
C881 H861 0.950 . S
C881 C876 1.386 1_655 S
C881 C880 1.367 . S
C882 C876 1.483 . S
C882 C883 1.382 . S
C882 C884 1.403 1_455 S
C883 H862 0.950 . S
C883 C882 1.382 . S
C883 C899 1.411 . S
C884 C882 1.403 1_655 S
C884 C885 1.489 . S
C884 C898 1.411 . S
C885 C884 1.489 . S
C885 C886 1.383 1_655 S
C885 C890 1.382 . S
C886 H863 0.950 . S
C886 C885 1.383 1_455 S
C886 C887 1.395 . S
C887 H864 0.950 . S
C887 C886 1.395 . S
C887 C888 1.288 1_455 S
C888 C887 1.288 1_655 S
C888 C889 1.392 . S
C889 H865 0.951 . S
C889 C888 1.392 . S
C889 C890 1.392 . S
C890 H866 0.949 . S
C890 C885 1.382 . S
C890 C889 1.392 . S
C891 C892 1.376 . S
C891 C896 1.386 1_655 S
C891 C897 1.483 . S
C892 H867 0.949 . S
C892 C891 1.376 . S
C892 C893 1.397 . S
C893 H868 0.950 . S
C893 C892 1.397 . S
C893 C894 1.391 . S
C894 C893 1.391 . S
C894 C895 1.405 1_655 S
C895 H869 0.950 . S
C895 C894 1.405 1_455 S
C895 C896 1.367 . S
C896 H870 0.950 . S
C896 C891 1.386 1_455 S
C896 C895 1.367 . S
C897 C891 1.483 . S
C897 C898 1.382 . S
C897 C899 1.403 1_655 S
C898 H871 0.950 . S
C898 C884 1.411 . S
C898 C897 1.382 . S
C899 C883 1.411 . S
C899 C897 1.403 1_455 S
C899 C900 1.489 . S
C900 C899 1.489 . S
C900 C901 1.383 1_455 S
C900 C905 1.382 . S
C901 H872 0.950 . S
C901 C900 1.383 1_655 S
C901 C902 1.395 . S
C902 H873 0.950 . S
C902 C901 1.395 . S
C902 C903 1.288 1_655 S
C903 C902 1.288 1_455 S
C903 C904 1.392 . S
C904 H874 0.951 . S
C904 C903 1.392 . S
C904 C905 1.392 . S
C905 H875 0.949 . S
C905 C900 1.382 . S
C905 C904 1.392 . S
H906 C925 0.949 . S
H907 C926 0.950 . S
H908 C928 0.950 . S
H909 C929 0.950 . S
H910 C931 0.950 . S
H911 C934 0.950 . S
H912 C935 0.950 . S
H913 C937 0.951 . S
H914 C938 0.949 . S
H915 C940 0.949 . S
H916 C941 0.950 . S
H917 C943 0.950 . S
H918 C944 0.950 . S
H919 C946 0.950 . S
H920 C949 0.950 . S
H921 C950 0.950 . S
H922 C952 0.951 . S
H923 C953 0.949 . S
C924 C925 1.376 . S
C924 C929 1.386 . S
C924 C930 1.483 . S
C925 H906 0.949 . S
C925 C924 1.376 . S
C925 C926 1.397 . S
C926 H907 0.950 . S
C926 C925 1.397 . S
C926 C927 1.391 . S
C927 C926 1.391 . S
C927 C928 1.405 . S
C928 H908 0.950 . S
C928 C927 1.405 . S
C928 C929 1.367 . S
C929 H909 0.950 . S
C929 C924 1.386 . S
C929 C928 1.367 . S
C930 C924 1.483 . S
C930 C931 1.382 . S
C930 C932 1.403 . S
C931 H910 0.950 . S
C931 C930 1.382 . S
C931 C947 1.411 . S
C932 C930 1.403 . S
C932 C933 1.489 . S
C932 C946 1.411 . S
C933 C932 1.489 . S
C933 C934 1.383 . S
C933 C938 1.382 . S
C934 H911 0.950 . S
C934 C933 1.383 . S
C934 C935 1.395 . S
C935 H912 0.950 . S
C935 C934 1.395 . S
C935 C936 1.288 . S
C936 C935 1.288 . S
C936 C937 1.392 . S
C937 H913 0.951 . S
C937 C936 1.392 . S
C937 C938 1.392 . S
C938 H914 0.949 . S
C938 C933 1.382 . S
C938 C937 1.392 . S
C939 C940 1.376 . S
C939 C944 1.386 . S
C939 C945 1.483 . S
C940 H915 0.949 . S
C940 C939 1.376 . S
C940 C941 1.397 . S
C941 H916 0.950 . S
C941 C940 1.397 . S
C941 C942 1.391 . S
C942 C941 1.391 . S
C942 C943 1.405 . S
C943 H917 0.950 . S
C943 C942 1.405 . S
C943 C944 1.367 . S
C944 H918 0.950 . S
C944 C939 1.386 . S
C944 C943 1.367 . S
C945 C939 1.483 . S
C945 C946 1.382 . S
C945 C947 1.403 . S
C946 H919 0.950 . S
C946 C932 1.411 . S
C946 C945 1.382 . S
C947 C931 1.411 . S
C947 C945 1.403 . S
C947 C948 1.489 . S
C948 C947 1.489 . S
C948 C949 1.383 . S
C948 C953 1.382 . S
C949 H920 0.950 . S
C949 C948 1.383 . S
C949 C950 1.395 . S
C950 H921 0.950 . S
C950 C949 1.395 . S
C950 C951 1.288 . S
C951 C950 1.288 . S
C951 C952 1.392 . S
C952 H922 0.951 . S
C952 C951 1.392 . S
C952 C953 1.392 . S
C953 H923 0.949 . S
C953 C948 1.382 . S
C953 C952 1.392 . S
H954 C973 0.949 . S
H955 C974 0.950 . S
H956 C976 0.950 . S
H957 C977 0.950 . S
H958 C979 0.950 . S
H959 C982 0.950 . S
H960 C983 0.950 . S
H961 C985 0.951 . S
H962 C986 0.949 . S
H963 C988 0.949 . S
H964 C989 0.950 . S
H965 C991 0.950 . S
H966 C992 0.950 . S
H967 C994 0.950 . S
H968 C997 0.950 . S
H969 C998 0.950 . S
H970 C1000 0.951 . S
H971 C1001 0.949 . S
C972 C973 1.376 . S
C972 C977 1.386 . S
C972 C978 1.483 . S
C973 H954 0.949 . S
C973 C972 1.376 . S
C973 C974 1.397 . S
C974 H955 0.950 . S
C974 C973 1.397 . S
C974 C975 1.391 . S
C975 C974 1.391 . S
C975 C976 1.405 . S
C976 H956 0.950 . S
C976 C975 1.405 . S
C976 C977 1.367 . S
C977 H957 0.950 . S
C977 C972 1.386 . S
C977 C976 1.367 . S
C978 C972 1.483 . S
C978 C979 1.382 . S
C978 C980 1.403 . S
C979 H958 0.950 . S
C979 C978 1.382 . S
C979 C995 1.411 . S
C980 C978 1.403 . S
C980 C981 1.489 . S
C980 C994 1.411 . S
C981 C980 1.489 . S
C981 C982 1.383 . S
C981 C986 1.382 . S
C982 H959 0.950 . S
C982 C981 1.383 . S
C982 C983 1.395 . S
C983 H960 0.950 . S
C983 C982 1.395 . S
C983 C984 1.288 . S
C984 C983 1.288 . S
C984 C985 1.392 . S
C985 H961 0.951 . S
C985 C984 1.392 . S
C985 C986 1.392 . S
C986 H962 0.949 . S
C986 C981 1.382 . S
C986 C985 1.392 . S
C987 C988 1.376 . S
C987 C992 1.386 . S
C987 C993 1.483 . S
C988 H963 0.949 . S
C988 C987 1.376 . S
C988 C989 1.397 . S
C989 H964 0.950 . S
C989 C988 1.397 . S
C989 C990 1.391 . S
C990 C989 1.391 . S
C990 C991 1.405 . S
C991 H965 0.950 . S
C991 C990 1.405 . S
C991 C992 1.367 . S
C992 H966 0.950 . S
C992 C987 1.386 . S
C992 C991 1.367 . S
C993 C987 1.483 . S
C993 C994 1.382 . S
C993 C995 1.403 . S
C994 H967 0.950 . S
C994 C980 1.411 . S
C994 C993 1.382 . S
C995 C979 1.411 . S
C995 C993 1.403 . S
C995 C996 1.489 . S
C996 C995 1.489 . S
C996 C997 1.383 . S
C996 C1001 1.382 . S
C997 H968 0.950 . S
C997 C996 1.383 . S
C997 C998 1.395 . S
C998 H969 0.950 . S
C998 C997 1.395 . S
C998 C999 1.288 . S
C999 C998 1.288 . S
C999 C1000 1.392 . S
C1000 H970 0.951 . S
C1000 C999 1.392 . S
C1000 C1001 1.392 . S
C1001 H971 0.949 . S
C1001 C996 1.382 . S
C1001 C1000 1.392 . S
H1002 C1021 0.949 . S
H1003 C1022 0.950 . S
H1004 C1024 0.950 . S
H1005 C1025 0.950 . S
H1006 C1027 0.950 . S
H1007 C1030 0.950 . S
H1008 C1031 0.950 . S
H1009 C1033 0.951 . S
H1010 C1034 0.949 . S
H1011 C1036 0.949 . S
H1012 C1037 0.950 . S
H1013 C1039 0.950 . S
H1014 C1040 0.950 . S
H1015 C1042 0.950 . S
H1016 C1045 0.950 . S
H1017 C1046 0.950 . S
H1018 C1048 0.951 . S
H1019 C1049 0.949 . S
C1020 C1021 1.376 . S
C1020 C1025 1.386 . S
C1020 C1026 1.483 . S
C1021 H1002 0.949 . S
C1021 C1020 1.376 . S
C1021 C1022 1.397 . S
C1022 H1003 0.950 . S
C1022 C1021 1.397 . S
C1022 C1023 1.391 . S
C1023 C1022 1.391 . S
C1023 C1024 1.405 . S
C1024 H1004 0.950 . S
C1024 C1023 1.405 . S
C1024 C1025 1.367 . S
C1025 H1005 0.950 . S
C1025 C1020 1.386 . S
C1025 C1024 1.367 . S
C1026 C1020 1.483 . S
C1026 C1027 1.382 . S
C1026 C1028 1.403 . S
C1027 H1006 0.950 . S
C1027 C1026 1.382 . S
C1027 C1043 1.411 . S
C1028 C1026 1.403 . S
C1028 C1029 1.489 . S
C1028 C1042 1.411 . S
C1029 C1028 1.489 . S
C1029 C1030 1.383 . S
C1029 C1034 1.382 . S
C1030 H1007 0.950 . S
C1030 C1029 1.383 . S
C1030 C1031 1.395 . S
C1031 H1008 0.950 . S
C1031 C1030 1.395 . S
C1031 C1032 1.288 . S
C1032 C1031 1.288 . S
C1032 C1033 1.392 . S
C1033 H1009 0.951 . S
C1033 C1032 1.392 . S
C1033 C1034 1.392 . S
C1034 H1010 0.949 . S
C1034 C1029 1.382 . S
C1034 C1033 1.392 . S
C1035 C1036 1.376 . S
C1035 C1040 1.386 . S
C1035 C1041 1.483 . S
C1036 H1011 0.949 . S
C1036 C1035 1.376 . S
C1036 C1037 1.397 . S
C1037 H1012 0.950 . S
C1037 C1036 1.397 . S
C1037 C1038 1.391 . S
C1038 C1037 1.391 . S
C1038 C1039 1.405 . S
C1039 H1013 0.950 . S
C1039 C1038 1.405 . S
C1039 C1040 1.367 . S
C1040 H1014 0.950 . S
C1040 C1035 1.386 . S
C1040 C1039 1.367 . S
C1041 C1035 1.483 . S
C1041 C1042 1.382 . S
C1041 C1043 1.403 . S
C1042 H1015 0.950 . S
C1042 C1028 1.411 . S
C1042 C1041 1.382 . S
C1043 C1027 1.411 . S
C1043 C1041 1.403 . S
C1043 C1044 1.489 . S
C1044 C1043 1.489 . S
C1044 C1045 1.383 . S
C1044 C1049 1.382 . S
C1045 H1016 0.950 . S
C1045 C1044 1.383 . S
C1045 C1046 1.395 . S
C1046 H1017 0.950 . S
C1046 C1045 1.395 . S
C1046 C1047 1.288 . S
C1047 C1046 1.288 . S
C1047 C1048 1.392 . S
C1048 H1018 0.951 . S
C1048 C1047 1.392 . S
C1048 C1049 1.392 . S
C1049 H1019 0.949 . S
C1049 C1044 1.382 . S
C1049 C1048 1.392 . S
H1050 C1069 0.949 . S
H1051 C1070 0.950 . S
H1052 C1072 0.950 . S
H1053 C1073 0.950 . S
H1054 C1075 0.950 . S
H1055 C1078 0.950 . S
H1056 C1079 0.950 . S
H1057 C1081 0.951 . S
H1058 C1082 0.949 . S
H1059 C1084 0.949 . S
H1060 C1085 0.950 . S
H1061 C1087 0.950 . S
H1062 C1088 0.950 . S
H1063 C1090 0.950 . S
H1064 C1093 0.950 . S
H1065 C1094 0.950 . S
H1066 C1096 0.951 . S
H1067 C1097 0.949 . S
C1068 C1069 1.376 . S
C1068 C1073 1.386 . S
C1068 C1074 1.483 . S
C1069 H1050 0.949 . S
C1069 C1068 1.376 . S
C1069 C1070 1.397 . S
C1070 H1051 0.950 . S
C1070 C1069 1.397 . S
C1070 C1071 1.391 . S
C1071 C1070 1.391 . S
C1071 C1072 1.405 . S
C1072 H1052 0.950 . S
C1072 C1071 1.405 . S
C1072 C1073 1.367 . S
C1073 H1053 0.950 . S
C1073 C1068 1.386 . S
C1073 C1072 1.367 . S
C1074 C1068 1.483 . S
C1074 C1075 1.382 . S
C1074 C1076 1.403 . S
C1075 H1054 0.950 . S
C1075 C1074 1.382 . S
C1075 C1091 1.411 . S
C1076 C1074 1.403 . S
C1076 C1077 1.489 . S
C1076 C1090 1.411 . S
C1077 C1076 1.489 . S
C1077 C1078 1.383 . S
C1077 C1082 1.382 . S
C1078 H1055 0.950 . S
C1078 C1077 1.383 . S
C1078 C1079 1.395 . S
C1079 H1056 0.950 . S
C1079 C1078 1.395 . S
C1079 C1080 1.288 . S
C1080 C1079 1.288 . S
C1080 C1081 1.392 . S
C1081 H1057 0.951 . S
C1081 C1080 1.392 . S
C1081 C1082 1.392 . S
C1082 H1058 0.949 . S
C1082 C1077 1.382 . S
C1082 C1081 1.392 . S
C1083 C1084 1.376 . S
C1083 C1088 1.386 . S
C1083 C1089 1.483 . S
C1084 H1059 0.949 . S
C1084 C1083 1.376 . S
C1084 C1085 1.397 . S
C1085 H1060 0.950 . S
C1085 C1084 1.397 . S
C1085 C1086 1.391 . S
C1086 C1085 1.391 . S
C1086 C1087 1.405 . S
C1087 H1061 0.950 . S
C1087 C1086 1.405 . S
C1087 C1088 1.367 . S
C1088 H1062 0.950 . S
C1088 C1083 1.386 . S
C1088 C1087 1.367 . S
C1089 C1083 1.483 . S
C1089 C1090 1.382 . S
C1089 C1091 1.403 . S
C1090 H1063 0.950 . S
C1090 C1076 1.411 . S
C1090 C1089 1.382 . S
C1091 C1075 1.411 . S
C1091 C1089 1.403 . S
C1091 C1092 1.489 . S
C1092 C1091 1.489 . S
C1092 C1093 1.383 . S
C1092 C1097 1.382 . S
C1093 H1064 0.950 . S
C1093 C1092 1.383 . S
C1093 C1094 1.395 . S
C1094 H1065 0.950 . S
C1094 C1093 1.395 . S
C1094 C1095 1.288 . S
C1095 C1094 1.288 . S
C1095 C1096 1.392 . S
C1096 H1066 0.951 . S
C1096 C1095 1.392 . S
C1096 C1097 1.392 . S
C1097 H1067 0.949 . S
C1097 C1092 1.382 . S
C1097 C1096 1.392 . S
C10 C711 1.732 1_455 S
C23 C759 1.826 . S
C807 C29 1.753 . S
C30 C831 1.737 1_545 S
C5 C903 1.754 1_655 S
C18 C951 1.843 . S
C49 C879 1.755 . S
C927 C62 1.841 . S
C855 C70 1.714 1_565 S
C75 C783 1.750 . S
C687 C44 1.792 1_655 S
C57 C735 1.856 . S
C88 C999 1.868 . S
C101 C1047 1.875 . S
C1071 C107 1.856 . S
C108 C255 1.823 . S
C83 C327 1.871 . S
C96 C375 1.875 . S
C127 C303 1.854 . S
C140 C351 1.871 . S
C279 C146 1.774 . S
C1095 C147 1.776 . S
C975 C122 1.893 . S
C1023 C135 1.904 . S
C160 C423 1.845 . S
C173 C471 1.856 . S
C185 C495 1.847 . S
C186 C543 1.846 . S
C615 C159 1.882 . S
C663 C172 1.891 . S
C591 C205 1.880 . S
C639 C218 1.888 . S
C224 C567 1.782 . S
C519 C225 1.752 . S
C200 C399 1.884 . S
C447 C213 1.887 . S
C264 C4 1.616 . S
C17 C318 1.537 . S
C366 C31 1.560 . S
C414 C36 1.563 . S
C462 C3 1.565 . S
C504 C16 1.601 . S
C43 C510 1.595 . S
C56 C408 1.534 . S
C68 C456 1.542 . S
C69 C312 1.557 . S
C360 C42 1.557 . S
C55 C270 1.570 . S
C552 C82 1.622 . S
C95 C606 1.570 . S
C109 C654 1.590 . S
C702 C114 1.516 . S
C81 C750 1.566 . S
C94 C798 1.516 . S
C121 C792 1.525 . S
C134 C696 1.518 . S
C744 C148 1.551 . S
C153 C600 1.558 . S
C120 C648 1.591 . S
C558 C133 1.601 . S
C840 C166 1.539 . S
C179 C894 1.502 . S
C187 C942 1.563 . S
C990 C192 1.568 . S
C1038 C161 1.591 . S
C174 C1080 1.630 . S
C199 C1086 1.593 . S
C212 C984 1.568 . S
C1032 C226 1.578 . S
C888 C231 1.517 . S
C936 C198 1.568 . S
C211 C846 1.527 . S
