# Generated by pormake.
# Topology rtl, (3,6)-cn, num edge types: 1
# Building blocks:
#     Node 0, Type 0, BuildingBlock: QEWDON_clean_linker_0, # of connection points: 3
#     Node 1, Type 0, BuildingBlock: QEWDON_clean_linker_0, # of connection points: 3
#     Node 2, Type 0, BuildingBlock: QEWDON_clean_linker_0, # of connection points: 3
#     Node 3, Type 0, BuildingBlock: QEWDON_clean_linker_0, # of connection points: 3
#     Node 4, Type 1, BuildingBlock: KUMBUR_clean_sbu_1, # of connection points: 6
#     Node 5, Type 1, BuildingBlock: KUMBUR_clean_sbu_1, # of connection points: 6
#     Edge 6, Type (0, 1), BuildingBlock: UVAHIK_clean_linker_0, # of connection points: 2
#     Edge 7, Type (0, 1), BuildingBlock: UVAHIK_clean_linker_0, # of connection points: 2
#     Edge 8, Type (0, 1), BuildingBlock: UVAHIK_clean_linker_0, # of connection points: 2
#     Edge 9, Type (0, 1), BuildingBlock: UVAHIK_clean_linker_0, # of connection points: 2
#     Edge 10, Type (0, 1), BuildingBlock: UVAHIK_clean_linker_0, # of connection points: 2
#     Edge 11, Type (0, 1), BuildingBlock: UVAHIK_clean_linker_0, # of connection points: 2
#     Edge 12, Type (0, 1), BuildingBlock: UVAHIK_clean_linker_0, # of connection points: 2
#     Edge 13, Type (0, 1), BuildingBlock: UVAHIK_clean_linker_0, # of connection points: 2
#     Edge 14, Type (0, 1), BuildingBlock: UVAHIK_clean_linker_0, # of connection points: 2
#     Edge 15, Type (0, 1), BuildingBlock: UVAHIK_clean_linker_0, # of connection points: 2
#     Edge 16, Type (0, 1), BuildingBlock: UVAHIK_clean_linker_0, # of connection points: 2
#     Edge 17, Type (0, 1), BuildingBlock: UVAHIK_clean_linker_0, # of connection points: 2
# Relax obj value: 0.084
# Max RMSD: 0.264
# Mean RMSD: 0.205
data_MOF--net-rtl--node1-KUMBUR_clean_sbu_1--node2-QEWDON_clean_linker_0--edge1-UVAHIK_clean_linker_0
_symmetry_space_group_name_H-M    P1
_symmetry_Int_Tables_number       1
_symmetry_cell_setting            triclinic
loop_
_symmetry_equiv_pos_as_xyz
'x, y, z'
_cell_length_a     47.943102
_cell_length_b     47.861831
_cell_length_c     33.453681
_cell_angle_alpha  81.223422
_cell_angle_beta   100.4611
_cell_angle_gamma 91.033382
loop_
_atom_site_label
_atom_site_type_symbol
_atom_site_fract_x
_atom_site_fract_y
_atom_site_fract_z
_atom_type_partial_charge
H0 H 0.24127 0.83793 0.08773 0.0
C1 C 0.22962 0.83988 0.05645 0.0
C2 C 0.202 0.85132 0.04704 0.0
C3 C 0.24305 0.83249 0.02538 0.0
H4 H 0.1665 0.86386 0.99843 0.0
C5 C 0.18765 0.85467 0.00607 0.0
C6 C 0.20077 0.84782 0.97447 0.0
C7 C 0.22849 0.83643 0.98443 0.0
C8 C 0.27356 0.82451 0.03532 0.0
H9 H 0.23914 0.83177 0.96023 0.0
C10 C 0.28347 0.79846 0.02805 0.0
C11 C 0.3125 0.79101 0.04028 0.0
C12 C 0.29297 0.84331 0.05339 0.0
H13 H 0.28586 0.8635 0.05893 0.0
C14 C 0.3217 0.83636 0.06433 0.0
H15 H 0.26858 0.78369 0.01458 0.0
C16 C 0.33141 0.81042 0.05804 0.0
H17 H 0.35386 0.80549 0.06709 0.0
H18 H 0.33649 0.85107 0.07807 0.0
H19 H 0.74662 0.70451 0.58363 0.0
C20 C 0.73347 0.69833 0.60659 0.0
C21 C 0.70961 0.68131 0.59745 0.0
C22 C 0.74177 0.70505 0.64662 0.0
H23 H 0.67563 0.65821 0.62102 0.0
C24 C 0.69371 0.67171 0.62806 0.0
C25 C 0.70131 0.67853 0.66785 0.0
C26 C 0.72506 0.69563 0.67669 0.0
C27 C 0.77013 0.71739 0.65954 0.0
H28 H 0.7316 0.70017 0.70778 0.0
C29 C 0.77952 0.7428 0.63858 0.0
C30 C 0.80624 0.75404 0.65356 0.0
C31 C 0.78821 0.70302 0.69416 0.0
H32 H 0.78185 0.68324 0.71031 0.0
C33 C 0.81474 0.7137 0.70822 0.0
H34 H 0.76583 0.75417 0.61193 0.0
C35 C 0.82365 0.73902 0.6883 0.0
H36 H 0.84438 0.74689 0.70006 0.0
H37 H 0.82843 0.70235 0.73484 0.0
H38 H 0.80229 0.1917 0.09113 0.0
C39 C 0.81336 0.18745 0.06715 0.0
C40 C 0.83852 0.17123 0.0776 0.0
C41 C 0.8014 0.1962 0.02556 0.0
H42 H 0.8712 0.15156 0.05482 0.0
C43 C 0.85198 0.16435 0.04647 0.0
C44 C 0.84062 0.17326 1.00485 0.0
C45 C 0.81545 0.18941 0.99469 0.0
C46 C 0.77228 0.20845 0.01373 0.0
H47 H 0.80596 0.19552 0.96261 0.0
C48 C 0.76473 0.23371 0.02641 0.0
C49 C 0.7371 0.24513 0.01246 0.0
C50 C 0.75174 0.19452 0.98843 0.0
H51 H 0.75692 0.17496 0.97871 0.0
C52 C 0.72434 0.20551 0.97548 0.0
H53 H 0.78039 0.24482 0.04562 0.0
C54 C 0.7171 0.23073 0.98714 0.0
H55 H 0.69579 0.23916 0.97619 0.0
H56 H 0.70873 0.19458 0.95599 0.0
H57 H 0.33541 0.30307 0.49755 0.0
C58 C 0.34312 0.3147 0.47136 0.0
C59 C 0.35383 0.34219 0.47322 0.0
C60 C 0.34355 0.30165 0.43657 0.0
H61 H 0.37326 0.37768 0.44087 0.0
C62 C 0.36425 0.35685 0.43924 0.0
C63 C 0.3651 0.34406 0.40436 0.0
C64 C 0.35464 0.31652 0.4033 0.0
C65 C 0.33548 0.27148 0.43631 0.0
H66 H 0.35538 0.30648 0.37656 0.0
C67 C 0.30914 0.26098 0.44529 0.0
C68 C 0.30184 0.23246 0.44253 0.0
C69 C 0.35462 0.25294 0.42623 0.0
H70 H 0.3751 0.2603 0.41985 0.0
C71 C 0.34777 0.22472 0.42458 0.0
H72 H 0.29408 0.27508 0.45277 0.0
C73 C 0.32161 0.21456 0.43245 0.0
H74 H 0.31684 0.19251 0.43079 0.0
H75 H 0.36276 0.21066 0.41693 0.0
Tb76 Tb 0.04581 0.99093 0.50217 0.0
C77 C 0.96566 0.08926 0.49155 0.0
N78 N 0.99322 0.08692 0.5105 0.0
C79 C 1.00225 0.13353 0.47792 0.0
C80 C 0.95552 0.11341 0.46334 0.0
C81 C 0.01134 0.10899 0.50542 0.0
C82 C 0.97431 0.13562 0.45635 0.0
C83 C 0.91873 0.06911 0.48271 0.0
C84 C 0.94766 0.0674 0.50108 0.0
C85 C 0.9087 0.09246 0.45295 0.0
C86 C 0.92705 0.11462 0.44336 0.0
Tb87 Tb 1.00627 0.04608 0.55423 0.0
N88 N 0.95818 0.04538 0.53035 0.0
C89 C 0.90059 0.0479 0.49599 0.0
C90 C 0.93994 0.02634 0.54628 0.0
C91 C 0.91115 0.02677 0.52858 0.0
H92 H 0.03286 0.10751 0.52223 0.0
H93 H 0.89701 0.01112 0.54064 0.0
H94 H 1.00408 0.93382 0.50078 0.0
H95 H 0.15776 0.99713 0.56031 0.0
H96 H 0.94725 0.01109 0.57322 0.0
H97 H 0.87821 0.04839 0.48268 0.0
H98 H 0.11169 0.01328 0.517 0.0
H99 H 0.01679 0.15079 0.47332 0.0
H100 H 0.88661 0.09397 0.4381 0.0
H101 H 0.91891 0.13278 0.42103 0.0
H102 H 1.00269 0.88706 0.54282 0.0
H103 H 0.96737 0.15456 0.43489 0.0
H104 H 0.16099 0.95156 0.60739 0.0
N105 N 0.04321 0.94547 0.53527 0.0
C106 C 0.06686 0.93553 0.56232 0.0
C107 C 0.02067 0.9007 0.54928 0.0
C108 C 0.06776 0.90834 0.58573 0.0
C109 C 0.02115 0.92763 0.52625 0.0
C110 C 0.04383 0.89125 0.57988 0.0
N111 N 0.08918 0.9777 0.54055 0.0
C112 C 0.11297 0.99347 0.53763 0.0
C113 C 0.11662 0.94179 0.58945 0.0
C114 C 0.09092 0.9519 0.56422 0.0
C115 C 0.14082 0.95854 0.58843 0.0
C116 C 0.13905 0.98431 0.56196 0.0
H117 H 0.0436 0.87023 0.59728 0.0
H118 H 0.09385 0.87801 0.63145 0.0
H119 H 0.1367 0.90737 0.63469 0.0
O120 O 0.06258 1.00428 0.44854 0.0
O121 O 0.06271 1.00238 0.56313 0.0
O122 O 0.02437 0.00738 0.59312 0.0
O123 O 0.05364 0.96062 0.4659 0.0
O124 O 0.0608 0.03489 0.49435 0.0
O125 O 0.05069 0.05645 0.54849 0.0
O126 O 0.983 0.06202 0.59374 0.0
O127 O 1.00938 0.05315 0.48874 0.0
O128 O 1.00528 0.00957 0.4684 0.0
O129 O 0.02785 0.06827 0.59998 0.0
O130 O 0.99388 1.00122 0.56367 0.0
O131 O 1.0006 0.98308 0.50564 0.0
C132 C 0.05 0.99754 0.59497 0.0
C133 C 0.04988 0.97696 0.39519 0.0
C134 C 0.05541 0.96352 0.32939 0.0
C135 C 0.02754 0.97316 0.31275 0.0
C136 C 0.02213 0.98631 0.37806 0.0
C137 C 0.01106 0.98441 0.337 0.0
C138 C 0.06639 0.96547 0.37089 0.0
C139 C 0.06537 0.0544 0.51897 0.0
C140 C 0.06203 0.97916 0.4382 0.0
C141 C 0.09286 0.89869 0.61277 0.0
C142 C 0.11729 0.91535 0.6145 0.0
C143 C 0.99911 0.0367 0.46178 0.0
C144 C 1.00839 0.06186 0.66092 0.0
C145 C 0.99279 0.06536 0.72581 0.0
C146 C 0.01301 0.04447 0.74587 0.0
C147 C 0.02818 0.04089 0.68168 0.0
C148 C 0.99074 0.07402 0.68311 0.0
C149 C 0.03047 0.03234 0.7239 0.0
C150 C 0.98766 0.9831 0.53732 0.0
C151 C 1.00546 0.07077 0.61611 0.0
H152 H 0.01834 0.97169 0.2811 0.0
H153 H 1.00908 0.99507 0.39636 0.0
H154 H 0.98962 0.99167 0.32393 0.0
H155 H 0.08793 0.95849 0.38415 0.0
H156 H 0.01558 0.03765 0.77873 0.0
H157 H 0.04192 0.03111 0.66533 0.0
H158 H 0.97512 0.08982 0.66691 0.0
H159 H 0.04588 0.01626 0.7397 0.0
Tb160 Tb 0.49712 0.49769 0.98868 0.0
C161 C 0.60965 0.55204 0.04026 0.0
N162 N 0.59846 0.52923 0.06103 0.0
C163 C 0.64261 0.50409 0.06969 0.0
C164 C 0.63724 0.55125 0.03136 0.0
C165 C 0.61537 0.50626 0.07849 0.0
C166 C 0.65337 0.52645 0.04517 0.0
C167 C 0.60583 0.602 0.01287 0.0
C168 C 0.59428 0.57702 0.03108 0.0
C169 C 0.63261 0.60098 1.00166 0.0
C170 C 0.64826 0.5756 0.01077 0.0
Tb171 Tb 0.55265 0.53473 0.07038 0.0
N172 N 0.56821 0.57699 0.04142 0.0
C173 C 0.59029 0.62724 0.00718 0.0
C174 C 0.5536 0.60173 0.03815 0.0
C175 C 0.56425 0.62717 0.02048 0.0
H176 H 0.60812 0.48961 0.09968 0.0
H177 H 0.55236 0.64666 0.01704 0.0
H178 H 0.43583 0.52413 0.99799 0.0
H179 H 0.53326 0.38889 0.00763 0.0
H180 H 0.53353 0.60167 0.04853 0.0
H181 H 0.59843 0.64693 0.99333 0.0
H182 H 0.53218 0.43947 0.97925 0.0
H183 H 0.6555 0.48541 0.0825 0.0
H184 H 0.64169 0.61982 0.98692 0.0
H185 H 0.66926 0.57531 1.00316 0.0
H186 H 0.39387 0.5075 0.028 0.0
H187 H 0.67465 0.52492 0.03895 0.0
H188 H 0.49752 0.36938 0.04892 0.0
N189 N 0.45698 0.48427 0.01406 0.0
C190 C 0.45549 0.45661 0.03021 0.0
C191 C 0.41112 0.493 0.029 0.0
C192 C 0.43225 0.44625 0.04824 0.0
C193 C 0.43481 0.50233 0.01186 0.0
C194 C 0.41 0.46492 0.04777 0.0
N195 N 0.49855 0.44955 0.00868 0.0
C196 C 0.51743 0.43167 0.99909 0.0
C197 C 0.47639 0.40973 0.04366 0.0
C198 C 0.47734 0.43876 0.02818 0.0
C199 C 0.49745 0.39182 0.03751 0.0
C200 C 0.5177 0.40277 0.01433 0.0
H201 H 0.39173 0.4578 0.06129 0.0
H202 H 0.41442 0.40932 0.08017 0.0
H203 H 0.45303 0.37724 0.07596 0.0
O204 O 0.48105 0.47577 0.93929 0.0
O205 O 0.48977 0.50108 0.05088 0.0
O206 O 0.53302 0.49512 0.09319 0.0
O207 O 0.47664 0.52075 0.93278 0.0
O208 O 0.54214 0.48478 1.00044 0.0
O209 O 0.55912 0.48939 0.06833 0.0
O210 O 0.53885 0.55231 0.11741 0.0
O211 O 0.54206 0.55295 1.00469 0.0
O212 O 0.53625 0.51498 0.9702 0.0
O213 O 0.58256 0.54131 0.12257 0.0
O214 O 0.50902 0.55179 0.0565 0.0
O215 O 0.48677 0.54198 0.99181 0.0
C216 C 0.50568 0.49015 0.0857 0.0
C217 C 0.44124 0.49641 0.89227 0.0
C218 C 0.40909 0.48031 0.83476 0.0
C219 C 0.38664 0.49459 0.84507 0.0
C220 C 0.4185 0.51073 0.90159 0.0
C221 C 0.39135 0.50957 0.87832 0.0
C222 C 0.43637 0.48106 0.85895 0.0
C223 C 0.55959 0.47722 0.03563 0.0
C224 C 0.47039 0.49838 0.91537 0.0
C225 C 0.4319 0.41765 0.06565 0.0
C226 C 0.45394 0.39941 0.06338 0.0
C227 C 0.54583 0.54053 0.9737 0.0
C228 C 0.56515 0.5396 0.18431 0.0
C229 C 0.5794 0.54563 0.25645 0.0
C230 C 0.56707 0.5194 0.26795 0.0
C231 C 0.55309 0.51348 0.19642 0.0
C232 C 0.57837 0.55552 0.21432 0.0
C233 C 0.55407 0.50348 0.2381 0.0
C234 C 0.48924 0.55664 0.02287 0.0
C235 C 0.56379 0.55089 0.14061 0.0
H236 H 0.36537 0.49413 0.82741 0.0
H237 H 0.42172 0.52318 0.92638 0.0
H238 H 0.37393 0.52062 0.88578 0.0
H239 H 0.45398 0.47045 0.85111 0.0
H240 H 0.56777 0.51099 0.30007 0.0
H241 H 0.54287 0.50093 0.17374 0.0
H242 H 0.58739 0.57585 0.20477 0.0
H243 H 0.54473 0.4833 0.24732 0.0
C244 C 0.25887 0.20425 0.42075 0.0
C245 C 0.27371 0.22066 0.44896 0.0
C246 C 0.23499 0.18898 0.42921 0.0
C247 C 0.17966 0.17948 0.49415 0.0
H248 H 0.1805 0.10256 0.47105 0.0
C249 C 0.09739 0.0942 0.54035 0.0
C250 C 0.08815 0.0753 0.51237 0.0
C251 C 0.11937 0.11328 0.53409 0.0
C252 C 0.17962 0.12405 0.47724 0.0
H253 H 0.274 0.23528 0.50716 0.0
H254 H 0.23187 0.20847 0.5221 0.0
H255 H 0.21882 0.13417 0.45682 0.0
H256 H 0.09446 0.06247 0.45511 0.0
H257 H 0.13206 0.09568 0.44402 0.0
H258 H 0.14014 0.16921 0.51431 0.0
C259 C 0.2389 0.20746 0.49336 0.0
C260 C 0.2017 0.14223 0.4691 0.0
C261 C 0.26297 0.22287 0.4848 0.0
C262 C 0.10112 0.07637 0.47768 0.0
C263 C 0.12291 0.09542 0.47138 0.0
C264 C 0.15734 0.16122 0.50216 0.0
C265 C 0.22519 0.18961 0.4662 0.0
C266 C 0.20189 0.17031 0.47686 0.0
C267 C 0.13264 0.11395 0.49968 0.0
C268 C 0.15684 0.13334 0.49326 0.0
H269 H 0.26631 0.20251 0.39251 0.0
H270 H 0.22454 0.1761 0.40706 0.0
H271 H 0.17912 0.20098 0.50046 0.0
H272 H 0.08792 0.09402 0.56742 0.0
H273 H 0.12637 0.12707 0.5567 0.0
C274 C 0.34194 0.74764 0.06969 0.0
C275 C 0.32362 0.76293 0.03626 0.0
C276 C 0.35529 0.72286 0.06548 0.0
C277 C 0.37939 0.68694 0.9879 0.0
H278 H 0.39498 0.62546 0.0791 0.0
C279 C 0.44744 0.58735 0.98529 0.0
C280 C 0.46768 0.57901 0.02112 0.0
C281 C 0.42691 0.60808 0.98441 0.0
C282 C 0.39092 0.64249 0.05339 0.0
H283 H 0.30413 0.76361 0.97245 0.0
H284 H 0.32747 0.71988 0.96497 0.0
H285 H 0.36305 0.66374 0.08233 0.0
H286 H 0.48204 0.5862 0.08411 0.0
H287 H 0.44652 0.62208 0.08245 0.0
H288 H 0.40771 0.66571 0.95931 0.0
C289 C 0.33166 0.72735 0.99443 0.0
C290 C 0.37259 0.66446 0.05522 0.0
C291 C 0.31808 0.75222 0.99877 0.0
C292 C 0.46687 0.59197 0.05592 0.0
C293 C 0.4463 0.61245 0.05512 0.0
C294 C 0.39771 0.66483 0.98601 0.0
C295 C 0.35074 0.71257 0.02766 0.0
C296 C 0.36713 0.68737 0.023 0.0
C297 C 0.42598 0.62073 0.01946 0.0
C298 C 0.40425 0.64271 0.01922 0.0
H299 H 0.34647 0.75523 0.09908 0.0
H300 H 0.37004 0.71233 0.09163 0.0
H301 H 0.37588 0.70432 0.96266 0.0
H302 H 0.44737 0.57784 0.95789 0.0
H303 H 0.4115 0.6139 0.9565 0.0
C304 C 0.82004 0.78643 0.59332 0.0
C305 C 0.81674 0.78152 0.63473 0.0
C306 C 0.83562 0.80978 0.57869 0.0
C307 C 0.89418 0.8541 0.61906 0.0
H308 H 0.87547 0.90464 0.51568 0.0
C309 C 0.96111 0.95269 0.58533 0.0
C310 C 0.96626 0.96099 0.54522 0.0
C311 C 0.94156 0.93152 0.5935 0.0
C312 C 0.88122 0.89048 0.54444 0.0
H313 H 0.82504 0.79838 0.6922 0.0
H314 H 0.8518 0.8389 0.66684 0.0
H315 H 0.84262 0.8669 0.53372 0.0
H316 H 0.95422 0.95397 0.48195 0.0
H317 H 0.92065 0.91624 0.49636 0.0
H318 H 0.93283 0.87686 0.62981 0.0
C319 C 0.84302 0.82455 0.6458 0.0
C320 C 0.86231 0.86891 0.55478 0.0
C321 C 0.82752 0.80143 0.66028 0.0
C322 C 0.95097 0.94783 0.51329 0.0
C323 C 0.9315 0.92639 0.52152 0.0
C324 C 0.91309 0.87535 0.60864 0.0
C325 C 0.84819 0.82849 0.60531 0.0
C326 C 0.86839 0.85077 0.59258 0.0
C327 C 0.9267 0.91774 0.56188 0.0
C328 C 0.90676 0.89421 0.57152 0.0
H329 H 0.81209 0.77134 0.57303 0.0
H330 H 0.83917 0.81228 0.54729 0.0
H331 H 0.89988 0.84006 0.64796 0.0
H332 H 0.97241 0.96243 0.61066 0.0
H333 H 0.93807 0.92604 0.62481 0.0
C334 C 0.72107 0.27489 0.05982 0.0
C335 C 0.7285 0.27267 0.0217 0.0
C336 C 0.70636 0.29889 0.06482 0.0
C337 C 0.65699 0.35299 1.00115 0.0
H338 H 0.66633 0.38987 0.09808 0.0
C339 C 0.59204 0.45244 1.00167 0.0
C340 C 0.58137 0.45524 0.03727 0.0
C341 C 0.61187 0.4313 1.00217 0.0
C342 C 0.66325 0.3796 0.07095 0.0
H343 H 0.72788 0.29405 0.95976 0.0
H344 H 0.703 0.33611 0.96859 0.0
H345 H 0.69883 0.35153 0.09536 0.0
H346 H 0.58337 0.43831 0.10155 0.0
H347 H 0.61778 0.40084 0.10238 0.0
H348 H 0.62127 0.38033 0.97687 0.0
C349 C 0.70798 0.31931 0.99449 0.0
C350 C 0.68194 0.35767 0.06937 0.0
C351 C 0.72253 0.29541 0.98952 0.0
C352 C 0.59134 0.43668 0.07368 0.0
C353 C 0.61114 0.41531 0.07415 0.0
C354 C 0.63832 0.37468 1.00279 0.0
C355 C 0.69873 0.32093 0.03167 0.0
C356 C 0.67919 0.34429 0.03422 0.0
C357 C 0.62142 0.41213 0.0382 0.0
C358 C 0.64128 0.38852 0.03749 0.0
H359 H 0.72506 0.25738 0.08484 0.0
H360 H 0.69949 0.29939 0.09381 0.0
H361 H 0.65369 0.34268 0.97403 0.0
H362 H 0.58506 0.46667 0.97328 0.0
H363 H 0.61974 0.43003 0.97413 0.0
C364 C 0.19129 0.84677 0.119 0.0
C365 C 0.18894 0.86202 0.07908 0.0
C366 C 0.17893 0.85718 0.14877 0.0
C367 C 0.15115 0.9236 0.17277 0.0
H368 H 0.11056 0.87324 0.24395 0.0
C369 C 0.07292 0.96482 0.26276 0.0
C370 C 0.07293 0.9517 0.30333 0.0
C371 C 0.08896 0.95359 0.23791 0.0
C372 C 0.12212 0.88753 0.22467 0.0
H373 H 0.17238 0.90062 0.0397 0.0
H374 H 0.15036 0.91828 0.09089 0.0
H375 H 0.13521 0.85401 0.1962 0.0
H376 H 0.0898 0.91636 0.34952 0.0
H377 H 0.11796 0.89678 0.30608 0.0
H378 H 0.13769 0.95716 0.20066 0.0
C379 C 0.16191 0.89839 0.09948 0.0
C380 C 0.13629 0.8765 0.19731 0.0
C381 C 0.17421 0.88802 0.06985 0.0
C382 C 0.0895 0.9271 0.31851 0.0
C383 C 0.10542 0.91574 0.2935 0.0
C384 C 0.13693 0.93461 0.19995 0.0
C385 C 0.16411 0.88318 0.13937 0.0
C386 C 0.15065 0.89446 0.17057 0.0
C387 C 0.10534 0.92887 0.25288 0.0
C388 C 0.12191 0.91679 0.22585 0.0
H389 H 0.20243 0.82664 0.1271 0.0
H390 H 0.18125 0.84501 0.17927 0.0
H391 H 0.16251 0.93801 0.15334 0.0
H392 H 0.06062 0.98394 0.25024 0.0
H393 H 0.08816 0.96408 0.20665 0.0
C394 C 0.6806 0.63621 0.70545 0.0
C395 C 0.68595 0.66538 0.70078 0.0
C396 C 0.66569 0.62353 0.73554 0.0
C397 C 0.64079 0.63475 0.83149 0.0
H398 H 0.59096 0.5728 0.80532 0.0
C399 C 0.56096 0.58509 0.93358 0.0
C400 C 0.56102 0.55543 0.94198 0.0
C401 C 0.57633 0.59914 0.90485 0.0
C402 C 0.60494 0.58993 0.81321 0.0
H403 H 0.68017 0.70409 0.72446 0.0
H404 H 0.6533 0.68214 0.77648 0.0
H405 H 0.61704 0.59654 0.75415 0.0
H406 H 0.57644 0.51715 0.92578 0.0
H407 H 0.60263 0.54162 0.87472 0.0
H408 H 0.62789 0.62831 0.89042 0.0
C409 C 0.6611 0.66889 0.75733 0.0
C410 C 0.62005 0.60354 0.78391 0.0
C411 C 0.6764 0.68155 0.72742 0.0
C412 C 0.57599 0.54004 0.92 0.0
C413 C 0.59102 0.55405 0.89083 0.0
C414 C 0.62535 0.62132 0.86067 0.0
C415 C 0.65534 0.63968 0.76162 0.0
C416 C 0.63847 0.62596 0.7927 0.0
C417 C 0.59151 0.58377 0.88309 0.0
C418 C 0.60745 0.59859 0.85195 0.0
H419 H 0.68822 0.62307 0.68597 0.0
H420 H 0.66251 0.60091 0.73848 0.0
H421 H 0.65497 0.65164 0.83973 0.0
H422 H 0.54893 0.59746 0.94914 0.0
H423 H 0.57594 0.62204 0.89914 0.0
C424 C 0.84579 0.12984 0.13329 0.0
C425 C 0.8497 0.15871 0.12056 0.0
C426 C 0.85963 0.11658 0.17173 0.0
C427 C 0.90065 0.13024 0.27278 0.0
H428 H 0.93128 0.05528 0.27601 0.0
C429 C 0.9862 0.07774 0.40596 0.0
C430 C 0.98205 0.04943 0.42201 0.0
C431 C 0.96882 0.09068 0.37004 0.0
C432 C 0.9226 0.07606 0.27574 0.0
H433 H 0.87066 0.1966 0.13763 0.0
H434 H 0.89537 0.17349 0.20485 0.0
H435 H 0.90265 0.07906 0.21268 0.0
H436 H 0.9573 0.012 0.41213 0.0
H437 H 0.92719 0.03445 0.34849 0.0
H438 H 0.92136 0.12735 0.33575 0.0
C439 C 0.88115 0.16108 0.18567 0.0
C440 C 0.90607 0.08972 0.23944 0.0
C441 C 0.86707 0.17438 0.14723 0.0
C442 C 0.96092 0.03389 0.40044 0.0
C443 C 0.94369 0.04675 0.36413 0.0
C444 C 0.91738 0.11664 0.309 0.0
C445 C 0.87804 0.13185 0.19811 0.0
C446 C 0.89491 0.11705 0.23738 0.0
C447 C 0.94721 0.07543 0.34886 0.0
C448 C 0.92865 0.08946 0.31082 0.0
H449 H 0.83258 0.11737 0.11294 0.0
H450 H 0.85622 0.09423 0.18047 0.0
H451 H 0.89209 0.15104 0.27263 0.0
H452 H 1.00283 0.09 0.42137 0.0
H453 H 0.97245 0.11262 0.35866 0.0
C454 C 0.36823 0.33902 0.5499 0.0
C455 C 0.35652 0.35485 0.51174 0.0
C456 C 0.3732 0.3516 0.58566 0.0
C457 C 0.35258 0.41198 0.63097 0.0
H458 H 0.426 0.40002 0.70246 0.0
C459 C 0.38768 0.47848 0.76096 0.0
C460 C 0.40395 0.46541 0.79815 0.0
C461 C 0.38197 0.46441 0.72672 0.0
C462 C 0.40522 0.40329 0.68327 0.0
H463 H 0.34008 0.39605 0.48146 0.0
H464 H 0.34846 0.41795 0.54397 0.0
H465 H 0.41491 0.37608 0.64221 0.0
H466 H 0.4271 0.4273 0.82848 0.0
H467 H 0.41666 0.40237 0.769 0.0
H468 H 0.34258 0.43881 0.67207 0.0
C469 C 0.35386 0.39582 0.54621 0.0
C470 C 0.39889 0.38958 0.64863 0.0
C471 C 0.3492 0.38334 0.51037 0.0
C472 C 0.41468 0.438 0.80015 0.0
C473 C 0.40872 0.42376 0.76595 0.0
C474 C 0.35877 0.42547 0.6658 0.0
C475 C 0.36627 0.38021 0.58419 0.0
C476 C 0.37258 0.39394 0.62188 0.0
C477 C 0.39212 0.43672 0.72877 0.0
C478 C 0.38528 0.42155 0.69229 0.0
H479 H 0.3744 0.31712 0.55192 0.0
H480 H 0.38256 0.33894 0.6145 0.0
H481 H 0.33197 0.41548 0.6113 0.0
H482 H 0.37953 0.49978 0.75819 0.0
H483 H 0.36975 0.47544 0.69848 0.0
C484 C 0.70465 0.6411 0.55784 0.0
C485 C 0.70257 0.67029 0.55788 0.0
C486 C 0.69351 0.6293 0.52274 0.0
C487 C 0.66494 0.64503 0.41063 0.0
H488 H 0.62399 0.57554 0.43362 0.0
C489 C 0.61927 0.57598 0.28541 0.0
C490 C 0.59323 0.56253 0.28838 0.0
C491 C 0.63276 0.59083 0.31642 0.0
C492 C 0.63507 0.59506 0.4265 0.0
H493 H 0.68824 0.71029 0.52111 0.0
H494 H 0.6683 0.68964 0.45927 0.0
H495 H 0.648 0.59835 0.4901 0.0
H496 H 0.56037 0.55529 0.32545 0.0
H497 H 0.58367 0.58124 0.37922 0.0
H498 H 0.6513 0.64189 0.34674 0.0
C499 C 0.67891 0.67587 0.48628 0.0
C500 C 0.64926 0.60797 0.45902 0.0
C501 C 0.69031 0.68774 0.52155 0.0
C502 C 0.58068 0.56489 0.32258 0.0
C503 C 0.59408 0.57979 0.35345 0.0
C504 C 0.65068 0.63205 0.37794 0.0
C505 C 0.67964 0.64637 0.48689 0.0
C506 C 0.66454 0.63303 0.45162 0.0
C507 C 0.62049 0.59264 0.35111 0.0
C508 C 0.63555 0.60688 0.3855 0.0
H509 H 0.71406 0.62725 0.58558 0.0
H510 H 0.69511 0.60662 0.52408 0.0
H511 H 0.67656 0.66425 0.4038 0.0
H512 H 0.62964 0.57437 0.25965 0.0
H513 H 0.65321 0.60017 0.31377 0.0
C514 C 0.8624 0.1354 0.97582 0.0
C515 C 0.85395 0.16378 0.97226 0.0
C516 C 0.87502 0.12621 0.94556 0.0
C517 C 0.91565 0.1508 0.8641 0.0
H518 H 0.89409 0.07875 0.8287 0.0
C519 C 0.96735 0.10691 0.74193 0.0
C520 C 0.97397 0.07783 0.74961 0.0
C521 C 0.95064 0.11859 0.76564 0.0
C522 C 0.9006 0.09879 0.83849 0.0
H523 H 0.85204 0.20477 0.93399 0.0
H524 H 0.8744 0.1887 0.88099 0.0
H525 H 0.86902 0.09697 0.87659 0.0
H526 H 0.96727 0.03817 0.78754 0.0
H527 H 0.93904 0.05852 0.8294 0.0
H528 H 0.94775 0.15229 0.8269 0.0
C529 C 0.87123 0.17361 0.90736 0.0
C530 C 0.88614 0.10926 0.86589 0.0
C531 C 0.85829 0.18276 0.93753 0.0
C532 C 0.96301 0.06071 0.78109 0.0
C533 C 0.94642 0.07236 0.80479 0.0
C534 C 0.93028 0.14022 0.83686 0.0
C535 C 0.8797 0.14519 0.91103 0.0
C536 C 0.89374 0.13519 0.87949 0.0
C537 C 0.94011 0.10149 0.79761 0.0
C538 C 0.92322 0.11385 0.82416 0.0
H539 H 0.85904 0.12017 1.00194 0.0
H540 H 0.88153 0.10426 0.94955 0.0
H541 H 0.92217 0.17073 0.87425 0.0
H542 H 0.97557 0.12078 0.71815 0.0
H543 H 0.94598 0.14105 0.75888 0.0
C544 C 0.39956 0.34489 0.35582 0.0
C545 C 0.37869 0.35874 0.37033 0.0
C546 C 0.41327 0.35895 0.32505 0.0
C547 C 0.42579 0.43171 0.27152 0.0
H548 H 0.45268 0.38989 0.19517 0.0
C549 C 0.46548 0.48479 0.12444 0.0
C550 C 0.49192 0.47535 0.11902 0.0
C551 C 0.45195 0.47055 0.15521 0.0
C552 C 0.44544 0.40179 0.21648 0.0
H553 H 0.35537 0.39799 0.36329 0.0
H554 H 0.37823 0.42222 0.30842 0.0
H555 H 0.42755 0.3652 0.24713 0.0
H556 H 0.52493 0.44359 0.14121 0.0
H557 H 0.5009 0.41816 0.19472 0.0
H558 H 0.4429 0.46846 0.2395 0.0
C559 C 0.38488 0.40079 0.32162 0.0
C560 C 0.43111 0.38764 0.24652 0.0
C561 C 0.37153 0.38685 0.35293 0.0
C562 C 0.50461 0.45135 0.14494 0.0
C563 C 0.4908 0.43674 0.17528 0.0
C564 C 0.43965 0.4459 0.241 0.0
C565 C 0.40619 0.38717 0.30737 0.0
C566 C 0.42113 0.40234 0.27471 0.0
C567 C 0.46437 0.44627 0.18083 0.0
C568 C 0.44973 0.43108 0.21328 0.0
H569 H 0.40582 0.32334 0.36905 0.0
H570 H 0.42988 0.34776 0.31584 0.0
H571 H 0.41913 0.44384 0.29297 0.0
H572 H 0.45532 0.50335 0.10499 0.0
H573 H 0.43155 0.47828 0.1586 0.0
C574 C 0.2006 0.8719 0.90229 0.0
C575 C 0.18634 0.85587 0.93102 0.0
C576 C 0.18572 0.88404 0.86374 0.0
C577 C 0.11324 0.90833 0.81436 0.0
H578 H 0.14481 0.91935 0.71438 0.0
C579 C 0.04994 0.96227 0.65823 0.0
C580 C 0.06488 0.98117 0.63369 0.0
C581 C 0.06437 0.94537 0.69353 0.0
C582 C 0.1358 0.91663 0.74215 0.0
H583 H 0.14574 0.83824 0.94076 0.0
H584 H 0.11987 0.85894 0.87333 0.0
H585 H 0.17092 0.89103 0.77638 0.0
H586 H 0.10618 0.99843 0.62766 0.0
H587 H 0.13147 0.96907 0.68936 0.0
H588 H 0.07829 0.93413 0.78031 0.0
C589 C 0.14239 0.86281 0.88089 0.0
C590 C 0.15075 0.90037 0.77768 0.0
C591 C 0.15724 0.85079 0.91943 0.0
C592 C 0.0943 0.9836 0.64572 0.0
C593 C 0.10875 0.96672 0.68094 0.0
C594 C 0.09829 0.92453 0.77886 0.0
C595 C 0.15625 0.88032 0.85303 0.0
C596 C 0.13975 0.89616 0.81435 0.0
C597 C 0.094 0.9472 0.70509 0.0
C598 C 0.10948 0.92909 0.74241 0.0
H599 H 0.22294 0.87649 0.91048 0.0
H600 H 0.19708 0.89755 0.84324 0.0
H601 H 0.10433 0.90605 0.84219 0.0
H602 H 0.02722 0.95999 0.6495 0.0
H603 H 0.05238 0.93046 0.71129 0.0
loop_
_geom_bond_atom_site_label_1
_geom_bond_atom_site_label_2
_geom_bond_distance
_geom_bond_site_symmetry_2
_ccdc_geom_bond_type
H0 C1 0.949 . S
C1 H0 0.949 . S
C1 C2 1.395 . S
C1 C3 1.391 . S
C2 C1 1.395 . S
C2 C5 1.390 . S
C3 C1 1.391 . S
C3 C7 1.387 1_554 S
C3 C8 1.491 . S
H4 C5 0.950 . S
C5 C2 1.390 . S
C5 H4 0.950 . S
C5 C6 1.378 1_554 S
C6 C5 1.378 1_556 S
C6 C7 1.409 . S
C7 C3 1.387 1_556 S
C7 C6 1.409 . S
C7 H9 0.951 . S
C8 C3 1.491 . S
C8 C10 1.382 . S
C8 C12 1.404 1_554 S
H9 C7 0.951 . S
C10 C8 1.382 . S
C10 C11 1.390 . S
C10 H15 0.949 . S
C11 C10 1.390 . S
C11 C16 1.399 . S
C12 C8 1.404 1_556 S
C12 H13 0.950 . S
C12 C14 1.375 . S
H13 C12 0.950 . S
C14 C12 1.375 . S
C14 C16 1.382 1_556 S
C14 H18 0.950 . S
H15 C10 0.949 . S
C16 C11 1.399 . S
C16 C14 1.382 1_554 S
C16 H17 0.952 . S
H17 C16 0.952 . S
H18 C14 0.950 . S
H19 C20 0.949 . S
C20 H19 0.949 . S
C20 C21 1.395 . S
C20 C22 1.391 . S
C21 C20 1.395 . S
C21 C24 1.390 . S
C22 C20 1.391 . S
C22 C26 1.387 . S
C22 C27 1.491 . S
H23 C24 0.950 . S
C24 C21 1.390 . S
C24 H23 0.950 . S
C24 C25 1.378 . S
C25 C24 1.378 . S
C25 C26 1.409 . S
C26 C22 1.387 . S
C26 C25 1.409 . S
C26 H28 0.951 . S
C27 C22 1.491 . S
C27 C29 1.382 . S
C27 C31 1.404 . S
H28 C26 0.951 . S
C29 C27 1.382 . S
C29 C30 1.390 . S
C29 H34 0.949 . S
C30 C29 1.390 . S
C30 C35 1.399 . S
C31 C27 1.404 . S
C31 H32 0.950 . S
C31 C33 1.375 . S
H32 C31 0.950 . S
C33 C31 1.375 . S
C33 C35 1.382 . S
C33 H37 0.950 . S
H34 C29 0.949 . S
C35 C30 1.399 . S
C35 C33 1.382 . S
C35 H36 0.952 . S
H36 C35 0.952 . S
H37 C33 0.950 . S
H38 C39 0.949 . S
C39 H38 0.949 . S
C39 C40 1.395 . S
C39 C41 1.391 . S
C40 C39 1.395 . S
C40 C43 1.390 . S
C41 C39 1.391 . S
C41 C45 1.387 1_554 S
C41 C46 1.491 1_554 S
H42 C43 0.950 . S
C43 C40 1.390 . S
C43 H42 0.950 . S
C43 C44 1.378 1_554 S
C44 C43 1.378 1_556 S
C44 C45 1.409 . S
C45 C41 1.387 1_556 S
C45 C44 1.409 . S
C45 H47 0.951 . S
C46 C41 1.491 1_556 S
C46 C48 1.382 1_556 S
C46 C50 1.404 . S
H47 C45 0.951 . S
C48 C46 1.382 1_554 S
C48 C49 1.390 . S
C48 H53 0.949 . S
C49 C48 1.390 . S
C49 C54 1.399 1_554 S
C50 C46 1.404 . S
C50 H51 0.950 . S
C50 C52 1.375 . S
H51 C50 0.950 . S
C52 C50 1.375 . S
C52 C54 1.382 . S
C52 H56 0.950 . S
H53 C48 0.949 . S
C54 C49 1.399 1_556 S
C54 C52 1.382 . S
C54 H55 0.952 . S
H55 C54 0.952 . S
H56 C52 0.950 . S
H57 C58 0.949 . S
C58 H57 0.949 . S
C58 C59 1.395 . S
C58 C60 1.391 . S
C59 C58 1.395 . S
C59 C62 1.390 . S
C60 C58 1.391 . S
C60 C64 1.387 . S
C60 C65 1.491 . S
H61 C62 0.950 . S
C62 C59 1.390 . S
C62 H61 0.950 . S
C62 C63 1.378 . S
C63 C62 1.378 . S
C63 C64 1.409 . S
C64 C60 1.387 . S
C64 C63 1.409 . S
C64 H66 0.951 . S
C65 C60 1.491 . S
C65 C67 1.382 . S
C65 C69 1.404 . S
H66 C64 0.951 . S
C67 C65 1.382 . S
C67 C68 1.390 . S
C67 H72 0.949 . S
C68 C67 1.390 . S
C68 C73 1.399 . S
C69 C65 1.404 . S
C69 H70 0.950 . S
C69 C71 1.375 . S
H70 C69 0.950 . S
C71 C69 1.375 . S
C71 C73 1.382 . S
C71 H75 0.950 . S
H72 C67 0.949 . S
C73 C68 1.399 . S
C73 C71 1.382 . S
C73 H74 0.952 . S
H74 C73 0.952 . S
H75 C71 0.950 . S
Tb76 N105 2.617 . S
Tb76 N111 2.572 . S
Tb76 O120 2.465 . S
Tb76 O121 2.387 . S
Tb76 O123 2.428 . S
Tb76 O124 2.308 1_565 S
Tb76 O128 2.349 1_565 S
Tb76 O131 2.393 1_455 S
Tb76 C140 2.802 . S
C77 N78 1.379 . S
C77 C80 1.416 . S
C77 C84 1.424 . S
N78 C77 1.379 . S
N78 C81 1.334 1_655 S
N78 Tb87 2.617 . S
C79 C81 1.390 . S
C79 C82 1.339 1_455 S
C79 H99 0.930 . S
C80 C77 1.416 . S
C80 C82 1.416 . S
C80 C86 1.448 . S
C81 N78 1.334 1_455 S
C81 C79 1.390 . S
C81 H92 0.930 . S
C82 C79 1.339 1_655 S
C82 C80 1.416 . S
C82 H103 0.930 . S
C83 C84 1.413 . S
C83 C85 1.427 . S
C83 C89 1.416 . S
C84 C77 1.424 . S
C84 C83 1.413 . S
C84 N88 1.361 . S
C85 C83 1.427 . S
C85 C86 1.328 . S
C85 H100 0.929 . S
C86 C80 1.448 . S
C86 C85 1.328 . S
C86 H101 0.930 . S
Tb87 N78 2.617 . S
Tb87 N88 2.572 . S
Tb87 O122 2.349 1_655 S
Tb87 O125 2.393 1_655 S
Tb87 O126 2.465 . S
Tb87 O127 2.387 . S
Tb87 O129 2.428 1_655 S
Tb87 O130 2.308 1_545 S
Tb87 C151 2.802 . S
N88 C84 1.361 . S
N88 Tb87 2.572 . S
N88 C90 1.340 . S
C89 C83 1.416 . S
C89 C91 1.332 . S
C89 H97 0.931 . S
C90 N88 1.340 . S
C90 C91 1.407 . S
C90 H96 0.930 . S
C91 C89 1.332 . S
C91 C90 1.407 . S
C91 H93 0.929 . S
H92 C81 0.930 . S
H93 C91 0.929 . S
H94 C109 0.930 1_655 S
H95 C116 0.929 . S
H96 C90 0.930 . S
H97 C89 0.931 . S
H98 C112 0.930 . S
H99 C79 0.930 . S
H100 C85 0.929 . S
H101 C86 0.930 . S
H102 C107 0.930 1_655 S
H103 C82 0.930 . S
H104 C115 0.931 . S
N105 Tb76 2.617 . S
N105 C106 1.379 . S
N105 C109 1.334 . S
C106 N105 1.379 . S
C106 C108 1.416 . S
C106 C114 1.424 . S
C107 H102 0.930 1_455 S
C107 C109 1.390 . S
C107 C110 1.339 . S
C108 C106 1.416 . S
C108 C110 1.416 . S
C108 C141 1.448 . S
C109 H94 0.930 1_455 S
C109 N105 1.334 . S
C109 C107 1.390 . S
C110 C107 1.339 . S
C110 C108 1.416 . S
C110 H117 0.930 . S
N111 Tb76 2.572 . S
N111 C112 1.340 . S
N111 C114 1.361 . S
C112 H98 0.930 . S
C112 N111 1.340 . S
C112 C116 1.407 . S
C113 C114 1.413 . S
C113 C115 1.416 . S
C113 C142 1.427 . S
C114 C106 1.424 . S
C114 N111 1.361 . S
C114 C113 1.413 . S
C115 H104 0.931 . S
C115 C113 1.416 . S
C115 C116 1.332 . S
C116 H95 0.929 . S
C116 C112 1.407 . S
C116 C115 1.332 . S
H117 C110 0.930 . S
H118 C141 0.930 . S
H119 C142 0.929 . S
O120 Tb76 2.465 . S
O120 C140 1.264 . S
O121 Tb76 2.387 . S
O121 C132 1.264 . S
O122 Tb87 2.349 1_455 S
O122 C132 1.243 1_545 S
O123 Tb76 2.428 . S
O123 C140 1.256 . S
O124 Tb76 2.308 1_545 S
O124 C139 1.266 . S
O125 Tb87 2.393 1_455 S
O125 C139 1.248 . S
O126 Tb87 2.465 . S
O126 C151 1.264 . S
O127 Tb87 2.387 . S
O127 C143 1.264 . S
O128 Tb76 2.349 1_545 S
O128 C143 1.243 1_455 S
O129 Tb87 2.428 1_455 S
O129 C151 1.256 1_455 S
O130 Tb87 2.308 1_565 S
O130 C150 1.266 . S
O131 Tb76 2.393 1_655 S
O131 C150 1.248 . S
C132 O121 1.264 . S
C132 O122 1.243 1_565 S
C133 C136 1.399 . S
C133 C138 1.383 . S
C133 C140 1.496 . S
C134 C135 1.399 . S
C134 C138 1.389 . S
C135 C134 1.399 . S
C135 C137 1.380 . S
C135 H152 0.929 . S
C136 C133 1.399 . S
C136 C137 1.392 . S
C136 H153 0.929 . S
C137 C135 1.380 . S
C137 C136 1.392 . S
C137 H154 0.929 . S
C138 C133 1.383 . S
C138 C134 1.389 . S
C138 H155 0.931 . S
C139 O124 1.266 . S
C139 O125 1.248 . S
C140 Tb76 2.802 . S
C140 O120 1.264 . S
C140 O123 1.256 . S
C140 C133 1.496 . S
C141 C108 1.448 . S
C141 H118 0.930 . S
C141 C142 1.328 . S
C142 C113 1.427 . S
C142 H119 0.929 . S
C142 C141 1.328 . S
C143 O127 1.264 . S
C143 O128 1.243 1_655 S
C144 C147 1.399 . S
C144 C148 1.383 . S
C144 C151 1.496 . S
C145 C146 1.399 . S
C145 C148 1.389 . S
C146 C145 1.399 . S
C146 C149 1.380 . S
C146 H156 0.929 . S
C147 C144 1.399 . S
C147 C149 1.392 . S
C147 H157 0.929 1_655 S
C148 C144 1.383 . S
C148 C145 1.389 . S
C148 H158 0.931 . S
C149 C146 1.380 . S
C149 C147 1.392 . S
C149 H159 0.929 . S
C150 O130 1.266 . S
C150 O131 1.248 . S
C151 Tb87 2.802 . S
C151 O126 1.264 . S
C151 O129 1.256 1_655 S
C151 C144 1.496 . S
H152 C135 0.929 . S
H153 C136 0.929 . S
H154 C137 0.929 . S
H155 C138 0.931 . S
H156 C146 0.929 . S
H157 C147 0.929 1_455 S
H158 C148 0.931 . S
H159 C149 0.929 . S
Tb160 N189 2.617 . S
Tb160 N195 2.572 1_556 S
Tb160 O204 2.465 . S
Tb160 O205 2.387 1_556 S
Tb160 O207 2.428 . S
Tb160 O208 2.308 1_556 S
Tb160 O212 2.349 . S
Tb160 O215 2.393 1_556 S
Tb160 C224 2.802 . S
C161 N162 1.379 . S
C161 C164 1.416 . S
C161 C168 1.424 . S
N162 C161 1.379 . S
N162 C165 1.334 . S
N162 Tb171 2.617 . S
C163 C165 1.390 . S
C163 C166 1.339 . S
C163 H183 0.930 . S
C164 C161 1.416 . S
C164 C166 1.416 . S
C164 C170 1.448 . S
C165 N162 1.334 . S
C165 C163 1.390 . S
C165 H176 0.930 . S
C166 C163 1.339 . S
C166 C164 1.416 . S
C166 H187 0.930 . S
C167 C168 1.413 . S
C167 C169 1.427 . S
C167 C173 1.416 . S
C168 C161 1.424 . S
C168 C167 1.413 . S
C168 N172 1.361 . S
C169 C167 1.427 . S
C169 C170 1.328 . S
C169 H184 0.929 . S
C170 C164 1.448 . S
C170 C169 1.328 . S
C170 H185 0.930 . S
Tb171 N162 2.617 . S
Tb171 N172 2.572 . S
Tb171 O206 2.349 . S
Tb171 O209 2.393 . S
Tb171 O210 2.465 . S
Tb171 O211 2.387 . S
Tb171 O213 2.428 . S
Tb171 O214 2.308 . S
Tb171 C235 2.802 . S
N172 C168 1.361 . S
N172 Tb171 2.572 . S
N172 C174 1.340 . S
C173 C167 1.416 . S
C173 C175 1.332 . S
C173 H181 0.931 . S
C174 N172 1.340 . S
C174 C175 1.407 . S
C174 H180 0.930 . S
C175 C173 1.332 . S
C175 C174 1.407 . S
C175 H177 0.929 . S
H176 C165 0.930 . S
H177 C175 0.929 . S
H178 C193 0.930 . S
H179 C200 0.929 . S
H180 C174 0.930 . S
H181 C173 0.931 . S
H182 C196 0.930 . S
H183 C163 0.930 . S
H184 C169 0.929 . S
H185 C170 0.930 . S
H186 C191 0.930 . S
H187 C166 0.930 . S
H188 C199 0.931 . S
N189 Tb160 2.617 . S
N189 C190 1.379 1_556 S
N189 C193 1.334 . S
C190 N189 1.379 1_554 S
C190 C192 1.416 . S
C190 C198 1.424 . S
C191 H186 0.930 . S
C191 C193 1.390 . S
C191 C194 1.339 1_556 S
C192 C190 1.416 . S
C192 C194 1.416 . S
C192 C225 1.448 . S
C193 H178 0.930 . S
C193 N189 1.334 . S
C193 C191 1.390 . S
C194 C191 1.339 1_554 S
C194 C192 1.416 . S
C194 H201 0.930 . S
N195 Tb160 2.572 1_554 S
N195 C196 1.340 . S
N195 C198 1.361 . S
C196 H182 0.930 . S
C196 N195 1.340 . S
C196 C200 1.407 . S
C197 C198 1.413 . S
C197 C199 1.416 . S
C197 C226 1.427 . S
C198 C190 1.424 . S
C198 N195 1.361 . S
C198 C197 1.413 . S
C199 H188 0.931 . S
C199 C197 1.416 . S
C199 C200 1.332 . S
C200 H179 0.929 . S
C200 C196 1.407 . S
C200 C199 1.332 . S
H201 C194 0.930 . S
H202 C225 0.930 . S
H203 C226 0.929 . S
O204 Tb160 2.465 . S
O204 C224 1.264 . S
O205 Tb160 2.387 1_554 S
O205 C216 1.264 . S
O206 Tb171 2.349 . S
O206 C216 1.243 . S
O207 Tb160 2.428 . S
O207 C224 1.256 . S
O208 Tb160 2.308 1_554 S
O208 C223 1.266 . S
O209 Tb171 2.393 . S
O209 C223 1.248 . S
O210 Tb171 2.465 . S
O210 C235 1.264 . S
O211 Tb171 2.387 . S
O211 C227 1.264 1_554 S
O212 Tb160 2.349 . S
O212 C227 1.243 . S
O213 Tb171 2.428 . S
O213 C235 1.256 . S
O214 Tb171 2.308 . S
O214 C234 1.266 . S
O215 Tb160 2.393 1_554 S
O215 C234 1.248 . S
C216 O205 1.264 . S
C216 O206 1.243 . S
C217 C220 1.399 . S
C217 C222 1.383 . S
C217 C224 1.496 . S
C218 C219 1.399 . S
C218 C222 1.389 . S
C219 C218 1.399 . S
C219 C221 1.380 . S
C219 H236 0.929 . S
C220 C217 1.399 . S
C220 C221 1.392 . S
C220 H237 0.929 . S
C221 C219 1.380 . S
C221 C220 1.392 . S
C221 H238 0.929 . S
C222 C217 1.383 . S
C222 C218 1.389 . S
C222 H239 0.931 . S
C223 O208 1.266 . S
C223 O209 1.248 . S
C224 Tb160 2.802 . S
C224 O204 1.264 . S
C224 O207 1.256 . S
C224 C217 1.496 . S
C225 C192 1.448 . S
C225 H202 0.930 . S
C225 C226 1.328 . S
C226 C197 1.427 . S
C226 H203 0.929 . S
C226 C225 1.328 . S
C227 O211 1.264 1_556 S
C227 O212 1.243 . S
C228 C231 1.399 . S
C228 C232 1.383 . S
C228 C235 1.496 . S
C229 C230 1.399 . S
C229 C232 1.389 . S
C230 C229 1.399 . S
C230 C233 1.380 . S
C230 H240 0.929 . S
C231 C228 1.399 . S
C231 C233 1.392 . S
C231 H241 0.929 . S
C232 C228 1.383 . S
C232 C229 1.389 . S
C232 H242 0.931 . S
C233 C230 1.380 . S
C233 C231 1.392 . S
C233 H243 0.929 . S
C234 O214 1.266 . S
C234 O215 1.248 . S
C235 Tb171 2.802 . S
C235 O210 1.264 . S
C235 O213 1.256 . S
C235 C228 1.496 . S
H236 C219 0.929 . S
H237 C220 0.929 . S
H238 C221 0.929 . S
H239 C222 0.931 . S
H240 C230 0.929 . S
H241 C231 0.929 . S
H242 C232 0.931 . S
H243 C233 0.929 . S
C244 C245 1.349 . S
C244 C246 1.327 . S
C244 H269 0.950 . S
C245 C244 1.349 . S
C245 C261 1.349 . S
C246 C244 1.327 . S
C246 C265 1.429 . S
C246 H270 0.950 . S
C247 C264 1.574 . S
C247 C266 1.368 . S
C247 H271 0.949 . S
H248 C252 0.949 . S
C249 C250 1.349 . S
C249 C251 1.327 . S
C249 H272 0.950 . S
C250 C249 1.349 . S
C250 C262 1.349 . S
C251 C249 1.327 . S
C251 C267 1.429 . S
C251 H273 0.950 . S
C252 H248 0.949 . S
C252 C260 1.574 . S
C252 C268 1.368 . S
H253 C261 0.950 . S
H254 C259 0.950 . S
H255 C260 0.949 . S
H256 C262 0.950 . S
H257 C263 0.950 . S
H258 C264 0.949 . S
C259 H254 0.950 . S
C259 C261 1.327 . S
C259 C265 1.429 . S
C260 C252 1.574 . S
C260 H255 0.949 . S
C260 C266 1.368 . S
C261 C245 1.349 . S
C261 H253 0.950 . S
C261 C259 1.327 . S
C262 C250 1.349 . S
C262 H256 0.950 . S
C262 C263 1.327 . S
C263 H257 0.950 . S
C263 C262 1.327 . S
C263 C267 1.429 . S
C264 C247 1.574 . S
C264 H258 0.949 . S
C264 C268 1.368 . S
C265 C246 1.429 . S
C265 C259 1.429 . S
C265 C266 1.523 . S
C266 C247 1.368 . S
C266 C260 1.368 . S
C266 C265 1.523 . S
C267 C251 1.429 . S
C267 C263 1.429 . S
C267 C268 1.523 . S
C268 C252 1.368 . S
C268 C264 1.368 . S
C268 C267 1.523 . S
H269 C244 0.950 . S
H270 C246 0.950 . S
H271 C247 0.949 . S
H272 C249 0.950 . S
H273 C251 0.950 . S
C274 C275 1.349 . S
C274 C276 1.327 . S
C274 H299 0.950 . S
C275 C274 1.349 . S
C275 C291 1.349 . S
C276 C274 1.327 . S
C276 C295 1.429 . S
C276 H300 0.950 . S
C277 C294 1.574 . S
C277 C296 1.368 . S
C277 H301 0.949 . S
H278 C282 0.949 . S
C279 C280 1.349 . S
C279 C281 1.327 . S
C279 H302 0.950 1_554 S
C280 C279 1.349 . S
C280 C292 1.349 . S
C281 C279 1.327 . S
C281 C297 1.429 . S
C281 H303 0.944 1_554 S
C282 H278 0.949 . S
C282 C290 1.574 . S
C282 C298 1.368 . S
H283 C291 0.950 . S
H284 C289 0.950 . S
H285 C290 0.949 . S
H286 C292 0.950 . S
H287 C293 0.950 . S
H288 C294 0.949 . S
C289 H284 0.950 . S
C289 C291 1.327 . S
C289 C295 1.429 . S
C290 C282 1.574 . S
C290 H285 0.949 . S
C290 C296 1.368 . S
C291 C275 1.349 . S
C291 H283 0.950 . S
C291 C289 1.327 . S
C292 C280 1.349 . S
C292 H286 0.950 . S
C292 C293 1.327 . S
C293 H287 0.950 . S
C293 C292 1.327 . S
C293 C297 1.429 . S
C294 C277 1.574 . S
C294 H288 0.949 . S
C294 C298 1.368 . S
C295 C276 1.429 . S
C295 C289 1.429 . S
C295 C296 1.523 . S
C296 C277 1.368 . S
C296 C290 1.368 . S
C296 C295 1.523 . S
C297 C281 1.429 . S
C297 C293 1.429 . S
C297 C298 1.523 . S
C298 C282 1.368 . S
C298 C294 1.368 . S
C298 C297 1.523 . S
H299 C274 0.950 . S
H300 C276 0.950 . S
H301 C277 0.949 . S
H302 C279 0.950 1_556 S
H303 C281 0.944 1_556 S
C304 C305 1.349 . S
C304 C306 1.327 . S
C304 H329 0.950 . S
C305 C304 1.349 . S
C305 C321 1.349 . S
C306 C304 1.327 . S
C306 C325 1.429 . S
C306 H330 0.950 . S
C307 C324 1.574 . S
C307 C326 1.368 . S
C307 H331 0.949 . S
H308 C312 0.949 . S
C309 C310 1.349 . S
C309 C311 1.327 . S
C309 H332 0.950 . S
C310 C309 1.349 . S
C310 C322 1.349 . S
C311 C309 1.327 . S
C311 C327 1.429 . S
C311 H333 0.950 . S
C312 H308 0.949 . S
C312 C320 1.574 . S
C312 C328 1.368 . S
H313 C321 0.950 . S
H314 C319 0.950 . S
H315 C320 0.949 . S
H316 C322 0.950 . S
H317 C323 0.950 . S
H318 C324 0.949 . S
C319 H314 0.950 . S
C319 C321 1.327 . S
C319 C325 1.429 . S
C320 C312 1.574 . S
C320 H315 0.949 . S
C320 C326 1.368 . S
C321 C305 1.349 . S
C321 H313 0.950 . S
C321 C319 1.327 . S
C322 C310 1.349 . S
C322 H316 0.950 . S
C322 C323 1.327 . S
C323 H317 0.950 . S
C323 C322 1.327 . S
C323 C327 1.429 . S
C324 C307 1.574 . S
C324 H318 0.949 . S
C324 C328 1.368 . S
C325 C306 1.429 . S
C325 C319 1.429 . S
C325 C326 1.523 . S
C326 C307 1.368 . S
C326 C320 1.368 . S
C326 C325 1.523 . S
C327 C311 1.429 . S
C327 C323 1.429 . S
C327 C328 1.523 . S
C328 C312 1.368 . S
C328 C324 1.368 . S
C328 C327 1.523 . S
H329 C304 0.950 . S
H330 C306 0.950 . S
H331 C307 0.949 . S
H332 C309 0.950 . S
H333 C311 0.950 . S
C334 C335 1.349 . S
C334 C336 1.327 . S
C334 H359 0.950 . S
C335 C334 1.349 . S
C335 C351 1.349 1_554 S
C336 C334 1.327 . S
C336 C355 1.429 . S
C336 H360 0.950 . S
C337 C354 1.574 . S
C337 C356 1.368 1_556 S
C337 H361 0.949 . S
H338 C342 0.949 . S
C339 C340 1.349 1_556 S
C339 C341 1.327 . S
C339 H362 0.950 . S
C340 C339 1.349 1_554 S
C340 C352 1.349 . S
C341 C339 1.327 . S
C341 C357 1.429 1_556 S
C341 H363 0.950 . S
C342 H338 0.949 . S
C342 C350 1.574 . S
C342 C358 1.368 . S
H343 C351 0.950 . S
H344 C349 0.950 . S
H345 C350 0.949 . S
H346 C352 0.950 . S
H347 C353 0.950 . S
H348 C354 0.949 . S
C349 H344 0.950 . S
C349 C351 1.327 . S
C349 C355 1.429 1_556 S
C350 C342 1.574 . S
C350 H345 0.949 . S
C350 C356 1.368 . S
C351 C335 1.349 1_556 S
C351 H343 0.950 . S
C351 C349 1.327 . S
C352 C340 1.349 . S
C352 H346 0.950 . S
C352 C353 1.327 . S
C353 H347 0.950 . S
C353 C352 1.327 . S
C353 C357 1.429 . S
C354 C337 1.574 . S
C354 H348 0.949 . S
C354 C358 1.368 1_556 S
C355 C336 1.429 . S
C355 C349 1.429 1_554 S
C355 C356 1.523 . S
C356 C337 1.368 1_554 S
C356 C350 1.368 . S
C356 C355 1.523 . S
C357 C341 1.429 1_554 S
C357 C353 1.429 . S
C357 C358 1.523 . S
C358 C342 1.368 . S
C358 C354 1.368 1_554 S
C358 C357 1.523 . S
H359 C334 0.950 . S
H360 C336 0.950 . S
H361 C337 0.949 . S
H362 C339 0.950 . S
H363 C341 0.950 . S
C364 C365 1.349 . S
C364 C366 1.327 . S
C364 H389 0.950 . S
C365 C364 1.349 . S
C365 C381 1.349 . S
C366 C364 1.327 . S
C366 C385 1.429 . S
C366 H390 0.950 . S
C367 C384 1.574 . S
C367 C386 1.368 . S
C367 H391 0.949 . S
H368 C372 0.949 . S
C369 C370 1.349 . S
C369 C371 1.327 . S
C369 H392 0.943 1_565 S
C370 C369 1.349 . S
C370 C382 1.349 . S
C371 C369 1.327 . S
C371 C387 1.429 . S
C371 H393 0.950 . S
C372 H368 0.949 . S
C372 C380 1.574 . S
C372 C388 1.368 . S
H373 C381 0.950 . S
H374 C379 0.950 . S
H375 C380 0.949 . S
H376 C382 0.950 . S
H377 C383 0.950 . S
H378 C384 0.949 . S
C379 H374 0.950 . S
C379 C381 1.327 . S
C379 C385 1.429 . S
C380 C372 1.574 . S
C380 H375 0.949 . S
C380 C386 1.368 . S
C381 C365 1.349 . S
C381 H373 0.950 . S
C381 C379 1.327 . S
C382 C370 1.349 . S
C382 H376 0.950 . S
C382 C383 1.327 . S
C383 H377 0.950 . S
C383 C382 1.327 . S
C383 C387 1.429 . S
C384 C367 1.574 . S
C384 H378 0.949 . S
C384 C388 1.368 . S
C385 C366 1.429 . S
C385 C379 1.429 . S
C385 C386 1.523 . S
C386 C367 1.368 . S
C386 C380 1.368 . S
C386 C385 1.523 . S
C387 C371 1.429 . S
C387 C383 1.429 . S
C387 C388 1.523 . S
C388 C372 1.368 . S
C388 C384 1.368 . S
C388 C387 1.523 . S
H389 C364 0.950 . S
H390 C366 0.950 . S
H391 C367 0.949 . S
H392 C369 0.943 1_545 S
H393 C371 0.950 . S
C394 C395 1.349 . S
C394 C396 1.327 . S
C394 H419 0.950 . S
C395 C394 1.349 . S
C395 C411 1.349 . S
C396 C394 1.327 . S
C396 C415 1.429 . S
C396 H420 0.950 . S
C397 C414 1.574 . S
C397 C416 1.368 . S
C397 H421 0.949 . S
H398 C402 0.949 . S
C399 C400 1.349 . S
C399 C401 1.327 . S
C399 H422 0.950 . S
C400 C399 1.349 . S
C400 C412 1.349 . S
C401 C399 1.327 . S
C401 C417 1.429 . S
C401 H423 0.950 . S
C402 H398 0.949 . S
C402 C410 1.574 . S
C402 C418 1.368 . S
H403 C411 0.950 . S
H404 C409 0.950 . S
H405 C410 0.949 . S
H406 C412 0.950 . S
H407 C413 0.950 . S
H408 C414 0.949 . S
C409 H404 0.950 . S
C409 C411 1.327 . S
C409 C415 1.429 . S
C410 C402 1.574 . S
C410 H405 0.949 . S
C410 C416 1.368 . S
C411 C395 1.349 . S
C411 H403 0.950 . S
C411 C409 1.327 . S
C412 C400 1.349 . S
C412 H406 0.950 . S
C412 C413 1.327 . S
C413 H407 0.950 . S
C413 C412 1.327 . S
C413 C417 1.429 . S
C414 C397 1.574 . S
C414 H408 0.949 . S
C414 C418 1.368 . S
C415 C396 1.429 . S
C415 C409 1.429 . S
C415 C416 1.523 . S
C416 C397 1.368 . S
C416 C410 1.368 . S
C416 C415 1.523 . S
C417 C401 1.429 . S
C417 C413 1.429 . S
C417 C418 1.523 . S
C418 C402 1.368 . S
C418 C414 1.368 . S
C418 C417 1.523 . S
H419 C394 0.950 . S
H420 C396 0.950 . S
H421 C397 0.949 . S
H422 C399 0.950 . S
H423 C401 0.950 . S
C424 C425 1.349 . S
C424 C426 1.327 . S
C424 H449 0.950 . S
C425 C424 1.349 . S
C425 C441 1.349 . S
C426 C424 1.327 . S
C426 C445 1.429 . S
C426 H450 0.950 . S
C427 C444 1.574 . S
C427 C446 1.368 . S
C427 H451 0.949 . S
H428 C432 0.949 . S
C429 C430 1.349 . S
C429 C431 1.327 . S
C429 H452 0.950 . S
C430 C429 1.349 . S
C430 C442 1.349 . S
C431 C429 1.327 . S
C431 C447 1.429 . S
C431 H453 0.950 . S
C432 H428 0.949 . S
C432 C440 1.574 . S
C432 C448 1.368 . S
H433 C441 0.950 . S
H434 C439 0.950 . S
H435 C440 0.949 . S
H436 C442 0.950 . S
H437 C443 0.950 . S
H438 C444 0.949 . S
C439 H434 0.950 . S
C439 C441 1.327 . S
C439 C445 1.429 . S
C440 C432 1.574 . S
C440 H435 0.949 . S
C440 C446 1.368 . S
C441 C425 1.349 . S
C441 H433 0.950 . S
C441 C439 1.327 . S
C442 C430 1.349 . S
C442 H436 0.950 . S
C442 C443 1.327 . S
C443 H437 0.950 . S
C443 C442 1.327 . S
C443 C447 1.429 . S
C444 C427 1.574 . S
C444 H438 0.949 . S
C444 C448 1.368 . S
C445 C426 1.429 . S
C445 C439 1.429 . S
C445 C446 1.523 . S
C446 C427 1.368 . S
C446 C440 1.368 . S
C446 C445 1.523 . S
C447 C431 1.429 . S
C447 C443 1.429 . S
C447 C448 1.523 . S
C448 C432 1.368 . S
C448 C444 1.368 . S
C448 C447 1.523 . S
H449 C424 0.950 . S
H450 C426 0.950 . S
H451 C427 0.949 . S
H452 C429 0.950 . S
H453 C431 0.950 . S
C454 C455 1.349 . S
C454 C456 1.327 . S
C454 H479 0.950 . S
C455 C454 1.349 . S
C455 C471 1.349 . S
C456 C454 1.327 . S
C456 C475 1.429 . S
C456 H480 0.950 . S
C457 C474 1.574 . S
C457 C476 1.368 . S
C457 H481 0.949 . S
H458 C462 0.949 . S
C459 C460 1.349 . S
C459 C461 1.327 . S
C459 H482 0.950 . S
C460 C459 1.349 . S
C460 C472 1.349 . S
C461 C459 1.327 . S
C461 C477 1.429 . S
C461 H483 0.950 . S
C462 H458 0.949 . S
C462 C470 1.574 . S
C462 C478 1.368 . S
H463 C471 0.950 . S
H464 C469 0.950 . S
H465 C470 0.949 . S
H466 C472 0.950 . S
H467 C473 0.950 . S
H468 C474 0.949 . S
C469 H464 0.950 . S
C469 C471 1.327 . S
C469 C475 1.429 . S
C470 C462 1.574 . S
C470 H465 0.949 . S
C470 C476 1.368 . S
C471 C455 1.349 . S
C471 H463 0.950 . S
C471 C469 1.327 . S
C472 C460 1.349 . S
C472 H466 0.950 . S
C472 C473 1.327 . S
C473 H467 0.950 . S
C473 C472 1.327 . S
C473 C477 1.429 . S
C474 C457 1.574 . S
C474 H468 0.949 . S
C474 C478 1.368 . S
C475 C456 1.429 . S
C475 C469 1.429 . S
C475 C476 1.523 . S
C476 C457 1.368 . S
C476 C470 1.368 . S
C476 C475 1.523 . S
C477 C461 1.429 . S
C477 C473 1.429 . S
C477 C478 1.523 . S
C478 C462 1.368 . S
C478 C474 1.368 . S
C478 C477 1.523 . S
H479 C454 0.950 . S
H480 C456 0.950 . S
H481 C457 0.949 . S
H482 C459 0.950 . S
H483 C461 0.950 . S
C484 C485 1.349 . S
C484 C486 1.327 . S
C484 H509 0.950 . S
C485 C484 1.349 . S
C485 C501 1.349 . S
C486 C484 1.327 . S
C486 C505 1.429 . S
C486 H510 0.950 . S
C487 C504 1.574 . S
C487 C506 1.368 . S
C487 H511 0.949 . S
H488 C492 0.949 . S
C489 C490 1.349 . S
C489 C491 1.327 . S
C489 H512 0.950 . S
C490 C489 1.349 . S
C490 C502 1.349 . S
C491 C489 1.327 . S
C491 C507 1.429 . S
C491 H513 0.950 . S
C492 H488 0.949 . S
C492 C500 1.574 . S
C492 C508 1.368 . S
H493 C501 0.950 . S
H494 C499 0.950 . S
H495 C500 0.949 . S
H496 C502 0.950 . S
H497 C503 0.950 . S
H498 C504 0.949 . S
C499 H494 0.950 . S
C499 C501 1.327 . S
C499 C505 1.429 . S
C500 C492 1.574 . S
C500 H495 0.949 . S
C500 C506 1.368 . S
C501 C485 1.349 . S
C501 H493 0.950 . S
C501 C499 1.327 . S
C502 C490 1.349 . S
C502 H496 0.950 . S
C502 C503 1.327 . S
C503 H497 0.950 . S
C503 C502 1.327 . S
C503 C507 1.429 . S
C504 C487 1.574 . S
C504 H498 0.949 . S
C504 C508 1.368 . S
C505 C486 1.429 . S
C505 C499 1.429 . S
C505 C506 1.523 . S
C506 C487 1.368 . S
C506 C500 1.368 . S
C506 C505 1.523 . S
C507 C491 1.429 . S
C507 C503 1.429 . S
C507 C508 1.523 . S
C508 C492 1.368 . S
C508 C504 1.368 . S
C508 C507 1.523 . S
H509 C484 0.950 . S
H510 C486 0.950 . S
H511 C487 0.949 . S
H512 C489 0.950 . S
H513 C491 0.950 . S
C514 C515 1.349 . S
C514 C516 1.327 . S
C514 H539 0.950 . S
C515 C514 1.349 . S
C515 C531 1.349 . S
C516 C514 1.327 . S
C516 C535 1.429 . S
C516 H540 0.950 . S
C517 C534 1.574 . S
C517 C536 1.368 . S
C517 H541 0.949 . S
H518 C522 0.949 . S
C519 C520 1.349 . S
C519 C521 1.327 . S
C519 H542 0.950 . S
C520 C519 1.349 . S
C520 C532 1.349 . S
C521 C519 1.327 . S
C521 C537 1.429 . S
C521 H543 0.950 . S
C522 H518 0.949 . S
C522 C530 1.574 . S
C522 C538 1.368 . S
H523 C531 0.950 . S
H524 C529 0.950 . S
H525 C530 0.949 . S
H526 C532 0.950 . S
H527 C533 0.950 . S
H528 C534 0.949 . S
C529 H524 0.950 . S
C529 C531 1.327 . S
C529 C535 1.429 . S
C530 C522 1.574 . S
C530 H525 0.949 . S
C530 C536 1.368 . S
C531 C515 1.349 . S
C531 H523 0.950 . S
C531 C529 1.327 . S
C532 C520 1.349 . S
C532 H526 0.950 . S
C532 C533 1.327 . S
C533 H527 0.950 . S
C533 C532 1.327 . S
C533 C537 1.429 . S
C534 C517 1.574 . S
C534 H528 0.949 . S
C534 C538 1.368 . S
C535 C516 1.429 . S
C535 C529 1.429 . S
C535 C536 1.523 . S
C536 C517 1.368 . S
C536 C530 1.368 . S
C536 C535 1.523 . S
C537 C521 1.429 . S
C537 C533 1.429 . S
C537 C538 1.523 . S
C538 C522 1.368 . S
C538 C534 1.368 . S
C538 C537 1.523 . S
H539 C514 0.950 . S
H540 C516 0.950 . S
H541 C517 0.949 . S
H542 C519 0.950 . S
H543 C521 0.950 . S
C544 C545 1.349 . S
C544 C546 1.327 . S
C544 H569 0.950 . S
C545 C544 1.349 . S
C545 C561 1.349 . S
C546 C544 1.327 . S
C546 C565 1.429 . S
C546 H570 0.950 . S
C547 C564 1.574 . S
C547 C566 1.368 . S
C547 H571 0.949 . S
H548 C552 0.949 . S
C549 C550 1.349 . S
C549 C551 1.327 . S
C549 H572 0.950 . S
C550 C549 1.349 . S
C550 C562 1.349 . S
C551 C549 1.327 . S
C551 C567 1.429 . S
C551 H573 0.950 . S
C552 H548 0.949 . S
C552 C560 1.574 . S
C552 C568 1.368 . S
H553 C561 0.950 . S
H554 C559 0.950 . S
H555 C560 0.949 . S
H556 C562 0.950 . S
H557 C563 0.950 . S
H558 C564 0.949 . S
C559 H554 0.950 . S
C559 C561 1.327 . S
C559 C565 1.429 . S
C560 C552 1.574 . S
C560 H555 0.949 . S
C560 C566 1.368 . S
C561 C545 1.349 . S
C561 H553 0.950 . S
C561 C559 1.327 . S
C562 C550 1.349 . S
C562 H556 0.950 . S
C562 C563 1.327 . S
C563 H557 0.950 . S
C563 C562 1.327 . S
C563 C567 1.429 . S
C564 C547 1.574 . S
C564 H558 0.949 . S
C564 C568 1.368 . S
C565 C546 1.429 . S
C565 C559 1.429 . S
C565 C566 1.523 . S
C566 C547 1.368 . S
C566 C560 1.368 . S
C566 C565 1.523 . S
C567 C551 1.429 . S
C567 C563 1.429 . S
C567 C568 1.523 . S
C568 C552 1.368 . S
C568 C564 1.368 . S
C568 C567 1.523 . S
H569 C544 0.950 . S
H570 C546 0.950 . S
H571 C547 0.949 . S
H572 C549 0.950 . S
H573 C551 0.950 . S
C574 C575 1.349 . S
C574 C576 1.327 . S
C574 H599 0.950 . S
C575 C574 1.349 . S
C575 C591 1.349 . S
C576 C574 1.327 . S
C576 C595 1.429 . S
C576 H600 0.950 . S
C577 C594 1.574 . S
C577 C596 1.368 . S
C577 H601 0.949 . S
H578 C582 0.949 . S
C579 C580 1.349 . S
C579 C581 1.327 . S
C579 H602 0.950 . S
C580 C579 1.349 . S
C580 C592 1.349 . S
C581 C579 1.327 . S
C581 C597 1.429 . S
C581 H603 0.950 . S
C582 H578 0.949 . S
C582 C590 1.574 . S
C582 C598 1.368 . S
H583 C591 0.950 . S
H584 C589 0.950 . S
H585 C590 0.949 . S
H586 C592 0.950 . S
H587 C593 0.950 . S
H588 C594 0.949 . S
C589 H584 0.950 . S
C589 C591 1.327 . S
C589 C595 1.429 . S
C590 C582 1.574 . S
C590 H585 0.949 . S
C590 C596 1.368 . S
C591 C575 1.349 . S
C591 H583 0.950 . S
C591 C589 1.327 . S
C592 C580 1.349 . S
C592 H586 0.950 . S
C592 C593 1.327 . S
C593 H587 0.950 . S
C593 C592 1.327 . S
C593 C597 1.429 . S
C594 C577 1.574 . S
C594 H588 0.949 . S
C594 C598 1.368 . S
C595 C576 1.429 . S
C595 C589 1.429 . S
C595 C596 1.523 . S
C596 C577 1.368 . S
C596 C590 1.368 . S
C596 C595 1.523 . S
C597 C581 1.429 . S
C597 C593 1.429 . S
C597 C598 1.523 . S
C598 C582 1.368 . S
C598 C594 1.368 . S
C598 C597 1.523 . S
H599 C574 0.950 . S
H600 C576 0.950 . S
H601 C577 0.949 . S
H602 C579 0.950 . S
H603 C581 0.950 . S
C250 C139 1.730 . S
C245 C68 1.687 . S
C275 C11 1.609 . S
C280 C234 1.741 . S
C305 C30 1.658 . S
C310 C150 1.754 . S
C335 C49 1.653 . S
C340 C223 1.710 . S
C370 C134 1.538 . S
C365 C2 1.703 . S
C400 C227 1.822 . S
C395 C25 1.820 . S
C425 C40 1.714 . S
C430 C143 1.732 . S
C455 C59 1.691 . S
C460 C218 1.521 . S
C490 C229 1.450 . S
C485 C21 1.614 . S
C520 C145 1.451 . S
C515 C44 1.638 . S
C550 C216 1.705 . S
C545 C63 1.705 . S
C575 C6 1.645 . S
C580 C132 1.648 . S
