# Generated by pormake.
# Topology pyr, (3,6)-cn, num edge types: 1
# Building blocks:
#     Node 0, Type 0, BuildingBlock: MIDCAF_clean_linker_0, # of connection points: 3
#     Node 1, Type 0, BuildingBlock: MIDCAF_clean_linker_0, # of connection points: 3
#     Node 2, Type 0, BuildingBlock: MIDCAF_clean_linker_0, # of connection points: 3
#     Node 3, Type 0, BuildingBlock: MIDCAF_clean_linker_0, # of connection points: 3
#     Node 4, Type 0, BuildingBlock: MIDCAF_clean_linker_0, # of connection points: 3
#     Node 5, Type 0, BuildingBlock: MIDCAF_clean_linker_0, # of connection points: 3
#     Node 6, Type 0, BuildingBlock: MIDCAF_clean_linker_0, # of connection points: 3
#     Node 7, Type 0, BuildingBlock: MIDCAF_clean_linker_0, # of connection points: 3
#     Node 8, Type 1, BuildingBlock: CIFDUS_clean_sbu_1, # of connection points: 6
#     Node 9, Type 1, BuildingBlock: CIFDUS_clean_sbu_1, # of connection points: 6
#     Node 10, Type 1, BuildingBlock: CIFDUS_clean_sbu_1, # of connection points: 6
#     Node 11, Type 1, BuildingBlock: CIFDUS_clean_sbu_1, # of connection points: 6
#     Edge 12, Type (0, 1), BuildingBlock: MIFKUJ_clean_linker_0, # of connection points: 2
#     Edge 13, Type (0, 1), BuildingBlock: MIFKUJ_clean_linker_0, # of connection points: 2
#     Edge 14, Type (0, 1), BuildingBlock: MIFKUJ_clean_linker_0, # of connection points: 2
#     Edge 15, Type (0, 1), BuildingBlock: MIFKUJ_clean_linker_0, # of connection points: 2
#     Edge 16, Type (0, 1), BuildingBlock: MIFKUJ_clean_linker_0, # of connection points: 2
#     Edge 17, Type (0, 1), BuildingBlock: MIFKUJ_clean_linker_0, # of connection points: 2
#     Edge 18, Type (0, 1), BuildingBlock: MIFKUJ_clean_linker_0, # of connection points: 2
#     Edge 19, Type (0, 1), BuildingBlock: MIFKUJ_clean_linker_0, # of connection points: 2
#     Edge 20, Type (0, 1), BuildingBlock: MIFKUJ_clean_linker_0, # of connection points: 2
#     Edge 21, Type (0, 1), BuildingBlock: MIFKUJ_clean_linker_0, # of connection points: 2
#     Edge 22, Type (0, 1), BuildingBlock: MIFKUJ_clean_linker_0, # of connection points: 2
#     Edge 23, Type (0, 1), BuildingBlock: MIFKUJ_clean_linker_0, # of connection points: 2
#     Edge 24, Type (0, 1), BuildingBlock: MIFKUJ_clean_linker_0, # of connection points: 2
#     Edge 25, Type (0, 1), BuildingBlock: MIFKUJ_clean_linker_0, # of connection points: 2
#     Edge 26, Type (0, 1), BuildingBlock: MIFKUJ_clean_linker_0, # of connection points: 2
#     Edge 27, Type (0, 1), BuildingBlock: MIFKUJ_clean_linker_0, # of connection points: 2
#     Edge 28, Type (0, 1), BuildingBlock: MIFKUJ_clean_linker_0, # of connection points: 2
#     Edge 29, Type (0, 1), BuildingBlock: MIFKUJ_clean_linker_0, # of connection points: 2
#     Edge 30, Type (0, 1), BuildingBlock: MIFKUJ_clean_linker_0, # of connection points: 2
#     Edge 31, Type (0, 1), BuildingBlock: MIFKUJ_clean_linker_0, # of connection points: 2
#     Edge 32, Type (0, 1), BuildingBlock: MIFKUJ_clean_linker_0, # of connection points: 2
#     Edge 33, Type (0, 1), BuildingBlock: MIFKUJ_clean_linker_0, # of connection points: 2
#     Edge 34, Type (0, 1), BuildingBlock: MIFKUJ_clean_linker_0, # of connection points: 2
#     Edge 35, Type (0, 1), BuildingBlock: MIFKUJ_clean_linker_0, # of connection points: 2
# Relax obj value: 0.036
# Max RMSD: 0.111
# Mean RMSD: 0.047
data_MOF--net-pry--node1-CIFDUS_clean_sbu_1--node2-MIDCAF_clean_linker_0--edge1-MIFKUJ_clean_linker_0
_symmetry_space_group_name_H-M    P1
_symmetry_Int_Tables_number       1
_symmetry_cell_setting            triclinic
loop_
_symmetry_equiv_pos_as_xyz
'x, y, z'
_cell_length_a     56.502195
_cell_length_b     54.720877
_cell_length_c     54.542087
_cell_angle_alpha  92.070248
_cell_angle_beta   91.133927
_cell_angle_gamma 93.674102
loop_
_atom_site_label
_atom_site_type_symbol
_atom_site_fract_x
_atom_site_fract_y
_atom_site_fract_z
_atom_type_partial_charge
C0 C 0.09687 0.12656 0.20826 0.0
C1 C 0.10702 0.10746 0.22055 0.0
C2 C 0.12723 0.09753 0.21043 0.0
C3 C 0.13728 0.10681 0.18904 0.0
H4 H 0.19163 0.09776 0.13984 0.0
H5 H 0.22819 0.08208 0.12401 0.0
H6 H 0.23337 0.13991 0.07253 0.0
H7 H 0.19676 0.15585 0.08815 0.0
H8 H 0.15593 0.19473 0.08636 0.0
H9 H 0.13928 0.23088 0.06965 0.0
H10 H 0.08311 0.22587 0.12208 0.0
H11 H 0.09945 0.18966 0.13856 0.0
H12 H 0.09854 0.15066 0.17824 0.0
H13 H 0.08108 0.13442 0.21515 0.0
H14 H 0.13572 0.08297 0.21942 0.0
H15 H 0.15303 0.09891 0.18211 0.0
N16 N 0.15844 0.12798 0.1453 0.0
N17 N 0.15943 0.1579 0.11539 0.0
N18 N 0.12935 0.15668 0.14447 0.0
C19 C 0.16901 0.13821 0.12551 0.0
C20 C 0.13954 0.16725 0.12472 0.0
C21 C 0.13858 0.13708 0.15493 0.0
C22 C 0.19106 0.12821 0.11539 0.0
C23 C 0.20041 0.1072 0.1251 0.0
C24 C 0.22135 0.09813 0.11605 0.0
C25 C 0.23351 0.10978 0.09707 0.0
C26 C 0.22425 0.13058 0.08715 0.0
C27 C 0.20326 0.13967 0.09615 0.0
C28 C 0.12918 0.18911 0.11393 0.0
C29 C 0.13999 0.20124 0.09432 0.0
C30 C 0.13048 0.22213 0.08478 0.0
C31 C 0.10981 0.23146 0.09449 0.0
C32 C 0.09885 0.21914 0.11388 0.0
C33 C 0.10838 0.19835 0.12347 0.0
C34 C 0.1274 0.12629 0.17709 0.0
C35 C 0.10688 0.13582 0.18691 0.0
C36 C 0.29764 0.92876 0.60419 0.0
C37 C 0.28496 0.91513 0.58533 0.0
C38 C 0.29476 0.89429 0.57495 0.0
C39 C 0.31652 0.88692 0.5836 0.0
H40 H 0.36527 0.83541 0.57174 0.0
H41 H 0.38079 0.79759 0.55582 0.0
H42 H 0.43444 0.80234 0.61365 0.0
H43 H 0.41943 0.84028 0.62928 0.0
H44 H 0.42506 0.88608 0.66414 0.0
H45 H 0.44262 0.90385 0.70229 0.0
H46 H 0.38124 0.94599 0.71277 0.0
H47 H 0.36396 0.92882 0.67424 0.0
H48 H 0.32845 0.93207 0.62775 0.0
H49 H 0.29048 0.9448 0.61268 0.0
H50 H 0.28556 0.88363 0.56015 0.0
H51 H 0.32337 0.8706 0.57534 0.0
N52 N 0.361 0.87166 0.60272 0.0
N53 N 0.39139 0.87465 0.63269 0.0
N54 N 0.36189 0.9028 0.6335 0.0
C55 C 0.38107 0.86315 0.61241 0.0
C56 C 0.38199 0.89446 0.64335 0.0
C57 C 0.35133 0.89155 0.6131 0.0
C58 C 0.39104 0.84088 0.60185 0.0
C59 C 0.38048 0.82851 0.58097 0.0
C60 C 0.38929 0.80678 0.57191 0.0
C61 C 0.40878 0.79702 0.58355 0.0
C62 C 0.41959 0.80961 0.60411 0.0
C63 C 0.41085 0.83131 0.61314 0.0
C64 C 0.39306 0.90603 0.66608 0.0
C65 C 0.41533 0.89925 0.67448 0.0
C66 C 0.42538 0.90934 0.69646 0.0
C67 C 0.41335 0.92633 0.71064 0.0
C68 C 0.39119 0.93327 0.70211 0.0
C69 C 0.38121 0.92332 0.68004 0.0
C70 C 0.32894 0.90017 0.60293 0.0
C71 C 0.31936 0.92134 0.61292 0.0
C72 C 0.61708 0.30753 0.91266 0.0
C73 C 0.59408 0.29813 0.90575 0.0
C74 C 0.58056 0.31152 0.88963 0.0
C75 C 0.59005 0.33337 0.88021 0.0
H76 H 0.57759 0.39344 0.8313 0.0
H77 H 0.56131 0.41222 0.79528 0.0
H78 H 0.63229 0.43776 0.77559 0.0
H79 H 0.64806 0.42049 0.81211 0.0
H80 H 0.68053 0.43643 0.86062 0.0
H81 H 0.71767 0.4552 0.87807 0.0
H82 H 0.71745 0.40026 0.93294 0.0
H83 H 0.68032 0.38147 0.91579 0.0
H84 H 0.64433 0.33589 0.90906 0.0
H85 H 0.62829 0.29761 0.92457 0.0
H86 H 0.56262 0.30512 0.88421 0.0
H87 H 0.57927 0.34305 0.86762 0.0
N88 N 0.61355 0.37503 0.85665 0.0
N89 N 0.64478 0.4054 0.85641 0.0
N90 N 0.64443 0.37572 0.88614 0.0
C91 C 0.62414 0.39515 0.84653 0.0
C92 C 0.65496 0.39593 0.87628 0.0
C93 C 0.62375 0.36515 0.87648 0.0
C94 C 0.61402 0.40563 0.82452 0.0
C95 C 0.58958 0.40321 0.81924 0.0
C96 C 0.58031 0.41391 0.79856 0.0
C97 C 0.59542 0.42674 0.78251 0.0
C98 C 0.61994 0.42877 0.78781 0.0
C99 C 0.62907 0.41859 0.80868 0.0
C100 C 0.6774 0.40743 0.88684 0.0
C101 C 0.68832 0.42834 0.87645 0.0
C102 C 0.7096 0.43911 0.88636 0.0
C103 C 0.72022 0.42925 0.9069 0.0
C104 C 0.70934 0.40844 0.91733 0.0
C105 C 0.68815 0.39761 0.90739 0.0
C106 C 0.61314 0.34252 0.88697 0.0
C107 C 0.62641 0.3295 0.90354 0.0
C108 C 0.80425 0.59192 0.44577 0.0
C109 C 0.79108 0.57234 0.43351 0.0
C110 C 0.80082 0.56101 0.41282 0.0
C111 C 0.82296 0.56947 0.40427 0.0
H112 H 0.86768 0.56099 0.34743 0.0
H113 H 0.88034 0.5458 0.30765 0.0
H114 H 0.93995 0.59941 0.31091 0.0
H115 H 0.92761 0.61439 0.35092 0.0
H116 H 0.93 0.65746 0.39316 0.0
H117 H 0.94534 0.69797 0.40886 0.0
H118 H 0.88783 0.69972 0.45964 0.0
H119 H 0.87247 0.65946 0.44417 0.0
H120 H 0.83564 0.61586 0.44693 0.0
H121 H 0.79717 0.60128 0.46157 0.0
H122 H 0.79125 0.54569 0.40313 0.0
H123 H 0.82972 0.56054 0.38806 0.0
N124 N 0.86761 0.58962 0.38568 0.0
N125 N 0.89824 0.62075 0.38614 0.0
N126 N 0.86929 0.62081 0.41633 0.0
C127 C 0.88756 0.59981 0.37562 0.0
C128 C 0.88922 0.63136 0.40657 0.0
C129 C 0.8584 0.59993 0.4061 0.0
C130 C 0.89646 0.58915 0.35237 0.0
C131 C 0.88363 0.56944 0.33985 0.0
C132 C 0.8908 0.56077 0.31692 0.0
C133 C 0.91101 0.57153 0.30595 0.0
C134 C 0.92438 0.59058 0.31888 0.0
C135 C 0.91718 0.5993 0.3418 0.0
C136 C 0.89984 0.65515 0.4172 0.0
C137 C 0.92071 0.66636 0.40781 0.0
C138 C 0.92959 0.68955 0.41687 0.0
C139 C 0.91768 0.70214 0.43535 0.0
C140 C 0.89722 0.69066 0.44516 0.0
C141 C 0.88848 0.66746 0.43631 0.0
C142 C 0.83581 0.58955 0.41616 0.0
C143 C 0.82631 0.6004 0.43723 0.0
C144 C 0.80093 0.93107 0.89782 0.0
C145 C 0.78948 0.92166 0.9185 0.0
C146 C 0.80002 0.9027 0.93074 0.0
C147 C 0.82107 0.89324 0.92234 0.0
H148 H 0.86196 0.83065 0.92554 0.0
H149 H 0.87673 0.79326 0.94109 0.0
H150 H 0.94204 0.80706 0.90245 0.0
H151 H 0.92671 0.84373 0.88602 0.0
H152 H 0.92103 0.87396 0.83585 0.0
H153 H 0.9368 0.88828 0.79732 0.0
H154 H 0.88873 0.94651 0.79852 0.0
H155 H 0.87308 0.93242 0.83729 0.0
H156 H 0.82998 0.92937 0.87335 0.0
H157 H 0.79336 0.94537 0.88759 0.0
H158 H 0.7921 0.89518 0.94697 0.0
H159 H 0.82846 0.87859 0.93223 0.0
N160 N 0.86353 0.87225 0.90241 0.0
N161 N 0.89367 0.87237 0.87334 0.0
N162 N 0.86508 0.90156 0.87194 0.0
C163 C 0.88328 0.86238 0.8933 0.0
C164 C 0.88473 0.89194 0.86249 0.0
C165 C 0.85434 0.89196 0.89191 0.0
C166 C 0.89297 0.84027 0.90428 0.0
C167 C 0.8795 0.82576 0.92039 0.0
C168 C 0.88813 0.80424 0.92949 0.0
C169 C 0.91069 0.79666 0.92306 0.0
C170 C 0.92438 0.81165 0.90747 0.0
C171 C 0.91562 0.83296 0.89813 0.0
C172 C 0.89554 0.90182 0.83975 0.0
C173 C 0.91386 0.88993 0.82808 0.0
C174 C 0.92285 0.89807 0.80581 0.0
C175 C 0.9139 0.91842 0.79455 0.0
C176 C 0.89617 0.93086 0.80664 0.0
C177 C 0.88707 0.92264 0.82887 0.0
C178 C 0.83232 0.90247 0.90148 0.0
C179 C 0.82199 0.92169 0.88949 0.0
C180 C 0.6252 0.09392 0.30834 0.0
C181 C 0.60424 0.1027 0.29866 0.0
C182 C 0.59348 0.12149 0.31164 0.0
C183 C 0.60354 0.13143 0.33365 0.0
H184 H 0.59017 0.17674 0.39163 0.0
H185 H 0.57265 0.21358 0.40718 0.0
H186 H 0.63807 0.23628 0.44605 0.0
H187 H 0.65582 0.19915 0.43072 0.0
H188 H 0.68881 0.14948 0.44067 0.0
H189 H 0.72565 0.13479 0.45671 0.0
H190 H 0.73147 0.08953 0.39078 0.0
H191 H 0.69441 0.10352 0.37513 0.0
H192 H 0.65154 0.09679 0.33718 0.0
H193 H 0.63412 0.07969 0.29862 0.0
H194 H 0.57716 0.12844 0.30487 0.0
H195 H 0.59476 0.14598 0.34304 0.0
N196 N 0.62553 0.15287 0.37778 0.0
N197 N 0.65593 0.15573 0.40782 0.0
N198 N 0.65595 0.1259 0.37575 0.0
C199 C 0.6355 0.16386 0.39848 0.0
C200 C 0.66621 0.13661 0.39657 0.0
C201 C 0.63558 0.13395 0.36626 0.0
C202 C 0.62446 0.18509 0.40985 0.0
C203 C 0.60083 0.18941 0.40369 0.0
C204 C 0.59071 0.21039 0.41265 0.0
C205 C 0.60409 0.2276 0.42768 0.0
C206 C 0.62752 0.22319 0.43435 0.0
C207 C 0.63758 0.20194 0.42568 0.0
C208 C 0.68858 0.12772 0.40657 0.0
C209 C 0.69792 0.13634 0.42961 0.0
C210 C 0.71913 0.128 0.43877 0.0
C211 C 0.73161 0.11095 0.42506 0.0
C212 C 0.72219 0.10232 0.40207 0.0
C213 C 0.70094 0.11051 0.393 0.0
C214 C 0.62463 0.12281 0.34325 0.0
C215 C 0.63527 0.10384 0.3304 0.0
C216 C 0.29276 0.60548 0.13004 0.0
C217 C 0.28444 0.61228 0.10697 0.0
C218 C 0.29927 0.62744 0.09274 0.0
C219 C 0.32159 0.63627 0.10168 0.0
H220 H 0.37271 0.6919 0.09172 0.0
H221 H 0.3879 0.73092 0.07658 0.0
H222 H 0.43245 0.74321 0.1418 0.0
H223 H 0.41793 0.70375 0.15653 0.0
H224 H 0.41664 0.66435 0.197 0.0
H225 H 0.4309 0.64934 0.23583 0.0
H226 H 0.38592 0.58296 0.22415 0.0
H227 H 0.37165 0.59774 0.18534 0.0
H228 H 0.32087 0.60898 0.15697 0.0
H229 H 0.28169 0.59402 0.14156 0.0
H230 H 0.29361 0.63255 0.07465 0.0
H231 H 0.33242 0.64818 0.09036 0.0
N232 N 0.36321 0.66087 0.12522 0.0
N233 N 0.39316 0.66239 0.15568 0.0
N234 N 0.36256 0.63135 0.15526 0.0
C235 C 0.38348 0.67184 0.1354 0.0
C236 C 0.38288 0.64202 0.16557 0.0
C237 C 0.35263 0.64065 0.13508 0.0
C238 C 0.39397 0.69475 0.12542 0.0
C239 C 0.3859 0.70281 0.10276 0.0
C240 C 0.39451 0.72529 0.09413 0.0
C241 C 0.41123 0.74037 0.10807 0.0
C242 C 0.41979 0.73197 0.13043 0.0
C243 C 0.41134 0.70936 0.13895 0.0
C244 C 0.39289 0.63231 0.18815 0.0
C245 C 0.40996 0.64645 0.20256 0.0
C246 C 0.41804 0.63795 0.22483 0.0
C247 C 0.40942 0.61508 0.23293 0.0
C248 C 0.39297 0.6006 0.21819 0.0
C249 C 0.3847 0.60916 0.19606 0.0
C250 C 0.3297 0.62992 0.12495 0.0
C251 C 0.31521 0.61413 0.13889 0.0
C252 C 0.09989 0.31861 0.57459 0.0
C253 C 0.07795 0.30849 0.58252 0.0
C254 C 0.06501 0.32255 0.59904 0.0
C255 C 0.07407 0.34571 0.60789 0.0
H256 H 0.06799 0.39653 0.66642 0.0
H257 H 0.05607 0.41124 0.70687 0.0
H258 H 0.11667 0.46351 0.71066 0.0
H259 H 0.1287 0.449 0.67039 0.0
H260 H 0.16985 0.44424 0.63384 0.0
H261 H 0.20852 0.45866 0.61891 0.0
H262 H 0.19496 0.4159 0.55149 0.0
H263 H 0.15629 0.40128 0.56634 0.0
H264 H 0.12597 0.34869 0.57697 0.0
H265 H 0.11062 0.30832 0.56223 0.0
H266 H 0.04784 0.31567 0.60523 0.0
H267 H 0.06375 0.35581 0.62084 0.0
N268 N 0.09764 0.38994 0.63119 0.0
N269 N 0.12823 0.42106 0.63178 0.0
N270 N 0.12661 0.39004 0.60095 0.0
C271 C 0.10829 0.41083 0.6418 0.0
C272 C 0.13743 0.41091 0.61128 0.0
C273 C 0.10671 0.37941 0.61073 0.0
C274 C 0.09951 0.42131 0.66518 0.0
C275 C 0.07868 0.41132 0.67573 0.0
C276 C 0.07176 0.41982 0.69886 0.0
C277 C 0.08561 0.43832 0.712 0.0
C278 C 0.10587 0.44896 0.70109 0.0
C279 C 0.11268 0.44065 0.67793 0.0
C280 C 0.16 0.4214 0.60138 0.0
C281 C 0.17495 0.43807 0.61572 0.0
C282 C 0.19716 0.44626 0.60725 0.0
C283 C 0.20478 0.43828 0.58411 0.0
C284 C 0.18949 0.42244 0.56935 0.0
C285 C 0.1674 0.41396 0.57794 0.0
C286 C 0.0962 0.35556 0.60026 0.0
C287 C 0.10881 0.34184 0.58322 0.0
O288 O 0.97299 0.02197 0.49594 0.0
Mn289 Mn 0.00559 0.00646 0.50377 0.0
O290 O 0.96041 0.00312 0.46046 0.0
Mn291 Mn 0.98531 0.98334 0.45782 0.0
O292 O 0.03892 0.99074 0.51101 0.0
O293 O 0.01793 0.03961 0.52077 0.0
Mn294 Mn 0.03237 0.02764 0.54693 0.0
O295 O 0.98999 0.99271 0.53593 0.0
O296 O 0.06021 0.01841 0.53508 0.0
O297 O 0.02122 0.02118 0.47127 0.0
O298 O 0.01071 0.99463 0.44066 0.0
O299 O 0.02511 0.05736 0.55752 0.0
O300 O 0.01633 0.00465 0.56529 0.0
C301 C 0.9853 0.95171 0.47669 0.0
C302 C 0.95754 0.01815 0.47827 0.0
C303 C 0.05893 0.99952 0.52085 0.0
C304 C 0.01421 0.05772 0.53642 0.0
C305 C 0.99739 0.99283 0.55831 0.0
C306 C 0.02305 0.01322 0.44885 0.0
O307 O 0.99316 0.97289 0.48719 0.0
O308 O 0.97791 0.95138 0.45401 0.0
O309 O 0.49796 0.00838 0.9675 0.0
Mn310 Mn 0.50957 0.01577 0.00392 0.0
O311 O 0.51297 0.97271 0.95893 0.0
Mn312 Mn 0.51733 0.96376 0.99071 0.0
O313 O 0.52141 0.02492 0.04079 0.0
O314 O 0.51748 0.05136 0.99477 0.0
Mn315 Mn 0.50482 0.06829 0.01919 0.0
O316 O 0.47351 0.02139 0.01285 0.0
O317 O 0.52767 0.06598 0.04271 0.0
O318 O 0.54611 0.00804 0.99513 0.0
O319 O 0.54802 0.96784 1.00096 0.0
O320 O 0.50249 0.08684 0.99265 0.0
O321 O 0.47529 0.05885 0.02997 0.0
C322 C 0.48728 0.96182 0.01307 0.0
C323 C 0.50259 0.99116 0.95221 0.0
C324 C 0.52945 0.04516 0.05205 0.0
C325 C 0.51184 0.06907 0.98088 0.0
C326 C 0.46383 0.03883 0.02458 0.0
C327 C 0.55832 0.98868 0.99735 0.0
O328 O 0.50298 0.98038 0.01408 0.0
O329 O 0.49306 0.94326 0.9996 0.0
O330 O 0.53212 0.52313 0.50235 0.0
Mn331 Mn 0.49715 0.5088 0.50665 0.0
O332 O 0.54362 0.49986 0.47119 0.0
Mn333 Mn 0.51374 0.49117 0.45834 0.0
O334 O 0.4617 0.49513 0.51198 0.0
O335 O 0.50414 0.5101 0.54301 0.0
Mn336 Mn 0.48088 0.52325 0.55856 0.0
O337 O 0.48642 0.54482 0.5082 0.0
O338 O 0.45434 0.50261 0.55195 0.0
O339 O 0.50811 0.47214 0.50461 0.0
O340 O 0.50315 0.46017 0.46512 0.0
O341 O 0.50194 0.5163 0.5827 0.0
O342 O 0.47958 0.55444 0.54787 0.0
C343 C 0.49184 0.52018 0.45032 0.0
C344 C 0.54822 0.51582 0.4882 0.0
C345 C 0.44827 0.49338 0.53082 0.0
C346 C 0.51356 0.50759 0.56448 0.0
C347 C 0.4812 0.55995 0.52554 0.0
C348 C 0.50665 0.45515 0.48739 0.0
O349 O 0.48971 0.50746 0.4699 0.0
O350 O 0.50675 0.51204 0.4348 0.0
O351 O 0.96685 0.49641 0.00622 0.0
Mn352 Mn 1.00174 0.50993 0.00954 0.0
O353 O 0.95734 0.52238 0.97876 0.0
Mn354 Mn 0.98819 0.52515 0.96799 0.0
O355 O 0.03785 0.52321 0.01352 0.0
O356 O 0.99607 0.51688 0.04664 0.0
Mn357 Mn 0.02313 0.50448 0.05695 0.0
O358 O 0.01007 0.47278 0.01345 0.0
O359 O 0.04393 0.53063 0.05381 0.0
O360 O 0.99266 0.54828 0.00652 0.0
O361 O 0.0034 0.55516 0.96948 0.0
O362 O 0.00219 0.49646 0.07998 0.0
O363 O 0.03521 0.47628 0.04484 0.0
C364 C 0.00207 0.49914 0.94774 0.0
C365 C 0.95127 0.5058 0.9932 0.0
C366 C 0.0503 0.53313 0.03182 0.0
C367 C 0.98769 0.50846 0.06718 0.0
C368 C 0.02563 0.46372 0.02725 0.0
C369 C 0.9981 0.56384 0.98989 0.0
O370 O 0.00815 0.50113 0.97152 0.0
O371 O 0.98677 0.51293 0.93832 0.0
H372 H 0.10229 0.06014 0.23655 0.0
H373 H 0.08752 0.04625 0.27591 0.0
H374 H 0.07378 0.12054 0.29734 0.0
H375 H 0.08918 0.13464 0.25843 0.0
H376 H 0.09518 0.10032 0.33374 0.0
H377 H 0.02875 0.07663 0.28123 0.0
H378 H 0.00642 0.05672 0.24586 0.0
H379 H 0.02511 0.98615 0.26893 0.0
H380 H 0.04792 0.00565 0.30423 0.0
H381 H 0.02829 0.06298 0.44088 0.0
H382 H 0.04234 0.0815 0.40278 0.0
H383 H 0.06212 0.01082 0.37571 0.0
H384 H 0.04839 0.99254 0.41335 0.0
H385 H 0.03488 0.03147 0.34224 0.0
H386 H 0.10347 0.05616 0.39323 0.0
H387 H 0.12491 0.07652 0.42893 0.0
H388 H 0.10064 0.14588 0.40847 0.0
H389 H 0.07871 0.12584 0.37285 0.0
C390 C 0.09621 0.07357 0.24964 0.0
C391 C 0.09701 0.09857 0.24416 0.0
C392 C 0.08749 0.06554 0.27211 0.0
C393 C 0.07928 0.08227 0.28969 0.0
C394 C 0.07992 0.10719 0.28418 0.0
C395 C 0.08859 0.11522 0.26174 0.0
C396 C 0.07105 0.07405 0.3142 0.0
C397 C 0.08169 0.08551 0.33553 0.0
C398 C 0.05369 0.05446 0.31675 0.0
C399 C 0.04031 0.04267 0.29526 0.0
C400 C 0.02835 0.05689 0.27862 0.0
C401 C 0.01555 0.04567 0.25861 0.0
C402 C 0.01441 0.0202 0.25511 0.0
C403 C 0.02605 0.00589 0.27163 0.0
C404 C 0.03892 0.01702 0.29166 0.0
C405 C 0.0365 0.05167 0.42719 0.0
C406 C 0.03745 0.02634 0.43027 0.0
C407 C 0.04426 0.06217 0.40525 0.0
C408 C 0.05308 0.0475 0.38612 0.0
C409 C 0.05519 0.02253 0.38993 0.0
C410 C 0.04759 0.01215 0.41167 0.0
C411 C 0.0593 0.05751 0.36168 0.0
C412 C 0.04825 0.04638 0.34037 0.0
C413 C 0.07617 0.07744 0.35911 0.0
C414 C 0.08921 0.08946 0.38057 0.0
C415 C 0.1025 0.07571 0.39649 0.0
C416 C 0.11478 0.0872 0.41668 0.0
C417 C 0.11407 0.11246 0.42102 0.0
C418 C 0.10112 0.1263 0.40513 0.0
C419 C 0.08876 0.11489 0.38494 0.0
H420 H 0.12362 0.12133 0.43664 0.0
H421 H 0.00445 0.01154 0.23963 0.0
H422 H 0.43724 0.90205 0.74549 0.0
H423 H 0.45237 0.91803 0.78548 0.0
H424 H 0.4266 0.98866 0.77062 0.0
H425 H 0.41256 0.97319 0.72996 0.0
H426 H 0.46929 0.99371 0.7933 0.0
H427 H 0.39533 0.94655 0.80565 0.0
H428 H 0.36805 0.9095 0.80192 0.0
H429 H 0.41802 0.8691 0.84156 0.0
H430 H 0.44577 0.90577 0.84515 0.0
H431 H 0.47507 0.02364 0.92814 0.0
H432 H 0.45891 0.01839 0.88569 0.0
H433 H 0.49529 0.95199 0.87591 0.0
H434 H 0.51183 0.95718 0.91699 0.0
H435 H 0.44285 0.94931 0.86664 0.0
H436 H 0.51817 0.99101 0.84944 0.0
H437 H 0.54862 0.02533 0.8525 0.0
H438 H 0.49943 0.07303 0.82162 0.0
H439 H 0.46844 0.03905 0.81894 0.0
C440 C 0.43515 0.92111 0.75049 0.0
C441 C 0.42349 0.93629 0.73456 0.0
C442 C 0.44358 0.93015 0.7735 0.0
C443 C 0.44013 0.95439 0.78124 0.0
C444 C 0.42924 0.96983 0.7651 0.0
C445 C 0.421 0.96087 0.74197 0.0
C446 C 0.44733 0.96343 0.8064 0.0
C447 C 0.46312 0.9843 0.80937 0.0
C448 C 0.43961 0.95087 0.82735 0.0
C449 C 0.42269 0.92891 0.82556 0.0
C450 C 0.40055 0.92974 0.81347 0.0
C451 C 0.385 0.90879 0.81138 0.0
C452 C 0.39131 0.88696 0.82148 0.0
C453 C 0.41315 0.88602 0.83374 0.0
C454 C 0.42879 0.90689 0.83583 0.0
C455 C 0.47988 0.00819 0.91674 0.0
C456 C 0.49454 0.99074 0.92615 0.0
C457 C 0.47062 0.00519 0.89262 0.0
C458 C 0.47581 0.98465 0.87795 0.0
C459 C 0.49097 0.96782 0.88706 0.0
C460 C 0.50042 0.97094 0.91068 0.0
C461 C 0.46485 0.97937 0.85341 0.0
C462 C 0.44844 0.95909 0.85057 0.0
C463 C 0.47234 0.99214 0.83263 0.0
C464 C 0.49083 0.01263 0.83449 0.0
C465 C 0.51369 0.00891 0.84372 0.0
C466 C 0.53109 0.02828 0.84529 0.0
C467 C 0.52593 0.05139 0.83739 0.0
C468 C 0.50336 0.05515 0.82785 0.0
C469 C 0.48587 0.03585 0.82634 0.0
H470 H 0.53944 0.06635 0.83856 0.0
H471 H 0.37925 0.87077 0.81983 0.0
H472 H 0.61157 0.46847 0.75987 0.0
H473 H 0.6009 0.48082 0.71903 0.0
H474 H 0.54578 0.42235 0.71341 0.0
H475 H 0.55814 0.40811 0.75304 0.0
H476 H 0.56903 0.42081 0.67512 0.0
H477 H 0.53582 0.48655 0.71963 0.0
H478 H 0.53588 0.52074 0.75034 0.0
H479 H 0.59075 0.56018 0.71174 0.0
H480 H 0.5913 0.52605 0.68098 0.0
H481 H 0.50922 0.45965 0.56999 0.0
H482 H 0.52639 0.44411 0.60653 0.0
H483 H 0.57928 0.5049 0.6098 0.0
H484 H 0.55953 0.52218 0.57479 0.0
H485 H 0.55862 0.50546 0.64952 0.0
H486 H 0.58907 0.43528 0.60394 0.0
H487 H 0.58412 0.39985 0.57458 0.0
H488 H 0.52749 0.36832 0.6167 0.0
H489 H 0.53209 0.40338 0.64647 0.0
C490 C 0.59729 0.45804 0.74991 0.0
C491 C 0.58608 0.43692 0.75965 0.0
C492 C 0.59087 0.46549 0.72669 0.0
C493 C 0.57245 0.4526 0.71312 0.0
C494 C 0.56017 0.43251 0.72347 0.0
C495 C 0.56707 0.42457 0.74637 0.0
C496 C 0.56739 0.45854 0.68734 0.0
C497 C 0.5665 0.43932 0.66957 0.0
C498 C 0.56454 0.48272 0.68001 0.0
C499 C 0.56374 0.50362 0.69809 0.0
C500 C 0.54798 0.50246 0.71773 0.0
C501 C 0.54791 0.52183 0.73516 0.0
C502 C 0.56335 0.54259 0.73302 0.0
C503 C 0.57882 0.54407 0.71338 0.0
C504 C 0.579 0.52473 0.69592 0.0
C505 C 0.52549 0.46883 0.5775 0.0
C506 C 0.53288 0.4922 0.56991 0.0
C507 C 0.53536 0.45995 0.59873 0.0
C508 C 0.55426 0.47328 0.61132 0.0
C509 C 0.5645 0.49441 0.60074 0.0
C510 C 0.55369 0.50396 0.58023 0.0
C511 C 0.56049 0.46767 0.63708 0.0
C512 C 0.56148 0.48699 0.65496 0.0
C513 C 0.56282 0.44347 0.64469 0.0
C514 C 0.56093 0.42194 0.62737 0.0
C515 C 0.57561 0.42076 0.60695 0.0
C516 C 0.57283 0.40079 0.59021 0.0
C517 C 0.55546 0.38197 0.59364 0.0
C518 C 0.54095 0.38291 0.61403 0.0
C519 C 0.54371 0.40273 0.63092 0.0
H520 H 0.5533 0.36663 0.58052 0.0
H521 H 0.56331 0.55754 0.74656 0.0
H522 H 0.88116 0.56095 0.26633 0.0
H523 H 0.89174 0.55161 0.224 0.0
H524 H 0.96581 0.55592 0.24555 0.0
H525 H 0.95534 0.56521 0.28803 0.0
H526 H 0.95836 0.58265 0.20685 0.0
H527 H 0.9351 0.5004 0.22928 0.0
H528 H 0.90788 0.46816 0.24554 0.0
H529 H 0.85592 0.481 0.18974 0.0
H530 H 0.88274 0.51351 0.17331 0.0
H531 H 0.00783 0.5432 0.0969 0.0
H532 H 0.99396 0.55336 0.13673 0.0
H533 H 0.92344 0.52378 0.11514 0.0
H534 H 0.93964 0.50768 0.0768 0.0
H535 H 0.92694 0.51131 0.15491 0.0
H536 H 0.95125 0.59552 0.13251 0.0
H537 H 0.97969 0.62751 0.11758 0.0
H538 H 0.02978 0.61228 0.17438 0.0
H539 H 1.00177 0.58018 0.18951 0.0
C540 C 0.89968 0.55942 0.26219 0.0
C541 C 0.91741 0.56387 0.2806 0.0
C542 C 0.9057 0.55408 0.23793 0.0
C543 C 0.92956 0.5529 0.23158 0.0
C544 C 0.94727 0.55679 0.25 0.0
C545 C 0.94127 0.56219 0.27426 0.0
C546 C 0.93618 0.54927 0.20551 0.0
C547 C 0.95161 0.56701 0.1954 0.0
C548 C 0.92685 0.52924 0.19047 0.0
C549 C 0.91084 0.50952 0.2002 0.0
C550 C 0.91781 0.49645 0.22058 0.0
C551 C 0.90246 0.47811 0.2298 0.0
C552 C 0.88016 0.47257 0.21872 0.0
C553 C 0.87319 0.48532 0.19832 0.0
C554 C 0.88847 0.50368 0.18903 0.0
C555 C 0.98909 0.5396 0.10027 0.0
C556 C 0.97481 0.52471 0.08361 0.0
C557 C 0.98089 0.54592 0.12334 0.0
C558 C 0.95713 0.54053 0.1295 0.0
C559 C 0.94194 0.5282 0.11142 0.0
C560 C 0.95091 0.51958 0.08903 0.0
C561 C 0.94906 0.54514 0.15536 0.0
C562 C 0.9334 0.52742 0.16575 0.0
C563 C 0.95807 0.56544 0.17071 0.0
C564 C 0.97441 0.58545 0.16207 0.0
C565 C 0.9683 0.59908 0.14182 0.0
C566 C 0.98437 0.61719 0.13332 0.0
C567 C 0.00652 0.62191 0.14501 0.0
C568 C 0.01262 0.60865 0.16535 0.0
C569 C 0.99662 0.59056 0.17395 0.0
H570 H 0.01896 0.63585 0.13832 0.0
H571 H 0.8683 0.45838 0.2259 0.0
H572 H 0.27818 0.12263 0.11448 0.0
H573 H 0.31566 0.10731 0.10042 0.0
H574 H 0.27733 0.061 0.04536 0.0
H575 H 0.23975 0.07609 0.05988 0.0
H576 H 0.31108 0.03623 0.06588 0.0
H577 H 0.30979 0.11518 0.03064 0.0
H578 H 0.30591 0.15982 0.03087 0.0
H579 H 0.3652 0.17108 0.08138 0.0
H580 H 0.36926 0.12646 0.08167 0.0
H581 H 0.42277 0.01783 1.00061 0.0
H582 H 0.38154 0.02622 0.01106 0.0
H583 H 0.40732 0.06725 0.07615 0.0
H584 H 0.44772 0.05847 0.06641 0.0
H585 H 0.37856 0.09405 0.04603 0.0
H586 H 0.37857 0.01635 0.08367 0.0
H587 H 0.38264 0.97186 0.0853 0.0
H588 H 0.32616 0.95858 0.03168 0.0
H589 H 0.32204 0.00308 0.02943 0.0
C590 C 0.27784 0.10922 0.09935 0.0
C591 C 0.25616 0.10063 0.08816 0.0
C592 C 0.29927 0.10052 0.0912 0.0
C593 C 0.29956 0.08318 0.07149 0.0
C594 C 0.27774 0.07439 0.06051 0.0
C595 C 0.25628 0.08307 0.06872 0.0
C596 C 0.32257 0.07425 0.06251 0.0
C597 C 0.32565 0.04891 0.06107 0.0
C598 C 0.34194 0.09062 0.05662 0.0
C599 C 0.33972 0.11747 0.0563 0.0
C600 C 0.32192 0.12717 0.0419 0.0
C601 C 0.3197 0.15247 0.04192 0.0
C602 C 0.33527 0.16827 0.05616 0.0
C603 C 0.35314 0.15881 0.07036 0.0
C604 C 0.35544 0.13352 0.07041 0.0
C605 C 0.41949 0.02787 0.01755 0.0
C606 C 0.43864 0.0375 0.03261 0.0
C607 C 0.39595 0.03292 0.02339 0.0
C608 C 0.3913 0.04778 0.04424 0.0
C609 C 0.41033 0.05606 0.05985 0.0
C610 C 0.4335 0.05083 0.05426 0.0
C611 C 0.36708 0.05609 0.04958 0.0
C612 C 0.36384 0.08137 0.05042 0.0
C613 C 0.34766 0.0397 0.055 0.0
C614 C 0.35026 0.01302 0.05607 0.0
C615 C 0.36723 0.00395 0.07198 0.0
C616 C 0.3695 0.97874 0.07308 0.0
C617 C 0.35474 0.9624 0.05852 0.0
C618 C 0.33764 0.97126 0.04288 0.0
C619 C 0.33533 0.99647 0.04168 0.0
H620 H 0.3565 0.94288 0.05943 0.0
H621 H 0.33351 0.18785 0.05617 0.0
H622 H 0.27124 0.96108 0.57619 0.0
H623 H 0.23187 0.97262 0.56348 0.0
H624 H 0.20568 0.89678 0.56343 0.0
H625 H 0.24508 0.88512 0.57584 0.0
H626 H 0.18907 0.91732 0.52454 0.0
H627 H 0.19435 0.93814 0.61027 0.0
H628 H 0.2128 0.95745 0.64809 0.0
H629 H 0.20704 0.02865 0.61878 0.0
H630 H 0.18895 0.00975 0.58055 0.0
H631 H 0.0653 0.95014 0.52367 0.0
H632 H 0.10336 0.93237 0.53304 0.0
H633 H 0.1401 0.00316 0.52555 0.0
H634 H 0.10263 0.02068 0.51594 0.0
H635 H 0.14944 0.98241 0.57056 0.0
H636 H 0.14646 0.96077 0.48405 0.0
H637 H 0.12906 0.94101 0.44595 0.0
H638 H 0.1305 0.8705 0.47786 0.0
H639 H 0.14746 0.88992 0.51637 0.0
C640 C 0.25706 0.94689 0.57356 0.0
C641 C 0.26125 0.9222 0.57705 0.0
C642 C 0.23456 0.9535 0.56632 0.0
C643 C 0.2157 0.9356 0.56283 0.0
C644 C 0.21994 0.91091 0.56599 0.0
C645 C 0.24248 0.90427 0.57303 0.0
C646 C 0.19156 0.9426 0.55585 0.0
C647 C 0.18023 0.93126 0.53487 0.0
C648 C 0.18012 0.96098 0.56917 0.0
C649 C 0.19043 0.97249 0.59243 0.0
C650 C 0.19712 0.95791 0.61182 0.0
C651 C 0.20753 0.96879 0.63333 0.0
C652 C 0.21113 0.99426 0.63582 0.0
C653 C 0.20425 0.00891 0.61682 0.0
C654 C 0.1939 0.99813 0.59522 0.0
C655 C 0.08164 0.96157 0.52306 0.0
C656 C 0.08108 0.98673 0.51895 0.0
C657 C 0.10329 0.95153 0.52874 0.0
C658 C 0.12448 0.9666 0.53039 0.0
C659 C 0.12397 0.9913 0.5247 0.0
C660 C 0.10257 0.0012 0.51892 0.0
C661 C 0.14717 0.95732 0.53909 0.0
C662 C 0.1582 0.96826 0.56045 0.0
C663 C 0.15826 0.93847 0.52625 0.0
C664 C 0.14791 0.92682 0.5032 0.0
C665 C 0.14279 0.94108 0.48306 0.0
C666 C 0.13305 0.92994 0.46137 0.0
C667 C 0.1286 0.90452 0.45951 0.0
C668 C 0.13389 0.89019 0.47934 0.0
C669 C 0.14355 0.90126 0.50111 0.0
H670 H 0.12112 0.89592 0.44268 0.0
H671 H 0.21921 0.00264 0.65248 0.0
H672 H 0.73188 0.4401 0.95484 0.0
H673 H 0.77116 0.453 0.97214 0.0
H674 H 0.79929 0.45524 0.89921 0.0
H675 H 0.76002 0.44215 0.88179 0.0
H676 H 0.82403 0.42695 0.93033 0.0
H677 H 0.79591 0.50667 0.92948 0.0
H678 H 0.76891 0.53961 0.9371 0.0
H679 H 0.77699 0.53178 0.01482 0.0
H680 H 0.80374 0.49847 0.00764 0.0
H681 H 0.93399 0.49004 0.94946 0.0
H682 H 0.89421 0.47325 0.93892 0.0
H683 H 0.87633 0.47548 0.01558 0.0
H684 H 0.91685 0.49288 0.02628 0.0
H685 H 0.84561 0.49884 0.98618 0.0
H686 H 0.87874 0.41991 0.98365 0.0
H687 H 0.90816 0.39039 0.97206 0.0
H688 H 0.89307 0.40062 0.89577 0.0
H689 H 0.86379 0.43039 0.90689 0.0
C690 C 0.74642 0.44361 0.94253 0.0
C691 C 0.74308 0.43996 0.91705 0.0
C692 C 0.76873 0.45111 0.95239 0.0
C693 C 0.78798 0.45498 0.9369 0.0
C694 C 0.78454 0.45227 0.91139 0.0
C695 C 0.76216 0.44495 0.90149 0.0
C696 C 0.81203 0.45983 0.94751 0.0
C697 C 0.82886 0.44276 0.9424 0.0
C698 C 0.81798 0.48016 0.96363 0.0
C699 C 0.80152 0.49981 0.96802 0.0
C700 C 0.79167 0.51173 0.94819 0.0
C701 C 0.77647 0.53053 0.95242 0.0
C702 C 0.77115 0.53771 0.97643 0.0
C703 C 0.78106 0.52614 0.99624 0.0
C704 C 0.79623 0.5073 0.9921 0.0
C705 C 0.92165 0.48668 0.96412 0.0
C706 C 0.92808 0.49302 0.98859 0.0
C707 C 0.89905 0.4768 0.95811 0.0
C708 C 0.88246 0.47285 0.97649 0.0
C709 C 0.88908 0.47826 1.0012 0.0
C710 C 0.91203 0.48812 0.00731 0.0
C711 C 0.85768 0.46594 0.96906 0.0
C712 C 0.84064 0.48271 0.9746 0.0
C713 C 0.85171 0.44561 0.95285 0.0
C714 C 0.8691 0.42742 0.94614 0.0
C715 C 0.88177 0.41594 0.96441 0.0
C716 C 0.89842 0.39914 0.95792 0.0
C717 C 0.90249 0.39364 0.9332 0.0
C718 C 0.88988 0.40487 0.91491 0.0
C719 C 0.87322 0.42165 0.92131 0.0
H720 H 0.91541 0.38066 0.92821 0.0
H721 H 0.75941 0.5523 0.97968 0.0
H722 H 0.75134 0.56051 0.4049 0.0
H723 H 0.71077 0.55186 0.41841 0.0
H724 H 0.73502 0.55924 0.49394 0.0
H725 H 0.7758 0.5672 0.48057 0.0
H726 H 0.70075 0.52126 0.48641 0.0
H727 H 0.71144 0.60677 0.46709 0.0
H728 H 0.72194 0.6413 0.44068 0.0
H729 H 0.6691 0.61368 0.38728 0.0
H730 H 0.65853 0.57879 0.41321 0.0
H731 H 0.58065 0.52519 0.52684 0.0
H732 H 0.62313 0.53782 0.5228 0.0
H733 H 0.61204 0.54396 0.44473 0.0
H734 H 0.57024 0.53272 0.44895 0.0
H735 H 0.64147 0.57797 0.45871 0.0
H736 H 0.63196 0.49127 0.47516 0.0
H737 H 0.61923 0.45732 0.50135 0.0
H738 H 0.66925 0.4848 0.55763 0.0
H739 H 0.68168 0.51942 0.53208 0.0
C740 C 0.74815 0.55981 0.42438 0.0
C741 C 0.76681 0.56476 0.44166 0.0
C742 C 0.7249 0.55507 0.43208 0.0
C743 C 0.71982 0.55532 0.4572 0.0
C744 C 0.73852 0.55911 0.47448 0.0
C745 C 0.76178 0.56386 0.4668 0.0
C746 C 0.69488 0.55294 0.46537 0.0
C747 C 0.6878 0.53379 0.48059 0.0
C748 C 0.67795 0.56914 0.4576 0.0
C749 C 0.68432 0.5901 0.44202 0.0
C750 C 0.70219 0.60798 0.44964 0.0
C751 C 0.70813 0.62762 0.43476 0.0
C752 C 0.69622 0.62966 0.4123 0.0
C753 C 0.67832 0.61207 0.40467 0.0
C754 C 0.67234 0.59237 0.41946 0.0
C755 C 0.58732 0.53005 0.50907 0.0
C756 C 0.57229 0.52795 0.48819 0.0
C757 C 0.6116 0.53691 0.50666 0.0
C758 C 0.62099 0.54138 0.48332 0.0
C759 C 0.60546 0.54061 0.46291 0.0
C760 C 0.58149 0.5341 0.46534 0.0
C761 C 0.64692 0.54578 0.47919 0.0
C762 C 0.65434 0.56544 0.46473 0.0
C763 C 0.66398 0.52973 0.48726 0.0
C764 C 0.65742 0.50817 0.50193 0.0
C765 C 0.64016 0.49013 0.49317 0.0
C766 C 0.63296 0.47079 0.50793 0.0
C767 C 0.6433 0.46902 0.53124 0.0
C768 C 0.66112 0.48633 0.53966 0.0
C769 C 0.66819 0.50585 0.52509 0.0
H770 H 0.6375 0.45426 0.54284 0.0
H771 H 0.70083 0.6449 0.40083 0.0
H772 H 0.06301 0.24113 0.08652 0.0
H773 H 0.04717 0.27888 0.07225 0.0
H774 H 0.11833 0.31114 0.06613 0.0
H775 H 0.13427 0.27368 0.08081 0.0
H776 H 0.09057 0.3424 0.08902 0.0
H777 H 0.0844 0.29145 0.01531 0.0
H778 H 0.07173 0.25524 0.98894 0.0
H779 H 0.99871 0.26827 1.00128 0.0
H780 H 0.01095 0.30438 0.02803 0.0
H781 H 0.07 0.4486 0.02686 0.0
H782 H 0.08254 0.40805 0.03607 0.0
H783 H 0.00941 0.38005 0.03538 0.0
H784 H 0.9968 0.42095 0.02558 0.0
H785 H 0.03587 0.34589 0.01717 0.0
H786 H 0.04131 0.39692 0.09003 0.0
H787 H 0.0532 0.43245 0.11765 0.0
H788 H 0.12656 0.41873 0.10865 0.0
H789 H 0.11514 0.38333 0.08069 0.0
C790 C 0.07533 0.25625 0.08219 0.0
C791 C 0.09999 0.2542 0.08484 0.0
C792 C 0.06621 0.27781 0.07379 0.0
C793 C 0.0815 0.29793 0.06784 0.0
C794 C 0.1061 0.29593 0.07048 0.0
C795 C 0.11523 0.27435 0.07872 0.0
C796 C 0.07199 0.32138 0.05975 0.0
C797 C 0.07888 0.34319 0.07308 0.0
C798 C 0.05597 0.32244 0.03952 0.0
C799 C 0.0486 0.30043 0.02392 0.0
C800 C 0.06564 0.28642 0.01264 0.0
C801 C 0.05854 0.26596 0.99757 0.0
C802 C 0.03443 0.25941 0.9935 0.0
C803 C 0.01737 0.27333 0.0045 0.0
C804 C 0.02438 0.29379 0.01961 0.0
C805 C 0.0566 0.4336 0.0278 0.0
C806 C 0.03241 0.43794 0.02506 0.0
C807 C 0.06378 0.41045 0.03354 0.0
C808 C 0.04697 0.39096 0.03721 0.0
C809 C 0.02279 0.39476 0.03287 0.0
C810 C 0.01556 0.41808 0.02691 0.0
C811 C 0.05479 0.36705 0.04618 0.0
C812 C 0.04753 0.34515 0.03312 0.0
C813 C 0.07038 0.36585 0.06682 0.0
C814 C 0.07735 0.38764 0.083 0.0
C815 C 0.05999 0.40166 0.09369 0.0
C816 C 0.06665 0.42173 0.10947 0.0
C817 C 0.09062 0.42789 0.11484 0.0
C818 C 0.10799 0.41398 0.10443 0.0
C819 C 0.10144 0.39391 0.08861 0.0
H820 H 0.09573 0.44339 0.12712 0.0
H821 H 0.02897 0.2436 0.98178 0.0
H822 H 0.56549 0.26294 0.88049 0.0
H823 H 0.55284 0.22211 0.89351 0.0
H824 H 0.59023 0.23647 0.96266 0.0
H825 H 0.60185 0.27804 0.95055 0.0
H826 H 0.60127 0.19194 0.93453 0.0
H827 H 0.53726 0.2325 0.96796 0.0
H828 H 0.50488 0.26059 0.96804 0.0
H829 H 0.4679 0.21618 0.91119 0.0
H830 H 0.50033 0.18804 0.91041 0.0
H831 H 0.55819 0.0809 0.98788 0.0
H832 H 0.57458 0.11996 0.97458 0.0
H833 H 0.5189 0.12048 0.91922 0.0
H834 H 0.50094 0.08246 0.93476 0.0
H835 H 0.51805 0.15963 0.94367 0.0
H836 H 0.58557 0.11939 0.91035 0.0
H837 H 0.61921 0.09288 0.91251 0.0
H838 H 0.65063 0.13817 0.97199 0.0
H839 H 0.61702 0.16471 0.97042 0.0
C840 C 0.57053 0.25782 0.89876 0.0
C841 C 0.58484 0.2739 0.91438 0.0
C842 C 0.56342 0.23434 0.90606 0.0
C843 C 0.57073 0.22634 0.92895 0.0
C844 C 0.58459 0.24235 0.94484 0.0
C845 C 0.59133 0.26603 0.93776 0.0
C846 C 0.5648 0.20075 0.93554 0.0
C847 C 0.58312 0.18479 0.93681 0.0
C848 C 0.54112 0.19165 0.9383 0.0
C849 C 0.52137 0.20829 0.93893 0.0
C850 C 0.52234 0.22883 0.9553 0.0
C851 C 0.50396 0.24475 0.9555 0.0
C852 C 0.48438 0.24022 0.93958 0.0
C853 C 0.48311 0.21969 0.92348 0.0
C854 C 0.50148 0.20374 0.92316 0.0
C855 C 0.5503 0.08846 0.97178 0.0
C856 C 0.52819 0.07865 0.96245 0.0
C857 C 0.5596 0.11121 0.96429 0.0
C858 C 0.54799 0.12362 0.94589 0.0
C859 C 0.52806 0.11162 0.93373 0.0
C860 C 0.51815 0.0894 0.94206 0.0
C861 C 0.55452 0.15004 0.94161 0.0
C862 C 0.53625 0.16643 0.9411 0.0
C863 C 0.57836 0.1596 0.93979 0.0
C864 C 0.59872 0.14389 0.94036 0.0
C865 C 0.59962 0.12361 0.92394 0.0
C866 C 0.61867 0.10859 0.92507 0.0
C867 C 0.63702 0.11381 0.94241 0.0
C868 C 0.63641 0.13413 0.95859 0.0
C869 C 0.61738 0.14918 0.95757 0.0
H870 H 0.65174 0.10213 0.94327 0.0
H871 H 0.47017 0.25257 0.93975 0.0
H872 H 0.89077 0.74142 0.44176 0.0
H873 H 0.90387 0.78346 0.45469 0.0
H874 H 0.97604 0.76272 0.46065 0.0
H875 H 0.96298 0.72042 0.44764 0.0
H876 H 0.96224 0.79361 0.50085 0.0
H877 H 0.96201 0.79136 0.41311 0.0
H878 H 0.94485 0.78176 0.37172 0.0
H879 H 0.88925 0.8299 0.38608 0.0
H880 H 0.90585 0.83947 0.42778 0.0
H881 H 0.01702 0.91782 0.48691 0.0
H882 H 0.00604 0.87356 0.48574 0.0
H883 H 0.93216 0.88853 0.48807 0.0
H884 H 0.94313 0.9325 0.49023 0.0
H885 H 0.94806 0.86027 0.44407 0.0
H886 H 0.94751 0.86182 0.53175 0.0
H887 H 0.96457 0.87186 0.5731 0.0
H888 H 0.02155 0.82548 0.55849 0.0
H889 H 0.00505 0.81554 0.5168 0.0
C890 C 0.90941 0.74573 0.44605 0.0
C891 C 0.92584 0.72757 0.44369 0.0
C892 C 0.91688 0.76979 0.45335 0.0
C893 C 0.94095 0.77627 0.45861 0.0
C894 C 0.95738 0.75812 0.45675 0.0
C895 C 0.94993 0.73403 0.44914 0.0
C896 C 0.94889 0.80221 0.46512 0.0
C897 C 0.95945 0.80813 0.4883 0.0
C898 C 0.94487 0.82126 0.44892 0.0
C899 C 0.93506 0.81597 0.42368 0.0
C900 C 0.94603 0.79978 0.40752 0.0
C901 C 0.93641 0.79435 0.384 0.0
C902 C 0.91594 0.80517 0.3763 0.0
C903 C 0.90509 0.82151 0.39209 0.0
C904 C 0.91461 0.82696 0.41568 0.0
C905 C 0.99859 0.91162 0.48894 0.0
C906 C 0.98098 0.92862 0.48933 0.0
C907 C 0.99226 0.88634 0.48769 0.0
C908 C 0.96825 0.8778 0.48638 0.0
C909 C 0.95078 0.89471 0.48895 0.0
C910 C 0.95711 0.91984 0.49076 0.0
C911 C 0.96126 0.85165 0.47985 0.0
C912 C 0.95091 0.84572 0.45658 0.0
C913 C 0.96546 0.83266 0.49593 0.0
C914 C 0.97521 0.83816 0.52108 0.0
C915 C 0.9638 0.85393 0.53727 0.0
C916 C 0.97334 0.85958 0.56078 0.0
C917 C 0.99417 0.84937 0.5684 0.0
C918 C 0.00544 0.83341 0.55254 0.0
C919 C 0.996 0.82775 0.52897 0.0
H920 H 1.00154 0.85378 0.58661 0.0
H921 H 0.90852 0.80094 0.35808 0.0
H922 H 0.38212 0.7555 0.56921 0.0
H923 H 0.39619 0.71585 0.55639 0.0
H924 H 0.46866 0.74498 0.56646 0.0
H925 H 0.45471 0.785 0.5786 0.0
H926 H 0.46206 0.71749 0.524 0.0
H927 H 0.44513 0.70966 0.60849 0.0
H928 H 0.42145 0.71228 0.64584 0.0
H929 H 0.36897 0.65987 0.61367 0.0
H930 H 0.39215 0.65725 0.57592 0.0
H931 H 0.51131 0.60009 0.52654 0.0
H932 H 0.49974 0.64207 0.53385 0.0
H933 H 0.42606 0.61698 0.52376 0.0
H934 H 0.43774 0.57497 0.5167 0.0
H935 H 0.43511 0.64284 0.56735 0.0
H936 H 0.45264 0.65251 0.48189 0.0
H937 H 0.47852 0.64854 0.44629 0.0
H938 H 0.53207 0.69689 0.48268 0.0
H939 H 0.50661 0.70082 0.51868 0.0
C940 C 0.40105 0.75357 0.56836 0.0
C941 C 0.41733 0.77332 0.5749 0.0
C942 C 0.40904 0.73087 0.56129 0.0
C943 C 0.43342 0.7275 0.56081 0.0
C944 C 0.44976 0.74727 0.56684 0.0
C945 C 0.44177 0.77001 0.57391 0.0
C946 C 0.44176 0.70326 0.55397 0.0
C947 C 0.4564 0.70121 0.53365 0.0
C948 C 0.4342 0.68206 0.56651 0.0
C949 C 0.42027 0.68345 0.58926 0.0
C950 C 0.42844 0.69885 0.60928 0.0
C951 C 0.41512 0.70032 0.63055 0.0
C952 C 0.39368 0.6863 0.6321 0.0
C953 C 0.38556 0.67074 0.61242 0.0
C954 C 0.39879 0.66925 0.59109 0.0
C955 C 0.49279 0.60387 0.52464 0.0
C956 C 0.4754 0.58473 0.52027 0.0
C957 C 0.48615 0.6277 0.52914 0.0
C958 C 0.46205 0.63254 0.52931 0.0
C959 C 0.44474 0.61356 0.52363 0.0
C960 C 0.4514 0.58975 0.51913 0.0
C961 C 0.45486 0.65704 0.53701 0.0
C962 C 0.44063 0.65914 0.55765 0.0
C963 C 0.46296 0.67829 0.52495 0.0
C964 C 0.4778 0.67688 0.50296 0.0
C965 C 0.46996 0.66227 0.48228 0.0
C966 C 0.48455 0.65999 0.46206 0.0
C967 C 0.50694 0.67244 0.46223 0.0
C968 C 0.51472 0.68727 0.48258 0.0
C969 C 0.50021 0.68956 0.50288 0.0
H970 H 0.51825 0.6706 0.44658 0.0
H971 H 0.38339 0.68746 0.64858 0.0
H972 H 0.9234 0.96506 0.7781 0.0
H973 H 0.93608 0.97689 0.73728 0.0
H974 H 0.93589 0.90068 0.71412 0.0
H975 H 0.92351 0.88878 0.75486 0.0
H976 H 0.97345 0.92435 0.697 0.0
H977 H 0.88983 0.93993 0.69874 0.0
H978 H 0.85478 0.95916 0.715 0.0
H979 H 0.8884 0.03056 0.70461 0.0
H980 H 0.92377 0.01174 0.68862 0.0
H981 H 0.98516 0.94465 0.56893 0.0
H982 H 0.96915 0.93037 0.60804 0.0
H983 H 0.96323 0.00549 0.63291 0.0
H984 H 0.9783 0.01942 0.59394 0.0
H985 H 0.92799 0.98138 0.64892 0.0
H986 H 0.01114 0.96905 0.64958 0.0
H987 H 0.0486 0.95275 0.63595 0.0
H988 H 0.01921 0.87923 0.64418 0.0
H989 H 0.98147 0.89511 0.65757 0.0
C990 C 0.92595 0.95081 0.76429 0.0
C991 C 0.92233 0.92593 0.76987 0.0
C992 C 0.93319 0.95761 0.74087 0.0
C993 C 0.93661 0.93972 0.72229 0.0
C994 C 0.9334 0.9149 0.728 0.0
C995 C 0.92636 0.9081 0.75141 0.0
C996 C 0.94343 0.94663 0.69691 0.0
C997 C 0.96327 0.93654 0.68636 0.0
C998 C 0.93075 0.96318 0.68313 0.0
C999 C 0.90948 0.97443 0.6927 0.0
C1000 C 0.88979 0.95972 0.70009 0.0
C1001 C 0.86987 0.97055 0.70923 0.0
C1002 C 0.86938 0.99606 0.71089 0.0
C1003 C 0.8888 0.0108 0.70335 0.0
C1004 C 0.90878 1.00007 0.69424 0.0
C1005 C 0.97957 0.95794 0.58246 0.0
C1006 C 0.98248 0.98311 0.57824 0.0
C1007 C 0.97086 0.94985 0.60503 0.0
C1008 C 0.9653 0.96684 0.62384 0.0
C1009 C 0.96726 0.9919 0.61893 0.0
C1010 C 0.97576 0.99988 0.59652 0.0
C1011 C 0.95803 0.95904 0.64886 0.0
C1012 C 0.93812 0.96903 0.65942 0.0
C1013 C 0.97096 0.94281 0.66283 0.0
C1014 C 0.99339 0.93325 0.65421 0.0
C1015 C 0.01259 0.9494 0.64821 0.0
C1016 C 0.03388 0.94024 0.6406 0.0
C1017 C 0.03625 0.91497 0.63911 0.0
C1018 C 0.01733 0.8988 0.64526 0.0
C1019 C 0.99599 0.90786 0.65286 0.0
H1020 H 0.05277 0.90792 0.63327 0.0
H1021 H 0.85393 0.00441 0.71796 0.0
H1022 H 0.58489 0.12784 0.26156 0.0
H1023 H 0.56906 0.11141 0.22192 0.0
H1024 H 0.58495 0.03859 0.24185 0.0
H1025 H 0.60041 0.0548 0.28184 0.0
H1026 H 0.6016 0.05142 0.19595 0.0
H1027 H 0.52847 0.05305 0.24001 0.0
H1028 H 0.49877 0.07221 0.26564 0.0
H1029 H 0.48922 0.12571 0.21121 0.0
H1030 H 0.51912 0.10711 0.18543 0.0
H1031 H 0.54259 0.00699 0.08057 0.0
H1032 H 0.5533 0.00977 0.12479 0.0
H1033 H 0.54342 0.0873 0.12622 0.0
H1034 H 0.53338 0.08499 0.08306 0.0
H1035 H 0.5207 0.06384 0.16378 0.0
H1036 H 0.59584 0.07095 0.12453 0.0
H1037 H 0.62771 0.05786 0.09783 0.0
H1038 H 0.6361 0.99526 0.14173 0.0
H1039 H 0.60384 0.00773 0.16839 0.0
C1040 C 0.58464 0.10827 0.25773 0.0
C1041 C 0.59392 0.09262 0.27488 0.0
C1042 C 0.57563 0.09892 0.23504 0.0
C1043 C 0.57566 0.07376 0.22909 0.0
C1044 C 0.58477 0.05806 0.24616 0.0
C1045 C 0.59371 0.06738 0.26891 0.0
C1046 C 0.56732 0.06414 0.20453 0.0
C1047 C 0.58371 0.05352 0.18909 0.0
C1048 C 0.54422 0.06762 0.19543 0.0
C1049 C 0.52614 0.07874 0.21087 0.0
C1050 C 0.52015 0.069 0.23359 0.0
C1051 C 0.50326 0.07975 0.24813 0.0
C1052 C 0.49214 0.10019 0.24008 0.0
C1053 C 0.49785 0.10989 0.21744 0.0
C1054 C 0.51474 0.09922 0.20284 0.0
C1055 C 0.54291 0.02457 0.09037 0.0
C1056 C 0.5373 0.04572 0.07815 0.0
C1057 C 0.54892 0.02613 0.11555 0.0
C1058 C 0.54891 0.04874 0.12869 0.0
C1059 C 0.54333 0.06967 0.11647 0.0
C1060 C 0.53779 0.06825 0.09158 0.0
C1061 C 0.55508 0.05145 0.15515 0.0
C1062 C 0.53833 0.06095 0.17091 0.0
C1063 C 0.57805 0.0477 0.16433 0.0
C1064 C 0.59711 0.03996 0.14811 0.0
C1065 C 0.60421 0.05417 0.12825 0.0
C1066 C 0.6224 0.04692 0.11317 0.0
C1067 C 0.63383 0.02566 0.11798 0.0
C1068 C 0.62713 0.01165 0.13793 0.0
C1069 C 0.60887 0.01877 0.153 0.0
H1070 H 0.64796 0.0201 0.10632 0.0
H1071 H 0.47907 0.10848 0.25137 0.0
H1072 H 0.41062 0.64119 0.27635 0.0
H1073 H 0.42005 0.62671 0.31708 0.0
H1074 H 0.43375 0.55589 0.28494 0.0
H1075 H 0.42391 0.5702 0.24419 0.0
H1076 H 0.40601 0.55168 0.32357 0.0
H1077 H 0.47907 0.5971 0.30536 0.0
H1078 H 0.50226 0.6341 0.29277 0.0
H1079 H 0.47829 0.6746 0.35541 0.0
H1080 H 0.45469 0.6379 0.3682 0.0
H1081 H 0.46313 0.49566 0.41835 0.0
H1082 H 0.44678 0.51361 0.38318 0.0
H1083 H 0.45484 0.58521 0.41986 0.0
H1084 H 0.47695 0.56718 0.45321 0.0
H1085 H 0.46785 0.59206 0.37973 0.0
H1086 H 0.39527 0.54299 0.39882 0.0
H1087 H 0.37369 0.50426 0.40942 0.0
H1088 H 0.39721 0.46916 0.34338 0.0
H1089 H 0.41901 0.50754 0.33249 0.0
C1090 C 0.41597 0.62265 0.27799 0.0
C1091 C 0.41664 0.60679 0.25722 0.0
C1092 C 0.42132 0.61441 0.30122 0.0
C1093 C 0.42779 0.59032 0.30396 0.0
C1094 C 0.42874 0.57455 0.28318 0.0
C1095 C 0.42316 0.5827 0.25998 0.0
C1096 C 0.43278 0.58122 0.32859 0.0
C1097 C 0.41955 0.5604 0.33596 0.0
C1098 C 0.45004 0.59303 0.34479 0.0
C1099 C 0.46497 0.61482 0.33763 0.0
C1100 C 0.47869 0.61392 0.31641 0.0
C1101 C 0.49189 0.63484 0.30923 0.0
C1102 C 0.4917 0.6567 0.32325 0.0
C1103 C 0.47841 0.65765 0.34456 0.0
C1104 C 0.46514 0.63679 0.3518 0.0
C1105 C 0.46053 0.51513 0.41941 0.0
C1106 C 0.47124 0.53003 0.43847 0.0
C1107 C 0.45069 0.52553 0.39913 0.0
C1108 C 0.4484 0.55092 0.39865 0.0
C1109 C 0.45632 0.56557 0.41946 0.0
C1110 C 0.46836 0.55528 0.43894 0.0
C1111 C 0.44088 0.56217 0.37537 0.0
C1112 C 0.45377 0.58348 0.36797 0.0
C1113 C 0.42322 0.55071 0.35902 0.0
C1114 C 0.4087 0.52818 0.36485 0.0
C1115 C 0.39568 0.52705 0.3865 0.0
C1116 C 0.38349 0.50513 0.39259 0.0
C1117 C 0.38407 0.48427 0.37708 0.0
C1118 C 0.39669 0.48533 0.35534 0.0
C1119 C 0.40888 0.50719 0.34915 0.0
H1120 H 0.37476 0.46729 0.38192 0.0
H1121 H 0.50187 0.6729 0.31762 0.0
H1122 H 0.04242 0.44913 0.73006 0.0
H1123 H 0.03303 0.45957 0.77277 0.0
H1124 H 0.10625 0.45372 0.79428 0.0
H1125 H 0.11573 0.44333 0.75171 0.0
H1126 H 0.07413 0.42811 0.82405 0.0
H1127 H 0.08644 0.50783 0.79149 0.0
H1128 H 0.08053 0.54042 0.76238 0.0
H1129 H 0.00707 0.54045 0.78104 0.0
H1130 H 0.01238 0.50745 0.80986 0.0
H1131 H 0.04974 0.49031 0.94511 0.0
H1132 H 0.06962 0.47883 0.90676 0.0
H1133 H 1.0015 0.46649 0.86989 0.0
H1134 H 0.98181 0.47622 0.90782 0.0
H1135 H 0.03736 0.50453 0.84996 0.0
H1136 H 0.02243 0.42182 0.87575 0.0
H1137 H 0.02562 0.38773 0.9036 0.0
H1138 H 0.10125 0.39186 0.89588 0.0
H1139 H 0.09855 0.42664 0.86857 0.0
C1140 C 0.05649 0.45015 0.74391 0.0
C1141 C 0.07981 0.44552 0.73757 0.0
C1142 C 0.05115 0.45622 0.76823 0.0
C1143 C 0.06901 0.45754 0.78663 0.0
C1144 C 0.09226 0.45287 0.78034 0.0
C1145 C 0.09766 0.4471 0.75601 0.0
C1146 C 0.06324 0.46302 0.81258 0.0
C1147 C 0.06656 0.44505 0.82984 0.0
C1148 C 0.053 0.48496 0.81997 0.0
C1149 C 0.04978 0.50496 0.80271 0.0
C1150 C 0.06896 0.51459 0.78923 0.0
C1151 C 0.06572 0.53317 0.77278 0.0
C1152 C 0.04343 0.54246 0.76982 0.0
C1153 C 0.02433 0.53321 0.78332 0.0
C1154 C 0.02744 0.51456 0.79972 0.0
C1155 C 0.03911 0.48392 0.92914 0.0
C1156 C 0.01426 0.48418 0.92944 0.0
C1157 C 0.05042 0.47784 0.90717 0.0
C1158 C 0.03693 0.47239 0.88546 0.0
C1159 C 0.01219 0.47091 0.88636 0.0
C1160 C 1.00101 0.4762 0.90818 0.0
C1161 C 0.04797 0.46946 0.86123 0.0
C1162 C 0.04552 0.48788 0.84426 0.0
C1163 C 0.05866 0.44783 0.85396 0.0
C1164 C 0.06035 0.42722 0.87062 0.0
C1165 C 0.0398 0.41584 0.8804 0.0
C1166 C 0.0415 0.39631 0.89601 0.0
C1167 C 0.06364 0.38773 0.90164 0.0
C1168 C 0.08412 0.39864 0.89163 0.0
C1169 C 0.08252 0.41831 0.87615 0.0
H1170 H 0.06492 0.37253 0.91365 0.0
H1171 H 0.04096 0.55686 0.7571 0.0
H1172 H 0.75114 0.89611 0.93819 0.0
H1173 H 0.71351 0.91141 0.9509 0.0
H1174 H 0.73696 0.98395 0.9296 0.0
H1175 H 0.77521 0.96905 0.91799 0.0
H1176 H 0.71358 0.98725 0.97104 0.0
H1177 H 0.69744 0.94531 0.89332 0.0
H1178 H 0.69789 0.91044 0.86345 0.0
H1179 H 0.65541 0.86567 0.91099 0.0
H1180 H 0.65501 0.90018 0.94134 0.0
H1181 H 0.58907 0.02309 0.97464 0.0
H1182 H 0.62934 0.01614 0.95976 0.0
H1183 H 0.6252 0.94449 0.99017 0.0
H1184 H 0.58652 0.95148 0.00594 0.0
H1185 H 0.63842 0.94442 0.9397 0.0
H1186 H 0.65775 0.9838 0.01838 0.0
H1187 H 0.65813 0.01732 0.04983 0.0
H1188 H 0.69501 0.06579 1.00114 0.0
H1189 H 0.69439 0.03262 0.96918 0.0
C1190 C 0.74856 0.91541 0.93649 0.0
C1191 C 0.76644 0.93122 0.92685 0.0
C1192 C 0.72677 0.92412 0.94351 0.0
C1193 C 0.72199 0.94882 0.9408 0.0
C1194 C 0.73998 0.96478 0.93174 0.0
C1195 C 0.76185 0.95612 0.92484 0.0
C1196 C 0.69825 0.95787 0.94726 0.0
C1197 C 0.69719 0.97815 0.96373 0.0
C1198 C 0.67665 0.94592 0.93816 0.0
C1199 C 0.67632 0.9253 0.91967 0.0
C1200 C 0.68827 0.928 0.89745 0.0
C1201 C 0.68853 0.9083 0.88044 0.0
C1202 C 0.67673 0.88584 0.88534 0.0
C1203 C 0.66456 0.88307 0.90723 0.0
C1204 C 0.66428 0.90271 0.92433 0.0
C1205 C 0.59702 0.00616 0.97868 0.0
C1206 C 0.5842 0.98793 0.99152 0.0
C1207 C 0.61994 0.00207 0.96992 0.0
C1208 C 0.63019 0.97954 0.97347 0.0
C1209 C 0.61769 0.96184 0.98685 0.0
C1210 C 0.5954 0.96607 0.996 0.0
C1211 C 0.65382 0.97368 0.96352 0.0
C1212 C 0.65485 0.95385 0.94651 0.0
C1213 C 0.67534 0.98595 0.97218 0.0
C1214 C 0.67563 0.00589 0.99125 0.0
C1215 C 0.66564 0.0017 0.01425 0.0
C1216 C 0.66596 0.02061 0.0322 0.0
C1217 C 0.67648 0.04371 0.02744 0.0
C1218 C 0.68677 0.04791 0.00476 0.0
C1219 C 0.68642 0.02908 0.98671 0.0
H1220 H 0.67675 0.05832 0.04138 0.0
H1221 H 0.67698 0.87059 0.87217 0.0
H1222 H 0.76736 0.13782 0.45059 0.0
H1223 H 0.8054 0.12413 0.46472 0.0
H1224 H 0.78651 0.05169 0.43374 0.0
H1225 H 0.74792 0.06485 0.42074 0.0
H1226 H 0.80772 0.04825 0.47638 0.0
H1227 H 0.82398 0.09262 0.40436 0.0
H1228 H 0.8226 0.12809 0.37787 0.0
H1229 H 0.86278 0.17308 0.43206 0.0
H1230 H 0.86409 0.13792 0.45905 0.0
H1231 H 0.91661 0.99957 0.45687 0.0
H1232 H 0.87918 0.01827 0.45299 0.0
H1233 H 0.90776 0.08177 0.49548 0.0
H1234 H 0.94628 0.06296 0.49921 0.0
H1235 H 0.88232 0.09278 0.45182 0.0
H1236 H 0.8684 0.04234 0.5216 0.0
H1237 H 0.86886 0.00402 0.54402 0.0
H1238 H 0.82391 0.96686 0.4882 0.0
H1239 H 0.8234 0.00487 0.46531 0.0
C1240 C 0.77109 0.11886 0.44713 0.0
C1241 C 0.75455 0.10249 0.43438 0.0
C1242 C 0.79301 0.11113 0.45497 0.0
C1243 C 0.79902 0.08698 0.44996 0.0
C1244 C 0.78235 0.07045 0.43774 0.0
C1245 C 0.76036 0.0781 0.43007 0.0
C1246 C 0.82277 0.07897 0.45712 0.0
C1247 C 0.824 0.05796 0.47092 0.0
C1248 C 0.84408 0.09175 0.45026 0.0
C1249 C 0.84393 0.11273 0.43382 0.0
C1250 C 0.83243 0.11012 0.41067 0.0
C1251 C 0.83165 0.13015 0.39557 0.0
C1252 C 0.84254 0.15284 0.40331 0.0
C1253 C 0.85432 0.1555 0.42611 0.0
C1254 C 0.85511 0.13552 0.44132 0.0
C1255 C 0.91514 0.01753 0.46551 0.0
C1256 C 0.93456 0.02983 0.4783 0.0
C1257 C 0.89354 0.02813 0.46338 0.0
C1258 C 0.89051 0.05127 0.47417 0.0
C1259 C 0.90973 0.06377 0.48713 0.0
C1260 C 0.93161 0.053 0.4894 0.0
C1261 C 0.86721 0.06206 0.47107 0.0
C1262 C 0.86603 0.08345 0.45778 0.0
C1263 C 0.84588 0.04925 0.47784 0.0
C1264 C 0.84592 0.02645 0.49174 0.0
C1265 C 0.8587 0.02596 0.51407 0.0
C1266 C 0.85896 0.0043 0.52686 0.0
C1267 C 0.84643 0.98302 0.51754 0.0
C1268 C 0.83358 0.98336 0.49542 0.0
C1269 C 0.83326 0.00498 0.48256 0.0
H1270 H 0.84668 0.96626 0.52747 0.0
H1271 H 0.84188 0.16836 0.39161 0.0
H1272 H 0.25298 0.63882 0.08232 0.0
H1273 H 0.21388 0.62491 0.06577 0.0
H1274 H 0.2213 0.55379 0.09571 0.0
H1275 H 0.2611 0.56718 0.11121 0.0
H1276 H 0.20465 0.54878 0.05055 0.0
H1277 H 0.18527 0.59501 0.12192 0.0
H1278 H 0.18609 0.63052 0.15113 0.0
H1279 H 0.15718 0.6742 0.09544 0.0
H1280 H 0.15654 0.63905 0.06576 0.0
H1281 H 0.08475 0.50564 0.0455 0.0
H1282 H 0.12586 0.51936 0.05399 0.0
H1283 H 0.11401 0.58861 0.02167 0.0
H1284 H 0.07188 0.57513 0.01457 0.0
H1285 H 0.13346 0.59517 0.06584 0.0
H1286 H 0.15076 0.54354 0.99532 0.0
H1287 H 0.14723 0.50467 0.97079 0.0
H1288 H 0.17779 0.4674 0.03044 0.0
H1289 H 0.18119 0.50594 0.05546 0.0
C1290 C 0.24643 0.62012 0.08517 0.0
C1291 C 0.26025 0.60403 0.0979 0.0
C1292 C 0.22394 0.61231 0.07598 0.0
C1293 C 0.21462 0.5884 0.0797 0.0
C1294 C 0.2282 0.57234 0.09265 0.0
C1295 C 0.25083 0.58008 0.10167 0.0
C1296 C 0.19098 0.57999 0.06939 0.0
C1297 C 0.18903 0.55882 0.05403 0.0
C1298 C 0.1707 0.59326 0.07374 0.0
C1299 C 0.17112 0.61447 0.09153 0.0
C1300 C 0.1793 0.61226 0.11583 0.0
C1301 C 0.17969 0.63231 0.13249 0.0
C1302 C 0.17176 0.65463 0.12512 0.0
C1303 C 0.16337 0.65692 0.1011 0.0
C1304 C 0.16297 0.63693 0.08436 0.0
C1305 C 0.09118 0.52347 0.03941 0.0
C1306 C 0.07552 0.53932 0.02913 0.0
C1307 C 0.1147 0.53128 0.0442 0.0
C1308 C 0.12317 0.55487 0.0381 0.0
C1309 C 0.10781 0.57025 0.02635 0.0
C1310 C 0.08394 0.56254 0.022 0.0
C1311 C 0.14717 0.56416 0.04667 0.0
C1312 C 0.14916 0.58542 0.06194 0.0
C1313 C 0.16736 0.55061 0.04272 0.0
C1314 C 0.16624 0.52766 0.02725 0.0
C1315 C 0.15673 0.52706 0.0032 0.0
C1316 C 0.15472 0.50507 0.98922 0.0
C1317 C 0.16229 0.48358 0.99904 0.0
C1318 C 0.17198 0.48406 0.02283 0.0
C1319 C 0.17401 0.50598 0.0369 0.0
H1320 H 0.16066 0.46657 0.98821 0.0
H1321 H 0.17207 0.67013 0.13805 0.0
H1322 H 0.21826 0.45577 0.5397 0.0
H1323 H 0.25865 0.46635 0.52625 0.0
H1324 H 0.28646 0.44608 0.59644 0.0
H1325 H 0.24617 0.43654 0.61016 0.0
H1326 H 0.30954 0.48489 0.58418 0.0
H1327 H 0.28627 0.4084 0.54042 0.0
H1328 H 0.26079 0.3811 0.51257 0.0
H1329 H 0.27318 0.43026 0.45389 0.0
H1330 H 0.29852 0.45801 0.48149 0.0
H1331 H 0.42683 0.4631 0.56264 0.0
H1332 H 0.38425 0.45471 0.56707 0.0
H1333 H 0.37106 0.49165 0.50012 0.0
H1334 H 0.4141 0.50012 0.49557 0.0
H1335 H 0.33974 0.44908 0.50692 0.0
H1336 H 0.36666 0.52335 0.55131 0.0
H1337 H 0.39157 0.55002 0.58025 0.0
H1338 H 0.37223 0.50329 0.63918 0.0
H1339 H 0.34746 0.47616 0.61054 0.0
C1340 C 0.23305 0.45366 0.55221 0.0
C1341 C 0.2291 0.44536 0.57597 0.0
C1342 C 0.25614 0.45957 0.54449 0.0
C1343 C 0.27577 0.45664 0.56014 0.0
C1344 C 0.27172 0.44857 0.58397 0.0
C1345 C 0.24867 0.44312 0.59183 0.0
C1346 C 0.30057 0.46192 0.55201 0.0
C1347 C 0.31613 0.4768 0.5674 0.0
C1348 C 0.30915 0.45212 0.52969 0.0
C1349 C 0.29411 0.43536 0.51306 0.0
C1350 C 0.28345 0.41344 0.52161 0.0
C1351 C 0.26905 0.39788 0.50587 0.0
C1352 C 0.26533 0.40396 0.48149 0.0
C1353 C 0.27606 0.42559 0.47278 0.0
C1354 C 0.29046 0.44122 0.48846 0.0
C1355 C 0.41491 0.46876 0.54842 0.0
C1356 C 0.42377 0.48219 0.52872 0.0
C1357 C 0.39056 0.46417 0.55111 0.0
C1358 C 0.37446 0.47305 0.53425 0.0
C1359 C 0.38321 0.48476 0.51342 0.0
C1360 C 0.40778 0.48935 0.51067 0.0
C1361 C 0.34871 0.47128 0.53955 0.0
C1362 C 0.33301 0.45723 0.5236 0.0
C1363 C 0.34001 0.4816 0.56153 0.0
C1364 C 0.35535 0.4976 0.5787 0.0
C1365 C 0.36792 0.51861 0.57038 0.0
C1366 C 0.38196 0.53385 0.58676 0.0
C1367 C 0.38351 0.52833 0.61153 0.0
C1368 C 0.37103 0.50754 0.61998 0.0
C1369 C 0.35697 0.49224 0.60369 0.0
H1370 H 0.39435 0.54018 0.62418 0.0
H1371 H 0.25418 0.3919 0.46933 0.0
H1372 H 0.90172 0.77412 0.96698 0.0
H1373 H 0.91469 0.73511 0.98047 0.0
H1374 H 0.95437 0.72693 0.91427 0.0
H1375 H 0.93996 0.76492 0.89973 0.0
H1376 H 0.93488 0.68549 0.92231 0.0
H1377 H 0.98038 0.74332 0.97544 0.0
H1378 H 0.9875 0.77756 0.00591 0.0
H1379 H 0.94425 0.73872 0.05749 0.0
H1380 H 0.93669 0.70436 0.02723 0.0
H1381 H 0.01459 0.59922 0.96019 0.0
H1382 H 0.99684 0.63709 0.95052 0.0
H1383 H 0.94667 0.62583 0.00812 0.0
H1384 H 0.9639 0.58668 0.01735 0.0
H1385 H 0.96812 0.67536 0.00588 0.0
H1386 H 0.92633 0.61558 0.9518 0.0
H1387 H 0.91942 0.58268 0.91987 0.0
H1388 H 0.95822 0.62633 0.86845 0.0
H1389 H 0.96562 0.65937 0.90012 0.0
C1390 C 0.91296 0.764 0.95503 0.0
C1391 C 0.91964 0.77309 0.93211 0.0
C1392 C 0.92077 0.74169 0.96305 0.0
C1393 C 0.93597 0.72795 0.94872 0.0
C1394 C 0.94275 0.737 0.92589 0.0
C1395 C 0.93468 0.7591 0.91768 0.0
C1396 C 0.94426 0.70387 0.95702 0.0
C1397 C 0.94248 0.68348 0.94049 0.0
C1398 C 0.95355 0.70066 0.98099 0.0
C1399 C 0.95777 0.72143 0.99901 0.0
C1400 C 0.97223 0.7422 0.99321 0.0
C1401 C 0.97638 0.76159 0.01045 0.0
C1402 C 0.96628 0.76035 0.03359 0.0
C1403 C 0.95203 0.73968 0.03955 0.0
C1404 C 0.94782 0.72024 0.02238 0.0
C1405 C 0.99999 0.60483 0.97121 0.0
C1406 C 0.99081 0.58971 0.98971 0.0
C1407 C 0.98966 0.62648 0.96537 0.0
C1408 C 0.97005 0.63418 0.97814 0.0
C1409 C 0.96165 0.62013 0.99776 0.0
C1410 C 0.97175 0.59793 0.00333 0.0
C1411 C 0.95907 0.65724 0.97105 0.0
C1412 C 0.96042 0.67742 0.98775 0.0
C1413 C 0.9498 0.66038 0.94705 0.0
C1414 C 0.9468 0.63984 0.92848 0.0
C1415 C 0.93375 0.618 0.93382 0.0
C1416 C 0.92963 0.59937 0.91571 0.0
C1417 C 0.93844 0.60238 0.89217 0.0
C1418 C 0.95146 0.62399 0.8867 0.0
C1419 C 0.95562 0.64266 0.90473 0.0
H1420 H 0.93511 0.58799 0.87815 0.0
H1421 H 0.96954 0.77537 0.04693 0.0
H1422 H 0.45552 0.76423 0.11235 0.0
H1423 H 0.46711 0.80605 0.10074 0.0
H1424 H 0.39617 0.81419 0.07306 0.0
H1425 H 0.3841 0.77295 0.08546 0.0
H1426 H 0.43428 0.82924 0.04102 0.0
H1427 H 0.4096 0.84011 0.12551 0.0
H1428 H 0.41156 0.83124 0.16949 0.0
H1429 H 0.48559 0.85472 0.17253 0.0
H1430 H 0.4841 0.86346 0.12846 0.0
H1431 H 0.44011 0.95033 0.01339 0.0
H1432 H 0.42474 0.91454 0.03494 0.0
H1433 H 0.48911 0.91714 0.07911 0.0
H1434 H 0.50381 0.95368 0.05846 0.0
H1435 H 0.45626 0.8955 0.10344 0.0
H1436 H 0.48356 0.88513 0.02201 0.0
H1437 H 0.48672 0.8892 0.97729 0.0
H1438 H 0.41447 0.86076 0.96688 0.0
H1439 H 0.41078 0.85683 0.01157 0.0
C1440 C 0.44231 0.77498 0.10401 0.0
C1441 C 0.41885 0.7652 0.09989 0.0
C1442 C 0.44901 0.7988 0.0973 0.0
C1443 C 0.43242 0.81314 0.08621 0.0
C1444 C 0.4092 0.80331 0.08157 0.0
C1445 C 0.40241 0.77966 0.08851 0.0
C1446 C 0.4391 0.83851 0.07945 0.0
C1447 C 0.43873 0.84389 0.05461 0.0
C1448 C 0.44593 0.85717 0.09722 0.0
C1449 C 0.44677 0.85227 0.12372 0.0
C1450 C 0.42632 0.84324 0.13555 0.0
C1451 C 0.42734 0.83826 0.16048 0.0
C1452 C 0.4487 0.84238 0.17379 0.0
C1453 C 0.46907 0.85154 0.1622 0.0
C1454 C 0.46814 0.85654 0.13726 0.0
C1455 C 0.45015 0.94438 0.02897 0.0
C1456 C 0.47318 0.95465 0.03416 0.0
C1457 C 0.44168 0.92344 0.0408 0.0
C1458 C 0.4563 0.91241 0.05774 0.0
C1459 C 0.47764 0.92503 0.06578 0.0
C1460 C 0.48585 0.9463 0.0543 0.0
C1461 C 0.45073 0.8867 0.0648 0.0
C1462 C 0.4516 0.88107 0.08971 0.0
C1463 C 0.44498 0.86756 0.04695 0.0
C1464 C 0.44678 0.87107 0.02018 0.0
C1465 C 0.46824 0.88008 0.01022 0.0
C1466 C 0.47016 0.88228 0.98487 0.0
C1467 C 0.45078 0.87535 0.96926 0.0
C1468 C 0.42944 0.86622 0.97899 0.0
C1469 C 0.42742 0.86402 0.00433 0.0
H1470 H 0.45233 0.87697 0.94963 0.0
H1471 H 0.44945 0.83851 0.1931 0.0
H1472 H 0.05322 0.27377 0.60888 0.0
H1473 H 0.03971 0.23213 0.59575 0.0
H1474 H 0.0703 0.243 0.52482 0.0
H1475 H 0.08252 0.28533 0.53726 0.0
H1476 H 0.02999 0.21767 0.51852 0.0
H1477 H 0.09773 0.21065 0.57022 0.0
H1478 H 0.12312 0.2181 0.60735 0.0
H1479 H 0.06959 0.18214 0.65057 0.0
H1480 H 0.04368 0.17482 0.61375 0.0
H1481 H 0.03466 0.08334 0.49927 0.0
H1482 H 0.04349 0.12797 0.50226 0.0
H1483 H 0.99635 0.13317 0.56309 0.0
H1484 H 0.98698 0.08899 0.55968 0.0
H1485 H 0.0479 0.14954 0.57209 0.0
H1486 H 0.97989 0.15911 0.51861 0.0
H1487 H 0.95661 0.15066 0.48021 0.0
H1488 H 0.01478 0.18052 0.4388 0.0
H1489 H 0.03857 0.18875 0.47699 0.0
C1490 C 0.05674 0.26758 0.59031 0.0
C1491 C 0.06909 0.28311 0.57421 0.0
C1492 C 0.04928 0.24352 0.58292 0.0
C1493 C 0.05438 0.23412 0.55942 0.0
C1494 C 0.06625 0.24968 0.5431 0.0
C1495 C 0.07348 0.27387 0.55038 0.0
C1496 C 0.04744 0.20804 0.55204 0.0
C1497 C 0.03424 0.2028 0.53012 0.0
C1498 C 0.05292 0.18845 0.56706 0.0
C1499 C 0.06866 0.19234 0.58921 0.0
C1500 C 0.0913 0.20444 0.58765 0.0
C1501 C 0.1058 0.20864 0.60865 0.0
C1502 C 0.09795 0.20064 0.63131 0.0
C1503 C 0.07563 0.18834 0.633 0.0
C1504 C 0.06104 0.18413 0.61206 0.0
C1505 C 0.025 0.09422 0.51216 0.0
C1506 C 0.00988 0.08272 0.52905 0.0
C1507 C 0.03047 0.11965 0.51424 0.0
C1508 C 0.02095 0.13374 0.53327 0.0
C1509 C 0.00404 0.12261 0.54844 0.0
C1510 C 0.9983 0.09742 0.54611 0.0
C1511 C 0.03008 0.15945 0.539 0.0
C1512 C 0.04383 0.16452 0.56054 0.0
C1513 C 0.0255 0.17876 0.52347 0.0
C1514 C 0.01107 0.17432 0.5006 0.0
C1515 C 0.98778 0.16369 0.5013 0.0
C1516 C 0.97448 0.15897 0.47958 0.0
C1517 C 0.98423 0.16499 0.45707 0.0
C1518 C 0.00727 0.17583 0.45625 0.0
C1519 C 0.02066 0.18055 0.47793 0.0
H1520 H 0.9739 0.16132 0.44026 0.0
H1521 H 0.10919 0.20393 0.64756 0.0
H1522 H 0.5629 0.23321 0.45167 0.0
H1523 H 0.5459 0.27175 0.46395 0.0
H1524 H 0.60467 0.31216 0.43124 0.0
H1525 H 0.62219 0.27369 0.42021 0.0
H1526 H 0.59792 0.33166 0.47211 0.0
H1527 H 0.54654 0.30553 0.40542 0.0
H1528 H 0.5192 0.27714 0.38071 0.0
H1529 H 0.46918 0.27644 0.43895 0.0
H1530 H 0.49641 0.30452 0.46423 0.0
H1531 H 0.55011 0.44797 0.47248 0.0
H1532 H 0.56673 0.40891 0.46401 0.0
H1533 H 0.50753 0.37194 0.49936 0.0
H1534 H 0.48971 0.41151 0.50589 0.0
H1535 H 0.51406 0.34989 0.45819 0.0
H1536 H 0.57236 0.38188 0.52268 0.0
H1537 H 0.60513 0.40904 0.54147 0.0
H1538 H 0.64591 0.40092 0.47673 0.0
H1539 H 0.61342 0.37465 0.45708 0.0
C1540 C 0.57211 0.25041 0.44724 0.0
C1541 C 0.59389 0.25069 0.43528 0.0
C1542 C 0.56231 0.27237 0.454 0.0
C1543 C 0.57383 0.29488 0.44826 0.0
C1544 C 0.59548 0.29504 0.43597 0.0
C1545 C 0.60552 0.27313 0.42974 0.0
C1546 C 0.5642 0.31837 0.45627 0.0
C1547 C 0.57963 0.33579 0.46877 0.0
C1548 C 0.54028 0.32359 0.45213 0.0
C1549 C 0.52366 0.30695 0.43685 0.0
C1550 C 0.52979 0.29919 0.41305 0.0
C1551 C 0.51431 0.28316 0.39893 0.0
C1552 C 0.4925 0.27493 0.40828 0.0
C1553 C 0.4861 0.2828 0.43175 0.0
C1554 C 0.50156 0.29879 0.44599 0.0
C1555 C 0.54107 0.43156 0.47925 0.0
C1556 C 0.51894 0.43266 0.49036 0.0
C1557 C 0.55065 0.40916 0.47445 0.0
C1558 C 0.5388 0.38734 0.48158 0.0
C1559 C 0.51715 0.38854 0.49388 0.0
C1560 C 0.50713 0.41109 0.49802 0.0
C1561 C 0.54791 0.36334 0.47415 0.0
C1562 C 0.53232 0.34575 0.46168 0.0
C1563 C 0.5721 0.35839 0.47718 0.0
C1564 C 0.59047 0.37614 0.48848 0.0
C1565 C 0.58818 0.38614 0.51234 0.0
C1566 C 0.60671 0.40126 0.52317 0.0
C1567 C 0.62763 0.40616 0.51052 0.0
C1568 C 0.6298 0.39683 0.48661 0.0
C1569 C 0.61132 0.38195 0.47558 0.0
H1570 H 0.64222 0.41718 0.5192 0.0
H1571 H 0.48054 0.26251 0.39733 0.0
loop_
_geom_bond_atom_site_label_1
_geom_bond_atom_site_label_2
_geom_bond_distance
_geom_bond_site_symmetry_2
_ccdc_geom_bond_type
C0 C1 1.384 . S
C0 H13 0.947 . S
C0 C35 1.382 . S
C1 C0 1.384 . S
C1 C2 1.378 . S
C2 C1 1.378 . S
C2 C3 1.378 . S
C2 H14 0.952 . S
C3 C2 1.378 . S
C3 H15 0.950 . S
C3 C34 1.383 . S
H4 C23 0.947 . S
H5 C24 0.946 . S
H6 C26 0.953 . S
H7 C27 0.945 . S
H8 C29 0.952 . S
H9 C30 0.949 . S
H10 C32 0.950 . S
H11 C33 0.948 . S
H12 C35 0.951 . S
H13 C0 0.947 . S
H14 C2 0.952 . S
H15 C3 0.950 . S
N16 C19 1.382 . S
N16 C21 1.363 . S
N17 C19 1.371 . S
N17 C20 1.372 . S
N18 C20 1.361 . S
N18 C21 1.377 . S
C19 N16 1.382 . S
C19 N17 1.371 . S
C19 C22 1.480 . S
C20 N17 1.372 . S
C20 N18 1.361 . S
C20 C28 1.457 . S
C21 N16 1.363 . S
C21 N18 1.377 . S
C21 C34 1.479 . S
C22 C19 1.480 . S
C22 C23 1.383 . S
C22 C27 1.385 . S
C23 H4 0.947 . S
C23 C22 1.383 . S
C23 C24 1.388 . S
C24 H5 0.946 . S
C24 C23 1.388 . S
C24 C25 1.384 . S
C25 C24 1.384 . S
C25 C26 1.377 . S
C26 H6 0.953 . S
C26 C25 1.377 . S
C26 C27 1.369 . S
C27 H7 0.945 . S
C27 C22 1.385 . S
C27 C26 1.369 . S
C28 C20 1.457 . S
C28 C29 1.372 . S
C28 C33 1.364 . S
C29 H8 0.952 . S
C29 C28 1.372 . S
C29 C30 1.389 . S
C30 H9 0.949 . S
C30 C29 1.389 . S
C30 C31 1.387 . S
C31 C30 1.387 . S
C31 C32 1.372 . S
C32 H10 0.950 . S
C32 C31 1.372 . S
C32 C33 1.379 . S
C33 H11 0.948 . S
C33 C28 1.364 . S
C33 C32 1.379 . S
C34 C3 1.383 . S
C34 C21 1.479 . S
C34 C35 1.398 . S
C35 C0 1.382 . S
C35 H12 0.951 . S
C35 C34 1.398 . S
C36 C37 1.384 . S
C36 H49 0.947 . S
C36 C71 1.382 . S
C37 C36 1.384 . S
C37 C38 1.378 . S
C38 C37 1.378 . S
C38 C39 1.378 . S
C38 H50 0.952 . S
C39 C38 1.378 . S
C39 H51 0.950 . S
C39 C70 1.383 . S
H40 C59 0.947 . S
H41 C60 0.946 . S
H42 C62 0.953 . S
H43 C63 0.945 . S
H44 C65 0.952 . S
H45 C66 0.949 . S
H46 C68 0.950 . S
H47 C69 0.948 . S
H48 C71 0.951 . S
H49 C36 0.947 . S
H50 C38 0.952 . S
H51 C39 0.950 . S
N52 C55 1.382 . S
N52 C57 1.363 . S
N53 C55 1.371 . S
N53 C56 1.372 . S
N54 C56 1.361 . S
N54 C57 1.377 . S
C55 N52 1.382 . S
C55 N53 1.371 . S
C55 C58 1.480 . S
C56 N53 1.372 . S
C56 N54 1.361 . S
C56 C64 1.457 . S
C57 N52 1.363 . S
C57 N54 1.377 . S
C57 C70 1.479 . S
C58 C55 1.480 . S
C58 C59 1.383 . S
C58 C63 1.385 . S
C59 H40 0.947 . S
C59 C58 1.383 . S
C59 C60 1.388 . S
C60 H41 0.946 . S
C60 C59 1.388 . S
C60 C61 1.384 . S
C61 C60 1.384 . S
C61 C62 1.377 . S
C62 H42 0.953 . S
C62 C61 1.377 . S
C62 C63 1.369 . S
C63 H43 0.945 . S
C63 C58 1.385 . S
C63 C62 1.369 . S
C64 C56 1.457 . S
C64 C65 1.372 . S
C64 C69 1.364 . S
C65 H44 0.952 . S
C65 C64 1.372 . S
C65 C66 1.389 . S
C66 H45 0.949 . S
C66 C65 1.389 . S
C66 C67 1.387 . S
C67 C66 1.387 . S
C67 C68 1.372 . S
C68 H46 0.950 . S
C68 C67 1.372 . S
C68 C69 1.379 . S
C69 H47 0.948 . S
C69 C64 1.364 . S
C69 C68 1.379 . S
C70 C39 1.383 . S
C70 C57 1.479 . S
C70 C71 1.398 . S
C71 C36 1.382 . S
C71 H48 0.951 . S
C71 C70 1.398 . S
C72 C73 1.384 . S
C72 H85 0.947 . S
C72 C107 1.382 . S
C73 C72 1.384 . S
C73 C74 1.378 . S
C74 C73 1.378 . S
C74 C75 1.378 . S
C74 H86 0.952 . S
C75 C74 1.378 . S
C75 H87 0.950 . S
C75 C106 1.383 . S
H76 C95 0.947 . S
H77 C96 0.946 . S
H78 C98 0.953 . S
H79 C99 0.945 . S
H80 C101 0.952 . S
H81 C102 0.949 . S
H82 C104 0.950 . S
H83 C105 0.948 . S
H84 C107 0.951 . S
H85 C72 0.947 . S
H86 C74 0.952 . S
H87 C75 0.950 . S
N88 C91 1.382 . S
N88 C93 1.363 . S
N89 C91 1.371 . S
N89 C92 1.372 . S
N90 C92 1.361 . S
N90 C93 1.377 . S
C91 N88 1.382 . S
C91 N89 1.371 . S
C91 C94 1.480 . S
C92 N89 1.372 . S
C92 N90 1.361 . S
C92 C100 1.457 . S
C93 N88 1.363 . S
C93 N90 1.377 . S
C93 C106 1.479 . S
C94 C91 1.480 . S
C94 C95 1.383 . S
C94 C99 1.385 . S
C95 H76 0.947 . S
C95 C94 1.383 . S
C95 C96 1.388 . S
C96 H77 0.946 . S
C96 C95 1.388 . S
C96 C97 1.384 . S
C97 C96 1.384 . S
C97 C98 1.377 . S
C98 H78 0.953 . S
C98 C97 1.377 . S
C98 C99 1.369 . S
C99 H79 0.945 . S
C99 C94 1.385 . S
C99 C98 1.369 . S
C100 C92 1.457 . S
C100 C101 1.372 . S
C100 C105 1.364 . S
C101 H80 0.952 . S
C101 C100 1.372 . S
C101 C102 1.389 . S
C102 H81 0.949 . S
C102 C101 1.389 . S
C102 C103 1.387 . S
C103 C102 1.387 . S
C103 C104 1.372 . S
C104 H82 0.950 . S
C104 C103 1.372 . S
C104 C105 1.379 . S
C105 H83 0.948 . S
C105 C100 1.364 . S
C105 C104 1.379 . S
C106 C75 1.383 . S
C106 C93 1.479 . S
C106 C107 1.398 . S
C107 C72 1.382 . S
C107 H84 0.951 . S
C107 C106 1.398 . S
C108 C109 1.384 . S
C108 H121 0.947 . S
C108 C143 1.382 . S
C109 C108 1.384 . S
C109 C110 1.378 . S
C110 C109 1.378 . S
C110 C111 1.378 . S
C110 H122 0.952 . S
C111 C110 1.378 . S
C111 H123 0.950 . S
C111 C142 1.383 . S
H112 C131 0.947 . S
H113 C132 0.946 . S
H114 C134 0.953 . S
H115 C135 0.945 . S
H116 C137 0.952 . S
H117 C138 0.949 . S
H118 C140 0.950 . S
H119 C141 0.948 . S
H120 C143 0.951 . S
H121 C108 0.947 . S
H122 C110 0.952 . S
H123 C111 0.950 . S
N124 C127 1.382 . S
N124 C129 1.363 . S
N125 C127 1.371 . S
N125 C128 1.372 . S
N126 C128 1.361 . S
N126 C129 1.377 . S
C127 N124 1.382 . S
C127 N125 1.371 . S
C127 C130 1.480 . S
C128 N125 1.372 . S
C128 N126 1.361 . S
C128 C136 1.457 . S
C129 N124 1.363 . S
C129 N126 1.377 . S
C129 C142 1.479 . S
C130 C127 1.480 . S
C130 C131 1.383 . S
C130 C135 1.385 . S
C131 H112 0.947 . S
C131 C130 1.383 . S
C131 C132 1.388 . S
C132 H113 0.946 . S
C132 C131 1.388 . S
C132 C133 1.384 . S
C133 C132 1.384 . S
C133 C134 1.377 . S
C134 H114 0.953 . S
C134 C133 1.377 . S
C134 C135 1.369 . S
C135 H115 0.945 . S
C135 C130 1.385 . S
C135 C134 1.369 . S
C136 C128 1.457 . S
C136 C137 1.372 . S
C136 C141 1.364 . S
C137 H116 0.952 . S
C137 C136 1.372 . S
C137 C138 1.389 . S
C138 H117 0.949 . S
C138 C137 1.389 . S
C138 C139 1.387 . S
C139 C138 1.387 . S
C139 C140 1.372 . S
C140 H118 0.950 . S
C140 C139 1.372 . S
C140 C141 1.379 . S
C141 H119 0.948 . S
C141 C136 1.364 . S
C141 C140 1.379 . S
C142 C111 1.383 . S
C142 C129 1.479 . S
C142 C143 1.398 . S
C143 C108 1.382 . S
C143 H120 0.951 . S
C143 C142 1.398 . S
C144 C145 1.384 . S
C144 H157 0.947 . S
C144 C179 1.382 . S
C145 C144 1.384 . S
C145 C146 1.378 . S
C146 C145 1.378 . S
C146 C147 1.378 . S
C146 H158 0.952 . S
C147 C146 1.378 . S
C147 H159 0.950 . S
C147 C178 1.383 . S
H148 C167 0.947 . S
H149 C168 0.946 . S
H150 C170 0.953 . S
H151 C171 0.945 . S
H152 C173 0.952 . S
H153 C174 0.949 . S
H154 C176 0.950 . S
H155 C177 0.948 . S
H156 C179 0.951 . S
H157 C144 0.947 . S
H158 C146 0.952 . S
H159 C147 0.950 . S
N160 C163 1.382 . S
N160 C165 1.363 . S
N161 C163 1.371 . S
N161 C164 1.372 . S
N162 C164 1.361 . S
N162 C165 1.377 . S
C163 N160 1.382 . S
C163 N161 1.371 . S
C163 C166 1.480 . S
C164 N161 1.372 . S
C164 N162 1.361 . S
C164 C172 1.457 . S
C165 N160 1.363 . S
C165 N162 1.377 . S
C165 C178 1.479 . S
C166 C163 1.480 . S
C166 C167 1.383 . S
C166 C171 1.385 . S
C167 H148 0.947 . S
C167 C166 1.383 . S
C167 C168 1.388 . S
C168 H149 0.946 . S
C168 C167 1.388 . S
C168 C169 1.384 . S
C169 C168 1.384 . S
C169 C170 1.377 . S
C170 H150 0.953 . S
C170 C169 1.377 . S
C170 C171 1.369 . S
C171 H151 0.945 . S
C171 C166 1.385 . S
C171 C170 1.369 . S
C172 C164 1.457 . S
C172 C173 1.372 . S
C172 C177 1.364 . S
C173 H152 0.952 . S
C173 C172 1.372 . S
C173 C174 1.389 . S
C174 H153 0.949 . S
C174 C173 1.389 . S
C174 C175 1.387 . S
C175 C174 1.387 . S
C175 C176 1.372 . S
C176 H154 0.950 . S
C176 C175 1.372 . S
C176 C177 1.379 . S
C177 H155 0.948 . S
C177 C172 1.364 . S
C177 C176 1.379 . S
C178 C147 1.383 . S
C178 C165 1.479 . S
C178 C179 1.398 . S
C179 C144 1.382 . S
C179 H156 0.951 . S
C179 C178 1.398 . S
C180 C181 1.384 . S
C180 H193 0.947 . S
C180 C215 1.382 . S
C181 C180 1.384 . S
C181 C182 1.378 . S
C182 C181 1.378 . S
C182 C183 1.378 . S
C182 H194 0.952 . S
C183 C182 1.378 . S
C183 H195 0.950 . S
C183 C214 1.383 . S
H184 C203 0.947 . S
H185 C204 0.946 . S
H186 C206 0.953 . S
H187 C207 0.945 . S
H188 C209 0.952 . S
H189 C210 0.949 . S
H190 C212 0.950 . S
H191 C213 0.948 . S
H192 C215 0.951 . S
H193 C180 0.947 . S
H194 C182 0.952 . S
H195 C183 0.950 . S
N196 C199 1.382 . S
N196 C201 1.363 . S
N197 C199 1.371 . S
N197 C200 1.372 . S
N198 C200 1.361 . S
N198 C201 1.377 . S
C199 N196 1.382 . S
C199 N197 1.371 . S
C199 C202 1.480 . S
C200 N197 1.372 . S
C200 N198 1.361 . S
C200 C208 1.457 . S
C201 N196 1.363 . S
C201 N198 1.377 . S
C201 C214 1.479 . S
C202 C199 1.480 . S
C202 C203 1.383 . S
C202 C207 1.385 . S
C203 H184 0.947 . S
C203 C202 1.383 . S
C203 C204 1.388 . S
C204 H185 0.946 . S
C204 C203 1.388 . S
C204 C205 1.384 . S
C205 C204 1.384 . S
C205 C206 1.377 . S
C206 H186 0.953 . S
C206 C205 1.377 . S
C206 C207 1.369 . S
C207 H187 0.945 . S
C207 C202 1.385 . S
C207 C206 1.369 . S
C208 C200 1.457 . S
C208 C209 1.372 . S
C208 C213 1.364 . S
C209 H188 0.952 . S
C209 C208 1.372 . S
C209 C210 1.389 . S
C210 H189 0.949 . S
C210 C209 1.389 . S
C210 C211 1.387 . S
C211 C210 1.387 . S
C211 C212 1.372 . S
C212 H190 0.950 . S
C212 C211 1.372 . S
C212 C213 1.379 . S
C213 H191 0.948 . S
C213 C208 1.364 . S
C213 C212 1.379 . S
C214 C183 1.383 . S
C214 C201 1.479 . S
C214 C215 1.398 . S
C215 C180 1.382 . S
C215 H192 0.951 . S
C215 C214 1.398 . S
C216 C217 1.384 . S
C216 H229 0.947 . S
C216 C251 1.382 . S
C217 C216 1.384 . S
C217 C218 1.378 . S
C218 C217 1.378 . S
C218 C219 1.378 . S
C218 H230 0.952 . S
C219 C218 1.378 . S
C219 H231 0.950 . S
C219 C250 1.383 . S
H220 C239 0.947 . S
H221 C240 0.946 . S
H222 C242 0.953 . S
H223 C243 0.945 . S
H224 C245 0.952 . S
H225 C246 0.949 . S
H226 C248 0.950 . S
H227 C249 0.948 . S
H228 C251 0.951 . S
H229 C216 0.947 . S
H230 C218 0.952 . S
H231 C219 0.950 . S
N232 C235 1.382 . S
N232 C237 1.363 . S
N233 C235 1.371 . S
N233 C236 1.372 . S
N234 C236 1.361 . S
N234 C237 1.377 . S
C235 N232 1.382 . S
C235 N233 1.371 . S
C235 C238 1.480 . S
C236 N233 1.372 . S
C236 N234 1.361 . S
C236 C244 1.457 . S
C237 N232 1.363 . S
C237 N234 1.377 . S
C237 C250 1.479 . S
C238 C235 1.480 . S
C238 C239 1.383 . S
C238 C243 1.385 . S
C239 H220 0.947 . S
C239 C238 1.383 . S
C239 C240 1.388 . S
C240 H221 0.946 . S
C240 C239 1.388 . S
C240 C241 1.384 . S
C241 C240 1.384 . S
C241 C242 1.377 . S
C242 H222 0.953 . S
C242 C241 1.377 . S
C242 C243 1.369 . S
C243 H223 0.945 . S
C243 C238 1.385 . S
C243 C242 1.369 . S
C244 C236 1.457 . S
C244 C245 1.372 . S
C244 C249 1.364 . S
C245 H224 0.952 . S
C245 C244 1.372 . S
C245 C246 1.389 . S
C246 H225 0.949 . S
C246 C245 1.389 . S
C246 C247 1.387 . S
C247 C246 1.387 . S
C247 C248 1.372 . S
C248 H226 0.950 . S
C248 C247 1.372 . S
C248 C249 1.379 . S
C249 H227 0.948 . S
C249 C244 1.364 . S
C249 C248 1.379 . S
C250 C219 1.383 . S
C250 C237 1.479 . S
C250 C251 1.398 . S
C251 C216 1.382 . S
C251 H228 0.951 . S
C251 C250 1.398 . S
C252 C253 1.384 . S
C252 H265 0.947 . S
C252 C287 1.382 . S
C253 C252 1.384 . S
C253 C254 1.378 . S
C254 C253 1.378 . S
C254 C255 1.378 . S
C254 H266 0.952 . S
C255 C254 1.378 . S
C255 H267 0.950 . S
C255 C286 1.383 . S
H256 C275 0.947 . S
H257 C276 0.946 . S
H258 C278 0.953 . S
H259 C279 0.945 . S
H260 C281 0.952 . S
H261 C282 0.949 . S
H262 C284 0.950 . S
H263 C285 0.948 . S
H264 C287 0.951 . S
H265 C252 0.947 . S
H266 C254 0.952 . S
H267 C255 0.950 . S
N268 C271 1.382 . S
N268 C273 1.363 . S
N269 C271 1.371 . S
N269 C272 1.372 . S
N270 C272 1.361 . S
N270 C273 1.377 . S
C271 N268 1.382 . S
C271 N269 1.371 . S
C271 C274 1.480 . S
C272 N269 1.372 . S
C272 N270 1.361 . S
C272 C280 1.457 . S
C273 N268 1.363 . S
C273 N270 1.377 . S
C273 C286 1.479 . S
C274 C271 1.480 . S
C274 C275 1.383 . S
C274 C279 1.385 . S
C275 H256 0.947 . S
C275 C274 1.383 . S
C275 C276 1.388 . S
C276 H257 0.946 . S
C276 C275 1.388 . S
C276 C277 1.384 . S
C277 C276 1.384 . S
C277 C278 1.377 . S
C278 H258 0.953 . S
C278 C277 1.377 . S
C278 C279 1.369 . S
C279 H259 0.945 . S
C279 C274 1.385 . S
C279 C278 1.369 . S
C280 C272 1.457 . S
C280 C281 1.372 . S
C280 C285 1.364 . S
C281 H260 0.952 . S
C281 C280 1.372 . S
C281 C282 1.389 . S
C282 H261 0.949 . S
C282 C281 1.389 . S
C282 C283 1.387 . S
C283 C282 1.387 . S
C283 C284 1.372 . S
C284 H262 0.950 . S
C284 C283 1.372 . S
C284 C285 1.379 . S
C285 H263 0.948 . S
C285 C280 1.364 . S
C285 C284 1.379 . S
C286 C255 1.383 . S
C286 C273 1.479 . S
C286 C287 1.398 . S
C287 C252 1.382 . S
C287 H264 0.951 . S
C287 C286 1.398 . S
O288 Mn289 2.163 1_655 S
O288 C302 1.244 . S
Mn289 O288 2.163 1_455 S
Mn289 O292 2.160 1_545 S
Mn289 O293 2.221 . S
Mn289 O295 2.163 1_445 S
Mn289 O297 2.160 . S
Mn289 O307 2.221 1_445 S
O290 Mn291 2.087 1_545 S
O290 C302 1.256 . S
Mn291 O290 2.087 1_565 S
Mn291 O298 2.089 1_565 S
Mn291 O307 2.290 . S
Mn291 O308 2.251 . S
O292 Mn289 2.160 1_565 S
O292 C303 1.239 . S
O293 Mn289 2.221 . S
O293 Mn294 2.290 . S
O293 C304 1.278 . S
Mn294 O293 2.290 . S
Mn294 O296 2.089 1_545 S
Mn294 O299 2.251 . S
Mn294 O300 2.087 . S
O295 Mn289 2.163 1_665 S
O295 C305 1.244 . S
O296 Mn294 2.089 1_565 S
O296 C303 1.256 . S
O297 Mn289 2.160 . S
O297 C306 1.239 . S
O298 Mn291 2.089 1_545 S
O298 C306 1.256 1_655 S
O299 Mn294 2.251 . S
O299 C304 1.241 . S
O300 Mn294 2.087 . S
O300 C305 1.256 1_445 S
C301 O307 1.278 . S
C301 O308 1.241 . S
C302 O288 1.244 . S
C302 O290 1.256 . S
C303 O292 1.239 . S
C303 O296 1.256 . S
C304 O293 1.278 . S
C304 O299 1.241 . S
C305 O295 1.244 . S
C305 O300 1.256 1_665 S
C306 O297 1.239 . S
C306 O298 1.256 1_455 S
O307 Mn289 2.221 1_665 S
O307 Mn291 2.290 . S
O307 C301 1.278 . S
O308 Mn291 2.251 . S
O308 C301 1.241 . S
O309 Mn310 2.163 1_556 S
O309 C323 1.244 1_545 S
Mn310 O309 2.163 1_554 S
Mn310 O313 2.160 . S
Mn310 O314 2.215 1_554 S
Mn310 O316 2.163 . S
Mn310 O318 2.160 1_554 S
Mn310 O328 2.221 1_545 S
O311 Mn312 2.087 . S
O311 C323 1.256 . S
Mn312 O311 2.087 . S
Mn312 O319 2.089 . S
Mn312 O328 2.290 1_556 S
Mn312 O329 2.251 1_556 S
O313 Mn310 2.160 . S
O313 C324 1.239 . S
O314 Mn310 2.215 1_556 S
O314 Mn315 2.266 1_556 S
O314 C325 1.301 . S
Mn315 O314 2.266 1_554 S
Mn315 O317 2.089 . S
Mn315 O320 2.251 1_554 S
Mn315 O321 2.087 . S
O316 Mn310 2.163 . S
O316 C326 1.244 . S
O317 Mn315 2.089 . S
O317 C324 1.256 . S
O318 Mn310 2.160 1_556 S
O318 C327 1.239 1_545 S
O319 Mn312 2.089 . S
O319 C327 1.256 . S
O320 Mn315 2.251 1_556 S
O320 C325 1.241 . S
O321 Mn315 2.087 . S
O321 C326 1.256 . S
C322 O328 1.278 . S
C322 O329 1.241 . S
C323 O309 1.244 1_565 S
C323 O311 1.256 . S
C324 O313 1.239 . S
C324 O317 1.256 . S
C325 O314 1.301 . S
C325 O320 1.241 . S
C326 O316 1.244 . S
C326 O321 1.256 . S
C327 O318 1.239 1_565 S
C327 O319 1.256 . S
O328 Mn310 2.221 1_565 S
O328 Mn312 2.290 1_554 S
O328 C322 1.278 . S
O329 Mn312 2.251 1_554 S
O329 C322 1.241 . S
O330 Mn331 2.163 . S
O330 C344 1.244 . S
Mn331 O330 2.163 . S
Mn331 O334 2.160 . S
Mn331 O335 2.221 . S
Mn331 O337 2.163 . S
Mn331 O339 2.160 . S
Mn331 O349 2.221 . S
O332 Mn333 2.087 . S
O332 C344 1.256 . S
Mn333 O332 2.087 . S
Mn333 O340 2.089 . S
Mn333 O349 2.290 . S
Mn333 O350 2.251 . S
O334 Mn331 2.160 . S
O334 C345 1.239 . S
O335 Mn331 2.221 . S
O335 Mn336 2.290 . S
O335 C346 1.278 . S
Mn336 O335 2.290 . S
Mn336 O338 2.089 . S
Mn336 O341 2.251 . S
Mn336 O342 2.087 . S
O337 Mn331 2.163 . S
O337 C347 1.244 . S
O338 Mn336 2.089 . S
O338 C345 1.256 . S
O339 Mn331 2.160 . S
O339 C348 1.239 . S
O340 Mn333 2.089 . S
O340 C348 1.256 . S
O341 Mn336 2.251 . S
O341 C346 1.241 . S
O342 Mn336 2.087 . S
O342 C347 1.256 . S
C343 O349 1.278 . S
C343 O350 1.241 . S
C344 O330 1.244 . S
C344 O332 1.256 . S
C345 O334 1.239 . S
C345 O338 1.256 . S
C346 O335 1.278 . S
C346 O341 1.241 . S
C347 O337 1.244 . S
C347 O342 1.256 . S
C348 O339 1.239 . S
C348 O340 1.256 . S
O349 Mn331 2.221 . S
O349 Mn333 2.290 . S
O349 C343 1.278 . S
O350 Mn333 2.251 . S
O350 C343 1.241 . S
O351 Mn352 2.163 1_655 S
O351 C365 1.244 1_554 S
Mn352 O351 2.163 1_455 S
Mn352 O355 2.160 . S
Mn352 O356 2.221 1_455 S
Mn352 O358 2.163 . S
Mn352 O360 2.151 1_454 S
Mn352 O370 2.221 1_554 S
O353 Mn354 2.087 . S
O353 C365 1.256 . S
Mn354 O353 2.087 . S
Mn354 O361 2.089 . S
Mn354 O370 2.290 1_655 S
Mn354 O371 2.251 . S
O355 Mn352 2.160 . S
O355 C366 1.239 . S
O356 Mn352 2.221 1_655 S
O356 Mn357 2.290 1_655 S
O356 C367 1.278 . S
Mn357 O356 2.290 1_455 S
Mn357 O359 2.089 . S
Mn357 O362 2.251 1_455 S
Mn357 O363 2.087 . S
O358 Mn352 2.163 . S
O358 C368 1.244 . S
O359 Mn357 2.089 . S
O359 C366 1.256 . S
O360 Mn352 2.151 1_656 S
O360 C369 1.268 . S
O361 Mn354 2.089 . S
O361 C369 1.256 . S
O362 Mn357 2.251 1_655 S
O362 C367 1.241 . S
O363 Mn357 2.087 . S
O363 C368 1.256 . S
C364 O370 1.278 . S
C364 O371 1.241 1_455 S
C365 O351 1.244 1_556 S
C365 O353 1.256 . S
C366 O355 1.239 . S
C366 O359 1.256 . S
C367 O356 1.278 . S
C367 O362 1.241 . S
C368 O358 1.244 . S
C368 O363 1.256 . S
C369 O360 1.268 . S
C369 O361 1.256 . S
O370 Mn352 2.221 1_556 S
O370 Mn354 2.290 1_455 S
O370 C364 1.278 . S
O371 Mn354 2.251 . S
O371 C364 1.241 1_655 S
H372 C390 0.951 . S
H373 C392 0.951 . S
H374 C394 0.950 . S
H375 C395 0.950 . S
H376 C397 0.950 . S
H377 C400 0.950 . S
H378 C401 0.950 . S
H379 C403 0.950 1_565 S
H380 C404 0.950 . S
H381 C405 0.951 . S
H382 C407 0.951 . S
H383 C409 0.950 . S
H384 C410 0.925 1_565 S
H385 C412 0.950 . S
H386 C415 0.950 . S
H387 C416 0.950 . S
H388 C418 0.950 . S
H389 C419 0.950 . S
C390 H372 0.951 . S
C390 C391 1.366 . S
C390 C392 1.388 . S
C391 C390 1.366 . S
C391 C395 1.385 . S
C392 H373 0.951 . S
C392 C390 1.388 . S
C392 C393 1.366 . S
C393 C392 1.366 . S
C393 C394 1.414 . S
C393 C396 1.499 . S
C394 H374 0.950 . S
C394 C393 1.414 . S
C394 C395 1.374 . S
C395 H375 0.950 . S
C395 C391 1.385 . S
C395 C394 1.374 . S
C396 C393 1.499 . S
C396 C397 1.373 . S
C396 C398 1.389 . S
C397 H376 0.950 . S
C397 C396 1.373 . S
C397 C413 1.377 . S
C398 C396 1.389 . S
C398 C399 1.524 . S
C398 C412 1.377 . S
C399 C398 1.524 . S
C399 C400 1.397 . S
C399 C404 1.363 . S
C400 H377 0.950 . S
C400 C399 1.397 . S
C400 C401 1.334 . S
C401 H378 0.950 . S
C401 C400 1.334 . S
C401 C402 1.287 . S
C402 C401 1.287 . S
C402 C403 1.524 . S
C402 H421 0.929 . S
C403 H379 0.950 1_545 S
C403 C402 1.524 . S
C403 C404 1.415 . S
C404 H380 0.950 . S
C404 C399 1.363 . S
C404 C403 1.415 . S
C405 H381 0.951 . S
C405 C406 1.366 . S
C405 C407 1.388 . S
C406 C405 1.366 . S
C406 C410 1.385 . S
C407 H382 0.951 . S
C407 C405 1.388 . S
C407 C408 1.366 . S
C408 C407 1.366 . S
C408 C409 1.414 . S
C408 C411 1.499 . S
C409 H383 0.950 . S
C409 C408 1.414 . S
C409 C410 1.374 . S
C410 H384 0.925 1_545 S
C410 C406 1.385 . S
C410 C409 1.374 . S
C411 C408 1.499 . S
C411 C412 1.373 . S
C411 C413 1.389 . S
C412 H385 0.950 . S
C412 C398 1.377 . S
C412 C411 1.373 . S
C413 C397 1.377 . S
C413 C411 1.389 . S
C413 C414 1.524 . S
C414 C413 1.524 . S
C414 C415 1.397 . S
C414 C419 1.363 . S
C415 H386 0.950 . S
C415 C414 1.397 . S
C415 C416 1.334 . S
C416 H387 0.950 . S
C416 C415 1.334 . S
C416 C417 1.287 . S
C417 C416 1.287 . S
C417 C418 1.524 . S
C417 H420 0.999 . S
C418 H388 0.950 . S
C418 C417 1.524 . S
C418 C419 1.415 . S
C419 H389 0.950 . S
C419 C414 1.363 . S
C419 C418 1.415 . S
H420 C417 0.999 . S
H421 C402 0.929 . S
H422 C440 0.951 . S
H423 C442 0.951 . S
H424 C444 0.950 . S
H425 C445 0.950 . S
H426 C447 0.950 . S
H427 C450 0.950 . S
H428 C451 0.950 . S
H429 C453 0.950 . S
H430 C454 0.950 . S
H431 C455 0.951 . S
H432 C457 0.951 . S
H433 C459 0.950 . S
H434 C460 0.950 . S
H435 C462 0.950 . S
H436 C465 0.950 1_565 S
H437 C466 0.950 . S
H438 C468 0.950 . S
H439 C469 0.950 . S
C440 H422 0.951 . S
C440 C441 1.366 . S
C440 C442 1.388 . S
C441 C440 1.366 . S
C441 C445 1.385 . S
C442 H423 0.951 . S
C442 C440 1.388 . S
C442 C443 1.366 . S
C443 C442 1.366 . S
C443 C444 1.414 . S
C443 C446 1.499 . S
C444 H424 0.950 . S
C444 C443 1.414 . S
C444 C445 1.374 . S
C445 H425 0.950 . S
C445 C441 1.385 . S
C445 C444 1.374 . S
C446 C443 1.499 . S
C446 C447 1.373 . S
C446 C448 1.389 . S
C447 H426 0.950 . S
C447 C446 1.373 . S
C447 C463 1.377 . S
C448 C446 1.389 . S
C448 C449 1.524 . S
C448 C462 1.377 . S
C449 C448 1.524 . S
C449 C450 1.397 . S
C449 C454 1.363 . S
C450 H427 0.950 . S
C450 C449 1.397 . S
C450 C451 1.334 . S
C451 H428 0.950 . S
C451 C450 1.334 . S
C451 C452 1.287 . S
C452 C451 1.287 . S
C452 C453 1.524 . S
C452 H471 0.913 . S
C453 H429 0.950 . S
C453 C452 1.524 . S
C453 C454 1.415 . S
C454 H430 0.950 . S
C454 C449 1.363 . S
C454 C453 1.415 . S
C455 H431 0.951 . S
C455 C456 1.366 1_545 S
C455 C457 1.388 . S
C456 C455 1.366 1_565 S
C456 C460 1.385 . S
C457 H432 0.951 . S
C457 C455 1.388 . S
C457 C458 1.366 1_545 S
C458 C457 1.366 1_565 S
C458 C459 1.414 . S
C458 C461 1.499 . S
C459 H433 0.950 . S
C459 C458 1.414 . S
C459 C460 1.374 . S
C460 H434 0.950 . S
C460 C456 1.385 . S
C460 C459 1.374 . S
C461 C458 1.499 . S
C461 C462 1.373 . S
C461 C463 1.389 . S
C462 H435 0.950 . S
C462 C448 1.377 . S
C462 C461 1.373 . S
C463 C447 1.377 . S
C463 C461 1.389 . S
C463 C464 1.524 1_565 S
C464 C463 1.524 1_545 S
C464 C465 1.397 . S
C464 C469 1.363 . S
C465 H436 0.950 1_545 S
C465 C464 1.397 . S
C465 C466 1.334 . S
C466 H437 0.950 . S
C466 C465 1.334 . S
C466 C467 1.287 . S
C467 C466 1.287 . S
C467 C468 1.524 . S
C467 H470 0.999 . S
C468 H438 0.950 . S
C468 C467 1.524 . S
C468 C469 1.415 . S
C469 H439 0.950 . S
C469 C464 1.363 . S
C469 C468 1.415 . S
H470 C467 0.999 . S
H471 C452 0.913 . S
H472 C490 0.951 . S
H473 C492 0.951 . S
H474 C494 0.950 . S
H475 C495 0.950 . S
H476 C497 0.950 . S
H477 C500 0.950 . S
H478 C501 0.950 . S
H479 C503 0.950 . S
H480 C504 0.950 . S
H481 C505 0.951 . S
H482 C507 0.951 . S
H483 C509 0.950 . S
H484 C510 0.950 . S
H485 C512 0.950 . S
H486 C515 0.950 . S
H487 C516 0.950 . S
H488 C518 0.950 . S
H489 C519 0.950 . S
C490 H472 0.951 . S
C490 C491 1.366 . S
C490 C492 1.388 . S
C491 C490 1.366 . S
C491 C495 1.385 . S
C492 H473 0.951 . S
C492 C490 1.388 . S
C492 C493 1.366 . S
C493 C492 1.366 . S
C493 C494 1.414 . S
C493 C496 1.499 . S
C494 H474 0.950 . S
C494 C493 1.414 . S
C494 C495 1.374 . S
C495 H475 0.950 . S
C495 C491 1.385 . S
C495 C494 1.374 . S
C496 C493 1.499 . S
C496 C497 1.373 . S
C496 C498 1.389 . S
C497 H476 0.950 . S
C497 C496 1.373 . S
C497 C513 1.377 . S
C498 C496 1.389 . S
C498 C499 1.524 . S
C498 C512 1.377 . S
C499 C498 1.524 . S
C499 C500 1.397 . S
C499 C504 1.363 . S
C500 H477 0.950 . S
C500 C499 1.397 . S
C500 C501 1.334 . S
C501 H478 0.950 . S
C501 C500 1.334 . S
C501 C502 1.287 . S
C502 C501 1.287 . S
C502 C503 1.524 . S
C502 H521 0.913 . S
C503 H479 0.950 . S
C503 C502 1.524 . S
C503 C504 1.415 . S
C504 H480 0.950 . S
C504 C499 1.363 . S
C504 C503 1.415 . S
C505 H481 0.951 . S
C505 C506 1.366 . S
C505 C507 1.388 . S
C506 C505 1.366 . S
C506 C510 1.385 . S
C507 H482 0.951 . S
C507 C505 1.388 . S
C507 C508 1.366 . S
C508 C507 1.366 . S
C508 C509 1.414 . S
C508 C511 1.499 . S
C509 H483 0.950 . S
C509 C508 1.414 . S
C509 C510 1.374 . S
C510 H484 0.950 . S
C510 C506 1.385 . S
C510 C509 1.374 . S
C511 C508 1.499 . S
C511 C512 1.373 . S
C511 C513 1.389 . S
C512 H485 0.950 . S
C512 C498 1.377 . S
C512 C511 1.373 . S
C513 C497 1.377 . S
C513 C511 1.389 . S
C513 C514 1.524 . S
C514 C513 1.524 . S
C514 C515 1.397 . S
C514 C519 1.363 . S
C515 H486 0.950 . S
C515 C514 1.397 . S
C515 C516 1.334 . S
C516 H487 0.950 . S
C516 C515 1.334 . S
C516 C517 1.287 . S
C517 C516 1.287 . S
C517 C518 1.524 . S
C517 H520 0.999 . S
C518 H488 0.950 . S
C518 C517 1.524 . S
C518 C519 1.415 . S
C519 H489 0.950 . S
C519 C514 1.363 . S
C519 C518 1.415 . S
H520 C517 0.999 . S
H521 C502 0.913 . S
H522 C540 0.951 . S
H523 C542 0.951 . S
H524 C544 0.950 . S
H525 C545 0.950 . S
H526 C547 0.950 . S
H527 C550 0.950 . S
H528 C551 0.950 . S
H529 C553 0.950 . S
H530 C554 0.950 . S
H531 C555 0.959 . S
H532 C557 0.951 . S
H533 C559 0.950 . S
H534 C560 0.950 . S
H535 C562 0.950 . S
H536 C565 0.950 . S
H537 C566 0.950 . S
H538 C568 0.950 . S
H539 C569 0.950 . S
C540 H522 0.951 . S
C540 C541 1.366 . S
C540 C542 1.388 . S
C541 C540 1.366 . S
C541 C545 1.385 . S
C542 H523 0.951 . S
C542 C540 1.388 . S
C542 C543 1.366 . S
C543 C542 1.366 . S
C543 C544 1.414 . S
C543 C546 1.499 . S
C544 H524 0.950 . S
C544 C543 1.414 . S
C544 C545 1.374 . S
C545 H525 0.950 . S
C545 C541 1.385 . S
C545 C544 1.374 . S
C546 C543 1.499 . S
C546 C547 1.373 . S
C546 C548 1.389 . S
C547 H526 0.950 . S
C547 C546 1.373 . S
C547 C563 1.377 . S
C548 C546 1.389 . S
C548 C549 1.524 . S
C548 C562 1.377 . S
C549 C548 1.524 . S
C549 C550 1.397 . S
C549 C554 1.363 . S
C550 H527 0.950 . S
C550 C549 1.397 . S
C550 C551 1.334 . S
C551 H528 0.950 . S
C551 C550 1.334 . S
C551 C552 1.287 . S
C552 C551 1.287 . S
C552 C553 1.524 . S
C552 H571 0.913 . S
C553 H529 0.950 . S
C553 C552 1.524 . S
C553 C554 1.415 . S
C554 H530 0.950 . S
C554 C549 1.363 . S
C554 C553 1.415 . S
C555 H531 0.959 . S
C555 C556 1.366 . S
C555 C557 1.388 . S
C556 C555 1.366 . S
C556 C560 1.385 . S
C557 H532 0.951 . S
C557 C555 1.388 . S
C557 C558 1.366 . S
C558 C557 1.366 . S
C558 C559 1.414 . S
C558 C561 1.499 . S
C559 H533 0.950 . S
C559 C558 1.414 . S
C559 C560 1.374 . S
C560 H534 0.950 . S
C560 C556 1.385 . S
C560 C559 1.374 . S
C561 C558 1.499 . S
C561 C562 1.373 . S
C561 C563 1.389 . S
C562 H535 0.950 . S
C562 C548 1.377 . S
C562 C561 1.373 . S
C563 C547 1.377 . S
C563 C561 1.389 . S
C563 C564 1.524 . S
C564 C563 1.524 . S
C564 C565 1.397 . S
C564 C569 1.364 1_655 S
C565 H536 0.950 . S
C565 C564 1.397 . S
C565 C566 1.334 . S
C566 H537 0.950 . S
C566 C565 1.334 . S
C566 C567 1.287 1_655 S
C567 C566 1.287 1_455 S
C567 C568 1.524 . S
C567 H570 0.999 . S
C568 H538 0.950 . S
C568 C567 1.524 . S
C568 C569 1.414 . S
C569 H539 0.950 . S
C569 C564 1.364 1_455 S
C569 C568 1.414 . S
H570 C567 0.999 . S
H571 C552 0.913 . S
H572 C590 0.951 . S
H573 C592 0.951 . S
H574 C594 0.950 . S
H575 C595 0.950 . S
H576 C597 0.950 . S
H577 C600 0.950 . S
H578 C601 0.950 . S
H579 C603 0.950 . S
H580 C604 0.950 . S
H581 C605 0.951 . S
H582 C607 0.951 . S
H583 C609 0.950 . S
H584 C610 0.950 . S
H585 C612 0.950 . S
H586 C615 0.950 . S
H587 C616 0.950 . S
H588 C618 0.950 . S
H589 C619 0.963 . S
C590 H572 0.951 . S
C590 C591 1.366 . S
C590 C592 1.388 . S
C591 C590 1.366 . S
C591 C595 1.385 . S
C592 H573 0.951 . S
C592 C590 1.388 . S
C592 C593 1.366 . S
C593 C592 1.366 . S
C593 C594 1.414 . S
C593 C596 1.499 . S
C594 H574 0.950 . S
C594 C593 1.414 . S
C594 C595 1.374 . S
C595 H575 0.950 . S
C595 C591 1.385 . S
C595 C594 1.374 . S
C596 C593 1.499 . S
C596 C597 1.373 . S
C596 C598 1.389 . S
C597 H576 0.950 . S
C597 C596 1.373 . S
C597 C613 1.377 . S
C598 C596 1.389 . S
C598 C599 1.524 . S
C598 C612 1.377 . S
C599 C598 1.524 . S
C599 C600 1.397 . S
C599 C604 1.363 . S
C600 H577 0.950 . S
C600 C599 1.397 . S
C600 C601 1.334 . S
C601 H578 0.950 . S
C601 C600 1.334 . S
C601 C602 1.287 . S
C602 C601 1.287 . S
C602 C603 1.524 . S
C602 H621 0.913 . S
C603 H579 0.950 . S
C603 C602 1.524 . S
C603 C604 1.415 . S
C604 H580 0.950 . S
C604 C599 1.363 . S
C604 C603 1.415 . S
C605 H581 0.951 . S
C605 C606 1.366 . S
C605 C607 1.388 . S
C606 C605 1.366 . S
C606 C610 1.385 . S
C607 H582 0.951 . S
C607 C605 1.388 . S
C607 C608 1.366 . S
C608 C607 1.366 . S
C608 C609 1.414 . S
C608 C611 1.499 . S
C609 H583 0.950 . S
C609 C608 1.414 . S
C609 C610 1.374 . S
C610 H584 0.950 . S
C610 C606 1.385 . S
C610 C609 1.374 . S
C611 C608 1.499 . S
C611 C612 1.373 . S
C611 C613 1.389 . S
C612 H585 0.950 . S
C612 C598 1.377 . S
C612 C611 1.373 . S
C613 C597 1.377 . S
C613 C611 1.389 . S
C613 C614 1.524 . S
C614 C613 1.524 . S
C614 C615 1.397 . S
C614 C619 1.379 . S
C615 H586 0.950 . S
C615 C614 1.397 . S
C615 C616 1.334 1_545 S
C616 H587 0.950 . S
C616 C615 1.334 1_565 S
C616 C617 1.287 . S
C617 C616 1.287 . S
C617 C618 1.524 . S
C617 H620 0.999 . S
C618 H588 0.950 . S
C618 C617 1.524 . S
C618 C619 1.387 1_565 S
C619 H589 0.963 . S
C619 C614 1.379 . S
C619 C618 1.387 1_545 S
H620 C617 0.999 . S
H621 C602 0.913 . S
H622 C640 0.951 . S
H623 C642 0.951 . S
H624 C644 0.950 . S
H625 C645 0.950 . S
H626 C647 0.950 . S
H627 C650 0.950 . S
H628 C651 0.950 . S
H629 C653 0.950 . S
H630 C654 0.931 1_545 S
H631 C655 0.951 . S
H632 C657 0.951 . S
H633 C659 0.943 1_545 S
H634 C660 0.950 1_545 S
H635 C662 0.950 . S
H636 C665 0.950 . S
H637 C666 0.950 . S
H638 C668 0.950 . S
H639 C669 0.950 . S
C640 H622 0.951 . S
C640 C641 1.366 . S
C640 C642 1.388 . S
C641 C640 1.366 . S
C641 C645 1.385 . S
C642 H623 0.951 . S
C642 C640 1.388 . S
C642 C643 1.366 . S
C643 C642 1.366 . S
C643 C644 1.414 . S
C643 C646 1.499 . S
C644 H624 0.950 . S
C644 C643 1.414 . S
C644 C645 1.374 . S
C645 H625 0.950 . S
C645 C641 1.385 . S
C645 C644 1.374 . S
C646 C643 1.499 . S
C646 C647 1.373 . S
C646 C648 1.389 . S
C647 H626 0.950 . S
C647 C646 1.373 . S
C647 C663 1.377 . S
C648 C646 1.389 . S
C648 C649 1.524 . S
C648 C662 1.377 . S
C649 C648 1.524 . S
C649 C650 1.397 . S
C649 C654 1.394 . S
C650 H627 0.950 . S
C650 C649 1.397 . S
C650 C651 1.334 . S
C651 H628 0.950 . S
C651 C650 1.334 . S
C651 C652 1.287 . S
C652 C651 1.287 . S
C652 C653 1.524 1_565 S
C652 H671 0.913 . S
C653 H629 0.950 . S
C653 C652 1.524 1_545 S
C653 C654 1.403 1_545 S
C654 H630 0.931 1_565 S
C654 C649 1.394 . S
C654 C653 1.403 1_565 S
C655 H631 0.951 . S
C655 C656 1.366 . S
C655 C657 1.388 . S
C656 C655 1.366 . S
C656 C660 1.385 . S
C657 H632 0.951 . S
C657 C655 1.388 . S
C657 C658 1.366 . S
C658 C657 1.366 . S
C658 C659 1.414 . S
C658 C661 1.499 . S
C659 H633 0.943 1_565 S
C659 C658 1.414 . S
C659 C660 1.374 . S
C660 H634 0.950 1_565 S
C660 C656 1.385 . S
C660 C659 1.374 . S
C661 C658 1.499 . S
C661 C662 1.373 . S
C661 C663 1.389 . S
C662 H635 0.950 . S
C662 C648 1.377 . S
C662 C661 1.373 . S
C663 C647 1.377 . S
C663 C661 1.389 . S
C663 C664 1.524 . S
C664 C663 1.524 . S
C664 C665 1.397 . S
C664 C669 1.363 . S
C665 H636 0.950 . S
C665 C664 1.397 . S
C665 C666 1.334 . S
C666 H637 0.950 . S
C666 C665 1.334 . S
C666 C667 1.287 . S
C667 C666 1.287 . S
C667 C668 1.524 . S
C667 H670 0.999 . S
C668 H638 0.950 . S
C668 C667 1.524 . S
C668 C669 1.415 . S
C669 H639 0.950 . S
C669 C664 1.363 . S
C669 C668 1.415 . S
H670 C667 0.999 . S
H671 C652 0.913 . S
H672 C690 0.951 . S
H673 C692 0.951 . S
H674 C694 0.950 . S
H675 C695 0.950 . S
H676 C697 0.950 . S
H677 C700 0.950 . S
H678 C701 0.950 . S
H679 C703 0.950 1_554 S
H680 C704 0.946 1_554 S
H681 C705 0.951 . S
H682 C707 0.951 . S
H683 C709 0.950 1_554 S
H684 C710 0.950 . S
H685 C712 0.950 . S
H686 C715 0.950 . S
H687 C716 0.950 . S
H688 C718 0.950 . S
H689 C719 0.950 . S
C690 H672 0.951 . S
C690 C691 1.366 . S
C690 C692 1.388 . S
C691 C690 1.366 . S
C691 C695 1.385 . S
C692 H673 0.951 . S
C692 C690 1.388 . S
C692 C693 1.366 . S
C693 C692 1.366 . S
C693 C694 1.414 . S
C693 C696 1.499 . S
C694 H674 0.950 . S
C694 C693 1.414 . S
C694 C695 1.374 . S
C695 H675 0.950 . S
C695 C691 1.385 . S
C695 C694 1.374 . S
C696 C693 1.499 . S
C696 C697 1.373 . S
C696 C698 1.389 . S
C697 H676 0.950 . S
C697 C696 1.373 . S
C697 C713 1.377 . S
C698 C696 1.389 . S
C698 C699 1.524 . S
C698 C712 1.377 . S
C699 C698 1.524 . S
C699 C700 1.397 . S
C699 C704 1.363 . S
C700 H677 0.950 . S
C700 C699 1.397 . S
C700 C701 1.334 . S
C701 H678 0.950 . S
C701 C700 1.334 . S
C701 C702 1.287 . S
C702 C701 1.287 . S
C702 C703 1.524 . S
C702 H721 0.913 . S
C703 H679 0.950 1_556 S
C703 C702 1.524 . S
C703 C704 1.415 . S
C704 H680 0.946 1_556 S
C704 C699 1.363 . S
C704 C703 1.415 . S
C705 H681 0.951 . S
C705 C706 1.366 . S
C705 C707 1.388 . S
C706 C705 1.366 . S
C706 C710 1.385 1_556 S
C707 H682 0.951 . S
C707 C705 1.388 . S
C707 C708 1.366 . S
C708 C707 1.366 . S
C708 C709 1.414 . S
C708 C711 1.499 . S
C709 H683 0.950 1_556 S
C709 C708 1.414 . S
C709 C710 1.374 1_556 S
C710 H684 0.950 . S
C710 C706 1.385 1_554 S
C710 C709 1.374 1_554 S
C711 C708 1.499 . S
C711 C712 1.373 . S
C711 C713 1.389 . S
C712 H685 0.950 . S
C712 C698 1.377 . S
C712 C711 1.373 . S
C713 C697 1.377 . S
C713 C711 1.389 . S
C713 C714 1.524 . S
C714 C713 1.524 . S
C714 C715 1.397 . S
C714 C719 1.363 . S
C715 H686 0.950 . S
C715 C714 1.397 . S
C715 C716 1.334 . S
C716 H687 0.950 . S
C716 C715 1.334 . S
C716 C717 1.287 . S
C717 C716 1.287 . S
C717 C718 1.524 . S
C717 H720 0.999 . S
C718 H688 0.950 . S
C718 C717 1.524 . S
C718 C719 1.415 . S
C719 H689 0.950 . S
C719 C714 1.363 . S
C719 C718 1.415 . S
H720 C717 0.999 . S
H721 C702 0.913 . S
H722 C740 0.951 . S
H723 C742 0.951 . S
H724 C744 0.950 . S
H725 C745 0.950 . S
H726 C747 0.950 . S
H727 C750 0.950 . S
H728 C751 0.950 . S
H729 C753 0.950 . S
H730 C754 0.950 . S
H731 C755 0.951 . S
H732 C757 0.951 . S
H733 C759 0.950 . S
H734 C760 0.950 . S
H735 C762 0.950 . S
H736 C765 0.950 . S
H737 C766 0.950 . S
H738 C768 0.950 . S
H739 C769 0.950 . S
C740 H722 0.951 . S
C740 C741 1.366 . S
C740 C742 1.388 . S
C741 C740 1.366 . S
C741 C745 1.385 . S
C742 H723 0.951 . S
C742 C740 1.388 . S
C742 C743 1.366 . S
C743 C742 1.366 . S
C743 C744 1.414 . S
C743 C746 1.499 . S
C744 H724 0.950 . S
C744 C743 1.414 . S
C744 C745 1.374 . S
C745 H725 0.950 . S
C745 C741 1.385 . S
C745 C744 1.374 . S
C746 C743 1.499 . S
C746 C747 1.373 . S
C746 C748 1.389 . S
C747 H726 0.950 . S
C747 C746 1.373 . S
C747 C763 1.377 . S
C748 C746 1.389 . S
C748 C749 1.524 . S
C748 C762 1.377 . S
C749 C748 1.524 . S
C749 C750 1.397 . S
C749 C754 1.363 . S
C750 H727 0.950 . S
C750 C749 1.397 . S
C750 C751 1.334 . S
C751 H728 0.950 . S
C751 C750 1.334 . S
C751 C752 1.287 . S
C752 C751 1.287 . S
C752 C753 1.524 . S
C752 H771 0.913 . S
C753 H729 0.950 . S
C753 C752 1.524 . S
C753 C754 1.415 . S
C754 H730 0.950 . S
C754 C749 1.363 . S
C754 C753 1.415 . S
C755 H731 0.951 . S
C755 C756 1.366 . S
C755 C757 1.388 . S
C756 C755 1.366 . S
C756 C760 1.385 . S
C757 H732 0.951 . S
C757 C755 1.388 . S
C757 C758 1.366 . S
C758 C757 1.366 . S
C758 C759 1.414 . S
C758 C761 1.499 . S
C759 H733 0.950 . S
C759 C758 1.414 . S
C759 C760 1.374 . S
C760 H734 0.950 . S
C760 C756 1.385 . S
C760 C759 1.374 . S
C761 C758 1.499 . S
C761 C762 1.373 . S
C761 C763 1.389 . S
C762 H735 0.950 . S
C762 C748 1.377 . S
C762 C761 1.373 . S
C763 C747 1.377 . S
C763 C761 1.389 . S
C763 C764 1.524 . S
C764 C763 1.524 . S
C764 C765 1.397 . S
C764 C769 1.363 . S
C765 H736 0.950 . S
C765 C764 1.397 . S
C765 C766 1.334 . S
C766 H737 0.950 . S
C766 C765 1.334 . S
C766 C767 1.287 . S
C767 C766 1.287 . S
C767 C768 1.524 . S
C767 H770 0.999 . S
C768 H738 0.950 . S
C768 C767 1.524 . S
C768 C769 1.415 . S
C769 H739 0.950 . S
C769 C764 1.363 . S
C769 C768 1.415 . S
H770 C767 0.999 . S
H771 C752 0.913 . S
H772 C790 0.951 . S
H773 C792 0.951 . S
H774 C794 0.950 . S
H775 C795 0.950 . S
H776 C797 0.950 . S
H777 C800 0.950 . S
H778 C801 0.950 . S
H779 C803 0.950 1_656 S
H780 C804 0.950 . S
H781 C805 0.951 . S
H782 C807 0.951 . S
H783 C809 0.950 . S
H784 C810 0.950 1_655 S
H785 C812 0.950 . S
H786 C815 0.950 . S
H787 C816 0.950 . S
H788 C818 0.950 . S
H789 C819 0.950 . S
C790 H772 0.951 . S
C790 C791 1.366 . S
C790 C792 1.388 . S
C791 C790 1.366 . S
C791 C795 1.385 . S
C792 H773 0.951 . S
C792 C790 1.388 . S
C792 C793 1.366 . S
C793 C792 1.366 . S
C793 C794 1.414 . S
C793 C796 1.499 . S
C794 H774 0.950 . S
C794 C793 1.414 . S
C794 C795 1.374 . S
C795 H775 0.950 . S
C795 C791 1.385 . S
C795 C794 1.374 . S
C796 C793 1.499 . S
C796 C797 1.373 . S
C796 C798 1.389 . S
C797 H776 0.950 . S
C797 C796 1.373 . S
C797 C813 1.377 . S
C798 C796 1.389 . S
C798 C799 1.524 . S
C798 C812 1.377 . S
C799 C798 1.524 . S
C799 C800 1.397 . S
C799 C804 1.363 . S
C800 H777 0.950 . S
C800 C799 1.397 . S
C800 C801 1.334 1_554 S
C801 H778 0.950 . S
C801 C800 1.334 1_556 S
C801 C802 1.287 . S
C802 C801 1.287 . S
C802 C803 1.524 1_556 S
C802 H821 0.913 . S
C803 H779 0.950 1_454 S
C803 C802 1.524 1_554 S
C803 C804 1.415 . S
C804 H780 0.950 . S
C804 C799 1.363 . S
C804 C803 1.415 . S
C805 H781 0.951 . S
C805 C806 1.366 . S
C805 C807 1.388 . S
C806 C805 1.366 . S
C806 C810 1.385 . S
C807 H782 0.951 . S
C807 C805 1.388 . S
C807 C808 1.366 . S
C808 C807 1.366 . S
C808 C809 1.414 . S
C808 C811 1.499 . S
C809 H783 0.950 . S
C809 C808 1.414 . S
C809 C810 1.374 . S
C810 H784 0.950 1_455 S
C810 C806 1.385 . S
C810 C809 1.374 . S
C811 C808 1.499 . S
C811 C812 1.373 . S
C811 C813 1.389 . S
C812 H785 0.950 . S
C812 C798 1.377 . S
C812 C811 1.373 . S
C813 C797 1.377 . S
C813 C811 1.389 . S
C813 C814 1.524 . S
C814 C813 1.524 . S
C814 C815 1.397 . S
C814 C819 1.363 . S
C815 H786 0.950 . S
C815 C814 1.397 . S
C815 C816 1.334 . S
C816 H787 0.950 . S
C816 C815 1.334 . S
C816 C817 1.287 . S
C817 C816 1.287 . S
C817 C818 1.524 . S
C817 H820 0.999 . S
C818 H788 0.950 . S
C818 C817 1.524 . S
C818 C819 1.415 . S
C819 H789 0.950 . S
C819 C814 1.363 . S
C819 C818 1.415 . S
H820 C817 0.999 . S
H821 C802 0.913 . S
H822 C840 0.951 . S
H823 C842 0.951 . S
H824 C844 0.950 . S
H825 C845 0.950 . S
H826 C847 0.950 . S
H827 C850 0.950 . S
H828 C851 0.950 . S
H829 C853 0.950 . S
H830 C854 0.950 . S
H831 C855 0.951 . S
H832 C857 0.951 . S
H833 C859 0.950 . S
H834 C860 0.950 . S
H835 C862 0.950 . S
H836 C865 0.950 . S
H837 C866 0.950 . S
H838 C868 0.950 . S
H839 C869 0.950 . S
C840 H822 0.951 . S
C840 C841 1.366 . S
C840 C842 1.388 . S
C841 C840 1.366 . S
C841 C845 1.385 . S
C842 H823 0.951 . S
C842 C840 1.388 . S
C842 C843 1.366 . S
C843 C842 1.366 . S
C843 C844 1.414 . S
C843 C846 1.499 . S
C844 H824 0.950 . S
C844 C843 1.414 . S
C844 C845 1.374 . S
C845 H825 0.950 . S
C845 C841 1.385 . S
C845 C844 1.374 . S
C846 C843 1.499 . S
C846 C847 1.373 . S
C846 C848 1.389 . S
C847 H826 0.950 . S
C847 C846 1.373 . S
C847 C863 1.377 . S
C848 C846 1.389 . S
C848 C849 1.524 . S
C848 C862 1.377 . S
C849 C848 1.524 . S
C849 C850 1.397 . S
C849 C854 1.363 . S
C850 H827 0.950 . S
C850 C849 1.397 . S
C850 C851 1.334 . S
C851 H828 0.950 . S
C851 C850 1.334 . S
C851 C852 1.287 . S
C852 C851 1.287 . S
C852 C853 1.524 . S
C852 H871 0.913 . S
C853 H829 0.950 . S
C853 C852 1.524 . S
C853 C854 1.415 . S
C854 H830 0.950 . S
C854 C849 1.363 . S
C854 C853 1.415 . S
C855 H831 0.951 . S
C855 C856 1.366 . S
C855 C857 1.388 . S
C856 C855 1.366 . S
C856 C860 1.385 . S
C857 H832 0.951 . S
C857 C855 1.388 . S
C857 C858 1.366 . S
C858 C857 1.366 . S
C858 C859 1.414 . S
C858 C861 1.499 . S
C859 H833 0.950 . S
C859 C858 1.414 . S
C859 C860 1.374 . S
C860 H834 0.950 . S
C860 C856 1.385 . S
C860 C859 1.374 . S
C861 C858 1.499 . S
C861 C862 1.373 . S
C861 C863 1.389 . S
C862 H835 0.950 . S
C862 C848 1.377 . S
C862 C861 1.373 . S
C863 C847 1.377 . S
C863 C861 1.389 . S
C863 C864 1.524 . S
C864 C863 1.524 . S
C864 C865 1.397 . S
C864 C869 1.363 . S
C865 H836 0.950 . S
C865 C864 1.397 . S
C865 C866 1.334 . S
C866 H837 0.950 . S
C866 C865 1.334 . S
C866 C867 1.287 . S
C867 C866 1.287 . S
C867 C868 1.524 . S
C867 H870 0.999 . S
C868 H838 0.950 . S
C868 C867 1.524 . S
C868 C869 1.415 . S
C869 H839 0.950 . S
C869 C864 1.363 . S
C869 C868 1.415 . S
H870 C867 0.999 . S
H871 C852 0.913 . S
H872 C890 0.951 . S
H873 C892 0.951 . S
H874 C894 0.950 . S
H875 C895 0.950 . S
H876 C897 0.950 . S
H877 C900 0.950 . S
H878 C901 0.950 . S
H879 C903 0.950 . S
H880 C904 0.950 . S
H881 C905 0.951 1_455 S
H882 C907 0.951 . S
H883 C909 0.950 . S
H884 C910 0.950 . S
H885 C912 0.950 . S
H886 C915 0.950 . S
H887 C916 0.950 . S
H888 C918 0.952 . S
H889 C919 0.950 . S
C890 H872 0.951 . S
C890 C891 1.366 . S
C890 C892 1.388 . S
C891 C890 1.366 . S
C891 C895 1.385 . S
C892 H873 0.951 . S
C892 C890 1.388 . S
C892 C893 1.366 . S
C893 C892 1.366 . S
C893 C894 1.414 . S
C893 C896 1.499 . S
C894 H874 0.950 . S
C894 C893 1.414 . S
C894 C895 1.374 . S
C895 H875 0.950 . S
C895 C891 1.385 . S
C895 C894 1.374 . S
C896 C893 1.499 . S
C896 C897 1.373 . S
C896 C898 1.389 . S
C897 H876 0.950 . S
C897 C896 1.373 . S
C897 C913 1.377 . S
C898 C896 1.389 . S
C898 C899 1.524 . S
C898 C912 1.377 . S
C899 C898 1.524 . S
C899 C900 1.397 . S
C899 C904 1.363 . S
C900 H877 0.950 . S
C900 C899 1.397 . S
C900 C901 1.334 . S
C901 H878 0.950 . S
C901 C900 1.334 . S
C901 C902 1.287 . S
C902 C901 1.287 . S
C902 C903 1.524 . S
C902 H921 0.913 . S
C903 H879 0.950 . S
C903 C902 1.524 . S
C903 C904 1.415 . S
C904 H880 0.950 . S
C904 C899 1.363 . S
C904 C903 1.415 . S
C905 H881 0.951 1_655 S
C905 C906 1.366 . S
C905 C907 1.388 . S
C906 C905 1.366 . S
C906 C910 1.385 . S
C907 H882 0.951 . S
C907 C905 1.388 . S
C907 C908 1.366 . S
C908 C907 1.366 . S
C908 C909 1.414 . S
C908 C911 1.499 . S
C909 H883 0.950 . S
C909 C908 1.414 . S
C909 C910 1.374 . S
C910 H884 0.950 . S
C910 C906 1.385 . S
C910 C909 1.374 . S
C911 C908 1.499 . S
C911 C912 1.373 . S
C911 C913 1.389 . S
C912 H885 0.950 . S
C912 C898 1.377 . S
C912 C911 1.373 . S
C913 C897 1.377 . S
C913 C911 1.389 . S
C913 C914 1.524 . S
C914 C913 1.524 . S
C914 C915 1.397 . S
C914 C919 1.363 . S
C915 H886 0.950 . S
C915 C914 1.397 . S
C915 C916 1.334 . S
C916 H887 0.950 . S
C916 C915 1.334 . S
C916 C917 1.287 . S
C917 C916 1.287 . S
C917 C918 1.522 1_655 S
C917 H920 0.999 . S
C918 H888 0.952 . S
C918 C917 1.522 1_455 S
C918 C919 1.414 1_455 S
C919 H889 0.950 . S
C919 C914 1.363 . S
C919 C918 1.414 1_655 S
H920 C917 0.999 . S
H921 C902 0.913 . S
H922 C940 0.951 . S
H923 C942 0.951 . S
H924 C944 0.950 . S
H925 C945 0.950 . S
H926 C947 0.950 . S
H927 C950 0.950 . S
H928 C951 0.950 . S
H929 C953 0.950 . S
H930 C954 0.950 . S
H931 C955 0.951 . S
H932 C957 0.951 . S
H933 C959 0.950 . S
H934 C960 0.950 . S
H935 C962 0.950 . S
H936 C965 0.950 . S
H937 C966 0.950 . S
H938 C968 0.950 . S
H939 C969 0.950 . S
C940 H922 0.951 . S
C940 C941 1.366 . S
C940 C942 1.388 . S
C941 C940 1.366 . S
C941 C945 1.385 . S
C942 H923 0.951 . S
C942 C940 1.388 . S
C942 C943 1.366 . S
C943 C942 1.366 . S
C943 C944 1.414 . S
C943 C946 1.499 . S
C944 H924 0.950 . S
C944 C943 1.414 . S
C944 C945 1.374 . S
C945 H925 0.950 . S
C945 C941 1.385 . S
C945 C944 1.374 . S
C946 C943 1.499 . S
C946 C947 1.373 . S
C946 C948 1.389 . S
C947 H926 0.950 . S
C947 C946 1.373 . S
C947 C963 1.377 . S
C948 C946 1.389 . S
C948 C949 1.524 . S
C948 C962 1.377 . S
C949 C948 1.524 . S
C949 C950 1.397 . S
C949 C954 1.363 . S
C950 H927 0.950 . S
C950 C949 1.397 . S
C950 C951 1.334 . S
C951 H928 0.950 . S
C951 C950 1.334 . S
C951 C952 1.287 . S
C952 C951 1.287 . S
C952 C953 1.524 . S
C952 H971 0.913 . S
C953 H929 0.950 . S
C953 C952 1.524 . S
C953 C954 1.415 . S
C954 H930 0.950 . S
C954 C949 1.363 . S
C954 C953 1.415 . S
C955 H931 0.951 . S
C955 C956 1.366 . S
C955 C957 1.388 . S
C956 C955 1.366 . S
C956 C960 1.385 . S
C957 H932 0.951 . S
C957 C955 1.388 . S
C957 C958 1.366 . S
C958 C957 1.366 . S
C958 C959 1.414 . S
C958 C961 1.499 . S
C959 H933 0.950 . S
C959 C958 1.414 . S
C959 C960 1.374 . S
C960 H934 0.950 . S
C960 C956 1.385 . S
C960 C959 1.374 . S
C961 C958 1.499 . S
C961 C962 1.373 . S
C961 C963 1.389 . S
C962 H935 0.950 . S
C962 C948 1.377 . S
C962 C961 1.373 . S
C963 C947 1.377 . S
C963 C961 1.389 . S
C963 C964 1.524 . S
C964 C963 1.524 . S
C964 C965 1.397 . S
C964 C969 1.363 . S
C965 H936 0.950 . S
C965 C964 1.397 . S
C965 C966 1.334 . S
C966 H937 0.950 . S
C966 C965 1.334 . S
C966 C967 1.287 . S
C967 C966 1.287 . S
C967 C968 1.524 . S
C967 H970 0.999 . S
C968 H938 0.950 . S
C968 C967 1.524 . S
C968 C969 1.415 . S
C969 H939 0.950 . S
C969 C964 1.363 . S
C969 C968 1.415 . S
H970 C967 0.999 . S
H971 C952 0.913 . S
H972 C990 0.951 . S
H973 C992 0.951 . S
H974 C994 0.950 . S
H975 C995 0.950 . S
H976 C997 0.950 . S
H977 C1000 0.950 . S
H978 C1001 0.950 . S
H979 C1003 0.950 . S
H980 C1004 0.950 . S
H981 C1005 0.951 . S
H982 C1007 0.951 . S
H983 C1009 0.950 1_545 S
H984 C1010 0.950 1_545 S
H985 C1012 0.950 . S
H986 C1015 0.950 . S
H987 C1016 0.950 . S
H988 C1018 0.950 . S
H989 C1019 0.950 . S
C990 H972 0.951 . S
C990 C991 1.366 . S
C990 C992 1.388 . S
C991 C990 1.366 . S
C991 C995 1.385 . S
C992 H973 0.951 . S
C992 C990 1.388 . S
C992 C993 1.366 . S
C993 C992 1.366 . S
C993 C994 1.414 . S
C993 C996 1.499 . S
C994 H974 0.950 . S
C994 C993 1.414 . S
C994 C995 1.374 . S
C995 H975 0.950 . S
C995 C991 1.385 . S
C995 C994 1.374 . S
C996 C993 1.499 . S
C996 C997 1.373 . S
C996 C998 1.389 . S
C997 H976 0.950 . S
C997 C996 1.373 . S
C997 C1013 1.377 . S
C998 C996 1.389 . S
C998 C999 1.524 . S
C998 C1012 1.377 . S
C999 C998 1.524 . S
C999 C1000 1.397 . S
C999 C1004 1.363 1_565 S
C1000 H977 0.950 . S
C1000 C999 1.397 . S
C1000 C1001 1.334 . S
C1001 H978 0.950 . S
C1001 C1000 1.334 . S
C1001 C1002 1.287 . S
C1002 C1001 1.287 . S
C1002 C1003 1.524 1_565 S
C1002 H1021 0.923 . S
C1003 H979 0.950 . S
C1003 C1002 1.524 1_545 S
C1003 C1004 1.415 . S
C1004 H980 0.950 . S
C1004 C999 1.363 1_545 S
C1004 C1003 1.415 . S
C1005 H981 0.951 . S
C1005 C1006 1.366 . S
C1005 C1007 1.388 . S
C1006 C1005 1.366 . S
C1006 C1010 1.385 . S
C1007 H982 0.951 . S
C1007 C1005 1.388 . S
C1007 C1008 1.366 . S
C1008 C1007 1.366 . S
C1008 C1009 1.414 . S
C1008 C1011 1.499 . S
C1009 H983 0.950 1_565 S
C1009 C1008 1.414 . S
C1009 C1010 1.374 . S
C1010 H984 0.950 1_565 S
C1010 C1006 1.385 . S
C1010 C1009 1.374 . S
C1011 C1008 1.499 . S
C1011 C1012 1.373 . S
C1011 C1013 1.389 . S
C1012 H985 0.950 . S
C1012 C998 1.377 . S
C1012 C1011 1.373 . S
C1013 C997 1.377 . S
C1013 C1011 1.389 . S
C1013 C1014 1.524 . S
C1014 C1013 1.524 . S
C1014 C1015 1.397 1_655 S
C1014 C1019 1.363 . S
C1015 H986 0.950 . S
C1015 C1014 1.397 1_455 S
C1015 C1016 1.334 . S
C1016 H987 0.950 . S
C1016 C1015 1.334 . S
C1016 C1017 1.287 . S
C1017 C1016 1.287 . S
C1017 C1018 1.524 . S
C1017 H1020 0.999 . S
C1018 H988 0.950 . S
C1018 C1017 1.524 . S
C1018 C1019 1.415 1_455 S
C1019 H989 0.950 . S
C1019 C1014 1.363 . S
C1019 C1018 1.415 1_655 S
H1020 C1017 0.999 . S
H1021 C1002 0.923 . S
H1022 C1040 0.951 . S
H1023 C1042 0.951 . S
H1024 C1044 0.950 . S
H1025 C1045 0.950 . S
H1026 C1047 0.950 . S
H1027 C1050 0.950 . S
H1028 C1051 0.950 . S
H1029 C1053 0.950 . S
H1030 C1054 0.950 . S
H1031 C1055 0.951 . S
H1032 C1057 0.951 . S
H1033 C1059 0.950 . S
H1034 C1060 0.950 . S
H1035 C1062 0.950 . S
H1036 C1065 0.950 . S
H1037 C1066 0.950 . S
H1038 C1068 0.950 . S
H1039 C1069 0.950 . S
C1040 H1022 0.951 . S
C1040 C1041 1.366 . S
C1040 C1042 1.388 . S
C1041 C1040 1.366 . S
C1041 C1045 1.385 . S
C1042 H1023 0.951 . S
C1042 C1040 1.388 . S
C1042 C1043 1.366 . S
C1043 C1042 1.366 . S
C1043 C1044 1.414 . S
C1043 C1046 1.499 . S
C1044 H1024 0.950 . S
C1044 C1043 1.414 . S
C1044 C1045 1.374 . S
C1045 H1025 0.950 . S
C1045 C1041 1.385 . S
C1045 C1044 1.374 . S
C1046 C1043 1.499 . S
C1046 C1047 1.373 . S
C1046 C1048 1.389 . S
C1047 H1026 0.950 . S
C1047 C1046 1.373 . S
C1047 C1063 1.377 . S
C1048 C1046 1.389 . S
C1048 C1049 1.524 . S
C1048 C1062 1.377 . S
C1049 C1048 1.524 . S
C1049 C1050 1.397 . S
C1049 C1054 1.363 . S
C1050 H1027 0.950 . S
C1050 C1049 1.397 . S
C1050 C1051 1.334 . S
C1051 H1028 0.950 . S
C1051 C1050 1.334 . S
C1051 C1052 1.287 . S
C1052 C1051 1.287 . S
C1052 C1053 1.524 . S
C1052 H1071 0.913 . S
C1053 H1029 0.950 . S
C1053 C1052 1.524 . S
C1053 C1054 1.415 . S
C1054 H1030 0.950 . S
C1054 C1049 1.363 . S
C1054 C1053 1.415 . S
C1055 H1031 0.951 . S
C1055 C1056 1.366 . S
C1055 C1057 1.388 . S
C1056 C1055 1.366 . S
C1056 C1060 1.385 . S
C1057 H1032 0.951 . S
C1057 C1055 1.388 . S
C1057 C1058 1.366 . S
C1058 C1057 1.366 . S
C1058 C1059 1.414 . S
C1058 C1061 1.499 . S
C1059 H1033 0.950 . S
C1059 C1058 1.414 . S
C1059 C1060 1.374 . S
C1060 H1034 0.950 . S
C1060 C1056 1.385 . S
C1060 C1059 1.374 . S
C1061 C1058 1.499 . S
C1061 C1062 1.373 . S
C1061 C1063 1.389 . S
C1062 H1035 0.950 . S
C1062 C1048 1.377 . S
C1062 C1061 1.373 . S
C1063 C1047 1.377 . S
C1063 C1061 1.389 . S
C1063 C1064 1.524 . S
C1064 C1063 1.524 . S
C1064 C1065 1.397 . S
C1064 C1069 1.363 . S
C1065 H1036 0.950 . S
C1065 C1064 1.397 . S
C1065 C1066 1.334 . S
C1066 H1037 0.950 . S
C1066 C1065 1.334 . S
C1066 C1067 1.287 . S
C1067 C1066 1.287 . S
C1067 C1068 1.524 . S
C1067 H1070 0.999 . S
C1068 H1038 0.950 . S
C1068 C1067 1.524 . S
C1068 C1069 1.415 . S
C1069 H1039 0.950 . S
C1069 C1064 1.363 . S
C1069 C1068 1.415 . S
H1070 C1067 0.999 . S
H1071 C1052 0.913 . S
H1072 C1090 0.951 . S
H1073 C1092 0.951 . S
H1074 C1094 0.950 . S
H1075 C1095 0.950 . S
H1076 C1097 0.950 . S
H1077 C1100 0.950 . S
H1078 C1101 0.950 . S
H1079 C1103 0.950 . S
H1080 C1104 0.950 . S
H1081 C1105 0.951 . S
H1082 C1107 0.951 . S
H1083 C1109 0.950 . S
H1084 C1110 0.950 . S
H1085 C1112 0.950 . S
H1086 C1115 0.950 . S
H1087 C1116 0.950 . S
H1088 C1118 0.950 . S
H1089 C1119 0.950 . S
C1090 H1072 0.951 . S
C1090 C1091 1.366 . S
C1090 C1092 1.388 . S
C1091 C1090 1.366 . S
C1091 C1095 1.385 . S
C1092 H1073 0.951 . S
C1092 C1090 1.388 . S
C1092 C1093 1.366 . S
C1093 C1092 1.366 . S
C1093 C1094 1.414 . S
C1093 C1096 1.499 . S
C1094 H1074 0.950 . S
C1094 C1093 1.414 . S
C1094 C1095 1.374 . S
C1095 H1075 0.950 . S
C1095 C1091 1.385 . S
C1095 C1094 1.374 . S
C1096 C1093 1.499 . S
C1096 C1097 1.373 . S
C1096 C1098 1.389 . S
C1097 H1076 0.950 . S
C1097 C1096 1.373 . S
C1097 C1113 1.377 . S
C1098 C1096 1.389 . S
C1098 C1099 1.524 . S
C1098 C1112 1.377 . S
C1099 C1098 1.524 . S
C1099 C1100 1.397 . S
C1099 C1104 1.363 . S
C1100 H1077 0.950 . S
C1100 C1099 1.397 . S
C1100 C1101 1.334 . S
C1101 H1078 0.950 . S
C1101 C1100 1.334 . S
C1101 C1102 1.287 . S
C1102 C1101 1.287 . S
C1102 C1103 1.524 . S
C1102 H1121 0.913 . S
C1103 H1079 0.950 . S
C1103 C1102 1.524 . S
C1103 C1104 1.415 . S
C1104 H1080 0.950 . S
C1104 C1099 1.363 . S
C1104 C1103 1.415 . S
C1105 H1081 0.951 . S
C1105 C1106 1.366 . S
C1105 C1107 1.388 . S
C1106 C1105 1.366 . S
C1106 C1110 1.385 . S
C1107 H1082 0.951 . S
C1107 C1105 1.388 . S
C1107 C1108 1.366 . S
C1108 C1107 1.366 . S
C1108 C1109 1.414 . S
C1108 C1111 1.499 . S
C1109 H1083 0.950 . S
C1109 C1108 1.414 . S
C1109 C1110 1.374 . S
C1110 H1084 0.950 . S
C1110 C1106 1.385 . S
C1110 C1109 1.374 . S
C1111 C1108 1.499 . S
C1111 C1112 1.373 . S
C1111 C1113 1.389 . S
C1112 H1085 0.950 . S
C1112 C1098 1.377 . S
C1112 C1111 1.373 . S
C1113 C1097 1.377 . S
C1113 C1111 1.389 . S
C1113 C1114 1.524 . S
C1114 C1113 1.524 . S
C1114 C1115 1.397 . S
C1114 C1119 1.363 . S
C1115 H1086 0.950 . S
C1115 C1114 1.397 . S
C1115 C1116 1.334 . S
C1116 H1087 0.950 . S
C1116 C1115 1.334 . S
C1116 C1117 1.287 . S
C1117 C1116 1.287 . S
C1117 C1118 1.524 . S
C1117 H1120 0.999 . S
C1118 H1088 0.950 . S
C1118 C1117 1.524 . S
C1118 C1119 1.415 . S
C1119 H1089 0.950 . S
C1119 C1114 1.363 . S
C1119 C1118 1.415 . S
H1120 C1117 0.999 . S
H1121 C1102 0.913 . S
H1122 C1140 0.951 . S
H1123 C1142 0.951 . S
H1124 C1144 0.950 . S
H1125 C1145 0.950 . S
H1126 C1147 0.950 . S
H1127 C1150 0.950 . S
H1128 C1151 0.950 . S
H1129 C1153 0.950 . S
H1130 C1154 0.950 . S
H1131 C1155 0.951 . S
H1132 C1157 0.951 . S
H1133 C1159 0.950 . S
H1134 C1160 0.950 1_655 S
H1135 C1162 0.950 . S
H1136 C1165 0.950 . S
H1137 C1166 0.950 . S
H1138 C1168 0.950 . S
H1139 C1169 0.950 . S
C1140 H1122 0.951 . S
C1140 C1141 1.366 . S
C1140 C1142 1.388 . S
C1141 C1140 1.366 . S
C1141 C1145 1.385 . S
C1142 H1123 0.951 . S
C1142 C1140 1.388 . S
C1142 C1143 1.366 . S
C1143 C1142 1.366 . S
C1143 C1144 1.414 . S
C1143 C1146 1.499 . S
C1144 H1124 0.950 . S
C1144 C1143 1.414 . S
C1144 C1145 1.374 . S
C1145 H1125 0.950 . S
C1145 C1141 1.385 . S
C1145 C1144 1.374 . S
C1146 C1143 1.499 . S
C1146 C1147 1.373 . S
C1146 C1148 1.389 . S
C1147 H1126 0.950 . S
C1147 C1146 1.373 . S
C1147 C1163 1.377 . S
C1148 C1146 1.389 . S
C1148 C1149 1.524 . S
C1148 C1162 1.377 . S
C1149 C1148 1.524 . S
C1149 C1150 1.397 . S
C1149 C1154 1.363 . S
C1150 H1127 0.950 . S
C1150 C1149 1.397 . S
C1150 C1151 1.334 . S
C1151 H1128 0.950 . S
C1151 C1150 1.334 . S
C1151 C1152 1.287 . S
C1152 C1151 1.287 . S
C1152 C1153 1.524 . S
C1152 H1171 0.913 . S
C1153 H1129 0.950 . S
C1153 C1152 1.524 . S
C1153 C1154 1.415 . S
C1154 H1130 0.950 . S
C1154 C1149 1.363 . S
C1154 C1153 1.415 . S
C1155 H1131 0.951 . S
C1155 C1156 1.366 . S
C1155 C1157 1.388 . S
C1156 C1155 1.366 . S
C1156 C1160 1.385 . S
C1157 H1132 0.951 . S
C1157 C1155 1.388 . S
C1157 C1158 1.366 . S
C1158 C1157 1.366 . S
C1158 C1159 1.414 . S
C1158 C1161 1.499 . S
C1159 H1133 0.950 . S
C1159 C1158 1.414 . S
C1159 C1160 1.374 . S
C1160 H1134 0.950 1_455 S
C1160 C1156 1.385 . S
C1160 C1159 1.374 . S
C1161 C1158 1.499 . S
C1161 C1162 1.373 . S
C1161 C1163 1.389 . S
C1162 H1135 0.950 . S
C1162 C1148 1.377 . S
C1162 C1161 1.373 . S
C1163 C1147 1.377 . S
C1163 C1161 1.389 . S
C1163 C1164 1.524 . S
C1164 C1163 1.524 . S
C1164 C1165 1.397 . S
C1164 C1169 1.363 . S
C1165 H1136 0.950 . S
C1165 C1164 1.397 . S
C1165 C1166 1.334 . S
C1166 H1137 0.950 . S
C1166 C1165 1.334 . S
C1166 C1167 1.287 . S
C1167 C1166 1.287 . S
C1167 C1168 1.524 . S
C1167 H1170 0.999 . S
C1168 H1138 0.950 . S
C1168 C1167 1.524 . S
C1168 C1169 1.415 . S
C1169 H1139 0.950 . S
C1169 C1164 1.363 . S
C1169 C1168 1.415 . S
H1170 C1167 0.999 . S
H1171 C1152 0.913 . S
H1172 C1190 0.951 . S
H1173 C1192 0.951 . S
H1174 C1194 0.950 . S
H1175 C1195 0.950 . S
H1176 C1197 0.950 . S
H1177 C1200 0.950 . S
H1178 C1201 0.950 . S
H1179 C1203 0.950 . S
H1180 C1204 0.950 . S
H1181 C1205 0.951 . S
H1182 C1207 0.951 1_545 S
H1183 C1209 0.950 . S
H1184 C1210 0.950 . S
H1185 C1212 0.950 . S
H1186 C1215 0.950 . S
H1187 C1216 0.950 . S
H1188 C1218 0.947 1_556 S
H1189 C1219 0.950 . S
C1190 H1172 0.951 . S
C1190 C1191 1.366 . S
C1190 C1192 1.388 . S
C1191 C1190 1.366 . S
C1191 C1195 1.385 . S
C1192 H1173 0.951 . S
C1192 C1190 1.388 . S
C1192 C1193 1.366 . S
C1193 C1192 1.366 . S
C1193 C1194 1.414 . S
C1193 C1196 1.499 . S
C1194 H1174 0.950 . S
C1194 C1193 1.414 . S
C1194 C1195 1.374 . S
C1195 H1175 0.950 . S
C1195 C1191 1.385 . S
C1195 C1194 1.374 . S
C1196 C1193 1.499 . S
C1196 C1197 1.373 . S
C1196 C1198 1.389 . S
C1197 H1176 0.950 . S
C1197 C1196 1.373 . S
C1197 C1213 1.377 . S
C1198 C1196 1.389 . S
C1198 C1199 1.524 . S
C1198 C1212 1.377 . S
C1199 C1198 1.524 . S
C1199 C1200 1.397 . S
C1199 C1204 1.363 . S
C1200 H1177 0.950 . S
C1200 C1199 1.397 . S
C1200 C1201 1.334 . S
C1201 H1178 0.950 . S
C1201 C1200 1.334 . S
C1201 C1202 1.287 . S
C1202 C1201 1.287 . S
C1202 C1203 1.524 . S
C1202 H1221 0.913 . S
C1203 H1179 0.950 . S
C1203 C1202 1.524 . S
C1203 C1204 1.415 . S
C1204 H1180 0.950 . S
C1204 C1199 1.363 . S
C1204 C1203 1.415 . S
C1205 H1181 0.951 . S
C1205 C1206 1.366 1_545 S
C1205 C1207 1.388 1_545 S
C1206 C1205 1.366 1_565 S
C1206 C1210 1.385 . S
C1207 H1182 0.951 1_565 S
C1207 C1205 1.388 1_565 S
C1207 C1208 1.366 . S
C1208 C1207 1.366 . S
C1208 C1209 1.414 . S
C1208 C1211 1.499 . S
C1209 H1183 0.950 . S
C1209 C1208 1.414 . S
C1209 C1210 1.374 . S
C1210 H1184 0.950 . S
C1210 C1206 1.385 . S
C1210 C1209 1.374 . S
C1211 C1208 1.499 . S
C1211 C1212 1.373 . S
C1211 C1213 1.389 . S
C1212 H1185 0.950 . S
C1212 C1198 1.377 . S
C1212 C1211 1.373 . S
C1213 C1197 1.377 . S
C1213 C1211 1.389 . S
C1213 C1214 1.517 1_565 S
C1214 C1213 1.517 1_545 S
C1214 C1215 1.395 1_546 S
C1214 C1219 1.372 . S
C1215 H1186 0.950 . S
C1215 C1214 1.395 1_564 S
C1215 C1216 1.334 1_565 S
C1216 H1187 0.950 . S
C1216 C1215 1.334 1_545 S
C1216 C1217 1.287 . S
C1217 C1216 1.287 . S
C1217 C1218 1.539 . S
C1217 H1220 0.999 . S
C1218 H1188 0.947 1_554 S
C1218 C1217 1.539 . S
C1218 C1219 1.403 1_554 S
C1219 H1189 0.950 . S
C1219 C1214 1.372 . S
C1219 C1218 1.403 1_556 S
H1220 C1217 0.999 . S
H1221 C1202 0.913 . S
H1222 C1240 0.951 . S
H1223 C1242 0.951 . S
H1224 C1244 0.950 . S
H1225 C1245 0.950 . S
H1226 C1247 0.950 . S
H1227 C1250 0.950 . S
H1228 C1251 0.950 . S
H1229 C1253 0.950 . S
H1230 C1254 0.950 . S
H1231 C1255 0.951 . S
H1232 C1257 0.951 . S
H1233 C1259 0.950 . S
H1234 C1260 0.950 . S
H1235 C1262 0.950 . S
H1236 C1265 0.950 . S
H1237 C1266 0.950 . S
H1238 C1268 0.950 . S
H1239 C1269 0.950 . S
C1240 H1222 0.951 . S
C1240 C1241 1.366 . S
C1240 C1242 1.388 . S
C1241 C1240 1.366 . S
C1241 C1245 1.385 . S
C1242 H1223 0.951 . S
C1242 C1240 1.388 . S
C1242 C1243 1.366 . S
C1243 C1242 1.366 . S
C1243 C1244 1.414 . S
C1243 C1246 1.499 . S
C1244 H1224 0.950 . S
C1244 C1243 1.414 . S
C1244 C1245 1.374 . S
C1245 H1225 0.950 . S
C1245 C1241 1.385 . S
C1245 C1244 1.374 . S
C1246 C1243 1.499 . S
C1246 C1247 1.373 . S
C1246 C1248 1.389 . S
C1247 H1226 0.950 . S
C1247 C1246 1.373 . S
C1247 C1263 1.377 . S
C1248 C1246 1.389 . S
C1248 C1249 1.524 . S
C1248 C1262 1.377 . S
C1249 C1248 1.524 . S
C1249 C1250 1.397 . S
C1249 C1254 1.363 . S
C1250 H1227 0.950 . S
C1250 C1249 1.397 . S
C1250 C1251 1.334 . S
C1251 H1228 0.950 . S
C1251 C1250 1.334 . S
C1251 C1252 1.287 . S
C1252 C1251 1.287 . S
C1252 C1253 1.524 . S
C1252 H1271 0.913 . S
C1253 H1229 0.950 . S
C1253 C1252 1.524 . S
C1253 C1254 1.415 . S
C1254 H1230 0.950 . S
C1254 C1249 1.363 . S
C1254 C1253 1.415 . S
C1255 H1231 0.951 . S
C1255 C1256 1.366 . S
C1255 C1257 1.388 . S
C1256 C1255 1.366 . S
C1256 C1260 1.385 . S
C1257 H1232 0.951 . S
C1257 C1255 1.388 . S
C1257 C1258 1.366 . S
C1258 C1257 1.366 . S
C1258 C1259 1.414 . S
C1258 C1261 1.499 . S
C1259 H1233 0.950 . S
C1259 C1258 1.414 . S
C1259 C1260 1.374 . S
C1260 H1234 0.950 . S
C1260 C1256 1.385 . S
C1260 C1259 1.374 . S
C1261 C1258 1.499 . S
C1261 C1262 1.373 . S
C1261 C1263 1.389 . S
C1262 H1235 0.950 . S
C1262 C1248 1.377 . S
C1262 C1261 1.373 . S
C1263 C1247 1.377 . S
C1263 C1261 1.389 . S
C1263 C1264 1.524 . S
C1264 C1263 1.524 . S
C1264 C1265 1.397 . S
C1264 C1269 1.363 . S
C1265 H1236 0.950 . S
C1265 C1264 1.397 . S
C1265 C1266 1.334 . S
C1266 H1237 0.950 . S
C1266 C1265 1.334 . S
C1266 C1267 1.287 1_545 S
C1267 C1266 1.287 1_565 S
C1267 C1268 1.524 . S
C1267 H1270 0.999 . S
C1268 H1238 0.950 . S
C1268 C1267 1.524 . S
C1268 C1269 1.415 1_565 S
C1269 H1239 0.950 . S
C1269 C1264 1.363 . S
C1269 C1268 1.415 1_545 S
H1270 C1267 0.999 . S
H1271 C1252 0.913 . S
H1272 C1290 0.951 . S
H1273 C1292 0.951 . S
H1274 C1294 0.950 . S
H1275 C1295 0.950 . S
H1276 C1297 0.950 . S
H1277 C1300 0.950 . S
H1278 C1301 0.950 . S
H1279 C1303 0.950 . S
H1280 C1304 0.950 . S
H1281 C1305 0.951 . S
H1282 C1307 0.951 . S
H1283 C1309 0.950 . S
H1284 C1310 0.950 . S
H1285 C1312 0.950 . S
H1286 C1315 0.950 . S
H1287 C1316 0.950 . S
H1288 C1318 0.950 . S
H1289 C1319 0.950 . S
C1290 H1272 0.951 . S
C1290 C1291 1.366 . S
C1290 C1292 1.388 . S
C1291 C1290 1.366 . S
C1291 C1295 1.385 . S
C1292 H1273 0.951 . S
C1292 C1290 1.388 . S
C1292 C1293 1.366 . S
C1293 C1292 1.366 . S
C1293 C1294 1.414 . S
C1293 C1296 1.499 . S
C1294 H1274 0.950 . S
C1294 C1293 1.414 . S
C1294 C1295 1.374 . S
C1295 H1275 0.950 . S
C1295 C1291 1.385 . S
C1295 C1294 1.374 . S
C1296 C1293 1.499 . S
C1296 C1297 1.373 . S
C1296 C1298 1.389 . S
C1297 H1276 0.950 . S
C1297 C1296 1.373 . S
C1297 C1313 1.377 . S
C1298 C1296 1.389 . S
C1298 C1299 1.524 . S
C1298 C1312 1.377 . S
C1299 C1298 1.524 . S
C1299 C1300 1.397 . S
C1299 C1304 1.363 . S
C1300 H1277 0.950 . S
C1300 C1299 1.397 . S
C1300 C1301 1.334 . S
C1301 H1278 0.950 . S
C1301 C1300 1.334 . S
C1301 C1302 1.287 . S
C1302 C1301 1.287 . S
C1302 C1303 1.524 . S
C1302 H1321 0.913 . S
C1303 H1279 0.950 . S
C1303 C1302 1.524 . S
C1303 C1304 1.415 . S
C1304 H1280 0.950 . S
C1304 C1299 1.363 . S
C1304 C1303 1.415 . S
C1305 H1281 0.951 . S
C1305 C1306 1.366 . S
C1305 C1307 1.388 . S
C1306 C1305 1.366 . S
C1306 C1310 1.385 . S
C1307 H1282 0.951 . S
C1307 C1305 1.388 . S
C1307 C1308 1.366 . S
C1308 C1307 1.366 . S
C1308 C1309 1.414 . S
C1308 C1311 1.499 . S
C1309 H1283 0.950 . S
C1309 C1308 1.414 . S
C1309 C1310 1.374 . S
C1310 H1284 0.950 . S
C1310 C1306 1.385 . S
C1310 C1309 1.374 . S
C1311 C1308 1.499 . S
C1311 C1312 1.373 . S
C1311 C1313 1.389 . S
C1312 H1285 0.950 . S
C1312 C1298 1.377 . S
C1312 C1311 1.373 . S
C1313 C1297 1.377 . S
C1313 C1311 1.389 . S
C1313 C1314 1.524 . S
C1314 C1313 1.524 . S
C1314 C1315 1.397 . S
C1314 C1319 1.363 . S
C1315 H1286 0.950 . S
C1315 C1314 1.397 . S
C1315 C1316 1.334 1_554 S
C1316 H1287 0.950 . S
C1316 C1315 1.334 1_556 S
C1316 C1317 1.287 1_556 S
C1317 C1316 1.287 1_554 S
C1317 C1318 1.524 . S
C1317 H1320 0.999 1_554 S
C1318 H1288 0.950 . S
C1318 C1317 1.524 . S
C1318 C1319 1.415 . S
C1319 H1289 0.950 . S
C1319 C1314 1.363 . S
C1319 C1318 1.415 . S
H1320 C1317 0.999 1_556 S
H1321 C1302 0.913 . S
H1322 C1340 0.951 . S
H1323 C1342 0.951 . S
H1324 C1344 0.950 . S
H1325 C1345 0.950 . S
H1326 C1347 0.950 . S
H1327 C1350 0.950 . S
H1328 C1351 0.950 . S
H1329 C1353 0.950 . S
H1330 C1354 0.950 . S
H1331 C1355 0.951 . S
H1332 C1357 0.951 . S
H1333 C1359 0.950 . S
H1334 C1360 0.950 . S
H1335 C1362 0.950 . S
H1336 C1365 0.950 . S
H1337 C1366 0.950 . S
H1338 C1368 0.950 . S
H1339 C1369 0.950 . S
C1340 H1322 0.951 . S
C1340 C1341 1.366 . S
C1340 C1342 1.388 . S
C1341 C1340 1.366 . S
C1341 C1345 1.385 . S
C1342 H1323 0.951 . S
C1342 C1340 1.388 . S
C1342 C1343 1.366 . S
C1343 C1342 1.366 . S
C1343 C1344 1.414 . S
C1343 C1346 1.499 . S
C1344 H1324 0.950 . S
C1344 C1343 1.414 . S
C1344 C1345 1.374 . S
C1345 H1325 0.950 . S
C1345 C1341 1.385 . S
C1345 C1344 1.374 . S
C1346 C1343 1.499 . S
C1346 C1347 1.373 . S
C1346 C1348 1.389 . S
C1347 H1326 0.950 . S
C1347 C1346 1.373 . S
C1347 C1363 1.377 . S
C1348 C1346 1.389 . S
C1348 C1349 1.524 . S
C1348 C1362 1.377 . S
C1349 C1348 1.524 . S
C1349 C1350 1.397 . S
C1349 C1354 1.363 . S
C1350 H1327 0.950 . S
C1350 C1349 1.397 . S
C1350 C1351 1.334 . S
C1351 H1328 0.950 . S
C1351 C1350 1.334 . S
C1351 C1352 1.287 . S
C1352 C1351 1.287 . S
C1352 C1353 1.524 . S
C1352 H1371 0.913 . S
C1353 H1329 0.950 . S
C1353 C1352 1.524 . S
C1353 C1354 1.415 . S
C1354 H1330 0.950 . S
C1354 C1349 1.363 . S
C1354 C1353 1.415 . S
C1355 H1331 0.951 . S
C1355 C1356 1.366 . S
C1355 C1357 1.388 . S
C1356 C1355 1.366 . S
C1356 C1360 1.385 . S
C1357 H1332 0.951 . S
C1357 C1355 1.388 . S
C1357 C1358 1.366 . S
C1358 C1357 1.366 . S
C1358 C1359 1.414 . S
C1358 C1361 1.499 . S
C1359 H1333 0.950 . S
C1359 C1358 1.414 . S
C1359 C1360 1.374 . S
C1360 H1334 0.950 . S
C1360 C1356 1.385 . S
C1360 C1359 1.374 . S
C1361 C1358 1.499 . S
C1361 C1362 1.373 . S
C1361 C1363 1.389 . S
C1362 H1335 0.950 . S
C1362 C1348 1.377 . S
C1362 C1361 1.373 . S
C1363 C1347 1.377 . S
C1363 C1361 1.389 . S
C1363 C1364 1.524 . S
C1364 C1363 1.524 . S
C1364 C1365 1.397 . S
C1364 C1369 1.363 . S
C1365 H1336 0.950 . S
C1365 C1364 1.397 . S
C1365 C1366 1.334 . S
C1366 H1337 0.950 . S
C1366 C1365 1.334 . S
C1366 C1367 1.287 . S
C1367 C1366 1.287 . S
C1367 C1368 1.524 . S
C1367 H1370 0.999 . S
C1368 H1338 0.950 . S
C1368 C1367 1.524 . S
C1368 C1369 1.415 . S
C1369 H1339 0.950 . S
C1369 C1364 1.363 . S
C1369 C1368 1.415 . S
H1370 C1367 0.999 . S
H1371 C1352 0.913 . S
H1372 C1390 0.951 . S
H1373 C1392 0.951 . S
H1374 C1394 0.950 . S
H1375 C1395 0.950 . S
H1376 C1397 0.950 . S
H1377 C1400 0.950 . S
H1378 C1401 0.950 . S
H1379 C1403 0.950 . S
H1380 C1404 0.950 . S
H1381 C1405 0.951 . S
H1382 C1407 0.951 . S
H1383 C1409 0.938 1_554 S
H1384 C1410 0.950 1_554 S
H1385 C1412 0.950 . S
H1386 C1415 0.950 . S
H1387 C1416 0.950 . S
H1388 C1418 0.950 . S
H1389 C1419 0.950 . S
C1390 H1372 0.951 . S
C1390 C1391 1.366 . S
C1390 C1392 1.388 . S
C1391 C1390 1.366 . S
C1391 C1395 1.385 . S
C1392 H1373 0.951 . S
C1392 C1390 1.388 . S
C1392 C1393 1.366 . S
C1393 C1392 1.366 . S
C1393 C1394 1.414 . S
C1393 C1396 1.499 . S
C1394 H1374 0.950 . S
C1394 C1393 1.414 . S
C1394 C1395 1.374 . S
C1395 H1375 0.950 . S
C1395 C1391 1.385 . S
C1395 C1394 1.374 . S
C1396 C1393 1.499 . S
C1396 C1397 1.373 . S
C1396 C1398 1.389 . S
C1397 H1376 0.950 . S
C1397 C1396 1.373 . S
C1397 C1413 1.377 . S
C1398 C1396 1.389 . S
C1398 C1399 1.524 . S
C1398 C1412 1.377 . S
C1399 C1398 1.524 . S
C1399 C1400 1.397 . S
C1399 C1404 1.363 1_556 S
C1400 H1377 0.950 . S
C1400 C1399 1.397 . S
C1400 C1401 1.334 1_556 S
C1401 H1378 0.950 . S
C1401 C1400 1.334 1_554 S
C1401 C1402 1.287 . S
C1402 C1401 1.287 . S
C1402 C1403 1.524 . S
C1402 H1421 0.913 . S
C1403 H1379 0.950 . S
C1403 C1402 1.524 . S
C1403 C1404 1.415 . S
C1404 H1380 0.950 . S
C1404 C1399 1.363 1_554 S
C1404 C1403 1.415 . S
C1405 H1381 0.951 . S
C1405 C1406 1.366 . S
C1405 C1407 1.388 . S
C1406 C1405 1.366 . S
C1406 C1410 1.385 . S
C1407 H1382 0.951 . S
C1407 C1405 1.388 . S
C1407 C1408 1.366 . S
C1408 C1407 1.366 . S
C1408 C1409 1.414 . S
C1408 C1411 1.499 . S
C1409 H1383 0.938 1_556 S
C1409 C1408 1.414 . S
C1409 C1410 1.374 . S
C1410 H1384 0.950 1_556 S
C1410 C1406 1.385 . S
C1410 C1409 1.374 . S
C1411 C1408 1.499 . S
C1411 C1412 1.373 . S
C1411 C1413 1.389 . S
C1412 H1385 0.950 . S
C1412 C1398 1.377 . S
C1412 C1411 1.373 . S
C1413 C1397 1.377 . S
C1413 C1411 1.389 . S
C1413 C1414 1.524 . S
C1414 C1413 1.524 . S
C1414 C1415 1.397 . S
C1414 C1419 1.363 . S
C1415 H1386 0.950 . S
C1415 C1414 1.397 . S
C1415 C1416 1.334 . S
C1416 H1387 0.950 . S
C1416 C1415 1.334 . S
C1416 C1417 1.287 . S
C1417 C1416 1.287 . S
C1417 C1418 1.524 . S
C1417 H1420 0.999 . S
C1418 H1388 0.950 . S
C1418 C1417 1.524 . S
C1418 C1419 1.415 . S
C1419 H1389 0.950 . S
C1419 C1414 1.363 . S
C1419 C1418 1.415 . S
H1420 C1417 0.999 . S
H1421 C1402 0.913 . S
H1422 C1440 0.951 . S
H1423 C1442 0.951 . S
H1424 C1444 0.950 . S
H1425 C1445 0.950 . S
H1426 C1447 0.950 . S
H1427 C1450 0.950 . S
H1428 C1451 0.950 . S
H1429 C1453 0.950 . S
H1430 C1454 0.950 . S
H1431 C1455 0.951 . S
H1432 C1457 0.951 . S
H1433 C1459 0.950 . S
H1434 C1460 0.950 . S
H1435 C1462 0.950 . S
H1436 C1465 0.950 . S
H1437 C1466 0.950 . S
H1438 C1468 0.950 . S
H1439 C1469 0.950 . S
C1440 H1422 0.951 . S
C1440 C1441 1.366 . S
C1440 C1442 1.388 . S
C1441 C1440 1.366 . S
C1441 C1445 1.385 . S
C1442 H1423 0.951 . S
C1442 C1440 1.388 . S
C1442 C1443 1.366 . S
C1443 C1442 1.366 . S
C1443 C1444 1.414 . S
C1443 C1446 1.499 . S
C1444 H1424 0.950 . S
C1444 C1443 1.414 . S
C1444 C1445 1.374 . S
C1445 H1425 0.950 . S
C1445 C1441 1.385 . S
C1445 C1444 1.374 . S
C1446 C1443 1.499 . S
C1446 C1447 1.373 . S
C1446 C1448 1.389 . S
C1447 H1426 0.950 . S
C1447 C1446 1.373 . S
C1447 C1463 1.377 . S
C1448 C1446 1.389 . S
C1448 C1449 1.524 . S
C1448 C1462 1.377 . S
C1449 C1448 1.524 . S
C1449 C1450 1.397 . S
C1449 C1454 1.363 . S
C1450 H1427 0.950 . S
C1450 C1449 1.397 . S
C1450 C1451 1.334 . S
C1451 H1428 0.950 . S
C1451 C1450 1.334 . S
C1451 C1452 1.287 . S
C1452 C1451 1.287 . S
C1452 C1453 1.524 . S
C1452 H1471 0.913 . S
C1453 H1429 0.950 . S
C1453 C1452 1.524 . S
C1453 C1454 1.415 . S
C1454 H1430 0.950 . S
C1454 C1449 1.363 . S
C1454 C1453 1.415 . S
C1455 H1431 0.951 . S
C1455 C1456 1.366 . S
C1455 C1457 1.388 . S
C1456 C1455 1.366 . S
C1456 C1460 1.385 . S
C1457 H1432 0.951 . S
C1457 C1455 1.388 . S
C1457 C1458 1.366 . S
C1458 C1457 1.366 . S
C1458 C1459 1.414 . S
C1458 C1461 1.499 . S
C1459 H1433 0.950 . S
C1459 C1458 1.414 . S
C1459 C1460 1.374 . S
C1460 H1434 0.950 . S
C1460 C1456 1.385 . S
C1460 C1459 1.374 . S
C1461 C1458 1.499 . S
C1461 C1462 1.373 . S
C1461 C1463 1.389 . S
C1462 H1435 0.950 . S
C1462 C1448 1.377 . S
C1462 C1461 1.373 . S
C1463 C1447 1.377 . S
C1463 C1461 1.389 . S
C1463 C1464 1.524 . S
C1464 C1463 1.524 . S
C1464 C1465 1.397 . S
C1464 C1469 1.362 . S
C1465 H1436 0.950 . S
C1465 C1464 1.397 . S
C1465 C1466 1.334 1_554 S
C1466 H1437 0.950 . S
C1466 C1465 1.334 1_556 S
C1466 C1467 1.287 . S
C1467 C1466 1.287 . S
C1467 C1468 1.524 . S
C1467 H1470 0.999 . S
C1468 H1438 0.950 . S
C1468 C1467 1.524 . S
C1468 C1469 1.416 1_556 S
C1469 H1439 0.950 . S
C1469 C1464 1.362 . S
C1469 C1468 1.416 1_554 S
H1470 C1467 0.999 . S
H1471 C1452 0.913 . S
H1472 C1490 0.951 . S
H1473 C1492 0.951 . S
H1474 C1494 0.950 . S
H1475 C1495 0.950 . S
H1476 C1497 0.950 . S
H1477 C1500 0.950 . S
H1478 C1501 0.950 . S
H1479 C1503 0.950 . S
H1480 C1504 0.950 . S
H1481 C1505 0.951 . S
H1482 C1507 0.951 . S
H1483 C1509 0.950 . S
H1484 C1510 0.950 . S
H1485 C1512 0.950 . S
H1486 C1515 0.950 . S
H1487 C1516 0.950 . S
H1488 C1518 0.950 . S
H1489 C1519 0.950 . S
C1490 H1472 0.951 . S
C1490 C1491 1.366 . S
C1490 C1492 1.388 . S
C1491 C1490 1.366 . S
C1491 C1495 1.385 . S
C1492 H1473 0.951 . S
C1492 C1490 1.388 . S
C1492 C1493 1.366 . S
C1493 C1492 1.366 . S
C1493 C1494 1.414 . S
C1493 C1496 1.499 . S
C1494 H1474 0.950 . S
C1494 C1493 1.414 . S
C1494 C1495 1.374 . S
C1495 H1475 0.950 . S
C1495 C1491 1.385 . S
C1495 C1494 1.374 . S
C1496 C1493 1.499 . S
C1496 C1497 1.373 . S
C1496 C1498 1.389 . S
C1497 H1476 0.950 . S
C1497 C1496 1.373 . S
C1497 C1513 1.377 . S
C1498 C1496 1.389 . S
C1498 C1499 1.524 . S
C1498 C1512 1.377 . S
C1499 C1498 1.524 . S
C1499 C1500 1.397 . S
C1499 C1504 1.363 . S
C1500 H1477 0.950 . S
C1500 C1499 1.397 . S
C1500 C1501 1.334 . S
C1501 H1478 0.950 . S
C1501 C1500 1.334 . S
C1501 C1502 1.287 . S
C1502 C1501 1.287 . S
C1502 C1503 1.524 . S
C1502 H1521 0.913 . S
C1503 H1479 0.950 . S
C1503 C1502 1.524 . S
C1503 C1504 1.415 . S
C1504 H1480 0.950 . S
C1504 C1499 1.363 . S
C1504 C1503 1.415 . S
C1505 H1481 0.951 . S
C1505 C1506 1.366 . S
C1505 C1507 1.388 . S
C1506 C1505 1.366 . S
C1506 C1510 1.385 . S
C1507 H1482 0.951 . S
C1507 C1505 1.388 . S
C1507 C1508 1.366 . S
C1508 C1507 1.366 . S
C1508 C1509 1.414 . S
C1508 C1511 1.499 . S
C1509 H1483 0.950 . S
C1509 C1508 1.414 . S
C1509 C1510 1.374 . S
C1510 H1484 0.950 . S
C1510 C1506 1.385 . S
C1510 C1509 1.374 . S
C1511 C1508 1.499 . S
C1511 C1512 1.373 . S
C1511 C1513 1.389 . S
C1512 H1485 0.950 . S
C1512 C1498 1.377 . S
C1512 C1511 1.373 . S
C1513 C1497 1.377 . S
C1513 C1511 1.389 . S
C1513 C1514 1.524 . S
C1514 C1513 1.524 . S
C1514 C1515 1.397 1_455 S
C1514 C1519 1.363 . S
C1515 H1486 0.950 . S
C1515 C1514 1.397 1_655 S
C1515 C1516 1.334 . S
C1516 H1487 0.950 . S
C1516 C1515 1.334 . S
C1516 C1517 1.287 . S
C1517 C1516 1.287 . S
C1517 C1518 1.524 1_655 S
C1517 H1520 0.999 . S
C1518 H1488 0.950 . S
C1518 C1517 1.524 1_455 S
C1518 C1519 1.415 . S
C1519 H1489 0.950 . S
C1519 C1514 1.363 . S
C1519 C1518 1.415 . S
H1520 C1517 0.999 . S
H1521 C1502 0.913 . S
H1522 C1540 0.951 . S
H1523 C1542 0.951 . S
H1524 C1544 0.950 . S
H1525 C1545 0.950 . S
H1526 C1547 0.950 . S
H1527 C1550 0.950 . S
H1528 C1551 0.950 . S
H1529 C1553 0.950 . S
H1530 C1554 0.950 . S
H1531 C1555 0.951 . S
H1532 C1557 0.951 . S
H1533 C1559 0.950 . S
H1534 C1560 0.950 . S
H1535 C1562 0.950 . S
H1536 C1565 0.950 . S
H1537 C1566 0.950 . S
H1538 C1568 0.950 . S
H1539 C1569 0.950 . S
C1540 H1522 0.951 . S
C1540 C1541 1.366 . S
C1540 C1542 1.388 . S
C1541 C1540 1.366 . S
C1541 C1545 1.385 . S
C1542 H1523 0.951 . S
C1542 C1540 1.388 . S
C1542 C1543 1.366 . S
C1543 C1542 1.366 . S
C1543 C1544 1.414 . S
C1543 C1546 1.499 . S
C1544 H1524 0.950 . S
C1544 C1543 1.414 . S
C1544 C1545 1.374 . S
C1545 H1525 0.950 . S
C1545 C1541 1.385 . S
C1545 C1544 1.374 . S
C1546 C1543 1.499 . S
C1546 C1547 1.373 . S
C1546 C1548 1.389 . S
C1547 H1526 0.950 . S
C1547 C1546 1.373 . S
C1547 C1563 1.377 . S
C1548 C1546 1.389 . S
C1548 C1549 1.524 . S
C1548 C1562 1.377 . S
C1549 C1548 1.524 . S
C1549 C1550 1.397 . S
C1549 C1554 1.363 . S
C1550 H1527 0.950 . S
C1550 C1549 1.397 . S
C1550 C1551 1.334 . S
C1551 H1528 0.950 . S
C1551 C1550 1.334 . S
C1551 C1552 1.287 . S
C1552 C1551 1.287 . S
C1552 C1553 1.524 . S
C1552 H1571 0.913 . S
C1553 H1529 0.950 . S
C1553 C1552 1.524 . S
C1553 C1554 1.415 . S
C1554 H1530 0.950 . S
C1554 C1549 1.363 . S
C1554 C1553 1.415 . S
C1555 H1531 0.951 . S
C1555 C1556 1.366 . S
C1555 C1557 1.388 . S
C1556 C1555 1.366 . S
C1556 C1560 1.385 . S
C1557 H1532 0.951 . S
C1557 C1555 1.388 . S
C1557 C1558 1.366 . S
C1558 C1557 1.366 . S
C1558 C1559 1.414 . S
C1558 C1561 1.499 . S
C1559 H1533 0.950 . S
C1559 C1558 1.414 . S
C1559 C1560 1.374 . S
C1560 H1534 0.950 . S
C1560 C1556 1.385 . S
C1560 C1559 1.374 . S
C1561 C1558 1.499 . S
C1561 C1562 1.373 . S
C1561 C1563 1.389 . S
C1562 H1535 0.950 . S
C1562 C1548 1.377 . S
C1562 C1561 1.373 . S
C1563 C1547 1.377 . S
C1563 C1561 1.389 . S
C1563 C1564 1.524 . S
C1564 C1563 1.524 . S
C1564 C1565 1.397 . S
C1564 C1569 1.363 . S
C1565 H1536 0.950 . S
C1565 C1564 1.397 . S
C1565 C1566 1.334 . S
C1566 H1537 0.950 . S
C1566 C1565 1.334 . S
C1566 C1567 1.287 . S
C1567 C1566 1.287 . S
C1567 C1568 1.524 . S
C1567 H1570 0.999 . S
C1568 H1538 0.950 . S
C1568 C1567 1.524 . S
C1568 C1569 1.415 . S
C1569 H1539 0.950 . S
C1569 C1564 1.363 . S
C1569 C1568 1.415 . S
H1570 C1567 0.999 . S
H1571 C1552 0.913 . S
C391 C1 1.635 . S
C406 C306 1.602 . S
C441 C67 1.502 . S
C456 C323 1.468 . S
C506 C346 1.160 . S
C491 C97 1.368 . S
C541 C133 1.873 . S
C556 C367 1.539 . S
C606 C326 1.814 . S
C591 C25 1.845 . S
C656 C303 1.698 . S
C641 C37 1.732 . S
C706 C365 1.267 . S
C691 C103 1.307 . S
C756 C344 1.414 . S
C741 C109 1.461 . S
C791 C31 1.806 . S
C806 C368 1.775 . S
C856 C325 1.329 . S
C841 C73 1.600 . S
C891 C139 1.730 . S
C906 C301 1.536 . S
C941 C61 1.490 . S
C956 C347 1.493 . S
C1006 C305 1.626 . S
C991 C175 1.694 . S
C1041 C181 1.257 . S
C1056 C324 1.232 . S
C1091 C247 1.512 . S
C1106 C343 1.277 . S
C1141 C277 1.770 . S
C1156 C364 1.438 . S
C1191 C145 1.828 . S
C1206 C327 1.785 . S
C1256 C302 1.791 . S
C1241 C211 1.830 . S
C1306 C366 1.122 . S
C1291 C217 1.168 . S
C1356 C345 1.564 . S
C1341 C283 1.622 . S
C1391 C169 1.596 . S
C1406 C369 1.554 . S
C1456 C322 1.240 . S
C1441 C241 1.481 . S
C1506 C304 1.280 . S
C1491 C253 1.448 . S
C1541 C205 1.453 . S
C1556 C348 1.442 . S
