# Generated by pormake.
# Topology pyr, (3,6)-cn, num edge types: 1
# Building blocks:
#     Node 0, Type 0, BuildingBlock: KAKCAD_clean_linker_0, # of connection points: 3
#     Node 1, Type 0, BuildingBlock: KAKCAD_clean_linker_0, # of connection points: 3
#     Node 2, Type 0, BuildingBlock: KAKCAD_clean_linker_0, # of connection points: 3
#     Node 3, Type 0, BuildingBlock: KAKCAD_clean_linker_0, # of connection points: 3
#     Node 4, Type 0, BuildingBlock: KAKCAD_clean_linker_0, # of connection points: 3
#     Node 5, Type 0, BuildingBlock: KAKCAD_clean_linker_0, # of connection points: 3
#     Node 6, Type 0, BuildingBlock: KAKCAD_clean_linker_0, # of connection points: 3
#     Node 7, Type 0, BuildingBlock: KAKCAD_clean_linker_0, # of connection points: 3
#     Node 8, Type 1, BuildingBlock: MIDCAF_clean_sbu_0, # of connection points: 6
#     Node 9, Type 1, BuildingBlock: MIDCAF_clean_sbu_0, # of connection points: 6
#     Node 10, Type 1, BuildingBlock: MIDCAF_clean_sbu_0, # of connection points: 6
#     Node 11, Type 1, BuildingBlock: MIDCAF_clean_sbu_0, # of connection points: 6
#     Edge 12, Type (0, 1), None
#     Edge 13, Type (0, 1), None
#     Edge 14, Type (0, 1), None
#     Edge 15, Type (0, 1), None
#     Edge 16, Type (0, 1), None
#     Edge 17, Type (0, 1), None
#     Edge 18, Type (0, 1), None
#     Edge 19, Type (0, 1), None
#     Edge 20, Type (0, 1), None
#     Edge 21, Type (0, 1), None
#     Edge 22, Type (0, 1), None
#     Edge 23, Type (0, 1), None
#     Edge 24, Type (0, 1), None
#     Edge 25, Type (0, 1), None
#     Edge 26, Type (0, 1), None
#     Edge 27, Type (0, 1), None
#     Edge 28, Type (0, 1), None
#     Edge 29, Type (0, 1), None
#     Edge 30, Type (0, 1), None
#     Edge 31, Type (0, 1), None
#     Edge 32, Type (0, 1), None
#     Edge 33, Type (0, 1), None
#     Edge 34, Type (0, 1), None
#     Edge 35, Type (0, 1), None
# Relax obj value: 0.019
# Max RMSD: 0.064
# Mean RMSD: 0.024
data_MOF--net-pyr--node1-MIDCAF_clean_sbu_0--node2-KAKCAD_clean_linker_0--edge1-none
_symmetry_space_group_name_H-M    P1
_symmetry_Int_Tables_number       1
_symmetry_cell_setting            triclinic
loop_
_symmetry_equiv_pos_as_xyz
'x, y, z'
_cell_length_a     23.840549
_cell_length_b     24.014887
_cell_length_c     23.924089
_cell_angle_alpha  90.306184
_cell_angle_beta   89.878874
_cell_angle_gamma 90.346852
loop_
_atom_site_label
_atom_site_type_symbol
_atom_site_fract_x
_atom_site_fract_y
_atom_site_fract_z
_atom_type_partial_charge
C0 C 0.11597 0.17129 0.40183 0.0
C1 C 0.14713 0.12907 0.42704 0.0
C2 C 0.14209 0.20877 0.36535 0.0
C3 C 0.20019 0.20535 0.35421 0.0
C4 C 0.23193 0.16656 0.38445 0.0
C5 C 0.20553 0.12824 0.4197 0.0
C6 C 0.22561 0.23636 0.30617 0.0
C7 C 0.20377 0.28801 0.2896 0.0
C8 C 0.21711 0.31119 0.23715 0.0
C9 C 0.25944 0.28548 0.20511 0.0
C10 C 0.28402 0.23493 0.22166 0.0
C11 C 0.26611 0.2105 0.27191 0.0
C12 C 0.32313 0.20452 0.18312 0.0
C13 C 0.31571 0.208 0.12502 0.0
C14 C 0.36638 0.17011 0.2033 0.0
C15 C 0.40059 0.1398 0.16618 0.0
C16 C 0.39329 0.14424 0.10817 0.0
C17 C 0.18108 0.35604 0.21217 0.0
C18 C 0.12449 0.36121 0.22863 0.0
C19 C 0.19974 0.38888 0.16683 0.0
C20 C 0.16204 0.42128 0.13616 0.0
C21 C 0.1054 0.42442 0.15171 0.0
C22 C 0.08773 0.39542 0.19954 0.0
C23 C 0.35054 0.17921 0.0884 0.0
H24 H 0.07075 0.17226 0.40632 0.0
H25 H 0.11571 0.2374 0.34277 0.0
H26 H 0.27685 0.16361 0.37854 0.0
H27 H 0.23041 0.096 0.43896 0.0
H28 H 0.17424 0.30881 0.31683 0.0
H29 H 0.28096 0.16936 0.2823 0.0
H30 H 0.27157 0.30315 0.16552 0.0
H31 H 0.28186 0.23181 0.10715 0.0
H32 H 0.37362 0.16618 0.24776 0.0
H33 H 0.43162 0.11217 0.18292 0.0
H34 H 0.10681 0.33649 0.26199 0.0
H35 H 0.24295 0.38815 0.15309 0.0
H36 H 0.34264 0.18359 0.04408 0.0
H37 H 0.04435 0.39659 0.21303 0.0
H38 H 0.17675 0.44122 0.09861 0.0
C39 C 0.32861 0.91889 0.91286 0.0
C40 C 0.38693 0.91647 0.92024 0.0
C41 C 0.30113 0.88064 0.87806 0.0
C42 C 0.33169 0.84017 0.84831 0.0
C43 C 0.38973 0.8355 0.85921 0.0
C44 C 0.41692 0.87297 0.89528 0.0
C45 C 0.30508 0.80802 0.80137 0.0
C46 C 0.26457 0.83322 0.7671 0.0
C47 C 0.24505 0.80688 0.71817 0.0
C48 C 0.2689 0.75545 0.70248 0.0
C49 C 0.31185 0.73064 0.73408 0.0
C50 C 0.32557 0.75534 0.786 0.0
C51 C 0.34814 0.6853 0.70922 0.0
C52 C 0.33169 0.65416 0.66145 0.0
C53 C 0.40354 0.67811 0.72849 0.0
C54 C 0.44122 0.64412 0.70001 0.0
C55 C 0.42609 0.61734 0.64992 0.0
C56 C 0.20471 0.83588 0.68013 0.0
C57 C 0.16365 0.87294 0.70077 0.0
C58 C 0.20872 0.82851 0.62192 0.0
C59 C 0.17311 0.85649 0.5858 0.0
C60 C 0.13324 0.89468 0.60602 0.0
C61 C 0.12899 0.90262 0.66405 0.0
C62 C 0.37061 0.62201 0.6314 0.0
H63 H 0.30462 0.95216 0.93194 0.0
H64 H 0.25631 0.8847 0.87235 0.0
H65 H 0.41526 0.80557 0.83694 0.0
H66 H 0.46206 0.87077 0.89983 0.0
H67 H 0.25071 0.87503 0.77659 0.0
H68 H 0.35436 0.73497 0.81391 0.0
H69 H 0.25534 0.73617 0.66407 0.0
H70 H 0.28952 0.65596 0.64524 0.0
H71 H 0.42013 0.70106 0.76373 0.0
H72 H 0.48364 0.64149 0.71591 0.0
H73 H 0.15871 0.87977 0.74526 0.0
H74 H 0.24068 0.80251 0.60334 0.0
H75 H 0.35796 0.60361 0.59216 0.0
H76 H 0.10031 0.93279 0.68105 0.0
H77 H 0.17854 0.84932 0.54138 0.0
C78 C 0.90024 0.41867 0.87081 0.0
C79 C 0.92389 0.39073 0.91617 0.0
C80 C 0.86318 0.3908 0.83482 0.0
C81 C 0.84984 0.33393 0.84273 0.0
C82 C 0.8781 0.30506 0.88517 0.0
C83 C 0.914 0.33333 0.92194 0.0
C84 C 0.80217 0.30724 0.81145 0.0
C85 C 0.78803 0.32578 0.75763 0.0
C86 C 0.73577 0.31253 0.73329 0.0
C87 C 0.70205 0.2722 0.75986 0.0
C88 C 0.71643 0.25012 0.81233 0.0
C89 C 0.76608 0.26889 0.83819 0.0
C90 C 0.6766 0.21176 0.8421 0.0
C91 C 0.61838 0.21749 0.83493 0.0
C92 C 0.6957 0.16984 0.87837 0.0
C93 C 0.65752 0.13476 0.90621 0.0
C94 C 0.59957 0.13944 0.89717 0.0
C95 C 0.71242 0.34739 0.68661 0.0
C96 C 0.73148 0.40263 0.6795 0.0
C97 C 0.6656 0.32987 0.65457 0.0
C98 C 0.63557 0.36786 0.62198 0.0
C99 C 0.65334 0.4234 0.61793 0.0
C100 C 0.70301 0.43948 0.64515 0.0
C101 C 0.58076 0.18151 0.86115 0.0
H102 H 0.9065 0.46311 0.86597 0.0
H103 H 0.8421 0.4152 0.80341 0.0
H104 H 0.87052 0.26109 0.89181 0.0
H105 H 0.93195 0.31082 0.95666 0.0
H106 H 0.81696 0.35296 0.73595 0.0
H107 H 0.77473 0.25612 0.88059 0.0
H108 H 0.66294 0.25952 0.74109 0.0
H109 H 0.60116 0.25051 0.80975 0.0
H110 H 0.74013 0.16398 0.88533 0.0
H111 H 0.67343 0.10465 0.93513 0.0
H112 H 0.7662 0.41959 0.70313 0.0
H113 H 0.64997 0.2876 0.65641 0.0
H114 H 0.53643 0.1878 0.85387 0.0
H115 H 0.71826 0.48201 0.6428 0.0
H116 H 0.59665 0.35453 0.60316 0.0
C117 C 0.8287 0.61672 0.12049 0.0
C118 C 0.88675 0.61945 0.11098 0.0
C119 C 0.80277 0.65468 0.15663 0.0
C120 C 0.8347 0.69504 0.18562 0.0
C121 C 0.89239 0.6997 0.17294 0.0
C122 C 0.91791 0.66271 0.13557 0.0
C123 C 0.80995 0.72729 0.23338 0.0
C124 C 0.76927 0.70247 0.26824 0.0
C125 C 0.75105 0.72884 0.31757 0.0
C126 C 0.7761 0.77997 0.33293 0.0
C127 C 0.81913 0.80442 0.30071 0.0
C128 C 0.83221 0.77958 0.24879 0.0
C129 C 0.85582 0.84988 0.32501 0.0
C130 C 0.83808 0.88314 0.37062 0.0
C131 C 0.91221 0.85528 0.30773 0.0
C132 C 0.94953 0.89027 0.33611 0.0
C133 C 0.9327 0.91979 0.38412 0.0
C134 C 0.7104 0.70038 0.35611 0.0
C135 C 0.6682 0.66402 0.33593 0.0
C136 C 0.71496 0.70782 0.41427 0.0
C137 C 0.67833 0.68104 0.45074 0.0
C138 C 0.6369 0.64393 0.43092 0.0
C139 C 0.63266 0.63538 0.37302 0.0
C140 C 0.8764 0.91605 0.40071 0.0
H141 H 0.8037 0.58384 0.10163 0.0
H142 H 0.75807 0.65066 0.16367 0.0
H143 H 0.91905 0.72934 0.19457 0.0
H144 H 0.96289 0.66531 0.12947 0.0
H145 H 0.75425 0.66088 0.25887 0.0
H146 H 0.86171 0.79975 0.22103 0.0
H147 H 0.76355 0.7993 0.37166 0.0
H148 H 0.79512 0.88252 0.38506 0.0
H149 H 0.92935 0.83033 0.27416 0.0
H150 H 0.99266 0.89177 0.32183 0.0
H151 H 0.66288 0.65705 0.29151 0.0
H152 H 0.74793 0.73311 0.43249 0.0
H153 H 0.86236 0.93616 0.43849 0.0
H154 H 0.60309 0.60573 0.35637 0.0
H155 H 0.68406 0.68833 0.49509 0.0
C156 C 0.99054 0.93445 0.71736 0.0
C157 C 0.00659 0.9907 0.71328 0.0
C158 C 0.97066 0.91327 0.76824 0.0
C159 C 0.96583 0.94837 0.8152 0.0
C160 C 0.98606 0.00313 0.8122 0.0
C161 C 0.00672 0.02394 0.76189 0.0
C162 C 0.9352 0.92997 0.86565 0.0
C163 C 0.95332 0.8837 0.89588 0.0
C164 C 0.92444 0.86656 0.94418 0.0
C165 C 0.87677 0.89583 0.9617 0.0
C166 C 0.85812 0.94231 0.93156 0.0
C167 C 0.88741 0.95909 0.88357 0.0
C168 C 0.80764 0.97268 0.95034 0.0
C169 C 0.76065 0.97734 0.91533 0.0
C170 C 0.8046 0.99305 0.00524 0.0
C171 C 0.75427 0.01397 0.02617 0.0
C172 C 0.70564 0.01401 0.99294 0.0
C173 C 0.94443 0.81744 0.9752 0.0
C174 C 0.90978 0.77041 0.98233 0.0
C175 C 1.00073 0.81491 0.99161 0.0
C176 C 0.02351 0.7648 0.00947 0.0
C177 C 0.99063 0.71599 0.01045 0.0
C178 C 0.93282 0.7198 0.99975 0.0
C179 C 0.70978 0.99741 0.93663 0.0
H180 H 0.98926 0.90812 0.68047 0.0
H181 H 0.95539 0.87073 0.76987 0.0
H182 H 0.9834 0.03063 0.84816 0.0
H183 H 0.01884 0.06746 0.76002 0.0
H184 H 0.99 0.86104 0.8818 0.0
H185 H 0.87304 0.99482 0.86019 0.0
H186 H 0.85418 0.88243 0.9987 0.0
H187 H 0.76221 0.96192 0.87272 0.0
H188 H 0.84056 0.99051 0.0327 0.0
H189 H 0.75243 0.02642 0.06973 0.0
H190 H 0.86609 0.7716 0.9701 0.0
H191 H 0.02795 0.85094 0.98734 0.0
H192 H 0.6729 0.99618 0.91026 0.0
H193 H 0.90652 0.68287 0.99981 0.0
H194 H 0.06809 0.7633 0.01804 0.0
C195 C 0.52265 0.01281 0.26018 0.0
C196 C 0.52246 0.04728 0.21281 0.0
C197 C 0.54387 0.0323 0.31092 0.0
C198 C 0.56425 0.08693 0.31552 0.0
C199 C 0.55923 0.12313 0.26988 0.0
C200 C 0.53894 0.10329 0.21861 0.0
C201 C 0.59485 0.10455 0.36621 0.0
C202 C 0.64228 0.07494 0.38378 0.0
C203 C 0.67243 0.09253 0.43099 0.0
C204 C 0.6551 0.14011 0.46063 0.0
C205 C 0.60785 0.16974 0.44339 0.0
C206 C 0.57794 0.15184 0.39607 0.0
C207 C 0.59017 0.22078 0.47288 0.0
C208 C 0.53452 0.22564 0.49107 0.0
C209 C 0.62614 0.26724 0.47606 0.0
C210 C 0.60501 0.31929 0.49183 0.0
C211 C 0.54791 0.32501 0.50518 0.0
C212 C 0.7232 0.06281 0.44904 0.0
C213 C 0.72654 0.04277 0.50379 0.0
C214 C 0.77071 0.06046 0.4143 0.0
C215 C 0.82231 0.04325 0.4359 0.0
C216 C 0.82659 0.02736 0.4922 0.0
C217 C 0.77765 0.02476 0.52503 0.0
C218 C 0.51365 0.27725 0.50739 0.0
H219 H 0.51035 0.9694 0.25689 0.0
H220 H 0.5467 0.00398 0.3459 0.0
H221 H 0.57466 0.16558 0.27275 0.0
H222 H 0.54016 0.13051 0.18266 0.0
H223 H 0.65604 0.03864 0.36046 0.0
H224 H 0.54175 0.17508 0.38208 0.0
H225 H 0.67865 0.15435 0.49678 0.0
H226 H 0.5063 0.19012 0.48943 0.0
H227 H 0.66928 0.26422 0.46209 0.0
H228 H 0.63212 0.35556 0.48926 0.0
H229 H 0.6902 0.04386 0.53106 0.0
H230 H 0.76888 0.0759 0.37188 0.0
H231 H 0.46951 0.28053 0.5177 0.0
H232 H 0.7797 0.0127 0.56857 0.0
H233 H 0.85943 0.04639 0.40989 0.0
C234 C 0.21712 0.54894 0.10081 0.0
C235 C 0.21211 0.53403 0.04415 0.0
C236 C 0.26904 0.5662 0.12224 0.0
C237 C 0.31614 0.56955 0.08699 0.0
C238 C 0.31206 0.55031 0.03177 0.0
C239 C 0.2606 0.53232 0.01065 0.0
C240 C 0.36736 0.59914 0.10534 0.0
C241 C 0.39645 0.58217 0.15305 0.0
C242 C 0.44432 0.61151 0.17105 0.0
C243 C 0.46269 0.65825 0.1412 0.0
C244 C 0.43385 0.67558 0.09313 0.0
C245 C 0.38623 0.6459 0.07552 0.0
C246 C 0.45285 0.72579 0.06278 0.0
C247 C 0.41592 0.77013 0.05304 0.0
C248 C 0.50951 0.73175 0.04825 0.0
C249 C 0.53003 0.78277 0.02946 0.0
C250 C 0.49445 0.82912 0.02572 0.0
C251 C 0.47412 0.59312 0.22165 0.0
C252 C 0.47668 0.62731 0.26943 0.0
C253 C 0.49466 0.53869 0.22422 0.0
C254 C 0.5134 0.51721 0.27479 0.0
C255 C 0.51111 0.54946 0.32397 0.0
C256 C 0.49468 0.60546 0.32051 0.0
C257 C 0.43664 0.82164 0.03474 0.0
H258 H 0.1803 0.5514 0.12731 0.0
H259 H 0.27143 0.58094 0.16505 0.0
H260 H 0.34808 0.55202 0.00411 0.0
H261 H 0.25793 0.52102 0.96682 0.0
H262 H 0.38169 0.54629 0.17631 0.0
H263 H 0.36354 0.65948 0.03884 0.0
H264 H 0.4992 0.6813 0.15562 0.0
H265 H 0.37188 0.7663 0.06366 0.0
H266 H 0.53852 0.69775 0.05428 0.0
H267 H 0.57473 0.78705 0.02217 0.0
H268 H 0.46094 0.66951 0.26816 0.0
H269 H 0.49349 0.51187 0.18767 0.0
H270 H 0.40824 0.85659 0.03253 0.0
H271 H 0.49178 0.63099 0.35786 0.0
H272 H 0.52583 0.4739 0.27622 0.0
C273 C 0.09713 0.22235 0.53815 0.0
C274 C 0.03922 0.21507 0.52992 0.0
C275 C 0.11851 0.27457 0.55378 0.0
C276 C 0.08213 0.31982 0.56163 0.0
C277 C 0.02531 0.31368 0.5479 0.0
C278 C 0.00411 0.26186 0.53189 0.0
C279 C 0.10161 0.37099 0.5904 0.0
C280 C 0.15014 0.39898 0.57259 0.0
C281 C 0.16989 0.44605 0.60178 0.0
C282 C 0.14072 0.465 0.64902 0.0
C283 C 0.09185 0.43738 0.66715 0.0
C284 C 0.07266 0.39038 0.63784 0.0
C285 C 0.0624 0.457 0.71791 0.0
C286 C 0.05333 0.42115 0.76338 0.0
C287 C 0.04836 0.51333 0.72317 0.0
C288 C 0.03057 0.5346 0.77443 0.0
C289 C 0.0274 0.50013 0.82172 0.0
C290 C 0.22215 0.47377 0.58339 0.0
C291 C 0.26873 0.47744 0.61917 0.0
C292 C 0.22753 0.49112 0.52784 0.0
C293 C 0.27959 0.50776 0.50708 0.0
C294 C 0.32747 0.50657 0.54128 0.0
C295 C 0.32128 0.49334 0.59811 0.0
C296 C 0.03608 0.44265 0.81516 0.0
H297 H 0.1251 0.18698 0.5374 0.0
H298 H 0.16261 0.27844 0.56402 0.0
H299 H 0.99669 0.34828 0.55264 0.0
H300 H 0.95935 0.25759 0.52517 0.0
H301 H 0.17294 0.3837 0.53642 0.0
H302 H 0.03554 0.3685 0.65243 0.0
H303 H 0.1564 0.50091 0.67195 0.0
H304 H 0.06367 0.3774 0.76006 0.0
H305 H 0.05401 0.54149 0.68833 0.0
H306 H 0.02355 0.57902 0.77804 0.0
H307 H 0.26536 0.46416 0.66226 0.0
H308 H 0.19196 0.48918 0.49975 0.0
H309 H 0.03433 0.41515 0.85086 0.0
H310 H 0.35756 0.4914 0.6252 0.0
H311 H 0.2831 0.51787 0.46312 0.0
Zn312 Zn 0.95769 0.07867 0.58161 0.0
Zn313 Zn 0.08226 0.97322 0.459 0.0
Zn314 Zn 0.01652 0.02434 0.5244 0.0
C315 C 0.11835 0.07993 0.45027 0.0
C316 C 0.97574 0.94912 0.41855 0.0
O317 O 0.02112 0.99257 0.61253 0.0
O318 O 0.98843 0.06665 0.65605 0.0
C319 C 0.01358 0.15908 0.53216 0.0
O320 O 0.07673 0.08453 0.48458 0.0
O321 O 0.1318 0.03281 0.43137 0.0
O322 O 0.02669 0.94019 0.4075 0.0
O323 O 0.96283 0.98046 0.46065 0.0
O324 O 0.96555 0.15472 0.55364 0.0
O325 O 0.04159 0.11455 0.52075 0.0
O326 O 0.92789 0.01699 0.4938 0.0
O327 O 0.88355 0.04581 0.56932 0.0
C328 C 0.88165 0.02664 0.5203 0.0
O329 O 0.06289 0.96351 0.57871 0.0
O330 O 0.11587 0.92409 0.51427 0.0
C331 C 0.00886 0.01852 0.65839 0.0
C332 C 0.10142 0.92842 0.56483 0.0
Zn333 Zn 0.45062 0.0709 0.95993 0.0
Zn334 Zn 0.57316 0.96565 0.07816 0.0
Zn335 Zn 0.51507 0.02007 0.02333 0.0
C336 C 0.65028 0.01773 0.02071 0.0
C337 C 0.51966 0.88546 0.02637 0.0
O338 O 0.46728 0.0791 0.07965 0.0
O339 O 0.41081 0.11413 0.01636 0.0
C340 C 0.55723 0.1041 0.92649 0.0
O341 O 0.60452 0.02724 0.99355 0.0
O342 O 0.64723 6e-05 0.07006 0.0
O343 O 0.56826 0.89057 0.04621 0.0
O344 O 0.49057 0.92965 0.01698 0.0
O345 O 0.50619 0.11232 0.91562 0.0
O346 O 0.57037 0.06818 0.96415 0.0
O347 O 0.45582 0.96005 0.98074 0.0
O348 O 0.40534 0.01227 0.92438 0.0
C349 C 0.41674 0.96505 0.94384 0.0
O350 O 0.50877 0.0489 0.1123 0.0
O351 O 0.53994 0.97294 0.15251 0.0
C352 C 0.4261 0.11123 0.06664 0.0
C353 C 0.51985 0.0211 0.15697 0.0
Zn354 Zn 0.57621 0.57148 0.57655 0.0
Zn355 Zn 0.46222 0.45815 0.4541 0.0
Zn356 Zn 0.51858 0.51414 0.51297 0.0
C357 C 0.52106 0.38005 0.50387 0.0
C358 C 0.51234 0.52079 0.37839 0.0
O359 O 0.46076 0.55612 0.57554 0.0
O360 O 0.52069 0.60598 0.62518 0.0
C361 C 0.61806 0.46724 0.59266 0.0
O362 O 0.54738 0.42542 0.51708 0.0
O363 O 0.47355 0.38276 0.48132 0.0
O364 O 0.49219 0.47226 0.37967 0.0
O365 O 0.52406 0.54612 0.42478 0.0
O366 O 0.62437 0.51617 0.61085 0.0
O367 O 0.58053 0.45708 0.55501 0.0
O368 O 0.56545 0.57549 0.45855 0.0
O369 O 0.61448 0.61942 0.52322 0.0
C370 C 0.60293 0.61212 0.47234 0.0
O371 O 0.42879 0.5186 0.54156 0.0
O372 O 0.3866 0.48624 0.46615 0.0
C373 C 0.47085 0.59116 0.61555 0.0
C374 C 0.38332 0.50666 0.51458 0.0
Zn375 Zn 0.07958 0.58577 0.95673 0.0
Zn376 Zn 0.95423 0.46496 0.07068 0.0
Zn377 Zn 0.02262 0.52667 0.01204 0.0
C378 C 0.06276 0.45174 0.11592 0.0
C379 C 0.9484 0.42265 0.96312 0.0
O380 O 0.99319 0.6153 0.0183 0.0
O381 O 0.06789 0.6603 0.9882 0.0
C382 C 0.15682 0.53375 0.01665 0.0
O383 O 0.07625 0.4842 0.07515 0.0
O384 O 0.01184 0.43936 0.12418 0.0
O385 O 0.93114 0.41157 0.01171 0.0
O386 O 0.98158 0.46453 0.95506 0.0
O387 O 0.15435 0.55519 0.96882 0.0
O388 O 0.11097 0.52167 0.04285 0.0
O389 O 0.01788 0.49877 0.92271 0.0
O390 O 0.04932 0.57451 0.88149 0.0
C391 C 0.0286 0.5263 0.87769 0.0
O392 O 0.9604 0.581 0.054 0.0
O393 O 0.90055 0.52361 0.09517 0.0
C394 C 0.01922 0.66158 0.00866 0.0
C395 C 0.91595 0.57262 0.08366 0.0
loop_
_geom_bond_atom_site_label_1
_geom_bond_atom_site_label_2
_geom_bond_distance
_geom_bond_site_symmetry_2
_ccdc_geom_bond_type
C0 C1 1.386 . S
C0 C2 1.397 . S
C0 H24 0.931 . S
C1 C0 1.386 . S
C1 C5 1.397 . S
C2 C0 1.397 . S
C2 C3 1.384 . S
C2 H25 0.930 . S
C3 C2 1.384 . S
C3 C4 1.377 . S
C3 C6 1.481 . S
C4 C3 1.377 . S
C4 C5 1.389 . S
C4 H26 0.929 . S
C5 C1 1.397 . S
C5 C4 1.389 . S
C5 H27 0.931 . S
C6 C3 1.481 . S
C6 C7 1.387 . S
C6 C11 1.390 . S
C7 C6 1.387 . S
C7 C8 1.401 . S
C7 H28 0.930 . S
C8 C7 1.401 . S
C8 C9 1.376 . S
C8 C17 1.511 . S
C9 C8 1.376 . S
C9 C10 1.392 . S
C9 H30 0.931 . S
C10 C9 1.392 . S
C10 C11 1.361 . S
C10 C12 1.500 . S
C11 C6 1.390 . S
C11 C10 1.361 . S
C11 H29 0.931 . S
C12 C10 1.500 . S
C12 C13 1.371 . S
C12 C14 1.365 . S
C13 C12 1.371 . S
C13 C23 1.386 . S
C13 H31 0.931 . S
C14 C12 1.365 . S
C14 C15 1.409 . S
C14 H32 0.929 . S
C15 C14 1.409 . S
C15 C16 1.380 . S
C15 H33 0.930 . S
C16 C15 1.380 . S
C16 C23 1.357 . S
C17 C8 1.511 . S
C17 C18 1.341 . S
C17 C19 1.371 . S
C18 C17 1.341 . S
C18 C22 1.394 . S
C18 H34 0.930 . S
C19 C17 1.371 . S
C19 C20 1.392 . S
C19 H35 0.931 . S
C20 C19 1.392 . S
C20 C21 1.331 . S
C20 H38 0.932 . S
C21 C20 1.331 . S
C21 C22 1.336 . S
C22 C18 1.394 . S
C22 C21 1.336 . S
C22 H37 0.929 . S
C23 C13 1.386 . S
C23 C16 1.357 . S
C23 H36 0.928 . S
H24 C0 0.931 . S
H25 C2 0.930 . S
H26 C4 0.929 . S
H27 C5 0.931 . S
H28 C7 0.930 . S
H29 C11 0.931 . S
H30 C9 0.931 . S
H31 C13 0.931 . S
H32 C14 0.929 . S
H33 C15 0.930 . S
H34 C18 0.930 . S
H35 C19 0.931 . S
H36 C23 0.928 . S
H37 C22 0.929 . S
H38 C20 0.932 . S
C39 C40 1.386 . S
C39 C41 1.397 . S
C39 H63 0.931 . S
C40 C39 1.386 . S
C40 C44 1.397 . S
C41 C39 1.397 . S
C41 C42 1.384 . S
C41 H64 0.930 . S
C42 C41 1.384 . S
C42 C43 1.377 . S
C42 C45 1.481 . S
C43 C42 1.377 . S
C43 C44 1.389 . S
C43 H65 0.929 . S
C44 C40 1.397 . S
C44 C43 1.389 . S
C44 H66 0.931 . S
C45 C42 1.481 . S
C45 C46 1.387 . S
C45 C50 1.390 . S
C46 C45 1.387 . S
C46 C47 1.401 . S
C46 H67 0.930 . S
C47 C46 1.401 . S
C47 C48 1.376 . S
C47 C56 1.511 . S
C48 C47 1.376 . S
C48 C49 1.392 . S
C48 H69 0.931 . S
C49 C48 1.392 . S
C49 C50 1.361 . S
C49 C51 1.500 . S
C50 C45 1.390 . S
C50 C49 1.361 . S
C50 H68 0.931 . S
C51 C49 1.500 . S
C51 C52 1.371 . S
C51 C53 1.365 . S
C52 C51 1.371 . S
C52 C62 1.386 . S
C52 H70 0.931 . S
C53 C51 1.365 . S
C53 C54 1.409 . S
C53 H71 0.929 . S
C54 C53 1.409 . S
C54 C55 1.380 . S
C54 H72 0.930 . S
C55 C54 1.380 . S
C55 C62 1.357 . S
C56 C47 1.511 . S
C56 C57 1.341 . S
C56 C58 1.371 . S
C57 C56 1.341 . S
C57 C61 1.394 . S
C57 H73 0.930 . S
C58 C56 1.371 . S
C58 C59 1.392 . S
C58 H74 0.931 . S
C59 C58 1.392 . S
C59 C60 1.331 . S
C59 H77 0.932 . S
C60 C59 1.331 . S
C60 C61 1.336 . S
C61 C57 1.394 . S
C61 C60 1.336 . S
C61 H76 0.929 . S
C62 C52 1.386 . S
C62 C55 1.357 . S
C62 H75 0.928 . S
H63 C39 0.931 . S
H64 C41 0.930 . S
H65 C43 0.929 . S
H66 C44 0.931 . S
H67 C46 0.930 . S
H68 C50 0.931 . S
H69 C48 0.931 . S
H70 C52 0.931 . S
H71 C53 0.929 . S
H72 C54 0.930 . S
H73 C57 0.930 . S
H74 C58 0.931 . S
H75 C62 0.928 . S
H76 C61 0.929 . S
H77 C59 0.932 . S
C78 C79 1.386 . S
C78 C80 1.397 . S
C78 H102 0.931 . S
C79 C78 1.386 . S
C79 C83 1.397 . S
C80 C78 1.397 . S
C80 C81 1.384 . S
C80 H103 0.930 . S
C81 C80 1.384 . S
C81 C82 1.377 . S
C81 C84 1.481 . S
C82 C81 1.377 . S
C82 C83 1.389 . S
C82 H104 0.929 . S
C83 C79 1.397 . S
C83 C82 1.389 . S
C83 H105 0.931 . S
C84 C81 1.481 . S
C84 C85 1.387 . S
C84 C89 1.390 . S
C85 C84 1.387 . S
C85 C86 1.401 . S
C85 H106 0.930 . S
C86 C85 1.401 . S
C86 C87 1.376 . S
C86 C95 1.511 . S
C87 C86 1.376 . S
C87 C88 1.392 . S
C87 H108 0.931 . S
C88 C87 1.392 . S
C88 C89 1.361 . S
C88 C90 1.500 . S
C89 C84 1.390 . S
C89 C88 1.361 . S
C89 H107 0.931 . S
C90 C88 1.500 . S
C90 C91 1.371 . S
C90 C92 1.365 . S
C91 C90 1.371 . S
C91 C101 1.386 . S
C91 H109 0.931 . S
C92 C90 1.365 . S
C92 C93 1.409 . S
C92 H110 0.929 . S
C93 C92 1.409 . S
C93 C94 1.380 . S
C93 H111 0.930 . S
C94 C93 1.380 . S
C94 C101 1.357 . S
C95 C86 1.511 . S
C95 C96 1.341 . S
C95 C97 1.371 . S
C96 C95 1.341 . S
C96 C100 1.394 . S
C96 H112 0.930 . S
C97 C95 1.371 . S
C97 C98 1.392 . S
C97 H113 0.931 . S
C98 C97 1.392 . S
C98 C99 1.331 . S
C98 H116 0.932 . S
C99 C98 1.331 . S
C99 C100 1.336 . S
C100 C96 1.394 . S
C100 C99 1.336 . S
C100 H115 0.929 . S
C101 C91 1.386 . S
C101 C94 1.357 . S
C101 H114 0.928 . S
H102 C78 0.931 . S
H103 C80 0.930 . S
H104 C82 0.929 . S
H105 C83 0.931 . S
H106 C85 0.930 . S
H107 C89 0.931 . S
H108 C87 0.931 . S
H109 C91 0.931 . S
H110 C92 0.929 . S
H111 C93 0.930 . S
H112 C96 0.930 . S
H113 C97 0.931 . S
H114 C101 0.928 . S
H115 C100 0.929 . S
H116 C98 0.932 . S
C117 C118 1.386 . S
C117 C119 1.397 . S
C117 H141 0.931 . S
C118 C117 1.386 . S
C118 C122 1.397 . S
C119 C117 1.397 . S
C119 C120 1.384 . S
C119 H142 0.930 . S
C120 C119 1.384 . S
C120 C121 1.377 . S
C120 C123 1.481 . S
C121 C120 1.377 . S
C121 C122 1.389 . S
C121 H143 0.929 . S
C122 C118 1.397 . S
C122 C121 1.389 . S
C122 H144 0.931 1_655 S
C123 C120 1.481 . S
C123 C124 1.387 . S
C123 C128 1.390 . S
C124 C123 1.387 . S
C124 C125 1.401 . S
C124 H145 0.930 . S
C125 C124 1.401 . S
C125 C126 1.376 . S
C125 C134 1.511 . S
C126 C125 1.376 . S
C126 C127 1.392 . S
C126 H147 0.931 . S
C127 C126 1.392 . S
C127 C128 1.361 . S
C127 C129 1.500 . S
C128 C123 1.390 . S
C128 C127 1.361 . S
C128 H146 0.931 . S
C129 C127 1.500 . S
C129 C130 1.371 . S
C129 C131 1.365 . S
C130 C129 1.371 . S
C130 C140 1.386 . S
C130 H148 0.931 . S
C131 C129 1.365 . S
C131 C132 1.409 . S
C131 H149 0.929 . S
C132 C131 1.409 . S
C132 C133 1.380 . S
C132 H150 0.930 1_655 S
C133 C132 1.380 . S
C133 C140 1.357 . S
C134 C125 1.511 . S
C134 C135 1.341 . S
C134 C136 1.371 . S
C135 C134 1.341 . S
C135 C139 1.394 . S
C135 H151 0.930 . S
C136 C134 1.371 . S
C136 C137 1.392 . S
C136 H152 0.931 . S
C137 C136 1.392 . S
C137 C138 1.331 . S
C137 H155 0.932 . S
C138 C137 1.331 . S
C138 C139 1.336 . S
C139 C135 1.394 . S
C139 C138 1.336 . S
C139 H154 0.929 . S
C140 C130 1.386 . S
C140 C133 1.357 . S
C140 H153 0.928 . S
H141 C117 0.931 . S
H142 C119 0.930 . S
H143 C121 0.929 . S
H144 C122 0.931 1_455 S
H145 C124 0.930 . S
H146 C128 0.931 . S
H147 C126 0.931 . S
H148 C130 0.931 . S
H149 C131 0.929 . S
H150 C132 0.930 1_455 S
H151 C135 0.930 . S
H152 C136 0.931 . S
H153 C140 0.928 . S
H154 C139 0.929 . S
H155 C137 0.932 . S
C156 C157 1.386 1_565 S
C156 C158 1.397 1_455 S
C156 H180 0.931 . S
C157 C156 1.386 1_545 S
C157 C161 1.397 1_455 S
C158 C156 1.397 1_655 S
C158 C159 1.384 . S
C158 H181 0.930 . S
C159 C158 1.384 . S
C159 C160 1.377 1_565 S
C159 C162 1.481 . S
C160 C159 1.377 1_545 S
C160 C161 1.389 . S
C160 H182 0.929 . S
C161 C157 1.397 1_655 S
C161 C160 1.389 . S
C161 H183 0.930 . S
C162 C159 1.481 . S
C162 C163 1.387 . S
C162 C167 1.390 . S
C163 C162 1.387 . S
C163 C164 1.401 . S
C163 H184 0.924 1_655 S
C164 C163 1.401 . S
C164 C165 1.376 . S
C164 C173 1.511 . S
C165 C164 1.376 . S
C165 C166 1.392 . S
C165 H186 0.931 1_556 S
C166 C165 1.392 . S
C166 C167 1.361 . S
C166 C168 1.500 . S
C167 C162 1.390 . S
C167 C166 1.361 . S
C167 H185 0.931 1_565 S
C168 C166 1.500 . S
C168 C169 1.371 1_556 S
C168 C170 1.365 1_565 S
C169 C168 1.371 1_554 S
C169 C179 1.386 . S
C169 H187 0.931 . S
C170 C168 1.365 1_545 S
C170 C171 1.409 1_556 S
C170 H188 0.929 . S
C171 C170 1.409 1_554 S
C171 C172 1.380 . S
C171 H189 0.930 . S
C172 C171 1.380 . S
C172 C179 1.357 1_545 S
C173 C164 1.511 . S
C173 C174 1.341 1_655 S
C173 C175 1.371 1_556 S
C174 C173 1.341 1_455 S
C174 C178 1.394 . S
C174 H190 0.930 . S
C175 C173 1.371 1_554 S
C175 C176 1.392 . S
C175 H191 0.931 . S
C176 C175 1.392 . S
C176 C177 1.331 1_655 S
C176 H194 0.932 . S
C177 C176 1.331 1_455 S
C177 C178 1.336 1_554 S
C178 C174 1.394 . S
C178 C177 1.336 1_556 S
C178 H193 0.929 . S
C179 C169 1.386 . S
C179 C172 1.357 1_565 S
C179 H192 0.928 . S
H180 C156 0.931 . S
H181 C158 0.930 . S
H182 C160 0.929 . S
H183 C161 0.930 . S
H184 C163 0.924 1_455 S
H185 C167 0.931 1_545 S
H186 C165 0.931 1_554 S
H187 C169 0.931 . S
H188 C170 0.929 . S
H189 C171 0.930 . S
H190 C174 0.930 . S
H191 C175 0.931 . S
H192 C179 0.928 . S
H193 C178 0.929 . S
H194 C176 0.932 . S
C195 C196 1.386 1_565 S
C195 C197 1.389 1_565 S
C195 H219 0.931 . S
C196 C195 1.386 1_545 S
C196 C200 1.397 . S
C197 C195 1.389 1_545 S
C197 C198 1.403 . S
C197 H220 0.919 1_545 S
C198 C197 1.403 . S
C198 C199 1.377 . S
C198 C201 1.481 . S
C199 C198 1.377 . S
C199 C200 1.389 . S
C199 H221 0.929 . S
C200 C196 1.397 . S
C200 C199 1.389 . S
C200 H222 0.931 . S
C201 C198 1.481 . S
C201 C202 1.387 . S
C201 C206 1.390 . S
C202 C201 1.387 . S
C202 C203 1.401 . S
C202 H223 0.930 . S
C203 C202 1.401 . S
C203 C204 1.376 . S
C203 C212 1.511 . S
C204 C203 1.376 . S
C204 C205 1.392 . S
C204 H225 0.931 . S
C205 C204 1.392 . S
C205 C206 1.361 . S
C205 C207 1.500 . S
C206 C201 1.390 . S
C206 C205 1.361 . S
C206 H224 0.931 . S
C207 C205 1.500 . S
C207 C208 1.371 . S
C207 C209 1.365 . S
C208 C207 1.371 . S
C208 C218 1.386 . S
C208 H226 0.931 . S
C209 C207 1.365 . S
C209 C210 1.409 . S
C209 H227 0.929 . S
C210 C209 1.409 . S
C210 C211 1.380 . S
C210 H228 0.930 . S
C211 C210 1.380 . S
C211 C218 1.357 . S
C212 C203 1.511 . S
C212 C213 1.341 . S
C212 C214 1.371 . S
C213 C212 1.341 . S
C213 C217 1.394 1_545 S
C213 H229 0.930 1_545 S
C214 C212 1.371 . S
C214 C215 1.392 . S
C214 H230 0.931 . S
C215 C214 1.392 . S
C215 C216 1.331 . S
C215 H233 0.932 . S
C216 C215 1.331 . S
C216 C217 1.336 1_545 S
C217 C213 1.394 1_565 S
C217 C216 1.336 1_565 S
C217 H232 0.929 . S
C218 C208 1.386 . S
C218 C211 1.357 . S
C218 H231 0.928 . S
H219 C195 0.931 . S
H220 C197 0.919 1_565 S
H221 C199 0.929 . S
H222 C200 0.931 . S
H223 C202 0.930 . S
H224 C206 0.931 . S
H225 C204 0.931 . S
H226 C208 0.931 . S
H227 C209 0.929 . S
H228 C210 0.930 . S
H229 C213 0.930 1_565 S
H230 C214 0.931 . S
H231 C218 0.928 . S
H232 C217 0.929 . S
H233 C215 0.932 . S
C234 C235 1.386 1_554 S
C234 C236 1.397 . S
C234 H258 0.931 . S
C235 C234 1.386 1_556 S
C235 C239 1.397 . S
C236 C234 1.397 . S
C236 C237 1.384 . S
C236 H259 0.930 . S
C237 C236 1.384 . S
C237 C238 1.377 1_554 S
C237 C240 1.481 . S
C238 C237 1.377 1_556 S
C238 C239 1.389 . S
C238 H260 0.929 . S
C239 C235 1.397 . S
C239 C238 1.389 . S
C239 H261 0.931 . S
C240 C237 1.481 . S
C240 C241 1.387 . S
C240 C245 1.390 . S
C241 C240 1.387 . S
C241 C242 1.401 . S
C241 H262 0.930 . S
C242 C241 1.401 . S
C242 C243 1.376 . S
C242 C251 1.511 . S
C243 C242 1.376 . S
C243 C244 1.392 . S
C243 H264 0.931 . S
C244 C243 1.392 . S
C244 C245 1.361 . S
C244 C246 1.500 . S
C245 C240 1.390 . S
C245 C244 1.361 . S
C245 H263 0.931 . S
C246 C244 1.500 . S
C246 C247 1.371 . S
C246 C248 1.365 1_554 S
C247 C246 1.371 . S
C247 C257 1.386 . S
C247 H265 0.931 . S
C248 C246 1.365 1_556 S
C248 C249 1.409 . S
C248 H266 0.929 . S
C249 C248 1.409 . S
C249 C250 1.380 1_556 S
C249 H267 0.930 . S
C250 C249 1.380 1_554 S
C250 C257 1.357 . S
C251 C242 1.511 . S
C251 C252 1.341 . S
C251 C253 1.371 . S
C252 C251 1.341 . S
C252 C256 1.394 . S
C252 H268 0.930 . S
C253 C251 1.371 . S
C253 C254 1.392 . S
C253 H269 0.931 . S
C254 C253 1.392 . S
C254 C255 1.331 . S
C254 H272 0.932 . S
C255 C254 1.331 . S
C255 C256 1.336 . S
C256 C252 1.394 . S
C256 C255 1.336 . S
C256 H271 0.929 . S
C257 C247 1.386 . S
C257 C250 1.357 . S
C257 H270 0.928 . S
H258 C234 0.931 . S
H259 C236 0.930 . S
H260 C238 0.929 . S
H261 C239 0.931 . S
H262 C241 0.930 . S
H263 C245 0.931 . S
H264 C243 0.931 . S
H265 C247 0.931 . S
H266 C248 0.929 . S
H267 C249 0.930 . S
H268 C252 0.930 . S
H269 C253 0.931 . S
H270 C257 0.928 . S
H271 C256 0.929 . S
H272 C254 0.932 . S
C273 C274 1.386 1_455 S
C273 C275 1.397 . S
C273 H297 0.931 . S
C274 C273 1.386 1_655 S
C274 C278 1.397 . S
C275 C273 1.397 . S
C275 C276 1.384 . S
C275 H298 0.930 . S
C276 C275 1.384 . S
C276 C277 1.377 1_455 S
C276 C279 1.481 . S
C277 C276 1.377 1_655 S
C277 C278 1.389 . S
C277 H299 0.929 . S
C278 C274 1.397 . S
C278 C277 1.389 . S
C278 H300 0.931 . S
C279 C276 1.481 . S
C279 C280 1.387 . S
C279 C284 1.390 . S
C280 C279 1.387 . S
C280 C281 1.401 . S
C280 H301 0.930 . S
C281 C280 1.401 . S
C281 C282 1.376 . S
C281 C290 1.511 . S
C282 C281 1.376 . S
C282 C283 1.392 . S
C282 H303 0.931 . S
C283 C282 1.392 . S
C283 C284 1.361 . S
C283 C285 1.500 . S
C284 C279 1.390 . S
C284 C283 1.361 . S
C284 H302 0.931 . S
C285 C283 1.500 . S
C285 C286 1.371 . S
C285 C287 1.365 1_455 S
C286 C285 1.371 . S
C286 C296 1.386 . S
C286 H304 0.931 . S
C287 C285 1.365 1_655 S
C287 C288 1.409 . S
C287 H305 0.929 . S
C288 C287 1.409 . S
C288 C289 1.380 1_655 S
C288 H306 0.930 . S
C289 C288 1.380 1_455 S
C289 C296 1.357 . S
C290 C281 1.511 . S
C290 C291 1.341 . S
C290 C292 1.371 . S
C291 C290 1.341 . S
C291 C295 1.394 . S
C291 H307 0.930 . S
C292 C290 1.371 . S
C292 C293 1.392 . S
C292 H308 0.931 . S
C293 C292 1.392 . S
C293 C294 1.331 . S
C293 H311 0.932 . S
C294 C293 1.331 . S
C294 C295 1.336 . S
C295 C291 1.394 . S
C295 C294 1.336 . S
C295 H310 0.929 . S
C296 C286 1.386 . S
C296 C289 1.357 . S
C296 H309 0.928 . S
H297 C273 0.931 . S
H298 C275 0.930 . S
H299 C277 0.929 . S
H300 C278 0.931 . S
H301 C280 0.930 . S
H302 C284 0.931 . S
H303 C282 0.931 . S
H304 C286 0.931 . S
H305 C287 0.929 . S
H306 C288 0.930 . S
H307 C291 0.930 . S
H308 C292 0.931 . S
H309 C296 0.928 . S
H310 C295 0.929 . S
H311 C293 0.932 . S
Zn312 O318 1.920 . S
Zn312 O324 1.898 . S
Zn312 O327 1.905 . S
Zn313 O321 1.905 1_565 S
Zn313 O322 1.898 . S
Zn313 O330 1.920 . S
Zn314 O317 2.080 1_455 S
Zn314 O320 2.114 . S
Zn314 O323 2.120 1_445 S
Zn314 O325 2.120 . S
Zn314 O326 2.114 1_455 S
Zn314 O329 2.080 . S
C315 O320 1.166 . S
C315 O321 1.182 . S
C316 O322 1.167 1_655 S
C316 O323 1.299 . S
O317 Zn314 2.080 1_655 S
O317 C331 1.305 . S
O318 Zn312 1.920 . S
O318 C331 1.234 . S
C319 O324 1.167 1_455 S
C319 O325 1.299 . S
O320 Zn314 2.114 . S
O320 C315 1.166 . S
O321 Zn313 1.905 1_545 S
O321 C315 1.182 . S
O322 Zn313 1.898 . S
O322 C316 1.167 1_455 S
O323 Zn314 2.120 1_665 S
O323 C316 1.299 . S
O324 Zn312 1.898 . S
O324 C319 1.167 1_655 S
O325 Zn314 2.120 . S
O325 C319 1.299 . S
O326 Zn314 2.114 1_655 S
O326 C328 1.166 . S
O327 Zn312 1.905 . S
O327 C328 1.182 . S
C328 O326 1.166 . S
C328 O327 1.182 . S
O329 Zn314 2.080 . S
O329 C332 1.305 1_545 S
O330 Zn313 1.920 . S
O330 C332 1.234 . S
C331 O317 1.305 . S
C331 O318 1.234 . S
C332 O329 1.305 1_565 S
C332 O330 1.234 . S
Zn333 O339 1.920 1_556 S
Zn333 O345 1.898 . S
Zn333 O348 1.905 . S
Zn334 O342 1.905 . S
Zn334 O343 1.898 . S
Zn334 O351 1.920 . S
Zn335 O338 2.080 . S
Zn335 O341 2.114 1_545 S
Zn335 O344 2.120 1_545 S
Zn335 O346 2.120 . S
Zn335 O347 2.114 1_544 S
Zn335 O350 2.080 . S
C336 O341 1.166 . S
C336 O342 1.182 . S
C337 O343 1.167 . S
C337 O344 1.299 . S
O338 Zn335 2.080 . S
O338 C352 1.305 . S
O339 Zn333 1.920 1_554 S
O339 C352 1.234 . S
C340 O345 1.167 . S
C340 O346 1.299 1_556 S
O341 Zn335 2.114 1_565 S
O341 C336 1.166 . S
O342 Zn334 1.905 . S
O342 C336 1.182 . S
O343 Zn334 1.898 . S
O343 C337 1.167 . S
O344 Zn335 2.120 1_565 S
O344 C337 1.299 . S
O345 Zn333 1.898 . S
O345 C340 1.167 . S
O346 Zn335 2.120 . S
O346 C340 1.299 1_554 S
O347 Zn335 2.114 1_566 S
O347 C349 1.166 . S
O348 Zn333 1.905 . S
O348 C349 1.182 1_545 S
C349 O347 1.166 . S
C349 O348 1.182 1_565 S
O350 Zn335 2.080 . S
O350 C353 1.305 . S
O351 Zn334 1.920 . S
O351 C353 1.234 1_565 S
C352 O338 1.305 . S
C352 O339 1.234 . S
C353 O350 1.305 . S
C353 O351 1.234 1_545 S
Zn354 O360 1.920 . S
Zn354 O366 1.898 . S
Zn354 O369 1.905 . S
Zn355 O363 1.905 . S
Zn355 O364 1.898 . S
Zn355 O372 1.920 . S
Zn356 O359 2.080 . S
Zn356 O362 2.114 . S
Zn356 O365 2.120 . S
Zn356 O367 2.120 . S
Zn356 O368 2.114 . S
Zn356 O371 2.080 . S
C357 O362 1.166 . S
C357 O363 1.182 . S
C358 O364 1.167 . S
C358 O365 1.299 . S
O359 Zn356 2.080 . S
O359 C373 1.305 . S
O360 Zn354 1.920 . S
O360 C373 1.234 . S
C361 O366 1.167 . S
C361 O367 1.299 . S
O362 Zn356 2.114 . S
O362 C357 1.166 . S
O363 Zn355 1.905 . S
O363 C357 1.182 . S
O364 Zn355 1.898 . S
O364 C358 1.167 . S
O365 Zn356 2.120 . S
O365 C358 1.299 . S
O366 Zn354 1.898 . S
O366 C361 1.167 . S
O367 Zn356 2.120 . S
O367 C361 1.299 . S
O368 Zn356 2.114 . S
O368 C370 1.166 . S
O369 Zn354 1.905 . S
O369 C370 1.182 . S
C370 O368 1.166 . S
C370 O369 1.182 . S
O371 Zn356 2.080 . S
O371 C374 1.305 . S
O372 Zn355 1.920 . S
O372 C374 1.234 . S
C373 O359 1.305 . S
C373 O360 1.234 . S
C374 O371 1.305 . S
C374 O372 1.234 . S
Zn375 O381 1.920 . S
Zn375 O387 1.898 . S
Zn375 O390 1.905 . S
Zn376 O384 1.905 1_655 S
Zn376 O385 1.898 . S
Zn376 O393 1.920 . S
Zn377 O380 2.080 1_554 S
Zn377 O383 2.114 . S
Zn377 O386 2.120 1_454 S
Zn377 O388 2.120 . S
Zn377 O389 2.114 1_554 S
Zn377 O392 2.080 . S
C378 O383 1.166 . S
C378 O384 1.182 . S
C379 O385 1.167 1_556 S
C379 O386 1.299 . S
O380 Zn377 2.080 1_556 S
O380 C394 1.305 . S
O381 Zn375 1.920 . S
O381 C394 1.234 . S
C382 O387 1.167 1_554 S
C382 O388 1.299 . S
O383 Zn377 2.114 . S
O383 C378 1.166 . S
O384 Zn376 1.905 1_455 S
O384 C378 1.182 . S
O385 Zn376 1.898 . S
O385 C379 1.167 1_554 S
O386 Zn377 2.120 1_656 S
O386 C379 1.299 . S
O387 Zn375 1.898 . S
O387 C382 1.167 1_556 S
O388 Zn377 2.120 . S
O388 C382 1.299 . S
O389 Zn377 2.114 1_556 S
O389 C391 1.166 . S
O390 Zn375 1.905 . S
O390 C391 1.182 . S
C391 O389 1.166 . S
C391 O390 1.182 . S
O392 Zn377 2.080 . S
O392 C395 1.305 1_455 S
O393 Zn376 1.920 . S
O393 C395 1.234 . S
C394 O380 1.305 . S
C394 O381 1.234 . S
C395 O392 1.305 1_655 S
C395 O393 1.234 . S
C1 C315 1.539 . S
C40 C349 1.507 . S
C361 C99 1.512 . S
C118 C395 1.505 . S
C352 C16 1.540 . S
C332 C60 1.491 . S
C379 C79 1.505 . S
C370 C138 1.480 . S
C21 C378 1.504 . S
C340 C94 1.539 . S
C133 C316 1.449 . S
C55 C373 1.475 . S
C331 C157 2.275 1_655 S
C196 C353 2.288 . S
C255 C358 2.322 . S
C289 C391 2.390 . S
C172 C336 2.365 1_545 S
C328 C216 2.346 . S
C382 C235 2.349 1_554 S
C374 C294 2.290 . S
C177 C394 2.269 1_554 S
C337 C250 2.388 . S
C319 C274 2.253 1_455 S
C211 C357 2.320 . S
