# Generated by pormake.
# Topology csq, (4,8)-cn, num edge types: 1
# Building blocks:
#     Node 0, Type 0, BuildingBlock: MIFKUJ_clean_linker_1, # of connection points: 4
#     Node 1, Type 0, BuildingBlock: MIFKUJ_clean_linker_1, # of connection points: 4
#     Node 2, Type 0, BuildingBlock: MIFKUJ_clean_linker_1, # of connection points: 4
#     Node 3, Type 0, BuildingBlock: MIFKUJ_clean_linker_1, # of connection points: 4
#     Node 4, Type 0, BuildingBlock: MIFKUJ_clean_linker_1, # of connection points: 4
#     Node 5, Type 0, BuildingBlock: MIFKUJ_clean_linker_1, # of connection points: 4
#     Node 6, Type 1, BuildingBlock: TAGTUT_clean_sbu_1, # of connection points: 8
#     Node 7, Type 1, BuildingBlock: TAGTUT_clean_sbu_1, # of connection points: 8
#     Node 8, Type 1, BuildingBlock: TAGTUT_clean_sbu_1, # of connection points: 8
#     Edge 9, Type (0, 1), BuildingBlock: KIFKEQ_clean_linker_1, # of connection points: 2
#     Edge 10, Type (0, 1), BuildingBlock: KIFKEQ_clean_linker_1, # of connection points: 2
#     Edge 11, Type (0, 1), BuildingBlock: KIFKEQ_clean_linker_1, # of connection points: 2
#     Edge 12, Type (0, 1), BuildingBlock: KIFKEQ_clean_linker_1, # of connection points: 2
#     Edge 13, Type (0, 1), BuildingBlock: KIFKEQ_clean_linker_1, # of connection points: 2
#     Edge 14, Type (0, 1), BuildingBlock: KIFKEQ_clean_linker_1, # of connection points: 2
#     Edge 15, Type (0, 1), BuildingBlock: KIFKEQ_clean_linker_1, # of connection points: 2
#     Edge 16, Type (0, 1), BuildingBlock: KIFKEQ_clean_linker_1, # of connection points: 2
#     Edge 17, Type (0, 1), BuildingBlock: KIFKEQ_clean_linker_1, # of connection points: 2
#     Edge 18, Type (0, 1), BuildingBlock: KIFKEQ_clean_linker_1, # of connection points: 2
#     Edge 19, Type (0, 1), BuildingBlock: KIFKEQ_clean_linker_1, # of connection points: 2
#     Edge 20, Type (0, 1), BuildingBlock: KIFKEQ_clean_linker_1, # of connection points: 2
#     Edge 21, Type (0, 1), BuildingBlock: KIFKEQ_clean_linker_1, # of connection points: 2
#     Edge 22, Type (0, 1), BuildingBlock: KIFKEQ_clean_linker_1, # of connection points: 2
#     Edge 23, Type (0, 1), BuildingBlock: KIFKEQ_clean_linker_1, # of connection points: 2
#     Edge 24, Type (0, 1), BuildingBlock: KIFKEQ_clean_linker_1, # of connection points: 2
#     Edge 25, Type (0, 1), BuildingBlock: KIFKEQ_clean_linker_1, # of connection points: 2
#     Edge 26, Type (0, 1), BuildingBlock: KIFKEQ_clean_linker_1, # of connection points: 2
#     Edge 27, Type (0, 1), BuildingBlock: KIFKEQ_clean_linker_1, # of connection points: 2
#     Edge 28, Type (0, 1), BuildingBlock: KIFKEQ_clean_linker_1, # of connection points: 2
#     Edge 29, Type (0, 1), BuildingBlock: KIFKEQ_clean_linker_1, # of connection points: 2
#     Edge 30, Type (0, 1), BuildingBlock: KIFKEQ_clean_linker_1, # of connection points: 2
#     Edge 31, Type (0, 1), BuildingBlock: KIFKEQ_clean_linker_1, # of connection points: 2
#     Edge 32, Type (0, 1), BuildingBlock: KIFKEQ_clean_linker_1, # of connection points: 2
# Relax obj value: 0.033
# Max RMSD: 0.127
# Mean RMSD: 0.058
data_MOF--net-csq--node1-TAGTUT_clean_sbu_1--node2-MIFKUJ_clean_linker_1--edge1-KIFKEQ_clean_linker_1
_symmetry_space_group_name_H-M    P1
_symmetry_Int_Tables_number       1
_symmetry_cell_setting            triclinic
loop_
_symmetry_equiv_pos_as_xyz
'x, y, z'
_cell_length_a     63.287723
_cell_length_b     62.537699
_cell_length_c     22.251777
_cell_angle_alpha  92.637654
_cell_angle_beta   91.743144
_cell_angle_gamma 119.68472
loop_
_atom_site_label
_atom_site_type_symbol
_atom_site_fract_x
_atom_site_fract_y
_atom_site_fract_z
_atom_type_partial_charge
H0 H 0.26433 0.46324 0.25975 0.0
H1 H 0.29583 0.46609 0.33151 0.0
H2 H 0.34551 0.53903 0.27692 0.0
H3 H 0.31416 0.53575 0.20448 0.0
H4 H 0.24528 0.49353 0.26338 0.0
H5 H 0.28759 0.47052 0.12074 0.0
H6 H 0.3185 0.47144 0.0558 0.0
H7 H 0.32805 0.53882 0.98589 0.0
H8 H 0.29796 0.53831 0.0525 0.0
H9 H 0.23235 0.54043 0.06876 0.0
H10 H 0.20474 0.53925 0.9874 0.0
H11 H 0.15912 0.46077 1.00029 0.0
H12 H 0.18664 0.46217 0.08258 0.0
H13 H 0.25223 0.50613 0.04511 0.0
H14 H 0.21281 0.53134 0.18726 0.0
H15 H 0.18168 0.53181 0.24836 0.0
H16 H 0.16686 0.46257 0.31747 0.0
H17 H 0.19821 0.46229 0.25627 0.0
C18 C 0.28706 0.49916 0.22636 0.0
C19 C 0.28215 0.47969 0.26285 0.0
C20 C 0.30006 0.48146 0.30422 0.0
C21 C 0.32315 0.50283 0.31015 0.0
C22 C 0.32806 0.52216 0.27288 0.0
C23 C 0.31018 0.52031 0.23132 0.0
C24 C 0.26733 0.49845 0.18762 0.0
C25 C 0.24655 0.49578 0.21533 0.0
C26 C 0.26963 0.50246 0.1255 0.0
C27 C 0.29046 0.50441 0.0919 0.0
C28 C 0.29678 0.48581 0.09255 0.0
C29 C 0.31422 0.48618 0.05464 0.0
C30 C 0.32567 0.50509 0.01503 0.0
C31 C 0.31986 0.52409 0.01604 0.0
C32 C 0.3025 0.52374 0.05397 0.0
C33 C 0.21127 0.50145 0.08192 0.0
C34 C 0.216 0.52314 0.05521 0.0
C35 C 0.20033 0.52241 0.00869 0.0
C36 C 0.18002 0.49987 0.98738 0.0
C37 C 0.17482 0.47831 0.0157 0.0
C38 C 0.1903 0.47913 0.063 0.0
C39 C 0.23041 0.50132 0.12093 0.0
C40 C 0.251 0.50376 0.09314 0.0
C41 C 0.22806 0.49739 0.18294 0.0
C42 C 0.20762 0.49655 0.21615 0.0
C43 C 0.20253 0.51597 0.21451 0.0
C44 C 0.18477 0.51629 0.24987 0.0
C45 C 0.17171 0.49722 0.28799 0.0
C46 C 0.17677 0.47773 0.28936 0.0
C47 C 0.19455 0.47743 0.25393 0.0
H48 H 0.78999 0.28453 0.99011 0.0
H49 H 0.82569 0.31421 0.93981 0.0
H50 H 0.87165 0.29707 0.05147 0.0
H51 H 0.83584 0.26704 0.10049 0.0
H52 H 0.76706 0.23596 0.00745 0.0
H53 H 0.80763 0.31041 0.12106 0.0
H54 H 0.84313 0.34714 0.1668 0.0
H55 H 0.85224 0.30297 0.29836 0.0
H56 H 0.81814 0.26594 0.24817 0.0
H57 H 0.75433 0.1993 0.2393 0.0
H58 H 0.72461 0.17567 0.31147 0.0
H59 H 0.67314 0.19323 0.22724 0.0
H60 H 0.70296 0.2165 0.1542 0.0
H61 H 0.77217 0.24942 0.23006 0.0
H62 H 0.72577 0.17288 0.09351 0.0
H63 H 0.69168 0.14179 0.02694 0.0
H64 H 0.68739 0.19986 0.93897 0.0
H65 H 0.72147 0.23064 0.00489 0.0
C66 C 0.8103 0.27376 0.04938 0.0
C67 C 0.80769 0.28683 0.00286 0.0
C68 C 0.82814 0.30398 0.97473 0.0
C69 C 0.85153 0.30821 0.99228 0.0
C70 C 0.8539 0.29418 0.0368 0.0
C71 C 0.83347 0.27709 0.06498 0.0
C72 C 0.7893 0.25832 0.08527 0.0
C73 C 0.76807 0.23893 0.05614 0.0
C74 C 0.79032 0.26276 0.14843 0.0
C75 C 0.81063 0.28531 0.18013 0.0
C76 C 0.81757 0.30858 0.15907 0.0
C77 C 0.83772 0.32969 0.18598 0.0
C78 C 0.85083 0.32813 0.2361 0.0
C79 C 0.84311 0.30487 0.25876 0.0
C80 C 0.82332 0.28366 0.23075 0.0
C81 C 0.73081 0.20952 0.19109 0.0
C82 C 0.73652 0.1978 0.23593 0.0
C83 C 0.71958 0.18451 0.27761 0.0
C84 C 0.69655 0.18279 0.27581 0.0
C85 C 0.69062 0.19401 0.22974 0.0
C86 C 0.70761 0.20727 0.18779 0.0
C87 C 0.7502 0.22615 0.15261 0.0
C88 C 0.77116 0.24619 0.18146 0.0
C89 C 0.74825 0.2231 0.08887 0.0
C90 C 0.72604 0.20402 0.05422 0.0
C91 C 0.7172 0.17883 0.06048 0.0
C92 C 0.69781 0.16113 0.02228 0.0
C93 C 0.68706 0.16841 0.97718 0.0
C94 C 0.69562 0.19366 0.97228 0.0
C95 C 0.71492 0.21126 0.01031 0.0
H96 H 0.57077 0.7538 0.95471 0.0
H97 H 0.57325 0.71856 0.91202 0.0
H98 H 0.50422 0.66905 0.98401 0.0
H99 H 0.50248 0.70461 0.02869 0.0
H100 H 0.53385 0.76841 0.94296 0.0
H101 H 0.57378 0.74255 0.09034 0.0
H102 H 0.57453 0.71029 0.14669 0.0
H103 H 0.50958 0.69848 0.23252 0.0
H104 H 0.50845 0.73013 0.17406 0.0
H105 H 0.50823 0.81345 0.08218 0.0
H106 H 0.51462 0.85243 0.12982 0.0
H107 H 0.58548 0.86854 0.2026 0.0
H108 H 0.57897 0.82958 0.15479 0.0
H109 H 0.54293 0.78074 0.16644 0.0
H110 H 0.49898 0.78925 0.95357 0.0
H111 H 0.49765 0.82204 0.89981 0.0
H112 H 0.57398 0.87083 0.95006 0.0
H113 H 0.57511 0.83808 0.00404 0.0
C114 C 0.53642 0.73174 0.9945 0.0
C115 C 0.55604 0.73533 0.96052 0.0
C116 C 0.5574 0.71513 0.9362 0.0
C117 C 0.53893 0.69089 0.94456 0.0
C118 C 0.51896 0.68741 0.97756 0.0
C119 C 0.51777 0.70768 0.00246 0.0
C120 C 0.53674 0.75323 0.02595 0.0
C121 C 0.53562 0.771 0.99177 0.0
C122 C 0.53925 0.75665 0.08959 0.0
C123 C 0.54086 0.7385 0.12741 0.0
C124 C 0.55966 0.73295 0.12117 0.0
C125 C 0.56018 0.71463 0.15383 0.0
C126 C 0.54203 0.70165 0.19392 0.0
C127 C 0.52359 0.70778 0.20125 0.0
C128 C 0.52305 0.72605 0.16839 0.0
C129 C 0.54318 0.81873 0.11489 0.0
C130 C 0.52516 0.82544 0.10827 0.0
C131 C 0.52889 0.84775 0.13516 0.0
C132 C 0.55061 0.86358 0.16964 0.0
C133 C 0.56849 0.85663 0.1767 0.0
C134 C 0.56478 0.83438 0.1496 0.0
C135 C 0.54008 0.79591 0.0835 0.0
C136 C 0.54076 0.77793 0.11766 0.0
C137 C 0.53732 0.79236 0.01994 0.0
C138 C 0.53715 0.81127 0.98251 0.0
C139 C 0.51546 0.80692 0.95229 0.0
C140 C 0.51468 0.82571 0.9222 0.0
C141 C 0.53569 0.849 0.921 0.0
C142 C 0.55755 0.85303 0.94994 0.0
C143 C 0.55823 0.83437 0.98069 0.0
H144 H 0.77734 0.47572 0.15735 0.0
H145 H 0.80551 0.47848 0.23881 0.0
H146 H 0.84619 0.55779 0.22982 0.0
H147 H 0.81874 0.55446 0.14595 0.0
H148 H 0.75448 0.50875 0.17961 0.0
H149 H 0.79485 0.48355 0.04098 0.0
H150 H 0.826 0.4828 0.98053 0.0
H151 H 0.84087 0.55172 0.90925 0.0
H152 H 0.80943 0.55222 0.96969 0.0
H153 H 0.74472 0.55084 0.96164 0.0
H154 H 0.71518 0.54804 0.88396 0.0
H155 H 0.66229 0.47681 0.94124 0.0
H156 H 0.69222 0.47939 0.01762 0.0
H157 H 0.76241 0.52045 0.96122 0.0
H158 H 0.71696 0.54177 0.09935 0.0
H159 H 0.68572 0.5401 0.16457 0.0
H160 H 0.67915 0.47458 0.23835 0.0
H161 H 0.70979 0.47587 0.17225 0.0
C162 C 0.79627 0.51484 0.14532 0.0
C163 C 0.7928 0.49356 0.17195 0.0
C164 C 0.80869 0.49528 0.21923 0.0
C165 C 0.82796 0.51843 0.24186 0.0
C166 C 0.8318 0.53962 0.21337 0.0
C167 C 0.81615 0.5378 0.16529 0.0
C168 C 0.77681 0.51373 0.10498 0.0
C169 C 0.75586 0.51088 0.13151 0.0
C170 C 0.77934 0.51723 0.04288 0.0
C171 C 0.80003 0.51816 0.01084 0.0
C172 C 0.80517 0.4988 0.01344 0.0
C173 C 0.82294 0.49833 0.97845 0.0
C174 C 0.83598 0.5172 0.93983 0.0
C175 C 0.83096 0.5367 0.93774 0.0
C176 C 0.81314 0.53714 0.97275 0.0
C177 C 0.72062 0.51539 0.99563 0.0
C178 C 0.72665 0.53475 0.95789 0.0
C179 C 0.70975 0.53315 0.91357 0.0
C180 C 0.6865 0.51209 0.90602 0.0
C181 C 0.68023 0.49307 0.94524 0.0
C182 C 0.69716 0.49469 0.98957 0.0
C183 C 0.73979 0.51559 0.03578 0.0
C184 C 0.76084 0.51835 0.00929 0.0
C185 C 0.73709 0.51155 0.0979 0.0
C186 C 0.71578 0.50891 0.13053 0.0
C187 C 0.70834 0.52665 0.12827 0.0
C188 C 0.69058 0.52578 0.1659 0.0
C189 C 0.68022 0.50738 0.20712 0.0
C190 C 0.68709 0.48921 0.20781 0.0
C191 C 0.70454 0.48989 0.16979 0.0
H192 H 0.25394 0.80986 0.98361 0.0
H193 H 0.28345 0.83395 0.91149 0.0
H194 H 0.33539 0.81651 0.99348 0.0
H195 H 0.30581 0.79283 0.0665 0.0
H196 H 0.23645 0.75966 0.99081 0.0
H197 H 0.28177 0.83544 0.12918 0.0
H198 H 0.3154 0.86691 0.19616 0.0
H199 H 0.32167 0.80961 0.28251 0.0
H200 H 0.28804 0.77843 0.2162 0.0
H201 H 0.21938 0.72225 0.22921 0.0
H202 H 0.18378 0.69301 0.28097 0.0
H203 H 0.13783 0.71085 0.17159 0.0
H204 H 0.17342 0.74033 0.12105 0.0
H205 H 0.24199 0.77136 0.21398 0.0
H206 H 0.21029 0.69899 0.08186 0.0
H207 H 0.17533 0.66061 0.03746 0.0
H208 H 0.1476 0.70288 0.95082 0.0
H209 H 0.18289 0.74129 0.99435 0.0
C210 C 0.27773 0.7997 0.0307 0.0
C211 C 0.27182 0.81151 0.98654 0.0
C212 C 0.28863 0.82506 0.94488 0.0
C213 C 0.31172 0.82693 0.94603 0.0
C214 C 0.31786 0.81564 0.9915 0.0
C215 C 0.301 0.80213 0.03344 0.0
C216 C 0.25848 0.78267 0.06882 0.0
C217 C 0.23766 0.76258 0.03954 0.0
C218 C 0.26053 0.78527 0.13268 0.0
C219 C 0.28252 0.80464 0.1676 0.0
C220 C 0.29068 0.82975 0.16193 0.0
C221 C 0.30981 0.84767 0.20039 0.0
C222 C 0.32099 0.84072 0.24516 0.0
C223 C 0.31311 0.81556 0.24949 0.0
C224 C 0.29405 0.79774 0.21121 0.0
C225 C 0.19898 0.73318 0.17073 0.0
C226 C 0.20168 0.72008 0.21701 0.0
C227 C 0.18135 0.70337 0.24637 0.0
C228 C 0.15802 0.69948 0.22972 0.0
C229 C 0.15551 0.71314 0.18452 0.0
C230 C 0.17583 0.72999 0.15574 0.0
C231 C 0.21996 0.74929 0.13563 0.0
C232 C 0.24097 0.76878 0.1652 0.0
C233 C 0.21889 0.74553 0.07244 0.0
C234 C 0.19905 0.72282 0.04103 0.0
C235 C 0.1968 0.69994 0.05264 0.0
C236 C 0.1769 0.67812 0.02762 0.0
C237 C 0.15881 0.67895 0.9915 0.0
C238 C 0.16126 0.7019 0.97923 0.0
C239 C 0.18143 0.72375 0.00336 0.0
H240 H 0.49702 0.21019 0.0574 0.0
H241 H 0.49256 0.17176 0.01137 0.0
H242 H 0.43047 0.12999 0.11661 0.0
H243 H 0.43428 0.16838 0.15977 0.0
H244 H 0.46649 0.22978 0.05839 0.0
H245 H 0.50837 0.20808 0.20695 0.0
H246 H 0.51042 0.17561 0.26001 0.0
H247 H 0.44338 0.1584 0.34239 0.0
H248 H 0.44146 0.19097 0.28925 0.0
H249 H 0.43565 0.25603 0.26751 0.0
H250 H 0.43249 0.29096 0.30967 0.0
H251 H 0.50156 0.34118 0.23891 0.0
H252 H 0.50396 0.30593 0.19471 0.0
H253 H 0.47351 0.24274 0.28175 0.0
H254 H 0.43391 0.26748 0.13273 0.0
H255 H 0.43267 0.29917 0.07471 0.0
H256 H 0.49728 0.31071 0.98801 0.0
H257 H 0.49881 0.27938 0.04733 0.0
C258 C 0.46617 0.19211 0.11243 0.0
C259 C 0.48233 0.19272 0.07 0.0
C260 C 0.47994 0.17075 0.0444 0.0
C261 C 0.4613 0.14778 0.06081 0.0
C262 C 0.44491 0.14731 0.10265 0.0
C263 C 0.4472 0.16925 0.12777 0.0
C264 C 0.46937 0.21526 0.14235 0.0
C265 C 0.46845 0.23285 0.10711 0.0
C266 C 0.47189 0.21919 0.20589 0.0
C267 C 0.47473 0.20186 0.24413 0.0
C268 C 0.49432 0.19755 0.23718 0.0
C269 C 0.49548 0.17903 0.26748 0.0
C270 C 0.47694 0.16436 0.30486 0.0
C271 C 0.45776 0.16926 0.31327 0.0
C272 C 0.45677 0.18799 0.28351 0.0
C273 C 0.47004 0.27846 0.22827 0.0
C274 C 0.45021 0.27459 0.26174 0.0
C275 C 0.44847 0.29462 0.28578 0.0
C276 C 0.46678 0.31896 0.27773 0.0
C277 C 0.48692 0.32273 0.24511 0.0
C278 C 0.48849 0.30264 0.22046 0.0
C279 C 0.47035 0.25714 0.19778 0.0
C280 C 0.47191 0.23987 0.23299 0.0
C281 C 0.46876 0.25373 0.13412 0.0
C282 C 0.46673 0.27138 0.09519 0.0
C283 C 0.44792 0.27694 0.10154 0.0
C284 C 0.44722 0.29505 0.06842 0.0
C285 C 0.465 0.30755 0.02728 0.0
C286 C 0.48329 0.3013 0.01928 0.0
C287 C 0.48417 0.2834 0.05303 0.0
C288 C 0.98503 0.43959 0.77208 0.0
C289 C 0.05458 0.48445 0.69338 0.0
C290 C 0.03121 0.55564 0.70533 0.0
Mg291 Mg 0.00181 0.45401 0.64314 0.0
O292 O 0.99553 0.47946 0.66808 0.0
Mg293 Mg 0.0138 0.50016 0.74336 0.0
Mg294 Mg 0.0033 0.50634 0.61361 0.0
O295 O 0.01107 0.53314 0.55887 0.0
Mg296 Mg 0.00512 0.55877 0.58307 0.0
Mg297 Mg 0.99286 0.51251 0.48351 0.0
C298 C 0.97571 0.45744 0.52139 0.0
C299 C 0.03819 0.50324 0.51124 0.0
O300 O 0.99504 0.46266 0.78955 0.0
O301 O 0.98515 0.43212 0.71748 0.0
O302 O 0.04712 0.49612 0.72695 0.0
O303 O 0.04044 0.46744 0.65396 0.0
O304 O 0.98363 0.44579 0.55281 0.0
O305 O 0.97804 0.47829 0.53991 0.0
C306 C 0.96842 0.50928 0.71611 0.0
O307 O 0.97225 0.51018 0.65953 0.0
O308 O 0.98137 0.50525 0.75422 0.0
O309 O 0.012 0.54987 0.43678 0.0
O310 O 0.02202 0.58042 0.50883 0.0
O311 O 0.95964 0.51696 0.49882 0.0
C312 C 0.02222 0.57295 0.45432 0.0
O313 O 0.96657 0.54564 0.572 0.0
O314 O 0.02355 0.56724 0.67284 0.0
C315 C 0.95235 0.52887 0.53218 0.0
O316 O 0.02842 0.53451 0.68751 0.0
O317 O 0.03441 0.50251 0.56784 0.0
O318 O 0.02517 0.50713 0.47302 0.0
C319 C 0.45689 0.01382 0.79517 0.0
C320 C 0.43433 0.94613 0.6892 0.0
C321 C 0.53088 0.97891 0.67879 0.0
Mg322 Mg 0.45179 -0.00045 0.6577 0.0
O323 O 0.48432 0.00826 0.67571 0.0
Mg324 Mg 0.49109 0.99061 0.73975 0.0
Mg325 Mg 0.50379 0.0051 0.61117 0.0
O326 O 0.52336 0.00198 0.54691 0.0
Mg327 Mg 0.55602 0.01114 0.56606 0.0
Mg328 Mg 0.5166 0.01965 0.48284 0.0
C329 C 0.47678 0.03166 0.54463 0.0
C330 C 0.46656 0.96883 0.50025 0.0
O331 O 0.47159 0.00537 0.80273 0.0
O332 O 0.44764 0.01386 0.74312 0.0
O333 O 0.45482 0.95476 0.71896 0.0
O334 O 0.42938 0.95978 0.65741 0.0
O335 O 0.45841 0.02103 0.57762 0.0
O336 O 0.49616 0.03011 0.55364 0.0
C337 C 0.54108 0.04137 0.72202 0.0
O338 O 0.53741 0.03782 0.66441 0.0
O339 O 0.52624 0.02618 0.7573 0.0
O340 O 0.53635 0.00503 0.42053 0.0
O341 O 0.56084 0.99733 0.4806 0.0
O342 O 0.55285 0.05556 0.50355 0.0
C343 C 0.55151 0.99717 0.42846 0.0
O344 O 0.57825 0.05094 0.56614 0.0
O345 O 0.54953 0.98978 0.64673 0.0
C346 C 0.5733 0.06439 0.53359 0.0
O347 O 0.5114 0.98015 0.66863 0.0
O348 O 0.47015 0.97236 0.55788 0.0
O349 O 0.48148 0.98405 0.46513 0.0
C350 C 0.53788 0.56849 0.44298 0.0
C351 C 0.56262 0.51752 0.48622 0.0
C352 C 0.46882 0.45452 0.52602 0.0
Mg353 Mg 0.55164 0.55287 0.56268 0.0
O354 O 0.51811 0.53018 0.55413 0.0
Mg355 Mg 0.50518 0.50886 0.47717 0.0
Mg356 Mg 0.50276 0.5045 0.61323 0.0
O357 O 0.4873 0.47877 0.67203 0.0
Mg358 Mg 0.45374 0.45623 0.66253 0.0
Mg359 Mg 0.49987 0.50004 0.74902 0.0
C360 C 0.53669 0.55448 0.69981 0.0
C361 C 0.54501 0.49927 0.68529 0.0
O362 O 0.52175 0.54577 0.4292 0.0
O363 O 0.55102 0.57547 0.49276 0.0
O364 O 0.5406 0.50765 0.46456 0.0
O365 O 0.57083 0.53442 0.52925 0.0
O366 O 0.55204 0.5638 0.65863 0.0
O367 O 0.51651 0.53402 0.69006 0.0
C368 C 0.46028 0.50954 0.54207 0.0
O369 O 0.46793 0.50668 0.59339 0.0
O370 O 0.47124 0.51084 0.4939 0.0
O371 O 0.48296 0.46299 0.79683 0.0
O372 O 0.45403 0.43351 0.73216 0.0
O373 O 0.46444 0.50152 0.76046 0.0
C374 C 0.46691 0.4403 0.78229 0.0
O375 O 0.43452 0.47472 0.69508 0.0
O376 O 0.45334 0.44514 0.56685 0.0
C377 C 0.44252 0.49166 0.73796 0.0
O378 O 0.48896 0.47498 0.53621 0.0
O379 O 0.53766 0.50239 0.63379 0.0
O380 O 0.53377 0.49784 0.73307 0.0
H381 H 0.13839 0.51101 0.25599 0.0
H382 H 0.16197 0.48438 0.40503 0.0
H383 H 0.10718 0.51152 0.31578 0.0
H384 H 0.12985 0.48403 0.46453 0.0
H385 H 0.08269 0.51366 0.56518 0.0
H386 H 0.11588 0.51162 0.51484 0.0
H387 H 0.06917 0.48022 0.35207 0.0
H388 H 0.03676 0.48266 0.40115 0.0
C389 C 0.13702 0.50535 0.30165 0.0
C390 C 0.15272 0.4976 0.32548 0.0
C391 C 0.11889 0.50538 0.33582 0.0
C392 C 0.1158 0.49753 0.3948 0.0
C393 C 0.13177 0.49021 0.41933 0.0
C394 C 0.14998 0.49016 0.38494 0.0
C395 C 0.07956 0.50606 0.51893 0.0
C396 C 0.05734 0.49887 0.48669 0.0
C397 C 0.09851 0.50489 0.49009 0.0
C398 C 0.09537 0.49638 0.42886 0.0
C399 C 0.07253 0.48764 0.39852 0.0
C400 C 0.05387 0.48895 0.42687 0.0
H401 H 0.64704 0.15261 0.26009 0.0
H402 H 0.70629 0.1829 0.39701 0.0
H403 H 0.61869 0.1295 0.33498 0.0
H404 H 0.67786 0.15949 0.47194 0.0
H405 H 0.62267 0.08326 0.54918 0.0
H406 H 0.65347 0.11596 0.49361 0.0
H407 H 0.59948 0.13327 0.42543 0.0
H408 H 0.56862 0.1004 0.48021 0.0
C409 C 0.65399 0.15466 0.30632 0.0
C410 C 0.679 0.16952 0.32225 0.0
C411 C 0.6377 0.14143 0.34943 0.0
C412 C 0.64598 0.14269 0.40964 0.0
C413 C 0.67092 0.15792 0.4259 0.0
C414 C 0.68721 0.17124 0.3828 0.0
C415 C 0.61753 0.0946 0.52414 0.0
C416 C 0.59306 0.08887 0.51826 0.0
C417 C 0.63521 0.11334 0.492 0.0
C418 C 0.62877 0.12676 0.45368 0.0
C419 C 0.60488 0.12279 0.45316 0.0
C420 C 0.58724 0.10409 0.48511 0.0
H421 H 0.5031 0.65711 0.21705 0.0
H422 H 0.58135 0.70089 0.24678 0.0
H423 H 0.50319 0.62489 0.27431 0.0
H424 H 0.58157 0.66816 0.30171 0.0
H425 H 0.56813 0.61851 0.45898 0.0
H426 H 0.56962 0.65007 0.39666 0.0
H427 H 0.51496 0.59357 0.27101 0.0
H428 H 0.51298 0.56188 0.3342 0.0
C429 C 0.52033 0.65987 0.23577 0.0
C430 C 0.5422 0.68169 0.22759 0.0
C431 C 0.52043 0.64121 0.2679 0.0
C432 C 0.54239 0.64387 0.29261 0.0
C433 C 0.56429 0.66559 0.28387 0.0
C434 C 0.56419 0.68426 0.25179 0.0
C435 C 0.55653 0.61272 0.41785 0.0
C436 C 0.54034 0.58757 0.4019 0.0
C437 C 0.55749 0.63089 0.38187 0.0
C438 C 0.54233 0.62441 0.32889 0.0
C439 C 0.52661 0.59924 0.31203 0.0
C440 C 0.52561 0.58105 0.34809 0.0
H441 H 0.81426 0.49101 0.34118 0.0
H442 H 0.87681 0.55072 0.26619 0.0
H443 H 0.84016 0.49329 0.42765 0.0
H444 H 0.90212 0.55369 0.35418 0.0
H445 H 0.91155 0.4869 0.48932 0.0
H446 H 0.87744 0.48493 0.4301 0.0
H447 H 0.90586 0.56273 0.4731 0.0
H448 H 0.93979 0.56465 0.53347 0.0
C449 C 0.83345 0.50464 0.34296 0.0
C450 C 0.84344 0.52052 0.29607 0.0
C451 C 0.84814 0.50611 0.39295 0.0
C452 C 0.87298 0.52384 0.39776 0.0
C453 C 0.88287 0.54019 0.35208 0.0
C454 C 0.86832 0.53844 0.30159 0.0
C455 C 0.90991 0.50333 0.48823 0.0
C456 C 0.92836 0.52596 0.51541 0.0
C457 C 0.89043 0.5022 0.45437 0.0
C458 C 0.88935 0.52378 0.44641 0.0
C459 C 0.90648 0.54592 0.47833 0.0
C460 C 0.92574 0.54694 0.51325 0.0
H461 H 0.32804 0.83891 0.36658 0.0
H462 H 0.35906 0.88501 0.21857 0.0
H463 H 0.36273 0.86835 0.43359 0.0
H464 H 0.39311 0.91474 0.28585 0.0
H465 H 0.46391 0.94558 0.39305 0.0
H466 H 0.42778 0.91416 0.33542 0.0
H467 H 0.38361 0.91145 0.48233 0.0
H468 H 0.42031 0.94309 0.54101 0.0
C469 C 0.34221 0.85537 0.34843 0.0
C470 C 0.34097 0.85949 0.28705 0.0
C471 C 0.36191 0.87232 0.38698 0.0
C472 C 0.38078 0.89367 0.36482 0.0
C473 C 0.37906 0.8982 0.304 0.0
C474 C 0.35941 0.88131 0.26556 0.0
C475 C 0.44653 0.93814 0.41346 0.0
C476 C 0.44485 0.94699 0.47127 0.0
C477 C 0.42581 0.92026 0.38021 0.0
C478 C 0.40279 0.91081 0.40368 0.0
C479 C 0.40115 0.91852 0.46301 0.0
C480 C 0.4221 0.93651 0.49669 0.0
H481 H 0.44939 0.32282 0.38615 0.0
H482 H 0.48028 0.36347 0.22969 0.0
H483 H 0.44655 0.35739 0.43044 0.0
H484 H 0.47822 0.39867 0.27583 0.0
H485 H 0.50216 0.46027 0.44319 0.0
H486 H 0.49925 0.42824 0.371 0.0
H487 H 0.42432 0.38112 0.41117 0.0
H488 H 0.42711 0.413 0.48337 0.0
C489 C 0.45525 0.33896 0.36068 0.0
C490 C 0.46496 0.34023 0.30414 0.0
C491 C 0.45361 0.35881 0.38616 0.0
C492 C 0.46189 0.38058 0.35619 0.0
C493 C 0.47168 0.38205 0.29976 0.0
C494 C 0.47303 0.36198 0.27372 0.0
C495 C 0.4848 0.44346 0.43513 0.0
C496 C 0.46505 0.43895 0.47018 0.0
C497 C 0.48315 0.4251 0.39371 0.0
C498 C 0.46173 0.40203 0.38675 0.0
C499 C 0.4412 0.39859 0.41674 0.0
C500 C 0.44281 0.4169 0.45795 0.0
H501 H 0.56724 0.87889 0.84159 0.0
H502 H 0.50232 0.86449 0.93062 0.0
H503 H 0.5659 0.91165 0.78971 0.0
H504 H 0.50135 0.89798 0.88057 0.0
H505 H 0.57081 0.98146 0.73651 0.0
H506 H 0.57198 0.95165 0.80102 0.0
H507 H 0.49324 0.90926 0.78698 0.0
H508 H 0.49216 0.9398 0.72481 0.0
C509 C 0.55284 0.88299 0.85058 0.0
C510 C 0.53486 0.86912 0.88999 0.0
C511 C 0.55213 0.90192 0.82118 0.0
C512 C 0.53361 0.90773 0.8311 0.0
C513 C 0.5157 0.89389 0.87103 0.0
C514 C 0.51625 0.87471 0.89985 0.0
C515 C 0.55374 0.96598 0.74806 0.0
C516 C 0.53141 0.96291 0.7252 0.0
C517 C 0.5544 0.9487 0.7846 0.0
C518 C 0.53273 0.92765 0.79839 0.0
C519 C 0.51033 0.92525 0.77784 0.0
C520 C 0.50968 0.94278 0.74202 0.0
H521 H 0.67678 0.5477 0.86959 0.0
H522 H 0.6567 0.47138 0.83125 0.0
H523 H 0.64533 0.54284 0.79537 0.0
H524 H 0.6251 0.46651 0.75721 0.0
H525 H 0.54925 0.46411 0.7398 0.0
H526 H 0.5868 0.46633 0.77714 0.0
H527 H 0.6285 0.53337 0.68719 0.0
H528 H 0.5904 0.53089 0.64923 0.0
C529 C 0.666 0.53003 0.84442 0.0
C530 C 0.66892 0.5098 0.85707 0.0
C531 C 0.64809 0.5273 0.80156 0.0
C532 C 0.63273 0.50427 0.77059 0.0
C533 C 0.63654 0.48441 0.78084 0.0
C534 C 0.65446 0.48715 0.82361 0.0
C535 C 0.56645 0.4788 0.72621 0.0
C536 C 0.56711 0.49737 0.692 0.0
C537 C 0.58796 0.48006 0.74739 0.0
C538 C 0.6106 0.50016 0.73554 0.0
C539 C 0.61126 0.51778 0.69729 0.0
C540 C 0.58956 0.51627 0.67518 0.0
H541 H 0.11101 0.66443 0.00189 0.0
H542 H 0.15904 0.64197 0.92322 0.0
H543 H 0.07593 0.62881 0.94928 0.0
H544 H 0.1243 0.60702 0.8682 0.0
H545 H 0.05919 0.54346 0.77718 0.0
H546 H 0.08702 0.56861 0.86256 0.0
H547 H 0.06203 0.62132 0.8473 0.0
H548 H 0.03384 0.59593 0.76455 0.0
C549 C 0.11393 0.6517 0.97352 0.0
C550 C 0.13757 0.65598 0.96558 0.0
C551 C 0.09394 0.63135 0.94338 0.0
C552 C 0.0973 0.61525 0.90372 0.0
C553 C 0.12095 0.61883 0.89883 0.0
C554 C 0.14089 0.63895 0.92984 0.0
C555 C 0.0592 0.56007 0.79327 0.0
C556 C 0.04465 0.56795 0.7634 0.0
C557 C 0.07528 0.57458 0.84188 0.0
C558 C 0.07705 0.59719 0.86131 0.0
C559 C 0.06109 0.60396 0.83417 0.0
C560 C 0.04504 0.58948 0.78601 0.0
H561 H 0.41915 0.10528 0.02382 0.0
H562 H 0.49746 0.13732 0.03607 0.0
H563 H 0.41495 0.06791 0.97327 0.0
H564 H 0.49332 0.10051 0.98253 0.0
H565 H 0.48112 0.02821 0.90688 0.0
H566 H 0.47979 0.05692 0.98271 0.0
H567 H 0.42292 0.05858 0.874 0.0
H568 H 0.42371 0.02953 0.79957 0.0
C569 C 0.43547 0.10427 0.01636 0.0
C570 C 0.45867 0.12442 0.03342 0.0
C571 C 0.43306 0.08291 0.98689 0.0
C572 C 0.45379 0.08127 0.97344 0.0
C573 C 0.47694 0.10102 0.9927 0.0
C574 C 0.47935 0.12233 0.02248 0.0
C575 C 0.46788 0.03419 0.89999 0.0
C576 C 0.45278 0.02687 0.84669 0.0
C577 C 0.46728 0.05081 0.9432 0.0
C578 C 0.45153 0.06035 0.93397 0.0
C579 C 0.43518 0.05153 0.88286 0.0
C580 C 0.43577 0.03496 0.83982 0.0
H581 H 0.3679 0.54404 0.97946 0.0
H582 H 0.32223 0.46497 0.95022 0.0
H583 H 0.39505 0.54325 0.9052 0.0
H584 H 0.35001 0.46403 0.87825 0.0
H585 H 0.39289 0.47009 0.71641 0.0
H586 H 0.36435 0.47488 0.77923 0.0
H587 H 0.42467 0.53056 0.89423 0.0
H588 H 0.45309 0.52632 0.83084 0.0
C589 C 0.36361 0.52647 0.95723 0.0
C590 C 0.34284 0.50456 0.97115 0.0
C591 C 0.37934 0.52599 0.91493 0.0
C592 C 0.37477 0.50358 0.88544 0.0
C593 C 0.35396 0.48169 0.89926 0.0
C594 C 0.33822 0.48218 0.94144 0.0
C595 C 0.40009 0.48372 0.75435 0.0
C596 C 0.42533 0.49762 0.76875 0.0
C597 C 0.38369 0.48628 0.79084 0.0
C598 C 0.39213 0.50282 0.84253 0.0
C599 C 0.41743 0.51773 0.85476 0.0
C600 C 0.43379 0.5152 0.81833 0.0
H601 H 0.86129 0.35473 0.9706 0.0
H602 H 0.89143 0.30616 0.95511 0.0
H603 H 0.8967 0.38676 0.92518 0.0
H604 H 0.9273 0.33856 0.91125 0.0
H605 H 0.9658 0.38965 0.75638 0.0
H606 H 0.93576 0.35833 0.81581 0.0
H607 H 0.94065 0.41522 0.9427 0.0
H608 H 0.97051 0.44675 0.88255 0.0
C609 C 0.8755 0.35091 0.95749 0.0
C610 C 0.87344 0.32782 0.96584 0.0
C611 C 0.89598 0.3694 0.93234 0.0
C612 C 0.91487 0.36524 0.91482 0.0
C613 C 0.91299 0.34227 0.92398 0.0
C614 C 0.89252 0.32378 0.94938 0.0
C615 C 0.96081 0.39555 0.79746 0.0
C616 C 0.97038 0.42077 0.81423 0.0
C617 C 0.94365 0.37753 0.83175 0.0
C618 C 0.9356 0.38429 0.88358 0.0
C619 C 0.94621 0.40946 0.90238 0.0
C620 C 0.96348 0.42752 0.86817 0.0
H621 H 0.84556 0.52957 0.82248 0.0
H622 H 0.86912 0.50323 0.97219 0.0
H623 H 0.87743 0.52942 0.76292 0.0
H624 H 0.90002 0.50214 0.9123 0.0
H625 H 0.97012 0.52994 0.82623 0.0
H626 H 0.93799 0.53287 0.87543 0.0
H627 H 0.89104 0.50162 0.71299 0.0
H628 H 0.92398 0.49915 0.66246 0.0
C629 C 0.8575 0.52375 0.84271 0.0
C630 C 0.85484 0.51655 0.90238 0.0
C631 C 0.87556 0.5234 0.80828 0.0
C632 C 0.89142 0.51599 0.83295 0.0
C633 C 0.8884 0.50836 0.89214 0.0
C634 C 0.87045 0.50871 0.92638 0.0
C635 C 0.95301 0.52378 0.80061 0.0
C636 C 0.94939 0.5138 0.74082 0.0
C637 C 0.93452 0.52536 0.82904 0.0
C638 C 0.91169 0.51682 0.79882 0.0
C639 C 0.90841 0.50821 0.73763 0.0
C640 C 0.9272 0.50678 0.7087 0.0
H641 H 0.36122 0.8572 0.96117 0.0
H642 H 0.30163 0.8271 0.82518 0.0
H643 H 0.38934 0.88046 0.88605 0.0
H644 H 0.32983 0.85069 0.75004 0.0
H645 H 0.38498 0.92744 0.67429 0.0
H646 H 0.35424 0.89447 0.72932 0.0
H647 H 0.40818 0.8766 0.79466 0.0
H648 H 0.439 0.90973 0.74038 0.0
C649 C 0.35414 0.85523 0.91509 0.0
C650 C 0.3291 0.84037 0.89948 0.0
C651 C 0.3703 0.86854 0.87186 0.0
C652 C 0.36185 0.86736 0.81187 0.0
C653 C 0.33689 0.85217 0.79592 0.0
C654 C 0.32073 0.83876 0.83914 0.0
C655 C 0.39011 0.91592 0.69856 0.0
C656 C 0.41457 0.92157 0.7039 0.0
C657 C 0.37247 0.89703 0.73037 0.0
C658 C 0.37894 0.88338 0.76779 0.0
C659 C 0.40279 0.88726 0.76762 0.0
C660 C 0.42039 0.90611 0.73598 0.0
H661 H 0.4703 0.31376 0.90699 0.0
H662 H 0.45875 0.34557 0.07037 0.0
H663 H 0.46966 0.34604 0.8505 0.0
H664 H 0.4579 0.37781 0.01365 0.0
H665 H 0.48843 0.44632 0.89572 0.0
H666 H 0.48718 0.4142 0.95666 0.0
H667 H 0.43891 0.35843 0.82016 0.0
H668 H 0.44005 0.39027 0.75927 0.0
C669 C 0.46768 0.3277 0.93079 0.0
C670 C 0.46453 0.32713 0.99301 0.0
C671 C 0.4671 0.34604 0.89841 0.0
C672 C 0.46363 0.36438 0.92765 0.0
C673 C 0.46071 0.36397 0.99001 0.0
C674 C 0.461 0.34543 0.02231 0.0
C675 C 0.47735 0.4272 0.87895 0.0
C676 C 0.46445 0.42095 0.82238 0.0
C677 C 0.47659 0.40882 0.91397 0.0
C678 C 0.46313 0.38384 0.89287 0.0
C679 C 0.44972 0.37755 0.83718 0.0
C680 C 0.45028 0.39585 0.80249 0.0
H681 H 0.16699 0.46899 0.88585 0.0
H682 H 0.15961 0.52852 0.9686 0.0
H683 H 0.14232 0.46732 0.79722 0.0
H684 H 0.13413 0.52629 0.88192 0.0
H685 H 0.09606 0.52794 0.72077 0.0
H686 H 0.13148 0.53333 0.78059 0.0
H687 H 0.10154 0.45418 0.76891 0.0
H688 H 0.06708 0.44918 0.70601 0.0
C689 C 0.15989 0.48159 0.88507 0.0
C690 C 0.16497 0.49876 0.93401 0.0
C691 C 0.14581 0.48069 0.83435 0.0
C692 C 0.13626 0.49673 0.83199 0.0
C693 C 0.14165 0.51406 0.88108 0.0
C694 C 0.15601 0.51519 0.93124 0.0
C695 C 0.09772 0.51186 0.72887 0.0
C696 C 0.07888 0.48816 0.7094 0.0
C697 C 0.11777 0.51486 0.76394 0.0
C698 C 0.11895 0.49414 0.7816 0.0
C699 C 0.10133 0.4706 0.75644 0.0
C700 C 0.08154 0.46768 0.7201 0.0
H701 H 0.68048 0.17003 0.85555 0.0
H702 H 0.64808 0.12488 0.00432 0.0
H703 H 0.6456 0.14099 0.78848 0.0
H704 H 0.61381 0.09552 0.93702 0.0
H705 H 0.54359 0.06537 0.82786 0.0
H706 H 0.57976 0.0967 0.88569 0.0
H707 H 0.6242 0.09775 0.74097 0.0
H708 H 0.58749 0.06625 0.68218 0.0
C709 C 0.66595 0.15386 0.87386 0.0
C710 C 0.66688 0.14987 0.93542 0.0
C711 C 0.64615 0.13714 0.8353 0.0
C712 C 0.62686 0.11617 0.85764 0.0
C713 C 0.62821 0.11178 0.91871 0.0
C714 C 0.64797 0.12844 0.95718 0.0
C715 C 0.56104 0.07247 0.80797 0.0
C716 C 0.5628 0.06322 0.75076 0.0
C717 C 0.58178 0.09029 0.84132 0.0
C718 C 0.60487 0.09921 0.81854 0.0
C719 C 0.6066 0.09111 0.75972 0.0
C720 C 0.58564 0.0732 0.72595 0.0
H721 H 0.5559 0.68648 0.83594 0.0
H722 H 0.52534 0.64655 0.99354 0.0
H723 H 0.55871 0.65176 0.79258 0.0
H724 H 0.52739 0.6112 0.9484 0.0
H725 H 0.50352 0.54887 0.78299 0.0
H726 H 0.50639 0.58116 0.85419 0.0
H727 H 0.58115 0.62833 0.81279 0.0
H728 H 0.5784 0.59621 0.74152 0.0
C729 C 0.55009 0.67046 0.86183 0.0
C730 C 0.54051 0.66944 0.91844 0.0
C731 C 0.55171 0.65053 0.8369 0.0
C732 C 0.54356 0.62893 0.86754 0.0
C733 C 0.53384 0.62769 0.92398 0.0
C734 C 0.5325 0.64785 0.94944 0.0
C735 C 0.52084 0.56576 0.79058 0.0
C736 C 0.54054 0.5702 0.7554 0.0
C737 C 0.52246 0.58426 0.83143 0.0
C738 C 0.5438 0.60741 0.83771 0.0
C739 C 0.56432 0.6108 0.8077 0.0
C740 C 0.56274 0.59235 0.76704 0.0
H741 H 0.51499 0.16449 0.36692 0.0
H742 H 0.43954 0.11713 0.30646 0.0
H743 H 0.51483 0.13049 0.41696 0.0
H744 H 0.43946 0.08286 0.35455 0.0
H745 H 0.51286 0.06102 0.4714 0.0
H746 H 0.51297 0.09144 0.40638 0.0
H747 H 0.43961 0.07034 0.45234 0.0
H748 H 0.43916 0.03952 0.51489 0.0
C749 C 0.49846 0.14669 0.36376 0.0
C750 C 0.47719 0.14352 0.33352 0.0
C751 C 0.49839 0.12712 0.39205 0.0
C752 C 0.47709 0.10386 0.39015 0.0
C753 C 0.45605 0.1006 0.35816 0.0
C754 C 0.45606 0.12023 0.33055 0.0
C755 C 0.4966 0.06254 0.46665 0.0
C756 C 0.47605 0.04782 0.49871 0.0
C757 C 0.49675 0.08019 0.42982 0.0
C758 C 0.47638 0.08357 0.42436 0.0
C759 C 0.45554 0.06814 0.4546 0.0
C760 C 0.45534 0.05047 0.49098 0.0
H761 H 0.31735 0.48795 0.42578 0.0
H762 H 0.37178 0.52265 0.29599 0.0
H763 H 0.34897 0.49186 0.49904 0.0
H764 H 0.4031 0.52697 0.36911 0.0
H765 H 0.45871 0.54973 0.51213 0.0
H766 H 0.42325 0.55008 0.46727 0.0
H767 H 0.37764 0.4741 0.50737 0.0
H768 H 0.41332 0.47413 0.55389 0.0
C769 C 0.336 0.49636 0.41284 0.0
C770 C 0.34208 0.5051 0.35509 0.0
C771 C 0.35406 0.49872 0.45491 0.0
C772 C 0.37849 0.5101 0.44012 0.0
C773 C 0.38449 0.51874 0.38242 0.0
C774 C 0.36652 0.51623 0.34041 0.0
C775 C 0.44089 0.53352 0.51377 0.0
C776 C 0.43851 0.51193 0.53622 0.0
C777 C 0.42068 0.5336 0.48761 0.0
C778 C 0.39787 0.51193 0.48255 0.0
C779 C 0.39503 0.49105 0.51072 0.0
C780 C 0.41535 0.49106 0.5375 0.0
H781 H 0.89248 0.33219 0.28864 0.0
H782 H 0.85815 0.37537 0.24885 0.0
H783 H 0.92517 0.36739 0.34576 0.0
H784 H 0.89237 0.41148 0.30034 0.0
H785 H 0.93418 0.4552 0.47833 0.0
H786 H 0.90631 0.42691 0.39765 0.0
H787 H 0.95952 0.40535 0.35201 0.0
H788 H 0.98642 0.4323 0.43642 0.0
C789 C 0.892 0.34927 0.29145 0.0
C790 C 0.87228 0.35063 0.26513 0.0
C791 C 0.91118 0.36978 0.32315 0.0
C792 C 0.91155 0.39249 0.32813 0.0
C793 C 0.89254 0.39425 0.29868 0.0
C794 C 0.87301 0.37352 0.26822 0.0
C795 C 0.94002 0.44474 0.4501 0.0
C796 C 0.96208 0.44541 0.46396 0.0
C797 C 0.9241 0.42855 0.40347 0.0
C798 C 0.93031 0.41324 0.36889 0.0
C799 C 0.95366 0.41606 0.37908 0.0
C800 C 0.96921 0.43167 0.42693 0.0
H801 H 0.54063 0.89773 0.12349 0.0
H802 H 0.56857 0.88175 0.28452 0.0
H803 H 0.5449 0.93502 0.17607 0.0
H804 H 0.57261 0.91859 0.33696 0.0
H805 H 0.591 0.99129 0.41567 0.0
H806 H 0.59444 0.9628 0.34372 0.0
H807 H 0.52519 0.94479 0.25588 0.0
H808 H 0.5222 0.97396 0.32663 0.0
C809 C 0.54771 0.90222 0.17006 0.0
C810 C 0.55426 0.88684 0.19997 0.0
C811 C 0.5502 0.92357 0.20007 0.0
C812 C 0.55924 0.92988 0.26058 0.0
C813 C 0.56615 0.91465 0.28995 0.0
C814 C 0.56374 0.89344 0.25998 0.0
C815 C 0.57682 0.98169 0.38004 0.0
C816 C 0.55616 0.98454 0.37727 0.0
C817 C 0.5787 0.96526 0.33907 0.0
C818 C 0.5598 0.95107 0.29503 0.0
C819 C 0.54011 0.95546 0.28915 0.0
C820 C 0.53837 0.97217 0.32977 0.0
H821 H 0.681 0.50217 0.32832 0.0
H822 H 0.64061 0.51309 0.18479 0.0
H823 H 0.65258 0.50223 0.4005 0.0
H824 H 0.61221 0.51315 0.2569 0.0
H825 H 0.552 0.48573 0.38693 0.0
H826 H 0.5805 0.48224 0.32197 0.0
H827 H 0.6405 0.53293 0.44509 0.0
H828 H 0.61194 0.53672 0.51054 0.0
C829 C 0.66596 0.50445 0.31218 0.0
C830 C 0.66296 0.50752 0.25082 0.0
C831 C 0.64982 0.50465 0.35357 0.0
C832 C 0.6301 0.50755 0.33433 0.0
C833 C 0.62708 0.51059 0.27296 0.0
C834 C 0.64343 0.51075 0.23175 0.0
C835 C 0.57121 0.49591 0.40094 0.0
C836 C 0.57964 0.51178 0.45383 0.0
C837 C 0.58756 0.49401 0.3633 0.0
C838 C 0.61275 0.50765 0.37784 0.0
C839 C 0.62116 0.52224 0.43265 0.0
C840 C 0.60479 0.52437 0.47017 0.0
H841 H 0.15294 0.69311 0.34982 0.0
H842 H 0.11416 0.66451 0.17581 0.0
H843 H 0.11731 0.6628 0.39843 0.0
H844 H 0.07828 0.63429 0.22464 0.0
H845 H 0.04385 0.62302 0.47298 0.0
H846 H 0.07491 0.65395 0.41471 0.0
H847 H 0.06683 0.59684 0.28388 0.0
H848 H 0.03554 0.56563 0.34212 0.0
C849 C 0.13678 0.68032 0.32203 0.0
C850 C 0.1363 0.68116 0.25912 0.0
C851 C 0.1163 0.66315 0.34983 0.0
C852 C 0.09496 0.64631 0.31529 0.0
C853 C 0.0945 0.64702 0.2523 0.0
C854 C 0.11494 0.6644 0.22449 0.0
C855 C 0.04835 0.61698 0.43132 0.0
C856 C 0.03742 0.59175 0.41274 0.0
C857 C 0.06626 0.63474 0.39814 0.0
C858 C 0.0736 0.62775 0.34544 0.0
C859 C 0.06152 0.60274 0.32441 0.0
C860 C 0.0436 0.58488 0.3578 0.0
loop_
_geom_bond_atom_site_label_1
_geom_bond_atom_site_label_2
_geom_bond_distance
_geom_bond_site_symmetry_2
_ccdc_geom_bond_type
H0 C19 0.949 . S
H1 C20 0.950 . S
H2 C22 0.950 . S
H3 C23 0.950 . S
H4 C25 0.950 . S
H5 C28 0.950 . S
H6 C29 0.950 . S
H7 C31 0.951 1_556 S
H8 C32 0.949 . S
H9 C34 0.949 . S
H10 C35 0.950 . S
H11 C37 0.950 . S
H12 C38 0.950 . S
H13 C40 0.950 . S
H14 C43 0.950 . S
H15 C44 0.950 . S
H16 C46 0.951 . S
H17 C47 0.949 . S
C18 C19 1.376 . S
C18 C23 1.386 . S
C18 C24 1.483 . S
C19 H0 0.949 . S
C19 C18 1.376 . S
C19 C20 1.397 . S
C20 H1 0.950 . S
C20 C19 1.397 . S
C20 C21 1.391 . S
C21 C20 1.391 . S
C21 C22 1.405 . S
C22 H2 0.950 . S
C22 C21 1.405 . S
C22 C23 1.367 . S
C23 H3 0.950 . S
C23 C18 1.386 . S
C23 C22 1.367 . S
C24 C18 1.483 . S
C24 C25 1.382 . S
C24 C26 1.403 . S
C25 H4 0.950 . S
C25 C24 1.382 . S
C25 C41 1.411 . S
C26 C24 1.403 . S
C26 C27 1.489 . S
C26 C40 1.411 . S
C27 C26 1.489 . S
C27 C28 1.383 . S
C27 C32 1.382 . S
C28 H5 0.950 . S
C28 C27 1.383 . S
C28 C29 1.395 . S
C29 H6 0.950 . S
C29 C28 1.395 . S
C29 C30 1.288 . S
C30 C29 1.288 . S
C30 C31 1.392 . S
C31 H7 0.951 1_554 S
C31 C30 1.392 . S
C31 C32 1.392 . S
C32 H8 0.949 . S
C32 C27 1.382 . S
C32 C31 1.392 . S
C33 C34 1.376 . S
C33 C38 1.386 . S
C33 C39 1.483 . S
C34 H9 0.949 . S
C34 C33 1.376 . S
C34 C35 1.397 . S
C35 H10 0.950 . S
C35 C34 1.397 . S
C35 C36 1.391 . S
C36 C35 1.391 . S
C36 C37 1.405 . S
C37 H11 0.950 . S
C37 C36 1.405 . S
C37 C38 1.367 . S
C38 H12 0.950 . S
C38 C33 1.386 . S
C38 C37 1.367 . S
C39 C33 1.483 . S
C39 C40 1.382 . S
C39 C41 1.403 . S
C40 H13 0.950 . S
C40 C26 1.411 . S
C40 C39 1.382 . S
C41 C25 1.411 . S
C41 C39 1.403 . S
C41 C42 1.489 . S
C42 C41 1.489 . S
C42 C43 1.383 . S
C42 C47 1.382 . S
C43 H14 0.950 . S
C43 C42 1.383 . S
C43 C44 1.395 . S
C44 H15 0.950 . S
C44 C43 1.395 . S
C44 C45 1.288 . S
C45 C44 1.288 . S
C45 C46 1.392 . S
C46 H16 0.951 . S
C46 C45 1.392 . S
C46 C47 1.392 . S
C47 H17 0.949 . S
C47 C42 1.382 . S
C47 C46 1.392 . S
H48 C67 0.949 . S
H49 C68 0.959 . S
H50 C70 0.950 . S
H51 C71 0.950 . S
H52 C73 0.950 . S
H53 C76 0.950 . S
H54 C77 0.950 . S
H55 C79 0.951 . S
H56 C80 0.949 . S
H57 C82 0.949 . S
H58 C83 0.950 . S
H59 C85 0.950 . S
H60 C86 0.950 . S
H61 C88 0.950 . S
H62 C91 0.950 . S
H63 C92 0.950 . S
H64 C94 0.951 . S
H65 C95 0.949 . S
C66 C67 1.376 . S
C66 C71 1.386 . S
C66 C72 1.483 . S
C67 H48 0.949 . S
C67 C66 1.376 . S
C67 C68 1.387 1_554 S
C68 H49 0.959 . S
C68 C67 1.387 1_556 S
C68 C69 1.392 1_556 S
C69 C68 1.392 1_554 S
C69 C70 1.411 . S
C70 H50 0.950 . S
C70 C69 1.411 . S
C70 C71 1.367 . S
C71 H51 0.950 . S
C71 C66 1.386 . S
C71 C70 1.367 . S
C72 C66 1.483 . S
C72 C73 1.382 . S
C72 C74 1.403 . S
C73 H52 0.950 . S
C73 C72 1.382 . S
C73 C89 1.411 . S
C74 C72 1.403 . S
C74 C75 1.489 . S
C74 C88 1.411 . S
C75 C74 1.489 . S
C75 C76 1.383 . S
C75 C80 1.382 . S
C76 H53 0.950 . S
C76 C75 1.383 . S
C76 C77 1.395 . S
C77 H54 0.950 . S
C77 C76 1.395 . S
C77 C78 1.288 . S
C78 C77 1.288 . S
C78 C79 1.392 . S
C79 H55 0.951 . S
C79 C78 1.392 . S
C79 C80 1.392 . S
C80 H56 0.949 . S
C80 C75 1.382 . S
C80 C79 1.392 . S
C81 C82 1.376 . S
C81 C86 1.386 . S
C81 C87 1.483 . S
C82 H57 0.949 . S
C82 C81 1.376 . S
C82 C83 1.397 . S
C83 H58 0.950 . S
C83 C82 1.397 . S
C83 C84 1.391 . S
C84 C83 1.391 . S
C84 C85 1.405 . S
C85 H59 0.950 . S
C85 C84 1.405 . S
C85 C86 1.367 . S
C86 H60 0.950 . S
C86 C81 1.386 . S
C86 C85 1.367 . S
C87 C81 1.483 . S
C87 C88 1.382 . S
C87 C89 1.403 . S
C88 H61 0.950 . S
C88 C74 1.411 . S
C88 C87 1.382 . S
C89 C73 1.411 . S
C89 C87 1.403 . S
C89 C90 1.489 . S
C90 C89 1.489 . S
C90 C91 1.383 . S
C90 C95 1.382 . S
C91 H62 0.950 . S
C91 C90 1.383 . S
C91 C92 1.395 . S
C92 H63 0.950 . S
C92 C91 1.395 . S
C92 C93 1.288 1_554 S
C93 C92 1.288 1_556 S
C93 C94 1.392 . S
C94 H64 0.951 . S
C94 C93 1.392 . S
C94 C95 1.392 1_556 S
C95 H65 0.949 . S
C95 C90 1.382 . S
C95 C94 1.392 1_554 S
H96 C115 0.949 . S
H97 C116 0.950 . S
H98 C118 0.950 . S
H99 C119 0.950 . S
H100 C121 0.950 . S
H101 C124 0.950 . S
H102 C125 0.950 . S
H103 C127 0.951 . S
H104 C128 0.949 . S
H105 C130 0.949 . S
H106 C131 0.950 . S
H107 C133 0.950 . S
H108 C134 0.950 . S
H109 C136 0.950 . S
H110 C139 0.950 . S
H111 C140 0.950 . S
H112 C142 0.951 . S
H113 C143 0.949 . S
C114 C115 1.376 . S
C114 C119 1.386 . S
C114 C120 1.483 . S
C115 H96 0.949 . S
C115 C114 1.376 . S
C115 C116 1.397 . S
C116 H97 0.950 . S
C116 C115 1.397 . S
C116 C117 1.391 . S
C117 C116 1.391 . S
C117 C118 1.405 . S
C118 H98 0.950 . S
C118 C117 1.405 . S
C118 C119 1.367 . S
C119 H99 0.950 . S
C119 C114 1.386 . S
C119 C118 1.367 . S
C120 C114 1.483 . S
C120 C121 1.382 . S
C120 C122 1.403 1_556 S
C121 H100 0.950 . S
C121 C120 1.382 . S
C121 C137 1.411 . S
C122 C120 1.403 1_554 S
C122 C123 1.489 . S
C122 C136 1.411 . S
C123 C122 1.489 . S
C123 C124 1.383 . S
C123 C128 1.382 . S
C124 H101 0.950 . S
C124 C123 1.383 . S
C124 C125 1.395 . S
C125 H102 0.950 . S
C125 C124 1.395 . S
C125 C126 1.288 . S
C126 C125 1.288 . S
C126 C127 1.392 . S
C127 H103 0.951 . S
C127 C126 1.392 . S
C127 C128 1.392 . S
C128 H104 0.949 . S
C128 C123 1.382 . S
C128 C127 1.392 . S
C129 C130 1.376 . S
C129 C134 1.386 . S
C129 C135 1.483 . S
C130 H105 0.949 . S
C130 C129 1.376 . S
C130 C131 1.397 . S
C131 H106 0.950 . S
C131 C130 1.397 . S
C131 C132 1.391 . S
C132 C131 1.391 . S
C132 C133 1.405 . S
C133 H107 0.950 . S
C133 C132 1.405 . S
C133 C134 1.367 . S
C134 H108 0.950 . S
C134 C129 1.386 . S
C134 C133 1.367 . S
C135 C129 1.483 . S
C135 C136 1.382 . S
C135 C137 1.403 1_554 S
C136 H109 0.950 . S
C136 C122 1.411 . S
C136 C135 1.382 . S
C137 C121 1.411 . S
C137 C135 1.403 1_556 S
C137 C138 1.489 . S
C138 C137 1.489 . S
C138 C139 1.383 . S
C138 C143 1.382 . S
C139 H110 0.950 . S
C139 C138 1.383 . S
C139 C140 1.395 . S
C140 H111 0.950 . S
C140 C139 1.395 . S
C140 C141 1.288 . S
C141 C140 1.288 . S
C141 C142 1.392 . S
C142 H112 0.951 . S
C142 C141 1.392 . S
C142 C143 1.392 . S
C143 H113 0.949 . S
C143 C138 1.382 . S
C143 C142 1.392 . S
H144 C163 0.949 . S
H145 C164 0.950 . S
H146 C166 0.950 . S
H147 C167 0.950 . S
H148 C169 0.950 . S
H149 C172 0.950 1_554 S
H150 C173 0.950 . S
H151 C175 0.951 . S
H152 C176 0.949 . S
H153 C178 0.949 . S
H154 C179 0.950 . S
H155 C181 0.950 . S
H156 C182 0.950 1_554 S
H157 C184 0.942 1_556 S
H158 C187 0.950 . S
H159 C188 0.950 . S
H160 C190 0.951 . S
H161 C191 0.949 . S
C162 C163 1.376 . S
C162 C167 1.386 . S
C162 C168 1.483 . S
C163 H144 0.949 . S
C163 C162 1.376 . S
C163 C164 1.397 . S
C164 H145 0.950 . S
C164 C163 1.397 . S
C164 C165 1.391 . S
C165 C164 1.391 . S
C165 C166 1.405 . S
C166 H146 0.950 . S
C166 C165 1.405 . S
C166 C167 1.367 . S
C167 H147 0.950 . S
C167 C162 1.386 . S
C167 C166 1.367 . S
C168 C162 1.483 . S
C168 C169 1.382 . S
C168 C170 1.403 . S
C169 H148 0.950 . S
C169 C168 1.382 . S
C169 C185 1.411 . S
C170 C168 1.403 . S
C170 C171 1.489 1_554 S
C170 C184 1.415 . S
C171 C170 1.489 1_556 S
C171 C172 1.383 . S
C171 C176 1.382 . S
C172 H149 0.950 1_556 S
C172 C171 1.383 . S
C172 C173 1.395 . S
C173 H150 0.950 . S
C173 C172 1.395 . S
C173 C174 1.288 . S
C174 C173 1.288 . S
C174 C175 1.392 . S
C175 H151 0.951 . S
C175 C174 1.392 . S
C175 C176 1.392 . S
C176 H152 0.949 . S
C176 C171 1.382 . S
C176 C175 1.392 . S
C177 C178 1.376 . S
C177 C182 1.386 . S
C177 C183 1.483 1_556 S
C178 H153 0.949 . S
C178 C177 1.376 . S
C178 C179 1.397 . S
C179 H154 0.950 . S
C179 C178 1.397 . S
C179 C180 1.391 . S
C180 C179 1.391 . S
C180 C181 1.405 . S
C181 H155 0.950 . S
C181 C180 1.405 . S
C181 C182 1.367 . S
C182 H156 0.950 1_556 S
C182 C177 1.386 . S
C182 C181 1.367 . S
C183 C177 1.483 1_554 S
C183 C184 1.386 . S
C183 C185 1.403 . S
C184 H157 0.942 1_554 S
C184 C170 1.415 . S
C184 C183 1.386 . S
C185 C169 1.411 . S
C185 C183 1.403 . S
C185 C186 1.489 . S
C186 C185 1.489 . S
C186 C187 1.383 . S
C186 C191 1.382 . S
C187 H158 0.950 . S
C187 C186 1.383 . S
C187 C188 1.395 . S
C188 H159 0.950 . S
C188 C187 1.395 . S
C188 C189 1.288 . S
C189 C188 1.288 . S
C189 C190 1.392 . S
C190 H160 0.951 . S
C190 C189 1.392 . S
C190 C191 1.392 . S
C191 H161 0.949 . S
C191 C186 1.382 . S
C191 C190 1.392 . S
H192 C211 0.949 . S
H193 C212 0.950 . S
H194 C214 0.950 . S
H195 C215 0.950 . S
H196 C217 0.950 1_556 S
H197 C220 0.950 . S
H198 C221 0.950 . S
H199 C223 0.951 . S
H200 C224 0.949 . S
H201 C226 0.949 . S
H202 C227 0.950 . S
H203 C229 0.950 . S
H204 C230 0.950 . S
H205 C232 0.950 . S
H206 C235 0.950 . S
H207 C236 0.950 . S
H208 C238 0.951 . S
H209 C239 0.949 . S
C210 C211 1.376 1_554 S
C210 C215 1.386 . S
C210 C216 1.483 . S
C211 H192 0.949 . S
C211 C210 1.376 1_556 S
C211 C212 1.397 . S
C212 H193 0.950 . S
C212 C211 1.397 . S
C212 C213 1.391 . S
C213 C212 1.391 . S
C213 C214 1.405 . S
C214 H194 0.950 . S
C214 C213 1.405 . S
C214 C215 1.367 1_556 S
C215 H195 0.950 . S
C215 C210 1.386 . S
C215 C214 1.367 1_554 S
C216 C210 1.483 . S
C216 C217 1.382 . S
C216 C218 1.403 . S
C217 H196 0.950 1_554 S
C217 C216 1.382 . S
C217 C233 1.411 . S
C218 C216 1.403 . S
C218 C219 1.489 . S
C218 C232 1.411 . S
C219 C218 1.489 . S
C219 C220 1.383 . S
C219 C224 1.382 . S
C220 H197 0.950 . S
C220 C219 1.383 . S
C220 C221 1.395 . S
C221 H198 0.950 . S
C221 C220 1.395 . S
C221 C222 1.288 . S
C222 C221 1.288 . S
C222 C223 1.392 . S
C223 H199 0.951 . S
C223 C222 1.392 . S
C223 C224 1.392 . S
C224 H200 0.949 . S
C224 C219 1.382 . S
C224 C223 1.392 . S
C225 C226 1.376 . S
C225 C230 1.386 . S
C225 C231 1.483 . S
C226 H201 0.949 . S
C226 C225 1.376 . S
C226 C227 1.397 . S
C227 H202 0.950 . S
C227 C226 1.397 . S
C227 C228 1.391 . S
C228 C227 1.391 . S
C228 C229 1.405 . S
C229 H203 0.950 . S
C229 C228 1.405 . S
C229 C230 1.367 . S
C230 H204 0.950 . S
C230 C225 1.386 . S
C230 C229 1.367 . S
C231 C225 1.483 . S
C231 C232 1.382 . S
C231 C233 1.403 . S
C232 H205 0.950 . S
C232 C218 1.411 . S
C232 C231 1.382 . S
C233 C217 1.411 . S
C233 C231 1.403 . S
C233 C234 1.489 . S
C234 C233 1.489 . S
C234 C235 1.383 . S
C234 C239 1.382 1_554 S
C235 H206 0.950 . S
C235 C234 1.383 . S
C235 C236 1.395 1_554 S
C236 H207 0.950 . S
C236 C235 1.395 1_556 S
C236 C237 1.288 . S
C237 C236 1.288 . S
C237 C238 1.392 . S
C238 H208 0.951 . S
C238 C237 1.392 . S
C238 C239 1.392 . S
C239 H209 0.949 . S
C239 C234 1.382 1_556 S
C239 C238 1.392 . S
H240 C259 0.949 . S
H241 C260 0.950 . S
H242 C262 0.950 . S
H243 C263 0.950 . S
H244 C265 0.950 . S
H245 C268 0.950 . S
H246 C269 0.950 . S
H247 C271 0.951 . S
H248 C272 0.949 . S
H249 C274 0.949 . S
H250 C275 0.950 . S
H251 C277 0.950 . S
H252 C278 0.950 . S
H253 C280 0.950 . S
H254 C283 0.950 . S
H255 C284 0.950 . S
H256 C286 0.951 . S
H257 C287 0.949 . S
C258 C259 1.376 . S
C258 C263 1.386 . S
C258 C264 1.483 . S
C259 H240 0.949 . S
C259 C258 1.376 . S
C259 C260 1.397 . S
C260 H241 0.950 . S
C260 C259 1.397 . S
C260 C261 1.391 . S
C261 C260 1.391 . S
C261 C262 1.405 . S
C262 H242 0.950 . S
C262 C261 1.405 . S
C262 C263 1.367 . S
C263 H243 0.950 . S
C263 C258 1.386 . S
C263 C262 1.367 . S
C264 C258 1.483 . S
C264 C265 1.382 . S
C264 C266 1.403 . S
C265 H244 0.950 . S
C265 C264 1.382 . S
C265 C281 1.411 . S
C266 C264 1.403 . S
C266 C267 1.489 . S
C266 C280 1.411 . S
C267 C266 1.489 . S
C267 C268 1.383 . S
C267 C272 1.382 . S
C268 H245 0.950 . S
C268 C267 1.383 . S
C268 C269 1.395 . S
C269 H246 0.950 . S
C269 C268 1.395 . S
C269 C270 1.288 . S
C270 C269 1.288 . S
C270 C271 1.392 . S
C271 H247 0.951 . S
C271 C270 1.392 . S
C271 C272 1.392 . S
C272 H248 0.949 . S
C272 C267 1.382 . S
C272 C271 1.392 . S
C273 C274 1.376 . S
C273 C278 1.386 . S
C273 C279 1.483 . S
C274 H249 0.949 . S
C274 C273 1.376 . S
C274 C275 1.397 . S
C275 H250 0.950 . S
C275 C274 1.397 . S
C275 C276 1.391 . S
C276 C275 1.391 . S
C276 C277 1.405 . S
C277 H251 0.950 . S
C277 C276 1.405 . S
C277 C278 1.367 . S
C278 H252 0.950 . S
C278 C273 1.386 . S
C278 C277 1.367 . S
C279 C273 1.483 . S
C279 C280 1.382 . S
C279 C281 1.403 . S
C280 H253 0.950 . S
C280 C266 1.411 . S
C280 C279 1.382 . S
C281 C265 1.411 . S
C281 C279 1.403 . S
C281 C282 1.489 . S
C282 C281 1.489 . S
C282 C283 1.383 . S
C282 C287 1.382 . S
C283 H254 0.950 . S
C283 C282 1.383 . S
C283 C284 1.395 . S
C284 H255 0.950 . S
C284 C283 1.395 . S
C284 C285 1.288 . S
C285 C284 1.288 . S
C285 C286 1.392 . S
C286 H256 0.951 . S
C286 C285 1.392 . S
C286 C287 1.392 . S
C287 H257 0.949 . S
C287 C282 1.382 . S
C287 C286 1.392 . S
C288 O300 1.241 . S
C288 O301 1.280 . S
C289 O302 1.277 . S
C289 O303 1.245 . S
C290 O314 1.247 . S
C290 O316 1.289 . S
Mg291 O292 1.926 . S
Mg291 O301 1.984 . S
Mg291 O303 1.988 1_655 S
Mg291 O304 2.061 . S
O292 Mg291 1.926 . S
O292 Mg293 1.986 1_655 S
O292 Mg294 1.917 1_655 S
Mg293 O292 1.986 1_455 S
Mg293 O300 2.042 1_455 S
Mg293 O302 2.041 . S
Mg293 O308 2.038 1_455 S
Mg293 O316 2.238 . S
Mg294 O292 1.917 1_455 S
Mg294 O295 1.917 . S
Mg294 O305 2.106 1_455 S
Mg294 O307 2.079 1_455 S
Mg294 O316 2.106 . S
Mg294 O317 2.079 . S
O295 Mg294 1.917 . S
O295 Mg296 1.926 . S
O295 Mg297 1.986 . S
Mg296 O295 1.926 . S
Mg296 O310 1.984 . S
Mg296 O313 1.988 1_455 S
Mg296 O314 2.061 . S
Mg297 O295 1.986 . S
Mg297 O305 2.238 1_455 S
Mg297 O309 2.042 . S
Mg297 O311 2.041 1_455 S
Mg297 O318 2.038 . S
C298 O304 1.247 . S
C298 O305 1.289 . S
C299 O317 1.245 . S
C299 O318 1.274 . S
O300 C288 1.241 . S
O300 Mg293 2.042 1_655 S
O301 C288 1.280 . S
O301 Mg291 1.984 . S
O302 C289 1.277 . S
O302 Mg293 2.041 . S
O303 C289 1.245 . S
O303 Mg291 1.988 1_455 S
O304 Mg291 2.061 . S
O304 C298 1.247 . S
O305 Mg294 2.106 1_655 S
O305 Mg297 2.238 1_655 S
O305 C298 1.289 . S
C306 O307 1.245 . S
C306 O308 1.274 . S
O307 Mg294 2.079 1_655 S
O307 C306 1.245 . S
O308 Mg293 2.038 1_655 S
O308 C306 1.274 . S
O309 Mg297 2.042 . S
O309 C312 1.241 . S
O310 Mg296 1.984 . S
O310 C312 1.280 . S
O311 Mg297 2.041 1_655 S
O311 C315 1.277 . S
C312 O309 1.241 . S
C312 O310 1.280 . S
O313 Mg296 1.988 1_655 S
O313 C315 1.245 . S
O314 C290 1.247 . S
O314 Mg296 2.061 . S
C315 O311 1.277 . S
C315 O313 1.245 . S
O316 C290 1.289 . S
O316 Mg293 2.238 . S
O316 Mg294 2.106 . S
O317 Mg294 2.079 . S
O317 C299 1.245 . S
O318 Mg297 2.038 . S
O318 C299 1.274 . S
C319 O331 1.241 . S
C319 O332 1.280 . S
C320 O333 1.277 . S
C320 O334 1.245 . S
C321 O345 1.247 . S
C321 O347 1.289 . S
Mg322 O323 1.926 . S
Mg322 O332 1.984 . S
Mg322 O334 1.988 1_545 S
Mg322 O335 2.061 . S
O323 Mg322 1.926 . S
O323 Mg324 1.986 . S
O323 Mg325 1.917 . S
Mg324 O323 1.986 . S
Mg324 O331 2.042 . S
Mg324 O333 2.041 1_545 S
Mg324 O339 2.038 . S
Mg324 O347 2.238 1_545 S
Mg325 O323 1.917 . S
Mg325 O326 1.917 1_545 S
Mg325 O336 2.106 . S
Mg325 O338 2.079 . S
Mg325 O347 2.106 1_545 S
Mg325 O348 2.079 1_545 S
O326 Mg325 1.917 1_565 S
O326 Mg327 1.926 . S
O326 Mg328 1.986 1_565 S
Mg327 O326 1.926 . S
Mg327 O341 1.984 . S
Mg327 O344 1.988 1_565 S
Mg327 O345 2.061 . S
Mg328 O326 1.986 1_545 S
Mg328 O336 2.238 . S
Mg328 O340 2.042 1_545 S
Mg328 O342 2.041 . S
Mg328 O349 2.038 1_545 S
C329 O335 1.247 . S
C329 O336 1.289 . S
C330 O348 1.245 . S
C330 O349 1.274 . S
O331 C319 1.241 . S
O331 Mg324 2.042 . S
O332 C319 1.280 . S
O332 Mg322 1.984 . S
O333 C320 1.277 . S
O333 Mg324 2.041 1_565 S
O334 C320 1.245 . S
O334 Mg322 1.988 1_565 S
O335 Mg322 2.061 . S
O335 C329 1.247 . S
O336 Mg325 2.106 . S
O336 Mg328 2.238 . S
O336 C329 1.289 . S
C337 O338 1.245 . S
C337 O339 1.274 . S
O338 Mg325 2.079 . S
O338 C337 1.245 . S
O339 Mg324 2.038 . S
O339 C337 1.274 . S
O340 Mg328 2.042 1_565 S
O340 C343 1.241 . S
O341 Mg327 1.984 . S
O341 C343 1.280 . S
O342 Mg328 2.041 . S
O342 C346 1.277 . S
C343 O340 1.241 . S
C343 O341 1.280 . S
O344 Mg327 1.988 1_545 S
O344 C346 1.245 . S
O345 C321 1.247 . S
O345 Mg327 2.061 . S
C346 O342 1.277 . S
C346 O344 1.245 . S
O347 C321 1.289 . S
O347 Mg324 2.238 1_565 S
O347 Mg325 2.106 1_565 S
O348 Mg325 2.079 1_565 S
O348 C330 1.245 . S
O349 Mg328 2.038 1_565 S
O349 C330 1.274 . S
C350 O362 1.241 . S
C350 O363 1.280 . S
C351 O364 1.277 . S
C351 O365 1.245 . S
C352 O376 1.247 . S
C352 O378 1.289 . S
Mg353 O354 1.926 . S
Mg353 O363 1.984 . S
Mg353 O365 1.988 . S
Mg353 O366 2.061 . S
O354 Mg353 1.926 . S
O354 Mg355 1.986 . S
O354 Mg356 1.917 . S
Mg355 O354 1.986 . S
Mg355 O362 2.042 . S
Mg355 O364 2.041 . S
Mg355 O370 2.038 . S
Mg355 O378 2.238 . S
Mg356 O354 1.917 . S
Mg356 O357 1.917 . S
Mg356 O367 2.106 . S
Mg356 O369 2.079 . S
Mg356 O378 2.106 . S
Mg356 O379 2.079 . S
O357 Mg356 1.917 . S
O357 Mg358 1.926 . S
O357 Mg359 1.986 . S
Mg358 O357 1.926 . S
Mg358 O372 1.984 . S
Mg358 O375 1.988 . S
Mg358 O376 2.061 . S
Mg359 O357 1.986 . S
Mg359 O367 2.238 . S
Mg359 O371 2.042 . S
Mg359 O373 2.041 . S
Mg359 O380 2.038 . S
C360 O366 1.247 . S
C360 O367 1.289 . S
C361 O379 1.245 . S
C361 O380 1.274 . S
O362 C350 1.241 . S
O362 Mg355 2.042 . S
O363 C350 1.280 . S
O363 Mg353 1.984 . S
O364 C351 1.277 . S
O364 Mg355 2.041 . S
O365 C351 1.245 . S
O365 Mg353 1.988 . S
O366 Mg353 2.061 . S
O366 C360 1.247 . S
O367 Mg356 2.106 . S
O367 Mg359 2.238 . S
O367 C360 1.289 . S
C368 O369 1.245 . S
C368 O370 1.274 . S
O369 Mg356 2.079 . S
O369 C368 1.245 . S
O370 Mg355 2.038 . S
O370 C368 1.274 . S
O371 Mg359 2.042 . S
O371 C374 1.241 . S
O372 Mg358 1.984 . S
O372 C374 1.280 . S
O373 Mg359 2.041 . S
O373 C377 1.277 . S
C374 O371 1.241 . S
C374 O372 1.280 . S
O375 Mg358 1.988 . S
O375 C377 1.245 . S
O376 C352 1.247 . S
O376 Mg358 2.061 . S
C377 O373 1.277 . S
C377 O375 1.245 . S
O378 C352 1.289 . S
O378 Mg355 2.238 . S
O378 Mg356 2.106 . S
O379 Mg356 2.079 . S
O379 C361 1.245 . S
O380 Mg359 2.038 . S
O380 C361 1.274 . S
H381 C389 0.950 . S
H382 C394 0.950 . S
H383 C391 0.950 . S
H384 C393 0.950 . S
H385 C395 0.950 . S
H386 C397 0.950 . S
H387 C399 0.950 . S
H388 C400 0.950 . S
C389 H381 0.950 . S
C389 C390 1.386 . S
C389 C391 1.391 . S
C390 C389 1.386 . S
C390 C394 1.393 . S
C391 H383 0.950 . S
C391 C389 1.391 . S
C391 C392 1.400 . S
C392 C391 1.400 . S
C392 C393 1.398 . S
C392 C398 1.491 . S
C393 H384 0.950 . S
C393 C392 1.398 . S
C393 C394 1.391 . S
C394 H382 0.950 . S
C394 C390 1.393 . S
C394 C393 1.391 . S
C395 H385 0.950 . S
C395 C396 1.386 . S
C395 C397 1.391 . S
C396 C395 1.386 . S
C396 C400 1.393 . S
C397 H386 0.950 . S
C397 C395 1.391 . S
C397 C398 1.400 . S
C398 C392 1.491 . S
C398 C397 1.400 . S
C398 C399 1.398 . S
C399 H387 0.950 . S
C399 C398 1.398 . S
C399 C400 1.391 . S
C400 H388 0.950 . S
C400 C396 1.393 . S
C400 C399 1.391 . S
H401 C409 0.950 . S
H402 C414 0.950 . S
H403 C411 0.950 . S
H404 C413 0.950 . S
H405 C415 0.950 . S
H406 C417 0.950 . S
H407 C419 0.950 . S
H408 C420 0.950 . S
C409 H401 0.950 . S
C409 C410 1.386 . S
C409 C411 1.391 . S
C410 C409 1.386 . S
C410 C414 1.393 . S
C411 H403 0.950 . S
C411 C409 1.391 . S
C411 C412 1.400 . S
C412 C411 1.400 . S
C412 C413 1.398 . S
C412 C418 1.491 . S
C413 H404 0.950 . S
C413 C412 1.398 . S
C413 C414 1.391 . S
C414 H402 0.950 . S
C414 C410 1.393 . S
C414 C413 1.391 . S
C415 H405 0.950 . S
C415 C416 1.386 . S
C415 C417 1.391 . S
C416 C415 1.386 . S
C416 C420 1.393 . S
C417 H406 0.950 . S
C417 C415 1.391 . S
C417 C418 1.400 . S
C418 C412 1.491 . S
C418 C417 1.400 . S
C418 C419 1.398 . S
C419 H407 0.950 . S
C419 C418 1.398 . S
C419 C420 1.391 . S
C420 H408 0.950 . S
C420 C416 1.393 . S
C420 C419 1.391 . S
H421 C429 0.950 . S
H422 C434 0.950 . S
H423 C431 0.950 . S
H424 C433 0.950 . S
H425 C435 0.950 . S
H426 C437 0.950 . S
H427 C439 0.950 . S
H428 C440 0.950 . S
C429 H421 0.950 . S
C429 C430 1.386 . S
C429 C431 1.391 . S
C430 C429 1.386 . S
C430 C434 1.393 . S
C431 H423 0.950 . S
C431 C429 1.391 . S
C431 C432 1.400 . S
C432 C431 1.400 . S
C432 C433 1.398 . S
C432 C438 1.491 . S
C433 H424 0.950 . S
C433 C432 1.398 . S
C433 C434 1.391 . S
C434 H422 0.950 . S
C434 C430 1.393 . S
C434 C433 1.391 . S
C435 H425 0.950 . S
C435 C436 1.386 . S
C435 C437 1.391 . S
C436 C435 1.386 . S
C436 C440 1.393 . S
C437 H426 0.950 . S
C437 C435 1.391 . S
C437 C438 1.400 . S
C438 C432 1.491 . S
C438 C437 1.400 . S
C438 C439 1.398 . S
C439 H427 0.950 . S
C439 C438 1.398 . S
C439 C440 1.391 . S
C440 H428 0.950 . S
C440 C436 1.393 . S
C440 C439 1.391 . S
H441 C449 0.950 . S
H442 C454 0.950 . S
H443 C451 0.950 . S
H444 C453 0.950 . S
H445 C455 0.950 . S
H446 C457 0.950 . S
H447 C459 0.950 . S
H448 C460 0.950 . S
C449 H441 0.950 . S
C449 C450 1.386 . S
C449 C451 1.391 . S
C450 C449 1.386 . S
C450 C454 1.393 . S
C451 H443 0.950 . S
C451 C449 1.391 . S
C451 C452 1.400 . S
C452 C451 1.400 . S
C452 C453 1.398 . S
C452 C458 1.491 . S
C453 H444 0.950 . S
C453 C452 1.398 . S
C453 C454 1.391 . S
C454 H442 0.950 . S
C454 C450 1.393 . S
C454 C453 1.391 . S
C455 H445 0.950 . S
C455 C456 1.386 . S
C455 C457 1.391 . S
C456 C455 1.386 . S
C456 C460 1.393 . S
C457 H446 0.950 . S
C457 C455 1.391 . S
C457 C458 1.400 . S
C458 C452 1.491 . S
C458 C457 1.400 . S
C458 C459 1.398 . S
C459 H447 0.950 . S
C459 C458 1.398 . S
C459 C460 1.391 . S
C460 H448 0.950 . S
C460 C456 1.393 . S
C460 C459 1.391 . S
H461 C469 0.950 . S
H462 C474 0.950 . S
H463 C471 0.950 . S
H464 C473 0.950 . S
H465 C475 0.950 . S
H466 C477 0.950 . S
H467 C479 0.950 . S
H468 C480 0.950 . S
C469 H461 0.950 . S
C469 C470 1.386 . S
C469 C471 1.391 . S
C470 C469 1.386 . S
C470 C474 1.393 . S
C471 H463 0.950 . S
C471 C469 1.391 . S
C471 C472 1.400 . S
C472 C471 1.400 . S
C472 C473 1.398 . S
C472 C478 1.491 . S
C473 H464 0.950 . S
C473 C472 1.398 . S
C473 C474 1.391 . S
C474 H462 0.950 . S
C474 C470 1.393 . S
C474 C473 1.391 . S
C475 H465 0.950 . S
C475 C476 1.386 . S
C475 C477 1.391 . S
C476 C475 1.386 . S
C476 C480 1.393 . S
C477 H466 0.950 . S
C477 C475 1.391 . S
C477 C478 1.400 . S
C478 C472 1.491 . S
C478 C477 1.400 . S
C478 C479 1.398 . S
C479 H467 0.950 . S
C479 C478 1.398 . S
C479 C480 1.391 . S
C480 H468 0.950 . S
C480 C476 1.393 . S
C480 C479 1.391 . S
H481 C489 0.950 . S
H482 C494 0.950 . S
H483 C491 0.950 . S
H484 C493 0.950 . S
H485 C495 0.950 . S
H486 C497 0.950 . S
H487 C499 0.950 . S
H488 C500 0.950 . S
C489 H481 0.950 . S
C489 C490 1.386 . S
C489 C491 1.391 . S
C490 C489 1.386 . S
C490 C494 1.393 . S
C491 H483 0.950 . S
C491 C489 1.391 . S
C491 C492 1.400 . S
C492 C491 1.400 . S
C492 C493 1.398 . S
C492 C498 1.491 . S
C493 H484 0.950 . S
C493 C492 1.398 . S
C493 C494 1.391 . S
C494 H482 0.950 . S
C494 C490 1.393 . S
C494 C493 1.391 . S
C495 H485 0.950 . S
C495 C496 1.386 . S
C495 C497 1.391 . S
C496 C495 1.386 . S
C496 C500 1.393 . S
C497 H486 0.950 . S
C497 C495 1.391 . S
C497 C498 1.400 . S
C498 C492 1.491 . S
C498 C497 1.400 . S
C498 C499 1.398 . S
C499 H487 0.950 . S
C499 C498 1.398 . S
C499 C500 1.391 . S
C500 H488 0.950 . S
C500 C496 1.393 . S
C500 C499 1.391 . S
H501 C509 0.950 . S
H502 C514 0.950 . S
H503 C511 0.950 . S
H504 C513 0.950 . S
H505 C515 0.950 . S
H506 C517 0.950 . S
H507 C519 0.950 . S
H508 C520 0.950 . S
C509 H501 0.950 . S
C509 C510 1.386 . S
C509 C511 1.391 . S
C510 C509 1.386 . S
C510 C514 1.393 . S
C511 H503 0.950 . S
C511 C509 1.391 . S
C511 C512 1.400 . S
C512 C511 1.400 . S
C512 C513 1.398 . S
C512 C518 1.491 . S
C513 H504 0.950 . S
C513 C512 1.398 . S
C513 C514 1.391 . S
C514 H502 0.950 . S
C514 C510 1.393 . S
C514 C513 1.391 . S
C515 H505 0.950 . S
C515 C516 1.386 . S
C515 C517 1.391 . S
C516 C515 1.386 . S
C516 C520 1.393 . S
C517 H506 0.950 . S
C517 C515 1.391 . S
C517 C518 1.400 . S
C518 C512 1.491 . S
C518 C517 1.400 . S
C518 C519 1.398 . S
C519 H507 0.950 . S
C519 C518 1.398 . S
C519 C520 1.391 . S
C520 H508 0.950 . S
C520 C516 1.393 . S
C520 C519 1.391 . S
H521 C529 0.950 . S
H522 C534 0.950 . S
H523 C531 0.950 . S
H524 C533 0.950 . S
H525 C535 0.950 . S
H526 C537 0.950 . S
H527 C539 0.950 . S
H528 C540 0.950 . S
C529 H521 0.950 . S
C529 C530 1.386 . S
C529 C531 1.391 . S
C530 C529 1.386 . S
C530 C534 1.393 . S
C531 H523 0.950 . S
C531 C529 1.391 . S
C531 C532 1.400 . S
C532 C531 1.400 . S
C532 C533 1.398 . S
C532 C538 1.491 . S
C533 H524 0.950 . S
C533 C532 1.398 . S
C533 C534 1.391 . S
C534 H522 0.950 . S
C534 C530 1.393 . S
C534 C533 1.391 . S
C535 H525 0.950 . S
C535 C536 1.386 . S
C535 C537 1.391 . S
C536 C535 1.386 . S
C536 C540 1.393 . S
C537 H526 0.950 . S
C537 C535 1.391 . S
C537 C538 1.400 . S
C538 C532 1.491 . S
C538 C537 1.400 . S
C538 C539 1.398 . S
C539 H527 0.950 . S
C539 C538 1.398 . S
C539 C540 1.391 . S
C540 H528 0.950 . S
C540 C536 1.393 . S
C540 C539 1.391 . S
H541 C549 0.950 . S
H542 C554 0.950 . S
H543 C551 0.950 . S
H544 C553 0.950 . S
H545 C555 0.950 . S
H546 C557 0.950 . S
H547 C559 0.950 . S
H548 C560 0.950 . S
C549 H541 0.950 . S
C549 C550 1.386 . S
C549 C551 1.391 . S
C550 C549 1.386 . S
C550 C554 1.393 . S
C551 H543 0.950 . S
C551 C549 1.391 . S
C551 C552 1.400 . S
C552 C551 1.400 . S
C552 C553 1.398 . S
C552 C558 1.491 . S
C553 H544 0.950 . S
C553 C552 1.398 . S
C553 C554 1.391 . S
C554 H542 0.950 . S
C554 C550 1.393 . S
C554 C553 1.391 . S
C555 H545 0.950 . S
C555 C556 1.386 . S
C555 C557 1.391 . S
C556 C555 1.386 . S
C556 C560 1.393 . S
C557 H546 0.950 . S
C557 C555 1.391 . S
C557 C558 1.400 . S
C558 C552 1.491 . S
C558 C557 1.400 . S
C558 C559 1.398 . S
C559 H547 0.950 . S
C559 C558 1.398 . S
C559 C560 1.391 . S
C560 H548 0.950 . S
C560 C556 1.393 . S
C560 C559 1.391 . S
H561 C569 0.950 . S
H562 C574 0.950 . S
H563 C571 0.950 . S
H564 C573 0.950 . S
H565 C575 0.950 . S
H566 C577 0.950 . S
H567 C579 0.950 . S
H568 C580 0.950 . S
C569 H561 0.950 . S
C569 C570 1.386 1_556 S
C569 C571 1.391 . S
C570 C569 1.386 1_554 S
C570 C574 1.393 . S
C571 H563 0.950 . S
C571 C569 1.391 . S
C571 C572 1.400 . S
C572 C571 1.400 . S
C572 C573 1.398 1_556 S
C572 C578 1.491 . S
C573 H564 0.950 . S
C573 C572 1.398 1_554 S
C573 C574 1.391 . S
C574 H562 0.950 . S
C574 C570 1.393 . S
C574 C573 1.391 . S
C575 H565 0.950 . S
C575 C576 1.386 . S
C575 C577 1.391 . S
C576 C575 1.386 . S
C576 C580 1.393 . S
C577 H566 0.950 . S
C577 C575 1.391 . S
C577 C578 1.400 . S
C578 C572 1.491 . S
C578 C577 1.400 . S
C578 C579 1.398 . S
C579 H567 0.950 . S
C579 C578 1.398 . S
C579 C580 1.391 . S
C580 H568 0.950 . S
C580 C576 1.393 . S
C580 C579 1.391 . S
H581 C589 0.950 1_554 S
H582 C594 0.950 . S
H583 C591 0.950 . S
H584 C593 0.950 . S
H585 C595 0.950 . S
H586 C597 0.950 . S
H587 C599 0.950 . S
H588 C600 0.950 . S
C589 H581 0.950 1_556 S
C589 C590 1.386 . S
C589 C591 1.391 . S
C590 C589 1.386 . S
C590 C594 1.393 . S
C591 H583 0.950 . S
C591 C589 1.391 . S
C591 C592 1.400 . S
C592 C591 1.400 . S
C592 C593 1.398 . S
C592 C598 1.491 . S
C593 H584 0.950 . S
C593 C592 1.398 . S
C593 C594 1.391 . S
C594 H582 0.950 . S
C594 C590 1.393 . S
C594 C593 1.391 . S
C595 H585 0.950 . S
C595 C596 1.386 . S
C595 C597 1.391 . S
C596 C595 1.386 . S
C596 C600 1.393 . S
C597 H586 0.950 . S
C597 C595 1.391 . S
C597 C598 1.400 . S
C598 C592 1.491 . S
C598 C597 1.400 . S
C598 C599 1.398 . S
C599 H587 0.950 . S
C599 C598 1.398 . S
C599 C600 1.391 . S
C600 H588 0.950 . S
C600 C596 1.393 . S
C600 C599 1.391 . S
H601 C609 0.950 1_554 S
H602 C614 0.950 . S
H603 C611 0.950 . S
H604 C613 0.950 . S
H605 C615 0.950 . S
H606 C617 0.950 . S
H607 C619 0.950 . S
H608 C620 0.950 . S
C609 H601 0.950 1_556 S
C609 C610 1.386 . S
C609 C611 1.391 . S
C610 C609 1.386 . S
C610 C614 1.393 . S
C611 H603 0.950 . S
C611 C609 1.391 . S
C611 C612 1.400 . S
C612 C611 1.400 . S
C612 C613 1.398 . S
C612 C618 1.491 . S
C613 H604 0.950 . S
C613 C612 1.398 . S
C613 C614 1.391 . S
C614 H602 0.950 . S
C614 C610 1.393 . S
C614 C613 1.391 . S
C615 H605 0.950 . S
C615 C616 1.386 . S
C615 C617 1.391 . S
C616 C615 1.386 . S
C616 C620 1.393 . S
C617 H606 0.950 . S
C617 C615 1.391 . S
C617 C618 1.400 . S
C618 C612 1.491 . S
C618 C617 1.400 . S
C618 C619 1.398 . S
C619 H607 0.950 . S
C619 C618 1.398 . S
C619 C620 1.391 . S
C620 H608 0.950 . S
C620 C616 1.393 . S
C620 C619 1.391 . S
H621 C629 0.950 . S
H622 C634 0.950 . S
H623 C631 0.950 . S
H624 C633 0.950 . S
H625 C635 0.950 . S
H626 C637 0.950 . S
H627 C639 0.950 . S
H628 C640 0.950 . S
C629 H621 0.950 . S
C629 C630 1.386 . S
C629 C631 1.391 . S
C630 C629 1.386 . S
C630 C634 1.393 . S
C631 H623 0.950 . S
C631 C629 1.391 . S
C631 C632 1.400 . S
C632 C631 1.400 . S
C632 C633 1.398 . S
C632 C638 1.491 . S
C633 H624 0.950 . S
C633 C632 1.398 . S
C633 C634 1.391 . S
C634 H622 0.950 . S
C634 C630 1.393 . S
C634 C633 1.391 . S
C635 H625 0.950 . S
C635 C636 1.386 . S
C635 C637 1.391 . S
C636 C635 1.386 . S
C636 C640 1.393 . S
C637 H626 0.950 . S
C637 C635 1.391 . S
C637 C638 1.400 . S
C638 C632 1.491 . S
C638 C637 1.400 . S
C638 C639 1.398 . S
C639 H627 0.950 . S
C639 C638 1.398 . S
C639 C640 1.391 . S
C640 H628 0.950 . S
C640 C636 1.393 . S
C640 C639 1.391 . S
H641 C649 0.950 . S
H642 C654 0.950 . S
H643 C651 0.950 . S
H644 C653 0.950 . S
H645 C655 0.950 . S
H646 C657 0.950 . S
H647 C659 0.950 . S
H648 C660 0.950 . S
C649 H641 0.950 . S
C649 C650 1.386 . S
C649 C651 1.391 . S
C650 C649 1.386 . S
C650 C654 1.393 . S
C651 H643 0.950 . S
C651 C649 1.391 . S
C651 C652 1.400 . S
C652 C651 1.400 . S
C652 C653 1.398 . S
C652 C658 1.491 . S
C653 H644 0.950 . S
C653 C652 1.398 . S
C653 C654 1.391 . S
C654 H642 0.950 . S
C654 C650 1.393 . S
C654 C653 1.391 . S
C655 H645 0.950 . S
C655 C656 1.386 . S
C655 C657 1.391 . S
C656 C655 1.386 . S
C656 C660 1.393 . S
C657 H646 0.950 . S
C657 C655 1.391 . S
C657 C658 1.400 . S
C658 C652 1.491 . S
C658 C657 1.400 . S
C658 C659 1.398 . S
C659 H647 0.950 . S
C659 C658 1.398 . S
C659 C660 1.391 . S
C660 H648 0.950 . S
C660 C656 1.393 . S
C660 C659 1.391 . S
H661 C669 0.950 . S
H662 C674 0.950 . S
H663 C671 0.950 . S
H664 C673 0.950 . S
H665 C675 0.950 . S
H666 C677 0.950 . S
H667 C679 0.950 . S
H668 C680 0.950 . S
C669 H661 0.950 . S
C669 C670 1.386 1_556 S
C669 C671 1.391 . S
C670 C669 1.386 1_554 S
C670 C674 1.393 . S
C671 H663 0.950 . S
C671 C669 1.391 . S
C671 C672 1.400 . S
C672 C671 1.400 . S
C672 C673 1.398 1_556 S
C672 C678 1.491 . S
C673 H664 0.950 . S
C673 C672 1.398 1_554 S
C673 C674 1.391 . S
C674 H662 0.950 . S
C674 C670 1.393 . S
C674 C673 1.391 . S
C675 H665 0.950 . S
C675 C676 1.386 . S
C675 C677 1.391 . S
C676 C675 1.386 . S
C676 C680 1.393 . S
C677 H666 0.950 . S
C677 C675 1.391 . S
C677 C678 1.400 . S
C678 C672 1.491 . S
C678 C677 1.400 . S
C678 C679 1.398 . S
C679 H667 0.950 . S
C679 C678 1.398 . S
C679 C680 1.391 . S
C680 H668 0.950 . S
C680 C676 1.393 . S
C680 C679 1.391 . S
H681 C689 0.950 . S
H682 C694 0.950 . S
H683 C691 0.950 . S
H684 C693 0.950 . S
H685 C695 0.950 . S
H686 C697 0.950 . S
H687 C699 0.950 . S
H688 C700 0.950 . S
C689 H681 0.950 . S
C689 C690 1.386 . S
C689 C691 1.391 . S
C690 C689 1.386 . S
C690 C694 1.393 . S
C691 H683 0.950 . S
C691 C689 1.391 . S
C691 C692 1.400 . S
C692 C691 1.400 . S
C692 C693 1.398 . S
C692 C698 1.491 . S
C693 H684 0.950 . S
C693 C692 1.398 . S
C693 C694 1.391 . S
C694 H682 0.950 . S
C694 C690 1.393 . S
C694 C693 1.391 . S
C695 H685 0.950 . S
C695 C696 1.386 . S
C695 C697 1.391 . S
C696 C695 1.386 . S
C696 C700 1.393 . S
C697 H686 0.950 . S
C697 C695 1.391 . S
C697 C698 1.400 . S
C698 C692 1.491 . S
C698 C697 1.400 . S
C698 C699 1.398 . S
C699 H687 0.950 . S
C699 C698 1.398 . S
C699 C700 1.391 . S
C700 H688 0.950 . S
C700 C696 1.393 . S
C700 C699 1.391 . S
H701 C709 0.950 . S
H702 C714 0.950 . S
H703 C711 0.950 . S
H704 C713 0.950 . S
H705 C715 0.950 . S
H706 C717 0.950 . S
H707 C719 0.950 . S
H708 C720 0.950 . S
C709 H701 0.950 . S
C709 C710 1.386 . S
C709 C711 1.391 . S
C710 C709 1.386 . S
C710 C714 1.393 . S
C711 H703 0.950 . S
C711 C709 1.391 . S
C711 C712 1.400 . S
C712 C711 1.400 . S
C712 C713 1.398 . S
C712 C718 1.491 . S
C713 H704 0.950 . S
C713 C712 1.398 . S
C713 C714 1.391 . S
C714 H702 0.950 . S
C714 C710 1.393 . S
C714 C713 1.391 . S
C715 H705 0.950 . S
C715 C716 1.386 . S
C715 C717 1.391 . S
C716 C715 1.386 . S
C716 C720 1.393 . S
C717 H706 0.950 . S
C717 C715 1.391 . S
C717 C718 1.400 . S
C718 C712 1.491 . S
C718 C717 1.400 . S
C718 C719 1.398 . S
C719 H707 0.950 . S
C719 C718 1.398 . S
C719 C720 1.391 . S
C720 H708 0.950 . S
C720 C716 1.393 . S
C720 C719 1.391 . S
H721 C729 0.950 . S
H722 C734 0.950 . S
H723 C731 0.950 . S
H724 C733 0.950 . S
H725 C735 0.950 . S
H726 C737 0.950 . S
H727 C739 0.950 . S
H728 C740 0.950 . S
C729 H721 0.950 . S
C729 C730 1.386 . S
C729 C731 1.391 . S
C730 C729 1.386 . S
C730 C734 1.393 . S
C731 H723 0.950 . S
C731 C729 1.391 . S
C731 C732 1.400 . S
C732 C731 1.400 . S
C732 C733 1.398 . S
C732 C738 1.491 . S
C733 H724 0.950 . S
C733 C732 1.398 . S
C733 C734 1.391 . S
C734 H722 0.950 . S
C734 C730 1.393 . S
C734 C733 1.391 . S
C735 H725 0.950 . S
C735 C736 1.386 . S
C735 C737 1.391 . S
C736 C735 1.386 . S
C736 C740 1.393 . S
C737 H726 0.950 . S
C737 C735 1.391 . S
C737 C738 1.400 . S
C738 C732 1.491 . S
C738 C737 1.400 . S
C738 C739 1.398 . S
C739 H727 0.950 . S
C739 C738 1.398 . S
C739 C740 1.391 . S
C740 H728 0.950 . S
C740 C736 1.393 . S
C740 C739 1.391 . S
H741 C749 0.950 . S
H742 C754 0.950 . S
H743 C751 0.950 . S
H744 C753 0.950 . S
H745 C755 0.950 . S
H746 C757 0.950 . S
H747 C759 0.950 . S
H748 C760 0.950 . S
C749 H741 0.950 . S
C749 C750 1.386 . S
C749 C751 1.391 . S
C750 C749 1.386 . S
C750 C754 1.393 . S
C751 H743 0.950 . S
C751 C749 1.391 . S
C751 C752 1.400 . S
C752 C751 1.400 . S
C752 C753 1.398 . S
C752 C758 1.491 . S
C753 H744 0.950 . S
C753 C752 1.398 . S
C753 C754 1.391 . S
C754 H742 0.950 . S
C754 C750 1.393 . S
C754 C753 1.391 . S
C755 H745 0.950 . S
C755 C756 1.386 . S
C755 C757 1.391 . S
C756 C755 1.386 . S
C756 C760 1.393 . S
C757 H746 0.950 . S
C757 C755 1.391 . S
C757 C758 1.400 . S
C758 C752 1.491 . S
C758 C757 1.400 . S
C758 C759 1.398 . S
C759 H747 0.950 . S
C759 C758 1.398 . S
C759 C760 1.391 . S
C760 H748 0.950 . S
C760 C756 1.393 . S
C760 C759 1.391 . S
H761 C769 0.950 . S
H762 C774 0.950 . S
H763 C771 0.950 . S
H764 C773 0.950 . S
H765 C775 0.950 . S
H766 C777 0.950 . S
H767 C779 0.950 . S
H768 C780 0.950 . S
C769 H761 0.950 . S
C769 C770 1.386 . S
C769 C771 1.391 . S
C770 C769 1.386 . S
C770 C774 1.393 . S
C771 H763 0.950 . S
C771 C769 1.391 . S
C771 C772 1.400 . S
C772 C771 1.400 . S
C772 C773 1.398 . S
C772 C778 1.491 . S
C773 H764 0.950 . S
C773 C772 1.398 . S
C773 C774 1.391 . S
C774 H762 0.950 . S
C774 C770 1.393 . S
C774 C773 1.391 . S
C775 H765 0.950 . S
C775 C776 1.386 . S
C775 C777 1.391 . S
C776 C775 1.386 . S
C776 C780 1.393 . S
C777 H766 0.950 . S
C777 C775 1.391 . S
C777 C778 1.400 . S
C778 C772 1.491 . S
C778 C777 1.400 . S
C778 C779 1.398 . S
C779 H767 0.950 . S
C779 C778 1.398 . S
C779 C780 1.391 . S
C780 H768 0.950 . S
C780 C776 1.393 . S
C780 C779 1.391 . S
H781 C789 0.950 . S
H782 C794 0.950 . S
H783 C791 0.950 . S
H784 C793 0.950 . S
H785 C795 0.950 . S
H786 C797 0.950 . S
H787 C799 0.950 . S
H788 C800 0.950 . S
C789 H781 0.950 . S
C789 C790 1.386 . S
C789 C791 1.391 . S
C790 C789 1.386 . S
C790 C794 1.393 . S
C791 H783 0.950 . S
C791 C789 1.391 . S
C791 C792 1.400 . S
C792 C791 1.400 . S
C792 C793 1.398 . S
C792 C798 1.491 . S
C793 H784 0.950 . S
C793 C792 1.398 . S
C793 C794 1.391 . S
C794 H782 0.950 . S
C794 C790 1.393 . S
C794 C793 1.391 . S
C795 H785 0.950 . S
C795 C796 1.386 . S
C795 C797 1.391 . S
C796 C795 1.386 . S
C796 C800 1.393 . S
C797 H786 0.950 . S
C797 C795 1.391 . S
C797 C798 1.400 . S
C798 C792 1.491 . S
C798 C797 1.400 . S
C798 C799 1.398 . S
C799 H787 0.950 . S
C799 C798 1.398 . S
C799 C800 1.391 . S
C800 H788 0.950 . S
C800 C796 1.393 . S
C800 C799 1.391 . S
H801 C809 0.950 . S
H802 C814 0.950 . S
H803 C811 0.950 . S
H804 C813 0.950 . S
H805 C815 0.950 . S
H806 C817 0.950 . S
H807 C819 0.950 . S
H808 C820 0.950 . S
C809 H801 0.950 . S
C809 C810 1.386 . S
C809 C811 1.391 . S
C810 C809 1.386 . S
C810 C814 1.393 . S
C811 H803 0.950 . S
C811 C809 1.391 . S
C811 C812 1.400 . S
C812 C811 1.400 . S
C812 C813 1.398 . S
C812 C818 1.491 . S
C813 H804 0.950 . S
C813 C812 1.398 . S
C813 C814 1.391 . S
C814 H802 0.950 . S
C814 C810 1.393 . S
C814 C813 1.391 . S
C815 H805 0.950 . S
C815 C816 1.386 . S
C815 C817 1.391 . S
C816 C815 1.386 . S
C816 C820 1.393 . S
C817 H806 0.950 . S
C817 C815 1.391 . S
C817 C818 1.400 . S
C818 C812 1.491 . S
C818 C817 1.400 . S
C818 C819 1.398 . S
C819 H807 0.950 . S
C819 C818 1.398 . S
C819 C820 1.391 . S
C820 H808 0.950 . S
C820 C816 1.393 . S
C820 C819 1.391 . S
H821 C829 0.950 . S
H822 C834 0.950 . S
H823 C831 0.950 . S
H824 C833 0.950 . S
H825 C835 0.950 . S
H826 C837 0.950 . S
H827 C839 0.950 . S
H828 C840 0.950 . S
C829 H821 0.950 . S
C829 C830 1.386 . S
C829 C831 1.391 . S
C830 C829 1.386 . S
C830 C834 1.393 . S
C831 H823 0.950 . S
C831 C829 1.391 . S
C831 C832 1.400 . S
C832 C831 1.400 . S
C832 C833 1.398 . S
C832 C838 1.491 . S
C833 H824 0.950 . S
C833 C832 1.398 . S
C833 C834 1.391 . S
C834 H822 0.950 . S
C834 C830 1.393 . S
C834 C833 1.391 . S
C835 H825 0.950 . S
C835 C836 1.386 . S
C835 C837 1.391 . S
C836 C835 1.386 . S
C836 C840 1.393 . S
C837 H826 0.950 . S
C837 C835 1.391 . S
C837 C838 1.400 . S
C838 C832 1.491 . S
C838 C837 1.400 . S
C838 C839 1.398 . S
C839 H827 0.950 . S
C839 C838 1.398 . S
C839 C840 1.391 . S
C840 H828 0.950 . S
C840 C836 1.393 . S
C840 C839 1.391 . S
H841 C849 0.950 . S
H842 C854 0.950 . S
H843 C851 0.950 . S
H844 C853 0.950 . S
H845 C855 0.950 . S
H846 C857 0.950 . S
H847 C859 0.950 . S
H848 C860 0.950 . S
C849 H841 0.950 . S
C849 C850 1.386 . S
C849 C851 1.391 . S
C850 C849 1.386 . S
C850 C854 1.393 . S
C851 H843 0.950 . S
C851 C849 1.391 . S
C851 C852 1.400 . S
C852 C851 1.400 . S
C852 C853 1.398 . S
C852 C858 1.491 . S
C853 H844 0.950 . S
C853 C852 1.398 . S
C853 C854 1.391 . S
C854 H842 0.950 . S
C854 C850 1.393 . S
C854 C853 1.391 . S
C855 H845 0.950 . S
C855 C856 1.386 . S
C855 C857 1.391 . S
C856 C855 1.386 . S
C856 C860 1.393 . S
C857 H846 0.950 . S
C857 C855 1.391 . S
C857 C858 1.400 . S
C858 C852 1.491 . S
C858 C857 1.400 . S
C858 C859 1.398 . S
C859 H847 0.950 . S
C859 C858 1.398 . S
C859 C860 1.391 . S
C860 H848 0.950 . S
C860 C856 1.393 . S
C860 C859 1.391 . S
C390 C45 1.915 . S
C396 C299 1.827 . S
C410 C84 1.674 . S
C416 C346 1.646 . S
C436 C350 1.837 . S
C430 C126 1.876 . S
C456 C315 1.538 . S
C450 C165 1.579 . S
C470 C222 1.773 . S
C476 C330 1.729 . S
C496 C352 1.026 . S
C490 C276 1.072 . S
C516 C321 1.422 . S
C510 C141 1.510 . S
C530 C180 1.471 . S
C536 C361 1.410 . S
C556 C290 1.347 . S
C550 C237 1.411 . S
C570 C261 1.503 . S
C576 C319 1.452 . S
C590 C30 1.959 1_556 S
C596 C377 1.934 . S
C616 C288 1.560 . S
C610 C69 1.588 1_556 S
C636 C306 1.829 . S
C630 C174 1.915 . S
C656 C320 1.627 . S
C650 C213 1.672 . S
C676 C374 1.845 . S
C670 C285 1.881 . S
C696 C289 1.557 . S
C690 C36 1.586 1_556 S
C716 C337 1.748 . S
C710 C93 1.793 . S
C730 C117 1.074 . S
C736 C360 1.050 . S
C756 C329 1.452 . S
C750 C270 1.515 . S
C776 C368 1.430 . S
C770 C21 1.472 . S
C796 C298 1.326 . S
C790 C78 1.408 . S
C816 C343 1.465 . S
C810 C132 1.509 . S
C830 C189 1.959 . S
C836 C351 1.934 . S
C850 C228 1.595 . S
C856 C312 1.553 . S
