# Generated by pormake.
# Topology pth, (4,4)-cn, num edge types: 1
# Building blocks:
#     Node 0, Type 0, BuildingBlock: AZAVOO_clean_sbu_0, # of connection points: 4
#     Node 1, Type 0, BuildingBlock: AZAVOO_clean_sbu_0, # of connection points: 4
#     Node 2, Type 0, BuildingBlock: AZAVOO_clean_sbu_0, # of connection points: 4
#     Node 3, Type 1, BuildingBlock: MUDLON_clean_linker_0, # of connection points: 4
#     Node 4, Type 1, BuildingBlock: MUDLON_clean_linker_0, # of connection points: 4
#     Node 5, Type 1, BuildingBlock: MUDLON_clean_linker_0, # of connection points: 4
#     Edge 6, Type (0, 1), BuildingBlock: FUNLAD_clean_linker_1, # of connection points: 2
#     Edge 7, Type (0, 1), BuildingBlock: FUNLAD_clean_linker_1, # of connection points: 2
#     Edge 8, Type (0, 1), BuildingBlock: FUNLAD_clean_linker_1, # of connection points: 2
#     Edge 9, Type (0, 1), BuildingBlock: FUNLAD_clean_linker_1, # of connection points: 2
#     Edge 10, Type (0, 1), BuildingBlock: FUNLAD_clean_linker_1, # of connection points: 2
#     Edge 11, Type (0, 1), BuildingBlock: FUNLAD_clean_linker_1, # of connection points: 2
#     Edge 12, Type (0, 1), BuildingBlock: FUNLAD_clean_linker_1, # of connection points: 2
#     Edge 13, Type (0, 1), BuildingBlock: FUNLAD_clean_linker_1, # of connection points: 2
#     Edge 14, Type (0, 1), BuildingBlock: FUNLAD_clean_linker_1, # of connection points: 2
#     Edge 15, Type (0, 1), BuildingBlock: FUNLAD_clean_linker_1, # of connection points: 2
#     Edge 16, Type (0, 1), BuildingBlock: FUNLAD_clean_linker_1, # of connection points: 2
#     Edge 17, Type (0, 1), BuildingBlock: FUNLAD_clean_linker_1, # of connection points: 2
# Relax obj value: 0.077
# Max RMSD: 0.215
# Mean RMSD: 0.136
data_MOF--net-pth--node1-AZAVOO_clean_sbu_0--node2-MUDLON_clean_linker_0--edge1-FUNLAD_clean_linker_1
_symmetry_space_group_name_H-M    P1
_symmetry_Int_Tables_number       1
_symmetry_cell_setting            triclinic
loop_
_symmetry_equiv_pos_as_xyz
'x, y, z'
_cell_length_a     34.370928
_cell_length_b     35.080301
_cell_length_c     68.781297
_cell_angle_alpha  90.826146
_cell_angle_beta   92.390117
_cell_angle_gamma 121.74917
loop_
_atom_site_label
_atom_site_type_symbol
_atom_site_fract_x
_atom_site_fract_y
_atom_site_fract_z
_atom_type_partial_charge
Mg0 Mg 0.11565 0.05483 0.03935 0.0
O1 O 0.0514 0.00484 0.02046 0.0
O2 O 0.03326 0.04395 0.00072 0.0
Mg3 Mg 0.08696 0.11859 0.00635 0.0
C4 C 0.02561 0.00679 0.00715 0.0
C5 C 0.12905 0.00987 0.07501 0.0
O6 O 0.16075 0.05214 0.07895 0.0
O7 O 0.074 0.07415 0.05742 0.0
O8 O 0.06115 0.11587 0.03691 0.0
O9 O 0.16054 0.05437 0.01683 0.0
O10 O 0.13637 0.10158 0.01793 0.0
C11 C 0.05785 0.09883 0.05352 0.0
C12 C 0.1587 0.08696 0.00922 0.0
O13 O 0.10345 0.99925 0.05952 0.0
Mg14 Mg 0.96129 0.99613 0.36716 0.0
O15 O 0.02674 0.01694 0.38593 0.0
O16 O 0.0423 0.07504 0.4057 0.0
Mg17 Mg 0.98683 0.09147 0.39963 0.0
C18 C 0.05155 0.04649 0.39932 0.0
C19 C 0.9469 0.9142 0.34169 0.0
O20 O 0.90502 0.89586 0.34749 0.0
O21 O 1.00061 0.05714 0.34884 0.0
O22 O 0.01153 0.11335 0.36882 0.0
O23 O 0.91618 0.95054 0.38994 0.0
O24 O 0.93978 0.02235 0.38825 0.0
C25 C 0.01515 0.09849 0.35233 0.0
C26 C 0.91753 0.98559 0.39712 0.0
O27 O 0.97705 0.95418 0.34728 0.0
Mg28 Mg 0.98473 0.97056 0.69405 0.0
O29 O 0.02671 0.0298 0.71608 0.0
O30 O 0.97822 0.03351 0.73561 0.0
Mg31 Mg 0.90543 0.97675 0.72619 0.0
C32 C 0.01864 0.04807 0.73027 0.0
C33 C 0.04309 0.97756 0.65953 0.0
O34 O 0.00238 0.94524 0.65273 0.0
O35 O 0.96084 0.01111 0.67727 0.0
O36 O 0.91062 0.01049 0.69723 0.0
O37 O 0.98785 0.92351 0.71498 0.0
O38 O 0.93343 0.93928 0.71336 0.0
C39 C 0.93119 0.02108 0.68135 0.0
C40 C 0.95131 0.91928 0.72184 0.0
O41 O 0.04745 0.99583 0.67621 0.0
H42 H 0.95971 0.63256 0.21096 0.0
N43 N 0.04996 0.66054 0.2073 0.0
H44 H 0.92966 0.66086 0.23513 0.0
H45 H 0.09596 0.71735 0.23743 0.0
H46 H 0.06625 0.74492 0.26196 0.0
H47 H 0.1239 0.73528 0.1968 0.0
H48 H 0.12994 0.78136 0.16945 0.0
H49 H 0.98277 0.63973 0.17877 0.0
H50 H 0.98805 0.68624 0.15157 0.0
H51 H 0.00746 0.59468 0.23372 0.0
H52 H 0.05733 0.61725 0.17564 0.0
H53 H 0.98385 0.51671 0.2299 0.0
H54 H 0.03279 0.53872 0.17191 0.0
H55 H 0.91339 0.26498 0.21811 0.0
H56 H 0.93902 0.24224 0.2469 0.0
H57 H 0.07097 0.36586 0.2474 0.0
H58 H 0.0453 0.38826 0.21855 0.0
H59 H 0.03849 0.34208 0.18722 0.0
H60 H 0.04413 0.30317 0.15896 0.0
H61 H 0.90243 0.25271 0.14159 0.0
H62 H 0.89693 0.292 0.17024 0.0
H63 H 0.91019 0.36912 0.21114 0.0
H64 H 0.92805 0.44658 0.21203 0.0
H65 H 0.05532 0.4887 0.1852 0.0
N66 N 0.96114 0.33872 0.19848 0.0
H67 H 0.03694 0.41148 0.18409 0.0
C68 C 0.03032 0.67336 0.22232 0.0
C69 C 0.98315 0.65727 0.22198 0.0
C70 C 0.966 0.6733 0.23584 0.0
C71 C 0.9956 0.70604 0.25011 0.0
C72 C 0.04253 0.7209 0.2508 0.0
C73 C 0.05961 0.7048 0.23695 0.0
C74 C 0.05302 0.68443 0.18993 0.0
C75 C 0.09428 0.72433 0.18687 0.0
C76 C 0.09737 0.75088 0.17137 0.0
C77 C 0.05886 0.73808 0.15868 0.0
C78 C 0.01802 0.69714 0.16128 0.0
C79 C 0.01492 0.67065 0.17684 0.0
C80 C 0.03166 0.61257 0.20447 0.0
C81 C 0.0119 0.58307 0.21981 0.0
C82 C 0.99847 0.53805 0.21771 0.0
C83 C 0.0056 0.52125 0.20047 0.0
C84 C 0.02647 0.55054 0.18535 0.0
C85 C 0.03988 0.5956 0.18741 0.0
C86 C 0.97699 0.32824 0.21619 0.0
C87 C 0.94777 0.28715 0.22448 0.0
C88 C 0.96275 0.27402 0.24076 0.0
C89 C 0.00755 0.30193 0.24908 0.0
C90 C 0.03648 0.34363 0.24113 0.0
C91 C 0.02163 0.35654 0.22469 0.0
C92 C 0.96688 0.31939 0.181 0.0
C93 C 0.00854 0.32268 0.17741 0.0
C94 C 0.0116 0.29995 0.1613 0.0
C95 C 0.97315 0.27364 0.14841 0.0
C96 C 0.9323 0.27221 0.15148 0.0
C97 C 0.92915 0.29465 0.16773 0.0
C98 C 0.97188 0.38431 0.19752 0.0
C99 C 0.94166 0.39509 0.20527 0.0
C100 C 0.95208 0.43933 0.20587 0.0
C101 C 0.99316 0.47382 0.19872 0.0
C102 C 0.02309 0.46285 0.19058 0.0
C103 C 0.01264 0.41857 0.18999 0.0
H104 H 0.7868 0.16896 0.53216 0.0
N105 N 0.69818 0.10797 0.52539 0.0
H106 H 0.83909 0.16892 0.55743 0.0
H107 H 0.67313 0.05332 0.55634 0.0
H108 H 0.72429 0.05217 0.58126 0.0
H109 H 0.65434 0.01613 0.52499 0.0
H110 H 0.66905 0.96965 0.50327 0.0
H111 H 0.74334 0.1327 0.49305 0.0
H112 H 0.7569 0.0865 0.47088 0.0
H113 H 0.68149 0.14952 0.55428 0.0
H114 H 0.61545 0.0591 0.50375 0.0
H115 H 0.61183 0.14943 0.5589 0.0
H116 H 0.54659 0.0601 0.50825 0.0
H117 H 0.40353 0.18394 0.55468 0.0
H118 H 0.35717 0.17216 0.58269 0.0
H119 H 0.34037 0.04211 0.58945 0.0
H120 H 0.38638 0.05411 0.56153 0.0
H121 H 0.34201 0.04112 0.53033 0.0
H122 H 0.28173 0.0202 0.5049 0.0
H123 H 0.36208 0.15131 0.48124 0.0
H124 H 0.42193 0.17245 0.50708 0.0
H125 H 0.50607 0.18823 0.54366 0.0
H126 H 0.57256 0.18056 0.54214 0.0
H127 H 0.48235 0.0383 0.52902 0.0
N128 N 0.41856 0.12511 0.53748 0.0
H129 H 0.41611 0.04659 0.53023 0.0
C130 C 0.72625 0.11128 0.54235 0.0
C131 C 0.77307 0.14417 0.5432 0.0
C132 C 0.80282 0.14389 0.55757 0.0
C133 C 0.78641 0.11065 0.57145 0.0
C134 C 0.7389 0.0787 0.57108 0.0
C135 C 0.70919 0.07909 0.55669 0.0
C136 C 0.69847 0.07815 0.51076 0.0
C137 C 0.67656 0.0316 0.51315 0.0
C138 C 0.68492 0.00508 0.50072 0.0
C139 C 0.71553 0.02462 0.48588 0.0
C140 C 0.73469 0.07056 0.48269 0.0
C141 C 0.7264 0.09699 0.49511 0.0
C142 C 0.65421 0.10264 0.52923 0.0
C143 C 0.6519 0.12856 0.54447 0.0
C144 C 0.61207 0.12908 0.54697 0.0
C145 C 0.57351 0.10461 0.53399 0.0
C146 C 0.57532 0.07854 0.51878 0.0
C147 C 0.61518 0.07793 0.51627 0.0
C148 C 0.39807 0.11992 0.55589 0.0
C149 C 0.39049 0.1533 0.56248 0.0
C150 C 0.36396 0.14646 0.5784 0.0
C151 C 0.34394 0.10573 0.58788 0.0
C152 C 0.35394 0.0733 0.58206 0.0
C153 C 0.3808 0.08034 0.56619 0.0
C154 C 0.38648 0.10876 0.52073 0.0
C155 C 0.34721 0.06518 0.51952 0.0
C156 C 0.31271 0.05316 0.50495 0.0
C157 C 0.31728 0.08387 0.49102 0.0
C158 C 0.35784 0.12647 0.49151 0.0
C159 C 0.39202 0.13873 0.5063 0.0
C160 C 0.45631 0.11826 0.537 0.0
C161 C 0.50077 0.15542 0.54054 0.0
C162 C 0.53863 0.15084 0.53981 0.0
C163 C 0.5328 0.10874 0.53553 0.0
C164 C 0.48804 0.07125 0.53218 0.0
C165 C 0.45008 0.07592 0.53294 0.0
H166 H 0.65583 0.75117 0.8937 0.0
N167 N 0.66304 0.69102 0.87307 0.0
H168 H 0.70295 0.79466 0.9228 0.0
H169 H 0.71742 0.6714 0.89547 0.0
H170 H 0.76379 0.7137 0.92464 0.0
H171 H 0.7031 0.64563 0.86091 0.0
H172 H 0.7628 0.67119 0.8374 0.0
H173 H 0.69644 0.76347 0.85234 0.0
H174 H 0.75637 0.78987 0.82936 0.0
H175 H 0.58645 0.67723 0.8557 0.0
H176 H 0.6442 0.60903 0.88508 0.0
H177 H 0.51324 0.60617 0.85032 0.0
H178 H 0.57084 0.53776 0.88014 0.0
H179 H 0.2876 0.38414 0.873 0.0
H180 H 0.2555 0.33529 0.90054 0.0
H181 H 0.36676 0.31148 0.90099 0.0
H182 H 0.39862 0.36048 0.87375 0.0
H183 H 0.38187 0.3418 0.84011 0.0
H184 H 0.34394 0.29035 0.81185 0.0
H185 H 0.26789 0.35412 0.7986 0.0
H186 H 0.30533 0.40479 0.8272 0.0
H187 H 0.37683 0.48234 0.86384 0.0
H188 H 0.45097 0.55251 0.86899 0.0
H189 H 0.51936 0.48287 0.8543 0.0
N190 N 0.36082 0.40194 0.85428 0.0
H191 H 0.44502 0.41276 0.84955 0.0
C192 C 0.68335 0.70845 0.89234 0.0
C193 C 0.6786 0.74227 0.90071 0.0
C194 C 0.70564 0.76711 0.91726 0.0
C195 C 0.73832 0.75883 0.92563 0.0
C196 C 0.74031 0.72229 0.91818 0.0
C197 C 0.71316 0.69743 0.90161 0.0
C198 C 0.69493 0.70252 0.85809 0.0
C199 C 0.71396 0.67664 0.85375 0.0
C200 C 0.74817 0.69136 0.84038 0.0
C201 C 0.76369 0.73193 0.83109 0.0
C202 C 0.74434 0.7576 0.83553 0.0
C203 C 0.71021 0.74281 0.84881 0.0
C204 C 0.6205 0.64849 0.87087 0.0
C205 C 0.58307 0.64684 0.86111 0.0
C206 C 0.54131 0.60626 0.85813 0.0
C207 C 0.53609 0.56627 0.86489 0.0
C208 C 0.57386 0.56789 0.8746 0.0
C209 C 0.61577 0.6087 0.87757 0.0
C210 C 0.34506 0.37557 0.87124 0.0
C211 C 0.30502 0.36845 0.87916 0.0
C212 C 0.28676 0.34055 0.89479 0.0
C213 C 0.30786 0.31863 0.90256 0.0
C214 C 0.34878 0.32667 0.89493 0.0
C215 C 0.3673 0.35503 0.87942 0.0
C216 C 0.34599 0.37696 0.83589 0.0
C217 C 0.3577 0.34534 0.83099 0.0
C218 C 0.33587 0.31578 0.81481 0.0
C219 C 0.30176 0.317 0.80338 0.0
C220 C 0.29266 0.35092 0.80749 0.0
C221 C 0.31449 0.38042 0.82366 0.0
C222 C 0.40529 0.44252 0.8562 0.0
C223 C 0.40789 0.48241 0.86164 0.0
C224 C 0.45025 0.52241 0.8645 0.0
C225 C 0.49114 0.52335 0.86198 0.0
C226 C 0.48853 0.48319 0.85655 0.0
C227 C 0.44596 0.44307 0.85367 0.0
H228 H 0.04417 0.10424 0.08421 0.0
C229 C 0.03912 0.11197 0.06941 0.0
H230 H 0.01629 0.14562 0.05156 0.0
H231 H 0.94097 0.14977 0.13958 0.0
H232 H 0.89342 0.06854 0.13571 0.0
H233 H 0.89918 0.02862 0.1072 0.0
H234 H 0.95279 0.06957 0.0825 0.0
C235 C 0.02054 0.13701 0.06628 0.0
C236 C 0.01343 0.16044 0.08266 0.0
C237 C 0.98113 0.13595 0.0967 0.0
C238 C 0.97705 0.15901 0.1129 0.0
C239 C 0.94521 0.13385 0.12693 0.0
C240 C 0.91769 0.08726 0.12487 0.0
C241 C 0.92098 0.06478 0.10884 0.0
C242 C 0.95214 0.08867 0.09483 0.0
H243 H 0.95302 0.24202 0.11862 0.0
C244 C 0.97505 0.24794 0.13158 0.0
H245 H 0.022 0.2334 0.14514 0.0
H246 H 0.07804 0.21801 0.05809 0.0
H247 H 0.12332 0.29907 0.06154 0.0
H248 H 0.11488 0.33887 0.08933 0.0
H249 H 0.06107 0.29767 0.11388 0.0
C250 C 0.00169 0.23046 0.13205 0.0
C251 C 0.00437 0.20644 0.11474 0.0
C252 C 0.03555 0.23103 0.10041 0.0
C253 C 0.04014 0.20804 0.08434 0.0
C254 C 0.07247 0.23354 0.07047 0.0
C255 C 0.0989 0.2802 0.0723 0.0
C256 C 0.09417 0.30261 0.08795 0.0
C257 C 0.06307 0.27851 0.10192 0.0
H258 H 0.90364 0.01703 0.4213 0.0
C259 C 0.89382 0.98472 0.41453 0.0
H260 H 0.84364 0.91542 0.41256 0.0
H261 H 0.82337 0.01431 0.49329 0.0
H262 H 0.88872 0.0122 0.50674 0.0
H263 H 0.9257 0.98206 0.487 0.0
H264 H 0.8974 0.95375 0.45363 0.0
C265 C 0.85622 0.94757 0.42012 0.0
C266 C 0.82658 0.95269 0.43374 0.0
C267 C 0.8427 0.96806 0.45325 0.0
C268 C 0.82136 0.98537 0.46458 0.0
C269 C 0.83868 0.00125 0.48396 0.0
C270 C 0.876 4e-05 0.49188 0.0
C271 C 0.89683 0.98308 0.48076 0.0
C272 C 0.88049 0.9672 0.46165 0.0
H273 H 0.70454 0.9607 0.47329 0.0
C274 C 0.72815 0.99686 0.47442 0.0
H275 H 0.79489 0.05005 0.46915 0.0
H276 H 0.78199 0.91751 0.39814 0.0
H277 H 0.71533 0.91733 0.38488 0.0
H278 H 0.67967 0.94973 0.40402 0.0
H279 H 0.71009 0.9821 0.43652 0.0
C280 C 0.76914 0.01468 0.46662 0.0
C281 C 0.78389 0.9872 0.45635 0.0
C282 C 0.76507 0.96792 0.43743 0.0
C283 C 0.78614 0.95 0.42622 0.0
C284 C 0.76747 0.93181 0.40721 0.0
C285 C 0.72922 0.93147 0.39943 0.0
C286 C 0.7091 0.94965 0.41022 0.0
C287 C 0.72683 0.96796 0.42894 0.0
H288 H 0.90376 0.89751 0.74522 0.0
C289 C 0.93121 0.89475 0.73943 0.0
H290 H 0.96862 0.86247 0.74193 0.0
H291 H 0.86283 0.84932 0.82413 0.0
H292 H 0.92485 0.92682 0.8304 0.0
H293 H 0.98447 0.96553 0.80678 0.0
H294 H 0.98226 0.92692 0.77667 0.0
C295 C 0.94301 0.86779 0.74791 0.0
C296 C 0.91675 0.8413 0.76448 0.0
C297 C 0.91939 0.86374 0.78223 0.0
C298 C 0.88533 0.84132 0.79587 0.0
C299 C 0.88785 0.86493 0.81322 0.0
C300 C 0.92332 0.90931 0.81703 0.0
C301 C 0.95687 0.93112 0.80372 0.0
C302 C 0.9551 0.90875 0.78649 0.0
H303 H 0.82447 0.73525 0.81921 0.0
C304 C 0.80161 0.74783 0.81768 0.0
H305 H 0.78575 0.78926 0.80145 0.0
H306 H 0.90759 0.78655 0.7337 0.0
H307 H 0.84804 0.70783 0.72817 0.0
H308 H 0.78845 0.66886 0.75176 0.0
H309 H 0.78802 0.70823 0.78102 0.0
C310 C 0.80857 0.77694 0.80378 0.0
C311 C 0.84916 0.79636 0.79182 0.0
C312 C 0.84933 0.77248 0.77507 0.0
C313 C 0.8835 0.795 0.76142 0.0
C314 C 0.88229 0.77094 0.74448 0.0
C315 C 0.84838 0.72581 0.74117 0.0
C316 C 0.81483 0.70386 0.75446 0.0
C317 C 0.81499 0.72681 0.7712 0.0
H318 H 0.14765 0.98661 0.10133 0.0
C319 C 0.12461 0.97551 0.08835 0.0
H320 H 0.06983 0.91978 0.07231 0.0
H321 H 0.16292 0.83203 0.12894 0.0
H322 H 0.22687 0.86817 0.10803 0.0
H323 H 0.22869 0.91735 0.08234 0.0
H324 H 0.16675 0.93094 0.07749 0.0
C325 C 0.09401 0.93152 0.08491 0.0
C326 C 0.09078 0.8981 0.09886 0.0
C327 C 0.12691 0.8899 0.10125 0.0
C328 C 0.12551 0.861 0.11584 0.0
C329 C 0.16227 0.85374 0.11808 0.0
C330 C 0.19912 0.87417 0.10615 0.0
C331 C 0.20018 0.9019 0.0917 0.0
C332 C 0.16453 0.90967 0.08916 0.0
H333 H 0.03532 0.75084 0.13039 0.0
C334 C 0.06001 0.76674 0.14276 0.0
H335 H 0.11218 0.82891 0.15601 0.0
H336 H 0.01441 0.90398 0.09698 0.0
H337 H 0.94978 0.8668 0.11748 0.0
H338 H 0.94783 0.81752 0.14314 0.0
H339 H 0.01026 0.80489 0.14841 0.0
C340 C 0.08789 0.81165 0.14368 0.0
C341 C 0.08761 0.83967 0.12774 0.0
C342 C 0.05075 0.84671 0.12494 0.0
C343 C 0.05217 0.87564 0.11033 0.0
C344 C 0.01511 0.88237 0.10788 0.0
C345 C 0.97782 0.86129 0.11956 0.0
C346 C 0.9767 0.8335 0.13399 0.0
C347 C 0.01271 0.82634 0.13678 0.0
H348 H 0.10531 0.02995 0.39929 0.0
C349 C 0.09277 0.04784 0.40735 0.0
H350 H 0.10222 0.088 0.43232 0.0
H351 H 0.23287 0.00199 0.45211 0.0
H352 H 0.1637 0.9283 0.44714 0.0
H353 H 0.09019 0.92029 0.43655 0.0
H354 H 0.08575 0.98562 0.43021 0.0
C355 C 0.11444 0.06974 0.42432 0.0
C356 C 0.15764 0.07352 0.43197 0.0
C357 C 0.15875 0.03485 0.43681 0.0
C358 C 0.2003 0.03953 0.44437 0.0
C359 C 0.20154 0.00036 0.44748 0.0
C360 C 0.1622 0.95787 0.44453 0.0
C361 C 0.12089 0.95336 0.43846 0.0
C362 C 0.11894 0.99124 0.43468 0.0
H363 H 0.24338 0.05154 0.48336 0.0
C364 C 0.27718 0.07268 0.47781 0.0
H365 H 0.31402 0.1091 0.454 0.0
H366 H 0.16872 0.15427 0.42267 0.0
H367 H 0.23698 0.2278 0.42906 0.0
H368 H 0.3069 0.23616 0.44491 0.0
H369 H 0.30923 0.17113 0.45418 0.0
C370 C 0.28059 0.08852 0.45987 0.0
C371 C 0.23954 0.08288 0.44872 0.0
C372 C 0.23863 0.12147 0.44364 0.0
C373 C 0.19787 0.11673 0.43503 0.0
C374 C 0.19831 0.15584 0.42969 0.0
C375 C 0.23736 0.19833 0.4332 0.0
C376 C 0.27673 0.20303 0.44209 0.0
C377 C 0.27757 0.16525 0.44731 0.0
H378 H 0.04886 0.10155 0.75337 0.0
C379 C 0.05695 0.08739 0.74116 0.0
H380 H 0.10973 0.09362 0.72412 0.0
H381 H 0.24005 0.30054 0.74934 0.0
H382 H 0.22415 0.30444 0.7149 0.0
H383 H 0.1687 0.23612 0.69524 0.0
H384 H 0.12885 0.16347 0.70984 0.0
C385 C 0.10086 0.10617 0.73664 0.0
C386 C 0.13793 0.14644 0.74796 0.0
C387 C 0.16128 0.18847 0.73911 0.0
C388 C 0.19305 0.22792 0.75045 0.0
C389 C 0.21545 0.26961 0.74136 0.0
C390 C 0.20667 0.27229 0.72163 0.0
C391 C 0.17547 0.23381 0.71056 0.0
C392 C 0.15284 0.19232 0.71912 0.0
H393 H 0.28865 0.26141 0.78296 0.0
C394 C 0.27443 0.28068 0.78825 0.0
H395 H 0.21425 0.28343 0.78851 0.0
H396 H 0.1054 0.07016 0.76854 0.0
H397 H 0.12164 0.06628 0.80287 0.0
H398 H 0.17397 0.13509 0.8229 0.0
H399 H 0.2108 0.20806 0.80867 0.0
C400 C 0.23073 0.26677 0.78284 0.0
C401 C 0.20147 0.22516 0.77055 0.0
C402 C 0.17965 0.18288 0.77922 0.0
C403 C 0.14838 0.14337 0.76783 0.0
C404 C 0.12821 0.10139 0.77668 0.0
C405 C 0.13749 0.09865 0.79634 0.0
C406 C 0.16703 0.13737 0.80761 0.0
C407 C 0.18798 0.17907 0.79923 0.0
H408 H 0.89097 0.04974 0.67121 0.0
C409 C 0.91672 0.04258 0.66698 0.0
H410 H 0.9539 0.04043 0.64374 0.0
H411 H 0.79196 0.00714 0.58384 0.0
H412 H 0.79234 0.93859 0.57952 0.0
H413 H 0.84424 0.92521 0.60005 0.0
H414 H 0.89625 0.98036 0.62491 0.0
C415 C 0.92984 0.04924 0.6486 0.0
C416 C 0.90519 0.06112 0.63395 0.0
C417 C 0.87544 0.02868 0.61932 0.0
C418 C 0.84512 0.03613 0.60766 0.0
C419 C 0.81537 0.00299 0.59327 0.0
C420 C 0.81529 0.96352 0.5906 0.0
C421 C 0.84453 0.95601 0.60214 0.0
C422 C 0.87424 0.98801 0.61638 0.0
H423 H 0.85652 0.1304 0.58214 0.0
C424 C 0.82043 0.10881 0.58493 0.0
H425 H 0.77418 0.05825 0.60315 0.0
H426 H 0.9642 0.13349 0.65793 0.0
H427 H 0.96452 0.2026 0.66209 0.0
H428 H 0.90927 0.21402 0.64305 0.0
H429 H 0.85384 0.15681 0.61959 0.0
C430 C 0.80944 0.08095 0.59973 0.0
C431 C 0.84467 0.07596 0.61063 0.0
C432 C 0.87628 0.10956 0.62448 0.0
C433 C 0.9071 0.10238 0.63593 0.0
C434 C 0.93913 0.13679 0.64932 0.0
C435 C 0.93984 0.17665 0.65175 0.0
C436 C 0.90881 0.18313 0.641 0.0
C437 C 0.87726 0.15006 0.62752 0.0
H438 H 0.98323 0.933 0.00291 0.0
C439 C 0.98649 0.96421 -0.0014 0.0
H440 H 0.95936 0.99401 0.98062 0.0
H441 H 0.86439 0.83959 0.916 0.0
H442 H 0.92754 0.89801 0.8991 0.0
H443 H 0.98835 0.96697 0.91679 0.0
H444 H 0.9861 0.97805 0.95147 0.0
C445 C 0.95582 0.96301 0.98543 0.0
C446 C 0.91979 0.92029 0.97523 0.0
C447 C 0.92202 0.914 0.95499 0.0
C448 C 0.88748 0.87384 0.94488 0.0
C449 C 0.89006 0.869 0.92455 0.0
C450 C 0.92611 0.90237 0.91461 0.0
C451 C 0.96029 0.94122 0.92456 0.0
C452 C 0.95848 0.94716 0.94449 0.0
H453 H 0.76409 0.81427 0.9479 0.0
C454 C 0.772 0.79137 0.94085 0.0
H455 H 0.8248 0.77881 0.93617 0.0
H456 H 0.90296 0.92303 0.01368 0.0
H457 H 0.84128 0.86342 0.03087 0.0
H458 H 0.78423 0.79174 0.01375 0.0
H459 H 0.78814 0.77957 0.97924 0.0
C460 C 0.81433 0.79863 0.94406 0.0
C461 C 0.85094 0.83978 0.95506 0.0
C462 C 0.84911 0.8457 0.97537 0.0
C463 C 0.88311 0.88635 0.98541 0.0
C464 C 0.87909 0.89226 0.00548 0.0
C465 C 0.84366 0.85839 0.0155 0.0
C466 C 0.81146 0.81809 0.00585 0.0
C467 C 0.81397 0.81162 0.98602 0.0
H468 H 0.99467 0.90654 0.32413 0.0
C469 C 0.95953 0.88945 0.32853 0.0
H470 H 0.89464 0.8291 0.32635 0.0
H471 H 0.00325 0.82123 0.24937 0.0
H472 H 0.99427 0.881 0.23738 0.0
H473 H 0.96106 0.91434 0.25754 0.0
H474 H 0.93693 0.88831 0.28987 0.0
C475 C 0.92955 0.84732 0.32171 0.0
C476 C 0.94435 0.82377 0.30859 0.0
C477 C 0.95745 0.83883 0.28956 0.0
C478 C 0.97589 0.81912 0.27782 0.0
C479 C 0.98915 0.83509 0.25895 0.0
C480 C 0.98404 0.86928 0.25185 0.0
C481 C 0.96539 0.88809 0.26321 0.0
C482 C 0.95202 0.87307 0.28181 0.0
H483 H 0.9398 0.70436 0.2659 0.0
C484 C 0.97644 0.7241 0.26389 0.0
H485 H 0.0374 0.78719 0.26996 0.0
H486 H 0.91904 0.78473 0.34373 0.0
H487 H 0.92621 0.72365 0.35542 0.0
H488 H 0.95881 0.68983 0.33517 0.0
H489 H 0.98427 0.71673 0.30308 0.0
C490 C 0.0016 0.76495 0.27287 0.0
C491 C 0.98025 0.78375 0.28495 0.0
C492 C 0.96551 0.76751 0.30367 0.0
C493 C 0.9472 0.78736 0.31545 0.0
C494 C 0.93317 0.77087 0.33417 0.0
C495 C 0.93715 0.73586 0.34108 0.0
C496 C 0.95546 0.71679 0.32967 0.0
C497 C 0.96973 0.73242 0.31121 0.0
H498 H 0.07726 0.97498 0.63358 0.0
C499 C 0.08311 0.99141 0.64786 0.0
H500 H 0.13273 0.03826 0.66885 0.0
H501 H 0.29373 0.02372 0.63539 0.0
H502 H 0.2851 0.98923 0.66655 0.0
H503 H 0.22175 0.97469 0.687 0.0
H504 H 0.16673 0.99467 0.67648 0.0
C505 C 0.12604 0.02268 0.65434 0.0
C506 C 0.16578 0.03403 0.6425 0.0
C507 C 0.19771 0.02227 0.64892 0.0
C508 C 0.234 0.03025 0.63706 0.0
C509 C 0.26535 0.01809 0.64378 0.0
C510 C 0.26083 0.99833 0.66164 0.0
C511 C 0.22517 0.99017 0.67316 0.0
C512 C 0.19385 0.00186 0.66695 0.0
H513 H 0.3128 0.12635 0.61001 0.0
C514 C 0.31084 0.09744 0.6029 0.0
H515 H 0.27079 0.02659 0.59883 0.0
H516 H 0.1148 0.06691 0.62723 0.0
H517 H 0.12237 0.09983 0.59579 0.0
H518 H 0.18193 0.10883 0.57419 0.0
H519 H 0.23474 0.08578 0.58404 0.0
C520 C 0.27501 0.05631 0.60609 0.0
C521 C 0.2383 0.04999 0.61883 0.0
C522 C 0.20669 0.06227 0.61249 0.0
C523 C 0.17103 0.05521 0.62455 0.0
C524 C 0.14135 0.06982 0.61831 0.0
C525 C 0.14551 0.08906 0.60035 0.0
C526 C 0.17914 0.09427 0.58823 0.0
C527 C 0.20943 0.08108 0.59413 0.0
H528 H 0.20023 0.09361 0.98429 0.0
C529 C 0.18212 0.10721 0.99134 0.0
H530 H 0.16813 0.159 0.99215 0.0
H531 H 0.34293 0.30214 0.95183 0.0
H532 H 0.36489 0.32874 0.98561 0.0
H533 H 0.31816 0.28269 0.01202 0.0
H534 H 0.24936 0.20974 0.00483 0.0
C535 C 0.18421 0.14393 0.98458 0.0
C536 C 0.21389 0.16941 0.96864 0.0
C537 C 0.25389 0.21207 0.97313 0.0
C538 C 0.28054 0.23881 0.95792 0.0
C539 C 0.32084 0.28091 0.96281 0.0
C540 C 0.334 0.29646 0.98214 0.0
C541 C 0.30772 0.27052 0.99701 0.0
C542 C 0.26819 0.22876 0.99266 0.0
H543 H 0.26459 0.29387 0.9278 0.0
C544 C 0.28666 0.28838 0.91881 0.0
H545 H 0.30986 0.2444 0.91273 0.0
H546 H 0.13939 0.08895 0.95506 0.0
H547 H 0.11852 0.06186 0.92133 0.0
H548 H 0.16546 0.10796 0.89496 0.0
H549 H 0.23346 0.18159 0.90219 0.0
C550 C 0.29113 0.25321 0.92226 0.0
C551 C 0.26675 0.22309 0.93826 0.0
C552 C 0.22798 0.17961 0.93381 0.0
C553 C 0.20123 0.15281 0.94903 0.0
C554 C 0.16146 0.11035 0.94413 0.0
C555 C 0.14897 0.09446 0.9248 0.0
C556 C 0.17537 0.12044 0.90996 0.0
C557 C 0.21434 0.16262 0.91431 0.0
H558 H 0.02132 0.11284 0.32122 0.0
C559 C 0.02961 0.12841 0.33581 0.0
H560 H 0.05315 0.18798 0.35267 0.0
H561 H 0.07398 0.23707 0.25746 0.0
H562 H 0.1308 0.21576 0.25748 0.0
H563 H 0.14869 0.18741 0.28701 0.0
H564 H 0.10954 0.17978 0.31667 0.0
C565 C 0.04535 0.17241 0.33811 0.0
C566 C 0.04195 0.19754 0.32154 0.0
C567 C 0.06607 0.20297 0.30454 0.0
C568 C 0.05642 0.22014 0.28765 0.0
C569 C 0.08012 0.22424 0.2707 0.0
C570 C 0.11287 0.21227 0.27054 0.0
C571 C 0.1229 0.19625 0.28716 0.0
C572 C 0.09997 0.19171 0.30403 0.0
H573 H 0.04935 0.31506 0.27663 0.0
C574 C 0.02423 0.2888 0.2664 0.0
H575 H 0.98702 0.21914 0.25916 0.0
H576 H 0.99252 0.19571 0.35238 0.0
H577 H 0.93871 0.22023 0.35267 0.0
H578 H 0.92265 0.25061 0.32341 0.0
H579 H 0.96044 0.25659 0.29368 0.0
C580 C 0.00963 0.24581 0.26976 0.0
C581 C 0.02359 0.23286 0.28797 0.0
C582 C 0.00167 0.23025 0.30533 0.0
C583 C 0.01096 0.21269 0.32218 0.0
C584 C 0.98742 0.20919 0.33916 0.0
C585 C 0.9562 0.22305 0.33954 0.0
C586 C 0.94716 0.24015 0.32308 0.0
C587 C 0.96929 0.24355 0.30611 0.0
loop_
_geom_bond_atom_site_label_1
_geom_bond_atom_site_label_2
_geom_bond_distance
_geom_bond_site_symmetry_2
_ccdc_geom_bond_type
Mg0 O1 2.028 1_545 S
Mg0 O7 1.986 . S
Mg0 O9 2.114 . S
Mg0 O10 2.251 . S
Mg0 O13 2.010 . S
O1 Mg0 2.028 1_565 S
O1 C4 1.250 1_455 S
O2 Mg3 2.028 1_655 S
O2 C4 1.248 1_545 S
Mg3 O2 2.028 1_455 S
Mg3 O8 2.032 . S
Mg3 O10 2.079 . S
C4 O1 1.250 1_655 S
C4 O2 1.248 1_565 S
C5 O6 1.264 . S
C5 O13 1.249 1_565 S
O6 C5 1.264 . S
O7 Mg0 1.986 . S
O7 C11 1.246 . S
O8 Mg3 2.032 . S
O8 C11 1.259 . S
O9 Mg0 2.114 . S
O9 C12 1.252 . S
O10 Mg0 2.251 . S
O10 Mg3 2.079 . S
O10 C12 1.273 . S
C11 O7 1.246 . S
C11 O8 1.259 . S
C12 O9 1.252 . S
C12 O10 1.273 . S
O13 Mg0 2.010 . S
O13 C5 1.249 1_545 S
Mg14 O15 2.028 1_655 S
Mg14 O21 1.986 1_655 S
Mg14 O23 2.114 1_545 S
Mg14 O24 2.251 . S
Mg14 O27 2.010 1_545 S
O15 Mg14 2.028 1_455 S
O15 C18 1.250 . S
O16 Mg17 2.028 . S
O16 C18 1.248 . S
Mg17 O16 2.028 . S
Mg17 O22 2.032 . S
Mg17 O24 2.079 1_455 S
C18 O15 1.250 . S
C18 O16 1.248 . S
C19 O20 1.264 . S
C19 O27 1.249 . S
O20 C19 1.264 . S
O21 Mg14 1.986 1_455 S
O21 C25 1.246 . S
O22 Mg17 2.032 . S
O22 C25 1.259 . S
O23 Mg14 2.114 1_565 S
O23 C26 1.252 1_565 S
O24 Mg14 2.251 . S
O24 Mg17 2.079 1_655 S
O24 C26 1.273 . S
C25 O21 1.246 . S
C25 O22 1.259 . S
C26 O23 1.252 1_545 S
C26 O24 1.273 . S
O27 Mg14 2.010 1_565 S
O27 C19 1.249 . S
Mg28 O29 2.028 1_565 S
Mg28 O35 1.986 1_465 S
Mg28 O37 2.114 . S
Mg28 O38 2.251 1_455 S
Mg28 O41 2.010 . S
O29 Mg28 2.028 1_545 S
O29 C32 1.250 . S
O30 Mg31 2.028 1_455 S
O30 C32 1.248 . S
Mg31 O30 2.028 1_655 S
Mg31 O36 2.032 . S
Mg31 O38 2.079 1_545 S
C32 O29 1.250 . S
C32 O30 1.248 . S
C33 O34 1.264 . S
C33 O41 1.249 . S
O34 C33 1.264 . S
O35 Mg28 1.986 1_645 S
O35 C39 1.246 . S
O36 Mg31 2.032 . S
O36 C39 1.259 . S
O37 Mg28 2.114 . S
O37 C40 1.252 1_455 S
O38 Mg28 2.251 1_655 S
O38 Mg31 2.079 1_565 S
O38 C40 1.273 . S
C39 O35 1.246 . S
C39 O36 1.259 . S
C40 O37 1.252 1_655 S
C40 O38 1.273 . S
O41 Mg28 2.010 . S
O41 C33 1.249 . S
H42 C69 0.929 . S
N43 C68 1.433 . S
N43 C74 1.435 . S
N43 C80 1.423 . S
H44 C70 0.930 . S
H45 C73 0.931 . S
H46 C72 0.929 . S
H47 C75 0.930 . S
H48 C76 0.932 . S
H49 C79 0.929 . S
H50 C78 0.930 1_655 S
H51 C81 0.929 . S
H52 C85 0.932 . S
H53 C82 0.931 . S
H54 C84 0.929 . S
H55 C87 0.929 . S
H56 C88 0.930 . S
H57 C90 0.929 . S
H58 C91 0.931 . S
H59 C93 0.930 . S
H60 C94 0.932 . S
H61 C96 0.929 1_655 S
H62 C97 0.929 . S
H63 C99 0.929 . S
H64 C100 0.931 . S
H65 C102 0.929 . S
N66 C86 1.433 . S
N66 C92 1.435 . S
N66 C98 1.423 . S
H67 C103 0.932 . S
C68 N43 1.433 . S
C68 C69 1.363 1_455 S
C68 C73 1.370 . S
C69 H42 0.929 . S
C69 C68 1.363 1_655 S
C69 C70 1.385 . S
C70 H44 0.930 . S
C70 C69 1.385 . S
C70 C71 1.357 1_655 S
C71 C70 1.357 1_455 S
C71 C72 1.406 . S
C72 H46 0.929 . S
C72 C71 1.406 . S
C72 C73 1.391 . S
C73 H45 0.931 . S
C73 C68 1.370 . S
C73 C72 1.391 . S
C74 N43 1.435 . S
C74 C75 1.358 . S
C74 C79 1.371 1_455 S
C75 H47 0.930 . S
C75 C74 1.358 . S
C75 C76 1.405 . S
C76 H48 0.932 . S
C76 C75 1.405 . S
C76 C77 1.383 . S
C77 C76 1.383 . S
C77 C78 1.394 . S
C78 H50 0.930 1_455 S
C78 C77 1.394 . S
C78 C79 1.383 1_455 S
C79 H49 0.929 . S
C79 C74 1.371 1_655 S
C79 C78 1.383 1_655 S
C80 N43 1.423 . S
C80 C81 1.362 1_455 S
C80 C85 1.388 . S
C81 H51 0.929 . S
C81 C80 1.362 1_655 S
C81 C82 1.376 . S
C82 H53 0.931 . S
C82 C81 1.376 . S
C82 C83 1.396 . S
C83 C82 1.396 . S
C83 C84 1.348 1_655 S
C83 C101 1.472 . S
C84 H54 0.929 . S
C84 C83 1.348 1_455 S
C84 C85 1.443 . S
C85 H52 0.932 . S
C85 C80 1.388 . S
C85 C84 1.443 . S
C86 N66 1.433 . S
C86 C87 1.363 1_455 S
C86 C91 1.370 . S
C87 H55 0.929 . S
C87 C86 1.363 1_655 S
C87 C88 1.385 . S
C88 H56 0.930 . S
C88 C87 1.385 . S
C88 C89 1.357 1_655 S
C89 C88 1.357 1_455 S
C89 C90 1.406 . S
C90 H57 0.929 . S
C90 C89 1.406 . S
C90 C91 1.391 . S
C91 H58 0.931 . S
C91 C86 1.370 . S
C91 C90 1.391 . S
C92 N66 1.435 . S
C92 C93 1.358 . S
C92 C97 1.371 1_455 S
C93 H59 0.930 . S
C93 C92 1.358 . S
C93 C94 1.405 . S
C94 H60 0.932 . S
C94 C93 1.405 . S
C94 C95 1.383 . S
C95 C94 1.383 . S
C95 C96 1.397 . S
C96 H61 0.929 1_455 S
C96 C95 1.397 . S
C96 C97 1.380 1_455 S
C97 H62 0.929 . S
C97 C92 1.371 1_655 S
C97 C96 1.380 1_655 S
C98 N66 1.423 . S
C98 C99 1.362 1_455 S
C98 C103 1.388 . S
C99 H63 0.929 . S
C99 C98 1.362 1_655 S
C99 C100 1.376 . S
C100 H64 0.931 . S
C100 C99 1.376 . S
C100 C101 1.396 . S
C101 C83 1.472 . S
C101 C100 1.396 . S
C101 C102 1.348 1_655 S
C102 H65 0.929 . S
C102 C101 1.348 1_455 S
C102 C103 1.443 . S
C103 H67 0.932 . S
C103 C98 1.388 . S
C103 C102 1.443 . S
H104 C131 0.929 . S
N105 C130 1.433 . S
N105 C136 1.435 . S
N105 C142 1.423 . S
H106 C132 0.930 . S
H107 C135 0.931 . S
H108 C134 0.929 . S
H109 C137 0.930 . S
H110 C138 0.932 . S
H111 C141 0.929 . S
H112 C140 0.931 . S
H113 C143 0.929 . S
H114 C147 0.932 . S
H115 C144 0.931 . S
H116 C146 0.929 . S
H117 C149 0.929 . S
H118 C150 0.930 . S
H119 C152 0.929 . S
H120 C153 0.931 . S
H121 C155 0.930 . S
H122 C156 0.932 . S
H123 C158 0.931 . S
H124 C159 0.929 . S
H125 C161 0.929 . S
H126 C162 0.931 . S
H127 C164 0.929 . S
N128 C148 1.433 . S
N128 C154 1.435 . S
N128 C160 1.423 . S
H129 C165 0.932 . S
C130 N105 1.433 . S
C130 C131 1.363 . S
C130 C135 1.370 . S
C131 H104 0.929 . S
C131 C130 1.363 . S
C131 C132 1.385 . S
C132 H106 0.930 . S
C132 C131 1.385 . S
C132 C133 1.357 . S
C133 C132 1.357 . S
C133 C134 1.406 . S
C134 H108 0.929 . S
C134 C133 1.406 . S
C134 C135 1.391 . S
C135 H107 0.931 . S
C135 C130 1.370 . S
C135 C134 1.391 . S
C136 N105 1.435 . S
C136 C137 1.358 . S
C136 C141 1.371 . S
C137 H109 0.930 . S
C137 C136 1.358 . S
C137 C138 1.405 . S
C138 H110 0.932 . S
C138 C137 1.405 . S
C138 C139 1.383 . S
C139 C138 1.383 . S
C139 C140 1.393 . S
C140 H112 0.931 . S
C140 C139 1.393 . S
C140 C141 1.382 . S
C141 H111 0.929 . S
C141 C136 1.371 . S
C141 C140 1.382 . S
C142 N105 1.423 . S
C142 C143 1.362 . S
C142 C147 1.388 . S
C143 H113 0.929 . S
C143 C142 1.362 . S
C143 C144 1.376 . S
C144 H115 0.931 . S
C144 C143 1.376 . S
C144 C145 1.396 . S
C145 C144 1.396 . S
C145 C146 1.348 . S
C145 C163 1.472 . S
C146 H116 0.929 . S
C146 C145 1.348 . S
C146 C147 1.443 . S
C147 H114 0.932 . S
C147 C142 1.388 . S
C147 C146 1.443 . S
C148 N128 1.433 . S
C148 C149 1.363 . S
C148 C153 1.370 . S
C149 H117 0.929 . S
C149 C148 1.363 . S
C149 C150 1.385 . S
C150 H118 0.930 . S
C150 C149 1.385 . S
C150 C151 1.357 . S
C151 C150 1.357 . S
C151 C152 1.406 . S
C152 H119 0.929 . S
C152 C151 1.406 . S
C152 C153 1.391 . S
C153 H120 0.931 . S
C153 C148 1.370 . S
C153 C152 1.391 . S
C154 N128 1.435 . S
C154 C155 1.358 . S
C154 C159 1.371 . S
C155 H121 0.930 . S
C155 C154 1.358 . S
C155 C156 1.405 . S
C156 H122 0.932 . S
C156 C155 1.405 . S
C156 C157 1.383 . S
C157 C156 1.383 . S
C157 C158 1.393 . S
C158 H123 0.931 . S
C158 C157 1.393 . S
C158 C159 1.382 . S
C159 H124 0.929 . S
C159 C154 1.371 . S
C159 C158 1.382 . S
C160 N128 1.423 . S
C160 C161 1.362 . S
C160 C165 1.388 . S
C161 H125 0.929 . S
C161 C160 1.362 . S
C161 C162 1.376 . S
C162 H126 0.931 . S
C162 C161 1.376 . S
C162 C163 1.396 . S
C163 C145 1.472 . S
C163 C162 1.396 . S
C163 C164 1.348 . S
C164 H127 0.929 . S
C164 C163 1.348 . S
C164 C165 1.443 . S
C165 H129 0.932 . S
C165 C160 1.388 . S
C165 C164 1.443 . S
H166 C193 0.929 . S
N167 C192 1.433 . S
N167 C198 1.435 . S
N167 C204 1.423 . S
H168 C194 0.930 . S
H169 C197 0.931 . S
H170 C196 0.929 . S
H171 C199 0.930 . S
H172 C200 0.932 . S
H173 C203 0.929 . S
H174 C202 0.931 . S
H175 C205 0.929 . S
H176 C209 0.932 . S
H177 C206 0.931 . S
H178 C208 0.929 . S
H179 C211 0.929 . S
H180 C212 0.930 . S
H181 C214 0.929 . S
H182 C215 0.931 . S
H183 C217 0.930 . S
H184 C218 0.932 . S
H185 C220 0.931 . S
H186 C221 0.929 . S
H187 C223 0.929 . S
H188 C224 0.931 . S
H189 C226 0.929 . S
N190 C210 1.433 . S
N190 C216 1.435 . S
N190 C222 1.423 . S
H191 C227 0.932 . S
C192 N167 1.433 . S
C192 C193 1.363 . S
C192 C197 1.370 . S
C193 H166 0.929 . S
C193 C192 1.363 . S
C193 C194 1.385 . S
C194 H168 0.930 . S
C194 C193 1.385 . S
C194 C195 1.357 . S
C195 C194 1.357 . S
C195 C196 1.406 . S
C196 H170 0.929 . S
C196 C195 1.406 . S
C196 C197 1.391 . S
C197 H169 0.931 . S
C197 C192 1.370 . S
C197 C196 1.391 . S
C198 N167 1.435 . S
C198 C199 1.358 . S
C198 C203 1.371 . S
C199 H171 0.930 . S
C199 C198 1.358 . S
C199 C200 1.405 . S
C200 H172 0.932 . S
C200 C199 1.405 . S
C200 C201 1.383 . S
C201 C200 1.383 . S
C201 C202 1.393 . S
C202 H174 0.931 . S
C202 C201 1.393 . S
C202 C203 1.382 . S
C203 H173 0.929 . S
C203 C198 1.371 . S
C203 C202 1.382 . S
C204 N167 1.423 . S
C204 C205 1.362 . S
C204 C209 1.388 . S
C205 H175 0.929 . S
C205 C204 1.362 . S
C205 C206 1.376 . S
C206 H177 0.931 . S
C206 C205 1.376 . S
C206 C207 1.396 . S
C207 C206 1.396 . S
C207 C208 1.348 . S
C207 C225 1.472 . S
C208 H178 0.929 . S
C208 C207 1.348 . S
C208 C209 1.443 . S
C209 H176 0.932 . S
C209 C204 1.388 . S
C209 C208 1.443 . S
C210 N190 1.433 . S
C210 C211 1.363 . S
C210 C215 1.370 . S
C211 H179 0.929 . S
C211 C210 1.363 . S
C211 C212 1.385 . S
C212 H180 0.930 . S
C212 C211 1.385 . S
C212 C213 1.357 . S
C213 C212 1.357 . S
C213 C214 1.406 . S
C214 H181 0.929 . S
C214 C213 1.406 . S
C214 C215 1.391 . S
C215 H182 0.931 . S
C215 C210 1.370 . S
C215 C214 1.391 . S
C216 N190 1.435 . S
C216 C217 1.358 . S
C216 C221 1.371 . S
C217 H183 0.930 . S
C217 C216 1.358 . S
C217 C218 1.405 . S
C218 H184 0.932 . S
C218 C217 1.405 . S
C218 C219 1.383 . S
C219 C218 1.383 . S
C219 C220 1.393 . S
C220 H185 0.931 . S
C220 C219 1.393 . S
C220 C221 1.382 . S
C221 H186 0.929 . S
C221 C216 1.371 . S
C221 C220 1.382 . S
C222 N190 1.423 . S
C222 C223 1.362 . S
C222 C227 1.388 . S
C223 H187 0.929 . S
C223 C222 1.362 . S
C223 C224 1.376 . S
C224 H188 0.931 . S
C224 C223 1.376 . S
C224 C225 1.396 . S
C225 C207 1.472 . S
C225 C224 1.396 . S
C225 C226 1.348 . S
C226 H189 0.929 . S
C226 C225 1.348 . S
C226 C227 1.443 . S
C227 H191 0.932 . S
C227 C222 1.388 . S
C227 C226 1.443 . S
H228 C229 0.951 . S
C229 H228 0.951 . S
C229 C235 1.265 . S
H230 C235 0.950 1_655 S
H231 C239 0.949 . S
H232 C240 0.950 . S
H233 C241 0.951 . S
H234 C242 0.951 . S
C235 C229 1.265 . S
C235 H230 0.950 1_455 S
C235 C236 1.478 . S
C236 C235 1.478 . S
C236 C237 1.397 . S
C236 C253 1.394 . S
C237 C236 1.397 . S
C237 C238 1.438 . S
C237 C242 1.429 1_455 S
C238 C237 1.438 . S
C238 C239 1.428 . S
C238 C251 1.394 . S
C239 H231 0.949 . S
C239 C238 1.428 . S
C239 C240 1.345 1_455 S
C240 H232 0.950 . S
C240 C239 1.345 1_655 S
C240 C241 1.424 . S
C241 H233 0.951 . S
C241 C240 1.424 . S
C241 C242 1.347 . S
C242 H234 0.951 . S
C242 C237 1.429 1_655 S
C242 C241 1.347 . S
H243 C244 0.951 1_655 S
C244 H243 0.951 1_455 S
C244 C250 1.265 . S
H245 C250 0.950 . S
H246 C254 0.949 . S
H247 C255 0.950 . S
H248 C256 0.951 . S
H249 C257 0.951 . S
C250 C244 1.265 . S
C250 H245 0.950 . S
C250 C251 1.478 . S
C251 C238 1.394 . S
C251 C250 1.478 . S
C251 C252 1.397 . S
C252 C251 1.397 . S
C252 C253 1.438 . S
C252 C257 1.429 . S
C253 C236 1.394 . S
C253 C252 1.438 . S
C253 C254 1.428 . S
C254 H246 0.949 . S
C254 C253 1.428 . S
C254 C255 1.345 . S
C255 H247 0.950 . S
C255 C254 1.345 . S
C255 C256 1.424 . S
C256 H248 0.951 . S
C256 C255 1.424 . S
C256 C257 1.347 . S
C257 H249 0.951 . S
C257 C252 1.429 . S
C257 C256 1.347 . S
H258 C259 0.951 . S
C259 H258 0.951 . S
C259 C265 1.265 1_545 S
H260 C265 0.950 . S
H261 C269 0.949 . S
H262 C270 0.950 . S
H263 C271 0.951 . S
H264 C272 0.951 . S
C265 C259 1.265 1_565 S
C265 H260 0.950 . S
C265 C266 1.478 1_565 S
C266 C265 1.478 1_545 S
C266 C267 1.397 . S
C266 C283 1.394 . S
C267 C266 1.397 . S
C267 C268 1.438 . S
C267 C272 1.429 1_545 S
C268 C267 1.438 . S
C268 C269 1.428 . S
C268 C281 1.394 . S
C269 H261 0.949 . S
C269 C268 1.428 . S
C269 C270 1.345 1_545 S
C270 H262 0.950 . S
C270 C269 1.345 1_565 S
C270 C271 1.424 . S
C271 H263 0.951 . S
C271 C270 1.424 . S
C271 C272 1.347 . S
C272 H264 0.951 . S
C272 C267 1.429 1_565 S
C272 C271 1.347 . S
H273 C274 0.951 . S
C274 H273 0.951 . S
C274 C280 1.265 . S
H275 C280 0.950 . S
H276 C284 0.949 . S
H277 C285 0.950 . S
H278 C286 0.951 . S
H279 C287 0.951 . S
C280 C274 1.265 . S
C280 H275 0.950 . S
C280 C281 1.478 . S
C281 C268 1.394 . S
C281 C280 1.478 . S
C281 C282 1.397 . S
C282 C281 1.397 . S
C282 C283 1.438 . S
C282 C287 1.429 . S
C283 C266 1.394 . S
C283 C282 1.438 . S
C283 C284 1.428 . S
C284 H276 0.949 . S
C284 C283 1.428 . S
C284 C285 1.345 . S
C285 H277 0.950 . S
C285 C284 1.345 . S
C285 C286 1.424 . S
C286 H278 0.951 . S
C286 C285 1.424 . S
C286 C287 1.347 . S
C287 H279 0.951 . S
C287 C282 1.429 . S
C287 C286 1.347 . S
H288 C289 0.951 . S
C289 H288 0.951 . S
C289 C295 1.265 . S
H290 C295 0.950 . S
H291 C299 0.949 . S
H292 C300 0.950 . S
H293 C301 0.951 . S
H294 C302 0.951 . S
C295 C289 1.265 . S
C295 H290 0.950 . S
C295 C296 1.478 . S
C296 C295 1.478 . S
C296 C297 1.397 . S
C296 C313 1.394 . S
C297 C296 1.397 . S
C297 C298 1.438 . S
C297 C302 1.429 . S
C298 C297 1.438 . S
C298 C299 1.428 . S
C298 C311 1.394 . S
C299 H291 0.949 . S
C299 C298 1.428 . S
C299 C300 1.345 . S
C300 H292 0.950 . S
C300 C299 1.345 . S
C300 C301 1.424 . S
C301 H293 0.951 . S
C301 C300 1.424 . S
C301 C302 1.347 . S
C302 H294 0.951 . S
C302 C297 1.429 . S
C302 C301 1.347 . S
H303 C304 0.951 . S
C304 H303 0.951 . S
C304 C310 1.265 . S
H305 C310 0.950 . S
H306 C314 0.949 . S
H307 C315 0.950 . S
H308 C316 0.951 . S
H309 C317 0.951 . S
C310 C304 1.265 . S
C310 H305 0.950 . S
C310 C311 1.478 . S
C311 C298 1.394 . S
C311 C310 1.478 . S
C311 C312 1.397 . S
C312 C311 1.397 . S
C312 C313 1.438 . S
C312 C317 1.429 . S
C313 C296 1.394 . S
C313 C312 1.438 . S
C313 C314 1.428 . S
C314 H306 0.949 . S
C314 C313 1.428 . S
C314 C315 1.345 . S
C315 H307 0.950 . S
C315 C314 1.345 . S
C315 C316 1.424 . S
C316 H308 0.951 . S
C316 C315 1.424 . S
C316 C317 1.347 . S
C317 H309 0.951 . S
C317 C312 1.429 . S
C317 C316 1.347 . S
H318 C319 0.951 . S
C319 H318 0.951 . S
C319 C325 1.265 . S
H320 C325 0.950 . S
H321 C329 0.949 . S
H322 C330 0.950 . S
H323 C331 0.951 . S
H324 C332 0.951 . S
C325 C319 1.265 . S
C325 H320 0.950 . S
C325 C326 1.478 . S
C326 C325 1.478 . S
C326 C327 1.397 . S
C326 C343 1.394 . S
C327 C326 1.397 . S
C327 C328 1.438 . S
C327 C332 1.429 . S
C328 C327 1.438 . S
C328 C329 1.428 . S
C328 C341 1.394 . S
C329 H321 0.949 . S
C329 C328 1.428 . S
C329 C330 1.345 . S
C330 H322 0.950 . S
C330 C329 1.345 . S
C330 C331 1.424 . S
C331 H323 0.951 . S
C331 C330 1.424 . S
C331 C332 1.347 . S
C332 H324 0.951 . S
C332 C327 1.429 . S
C332 C331 1.347 . S
H333 C334 0.951 . S
C334 H333 0.951 . S
C334 C340 1.265 . S
H335 C340 0.950 . S
H336 C344 0.949 . S
H337 C345 0.950 . S
H338 C346 0.951 . S
H339 C347 0.951 . S
C340 C334 1.265 . S
C340 H335 0.950 . S
C340 C341 1.478 . S
C341 C328 1.394 . S
C341 C340 1.478 . S
C341 C342 1.397 . S
C342 C341 1.397 . S
C342 C343 1.438 . S
C342 C347 1.429 1_455 S
C343 C326 1.394 . S
C343 C342 1.438 . S
C343 C344 1.428 1_455 S
C344 H336 0.949 . S
C344 C343 1.428 1_655 S
C344 C345 1.345 . S
C345 H337 0.950 . S
C345 C344 1.345 . S
C345 C346 1.424 . S
C346 H338 0.951 . S
C346 C345 1.424 . S
C346 C347 1.347 . S
C347 H339 0.951 . S
C347 C342 1.429 1_655 S
C347 C346 1.347 . S
H348 C349 0.951 . S
C349 H348 0.951 . S
C349 C355 1.265 . S
H350 C355 0.950 . S
H351 C359 0.949 . S
H352 C360 0.950 . S
H353 C361 0.951 . S
H354 C362 0.951 . S
C355 C349 1.265 . S
C355 H350 0.950 . S
C355 C356 1.478 . S
C356 C355 1.478 . S
C356 C357 1.397 . S
C356 C373 1.394 . S
C357 C356 1.397 . S
C357 C358 1.438 . S
C357 C362 1.429 1_545 S
C358 C357 1.438 . S
C358 C359 1.428 1_545 S
C358 C371 1.394 . S
C359 H351 0.949 . S
C359 C358 1.428 1_565 S
C359 C360 1.345 . S
C360 H352 0.950 . S
C360 C359 1.345 . S
C360 C361 1.424 . S
C361 H353 0.951 . S
C361 C360 1.424 . S
C361 C362 1.347 . S
C362 H354 0.951 . S
C362 C357 1.429 1_565 S
C362 C361 1.347 . S
H363 C364 0.951 . S
C364 H363 0.951 . S
C364 C370 1.265 . S
H365 C370 0.950 . S
H366 C374 0.949 . S
H367 C375 0.950 . S
H368 C376 0.951 . S
H369 C377 0.951 . S
C370 C364 1.265 . S
C370 H365 0.950 . S
C370 C371 1.478 . S
C371 C358 1.394 . S
C371 C370 1.478 . S
C371 C372 1.397 . S
C372 C371 1.397 . S
C372 C373 1.438 . S
C372 C377 1.429 . S
C373 C356 1.394 . S
C373 C372 1.438 . S
C373 C374 1.428 . S
C374 H366 0.949 . S
C374 C373 1.428 . S
C374 C375 1.345 . S
C375 H367 0.950 . S
C375 C374 1.345 . S
C375 C376 1.424 . S
C376 H368 0.951 . S
C376 C375 1.424 . S
C376 C377 1.347 . S
C377 H369 0.951 . S
C377 C372 1.429 . S
C377 C376 1.347 . S
H378 C379 0.951 . S
C379 H378 0.951 . S
C379 C385 1.265 . S
H380 C385 0.950 . S
H381 C389 0.949 . S
H382 C390 0.950 . S
H383 C391 0.951 . S
H384 C392 0.951 . S
C385 C379 1.265 . S
C385 H380 0.950 . S
C385 C386 1.478 . S
C386 C385 1.478 . S
C386 C387 1.397 . S
C386 C403 1.394 . S
C387 C386 1.397 . S
C387 C388 1.438 . S
C387 C392 1.429 . S
C388 C387 1.438 . S
C388 C389 1.428 . S
C388 C401 1.394 . S
C389 H381 0.949 . S
C389 C388 1.428 . S
C389 C390 1.345 . S
C390 H382 0.950 . S
C390 C389 1.345 . S
C390 C391 1.424 . S
C391 H383 0.951 . S
C391 C390 1.424 . S
C391 C392 1.347 . S
C392 H384 0.951 . S
C392 C387 1.429 . S
C392 C391 1.347 . S
H393 C394 0.951 . S
C394 H393 0.951 . S
C394 C400 1.265 . S
H395 C400 0.950 . S
H396 C404 0.949 . S
H397 C405 0.950 . S
H398 C406 0.951 . S
H399 C407 0.951 . S
C400 C394 1.265 . S
C400 H395 0.950 . S
C400 C401 1.478 . S
C401 C388 1.394 . S
C401 C400 1.478 . S
C401 C402 1.397 . S
C402 C401 1.397 . S
C402 C403 1.438 . S
C402 C407 1.429 . S
C403 C386 1.394 . S
C403 C402 1.438 . S
C403 C404 1.428 . S
C404 H396 0.949 . S
C404 C403 1.428 . S
C404 C405 1.345 . S
C405 H397 0.950 . S
C405 C404 1.345 . S
C405 C406 1.424 . S
C406 H398 0.951 . S
C406 C405 1.424 . S
C406 C407 1.347 . S
C407 H399 0.951 . S
C407 C402 1.429 . S
C407 C406 1.347 . S
H408 C409 0.951 . S
C409 H408 0.951 . S
C409 C415 1.265 . S
H410 C415 0.950 . S
H411 C419 0.949 . S
H412 C420 0.950 . S
H413 C421 0.951 . S
H414 C422 0.951 . S
C415 C409 1.265 . S
C415 H410 0.950 . S
C415 C416 1.478 . S
C416 C415 1.478 . S
C416 C417 1.397 . S
C416 C433 1.394 . S
C417 C416 1.397 . S
C417 C418 1.438 . S
C417 C422 1.429 1_545 S
C418 C417 1.438 . S
C418 C419 1.428 1_545 S
C418 C431 1.394 . S
C419 H411 0.949 . S
C419 C418 1.428 1_565 S
C419 C420 1.345 . S
C420 H412 0.950 . S
C420 C419 1.345 . S
C420 C421 1.424 . S
C421 H413 0.951 . S
C421 C420 1.424 . S
C421 C422 1.347 . S
C422 H414 0.951 . S
C422 C417 1.429 1_565 S
C422 C421 1.347 . S
H423 C424 0.951 . S
C424 H423 0.951 . S
C424 C430 1.265 . S
H425 C430 0.950 . S
H426 C434 0.949 . S
H427 C435 0.950 . S
H428 C436 0.951 . S
H429 C437 0.951 . S
C430 C424 1.265 . S
C430 H425 0.950 . S
C430 C431 1.478 . S
C431 C418 1.394 . S
C431 C430 1.478 . S
C431 C432 1.397 . S
C432 C431 1.397 . S
C432 C433 1.438 . S
C432 C437 1.429 . S
C433 C416 1.394 . S
C433 C432 1.438 . S
C433 C434 1.428 . S
C434 H426 0.949 . S
C434 C433 1.428 . S
C434 C435 1.345 . S
C435 H427 0.950 . S
C435 C434 1.345 . S
C435 C436 1.424 . S
C436 H428 0.951 . S
C436 C435 1.424 . S
C436 C437 1.347 . S
C437 H429 0.951 . S
C437 C432 1.429 . S
C437 C436 1.347 . S
H438 C439 0.946 1_556 S
C439 H438 0.946 1_554 S
C439 C445 1.265 1_554 S
H440 C445 0.950 1_554 S
H441 C449 0.949 . S
H442 C450 0.950 . S
H443 C451 0.951 . S
H444 C452 0.951 . S
C445 C439 1.265 1_556 S
C445 H440 0.950 1_556 S
C445 C446 1.478 . S
C446 C445 1.478 . S
C446 C447 1.397 . S
C446 C463 1.394 . S
C447 C446 1.397 . S
C447 C448 1.438 . S
C447 C452 1.429 . S
C448 C447 1.438 . S
C448 C449 1.428 . S
C448 C461 1.394 . S
C449 H441 0.949 . S
C449 C448 1.428 . S
C449 C450 1.345 . S
C450 H442 0.950 . S
C450 C449 1.345 . S
C450 C451 1.424 . S
C451 H443 0.951 . S
C451 C450 1.424 . S
C451 C452 1.347 . S
C452 H444 0.951 . S
C452 C447 1.429 . S
C452 C451 1.347 . S
H453 C454 0.951 . S
C454 H453 0.951 . S
C454 C460 1.265 . S
H455 C460 0.950 . S
H456 C464 0.949 . S
H457 C465 0.950 . S
H458 C466 0.951 . S
H459 C467 0.951 . S
C460 C454 1.265 . S
C460 H455 0.950 . S
C460 C461 1.478 . S
C461 C448 1.394 . S
C461 C460 1.478 . S
C461 C462 1.397 . S
C462 C461 1.397 . S
C462 C463 1.438 . S
C462 C467 1.429 . S
C463 C446 1.394 . S
C463 C462 1.438 . S
C463 C464 1.428 1_556 S
C464 H456 0.949 . S
C464 C463 1.428 1_554 S
C464 C465 1.345 . S
C465 H457 0.950 . S
C465 C464 1.345 . S
C465 C466 1.424 . S
C466 H458 0.951 . S
C466 C465 1.424 . S
C466 C467 1.347 1_554 S
C467 H459 0.951 . S
C467 C462 1.429 . S
C467 C466 1.347 1_556 S
H468 C469 0.951 1_455 S
C469 H468 0.951 1_655 S
C469 C475 1.265 . S
H470 C475 0.950 . S
H471 C479 0.949 . S
H472 C480 0.950 . S
H473 C481 0.951 . S
H474 C482 0.951 . S
C475 C469 1.265 . S
C475 H470 0.950 . S
C475 C476 1.478 . S
C476 C475 1.478 . S
C476 C477 1.397 1_655 S
C476 C493 1.394 . S
C477 C476 1.397 1_455 S
C477 C478 1.438 . S
C477 C482 1.429 . S
C478 C477 1.438 . S
C478 C479 1.428 . S
C478 C491 1.394 . S
C479 H471 0.949 . S
C479 C478 1.428 . S
C479 C480 1.345 . S
C480 H472 0.950 . S
C480 C479 1.345 . S
C480 C481 1.424 . S
C481 H473 0.951 . S
C481 C480 1.424 . S
C481 C482 1.347 . S
C482 H474 0.951 . S
C482 C477 1.429 . S
C482 C481 1.347 . S
H483 C484 0.933 1_655 S
C484 H483 0.933 1_455 S
C484 C490 1.265 . S
H485 C490 0.950 . S
H486 C494 0.949 . S
H487 C495 0.950 . S
H488 C496 0.951 . S
H489 C497 0.951 . S
C490 C484 1.265 . S
C490 H485 0.950 . S
C490 C491 1.478 . S
C491 C478 1.394 . S
C491 C490 1.478 . S
C491 C492 1.397 1_455 S
C492 C491 1.397 1_655 S
C492 C493 1.438 . S
C492 C497 1.429 . S
C493 C476 1.394 . S
C493 C492 1.438 . S
C493 C494 1.428 . S
C494 H486 0.949 . S
C494 C493 1.428 . S
C494 C495 1.345 . S
C495 H487 0.950 . S
C495 C494 1.345 . S
C495 C496 1.424 . S
C496 H488 0.951 . S
C496 C495 1.424 . S
C496 C497 1.347 . S
C497 H489 0.951 . S
C497 C492 1.429 . S
C497 C496 1.347 . S
H498 C499 0.942 1_565 S
C499 H498 0.942 1_545 S
C499 C505 1.265 . S
H500 C505 0.950 . S
H501 C509 0.949 . S
H502 C510 0.950 . S
H503 C511 0.951 . S
H504 C512 0.951 . S
C505 C499 1.265 . S
C505 H500 0.950 . S
C505 C506 1.478 . S
C506 C505 1.478 . S
C506 C507 1.397 . S
C506 C523 1.394 . S
C507 C506 1.397 . S
C507 C508 1.438 . S
C507 C512 1.429 1_545 S
C508 C507 1.438 . S
C508 C509 1.428 1_545 S
C508 C521 1.394 . S
C509 H501 0.949 . S
C509 C508 1.428 1_565 S
C509 C510 1.345 . S
C510 H502 0.950 . S
C510 C509 1.345 . S
C510 C511 1.424 . S
C511 H503 0.951 . S
C511 C510 1.424 . S
C511 C512 1.347 . S
C512 H504 0.951 . S
C512 C507 1.429 1_565 S
C512 C511 1.347 . S
H513 C514 0.951 . S
C514 H513 0.951 . S
C514 C520 1.265 . S
H515 C520 0.950 . S
H516 C524 0.949 . S
H517 C525 0.950 . S
H518 C526 0.951 . S
H519 C527 0.951 . S
C520 C514 1.265 . S
C520 H515 0.950 . S
C520 C521 1.478 . S
C521 C508 1.394 . S
C521 C520 1.478 . S
C521 C522 1.397 . S
C522 C521 1.397 . S
C522 C523 1.438 . S
C522 C527 1.429 . S
C523 C506 1.394 . S
C523 C522 1.438 . S
C523 C524 1.428 . S
C524 H516 0.949 . S
C524 C523 1.428 . S
C524 C525 1.345 . S
C525 H517 0.950 . S
C525 C524 1.345 . S
C525 C526 1.424 . S
C526 H518 0.951 . S
C526 C525 1.424 . S
C526 C527 1.347 . S
C527 H519 0.951 . S
C527 C522 1.429 . S
C527 C526 1.347 . S
H528 C529 0.971 . S
C529 H528 0.971 . S
C529 C535 1.277 . S
H530 C535 0.929 1_554 S
H531 C539 0.949 . S
H532 C540 0.950 . S
H533 C541 0.951 . S
H534 C542 0.951 . S
C535 C529 1.277 . S
C535 H530 0.929 1_556 S
C535 C536 1.478 . S
C536 C535 1.478 . S
C536 C537 1.397 . S
C536 C553 1.394 . S
C537 C536 1.397 . S
C537 C538 1.438 . S
C537 C542 1.429 1_556 S
C538 C537 1.438 . S
C538 C539 1.428 . S
C538 C551 1.394 . S
C539 H531 0.949 . S
C539 C538 1.428 . S
C539 C540 1.345 1_556 S
C540 H532 0.950 . S
C540 C539 1.345 1_554 S
C540 C541 1.424 . S
C541 H533 0.951 . S
C541 C540 1.424 . S
C541 C542 1.347 . S
C542 H534 0.951 . S
C542 C537 1.429 1_554 S
C542 C541 1.347 . S
H543 C544 0.951 . S
C544 H543 0.951 . S
C544 C550 1.265 . S
H545 C550 0.950 . S
H546 C554 0.949 . S
H547 C555 0.950 . S
H548 C556 0.951 . S
H549 C557 0.951 . S
C550 C544 1.265 . S
C550 H545 0.950 . S
C550 C551 1.478 . S
C551 C538 1.394 . S
C551 C550 1.478 . S
C551 C552 1.397 . S
C552 C551 1.397 . S
C552 C553 1.438 . S
C552 C557 1.429 . S
C553 C536 1.394 . S
C553 C552 1.438 . S
C553 C554 1.428 . S
C554 H546 0.949 . S
C554 C553 1.428 . S
C554 C555 1.345 . S
C555 H547 0.950 . S
C555 C554 1.345 . S
C555 C556 1.424 . S
C556 H548 0.951 . S
C556 C555 1.424 . S
C556 C557 1.347 . S
C557 H549 0.951 . S
C557 C552 1.429 . S
C557 C556 1.347 . S
H558 C559 0.951 . S
C559 H558 0.951 . S
C559 C565 1.265 . S
H560 C565 0.950 . S
H561 C569 0.960 . S
H562 C570 0.950 . S
H563 C571 0.951 . S
H564 C572 0.951 . S
C565 C559 1.265 . S
C565 H560 0.950 . S
C565 C566 1.478 . S
C566 C565 1.478 . S
C566 C567 1.397 . S
C566 C583 1.394 . S
C567 C566 1.397 . S
C567 C568 1.438 . S
C567 C572 1.429 . S
C568 C567 1.438 . S
C568 C569 1.424 1_455 S
C568 C581 1.394 . S
C569 H561 0.960 . S
C569 C568 1.424 1_655 S
C569 C570 1.338 . S
C570 H562 0.950 . S
C570 C569 1.338 . S
C570 C571 1.424 1_655 S
C571 H563 0.951 . S
C571 C570 1.424 1_455 S
C571 C572 1.347 . S
C572 H564 0.951 . S
C572 C567 1.429 . S
C572 C571 1.347 . S
H573 C574 0.951 . S
C574 H573 0.951 . S
C574 C580 1.265 . S
H575 C580 0.950 1_655 S
H576 C584 0.949 . S
H577 C585 0.950 . S
H578 C586 0.951 . S
H579 C587 0.951 . S
C580 C574 1.265 . S
C580 H575 0.950 1_455 S
C580 C581 1.478 . S
C581 C568 1.394 . S
C581 C580 1.478 . S
C581 C582 1.397 . S
C582 C581 1.397 . S
C582 C583 1.438 . S
C582 C587 1.429 . S
C583 C566 1.394 . S
C583 C582 1.438 . S
C583 C584 1.428 . S
C584 H576 0.949 . S
C584 C583 1.428 . S
C584 C585 1.345 . S
C585 H577 0.950 . S
C585 C584 1.345 . S
C585 C586 1.424 . S
C586 H578 0.951 . S
C586 C585 1.424 . S
C586 C587 1.347 . S
C587 H579 0.951 . S
C587 C582 1.429 . S
C587 C586 1.347 . S
C244 C95 1.198 . S
C229 C11 1.194 . S
C259 C26 1.385 . S
C274 C139 1.410 . S
C289 C40 1.295 . S
C304 C201 1.286 . S
C319 C5 1.029 . S
C334 C77 1.257 . S
C364 C157 1.368 . S
C349 C18 1.412 . S
C379 C32 1.235 . S
C394 C219 1.298 . S
C424 C133 1.294 . S
C409 C39 1.384 . S
C439 C4 1.602 . S
C454 C195 1.500 . S
C484 C71 1.419 . S
C469 C19 1.506 . S
C514 C151 1.443 . S
C499 C33 1.265 1_545 S
C544 C213 1.538 . S
C529 C12 1.607 1_556 S
C559 C25 1.509 . S
C574 C89 1.454 . S
