# Generated by pormake.
# Topology eea, (3,6)-cn, num edge types: 1
# Building blocks:
#     Node 0, Type 0, BuildingBlock: MIDCAF_clean_linker_0, # of connection points: 3
#     Node 1, Type 0, BuildingBlock: MIDCAF_clean_linker_0, # of connection points: 3
#     Node 2, Type 0, BuildingBlock: MIDCAF_clean_linker_0, # of connection points: 3
#     Node 3, Type 0, BuildingBlock: MIDCAF_clean_linker_0, # of connection points: 3
#     Node 4, Type 0, BuildingBlock: MIDCAF_clean_linker_0, # of connection points: 3
#     Node 5, Type 0, BuildingBlock: MIDCAF_clean_linker_0, # of connection points: 3
#     Node 6, Type 0, BuildingBlock: MIDCAF_clean_linker_0, # of connection points: 3
#     Node 7, Type 0, BuildingBlock: MIDCAF_clean_linker_0, # of connection points: 3
#     Node 8, Type 0, BuildingBlock: MIDCAF_clean_linker_0, # of connection points: 3
#     Node 9, Type 0, BuildingBlock: MIDCAF_clean_linker_0, # of connection points: 3
#     Node 10, Type 0, BuildingBlock: MIDCAF_clean_linker_0, # of connection points: 3
#     Node 11, Type 0, BuildingBlock: MIDCAF_clean_linker_0, # of connection points: 3
#     Node 12, Type 0, BuildingBlock: MIDCAF_clean_linker_0, # of connection points: 3
#     Node 13, Type 0, BuildingBlock: MIDCAF_clean_linker_0, # of connection points: 3
#     Node 14, Type 0, BuildingBlock: MIDCAF_clean_linker_0, # of connection points: 3
#     Node 15, Type 0, BuildingBlock: MIDCAF_clean_linker_0, # of connection points: 3
#     Node 16, Type 0, BuildingBlock: MIDCAF_clean_linker_0, # of connection points: 3
#     Node 17, Type 0, BuildingBlock: MIDCAF_clean_linker_0, # of connection points: 3
#     Node 18, Type 1, BuildingBlock: NUHQIS_clean_sbu_0, # of connection points: 6
#     Node 19, Type 1, BuildingBlock: NUHQIS_clean_sbu_0, # of connection points: 6
#     Node 20, Type 1, BuildingBlock: NUHQIS_clean_sbu_0, # of connection points: 6
#     Node 21, Type 1, BuildingBlock: NUHQIS_clean_sbu_0, # of connection points: 6
#     Node 22, Type 1, BuildingBlock: NUHQIS_clean_sbu_0, # of connection points: 6
#     Node 23, Type 1, BuildingBlock: NUHQIS_clean_sbu_0, # of connection points: 6
#     Node 24, Type 1, BuildingBlock: NUHQIS_clean_sbu_0, # of connection points: 6
#     Node 25, Type 1, BuildingBlock: NUHQIS_clean_sbu_0, # of connection points: 6
#     Node 26, Type 1, BuildingBlock: NUHQIS_clean_sbu_0, # of connection points: 6
#     Edge 27, Type (0, 1), BuildingBlock: XIVTED_clean_linker_0, # of connection points: 2
#     Edge 28, Type (0, 1), BuildingBlock: XIVTED_clean_linker_0, # of connection points: 2
#     Edge 29, Type (0, 1), BuildingBlock: XIVTED_clean_linker_0, # of connection points: 2
#     Edge 30, Type (0, 1), BuildingBlock: XIVTED_clean_linker_0, # of connection points: 2
#     Edge 31, Type (0, 1), BuildingBlock: XIVTED_clean_linker_0, # of connection points: 2
#     Edge 32, Type (0, 1), BuildingBlock: XIVTED_clean_linker_0, # of connection points: 2
#     Edge 33, Type (0, 1), BuildingBlock: XIVTED_clean_linker_0, # of connection points: 2
#     Edge 34, Type (0, 1), BuildingBlock: XIVTED_clean_linker_0, # of connection points: 2
#     Edge 35, Type (0, 1), BuildingBlock: XIVTED_clean_linker_0, # of connection points: 2
#     Edge 36, Type (0, 1), BuildingBlock: XIVTED_clean_linker_0, # of connection points: 2
#     Edge 37, Type (0, 1), BuildingBlock: XIVTED_clean_linker_0, # of connection points: 2
#     Edge 38, Type (0, 1), BuildingBlock: XIVTED_clean_linker_0, # of connection points: 2
#     Edge 39, Type (0, 1), BuildingBlock: XIVTED_clean_linker_0, # of connection points: 2
#     Edge 40, Type (0, 1), BuildingBlock: XIVTED_clean_linker_0, # of connection points: 2
#     Edge 41, Type (0, 1), BuildingBlock: XIVTED_clean_linker_0, # of connection points: 2
#     Edge 42, Type (0, 1), BuildingBlock: XIVTED_clean_linker_0, # of connection points: 2
#     Edge 43, Type (0, 1), BuildingBlock: XIVTED_clean_linker_0, # of connection points: 2
#     Edge 44, Type (0, 1), BuildingBlock: XIVTED_clean_linker_0, # of connection points: 2
#     Edge 45, Type (0, 1), BuildingBlock: XIVTED_clean_linker_0, # of connection points: 2
#     Edge 46, Type (0, 1), BuildingBlock: XIVTED_clean_linker_0, # of connection points: 2
#     Edge 47, Type (0, 1), BuildingBlock: XIVTED_clean_linker_0, # of connection points: 2
#     Edge 48, Type (0, 1), BuildingBlock: XIVTED_clean_linker_0, # of connection points: 2
#     Edge 49, Type (0, 1), BuildingBlock: XIVTED_clean_linker_0, # of connection points: 2
#     Edge 50, Type (0, 1), BuildingBlock: XIVTED_clean_linker_0, # of connection points: 2
#     Edge 51, Type (0, 1), BuildingBlock: XIVTED_clean_linker_0, # of connection points: 2
#     Edge 52, Type (0, 1), BuildingBlock: XIVTED_clean_linker_0, # of connection points: 2
#     Edge 53, Type (0, 1), BuildingBlock: XIVTED_clean_linker_0, # of connection points: 2
#     Edge 54, Type (0, 1), BuildingBlock: XIVTED_clean_linker_0, # of connection points: 2
#     Edge 55, Type (0, 1), BuildingBlock: XIVTED_clean_linker_0, # of connection points: 2
#     Edge 56, Type (0, 1), BuildingBlock: XIVTED_clean_linker_0, # of connection points: 2
#     Edge 57, Type (0, 1), BuildingBlock: XIVTED_clean_linker_0, # of connection points: 2
#     Edge 58, Type (0, 1), BuildingBlock: XIVTED_clean_linker_0, # of connection points: 2
#     Edge 59, Type (0, 1), BuildingBlock: XIVTED_clean_linker_0, # of connection points: 2
#     Edge 60, Type (0, 1), BuildingBlock: XIVTED_clean_linker_0, # of connection points: 2
#     Edge 61, Type (0, 1), BuildingBlock: XIVTED_clean_linker_0, # of connection points: 2
#     Edge 62, Type (0, 1), BuildingBlock: XIVTED_clean_linker_0, # of connection points: 2
#     Edge 63, Type (0, 1), BuildingBlock: XIVTED_clean_linker_0, # of connection points: 2
#     Edge 64, Type (0, 1), BuildingBlock: XIVTED_clean_linker_0, # of connection points: 2
#     Edge 65, Type (0, 1), BuildingBlock: XIVTED_clean_linker_0, # of connection points: 2
#     Edge 66, Type (0, 1), BuildingBlock: XIVTED_clean_linker_0, # of connection points: 2
#     Edge 67, Type (0, 1), BuildingBlock: XIVTED_clean_linker_0, # of connection points: 2
#     Edge 68, Type (0, 1), BuildingBlock: XIVTED_clean_linker_0, # of connection points: 2
#     Edge 69, Type (0, 1), BuildingBlock: XIVTED_clean_linker_0, # of connection points: 2
#     Edge 70, Type (0, 1), BuildingBlock: XIVTED_clean_linker_0, # of connection points: 2
#     Edge 71, Type (0, 1), BuildingBlock: XIVTED_clean_linker_0, # of connection points: 2
#     Edge 72, Type (0, 1), BuildingBlock: XIVTED_clean_linker_0, # of connection points: 2
#     Edge 73, Type (0, 1), BuildingBlock: XIVTED_clean_linker_0, # of connection points: 2
#     Edge 74, Type (0, 1), BuildingBlock: XIVTED_clean_linker_0, # of connection points: 2
#     Edge 75, Type (0, 1), BuildingBlock: XIVTED_clean_linker_0, # of connection points: 2
#     Edge 76, Type (0, 1), BuildingBlock: XIVTED_clean_linker_0, # of connection points: 2
#     Edge 77, Type (0, 1), BuildingBlock: XIVTED_clean_linker_0, # of connection points: 2
#     Edge 78, Type (0, 1), BuildingBlock: XIVTED_clean_linker_0, # of connection points: 2
#     Edge 79, Type (0, 1), BuildingBlock: XIVTED_clean_linker_0, # of connection points: 2
#     Edge 80, Type (0, 1), BuildingBlock: XIVTED_clean_linker_0, # of connection points: 2
# Relax obj value: 0.035
# Max RMSD: 0.133
# Mean RMSD: 0.076
data_MOF--net-eea--node1-NUHQIS_clean_sbu_0--node2-MIDCAF_clean_linker_0--edge1-XIVTED_clean_linker_0
_symmetry_space_group_name_H-M    P1
_symmetry_Int_Tables_number       1
_symmetry_cell_setting            triclinic
loop_
_symmetry_equiv_pos_as_xyz
'x, y, z'
_cell_length_a     62.827704
_cell_length_b     62.372321
_cell_length_c     89.974986
_cell_angle_alpha  93.178581
_cell_angle_beta   93.539177
_cell_angle_gamma 119.67387
loop_
_atom_site_label
_atom_site_type_symbol
_atom_site_fract_x
_atom_site_fract_y
_atom_site_fract_z
_atom_type_partial_charge
C0 C 0.27877 0.06933 0.40017 0.0
C1 C 0.26957 0.06332 0.385 0.0
C2 C 0.27227 0.08234 0.37628 0.0
C3 C 0.28255 0.10671 0.3829 0.0
H4 H 0.27962 0.17019 0.37689 0.0
H5 H 0.26294 0.1945 0.36612 0.0
H6 H 0.29016 0.24492 0.40647 0.0
H7 H 0.3066 0.22067 0.41735 0.0
H8 H 0.31243 0.20113 0.44749 0.0
H9 H 0.31666 0.20505 0.47473 0.0
H10 H 0.32174 0.13844 0.47433 0.0
H11 H 0.31697 0.13414 0.44712 0.0
H12 H 0.29528 0.09725 0.4186 0.0
H13 H 0.27733 0.05507 0.40709 0.0
H14 H 0.26537 0.07818 0.36454 0.0
H15 H 0.28346 0.12081 0.37604 0.0
N16 N 0.29536 0.15427 0.3985 0.0
N17 N 0.30654 0.18027 0.42085 0.0
N18 N 0.30483 0.14196 0.42094 0.0
C19 C 0.29977 0.17594 0.40585 0.0
C20 C 0.30922 0.16344 0.42848 0.0
C21 C 0.29802 0.13723 0.40595 0.0
C22 C 0.29394 0.19309 0.39815 0.0
C23 C 0.28246 0.1867 0.38338 0.0
C24 C 0.27298 0.20069 0.37716 0.0
C25 C 0.27479 0.22128 0.38559 0.0
C26 C 0.28798 0.22878 0.39986 0.0
C27 C 0.29747 0.21488 0.40606 0.0
C28 C 0.3142 0.16721 0.44504 0.0
C29 C 0.31465 0.1874 0.45318 0.0
C30 C 0.31716 0.18971 0.46883 0.0
C31 C 0.31933 0.17195 0.47674 0.0
C32 C 0.31961 0.15219 0.46861 0.0
C33 C 0.31706 0.14983 0.45297 0.0
C34 C 0.29048 0.11246 0.39832 0.0
C35 C 0.28918 0.09359 0.40675 0.0
C36 C 0.95205 0.22081 0.40424 0.0
C37 C 0.95447 0.21181 0.39012 0.0
C38 C 0.93433 0.19038 0.38263 0.0
C39 C 0.91252 0.17769 0.38926 0.0
H40 H 0.84861 0.11659 0.38085 0.0
H41 H 0.82022 0.07589 0.36787 0.0
H42 H 0.77962 0.05535 0.40661 0.0
H43 H 0.80772 0.09611 0.41958 0.0
H44 H 0.83619 0.12565 0.45035 0.0
H45 H 0.83316 0.13144 0.47686 0.0
H46 H 0.88742 0.20903 0.47799 0.0
H47 H 0.89075 0.20327 0.45117 0.0
H48 H 0.92907 0.21482 0.42207 0.0
H49 H 0.96733 0.23738 0.41024 0.0
H50 H 0.9355 0.18328 0.37163 0.0
H51 H 0.89763 0.16099 0.38312 0.0
N52 N 0.86933 0.1494 0.40329 0.0
N53 N 0.84762 0.13876 0.42432 0.0
N54 N 0.88581 0.17565 0.42568 0.0
C55 C 0.84925 0.13349 0.40975 0.0
C56 C 0.86565 0.15978 0.43237 0.0
C57 C 0.88768 0.17046 0.41103 0.0
C58 C 0.83061 0.10963 0.40135 0.0
C59 C 0.8335 0.10353 0.38659 0.0
C60 C 0.81731 0.08013 0.37914 0.0
C61 C 0.79779 0.06234 0.38624 0.0
C62 C 0.79435 0.06873 0.40078 0.0
C63 C 0.81057 0.09209 0.40825 0.0
C64 C 0.86379 0.164 0.44856 0.0
C65 C 0.84751 0.14403 0.45615 0.0
C66 C 0.84586 0.14727 0.47142 0.0
C67 C 0.86017 0.17062 0.47955 0.0
C68 C 0.87614 0.1908 0.47199 0.0
C69 C 0.87811 0.18748 0.45666 0.0
C70 C 0.91027 0.18589 0.40368 0.0
C71 C 0.93018 0.20788 0.41102 0.0
C72 C 0.80205 0.75058 0.41309 0.0
C73 C 0.80468 0.7586 0.39867 0.0
C74 C 0.823 0.75831 0.39062 0.0
C75 C 0.83885 0.75094 0.39702 0.0
H76 H 0.90416 0.75884 0.39181 0.0
H77 H 0.94162 0.7718 0.37985 0.0
H78 H 0.96995 0.74604 0.41536 0.0
H79 H 0.93215 0.73267 0.42739 0.0
H80 H 0.89608 0.70731 0.45438 0.0
H81 H 0.89428 0.69731 0.48038 0.0
H82 H 0.84012 0.71976 0.48576 0.0
H83 H 0.84161 0.72953 0.45988 0.0
H84 H 0.81569 0.73757 0.43075 0.0
H85 H 0.78784 0.75021 0.41948 0.0
H86 H 0.82567 0.76458 0.37955 0.0
H87 H 0.85307 0.75149 0.39057 0.0
N88 N 0.87498 0.74201 0.41174 0.0
N89 N 0.89058 0.73055 0.43222 0.0
N90 N 0.85317 0.73042 0.43277 0.0
C91 C 0.89279 0.73838 0.4183 0.0
C92 C 0.87076 0.72647 0.43952 0.0
C93 C 0.8551 0.73803 0.41881 0.0
C94 C 0.91512 0.74477 0.41065 0.0
C95 C 0.91824 0.75574 0.3971 0.0
C96 C 0.93982 0.76338 0.39025 0.0
C97 C 0.95881 0.76016 0.39672 0.0
C98 C 0.95554 0.74865 0.41007 0.0
C99 C 0.93393 0.74108 0.41699 0.0
C100 C 0.86904 0.7193 0.45504 0.0
C101 C 0.88371 0.71002 0.46109 0.0
C102 C 0.88264 0.7042 0.47594 0.0
C103 C 0.86721 0.70796 0.48508 0.0
C104 C 0.85239 0.71696 0.479 0.0
C105 C 0.85315 0.7224 0.46413 0.0
C106 C 0.83679 0.74369 0.41165 0.0
C107 C 0.81792 0.74317 0.41951 0.0
C108 C 0.03789 0.24752 0.61088 0.0
C109 C 0.03695 0.241 0.62566 0.0
C110 C 0.05769 0.24173 0.63301 0.0
C111 C 0.07868 0.24826 0.62566 0.0
H112 H 0.14227 0.24815 0.63097 0.0
H113 H 0.17039 0.23597 0.64215 0.0
H114 H 0.20628 0.24779 0.60152 0.0
H115 H 0.17784 0.25953 0.59015 0.0
H116 H 0.15829 0.27576 0.56317 0.0
H117 H 0.16189 0.28704 0.53772 0.0
H118 H 0.09479 0.29021 0.5378 0.0
H119 H 0.09086 0.27851 0.56342 0.0
H120 H 0.05883 0.25848 0.59205 0.0
H121 H 0.02212 0.24694 0.60486 0.0
H122 H 0.05773 0.23726 0.64447 0.0
H123 H 0.0942 0.24837 0.63169 0.0
N124 N 0.1193 0.25626 0.60949 0.0
N125 N 0.1403 0.26618 0.5881 0.0
N126 N 0.10286 0.26596 0.58851 0.0
C127 C 0.13889 0.25962 0.6023 0.0
C128 C 0.12247 0.26949 0.58112 0.0
C129 C 0.10123 0.25937 0.60276 0.0
C130 C 0.15756 0.25457 0.60957 0.0
C131 C 0.15623 0.24832 0.62441 0.0
C132 C 0.17248 0.24148 0.63089 0.0
C133 C 0.19043 0.24069 0.62268 0.0
C134 C 0.19235 0.24778 0.60804 0.0
C135 C 0.17613 0.25468 0.60156 0.0
C136 C 0.12433 0.27631 0.56547 0.0
C137 C 0.14423 0.27884 0.55786 0.0
C138 C 0.14638 0.28542 0.54323 0.0
C139 C 0.12873 0.28971 0.53575 0.0
C140 C 0.1086 0.28686 0.54322 0.0
C141 C 0.10645 0.2803 0.55794 0.0
C142 C 0.07947 0.2542 0.61075 0.0
C143 C 0.05892 0.25406 0.60351 0.0
C144 C 0.70754 0.76987 0.62157 0.0
C145 C 0.71946 0.77637 0.63617 0.0
C146 C 0.72037 0.79626 0.6449 0.0
C147 C 0.71146 0.81071 0.63874 0.0
H148 H 0.72675 0.88342 0.64388 0.0
H149 H 0.74384 0.92613 0.65483 0.0
H150 H 0.70481 0.93959 0.61867 0.0
H151 H 0.68827 0.8973 0.60756 0.0
H152 H 0.69682 0.87272 0.57496 0.0
H153 H 0.69189 0.86777 0.54768 0.0
H154 H 0.66311 0.78901 0.54805 0.0
H155 H 0.66813 0.79385 0.5754 0.0
H156 H 0.6906 0.77943 0.60386 0.0
H157 H 0.70657 0.75467 0.61455 0.0
H158 H 0.72896 0.80136 0.65632 0.0
H159 H 0.71361 0.82665 0.64556 0.0
N160 N 0.70136 0.84507 0.62389 0.0
N161 N 0.69258 0.8585 0.6017 0.0
N162 N 0.68966 0.81957 0.60129 0.0
C163 C 0.69922 0.86261 0.6167 0.0
C164 C 0.68771 0.83701 0.59392 0.0
C165 C 0.69638 0.82337 0.61627 0.0
C166 C 0.70652 0.88707 0.62468 0.0
C167 C 0.72152 0.89539 0.63839 0.0
C168 C 0.73126 0.91986 0.64471 0.0
C169 C 0.72608 0.93641 0.63746 0.0
C170 C 0.70971 0.92752 0.62432 0.0
C171 C 0.70014 0.90321 0.61798 0.0
C172 C 0.68287 0.83368 0.57738 0.0
C173 C 0.68923 0.85429 0.56927 0.0
C174 C 0.68662 0.85151 0.55363 0.0
C175 C 0.67727 0.82803 0.54576 0.0
C176 C 0.67029 0.80731 0.55384 0.0
C177 C 0.67322 0.81012 0.56949 0.0
C178 C 0.7014 0.80548 0.62371 0.0
C179 C 0.69855 0.78426 0.61541 0.0
C180 C 0.20288 0.92892 0.62107 0.0
C181 C 0.19752 0.93711 0.63445 0.0
C182 C 0.17707 0.92021 0.64134 0.0
C183 C 0.16141 0.8962 0.63446 0.0
H184 H 0.10127 0.8284 0.63965 0.0
H185 H 0.06325 0.80393 0.6508 0.0
H186 H 0.0269 0.7655 0.60736 0.0
H187 H 0.06517 0.78958 0.59621 0.0
H188 H 0.10157 0.79923 0.56846 0.0
H189 H 0.1059 0.79435 0.54184 0.0
H190 H 0.17093 0.8671 0.54637 0.0
H191 H 0.16721 0.87154 0.57274 0.0
H192 H 0.1915 0.89976 0.60357 0.0
H193 H 0.21888 0.94124 0.61567 0.0
H194 H 0.17242 0.9259 0.65166 0.0
H195 H 0.14524 0.88401 0.63975 0.0
N196 N 0.12708 0.84851 0.61822 0.0
N197 N 0.11131 0.82326 0.5954 0.0
N198 N 0.14945 0.86007 0.59744 0.0
C199 C 0.109 0.82767 0.61007 0.0
C200 C 0.13164 0.83942 0.58902 0.0
C201 C 0.14739 0.86477 0.61202 0.0
C202 C 0.0863 0.81114 0.61697 0.0
C203 C 0.08525 0.81461 0.63244 0.0
C204 C 0.06335 0.80066 0.63886 0.0
C205 C 0.04188 0.7829 0.62998 0.0
C206 C 0.04312 0.77885 0.61459 0.0
C207 C 0.06509 0.79275 0.60816 0.0
C208 C 0.13407 0.83573 0.57285 0.0
C209 C 0.11687 0.81409 0.56377 0.0
C210 C 0.11928 0.81136 0.54846 0.0
C211 C 0.13887 0.83026 0.54187 0.0
C212 C 0.15593 0.85185 0.55101 0.0
C213 C 0.15365 0.85448 0.56623 0.0
C214 C 0.16585 0.88864 0.62051 0.0
C215 C 0.18721 0.90503 0.61416 0.0
C216 C 0.94706 0.4036 0.73037 0.0
C217 C 0.93363 0.39667 0.71616 0.0
C218 C 0.93014 0.41428 0.709 0.0
C219 C 0.93919 0.43808 0.71609 0.0
H220 H 0.9367 0.49929 0.71091 0.0
H221 H 0.92227 0.52451 0.69932 0.0
H222 H 0.95921 0.58123 0.73649 0.0
H223 H 0.97287 0.5554 0.74847 0.0
H224 H 0.97123 0.53085 0.78124 0.0
H225 H 0.97798 0.53489 0.80855 0.0
H226 H 0.98675 0.4704 0.8064 0.0
H227 H 0.98028 0.46642 0.77926 0.0
H228 H 0.96561 0.43187 0.74865 0.0
H229 H 0.94991 0.39035 0.7362 0.0
H230 H 0.92014 0.40954 0.69797 0.0
H231 H 0.93564 0.45097 0.71034 0.0
N232 N 0.95636 0.48626 0.73144 0.0
N233 N 0.96721 0.51188 0.7539 0.0
N234 N 0.96544 0.47337 0.75369 0.0
C235 C 0.96067 0.50777 0.73886 0.0
C236 C 0.96974 0.49476 0.7614 0.0
C237 C 0.95878 0.46901 0.7387 0.0
C238 C 0.9555 0.52506 0.73082 0.0
C239 C 0.94209 0.51728 0.71657 0.0
C240 C 0.93394 0.53189 0.70981 0.0
C241 C 0.9392 0.55475 0.71707 0.0
C242 C 0.95425 0.56339 0.73077 0.0
C243 C 0.96217 0.54863 0.73763 0.0
C244 C 0.9752 0.4983 0.77797 0.0
C245 C 0.97477 0.51762 0.78657 0.0
C246 C 0.97843 0.51984 0.80224 0.0
C247 C 0.98287 0.50295 0.80966 0.0
C248 C 0.98364 0.48389 0.80105 0.0
C249 C 0.97981 0.48156 0.78544 0.0
C250 C 0.95172 0.44473 0.73058 0.0
C251 C 0.95594 0.42735 0.73753 0.0
C252 C 0.61455 0.55633 0.73909 0.0
C253 C 0.61771 0.54941 0.72459 0.0
C254 C 0.59763 0.52902 0.71612 0.0
C255 C 0.57536 0.51524 0.72223 0.0
H256 H 0.51134 0.44942 0.71395 0.0
H257 H 0.48423 0.40739 0.70206 0.0
H258 H 0.44342 0.38892 0.74074 0.0
H259 H 0.47048 0.4306 0.75273 0.0
H260 H 0.49851 0.45943 0.78341 0.0
H261 H 0.49658 0.46503 0.81013 0.0
H262 H 0.5517 0.54233 0.81126 0.0
H263 H 0.55391 0.53678 0.7843 0.0
H264 H 0.59082 0.54804 0.75657 0.0
H265 H 0.62944 0.57227 0.74582 0.0
H266 H 0.59937 0.52302 0.70496 0.0
H267 H 0.56059 0.49923 0.71548 0.0
N268 N 0.53188 0.4838 0.73616 0.0
N269 N 0.51027 0.47254 0.75729 0.0
N270 N 0.54789 0.50982 0.75869 0.0
C271 C 0.51193 0.46752 0.74267 0.0
C272 C 0.52803 0.49362 0.76539 0.0
C273 C 0.54992 0.50504 0.74403 0.0
C274 C 0.49346 0.44333 0.73445 0.0
C275 C 0.4964 0.43652 0.71986 0.0
C276 C 0.48078 0.41246 0.71299 0.0
C277 C 0.46198 0.39475 0.72058 0.0
C278 C 0.4581 0.40203 0.73475 0.0
C279 C 0.47361 0.426 0.74159 0.0
C280 C 0.52642 0.49766 0.78164 0.0
C281 C 0.51021 0.47771 0.78926 0.0
C282 C 0.50919 0.48084 0.80464 0.0
C283 C 0.5241 0.50406 0.81282 0.0
C284 C 0.53995 0.52422 0.80522 0.0
C285 C 0.54127 0.521 0.78981 0.0
C286 C 0.57258 0.52144 0.73701 0.0
C287 C 0.5923 0.54251 0.74523 0.0
C288 C 0.46912 0.08234 0.74407 0.0
C289 C 0.47376 0.09218 0.73015 0.0
C290 C 0.4938 0.0937 0.72319 0.0
C291 C 0.50931 0.08641 0.73019 0.0
H292 H 0.57048 0.08438 0.72448 0.0
H293 H 0.60785 0.0951 0.71288 0.0
H294 H 0.63797 0.07897 0.75236 0.0
H295 H 0.60064 0.06871 0.76423 0.0
H296 H 0.57474 0.06777 0.79499 0.0
H297 H 0.57084 0.05708 0.8208 0.0
H298 H 0.49294 0.03129 0.8144 0.0
H299 H 0.49674 0.0421 0.78866 0.0
H300 H 0.48088 0.06814 0.76196 0.0
H301 H 0.45354 0.08043 0.74961 0.0
H302 H 0.49809 0.10139 0.71255 0.0
H303 H 0.5249 0.08846 0.72459 0.0
N304 N 0.54305 0.07488 0.7456 0.0
N305 N 0.55818 0.06529 0.76714 0.0
N306 N 0.52086 0.06554 0.76656 0.0
C307 C 0.56057 0.07151 0.75285 0.0
C308 C 0.53831 0.06215 0.77405 0.0
C309 C 0.52317 0.07198 0.7523 0.0
C310 C 0.58259 0.07592 0.74539 0.0
C311 C 0.58494 0.08292 0.73071 0.0
C312 C 0.60635 0.0889 0.72398 0.0
C313 C 0.62595 0.08801 0.73172 0.0
C314 C 0.62333 0.08021 0.7462 0.0
C315 C 0.60187 0.07421 0.75297 0.0
C316 C 0.53602 0.05571 0.78973 0.0
C317 C 0.55676 0.0598 0.79907 0.0
C318 C 0.5546 0.05385 0.81388 0.0
C319 C 0.53159 0.04331 0.81959 0.0
C320 C 0.51087 0.03921 0.81026 0.0
C321 C 0.51309 0.04551 0.79553 0.0
C322 C 0.50527 0.07749 0.74438 0.0
C323 C 0.48472 0.07513 0.75112 0.0
C324 C 0.70227 0.57928 0.94404 0.0
C325 C 0.7029 0.57868 0.95968 0.0
C326 C 0.72537 0.58532 0.96796 0.0
C327 C 0.74637 0.59127 0.96072 0.0
H328 H 0.80817 0.5848 0.96653 0.0
H329 H 0.83633 0.57313 0.97841 0.0
H330 H 0.86711 0.57532 0.9365 0.0
H331 H 0.83953 0.5876 0.92472 0.0
H332 H 0.82259 0.60576 0.89755 0.0
H333 H 0.82657 0.61647 0.87196 0.0
H334 H 0.7614 0.62321 0.87188 0.0
H335 H 0.75707 0.61213 0.89759 0.0
H336 H 0.72201 0.58512 0.92475 0.0
H337 H 0.68527 0.57394 0.93723 0.0
H338 H 0.72673 0.58564 0.98003 0.0
H339 H 0.76324 0.59572 0.96741 0.0
N340 N 0.78443 0.59108 0.94435 0.0
N341 N 0.80493 0.59834 0.92273 0.0
N342 N 0.76861 0.60028 0.92287 0.0
C343 C 0.80345 0.59276 0.93714 0.0
C344 C 0.78768 0.60226 0.91552 0.0
C345 C 0.76696 0.5948 0.93732 0.0
C346 C 0.8215 0.58709 0.94463 0.0
C347 C 0.82105 0.58296 0.95986 0.0
C348 C 0.83709 0.57611 0.96667 0.0
C349 C 0.85391 0.57319 0.95841 0.0
C350 C 0.85464 0.57774 0.94326 0.0
C351 C 0.8387 0.58469 0.93647 0.0
C352 C 0.7896 0.60823 0.89974 0.0
C353 C 0.80901 0.60945 0.89215 0.0
C354 C 0.81137 0.61568 0.87745 0.0
C355 C 0.79442 0.62087 0.86994 0.0
C356 C 0.77466 0.61914 0.87735 0.0
C357 C 0.7723 0.61294 0.89212 0.0
C358 C 0.74547 0.59105 0.94506 0.0
C359 C 0.72336 0.58558 0.93684 0.0
C360 C 0.37306 0.10299 0.95574 0.0
C361 C 0.38577 0.10978 0.97013 0.0
C362 C 0.38781 0.13029 0.97877 0.0
C363 C 0.37916 0.14497 0.97263 0.0
H364 H 0.3854 0.21252 0.98015 0.0
H365 H 0.40118 0.25383 0.99293 0.0
H366 H 0.38176 0.2775 0.95261 0.0
H367 H 0.36568 0.23632 0.93989 0.0
H368 H 0.34338 0.19836 0.90979 0.0
H369 H 0.3381 0.19457 0.88248 0.0
H370 H 0.35381 0.13454 0.88097 0.0
H371 H 0.35901 0.13813 0.90825 0.0
H372 H 0.35577 0.11247 0.93819 0.0
H373 H 0.37072 0.08691 0.94896 0.0
H374 H 0.3975 0.13594 0.98992 0.0
H375 H 0.38224 0.16144 0.97929 0.0
N376 N 0.3685 0.17894 0.95785 0.0
N377 N 0.36078 0.19301 0.93564 0.0
N378 N 0.35781 0.15404 0.93514 0.0
C379 C 0.36692 0.19678 0.95069 0.0
C380 C 0.35615 0.17165 0.92778 0.0
C381 C 0.36378 0.15743 0.95018 0.0
C382 C 0.37435 0.22107 0.95894 0.0
C383 C 0.38421 0.22643 0.97404 0.0
C384 C 0.39342 0.25015 0.98136 0.0
C385 C 0.39279 0.26892 0.97377 0.0
C386 C 0.38225 0.26335 0.95883 0.0
C387 C 0.37313 0.23972 0.95151 0.0
C388 C 0.3516 0.16855 0.91124 0.0
C389 C 0.3456 0.18426 0.90366 0.0
C390 C 0.3425 0.18207 0.88803 0.0
C391 C 0.34565 0.16433 0.87963 0.0
C392 C 0.35152 0.14854 0.88717 0.0
C393 C 0.35429 0.15049 0.90281 0.0
C394 C 0.36836 0.1394 0.95773 0.0
C395 C 0.36443 0.11763 0.94959 0.0
C396 C 0.86997 0.26474 0.95196 0.0
C397 C 0.86667 0.27242 0.96618 0.0
C398 C 0.84823 0.25502 0.97411 0.0
C399 C 0.83228 0.23087 0.9675 0.0
H400 H 0.77013 0.16645 0.97331 0.0
H401 H 0.73245 0.14362 0.98511 0.0
H402 H 0.69483 0.10141 0.94274 0.0
H403 H 0.7327 0.12393 0.93092 0.0
H404 H 0.7704 0.1311 0.90258 0.0
H405 H 0.7746 0.12527 0.87596 0.0
H406 H 0.83391 0.20122 0.87846 0.0
H407 H 0.83039 0.20668 0.90474 0.0
H408 H 0.8568 0.23577 0.93418 0.0
H409 H 0.88438 0.27761 0.94571 0.0
H410 H 0.84529 0.26043 0.98511 0.0
H411 H 0.81757 0.21821 0.97365 0.0
N412 N 0.79558 0.18386 0.95145 0.0
N413 N 0.77845 0.15777 0.92896 0.0
N414 N 0.81681 0.19421 0.9302 0.0
C415 C 0.77696 0.1629 0.9437 0.0
C416 C 0.7985 0.17344 0.92215 0.0
C417 C 0.8156 0.19957 0.94482 0.0
C418 C 0.75449 0.14721 0.95108 0.0
C419 C 0.75391 0.15218 0.96647 0.0
C420 C 0.73222 0.13919 0.97327 0.0
C421 C 0.7105 0.12084 0.96488 0.0
C422 C 0.71126 0.11528 0.94959 0.0
C423 C 0.733 0.12827 0.94278 0.0
C424 C 0.8002 0.16926 0.90592 0.0
C425 C 0.78438 0.14647 0.89741 0.0
C426 C 0.78672 0.14318 0.88212 0.0
C427 C 0.80484 0.16266 0.87501 0.0
C428 C 0.82022 0.18551 0.88353 0.0
C429 C 0.81806 0.1887 0.89871 0.0
C430 C 0.83458 0.22368 0.95284 0.0
C431 C 0.85416 0.24067 0.94538 0.0
C432 C 0.61745 0.73643 0.0673 0.0
C433 C 0.60522 0.72885 0.05275 0.0
C434 C 0.60396 0.74649 0.04427 0.0
C435 C 0.61322 0.77081 0.0506 0.0
H436 H 0.6092 0.83068 0.04325 0.0
H437 H 0.59401 0.85404 0.02994 0.0
H438 H 0.61734 0.90728 0.06876 0.0
H439 H 0.63266 0.88393 0.08225 0.0
H440 H 0.6393 0.86463 0.11471 0.0
H441 H 0.64563 0.86931 0.14209 0.0
H442 H 0.65447 0.80487 0.141 0.0
H443 H 0.64859 0.80034 0.11392 0.0
H444 H 0.63508 0.76557 0.08509 0.0
H445 H 0.61922 0.72337 0.07398 0.0
H446 H 0.59463 0.74121 0.03303 0.0
H447 H 0.61091 0.78363 0.04397 0.0
N448 N 0.62592 0.81828 0.06543 0.0
N449 N 0.63457 0.84412 0.08758 0.0
N450 N 0.63584 0.80721 0.08811 0.0
C451 C 0.62844 0.83932 0.07249 0.0
C452 C 0.63844 0.82813 0.09546 0.0
C453 C 0.62966 0.80217 0.07311 0.0
C454 C 0.62192 0.85524 0.06394 0.0
C455 C 0.61139 0.84749 0.04898 0.0
C456 C 0.60255 0.86078 0.04132 0.0
C457 C 0.60427 0.88227 0.04837 0.0
C458 C 0.61586 0.89078 0.06305 0.0
C459 C 0.62453 0.87734 0.07079 0.0
C460 C 0.64346 0.83213 0.11204 0.0
C461 C 0.64277 0.85157 0.12031 0.0
C462 C 0.64619 0.85415 0.136 0.0
C463 C 0.65059 0.83749 0.14371 0.0
C464 C 0.65146 0.81824 0.13542 0.0
C465 C 0.64797 0.8156 0.11983 0.0
C466 C 0.62386 0.77791 0.06555 0.0
C467 C 0.62666 0.76068 0.07364 0.0
C468 C 0.28466 0.89094 0.07355 0.0
C469 C 0.28792 0.88466 0.05893 0.0
C470 C 0.26784 0.86476 0.05015 0.0
C471 C 0.24546 0.85075 0.05606 0.0
H472 H 0.18327 0.78426 0.04735 0.0
H473 H 0.15523 0.7435 0.03417 0.0
H474 H 0.11271 0.72312 0.07212 0.0
H475 H 0.14032 0.76381 0.0852 0.0
H476 H 0.16527 0.79364 0.11614 0.0
H477 H 0.16253 0.79904 0.14277 0.0
H478 H 0.22069 0.87531 0.14483 0.0
H479 H 0.22363 0.86999 0.11799 0.0
H480 H 0.26067 0.88187 0.09092 0.0
H481 H 0.2996 0.90648 0.08052 0.0
H482 H 0.26969 0.85926 0.03889 0.0
H483 H 0.2307 0.83509 0.04907 0.0
N484 N 0.20231 0.81805 0.0697 0.0
N485 N 0.17988 0.80616 0.09047 0.0
N486 N 0.21713 0.84393 0.09227 0.0
C487 C 0.18226 0.80137 0.07595 0.0
C488 C 0.19711 0.82738 0.09872 0.0
C489 C 0.2198 0.83939 0.07771 0.0
C490 C 0.1642 0.77736 0.06741 0.0
C491 C 0.16782 0.77119 0.05285 0.0
C492 C 0.15183 0.74777 0.0453 0.0
C493 C 0.1318 0.73002 0.05211 0.0
C494 C 0.12779 0.73644 0.06647 0.0
C495 C 0.14376 0.75979 0.07402 0.0
C496 C 0.19478 0.83135 0.11486 0.0
C497 C 0.17746 0.81165 0.12217 0.0
C498 C 0.17596 0.81467 0.13749 0.0
C499 C 0.19153 0.83752 0.14592 0.0
C500 C 0.20841 0.85748 0.13861 0.0
C501 C 0.21015 0.85439 0.12325 0.0
C502 C 0.24256 0.85623 0.07094 0.0
C503 C 0.26225 0.8769 0.07949 0.0
C504 C 0.13361 0.41459 0.07837 0.0
C505 C 0.13751 0.4243 0.06441 0.0
C506 C 0.15731 0.42606 0.05706 0.0
C507 C 0.17319 0.41889 0.06365 0.0
H508 H 0.23698 0.42365 0.05821 0.0
H509 H 0.27452 0.43627 0.04651 0.0
H510 H 0.3007 0.4076 0.08144 0.0
H511 H 0.26321 0.39558 0.09354 0.0
H512 H 0.23516 0.384 0.12361 0.0
H513 H 0.2331 0.37483 0.14965 0.0
H514 H 0.16566 0.37728 0.15029 0.0
H515 H 0.16779 0.38677 0.1244 0.0
H516 H 0.14624 0.40039 0.09586 0.0
H517 H 0.11829 0.41263 0.08423 0.0
H518 H 0.16105 0.43374 0.04639 0.0
H519 H 0.18851 0.42102 0.05772 0.0
N520 N 0.20749 0.40724 0.07806 0.0
N521 N 0.22301 0.39631 0.09883 0.0
N522 N 0.18596 0.39694 0.09925 0.0
C523 C 0.2251 0.40342 0.08473 0.0
C524 C 0.20341 0.39295 0.10617 0.0
C525 C 0.18786 0.40403 0.08515 0.0
C526 C 0.24711 0.4088 0.07695 0.0
C527 C 0.25057 0.41978 0.0634 0.0
C528 C 0.27212 0.4269 0.05658 0.0
C529 C 0.29074 0.4231 0.06305 0.0
C530 C 0.28691 0.41123 0.0763 0.0
C531 C 0.26536 0.40422 0.0832 0.0
C532 C 0.2017 0.38626 0.12184 0.0
C533 C 0.21983 0.38253 0.12926 0.0
C534 C 0.21862 0.37716 0.1442 0.0
C535 C 0.19931 0.37548 0.1521 0.0
C536 C 0.18103 0.37887 0.14463 0.0
C537 C 0.18218 0.38415 0.12971 0.0
C538 C 0.16976 0.40983 0.07781 0.0
C539 C 0.14956 0.40744 0.085 0.0
C540 C 0.36996 0.91444 0.2772 0.0
C541 C 0.36933 0.90925 0.29224 0.0
C542 C 0.39054 0.9115 0.29999 0.0
C543 C 0.41156 0.91788 0.29275 0.0
H544 H 0.47508 0.91816 0.29875 0.0
H545 H 0.50267 0.90617 0.31088 0.0
H546 H 0.53466 0.90872 0.26939 0.0
H547 H 0.50742 0.92132 0.25728 0.0
H548 H 0.49477 0.95163 0.23198 0.0
H549 H 0.49816 0.96355 0.20654 0.0
H550 H 0.42326 0.94904 0.20342 0.0
H551 H 0.4197 0.93697 0.2289 0.0
H552 H 0.39074 0.92421 0.25825 0.0
H553 H 0.35387 0.91267 0.27085 0.0
H554 H 0.39087 0.90817 0.31167 0.0
H555 H 0.42739 0.91901 0.29906 0.0
N556 N 0.4513 0.9233 0.27652 0.0
N557 N 0.47256 0.93264 0.25519 0.0
N558 N 0.43548 0.93324 0.25543 0.0
C559 C 0.47078 0.9261 0.26942 0.0
C560 C 0.45501 0.93635 0.24813 0.0
C561 C 0.4336 0.92682 0.26969 0.0
C562 C 0.48891 0.9206 0.27698 0.0
C563 C 0.48808 0.91633 0.29219 0.0
C564 C 0.50381 0.90928 0.29916 0.0
C565 C 0.52074 0.90628 0.29109 0.0
C566 C 0.52201 0.91113 0.27598 0.0
C567 C 0.50632 0.91828 0.26901 0.0
C568 C 0.45698 0.94339 0.23256 0.0
C569 C 0.47897 0.9509 0.22591 0.0
C570 C 0.48098 0.95788 0.21133 0.0
C571 C 0.461 0.95731 0.20299 0.0
C572 C 0.4389 0.94949 0.20953 0.0
C573 C 0.43695 0.94274 0.22418 0.0
C574 C 0.41196 0.92226 0.27757 0.0
C575 C 0.39108 0.92095 0.26994 0.0
C576 C 0.04454 0.44112 0.29111 0.0
C577 C 0.05221 0.44631 0.30655 0.0
C578 C 0.05022 0.46504 0.31463 0.0
C579 C 0.04205 0.47918 0.30728 0.0
H580 H 0.05573 0.54872 0.31243 0.0
H581 H 0.0713 0.58994 0.32514 0.0
H582 H 0.04613 0.61162 0.28606 0.0
H583 H 0.03038 0.57035 0.27328 0.0
H584 H 0.02909 0.54074 0.24179 0.0
H585 H 0.02363 0.53544 0.21454 0.0
H586 H 0.0009 0.4579 0.21514 0.0
H587 H 0.00633 0.46307 0.24247 0.0
H588 H 0.03161 0.45138 0.27176 0.0
H589 H 0.04606 0.42698 0.2845 0.0
H590 H 0.05556 0.46917 0.32657 0.0
H591 H 0.04153 0.49402 0.31379 0.0
N592 N 0.03591 0.51421 0.29097 0.0
N593 N 0.02821 0.52772 0.26856 0.0
N594 N 0.02491 0.48856 0.26855 0.0
C595 C 0.03444 0.53187 0.28361 0.0
C596 C 0.02327 0.50603 0.26095 0.0
C597 C 0.03113 0.49251 0.2836 0.0
C598 C 0.0419 0.55622 0.29175 0.0
C599 C 0.05324 0.56214 0.30655 0.0
C600 C 0.06232 0.5858 0.31384 0.0
C601 C 0.06003 0.60399 0.30657 0.0
C602 C 0.04797 0.59788 0.29199 0.0
C603 C 0.03906 0.57427 0.28463 0.0
C604 C 0.01826 0.50235 0.24438 0.0
C605 C 0.02275 0.52248 0.23617 0.0
C606 C 0.0198 0.51951 0.22053 0.0
C607 C 0.01203 0.49631 0.2127 0.0
C608 C 0.00683 0.47599 0.22087 0.0
C609 C 0.01004 0.47901 0.23653 0.0
C610 C 0.03576 0.47494 0.29168 0.0
C611 C 0.03634 0.45522 0.28376 0.0
C612 C 0.53698 0.59562 0.28647 0.0
C613 C 0.53202 0.60459 0.29972 0.0
C614 C 0.51116 0.58852 0.30662 0.0
C615 C 0.49488 0.56449 0.29994 0.0
H616 H 0.42635 0.50766 0.30162 0.0
H617 H 0.38734 0.48378 0.31203 0.0
H618 H 0.3657 0.42338 0.27796 0.0
H619 H 0.40475 0.44748 0.2671 0.0
H620 H 0.43674 0.46334 0.23586 0.0
H621 H 0.43981 0.45818 0.20896 0.0
H622 H 0.49928 0.53388 0.21146 0.0
H623 H 0.49652 0.53908 0.23805 0.0
H624 H 0.52483 0.56575 0.26934 0.0
H625 H 0.55321 0.60734 0.28106 0.0
H626 H 0.50677 0.59487 0.31681 0.0
H627 H 0.47848 0.55296 0.30526 0.0
N628 N 0.45985 0.51637 0.28433 0.0
N629 N 0.44393 0.48998 0.26192 0.0
N630 N 0.48225 0.52658 0.26353 0.0
C631 C 0.44165 0.49525 0.27646 0.0
C632 C 0.46429 0.50569 0.25537 0.0
C633 C 0.4803 0.53204 0.278 0.0
C634 C 0.41869 0.47959 0.28341 0.0
C635 C 0.41349 0.48922 0.29633 0.0
C636 C 0.39113 0.47562 0.30233 0.0
C637 C 0.37365 0.45189 0.29575 0.0
C638 C 0.37904 0.44169 0.28321 0.0
C639 C 0.4013 0.45552 0.277 0.0
C640 C 0.46632 0.50162 0.23918 0.0
C641 C 0.45051 0.47883 0.23067 0.0
C642 C 0.4523 0.47584 0.21529 0.0
C643 C 0.46963 0.49572 0.20809 0.0
C644 C 0.48551 0.51834 0.21663 0.0
C645 C 0.48399 0.52122 0.23195 0.0
C646 C 0.4991 0.55607 0.2862 0.0
C647 C 0.52073 0.57169 0.27979 0.0
Tb648 Tb 0.48863 0.98604 0.99363 0.0
Eu649 Eu 0.50793 0.01266 0.02848 0.0
C650 C 0.517 0.97018 0.01521 0.0
C651 C 0.45369 0.9668 0.01936 0.0
C652 C 0.48514 0.97727 0.95204 0.0
C653 C 0.49773 0.97026 0.92808 0.0
C654 C 0.48986 0.96249 0.942 0.0
C655 C 0.489 0.00033 0.94806 0.0
C656 C 0.4968 0.00809 0.93409 0.0
C657 C 0.50096 0.99299 0.92384 0.0
C658 C 0.47633 0.96823 0.96655 0.0
O659 O 0.49145 0.02225 0.99451 0.0
O660 O 0.48185 0.02384 0.01839 0.0
O661 O 0.53784 0.03855 0.01486 0.0
O662 O 0.52792 0.01085 0.99396 0.0
C663 C 0.48189 0.02981 1.00468 0.0
O664 O 0.5107 0.0383 0.04725 0.0
O665 O 0.52562 0.01393 0.05028 0.0
O666 O 0.52749 0.99234 0.02238 0.0
O667 O 0.49638 0.96155 0.00645 0.0
O668 O 0.45556 0.97131 1.00525 0.0
O669 O 0.47314 0.97623 0.02924 0.0
C670 C 0.5434 0.03156 1.00226 0.0
O671 O 0.49139 0.96505 0.97552 0.0
O672 O 0.46572 0.97848 0.97372 0.0
C673 C 0.50791 0.02186 0.07079 0.0
C674 C 0.49006 0.00895 0.09894 0.0
C675 C 0.50089 0.03368 0.09542 0.0
C676 C 0.50981 0.04006 0.08151 0.0
C677 C 0.49587 0.99694 0.07394 0.0
C678 C 0.48713 0.99057 0.08788 0.0
C679 C 0.51979 0.02921 0.05682 0.0
H680 H 0.5012 0.95838 0.9206 0.0
H681 H 0.48729 0.94479 0.94489 0.0
H682 H 0.48574 0.01226 0.95566 0.0
H683 H 0.49891 0.0256 0.93116 0.0
H684 H 0.50296 0.04824 0.10353 0.0
H685 H 0.51878 0.05934 0.07927 0.0
H686 H 0.4939 0.98243 0.06582 0.0
H687 H 0.47907 0.97138 0.09018 0.0
Tb688 Tb 0.00873 0.50369 0.99429 0.0
Eu689 Eu 0.98759 0.49875 0.0277 0.0
C690 C 0.02715 0.54954 0.01717 0.0
C691 C 0.03334 0.4914 0.02174 0.0
C692 C 0.01759 0.50932 0.95295 0.0
C693 C 0.03068 0.52559 0.92919 0.0
C694 C 0.03596 0.52527 0.94445 0.0
C695 C 0.99347 0.49419 0.94602 0.0
C696 C 0.98812 0.49454 0.93065 0.0
C697 C 0.00685 0.50991 0.92201 0.0
C698 C 0.02469 0.50854 0.96879 0.0
O699 O 0.97385 0.46903 0.99295 0.0
O700 O 0.97587 0.46051 0.01722 0.0
O701 O 0.9586 0.49903 0.01183 0.0
O702 O 0.98249 0.51675 0.99267 0.0
C703 C 0.96781 0.45308 1.00305 0.0
O704 O 0.9641 0.47777 0.04471 0.0
O705 O 0.98947 0.51718 0.04936 0.0
O706 O 0.00582 0.53831 0.02255 0.0
O707 O 0.03449 0.53683 0.00898 0.0
O708 O 0.02652 0.48735 0.00726 0.0
O709 O 0.02438 0.50104 0.0311 0.0
C710 C 0.9626 0.51042 0.99955 0.0
O711 O 0.02827 0.52698 0.97813 0.0
O712 O 0.01331 0.48742 0.97452 0.0
C713 C 0.98108 0.49343 0.07023 0.0
C714 C 0.99096 0.48832 0.10063 0.0
C715 C 0.97445 0.46747 0.09072 0.0
C716 C 0.9695 0.47001 0.0757 0.0
C717 C -0.002 0.51414 0.08006 0.0
C718 C 0.0029 0.51162 0.09501 0.0
C719 C 0.97411 0.49683 0.05482 0.0
H720 H 0.04542 0.53799 0.92295 0.0
H721 H 0.05463 0.53725 0.94959 0.0
H722 H 0.97893 0.48182 0.95238 0.0
H723 H 0.96959 0.48221 0.92545 0.0
H724 H 0.96511 0.44919 0.09458 0.0
H725 H 0.95622 0.4537 0.06848 0.0
H726 H 0.00702 0.53254 0.07632 0.0
H727 H 0.01536 0.52819 0.10231 0.0
Tb728 Tb 0.5069 0.49661 0.02814 0.0
Eu729 Eu 0.48629 0.50125 0.99384 0.0
C730 C 0.47568 0.45048 0.00554 0.0
C731 C 0.53994 0.50835 1.0014 0.0
C732 C 0.51234 0.49243 0.06971 0.0
C733 C 0.49503 0.47013 0.09128 0.0
C734 C 0.50161 0.47036 0.07669 0.0
C735 C 0.51626 0.51435 0.07768 0.0
C736 C 0.50982 0.51416 0.09235 0.0
C737 C 0.49927 0.49206 0.09941 0.0
C738 C 0.52006 0.49217 0.05445 0.0
O739 O 0.5067 0.53139 0.02867 0.0
O740 O 0.51364 0.53952 1.0044 0.0
O741 O 0.45848 0.50088 0.00867 0.0
O742 O 0.46851 0.48561 0.02926 0.0
C743 C 0.51506 0.54712 0.01849 0.0
O744 O 0.48205 0.52185 0.97594 0.0
O745 O 0.46786 0.48236 0.97193 0.0
O746 O 0.46538 0.46221 0.99961 0.0
O747 O 0.49672 0.4627 0.01402 0.0
O748 O 0.53918 0.51232 0.01582 0.0
O749 O 0.52013 0.4983 0.9918 0.0
C750 C 0.45379 0.49134 0.0216 0.0
O751 O 0.50467 0.47359 0.04487 0.0
O752 O 0.5302 0.51293 0.04823 0.0
C753 C 0.48234 0.50566 0.95109 0.0
C754 C 0.49775 0.51028 0.92182 0.0
C755 C 0.50037 0.53097 0.93067 0.0
C756 C 0.49269 0.52867 0.9451 0.0
C757 C 0.47998 0.48507 0.94231 0.0
C758 C 0.48758 0.48735 0.92792 0.0
C759 C 0.47252 0.50261 0.96595 0.0
H760 H 0.48654 0.45264 0.09615 0.0
H761 H 0.49841 0.45319 0.07087 0.0
H762 H 0.5246 0.53174 0.07269 0.0
H763 H 0.51368 0.5315 0.09826 0.0
H764 H 0.50834 0.549 0.92644 0.0
H765 H 0.49458 0.54486 0.9515 0.0
H766 H 0.47177 0.46695 0.94642 0.0
H767 H 0.48476 0.47086 0.92141 0.0
Tb768 Tb 0.15609 0.31947 0.32596 0.0
Eu769 Eu 0.17234 0.34687 0.36075 0.0
C770 C 0.17932 0.302 0.35073 0.0
C771 C 0.11809 0.30077 0.3498 0.0
C772 C 0.15715 0.31074 0.2848 0.0
C773 C 0.16045 0.30239 0.2586 0.0
C774 C 0.15179 0.29389 0.27227 0.0
C775 C 0.1719 0.33626 0.28363 0.0
C776 C 0.18046 0.3448 0.26994 0.0
C777 C 0.17455 0.32796 0.2572 0.0
C778 C 0.14642 0.30155 0.29881 0.0
O779 O 0.13753 0.34042 0.32926 0.0
O780 O 0.165 0.37176 0.34665 0.0
O781 O 0.2069 0.3613 0.3491 0.0
O782 O 0.18891 0.35546 0.32512 0.0
C783 C 0.1465 0.36273 0.33609 0.0
O784 O 0.16764 0.36771 0.37935 0.0
O785 O 0.1947 0.35601 0.38217 0.0
O786 O 0.16962 0.30958 0.36077 0.0
O787 O 0.1805 0.30879 0.33716 0.0
O788 O 0.12656 0.29376 0.33857 0.0
O789 O 0.13152 0.32187 0.35815 0.0
C790 C 0.20851 0.36524 0.33492 0.0
O791 O 0.15991 0.29774 0.30866 0.0
O792 O 0.13606 0.31284 0.30504 0.0
C793 C 0.17462 0.35741 0.40331 0.0
C794 C 0.16022 0.34229 0.4318 0.0
C795 C 0.17298 0.3676 0.42949 0.0
C796 C 0.18009 0.37505 0.4154 0.0
C797 C 0.1612 0.33207 0.40536 0.0
C798 C 0.15403 0.32456 0.4195 0.0
C799 C 0.18316 0.36584 0.38872 0.0
H800 H 0.15533 0.28893 0.249 0.0
H801 H 0.14045 0.27414 0.27296 0.0
H802 H 0.1764 0.34959 0.29322 0.0
H803 H 0.19155 0.36458 0.2693 0.0
H804 H 0.17763 0.38171 0.43864 0.0
H805 H 0.19015 0.39467 0.41399 0.0
H806 H 0.15662 0.31815 0.3961 0.0
H807 H 0.14433 0.30495 0.42091 0.0
Tb808 Tb 0.6755 0.83678 0.32773 0.0
Eu809 Eu 0.65356 0.83092 0.36085 0.0
C810 C 0.69382 0.882 0.35103 0.0
C811 C 0.6993 0.82345 0.35497 0.0
C812 C 0.68483 0.84338 0.28668 0.0
C813 C 0.69772 0.85993 0.263 0.0
C814 C 0.70314 0.85941 0.27819 0.0
C815 C 0.66061 0.82844 0.27985 0.0
C816 C 0.65512 0.82899 0.26455 0.0
C817 C 0.6738 0.84437 0.2559 0.0
C818 C 0.69202 0.84235 0.30243 0.0
O819 O 0.6404 0.80229 0.32574 0.0
O820 O 0.64124 0.7928 0.34988 0.0
O821 O 0.62516 0.83234 0.34497 0.0
O822 O 0.64976 0.8504 0.32615 0.0
C823 C 0.63377 0.78592 0.3356 0.0
O824 O 0.62994 0.80944 0.37768 0.0
O825 O 0.65483 0.84892 0.38253 0.0
O826 O 0.67234 0.87072 0.35622 0.0
O827 O 0.70122 0.8694 0.34279 0.0
O828 O 0.69262 0.81972 0.3405 0.0
O829 O 0.69021 0.83284 0.36441 0.0
C830 C 0.62974 0.8442 0.33285 0.0
O831 O 0.69542 0.86058 0.31189 0.0
O832 O 0.68069 0.82107 0.30797 0.0
C833 C 0.64657 0.82479 0.40323 0.0
C834 C 0.65606 0.81972 0.43368 0.0
C835 C 0.63716 0.79963 0.42426 0.0
C836 C 0.63239 0.80219 0.40924 0.0
C837 C 0.66603 0.84459 0.4125 0.0
C838 C 0.6707 0.84209 0.42751 0.0
C839 C 0.63964 0.82838 0.38787 0.0
H840 H 0.7124 0.87231 0.25672 0.0
H841 H 0.72186 0.87125 0.28328 0.0
H842 H 0.64613 0.81605 0.28624 0.0
H843 H 0.63654 0.81677 0.25938 0.0
H844 H 0.62575 0.78199 0.42852 0.0
H845 H 0.6172 0.78663 0.40242 0.0
H846 H 0.67723 0.86238 0.40832 0.0
H847 H 0.68517 0.85811 0.4344 0.0
Tb848 Tb 0.17368 0.83135 0.36105 0.0
Eu849 Eu 0.15343 0.8358 0.32667 0.0
C850 C 0.14462 0.78525 0.33834 0.0
C851 C 0.20738 0.84338 0.33452 0.0
C852 C 0.17787 0.82807 0.40282 0.0
C853 C 0.15883 0.80614 0.42419 0.0
C854 C 0.16515 0.80589 0.40956 0.0
C855 C 0.18385 0.85054 0.41103 0.0
C856 C 0.1777 0.8508 0.42572 0.0
C857 C 0.16536 0.82863 0.43254 0.0
C858 C 0.18602 0.82751 0.38769 0.0
O859 O 0.17304 0.86598 0.36113 0.0
O860 O 0.18123 0.87396 0.33702 0.0
O861 O 0.12608 0.83599 0.3417 0.0
O862 O 0.13445 0.81724 0.36086 0.0
C863 C 0.18212 0.88171 0.351 0.0
O864 O 0.14901 0.8562 0.30872 0.0
O865 O 0.13466 0.81667 0.30486 0.0
O866 O 0.13392 0.79638 0.33205 0.0
O867 O 0.16537 0.79797 0.34704 0.0
O868 O 0.20628 0.84639 0.34899 0.0
O869 O 0.188 0.83433 0.32462 0.0
C870 C 0.12005 0.82378 0.35365 0.0
O871 O 0.17101 0.80873 0.37812 0.0
O872 O 0.19626 0.84812 0.38134 0.0
C873 C 0.14914 0.83966 0.28395 0.0
C874 C 0.16499 0.84393 0.25482 0.0
C875 C 0.16977 0.86511 0.26408 0.0
C876 C 0.16189 0.863 0.27846 0.0
C877 C 0.14456 0.81855 0.27473 0.0
C878 C 0.1524 0.82065 0.26041 0.0
C879 C 0.13937 0.83687 0.29881 0.0
H880 H 0.1496 0.78878 0.42917 0.0
H881 H 0.16051 0.7883 0.4036 0.0
H882 H 0.19368 0.868 0.40623 0.0
H883 H 0.18279 0.86842 0.43181 0.0
H884 H 0.1796 0.88337 0.26023 0.0
H885 H 0.16557 0.87963 0.28521 0.0
H886 H 0.13448 0.80021 0.27846 0.0
H887 H 0.14791 0.80385 0.25355 0.0
Tb888 Tb 0.81926 0.65409 0.65974 0.0
Eu889 Eu 0.84092 0.68589 0.6966 0.0
C890 C 0.84326 0.63542 0.68352 0.0
C891 C 0.78372 0.63892 0.6857 0.0
C892 C 0.81662 0.65364 0.61794 0.0
C893 C 0.83678 0.64734 0.5972 0.0
C894 C 0.82692 0.64077 0.61087 0.0
C895 C 0.81651 0.67329 0.61104 0.0
C896 C 0.82639 0.67987 0.59742 0.0
C897 C 0.83653 0.6669 0.59026 0.0
C898 C 0.80508 0.64628 0.63209 0.0
O899 O 0.82056 0.68628 0.66902 0.0
O900 O 0.83204 0.71391 0.68807 0.0
O901 O 0.87191 0.70414 0.68183 0.0
O902 O 0.85884 0.67694 0.65991 0.0
C903 C 0.8213 0.70604 0.67467 0.0
O904 O 0.83982 0.70641 0.71667 0.0
O905 O 0.86447 0.69153 0.71708 0.0
O906 O 0.8449 0.65189 0.69411 0.0
O907 O 0.83438 0.6331 0.66949 0.0
O908 O 0.78742 0.63398 0.67193 0.0
O909 O 0.80052 0.65696 0.69545 0.0
C910 C 0.87578 0.69626 0.66883 0.0
O911 O 0.80897 0.63091 0.63955 0.0
O912 O 0.80611 0.6641 0.64096 0.0
C913 C 0.84668 0.69309 0.73937 0.0
C914 C 0.83052 0.67672 0.76728 0.0
C915 C 0.84356 0.70218 0.76543 0.0
C916 C 0.85156 0.71025 0.75162 0.0
C917 C 0.83301 0.6676 0.74096 0.0
C918 C 0.82498 0.65946 0.75484 0.0
C919 C 0.85491 0.70227 0.72491 0.0
H920 H 0.8446 0.63706 0.59206 0.0
H921 H 0.82718 0.62546 0.61582 0.0
H922 H 0.80843 0.68341 0.61606 0.0
H923 H 0.82539 0.6947 0.5923 0.0
H924 H 0.84767 0.71592 0.77472 0.0
H925 H 0.86162 0.72998 0.75051 0.0
H926 H 0.82867 0.65404 0.73152 0.0
H927 H 0.81504 0.63974 0.75593 0.0
Tb928 Tb 0.34087 0.16802 0.66081 0.0
Eu929 Eu 0.32056 0.16328 0.69452 0.0
C930 C 0.36352 0.2133 0.6852 0.0
C931 C 0.36587 0.15476 0.68773 0.0
C932 C 0.34687 0.17479 0.61947 0.0
C933 C 0.3602 0.19254 0.59607 0.0
C934 C 0.36555 0.19074 0.61112 0.0
C935 C 0.32248 0.1615 0.61268 0.0
C936 C 0.31714 0.16318 0.5976 0.0
C937 C 0.33604 0.17826 0.58901 0.0
C938 C 0.35364 0.17019 0.63452 0.0
O939 O 0.32115 0.12921 0.6647 0.0
O940 O 0.29304 0.12949 0.67949 0.0
O941 O 0.30387 0.18176 0.68134 0.0
O942 O 0.30609 0.16778 0.6576 0.0
C943 C 0.29965 0.11787 0.66992 0.0
O944 O 0.30018 0.14008 0.71162 0.0
O945 O 0.31674 0.18007 0.71541 0.0
O946 O 0.35742 0.19787 0.69555 0.0
O947 O 0.35411 0.20546 0.67121 0.0
O948 O 0.3687 0.16541 0.67517 0.0
O949 O 0.34706 0.1492 0.69548 0.0
C950 C 0.29748 0.17801 0.66686 0.0
O951 O 0.36427 0.18882 0.64487 0.0
O952 O 0.33751 0.15004 0.63976 0.0
C953 C 0.31243 0.15766 0.73682 0.0
C954 C 0.32263 0.15585 0.76759 0.0
C955 C 0.30131 0.13653 0.75937 0.0
C956 C 0.29626 0.13747 0.74418 0.0
C957 C 0.33434 0.17656 0.74482 0.0
C958 C 0.33942 0.17562 0.76009 0.0
C959 C 0.30511 0.15891 0.72111 0.0
H960 H 0.37524 0.20419 0.58978 0.0
H961 H 0.38449 0.20107 0.61608 0.0
H962 H 0.30761 0.14913 0.61885 0.0
H963 H 0.29828 0.15225 0.59257 0.0
H964 H 0.28823 0.12084 0.76476 0.0
H965 H 0.27933 0.12262 0.73823 0.0
H966 H 0.34721 0.19231 0.73939 0.0
H967 H 0.35596 0.19082 0.76614 0.0
Tb968 Tb 0.84085 0.16519 0.69428 0.0
Eu969 Eu 0.81998 0.16871 0.66 0.0
C970 C 0.81489 0.11905 0.67045 0.0
C971 C 0.87529 0.17871 0.66833 0.0
C972 C 0.84408 0.16173 0.73606 0.0
C973 C 0.82654 0.13746 0.75698 0.0
C974 C 0.83382 0.13904 0.74245 0.0
C975 C 0.84638 0.18264 0.74445 0.0
C976 C 0.83928 0.18109 0.75896 0.0
C977 C 0.82969 0.15861 0.76551 0.0
C978 C 0.85419 0.16415 0.72131 0.0
O979 O 0.85927 0.20357 0.68935 0.0
O980 O 0.82801 0.20287 0.67465 0.0
O981 O 0.787 0.15098 0.67294 0.0
O982 O 0.80739 0.16681 0.69649 0.0
C983 C 0.84847 0.21506 0.68364 0.0
O984 O 0.82053 0.19132 0.64217 0.0
O985 O 0.79728 0.15141 0.63868 0.0
O986 O 0.82257 0.13408 0.65989 0.0
O987 O 0.8157 0.12748 0.68429 0.0
O988 O 0.86888 0.16671 0.68038 0.0
O989 O 0.86062 0.18416 0.66043 0.0
C990 C 0.78695 0.15553 0.68737 0.0
O991 O 0.84412 0.14481 0.71144 0.0
O992 O 0.85942 0.18428 0.71507 0.0
C993 C 0.81458 0.1728 0.61733 0.0
C994 C 0.82869 0.17442 0.58783 0.0
C995 C 0.83121 0.19572 0.59585 0.0
C996 C 0.82414 0.19487 0.61035 0.0
C997 C 0.8123 0.15153 0.60945 0.0
C998 C 0.81925 0.15233 0.59489 0.0
C999 C 0.80639 0.17226 0.63253 0.0
H1000 H 0.8194 0.11992 0.76175 0.0
H1001 H 0.83201 0.12265 0.73637 0.0
H1002 H 0.85427 0.20047 0.73998 0.0
H1003 H 0.84168 0.19765 0.76517 0.0
H1004 H 0.83876 0.21318 0.59096 0.0
H1005 H 0.82606 0.21155 0.61611 0.0
H1006 H 0.80489 0.13415 0.61444 0.0
H1007 H 0.81668 0.13543 0.58905 0.0
H1008 H 0.33303 0.90034 0.0742 0.0
H1009 H 0.40865 0.94879 1.00321 0.0
H1010 H 0.29904 0.89815 0.03052 0.0
H1011 H 0.44212 0.95319 0.04751 0.0
H1012 H 0.36824 0.92908 0.01268 0.0
H1013 H 0.37305 0.91949 0.06444 0.0
C1014 C 0.33398 0.90415 0.06259 0.0
C1015 C 0.31254 0.89765 0.0532 0.0
C1016 C 0.38442 0.93425 0.0203 0.0
C1017 C 0.35849 0.91919 0.04182 0.0
C1018 C 0.40753 0.9454 0.01489 0.0
C1019 C 0.4289 0.95268 0.02457 0.0
C1020 C 0.38261 0.9303 0.03551 0.0
C1021 C 0.42622 0.94791 0.03961 0.0
C1022 C 0.35687 0.91489 0.05698 0.0
C1023 C 0.31499 0.90258 0.03815 0.0
N1024 N 0.40355 0.9371 0.04461 0.0
N1025 N 0.33752 0.91302 0.03293 0.0
H1026 H 0.12009 0.41955 0.0349 0.0
H1027 H 0.05181 0.49672 0.05092 0.0
H1028 H 0.11925 0.45064 0.0788 0.0
H1029 H 0.05326 0.46713 0.00667 0.0
H1030 H 0.07716 0.48049 0.06116 0.0
H1031 H 0.09596 0.43701 0.02423 0.0
C1032 C 0.11486 0.43006 0.0423 0.0
C1033 C 0.12173 0.43361 0.0578 0.0
C1034 C 0.07203 0.47761 0.0492 0.0
C1035 C 0.09397 0.45353 0.04564 0.0
C1036 C 0.05757 0.48695 0.04332 0.0
C1037 C 0.0503 0.48326 0.02789 0.0
C1038 C 0.07929 0.46441 0.03962 0.0
C1039 C 0.0584 0.47043 0.01863 0.0
C1040 C 0.10102 0.43996 0.0362 0.0
C1041 C 0.11411 0.4471 0.06684 0.0
N1042 N 0.07238 0.46139 0.02465 0.0
N1043 N 0.1007 0.45658 0.06063 0.0
H1044 H 0.60249 0.70772 0.02446 0.0
H1045 H 0.51715 0.56954 0.04592 0.0
H1046 H 0.5771 0.68943 0.06797 0.0
H1047 H 0.5399 0.58587 1.00165 0.0
H1048 H 0.53842 0.61378 0.05381 0.0
H1049 H 0.57923 0.66347 0.01549 0.0
C1050 C 0.59205 0.69441 0.03211 0.0
C1051 C 0.59198 0.70224 0.04703 0.0
C1052 C 0.53874 0.60775 0.04235 0.0
C1053 C 0.56537 0.65177 0.03688 0.0
C1054 C 0.52656 0.58243 0.03783 0.0
C1055 C 0.52681 0.57396 0.02312 0.0
C1056 C 0.55142 0.62481 0.03212 0.0
C1057 C 0.53923 0.59159 0.01312 0.0
C1058 C 0.57882 0.66919 0.027 0.0
C1059 C 0.57817 0.68422 0.05648 0.0
N1060 N 0.55116 0.61621 0.01782 0.0
N1061 N 0.56548 0.6599 0.05125 0.0
H1062 H 0.87649 0.31226 0.95098 0.0
H1063 H 0.95599 0.41397 0.01986 0.0
H1064 H 0.88914 0.29299 0.99467 0.0
H1065 H 0.94341 0.43107 0.97545 0.0
H1066 H 0.93073 0.36974 0.0114 0.0
H1067 H 0.90017 0.35593 0.96027 0.0
C1068 C 0.88449 0.31727 0.96253 0.0
C1069 C 0.88112 0.29897 0.97202 0.0
C1070 C 0.93345 0.38319 1.00354 0.0
C1071 C 0.90813 0.34915 0.98284 0.0
C1072 C 0.94782 0.40846 0.00836 0.0
C1073 C 0.95188 0.42629 0.99833 0.0
C1074 C 0.923 0.37573 0.98861 0.0
C1075 C 0.9409 0.41804 0.98356 0.0
C1076 C 0.89789 0.34224 0.96787 0.0
C1077 C 0.89132 0.30653 0.98699 0.0
N1078 N 0.92702 0.3934 0.97917 0.0
N1079 N 0.9045 0.33109 0.99194 0.0
H1080 H 0.68911 0.5509 0.9837 0.0
H1081 H 0.55084 0.52038 0.97318 0.0
H1082 H 0.66395 0.58614 0.95271 0.0
H1083 H 0.58393 0.51824 0.01619 0.0
H1084 H 0.5912 0.53879 0.96382 0.0
H1085 H 0.64996 0.53426 0.9946 0.0
C1086 C 0.67558 0.55547 0.97929 0.0
C1087 C 0.67992 0.56991 0.96716 0.0
C1088 C 0.58961 0.53424 0.9753 0.0
C1089 C 0.63482 0.55018 0.97932 0.0
C1090 C 0.56656 0.5235 0.98062 0.0
C1091 C 0.56403 0.51767 0.99548 0.0
C1092 C 0.61025 0.5388 0.9848 0.0
C1093 C 0.58512 0.52247 1.00466 0.0
C1094 C 0.65318 0.54579 0.98547 0.0
C1095 C 0.66134 0.57467 0.96178 0.0
N1096 N 0.6074 0.53264 0.99913 0.0
N1097 N 0.63953 0.56462 0.96779 0.0
H1098 H 0.41369 0.09688 0.95411 0.0
H1099 H 0.455 0.04327 0.02175 0.0
H1100 H 0.38942 0.09523 0.99809 0.0
H1101 H 0.4796 0.04706 0.97769 0.0
H1102 H 0.43144 0.06286 0.01367 0.0
H1103 H 0.43784 0.07849 0.9628 0.0
C1104 C 0.41317 0.0923 0.96556 0.0
C1105 C 0.3993 0.09732 0.97535 0.0
C1106 C 0.44211 0.05953 0.00581 0.0
C1107 C 0.4274 0.07666 0.9855 0.0
C1108 C 0.45565 0.04843 0.01041 0.0
C1109 C 0.46927 0.04349 1.00035 0.0
C1110 C 0.44221 0.06572 0.99104 0.0
C1111 C 0.46933 0.05046 0.98581 0.0
C1112 C 0.42718 0.08202 0.97057 0.0
C1113 C 0.39989 0.09166 0.99019 0.0
N1114 N 0.45594 0.06115 0.98159 0.0
N1115 N 0.4137 0.08156 0.99483 0.0
H1116 H 0.69264 0.14061 0.98552 0.0
H1117 H 0.56273 0.01618 0.98077 0.0
H1118 H 0.67466 0.07183 0.96029 0.0
H1119 H 0.58183 0.07856 0.01297 0.0
H1120 H 0.60367 0.03763 0.97297 0.0
H1121 H 0.65282 0.11941 0.99579 0.0
C1122 C 0.68047 0.12101 0.98224 0.0
C1123 C 0.687 0.10804 0.97189 0.0
C1124 C 0.59907 0.04676 0.98175 0.0
C1125 C 0.64126 0.08385 0.98346 0.0
C1126 C 0.57548 0.03454 0.9862 0.0
C1127 C 0.56859 0.04562 0.99753 0.0
C1128 C 0.6162 0.0705 0.98851 0.0
C1129 C 0.58628 0.06935 1.00417 0.0
C1130 C 0.65769 0.10899 0.98807 0.0
C1131 C 0.67031 0.08275 0.96796 0.0
N1132 N 0.6093 0.08111 0.9995 0.0
N1133 N 0.64825 0.07159 0.97369 0.0
H1134 H 0.90215 0.5892 0.95432 0.0
H1135 H 0.91864 0.50144 0.00973 0.0
H1136 H 0.84312 0.5383 0.97845 0.0
H1137 H 0.96736 0.53792 0.97616 0.0
H1138 H 0.89201 0.51724 1.00041 0.0
H1139 H 0.92801 0.57353 0.96455 0.0
C1140 C 0.89457 0.57467 0.96174 0.0
C1141 C 0.87031 0.56489 0.96539 0.0
C1142 C 0.90851 0.52165 0.9951 0.0
C1143 C 0.9 0.54702 0.97732 0.0
C1144 C 0.92369 0.51263 1.00038 0.0
C1145 C 0.9453 0.51834 0.99373 0.0
C1146 C 0.91515 0.53663 0.9832 0.0
C1147 C 0.95093 0.53297 0.98167 0.0
C1148 C 0.90939 0.56577 0.96762 0.0
C1149 C 0.86176 0.54651 0.9754 0.0
N1150 N 0.93603 0.54167 0.97686 0.0
N1151 N 0.87658 0.53811 0.98099 0.0
H1152 H 0.43659 0.29596 0.99162 0.0
H1153 H 0.43084 0.42063 0.99007 0.0
H1154 H 0.3743 0.30031 0.97248 0.0
H1155 H 0.4911 0.41809 0.01412 0.0
H1156 H 0.40978 0.37608 0.98442 0.0
H1157 H 0.45634 0.3398 1.00123 0.0
C1158 C 0.42692 0.30603 0.98962 0.0
C1159 C 0.40387 0.29456 0.98108 0.0
C1160 C 0.42755 0.38513 0.991 0.0
C1161 C 0.42647 0.34464 0.99183 0.0
C1162 C 0.4397 0.4107 0.99421 0.0
C1163 C 0.46291 0.42321 1.00251 0.0
C1164 C 0.43863 0.37173 0.99602 0.0
C1165 C 0.47328 0.40919 0.00762 0.0
C1166 C 0.43827 0.33107 0.99503 0.0
C1167 C 0.39228 0.30852 0.97873 0.0
N1168 N 0.46111 0.38413 1.0042 0.0
N1169 N 0.40377 0.33282 0.98398 0.0
H1170 H 0.08165 0.70144 0.05107 0.0
H1171 H 0.07464 0.58006 0.01054 0.0
H1172 H 0.14518 0.70047 0.03615 0.0
H1173 H 0.01495 0.58108 0.0313 0.0
H1174 H 0.0999 0.62504 0.01711 0.0
H1175 H 0.05594 0.6582 0.04098 0.0
C1176 C 0.09019 0.69214 0.04564 0.0
C1177 C 0.11566 0.70454 0.04463 0.0
C1178 C 0.08124 0.61535 0.02017 0.0
C1179 C 0.08627 0.65492 0.03296 0.0
C1180 C 0.06683 0.58971 0.01643 0.0
C1181 C 0.04272 0.57673 0.0205 0.0
C1182 C 0.07137 0.62803 0.02795 0.0
C1183 C 0.03349 0.59021 0.02804 0.0
C1184 C 0.07549 0.66744 0.03983 0.0
C1185 C 0.12561 0.69168 0.03714 0.0
N1186 N 0.04783 0.61503 0.03154 0.0
N1187 N 0.11093 0.66749 0.0317 0.0
H1188 H 0.29887 0.42375 0.03328 0.0
H1189 H 0.44475 0.48802 0.05069 0.0
H1190 H 0.33711 0.44527 0.07782 0.0
H1191 H 0.40932 0.47917 0.00635 0.0
H1192 H 0.40508 0.47184 0.06061 0.0
H1193 H 0.33863 0.44271 0.02294 0.0
C1194 C 0.31559 0.43246 0.0409 0.0
C1195 C 0.31458 0.43289 0.05648 0.0
C1196 C 0.40591 0.47358 0.04872 0.0
C1197 C 0.3601 0.45447 0.04468 0.0
C1198 C 0.42858 0.48286 0.04305 0.0
C1199 C 0.43029 0.48485 0.02766 0.0
C1200 C 0.38461 0.46593 0.03895 0.0
C1201 C 0.40879 0.47805 0.01829 0.0
C1202 C 0.33826 0.44326 0.03497 0.0
C1203 C 0.33687 0.4441 0.06576 0.0
N1204 N 0.38672 0.46862 0.02407 0.0
N1205 N 0.35866 0.45442 0.05972 0.0
H1206 H 0.62386 0.93195 0.04641 0.0
H1207 H 0.49758 0.91946 0.01151 0.0
H1208 H 0.55839 0.86134 0.03318 0.0
H1209 H 0.56568 0.98867 0.02244 0.0
H1210 H 0.51981 0.89715 0.01714 0.0
H1211 H 0.60321 0.95271 0.03558 0.0
C1212 C 0.60515 0.92085 0.04116 0.0
C1213 C 0.59274 0.89497 0.04077 0.0
C1214 C 0.52986 0.91722 0.01815 0.0
C1215 C 0.56885 0.91848 0.02841 0.0
C1216 C 0.5172 0.9299 0.01492 0.0
C1217 C 0.52974 0.95587 0.01681 0.0
C1218 C 0.55514 0.93076 0.0232 0.0
C1219 C 0.55516 0.9686 0.02117 0.0
C1220 C 0.59336 0.93265 0.03492 0.0
C1221 C 0.56862 0.88137 0.03364 0.0
N1222 N 0.56694 0.95594 0.02431 0.0
N1223 N 0.55733 0.89331 0.02787 0.0
H1224 H 0.97855 0.19024 0.37737 0.0
H1225 H 0.08846 0.31878 0.35647 0.0
H1226 H 0.98381 0.26128 0.38714 0.0
H1227 H 0.08903 0.25003 0.35032 0.0
H1228 H 0.04778 0.2967 0.36513 0.0
H1229 H 0.01697 0.21062 0.36556 0.0
C1230 C 0.98777 0.21014 0.37695 0.0
C1231 C 0.97801 0.22413 0.38324 0.0
C1232 C 0.05663 0.2863 0.36186 0.0
C1233 C 0.02189 0.24751 0.3697 0.0
C1234 C 0.07984 0.29889 0.35687 0.0
C1235 C 0.09215 0.28619 0.35283 0.0
C1236 C 0.04558 0.26074 0.363 0.0
C1237 C 0.08007 0.26043 0.35332 0.0
C1238 C 0.0097 0.22174 0.37024 0.0
C1239 C 0.99081 0.24985 0.38256 0.0
N1240 N 0.05747 0.24853 0.35851 0.0
N1241 N 0.01203 0.26068 0.37588 0.0
H1242 H 0.79063 0.78876 0.41297 0.0
H1243 H 0.71751 0.79776 0.33972 0.0
H1244 H 0.78372 0.75097 0.36973 0.0
H1245 H 0.72007 0.83066 0.3838 0.0
H1246 H 0.74363 0.78236 0.35015 0.0
H1247 H 0.76608 0.80555 0.40219 0.0
C1248 C 0.78375 0.78379 0.40123 0.0
C1249 C 0.78914 0.7683 0.39227 0.0
C1250 C 0.73854 0.79303 0.35752 0.0
C1251 C 0.76131 0.78786 0.37977 0.0
C1252 C 0.72369 0.80192 0.35157 0.0
C1253 C 0.71648 0.81547 0.36091 0.0
C1254 C 0.7463 0.79776 0.37292 0.0
C1255 C 0.72504 0.82021 0.37618 0.0
C1256 C 0.76988 0.79356 0.39505 0.0
C1257 C 0.78018 0.76299 0.37704 0.0
N1258 N 0.73944 0.81132 0.3817 0.0
N1259 N 0.76669 0.77273 0.37127 0.0
H1260 H 0.27403 0.04207 0.35858 0.0
H1261 H 0.17784 0.90446 0.37653 0.0
H1262 H 0.23323 0.0248 0.39723 0.0
H1263 H 0.21247 0.92009 0.33545 0.0
H1264 H 0.19787 0.94887 0.38396 0.0
H1265 H 0.2515 0.99778 0.34942 0.0
C1266 C 0.26023 0.02896 0.36506 0.0
C1267 C 0.25568 0.03698 0.37877 0.0
C1268 C 0.20108 0.94264 0.37329 0.0
C1269 C 0.22994 0.98658 0.36844 0.0
C1270 C 0.18966 0.91725 0.36907 0.0
C1271 C 0.19352 0.90857 0.35538 0.0
C1272 C 0.21672 0.95953 0.36384 0.0
C1273 C 0.20891 0.92601 0.3461 0.0
C1274 C 0.24744 0.00374 0.35987 0.0
C1275 C 0.23766 0.01932 0.38676 0.0
N1276 N 0.22009 0.95069 0.35054 0.0
N1277 N 0.22553 0.995 0.38151 0.0
H1278 H 0.54806 0.62484 0.32904 0.0
H1279 H 0.61532 0.76459 0.30694 0.0
H1280 H 0.55084 0.64489 0.28376 0.0
H1281 H 0.61654 0.74631 0.35247 0.0
H1282 H 0.59075 0.72054 0.29851 0.0
H1283 H 0.57238 0.669 0.33813 0.0
C1284 C 0.55378 0.6385 0.32102 0.0
C1285 C 0.54752 0.63112 0.3056 0.0
C1286 C 0.59635 0.72612 0.31036 0.0
C1287 C 0.57528 0.68159 0.3159 0.0
C1288 C 0.61036 0.75133 0.31519 0.0
C1289 C 0.61805 0.75922 0.33045 0.0
C1290 C 0.58989 0.70854 0.32083 0.0
C1291 C 0.61103 0.7411 0.3406 0.0
C1292 C 0.56771 0.66368 0.32621 0.0
C1293 C 0.55558 0.64963 0.29572 0.0
N1294 N 0.59737 0.7166 0.3356 0.0
N1295 N 0.56896 0.67392 0.30103 0.0
H1296 H 0.35046 0.87336 0.31167 0.0
H1297 H 0.22195 0.86834 0.31017 0.0
H1298 H 0.33569 0.92512 0.28965 0.0
H1299 H 0.24767 0.84123 0.34612 0.0
H1300 H 0.26228 0.88584 0.30078 0.0
H1301 H 0.31179 0.85821 0.32299 0.0
C1302 C 0.33928 0.88178 0.30935 0.0
C1303 C 0.34637 0.90057 0.29965 0.0
C1304 C 0.25914 0.87604 0.31071 0.0
C1305 C 0.30189 0.88288 0.31234 0.0
C1306 C 0.2361 0.86588 0.31599 0.0
C1307 C 0.23155 0.85316 0.32882 0.0
C1308 C 0.27762 0.87301 0.31813 0.0
C1309 C 0.25057 0.85089 0.33615 0.0
C1310 C 0.31717 0.87302 0.31578 0.0
C1311 C 0.33081 0.91035 0.29683 0.0
N1312 N 0.27281 0.86051 0.33059 0.0
N1313 N 0.30923 0.90127 0.30306 0.0
H1314 H 0.09291 0.46636 0.32723 0.0
H1315 H 0.10987 0.34946 0.31387 0.0
H1316 H 0.03882 0.39729 0.30226 0.0
H1317 H 0.15246 0.40625 0.35026 0.0
H1318 H 0.08554 0.36894 0.30883 0.0
H1319 H 0.11568 0.44621 0.336 0.0
C1320 C 0.08556 0.44685 0.32381 0.0
C1321 C 0.06409 0.43356 0.31379 0.0
C1322 C 0.1001 0.37717 0.31798 0.0
C1323 C 0.09034 0.41072 0.32351 0.0
C1324 C 0.11419 0.36612 0.32084 0.0
C1325 C 0.13327 0.37618 0.33257 0.0
C1326 C 0.10509 0.39868 0.32678 0.0
C1327 C 0.13798 0.39793 0.34108 0.0
C1328 C 0.09867 0.43545 0.32875 0.0
C1329 C 0.05558 0.40842 0.30966 0.0
N1330 N 0.12397 0.40856 0.33799 0.0
N1331 N 0.06887 0.39793 0.31439 0.0
H1332 H 0.35331 0.40814 0.30862 0.0
H1333 H 0.22128 0.394 0.31155 0.0
H1334 H 0.33905 0.46584 0.29599 0.0
H1335 H 0.25134 0.36803 0.34591 0.0
H1336 H 0.26188 0.41538 0.30208 0.0
H1337 H 0.31306 0.38747 0.3188 0.0
C1338 C 0.3416 0.4163 0.30794 0.0
C1339 C 0.34931 0.43862 0.3015 0.0
C1340 C 0.25954 0.40509 0.31174 0.0
C1341 C 0.30354 0.41515 0.31281 0.0
C1342 C 0.23646 0.39291 0.31713 0.0
C1343 C 0.23308 0.37948 0.32961 0.0
C1344 C 0.27912 0.40313 0.3186 0.0
C1345 C 0.2533 0.3785 0.33638 0.0
C1346 C 0.31882 0.40465 0.31378 0.0
C1347 C 0.33365 0.44863 0.3009 0.0
N1348 N 0.27542 0.38994 0.33068 0.0
N1349 N 0.31138 0.43671 0.30636 0.0
H1350 H 0.50864 0.8709 0.31092 0.0
H1351 H 0.6369 0.87396 0.31045 0.0
H1352 H 0.56915 0.92184 0.28775 0.0
H1353 H 0.5847 0.8344 0.34175 0.0
H1354 H 0.61067 0.88952 0.30116 0.0
H1355 H 0.53489 0.85589 0.32184 0.0
C1356 C 0.52749 0.87911 0.30822 0.0
C1357 C 0.53665 0.8976 0.2983 0.0
C1358 C 0.60488 0.87746 0.31007 0.0
C1359 C 0.56656 0.88017 0.31057 0.0
C1360 C 0.61983 0.8684 0.31537 0.0
C1361 C 0.61301 0.85274 0.32692 0.0
C1362 C 0.58272 0.87076 0.31623 0.0
C1363 C 0.59067 0.84639 0.33282 0.0
C1364 C 0.5424 0.87042 0.31441 0.0
C1365 C 0.56111 0.90726 0.29508 0.0
N1366 N 0.57625 0.85538 0.32737 0.0
N1367 N 0.57514 0.89836 0.30114 0.0
H1368 H 0.03955 0.63368 0.30761 0.0
H1369 H 0.16294 0.75435 0.3448 0.0
H1370 H 0.1057 0.63248 0.32203 0.0
H1371 H 0.09749 0.75392 0.32658 0.0
H1372 H 0.14134 0.70901 0.33937 0.0
H1373 H 0.05945 0.67713 0.31753 0.0
C1374 C 0.05826 0.64259 0.31292 0.0
C1375 C 0.07109 0.62959 0.31385 0.0
C1376 C 0.13176 0.71892 0.33665 0.0
C1377 C 0.09411 0.67938 0.32521 0.0
C1378 C 0.14406 0.74475 0.33973 0.0
C1379 C 0.13213 0.75795 0.33592 0.0
C1380 C 0.10738 0.70638 0.32982 0.0
C1381 C 0.1076 0.7446 0.32948 0.0
C1382 C 0.06963 0.66738 0.31862 0.0
C1383 C 0.09515 0.64187 0.32111 0.0
N1384 N 0.09613 0.71964 0.3266 0.0
N1385 N 0.10601 0.6662 0.32639 0.0
H1386 H 0.74779 0.03334 0.38577 0.0
H1387 H 0.74123 0.91279 0.34434 0.0
H1388 H 0.81119 0.0332 0.36994 0.0
H1389 H 0.68158 0.91318 0.36555 0.0
H1390 H 0.76629 0.95775 0.35104 0.0
H1391 H 0.72222 0.9901 0.37564 0.0
C1392 C 0.75632 0.02421 0.38013 0.0
C1393 C 0.7817 0.03683 0.37886 0.0
C1394 C 0.74768 0.94792 0.35416 0.0
C1395 C 0.75252 0.98725 0.36716 0.0
C1396 C 0.73339 0.92229 0.35036 0.0
C1397 C 0.70935 0.90915 0.35451 0.0
C1398 C 0.73776 0.9604 0.36209 0.0
C1399 C 0.70007 0.92243 0.36222 0.0
C1400 C 0.74171 0.99952 0.3743 0.0
C1401 C 0.79167 0.02421 0.37113 0.0
N1402 N 0.71429 0.94724 0.36577 0.0
N1403 N 0.77708 3e-05 0.36567 0.0
H1404 H 0.98522 0.73655 0.39279 0.0
H1405 H 0.09006 0.84434 0.35149 0.0
H1406 H 0.9851 0.80397 0.3844 0.0
H1407 H 0.09385 0.78191 0.36692 0.0
H1408 H 0.04971 0.82851 0.36127 0.0
H1409 H 0.02357 0.75166 0.38122 0.0
C1410 C 0.99335 0.7546 0.38858 0.0
C1411 C 0.98201 0.76905 0.38961 0.0
C1412 C 0.05942 0.81831 0.36244 0.0
C1413 C 0.02584 0.78644 0.37622 0.0
C1414 C 0.08232 0.82728 0.35683 0.0
C1415 C 0.09534 0.81456 0.35858 0.0
C1416 C 0.04953 0.79634 0.3696 0.0
C1417 C 0.0846 0.79254 0.36557 0.0
C1418 C 0.01518 0.76319 0.3819 0.0
C1419 C 0.99312 0.79212 0.3837 0.0
N1420 N 0.06238 0.78416 0.37081 0.0
N1421 N 0.01448 0.80015 0.37728 0.0
H1422 H 0.24679 0.23422 0.40155 0.0
H1423 H 0.20666 0.28882 0.33393 0.0
H1424 H 0.27056 0.23511 0.35749 0.0
H1425 H 0.18077 0.28403 0.37766 0.0
H1426 H 0.22981 0.26888 0.34206 0.0
H1427 H 0.22272 0.25272 0.39281 0.0
C1428 C 0.24717 0.2386 0.39005 0.0
C1429 C 0.26091 0.23336 0.38027 0.0
C1430 C 0.21895 0.27205 0.34984 0.0
C1431 C 0.23297 0.25423 0.37008 0.0
C1432 C 0.20564 0.28338 0.34521 0.0
C1433 C 0.19176 0.28816 0.35516 0.0
C1434 C 0.21838 0.26544 0.36452 0.0
C1435 C 0.19125 0.28078 0.36963 0.0
C1436 C 0.23323 0.24897 0.38503 0.0
C1437 C 0.26019 0.23883 0.36539 0.0
N1438 N 0.20443 0.26987 0.37388 0.0
N1439 N 0.24649 0.24906 0.36074 0.0
H1440 H 0.66321 0.56714 0.73985 0.0
H1441 H 0.73896 0.61224 0.6686 0.0
H1442 H 0.62824 0.56106 0.69576 0.0
H1443 H 0.77205 0.63135 0.71435 0.0
H1444 H 0.69814 0.58985 0.67771 0.0
H1445 H 0.70316 0.58766 0.73011 0.0
C1446 C 0.6639 0.57035 0.72814 0.0
C1447 C 0.64221 0.56251 0.71867 0.0
C1448 C 0.71438 0.59889 0.68572 0.0
C1449 C 0.68818 0.58565 0.70731 0.0
C1450 C 0.73767 0.61152 0.68053 0.0
C1451 C 0.75896 0.62376 0.69073 0.0
C1452 C 0.71244 0.59827 0.70119 0.0
C1453 C 0.75617 0.62239 0.70607 0.0
C1454 C 0.68678 0.58192 0.72255 0.0
C1455 C 0.64439 0.56661 0.70348 0.0
N1456 N 0.73341 0.60989 0.7108 0.0
N1457 N 0.66696 0.5779 0.69827 0.0
H1458 H 0.45821 0.08905 0.70034 0.0
H1459 H 0.37817 0.15296 0.71681 0.0
H1460 H 0.45506 0.11821 0.7443 0.0
H1461 H 0.39505 0.1419 0.67226 0.0
H1462 H 0.40542 0.13883 0.72683 0.0
H1463 H 0.43412 0.10658 0.68954 0.0
C1464 C 0.45255 0.09918 0.70773 0.0
C1465 C 0.45857 0.10199 0.7233 0.0
C1466 C 0.40336 0.13961 0.71486 0.0
C1467 C 0.43088 0.12189 0.71099 0.0
C1468 C 0.38775 0.14764 0.70913 0.0
C1469 C 0.38429 0.14848 0.69368 0.0
C1470 C 0.41541 0.13196 0.70508 0.0
C1471 C 0.39733 0.1416 0.68425 0.0
C1472 C 0.43879 0.10915 0.70154 0.0
C1473 C 0.45046 0.11507 0.7323 0.0
N1474 N 0.41217 0.13333 0.6901 0.0
N1475 N 0.43701 0.12443 0.72602 0.0
H1476 H 0.95429 0.36707 0.71436 0.0
H1477 H 0.82938 0.24584 0.67923 0.0
H1478 H 0.88688 0.36736 0.70235 0.0
H1479 H 0.89607 0.24635 0.69471 0.0
H1480 H 0.85079 0.291 0.68534 0.0
H1481 H 0.93399 0.32337 0.70476 0.0
C1482 C 0.93522 0.35791 0.70966 0.0
C1483 C 0.9222 0.37078 0.70924 0.0
C1484 C 0.86071 0.28118 0.68732 0.0
C1485 C 0.89876 0.32074 0.69826 0.0
C1486 C 0.84851 0.25544 0.68383 0.0
C1487 C 0.86087 0.2423 0.68662 0.0
C1488 C 0.88544 0.29375 0.69352 0.0
C1489 C 0.88568 0.25565 0.69257 0.0
C1490 C 0.92363 0.33299 0.70414 0.0
C1491 C 0.89763 0.35814 0.7028 0.0
N1492 N 0.89709 0.28057 0.69583 0.0
N1493 N 0.88663 0.33375 0.69767 0.0
H1494 H 0.21255 0.95736 0.6639 0.0
H1495 H 0.29336 0.09515 0.64226 0.0
H1496 H 0.21515 0.9775 0.61862 0.0
H1497 H 0.26882 0.08077 0.68621 0.0
H1498 H 0.26776 0.05107 0.63398 0.0
H1499 H 0.23611 0.00163 0.67303 0.0
C1500 C 0.218 0.97102 0.65589 0.0
C1501 C 0.2121 0.96366 0.64044 0.0
C1502 C 0.26785 0.05749 0.64543 0.0
C1503 C 0.23904 0.01408 0.65079 0.0
C1504 C 0.2825 0.08261 0.65016 0.0
C1505 C 0.2831 0.09146 0.6649 0.0
C1506 C 0.25407 0.04096 0.65561 0.0
C1507 C 0.26862 0.07456 0.6747 0.0
C1508 C 0.23141 0.99623 0.66111 0.0
C1509 C 0.21978 0.98219 0.63058 0.0
N1510 N 0.25482 0.04994 0.66992 0.0
N1511 N 0.2329 0.00646 0.63592 0.0
H1512 H 0.00681 0.26102 0.62519 0.0
H1513 H 0.90895 0.16334 0.67507 0.0
H1514 H 0.01552 0.20302 0.64358 0.0
H1515 H 0.89881 0.21626 0.65111 0.0
H1516 H 0.9498 0.17952 0.66589 0.0
H1517 H 0.96872 0.24675 0.63687 0.0
C1518 C 0.00066 0.24522 0.63166 0.0
C1519 C 0.01428 0.23309 0.63329 0.0
C1520 C 0.93855 0.18754 0.66272 0.0
C1521 C 0.97063 0.21665 0.64686 0.0
C1522 C 0.91532 0.17836 0.66796 0.0
C1523 C 0.90033 0.18821 0.66369 0.0
C1524 C 0.94677 0.20685 0.65332 0.0
C1525 C 0.90949 0.20773 0.65451 0.0
C1526 C 0.97894 0.23712 0.6384 0.0
C1527 C 0.00566 0.21303 0.6421 0.0
N1528 N 0.93201 0.21633 0.64965 0.0
N1529 N 0.9843 0.20533 0.6485 0.0
H1530 H 0.7065 0.72695 0.63284 0.0
H1531 H 0.83424 0.75438 0.67557 0.0
H1532 H 0.76524 0.79932 0.65121 0.0
H1533 H 0.77881 0.68134 0.65618 0.0
H1534 H 0.80958 0.77115 0.66492 0.0
H1535 H 0.73244 0.70934 0.64031 0.0
C1536 C 0.72477 0.73909 0.63848 0.0
C1537 C 0.73363 0.76462 0.64154 0.0
C1538 C 0.80276 0.75145 0.66291 0.0
C1539 C 0.76332 0.74475 0.64992 0.0
C1540 C 0.81687 0.74199 0.66898 0.0
C1541 C 0.80827 0.71663 0.66686 0.0
C1542 C 0.77967 0.73528 0.65493 0.0
C1543 C 0.78593 0.70114 0.65802 0.0
C1544 C 0.73955 0.72906 0.64269 0.0
C1545 C 0.75738 0.77948 0.6489 0.0
N1546 N 0.7721 0.71068 0.65253 0.0
N1547 N 0.77134 0.76933 0.65281 0.0
H1548 H 0.00561 0.73414 0.6236 0.0
H1549 H 0.9157 0.74087 0.68075 0.0
H1550 H 0.02381 0.80066 0.65157 0.0
H1551 H 0.8933 0.68142 0.64569 0.0
H1552 H 0.9569 0.7616 0.67217 0.0
H1553 H 0.96579 0.71298 0.63363 0.0
C1554 C 0.00125 0.74434 0.63182 0.0
C1555 C 0.01811 0.76932 0.63664 0.0
C1556 C 0.9429 0.74402 0.66638 0.0
C1557 C 0.97252 0.74504 0.64833 0.0
C1558 C 0.91938 0.73216 0.67128 0.0
C1559 C 0.90087 0.70941 0.6639 0.0
C1560 C 0.94801 0.73294 0.65412 0.0
C1561 C 0.90681 0.69901 0.65169 0.0
C1562 C 0.97852 0.7322 0.6376 0.0
C1563 C 0.01156 0.78135 0.64761 0.0
N1564 N 0.9298 0.71082 0.64722 0.0
N1565 N 0.98927 0.76914 0.65304 0.0
H1566 H 0.20373 0.20964 0.60875 0.0
H1567 H 0.28039 0.20509 0.6817 0.0
H1568 H 0.21298 0.25024 0.65135 0.0
H1569 H 0.27625 0.16993 0.63804 0.0
H1570 H 0.25412 0.22016 0.67113 0.0
H1571 H 0.22909 0.19376 0.61957 0.0
C1572 C 0.2113 0.21542 0.62035 0.0
C1573 C 0.20633 0.23143 0.62913 0.0
C1574 C 0.2589 0.20909 0.66387 0.0
C1575 C 0.23511 0.21295 0.64167 0.0
C1576 C 0.27385 0.20039 0.66991 0.0
C1577 C 0.2806 0.18622 0.66074 0.0
C1578 C 0.25054 0.20354 0.64857 0.0
C1579 C 0.27161 0.18084 0.64553 0.0
C1580 C 0.22564 0.20618 0.62655 0.0
C1581 C 0.21617 0.2378 0.6442 0.0
N1582 N 0.25707 0.18952 0.63993 0.0
N1583 N 0.23011 0.22855 0.64999 0.0
H1584 H 0.74552 0.97531 0.62047 0.0
H1585 H 0.79515 0.08142 0.6888 0.0
H1586 H 0.73715 0.9589 0.66643 0.0
H1587 H 0.80779 0.0949 0.64273 0.0
H1588 H 0.77371 0.03671 0.68128 0.0
H1589 H 0.76755 0.0193 0.62882 0.0
C1590 C 0.74809 0.98095 0.63234 0.0
C1591 C 0.7392 0.9633 0.64274 0.0
C1592 C 0.7813 0.04949 0.67286 0.0
C1593 C 0.76504 0.01403 0.65247 0.0
C1594 C 0.79357 0.07503 0.67713 0.0
C1595 C 0.80327 0.092 0.66637 0.0
C1596 C 0.77864 0.04091 0.65772 0.0
C1597 C 0.80064 0.0826 0.65143 0.0
C1598 C 0.76092 0.00617 0.63713 0.0
C1599 C 0.74374 0.97185 0.65803 0.0
N1600 N 0.78852 0.05776 0.64756 0.0
N1601 N 0.7563 0.99665 0.66244 0.0
H1602 H 0.4411 0.37481 0.69169 0.0
H1603 H 0.39027 0.23533 0.71215 0.0
H1604 H 0.45121 0.35441 0.73552 0.0
H1605 H 0.37392 0.25246 0.66854 0.0
H1606 H 0.41495 0.27944 0.72012 0.0
H1607 H 0.41833 0.33063 0.68226 0.0
C1608 C 0.43855 0.36106 0.69931 0.0
C1609 C 0.44783 0.36828 0.71446 0.0
C1610 C 0.40602 0.27364 0.70878 0.0
C1611 C 0.42204 0.31792 0.70378 0.0
C1612 C 0.39191 0.24838 0.70421 0.0
C1613 C 0.37986 0.24013 0.68968 0.0
C1614 C 0.40811 0.29096 0.6988 0.0
C1615 C 0.38289 0.25799 0.67987 0.0
C1616 C 0.42554 0.33589 0.69394 0.0
C1617 C 0.44397 0.34972 0.72384 0.0
N1618 N 0.39662 0.28261 0.68463 0.0
N1619 N 0.43142 0.3255 0.71836 0.0
H1620 H 0.63276 0.07948 0.70256 0.0
H1621 H 0.77959 0.16264 0.71645 0.0
H1622 H 0.6728 0.11646 0.7455 0.0
H1623 H 0.7402 0.12819 0.67296 0.0
H1624 H 0.74048 0.14565 0.7272 0.0
H1625 H 0.67181 0.0965 0.69149 0.0
C1626 C 0.64976 0.09116 0.70967 0.0
C1627 C 0.64949 0.09658 0.72499 0.0
C1628 C 0.74035 0.14187 0.71529 0.0
C1629 C 0.69423 0.11604 0.71239 0.0
C1630 C 0.76272 0.15164 0.70912 0.0
C1631 C 0.76323 0.14686 0.69375 0.0
C1632 C 0.71825 0.12712 0.70607 0.0
C1633 C 0.74072 0.13242 0.68485 0.0
C1634 C 0.67204 0.10082 0.70334 0.0
C1635 C 0.6721 0.11151 0.73369 0.0
N1636 N 0.71914 0.12299 0.69115 0.0
N1637 N 0.69352 0.12077 0.72726 0.0
H1638 H 0.92854 0.56035 0.6877 0.0
H1639 H 0.85312 0.62673 0.71164 0.0
H1640 H 0.92037 0.57861 0.73323 0.0
H1641 H 0.85944 0.61049 0.66536 0.0
H1642 H 0.87712 0.60784 0.71925 0.0
H1643 H 0.90353 0.57819 0.67883 0.0
C1644 C 0.92165 0.56821 0.69583 0.0
C1645 C 0.92665 0.56796 0.71127 0.0
C1646 C 0.87319 0.60818 0.70741 0.0
C1647 C 0.89806 0.5883 0.70118 0.0
C1648 C 0.85933 0.61891 0.70303 0.0
C1649 C 0.85429 0.62028 0.68783 0.0
C1650 C 0.88223 0.59867 0.69654 0.0
C1651 C 0.86278 0.60969 0.67721 0.0
C1652 C 0.9074 0.57838 0.69075 0.0
C1653 C 0.91747 0.57869 0.72126 0.0
N1654 N 0.87653 0.59944 0.68178 0.0
N1655 N 0.9036 0.58828 0.71604 0.0
H1656 H 0.42822 0.93487 0.17778 0.0
H1657 H 0.51534 0.03601 0.12548 0.0
H1658 H 0.49936 0.99797 0.19323 0.0
H1659 H 0.4505 0.96729 0.10783 0.0
H1660 H 0.50671 0.02435 0.1507 0.0
H1661 H 0.43343 0.94816 0.15244 0.0
C1662 C 0.44485 0.95159 0.17586 0.0
C1663 C 0.46346 0.96526 0.18762 0.0
C1664 C 0.49428 0.01182 0.14133 0.0
C1665 C 0.46952 0.98056 0.15871 0.0
C1666 C 0.49906 0.0186 0.12687 0.0
C1667 C 0.48366 0.00263 0.11441 0.0
C1668 C 0.47396 0.98885 0.14347 0.0
C1669 C 0.4631 0.98006 0.11705 0.0
C1670 C 0.44785 0.9591 0.16139 0.0
C1671 C 0.48471 0.98667 0.18447 0.0
N1672 N 0.45889 0.97381 0.13127 0.0
N1673 N 0.48713 0.99364 0.17036 0.0
H1674 H 0.04475 0.52666 0.19428 0.0
H1675 H 0.95678 0.45856 0.1189 0.0
H1676 H 0.97452 0.45962 0.19329 0.0
H1677 H 0.03371 0.51358 0.11972 0.0
H1678 H 0.96256 0.45848 0.14599 0.0
H1679 H 0.04053 0.52267 0.16693 0.0
C1680 C 0.0284 0.51112 0.18829 0.0
C1681 C 0.00988 0.49354 0.19608 0.0
C1682 C 0.97821 0.47042 0.14021 0.0
C1683 C 0.00493 0.48879 0.16472 0.0
C1684 C 0.97498 0.47037 0.12469 0.0
C1685 C 0.99473 0.48626 0.11692 0.0
C1686 C 0.0013 0.48664 0.1481 0.0
C1687 C 0.01778 0.5014 0.1252 0.0
C1688 C 0.02608 0.50874 0.17268 0.0
C1689 C 0.98928 0.47354 0.18773 0.0
N1690 N 0.02036 0.50137 0.14031 0.0
N1691 N 0.98725 0.47182 0.17251 0.0
H1692 H 0.47112 0.4584 0.1913 0.0
H1693 H 0.48159 0.51927 0.11398 0.0
H1694 H 0.47224 0.52759 0.18766 0.0
H1695 H 0.50307 0.46443 0.12122 0.0
H1696 H 0.47275 0.51916 0.14008 0.0
H1697 H 0.47684 0.45649 0.1646 0.0
C1698 C 0.47231 0.47304 0.18485 0.0
C1699 C 0.47135 0.49325 0.19172 0.0
C1700 C 0.47935 0.50713 0.13591 0.0
C1701 C 0.47789 0.49122 0.16121 0.0
C1702 C 0.48456 0.50727 0.12101 0.0
C1703 C 0.49319 0.49187 0.11526 0.0
C1704 C 0.48257 0.49134 0.14519 0.0
C1705 C 0.49611 0.47635 0.12496 0.0
C1706 C 0.47575 0.47204 0.16965 0.0
C1707 C 0.47318 0.51182 0.18284 0.0
N1708 N 0.49081 0.47648 0.1394 0.0
N1709 N 0.47634 0.51035 0.16807 0.0
H1710 H 0.01728 0.49806 0.82692 0.0
H1711 H 0.96761 0.50861 0.90541 0.0
H1712 H 0.9572 0.51243 0.83033 0.0
H1713 H 0.03555 0.50859 0.90085 0.0
H1714 H 0.96149 0.50757 0.87803 0.0
H1715 H 0.02243 0.49959 0.8541 0.0
C1716 C 0.00511 0.50149 0.8334 0.0
C1717 C 0.98671 0.50501 0.8263 0.0
C1718 C 0.97775 0.50787 0.88307 0.0
C1719 C 0.99256 0.50689 0.8576 0.0
C1720 C 0.98117 0.50831 0.89867 0.0
C1721 C 0.00222 0.50886 0.90546 0.0
C1722 C 0.99535 0.50766 0.87422 0.0
C1723 C 0.01926 0.50858 0.89617 0.0
C1724 C 0.00813 0.50249 0.84895 0.0
C1725 C 0.97174 0.50979 0.83533 0.0
N1726 N 0.01542 0.50794 0.8811 0.0
N1727 N 0.97489 0.51045 0.85052 0.0
H1728 H 0.52544 0.47427 0.83357 0.0
H1729 H 0.49274 0.53831 0.90066 0.0
H1730 H 0.5203 0.54015 0.82945 0.0
H1731 H 0.51841 0.48643 0.90694 0.0
H1732 H 0.50165 0.53886 0.87456 0.0
H1733 H 0.52135 0.47756 0.86032 0.0
C1734 C 0.52347 0.48946 0.83832 0.0
C1735 C 0.52308 0.50689 0.82925 0.0
C1736 C 0.50548 0.52749 0.8817 0.0
C1737 C 0.5183 0.51076 0.85993 0.0
C1738 C 0.50053 0.52726 0.89666 0.0
C1739 C 0.50464 0.51217 0.90612 0.0
C1740 C 0.51443 0.51237 0.87603 0.0
C1741 C 0.5144 0.49796 0.90009 0.0
C1742 C 0.52126 0.49141 0.85362 0.0
C1743 C 0.5208 0.52638 0.83605 0.0
N1744 N 0.51876 0.49828 0.88546 0.0
N1745 N 0.51825 0.52766 0.85095 0.0
H1746 H 0.56003 0.07066 0.84546 0.0
H1747 H 0.48379 0.96323 0.89738 0.0
H1748 H 0.49732 0.99967 0.82902 0.0
H1749 H 0.53267 0.03925 0.91529 0.0
H1750 H 0.49308 0.97527 0.87225 0.0
H1751 H 0.55438 0.05852 0.87108 0.0
C1752 C 0.54518 0.05248 0.84725 0.0
C1753 C 0.529 0.03618 0.83513 0.0
C1754 C 0.50182 0.98934 0.88167 0.0
C1755 C 0.52253 0.02218 0.86429 0.0
C1756 C 0.49668 0.98244 0.89606 0.0
C1757 C 0.50742 0.00023 0.90853 0.0
C1758 C 0.51788 0.01425 0.8796 0.0
C1759 C 0.52371 0.02494 0.90602 0.0
C1760 C 0.5419 0.04562 0.86185 0.0
C1761 C 0.51 0.01291 0.83806 0.0
N1762 N 0.52844 0.03123 0.89184 0.0
N1763 N 0.50733 0.0066 0.85231 0.0
H1764 H 0.09374 0.27394 0.51143 0.0
H1765 H 0.19037 0.36309 0.45783 0.0
H1766 H 0.17099 0.32374 0.525 0.0
H1767 H 0.11769 0.30408 0.44078 0.0
H1768 H 0.18176 0.35088 0.48295 0.0
H1769 H 0.10034 0.28671 0.48597 0.0
C1770 C 0.11203 0.28764 0.50909 0.0
C1771 C 0.13188 0.29765 0.52035 0.0
C1772 C 0.16762 0.34056 0.47376 0.0
C1773 C 0.13955 0.31226 0.49132 0.0
C1774 C 0.17248 0.34765 0.45938 0.0
C1775 C 0.1547 0.3347 0.44714 0.0
C1776 C 0.14474 0.32033 0.47606 0.0
C1777 C 0.132 0.3145 0.44987 0.0
C1778 C 0.11581 0.29478 0.49455 0.0
C1779 C 0.15521 0.31521 0.51665 0.0
N1780 N 0.12763 0.30796 0.46405 0.0
N1781 N 0.15836 0.32192 0.50251 0.0
H1782 H 0.71162 0.85595 0.52733 0.0
H1783 H 0.6206 0.79499 0.45251 0.0
H1784 H 0.63794 0.79388 0.52648 0.0
H1785 H 0.69936 0.84087 0.45244 0.0
H1786 H 0.62627 0.79506 0.47956 0.0
H1787 H 0.70717 0.85202 0.49993 0.0
C1788 C 0.69449 0.84151 0.52135 0.0
C1789 C 0.67506 0.82529 0.52916 0.0
C1790 C 0.64233 0.80494 0.47361 0.0
C1791 C 0.66982 0.82069 0.49784 0.0
C1792 C 0.63914 0.80478 0.4581 0.0
C1793 C 0.65951 0.81802 0.45006 0.0
C1794 C 0.66603 0.81865 0.48125 0.0
C1795 C 0.68302 0.83079 0.45811 0.0
C1796 C 0.69202 0.83917 0.50573 0.0
C1797 C 0.6534 0.80669 0.52088 0.0
N1798 N 0.68561 0.83095 0.47325 0.0
N1799 N 0.65127 0.80503 0.50567 0.0
H1800 H 0.10256 0.8082 0.51802 0.0
H1801 H 0.19693 0.85994 0.45622 0.0
H1802 H 0.1816 0.84698 0.52831 0.0
H1803 H 0.12323 0.79812 0.44539 0.0
H1804 H 0.18987 0.85941 0.48264 0.0
H1805 H 0.10819 0.80714 0.49131 0.0
C1806 C 0.12107 0.8163 0.51474 0.0
C1807 C 0.14163 0.82794 0.52556 0.0
C1808 C 0.17522 0.84595 0.47449 0.0
C1809 C 0.14811 0.82726 0.49494 0.0
C1810 C 0.17916 0.84639 0.45938 0.0
C1811 C 0.16065 0.82906 0.44855 0.0
C1812 C 0.15248 0.82824 0.47887 0.0
C1813 C 0.13808 0.8117 0.45338 0.0
C1814 C 0.12424 0.8158 0.49947 0.0
C1815 C 0.16516 0.83837 0.52048 0.0
N1816 N 0.13457 0.81179 0.46818 0.0
N1817 N 0.16772 0.83795 0.50561 0.0
H1818 H 0.68497 0.83296 0.16114 0.0
H1819 H 0.63506 0.84415 0.23939 0.0
H1820 H 0.62489 0.84745 0.16417 0.0
H1821 H 0.7019 0.84191 0.23479 0.0
H1822 H 0.6291 0.84331 0.212 0.0
H1823 H 0.68974 0.83436 0.18827 0.0
C1824 C 0.67274 0.83642 0.16754 0.0
C1825 C 0.6544 0.83994 0.16034 0.0
C1826 C 0.64508 0.84307 0.21704 0.0
C1827 C 0.65987 0.84174 0.19161 0.0
C1828 C 0.64841 0.8434 0.23263 0.0
C1829 C 0.66913 0.84332 0.23939 0.0
C1830 C 0.66245 0.84234 0.2082 0.0
C1831 C 0.68589 0.84243 0.23011 0.0
C1832 C 0.67554 0.83734 0.18307 0.0
C1833 C 0.63937 0.84479 0.16926 0.0
N1834 N 0.68216 0.84194 0.21506 0.0
N1835 N 0.64233 0.84541 0.18445 0.0
H1836 H 0.18984 0.80597 0.16629 0.0
H1837 H 0.16397 0.87471 0.23428 0.0
H1838 H 0.19039 0.87494 0.16291 0.0
H1839 H 0.18229 0.81717 0.23955 0.0
H1840 H 0.17291 0.87505 0.20818 0.0
H1841 H 0.18584 0.80924 0.19304 0.0
C1842 C 0.18911 0.82182 0.1712 0.0
C1843 C 0.1903 0.84014 0.16234 0.0
C1844 C 0.17513 0.86248 0.2151 0.0
C1845 C 0.1857 0.84402 0.19304 0.0
C1846 C 0.17016 0.86236 0.23005 0.0
C1847 C 0.17216 0.84574 0.2392 0.0
C1848 C 0.182 0.84576 0.20915 0.0
C1849 C 0.17994 0.82994 0.23292 0.0
C1850 C 0.18696 0.82375 0.1865 0.0
C1851 C 0.18962 0.86045 0.16935 0.0
N1852 N 0.18437 0.83022 0.21831 0.0
N1853 N 0.18714 0.86175 0.18426 0.0
H1854 H 0.18706 0.3969 0.17495 0.0
H1855 H 0.19194 0.30962 0.2355 0.0
H1856 H 0.20913 0.34248 0.16576 0.0
H1857 H 0.17338 0.36664 0.24488 0.0
H1858 H 0.20025 0.32256 0.21031 0.0
H1859 H 0.18361 0.3871 0.2009 0.0
C1860 C 0.19112 0.38283 0.17838 0.0
C1861 C 0.19819 0.37035 0.16809 0.0
C1862 C 0.19452 0.33234 0.21791 0.0
C1863 C 0.19447 0.35914 0.19792 0.0
C1864 C 0.18968 0.3249 0.23228 0.0
C1865 C 0.18179 0.33695 0.24232 0.0
C1866 C 0.19129 0.35188 0.21346 0.0
C1867 C 0.17958 0.35691 0.23759 0.0
C1868 C 0.1893 0.37735 0.19324 0.0
C1869 C 0.20374 0.35266 0.17329 0.0
N1870 N 0.18411 0.3636 0.2235 0.0
N1871 N 0.2016 0.34748 0.18781 0.0
H1872 H 0.76 0.60636 0.84543 0.0
H1873 H 0.85957 0.69631 0.79366 0.0
H1874 H 0.83735 0.65421 0.85972 0.0
H1875 H 0.78712 0.63842 0.77529 0.0
H1876 H 0.84967 0.68325 0.81846 0.0
H1877 H 0.76758 0.61992 0.82017 0.0
C1878 C 0.77852 0.61976 0.84327 0.0
C1879 C 0.79813 0.62902 0.85465 0.0
C1880 C 0.83586 0.67334 0.80905 0.0
C1881 C 0.80687 0.64453 0.82593 0.0
C1882 C 0.84146 0.68093 0.79487 0.0
C1883 C 0.82413 0.66853 0.78238 0.0
C1884 C 0.81269 0.65315 0.81089 0.0
C1885 C 0.80109 0.64839 0.78462 0.0
C1886 C 0.78284 0.62736 0.82886 0.0
C1887 C 0.82176 0.64625 0.85124 0.0
N1888 N 0.79599 0.64133 0.79864 0.0
N1889 N 0.82543 0.65342 0.83724 0.0
H1890 H 0.37614 0.16111 0.8602 0.0
H1891 H 0.28829 0.14487 0.78732 0.0
H1892 H 0.30854 0.16295 0.86141 0.0
H1893 H 0.365 0.16764 0.78548 0.0
H1894 H 0.29393 0.14587 0.81443 0.0
H1895 H 0.37097 0.15833 0.83274 0.0
C1896 C 0.36016 0.1608 0.85467 0.0
C1897 C 0.34275 0.16233 0.86305 0.0
C1898 C 0.30956 0.15064 0.80812 0.0
C1899 C 0.33672 0.15907 0.83179 0.0
C1900 C 0.30631 0.14988 0.79262 0.0
C1901 C 0.32619 0.15609 0.7841 0.0
C1902 C 0.33284 0.15754 0.81526 0.0
C1903 C 0.34923 0.16287 0.79163 0.0
C1904 C 0.35732 0.15937 0.83904 0.0
C1905 C 0.32251 0.16207 0.85537 0.0
N1906 N 0.35192 0.16333 0.80681 0.0
N1907 N 0.32 0.16037 0.84019 0.0
H1908 H 0.84796 0.18233 0.86179 0.0
H1909 H 0.78936 0.1238 0.77823 0.0
H1910 H 0.76933 0.13591 0.85116 0.0
H1911 H 0.8588 0.19148 0.78929 0.0
H1912 H 0.78249 0.1231 0.80491 0.0
H1913 H 0.85314 0.18066 0.83528 0.0
C1914 C 0.8317 0.17185 0.85391 0.0
C1915 C 0.80808 0.15966 0.85883 0.0
C1916 C 0.79916 0.1381 0.80143 0.0
C1917 C 0.81409 0.15719 0.82822 0.0
C1918 C 0.80314 0.13847 0.78625 0.0
C1919 C 0.82465 0.15779 0.78151 0.0
C1920 C 0.81705 0.15691 0.81194 0.0
C1921 C 0.84183 0.17638 0.79238 0.0
C1922 C 0.83473 0.17083 0.83873 0.0
C1923 C 0.78789 0.1456 0.84797 0.0
N1924 N 0.83773 0.17539 0.80704 0.0
N1925 N 0.79134 0.14479 0.83316 0.0
H1926 H 0.34461 0.2136 0.49682 0.0
H1927 H 0.30633 0.13795 0.56891 0.0
H1928 H 0.29711 0.13425 0.49467 0.0
H1929 H 0.35462 0.2172 0.5715 0.0
H1930 H 0.30077 0.13675 0.54174 0.0
H1931 H 0.34675 0.21574 0.52414 0.0
C1932 C 0.33452 0.19663 0.50207 0.0
C1933 C 0.32078 0.17368 0.49339 0.0
C1934 C 0.31247 0.15444 0.54824 0.0
C1935 C 0.32332 0.176 0.52472 0.0
C1936 C 0.3155 0.15518 0.56379 0.0
C1937 C 0.33101 0.17773 0.57255 0.0
C1938 C 0.32503 0.1764 0.5413 0.0
C1939 C 0.34275 0.19936 0.56521 0.0
C1940 C 0.33584 0.19786 0.51768 0.0
C1941 C 0.30831 0.15231 0.50087 0.0
N1942 N 0.33958 0.19815 0.55002 0.0
N1943 N 0.30991 0.15399 0.51606 0.0
H1944 H 0.85471 0.20627 0.4954 0.0
H1945 H 0.84973 0.14999 0.57396 0.0
H1946 H 0.86112 0.14136 0.5008 0.0
H1947 H 0.82301 0.20051 0.56564 0.0
H1948 H 0.85914 0.1504 0.548 0.0
H1949 H 0.84871 0.20859 0.52204 0.0
C1950 C 0.85511 0.19268 0.50223 0.0
C1951 C 0.85828 0.17351 0.49586 0.0
C1952 C 0.85126 0.16143 0.55188 0.0
C1953 C 0.85143 0.17603 0.5263 0.0
C1954 C 0.84572 0.1611 0.56671 0.0
C1955 C 0.83538 0.17513 0.57211 0.0
C1956 C 0.84663 0.17602 0.5423 0.0
C1957 C 0.83123 0.18963 0.56215 0.0
C1958 C 0.85152 0.19391 0.51739 0.0
C1959 C 0.85845 0.15627 0.50521 0.0
N1960 N 0.83683 0.18967 0.54777 0.0
N1961 N 0.85508 0.15794 0.51992 0.0
H1962 H 0.87125 0.73836 0.50935 0.0
H1963 H 0.83125 0.63509 0.56603 0.0
H1964 H 0.86195 0.66621 0.49698 0.0
H1965 H 0.86251 0.71296 0.58025 0.0
H1966 H 0.84249 0.64562 0.54081 0.0
H1967 H 0.8677 0.72905 0.53541 0.0
C1968 C 0.86851 0.72056 0.51216 0.0
C1969 C 0.86669 0.70294 0.50101 0.0
C1970 C 0.84711 0.6604 0.5495 0.0
C1971 C 0.86248 0.69207 0.53081 0.0
C1972 C 0.84081 0.65442 0.56395 0.0
C1973 C 0.84563 0.67313 0.5753 0.0
C1974 C 0.85812 0.68523 0.54633 0.0
C1975 C 0.85784 0.69784 0.57181 0.0
C1976 C 0.86663 0.7153 0.52704 0.0
C1977 C 0.86347 0.68029 0.50527 0.0
N1978 N 0.86341 0.70313 0.55763 0.0
N1979 N 0.86116 0.67536 0.51982 0.0
loop_
_geom_bond_atom_site_label_1
_geom_bond_atom_site_label_2
_geom_bond_distance
_geom_bond_site_symmetry_2
_ccdc_geom_bond_type
C0 C1 1.384 . S
C0 H13 0.947 . S
C0 C35 1.382 . S
C1 C0 1.384 . S
C1 C2 1.378 . S
C2 C1 1.378 . S
C2 C3 1.378 . S
C2 H14 0.952 . S
C3 C2 1.378 . S
C3 H15 0.950 . S
C3 C34 1.383 . S
H4 C23 0.947 . S
H5 C24 0.946 . S
H6 C26 0.953 . S
H7 C27 0.945 . S
H8 C29 0.952 . S
H9 C30 0.949 . S
H10 C32 0.950 . S
H11 C33 0.948 . S
H12 C35 0.951 . S
H13 C0 0.947 . S
H14 C2 0.952 . S
H15 C3 0.950 . S
N16 C19 1.382 . S
N16 C21 1.363 . S
N17 C19 1.371 . S
N17 C20 1.372 . S
N18 C20 1.361 . S
N18 C21 1.377 . S
C19 N16 1.382 . S
C19 N17 1.371 . S
C19 C22 1.480 . S
C20 N17 1.372 . S
C20 N18 1.361 . S
C20 C28 1.457 . S
C21 N16 1.363 . S
C21 N18 1.377 . S
C21 C34 1.479 . S
C22 C19 1.480 . S
C22 C23 1.383 . S
C22 C27 1.385 . S
C23 H4 0.947 . S
C23 C22 1.383 . S
C23 C24 1.388 . S
C24 H5 0.946 . S
C24 C23 1.388 . S
C24 C25 1.384 . S
C25 C24 1.384 . S
C25 C26 1.377 . S
C26 H6 0.953 . S
C26 C25 1.377 . S
C26 C27 1.369 . S
C27 H7 0.945 . S
C27 C22 1.385 . S
C27 C26 1.369 . S
C28 C20 1.457 . S
C28 C29 1.372 . S
C28 C33 1.364 . S
C29 H8 0.952 . S
C29 C28 1.372 . S
C29 C30 1.389 . S
C30 H9 0.949 . S
C30 C29 1.389 . S
C30 C31 1.387 . S
C31 C30 1.387 . S
C31 C32 1.372 . S
C32 H10 0.950 . S
C32 C31 1.372 . S
C32 C33 1.379 . S
C33 H11 0.948 . S
C33 C28 1.364 . S
C33 C32 1.379 . S
C34 C3 1.383 . S
C34 C21 1.479 . S
C34 C35 1.398 . S
C35 C0 1.382 . S
C35 H12 0.951 . S
C35 C34 1.398 . S
C36 C37 1.384 . S
C36 H49 0.947 . S
C36 C71 1.382 . S
C37 C36 1.384 . S
C37 C38 1.378 . S
C38 C37 1.378 . S
C38 C39 1.378 . S
C38 H50 0.952 . S
C39 C38 1.378 . S
C39 H51 0.950 . S
C39 C70 1.383 . S
H40 C59 0.947 . S
H41 C60 0.946 . S
H42 C62 0.953 . S
H43 C63 0.945 . S
H44 C65 0.952 . S
H45 C66 0.949 . S
H46 C68 0.950 . S
H47 C69 0.948 . S
H48 C71 0.951 . S
H49 C36 0.947 . S
H50 C38 0.952 . S
H51 C39 0.950 . S
N52 C55 1.382 . S
N52 C57 1.363 . S
N53 C55 1.371 . S
N53 C56 1.372 . S
N54 C56 1.361 . S
N54 C57 1.377 . S
C55 N52 1.382 . S
C55 N53 1.371 . S
C55 C58 1.480 . S
C56 N53 1.372 . S
C56 N54 1.361 . S
C56 C64 1.457 . S
C57 N52 1.363 . S
C57 N54 1.377 . S
C57 C70 1.479 . S
C58 C55 1.480 . S
C58 C59 1.383 . S
C58 C63 1.385 . S
C59 H40 0.947 . S
C59 C58 1.383 . S
C59 C60 1.388 . S
C60 H41 0.946 . S
C60 C59 1.388 . S
C60 C61 1.384 . S
C61 C60 1.384 . S
C61 C62 1.377 . S
C62 H42 0.953 . S
C62 C61 1.377 . S
C62 C63 1.369 . S
C63 H43 0.945 . S
C63 C58 1.385 . S
C63 C62 1.369 . S
C64 C56 1.457 . S
C64 C65 1.372 . S
C64 C69 1.364 . S
C65 H44 0.952 . S
C65 C64 1.372 . S
C65 C66 1.389 . S
C66 H45 0.949 . S
C66 C65 1.389 . S
C66 C67 1.387 . S
C67 C66 1.387 . S
C67 C68 1.372 . S
C68 H46 0.950 . S
C68 C67 1.372 . S
C68 C69 1.379 . S
C69 H47 0.948 . S
C69 C64 1.364 . S
C69 C68 1.379 . S
C70 C39 1.383 . S
C70 C57 1.479 . S
C70 C71 1.398 . S
C71 C36 1.382 . S
C71 H48 0.951 . S
C71 C70 1.398 . S
C72 C73 1.384 . S
C72 H85 0.947 . S
C72 C107 1.382 . S
C73 C72 1.384 . S
C73 C74 1.378 . S
C74 C73 1.378 . S
C74 C75 1.378 . S
C74 H86 0.952 . S
C75 C74 1.378 . S
C75 H87 0.950 . S
C75 C106 1.383 . S
H76 C95 0.947 . S
H77 C96 0.946 . S
H78 C98 0.953 . S
H79 C99 0.945 . S
H80 C101 0.952 . S
H81 C102 0.949 . S
H82 C104 0.950 . S
H83 C105 0.948 . S
H84 C107 0.951 . S
H85 C72 0.947 . S
H86 C74 0.952 . S
H87 C75 0.950 . S
N88 C91 1.382 . S
N88 C93 1.363 . S
N89 C91 1.371 . S
N89 C92 1.372 . S
N90 C92 1.361 . S
N90 C93 1.377 . S
C91 N88 1.382 . S
C91 N89 1.371 . S
C91 C94 1.480 . S
C92 N89 1.372 . S
C92 N90 1.361 . S
C92 C100 1.457 . S
C93 N88 1.363 . S
C93 N90 1.377 . S
C93 C106 1.479 . S
C94 C91 1.480 . S
C94 C95 1.383 . S
C94 C99 1.385 . S
C95 H76 0.947 . S
C95 C94 1.383 . S
C95 C96 1.388 . S
C96 H77 0.946 . S
C96 C95 1.388 . S
C96 C97 1.384 . S
C97 C96 1.384 . S
C97 C98 1.377 . S
C98 H78 0.953 . S
C98 C97 1.377 . S
C98 C99 1.369 . S
C99 H79 0.945 . S
C99 C94 1.385 . S
C99 C98 1.369 . S
C100 C92 1.457 . S
C100 C101 1.372 . S
C100 C105 1.364 . S
C101 H80 0.952 . S
C101 C100 1.372 . S
C101 C102 1.389 . S
C102 H81 0.949 . S
C102 C101 1.389 . S
C102 C103 1.387 . S
C103 C102 1.387 . S
C103 C104 1.372 . S
C104 H82 0.950 . S
C104 C103 1.372 . S
C104 C105 1.379 . S
C105 H83 0.948 . S
C105 C100 1.364 . S
C105 C104 1.379 . S
C106 C75 1.383 . S
C106 C93 1.479 . S
C106 C107 1.398 . S
C107 C72 1.382 . S
C107 H84 0.951 . S
C107 C106 1.398 . S
C108 C109 1.384 . S
C108 H121 0.947 . S
C108 C143 1.382 . S
C109 C108 1.384 . S
C109 C110 1.378 . S
C110 C109 1.378 . S
C110 C111 1.378 . S
C110 H122 0.952 . S
C111 C110 1.378 . S
C111 H123 0.950 . S
C111 C142 1.383 . S
H112 C131 0.947 . S
H113 C132 0.946 . S
H114 C134 0.953 . S
H115 C135 0.945 . S
H116 C137 0.952 . S
H117 C138 0.949 . S
H118 C140 0.950 . S
H119 C141 0.948 . S
H120 C143 0.951 . S
H121 C108 0.947 . S
H122 C110 0.952 . S
H123 C111 0.950 . S
N124 C127 1.382 . S
N124 C129 1.363 . S
N125 C127 1.371 . S
N125 C128 1.372 . S
N126 C128 1.361 . S
N126 C129 1.377 . S
C127 N124 1.382 . S
C127 N125 1.371 . S
C127 C130 1.480 . S
C128 N125 1.372 . S
C128 N126 1.361 . S
C128 C136 1.457 . S
C129 N124 1.363 . S
C129 N126 1.377 . S
C129 C142 1.479 . S
C130 C127 1.480 . S
C130 C131 1.383 . S
C130 C135 1.385 . S
C131 H112 0.947 . S
C131 C130 1.383 . S
C131 C132 1.388 . S
C132 H113 0.946 . S
C132 C131 1.388 . S
C132 C133 1.384 . S
C133 C132 1.384 . S
C133 C134 1.377 . S
C134 H114 0.953 . S
C134 C133 1.377 . S
C134 C135 1.369 . S
C135 H115 0.945 . S
C135 C130 1.385 . S
C135 C134 1.369 . S
C136 C128 1.457 . S
C136 C137 1.372 . S
C136 C141 1.364 . S
C137 H116 0.952 . S
C137 C136 1.372 . S
C137 C138 1.389 . S
C138 H117 0.949 . S
C138 C137 1.389 . S
C138 C139 1.387 . S
C139 C138 1.387 . S
C139 C140 1.372 . S
C140 H118 0.950 . S
C140 C139 1.372 . S
C140 C141 1.379 . S
C141 H119 0.948 . S
C141 C136 1.364 . S
C141 C140 1.379 . S
C142 C111 1.383 . S
C142 C129 1.479 . S
C142 C143 1.398 . S
C143 C108 1.382 . S
C143 H120 0.951 . S
C143 C142 1.398 . S
C144 C145 1.384 . S
C144 H157 0.947 . S
C144 C179 1.382 . S
C145 C144 1.384 . S
C145 C146 1.378 . S
C146 C145 1.378 . S
C146 C147 1.378 . S
C146 H158 0.952 . S
C147 C146 1.378 . S
C147 H159 0.950 . S
C147 C178 1.383 . S
H148 C167 0.947 . S
H149 C168 0.946 . S
H150 C170 0.953 . S
H151 C171 0.945 . S
H152 C173 0.952 . S
H153 C174 0.949 . S
H154 C176 0.950 . S
H155 C177 0.948 . S
H156 C179 0.951 . S
H157 C144 0.947 . S
H158 C146 0.952 . S
H159 C147 0.950 . S
N160 C163 1.382 . S
N160 C165 1.363 . S
N161 C163 1.371 . S
N161 C164 1.372 . S
N162 C164 1.361 . S
N162 C165 1.377 . S
C163 N160 1.382 . S
C163 N161 1.371 . S
C163 C166 1.480 . S
C164 N161 1.372 . S
C164 N162 1.361 . S
C164 C172 1.457 . S
C165 N160 1.363 . S
C165 N162 1.377 . S
C165 C178 1.479 . S
C166 C163 1.480 . S
C166 C167 1.383 . S
C166 C171 1.385 . S
C167 H148 0.947 . S
C167 C166 1.383 . S
C167 C168 1.388 . S
C168 H149 0.946 . S
C168 C167 1.388 . S
C168 C169 1.384 . S
C169 C168 1.384 . S
C169 C170 1.377 . S
C170 H150 0.953 . S
C170 C169 1.377 . S
C170 C171 1.369 . S
C171 H151 0.945 . S
C171 C166 1.385 . S
C171 C170 1.369 . S
C172 C164 1.457 . S
C172 C173 1.372 . S
C172 C177 1.364 . S
C173 H152 0.952 . S
C173 C172 1.372 . S
C173 C174 1.389 . S
C174 H153 0.949 . S
C174 C173 1.389 . S
C174 C175 1.387 . S
C175 C174 1.387 . S
C175 C176 1.372 . S
C176 H154 0.950 . S
C176 C175 1.372 . S
C176 C177 1.379 . S
C177 H155 0.948 . S
C177 C172 1.364 . S
C177 C176 1.379 . S
C178 C147 1.383 . S
C178 C165 1.479 . S
C178 C179 1.398 . S
C179 C144 1.382 . S
C179 H156 0.951 . S
C179 C178 1.398 . S
C180 C181 1.384 . S
C180 H193 0.947 . S
C180 C215 1.382 . S
C181 C180 1.384 . S
C181 C182 1.378 . S
C182 C181 1.378 . S
C182 C183 1.378 . S
C182 H194 0.952 . S
C183 C182 1.378 . S
C183 H195 0.950 . S
C183 C214 1.383 . S
H184 C203 0.947 . S
H185 C204 0.946 . S
H186 C206 0.953 . S
H187 C207 0.945 . S
H188 C209 0.952 . S
H189 C210 0.949 . S
H190 C212 0.950 . S
H191 C213 0.948 . S
H192 C215 0.951 . S
H193 C180 0.947 . S
H194 C182 0.952 . S
H195 C183 0.950 . S
N196 C199 1.382 . S
N196 C201 1.363 . S
N197 C199 1.371 . S
N197 C200 1.372 . S
N198 C200 1.361 . S
N198 C201 1.377 . S
C199 N196 1.382 . S
C199 N197 1.371 . S
C199 C202 1.480 . S
C200 N197 1.372 . S
C200 N198 1.361 . S
C200 C208 1.457 . S
C201 N196 1.363 . S
C201 N198 1.377 . S
C201 C214 1.479 . S
C202 C199 1.480 . S
C202 C203 1.383 . S
C202 C207 1.385 . S
C203 H184 0.947 . S
C203 C202 1.383 . S
C203 C204 1.388 . S
C204 H185 0.946 . S
C204 C203 1.388 . S
C204 C205 1.384 . S
C205 C204 1.384 . S
C205 C206 1.377 . S
C206 H186 0.953 . S
C206 C205 1.377 . S
C206 C207 1.369 . S
C207 H187 0.945 . S
C207 C202 1.385 . S
C207 C206 1.369 . S
C208 C200 1.457 . S
C208 C209 1.372 . S
C208 C213 1.364 . S
C209 H188 0.952 . S
C209 C208 1.372 . S
C209 C210 1.389 . S
C210 H189 0.949 . S
C210 C209 1.389 . S
C210 C211 1.387 . S
C211 C210 1.387 . S
C211 C212 1.372 . S
C212 H190 0.950 . S
C212 C211 1.372 . S
C212 C213 1.379 . S
C213 H191 0.948 . S
C213 C208 1.364 . S
C213 C212 1.379 . S
C214 C183 1.383 . S
C214 C201 1.479 . S
C214 C215 1.398 . S
C215 C180 1.382 . S
C215 H192 0.951 . S
C215 C214 1.398 . S
C216 C217 1.384 . S
C216 H229 0.947 . S
C216 C251 1.382 . S
C217 C216 1.384 . S
C217 C218 1.378 . S
C218 C217 1.378 . S
C218 C219 1.378 . S
C218 H230 0.952 . S
C219 C218 1.378 . S
C219 H231 0.950 . S
C219 C250 1.383 . S
H220 C239 0.947 . S
H221 C240 0.946 . S
H222 C242 0.953 . S
H223 C243 0.945 . S
H224 C245 0.952 . S
H225 C246 0.949 . S
H226 C248 0.950 . S
H227 C249 0.948 . S
H228 C251 0.951 . S
H229 C216 0.947 . S
H230 C218 0.952 . S
H231 C219 0.950 . S
N232 C235 1.382 . S
N232 C237 1.363 . S
N233 C235 1.371 . S
N233 C236 1.372 . S
N234 C236 1.361 . S
N234 C237 1.377 . S
C235 N232 1.382 . S
C235 N233 1.371 . S
C235 C238 1.480 . S
C236 N233 1.372 . S
C236 N234 1.361 . S
C236 C244 1.457 . S
C237 N232 1.363 . S
C237 N234 1.377 . S
C237 C250 1.479 . S
C238 C235 1.480 . S
C238 C239 1.383 . S
C238 C243 1.385 . S
C239 H220 0.947 . S
C239 C238 1.383 . S
C239 C240 1.388 . S
C240 H221 0.946 . S
C240 C239 1.388 . S
C240 C241 1.384 . S
C241 C240 1.384 . S
C241 C242 1.377 . S
C242 H222 0.953 . S
C242 C241 1.377 . S
C242 C243 1.369 . S
C243 H223 0.945 . S
C243 C238 1.385 . S
C243 C242 1.369 . S
C244 C236 1.457 . S
C244 C245 1.372 . S
C244 C249 1.364 . S
C245 H224 0.952 . S
C245 C244 1.372 . S
C245 C246 1.389 . S
C246 H225 0.949 . S
C246 C245 1.389 . S
C246 C247 1.387 . S
C247 C246 1.387 . S
C247 C248 1.372 . S
C248 H226 0.950 . S
C248 C247 1.372 . S
C248 C249 1.379 . S
C249 H227 0.948 . S
C249 C244 1.364 . S
C249 C248 1.379 . S
C250 C219 1.383 . S
C250 C237 1.479 . S
C250 C251 1.398 . S
C251 C216 1.382 . S
C251 H228 0.951 . S
C251 C250 1.398 . S
C252 C253 1.384 . S
C252 H265 0.947 . S
C252 C287 1.382 . S
C253 C252 1.384 . S
C253 C254 1.378 . S
C254 C253 1.378 . S
C254 C255 1.378 . S
C254 H266 0.952 . S
C255 C254 1.378 . S
C255 H267 0.950 . S
C255 C286 1.383 . S
H256 C275 0.947 . S
H257 C276 0.946 . S
H258 C278 0.953 . S
H259 C279 0.945 . S
H260 C281 0.952 . S
H261 C282 0.949 . S
H262 C284 0.950 . S
H263 C285 0.948 . S
H264 C287 0.951 . S
H265 C252 0.947 . S
H266 C254 0.952 . S
H267 C255 0.950 . S
N268 C271 1.382 . S
N268 C273 1.363 . S
N269 C271 1.371 . S
N269 C272 1.372 . S
N270 C272 1.361 . S
N270 C273 1.377 . S
C271 N268 1.382 . S
C271 N269 1.371 . S
C271 C274 1.480 . S
C272 N269 1.372 . S
C272 N270 1.361 . S
C272 C280 1.457 . S
C273 N268 1.363 . S
C273 N270 1.377 . S
C273 C286 1.479 . S
C274 C271 1.480 . S
C274 C275 1.383 . S
C274 C279 1.385 . S
C275 H256 0.947 . S
C275 C274 1.383 . S
C275 C276 1.388 . S
C276 H257 0.946 . S
C276 C275 1.388 . S
C276 C277 1.384 . S
C277 C276 1.384 . S
C277 C278 1.377 . S
C278 H258 0.953 . S
C278 C277 1.377 . S
C278 C279 1.369 . S
C279 H259 0.945 . S
C279 C274 1.385 . S
C279 C278 1.369 . S
C280 C272 1.457 . S
C280 C281 1.372 . S
C280 C285 1.364 . S
C281 H260 0.952 . S
C281 C280 1.372 . S
C281 C282 1.389 . S
C282 H261 0.949 . S
C282 C281 1.389 . S
C282 C283 1.387 . S
C283 C282 1.387 . S
C283 C284 1.372 . S
C284 H262 0.950 . S
C284 C283 1.372 . S
C284 C285 1.379 . S
C285 H263 0.948 . S
C285 C280 1.364 . S
C285 C284 1.379 . S
C286 C255 1.383 . S
C286 C273 1.479 . S
C286 C287 1.398 . S
C287 C252 1.382 . S
C287 H264 0.951 . S
C287 C286 1.398 . S
C288 C289 1.384 . S
C288 H301 0.947 . S
C288 C323 1.382 . S
C289 C288 1.384 . S
C289 C290 1.378 . S
C290 C289 1.378 . S
C290 C291 1.378 . S
C290 H302 0.952 . S
C291 C290 1.378 . S
C291 H303 0.950 . S
C291 C322 1.383 . S
H292 C311 0.947 . S
H293 C312 0.946 . S
H294 C314 0.953 . S
H295 C315 0.945 . S
H296 C317 0.952 . S
H297 C318 0.949 . S
H298 C320 0.950 . S
H299 C321 0.948 . S
H300 C323 0.951 . S
H301 C288 0.947 . S
H302 C290 0.952 . S
H303 C291 0.950 . S
N304 C307 1.382 . S
N304 C309 1.363 . S
N305 C307 1.371 . S
N305 C308 1.372 . S
N306 C308 1.361 . S
N306 C309 1.377 . S
C307 N304 1.382 . S
C307 N305 1.371 . S
C307 C310 1.480 . S
C308 N305 1.372 . S
C308 N306 1.361 . S
C308 C316 1.457 . S
C309 N304 1.363 . S
C309 N306 1.377 . S
C309 C322 1.479 . S
C310 C307 1.480 . S
C310 C311 1.383 . S
C310 C315 1.385 . S
C311 H292 0.947 . S
C311 C310 1.383 . S
C311 C312 1.388 . S
C312 H293 0.946 . S
C312 C311 1.388 . S
C312 C313 1.384 . S
C313 C312 1.384 . S
C313 C314 1.377 . S
C314 H294 0.953 . S
C314 C313 1.377 . S
C314 C315 1.369 . S
C315 H295 0.945 . S
C315 C310 1.385 . S
C315 C314 1.369 . S
C316 C308 1.457 . S
C316 C317 1.372 . S
C316 C321 1.364 . S
C317 H296 0.952 . S
C317 C316 1.372 . S
C317 C318 1.389 . S
C318 H297 0.949 . S
C318 C317 1.389 . S
C318 C319 1.387 . S
C319 C318 1.387 . S
C319 C320 1.372 . S
C320 H298 0.950 . S
C320 C319 1.372 . S
C320 C321 1.379 . S
C321 H299 0.948 . S
C321 C316 1.364 . S
C321 C320 1.379 . S
C322 C291 1.383 . S
C322 C309 1.479 . S
C322 C323 1.398 . S
C323 C288 1.382 . S
C323 H300 0.951 . S
C323 C322 1.398 . S
C324 C325 1.384 . S
C324 H337 0.947 . S
C324 C359 1.382 . S
C325 C324 1.384 . S
C325 C326 1.378 . S
C326 C325 1.378 . S
C326 C327 1.378 . S
C326 H338 0.952 . S
C327 C326 1.378 . S
C327 H339 0.950 . S
C327 C358 1.383 . S
H328 C347 0.947 . S
H329 C348 0.946 . S
H330 C350 0.953 . S
H331 C351 0.945 . S
H332 C353 0.952 . S
H333 C354 0.949 . S
H334 C356 0.950 . S
H335 C357 0.948 . S
H336 C359 0.951 . S
H337 C324 0.947 . S
H338 C326 0.952 . S
H339 C327 0.950 . S
N340 C343 1.382 . S
N340 C345 1.363 . S
N341 C343 1.371 . S
N341 C344 1.372 . S
N342 C344 1.361 . S
N342 C345 1.377 . S
C343 N340 1.382 . S
C343 N341 1.371 . S
C343 C346 1.480 . S
C344 N341 1.372 . S
C344 N342 1.361 . S
C344 C352 1.457 . S
C345 N340 1.363 . S
C345 N342 1.377 . S
C345 C358 1.479 . S
C346 C343 1.480 . S
C346 C347 1.383 . S
C346 C351 1.385 . S
C347 H328 0.947 . S
C347 C346 1.383 . S
C347 C348 1.388 . S
C348 H329 0.946 . S
C348 C347 1.388 . S
C348 C349 1.384 . S
C349 C348 1.384 . S
C349 C350 1.377 . S
C350 H330 0.953 . S
C350 C349 1.377 . S
C350 C351 1.369 . S
C351 H331 0.945 . S
C351 C346 1.385 . S
C351 C350 1.369 . S
C352 C344 1.457 . S
C352 C353 1.372 . S
C352 C357 1.364 . S
C353 H332 0.952 . S
C353 C352 1.372 . S
C353 C354 1.389 . S
C354 H333 0.949 . S
C354 C353 1.389 . S
C354 C355 1.387 . S
C355 C354 1.387 . S
C355 C356 1.372 . S
C356 H334 0.950 . S
C356 C355 1.372 . S
C356 C357 1.379 . S
C357 H335 0.948 . S
C357 C352 1.364 . S
C357 C356 1.379 . S
C358 C327 1.383 . S
C358 C345 1.479 . S
C358 C359 1.398 . S
C359 C324 1.382 . S
C359 H336 0.951 . S
C359 C358 1.398 . S
C360 C361 1.384 . S
C360 H373 0.947 . S
C360 C395 1.382 . S
C361 C360 1.384 . S
C361 C362 1.378 . S
C362 C361 1.378 . S
C362 C363 1.378 . S
C362 H374 0.952 . S
C363 C362 1.378 . S
C363 H375 0.950 . S
C363 C394 1.383 . S
H364 C383 0.947 . S
H365 C384 0.946 . S
H366 C386 0.953 . S
H367 C387 0.945 . S
H368 C389 0.952 . S
H369 C390 0.949 . S
H370 C392 0.950 . S
H371 C393 0.948 . S
H372 C395 0.951 . S
H373 C360 0.947 . S
H374 C362 0.952 . S
H375 C363 0.950 . S
N376 C379 1.382 . S
N376 C381 1.363 . S
N377 C379 1.371 . S
N377 C380 1.372 . S
N378 C380 1.361 . S
N378 C381 1.377 . S
C379 N376 1.382 . S
C379 N377 1.371 . S
C379 C382 1.480 . S
C380 N377 1.372 . S
C380 N378 1.361 . S
C380 C388 1.457 . S
C381 N376 1.363 . S
C381 N378 1.377 . S
C381 C394 1.479 . S
C382 C379 1.480 . S
C382 C383 1.383 . S
C382 C387 1.385 . S
C383 H364 0.947 . S
C383 C382 1.383 . S
C383 C384 1.388 . S
C384 H365 0.946 . S
C384 C383 1.388 . S
C384 C385 1.384 . S
C385 C384 1.384 . S
C385 C386 1.377 . S
C386 H366 0.953 . S
C386 C385 1.377 . S
C386 C387 1.369 . S
C387 H367 0.945 . S
C387 C382 1.385 . S
C387 C386 1.369 . S
C388 C380 1.457 . S
C388 C389 1.372 . S
C388 C393 1.364 . S
C389 H368 0.952 . S
C389 C388 1.372 . S
C389 C390 1.389 . S
C390 H369 0.949 . S
C390 C389 1.389 . S
C390 C391 1.387 . S
C391 C390 1.387 . S
C391 C392 1.372 . S
C392 H370 0.950 . S
C392 C391 1.372 . S
C392 C393 1.379 . S
C393 H371 0.948 . S
C393 C388 1.364 . S
C393 C392 1.379 . S
C394 C363 1.383 . S
C394 C381 1.479 . S
C394 C395 1.398 . S
C395 C360 1.382 . S
C395 H372 0.951 . S
C395 C394 1.398 . S
C396 C397 1.384 . S
C396 H409 0.947 . S
C396 C431 1.382 . S
C397 C396 1.384 . S
C397 C398 1.378 . S
C398 C397 1.378 . S
C398 C399 1.378 . S
C398 H410 0.952 . S
C399 C398 1.378 . S
C399 H411 0.950 . S
C399 C430 1.383 . S
H400 C419 0.947 . S
H401 C420 0.946 . S
H402 C422 0.953 . S
H403 C423 0.945 . S
H404 C425 0.952 . S
H405 C426 0.949 . S
H406 C428 0.950 . S
H407 C429 0.948 . S
H408 C431 0.951 . S
H409 C396 0.947 . S
H410 C398 0.952 . S
H411 C399 0.950 . S
N412 C415 1.382 . S
N412 C417 1.363 . S
N413 C415 1.371 . S
N413 C416 1.372 . S
N414 C416 1.361 . S
N414 C417 1.377 . S
C415 N412 1.382 . S
C415 N413 1.371 . S
C415 C418 1.480 . S
C416 N413 1.372 . S
C416 N414 1.361 . S
C416 C424 1.457 . S
C417 N412 1.363 . S
C417 N414 1.377 . S
C417 C430 1.479 . S
C418 C415 1.480 . S
C418 C419 1.383 . S
C418 C423 1.385 . S
C419 H400 0.947 . S
C419 C418 1.383 . S
C419 C420 1.388 . S
C420 H401 0.946 . S
C420 C419 1.388 . S
C420 C421 1.384 . S
C421 C420 1.384 . S
C421 C422 1.377 . S
C422 H402 0.953 . S
C422 C421 1.377 . S
C422 C423 1.369 . S
C423 H403 0.945 . S
C423 C418 1.385 . S
C423 C422 1.369 . S
C424 C416 1.457 . S
C424 C425 1.372 . S
C424 C429 1.364 . S
C425 H404 0.952 . S
C425 C424 1.372 . S
C425 C426 1.389 . S
C426 H405 0.949 . S
C426 C425 1.389 . S
C426 C427 1.387 . S
C427 C426 1.387 . S
C427 C428 1.372 . S
C428 H406 0.950 . S
C428 C427 1.372 . S
C428 C429 1.379 . S
C429 H407 0.948 . S
C429 C424 1.364 . S
C429 C428 1.379 . S
C430 C399 1.383 . S
C430 C417 1.479 . S
C430 C431 1.398 . S
C431 C396 1.382 . S
C431 H408 0.951 . S
C431 C430 1.398 . S
C432 C433 1.384 . S
C432 H445 0.947 . S
C432 C467 1.382 . S
C433 C432 1.384 . S
C433 C434 1.378 . S
C434 C433 1.378 . S
C434 C435 1.378 . S
C434 H446 0.952 . S
C435 C434 1.378 . S
C435 H447 0.950 . S
C435 C466 1.383 . S
H436 C455 0.947 . S
H437 C456 0.946 . S
H438 C458 0.953 . S
H439 C459 0.945 . S
H440 C461 0.952 . S
H441 C462 0.949 . S
H442 C464 0.950 . S
H443 C465 0.948 . S
H444 C467 0.951 . S
H445 C432 0.947 . S
H446 C434 0.952 . S
H447 C435 0.950 . S
N448 C451 1.382 . S
N448 C453 1.363 . S
N449 C451 1.371 . S
N449 C452 1.372 . S
N450 C452 1.361 . S
N450 C453 1.377 . S
C451 N448 1.382 . S
C451 N449 1.371 . S
C451 C454 1.480 . S
C452 N449 1.372 . S
C452 N450 1.361 . S
C452 C460 1.457 . S
C453 N448 1.363 . S
C453 N450 1.377 . S
C453 C466 1.479 . S
C454 C451 1.480 . S
C454 C455 1.383 . S
C454 C459 1.385 . S
C455 H436 0.947 . S
C455 C454 1.383 . S
C455 C456 1.388 . S
C456 H437 0.946 . S
C456 C455 1.388 . S
C456 C457 1.384 . S
C457 C456 1.384 . S
C457 C458 1.377 . S
C458 H438 0.953 . S
C458 C457 1.377 . S
C458 C459 1.369 . S
C459 H439 0.945 . S
C459 C454 1.385 . S
C459 C458 1.369 . S
C460 C452 1.457 . S
C460 C461 1.372 . S
C460 C465 1.364 . S
C461 H440 0.952 . S
C461 C460 1.372 . S
C461 C462 1.389 . S
C462 H441 0.949 . S
C462 C461 1.389 . S
C462 C463 1.387 . S
C463 C462 1.387 . S
C463 C464 1.372 . S
C464 H442 0.950 . S
C464 C463 1.372 . S
C464 C465 1.379 . S
C465 H443 0.948 . S
C465 C460 1.364 . S
C465 C464 1.379 . S
C466 C435 1.383 . S
C466 C453 1.479 . S
C466 C467 1.398 . S
C467 C432 1.382 . S
C467 H444 0.951 . S
C467 C466 1.398 . S
C468 C469 1.384 . S
C468 H481 0.947 . S
C468 C503 1.382 . S
C469 C468 1.384 . S
C469 C470 1.378 . S
C470 C469 1.378 . S
C470 C471 1.378 . S
C470 H482 0.952 . S
C471 C470 1.378 . S
C471 H483 0.950 . S
C471 C502 1.383 . S
H472 C491 0.947 . S
H473 C492 0.946 . S
H474 C494 0.953 . S
H475 C495 0.945 . S
H476 C497 0.952 . S
H477 C498 0.949 . S
H478 C500 0.950 . S
H479 C501 0.948 . S
H480 C503 0.951 . S
H481 C468 0.947 . S
H482 C470 0.952 . S
H483 C471 0.950 . S
N484 C487 1.382 . S
N484 C489 1.363 . S
N485 C487 1.371 . S
N485 C488 1.372 . S
N486 C488 1.361 . S
N486 C489 1.377 . S
C487 N484 1.382 . S
C487 N485 1.371 . S
C487 C490 1.480 . S
C488 N485 1.372 . S
C488 N486 1.361 . S
C488 C496 1.457 . S
C489 N484 1.363 . S
C489 N486 1.377 . S
C489 C502 1.479 . S
C490 C487 1.480 . S
C490 C491 1.383 . S
C490 C495 1.385 . S
C491 H472 0.947 . S
C491 C490 1.383 . S
C491 C492 1.388 . S
C492 H473 0.946 . S
C492 C491 1.388 . S
C492 C493 1.384 . S
C493 C492 1.384 . S
C493 C494 1.377 . S
C494 H474 0.953 . S
C494 C493 1.377 . S
C494 C495 1.369 . S
C495 H475 0.945 . S
C495 C490 1.385 . S
C495 C494 1.369 . S
C496 C488 1.457 . S
C496 C497 1.372 . S
C496 C501 1.364 . S
C497 H476 0.952 . S
C497 C496 1.372 . S
C497 C498 1.389 . S
C498 H477 0.949 . S
C498 C497 1.389 . S
C498 C499 1.387 . S
C499 C498 1.387 . S
C499 C500 1.372 . S
C500 H478 0.950 . S
C500 C499 1.372 . S
C500 C501 1.379 . S
C501 H479 0.948 . S
C501 C496 1.364 . S
C501 C500 1.379 . S
C502 C471 1.383 . S
C502 C489 1.479 . S
C502 C503 1.398 . S
C503 C468 1.382 . S
C503 H480 0.951 . S
C503 C502 1.398 . S
C504 C505 1.384 . S
C504 H517 0.947 . S
C504 C539 1.382 . S
C505 C504 1.384 . S
C505 C506 1.378 . S
C506 C505 1.378 . S
C506 C507 1.378 . S
C506 H518 0.952 . S
C507 C506 1.378 . S
C507 H519 0.950 . S
C507 C538 1.383 . S
H508 C527 0.947 . S
H509 C528 0.946 . S
H510 C530 0.953 . S
H511 C531 0.945 . S
H512 C533 0.952 . S
H513 C534 0.949 . S
H514 C536 0.950 . S
H515 C537 0.948 . S
H516 C539 0.951 . S
H517 C504 0.947 . S
H518 C506 0.952 . S
H519 C507 0.950 . S
N520 C523 1.382 . S
N520 C525 1.363 . S
N521 C523 1.371 . S
N521 C524 1.372 . S
N522 C524 1.361 . S
N522 C525 1.377 . S
C523 N520 1.382 . S
C523 N521 1.371 . S
C523 C526 1.480 . S
C524 N521 1.372 . S
C524 N522 1.361 . S
C524 C532 1.457 . S
C525 N520 1.363 . S
C525 N522 1.377 . S
C525 C538 1.479 . S
C526 C523 1.480 . S
C526 C527 1.383 . S
C526 C531 1.385 . S
C527 H508 0.947 . S
C527 C526 1.383 . S
C527 C528 1.388 . S
C528 H509 0.946 . S
C528 C527 1.388 . S
C528 C529 1.384 . S
C529 C528 1.384 . S
C529 C530 1.377 . S
C530 H510 0.953 . S
C530 C529 1.377 . S
C530 C531 1.369 . S
C531 H511 0.945 . S
C531 C526 1.385 . S
C531 C530 1.369 . S
C532 C524 1.457 . S
C532 C533 1.372 . S
C532 C537 1.364 . S
C533 H512 0.952 . S
C533 C532 1.372 . S
C533 C534 1.389 . S
C534 H513 0.949 . S
C534 C533 1.389 . S
C534 C535 1.387 . S
C535 C534 1.387 . S
C535 C536 1.372 . S
C536 H514 0.950 . S
C536 C535 1.372 . S
C536 C537 1.379 . S
C537 H515 0.948 . S
C537 C532 1.364 . S
C537 C536 1.379 . S
C538 C507 1.383 . S
C538 C525 1.479 . S
C538 C539 1.398 . S
C539 C504 1.382 . S
C539 H516 0.951 . S
C539 C538 1.398 . S
C540 C541 1.384 . S
C540 H553 0.947 . S
C540 C575 1.382 . S
C541 C540 1.384 . S
C541 C542 1.378 . S
C542 C541 1.378 . S
C542 C543 1.378 . S
C542 H554 0.952 . S
C543 C542 1.378 . S
C543 H555 0.950 . S
C543 C574 1.383 . S
H544 C563 0.947 . S
H545 C564 0.946 . S
H546 C566 0.953 . S
H547 C567 0.945 . S
H548 C569 0.952 . S
H549 C570 0.949 . S
H550 C572 0.950 . S
H551 C573 0.948 . S
H552 C575 0.951 . S
H553 C540 0.947 . S
H554 C542 0.952 . S
H555 C543 0.950 . S
N556 C559 1.382 . S
N556 C561 1.363 . S
N557 C559 1.371 . S
N557 C560 1.372 . S
N558 C560 1.361 . S
N558 C561 1.377 . S
C559 N556 1.382 . S
C559 N557 1.371 . S
C559 C562 1.480 . S
C560 N557 1.372 . S
C560 N558 1.361 . S
C560 C568 1.457 . S
C561 N556 1.363 . S
C561 N558 1.377 . S
C561 C574 1.479 . S
C562 C559 1.480 . S
C562 C563 1.383 . S
C562 C567 1.385 . S
C563 H544 0.947 . S
C563 C562 1.383 . S
C563 C564 1.388 . S
C564 H545 0.946 . S
C564 C563 1.388 . S
C564 C565 1.384 . S
C565 C564 1.384 . S
C565 C566 1.377 . S
C566 H546 0.953 . S
C566 C565 1.377 . S
C566 C567 1.369 . S
C567 H547 0.945 . S
C567 C562 1.385 . S
C567 C566 1.369 . S
C568 C560 1.457 . S
C568 C569 1.372 . S
C568 C573 1.364 . S
C569 H548 0.952 . S
C569 C568 1.372 . S
C569 C570 1.389 . S
C570 H549 0.949 . S
C570 C569 1.389 . S
C570 C571 1.387 . S
C571 C570 1.387 . S
C571 C572 1.372 . S
C572 H550 0.950 . S
C572 C571 1.372 . S
C572 C573 1.379 . S
C573 H551 0.948 . S
C573 C568 1.364 . S
C573 C572 1.379 . S
C574 C543 1.383 . S
C574 C561 1.479 . S
C574 C575 1.398 . S
C575 C540 1.382 . S
C575 H552 0.951 . S
C575 C574 1.398 . S
C576 C577 1.384 . S
C576 H589 0.947 . S
C576 C611 1.382 . S
C577 C576 1.384 . S
C577 C578 1.378 . S
C578 C577 1.378 . S
C578 C579 1.378 . S
C578 H590 0.952 . S
C579 C578 1.378 . S
C579 H591 0.950 . S
C579 C610 1.383 . S
H580 C599 0.947 . S
H581 C600 0.946 . S
H582 C602 0.953 . S
H583 C603 0.945 . S
H584 C605 0.952 . S
H585 C606 0.949 . S
H586 C608 0.950 . S
H587 C609 0.948 . S
H588 C611 0.951 . S
H589 C576 0.947 . S
H590 C578 0.952 . S
H591 C579 0.950 . S
N592 C595 1.382 . S
N592 C597 1.363 . S
N593 C595 1.371 . S
N593 C596 1.372 . S
N594 C596 1.361 . S
N594 C597 1.377 . S
C595 N592 1.382 . S
C595 N593 1.371 . S
C595 C598 1.480 . S
C596 N593 1.372 . S
C596 N594 1.361 . S
C596 C604 1.457 . S
C597 N592 1.363 . S
C597 N594 1.377 . S
C597 C610 1.479 . S
C598 C595 1.480 . S
C598 C599 1.383 . S
C598 C603 1.385 . S
C599 H580 0.947 . S
C599 C598 1.383 . S
C599 C600 1.388 . S
C600 H581 0.946 . S
C600 C599 1.388 . S
C600 C601 1.384 . S
C601 C600 1.384 . S
C601 C602 1.377 . S
C602 H582 0.953 . S
C602 C601 1.377 . S
C602 C603 1.369 . S
C603 H583 0.945 . S
C603 C598 1.385 . S
C603 C602 1.369 . S
C604 C596 1.457 . S
C604 C605 1.372 . S
C604 C609 1.364 . S
C605 H584 0.952 . S
C605 C604 1.372 . S
C605 C606 1.389 . S
C606 H585 0.949 . S
C606 C605 1.389 . S
C606 C607 1.387 . S
C607 C606 1.387 . S
C607 C608 1.372 . S
C608 H586 0.950 . S
C608 C607 1.372 . S
C608 C609 1.379 . S
C609 H587 0.948 . S
C609 C604 1.364 . S
C609 C608 1.379 . S
C610 C579 1.383 . S
C610 C597 1.479 . S
C610 C611 1.398 . S
C611 C576 1.382 . S
C611 H588 0.951 . S
C611 C610 1.398 . S
C612 C613 1.384 . S
C612 H625 0.947 . S
C612 C647 1.382 . S
C613 C612 1.384 . S
C613 C614 1.378 . S
C614 C613 1.378 . S
C614 C615 1.378 . S
C614 H626 0.952 . S
C615 C614 1.378 . S
C615 H627 0.950 . S
C615 C646 1.383 . S
H616 C635 0.947 . S
H617 C636 0.946 . S
H618 C638 0.953 . S
H619 C639 0.945 . S
H620 C641 0.952 . S
H621 C642 0.949 . S
H622 C644 0.950 . S
H623 C645 0.948 . S
H624 C647 0.951 . S
H625 C612 0.947 . S
H626 C614 0.952 . S
H627 C615 0.950 . S
N628 C631 1.382 . S
N628 C633 1.363 . S
N629 C631 1.371 . S
N629 C632 1.372 . S
N630 C632 1.361 . S
N630 C633 1.377 . S
C631 N628 1.382 . S
C631 N629 1.371 . S
C631 C634 1.480 . S
C632 N629 1.372 . S
C632 N630 1.361 . S
C632 C640 1.457 . S
C633 N628 1.363 . S
C633 N630 1.377 . S
C633 C646 1.479 . S
C634 C631 1.480 . S
C634 C635 1.383 . S
C634 C639 1.385 . S
C635 H616 0.947 . S
C635 C634 1.383 . S
C635 C636 1.388 . S
C636 H617 0.946 . S
C636 C635 1.388 . S
C636 C637 1.384 . S
C637 C636 1.384 . S
C637 C638 1.377 . S
C638 H618 0.953 . S
C638 C637 1.377 . S
C638 C639 1.369 . S
C639 H619 0.945 . S
C639 C634 1.385 . S
C639 C638 1.369 . S
C640 C632 1.457 . S
C640 C641 1.372 . S
C640 C645 1.364 . S
C641 H620 0.952 . S
C641 C640 1.372 . S
C641 C642 1.389 . S
C642 H621 0.949 . S
C642 C641 1.389 . S
C642 C643 1.387 . S
C643 C642 1.387 . S
C643 C644 1.372 . S
C644 H622 0.950 . S
C644 C643 1.372 . S
C644 C645 1.379 . S
C645 H623 0.948 . S
C645 C640 1.364 . S
C645 C644 1.379 . S
C646 C615 1.383 . S
C646 C633 1.479 . S
C646 C647 1.398 . S
C647 C612 1.382 . S
C647 H624 0.951 . S
C647 C646 1.398 . S
Tb648 C658 2.825 . S
Tb648 O659 2.347 1_565 S
Tb648 O662 2.366 1_565 S
Tb648 O667 2.418 . S
Tb648 O668 2.384 1_556 S
Tb648 O671 2.479 . S
Tb648 O672 2.471 1_565 S
Eu649 O660 2.418 . S
Eu649 O661 2.384 . S
Eu649 O664 2.479 . S
Eu649 O665 2.466 1_545 S
Eu649 O666 2.347 1_545 S
Eu649 O669 2.366 1_545 S
Eu649 C679 2.825 . S
C650 O666 1.259 . S
C650 O667 1.265 1_554 S
C651 O668 1.255 . S
C651 O669 1.265 . S
C652 C654 1.380 . S
C652 C655 1.374 1_565 S
C652 C658 1.507 . S
C653 C654 1.384 . S
C653 C657 1.387 1_565 S
C653 H680 0.930 . S
C654 C652 1.380 . S
C654 C653 1.384 . S
C654 H681 0.931 . S
C655 C652 1.374 1_545 S
C655 C656 1.390 . S
C655 H682 0.930 . S
C656 C655 1.390 . S
C656 C657 1.391 . S
C656 H683 0.930 . S
C657 C653 1.387 1_545 S
C657 C656 1.391 . S
C658 Tb648 2.825 . S
C658 C652 1.507 . S
C658 O671 1.238 . S
C658 O672 1.247 1_565 S
O659 Tb648 2.347 1_545 S
O659 C663 1.259 1_556 S
O660 Eu649 2.418 . S
O660 C663 1.265 . S
O661 Eu649 2.384 . S
O661 C670 1.255 1_554 S
O662 Tb648 2.366 1_545 S
O662 C670 1.265 . S
C663 O659 1.259 1_554 S
C663 O660 1.265 . S
O664 Eu649 2.479 . S
O664 C679 1.238 . S
O665 Eu649 2.466 1_565 S
O665 C679 1.238 1_565 S
O666 Eu649 2.347 1_565 S
O666 C650 1.259 . S
O667 Tb648 2.418 . S
O667 C650 1.265 1_556 S
O668 Tb648 2.384 1_554 S
O668 C651 1.255 . S
O669 Eu649 2.366 1_565 S
O669 C651 1.265 . S
C670 O661 1.255 1_556 S
C670 O662 1.265 . S
O671 Tb648 2.479 . S
O671 C658 1.238 . S
O672 Tb648 2.471 1_545 S
O672 C658 1.247 1_545 S
C673 C676 1.380 . S
C673 C677 1.374 1_545 S
C673 C679 1.507 . S
C674 C675 1.387 1_565 S
C674 C678 1.391 . S
C675 C674 1.387 1_545 S
C675 C676 1.384 . S
C675 H684 0.930 . S
C676 C673 1.380 . S
C676 C675 1.384 . S
C676 H685 0.931 . S
C677 C673 1.374 1_565 S
C677 C678 1.390 . S
C677 H686 0.930 . S
C678 C674 1.391 . S
C678 C677 1.390 . S
C678 H687 0.930 . S
C679 Eu649 2.825 . S
C679 O664 1.238 . S
C679 O665 1.238 1_545 S
C679 C673 1.507 . S
H680 C653 0.930 . S
H681 C654 0.931 . S
H682 C655 0.930 . S
H683 C656 0.930 . S
H684 C675 0.930 . S
H685 C676 0.931 . S
H686 C677 0.930 . S
H687 C678 0.930 . S
Tb688 C698 2.825 . S
Tb688 O699 2.347 1_455 S
Tb688 O702 2.366 1_455 S
Tb688 O707 2.418 . S
Tb688 O708 2.384 1_556 S
Tb688 O711 2.479 . S
Tb688 O712 2.471 1_455 S
Eu689 O700 2.418 . S
Eu689 O701 2.384 . S
Eu689 O704 2.479 . S
Eu689 O705 2.471 1_655 S
Eu689 O706 2.347 1_655 S
Eu689 O709 2.366 1_655 S
Eu689 C719 2.825 . S
C690 O706 1.259 . S
C690 O707 1.265 1_554 S
C691 O708 1.255 . S
C691 O709 1.265 . S
C692 C694 1.380 . S
C692 C695 1.374 1_455 S
C692 C698 1.507 . S
C693 C694 1.384 . S
C693 C697 1.387 1_455 S
C693 H720 0.930 . S
C694 C692 1.380 . S
C694 C693 1.384 . S
C694 H721 0.931 . S
C695 C692 1.374 1_655 S
C695 C696 1.390 . S
C695 H722 0.930 . S
C696 C695 1.390 . S
C696 C697 1.391 . S
C696 H723 0.930 . S
C697 C693 1.387 1_655 S
C697 C696 1.391 . S
C698 Tb688 2.825 . S
C698 C692 1.507 . S
C698 O711 1.238 . S
C698 O712 1.247 1_455 S
O699 Tb688 2.347 1_655 S
O699 C703 1.267 . S
O700 Eu689 2.418 . S
O700 C703 1.246 1_554 S
O701 Eu689 2.384 . S
O701 C710 1.255 1_554 S
O702 Tb688 2.366 1_655 S
O702 C710 1.265 . S
C703 O699 1.267 . S
C703 O700 1.246 1_556 S
O704 Eu689 2.479 . S
O704 C719 1.238 . S
O705 Eu689 2.471 1_455 S
O705 C719 1.247 1_455 S
O706 Eu689 2.347 1_455 S
O706 C690 1.259 . S
O707 Tb688 2.418 . S
O707 C690 1.265 1_556 S
O708 Tb688 2.384 1_554 S
O708 C691 1.255 . S
O709 Eu689 2.366 1_455 S
O709 C691 1.265 . S
C710 O701 1.255 1_556 S
C710 O702 1.265 . S
O711 Tb688 2.479 . S
O711 C698 1.238 . S
O712 Tb688 2.471 1_655 S
O712 C698 1.247 1_655 S
C713 C716 1.380 . S
C713 C717 1.374 1_655 S
C713 C719 1.507 . S
C714 C715 1.387 1_455 S
C714 C718 1.391 . S
C715 C714 1.387 1_655 S
C715 C716 1.384 . S
C715 H724 0.930 . S
C716 C713 1.380 . S
C716 C715 1.384 . S
C716 H725 0.931 . S
C717 C713 1.374 1_455 S
C717 C718 1.390 . S
C717 H726 0.930 . S
C718 C714 1.391 . S
C718 C717 1.390 . S
C718 H727 0.930 . S
C719 Eu689 2.825 . S
C719 O704 1.238 . S
C719 O705 1.247 1_655 S
C719 C713 1.507 . S
H720 C693 0.930 . S
H721 C694 0.931 . S
H722 C695 0.930 . S
H723 C696 0.930 . S
H724 C715 0.930 . S
H725 C716 0.931 . S
H726 C717 0.930 . S
H727 C718 0.930 . S
Tb728 C738 2.825 . S
Tb728 O739 2.347 . S
Tb728 O742 2.366 . S
Tb728 O747 2.418 . S
Tb728 O748 2.384 . S
Tb728 O751 2.479 . S
Tb728 O752 2.471 . S
Eu729 O740 2.418 . S
Eu729 O741 2.384 1_556 S
Eu729 O744 2.479 . S
Eu729 O745 2.471 . S
Eu729 O746 2.347 . S
Eu729 O749 2.366 . S
Eu729 C759 2.825 . S
C730 O746 1.259 1_554 S
C730 O747 1.265 . S
C731 O748 1.255 1_556 S
C731 O749 1.265 . S
C732 C734 1.380 . S
C732 C735 1.374 . S
C732 C738 1.507 . S
C733 C734 1.384 . S
C733 C737 1.387 . S
C733 H760 0.930 . S
C734 C732 1.380 . S
C734 C733 1.384 . S
C734 H761 0.931 . S
C735 C732 1.374 . S
C735 C736 1.390 . S
C735 H762 0.930 . S
C736 C735 1.390 . S
C736 C737 1.391 . S
C736 H763 0.930 . S
C737 C733 1.387 . S
C737 C736 1.391 . S
C738 Tb728 2.825 . S
C738 C732 1.507 . S
C738 O751 1.238 . S
C738 O752 1.247 . S
O739 Tb728 2.347 . S
O739 C743 1.259 . S
O740 Eu729 2.418 . S
O740 C743 1.265 1_556 S
O741 Eu729 2.384 1_554 S
O741 C750 1.255 . S
O742 Tb728 2.366 . S
O742 C750 1.265 . S
C743 O739 1.259 . S
C743 O740 1.265 1_554 S
O744 Eu729 2.479 . S
O744 C759 1.238 . S
O745 Eu729 2.471 . S
O745 C759 1.247 . S
O746 Eu729 2.347 . S
O746 C730 1.259 1_556 S
O747 Tb728 2.418 . S
O747 C730 1.265 . S
O748 Tb728 2.384 . S
O748 C731 1.255 1_554 S
O749 Eu729 2.366 . S
O749 C731 1.265 . S
C750 O741 1.255 . S
C750 O742 1.265 . S
O751 Tb728 2.479 . S
O751 C738 1.238 . S
O752 Tb728 2.471 . S
O752 C738 1.247 . S
C753 C756 1.380 . S
C753 C757 1.374 . S
C753 C759 1.507 . S
C754 C755 1.387 . S
C754 C758 1.391 . S
C755 C754 1.387 . S
C755 C756 1.384 . S
C755 H764 0.930 . S
C756 C753 1.380 . S
C756 C755 1.384 . S
C756 H765 0.931 . S
C757 C753 1.374 . S
C757 C758 1.390 . S
C757 H766 0.930 . S
C758 C754 1.391 . S
C758 C757 1.390 . S
C758 H767 0.930 . S
C759 Eu729 2.825 . S
C759 O744 1.238 . S
C759 O745 1.247 . S
C759 C753 1.507 . S
H760 C733 0.930 . S
H761 C734 0.931 . S
H762 C735 0.930 . S
H763 C736 0.930 . S
H764 C755 0.930 . S
H765 C756 0.931 . S
H766 C757 0.930 . S
H767 C758 0.930 . S
Tb768 C778 2.825 . S
Tb768 O779 2.347 . S
Tb768 O782 2.366 . S
Tb768 O787 2.418 . S
Tb768 O788 2.384 . S
Tb768 O791 2.479 . S
Tb768 O792 2.471 . S
Eu769 O780 2.418 . S
Eu769 O781 2.384 . S
Eu769 O784 2.479 . S
Eu769 O785 2.471 . S
Eu769 O786 2.347 . S
Eu769 O789 2.366 . S
Eu769 C799 2.825 . S
C770 O786 1.259 . S
C770 O787 1.265 . S
C771 O788 1.255 . S
C771 O789 1.265 . S
C772 C774 1.380 . S
C772 C775 1.374 . S
C772 C778 1.507 . S
C773 C774 1.384 . S
C773 C777 1.387 . S
C773 H800 0.930 . S
C774 C772 1.380 . S
C774 C773 1.384 . S
C774 H801 0.931 . S
C775 C772 1.374 . S
C775 C776 1.390 . S
C775 H802 0.930 . S
C776 C775 1.390 . S
C776 C777 1.391 . S
C776 H803 0.930 . S
C777 C773 1.387 . S
C777 C776 1.391 . S
C778 Tb768 2.825 . S
C778 C772 1.507 . S
C778 O791 1.238 . S
C778 O792 1.247 . S
O779 Tb768 2.347 . S
O779 C783 1.259 . S
O780 Eu769 2.418 . S
O780 C783 1.265 . S
O781 Eu769 2.384 . S
O781 C790 1.255 . S
O782 Tb768 2.366 . S
O782 C790 1.265 . S
C783 O779 1.259 . S
C783 O780 1.265 . S
O784 Eu769 2.479 . S
O784 C799 1.238 . S
O785 Eu769 2.471 . S
O785 C799 1.247 . S
O786 Eu769 2.347 . S
O786 C770 1.259 . S
O787 Tb768 2.418 . S
O787 C770 1.265 . S
O788 Tb768 2.384 . S
O788 C771 1.255 . S
O789 Eu769 2.366 . S
O789 C771 1.265 . S
C790 O781 1.255 . S
C790 O782 1.265 . S
O791 Tb768 2.479 . S
O791 C778 1.238 . S
O792 Tb768 2.471 . S
O792 C778 1.247 . S
C793 C796 1.380 . S
C793 C797 1.374 . S
C793 C799 1.507 . S
C794 C795 1.387 . S
C794 C798 1.391 . S
C795 C794 1.387 . S
C795 C796 1.384 . S
C795 H804 0.930 . S
C796 C793 1.380 . S
C796 C795 1.384 . S
C796 H805 0.931 . S
C797 C793 1.374 . S
C797 C798 1.390 . S
C797 H806 0.930 . S
C798 C794 1.391 . S
C798 C797 1.390 . S
C798 H807 0.930 . S
C799 Eu769 2.825 . S
C799 O784 1.238 . S
C799 O785 1.247 . S
C799 C793 1.507 . S
H800 C773 0.930 . S
H801 C774 0.931 . S
H802 C775 0.930 . S
H803 C776 0.930 . S
H804 C795 0.930 . S
H805 C796 0.931 . S
H806 C797 0.930 . S
H807 C798 0.930 . S
Tb808 C818 2.825 . S
Tb808 O819 2.347 . S
Tb808 O822 2.366 . S
Tb808 O827 2.418 . S
Tb808 O828 2.384 . S
Tb808 O831 2.479 . S
Tb808 O832 2.471 . S
Eu809 O820 2.418 . S
Eu809 O821 2.384 . S
Eu809 O824 2.479 . S
Eu809 O825 2.471 . S
Eu809 O826 2.347 . S
Eu809 O829 2.366 . S
Eu809 C839 2.825 . S
C810 O826 1.259 . S
C810 O827 1.265 . S
C811 O828 1.255 . S
C811 O829 1.265 . S
C812 C814 1.380 . S
C812 C815 1.374 . S
C812 C818 1.507 . S
C813 C814 1.384 . S
C813 C817 1.387 . S
C813 H840 0.930 . S
C814 C812 1.380 . S
C814 C813 1.384 . S
C814 H841 0.931 . S
C815 C812 1.374 . S
C815 C816 1.390 . S
C815 H842 0.930 . S
C816 C815 1.390 . S
C816 C817 1.391 . S
C816 H843 0.930 . S
C817 C813 1.387 . S
C817 C816 1.391 . S
C818 Tb808 2.825 . S
C818 C812 1.507 . S
C818 O831 1.238 . S
C818 O832 1.247 . S
O819 Tb808 2.347 . S
O819 C823 1.259 . S
O820 Eu809 2.418 . S
O820 C823 1.265 . S
O821 Eu809 2.384 . S
O821 C830 1.255 . S
O822 Tb808 2.366 . S
O822 C830 1.265 . S
C823 O819 1.259 . S
C823 O820 1.265 . S
O824 Eu809 2.479 . S
O824 C839 1.238 . S
O825 Eu809 2.471 . S
O825 C839 1.247 . S
O826 Eu809 2.347 . S
O826 C810 1.259 . S
O827 Tb808 2.418 . S
O827 C810 1.265 . S
O828 Tb808 2.384 . S
O828 C811 1.255 . S
O829 Eu809 2.366 . S
O829 C811 1.265 . S
C830 O821 1.255 . S
C830 O822 1.265 . S
O831 Tb808 2.479 . S
O831 C818 1.238 . S
O832 Tb808 2.471 . S
O832 C818 1.247 . S
C833 C836 1.380 . S
C833 C837 1.374 . S
C833 C839 1.507 . S
C834 C835 1.387 . S
C834 C838 1.391 . S
C835 C834 1.387 . S
C835 C836 1.384 . S
C835 H844 0.930 . S
C836 C833 1.380 . S
C836 C835 1.384 . S
C836 H845 0.931 . S
C837 C833 1.374 . S
C837 C838 1.390 . S
C837 H846 0.930 . S
C838 C834 1.391 . S
C838 C837 1.390 . S
C838 H847 0.930 . S
C839 Eu809 2.825 . S
C839 O824 1.238 . S
C839 O825 1.247 . S
C839 C833 1.507 . S
H840 C813 0.930 . S
H841 C814 0.931 . S
H842 C815 0.930 . S
H843 C816 0.930 . S
H844 C835 0.930 . S
H845 C836 0.931 . S
H846 C837 0.930 . S
H847 C838 0.930 . S
Tb848 C858 2.825 . S
Tb848 O859 2.347 . S
Tb848 O862 2.366 . S
Tb848 O867 2.418 . S
Tb848 O868 2.384 . S
Tb848 O871 2.479 . S
Tb848 O872 2.471 . S
Eu849 O860 2.418 . S
Eu849 O861 2.384 . S
Eu849 O864 2.479 . S
Eu849 O865 2.471 . S
Eu849 O866 2.347 . S
Eu849 O869 2.366 . S
Eu849 C879 2.825 . S
C850 O866 1.259 . S
C850 O867 1.265 . S
C851 O868 1.255 . S
C851 O869 1.265 . S
C852 C854 1.380 . S
C852 C855 1.374 . S
C852 C858 1.507 . S
C853 C854 1.384 . S
C853 C857 1.387 . S
C853 H880 0.930 . S
C854 C852 1.380 . S
C854 C853 1.384 . S
C854 H881 0.931 . S
C855 C852 1.374 . S
C855 C856 1.390 . S
C855 H882 0.930 . S
C856 C855 1.390 . S
C856 C857 1.391 . S
C856 H883 0.930 . S
C857 C853 1.387 . S
C857 C856 1.391 . S
C858 Tb848 2.825 . S
C858 C852 1.507 . S
C858 O871 1.238 . S
C858 O872 1.247 . S
O859 Tb848 2.347 . S
O859 C863 1.259 . S
O860 Eu849 2.418 . S
O860 C863 1.265 . S
O861 Eu849 2.384 . S
O861 C870 1.255 . S
O862 Tb848 2.366 . S
O862 C870 1.265 . S
C863 O859 1.259 . S
C863 O860 1.265 . S
O864 Eu849 2.479 . S
O864 C879 1.238 . S
O865 Eu849 2.471 . S
O865 C879 1.247 . S
O866 Eu849 2.347 . S
O866 C850 1.259 . S
O867 Tb848 2.418 . S
O867 C850 1.265 . S
O868 Tb848 2.384 . S
O868 C851 1.255 . S
O869 Eu849 2.366 . S
O869 C851 1.265 . S
C870 O861 1.255 . S
C870 O862 1.265 . S
O871 Tb848 2.479 . S
O871 C858 1.238 . S
O872 Tb848 2.471 . S
O872 C858 1.247 . S
C873 C876 1.380 . S
C873 C877 1.374 . S
C873 C879 1.507 . S
C874 C875 1.387 . S
C874 C878 1.391 . S
C875 C874 1.387 . S
C875 C876 1.384 . S
C875 H884 0.930 . S
C876 C873 1.380 . S
C876 C875 1.384 . S
C876 H885 0.931 . S
C877 C873 1.374 . S
C877 C878 1.390 . S
C877 H886 0.930 . S
C878 C874 1.391 . S
C878 C877 1.390 . S
C878 H887 0.930 . S
C879 Eu849 2.825 . S
C879 O864 1.238 . S
C879 O865 1.247 . S
C879 C873 1.507 . S
H880 C853 0.930 . S
H881 C854 0.931 . S
H882 C855 0.930 . S
H883 C856 0.930 . S
H884 C875 0.930 . S
H885 C876 0.931 . S
H886 C877 0.930 . S
H887 C878 0.930 . S
Tb888 C898 2.825 . S
Tb888 O899 2.347 . S
Tb888 O902 2.366 . S
Tb888 O907 2.418 . S
Tb888 O908 2.384 . S
Tb888 O911 2.479 . S
Tb888 O912 2.471 . S
Eu889 O900 2.418 . S
Eu889 O901 2.384 . S
Eu889 O904 2.479 . S
Eu889 O905 2.471 . S
Eu889 O906 2.347 . S
Eu889 O909 2.366 . S
Eu889 C919 2.825 . S
C890 O906 1.259 . S
C890 O907 1.265 . S
C891 O908 1.255 . S
C891 O909 1.265 . S
C892 C894 1.380 . S
C892 C895 1.374 . S
C892 C898 1.507 . S
C893 C894 1.384 . S
C893 C897 1.387 . S
C893 H920 0.930 . S
C894 C892 1.380 . S
C894 C893 1.384 . S
C894 H921 0.931 . S
C895 C892 1.374 . S
C895 C896 1.390 . S
C895 H922 0.930 . S
C896 C895 1.390 . S
C896 C897 1.391 . S
C896 H923 0.930 . S
C897 C893 1.387 . S
C897 C896 1.391 . S
C898 Tb888 2.825 . S
C898 C892 1.507 . S
C898 O911 1.238 . S
C898 O912 1.247 . S
O899 Tb888 2.347 . S
O899 C903 1.259 . S
O900 Eu889 2.418 . S
O900 C903 1.265 . S
O901 Eu889 2.384 . S
O901 C910 1.255 . S
O902 Tb888 2.366 . S
O902 C910 1.265 . S
C903 O899 1.259 . S
C903 O900 1.265 . S
O904 Eu889 2.479 . S
O904 C919 1.238 . S
O905 Eu889 2.471 . S
O905 C919 1.247 . S
O906 Eu889 2.347 . S
O906 C890 1.259 . S
O907 Tb888 2.418 . S
O907 C890 1.265 . S
O908 Tb888 2.384 . S
O908 C891 1.255 . S
O909 Eu889 2.366 . S
O909 C891 1.265 . S
C910 O901 1.255 . S
C910 O902 1.265 . S
O911 Tb888 2.479 . S
O911 C898 1.238 . S
O912 Tb888 2.471 . S
O912 C898 1.247 . S
C913 C916 1.380 . S
C913 C917 1.374 . S
C913 C919 1.507 . S
C914 C915 1.387 . S
C914 C918 1.391 . S
C915 C914 1.387 . S
C915 C916 1.384 . S
C915 H924 0.930 . S
C916 C913 1.380 . S
C916 C915 1.384 . S
C916 H925 0.931 . S
C917 C913 1.374 . S
C917 C918 1.390 . S
C917 H926 0.930 . S
C918 C914 1.391 . S
C918 C917 1.390 . S
C918 H927 0.930 . S
C919 Eu889 2.825 . S
C919 O904 1.238 . S
C919 O905 1.247 . S
C919 C913 1.507 . S
H920 C893 0.930 . S
H921 C894 0.931 . S
H922 C895 0.930 . S
H923 C896 0.930 . S
H924 C915 0.930 . S
H925 C916 0.931 . S
H926 C917 0.930 . S
H927 C918 0.930 . S
Tb928 C938 2.825 . S
Tb928 O939 2.347 . S
Tb928 O942 2.366 . S
Tb928 O947 2.418 . S
Tb928 O948 2.384 . S
Tb928 O951 2.479 . S
Tb928 O952 2.471 . S
Eu929 O940 2.418 . S
Eu929 O941 2.384 . S
Eu929 O944 2.479 . S
Eu929 O945 2.471 . S
Eu929 O946 2.347 . S
Eu929 O949 2.366 . S
Eu929 C959 2.825 . S
C930 O946 1.259 . S
C930 O947 1.265 . S
C931 O948 1.255 . S
C931 O949 1.265 . S
C932 C934 1.380 . S
C932 C935 1.374 . S
C932 C938 1.507 . S
C933 C934 1.384 . S
C933 C937 1.387 . S
C933 H960 0.930 . S
C934 C932 1.380 . S
C934 C933 1.384 . S
C934 H961 0.931 . S
C935 C932 1.374 . S
C935 C936 1.390 . S
C935 H962 0.930 . S
C936 C935 1.390 . S
C936 C937 1.391 . S
C936 H963 0.930 . S
C937 C933 1.387 . S
C937 C936 1.391 . S
C938 Tb928 2.825 . S
C938 C932 1.507 . S
C938 O951 1.238 . S
C938 O952 1.247 . S
O939 Tb928 2.347 . S
O939 C943 1.259 . S
O940 Eu929 2.418 . S
O940 C943 1.265 . S
O941 Eu929 2.384 . S
O941 C950 1.255 . S
O942 Tb928 2.366 . S
O942 C950 1.265 . S
C943 O939 1.259 . S
C943 O940 1.265 . S
O944 Eu929 2.479 . S
O944 C959 1.238 . S
O945 Eu929 2.471 . S
O945 C959 1.247 . S
O946 Eu929 2.347 . S
O946 C930 1.259 . S
O947 Tb928 2.418 . S
O947 C930 1.265 . S
O948 Tb928 2.384 . S
O948 C931 1.255 . S
O949 Eu929 2.366 . S
O949 C931 1.265 . S
C950 O941 1.255 . S
C950 O942 1.265 . S
O951 Tb928 2.479 . S
O951 C938 1.238 . S
O952 Tb928 2.471 . S
O952 C938 1.247 . S
C953 C956 1.380 . S
C953 C957 1.374 . S
C953 C959 1.507 . S
C954 C955 1.387 . S
C954 C958 1.391 . S
C955 C954 1.387 . S
C955 C956 1.384 . S
C955 H964 0.930 . S
C956 C953 1.380 . S
C956 C955 1.384 . S
C956 H965 0.931 . S
C957 C953 1.374 . S
C957 C958 1.390 . S
C957 H966 0.930 . S
C958 C954 1.391 . S
C958 C957 1.390 . S
C958 H967 0.930 . S
C959 Eu929 2.825 . S
C959 O944 1.238 . S
C959 O945 1.247 . S
C959 C953 1.507 . S
H960 C933 0.930 . S
H961 C934 0.931 . S
H962 C935 0.930 . S
H963 C936 0.930 . S
H964 C955 0.930 . S
H965 C956 0.931 . S
H966 C957 0.930 . S
H967 C958 0.930 . S
Tb968 C978 2.825 . S
Tb968 O979 2.347 . S
Tb968 O982 2.366 . S
Tb968 O987 2.418 . S
Tb968 O988 2.384 . S
Tb968 O991 2.479 . S
Tb968 O992 2.471 . S
Eu969 O980 2.418 . S
Eu969 O981 2.384 . S
Eu969 O984 2.479 . S
Eu969 O985 2.471 . S
Eu969 O986 2.347 . S
Eu969 O989 2.366 . S
Eu969 C999 2.825 . S
C970 O986 1.259 . S
C970 O987 1.265 . S
C971 O988 1.255 . S
C971 O989 1.265 . S
C972 C974 1.380 . S
C972 C975 1.374 . S
C972 C978 1.507 . S
C973 C974 1.384 . S
C973 C977 1.387 . S
C973 H1000 0.930 . S
C974 C972 1.380 . S
C974 C973 1.384 . S
C974 H1001 0.931 . S
C975 C972 1.374 . S
C975 C976 1.390 . S
C975 H1002 0.930 . S
C976 C975 1.390 . S
C976 C977 1.391 . S
C976 H1003 0.930 . S
C977 C973 1.387 . S
C977 C976 1.391 . S
C978 Tb968 2.825 . S
C978 C972 1.507 . S
C978 O991 1.238 . S
C978 O992 1.247 . S
O979 Tb968 2.347 . S
O979 C983 1.259 . S
O980 Eu969 2.418 . S
O980 C983 1.265 . S
O981 Eu969 2.384 . S
O981 C990 1.255 . S
O982 Tb968 2.366 . S
O982 C990 1.265 . S
C983 O979 1.259 . S
C983 O980 1.265 . S
O984 Eu969 2.479 . S
O984 C999 1.238 . S
O985 Eu969 2.471 . S
O985 C999 1.247 . S
O986 Eu969 2.347 . S
O986 C970 1.259 . S
O987 Tb968 2.418 . S
O987 C970 1.265 . S
O988 Tb968 2.384 . S
O988 C971 1.255 . S
O989 Eu969 2.366 . S
O989 C971 1.265 . S
C990 O981 1.255 . S
C990 O982 1.265 . S
O991 Tb968 2.479 . S
O991 C978 1.238 . S
O992 Tb968 2.471 . S
O992 C978 1.247 . S
C993 C996 1.380 . S
C993 C997 1.374 . S
C993 C999 1.507 . S
C994 C995 1.387 . S
C994 C998 1.391 . S
C995 C994 1.387 . S
C995 C996 1.384 . S
C995 H1004 0.930 . S
C996 C993 1.380 . S
C996 C995 1.384 . S
C996 H1005 0.931 . S
C997 C993 1.374 . S
C997 C998 1.390 . S
C997 H1006 0.930 . S
C998 C994 1.391 . S
C998 C997 1.390 . S
C998 H1007 0.930 . S
C999 Eu969 2.825 . S
C999 O984 1.238 . S
C999 O985 1.247 . S
C999 C993 1.507 . S
H1000 C973 0.930 . S
H1001 C974 0.931 . S
H1002 C975 0.930 . S
H1003 C976 0.930 . S
H1004 C995 0.930 . S
H1005 C996 0.931 . S
H1006 C997 0.930 . S
H1007 C998 0.930 . S
H1008 C1014 0.930 . S
H1009 C1018 0.930 . S
H1010 C1023 0.929 . S
H1011 C1021 0.929 . S
H1012 C1016 0.929 . S
H1013 C1022 0.929 . S
C1014 H1008 0.930 . S
C1014 C1015 1.367 . S
C1014 C1022 1.378 . S
C1015 C1014 1.367 . S
C1015 C1023 1.433 . S
C1016 H1012 0.929 . S
C1016 C1018 1.378 . S
C1016 C1020 1.350 . S
C1017 C1020 1.463 . S
C1017 C1022 1.350 . S
C1017 N1025 1.427 . S
C1018 H1009 0.930 . S
C1018 C1016 1.378 . S
C1018 C1019 1.367 . S
C1019 C1018 1.367 . S
C1019 C1021 1.433 . S
C1020 C1016 1.350 . S
C1020 C1017 1.463 . S
C1020 N1024 1.427 . S
C1021 H1011 0.929 . S
C1021 C1019 1.433 . S
C1021 N1024 1.384 . S
C1022 H1013 0.929 . S
C1022 C1014 1.378 . S
C1022 C1017 1.350 . S
C1023 H1010 0.929 . S
C1023 C1015 1.433 . S
C1023 N1025 1.384 . S
N1024 C1020 1.427 . S
N1024 C1021 1.384 . S
N1025 C1017 1.427 . S
N1025 C1023 1.384 . S
H1026 C1032 0.930 . S
H1027 C1036 0.930 . S
H1028 C1041 0.929 . S
H1029 C1039 0.929 . S
H1030 C1034 0.929 . S
H1031 C1040 0.929 . S
C1032 H1026 0.930 . S
C1032 C1033 1.367 . S
C1032 C1040 1.378 . S
C1033 C1032 1.367 . S
C1033 C1041 1.433 . S
C1034 H1030 0.929 . S
C1034 C1036 1.378 . S
C1034 C1038 1.350 . S
C1035 C1038 1.463 . S
C1035 C1040 1.350 . S
C1035 N1043 1.427 . S
C1036 H1027 0.930 . S
C1036 C1034 1.378 . S
C1036 C1037 1.367 . S
C1037 C1036 1.367 . S
C1037 C1039 1.433 . S
C1038 C1034 1.350 . S
C1038 C1035 1.463 . S
C1038 N1042 1.427 . S
C1039 H1029 0.929 . S
C1039 C1037 1.433 . S
C1039 N1042 1.384 . S
C1040 H1031 0.929 . S
C1040 C1032 1.378 . S
C1040 C1035 1.350 . S
C1041 H1028 0.929 . S
C1041 C1033 1.433 . S
C1041 N1043 1.384 . S
N1042 C1038 1.427 . S
N1042 C1039 1.384 . S
N1043 C1035 1.427 . S
N1043 C1041 1.384 . S
H1044 C1050 0.930 . S
H1045 C1054 0.930 . S
H1046 C1059 0.929 . S
H1047 C1057 0.929 1_556 S
H1048 C1052 0.929 . S
H1049 C1058 0.929 . S
C1050 H1044 0.930 . S
C1050 C1051 1.367 . S
C1050 C1058 1.378 . S
C1051 C1050 1.367 . S
C1051 C1059 1.433 . S
C1052 H1048 0.929 . S
C1052 C1054 1.378 . S
C1052 C1056 1.350 . S
C1053 C1056 1.463 . S
C1053 C1058 1.350 . S
C1053 N1061 1.427 . S
C1054 H1045 0.930 . S
C1054 C1052 1.378 . S
C1054 C1055 1.367 . S
C1055 C1054 1.367 . S
C1055 C1057 1.433 . S
C1056 C1052 1.350 . S
C1056 C1053 1.463 . S
C1056 N1060 1.427 . S
C1057 H1047 0.929 1_554 S
C1057 C1055 1.433 . S
C1057 N1060 1.384 . S
C1058 H1049 0.929 . S
C1058 C1050 1.378 . S
C1058 C1053 1.350 . S
C1059 H1046 0.929 . S
C1059 C1051 1.433 . S
C1059 N1061 1.384 . S
N1060 C1056 1.427 . S
N1060 C1057 1.384 . S
N1061 C1053 1.427 . S
N1061 C1059 1.384 . S
H1062 C1068 0.930 . S
H1063 C1072 0.943 . S
H1064 C1077 0.929 . S
H1065 C1075 0.929 . S
H1066 C1070 0.929 1_554 S
H1067 C1076 0.929 . S
C1068 H1062 0.930 . S
C1068 C1069 1.367 . S
C1068 C1076 1.378 . S
C1069 C1068 1.367 . S
C1069 C1077 1.433 . S
C1070 H1066 0.929 1_556 S
C1070 C1072 1.375 1_556 S
C1070 C1074 1.350 . S
C1071 C1074 1.463 . S
C1071 C1076 1.350 . S
C1071 N1079 1.427 . S
C1072 H1063 0.943 . S
C1072 C1070 1.375 1_554 S
C1072 C1073 1.356 1_554 S
C1073 C1072 1.356 1_556 S
C1073 C1075 1.433 . S
C1074 C1070 1.350 . S
C1074 C1071 1.463 . S
C1074 N1078 1.427 . S
C1075 H1065 0.929 . S
C1075 C1073 1.433 . S
C1075 N1078 1.384 . S
C1076 H1067 0.929 . S
C1076 C1068 1.378 . S
C1076 C1071 1.350 . S
C1077 H1064 0.929 . S
C1077 C1069 1.433 . S
C1077 N1079 1.384 . S
N1078 C1074 1.427 . S
N1078 C1075 1.384 . S
N1079 C1071 1.427 . S
N1079 C1077 1.384 . S
H1080 C1086 0.930 . S
H1081 C1090 0.930 . S
H1082 C1095 0.929 . S
H1083 C1093 0.929 1_554 S
H1084 C1088 0.929 . S
H1085 C1094 0.929 . S
C1086 H1080 0.930 . S
C1086 C1087 1.367 . S
C1086 C1094 1.378 . S
C1087 C1086 1.367 . S
C1087 C1095 1.433 . S
C1088 H1084 0.929 . S
C1088 C1090 1.378 . S
C1088 C1092 1.350 . S
C1089 C1092 1.463 . S
C1089 C1094 1.350 . S
C1089 N1097 1.427 . S
C1090 H1081 0.930 . S
C1090 C1088 1.378 . S
C1090 C1091 1.367 . S
C1091 C1090 1.367 . S
C1091 C1093 1.433 . S
C1092 C1088 1.350 . S
C1092 C1089 1.463 . S
C1092 N1096 1.427 . S
C1093 H1083 0.929 1_556 S
C1093 C1091 1.433 . S
C1093 N1096 1.384 . S
C1094 H1085 0.929 . S
C1094 C1086 1.378 . S
C1094 C1089 1.350 . S
C1095 H1082 0.929 . S
C1095 C1087 1.433 . S
C1095 N1097 1.384 . S
N1096 C1092 1.427 . S
N1096 C1093 1.384 . S
N1097 C1089 1.427 . S
N1097 C1095 1.384 . S
H1098 C1104 0.930 . S
H1099 C1108 0.930 . S
H1100 C1113 0.929 . S
H1101 C1111 0.929 . S
H1102 C1106 0.929 1_554 S
H1103 C1112 0.929 . S
C1104 H1098 0.930 . S
C1104 C1105 1.367 . S
C1104 C1112 1.378 . S
C1105 C1104 1.367 . S
C1105 C1113 1.433 . S
C1106 H1102 0.929 1_556 S
C1106 C1108 1.378 1_556 S
C1106 C1110 1.349 . S
C1107 C1110 1.463 . S
C1107 C1112 1.350 . S
C1107 N1115 1.427 . S
C1108 H1099 0.930 . S
C1108 C1106 1.378 1_554 S
C1108 C1109 1.367 1_554 S
C1109 C1108 1.367 1_556 S
C1109 C1111 1.433 . S
C1110 C1106 1.349 . S
C1110 C1107 1.463 . S
C1110 N1114 1.427 . S
C1111 H1101 0.929 . S
C1111 C1109 1.433 . S
C1111 N1114 1.384 . S
C1112 H1103 0.929 . S
C1112 C1104 1.378 . S
C1112 C1107 1.350 . S
C1113 H1100 0.929 . S
C1113 C1105 1.433 . S
C1113 N1115 1.384 . S
N1114 C1110 1.427 . S
N1114 C1111 1.384 . S
N1115 C1107 1.427 . S
N1115 C1113 1.384 . S
H1116 C1122 0.930 . S
H1117 C1126 0.930 . S
H1118 C1131 0.929 . S
H1119 C1129 0.929 1_554 S
H1120 C1124 0.929 . S
H1121 C1130 0.929 . S
C1122 H1116 0.930 . S
C1122 C1123 1.367 . S
C1122 C1130 1.378 . S
C1123 C1122 1.367 . S
C1123 C1131 1.433 . S
C1124 H1120 0.929 . S
C1124 C1126 1.378 . S
C1124 C1128 1.350 . S
C1125 C1128 1.463 . S
C1125 C1130 1.350 . S
C1125 N1133 1.427 . S
C1126 H1117 0.930 . S
C1126 C1124 1.378 . S
C1126 C1127 1.367 . S
C1127 C1126 1.367 . S
C1127 C1129 1.433 . S
C1128 C1124 1.350 . S
C1128 C1125 1.463 . S
C1128 N1132 1.427 . S
C1129 H1119 0.929 1_556 S
C1129 C1127 1.433 . S
C1129 N1132 1.384 . S
C1130 H1121 0.929 . S
C1130 C1122 1.378 . S
C1130 C1125 1.350 . S
C1131 H1118 0.929 . S
C1131 C1123 1.433 . S
C1131 N1133 1.384 . S
N1132 C1128 1.427 . S
N1132 C1129 1.384 . S
N1133 C1125 1.427 . S
N1133 C1131 1.384 . S
H1134 C1140 0.930 . S
H1135 C1144 1.000 . S
H1136 C1149 0.929 . S
H1137 C1147 0.929 . S
H1138 C1142 0.929 . S
H1139 C1148 0.929 . S
C1140 H1134 0.930 . S
C1140 C1141 1.367 . S
C1140 C1148 1.378 . S
C1141 C1140 1.367 . S
C1141 C1149 1.433 . S
C1142 H1138 0.929 . S
C1142 C1144 1.378 . S
C1142 C1146 1.350 . S
C1143 C1146 1.463 . S
C1143 C1148 1.350 . S
C1143 N1151 1.427 . S
C1144 H1135 1.000 . S
C1144 C1142 1.378 . S
C1144 C1145 1.367 . S
C1145 C1144 1.367 . S
C1145 C1147 1.433 . S
C1146 C1142 1.350 . S
C1146 C1143 1.463 . S
C1146 N1150 1.427 . S
C1147 H1137 0.929 . S
C1147 C1145 1.433 . S
C1147 N1150 1.384 . S
C1148 H1139 0.929 . S
C1148 C1140 1.378 . S
C1148 C1143 1.350 . S
C1149 H1136 0.929 . S
C1149 C1141 1.433 . S
C1149 N1151 1.384 . S
N1150 C1146 1.427 . S
N1150 C1147 1.384 . S
N1151 C1143 1.427 . S
N1151 C1149 1.384 . S
H1152 C1158 0.930 . S
H1153 C1162 0.930 . S
H1154 C1167 0.929 . S
H1155 C1165 0.929 . S
H1156 C1160 0.929 . S
H1157 C1166 0.929 1_554 S
C1158 H1152 0.930 . S
C1158 C1159 1.367 . S
C1158 C1166 1.378 . S
C1159 C1158 1.367 . S
C1159 C1167 1.433 . S
C1160 H1156 0.929 . S
C1160 C1162 1.378 . S
C1160 C1164 1.350 . S
C1161 C1164 1.463 . S
C1161 C1166 1.350 . S
C1161 N1169 1.427 . S
C1162 H1153 0.930 . S
C1162 C1160 1.378 . S
C1162 C1163 1.367 . S
C1163 C1162 1.367 . S
C1163 C1165 1.433 1_556 S
C1164 C1160 1.350 . S
C1164 C1161 1.463 . S
C1164 N1168 1.434 . S
C1165 H1155 0.929 . S
C1165 C1163 1.433 1_554 S
C1165 N1168 1.383 1_554 S
C1166 H1157 0.929 1_556 S
C1166 C1158 1.378 . S
C1166 C1161 1.350 . S
C1167 H1154 0.929 . S
C1167 C1159 1.433 . S
C1167 N1169 1.384 . S
N1168 C1164 1.434 . S
N1168 C1165 1.383 1_556 S
N1169 C1161 1.427 . S
N1169 C1167 1.384 . S
H1170 C1176 0.930 . S
H1171 C1180 0.930 . S
H1172 C1185 0.929 . S
H1173 C1183 0.929 . S
H1174 C1178 0.929 . S
H1175 C1184 0.929 . S
C1176 H1170 0.930 . S
C1176 C1177 1.367 . S
C1176 C1184 1.378 . S
C1177 C1176 1.367 . S
C1177 C1185 1.433 . S
C1178 H1174 0.929 . S
C1178 C1180 1.378 . S
C1178 C1182 1.350 . S
C1179 C1182 1.463 . S
C1179 C1184 1.350 . S
C1179 N1187 1.427 . S
C1180 H1171 0.930 . S
C1180 C1178 1.378 . S
C1180 C1181 1.367 . S
C1181 C1180 1.367 . S
C1181 C1183 1.433 . S
C1182 C1178 1.350 . S
C1182 C1179 1.463 . S
C1182 N1186 1.427 . S
C1183 H1173 0.929 . S
C1183 C1181 1.433 . S
C1183 N1186 1.384 . S
C1184 H1175 0.929 . S
C1184 C1176 1.378 . S
C1184 C1179 1.350 . S
C1185 H1172 0.929 . S
C1185 C1177 1.433 . S
C1185 N1187 1.384 . S
N1186 C1182 1.427 . S
N1186 C1183 1.384 . S
N1187 C1179 1.427 . S
N1187 C1185 1.384 . S
H1188 C1194 0.930 . S
H1189 C1198 0.930 . S
H1190 C1203 0.929 . S
H1191 C1201 0.929 . S
H1192 C1196 0.929 . S
H1193 C1202 0.929 . S
C1194 H1188 0.930 . S
C1194 C1195 1.367 . S
C1194 C1202 1.378 . S
C1195 C1194 1.367 . S
C1195 C1203 1.433 . S
C1196 H1192 0.929 . S
C1196 C1198 1.378 . S
C1196 C1200 1.350 . S
C1197 C1200 1.463 . S
C1197 C1202 1.350 . S
C1197 N1205 1.427 . S
C1198 H1189 0.930 . S
C1198 C1196 1.378 . S
C1198 C1199 1.367 . S
C1199 C1198 1.367 . S
C1199 C1201 1.433 . S
C1200 C1196 1.350 . S
C1200 C1197 1.463 . S
C1200 N1204 1.427 . S
C1201 H1191 0.929 . S
C1201 C1199 1.433 . S
C1201 N1204 1.384 . S
C1202 H1193 0.929 . S
C1202 C1194 1.378 . S
C1202 C1197 1.350 . S
C1203 H1190 0.929 . S
C1203 C1195 1.433 . S
C1203 N1205 1.384 . S
N1204 C1200 1.427 . S
N1204 C1201 1.384 . S
N1205 C1197 1.427 . S
N1205 C1203 1.384 . S
H1206 C1212 0.930 . S
H1207 C1216 0.930 . S
H1208 C1221 0.929 . S
H1209 C1219 0.929 . S
H1210 C1214 0.929 . S
H1211 C1220 0.929 . S
C1212 H1206 0.930 . S
C1212 C1213 1.367 . S
C1212 C1220 1.378 . S
C1213 C1212 1.367 . S
C1213 C1221 1.433 . S
C1214 H1210 0.929 . S
C1214 C1216 1.378 . S
C1214 C1218 1.350 . S
C1215 C1218 1.463 . S
C1215 C1220 1.350 . S
C1215 N1223 1.427 . S
C1216 H1207 0.930 . S
C1216 C1214 1.378 . S
C1216 C1217 1.367 . S
C1217 C1216 1.367 . S
C1217 C1219 1.433 . S
C1218 C1214 1.350 . S
C1218 C1215 1.463 . S
C1218 N1222 1.427 . S
C1219 H1209 0.929 . S
C1219 C1217 1.433 . S
C1219 N1222 1.384 . S
C1220 H1211 0.929 . S
C1220 C1212 1.378 . S
C1220 C1215 1.350 . S
C1221 H1208 0.929 . S
C1221 C1213 1.433 . S
C1221 N1223 1.384 . S
N1222 C1218 1.427 . S
N1222 C1219 1.384 . S
N1223 C1215 1.427 . S
N1223 C1221 1.384 . S
H1224 C1230 0.930 . S
H1225 C1234 0.930 . S
H1226 C1239 0.929 . S
H1227 C1237 0.929 . S
H1228 C1232 0.929 . S
H1229 C1238 0.929 . S
C1230 H1224 0.930 . S
C1230 C1231 1.367 . S
C1230 C1238 1.378 1_655 S
C1231 C1230 1.367 . S
C1231 C1239 1.433 . S
C1232 H1228 0.929 . S
C1232 C1234 1.378 . S
C1232 C1236 1.350 . S
C1233 C1236 1.463 . S
C1233 C1238 1.350 . S
C1233 N1241 1.427 . S
C1234 H1225 0.930 . S
C1234 C1232 1.378 . S
C1234 C1235 1.367 . S
C1235 C1234 1.367 . S
C1235 C1237 1.433 . S
C1236 C1232 1.350 . S
C1236 C1233 1.463 . S
C1236 N1240 1.427 . S
C1237 H1227 0.929 . S
C1237 C1235 1.433 . S
C1237 N1240 1.384 . S
C1238 H1229 0.929 . S
C1238 C1230 1.378 1_455 S
C1238 C1233 1.350 . S
C1239 H1226 0.929 . S
C1239 C1231 1.433 . S
C1239 N1241 1.384 1_655 S
N1240 C1236 1.427 . S
N1240 C1237 1.384 . S
N1241 C1233 1.427 . S
N1241 C1239 1.384 1_455 S
H1242 C1248 0.930 . S
H1243 C1252 0.930 . S
H1244 C1257 0.929 . S
H1245 C1255 0.929 . S
H1246 C1250 0.929 . S
H1247 C1256 0.929 . S
C1248 H1242 0.930 . S
C1248 C1249 1.367 . S
C1248 C1256 1.378 . S
C1249 C1248 1.367 . S
C1249 C1257 1.433 . S
C1250 H1246 0.929 . S
C1250 C1252 1.378 . S
C1250 C1254 1.350 . S
C1251 C1254 1.463 . S
C1251 C1256 1.350 . S
C1251 N1259 1.427 . S
C1252 H1243 0.930 . S
C1252 C1250 1.378 . S
C1252 C1253 1.367 . S
C1253 C1252 1.367 . S
C1253 C1255 1.433 . S
C1254 C1250 1.350 . S
C1254 C1251 1.463 . S
C1254 N1258 1.427 . S
C1255 H1245 0.929 . S
C1255 C1253 1.433 . S
C1255 N1258 1.384 . S
C1256 H1247 0.929 . S
C1256 C1248 1.378 . S
C1256 C1251 1.350 . S
C1257 H1244 0.929 . S
C1257 C1249 1.433 . S
C1257 N1259 1.384 . S
N1258 C1254 1.427 . S
N1258 C1255 1.384 . S
N1259 C1251 1.427 . S
N1259 C1257 1.384 . S
H1260 C1266 0.930 . S
H1261 C1270 0.930 . S
H1262 C1275 0.929 . S
H1263 C1273 0.929 . S
H1264 C1268 0.929 . S
H1265 C1274 0.929 1_565 S
C1266 H1260 0.930 . S
C1266 C1267 1.367 . S
C1266 C1274 1.378 . S
C1267 C1266 1.367 . S
C1267 C1275 1.433 . S
C1268 H1264 0.929 . S
C1268 C1270 1.378 . S
C1268 C1272 1.350 . S
C1269 C1272 1.463 . S
C1269 C1274 1.350 1_565 S
C1269 N1277 1.427 1_565 S
C1270 H1261 0.930 . S
C1270 C1268 1.378 . S
C1270 C1271 1.367 . S
C1271 C1270 1.367 . S
C1271 C1273 1.433 . S
C1272 C1268 1.350 . S
C1272 C1269 1.463 . S
C1272 N1276 1.427 . S
C1273 H1263 0.929 . S
C1273 C1271 1.433 . S
C1273 N1276 1.384 . S
C1274 H1265 0.929 1_545 S
C1274 C1266 1.378 . S
C1274 C1269 1.350 1_545 S
C1275 H1262 0.929 . S
C1275 C1267 1.433 . S
C1275 N1277 1.384 . S
N1276 C1272 1.427 . S
N1276 C1273 1.384 . S
N1277 C1269 1.427 1_545 S
N1277 C1275 1.384 . S
H1278 C1284 0.930 . S
H1279 C1288 0.930 . S
H1280 C1293 0.929 . S
H1281 C1291 0.929 . S
H1282 C1286 0.929 . S
H1283 C1292 0.929 . S
C1284 H1278 0.930 . S
C1284 C1285 1.367 . S
C1284 C1292 1.378 . S
C1285 C1284 1.367 . S
C1285 C1293 1.433 . S
C1286 H1282 0.929 . S
C1286 C1288 1.378 . S
C1286 C1290 1.350 . S
C1287 C1290 1.463 . S
C1287 C1292 1.350 . S
C1287 N1295 1.427 . S
C1288 H1279 0.930 . S
C1288 C1286 1.378 . S
C1288 C1289 1.367 . S
C1289 C1288 1.367 . S
C1289 C1291 1.433 . S
C1290 C1286 1.350 . S
C1290 C1287 1.463 . S
C1290 N1294 1.427 . S
C1291 H1281 0.929 . S
C1291 C1289 1.433 . S
C1291 N1294 1.384 . S
C1292 H1283 0.929 . S
C1292 C1284 1.378 . S
C1292 C1287 1.350 . S
C1293 H1280 0.929 . S
C1293 C1285 1.433 . S
C1293 N1295 1.384 . S
N1294 C1290 1.427 . S
N1294 C1291 1.384 . S
N1295 C1287 1.427 . S
N1295 C1293 1.384 . S
H1296 C1302 0.930 . S
H1297 C1306 0.930 . S
H1298 C1311 0.929 . S
H1299 C1309 0.929 . S
H1300 C1304 0.929 . S
H1301 C1310 0.929 . S
C1302 H1296 0.930 . S
C1302 C1303 1.367 . S
C1302 C1310 1.378 . S
C1303 C1302 1.367 . S
C1303 C1311 1.433 . S
C1304 H1300 0.929 . S
C1304 C1306 1.378 . S
C1304 C1308 1.350 . S
C1305 C1308 1.463 . S
C1305 C1310 1.350 . S
C1305 N1313 1.427 . S
C1306 H1297 0.930 . S
C1306 C1304 1.378 . S
C1306 C1307 1.367 . S
C1307 C1306 1.367 . S
C1307 C1309 1.433 . S
C1308 C1304 1.350 . S
C1308 C1305 1.463 . S
C1308 N1312 1.427 . S
C1309 H1299 0.929 . S
C1309 C1307 1.433 . S
C1309 N1312 1.384 . S
C1310 H1301 0.929 . S
C1310 C1302 1.378 . S
C1310 C1305 1.350 . S
C1311 H1298 0.929 . S
C1311 C1303 1.433 . S
C1311 N1313 1.384 . S
N1312 C1308 1.427 . S
N1312 C1309 1.384 . S
N1313 C1305 1.427 . S
N1313 C1311 1.384 . S
H1314 C1320 0.930 . S
H1315 C1324 0.930 . S
H1316 C1329 0.929 . S
H1317 C1327 0.929 . S
H1318 C1322 0.929 . S
H1319 C1328 0.929 . S
C1320 H1314 0.930 . S
C1320 C1321 1.367 . S
C1320 C1328 1.378 . S
C1321 C1320 1.367 . S
C1321 C1329 1.433 . S
C1322 H1318 0.929 . S
C1322 C1324 1.378 . S
C1322 C1326 1.350 . S
C1323 C1326 1.463 . S
C1323 C1328 1.350 . S
C1323 N1331 1.427 . S
C1324 H1315 0.930 . S
C1324 C1322 1.378 . S
C1324 C1325 1.367 . S
C1325 C1324 1.367 . S
C1325 C1327 1.433 . S
C1326 C1322 1.350 . S
C1326 C1323 1.463 . S
C1326 N1330 1.427 . S
C1327 H1317 0.929 . S
C1327 C1325 1.433 . S
C1327 N1330 1.384 . S
C1328 H1319 0.929 . S
C1328 C1320 1.378 . S
C1328 C1323 1.350 . S
C1329 H1316 0.929 . S
C1329 C1321 1.433 . S
C1329 N1331 1.384 . S
N1330 C1326 1.427 . S
N1330 C1327 1.384 . S
N1331 C1323 1.427 . S
N1331 C1329 1.384 . S
H1332 C1338 0.930 . S
H1333 C1342 0.930 . S
H1334 C1347 0.929 . S
H1335 C1345 0.929 . S
H1336 C1340 0.929 . S
H1337 C1346 0.929 . S
C1338 H1332 0.930 . S
C1338 C1339 1.367 . S
C1338 C1346 1.378 . S
C1339 C1338 1.367 . S
C1339 C1347 1.433 . S
C1340 H1336 0.929 . S
C1340 C1342 1.378 . S
C1340 C1344 1.350 . S
C1341 C1344 1.463 . S
C1341 C1346 1.350 . S
C1341 N1349 1.427 . S
C1342 H1333 0.930 . S
C1342 C1340 1.378 . S
C1342 C1343 1.367 . S
C1343 C1342 1.367 . S
C1343 C1345 1.433 . S
C1344 C1340 1.350 . S
C1344 C1341 1.463 . S
C1344 N1348 1.427 . S
C1345 H1335 0.929 . S
C1345 C1343 1.433 . S
C1345 N1348 1.384 . S
C1346 H1337 0.929 . S
C1346 C1338 1.378 . S
C1346 C1341 1.350 . S
C1347 H1334 0.929 . S
C1347 C1339 1.433 . S
C1347 N1349 1.384 . S
N1348 C1344 1.427 . S
N1348 C1345 1.384 . S
N1349 C1341 1.427 . S
N1349 C1347 1.384 . S
H1350 C1356 0.930 . S
H1351 C1360 0.930 . S
H1352 C1365 0.929 . S
H1353 C1363 0.929 . S
H1354 C1358 0.929 . S
H1355 C1364 0.929 . S
C1356 H1350 0.930 . S
C1356 C1357 1.367 . S
C1356 C1364 1.378 . S
C1357 C1356 1.367 . S
C1357 C1365 1.433 . S
C1358 H1354 0.929 . S
C1358 C1360 1.378 . S
C1358 C1362 1.350 . S
C1359 C1362 1.463 . S
C1359 C1364 1.350 . S
C1359 N1367 1.427 . S
C1360 H1351 0.930 . S
C1360 C1358 1.378 . S
C1360 C1361 1.367 . S
C1361 C1360 1.367 . S
C1361 C1363 1.433 . S
C1362 C1358 1.350 . S
C1362 C1359 1.463 . S
C1362 N1366 1.427 . S
C1363 H1353 0.929 . S
C1363 C1361 1.433 . S
C1363 N1366 1.384 . S
C1364 H1355 0.929 . S
C1364 C1356 1.378 . S
C1364 C1359 1.350 . S
C1365 H1352 0.929 . S
C1365 C1357 1.433 . S
C1365 N1367 1.384 . S
N1366 C1362 1.427 . S
N1366 C1363 1.384 . S
N1367 C1359 1.427 . S
N1367 C1365 1.384 . S
H1368 C1374 0.930 . S
H1369 C1378 0.930 . S
H1370 C1383 0.929 . S
H1371 C1381 0.929 . S
H1372 C1376 0.929 . S
H1373 C1382 0.929 . S
C1374 H1368 0.930 . S
C1374 C1375 1.367 . S
C1374 C1382 1.378 . S
C1375 C1374 1.367 . S
C1375 C1383 1.433 . S
C1376 H1372 0.929 . S
C1376 C1378 1.378 . S
C1376 C1380 1.350 . S
C1377 C1380 1.463 . S
C1377 C1382 1.350 . S
C1377 N1385 1.427 . S
C1378 H1369 0.930 . S
C1378 C1376 1.378 . S
C1378 C1379 1.367 . S
C1379 C1378 1.367 . S
C1379 C1381 1.433 . S
C1380 C1376 1.350 . S
C1380 C1377 1.463 . S
C1380 N1384 1.427 . S
C1381 H1371 0.929 . S
C1381 C1379 1.433 . S
C1381 N1384 1.384 . S
C1382 H1373 0.929 . S
C1382 C1374 1.378 . S
C1382 C1377 1.350 . S
C1383 H1370 0.929 . S
C1383 C1375 1.433 . S
C1383 N1385 1.384 . S
N1384 C1380 1.427 . S
N1384 C1381 1.384 . S
N1385 C1377 1.427 . S
N1385 C1383 1.384 . S
H1386 C1392 0.930 . S
H1387 C1396 0.930 . S
H1388 C1401 0.929 . S
H1389 C1399 0.929 . S
H1390 C1394 0.929 . S
H1391 C1400 0.929 . S
C1392 H1386 0.930 . S
C1392 C1393 1.367 . S
C1392 C1400 1.378 1_545 S
C1393 C1392 1.367 . S
C1393 C1401 1.433 . S
C1394 H1390 0.929 . S
C1394 C1396 1.378 . S
C1394 C1398 1.350 . S
C1395 C1398 1.463 . S
C1395 C1400 1.350 . S
C1395 N1403 1.430 . S
C1396 H1387 0.930 . S
C1396 C1394 1.378 . S
C1396 C1397 1.367 . S
C1397 C1396 1.367 . S
C1397 C1399 1.433 . S
C1398 C1394 1.350 . S
C1398 C1395 1.463 . S
C1398 N1402 1.427 . S
C1399 H1389 0.929 . S
C1399 C1397 1.433 . S
C1399 N1402 1.384 . S
C1400 H1391 0.929 . S
C1400 C1392 1.378 1_565 S
C1400 C1395 1.350 . S
C1401 H1388 0.929 . S
C1401 C1393 1.433 . S
C1401 N1403 1.366 1_545 S
N1402 C1398 1.427 . S
N1402 C1399 1.384 . S
N1403 C1395 1.430 . S
N1403 C1401 1.366 1_565 S
H1404 C1410 0.934 . S
H1405 C1414 0.930 . S
H1406 C1419 0.929 1_655 S
H1407 C1417 0.929 . S
H1408 C1412 0.929 . S
H1409 C1418 0.929 . S
C1410 H1404 0.934 . S
C1410 C1411 1.401 . S
C1410 C1418 1.342 1_655 S
C1411 C1410 1.401 . S
C1411 C1419 1.433 1_655 S
C1412 H1408 0.929 . S
C1412 C1414 1.378 . S
C1412 C1416 1.350 . S
C1413 C1416 1.463 . S
C1413 C1418 1.350 . S
C1413 N1421 1.427 . S
C1414 H1405 0.930 . S
C1414 C1412 1.378 . S
C1414 C1415 1.367 . S
C1415 C1414 1.367 . S
C1415 C1417 1.433 . S
C1416 C1412 1.350 . S
C1416 C1413 1.463 . S
C1416 N1420 1.427 . S
C1417 H1407 0.929 . S
C1417 C1415 1.433 . S
C1417 N1420 1.384 . S
C1418 H1409 0.929 . S
C1418 C1410 1.342 1_455 S
C1418 C1413 1.350 . S
C1419 H1406 0.929 1_455 S
C1419 C1411 1.433 1_455 S
C1419 N1421 1.384 . S
N1420 C1416 1.427 . S
N1420 C1417 1.384 . S
N1421 C1413 1.427 . S
N1421 C1419 1.384 . S
H1422 C1428 0.930 . S
H1423 C1432 0.930 . S
H1424 C1437 0.929 . S
H1425 C1435 0.929 . S
H1426 C1430 0.929 . S
H1427 C1436 0.929 . S
C1428 H1422 0.930 . S
C1428 C1429 1.367 . S
C1428 C1436 1.378 . S
C1429 C1428 1.367 . S
C1429 C1437 1.433 . S
C1430 H1426 0.929 . S
C1430 C1432 1.378 . S
C1430 C1434 1.350 . S
C1431 C1434 1.463 . S
C1431 C1436 1.350 . S
C1431 N1439 1.427 . S
C1432 H1423 0.930 . S
C1432 C1430 1.378 . S
C1432 C1433 1.367 . S
C1433 C1432 1.367 . S
C1433 C1435 1.433 . S
C1434 C1430 1.350 . S
C1434 C1431 1.463 . S
C1434 N1438 1.427 . S
C1435 H1425 0.929 . S
C1435 C1433 1.433 . S
C1435 N1438 1.384 . S
C1436 H1427 0.929 . S
C1436 C1428 1.378 . S
C1436 C1431 1.350 . S
C1437 H1424 0.929 . S
C1437 C1429 1.433 . S
C1437 N1439 1.384 . S
N1438 C1434 1.427 . S
N1438 C1435 1.384 . S
N1439 C1431 1.427 . S
N1439 C1437 1.384 . S
H1440 C1446 0.930 . S
H1441 C1450 0.930 . S
H1442 C1455 0.929 . S
H1443 C1453 0.929 . S
H1444 C1448 0.929 . S
H1445 C1454 0.929 . S
C1446 H1440 0.930 . S
C1446 C1447 1.367 . S
C1446 C1454 1.378 . S
C1447 C1446 1.367 . S
C1447 C1455 1.433 . S
C1448 H1444 0.929 . S
C1448 C1450 1.378 . S
C1448 C1452 1.350 . S
C1449 C1452 1.463 . S
C1449 C1454 1.350 . S
C1449 N1457 1.427 . S
C1450 H1441 0.930 . S
C1450 C1448 1.378 . S
C1450 C1451 1.367 . S
C1451 C1450 1.367 . S
C1451 C1453 1.433 . S
C1452 C1448 1.350 . S
C1452 C1449 1.463 . S
C1452 N1456 1.427 . S
C1453 H1443 0.929 . S
C1453 C1451 1.433 . S
C1453 N1456 1.384 . S
C1454 H1445 0.929 . S
C1454 C1446 1.378 . S
C1454 C1449 1.350 . S
C1455 H1442 0.929 . S
C1455 C1447 1.433 . S
C1455 N1457 1.384 . S
N1456 C1452 1.427 . S
N1456 C1453 1.384 . S
N1457 C1449 1.427 . S
N1457 C1455 1.384 . S
H1458 C1464 0.930 . S
H1459 C1468 0.930 . S
H1460 C1473 0.929 . S
H1461 C1471 0.929 . S
H1462 C1466 0.929 . S
H1463 C1472 0.929 . S
C1464 H1458 0.930 . S
C1464 C1465 1.367 . S
C1464 C1472 1.378 . S
C1465 C1464 1.367 . S
C1465 C1473 1.433 . S
C1466 H1462 0.929 . S
C1466 C1468 1.378 . S
C1466 C1470 1.350 . S
C1467 C1470 1.463 . S
C1467 C1472 1.350 . S
C1467 N1475 1.427 . S
C1468 H1459 0.930 . S
C1468 C1466 1.378 . S
C1468 C1469 1.367 . S
C1469 C1468 1.367 . S
C1469 C1471 1.433 . S
C1470 C1466 1.350 . S
C1470 C1467 1.463 . S
C1470 N1474 1.427 . S
C1471 H1461 0.929 . S
C1471 C1469 1.433 . S
C1471 N1474 1.384 . S
C1472 H1463 0.929 . S
C1472 C1464 1.378 . S
C1472 C1467 1.350 . S
C1473 H1460 0.929 . S
C1473 C1465 1.433 . S
C1473 N1475 1.384 . S
N1474 C1470 1.427 . S
N1474 C1471 1.384 . S
N1475 C1467 1.427 . S
N1475 C1473 1.384 . S
H1476 C1482 0.930 . S
H1477 C1486 0.930 . S
H1478 C1491 0.929 . S
H1479 C1489 0.929 . S
H1480 C1484 0.929 . S
H1481 C1490 0.929 . S
C1482 H1476 0.930 . S
C1482 C1483 1.367 . S
C1482 C1490 1.378 . S
C1483 C1482 1.367 . S
C1483 C1491 1.433 . S
C1484 H1480 0.929 . S
C1484 C1486 1.378 . S
C1484 C1488 1.350 . S
C1485 C1488 1.463 . S
C1485 C1490 1.350 . S
C1485 N1493 1.427 . S
C1486 H1477 0.930 . S
C1486 C1484 1.378 . S
C1486 C1487 1.367 . S
C1487 C1486 1.367 . S
C1487 C1489 1.433 . S
C1488 C1484 1.350 . S
C1488 C1485 1.463 . S
C1488 N1492 1.427 . S
C1489 H1479 0.929 . S
C1489 C1487 1.433 . S
C1489 N1492 1.384 . S
C1490 H1481 0.929 . S
C1490 C1482 1.378 . S
C1490 C1485 1.350 . S
C1491 H1478 0.929 . S
C1491 C1483 1.433 . S
C1491 N1493 1.384 . S
N1492 C1488 1.427 . S
N1492 C1489 1.384 . S
N1493 C1485 1.427 . S
N1493 C1491 1.384 . S
H1494 C1500 0.930 . S
H1495 C1504 0.930 . S
H1496 C1509 0.929 . S
H1497 C1507 0.929 . S
H1498 C1502 0.929 . S
H1499 C1508 0.928 1_545 S
C1500 H1494 0.930 . S
C1500 C1501 1.367 . S
C1500 C1508 1.390 . S
C1501 C1500 1.367 . S
C1501 C1509 1.433 . S
C1502 H1498 0.929 . S
C1502 C1504 1.378 . S
C1502 C1506 1.350 . S
C1503 C1506 1.463 . S
C1503 C1508 1.339 1_545 S
C1503 N1511 1.427 . S
C1504 H1495 0.930 . S
C1504 C1502 1.378 . S
C1504 C1505 1.367 . S
C1505 C1504 1.367 . S
C1505 C1507 1.433 . S
C1506 C1502 1.350 . S
C1506 C1503 1.463 . S
C1506 N1510 1.427 . S
C1507 H1497 0.929 . S
C1507 C1505 1.433 . S
C1507 N1510 1.384 . S
C1508 H1499 0.928 1_565 S
C1508 C1500 1.390 . S
C1508 C1503 1.339 1_565 S
C1509 H1496 0.929 . S
C1509 C1501 1.433 . S
C1509 N1511 1.384 1_565 S
N1510 C1506 1.427 . S
N1510 C1507 1.384 . S
N1511 C1503 1.427 . S
N1511 C1509 1.384 1_545 S
H1512 C1518 0.930 . S
H1513 C1522 0.930 . S
H1514 C1527 0.929 . S
H1515 C1525 0.929 . S
H1516 C1520 0.929 . S
H1517 C1526 0.929 . S
C1518 H1512 0.930 . S
C1518 C1519 1.367 1_655 S
C1518 C1526 1.378 . S
C1519 C1518 1.367 1_455 S
C1519 C1527 1.433 . S
C1520 H1516 0.929 . S
C1520 C1522 1.378 . S
C1520 C1524 1.350 . S
C1521 C1524 1.463 . S
C1521 C1526 1.350 . S
C1521 N1529 1.427 . S
C1522 H1513 0.930 . S
C1522 C1520 1.378 . S
C1522 C1523 1.367 . S
C1523 C1522 1.367 . S
C1523 C1525 1.433 . S
C1524 C1520 1.350 . S
C1524 C1521 1.463 . S
C1524 N1528 1.427 . S
C1525 H1515 0.929 . S
C1525 C1523 1.433 . S
C1525 N1528 1.384 . S
C1526 H1517 0.929 . S
C1526 C1518 1.378 . S
C1526 C1521 1.350 . S
C1527 H1514 0.929 . S
C1527 C1519 1.433 . S
C1527 N1529 1.384 1_455 S
N1528 C1524 1.427 . S
N1528 C1525 1.384 . S
N1529 C1521 1.427 . S
N1529 C1527 1.384 1_655 S
H1530 C1536 0.930 . S
H1531 C1540 0.930 . S
H1532 C1545 0.929 . S
H1533 C1543 0.929 . S
H1534 C1538 0.929 . S
H1535 C1544 0.929 . S
C1536 H1530 0.930 . S
C1536 C1537 1.367 . S
C1536 C1544 1.378 . S
C1537 C1536 1.367 . S
C1537 C1545 1.433 . S
C1538 H1534 0.929 . S
C1538 C1540 1.378 . S
C1538 C1542 1.350 . S
C1539 C1542 1.463 . S
C1539 C1544 1.350 . S
C1539 N1547 1.427 . S
C1540 H1531 0.930 . S
C1540 C1538 1.378 . S
C1540 C1541 1.367 . S
C1541 C1540 1.367 . S
C1541 C1543 1.433 . S
C1542 C1538 1.350 . S
C1542 C1539 1.463 . S
C1542 N1546 1.427 . S
C1543 H1533 0.929 . S
C1543 C1541 1.433 . S
C1543 N1546 1.384 . S
C1544 H1535 0.929 . S
C1544 C1536 1.378 . S
C1544 C1539 1.350 . S
C1545 H1532 0.929 . S
C1545 C1537 1.433 . S
C1545 N1547 1.384 . S
N1546 C1542 1.427 . S
N1546 C1543 1.384 . S
N1547 C1539 1.427 . S
N1547 C1545 1.384 . S
H1548 C1554 0.930 . S
H1549 C1558 0.930 . S
H1550 C1563 0.929 . S
H1551 C1561 0.929 . S
H1552 C1556 0.929 . S
H1553 C1562 0.929 . S
C1554 H1548 0.930 . S
C1554 C1555 1.367 . S
C1554 C1562 1.378 1_455 S
C1555 C1554 1.367 . S
C1555 C1563 1.433 . S
C1556 H1552 0.929 . S
C1556 C1558 1.378 . S
C1556 C1560 1.350 . S
C1557 C1560 1.463 . S
C1557 C1562 1.350 . S
C1557 N1565 1.427 . S
C1558 H1549 0.930 . S
C1558 C1556 1.378 . S
C1558 C1559 1.367 . S
C1559 C1558 1.367 . S
C1559 C1561 1.433 . S
C1560 C1556 1.350 . S
C1560 C1557 1.463 . S
C1560 N1564 1.427 . S
C1561 H1551 0.929 . S
C1561 C1559 1.433 . S
C1561 N1564 1.384 . S
C1562 H1553 0.929 . S
C1562 C1554 1.378 1_655 S
C1562 C1557 1.350 . S
C1563 H1550 0.929 . S
C1563 C1555 1.433 . S
C1563 N1565 1.384 1_455 S
N1564 C1560 1.427 . S
N1564 C1561 1.384 . S
N1565 C1557 1.427 . S
N1565 C1563 1.384 1_655 S
H1566 C1572 0.930 . S
H1567 C1576 0.930 . S
H1568 C1581 0.929 . S
H1569 C1579 0.929 . S
H1570 C1574 0.929 . S
H1571 C1580 0.929 . S
C1572 H1566 0.930 . S
C1572 C1573 1.367 . S
C1572 C1580 1.378 . S
C1573 C1572 1.367 . S
C1573 C1581 1.433 . S
C1574 H1570 0.929 . S
C1574 C1576 1.378 . S
C1574 C1578 1.350 . S
C1575 C1578 1.463 . S
C1575 C1580 1.350 . S
C1575 N1583 1.427 . S
C1576 H1567 0.930 . S
C1576 C1574 1.378 . S
C1576 C1577 1.367 . S
C1577 C1576 1.367 . S
C1577 C1579 1.433 . S
C1578 C1574 1.350 . S
C1578 C1575 1.463 . S
C1578 N1582 1.427 . S
C1579 H1569 0.929 . S
C1579 C1577 1.433 . S
C1579 N1582 1.384 . S
C1580 H1571 0.929 . S
C1580 C1572 1.378 . S
C1580 C1575 1.350 . S
C1581 H1568 0.929 . S
C1581 C1573 1.433 . S
C1581 N1583 1.384 . S
N1582 C1578 1.427 . S
N1582 C1579 1.384 . S
N1583 C1575 1.427 . S
N1583 C1581 1.384 . S
H1584 C1590 0.930 . S
H1585 C1594 0.930 . S
H1586 C1599 0.929 . S
H1587 C1597 0.929 . S
H1588 C1592 0.929 . S
H1589 C1598 0.930 1_545 S
C1590 H1584 0.930 . S
C1590 C1591 1.367 . S
C1590 C1598 1.376 . S
C1591 C1590 1.367 . S
C1591 C1599 1.433 . S
C1592 H1588 0.929 . S
C1592 C1594 1.378 . S
C1592 C1596 1.350 . S
C1593 C1596 1.463 . S
C1593 C1598 1.350 1_545 S
C1593 N1601 1.427 1_545 S
C1594 H1585 0.930 . S
C1594 C1592 1.378 . S
C1594 C1595 1.367 . S
C1595 C1594 1.367 . S
C1595 C1597 1.433 . S
C1596 C1592 1.350 . S
C1596 C1593 1.463 . S
C1596 N1600 1.427 . S
C1597 H1587 0.929 . S
C1597 C1595 1.433 . S
C1597 N1600 1.384 . S
C1598 H1589 0.930 1_565 S
C1598 C1590 1.376 . S
C1598 C1593 1.350 1_565 S
C1599 H1586 0.929 . S
C1599 C1591 1.433 . S
C1599 N1601 1.384 . S
N1600 C1596 1.427 . S
N1600 C1597 1.384 . S
N1601 C1593 1.427 1_565 S
N1601 C1599 1.384 . S
H1602 C1608 0.930 . S
H1603 C1612 0.930 . S
H1604 C1617 0.929 . S
H1605 C1615 0.929 . S
H1606 C1610 0.929 . S
H1607 C1616 0.929 . S
C1608 H1602 0.930 . S
C1608 C1609 1.367 . S
C1608 C1616 1.378 . S
C1609 C1608 1.367 . S
C1609 C1617 1.433 . S
C1610 H1606 0.929 . S
C1610 C1612 1.378 . S
C1610 C1614 1.350 . S
C1611 C1614 1.463 . S
C1611 C1616 1.350 . S
C1611 N1619 1.427 . S
C1612 H1603 0.930 . S
C1612 C1610 1.378 . S
C1612 C1613 1.367 . S
C1613 C1612 1.367 . S
C1613 C1615 1.433 . S
C1614 C1610 1.350 . S
C1614 C1611 1.463 . S
C1614 N1618 1.427 . S
C1615 H1605 0.929 . S
C1615 C1613 1.433 . S
C1615 N1618 1.384 . S
C1616 H1607 0.929 . S
C1616 C1608 1.378 . S
C1616 C1611 1.350 . S
C1617 H1604 0.929 . S
C1617 C1609 1.433 . S
C1617 N1619 1.384 . S
N1618 C1614 1.427 . S
N1618 C1615 1.384 . S
N1619 C1611 1.427 . S
N1619 C1617 1.384 . S
H1620 C1626 0.930 . S
H1621 C1630 0.930 . S
H1622 C1635 0.929 . S
H1623 C1633 0.929 . S
H1624 C1628 0.929 . S
H1625 C1634 0.929 . S
C1626 H1620 0.930 . S
C1626 C1627 1.367 . S
C1626 C1634 1.378 . S
C1627 C1626 1.367 . S
C1627 C1635 1.433 . S
C1628 H1624 0.929 . S
C1628 C1630 1.378 . S
C1628 C1632 1.350 . S
C1629 C1632 1.463 . S
C1629 C1634 1.350 . S
C1629 N1637 1.427 . S
C1630 H1621 0.930 . S
C1630 C1628 1.378 . S
C1630 C1631 1.367 . S
C1631 C1630 1.367 . S
C1631 C1633 1.433 . S
C1632 C1628 1.350 . S
C1632 C1629 1.463 . S
C1632 N1636 1.427 . S
C1633 H1623 0.929 . S
C1633 C1631 1.433 . S
C1633 N1636 1.384 . S
C1634 H1625 0.929 . S
C1634 C1626 1.378 . S
C1634 C1629 1.350 . S
C1635 H1622 0.929 . S
C1635 C1627 1.433 . S
C1635 N1637 1.384 . S
N1636 C1632 1.427 . S
N1636 C1633 1.384 . S
N1637 C1629 1.427 . S
N1637 C1635 1.384 . S
H1638 C1644 0.930 . S
H1639 C1648 0.930 . S
H1640 C1653 0.929 . S
H1641 C1651 0.929 . S
H1642 C1646 0.929 . S
H1643 C1652 0.929 . S
C1644 H1638 0.930 . S
C1644 C1645 1.367 . S
C1644 C1652 1.378 . S
C1645 C1644 1.367 . S
C1645 C1653 1.433 . S
C1646 H1642 0.929 . S
C1646 C1648 1.378 . S
C1646 C1650 1.350 . S
C1647 C1650 1.463 . S
C1647 C1652 1.350 . S
C1647 N1655 1.427 . S
C1648 H1639 0.930 . S
C1648 C1646 1.378 . S
C1648 C1649 1.367 . S
C1649 C1648 1.367 . S
C1649 C1651 1.433 . S
C1650 C1646 1.350 . S
C1650 C1647 1.463 . S
C1650 N1654 1.427 . S
C1651 H1641 0.929 . S
C1651 C1649 1.433 . S
C1651 N1654 1.384 . S
C1652 H1643 0.929 . S
C1652 C1644 1.378 . S
C1652 C1647 1.350 . S
C1653 H1640 0.929 . S
C1653 C1645 1.433 . S
C1653 N1655 1.384 . S
N1654 C1650 1.427 . S
N1654 C1651 1.384 . S
N1655 C1647 1.427 . S
N1655 C1653 1.384 . S
H1656 C1662 0.930 . S
H1657 C1666 0.930 . S
H1658 C1671 0.929 . S
H1659 C1669 0.929 . S
H1660 C1664 0.929 . S
H1661 C1670 0.929 . S
C1662 H1656 0.930 . S
C1662 C1663 1.367 . S
C1662 C1670 1.378 . S
C1663 C1662 1.367 . S
C1663 C1671 1.433 . S
C1664 H1660 0.929 . S
C1664 C1666 1.378 . S
C1664 C1668 1.350 1_545 S
C1665 C1668 1.463 . S
C1665 C1670 1.350 . S
C1665 N1673 1.427 . S
C1666 H1657 0.930 . S
C1666 C1664 1.378 . S
C1666 C1667 1.367 1_545 S
C1667 C1666 1.367 1_565 S
C1667 C1669 1.433 . S
C1668 C1664 1.350 1_565 S
C1668 C1665 1.463 . S
C1668 N1672 1.427 . S
C1669 H1659 0.929 . S
C1669 C1667 1.433 . S
C1669 N1672 1.384 . S
C1670 H1661 0.929 . S
C1670 C1662 1.378 . S
C1670 C1665 1.350 . S
C1671 H1658 0.929 . S
C1671 C1663 1.433 . S
C1671 N1673 1.384 . S
N1672 C1668 1.427 . S
N1672 C1669 1.384 . S
N1673 C1665 1.427 . S
N1673 C1671 1.384 . S
H1674 C1680 0.930 . S
H1675 C1684 0.930 . S
H1676 C1689 0.929 . S
H1677 C1687 0.929 . S
H1678 C1682 0.929 . S
H1679 C1688 0.929 . S
C1680 H1674 0.930 . S
C1680 C1681 1.367 . S
C1680 C1688 1.378 . S
C1681 C1680 1.367 . S
C1681 C1689 1.433 1_455 S
C1682 H1678 0.929 . S
C1682 C1684 1.378 . S
C1682 C1686 1.350 1_655 S
C1683 C1686 1.463 . S
C1683 C1688 1.350 . S
C1683 N1691 1.427 1_455 S
C1684 H1675 0.930 . S
C1684 C1682 1.378 . S
C1684 C1685 1.367 1_655 S
C1685 C1684 1.367 1_455 S
C1685 C1687 1.433 . S
C1686 C1682 1.350 1_455 S
C1686 C1683 1.463 . S
C1686 N1690 1.427 . S
C1687 H1677 0.929 . S
C1687 C1685 1.433 . S
C1687 N1690 1.384 . S
C1688 H1679 0.929 . S
C1688 C1680 1.378 . S
C1688 C1683 1.350 . S
C1689 H1676 0.929 . S
C1689 C1681 1.433 1_655 S
C1689 N1691 1.384 . S
N1690 C1686 1.427 . S
N1690 C1687 1.384 . S
N1691 C1683 1.427 1_655 S
N1691 C1689 1.384 . S
H1692 C1698 0.930 . S
H1693 C1702 0.930 . S
H1694 C1707 0.929 . S
H1695 C1705 0.929 . S
H1696 C1700 0.929 . S
H1697 C1706 0.929 . S
C1698 H1692 0.930 . S
C1698 C1699 1.367 . S
C1698 C1706 1.378 . S
C1699 C1698 1.367 . S
C1699 C1707 1.433 . S
C1700 H1696 0.929 . S
C1700 C1702 1.378 . S
C1700 C1704 1.350 . S
C1701 C1704 1.463 . S
C1701 C1706 1.350 . S
C1701 N1709 1.427 . S
C1702 H1693 0.930 . S
C1702 C1700 1.378 . S
C1702 C1703 1.367 . S
C1703 C1702 1.367 . S
C1703 C1705 1.433 . S
C1704 C1700 1.350 . S
C1704 C1701 1.463 . S
C1704 N1708 1.427 . S
C1705 H1695 0.929 . S
C1705 C1703 1.433 . S
C1705 N1708 1.384 . S
C1706 H1697 0.929 . S
C1706 C1698 1.378 . S
C1706 C1701 1.350 . S
C1707 H1694 0.929 . S
C1707 C1699 1.433 . S
C1707 N1709 1.384 . S
N1708 C1704 1.427 . S
N1708 C1705 1.384 . S
N1709 C1701 1.427 . S
N1709 C1707 1.384 . S
H1710 C1716 0.930 . S
H1711 C1720 0.930 . S
H1712 C1725 0.929 . S
H1713 C1723 0.929 . S
H1714 C1718 0.929 . S
H1715 C1724 0.929 . S
C1716 H1710 0.930 . S
C1716 C1717 1.367 1_455 S
C1716 C1724 1.378 . S
C1717 C1716 1.367 1_655 S
C1717 C1725 1.433 . S
C1718 H1714 0.929 . S
C1718 C1720 1.378 . S
C1718 C1722 1.350 . S
C1719 C1722 1.463 . S
C1719 C1724 1.350 1_655 S
C1719 N1727 1.427 . S
C1720 H1711 0.930 . S
C1720 C1718 1.378 . S
C1720 C1721 1.367 . S
C1721 C1720 1.367 . S
C1721 C1723 1.433 1_655 S
C1722 C1718 1.350 . S
C1722 C1719 1.463 . S
C1722 N1726 1.427 1_655 S
C1723 H1713 0.929 . S
C1723 C1721 1.433 1_455 S
C1723 N1726 1.384 . S
C1724 H1715 0.929 . S
C1724 C1716 1.378 . S
C1724 C1719 1.350 1_455 S
C1725 H1712 0.929 . S
C1725 C1717 1.433 . S
C1725 N1727 1.384 . S
N1726 C1722 1.427 1_455 S
N1726 C1723 1.384 . S
N1727 C1719 1.427 . S
N1727 C1725 1.384 . S
H1728 C1734 0.930 . S
H1729 C1738 0.930 . S
H1730 C1743 0.929 . S
H1731 C1741 0.929 . S
H1732 C1736 0.929 . S
H1733 C1742 0.929 . S
C1734 H1728 0.930 . S
C1734 C1735 1.367 . S
C1734 C1742 1.378 . S
C1735 C1734 1.367 . S
C1735 C1743 1.433 . S
C1736 H1732 0.929 . S
C1736 C1738 1.378 . S
C1736 C1740 1.350 . S
C1737 C1740 1.463 . S
C1737 C1742 1.350 . S
C1737 N1745 1.427 . S
C1738 H1729 0.930 . S
C1738 C1736 1.378 . S
C1738 C1739 1.367 . S
C1739 C1738 1.367 . S
C1739 C1741 1.433 . S
C1740 C1736 1.350 . S
C1740 C1737 1.463 . S
C1740 N1744 1.427 . S
C1741 H1731 0.929 . S
C1741 C1739 1.433 . S
C1741 N1744 1.384 . S
C1742 H1733 0.929 . S
C1742 C1734 1.378 . S
C1742 C1737 1.350 . S
C1743 H1730 0.929 . S
C1743 C1735 1.433 . S
C1743 N1745 1.384 . S
N1744 C1740 1.427 . S
N1744 C1741 1.384 . S
N1745 C1737 1.427 . S
N1745 C1743 1.384 . S
H1746 C1752 0.930 . S
H1747 C1756 0.930 . S
H1748 C1761 0.945 . S
H1749 C1759 0.929 . S
H1750 C1754 0.929 . S
H1751 C1760 0.929 . S
C1752 H1746 0.930 . S
C1752 C1753 1.367 . S
C1752 C1760 1.378 . S
C1753 C1752 1.367 . S
C1753 C1761 1.433 . S
C1754 H1750 0.929 . S
C1754 C1756 1.378 . S
C1754 C1758 1.350 1_565 S
C1755 C1758 1.463 . S
C1755 C1760 1.350 . S
C1755 N1763 1.427 . S
C1756 H1747 0.930 . S
C1756 C1754 1.378 . S
C1756 C1757 1.367 1_565 S
C1757 C1756 1.367 1_545 S
C1757 C1759 1.433 . S
C1758 C1754 1.350 1_545 S
C1758 C1755 1.463 . S
C1758 N1762 1.427 . S
C1759 H1749 0.929 . S
C1759 C1757 1.433 . S
C1759 N1762 1.384 . S
C1760 H1751 0.929 . S
C1760 C1752 1.378 . S
C1760 C1755 1.350 . S
C1761 H1748 0.945 . S
C1761 C1753 1.433 . S
C1761 N1763 1.384 . S
N1762 C1758 1.427 . S
N1762 C1759 1.384 . S
N1763 C1755 1.427 . S
N1763 C1761 1.384 . S
H1764 C1770 0.930 . S
H1765 C1774 0.930 . S
H1766 C1779 0.929 . S
H1767 C1777 0.929 . S
H1768 C1772 0.929 . S
H1769 C1778 0.929 . S
C1770 H1764 0.930 . S
C1770 C1771 1.367 . S
C1770 C1778 1.378 . S
C1771 C1770 1.367 . S
C1771 C1779 1.433 . S
C1772 H1768 0.929 . S
C1772 C1774 1.378 . S
C1772 C1776 1.350 . S
C1773 C1776 1.463 . S
C1773 C1778 1.350 . S
C1773 N1781 1.427 . S
C1774 H1765 0.930 . S
C1774 C1772 1.378 . S
C1774 C1775 1.367 . S
C1775 C1774 1.367 . S
C1775 C1777 1.433 . S
C1776 C1772 1.350 . S
C1776 C1773 1.463 . S
C1776 N1780 1.427 . S
C1777 H1767 0.929 . S
C1777 C1775 1.433 . S
C1777 N1780 1.384 . S
C1778 H1769 0.929 . S
C1778 C1770 1.378 . S
C1778 C1773 1.350 . S
C1779 H1766 0.929 . S
C1779 C1771 1.433 . S
C1779 N1781 1.384 . S
N1780 C1776 1.427 . S
N1780 C1777 1.384 . S
N1781 C1773 1.427 . S
N1781 C1779 1.384 . S
H1782 C1788 0.930 . S
H1783 C1792 0.930 . S
H1784 C1797 0.929 . S
H1785 C1795 0.929 . S
H1786 C1790 0.929 . S
H1787 C1796 0.929 . S
C1788 H1782 0.930 . S
C1788 C1789 1.367 . S
C1788 C1796 1.378 . S
C1789 C1788 1.367 . S
C1789 C1797 1.433 . S
C1790 H1786 0.929 . S
C1790 C1792 1.378 . S
C1790 C1794 1.350 . S
C1791 C1794 1.463 . S
C1791 C1796 1.350 . S
C1791 N1799 1.427 . S
C1792 H1783 0.930 . S
C1792 C1790 1.378 . S
C1792 C1793 1.367 . S
C1793 C1792 1.367 . S
C1793 C1795 1.433 . S
C1794 C1790 1.350 . S
C1794 C1791 1.463 . S
C1794 N1798 1.427 . S
C1795 H1785 0.929 . S
C1795 C1793 1.433 . S
C1795 N1798 1.384 . S
C1796 H1787 0.929 . S
C1796 C1788 1.378 . S
C1796 C1791 1.350 . S
C1797 H1784 0.929 . S
C1797 C1789 1.433 . S
C1797 N1799 1.384 . S
N1798 C1794 1.427 . S
N1798 C1795 1.384 . S
N1799 C1791 1.427 . S
N1799 C1797 1.384 . S
H1800 C1806 0.930 . S
H1801 C1810 0.930 . S
H1802 C1815 0.929 . S
H1803 C1813 0.929 . S
H1804 C1808 0.929 . S
H1805 C1814 0.929 . S
C1806 H1800 0.930 . S
C1806 C1807 1.367 . S
C1806 C1814 1.378 . S
C1807 C1806 1.367 . S
C1807 C1815 1.433 . S
C1808 H1804 0.929 . S
C1808 C1810 1.378 . S
C1808 C1812 1.350 . S
C1809 C1812 1.463 . S
C1809 C1814 1.350 . S
C1809 N1817 1.427 . S
C1810 H1801 0.930 . S
C1810 C1808 1.378 . S
C1810 C1811 1.367 . S
C1811 C1810 1.367 . S
C1811 C1813 1.433 . S
C1812 C1808 1.350 . S
C1812 C1809 1.463 . S
C1812 N1816 1.427 . S
C1813 H1803 0.929 . S
C1813 C1811 1.433 . S
C1813 N1816 1.384 . S
C1814 H1805 0.929 . S
C1814 C1806 1.378 . S
C1814 C1809 1.350 . S
C1815 H1802 0.929 . S
C1815 C1807 1.433 . S
C1815 N1817 1.384 . S
N1816 C1812 1.427 . S
N1816 C1813 1.384 . S
N1817 C1809 1.427 . S
N1817 C1815 1.384 . S
H1818 C1824 0.930 . S
H1819 C1828 0.930 . S
H1820 C1833 0.929 . S
H1821 C1831 0.929 . S
H1822 C1826 0.929 . S
H1823 C1832 0.929 . S
C1824 H1818 0.930 . S
C1824 C1825 1.367 . S
C1824 C1832 1.378 . S
C1825 C1824 1.367 . S
C1825 C1833 1.433 . S
C1826 H1822 0.929 . S
C1826 C1828 1.378 . S
C1826 C1830 1.350 . S
C1827 C1830 1.463 . S
C1827 C1832 1.350 . S
C1827 N1835 1.427 . S
C1828 H1819 0.930 . S
C1828 C1826 1.378 . S
C1828 C1829 1.367 . S
C1829 C1828 1.367 . S
C1829 C1831 1.433 . S
C1830 C1826 1.350 . S
C1830 C1827 1.463 . S
C1830 N1834 1.427 . S
C1831 H1821 0.929 . S
C1831 C1829 1.433 . S
C1831 N1834 1.384 . S
C1832 H1823 0.929 . S
C1832 C1824 1.378 . S
C1832 C1827 1.350 . S
C1833 H1820 0.929 . S
C1833 C1825 1.433 . S
C1833 N1835 1.384 . S
N1834 C1830 1.427 . S
N1834 C1831 1.384 . S
N1835 C1827 1.427 . S
N1835 C1833 1.384 . S
H1836 C1842 0.930 . S
H1837 C1846 0.930 . S
H1838 C1851 0.929 . S
H1839 C1849 0.929 . S
H1840 C1844 0.929 . S
H1841 C1850 0.929 . S
C1842 H1836 0.930 . S
C1842 C1843 1.367 . S
C1842 C1850 1.378 . S
C1843 C1842 1.367 . S
C1843 C1851 1.433 . S
C1844 H1840 0.929 . S
C1844 C1846 1.378 . S
C1844 C1848 1.350 . S
C1845 C1848 1.463 . S
C1845 C1850 1.350 . S
C1845 N1853 1.427 . S
C1846 H1837 0.930 . S
C1846 C1844 1.378 . S
C1846 C1847 1.367 . S
C1847 C1846 1.367 . S
C1847 C1849 1.433 . S
C1848 C1844 1.350 . S
C1848 C1845 1.463 . S
C1848 N1852 1.427 . S
C1849 H1839 0.929 . S
C1849 C1847 1.433 . S
C1849 N1852 1.384 . S
C1850 H1841 0.929 . S
C1850 C1842 1.378 . S
C1850 C1845 1.350 . S
C1851 H1838 0.929 . S
C1851 C1843 1.433 . S
C1851 N1853 1.384 . S
N1852 C1848 1.427 . S
N1852 C1849 1.384 . S
N1853 C1845 1.427 . S
N1853 C1851 1.384 . S
H1854 C1860 0.930 . S
H1855 C1864 0.930 . S
H1856 C1869 0.929 . S
H1857 C1867 0.929 . S
H1858 C1862 0.929 . S
H1859 C1868 0.929 . S
C1860 H1854 0.930 . S
C1860 C1861 1.367 . S
C1860 C1868 1.378 . S
C1861 C1860 1.367 . S
C1861 C1869 1.433 . S
C1862 H1858 0.929 . S
C1862 C1864 1.378 . S
C1862 C1866 1.350 . S
C1863 C1866 1.463 . S
C1863 C1868 1.350 . S
C1863 N1871 1.427 . S
C1864 H1855 0.930 . S
C1864 C1862 1.378 . S
C1864 C1865 1.367 . S
C1865 C1864 1.367 . S
C1865 C1867 1.433 . S
C1866 C1862 1.350 . S
C1866 C1863 1.463 . S
C1866 N1870 1.427 . S
C1867 H1857 0.929 . S
C1867 C1865 1.433 . S
C1867 N1870 1.384 . S
C1868 H1859 0.929 . S
C1868 C1860 1.378 . S
C1868 C1863 1.350 . S
C1869 H1856 0.929 . S
C1869 C1861 1.433 . S
C1869 N1871 1.384 . S
N1870 C1866 1.427 . S
N1870 C1867 1.384 . S
N1871 C1863 1.427 . S
N1871 C1869 1.384 . S
H1872 C1878 0.930 . S
H1873 C1882 0.930 . S
H1874 C1887 0.929 . S
H1875 C1885 0.929 . S
H1876 C1880 0.929 . S
H1877 C1886 0.929 . S
C1878 H1872 0.930 . S
C1878 C1879 1.367 . S
C1878 C1886 1.378 . S
C1879 C1878 1.367 . S
C1879 C1887 1.433 . S
C1880 H1876 0.929 . S
C1880 C1882 1.378 . S
C1880 C1884 1.350 . S
C1881 C1884 1.463 . S
C1881 C1886 1.350 . S
C1881 N1889 1.427 . S
C1882 H1873 0.930 . S
C1882 C1880 1.378 . S
C1882 C1883 1.367 . S
C1883 C1882 1.367 . S
C1883 C1885 1.433 . S
C1884 C1880 1.350 . S
C1884 C1881 1.463 . S
C1884 N1888 1.427 . S
C1885 H1875 0.929 . S
C1885 C1883 1.433 . S
C1885 N1888 1.384 . S
C1886 H1877 0.929 . S
C1886 C1878 1.378 . S
C1886 C1881 1.350 . S
C1887 H1874 0.929 . S
C1887 C1879 1.433 . S
C1887 N1889 1.384 . S
N1888 C1884 1.427 . S
N1888 C1885 1.384 . S
N1889 C1881 1.427 . S
N1889 C1887 1.384 . S
H1890 C1896 0.930 . S
H1891 C1900 0.930 . S
H1892 C1905 0.929 . S
H1893 C1903 0.929 . S
H1894 C1898 0.929 . S
H1895 C1904 0.929 . S
C1896 H1890 0.930 . S
C1896 C1897 1.367 . S
C1896 C1904 1.378 . S
C1897 C1896 1.367 . S
C1897 C1905 1.433 . S
C1898 H1894 0.929 . S
C1898 C1900 1.378 . S
C1898 C1902 1.350 . S
C1899 C1902 1.463 . S
C1899 C1904 1.350 . S
C1899 N1907 1.427 . S
C1900 H1891 0.930 . S
C1900 C1898 1.378 . S
C1900 C1901 1.367 . S
C1901 C1900 1.367 . S
C1901 C1903 1.433 . S
C1902 C1898 1.350 . S
C1902 C1899 1.463 . S
C1902 N1906 1.427 . S
C1903 H1893 0.929 . S
C1903 C1901 1.433 . S
C1903 N1906 1.384 . S
C1904 H1895 0.929 . S
C1904 C1896 1.378 . S
C1904 C1899 1.350 . S
C1905 H1892 0.929 . S
C1905 C1897 1.433 . S
C1905 N1907 1.384 . S
N1906 C1902 1.427 . S
N1906 C1903 1.384 . S
N1907 C1899 1.427 . S
N1907 C1905 1.384 . S
H1908 C1914 0.930 . S
H1909 C1918 0.930 . S
H1910 C1923 0.929 . S
H1911 C1921 0.929 . S
H1912 C1916 0.929 . S
H1913 C1922 0.929 . S
C1914 H1908 0.930 . S
C1914 C1915 1.367 . S
C1914 C1922 1.378 . S
C1915 C1914 1.367 . S
C1915 C1923 1.433 . S
C1916 H1912 0.929 . S
C1916 C1918 1.378 . S
C1916 C1920 1.350 . S
C1917 C1920 1.463 . S
C1917 C1922 1.350 . S
C1917 N1925 1.427 . S
C1918 H1909 0.930 . S
C1918 C1916 1.378 . S
C1918 C1919 1.367 . S
C1919 C1918 1.367 . S
C1919 C1921 1.433 . S
C1920 C1916 1.350 . S
C1920 C1917 1.463 . S
C1920 N1924 1.427 . S
C1921 H1911 0.929 . S
C1921 C1919 1.433 . S
C1921 N1924 1.384 . S
C1922 H1913 0.929 . S
C1922 C1914 1.378 . S
C1922 C1917 1.350 . S
C1923 H1910 0.929 . S
C1923 C1915 1.433 . S
C1923 N1925 1.384 . S
N1924 C1920 1.427 . S
N1924 C1921 1.384 . S
N1925 C1917 1.427 . S
N1925 C1923 1.384 . S
H1926 C1932 0.930 . S
H1927 C1936 0.930 . S
H1928 C1941 0.929 . S
H1929 C1939 0.929 . S
H1930 C1934 0.929 . S
H1931 C1940 0.929 . S
C1932 H1926 0.930 . S
C1932 C1933 1.367 . S
C1932 C1940 1.378 . S
C1933 C1932 1.367 . S
C1933 C1941 1.433 . S
C1934 H1930 0.929 . S
C1934 C1936 1.378 . S
C1934 C1938 1.350 . S
C1935 C1938 1.463 . S
C1935 C1940 1.350 . S
C1935 N1943 1.427 . S
C1936 H1927 0.930 . S
C1936 C1934 1.378 . S
C1936 C1937 1.367 . S
C1937 C1936 1.367 . S
C1937 C1939 1.433 . S
C1938 C1934 1.350 . S
C1938 C1935 1.463 . S
C1938 N1942 1.427 . S
C1939 H1929 0.929 . S
C1939 C1937 1.433 . S
C1939 N1942 1.384 . S
C1940 H1931 0.929 . S
C1940 C1932 1.378 . S
C1940 C1935 1.350 . S
C1941 H1928 0.929 . S
C1941 C1933 1.433 . S
C1941 N1943 1.384 . S
N1942 C1938 1.427 . S
N1942 C1939 1.384 . S
N1943 C1935 1.427 . S
N1943 C1941 1.384 . S
H1944 C1950 0.930 . S
H1945 C1954 0.930 . S
H1946 C1959 0.929 . S
H1947 C1957 0.929 . S
H1948 C1952 0.929 . S
H1949 C1958 0.929 . S
C1950 H1944 0.930 . S
C1950 C1951 1.367 . S
C1950 C1958 1.378 . S
C1951 C1950 1.367 . S
C1951 C1959 1.433 . S
C1952 H1948 0.929 . S
C1952 C1954 1.378 . S
C1952 C1956 1.350 . S
C1953 C1956 1.463 . S
C1953 C1958 1.350 . S
C1953 N1961 1.427 . S
C1954 H1945 0.930 . S
C1954 C1952 1.378 . S
C1954 C1955 1.367 . S
C1955 C1954 1.367 . S
C1955 C1957 1.433 . S
C1956 C1952 1.350 . S
C1956 C1953 1.463 . S
C1956 N1960 1.427 . S
C1957 H1947 0.929 . S
C1957 C1955 1.433 . S
C1957 N1960 1.384 . S
C1958 H1949 0.929 . S
C1958 C1950 1.378 . S
C1958 C1953 1.350 . S
C1959 H1946 0.929 . S
C1959 C1951 1.433 . S
C1959 N1961 1.384 . S
N1960 C1956 1.427 . S
N1960 C1957 1.384 . S
N1961 C1953 1.427 . S
N1961 C1959 1.384 . S
H1962 C1968 0.930 . S
H1963 C1972 0.930 . S
H1964 C1977 0.929 . S
H1965 C1975 0.929 . S
H1966 C1970 0.929 . S
H1967 C1976 0.929 . S
C1968 H1962 0.930 . S
C1968 C1969 1.367 . S
C1968 C1976 1.378 . S
C1969 C1968 1.367 . S
C1969 C1977 1.433 . S
C1970 H1966 0.929 . S
C1970 C1972 1.378 . S
C1970 C1974 1.350 . S
C1971 C1974 1.463 . S
C1971 C1976 1.350 . S
C1971 N1979 1.427 . S
C1972 H1963 0.930 . S
C1972 C1970 1.378 . S
C1972 C1973 1.367 . S
C1973 C1972 1.367 . S
C1973 C1975 1.433 . S
C1974 C1970 1.350 . S
C1974 C1971 1.463 . S
C1974 N1978 1.427 . S
C1975 H1965 0.929 . S
C1975 C1973 1.433 . S
C1975 N1978 1.384 . S
C1976 H1967 0.929 . S
C1976 C1968 1.378 . S
C1976 C1971 1.350 . S
C1977 H1964 0.929 . S
C1977 C1969 1.433 . S
C1977 N1979 1.384 . S
N1978 C1974 1.427 . S
N1978 C1975 1.384 . S
N1979 C1971 1.427 . S
N1979 C1977 1.384 . S
C1015 C469 1.688 . S
C1019 C651 1.694 . S
C1033 C505 1.806 . S
C1037 C691 1.802 . S
C1051 C433 1.770 . S
C1055 C743 1.761 . S
C1069 C397 1.583 . S
C1073 C703 1.574 . S
C1091 C731 1.477 . S
C1087 C325 1.469 . S
C1105 C361 1.431 . S
C1109 C663 1.440 1_556 S
C1127 C670 1.695 . S
C1123 C421 1.696 . S
C1145 C710 1.797 . S
C1141 C349 1.801 . S
C1159 C385 1.760 . S
C1163 C730 1.762 1_556 S
C1177 C493 1.583 . S
C1181 C690 1.569 . S
C1195 C529 1.480 . S
C1199 C750 1.477 . S
C1217 C650 1.449 . S
C1213 C457 1.445 . S
C1235 C771 1.693 . S
C1231 C37 1.686 . S
C1249 C73 1.804 . S
C1253 C811 1.797 . S
C1267 C1 1.770 . S
C1271 C863 1.760 . S
C1285 C613 1.590 . S
C1289 C823 1.576 . S
C1303 C541 1.469 . S
C1307 C851 1.475 . S
C1321 C577 1.435 . S
C1325 C783 1.448 . S
C1339 C637 1.701 . S
C1343 C790 1.700 . S
C1357 C565 1.803 . S
C1361 C830 1.800 . S
C1379 C850 1.757 . S
C1375 C601 1.760 . S
C1393 C61 1.583 . S
C1397 C810 1.568 . S
C1415 C870 1.480 . S
C1411 C97 1.483 . S
C1429 C25 1.435 . S
C1433 C770 1.442 . S
C1451 C891 1.693 . S
C1447 C253 1.688 . S
C1465 C289 1.806 . S
C1469 C931 1.802 . S
C1487 C983 1.759 . S
C1483 C217 1.770 . S
C1505 C943 1.576 . S
C1501 C181 1.591 . S
C1523 C971 1.480 . S
C1519 C109 1.476 . S
C1537 C145 1.442 . S
C1541 C903 1.446 . S
C1555 C205 1.698 . S
C1559 C910 1.698 . S
C1573 C133 1.800 . S
C1577 C950 1.796 . S
C1595 C970 1.753 . S
C1591 C169 1.754 . S
C1609 C277 1.588 . S
C1613 C930 1.576 . S
C1627 C313 1.481 . S
C1631 C990 1.479 . S
C1645 C241 1.442 . S
C1649 C890 1.450 . S
C1663 C571 1.326 . S
C1667 C674 1.315 . S
C1685 C714 1.856 . S
C1681 C607 1.880 . S
C1699 C643 1.583 . S
C1703 C737 1.580 . S
C1717 C247 1.882 . S
C1721 C697 1.862 . S
C1735 C283 1.583 . S
C1739 C754 1.577 . S
C1757 C657 1.316 . S
C1753 C319 1.326 . S
C1771 C139 1.325 . S
C1775 C794 1.313 . S
C1789 C175 1.880 . S
C1793 C834 1.855 . S
C1807 C211 1.582 . S
C1811 C857 1.576 . S
C1825 C463 1.882 . S
C1829 C817 1.862 . S
C1847 C874 1.577 . S
C1843 C499 1.583 . S
C1861 C535 1.325 . S
C1865 C777 1.318 . S
C1879 C355 1.325 . S
C1883 C914 1.313 . S
C1897 C391 1.879 . S
C1901 C954 1.855 . S
C1919 C977 1.580 . S
C1915 C427 1.579 . S
C1933 C31 1.883 . S
C1937 C937 1.857 . S
C1951 C67 1.586 . S
C1955 C994 1.581 . S
C1969 C103 1.326 . S
C1973 C897 1.316 . S
