# Generated by pormake.
# Topology rtl, (3,6)-cn, num edge types: 1
# Building blocks:
#     Node 0, Type 0, BuildingBlock: CUQRIR_clean_linker_1, # of connection points: 3
#     Node 1, Type 0, BuildingBlock: CUQRIR_clean_linker_1, # of connection points: 3
#     Node 2, Type 0, BuildingBlock: CUQRIR_clean_linker_1, # of connection points: 3
#     Node 3, Type 0, BuildingBlock: CUQRIR_clean_linker_1, # of connection points: 3
#     Node 4, Type 1, BuildingBlock: KUMBUR_clean_sbu_1, # of connection points: 6
#     Node 5, Type 1, BuildingBlock: KUMBUR_clean_sbu_1, # of connection points: 6
#     Edge 6, Type (0, 1), BuildingBlock: UVAHIK_clean_linker_0, # of connection points: 2
#     Edge 7, Type (0, 1), BuildingBlock: UVAHIK_clean_linker_0, # of connection points: 2
#     Edge 8, Type (0, 1), BuildingBlock: UVAHIK_clean_linker_0, # of connection points: 2
#     Edge 9, Type (0, 1), BuildingBlock: UVAHIK_clean_linker_0, # of connection points: 2
#     Edge 10, Type (0, 1), BuildingBlock: UVAHIK_clean_linker_0, # of connection points: 2
#     Edge 11, Type (0, 1), BuildingBlock: UVAHIK_clean_linker_0, # of connection points: 2
#     Edge 12, Type (0, 1), BuildingBlock: UVAHIK_clean_linker_0, # of connection points: 2
#     Edge 13, Type (0, 1), BuildingBlock: UVAHIK_clean_linker_0, # of connection points: 2
#     Edge 14, Type (0, 1), BuildingBlock: UVAHIK_clean_linker_0, # of connection points: 2
#     Edge 15, Type (0, 1), BuildingBlock: UVAHIK_clean_linker_0, # of connection points: 2
#     Edge 16, Type (0, 1), BuildingBlock: UVAHIK_clean_linker_0, # of connection points: 2
#     Edge 17, Type (0, 1), BuildingBlock: UVAHIK_clean_linker_0, # of connection points: 2
# Relax obj value: 0.062
# Max RMSD: 0.212
# Mean RMSD: 0.168
data_MOF--net-rtl--node1-KUMBUR_clean_sbu_1--node2-CUQRIR_clean_linker_1--edge1-UVAHIK_clean_linker_0
_symmetry_space_group_name_H-M    P1
_symmetry_Int_Tables_number       1
_symmetry_cell_setting            triclinic
loop_
_symmetry_equiv_pos_as_xyz
'x, y, z'
_cell_length_a     43.103274
_cell_length_b     43.129245
_cell_length_c     32.009656
_cell_angle_alpha  79.629279
_cell_angle_beta   99.074833
_cell_angle_gamma 90.878945
loop_
_atom_site_label
_atom_site_type_symbol
_atom_site_fract_x
_atom_site_fract_y
_atom_site_fract_z
_atom_type_partial_charge
C0 C 0.22153 0.79957 1.00259 0.0
N1 N 0.20214 0.81971 0.01425 0.0
N2 N 0.24158 0.78503 0.03727 0.0
C3 C 0.22113 0.79433 0.95724 0.0
C4 C 0.23364 0.79717 0.07049 0.0
N5 N 0.2098 0.81854 0.05634 0.0
C6 C 0.24846 0.78719 0.11674 0.0
H7 H 0.19721 0.79754 0.93833 0.0
H8 H 0.22982 0.77031 0.95692 0.0
H9 H 0.23663 0.81181 0.94122 0.0
H10 H 0.24773 0.80629 0.13545 0.0
H11 H 0.27324 0.77961 0.11904 0.0
H12 H 0.23528 0.76696 0.1316 0.0
C13 C 0.71964 0.71705 0.65427 0.0
N14 N 0.69738 0.69609 0.64329 0.0
N15 N 0.73064 0.73264 0.61896 0.0
C16 C 0.72903 0.7239 0.69894 0.0
C17 C 0.71426 0.7204 0.58614 0.0
N18 N 0.69378 0.69849 0.60078 0.0
C19 C 0.72028 0.72786 0.54033 0.0
H20 H 0.70902 0.72032 0.71719 0.0
H21 H 0.73746 0.74842 0.698 0.0
H22 H 0.74836 0.7075 0.71616 0.0
H23 H 0.74466 0.73604 0.53876 0.0
H24 H 0.7038 0.74686 0.52211 0.0
H25 H 0.71636 0.70689 0.52464 0.0
C26 C 0.79092 0.20011 0.09113 0.0
N27 N 0.81332 0.18167 0.0823 0.0
N28 N 0.77607 0.21807 0.05458 0.0
C29 C 0.78421 0.20172 0.13545 0.0
C30 C 0.79038 0.2101 0.02321 0.0
N31 N 0.81293 0.18787 0.04005 0.0
C32 C 0.78221 0.22383 0.97621 0.0
H33 H 0.76012 0.19318 0.13836 0.0
H34 H 0.78507 0.2266 0.1402 0.0
H35 H 0.80085 0.18718 0.16117 0.0
H36 H 0.79798 0.24387 0.9683 0.0
H37 H 0.75755 0.23263 0.96829 0.0
H38 H 0.78573 0.20602 0.95625 0.0
C39 C 0.30498 0.29096 0.41994 0.0
N40 N 0.32548 0.31419 0.4282 0.0
N41 N 0.28854 0.28223 0.45288 0.0
C42 C 0.29903 0.27863 0.37837 0.0
C43 C 0.29966 0.30097 0.48139 0.0
N44 N 0.32184 0.32051 0.46631 0.0
C45 C 0.29008 0.29906 0.525 0.0
H46 H 0.30259 0.29734 0.35089 0.0
H47 H 0.2748 0.26956 0.37254 0.0
H48 H 0.31578 0.25899 0.38017 0.0
H49 H 0.28177 0.27513 0.537 0.0
H50 H 0.27065 0.31621 0.52243 0.0
H51 H 0.30992 0.30514 0.5486 0.0
Tb52 Tb 0.03809 0.97282 0.52486 0.0
C53 C 0.97132 0.09849 0.5088 0.0
N54 N 0.99684 0.08677 0.53762 0.0
C55 C 0.02293 0.13618 0.52226 0.0
C56 C 0.97123 0.12897 0.48385 0.0
C57 C 0.02148 0.10605 0.54689 0.0
C58 C 0.99798 0.14744 0.48989 0.0
C59 C 0.91627 0.09306 0.4807 0.0
C60 C 0.94424 0.08091 0.50716 0.0
C61 C 0.91651 0.12264 0.45386 0.0
C62 C 0.94399 0.14054 0.45534 0.0
Tb63 Tb 0.99236 0.03613 0.57331 0.0
N64 N 0.94509 0.05222 0.53301 0.0
C65 C 0.88884 0.07539 0.48284 0.0
C66 C 0.91814 0.03564 0.53714 0.0
C67 C 0.88969 0.04678 0.5117 0.0
H68 H 0.03991 0.09853 0.57367 0.0
H69 H 0.86848 0.0333 0.5143 0.0
H70 H 0.00983 0.90481 0.56554 0.0
H71 H 0.15833 0.01366 0.5345 0.0
H72 H 0.91877 0.01363 0.55957 0.0
H73 H 0.86682 0.08392 0.4631 0.0
H74 H 0.10318 0.01159 0.50076 0.0
H75 H 0.04301 0.15092 0.52888 0.0
H76 H 0.89538 0.13224 0.43275 0.0
H77 H 0.94358 0.16376 0.43551 0.0
H78 H 0.02756 0.8589 0.62261 0.0
H79 H 0.99891 0.17098 0.47134 0.0
H80 H 0.17887 0.97503 0.5997 0.0
N81 N 0.05292 0.92902 0.57542 0.0
C82 C 0.08303 0.92778 0.59589 0.0
C83 C 0.04333 0.87824 0.61561 0.0
C84 C 0.09416 0.90236 0.62877 0.0
C85 C 0.03335 0.90418 0.58338 0.0
C86 C 0.07373 0.87754 0.63887 0.0
N87 N 0.09104 0.975 0.54958 0.0
C88 C 0.11116 0.99578 0.53058 0.0
C89 C 0.13438 0.95136 0.60246 0.0
C90 C 0.10263 0.952 0.58306 0.0
C91 C 0.1543 0.97464 0.58575 0.0
C92 C 0.14277 0.99653 0.54904 0.0
H93 H 0.08136 0.85752 0.66394 0.0
H94 H 0.13429 0.88326 0.6756 0.0
H95 H 0.16964 0.92618 0.65241 0.0
O96 O 0.06408 0.95631 0.48232 0.0
O97 O 0.03234 0.96612 0.59292 0.0
O98 O 0.03717 0.01567 0.60816 0.0
O99 O 0.01607 0.94349 0.48369 0.0
O100 O 0.05082 0.02292 0.50967 0.0
O101 O 0.04265 0.04378 0.56883 0.0
O102 O 0.97524 0.02104 0.63171 0.0
O103 O 0.97386 0.02385 0.51014 0.0
O104 O 0.01775 0.01508 0.48153 0.0
O105 O 0.98186 0.07003 0.60892 0.0
O106 O 0.97434 0.98765 0.58285 0.0
O107 O 0.98828 0.96293 0.52897 0.0
C108 C 0.04203 0.98523 0.61961 0.0
C109 C 0.03305 0.95182 0.41599 0.0
C110 C 0.0463 0.94898 0.34507 0.0
C111 C 0.02 0.96836 0.32601 0.0
C112 C 0.00695 0.97105 0.39599 0.0
C113 C 1.00059 0.97931 0.35134 0.0
C114 C 0.05267 0.94083 0.39038 0.0
C115 C 0.05703 0.04374 0.53536 0.0
C116 C 0.03986 0.94319 0.46338 0.0
C117 C 0.12532 0.90238 0.64984 0.0
C118 C 0.14541 0.92687 0.63672 0.0
C119 C 0.98879 0.02559 0.47707 0.0
C120 C 0.98989 0.05318 0.68367 0.0
C121 C 0.98611 0.06628 0.75401 0.0
C122 C 0.01894 0.06238 0.76519 0.0
C123 C 0.02255 0.04988 0.69537 0.0
C124 C 0.97174 0.06132 0.713 0.0
C125 C 0.03692 0.05416 0.73608 0.0
C126 C 0.97079 0.96545 0.55876 0.0
C127 C 0.97471 0.04928 0.64047 0.0
H128 H 0.01401 0.97463 0.29138 0.0
H129 H 0.9913 0.97955 0.41486 0.0
H130 H 0.98035 0.99406 0.33626 0.0
H131 H 0.07294 0.92619 0.40578 0.0
H132 H 0.0309 0.06646 0.79606 0.0
H133 H 0.03692 0.04442 0.67282 0.0
H134 H 0.94648 0.06383 0.70375 0.0
H135 H 0.06218 0.05158 0.74487 0.0
Tb136 Tb 0.48083 0.48895 0.99498 0.0
C137 C 0.59033 0.57308 0.03673 0.0
N138 N 0.58818 0.54222 0.05424 0.0
C139 C 0.64015 0.53235 0.04146 0.0
C140 C 0.61697 0.58461 0.01881 0.0
C141 C 0.61303 0.52202 0.0585 0.0
C142 C 0.64194 0.56368 0.02091 0.0
C143 C 0.56755 0.62553 0.02151 0.0
C144 C 0.56594 0.59306 0.03795 0.0
C145 C 0.59327 0.63707 1.00153 0.0
C146 C 0.61797 0.61663 1.00023 0.0
Tb147 Tb 0.54284 0.5271 0.07991 0.0
N148 N 0.5418 0.58097 0.05813 0.0
C149 C 0.54398 0.64556 0.0273 0.0
C150 C 0.52066 0.60093 0.06771 0.0
C151 C 0.52082 0.63327 0.05135 0.0
H152 H 0.61158 0.49782 0.07426 0.0
H153 H 0.5034 0.64877 0.05796 0.0
H154 H 0.42176 0.5419 0.96221 0.0
H155 H 0.47474 0.36416 0.05327 0.0
H156 H 0.50377 0.59222 0.08842 0.0
H157 H 0.54431 0.67067 0.01515 0.0
H158 H 0.49797 0.4131 0.01819 0.0
H159 H 0.65956 0.51614 0.044 0.0
H160 H 0.59475 0.66189 0.98823 0.0
H161 H 0.63805 0.62594 0.98574 0.0
H162 H 0.369 0.54918 0.97976 0.0
H163 H 0.66288 0.5716 1.00756 0.0
H164 H 0.42394 0.3667 0.07961 0.0
N165 N 0.43004 0.49742 1.00403 0.0
C166 C 0.41642 0.47278 0.02686 0.0
C167 C 0.38229 0.52774 0.99387 0.0
C168 C 0.38579 0.47525 0.03625 0.0
C169 C 0.41252 0.52378 0.98472 0.0
C170 C 0.36912 0.50363 0.02062 0.0
N171 N 0.46106 0.44263 0.02592 0.0
C172 C 0.47577 0.4142 0.02955 0.0
C173 C 0.41812 0.4171 0.05766 0.0
C174 C 0.43221 0.44415 0.03738 0.0
C175 C 0.43398 0.3881 0.06418 0.0
C176 C 0.46267 0.38656 0.04934 0.0
H177 H 0.34553 0.50656 0.02716 0.0
H178 H 0.34895 0.45041 0.06707 0.0
H179 H 0.37736 0.39941 0.08592 0.0
O180 O 0.49674 0.47123 0.94478 0.0
O181 O 0.49142 0.46653 0.06352 0.0
O182 O 0.49929 0.5076 0.10018 0.0
O183 O 0.44823 0.48279 0.94084 0.0
O184 O 0.5284 0.4683 1.00908 0.0
O185 O 0.55284 0.47778 0.07629 0.0
O186 O 0.55902 0.54974 0.13242 0.0
O187 O 0.55226 0.52483 0.01474 0.0
O188 O 0.50415 0.53293 0.97237 0.0
O189 O 0.5685 0.50071 0.13597 0.0
O190 O 0.49312 0.54165 0.0693 0.0
O191 O 0.47562 0.53925 0.99804 0.0
C192 C 0.48828 0.47948 0.09677 0.0
C193 C 0.46816 0.4889 0.87569 0.0
C194 C 0.45777 0.4859 0.79907 0.0
C195 C 0.46462 0.5182 0.78943 0.0
C196 C 0.47449 0.52106 0.86522 0.0
C197 C 0.473 0.53554 0.82231 0.0
C198 C 0.45991 0.47137 0.84266 0.0
C199 C 0.54996 0.46206 0.04393 0.0
C200 C 0.46931 0.47355 0.92085 0.0
C201 C 0.3723 0.44888 0.05901 0.0
C202 C 0.38843 0.41981 0.06964 0.0
C203 C 0.53475 0.53651 0.97801 0.0
C204 C 0.55877 0.5167 0.19968 0.0
C205 C 0.55942 0.52814 0.27212 0.0
C206 C 0.53773 0.50381 0.27964 0.0
C207 C 0.53716 0.49257 0.20819 0.0
C208 C 0.56985 0.53442 0.23177 0.0
C209 C 0.52669 0.48628 0.24785 0.0
C210 C 0.47428 0.55121 0.03278 0.0
C211 C 0.56955 0.52371 0.15737 0.0
H212 H 0.46274 0.53037 0.75643 0.0
H213 H 0.48023 0.53494 0.89023 0.0
H214 H 0.47791 0.56042 0.81447 0.0
H215 H 0.45517 0.44647 0.85105 0.0
H216 H 0.52962 0.49792 0.3104 0.0
H217 H 0.52844 0.47844 0.18427 0.0
H218 H 0.58625 0.55328 0.22506 0.0
H219 H 0.51007 0.46758 0.25409 0.0
C220 C 0.271 0.22726 0.45462 0.0
C221 C 0.26461 0.25863 0.45703 0.0
C222 C 0.24842 0.20397 0.46162 0.0
C223 C 0.1766 0.1877 0.51242 0.0
H224 H 0.16686 0.11892 0.4486 0.0
C225 C 0.09917 0.08031 0.55956 0.0
C226 C 0.08114 0.06781 0.52616 0.0
C227 C 0.12169 0.10328 0.55068 0.0
C228 C 0.16906 0.13809 0.46651 0.0
H229 H 0.22958 0.29065 0.46699 0.0
H230 H 0.18981 0.25028 0.47854 0.0
H231 H 0.20483 0.16003 0.43228 0.0
H232 H 0.07256 0.06941 0.45728 0.0
H233 H 0.1115 0.10975 0.4416 0.0
H234 H 0.1403 0.16627 0.54589 0.0
C235 C 0.21243 0.24331 0.4723 0.0
C236 C 0.19116 0.16151 0.45749 0.0
C237 C 0.23505 0.2665 0.46547 0.0
C238 C 0.08626 0.07852 0.48372 0.0
C239 C 0.10869 0.10155 0.47479 0.0
C240 C 0.15447 0.16436 0.52135 0.0
C241 C 0.21891 0.21162 0.47102 0.0
C242 C 0.19524 0.18667 0.48032 0.0
C243 C 0.12669 0.11433 0.50814 0.0
C244 C 0.15038 0.13919 0.49857 0.0
H245 H 0.29378 0.22071 0.4485 0.0
H246 H 0.25445 0.17982 0.46083 0.0
H247 H 0.17932 0.20641 0.53113 0.0
H248 H 0.096 0.07218 0.59265 0.0
H249 H 0.13544 0.1121 0.57729 0.0
C250 C 0.26684 0.73284 0.06565 0.0
C251 C 0.26582 0.76217 0.03813 0.0
C252 C 0.28968 0.71025 0.06519 0.0
C253 C 0.36562 0.70042 0.0256 0.0
H254 H 0.34409 0.61196 0.04721 0.0
C255 C 0.44229 0.59913 0.99579 0.0
C256 C 0.45 0.57515 0.0318 0.0
C257 C 0.41973 0.62215 0.99575 0.0
C258 C 0.35038 0.6366 0.04119 0.0
H259 H 0.28796 0.79121 0.98913 0.0
H260 H 0.32673 0.75142 0.9863 0.0
H261 H 0.30499 0.65183 0.0487 0.0
H262 H 0.44005 0.55586 0.09552 0.0
H263 H 0.39992 0.59554 0.09492 0.0
H264 H 0.41076 0.68481 0.01668 0.0
C265 C 0.31062 0.74588 0.00925 0.0
C266 C 0.3281 0.65952 0.0424 0.0
C267 C 0.28815 0.76861 0.01036 0.0
C268 C 0.43455 0.57423 0.06746 0.0
C269 C 0.41154 0.59677 0.06703 0.0
C270 C 0.38767 0.67749 0.02358 0.0
C271 C 0.31171 0.71629 0.0366 0.0
C272 C 0.33544 0.6918 0.03494 0.0
C273 C 0.40409 0.62106 0.03133 0.0
C274 C 0.38031 0.64539 0.03167 0.0
H275 H 0.24968 0.72727 0.08709 0.0
H276 H 0.29001 0.68808 0.08737 0.0
H277 H 0.37251 0.72487 0.02049 0.0
H278 H 0.45405 0.60032 0.96803 0.0
H279 H 0.41428 0.64063 0.96781 0.0
C280 C 0.74742 0.7855 0.58744 0.0
C281 C 0.75402 0.75694 0.6163 0.0
C282 C 0.77058 0.80836 0.58259 0.0
C283 C 0.84689 0.83458 0.63499 0.0
H284 H 0.85406 0.87652 0.51917 0.0
C285 C 0.92858 0.94113 0.59986 0.0
C286 C 0.9457 0.94186 0.56571 0.0
C287 C 0.90529 0.91863 0.60676 0.0
C288 C 0.85253 0.86491 0.55172 0.0
H289 H 0.78967 0.72996 0.66321 0.0
H290 H 0.83038 0.77001 0.65512 0.0
H291 H 0.8136 0.83717 0.53047 0.0
H292 H 0.9515 0.91925 0.51202 0.0
H293 H 0.91104 0.88009 0.52417 0.0
H294 H 0.88615 0.86209 0.65613 0.0
C295 C 0.80723 0.77488 0.63636 0.0
C296 C 0.82907 0.84258 0.55825 0.0
C297 C 0.78401 0.75195 0.64106 0.0
C298 C 0.93882 0.91953 0.5386 0.0
C299 C 0.91546 0.89712 0.54541 0.0
C300 C 0.87028 0.85706 0.62846 0.0
C301 C 0.8009 0.80324 0.60665 0.0
C302 C 0.82592 0.82711 0.59996 0.0
C303 C 0.8984 0.89634 0.5796 0.0
C304 C 0.87343 0.87249 0.58672 0.0
H305 H 0.72431 0.78997 0.56843 0.0
H306 H 0.76469 0.83012 0.56 0.0
H307 H 0.845 0.82329 0.66756 0.0
H308 H 0.93318 0.9579 0.62147 0.0
H309 H 0.89239 0.91896 0.6331 0.0
C310 C 0.7237 0.23418 0.06502 0.0
C311 C 0.75248 0.24202 0.05095 0.0
C312 C 0.70146 0.25767 0.06396 0.0
C313 C 0.69409 0.34296 0.06235 0.0
H314 H 0.60552 0.32947 0.02611 0.0
C315 C 0.59683 0.42828 0.08151 0.0
C316 C 0.57265 0.43602 0.04618 0.0
C317 C 0.61864 0.4043 0.08267 0.0
C318 C 0.63018 0.33366 0.03615 0.0
H319 H 0.78075 0.28003 0.02432 0.0
H320 H 0.74172 0.32142 0.02189 0.0
H321 H 0.64384 0.28866 0.02517 0.0
H322 H 0.55242 0.42412 0.98454 0.0
H323 H 0.59028 0.38252 0.98674 0.0
H324 H 0.68044 0.38817 0.07278 0.0
C325 C 0.7364 0.29719 0.03419 0.0
C326 C 0.65211 0.31016 0.03598 0.0
C327 C 0.75857 0.27362 0.03513 0.0
C328 C 0.57063 0.41889 0.01236 0.0
C329 C 0.59228 0.39485 0.01366 0.0
C330 C 0.67214 0.36642 0.06272 0.0
C331 C 0.70765 0.2895 0.04888 0.0
C332 C 0.68434 0.31456 0.04895 0.0
C333 C 0.61663 0.38734 0.04871 0.0
C334 C 0.63993 0.36209 0.04946 0.0
H335 H 0.71857 0.20986 0.07702 0.0
H336 H 0.67968 0.25096 0.0758 0.0
H337 H 0.71871 0.34695 0.073 0.0
H338 H 0.59907 0.4408 0.10825 0.0
H339 H 0.63693 0.39882 0.11037 0.0
C340 C 0.16165 0.82861 0.08433 0.0
C341 C 0.19339 0.83476 0.08203 0.0
C342 C 0.14622 0.84235 0.11191 0.0
C343 C 0.12562 0.85703 0.1926 0.0
H344 H 0.14319 0.94215 0.21198 0.0
C345 C 0.0778 0.90569 0.32723 0.0
C346 C 0.06636 0.93694 0.31735 0.0
C347 C 0.09464 0.89384 0.29938 0.0
C348 C 0.13781 0.9184 0.20678 0.0
H349 H 0.23358 0.8613 0.10424 0.0
H350 H 0.20712 0.88483 0.15349 0.0
H351 H 0.16807 0.92155 0.15925 0.0
H352 H 0.065 0.98061 0.27116 0.0
H353 H 0.09341 0.95979 0.22221 0.0
H354 H 0.09461 0.85419 0.2391 0.0
C355 C 0.19388 0.86955 0.13403 0.0
C356 C 0.15239 0.90643 0.17682 0.0
C357 C 0.20918 0.85592 0.10623 0.0
C358 C 0.07298 0.95627 0.27952 0.0
C359 C 0.08968 0.94442 0.25163 0.0
C360 C 0.11094 0.86903 0.2224 0.0
C361 C 0.1623 0.86256 0.13777 0.0
C362 C 0.14647 0.87558 0.16927 0.0
C363 C 0.10044 0.91293 0.26089 0.0
C364 C 0.11679 0.8999 0.22991 0.0
H365 H 0.14907 0.81254 0.06552 0.0
H366 H 0.12172 0.83696 0.11313 0.0
H367 H 0.12082 0.83301 0.18821 0.0
H368 H 0.073 0.89005 0.35589 0.0
H369 H 0.10298 0.86963 0.30796 0.0
C370 C 0.69452 0.65537 0.70739 0.0
C371 C 0.6793 0.67653 0.67183 0.0
C372 C 0.6774 0.6386 0.73758 0.0
C373 C 0.60447 0.64332 0.78221 0.0
H374 H 0.62238 0.55543 0.8318 0.0
C375 C 0.53362 0.57423 0.90807 0.0
C376 C 0.55002 0.55195 0.94135 0.0
C377 C 0.54815 0.58865 0.87345 0.0
C378 C 0.61731 0.5801 0.81879 0.0
H379 H 0.63442 0.69644 0.63916 0.0
H380 H 0.60415 0.66717 0.69209 0.0
H381 H 0.64975 0.58127 0.77419 0.0
H382 H 0.59445 0.52715 0.96418 0.0
H383 H 0.6203 0.55323 0.90532 0.0
H384 H 0.57269 0.64254 0.82746 0.0
C385 C 0.62936 0.66357 0.69675 0.0
C386 C 0.63295 0.59487 0.78554 0.0
C387 C 0.64653 0.68008 0.6663 0.0
C388 C 0.58129 0.54452 0.93936 0.0
C389 C 0.59596 0.55916 0.90511 0.0
C390 C 0.58902 0.62864 0.81575 0.0
C391 C 0.64465 0.64288 0.73306 0.0
C392 C 0.62686 0.62671 0.76697 0.0
C393 C 0.57959 0.58135 0.87146 0.0
C394 C 0.59535 0.59684 0.83476 0.0
H395 H 0.7198 0.65232 0.71212 0.0
H396 H 0.68995 0.62306 0.76526 0.0
H397 H 0.59953 0.668 0.76904 0.0
H398 H 0.50958 0.58072 0.90889 0.0
H399 H 0.53456 0.60528 0.84803 0.0
C400 C 0.83534 0.13042 0.12175 0.0
C401 C 0.83685 0.16335 0.1133 0.0
C402 C 0.85518 0.11298 0.15664 0.0
C403 C 0.92475 0.12018 0.24105 0.0
H404 H 0.88604 0.04968 0.30599 0.0
C405 C 0.99048 0.05012 0.40047 0.0
C406 C 0.97281 0.03921 0.43337 0.0
C407 C 0.97556 0.06288 0.35905 0.0
C408 C 0.89715 0.06952 0.28858 0.0
H409 H 0.86032 0.2041 0.1329 0.0
H410 H 0.89432 0.17418 0.19464 0.0
H411 H 0.8581 0.07649 0.23762 0.0
H412 H 0.92571 0.03182 0.44809 0.0
H413 H 0.8996 0.05618 0.37705 0.0
H414 H 0.96286 0.11459 0.29336 0.0
C415 C 0.87869 0.16135 0.17412 0.0
C416 C 0.88132 0.08458 0.24874 0.0
C417 C 0.85919 0.17861 0.13893 0.0
C418 C 0.93994 0.04096 0.42383 0.0
C419 C 0.92499 0.05431 0.38267 0.0
C420 C 0.94036 0.10545 0.2812 0.0
C421 C 0.87652 0.12829 0.1841 0.0
C422 C 0.89471 0.11039 0.22461 0.0
C423 C 0.94258 0.06545 0.34962 0.0
C424 C 0.92663 0.08012 0.3058 0.0
H425 H 0.81794 0.11835 0.10251 0.0
H426 H 0.8532 0.08757 0.16269 0.0
H427 H 0.93615 0.13958 0.2232 0.0
H428 H 0.01591 0.04877 0.40665 0.0
H429 H 0.98998 0.07047 0.3344 0.0
C430 C 0.32445 0.36825 0.49828 0.0
C431 C 0.33967 0.34234 0.48929 0.0
C432 C 0.33956 0.38589 0.5279 0.0
C433 C 0.4167 0.39903 0.59403 0.0
H434 H 0.36258 0.42308 0.66909 0.0
C435 C 0.45994 0.47403 0.72514 0.0
C436 C 0.44726 0.4679 0.7637 0.0
C437 C 0.44852 0.45872 0.69088 0.0
C438 C 0.37819 0.41625 0.64882 0.0
H439 H 0.38261 0.31484 0.50256 0.0
H440 H 0.40923 0.34518 0.55529 0.0
H441 H 0.34023 0.39774 0.60975 0.0
H442 H 0.41288 0.44013 0.79639 0.0
H443 H 0.39392 0.41265 0.73759 0.0
H444 H 0.45487 0.41652 0.63446 0.0
C445 C 0.38587 0.35251 0.53891 0.0
C446 C 0.36522 0.40219 0.61412 0.0
C447 C 0.37078 0.33512 0.50876 0.0
C448 C 0.42349 0.44533 0.76747 0.0
C449 C 0.41223 0.42988 0.73335 0.0
C450 C 0.42974 0.41297 0.62903 0.0
C451 C 0.37008 0.37756 0.54987 0.0
C452 C 0.38423 0.39341 0.58611 0.0
C453 C 0.4242 0.43672 0.6943 0.0
C454 C 0.41064 0.42171 0.65699 0.0
H455 H 0.30036 0.37395 0.48359 0.0
H456 H 0.3269 0.40548 0.53454 0.0
H457 H 0.43208 0.3928 0.57307 0.0
H458 H 0.47862 0.49087 0.72121 0.0
H459 H 0.45824 0.4648 0.66131 0.0
C460 C 0.65316 0.69429 0.53884 0.0
C461 C 0.67373 0.67961 0.57518 0.0
C462 C 0.63791 0.67667 0.50928 0.0
C463 C 0.59946 0.6332 0.45718 0.0
H464 H 0.65032 0.56847 0.42992 0.0
C465 C 0.5509 0.55467 0.33345 0.0
C466 C 0.57121 0.54644 0.30668 0.0
C467 C 0.56215 0.57029 0.36739 0.0
C468 C 0.63586 0.58663 0.43685 0.0
H469 H 0.69331 0.63503 0.61067 0.0
H470 H 0.66596 0.60372 0.55961 0.0
H471 H 0.67077 0.59602 0.48828 0.0
H472 H 0.61937 0.54874 0.29458 0.0
H473 H 0.63881 0.57682 0.35294 0.0
H474 H 0.56504 0.62465 0.4047 0.0
C475 C 0.66208 0.62899 0.55334 0.0
C476 C 0.64741 0.60211 0.47087 0.0
C477 C 0.67739 0.64674 0.58291 0.0
C478 C 0.60298 0.55488 0.31427 0.0
C479 C 0.61423 0.57061 0.34819 0.0
C480 C 0.58796 0.61778 0.42308 0.0
C481 C 0.6428 0.64386 0.51551 0.0
C482 C 0.62947 0.62578 0.48132 0.0
C483 C 0.59401 0.5783 0.37544 0.0
C484 C 0.60609 0.59444 0.41223 0.0
H485 H 0.65003 0.71966 0.53245 0.0
H486 H 0.62351 0.68906 0.48049 0.0
H487 H 0.58483 0.65106 0.46449 0.0
H488 H 0.5262 0.54898 0.32826 0.0
H489 H 0.54589 0.57555 0.38781 0.0
C490 C 0.82796 0.143 0.00952 0.0
C491 C 0.83316 0.17385 0.01679 0.0
C492 C 0.84538 0.13036 0.98306 0.0
C493 C 0.89239 0.15528 0.89548 0.0
H494 H 0.91663 0.06692 0.91838 0.0
C495 C 0.94237 0.0984 0.76969 0.0
C496 C 0.96727 0.07649 0.78458 0.0
C497 C 0.92584 0.10929 0.79858 0.0
C498 C 0.9103 0.09173 0.91162 0.0
H499 H 0.8604 0.21577 1.00311 0.0
H500 H 0.89171 0.19365 0.9576 0.0
H501 H 0.89027 0.08798 0.9694 0.0
H502 H 0.9935 0.04816 0.8418 0.0
H503 H 0.9654 0.06784 0.89211 0.0
H504 H 0.91318 0.15929 0.83838 0.0
C505 C 0.87392 0.1792 0.97163 0.0
C506 C 0.89481 0.10374 0.94069 0.0
C507 C 0.85633 0.19181 0.99793 0.0
C508 C 0.97478 0.06536 0.82913 0.0
C509 C 0.95836 0.07637 0.85803 0.0
C510 C 0.90799 0.14331 0.86654 0.0
C511 C 0.86836 0.14843 0.96331 0.0
C512 C 0.88559 0.13568 0.93298 0.0
C513 C 0.93383 0.0987 0.84319 0.0
C514 C 0.91708 0.11135 0.87411 0.0
H515 H 0.8096 0.12916 0.02308 0.0
H516 H 0.84002 0.10684 0.97691 0.0
H517 H 0.88528 0.17988 0.88805 0.0
H518 H 0.93608 0.10778 0.7357 0.0
H519 H 0.90678 0.12609 0.78586 0.0
C520 C 0.36535 0.31418 0.3805 0.0
C521 C 0.34552 0.33086 0.39974 0.0
C522 C 0.38239 0.33006 0.34956 0.0
C523 C 0.41226 0.40837 0.30641 0.0
H524 H 0.4108 0.37374 0.20241 0.0
C525 C 0.45663 0.47869 0.15608 0.0
C526 C 0.47253 0.46214 0.13171 0.0
C527 C 0.44192 0.46254 0.18942 0.0
C528 C 0.41189 0.38355 0.23145 0.0
H529 H 0.32851 0.3772 0.40258 0.0
H530 H 0.35875 0.40523 0.3491 0.0
H531 H 0.3849 0.34588 0.26037 0.0
H532 H 0.48659 0.41578 0.12424 0.0
H533 H 0.46097 0.38742 0.18235 0.0
H534 H 0.43946 0.44591 0.27775 0.0
C535 C 0.3612 0.37984 0.35793 0.0
C536 C 0.39697 0.36756 0.26471 0.0
C537 C 0.34397 0.36386 0.38865 0.0
C538 C 0.47378 0.4291 0.14173 0.0
C539 C 0.45912 0.41289 0.17514 0.0
C540 C 0.42738 0.42427 0.27327 0.0
C541 C 0.38021 0.36308 0.33743 0.0
C542 C 0.39685 0.37981 0.30256 0.0
C543 C 0.44297 0.42939 0.19949 0.0
C544 C 0.4273 0.41216 0.2352 0.0
H545 H 0.36725 0.28875 0.38902 0.0
H546 H 0.39721 0.31647 0.33499 0.0
H547 H 0.41295 0.41827 0.33533 0.0
H548 H 0.45531 0.5042 0.14914 0.0
H549 H 0.42939 0.47611 0.20694 0.0
C550 C 0.18821 0.87312 0.97468 0.0
C551 C 0.18019 0.84143 0.98547 0.0
C552 C 0.1702 0.89293 0.94028 0.0
C553 C 0.09498 0.89889 0.86315 0.0
H554 H 0.14508 0.9473 0.7845 0.0
C555 C 0.04752 0.94192 0.68365 0.0
C556 C 0.05592 0.97206 0.66433 0.0
C557 C 0.06096 0.92907 0.7257 0.0
C558 C 0.13067 0.93435 0.80636 0.0
H559 H 0.14648 0.80576 0.9716 0.0
H560 H 0.11486 0.84006 0.91117 0.0
H561 H 0.17056 0.92024 0.85462 0.0
H562 H 0.08494 0.01244 0.67362 0.0
H563 H 0.10819 0.9902 0.74757 0.0
H564 H 0.05521 0.91233 0.81416 0.0
C565 C 0.13479 0.84996 0.92913 0.0
C566 C 0.14526 0.91887 0.84669 0.0
C567 C 0.15281 0.83026 0.96356 0.0
C568 C 0.07787 0.98924 0.68794 0.0
C569 C 0.09136 0.97639 0.73008 0.0
C570 C 0.08039 0.91431 0.82274 0.0
C571 C 0.14386 0.88128 0.91612 0.0
C572 C 0.12769 0.90053 0.87535 0.0
C573 C 0.08309 0.94611 0.74942 0.0
C574 C 0.09815 0.9318 0.79362 0.0
H575 H 0.20935 0.88198 0.99143 0.0
H576 H 0.17752 0.91706 0.93165 0.0
H577 H 0.08067 0.88536 0.88464 0.0
H578 H 0.03044 0.92828 0.66629 0.0
H579 H 0.05441 0.90552 0.73937 0.0
loop_
_geom_bond_atom_site_label_1
_geom_bond_atom_site_label_2
_geom_bond_distance
_geom_bond_site_symmetry_2
_ccdc_geom_bond_type
C0 N1 1.317 1_556 S
C0 N2 1.348 1_556 S
C0 C3 1.485 . S
N1 C0 1.317 1_554 S
N1 N5 1.370 . S
N2 C0 1.348 1_554 S
N2 C4 1.346 . S
C3 C0 1.485 . S
C3 H7 0.960 . S
C3 H8 0.961 . S
C3 H9 0.960 . S
C4 N2 1.346 . S
C4 N5 1.307 . S
C4 C6 1.486 . S
N5 N1 1.370 . S
N5 C4 1.307 . S
C6 C4 1.486 . S
C6 H10 0.960 . S
C6 H11 0.960 . S
C6 H12 0.959 . S
H7 C3 0.960 . S
H8 C3 0.961 . S
H9 C3 0.960 . S
H10 C6 0.960 . S
H11 C6 0.960 . S
H12 C6 0.959 . S
C13 N14 1.317 . S
C13 N15 1.348 . S
C13 C16 1.485 . S
N14 C13 1.317 . S
N14 N18 1.370 . S
N15 C13 1.348 . S
N15 C17 1.346 . S
C16 C13 1.485 . S
C16 H20 0.960 . S
C16 H21 0.961 . S
C16 H22 0.960 . S
C17 N15 1.346 . S
C17 N18 1.307 . S
C17 C19 1.486 . S
N18 N14 1.370 . S
N18 C17 1.307 . S
C19 C17 1.486 . S
C19 H23 0.960 . S
C19 H24 0.960 . S
C19 H25 0.959 . S
H20 C16 0.960 . S
H21 C16 0.961 . S
H22 C16 0.960 . S
H23 C19 0.960 . S
H24 C19 0.960 . S
H25 C19 0.959 . S
C26 N27 1.317 . S
C26 N28 1.348 . S
C26 C29 1.485 . S
N27 C26 1.317 . S
N27 N31 1.370 . S
N28 C26 1.348 . S
N28 C30 1.346 . S
C29 C26 1.485 . S
C29 H33 0.960 . S
C29 H34 0.961 . S
C29 H35 0.960 . S
C30 N28 1.346 . S
C30 N31 1.307 . S
C30 C32 1.486 1_554 S
N31 N27 1.370 . S
N31 C30 1.307 . S
C32 C30 1.486 1_556 S
C32 H36 0.960 . S
C32 H37 0.960 . S
C32 H38 0.959 . S
H33 C29 0.960 . S
H34 C29 0.961 . S
H35 C29 0.960 . S
H36 C32 0.960 . S
H37 C32 0.960 . S
H38 C32 0.959 . S
C39 N40 1.317 . S
C39 N41 1.348 . S
C39 C42 1.485 . S
N40 C39 1.317 . S
N40 N44 1.370 . S
N41 C39 1.348 . S
N41 C43 1.346 . S
C42 C39 1.485 . S
C42 H46 0.960 . S
C42 H47 0.961 . S
C42 H48 0.960 . S
C43 N41 1.346 . S
C43 N44 1.307 . S
C43 C45 1.486 . S
N44 N40 1.370 . S
N44 C43 1.307 . S
C45 C43 1.486 . S
C45 H49 0.960 . S
C45 H50 0.960 . S
C45 H51 0.959 . S
H46 C42 0.960 . S
H47 C42 0.961 . S
H48 C42 0.960 . S
H49 C45 0.960 . S
H50 C45 0.960 . S
H51 C45 0.959 . S
Tb52 N81 2.617 . S
Tb52 N87 2.572 . S
Tb52 O96 2.465 . S
Tb52 O97 2.387 . S
Tb52 O99 2.428 . S
Tb52 O100 2.308 1_565 S
Tb52 O104 2.349 1_465 S
Tb52 O107 2.393 1_455 S
Tb52 C116 2.802 . S
C53 N54 1.379 . S
C53 C56 1.416 . S
C53 C60 1.424 . S
N54 C53 1.379 . S
N54 C57 1.334 1_655 S
N54 Tb63 2.617 . S
C55 C57 1.390 . S
C55 C58 1.339 1_455 S
C55 H75 0.930 . S
C56 C53 1.416 . S
C56 C58 1.416 . S
C56 C62 1.448 . S
C57 N54 1.334 1_455 S
C57 C55 1.390 . S
C57 H68 0.930 . S
C58 C55 1.339 1_655 S
C58 C56 1.416 . S
C58 H79 0.930 . S
C59 C60 1.413 . S
C59 C61 1.427 . S
C59 C65 1.416 . S
C60 C53 1.424 . S
C60 C59 1.413 . S
C60 N64 1.361 . S
C61 C59 1.427 . S
C61 C62 1.328 . S
C61 H76 0.929 . S
C62 C56 1.448 . S
C62 C61 1.328 . S
C62 H77 0.930 . S
Tb63 N54 2.617 . S
Tb63 N64 2.572 . S
Tb63 O98 2.349 1_655 S
Tb63 O101 2.393 1_655 S
Tb63 O102 2.465 . S
Tb63 O103 2.387 . S
Tb63 O105 2.428 . S
Tb63 O106 2.308 1_545 S
Tb63 C127 2.802 . S
N64 C60 1.361 . S
N64 Tb63 2.572 . S
N64 C66 1.340 . S
C65 C59 1.416 . S
C65 C67 1.332 . S
C65 H73 0.931 . S
C66 N64 1.340 . S
C66 C67 1.407 . S
C66 H72 0.930 . S
C67 C65 1.332 . S
C67 C66 1.407 . S
C67 H69 0.929 . S
H68 C57 0.930 . S
H69 C67 0.929 . S
H70 C85 0.930 1_655 S
H71 C92 0.929 . S
H72 C66 0.930 . S
H73 C65 0.931 . S
H74 C88 0.930 . S
H75 C55 0.930 . S
H76 C61 0.929 . S
H77 C62 0.930 . S
H78 C83 0.930 1_655 S
H79 C58 0.930 . S
H80 C91 0.931 . S
N81 Tb52 2.617 . S
N81 C82 1.379 . S
N81 C85 1.334 . S
C82 N81 1.379 . S
C82 C84 1.416 . S
C82 C90 1.424 . S
C83 H78 0.930 1_455 S
C83 C85 1.390 . S
C83 C86 1.339 . S
C84 C82 1.416 . S
C84 C86 1.416 . S
C84 C117 1.448 . S
C85 H70 0.930 1_455 S
C85 N81 1.334 . S
C85 C83 1.390 . S
C86 C83 1.339 . S
C86 C84 1.416 . S
C86 H93 0.930 . S
N87 Tb52 2.572 . S
N87 C88 1.340 . S
N87 C90 1.361 . S
C88 H74 0.930 . S
C88 N87 1.340 . S
C88 C92 1.407 . S
C89 C90 1.413 . S
C89 C91 1.416 . S
C89 C118 1.427 . S
C90 C82 1.424 . S
C90 N87 1.361 . S
C90 C89 1.413 . S
C91 H80 0.931 . S
C91 C89 1.416 . S
C91 C92 1.332 . S
C92 H71 0.929 . S
C92 C88 1.407 . S
C92 C91 1.332 . S
H93 C86 0.930 . S
H94 C117 0.930 . S
H95 C118 0.929 . S
O96 Tb52 2.465 . S
O96 C116 1.264 . S
O97 Tb52 2.387 . S
O97 C108 1.264 . S
O98 Tb63 2.349 1_455 S
O98 C108 1.243 1_545 S
O99 Tb52 2.428 . S
O99 C116 1.256 . S
O100 Tb52 2.308 1_545 S
O100 C115 1.266 . S
O101 Tb63 2.393 1_455 S
O101 C115 1.248 . S
O102 Tb63 2.465 . S
O102 C127 1.264 . S
O103 Tb63 2.387 . S
O103 C119 1.264 . S
O104 Tb52 2.349 1_645 S
O104 C119 1.243 . S
O105 Tb63 2.428 . S
O105 C127 1.256 . S
O106 Tb63 2.308 1_565 S
O106 C126 1.266 . S
O107 Tb52 2.393 1_655 S
O107 C126 1.248 . S
C108 O97 1.264 . S
C108 O98 1.243 1_565 S
C109 C112 1.399 . S
C109 C114 1.383 . S
C109 C116 1.496 . S
C110 C111 1.399 . S
C110 C114 1.389 . S
C111 C110 1.399 . S
C111 C113 1.380 . S
C111 H128 0.929 . S
C112 C109 1.399 . S
C112 C113 1.392 . S
C112 H129 0.929 . S
C113 C111 1.380 . S
C113 C112 1.392 . S
C113 H130 0.929 . S
C114 C109 1.383 . S
C114 C110 1.389 . S
C114 H131 0.931 . S
C115 O100 1.266 . S
C115 O101 1.248 . S
C116 Tb52 2.802 . S
C116 O96 1.264 . S
C116 O99 1.256 . S
C116 C109 1.496 . S
C117 C84 1.448 . S
C117 H94 0.930 . S
C117 C118 1.328 . S
C118 C89 1.427 . S
C118 H95 0.929 . S
C118 C117 1.328 . S
C119 O103 1.264 . S
C119 O104 1.243 . S
C120 C123 1.399 . S
C120 C124 1.383 . S
C120 C127 1.496 . S
C121 C122 1.399 . S
C121 C124 1.389 . S
C122 C121 1.399 . S
C122 C125 1.380 . S
C122 H132 0.929 . S
C123 C120 1.399 . S
C123 C125 1.392 . S
C123 H133 0.929 . S
C124 C120 1.383 . S
C124 C121 1.389 . S
C124 H134 0.931 . S
C125 C122 1.380 . S
C125 C123 1.392 . S
C125 H135 0.929 . S
C126 O106 1.266 . S
C126 O107 1.248 . S
C127 Tb63 2.802 . S
C127 O102 1.264 . S
C127 O105 1.256 . S
C127 C120 1.496 . S
H128 C111 0.929 . S
H129 C112 0.929 . S
H130 C113 0.929 . S
H131 C114 0.931 . S
H132 C122 0.929 . S
H133 C123 0.929 . S
H134 C124 0.931 . S
H135 C125 0.929 . S
Tb136 N165 2.617 . S
Tb136 N171 2.572 1_556 S
Tb136 O180 2.465 . S
Tb136 O181 2.387 1_556 S
Tb136 O183 2.428 . S
Tb136 O184 2.308 1_556 S
Tb136 O188 2.349 . S
Tb136 O191 2.392 1_556 S
Tb136 C200 2.802 . S
C137 N138 1.379 . S
C137 C140 1.416 . S
C137 C144 1.424 . S
N138 C137 1.379 . S
N138 C141 1.334 . S
N138 Tb147 2.617 . S
C139 C141 1.390 . S
C139 C142 1.339 . S
C139 H159 0.930 . S
C140 C137 1.416 . S
C140 C142 1.416 . S
C140 C146 1.448 . S
C141 N138 1.334 . S
C141 C139 1.390 . S
C141 H152 0.930 . S
C142 C139 1.339 . S
C142 C140 1.416 . S
C142 H163 0.930 . S
C143 C144 1.413 . S
C143 C145 1.427 . S
C143 C149 1.416 . S
C144 C137 1.424 . S
C144 C143 1.413 . S
C144 N148 1.361 . S
C145 C143 1.427 . S
C145 C146 1.328 . S
C145 H160 0.929 . S
C146 C140 1.448 . S
C146 C145 1.328 . S
C146 H161 0.930 . S
Tb147 N138 2.617 . S
Tb147 N148 2.572 . S
Tb147 O182 2.349 . S
Tb147 O185 2.393 . S
Tb147 O186 2.465 . S
Tb147 O187 2.365 1_554 S
Tb147 O189 2.428 . S
Tb147 O190 2.308 . S
Tb147 C211 2.802 . S
N148 C144 1.361 . S
N148 Tb147 2.572 . S
N148 C150 1.340 . S
C149 C143 1.416 . S
C149 C151 1.332 . S
C149 H157 0.931 . S
C150 N148 1.340 . S
C150 C151 1.407 . S
C150 H156 0.930 . S
C151 C149 1.332 . S
C151 C150 1.407 . S
C151 H153 0.929 . S
H152 C141 0.930 . S
H153 C151 0.929 . S
H154 C169 0.930 . S
H155 C176 0.929 . S
H156 C150 0.930 . S
H157 C149 0.931 . S
H158 C172 0.930 . S
H159 C139 0.930 . S
H160 C145 0.929 . S
H161 C146 0.930 . S
H162 C167 0.930 . S
H163 C142 0.930 . S
H164 C175 0.931 . S
N165 Tb136 2.617 . S
N165 C166 1.379 1_556 S
N165 C169 1.334 . S
C166 N165 1.379 1_554 S
C166 C168 1.416 . S
C166 C174 1.424 . S
C167 H162 0.930 . S
C167 C169 1.390 . S
C167 C170 1.339 1_556 S
C168 C166 1.416 . S
C168 C170 1.416 . S
C168 C201 1.448 . S
C169 H154 0.930 . S
C169 N165 1.334 . S
C169 C167 1.390 . S
C170 C167 1.339 1_554 S
C170 C168 1.416 . S
C170 H177 0.930 . S
N171 Tb136 2.572 1_554 S
N171 C172 1.340 . S
N171 C174 1.361 . S
C172 H158 0.930 . S
C172 N171 1.340 . S
C172 C176 1.407 . S
C173 C174 1.413 . S
C173 C175 1.416 . S
C173 C202 1.427 . S
C174 C166 1.424 . S
C174 N171 1.361 . S
C174 C173 1.413 . S
C175 H164 0.931 . S
C175 C173 1.416 . S
C175 C176 1.332 . S
C176 H155 0.929 . S
C176 C172 1.407 . S
C176 C175 1.332 . S
H177 C170 0.930 . S
H178 C201 0.930 . S
H179 C202 0.929 . S
O180 Tb136 2.465 . S
O180 C200 1.264 . S
O181 Tb136 2.387 1_554 S
O181 C192 1.264 . S
O182 Tb147 2.349 . S
O182 C192 1.243 . S
O183 Tb136 2.428 . S
O183 C200 1.256 . S
O184 Tb136 2.308 1_554 S
O184 C199 1.266 . S
O185 Tb147 2.393 . S
O185 C199 1.248 . S
O186 Tb147 2.465 . S
O186 C211 1.264 . S
O187 Tb147 2.365 1_556 S
O187 C203 1.281 . S
O188 Tb136 2.349 . S
O188 C203 1.243 . S
O189 Tb147 2.428 . S
O189 C211 1.256 . S
O190 Tb147 2.308 . S
O190 C210 1.266 . S
O191 Tb136 2.392 1_554 S
O191 C210 1.250 . S
C192 O181 1.264 . S
C192 O182 1.243 . S
C193 C196 1.399 . S
C193 C198 1.383 . S
C193 C200 1.496 . S
C194 C195 1.399 . S
C194 C198 1.389 . S
C195 C194 1.399 . S
C195 C197 1.380 . S
C195 H212 0.929 . S
C196 C193 1.399 . S
C196 C197 1.392 . S
C196 H213 0.929 . S
C197 C195 1.380 . S
C197 C196 1.392 . S
C197 H214 0.929 . S
C198 C193 1.383 . S
C198 C194 1.389 . S
C198 H215 0.931 . S
C199 O184 1.266 . S
C199 O185 1.248 . S
C200 Tb136 2.802 . S
C200 O180 1.264 . S
C200 O183 1.256 . S
C200 C193 1.496 . S
C201 C168 1.448 . S
C201 H178 0.930 . S
C201 C202 1.328 . S
C202 C173 1.427 . S
C202 H179 0.929 . S
C202 C201 1.328 . S
C203 O187 1.281 . S
C203 O188 1.243 . S
C204 C207 1.399 . S
C204 C208 1.383 . S
C204 C211 1.496 . S
C205 C206 1.399 . S
C205 C208 1.389 . S
C206 C205 1.399 . S
C206 C209 1.380 . S
C206 H216 0.929 . S
C207 C204 1.399 . S
C207 C209 1.392 . S
C207 H217 0.929 . S
C208 C204 1.383 . S
C208 C205 1.389 . S
C208 H218 0.931 . S
C209 C206 1.380 . S
C209 C207 1.392 . S
C209 H219 0.929 . S
C210 O190 1.266 . S
C210 O191 1.250 . S
C211 Tb147 2.802 . S
C211 O186 1.264 . S
C211 O189 1.256 . S
C211 C204 1.496 . S
H212 C195 0.929 . S
H213 C196 0.929 . S
H214 C197 0.929 . S
H215 C198 0.931 . S
H216 C206 0.929 . S
H217 C207 0.929 . S
H218 C208 0.931 . S
H219 C209 0.929 . S
C220 C221 1.349 . S
C220 C222 1.327 . S
C220 H245 0.950 . S
C221 C220 1.349 . S
C221 C237 1.349 . S
C222 C220 1.327 . S
C222 C241 1.429 . S
C222 H246 0.950 . S
C223 C240 1.574 . S
C223 C242 1.368 . S
C223 H247 0.949 . S
H224 C228 0.949 . S
C225 C226 1.349 . S
C225 C227 1.327 . S
C225 H248 0.950 . S
C226 C225 1.349 . S
C226 C238 1.349 . S
C227 C225 1.327 . S
C227 C243 1.429 . S
C227 H249 0.950 . S
C228 H224 0.949 . S
C228 C236 1.574 . S
C228 C244 1.368 . S
H229 C237 0.950 . S
H230 C235 0.950 . S
H231 C236 0.949 . S
H232 C238 0.950 . S
H233 C239 0.950 . S
H234 C240 0.949 . S
C235 H230 0.950 . S
C235 C237 1.327 . S
C235 C241 1.429 . S
C236 C228 1.574 . S
C236 H231 0.949 . S
C236 C242 1.368 . S
C237 C221 1.349 . S
C237 H229 0.950 . S
C237 C235 1.327 . S
C238 C226 1.349 . S
C238 H232 0.950 . S
C238 C239 1.327 . S
C239 H233 0.950 . S
C239 C238 1.327 . S
C239 C243 1.429 . S
C240 C223 1.574 . S
C240 H234 0.949 . S
C240 C244 1.368 . S
C241 C222 1.429 . S
C241 C235 1.429 . S
C241 C242 1.523 . S
C242 C223 1.368 . S
C242 C236 1.368 . S
C242 C241 1.523 . S
C243 C227 1.429 . S
C243 C239 1.429 . S
C243 C244 1.523 . S
C244 C228 1.368 . S
C244 C240 1.368 . S
C244 C243 1.523 . S
H245 C220 0.950 . S
H246 C222 0.950 . S
H247 C223 0.949 . S
H248 C225 0.950 . S
H249 C227 0.950 . S
C250 C251 1.349 . S
C250 C252 1.327 . S
C250 H275 0.950 . S
C251 C250 1.349 . S
C251 C267 1.349 . S
C252 C250 1.327 . S
C252 C271 1.429 . S
C252 H276 0.950 . S
C253 C270 1.574 . S
C253 C272 1.368 . S
C253 H277 0.949 . S
H254 C258 0.949 . S
C255 C256 1.349 . S
C255 C257 1.327 . S
C255 H278 0.950 . S
C256 C255 1.349 . S
C256 C268 1.349 . S
C257 C255 1.327 . S
C257 C273 1.429 . S
C257 H279 0.950 . S
C258 H254 0.949 . S
C258 C266 1.574 . S
C258 C274 1.368 . S
H259 C267 0.950 . S
H260 C265 0.950 . S
H261 C266 0.949 . S
H262 C268 0.950 . S
H263 C269 0.950 . S
H264 C270 0.949 . S
C265 H260 0.950 . S
C265 C267 1.327 . S
C265 C271 1.429 . S
C266 C258 1.574 . S
C266 H261 0.949 . S
C266 C272 1.368 . S
C267 C251 1.349 . S
C267 H259 0.950 . S
C267 C265 1.327 . S
C268 C256 1.349 . S
C268 H262 0.950 . S
C268 C269 1.327 . S
C269 H263 0.950 . S
C269 C268 1.327 . S
C269 C273 1.429 . S
C270 C253 1.574 . S
C270 H264 0.949 . S
C270 C274 1.368 . S
C271 C252 1.429 . S
C271 C265 1.429 . S
C271 C272 1.523 . S
C272 C253 1.368 . S
C272 C266 1.368 . S
C272 C271 1.523 . S
C273 C257 1.429 . S
C273 C269 1.429 . S
C273 C274 1.523 . S
C274 C258 1.368 . S
C274 C270 1.368 . S
C274 C273 1.523 . S
H275 C250 0.950 . S
H276 C252 0.950 . S
H277 C253 0.949 . S
H278 C255 0.950 . S
H279 C257 0.950 . S
C280 C281 1.349 . S
C280 C282 1.327 . S
C280 H305 0.950 . S
C281 C280 1.349 . S
C281 C297 1.349 . S
C282 C280 1.327 . S
C282 C301 1.429 . S
C282 H306 0.950 . S
C283 C300 1.574 . S
C283 C302 1.368 . S
C283 H307 0.949 . S
H284 C288 0.949 . S
C285 C286 1.349 . S
C285 C287 1.327 . S
C285 H308 0.950 . S
C286 C285 1.349 . S
C286 C298 1.349 . S
C287 C285 1.327 . S
C287 C303 1.429 . S
C287 H309 0.950 . S
C288 H284 0.949 . S
C288 C296 1.574 . S
C288 C304 1.368 . S
H289 C297 0.950 . S
H290 C295 0.950 . S
H291 C296 0.949 . S
H292 C298 0.950 . S
H293 C299 0.950 . S
H294 C300 0.949 . S
C295 H290 0.950 . S
C295 C297 1.327 . S
C295 C301 1.429 . S
C296 C288 1.574 . S
C296 H291 0.949 . S
C296 C302 1.368 . S
C297 C281 1.349 . S
C297 H289 0.950 . S
C297 C295 1.327 . S
C298 C286 1.349 . S
C298 H292 0.950 . S
C298 C299 1.327 . S
C299 H293 0.950 . S
C299 C298 1.327 . S
C299 C303 1.429 . S
C300 C283 1.574 . S
C300 H294 0.949 . S
C300 C304 1.368 . S
C301 C282 1.429 . S
C301 C295 1.429 . S
C301 C302 1.523 . S
C302 C283 1.368 . S
C302 C296 1.368 . S
C302 C301 1.523 . S
C303 C287 1.429 . S
C303 C299 1.429 . S
C303 C304 1.523 . S
C304 C288 1.368 . S
C304 C300 1.368 . S
C304 C303 1.523 . S
H305 C280 0.950 . S
H306 C282 0.950 . S
H307 C283 0.949 . S
H308 C285 0.950 . S
H309 C287 0.950 . S
C310 C311 1.349 1_556 S
C310 C312 1.327 . S
C310 H335 0.950 . S
C311 C310 1.349 1_554 S
C311 C327 1.349 . S
C312 C310 1.327 . S
C312 C331 1.429 1_556 S
C312 H336 0.950 . S
C313 C330 1.574 . S
C313 C332 1.368 . S
C313 H337 0.949 . S
H314 C318 0.949 . S
C315 C316 1.349 . S
C315 C317 1.327 . S
C315 H338 0.950 . S
C316 C315 1.349 . S
C316 C328 1.349 1_554 S
C317 C315 1.327 . S
C317 C333 1.429 . S
C317 H339 0.950 . S
C318 H314 0.949 . S
C318 C326 1.574 . S
C318 C334 1.368 1_556 S
H319 C327 0.950 . S
H320 C325 0.950 . S
H321 C326 0.949 . S
H322 C328 0.950 . S
H323 C329 0.950 . S
H324 C330 0.949 . S
C325 H320 0.950 . S
C325 C327 1.327 . S
C325 C331 1.429 . S
C326 C318 1.574 . S
C326 H321 0.949 . S
C326 C332 1.368 1_556 S
C327 C311 1.349 . S
C327 H319 0.950 . S
C327 C325 1.327 . S
C328 C316 1.349 1_556 S
C328 H322 0.950 . S
C328 C329 1.327 . S
C329 H323 0.950 . S
C329 C328 1.327 . S
C329 C333 1.429 1_556 S
C330 C313 1.574 . S
C330 H324 0.949 . S
C330 C334 1.368 . S
C331 C312 1.429 1_554 S
C331 C325 1.429 . S
C331 C332 1.523 . S
C332 C313 1.368 . S
C332 C326 1.368 1_554 S
C332 C331 1.523 . S
C333 C317 1.429 . S
C333 C329 1.429 1_554 S
C333 C334 1.523 . S
C334 C318 1.368 1_554 S
C334 C330 1.368 . S
C334 C333 1.523 . S
H335 C310 0.950 . S
H336 C312 0.950 . S
H337 C313 0.949 . S
H338 C315 0.950 . S
H339 C317 0.950 . S
C340 C341 1.349 . S
C340 C342 1.327 . S
C340 H365 0.950 . S
C341 C340 1.349 . S
C341 C357 1.349 . S
C342 C340 1.327 . S
C342 C361 1.429 . S
C342 H366 0.950 . S
C343 C360 1.574 . S
C343 C362 1.368 . S
C343 H367 0.949 . S
H344 C348 0.949 . S
C345 C346 1.349 . S
C345 C347 1.327 . S
C345 H368 0.950 . S
C346 C345 1.349 . S
C346 C358 1.349 . S
C347 C345 1.327 . S
C347 C363 1.429 . S
C347 H369 0.950 . S
C348 H344 0.949 . S
C348 C356 1.574 . S
C348 C364 1.368 . S
H349 C357 0.950 . S
H350 C355 0.950 . S
H351 C356 0.949 . S
H352 C358 0.950 . S
H353 C359 0.950 . S
H354 C360 0.949 . S
C355 H350 0.950 . S
C355 C357 1.327 . S
C355 C361 1.429 . S
C356 C348 1.574 . S
C356 H351 0.949 . S
C356 C362 1.368 . S
C357 C341 1.349 . S
C357 H349 0.950 . S
C357 C355 1.327 . S
C358 C346 1.349 . S
C358 H352 0.950 . S
C358 C359 1.327 . S
C359 H353 0.950 . S
C359 C358 1.327 . S
C359 C363 1.429 . S
C360 C343 1.574 . S
C360 H354 0.949 . S
C360 C364 1.368 . S
C361 C342 1.429 . S
C361 C355 1.429 . S
C361 C362 1.523 . S
C362 C343 1.368 . S
C362 C356 1.368 . S
C362 C361 1.523 . S
C363 C347 1.429 . S
C363 C359 1.429 . S
C363 C364 1.523 . S
C364 C348 1.368 . S
C364 C360 1.368 . S
C364 C363 1.523 . S
H365 C340 0.950 . S
H366 C342 0.950 . S
H367 C343 0.949 . S
H368 C345 0.950 . S
H369 C347 0.950 . S
C370 C371 1.349 . S
C370 C372 1.327 . S
C370 H395 0.950 . S
C371 C370 1.349 . S
C371 C387 1.349 . S
C372 C370 1.327 . S
C372 C391 1.429 . S
C372 H396 0.950 . S
C373 C390 1.574 . S
C373 C392 1.368 . S
C373 H397 0.949 . S
H374 C378 0.949 . S
C375 C376 1.349 . S
C375 C377 1.327 . S
C375 H398 0.950 . S
C376 C375 1.349 . S
C376 C388 1.349 . S
C377 C375 1.327 . S
C377 C393 1.429 . S
C377 H399 0.950 . S
C378 H374 0.949 . S
C378 C386 1.574 . S
C378 C394 1.368 . S
H379 C387 0.950 . S
H380 C385 0.950 . S
H381 C386 0.949 . S
H382 C388 0.950 . S
H383 C389 0.950 . S
H384 C390 0.949 . S
C385 H380 0.950 . S
C385 C387 1.327 . S
C385 C391 1.429 . S
C386 C378 1.574 . S
C386 H381 0.949 . S
C386 C392 1.368 . S
C387 C371 1.349 . S
C387 H379 0.950 . S
C387 C385 1.327 . S
C388 C376 1.349 . S
C388 H382 0.950 . S
C388 C389 1.327 . S
C389 H383 0.950 . S
C389 C388 1.327 . S
C389 C393 1.429 . S
C390 C373 1.574 . S
C390 H384 0.949 . S
C390 C394 1.368 . S
C391 C372 1.429 . S
C391 C385 1.429 . S
C391 C392 1.523 . S
C392 C373 1.368 . S
C392 C386 1.368 . S
C392 C391 1.523 . S
C393 C377 1.429 . S
C393 C389 1.429 . S
C393 C394 1.523 . S
C394 C378 1.368 . S
C394 C390 1.368 . S
C394 C393 1.523 . S
H395 C370 0.950 . S
H396 C372 0.950 . S
H397 C373 0.949 . S
H398 C375 0.950 . S
H399 C377 0.950 . S
C400 C401 1.349 . S
C400 C402 1.327 . S
C400 H425 0.950 . S
C401 C400 1.349 . S
C401 C417 1.349 . S
C402 C400 1.327 . S
C402 C421 1.429 . S
C402 H426 0.950 . S
C403 C420 1.574 . S
C403 C422 1.368 . S
C403 H427 0.949 . S
H404 C408 0.949 . S
C405 C406 1.349 . S
C405 C407 1.327 . S
C405 H428 0.950 . S
C406 C405 1.349 . S
C406 C418 1.349 . S
C407 C405 1.327 . S
C407 C423 1.429 . S
C407 H429 0.950 . S
C408 H404 0.949 . S
C408 C416 1.574 . S
C408 C424 1.368 . S
H409 C417 0.950 . S
H410 C415 0.950 . S
H411 C416 0.949 . S
H412 C418 0.950 . S
H413 C419 0.950 . S
H414 C420 0.949 . S
C415 H410 0.950 . S
C415 C417 1.327 . S
C415 C421 1.429 . S
C416 C408 1.574 . S
C416 H411 0.949 . S
C416 C422 1.368 . S
C417 C401 1.349 . S
C417 H409 0.950 . S
C417 C415 1.327 . S
C418 C406 1.349 . S
C418 H412 0.950 . S
C418 C419 1.327 . S
C419 H413 0.950 . S
C419 C418 1.327 . S
C419 C423 1.429 . S
C420 C403 1.574 . S
C420 H414 0.949 . S
C420 C424 1.368 . S
C421 C402 1.429 . S
C421 C415 1.429 . S
C421 C422 1.523 . S
C422 C403 1.368 . S
C422 C416 1.368 . S
C422 C421 1.523 . S
C423 C407 1.429 . S
C423 C419 1.429 . S
C423 C424 1.523 . S
C424 C408 1.368 . S
C424 C420 1.368 . S
C424 C423 1.523 . S
H425 C400 0.950 . S
H426 C402 0.950 . S
H427 C403 0.949 . S
H428 C405 0.950 . S
H429 C407 0.950 . S
C430 C431 1.349 . S
C430 C432 1.327 . S
C430 H455 0.950 . S
C431 C430 1.349 . S
C431 C447 1.349 . S
C432 C430 1.327 . S
C432 C451 1.429 . S
C432 H456 0.950 . S
C433 C450 1.574 . S
C433 C452 1.368 . S
C433 H457 0.949 . S
H434 C438 0.949 . S
C435 C436 1.349 . S
C435 C437 1.327 . S
C435 H458 0.950 . S
C436 C435 1.349 . S
C436 C448 1.349 . S
C437 C435 1.327 . S
C437 C453 1.429 . S
C437 H459 0.950 . S
C438 H434 0.949 . S
C438 C446 1.574 . S
C438 C454 1.368 . S
H439 C447 0.950 . S
H440 C445 0.950 . S
H441 C446 0.949 . S
H442 C448 0.950 . S
H443 C449 0.950 . S
H444 C450 0.949 . S
C445 H440 0.950 . S
C445 C447 1.327 . S
C445 C451 1.429 . S
C446 C438 1.574 . S
C446 H441 0.949 . S
C446 C452 1.368 . S
C447 C431 1.349 . S
C447 H439 0.950 . S
C447 C445 1.327 . S
C448 C436 1.349 . S
C448 H442 0.950 . S
C448 C449 1.327 . S
C449 H443 0.950 . S
C449 C448 1.327 . S
C449 C453 1.429 . S
C450 C433 1.574 . S
C450 H444 0.949 . S
C450 C454 1.368 . S
C451 C432 1.429 . S
C451 C445 1.429 . S
C451 C452 1.523 . S
C452 C433 1.368 . S
C452 C446 1.368 . S
C452 C451 1.523 . S
C453 C437 1.429 . S
C453 C449 1.429 . S
C453 C454 1.523 . S
C454 C438 1.368 . S
C454 C450 1.368 . S
C454 C453 1.523 . S
H455 C430 0.950 . S
H456 C432 0.950 . S
H457 C433 0.949 . S
H458 C435 0.950 . S
H459 C437 0.950 . S
C460 C461 1.349 . S
C460 C462 1.327 . S
C460 H485 0.950 . S
C461 C460 1.349 . S
C461 C477 1.349 . S
C462 C460 1.327 . S
C462 C481 1.429 . S
C462 H486 0.950 . S
C463 C480 1.574 . S
C463 C482 1.368 . S
C463 H487 0.949 . S
H464 C468 0.949 . S
C465 C466 1.349 . S
C465 C467 1.327 . S
C465 H488 0.950 . S
C466 C465 1.349 . S
C466 C478 1.349 . S
C467 C465 1.327 . S
C467 C483 1.429 . S
C467 H489 0.950 . S
C468 H464 0.949 . S
C468 C476 1.574 . S
C468 C484 1.368 . S
H469 C477 0.950 . S
H470 C475 0.950 . S
H471 C476 0.949 . S
H472 C478 0.950 . S
H473 C479 0.950 . S
H474 C480 0.949 . S
C475 H470 0.950 . S
C475 C477 1.327 . S
C475 C481 1.429 . S
C476 C468 1.574 . S
C476 H471 0.949 . S
C476 C482 1.368 . S
C477 C461 1.349 . S
C477 H469 0.950 . S
C477 C475 1.327 . S
C478 C466 1.349 . S
C478 H472 0.950 . S
C478 C479 1.327 . S
C479 H473 0.950 . S
C479 C478 1.327 . S
C479 C483 1.429 . S
C480 C463 1.574 . S
C480 H474 0.949 . S
C480 C484 1.368 . S
C481 C462 1.429 . S
C481 C475 1.429 . S
C481 C482 1.523 . S
C482 C463 1.368 . S
C482 C476 1.368 . S
C482 C481 1.523 . S
C483 C467 1.429 . S
C483 C479 1.429 . S
C483 C484 1.523 . S
C484 C468 1.368 . S
C484 C480 1.368 . S
C484 C483 1.523 . S
H485 C460 0.950 . S
H486 C462 0.950 . S
H487 C463 0.949 . S
H488 C465 0.950 . S
H489 C467 0.950 . S
C490 C491 1.349 . S
C490 C492 1.327 . S
C490 H515 0.950 1_556 S
C491 C490 1.349 . S
C491 C507 1.349 . S
C492 C490 1.327 . S
C492 C511 1.429 . S
C492 H516 0.950 . S
C493 C510 1.574 . S
C493 C512 1.368 . S
C493 H517 0.949 . S
H494 C498 0.949 . S
C495 C496 1.349 . S
C495 C497 1.327 . S
C495 H518 0.950 . S
C496 C495 1.349 . S
C496 C508 1.349 . S
C497 C495 1.327 . S
C497 C513 1.429 . S
C497 H519 0.950 . S
C498 H494 0.949 . S
C498 C506 1.574 . S
C498 C514 1.368 . S
H499 C507 0.950 . S
H500 C505 0.950 . S
H501 C506 0.949 . S
H502 C508 0.950 . S
H503 C509 0.950 . S
H504 C510 0.949 . S
C505 H500 0.950 . S
C505 C507 1.327 . S
C505 C511 1.429 . S
C506 C498 1.574 . S
C506 H501 0.949 . S
C506 C512 1.368 . S
C507 C491 1.349 . S
C507 H499 0.950 . S
C507 C505 1.327 . S
C508 C496 1.349 . S
C508 H502 0.950 . S
C508 C509 1.327 . S
C509 H503 0.950 . S
C509 C508 1.327 . S
C509 C513 1.429 . S
C510 C493 1.574 . S
C510 H504 0.949 . S
C510 C514 1.368 . S
C511 C492 1.429 . S
C511 C505 1.429 . S
C511 C512 1.523 . S
C512 C493 1.368 . S
C512 C506 1.368 . S
C512 C511 1.523 . S
C513 C497 1.429 . S
C513 C509 1.429 . S
C513 C514 1.523 . S
C514 C498 1.368 . S
C514 C510 1.368 . S
C514 C513 1.523 . S
H515 C490 0.950 1_554 S
H516 C492 0.950 . S
H517 C493 0.949 . S
H518 C495 0.950 . S
H519 C497 0.950 . S
C520 C521 1.349 . S
C520 C522 1.327 . S
C520 H545 0.950 . S
C521 C520 1.349 . S
C521 C537 1.349 . S
C522 C520 1.327 . S
C522 C541 1.429 . S
C522 H546 0.950 . S
C523 C540 1.574 . S
C523 C542 1.368 . S
C523 H547 0.949 . S
H524 C528 0.949 . S
C525 C526 1.349 . S
C525 C527 1.327 . S
C525 H548 0.950 . S
C526 C525 1.349 . S
C526 C538 1.349 . S
C527 C525 1.327 . S
C527 C543 1.429 . S
C527 H549 0.950 . S
C528 H524 0.949 . S
C528 C536 1.574 . S
C528 C544 1.368 . S
H529 C537 0.950 . S
H530 C535 0.950 . S
H531 C536 0.949 . S
H532 C538 0.950 . S
H533 C539 0.950 . S
H534 C540 0.949 . S
C535 H530 0.950 . S
C535 C537 1.327 . S
C535 C541 1.429 . S
C536 C528 1.574 . S
C536 H531 0.949 . S
C536 C542 1.368 . S
C537 C521 1.349 . S
C537 H529 0.950 . S
C537 C535 1.327 . S
C538 C526 1.349 . S
C538 H532 0.950 . S
C538 C539 1.327 . S
C539 H533 0.950 . S
C539 C538 1.327 . S
C539 C543 1.429 . S
C540 C523 1.574 . S
C540 H534 0.949 . S
C540 C544 1.368 . S
C541 C522 1.429 . S
C541 C535 1.429 . S
C541 C542 1.523 . S
C542 C523 1.368 . S
C542 C536 1.368 . S
C542 C541 1.523 . S
C543 C527 1.429 . S
C543 C539 1.429 . S
C543 C544 1.523 . S
C544 C528 1.368 . S
C544 C540 1.368 . S
C544 C543 1.523 . S
H545 C520 0.950 . S
H546 C522 0.950 . S
H547 C523 0.949 . S
H548 C525 0.950 . S
H549 C527 0.950 . S
C550 C551 1.349 . S
C550 C552 1.327 . S
C550 H575 0.950 . S
C551 C550 1.349 . S
C551 C567 1.349 . S
C552 C550 1.327 . S
C552 C571 1.429 . S
C552 H576 0.950 . S
C553 C570 1.574 . S
C553 C572 1.368 . S
C553 H577 0.949 . S
H554 C558 0.949 . S
C555 C556 1.349 . S
C555 C557 1.327 . S
C555 H578 0.950 . S
C556 C555 1.349 . S
C556 C568 1.349 . S
C557 C555 1.327 . S
C557 C573 1.429 . S
C557 H579 0.950 . S
C558 H554 0.949 . S
C558 C566 1.574 . S
C558 C574 1.368 . S
H559 C567 0.950 . S
H560 C565 0.950 . S
H561 C566 0.949 . S
H562 C568 0.950 1_545 S
H563 C569 0.950 . S
H564 C570 0.949 . S
C565 H560 0.950 . S
C565 C567 1.327 . S
C565 C571 1.429 . S
C566 C558 1.574 . S
C566 H561 0.949 . S
C566 C572 1.368 . S
C567 C551 1.349 . S
C567 H559 0.950 . S
C567 C565 1.327 . S
C568 C556 1.349 . S
C568 H562 0.950 1_565 S
C568 C569 1.327 . S
C569 H563 0.950 . S
C569 C568 1.327 . S
C569 C573 1.429 . S
C570 C553 1.574 . S
C570 H564 0.949 . S
C570 C574 1.368 . S
C571 C552 1.429 . S
C571 C565 1.429 . S
C571 C572 1.523 . S
C572 C553 1.368 . S
C572 C566 1.368 . S
C572 C571 1.523 . S
C573 C557 1.429 . S
C573 C569 1.429 . S
C573 C574 1.523 . S
C574 C558 1.368 . S
C574 C570 1.368 . S
C574 C573 1.523 . S
H575 C550 0.950 . S
H576 C552 0.950 . S
H577 C553 0.949 . S
H578 C555 0.950 . S
H579 C557 0.950 . S
C226 C115 1.692 . S
C221 N41 1.723 . S
C251 N2 1.675 . S
C256 C210 1.656 . S
C281 N15 1.718 . S
C286 C126 1.692 . S
C311 N28 1.669 . S
C316 C199 1.657 . S
C346 C110 1.430 . S
C341 N5 1.615 . S
C376 C203 1.694 . S
C371 N14 1.682 . S
C401 N27 1.591 . S
C406 C119 1.623 . S
C431 N44 1.586 . S
C436 C194 1.432 . S
C466 C205 1.432 . S
C461 N18 1.585 . S
C496 C121 1.430 . S
C491 N31 1.614 1_556 S
C526 C192 1.694 . S
C521 N40 1.692 . S
C551 N1 1.604 1_556 S
C556 C108 1.623 . S
