# Generated by pormake.
# Topology dag, (6,3)-cn, num edge types: 1
# Building blocks:
#     Node 0, Type 0, BuildingBlock: MIDCAF_clean_sbu_0, # of connection points: 6
#     Node 1, Type 0, BuildingBlock: MIDCAF_clean_sbu_0, # of connection points: 6
#     Node 2, Type 0, BuildingBlock: MIDCAF_clean_sbu_0, # of connection points: 6
#     Node 3, Type 0, BuildingBlock: MIDCAF_clean_sbu_0, # of connection points: 6
#     Node 4, Type 1, BuildingBlock: INOVEN_clean_linker_0, # of connection points: 3
#     Node 5, Type 1, BuildingBlock: INOVEN_clean_linker_0, # of connection points: 3
#     Node 6, Type 1, BuildingBlock: INOVEN_clean_linker_0, # of connection points: 3
#     Node 7, Type 1, BuildingBlock: INOVEN_clean_linker_0, # of connection points: 3
#     Node 8, Type 1, BuildingBlock: INOVEN_clean_linker_0, # of connection points: 3
#     Node 9, Type 1, BuildingBlock: INOVEN_clean_linker_0, # of connection points: 3
#     Node 10, Type 1, BuildingBlock: INOVEN_clean_linker_0, # of connection points: 3
#     Node 11, Type 1, BuildingBlock: INOVEN_clean_linker_0, # of connection points: 3
#     Edge 12, Type (0, 1), BuildingBlock: EYOCIG_clean_linker_4, # of connection points: 2
#     Edge 13, Type (0, 1), BuildingBlock: EYOCIG_clean_linker_4, # of connection points: 2
#     Edge 14, Type (0, 1), BuildingBlock: EYOCIG_clean_linker_4, # of connection points: 2
#     Edge 15, Type (0, 1), BuildingBlock: EYOCIG_clean_linker_4, # of connection points: 2
#     Edge 16, Type (0, 1), BuildingBlock: EYOCIG_clean_linker_4, # of connection points: 2
#     Edge 17, Type (0, 1), BuildingBlock: EYOCIG_clean_linker_4, # of connection points: 2
#     Edge 18, Type (0, 1), BuildingBlock: EYOCIG_clean_linker_4, # of connection points: 2
#     Edge 19, Type (0, 1), BuildingBlock: EYOCIG_clean_linker_4, # of connection points: 2
#     Edge 20, Type (0, 1), BuildingBlock: EYOCIG_clean_linker_4, # of connection points: 2
#     Edge 21, Type (0, 1), BuildingBlock: EYOCIG_clean_linker_4, # of connection points: 2
#     Edge 22, Type (0, 1), BuildingBlock: EYOCIG_clean_linker_4, # of connection points: 2
#     Edge 23, Type (0, 1), BuildingBlock: EYOCIG_clean_linker_4, # of connection points: 2
#     Edge 24, Type (0, 1), BuildingBlock: EYOCIG_clean_linker_4, # of connection points: 2
#     Edge 25, Type (0, 1), BuildingBlock: EYOCIG_clean_linker_4, # of connection points: 2
#     Edge 26, Type (0, 1), BuildingBlock: EYOCIG_clean_linker_4, # of connection points: 2
#     Edge 27, Type (0, 1), BuildingBlock: EYOCIG_clean_linker_4, # of connection points: 2
#     Edge 28, Type (0, 1), BuildingBlock: EYOCIG_clean_linker_4, # of connection points: 2
#     Edge 29, Type (0, 1), BuildingBlock: EYOCIG_clean_linker_4, # of connection points: 2
#     Edge 30, Type (0, 1), BuildingBlock: EYOCIG_clean_linker_4, # of connection points: 2
#     Edge 31, Type (0, 1), BuildingBlock: EYOCIG_clean_linker_4, # of connection points: 2
#     Edge 32, Type (0, 1), BuildingBlock: EYOCIG_clean_linker_4, # of connection points: 2
#     Edge 33, Type (0, 1), BuildingBlock: EYOCIG_clean_linker_4, # of connection points: 2
#     Edge 34, Type (0, 1), BuildingBlock: EYOCIG_clean_linker_4, # of connection points: 2
#     Edge 35, Type (0, 1), BuildingBlock: EYOCIG_clean_linker_4, # of connection points: 2
# Relax obj value: 0.135
# Max RMSD: 0.144
# Mean RMSD: 0.116
data_MOF--net-dag--node1-MIDCAF_clean_sbu_0--node2-INOVEN_clean_linker_0--edge1-EYOCIG_clean_linker_4
_symmetry_space_group_name_H-M    P1
_symmetry_Int_Tables_number       1
_symmetry_cell_setting            triclinic
loop_
_symmetry_equiv_pos_as_xyz
'x, y, z'
_cell_length_a     31.35207
_cell_length_b     33.086692
_cell_length_c     24.178037
_cell_angle_alpha  92.712301
_cell_angle_beta   90.026694
_cell_angle_gamma 90.003195
loop_
_atom_site_label
_atom_site_type_symbol
_atom_site_fract_x
_atom_site_fract_y
_atom_site_fract_z
_atom_type_partial_charge
Zn0 Zn 0.09425 0.88274 0.1408 0.0
Zn1 Zn 0.1414 0.86306 0.95309 0.0
Zn2 Zn 0.11846 0.86248 0.05248 0.0
C3 C 0.12939 0.94411 0.99455 0.0
C4 C 0.0661 0.81591 0.96113 0.0
O5 O 0.15826 0.82872 0.11081 0.0
O6 O 0.10922 0.82967 0.17625 0.0
C7 C 0.17768 0.90634 0.12617 0.0
O8 O 0.11557 0.92589 0.03623 0.0
O9 O 0.14424 0.92418 0.953 0.0
O10 O 0.08891 0.83299 0.926 0.0
O11 O 0.07309 0.82182 1.01301 0.0
O12 O 0.14278 0.92319 0.14046 0.0
O13 O 0.17711 0.87157 0.09992 0.0
O14 O 0.05477 0.83819 0.06806 0.0
O15 O 0.03294 0.89052 0.12032 0.0
C16 C 0.02457 0.85818 0.09249 0.0
O17 O 0.18001 0.8315 0.05714 0.0
O18 O 0.19351 0.82975 0.96704 0.0
C19 C 0.14302 0.81462 0.1556 0.0
C20 C 0.20326 0.82014 1.0154 0.0
Zn21 Zn 0.59406 0.6015 0.43911 0.0
Zn22 Zn 0.64146 0.62099 0.62688 0.0
Zn23 Zn 0.61838 0.62162 0.5275 0.0
C24 C 0.62943 0.53996 0.5853 0.0
C25 C 0.56611 0.66808 0.61901 0.0
O26 O 0.65812 0.65545 0.4692 0.0
O27 O 0.60904 0.65461 0.40377 0.0
C28 C 0.67748 0.57784 0.45368 0.0
O29 O 0.61554 0.5582 0.54366 0.0
O30 O 0.64433 0.55986 0.62685 0.0
O31 O 0.58898 0.65099 0.65409 0.0
O32 O 0.57304 0.66223 0.56711 0.0
O33 O 0.64256 0.56102 0.43937 0.0
O34 O 0.67697 0.61257 0.48001 0.0
O35 O 0.55466 0.64592 0.51206 0.0
O36 O 0.53277 0.5937 0.4596 0.0
C37 C 0.52444 0.62597 0.48758 0.0
O38 O 0.67992 0.65263 0.52285 0.0
O39 O 0.69353 0.65433 0.61294 0.0
C40 C 0.64287 0.66961 0.42444 0.0
C41 C 0.70322 0.66398 0.56458 0.0
Zn42 Zn 0.8992 0.11466 0.94118 0.0
Zn43 Zn 0.85353 0.12918 0.1298 0.0
Zn44 Zn 0.8679 0.12599 0.02766 0.0
C45 C 0.94264 0.11835 0.11267 0.0
C46 C 0.80322 0.06644 0.07912 0.0
O47 O 0.84167 0.17508 0.9778 0.0
O48 O 0.84846 0.13804 0.90006 0.0
C49 C 0.92626 0.18723 0.98774 0.0
O50 O 0.93053 0.11615 0.06221 0.0
O51 O 0.91574 0.12462 0.15106 0.0
O52 O 0.81502 0.08029 0.12628 0.0
O53 O 0.81885 0.08053 0.03503 0.0
O54 O 0.94347 0.15518 0.96754 0.0
O55 O 0.88706 0.18645 1.00364 0.0
O56 O 0.84344 0.07101 0.98242 0.0
O57 O 0.90325 0.05434 0.93914 0.0
C58 C 0.86581 0.04527 0.95343 0.0
O59 O 0.83951 0.18656 0.03738 0.0
O60 O 0.82591 0.18382 0.12714 0.0
C61 C 0.83131 0.16757 0.92663 0.0
C62 C 0.82377 0.20227 0.08264 0.0
Zn63 Zn 0.39911 0.36951 0.63903 0.0
Zn64 Zn 0.35336 0.35479 0.45034 0.0
Zn65 Zn 0.36779 0.35809 0.5525 0.0
C66 C 0.44247 0.3657 0.46748 0.0
C67 C 0.30304 0.41755 0.5009 0.0
O68 O 0.3416 0.30903 0.60241 0.0
O69 O 0.34838 0.34612 0.68012 0.0
C70 C 0.42619 0.29692 0.59254 0.0
O71 O 0.43041 0.36794 0.51793 0.0
O72 O 0.41555 0.35939 0.42909 0.0
O73 O 0.31481 0.40365 0.45376 0.0
O74 O 0.31871 0.40351 0.54502 0.0
O75 O 0.44339 0.329 0.61271 0.0
O76 O 0.38698 0.29767 0.57663 0.0
O77 O 0.34331 0.41308 0.59764 0.0
O78 O 0.4031 0.42983 0.64099 0.0
C79 C 0.36565 0.43886 0.62664 0.0
O80 O 0.33946 0.29749 0.54286 0.0
O81 O 0.32579 0.30014 0.45309 0.0
C82 C 0.33124 0.31656 0.65357 0.0
C83 C 0.32371 0.28172 0.49762 0.0
H84 H 0.13104 0.1506 0.28392 0.0
H85 H 0.15156 0.0482 0.17051 0.0
H86 H 0.24403 0.07717 0.29724 0.0
N87 N 0.20231 0.1423 0.3423 0.0
N88 N 0.23214 0.13223 0.3729 0.0
C89 C 0.15055 0.1253 0.26911 0.0
C90 C 0.13694 0.10048 0.22367 0.0
C91 C 0.18904 0.11698 0.29631 0.0
C92 C 0.21428 0.08405 0.27687 0.0
C93 C 0.20091 0.05963 0.23146 0.0
C94 C 0.16227 0.06777 0.20507 0.0
H95 H 0.30304 0.61781 0.81384 0.0
H96 H 0.39521 0.62813 0.68347 0.0
H97 H 0.38628 0.7217 0.81194 0.0
N98 N 0.32296 0.68685 0.86878 0.0
N99 N 0.34062 0.71361 0.89874 0.0
C100 C 0.32796 0.63471 0.79415 0.0
C101 C 0.3472 0.61901 0.74531 0.0
C102 C 0.34218 0.67161 0.81889 0.0
C103 C 0.3749 0.69323 0.79342 0.0
C104 C 0.39348 0.67769 0.74443 0.0
C105 C 0.3797 0.64068 0.7206 0.0
H106 H 0.70554 0.87529 0.17903 0.0
H107 H 0.82002 0.89553 0.08638 0.0
H108 H 0.81154 0.79248 0.18693 0.0
N109 N 0.73228 0.80969 0.2271 0.0
N110 N 0.74939 0.78262 0.25353 0.0
C111 C 0.73688 0.86535 0.16516 0.0
C112 C 0.76033 0.88868 0.12906 0.0
C113 C 0.75512 0.83061 0.18657 0.0
C114 C 0.79665 0.81876 0.17004 0.0
C115 C 0.81968 0.84198 0.13343 0.0
C116 C 0.80141 0.8767 0.11297 0.0
H117 H 0.69257 0.35124 0.68806 0.0
H118 H 0.57747 0.32842 0.59494 0.0
H119 H 0.62941 0.23563 0.69371 0.0
N120 N 0.69622 0.28055 0.73438 0.0
N121 N 0.69341 0.24822 0.75858 0.0
C122 C 0.66726 0.3308 0.67431 0.0
C123 C 0.63569 0.34398 0.63818 0.0
C124 C 0.66537 0.2918 0.69476 0.0
C125 C 0.63187 0.26556 0.67761 0.0
C126 C 0.60042 0.27872 0.64139 0.0
C127 C 0.60251 0.31784 0.62172 0.0
H128 H 0.63082 0.33332 0.29625 0.0
H129 H 0.65127 0.43589 0.40943 0.0
H130 H 0.74374 0.40684 0.28285 0.0
N131 N 0.70208 0.3416 0.23791 0.0
N132 N 0.73193 0.35164 0.20735 0.0
C133 C 0.65031 0.35866 0.31101 0.0
C134 C 0.63668 0.38352 0.35638 0.0
C135 C 0.68879 0.36697 0.28383 0.0
C136 C 0.714 0.39995 0.3032 0.0
C137 C 0.70061 0.42442 0.34855 0.0
C138 C 0.66199 0.41628 0.37492 0.0
H139 H 0.19238 0.13286 0.8918 0.0
H140 H 0.0774 0.15569 0.985 0.0
H141 H 0.12934 0.24853 0.88637 0.0
N142 N 0.19608 0.20359 0.84561 0.0
N143 N 0.19331 0.23596 0.8215 0.0
C144 C 0.16711 0.1533 0.90559 0.0
C145 C 0.13555 0.14011 0.9417 0.0
C146 C 0.16524 0.19233 0.88521 0.0
C147 C 0.13178 0.21858 0.90241 0.0
C148 C 0.10035 0.20542 0.93862 0.0
C149 C 0.10242 0.16627 0.95822 0.0
H150 H 0.20536 0.60877 0.40102 0.0
H151 H 0.31981 0.58846 0.49384 0.0
H152 H 0.31137 0.6916 0.39345 0.0
N153 N 0.23214 0.67441 0.35309 0.0
N154 N 0.24928 0.7015 0.32675 0.0
C155 C 0.23669 0.61869 0.41497 0.0
C156 C 0.26013 0.59533 0.45107 0.0
C157 C 0.25495 0.65346 0.39365 0.0
C158 C 0.29647 0.6653 0.41028 0.0
C159 C 0.31949 0.64205 0.44688 0.0
C160 C 0.3012 0.60731 0.46725 0.0
H161 H 0.80319 0.86634 0.76614 0.0
H162 H 0.89532 0.85587 0.89665 0.0
H163 H 0.88623 0.76231 0.76816 0.0
N164 N 0.823 0.79727 0.71123 0.0
N165 N 0.84063 0.7705 0.68129 0.0
C166 C 0.82808 0.8494 0.78587 0.0
C167 C 0.84734 0.86507 0.83474 0.0
C168 C 0.84223 0.81247 0.76114 0.0
C169 C 0.8749 0.7908 0.78667 0.0
C170 C 0.89351 0.80631 0.83568 0.0
C171 C 0.87979 0.84334 0.85949 0.0
C172 C 0.23511 0.95491 0.16366 0.0
C173 C 0.21619 0.92675 0.14216 0.0
C174 C 0.23723 -0.00693 0.19164 0.0
C175 C 0.22472 0.02417 0.21378 0.0
C176 C 0.49724 0.70198 0.6612 0.0
C177 C 0.5278 0.68767 0.63761 0.0
C178 C 0.45997 0.70558 0.69322 0.0
C179 C 0.4296 0.69698 0.72057 0.0
C180 C 0.75722 0.00025 0.08173 0.0
C181 C 0.77785 0.03042 0.07591 0.0
C182 C 0.74462 0.96139 0.0966 0.0
C183 C 0.74604 0.92796 0.11406 0.0
C184 C 0.48536 0.24421 0.59709 0.0
C185 C 0.45197 0.26118 0.58999 0.0
C186 C 0.5287 0.24263 0.61253 0.0
C187 C 0.56306 0.2546 0.62865 0.0
C188 C 0.73484 0.52922 0.4162 0.0
C189 C 0.71597 0.55739 0.43769 0.0
C190 C 0.73693 0.49104 0.38826 0.0
C191 C 0.72441 0.45991 0.36617 0.0
C192 C 0.9854 0.23998 0.98315 0.0
C193 C 0.95201 0.223 0.99028 0.0
C194 C 0.02871 0.24154 0.96763 0.0
C195 C 0.06304 0.22956 0.95145 0.0
C196 C 0.25703 0.48373 0.49822 0.0
C197 C 0.27767 0.45356 0.50405 0.0
C198 C 0.24442 0.52259 0.48337 0.0
C199 C 0.24584 0.55604 0.46597 0.0
C200 C -0.00278 0.78193 0.91902 0.0
C201 C 0.02778 0.79627 0.9426 0.0
C202 C 0.95994 0.77833 0.88697 0.0
C203 C 0.92958 0.78696 0.85958 0.0
C204 C 0.83841 0.97486 0.91223 0.0
C205 C 0.8479 0.00746 0.93312 0.0
C206 C 0.83402 0.93698 0.88331 0.0
C207 C 0.83727 0.90483 0.858 0.0
C208 C 0.52251 0.37108 0.43404 0.0
C209 C 0.48688 0.36902 0.45288 0.0
C210 C 0.56268 0.37341 0.40735 0.0
C211 C 0.5961 0.37694 0.38304 0.0
C212 C 0.13081 0.02347 0.98719 0.0
C213 C 0.129 0.98756 0.99391 0.0
C214 C 0.13368 0.06455 0.97369 0.0
C215 C 0.13505 0.09884 0.95871 0.0
C216 C 0.44431 0.64922 0.48437 0.0
C217 C 0.48159 0.64109 0.48839 0.0
C218 C 0.40047 0.65317 0.47283 0.0
C219 C 0.36361 0.65048 0.45909 0.0
C220 C 0.33819 0.50924 0.66778 0.0
C221 C 0.3477 0.47665 0.64691 0.0
C222 C 0.3338 0.54712 0.69671 0.0
C223 C 0.33707 0.57926 0.72204 0.0
C224 C 0.94447 0.83487 0.09593 0.0
C225 C 0.98174 0.84303 0.09182 0.0
C226 C 0.90065 0.83087 0.10754 0.0
C227 C 0.8638 0.83354 0.12127 0.0
C228 C 0.63091 0.4606 0.59258 0.0
C229 C 0.62906 0.4965 0.58588 0.0
C230 C 0.63381 0.41952 0.6061 0.0
C231 C 0.63519 0.38524 0.62113 0.0
C232 C 0.02271 0.11297 0.14606 0.0
C233 C 0.98705 0.11503 0.12725 0.0
C234 C 0.0629 0.11061 0.17272 0.0
C235 C 0.09634 0.10706 0.19702 0.0
C236 C 0.18579 0.76385 0.21553 0.0
C237 C 0.16733 0.78694 0.18681 0.0
C238 C 0.20747 0.73979 0.25312 0.0
C239 C 0.22651 0.72136 0.28713 0.0
C240 C 0.76896 0.71177 0.57018 0.0
C241 C 0.73909 0.69014 0.55871 0.0
C242 C 0.79881 0.73595 0.60009 0.0
C243 C 0.81964 0.75356 0.63545 0.0
C244 C 0.78354 0.27069 0.10053 0.0
C245 C 0.80261 0.24072 0.08468 0.0
C246 C 0.76216 0.30174 0.13153 0.0
C247 C 0.7466 0.32551 0.16506 0.0
C248 C 0.27777 0.27348 0.71095 0.0
C249 C 0.30175 0.29135 0.68164 0.0
C250 C 0.24895 0.25702 0.74888 0.0
C251 C 0.22353 0.24616 0.78262 0.0
C252 C 0.68573 0.72035 0.3646 0.0
C253 C 0.66721 0.69727 0.39327 0.0
C254 C 0.70747 0.74439 0.32707 0.0
C255 C 0.72657 0.76279 0.2931 0.0
C256 C 0.77786 0.21069 0.86922 0.0
C257 C 0.80183 0.1928 0.89854 0.0
C258 C 0.74905 0.22716 0.83126 0.0
C259 C 0.72363 0.23802 0.79749 0.0
C260 C 0.28362 0.21321 0.47983 0.0
C261 C 0.30263 0.24323 0.49565 0.0
C262 C 0.2623 0.18211 0.44884 0.0
C263 C 0.24678 0.15833 0.41526 0.0
C264 C 0.26902 0.77237 1.00979 0.0
C265 C 0.23916 0.794 0.02127 0.0
C266 C 0.29885 0.74819 0.97989 0.0
C267 C 0.31966 0.73057 0.94454 0.0
loop_
_geom_bond_atom_site_label_1
_geom_bond_atom_site_label_2
_geom_bond_distance
_geom_bond_site_symmetry_2
_ccdc_geom_bond_type
Zn0 O6 1.920 . S
Zn0 O12 1.898 . S
Zn0 O15 1.905 . S
Zn1 O9 1.905 . S
Zn1 O10 1.898 . S
Zn1 O18 1.920 . S
Zn2 O5 2.080 . S
Zn2 O8 2.114 1_554 S
Zn2 O11 2.120 1_554 S
Zn2 O13 2.120 . S
Zn2 O14 2.114 . S
Zn2 O17 2.080 . S
C3 O8 1.166 . S
C3 O9 1.182 . S
C4 O10 1.167 . S
C4 O11 1.299 . S
O5 Zn2 2.080 . S
O5 C19 1.305 . S
O6 Zn0 1.920 . S
O6 C19 1.234 . S
C7 O12 1.167 . S
C7 O13 1.299 . S
O8 Zn2 2.114 1_556 S
O8 C3 1.166 . S
O9 Zn1 1.905 . S
O9 C3 1.182 . S
O10 Zn1 1.898 . S
O10 C4 1.167 . S
O11 Zn2 2.120 1_556 S
O11 C4 1.299 . S
O12 Zn0 1.898 . S
O12 C7 1.167 . S
O13 Zn2 2.120 . S
O13 C7 1.299 . S
O14 Zn2 2.114 . S
O14 C16 1.166 . S
O15 Zn0 1.905 . S
O15 C16 1.182 . S
C16 O14 1.166 . S
C16 O15 1.182 . S
O17 Zn2 2.080 . S
O17 C20 1.305 1_554 S
O18 Zn1 1.920 . S
O18 C20 1.234 . S
C19 O5 1.305 . S
C19 O6 1.234 . S
C20 O17 1.305 1_556 S
C20 O18 1.234 . S
Zn21 O27 1.920 . S
Zn21 O33 1.898 . S
Zn21 O36 1.905 . S
Zn22 O30 1.905 . S
Zn22 O31 1.898 . S
Zn22 O39 1.920 . S
Zn23 O26 2.080 . S
Zn23 O29 2.114 . S
Zn23 O32 2.120 . S
Zn23 O34 2.120 . S
Zn23 O35 2.114 . S
Zn23 O38 2.080 . S
C24 O29 1.166 . S
C24 O30 1.182 . S
C25 O31 1.167 . S
C25 O32 1.299 . S
O26 Zn23 2.080 . S
O26 C40 1.305 . S
O27 Zn21 1.920 . S
O27 C40 1.234 . S
C28 O33 1.167 . S
C28 O34 1.299 . S
O29 Zn23 2.114 . S
O29 C24 1.166 . S
O30 Zn22 1.905 . S
O30 C24 1.182 . S
O31 Zn22 1.898 . S
O31 C25 1.167 . S
O32 Zn23 2.120 . S
O32 C25 1.299 . S
O33 Zn21 1.898 . S
O33 C28 1.167 . S
O34 Zn23 2.120 . S
O34 C28 1.299 . S
O35 Zn23 2.114 . S
O35 C37 1.166 . S
O36 Zn21 1.905 . S
O36 C37 1.182 . S
C37 O35 1.166 . S
C37 O36 1.182 . S
O38 Zn23 2.080 . S
O38 C41 1.305 . S
O39 Zn22 1.920 . S
O39 C41 1.234 . S
C40 O26 1.305 . S
C40 O27 1.234 . S
C41 O38 1.305 . S
C41 O39 1.234 . S
Zn42 O48 1.920 . S
Zn42 O54 1.898 . S
Zn42 O57 1.905 . S
Zn43 O51 1.905 . S
Zn43 O52 1.898 . S
Zn43 O60 1.920 . S
Zn44 O47 2.066 1_554 S
Zn44 O50 2.128 . S
Zn44 O53 2.130 . S
Zn44 O55 2.110 1_554 S
Zn44 O56 2.103 1_554 S
Zn44 O59 2.092 . S
C45 O50 1.166 . S
C45 O51 1.182 . S
C46 O52 1.167 . S
C46 O53 1.299 . S
O47 Zn44 2.066 1_556 S
O47 C61 1.305 . S
O48 Zn42 1.920 . S
O48 C61 1.234 . S
C49 O54 1.167 . S
C49 O55 1.299 . S
O50 Zn44 2.128 . S
O50 C45 1.166 . S
O51 Zn43 1.905 . S
O51 C45 1.182 . S
O52 Zn43 1.898 . S
O52 C46 1.167 . S
O53 Zn44 2.130 . S
O53 C46 1.299 . S
O54 Zn42 1.898 . S
O54 C49 1.167 . S
O55 Zn44 2.110 1_556 S
O55 C49 1.299 . S
O56 Zn44 2.103 1_556 S
O56 C58 1.166 . S
O57 Zn42 1.905 . S
O57 C58 1.182 . S
C58 O56 1.166 . S
C58 O57 1.182 . S
O59 Zn44 2.092 . S
O59 C62 1.305 . S
O60 Zn43 1.920 . S
O60 C62 1.234 . S
C61 O47 1.305 . S
C61 O48 1.234 . S
C62 O59 1.305 . S
C62 O60 1.234 . S
Zn63 O69 1.920 . S
Zn63 O75 1.898 . S
Zn63 O78 1.905 . S
Zn64 O72 1.905 . S
Zn64 O73 1.898 . S
Zn64 O81 1.920 . S
Zn65 O68 2.080 . S
Zn65 O71 2.114 . S
Zn65 O74 2.120 . S
Zn65 O76 2.120 . S
Zn65 O77 2.114 . S
Zn65 O80 2.080 . S
C66 O71 1.166 . S
C66 O72 1.182 . S
C67 O73 1.167 . S
C67 O74 1.299 . S
O68 Zn65 2.080 . S
O68 C82 1.305 . S
O69 Zn63 1.920 . S
O69 C82 1.234 . S
C70 O75 1.167 . S
C70 O76 1.299 . S
O71 Zn65 2.114 . S
O71 C66 1.166 . S
O72 Zn64 1.905 . S
O72 C66 1.182 . S
O73 Zn64 1.898 . S
O73 C67 1.167 . S
O74 Zn65 2.120 . S
O74 C67 1.299 . S
O75 Zn63 1.898 . S
O75 C70 1.167 . S
O76 Zn65 2.120 . S
O76 C70 1.299 . S
O77 Zn65 2.114 . S
O77 C79 1.166 . S
O78 Zn63 1.905 . S
O78 C79 1.182 . S
C79 O77 1.166 . S
C79 O78 1.182 . S
O80 Zn65 2.080 . S
O80 C83 1.305 . S
O81 Zn64 1.920 . S
O81 C83 1.234 . S
C82 O68 1.305 . S
C82 O69 1.234 . S
C83 O80 1.305 . S
C83 O81 1.234 . S
H84 C89 0.929 . S
H85 C94 0.931 . S
H86 C92 0.930 . S
N87 N88 1.234 . S
N87 C91 1.453 . S
N88 N87 1.234 . S
C89 H84 0.929 . S
C89 C90 1.373 . S
C89 C91 1.368 . S
C90 C89 1.373 . S
C90 C94 1.397 . S
C91 N87 1.453 . S
C91 C89 1.368 . S
C91 C92 1.373 . S
C92 H86 0.930 . S
C92 C91 1.373 . S
C92 C93 1.371 . S
C93 C92 1.371 . S
C93 C94 1.383 . S
C94 H85 0.931 . S
C94 C90 1.397 . S
C94 C93 1.383 . S
H95 C100 0.929 . S
H96 C105 0.931 . S
H97 C103 0.930 . S
N98 N99 1.234 . S
N98 C102 1.453 . S
N99 N98 1.234 . S
C100 H95 0.929 . S
C100 C101 1.373 . S
C100 C102 1.368 . S
C101 C100 1.373 . S
C101 C105 1.397 . S
C102 N98 1.453 . S
C102 C100 1.368 . S
C102 C103 1.373 . S
C103 H97 0.930 . S
C103 C102 1.373 . S
C103 C104 1.371 . S
C104 C103 1.371 . S
C104 C105 1.383 . S
C105 H96 0.931 . S
C105 C101 1.397 . S
C105 C104 1.383 . S
H106 C111 0.929 . S
H107 C116 0.931 . S
H108 C114 0.930 . S
N109 N110 1.234 . S
N109 C113 1.453 . S
N110 N109 1.234 . S
C111 H106 0.929 . S
C111 C112 1.373 . S
C111 C113 1.368 . S
C112 C111 1.373 . S
C112 C116 1.397 . S
C113 N109 1.453 . S
C113 C111 1.368 . S
C113 C114 1.373 . S
C114 H108 0.930 . S
C114 C113 1.373 . S
C114 C115 1.371 . S
C115 C114 1.371 . S
C115 C116 1.383 . S
C116 H107 0.931 . S
C116 C112 1.397 . S
C116 C115 1.383 . S
H117 C122 0.929 . S
H118 C127 0.931 . S
H119 C125 0.930 . S
N120 N121 1.234 . S
N120 C124 1.453 . S
N121 N120 1.234 . S
C122 H117 0.929 . S
C122 C123 1.373 . S
C122 C124 1.368 . S
C123 C122 1.373 . S
C123 C127 1.397 . S
C124 N120 1.453 . S
C124 C122 1.368 . S
C124 C125 1.373 . S
C125 H119 0.930 . S
C125 C124 1.373 . S
C125 C126 1.371 . S
C126 C125 1.371 . S
C126 C127 1.383 . S
C127 H118 0.931 . S
C127 C123 1.397 . S
C127 C126 1.383 . S
H128 C133 0.929 . S
H129 C138 0.931 . S
H130 C136 0.930 . S
N131 N132 1.234 . S
N131 C135 1.453 . S
N132 N131 1.234 . S
C133 H128 0.929 . S
C133 C134 1.373 . S
C133 C135 1.368 . S
C134 C133 1.373 . S
C134 C138 1.397 . S
C135 N131 1.453 . S
C135 C133 1.368 . S
C135 C136 1.373 . S
C136 H130 0.930 . S
C136 C135 1.373 . S
C136 C137 1.371 . S
C137 C136 1.371 . S
C137 C138 1.383 . S
C138 H129 0.931 . S
C138 C134 1.397 . S
C138 C137 1.383 . S
H139 C144 0.929 . S
H140 C149 0.931 . S
H141 C147 0.930 . S
N142 N143 1.234 . S
N142 C146 1.453 . S
N143 N142 1.234 . S
C144 H139 0.929 . S
C144 C145 1.373 . S
C144 C146 1.368 . S
C145 C144 1.373 . S
C145 C149 1.397 . S
C146 N142 1.453 . S
C146 C144 1.368 . S
C146 C147 1.373 . S
C147 H141 0.930 . S
C147 C146 1.373 . S
C147 C148 1.371 . S
C148 C147 1.371 . S
C148 C149 1.383 . S
C149 H140 0.931 . S
C149 C145 1.397 . S
C149 C148 1.383 . S
H150 C155 0.929 . S
H151 C160 0.931 . S
H152 C158 0.930 . S
N153 N154 1.234 . S
N153 C157 1.453 . S
N154 N153 1.234 . S
C155 H150 0.929 . S
C155 C156 1.373 . S
C155 C157 1.368 . S
C156 C155 1.373 . S
C156 C160 1.397 . S
C157 N153 1.453 . S
C157 C155 1.368 . S
C157 C158 1.373 . S
C158 H152 0.930 . S
C158 C157 1.373 . S
C158 C159 1.371 . S
C159 C158 1.371 . S
C159 C160 1.383 . S
C160 H151 0.931 . S
C160 C156 1.397 . S
C160 C159 1.383 . S
H161 C166 0.929 . S
H162 C171 0.931 . S
H163 C169 0.930 . S
N164 N165 1.234 . S
N164 C168 1.453 . S
N165 N164 1.234 . S
C166 H161 0.929 . S
C166 C167 1.373 . S
C166 C168 1.368 . S
C167 C166 1.373 . S
C167 C171 1.397 . S
C168 N164 1.453 . S
C168 C166 1.368 . S
C168 C169 1.373 . S
C169 H163 0.930 . S
C169 C168 1.373 . S
C169 C170 1.371 . S
C170 C169 1.371 . S
C170 C171 1.383 . S
C171 H162 0.931 . S
C171 C167 1.397 . S
C171 C170 1.383 . S
C172 C173 1.170 . S
C172 C174 1.380 1_565 S
C173 C172 1.170 . S
C174 C172 1.380 1_545 S
C174 C175 1.170 . S
C175 C174 1.170 . S
C176 C177 1.170 . S
C176 C178 1.380 . S
C177 C176 1.170 . S
C178 C176 1.380 . S
C178 C179 1.170 . S
C179 C178 1.170 . S
C180 C181 1.170 . S
C180 C182 1.380 1_545 S
C181 C180 1.170 . S
C182 C180 1.380 1_565 S
C182 C183 1.170 . S
C183 C182 1.170 . S
C184 C185 1.170 . S
C184 C186 1.380 . S
C185 C184 1.170 . S
C186 C184 1.380 . S
C186 C187 1.170 . S
C187 C186 1.170 . S
C188 C189 1.170 . S
C188 C190 1.380 . S
C189 C188 1.170 . S
C190 C188 1.380 . S
C190 C191 1.170 . S
C191 C190 1.170 . S
C192 C193 1.170 1_455 S
C192 C194 1.380 . S
C193 C192 1.170 1_655 S
C194 C192 1.380 . S
C194 C195 1.170 . S
C195 C194 1.170 . S
C196 C197 1.170 . S
C196 C198 1.380 . S
C197 C196 1.170 . S
C198 C196 1.380 . S
C198 C199 1.170 . S
C199 C198 1.170 . S
C200 C201 1.170 . S
C200 C202 1.380 1_455 S
C201 C200 1.170 . S
C202 C200 1.380 1_655 S
C202 C203 1.170 . S
C203 C202 1.170 . S
C204 C205 1.170 1_565 S
C204 C206 1.380 . S
C205 C204 1.170 1_545 S
C206 C204 1.380 . S
C206 C207 1.170 . S
C207 C206 1.170 . S
C208 C209 1.170 . S
C208 C210 1.380 . S
C209 C208 1.170 . S
C210 C208 1.380 . S
C210 C211 1.170 . S
C211 C210 1.170 . S
C212 C213 1.170 1_545 S
C212 C214 1.380 . S
C213 C212 1.170 1_565 S
C214 C212 1.380 . S
C214 C215 1.170 . S
C215 C214 1.170 . S
C216 C217 1.170 . S
C216 C218 1.380 . S
C217 C216 1.170 . S
C218 C216 1.380 . S
C218 C219 1.170 . S
C219 C218 1.170 . S
C220 C221 1.170 . S
C220 C222 1.380 . S
C221 C220 1.170 . S
C222 C220 1.380 . S
C222 C223 1.170 . S
C223 C222 1.170 . S
C224 C225 1.170 . S
C224 C226 1.380 . S
C225 C224 1.170 . S
C226 C224 1.380 . S
C226 C227 1.170 . S
C227 C226 1.170 . S
C228 C229 1.170 . S
C228 C230 1.380 . S
C229 C228 1.170 . S
C230 C228 1.380 . S
C230 C231 1.170 . S
C231 C230 1.170 . S
C232 C233 1.170 1_455 S
C232 C234 1.380 . S
C233 C232 1.170 1_655 S
C234 C232 1.380 . S
C234 C235 1.170 . S
C235 C234 1.170 . S
C236 C237 1.170 . S
C236 C238 1.380 . S
C237 C236 1.170 . S
C238 C236 1.380 . S
C238 C239 1.170 . S
C239 C238 1.170 . S
C240 C241 1.170 . S
C240 C242 1.380 . S
C241 C240 1.170 . S
C242 C240 1.380 . S
C242 C243 1.170 . S
C243 C242 1.170 . S
C244 C245 1.170 . S
C244 C246 1.380 . S
C245 C244 1.170 . S
C246 C244 1.380 . S
C246 C247 1.170 . S
C247 C246 1.170 . S
C248 C249 1.170 . S
C248 C250 1.380 . S
C249 C248 1.170 . S
C250 C248 1.380 . S
C250 C251 1.170 . S
C251 C250 1.170 . S
C252 C253 1.170 . S
C252 C254 1.380 . S
C253 C252 1.170 . S
C254 C252 1.380 . S
C254 C255 1.170 . S
C255 C254 1.170 . S
C256 C257 1.170 . S
C256 C258 1.380 . S
C257 C256 1.170 . S
C258 C256 1.380 . S
C258 C259 1.170 . S
C259 C258 1.170 . S
C260 C261 1.170 . S
C260 C262 1.380 . S
C261 C260 1.170 . S
C262 C260 1.380 . S
C262 C263 1.170 . S
C263 C262 1.170 . S
C264 C265 1.170 . S
C264 C266 1.380 . S
C265 C264 1.170 . S
C266 C264 1.380 . S
C266 C267 1.170 . S
C267 C266 1.170 . S
C173 C7 0.983 . S
C175 C93 0.953 . S
C177 C25 1.013 . S
C179 C104 0.995 . S
C181 C46 1.037 . S
C183 C112 1.035 . S
C187 C126 0.877 . S
C185 C70 0.887 . S
C191 C137 0.955 . S
C189 C28 0.903 . S
C193 C49 0.889 . S
C195 C148 0.878 . S
C197 C67 0.961 . S
C199 C156 1.012 . S
C201 C4 1.019 . S
C203 C170 1.061 . S
C205 C58 1.538 . S
C207 C167 1.603 . S
C211 C134 1.529 . S
C209 C66 1.416 . S
C215 C145 1.646 . S
C213 C3 1.560 . S
C217 C37 1.646 . S
C219 C159 1.719 . S
C223 C101 1.624 . S
C221 C79 1.491 . S
C225 C16 1.642 1_655 S
C227 C115 1.732 . S
C231 C123 1.649 . S
C229 C24 1.569 . S
C235 C90 1.511 . S
C233 C45 1.454 . S
C239 N154 1.499 . S
C237 C19 1.326 . S
C243 N165 1.499 . S
C241 C41 1.386 . S
C245 C62 1.292 . S
C247 N132 1.389 . S
C251 N143 1.374 . S
C249 C82 1.181 . S
C255 N110 1.475 . S
C253 C40 1.346 . S
C257 C61 1.188 . S
C259 N121 1.371 . S
C263 N88 1.393 . S
C261 C83 1.312 . S
C267 N99 1.495 . S
C265 C20 1.361 . S
