# Generated by pormake.
# Topology anh, (6,3)-cn, num edge types: 1
# Building blocks:
#     Node 0, Type 0, BuildingBlock: VOLQOD_clean_sbu_1, # of connection points: 6
#     Node 1, Type 0, BuildingBlock: VOLQOD_clean_sbu_1, # of connection points: 6
#     Node 2, Type 0, BuildingBlock: VOLQOD_clean_sbu_1, # of connection points: 6
#     Node 3, Type 1, BuildingBlock: INOVEN_clean_linker_0, # of connection points: 3
#     Node 4, Type 1, BuildingBlock: INOVEN_clean_linker_0, # of connection points: 3
#     Node 5, Type 1, BuildingBlock: INOVEN_clean_linker_0, # of connection points: 3
#     Node 6, Type 1, BuildingBlock: INOVEN_clean_linker_0, # of connection points: 3
#     Node 7, Type 1, BuildingBlock: INOVEN_clean_linker_0, # of connection points: 3
#     Node 8, Type 1, BuildingBlock: INOVEN_clean_linker_0, # of connection points: 3
#     Edge 9, Type (0, 1), BuildingBlock: XUDNAN_clean_linker_2, # of connection points: 2
#     Edge 10, Type (0, 1), BuildingBlock: XUDNAN_clean_linker_2, # of connection points: 2
#     Edge 11, Type (0, 1), BuildingBlock: XUDNAN_clean_linker_2, # of connection points: 2
#     Edge 12, Type (0, 1), BuildingBlock: XUDNAN_clean_linker_2, # of connection points: 2
#     Edge 13, Type (0, 1), BuildingBlock: XUDNAN_clean_linker_2, # of connection points: 2
#     Edge 14, Type (0, 1), BuildingBlock: XUDNAN_clean_linker_2, # of connection points: 2
#     Edge 15, Type (0, 1), BuildingBlock: XUDNAN_clean_linker_2, # of connection points: 2
#     Edge 16, Type (0, 1), BuildingBlock: XUDNAN_clean_linker_2, # of connection points: 2
#     Edge 17, Type (0, 1), BuildingBlock: XUDNAN_clean_linker_2, # of connection points: 2
#     Edge 18, Type (0, 1), BuildingBlock: XUDNAN_clean_linker_2, # of connection points: 2
#     Edge 19, Type (0, 1), BuildingBlock: XUDNAN_clean_linker_2, # of connection points: 2
#     Edge 20, Type (0, 1), BuildingBlock: XUDNAN_clean_linker_2, # of connection points: 2
#     Edge 21, Type (0, 1), BuildingBlock: XUDNAN_clean_linker_2, # of connection points: 2
#     Edge 22, Type (0, 1), BuildingBlock: XUDNAN_clean_linker_2, # of connection points: 2
#     Edge 23, Type (0, 1), BuildingBlock: XUDNAN_clean_linker_2, # of connection points: 2
#     Edge 24, Type (0, 1), BuildingBlock: XUDNAN_clean_linker_2, # of connection points: 2
#     Edge 25, Type (0, 1), BuildingBlock: XUDNAN_clean_linker_2, # of connection points: 2
#     Edge 26, Type (0, 1), BuildingBlock: XUDNAN_clean_linker_2, # of connection points: 2
# Relax obj value: 0.155
# Max RMSD: 0.215
# Mean RMSD: 0.133
data_MOF--net-anh--node1-VOLQOD_clean_sbu_1--node2-INOVEN_clean_linker_0--edge1-XUDNAN_clean_linker_2
_symmetry_space_group_name_H-M    P1
_symmetry_Int_Tables_number       1
_symmetry_cell_setting            triclinic
loop_
_symmetry_equiv_pos_as_xyz
'x, y, z'
_cell_length_a     29.529724
_cell_length_b     29.485808
_cell_length_c     56.587229
_cell_angle_alpha  92.729428
_cell_angle_beta   92.399136
_cell_angle_gamma 120.0802
loop_
_atom_site_label
_atom_site_type_symbol
_atom_site_fract_x
_atom_site_fract_y
_atom_site_fract_z
_atom_type_partial_charge
O0 O 0.03622 0.59425 0.22001 0.0
Zn1 Zn 0.02857 0.61192 0.18662 0.0
O2 O 0.03291 0.5634 0.16365 0.0
Zn3 Zn 0.97674 0.53976 0.13885 0.0
Zn4 Zn 0.02804 0.5041 0.17928 0.0
Zn5 Zn 0.09779 0.59827 0.14914 0.0
O6 O 0.00064 0.54184 0.10566 0.0
O7 O 0.08664 0.58775 0.11396 0.0
O8 O 0.95784 0.60584 0.18124 0.0
O9 O 0.94008 0.58113 0.14258 0.0
O10 O 0.92124 0.466 0.14356 0.0
O11 O 0.95532 0.44119 0.17247 0.0
O12 O 0.08443 0.48876 0.16957 0.0
O13 O 0.0858 0.68704 0.18307 0.0
O14 O 0.14112 0.56576 0.15643 0.0
O15 O 0.13567 0.67538 0.15793 0.0
C16 C 0.0401 0.55673 0.22822 0.0
C17 C 0.04711 0.56376 0.09899 0.0
C18 C 0.91731 0.43222 0.15777 0.0
C19 C 0.93047 0.59779 0.16184 0.0
C20 C 0.12901 0.51999 0.16214 0.0
C21 C 0.12596 0.70538 0.17099 0.0
O22 O 0.0384 0.52031 0.21452 0.0
O23 O 0.45623 0.0462 0.43841 0.0
Zn24 Zn 0.44017 0.04273 0.47313 0.0
O25 O 0.49248 0.03559 0.49308 0.0
Zn26 Zn 0.52994 0.09431 0.51688 0.0
Zn27 Zn 0.54275 0.03136 0.4731 0.0
Zn28 Zn 0.45798 0.97354 0.51027 0.0
O29 O 0.52514 0.07399 0.5506 0.0
O30 O 0.46809 0.98879 0.54546 0.0
O31 O 0.43842 0.10808 0.4845 0.0
O32 O 0.49902 0.13995 0.51485 0.0
O33 O 0.60551 0.13778 0.51092 0.0
O34 O 0.61474 0.09472 0.48 0.0
O35 O 0.54717 0.96622 0.47738 0.0
O36 O 0.36715 0.98071 0.47542 0.0
O37 O 0.48729 0.92708 0.50336 0.0
O38 O 0.38123 0.93505 0.50196 0.0
C39 C 0.49006 0.03982 0.42772 0.0
C40 C 0.49694 0.02999 0.55906 0.0
C41 C 0.63368 0.1335 0.49558 0.0
C42 C 0.46424 0.14222 0.50177 0.0
C43 C 0.52199 0.92862 0.49033 0.0
C44 C 0.35033 0.94182 0.4882 0.0
O45 O 0.52339 0.03207 0.43903 0.0
O46 O 0.57273 0.51967 0.77952 0.0
Zn47 Zn 0.56433 0.50322 0.81386 0.0
O48 O 0.61896 0.56229 0.8346 0.0
Zn49 Zn 0.5902 0.59973 0.85105 0.0
Zn50 Zn 0.67417 0.60992 0.81582 0.0
Zn51 Zn 0.64895 0.53732 0.85818 0.0
O52 O 0.59779 0.59823 0.88624 0.0
O53 O 0.62972 0.54523 0.89133 0.0
O54 O 0.49237 0.48914 0.82155 0.0
O55 O 0.51275 0.56201 0.8439 0.0
O56 O 0.62348 0.67491 0.84292 0.0
O57 O 0.68941 0.68434 0.82212 0.0
O58 O 0.73942 0.60562 0.82199 0.0
O59 O 0.56966 0.43797 0.81758 0.0
O60 O 0.7272 0.57376 0.85749 0.0
O61 O 0.62537 0.46167 0.84951 0.0
C62 C 0.61014 0.55602 0.76937 0.0
C63 C 0.61104 0.57277 0.89967 0.0
C64 C 0.6641 0.70353 0.83208 0.0
C65 C 0.47898 0.51797 0.83327 0.0
C66 C 0.75608 0.59386 0.84049 0.0
C67 C 0.59555 0.4277 0.83288 0.0
O68 O 0.65132 0.59169 0.78124 0.0
H69 H 0.44164 0.10225 0.19143 0.0
H70 H 0.38865 0.01748 0.25413 0.0
H71 H 0.54345 0.15125 0.25506 0.0
N72 N 0.53825 0.16523 0.20837 0.0
N73 N 0.58497 0.18693 0.21642 0.0
C74 C 0.44757 0.09721 0.20991 0.0
C75 C 0.40813 0.0551 0.22108 0.0
C76 C 0.49673 0.13071 0.22174 0.0
C77 C 0.50543 0.12531 0.24575 0.0
C78 C 0.46576 0.08551 0.25764 0.0
C79 C 0.41735 0.05047 0.24525 0.0
H80 H 0.46674 0.49087 0.53147 0.0
H81 H 0.48415 0.44219 0.60021 0.0
H82 H 0.53476 0.60427 0.59163 0.0
N83 N 0.50823 0.59097 0.54448 0.0
N84 N 0.53092 0.63821 0.5519 0.0
C85 C 0.47741 0.4996 0.55038 0.0
C86 C 0.47161 0.45986 0.56477 0.0
C87 C 0.50023 0.55154 0.55989 0.0
C88 C 0.51678 0.56396 0.58418 0.0
C89 C 0.5112 0.52471 0.59885 0.0
C90 C 0.48764 0.47257 0.5891 0.0
H91 H 0.0442 0.48322 0.85902 0.0
H92 H 0.98722 0.50772 0.92474 0.0
H93 H 0.10669 0.46581 0.92534 0.0
N94 N 0.11289 0.46215 0.87799 0.0
N95 N 0.15208 0.46467 0.88852 0.0
C96 C 0.04287 0.48244 0.87809 0.0
C97 C 0.01022 0.49637 0.89008 0.0
C98 C 0.07719 0.47098 0.89063 0.0
C99 C 0.07934 0.47359 0.91553 0.0
C100 C 0.04781 0.48807 0.92791 0.0
C101 C 0.01201 0.4974 0.91506 0.0
H102 H 0.98531 0.5883 0.46479 0.0
H103 H 0.07359 0.65074 0.40376 0.0
H104 H 0.95767 0.4872 0.40248 0.0
N105 N 0.93593 0.49057 0.44833 0.0
N106 N 0.91553 0.44402 0.44008 0.0
C107 C -0.00547 0.58366 0.44683 0.0
C108 C 0.03341 0.62674 0.43602 0.0
C109 C 0.96875 0.53335 0.43524 0.0
C110 C 0.97846 0.52606 0.41171 0.0
C111 C 0.01502 0.56891 0.40008 0.0
C112 C 0.04285 0.61886 0.41239 0.0
H113 H 0.6255 0.08545 0.79749 0.0
H114 H 0.56335 0.1277 0.73724 0.0
H115 H 0.59313 -0.00027 0.72984 0.0
N116 N 0.63288 0.00903 0.77295 0.0
N117 N 0.63737 0.00298 0.7944 0.0
C118 C 0.61177 0.07971 0.77897 0.0
C119 C 0.59487 0.11256 0.76937 0.0
C120 C 0.61204 0.0398 0.76452 0.0
C121 C 0.59305 0.03087 0.74081 0.0
C122 C 0.57392 0.06136 0.73113 0.0
C123 C 0.5762 0.10301 0.74522 0.0
H124 H 0.53233 0.49142 0.13415 0.0
H125 H 0.61818 0.52278 0.07127 0.0
H126 H 0.45735 0.48377 0.06643 0.0
N127 N 0.44385 0.4733 0.11315 0.0
N128 N 0.40757 0.47645 0.10279 0.0
C129 C 0.53414 0.49315 0.11512 0.0
C130 C 0.58149 0.50808 0.1046 0.0
C131 C 0.48933 0.48382 0.1015 0.0
C132 C 0.49161 0.48971 0.07701 0.0
C133 C 0.53833 0.50463 0.06614 0.0
C134 C 0.58246 0.51192 0.07987 0.0
H135 H 0.18353 0.53808 0.12348 0.0
H136 H 0.15559 0.45962 0.18864 0.0
H137 H 0.22146 0.43349 0.17946 0.0
H138 H 0.19939 0.44108 0.08786 0.0
H139 H 0.24878 0.49049 0.07125 0.0
H140 H 0.19819 0.50039 0.08281 0.0
H141 H 0.26908 0.58885 0.10467 0.0
H142 H 0.31987 0.57935 0.09322 0.0
H143 H 0.31873 0.59001 0.12477 0.0
H144 H 0.2981 0.42544 0.16461 0.0
H145 H 0.3729 0.43012 0.14415 0.0
H146 H 0.34314 0.50757 0.08754 0.0
C147 C 0.19115 0.51519 0.13579 0.0
C148 C 0.16542 0.50133 0.15689 0.0
C149 C 0.17536 0.47061 0.17241 0.0
C150 C 0.21254 0.4557 0.16732 0.0
C151 C 0.23791 0.47078 0.14639 0.0
C152 C 0.22684 0.4991 0.13072 0.0
C153 C 0.2593 0.51112 0.10956 0.0
C154 C 0.22432 0.48414 0.08651 0.0
C155 C 0.29379 0.57086 0.10799 0.0
C156 C 0.29182 0.48657 0.116 0.0
C157 C 0.27924 0.46356 0.13732 0.0
C158 C 0.30751 0.4424 0.1477 0.0
C159 C 0.34991 0.44535 0.13605 0.0
C160 C 0.36288 0.46887 0.11421 0.0
C161 C 0.33291 0.48863 0.10398 0.0
H162 H 0.69279 0.15695 0.45734 0.0
H163 H 0.69415 0.21148 0.53012 0.0
H164 H 0.77559 0.29439 0.52507 0.0
H165 H 0.84052 0.22629 0.45407 0.0
H166 H 0.83465 0.24084 0.42389 0.0
H167 H 0.78355 0.18148 0.43476 0.0
H168 H 0.71534 0.20821 0.42222 0.0
H169 H 0.76607 0.26795 0.41173 0.0
H170 H 0.72474 0.27074 0.43363 0.0
H171 H 0.8459 0.37591 0.51038 0.0
H172 H 0.90372 0.4498 0.48742 0.0
H173 H 0.85713 0.34362 0.42397 0.0
C174 C 0.71141 0.18543 0.4725 0.0
C175 C 0.68741 0.17774 0.49416 0.0
C176 C 0.71204 0.21657 0.51339 0.0
C177 C 0.75838 0.26369 0.51072 0.0
C178 C 0.77967 0.27115 0.48877 0.0
C179 C 0.75744 0.23286 0.47006 0.0
C180 C 0.7843 0.25312 0.44752 0.0
C181 C 0.81244 0.22368 0.4396 0.0
C182 C 0.74528 0.24982 0.42763 0.0
C183 C 0.82321 0.30952 0.45622 0.0
C184 C 0.82049 0.31882 0.48015 0.0
C185 C 0.84927 0.36893 0.49176 0.0
C186 C 0.88163 0.41069 0.47853 0.0
C187 C 0.88453 0.40192 0.45392 0.0
C188 C 0.85567 0.35075 0.4428 0.0
H189 H 0.62049 0.75884 0.85119 0.0
H190 H 0.74037 0.77272 0.80529 0.0
H191 H 0.75569 0.85933 0.79511 0.0
H192 H 0.56374 0.80728 0.8147 0.0
H193 H 0.55031 0.84321 0.83729 0.0
H194 H 0.55527 0.78713 0.84455 0.0
H195 H 0.62775 0.84399 0.87787 0.0
H196 H 0.62274 0.90041 0.87084 0.0
H197 H 0.68528 0.9035 0.87097 0.0
H198 H 0.74634 0.9348 0.78408 0.0
H199 H 0.71642 -0.00288 0.7749 0.0
H200 H 0.60608 0.93803 0.82914 0.0
C201 C 0.65107 0.78073 0.83954 0.0
C202 C 0.67919 0.75886 0.82904 0.0
C203 C 0.71842 0.78861 0.81366 0.0
C204 C 0.72753 0.83797 0.80779 0.0
C205 C 0.69777 0.8575 0.81777 0.0
C206 C 0.66092 0.83026 0.83363 0.0
C207 C 0.6309 0.85775 0.84014 0.0
C208 C 0.57157 0.82169 0.83378 0.0
C209 C 0.64238 0.8776 0.86653 0.0
C210 C 0.65459 0.90308 0.82445 0.0
C211 C 0.69355 0.90251 0.81189 0.0
C212 C 0.71698 0.93658 0.79425 0.0
C213 C 0.69959 0.97156 0.78906 0.0
C214 C 0.65936 0.97228 0.80155 0.0
C215 C 0.63775 0.93876 0.81987 0.0
H216 H 0.88856 0.63412 0.12934 0.0
H217 H 0.85856 0.55482 0.19427 0.0
H218 H 0.76521 0.52982 0.18898 0.0
H219 H 0.78962 0.68063 0.13713 0.0
H220 H 0.77344 0.6717 0.10555 0.0
H221 H 0.83908 0.69112 0.11697 0.0
H222 H 0.83272 0.61149 0.09235 0.0
H223 H 0.76671 0.59085 0.08141 0.0
H224 H 0.78031 0.54612 0.09659 0.0
H225 H 0.67363 0.49573 0.17129 0.0
H226 H 0.59222 0.46915 0.14675 0.0
H227 H 0.68324 0.5815 0.09638 0.0
C228 C 0.86268 0.61359 0.14295 0.0
C229 C 0.88035 0.59669 0.16227 0.0
C230 C 0.84563 0.5689 0.17958 0.0
C231 C 0.79257 0.55426 0.17664 0.0
C232 C 0.77562 0.56929 0.15671 0.0
C233 C 0.81002 0.60005 0.14063 0.0
C234 C 0.7814 0.60828 0.12001 0.0
C235 C 0.79679 0.66639 0.11992 0.0
C236 C 0.79086 0.58795 0.0962 0.0
C237 C 0.72537 0.57461 0.12623 0.0
C238 C 0.72273 0.55235 0.14741 0.0
C239 C 0.67509 0.5146 0.15517 0.0
C240 C 0.62892 0.49981 0.14105 0.0
C241 C 0.63056 0.5233 0.11953 0.0
C242 C 0.67979 0.56183 0.11242 0.0
H243 H 0.27694 0.91316 0.45066 0.0
H244 H 0.29772 0.88062 0.52303 0.0
H245 H 0.20797 0.80488 0.51964 0.0
H246 H 0.12819 0.86146 0.45069 0.0
H247 H 0.11777 0.83404 0.42046 0.0
H248 H 0.17804 0.89366 0.43027 0.0
H249 H 0.23106 0.85058 0.4161 0.0
H250 H 0.17128 0.79091 0.4065 0.0
H251 H 0.21828 0.78934 0.42732 0.0
H252 H 0.12882 0.7236 0.50611 0.0
H253 H 0.06297 0.64264 0.48386 0.0
H254 H 0.0855 0.72707 0.42035 0.0
C255 C 0.26162 0.89126 0.46604 0.0
C256 C 0.29401 0.90258 0.48709 0.0
C257 C 0.27347 0.87237 0.5067 0.0
C258 C 0.22237 0.82957 0.50503 0.0
C259 C 0.19211 0.81773 0.48369 0.0
C260 C 0.21049 0.84798 0.46459 0.0
C261 C 0.17275 0.82213 0.4427 0.0
C262 C 0.14769 0.85477 0.43562 0.0
C263 C 0.19998 0.81267 0.42196 0.0
C264 C 0.13274 0.77091 0.45207 0.0
C265 C 0.14412 0.76991 0.47589 0.0
C266 C 0.11795 0.72445 0.4877 0.0
C267 C 0.08002 0.67836 0.47477 0.0
C268 C 0.06783 0.67784 0.45018 0.0
C269 C 0.09354 0.72554 0.43903 0.0
H270 H 0.53158 0.34046 0.80231 0.0
H271 H 0.66178 0.40252 0.85625 0.0
H272 H 0.67132 0.32529 0.84782 0.0
H273 H 0.47789 0.19956 0.81371 0.0
H274 H 0.45963 0.17807 0.78268 0.0
H275 H 0.45942 0.23575 0.79459 0.0
H276 H 0.52173 0.29002 0.76311 0.0
H277 H 0.52266 0.23279 0.75129 0.0
H278 H 0.58338 0.29185 0.76106 0.0
H279 H 0.67548 0.24909 0.82977 0.0
H280 H 0.66843 0.1738 0.80595 0.0
H281 H 0.53001 0.15528 0.76623 0.0
C282 C 0.56134 0.33726 0.8127 0.0
C283 C 0.5959 0.37768 0.82994 0.0
C284 C 0.63458 0.37207 0.84304 0.0
C285 C 0.64044 0.32833 0.83837 0.0
C286 C 0.60677 0.29 0.82083 0.0
C287 C 0.56731 0.2934 0.8085 0.0
C288 C 0.53776 0.24756 0.78994 0.0
C289 C 0.48027 0.21319 0.79558 0.0
C290 C 0.54165 0.26673 0.76487 0.0
C291 C 0.56808 0.21907 0.79323 0.0
C292 C 0.60767 0.24425 0.81114 0.0
C293 C 0.64364 0.22801 0.81616 0.0
C294 C 0.63898 0.18474 0.80255 0.0
C295 C 0.59813 0.15746 0.78427 0.0
C296 C 0.56197 0.17494 0.77987 0.0
H297 H 0.55782 0.90878 0.53036 0.0
H298 H 0.51572 0.8571 0.45577 0.0
H299 H 0.52489 0.77925 0.46241 0.0
H300 H 0.65323 0.85978 0.53901 0.0
H301 H 0.63312 0.84221 0.56843 0.0
H302 H 0.63237 0.89758 0.55664 0.0
H303 H 0.53431 0.85659 0.56484 0.0
H304 H 0.53441 0.80091 0.57631 0.0
H305 H 0.48776 0.79115 0.5522 0.0
H306 H 0.52226 0.70001 0.47906 0.0
H307 H 0.51486 0.62949 0.50353 0.0
H308 H 0.56308 0.73623 0.56673 0.0
C309 C 0.55233 0.88184 0.51533 0.0
C310 C 0.53646 0.88834 0.4926 0.0
C311 C 0.52862 0.85253 0.47325 0.0
C312 C 0.53371 0.80845 0.47689 0.0
C313 C 0.5478 0.80207 0.49984 0.0
C314 C 0.55813 0.83853 0.51862 0.0
C315 C 0.56817 0.8209 0.54189 0.0
C316 C 0.62512 0.85728 0.55209 0.0
C317 C 0.5288 0.81715 0.55984 0.0
C318 C 0.55889 0.76737 0.53357 0.0
C319 C 0.54774 0.75725 0.50925 0.0
C320 C 0.53231 0.70801 0.498 0.0
C321 C 0.52787 0.66817 0.51201 0.0
C322 C 0.53883 0.67822 0.53695 0.0
C323 C 0.5555 0.72847 0.54765 0.0
H324 H 0.83028 0.6239 0.87722 0.0
H325 H 0.78931 0.55742 0.8043 0.0
H326 H 0.85697 0.5317 0.80764 0.0
H327 H 0.9769 0.67185 0.87559 0.0
H328 H 0.98043 0.65741 0.90599 0.0
H329 H 0.93534 0.67834 0.8963 0.0
H330 H 0.85918 0.59485 0.91183 0.0
H331 H 0.9035 0.5728 0.92091 0.0
H332 H 0.84693 0.531 0.90079 0.0
H333 H 0.91192 0.49452 0.82223 0.0
H334 H 0.96418 0.46431 0.84414 0.0
H335 H 0.98027 0.56728 0.90561 0.0
C336 C 0.83736 0.60608 0.8617 0.0
C337 C 0.80525 0.59292 0.84048 0.0
C338 C 0.81442 0.56862 0.82056 0.0
C339 C 0.85244 0.55356 0.82236 0.0
C340 C 0.88186 0.56476 0.84394 0.0
C341 C 0.87624 0.5923 0.86298 0.0
C342 C 0.91077 0.59695 0.88454 0.0
C343 C 0.95341 0.65456 0.89097 0.0
C344 C 0.87812 0.57242 0.90575 0.0
C345 C 0.93408 0.56494 0.87508 0.0
C346 C 0.91682 0.54651 0.8517 0.0
C347 C 0.92763 0.51055 0.84023 0.0
C348 C 0.95761 0.4937 0.8529 0.0
C349 C 0.97741 0.51354 0.87673 0.0
C350 C 0.96569 0.55029 0.88765 0.0
H351 H 0.1437 0.7807 0.20657 0.0
H352 H 0.19217 0.75873 0.13762 0.0
H353 H 0.26051 0.85209 0.14035 0.0
H354 H 0.17544 0.92134 0.20106 0.0
H355 H 0.19923 0.93953 0.23186 0.0
H356 H 0.14714 0.87361 0.22271 0.0
H357 H 0.20151 0.83631 0.24197 0.0
H358 H 0.25366 0.90188 0.25107 0.0
H359 H 0.26691 0.85815 0.23324 0.0
H360 H 0.33179 0.94064 0.15296 0.0
H361 H 0.40286 0.01947 0.17471 0.0
H362 H 0.30818 0.98963 0.23521 0.0
C363 C 0.1677 0.79606 0.19177 0.0
C364 C 0.16262 0.76258 0.17187 0.0
C365 C 0.19551 0.78366 0.15307 0.0
C366 C 0.23416 0.83677 0.15435 0.0
C367 C 0.23931 0.86846 0.17448 0.0
C368 C 0.20689 0.84919 0.19283 0.0
C369 C 0.22507 0.89031 0.21362 0.0
C370 C 0.18428 0.9072 0.21754 0.0
C371 C 0.23754 0.87047 0.2363 0.0
C372 C 0.27437 0.93435 0.20456 0.0
C373 C 0.28105 0.92116 0.18175 0.0
C374 C 0.32632 0.95238 0.17053 0.0
C375 C 0.36656 -0.00231 0.18311 0.0
C376 C 0.36142 0.01191 0.20676 0.0
C377 C 0.31374 0.98032 0.21723 0.0
H378 H 0.51471 0.22055 0.53681 0.0
H379 H 0.39032 0.16144 0.48017 0.0
H380 H 0.374 0.23408 0.49148 0.0
H381 H 0.45257 0.26009 0.57956 0.0
H382 H 0.51333 0.31746 0.59088 0.0
H383 H 0.51353 0.26012 0.57855 0.0
H384 H 0.58065 0.31641 0.54894 0.0
H385 H 0.58108 0.37394 0.56133 0.0
H386 H 0.56577 0.35535 0.52995 0.0
H387 H 0.37411 0.31601 0.50899 0.0
H388 H 0.39245 0.39998 0.52993 0.0
H389 H 0.51712 0.40171 0.57408 0.0
C390 C 0.48379 0.2224 0.52671 0.0
C391 C 0.45372 0.18524 0.50761 0.0
C392 C 0.41387 0.18957 0.49488 0.0
C393 C 0.40422 0.23051 0.50123 0.0
C394 C 0.43468 0.26631 0.52032 0.0
C395 C 0.47371 0.26247 0.53277 0.0
C396 C 0.50235 0.30626 0.55208 0.0
C397 C 0.49497 0.28467 0.57672 0.0
C398 C 0.5609 0.33998 0.5478 0.0
C399 C 0.47375 0.33597 0.54853 0.0
C400 C 0.43464 0.31248 0.53027 0.0
C401 C 0.40444 0.3345 0.5234 0.0
C402 C 0.41518 0.38214 0.53532 0.0
C403 C 0.45579 0.40697 0.55381 0.0
C404 C 0.48485 0.38305 0.56051 0.0
H405 H 0.44023 0.53103 0.87362 0.0
H406 H 0.39311 0.46065 0.80134 0.0
H407 H 0.30037 0.43289 0.80809 0.0
H408 H 0.32507 0.42971 0.89985 0.0
H409 H 0.32403 0.47664 0.92111 0.0
H410 H 0.3854 0.48835 0.91052 0.0
H411 H 0.40404 0.57869 0.89725 0.0
H412 H 0.34286 0.56737 0.90776 0.0
H413 H 0.35645 0.58182 0.87741 0.0
H414 H 0.21454 0.42222 0.82215 0.0
H415 H 0.14288 0.42362 0.84298 0.0
H416 H 0.24721 0.49473 0.9066 0.0
C417 C 0.41033 0.50955 0.85922 0.0
C418 C 0.42343 0.49842 0.83689 0.0
C419 C 0.38345 0.46953 0.81856 0.0
C420 C 0.33092 0.4537 0.82226 0.0
C421 C 0.31942 0.46603 0.84452 0.0
C422 C 0.35807 0.49257 0.86277 0.0
C423 C 0.33629 0.50174 0.88498 0.0
C424 C 0.3431 0.47234 0.90531 0.0
C425 C 0.36139 0.56091 0.89226 0.0
C426 C 0.27937 0.47769 0.87627 0.0
C427 C 0.27016 0.45734 0.85288 0.0
C428 C 0.22112 0.43708 0.84058 0.0
C429 C 0.18078 0.43816 0.85247 0.0
C430 C 0.19007 0.45894 0.87643 0.0
C431 C 0.23944 0.47786 0.88844 0.0
H432 H 0.88309 0.37108 0.1952 0.0
H433 H 0.83252 0.39068 0.1252 0.0
H434 H 0.74105 0.32502 0.13171 0.0
H435 H 0.78565 0.22828 0.19653 0.0
H436 H 0.77753 0.23615 0.22757 0.0
H437 H 0.83969 0.2782 0.21581 0.0
H438 H 0.83626 0.35983 0.2323 0.0
H439 H 0.7737 0.31822 0.24368 0.0
H440 H 0.78066 0.36666 0.22362 0.0
H441 H 0.65428 0.26538 0.14759 0.0
H442 H 0.5789 0.21197 0.17096 0.0
H443 H 0.68585 0.23313 0.23085 0.0
C444 C 0.85312 0.36021 0.18089 0.0
C445 C 0.86501 0.38566 0.15961 0.0
C446 C 0.82434 0.37142 0.1416 0.0
C447 C 0.77226 0.33422 0.14514 0.0
C448 C 0.76158 0.31161 0.16675 0.0
C449 C 0.80092 0.32357 0.18423 0.0
C450 C 0.77861 0.29714 0.20658 0.0
C451 C 0.79642 0.25758 0.21193 0.0
C452 C 0.79318 0.33791 0.22778 0.0
C453 C 0.72055 0.26951 0.19915 0.0
C454 C 0.71151 0.27795 0.17605 0.0
C455 C 0.66086 0.25795 0.16559 0.0
C456 C 0.61835 0.22797 0.17903 0.0
C457 C 0.62705 0.21877 0.20271 0.0
C458 C 0.67864 0.23986 0.21279 0.0
H459 H 0.97394 0.51263 0.06076 0.0
H460 H 0.14186 0.60268 0.08012 0.0
H461 H 0.15914 0.59008 0.039 0.0
H462 H 0.97694 0.41782 0.01957 0.0
H463 H 0.92713 0.41416 -0.00128 0.0
H464 H 0.92693 0.43035 0.02981 0.0
H465 H 0.92893 0.51627 0.02002 0.0
H466 H 0.92871 0.50013 0.9889 0.0
H467 H 0.97996 0.56219 0.00285 0.0
H468 H 0.15933 0.56779 0.99644 0.0
H469 H 0.14226 0.541 0.9537 0.0
H470 H 0.97442 0.46418 0.96108 0.0
C471 C 0.01431 0.53 0.05631 0.0
C472 C 0.05646 0.55869 0.07375 0.0
C473 C 0.10877 0.58064 0.06716 0.0
C474 C 0.11912 0.57359 0.04382 0.0
C475 C 0.07683 0.54463 0.02719 0.0
C476 C 0.02548 0.52348 0.03297 0.0
C477 C 0.98748 0.49438 0.01144 0.0
C478 C 0.95257 0.43569 0.01511 0.0
C479 C 0.95433 0.51978 0.00545 0.0
C480 C 0.02568 0.5027 0.99274 0.0
C481 C 0.07695 0.53156 0.00232 0.0
C482 C 0.11936 0.54491 0.98869 0.0
C483 C 0.10919 0.52902 0.96445 0.0
C484 C 0.05699 0.49997 0.95404 0.0
C485 C 0.01473 0.48637 0.9685 0.0
H486 H 0.42125 0.04694 0.39549 0.0
H487 H 0.5658 0.04168 0.40114 0.0
H488 H 0.57381 0.05129 0.35841 0.0
H489 H 0.37274 0.97308 0.33771 0.0
H490 H 0.34524 0.01182 0.32754 0.0
H491 H 0.34973 0.00342 0.35872 0.0
H492 H 0.40213 0.10456 0.3678 0.0
H493 H 0.39791 0.11327 0.33666 0.0
H494 H 0.4611 0.14336 0.35308 0.0
H495 H 0.5692 0.06527 0.31584 0.0
H496 H 0.5495 0.07897 0.27486 0.0
H497 H 0.40704 0.07306 0.29577 0.0
C498 C 0.45441 0.04754 0.38771 0.0
C499 C 0.49286 0.04356 0.40176 0.0
C500 C 0.53567 0.04448 0.39084 0.0
C501 C 0.5407 0.05001 0.36654 0.0
C502 C 0.50246 0.0542 0.35328 0.0
C503 C 0.45992 0.05265 0.36334 0.0
C504 C 0.42463 0.05823 0.34488 0.0
C505 C 0.36984 0.00868 0.34205 0.0
C506 C 0.42127 0.10781 0.35098 0.0
C507 C 0.45442 0.06369 0.32302 0.0
C508 C 0.49927 0.06139 0.32835 0.0
C509 C 0.53409 0.06691 0.31136 0.0
C510 C 0.52277 0.07498 0.28822 0.0
C511 C 0.47693 0.07722 0.28228 0.0
C512 C 0.44217 0.07116 0.29988 0.0
H513 H 0.52674 0.48955 0.73762 0.0
H514 H 0.68225 0.62864 0.7423 0.0
H515 H 0.67309 0.63585 0.69943 0.0
H516 H 0.53584 0.43566 0.68037 0.0
H517 H 0.46821 0.41173 0.67063 0.0
H518 H 0.48712 0.41684 0.70175 0.0
H519 H 0.44622 0.47519 0.71056 0.0
H520 H 0.42741 0.47047 0.67945 0.0
H521 H 0.46728 0.53409 0.69533 0.0
H522 H 0.64711 0.62934 0.65645 0.0
H523 H 0.60685 0.60738 0.61542 0.0
H524 H 0.46787 0.47313 0.63841 0.0
C525 C 0.55901 0.52135 0.72963 0.0
C526 C 0.60521 0.55851 0.74339 0.0
C527 C 0.64644 0.59962 0.7322 0.0
C528 C 0.64165 0.60415 0.70784 0.0
C529 C 0.59545 0.56725 0.69488 0.0
C530 C 0.55494 0.52649 0.70529 0.0
C531 C 0.50942 0.49224 0.68725 0.0
C532 C 0.49959 0.43578 0.68486 0.0
C533 C 0.45965 0.49308 0.69353 0.0
C534 C 0.53074 0.52027 0.6651 0.0
C535 C 0.58037 0.5635 0.66995 0.0
C536 C 0.60819 0.59568 0.65241 0.0
C537 C 0.5848 0.58313 0.62921 0.0
C538 C 0.53407 0.53879 0.62376 0.0
C539 C 0.50677 0.50712 0.64203 0.0
H540 H 0.55493 0.10888 0.59431 0.0
H541 H 0.44152 0.94178 0.58262 0.0
H542 H 0.4449 0.93359 0.62563 0.0
H543 H 0.6339 0.09869 0.64 0.0
H544 H 0.6475 0.15786 0.65713 0.0
H545 H 0.63376 0.15174 0.62548 0.0
H546 H 0.55822 0.17093 0.63135 0.0
H547 H 0.5717 0.17707 0.66306 0.0
H548 H 0.50677 0.13108 0.64989 0.0
H549 H 0.46421 0.9416 0.66917 0.0
H550 H 0.49858 0.96585 0.71115 0.0
H551 H 0.59856 0.12773 0.69525 0.0
C552 C 0.53041 0.07066 0.6008 0.0
C553 C 0.49792 0.026 0.58503 0.0
C554 C 0.4667 0.97664 0.59428 0.0
C555 C 0.46821 0.97154 0.61872 0.0
C556 C 0.50088 0.01618 0.63371 0.0
C557 C 0.53131 0.06484 0.6252 0.0
C558 C 0.56457 0.10604 0.64518 0.0
C559 C 0.62341 0.12997 0.64173 0.0
C560 C 0.54939 0.1488 0.6475 0.0
C561 C 0.54878 0.0726 0.66616 0.0
C562 C 0.51175 0.02095 0.6591 0.0
C563 C 0.49282 0.98198 0.67498 0.0
C564 C 0.51267 -0.00396 0.69872 0.0
C565 C 0.55097 0.04857 0.70632 0.0
C566 C 0.56869 0.08746 0.6899 0.0
H567 H 0.63116 0.52133 0.93442 0.0
H568 H 0.56469 0.62126 0.92213 0.0
H569 H 0.53845 0.61357 0.96308 0.0
H570 H 0.53265 0.43372 0.96988 0.0
H571 H 0.57714 0.42648 0.99003 0.0
H572 H 0.59309 0.44124 0.95993 0.0
H573 H 0.68139 0.52383 0.97511 0.0
H574 H 0.66596 0.50903 0.00526 0.0
H575 H 0.68139 0.57236 0.99573 0.0
H576 H 0.51568 0.59229 0.00441 0.0
H577 H 0.50351 0.56378 0.04505 0.0
H578 H 0.58467 0.47782 0.03106 0.0
C579 C 0.61165 0.54212 0.94041 0.0
C580 C 0.60005 0.57192 0.92499 0.0
C581 C 0.57421 0.5983 0.93355 0.0
C582 C 0.55895 0.59407 0.95679 0.0
C583 C 0.57004 0.56361 0.97134 0.0
C584 C 0.59627 0.53853 0.96364 0.0
C585 C 0.60296 0.50798 0.98295 0.0
C586 C 0.57477 0.44885 0.97523 0.0
C587 C 0.6614 0.52961 0.99019 0.0
C588 C 0.576 0.51956 0.00259 0.0
C589 C 0.55714 0.55155 0.99543 0.0
C590 C 0.5303 0.56728 0.01027 0.0
C591 C 0.52315 0.55047 0.03323 0.0
C592 C 0.54282 0.51831 0.04115 0.0
C593 C 0.56939 0.50253 0.02552 0.0
H594 H 0.03705 0.62253 0.26336 0.0
H595 H 0.0515 0.48371 0.25184 0.0
H596 H 0.05185 0.47484 0.29491 0.0
H597 H 0.11959 0.67371 0.31942 0.0
H598 H 0.07861 0.69623 0.33205 0.0
H599 H 0.08371 0.6942 0.30044 0.0
H600 H 0.98253 0.63598 0.29375 0.0
H601 H 0.97713 0.63765 0.32529 0.0
H602 H 0.9493 0.57541 0.30802 0.0
H603 H 0.04401 0.47695 0.33871 0.0
H604 H 0.03069 0.49156 0.3806 0.0
H605 H 0.02156 0.62882 0.36356 0.0
C606 C 0.04109 0.59071 0.26988 0.0
C607 C 0.04429 0.55386 0.25418 0.0
C608 C 0.04902 0.51249 0.26349 0.0
C609 C 0.04935 0.50713 0.28794 0.0
C610 C 0.04523 0.54358 0.30286 0.0
C611 C 0.04152 0.58476 0.29424 0.0
C612 C 0.03514 0.61714 0.31398 0.0
C613 C 0.08207 0.67367 0.31663 0.0
C614 C 0.98292 0.61647 0.31002 0.0
C615 C 0.03483 0.58709 0.33497 0.0
C616 C 0.04094 0.54494 0.32819 0.0
C617 C 0.03964 0.51008 0.34429 0.0
C618 C 0.03171 0.51845 0.36796 0.0
C619 C 0.02518 0.56131 0.37524 0.0
C620 C 0.02721 0.5962 0.35852 0.0
loop_
_geom_bond_atom_site_label_1
_geom_bond_atom_site_label_2
_geom_bond_distance
_geom_bond_site_symmetry_2
_ccdc_geom_bond_type
O0 Zn1 1.953 . S
O0 C16 1.225 . S
Zn1 O0 1.953 . S
Zn1 O2 1.949 . S
Zn1 O8 1.919 1_455 S
Zn1 O13 1.924 . S
O2 Zn1 1.949 . S
O2 Zn3 1.923 1_455 S
O2 Zn4 1.950 . S
O2 Zn5 1.945 . S
Zn3 O2 1.923 1_655 S
Zn3 O6 1.939 . S
Zn3 O9 1.941 . S
Zn3 O10 1.965 . S
Zn4 O2 1.950 . S
Zn4 O11 1.938 1_455 S
Zn4 O12 1.906 . S
Zn4 O22 1.953 . S
Zn5 O2 1.945 . S
Zn5 O7 1.932 . S
Zn5 O14 1.977 . S
Zn5 O15 1.910 . S
O6 Zn3 1.939 . S
O6 C17 1.211 1_655 S
O7 Zn5 1.932 . S
O7 C17 1.307 . S
O8 Zn1 1.919 1_655 S
O8 C19 1.253 . S
O9 Zn3 1.941 . S
O9 C19 1.283 . S
O10 Zn3 1.965 . S
O10 C18 1.303 . S
O11 Zn4 1.938 1_655 S
O11 C18 1.247 . S
O12 Zn4 1.906 . S
O12 C20 1.304 . S
O13 Zn1 1.924 . S
O13 C21 1.311 . S
O14 Zn5 1.977 . S
O14 C20 1.272 . S
O15 Zn5 1.910 . S
O15 C21 1.231 . S
C16 O0 1.225 . S
C16 O22 1.298 . S
C17 O6 1.211 1_455 S
C17 O7 1.307 . S
C18 O10 1.303 . S
C18 O11 1.247 . S
C19 O8 1.253 . S
C19 O9 1.283 . S
C20 O12 1.304 . S
C20 O14 1.272 . S
C21 O13 1.311 . S
C21 O15 1.231 . S
O22 Zn4 1.953 . S
O22 C16 1.298 . S
O23 Zn24 1.953 . S
O23 C39 1.225 . S
Zn24 O23 1.953 . S
Zn24 O25 1.949 . S
Zn24 O31 1.919 . S
Zn24 O36 1.924 . S
O25 Zn24 1.949 . S
O25 Zn26 1.923 . S
O25 Zn27 1.950 . S
O25 Zn28 1.945 1_545 S
Zn26 O25 1.923 . S
Zn26 O29 1.933 . S
Zn26 O32 1.941 . S
Zn26 O33 1.965 . S
Zn27 O25 1.950 . S
Zn27 O34 1.938 . S
Zn27 O35 1.906 1_545 S
Zn27 O45 1.953 . S
Zn28 O25 1.945 1_565 S
Zn28 O30 1.932 1_565 S
Zn28 O37 1.977 . S
Zn28 O38 1.910 . S
O29 Zn26 1.933 . S
O29 C40 1.226 . S
O30 Zn28 1.932 1_545 S
O30 C40 1.307 . S
O31 Zn24 1.919 . S
O31 C42 1.253 . S
O32 Zn26 1.941 . S
O32 C42 1.283 . S
O33 Zn26 1.965 . S
O33 C41 1.303 . S
O34 Zn27 1.938 . S
O34 C41 1.247 . S
O35 Zn27 1.906 1_565 S
O35 C43 1.304 . S
O36 Zn24 1.924 . S
O36 C44 1.311 1_545 S
O37 Zn28 1.977 . S
O37 C43 1.272 . S
O38 Zn28 1.910 . S
O38 C44 1.231 . S
C39 O23 1.225 . S
C39 O45 1.298 . S
C40 O29 1.226 . S
C40 O30 1.307 . S
C41 O33 1.303 . S
C41 O34 1.247 . S
C42 O31 1.253 . S
C42 O32 1.283 . S
C43 O35 1.304 . S
C43 O37 1.272 . S
C44 O36 1.311 1_565 S
C44 O38 1.231 . S
O45 Zn27 1.953 . S
O45 C39 1.298 . S
O46 Zn47 1.953 . S
O46 C62 1.225 . S
Zn47 O46 1.953 . S
Zn47 O48 1.949 . S
Zn47 O54 1.919 . S
Zn47 O59 1.924 . S
O48 Zn47 1.949 . S
O48 Zn49 1.923 . S
O48 Zn50 1.950 . S
O48 Zn51 1.945 . S
Zn49 O48 1.923 . S
Zn49 O52 1.933 . S
Zn49 O55 1.941 . S
Zn49 O56 1.965 . S
Zn50 O48 1.950 . S
Zn50 O57 1.938 . S
Zn50 O58 1.906 . S
Zn50 O68 1.953 . S
Zn51 O48 1.945 . S
Zn51 O53 1.932 . S
Zn51 O60 1.977 . S
Zn51 O61 1.910 . S
O52 Zn49 1.933 . S
O52 C63 1.226 . S
O53 Zn51 1.932 . S
O53 C63 1.307 . S
O54 Zn47 1.919 . S
O54 C65 1.253 . S
O55 Zn49 1.941 . S
O55 C65 1.283 . S
O56 Zn49 1.965 . S
O56 C64 1.303 . S
O57 Zn50 1.938 . S
O57 C64 1.247 . S
O58 Zn50 1.906 . S
O58 C66 1.304 . S
O59 Zn47 1.924 . S
O59 C67 1.311 . S
O60 Zn51 1.977 . S
O60 C66 1.272 . S
O61 Zn51 1.910 . S
O61 C67 1.231 . S
C62 O46 1.225 . S
C62 O68 1.298 . S
C63 O52 1.226 . S
C63 O53 1.307 . S
C64 O56 1.303 . S
C64 O57 1.247 . S
C65 O54 1.253 . S
C65 O55 1.283 . S
C66 O58 1.304 . S
C66 O60 1.272 . S
C67 O59 1.311 . S
C67 O61 1.231 . S
O68 Zn50 1.953 . S
O68 C62 1.298 . S
H69 C74 0.929 . S
H70 C79 0.931 1_565 S
H71 C77 0.930 . S
N72 N73 1.234 . S
N72 C76 1.453 . S
N73 N72 1.234 . S
C74 H69 0.929 . S
C74 C75 1.373 . S
C74 C76 1.368 . S
C75 C74 1.373 . S
C75 C79 1.397 . S
C76 N72 1.453 . S
C76 C74 1.368 . S
C76 C77 1.373 . S
C77 H71 0.930 . S
C77 C76 1.373 . S
C77 C78 1.371 . S
C78 C77 1.371 . S
C78 C79 1.383 . S
C79 H70 0.931 1_545 S
C79 C75 1.397 . S
C79 C78 1.383 . S
H80 C85 0.929 . S
H81 C90 0.931 . S
H82 C88 0.930 . S
N83 N84 1.234 . S
N83 C87 1.453 . S
N84 N83 1.234 . S
C85 H80 0.929 . S
C85 C86 1.373 . S
C85 C87 1.368 . S
C86 C85 1.373 . S
C86 C90 1.397 . S
C87 N83 1.453 . S
C87 C85 1.368 . S
C87 C88 1.373 . S
C88 H82 0.930 . S
C88 C87 1.373 . S
C88 C89 1.371 . S
C89 C88 1.371 . S
C89 C90 1.383 . S
C90 H81 0.931 . S
C90 C86 1.397 . S
C90 C89 1.383 . S
H91 C96 0.929 . S
H92 C101 0.931 1_655 S
H93 C99 0.930 . S
N94 N95 1.234 . S
N94 C98 1.453 . S
N95 N94 1.234 . S
C96 H91 0.929 . S
C96 C97 1.373 . S
C96 C98 1.368 . S
C97 C96 1.373 . S
C97 C101 1.397 . S
C98 N94 1.453 . S
C98 C96 1.368 . S
C98 C99 1.373 . S
C99 H93 0.930 . S
C99 C98 1.373 . S
C99 C100 1.371 . S
C100 C99 1.371 . S
C100 C101 1.383 . S
C101 H92 0.931 1_455 S
C101 C97 1.397 . S
C101 C100 1.383 . S
H102 C107 0.929 . S
H103 C112 0.931 . S
H104 C110 0.930 1_655 S
N105 N106 1.234 . S
N105 C109 1.453 1_655 S
N106 N105 1.234 . S
C107 H102 0.929 . S
C107 C108 1.373 . S
C107 C109 1.368 . S
C108 C107 1.373 . S
C108 C112 1.397 . S
C109 N105 1.453 1_455 S
C109 C107 1.368 . S
C109 C110 1.373 . S
C110 H104 0.930 1_455 S
C110 C109 1.373 . S
C110 C111 1.371 . S
C111 C110 1.371 . S
C111 C112 1.383 . S
C112 H103 0.931 . S
C112 C108 1.397 . S
C112 C111 1.383 . S
H113 C118 0.929 . S
H114 C123 0.931 . S
H115 C121 0.930 1_565 S
N116 N117 1.234 . S
N116 C120 1.453 1_565 S
N117 N116 1.234 . S
C118 H113 0.929 . S
C118 C119 1.373 . S
C118 C120 1.368 . S
C119 C118 1.373 . S
C119 C123 1.397 . S
C120 N116 1.453 1_545 S
C120 C118 1.368 . S
C120 C121 1.373 . S
C121 H115 0.930 1_545 S
C121 C120 1.373 . S
C121 C122 1.371 . S
C122 C121 1.371 . S
C122 C123 1.383 . S
C123 H114 0.931 . S
C123 C119 1.397 . S
C123 C122 1.383 . S
H124 C129 0.929 . S
H125 C134 0.931 . S
H126 C132 0.930 . S
N127 N128 1.234 . S
N127 C131 1.453 . S
N128 N127 1.234 . S
C129 H124 0.929 . S
C129 C130 1.373 . S
C129 C131 1.368 . S
C130 C129 1.373 . S
C130 C134 1.397 . S
C131 N127 1.453 . S
C131 C129 1.368 . S
C131 C132 1.373 . S
C132 H126 0.930 . S
C132 C131 1.373 . S
C132 C133 1.371 . S
C133 C132 1.371 . S
C133 C134 1.383 . S
C134 H125 0.931 . S
C134 C130 1.397 . S
C134 C133 1.383 . S
H135 C147 0.930 . S
H136 C149 0.930 . S
H137 C150 0.930 . S
H138 C154 0.959 . S
H139 C154 0.959 . S
H140 C154 0.961 . S
H141 C155 0.960 . S
H142 C155 0.961 . S
H143 C155 0.959 . S
H144 C158 0.929 . S
H145 C159 0.931 . S
H146 C161 0.930 . S
C147 H135 0.930 . S
C147 C148 1.399 . S
C147 C152 1.399 . S
C148 C147 1.399 . S
C148 C149 1.376 . S
C149 H136 0.930 . S
C149 C148 1.376 . S
C149 C150 1.388 . S
C150 H137 0.930 . S
C150 C149 1.388 . S
C150 C151 1.390 . S
C151 C150 1.390 . S
C151 C152 1.394 . S
C151 C157 1.465 . S
C152 C147 1.399 . S
C152 C151 1.394 . S
C152 C153 1.516 . S
C153 C152 1.516 . S
C153 C154 1.502 . S
C153 C155 1.561 . S
C153 C156 1.526 . S
C154 H138 0.959 . S
C154 H139 0.959 . S
C154 H140 0.961 . S
C154 C153 1.502 . S
C155 H141 0.960 . S
C155 H142 0.961 . S
C155 H143 0.959 . S
C155 C153 1.561 . S
C156 C153 1.526 . S
C156 C157 1.396 . S
C156 C161 1.390 . S
C157 C151 1.465 . S
C157 C156 1.396 . S
C157 C158 1.399 . S
C158 H144 0.929 . S
C158 C157 1.399 . S
C158 C159 1.385 . S
C159 H145 0.931 . S
C159 C158 1.385 . S
C159 C160 1.389 . S
C160 C159 1.389 . S
C160 C161 1.387 . S
C161 H146 0.930 . S
C161 C156 1.390 . S
C161 C160 1.387 . S
H162 C174 0.930 . S
H163 C176 0.930 . S
H164 C177 0.930 . S
H165 C181 0.959 . S
H166 C181 0.959 . S
H167 C181 0.961 . S
H168 C182 0.960 . S
H169 C182 0.961 . S
H170 C182 0.959 . S
H171 C185 0.929 . S
H172 C186 0.931 . S
H173 C188 0.930 . S
C174 H162 0.930 . S
C174 C175 1.399 . S
C174 C179 1.399 . S
C175 C174 1.399 . S
C175 C176 1.376 . S
C176 H163 0.930 . S
C176 C175 1.376 . S
C176 C177 1.388 . S
C177 H164 0.930 . S
C177 C176 1.388 . S
C177 C178 1.390 . S
C178 C177 1.390 . S
C178 C179 1.394 . S
C178 C184 1.465 . S
C179 C174 1.399 . S
C179 C178 1.394 . S
C179 C180 1.516 . S
C180 C179 1.516 . S
C180 C181 1.502 . S
C180 C182 1.561 . S
C180 C183 1.526 . S
C181 H165 0.959 . S
C181 H166 0.959 . S
C181 H167 0.961 . S
C181 C180 1.502 . S
C182 H168 0.960 . S
C182 H169 0.961 . S
C182 H170 0.959 . S
C182 C180 1.561 . S
C183 C180 1.526 . S
C183 C184 1.396 . S
C183 C188 1.390 . S
C184 C178 1.465 . S
C184 C183 1.396 . S
C184 C185 1.399 . S
C185 H171 0.929 . S
C185 C184 1.399 . S
C185 C186 1.385 . S
C186 H172 0.931 . S
C186 C185 1.385 . S
C186 C187 1.389 . S
C187 C186 1.389 . S
C187 C188 1.387 . S
C188 H173 0.930 . S
C188 C183 1.390 . S
C188 C187 1.387 . S
H189 C201 0.930 . S
H190 C203 0.930 . S
H191 C204 0.930 . S
H192 C208 0.959 . S
H193 C208 0.959 . S
H194 C208 0.961 . S
H195 C209 0.960 . S
H196 C209 0.961 . S
H197 C209 0.959 . S
H198 C212 0.929 . S
H199 C213 0.931 . S
H200 C215 0.930 . S
C201 H189 0.930 . S
C201 C202 1.399 . S
C201 C206 1.399 . S
C202 C201 1.399 . S
C202 C203 1.376 . S
C203 H190 0.930 . S
C203 C202 1.376 . S
C203 C204 1.388 . S
C204 H191 0.930 . S
C204 C203 1.388 . S
C204 C205 1.390 . S
C205 C204 1.390 . S
C205 C206 1.394 . S
C205 C211 1.465 . S
C206 C201 1.399 . S
C206 C205 1.394 . S
C206 C207 1.516 . S
C207 C206 1.516 . S
C207 C208 1.502 . S
C207 C209 1.561 . S
C207 C210 1.526 . S
C208 H192 0.959 . S
C208 H193 0.959 . S
C208 H194 0.961 . S
C208 C207 1.502 . S
C209 H195 0.960 . S
C209 H196 0.961 . S
C209 H197 0.959 . S
C209 C207 1.561 . S
C210 C207 1.526 . S
C210 C211 1.396 . S
C210 C215 1.390 . S
C211 C205 1.465 . S
C211 C210 1.396 . S
C211 C212 1.399 . S
C212 H198 0.929 . S
C212 C211 1.399 . S
C212 C213 1.385 . S
C213 H199 0.931 . S
C213 C212 1.385 . S
C213 C214 1.389 . S
C214 C213 1.389 . S
C214 C215 1.387 . S
C215 H200 0.930 . S
C215 C210 1.390 . S
C215 C214 1.387 . S
H216 C228 0.930 . S
H217 C230 0.930 . S
H218 C231 0.930 . S
H219 C235 0.959 . S
H220 C235 0.959 . S
H221 C235 0.961 . S
H222 C236 0.960 . S
H223 C236 0.961 . S
H224 C236 0.959 . S
H225 C239 0.929 . S
H226 C240 0.931 . S
H227 C242 0.930 . S
C228 H216 0.930 . S
C228 C229 1.399 . S
C228 C233 1.399 . S
C229 C228 1.399 . S
C229 C230 1.376 . S
C230 H217 0.930 . S
C230 C229 1.376 . S
C230 C231 1.388 . S
C231 H218 0.930 . S
C231 C230 1.388 . S
C231 C232 1.390 . S
C232 C231 1.390 . S
C232 C233 1.394 . S
C232 C238 1.465 . S
C233 C228 1.399 . S
C233 C232 1.394 . S
C233 C234 1.516 . S
C234 C233 1.516 . S
C234 C235 1.502 . S
C234 C236 1.561 . S
C234 C237 1.526 . S
C235 H219 0.959 . S
C235 H220 0.959 . S
C235 H221 0.961 . S
C235 C234 1.502 . S
C236 H222 0.960 . S
C236 H223 0.961 . S
C236 H224 0.959 . S
C236 C234 1.561 . S
C237 C234 1.526 . S
C237 C238 1.396 . S
C237 C242 1.390 . S
C238 C232 1.465 . S
C238 C237 1.396 . S
C238 C239 1.399 . S
C239 H225 0.929 . S
C239 C238 1.399 . S
C239 C240 1.385 . S
C240 H226 0.931 . S
C240 C239 1.385 . S
C240 C241 1.389 . S
C241 C240 1.389 . S
C241 C242 1.387 . S
C242 H227 0.930 . S
C242 C237 1.390 . S
C242 C241 1.387 . S
H243 C255 0.930 . S
H244 C257 0.930 . S
H245 C258 0.930 . S
H246 C262 0.959 . S
H247 C262 0.959 . S
H248 C262 0.961 . S
H249 C263 0.960 . S
H250 C263 0.961 . S
H251 C263 0.959 . S
H252 C266 0.929 . S
H253 C267 0.931 . S
H254 C269 0.930 . S
C255 H243 0.930 . S
C255 C256 1.399 . S
C255 C260 1.399 . S
C256 C255 1.399 . S
C256 C257 1.376 . S
C257 H244 0.930 . S
C257 C256 1.376 . S
C257 C258 1.388 . S
C258 H245 0.930 . S
C258 C257 1.388 . S
C258 C259 1.390 . S
C259 C258 1.390 . S
C259 C260 1.394 . S
C259 C265 1.465 . S
C260 C255 1.399 . S
C260 C259 1.394 . S
C260 C261 1.516 . S
C261 C260 1.516 . S
C261 C262 1.502 . S
C261 C263 1.561 . S
C261 C264 1.526 . S
C262 H246 0.959 . S
C262 H247 0.959 . S
C262 H248 0.961 . S
C262 C261 1.502 . S
C263 H249 0.960 . S
C263 H250 0.961 . S
C263 H251 0.959 . S
C263 C261 1.561 . S
C264 C261 1.526 . S
C264 C265 1.396 . S
C264 C269 1.390 . S
C265 C259 1.465 . S
C265 C264 1.396 . S
C265 C266 1.399 . S
C266 H252 0.929 . S
C266 C265 1.399 . S
C266 C267 1.385 . S
C267 H253 0.931 . S
C267 C266 1.385 . S
C267 C268 1.389 . S
C268 C267 1.389 . S
C268 C269 1.387 . S
C269 H254 0.930 . S
C269 C264 1.390 . S
C269 C268 1.387 . S
H270 C282 0.930 . S
H271 C284 0.930 . S
H272 C285 0.930 . S
H273 C289 0.959 . S
H274 C289 0.959 . S
H275 C289 0.961 . S
H276 C290 0.960 . S
H277 C290 0.961 . S
H278 C290 0.959 . S
H279 C293 0.929 . S
H280 C294 0.931 . S
H281 C296 0.930 . S
C282 H270 0.930 . S
C282 C283 1.399 . S
C282 C287 1.399 . S
C283 C282 1.399 . S
C283 C284 1.376 . S
C284 H271 0.930 . S
C284 C283 1.376 . S
C284 C285 1.388 . S
C285 H272 0.930 . S
C285 C284 1.388 . S
C285 C286 1.390 . S
C286 C285 1.390 . S
C286 C287 1.394 . S
C286 C292 1.465 . S
C287 C282 1.399 . S
C287 C286 1.394 . S
C287 C288 1.516 . S
C288 C287 1.516 . S
C288 C289 1.502 . S
C288 C290 1.561 . S
C288 C291 1.526 . S
C289 H273 0.959 . S
C289 H274 0.959 . S
C289 H275 0.961 . S
C289 C288 1.502 . S
C290 H276 0.960 . S
C290 H277 0.961 . S
C290 H278 0.959 . S
C290 C288 1.561 . S
C291 C288 1.526 . S
C291 C292 1.396 . S
C291 C296 1.390 . S
C292 C286 1.465 . S
C292 C291 1.396 . S
C292 C293 1.399 . S
C293 H279 0.929 . S
C293 C292 1.399 . S
C293 C294 1.385 . S
C294 H280 0.931 . S
C294 C293 1.385 . S
C294 C295 1.389 . S
C295 C294 1.389 . S
C295 C296 1.387 . S
C296 H281 0.930 . S
C296 C291 1.390 . S
C296 C295 1.387 . S
H297 C309 0.930 . S
H298 C311 0.930 . S
H299 C312 0.930 . S
H300 C316 0.959 . S
H301 C316 0.959 . S
H302 C316 0.961 . S
H303 C317 0.960 . S
H304 C317 0.961 . S
H305 C317 0.959 . S
H306 C320 0.929 . S
H307 C321 0.931 . S
H308 C323 0.930 . S
C309 H297 0.930 . S
C309 C310 1.399 . S
C309 C314 1.399 . S
C310 C309 1.399 . S
C310 C311 1.376 . S
C311 H298 0.930 . S
C311 C310 1.376 . S
C311 C312 1.388 . S
C312 H299 0.930 . S
C312 C311 1.388 . S
C312 C313 1.390 . S
C313 C312 1.390 . S
C313 C314 1.394 . S
C313 C319 1.465 . S
C314 C309 1.399 . S
C314 C313 1.394 . S
C314 C315 1.516 . S
C315 C314 1.516 . S
C315 C316 1.502 . S
C315 C317 1.561 . S
C315 C318 1.526 . S
C316 H300 0.959 . S
C316 H301 0.959 . S
C316 H302 0.961 . S
C316 C315 1.502 . S
C317 H303 0.960 . S
C317 H304 0.961 . S
C317 H305 0.959 . S
C317 C315 1.561 . S
C318 C315 1.526 . S
C318 C319 1.396 . S
C318 C323 1.390 . S
C319 C313 1.465 . S
C319 C318 1.396 . S
C319 C320 1.399 . S
C320 H306 0.929 . S
C320 C319 1.399 . S
C320 C321 1.385 . S
C321 H307 0.931 . S
C321 C320 1.385 . S
C321 C322 1.389 . S
C322 C321 1.389 . S
C322 C323 1.387 . S
C323 H308 0.930 . S
C323 C318 1.390 . S
C323 C322 1.387 . S
H324 C336 0.930 . S
H325 C338 0.930 . S
H326 C339 0.930 . S
H327 C343 0.959 . S
H328 C343 0.959 . S
H329 C343 0.961 . S
H330 C344 0.960 . S
H331 C344 0.961 . S
H332 C344 0.959 . S
H333 C347 0.929 . S
H334 C348 0.931 . S
H335 C350 0.930 . S
C336 H324 0.930 . S
C336 C337 1.399 . S
C336 C341 1.399 . S
C337 C336 1.399 . S
C337 C338 1.376 . S
C338 H325 0.930 . S
C338 C337 1.376 . S
C338 C339 1.388 . S
C339 H326 0.930 . S
C339 C338 1.388 . S
C339 C340 1.390 . S
C340 C339 1.390 . S
C340 C341 1.394 . S
C340 C346 1.465 . S
C341 C336 1.399 . S
C341 C340 1.394 . S
C341 C342 1.516 . S
C342 C341 1.516 . S
C342 C343 1.502 . S
C342 C344 1.561 . S
C342 C345 1.526 . S
C343 H327 0.959 . S
C343 H328 0.959 . S
C343 H329 0.961 . S
C343 C342 1.502 . S
C344 H330 0.960 . S
C344 H331 0.961 . S
C344 H332 0.959 . S
C344 C342 1.561 . S
C345 C342 1.526 . S
C345 C346 1.396 . S
C345 C350 1.390 . S
C346 C340 1.465 . S
C346 C345 1.396 . S
C346 C347 1.399 . S
C347 H333 0.929 . S
C347 C346 1.399 . S
C347 C348 1.385 . S
C348 H334 0.931 . S
C348 C347 1.385 . S
C348 C349 1.389 . S
C349 C348 1.389 . S
C349 C350 1.387 . S
C350 H335 0.930 . S
C350 C345 1.390 . S
C350 C349 1.387 . S
H351 C363 0.930 . S
H352 C365 0.930 . S
H353 C366 0.930 . S
H354 C370 0.959 . S
H355 C370 0.959 . S
H356 C370 0.961 . S
H357 C371 0.960 . S
H358 C371 0.961 . S
H359 C371 0.959 . S
H360 C374 0.929 . S
H361 C375 0.931 . S
H362 C377 0.930 . S
C363 H351 0.930 . S
C363 C364 1.399 . S
C363 C368 1.399 . S
C364 C363 1.399 . S
C364 C365 1.376 . S
C365 H352 0.930 . S
C365 C364 1.376 . S
C365 C366 1.388 . S
C366 H353 0.930 . S
C366 C365 1.388 . S
C366 C367 1.390 . S
C367 C366 1.390 . S
C367 C368 1.394 . S
C367 C373 1.465 . S
C368 C363 1.399 . S
C368 C367 1.394 . S
C368 C369 1.516 . S
C369 C368 1.516 . S
C369 C370 1.502 . S
C369 C371 1.561 . S
C369 C372 1.526 . S
C370 H354 0.959 . S
C370 H355 0.959 . S
C370 H356 0.961 . S
C370 C369 1.502 . S
C371 H357 0.960 . S
C371 H358 0.961 . S
C371 H359 0.959 . S
C371 C369 1.561 . S
C372 C369 1.526 . S
C372 C373 1.396 . S
C372 C377 1.390 . S
C373 C367 1.465 . S
C373 C372 1.396 . S
C373 C374 1.399 . S
C374 H360 0.929 . S
C374 C373 1.399 . S
C374 C375 1.385 . S
C375 H361 0.931 . S
C375 C374 1.385 . S
C375 C376 1.389 . S
C376 C375 1.389 . S
C376 C377 1.387 . S
C377 H362 0.930 . S
C377 C372 1.390 . S
C377 C376 1.387 . S
H378 C390 0.930 . S
H379 C392 0.930 . S
H380 C393 0.930 . S
H381 C397 0.959 . S
H382 C397 0.959 . S
H383 C397 0.961 . S
H384 C398 0.960 . S
H385 C398 0.961 . S
H386 C398 0.959 . S
H387 C401 0.929 . S
H388 C402 0.931 . S
H389 C404 0.930 . S
C390 H378 0.930 . S
C390 C391 1.399 . S
C390 C395 1.399 . S
C391 C390 1.399 . S
C391 C392 1.376 . S
C392 H379 0.930 . S
C392 C391 1.376 . S
C392 C393 1.388 . S
C393 H380 0.930 . S
C393 C392 1.388 . S
C393 C394 1.390 . S
C394 C393 1.390 . S
C394 C395 1.394 . S
C394 C400 1.465 . S
C395 C390 1.399 . S
C395 C394 1.394 . S
C395 C396 1.516 . S
C396 C395 1.516 . S
C396 C397 1.502 . S
C396 C398 1.561 . S
C396 C399 1.526 . S
C397 H381 0.959 . S
C397 H382 0.959 . S
C397 H383 0.961 . S
C397 C396 1.502 . S
C398 H384 0.960 . S
C398 H385 0.961 . S
C398 H386 0.959 . S
C398 C396 1.561 . S
C399 C396 1.526 . S
C399 C400 1.396 . S
C399 C404 1.390 . S
C400 C394 1.465 . S
C400 C399 1.396 . S
C400 C401 1.399 . S
C401 H387 0.929 . S
C401 C400 1.399 . S
C401 C402 1.385 . S
C402 H388 0.931 . S
C402 C401 1.385 . S
C402 C403 1.389 . S
C403 C402 1.389 . S
C403 C404 1.387 . S
C404 H389 0.930 . S
C404 C399 1.390 . S
C404 C403 1.387 . S
H405 C417 0.930 . S
H406 C419 0.930 . S
H407 C420 0.930 . S
H408 C424 0.959 . S
H409 C424 0.959 . S
H410 C424 0.961 . S
H411 C425 0.960 . S
H412 C425 0.961 . S
H413 C425 0.959 . S
H414 C428 0.929 . S
H415 C429 0.931 . S
H416 C431 0.930 . S
C417 H405 0.930 . S
C417 C418 1.399 . S
C417 C422 1.399 . S
C418 C417 1.399 . S
C418 C419 1.376 . S
C419 H406 0.930 . S
C419 C418 1.376 . S
C419 C420 1.388 . S
C420 H407 0.930 . S
C420 C419 1.388 . S
C420 C421 1.390 . S
C421 C420 1.390 . S
C421 C422 1.394 . S
C421 C427 1.465 . S
C422 C417 1.399 . S
C422 C421 1.394 . S
C422 C423 1.516 . S
C423 C422 1.516 . S
C423 C424 1.502 . S
C423 C425 1.561 . S
C423 C426 1.526 . S
C424 H408 0.959 . S
C424 H409 0.959 . S
C424 H410 0.961 . S
C424 C423 1.502 . S
C425 H411 0.960 . S
C425 H412 0.961 . S
C425 H413 0.959 . S
C425 C423 1.561 . S
C426 C423 1.526 . S
C426 C427 1.396 . S
C426 C431 1.390 . S
C427 C421 1.465 . S
C427 C426 1.396 . S
C427 C428 1.399 . S
C428 H414 0.929 . S
C428 C427 1.399 . S
C428 C429 1.385 . S
C429 H415 0.931 . S
C429 C428 1.385 . S
C429 C430 1.389 . S
C430 C429 1.389 . S
C430 C431 1.387 . S
C431 H416 0.930 . S
C431 C426 1.390 . S
C431 C430 1.387 . S
H432 C444 0.930 . S
H433 C446 0.930 . S
H434 C447 0.930 . S
H435 C451 0.959 . S
H436 C451 0.959 . S
H437 C451 0.961 . S
H438 C452 0.960 . S
H439 C452 0.961 . S
H440 C452 0.959 . S
H441 C455 0.929 . S
H442 C456 0.931 . S
H443 C458 0.930 . S
C444 H432 0.930 . S
C444 C445 1.399 . S
C444 C449 1.399 . S
C445 C444 1.399 . S
C445 C446 1.376 . S
C446 H433 0.930 . S
C446 C445 1.376 . S
C446 C447 1.388 . S
C447 H434 0.930 . S
C447 C446 1.388 . S
C447 C448 1.390 . S
C448 C447 1.390 . S
C448 C449 1.394 . S
C448 C454 1.465 . S
C449 C444 1.399 . S
C449 C448 1.394 . S
C449 C450 1.516 . S
C450 C449 1.516 . S
C450 C451 1.502 . S
C450 C452 1.561 . S
C450 C453 1.526 . S
C451 H435 0.959 . S
C451 H436 0.959 . S
C451 H437 0.961 . S
C451 C450 1.502 . S
C452 H438 0.960 . S
C452 H439 0.961 . S
C452 H440 0.959 . S
C452 C450 1.561 . S
C453 C450 1.526 . S
C453 C454 1.396 . S
C453 C458 1.390 . S
C454 C448 1.465 . S
C454 C453 1.396 . S
C454 C455 1.399 . S
C455 H441 0.929 . S
C455 C454 1.399 . S
C455 C456 1.385 . S
C456 H442 0.931 . S
C456 C455 1.385 . S
C456 C457 1.389 . S
C457 C456 1.389 . S
C457 C458 1.387 . S
C458 H443 0.930 . S
C458 C453 1.390 . S
C458 C457 1.387 . S
H459 C471 0.930 . S
H460 C473 0.930 . S
H461 C474 0.930 . S
H462 C478 0.959 . S
H463 C478 0.959 . S
H464 C478 0.961 . S
H465 C479 0.960 . S
H466 C479 0.961 . S
H467 C479 0.959 . S
H468 C482 0.929 . S
H469 C483 0.931 . S
H470 C485 0.930 . S
C471 H459 0.930 . S
C471 C472 1.399 . S
C471 C476 1.399 . S
C472 C471 1.399 . S
C472 C473 1.376 . S
C473 H460 0.930 . S
C473 C472 1.376 . S
C473 C474 1.388 . S
C474 H461 0.930 . S
C474 C473 1.388 . S
C474 C475 1.390 . S
C475 C474 1.390 . S
C475 C476 1.394 . S
C475 C481 1.465 . S
C476 C471 1.399 . S
C476 C475 1.394 . S
C476 C477 1.516 . S
C477 C476 1.516 . S
C477 C478 1.502 . S
C477 C479 1.561 1_455 S
C477 C480 1.526 1_554 S
C478 H462 0.959 . S
C478 H463 0.959 . S
C478 H464 0.961 . S
C478 C477 1.502 . S
C479 H465 0.960 . S
C479 H466 0.961 . S
C479 H467 0.959 . S
C479 C477 1.561 1_655 S
C480 C477 1.526 1_556 S
C480 C481 1.396 1_556 S
C480 C485 1.390 . S
C481 C475 1.465 . S
C481 C480 1.396 1_554 S
C481 C482 1.399 1_554 S
C482 H468 0.929 . S
C482 C481 1.399 1_556 S
C482 C483 1.385 . S
C483 H469 0.931 . S
C483 C482 1.385 . S
C483 C484 1.389 . S
C484 C483 1.389 . S
C484 C485 1.387 . S
C485 H470 0.930 . S
C485 C480 1.390 . S
C485 C484 1.387 . S
H486 C498 0.930 . S
H487 C500 0.930 1_565 S
H488 C501 0.930 . S
H489 C505 0.959 . S
H490 C505 0.959 . S
H491 C505 0.961 . S
H492 C506 0.960 . S
H493 C506 0.961 . S
H494 C506 0.959 . S
H495 C509 0.929 . S
H496 C510 0.931 1_565 S
H497 C512 0.930 . S
C498 H486 0.930 . S
C498 C499 1.399 . S
C498 C503 1.399 . S
C499 C498 1.399 . S
C499 C500 1.376 . S
C500 H487 0.930 1_545 S
C500 C499 1.376 . S
C500 C501 1.388 1_545 S
C501 H488 0.930 . S
C501 C500 1.388 1_565 S
C501 C502 1.390 1_565 S
C502 C501 1.390 1_545 S
C502 C503 1.394 . S
C502 C508 1.465 . S
C503 C498 1.399 . S
C503 C502 1.394 . S
C503 C504 1.516 . S
C504 C503 1.516 . S
C504 C505 1.502 . S
C504 C506 1.561 . S
C504 C507 1.526 . S
C505 H489 0.959 . S
C505 H490 0.959 . S
C505 H491 0.961 . S
C505 C504 1.502 . S
C506 H492 0.960 . S
C506 H493 0.961 . S
C506 H494 0.959 . S
C506 C504 1.561 . S
C507 C504 1.526 . S
C507 C508 1.396 . S
C507 C512 1.390 . S
C508 C502 1.465 . S
C508 C507 1.396 . S
C508 C509 1.399 1_545 S
C509 H495 0.929 . S
C509 C508 1.399 1_565 S
C509 C510 1.385 1_565 S
C510 H496 0.931 1_545 S
C510 C509 1.385 1_545 S
C510 C511 1.389 . S
C511 C510 1.389 . S
C511 C512 1.387 . S
C512 H497 0.930 . S
C512 C507 1.390 . S
C512 C511 1.387 . S
H513 C525 0.930 . S
H514 C527 0.930 . S
H515 C528 0.930 . S
H516 C532 0.959 . S
H517 C532 0.959 . S
H518 C532 0.961 . S
H519 C533 0.960 . S
H520 C533 0.961 . S
H521 C533 0.959 . S
H522 C536 0.929 . S
H523 C537 0.931 . S
H524 C539 0.930 . S
C525 H513 0.930 . S
C525 C526 1.399 . S
C525 C530 1.399 . S
C526 C525 1.399 . S
C526 C527 1.376 . S
C527 H514 0.930 . S
C527 C526 1.376 . S
C527 C528 1.388 . S
C528 H515 0.930 . S
C528 C527 1.388 . S
C528 C529 1.390 . S
C529 C528 1.390 . S
C529 C530 1.394 . S
C529 C535 1.465 . S
C530 C525 1.399 . S
C530 C529 1.394 . S
C530 C531 1.516 . S
C531 C530 1.516 . S
C531 C532 1.502 . S
C531 C533 1.561 . S
C531 C534 1.526 . S
C532 H516 0.959 . S
C532 H517 0.959 . S
C532 H518 0.961 . S
C532 C531 1.502 . S
C533 H519 0.960 . S
C533 H520 0.961 . S
C533 H521 0.959 . S
C533 C531 1.561 . S
C534 C531 1.526 . S
C534 C535 1.396 . S
C534 C539 1.390 . S
C535 C529 1.465 . S
C535 C534 1.396 . S
C535 C536 1.399 . S
C536 H522 0.929 . S
C536 C535 1.399 . S
C536 C537 1.385 . S
C537 H523 0.931 . S
C537 C536 1.385 . S
C537 C538 1.389 . S
C538 C537 1.389 . S
C538 C539 1.387 . S
C539 H524 0.930 . S
C539 C534 1.390 . S
C539 C538 1.387 . S
H540 C552 0.930 . S
H541 C554 0.930 1_565 S
H542 C555 0.930 1_565 S
H543 C559 0.959 . S
H544 C559 0.959 . S
H545 C559 0.961 . S
H546 C560 0.960 . S
H547 C560 0.961 . S
H548 C560 0.959 . S
H549 C563 0.929 . S
H550 C564 0.931 1_565 S
H551 C566 0.930 . S
C552 H540 0.930 . S
C552 C553 1.399 . S
C552 C557 1.399 . S
C553 C552 1.399 . S
C553 C554 1.376 . S
C554 H541 0.930 1_545 S
C554 C553 1.376 . S
C554 C555 1.388 . S
C555 H542 0.930 1_545 S
C555 C554 1.388 . S
C555 C556 1.390 . S
C556 C555 1.390 . S
C556 C557 1.394 . S
C556 C562 1.465 . S
C557 C552 1.399 . S
C557 C556 1.394 . S
C557 C558 1.516 . S
C558 C557 1.516 . S
C558 C559 1.502 . S
C558 C560 1.561 . S
C558 C561 1.526 . S
C559 H543 0.959 . S
C559 H544 0.959 . S
C559 H545 0.961 . S
C559 C558 1.502 . S
C560 H546 0.960 . S
C560 H547 0.961 . S
C560 H548 0.959 . S
C560 C558 1.561 . S
C561 C558 1.526 . S
C561 C562 1.396 . S
C561 C566 1.390 . S
C562 C556 1.465 . S
C562 C561 1.396 . S
C562 C563 1.399 1_545 S
C563 H549 0.929 . S
C563 C562 1.399 1_565 S
C563 C564 1.385 1_565 S
C564 H550 0.931 1_545 S
C564 C563 1.385 1_545 S
C564 C565 1.389 . S
C565 C564 1.389 . S
C565 C566 1.387 . S
C566 H551 0.930 . S
C566 C561 1.390 . S
C566 C565 1.387 . S
H567 C579 0.930 . S
H568 C581 0.930 . S
H569 C582 0.930 . S
H570 C586 0.959 . S
H571 C586 0.959 . S
H572 C586 0.961 . S
H573 C587 0.960 . S
H574 C587 0.961 . S
H575 C587 0.959 . S
H576 C590 0.929 . S
H577 C591 0.931 . S
H578 C593 0.930 . S
C579 H567 0.930 . S
C579 C580 1.399 . S
C579 C584 1.399 . S
C580 C579 1.399 . S
C580 C581 1.376 . S
C581 H568 0.930 . S
C581 C580 1.376 . S
C581 C582 1.388 . S
C582 H569 0.930 . S
C582 C581 1.388 . S
C582 C583 1.390 . S
C583 C582 1.390 . S
C583 C584 1.394 . S
C583 C589 1.465 . S
C584 C579 1.399 . S
C584 C583 1.394 . S
C584 C585 1.516 . S
C585 C584 1.516 . S
C585 C586 1.502 . S
C585 C587 1.561 . S
C585 C588 1.526 1_556 S
C586 H570 0.959 . S
C586 H571 0.959 . S
C586 H572 0.961 . S
C586 C585 1.502 . S
C587 H573 0.960 . S
C587 H574 0.961 . S
C587 H575 0.959 . S
C587 C585 1.561 . S
C588 C585 1.526 1_554 S
C588 C589 1.396 1_554 S
C588 C593 1.390 . S
C589 C583 1.465 . S
C589 C588 1.396 1_556 S
C589 C590 1.399 1_556 S
C590 H576 0.929 . S
C590 C589 1.399 1_554 S
C590 C591 1.385 . S
C591 H577 0.931 . S
C591 C590 1.385 . S
C591 C592 1.389 . S
C592 C591 1.389 . S
C592 C593 1.387 . S
C593 H578 0.930 . S
C593 C588 1.390 . S
C593 C592 1.387 . S
H594 C606 0.930 . S
H595 C608 0.930 . S
H596 C609 0.930 . S
H597 C613 0.959 . S
H598 C613 0.959 . S
H599 C613 0.961 . S
H600 C614 0.960 . S
H601 C614 0.961 . S
H602 C614 0.959 . S
H603 C617 0.929 . S
H604 C618 0.931 . S
H605 C620 0.930 . S
C606 H594 0.930 . S
C606 C607 1.399 . S
C606 C611 1.399 . S
C607 C606 1.399 . S
C607 C608 1.376 1_455 S
C608 H595 0.930 . S
C608 C607 1.376 1_655 S
C608 C609 1.388 . S
C609 H596 0.930 . S
C609 C608 1.388 . S
C609 C610 1.390 1_655 S
C610 C609 1.390 1_455 S
C610 C611 1.394 . S
C610 C616 1.465 . S
C611 C606 1.399 . S
C611 C610 1.394 . S
C611 C612 1.516 . S
C612 C611 1.516 . S
C612 C613 1.502 . S
C612 C614 1.561 . S
C612 C615 1.526 . S
C613 H597 0.959 . S
C613 H598 0.959 . S
C613 H599 0.961 . S
C613 C612 1.502 . S
C614 H600 0.960 . S
C614 H601 0.961 . S
C614 H602 0.959 . S
C614 C612 1.561 . S
C615 C612 1.526 . S
C615 C616 1.396 . S
C615 C620 1.390 . S
C616 C610 1.465 . S
C616 C615 1.396 . S
C616 C617 1.399 1_455 S
C617 H603 0.929 . S
C617 C616 1.399 1_655 S
C617 C618 1.385 . S
C618 H604 0.931 . S
C618 C617 1.385 . S
C618 C619 1.389 1_655 S
C619 C618 1.389 1_455 S
C619 C620 1.387 . S
C620 H605 0.930 . S
C620 C615 1.390 . S
C620 C619 1.387 . S
C148 C20 1.305 . S
C160 N128 1.290 . S
C175 C41 1.309 . S
C187 N106 1.308 . S
C202 C64 1.335 . S
C214 N117 1.308 . S
C229 C19 1.211 . S
C241 C130 1.346 . S
C268 C108 1.308 . S
C256 C44 1.247 . S
C295 C119 1.266 . S
C283 C67 1.217 . S
C310 C43 1.257 . S
C322 N84 1.309 . S
C337 C66 1.149 . S
C349 C97 1.251 1_655 S
C364 C21 1.245 . S
C376 C75 1.307 1_565 S
C403 C86 1.298 . S
C391 C42 1.288 . S
C430 N95 1.321 . S
C418 C65 1.303 . S
C445 C18 1.307 . S
C457 N73 1.318 . S
C484 C100 1.500 . S
C472 C17 1.524 . S
C499 C39 1.517 . S
C511 C78 1.505 . S
C526 C62 1.515 . S
C538 C89 1.530 . S
C565 C122 1.502 . S
C553 C40 1.512 . S
C592 C133 1.494 . S
C580 C63 1.514 . S
C607 C16 1.509 . S
C619 C111 1.526 . S
