# Generated by pormake.
# Topology pts, (4,4)-cn, num edge types: 1
# Building blocks:
#     Node 0, Type 0, BuildingBlock: MUDLON_clean_linker_0, # of connection points: 4
#     Node 1, Type 0, BuildingBlock: MUDLON_clean_linker_0, # of connection points: 4
#     Node 2, Type 1, BuildingBlock: UXUYUI_clean_sbu_0, # of connection points: 4
#     Node 3, Type 1, BuildingBlock: UXUYUI_clean_sbu_0, # of connection points: 4
#     Edge 4, Type (0, 1), BuildingBlock: UVAHIK_clean_linker_0, # of connection points: 2
#     Edge 5, Type (0, 1), BuildingBlock: UVAHIK_clean_linker_0, # of connection points: 2
#     Edge 6, Type (0, 1), BuildingBlock: UVAHIK_clean_linker_0, # of connection points: 2
#     Edge 7, Type (0, 1), BuildingBlock: UVAHIK_clean_linker_0, # of connection points: 2
#     Edge 8, Type (0, 1), BuildingBlock: UVAHIK_clean_linker_0, # of connection points: 2
#     Edge 9, Type (0, 1), BuildingBlock: UVAHIK_clean_linker_0, # of connection points: 2
#     Edge 10, Type (0, 1), BuildingBlock: UVAHIK_clean_linker_0, # of connection points: 2
#     Edge 11, Type (0, 1), BuildingBlock: UVAHIK_clean_linker_0, # of connection points: 2
# Relax obj value: 0.011
# Max RMSD: 0.056
# Mean RMSD: 0.052
data_MOF--net-pts--node1-UXUYUI_clean_sbu_0--node2-MUDLON_clean_linker_0--edge1-UVAHIK_clean_linker_0
_symmetry_space_group_name_H-M    P1
_symmetry_Int_Tables_number       1
_symmetry_cell_setting            triclinic
loop_
_symmetry_equiv_pos_as_xyz
'x, y, z'
_cell_length_a     48.038808
_cell_length_b     48.039713
_cell_length_c     61.455085
_cell_angle_alpha  89.961095
_cell_angle_beta   90.024154
_cell_angle_gamma 90.009143
loop_
_atom_site_label
_atom_site_type_symbol
_atom_site_fract_x
_atom_site_fract_y
_atom_site_fract_z
_atom_type_partial_charge
H0 H 0.61975 0.07024 0.03796 0.0
N1 N 0.60071 0.03545 0.00794 0.0
H2 H 0.65026 0.05898 0.06862 0.0
H3 H 0.61287 0.98308 0.02246 0.0
H4 H 0.64276 0.97151 0.05326 0.0
H5 H 0.60815 0.98802 0.98431 0.0
H6 H 0.64295 0.9813 0.95564 0.0
H7 H 0.62965 0.07487 0.98806 0.0
H8 H 0.66336 0.0689 0.95866 0.0
H9 H 0.56834 0.07806 0.99807 0.0
H10 H 0.5661 0.9907 0.01365 0.0
H11 H 0.51768 0.07895 0.99583 0.0
H12 H 0.5152 0.99155 0.01277 0.0
H13 H 0.35527 0.07988 0.01636 0.0
H14 H 0.32408 0.07279 0.04722 0.0
H15 H 0.36343 0.99355 0.06024 0.0
H16 H 0.39407 0.00065 0.02883 0.0
H17 H 0.36679 0.9953 0.99257 0.0
H18 H 0.3378 0.98481 0.96125 0.0
H19 H 0.36206 0.06299 0.93177 0.0
H20 H 0.38928 0.07417 0.9642 0.0
H21 H 0.42852 0.08184 0.01636 0.0
H22 H 0.47902 0.07801 0.01881 0.0
H23 H 0.4747 0.99555 0.99073 0.0
N24 N 0.3929 0.04492 0.0008 0.0
H25 H 0.42388 0.99912 0.98962 0.0
C26 C 0.61403 0.02762 0.02798 0.0
C27 C 0.62417 0.04863 0.04161 0.0
C28 C 0.64155 0.04211 0.05913 0.0
C29 C 0.64914 0.01433 0.06328 0.0
C30 C 0.63763 0.99314 0.0503 0.0
C31 C 0.62028 0.99972 0.03277 0.0
C32 C 0.61684 0.03188 0.98848 0.0
C33 C 0.62003 0.00573 0.97863 0.0
C34 C 0.63977 0.00201 0.96212 0.0
C35 C 0.65638 0.02447 0.95512 0.0
C36 C 0.65152 0.05099 0.96405 0.0
C37 C 0.63208 0.05456 0.98065 0.0
C38 C 0.5709 0.03455 0.00634 0.0
C39 C 0.55677 0.05911 0.00118 0.0
C40 C 0.52779 0.05958 0.00014 0.0
C41 C 0.51216 0.03544 0.00455 0.0
C42 C 0.52647 0.01053 0.00921 0.0
C43 C 0.55564 0.01004 0.00994 0.0
C44 C 0.37695 0.04096 0.0204 0.0
C45 C 0.35734 0.06119 0.0261 0.0
C46 C 0.33967 0.05711 0.04381 0.0
C47 C 0.34128 0.03261 0.0563 0.0
C48 C 0.36146 0.01253 0.05085 0.0
C49 C 0.37915 0.01664 0.03303 0.0
C50 C 0.37958 0.03597 0.98096 0.0
C51 C 0.3659 0.01018 0.97938 0.0
C52 C 0.34951 0.00405 0.96121 0.0
C53 C 0.34702 0.02325 0.94397 0.0
C54 C 0.36263 0.04806 0.94496 0.0
C55 C 0.3785 0.0544 0.96335 0.0
C56 C 0.42255 0.04108 0.00251 0.0
C57 C 0.43854 0.06291 0.01087 0.0
C58 C 0.46744 0.06072 0.01204 0.0
C59 C 0.48114 0.03667 0.00453 0.0
C60 C 0.46494 0.01435 0.99671 0.0
C61 C 0.43585 0.01644 0.99587 0.0
H62 H 0.97871 0.61965 0.51463 0.0
N63 N 0.02753 0.59274 0.50505 0.0
H64 H 0.97138 0.65311 0.54374 0.0
H65 H 0.06229 0.60486 0.53738 0.0
H66 H 0.05543 0.63913 0.56639 0.0
H67 H 0.07017 0.61855 0.48655 0.0
H68 H 0.06893 0.65053 0.45562 0.0
H69 H 0.98267 0.60193 0.47855 0.0
H70 H 0.98075 0.63498 0.44827 0.0
H71 H 0.98016 0.57069 0.52453 0.0
H72 H 0.05028 0.55074 0.48347 0.0
H73 H 0.96529 0.52268 0.52357 0.0
H74 H 0.03441 0.5026 0.48134 0.0
H75 H 0.92594 0.35685 0.5155 0.0
H76 H 0.92824 0.32569 0.54674 0.0
H77 H 0.003 0.36745 0.56851 0.0
H78 H 0.00149 0.39713 0.53669 0.0
H79 H 0.01195 0.36386 0.50001 0.0
H80 H 0.0241 0.33062 0.47154 0.0
H81 H 0.94833 0.35122 0.4372 0.0
H82 H 0.93651 0.38482 0.46573 0.0
H83 H 0.93119 0.4385 0.50357 0.0
H84 H 0.94534 0.48738 0.50271 0.0
H85 H 0.0317 0.46182 0.50167 0.0
N86 N 0.96355 0.39377 0.50281 0.0
H87 H 0.01722 0.41338 0.50121 0.0
C88 C 0.02115 0.60959 0.52385 0.0
C89 C 0.99544 0.62336 0.52603 0.0
C90 C 0.99133 0.64271 0.54264 0.0
C91 C 0.01292 0.64909 0.55727 0.0
C92 C 0.03825 0.63454 0.55556 0.0
C93 C 0.04226 0.61499 0.53899 0.0
C94 C 0.02657 0.60818 0.48495 0.0
C95 C 0.05075 0.62167 0.47792 0.0
C96 C 0.04988 0.64015 0.46041 0.0
C97 C 0.02461 0.64581 0.44971 0.0
C98 C 0.00058 0.6311 0.45607 0.0
C99 C 0.00157 0.61234 0.47349 0.0
C100 C 0.01673 0.56464 0.50412 0.0
C101 C 0.99233 0.55626 0.51503 0.0
C102 C 0.98357 0.52851 0.51434 0.0
C103 C 0.99863 0.50851 0.50244 0.0
C104 C 0.02256 0.51714 0.4911 0.0
C105 C 0.03155 0.54475 0.4921 0.0
C106 C 0.96335 0.37943 0.52352 0.0
C107 C 0.94254 0.35954 0.52725 0.0
C108 C 0.94388 0.3418 0.54522 0.0
C109 C 0.96597 0.34379 0.5602 0.0
C110 C 0.98603 0.36479 0.5571 0.0
C111 C 0.98496 0.38219 0.53888 0.0
C112 C 0.97317 0.37679 0.48498 0.0
C113 C 0.99823 0.36169 0.48616 0.0
C114 C 0.00504 0.3425 0.46995 0.0
C115 C 0.98705 0.3381 0.45223 0.0
C116 C 0.96274 0.35428 0.45055 0.0
C117 C 0.9559 0.3734 0.46682 0.0
C118 C 0.97299 0.42228 0.50261 0.0
C119 C 0.95314 0.44359 0.50308 0.0
C120 C 0.96134 0.47151 0.50275 0.0
C121 C 0.98974 0.47875 0.50221 0.0
C122 C 0.00964 0.45722 0.5017 0.0
C123 C 0.00137 0.42934 0.50165 0.0
Li124 Li 0.00025 0.0174 0.27019 0.0
Li125 Li 0.9994 0.96634 0.26762 0.0
Li126 Li 0.02368 0.99466 0.23892 0.0
Li127 Li 0.97259 0.99214 0.24157 0.0
C128 C 0.05672 0.99927 0.27984 0.0
N129 N 0.10646 0.01545 0.29863 0.0
C130 C 0.06601 0.98652 0.29897 0.0
C131 C 0.07294 0.01999 0.27013 0.0
C132 C 0.09114 0.99508 0.30826 0.0
C133 C 0.09796 0.02794 0.2799 0.0
C134 C 0.95513 0.97968 0.29099 0.0
C135 C 0.92708 0.94281 0.3061 0.0
N136 N 0.9307 0.9538 0.3263 0.0
C137 C 0.95845 0.99072 0.31187 0.0
C138 C 0.93918 0.95565 0.28803 0.0
C139 C 0.94596 0.97729 0.32952 0.0
C140 C 0.98263 0.06997 0.28395 0.0
N141 N 0.00072 0.04911 0.28876 0.0
C142 C 0.01916 0.07514 0.31859 0.0
C143 C 0.01855 0.05108 0.30587 0.0
C144 C 0.00102 0.09729 0.31381 0.0
C145 C 0.98243 0.09436 0.29629 0.0
H146 H 0.96848 0.06771 0.27036 0.0
H147 H 0.03239 0.03408 0.30965 0.0
C148 C 0.99973 0.908 0.27402 0.0
N149 N 0.00145 0.93297 0.2843 0.0
C150 C 0.0011 0.88326 0.28593 0.0
C151 C 0.00602 0.91044 0.31879 0.0
C152 C 0.00466 0.93462 0.30624 0.0
C153 C 0.00433 0.88427 0.30865 0.0
H154 H 0.99752 0.90726 0.25653 0.0
H155 H 0.00605 0.95475 0.314 0.0
C156 C 0.00274 0.0505 0.22893 0.0
N157 N 0.0155 0.10077 0.20941 0.0
C158 C 0.98928 0.05852 0.20976 0.0
C159 C 0.02245 0.06824 0.23831 0.0
C160 C 0.9961 0.08396 0.20009 0.0
C161 C 0.02867 0.09351 0.22816 0.0
C162 C 0.98763 0.94823 0.21819 0.0
C163 C 0.99883 0.95173 0.19738 0.0
C164 C 0.96406 0.93156 0.22106 0.0
C165 C 0.98601 0.9387 0.17969 0.0
C166 C 0.95182 0.91894 0.20295 0.0
N167 N 0.96295 0.92276 0.18282 0.0
C168 C 0.07658 0.97826 0.22469 0.0
C169 C 0.05725 0.01511 0.20395 0.0
C170 C 0.10118 0.97935 0.2126 0.0
N171 N 0.05542 0.99623 0.22037 0.0
C172 C 0.08155 0.01714 0.19162 0.0
C173 C 0.10399 0.99928 0.19603 0.0
H174 H 0.0745 0.96341 0.23784 0.0
H175 H 0.04001 0.02876 0.20046 0.0
C176 C 0.91422 0.99102 0.23559 0.0
N177 N 0.93901 0.99291 0.22505 0.0
C178 C 0.88931 0.99091 0.22385 0.0
C179 C 0.91594 0.99488 0.19063 0.0
C180 C 0.94029 0.9951 0.20302 0.0
C181 C 0.89 0.99269 0.20104 0.0
H182 H 0.91376 0.98953 0.25313 0.0
H183 H 0.96026 0.99689 0.19505 0.0
O184 O 0.03214 0.99107 0.27056 0.0
O185 O 0.96748 0.99234 0.27356 0.0
O186 O 0.99626 0.02562 0.23857 0.0
O187 O 0.99969 0.96108 0.23566 0.0
H188 H 0.05392 0.97026 0.30661 0.0
H189 H 0.06652 0.02964 0.25508 0.0
H190 H 0.09849 0.98548 0.32312 0.0
H191 H 0.11069 0.04397 0.27255 0.0
H192 H 0.91485 0.92408 0.30407 0.0
H193 H 0.97069 0.00934 0.31443 0.0
H194 H 0.93644 0.94685 0.27197 0.0
H195 H 0.94845 0.98551 0.34579 0.0
H196 H 0.034 0.07649 0.33181 0.0
H197 H 0.9677 0.11062 0.29224 0.0
H198 H 0.00015 0.86358 0.27738 0.0
H199 H 0.00815 0.91226 0.33627 0.0
H200 H 0.97379 0.04524 0.20236 0.0
H201 H 0.03263 0.06279 0.25338 0.0
H202 H 0.98593 0.09034 0.18519 0.0
H203 H 0.04389 0.10741 0.23525 0.0
H204 H 0.01709 0.96453 0.1949 0.0
H205 H 0.95513 0.92867 0.23706 0.0
H206 H 0.99436 0.94133 0.16348 0.0
H207 H 0.93345 0.90617 0.20489 0.0
H208 H 0.11806 0.96528 0.21653 0.0
H209 H 0.08276 0.03247 0.17872 0.0
H210 H 0.86977 0.98903 0.23251 0.0
H211 H 0.9174 0.99672 0.1731 0.0
Li212 Li 0.9732 0.99602 0.76919 0.0
Li213 Li 0.02438 0.99549 0.7672 0.0
Li214 Li 0.99541 0.02194 0.73957 0.0
Li215 Li 0.99821 0.97069 0.739 0.0
C216 C 0.98979 0.04517 0.78748 0.0
N217 N 0.97008 0.07961 0.81999 0.0
C218 C 0.00162 0.04424 0.80824 0.0
C219 C 0.96826 0.06393 0.78314 0.0
C220 C 0.99127 0.06173 0.82449 0.0
C221 C 0.95849 0.08107 0.79982 0.0
C222 C 0.0107 0.94418 0.78429 0.0
C223 C 0.04638 0.90999 0.79124 0.0
N224 N 0.0357 0.90576 0.81147 0.0
C225 C 0.99991 0.93929 0.80506 0.0
C226 C 0.03396 0.92925 0.77723 0.0
C227 C 0.01291 0.91985 0.81859 0.0
C228 C 0.91607 0.99163 0.77944 0.0
N229 N 0.9418 0.99521 0.78821 0.0
C230 C 0.92233 0.9983 0.82392 0.0
C231 C 0.94534 0.99811 0.81003 0.0
C232 C 0.89539 0.99536 0.81526 0.0
C233 C 0.89248 0.9918 0.79268 0.0
H234 H 0.91379 0.98868 0.76212 0.0
H235 H 0.96604 0.00013 0.8167 0.0
C236 C 0.08136 0.00613 0.77303 0.0
N237 N 0.05838 0.99603 0.78326 0.0
C238 C 0.10697 0.00681 0.78379 0.0
C239 C 0.08483 0.98663 0.81539 0.0
C240 C 0.05956 0.98679 0.80416 0.0
C241 C 0.10891 0.99674 0.80517 0.0
H242 H 0.07979 0.01369 0.75651 0.0
H243 H 0.04089 0.9797 0.8122 0.0
C244 C 0.94447 0.00446 0.72373 0.0
N245 N 0.90452 0.02499 0.69561 0.0
C246 C 0.94002 0.99169 0.7036 0.0
C247 C 0.92838 0.02748 0.72966 0.0
C248 C 0.91977 0.00242 0.68958 0.0
C249 C 0.90835 0.0376 0.71519 0.0
C250 C 0.04568 0.98952 0.71853 0.0
C251 C 0.04304 0.00118 0.69779 0.0
C252 C 0.06588 0.96915 0.7223 0.0
C253 C 0.06026 0.99179 0.68101 0.0
C254 C 0.0827 0.9603 0.7051 0.0
N255 N 0.07954 0.97168 0.68498 0.0
C256 C 0.00357 0.079 0.73194 0.0
C257 C 0.98297 0.05537 0.70217 0.0
C258 C 0.00235 0.10425 0.7207 0.0
N259 N 0.99369 0.05528 0.72266 0.0
C260 C 0.98086 0.08023 0.6905 0.0
C261 C 0.99056 0.10506 0.69981 0.0
H262 H 0.01234 0.0783 0.74814 0.0
H263 H 0.97611 0.03618 0.6948 0.0
C264 C 0.99379 0.91317 0.73099 0.0
N265 N 0.99791 0.93819 0.72116 0.0
C266 C 0.9941 0.88866 0.71882 0.0
C267 C 0.00202 0.91611 0.68645 0.0
C268 C 0.00156 0.9401 0.69927 0.0
C269 C 0.99844 0.8899 0.69624 0.0
H270 H 0.99011 0.9122 0.7483 0.0
H271 H 0.00397 0.96024 0.69171 0.0
O272 O 0.99958 0.02811 0.77139 0.0
O273 O 0.99842 0.96337 0.77091 0.0
O274 O 0.96434 0.99433 0.73758 0.0
O275 O 0.02892 0.99839 0.73512 0.0
H276 H 0.01844 0.03 0.81183 0.0
H277 H 0.95928 0.06533 0.76706 0.0
H278 H 1.00009 0.06109 0.84069 0.0
H279 H 0.94175 0.0956 0.79672 0.0
H280 H 0.06448 0.89839 0.78602 0.0
H281 H 0.98176 0.95044 0.81071 0.0
H282 H 0.04229 0.93245 0.76111 0.0
H283 H 0.00487 0.91597 0.83475 0.0
H284 H 0.92567 0.00048 0.84126 0.0
H285 H 0.87217 0.98963 0.78523 0.0
H286 H 0.12513 0.01479 0.7754 0.0
H287 H 0.08545 0.97915 0.83202 0.0
H288 H 0.9521 0.97372 0.69882 0.0
H289 H 0.9313 0.03737 0.74527 0.0
H290 H 0.91619 0.99282 0.67392 0.0
H291 H 0.89584 0.05547 0.71954 0.0
H292 H 0.02769 0.01712 0.69462 0.0
H293 H 0.06867 0.96037 0.73834 0.0
H294 H 0.05828 0.00047 0.66484 0.0
H295 H 0.09832 0.94445 0.70777 0.0
H296 H 0.01007 0.12302 0.72838 0.0
H297 H 0.97209 0.07999 0.67426 0.0
H298 H 0.99061 0.86898 0.72698 0.0
H299 H 0.00549 0.91807 0.66911 0.0
C300 C 0.3087 0.00129 0.07702 0.0
C301 C 0.32093 0.02766 0.07414 0.0
C302 C 0.28737 0.99745 0.09222 0.0
C303 C 0.23161 0.03654 0.1184 0.0
H304 H 0.2257 0.97305 0.15711 0.0
C305 C 0.14224 0.02818 0.18015 0.0
C306 C 0.13032 0.00187 0.18363 0.0
C307 C 0.16678 0.03088 0.16818 0.0
C308 C 0.22686 0.99073 0.14621 0.0
H309 H 0.32148 0.07019 0.086 0.0
H310 H 0.28397 0.06354 0.1122 0.0
H311 H 0.26679 0.97824 0.134 0.0
H312 H 0.13476 0.95771 0.17744 0.0
H313 H 0.17729 0.96241 0.15597 0.0
H314 H 0.19153 0.04875 0.12992 0.0
C315 C 0.29067 0.04597 0.10249 0.0
C316 C 0.25046 0.99373 0.13306 0.0
C317 C 0.31211 0.04976 0.08745 0.0
C318 C 0.14362 0.97824 0.17511 0.0
C319 C 0.16805 0.98095 0.1629 0.0
C320 C 0.20796 0.03342 0.13134 0.0
C321 C 0.2777 0.01992 0.10473 0.0
C322 C 0.25309 0.01673 0.11908 0.0
C323 C 0.17986 0.00735 0.15916 0.0
C324 C 0.20526 0.01053 0.14548 0.0
H325 H 0.31475 0.98387 0.0669 0.0
H326 H 0.27761 0.97718 0.0935 0.0
H327 H 0.23282 0.0542 0.10747 0.0
H328 H 0.13268 0.0467 0.18686 0.0
H329 H 0.17557 0.05147 0.1661 0.0
C330 C 0.99563 0.31334 0.5842 0.0
C331 C 0.96907 0.32284 0.57798 0.0
C332 C 0.99858 0.29207 0.59953 0.0
C333 C 0.95942 0.25044 0.64094 0.0
H334 H 0.01835 0.19694 0.63039 0.0
C335 C 0.96307 0.1397 0.67827 0.0
C336 C 0.98845 0.13164 0.68772 0.0
C337 C 0.96111 0.16459 0.66659 0.0
C338 C 0.00197 0.21187 0.63364 0.0
H339 H 0.9248 0.31792 0.58397 0.0
H340 H 0.92987 0.27988 0.60966 0.0
H341 H 0.01406 0.23754 0.60692 0.0
H342 H 0.03165 0.14309 0.69241 0.0
H343 H 0.02838 0.18643 0.67147 0.0
H344 H 0.94671 0.22373 0.66711 0.0
C345 C 0.94853 0.28927 0.60306 0.0
C346 C 0.99955 0.23528 0.62028 0.0
C347 C 0.94559 0.31089 0.58799 0.0
C348 C 0.01183 0.14893 0.68534 0.0
C349 C 0.01 0.17359 0.67332 0.0
C350 C 0.96157 0.22674 0.65407 0.0
C351 C 0.97507 0.27928 0.60883 0.0
C352 C 0.9782 0.25489 0.62369 0.0
C353 C 0.98462 0.18162 0.66384 0.0
C354 C 0.98283 0.20723 0.65049 0.0
H355 H 0.01426 0.32167 0.57674 0.0
H356 H 0.0194 0.28543 0.60386 0.0
H357 H 0.94303 0.26526 0.64437 0.0
H358 H 0.94472 0.12678 0.68 0.0
H359 H 0.94137 0.17024 0.6593 0.0
C360 C 0.69226 0.98881 0.07463 0.0
C361 C 0.67101 0.00788 0.07965 0.0
C362 C 0.71458 0.98483 0.08885 0.0
C363 C 0.73879 0.99606 0.1453 0.0
H364 H 0.81187 0.9959 0.11851 0.0
C365 C 0.84063 0.00796 0.19483 0.0
C366 C 0.86387 0.99239 0.18815 0.0
C367 C 0.81632 0.00828 0.18231 0.0
C368 C 0.79164 0.99548 0.12627 0.0
H369 H 0.65595 0.03679 0.10404 0.0
H370 H 0.69518 0.03005 0.12881 0.0
H371 H 0.77057 0.9986 0.09572 0.0
H372 H 0.87949 0.96416 0.1635 0.0
H373 H 0.83705 0.9645 0.14176 0.0
H374 H 0.75997 0.99304 0.17589 0.0
C375 C 0.69446 0.0181 0.11388 0.0
C376 C 0.76794 0.99704 0.11319 0.0
C377 C 0.67212 0.02214 0.09961 0.0
C378 C 0.8621 0.97676 0.16888 0.0
C379 C 0.83778 0.97698 0.15642 0.0
C380 C 0.76255 0.9944 0.15841 0.0
C381 C 0.71621 0.99981 0.10844 0.0
C382 C 0.74124 0.99739 0.12253 0.0
C383 C 0.81467 0.99294 0.16287 0.0
C384 C 0.78927 0.99415 0.14904 0.0
H385 H 0.69226 0.97771 0.0593 0.0
H386 H 0.73082 0.97031 0.08433 0.0
H387 H 0.71849 0.99603 0.15296 0.0
H388 H 0.84147 0.02046 0.20948 0.0
H389 H 0.79907 0.02111 0.1876 0.0
C390 C 0.99591 0.69677 0.56719 0.0
C391 C 0.00959 0.67207 0.57327 0.0
C392 C 0.99362 0.71892 0.58175 0.0
C393 C 0.02671 0.74926 0.63008 0.0
H394 H 0.95839 0.79204 0.63351 0.0
C395 C 0.01249 0.84 0.69086 0.0
C396 C 0.99909 0.86402 0.68301 0.0
C397 C 0.01311 0.81565 0.67844 0.0
C398 C 0.9777 0.78047 0.63259 0.0
H399 H 0.0312 0.65121 0.59964 0.0
H400 H 0.02733 0.69012 0.62508 0.0
H401 H 0.96035 0.75087 0.61038 0.0
H402 H 0.97556 0.88113 0.65601 0.0
H403 H 0.97716 0.83888 0.63414 0.0
H404 H 0.0442 0.77908 0.65204 0.0
C405 C 0.01858 0.69231 0.60893 0.0
C406 C 0.9788 0.75685 0.61937 0.0
C407 C 0.0208 0.67004 0.59436 0.0
C408 C 0.98631 0.8631 0.66244 0.0
C409 C 0.98692 0.83876 0.65003 0.0
C410 C 0.02563 0.77293 0.64327 0.0
C411 C 0.00504 0.71703 0.60274 0.0
C412 C 0.0034 0.74113 0.6178 0.0
C413 C 0.00033 0.81474 0.65787 0.0
C414 C 0.00119 0.78896 0.64452 0.0
H415 H 0.98757 0.69933 0.55094 0.0
H416 H 0.98351 0.73785 0.57633 0.0
H417 H 0.04607 0.7378 0.629 0.0
H418 H 0.0228 0.84009 0.70654 0.0
H419 H 0.02341 0.79746 0.68504 0.0
C420 C 0.31201 0.04096 0.91679 0.0
C421 C 0.32668 0.01843 0.92597 0.0
C422 C 0.29131 0.03649 0.90123 0.0
C423 C 0.23885 0.98686 0.88593 0.0
H424 H 0.23422 0.02851 0.83199 0.0
C425 C 0.14554 0.97335 0.82769 0.0
C426 C 0.13581 0.99721 0.81693 0.0
C427 C 0.17071 0.97395 0.83911 0.0
C428 C 0.23495 0.01695 0.84711 0.0
H429 H 0.33149 0.97345 0.92505 0.0
H430 H 0.29434 0.96573 0.89858 0.0
H431 H 0.27515 0.03342 0.85519 0.0
H432 H 0.1445 0.04046 0.80973 0.0
H433 H 0.18777 0.04202 0.83034 0.0
H434 H 0.19819 0.9715 0.8787 0.0
C435 C 0.29921 0.98683 0.90349 0.0
C436 C 0.25853 0.01962 0.86027 0.0
C437 C 0.32036 0.99131 0.91876 0.0
C438 C 0.15172 0.02169 0.81772 0.0
C439 C 0.17663 0.02246 0.82944 0.0
C440 C 0.21504 0.98455 0.87298 0.0
C441 C 0.28437 0.00938 0.89475 0.0
C442 C 0.26057 0.00478 0.87988 0.0
C443 C 0.18649 0.99862 0.84035 0.0
C444 C 0.2126 0.99979 0.85348 0.0
H445 H 0.31567 0.06209 0.92217 0.0
H446 H 0.2799 0.0542 0.89492 0.0
H447 H 0.23981 0.97546 0.90113 0.0
H448 H 0.13376 0.95412 0.8271 0.0
H449 H 0.1778 0.95501 0.84688 0.0
C450 C 0.98779 0.31903 0.41411 0.0
C451 C 0.99246 0.31529 0.43649 0.0
C452 C 0.99114 0.29683 0.39962 0.0
C453 C 0.02191 0.22597 0.39491 0.0
H454 H 0.96621 0.21635 0.34985 0.0
C455 C 0.0057 0.12214 0.34964 0.0
C456 C 0.00152 0.12327 0.327 0.0
C457 C 0.00626 0.14652 0.36201 0.0
C458 C 0.98211 0.21893 0.36218 0.0
H459 H 0.00422 0.28529 0.46123 0.0
H460 H 0.00979 0.24663 0.43611 0.0
H461 H 0.96471 0.25746 0.37306 0.0
H462 H 0.99506 0.15113 0.29963 0.0
H463 H 0.99553 0.19363 0.32135 0.0
H464 H 0.03884 0.18703 0.38433 0.0
C465 C 0.00417 0.26681 0.42959 0.0
C466 C 0.98132 0.24254 0.37546 0.0
C467 C 0.00096 0.289 0.44403 0.0
C468 C 0.99785 0.14942 0.31707 0.0
C469 C 0.99821 0.1738 0.32948 0.0
C470 C 0.02258 0.2023 0.38173 0.0
C471 C 0.99908 0.27036 0.40723 0.0
C472 C 0.00103 0.24621 0.39215 0.0
C473 C 0.00246 0.1726 0.35208 0.0
C474 C 0.00253 0.19839 0.36537 0.0
H475 H 0.98149 0.33913 0.4078 0.0
H476 H 0.98746 0.30041 0.38246 0.0
H477 H 0.03774 0.22837 0.40732 0.0
H478 H 0.00811 0.10238 0.3579 0.0
H479 H 0.00913 0.14491 0.37945 0.0
C480 C 0.67796 0.00156 0.92222 0.0
C481 C 0.68004 0.02006 0.93988 0.0
C482 C 0.70078 0.99704 0.90849 0.0
C483 C 0.77764 0.00473 0.90689 0.0
H484 H 0.76811 0.99971 0.84436 0.0
C485 C 0.86939 0.0149 0.84726 0.0
C486 C 0.87048 0.99628 0.82963 0.0
C487 C 0.84593 0.01605 0.86063 0.0
C488 C 0.77104 0.00076 0.86182 0.0
H489 H 0.70802 0.04794 0.95707 0.0
H490 H 0.74717 0.04084 0.93285 0.0
H491 H 0.7273 0.00491 0.86773 0.0
H492 H 0.84773 0.96396 0.8125 0.0
H493 H 0.80659 0.96632 0.83573 0.0
H494 H 0.82137 0.00113 0.90096 0.0
C495 C 0.7281 0.02949 0.92971 0.0
C496 C 0.74767 0.00369 0.87521 0.0
C497 C 0.70543 0.03392 0.94342 0.0
C498 C 0.84746 0.97885 0.82572 0.0
C499 C 0.82389 0.98014 0.83903 0.0
C500 C 0.80095 0.00197 0.89352 0.0
C501 C 0.72618 0.01086 0.91217 0.0
C502 C 0.75073 0.00606 0.8979 0.0
C503 C 0.82291 0.99873 0.85665 0.0
C504 C 0.79795 0.00027 0.87083 0.0
H505 H 0.65868 0.99066 0.91895 0.0
H506 H 0.69865 0.9824 0.8952 0.0
H507 H 0.78073 0.00585 0.92432 0.0
H508 H 0.88649 0.02899 0.85052 0.0
H509 H 0.8456 0.03091 0.87388 0.0
C510 C 0.00595 0.6657 0.41457 0.0
C511 C 0.02309 0.66826 0.43304 0.0
C512 C 0.00404 0.68744 0.39945 0.0
C513 C 0.04111 0.75011 0.38027 0.0
H514 H 0.96847 0.77464 0.36052 0.0
C515 C 0.02525 0.85635 0.33908 0.0
C516 C 0.00638 0.85824 0.32166 0.0
C517 C 0.02731 0.83194 0.35131 0.0
C518 C 0.98895 0.7678 0.36561 0.0
H519 H 0.05114 0.69607 0.45023 0.0
H520 H 0.04815 0.73352 0.42378 0.0
H521 H 0.97222 0.7337 0.38393 0.0
H522 H 0.97466 0.83589 0.30358 0.0
H523 H 0.97871 0.79302 0.32466 0.0
H524 H 0.05791 0.78414 0.3621 0.0
C525 C 0.03652 0.71457 0.42081 0.0
C526 C 0.99108 0.74435 0.37902 0.0
C527 C 0.03829 0.69301 0.43595 0.0
C528 C 0.98962 0.83505 0.31675 0.0
C529 C 0.99172 0.81058 0.32899 0.0
C530 C 0.03901 0.77343 0.36681 0.0
C531 C 0.01935 0.71209 0.40242 0.0
C532 C 0.01715 0.73553 0.38677 0.0
C533 C 0.01062 0.80872 0.3464 0.0
C534 C 0.01288 0.78284 0.35959 0.0
H535 H 0.99415 0.64685 0.41172 0.0
H536 H 0.99078 0.68487 0.38533 0.0
H537 H 0.06154 0.74352 0.38568 0.0
H538 H 0.03871 0.87367 0.34316 0.0
H539 H 0.04181 0.83139 0.3648 0.0
loop_
_geom_bond_atom_site_label_1
_geom_bond_atom_site_label_2
_geom_bond_distance
_geom_bond_site_symmetry_2
_ccdc_geom_bond_type
H0 C27 0.929 . S
N1 C26 1.433 . S
N1 C32 1.435 1_554 S
N1 C38 1.426 . S
H2 C28 0.930 . S
H3 C31 0.931 . S
H4 C30 0.929 . S
H5 C33 0.930 . S
H6 C34 0.932 . S
H7 C37 0.929 . S
H8 C36 0.931 . S
H9 C39 0.929 . S
H10 C43 0.932 1_565 S
H11 C40 0.931 . S
H12 C42 0.929 1_565 S
H13 C45 0.929 . S
H14 C46 0.930 . S
H15 C48 0.929 . S
H16 C49 0.931 . S
H17 C51 0.930 . S
H18 C52 0.932 . S
H19 C54 0.931 . S
H20 C55 0.929 . S
H21 C57 0.929 . S
H22 C58 0.931 . S
H23 C60 0.929 1_565 S
N24 C44 1.433 . S
N24 C50 1.435 1_554 S
N24 C56 1.426 . S
H25 C61 0.932 1_565 S
C26 N1 1.433 . S
C26 C27 1.363 . S
C26 C31 1.370 1_545 S
C27 H0 0.929 . S
C27 C26 1.363 . S
C27 C28 1.385 . S
C28 H2 0.930 . S
C28 C27 1.385 . S
C28 C29 1.357 . S
C29 C28 1.357 . S
C29 C30 1.406 1_545 S
C30 H4 0.929 . S
C30 C29 1.406 1_565 S
C30 C31 1.391 . S
C31 H3 0.931 . S
C31 C26 1.370 1_565 S
C31 C30 1.391 . S
C32 N1 1.435 1_556 S
C32 C33 1.358 1_545 S
C32 C37 1.371 . S
C33 H5 0.930 . S
C33 C32 1.358 1_565 S
C33 C34 1.405 . S
C34 H6 0.932 . S
C34 C33 1.405 . S
C34 C35 1.383 1_565 S
C35 C34 1.383 1_545 S
C35 C36 1.393 . S
C36 H8 0.931 . S
C36 C35 1.393 . S
C36 C37 1.382 . S
C37 H7 0.929 . S
C37 C32 1.371 . S
C37 C36 1.382 . S
C38 N1 1.426 . S
C38 C39 1.375 . S
C38 C43 1.374 1_554 S
C39 H9 0.929 . S
C39 C38 1.375 . S
C39 C40 1.376 . S
C40 H11 0.931 . S
C40 C39 1.376 . S
C40 C41 1.396 1_554 S
C41 C40 1.396 1_556 S
C41 C42 1.348 . S
C41 C59 1.472 . S
C42 H12 0.929 1_545 S
C42 C41 1.348 . S
C42 C43 1.443 . S
C43 H10 0.932 1_545 S
C43 C38 1.374 1_556 S
C43 C42 1.443 . S
C44 N24 1.433 . S
C44 C45 1.363 . S
C44 C49 1.370 1_545 S
C45 H13 0.929 . S
C45 C44 1.363 . S
C45 C46 1.385 . S
C46 H14 0.930 . S
C46 C45 1.385 . S
C46 C47 1.357 . S
C47 C46 1.357 . S
C47 C48 1.406 1_545 S
C48 H15 0.929 . S
C48 C47 1.406 1_565 S
C48 C49 1.391 . S
C49 H16 0.931 . S
C49 C44 1.370 1_565 S
C49 C48 1.391 . S
C50 N24 1.435 1_556 S
C50 C51 1.358 1_545 S
C50 C55 1.371 . S
C51 H17 0.930 . S
C51 C50 1.358 1_565 S
C51 C52 1.405 . S
C52 H18 0.932 . S
C52 C51 1.405 . S
C52 C53 1.383 1_565 S
C53 C52 1.383 1_545 S
C53 C54 1.393 . S
C54 H19 0.931 . S
C54 C53 1.393 . S
C54 C55 1.382 . S
C55 H20 0.929 . S
C55 C50 1.371 . S
C55 C54 1.382 . S
C56 N24 1.426 . S
C56 C57 1.375 . S
C56 C61 1.374 1_554 S
C57 H21 0.929 . S
C57 C56 1.375 . S
C57 C58 1.376 . S
C58 H22 0.931 . S
C58 C57 1.376 . S
C58 C59 1.396 1_554 S
C59 C41 1.472 . S
C59 C58 1.396 1_556 S
C59 C60 1.348 . S
C60 H23 0.929 1_545 S
C60 C59 1.348 . S
C60 C61 1.443 . S
C61 H25 0.932 1_545 S
C61 C56 1.374 1_556 S
C61 C60 1.443 . S
H62 C89 0.929 . S
N63 C88 1.433 . S
N63 C94 1.435 . S
N63 C100 1.423 . S
H64 C90 0.930 . S
H65 C93 0.931 . S
H66 C92 0.929 . S
H67 C95 0.930 . S
H68 C96 0.932 . S
H69 C99 0.929 . S
H70 C98 0.931 . S
H71 C101 0.929 . S
H72 C105 0.932 1_455 S
H73 C102 0.931 . S
H74 C104 0.929 1_455 S
H75 C107 0.929 . S
H76 C108 0.930 . S
H77 C110 0.929 . S
H78 C111 0.931 . S
H79 C113 0.930 . S
H80 C114 0.932 . S
H81 C116 0.931 . S
H82 C117 0.929 . S
H83 C119 0.929 . S
H84 C120 0.931 . S
H85 C122 0.929 1_455 S
N86 C106 1.433 . S
N86 C112 1.435 . S
N86 C118 1.423 . S
H87 C123 0.932 1_455 S
C88 N63 1.433 . S
C88 C89 1.363 . S
C88 C93 1.370 1_655 S
C89 H62 0.929 . S
C89 C88 1.363 . S
C89 C90 1.385 . S
C90 H64 0.930 . S
C90 C89 1.385 . S
C90 C91 1.357 . S
C91 C90 1.357 . S
C91 C92 1.406 1_655 S
C92 H66 0.929 . S
C92 C91 1.406 1_455 S
C92 C93 1.391 . S
C93 H65 0.931 . S
C93 C88 1.370 1_455 S
C93 C92 1.391 . S
C94 N63 1.435 . S
C94 C95 1.358 1_655 S
C94 C99 1.371 . S
C95 H67 0.930 . S
C95 C94 1.358 1_455 S
C95 C96 1.405 . S
C96 H68 0.932 . S
C96 C95 1.405 . S
C96 C97 1.383 1_455 S
C97 C96 1.383 1_655 S
C97 C98 1.393 . S
C98 H70 0.931 . S
C98 C97 1.393 . S
C98 C99 1.382 . S
C99 H69 0.929 . S
C99 C94 1.371 . S
C99 C98 1.382 . S
C100 N63 1.423 . S
C100 C101 1.362 . S
C100 C105 1.388 . S
C101 H71 0.929 . S
C101 C100 1.362 . S
C101 C102 1.376 . S
C102 H73 0.931 . S
C102 C101 1.376 . S
C102 C103 1.396 . S
C103 C102 1.396 . S
C103 C104 1.348 . S
C103 C121 1.472 . S
C104 H74 0.929 1_655 S
C104 C103 1.348 . S
C104 C105 1.443 . S
C105 H72 0.932 1_655 S
C105 C100 1.388 . S
C105 C104 1.443 . S
C106 N86 1.433 . S
C106 C107 1.363 . S
C106 C111 1.370 1_655 S
C107 H75 0.929 . S
C107 C106 1.363 . S
C107 C108 1.385 . S
C108 H76 0.930 . S
C108 C107 1.385 . S
C108 C109 1.357 . S
C109 C108 1.357 . S
C109 C110 1.406 1_655 S
C110 H77 0.929 . S
C110 C109 1.406 1_455 S
C110 C111 1.391 . S
C111 H78 0.931 . S
C111 C106 1.370 1_455 S
C111 C110 1.391 . S
C112 N86 1.435 . S
C112 C113 1.358 1_655 S
C112 C117 1.371 . S
C113 H79 0.930 . S
C113 C112 1.358 1_455 S
C113 C114 1.405 . S
C114 H80 0.932 . S
C114 C113 1.405 . S
C114 C115 1.383 1_455 S
C115 C114 1.383 1_655 S
C115 C116 1.393 . S
C116 H81 0.931 . S
C116 C115 1.393 . S
C116 C117 1.382 . S
C117 H82 0.929 . S
C117 C112 1.371 . S
C117 C116 1.382 . S
C118 N86 1.423 . S
C118 C119 1.362 . S
C118 C123 1.388 . S
C119 H83 0.929 . S
C119 C118 1.362 . S
C119 C120 1.376 . S
C120 H84 0.931 . S
C120 C119 1.376 . S
C120 C121 1.396 . S
C121 C103 1.472 . S
C121 C120 1.396 . S
C121 C122 1.348 . S
C122 H85 0.929 1_655 S
C122 C121 1.348 . S
C122 C123 1.443 . S
C123 H87 0.932 1_655 S
C123 C118 1.388 . S
C123 C122 1.443 . S
Li124 N141 1.990 . S
Li124 O184 1.956 1_545 S
Li124 O185 1.970 1_455 S
Li124 O186 1.961 1_455 S
Li125 N149 1.990 . S
Li125 O184 1.970 1_655 S
Li125 O185 1.956 1_565 S
Li125 O187 1.961 1_655 S
Li126 N171 1.990 . S
Li126 O184 1.961 1_545 S
Li126 O186 1.956 1_455 S
Li126 O187 1.970 1_545 S
Li127 N177 1.990 . S
Li127 O185 1.961 1_565 S
Li127 O186 1.970 1_565 S
Li127 O187 1.956 1_655 S
C128 C130 1.348 1_545 S
C128 C131 1.356 . S
C128 O184 1.325 1_545 S
N129 C132 1.314 1_545 S
N129 C133 1.279 . S
C130 C128 1.348 1_565 S
C130 C132 1.353 . S
C130 H188 0.929 . S
C131 C128 1.356 . S
C131 C133 1.358 . S
C131 H189 0.930 . S
C132 N129 1.314 1_565 S
C132 C130 1.353 . S
C132 H190 0.930 . S
C133 N129 1.279 . S
C133 C131 1.358 . S
C133 H191 0.930 . S
C134 C137 1.348 . S
C134 C138 1.356 1_545 S
C134 O185 1.325 . S
C135 N136 1.279 . S
C135 C138 1.358 . S
C135 H192 0.930 . S
N136 C135 1.279 . S
N136 C139 1.314 1_565 S
C137 C134 1.348 . S
C137 C139 1.353 . S
C137 H193 0.929 . S
C138 C134 1.356 1_565 S
C138 C135 1.358 . S
C138 H194 0.930 . S
C139 N136 1.314 1_545 S
C139 C137 1.353 . S
C139 H195 0.930 . S
C140 N141 1.314 1_655 S
C140 C145 1.353 . S
C140 H146 0.930 . S
N141 Li124 1.990 . S
N141 C140 1.314 1_455 S
N141 C143 1.279 . S
C142 C143 1.358 . S
C142 C144 1.356 . S
C142 H196 0.930 . S
C143 N141 1.279 . S
C143 C142 1.358 . S
C143 H147 0.930 . S
C144 C142 1.356 . S
C144 C145 1.348 1_455 S
C145 C140 1.353 . S
C145 C144 1.348 1_655 S
C145 H197 0.929 . S
H146 C140 0.930 . S
H147 C143 0.930 . S
C148 N149 1.314 1_455 S
C148 C150 1.353 . S
C148 H154 0.930 . S
N149 Li125 1.990 . S
N149 C148 1.314 1_655 S
N149 C152 1.279 . S
C150 C148 1.353 . S
C150 C153 1.348 . S
C150 H198 0.929 . S
C151 C152 1.358 . S
C151 C153 1.356 1_655 S
C151 H199 0.930 . S
C152 N149 1.279 . S
C152 C151 1.358 . S
C152 H155 0.930 . S
C153 C150 1.348 . S
C153 C151 1.356 1_455 S
H154 C148 0.930 . S
H155 C152 0.930 . S
C156 C158 1.348 1_455 S
C156 C159 1.356 . S
C156 O186 1.325 1_455 S
N157 C160 1.314 1_455 S
N157 C161 1.279 . S
C158 C156 1.348 1_655 S
C158 C160 1.353 . S
C158 H200 0.929 . S
C159 C156 1.356 . S
C159 C161 1.358 . S
C159 H201 0.930 . S
C160 N157 1.314 1_655 S
C160 C158 1.353 . S
C160 H202 0.930 . S
C161 N157 1.279 . S
C161 C159 1.358 . S
C161 H203 0.930 . S
C162 C163 1.348 . S
C162 C164 1.356 1_455 S
C162 O187 1.325 . S
C163 C162 1.348 . S
C163 C165 1.353 . S
C163 H204 0.929 . S
C164 C162 1.356 1_655 S
C164 C166 1.358 . S
C164 H205 0.930 . S
C165 C163 1.353 . S
C165 N167 1.314 1_455 S
C165 H206 0.930 . S
C166 C164 1.358 . S
C166 N167 1.279 . S
C166 H207 0.930 . S
N167 C165 1.314 1_655 S
N167 C166 1.279 . S
C168 C170 1.353 . S
C168 N171 1.314 1_565 S
C168 H174 0.930 . S
C169 N171 1.279 . S
C169 C172 1.358 . S
C169 H175 0.930 . S
C170 C168 1.353 . S
C170 C173 1.348 1_565 S
C170 H208 0.929 . S
N171 Li126 1.990 . S
N171 C168 1.314 1_545 S
N171 C169 1.279 . S
C172 C169 1.358 . S
C172 C173 1.356 . S
C172 H209 0.930 . S
C173 C170 1.348 1_545 S
C173 C172 1.356 . S
H174 C168 0.930 . S
H175 C169 0.930 . S
C176 N177 1.314 1_545 S
C176 C178 1.353 . S
C176 H182 0.930 . S
N177 Li127 1.990 . S
N177 C176 1.314 1_565 S
N177 C180 1.279 . S
C178 C176 1.353 . S
C178 C181 1.348 . S
C178 H210 0.929 . S
C179 C180 1.358 . S
C179 C181 1.356 1_565 S
C179 H211 0.930 . S
C180 N177 1.279 . S
C180 C179 1.358 . S
C180 H183 0.930 . S
C181 C178 1.348 . S
C181 C179 1.356 1_545 S
H182 C176 0.930 . S
H183 C180 0.930 . S
O184 Li124 1.956 1_565 S
O184 Li125 1.970 1_455 S
O184 Li126 1.961 1_565 S
O184 C128 1.325 1_565 S
O185 Li124 1.970 1_655 S
O185 Li125 1.956 1_545 S
O185 Li127 1.961 1_545 S
O185 C134 1.325 . S
O186 Li124 1.961 1_655 S
O186 Li126 1.956 1_655 S
O186 Li127 1.970 1_545 S
O186 C156 1.325 1_655 S
O187 Li125 1.961 1_455 S
O187 Li126 1.970 1_565 S
O187 Li127 1.956 1_455 S
O187 C162 1.325 . S
H188 C130 0.929 . S
H189 C131 0.930 . S
H190 C132 0.930 . S
H191 C133 0.930 . S
H192 C135 0.930 . S
H193 C137 0.929 . S
H194 C138 0.930 . S
H195 C139 0.930 . S
H196 C142 0.930 . S
H197 C145 0.929 . S
H198 C150 0.929 . S
H199 C151 0.930 . S
H200 C158 0.929 . S
H201 C159 0.930 . S
H202 C160 0.930 . S
H203 C161 0.930 . S
H204 C163 0.929 . S
H205 C164 0.930 . S
H206 C165 0.930 . S
H207 C166 0.930 . S
H208 C170 0.929 . S
H209 C172 0.930 . S
H210 C178 0.929 . S
H211 C179 0.930 . S
Li212 N229 1.990 . S
Li212 O272 1.956 1_655 S
Li212 O273 1.970 1_545 S
Li212 O274 1.961 1_545 S
Li213 N237 1.990 . S
Li213 O272 1.970 1_565 S
Li213 O273 1.956 1_455 S
Li213 O275 1.961 1_565 S
Li214 N259 1.990 . S
Li214 O272 1.961 1_655 S
Li214 O274 1.956 1_545 S
Li214 O275 1.970 1_655 S
Li215 N265 1.990 . S
Li215 O273 1.961 1_455 S
Li215 O274 1.970 1_455 S
Li215 O275 1.956 1_565 S
C216 C218 1.348 . S
C216 C219 1.356 1_455 S
C216 O272 1.325 . S
N217 C220 1.314 1_655 S
N217 C221 1.279 . S
C218 C216 1.348 . S
C218 C220 1.353 . S
C218 H276 0.929 . S
C219 C216 1.356 1_655 S
C219 C221 1.358 . S
C219 H277 0.930 . S
C220 N217 1.314 1_455 S
C220 C218 1.353 . S
C220 H278 0.930 . S
C221 N217 1.279 . S
C221 C219 1.358 . S
C221 H279 0.930 . S
C222 C225 1.348 1_455 S
C222 C226 1.356 . S
C222 O273 1.325 1_455 S
C223 N224 1.279 . S
C223 C226 1.358 . S
C223 H280 0.930 . S
N224 C223 1.279 . S
N224 C227 1.314 1_455 S
C225 C222 1.348 1_655 S
C225 C227 1.353 . S
C225 H281 0.929 . S
C226 C222 1.356 . S
C226 C223 1.358 . S
C226 H282 0.930 . S
C227 N224 1.314 1_655 S
C227 C225 1.353 . S
C227 H283 0.930 . S
C228 N229 1.314 1_565 S
C228 C233 1.353 . S
C228 H234 0.930 . S
N229 Li212 1.990 . S
N229 C228 1.314 1_545 S
N229 C231 1.279 . S
C230 C231 1.358 . S
C230 C232 1.356 . S
C230 H284 0.930 . S
C231 N229 1.279 . S
C231 C230 1.358 . S
C231 H235 0.930 . S
C232 C230 1.356 . S
C232 C233 1.348 1_545 S
C233 C228 1.353 . S
C233 C232 1.348 1_565 S
C233 H285 0.929 . S
H234 C228 0.930 . S
H235 C231 0.930 . S
C236 N237 1.314 1_545 S
C236 C238 1.353 . S
C236 H242 0.930 . S
N237 Li213 1.990 . S
N237 C236 1.314 1_565 S
N237 C240 1.279 . S
C238 C236 1.353 . S
C238 C241 1.348 . S
C238 H286 0.929 . S
C239 C240 1.358 . S
C239 C241 1.356 1_565 S
C239 H287 0.930 . S
C240 N237 1.279 . S
C240 C239 1.358 . S
C240 H243 0.930 . S
C241 C238 1.348 . S
C241 C239 1.356 1_545 S
H242 C236 0.930 . S
H243 C240 0.930 . S
C244 C246 1.348 1_545 S
C244 C247 1.356 . S
C244 O274 1.325 1_545 S
N245 C248 1.314 1_545 S
N245 C249 1.279 . S
C246 C244 1.348 1_565 S
C246 C248 1.353 . S
C246 H288 0.929 . S
C247 C244 1.356 . S
C247 C249 1.358 . S
C247 H289 0.930 . S
C248 N245 1.314 1_565 S
C248 C246 1.353 . S
C248 H290 0.930 . S
C249 N245 1.279 . S
C249 C247 1.358 . S
C249 H291 0.930 . S
C250 C251 1.348 . S
C250 C252 1.356 1_545 S
C250 O275 1.325 . S
C251 C250 1.348 . S
C251 C253 1.353 . S
C251 H292 0.929 . S
C252 C250 1.356 1_565 S
C252 C254 1.358 . S
C252 H293 0.930 . S
C253 C251 1.353 . S
C253 N255 1.314 1_545 S
C253 H294 0.930 . S
C254 C252 1.358 . S
C254 N255 1.279 . S
C254 H295 0.930 . S
N255 C253 1.314 1_565 S
N255 C254 1.279 . S
C256 C258 1.353 . S
C256 N259 1.314 1_455 S
C256 H262 0.930 . S
C257 N259 1.279 . S
C257 C260 1.358 . S
C257 H263 0.930 . S
C258 C256 1.353 . S
C258 C261 1.348 . S
C258 H296 0.929 . S
N259 Li214 1.990 . S
N259 C256 1.314 1_655 S
N259 C257 1.279 . S
C260 C257 1.358 . S
C260 C261 1.356 1_655 S
C260 H297 0.930 . S
C261 C258 1.348 . S
C261 C260 1.356 1_455 S
H262 C256 0.930 . S
H263 C257 0.930 . S
C264 N265 1.314 1_655 S
C264 C266 1.353 . S
C264 H270 0.930 . S
N265 Li215 1.990 . S
N265 C264 1.314 1_455 S
N265 C268 1.279 . S
C266 C264 1.353 . S
C266 C269 1.348 1_655 S
C266 H298 0.929 . S
C267 C268 1.358 . S
C267 C269 1.356 . S
C267 H299 0.930 . S
C268 N265 1.279 . S
C268 C267 1.358 . S
C268 H271 0.930 . S
C269 C266 1.348 1_455 S
C269 C267 1.356 . S
H270 C264 0.930 . S
H271 C268 0.930 . S
O272 Li212 1.956 1_455 S
O272 Li213 1.970 1_545 S
O272 Li214 1.961 1_455 S
O272 C216 1.325 . S
O273 Li212 1.970 1_565 S
O273 Li213 1.956 1_655 S
O273 Li215 1.961 1_655 S
O273 C222 1.325 1_655 S
O274 Li212 1.961 1_565 S
O274 Li214 1.956 1_565 S
O274 Li215 1.970 1_655 S
O274 C244 1.325 1_565 S
O275 Li213 1.961 1_545 S
O275 Li214 1.970 1_455 S
O275 Li215 1.956 1_545 S
O275 C250 1.325 . S
H276 C218 0.929 . S
H277 C219 0.930 . S
H278 C220 0.930 . S
H279 C221 0.930 . S
H280 C223 0.930 . S
H281 C225 0.929 . S
H282 C226 0.930 . S
H283 C227 0.930 . S
H284 C230 0.930 . S
H285 C233 0.929 . S
H286 C238 0.929 . S
H287 C239 0.930 . S
H288 C246 0.929 . S
H289 C247 0.930 . S
H290 C248 0.930 . S
H291 C249 0.930 . S
H292 C251 0.929 . S
H293 C252 0.930 . S
H294 C253 0.930 . S
H295 C254 0.930 . S
H296 C258 0.929 . S
H297 C260 0.930 . S
H298 C266 0.929 . S
H299 C267 0.930 . S
C300 C301 1.351 1_565 S
C300 C302 1.327 . S
C300 H325 0.950 . S
C301 C300 1.351 1_545 S
C301 C317 1.347 . S
C302 C300 1.327 . S
C302 C321 1.428 . S
C302 H326 0.950 . S
C303 C320 1.574 . S
C303 C322 1.366 1_545 S
C303 H327 0.949 . S
H304 C308 0.949 . S
C305 C306 1.336 1_545 S
C305 C307 1.327 . S
C305 H328 0.950 . S
C306 C305 1.336 1_565 S
C306 C318 1.362 . S
C307 C305 1.327 . S
C307 C323 1.420 1_545 S
C307 H329 0.950 . S
C308 H304 0.949 . S
C308 C316 1.574 . S
C308 C324 1.375 . S
H309 C317 0.950 . S
H310 C315 0.950 . S
H311 C316 0.949 . S
H312 C318 0.950 . S
H313 C319 0.950 . S
H314 C320 0.949 . S
C315 H310 0.950 . S
C315 C317 1.327 . S
C315 C321 1.429 1_545 S
C316 C308 1.574 . S
C316 H311 0.949 . S
C316 C322 1.370 . S
C317 C301 1.347 . S
C317 H309 0.950 . S
C317 C315 1.327 . S
C318 C306 1.362 . S
C318 H312 0.950 . S
C318 C319 1.327 . S
C319 H313 0.950 . S
C319 C318 1.327 . S
C319 C323 1.437 . S
C320 C303 1.574 . S
C320 H314 0.949 . S
C320 C324 1.362 1_545 S
C321 C302 1.428 . S
C321 C315 1.429 1_565 S
C321 C322 1.523 . S
C322 C303 1.366 1_565 S
C322 C316 1.370 . S
C322 C321 1.523 . S
C323 C307 1.420 1_565 S
C323 C319 1.437 . S
C323 C324 1.523 . S
C324 C308 1.375 . S
C324 C320 1.362 1_565 S
C324 C323 1.523 . S
H325 C300 0.950 . S
H326 C302 0.950 . S
H327 C303 0.949 . S
H328 C305 0.950 . S
H329 C307 0.950 . S
C330 C331 1.350 . S
C330 C332 1.327 . S
C330 H355 0.950 . S
C331 C330 1.350 . S
C331 C347 1.347 1_455 S
C332 C330 1.327 . S
C332 C351 1.434 . S
C332 H356 0.950 . S
C333 C350 1.574 . S
C333 C352 1.360 1_655 S
C333 H357 0.949 . S
H334 C338 0.949 . S
C335 C336 1.331 1_655 S
C335 C337 1.327 . S
C335 H358 0.950 . S
C336 C335 1.331 1_455 S
C336 C348 1.367 . S
C337 C335 1.327 . S
C337 C353 1.415 1_655 S
C337 H359 0.950 . S
C338 H334 0.949 . S
C338 C346 1.574 . S
C338 C354 1.381 . S
H339 C347 0.950 . S
H340 C345 0.950 . S
H341 C346 0.949 . S
H342 C348 0.950 . S
H343 C349 0.950 . S
H344 C350 0.949 . S
C345 H340 0.950 . S
C345 C347 1.327 . S
C345 C351 1.423 1_655 S
C346 C338 1.574 . S
C346 H341 0.949 . S
C346 C352 1.377 . S
C347 C331 1.347 1_655 S
C347 H339 0.950 . S
C347 C345 1.327 . S
C348 C336 1.367 . S
C348 H342 0.950 . S
C348 C349 1.327 . S
C349 H343 0.950 . S
C349 C348 1.327 . S
C349 C353 1.442 . S
C350 C333 1.574 . S
C350 H344 0.949 . S
C350 C354 1.356 1_655 S
C351 C332 1.434 . S
C351 C345 1.423 1_455 S
C351 C352 1.523 . S
C352 C333 1.360 1_455 S
C352 C346 1.377 . S
C352 C351 1.523 . S
C353 C337 1.415 1_455 S
C353 C349 1.442 . S
C353 C354 1.523 . S
C354 C338 1.381 . S
C354 C350 1.356 1_455 S
C354 C353 1.523 . S
H355 C330 0.950 . S
H356 C332 0.950 . S
H357 C333 0.949 . S
H358 C335 0.950 . S
H359 C337 0.950 . S
C360 C361 1.347 1_565 S
C360 C362 1.327 . S
C360 H385 0.950 . S
C361 C360 1.347 1_545 S
C361 C377 1.351 . S
C362 C360 1.327 . S
C362 C381 1.423 1_565 S
C362 H386 0.950 . S
C363 C380 1.574 . S
C363 C382 1.378 . S
C363 H387 0.949 . S
H364 C368 0.949 . S
C365 C366 1.369 . S
C365 C367 1.327 . S
C365 H388 0.950 . S
C366 C365 1.369 . S
C366 C378 1.329 1_545 S
C367 C365 1.327 . S
C367 C383 1.444 . S
C367 H389 0.950 . S
C368 H364 0.949 . S
C368 C376 1.574 . S
C368 C384 1.355 1_565 S
H369 C377 0.950 . S
H370 C375 0.950 . S
H371 C376 0.949 . S
H372 C378 0.950 . S
H373 C379 0.950 . S
H374 C380 0.949 . S
C375 H370 0.950 . S
C375 C377 1.327 . S
C375 C381 1.435 . S
C376 C368 1.574 . S
C376 H371 0.949 . S
C376 C382 1.359 1_565 S
C377 C361 1.351 . S
C377 H369 0.950 . S
C377 C375 1.327 . S
C378 C366 1.329 1_565 S
C378 H372 0.950 . S
C378 C379 1.327 . S
C379 H373 0.950 . S
C379 C378 1.327 . S
C379 C383 1.414 1_565 S
C380 C363 1.574 . S
C380 H374 0.949 . S
C380 C384 1.382 . S
C381 C362 1.423 1_545 S
C381 C375 1.435 . S
C381 C382 1.523 . S
C382 C363 1.378 . S
C382 C376 1.359 1_545 S
C382 C381 1.523 . S
C383 C367 1.444 . S
C383 C379 1.414 1_545 S
C383 C384 1.523 . S
C384 C368 1.355 1_545 S
C384 C380 1.382 . S
C384 C383 1.523 . S
H385 C360 0.950 . S
H386 C362 0.950 . S
H387 C363 0.949 . S
H388 C365 0.950 . S
H389 C367 0.950 . S
C390 C391 1.350 1_655 S
C390 C392 1.327 . S
C390 H415 0.950 . S
C391 C390 1.350 1_455 S
C391 C407 1.348 . S
C392 C390 1.327 . S
C392 C411 1.428 . S
C392 H416 0.950 . S
C393 C410 1.574 . S
C393 C412 1.367 1_455 S
C393 H417 0.949 . S
H394 C398 0.949 . S
C395 C396 1.340 1_455 S
C395 C397 1.327 . S
C395 H418 0.950 . S
C396 C395 1.340 1_655 S
C396 C408 1.358 . S
C397 C395 1.327 . S
C397 C413 1.423 1_455 S
C397 H419 0.950 . S
C398 H394 0.949 . S
C398 C406 1.574 . S
C398 C414 1.373 . S
H399 C407 0.950 . S
H400 C405 0.950 . S
H401 C406 0.949 . S
H402 C408 0.950 . S
H403 C409 0.950 . S
H404 C410 0.949 . S
C405 H400 0.950 . S
C405 C407 1.327 . S
C405 C411 1.429 1_455 S
C406 C398 1.574 . S
C406 H401 0.949 . S
C406 C412 1.370 . S
C407 C391 1.348 . S
C407 H399 0.950 . S
C407 C405 1.327 . S
C408 C396 1.358 . S
C408 H402 0.950 . S
C408 C409 1.327 . S
C409 H403 0.950 . S
C409 C408 1.327 . S
C409 C413 1.435 . S
C410 C393 1.574 . S
C410 H404 0.949 . S
C410 C414 1.364 1_455 S
C411 C392 1.428 . S
C411 C405 1.429 1_655 S
C411 C412 1.523 . S
C412 C393 1.367 1_655 S
C412 C406 1.370 . S
C412 C411 1.523 . S
C413 C397 1.423 1_655 S
C413 C409 1.435 . S
C413 C414 1.523 . S
C414 C398 1.373 . S
C414 C410 1.364 1_655 S
C414 C413 1.523 . S
H415 C390 0.950 . S
H416 C392 0.950 . S
H417 C393 0.949 . S
H418 C395 0.950 . S
H419 C397 0.950 . S
C420 C421 1.350 . S
C420 C422 1.327 . S
C420 H445 0.950 . S
C421 C420 1.350 . S
C421 C437 1.348 1_545 S
C422 C420 1.327 . S
C422 C441 1.434 . S
C422 H446 0.950 . S
C423 C440 1.574 . S
C423 C442 1.359 1_565 S
C423 H447 0.949 . S
H424 C428 0.949 . S
C425 C426 1.328 1_565 S
C425 C427 1.327 . S
C425 H448 0.950 . S
C426 C425 1.328 1_545 S
C426 C438 1.370 . S
C427 C425 1.327 . S
C427 C443 1.413 1_565 S
C427 H449 0.950 . S
C428 H424 0.949 . S
C428 C436 1.574 . S
C428 C444 1.382 . S
H429 C437 0.950 . S
H430 C435 0.950 . S
H431 C436 0.949 . S
H432 C438 0.950 . S
H433 C439 0.950 . S
H434 C440 0.949 . S
C435 H430 0.950 . S
C435 C437 1.327 . S
C435 C441 1.423 1_565 S
C436 C428 1.574 . S
C436 H431 0.949 . S
C436 C442 1.377 . S
C437 C421 1.348 1_565 S
C437 H429 0.950 . S
C437 C435 1.327 . S
C438 C426 1.370 . S
C438 H432 0.950 . S
C438 C439 1.327 . S
C439 H433 0.950 . S
C439 C438 1.327 . S
C439 C443 1.444 . S
C440 C423 1.574 . S
C440 H434 0.949 . S
C440 C444 1.354 1_565 S
C441 C422 1.434 . S
C441 C435 1.423 1_545 S
C441 C442 1.523 . S
C442 C423 1.359 1_545 S
C442 C436 1.377 . S
C442 C441 1.523 . S
C443 C427 1.413 1_545 S
C443 C439 1.444 . S
C443 C444 1.523 . S
C444 C428 1.382 . S
C444 C440 1.354 1_545 S
C444 C443 1.523 . S
H445 C420 0.950 . S
H446 C422 0.950 . S
H447 C423 0.949 . S
H448 C425 0.950 . S
H449 C427 0.950 . S
C450 C451 1.349 1_655 S
C450 C452 1.327 . S
C450 H475 0.950 . S
C451 C450 1.349 1_455 S
C451 C467 1.348 . S
C452 C450 1.327 . S
C452 C471 1.428 . S
C452 H476 0.950 . S
C453 C470 1.574 . S
C453 C472 1.368 1_455 S
C453 H477 0.949 . S
H454 C458 0.949 . S
C455 C456 1.344 1_455 S
C455 C457 1.327 . S
C455 H478 0.950 . S
C456 C455 1.344 1_655 S
C456 C468 1.354 . S
C457 C455 1.327 . S
C457 C473 1.426 1_455 S
C457 H479 0.950 . S
C458 H454 0.949 . S
C458 C466 1.574 . S
C458 C474 1.371 . S
H459 C467 0.950 . S
H460 C465 0.950 . S
H461 C466 0.949 . S
H462 C468 0.950 . S
H463 C469 0.950 . S
H464 C470 0.949 . S
C465 H460 0.950 . S
C465 C467 1.327 . S
C465 C471 1.429 1_455 S
C466 C458 1.574 . S
C466 H461 0.949 . S
C466 C472 1.369 . S
C467 C451 1.348 . S
C467 H459 0.950 . S
C467 C465 1.327 . S
C468 C456 1.354 . S
C468 H462 0.950 . S
C468 C469 1.327 . S
C469 H463 0.950 . S
C469 C468 1.327 . S
C469 C473 1.432 . S
C470 C453 1.574 . S
C470 H464 0.949 . S
C470 C474 1.366 1_455 S
C471 C452 1.428 . S
C471 C465 1.429 1_655 S
C471 C472 1.523 . S
C472 C453 1.368 1_655 S
C472 C466 1.369 . S
C472 C471 1.523 . S
C473 C457 1.426 1_655 S
C473 C469 1.432 . S
C473 C474 1.523 . S
C474 C458 1.371 . S
C474 C470 1.366 1_655 S
C474 C473 1.523 . S
H475 C450 0.950 . S
H476 C452 0.950 . S
H477 C453 0.949 . S
H478 C455 0.950 . S
H479 C457 0.950 . S
C480 C481 1.350 1_565 S
C480 C482 1.327 . S
C480 H505 0.950 . S
C481 C480 1.350 1_545 S
C481 C497 1.348 . S
C482 C480 1.327 . S
C482 C501 1.428 . S
C482 H506 0.950 . S
C483 C500 1.574 . S
C483 C502 1.366 1_545 S
C483 H507 0.949 . S
H484 C488 0.949 . S
C485 C486 1.335 1_545 S
C485 C487 1.327 . S
C485 H508 0.950 . S
C486 C485 1.335 1_565 S
C486 C498 1.363 . S
C487 C485 1.327 . S
C487 C503 1.420 1_545 S
C487 H509 0.950 . S
C488 H484 0.949 . S
C488 C496 1.574 . S
C488 C504 1.375 . S
H489 C497 0.950 . S
H490 C495 0.950 . S
H491 C496 0.949 . S
H492 C498 0.950 . S
H493 C499 0.950 . S
H494 C500 0.949 . S
C495 H490 0.950 . S
C495 C497 1.327 . S
C495 C501 1.429 1_545 S
C496 C488 1.574 . S
C496 H491 0.949 . S
C496 C502 1.370 . S
C497 C481 1.348 . S
C497 H489 0.950 . S
C497 C495 1.327 . S
C498 C486 1.363 . S
C498 H492 0.950 . S
C498 C499 1.327 . S
C499 H493 0.950 . S
C499 C498 1.327 . S
C499 C503 1.437 . S
C500 C483 1.574 . S
C500 H494 0.949 . S
C500 C504 1.362 1_545 S
C501 C482 1.428 . S
C501 C495 1.429 1_565 S
C501 C502 1.523 . S
C502 C483 1.366 1_565 S
C502 C496 1.370 . S
C502 C501 1.523 . S
C503 C487 1.420 1_565 S
C503 C499 1.437 . S
C503 C504 1.523 . S
C504 C488 1.375 . S
C504 C500 1.362 1_565 S
C504 C503 1.523 . S
H505 C480 0.950 . S
H506 C482 0.950 . S
H507 C483 0.949 . S
H508 C485 0.950 . S
H509 C487 0.950 . S
C510 C511 1.349 1_655 S
C510 C512 1.327 . S
C510 H535 0.950 . S
C511 C510 1.349 1_455 S
C511 C527 1.349 . S
C512 C510 1.327 . S
C512 C531 1.427 1_655 S
C512 H536 0.950 . S
C513 C530 1.574 . S
C513 C532 1.371 . S
C513 H537 0.949 . S
H514 C518 0.949 . S
C515 C516 1.356 . S
C515 C517 1.327 . S
C515 H538 0.950 . S
C516 C515 1.356 . S
C516 C528 1.342 1_455 S
C517 C515 1.327 . S
C517 C533 1.434 . S
C517 H539 0.950 . S
C518 H514 0.949 . S
C518 C526 1.574 . S
C518 C534 1.364 1_655 S
H519 C527 0.950 . S
H520 C525 0.950 . S
H521 C526 0.949 . S
H522 C528 0.950 . S
H523 C529 0.950 . S
H524 C530 0.949 . S
C525 H520 0.950 . S
C525 C527 1.327 . S
C525 C531 1.430 . S
C526 C518 1.574 . S
C526 H521 0.949 . S
C526 C532 1.365 1_655 S
C527 C511 1.349 . S
C527 H519 0.950 . S
C527 C525 1.327 . S
C528 C516 1.342 1_655 S
C528 H522 0.950 . S
C528 C529 1.327 . S
C529 H523 0.950 . S
C529 C528 1.327 . S
C529 C533 1.424 1_655 S
C530 C513 1.574 . S
C530 H524 0.949 . S
C530 C534 1.373 . S
C531 C512 1.427 1_455 S
C531 C525 1.430 . S
C531 C532 1.523 . S
C532 C513 1.371 . S
C532 C526 1.365 1_455 S
C532 C531 1.523 . S
C533 C517 1.434 . S
C533 C529 1.424 1_455 S
C533 C534 1.523 . S
C534 C518 1.364 1_455 S
C534 C530 1.373 . S
C534 C533 1.523 . S
H535 C510 0.950 . S
H536 C512 0.950 . S
H537 C513 0.949 . S
H538 C515 0.950 . S
H539 C517 0.950 . S
C306 C173 1.779 1_565 S
C301 C47 1.655 . S
C336 C261 1.778 . S
C331 C109 1.655 1_455 S
C366 C181 1.779 . S
C361 C29 1.662 . S
C396 C269 1.779 1_655 S
C391 C91 1.661 1_455 S
C426 C241 1.368 . S
C421 C53 1.346 . S
C456 C144 1.368 1_655 S
C451 C115 1.346 1_455 S
C486 C232 1.368 1_565 S
C481 C35 1.352 . S
C511 C97 1.349 1_455 S
C516 C153 1.372 . S
