# Generated by pormake.
# Topology zzz, (3,6)-cn, num edge types: 1
# Building blocks:
#     Node 0, Type 0, BuildingBlock: QEWDON_clean_linker_0, # of connection points: 3
#     Node 1, Type 0, BuildingBlock: QEWDON_clean_linker_0, # of connection points: 3
#     Node 2, Type 0, BuildingBlock: QEWDON_clean_linker_0, # of connection points: 3
#     Node 3, Type 0, BuildingBlock: QEWDON_clean_linker_0, # of connection points: 3
#     Node 4, Type 0, BuildingBlock: QEWDON_clean_linker_0, # of connection points: 3
#     Node 5, Type 0, BuildingBlock: QEWDON_clean_linker_0, # of connection points: 3
#     Node 6, Type 0, BuildingBlock: QEWDON_clean_linker_0, # of connection points: 3
#     Node 7, Type 0, BuildingBlock: QEWDON_clean_linker_0, # of connection points: 3
#     Node 8, Type 1, BuildingBlock: BETDAH_clean_sbu_0, # of connection points: 6
#     Node 9, Type 1, BuildingBlock: BETDAH_clean_sbu_0, # of connection points: 6
#     Node 10, Type 1, BuildingBlock: BETDAH_clean_sbu_0, # of connection points: 6
#     Node 11, Type 1, BuildingBlock: BETDAH_clean_sbu_0, # of connection points: 6
#     Edge 12, Type (0, 1), BuildingBlock: XIVTED_clean_linker_0, # of connection points: 2
#     Edge 13, Type (0, 1), BuildingBlock: XIVTED_clean_linker_0, # of connection points: 2
#     Edge 14, Type (0, 1), BuildingBlock: XIVTED_clean_linker_0, # of connection points: 2
#     Edge 15, Type (0, 1), BuildingBlock: XIVTED_clean_linker_0, # of connection points: 2
#     Edge 16, Type (0, 1), BuildingBlock: XIVTED_clean_linker_0, # of connection points: 2
#     Edge 17, Type (0, 1), BuildingBlock: XIVTED_clean_linker_0, # of connection points: 2
#     Edge 18, Type (0, 1), BuildingBlock: XIVTED_clean_linker_0, # of connection points: 2
#     Edge 19, Type (0, 1), BuildingBlock: XIVTED_clean_linker_0, # of connection points: 2
#     Edge 20, Type (0, 1), BuildingBlock: XIVTED_clean_linker_0, # of connection points: 2
#     Edge 21, Type (0, 1), BuildingBlock: XIVTED_clean_linker_0, # of connection points: 2
#     Edge 22, Type (0, 1), BuildingBlock: XIVTED_clean_linker_0, # of connection points: 2
#     Edge 23, Type (0, 1), BuildingBlock: XIVTED_clean_linker_0, # of connection points: 2
#     Edge 24, Type (0, 1), BuildingBlock: XIVTED_clean_linker_0, # of connection points: 2
#     Edge 25, Type (0, 1), BuildingBlock: XIVTED_clean_linker_0, # of connection points: 2
#     Edge 26, Type (0, 1), BuildingBlock: XIVTED_clean_linker_0, # of connection points: 2
#     Edge 27, Type (0, 1), BuildingBlock: XIVTED_clean_linker_0, # of connection points: 2
#     Edge 28, Type (0, 1), BuildingBlock: XIVTED_clean_linker_0, # of connection points: 2
#     Edge 29, Type (0, 1), BuildingBlock: XIVTED_clean_linker_0, # of connection points: 2
#     Edge 30, Type (0, 1), BuildingBlock: XIVTED_clean_linker_0, # of connection points: 2
#     Edge 31, Type (0, 1), BuildingBlock: XIVTED_clean_linker_0, # of connection points: 2
#     Edge 32, Type (0, 1), BuildingBlock: XIVTED_clean_linker_0, # of connection points: 2
#     Edge 33, Type (0, 1), BuildingBlock: XIVTED_clean_linker_0, # of connection points: 2
#     Edge 34, Type (0, 1), BuildingBlock: XIVTED_clean_linker_0, # of connection points: 2
#     Edge 35, Type (0, 1), BuildingBlock: XIVTED_clean_linker_0, # of connection points: 2
# Relax obj value: 0.174
# Max RMSD: 0.174
# Mean RMSD: 0.126
data_MOF--net-zzz--node1-BETDAH_clean_sbu_0--node2-QEWDON_clean_linker_0--edge1-XIVTED_clean_linker_0
_symmetry_space_group_name_H-M    P1
_symmetry_Int_Tables_number       1
_symmetry_cell_setting            triclinic
loop_
_symmetry_equiv_pos_as_xyz
'x, y, z'
_cell_length_a     55.72299
_cell_length_b     55.56267
_cell_length_c     12.694306
_cell_angle_alpha  89.98429
_cell_angle_beta   89.962833
_cell_angle_gamma 89.908931
loop_
_atom_site_label
_atom_site_type_symbol
_atom_site_fract_x
_atom_site_fract_y
_atom_site_fract_z
_atom_type_partial_charge
H0 H 0.75784 0.50519 0.21308 0.0
C1 C 0.77067 0.50878 0.27485 0.0
C2 C 0.79073 0.49361 0.28178 0.0
C3 C 0.76821 0.52923 0.3404 0.0
H4 H 0.82494 0.48806 0.35705 0.0
C5 C 0.80865 0.49878 0.35569 0.0
C6 C 0.80757 0.5194 0.41826 0.0
C7 C 0.78719 0.53439 0.41208 0.0
C8 C 0.74696 0.54591 0.32633 0.0
H9 H 0.78658 0.55001 0.46269 0.0
C10 C 0.72549 0.53808 0.27649 0.0
C11 C 0.70657 0.55421 0.25395 0.0
C12 C 0.74829 0.57028 0.35699 0.0
H13 H 0.76429 0.57773 0.39206 0.0
C14 C 0.72913 0.586 0.33957 0.0
H15 H 0.72315 0.51945 0.25442 0.0
C16 C 0.70851 0.57814 0.28799 0.0
H17 H 0.69443 0.59106 0.27143 0.0
H18 H 0.73058 0.60465 0.36344 0.0
H19 H 0.06691 0.74329 0.31989 0.0
C20 C 0.05973 0.75772 0.36783 0.0
C21 C 0.07037 0.78047 0.36062 0.0
C22 C 0.04007 0.75369 0.43572 0.0
H23 H 0.06927 0.81723 0.41468 0.0
C24 C 0.06165 0.79936 0.42293 0.0
C25 C 0.04191 0.79631 0.48913 0.0
C26 C 0.03099 0.77344 0.49553 0.0
C27 C 0.02977 0.72877 0.44523 0.0
H28 H 1.01543 0.77119 0.54569 0.0
C29 C 0.02976 0.71243 0.359 0.0
C30 C 1.02231 0.68818 0.37133 0.0
C31 C 1.02133 0.72056 0.54319 0.0
H32 H 1.02144 0.73218 0.61163 0.0
C33 C 1.01355 0.69689 0.55564 0.0
H34 H 0.03537 0.71861 0.28204 0.0
C35 C 1.01423 0.6808 0.47132 0.0
H36 H 1.00891 0.66237 0.48572 0.0
H37 H 1.00744 0.69078 0.63207 0.0
H38 H 0.7971 0.97326 0.28538 0.0
C39 C 0.7829 0.9804 0.33465 0.0
C40 C 0.75936 0.97266 0.31694 0.0
C41 C 0.78796 0.99713 0.41554 0.0
H42 H 0.72235 0.97632 0.36309 0.0
C43 C 0.74073 0.98161 0.37962 0.0
C44 C 0.74489 0.99869 0.4576 0.0
C45 C 0.76856 1.00643 0.47639 0.0
C46 C 0.8134 1.00451 0.43662 0.0
H47 H 0.77168 1.02005 0.53583 0.0
C48 C 0.83064 1.00608 0.35456 0.0
C49 C 0.85495 1.01151 0.37621 0.0
C50 C 0.8209 1.00899 0.54051 0.0
H51 H 0.80851 1.00749 0.60587 0.0
C52 C 0.84474 1.01471 0.56228 0.0
H53 H 0.82514 1.00337 0.27368 0.0
C54 C 0.86164 1.01582 0.48137 0.0
H55 H 0.88012 1.01953 0.50194 0.0
H56 H 0.85027 1.01785 0.64284 0.0
H57 H 0.49021 0.8019 0.26392 0.0
C58 C 0.49677 0.78704 0.31113 0.0
C59 C 0.48439 0.76516 0.30736 0.0
C60 C 0.51748 0.78966 0.37388 0.0
H61 H 0.48332 0.72858 0.36421 0.0
C62 C 0.4923 0.74586 0.36951 0.0
C63 C 0.51295 0.7476 0.43119 0.0
C64 C 0.52571 0.7695 0.43295 0.0
C65 C 0.52989 0.81358 0.37844 0.0
H66 H 0.54198 0.77069 0.47928 0.0
C67 C 0.53045 0.82925 0.29008 0.0
C68 C 0.53999 0.85279 0.29778 0.0
C69 C 0.5399 0.8216 0.47371 0.0
H70 H 0.53946 0.81043 0.54359 0.0
C71 C 0.54976 0.84457 0.48153 0.0
H72 H 0.52358 0.8231 0.21508 0.0
C73 C 0.54962 0.86011 0.39517 0.0
H74 H 0.55658 0.87811 0.40601 0.0
H75 H 0.55708 0.85061 0.55594 0.0
H76 H 0.29885 0.55622 0.16348 0.0
C77 C 0.28457 0.54853 0.11661 0.0
C78 C 0.26193 0.55956 0.11859 0.0
C79 C 0.28873 0.52815 0.05226 0.0
H80 H 0.22564 0.55847 0.06062 0.0
C81 C 0.24333 0.55026 0.05709 0.0
C82 C 0.24665 0.52989 0.99501 0.0
C83 C 0.26927 0.51867 0.99285 0.0
C84 C 0.31345 0.51757 0.04333 0.0
H85 H 0.27155 0.50261 0.94558 0.0
C86 C 0.32997 0.51812 0.12838 0.0
C87 C 0.3538 0.50993 0.11519 0.0
C88 C 0.32118 0.50795 0.94639 0.0
H89 H 0.30948 0.50772 0.87839 0.0
C90 C 0.34448 0.4992 0.93422 0.0
H91 H 0.32458 0.52532 0.20402 0.0
C92 C 0.3607 0.50029 0.01747 0.0
H93 H 0.37877 0.4936 0.0053 0.0
H94 H 0.35012 0.49192 0.85909 0.0
H95 H 1.0015 0.29838 0.18909 0.0
C96 C 1.00694 0.28338 0.14025 0.0
C97 C 1.0009 0.26025 0.17341 0.0
C98 C 1.0196 0.28702 0.04523 0.0
H99 H 1.00282 0.22239 0.13982 0.0
C100 C 1.00712 0.24035 0.11184 0.0
C101 C 1.01975 0.243 0.01759 0.0
C102 C 0.02595 0.26645 0.98364 0.0
C103 C 0.02557 0.3123 0.01157 0.0
H104 H 0.03619 0.26847 0.91169 0.0
C105 C 0.0291 0.33097 0.08661 0.0
C106 C 0.03207 0.35522 0.05521 0.0
C107 C 0.02623 0.31839 0.90407 0.0
H108 H 0.02321 0.30494 0.84388 0.0
C109 C 0.02996 0.34216 0.87241 0.0
H110 H 0.02906 0.32684 0.16986 0.0
C111 C 0.03267 0.36044 0.94692 0.0
H112 H 0.03536 0.3787 0.91952 0.0
H113 H 0.03036 0.34653 0.78931 0.0
H114 H 0.25873 0.04978 0.23187 0.0
C115 C 0.27076 0.04758 0.16561 0.0
C116 C 0.29143 0.06193 0.16165 0.0
C117 C 0.2667 0.02933 0.09015 0.0
H118 H 0.32495 0.06812 0.08114 0.0
C119 C 0.30818 0.0582 0.08081 0.0
C120 C 0.3055 0.03952 0.00853 0.0
C121 C 0.28457 0.02536 0.01179 0.0
C122 C 0.24514 1.01312 0.10074 0.0
H123 H 0.28271 1.01109 0.95448 0.0
C124 C 0.22374 1.02097 0.15127 0.0
C125 C 0.20432 1.00508 0.1686 0.0
C126 C 0.24623 0.98907 0.06565 0.0
H127 H 0.26229 0.98175 0.0301 0.0
C128 C 0.22683 0.97357 0.07939 0.0
H129 H 0.22201 0.03944 0.1772 0.0
C130 C 0.20614 0.98138 0.13076 0.0
H131 H 0.19186 0.96853 0.14378 0.0
H132 H 0.2281 0.95513 0.05244 0.0
H133 H 0.47519 0.26036 0.22849 0.0
C134 C 0.48317 0.27426 0.18 0.0
C135 C 0.47452 0.29785 0.18835 0.0
C136 C 0.50173 0.26867 0.10821 0.0
H137 H 0.4786 0.33451 0.13622 0.0
C138 C 0.4847 0.31606 0.12663 0.0
C139 C 0.5035 0.31136 0.05722 0.0
C140 C 0.51194 0.28756 0.04705 0.0
C141 C 0.50983 0.24312 0.09529 0.0
H142 H 0.52673 0.28395 0.99392 0.0
C143 C 0.51096 0.2269 0.18171 0.0
C144 C 0.51783 0.20259 0.16688 0.0
C145 C 0.51563 0.23452 0.99427 0.0
H146 H 0.51446 0.24613 0.92596 0.0
C147 C 0.52231 0.2106 0.97917 0.0
H148 H 0.50699 0.23323 0.26049 0.0
C149 C 0.52334 0.19477 0.0642 0.0
H150 H 0.52815 0.1762 0.04898 0.0
H151 H 0.52648 0.2042 0.90071 0.0
Ho152 Ho 0.04149 1.01431 0.8488 0.0
Ho153 Ho 1.01304 1.02418 0.65719 0.0
C154 C 0.0249 0.96944 0.69204 0.0
C155 C 0.05744 0.99462 0.01915 0.0
C156 C 0.06263 0.96909 0.0403 0.0
C157 C 0.04779 0.95127 0.99768 0.0
C158 C 0.05466 0.92722 -0.00015 0.0
C159 C 0.07616 0.91998 0.04898 0.0
C160 C 0.09038 0.93791 0.09718 0.0
C161 C 0.08384 0.96224 0.09136 0.0
C162 C 0.06851 0.02628 0.67992 0.0
C163 C 0.02966 0.06901 0.81203 0.0
C164 C 0.9983 0.04484 0.4881 0.0
C165 C 0.99856 0.07091 0.46781 0.0
C166 C 1.01848 0.0846 0.4989 0.0
C167 C 1.01686 0.10953 0.50645 0.0
C168 C 0.99539 0.12156 0.48092 0.0
C169 C 0.97603 0.10783 0.44193 0.0
C170 C 0.97752 0.08273 0.43664 0.0
C171 C 0.98605 1.01226 0.82615 0.0
O172 O 0.03357 0.97681 0.78385 0.0
O173 O 1.01686 0.98495 0.62174 0.0
O174 O 0.07141 1.00464 0.94919 0.0
O175 O 0.03482 1.00014 0.0048 0.0
O176 O 0.07279 0.03342 0.77539 0.0
O177 O 0.05041 1.01258 0.67938 0.0
O178 O 1.0225 0.06168 0.71784 0.0
O179 O 0.0361 0.05337 0.88497 0.0
O180 O 0.98375 0.03821 0.56345 0.0
O181 O 1.01933 0.03442 0.49509 0.0
O182 O 0.98174 1.00506 0.73069 0.0
O183 O 1.00412 0.02601 0.82659 0.0
H184 H 0.03112 0.9559 0.95894 0.0
H185 H 0.04314 0.91463 0.95951 0.0
H186 H 0.10663 0.9334 0.13933 0.0
H187 H 0.09557 0.97574 0.125 0.0
H188 H 0.03499 0.07602 0.52401 0.0
H189 H 0.03217 0.11901 0.53798 0.0
H190 H 0.95951 0.11632 0.41691 0.0
H191 H 0.96193 0.07251 0.41247 0.0
Ho192 Ho 0.5318 0.03418 0.84817 0.0
Ho193 Ho 0.51871 1.0195 0.6083 0.0
C194 C 0.57405 1.01975 0.67252 0.0
C195 C 0.55189 0.03351 0.03006 0.0
C196 C 0.57477 1.02179 0.06061 0.0
C197 C 0.57534 0.99727 0.0882 0.0
C198 C 0.59707 0.98468 0.09054 0.0
C199 C 0.61881 0.99653 0.06895 0.0
C200 C 0.61834 1.02158 0.0522 0.0
C201 C 0.5966 0.03402 0.04747 0.0
C202 C 0.52162 0.07036 0.71222 0.0
C203 C 0.47681 0.02862 0.78615 0.0
C204 C 0.50084 0.0267 0.42555 0.0
C205 C 0.47814 0.03978 0.40515 0.0
C206 C 0.47657 0.06485 0.42105 0.0
C207 C 0.45423 0.07619 0.42884 0.0
C208 C 0.43307 0.06266 0.42117 0.0
C209 C 0.43464 0.03797 0.39802 0.0
C210 C 0.45692 0.02668 0.38951 0.0
C211 C 0.52337 0.98057 0.73797 0.0
O212 O 0.56738 1.02316 0.77247 0.0
O213 O 0.55865 1.01877 0.59279 0.0
O214 O 0.55376 0.0518 0.96511 0.0
O215 O 0.53428 1.01897 0.00457 0.0
O216 O 0.51691 0.0715 0.8127 0.0
O217 O 0.53259 0.05104 0.69301 0.0
O218 O 0.48357 0.0304 0.68601 0.0
O219 O 0.49244 0.02683 0.86453 0.0
O220 O 0.49849 1.00616 0.47535 0.0
O221 O 0.51865 0.03959 0.46229 0.0
O222 O 0.51919 0.97856 0.63736 0.0
O223 O 0.5246 1.00261 0.75728 0.0
H224 H 0.55886 0.98743 0.10178 0.0
H225 H 0.5966 0.96547 0.10471 0.0
H226 H 0.63475 0.03162 0.04023 0.0
H227 H 0.5969 0.05304 0.02878 0.0
H228 H 0.49253 0.07558 0.43276 0.0
H229 H 0.45351 0.09531 0.44525 0.0
H230 H 0.41857 0.02724 0.38835 0.0
H231 H 0.4575 1.00741 0.37649 0.0
Ho232 Ho 0.51244 0.53342 0.82761 0.0
Ho233 Ho 0.53468 0.51918 0.60568 0.0
C234 C 0.5278 0.57513 0.64958 0.0
C235 C 0.50151 0.55645 0.99719 0.0
C236 C 0.49512 0.58202 0.00877 0.0
C237 C 0.50691 0.5994 0.94785 0.0
C238 C 0.49815 0.6228 0.9419 0.0
C239 C 0.47785 0.62995 0.0003 0.0
C240 C 0.46687 0.61266 0.06632 0.0
C241 C 0.47521 0.58887 0.06912 0.0
C242 C 0.48131 0.51971 0.6761 0.0
C243 C 0.52367 0.47876 0.78794 0.0
C244 C 0.53239 0.49945 0.42381 0.0
C245 C 0.51764 0.47802 0.39871 0.0
C246 C 0.49307 0.48048 0.37495 0.0
C247 C 0.47771 0.46063 0.38039 0.0
C248 C 0.48672 0.43787 0.40821 0.0
C249 C 0.51158 0.43509 0.42289 0.0
C250 C 0.52685 0.45489 0.41807 0.0
C251 C 0.57011 0.52508 0.75071 0.0
O252 O 0.51765 0.56897 0.74078 0.0
O253 O 0.53667 0.55912 0.58248 0.0
O254 O 0.48596 0.54371 0.94412 0.0
O255 O 0.52367 0.55187 0.96921 0.0
O256 O 0.47843 0.51467 0.77526 0.0
O257 O 0.49995 0.53224 0.66462 0.0
O258 O 0.52319 0.48434 0.68606 0.0
O259 O 0.52341 0.49554 0.86202 0.0
O260 O 0.55035 0.49571 0.48845 0.0
O261 O 0.52047 0.51909 0.44701 0.0
O262 O 0.57414 0.52062 0.6515 0.0
O263 O 0.54773 0.52685 0.7626 0.0
H264 H 0.52254 0.59479 0.90151 0.0
H265 H 0.50725 0.63491 0.88884 0.0
H266 H 0.45183 0.61726 0.11622 0.0
H267 H 0.46583 0.57573 0.11685 0.0
H268 H 0.48548 0.49795 0.35737 0.0
H269 H 0.4587 0.4633 0.36682 0.0
H270 H 0.51925 0.41761 0.44022 0.0
H271 H 0.54571 0.45222 0.43513 0.0
Ho272 Ho 0.0234 0.51047 0.78183 0.0
Ho273 Ho 0.03562 0.54262 0.58722 0.0
C274 C 0.98017 0.53042 0.62603 0.0
C275 C 1.00354 0.49183 0.94648 0.0
C276 C 0.97804 0.48722 0.96788 0.0
C277 C 0.96062 0.50209 0.92246 0.0
C278 C 0.93659 0.49552 0.92345 0.0
C279 C 0.92886 0.47449 0.97553 0.0
C280 C 0.94645 0.46031 0.02681 0.0
C281 C 0.97082 0.46639 0.02122 0.0
C282 C 0.03668 0.48656 0.60542 0.0
C283 C 0.07798 0.52388 0.74701 0.0
C284 C 0.05348 0.55773 0.41288 0.0
C285 C 0.07489 0.57281 0.39992 0.0
C286 C 0.08524 0.57635 0.30067 0.0
C287 C 0.10759 0.58769 0.29215 0.0
C288 C 0.1199 0.59549 0.38299 0.0
C289 C 0.10874 0.59303 0.48156 0.0
C290 C 0.0865 0.58174 0.4899 0.0
C291 C 0.03313 0.57075 0.764 0.0
O292 O 0.98689 0.51917 0.71334 0.0
O293 O 0.99581 0.54014 0.56006 0.0
O294 O 1.0125 0.47898 0.86974 0.0
O295 O 1.00991 0.51448 0.9408 0.0
O296 O 0.04288 0.48048 0.70042 0.0
O297 O 0.02331 0.50504 0.6086 0.0
O298 O 0.07184 0.53085 0.65071 0.0
O299 O 0.06183 0.51801 0.81895 0.0
O300 O 0.03517 0.56823 0.45886 0.0
O301 O 0.05792 0.53623 0.45091 0.0
O302 O 0.03778 0.57873 0.67061 0.0
O303 O 0.02997 0.54841 0.75607 0.0
H304 H 0.96559 0.51855 0.88278 0.0
H305 H 0.92445 0.50702 0.88042 0.0
H306 H 0.94168 0.44444 0.07131 0.0
H307 H 0.98404 0.45465 0.05709 0.0
H308 H 0.07659 0.56944 0.23053 0.0
H309 H 0.11585 0.589 0.21512 0.0
H310 H 0.11763 0.59899 0.55277 0.0
H311 H 0.07887 0.57902 0.56742 0.0
H312 H 0.15684 0.99331 0.13526 0.0
H313 H 0.11153 0.0497 0.68213 0.0
H314 H 0.20241 0.03317 0.34725 0.0
H315 H 0.06757 1.00443 0.48548 0.0
H316 H 0.14349 0.04773 0.55022 0.0
H317 H 0.12276 1.001 0.25196 0.0
C318 C 0.15972 1.0038 0.20602 0.0
C319 C 0.18275 1.01238 0.23158 0.0
C320 C 0.12682 0.03834 0.53535 0.0
C321 C 0.1435 1.02138 0.36588 0.0
C322 C 0.10852 0.0395 0.61065 0.0
C323 C 0.0869 0.02706 0.59523 0.0
C324 C 0.12357 0.02463 0.44346 0.0
C325 C 0.08398 1.01422 0.50083 0.0
C326 C 0.14017 1.00823 0.27257 0.0
C327 C 0.18508 0.02629 0.32353 0.0
N328 N 0.10215 1.01321 0.42891 0.0
N329 N 0.16581 0.03017 0.38751 0.0
H330 H 0.552 0.16796 0.20075 0.0
H331 H 0.49252 0.1106 0.71944 0.0
H332 H 0.48721 0.1969 0.33767 0.0
H333 H 0.54786 0.07672 0.53389 0.0
H334 H 0.49156 0.14416 0.59203 0.0
H335 H 0.55245 0.13667 0.33473 0.0
C336 C 0.53779 0.16776 0.25897 0.0
C337 C 0.51933 0.18502 0.25634 0.0
C338 C 0.50386 0.12933 0.57933 0.0
C339 C 0.51989 0.14897 0.41243 0.0
C340 C 0.50442 0.11022 0.65199 0.0
C341 C 0.52016 0.09076 0.63679 0.0
C342 C 0.51944 0.1291 0.49196 0.0
C343 C 0.53524 0.09118 0.54824 0.0
C344 C 0.53809 0.14983 0.33594 0.0
C345 C 0.50183 0.18406 0.33637 0.0
N346 N 0.53454 0.10999 0.47977 0.0
N347 N 0.50246 0.16627 0.41077 0.0
H348 H 0.39914 0.528 0.09961 0.0
H349 H 0.44031 0.49238 0.68333 0.0
H350 H 0.3502 0.49679 0.32445 0.0
H351 H 0.47886 0.54209 0.48511 0.0
H352 H 0.40855 0.4901 0.54902 0.0
H353 H 0.42998 0.52975 0.23585 0.0
C354 C 0.39488 0.5215 0.17789 0.0
C355 C 0.37205 0.51217 0.20053 0.0
C356 C 0.42401 0.50144 0.53501 0.0
C357 C 0.40747 0.51404 0.35758 0.0
C358 C 0.44215 0.50268 0.61134 0.0
C359 C 0.4624 0.5172 0.59473 0.0
C360 C 0.4262 0.51478 0.44135 0.0
C361 C 0.4638 0.53033 0.50051 0.0
C362 C 0.4125 0.52258 0.25581 0.0
C363 C 0.36751 0.50425 0.30378 0.0
N364 N 0.44603 0.52875 0.42745 0.0
N365 N 0.38512 0.5052 0.37837 0.0
H366 H 0.05649 0.35564 0.24435 0.0
H367 H 1.01487 0.48917 0.4102 0.0
H368 H 1.01182 0.40053 0.04785 0.0
H369 H 0.06117 0.44416 0.59816 0.0
H370 H 1.01452 0.45785 0.27309 0.0
H371 H 0.05885 0.38834 0.3728 0.0
C372 C 0.04708 0.3723 0.22818 0.0
C373 C 0.03393 0.37516 0.1346 0.0
C374 C 0.02487 0.4549 0.34411 0.0
C375 C 0.03674 0.41305 0.28193 0.0
C376 C 0.02514 0.47283 0.42217 0.0
C377 C 0.03799 0.46926 0.51605 0.0
C378 C 0.03752 0.43322 0.36011 0.0
C379 C 0.05093 0.44769 0.52735 0.0
C380 C 0.04857 0.39109 0.30145 0.0
C381 C 1.02245 0.39747 0.11794 0.0
N382 N 0.05026 0.43052 0.45094 0.0
N383 N 0.02406 0.41544 0.19071 0.0
H384 H 0.85882 0.98235 0.20076 0.0
H385 H 0.9857 0.03632 0.01528 0.0
H386 H 0.89406 0.04162 0.35666 0.0
H387 H 0.94463 0.98605 0.83017 0.0
H388 H 0.95365 0.0364 0.14807 0.0
H389 H 0.89082 0.98205 0.06873 0.0
C390 C 0.8731 0.99547 0.20698 0.0
C391 C 0.8736 1.01198 0.29092 0.0
C392 C 0.95166 0.02531 0.0785 0.0
C393 C 0.91078 1.01136 0.14033 0.0
C394 C 0.97001 0.02518 0.00295 0.0
C395 C 0.9678 1.01122 0.91135 0.0
C396 C 0.93097 1.01126 0.06278 0.0
C397 C 0.94706 0.99714 0.89946 0.0
C398 C 0.89152 0.99515 0.1318 0.0
C399 C 0.89297 0.02823 0.29496 0.0
N400 N 0.92948 0.99753 0.97404 0.0
N401 N 0.91073 0.02744 0.22132 0.0
H402 H 0.57266 0.8882 0.24473 0.0
H403 H 0.50251 0.93608 0.73569 0.0
H404 H 0.50555 0.85738 0.14149 0.0
H405 H 0.5525 0.97947 0.90962 0.0
H406 H 0.50731 0.90378 0.86677 0.0
H407 H 0.56924 0.91857 0.10676 0.0
C408 C 0.55714 0.88773 0.19359 0.0
C409 C 0.53921 0.87013 0.20681 0.0
C410 C 0.51719 0.92039 0.87655 0.0
C411 C 0.53559 0.90484 0.04546 0.0
C412 C 0.51454 0.93876 0.80168 0.0
C413 C 0.5268 0.9606 0.81374 0.0
C414 C 0.53267 0.92373 0.96278 0.0
C415 C 0.54224 0.96314 0.89994 0.0
C416 C 0.5553 0.9051 0.11418 0.0
C417 C 0.51998 0.87028 0.13473 0.0
N418 N 0.54482 0.94494 0.97103 0.0
N419 N 0.51869 0.88732 0.05754 0.0
H420 H 0.70704 0.52739 0.07294 0.0
H421 H 0.56561 0.53621 0.96208 0.0
H422 H 0.65855 0.56458 0.28225 0.0
H423 H 0.6182 0.5205 0.72296 0.0
H424 H 0.59819 0.54169 0.09032 0.0
H425 H 0.67339 0.51889 0.95507 0.0
C426 C 0.68925 0.53345 0.09503 0.0
C427 C 0.68568 0.54676 0.18778 0.0
C428 C 0.60255 0.53709 0.00967 0.0
C429 C 0.64697 0.53728 0.05211 0.0
C430 C 0.58395 0.53408 0.93642 0.0
C431 C 0.58915 0.52829 0.83131 0.0
C432 C 0.62653 0.53386 0.97781 0.0
C433 C 0.61332 0.52517 0.80296 0.0
C434 C 0.67006 0.52879 0.0271 0.0
C435 C 0.6622 0.55445 0.21119 0.0
N436 N 0.63105 0.52794 0.87556 0.0
N437 N 0.64376 0.54962 0.14391 0.0
H438 H 0.99253 0.64934 0.32974 0.0
H439 H 0.05504 0.61365 0.78709 0.0
H440 H 0.05524 0.68559 0.20814 0.0
H441 H 1.01037 0.56366 0.95687 0.0
H442 H 0.053 0.64143 0.93552 0.0
H443 H 0.99642 0.61931 0.1902 0.0
C444 C 1.00723 0.65105 0.27451 0.0
C445 C 0.02364 0.67029 0.28224 0.0
C446 C 0.04376 0.62434 0.94114 0.0
C447 C 0.02775 0.63584 0.1195 0.0
C448 C 0.04488 0.60843 0.85621 0.0
C449 C 0.03292 0.58622 0.85961 0.0
C450 C 0.03015 0.61837 0.03037 0.0
C451 C 1.02004 0.58048 0.95133 0.0
C452 C 1.00934 0.63381 0.19436 0.0
C453 C 0.04185 0.67152 0.20551 0.0
N454 N 1.01878 0.59657 0.03276 0.0
N455 N 0.04333 0.65468 0.12767 0.0
H456 H 0.95661 0.24319 0.2239 0.0
H457 H 0.03151 0.1556 0.47287 0.0
H458 H 0.02395 0.26478 0.35973 0.0
H459 H 0.95487 0.14917 0.52062 0.0
H460 H 0.02734 0.19862 0.46976 0.0
H461 H 0.95082 0.21496 0.3686 0.0
C462 C 0.96948 0.24297 0.28786 0.0
C463 C 0.99111 0.25559 0.27895 0.0
C464 C 1.01143 0.18788 0.48347 0.0
C465 C 0.98536 0.22264 0.44053 0.0
C466 C 1.01378 0.16299 0.48515 0.0
C467 C 0.9934 0.14822 0.49322 0.0
C468 C 0.98847 0.19827 0.48489 0.0
C469 C 0.97101 0.15955 0.50805 0.0
C470 C 0.96631 0.22671 0.37027 0.0
C471 C 1.00726 0.25484 0.36327 0.0
N472 N 0.96903 0.18387 0.49978 0.0
N473 N 1.00459 0.23776 0.43879 0.0
H474 H 0.2914 0.04869 0.36865 0.0
H475 H 0.41634 0.10496 0.33722 0.0
H476 H 0.31045 0.10756 0.16424 0.0
H477 H 0.39565 0.04623 0.53973 0.0
H478 H 0.3744 0.11784 0.32932 0.0
H479 H 0.32285 0.06081 0.48982 0.0
C480 C 0.3014 0.06493 0.35156 0.0
C481 C 0.29924 0.07639 0.25355 0.0
C482 C 0.37908 0.10251 0.3779 0.0
C483 C 0.33607 0.08953 0.3889 0.0
C484 C 0.40304 0.09515 0.38225 0.0
C485 C 0.40922 0.07395 0.43564 0.0
C486 C 0.36128 0.08833 0.4261 0.0
C487 C 0.39141 0.06214 0.49407 0.0
C488 C 0.31969 0.07169 0.42037 0.0
C489 C 0.31236 0.09761 0.23712 0.0
N490 N 0.36816 0.06915 0.48579 0.0
N491 N 0.331 0.10292 0.30178 0.0
H492 H 0.48141 0.29698 0.39981 0.0
H493 H 0.44829 0.42505 0.2848 0.0
H494 H 0.43002 0.31783 0.16412 0.0
H495 H 0.48818 0.40265 0.55899 0.0
H496 H 0.42873 0.38588 0.28101 0.0
H497 H 0.46986 0.33172 0.50496 0.0
C498 C 0.46661 0.30808 0.37312 0.0
C499 C 0.45752 0.30542 0.27101 0.0
C500 C 0.44131 0.38965 0.34383 0.0
C501 C 0.44522 0.34583 0.38701 0.0
C502 C 0.45252 0.4121 0.34585 0.0
C503 C 0.4707 0.4167 0.41942 0.0
C504 C 0.44877 0.37156 0.41433 0.0
C505 C 0.47511 0.39938 0.49764 0.0
C506 C 0.46026 0.32828 0.43236 0.0
C507 C 0.43809 0.31997 0.24114 0.0
N508 N 0.46474 0.37735 0.49137 0.0
N509 N 0.43334 0.34034 0.29638 0.0
H510 H 0.25996 0.55734 0.33188 0.0
H511 H 0.14126 0.62516 0.23709 0.0
H512 H 0.24755 0.60512 0.07064 0.0
H513 H 0.15683 0.58253 0.51296 0.0
H514 H 0.18432 0.62929 0.20538 0.0
H515 H 0.22914 0.57853 0.43224 0.0
C516 C 0.25168 0.5732 0.29787 0.0
C517 C 0.25567 0.57912 0.19212 0.0
C518 C 0.17836 0.61955 0.27448 0.0
C519 C 0.2196 0.60258 0.30347 0.0
C520 C 0.15375 0.61707 0.29209 0.0
C521 C 0.14542 0.60297 0.37611 0.0
C522 C 0.19473 0.60739 0.34004 0.0
C523 C 0.16239 0.5934 0.44653 0.0
C524 C 0.23374 0.5851 0.35448 0.0
C525 C 0.24451 0.59978 0.15161 0.0
N526 N 0.18619 0.5953 0.42548 0.0
N527 N 0.22628 0.61024 0.20585 0.0
H528 H 0.11381 0.80347 0.37297 0.0
H529 H 0.04685 0.87989 0.02968 0.0
H530 H 0.06405 0.77291 0.15106 0.0
H531 H 0.12146 0.89924 0.0752 0.0
H532 H 0.0574 0.83849 0.04816 0.0
H533 H 0.12499 0.83367 0.24258 0.0
C534 C 0.10629 0.80224 0.29445 0.0
C535 C 0.08704 0.78664 0.27422 0.0
C536 C 0.07165 0.8517 0.05175 0.0
C537 C 0.09913 0.82128 0.12683 0.0
C538 C 0.06562 0.8758 0.04086 0.0
C539 C 0.0831 0.89389 0.05211 0.0
C540 C 0.09509 0.84527 0.0798 0.0
C541 C 0.10697 0.8864 0.07024 0.0
C542 C 0.11256 0.81961 0.22004 0.0
C543 C 0.0783 0.78533 0.17099 0.0
N544 N 0.11212 0.86274 0.08698 0.0
N545 N 0.08362 0.80321 0.1021 0.0
H546 H 0.73808 0.92844 0.30702 0.0
H547 H 0.65729 1.00538 0.93995 0.0
H548 H 0.76246 0.98699 0.11319 0.0
H549 H 0.6332 0.9566 0.18247 0.0
H550 H 0.69658 0.98628 0.94379 0.0
H551 H 0.703 0.92402 0.19396 0.0
C552 C 0.73687 0.93932 0.23636 0.0
C553 C 0.7523 0.95901 0.2224 0.0
C554 C 0.68253 0.97937 0.99438 0.0
C555 C 0.7121 0.95471 0.09579 0.0
C556 C 0.66007 0.99043 0.99296 0.0
C557 C 0.64189 0.98303 0.06248 0.0
C558 C 0.68709 0.96097 0.0673 0.0
C559 C 0.64657 0.96316 0.12783 0.0
C560 C 0.71654 0.93715 0.17301 0.0
C561 C 0.75031 0.97222 0.12886 0.0
N562 N 0.66884 0.95317 0.13011 0.0
N563 N 0.72983 0.97065 0.07142 0.0
H564 H 0.44036 0.74325 0.32459 0.0
H565 H 0.50272 0.67116 0.94103 0.0
H566 H 0.48857 0.7745 0.09753 0.0
H567 H 0.43238 0.64824 0.04631 0.0
H568 H 0.49033 0.71205 0.95784 0.0
H569 H 0.42681 0.71478 0.19162 0.0
C570 C 0.44715 0.74497 0.24493 0.0
C571 C 0.46669 0.7601 0.22346 0.0
C572 C 0.47732 0.69815 0.97554 0.0
C573 C 0.45194 0.72734 0.07268 0.0
C574 C 0.48444 0.6743 0.96568 0.0
C575 C 0.46903 0.65546 0.99598 0.0
C576 C 0.4551 0.70359 0.02157 0.0
C577 C 0.44562 0.6618 0.02799 0.0
C578 C 0.43951 0.72858 0.16885 0.0
C579 C 0.47424 0.76227 0.1186 0.0
N580 N 0.43967 0.68529 0.04358 0.0
N581 N 0.4676 0.74528 0.04773 0.0
H582 H 0.78559 0.4998 0.06947 0.0
H583 H 0.90708 0.4301 0.01765 0.0
H584 H 0.80983 0.44792 0.29882 0.0
H585 H 0.88934 0.50411 0.94079 0.0
H586 H 0.86453 0.42277 0.05041 0.0
H587 H 0.8138 0.4832 0.94305 0.0
C588 C 0.7959 0.48408 0.092 0.0
C589 C 0.79645 0.47614 0.1969 0.0
C590 C 0.87022 0.44029 0.0227 0.0
C591 C 0.82929 0.45785 0.05381 0.0
C592 C 0.89465 0.44482 0.00622 0.0
C593 C 0.90267 0.46814 0.97935 0.0
C594 C 0.85359 0.45892 0.00856 0.0
C595 C 0.88497 0.48577 0.96061 0.0
C596 C 0.81219 0.47471 0.0196 0.0
C597 C 0.80986 0.45536 0.21998 0.0
N598 N 0.86151 0.4808 0.97629 0.0
N599 N 0.82667 0.44753 0.15036 0.0
H600 H 1.00144 0.22384 0.83447 0.0
H601 H 0.05613 0.09282 0.96225 0.0
H602 H 0.05236 0.20972 0.08178 0.0
H603 H 1.00424 0.10547 0.71695 0.0
H604 H 0.05716 0.13615 0.99763 0.0
H605 H 1.00546 0.18173 0.77582 0.0
C606 C 1.01409 0.2121 0.87405 0.0
C607 C 0.02691 0.22042 0.96197 0.0
C608 C 0.04569 0.12954 0.93526 0.0
C609 C 0.03089 0.17192 0.89849 0.0
C610 C 0.04501 0.1047 0.91539 0.0
C611 C 0.03034 0.09541 0.83527 0.0
C612 C 0.03144 0.1454 0.87528 0.0
C613 C 1.01632 0.11184 0.77739 0.0
C614 C 1.01612 0.18795 0.84169 0.0
C615 C 0.04246 0.20417 0.01258 0.0
N616 N 1.01717 0.13592 0.79852 0.0
N617 N 0.04384 0.18078 0.98086 0.0
H618 H 0.32516 0.06313 0.83953 0.0
H619 H 0.45441 1.01134 0.96302 0.0
H620 H 0.33613 1.00251 0.0452 0.0
H621 H 0.43938 0.04543 0.66475 0.0
H622 H 0.41131 1.01056 0.00069 0.0
H623 H 0.3666 0.05866 0.77497 0.0
C624 C 0.33604 0.04834 0.86815 0.0
C625 C 0.32706 0.03279 0.94593 0.0
C626 C 0.41743 1.01812 0.92677 0.0
C627 C 0.37484 0.02847 0.87748 0.0
C628 C 0.44208 1.01876 0.90557 0.0
C629 C 0.45064 0.02854 0.81071 0.0
C630 C 0.40109 0.02775 0.8537 0.0
C631 C 0.43366 0.0377 0.73891 0.0
C632 C 0.35976 0.04597 0.83234 0.0
C633 C 0.34219 1.01448 0.98338 0.0
N634 N 0.40976 0.03732 0.76235 0.0
N635 N 0.36542 1.01309 0.95028 0.0
H636 H 0.53129 0.34591 0.14454 0.0
H637 H 0.51536 0.43874 0.66463 0.0
H638 H 0.49808 0.32589 0.85143 0.0
H639 H 0.53227 0.45947 0.98363 0.0
H640 H 0.51504 0.3964 0.72023 0.0
H641 H 0.539 0.38612 0.07356 0.0
C642 C 0.5264 0.34978 0.06368 0.0
C643 C 0.51443 0.33242 0.0031 0.0
C644 C 0.51888 0.41024 0.77782 0.0
C645 C 0.52235 0.37884 0.92215 0.0
C646 C 0.5191 0.43445 0.74621 0.0
C647 C 0.52373 0.45286 0.8196 0.0
C648 C 0.52356 0.40426 0.88343 0.0
C649 C 0.52843 0.44605 0.92423 0.0
C650 C 0.53047 0.37285 0.02364 0.0
C651 C 0.5078 0.3386 0.89985 0.0
N652 N 0.52823 0.42241 0.95276 0.0
N653 N 0.51167 0.36136 0.86283 0.0
H654 H 0.21337 0.49793 0.06411 0.0
H655 H 0.11677 0.53986 0.63265 0.0
H656 H 0.2306 0.54387 0.80189 0.0
H657 H 0.09859 0.50327 0.92187 0.0
H658 H 0.15929 0.53655 0.67876 0.0
H659 H 0.17245 0.49357 0.99556 0.0
C660 C 0.20875 0.50628 0.98969 0.0
C661 C 0.22545 0.52082 0.93716 0.0
C662 C 0.146 0.52914 0.73187 0.0
C663 C 0.17842 0.51688 0.86048 0.0
C664 C 0.12167 0.53105 0.70568 0.0
C665 C 0.10394 0.52194 0.7737 0.0
C666 C 0.1528 0.5179 0.82653 0.0
C667 C 0.11151 0.51072 0.86724 0.0
C668 C 0.1853 0.50415 0.95143 0.0
C669 C 0.21835 0.53206 0.84321 0.0
N670 N 0.13529 0.50905 0.8908 0.0
N671 N 0.19533 0.53003 0.80831 0.0
H672 H 0.05926 0.81684 0.66841 0.0
H673 H 0.99755 0.94479 0.54632 0.0
H674 H 1.00639 0.827 0.42552 0.0
H675 H 0.05239 0.93391 0.78051 0.0
H676 H 0.99776 0.90134 0.51037 0.0
H677 H 0.05312 0.8586 0.72521 0.0
C678 C 0.04567 0.82764 0.62968 0.0
C679 C 0.03285 0.81823 0.54399 0.0
C680 C 1.00959 0.90841 0.57047 0.0
C681 C 0.02653 0.86661 0.60483 0.0
C682 C 1.00955 0.93328 0.5907 0.0
C683 C 0.02472 0.94308 0.66804 0.0
C684 C 0.02501 0.8931 0.62746 0.0
C685 C 0.0399 0.92717 0.72263 0.0
C686 C 0.04243 0.85163 0.66091 0.0
C687 C 1.01616 0.83334 0.49376 0.0
N688 N 0.03968 0.90312 0.70134 0.0
N689 N 1.01364 0.85679 0.52417 0.0
H690 H 0.71365 0.03086 0.37515 0.0
H691 H 0.6108 1.00538 0.80356 0.0
H692 H 0.72594 0.98757 0.65118 0.0
H693 H 0.59702 0.03044 0.48754 0.0
H694 H 0.65387 1.00352 0.76125 0.0
H695 H 0.67219 0.03756 0.43223 0.0
C696 C 0.70782 1.02357 0.4501 0.0
C697 C 0.72338 1.00908 0.50973 0.0
C698 C 0.64137 1.00967 0.70209 0.0
C699 C 0.67557 1.01582 0.57375 0.0
C700 C 0.61679 1.01062 0.72566 0.0
C701 C 0.60018 1.01797 0.64874 0.0
C702 C 0.64956 1.01676 0.60218 0.0
C703 C 0.60908 1.02446 0.54908 0.0
C704 C 0.68404 0.02702 0.48173 0.0
C705 C 0.71469 0.99932 0.60432 0.0
N706 N 0.63309 1.02386 0.52902 0.0
N707 N 0.69132 1.00272 0.63315 0.0
H708 H 0.49284 0.72682 0.60374 0.0
H709 H 0.5576 0.59915 0.51026 0.0
H710 H 0.54932 0.71679 0.37647 0.0
H711 H 0.49829 0.61068 0.72237 0.0
H712 H 0.55761 0.64246 0.46957 0.0
H713 H 0.49842 0.68528 0.66343 0.0
C714 C 0.50699 0.71604 0.56887 0.0
C715 C 0.52098 0.72541 0.48667 0.0
C716 C 0.54475 0.63553 0.52583 0.0
C717 C 0.5268 0.67727 0.55091 0.0
C718 C 0.54466 0.61076 0.54871 0.0
C719 C 0.52818 0.60124 0.62149 0.0
C720 C 0.52816 0.65092 0.57565 0.0
C721 C 0.5118 0.61723 0.66835 0.0
C722 C 0.50996 0.69219 0.6018 0.0
C723 C 0.53855 0.71041 0.44175 0.0
N724 N 0.5122 0.64112 0.64479 0.0
N725 N 0.54081 0.68703 0.47365 0.0
H726 H 0.8295 0.4945 0.57652 0.0
H727 H 0.95554 0.56162 0.49481 0.0
H728 H 0.83707 0.55799 0.38495 0.0
H729 H 0.94502 0.50062 0.69947 0.0
H730 H 0.91212 0.56235 0.46002 0.0
H731 H 0.87106 0.49911 0.63529 0.0
C732 C 0.83975 0.50988 0.54951 0.0
C733 C 0.82972 0.52608 0.477 0.0
C734 C 0.91931 0.54895 0.51335 0.0
C735 C 0.87784 0.53094 0.54002 0.0
C736 C 0.94414 0.54843 0.53272 0.0
C737 C 0.954 0.53121 0.60136 0.0
C738 C 0.90421 0.53199 0.56227 0.0
C739 C 0.93826 0.51459 0.64809 0.0
C740 C 0.8636 0.51236 0.58192 0.0
C741 C 0.84398 0.54536 0.44242 0.0
N742 N 0.91431 0.51536 0.62761 0.0
N743 N 0.8674 0.54708 0.47303 0.0
loop_
_geom_bond_atom_site_label_1
_geom_bond_atom_site_label_2
_geom_bond_distance
_geom_bond_site_symmetry_2
_ccdc_geom_bond_type
H0 C1 0.949 . S
C1 H0 0.949 . S
C1 C2 1.395 . S
C1 C3 1.391 . S
C2 C1 1.395 . S
C2 C5 1.390 . S
C3 C1 1.391 . S
C3 C7 1.387 . S
C3 C8 1.491 . S
H4 C5 0.950 . S
C5 C2 1.390 . S
C5 H4 0.950 . S
C5 C6 1.378 . S
C6 C5 1.378 . S
C6 C7 1.409 . S
C7 C3 1.387 . S
C7 C6 1.409 . S
C7 H9 0.951 . S
C8 C3 1.491 . S
C8 C10 1.382 . S
C8 C12 1.404 . S
H9 C7 0.951 . S
C10 C8 1.382 . S
C10 C11 1.390 . S
C10 H15 0.949 . S
C11 C10 1.390 . S
C11 C16 1.399 . S
C12 C8 1.404 . S
C12 H13 0.950 . S
C12 C14 1.375 . S
H13 C12 0.950 . S
C14 C12 1.375 . S
C14 C16 1.382 . S
C14 H18 0.950 . S
H15 C10 0.949 . S
C16 C11 1.399 . S
C16 C14 1.382 . S
C16 H17 0.952 . S
H17 C16 0.952 . S
H18 C14 0.950 . S
H19 C20 0.949 . S
C20 H19 0.949 . S
C20 C21 1.396 . S
C20 C22 1.391 . S
C21 C20 1.396 . S
C21 C24 1.390 1_655 S
C22 C20 1.391 . S
C22 C26 1.387 . S
C22 C27 1.491 . S
H23 C24 0.950 . S
C24 C21 1.390 1_455 S
C24 H23 0.950 . S
C24 C25 1.377 1_455 S
C25 C24 1.377 1_655 S
C25 C26 1.413 . S
C26 C22 1.387 . S
C26 C25 1.413 . S
C26 H28 0.951 . S
C27 C22 1.491 . S
C27 C29 1.382 . S
C27 C31 1.404 . S
H28 C26 0.951 . S
C29 C27 1.382 . S
C29 C30 1.390 . S
C29 H34 0.949 1_655 S
C30 C29 1.390 . S
C30 C35 1.399 . S
C31 C27 1.404 . S
C31 H32 0.950 . S
C31 C33 1.375 . S
H32 C31 0.950 . S
C33 C31 1.375 . S
C33 C35 1.382 . S
C33 H37 0.950 . S
H34 C29 0.949 1_455 S
C35 C30 1.399 . S
C35 C33 1.382 . S
C35 H36 0.952 . S
H36 C35 0.952 . S
H37 C33 0.950 . S
H38 C39 0.949 . S
C39 H38 0.949 . S
C39 C40 1.395 . S
C39 C41 1.391 . S
C40 C39 1.395 . S
C40 C43 1.390 1_565 S
C41 C39 1.391 . S
C41 C45 1.387 . S
C41 C46 1.491 . S
H42 C43 0.950 . S
C43 C40 1.390 1_545 S
C43 H42 0.950 . S
C43 C44 1.377 1_545 S
C44 C43 1.377 1_565 S
C44 C45 1.413 . S
C45 C41 1.387 . S
C45 C44 1.413 . S
C45 H47 0.951 . S
C46 C41 1.491 . S
C46 C48 1.382 . S
C46 C50 1.404 . S
H47 C45 0.951 . S
C48 C46 1.382 . S
C48 C49 1.390 . S
C48 H53 0.949 1_565 S
C49 C48 1.390 . S
C49 C54 1.399 . S
C50 C46 1.404 . S
C50 H51 0.950 . S
C50 C52 1.375 . S
H51 C50 0.950 . S
C52 C50 1.375 . S
C52 C54 1.382 . S
C52 H56 0.950 . S
H53 C48 0.949 1_545 S
C54 C49 1.399 . S
C54 C52 1.382 . S
C54 H55 0.952 . S
H55 C54 0.952 . S
H56 C52 0.950 . S
H57 C58 0.949 . S
C58 H57 0.949 . S
C58 C59 1.395 . S
C58 C60 1.391 . S
C59 C58 1.395 . S
C59 C62 1.390 . S
C60 C58 1.391 . S
C60 C64 1.387 . S
C60 C65 1.491 . S
H61 C62 0.950 . S
C62 C59 1.390 . S
C62 H61 0.950 . S
C62 C63 1.378 . S
C63 C62 1.378 . S
C63 C64 1.409 . S
C64 C60 1.387 . S
C64 C63 1.409 . S
C64 H66 0.951 . S
C65 C60 1.491 . S
C65 C67 1.382 . S
C65 C69 1.404 . S
H66 C64 0.951 . S
C67 C65 1.382 . S
C67 C68 1.390 . S
C67 H72 0.949 . S
C68 C67 1.390 . S
C68 C73 1.399 . S
C69 C65 1.404 . S
C69 H70 0.950 . S
C69 C71 1.375 . S
H70 C69 0.950 . S
C71 C69 1.375 . S
C71 C73 1.382 . S
C71 H75 0.950 . S
H72 C67 0.949 . S
C73 C68 1.399 . S
C73 C71 1.382 . S
C73 H74 0.952 . S
H74 C73 0.952 . S
H75 C71 0.950 . S
H76 C77 0.949 . S
C77 H76 0.949 . S
C77 C78 1.395 . S
C77 C79 1.391 1_554 S
C78 C77 1.395 . S
C78 C81 1.390 1_554 S
C79 C77 1.391 1_556 S
C79 C83 1.387 . S
C79 C84 1.491 . S
H80 C81 0.950 . S
C81 C78 1.390 1_556 S
C81 H80 0.950 . S
C81 C82 1.378 . S
C82 C81 1.378 . S
C82 C83 1.409 . S
C83 C79 1.387 . S
C83 C82 1.409 . S
C83 H85 0.951 . S
C84 C79 1.491 . S
C84 C86 1.382 1_556 S
C84 C88 1.404 . S
H85 C83 0.951 . S
C86 C84 1.382 1_554 S
C86 C87 1.390 . S
C86 H91 0.949 . S
C87 C86 1.390 . S
C87 C92 1.399 1_554 S
C88 C84 1.404 . S
C88 H89 0.950 . S
C88 C90 1.375 . S
H89 C88 0.950 . S
C90 C88 1.375 . S
C90 C92 1.382 . S
C90 H94 0.950 . S
H91 C86 0.949 . S
C92 C87 1.399 1_556 S
C92 C90 1.382 . S
C92 H93 0.952 . S
H93 C92 0.952 . S
H94 C90 0.950 . S
H95 C96 0.949 . S
C96 H95 0.949 . S
C96 C97 1.393 1_655 S
C96 C98 1.391 1_554 S
C97 C96 1.393 1_455 S
C97 C100 1.391 1_554 S
C98 C96 1.391 1_556 S
C98 C102 1.387 . S
C98 C103 1.491 . S
H99 C100 0.950 . S
C100 C97 1.391 1_556 S
C100 H99 0.950 . S
C100 C101 1.378 . S
C101 C100 1.378 . S
C101 C102 1.409 1_455 S
C102 C98 1.387 . S
C102 C101 1.409 1_655 S
C102 H104 0.951 . S
C103 C98 1.491 . S
C103 C105 1.393 1_556 S
C103 C107 1.404 . S
H104 C102 0.951 . S
C105 C103 1.393 1_554 S
C105 C106 1.395 . S
C105 H110 0.932 1_655 S
C106 C105 1.395 . S
C106 C111 1.399 1_554 S
C107 C103 1.404 . S
C107 H108 0.950 . S
C107 C109 1.375 . S
H108 C107 0.950 . S
C109 C107 1.375 . S
C109 C111 1.382 . S
C109 H113 0.950 . S
H110 C105 0.932 1_455 S
C111 C106 1.399 1_556 S
C111 C109 1.382 . S
C111 H112 0.952 . S
H112 C111 0.952 . S
H113 C109 0.950 . S
H114 C115 0.949 . S
C115 H114 0.949 . S
C115 C116 1.392 1_565 S
C115 C117 1.391 1_554 S
C116 C115 1.392 1_545 S
C116 C119 1.392 1_554 S
C117 C115 1.391 1_556 S
C117 C121 1.387 . S
C117 C122 1.491 . S
H118 C119 0.950 . S
C119 C116 1.392 1_556 S
C119 H118 0.950 . S
C119 C120 1.378 . S
C120 C119 1.378 . S
C120 C121 1.408 1_545 S
C121 C117 1.387 . S
C121 C120 1.408 1_565 S
C121 H123 0.951 . S
C122 C117 1.491 . S
C122 C124 1.391 1_556 S
C122 C126 1.404 . S
H123 C121 0.951 . S
C124 C122 1.391 1_554 S
C124 C125 1.394 . S
C124 H129 0.936 1_565 S
C125 C124 1.394 . S
C125 C130 1.399 1_554 S
C126 C122 1.404 . S
C126 H127 0.950 . S
C126 C128 1.375 . S
H127 C126 0.950 . S
C128 C126 1.375 . S
C128 C130 1.382 . S
C128 H132 0.950 . S
H129 C124 0.936 1_545 S
C130 C125 1.399 1_556 S
C130 C128 1.382 . S
C130 H131 0.952 . S
H131 C130 0.952 . S
H132 C128 0.950 . S
H133 C134 0.949 . S
C134 H133 0.949 . S
C134 C135 1.395 . S
C134 C136 1.391 1_554 S
C135 C134 1.395 . S
C135 C138 1.390 1_554 S
C136 C134 1.391 1_556 S
C136 C140 1.387 . S
C136 C141 1.491 . S
H137 C138 0.950 . S
C138 C135 1.390 1_556 S
C138 H137 0.950 . S
C138 C139 1.378 . S
C139 C138 1.378 . S
C139 C140 1.409 . S
C140 C136 1.387 . S
C140 C139 1.409 . S
C140 H142 0.951 . S
C141 C136 1.491 . S
C141 C143 1.382 1_556 S
C141 C145 1.404 . S
H142 C140 0.951 . S
C143 C141 1.382 1_554 S
C143 C144 1.390 . S
C143 H148 0.949 . S
C144 C143 1.390 . S
C144 C149 1.399 1_554 S
C145 C141 1.404 . S
C145 H146 0.950 . S
C145 C147 1.375 . S
H146 C145 0.950 . S
C147 C145 1.375 . S
C147 C149 1.382 . S
C147 H151 0.950 . S
H148 C143 0.949 . S
C149 C144 1.399 1_556 S
C149 C147 1.382 . S
C149 H150 0.952 . S
H150 C149 0.952 . S
H151 C147 0.950 . S
Ho152 C155 2.811 . S
Ho152 O172 2.322 . S
Ho152 O174 2.378 . S
Ho152 O175 2.524 1_455 S
Ho152 O176 2.381 . S
Ho152 O177 2.669 1_565 S
Ho152 O179 2.346 1_565 S
Ho152 O183 2.305 1_455 S
Ho153 C164 2.811 . S
Ho153 O173 2.346 1_545 S
Ho153 O177 2.305 1_655 S
Ho153 O178 2.322 . S
Ho153 O180 2.378 . S
Ho153 O181 2.524 1_655 S
Ho153 O182 2.381 . S
Ho153 O183 2.669 1_545 S
C154 O172 1.259 1_655 S
C154 O173 1.268 . S
C155 Ho152 2.811 . S
C155 C156 1.488 1_556 S
C155 O174 1.215 . S
C155 O175 1.289 1_455 S
C156 C155 1.488 1_554 S
C156 C157 1.348 . S
C156 C161 1.413 . S
C157 C156 1.348 . S
C157 C158 1.442 . S
C157 H184 0.930 1_455 S
C158 C157 1.442 . S
C158 C159 1.381 . S
C158 H185 0.931 1_455 S
C159 C158 1.381 . S
C159 C160 1.321 . S
C160 C159 1.321 . S
C160 C161 1.403 . S
C160 H186 0.934 . S
C161 C156 1.413 . S
C161 C160 1.403 . S
C161 H187 0.930 1_554 S
C162 O176 1.291 . S
C162 O177 1.247 1_565 S
C163 O178 1.259 1_455 S
C163 O179 1.268 . S
C164 Ho153 2.811 . S
C164 C165 1.488 . S
C164 O180 1.215 . S
C164 O181 1.289 1_655 S
C165 C164 1.488 . S
C165 C166 1.348 . S
C165 C170 1.413 . S
C166 C165 1.348 . S
C166 C167 1.442 . S
C166 H188 0.930 1_655 S
C167 C166 1.442 . S
C167 C168 1.381 . S
C167 H189 0.931 1_655 S
C168 C167 1.381 . S
C168 C169 1.321 . S
C169 C168 1.321 . S
C169 C170 1.403 . S
C169 H190 0.934 . S
C170 C165 1.413 . S
C170 C169 1.403 . S
C170 H191 0.930 . S
C171 O182 1.275 . S
C171 O183 1.256 1_545 S
O172 Ho152 2.322 . S
O172 C154 1.259 1_455 S
O173 Ho153 2.346 1_565 S
O173 C154 1.268 . S
O174 Ho152 2.378 . S
O174 C155 1.215 . S
O175 Ho152 2.524 1_655 S
O175 C155 1.289 1_655 S
O176 Ho152 2.381 . S
O176 C162 1.291 . S
O177 Ho152 2.669 1_545 S
O177 Ho153 2.305 1_455 S
O177 C162 1.247 1_545 S
O178 Ho153 2.322 . S
O178 C163 1.259 1_655 S
O179 Ho152 2.346 1_545 S
O179 C163 1.268 . S
O180 Ho153 2.378 . S
O180 C164 1.215 . S
O181 Ho153 2.524 1_455 S
O181 C164 1.289 1_455 S
O182 Ho153 2.381 . S
O182 C171 1.275 . S
O183 Ho152 2.305 1_655 S
O183 Ho153 2.669 1_565 S
O183 C171 1.256 1_565 S
H184 C157 0.930 1_655 S
H185 C158 0.931 1_655 S
H186 C160 0.934 . S
H187 C161 0.930 1_556 S
H188 C166 0.930 1_455 S
H189 C167 0.931 1_455 S
H190 C169 0.934 . S
H191 C170 0.930 . S
Ho192 C195 2.811 . S
Ho192 O212 2.322 . S
Ho192 O214 2.378 . S
Ho192 O215 2.524 1_545 S
Ho192 O216 2.381 . S
Ho192 O217 2.669 . S
Ho192 O219 2.346 . S
Ho192 O223 2.305 1_545 S
Ho193 C204 2.811 . S
Ho193 O213 2.346 . S
Ho193 O217 2.305 1_565 S
Ho193 O218 2.322 . S
Ho193 O220 2.378 . S
Ho193 O221 2.524 1_565 S
Ho193 O222 2.381 . S
Ho193 O223 2.669 . S
C194 O212 1.259 1_565 S
C194 O213 1.268 . S
C195 Ho192 2.811 . S
C195 C196 1.488 1_556 S
C195 O214 1.215 . S
C195 O215 1.289 1_545 S
C196 C195 1.488 1_554 S
C196 C197 1.348 . S
C196 C201 1.413 . S
C197 C196 1.348 . S
C197 C198 1.442 . S
C197 H224 0.930 1_545 S
C198 C197 1.442 . S
C198 C199 1.381 . S
C198 H225 0.931 1_545 S
C199 C198 1.381 . S
C199 C200 1.321 . S
C200 C199 1.321 . S
C200 C201 1.403 . S
C200 H226 0.934 . S
C201 C196 1.413 . S
C201 C200 1.403 . S
C201 H227 0.930 1_554 S
C202 O216 1.275 . S
C202 O217 1.256 . S
C203 O218 1.259 1_545 S
C203 O219 1.268 . S
C204 Ho193 2.811 . S
C204 C205 1.488 . S
C204 O220 1.215 . S
C204 O221 1.289 1_565 S
C205 C204 1.488 . S
C205 C206 1.348 . S
C205 C210 1.413 . S
C206 C205 1.348 . S
C206 C207 1.442 . S
C206 H228 0.930 1_565 S
C207 C206 1.442 . S
C207 C208 1.381 . S
C207 H229 0.931 1_565 S
C208 C207 1.381 . S
C208 C209 1.321 . S
C209 C208 1.321 . S
C209 C210 1.403 . S
C209 H230 0.934 . S
C210 C205 1.413 . S
C210 C209 1.403 . S
C210 H231 0.930 . S
C211 O222 1.275 . S
C211 O223 1.256 . S
O212 Ho192 2.322 . S
O212 C194 1.259 1_545 S
O213 Ho193 2.346 . S
O213 C194 1.268 . S
O214 Ho192 2.378 . S
O214 C195 1.215 . S
O215 Ho192 2.524 1_565 S
O215 C195 1.289 1_565 S
O216 Ho192 2.381 . S
O216 C202 1.275 . S
O217 Ho192 2.669 . S
O217 Ho193 2.305 1_545 S
O217 C202 1.256 . S
O218 Ho193 2.322 . S
O218 C203 1.259 1_565 S
O219 Ho192 2.346 . S
O219 C203 1.268 . S
O220 Ho193 2.378 . S
O220 C204 1.215 . S
O221 Ho193 2.524 1_545 S
O221 C204 1.289 1_545 S
O222 Ho193 2.381 . S
O222 C211 1.275 . S
O223 Ho192 2.305 1_565 S
O223 Ho193 2.669 . S
O223 C211 1.256 . S
H224 C197 0.930 1_565 S
H225 C198 0.931 1_565 S
H226 C200 0.934 . S
H227 C201 0.930 1_556 S
H228 C206 0.930 1_545 S
H229 C207 0.931 1_545 S
H230 C209 0.934 . S
H231 C210 0.930 . S
Ho232 C235 2.811 . S
Ho232 O252 2.322 . S
Ho232 O254 2.378 . S
Ho232 O255 2.524 . S
Ho232 O256 2.381 . S
Ho232 O257 2.669 . S
Ho232 O259 2.346 . S
Ho232 O263 2.305 . S
Ho233 C244 2.811 . S
Ho233 O253 2.346 . S
Ho233 O257 2.305 . S
Ho233 O258 2.322 . S
Ho233 O260 2.378 . S
Ho233 O261 2.524 . S
Ho233 O262 2.381 . S
Ho233 O263 2.669 . S
C234 O252 1.259 . S
C234 O253 1.268 . S
C235 Ho232 2.811 . S
C235 C236 1.488 1_556 S
C235 O254 1.215 . S
C235 O255 1.289 . S
C236 C235 1.488 1_554 S
C236 C237 1.348 . S
C236 C241 1.413 . S
C237 C236 1.348 . S
C237 C238 1.442 . S
C237 H264 0.930 . S
C238 C237 1.442 . S
C238 C239 1.381 . S
C238 H265 0.931 . S
C239 C238 1.381 . S
C239 C240 1.321 . S
C240 C239 1.321 . S
C240 C241 1.403 . S
C240 H266 0.934 . S
C241 C236 1.413 . S
C241 C240 1.403 . S
C241 H267 0.930 1_554 S
C242 O256 1.275 . S
C242 O257 1.256 . S
C243 O258 1.259 . S
C243 O259 1.268 . S
C244 Ho233 2.811 . S
C244 C245 1.488 . S
C244 O260 1.215 . S
C244 O261 1.289 . S
C245 C244 1.488 . S
C245 C246 1.348 . S
C245 C250 1.413 . S
C246 C245 1.348 . S
C246 C247 1.442 . S
C246 H268 0.930 . S
C247 C246 1.442 . S
C247 C248 1.381 . S
C247 H269 0.931 . S
C248 C247 1.381 . S
C248 C249 1.321 . S
C249 C248 1.321 . S
C249 C250 1.403 . S
C249 H270 0.934 . S
C250 C245 1.413 . S
C250 C249 1.403 . S
C250 H271 0.930 . S
C251 O262 1.275 . S
C251 O263 1.256 . S
O252 Ho232 2.322 . S
O252 C234 1.259 . S
O253 Ho233 2.346 . S
O253 C234 1.268 . S
O254 Ho232 2.378 . S
O254 C235 1.215 . S
O255 Ho232 2.524 . S
O255 C235 1.289 . S
O256 Ho232 2.381 . S
O256 C242 1.275 . S
O257 Ho232 2.669 . S
O257 Ho233 2.305 . S
O257 C242 1.256 . S
O258 Ho233 2.322 . S
O258 C243 1.259 . S
O259 Ho232 2.346 . S
O259 C243 1.268 . S
O260 Ho233 2.378 . S
O260 C244 1.215 . S
O261 Ho233 2.524 . S
O261 C244 1.289 . S
O262 Ho233 2.381 . S
O262 C251 1.275 . S
O263 Ho232 2.305 . S
O263 Ho233 2.669 . S
O263 C251 1.256 . S
H264 C237 0.930 . S
H265 C238 0.931 . S
H266 C240 0.934 . S
H267 C241 0.930 1_556 S
H268 C246 0.930 . S
H269 C247 0.931 . S
H270 C249 0.934 . S
H271 C250 0.930 . S
Ho272 C275 2.811 . S
Ho272 O292 2.322 . S
Ho272 O294 2.378 . S
Ho272 O295 2.524 . S
Ho272 O296 2.381 . S
Ho272 O297 2.669 1_655 S
Ho272 O299 2.346 1_655 S
Ho272 O303 2.305 . S
Ho273 C284 2.811 . S
Ho273 O293 2.346 1_455 S
Ho273 O297 2.305 . S
Ho273 O298 2.322 . S
Ho273 O300 2.378 . S
Ho273 O301 2.524 . S
Ho273 O302 2.381 . S
Ho273 O303 2.669 1_455 S
C274 O292 1.259 . S
C274 O293 1.268 . S
C275 Ho272 2.811 . S
C275 C276 1.488 1_556 S
C275 O294 1.215 . S
C275 O295 1.289 . S
C276 C275 1.488 1_554 S
C276 C277 1.348 . S
C276 C281 1.413 . S
C277 C276 1.348 . S
C277 C278 1.442 . S
C277 H304 0.930 . S
C278 C277 1.442 . S
C278 C279 1.381 . S
C278 H305 0.931 . S
C279 C278 1.381 . S
C279 C280 1.321 . S
C280 C279 1.321 . S
C280 C281 1.403 . S
C280 H306 0.934 . S
C281 C276 1.413 . S
C281 C280 1.403 . S
C281 H307 0.930 1_554 S
C282 O296 1.294 . S
C282 O297 1.246 1_655 S
C283 O298 1.259 . S
C283 O299 1.268 . S
C284 Ho273 2.811 . S
C284 C285 1.488 . S
C284 O300 1.215 . S
C284 O301 1.289 . S
C285 C284 1.488 . S
C285 C286 1.348 . S
C285 C290 1.413 . S
C286 C285 1.348 . S
C286 C287 1.442 . S
C286 H308 0.930 . S
C287 C286 1.442 . S
C287 C288 1.381 . S
C287 H309 0.931 . S
C288 C287 1.381 . S
C288 C289 1.321 . S
C289 C288 1.321 . S
C289 C290 1.403 . S
C289 H310 0.934 . S
C290 C285 1.413 . S
C290 C289 1.403 . S
C290 H311 0.930 . S
C291 O302 1.275 . S
C291 O303 1.256 1_455 S
O292 Ho272 2.322 . S
O292 C274 1.259 . S
O293 Ho273 2.346 1_655 S
O293 C274 1.268 . S
O294 Ho272 2.378 . S
O294 C275 1.215 . S
O295 Ho272 2.524 . S
O295 C275 1.289 . S
O296 Ho272 2.381 . S
O296 C282 1.294 . S
O297 Ho272 2.669 1_455 S
O297 Ho273 2.305 . S
O297 C282 1.246 1_455 S
O298 Ho273 2.322 . S
O298 C283 1.259 . S
O299 Ho272 2.346 1_455 S
O299 C283 1.268 . S
O300 Ho273 2.378 . S
O300 C284 1.215 . S
O301 Ho273 2.524 . S
O301 C284 1.289 . S
O302 Ho273 2.381 . S
O302 C291 1.275 . S
O303 Ho272 2.305 . S
O303 Ho273 2.669 1_655 S
O303 C291 1.256 1_655 S
H304 C277 0.930 . S
H305 C278 0.931 . S
H306 C280 0.934 . S
H307 C281 0.930 1_556 S
H308 C286 0.930 . S
H309 C287 0.931 . S
H310 C289 0.934 . S
H311 C290 0.930 . S
H312 C318 0.930 . S
H313 C322 0.930 . S
H314 C327 0.929 . S
H315 C325 0.929 . S
H316 C320 0.929 . S
H317 C326 0.929 . S
C318 H312 0.930 . S
C318 C319 1.367 . S
C318 C326 1.378 . S
C319 C318 1.367 . S
C319 C327 1.433 1_545 S
C320 H316 0.929 . S
C320 C322 1.378 . S
C320 C324 1.327 1_565 S
C321 C324 1.464 . S
C321 C326 1.350 . S
C321 N329 1.427 1_545 S
C322 H313 0.930 . S
C322 C320 1.378 . S
C322 C323 1.367 1_565 S
C323 C322 1.367 1_545 S
C323 C325 1.433 . S
C324 C320 1.327 1_545 S
C324 C321 1.464 . S
C324 N328 1.452 . S
C325 H315 0.929 . S
C325 C323 1.433 . S
C325 N328 1.384 . S
C326 H317 0.929 . S
C326 C318 1.378 . S
C326 C321 1.350 . S
C327 H314 0.929 . S
C327 C319 1.433 1_565 S
C327 N329 1.384 . S
N328 C324 1.452 . S
N328 C325 1.384 . S
N329 C321 1.427 1_565 S
N329 C327 1.384 . S
H330 C336 0.930 . S
H331 C340 0.930 . S
H332 C345 0.929 . S
H333 C343 0.929 . S
H334 C338 0.929 . S
H335 C344 0.929 . S
C336 H330 0.930 . S
C336 C337 1.367 . S
C336 C344 1.378 . S
C337 C336 1.367 . S
C337 C345 1.433 . S
C338 H334 0.929 . S
C338 C340 1.378 . S
C338 C342 1.350 . S
C339 C342 1.463 . S
C339 C344 1.350 . S
C339 N347 1.427 . S
C340 H331 0.930 . S
C340 C338 1.378 . S
C340 C341 1.367 . S
C341 C340 1.367 . S
C341 C343 1.433 . S
C342 C338 1.350 . S
C342 C339 1.463 . S
C342 N346 1.427 . S
C343 H333 0.929 . S
C343 C341 1.433 . S
C343 N346 1.384 . S
C344 H335 0.929 . S
C344 C336 1.378 . S
C344 C339 1.350 . S
C345 H332 0.929 . S
C345 C337 1.433 . S
C345 N347 1.384 . S
N346 C342 1.427 . S
N346 C343 1.384 . S
N347 C339 1.427 . S
N347 C345 1.384 . S
H348 C354 0.930 . S
H349 C358 0.930 . S
H350 C363 0.929 . S
H351 C361 0.929 . S
H352 C356 0.929 . S
H353 C362 0.929 . S
C354 H348 0.930 . S
C354 C355 1.367 . S
C354 C362 1.378 . S
C355 C354 1.367 . S
C355 C363 1.433 . S
C356 H352 0.929 . S
C356 C358 1.378 . S
C356 C360 1.350 . S
C357 C360 1.463 . S
C357 C362 1.350 . S
C357 N365 1.427 . S
C358 H349 0.930 . S
C358 C356 1.378 . S
C358 C359 1.367 . S
C359 C358 1.367 . S
C359 C361 1.433 . S
C360 C356 1.350 . S
C360 C357 1.463 . S
C360 N364 1.427 . S
C361 H351 0.929 . S
C361 C359 1.433 . S
C361 N364 1.384 . S
C362 H353 0.929 . S
C362 C354 1.378 . S
C362 C357 1.350 . S
C363 H350 0.929 . S
C363 C355 1.433 . S
C363 N365 1.384 . S
N364 C360 1.427 . S
N364 C361 1.384 . S
N365 C357 1.427 . S
N365 C363 1.384 . S
H366 C372 0.930 . S
H367 C376 0.930 . S
H368 C381 0.929 . S
H369 C379 0.929 . S
H370 C374 0.929 . S
H371 C380 0.929 . S
C372 H366 0.930 . S
C372 C373 1.367 . S
C372 C380 1.378 . S
C373 C372 1.367 . S
C373 C381 1.433 1_455 S
C374 H370 0.929 . S
C374 C376 1.378 . S
C374 C378 1.332 1_655 S
C375 C378 1.464 . S
C375 C380 1.350 . S
C375 N383 1.427 1_455 S
C376 H367 0.930 . S
C376 C374 1.378 . S
C376 C377 1.367 1_655 S
C377 C376 1.367 1_455 S
C377 C379 1.433 . S
C378 C374 1.332 1_455 S
C378 C375 1.464 . S
C378 N382 1.446 . S
C379 H369 0.929 . S
C379 C377 1.433 . S
C379 N382 1.384 . S
C380 H371 0.929 . S
C380 C372 1.378 . S
C380 C375 1.350 . S
C381 H368 0.929 . S
C381 C373 1.433 1_655 S
C381 N383 1.384 . S
N382 C378 1.446 . S
N382 C379 1.384 . S
N383 C375 1.427 1_655 S
N383 C381 1.384 . S
H384 C390 0.930 . S
H385 C394 0.930 1_554 S
H386 C399 0.929 . S
H387 C397 0.929 . S
H388 C392 0.929 . S
H389 C398 0.929 . S
C390 H384 0.930 . S
C390 C391 1.380 . S
C390 C398 1.378 . S
C391 C390 1.380 . S
C391 C399 1.421 1_565 S
C392 H388 0.929 . S
C392 C394 1.378 1_554 S
C392 C396 1.343 1_545 S
C393 C396 1.463 . S
C393 C398 1.350 . S
C393 N401 1.427 1_565 S
C394 H385 0.930 1_556 S
C394 C392 1.378 1_556 S
C394 C395 1.343 1_545 S
C395 C394 1.343 1_565 S
C395 C397 1.458 . S
C396 C392 1.343 1_565 S
C396 C393 1.463 . S
C396 N400 1.435 1_554 S
C397 H387 0.929 . S
C397 C395 1.458 . S
C397 N400 1.384 . S
C398 H389 0.929 . S
C398 C390 1.378 . S
C398 C393 1.350 . S
C399 H386 0.929 . S
C399 C391 1.421 1_545 S
C399 N401 1.384 . S
N400 C396 1.435 1_556 S
N400 C397 1.384 . S
N401 C393 1.427 1_545 S
N401 C399 1.384 . S
H402 C408 0.930 . S
H403 C412 0.930 . S
H404 C417 0.929 . S
H405 C415 0.929 . S
H406 C410 0.929 . S
H407 C416 0.929 . S
C408 H402 0.930 . S
C408 C409 1.367 . S
C408 C416 1.378 . S
C409 C408 1.367 . S
C409 C417 1.433 . S
C410 H406 0.929 . S
C410 C412 1.378 . S
C410 C414 1.350 1_556 S
C411 C414 1.463 . S
C411 C416 1.350 . S
C411 N419 1.427 . S
C412 H403 0.930 . S
C412 C410 1.378 . S
C412 C413 1.367 . S
C413 C412 1.367 . S
C413 C415 1.433 . S
C414 C410 1.350 1_554 S
C414 C411 1.463 . S
C414 N418 1.427 . S
C415 H405 0.929 . S
C415 C413 1.433 . S
C415 N418 1.384 1_556 S
C416 H407 0.929 . S
C416 C408 1.378 . S
C416 C411 1.350 . S
C417 H404 0.929 . S
C417 C409 1.433 . S
C417 N419 1.384 . S
N418 C414 1.427 . S
N418 C415 1.384 1_554 S
N419 C411 1.427 . S
N419 C417 1.384 . S
H420 C426 0.930 . S
H421 C430 0.930 . S
H422 C435 0.929 . S
H423 C433 0.929 . S
H424 C428 0.929 . S
H425 C434 0.929 . S
C426 H420 0.930 . S
C426 C427 1.367 . S
C426 C434 1.378 . S
C427 C426 1.367 . S
C427 C435 1.433 . S
C428 H424 0.929 . S
C428 C430 1.378 . S
C428 C432 1.350 . S
C429 C432 1.463 . S
C429 C434 1.350 . S
C429 N437 1.427 . S
C430 H421 0.930 . S
C430 C428 1.378 . S
C430 C431 1.367 1_554 S
C431 C430 1.367 1_556 S
C431 C433 1.433 . S
C432 C428 1.350 . S
C432 C429 1.463 . S
C432 N436 1.427 1_554 S
C433 H423 0.929 . S
C433 C431 1.433 . S
C433 N436 1.384 . S
C434 H425 0.929 . S
C434 C426 1.378 . S
C434 C429 1.350 . S
C435 H422 0.929 . S
C435 C427 1.433 . S
C435 N437 1.384 . S
N436 C432 1.427 1_556 S
N436 C433 1.384 . S
N437 C429 1.427 . S
N437 C435 1.384 . S
H438 C444 0.930 . S
H439 C448 0.930 . S
H440 C453 0.929 . S
H441 C451 0.929 . S
H442 C446 0.929 . S
H443 C452 0.929 . S
C444 H438 0.930 . S
C444 C445 1.394 . S
C444 C452 1.378 . S
C445 C444 1.394 . S
C445 C453 1.406 1_655 S
C446 H442 0.929 . S
C446 C448 1.378 . S
C446 C450 1.342 1_456 S
C447 C450 1.463 . S
C447 C452 1.350 . S
C447 N455 1.427 1_655 S
C448 H439 0.930 . S
C448 C446 1.378 . S
C448 C449 1.335 1_455 S
C449 C448 1.335 1_655 S
C449 C451 1.466 . S
C450 C446 1.342 1_654 S
C450 C447 1.463 . S
C450 N454 1.436 . S
C451 H441 0.929 . S
C451 C449 1.466 . S
C451 N454 1.384 1_556 S
C452 H443 0.929 . S
C452 C444 1.378 . S
C452 C447 1.350 . S
C453 H440 0.929 . S
C453 C445 1.406 1_455 S
C453 N455 1.384 . S
N454 C450 1.436 . S
N454 C451 1.384 1_554 S
N455 C447 1.427 1_455 S
N455 C453 1.384 . S
H456 C462 0.930 . S
H457 C466 0.930 . S
H458 C471 0.929 1_556 S
H459 C469 0.929 . S
H460 C464 0.929 . S
H461 C470 0.929 . S
C462 H456 0.930 . S
C462 C463 1.367 1_655 S
C462 C470 1.378 . S
C463 C462 1.367 1_455 S
C463 C471 1.433 . S
C464 H460 0.929 . S
C464 C466 1.378 . S
C464 C468 1.350 . S
C465 C468 1.463 . S
C465 C470 1.350 . S
C465 N473 1.427 1_655 S
C466 H457 0.930 . S
C466 C464 1.378 . S
C466 C467 1.367 . S
C467 C466 1.367 . S
C467 C469 1.433 . S
C468 C464 1.350 . S
C468 C465 1.463 . S
C468 N472 1.427 . S
C469 H459 0.929 . S
C469 C467 1.433 . S
C469 N472 1.384 . S
C470 H461 0.929 . S
C470 C462 1.378 . S
C470 C465 1.350 . S
C471 H458 0.929 1_554 S
C471 C463 1.433 . S
C471 N473 1.384 . S
N472 C468 1.427 . S
N472 C469 1.384 . S
N473 C465 1.427 1_455 S
N473 C471 1.384 . S
H474 C480 0.930 . S
H475 C484 0.930 1_545 S
H476 C489 0.929 . S
H477 C487 0.929 . S
H478 C482 0.925 1_545 S
H479 C488 0.929 . S
C480 H474 0.930 . S
C480 C481 1.367 1_565 S
C480 C488 1.378 . S
C481 C480 1.367 1_545 S
C481 C489 1.433 . S
C482 H478 0.925 1_565 S
C482 C484 1.379 . S
C482 C486 1.352 . S
C483 C486 1.463 . S
C483 C488 1.350 . S
C483 N491 1.427 1_565 S
C484 H475 0.930 1_565 S
C484 C482 1.379 . S
C484 C485 1.367 . S
C485 C484 1.367 . S
C485 C487 1.433 . S
C486 C482 1.352 . S
C486 C483 1.463 . S
C486 N490 1.427 . S
C487 H477 0.929 . S
C487 C485 1.433 . S
C487 N490 1.384 . S
C488 H479 0.929 . S
C488 C480 1.378 . S
C488 C483 1.350 . S
C489 H476 0.929 . S
C489 C481 1.433 . S
C489 N491 1.384 . S
N490 C486 1.427 . S
N490 C487 1.384 . S
N491 C483 1.427 1_545 S
N491 C489 1.384 . S
H492 C498 0.930 . S
H493 C502 0.930 . S
H494 C507 0.929 . S
H495 C505 0.929 . S
H496 C500 0.929 . S
H497 C506 0.929 . S
C498 H492 0.930 . S
C498 C499 1.367 . S
C498 C506 1.378 . S
C499 C498 1.367 . S
C499 C507 1.433 . S
C500 H496 0.929 . S
C500 C502 1.378 . S
C500 C504 1.350 . S
C501 C504 1.463 . S
C501 C506 1.350 . S
C501 N509 1.427 . S
C502 H493 0.930 . S
C502 C500 1.378 . S
C502 C503 1.367 . S
C503 C502 1.367 . S
C503 C505 1.433 . S
C504 C500 1.350 . S
C504 C501 1.463 . S
C504 N508 1.427 . S
C505 H495 0.929 . S
C505 C503 1.433 . S
C505 N508 1.384 . S
C506 H497 0.929 . S
C506 C498 1.378 . S
C506 C501 1.350 . S
C507 H494 0.929 . S
C507 C499 1.433 . S
C507 N509 1.384 . S
N508 C504 1.427 . S
N508 C505 1.384 . S
N509 C501 1.427 . S
N509 C507 1.384 . S
H510 C516 0.930 . S
H511 C520 0.930 . S
H512 C525 0.929 1_556 S
H513 C523 0.929 . S
H514 C518 0.929 . S
H515 C524 0.929 . S
C516 H510 0.930 . S
C516 C517 1.367 . S
C516 C524 1.378 . S
C517 C516 1.367 . S
C517 C525 1.433 . S
C518 H514 0.929 . S
C518 C520 1.378 . S
C518 C522 1.350 . S
C519 C522 1.463 . S
C519 C524 1.350 . S
C519 N527 1.427 . S
C520 H511 0.930 . S
C520 C518 1.378 . S
C520 C521 1.367 . S
C521 C520 1.367 . S
C521 C523 1.433 . S
C522 C518 1.350 . S
C522 C519 1.463 . S
C522 N526 1.427 . S
C523 H513 0.929 . S
C523 C521 1.433 . S
C523 N526 1.384 . S
C524 H515 0.929 . S
C524 C516 1.378 . S
C524 C519 1.350 . S
C525 H512 0.929 1_554 S
C525 C517 1.433 . S
C525 N527 1.384 . S
N526 C522 1.427 . S
N526 C523 1.384 . S
N527 C519 1.427 . S
N527 C525 1.384 . S
H528 C534 0.930 . S
H529 C538 0.930 1_655 S
H530 C543 0.929 . S
H531 C541 0.929 . S
H532 C536 0.882 1_655 S
H533 C542 0.929 . S
C534 H528 0.930 . S
C534 C535 1.330 1_455 S
C534 C542 1.378 . S
C535 C534 1.330 1_655 S
C535 C543 1.461 . S
C536 H532 0.882 1_455 S
C536 C538 1.392 . S
C536 C540 1.385 . S
C537 C540 1.463 . S
C537 C542 1.350 . S
C537 N545 1.427 1_455 S
C538 H529 0.930 1_455 S
C538 C536 1.392 . S
C538 C539 1.367 . S
C539 C538 1.367 . S
C539 C541 1.433 . S
C540 C536 1.385 . S
C540 C537 1.463 . S
C540 N544 1.427 . S
C541 H531 0.929 . S
C541 C539 1.433 . S
C541 N544 1.384 . S
C542 H533 0.929 . S
C542 C534 1.378 . S
C542 C537 1.350 . S
C543 H530 0.929 . S
C543 C535 1.461 . S
C543 N545 1.384 . S
N544 C540 1.427 . S
N544 C541 1.384 . S
N545 C537 1.427 1_655 S
N545 C543 1.384 . S
H546 C552 0.930 . S
H547 C556 0.930 . S
H548 C561 0.929 . S
H549 C559 0.929 1_565 S
H550 C554 0.929 . S
H551 C560 0.929 . S
C552 H546 0.930 . S
C552 C553 1.367 . S
C552 C560 1.378 . S
C553 C552 1.367 . S
C553 C561 1.433 1_565 S
C554 H550 0.929 . S
C554 C556 1.378 . S
C554 C558 1.350 . S
C555 C558 1.463 . S
C555 C560 1.350 1_545 S
C555 N563 1.427 . S
C556 H547 0.930 . S
C556 C554 1.378 . S
C556 C557 1.367 . S
C557 C556 1.367 . S
C557 C559 1.433 . S
C558 C554 1.350 . S
C558 C555 1.463 . S
C558 N562 1.451 . S
C559 H549 0.929 1_545 S
C559 C557 1.433 . S
C559 N562 1.392 . S
C560 H551 0.929 . S
C560 C552 1.378 . S
C560 C555 1.350 1_565 S
C561 H548 0.929 . S
C561 C553 1.433 1_545 S
C561 N563 1.384 . S
N562 C558 1.451 . S
N562 C559 1.392 . S
N563 C555 1.427 . S
N563 C561 1.384 . S
H564 C570 0.930 . S
H565 C574 0.930 . S
H566 C579 0.929 . S
H567 C577 0.929 1_556 S
H568 C572 0.929 . S
H569 C578 0.929 . S
C570 H564 0.930 . S
C570 C571 1.367 . S
C570 C578 1.378 . S
C571 C570 1.367 . S
C571 C579 1.433 . S
C572 H568 0.929 . S
C572 C574 1.378 . S
C572 C576 1.350 . S
C573 C576 1.463 . S
C573 C578 1.350 . S
C573 N581 1.427 . S
C574 H565 0.930 . S
C574 C572 1.378 . S
C574 C575 1.367 . S
C575 C574 1.367 . S
C575 C577 1.433 . S
C576 C572 1.350 . S
C576 C573 1.463 . S
C576 N580 1.427 . S
C577 H567 0.929 1_554 S
C577 C575 1.433 . S
C577 N580 1.384 . S
C578 H569 0.929 . S
C578 C570 1.378 . S
C578 C573 1.350 . S
C579 H566 0.929 . S
C579 C571 1.433 . S
C579 N581 1.384 . S
N580 C576 1.427 . S
N580 C577 1.384 . S
N581 C573 1.427 . S
N581 C579 1.384 . S
H582 C588 0.930 . S
H583 C592 0.930 . S
H584 C597 0.929 . S
H585 C595 0.929 . S
H586 C590 0.929 . S
H587 C596 0.929 . S
C588 H582 0.930 . S
C588 C589 1.367 . S
C588 C596 1.378 . S
C589 C588 1.367 . S
C589 C597 1.433 . S
C590 H586 0.929 . S
C590 C592 1.378 . S
C590 C594 1.350 . S
C591 C594 1.463 . S
C591 C596 1.350 . S
C591 N599 1.427 . S
C592 H583 0.930 . S
C592 C590 1.378 . S
C592 C593 1.367 . S
C593 C592 1.367 . S
C593 C595 1.433 . S
C594 C590 1.350 . S
C594 C591 1.463 . S
C594 N598 1.427 . S
C595 H585 0.929 . S
C595 C593 1.433 . S
C595 N598 1.384 . S
C596 H587 0.929 . S
C596 C588 1.378 . S
C596 C591 1.350 . S
C597 H584 0.929 . S
C597 C589 1.433 . S
C597 N599 1.384 . S
N598 C594 1.427 . S
N598 C595 1.384 . S
N599 C591 1.427 . S
N599 C597 1.384 . S
H600 C606 0.930 . S
H601 C610 0.930 . S
H602 C615 0.929 . S
H603 C613 0.929 . S
H604 C608 0.929 . S
H605 C614 0.929 . S
C606 H600 0.930 . S
C606 C607 1.367 1_655 S
C606 C614 1.378 . S
C607 C606 1.367 1_455 S
C607 C615 1.433 . S
C608 H604 0.929 . S
C608 C610 1.378 . S
C608 C612 1.350 . S
C609 C612 1.463 . S
C609 C614 1.350 1_455 S
C609 N617 1.427 . S
C610 H601 0.930 . S
C610 C608 1.378 . S
C610 C611 1.367 . S
C611 C610 1.367 . S
C611 C613 1.433 1_455 S
C612 C608 1.350 . S
C612 C609 1.463 . S
C612 N616 1.427 1_455 S
C613 H603 0.929 . S
C613 C611 1.433 1_655 S
C613 N616 1.384 . S
C614 H605 0.929 . S
C614 C606 1.378 . S
C614 C609 1.350 1_655 S
C615 H602 0.929 . S
C615 C607 1.433 . S
C615 N617 1.384 . S
N616 C612 1.427 1_655 S
N616 C613 1.384 . S
N617 C609 1.427 . S
N617 C615 1.384 . S
H618 C624 0.930 . S
H619 C628 0.930 1_565 S
H620 C633 0.929 . S
H621 C631 0.929 . S
H622 C626 0.924 1_565 S
H623 C632 0.929 . S
C624 H618 0.930 . S
C624 C625 1.367 . S
C624 C632 1.378 . S
C625 C624 1.367 . S
C625 C633 1.433 1_545 S
C626 H622 0.924 1_545 S
C626 C628 1.379 . S
C626 C630 1.354 . S
C627 C630 1.463 . S
C627 C632 1.350 . S
C627 N635 1.427 1_545 S
C628 H619 0.930 1_545 S
C628 C626 1.379 . S
C628 C629 1.367 . S
C629 C628 1.367 . S
C629 C631 1.433 . S
C630 C626 1.354 . S
C630 C627 1.463 . S
C630 N634 1.427 . S
C631 H621 0.929 . S
C631 C629 1.433 . S
C631 N634 1.384 . S
C632 H623 0.929 . S
C632 C624 1.378 . S
C632 C627 1.350 . S
C633 H620 0.929 . S
C633 C625 1.433 1_565 S
C633 N635 1.384 . S
N634 C630 1.427 . S
N634 C631 1.384 . S
N635 C627 1.427 1_565 S
N635 C633 1.384 . S
H636 C642 0.930 . S
H637 C646 0.930 . S
H638 C651 0.929 . S
H639 C649 0.929 . S
H640 C644 0.929 . S
H641 C650 0.929 . S
C642 H636 0.930 . S
C642 C643 1.367 . S
C642 C650 1.378 . S
C643 C642 1.367 . S
C643 C651 1.433 . S
C644 H640 0.929 . S
C644 C646 1.378 . S
C644 C648 1.350 . S
C645 C648 1.463 . S
C645 C650 1.350 . S
C645 N653 1.427 . S
C646 H637 0.930 . S
C646 C644 1.378 . S
C646 C647 1.367 . S
C647 C646 1.367 . S
C647 C649 1.433 . S
C648 C644 1.350 . S
C648 C645 1.463 . S
C648 N652 1.427 . S
C649 H639 0.929 . S
C649 C647 1.433 . S
C649 N652 1.384 . S
C650 H641 0.929 . S
C650 C642 1.378 . S
C650 C645 1.350 . S
C651 H638 0.929 . S
C651 C643 1.433 . S
C651 N653 1.384 . S
N652 C648 1.427 . S
N652 C649 1.384 . S
N653 C645 1.427 . S
N653 C651 1.384 . S
H654 C660 0.930 . S
H655 C664 0.930 . S
H656 C669 0.929 . S
H657 C667 0.929 . S
H658 C662 0.929 . S
H659 C668 0.929 . S
C660 H654 0.930 . S
C660 C661 1.367 . S
C660 C668 1.378 . S
C661 C660 1.367 . S
C661 C669 1.433 . S
C662 H658 0.929 . S
C662 C664 1.378 . S
C662 C666 1.350 . S
C663 C666 1.463 . S
C663 C668 1.350 . S
C663 N671 1.427 . S
C664 H655 0.930 . S
C664 C662 1.378 . S
C664 C665 1.367 . S
C665 C664 1.367 . S
C665 C667 1.433 . S
C666 C662 1.350 . S
C666 C663 1.463 . S
C666 N670 1.427 . S
C667 H657 0.929 . S
C667 C665 1.433 . S
C667 N670 1.384 . S
C668 H659 0.929 . S
C668 C660 1.378 . S
C668 C663 1.350 . S
C669 H656 0.929 . S
C669 C661 1.433 . S
C669 N671 1.384 . S
N670 C666 1.427 . S
N670 C667 1.384 . S
N671 C663 1.427 . S
N671 C669 1.384 . S
H672 C678 0.929 1_455 S
H673 C682 0.930 . S
H674 C687 0.929 . S
H675 C685 0.929 . S
H676 C680 0.929 . S
H677 C686 0.929 . S
C678 H672 0.929 1_655 S
C678 C679 1.367 . S
C678 C686 1.378 . S
C679 C678 1.367 . S
C679 C687 1.433 . S
C680 H676 0.929 . S
C680 C682 1.378 . S
C680 C684 1.350 . S
C681 C684 1.463 . S
C681 C686 1.350 . S
C681 N689 1.427 . S
C682 H673 0.930 . S
C682 C680 1.378 . S
C682 C683 1.367 . S
C683 C682 1.367 . S
C683 C685 1.433 . S
C684 C680 1.350 . S
C684 C681 1.463 . S
C684 N688 1.427 . S
C685 H675 0.929 . S
C685 C683 1.433 . S
C685 N688 1.384 . S
C686 H677 0.929 . S
C686 C678 1.378 . S
C686 C681 1.350 . S
C687 H674 0.929 . S
C687 C679 1.433 . S
C687 N689 1.384 . S
N688 C684 1.427 . S
N688 C685 1.384 . S
N689 C681 1.427 . S
N689 C687 1.384 . S
H690 C696 0.930 . S
H691 C700 0.930 . S
H692 C705 0.929 . S
H693 C703 0.929 . S
H694 C698 0.929 . S
H695 C704 0.929 . S
C696 H690 0.930 . S
C696 C697 1.367 1_545 S
C696 C704 1.378 . S
C697 C696 1.367 1_565 S
C697 C705 1.433 . S
C698 H694 0.929 . S
C698 C700 1.378 . S
C698 C702 1.350 . S
C699 C702 1.463 . S
C699 C704 1.350 1_565 S
C699 N707 1.427 . S
C700 H691 0.930 . S
C700 C698 1.378 . S
C700 C701 1.367 . S
C701 C700 1.367 . S
C701 C703 1.433 1_565 S
C702 C698 1.350 . S
C702 C699 1.463 . S
C702 N706 1.427 1_565 S
C703 H693 0.929 . S
C703 C701 1.433 1_545 S
C703 N706 1.384 . S
C704 H695 0.929 . S
C704 C696 1.378 . S
C704 C699 1.350 1_545 S
C705 H692 0.929 . S
C705 C697 1.433 . S
C705 N707 1.384 . S
N706 C702 1.427 1_545 S
N706 C703 1.384 . S
N707 C699 1.427 . S
N707 C705 1.384 . S
H708 C714 0.930 . S
H709 C718 0.930 . S
H710 C723 0.929 . S
H711 C721 0.929 . S
H712 C716 0.929 . S
H713 C722 0.929 . S
C714 H708 0.930 . S
C714 C715 1.367 . S
C714 C722 1.378 . S
C715 C714 1.367 . S
C715 C723 1.433 . S
C716 H712 0.929 . S
C716 C718 1.378 . S
C716 C720 1.350 . S
C717 C720 1.463 . S
C717 C722 1.350 . S
C717 N725 1.427 . S
C718 H709 0.930 . S
C718 C716 1.378 . S
C718 C719 1.367 . S
C719 C718 1.367 . S
C719 C721 1.433 . S
C720 C716 1.350 . S
C720 C717 1.463 . S
C720 N724 1.427 . S
C721 H711 0.929 . S
C721 C719 1.433 . S
C721 N724 1.384 . S
C722 H713 0.929 . S
C722 C714 1.378 . S
C722 C717 1.350 . S
C723 H710 0.929 . S
C723 C715 1.433 . S
C723 N725 1.384 . S
N724 C720 1.427 . S
N724 C721 1.384 . S
N725 C717 1.427 . S
N725 C723 1.384 . S
H726 C732 0.930 . S
H727 C736 0.930 . S
H728 C741 0.929 . S
H729 C739 0.929 . S
H730 C734 0.929 . S
H731 C740 0.929 . S
C732 H726 0.930 . S
C732 C733 1.367 . S
C732 C740 1.378 . S
C733 C732 1.367 . S
C733 C741 1.433 . S
C734 H730 0.929 . S
C734 C736 1.378 . S
C734 C738 1.350 . S
C735 C738 1.463 . S
C735 C740 1.350 . S
C735 N743 1.427 . S
C736 H727 0.930 . S
C736 C734 1.378 . S
C736 C737 1.367 . S
C737 C736 1.367 . S
C737 C739 1.433 . S
C738 C734 1.350 . S
C738 C735 1.463 . S
C738 N742 1.427 . S
C739 H729 0.929 . S
C739 C737 1.433 . S
C739 N742 1.384 . S
C740 H731 0.929 . S
C740 C732 1.378 . S
C740 C735 1.350 . S
C741 H728 0.929 . S
C741 C733 1.433 . S
C741 N743 1.384 . S
N742 C738 1.427 . S
N742 C739 1.384 . S
N743 C735 1.427 . S
N743 C741 1.384 . S
C319 C125 1.915 1_545 S
C323 C162 1.949 1_545 S
C341 C202 1.955 . S
C337 C144 1.909 . S
C359 C242 1.955 . S
C355 C87 1.907 . S
C377 C282 1.948 1_455 S
C373 C106 1.915 1_455 S
C395 C171 1.950 1_565 S
C391 C49 1.910 . S
C409 C68 1.902 . S
C413 C211 1.949 . S
C427 C11 1.910 . S
C431 C251 1.954 . S
C445 C30 1.911 . S
C449 C291 1.949 1_655 S
C467 C168 0.540 . S
C463 C97 0.594 . S
C485 C208 0.528 . S
C481 C116 0.572 . S
C503 C248 0.532 . S
C499 C135 0.582 . S
C517 C78 0.600 . S
C521 C288 0.557 . S
C535 C21 0.574 . S
C539 C159 0.529 . S
C557 C199 0.559 . S
C553 C40 0.585 . S
C575 C239 0.548 . S
C571 C59 0.598 . S
C589 C2 0.587 . S
C593 C279 0.558 . S
C607 C101 2.052 . S
C611 C163 2.284 . S
C625 C120 2.066 . S
C629 C203 2.282 . S
C647 C243 2.283 . S
C643 C139 2.049 . S
C665 C283 2.279 . S
C661 C82 2.059 . S
C679 C25 2.066 . S
C683 C154 2.284 . S
C701 C194 2.283 . S
C697 C44 2.048 . S
C719 C234 2.284 . S
C715 C63 2.061 . S
C733 C6 2.064 . S
C737 C274 2.285 . S
