# Generated by pormake.
# Topology dag, (6,3)-cn, num edge types: 1
# Building blocks:
#     Node 0, Type 0, BuildingBlock: IZENUY_clean_sbu_0, # of connection points: 6
#     Node 1, Type 0, BuildingBlock: IZENUY_clean_sbu_0, # of connection points: 6
#     Node 2, Type 0, BuildingBlock: IZENUY_clean_sbu_0, # of connection points: 6
#     Node 3, Type 0, BuildingBlock: IZENUY_clean_sbu_0, # of connection points: 6
#     Node 4, Type 1, BuildingBlock: MIDCAF_clean_linker_0, # of connection points: 3
#     Node 5, Type 1, BuildingBlock: MIDCAF_clean_linker_0, # of connection points: 3
#     Node 6, Type 1, BuildingBlock: MIDCAF_clean_linker_0, # of connection points: 3
#     Node 7, Type 1, BuildingBlock: MIDCAF_clean_linker_0, # of connection points: 3
#     Node 8, Type 1, BuildingBlock: MIDCAF_clean_linker_0, # of connection points: 3
#     Node 9, Type 1, BuildingBlock: MIDCAF_clean_linker_0, # of connection points: 3
#     Node 10, Type 1, BuildingBlock: MIDCAF_clean_linker_0, # of connection points: 3
#     Node 11, Type 1, BuildingBlock: MIDCAF_clean_linker_0, # of connection points: 3
#     Edge 12, Type (0, 1), BuildingBlock: UVAHIK_clean_linker_0, # of connection points: 2
#     Edge 13, Type (0, 1), BuildingBlock: UVAHIK_clean_linker_0, # of connection points: 2
#     Edge 14, Type (0, 1), BuildingBlock: UVAHIK_clean_linker_0, # of connection points: 2
#     Edge 15, Type (0, 1), BuildingBlock: UVAHIK_clean_linker_0, # of connection points: 2
#     Edge 16, Type (0, 1), BuildingBlock: UVAHIK_clean_linker_0, # of connection points: 2
#     Edge 17, Type (0, 1), BuildingBlock: UVAHIK_clean_linker_0, # of connection points: 2
#     Edge 18, Type (0, 1), BuildingBlock: UVAHIK_clean_linker_0, # of connection points: 2
#     Edge 19, Type (0, 1), BuildingBlock: UVAHIK_clean_linker_0, # of connection points: 2
#     Edge 20, Type (0, 1), BuildingBlock: UVAHIK_clean_linker_0, # of connection points: 2
#     Edge 21, Type (0, 1), BuildingBlock: UVAHIK_clean_linker_0, # of connection points: 2
#     Edge 22, Type (0, 1), BuildingBlock: UVAHIK_clean_linker_0, # of connection points: 2
#     Edge 23, Type (0, 1), BuildingBlock: UVAHIK_clean_linker_0, # of connection points: 2
#     Edge 24, Type (0, 1), BuildingBlock: UVAHIK_clean_linker_0, # of connection points: 2
#     Edge 25, Type (0, 1), BuildingBlock: UVAHIK_clean_linker_0, # of connection points: 2
#     Edge 26, Type (0, 1), BuildingBlock: UVAHIK_clean_linker_0, # of connection points: 2
#     Edge 27, Type (0, 1), BuildingBlock: UVAHIK_clean_linker_0, # of connection points: 2
#     Edge 28, Type (0, 1), BuildingBlock: UVAHIK_clean_linker_0, # of connection points: 2
#     Edge 29, Type (0, 1), BuildingBlock: UVAHIK_clean_linker_0, # of connection points: 2
#     Edge 30, Type (0, 1), BuildingBlock: UVAHIK_clean_linker_0, # of connection points: 2
#     Edge 31, Type (0, 1), BuildingBlock: UVAHIK_clean_linker_0, # of connection points: 2
#     Edge 32, Type (0, 1), BuildingBlock: UVAHIK_clean_linker_0, # of connection points: 2
#     Edge 33, Type (0, 1), BuildingBlock: UVAHIK_clean_linker_0, # of connection points: 2
#     Edge 34, Type (0, 1), BuildingBlock: UVAHIK_clean_linker_0, # of connection points: 2
#     Edge 35, Type (0, 1), BuildingBlock: UVAHIK_clean_linker_0, # of connection points: 2
# Relax obj value: 0.260
# Max RMSD: 0.197
# Mean RMSD: 0.161
data_MOF--net-dag--node1-IZENUY_clean_sbu_0--node2-MIDCAF_clean_linker_0--edge1-UVAHIK_clean_linker_0
_symmetry_space_group_name_H-M    P1
_symmetry_Int_Tables_number       1
_symmetry_cell_setting            triclinic
loop_
_symmetry_equiv_pos_as_xyz
'x, y, z'
_cell_length_a     57.366913
_cell_length_b     59.510642
_cell_length_c     50.370349
_cell_angle_alpha  95.051367
_cell_angle_beta   90.239076
_cell_angle_gamma 90.069748
loop_
_atom_site_label
_atom_site_type_symbol
_atom_site_fract_x
_atom_site_fract_y
_atom_site_fract_z
_atom_type_partial_charge
Fe0 Fe 0.1822 0.83852 0.08115 0.0
Fe1 Fe 0.13827 0.85226 0.05187 0.0
O2 O 0.1568 0.83095 0.06218 0.0
Fe3 Fe 0.14993 0.80207 0.05365 0.0
O4 O 0.14837 0.7967 0.08848 0.0
O5 O 0.18133 0.81373 0.10031 0.0
O6 O 0.16531 0.85304 0.10769 0.0
C7 C 0.15071 0.86837 0.10453 0.0
C8 C 0.19896 0.80397 0.04732 0.0
O9 O 0.1433 0.87186 0.08154 0.0
C10 C 0.13952 0.8201 0.00704 0.0
O11 O 0.1876 0.86484 0.06556 0.0
O12 O 0.16151 0.86434 0.03353 0.0
O13 O 0.18051 0.79295 0.05108 0.0
O14 O 0.20076 0.82446 0.0559 0.0
C15 C 0.10599 0.82177 0.06605 0.0
O16 O 0.12987 0.83653 0.02037 0.0
O17 O 0.15092 0.80549 0.01826 0.0
C18 C 0.1807 0.87112 0.04349 0.0
O19 O 0.11383 0.84158 0.06957 0.0
O20 O 0.1181 0.80604 0.05455 0.0
C21 C 0.16443 0.80107 0.10532 0.0
Fe22 Fe 0.68028 0.65955 0.48079 0.0
Fe23 Fe 0.64961 0.69647 0.5093 0.0
O24 O 0.65573 0.66754 0.50066 0.0
Fe25 Fe 0.63719 0.64665 0.51185 0.0
O26 O 0.66035 0.62576 0.5148 0.0
O27 O 0.69271 0.64357 0.50634 0.0
O28 O 0.69851 0.68342 0.49428 0.0
C29 C 0.69691 0.69597 0.51589 0.0
C30 C 0.64507 0.62919 0.46068 0.0
O31 O 0.67732 0.70043 0.52632 0.0
C32 C 0.6058 0.68044 0.49804 0.0
O33 O 0.66949 0.6748 0.45385 0.0
O34 O 0.66132 0.70617 0.47827 0.0
O35 O 0.63026 0.63589 0.47801 0.0
O36 O 0.66644 0.63427 0.4638 0.0
C37 C 0.63928 0.67594 0.55652 0.0
O38 O 0.62146 0.69425 0.49283 0.0
O39 O 0.61057 0.66368 0.51095 0.0
C40 C 0.66452 0.69548 0.45569 0.0
O41 O 0.63674 0.69207 0.54193 0.0
O42 O 0.64303 0.65619 0.54633 0.0
C43 C 0.68225 0.62798 0.51681 0.0
Fe44 Fe 0.85151 0.19222 0.01053 0.0
Fe45 Fe 0.86234 0.1421 0.0134 0.0
O46 O 0.84403 0.16349 0.00285 0.0
Fe47 Fe 0.81838 0.15595 0.98447 0.0
O48 O 0.82841 0.17029 0.95654 0.0
O49 O 0.83942 0.2017 0.97944 0.0
O50 O 0.87923 0.18878 0.99333 0.0
C51 C 0.89466 0.17501 0.99927 0.0
C52 C 0.80442 0.19387 0.01879 0.0
O53 O 0.88942 0.15832 0.01197 0.0
C54 C 0.81707 0.12479 0.02085 0.0
O55 O 0.86474 0.18775 0.04311 0.0
O56 O 0.85807 0.1519 0.048 0.0
O57 O 0.80143 0.18056 0.99799 0.0
O58 O 0.82453 0.19772 0.02825 0.0
C59 C 0.85182 0.12463 0.96292 0.0
O60 O 0.8387 0.12182 0.01714 0.0
O61 O 0.8067 0.14092 0.01126 0.0
C62 C 0.86258 0.17165 0.0579 0.0
O63 O 0.86769 0.1312 0.97922 0.0
O64 O 0.83075 0.13004 0.96747 0.0
C65 C 0.83454 0.19067 0.95742 0.0
Fe66 Fe 0.36297 0.35706 0.5541 0.0
Fe67 Fe 0.31714 0.34419 0.57974 0.0
O68 O 0.34354 0.33604 0.56342 0.0
Fe69 Fe 0.3506 0.30712 0.55653 0.0
O70 O 0.37751 0.31013 0.5755 0.0
O71 O 0.38951 0.34056 0.55805 0.0
O72 O 0.36673 0.36809 0.58846 0.0
C73 C 0.35031 0.37492 0.60362 0.0
C74 C 0.36457 0.32714 0.50987 0.0
O75 O 0.32933 0.36997 0.59755 0.0
C76 C 0.30391 0.30612 0.54499 0.0
O77 O 0.34012 0.37768 0.54827 0.0
O78 O 0.30739 0.35919 0.55196 0.0
O79 O 0.36544 0.31109 0.52487 0.0
O80 O 0.36037 0.34706 0.5193 0.0
C81 C 0.33074 0.30942 0.60832 0.0
O82 O 0.30023 0.31984 0.5652 0.0
O83 O 0.32434 0.30187 0.53702 0.0
C84 C 0.31862 0.37509 0.54307 0.0
O85 O 0.32506 0.32986 0.60848 0.0
O86 O 0.33693 0.29816 0.58695 0.0
C87 C 0.39346 0.32394 0.5714 0.0
C88 C 0.97528 0.1428 0.30871 0.0
C89 C 0.97722 0.16546 0.30326 0.0
C90 C 0.99618 0.17832 0.31385 0.0
C91 C 0.01344 0.16839 0.32864 0.0
H92 H 0.06516 0.17957 0.38852 0.0
H93 H 0.09478 0.20137 0.41419 0.0
H94 H 0.13749 0.14174 0.41521 0.0
H95 H 0.10814 0.11992 0.38917 0.0
H96 H 0.09042 0.07301 0.35926 0.0
H97 H 0.10139 0.03635 0.33741 0.0
H98 H 0.04543 0.04125 0.28042 0.0
H99 H 0.03395 0.07705 0.30276 0.0
H100 H 0.99126 0.115 0.32589 0.0
H101 H 0.96095 0.13246 0.30058 0.0
H102 H 0.99802 0.19584 0.30993 0.0
H103 H 0.02833 0.17846 0.33568 0.0
N104 N 0.04767 0.14536 0.36054 0.0
N105 N 0.071 0.11299 0.36094 0.0
N106 N 0.03651 0.11185 0.33584 0.0
C107 C 0.06698 0.135 0.36937 0.0
C108 C 0.05583 0.1013 0.34414 0.0
C109 C 0.03226 0.13379 0.34397 0.0
C110 C 0.08427 0.14797 0.38655 0.0
C111 C 0.08079 0.17101 0.39431 0.0
C112 C 0.09772 0.18353 0.40917 0.0
C113 C 0.11854 0.17331 0.41661 0.0
C114 C 0.12179 0.15018 0.40942 0.0
C115 C 0.10487 0.13765 0.3946 0.0
C116 C 0.06136 0.07809 0.33273 0.0
C117 C 0.08027 0.06607 0.34229 0.0
C118 C 0.08666 0.04509 0.32964 0.0
C119 C 0.0744 0.03576 0.30702 0.0
C120 C 0.05508 0.04755 0.29805 0.0
C121 C 0.04856 0.06831 0.31082 0.0
C122 C 0.01225 0.14532 0.33256 0.0
C123 C 0.99271 0.13278 0.32303 0.0
C124 C 0.44289 0.55029 0.80191 0.0
C125 C 0.4215 0.54131 0.80954 0.0
C126 C 0.40906 0.55283 0.83055 0.0
C127 C 0.41733 0.57332 0.84284 0.0
H128 H 0.40381 0.62578 0.90192 0.0
H129 H 0.37568 0.64841 0.9283 0.0
H130 H 0.40711 0.70918 0.90353 0.0
H131 H 0.43588 0.68646 0.87775 0.0
H132 H 0.4832 0.68103 0.84074 0.0
H133 H 0.51552 0.69603 0.81601 0.0
H134 H 0.53946 0.62811 0.79423 0.0
H135 H 0.50778 0.61327 0.81905 0.0
H136 H 0.46741 0.57728 0.80719 0.0
H137 H 0.45282 0.5421 0.78558 0.0
H138 H 0.39271 0.54621 0.83722 0.0
H139 H 0.40699 0.58202 0.85846 0.0
N140 N 0.43208 0.61853 0.86213 0.0
N141 N 0.45768 0.64922 0.86027 0.0
N142 N 0.46559 0.61469 0.83591 0.0
C143 C 0.43791 0.64028 0.86994 0.0
C144 C 0.47175 0.63635 0.84344 0.0
C145 C 0.44581 0.60563 0.84505 0.0
C146 C 0.42199 0.6543 0.88752 0.0
C147 C 0.40485 0.64398 0.90219 0.0
C148 C 0.3886 0.65698 0.91722 0.0
C149 C 0.38887 0.68064 0.91775 0.0
C150 C 0.40648 0.69102 0.90375 0.0
C151 C 0.42293 0.67798 0.88888 0.0
C152 C 0.49275 0.64594 0.83163 0.0
C153 C 0.49566 0.66936 0.83109 0.0
C154 C 0.51408 0.67795 0.81682 0.0
C155 C 0.53004 0.66328 0.80309 0.0
C156 C 0.52772 0.63995 0.80484 0.0
C157 C 0.50933 0.6314 0.81889 0.0
C158 C 0.43827 0.58271 0.83442 0.0
C159 C 0.4512 0.57065 0.81424 0.0
C160 C 0.70919 0.81685 0.20708 0.0
C161 C 0.71716 0.79728 0.21791 0.0
C162 C 0.73709 0.78636 0.20703 0.0
C163 C 0.74905 0.79504 0.18612 0.0
H164 H 0.81766 0.80164 0.15951 0.0
H165 H 0.85888 0.79288 0.15223 0.0
H166 H 0.85597 0.82185 0.07671 0.0
H167 H 0.81486 0.83093 0.08401 0.0
H168 H 0.77879 0.87286 0.08282 0.0
H169 H 0.77022 0.91004 0.06924 0.0
H170 H 0.71462 0.91756 0.12691 0.0
H171 H 0.72349 0.88029 0.14103 0.0
H172 H 0.71465 0.84076 0.17837 0.0
H173 H 0.69375 0.82551 0.2149 0.0
H174 H 0.74386 0.77142 0.21515 0.0
H175 H 0.76454 0.78631 0.17856 0.0
N176 N 0.77614 0.816 0.14716 0.0
N177 N 0.78075 0.84343 0.11701 0.0
N178 N 0.74691 0.84302 0.14289 0.0
C179 C 0.7891 0.82525 0.12843 0.0
C180 C 0.7597 0.85246 0.1241 0.0
C181 C 0.75492 0.82463 0.15433 0.0
C182 C 0.81304 0.81715 0.12242 0.0
C183 C 0.82568 0.8058 0.14113 0.0
C184 C 0.84928 0.80086 0.13706 0.0
C185 C 0.86055 0.80677 0.11397 0.0
C186 C 0.84763 0.81699 0.0946 0.0
C187 C 0.82415 0.8223 0.09887 0.0
C188 C 0.75206 0.87365 0.1133 0.0
C189 C 0.76452 0.88225 0.09245 0.0
C190 C 0.75946 0.90355 0.08445 0.0
C191 C 0.74179 0.91685 0.09706 0.0
C192 C 0.72852 0.90783 0.11701 0.0
C193 C 0.73354 0.88641 0.12499 0.0
C194 C 0.74137 0.81484 0.17553 0.0
C195 C 0.72112 0.8255 0.18605 0.0
C196 C 0.78705 0.31736 0.71297 0.0
C197 C 0.78024 0.2962 0.72067 0.0
C198 C 0.76156 0.28484 0.70726 0.0
C199 C 0.74968 0.29454 0.68695 0.0
H200 H 0.68382 0.29533 0.65546 0.0
H201 H 0.64307 0.28504 0.64766 0.0
H202 H 0.63935 0.32978 0.5848 0.0
H203 H 0.68009 0.34004 0.59236 0.0
H204 H 0.72838 0.37154 0.5825 0.0
H205 H 0.73581 0.40947 0.56937 0.0
H206 H 0.76946 0.42748 0.64504 0.0
H207 H 0.76257 0.3893 0.65804 0.0
H208 H 0.78075 0.34349 0.68722 0.0
H209 H 0.8015 0.32644 0.72283 0.0
H210 H 0.75566 0.26865 0.71297 0.0
H211 H 0.73517 0.28537 0.67736 0.0
N212 N 0.72194 0.31748 0.65017 0.0
N213 N 0.71692 0.34638 0.62204 0.0
N214 N 0.75027 0.34585 0.64914 0.0
C215 C 0.70892 0.3273 0.63184 0.0
C216 C 0.73754 0.35573 0.63055 0.0
C217 C 0.74269 0.3265 0.65877 0.0
C218 C 0.68522 0.31873 0.62474 0.0
C219 C 0.67448 0.30273 0.63967 0.0
C220 C 0.65108 0.2969 0.63533 0.0
C221 C 0.63798 0.30674 0.61578 0.0
C222 C 0.64903 0.32179 0.59989 0.0
C223 C 0.67237 0.32778 0.60437 0.0
C224 C 0.74481 0.37753 0.62132 0.0
C225 C 0.73776 0.38346 0.59612 0.0
C226 C 0.74212 0.40507 0.58855 0.0
C227 C 0.75317 0.42129 0.60625 0.0
C228 C 0.76093 0.41519 0.63108 0.0
C229 C 0.75705 0.39338 0.63844 0.0
C230 C 0.75621 0.31586 0.67945 0.0
C231 C 0.77523 0.32706 0.69248 0.0
C232 C 0.47487 0.35067 0.25715 0.0
C233 C 0.47711 0.32818 0.26318 0.0
C234 C 0.49611 0.3154 0.25286 0.0
C235 C 0.51315 0.32527 0.23781 0.0
H236 H 0.56454 0.31418 0.17735 0.0
H237 H 0.59401 0.29284 0.15119 0.0
H238 H 0.63596 0.35306 0.15009 0.0
H239 H 0.6068 0.37439 0.17654 0.0
H240 H 0.59214 0.41912 0.21023 0.0
H241 H 0.60288 0.45578 0.23236 0.0
H242 H 0.54097 0.45498 0.28086 0.0
H243 H 0.52987 0.41893 0.25833 0.0
H244 H 0.4904 0.37832 0.2393 0.0
H245 H 0.46051 0.36097 0.26507 0.0
H246 H 0.49819 0.29801 0.25722 0.0
H247 H 0.5281 0.3153 0.23101 0.0
N248 N 0.54692 0.3483 0.2054 0.0
N249 N 0.56998 0.38088 0.2048 0.0
N250 N 0.53564 0.38186 0.22978 0.0
C251 C 0.56609 0.35881 0.19651 0.0
C252 C 0.55482 0.39254 0.22145 0.0
C253 C 0.53152 0.35983 0.22184 0.0
C254 C 0.58331 0.34602 0.17927 0.0
C255 C 0.57998 0.32295 0.17145 0.0
C256 C 0.59682 0.3107 0.15632 0.0
C257 C 0.61738 0.32123 0.14871 0.0
C258 C 0.62048 0.34438 0.15601 0.0
C259 C 0.60365 0.35663 0.17108 0.0
C260 C 0.56023 0.4159 0.23261 0.0
C261 C 0.58064 0.42691 0.22534 0.0
C262 C 0.58689 0.44789 0.23816 0.0
C263 C 0.5729 0.45831 0.25856 0.0
C264 C 0.55204 0.44767 0.26503 0.0
C265 C 0.54575 0.42681 0.25217 0.0
C266 C 0.51168 0.34822 0.23336 0.0
C267 C 0.49207 0.36064 0.24257 0.0
C268 C 0.27652 0.18426 0.849 0.0
C269 C 0.275 0.20771 0.84736 0.0
C270 C 0.26334 0.22088 0.86777 0.0
C271 C 0.2527 0.21079 0.8886 0.0
H272 H 0.18592 0.21287 0.92583 0.0
H273 H 0.1461 0.224 0.93774 0.0
H274 H 0.14178 0.16905 0.98822 0.0
H275 H 0.18143 0.1585 0.97719 0.0
H276 H 0.22626 0.12684 0.98303 0.0
H277 H 0.23332 0.08818 0.99298 0.0
H278 H 0.27116 0.0756 0.91925 0.0
H279 H 0.26409 0.1145 0.90916 0.0
H280 H 0.26739 0.1561 0.87054 0.0
H281 H 0.28498 0.17346 0.83353 0.0
H282 H 0.26229 0.23903 0.86767 0.0
H283 H 0.24352 0.22136 0.90374 0.0
N284 N 0.2219 0.18611 0.922 0.0
N285 N 0.21771 0.1559 0.94837 0.0
N286 N 0.24903 0.15643 0.91874 0.0
C287 C 0.20979 0.17579 0.94062 0.0
C288 C 0.23729 0.14615 0.93768 0.0
C289 C 0.24159 0.17658 0.9111 0.0
C290 C 0.18689 0.18463 0.95031 0.0
C291 C 0.1766 0.20343 0.93986 0.0
C292 C 0.1537 0.20973 0.94654 0.0
C293 C 0.14061 0.19737 0.96382 0.0
C294 C 0.15134 0.17923 0.97516 0.0
C295 C 0.17415 0.17302 0.96861 0.0
C296 C 0.24442 0.12367 0.94518 0.0
C297 C 0.23639 0.11597 0.96909 0.0
C298 C 0.2406 0.09385 0.97492 0.0
C299 C 0.25274 0.07887 0.95685 0.0
C300 C 0.26164 0.08679 0.93344 0.0
C301 C 0.25768 0.10907 0.92775 0.0
C302 C 0.25392 0.18737 0.88989 0.0
C303 C 0.2663 0.17425 0.87016 0.0
C304 C 0.23938 0.71382 0.3538 0.0
C305 C 0.21695 0.70591 0.34653 0.0
C306 C 0.20711 0.68868 0.3603 0.0
C307 C 0.21956 0.67944 0.38068 0.0
H308 H 0.2266 0.61935 0.41813 0.0
H309 H 0.21858 0.58153 0.43121 0.0
H310 H 0.27137 0.59084 0.49261 0.0
H311 H 0.27913 0.6285 0.47997 0.0
H312 H 0.31832 0.6653 0.47543 0.0
H313 H 0.35903 0.67556 0.48309 0.0
H314 H 0.3569 0.71639 0.41639 0.0
H315 H 0.31612 0.70607 0.40849 0.0
H316 H 0.26907 0.71113 0.3789 0.0
H317 H 0.24771 0.72675 0.3433 0.0
H318 H 0.18977 0.68236 0.3554 0.0
H319 H 0.21152 0.66611 0.39077 0.0
N320 N 0.24803 0.65824 0.41931 0.0
N321 N 0.28204 0.65756 0.4452 0.0
N322 N 0.27696 0.68579 0.41619 0.0
C323 C 0.26104 0.64846 0.43773 0.0
C324 C 0.29014 0.67621 0.43456 0.0
C325 C 0.25581 0.67706 0.4086 0.0
C326 C 0.25371 0.62689 0.44779 0.0
C327 C 0.23617 0.61349 0.43475 0.0
C328 C 0.23165 0.59177 0.44213 0.0
C329 C 0.24441 0.58313 0.46284 0.0
C330 C 0.26103 0.59703 0.47676 0.0
C331 C 0.26563 0.61861 0.46933 0.0
C332 C 0.31397 0.68466 0.44117 0.0
C333 C 0.32639 0.67668 0.46255 0.0
C334 C 0.3497 0.68269 0.46709 0.0
C335 C 0.36117 0.69669 0.45025 0.0
C336 C 0.34855 0.70539 0.42952 0.0
C337 C 0.32515 0.69955 0.4251 0.0
C338 C 0.24209 0.68728 0.38775 0.0
C339 C 0.25174 0.70471 0.37418 0.0
C340 C 0.94179 0.94531 0.76673 0.0
C341 C 0.92023 0.95437 0.75973 0.0
C342 C 0.90713 0.94289 0.73907 0.0
C343 C 0.91509 0.92249 0.72632 0.0
H344 H 0.89579 0.8689 0.67344 0.0
H345 H 0.86894 0.84535 0.64588 0.0
H346 H 0.91518 0.78847 0.6495 0.0
H347 H 0.94203 0.81192 0.67756 0.0
H348 H 0.98473 0.81628 0.72141 0.0
H349 H 0.01804 0.8015 0.74493 0.0
H350 H 0.03916 0.86965 0.77104 0.0
H351 H 0.00661 0.88426 0.74734 0.0
H352 H 0.96625 0.91848 0.76041 0.0
H353 H 0.9522 0.9534 0.78282 0.0
H354 H 0.89059 0.94955 0.73292 0.0
H355 H 0.90435 0.91387 0.71088 0.0
N356 N 0.93031 0.87776 0.70505 0.0
N357 N 0.9572 0.84794 0.70468 0.0
N358 N 0.96445 0.88193 0.73052 0.0
C359 C 0.93677 0.85645 0.69601 0.0
C360 C 0.97121 0.86072 0.72183 0.0
C361 C 0.94409 0.89061 0.72234 0.0
C362 C 0.92109 0.84233 0.67791 0.0
C363 C 0.90038 0.85141 0.66833 0.0
C364 C 0.88501 0.83793 0.65232 0.0
C365 C 0.88991 0.81503 0.6455 0.0
C366 C 0.91079 0.806 0.65466 0.0
C367 C 0.92623 0.8195 0.67064 0.0
C368 C 0.99284 0.85145 0.73274 0.0
C369 C 0.9968 0.82807 0.73173 0.0
C370 C 0.0158 0.81959 0.74532 0.0
C371 C 0.03127 0.83436 0.75994 0.0
C372 C 0.02788 0.85773 0.75971 0.0
C373 C 0.00896 0.86614 0.7463 0.0
C374 C 0.93636 0.91316 0.73392 0.0
C375 C 0.94978 0.92507 0.75394 0.0
C376 C 0.12053 0.89277 0.12771 0.0
C377 C 0.14293 0.88337 0.12767 0.0
C378 C 0.11298 0.9072 0.14928 0.0
C379 C 0.12777 0.92804 0.21973 0.0
H380 H 0.08599 0.9764 0.20415 0.0
C381 C 0.10637 0.01018 0.28808 0.0
C382 C 0.08242 0.01466 0.29161 0.0
C383 C 0.11385 0.99199 0.27072 0.0
C384 C 0.09753 0.96286 0.20877 0.0
H385 H 0.17502 0.88146 0.15014 0.0
H386 H 0.16242 0.9077 0.18726 0.0
H387 H 0.09931 0.94977 0.1681 0.0
H388 H 0.04764 0.00227 0.2811 0.0
H389 H 0.06083 0.97127 0.24991 0.0
H390 H 0.12672 0.94232 0.26043 0.0
C391 C 0.15029 0.90341 0.17109 0.0
C392 C 0.10508 0.94744 0.18815 0.0
C393 C 0.15763 0.88849 0.14973 0.0
C394 C 0.0662 -0.00022 0.27837 0.0
C395 C 0.07369 0.98191 0.26067 0.0
C396 C 0.12058 0.94385 0.2403 0.0
C397 C 0.12787 0.9131 0.1711 0.0
C398 C 0.12015 0.92965 0.19331 0.0
C399 C 0.09754 0.97817 0.2563 0.0
C400 C 0.10525 0.96124 0.23496 0.0
H401 H 0.10869 0.88874 0.11115 0.0
H402 H 0.09537 0.91365 0.14878 0.0
H403 H 0.13908 0.91445 0.22465 0.0
H404 H 0.11941 0.02134 0.29765 0.0
H405 H 0.13236 0.98945 0.26749 0.0
C406 C 0.64361 0.66446 0.60277 0.0
C407 C 0.63447 0.67941 0.58537 0.0
C408 C 0.63736 0.66632 0.62963 0.0
C409 C 0.60595 0.703 0.68226 0.0
H410 H 0.59443 0.64556 0.71065 0.0
C411 C 0.54153 0.68777 0.76719 0.0
C412 C 0.54769 0.67169 0.78483 0.0
C413 C 0.5564 0.69228 0.74637 0.0
C414 C 0.59794 0.66178 0.70325 0.0
H415 H 0.61226 0.70855 0.58256 0.0
H416 H 0.60047 0.71123 0.62913 0.0
H417 H 0.61222 0.64628 0.66721 0.0
H418 H 0.5753 0.64948 0.79608 0.0
H419 H 0.60108 0.65715 0.75951 0.0
H420 H 0.59023 0.71825 0.71805 0.0
C421 C 0.61299 0.69841 0.62234 0.0
C422 C 0.60825 0.66223 0.67829 0.0
C423 C 0.61963 0.69681 0.59555 0.0
C424 C 0.56982 0.66158 0.78247 0.0
C425 C 0.5846 0.66599 0.76159 0.0
C426 C 0.59531 0.70251 0.70718 0.0
C427 C 0.62139 0.68288 0.63962 0.0
C428 C 0.61219 0.68282 0.66727 0.0
C429 C 0.57766 0.68074 0.74276 0.0
C430 C 0.59102 0.68185 0.71778 0.0
H431 H 0.65538 0.65109 0.59552 0.0
H432 H 0.64472 0.65445 0.64242 0.0
H433 H 0.60904 0.7192 0.67466 0.0
H434 H 0.52455 0.69573 0.7683 0.0
H435 H 0.55054 0.70364 0.73206 0.0
C436 C 0.81532 0.09099 0.04677 0.0
C437 C 0.80356 0.1074 0.03343 0.0
C438 C 0.80306 0.07346 0.057 0.0
C439 C 0.74991 0.04016 0.04614 0.0
H440 H 0.76972 0.01587 0.11151 0.0
C441 C 0.73654 0.95789 0.11184 0.0
C442 C 0.73896 0.94069 0.09103 0.0
C443 C 0.73809 0.98055 0.10675 0.0
C444 C 0.76356 0.02259 0.09347 0.0
H445 H 0.76955 0.11869 0.02114 0.0
H446 H 0.74807 0.08783 0.039 0.0
H447 H 0.7848 0.05209 0.10054 0.0
H448 H 0.74284 0.93387 0.04829 0.0
H449 H 0.74613 0.9733 0.03948 0.0
H450 H 0.72902 0.01037 0.03882 0.0
C451 C 0.76683 0.08857 0.04136 0.0
C452 C 0.77245 0.04326 0.08704 0.0
C453 C 0.77913 0.10627 0.03126 0.0
C454 C 0.74129 0.94671 0.06481 0.0
C455 C 0.7429 0.96936 0.05973 0.0
C456 C 0.741 0.01944 0.05258 0.0
C457 C 0.77873 0.07185 0.05409 0.0
C458 C 0.76631 0.05192 0.06292 0.0
C459 C 0.74212 0.98652 0.08077 0.0
C460 C 0.74826 0.0101 0.07594 0.0
H461 H 0.83412 0.09141 0.04892 0.0
H462 H 0.8128 0.0607 0.06636 0.0
H463 H 0.7449 0.04636 0.02736 0.0
H464 H 0.73482 0.95387 0.13229 0.0
H465 H 0.73705 0.99338 0.12334 0.0
C466 C 0.43406 0.33726 0.58148 0.0
C467 C 0.41763 0.31966 0.57989 0.0
C468 C 0.45719 0.33327 0.58827 0.0
C469 C 0.50134 0.28946 0.58506 0.0
H470 H 0.53469 0.33132 0.63504 0.0
C471 C 0.60171 0.29948 0.58822 0.0
C472 C 0.61248 0.30284 0.61337 0.0
C473 C 0.57743 0.29822 0.58605 0.0
C474 C 0.52557 0.31932 0.62127 0.0
H475 H 0.4125 0.28409 0.58452 0.0
H476 H 0.45325 0.27705 0.596 0.0
H477 H 0.49282 0.33589 0.62863 0.0
H478 H 0.6063 0.30693 0.65597 0.0
H479 H 0.56391 0.30473 0.65215 0.0
H480 H 0.53429 0.27327 0.57718 0.0
C481 C 0.44807 0.29393 0.59204 0.0
C482 C 0.50166 0.32205 0.61746 0.0
C483 C 0.42477 0.298 0.58561 0.0
C484 C 0.59852 0.30414 0.63632 0.0
C485 C 0.57426 0.30308 0.63415 0.0
C486 C 0.52536 0.28688 0.58865 0.0
C487 C 0.46449 0.31154 0.59333 0.0
C488 C 0.48937 0.30733 0.59908 0.0
C489 C 0.56346 0.30052 0.60899 0.0
C490 C 0.53774 0.30195 0.60658 0.0
H491 H 0.42907 0.35415 0.57732 0.0
H492 H 0.46953 0.34711 0.58889 0.0
H493 H 0.49229 0.27797 0.57064 0.0
H494 H 0.61206 0.29827 0.57021 0.0
H495 H 0.56957 0.29638 0.56639 0.0
C496 C 0.61386 0.61149 0.43086 0.0
C497 C 0.6376 0.61381 0.43751 0.0
C498 C 0.6067 0.59676 0.40922 0.0
C499 C 0.62859 0.56351 0.34823 0.0
H500 H 0.5722 0.52881 0.35631 0.0
C501 C 0.60416 0.48228 0.28198 0.0
C502 C 0.58064 0.47932 0.27439 0.0
C503 C 0.61102 0.50073 0.29937 0.0
C504 C 0.58782 0.5386 0.3536 0.0
H505 H 0.67248 0.6026 0.42652 0.0
H506 H 0.65997 0.57638 0.38933 0.0
H507 H 0.58436 0.55668 0.3919 0.0
H508 H 0.54619 0.49429 0.2779 0.0
H509 H 0.55814 0.52623 0.30866 0.0
H510 H 0.63234 0.54466 0.31019 0.0
C511 C 0.64687 0.58631 0.40041 0.0
C512 C 0.59479 0.55463 0.37399 0.0
C513 C 0.65405 0.60124 0.42188 0.0
C514 C 0.56435 0.49577 0.28376 0.0
C515 C 0.57118 0.5141 0.30133 0.0
C516 C 0.62172 0.54727 0.32792 0.0
C517 C 0.62308 0.58379 0.39387 0.0
C518 C 0.61533 0.56725 0.37166 0.0
C519 C 0.5945 0.51653 0.30971 0.0
C520 C 0.6013 0.5346 0.33046 0.0
H521 H 0.60075 0.62116 0.44229 0.0
H522 H 0.58828 0.59564 0.40449 0.0
H523 H 0.64428 0.57316 0.34551 0.0
H524 H 0.61715 0.46983 0.27548 0.0
H525 H 0.62908 0.50207 0.30567 0.0
C526 C 0.92662 0.19331 0.97472 0.0
C527 C 0.91953 0.17991 0.99485 0.0
C528 C 0.95036 0.19743 0.9707 0.0
C529 C 0.00893 0.17526 0.98748 0.0
H530 H 0.03133 0.2323 0.96563 0.0
C531 C 0.10538 0.19879 0.99339 0.0
C532 C 0.11538 0.20194 0.96852 0.0
C533 C 0.08123 0.19905 0.99654 0.0
C534 C 0.02521 0.21631 0.9717 0.0
H535 H 0.93161 0.16114 0.02724 0.0
H536 H 0.97251 0.16904 0.02111 0.0
H537 H 0.98937 0.22638 0.97102 0.0
H538 H 0.10767 0.20947 0.92799 0.0
H539 H 0.06539 0.21065 0.93393 0.0
H540 H 0.04476 0.16553 0.98901 0.0
C541 C 0.96007 0.17563 0.00758 0.0
C542 C 0.00122 0.21282 0.97461 0.0
C543 C 0.93652 0.17119 0.01123 0.0
C544 C 0.10064 0.20714 0.94747 0.0
C545 C 0.07643 0.20773 0.95078 0.0
C546 C 0.03278 0.17893 0.98508 0.0
C547 C 0.96741 0.18852 0.98703 0.0
C548 C 0.99278 0.19227 0.98278 0.0
C549 C 0.06656 0.20289 0.97507 0.0
C550 C 0.04115 0.1995 0.97736 0.0
H551 H 0.91387 0.20023 0.96178 0.0
H552 H 0.95532 0.20725 0.95453 0.0
H553 H 0.00319 0.15896 0.99296 0.0
H554 H 0.11619 0.19533 0.01023 0.0
H555 H 0.07396 0.19555 0.01557 0.0
C556 C 0.2816 0.39358 0.52935 0.0
C557 C 0.30611 0.39269 0.52964 0.0
C558 C 0.27005 0.41138 0.51853 0.0
C559 C 0.27861 0.45767 0.47484 0.0
H560 H 0.2313 0.48875 0.51884 0.0
C561 C 0.24336 0.55304 0.49475 0.0
C562 C 0.24223 0.55913 0.46844 0.0
C563 C 0.2455 0.53044 0.49981 0.0
C564 C 0.24439 0.48019 0.50626 0.0
H565 H 0.33762 0.40928 0.51776 0.0
H566 H 0.31755 0.44021 0.49907 0.0
H567 H 0.24699 0.453 0.53128 0.0
H568 H 0.24093 0.5461 0.42686 0.0
H569 H 0.24419 0.5066 0.43573 0.0
H570 H 0.277 0.48533 0.45063 0.0
C571 C 0.30722 0.42715 0.50707 0.0
C572 C 0.25322 0.45961 0.51324 0.0
C573 C 0.31874 0.40949 0.518 0.0
C574 C 0.24167 0.54199 0.44737 0.0
C575 C 0.2438 0.51936 0.45243 0.0
C576 C 0.26978 0.47819 0.46786 0.0
C577 C 0.28276 0.42849 0.50754 0.0
C578 C 0.27091 0.44846 0.49801 0.0
C579 C 0.24653 0.51339 0.47866 0.0
C580 C 0.25302 0.49001 0.48388 0.0
H581 H 0.27135 0.38086 0.5381 0.0
H582 H 0.25118 0.41187 0.51898 0.0
H583 H 0.29201 0.44932 0.46252 0.0
H584 H 0.24352 0.56585 0.51143 0.0
H585 H 0.2477 0.52648 0.52025 0.0
C586 C 0.12554 0.79767 0.9658 0.0
C587 C 0.13562 0.81739 0.97812 0.0
C588 C 0.11888 0.79662 0.93894 0.0
C589 C 0.10507 0.83569 0.88716 0.0
H590 H 0.09837 0.78012 0.8414 0.0
C591 C 0.07092 0.83727 0.78123 0.0
C592 C 0.04947 0.8259 0.77766 0.0
C593 C 0.08575 0.83295 0.8022 0.0
C594 C 0.10034 0.79574 0.85398 0.0
H595 H 0.14828 0.85078 0.97214 0.0
H596 H 0.1384 0.84851 0.92498 0.0
H597 H 0.11714 0.77942 0.88509 0.0
H598 H 0.0279 0.7995 0.79187 0.0
H599 H 0.05421 0.79159 0.82815 0.0
H600 H 0.08858 0.85197 0.85593 0.0
C601 C 0.13433 0.83422 0.93603 0.0
C602 C 0.11089 0.79537 0.87909 0.0
C603 C 0.14028 0.83549 0.96299 0.0
C604 C 0.04432 0.8085 0.79393 0.0
C605 C 0.05934 0.80398 0.81476 0.0
C606 C 0.09507 0.83609 0.86197 0.0
C607 C 0.12271 0.81513 0.92381 0.0
C608 C 0.11315 0.81535 0.89619 0.0
C609 C 0.07963 0.81689 0.81976 0.0
C610 C 0.09236 0.81614 0.84526 0.0
H611 H 0.12168 0.78357 0.97729 0.0
H612 H 0.10979 0.78171 0.93049 0.0
H613 H 0.1057 0.85134 0.89982 0.0
H614 H 0.07568 0.8504 0.76866 0.0
H615 H 0.10146 0.84293 0.80552 0.0
C616 C 0.83977 0.09688 0.92504 0.0
C617 C 0.85754 0.10886 0.93949 0.0
C618 C 0.84516 0.0817 0.90318 0.0
C619 C 0.88992 0.06718 0.85273 0.0
H620 H 0.8636 0.00701 0.85049 0.0
C621 C 0.9262 0.99241 0.78479 0.0
C622 C 0.91104 0.97493 0.77518 0.0
C623 C 0.91819 0.0103 0.80215 0.0
C624 C 0.87075 0.02385 0.85041 0.0
H625 H 0.89486 0.11469 0.94191 0.0
H626 H 0.90422 0.08827 0.90354 0.0
H627 H 0.85247 0.03526 0.88603 0.0
H628 H 0.87518 0.96328 0.77535 0.0
H629 H 0.861 0.99497 0.80463 0.0
H630 H 0.90812 0.0559 0.81705 0.0
C631 C 0.88614 0.09064 0.90922 0.0
C632 C 0.86443 0.04 0.8709 0.0
C633 C 0.88079 0.10562 0.93129 0.0
C634 C 0.88736 0.97647 0.78221 0.0
C635 C 0.87929 0.9945 0.79937 0.0
C636 C 0.89605 0.0511 0.83202 0.0
C637 C 0.86839 0.0784 0.89509 0.0
C638 C 0.87418 0.06173 0.87246 0.0
C639 C 0.89472 0.01134 0.81013 0.0
C640 C 0.88679 0.02911 0.8308 0.0
H641 H 0.82168 0.09901 0.93078 0.0
H642 H 0.83113 0.0726 0.89251 0.0
H643 H 0.89745 0.08392 0.85328 0.0
H644 H 0.94446 0.99201 0.7794 0.0
H645 H 0.93067 0.02282 0.8101 0.0
C646 C 0.37552 0.3413 0.46631 0.0
C647 C 0.3711 0.32304 0.48144 0.0
C648 C 0.38288 0.33764 0.43993 0.0
C649 C 0.41134 0.29479 0.3934 0.0
H650 H 0.3964 0.33822 0.34296 0.0
C651 C 0.43707 0.32247 0.28122 0.0
C652 C 0.46125 0.31929 0.2829 0.0
C653 C 0.42261 0.31773 0.30231 0.0
C654 C 0.40045 0.32557 0.35644 0.0
H655 H 0.37012 0.28653 0.48037 0.0
H656 H 0.38247 0.28011 0.434 0.0
H657 H 0.37639 0.34 0.38533 0.0
H658 H 0.48921 0.3078 0.30733 0.0
H659 H 0.46432 0.30022 0.34437 0.0
H660 H 0.43514 0.28011 0.36427 0.0
C661 C 0.38076 0.2973 0.44276 0.0
C662 C 0.38921 0.32686 0.38105 0.0
C663 C 0.37359 0.30098 0.46932 0.0
C664 C 0.47057 0.31014 0.30538 0.0
C665 C 0.45621 0.30574 0.32663 0.0
C666 C 0.42236 0.29329 0.3686 0.0
C667 C 0.38575 0.3156 0.42782 0.0
C668 C 0.3951 0.312 0.40023 0.0
C669 C 0.43212 0.31012 0.32574 0.0
C670 C 0.41765 0.30914 0.35013 0.0
H671 H 0.37387 0.35853 0.475 0.0
H672 H 0.387 0.35218 0.42933 0.0
H673 H 0.41639 0.28306 0.40763 0.0
H674 H 0.42944 0.32932 0.26395 0.0
H675 H 0.40409 0.32077 0.30059 0.0
C676 C 0.20966 0.90277 0.04574 0.0
C677 C 0.19372 0.88878 0.03086 0.0
C678 C 0.22037 0.92073 0.03444 0.0
C679 C 0.21125 0.95756 0.97991 0.0
H680 H 0.27233 0.9805 0.00176 0.0
C681 C 0.24731 0.03818 0.94102 0.0
C682 C 0.2539 0.05462 0.96141 0.0
C683 C 0.2443 0.01574 0.94645 0.0
C684 C 0.25529 0.9742 0.99543 0.0
H685 H 0.17761 0.88175 0.99201 0.0
H686 H 0.19686 0.91257 0.97201 0.0
H687 H 0.25879 0.94469 0.01652 0.0
H688 H 0.26421 0.06025 0.0029 0.0
H689 H 0.25902 0.02098 0.01238 0.0
H690 H 0.20768 0.98712 0.95902 0.0
C691 C 0.20052 0.91021 0.99268 0.0
C692 C 0.24745 0.95377 0.00398 0.0
C693 C 0.18955 0.89246 0.0041 0.0
C694 C 0.25893 0.04793 0.98688 0.0
C695 C 0.25613 0.02545 0.99224 0.0
C696 C 0.21919 0.97779 0.97114 0.0
C697 C 0.21564 0.92493 0.00789 0.0
C698 C 0.22513 0.94541 0.99674 0.0
C699 C 0.24803 0.00929 0.97229 0.0
C700 C 0.24109 0.98653 0.97918 0.0
H701 H 0.2132 0.90039 0.06644 0.0
H702 H 0.23164 0.93184 0.04692 0.0
H703 H 0.1938 0.95199 0.97432 0.0
H704 H 0.24315 0.04287 0.92125 0.0
H705 H 0.23824 0.00358 0.93065 0.0
C706 C 0.57397 0.70596 0.48412 0.0
C707 C 0.58125 0.68463 0.49089 0.0
C708 C 0.55058 0.70978 0.47793 0.0
C709 C 0.49724 0.68052 0.454 0.0
H710 H 0.46431 0.73136 0.48977 0.0
C711 C 0.3968 0.70537 0.47846 0.0
C712 C 0.38663 0.70065 0.45315 0.0
C713 C 0.42104 0.70657 0.48133 0.0
C714 C 0.47334 0.71715 0.47958 0.0
H715 H 0.56983 0.65049 0.49592 0.0
H716 H 0.52918 0.65712 0.48482 0.0
H717 H 0.50614 0.72679 0.4978 0.0
H718 H 0.39382 0.69414 0.41094 0.0
H719 H 0.43613 0.69625 0.41599 0.0
H720 H 0.46451 0.67058 0.43616 0.0
C721 C 0.54152 0.67088 0.48441 0.0
C722 C 0.49725 0.71463 0.48402 0.0
C723 C 0.56477 0.66715 0.49094 0.0
C724 C 0.40114 0.69798 0.43068 0.0
C725 C 0.42535 0.69899 0.43358 0.0
C726 C 0.47345 0.68317 0.44933 0.0
C727 C 0.53416 0.69224 0.47795 0.0
C728 C 0.50932 0.69607 0.47161 0.0
C729 C 0.43555 0.70286 0.45898 0.0
C730 C 0.46118 0.70132 0.46236 0.0
H731 H 0.58627 0.71977 0.48392 0.0
H732 H 0.54536 0.72637 0.47288 0.0
H733 H 0.50618 0.66615 0.44403 0.0
H734 H 0.38603 0.70766 0.4961 0.0
H735 H 0.42842 0.70945 0.50117 0.0
C736 C 0.37863 0.39281 0.63704 0.0
C737 C 0.35557 0.39019 0.6277 0.0
C738 C 0.38372 0.40724 0.6597 0.0
C739 C 0.36235 0.45754 0.69855 0.0
H740 H 0.40574 0.44014 0.7523 0.0
C741 C 0.38776 0.51983 0.78776 0.0
C742 C 0.41162 0.52094 0.79426 0.0
C743 C 0.37895 0.50202 0.77067 0.0
C744 C 0.39372 0.44533 0.73738 0.0
H745 H 0.31973 0.4005 0.63504 0.0
H746 H 0.32874 0.42598 0.67449 0.0
H747 H 0.39427 0.41271 0.71568 0.0
H748 H 0.44463 0.50337 0.78916 0.0
H749 H 0.42952 0.47286 0.75865 0.0
H750 H 0.36241 0.49035 0.71946 0.0
C751 C 0.34283 0.41682 0.66419 0.0
C752 C 0.38712 0.42959 0.71646 0.0
C753 C 0.33768 0.4022 0.64166 0.0
C754 C 0.42624 0.50327 0.78422 0.0
C755 C 0.41748 0.48557 0.76697 0.0
C756 C 0.3691 0.47334 0.71932 0.0
C757 C 0.3659 0.4195 0.67341 0.0
C758 C 0.3716 0.43563 0.69666 0.0
C759 C 0.39382 0.48498 0.7595 0.0
C760 C 0.38511 0.46753 0.73882 0.0
H761 H 0.3928 0.38371 0.62684 0.0
H762 H 0.40169 0.40916 0.66619 0.0
H763 H 0.35056 0.46273 0.6834 0.0
H764 H 0.37599 0.5332 0.79494 0.0
H765 H 0.36056 0.5019 0.76575 0.0
C766 C 0.07073 0.83122 0.09361 0.0
C767 C 0.08152 0.81755 0.07312 0.0
C768 C 0.04731 0.82799 0.09967 0.0
C769 C 0.99731 0.78788 0.087 0.0
H770 H 0.96129 0.84136 0.10899 0.0
C771 C 0.89581 0.79436 0.08728 0.0
C772 C 0.88609 0.80416 0.1111 0.0
C773 C 0.92001 0.79384 0.0839 0.0
C774 C 0.97121 0.82627 0.10305 0.0
H775 H 0.0764 0.78967 0.04299 0.0
H776 H 0.03522 0.78468 0.05261 0.0
H777 H 0.00271 0.84491 0.10025 0.0
H778 H 0.89388 0.82086 0.15011 0.0
H779 H 0.93616 0.82038 0.14394 0.0
H780 H 0.96514 0.76955 0.08866 0.0
C781 C 0.04493 0.79745 0.06468 0.0
C782 C 0.99502 0.82823 0.0982 0.0
C783 C 0.06853 0.80037 0.05901 0.0
C784 C 0.90096 0.81302 0.13166 0.0
C785 C 0.92508 0.81287 0.12809 0.0
C786 C 0.97333 0.78601 0.09135 0.0
C787 C 0.03392 0.81135 0.08496 0.0
C788 C 0.00848 0.80906 0.09024 0.0
C789 C 0.93478 0.80352 0.10408 0.0
C790 C 0.96015 0.80519 0.09955 0.0
H791 H 0.08044 0.8444 0.10504 0.0
H792 H 0.03974 0.83864 0.11592 0.0
H793 H 0.00707 0.77267 0.08133 0.0
H794 H 0.88468 0.78741 0.07117 0.0
H795 H 0.92714 0.78664 0.06516 0.0
C796 C 0.71779 0.60381 0.51884 0.0
C797 C 0.69578 0.61041 0.52886 0.0
C798 C 0.72942 0.58555 0.52858 0.0
C799 C 0.7355 0.55172 0.5846 0.0
H800 H 0.74203 0.4998 0.53308 0.0
C801 C 0.74368 0.4619 0.61675 0.0
C802 C 0.75425 0.445 0.59976 0.0
C803 C 0.74152 0.48378 0.60908 0.0
C804 C 0.74103 0.5142 0.54773 0.0
H805 H 0.6692 0.60403 0.55771 0.0
H806 H 0.68994 0.57261 0.57535 0.0
H807 H 0.72975 0.53576 0.51827 0.0
H808 H 0.77207 0.43778 0.56223 0.0
H809 H 0.76953 0.47632 0.54931 0.0
H810 H 0.747 0.53051 0.6141 0.0
C811 C 0.69798 0.58134 0.55976 0.0
C812 C 0.73383 0.53479 0.53917 0.0
C813 C 0.6861 0.59918 0.54958 0.0
C814 C 0.76372 0.45058 0.57557 0.0
C815 C 0.76204 0.47261 0.56813 0.0
C816 C 0.74324 0.53127 0.59313 0.0
C817 C 0.71949 0.5741 0.54897 0.0
C818 C 0.73042 0.55351 0.55762 0.0
C819 C 0.75027 0.48939 0.58441 0.0
C820 C 0.74541 0.512 0.57493 0.0
H821 H 0.72557 0.61214 0.50277 0.0
H822 H 0.74598 0.58016 0.51996 0.0
H823 H 0.7331 0.56606 0.59913 0.0
H824 H 0.73597 0.45789 0.63537 0.0
H825 H 0.73194 0.49593 0.62203 0.0
C826 C 0.87147 0.19716 0.09914 0.0
C827 C 0.86853 0.17528 0.08659 0.0
C828 C 0.87858 0.20036 0.12583 0.0
C829 C 0.88695 0.16964 0.18689 0.0
H830 H 0.93387 0.21554 0.20427 0.0
C831 C 0.96998 0.18416 0.26162 0.0
C832 C 0.96103 0.17458 0.28393 0.0
C833 C 0.95526 0.18902 0.24075 0.0
C834 C 0.92084 0.20257 0.19977 0.0
H835 H 0.87027 0.13962 0.09246 0.0
H836 H 0.88334 0.14511 0.13832 0.0
H837 H 0.91443 0.21365 0.16119 0.0
H838 H 0.92955 0.16412 0.30296 0.0
H839 H 0.90356 0.1735 0.26703 0.0
H840 H 0.89462 0.15737 0.22445 0.0
C841 C 0.87961 0.1599 0.12798 0.0
C842 C 0.90939 0.2017 0.17513 0.0
C843 C 0.87228 0.15672 0.10148 0.0
C844 C 0.93688 0.17133 0.28582 0.0
C845 C 0.92206 0.17655 0.26512 0.0
C846 C 0.89864 0.17028 0.21131 0.0
C847 C 0.88309 0.18175 0.14048 0.0
C848 C 0.89278 0.18479 0.16806 0.0
C849 C 0.93116 0.18468 0.24186 0.0
C850 C 0.91623 0.18636 0.2178 0.0
H851 H 0.86851 0.21182 0.08827 0.0
H852 H 0.88071 0.21743 0.13488 0.0
H853 H 0.87384 0.15673 0.18246 0.0
H854 H 0.98859 0.18657 0.25952 0.0
H855 H 0.96308 0.19491 0.22311 0.0
C856 C 0.17699 0.80056 0.15265 0.0
C857 C 0.16438 0.79051 0.13077 0.0
C858 C 0.17724 0.79082 0.17682 0.0
C859 C 0.1739 0.7373 0.20483 0.0
H860 H 0.16517 0.77375 0.27174 0.0
C861 C 0.19176 0.70101 0.30539 0.0
C862 C 0.20437 0.71522 0.32408 0.0
C863 C 0.18184 0.70952 0.28292 0.0
C864 C 0.1678 0.76335 0.25326 0.0
H865 H 0.14198 0.76243 0.11704 0.0
H866 H 0.14302 0.74495 0.15939 0.0
H867 H 0.15756 0.79001 0.22975 0.0
H868 H 0.21523 0.74981 0.33456 0.0
H869 H 0.19891 0.76442 0.29509 0.0
H870 H 0.18545 0.71105 0.22804 0.0
C871 C 0.15248 0.76052 0.15772 0.0
C872 C 0.16331 0.77264 0.22926 0.0
C873 C 0.15187 0.77053 0.13359 0.0
C874 C 0.20601 0.73829 0.32033 0.0
C875 C 0.19629 0.74675 0.29782 0.0
C876 C 0.17871 0.72807 0.22884 0.0
C877 C 0.16516 0.77064 0.17954 0.0
C878 C 0.16682 0.75986 0.20484 0.0
C879 C 0.18441 0.73243 0.27858 0.0
C880 C 0.17627 0.74117 0.25334 0.0
H881 H 0.18663 0.81606 0.15115 0.0
H882 H 0.18734 0.79882 0.19326 0.0
H883 H 0.1769 0.72717 0.18623 0.0
H884 H 0.19024 0.68312 0.30757 0.0
H885 H 0.17252 0.69806 0.26873 0.0
C886 C 0.73998 0.70366 0.516 0.0
C887 C 0.71808 0.70679 0.52821 0.0
C888 C 0.7599 0.71388 0.52778 0.0
C889 C 0.79583 0.74891 0.54922 0.0
H890 H 0.80392 0.75072 0.62586 0.0
C891 C 0.86092 0.80863 0.60807 0.0
C892 C 0.87283 0.80052 0.62973 0.0
C893 C 0.84364 0.79561 0.59446 0.0
C894 C 0.80208 0.75015 0.6044 0.0
H895 H 0.70001 0.72306 0.56248 0.0
H896 H 0.73465 0.74095 0.58282 0.0
H897 H 0.77071 0.73072 0.60474 0.0
H898 H 0.87622 0.77216 0.65371 0.0
H899 H 0.8463 0.74929 0.62968 0.0
H900 H 0.82728 0.76833 0.54892 0.0
C901 C 0.73648 0.73043 0.56428 0.0
C902 C 0.78289 0.73892 0.59234 0.0
C903 C 0.71658 0.72029 0.5525 0.0
C904 C 0.8675 0.77883 0.63699 0.0
C905 C 0.85018 0.76583 0.62342 0.0
C906 C 0.81501 0.76022 0.56131 0.0
C907 C 0.75836 0.72735 0.55208 0.0
C908 C 0.77941 0.73836 0.56465 0.0
C909 C 0.83784 0.77419 0.60222 0.0
C910 C 0.81825 0.76113 0.58907 0.0
H911 H 0.74178 0.69331 0.49734 0.0
H912 H 0.77656 0.71102 0.51802 0.0
H913 H 0.79355 0.74891 0.52786 0.0
H914 H 0.86481 0.82517 0.6018 0.0
H915 H 0.83434 0.80263 0.57836 0.0
C916 C 0.76158 0.20258 0.02131 0.0
C917 C 0.78437 0.20648 0.03108 0.0
C918 C 0.74281 0.2148 0.03283 0.0
C919 C 0.72922 0.26783 0.07316 0.0
H920 H 0.67151 0.23784 0.08897 0.0
C921 C 0.65942 0.31149 0.1409 0.0
C922 C 0.63587 0.30803 0.13388 0.0
C923 C 0.67691 0.29907 0.12721 0.0
C924 C 0.68739 0.24652 0.08435 0.0
H925 H 0.80519 0.2261 0.06089 0.0
H926 H 0.77253 0.24725 0.0809 0.0
H927 H 0.70317 0.21609 0.06703 0.0
H928 H 0.61224 0.28889 0.10681 0.0
H929 H 0.64287 0.2672 0.08274 0.0
H930 H 0.71358 0.29823 0.09045 0.0
C931 C 0.7692 0.23497 0.06413 0.0
C932 C 0.70552 0.23405 0.0718 0.0
C933 C 0.78792 0.22272 0.05273 0.0
C934 C 0.63021 0.29178 0.11287 0.0
C935 C 0.64775 0.27935 0.0991 0.0
C936 C 0.71111 0.28029 0.08561 0.0
C937 C 0.74646 0.23123 0.05425 0.0
C938 C 0.72673 0.24454 0.06637 0.0
C939 C 0.67131 0.28289 0.1061 0.0
C940 C 0.69008 0.26975 0.09164 0.0
H941 H 0.75823 0.19016 0.0047 0.0
H942 H 0.72549 0.21165 0.02469 0.0
H943 H 0.74519 0.27647 0.06877 0.0
H944 H 0.66433 0.32357 0.15733 0.0
H945 H 0.69484 0.3019 0.13347 0.0
C946 C 0.33906 0.27742 0.63637 0.0
C947 C 0.32833 0.29824 0.63325 0.0
C948 C 0.33682 0.26727 0.66029 0.0
C949 C 0.31903 0.28028 0.73121 0.0
H950 H 0.30976 0.21561 0.72959 0.0
C951 C 0.27321 0.23667 0.81395 0.0
C952 C 0.28464 0.21826 0.82396 0.0
C953 C 0.28176 0.24628 0.79166 0.0
C954 C 0.31263 0.23365 0.73031 0.0
H955 H 0.30652 0.32455 0.6526 0.0
H956 H 0.30193 0.30663 0.69356 0.0
H957 H 0.31858 0.23256 0.68831 0.0
H958 H 0.31443 0.19582 0.81825 0.0
H959 H 0.32866 0.21211 0.77847 0.0
H960 H 0.31179 0.28137 0.773 0.0
C961 C 0.31275 0.29838 0.67807 0.0
C962 C 0.31776 0.24338 0.70672 0.0
C963 C 0.31521 0.3086 0.6544 0.0
C964 C 0.30488 0.20971 0.81093 0.0
C965 C 0.31317 0.21908 0.78826 0.0
C966 C 0.31352 0.27059 0.75463 0.0
C967 C 0.32362 0.27766 0.68145 0.0
C968 C 0.32054 0.2669 0.7068 0.0
C969 C 0.30168 0.23747 0.77851 0.0
C970 C 0.3099 0.24727 0.75429 0.0
H971 H 0.34941 0.2691 0.62048 0.0
H972 H 0.34563 0.25142 0.66228 0.0
H973 H 0.3217 0.29834 0.73221 0.0
H974 H 0.25728 0.24343 0.82289 0.0
H975 H 0.27242 0.26028 0.78425 0.0
C976 C 0.66756 0.6957 0.40618 0.0
C977 C 0.66468 0.70766 0.43129 0.0
C978 C 0.66872 0.70708 0.38316 0.0
C979 C 0.68414 0.76209 0.36083 0.0
H980 H 0.65731 0.73683 0.29392 0.0
C981 C 0.69858 0.80355 0.26298 0.0
C982 C 0.70543 0.78866 0.2412 0.0
C983 C 0.68958 0.79525 0.28596 0.0
C984 C 0.66495 0.74406 0.31244 0.0
H985 H 0.66006 0.74098 0.45177 0.0
H986 H 0.66207 0.76088 0.41143 0.0
H987 H 0.64882 0.71944 0.33492 0.0
H988 H 0.70709 0.75349 0.22591 0.0
H989 H 0.69177 0.739 0.26608 0.0
H990 H 0.70077 0.78633 0.3383 0.0
C991 C 0.66367 0.74268 0.40968 0.0
C992 C 0.66009 0.73411 0.33591 0.0
C993 C 0.66243 0.73126 0.43276 0.0
C994 C 0.70224 0.76537 0.24249 0.0
C995 C 0.6932 0.75709 0.26541 0.0
C996 C 0.689 0.77204 0.33736 0.0
C997 C 0.66703 0.73071 0.38465 0.0
C998 C 0.67002 0.74273 0.36028 0.0
C999 C 0.68716 0.77191 0.28759 0.0
C1000 C 0.67984 0.76286 0.31282 0.0
H1001 H 0.66925 0.6775 0.40427 0.0
H1002 H 0.67164 0.69737 0.36426 0.0
H1003 H 0.69228 0.76898 0.37921 0.0
H1004 H 0.70096 0.82158 0.26267 0.0
H1005 H 0.68485 0.80711 0.30261 0.0
C1006 C 0.83392 0.22579 0.93313 0.0
C1007 C 0.83377 0.20213 0.93254 0.0
C1008 C 0.83145 0.23636 0.90952 0.0
C1009 C 0.80781 0.22497 0.8415 0.0
H1010 H 0.83998 0.28007 0.82772 0.0
C1011 C 0.79657 0.26305 0.74186 0.0
C1012 C 0.79172 0.28626 0.74334 0.0
C1013 C 0.80482 0.25314 0.76416 0.0
C1014 C 0.83081 0.26474 0.83139 0.0
H1015 H 0.83229 0.17103 0.9066 0.0
H1016 H 0.82843 0.1894 0.86562 0.0
H1017 H 0.84864 0.26204 0.86847 0.0
H1018 H 0.79266 0.31745 0.76906 0.0
H1019 H 0.80709 0.3001 0.8081 0.0
H1020 H 0.78984 0.22766 0.80471 0.0
C1021 C 0.82977 0.19983 0.8843 0.0
C1022 C 0.83573 0.25444 0.85472 0.0
C1023 C 0.83207 0.1893 0.90782 0.0
C1024 C 0.7964 0.29955 0.76725 0.0
C1025 C 0.80466 0.28961 0.78961 0.0
C1026 C 0.80298 0.23518 0.81824 0.0
C1027 C 0.82893 0.22347 0.88489 0.0
C1028 C 0.82426 0.23442 0.86002 0.0
C1029 C 0.8084 0.26621 0.78847 0.0
C1030 C 0.81439 0.25517 0.81289 0.0
H1031 H 0.83524 0.23614 0.95186 0.0
H1032 H 0.83071 0.2546 0.91069 0.0
H1033 H 0.79825 0.20987 0.84522 0.0
H1034 H 0.79356 0.25245 0.72356 0.0
H1035 H 0.80801 0.23513 0.76251 0.0
C1036 C 0.26123 0.29694 0.54089 0.0
C1037 C 0.28421 0.29333 0.53189 0.0
C1038 C 0.24282 0.28427 0.52902 0.0
C1039 C 0.23069 0.23043 0.48948 0.0
H1040 H 0.17199 0.25851 0.47319 0.0
C1041 C 0.16059 0.18374 0.42374 0.0
C1042 C 0.13712 0.18688 0.43105 0.0
C1043 C 0.17811 0.19675 0.43684 0.0
C1044 C 0.18817 0.25036 0.47793 0.0
H1045 H 0.30574 0.27387 0.50291 0.0
H1046 H 0.27365 0.25194 0.48222 0.0
H1047 H 0.20333 0.28146 0.4944 0.0
H1048 H 0.1137 0.20595 0.45813 0.0
H1049 H 0.14436 0.22866 0.48114 0.0
H1050 H 0.21562 0.19936 0.47307 0.0
C1051 C 0.26992 0.26433 0.49871 0.0
C1052 C 0.20612 0.26352 0.49005 0.0
C1053 C 0.28829 0.27701 0.5105 0.0
C1054 C 0.13159 0.20331 0.45183 0.0
C1055 C 0.14914 0.21633 0.46499 0.0
C1056 C 0.21275 0.21728 0.47743 0.0
C1057 C 0.247 0.26769 0.50795 0.0
C1058 C 0.22764 0.25372 0.49576 0.0
C1059 C 0.17261 0.2132 0.45761 0.0
C1060 C 0.19134 0.22711 0.47132 0.0
H1061 H 0.25746 0.3094 0.5573 0.0
H1062 H 0.22536 0.28714 0.5367 0.0
H1063 H 0.24691 0.2223 0.49409 0.0
H1064 H 0.16539 0.17151 0.40748 0.0
H1065 H 0.19595 0.19419 0.43033 0.0
C1066 C 0.24119 0.80273 0.03431 0.0
C1067 C 0.21928 0.79213 0.03463 0.0
C1068 C 0.26038 0.79131 0.02264 0.0
C1069 C 0.28131 0.73361 0.00138 0.0
H1070 H 0.32547 0.76472 0.95938 0.0
C1071 C 0.34717 0.68634 0.9315 0.0
C1072 C 0.37031 0.69423 0.93207 0.0
C1073 C 0.32963 0.69882 0.945 0.0
C1074 C 0.31342 0.75589 0.9713 0.0
H1075 H 0.20027 0.76139 0.02238 0.0
H1076 H 0.2335 0.74171 0.00161 0.0
H1077 H 0.29297 0.78556 0.98085 0.0
H1078 H 0.39303 0.72164 0.94726 0.0
H1079 H 0.36214 0.74367 0.97051 0.0
H1080 H 0.30147 0.70386 0.99134 0.0
C1081 C 0.23606 0.75864 0.01095 0.0
C1082 C 0.29482 0.76781 0.98364 0.0
C1083 C 0.21694 0.76998 0.02274 0.0
C1084 C 0.37537 0.71515 0.94618 0.0
C1085 C 0.35772 0.72775 0.95954 0.0
C1086 C 0.29977 0.72169 0.98891 0.0
C1087 C 0.25806 0.76908 0.0109 0.0
C1088 C 0.27841 0.75675 0.99861 0.0
C1089 C 0.33471 0.71961 0.95921 0.0
C1090 C 0.31588 0.73265 0.97354 0.0
H1091 H 0.24362 0.81978 0.04333 0.0
H1092 H 0.27712 0.79978 0.0232 0.0
H1093 H 0.26933 0.72465 0.01325 0.0
H1094 H 0.34248 0.6706 0.9203 0.0
H1095 H 0.31197 0.69232 0.94397 0.0
loop_
_geom_bond_atom_site_label_1
_geom_bond_atom_site_label_2
_geom_bond_distance
_geom_bond_site_symmetry_2
_ccdc_geom_bond_type
Fe0 O2 1.918 . S
Fe0 O5 1.997 . S
Fe0 O6 2.002 . S
Fe0 O11 1.976 . S
Fe0 O14 1.996 . S
Fe1 O2 1.918 . S
Fe1 O9 1.997 . S
Fe1 O12 1.996 . S
Fe1 O16 1.976 . S
Fe1 O19 2.002 . S
O2 Fe0 1.918 . S
O2 Fe1 1.918 . S
O2 Fe3 1.918 . S
Fe3 O2 1.918 . S
Fe3 O4 2.002 . S
Fe3 O13 1.976 . S
Fe3 O17 1.996 . S
Fe3 O20 1.997 . S
O4 Fe3 2.002 . S
O4 C21 1.295 . S
O5 Fe0 1.997 . S
O5 C21 1.235 . S
O6 Fe0 2.002 . S
O6 C7 1.295 . S
C7 O6 1.295 . S
C7 O9 1.235 . S
C8 O13 1.287 . S
C8 O14 1.255 . S
O9 Fe1 1.997 . S
O9 C7 1.235 . S
C10 O16 1.287 . S
C10 O17 1.255 . S
O11 Fe0 1.976 . S
O11 C18 1.287 . S
O12 Fe1 1.996 . S
O12 C18 1.255 . S
O13 Fe3 1.976 . S
O13 C8 1.287 . S
O14 Fe0 1.996 . S
O14 C8 1.255 . S
C15 O19 1.295 . S
C15 O20 1.235 . S
O16 Fe1 1.976 . S
O16 C10 1.287 . S
O17 Fe3 1.996 . S
O17 C10 1.255 . S
C18 O11 1.287 . S
C18 O12 1.255 . S
O19 Fe1 2.002 . S
O19 C15 1.295 . S
O20 Fe3 1.997 . S
O20 C15 1.235 . S
C21 O4 1.295 . S
C21 O5 1.235 . S
Fe22 O24 1.918 . S
Fe22 O27 1.997 . S
Fe22 O28 2.002 . S
Fe22 O33 1.976 . S
Fe22 O36 1.996 . S
Fe23 O24 1.918 . S
Fe23 O31 1.997 . S
Fe23 O34 1.996 . S
Fe23 O38 1.976 . S
Fe23 O41 2.002 . S
O24 Fe22 1.918 . S
O24 Fe23 1.918 . S
O24 Fe25 1.918 . S
Fe25 O24 1.918 . S
Fe25 O26 2.002 . S
Fe25 O35 1.976 . S
Fe25 O39 1.996 . S
Fe25 O42 1.997 . S
O26 Fe25 2.002 . S
O26 C43 1.295 . S
O27 Fe22 1.997 . S
O27 C43 1.235 . S
O28 Fe22 2.002 . S
O28 C29 1.295 . S
C29 O28 1.295 . S
C29 O31 1.235 . S
C30 O35 1.287 . S
C30 O36 1.255 . S
O31 Fe23 1.997 . S
O31 C29 1.235 . S
C32 O38 1.287 . S
C32 O39 1.255 . S
O33 Fe22 1.976 . S
O33 C40 1.287 . S
O34 Fe23 1.996 . S
O34 C40 1.255 . S
O35 Fe25 1.976 . S
O35 C30 1.287 . S
O36 Fe22 1.996 . S
O36 C30 1.255 . S
C37 O41 1.295 . S
C37 O42 1.235 . S
O38 Fe23 1.976 . S
O38 C32 1.287 . S
O39 Fe25 1.996 . S
O39 C32 1.255 . S
C40 O33 1.287 . S
C40 O34 1.255 . S
O41 Fe23 2.002 . S
O41 C37 1.295 . S
O42 Fe25 1.997 . S
O42 C37 1.235 . S
C43 O26 1.295 . S
C43 O27 1.235 . S
Fe44 O46 1.918 . S
Fe44 O49 1.997 1_554 S
Fe44 O50 2.002 1_554 S
Fe44 O55 1.976 . S
Fe44 O58 1.996 . S
Fe45 O46 1.918 . S
Fe45 O53 1.997 1_554 S
Fe45 O56 1.996 . S
Fe45 O60 1.976 . S
Fe45 O63 2.002 1_554 S
O46 Fe44 1.918 . S
O46 Fe45 1.918 . S
O46 Fe47 1.918 1_554 S
Fe47 O46 1.918 1_556 S
Fe47 O48 2.002 . S
Fe47 O57 1.976 1_556 S
Fe47 O61 1.996 1_556 S
Fe47 O64 1.997 . S
O48 Fe47 2.002 . S
O48 C65 1.295 . S
O49 Fe44 1.997 1_556 S
O49 C65 1.235 . S
O50 Fe44 2.002 1_556 S
O50 C51 1.295 . S
C51 O50 1.295 . S
C51 O53 1.235 . S
C52 O57 1.287 . S
C52 O58 1.255 . S
O53 Fe45 1.997 1_556 S
O53 C51 1.235 . S
C54 O60 1.287 . S
C54 O61 1.255 . S
O55 Fe44 1.976 . S
O55 C62 1.287 . S
O56 Fe45 1.996 . S
O56 C62 1.255 . S
O57 Fe47 1.976 1_554 S
O57 C52 1.287 . S
O58 Fe44 1.996 . S
O58 C52 1.255 . S
C59 O63 1.295 . S
C59 O64 1.235 . S
O60 Fe45 1.976 . S
O60 C54 1.287 . S
O61 Fe47 1.996 1_554 S
O61 C54 1.255 . S
C62 O55 1.287 . S
C62 O56 1.255 . S
O63 Fe45 2.002 1_556 S
O63 C59 1.295 . S
O64 Fe47 1.997 . S
O64 C59 1.235 . S
C65 O48 1.295 . S
C65 O49 1.235 . S
Fe66 O68 1.918 . S
Fe66 O71 1.997 . S
Fe66 O72 2.002 . S
Fe66 O77 1.976 . S
Fe66 O80 1.996 . S
Fe67 O68 1.918 . S
Fe67 O75 1.997 . S
Fe67 O78 1.996 . S
Fe67 O82 1.976 . S
Fe67 O85 2.002 . S
O68 Fe66 1.918 . S
O68 Fe67 1.918 . S
O68 Fe69 1.918 . S
Fe69 O68 1.918 . S
Fe69 O70 2.002 . S
Fe69 O79 1.976 . S
Fe69 O83 1.996 . S
Fe69 O86 1.997 . S
O70 Fe69 2.002 . S
O70 C87 1.295 . S
O71 Fe66 1.997 . S
O71 C87 1.235 . S
O72 Fe66 2.002 . S
O72 C73 1.295 . S
C73 O72 1.295 . S
C73 O75 1.235 . S
C74 O79 1.287 . S
C74 O80 1.255 . S
O75 Fe67 1.997 . S
O75 C73 1.235 . S
C76 O82 1.287 . S
C76 O83 1.255 . S
O77 Fe66 1.976 . S
O77 C84 1.287 . S
O78 Fe67 1.996 . S
O78 C84 1.255 . S
O79 Fe69 1.976 . S
O79 C74 1.287 . S
O80 Fe66 1.996 . S
O80 C74 1.255 . S
C81 O85 1.295 . S
C81 O86 1.235 . S
O82 Fe67 1.976 . S
O82 C76 1.287 . S
O83 Fe69 1.996 . S
O83 C76 1.255 . S
C84 O77 1.287 . S
C84 O78 1.255 . S
O85 Fe67 2.002 . S
O85 C81 1.295 . S
O86 Fe69 1.997 . S
O86 C81 1.235 . S
C87 O70 1.295 . S
C87 O71 1.235 . S
C88 C89 1.384 1_455 S
C88 H101 0.947 1_455 S
C88 C123 1.382 . S
C89 C88 1.384 1_655 S
C89 C90 1.378 1_655 S
C90 C89 1.378 1_455 S
C90 C91 1.378 . S
C90 H102 0.952 . S
C91 C90 1.378 . S
C91 H103 0.950 . S
C91 C122 1.383 . S
H92 C111 0.947 . S
H93 C112 0.946 . S
H94 C114 0.953 . S
H95 C115 0.945 . S
H96 C117 0.952 . S
H97 C118 0.949 . S
H98 C120 0.950 . S
H99 C121 0.948 . S
H100 C123 0.951 . S
H101 C88 0.947 1_655 S
H102 C90 0.952 . S
H103 C91 0.950 . S
N104 C107 1.382 . S
N104 C109 1.363 . S
N105 C107 1.371 . S
N105 C108 1.372 . S
N106 C108 1.361 . S
N106 C109 1.377 . S
C107 N104 1.382 . S
C107 N105 1.371 . S
C107 C110 1.480 . S
C108 N105 1.372 . S
C108 N106 1.361 . S
C108 C116 1.457 . S
C109 N104 1.363 . S
C109 N106 1.377 . S
C109 C122 1.479 . S
C110 C107 1.480 . S
C110 C111 1.383 . S
C110 C115 1.385 . S
C111 H92 0.947 . S
C111 C110 1.383 . S
C111 C112 1.388 . S
C112 H93 0.946 . S
C112 C111 1.388 . S
C112 C113 1.384 . S
C113 C112 1.384 . S
C113 C114 1.377 . S
C114 H94 0.953 . S
C114 C113 1.377 . S
C114 C115 1.369 . S
C115 H95 0.945 . S
C115 C110 1.385 . S
C115 C114 1.369 . S
C116 C108 1.457 . S
C116 C117 1.372 . S
C116 C121 1.364 . S
C117 H96 0.952 . S
C117 C116 1.372 . S
C117 C118 1.389 . S
C118 H97 0.949 . S
C118 C117 1.389 . S
C118 C119 1.387 . S
C119 C118 1.387 . S
C119 C120 1.372 . S
C120 H98 0.950 . S
C120 C119 1.372 . S
C120 C121 1.379 . S
C121 H99 0.948 . S
C121 C116 1.364 . S
C121 C120 1.379 . S
C122 C91 1.383 . S
C122 C109 1.479 . S
C122 C123 1.398 . S
C123 C88 1.382 . S
C123 H100 0.951 . S
C123 C122 1.398 . S
C124 C125 1.384 . S
C124 H137 0.947 . S
C124 C159 1.382 . S
C125 C124 1.384 . S
C125 C126 1.378 . S
C126 C125 1.378 . S
C126 C127 1.378 . S
C126 H138 0.952 . S
C127 C126 1.378 . S
C127 H139 0.950 . S
C127 C158 1.383 . S
H128 C147 0.947 . S
H129 C148 0.946 . S
H130 C150 0.953 . S
H131 C151 0.945 . S
H132 C153 0.952 . S
H133 C154 0.949 . S
H134 C156 0.950 . S
H135 C157 0.948 . S
H136 C159 0.951 . S
H137 C124 0.947 . S
H138 C126 0.952 . S
H139 C127 0.950 . S
N140 C143 1.382 . S
N140 C145 1.363 . S
N141 C143 1.371 . S
N141 C144 1.372 . S
N142 C144 1.361 . S
N142 C145 1.377 . S
C143 N140 1.382 . S
C143 N141 1.371 . S
C143 C146 1.480 . S
C144 N141 1.372 . S
C144 N142 1.361 . S
C144 C152 1.457 . S
C145 N140 1.363 . S
C145 N142 1.377 . S
C145 C158 1.479 . S
C146 C143 1.480 . S
C146 C147 1.383 . S
C146 C151 1.385 . S
C147 H128 0.947 . S
C147 C146 1.383 . S
C147 C148 1.388 . S
C148 H129 0.946 . S
C148 C147 1.388 . S
C148 C149 1.384 . S
C149 C148 1.384 . S
C149 C150 1.377 . S
C150 H130 0.953 . S
C150 C149 1.377 . S
C150 C151 1.369 . S
C151 H131 0.945 . S
C151 C146 1.385 . S
C151 C150 1.369 . S
C152 C144 1.457 . S
C152 C153 1.372 . S
C152 C157 1.364 . S
C153 H132 0.952 . S
C153 C152 1.372 . S
C153 C154 1.389 . S
C154 H133 0.949 . S
C154 C153 1.389 . S
C154 C155 1.387 . S
C155 C154 1.387 . S
C155 C156 1.372 . S
C156 H134 0.950 . S
C156 C155 1.372 . S
C156 C157 1.379 . S
C157 H135 0.948 . S
C157 C152 1.364 . S
C157 C156 1.379 . S
C158 C127 1.383 . S
C158 C145 1.479 . S
C158 C159 1.398 . S
C159 C124 1.382 . S
C159 H136 0.951 . S
C159 C158 1.398 . S
C160 C161 1.384 . S
C160 H173 0.947 . S
C160 C195 1.382 . S
C161 C160 1.384 . S
C161 C162 1.378 . S
C162 C161 1.378 . S
C162 C163 1.378 . S
C162 H174 0.952 . S
C163 C162 1.378 . S
C163 H175 0.950 . S
C163 C194 1.383 . S
H164 C183 0.947 . S
H165 C184 0.946 . S
H166 C186 0.953 . S
H167 C187 0.945 . S
H168 C189 0.952 . S
H169 C190 0.949 . S
H170 C192 0.950 . S
H171 C193 0.948 . S
H172 C195 0.951 . S
H173 C160 0.947 . S
H174 C162 0.952 . S
H175 C163 0.950 . S
N176 C179 1.382 . S
N176 C181 1.363 . S
N177 C179 1.371 . S
N177 C180 1.372 . S
N178 C180 1.361 . S
N178 C181 1.377 . S
C179 N176 1.382 . S
C179 N177 1.371 . S
C179 C182 1.480 . S
C180 N177 1.372 . S
C180 N178 1.361 . S
C180 C188 1.457 . S
C181 N176 1.363 . S
C181 N178 1.377 . S
C181 C194 1.479 . S
C182 C179 1.480 . S
C182 C183 1.383 . S
C182 C187 1.385 . S
C183 H164 0.947 . S
C183 C182 1.383 . S
C183 C184 1.388 . S
C184 H165 0.946 . S
C184 C183 1.388 . S
C184 C185 1.384 . S
C185 C184 1.384 . S
C185 C186 1.377 . S
C186 H166 0.953 . S
C186 C185 1.377 . S
C186 C187 1.369 . S
C187 H167 0.945 . S
C187 C182 1.385 . S
C187 C186 1.369 . S
C188 C180 1.457 . S
C188 C189 1.372 . S
C188 C193 1.364 . S
C189 H168 0.952 . S
C189 C188 1.372 . S
C189 C190 1.389 . S
C190 H169 0.949 . S
C190 C189 1.389 . S
C190 C191 1.387 . S
C191 C190 1.387 . S
C191 C192 1.372 . S
C192 H170 0.950 . S
C192 C191 1.372 . S
C192 C193 1.379 . S
C193 H171 0.948 . S
C193 C188 1.364 . S
C193 C192 1.379 . S
C194 C163 1.383 . S
C194 C181 1.479 . S
C194 C195 1.398 . S
C195 C160 1.382 . S
C195 H172 0.951 . S
C195 C194 1.398 . S
C196 C197 1.384 . S
C196 H209 0.947 . S
C196 C231 1.382 . S
C197 C196 1.384 . S
C197 C198 1.378 . S
C198 C197 1.378 . S
C198 C199 1.378 . S
C198 H210 0.952 . S
C199 C198 1.378 . S
C199 H211 0.950 . S
C199 C230 1.383 . S
H200 C219 0.947 . S
H201 C220 0.946 . S
H202 C222 0.953 . S
H203 C223 0.945 . S
H204 C225 0.952 . S
H205 C226 0.949 . S
H206 C228 0.950 . S
H207 C229 0.948 . S
H208 C231 0.951 . S
H209 C196 0.947 . S
H210 C198 0.952 . S
H211 C199 0.950 . S
N212 C215 1.382 . S
N212 C217 1.363 . S
N213 C215 1.371 . S
N213 C216 1.372 . S
N214 C216 1.361 . S
N214 C217 1.377 . S
C215 N212 1.382 . S
C215 N213 1.371 . S
C215 C218 1.480 . S
C216 N213 1.372 . S
C216 N214 1.361 . S
C216 C224 1.457 . S
C217 N212 1.363 . S
C217 N214 1.377 . S
C217 C230 1.479 . S
C218 C215 1.480 . S
C218 C219 1.383 . S
C218 C223 1.385 . S
C219 H200 0.947 . S
C219 C218 1.383 . S
C219 C220 1.388 . S
C220 H201 0.946 . S
C220 C219 1.388 . S
C220 C221 1.384 . S
C221 C220 1.384 . S
C221 C222 1.377 . S
C222 H202 0.953 . S
C222 C221 1.377 . S
C222 C223 1.369 . S
C223 H203 0.945 . S
C223 C218 1.385 . S
C223 C222 1.369 . S
C224 C216 1.457 . S
C224 C225 1.372 . S
C224 C229 1.364 . S
C225 H204 0.952 . S
C225 C224 1.372 . S
C225 C226 1.389 . S
C226 H205 0.949 . S
C226 C225 1.389 . S
C226 C227 1.387 . S
C227 C226 1.387 . S
C227 C228 1.372 . S
C228 H206 0.950 . S
C228 C227 1.372 . S
C228 C229 1.379 . S
C229 H207 0.948 . S
C229 C224 1.364 . S
C229 C228 1.379 . S
C230 C199 1.383 . S
C230 C217 1.479 . S
C230 C231 1.398 . S
C231 C196 1.382 . S
C231 H208 0.951 . S
C231 C230 1.398 . S
C232 C233 1.384 . S
C232 H245 0.947 . S
C232 C267 1.382 . S
C233 C232 1.384 . S
C233 C234 1.378 . S
C234 C233 1.378 . S
C234 C235 1.378 . S
C234 H246 0.952 . S
C235 C234 1.378 . S
C235 H247 0.950 . S
C235 C266 1.383 . S
H236 C255 0.947 . S
H237 C256 0.946 . S
H238 C258 0.953 . S
H239 C259 0.945 . S
H240 C261 0.952 . S
H241 C262 0.949 . S
H242 C264 0.950 . S
H243 C265 0.948 . S
H244 C267 0.951 . S
H245 C232 0.947 . S
H246 C234 0.952 . S
H247 C235 0.950 . S
N248 C251 1.382 . S
N248 C253 1.363 . S
N249 C251 1.371 . S
N249 C252 1.372 . S
N250 C252 1.361 . S
N250 C253 1.377 . S
C251 N248 1.382 . S
C251 N249 1.371 . S
C251 C254 1.480 . S
C252 N249 1.372 . S
C252 N250 1.361 . S
C252 C260 1.457 . S
C253 N248 1.363 . S
C253 N250 1.377 . S
C253 C266 1.479 . S
C254 C251 1.480 . S
C254 C255 1.383 . S
C254 C259 1.385 . S
C255 H236 0.947 . S
C255 C254 1.383 . S
C255 C256 1.388 . S
C256 H237 0.946 . S
C256 C255 1.388 . S
C256 C257 1.384 . S
C257 C256 1.384 . S
C257 C258 1.377 . S
C258 H238 0.953 . S
C258 C257 1.377 . S
C258 C259 1.369 . S
C259 H239 0.945 . S
C259 C254 1.385 . S
C259 C258 1.369 . S
C260 C252 1.457 . S
C260 C261 1.372 . S
C260 C265 1.364 . S
C261 H240 0.952 . S
C261 C260 1.372 . S
C261 C262 1.389 . S
C262 H241 0.949 . S
C262 C261 1.389 . S
C262 C263 1.387 . S
C263 C262 1.387 . S
C263 C264 1.372 . S
C264 H242 0.950 . S
C264 C263 1.372 . S
C264 C265 1.379 . S
C265 H243 0.948 . S
C265 C260 1.364 . S
C265 C264 1.379 . S
C266 C235 1.383 . S
C266 C253 1.479 . S
C266 C267 1.398 . S
C267 C232 1.382 . S
C267 H244 0.951 . S
C267 C266 1.398 . S
C268 C269 1.384 . S
C268 H281 0.947 . S
C268 C303 1.382 . S
C269 C268 1.384 . S
C269 C270 1.378 . S
C270 C269 1.378 . S
C270 C271 1.378 . S
C270 H282 0.952 . S
C271 C270 1.378 . S
C271 H283 0.950 . S
C271 C302 1.383 . S
H272 C291 0.947 . S
H273 C292 0.946 . S
H274 C294 0.953 . S
H275 C295 0.945 . S
H276 C297 0.952 . S
H277 C298 0.949 . S
H278 C300 0.950 . S
H279 C301 0.948 . S
H280 C303 0.951 . S
H281 C268 0.947 . S
H282 C270 0.952 . S
H283 C271 0.950 . S
N284 C287 1.382 . S
N284 C289 1.363 . S
N285 C287 1.371 . S
N285 C288 1.372 . S
N286 C288 1.361 . S
N286 C289 1.377 . S
C287 N284 1.382 . S
C287 N285 1.371 . S
C287 C290 1.480 . S
C288 N285 1.372 . S
C288 N286 1.361 . S
C288 C296 1.457 . S
C289 N284 1.363 . S
C289 N286 1.377 . S
C289 C302 1.479 . S
C290 C287 1.480 . S
C290 C291 1.383 . S
C290 C295 1.385 . S
C291 H272 0.947 . S
C291 C290 1.383 . S
C291 C292 1.388 . S
C292 H273 0.946 . S
C292 C291 1.388 . S
C292 C293 1.384 . S
C293 C292 1.384 . S
C293 C294 1.377 . S
C294 H274 0.953 . S
C294 C293 1.377 . S
C294 C295 1.369 . S
C295 H275 0.945 . S
C295 C290 1.385 . S
C295 C294 1.369 . S
C296 C288 1.457 . S
C296 C297 1.372 . S
C296 C301 1.364 . S
C297 H276 0.952 . S
C297 C296 1.372 . S
C297 C298 1.389 . S
C298 H277 0.949 . S
C298 C297 1.389 . S
C298 C299 1.387 . S
C299 C298 1.387 . S
C299 C300 1.372 . S
C300 H278 0.950 . S
C300 C299 1.372 . S
C300 C301 1.379 . S
C301 H279 0.948 . S
C301 C296 1.364 . S
C301 C300 1.379 . S
C302 C271 1.383 . S
C302 C289 1.479 . S
C302 C303 1.398 . S
C303 C268 1.382 . S
C303 H280 0.951 . S
C303 C302 1.398 . S
C304 C305 1.384 . S
C304 H317 0.947 . S
C304 C339 1.382 . S
C305 C304 1.384 . S
C305 C306 1.378 . S
C306 C305 1.378 . S
C306 C307 1.378 . S
C306 H318 0.952 . S
C307 C306 1.378 . S
C307 H319 0.950 . S
C307 C338 1.383 . S
H308 C327 0.947 . S
H309 C328 0.946 . S
H310 C330 0.953 . S
H311 C331 0.945 . S
H312 C333 0.952 . S
H313 C334 0.949 . S
H314 C336 0.950 . S
H315 C337 0.948 . S
H316 C339 0.951 . S
H317 C304 0.947 . S
H318 C306 0.952 . S
H319 C307 0.950 . S
N320 C323 1.382 . S
N320 C325 1.363 . S
N321 C323 1.371 . S
N321 C324 1.372 . S
N322 C324 1.361 . S
N322 C325 1.377 . S
C323 N320 1.382 . S
C323 N321 1.371 . S
C323 C326 1.480 . S
C324 N321 1.372 . S
C324 N322 1.361 . S
C324 C332 1.457 . S
C325 N320 1.363 . S
C325 N322 1.377 . S
C325 C338 1.479 . S
C326 C323 1.480 . S
C326 C327 1.383 . S
C326 C331 1.385 . S
C327 H308 0.947 . S
C327 C326 1.383 . S
C327 C328 1.388 . S
C328 H309 0.946 . S
C328 C327 1.388 . S
C328 C329 1.384 . S
C329 C328 1.384 . S
C329 C330 1.377 . S
C330 H310 0.953 . S
C330 C329 1.377 . S
C330 C331 1.369 . S
C331 H311 0.945 . S
C331 C326 1.385 . S
C331 C330 1.369 . S
C332 C324 1.457 . S
C332 C333 1.372 . S
C332 C337 1.364 . S
C333 H312 0.952 . S
C333 C332 1.372 . S
C333 C334 1.389 . S
C334 H313 0.949 . S
C334 C333 1.389 . S
C334 C335 1.387 . S
C335 C334 1.387 . S
C335 C336 1.372 . S
C336 H314 0.950 . S
C336 C335 1.372 . S
C336 C337 1.379 . S
C337 H315 0.948 . S
C337 C332 1.364 . S
C337 C336 1.379 . S
C338 C307 1.383 . S
C338 C325 1.479 . S
C338 C339 1.398 . S
C339 C304 1.382 . S
C339 H316 0.951 . S
C339 C338 1.398 . S
C340 C341 1.384 . S
C340 H353 0.947 . S
C340 C375 1.382 . S
C341 C340 1.384 . S
C341 C342 1.378 . S
C342 C341 1.378 . S
C342 C343 1.378 . S
C342 H354 0.952 . S
C343 C342 1.378 . S
C343 H355 0.950 . S
C343 C374 1.383 . S
H344 C363 0.947 . S
H345 C364 0.946 . S
H346 C366 0.953 . S
H347 C367 0.945 . S
H348 C369 0.952 . S
H349 C370 0.937 1_455 S
H350 C372 0.950 1_455 S
H351 C373 0.948 . S
H352 C375 0.951 . S
H353 C340 0.947 . S
H354 C342 0.952 . S
H355 C343 0.950 . S
N356 C359 1.382 . S
N356 C361 1.363 . S
N357 C359 1.371 . S
N357 C360 1.372 . S
N358 C360 1.361 . S
N358 C361 1.377 . S
C359 N356 1.382 . S
C359 N357 1.371 . S
C359 C362 1.480 . S
C360 N357 1.372 . S
C360 N358 1.361 . S
C360 C368 1.457 . S
C361 N356 1.363 . S
C361 N358 1.377 . S
C361 C374 1.479 . S
C362 C359 1.480 . S
C362 C363 1.383 . S
C362 C367 1.385 . S
C363 H344 0.947 . S
C363 C362 1.383 . S
C363 C364 1.388 . S
C364 H345 0.946 . S
C364 C363 1.388 . S
C364 C365 1.384 . S
C365 C364 1.384 . S
C365 C366 1.377 . S
C366 H346 0.953 . S
C366 C365 1.377 . S
C366 C367 1.369 . S
C367 H347 0.945 . S
C367 C362 1.385 . S
C367 C366 1.369 . S
C368 C360 1.457 . S
C368 C369 1.372 . S
C368 C373 1.364 . S
C369 H348 0.952 . S
C369 C368 1.372 . S
C369 C370 1.389 . S
C370 H349 0.937 1_655 S
C370 C369 1.389 . S
C370 C371 1.387 1_655 S
C371 C370 1.387 1_455 S
C371 C372 1.372 1_455 S
C372 H350 0.950 1_655 S
C372 C371 1.372 1_655 S
C372 C373 1.379 . S
C373 H351 0.948 . S
C373 C368 1.364 . S
C373 C372 1.379 . S
C374 C343 1.383 . S
C374 C361 1.479 . S
C374 C375 1.398 . S
C375 C340 1.382 . S
C375 H352 0.951 . S
C375 C374 1.398 . S
C376 C377 1.349 . S
C376 C378 1.327 . S
C376 H401 0.950 . S
C377 C376 1.349 . S
C377 C393 1.349 . S
C378 C376 1.327 . S
C378 C397 1.429 . S
C378 H402 0.950 . S
C379 C396 1.574 . S
C379 C398 1.368 . S
C379 H403 0.949 . S
H380 C384 0.949 . S
C381 C382 1.349 . S
C381 C383 1.316 1_545 S
C381 H404 0.950 . S
C382 C381 1.349 . S
C382 C394 1.349 . S
C383 C381 1.316 1_565 S
C383 C399 1.432 . S
C383 H405 0.957 . S
C384 H380 0.949 . S
C384 C392 1.574 . S
C384 C400 1.368 . S
H385 C393 0.950 . S
H386 C391 0.950 . S
H387 C392 0.949 . S
H388 C394 0.950 . S
H389 C395 0.958 . S
H390 C396 0.949 . S
C391 H386 0.950 . S
C391 C393 1.327 . S
C391 C397 1.429 . S
C392 C384 1.574 . S
C392 H387 0.949 . S
C392 C398 1.368 . S
C393 C377 1.349 . S
C393 H385 0.950 . S
C393 C391 1.327 . S
C394 C382 1.349 . S
C394 H388 0.950 . S
C394 C395 1.327 . S
C395 H389 0.958 . S
C395 C394 1.327 . S
C395 C399 1.429 1_545 S
C396 C379 1.574 . S
C396 H390 0.949 . S
C396 C400 1.368 . S
C397 C378 1.429 . S
C397 C391 1.429 . S
C397 C398 1.523 . S
C398 C379 1.368 . S
C398 C392 1.368 . S
C398 C397 1.523 . S
C399 C383 1.432 . S
C399 C395 1.429 1_565 S
C399 C400 1.523 . S
C400 C384 1.368 . S
C400 C396 1.368 . S
C400 C399 1.523 . S
H401 C376 0.950 . S
H402 C378 0.950 . S
H403 C379 0.949 . S
H404 C381 0.950 . S
H405 C383 0.957 . S
C406 C407 1.349 . S
C406 C408 1.327 . S
C406 H431 0.950 . S
C407 C406 1.349 . S
C407 C423 1.349 . S
C408 C406 1.327 . S
C408 C427 1.429 . S
C408 H432 0.950 . S
C409 C426 1.574 . S
C409 C428 1.368 . S
C409 H433 0.949 . S
H410 C414 0.949 . S
C411 C412 1.349 . S
C411 C413 1.327 . S
C411 H434 0.950 . S
C412 C411 1.349 . S
C412 C424 1.349 . S
C413 C411 1.327 . S
C413 C429 1.429 . S
C413 H435 0.950 . S
C414 H410 0.949 . S
C414 C422 1.574 . S
C414 C430 1.368 . S
H415 C423 0.950 . S
H416 C421 0.950 . S
H417 C422 0.949 . S
H418 C424 0.950 . S
H419 C425 0.950 . S
H420 C426 0.949 . S
C421 H416 0.950 . S
C421 C423 1.327 . S
C421 C427 1.429 . S
C422 C414 1.574 . S
C422 H417 0.949 . S
C422 C428 1.368 . S
C423 C407 1.349 . S
C423 H415 0.950 . S
C423 C421 1.327 . S
C424 C412 1.349 . S
C424 H418 0.950 . S
C424 C425 1.327 . S
C425 H419 0.950 . S
C425 C424 1.327 . S
C425 C429 1.429 . S
C426 C409 1.574 . S
C426 H420 0.949 . S
C426 C430 1.368 . S
C427 C408 1.429 . S
C427 C421 1.429 . S
C427 C428 1.523 . S
C428 C409 1.368 . S
C428 C422 1.368 . S
C428 C427 1.523 . S
C429 C413 1.429 . S
C429 C425 1.429 . S
C429 C430 1.523 . S
C430 C414 1.368 . S
C430 C426 1.368 . S
C430 C429 1.523 . S
H431 C406 0.950 . S
H432 C408 0.950 . S
H433 C409 0.949 . S
H434 C411 0.950 . S
H435 C413 0.950 . S
C436 C437 1.349 . S
C436 C438 1.327 . S
C436 H461 0.950 . S
C437 C436 1.349 . S
C437 C453 1.349 . S
C438 C436 1.327 . S
C438 C457 1.429 . S
C438 H462 0.950 . S
C439 C456 1.574 . S
C439 C458 1.368 . S
C439 H463 0.949 . S
H440 C444 0.949 . S
C441 C442 1.349 . S
C441 C443 1.327 . S
C441 H464 0.950 . S
C442 C441 1.349 . S
C442 C454 1.349 . S
C443 C441 1.327 . S
C443 C459 1.429 . S
C443 H465 0.950 . S
C444 H440 0.949 . S
C444 C452 1.574 1_565 S
C444 C460 1.368 . S
H445 C453 0.950 . S
H446 C451 0.950 . S
H447 C452 0.949 . S
H448 C454 0.950 . S
H449 C455 0.950 . S
H450 C456 0.949 . S
C451 H446 0.950 . S
C451 C453 1.327 . S
C451 C457 1.429 . S
C452 C444 1.574 1_545 S
C452 H447 0.949 . S
C452 C458 1.368 . S
C453 C437 1.349 . S
C453 H445 0.950 . S
C453 C451 1.327 . S
C454 C442 1.349 . S
C454 H448 0.950 . S
C454 C455 1.327 . S
C455 H449 0.950 . S
C455 C454 1.327 . S
C455 C459 1.429 . S
C456 C439 1.574 . S
C456 H450 0.949 . S
C456 C460 1.368 1_545 S
C457 C438 1.429 . S
C457 C451 1.429 . S
C457 C458 1.523 . S
C458 C439 1.368 . S
C458 C452 1.368 . S
C458 C457 1.523 . S
C459 C443 1.429 . S
C459 C455 1.429 . S
C459 C460 1.523 . S
C460 C444 1.368 . S
C460 C456 1.368 1_565 S
C460 C459 1.523 . S
H461 C436 0.950 . S
H462 C438 0.950 . S
H463 C439 0.949 . S
H464 C441 0.950 . S
H465 C443 0.950 . S
C466 C467 1.349 . S
C466 C468 1.327 . S
C466 H491 0.950 . S
C467 C466 1.349 . S
C467 C483 1.349 . S
C468 C466 1.327 . S
C468 C487 1.429 . S
C468 H492 0.950 . S
C469 C486 1.574 . S
C469 C488 1.368 . S
C469 H493 0.949 . S
H470 C474 0.949 . S
C471 C472 1.349 . S
C471 C473 1.327 . S
C471 H494 0.950 . S
C472 C471 1.349 . S
C472 C484 1.349 . S
C473 C471 1.327 . S
C473 C489 1.429 . S
C473 H495 0.950 . S
C474 H470 0.949 . S
C474 C482 1.574 . S
C474 C490 1.368 . S
H475 C483 0.950 . S
H476 C481 0.950 . S
H477 C482 0.949 . S
H478 C484 0.950 . S
H479 C485 0.950 . S
H480 C486 0.949 . S
C481 H476 0.950 . S
C481 C483 1.327 . S
C481 C487 1.429 . S
C482 C474 1.574 . S
C482 H477 0.949 . S
C482 C488 1.368 . S
C483 C467 1.349 . S
C483 H475 0.950 . S
C483 C481 1.327 . S
C484 C472 1.349 . S
C484 H478 0.950 . S
C484 C485 1.327 . S
C485 H479 0.950 . S
C485 C484 1.327 . S
C485 C489 1.429 . S
C486 C469 1.574 . S
C486 H480 0.949 . S
C486 C490 1.368 . S
C487 C468 1.429 . S
C487 C481 1.429 . S
C487 C488 1.523 . S
C488 C469 1.368 . S
C488 C482 1.368 . S
C488 C487 1.523 . S
C489 C473 1.429 . S
C489 C485 1.429 . S
C489 C490 1.523 . S
C490 C474 1.368 . S
C490 C486 1.368 . S
C490 C489 1.523 . S
H491 C466 0.950 . S
H492 C468 0.950 . S
H493 C469 0.949 . S
H494 C471 0.950 . S
H495 C473 0.950 . S
C496 C497 1.349 . S
C496 C498 1.327 . S
C496 H521 0.950 . S
C497 C496 1.349 . S
C497 C513 1.349 . S
C498 C496 1.327 . S
C498 C517 1.429 . S
C498 H522 0.950 . S
C499 C516 1.574 . S
C499 C518 1.368 . S
C499 H523 0.949 . S
H500 C504 0.949 . S
C501 C502 1.349 . S
C501 C503 1.327 . S
C501 H524 0.950 . S
C502 C501 1.349 . S
C502 C514 1.349 . S
C503 C501 1.327 . S
C503 C519 1.429 . S
C503 H525 0.950 . S
C504 H500 0.949 . S
C504 C512 1.574 . S
C504 C520 1.368 . S
H505 C513 0.950 . S
H506 C511 0.950 . S
H507 C512 0.949 . S
H508 C514 0.950 . S
H509 C515 0.950 . S
H510 C516 0.949 . S
C511 H506 0.950 . S
C511 C513 1.327 . S
C511 C517 1.429 . S
C512 C504 1.574 . S
C512 H507 0.949 . S
C512 C518 1.368 . S
C513 C497 1.349 . S
C513 H505 0.950 . S
C513 C511 1.327 . S
C514 C502 1.349 . S
C514 H508 0.950 . S
C514 C515 1.327 . S
C515 H509 0.950 . S
C515 C514 1.327 . S
C515 C519 1.429 . S
C516 C499 1.574 . S
C516 H510 0.949 . S
C516 C520 1.368 . S
C517 C498 1.429 . S
C517 C511 1.429 . S
C517 C518 1.523 . S
C518 C499 1.368 . S
C518 C512 1.368 . S
C518 C517 1.523 . S
C519 C503 1.429 . S
C519 C515 1.429 . S
C519 C520 1.523 . S
C520 C504 1.368 . S
C520 C516 1.368 . S
C520 C519 1.523 . S
H521 C496 0.950 . S
H522 C498 0.950 . S
H523 C499 0.949 . S
H524 C501 0.950 . S
H525 C503 0.950 . S
C526 C527 1.349 . S
C526 C528 1.327 . S
C526 H551 0.950 . S
C527 C526 1.349 . S
C527 C543 1.349 1_556 S
C528 C526 1.327 . S
C528 C547 1.429 . S
C528 H552 0.950 . S
C529 C546 1.574 . S
C529 C548 1.368 1_455 S
C529 H553 0.949 1_556 S
H530 C534 0.949 . S
C531 C532 1.349 . S
C531 C533 1.327 . S
C531 H554 0.950 . S
C532 C531 1.349 . S
C532 C544 1.349 . S
C533 C531 1.327 . S
C533 C549 1.429 . S
C533 H555 0.950 . S
C534 H530 0.949 . S
C534 C542 1.566 1_455 S
C534 C550 1.368 . S
H535 C543 0.950 . S
H536 C541 0.936 1_554 S
H537 C542 0.955 . S
H538 C544 0.950 . S
H539 C545 0.950 . S
H540 C546 0.949 1_554 S
C541 H536 0.936 1_556 S
C541 C543 1.325 1_556 S
C541 C547 1.444 . S
C542 C534 1.566 1_655 S
C542 H537 0.955 . S
C542 C548 1.370 . S
C543 C527 1.349 1_554 S
C543 H535 0.950 . S
C543 C541 1.325 1_554 S
C544 C532 1.349 . S
C544 H538 0.950 . S
C544 C545 1.327 . S
C545 H539 0.950 . S
C545 C544 1.327 . S
C545 C549 1.429 . S
C546 C529 1.574 . S
C546 H540 0.949 1_556 S
C546 C550 1.368 . S
C547 C528 1.429 . S
C547 C541 1.444 . S
C547 C548 1.523 . S
C548 C529 1.368 1_655 S
C548 C542 1.370 . S
C548 C547 1.523 . S
C549 C533 1.429 . S
C549 C545 1.429 . S
C549 C550 1.523 . S
C550 C534 1.368 . S
C550 C546 1.368 . S
C550 C549 1.523 . S
H551 C526 0.950 . S
H552 C528 0.950 . S
H553 C529 0.949 1_554 S
H554 C531 0.950 . S
H555 C533 0.950 . S
C556 C557 1.349 . S
C556 C558 1.327 . S
C556 H581 0.950 . S
C557 C556 1.349 . S
C557 C573 1.349 . S
C558 C556 1.327 . S
C558 C577 1.429 . S
C558 H582 0.950 . S
C559 C576 1.574 . S
C559 C578 1.368 . S
C559 H583 0.949 . S
H560 C564 0.949 . S
C561 C562 1.349 . S
C561 C563 1.327 . S
C561 H584 0.950 . S
C562 C561 1.349 . S
C562 C574 1.349 . S
C563 C561 1.327 . S
C563 C579 1.429 . S
C563 H585 0.950 . S
C564 H560 0.949 . S
C564 C572 1.574 . S
C564 C580 1.368 . S
H565 C573 0.950 . S
H566 C571 0.950 . S
H567 C572 0.949 . S
H568 C574 0.950 . S
H569 C575 0.950 . S
H570 C576 0.949 . S
C571 H566 0.950 . S
C571 C573 1.327 . S
C571 C577 1.429 . S
C572 C564 1.574 . S
C572 H567 0.949 . S
C572 C578 1.368 . S
C573 C557 1.349 . S
C573 H565 0.950 . S
C573 C571 1.327 . S
C574 C562 1.349 . S
C574 H568 0.950 . S
C574 C575 1.327 . S
C575 H569 0.950 . S
C575 C574 1.327 . S
C575 C579 1.429 . S
C576 C559 1.574 . S
C576 H570 0.949 . S
C576 C580 1.368 . S
C577 C558 1.429 . S
C577 C571 1.429 . S
C577 C578 1.523 . S
C578 C559 1.368 . S
C578 C572 1.368 . S
C578 C577 1.523 . S
C579 C563 1.429 . S
C579 C575 1.429 . S
C579 C580 1.523 . S
C580 C564 1.368 . S
C580 C576 1.368 . S
C580 C579 1.523 . S
H581 C556 0.950 . S
H582 C558 0.950 . S
H583 C559 0.949 . S
H584 C561 0.950 . S
H585 C563 0.950 . S
C586 C587 1.349 . S
C586 C588 1.327 . S
C586 H611 0.950 . S
C587 C586 1.349 . S
C587 C603 1.349 . S
C588 C586 1.327 . S
C588 C607 1.429 . S
C588 H612 0.950 . S
C589 C606 1.574 . S
C589 C608 1.368 . S
C589 H613 0.949 . S
H590 C594 0.949 . S
C591 C592 1.349 . S
C591 C593 1.327 . S
C591 H614 0.950 . S
C592 C591 1.349 . S
C592 C604 1.349 . S
C593 C591 1.327 . S
C593 C609 1.429 . S
C593 H615 0.950 . S
C594 H590 0.949 . S
C594 C602 1.574 . S
C594 C610 1.368 . S
H595 C603 0.950 . S
H596 C601 0.950 . S
H597 C602 0.949 . S
H598 C604 0.950 . S
H599 C605 0.950 . S
H600 C606 0.949 . S
C601 H596 0.950 . S
C601 C603 1.327 . S
C601 C607 1.429 . S
C602 C594 1.574 . S
C602 H597 0.949 . S
C602 C608 1.368 . S
C603 C587 1.349 . S
C603 H595 0.950 . S
C603 C601 1.327 . S
C604 C592 1.349 . S
C604 H598 0.950 . S
C604 C605 1.327 . S
C605 H599 0.950 . S
C605 C604 1.327 . S
C605 C609 1.429 . S
C606 C589 1.574 . S
C606 H600 0.949 . S
C606 C610 1.368 . S
C607 C588 1.429 . S
C607 C601 1.429 . S
C607 C608 1.523 . S
C608 C589 1.368 . S
C608 C602 1.368 . S
C608 C607 1.523 . S
C609 C593 1.429 . S
C609 C605 1.429 . S
C609 C610 1.523 . S
C610 C594 1.368 . S
C610 C606 1.368 . S
C610 C609 1.523 . S
H611 C586 0.950 . S
H612 C588 0.950 . S
H613 C589 0.949 . S
H614 C591 0.950 . S
H615 C593 0.950 . S
C616 C617 1.349 . S
C616 C618 1.327 . S
C616 H641 0.950 . S
C617 C616 1.349 . S
C617 C633 1.349 . S
C618 C616 1.327 . S
C618 C637 1.429 . S
C618 H642 0.950 . S
C619 C636 1.574 . S
C619 C638 1.368 . S
C619 H643 0.949 . S
H620 C624 0.987 . S
C621 C622 1.349 . S
C621 C623 1.327 1_565 S
C621 H644 0.950 . S
C622 C621 1.349 . S
C622 C634 1.349 . S
C623 C621 1.327 1_545 S
C623 C639 1.429 . S
C623 H645 0.950 . S
C624 H620 0.987 . S
C624 C632 1.574 . S
C624 C640 1.368 . S
H625 C633 0.950 . S
H626 C631 0.950 . S
H627 C632 0.949 . S
H628 C634 0.950 . S
H629 C635 0.950 . S
H630 C636 0.949 . S
C631 H626 0.950 . S
C631 C633 1.327 . S
C631 C637 1.429 . S
C632 C624 1.574 . S
C632 H627 0.949 . S
C632 C638 1.368 . S
C633 C617 1.349 . S
C633 H625 0.950 . S
C633 C631 1.327 . S
C634 C622 1.349 . S
C634 H628 0.950 . S
C634 C635 1.327 . S
C635 H629 0.950 . S
C635 C634 1.327 . S
C635 C639 1.429 1_565 S
C636 C619 1.574 . S
C636 H630 0.949 . S
C636 C640 1.368 . S
C637 C618 1.429 . S
C637 C631 1.429 . S
C637 C638 1.523 . S
C638 C619 1.368 . S
C638 C632 1.368 . S
C638 C637 1.523 . S
C639 C623 1.429 . S
C639 C635 1.429 1_545 S
C639 C640 1.523 . S
C640 C624 1.368 . S
C640 C636 1.368 . S
C640 C639 1.523 . S
H641 C616 0.950 . S
H642 C618 0.950 . S
H643 C619 0.949 . S
H644 C621 0.950 . S
H645 C623 0.950 . S
C646 C647 1.349 . S
C646 C648 1.327 . S
C646 H671 0.950 . S
C647 C646 1.349 . S
C647 C663 1.349 . S
C648 C646 1.327 . S
C648 C667 1.429 . S
C648 H672 0.950 . S
C649 C666 1.574 . S
C649 C668 1.368 . S
C649 H673 0.949 . S
H650 C654 0.949 . S
C651 C652 1.349 . S
C651 C653 1.327 . S
C651 H674 0.950 . S
C652 C651 1.349 . S
C652 C664 1.349 . S
C653 C651 1.327 . S
C653 C669 1.429 . S
C653 H675 0.950 . S
C654 H650 0.949 . S
C654 C662 1.574 . S
C654 C670 1.368 . S
H655 C663 0.950 . S
H656 C661 0.950 . S
H657 C662 0.949 . S
H658 C664 0.950 . S
H659 C665 0.950 . S
H660 C666 0.949 . S
C661 H656 0.950 . S
C661 C663 1.327 . S
C661 C667 1.429 . S
C662 C654 1.574 . S
C662 H657 0.949 . S
C662 C668 1.368 . S
C663 C647 1.349 . S
C663 H655 0.950 . S
C663 C661 1.327 . S
C664 C652 1.349 . S
C664 H658 0.950 . S
C664 C665 1.327 . S
C665 H659 0.950 . S
C665 C664 1.327 . S
C665 C669 1.429 . S
C666 C649 1.574 . S
C666 H660 0.949 . S
C666 C670 1.368 . S
C667 C648 1.429 . S
C667 C661 1.429 . S
C667 C668 1.523 . S
C668 C649 1.368 . S
C668 C662 1.368 . S
C668 C667 1.523 . S
C669 C653 1.429 . S
C669 C665 1.429 . S
C669 C670 1.523 . S
C670 C654 1.368 . S
C670 C666 1.368 . S
C670 C669 1.523 . S
H671 C646 0.950 . S
H672 C648 0.950 . S
H673 C649 0.949 . S
H674 C651 0.950 . S
H675 C653 0.950 . S
C676 C677 1.349 . S
C676 C678 1.327 . S
C676 H701 0.950 . S
C677 C676 1.349 . S
C677 C693 1.349 . S
C678 C676 1.327 . S
C678 C697 1.429 . S
C678 H702 0.950 . S
C679 C696 1.562 1_565 S
C679 C698 1.368 1_556 S
C679 H703 0.949 . S
H680 C684 0.949 1_545 S
C681 C682 1.349 . S
C681 C683 1.327 . S
C681 H704 0.950 . S
C682 C681 1.349 . S
C682 C694 1.349 . S
C683 C681 1.327 . S
C683 C699 1.429 . S
C683 H705 0.950 . S
C684 H680 0.949 1_565 S
C684 C692 1.574 . S
C684 C700 1.368 1_564 S
H685 C693 0.950 . S
H686 C691 0.938 1_556 S
H687 C692 0.949 . S
H688 C694 0.950 . S
H689 C695 0.921 1_554 S
H690 C696 0.957 . S
C691 H686 0.938 1_554 S
C691 C693 1.333 . S
C691 C697 1.434 . S
C692 C684 1.574 . S
C692 H687 0.949 . S
C692 C698 1.368 . S
C693 C677 1.349 . S
C693 H685 0.950 . S
C693 C691 1.333 . S
C694 C682 1.349 . S
C694 H688 0.950 . S
C694 C695 1.327 . S
C695 H689 0.921 1_556 S
C695 C694 1.327 . S
C695 C699 1.429 . S
C696 C679 1.562 1_545 S
C696 H690 0.957 . S
C696 C700 1.371 . S
C697 C678 1.429 . S
C697 C691 1.434 . S
C697 C698 1.523 . S
C698 C679 1.368 1_554 S
C698 C692 1.368 . S
C698 C697 1.523 . S
C699 C683 1.429 . S
C699 C695 1.429 . S
C699 C700 1.523 . S
C700 C684 1.368 1_546 S
C700 C696 1.371 . S
C700 C699 1.523 . S
H701 C676 0.950 . S
H702 C678 0.950 . S
H703 C679 0.949 . S
H704 C681 0.950 . S
H705 C683 0.950 . S
C706 C707 1.349 . S
C706 C708 1.327 . S
C706 H731 0.950 . S
C707 C706 1.349 . S
C707 C723 1.349 . S
C708 C706 1.327 . S
C708 C727 1.429 . S
C708 H732 0.950 . S
C709 C726 1.574 . S
C709 C728 1.368 . S
C709 H733 0.949 . S
H710 C714 0.949 . S
C711 C712 1.349 . S
C711 C713 1.327 . S
C711 H734 0.950 . S
C712 C711 1.349 . S
C712 C724 1.349 . S
C713 C711 1.327 . S
C713 C729 1.429 . S
C713 H735 0.950 . S
C714 H710 0.949 . S
C714 C722 1.574 . S
C714 C730 1.368 . S
H715 C723 0.950 . S
H716 C721 0.950 . S
H717 C722 0.949 . S
H718 C724 0.950 . S
H719 C725 0.950 . S
H720 C726 0.949 . S
C721 H716 0.950 . S
C721 C723 1.327 . S
C721 C727 1.429 . S
C722 C714 1.574 . S
C722 H717 0.949 . S
C722 C728 1.368 . S
C723 C707 1.349 . S
C723 H715 0.950 . S
C723 C721 1.327 . S
C724 C712 1.349 . S
C724 H718 0.950 . S
C724 C725 1.327 . S
C725 H719 0.950 . S
C725 C724 1.327 . S
C725 C729 1.429 . S
C726 C709 1.574 . S
C726 H720 0.949 . S
C726 C730 1.368 . S
C727 C708 1.429 . S
C727 C721 1.429 . S
C727 C728 1.523 . S
C728 C709 1.368 . S
C728 C722 1.368 . S
C728 C727 1.523 . S
C729 C713 1.429 . S
C729 C725 1.429 . S
C729 C730 1.523 . S
C730 C714 1.368 . S
C730 C726 1.368 . S
C730 C729 1.523 . S
H731 C706 0.950 . S
H732 C708 0.950 . S
H733 C709 0.949 . S
H734 C711 0.950 . S
H735 C713 0.950 . S
C736 C737 1.349 . S
C736 C738 1.327 . S
C736 H761 0.950 . S
C737 C736 1.349 . S
C737 C753 1.349 . S
C738 C736 1.327 . S
C738 C757 1.429 . S
C738 H762 0.950 . S
C739 C756 1.574 . S
C739 C758 1.368 . S
C739 H763 0.949 . S
H740 C744 0.949 . S
C741 C742 1.349 . S
C741 C743 1.327 . S
C741 H764 0.950 . S
C742 C741 1.349 . S
C742 C754 1.349 . S
C743 C741 1.327 . S
C743 C759 1.429 . S
C743 H765 0.950 . S
C744 H740 0.949 . S
C744 C752 1.574 . S
C744 C760 1.368 . S
H745 C753 0.950 . S
H746 C751 0.950 . S
H747 C752 0.949 . S
H748 C754 0.950 . S
H749 C755 0.950 . S
H750 C756 0.949 . S
C751 H746 0.950 . S
C751 C753 1.327 . S
C751 C757 1.429 . S
C752 C744 1.574 . S
C752 H747 0.949 . S
C752 C758 1.368 . S
C753 C737 1.349 . S
C753 H745 0.950 . S
C753 C751 1.327 . S
C754 C742 1.349 . S
C754 H748 0.950 . S
C754 C755 1.327 . S
C755 H749 0.950 . S
C755 C754 1.327 . S
C755 C759 1.429 . S
C756 C739 1.574 . S
C756 H750 0.949 . S
C756 C760 1.368 . S
C757 C738 1.429 . S
C757 C751 1.429 . S
C757 C758 1.523 . S
C758 C739 1.368 . S
C758 C752 1.368 . S
C758 C757 1.523 . S
C759 C743 1.429 . S
C759 C755 1.429 . S
C759 C760 1.523 . S
C760 C744 1.368 . S
C760 C756 1.368 . S
C760 C759 1.523 . S
H761 C736 0.950 . S
H762 C738 0.950 . S
H763 C739 0.949 . S
H764 C741 0.950 . S
H765 C743 0.950 . S
C766 C767 1.349 . S
C766 C768 1.327 . S
C766 H791 0.950 . S
C767 C766 1.349 . S
C767 C783 1.349 . S
C768 C766 1.327 . S
C768 C787 1.429 . S
C768 H792 0.950 . S
C769 C786 1.574 . S
C769 C788 1.368 1_655 S
C769 H793 0.949 1_655 S
H770 C774 0.949 . S
C771 C772 1.349 . S
C771 C773 1.327 . S
C771 H794 0.950 . S
C772 C771 1.349 . S
C772 C784 1.349 . S
C773 C771 1.327 . S
C773 C789 1.429 . S
C773 H795 0.950 . S
C774 H770 0.949 . S
C774 C782 1.574 . S
C774 C790 1.368 . S
H775 C783 0.950 . S
H776 C781 0.950 . S
H777 C782 0.949 1_455 S
H778 C784 0.950 . S
H779 C785 0.950 . S
H780 C786 0.949 . S
C781 H776 0.950 . S
C781 C783 1.327 . S
C781 C787 1.429 . S
C782 C774 1.574 . S
C782 H777 0.949 1_655 S
C782 C788 1.368 1_655 S
C783 C767 1.349 . S
C783 H775 0.950 . S
C783 C781 1.327 . S
C784 C772 1.349 . S
C784 H778 0.950 . S
C784 C785 1.327 . S
C785 H779 0.950 . S
C785 C784 1.327 . S
C785 C789 1.429 . S
C786 C769 1.574 . S
C786 H780 0.949 . S
C786 C790 1.368 . S
C787 C768 1.429 . S
C787 C781 1.429 . S
C787 C788 1.523 . S
C788 C769 1.368 1_455 S
C788 C782 1.368 1_455 S
C788 C787 1.523 . S
C789 C773 1.429 . S
C789 C785 1.429 . S
C789 C790 1.523 . S
C790 C774 1.368 . S
C790 C786 1.368 . S
C790 C789 1.523 . S
H791 C766 0.950 . S
H792 C768 0.950 . S
H793 C769 0.949 1_455 S
H794 C771 0.950 . S
H795 C773 0.950 . S
C796 C797 1.349 . S
C796 C798 1.327 . S
C796 H821 0.950 . S
C797 C796 1.349 . S
C797 C813 1.349 . S
C798 C796 1.327 . S
C798 C817 1.429 . S
C798 H822 0.950 . S
C799 C816 1.574 . S
C799 C818 1.368 . S
C799 H823 0.949 . S
H800 C804 0.949 . S
C801 C802 1.349 . S
C801 C803 1.327 . S
C801 H824 0.950 . S
C802 C801 1.349 . S
C802 C814 1.349 . S
C803 C801 1.327 . S
C803 C819 1.429 . S
C803 H825 0.950 . S
C804 H800 0.949 . S
C804 C812 1.574 . S
C804 C820 1.368 . S
H805 C813 0.950 . S
H806 C811 0.950 . S
H807 C812 0.949 . S
H808 C814 0.950 . S
H809 C815 0.950 . S
H810 C816 0.949 . S
C811 H806 0.950 . S
C811 C813 1.327 . S
C811 C817 1.429 . S
C812 C804 1.574 . S
C812 H807 0.949 . S
C812 C818 1.368 . S
C813 C797 1.349 . S
C813 H805 0.950 . S
C813 C811 1.327 . S
C814 C802 1.349 . S
C814 H808 0.950 . S
C814 C815 1.327 . S
C815 H809 0.950 . S
C815 C814 1.327 . S
C815 C819 1.429 . S
C816 C799 1.574 . S
C816 H810 0.949 . S
C816 C820 1.368 . S
C817 C798 1.429 . S
C817 C811 1.429 . S
C817 C818 1.523 . S
C818 C799 1.368 . S
C818 C812 1.368 . S
C818 C817 1.523 . S
C819 C803 1.429 . S
C819 C815 1.429 . S
C819 C820 1.523 . S
C820 C804 1.368 . S
C820 C816 1.368 . S
C820 C819 1.523 . S
H821 C796 0.950 . S
H822 C798 0.950 . S
H823 C799 0.949 . S
H824 C801 0.950 . S
H825 C803 0.950 . S
C826 C827 1.349 . S
C826 C828 1.327 . S
C826 H851 0.950 . S
C827 C826 1.349 . S
C827 C843 1.349 . S
C828 C826 1.327 . S
C828 C847 1.429 . S
C828 H852 0.950 . S
C829 C846 1.574 . S
C829 C848 1.368 . S
C829 H853 0.949 . S
H830 C834 0.949 . S
C831 C832 1.349 . S
C831 C833 1.327 . S
C831 H854 0.950 . S
C832 C831 1.349 . S
C832 C844 1.349 . S
C833 C831 1.327 . S
C833 C849 1.429 . S
C833 H855 0.950 . S
C834 H830 0.949 . S
C834 C842 1.574 . S
C834 C850 1.368 . S
H835 C843 0.950 . S
H836 C841 0.950 . S
H837 C842 0.949 . S
H838 C844 0.950 . S
H839 C845 0.950 . S
H840 C846 0.949 . S
C841 H836 0.950 . S
C841 C843 1.327 . S
C841 C847 1.429 . S
C842 C834 1.574 . S
C842 H837 0.949 . S
C842 C848 1.368 . S
C843 C827 1.349 . S
C843 H835 0.950 . S
C843 C841 1.327 . S
C844 C832 1.349 . S
C844 H838 0.950 . S
C844 C845 1.327 . S
C845 H839 0.950 . S
C845 C844 1.327 . S
C845 C849 1.429 . S
C846 C829 1.574 . S
C846 H840 0.949 . S
C846 C850 1.368 . S
C847 C828 1.429 . S
C847 C841 1.429 . S
C847 C848 1.523 . S
C848 C829 1.368 . S
C848 C842 1.368 . S
C848 C847 1.523 . S
C849 C833 1.429 . S
C849 C845 1.429 . S
C849 C850 1.523 . S
C850 C834 1.368 . S
C850 C846 1.368 . S
C850 C849 1.523 . S
H851 C826 0.950 . S
H852 C828 0.950 . S
H853 C829 0.949 . S
H854 C831 0.950 . S
H855 C833 0.950 . S
C856 C857 1.349 . S
C856 C858 1.327 . S
C856 H881 0.950 . S
C857 C856 1.349 . S
C857 C873 1.349 . S
C858 C856 1.327 . S
C858 C877 1.429 . S
C858 H882 0.950 . S
C859 C876 1.574 . S
C859 C878 1.368 . S
C859 H883 0.949 . S
H860 C864 0.949 . S
C861 C862 1.349 . S
C861 C863 1.327 . S
C861 H884 0.950 . S
C862 C861 1.349 . S
C862 C874 1.349 . S
C863 C861 1.327 . S
C863 C879 1.429 . S
C863 H885 0.950 . S
C864 H860 0.949 . S
C864 C872 1.574 . S
C864 C880 1.368 . S
H865 C873 0.950 . S
H866 C871 0.950 . S
H867 C872 0.949 . S
H868 C874 0.950 . S
H869 C875 0.950 . S
H870 C876 0.949 . S
C871 H866 0.950 . S
C871 C873 1.327 . S
C871 C877 1.429 . S
C872 C864 1.574 . S
C872 H867 0.949 . S
C872 C878 1.368 . S
C873 C857 1.349 . S
C873 H865 0.950 . S
C873 C871 1.327 . S
C874 C862 1.349 . S
C874 H868 0.950 . S
C874 C875 1.327 . S
C875 H869 0.950 . S
C875 C874 1.327 . S
C875 C879 1.429 . S
C876 C859 1.574 . S
C876 H870 0.949 . S
C876 C880 1.368 . S
C877 C858 1.429 . S
C877 C871 1.429 . S
C877 C878 1.523 . S
C878 C859 1.368 . S
C878 C872 1.368 . S
C878 C877 1.523 . S
C879 C863 1.429 . S
C879 C875 1.429 . S
C879 C880 1.523 . S
C880 C864 1.368 . S
C880 C876 1.368 . S
C880 C879 1.523 . S
H881 C856 0.950 . S
H882 C858 0.950 . S
H883 C859 0.949 . S
H884 C861 0.950 . S
H885 C863 0.950 . S
C886 C887 1.349 . S
C886 C888 1.327 . S
C886 H911 0.950 . S
C887 C886 1.349 . S
C887 C903 1.349 . S
C888 C886 1.327 . S
C888 C907 1.429 . S
C888 H912 0.950 . S
C889 C906 1.574 . S
C889 C908 1.368 . S
C889 H913 0.949 . S
H890 C894 0.949 . S
C891 C892 1.349 . S
C891 C893 1.327 . S
C891 H914 0.950 . S
C892 C891 1.349 . S
C892 C904 1.349 . S
C893 C891 1.327 . S
C893 C909 1.429 . S
C893 H915 0.950 . S
C894 H890 0.949 . S
C894 C902 1.574 . S
C894 C910 1.368 . S
H895 C903 0.950 . S
H896 C901 0.950 . S
H897 C902 0.949 . S
H898 C904 0.950 . S
H899 C905 0.950 . S
H900 C906 0.949 . S
C901 H896 0.950 . S
C901 C903 1.327 . S
C901 C907 1.429 . S
C902 C894 1.574 . S
C902 H897 0.949 . S
C902 C908 1.368 . S
C903 C887 1.349 . S
C903 H895 0.950 . S
C903 C901 1.327 . S
C904 C892 1.349 . S
C904 H898 0.950 . S
C904 C905 1.327 . S
C905 H899 0.950 . S
C905 C904 1.327 . S
C905 C909 1.429 . S
C906 C889 1.574 . S
C906 H900 0.949 . S
C906 C910 1.368 . S
C907 C888 1.429 . S
C907 C901 1.429 . S
C907 C908 1.523 . S
C908 C889 1.368 . S
C908 C902 1.368 . S
C908 C907 1.523 . S
C909 C893 1.429 . S
C909 C905 1.429 . S
C909 C910 1.523 . S
C910 C894 1.368 . S
C910 C906 1.368 . S
C910 C909 1.523 . S
H911 C886 0.950 . S
H912 C888 0.950 . S
H913 C889 0.949 . S
H914 C891 0.950 . S
H915 C893 0.950 . S
C916 C917 1.349 . S
C916 C918 1.327 . S
C916 H941 0.950 . S
C917 C916 1.349 . S
C917 C933 1.349 . S
C918 C916 1.327 . S
C918 C937 1.429 . S
C918 H942 0.950 . S
C919 C936 1.574 . S
C919 C938 1.368 . S
C919 H943 0.949 . S
H920 C924 0.949 . S
C921 C922 1.349 . S
C921 C923 1.327 . S
C921 H944 0.950 . S
C922 C921 1.349 . S
C922 C934 1.349 . S
C923 C921 1.327 . S
C923 C939 1.429 . S
C923 H945 0.950 . S
C924 H920 0.949 . S
C924 C932 1.574 . S
C924 C940 1.368 . S
H925 C933 0.950 . S
H926 C931 0.950 . S
H927 C932 0.949 . S
H928 C934 0.950 . S
H929 C935 0.950 . S
H930 C936 0.949 . S
C931 H926 0.950 . S
C931 C933 1.327 . S
C931 C937 1.429 . S
C932 C924 1.574 . S
C932 H927 0.949 . S
C932 C938 1.368 . S
C933 C917 1.349 . S
C933 H925 0.950 . S
C933 C931 1.327 . S
C934 C922 1.349 . S
C934 H928 0.950 . S
C934 C935 1.327 . S
C935 H929 0.950 . S
C935 C934 1.327 . S
C935 C939 1.429 . S
C936 C919 1.574 . S
C936 H930 0.949 . S
C936 C940 1.368 . S
C937 C918 1.429 . S
C937 C931 1.429 . S
C937 C938 1.523 . S
C938 C919 1.368 . S
C938 C932 1.368 . S
C938 C937 1.523 . S
C939 C923 1.429 . S
C939 C935 1.429 . S
C939 C940 1.523 . S
C940 C924 1.368 . S
C940 C936 1.368 . S
C940 C939 1.523 . S
H941 C916 0.950 . S
H942 C918 0.950 . S
H943 C919 0.949 . S
H944 C921 0.950 . S
H945 C923 0.950 . S
C946 C947 1.349 . S
C946 C948 1.327 . S
C946 H971 0.950 . S
C947 C946 1.349 . S
C947 C963 1.349 . S
C948 C946 1.327 . S
C948 C967 1.429 . S
C948 H972 0.950 . S
C949 C966 1.574 . S
C949 C968 1.368 . S
C949 H973 0.949 . S
H950 C954 0.949 . S
C951 C952 1.349 . S
C951 C953 1.327 . S
C951 H974 0.950 . S
C952 C951 1.349 . S
C952 C964 1.349 . S
C953 C951 1.327 . S
C953 C969 1.429 . S
C953 H975 0.950 . S
C954 H950 0.949 . S
C954 C962 1.574 . S
C954 C970 1.368 . S
H955 C963 0.950 . S
H956 C961 0.950 . S
H957 C962 0.949 . S
H958 C964 0.950 . S
H959 C965 0.950 . S
H960 C966 0.949 . S
C961 H956 0.950 . S
C961 C963 1.327 . S
C961 C967 1.429 . S
C962 C954 1.574 . S
C962 H957 0.949 . S
C962 C968 1.368 . S
C963 C947 1.349 . S
C963 H955 0.950 . S
C963 C961 1.327 . S
C964 C952 1.349 . S
C964 H958 0.950 . S
C964 C965 1.327 . S
C965 H959 0.950 . S
C965 C964 1.327 . S
C965 C969 1.429 . S
C966 C949 1.574 . S
C966 H960 0.949 . S
C966 C970 1.368 . S
C967 C948 1.429 . S
C967 C961 1.429 . S
C967 C968 1.523 . S
C968 C949 1.368 . S
C968 C962 1.368 . S
C968 C967 1.523 . S
C969 C953 1.429 . S
C969 C965 1.429 . S
C969 C970 1.523 . S
C970 C954 1.368 . S
C970 C966 1.368 . S
C970 C969 1.523 . S
H971 C946 0.950 . S
H972 C948 0.950 . S
H973 C949 0.949 . S
H974 C951 0.950 . S
H975 C953 0.950 . S
C976 C977 1.349 . S
C976 C978 1.327 . S
C976 H1001 0.950 . S
C977 C976 1.349 . S
C977 C993 1.349 . S
C978 C976 1.327 . S
C978 C997 1.429 . S
C978 H1002 0.950 . S
C979 C996 1.574 . S
C979 C998 1.368 . S
C979 H1003 0.949 . S
H980 C984 0.949 . S
C981 C982 1.349 . S
C981 C983 1.327 . S
C981 H1004 0.950 . S
C982 C981 1.349 . S
C982 C994 1.349 . S
C983 C981 1.327 . S
C983 C999 1.429 . S
C983 H1005 0.950 . S
C984 H980 0.949 . S
C984 C992 1.574 . S
C984 C1000 1.368 . S
H985 C993 0.950 . S
H986 C991 0.950 . S
H987 C992 0.949 . S
H988 C994 0.950 . S
H989 C995 0.950 . S
H990 C996 0.949 . S
C991 H986 0.950 . S
C991 C993 1.327 . S
C991 C997 1.429 . S
C992 C984 1.574 . S
C992 H987 0.949 . S
C992 C998 1.368 . S
C993 C977 1.349 . S
C993 H985 0.950 . S
C993 C991 1.327 . S
C994 C982 1.349 . S
C994 H988 0.950 . S
C994 C995 1.327 . S
C995 H989 0.950 . S
C995 C994 1.327 . S
C995 C999 1.429 . S
C996 C979 1.574 . S
C996 H990 0.949 . S
C996 C1000 1.368 . S
C997 C978 1.429 . S
C997 C991 1.429 . S
C997 C998 1.523 . S
C998 C979 1.368 . S
C998 C992 1.368 . S
C998 C997 1.523 . S
C999 C983 1.429 . S
C999 C995 1.429 . S
C999 C1000 1.523 . S
C1000 C984 1.368 . S
C1000 C996 1.368 . S
C1000 C999 1.523 . S
H1001 C976 0.950 . S
H1002 C978 0.950 . S
H1003 C979 0.949 . S
H1004 C981 0.950 . S
H1005 C983 0.950 . S
C1006 C1007 1.349 . S
C1006 C1008 1.327 . S
C1006 H1031 0.950 . S
C1007 C1006 1.349 . S
C1007 C1023 1.349 . S
C1008 C1006 1.327 . S
C1008 C1027 1.429 . S
C1008 H1032 0.950 . S
C1009 C1026 1.574 . S
C1009 C1028 1.368 . S
C1009 H1033 0.949 . S
H1010 C1014 0.949 . S
C1011 C1012 1.349 . S
C1011 C1013 1.327 . S
C1011 H1034 0.950 . S
C1012 C1011 1.349 . S
C1012 C1024 1.349 . S
C1013 C1011 1.327 . S
C1013 C1029 1.429 . S
C1013 H1035 0.950 . S
C1014 H1010 0.949 . S
C1014 C1022 1.574 . S
C1014 C1030 1.368 . S
H1015 C1023 0.950 . S
H1016 C1021 0.950 . S
H1017 C1022 0.949 . S
H1018 C1024 0.950 . S
H1019 C1025 0.950 . S
H1020 C1026 0.949 . S
C1021 H1016 0.950 . S
C1021 C1023 1.327 . S
C1021 C1027 1.429 . S
C1022 C1014 1.574 . S
C1022 H1017 0.949 . S
C1022 C1028 1.368 . S
C1023 C1007 1.349 . S
C1023 H1015 0.950 . S
C1023 C1021 1.327 . S
C1024 C1012 1.349 . S
C1024 H1018 0.950 . S
C1024 C1025 1.327 . S
C1025 H1019 0.950 . S
C1025 C1024 1.327 . S
C1025 C1029 1.429 . S
C1026 C1009 1.574 . S
C1026 H1020 0.949 . S
C1026 C1030 1.368 . S
C1027 C1008 1.429 . S
C1027 C1021 1.429 . S
C1027 C1028 1.523 . S
C1028 C1009 1.368 . S
C1028 C1022 1.368 . S
C1028 C1027 1.523 . S
C1029 C1013 1.429 . S
C1029 C1025 1.429 . S
C1029 C1030 1.523 . S
C1030 C1014 1.368 . S
C1030 C1026 1.368 . S
C1030 C1029 1.523 . S
H1031 C1006 0.950 . S
H1032 C1008 0.950 . S
H1033 C1009 0.949 . S
H1034 C1011 0.950 . S
H1035 C1013 0.950 . S
C1036 C1037 1.349 . S
C1036 C1038 1.327 . S
C1036 H1061 0.950 . S
C1037 C1036 1.349 . S
C1037 C1053 1.349 . S
C1038 C1036 1.327 . S
C1038 C1057 1.429 . S
C1038 H1062 0.950 . S
C1039 C1056 1.574 . S
C1039 C1058 1.368 . S
C1039 H1063 0.949 . S
H1040 C1044 0.949 . S
C1041 C1042 1.349 . S
C1041 C1043 1.327 . S
C1041 H1064 0.950 . S
C1042 C1041 1.349 . S
C1042 C1054 1.349 . S
C1043 C1041 1.327 . S
C1043 C1059 1.429 . S
C1043 H1065 0.950 . S
C1044 H1040 0.949 . S
C1044 C1052 1.574 . S
C1044 C1060 1.368 . S
H1045 C1053 0.950 . S
H1046 C1051 0.950 . S
H1047 C1052 0.949 . S
H1048 C1054 0.950 . S
H1049 C1055 0.950 . S
H1050 C1056 0.949 . S
C1051 H1046 0.950 . S
C1051 C1053 1.327 . S
C1051 C1057 1.429 . S
C1052 C1044 1.574 . S
C1052 H1047 0.949 . S
C1052 C1058 1.368 . S
C1053 C1037 1.349 . S
C1053 H1045 0.950 . S
C1053 C1051 1.327 . S
C1054 C1042 1.349 . S
C1054 H1048 0.950 . S
C1054 C1055 1.327 . S
C1055 H1049 0.950 . S
C1055 C1054 1.327 . S
C1055 C1059 1.429 . S
C1056 C1039 1.574 . S
C1056 H1050 0.949 . S
C1056 C1060 1.368 . S
C1057 C1038 1.429 . S
C1057 C1051 1.429 . S
C1057 C1058 1.523 . S
C1058 C1039 1.368 . S
C1058 C1052 1.368 . S
C1058 C1057 1.523 . S
C1059 C1043 1.429 . S
C1059 C1055 1.429 . S
C1059 C1060 1.523 . S
C1060 C1044 1.368 . S
C1060 C1056 1.368 . S
C1060 C1059 1.523 . S
H1061 C1036 0.950 . S
H1062 C1038 0.950 . S
H1063 C1039 0.949 . S
H1064 C1041 0.950 . S
H1065 C1043 0.950 . S
C1066 C1067 1.349 . S
C1066 C1068 1.327 . S
C1066 H1091 0.950 . S
C1067 C1066 1.349 . S
C1067 C1083 1.349 . S
C1068 C1066 1.327 . S
C1068 C1087 1.422 1_554 S
C1068 H1092 0.950 . S
C1069 C1086 1.574 . S
C1069 C1088 1.368 . S
C1069 H1093 0.949 . S
H1070 C1074 0.949 . S
C1071 C1072 1.349 . S
C1071 C1073 1.327 . S
C1071 H1094 0.950 . S
C1072 C1071 1.349 . S
C1072 C1084 1.349 . S
C1073 C1071 1.327 . S
C1073 C1089 1.429 . S
C1073 H1095 0.950 . S
C1074 H1070 0.949 . S
C1074 C1082 1.574 . S
C1074 C1090 1.368 . S
H1075 C1083 0.950 . S
H1076 C1081 0.949 1_556 S
H1077 C1082 0.949 . S
H1078 C1084 0.950 . S
H1079 C1085 0.950 . S
H1080 C1086 0.949 . S
C1081 H1076 0.949 1_554 S
C1081 C1083 1.328 . S
C1081 C1087 1.427 1_554 S
C1082 C1074 1.574 . S
C1082 H1077 0.949 . S
C1082 C1088 1.368 . S
C1083 C1067 1.349 . S
C1083 H1075 0.950 . S
C1083 C1081 1.328 . S
C1084 C1072 1.349 . S
C1084 H1078 0.950 . S
C1084 C1085 1.327 . S
C1085 H1079 0.950 . S
C1085 C1084 1.327 . S
C1085 C1089 1.429 . S
C1086 C1069 1.574 . S
C1086 H1080 0.949 . S
C1086 C1090 1.368 . S
C1087 C1068 1.422 1_556 S
C1087 C1081 1.427 1_556 S
C1087 C1088 1.531 . S
C1088 C1069 1.368 . S
C1088 C1082 1.368 . S
C1088 C1087 1.531 . S
C1089 C1073 1.429 . S
C1089 C1085 1.429 . S
C1089 C1090 1.523 . S
C1090 C1074 1.368 . S
C1090 C1086 1.368 . S
C1090 C1089 1.523 . S
H1091 C1066 0.950 . S
H1092 C1068 0.950 . S
H1093 C1069 0.949 . S
H1094 C1071 0.950 . S
H1095 C1073 0.950 . S
C377 C7 1.479 . S
C382 C119 1.404 . S
C407 C37 1.336 . S
C412 C155 1.239 . S
C437 C54 1.560 . S
C442 C191 1.458 . S
C472 C221 1.386 . S
C467 C87 1.393 . S
C502 C263 1.354 . S
C497 C30 1.429 . S
C527 C51 1.441 . S
C532 C293 1.432 . S
C557 C84 1.605 . S
C562 C329 1.510 . S
C587 C10 1.295 1_556 S
C592 C371 1.199 . S
C617 C59 1.485 . S
C622 C341 1.437 . S
C652 C233 1.207 . S
C647 C74 1.275 . S
C682 C299 1.544 . S
C677 C18 1.608 . S
C707 C32 1.420 . S
C712 C335 1.412 . S
C742 C125 1.426 . S
C737 C73 1.475 . S
C767 C15 1.424 . S
C772 C185 1.380 . S
C802 C227 1.592 . S
C797 C43 1.643 . S
C832 C89 1.211 . S
C827 C62 1.278 . S
C862 C305 1.440 . S
C857 C21 1.462 . S
C892 C365 1.231 . S
C887 C29 1.260 . S
C917 C52 1.200 . S
C922 C257 1.157 . S
C952 C269 1.415 . S
C947 C81 1.446 . S
C982 C161 1.362 . S
C977 C40 1.419 . S
C1007 C65 1.436 . S
C1012 C197 1.405 . S
C1042 C113 1.172 . S
C1037 C76 1.216 . S
C1072 C149 1.224 . S
C1067 C8 1.263 . S
