# Generated by pormake.
# Topology rtl, (3,6)-cn, num edge types: 1
# Building blocks:
#     Node 0, Type 0, BuildingBlock: BELTOD_clean_linker_0, # of connection points: 3
#     Node 1, Type 0, BuildingBlock: BELTOD_clean_linker_0, # of connection points: 3
#     Node 2, Type 0, BuildingBlock: BELTOD_clean_linker_0, # of connection points: 3
#     Node 3, Type 0, BuildingBlock: BELTOD_clean_linker_0, # of connection points: 3
#     Node 4, Type 1, BuildingBlock: LEVNOQ01_clean_sbu_1, # of connection points: 6
#     Node 5, Type 1, BuildingBlock: LEVNOQ01_clean_sbu_1, # of connection points: 6
#     Edge 6, Type (0, 1), BuildingBlock: TEMPAE_clean_linker_10, # of connection points: 2
#     Edge 7, Type (0, 1), BuildingBlock: TEMPAE_clean_linker_10, # of connection points: 2
#     Edge 8, Type (0, 1), BuildingBlock: TEMPAE_clean_linker_10, # of connection points: 2
#     Edge 9, Type (0, 1), BuildingBlock: TEMPAE_clean_linker_10, # of connection points: 2
#     Edge 10, Type (0, 1), BuildingBlock: TEMPAE_clean_linker_10, # of connection points: 2
#     Edge 11, Type (0, 1), BuildingBlock: TEMPAE_clean_linker_10, # of connection points: 2
#     Edge 12, Type (0, 1), BuildingBlock: TEMPAE_clean_linker_10, # of connection points: 2
#     Edge 13, Type (0, 1), BuildingBlock: TEMPAE_clean_linker_10, # of connection points: 2
#     Edge 14, Type (0, 1), BuildingBlock: TEMPAE_clean_linker_10, # of connection points: 2
#     Edge 15, Type (0, 1), BuildingBlock: TEMPAE_clean_linker_10, # of connection points: 2
#     Edge 16, Type (0, 1), BuildingBlock: TEMPAE_clean_linker_10, # of connection points: 2
#     Edge 17, Type (0, 1), BuildingBlock: TEMPAE_clean_linker_10, # of connection points: 2
# Relax obj value: 0.023
# Max RMSD: 0.060
# Mean RMSD: 0.042
data_MOF--net-rtl--node1-LEVNOQ01_clean_sbu_1--node2-BELTOD_clean_linker_0--edge1-TEMPAE_clean_linker_10
_symmetry_space_group_name_H-M    P1
_symmetry_Int_Tables_number       1
_symmetry_cell_setting            triclinic
loop_
_symmetry_equiv_pos_as_xyz
'x, y, z'
_cell_length_a     35.368748
_cell_length_b     39.651916
_cell_length_c     27.531609
_cell_angle_alpha  89.206272
_cell_angle_beta   98.087173
_cell_angle_gamma 90.234553
loop_
_atom_site_label
_atom_site_type_symbol
_atom_site_fract_x
_atom_site_fract_y
_atom_site_fract_z
_atom_type_partial_charge
P0 P 0.29119 0.91467 0.11675 0.0
H1 H 0.31418 0.96655 0.19042 0.0
H2 H 0.28637 0.98504 0.26242 0.0
H3 H 0.19509 0.91275 0.22959 0.0
H4 H 0.22214 0.89515 0.15711 0.0
H5 H 0.36826 0.88654 0.13844 0.0
H6 H 0.3919 0.82893 0.14936 0.0
H7 H 0.27575 0.79216 0.13814 0.0
H8 H 0.25239 0.84979 0.12449 0.0
H9 H 0.22757 0.95977 0.08219 0.0
H10 H 0.28197 0.87375 0.02777 0.0
O11 O 0.32758 0.93981 0.10769 0.0
H12 H 0.18578 0.96527 0.00408 0.0
H13 H 0.23947 0.87841 0.9499 0.0
C14 C 0.27029 0.92933 0.16854 0.0
C15 C 0.28807 0.95481 0.19856 0.0
C16 C 0.27228 0.96534 0.23968 0.0
C17 C 0.23894 0.94999 0.25177 0.0
C18 C 0.22122 0.92456 0.2215 0.0
C19 C 0.23663 0.91449 0.18008 0.0
C20 C 0.30855 0.87244 0.13005 0.0
C21 C 0.34787 0.86612 0.13862 0.0
C22 C 0.36138 0.83308 0.14556 0.0
C23 C 0.33575 0.80574 0.14457 0.0
C24 C 0.29631 0.81249 0.13848 0.0
C25 C 0.28287 0.84552 0.13102 0.0
C26 C 0.25726 0.91587 0.06133 0.0
C27 C 0.22989 0.94154 0.05385 0.0
C28 C 0.20588 0.94456 0.0091 0.0
C29 C 0.20897 0.9221 0.97066 0.0
C30 C 0.23637 0.89623 0.97852 0.0
C31 C 0.26046 0.89333 0.02329 0.0
P32 P 0.78879 0.60863 0.57578 0.0
H33 H 0.80096 0.60001 0.47416 0.0
H34 H 0.75745 0.59627 0.39708 0.0
H35 H 0.66145 0.61085 0.47575 0.0
H36 H 0.7053 0.61516 0.5526 0.0
H37 H 0.86253 0.63387 0.62216 0.0
H38 H 0.88829 0.6907 0.63682 0.0
H39 H 0.78056 0.73273 0.56991 0.0
H40 H 0.75528 0.67573 0.55462 0.0
H41 H 0.75291 0.54482 0.59673 0.0
H42 H 0.7746 0.64076 0.66747 0.0
O43 O 0.82507 0.58261 0.57126 0.0
H44 H 0.7215 0.52471 0.66566 0.0
H45 H 0.74302 0.62115 0.73559 0.0
C46 C 0.75629 0.60705 0.51918 0.0
C47 C 0.77054 0.60238 0.47479 0.0
C48 C 0.74561 0.60018 0.43076 0.0
C49 C 0.7059 0.60292 0.43025 0.0
C50 C 0.69185 0.6088 0.47476 0.0
C51 C 0.71686 0.61094 0.51882 0.0
C52 C 0.80745 0.65065 0.58593 0.0
C53 C 0.84457 0.65534 0.61036 0.0
C54 C 0.85907 0.68785 0.61934 0.0
C55 C 0.83653 0.71629 0.60436 0.0
C56 C 0.79885 0.71138 0.58122 0.0
C57 C 0.78439 0.67882 0.5723 0.0
C58 C 0.76597 0.59426 0.62681 0.0
C59 C 0.75096 0.5615 0.62709 0.0
C60 C 0.73303 0.55008 0.66643 0.0
C61 C 0.72999 0.57126 0.70627 0.0
C62 C 0.74552 0.60396 0.70597 0.0
C63 C 0.76331 0.61535 0.66663 0.0
P64 P 0.80763 0.19429 0.98574 0.0
H65 H 0.79412 0.19601 0.87957 0.0
H66 H 0.78817 0.15186 0.818 0.0
H67 H 0.79004 0.07607 0.93233 0.0
H68 H 0.79416 0.12045 0.99389 0.0
H69 H 0.80755 0.26032 0.02956 0.0
H70 H 0.76139 0.30609 0.0225 0.0
H71 H 0.68533 0.24783 0.91847 0.0
H72 H 0.73035 0.20121 0.92916 0.0
H73 H 0.86331 0.14562 0.03031 0.0
H74 H 0.77557 0.20719 0.07778 0.0
O75 O 0.84798 0.21177 0.97243 0.0
H76 H 0.88031 0.12399 0.11348 0.0
H77 H 0.79461 0.18812 0.16207 0.0
C78 C 0.79521 0.1616 0.94135 0.0
C79 C 0.79202 0.16997 0.89135 0.0
C80 C 0.7883 0.14473 0.85617 0.0
C81 C 0.7885 0.11059 0.87049 0.0
C82 C 0.78963 0.10224 0.92043 0.0
C83 C 0.79244 0.12763 0.95562 0.0
C84 C 0.77246 0.22737 0.98002 0.0
C85 C 0.78077 0.25739 0.0055 0.0
C86 C 0.75447 0.28379 1.00077 0.0
C87 C 0.71955 0.28105 0.96939 0.0
C88 C 0.71158 0.25087 0.94345 0.0
C89 C 0.73759 0.22415 0.9492 0.0
C90 C 0.8181 0.17788 0.04762 0.0
C91 C 0.84786 0.15467 0.05883 0.0
C92 C 0.85796 0.14272 0.10679 0.0
C93 C 0.83934 0.15458 0.14522 0.0
C94 C 0.80942 0.17799 0.1337 0.0
C95 C 0.79868 0.18926 0.0853 0.0
P96 P 0.30527 0.32855 0.47349 0.0
H97 H 0.32555 0.30118 0.57256 0.0
H98 H 0.33657 0.32776 0.65335 0.0
H99 H 0.30024 0.42341 0.58617 0.0
H100 H 0.2885 0.39674 0.50594 0.0
H101 H 0.29212 0.26933 0.4118 0.0
H102 H 0.24053 0.22753 0.40073 0.0
H103 H 0.17774 0.2855 0.49431 0.0
H104 H 0.22963 0.32689 0.50569 0.0
H105 H 0.35972 0.38161 0.46221 0.0
H106 H 0.25349 0.34632 0.38261 0.0
O107 O 0.34478 0.30558 0.47427 0.0
H108 H 0.36552 0.42311 0.39736 0.0
H109 H 0.2597 0.38721 0.31666 0.0
C110 C 0.30725 0.34716 0.53315 0.0
C111 C 0.31943 0.32776 0.57539 0.0
C112 C 0.32557 0.3429 0.62147 0.0
C113 C 0.31979 0.3777 0.62575 0.0
C114 C 0.30548 0.39662 0.58368 0.0
C115 C 0.29887 0.38139 0.5378 0.0
C116 C 0.26506 0.30059 0.46067 0.0
C117 C 0.26708 0.27311 0.42962 0.0
C118 C 0.23747 0.24941 0.42297 0.0
C119 C 0.20536 0.25297 0.44723 0.0
C120 C 0.2025 0.28174 0.47592 0.0
C121 C 0.23209 0.30542 0.48246 0.0
C122 C 0.30641 0.36076 0.42704 0.0
C123 C 0.33752 0.38297 0.43084 0.0
C124 C 0.34082 0.40661 0.39372 0.0
C125 C 0.31325 0.40822 0.35165 0.0
C126 C 0.28124 0.38677 0.34879 0.0
C127 C 0.27785 0.36316 0.38628 0.0
O128 O 0.96073 0.07762 0.63785 0.0
Mg129 Mg 0.01792 0.07994 0.62615 0.0
O130 O 0.94657 0.02818 0.6026 0.0
Mg131 Mg 0.99562 0.01454 0.55638 0.0
O132 O 0.01877 0.06771 0.55562 0.0
O133 O 0.03745 0.11803 0.58319 0.0
O134 O 0.04552 0.00278 0.51112 0.0
O135 O 0.95469 0.03541 0.48644 0.0
Mg136 Mg 0.96815 0.96947 0.48671 0.0
O137 O 0.97244 0.95799 0.56053 0.0
O138 O 0.01617 0.97297 0.45057 0.0
O139 O 0.91978 0.99417 0.45231 0.0
O140 O 0.95728 0.92099 0.49921 0.0
C141 C 0.05723 0.01404 0.66361 0.0
C142 C 0.93785 0.05314 0.62786 0.0
C143 C 0.03262 0.09705 0.54751 0.0
C144 C 0.04573 0.98807 0.47032 0.0
C145 C 0.92722 0.02524 0.45485 0.0
C146 C 0.96181 0.92792 0.54527 0.0
O147 O 0.05544 0.04583 0.66837 0.0
O148 O 0.03729 0.99897 0.62777 0.0
O149 O 0.50422 0.51327 0.13748 0.0
Mg150 Mg 0.48399 0.48127 0.07726 0.0
O151 O 0.52441 0.55062 0.08725 0.0
Mg152 Mg 0.48494 0.53037 0.01923 0.0
O153 O 0.51752 0.47741 0.02386 0.0
O154 O 0.51512 0.43871 0.0838 0.0
O155 O 0.44499 0.50616 0.95314 0.0
O156 O 0.5332 0.54149 0.97104 0.0
Mg157 Mg 0.45624 0.57947 0.93723 0.0
O158 O 0.45924 0.58449 0.01166 0.0
O159 O 0.41457 0.54543 0.90557 0.0
O160 O 0.51027 0.57857 0.91375 0.0
O161 O 0.43762 0.62473 0.95687 0.0
C162 C 0.41254 0.49732 0.06874 0.0
C163 C 0.52343 0.53962 0.13083 0.0
C164 C 0.5285 0.44879 0.04487 0.0
C165 C 0.41987 0.51468 0.91716 0.0
C166 C 0.53728 0.56003 0.93383 0.0
C167 C 0.44484 0.61437 1.00188 0.0
O168 O 0.42579 0.46956 0.05759 0.0
O169 O 0.43355 0.52334 0.06675 0.0
C170 C 0.16475 0.21484 0.49056 0.0
C171 C 0.17664 0.22547 0.44644 0.0
C172 C 0.13832 0.18864 0.4918 0.0
C173 C 0.12299 0.17255 0.44762 0.0
C174 C 0.13503 0.18293 0.40279 0.0
C175 C 0.16207 0.20912 0.4028 0.0
C176 C 0.12661 0.17844 0.54072 0.0
C177 C 0.11979 0.16633 0.35499 0.0
C178 C 0.08022 0.09339 0.49057 0.0
C179 C 0.04581 0.10676 0.50118 0.0
C180 C 0.10424 0.11291 0.46474 0.0
C181 C 0.09315 0.14619 0.44978 0.0
C182 C 0.05526 0.15672 0.45212 0.0
C183 C 0.03208 0.13695 0.47853 0.0
C184 C 0.14365 0.09998 0.46057 0.0
C185 C 0.04142 0.19122 0.43415 0.0
H186 H 0.17663 0.22679 0.52452 0.0
H187 H 0.17139 0.21714 0.3686 0.0
H188 H 0.09556 0.18268 0.54007 0.0
H189 H 0.13217 0.15119 0.548 0.0
H190 H 0.14215 0.19286 0.57167 0.0
H191 H 0.12425 0.18242 0.32291 0.0
H192 H 0.13504 0.14219 0.35232 0.0
H193 H 0.0889 0.1605 0.35288 0.0
H194 H 0.09068 0.06986 0.50794 0.0
H195 H 0.00516 0.14702 0.48641 0.0
H196 H 0.16422 0.11016 0.49106 0.0
H197 H 0.15293 0.10843 0.42553 0.0
H198 H 0.14476 0.07201 0.46287 0.0
H199 H 0.05187 0.21014 0.46229 0.0
H200 H 0.00971 0.19235 0.42769 0.0
H201 H 0.05258 0.1983 0.39972 0.0
C202 C 0.38498 0.76098 0.17132 0.0
C203 C 0.35009 0.77052 0.14372 0.0
C204 C 0.4027 0.73047 0.16234 0.0
C205 C 0.3852 0.70925 0.12477 0.0
C206 C 0.34802 0.71687 0.10101 0.0
C207 C 0.33103 0.74748 0.11054 0.0
C208 C 0.44165 0.72252 0.18984 0.0
C209 C 0.32789 0.69453 0.06145 0.0
C210 C 0.44117 0.67224 0.03225 0.0
C211 C 0.43735 0.6376 0.04067 0.0
C212 C 0.4271 0.69584 0.06228 0.0
C213 C 0.40841 0.68449 0.10174 0.0
C214 C 0.40756 0.64952 0.1132 0.0
C215 C 0.42219 0.6263 0.08235 0.0
C216 C 0.42943 0.73286 0.04902 0.0
C217 C 0.38882 0.63625 0.15553 0.0
H218 H 0.39939 0.77813 0.1982 0.0
H219 H 0.30411 0.7544 0.08893 0.0
H220 H 0.44451 0.69511 0.19825 0.0
H221 H 0.4638 0.72955 0.1667 0.0
H222 H 0.44736 0.73672 0.22462 0.0
H223 H 0.29726 0.70123 0.05179 0.0
H224 H 0.34187 0.69716 0.02793 0.0
H225 H 0.32994 0.66769 0.07335 0.0
H226 H 0.45365 0.68096 1.00051 0.0
H227 H 0.41944 0.59944 0.08903 0.0
H228 H 0.44097 0.74761 0.08173 0.0
H229 H 0.40039 0.74255 0.03557 0.0
H230 H 0.44778 0.73751 0.02 0.0
H231 H 0.38999 0.65481 0.18549 0.0
H232 H 0.40259 0.61245 0.17054 0.0
H233 H 0.35838 0.63058 0.14235 0.0
C234 C 0.84677 0.77395 0.57071 0.0
C235 C 0.8532 0.75078 0.60987 0.0
C236 C 0.86561 0.80516 0.57257 0.0
C237 C 0.8916 0.81355 0.61471 0.0
C238 C 0.89657 0.79115 0.65556 0.0
C239 C 0.87746 0.7599 0.65256 0.0
C240 C 0.85942 0.82824 0.52804 0.0
C241 C 0.92349 0.79935 0.7014 0.0
C242 C 0.96789 0.8689 0.57376 0.0
C243 C 0.95282 0.90099 0.57901 0.0
C244 C 0.9505 0.84007 0.59052 0.0
C245 C 0.91684 0.84352 0.61243 0.0
C246 C 0.90411 0.87616 0.62287 0.0
C247 C 0.9224 0.90473 0.60596 0.0
C248 C 0.96557 0.80587 0.57936 0.0
C249 C 0.86884 0.88096 0.64705 0.0
H250 H 0.82841 0.76702 0.53743 0.0
H251 H 0.88209 0.74232 0.68331 0.0
H252 H 0.85247 0.85409 0.53882 0.0
H253 H 0.88606 0.82985 0.51109 0.0
H254 H 0.83605 0.81928 0.49992 0.0
H255 H 0.91834 0.78301 0.73292 0.0
H256 H 0.95336 0.79551 0.69466 0.0
H257 H 0.92067 0.82613 0.71147 0.0
H258 H 0.99147 0.86617 0.55281 0.0
H259 H 0.91057 0.92961 0.6096 0.0
H260 H 0.94639 0.79463 0.54835 0.0
H261 H 0.96612 0.78854 0.6114 0.0
H262 H 0.9948 0.80748 0.56908 0.0
H263 H 0.84313 0.8776 0.61941 0.0
H264 H 0.86784 0.90661 0.66256 0.0
H265 H 0.86747 0.86195 0.67671 0.0
C266 C 0.65175 0.30171 0.96121 0.0
C267 C 0.691 0.30892 0.96594 0.0
C268 C 0.62495 0.32726 0.96439 0.0
C269 C 0.63769 0.36069 0.97406 0.0
C270 C 0.67685 0.36862 0.9755 0.0
C271 C 0.70296 0.34272 0.97074 0.0
C272 C 0.58324 0.31796 0.96118 0.0
C273 C 0.69164 0.40393 0.98598 0.0
C274 C 0.56326 0.42968 0.97664 0.0
C275 C 0.55761 0.42802 0.02601 0.0
C276 C 0.58978 0.40835 0.95886 0.0
C277 C 0.61139 0.38544 0.99159 0.0
C278 C 0.6068 0.38484 0.04184 0.0
C279 C 0.57973 0.40583 0.05824 0.0
C280 C 0.59346 0.40941 0.90493 0.0
C281 C 0.63003 0.36154 0.07834 0.0
H282 H 0.64189 0.27585 0.95767 0.0
H283 H 0.73299 0.34889 0.97267 0.0
H284 H 0.57476 0.31781 0.99849 0.0
H285 H 0.5652 0.33683 0.93865 0.0
H286 H 0.5772 0.29263 0.94512 0.0
H287 H 0.72162 0.407 0.97886 0.0
H288 H 0.67356 0.42273 0.96345 0.0
H289 H 0.69045 0.40968 0.02508 0.0
H290 H 0.54619 0.44687 0.95166 0.0
H291 H 0.57594 0.4049 0.09664 0.0
H292 H 0.57943 0.38678 0.88714 0.0
H293 H 0.62386 0.40885 0.8992 0.0
H294 H 0.57983 0.43223 0.88631 0.0
H295 H 0.62266 0.33492 0.06932 0.0
H296 H 0.62498 0.36604 0.11665 0.0
H297 H 0.66094 0.36488 0.07638 0.0
C298 C 0.21212 0.99444 0.30079 0.0
C299 C 0.22173 0.9606 0.2951 0.0
C300 C 0.18937 0.00363 0.3364 0.0
C301 C 0.1763 0.97835 0.36693 0.0
C302 C 0.18919 0.94474 0.36437 0.0
C303 C 0.2115 0.93623 0.32818 0.0
C304 C 0.17641 0.03977 0.3381 0.0
C305 C 0.17647 0.91709 0.39672 0.0
C306 C 0.11625 0.99631 0.46831 0.0
C307 C 0.07959 0.98885 0.44428 0.0
C308 C 0.1483 0.99438 0.4433 0.0
C309 C 0.14324 0.98505 0.39328 0.0
C310 C 0.10603 0.97923 0.36846 0.0
C311 C 0.07484 0.9811 0.39424 0.0
C312 C 0.18752 0.00099 0.47082 0.0
C313 C 0.09914 0.96973 0.31491 0.0
H314 H 0.22017 0.01333 0.27527 0.0
H315 H 0.21956 0.91015 0.32429 0.0
H316 H 0.14677 0.04202 0.31884 0.0
H317 H 0.17627 0.04785 0.37649 0.0
H318 H 0.19489 0.05723 0.31996 0.0
H319 H 0.19381 0.89385 0.39595 0.0
H320 H 0.17838 0.92559 0.43521 0.0
H321 H 0.14616 0.91069 0.3839 0.0
H322 H 0.12003 0.00263 0.50688 0.0
H323 H 0.04652 0.97598 0.37507 0.0
H324 H 0.20432 0.01741 0.44883 0.0
H325 H 0.20311 0.97678 0.47755 0.0
H326 H 0.18617 0.01305 0.50672 0.0
H327 H 0.11275 0.98842 0.29248 0.0
H328 H 0.06825 0.96825 0.30036 0.0
H329 H 0.11222 0.94482 0.31011 0.0
C330 C 0.72183 0.5688 0.79535 0.0
C331 C 0.70853 0.56045 0.74653 0.0
C332 C 0.69885 0.56382 0.83246 0.0
C333 C 0.66166 0.55035 0.82035 0.0
C334 C 0.64939 0.53926 0.772 0.0
C335 C 0.67297 0.54448 0.73564 0.0
C336 C 0.71326 0.57534 0.88377 0.0
C337 C 0.61004 0.52454 0.75762 0.0
C338 C 0.59582 0.52996 0.91517 0.0
C339 C 0.57268 0.5588 0.91107 0.0
C340 C 0.6261 0.5271 0.88732 0.0
C341 C 0.63324 0.55378 0.85498 0.0
C342 C 0.61116 0.5836 0.8529 0.0
C343 C 0.58121 0.58569 0.88086 0.0
C344 C 0.649 0.49492 0.89071 0.0
C345 C 0.61797 0.61284 0.81933 0.0
H346 H 0.74969 0.58044 0.80421 0.0
H347 H 0.66244 0.538 0.69803 0.0
H348 H 0.69898 0.59931 0.89078 0.0
H349 H 0.70626 0.5565 0.91134 0.0
H350 H 0.74461 0.57969 0.8892 0.0
H351 H 0.60688 0.51286 0.72082 0.0
H352 H 0.60371 0.50524 0.7849 0.0
H353 H 0.58841 0.54481 0.75694 0.0
H354 H 0.5892 0.50901 0.9383 0.0
H355 H 0.56366 0.60818 0.87799 0.0
H356 H 0.67985 0.50035 0.89122 0.0
H357 H 0.63954 0.47939 0.85801 0.0
H358 H 0.64514 0.4798 0.92394 0.0
H359 H 0.64824 0.62104 0.82641 0.0
H360 H 0.59954 0.63484 0.824 0.0
H361 H 0.61215 0.6048 0.78054 0.0
C362 C 0.88917 0.13336 0.21298 0.0
C363 C 0.85097 0.14211 0.19667 0.0
C364 C 0.89995 0.11795 0.25898 0.0
C365 C 0.87219 0.11226 0.29053 0.0
C366 C 0.83426 0.1234 0.27612 0.0
C367 C 0.82393 0.13763 0.2291 0.0
C368 C 0.94064 0.10605 0.27257 0.0
C369 C 0.80418 0.11894 0.30953 0.0
C370 C 0.88906 0.03491 0.37274 0.0
C371 C 0.9085 0.04839 0.41612 0.0
C372 C 0.87624 0.05561 0.3322 0.0
C373 C 0.88191 0.09091 0.33544 0.0
C374 C 0.89935 0.10498 0.38015 0.0
C375 C 0.91304 0.08347 0.41979 0.0
C376 C 0.85863 0.0394 0.28495 0.0
C377 C 0.9049 0.14256 0.38564 0.0
H378 H 0.91073 0.1378 0.18931 0.0
H379 H 0.79431 0.14407 0.21731 0.0
H380 H 0.95313 0.11643 0.30847 0.0
H381 H 0.94108 0.07814 0.27637 0.0
H382 H 0.95909 0.11353 0.24473 0.0
H383 H 0.77806 0.13381 0.29658 0.0
H384 H 0.79605 0.09195 0.31119 0.0
H385 H 0.81551 0.12669 0.3474 0.0
H386 H 0.88556 0.00783 0.36939 0.0
H387 H 0.92795 0.09409 0.45324 0.0
H388 H 0.87665 0.04469 0.2558 0.0
H389 H 0.83002 0.05022 0.27241 0.0
H390 H 0.85562 0.01163 0.28883 0.0
H391 H 0.92927 0.15079 0.36704 0.0
H392 H 0.9111 0.14981 0.4248 0.0
H393 H 0.87919 0.15639 0.36823 0.0
C394 C 0.31963 0.383 0.71658 0.0
C395 C 0.33164 0.39481 0.67299 0.0
C396 C 0.33122 0.39931 0.76132 0.0
C397 C 0.35598 0.42755 0.7624 0.0
C398 C 0.36861 0.43913 0.71849 0.0
C399 C 0.35602 0.4228 0.67433 0.0
C400 C 0.3166 0.38668 0.80719 0.0
C401 C 0.39549 0.46882 0.71807 0.0
C402 C 0.36453 0.49648 0.85691 0.0
C403 C 0.3998 0.48888 0.88483 0.0
C404 C 0.34829 0.47512 0.81941 0.0
C405 C 0.36828 0.44587 0.80882 0.0
C406 C 0.40273 0.43695 0.83897 0.0
C407 C 0.4179 0.45844 0.87706 0.0
C408 C 0.31104 0.48513 0.78897 0.0
C409 C 0.42518 0.40623 0.82857 0.0
H410 H 0.3007 0.36137 0.71548 0.0
H411 H 0.36579 0.43161 0.64075 0.0
H412 H 0.34088 0.38011 0.83576 0.0
H413 H 0.30021 0.40691 0.82223 0.0
H414 H 0.2979 0.36417 0.80029 0.0
H415 H 0.40384 0.47373 0.6812 0.0
H416 H 0.38176 0.49185 0.72984 0.0
H417 H 0.42174 0.46427 0.74449 0.0
H418 H 0.35026 0.51985 0.8632 0.0
H419 H 0.44526 0.45254 0.89846 0.0
H420 H 0.2916 0.46308 0.78307 0.0
H421 H 0.31659 0.49433 0.75239 0.0
H422 H 0.29632 0.50543 0.80643 0.0
H423 H 0.40623 0.38389 0.82249 0.0
H424 H 0.44852 0.40039 0.8589 0.0
H425 H 0.43799 0.41068 0.79448 0.0
C426 C 0.64703 0.61894 0.3721 0.0
C427 C 0.67924 0.59826 0.38384 0.0
C428 C 0.6208 0.61354 0.32953 0.0
C429 C 0.62678 0.58667 0.29811 0.0
C430 C 0.65968 0.56622 0.30921 0.0
C431 C 0.68545 0.57227 0.35183 0.0
C432 C 0.58622 0.63603 0.31881 0.0
C433 C 0.66703 0.53716 0.27693 0.0
C434 C 0.54334 0.54364 0.22133 0.0
C435 C 0.54687 0.55526 0.17375 0.0
C436 C 0.56821 0.55473 0.26223 0.0
C437 C 0.59742 0.57815 0.25564 0.0
C438 C 0.60003 0.59128 0.20807 0.0
C439 C 0.57471 0.57968 0.16764 0.0
C440 C 0.56425 0.54015 0.31226 0.0
C441 C 0.63061 0.61647 0.19961 0.0
H442 H 0.64228 0.63936 0.3963 0.0
H443 H 0.70996 0.55588 0.3609 0.0
H444 H 0.58392 0.64639 0.28087 0.0
H445 H 0.55997 0.62108 0.3213 0.0
H446 H 0.58718 0.65733 0.34475 0.0
H447 H 0.69499 0.52487 0.28911 0.0
H448 H 0.64415 0.51795 0.27727 0.0
H449 H 0.66637 0.54602 0.23843 0.0
H450 H 0.52173 0.52501 0.22662 0.0
H451 H 0.57763 0.58887 0.13109 0.0
H452 H 0.5627 0.56067 0.33888 0.0
H453 H 0.58978 0.52475 0.32588 0.0
H454 H 0.53847 0.52398 0.31167 0.0
H455 H 0.63103 0.63765 0.2256 0.0
H456 H 0.62643 0.62684 0.16154 0.0
H457 H 0.659 0.60415 0.20656 0.0
C458 C 0.82889 0.06592 0.84263 0.0
C459 C 0.79514 0.08476 0.83436 0.0
C460 C 0.84359 0.05087 0.80351 0.0
C461 C 0.82357 0.05437 0.75537 0.0
C462 C 0.78633 0.06816 0.74859 0.0
C463 C 0.77284 0.08405 0.78806 0.0
C464 C 0.88304 0.03568 0.81277 0.0
C465 C 0.76277 0.06974 0.69854 0.0
C466 C 0.89074 0.08377 0.66901 0.0
C467 C 0.90225 0.05333 0.65043 0.0
C468 C 0.86339 0.08448 0.70088 0.0
C469 C 0.84588 0.05398 0.71341 0.0
C470 C 0.85419 0.02359 0.69049 0.0
C471 C 0.88274 0.02352 0.65953 0.0
C472 C 0.85573 0.1177 0.72414 0.0
C473 C 0.8349 0.99075 0.70051 0.0
H474 H 0.84602 0.06623 0.87853 0.0
H475 H 0.74627 0.09803 0.78188 0.0
H476 H 0.88366 0.01141 0.79341 0.0
H477 H 0.90365 0.05303 0.79831 0.0
H478 H 0.89274 0.0312 0.85248 0.0
H479 H 0.73184 0.07169 0.70139 0.0
H480 H 0.77108 0.0923 0.67821 0.0
H481 H 0.76767 0.04712 0.67694 0.0
H482 H 0.90493 0.10708 0.66103 0.0
H483 H 0.8911 0.9999 0.64477 0.0
H484 H 0.86327 0.11574 0.7646 0.0
H485 H 0.825 0.12409 0.71612 0.0
H486 H 0.8723 0.1389 0.71076 0.0
H487 H 0.85365 0.97614 0.7289 0.0
H488 H 0.8304 0.9752 0.66691 0.0
H489 H 0.80697 0.99469 0.71356 0.0
C490 C 0.35634 0.42999 0.29421 0.0
C491 C 0.32006 0.42971 0.30909 0.0
C492 C 0.36336 0.44781 0.25222 0.0
C493 C 0.33331 0.46603 0.22412 0.0
C494 C 0.29691 0.46704 0.2399 0.0
C495 C 0.29058 0.44853 0.28203 0.0
C496 C 0.40269 0.44588 0.23684 0.0
C497 C 0.26432 0.48661 0.21162 0.0
C498 C 0.37923 0.52 0.13555 0.0
C499 C 0.38058 0.49665 0.09802 0.0
C500 C 0.35899 0.51247 0.17481 0.0
C501 C 0.34011 0.48097 0.17623 0.0
C502 C 0.33656 0.46 0.13465 0.0
C503 C 0.35682 0.46817 0.0959 0.0
C504 C 0.36195 0.53626 0.21743 0.0
C505 C 0.31588 0.42659 0.13394 0.0
H506 H 0.37909 0.41509 0.31445 0.0
H507 H 0.26254 0.44863 0.29362 0.0
H508 H 0.40091 0.43343 0.20073 0.0
H509 H 0.41435 0.4716 0.23271 0.0
H510 H 0.42314 0.43154 0.26369 0.0
H511 H 0.2423 0.49283 0.23514 0.0
H512 H 0.27448 0.51034 0.19591 0.0
H513 H 0.25053 0.47114 0.18079 0.0
H514 H 0.397 0.54241 0.13702 0.0
H515 H 0.35704 0.45048 0.06624 0.0
H516 H 0.38587 0.52822 0.24567 0.0
H517 H 0.3354 0.53595 0.23464 0.0
H518 H 0.36772 0.56249 0.20579 0.0
H519 H 0.33366 0.4082 0.15778 0.0
H520 H 0.31017 0.41618 0.09635 0.0
H521 H 0.28839 0.42916 0.14852 0.0
C522 C 0.14697 0.93729 0.91876 0.0
C523 C 0.18517 0.92705 0.92187 0.0
C524 C 0.12566 0.94627 0.87352 0.0
C525 C 0.14284 0.94479 0.83012 0.0
C526 C 0.18051 0.9323 0.83253 0.0
C527 C 0.20128 0.92373 0.87836 0.0
C528 C 0.08555 0.95938 0.87265 0.0
C529 C 0.19979 0.93003 0.78714 0.0
C530 C 0.07742 0.95988 0.70913 0.0
C531 C 0.0819 0.99476 0.70243 0.0
C532 C 0.09801 0.94279 0.74966 0.0
C533 C 0.12354 0.96106 0.78409 0.0
C534 C 0.12932 0.99591 0.77617 0.0
C535 C 0.10857 0.01222 0.73558 0.0
C536 C 0.09141 0.90553 0.7566 0.0
C537 C 0.15641 0.0164 0.81167 0.0
H538 H 0.13396 0.93919 0.95199 0.0
H539 H 0.23082 0.91604 0.88022 0.0
H540 H 0.08495 0.9868 0.86391 0.0
H541 H 0.06572 0.9468 0.84362 0.0
H542 H 0.07487 0.95547 0.90838 0.0
H543 H 0.22636 0.91481 0.79375 0.0
H544 H 0.18026 0.91876 0.75653 0.0
H545 H 0.20726 0.95576 0.77522 0.0
H546 H 0.05692 0.94617 0.68373 0.0
H547 H 0.11269 0.03908 0.73049 0.0
H548 H 0.07623 0.90139 0.78881 0.0
H549 H 0.11906 0.89201 0.76417 0.0
H550 H 0.07412 0.89428 0.72398 0.0
H551 H 0.14635 0.01644 0.84808 0.0
H552 H 0.15885 0.04296 0.79909 0.0
H553 H 0.18528 0.00494 0.81673 0.0
loop_
_geom_bond_atom_site_label_1
_geom_bond_atom_site_label_2
_geom_bond_distance
_geom_bond_site_symmetry_2
_ccdc_geom_bond_type
P0 O11 1.490 . S
P0 C14 1.812 . S
P0 C20 1.803 . S
P0 C26 1.819 . S
H1 C15 0.941 . S
H2 C16 0.939 . S
H3 C18 0.940 . S
H4 C19 0.940 . S
H5 C21 0.939 . S
H6 C22 0.942 . S
H7 C24 0.940 . S
H8 C25 0.939 . S
H9 C27 0.941 . S
H10 C31 0.939 . S
O11 P0 1.490 . S
H12 C28 0.939 . S
H13 C30 0.940 . S
C14 P0 1.812 . S
C14 C15 1.389 . S
C14 C19 1.391 . S
C15 H1 0.941 . S
C15 C14 1.389 . S
C15 C16 1.397 . S
C16 H2 0.939 . S
C16 C15 1.397 . S
C16 C17 1.378 . S
C17 C16 1.378 . S
C17 C18 1.378 . S
C18 H3 0.940 . S
C18 C17 1.378 . S
C18 C19 1.396 . S
C19 H4 0.940 . S
C19 C14 1.391 . S
C19 C18 1.396 . S
C20 P0 1.803 . S
C20 C21 1.378 . S
C20 C25 1.400 . S
C21 H5 0.939 . S
C21 C20 1.378 . S
C21 C22 1.361 . S
C22 H6 0.942 . S
C22 C21 1.361 . S
C22 C23 1.369 . S
C23 C22 1.369 . S
C23 C24 1.404 . S
C24 H7 0.940 . S
C24 C23 1.404 . S
C24 C25 1.389 . S
C25 H8 0.939 . S
C25 C20 1.400 . S
C25 C24 1.389 . S
C26 P0 1.819 . S
C26 C27 1.391 . S
C26 C31 1.391 . S
C27 H9 0.941 . S
C27 C26 1.391 . S
C27 C28 1.396 1_554 S
C28 H12 0.939 . S
C28 C27 1.396 1_556 S
C28 C29 1.397 . S
C29 C28 1.397 . S
C29 C30 1.385 . S
C30 H13 0.940 . S
C30 C29 1.385 . S
C30 C31 1.388 1_556 S
C31 H10 0.939 . S
C31 C26 1.391 . S
C31 C30 1.388 1_554 S
P32 O43 1.490 . S
P32 C46 1.812 . S
P32 C52 1.803 . S
P32 C58 1.819 . S
H33 C47 0.941 . S
H34 C48 0.939 . S
H35 C50 0.940 . S
H36 C51 0.940 . S
H37 C53 0.939 . S
H38 C54 0.942 . S
H39 C56 0.940 . S
H40 C57 0.939 . S
H41 C59 0.941 . S
H42 C63 0.939 . S
O43 P32 1.490 . S
H44 C60 0.939 . S
H45 C62 0.940 . S
C46 P32 1.812 . S
C46 C47 1.389 . S
C46 C51 1.391 . S
C47 H33 0.941 . S
C47 C46 1.389 . S
C47 C48 1.397 . S
C48 H34 0.939 . S
C48 C47 1.397 . S
C48 C49 1.378 . S
C49 C48 1.378 . S
C49 C50 1.378 . S
C50 H35 0.940 . S
C50 C49 1.378 . S
C50 C51 1.396 . S
C51 H36 0.940 . S
C51 C46 1.391 . S
C51 C50 1.396 . S
C52 P32 1.803 . S
C52 C53 1.378 . S
C52 C57 1.400 . S
C53 H37 0.939 . S
C53 C52 1.378 . S
C53 C54 1.361 . S
C54 H38 0.942 . S
C54 C53 1.361 . S
C54 C55 1.369 . S
C55 C54 1.369 . S
C55 C56 1.404 . S
C56 H39 0.940 . S
C56 C55 1.404 . S
C56 C57 1.389 . S
C57 H40 0.939 . S
C57 C52 1.400 . S
C57 C56 1.389 . S
C58 P32 1.819 . S
C58 C59 1.391 . S
C58 C63 1.391 . S
C59 H41 0.941 . S
C59 C58 1.391 . S
C59 C60 1.396 . S
C60 H44 0.939 . S
C60 C59 1.396 . S
C60 C61 1.397 . S
C61 C60 1.397 . S
C61 C62 1.385 . S
C62 H45 0.940 . S
C62 C61 1.385 . S
C62 C63 1.388 . S
C63 H42 0.939 . S
C63 C58 1.391 . S
C63 C62 1.388 . S
P64 O75 1.490 . S
P64 C78 1.812 1_554 S
P64 C84 1.803 1_554 S
P64 C90 1.819 . S
H65 C79 0.941 . S
H66 C80 0.939 . S
H67 C82 0.940 . S
H68 C83 0.940 . S
H69 C85 0.939 . S
H70 C86 0.942 . S
H71 C88 0.940 . S
H72 C89 0.939 . S
H73 C91 0.941 . S
H74 C95 0.939 . S
O75 P64 1.490 . S
H76 C92 0.939 . S
H77 C94 0.940 . S
C78 P64 1.812 1_556 S
C78 C79 1.389 . S
C78 C83 1.391 . S
C79 H65 0.941 . S
C79 C78 1.389 . S
C79 C80 1.397 . S
C80 H66 0.939 . S
C80 C79 1.397 . S
C80 C81 1.378 . S
C81 C80 1.378 . S
C81 C82 1.378 . S
C82 H67 0.940 . S
C82 C81 1.378 . S
C82 C83 1.396 . S
C83 H68 0.940 . S
C83 C78 1.391 . S
C83 C82 1.396 . S
C84 P64 1.803 1_556 S
C84 C85 1.378 1_556 S
C84 C89 1.400 . S
C85 H69 0.939 . S
C85 C84 1.378 1_554 S
C85 C86 1.361 . S
C86 H70 0.942 . S
C86 C85 1.361 . S
C86 C87 1.369 1_554 S
C87 C86 1.369 1_556 S
C87 C88 1.404 . S
C88 H71 0.940 . S
C88 C87 1.404 . S
C88 C89 1.389 . S
C89 H72 0.939 . S
C89 C84 1.400 . S
C89 C88 1.389 . S
C90 P64 1.819 . S
C90 C91 1.391 . S
C90 C95 1.391 . S
C91 H73 0.941 . S
C91 C90 1.391 . S
C91 C92 1.396 . S
C92 H76 0.939 . S
C92 C91 1.396 . S
C92 C93 1.397 . S
C93 C92 1.397 . S
C93 C94 1.385 . S
C94 H77 0.940 . S
C94 C93 1.385 . S
C94 C95 1.388 . S
C95 H74 0.939 . S
C95 C90 1.391 . S
C95 C94 1.388 . S
P96 O107 1.490 . S
P96 C110 1.812 . S
P96 C116 1.803 . S
P96 C122 1.819 . S
H97 C111 0.941 . S
H98 C112 0.939 . S
H99 C114 0.940 . S
H100 C115 0.940 . S
H101 C117 0.939 . S
H102 C118 0.942 . S
H103 C120 0.940 . S
H104 C121 0.939 . S
H105 C123 0.941 . S
H106 C127 0.939 . S
O107 P96 1.490 . S
H108 C124 0.939 . S
H109 C126 0.940 . S
C110 P96 1.812 . S
C110 C111 1.389 . S
C110 C115 1.391 . S
C111 H97 0.941 . S
C111 C110 1.389 . S
C111 C112 1.397 . S
C112 H98 0.939 . S
C112 C111 1.397 . S
C112 C113 1.378 . S
C113 C112 1.378 . S
C113 C114 1.378 . S
C114 H99 0.940 . S
C114 C113 1.378 . S
C114 C115 1.396 . S
C115 H100 0.940 . S
C115 C110 1.391 . S
C115 C114 1.396 . S
C116 P96 1.803 . S
C116 C117 1.378 . S
C116 C121 1.400 . S
C117 H101 0.939 . S
C117 C116 1.378 . S
C117 C118 1.361 . S
C118 H102 0.942 . S
C118 C117 1.361 . S
C118 C119 1.369 . S
C119 C118 1.369 . S
C119 C120 1.404 . S
C120 H103 0.940 . S
C120 C119 1.404 . S
C120 C121 1.389 . S
C121 H104 0.939 . S
C121 C116 1.400 . S
C121 C120 1.389 . S
C122 P96 1.819 . S
C122 C123 1.391 . S
C122 C127 1.391 . S
C123 H105 0.941 . S
C123 C122 1.391 . S
C123 C124 1.396 . S
C124 H108 0.939 . S
C124 C123 1.396 . S
C124 C125 1.397 . S
C125 C124 1.397 . S
C125 C126 1.385 . S
C126 H109 0.940 . S
C126 C125 1.385 . S
C126 C127 1.388 . S
C127 H106 0.939 . S
C127 C122 1.391 . S
C127 C126 1.388 . S
O128 Mg129 1.990 1_655 S
O128 C142 1.253 . S
Mg129 O128 1.990 1_455 S
Mg129 O132 2.180 . S
Mg129 O133 2.117 . S
Mg129 O147 2.030 . S
O130 Mg131 2.072 1_655 S
O130 C142 1.260 . S
Mg131 O130 2.072 1_455 S
Mg131 O132 2.099 . S
Mg131 O134 2.079 1_545 S
Mg131 O135 2.072 1_455 S
Mg131 O137 2.099 1_445 S
Mg131 O148 2.079 1_545 S
O132 Mg129 2.180 . S
O132 Mg131 2.099 . S
O132 C143 1.279 . S
O133 Mg129 2.117 . S
O133 C143 1.250 . S
O134 Mg131 2.079 1_565 S
O134 C144 1.264 . S
O135 Mg131 2.072 1_655 S
O135 C145 1.260 . S
Mg136 O137 2.180 . S
Mg136 O138 2.030 1_655 S
Mg136 O139 1.990 1_565 S
Mg136 O140 2.117 . S
O137 Mg131 2.099 1_665 S
O137 Mg136 2.180 . S
O137 C146 1.279 . S
O138 Mg136 2.030 1_455 S
O138 C144 1.248 . S
O139 Mg136 1.990 1_545 S
O139 C145 1.253 . S
O140 Mg136 2.117 . S
O140 C146 1.250 . S
C141 O147 1.248 1_565 S
C141 O148 1.264 . S
C142 O128 1.253 . S
C142 O130 1.260 . S
C143 O132 1.279 . S
C143 O133 1.250 . S
C144 O134 1.264 . S
C144 O138 1.248 . S
C145 O135 1.260 . S
C145 O139 1.253 . S
C146 O137 1.279 . S
C146 O140 1.250 . S
O147 Mg129 2.030 . S
O147 C141 1.248 1_545 S
O148 Mg131 2.079 1_565 S
O148 C141 1.264 . S
O149 Mg150 1.990 . S
O149 C163 1.253 . S
Mg150 O149 1.990 . S
Mg150 O153 2.180 . S
Mg150 O154 2.117 . S
Mg150 O168 2.030 . S
O151 Mg152 2.072 . S
O151 C163 1.260 . S
Mg152 O151 2.072 . S
Mg152 O153 2.099 . S
Mg152 O155 2.079 1_554 S
Mg152 O156 2.072 1_554 S
Mg152 O158 2.099 . S
Mg152 O169 2.079 . S
O153 Mg150 2.180 . S
O153 Mg152 2.099 . S
O153 C164 1.279 . S
O154 Mg150 2.117 . S
O154 C164 1.250 . S
O155 Mg152 2.079 1_556 S
O155 C165 1.264 . S
O156 Mg152 2.072 1_556 S
O156 C166 1.260 . S
Mg157 O158 2.180 1_556 S
Mg157 O159 2.030 . S
Mg157 O160 1.990 . S
Mg157 O161 2.117 . S
O158 Mg152 2.099 . S
O158 Mg157 2.180 1_554 S
O158 C167 1.279 . S
O159 Mg157 2.030 . S
O159 C165 1.248 . S
O160 Mg157 1.990 . S
O160 C166 1.253 . S
O161 Mg157 2.117 . S
O161 C167 1.250 1_556 S
C162 O168 1.248 . S
C162 O169 1.264 . S
C163 O149 1.253 . S
C163 O151 1.260 . S
C164 O153 1.279 . S
C164 O154 1.250 . S
C165 O155 1.264 . S
C165 O159 1.248 . S
C166 O156 1.260 . S
C166 O160 1.253 . S
C167 O158 1.279 . S
C167 O161 1.250 1_554 S
O168 Mg150 2.030 . S
O168 C162 1.248 . S
O169 Mg152 2.079 . S
O169 C162 1.264 . S
C170 C171 1.391 . S
C170 C172 1.394 . S
C170 H186 0.931 . S
C171 C170 1.391 . S
C171 C175 1.376 . S
C172 C170 1.394 . S
C172 C173 1.369 . S
C172 C176 1.531 . S
C173 C172 1.369 . S
C173 C174 1.410 . S
C173 C181 1.503 . S
C174 C173 1.410 . S
C174 C175 1.392 . S
C174 C177 1.511 . S
C175 C171 1.376 . S
C175 C174 1.392 . S
C175 H187 0.929 . S
C176 C172 1.531 . S
C176 H188 0.960 . S
C176 H189 0.962 . S
C176 H190 0.960 . S
C177 C174 1.511 . S
C177 H191 0.961 . S
C177 H192 0.961 . S
C177 H193 0.961 . S
C178 C179 1.370 . S
C178 C180 1.363 . S
C178 H194 0.931 . S
C179 C178 1.370 . S
C179 C183 1.408 . S
C180 C178 1.363 . S
C180 C181 1.370 . S
C180 C184 1.524 . S
C181 C173 1.503 . S
C181 C180 1.370 . S
C181 C182 1.403 . S
C182 C181 1.403 . S
C182 C183 1.404 . S
C182 C185 1.539 . S
C183 C179 1.408 . S
C183 C182 1.404 . S
C183 H195 0.930 . S
C184 C180 1.524 . S
C184 H196 0.956 . S
C184 H197 0.961 . S
C184 H198 0.961 . S
C185 C182 1.539 . S
C185 H199 0.958 . S
C185 H200 0.961 . S
C185 H201 0.960 . S
H186 C170 0.931 . S
H187 C175 0.929 . S
H188 C176 0.960 . S
H189 C176 0.962 . S
H190 C176 0.960 . S
H191 C177 0.961 . S
H192 C177 0.961 . S
H193 C177 0.961 . S
H194 C178 0.931 . S
H195 C183 0.930 . S
H196 C184 0.956 . S
H197 C184 0.961 . S
H198 C184 0.961 . S
H199 C185 0.958 . S
H200 C185 0.961 . S
H201 C185 0.960 . S
C202 C203 1.391 . S
C202 C204 1.394 . S
C202 H218 0.931 . S
C203 C202 1.391 . S
C203 C207 1.376 . S
C204 C202 1.394 . S
C204 C205 1.369 . S
C204 C208 1.531 . S
C205 C204 1.369 . S
C205 C206 1.410 . S
C205 C213 1.503 . S
C206 C205 1.410 . S
C206 C207 1.392 . S
C206 C209 1.511 . S
C207 C203 1.376 . S
C207 C206 1.392 . S
C207 H219 0.929 . S
C208 C204 1.531 . S
C208 H220 0.960 . S
C208 H221 0.962 . S
C208 H222 0.960 . S
C209 C206 1.511 . S
C209 H223 0.961 1_554 S
C209 H224 0.961 1_554 S
C209 H225 0.961 . S
C210 C211 1.370 . S
C210 C212 1.363 . S
C210 H226 0.931 . S
C211 C210 1.370 . S
C211 C215 1.408 . S
C212 C210 1.363 . S
C212 C213 1.370 . S
C212 C216 1.524 . S
C213 C205 1.503 . S
C213 C212 1.370 . S
C213 C214 1.403 . S
C214 C213 1.403 . S
C214 C215 1.404 . S
C214 C217 1.539 . S
C215 C211 1.408 . S
C215 C214 1.404 . S
C215 H227 0.930 . S
C216 C212 1.524 . S
C216 H228 0.956 . S
C216 H229 0.961 1_554 S
C216 H230 0.961 1_554 S
C217 C214 1.539 . S
C217 H231 0.958 . S
C217 H232 0.961 . S
C217 H233 0.960 . S
H218 C202 0.931 . S
H219 C207 0.929 . S
H220 C208 0.960 . S
H221 C208 0.962 . S
H222 C208 0.960 . S
H223 C209 0.961 1_556 S
H224 C209 0.961 1_556 S
H225 C209 0.961 . S
H226 C210 0.931 . S
H227 C215 0.930 . S
H228 C216 0.956 . S
H229 C216 0.961 1_556 S
H230 C216 0.961 1_556 S
H231 C217 0.958 . S
H232 C217 0.961 . S
H233 C217 0.960 . S
C234 C235 1.391 . S
C234 C236 1.394 . S
C234 H250 0.931 . S
C235 C234 1.391 . S
C235 C239 1.376 . S
C236 C234 1.394 . S
C236 C237 1.369 . S
C236 C240 1.531 . S
C237 C236 1.369 . S
C237 C238 1.410 . S
C237 C245 1.503 . S
C238 C237 1.410 . S
C238 C239 1.392 . S
C238 C241 1.511 . S
C239 C235 1.376 . S
C239 C238 1.392 . S
C239 H251 0.929 . S
C240 C236 1.531 . S
C240 H252 0.960 . S
C240 H253 0.962 . S
C240 H254 0.960 . S
C241 C238 1.511 . S
C241 H255 0.961 . S
C241 H256 0.961 . S
C241 H257 0.961 . S
C242 C243 1.370 . S
C242 C244 1.363 . S
C242 H258 0.931 . S
C243 C242 1.370 . S
C243 C247 1.408 . S
C244 C242 1.363 . S
C244 C245 1.370 . S
C244 C248 1.524 . S
C245 C237 1.503 . S
C245 C244 1.370 . S
C245 C246 1.403 . S
C246 C245 1.403 . S
C246 C247 1.404 . S
C246 C249 1.539 . S
C247 C243 1.408 . S
C247 C246 1.404 . S
C247 H259 0.930 . S
C248 C244 1.524 . S
C248 H260 0.956 . S
C248 H261 0.961 . S
C248 H262 0.961 . S
C249 C246 1.539 . S
C249 H263 0.958 . S
C249 H264 0.961 . S
C249 H265 0.960 . S
H250 C234 0.931 . S
H251 C239 0.929 . S
H252 C240 0.960 . S
H253 C240 0.962 . S
H254 C240 0.960 . S
H255 C241 0.961 . S
H256 C241 0.961 . S
H257 C241 0.961 . S
H258 C242 0.931 . S
H259 C247 0.930 . S
H260 C248 0.956 . S
H261 C248 0.961 . S
H262 C248 0.961 . S
H263 C249 0.958 . S
H264 C249 0.961 . S
H265 C249 0.960 . S
C266 C267 1.391 1_556 S
C266 C268 1.394 . S
C266 H282 0.931 . S
C267 C266 1.391 1_554 S
C267 C271 1.376 . S
C268 C266 1.394 . S
C268 C269 1.369 1_556 S
C268 C272 1.531 . S
C269 C268 1.369 1_554 S
C269 C270 1.410 . S
C269 C277 1.503 . S
C270 C269 1.410 . S
C270 C271 1.392 . S
C270 C273 1.511 . S
C271 C267 1.376 . S
C271 C270 1.392 . S
C271 H283 0.929 . S
C272 C268 1.531 . S
C272 H284 0.960 1_556 S
C272 H285 0.962 . S
C272 H286 0.960 . S
C273 C270 1.511 . S
C273 H287 0.961 . S
C273 H288 0.961 . S
C273 H289 0.961 . S
C274 C275 1.370 1_556 S
C274 C276 1.363 . S
C274 H290 0.931 . S
C275 C274 1.370 1_554 S
C275 C279 1.408 . S
C276 C274 1.363 . S
C276 C277 1.370 1_556 S
C276 C280 1.524 . S
C277 C269 1.503 . S
C277 C276 1.370 1_554 S
C277 C278 1.403 . S
C278 C277 1.403 . S
C278 C279 1.404 . S
C278 C281 1.539 . S
C279 C275 1.408 . S
C279 C278 1.404 . S
C279 H291 0.930 . S
C280 C276 1.524 . S
C280 H292 0.956 . S
C280 H293 0.961 . S
C280 H294 0.961 . S
C281 C278 1.539 . S
C281 H295 0.958 . S
C281 H296 0.961 . S
C281 H297 0.960 . S
H282 C266 0.931 . S
H283 C271 0.929 . S
H284 C272 0.960 1_554 S
H285 C272 0.962 . S
H286 C272 0.960 . S
H287 C273 0.961 . S
H288 C273 0.961 . S
H289 C273 0.961 . S
H290 C274 0.931 . S
H291 C279 0.930 . S
H292 C280 0.956 . S
H293 C280 0.961 . S
H294 C280 0.961 . S
H295 C281 0.958 . S
H296 C281 0.961 . S
H297 C281 0.960 . S
C298 C299 1.391 . S
C298 C300 1.394 . S
C298 H314 0.931 . S
C299 C298 1.391 . S
C299 C303 1.376 . S
C300 C298 1.394 . S
C300 C301 1.369 . S
C300 C304 1.531 1_565 S
C301 C300 1.369 . S
C301 C302 1.410 . S
C301 C309 1.503 . S
C302 C301 1.410 . S
C302 C303 1.392 . S
C302 C305 1.511 . S
C303 C299 1.376 . S
C303 C302 1.392 . S
C303 H315 0.929 . S
C304 C300 1.531 1_545 S
C304 H316 0.960 . S
C304 H317 0.962 . S
C304 H318 0.960 . S
C305 C302 1.511 . S
C305 H319 0.961 . S
C305 H320 0.961 . S
C305 H321 0.961 . S
C306 C307 1.370 . S
C306 C308 1.363 . S
C306 H322 0.931 . S
C307 C306 1.370 . S
C307 C311 1.408 . S
C308 C306 1.363 . S
C308 C309 1.370 . S
C308 C312 1.524 . S
C309 C301 1.503 . S
C309 C308 1.370 . S
C309 C310 1.403 . S
C310 C309 1.403 . S
C310 C311 1.404 . S
C310 C313 1.539 . S
C311 C307 1.408 . S
C311 C310 1.404 . S
C311 H323 0.930 . S
C312 C308 1.524 . S
C312 H324 0.956 . S
C312 H325 0.961 . S
C312 H326 0.961 . S
C313 C310 1.539 . S
C313 H327 0.958 1_565 S
C313 H328 0.961 . S
C313 H329 0.960 . S
H314 C298 0.931 . S
H315 C303 0.929 . S
H316 C304 0.960 . S
H317 C304 0.962 . S
H318 C304 0.960 . S
H319 C305 0.961 . S
H320 C305 0.961 . S
H321 C305 0.961 . S
H322 C306 0.931 . S
H323 C311 0.930 . S
H324 C312 0.956 . S
H325 C312 0.961 . S
H326 C312 0.961 . S
H327 C313 0.958 1_545 S
H328 C313 0.961 . S
H329 C313 0.960 . S
C330 C331 1.391 . S
C330 C332 1.394 . S
C330 H346 0.931 . S
C331 C330 1.391 . S
C331 C335 1.376 . S
C332 C330 1.394 . S
C332 C333 1.369 . S
C332 C336 1.531 . S
C333 C332 1.369 . S
C333 C334 1.410 . S
C333 C341 1.503 . S
C334 C333 1.410 . S
C334 C335 1.392 . S
C334 C337 1.511 . S
C335 C331 1.376 . S
C335 C334 1.392 . S
C335 H347 0.929 . S
C336 C332 1.531 . S
C336 H348 0.960 . S
C336 H349 0.962 . S
C336 H350 0.960 . S
C337 C334 1.511 . S
C337 H351 0.961 . S
C337 H352 0.961 . S
C337 H353 0.961 . S
C338 C339 1.370 . S
C338 C340 1.363 . S
C338 H354 0.931 . S
C339 C338 1.370 . S
C339 C343 1.408 . S
C340 C338 1.363 . S
C340 C341 1.370 . S
C340 C344 1.524 . S
C341 C333 1.503 . S
C341 C340 1.370 . S
C341 C342 1.403 . S
C342 C341 1.403 . S
C342 C343 1.404 . S
C342 C345 1.539 . S
C343 C339 1.408 . S
C343 C342 1.404 . S
C343 H355 0.930 . S
C344 C340 1.524 . S
C344 H356 0.956 . S
C344 H357 0.961 . S
C344 H358 0.961 . S
C345 C342 1.539 . S
C345 H359 0.958 . S
C345 H360 0.961 . S
C345 H361 0.960 . S
H346 C330 0.931 . S
H347 C335 0.929 . S
H348 C336 0.960 . S
H349 C336 0.962 . S
H350 C336 0.960 . S
H351 C337 0.961 . S
H352 C337 0.961 . S
H353 C337 0.961 . S
H354 C338 0.931 . S
H355 C343 0.930 . S
H356 C344 0.956 . S
H357 C344 0.961 . S
H358 C344 0.961 . S
H359 C345 0.958 . S
H360 C345 0.961 . S
H361 C345 0.960 . S
C362 C363 1.391 . S
C362 C364 1.394 . S
C362 H378 0.931 . S
C363 C362 1.391 . S
C363 C367 1.376 . S
C364 C362 1.394 . S
C364 C365 1.369 . S
C364 C368 1.531 . S
C365 C364 1.369 . S
C365 C366 1.410 . S
C365 C373 1.503 . S
C366 C365 1.410 . S
C366 C367 1.392 . S
C366 C369 1.511 . S
C367 C363 1.376 . S
C367 C366 1.392 . S
C367 H379 0.929 . S
C368 C364 1.531 . S
C368 H380 0.960 . S
C368 H381 0.962 . S
C368 H382 0.960 . S
C369 C366 1.511 . S
C369 H383 0.961 . S
C369 H384 0.961 . S
C369 H385 0.961 . S
C370 C371 1.370 . S
C370 C372 1.363 . S
C370 H386 0.931 . S
C371 C370 1.370 . S
C371 C375 1.408 . S
C372 C370 1.363 . S
C372 C373 1.370 . S
C372 C376 1.524 . S
C373 C365 1.503 . S
C373 C372 1.370 . S
C373 C374 1.403 . S
C374 C373 1.403 . S
C374 C375 1.404 . S
C374 C377 1.539 . S
C375 C371 1.408 . S
C375 C374 1.404 . S
C375 H387 0.930 . S
C376 C372 1.524 . S
C376 H388 0.956 . S
C376 H389 0.961 . S
C376 H390 0.937 1_545 S
C377 C374 1.539 . S
C377 H391 0.958 . S
C377 H392 0.961 . S
C377 H393 0.960 . S
H378 C362 0.931 . S
H379 C367 0.929 . S
H380 C368 0.960 . S
H381 C368 0.962 . S
H382 C368 0.960 . S
H383 C369 0.961 . S
H384 C369 0.961 . S
H385 C369 0.961 . S
H386 C370 0.931 . S
H387 C375 0.930 . S
H388 C376 0.956 . S
H389 C376 0.961 . S
H390 C376 0.937 1_565 S
H391 C377 0.958 . S
H392 C377 0.961 . S
H393 C377 0.960 . S
C394 C395 1.391 . S
C394 C396 1.394 . S
C394 H410 0.931 . S
C395 C394 1.391 . S
C395 C399 1.376 . S
C396 C394 1.394 . S
C396 C397 1.369 . S
C396 C400 1.531 . S
C397 C396 1.369 . S
C397 C398 1.410 . S
C397 C405 1.503 . S
C398 C397 1.410 . S
C398 C399 1.392 . S
C398 C401 1.511 . S
C399 C395 1.376 . S
C399 C398 1.392 . S
C399 H411 0.929 . S
C400 C396 1.531 . S
C400 H412 0.960 . S
C400 H413 0.962 . S
C400 H414 0.960 . S
C401 C398 1.511 . S
C401 H415 0.961 . S
C401 H416 0.961 . S
C401 H417 0.961 . S
C402 C403 1.370 . S
C402 C404 1.363 . S
C402 H418 0.931 . S
C403 C402 1.370 . S
C403 C407 1.408 . S
C404 C402 1.363 . S
C404 C405 1.370 . S
C404 C408 1.524 . S
C405 C397 1.503 . S
C405 C404 1.370 . S
C405 C406 1.403 . S
C406 C405 1.403 . S
C406 C407 1.404 . S
C406 C409 1.539 . S
C407 C403 1.408 . S
C407 C406 1.404 . S
C407 H419 0.930 . S
C408 C404 1.524 . S
C408 H420 0.956 . S
C408 H421 0.961 . S
C408 H422 0.961 . S
C409 C406 1.539 . S
C409 H423 0.958 . S
C409 H424 0.961 . S
C409 H425 0.960 . S
H410 C394 0.931 . S
H411 C399 0.929 . S
H412 C400 0.960 . S
H413 C400 0.962 . S
H414 C400 0.960 . S
H415 C401 0.961 . S
H416 C401 0.961 . S
H417 C401 0.961 . S
H418 C402 0.931 . S
H419 C407 0.930 . S
H420 C408 0.956 . S
H421 C408 0.961 . S
H422 C408 0.961 . S
H423 C409 0.958 . S
H424 C409 0.961 . S
H425 C409 0.960 . S
C426 C427 1.391 . S
C426 C428 1.394 . S
C426 H442 0.931 . S
C427 C426 1.391 . S
C427 C431 1.376 . S
C428 C426 1.394 . S
C428 C429 1.369 . S
C428 C432 1.531 . S
C429 C428 1.369 . S
C429 C430 1.410 . S
C429 C437 1.503 . S
C430 C429 1.410 . S
C430 C431 1.392 . S
C430 C433 1.511 . S
C431 C427 1.376 . S
C431 C430 1.392 . S
C431 H443 0.929 . S
C432 C428 1.531 . S
C432 H444 0.960 . S
C432 H445 0.962 . S
C432 H446 0.960 . S
C433 C430 1.511 . S
C433 H447 0.961 . S
C433 H448 0.961 . S
C433 H449 0.961 . S
C434 C435 1.370 . S
C434 C436 1.363 . S
C434 H450 0.931 . S
C435 C434 1.370 . S
C435 C439 1.408 . S
C436 C434 1.363 . S
C436 C437 1.370 . S
C436 C440 1.524 . S
C437 C429 1.503 . S
C437 C436 1.370 . S
C437 C438 1.403 . S
C438 C437 1.403 . S
C438 C439 1.404 . S
C438 C441 1.539 . S
C439 C435 1.408 . S
C439 C438 1.404 . S
C439 H451 0.930 . S
C440 C436 1.524 . S
C440 H452 0.956 . S
C440 H453 0.961 . S
C440 H454 0.961 . S
C441 C438 1.539 . S
C441 H455 0.958 . S
C441 H456 0.961 . S
C441 H457 0.960 . S
H442 C426 0.931 . S
H443 C431 0.929 . S
H444 C432 0.960 . S
H445 C432 0.962 . S
H446 C432 0.960 . S
H447 C433 0.961 . S
H448 C433 0.961 . S
H449 C433 0.961 . S
H450 C434 0.931 . S
H451 C439 0.930 . S
H452 C440 0.956 . S
H453 C440 0.961 . S
H454 C440 0.961 . S
H455 C441 0.958 . S
H456 C441 0.961 . S
H457 C441 0.960 . S
C458 C459 1.391 . S
C458 C460 1.394 . S
C458 H474 0.931 . S
C459 C458 1.391 . S
C459 C463 1.376 . S
C460 C458 1.394 . S
C460 C461 1.369 . S
C460 C464 1.531 . S
C461 C460 1.369 . S
C461 C462 1.410 . S
C461 C469 1.503 . S
C462 C461 1.410 . S
C462 C463 1.392 . S
C462 C465 1.511 . S
C463 C459 1.376 . S
C463 C462 1.392 . S
C463 H475 0.929 . S
C464 C460 1.531 . S
C464 H476 0.960 . S
C464 H477 0.962 . S
C464 H478 0.960 . S
C465 C462 1.511 . S
C465 H479 0.961 . S
C465 H480 0.961 . S
C465 H481 0.961 . S
C466 C467 1.370 . S
C466 C468 1.363 . S
C466 H482 0.931 . S
C467 C466 1.370 . S
C467 C471 1.408 . S
C468 C466 1.363 . S
C468 C469 1.370 . S
C468 C472 1.524 . S
C469 C461 1.503 . S
C469 C468 1.370 . S
C469 C470 1.403 . S
C470 C469 1.403 . S
C470 C471 1.404 . S
C470 C473 1.539 1_545 S
C471 C467 1.408 . S
C471 C470 1.404 . S
C471 H483 0.930 1_545 S
C472 C468 1.524 . S
C472 H484 0.956 . S
C472 H485 0.961 . S
C472 H486 0.961 . S
C473 C470 1.539 1_565 S
C473 H487 0.958 . S
C473 H488 0.961 . S
C473 H489 0.960 1_565 S
H474 C458 0.931 . S
H475 C463 0.929 . S
H476 C464 0.960 . S
H477 C464 0.962 . S
H478 C464 0.960 . S
H479 C465 0.961 . S
H480 C465 0.961 . S
H481 C465 0.961 . S
H482 C466 0.931 . S
H483 C471 0.930 1_565 S
H484 C472 0.956 . S
H485 C472 0.961 . S
H486 C472 0.961 . S
H487 C473 0.958 . S
H488 C473 0.961 . S
H489 C473 0.960 1_545 S
C490 C491 1.391 . S
C490 C492 1.394 . S
C490 H506 0.931 . S
C491 C490 1.391 . S
C491 C495 1.376 . S
C492 C490 1.394 . S
C492 C493 1.369 . S
C492 C496 1.531 . S
C493 C492 1.369 . S
C493 C494 1.410 . S
C493 C501 1.503 . S
C494 C493 1.410 . S
C494 C495 1.392 . S
C494 C497 1.511 . S
C495 C491 1.376 . S
C495 C494 1.392 . S
C495 H507 0.929 . S
C496 C492 1.531 . S
C496 H508 0.960 . S
C496 H509 0.962 . S
C496 H510 0.960 . S
C497 C494 1.511 . S
C497 H511 0.961 . S
C497 H512 0.961 . S
C497 H513 0.961 . S
C498 C499 1.370 . S
C498 C500 1.363 . S
C498 H514 0.931 . S
C499 C498 1.370 . S
C499 C503 1.408 . S
C500 C498 1.363 . S
C500 C501 1.370 . S
C500 C504 1.524 . S
C501 C493 1.503 . S
C501 C500 1.370 . S
C501 C502 1.403 . S
C502 C501 1.403 . S
C502 C503 1.404 . S
C502 C505 1.539 . S
C503 C499 1.408 . S
C503 C502 1.404 . S
C503 H515 0.930 . S
C504 C500 1.524 . S
C504 H516 0.956 . S
C504 H517 0.961 . S
C504 H518 0.961 . S
C505 C502 1.539 . S
C505 H519 0.958 . S
C505 H520 0.961 . S
C505 H521 0.960 . S
H506 C490 0.931 . S
H507 C495 0.929 . S
H508 C496 0.960 . S
H509 C496 0.962 . S
H510 C496 0.960 . S
H511 C497 0.961 . S
H512 C497 0.961 . S
H513 C497 0.961 . S
H514 C498 0.931 . S
H515 C503 0.930 . S
H516 C504 0.956 . S
H517 C504 0.961 . S
H518 C504 0.961 . S
H519 C505 0.958 . S
H520 C505 0.961 . S
H521 C505 0.960 . S
C522 C523 1.391 . S
C522 C524 1.394 . S
C522 H538 0.931 . S
C523 C522 1.391 . S
C523 C527 1.376 . S
C524 C522 1.394 . S
C524 C525 1.369 . S
C524 C528 1.531 . S
C525 C524 1.369 . S
C525 C526 1.410 . S
C525 C533 1.503 . S
C526 C525 1.410 . S
C526 C527 1.392 . S
C526 C529 1.511 . S
C527 C523 1.376 . S
C527 C526 1.392 . S
C527 H539 0.929 . S
C528 C524 1.531 . S
C528 H540 0.960 . S
C528 H541 0.962 . S
C528 H542 0.960 . S
C529 C526 1.511 . S
C529 H543 0.961 . S
C529 H544 0.961 . S
C529 H545 0.961 . S
C530 C531 1.370 . S
C530 C532 1.363 . S
C530 H546 0.931 . S
C531 C530 1.370 . S
C531 C535 1.408 1_565 S
C532 C530 1.363 . S
C532 C533 1.370 . S
C532 C536 1.524 . S
C533 C525 1.503 . S
C533 C532 1.370 . S
C533 C534 1.403 . S
C534 C533 1.403 . S
C534 C535 1.404 1_565 S
C534 C537 1.539 1_565 S
C535 C531 1.408 1_545 S
C535 C534 1.404 1_545 S
C535 H547 0.930 . S
C536 C532 1.524 . S
C536 H548 0.956 . S
C536 H549 0.961 . S
C536 H550 0.961 . S
C537 C534 1.539 1_545 S
C537 H551 0.958 . S
C537 H552 0.961 . S
C537 H553 0.960 . S
H538 C522 0.931 . S
H539 C527 0.929 . S
H540 C528 0.960 . S
H541 C528 0.962 . S
H542 C528 0.960 . S
H543 C529 0.961 . S
H544 C529 0.961 . S
H545 C529 0.961 . S
H546 C530 0.931 . S
H547 C535 0.930 . S
H548 C536 0.956 . S
H549 C536 0.961 . S
H550 C536 0.961 . S
H551 C537 0.958 . S
H552 C537 0.961 . S
H553 C537 0.960 . S
C179 C143 1.331 . S
C171 C119 1.452 . S
C203 C23 1.505 . S
C211 C167 1.325 . S
C235 C55 1.636 . S
C243 C146 1.425 . S
C267 C87 1.563 1_554 S
C275 C164 1.401 . S
C307 C144 1.536 . S
C299 C17 1.572 . S
C339 C166 1.526 . S
C331 C61 1.590 . S
C363 C93 1.469 . S
C371 C145 1.502 . S
C395 C113 1.438 . S
C403 C165 1.498 . S
C435 C163 1.496 . S
C427 C49 1.562 . S
C467 C142 1.544 . S
C459 C81 1.542 . S
C499 C162 1.555 . S
C491 C125 1.477 . S
C523 C29 1.564 . S
C531 C141 1.475 . S
