# Generated by pormake.
# Topology pyr, (3,6)-cn, num edge types: 1
# Building blocks:
#     Node 0, Type 0, BuildingBlock: QEWDON_clean_linker_0, # of connection points: 3
#     Node 1, Type 0, BuildingBlock: QEWDON_clean_linker_0, # of connection points: 3
#     Node 2, Type 0, BuildingBlock: QEWDON_clean_linker_0, # of connection points: 3
#     Node 3, Type 0, BuildingBlock: QEWDON_clean_linker_0, # of connection points: 3
#     Node 4, Type 0, BuildingBlock: QEWDON_clean_linker_0, # of connection points: 3
#     Node 5, Type 0, BuildingBlock: QEWDON_clean_linker_0, # of connection points: 3
#     Node 6, Type 0, BuildingBlock: QEWDON_clean_linker_0, # of connection points: 3
#     Node 7, Type 0, BuildingBlock: QEWDON_clean_linker_0, # of connection points: 3
#     Node 8, Type 1, BuildingBlock: VOLQOD_clean_sbu_1, # of connection points: 6
#     Node 9, Type 1, BuildingBlock: VOLQOD_clean_sbu_1, # of connection points: 6
#     Node 10, Type 1, BuildingBlock: VOLQOD_clean_sbu_1, # of connection points: 6
#     Node 11, Type 1, BuildingBlock: VOLQOD_clean_sbu_1, # of connection points: 6
#     Edge 12, Type (0, 1), BuildingBlock: UVAHIK_clean_linker_0, # of connection points: 2
#     Edge 13, Type (0, 1), BuildingBlock: UVAHIK_clean_linker_0, # of connection points: 2
#     Edge 14, Type (0, 1), BuildingBlock: UVAHIK_clean_linker_0, # of connection points: 2
#     Edge 15, Type (0, 1), BuildingBlock: UVAHIK_clean_linker_0, # of connection points: 2
#     Edge 16, Type (0, 1), BuildingBlock: UVAHIK_clean_linker_0, # of connection points: 2
#     Edge 17, Type (0, 1), BuildingBlock: UVAHIK_clean_linker_0, # of connection points: 2
#     Edge 18, Type (0, 1), BuildingBlock: UVAHIK_clean_linker_0, # of connection points: 2
#     Edge 19, Type (0, 1), BuildingBlock: UVAHIK_clean_linker_0, # of connection points: 2
#     Edge 20, Type (0, 1), BuildingBlock: UVAHIK_clean_linker_0, # of connection points: 2
#     Edge 21, Type (0, 1), BuildingBlock: UVAHIK_clean_linker_0, # of connection points: 2
#     Edge 22, Type (0, 1), BuildingBlock: UVAHIK_clean_linker_0, # of connection points: 2
#     Edge 23, Type (0, 1), BuildingBlock: UVAHIK_clean_linker_0, # of connection points: 2
#     Edge 24, Type (0, 1), BuildingBlock: UVAHIK_clean_linker_0, # of connection points: 2
#     Edge 25, Type (0, 1), BuildingBlock: UVAHIK_clean_linker_0, # of connection points: 2
#     Edge 26, Type (0, 1), BuildingBlock: UVAHIK_clean_linker_0, # of connection points: 2
#     Edge 27, Type (0, 1), BuildingBlock: UVAHIK_clean_linker_0, # of connection points: 2
#     Edge 28, Type (0, 1), BuildingBlock: UVAHIK_clean_linker_0, # of connection points: 2
#     Edge 29, Type (0, 1), BuildingBlock: UVAHIK_clean_linker_0, # of connection points: 2
#     Edge 30, Type (0, 1), BuildingBlock: UVAHIK_clean_linker_0, # of connection points: 2
#     Edge 31, Type (0, 1), BuildingBlock: UVAHIK_clean_linker_0, # of connection points: 2
#     Edge 32, Type (0, 1), BuildingBlock: UVAHIK_clean_linker_0, # of connection points: 2
#     Edge 33, Type (0, 1), BuildingBlock: UVAHIK_clean_linker_0, # of connection points: 2
#     Edge 34, Type (0, 1), BuildingBlock: UVAHIK_clean_linker_0, # of connection points: 2
#     Edge 35, Type (0, 1), BuildingBlock: UVAHIK_clean_linker_0, # of connection points: 2
# Relax obj value: 0.164
# Max RMSD: 0.275
# Mean RMSD: 0.205
data_MOF--net-pry--node1-VOLQOD_clean_sbu_1--node2-QEWDON_clean_linker_0--edge1-UVAHIK_clean_linker_0
_symmetry_space_group_name_H-M    P1
_symmetry_Int_Tables_number       1
_symmetry_cell_setting            triclinic
loop_
_symmetry_equiv_pos_as_xyz
'x, y, z'
_cell_length_a     47.052321
_cell_length_b     47.473048
_cell_length_c     50.691848
_cell_angle_alpha  90.168242
_cell_angle_beta   90.576178
_cell_angle_gamma 100.25364
loop_
_atom_site_label
_atom_site_type_symbol
_atom_site_fract_x
_atom_site_fract_y
_atom_site_fract_z
_atom_type_partial_charge
H0 H 0.20906 0.23664 0.15926 0.0
C1 C 0.19563 0.22594 0.1748 0.0
C2 C 0.19625 0.19708 0.18058 0.0
C3 C 0.17907 0.2416 0.18994 0.0
H4 H 0.18028 0.16188 0.20648 0.0
C5 C 0.17916 0.18378 0.20124 0.0
C6 C 0.16278 0.1994 0.21679 0.0
C7 C 0.16283 0.22834 0.21095 0.0
C8 C 0.18265 0.27288 0.18663 0.0
H9 H 0.15093 0.24083 0.22323 0.0
C10 C 0.16668 0.28514 0.16757 0.0
C11 C 0.17144 0.3151 0.16425 0.0
C12 C 0.20302 0.29058 0.20251 0.0
H13 H 0.21546 0.2814 0.21725 0.0
C14 C 0.2077 0.32019 0.19933 0.0
H15 H 0.15099 0.27148 0.15524 0.0
C16 C 0.19212 0.3324 0.18029 0.0
H17 H 0.19597 0.35549 0.17835 0.0
H18 H 0.22348 0.33372 0.21163 0.0
H19 H 0.34789 0.91693 0.74186 0.0
C20 C 0.36252 0.90524 0.73196 0.0
C21 C 0.39008 0.90465 0.7429 0.0
C22 C 0.35278 0.88881 0.7095 0.0
H23 H 0.42926 0.88706 0.7386 0.0
C24 C 0.40801 0.88783 0.73051 0.0
C25 C 0.3986 0.87167 0.70781 0.0
C26 C 0.37107 0.87247 0.69737 0.0
C27 C 0.32222 0.88517 0.70086 0.0
H28 H 0.36323 0.85916 0.68046 0.0
C29 C 0.30974 0.90854 0.6925 0.0
C30 C 0.28055 0.9042 0.68425 0.0
C31 C 0.30535 0.8576 0.701 0.0
H32 H 0.31452 0.83937 0.70747 0.0
C33 C 0.27649 0.85329 0.69305 0.0
H34 H 0.32267 0.92985 0.69231 0.0
C35 C 0.26414 0.87636 0.68471 0.0
H36 H 0.24179 0.87233 0.67815 0.0
H37 H 0.26367 0.83197 0.69321 0.0
H38 H 0.62627 0.49837 0.96121 0.0
C39 C 0.61823 0.47766 0.96985 0.0
C40 C 0.63754 0.4599 0.97807 0.0
C41 C 0.58835 0.46876 0.97239 0.0
H42 H 0.64081 0.41862 0.99436 0.0
C43 C 0.62626 0.43268 0.98821 0.0
C44 C 0.59629 0.42315 0.99003 0.0
C45 C 0.57747 0.44165 0.98256 0.0
C46 C 0.56838 0.48724 0.96301 0.0
H47 H 0.55431 0.43479 0.9841 0.0
C48 C 0.56597 0.49233 0.93594 0.0
C49 C 0.54688 0.50972 0.92658 0.0
C50 C 0.55158 0.49958 0.98088 0.0
H51 H 0.55313 0.49571 0.00185 0.0
C52 C 0.53291 0.51733 0.97172 0.0
H53 H 0.57891 0.48263 0.92216 0.0
C54 C 0.5306 0.52249 0.94471 0.0
H55 H 0.5157 0.53595 0.93795 0.0
H56 H 0.5201 0.52698 0.98557 0.0
H57 H 0.88844 0.68606 0.37724 0.0
C58 C 0.87906 0.67802 0.39578 0.0
C59 C 0.88808 0.69282 0.41933 0.0
C60 C 0.85693 0.65383 0.39591 0.0
H61 H 0.88143 0.69455 0.46129 0.0
C62 C 0.8751 0.68281 0.44319 0.0
C63 C 0.85266 0.65902 0.44369 0.0
C64 C 0.84419 0.64435 0.41999 0.0
C65 C 0.84538 0.63977 0.37079 0.0
H66 H 0.82665 0.62618 0.42006 0.0
C67 C 0.86396 0.63526 0.35019 0.0
C68 C 0.85277 0.6217 0.32662 0.0
C69 C 0.81538 0.63093 0.36724 0.0
H70 H 0.80039 0.63477 0.38234 0.0
C71 C 0.80426 0.61744 0.34396 0.0
H72 H 0.88711 0.64173 0.35267 0.0
C73 C 0.82277 0.61276 0.32378 0.0
H74 H 0.81356 0.60262 0.30571 0.0
H75 H 0.78116 0.61079 0.34145 0.0
H76 H 0.86248 0.89205 0.91471 0.0
C77 C 0.87216 0.90383 0.89779 0.0
C78 C 0.90064 0.90216 0.89066 0.0
C79 C 0.85514 0.91836 0.88171 0.0
H80 H 0.93422 0.9153 0.8622 0.0
C81 C 0.91224 0.91632 0.86775 0.0
C82 C 0.89546 0.93113 0.85158 0.0
C83 C 0.86693 0.93206 0.85882 0.0
C84 C 0.8238 0.91538 0.88625 0.0
H85 H 0.85326 0.9422 0.84593 0.0
C86 C 0.81293 0.9274 0.90859 0.0
C87 C 0.78287 0.9242 0.91226 0.0
C88 C 0.80455 0.9002 0.8677 0.0
H89 H 0.81256 0.89078 0.85041 0.0
C90 C 0.77485 0.8968 0.87139 0.0
H91 H 0.82775 0.93922 0.92289 0.0
C92 C 0.76403 0.90869 0.89348 0.0
H93 H 0.74083 0.90621 0.89563 0.0
H94 H 0.76014 0.88505 0.857 0.0
H95 H 0.65455 0.15894 0.47145 0.0
C96 C 0.6478 0.15863 0.45094 0.0
C97 C 0.66539 0.15015 0.4312 0.0
C98 C 0.62083 0.16563 0.44454 0.0
H99 H 0.66848 0.1418 0.38952 0.0
C100 C 0.65535 0.14864 0.40487 0.0
C101 C 0.62802 0.15488 0.39827 0.0
C102 C 0.61107 0.1638 0.41827 0.0
C103 C 0.6014 0.1716 0.46571 0.0
H104 H 0.58989 0.16854 0.41358 0.0
C105 C 0.59716 0.19965 0.47106 0.0
C106 C 0.57832 0.20492 0.49129 0.0
C107 C 0.58676 0.14876 0.48051 0.0
H108 H 0.5898 0.12705 0.47659 0.0
C109 C 0.5678 0.1537 0.50023 0.0
H110 H 0.60898 0.21724 0.45982 0.0
C111 C 0.56349 0.18147 0.50555 0.0
H112 H 0.54824 0.18448 0.52071 0.0
H113 H 0.5563 0.13592 0.51139 0.0
H114 H 0.44993 0.66245 0.18312 0.0
C115 C 0.4291 0.65725 0.17325 0.0
C116 C 0.41805 0.67859 0.15954 0.0
C117 C 0.4135 0.62904 0.17355 0.0
H118 H 0.38284 0.68851 0.13596 0.0
C119 C 0.39143 0.67187 0.14639 0.0
C120 C 0.37543 0.64412 0.14714 0.0
C121 C 0.38646 0.6227 0.1607 0.0
C122 C 0.42546 0.60605 0.18697 0.0
H123 H 0.37401 0.60117 0.16126 0.0
C124 C 0.43512 0.60942 0.2133 0.0
C125 C 0.44583 0.58726 0.22629 0.0
C126 C 0.42687 0.58043 0.17354 0.0
H127 H 0.41963 0.57744 0.15321 0.0
C128 C 0.43792 0.55858 0.18617 0.0
H129 H 0.43397 0.62915 0.22372 0.0
C130 C 0.44731 0.56188 0.21238 0.0
H131 H 0.45515 0.54433 0.22194 0.0
H132 H 0.43897 0.5389 0.17569 0.0
H133 H 0.11704 0.504 0.62654 0.0
C134 C 0.10844 0.48303 0.6184 0.0
C135 C 0.1274 0.46525 0.60992 0.0
C136 C 0.0784 0.47349 0.61712 0.0
H137 H 0.13082 0.4241 0.59371 0.0
C138 C 0.11612 0.43799 0.59986 0.0
C139 C 0.08622 0.42818 0.59827 0.0
C140 C 0.06743 0.44614 0.60683 0.0
C141 C 0.05846 0.49098 0.62854 0.0
H142 H 0.0443 0.43856 0.60617 0.0
C143 C 0.06318 0.50173 0.65435 0.0
C144 C 0.04302 0.51598 0.66661 0.0
C145 C 0.03379 0.49542 0.61452 0.0
H146 H 0.02972 0.48732 0.59458 0.0
C147 C 0.01411 0.5103 0.6262 0.0
H148 H 0.08227 0.49828 0.66511 0.0
C149 C 0.0185 0.52035 0.65212 0.0
H150 H 0.00229 0.53083 0.66097 0.0
H151 H 0.99507 0.51359 0.61531 0.0
O152 O 0.00356 0.11153 0.55352 0.0
Zn153 Zn 0.98399 0.07125 0.54573 0.0
O154 O 0.00849 0.05174 0.52371 0.0
Zn155 Zn 0.99 0.04274 0.48911 0.0
Zn156 Zn 0.04661 0.07598 0.51918 0.0
Zn157 Zn 0.01327 0.0165 0.54134 0.0
O158 O 0.98459 0.00037 0.4817 0.0
O159 O 0.00197 0.98229 0.51752 0.0
O160 O 0.94703 0.07441 0.52658 0.0
O161 O 0.95087 0.05519 0.48706 0.0
O162 O 0.01514 0.06226 0.45994 0.0
O163 O 0.05563 0.08241 0.48054 0.0
O164 O 0.07874 0.05945 0.5376 0.0
O165 O 0.97387 0.05083 0.58032 0.0
O166 O 0.05434 0.01848 0.55281 0.0
O167 O 0.99058 0.01041 0.5749 0.0
C168 C 0.02795 0.12615 0.54738 0.0
C169 C 0.99074 0.97914 0.4945 0.0
C170 C 0.04077 0.07657 0.45942 0.0
C171 C 0.93685 0.06752 0.50361 0.0
C172 C 0.07783 0.03623 0.55043 0.0
C173 C 0.97724 0.02632 0.58861 0.0
O174 O 0.04628 0.11518 0.53432 0.0
O175 O 0.49497 0.10825 0.03833 0.0
Zn176 Zn 0.47462 0.06776 0.04489 0.0
O177 O 0.49863 0.04811 0.06804 0.0
Zn178 Zn 0.50601 0.01425 0.04977 0.0
Zn179 Zn 0.53591 0.07287 0.07609 0.0
Zn180 Zn 0.47825 0.03667 0.10105 0.0
O181 O 0.49125 0.97903 0.07015 0.0
O182 O 0.47194 0.99359 0.10634 0.0
O183 O 0.46583 0.04753 0.00936 0.0
O184 O 0.48759 0.01003 0.01381 0.0
O185 O 0.5483 0.01511 0.04524 0.0
O186 O 0.5701 0.05665 0.06204 0.0
O187 O 0.54162 0.07886 0.11547 0.0
O188 O 0.43689 0.07087 0.06265 0.0
O189 O 0.5012 0.05485 0.13247 0.0
O190 O 0.43982 0.05005 0.10154 0.0
C191 C 0.51912 0.12275 0.04596 0.0
C192 C 0.4786 0.97363 0.09207 0.0
C193 C 0.57119 0.03291 0.05063 0.0
C194 C 0.47257 0.02458 1.00019 0.0
C195 C 0.52589 0.07076 0.13532 0.0
C196 C 0.42629 0.06328 0.08513 0.0
O197 O 0.53657 0.11173 0.06034 0.0
O198 O 0.53626 0.57134 0.63585 0.0
Zn199 Zn 0.53791 0.58755 0.59921 0.0
O200 O 0.51345 0.56063 0.57534 0.0
Zn201 Zn 0.5367 0.5495 0.54694 0.0
Zn202 Zn 0.49582 0.52579 0.59421 0.0
Zn203 Zn 0.48364 0.57991 0.56039 0.0
O204 O 0.52459 0.56323 0.51188 0.0
O205 O 0.48692 0.58376 0.5208 0.0
O206 O 0.57967 0.59443 0.58793 0.0
O207 O 0.57847 0.56583 0.553 0.0
O208 O 0.53359 0.50684 0.54427 0.0
O209 O 0.50705 0.48983 0.57852 0.0
O210 O 0.45219 0.52134 0.5932 0.0
O211 O 0.52416 0.62551 0.60215 0.0
O212 O 0.44445 0.55807 0.56878 0.0
O213 O 0.48511 0.61905 0.57644 0.0
C214 C 0.52396 0.54795 0.64616 0.0
C215 C 0.50447 0.57616 0.50436 0.0
C216 C 0.52176 0.48588 0.55828 0.0
C217 C 0.59242 0.58344 0.56952 0.0
C218 C 0.43502 0.53581 0.5822 0.0
C219 C 0.50233 0.63443 0.59244 0.0
O220 O 0.50825 0.5285 0.63246 0.0
O221 O 0.9873 0.57209 0.06799 0.0
Zn222 Zn 0.99537 0.55903 0.03151 0.0
O223 O 0.01918 0.59035 0.01254 0.0
Zn224 Zn 0.9974 0.60122 0.98263 0.0
Zn225 Zn 0.03003 0.62389 0.03575 0.0
Zn226 Zn 0.05352 0.57692 0.99975 0.0
O227 O 0.015 0.59227 0.94847 0.0
O228 O 0.05444 0.57541 0.95993 0.0
O229 O 0.95673 0.54691 0.01351 0.0
O230 O 0.95627 0.58029 0.98291 0.0
O231 O 0.99708 0.64328 0.98255 0.0
O232 O 0.01902 0.66 0.01984 0.0
O233 O 0.07309 0.63074 0.04258 0.0
O234 O 0.015 0.52471 0.03568 0.0
O235 O 0.08932 0.60219 0.01362 0.0
O236 O 0.05569 0.53749 0.01366 0.0
C237 C 0.99434 0.59535 0.08095 0.0
C238 C 0.03746 0.58234 0.94232 0.0
C239 C 0.00611 0.66395 0.99827 0.0
C240 C 0.94374 0.55842 0.99542 0.0
C241 C 0.09382 0.62136 0.03156 0.0
C242 C 0.03909 0.51946 0.02765 0.0
O243 O 0.01038 0.61708 0.07096 0.0
C244 C 0.15294 0.20071 0.26514 0.0
C245 C 0.14817 0.18639 0.2408 0.0
C246 C 0.14037 0.18818 0.2881 0.0
C247 C 0.10538 0.11798 0.31591 0.0
H248 H 0.08384 0.16651 0.3712 0.0
C249 C 0.04127 0.07581 0.40985 0.0
C250 C 0.05315 0.08758 0.43388 0.0
C251 C 0.05242 0.08693 0.38578 0.0
C252 C 0.08989 0.15273 0.35596 0.0
H253 H 0.12626 0.14788 0.22127 0.0
H254 H 0.10328 0.1263 0.2612 0.0
H255 H 0.1027 0.18782 0.32988 0.0
H256 H 0.0861 0.12026 0.45142 0.0
H257 H 0.10511 0.13998 0.4094 0.0
H258 H 0.09165 0.08281 0.34206 0.0
C259 C 0.11736 0.14692 0.26277 0.0
C260 C 0.10086 0.16491 0.33228 0.0
C261 C 0.13034 0.15933 0.23983 0.0
C262 C 0.0765 0.11062 0.43329 0.0
C263 C 0.08729 0.12204 0.40925 0.0
C264 C 0.09394 0.10575 0.33949 0.0
C265 C 0.12231 0.16112 0.28729 0.0
C266 C 0.10916 0.1478 0.31201 0.0
C267 C 0.07531 0.11038 0.38527 0.0
C268 C 0.08643 0.12306 0.35985 0.0
H269 H 0.16705 0.22136 0.26656 0.0
H270 H 0.14537 0.19955 0.30658 0.0
H271 H 0.11188 0.10408 0.30103 0.0
H272 H 0.02332 0.05801 0.40962 0.0
H273 H 0.04273 0.07763 0.36756 0.0
C274 C 0.41419 0.90659 0.78753 0.0
C275 C 0.39926 0.91972 0.76828 0.0
C276 C 0.42241 0.92025 0.81156 0.0
C277 C 0.4054 0.97531 0.85721 0.0
H278 H 0.48075 0.97074 0.88678 0.0
C279 C 0.44841 0.03052 0.95633 0.0
C280 C 0.46337 0.01449 0.97311 0.0
C281 C 0.44062 0.02095 0.93059 0.0
C282 C 0.45952 0.97202 0.87894 0.0
H283 H 0.38135 0.95773 0.75941 0.0
H284 H 0.39555 0.98152 0.80161 0.0
H285 H 0.46733 0.95057 0.84328 0.0
H286 H 0.48133 0.97549 0.97598 0.0
H287 H 0.46753 0.95884 0.93164 0.0
H288 H 0.39748 0.99642 0.89316 0.0
C289 C 0.40074 0.96052 0.79802 0.0
C290 C 0.45184 0.96047 0.85396 0.0
C291 C 0.39261 0.94687 0.77384 0.0
C292 C 0.47002 0.98857 0.96364 0.0
C293 C 0.46227 0.97906 0.93805 0.0
C294 C 0.41307 0.98684 0.88231 0.0
C295 C 0.41582 0.94738 0.81712 0.0
C296 C 0.42454 0.96156 0.84294 0.0
C297 C 0.44769 0.99519 0.92109 0.0
C298 C 0.44006 0.9849 0.89366 0.0
H299 H 0.41905 0.8854 0.7843 0.0
H300 H 0.43347 0.90926 0.82603 0.0
H301 H 0.38412 0.97633 0.84935 0.0
H302 H 0.44295 0.05058 0.96295 0.0
H303 H 0.42954 0.03398 0.918 0.0
C304 C 0.54527 0.54155 0.88745 0.0
C305 C 0.54367 0.51395 0.89789 0.0
C306 C 0.54313 0.54541 0.86022 0.0
C307 C 0.5146 0.5091 0.7994 0.0
H308 H 0.57278 0.56415 0.76449 0.0
C309 C 0.5198 0.51643 0.68603 0.0
C310 C 0.52727 0.54375 0.67485 0.0
C311 C 0.52223 0.51272 0.71324 0.0
C312 C 0.55609 0.54899 0.77393 0.0
H313 H 0.5379 0.46875 0.88832 0.0
H314 H 0.53376 0.47548 0.84073 0.0
H315 H 0.5752 0.55848 0.81221 0.0
H316 H 0.543 0.58865 0.68348 0.0
H317 H 0.54637 0.58235 0.73089 0.0
H318 H 0.495 0.49998 0.76141 0.0
C319 C 0.53685 0.49409 0.85356 0.0
C320 C 0.55756 0.54572 0.80125 0.0
C321 C 0.5394 0.49027 0.88071 0.0
C322 C 0.5373 0.56726 0.69144 0.0
C323 C 0.53938 0.56361 0.71866 0.0
C324 C 0.51289 0.51262 0.77212 0.0
C325 C 0.53889 0.52169 0.84306 0.0
C326 C 0.5369 0.52567 0.81421 0.0
C327 C 0.53184 0.5363 0.72994 0.0
C328 C 0.53368 0.53254 0.759 0.0
H329 H 0.54868 0.56014 0.90031 0.0
H330 H 0.54459 0.5669 0.85258 0.0
H331 H 0.49824 0.49369 0.80899 0.0
H332 H 0.51219 0.49785 0.67374 0.0
H333 H 0.51675 0.49129 0.72114 0.0
C334 C 0.86784 0.59107 0.29101 0.0
C335 C 0.87203 0.61731 0.30462 0.0
C336 C 0.88387 0.58771 0.26858 0.0
C337 C 0.94835 0.61971 0.23036 0.0
H338 H 0.90383 0.58102 0.17181 0.0
C339 C 0.98968 0.62273 0.12273 0.0
C340 C 0.98315 0.5972 0.108 0.0
C341 C 0.97813 0.6246 0.14786 0.0
C342 C 0.91669 0.59155 0.18805 0.0
H343 H 0.89699 0.66031 0.30604 0.0
H344 H 0.92488 0.65459 0.26657 0.0
H345 H 0.88059 0.58503 0.21389 0.0
H346 H 0.95998 0.55334 0.10855 0.0
H347 H 0.94007 0.5566 0.1523 0.0
H348 H 0.98438 0.62655 0.20413 0.0
C349 C 0.90943 0.63648 0.27343 0.0
C350 C 0.90338 0.59382 0.21222 0.0
C351 C 0.89345 0.63978 0.296 0.0
C352 C 0.96531 0.57342 0.11921 0.0
C353 C 0.95378 0.57531 0.14427 0.0
C354 C 0.9617 0.61749 0.20607 0.0
C355 C 0.90434 0.61059 0.25914 0.0
C356 C 0.91902 0.60786 0.23369 0.0
C357 C 0.95977 0.60099 0.15875 0.0
C358 C 0.94598 0.60332 0.18468 0.0
H359 H 0.85182 0.57322 0.29751 0.0
H360 H 0.87991 0.56728 0.2584 0.0
H361 H 0.96106 0.63046 0.24658 0.0
H362 H 0.00338 0.64145 0.11472 0.0
H363 H 0.98295 0.64475 0.15846 0.0
C364 C 0.20962 0.15329 0.15918 0.0
C365 C 0.21737 0.18199 0.16739 0.0
C366 C 0.23036 0.1387 0.14866 0.0
C367 C 0.30818 0.139 0.15134 0.0
H368 H 0.29609 0.09244 0.08784 0.0
C369 C 0.38247 0.0852 0.07517 0.0
C370 C 0.3988 0.07195 0.09317 0.0
C371 C 0.35816 0.09592 0.08351 0.0
C372 C 0.29972 0.10537 0.10561 0.0
H373 H 0.25293 0.21783 0.17093 0.0
H374 H 0.28893 0.19246 0.15262 0.0
H375 H 0.2578 0.11727 0.10326 0.0
H376 H 0.40158 0.05864 0.13392 0.0
H377 H 0.35939 0.07747 0.14839 0.0
H378 H 0.35 0.12738 0.15375 0.0
C379 C 0.26686 0.18125 0.15425 0.0
C380 C 0.27778 0.11941 0.1145 0.0
C381 C 0.24615 0.19587 0.16448 0.0
C382 C 0.38963 0.06878 0.1195 0.0
C383 C 0.36552 0.07971 0.12786 0.0
C384 C 0.32989 0.12475 0.14267 0.0
C385 C 0.2593 0.15242 0.14653 0.0
C386 C 0.28193 0.13661 0.13732 0.0
C387 C 0.34982 0.09385 0.11008 0.0
C388 C 0.32602 0.10791 0.11962 0.0
H389 H 0.1876 0.14207 0.16114 0.0
H390 H 0.22396 0.11645 0.14296 0.0
H391 H 0.31189 0.15187 0.16915 0.0
H392 H 0.38884 0.08795 0.05473 0.0
H393 H 0.34658 0.10683 0.06938 0.0
C394 C 0.239 0.93042 0.68264 0.0
C395 C 0.26688 0.92809 0.6744 0.0
C396 C 0.22402 0.94989 0.6707 0.0
C397 C 0.21945 0.98664 0.60761 0.0
H398 H 0.16183 0.01951 0.64534 0.0
C399 C 0.13193 0.04294 0.55702 0.0
C400 C 0.10386 0.03012 0.56442 0.0
C401 C 0.15609 0.03651 0.57066 0.0
C402 C 0.178 0.01068 0.63457 0.0
H403 H 0.30157 0.94536 0.64807 0.0
H404 H 0.27541 0.97987 0.62725 0.0
H405 H 0.19775 0.99876 0.67 0.0
H406 H 0.0792 0.00107 0.59227 0.0
H407 H 0.12102 0.99045 0.6161 0.0
H408 H 0.19901 0.99811 0.57214 0.0
C409 C 0.26503 0.96631 0.64279 0.0
C410 C 0.1985 0.99867 0.64865 0.0
C411 C 0.28012 0.94678 0.65488 0.0
C412 C 0.10048 0.01119 0.5859 0.0
C413 C 0.12444 0.00527 0.59975 0.0
C414 C 0.19905 0.99896 0.5935 0.0
C415 C 0.23653 0.96764 0.65018 0.0
C416 C 0.21874 0.98544 0.63537 0.0
C417 C 0.15247 0.01776 0.59229 0.0
C418 C 0.17747 0.01009 0.60687 0.0
H419 H 0.22834 0.91645 0.6978 0.0
H420 H 0.20202 0.94997 0.67674 0.0
H421 H 0.23457 0.9765 0.59671 0.0
H422 H 0.1352 0.05758 0.54054 0.0
H423 H 0.17754 0.04634 0.56451 0.0
C424 C 0.68769 0.44999 0.97033 0.0
C425 C 0.66937 0.46963 0.97604 0.0
C426 C 0.71763 0.45879 0.96998 0.0
C427 C 0.77525 0.51762 0.95843 0.0
H428 H 0.81951 0.48495 0.01145 0.0
C429 C 0.8947 0.565 0.98028 0.0
C430 C 0.91306 0.5469 0.98968 0.0
C431 C 0.86523 0.55466 0.9766 0.0
C432 C 0.80773 0.49389 0.99609 0.0
H433 H 0.66859 0.51422 0.98531 0.0
H434 H 0.72085 0.52967 0.98334 0.0
H435 H 0.76759 0.46837 0.00777 0.0
H436 H 0.91538 0.50356 0.0015 0.0
H437 H 0.86433 0.48503 0.99371 0.0
H438 H 0.81518 0.54247 0.94597 0.0
C439 C 0.71175 0.50741 0.97948 0.0
C440 C 0.77793 0.4845 0.99419 0.0
C441 C 0.68183 0.49852 0.98044 0.0
C442 C 0.90161 0.51805 0.9945 0.0
C443 C 0.87226 0.50752 0.99022 0.0
C444 C 0.80518 0.52658 0.95988 0.0
C445 C 0.72984 0.48753 0.97464 0.0
C446 C 0.76147 0.49654 0.97557 0.0
C447 C 0.85352 0.5258 0.98167 0.0
C448 C 0.82183 0.51511 0.97898 0.0
H449 H 0.679 0.42774 0.96611 0.0
H450 H 0.73128 0.44318 0.96599 0.0
H451 H 0.76286 0.52701 0.9438 0.0
H452 H 0.90293 0.58743 0.97662 0.0
H453 H 0.85158 0.56962 0.97051 0.0
C454 C 0.82308 0.62319 0.47356 0.0
C455 C 0.83542 0.65172 0.468 0.0
C456 C 0.80242 0.6169 0.49328 0.0
C457 C 0.74828 0.65199 0.52576 0.0
H458 H 0.7289 0.57836 0.56019 0.0
C459 C 0.63931 0.61702 0.57746 0.0
C460 C 0.62407 0.59124 0.56687 0.0
C461 C 0.66889 0.62524 0.57284 0.0
C462 C 0.73424 0.59913 0.5509 0.0
H463 H 0.83728 0.69585 0.48053 0.0
H464 H 0.80275 0.68473 0.51576 0.0
H465 H 0.77599 0.59187 0.53946 0.0
H466 H 0.6281 0.5531 0.54455 0.0
H467 H 0.67961 0.56733 0.53676 0.0
H468 H 0.70629 0.65892 0.53672 0.0
C469 C 0.80819 0.66724 0.50422 0.0
C470 C 0.7611 0.60682 0.53889 0.0
C471 C 0.82845 0.67358 0.48421 0.0
C472 C 0.6392 0.57323 0.55275 0.0
C473 C 0.66876 0.58121 0.54852 0.0
C474 C 0.72164 0.64445 0.53806 0.0
C475 C 0.79393 0.63897 0.50821 0.0
C476 C 0.76803 0.63292 0.52531 0.0
C477 C 0.68377 0.60755 0.55803 0.0
C478 C 0.71397 0.61756 0.54991 0.0
H479 H 0.82842 0.60574 0.46189 0.0
H480 H 0.79191 0.59485 0.49562 0.0
H481 H 0.7525 0.67205 0.51519 0.0
H482 H 0.62821 0.6313 0.58846 0.0
H483 H 0.68004 0.64566 0.58038 0.0
C484 C 0.12453 0.32262 0.14373 0.0
C485 C 0.15486 0.32881 0.1445 0.0
C486 C 0.10898 0.33843 0.12748 0.0
C487 C 0.11547 0.38778 0.07041 0.0
H488 H 0.05643 0.42098 0.1056 0.0
C489 C 0.07756 0.48923 0.03203 0.0
C490 C 0.04893 0.49285 0.03628 0.0
C491 C 0.08773 0.46554 0.04228 0.0
C492 C 0.07239 0.4115 0.09519 0.0
H493 H 0.19272 0.35514 0.12783 0.0
H494 H 0.16569 0.38249 0.09934 0.0
H495 H 0.0788 0.38524 0.12824 0.0
H496 H 0.0082 0.47357 0.05372 0.0
H497 H 0.02575 0.4319 0.07105 0.0
H498 H 0.10935 0.4142 0.03745 0.0
C499 C 0.15385 0.36557 0.1113 0.0
C500 C 0.08526 0.39099 0.10824 0.0
C501 C 0.16934 0.35005 0.12774 0.0
C502 C 0.03044 0.4716 0.05022 0.0
C503 C 0.04057 0.44776 0.06032 0.0
C504 C 0.10244 0.40811 0.05726 0.0
C505 C 0.1235 0.3604 0.1114 0.0
C506 C 0.10738 0.37936 0.09622 0.0
C507 C 0.06951 0.44466 0.0569 0.0
C508 C 0.08118 0.42075 0.0697 0.0
H509 H 0.11285 0.30644 0.15654 0.0
H510 H 0.0856 0.33383 0.12782 0.0
H511 H 0.1322 0.37892 0.0605 0.0
H512 H 0.09248 0.5052 0.02149 0.0
H513 H 0.11024 0.46421 0.03954 0.0
C514 C 0.56142 0.37694 0.98441 0.0
C515 C 0.58483 0.39327 0.99815 0.0
C516 C 0.55226 0.34806 0.99033 0.0
C517 C 0.55812 0.29276 0.04079 0.0
H518 H 0.53942 0.24041 0.98168 0.0
C519 C 0.55044 0.17096 0.05112 0.0
C520 C 0.52645 0.15349 0.03919 0.0
C521 C 0.55644 0.2003 0.04611 0.0
C522 C 0.5443 0.25481 0.99839 0.0
H523 H 0.61615 0.39233 0.02968 0.0
H524 H 0.60079 0.34178 0.03946 0.0
H525 H 0.55122 0.29177 0.9737 0.0
H526 H 0.49031 0.15312 0.01215 0.0
H527 H 0.50103 0.20443 0.00324 0.0
H528 H 0.55181 0.25563 0.06537 0.0
C529 C 0.58925 0.35134 0.0243 0.0
C530 C 0.55097 0.28424 0.99386 0.0
C531 C 0.5983 0.38026 0.01848 0.0
C532 C 0.50896 0.16596 0.02168 0.0
C533 C 0.51512 0.19531 0.0165 0.0
C534 C 0.55167 0.26332 0.04528 0.0
C535 C 0.56639 0.33478 0.01003 0.0
C536 C 0.5581 0.30357 0.015 0.0
C537 C 0.53874 0.2128 0.0289 0.0
C538 C 0.54486 0.24405 0.02412 0.0
H539 H 0.55073 0.38619 0.96845 0.0
H540 H 0.53429 0.33606 0.97924 0.0
H541 H 0.56303 0.30705 0.05756 0.0
H542 H 0.56439 0.16211 0.06471 0.0
H543 H 0.57502 0.21322 0.05566 0.0
C544 C 0.92836 0.72841 0.43943 0.0
C545 C 0.908 0.72085 0.41899 0.0
C546 C 0.94271 0.75666 0.44233 0.0
C547 C 0.92947 0.8287 0.42772 0.0
H548 H 0.00558 0.8524 0.45892 0.0
C549 C 0.97209 0.94607 0.45706 0.0
C550 C 0.98494 0.95028 0.48227 0.0
C551 C 0.96628 0.91877 0.44571 0.0
C552 C 0.98425 0.84606 0.45026 0.0
H553 H 0.88846 0.73658 0.38434 0.0
H554 H 0.9142 0.78561 0.3889 0.0
H555 H 0.99053 0.80295 0.44398 0.0
H556 H 0.00223 0.92907 0.51507 0.0
H557 H 0.99175 0.88147 0.49537 0.0
H558 H 0.92287 0.87149 0.43455 0.0
C559 C 0.91855 0.76984 0.40307 0.0
C560 C 0.97565 0.81778 0.44167 0.0
C561 C 0.90408 0.74162 0.40025 0.0
C562 C 0.99226 0.92662 0.49566 0.0
C563 C 0.9865 0.89935 0.48427 0.0
C564 C 0.93809 0.85693 0.43621 0.0
C565 C 0.93711 0.77792 0.42476 0.0
C566 C 0.94795 0.80864 0.43075 0.0
C567 C 0.97324 0.89508 0.45926 0.0
C568 C 0.96535 0.8658 0.44803 0.0
H569 H 0.93215 0.71277 0.45397 0.0
H570 H 0.9568 0.7621 0.45931 0.0
H571 H 0.90777 0.82231 0.41989 0.0
H572 H 0.96633 0.96382 0.44611 0.0
H573 H 0.9563 0.91621 0.4263 0.0
C574 C 0.42081 0.85107 0.66909 0.0
C575 C 0.41602 0.85159 0.69639 0.0
C576 C 0.43417 0.82985 0.65794 0.0
C577 C 0.4397 0.75582 0.66749 0.0
H578 H 0.50282 0.76873 0.61776 0.0
C579 C 0.46688 0.66723 0.59942 0.0
C580 C 0.49532 0.66203 0.60171 0.0
C581 C 0.45929 0.69177 0.61056 0.0
C582 C 0.48523 0.76491 0.63167 0.0
H583 H 0.42186 0.83075 0.73351 0.0
H584 H 0.44467 0.79323 0.71392 0.0
H585 H 0.4867 0.80979 0.63889 0.0
H586 H 0.53834 0.6792 0.61655 0.0
H587 H 0.52509 0.72269 0.63536 0.0
H588 H 0.43754 0.71109 0.65972 0.0
C589 C 0.4384 0.80946 0.70124 0.0
C590 C 0.47599 0.7883 0.64365 0.0
C591 C 0.42555 0.83099 0.71244 0.0
C592 C 0.51625 0.68256 0.61449 0.0
C593 C 0.50873 0.70745 0.62519 0.0
C594 C 0.44851 0.73254 0.65512 0.0
C595 C 0.44243 0.80844 0.67385 0.0
C596 C 0.45316 0.78393 0.6617 0.0
C597 C 0.48004 0.71194 0.62378 0.0
C598 C 0.4713 0.73685 0.63707 0.0
H599 H 0.41362 0.86672 0.65631 0.0
H600 H 0.43688 0.82942 0.63676 0.0
H601 H 0.42188 0.75188 0.68115 0.0
H602 H 0.45019 0.65184 0.58983 0.0
H603 H 0.43706 0.69487 0.60908 0.0
C604 C 0.92146 0.9273 0.80906 0.0
C605 C 0.90649 0.94313 0.8258 0.0
C606 C 0.92942 0.93718 0.78379 0.0
C607 C 0.94053 0.00149 0.74147 0.0
H608 H 0.92711 0.94571 0.68462 0.0
C609 C 0.95324 0.03405 0.63154 0.0
C610 C 0.96696 0.01663 0.61524 0.0
C611 C 0.94513 0.02545 0.65719 0.0
C612 C 0.93128 0.96153 0.70027 0.0
H613 H 0.88913 0.9823 0.82941 0.0
H614 H 0.90285 0.99946 0.78514 0.0
H615 H 0.9158 0.93056 0.72973 0.0
H616 H 0.98258 0.97631 0.61319 0.0
H617 H 0.96872 0.96158 0.65778 0.0
H618 H 0.95618 0.03244 0.71197 0.0
C619 C 0.9085 0.97944 0.79164 0.0
C620 C 0.92483 0.95282 0.72616 0.0
C621 C 0.90045 0.96951 0.81692 0.0
C622 C 0.97195 0.99026 0.62509 0.0
C623 C 0.96387 0.9817 0.65069 0.0
C624 C 0.94707 0.0102 0.71554 0.0
C625 C 0.92265 0.96315 0.77461 0.0
C626 C 0.92951 0.97265 0.7471 0.0
C627 C 0.95051 0.99925 0.66713 0.0
C628 C 0.94266 0.99028 0.69463 0.0
H629 H 0.92617 0.90675 0.81514 0.0
H630 H 0.94066 0.92431 0.7713 0.0
H631 H 0.94463 0.01725 0.75718 0.0
H632 H 0.94902 0.05447 0.62461 0.0
H633 H 0.93453 0.03932 0.66921 0.0
C634 C 0.58793 0.13547 0.36657 0.0
C635 C 0.61642 0.14981 0.37091 0.0
C636 C 0.57767 0.12838 0.341 0.0
C637 C 0.59162 0.14481 0.27045 0.0
H638 H 0.54768 0.06839 0.25949 0.0
C639 C 0.56387 0.09691 0.16619 0.0
C640 C 0.53626 0.08029 0.16222 0.0
C641 C 0.57347 0.10605 0.19154 0.0
C642 C 0.55959 0.08993 0.26222 0.0
H643 H 0.65612 0.16885 0.35166 0.0
H644 H 0.6383 0.15621 0.30699 0.0
H645 H 0.56424 0.08386 0.30373 0.0
H646 H 0.49705 0.06045 0.18193 0.0
H647 H 0.51364 0.07666 0.22594 0.0
H648 H 0.58695 0.15087 0.22888 0.0
C649 C 0.62385 0.15056 0.32339 0.0
C650 C 0.56909 0.09881 0.28762 0.0
C651 C 0.63415 0.15759 0.34899 0.0
C652 C 0.51851 0.07308 0.18422 0.0
C653 C 0.52808 0.08226 0.20953 0.0
C654 C 0.58205 0.13595 0.24502 0.0
C655 C 0.59562 0.13549 0.31911 0.0
C656 C 0.58522 0.12635 0.29206 0.0
C657 C 0.55569 0.09884 0.21354 0.0
C658 C 0.56591 0.10838 0.24058 0.0
H659 H 0.57379 0.12888 0.383 0.0
H660 H 0.55569 0.1171 0.33838 0.0
H661 H 0.60371 0.16627 0.27323 0.0
H662 H 0.57817 0.10282 0.14974 0.0
H663 H 0.595 0.11845 0.19393 0.0
C664 C 0.43726 0.60145 0.27285 0.0
C665 C 0.45448 0.5901 0.25454 0.0
C666 C 0.44443 0.6025 0.2997 0.0
C667 C 0.48487 0.56772 0.34861 0.0
H668 H 0.47496 0.63154 0.39342 0.0
C669 C 0.52026 0.57331 0.45755 0.0
C670 C 0.50085 0.58138 0.47582 0.0
C671 C 0.51601 0.57652 0.43052 0.0
C672 C 0.47761 0.61348 0.38118 0.0
H673 H 0.49334 0.57204 0.24988 0.0
H674 H 0.50595 0.574 0.29672 0.0
H675 H 0.46528 0.63346 0.34607 0.0
H676 H 0.46213 0.59989 0.47992 0.0
H677 H 0.45461 0.60525 0.43263 0.0
H678 H 0.49695 0.5476 0.38361 0.0
C679 C 0.48659 0.58158 0.29039 0.0
C680 C 0.47208 0.61457 0.35407 0.0
C681 C 0.4794 0.58048 0.26357 0.0
C682 C 0.4775 0.59344 0.46641 0.0
C683 C 0.47325 0.59666 0.43931 0.0
C684 C 0.49042 0.56664 0.37564 0.0
C685 C 0.46898 0.59226 0.30881 0.0
C686 C 0.4756 0.59166 0.33749 0.0
C687 C 0.49226 0.58785 0.42106 0.0
C688 C 0.48682 0.58947 0.39225 0.0
H689 H 0.41772 0.60869 0.26655 0.0
H690 H 0.4302 0.61051 0.31339 0.0
H691 H 0.48725 0.54946 0.33649 0.0
H692 H 0.5386 0.56413 0.46406 0.0
H693 H 0.53132 0.56999 0.41698 0.0
C694 C 0.05845 0.5077 0.71315 0.0
C695 C 0.04687 0.52489 0.69481 0.0
C696 C 0.06129 0.51544 0.73975 0.0
C697 C 0.05976 0.57624 0.78614 0.0
H698 H 0.04308 0.51524 0.83747 0.0
C699 C 0.03014 0.59278 0.89469 0.0
C700 C 0.04338 0.57827 0.91412 0.0
C701 C 0.0343 0.58788 0.86797 0.0
C702 C 0.04816 0.53246 0.82337 0.0
H703 H 0.0297 0.56412 0.69025 0.0
H704 H 0.03324 0.57684 0.73682 0.0
H705 H 0.0425 0.50348 0.7907 0.0
H706 H 0.07182 0.54764 0.92076 0.0
H707 H 0.07859 0.53862 0.87386 0.0
H708 H 0.06407 0.60519 0.81909 0.0
C709 C 0.04083 0.55769 0.73053 0.0
C710 C 0.04793 0.52576 0.79653 0.0
C711 C 0.03836 0.55015 0.70381 0.0
C712 C 0.06135 0.55915 0.90625 0.0
C713 C 0.06514 0.5539 0.87947 0.0
C714 C 0.05958 0.58293 0.81301 0.0
C715 C 0.05217 0.54033 0.74888 0.0
C716 C 0.05357 0.54756 0.77752 0.0
C717 C 0.05145 0.56806 0.86012 0.0
C718 C 0.05362 0.56109 0.83183 0.0
H719 H 0.06481 0.48784 0.70714 0.0
H720 H 0.07056 0.50175 0.75316 0.0
H721 H 0.06474 0.59357 0.77216 0.0
H722 H 0.0163 0.60777 0.90013 0.0
H723 H 0.02332 0.5989 0.85344 0.0
C724 C 0.74753 0.92183 0.94899 0.0
C725 C 0.77058 0.93757 0.93496 0.0
C726 C 0.73279 0.93521 0.96766 0.0
C727 C 0.71427 0.0053 0.9817 0.0
H728 H 0.67738 0.96523 0.0423 0.0
C729 C 0.62434 0.04632 0.04094 0.0
C730 C 0.59935 0.02533 0.04344 0.0
C731 C 0.65031 0.03874 0.03257 0.0
C732 C 0.68766 0.97678 0.02553 0.0
H733 H 0.79729 0.97938 0.93041 0.0
H734 H 0.77155 0.00291 0.96333 0.0
H735 H 0.71527 0.94613 0.01946 0.0
H736 H 0.58233 0.97984 0.0401 0.0
H737 H 0.62735 0.96674 0.02585 0.0
H738 H 0.68586 0.03541 0.98732 0.0
C739 C 0.76475 0.98021 0.95967 0.0
C740 C 0.70932 0.96583 0.01241 0.0
C741 C 0.77964 0.96672 0.94102 0.0
C742 C 0.60111 0.99659 0.03824 0.0
C743 C 0.62701 0.98902 0.0303 0.0
C744 C 0.69266 0.01634 0.99493 0.0
C745 C 0.74071 0.96472 0.97275 0.0
C746 C 0.7221 0.97934 0.98972 0.0
C747 C 0.65183 0.00998 0.02708 0.0
C748 C 0.67839 0.00158 0.01636 0.0
H749 H 0.74023 0.89928 0.94486 0.0
H750 H 0.71422 0.92263 0.97708 0.0
H751 H 0.72349 0.01615 0.96418 0.0
H752 H 0.62365 0.06864 0.04479 0.0
H753 H 0.66914 0.05533 0.03027 0.0
C754 C 0.70262 0.11853 0.42521 0.0
C755 C 0.69356 0.1416 0.43818 0.0
C756 C 0.72893 0.11041 0.4318 0.0
C757 C 0.79903 0.13662 0.46623 0.0
H758 H 0.80517 0.05622 0.46523 0.0
C759 C 0.89627 0.09422 0.51134 0.0
C760 C 0.90858 0.07494 0.4959 0.0
C761 C 0.87013 0.10209 0.50385 0.0
C762 C 0.80382 0.07876 0.46537 0.0
H763 H 0.70542 0.1742 0.46835 0.0
H764 H 0.7506 0.15932 0.4806 0.0
H765 H 0.75935 0.07047 0.45355 0.0
H766 H 0.9027 0.04847 0.46063 0.0
H767 H 0.85667 0.06196 0.44776 0.0
H768 H 0.84338 0.14471 0.47874 0.0
C769 C 0.73769 0.14787 0.46485 0.0
C770 C 0.77759 0.087 0.45859 0.0
C771 C 0.71149 0.15618 0.45807 0.0
C772 C 0.89386 0.0634 0.47295 0.0
C773 C 0.86745 0.07101 0.46563 0.0
C774 C 0.82513 0.12834 0.4733 0.0
C775 C 0.74682 0.1249 0.45176 0.0
C776 C 0.77481 0.11606 0.45893 0.0
C777 C 0.85545 0.09063 0.48091 0.0
C778 C 0.82781 0.09933 0.47297 0.0
H779 H 0.68923 0.10641 0.41012 0.0
H780 H 0.73531 0.09286 0.42101 0.0
H781 H 0.79799 0.15922 0.46622 0.0
H782 H 0.907 0.10359 0.52912 0.0
H783 H 0.86125 0.11702 0.51616 0.0
C784 C 0.34401 0.64175 0.10714 0.0
C785 C 0.34672 0.63831 0.13444 0.0
C786 C 0.31675 0.63996 0.09546 0.0
C787 C 0.23789 0.61834 0.10864 0.0
H788 H 0.23103 0.6691 0.04995 0.0
C789 C 0.12825 0.63823 0.06846 0.0
C790 C 0.12353 0.6301 0.04187 0.0
C791 C 0.15595 0.6415 0.07954 0.0
C792 C 0.23274 0.65487 0.06633 0.0
H793 H 0.32367 0.63019 0.17107 0.0
H794 H 0.27599 0.62812 0.15103 0.0
H795 H 0.27833 0.66864 0.06993 0.0
H796 H 0.14424 0.62087 0.00561 0.0
H797 H 0.19289 0.6276 0.02487 0.0
H798 H 0.19197 0.60544 0.10541 0.0
C799 C 0.29462 0.63124 0.13832 0.0
C800 C 0.25983 0.65432 0.07765 0.0
C801 C 0.32189 0.63247 0.14989 0.0
C802 C 0.14727 0.62709 0.02617 0.0
C803 C 0.17505 0.63097 0.03713 0.0
C804 C 0.21077 0.61935 0.09765 0.0
C805 C 0.2917 0.63538 0.11097 0.0
C806 C 0.26281 0.63589 0.09886 0.0
C807 C 0.17943 0.63733 0.06406 0.0
C808 C 0.20802 0.63751 0.07636 0.0
H809 H 0.36304 0.64633 0.09494 0.0
H810 H 0.31541 0.64252 0.0743 0.0
H811 H 0.23928 0.60348 0.12455 0.0
H812 H 0.11034 0.64052 0.08108 0.0
H813 H 0.15895 0.64658 0.10034 0.0
C814 C 0.17243 0.50095 0.60172 0.0
C815 C 0.15908 0.4745 0.61192 0.0
C816 C 0.20256 0.50812 0.60105 0.0
C817 C 0.26692 0.47359 0.60075 0.0
H818 H 0.30835 0.55107 0.61119 0.0
C819 C 0.3918 0.50302 0.60031 0.0
C820 C 0.40347 0.52769 0.58608 0.0
C821 C 0.36209 0.49635 0.60489 0.0
C822 C 0.29702 0.52936 0.60806 0.0
H823 H 0.1665 0.4356 0.63097 0.0
H824 H 0.21901 0.44827 0.63027 0.0
H825 H 0.25624 0.54048 0.61777 0.0
H826 H 0.39292 0.5645 0.56526 0.0
H827 H 0.34132 0.55275 0.57317 0.0
H828 H 0.30772 0.46252 0.59099 0.0
C829 C 0.20635 0.46315 0.62206 0.0
C830 C 0.26719 0.52331 0.6118 0.0
C831 C 0.17631 0.45594 0.62257 0.0
C832 C 0.38474 0.54533 0.57633 0.0
C833 C 0.35515 0.53876 0.58103 0.0
C834 C 0.29676 0.47963 0.59714 0.0
C835 C 0.21985 0.48902 0.61076 0.0
C836 C 0.25175 0.49539 0.60799 0.0
C837 C 0.34353 0.51431 0.59548 0.0
C838 C 0.31207 0.50762 0.60051 0.0
H839 H 0.1596 0.51554 0.59327 0.0
H840 H 0.21226 0.52812 0.592 0.0
H841 H 0.25564 0.45195 0.59719 0.0
H842 H 0.4056 0.489 0.60813 0.0
H843 H 0.35372 0.47742 0.61621 0.0
C844 C 0.91693 0.88175 0.93299 0.0
C845 C 0.91704 0.88297 0.90527 0.0
C846 C 0.93094 0.8622 0.94634 0.0
C847 C 0.98382 0.81302 0.93615 0.0
H848 H 0.9441 0.77096 0.99448 0.0
C849 C 0.99788 0.69945 0.96415 0.0
C850 C 0.00127 0.6929 0.99089 0.0
C851 C 0.99176 0.72602 0.95673 0.0
C852 C 0.95569 0.78285 0.97851 0.0
H853 H 0.93162 0.8643 0.8699 0.0
H854 H 0.95553 0.83024 0.89292 0.0
H855 H 0.92541 0.81149 0.97578 0.0
H856 H 0.00114 0.70923 0.03086 0.0
H857 H 0.98956 0.75578 0.01778 0.0
H858 H 0.01315 0.78333 0.93803 0.0
C859 C 0.94546 0.84485 0.90454 0.0
C860 C 0.94504 0.80614 0.96779 0.0
C861 C 0.93167 0.86442 0.89127 0.0
C862 C 0.99875 0.71373 0.0101 0.0
C863 C 0.99201 0.74025 0.00265 0.0
C864 C 0.99422 0.78959 0.94665 0.0
C865 C 0.94519 0.84331 0.93226 0.0
C866 C 0.95854 0.82105 0.94599 0.0
C867 C 0.98841 0.74657 0.97587 0.0
C868 C 0.97987 0.77385 0.96751 0.0
H869 H 0.90597 0.89587 0.94433 0.0
H870 H 0.93052 0.86185 0.96769 0.0
H871 H 0.99526 0.82442 0.91986 0.0
H872 H 0.9998 0.68392 0.94887 0.0
H873 H 0.98881 0.73018 0.93597 0.0
C874 C 0.4292 0.72811 0.17754 0.0
C875 C 0.43375 0.70819 0.15826 0.0
C876 C 0.43753 0.75744 0.17293 0.0
C877 C 0.44541 0.80537 0.11639 0.0
H878 H 0.4771 0.86477 0.1666 0.0
C879 C 0.47929 0.92177 0.08473 0.0
C880 C 0.47276 0.94357 0.10121 0.0
C881 C 0.47514 0.89351 0.09326 0.0
C882 C 0.46791 0.84839 0.15251 0.0
H883 H 0.45172 0.70256 0.11994 0.0
H884 H 0.467 0.75378 0.11203 0.0
H885 H 0.47173 0.81433 0.17936 0.0
H886 H 0.45661 0.95262 0.1397 0.0
H887 H 0.44898 0.9028 0.15455 0.0
H888 H 0.44118 0.83905 0.08965 0.0
C889 C 0.45673 0.74694 0.13054 0.0
C890 C 0.46499 0.81958 0.15976 0.0
C891 C 0.44836 0.7177 0.13513 0.0
C892 C 0.46178 0.93633 0.12649 0.0
C893 C 0.45763 0.90787 0.13507 0.0
C894 C 0.44823 0.83401 0.10921 0.0
C895 C 0.45031 0.76712 0.14889 0.0
C896 C 0.45401 0.79779 0.14162 0.0
C897 C 0.46424 0.88618 0.11848 0.0
C898 C 0.4598 0.85586 0.12704 0.0
H899 H 0.41747 0.72105 0.19531 0.0
H900 H 0.43217 0.77248 0.18736 0.0
H901 H 0.43608 0.78911 0.10223 0.0
H902 H 0.48792 0.92649 0.06519 0.0
H903 H 0.48089 0.87741 0.08015 0.0
C904 C 0.05358 0.38071 0.60376 0.0
C905 C 0.07517 0.39839 0.58947 0.0
C906 C 0.04635 0.35151 0.59789 0.0
C907 C 0.07976 0.29413 0.57161 0.0
H908 H 0.00195 0.25041 0.56779 0.0
C909 C 0.05708 0.17518 0.54168 0.0
C910 C 0.0342 0.15702 0.55392 0.0
C911 C 0.06151 0.20468 0.54607 0.0
C912 C 0.02383 0.26225 0.56919 0.0
H913 H 0.10449 0.39982 0.55655 0.0
H914 H 0.09211 0.34878 0.54656 0.0
H915 H 0.00928 0.30225 0.5741 0.0
H916 H 0.9986 0.15548 0.58107 0.0
H917 H 0.00691 0.20687 0.58938 0.0
H918 H 0.09449 0.25436 0.56739 0.0
C919 C 0.08113 0.35745 0.56253 0.0
C920 C 0.02796 0.29192 0.57265 0.0
C921 C 0.08819 0.38661 0.56826 0.0
C922 C 0.01633 0.16892 0.57122 0.0
C923 C 0.02094 0.19841 0.57581 0.0
C924 C 0.07565 0.2645 0.56843 0.0
C925 C 0.06071 0.3395 0.57773 0.0
C926 C 0.05597 0.30813 0.57373 0.0
C927 C 0.04337 0.21669 0.56303 0.0
C928 C 0.04765 0.24818 0.56705 0.0
H929 H 0.04335 0.38909 0.62037 0.0
H930 H 0.0306 0.33808 0.60997 0.0
H931 H 0.10161 0.30608 0.5729 0.0
H932 H 0.0711 0.16675 0.52806 0.0
H933 H 0.07874 0.21812 0.53559 0.0
C934 C 0.56991 0.24244 0.52408 0.0
C935 C 0.57397 0.23457 0.49778 0.0
C936 C 0.56439 0.26963 0.53027 0.0
C937 C 0.5399 0.33277 0.50005 0.0
H938 H 0.56814 0.36923 0.56615 0.0
C939 C 0.53563 0.45102 0.52568 0.0
C940 C 0.52592 0.45658 0.55102 0.0
C941 C 0.54071 0.42379 0.51895 0.0
C942 C 0.55989 0.35918 0.54773 0.0
H943 H 0.57591 0.24976 0.4574 0.0
H944 H 0.5676 0.29762 0.46831 0.0
H945 H 0.58015 0.32295 0.55449 0.0
H946 H 0.51376 0.43772 0.58908 0.0
H947 H 0.52311 0.39016 0.57739 0.0
H948 H 0.52034 0.36961 0.49311 0.0
C949 C 0.56789 0.28242 0.48414 0.0
C950 C 0.5667 0.33258 0.54102 0.0
C951 C 0.57311 0.25503 0.47789 0.0
C952 C 0.52117 0.43415 0.5694 0.0
C953 C 0.52669 0.40698 0.56277 0.0
C954 C 0.53343 0.35957 0.50662 0.0
C955 C 0.56318 0.29003 0.51041 0.0
C956 C 0.55667 0.31888 0.51715 0.0
C957 C 0.5366 0.40155 0.53749 0.0
C958 C 0.54323 0.37299 0.53059 0.0
H959 H 0.57095 0.22755 0.54005 0.0
H960 H 0.56055 0.27441 0.55069 0.0
H961 H 0.5313 0.32277 0.48174 0.0
H962 H 0.53943 0.46777 0.51101 0.0
H963 H 0.54852 0.42029 0.49939 0.0
loop_
_geom_bond_atom_site_label_1
_geom_bond_atom_site_label_2
_geom_bond_distance
_geom_bond_site_symmetry_2
_ccdc_geom_bond_type
H0 C1 0.949 . S
C1 H0 0.949 . S
C1 C2 1.395 . S
C1 C3 1.391 . S
C2 C1 1.395 . S
C2 C5 1.390 . S
C3 C1 1.391 . S
C3 C7 1.387 . S
C3 C8 1.491 . S
H4 C5 0.950 . S
C5 C2 1.390 . S
C5 H4 0.950 . S
C5 C6 1.378 . S
C6 C5 1.378 . S
C6 C7 1.409 . S
C7 C3 1.387 . S
C7 C6 1.409 . S
C7 H9 0.951 . S
C8 C3 1.491 . S
C8 C10 1.382 . S
C8 C12 1.404 . S
H9 C7 0.951 . S
C10 C8 1.382 . S
C10 C11 1.390 . S
C10 H15 0.949 . S
C11 C10 1.390 . S
C11 C16 1.399 . S
C12 C8 1.404 . S
C12 H13 0.950 . S
C12 C14 1.375 . S
H13 C12 0.950 . S
C14 C12 1.375 . S
C14 C16 1.382 . S
C14 H18 0.950 . S
H15 C10 0.949 . S
C16 C11 1.399 . S
C16 C14 1.382 . S
C16 H17 0.952 . S
H17 C16 0.952 . S
H18 C14 0.950 . S
H19 C20 0.949 . S
C20 H19 0.949 . S
C20 C21 1.395 . S
C20 C22 1.391 . S
C21 C20 1.395 . S
C21 C24 1.390 . S
C22 C20 1.391 . S
C22 C26 1.387 . S
C22 C27 1.491 . S
H23 C24 0.950 . S
C24 C21 1.390 . S
C24 H23 0.950 . S
C24 C25 1.378 . S
C25 C24 1.378 . S
C25 C26 1.409 . S
C26 C22 1.387 . S
C26 C25 1.409 . S
C26 H28 0.951 . S
C27 C22 1.491 . S
C27 C29 1.382 . S
C27 C31 1.404 . S
H28 C26 0.951 . S
C29 C27 1.382 . S
C29 C30 1.390 . S
C29 H34 0.949 . S
C30 C29 1.390 . S
C30 C35 1.399 . S
C31 C27 1.404 . S
C31 H32 0.950 . S
C31 C33 1.375 . S
H32 C31 0.950 . S
C33 C31 1.375 . S
C33 C35 1.382 . S
C33 H37 0.950 . S
H34 C29 0.949 . S
C35 C30 1.399 . S
C35 C33 1.382 . S
C35 H36 0.952 . S
H36 C35 0.952 . S
H37 C33 0.950 . S
H38 C39 0.949 . S
C39 H38 0.949 . S
C39 C40 1.395 . S
C39 C41 1.391 . S
C40 C39 1.395 . S
C40 C43 1.390 . S
C41 C39 1.391 . S
C41 C45 1.387 . S
C41 C46 1.491 . S
H42 C43 0.950 . S
C43 C40 1.390 . S
C43 H42 0.950 . S
C43 C44 1.378 . S
C44 C43 1.378 . S
C44 C45 1.409 . S
C45 C41 1.387 . S
C45 C44 1.409 . S
C45 H47 0.951 . S
C46 C41 1.491 . S
C46 C48 1.382 . S
C46 C50 1.404 . S
H47 C45 0.951 . S
C48 C46 1.382 . S
C48 C49 1.390 . S
C48 H53 0.949 . S
C49 C48 1.390 . S
C49 C54 1.399 . S
C50 C46 1.404 . S
C50 H51 0.950 . S
C50 C52 1.375 . S
H51 C50 0.950 . S
C52 C50 1.375 . S
C52 C54 1.382 . S
C52 H56 0.950 . S
H53 C48 0.949 . S
C54 C49 1.399 . S
C54 C52 1.382 . S
C54 H55 0.952 . S
H55 C54 0.952 . S
H56 C52 0.950 . S
H57 C58 0.949 . S
C58 H57 0.949 . S
C58 C59 1.395 . S
C58 C60 1.391 . S
C59 C58 1.395 . S
C59 C62 1.390 . S
C60 C58 1.391 . S
C60 C64 1.387 . S
C60 C65 1.491 . S
H61 C62 0.950 . S
C62 C59 1.390 . S
C62 H61 0.950 . S
C62 C63 1.378 . S
C63 C62 1.378 . S
C63 C64 1.409 . S
C64 C60 1.387 . S
C64 C63 1.409 . S
C64 H66 0.951 . S
C65 C60 1.491 . S
C65 C67 1.382 . S
C65 C69 1.404 . S
H66 C64 0.951 . S
C67 C65 1.382 . S
C67 C68 1.390 . S
C67 H72 0.949 . S
C68 C67 1.390 . S
C68 C73 1.399 . S
C69 C65 1.404 . S
C69 H70 0.950 . S
C69 C71 1.375 . S
H70 C69 0.950 . S
C71 C69 1.375 . S
C71 C73 1.382 . S
C71 H75 0.950 . S
H72 C67 0.949 . S
C73 C68 1.399 . S
C73 C71 1.382 . S
C73 H74 0.952 . S
H74 C73 0.952 . S
H75 C71 0.950 . S
H76 C77 0.949 . S
C77 H76 0.949 . S
C77 C78 1.395 . S
C77 C79 1.391 . S
C78 C77 1.395 . S
C78 C81 1.390 . S
C79 C77 1.391 . S
C79 C83 1.387 1_565 S
C79 C84 1.491 1_565 S
H80 C81 0.950 . S
C81 C78 1.390 . S
C81 H80 0.950 . S
C81 C82 1.378 . S
C82 C81 1.378 . S
C82 C83 1.409 1_565 S
C83 C79 1.387 1_545 S
C83 C82 1.409 1_545 S
C83 H85 0.951 . S
C84 C79 1.491 1_545 S
C84 C86 1.382 . S
C84 C88 1.404 . S
H85 C83 0.951 . S
C86 C84 1.382 . S
C86 C87 1.390 . S
C86 H91 0.949 . S
C87 C86 1.390 . S
C87 C92 1.399 . S
C88 C84 1.404 . S
C88 H89 0.950 . S
C88 C90 1.375 . S
H89 C88 0.950 . S
C90 C88 1.375 . S
C90 C92 1.382 . S
C90 H94 0.950 . S
H91 C86 0.949 . S
C92 C87 1.399 . S
C92 C90 1.382 . S
C92 H93 0.952 . S
H93 C92 0.952 . S
H94 C90 0.950 . S
H95 C96 0.949 . S
C96 H95 0.949 . S
C96 C97 1.395 . S
C96 C98 1.391 . S
C97 C96 1.395 . S
C97 C100 1.390 . S
C98 C96 1.391 . S
C98 C102 1.387 . S
C98 C103 1.491 . S
H99 C100 0.950 . S
C100 C97 1.390 . S
C100 H99 0.950 . S
C100 C101 1.378 . S
C101 C100 1.378 . S
C101 C102 1.409 . S
C102 C98 1.387 . S
C102 C101 1.409 . S
C102 H104 0.951 . S
C103 C98 1.491 . S
C103 C105 1.382 . S
C103 C107 1.404 . S
H104 C102 0.951 . S
C105 C103 1.382 . S
C105 C106 1.390 . S
C105 H110 0.949 . S
C106 C105 1.390 . S
C106 C111 1.399 . S
C107 C103 1.404 . S
C107 H108 0.950 . S
C107 C109 1.375 . S
H108 C107 0.950 . S
C109 C107 1.375 . S
C109 C111 1.382 . S
C109 H113 0.950 . S
H110 C105 0.949 . S
C111 C106 1.399 . S
C111 C109 1.382 . S
C111 H112 0.952 . S
H112 C111 0.952 . S
H113 C109 0.950 . S
H114 C115 0.949 . S
C115 H114 0.949 . S
C115 C116 1.395 . S
C115 C117 1.391 . S
C116 C115 1.395 . S
C116 C119 1.390 . S
C117 C115 1.391 . S
C117 C121 1.387 . S
C117 C122 1.491 . S
H118 C119 0.950 . S
C119 C116 1.390 . S
C119 H118 0.950 . S
C119 C120 1.378 . S
C120 C119 1.378 . S
C120 C121 1.409 . S
C121 C117 1.387 . S
C121 C120 1.409 . S
C121 H123 0.951 . S
C122 C117 1.491 . S
C122 C124 1.382 . S
C122 C126 1.404 . S
H123 C121 0.951 . S
C124 C122 1.382 . S
C124 C125 1.390 . S
C124 H129 0.949 . S
C125 C124 1.390 . S
C125 C130 1.399 . S
C126 C122 1.404 . S
C126 H127 0.950 . S
C126 C128 1.375 . S
H127 C126 0.950 . S
C128 C126 1.375 . S
C128 C130 1.382 . S
C128 H132 0.950 . S
H129 C124 0.949 . S
C130 C125 1.399 . S
C130 C128 1.382 . S
C130 H131 0.952 . S
H131 C130 0.952 . S
H132 C128 0.950 . S
H133 C134 0.949 . S
C134 H133 0.949 . S
C134 C135 1.395 . S
C134 C136 1.391 . S
C135 C134 1.395 . S
C135 C138 1.390 . S
C136 C134 1.391 . S
C136 C140 1.387 . S
C136 C141 1.491 . S
H137 C138 0.950 . S
C138 C135 1.390 . S
C138 H137 0.950 . S
C138 C139 1.378 . S
C139 C138 1.378 . S
C139 C140 1.409 . S
C140 C136 1.387 . S
C140 C139 1.409 . S
C140 H142 0.951 . S
C141 C136 1.491 . S
C141 C143 1.382 . S
C141 C145 1.404 . S
H142 C140 0.951 . S
C143 C141 1.382 . S
C143 C144 1.390 . S
C143 H148 0.949 . S
C144 C143 1.390 . S
C144 C149 1.399 . S
C145 C141 1.404 . S
C145 H146 0.950 . S
C145 C147 1.375 . S
H146 C145 0.950 . S
C147 C145 1.375 . S
C147 C149 1.382 . S
C147 H151 0.950 . S
H148 C143 0.949 . S
C149 C144 1.399 . S
C149 C147 1.382 . S
C149 H150 0.952 . S
H150 C149 0.952 . S
H151 C147 0.950 . S
O152 Zn153 1.944 1_455 S
O152 C168 1.253 . S
Zn153 O152 1.944 1_655 S
Zn153 O154 1.949 1_655 S
Zn153 O160 1.919 . S
Zn153 O165 1.924 . S
O154 Zn153 1.949 1_455 S
O154 Zn155 1.923 1_455 S
O154 Zn156 1.950 . S
O154 Zn157 1.945 . S
Zn155 O154 1.923 1_655 S
Zn155 O158 1.933 1_545 S
Zn155 O161 1.941 . S
Zn155 O162 1.965 1_655 S
Zn156 O154 1.950 . S
Zn156 O163 1.938 . S
Zn156 O164 1.906 . S
Zn156 O174 1.953 . S
Zn157 O154 1.945 . S
Zn157 O159 1.932 1_445 S
Zn157 O166 1.977 . S
Zn157 O167 1.910 1_455 S
O158 Zn155 1.933 1_565 S
O158 C169 1.226 . S
O159 Zn157 1.932 1_665 S
O159 C169 1.307 . S
O160 Zn153 1.919 . S
O160 C171 1.253 . S
O161 Zn155 1.941 . S
O161 C171 1.283 . S
O162 Zn155 1.965 1_455 S
O162 C170 1.303 . S
O163 Zn156 1.938 . S
O163 C170 1.247 . S
O164 Zn156 1.906 . S
O164 C172 1.304 . S
O165 Zn153 1.924 . S
O165 C173 1.311 . S
O166 Zn157 1.977 . S
O166 C172 1.272 . S
O167 Zn157 1.910 1_655 S
O167 C173 1.231 . S
C168 O152 1.253 . S
C168 O174 1.298 . S
C169 O158 1.226 . S
C169 O159 1.307 . S
C170 O162 1.303 . S
C170 O163 1.247 . S
C171 O160 1.253 . S
C171 O161 1.283 . S
C172 O164 1.304 . S
C172 O166 1.272 . S
C173 O165 1.311 . S
C173 O167 1.231 . S
O174 Zn156 1.953 . S
O174 C168 1.298 . S
O175 Zn176 1.953 . S
O175 C191 1.225 . S
Zn176 O175 1.953 . S
Zn176 O177 1.949 . S
Zn176 O183 1.919 . S
Zn176 O188 1.924 . S
O177 Zn176 1.949 . S
O177 Zn178 1.923 . S
O177 Zn179 1.950 . S
O177 Zn180 1.945 . S
Zn178 O177 1.923 . S
Zn178 O181 1.933 1_545 S
Zn178 O184 1.941 . S
Zn178 O185 1.965 . S
Zn179 O177 1.950 . S
Zn179 O186 1.938 . S
Zn179 O187 1.906 . S
Zn179 O197 1.953 . S
Zn180 O177 1.945 . S
Zn180 O182 1.932 1_545 S
Zn180 O189 1.977 . S
Zn180 O190 1.910 . S
O181 Zn178 1.933 1_565 S
O181 C192 1.226 . S
O182 Zn180 1.932 1_565 S
O182 C192 1.307 . S
O183 Zn176 1.919 . S
O183 C194 1.253 . S
O184 Zn178 1.941 . S
O184 C194 1.283 . S
O185 Zn178 1.965 . S
O185 C193 1.303 . S
O186 Zn179 1.938 . S
O186 C193 1.247 . S
O187 Zn179 1.906 . S
O187 C195 1.304 . S
O188 Zn176 1.924 . S
O188 C196 1.311 . S
O189 Zn180 1.977 . S
O189 C195 1.272 . S
O190 Zn180 1.910 . S
O190 C196 1.231 . S
C191 O175 1.225 . S
C191 O197 1.298 . S
C192 O181 1.226 . S
C192 O182 1.307 . S
C193 O185 1.303 . S
C193 O186 1.247 . S
C194 O183 1.253 . S
C194 O184 1.283 . S
C195 O187 1.304 . S
C195 O189 1.272 . S
C196 O188 1.311 . S
C196 O190 1.231 . S
O197 Zn179 1.953 . S
O197 C191 1.298 . S
O198 Zn199 1.953 . S
O198 C214 1.225 . S
Zn199 O198 1.953 . S
Zn199 O200 1.949 . S
Zn199 O206 1.919 . S
Zn199 O211 1.924 . S
O200 Zn199 1.949 . S
O200 Zn201 1.923 . S
O200 Zn202 1.950 . S
O200 Zn203 1.945 . S
Zn201 O200 1.923 . S
Zn201 O204 1.933 . S
Zn201 O207 1.941 . S
Zn201 O208 1.965 . S
Zn202 O200 1.950 . S
Zn202 O209 1.938 . S
Zn202 O210 1.906 . S
Zn202 O220 1.953 . S
Zn203 O200 1.945 . S
Zn203 O205 1.932 . S
Zn203 O212 1.977 . S
Zn203 O213 1.910 . S
O204 Zn201 1.933 . S
O204 C215 1.226 . S
O205 Zn203 1.932 . S
O205 C215 1.307 . S
O206 Zn199 1.919 . S
O206 C217 1.253 . S
O207 Zn201 1.941 . S
O207 C217 1.283 . S
O208 Zn201 1.965 . S
O208 C216 1.303 . S
O209 Zn202 1.938 . S
O209 C216 1.247 . S
O210 Zn202 1.906 . S
O210 C218 1.304 . S
O211 Zn199 1.924 . S
O211 C219 1.311 . S
O212 Zn203 1.977 . S
O212 C218 1.272 . S
O213 Zn203 1.910 . S
O213 C219 1.231 . S
C214 O198 1.225 . S
C214 O220 1.298 . S
C215 O204 1.226 . S
C215 O205 1.307 . S
C216 O208 1.303 . S
C216 O209 1.247 . S
C217 O206 1.253 . S
C217 O207 1.283 . S
C218 O210 1.304 . S
C218 O212 1.272 . S
C219 O211 1.311 . S
C219 O213 1.231 . S
O220 Zn202 1.953 . S
O220 C214 1.298 . S
O221 Zn222 1.953 . S
O221 C237 1.225 . S
Zn222 O221 1.953 . S
Zn222 O223 1.949 1_655 S
Zn222 O229 1.919 . S
Zn222 O234 1.924 . S
O223 Zn222 1.949 1_455 S
O223 Zn224 1.923 1_554 S
O223 Zn225 1.950 . S
O223 Zn226 1.945 . S
Zn224 O223 1.923 1_556 S
Zn224 O227 1.933 . S
Zn224 O230 1.941 1_455 S
Zn224 O231 1.965 . S
Zn225 O223 1.950 . S
Zn225 O232 1.938 . S
Zn225 O233 1.906 . S
Zn225 O243 1.953 . S
Zn226 O223 1.945 . S
Zn226 O228 1.932 1_554 S
Zn226 O235 1.977 . S
Zn226 O236 1.910 . S
O227 Zn224 1.933 . S
O227 C238 1.226 . S
O228 Zn226 1.932 1_556 S
O228 C238 1.307 . S
O229 Zn222 1.919 . S
O229 C240 1.253 1_554 S
O230 Zn224 1.941 1_655 S
O230 C240 1.283 . S
O231 Zn224 1.965 . S
O231 C239 1.303 1_556 S
O232 Zn225 1.938 . S
O232 C239 1.247 . S
O233 Zn225 1.906 . S
O233 C241 1.304 . S
O234 Zn222 1.924 . S
O234 C242 1.311 1_655 S
O235 Zn226 1.977 . S
O235 C241 1.272 . S
O236 Zn226 1.910 . S
O236 C242 1.231 . S
C237 O221 1.225 . S
C237 O243 1.298 1_655 S
C238 O227 1.226 . S
C238 O228 1.307 . S
C239 O231 1.303 1_554 S
C239 O232 1.247 . S
C240 O229 1.253 1_556 S
C240 O230 1.283 . S
C241 O233 1.304 . S
C241 O235 1.272 . S
C242 O234 1.311 1_455 S
C242 O236 1.231 . S
O243 Zn225 1.953 . S
O243 C237 1.298 1_455 S
C244 C245 1.349 . S
C244 C246 1.327 . S
C244 H269 0.950 . S
C245 C244 1.349 . S
C245 C261 1.349 . S
C246 C244 1.327 . S
C246 C265 1.429 . S
C246 H270 0.950 . S
C247 C264 1.574 . S
C247 C266 1.368 . S
C247 H271 0.949 . S
H248 C252 0.949 . S
C249 C250 1.349 . S
C249 C251 1.327 . S
C249 H272 0.950 . S
C250 C249 1.349 . S
C250 C262 1.349 . S
C251 C249 1.327 . S
C251 C267 1.429 . S
C251 H273 0.950 . S
C252 H248 0.949 . S
C252 C260 1.574 . S
C252 C268 1.368 . S
H253 C261 0.950 . S
H254 C259 0.950 . S
H255 C260 0.949 . S
H256 C262 0.950 . S
H257 C263 0.950 . S
H258 C264 0.949 . S
C259 H254 0.950 . S
C259 C261 1.327 . S
C259 C265 1.429 . S
C260 C252 1.574 . S
C260 H255 0.949 . S
C260 C266 1.368 . S
C261 C245 1.349 . S
C261 H253 0.950 . S
C261 C259 1.327 . S
C262 C250 1.349 . S
C262 H256 0.950 . S
C262 C263 1.327 . S
C263 H257 0.950 . S
C263 C262 1.327 . S
C263 C267 1.429 . S
C264 C247 1.574 . S
C264 H258 0.949 . S
C264 C268 1.368 . S
C265 C246 1.429 . S
C265 C259 1.429 . S
C265 C266 1.523 . S
C266 C247 1.368 . S
C266 C260 1.368 . S
C266 C265 1.523 . S
C267 C251 1.429 . S
C267 C263 1.429 . S
C267 C268 1.523 . S
C268 C252 1.368 . S
C268 C264 1.368 . S
C268 C267 1.523 . S
H269 C244 0.950 . S
H270 C246 0.950 . S
H271 C247 0.949 . S
H272 C249 0.950 . S
H273 C251 0.950 . S
C274 C275 1.349 . S
C274 C276 1.327 . S
C274 H299 0.950 . S
C275 C274 1.349 . S
C275 C291 1.349 . S
C276 C274 1.327 . S
C276 C295 1.429 . S
C276 H300 0.950 . S
C277 C294 1.574 . S
C277 C296 1.368 . S
C277 H301 0.949 . S
H278 C282 0.949 . S
C279 C280 1.349 1_545 S
C279 C281 1.327 . S
C279 H302 0.950 . S
C280 C279 1.349 1_565 S
C280 C292 1.349 . S
C281 C279 1.327 . S
C281 C297 1.429 1_545 S
C281 H303 0.950 . S
C282 H278 0.949 . S
C282 C290 1.574 . S
C282 C298 1.368 . S
H283 C291 0.950 . S
H284 C289 0.950 . S
H285 C290 0.949 . S
H286 C292 0.950 . S
H287 C293 0.950 . S
H288 C294 0.949 1_545 S
C289 H284 0.950 . S
C289 C291 1.327 . S
C289 C295 1.429 . S
C290 C282 1.574 . S
C290 H285 0.949 . S
C290 C296 1.368 . S
C291 C275 1.349 . S
C291 H283 0.950 . S
C291 C289 1.327 . S
C292 C280 1.349 . S
C292 H286 0.950 . S
C292 C293 1.327 . S
C293 H287 0.950 . S
C293 C292 1.327 . S
C293 C297 1.429 . S
C294 C277 1.574 . S
C294 H288 0.949 1_565 S
C294 C298 1.368 . S
C295 C276 1.429 . S
C295 C289 1.429 . S
C295 C296 1.523 . S
C296 C277 1.368 . S
C296 C290 1.368 . S
C296 C295 1.523 . S
C297 C281 1.429 1_565 S
C297 C293 1.429 . S
C297 C298 1.523 . S
C298 C282 1.368 . S
C298 C294 1.368 . S
C298 C297 1.523 . S
H299 C274 0.950 . S
H300 C276 0.950 . S
H301 C277 0.949 . S
H302 C279 0.950 . S
H303 C281 0.950 . S
C304 C305 1.349 . S
C304 C306 1.327 . S
C304 H329 0.950 . S
C305 C304 1.349 . S
C305 C321 1.349 . S
C306 C304 1.327 . S
C306 C325 1.429 . S
C306 H330 0.950 . S
C307 C324 1.574 . S
C307 C326 1.368 . S
C307 H331 0.949 . S
H308 C312 0.949 . S
C309 C310 1.349 . S
C309 C311 1.327 . S
C309 H332 0.950 . S
C310 C309 1.349 . S
C310 C322 1.349 . S
C311 C309 1.327 . S
C311 C327 1.429 . S
C311 H333 0.950 . S
C312 H308 0.949 . S
C312 C320 1.574 . S
C312 C328 1.368 . S
H313 C321 0.950 . S
H314 C319 0.950 . S
H315 C320 0.949 . S
H316 C322 0.950 . S
H317 C323 0.950 . S
H318 C324 0.949 . S
C319 H314 0.950 . S
C319 C321 1.327 . S
C319 C325 1.429 . S
C320 C312 1.574 . S
C320 H315 0.949 . S
C320 C326 1.368 . S
C321 C305 1.349 . S
C321 H313 0.950 . S
C321 C319 1.327 . S
C322 C310 1.349 . S
C322 H316 0.950 . S
C322 C323 1.327 . S
C323 H317 0.950 . S
C323 C322 1.327 . S
C323 C327 1.429 . S
C324 C307 1.574 . S
C324 H318 0.949 . S
C324 C328 1.368 . S
C325 C306 1.429 . S
C325 C319 1.429 . S
C325 C326 1.523 . S
C326 C307 1.368 . S
C326 C320 1.368 . S
C326 C325 1.523 . S
C327 C311 1.429 . S
C327 C323 1.429 . S
C327 C328 1.523 . S
C328 C312 1.368 . S
C328 C324 1.368 . S
C328 C327 1.523 . S
H329 C304 0.950 . S
H330 C306 0.950 . S
H331 C307 0.949 . S
H332 C309 0.950 . S
H333 C311 0.950 . S
C334 C335 1.349 . S
C334 C336 1.327 . S
C334 H359 0.950 . S
C335 C334 1.349 . S
C335 C351 1.349 . S
C336 C334 1.327 . S
C336 C355 1.429 . S
C336 H360 0.950 . S
C337 C354 1.574 . S
C337 C356 1.368 . S
C337 H361 0.949 . S
H338 C342 0.949 . S
C339 C340 1.349 . S
C339 C341 1.327 . S
C339 H362 0.950 1_655 S
C340 C339 1.349 . S
C340 C352 1.349 . S
C341 C339 1.327 . S
C341 C357 1.429 . S
C341 H363 0.950 . S
C342 H338 0.949 . S
C342 C350 1.574 . S
C342 C358 1.368 . S
H343 C351 0.950 . S
H344 C349 0.950 . S
H345 C350 0.949 . S
H346 C352 0.950 . S
H347 C353 0.950 . S
H348 C354 0.949 . S
C349 H344 0.950 . S
C349 C351 1.327 . S
C349 C355 1.429 . S
C350 C342 1.574 . S
C350 H345 0.949 . S
C350 C356 1.368 . S
C351 C335 1.349 . S
C351 H343 0.950 . S
C351 C349 1.327 . S
C352 C340 1.349 . S
C352 H346 0.950 . S
C352 C353 1.327 . S
C353 H347 0.950 . S
C353 C352 1.327 . S
C353 C357 1.429 . S
C354 C337 1.574 . S
C354 H348 0.949 . S
C354 C358 1.368 . S
C355 C336 1.429 . S
C355 C349 1.429 . S
C355 C356 1.523 . S
C356 C337 1.368 . S
C356 C350 1.368 . S
C356 C355 1.523 . S
C357 C341 1.429 . S
C357 C353 1.429 . S
C357 C358 1.523 . S
C358 C342 1.368 . S
C358 C354 1.368 . S
C358 C357 1.523 . S
H359 C334 0.950 . S
H360 C336 0.950 . S
H361 C337 0.949 . S
H362 C339 0.950 1_455 S
H363 C341 0.950 . S
C364 C365 1.349 . S
C364 C366 1.327 . S
C364 H389 0.950 . S
C365 C364 1.349 . S
C365 C381 1.349 . S
C366 C364 1.327 . S
C366 C385 1.429 . S
C366 H390 0.950 . S
C367 C384 1.574 . S
C367 C386 1.368 . S
C367 H391 0.949 . S
H368 C372 0.949 . S
C369 C370 1.349 . S
C369 C371 1.327 . S
C369 H392 0.950 . S
C370 C369 1.349 . S
C370 C382 1.349 . S
C371 C369 1.327 . S
C371 C387 1.429 . S
C371 H393 0.950 . S
C372 H368 0.949 . S
C372 C380 1.574 . S
C372 C388 1.368 . S
H373 C381 0.950 . S
H374 C379 0.950 . S
H375 C380 0.949 . S
H376 C382 0.950 . S
H377 C383 0.950 . S
H378 C384 0.949 . S
C379 H374 0.950 . S
C379 C381 1.327 . S
C379 C385 1.429 . S
C380 C372 1.574 . S
C380 H375 0.949 . S
C380 C386 1.368 . S
C381 C365 1.349 . S
C381 H373 0.950 . S
C381 C379 1.327 . S
C382 C370 1.349 . S
C382 H376 0.950 . S
C382 C383 1.327 . S
C383 H377 0.950 . S
C383 C382 1.327 . S
C383 C387 1.429 . S
C384 C367 1.574 . S
C384 H378 0.949 . S
C384 C388 1.368 . S
C385 C366 1.429 . S
C385 C379 1.429 . S
C385 C386 1.523 . S
C386 C367 1.368 . S
C386 C380 1.368 . S
C386 C385 1.523 . S
C387 C371 1.429 . S
C387 C383 1.429 . S
C387 C388 1.523 . S
C388 C372 1.368 . S
C388 C384 1.368 . S
C388 C387 1.523 . S
H389 C364 0.950 . S
H390 C366 0.950 . S
H391 C367 0.949 . S
H392 C369 0.950 . S
H393 C371 0.950 . S
C394 C395 1.349 . S
C394 C396 1.327 . S
C394 H419 0.950 . S
C395 C394 1.349 . S
C395 C411 1.349 . S
C396 C394 1.327 . S
C396 C415 1.429 . S
C396 H420 0.950 . S
C397 C414 1.574 . S
C397 C416 1.368 . S
C397 H421 0.949 . S
H398 C402 0.949 . S
C399 C400 1.349 1_565 S
C399 C401 1.327 . S
C399 H422 0.950 . S
C400 C399 1.349 1_545 S
C400 C412 1.349 . S
C401 C399 1.327 . S
C401 C417 1.429 . S
C401 H423 0.950 . S
C402 H398 0.949 . S
C402 C410 1.574 1_545 S
C402 C418 1.368 1_545 S
H403 C411 0.950 . S
H404 C409 0.950 . S
H405 C410 0.949 1_545 S
H406 C412 0.950 . S
H407 C413 0.950 . S
H408 C414 0.949 . S
C409 H404 0.950 . S
C409 C411 1.327 . S
C409 C415 1.429 . S
C410 C402 1.574 1_565 S
C410 H405 0.949 1_565 S
C410 C416 1.368 . S
C411 C395 1.349 . S
C411 H403 0.950 . S
C411 C409 1.327 . S
C412 C400 1.349 . S
C412 H406 0.950 . S
C412 C413 1.327 . S
C413 H407 0.950 . S
C413 C412 1.327 . S
C413 C417 1.429 1_545 S
C414 C397 1.574 . S
C414 H408 0.949 . S
C414 C418 1.368 . S
C415 C396 1.429 . S
C415 C409 1.429 . S
C415 C416 1.523 . S
C416 C397 1.368 . S
C416 C410 1.368 . S
C416 C415 1.523 . S
C417 C401 1.429 . S
C417 C413 1.429 1_565 S
C417 C418 1.523 . S
C418 C402 1.368 1_565 S
C418 C414 1.368 . S
C418 C417 1.523 . S
H419 C394 0.950 . S
H420 C396 0.950 . S
H421 C397 0.949 . S
H422 C399 0.950 . S
H423 C401 0.950 . S
C424 C425 1.349 . S
C424 C426 1.327 . S
C424 H449 0.950 . S
C425 C424 1.349 . S
C425 C441 1.349 . S
C426 C424 1.327 . S
C426 C445 1.429 . S
C426 H450 0.950 . S
C427 C444 1.574 . S
C427 C446 1.368 . S
C427 H451 0.949 . S
H428 C432 0.949 . S
C429 C430 1.349 . S
C429 C431 1.327 . S
C429 H452 0.950 . S
C430 C429 1.349 . S
C430 C442 1.349 . S
C431 C429 1.327 . S
C431 C447 1.429 . S
C431 H453 0.950 . S
C432 H428 0.949 . S
C432 C440 1.574 . S
C432 C448 1.368 . S
H433 C441 0.950 . S
H434 C439 0.950 . S
H435 C440 0.949 . S
H436 C442 0.950 . S
H437 C443 0.950 . S
H438 C444 0.949 . S
C439 H434 0.950 . S
C439 C441 1.327 . S
C439 C445 1.429 . S
C440 C432 1.574 . S
C440 H435 0.949 . S
C440 C446 1.368 . S
C441 C425 1.349 . S
C441 H433 0.950 . S
C441 C439 1.327 . S
C442 C430 1.349 . S
C442 H436 0.950 . S
C442 C443 1.327 . S
C443 H437 0.950 . S
C443 C442 1.327 . S
C443 C447 1.429 . S
C444 C427 1.574 . S
C444 H438 0.949 . S
C444 C448 1.368 . S
C445 C426 1.429 . S
C445 C439 1.429 . S
C445 C446 1.523 . S
C446 C427 1.368 . S
C446 C440 1.368 . S
C446 C445 1.523 . S
C447 C431 1.429 . S
C447 C443 1.429 . S
C447 C448 1.523 . S
C448 C432 1.368 . S
C448 C444 1.368 . S
C448 C447 1.523 . S
H449 C424 0.950 . S
H450 C426 0.950 . S
H451 C427 0.949 . S
H452 C429 0.950 . S
H453 C431 0.950 . S
C454 C455 1.349 . S
C454 C456 1.327 . S
C454 H479 0.950 . S
C455 C454 1.349 . S
C455 C471 1.349 . S
C456 C454 1.327 . S
C456 C475 1.429 . S
C456 H480 0.950 . S
C457 C474 1.574 . S
C457 C476 1.368 . S
C457 H481 0.949 . S
H458 C462 0.949 . S
C459 C460 1.349 . S
C459 C461 1.327 . S
C459 H482 0.950 . S
C460 C459 1.349 . S
C460 C472 1.349 . S
C461 C459 1.327 . S
C461 C477 1.429 . S
C461 H483 0.950 . S
C462 H458 0.949 . S
C462 C470 1.574 . S
C462 C478 1.368 . S
H463 C471 0.950 . S
H464 C469 0.950 . S
H465 C470 0.949 . S
H466 C472 0.950 . S
H467 C473 0.950 . S
H468 C474 0.949 . S
C469 H464 0.950 . S
C469 C471 1.327 . S
C469 C475 1.429 . S
C470 C462 1.574 . S
C470 H465 0.949 . S
C470 C476 1.368 . S
C471 C455 1.349 . S
C471 H463 0.950 . S
C471 C469 1.327 . S
C472 C460 1.349 . S
C472 H466 0.950 . S
C472 C473 1.327 . S
C473 H467 0.950 . S
C473 C472 1.327 . S
C473 C477 1.429 . S
C474 C457 1.574 . S
C474 H468 0.949 . S
C474 C478 1.368 . S
C475 C456 1.429 . S
C475 C469 1.429 . S
C475 C476 1.523 . S
C476 C457 1.368 . S
C476 C470 1.368 . S
C476 C475 1.523 . S
C477 C461 1.429 . S
C477 C473 1.429 . S
C477 C478 1.523 . S
C478 C462 1.368 . S
C478 C474 1.368 . S
C478 C477 1.523 . S
H479 C454 0.950 . S
H480 C456 0.950 . S
H481 C457 0.949 . S
H482 C459 0.950 . S
H483 C461 0.950 . S
C484 C485 1.349 . S
C484 C486 1.327 . S
C484 H509 0.950 . S
C485 C484 1.349 . S
C485 C501 1.349 . S
C486 C484 1.327 . S
C486 C505 1.429 . S
C486 H510 0.950 . S
C487 C504 1.574 . S
C487 C506 1.368 . S
C487 H511 0.949 . S
H488 C492 0.949 . S
C489 C490 1.349 . S
C489 C491 1.327 . S
C489 H512 0.950 . S
C490 C489 1.349 . S
C490 C502 1.349 . S
C491 C489 1.327 . S
C491 C507 1.429 . S
C491 H513 0.950 . S
C492 H488 0.949 . S
C492 C500 1.574 . S
C492 C508 1.368 . S
H493 C501 0.950 . S
H494 C499 0.950 . S
H495 C500 0.949 . S
H496 C502 0.950 . S
H497 C503 0.950 . S
H498 C504 0.949 . S
C499 H494 0.950 . S
C499 C501 1.327 . S
C499 C505 1.429 . S
C500 C492 1.574 . S
C500 H495 0.949 . S
C500 C506 1.368 . S
C501 C485 1.349 . S
C501 H493 0.950 . S
C501 C499 1.327 . S
C502 C490 1.349 . S
C502 H496 0.950 . S
C502 C503 1.327 . S
C503 H497 0.950 . S
C503 C502 1.327 . S
C503 C507 1.429 . S
C504 C487 1.574 . S
C504 H498 0.949 . S
C504 C508 1.368 . S
C505 C486 1.429 . S
C505 C499 1.429 . S
C505 C506 1.523 . S
C506 C487 1.368 . S
C506 C500 1.368 . S
C506 C505 1.523 . S
C507 C491 1.429 . S
C507 C503 1.429 . S
C507 C508 1.523 . S
C508 C492 1.368 . S
C508 C504 1.368 . S
C508 C507 1.523 . S
H509 C484 0.950 . S
H510 C486 0.950 . S
H511 C487 0.949 . S
H512 C489 0.950 . S
H513 C491 0.950 . S
C514 C515 1.349 . S
C514 C516 1.327 . S
C514 H539 0.950 . S
C515 C514 1.349 . S
C515 C531 1.349 . S
C516 C514 1.327 . S
C516 C535 1.429 . S
C516 H540 0.950 . S
C517 C534 1.574 . S
C517 C536 1.368 1_554 S
C517 H541 0.949 . S
H518 C522 0.949 . S
C519 C520 1.349 . S
C519 C521 1.327 . S
C519 H542 0.950 . S
C520 C519 1.349 . S
C520 C532 1.349 . S
C521 C519 1.327 . S
C521 C537 1.429 . S
C521 H543 0.950 . S
C522 H518 0.949 . S
C522 C530 1.574 . S
C522 C538 1.368 1_556 S
H523 C531 0.950 . S
H524 C529 0.950 1_554 S
H525 C530 0.949 . S
H526 C532 0.950 . S
H527 C533 0.950 1_556 S
H528 C534 0.949 . S
C529 H524 0.950 1_556 S
C529 C531 1.327 . S
C529 C535 1.429 . S
C530 C522 1.574 . S
C530 H525 0.949 . S
C530 C536 1.368 . S
C531 C515 1.349 . S
C531 H523 0.950 . S
C531 C529 1.327 . S
C532 C520 1.349 . S
C532 H526 0.950 . S
C532 C533 1.327 . S
C533 H527 0.950 1_554 S
C533 C532 1.327 . S
C533 C537 1.429 . S
C534 C517 1.574 . S
C534 H528 0.949 . S
C534 C538 1.368 . S
C535 C516 1.429 . S
C535 C529 1.429 . S
C535 C536 1.523 . S
C536 C517 1.368 1_556 S
C536 C530 1.368 . S
C536 C535 1.523 . S
C537 C521 1.429 . S
C537 C533 1.429 . S
C537 C538 1.523 . S
C538 C522 1.368 1_554 S
C538 C534 1.368 . S
C538 C537 1.523 . S
H539 C514 0.950 . S
H540 C516 0.950 . S
H541 C517 0.949 . S
H542 C519 0.950 . S
H543 C521 0.950 . S
C544 C545 1.349 . S
C544 C546 1.327 . S
C544 H569 0.950 . S
C545 C544 1.349 . S
C545 C561 1.349 . S
C546 C544 1.327 . S
C546 C565 1.429 . S
C546 H570 0.950 . S
C547 C564 1.574 . S
C547 C566 1.368 . S
C547 H571 0.949 . S
H548 C552 0.949 . S
C549 C550 1.349 . S
C549 C551 1.327 . S
C549 H572 0.950 . S
C550 C549 1.349 . S
C550 C562 1.349 . S
C551 C549 1.327 . S
C551 C567 1.429 . S
C551 H573 0.950 . S
C552 H548 0.949 . S
C552 C560 1.574 . S
C552 C568 1.368 . S
H553 C561 0.950 . S
H554 C559 0.950 . S
H555 C560 0.949 . S
H556 C562 0.950 . S
H557 C563 0.950 . S
H558 C564 0.949 . S
C559 H554 0.950 . S
C559 C561 1.327 . S
C559 C565 1.429 . S
C560 C552 1.574 . S
C560 H555 0.949 . S
C560 C566 1.368 . S
C561 C545 1.349 . S
C561 H553 0.950 . S
C561 C559 1.327 . S
C562 C550 1.349 . S
C562 H556 0.950 . S
C562 C563 1.327 . S
C563 H557 0.950 . S
C563 C562 1.327 . S
C563 C567 1.429 . S
C564 C547 1.574 . S
C564 H558 0.949 . S
C564 C568 1.368 . S
C565 C546 1.429 . S
C565 C559 1.429 . S
C565 C566 1.523 . S
C566 C547 1.368 . S
C566 C560 1.368 . S
C566 C565 1.523 . S
C567 C551 1.429 . S
C567 C563 1.429 . S
C567 C568 1.523 . S
C568 C552 1.368 . S
C568 C564 1.368 . S
C568 C567 1.523 . S
H569 C544 0.950 . S
H570 C546 0.950 . S
H571 C547 0.949 . S
H572 C549 0.950 . S
H573 C551 0.950 . S
C574 C575 1.349 . S
C574 C576 1.327 . S
C574 H599 0.950 . S
C575 C574 1.349 . S
C575 C591 1.349 . S
C576 C574 1.327 . S
C576 C595 1.429 . S
C576 H600 0.950 . S
C577 C594 1.574 . S
C577 C596 1.368 . S
C577 H601 0.949 . S
H578 C582 0.949 . S
C579 C580 1.349 . S
C579 C581 1.327 . S
C579 H602 0.950 . S
C580 C579 1.349 . S
C580 C592 1.349 . S
C581 C579 1.327 . S
C581 C597 1.429 . S
C581 H603 0.950 . S
C582 H578 0.949 . S
C582 C590 1.574 . S
C582 C598 1.368 . S
H583 C591 0.950 . S
H584 C589 0.950 . S
H585 C590 0.949 . S
H586 C592 0.950 . S
H587 C593 0.950 . S
H588 C594 0.949 . S
C589 H584 0.950 . S
C589 C591 1.327 . S
C589 C595 1.429 . S
C590 C582 1.574 . S
C590 H585 0.949 . S
C590 C596 1.368 . S
C591 C575 1.349 . S
C591 H583 0.950 . S
C591 C589 1.327 . S
C592 C580 1.349 . S
C592 H586 0.950 . S
C592 C593 1.327 . S
C593 H587 0.950 . S
C593 C592 1.327 . S
C593 C597 1.429 . S
C594 C577 1.574 . S
C594 H588 0.949 . S
C594 C598 1.368 . S
C595 C576 1.429 . S
C595 C589 1.429 . S
C595 C596 1.523 . S
C596 C577 1.368 . S
C596 C590 1.368 . S
C596 C595 1.523 . S
C597 C581 1.429 . S
C597 C593 1.429 . S
C597 C598 1.523 . S
C598 C582 1.368 . S
C598 C594 1.368 . S
C598 C597 1.523 . S
H599 C574 0.950 . S
H600 C576 0.950 . S
H601 C577 0.949 . S
H602 C579 0.950 . S
H603 C581 0.950 . S
C604 C605 1.349 1_565 S
C604 C606 1.327 . S
C604 H629 0.950 . S
C605 C604 1.349 1_545 S
C605 C621 1.349 . S
C606 C604 1.327 . S
C606 C625 1.429 1_565 S
C606 H630 0.950 . S
C607 C624 1.574 . S
C607 C626 1.368 . S
C607 H631 0.949 . S
H608 C612 0.949 . S
C609 C610 1.349 . S
C609 C611 1.327 . S
C609 H632 0.950 1_655 S
C610 C609 1.349 . S
C610 C622 1.349 . S
C611 C609 1.327 . S
C611 C627 1.429 . S
C611 H633 0.950 1_655 S
C612 H608 0.949 . S
C612 C620 1.574 . S
C612 C628 1.368 1_565 S
H613 C621 0.950 . S
H614 C619 0.950 . S
H615 C620 0.949 . S
H616 C622 0.950 1_565 S
H617 C623 0.950 1_565 S
H618 C624 0.949 . S
C619 H614 0.950 . S
C619 C621 1.327 . S
C619 C625 1.429 . S
C620 C612 1.574 . S
C620 H615 0.949 . S
C620 C626 1.368 1_565 S
C621 C605 1.349 . S
C621 H613 0.950 . S
C621 C619 1.327 . S
C622 C610 1.349 . S
C622 H616 0.950 1_545 S
C622 C623 1.327 . S
C623 H617 0.950 1_545 S
C623 C622 1.327 . S
C623 C627 1.429 . S
C624 C607 1.574 . S
C624 H618 0.949 . S
C624 C628 1.368 . S
C625 C606 1.429 1_545 S
C625 C619 1.429 . S
C625 C626 1.523 . S
C626 C607 1.368 . S
C626 C620 1.368 1_545 S
C626 C625 1.523 . S
C627 C611 1.429 . S
C627 C623 1.429 . S
C627 C628 1.523 . S
C628 C612 1.368 1_545 S
C628 C624 1.368 . S
C628 C627 1.523 . S
H629 C604 0.950 . S
H630 C606 0.950 . S
H631 C607 0.949 . S
H632 C609 0.950 1_455 S
H633 C611 0.950 1_455 S
C634 C635 1.349 . S
C634 C636 1.327 . S
C634 H659 0.950 . S
C635 C634 1.349 . S
C635 C651 1.349 . S
C636 C634 1.327 . S
C636 C655 1.429 . S
C636 H660 0.950 . S
C637 C654 1.574 . S
C637 C656 1.368 . S
C637 H661 0.949 . S
H638 C642 0.949 . S
C639 C640 1.349 . S
C639 C641 1.327 . S
C639 H662 0.950 . S
C640 C639 1.349 . S
C640 C652 1.349 . S
C641 C639 1.327 . S
C641 C657 1.429 . S
C641 H663 0.950 . S
C642 H638 0.949 . S
C642 C650 1.574 . S
C642 C658 1.368 . S
H643 C651 0.950 . S
H644 C649 0.950 . S
H645 C650 0.949 . S
H646 C652 0.950 . S
H647 C653 0.950 . S
H648 C654 0.949 . S
C649 H644 0.950 . S
C649 C651 1.327 . S
C649 C655 1.429 . S
C650 C642 1.574 . S
C650 H645 0.949 . S
C650 C656 1.368 . S
C651 C635 1.349 . S
C651 H643 0.950 . S
C651 C649 1.327 . S
C652 C640 1.349 . S
C652 H646 0.950 . S
C652 C653 1.327 . S
C653 H647 0.950 . S
C653 C652 1.327 . S
C653 C657 1.429 . S
C654 C637 1.574 . S
C654 H648 0.949 . S
C654 C658 1.368 . S
C655 C636 1.429 . S
C655 C649 1.429 . S
C655 C656 1.523 . S
C656 C637 1.368 . S
C656 C650 1.368 . S
C656 C655 1.523 . S
C657 C641 1.429 . S
C657 C653 1.429 . S
C657 C658 1.523 . S
C658 C642 1.368 . S
C658 C654 1.368 . S
C658 C657 1.523 . S
H659 C634 0.950 . S
H660 C636 0.950 . S
H661 C637 0.949 . S
H662 C639 0.950 . S
H663 C641 0.950 . S
C664 C665 1.349 . S
C664 C666 1.327 . S
C664 H689 0.950 . S
C665 C664 1.349 . S
C665 C681 1.349 . S
C666 C664 1.327 . S
C666 C685 1.429 . S
C666 H690 0.950 . S
C667 C684 1.574 . S
C667 C686 1.368 . S
C667 H691 0.949 . S
H668 C672 0.949 . S
C669 C670 1.349 . S
C669 C671 1.327 . S
C669 H692 0.950 . S
C670 C669 1.349 . S
C670 C682 1.349 . S
C671 C669 1.327 . S
C671 C687 1.429 . S
C671 H693 0.950 . S
C672 H668 0.949 . S
C672 C680 1.574 . S
C672 C688 1.368 . S
H673 C681 0.950 . S
H674 C679 0.950 . S
H675 C680 0.949 . S
H676 C682 0.950 . S
H677 C683 0.950 . S
H678 C684 0.949 . S
C679 H674 0.950 . S
C679 C681 1.327 . S
C679 C685 1.429 . S
C680 C672 1.574 . S
C680 H675 0.949 . S
C680 C686 1.368 . S
C681 C665 1.349 . S
C681 H673 0.950 . S
C681 C679 1.327 . S
C682 C670 1.349 . S
C682 H676 0.950 . S
C682 C683 1.327 . S
C683 H677 0.950 . S
C683 C682 1.327 . S
C683 C687 1.429 . S
C684 C667 1.574 . S
C684 H678 0.949 . S
C684 C688 1.368 . S
C685 C666 1.429 . S
C685 C679 1.429 . S
C685 C686 1.523 . S
C686 C667 1.368 . S
C686 C680 1.368 . S
C686 C685 1.523 . S
C687 C671 1.429 . S
C687 C683 1.429 . S
C687 C688 1.523 . S
C688 C672 1.368 . S
C688 C684 1.368 . S
C688 C687 1.523 . S
H689 C664 0.950 . S
H690 C666 0.950 . S
H691 C667 0.949 . S
H692 C669 0.950 . S
H693 C671 0.950 . S
C694 C695 1.349 . S
C694 C696 1.327 . S
C694 H719 0.950 . S
C695 C694 1.349 . S
C695 C711 1.349 . S
C696 C694 1.327 . S
C696 C715 1.429 . S
C696 H720 0.950 . S
C697 C714 1.574 . S
C697 C716 1.368 . S
C697 H721 0.949 . S
H698 C702 0.949 . S
C699 C700 1.349 . S
C699 C701 1.327 . S
C699 H722 0.950 . S
C700 C699 1.349 . S
C700 C712 1.349 . S
C701 C699 1.327 . S
C701 C717 1.429 . S
C701 H723 0.950 . S
C702 H698 0.949 . S
C702 C710 1.574 . S
C702 C718 1.368 . S
H703 C711 0.950 . S
H704 C709 0.950 . S
H705 C710 0.949 . S
H706 C712 0.950 . S
H707 C713 0.950 . S
H708 C714 0.949 . S
C709 H704 0.950 . S
C709 C711 1.327 . S
C709 C715 1.429 . S
C710 C702 1.574 . S
C710 H705 0.949 . S
C710 C716 1.368 . S
C711 C695 1.349 . S
C711 H703 0.950 . S
C711 C709 1.327 . S
C712 C700 1.349 . S
C712 H706 0.950 . S
C712 C713 1.327 . S
C713 H707 0.950 . S
C713 C712 1.327 . S
C713 C717 1.429 . S
C714 C697 1.574 . S
C714 H708 0.949 . S
C714 C718 1.368 . S
C715 C696 1.429 . S
C715 C709 1.429 . S
C715 C716 1.523 . S
C716 C697 1.368 . S
C716 C710 1.368 . S
C716 C715 1.523 . S
C717 C701 1.429 . S
C717 C713 1.429 . S
C717 C718 1.523 . S
C718 C702 1.368 . S
C718 C714 1.368 . S
C718 C717 1.523 . S
H719 C694 0.950 . S
H720 C696 0.950 . S
H721 C697 0.949 . S
H722 C699 0.950 . S
H723 C701 0.950 . S
C724 C725 1.349 1_554 S
C724 C726 1.327 . S
C724 H749 0.950 1_545 S
C725 C724 1.349 1_556 S
C725 C741 1.349 . S
C726 C724 1.327 . S
C726 C745 1.429 . S
C726 H750 0.950 . S
C727 C744 1.574 1_556 S
C727 C746 1.368 1_556 S
C727 H751 0.949 . S
H728 C732 0.949 . S
C729 C730 1.349 . S
C729 C731 1.327 . S
C729 H752 0.950 . S
C730 C729 1.349 . S
C730 C742 1.349 . S
C731 C729 1.327 . S
C731 C747 1.429 . S
C731 H753 0.950 . S
C732 H728 0.949 . S
C732 C740 1.574 . S
C732 C748 1.368 . S
H733 C741 0.950 . S
H734 C739 0.950 . S
H735 C740 0.949 . S
H736 C742 0.950 . S
H737 C743 0.950 . S
H738 C744 0.949 1_556 S
C739 H734 0.950 . S
C739 C741 1.327 . S
C739 C745 1.429 1_556 S
C740 C732 1.574 . S
C740 H735 0.949 . S
C740 C746 1.368 . S
C741 C725 1.349 . S
C741 H733 0.950 . S
C741 C739 1.327 . S
C742 C730 1.349 . S
C742 H736 0.950 . S
C742 C743 1.327 . S
C743 H737 0.950 . S
C743 C742 1.327 . S
C743 C747 1.429 . S
C744 C727 1.574 1_554 S
C744 H738 0.949 1_554 S
C744 C748 1.368 . S
C745 C726 1.429 . S
C745 C739 1.429 1_554 S
C745 C746 1.523 . S
C746 C727 1.368 1_554 S
C746 C740 1.368 . S
C746 C745 1.523 . S
C747 C731 1.429 . S
C747 C743 1.429 . S
C747 C748 1.523 . S
C748 C732 1.368 . S
C748 C744 1.368 . S
C748 C747 1.523 . S
H749 C724 0.950 1_565 S
H750 C726 0.950 . S
H751 C727 0.949 . S
H752 C729 0.950 . S
H753 C731 0.950 . S
C754 C755 1.349 . S
C754 C756 1.327 . S
C754 H779 0.950 . S
C755 C754 1.349 . S
C755 C771 1.349 . S
C756 C754 1.327 . S
C756 C775 1.429 . S
C756 H780 0.950 . S
C757 C774 1.574 . S
C757 C776 1.368 . S
C757 H781 0.949 . S
H758 C762 0.949 . S
C759 C760 1.349 . S
C759 C761 1.327 . S
C759 H782 0.950 . S
C760 C759 1.349 . S
C760 C772 1.349 . S
C761 C759 1.327 . S
C761 C777 1.429 . S
C761 H783 0.950 . S
C762 H758 0.949 . S
C762 C770 1.574 . S
C762 C778 1.368 . S
H763 C771 0.950 . S
H764 C769 0.950 . S
H765 C770 0.949 . S
H766 C772 0.950 . S
H767 C773 0.950 . S
H768 C774 0.949 . S
C769 H764 0.950 . S
C769 C771 1.327 . S
C769 C775 1.429 . S
C770 C762 1.574 . S
C770 H765 0.949 . S
C770 C776 1.368 . S
C771 C755 1.349 . S
C771 H763 0.950 . S
C771 C769 1.327 . S
C772 C760 1.349 . S
C772 H766 0.950 . S
C772 C773 1.327 . S
C773 H767 0.950 . S
C773 C772 1.327 . S
C773 C777 1.429 . S
C774 C757 1.574 . S
C774 H768 0.949 . S
C774 C778 1.368 . S
C775 C756 1.429 . S
C775 C769 1.429 . S
C775 C776 1.523 . S
C776 C757 1.368 . S
C776 C770 1.368 . S
C776 C775 1.523 . S
C777 C761 1.429 . S
C777 C773 1.429 . S
C777 C778 1.523 . S
C778 C762 1.368 . S
C778 C774 1.368 . S
C778 C777 1.523 . S
H779 C754 0.950 . S
H780 C756 0.950 . S
H781 C757 0.949 . S
H782 C759 0.950 . S
H783 C761 0.950 . S
C784 C785 1.349 . S
C784 C786 1.327 . S
C784 H809 0.950 . S
C785 C784 1.349 . S
C785 C801 1.349 . S
C786 C784 1.327 . S
C786 C805 1.429 . S
C786 H810 0.950 . S
C787 C804 1.574 . S
C787 C806 1.368 . S
C787 H811 0.949 . S
H788 C792 0.949 . S
C789 C790 1.349 . S
C789 C791 1.327 . S
C789 H812 0.950 . S
C790 C789 1.349 . S
C790 C802 1.349 . S
C791 C789 1.327 . S
C791 C807 1.429 . S
C791 H813 0.950 . S
C792 H788 0.949 . S
C792 C800 1.574 . S
C792 C808 1.368 . S
H793 C801 0.950 . S
H794 C799 0.950 . S
H795 C800 0.949 . S
H796 C802 0.950 . S
H797 C803 0.950 . S
H798 C804 0.949 . S
C799 H794 0.950 . S
C799 C801 1.327 . S
C799 C805 1.429 . S
C800 C792 1.574 . S
C800 H795 0.949 . S
C800 C806 1.368 . S
C801 C785 1.349 . S
C801 H793 0.950 . S
C801 C799 1.327 . S
C802 C790 1.349 . S
C802 H796 0.950 . S
C802 C803 1.327 . S
C803 H797 0.950 . S
C803 C802 1.327 . S
C803 C807 1.429 . S
C804 C787 1.574 . S
C804 H798 0.949 . S
C804 C808 1.368 . S
C805 C786 1.429 . S
C805 C799 1.429 . S
C805 C806 1.523 . S
C806 C787 1.368 . S
C806 C800 1.368 . S
C806 C805 1.523 . S
C807 C791 1.429 . S
C807 C803 1.429 . S
C807 C808 1.523 . S
C808 C792 1.368 . S
C808 C804 1.368 . S
C808 C807 1.523 . S
H809 C784 0.950 . S
H810 C786 0.950 . S
H811 C787 0.949 . S
H812 C789 0.950 . S
H813 C791 0.950 . S
C814 C815 1.349 . S
C814 C816 1.327 . S
C814 H839 0.950 . S
C815 C814 1.349 . S
C815 C831 1.349 . S
C816 C814 1.327 . S
C816 C835 1.429 . S
C816 H840 0.950 . S
C817 C834 1.574 . S
C817 C836 1.368 . S
C817 H841 0.949 . S
H818 C822 0.949 . S
C819 C820 1.349 . S
C819 C821 1.327 . S
C819 H842 0.950 . S
C820 C819 1.349 . S
C820 C832 1.349 . S
C821 C819 1.327 . S
C821 C837 1.429 . S
C821 H843 0.950 . S
C822 H818 0.949 . S
C822 C830 1.574 . S
C822 C838 1.368 . S
H823 C831 0.950 . S
H824 C829 0.950 . S
H825 C830 0.949 . S
H826 C832 0.950 . S
H827 C833 0.950 . S
H828 C834 0.949 . S
C829 H824 0.950 . S
C829 C831 1.327 . S
C829 C835 1.429 . S
C830 C822 1.574 . S
C830 H825 0.949 . S
C830 C836 1.368 . S
C831 C815 1.349 . S
C831 H823 0.950 . S
C831 C829 1.327 . S
C832 C820 1.349 . S
C832 H826 0.950 . S
C832 C833 1.327 . S
C833 H827 0.950 . S
C833 C832 1.327 . S
C833 C837 1.429 . S
C834 C817 1.574 . S
C834 H828 0.949 . S
C834 C838 1.368 . S
C835 C816 1.429 . S
C835 C829 1.429 . S
C835 C836 1.523 . S
C836 C817 1.368 . S
C836 C830 1.368 . S
C836 C835 1.523 . S
C837 C821 1.429 . S
C837 C833 1.429 . S
C837 C838 1.523 . S
C838 C822 1.368 . S
C838 C834 1.368 . S
C838 C837 1.523 . S
H839 C814 0.950 . S
H840 C816 0.950 . S
H841 C817 0.949 . S
H842 C819 0.950 . S
H843 C821 0.950 . S
C844 C845 1.349 . S
C844 C846 1.327 . S
C844 H869 0.950 . S
C845 C844 1.349 . S
C845 C861 1.349 . S
C846 C844 1.327 . S
C846 C865 1.429 . S
C846 H870 0.950 . S
C847 C864 1.574 . S
C847 C866 1.368 . S
C847 H871 0.949 . S
H848 C852 0.949 1_554 S
C849 C850 1.349 1_455 S
C849 C851 1.327 1_455 S
C849 H872 0.950 . S
C850 C849 1.349 1_655 S
C850 C862 1.349 1_556 S
C851 C849 1.327 1_655 S
C851 C867 1.429 . S
C851 H873 0.950 1_655 S
C852 H848 0.949 1_556 S
C852 C860 1.574 . S
C852 C868 1.368 . S
H853 C861 0.950 . S
H854 C859 0.950 . S
H855 C860 0.949 1_554 S
H856 C862 0.950 . S
H857 C863 0.950 . S
H858 C864 0.949 . S
C859 H854 0.950 . S
C859 C861 1.327 . S
C859 C865 1.429 . S
C860 C852 1.574 . S
C860 H855 0.949 1_556 S
C860 C866 1.368 . S
C861 C845 1.349 . S
C861 H853 0.950 . S
C861 C859 1.327 . S
C862 C850 1.349 1_554 S
C862 H856 0.950 . S
C862 C863 1.327 . S
C863 H857 0.950 . S
C863 C862 1.327 . S
C863 C867 1.429 1_554 S
C864 C847 1.574 . S
C864 H858 0.949 . S
C864 C868 1.368 . S
C865 C846 1.429 . S
C865 C859 1.429 . S
C865 C866 1.523 . S
C866 C847 1.368 . S
C866 C860 1.368 . S
C866 C865 1.523 . S
C867 C851 1.429 . S
C867 C863 1.429 1_556 S
C867 C868 1.523 . S
C868 C852 1.368 . S
C868 C864 1.368 . S
C868 C867 1.523 . S
H869 C844 0.950 . S
H870 C846 0.950 . S
H871 C847 0.949 . S
H872 C849 0.950 . S
H873 C851 0.950 1_455 S
C874 C875 1.349 . S
C874 C876 1.327 . S
C874 H899 0.950 . S
C875 C874 1.349 . S
C875 C891 1.349 . S
C876 C874 1.327 . S
C876 C895 1.429 . S
C876 H900 0.950 . S
C877 C894 1.574 . S
C877 C896 1.368 . S
C877 H901 0.949 . S
H878 C882 0.949 . S
C879 C880 1.349 . S
C879 C881 1.327 . S
C879 H902 0.950 . S
C880 C879 1.349 . S
C880 C892 1.349 . S
C881 C879 1.327 . S
C881 C897 1.429 . S
C881 H903 0.950 . S
C882 H878 0.949 . S
C882 C890 1.574 . S
C882 C898 1.368 . S
H883 C891 0.950 . S
H884 C889 0.950 . S
H885 C890 0.949 . S
H886 C892 0.950 . S
H887 C893 0.950 . S
H888 C894 0.949 . S
C889 H884 0.950 . S
C889 C891 1.327 . S
C889 C895 1.429 . S
C890 C882 1.574 . S
C890 H885 0.949 . S
C890 C896 1.368 . S
C891 C875 1.349 . S
C891 H883 0.950 . S
C891 C889 1.327 . S
C892 C880 1.349 . S
C892 H886 0.950 . S
C892 C893 1.327 . S
C893 H887 0.950 . S
C893 C892 1.327 . S
C893 C897 1.429 . S
C894 C877 1.574 . S
C894 H888 0.949 . S
C894 C898 1.368 . S
C895 C876 1.429 . S
C895 C889 1.429 . S
C895 C896 1.523 . S
C896 C877 1.368 . S
C896 C890 1.368 . S
C896 C895 1.523 . S
C897 C881 1.429 . S
C897 C893 1.429 . S
C897 C898 1.523 . S
C898 C882 1.368 . S
C898 C894 1.368 . S
C898 C897 1.523 . S
H899 C874 0.950 . S
H900 C876 0.950 . S
H901 C877 0.949 . S
H902 C879 0.950 . S
H903 C881 0.950 . S
C904 C905 1.349 . S
C904 C906 1.327 . S
C904 H929 0.950 . S
C905 C904 1.349 . S
C905 C921 1.349 . S
C906 C904 1.327 . S
C906 C925 1.429 . S
C906 H930 0.950 . S
C907 C924 1.574 . S
C907 C926 1.368 . S
C907 H931 0.949 . S
H908 C912 0.949 . S
C909 C910 1.349 . S
C909 C911 1.327 . S
C909 H932 0.950 . S
C910 C909 1.349 . S
C910 C922 1.349 . S
C911 C909 1.327 . S
C911 C927 1.429 . S
C911 H933 0.950 . S
C912 H908 0.949 . S
C912 C920 1.574 . S
C912 C928 1.368 . S
H913 C921 0.950 . S
H914 C919 0.950 . S
H915 C920 0.949 . S
H916 C922 0.950 . S
H917 C923 0.950 . S
H918 C924 0.949 . S
C919 H914 0.950 . S
C919 C921 1.327 . S
C919 C925 1.429 . S
C920 C912 1.574 . S
C920 H915 0.949 . S
C920 C926 1.368 . S
C921 C905 1.349 . S
C921 H913 0.950 . S
C921 C919 1.327 . S
C922 C910 1.349 . S
C922 H916 0.950 . S
C922 C923 1.327 . S
C923 H917 0.950 . S
C923 C922 1.327 . S
C923 C927 1.429 . S
C924 C907 1.574 . S
C924 H918 0.949 . S
C924 C928 1.368 . S
C925 C906 1.429 . S
C925 C919 1.429 . S
C925 C926 1.523 . S
C926 C907 1.368 . S
C926 C920 1.368 . S
C926 C925 1.523 . S
C927 C911 1.429 . S
C927 C923 1.429 . S
C927 C928 1.523 . S
C928 C912 1.368 . S
C928 C924 1.368 . S
C928 C927 1.523 . S
H929 C904 0.950 . S
H930 C906 0.950 . S
H931 C907 0.949 . S
H932 C909 0.950 . S
H933 C911 0.950 . S
C934 C935 1.349 . S
C934 C936 1.327 . S
C934 H959 0.950 . S
C935 C934 1.349 . S
C935 C951 1.349 . S
C936 C934 1.327 . S
C936 C955 1.429 . S
C936 H960 0.950 . S
C937 C954 1.574 . S
C937 C956 1.368 . S
C937 H961 0.949 . S
H938 C942 0.949 . S
C939 C940 1.349 . S
C939 C941 1.327 . S
C939 H962 0.950 . S
C940 C939 1.349 . S
C940 C952 1.349 . S
C941 C939 1.327 . S
C941 C957 1.429 . S
C941 H963 0.950 . S
C942 H938 0.949 . S
C942 C950 1.574 . S
C942 C958 1.368 . S
H943 C951 0.950 . S
H944 C949 0.950 . S
H945 C950 0.949 . S
H946 C952 0.950 . S
H947 C953 0.950 . S
H948 C954 0.949 . S
C949 H944 0.950 . S
C949 C951 1.327 . S
C949 C955 1.429 . S
C950 C942 1.574 . S
C950 H945 0.949 . S
C950 C956 1.368 . S
C951 C935 1.349 . S
C951 H943 0.950 . S
C951 C949 1.327 . S
C952 C940 1.349 . S
C952 H946 0.950 . S
C952 C953 1.327 . S
C953 H947 0.950 . S
C953 C952 1.327 . S
C953 C957 1.429 . S
C954 C937 1.574 . S
C954 H948 0.949 . S
C954 C958 1.368 . S
C955 C936 1.429 . S
C955 C949 1.429 . S
C955 C956 1.523 . S
C956 C937 1.368 . S
C956 C950 1.368 . S
C956 C955 1.523 . S
C957 C941 1.429 . S
C957 C953 1.429 . S
C957 C958 1.523 . S
C958 C942 1.368 . S
C958 C954 1.368 . S
C958 C957 1.523 . S
H959 C934 0.950 . S
H960 C936 0.950 . S
H961 C937 0.949 . S
H962 C939 0.950 . S
H963 C941 0.950 . S
C245 C6 1.904 . S
C250 C170 1.876 . S
C275 C21 2.256 . S
C280 C194 2.198 1_566 S
C310 C214 0.682 . S
C305 C49 0.694 . S
C335 C68 1.083 . S
C340 C237 1.198 . S
C370 C196 2.536 . S
C365 C2 2.538 . S
C400 C172 1.374 . S
C395 C30 1.274 . S
C430 C240 1.348 . S
C425 C40 1.393 . S
C460 C217 1.306 . S
C455 C63 1.324 . S
C485 C11 1.302 . S
C490 C242 1.432 . S
C520 C191 1.804 . S
C515 C44 1.794 . S
C545 C59 1.202 . S
C550 C169 1.215 . S
C575 C25 1.702 . S
C580 C219 1.669 . S
C610 C173 2.175 . S
C605 C82 2.152 1_545 S
C635 C101 1.868 . S
C640 C195 1.869 . S
C665 C125 1.493 . S
C670 C215 1.554 . S
C695 C144 1.070 . S
C700 C238 1.210 . S
C725 C87 1.154 . S
C730 C193 1.311 . S
C760 C171 2.261 . S
C755 C97 2.273 . S
C790 C241 1.231 . S
C785 C120 1.294 . S
C820 C218 1.233 . S
C815 C135 1.231 . S
C845 C78 2.227 . S
C850 C239 2.225 1_656 S
C880 C192 1.087 . S
C875 C116 1.070 . S
C910 C168 1.679 . S
C905 C139 1.652 . S
C935 C106 1.721 . S
C940 C216 1.789 . S
