# Generated by pormake.
# Topology ssb, (4,4)-cn, num edge types: 1
# Building blocks:
#     Node 0, Type 0, BuildingBlock: MIFKUJ_clean_linker_1, # of connection points: 4
#     Node 1, Type 0, BuildingBlock: MIFKUJ_clean_linker_1, # of connection points: 4
#     Node 2, Type 0, BuildingBlock: MIFKUJ_clean_linker_1, # of connection points: 4
#     Node 3, Type 0, BuildingBlock: MIFKUJ_clean_linker_1, # of connection points: 4
#     Node 4, Type 0, BuildingBlock: MIFKUJ_clean_linker_1, # of connection points: 4
#     Node 5, Type 0, BuildingBlock: MIFKUJ_clean_linker_1, # of connection points: 4
#     Node 6, Type 0, BuildingBlock: MIFKUJ_clean_linker_1, # of connection points: 4
#     Node 7, Type 0, BuildingBlock: MIFKUJ_clean_linker_1, # of connection points: 4
#     Node 8, Type 1, BuildingBlock: KOZSID_clean_sbu_0, # of connection points: 4
#     Node 9, Type 1, BuildingBlock: KOZSID_clean_sbu_0, # of connection points: 4
#     Node 10, Type 1, BuildingBlock: KOZSID_clean_sbu_0, # of connection points: 4
#     Node 11, Type 1, BuildingBlock: KOZSID_clean_sbu_0, # of connection points: 4
#     Node 12, Type 1, BuildingBlock: KOZSID_clean_sbu_0, # of connection points: 4
#     Node 13, Type 1, BuildingBlock: KOZSID_clean_sbu_0, # of connection points: 4
#     Node 14, Type 1, BuildingBlock: KOZSID_clean_sbu_0, # of connection points: 4
#     Node 15, Type 1, BuildingBlock: KOZSID_clean_sbu_0, # of connection points: 4
#     Edge 16, Type (0, 1), BuildingBlock: UVAHIK_clean_linker_0, # of connection points: 2
#     Edge 17, Type (0, 1), BuildingBlock: UVAHIK_clean_linker_0, # of connection points: 2
#     Edge 18, Type (0, 1), BuildingBlock: UVAHIK_clean_linker_0, # of connection points: 2
#     Edge 19, Type (0, 1), BuildingBlock: UVAHIK_clean_linker_0, # of connection points: 2
#     Edge 20, Type (0, 1), BuildingBlock: UVAHIK_clean_linker_0, # of connection points: 2
#     Edge 21, Type (0, 1), BuildingBlock: UVAHIK_clean_linker_0, # of connection points: 2
#     Edge 22, Type (0, 1), BuildingBlock: UVAHIK_clean_linker_0, # of connection points: 2
#     Edge 23, Type (0, 1), BuildingBlock: UVAHIK_clean_linker_0, # of connection points: 2
#     Edge 24, Type (0, 1), BuildingBlock: UVAHIK_clean_linker_0, # of connection points: 2
#     Edge 25, Type (0, 1), BuildingBlock: UVAHIK_clean_linker_0, # of connection points: 2
#     Edge 26, Type (0, 1), BuildingBlock: UVAHIK_clean_linker_0, # of connection points: 2
#     Edge 27, Type (0, 1), BuildingBlock: UVAHIK_clean_linker_0, # of connection points: 2
#     Edge 28, Type (0, 1), BuildingBlock: UVAHIK_clean_linker_0, # of connection points: 2
#     Edge 29, Type (0, 1), BuildingBlock: UVAHIK_clean_linker_0, # of connection points: 2
#     Edge 30, Type (0, 1), BuildingBlock: UVAHIK_clean_linker_0, # of connection points: 2
#     Edge 31, Type (0, 1), BuildingBlock: UVAHIK_clean_linker_0, # of connection points: 2
#     Edge 32, Type (0, 1), BuildingBlock: UVAHIK_clean_linker_0, # of connection points: 2
#     Edge 33, Type (0, 1), BuildingBlock: UVAHIK_clean_linker_0, # of connection points: 2
#     Edge 34, Type (0, 1), BuildingBlock: UVAHIK_clean_linker_0, # of connection points: 2
#     Edge 35, Type (0, 1), BuildingBlock: UVAHIK_clean_linker_0, # of connection points: 2
#     Edge 36, Type (0, 1), BuildingBlock: UVAHIK_clean_linker_0, # of connection points: 2
#     Edge 37, Type (0, 1), BuildingBlock: UVAHIK_clean_linker_0, # of connection points: 2
#     Edge 38, Type (0, 1), BuildingBlock: UVAHIK_clean_linker_0, # of connection points: 2
#     Edge 39, Type (0, 1), BuildingBlock: UVAHIK_clean_linker_0, # of connection points: 2
#     Edge 40, Type (0, 1), BuildingBlock: UVAHIK_clean_linker_0, # of connection points: 2
#     Edge 41, Type (0, 1), BuildingBlock: UVAHIK_clean_linker_0, # of connection points: 2
#     Edge 42, Type (0, 1), BuildingBlock: UVAHIK_clean_linker_0, # of connection points: 2
#     Edge 43, Type (0, 1), BuildingBlock: UVAHIK_clean_linker_0, # of connection points: 2
#     Edge 44, Type (0, 1), BuildingBlock: UVAHIK_clean_linker_0, # of connection points: 2
#     Edge 45, Type (0, 1), BuildingBlock: UVAHIK_clean_linker_0, # of connection points: 2
#     Edge 46, Type (0, 1), BuildingBlock: UVAHIK_clean_linker_0, # of connection points: 2
#     Edge 47, Type (0, 1), BuildingBlock: UVAHIK_clean_linker_0, # of connection points: 2
# Relax obj value: 0.001
# Max RMSD: 0.017
# Mean RMSD: 0.011
data_MOF--net-ssb--node1-KOZSID_clean_sbu_0--node2-MIFKUJ_clean_linker_1--edge1-UVAHIK_clean_linker_0
_symmetry_space_group_name_H-M    P1
_symmetry_Int_Tables_number       1
_symmetry_cell_setting            triclinic
loop_
_symmetry_equiv_pos_as_xyz
'x, y, z'
_cell_length_a     77.891076
_cell_length_b     77.583626
_cell_length_c     57.372296
_cell_angle_alpha  91.773332
_cell_angle_beta   93.690096
_cell_angle_gamma 89.990428
loop_
_atom_site_label
_atom_site_type_symbol
_atom_site_fract_x
_atom_site_fract_y
_atom_site_fract_z
_atom_type_partial_charge
H0 H 0.27633 0.22375 0.22206 0.0
H1 H 0.30097 0.2247 0.19795 0.0
H2 H 0.3131 0.27609 0.22554 0.0
H3 H 0.28915 0.27455 0.2507 0.0
H4 H 0.27431 0.22398 0.26701 0.0
H5 H 0.2532 0.26108 0.20596 0.0
H6 H 0.254 0.28556 0.18019 0.0
H7 H 0.25404 0.32061 0.24018 0.0
H8 H 0.25369 0.29605 0.2659 0.0
H9 H 0.23058 0.2705 0.31665 0.0
H10 H 0.20625 0.26985 0.34146 0.0
H11 H 0.19141 0.2199 0.31121 0.0
H12 H 0.21531 0.221 0.28577 0.0
H13 H 0.23096 0.2707 0.27011 0.0
H14 H 0.25317 0.23286 0.33097 0.0
H15 H 0.25286 0.20801 0.3561 0.0
H16 H 0.2489 0.17397 0.29488 0.0
H17 H 0.24975 0.19889 0.26998 0.0
C18 C 0.28073 0.24916 0.23799 0.0
C19 C 0.28437 0.23518 0.223 0.0
C20 C 0.29837 0.23583 0.20902 0.0
C21 C 0.30901 0.25052 0.20965 0.0
C22 C 0.30534 0.26449 0.22476 0.0
C23 C 0.29147 0.26373 0.23894 0.0
C24 C 0.26595 0.24832 0.253 0.0
C25 C 0.26469 0.23408 0.26744 0.0
C26 C 0.25358 0.2617 0.25382 0.0
C27 C 0.25357 0.27665 0.23797 0.0
C28 C 0.25348 0.27403 0.2136 0.0
C29 C 0.25379 0.28808 0.19883 0.0
C30 C 0.25414 0.30513 0.20805 0.0
C31 C 0.25403 0.3077 0.23245 0.0
C32 C 0.25367 0.29365 0.2472 0.0
C33 C 0.22486 0.24573 0.29952 0.0
C34 C 0.22205 0.25944 0.31534 0.0
C35 C 0.20823 0.25897 0.32966 0.0
C36 C 0.19691 0.24479 0.32839 0.0
C37 C 0.19977 0.23109 0.31248 0.0
C38 C 0.21355 0.2316 0.2981 0.0
C39 C 0.23941 0.24642 0.28414 0.0
C40 C 0.2406 0.26062 0.26962 0.0
C41 C 0.25164 0.23295 0.28311 0.0
C42 C 0.2514 0.2178 0.29853 0.0
C43 C 0.25219 0.22004 0.32298 0.0
C44 C 0.25192 0.20576 0.33735 0.0
C45 C 0.25082 0.18884 0.32765 0.0
C46 C 0.25006 0.18669 0.30312 0.0
C47 C 0.25045 0.20097 0.28878 0.0
H48 H 0.70655 0.25564 0.26021 0.0
H49 H 0.67979 0.25649 0.23564 0.0
H50 H 0.70897 0.25431 0.17396 0.0
H51 H 0.73567 0.25405 0.19876 0.0
H52 H 0.73121 0.23004 0.26092 0.0
H53 H 0.72686 0.28996 0.24631 0.0
H54 H 0.72455 0.31659 0.22463 0.0
H55 H 0.7722 0.30452 0.19321 0.0
H56 H 0.77429 0.27768 0.21449 0.0
H57 H 0.80301 0.25023 0.26041 0.0
H58 H 0.82964 0.24916 0.28528 0.0
H59 H 0.79996 0.24424 0.34589 0.0
H60 H 0.77348 0.24632 0.32112 0.0
H61 H 0.77801 0.27328 0.25942 0.0
H62 H 0.77894 0.21083 0.26803 0.0
H63 H 0.78162 0.18433 0.29035 0.0
H64 H 0.74153 0.20234 0.33362 0.0
H65 H 0.73865 0.22861 0.31099 0.0
C66 C 0.72305 0.25488 0.23128 0.0
C67 C 0.70714 0.25544 0.24138 0.0
C68 C 0.69186 0.25581 0.2273 0.0
C69 C 0.6922 0.25538 0.20279 0.0
C70 C 0.70822 0.25492 0.19275 0.0
C71 C 0.7235 0.25471 0.20687 0.0
C72 C 0.73915 0.25375 0.24627 0.0
C73 C 0.74135 0.23962 0.26074 0.0
C74 C 0.75254 0.266 0.24568 0.0
C75 C 0.75065 0.28173 0.2318 0.0
C76 C 0.73663 0.29286 0.2344 0.0
C77 C 0.73535 0.30808 0.22209 0.0
C78 C 0.74822 0.31257 0.20734 0.0
C79 C 0.7622 0.30141 0.20468 0.0
C80 C 0.76338 0.2861 0.21677 0.0
C81 C 0.78625 0.24813 0.28884 0.0
C82 C 0.80227 0.24895 0.27907 0.0
C83 C 0.81748 0.24817 0.29329 0.0
C84 C 0.81695 0.24656 0.3176 0.0
C85 C 0.80086 0.24567 0.3273 0.0
C86 C 0.78568 0.2466 0.3131 0.0
C87 C 0.77012 0.24948 0.27381 0.0
C88 C 0.76789 0.26367 0.2594 0.0
C89 C 0.75671 0.23728 0.27429 0.0
C90 C 0.75863 0.22158 0.28799 0.0
C91 C 0.77077 0.20903 0.28235 0.0
C92 C 0.77226 0.19396 0.29499 0.0
C93 C 0.7618 0.19145 0.31363 0.0
C94 C 0.74979 0.20412 0.31939 0.0
C95 C 0.74809 0.21902 0.30648 0.0
H96 H 0.72225 0.77389 0.2104 0.0
H97 H 0.69593 0.77273 0.18475 0.0
H98 H 0.68251 0.72417 0.21383 0.0
H99 H 0.70859 0.72568 0.23992 0.0
H100 H 0.72579 0.77565 0.25717 0.0
H101 H 0.74155 0.73633 0.19625 0.0
H102 H 0.73954 0.71098 0.16993 0.0
H103 H 0.74597 0.67806 0.22928 0.0
H104 H 0.747 0.70343 0.25551 0.0
H105 H 0.77186 0.72802 0.30632 0.0
H106 H 0.79787 0.72779 0.33262 0.0
H107 H 0.81058 0.77898 0.31187 0.0
H108 H 0.78507 0.7789 0.28461 0.0
H109 H 0.76869 0.72847 0.26187 0.0
H110 H 0.74875 0.76771 0.32272 0.0
H111 H 0.74991 0.79313 0.34905 0.0
H112 H 0.75337 0.82576 0.28974 0.0
H113 H 0.75155 0.80031 0.26361 0.0
C114 C 0.71743 0.74981 0.22691 0.0
C115 C 0.71362 0.76301 0.21123 0.0
C116 C 0.69866 0.76225 0.19647 0.0
C117 C 0.68717 0.74833 0.19724 0.0
C118 C 0.69103 0.73513 0.21298 0.0
C119 C 0.706 0.73589 0.22773 0.0
C120 C 0.73309 0.75086 0.24293 0.0
C121 C 0.73529 0.76542 0.25805 0.0
C122 C 0.74529 0.73733 0.24422 0.0
C123 C 0.74418 0.72188 0.22798 0.0
C124 C 0.74225 0.72365 0.20364 0.0
C125 C 0.74134 0.70909 0.18854 0.0
C126 C 0.74256 0.69236 0.19738 0.0
C127 C 0.74466 0.69065 0.22177 0.0
C128 C 0.74544 0.70521 0.23684 0.0
C129 C 0.77635 0.75355 0.29363 0.0
C130 C 0.78022 0.73921 0.30737 0.0
C131 C 0.79503 0.73908 0.32241 0.0
C132 C 0.80607 0.75339 0.32424 0.0
C133 C 0.80208 0.76789 0.3109 0.0
C134 C 0.78747 0.76787 0.29546 0.0
C135 C 0.76118 0.75305 0.27658 0.0
C136 C 0.75913 0.73865 0.26111 0.0
C137 C 0.74908 0.76667 0.27501 0.0
C138 C 0.75011 0.78208 0.29118 0.0
C139 C 0.74979 0.78036 0.31544 0.0
C140 C 0.75056 0.79495 0.33049 0.0
C141 C 0.75175 0.81164 0.32165 0.0
C142 C 0.75214 0.81324 0.29728 0.0
C143 C 0.7512 0.79866 0.28225 0.0
H144 H 0.22036 0.73161 0.28107 0.0
H145 H 0.19641 0.73198 0.30633 0.0
H146 H 0.17986 0.78095 0.27874 0.0
H147 H 0.20319 0.77987 0.25234 0.0
H148 H 0.22165 0.72937 0.23672 0.0
H149 H 0.24119 0.77123 0.29482 0.0
H150 H 0.24075 0.79725 0.31981 0.0
H151 H 0.23691 0.82844 0.25853 0.0
H152 H 0.23671 0.80228 0.23361 0.0
H153 H 0.26414 0.7751 0.18575 0.0
H154 H 0.28941 0.77395 0.16247 0.0
H155 H 0.30547 0.72675 0.19529 0.0
H156 H 0.28048 0.72814 0.21894 0.0
H157 H 0.26174 0.77847 0.23093 0.0
H158 H 0.24181 0.73447 0.17315 0.0
H159 H 0.2422 0.70728 0.15043 0.0
H160 H 0.24976 0.6795 0.2145 0.0
H161 H 0.24886 0.70667 0.23701 0.0
C162 C 0.21372 0.75578 0.26492 0.0
C163 C 0.2115 0.74237 0.28033 0.0
C164 C 0.19789 0.74272 0.29501 0.0
C165 C 0.18621 0.75656 0.29477 0.0
C166 C 0.18845 0.76998 0.27927 0.0
C167 C 0.20196 0.76951 0.26435 0.0
C168 C 0.22817 0.75514 0.24919 0.0
C169 C 0.2305 0.74008 0.23569 0.0
C170 C 0.23957 0.76916 0.24732 0.0
C171 C 0.23882 0.78486 0.2624 0.0
C172 C 0.24 0.78366 0.28679 0.0
C173 C 0.23991 0.79854 0.30102 0.0
C174 C 0.23884 0.81487 0.2911 0.0
C175 C 0.23754 0.81602 0.26665 0.0
C176 C 0.23757 0.80112 0.25242 0.0
C177 C 0.27023 0.75157 0.20386 0.0
C178 C 0.2731 0.7645 0.18794 0.0
C179 C 0.28754 0.76385 0.17468 0.0
C180 C 0.29934 0.75022 0.17702 0.0
C181 C 0.29644 0.73725 0.19288 0.0
C182 C 0.28211 0.73801 0.20633 0.0
C183 C 0.25523 0.75268 0.21857 0.0
C184 C 0.25278 0.76784 0.23185 0.0
C185 C 0.24386 0.73867 0.22052 0.0
C186 C 0.24528 0.72248 0.20668 0.0
C187 C 0.24369 0.7225 0.18221 0.0
C188 C 0.24398 0.70698 0.16929 0.0
C189 C 0.2459 0.69123 0.1807 0.0
C190 C 0.24792 0.69137 0.20523 0.0
C191 C 0.2475 0.70686 0.2181 0.0
H192 H 0.20489 0.76897 0.75425 0.0
H193 H 0.1776 0.7729 0.73157 0.0
H194 H 0.20333 0.76379 0.66773 0.0
H195 H 0.23062 0.76045 0.69057 0.0
H196 H 0.22607 0.74004 0.75498 0.0
H197 H 0.2283 0.79958 0.73494 0.0
H198 H 0.22741 0.82436 0.70969 0.0
H199 H 0.27201 0.80486 0.6764 0.0
H200 H 0.27231 0.77969 0.701 0.0
H201 H 0.29957 0.75157 0.74786 0.0
H202 H 0.32676 0.74937 0.77124 0.0
H203 H 0.29898 0.74951 0.83414 0.0
H204 H 0.27203 0.75285 0.81079 0.0
H205 H 0.27735 0.77662 0.74638 0.0
H206 H 0.27406 0.71618 0.76398 0.0
H207 H 0.2753 0.69128 0.78928 0.0
H208 H 0.23378 0.71269 0.82725 0.0
H209 H 0.23267 0.73761 0.80199 0.0
C210 C 0.21974 0.76452 0.72406 0.0
C211 C 0.20461 0.76789 0.73536 0.0
C212 C 0.18902 0.77005 0.72236 0.0
C213 C 0.18824 0.76864 0.6978 0.0
C214 C 0.20349 0.76527 0.68657 0.0
C215 C 0.21909 0.76326 0.69959 0.0
C216 C 0.23615 0.76189 0.73789 0.0
C217 C 0.23726 0.74813 0.75333 0.0
C218 C 0.25078 0.77229 0.73514 0.0
C219 C 0.25022 0.78753 0.71973 0.0
C220 C 0.23774 0.80047 0.72197 0.0
C221 C 0.23739 0.81481 0.70767 0.0
C222 C 0.24964 0.81671 0.69088 0.0
C223 C 0.26219 0.80377 0.68881 0.0
C224 C 0.26248 0.78941 0.70306 0.0
C225 C 0.28373 0.7522 0.77752 0.0
C226 C 0.29937 0.75114 0.7667 0.0
C227 C 0.31489 0.7497 0.78009 0.0
C228 C 0.31508 0.74924 0.8046 0.0
C229 C 0.29936 0.75006 0.81535 0.0
C230 C 0.28388 0.75171 0.80197 0.0
C231 C 0.26736 0.75466 0.76337 0.0
C232 C 0.26622 0.76843 0.7479 0.0
C233 C 0.25273 0.74421 0.76595 0.0
C234 C 0.25334 0.72888 0.78113 0.0
C235 C 0.26525 0.71554 0.77779 0.0
C236 C 0.26587 0.70124 0.79218 0.0
C237 C 0.25466 0.69998 0.81036 0.0
C238 C 0.24272 0.71332 0.8136 0.0
C239 C 0.24199 0.72753 0.79905 0.0
H240 H 0.28743 0.24972 0.78133 0.0
H241 H 0.31587 0.25246 0.80153 0.0
H242 H 0.29253 0.25312 0.86799 0.0
H243 H 0.26408 0.25117 0.84748 0.0
H244 H 0.26124 0.2253 0.78379 0.0
H245 H 0.27109 0.28485 0.79471 0.0
H246 H 0.27963 0.31146 0.81609 0.0
H247 H 0.23727 0.30555 0.86035 0.0
H248 H 0.22919 0.27847 0.83936 0.0
H249 H 0.19178 0.25235 0.78905 0.0
H250 H 0.16502 0.25437 0.76453 0.0
H251 H 0.19382 0.24862 0.70279 0.0
H252 H 0.22048 0.24755 0.72733 0.0
H253 H 0.21971 0.27331 0.79178 0.0
H254 H 0.20898 0.21267 0.76924 0.0
H255 H 0.20435 0.18814 0.74157 0.0
H256 H 0.25231 0.19988 0.71143 0.0
H257 H 0.25643 0.22459 0.73825 0.0
C258 C 0.27371 0.25028 0.81294 0.0
C259 C 0.2885 0.25034 0.80026 0.0
C260 C 0.30476 0.25185 0.81187 0.0
C261 C 0.30655 0.25304 0.83644 0.0
C262 C 0.29165 0.25258 0.84907 0.0
C263 C 0.27538 0.25131 0.83741 0.0
C264 C 0.25651 0.24984 0.80046 0.0
C265 C 0.25211 0.23576 0.78551 0.0
C266 C 0.24471 0.2635 0.80271 0.0
C267 C 0.24967 0.27962 0.81572 0.0
C268 C 0.26379 0.28917 0.80923 0.0
C269 C 0.26855 0.30444 0.8213 0.0
C270 C 0.25913 0.31056 0.8399 0.0
C271 C 0.24492 0.301 0.84631 0.0
C272 C 0.2402 0.28565 0.83425 0.0
C273 C 0.20808 0.24952 0.76004 0.0
C274 C 0.19228 0.25158 0.77022 0.0
C275 C 0.177 0.25259 0.75618 0.0
C276 C 0.17725 0.2516 0.73167 0.0
C277 C 0.19314 0.24964 0.72157 0.0
C278 C 0.2084 0.24877 0.7356 0.0
C279 C 0.22432 0.24869 0.7749 0.0
C280 C 0.22857 0.26258 0.79043 0.0
C281 C 0.23627 0.23512 0.77245 0.0
C282 C 0.23303 0.22044 0.75573 0.0
C283 C 0.21833 0.21004 0.75643 0.0
C284 C 0.21577 0.19599 0.74074 0.0
C285 C 0.22791 0.19214 0.72423 0.0
C286 C 0.24253 0.20268 0.72358 0.0
C287 C 0.24503 0.21669 0.73912 0.0
H288 H 0.72793 0.23285 0.81119 0.0
H289 H 0.70374 0.23466 0.83653 0.0
H290 H 0.68285 0.27727 0.79724 0.0
H291 H 0.70718 0.27557 0.77214 0.0
H292 H 0.7267 0.22785 0.76133 0.0
H293 H 0.74498 0.26897 0.82161 0.0
H294 H 0.743 0.29465 0.84685 0.0
H295 H 0.74402 0.3266 0.78653 0.0
H296 H 0.74498 0.30075 0.76125 0.0
H297 H 0.76911 0.27441 0.71213 0.0
H298 H 0.79363 0.27364 0.68751 0.0
H299 H 0.80958 0.22503 0.71653 0.0
H300 H 0.78526 0.22601 0.74144 0.0
H301 H 0.76796 0.27625 0.75765 0.0
H302 H 0.7477 0.23527 0.69706 0.0
H303 H 0.7487 0.20952 0.67155 0.0
H304 H 0.75264 0.17772 0.73222 0.0
H305 H 0.7513 0.20353 0.75754 0.0
C306 C 0.71932 0.25412 0.78993 0.0
C307 C 0.71812 0.24256 0.80807 0.0
C308 C 0.7044 0.24367 0.82256 0.0
C309 C 0.69151 0.25612 0.81879 0.0
C310 C 0.69261 0.26752 0.8004 0.0
C311 C 0.70648 0.26659 0.78615 0.0
C312 C 0.73403 0.25317 0.77492 0.0
C313 C 0.73587 0.23832 0.76066 0.0
C314 C 0.74569 0.26708 0.77387 0.0
C315 C 0.74481 0.28282 0.7894 0.0
C316 C 0.74448 0.28148 0.81374 0.0
C317 C 0.7436 0.29626 0.82824 0.0
C318 C 0.74333 0.31282 0.81883 0.0
C319 C 0.7439 0.31412 0.79445 0.0
C320 C 0.74463 0.29931 0.77994 0.0
C321 C 0.77522 0.25018 0.72845 0.0
C322 C 0.7779 0.2636 0.71322 0.0
C323 C 0.79191 0.26316 0.69919 0.0
C324 C 0.80346 0.24925 0.70008 0.0
C325 C 0.80073 0.23578 0.71525 0.0
C326 C 0.78682 0.23632 0.72946 0.0
C327 C 0.76058 0.25097 0.74376 0.0
C328 C 0.75876 0.26579 0.75818 0.0
C329 C 0.74889 0.23707 0.74487 0.0
C330 C 0.74955 0.22138 0.72926 0.0
C331 C 0.74887 0.22275 0.70486 0.0
C332 C 0.74951 0.20798 0.69028 0.0
C333 C 0.7508 0.19146 0.69975 0.0
C334 C 0.75139 0.19016 0.72423 0.0
C335 C 0.7507 0.20494 0.73878 0.0
H336 H 0.77347 0.73658 0.70353 0.0
H337 H 0.79716 0.73853 0.67786 0.0
H338 H 0.82171 0.77693 0.72514 0.0
H339 H 0.79758 0.77533 0.75018 0.0
H340 H 0.77462 0.7278 0.75063 0.0
H341 H 0.7571 0.77532 0.70299 0.0
H342 H 0.75725 0.80348 0.68503 0.0
H343 H 0.76388 0.82828 0.75353 0.0
H344 H 0.76421 0.80004 0.77134 0.0
H345 H 0.7347 0.77186 0.81135 0.0
H346 H 0.70978 0.77015 0.83506 0.0
H347 H 0.69147 0.72544 0.79416 0.0
H348 H 0.71611 0.72748 0.76997 0.0
H349 H 0.73724 0.77778 0.76779 0.0
H350 H 0.75286 0.73111 0.81607 0.0
H351 H 0.74794 0.70379 0.83466 0.0
H352 H 0.74503 0.67748 0.76707 0.0
H353 H 0.74952 0.70498 0.74838 0.0
C354 C 0.78376 0.75585 0.72867 0.0
C355 C 0.78396 0.74543 0.70829 0.0
C356 C 0.79758 0.74651 0.69371 0.0
C357 C 0.81144 0.75785 0.69942 0.0
C358 C 0.81116 0.76826 0.71994 0.0
C359 C 0.79742 0.76731 0.73437 0.0
C360 C 0.76936 0.75452 0.74414 0.0
C361 C 0.76632 0.73867 0.75422 0.0
C362 C 0.75892 0.76881 0.74942 0.0
C363 C 0.76077 0.78563 0.73846 0.0
C364 C 0.75898 0.7868 0.71409 0.0
C365 C 0.75886 0.80289 0.70389 0.0
C366 C 0.76044 0.81806 0.71792 0.0
C367 C 0.76278 0.81681 0.74229 0.0
C368 C 0.76288 0.80071 0.75248 0.0
C369 C 0.72741 0.7497 0.78901 0.0
C370 C 0.72529 0.76173 0.80739 0.0
C371 C 0.71107 0.76075 0.82093 0.0
C372 C 0.69876 0.74763 0.81646 0.0
C373 C 0.7009 0.73555 0.79815 0.0
C374 C 0.71499 0.73669 0.78437 0.0
C375 C 0.7424 0.75106 0.77437 0.0
C376 C 0.7456 0.76691 0.76444 0.0
C377 C 0.75313 0.73682 0.76951 0.0
C378 C 0.75124 0.72011 0.78082 0.0
C379 C 0.75103 0.71949 0.80522 0.0
C380 C 0.74823 0.70392 0.81581 0.0
C381 C 0.74593 0.68863 0.80222 0.0
C382 C 0.74678 0.68912 0.77788 0.0
C383 C 0.74937 0.70478 0.76724 0.0
C384 C 0.02303 0.26488 0.55743 0.0
C385 C 0.02675 0.28117 0.56717 0.0
C386 C 0.01843 0.29272 0.55302 0.0
C387 C 0.00999 0.28287 0.53566 0.0
N388 N 0.01236 0.2657 0.5379 0.0
Co389 Co 0.00167 0.24674 0.51727 0.0
N390 N 0.9902 0.26379 0.49585 0.0
C391 C 0.99211 0.28113 0.49692 0.0
C392 C 0.98289 0.28939 0.47945 0.0
C393 C 0.97444 0.27657 0.46657 0.0
C394 C 0.97892 0.2612 0.47712 0.0
N395 N 0.99031 0.2278 0.4972 0.0
C396 C 0.97828 0.2287 0.47911 0.0
C397 C 0.97267 0.21242 0.47125 0.0
C398 C 0.98143 0.20083 0.48485 0.0
C399 C 0.99173 0.21063 0.50031 0.0
N400 N 0.01375 0.22968 0.53819 0.0
C401 C 0.01339 0.21229 0.5355 0.0
C402 C 0.0238 0.20398 0.55168 0.0
C403 C 0.03141 0.2168 0.56544 0.0
C404 C 0.02506 0.23229 0.55695 0.0
N405 N 0.98153 0.24701 0.53671 0.0
C406 C 0.95244 0.24723 0.5635 0.0
C407 C 0.96177 0.2321 0.55994 0.0
C408 C 0.97611 0.23226 0.54655 0.0
C409 C 0.95801 0.26227 0.55348 0.0
C410 C 0.97249 0.26189 0.54036 0.0
N411 N 0.02186 0.24648 0.49778 0.0
C412 C 0.0421 0.23086 0.47485 0.0
C413 C 0.05071 0.24609 0.47048 0.0
C414 C 0.04462 0.26153 0.48 0.0
C415 C 0.0303 0.26143 0.49343 0.0
C416 C 0.02786 0.23134 0.48843 0.0
H417 H 0.02639 0.27363 0.50019 0.0
H418 H 0.02195 0.21927 0.49109 0.0
H419 H 0.98257 0.22027 0.54437 0.0
H420 H 0.97604 0.27379 0.53322 0.0
C421 C 0.00095 0.28937 0.51606 0.0
C422 C 0.03046 0.24912 0.5669 0.0
C423 C 0.97134 0.24463 0.46954 0.0
C424 C 0.00278 0.20413 0.518 0.0
H425 H 0.0349 0.2844 0.58269 0.0
H426 H 0.0188 0.30664 0.55487 0.0
H427 H 0.98189 0.30313 0.47693 0.0
H428 H 0.96557 0.27836 0.45153 0.0
H429 H 0.96303 0.2092 0.45739 0.0
H430 H 0.98021 0.18692 0.48388 0.0
H431 H 0.02567 0.19022 0.55322 0.0
H432 H 0.04072 0.21491 0.57995 0.0
H433 H 0.95817 0.22015 0.56762 0.0
H434 H 0.9511 0.27429 0.55542 0.0
H435 H 0.04617 0.21858 0.46761 0.0
H436 H 0.05098 0.27367 0.4774 0.0
C437 C 0.73951 0.03131 0.53821 0.0
C438 C 0.72369 0.0392 0.54067 0.0
C439 C 0.71176 0.02947 0.52778 0.0
C440 C 0.72091 0.01633 0.51805 0.0
N441 N 0.738 0.017 0.52397 0.0
Co442 Co 0.75606 0.00095 0.5124 0.0
N443 N 0.73837 0.98643 0.49382 0.0
C444 C 0.7211 0.98862 0.49296 0.0
C445 C 0.71211 0.97622 0.47979 0.0
C446 C 0.72433 0.96539 0.47173 0.0
C447 C 0.74019 0.97195 0.48029 0.0
N448 N 0.77417 0.98522 0.50024 0.0
C449 C 0.77272 0.9713 0.48526 0.0
C450 C 0.78873 0.96465 0.48054 0.0
C451 C 0.80069 0.97452 0.4932 0.0
C452 C 0.79139 0.98669 0.50472 0.0
N453 N 0.77371 0.01514 0.53159 0.0
C454 C 0.79086 0.01225 0.53378 0.0
C455 C 0.79968 0.02371 0.54874 0.0
C456 C 0.78745 0.03461 0.55663 0.0
C457 C 0.77181 0.02924 0.54583 0.0
N458 N 0.75372 0.98609 0.53945 0.0
C459 C 0.75067 0.96529 0.57823 0.0
C460 C 0.76674 0.96874 0.56998 0.0
C461 C 0.76795 0.97903 0.55071 0.0
C462 C 0.73612 0.97241 0.56677 0.0
C463 C 0.73793 0.98274 0.54759 0.0
N464 N 0.75841 0.01594 0.48547 0.0
C465 C 0.77575 0.03509 0.46435 0.0
C466 C 0.76127 0.0405 0.45106 0.0
C467 C 0.74548 0.03272 0.4542 0.0
C468 C 0.74434 0.02055 0.47145 0.0
C469 C 0.77408 0.02273 0.48113 0.0
H470 H 0.73187 0.01542 0.4735 0.0
H471 H 0.7856 0.01922 0.49073 0.0
H472 H 0.78054 0.98098 0.5452 0.0
H473 H 0.72639 0.98786 0.53965 0.0
C474 C 0.71376 0.00281 0.50404 0.0
C475 C 0.75557 0.038 0.54966 0.0
C476 C 0.75655 0.96393 0.47504 0.0
C477 C 0.79841 0.99917 0.52065 0.0
H478 H 0.72102 0.05081 0.55072 0.0
H479 H 0.69802 0.03167 0.52581 0.0
H480 H 0.69831 0.9752 0.47638 0.0
H481 H 0.72181 0.95395 0.46078 0.0
H482 H 0.79152 0.95378 0.46916 0.0
H483 H 0.81452 0.97293 0.49403 0.0
H484 H 0.81339 0.02418 0.5532 0.0
H485 H 0.78982 0.04535 0.5689 0.0
H486 H 0.77835 0.96321 0.57803 0.0
H487 H 0.7234 0.97009 0.57264 0.0
H488 H 0.78829 0.04062 0.4621 0.0
H489 H 0.73394 0.03656 0.44413 0.0
C490 C 0.02539 0.77994 0.53691 0.0
C491 C 0.02944 0.79678 0.54417 0.0
C492 C 0.01971 0.80727 0.53 0.0
C493 C 0.01022 0.7963 0.51509 0.0
N494 N 0.01323 0.77941 0.51892 0.0
Co495 Co 0.00173 0.75913 0.50189 0.0
N496 N 0.98792 0.77461 0.48056 0.0
C497 C 0.98901 0.79199 0.47974 0.0
C498 C 0.97805 0.79898 0.46295 0.0
C499 C 0.96922 0.78528 0.45267 0.0
C500 C 0.97523 0.7707 0.46402 0.0
N501 N 0.98982 0.73888 0.48525 0.0
C502 C 0.97626 0.73847 0.46917 0.0
C503 C 0.97086 0.72169 0.46366 0.0
C504 C 0.98135 0.71113 0.47671 0.0
C505 C 0.9924 0.722 0.48955 0.0
N506 N 0.0159 0.74362 0.52287 0.0
C507 C 0.01593 0.72616 0.52216 0.0
C508 C 0.02762 0.71906 0.53791 0.0
C509 C 0.03567 0.73278 0.54929 0.0
C510 C 0.02828 0.74754 0.53991 0.0
N511 N 0.98333 0.75995 0.52424 0.0
C512 C 0.95589 0.76058 0.55405 0.0
C513 C 0.96545 0.74556 0.55057 0.0
C514 C 0.97892 0.74551 0.53566 0.0
C515 C 0.96061 0.77538 0.54269 0.0
C516 C 0.97431 0.77481 0.52814 0.0
N517 N 0.02015 0.7583 0.47942 0.0
C518 C 0.04025 0.74211 0.45689 0.0
C519 C 0.04656 0.75725 0.44806 0.0
C520 C 0.03944 0.7729 0.45509 0.0
C521 C 0.02647 0.77314 0.47078 0.0
C522 C 0.02706 0.74292 0.47226 0.0
H523 H 0.02187 0.78552 0.47575 0.0
H524 H 0.02272 0.73091 0.47811 0.0
H525 H 0.98548 0.73359 0.53351 0.0
H526 H 0.97721 0.78651 0.51997 0.0
C527 C -0.00084 0.80147 0.49649 0.0
C528 C 0.03376 0.76496 0.54731 0.0
C529 C 0.96762 0.75366 0.45965 0.0
C530 C 0.00469 0.7168 0.50666 0.0
H531 H 0.03863 0.80105 0.5581 0.0
H532 H 0.01976 0.82122 0.53028 0.0
H533 H 0.97623 0.81247 0.45924 0.0
H534 H 0.95908 0.78599 0.43892 0.0
H535 H 0.96018 0.71743 0.45193 0.0
H536 H 0.98064 0.69722 0.47733 0.0
H537 H 0.03009 0.70552 0.54065 0.0
H538 H 0.04596 0.73193 0.5628 0.0
H539 H 0.96261 0.73382 0.55932 0.0
H540 H 0.95355 0.78732 0.54455 0.0
H541 H 0.04533 0.72966 0.45172 0.0
H542 H 0.04409 0.78498 0.44887 0.0
C543 C 0.26507 0.9752 0.54097 0.0
C544 C 0.28098 0.96944 0.54986 0.0
C545 C 0.29304 0.98002 0.54165 0.0
C546 C 0.28388 0.99165 0.52835 0.0
N547 N 0.26666 0.98916 0.52752 0.0
Co548 Co 0.24863 0.00348 0.51055 0.0
N549 N 0.26649 0.01864 0.49772 0.0
C550 C 0.28377 0.01717 0.50128 0.0
C551 C 0.29281 0.0294 0.49047 0.0
C552 C 0.28062 0.03929 0.47921 0.0
C553 C 0.26474 0.03244 0.48371 0.0
N554 N 0.23058 0.01805 0.49404 0.0
C555 C 0.23216 0.03205 0.48066 0.0
C556 C 0.21619 0.03822 0.47259 0.0
C557 C 0.20413 0.02794 0.48137 0.0
C558 C 0.21332 0.01606 0.49418 0.0
N559 N 0.23078 0.98804 0.52291 0.0
C560 C 0.21352 0.98911 0.51866 0.0
C561 C 0.20453 0.97653 0.52891 0.0
C562 C 0.21674 0.96676 0.54034 0.0
C563 C 0.23256 0.97403 0.5365 0.0
N564 N 0.24782 0.01896 0.53854 0.0
C565 C 0.24617 0.0431 0.57577 0.0
C566 C 0.23136 0.03475 0.56636 0.0
C567 C 0.23246 0.02286 0.54784 0.0
C568 C 0.26192 0.03868 0.56701 0.0
C569 C 0.26246 0.02652 0.54868 0.0
N570 N 0.2494 0.98802 0.48258 0.0
C571 C 0.23469 0.97098 0.45154 0.0
C572 C 0.25025 0.9641 0.44491 0.0
C573 C 0.26545 0.96991 0.45682 0.0
C574 C 0.26473 0.98182 0.47543 0.0
C575 C 0.23457 0.98287 0.4702 0.0
H576 H 0.27672 0.9856 0.48397 0.0
H577 H 0.22228 0.98743 0.47455 0.0
H578 H 0.22065 0.0173 0.54105 0.0
H579 H 0.27484 0.0237 0.54279 0.0
C580 C 0.2911 0.00463 0.51576 0.0
C581 C 0.24888 0.967 0.54598 0.0
C582 C 0.2484 0.03977 0.47471 0.0
C583 C 0.20614 0.00241 0.50558 0.0
H584 H 0.2836 0.95868 0.56111 0.0
H585 H 0.30687 0.97925 0.54485 0.0
H586 H 0.30663 0.0311 0.491 0.0
H587 H 0.28318 0.05042 0.46906 0.0
H588 H 0.21351 0.04894 0.46131 0.0
H589 H 0.19029 0.02887 0.47849 0.0
H590 H 0.19072 0.97472 0.52821 0.0
H591 H 0.21427 0.95553 0.55036 0.0
H592 H 0.21886 0.03788 0.5726 0.0
H593 H 0.27374 0.04473 0.57411 0.0
H594 H 0.22255 0.96677 0.44295 0.0
H595 H 0.27785 0.96516 0.452 0.0
C596 C 0.52366 0.76128 0.04056 0.0
C597 C 0.52806 0.7772 0.05093 0.0
C598 C 0.51946 0.7893 0.03798 0.0
C599 C 0.51026 0.7801 0.02063 0.0
N600 N 0.51235 0.76283 0.02184 0.0
Co601 Co 0.50112 0.74462 0.00048 0.0
N602 N 0.49027 0.76244 0.97974 0.0
C603 C 0.49265 0.77971 0.98163 0.0
C604 C 0.48394 0.7886 0.96432 0.0
C605 C 0.47537 0.77629 0.95065 0.0
C606 C 0.47924 0.76055 0.96062 0.0
N607 N 0.48918 0.72642 0.97973 0.0
C608 C 0.47741 0.72802 0.96147 0.0
C609 C 0.47118 0.71206 0.95314 0.0
C610 C 0.4793 0.69996 0.96658 0.0
C611 C 0.48985 0.70916 0.98242 0.0
N612 N 0.51273 0.72679 0.0206 0.0
C613 C 0.51163 0.70946 0.01748 0.0
C614 C 0.52197 0.70053 0.0331 0.0
C615 C 0.53044 0.71289 0.0468 0.0
C616 C 0.52464 0.7287 0.03878 0.0
N617 N 0.48093 0.74509 0.01996 0.0
C618 C 0.45168 0.74564 0.04658 0.0
C619 C 0.4609 0.73042 0.04309 0.0
C620 C 0.4753 0.73041 0.02978 0.0
C621 C 0.45748 0.76061 0.03661 0.0
C622 C 0.47203 0.76007 0.02362 0.0
N623 N 0.52129 0.74417 0.981 0.0
C624 C 0.54078 0.72861 0.95682 0.0
C625 C 0.55013 0.74364 0.95362 0.0
C626 C 0.54477 0.75892 0.96446 0.0
C627 C 0.53041 0.75892 0.97779 0.0
C628 C 0.52659 0.72914 0.97055 0.0
H629 H 0.52701 0.77103 0.98542 0.0
H630 H 0.52013 0.71721 0.97245 0.0
H631 H 0.4816 0.71834 0.02765 0.0
H632 H 0.47572 0.77194 0.01655 0.0
C633 C 0.5015 0.78728 0.00128 0.0
C634 C 0.53136 0.74517 0.04826 0.0
C635 C 0.4713 0.74435 0.95212 0.0
C636 C 0.50066 0.70198 -0.00015 0.0
H637 H 0.537 0.7798 0.06587 0.0
H638 H 0.5204 0.80318 0.04031 0.0
H639 H 0.48339 0.80243 0.96237 0.0
H640 H 0.46683 0.77864 0.93545 0.0
H641 H 0.46157 0.70937 0.93905 0.0
H642 H 0.47755 0.68612 0.96518 0.0
H643 H 0.52337 0.68669 0.03418 0.0
H644 H 0.54 0.71051 0.06084 0.0
H645 H 0.45714 0.71851 0.05073 0.0
H646 H 0.45069 0.77271 0.03844 0.0
H647 H 0.54422 0.71645 0.94859 0.0
H648 H 0.55171 0.77088 0.96297 0.0
C649 C 0.23538 0.52158 0.03898 0.0
C650 C 0.21821 0.52505 0.04229 0.0
C651 C 0.20878 0.51536 0.02586 0.0
C652 C 0.22069 0.50665 0.01346 0.0
N653 N 0.23717 0.50994 0.02123 0.0
Co654 Co 0.25859 0.50112 0.00734 0.0
N655 N 0.24475 0.48794 0.98208 0.0
C656 C 0.2274 0.487 0.9789 0.0
C657 C 0.22171 0.47638 0.96048 0.0
C658 C 0.2363 0.4699 0.95159 0.0
C659 C 0.25005 0.47701 0.96519 0.0
N660 N 0.28002 0.49266 0.99317 0.0
C661 C 0.28185 0.48155 0.97487 0.0
C662 C 0.29901 0.47895 0.97063 0.0
C663 C 0.30841 0.48864 0.98709 0.0
C664 C 0.29648 0.49655 0.00034 0.0
N665 N 0.27244 0.51394 0.03289 0.0
C666 C 0.28976 0.51416 0.03676 0.0
C667 C 0.29544 0.5241 0.05587 0.0
C668 C 0.28089 0.53083 0.06454 0.0
C669 C 0.26717 0.52464 0.05002 0.0
N670 N 0.25849 0.48043 0.02724 0.0
C671 C 0.25824 0.45133 0.056 0.0
C672 C 0.27356 0.45994 0.05227 0.0
C673 C 0.27341 0.47425 0.03793 0.0
C674 C 0.24308 0.4575 0.04482 0.0
C675 C 0.24349 0.4719 0.0307 0.0
N676 N 0.25867 0.52183 0.98747 0.0
C677 C 0.27325 0.5467 0.97327 0.0
C678 C 0.25861 0.55138 0.95942 0.0
C679 C 0.24402 0.5409 0.96001 0.0
C680 C 0.2443 0.52645 0.97406 0.0
C681 C 0.27302 0.53203 0.98694 0.0
H682 H 0.23267 0.51921 0.97375 0.0
H683 H 0.28459 0.52926 0.99705 0.0
H684 H 0.28555 0.48007 0.03571 0.0
H685 H 0.23146 0.4759 0.0228 0.0
C686 C 0.21682 0.49593 0.99384 0.0
C687 C 0.24957 0.53043 0.05204 0.0
C688 C 0.26784 0.47224 0.96221 0.0
C689 C 0.30036 0.50626 0.02089 0.0
H690 H 0.21302 0.53397 0.05486 0.0
H691 H 0.19492 0.51509 0.02287 0.0
H692 H 0.20854 0.47343 0.95452 0.0
H693 H 0.23679 0.46072 0.93706 0.0
H694 H 0.30418 0.47052 0.95743 0.0
H695 H 0.32229 0.48931 0.98966 0.0
H696 H 0.30861 0.52666 0.06221 0.0
H697 H 0.28042 0.53977 0.07935 0.0
H698 H 0.28573 0.45555 0.06015 0.0
H699 H 0.23081 0.45145 0.04722 0.0
H700 H 0.28485 0.55443 0.97389 0.0
H701 H 0.23238 0.54365 0.94944 0.0
C702 C 0.47693 0.27621 0.9804 0.0
C703 C 0.47263 0.29269 0.97327 0.0
C704 C 0.48207 0.3039 0.9877 0.0
C705 C 0.49164 0.29368 0.00262 0.0
N706 N 0.48901 0.27659 0.99849 0.0
Co707 Co 0.50065 0.25718 0.0155 0.0
N708 N 0.51349 0.27371 0.03785 0.0
C709 C 0.51197 0.29109 0.03892 0.0
C710 C 0.5223 0.29893 0.05636 0.0
C711 C 0.53111 0.2858 0.0669 0.0
C712 C 0.52571 0.27068 0.05507 0.0
N713 N 0.51275 0.23778 0.0321 0.0
C714 C 0.52562 0.23824 0.04919 0.0
C715 C 0.53135 0.22179 0.05457 0.0
C716 C 0.5218 0.21055 0.04035 0.0
C717 C 0.51094 0.22071 0.02704 0.0
N718 N 0.48737 0.24062 0.99357 0.0
C719 C 0.48794 0.22318 0.99371 0.0
C720 C 0.47659 0.21525 0.97762 0.0
C721 C 0.46808 0.22837 0.96668 0.0
C722 C 0.47489 0.24365 0.97663 0.0
N723 N 0.5196 0.25789 0.99402 0.0
C724 C 0.5474 0.25855 0.96486 0.0
C725 C 0.53798 0.24344 0.96724 0.0
C726 C 0.52436 0.24337 0.98188 0.0
C727 C 0.54245 0.27339 0.97713 0.0
C728 C 0.52856 0.27281 0.9913 0.0
N729 N 0.4817 0.25646 0.03699 0.0
C730 C 0.46131 0.24027 0.0577 0.0
C731 C 0.45403 0.25546 0.06615 0.0
C732 C 0.46091 0.27116 0.06003 0.0
C733 C 0.47456 0.27137 0.04543 0.0
C734 C 0.47512 0.24106 0.04342 0.0
H735 H 0.47898 0.28374 0.04103 0.0
H736 H 0.48017 0.22903 0.03774 0.0
H737 H 0.51795 0.23136 0.98315 0.0
H738 H 0.52545 0.28459 6e-05 0.0
C739 C 0.50208 0.29975 0.02183 0.0
C740 C 0.46868 0.26069 0.97002 0.0
C741 C 0.53335 0.25392 0.0599 0.0
C742 C 0.49922 0.21462 0.00928 0.0
H743 H 0.46337 0.29624 0.95937 0.0
H744 H 0.48165 0.31785 0.98772 0.0
H745 H 0.52371 0.3126 0.06038 0.0
H746 H 0.5408 0.28722 0.08122 0.0
H747 H 0.5416 0.21824 0.06711 0.0
H748 H 0.52292 0.19664 0.03945 0.0
H749 H 0.47454 0.20155 0.97449 0.0
H750 H 0.45781 0.22676 0.95319 0.0
H751 H 0.541 0.23164 0.95778 0.0
H752 H 0.54941 0.28541 0.97621 0.0
H753 H 0.45648 0.2278 0.06226 0.0
H754 H 0.45554 0.28326 0.06606 0.0
C755 C 0.72234 0.53209 0.03574 0.0
C756 C 0.70648 0.53895 0.04077 0.0
C757 C 0.69425 0.52841 0.02987 0.0
C758 C 0.70326 0.51585 0.01865 0.0
N759 N 0.72055 0.51766 0.02177 0.0
Co760 Co 0.73834 0.50286 0.00704 0.0
N761 N 0.72029 0.48723 0.99125 0.0
C762 C 0.70312 0.48812 0.99351 0.0
C763 C 0.69397 0.47516 0.98169 0.0
C764 C 0.70599 0.46529 0.97131 0.0
C765 C 0.72186 0.47294 0.97725 0.0
N766 N 0.75611 0.48852 0.99155 0.0
C767 C 0.75429 0.47462 0.97661 0.0
C768 C 0.77004 0.46918 0.96903 0.0
C769 C 0.78225 0.47978 0.97983 0.0
C770 C 0.77332 0.49117 0.99315 0.0
N771 N 0.75643 0.51809 0.02355 0.0
C772 C 0.77368 0.5162 0.02308 0.0
C773 C 0.78293 0.52807 0.03687 0.0
C774 C 0.7709 0.53819 0.0468 0.0
C775 C 0.75491 0.53198 0.03827 0.0
N776 N 0.73954 0.48762 0.03417 0.0
C777 C 0.74066 0.4638 0.07023 0.0
C778 C 0.75557 0.46821 0.05947 0.0
C779 C 0.75475 0.48015 0.04176 0.0
C780 C 0.72534 0.47208 0.06329 0.0
C781 C 0.72507 0.4838 0.04536 0.0
N782 N 0.73708 0.51806 0.9799 0.0
C783 C 0.75085 0.53705 0.95421 0.0
C784 C 0.73498 0.54113 0.94305 0.0
C785 C 0.72027 0.53307 0.9501 0.0
C786 C 0.72161 0.52161 0.96835 0.0
C787 C 0.7516 0.52556 0.97247 0.0
H788 H 0.7099 0.51597 0.97296 0.0
H789 H 0.76402 0.5232 0.98054 0.0
H790 H 0.76653 0.48286 0.03421 0.0
H791 H 0.71291 0.48939 0.04069 0.0
C792 C 0.69592 0.50177 0.00593 0.0
C793 C 0.73871 0.53981 0.0446 0.0
C794 C 0.73803 0.46604 0.96929 0.0
C795 C 0.78079 0.50383 0.00838 0.0
H796 H 0.70396 0.5504 0.05123 0.0
H797 H 0.68043 0.5297 0.03018 0.0
H798 H 0.68019 0.47316 0.98064 0.0
H799 H 0.70334 0.45376 0.9606 0.0
H800 H 0.7725 0.45856 0.95703 0.0
H801 H 0.79602 0.47914 0.97836 0.0
H802 H 0.79677 0.52936 0.0392 0.0
H803 H 0.77363 0.54898 0.05886 0.0
H804 H 0.76776 0.4621 0.06411 0.0
H805 H 0.71352 0.46942 0.07148 0.0
H806 H 0.76259 0.54311 0.94943 0.0
H807 H 0.70772 0.53567 0.94168 0.0
C808 C 0.18376 0.25045 0.36674 0.0
C809 C 0.18204 0.24443 0.34333 0.0
C810 C 0.16967 0.25042 0.38064 0.0
C811 C 0.12214 0.24932 0.37661 0.0
H812 H 0.12807 0.23704 0.44164 0.0
C813 C 0.06825 0.25892 0.44009 0.0
C814 C 0.06591 0.24589 0.45609 0.0
C815 C 0.0825 0.25869 0.42651 0.0
C816 C 0.12617 0.24037 0.42346 0.0
H817 H 0.16411 0.23372 0.31618 0.0
H818 H 0.13968 0.23324 0.34058 0.0
H819 H 0.1527 0.23619 0.4175 0.0
H820 H 0.0769 0.22252 0.47056 0.0
H821 H 0.10151 0.22189 0.44642 0.0
H822 H 0.09554 0.25309 0.3824 0.0
C823 C 0.15187 0.2382 0.34812 0.0
C824 C 0.14033 0.24008 0.4097 0.0
C825 C 0.16594 0.23827 0.33421 0.0
C826 C 0.07819 0.23265 0.45821 0.0
C827 C 0.09242 0.23241 0.44458 0.0
C828 C 0.10798 0.24957 0.39035 0.0
C829 C 0.15354 0.24434 0.37146 0.0
C830 C 0.13849 0.24456 0.38611 0.0
C831 C 0.09474 0.24542 0.42855 0.0
C832 C 0.10982 0.24512 0.41395 0.0
H833 H 0.19603 0.2551 0.37439 0.0
H834 H 0.17137 0.2554 0.39848 0.0
H835 H 0.12031 0.25304 0.35859 0.0
H836 H 0.05895 0.2692 0.43784 0.0
H837 H 0.08399 0.26903 0.41453 0.0
C838 C 0.76133 0.15938 0.31526 0.0
C839 C 0.76315 0.17551 0.32688 0.0
C840 C 0.76156 0.14432 0.32797 0.0
C841 C 0.75611 0.12944 0.3879 0.0
H842 H 0.77575 0.08699 0.36402 0.0
C843 C 0.77009 0.07059 0.44412 0.0
C844 C 0.76242 0.05512 0.43544 0.0
C845 C 0.7704 0.08487 0.43004 0.0
C846 C 0.77015 0.09877 0.37074 0.0
H847 H 0.76732 0.18873 0.36053 0.0
H848 H 0.76851 0.16245 0.38277 0.0
H849 H 0.77654 0.11305 0.34122 0.0
H850 H 0.74943 0.04218 0.40529 0.0
H851 H 0.75036 0.06728 0.38027 0.0
H852 H 0.7503 0.11521 0.41779 0.0
C853 C 0.76625 0.16134 0.36397 0.0
C854 C 0.77051 0.11366 0.35771 0.0
C855 C 0.7657 0.17639 0.35128 0.0
C856 C 0.75538 0.05402 0.41229 0.0
C857 C 0.75598 0.06827 0.39804 0.0
C858 C 0.75602 0.11466 0.40106 0.0
C859 C 0.7639 0.14513 0.3525 0.0
C860 C 0.76353 0.1292 0.36618 0.0
C861 C 0.76329 0.08384 0.40696 0.0
C862 C 0.76307 0.09925 0.3926 0.0
H863 H 0.75921 0.15848 0.29642 0.0
H864 H 0.75947 0.13211 0.31857 0.0
H865 H 0.75021 0.14102 0.39472 0.0
H866 H 0.77545 0.07176 0.462 0.0
H867 H 0.77616 0.09677 0.4372 0.0
C868 C 0.82565 0.76575 0.3567 0.0
C869 C 0.8221 0.75291 0.33934 0.0
C870 C 0.84092 0.76527 0.37086 0.0
C871 C 0.87754 0.73617 0.38813 0.0
H872 H 0.89966 0.7793 0.40855 0.0
C873 C 0.94846 0.7436 0.42508 0.0
C874 C 0.95046 0.75217 0.44698 0.0
C875 C 0.93237 0.74298 0.41283 0.0
C876 C 0.89353 0.76719 0.40304 0.0
H877 H 0.83159 0.72973 0.32268 0.0
H878 H 0.85862 0.72927 0.34649 0.0
H879 H 0.87248 0.77978 0.38506 0.0
H880 H 0.93757 0.76701 0.47322 0.0
H881 H 0.90944 0.76645 0.45134 0.0
H882 H 0.89922 0.72371 0.40535 0.0
C883 C 0.84945 0.73936 0.34998 0.0
C884 C 0.8779 0.76741 0.38972 0.0
C885 C 0.83404 0.73966 0.33619 0.0
C886 C 0.93622 0.76025 0.45638 0.0
C887 C 0.92023 0.75996 0.44392 0.0
C888 C 0.89337 0.73597 0.40103 0.0
C889 C 0.85311 0.75214 0.36756 0.0
C890 C 0.86966 0.7519 0.38209 0.0
C891 C 0.9182 0.75133 0.42206 0.0
C892 C 0.90144 0.75148 0.4086 0.0
H893 H 0.81651 0.77602 0.3595 0.0
H894 H 0.84306 0.77514 0.38448 0.0
H895 H 0.87147 0.72395 0.38306 0.0
H896 H 0.95939 0.73757 0.41738 0.0
H897 H 0.93107 0.7364 0.39588 0.0
C898 C 0.22895 0.84478 0.30115 0.0
C899 C 0.23971 0.83066 0.30623 0.0
C900 C 0.23002 0.85973 0.31536 0.0
C901 C 0.24441 0.8751 0.37452 0.0
H902 H 0.24511 0.92017 0.34715 0.0
C903 C 0.26117 0.93575 0.43038 0.0
C904 C 0.25046 0.95012 0.42681 0.0
C905 C 0.26019 0.92172 0.4146 0.0
C906 C 0.24477 0.90767 0.35501 0.0
H907 H 0.26024 0.82124 0.32982 0.0
H908 H 0.26201 0.84725 0.35468 0.0
H909 H 0.24213 0.89433 0.32173 0.0
H910 H 0.23092 0.96143 0.40336 0.0
H911 H 0.229 0.93671 0.37593 0.0
H912 H 0.24699 0.88833 0.40775 0.0
C913 C 0.25259 0.84667 0.33994 0.0
C914 C 0.24304 0.89291 0.34049 0.0
C915 C 0.25155 0.83178 0.32573 0.0
C916 C 0.23919 0.95043 0.40669 0.0
C917 C 0.2382 0.93637 0.39089 0.0
C918 C 0.24611 0.88981 0.389 0.0
C919 C 0.24182 0.86078 0.33491 0.0
C920 C 0.24299 0.87649 0.35014 0.0
C921 C 0.24846 0.92175 0.39496 0.0
C922 C 0.24646 0.90624 0.3794 0.0
H923 H 0.21958 0.8442 0.28635 0.0
H924 H 0.22144 0.87036 0.31125 0.0
H925 H 0.24408 0.86261 0.38243 0.0
H926 H 0.26987 0.93504 0.44583 0.0
H927 H 0.26845 0.91072 0.41798 0.0
C928 C 0.17061 0.77834 0.66236 0.0
C929 C 0.17154 0.77019 0.68395 0.0
C930 C 0.15506 0.77907 0.64887 0.0
C931 C 0.11271 0.7574 0.64074 0.0
H932 H 0.10083 0.79698 0.60334 0.0
C933 C 0.04759 0.763 0.58774 0.0
C934 C 0.04873 0.76741 0.56438 0.0
C935 C 0.062 0.76448 0.60347 0.0
C936 C 0.10403 0.78583 0.61366 0.0
H937 H 0.15671 0.75659 0.70839 0.0
H938 H 0.12952 0.75848 0.68535 0.0
H939 H 0.12703 0.7976 0.62911 0.0
H940 H 0.06533 0.77723 0.53904 0.0
H941 H 0.0906 0.78005 0.56664 0.0
H942 H 0.08964 0.7457 0.62533 0.0
C943 C 0.14089 0.764 0.67858 0.0
C944 C 0.11905 0.78614 0.62835 0.0
C945 C 0.15646 0.76314 0.69197 0.0
C946 C 0.06427 0.77379 0.55705 0.0
C947 C 0.07863 0.77545 0.57282 0.0
C948 C 0.09762 0.75716 0.62623 0.0
C949 C 0.14003 0.77179 0.65674 0.0
C950 C 0.12366 0.77186 0.64191 0.0
C951 C 0.07768 0.7706 0.59611 0.0
C952 C 0.09322 0.77131 0.61239 0.0
H953 H 0.18192 0.78413 0.65579 0.0
H954 H 0.15494 0.78501 0.63203 0.0
H955 H 0.11599 0.74604 0.65058 0.0
H956 H 0.03563 0.75816 0.59366 0.0
H957 H 0.06089 0.76082 0.62138 0.0
C958 C 0.23105 0.17736 0.68541 0.0
C959 C 0.22605 0.17669 0.70847 0.0
C960 C 0.23202 0.16233 0.67168 0.0
C961 C 0.21796 0.11801 0.66262 0.0
H962 H 0.26319 0.11071 0.63944 0.0
C963 C 0.23511 0.0553 0.61278 0.0
C964 C 0.24495 0.05722 0.59337 0.0
C965 C 0.23293 0.06919 0.62835 0.0
C966 C 0.25043 0.11262 0.64551 0.0
H967 H 0.21705 0.15987 0.73467 0.0
H968 H 0.21828 0.13355 0.71022 0.0
H969 H 0.25754 0.13677 0.66239 0.0
H970 H 0.26018 0.07499 0.57486 0.0
H971 H 0.25607 0.09935 0.60156 0.0
H972 H 0.2106 0.09418 0.64507 0.0
C973 C 0.22161 0.14577 0.70303 0.0
C974 C 0.24724 0.1275 0.65869 0.0
C975 C 0.22084 0.16082 0.71693 0.0
C976 C 0.25277 0.07313 0.58993 0.0
C977 C 0.25043 0.08706 0.60529 0.0
C978 C 0.22107 0.1032 0.64909 0.0
C979 C 0.22775 0.14638 0.68062 0.0
C980 C 0.23096 0.13038 0.66715 0.0
C981 C 0.24038 0.0853 0.62459 0.0
C982 C 0.23731 0.10042 0.6402 0.0
H983 H 0.23474 0.18946 0.67821 0.0
H984 H 0.23651 0.16309 0.65426 0.0
H985 H 0.2053 0.12004 0.66901 0.0
H986 H 0.22904 0.04307 0.61582 0.0
H987 H 0.22536 0.06733 0.64326 0.0
C988 C 0.82879 0.26376 0.68435 0.0
C989 C 0.81853 0.24896 0.68559 0.0
C990 C 0.84321 0.26344 0.67108 0.0
C991 C 0.86202 0.24082 0.62187 0.0
H992 H 0.90508 0.25989 0.64897 0.0
C993 C 0.92555 0.23326 0.57607 0.0
C994 C 0.93701 0.24733 0.57748 0.0
C995 C 0.91109 0.23334 0.58925 0.0
C996 C 0.89311 0.25472 0.64099 0.0
H997 H 0.81511 0.22234 0.67364 0.0
H998 H 0.84032 0.22179 0.65032 0.0
H999 H 0.87973 0.26041 0.67176 0.0
H1000 H 0.94221 0.27246 0.5941 0.0
H1001 H 0.91669 0.27287 0.61637 0.0
H1002 H 0.87526 0.23539 0.59097 0.0
C1003 C 0.8372 0.23362 0.65964 0.0
C1004 C 0.87861 0.25498 0.6541 0.0
C1005 C 0.82287 0.23388 0.67312 0.0
C1006 C 0.93358 0.26149 0.59234 0.0
C1007 C 0.91905 0.26162 0.60539 0.0
C1008 C 0.87649 0.24069 0.60868 0.0
C1009 C 0.84755 0.24837 0.65861 0.0
C1010 C 0.86293 0.24803 0.64467 0.0
C1011 C 0.90764 0.24753 0.60406 0.0
C1012 C 0.89222 0.24763 0.61808 0.0
H1013 H 0.82582 0.27551 0.69395 0.0
H1014 H 0.85088 0.27503 0.67043 0.0
H1015 H 0.85004 0.23555 0.61408 0.0
H1016 H 0.92765 0.22223 0.56459 0.0
H1017 H 0.9027 0.22217 0.58799 0.0
C1018 C 0.76981 0.84878 0.71481 0.0
C1019 C 0.75876 0.83513 0.70723 0.0
C1020 C 0.76802 0.8649 0.70475 0.0
C1021 C 0.7374 0.89166 0.66981 0.0
H1022 H 0.77857 0.9132 0.64956 0.0
C1023 C 0.73682 0.94047 0.59652 0.0
C1024 C 0.74922 0.95365 0.59793 0.0
C1025 C 0.73682 0.92815 0.61373 0.0
C1026 C 0.76697 0.90757 0.65552 0.0
H1027 H 0.73691 0.82775 0.6837 0.0
H1028 H 0.73402 0.85574 0.66582 0.0
H1029 H 0.78107 0.88735 0.67247 0.0
H1030 H 0.77054 0.96506 0.61918 0.0
H1031 H 0.7705 0.94355 0.64934 0.0
H1032 H 0.72327 0.91165 0.65227 0.0
C1033 C 0.74396 0.85406 0.67965 0.0
C1034 C 0.76841 0.89274 0.66862 0.0
C1035 C 0.74578 0.83796 0.68964 0.0
C1036 C 0.76103 0.95483 0.61747 0.0
C1037 C 0.76101 0.94254 0.63471 0.0
C1038 C 0.73595 0.90652 0.65673 0.0
C1039 C 0.75509 0.86767 0.68704 0.0
C1040 C 0.75362 0.88443 0.67546 0.0
C1041 C 0.74919 0.92882 0.63269 0.0
C1042 C 0.75071 0.91441 0.64903 0.0
H1043 H 0.77997 0.84693 0.72829 0.0
H1044 H 0.77673 0.8752 0.71085 0.0
H1045 H 0.7258 0.88567 0.6752 0.0
H1046 H 0.72766 0.93915 0.58154 0.0
H1047 H 0.72768 0.91761 0.61152 0.0
C1048 C 0.83451 0.77437 0.68075 0.0
C1049 C 0.82619 0.75862 0.6842 0.0
C1050 C 0.84846 0.775 0.66663 0.0
C1051 C 0.86802 0.75226 0.61824 0.0
H1052 H 0.90999 0.77579 0.64104 0.0
C1053 C 0.9302 0.7462 0.5695 0.0
C1054 C 0.94099 0.7607 0.56909 0.0
C1055 C 0.91617 0.74628 0.58349 0.0
C1056 C 0.89829 0.7694 0.63421 0.0
H1057 H 0.82634 0.73115 0.67565 0.0
H1058 H 0.85032 0.73241 0.65053 0.0
H1059 H 0.88537 0.77561 0.66526 0.0
H1060 H 0.94545 0.78667 0.58338 0.0
H1061 H 0.9206 0.78708 0.60696 0.0
H1062 H 0.88065 0.7463 0.58703 0.0
C1063 C 0.84595 0.74425 0.65872 0.0
C1064 C 0.88422 0.76926 0.64815 0.0
C1065 C 0.83215 0.74356 0.67305 0.0
C1066 C 0.93733 0.77533 0.583 0.0
C1067 C 0.92318 0.77548 0.59682 0.0
C1068 C 0.88199 0.75257 0.60418 0.0
C1069 C 0.85426 0.75995 0.65542 0.0
C1070 C 0.869 0.76057 0.64037 0.0
C1071 C 0.91242 0.76094 0.59727 0.0
C1072 C 0.89737 0.76102 0.61204 0.0
H1073 H 0.83011 0.78627 0.68871 0.0
H1074 H 0.85454 0.78731 0.66418 0.0
H1075 H 0.85635 0.74566 0.6117 0.0
H1076 H 0.93243 0.73478 0.55879 0.0
H1077 H 0.90836 0.73475 0.58362 0.0
C1078 C 0.2535 0.83067 0.65226 0.0
C1079 C 0.24943 0.83217 0.6758 0.0
C1080 C 0.25345 0.84516 0.63823 0.0
C1081 C 0.25506 0.89326 0.64163 0.0
H1082 H 0.23874 0.8891 0.57643 0.0
C1083 C 0.24403 0.9529 0.5839 0.0
C1084 C 0.24899 0.95152 0.56083 0.0
C1085 C 0.24415 0.93838 0.59786 0.0
C1086 C 0.24351 0.89047 0.59454 0.0
H1087 H 0.24223 0.8504 0.70291 0.0
H1088 H 0.24167 0.87546 0.67837 0.0
H1089 H 0.23869 0.86388 0.60073 0.0
H1090 H 0.25794 0.93406 0.53416 0.0
H1091 H 0.25822 0.90861 0.5585 0.0
H1092 H 0.25975 0.9199 0.63544 0.0
C1093 C 0.24516 0.8631 0.67079 0.0
C1094 C 0.24351 0.87596 0.60852 0.0
C1095 C 0.24524 0.84862 0.68483 0.0
C1096 C 0.25404 0.93539 0.55192 0.0
C1097 C 0.25409 0.92083 0.56583 0.0
C1098 C 0.255 0.90778 0.62767 0.0
C1099 C 0.24929 0.86161 0.64727 0.0
C1100 C 0.24928 0.87712 0.6323 0.0
C1101 C 0.24916 0.92212 0.58902 0.0
C1102 C 0.24923 0.9066 0.60392 0.0
H1103 H 0.2566 0.81824 0.64454 0.0
H1104 H 0.25689 0.84345 0.62032 0.0
H1105 H 0.2599 0.89466 0.65971 0.0
H1106 H 0.24006 0.96523 0.59108 0.0
H1107 H 0.24007 0.93985 0.6155 0.0
C1108 C 0.16062 0.2616 0.69567 0.0
C1109 C 0.16105 0.25263 0.71662 0.0
C1110 C 0.14561 0.26207 0.68105 0.0
C1111 C 0.10456 0.23882 0.66766 0.0
H1112 H 0.09295 0.27954 0.63242 0.0
C1113 C 0.04214 0.24452 0.60795 0.0
C1114 C 0.04457 0.25032 0.58549 0.0
C1115 C 0.05561 0.24544 0.62526 0.0
C1116 C 0.09609 0.26807 0.64211 0.0
H1117 H 0.14588 0.23729 0.73874 0.0
H1118 H 0.11951 0.23862 0.71362 0.0
H1119 H 0.11766 0.28023 0.66079 0.0
H1120 H 0.06255 0.26184 0.56332 0.0
H1121 H 0.08613 0.2637 0.59368 0.0
H1122 H 0.08286 0.22675 0.64897 0.0
C1123 C 0.13091 0.24501 0.70827 0.0
C1124 C 0.11026 0.26842 0.6583 0.0
C1125 C 0.14597 0.24444 0.72283 0.0
C1126 C 0.06048 0.25733 0.58061 0.0
C1127 C 0.07388 0.25844 0.59795 0.0
C1128 C 0.09028 0.23854 0.65162 0.0
C1129 C 0.13058 0.25372 0.68711 0.0
C1130 C 0.11483 0.25372 0.67104 0.0
C1131 C 0.07161 0.25241 0.6204 0.0
C1132 C 0.08606 0.25308 0.63847 0.0
H1133 H 0.1719 0.26828 0.69051 0.0
H1134 H 0.14592 0.26871 0.66476 0.0
H1135 H 0.10783 0.22719 0.67689 0.0
H1136 H 0.02987 0.2392 0.61201 0.0
H1137 H 0.0535 0.24084 0.64247 0.0
C1138 C 0.76045 0.17567 0.6637 0.0
C1139 C 0.75143 0.17566 0.68421 0.0
C1140 C 0.76101 0.16087 0.64915 0.0
C1141 C 0.75569 0.11345 0.6489 0.0
H1142 H 0.75009 0.11745 0.58165 0.0
C1143 C 0.74761 0.05344 0.58657 0.0
C1144 C 0.75536 0.05378 0.56518 0.0
C1145 C 0.74725 0.06829 0.60104 0.0
C1146 C 0.75192 0.11608 0.60037 0.0
H1147 H 0.7357 0.15992 0.7051 0.0
H1148 H 0.73687 0.13413 0.67992 0.0
H1149 H 0.74936 0.14329 0.60686 0.0
H1150 H 0.76889 0.0697 0.54209 0.0
H1151 H 0.76866 0.09561 0.56752 0.0
H1152 H 0.7584 0.08629 0.64248 0.0
C1153 C 0.74367 0.14557 0.67524 0.0
C1154 C 0.75147 0.13093 0.61485 0.0
C1155 C 0.74303 0.16039 0.68973 0.0
C1156 C 0.76282 0.06918 0.55853 0.0
C1157 C 0.76255 0.08402 0.57304 0.0
C1158 C 0.75623 0.09861 0.63443 0.0
C1159 C 0.75266 0.14561 0.65475 0.0
C1160 C 0.7533 0.12981 0.6393 0.0
C1161 C 0.75472 0.08382 0.5945 0.0
C1162 C 0.7543 0.09969 0.60994 0.0
H1163 H 0.76732 0.18706 0.65904 0.0
H1164 H 0.76825 0.1613 0.63368 0.0
H1165 H 0.7574 0.11212 0.66764 0.0
H1166 H 0.74175 0.04168 0.592 0.0
H1167 H 0.74087 0.06765 0.61722 0.0
C1168 C 0.84764 0.23722 0.32553 0.0
C1169 C 0.83311 0.24613 0.33284 0.0
C1170 C 0.86285 0.237 0.33982 0.0
C1171 C 0.88537 0.2602 0.39038 0.0
H1172 H 0.91256 0.21839 0.39449 0.0
C1173 C 0.94027 0.25118 0.46104 0.0
C1174 C 0.95566 0.24426 0.45348 0.0
C1175 C 0.92554 0.25139 0.44587 0.0
C1176 C 0.90516 0.23019 0.39333 0.0
H1177 H 0.82328 0.26193 0.36088 0.0
H1178 H 0.84953 0.26099 0.38609 0.0
H1179 H 0.88628 0.21872 0.36892 0.0
H1180 H 0.96803 0.23233 0.42442 0.0
H1181 H 0.94207 0.2324 0.39777 0.0
H1182 H 0.90411 0.27153 0.41516 0.0
C1183 C 0.8493 0.25442 0.36914 0.0
C1184 C 0.89014 0.23041 0.37866 0.0
C1185 C 0.83414 0.25474 0.35481 0.0
C1186 C 0.95617 0.23753 0.43058 0.0
C1187 C 0.94138 0.23757 0.41544 0.0
C1188 C 0.90029 0.25992 0.40518 0.0
C1189 C 0.86387 0.2456 0.3618 0.0
C1190 C 0.88002 0.24541 0.37707 0.0
C1191 C 0.92595 0.24458 0.42292 0.0
C1192 C 0.9103 0.24491 0.40686 0.0
H1193 H 0.84724 0.23029 0.30883 0.0
H1194 H 0.87388 0.23023 0.3335 0.0
H1195 H 0.87809 0.27207 0.38923 0.0
H1196 H 0.9397 0.25647 0.47868 0.0
H1197 H 0.91378 0.25672 0.45215 0.0
C1198 C 0.74443 0.84276 0.33075 0.0
C1199 C 0.75243 0.82729 0.33765 0.0
C1200 C 0.74514 0.85744 0.3456 0.0
C1201 C 0.76895 0.87656 0.39892 0.0
H1202 H 0.72985 0.9075 0.3986 0.0
C1203 C 0.76236 0.93236 0.46776 0.0
C1204 C 0.7567 0.94829 0.45919 0.0
C1205 C 0.76219 0.91763 0.45298 0.0
C1206 C 0.74094 0.89907 0.39876 0.0
H1207 H 0.76759 0.81541 0.36588 0.0
H1208 H 0.76817 0.84068 0.39206 0.0
H1209 H 0.72865 0.88171 0.37324 0.0
H1210 H 0.74657 0.96142 0.42858 0.0
H1211 H 0.74598 0.93563 0.40274 0.0
H1212 H 0.78103 0.89384 0.42492 0.0
C1213 C 0.76163 0.84161 0.37492 0.0
C1214 C 0.74029 0.88426 0.38413 0.0
C1215 C 0.76107 0.82695 0.35996 0.0
C1216 C 0.75091 0.94925 0.43558 0.0
C1217 C 0.75053 0.93449 0.42087 0.0
C1218 C 0.76951 0.89128 0.41375 0.0
C1219 C 0.7537 0.8571 0.36796 0.0
C1220 C 0.75432 0.87281 0.38387 0.0
C1221 C 0.75614 0.91849 0.42939 0.0
C1222 C 0.75554 0.90275 0.41377 0.0
H1223 H 0.73743 0.84355 0.3139 0.0
H1224 H 0.73907 0.86914 0.33937 0.0
H1225 H 0.78015 0.86829 0.399 0.0
H1226 H 0.7668 0.93132 0.48594 0.0
H1227 H 0.76646 0.90549 0.46013 0.0
C1228 C 0.17389 0.75046 0.33317 0.0
C1229 C 0.17171 0.75689 0.3105 0.0
C1230 C 0.1602 0.75035 0.34773 0.0
C1231 C 0.11964 0.7716 0.35885 0.0
H1232 H 0.109 0.72965 0.39006 0.0
C1233 C 0.05927 0.76625 0.41133 0.0
C1234 C 0.06058 0.75676 0.4318 0.0
C1235 C 0.07259 0.766 0.39614 0.0
C1236 C 0.11193 0.74156 0.38179 0.0
H1237 H 0.15323 0.7682 0.28545 0.0
H1238 H 0.12951 0.76849 0.31123 0.0
H1239 H 0.13294 0.73002 0.3647 0.0
H1240 H 0.07687 0.73973 0.45265 0.0
H1241 H 0.10039 0.73967 0.42659 0.0
H1242 H 0.09903 0.78337 0.37633 0.0
C1243 C 0.14188 0.76353 0.31761 0.0
C1244 C 0.1256 0.74172 0.36718 0.0
C1245 C 0.15551 0.76343 0.30291 0.0
C1246 C 0.07546 0.747 0.43682 0.0
C1247 C 0.0889 0.74693 0.42181 0.0
C1248 C 0.10611 0.77153 0.37371 0.0
C1249 C 0.14407 0.75689 0.34009 0.0
C1250 C 0.12956 0.75673 0.35555 0.0
C1251 C 0.08765 0.75644 0.40126 0.0
C1252 C 0.10204 0.7565 0.38535 0.0
H1253 H 0.18625 0.74565 0.33983 0.0
H1254 H 0.16228 0.74536 0.36512 0.0
H1255 H 0.12255 0.7834 0.35028 0.0
H1256 H 0.04782 0.77372 0.40692 0.0
H1257 H 0.07098 0.77319 0.38028 0.0
C1258 C 0.25862 0.15797 0.33673 0.0
C1259 C 0.25053 0.17352 0.34299 0.0
C1260 C 0.25827 0.14363 0.35096 0.0
C1261 C 0.23517 0.1254 0.39988 0.0
H1262 H 0.27468 0.09502 0.40474 0.0
C1263 C 0.24212 0.0711 0.46748 0.0
C1264 C 0.24834 0.05512 0.45953 0.0
C1265 C 0.24221 0.08551 0.45333 0.0
C1266 C 0.26347 0.10328 0.40342 0.0
H1267 H 0.23557 0.18587 0.36942 0.0
H1268 H 0.23554 0.1612 0.39455 0.0
H1269 H 0.27533 0.12018 0.38042 0.0
H1270 H 0.25948 0.04162 0.43064 0.0
H1271 H 0.25983 0.06682 0.40591 0.0
H1272 H 0.22347 0.10857 0.42327 0.0
C1273 C 0.24191 0.15995 0.37836 0.0
C1274 C 0.26381 0.11773 0.38938 0.0
C1275 C 0.24215 0.17426 0.36404 0.0
C1276 C 0.25468 0.05383 0.43717 0.0
C1277 C 0.25493 0.06827 0.4231 0.0
C1278 C 0.2349 0.11102 0.41408 0.0
C1279 C 0.24994 0.14437 0.37204 0.0
C1280 C 0.24964 0.12901 0.38729 0.0
C1281 C 0.24869 0.08432 0.43098 0.0
C1282 C 0.24902 0.09973 0.41599 0.0
H1283 H 0.26542 0.15687 0.32088 0.0
H1284 H 0.26442 0.13186 0.34522 0.0
H1285 H 0.22387 0.13352 0.39848 0.0
H1286 H 0.23726 0.07242 0.48472 0.0
H1287 H 0.23747 0.09768 0.46006 0.0
C1288 C 0.67386 0.76165 0.8349 0.0
C1289 C 0.68358 0.74678 0.83065 0.0
C1290 C 0.6595 0.76091 0.84819 0.0
C1291 C 0.62853 0.73011 0.87101 0.0
H1292 H 0.61839 0.7692 0.9116 0.0
C1293 C 0.57662 0.72924 0.93917 0.0
C1294 C 0.56537 0.74345 0.93919 0.0
C1295 C 0.59105 0.72923 0.92587 0.0
C1296 C 0.62102 0.75824 0.90023 0.0
H1297 H 0.68608 0.71952 0.83715 0.0
H1298 H 0.66129 0.71826 0.861 0.0
H1299 H 0.6438 0.76988 0.88902 0.0
H1300 H 0.56037 0.7686 0.92461 0.0
H1301 H 0.58579 0.76874 0.90203 0.0
H1302 H 0.60585 0.71838 0.88281 0.0
C1303 C 0.66444 0.73043 0.85357 0.0
C1304 C 0.63554 0.75863 0.88719 0.0
C1305 C 0.67869 0.73114 0.84 0.0
C1306 C 0.5689 0.7576 0.92548 0.0
C1307 C 0.58343 0.75767 0.91244 0.0
C1308 C 0.61412 0.72964 0.88431 0.0
C1309 C 0.65464 0.74532 0.85784 0.0
C1310 C 0.63941 0.74464 0.87223 0.0
C1311 C 0.59466 0.74351 0.91254 0.0
C1312 C 0.61016 0.74376 0.89889 0.0
H1313 H 0.67722 0.77382 0.8276 0.0
H1314 H 0.65208 0.77256 0.85063 0.0
H1315 H 0.63092 0.71921 0.85944 0.0
H1316 H 0.5745 0.71824 0.94978 0.0
H1317 H 0.59959 0.71822 0.9264 0.0
C1318 C 0.257 0.66796 0.81648 0.0
C1319 C 0.2554 0.68481 0.82585 0.0
C1320 C 0.25751 0.65372 0.83098 0.0
C1321 C 0.2475 0.64051 0.89088 0.0
H1322 H 0.27513 0.60072 0.87554 0.0
C1323 C 0.24353 0.57693 0.94083 0.0
C1324 C 0.25853 0.56696 0.94451 0.0
C1325 C 0.24333 0.59129 0.92657 0.0
C1326 C 0.26748 0.61177 0.88032 0.0
H1327 H 0.25346 0.69984 0.85802 0.0
H1328 H 0.25473 0.67517 0.88336 0.0
H1329 H 0.27493 0.62568 0.85094 0.0
H1330 H 0.28513 0.56458 0.93573 0.0
H1331 H 0.28498 0.5899 0.91177 0.0
H1332 H 0.24055 0.62687 0.92074 0.0
C1333 C 0.25513 0.67282 0.8647 0.0
C1334 C 0.26714 0.62606 0.86592 0.0
C1335 C 0.25445 0.68704 0.85016 0.0
C1336 C 0.27337 0.57196 0.93363 0.0
C1337 C 0.2732 0.58642 0.91952 0.0
C1338 C 0.24794 0.62628 0.90539 0.0
C1339 C 0.2566 0.65591 0.85536 0.0
C1340 C 0.2571 0.64066 0.87091 0.0
C1341 C 0.25816 0.59629 0.91566 0.0
C1342 C 0.25789 0.61163 0.90031 0.0
H1343 H 0.25754 0.66574 0.79781 0.0
H1344 H 0.25831 0.64096 0.82296 0.0
H1345 H 0.23941 0.65134 0.89526 0.0
H1346 H 0.23189 0.57374 0.9491 0.0
H1347 H 0.2314 0.59833 0.92389 0.0
C1348 C 0.32624 0.26535 0.86923 0.0
C1349 C 0.32387 0.25491 0.8488 0.0
C1350 C 0.34246 0.267 0.88094 0.0
C1351 C 0.38514 0.24567 0.88632 0.0
H1352 H 0.39884 0.28872 0.91836 0.0
C1353 C 0.45298 0.25676 0.93071 0.0
C1354 C 0.45296 0.26223 0.95424 0.0
C1355 C 0.43779 0.25704 0.91641 0.0
C1356 C 0.39514 0.27664 0.90948 0.0
H1357 H 0.33685 0.23804 0.8247 0.0
H1358 H 0.3652 0.2416 0.84441 0.0
H1359 H 0.37126 0.28688 0.8957 0.0
H1360 H 0.43758 0.27301 0.98117 0.0
H1361 H 0.41098 0.2739 0.95597 0.0
H1362 H 0.40921 0.23558 0.89989 0.0
C1363 C 0.35445 0.24819 0.85175 0.0
C1364 C 0.37931 0.27552 0.89662 0.0
C1365 C 0.33819 0.24635 0.84022 0.0
C1366 C 0.43778 0.26871 0.96304 0.0
C1367 C 0.42266 0.26925 0.94865 0.0
C1368 C 0.40106 0.24688 0.89888 0.0
C1369 C 0.35679 0.25845 0.87236 0.0
C1370 C 0.374 0.25995 0.88511 0.0
C1371 C 0.42246 0.26313 0.92534 0.0
C1372 C 0.40611 0.26231 0.91078 0.0
H1373 H 0.3156 0.27237 0.87617 0.0
H1374 H 0.34368 0.27481 0.89693 0.0
H1375 H 0.3814 0.23338 0.87808 0.0
H1376 H 0.46466 0.25188 0.92362 0.0
H1377 H 0.43797 0.2524 0.89842 0.0
C1378 C 0.75139 0.32933 0.85659 0.0
C1379 C 0.74258 0.32862 0.83437 0.0
C1380 C 0.75067 0.3441 0.87116 0.0
C1381 C 0.72544 0.38439 0.88016 0.0
H1382 H 0.76593 0.39841 0.91895 0.0
C1383 C 0.73067 0.45027 0.93098 0.0
C1384 C 0.73802 0.45014 0.95396 0.0
C1385 C 0.73094 0.43543 0.91647 0.0
C1386 C 0.75446 0.39458 0.90839 0.0
H1387 H 0.72593 0.34309 0.81032 0.0
H1388 H 0.72519 0.36897 0.83529 0.0
H1389 H 0.76708 0.37281 0.89339 0.0
H1390 H 0.75135 0.43453 0.97993 0.0
H1391 H 0.752 0.40856 0.95457 0.0
H1392 H 0.71295 0.40639 0.89498 0.0
C1393 C 0.73244 0.35798 0.84167 0.0
C1394 C 0.75509 0.37985 0.89374 0.0
C1395 C 0.73306 0.34316 0.82715 0.0
C1396 C 0.74565 0.43492 0.96222 0.0
C1397 C 0.74607 0.42012 0.94767 0.0
C1398 C 0.72486 0.3992 0.89469 0.0
C1399 C 0.74122 0.35867 0.86391 0.0
C1400 C 0.74057 0.37449 0.87944 0.0
C1401 C 0.73874 0.42018 0.9246 0.0
C1402 C 0.73935 0.40446 0.90904 0.0
H1403 H 0.75904 0.31853 0.86271 0.0
H1404 H 0.75743 0.34399 0.88824 0.0
H1405 H 0.7139 0.38056 0.86977 0.0
H1406 H 0.7248 0.46192 0.92422 0.0
H1407 H 0.72533 0.43597 0.89874 0.0
C1408 C 0.67446 0.26411 0.16692 0.0
C1409 C 0.6759 0.25506 0.18781 0.0
C1410 C 0.65918 0.26364 0.15277 0.0
C1411 C 0.61867 0.23866 0.14154 0.0
H1412 H 0.60303 0.28005 0.11051 0.0
C1413 C 0.55059 0.24603 0.09638 0.0
C1414 C 0.54986 0.25313 0.07417 0.0
C1415 C 0.56612 0.24583 0.10998 0.0
C1416 C 0.60733 0.26837 0.11893 0.0
H1417 H 0.66236 0.23824 0.21001 0.0
H1418 H 0.63555 0.23803 0.18591 0.0
H1419 H 0.6298 0.2807 0.13497 0.0
H1420 H 0.56437 0.26569 0.04862 0.0
H1421 H 0.5916 0.26555 0.07252 0.0
H1422 H 0.59591 0.22649 0.12579 0.0
C1423 C 0.64633 0.24523 0.18019 0.0
C1424 C 0.62269 0.2687 0.13288 0.0
C1425 C 0.66165 0.24558 0.19423 0.0
C1426 C 0.56477 0.26012 0.06574 0.0
C1427 C 0.58024 0.2601 0.07941 0.0
C1428 C 0.60322 0.23839 0.12776 0.0
C1429 C 0.64491 0.25422 0.15926 0.0
C1430 C 0.62858 0.25384 0.14434 0.0
C1431 C 0.58107 0.25297 0.10167 0.0
C1432 C 0.59742 0.25323 0.1163 0.0
H1433 H 0.68511 0.27169 0.16155 0.0
H1434 H 0.65863 0.27054 0.13663 0.0
H1435 H 0.62295 0.2269 0.14975 0.0
H1436 H 0.53912 0.24077 0.10323 0.0
H1437 H 0.56638 0.24042 0.12718 0.0
C1438 C 0.73365 0.66154 0.18752 0.0
C1439 C 0.74181 0.67677 0.18129 0.0
C1440 C 0.73323 0.64684 0.17269 0.0
C1441 C 0.73691 0.63251 0.11118 0.0
H1442 H 0.74642 0.58782 0.13747 0.0
C1443 C 0.74516 0.57128 0.05256 0.0
C1444 C 0.73889 0.5556 0.06017 0.0
C1445 C 0.7455 0.58606 0.06723 0.0
C1446 C 0.74348 0.60014 0.12981 0.0
H1447 H 0.75606 0.68823 0.15437 0.0
H1448 H 0.75503 0.66272 0.1284 0.0
H1449 H 0.74679 0.61349 0.16306 0.0
H1450 H 0.72801 0.54298 0.08889 0.0
H1451 H 0.7281 0.56884 0.11439 0.0
H1452 H 0.73335 0.61921 0.07798 0.0
C1453 C 0.74885 0.66223 0.14475 0.0
C1454 C 0.74374 0.61489 0.14453 0.0
C1455 C 0.74939 0.67689 0.15966 0.0
C1456 C 0.7329 0.55495 0.08267 0.0
C1457 C 0.73311 0.56975 0.09731 0.0
C1458 C 0.73652 0.61774 0.09647 0.0
C1459 C 0.74084 0.64699 0.15112 0.0
C1460 C 0.74048 0.63127 0.13541 0.0
C1461 C 0.73946 0.58553 0.08984 0.0
C1462 C 0.73982 0.60132 0.10555 0.0
H1463 H 0.72738 0.66099 0.20378 0.0
H1464 H 0.72672 0.63541 0.17799 0.0
H1465 H 0.73412 0.6449 0.10361 0.0
H1466 H 0.74988 0.57204 0.03526 0.0
H1467 H 0.75074 0.59784 0.06093 0.0
C1468 C 0.325 0.76453 0.16173 0.0
C1469 C 0.31484 0.74969 0.16331 0.0
C1470 C 0.33981 0.76397 0.14923 0.0
C1471 C 0.36008 0.74022 0.10216 0.0
H1472 H 0.40249 0.76009 0.13017 0.0
C1473 C 0.42459 0.73187 0.05895 0.0
C1474 C 0.43608 0.74591 0.06031 0.0
C1475 C 0.40989 0.73218 0.07169 0.0
C1476 C 0.39072 0.7547 0.12192 0.0
H1477 H 0.31205 0.72272 0.15276 0.0
H1478 H 0.33792 0.72177 0.13072 0.0
H1479 H 0.37654 0.76115 0.15175 0.0
H1480 H 0.44111 0.77121 0.07652 0.0
H1481 H 0.41519 0.77204 0.09793 0.0
H1482 H 0.37407 0.73406 0.07214 0.0
C1483 C 0.33442 0.73381 0.13921 0.0
C1484 C 0.37586 0.75527 0.13435 0.0
C1485 C 0.31971 0.73432 0.15194 0.0
C1486 C 0.43247 0.76025 0.07476 0.0
C1487 C 0.41769 0.76062 0.08735 0.0
C1488 C 0.37489 0.7398 0.08962 0.0
C1489 C 0.34466 0.7486 0.13783 0.0
C1490 C 0.36041 0.74802 0.1246 0.0
C1491 C 0.4062 0.74659 0.08599 0.0
C1492 C 0.39042 0.74701 0.09935 0.0
H1493 H 0.32162 0.77652 0.17048 0.0
H1494 H 0.3474 0.7756 0.1483 0.0
H1495 H 0.34828 0.73472 0.09412 0.0
H1496 H 0.4268 0.72069 0.04779 0.0
H1497 H 0.40148 0.72103 0.07044 0.0
C1498 C 0.26495 0.33465 0.19859 0.0
C1499 C 0.25463 0.32014 0.1923 0.0
C1500 C 0.26544 0.3487 0.18386 0.0
C1501 C 0.25549 0.36128 0.1222 0.0
H1502 H 0.25809 0.40774 0.14908 0.0
C1503 C 0.24731 0.42185 0.06553 0.0
C1504 C 0.25805 0.43613 0.07145 0.0
C1505 C 0.24701 0.40769 0.08012 0.0
C1506 C 0.25756 0.39485 0.14126 0.0
H1507 H 0.2365 0.3093 0.16553 0.0
H1508 H 0.23725 0.33377 0.13996 0.0
H1509 H 0.25726 0.38328 0.17464 0.0
H1510 H 0.27682 0.4466 0.09768 0.0
H1511 H 0.27647 0.42188 0.12289 0.0
H1512 H 0.25569 0.37289 0.0888 0.0
C1513 C 0.24525 0.33418 0.15612 0.0
C1514 C 0.2571 0.38077 0.15595 0.0
C1515 C 0.2448 0.32011 0.17083 0.0
C1516 C 0.2685 0.4358 0.09238 0.0
C1517 C 0.26816 0.42168 0.10702 0.0
C1518 C 0.25591 0.37536 0.1075 0.0
C1519 C 0.25558 0.3487 0.16239 0.0
C1520 C 0.25606 0.36376 0.14666 0.0
C1521 C 0.2574 0.40741 0.10111 0.0
C1522 C 0.25696 0.39236 0.11681 0.0
H1523 H 0.27291 0.33505 0.21479 0.0
H1524 H 0.27378 0.35947 0.18917 0.0
H1525 H 0.25499 0.3484 0.11434 0.0
H1526 H 0.2392 0.42152 0.04946 0.0
H1527 H 0.23844 0.39705 0.07506 0.0
C1528 C 0.3394 0.25925 0.20318 0.0
C1529 C 0.32393 0.25122 0.19475 0.0
C1530 C 0.35341 0.25988 0.1892 0.0
C1531 C 0.37268 0.23772 0.14035 0.0
H1532 H 0.39663 0.28091 0.13357 0.0
C1533 C 0.42503 0.24426 0.07459 0.0
C1534 C 0.43921 0.25492 0.08102 0.0
C1535 C 0.41093 0.2439 0.08843 0.0
C1536 C 0.39028 0.26867 0.13554 0.0
H1537 H 0.31108 0.23777 0.16477 0.0
H1538 H 0.33574 0.23847 0.14069 0.0
H1539 H 0.3722 0.28005 0.15804 0.0
H1540 H 0.44998 0.27334 0.10711 0.0
H1541 H 0.42562 0.27237 0.13171 0.0
H1542 H 0.39091 0.22617 0.11839 0.0
C1543 C 0.33696 0.24422 0.15817 0.0
C1544 C 0.37623 0.26823 0.14948 0.0
C1545 C 0.32287 0.24378 0.17202 0.0
C1546 C 0.4391 0.26514 0.10164 0.0
C1547 C 0.4251 0.26463 0.11565 0.0
C1548 C 0.38685 0.2381 0.12664 0.0
C1549 C 0.35234 0.2523 0.16662 0.0
C1550 C 0.36727 0.25276 0.15194 0.0
C1551 C 0.4108 0.25404 0.10918 0.0
C1552 C 0.3958 0.2536 0.12398 0.0
H1553 H 0.34082 0.26484 0.22072 0.0
H1554 H 0.36521 0.26602 0.19622 0.0
H1555 H 0.36611 0.22557 0.1422 0.0
H1556 H 0.4247 0.23642 0.05861 0.0
H1557 H 0.40003 0.23585 0.08263 0.0
C1558 C 0.73201 0.33417 0.18312 0.0
C1559 C 0.74732 0.32908 0.19519 0.0
C1560 C 0.73126 0.34972 0.1715 0.0
C1561 C 0.75925 0.3821 0.147 0.0
H1562 H 0.71779 0.40985 0.14536 0.0
C1563 C 0.75513 0.44814 0.10378 0.0
C1564 C 0.74092 0.45006 0.08767 0.0
C1565 C 0.75584 0.43441 0.11897 0.0
C1566 C 0.72943 0.40219 0.14568 0.0
H1567 H 0.77369 0.33634 0.20523 0.0
H1568 H 0.77233 0.36367 0.18534 0.0
H1569 H 0.71927 0.38373 0.16805 0.0
H1570 H 0.71623 0.43913 0.07514 0.0
H1571 H 0.71736 0.41545 0.102 0.0
H1572 H 0.76939 0.40063 0.12465 0.0
C1573 C 0.76102 0.35549 0.1843 0.0
C1574 C 0.73026 0.38721 0.15855 0.0
C1575 C 0.7618 0.33988 0.19572 0.0
C1576 C 0.72723 0.43824 0.08759 0.0
C1577 C 0.72787 0.42463 0.10292 0.0
C1578 C 0.75847 0.39715 0.13431 0.0
C1579 C 0.74577 0.36055 0.17194 0.0
C1580 C 0.74512 0.37689 0.15914 0.0
C1581 C 0.74228 0.42245 0.1185 0.0
C1582 C 0.74349 0.40722 0.13334 0.0
H1583 H 0.72072 0.32598 0.1823 0.0
H1584 H 0.71941 0.35309 0.1618 0.0
H1585 H 0.77078 0.37431 0.14675 0.0
H1586 H 0.76576 0.45718 0.10457 0.0
H1587 H 0.76701 0.43309 0.13103 0.0
C1588 C 0.67115 0.75241 0.15847 0.0
C1589 C 0.67108 0.74774 0.18193 0.0
C1590 C 0.65594 0.75213 0.14418 0.0
C1591 C 0.61225 0.73351 0.1388 0.0
H1592 H 0.60274 0.77102 0.09674 0.0
C1593 C 0.54664 0.74118 0.08741 0.0
C1594 C 0.54717 0.74564 0.06399 0.0
C1595 C 0.56166 0.74157 0.10209 0.0
C1596 C 0.60529 0.76037 0.10823 0.0
H1597 H 0.65499 0.73927 0.20887 0.0
H1598 H 0.62843 0.73878 0.18392 0.0
H1599 H 0.62926 0.77126 0.12174 0.0
H1600 H 0.56334 0.75418 0.03734 0.0
H1601 H 0.58974 0.75479 0.06292 0.0
H1602 H 0.58827 0.72262 0.12526 0.0
C1603 C 0.64029 0.74242 0.17648 0.0
C1604 C 0.62048 0.7605 0.12253 0.0
C1605 C 0.6555 0.74269 0.19077 0.0
C1606 C 0.56277 0.75069 0.05542 0.0
C1607 C 0.57779 0.75112 0.07007 0.0
C1608 C 0.59704 0.73338 0.1245 0.0
C1609 C 0.64034 0.74718 0.15305 0.0
C1610 C 0.62415 0.74706 0.13794 0.0
C1611 C 0.57741 0.74652 0.09356 0.0
C1612 C 0.59342 0.74679 0.10902 0.0
H1613 H 0.683 0.75611 0.15107 0.0
H1614 H 0.65644 0.7556 0.1261 0.0
H1615 H 0.61482 0.72285 0.15026 0.0
H1616 H 0.53461 0.73738 0.09427 0.0
H1617 H 0.56093 0.73818 0.12017 0.0
C1618 C 0.23645 0.66047 0.17532 0.0
C1619 C 0.24527 0.67467 0.16716 0.0
C1620 C 0.23578 0.64485 0.16265 0.0
C1621 C 0.23906 0.62609 0.104 0.0
H1622 H 0.24998 0.58384 0.13617 0.0
C1623 C 0.25233 0.56228 0.05513 0.0
C1624 C 0.24659 0.54699 0.06442 0.0
C1625 C 0.25078 0.57791 0.06741 0.0
C1626 C 0.2466 0.59548 0.12699 0.0
H1627 H 0.26037 0.68357 0.13939 0.0
H1628 H 0.25894 0.65626 0.11704 0.0
H1629 H 0.25012 0.6112 0.15824 0.0
H1630 H 0.2347 0.53566 0.09334 0.0
H1631 H 0.23149 0.56316 0.11477 0.0
H1632 H 0.23544 0.61042 0.07276 0.0
C1633 C 0.25249 0.65733 0.1332 0.0
C1634 C 0.24675 0.61112 0.13962 0.0
C1635 C 0.25329 0.67294 0.14597 0.0
C1636 C 0.23906 0.54744 0.08593 0.0
C1637 C 0.2374 0.5631 0.09819 0.0
C1638 C 0.23877 0.61043 0.09139 0.0
C1639 C 0.24377 0.64316 0.14148 0.0
C1640 C 0.24314 0.62657 0.12819 0.0
C1641 C 0.24342 0.57848 0.08916 0.0
C1642 C 0.24269 0.59497 0.10272 0.0
H1643 H 0.22984 0.66149 0.19134 0.0
H1644 H 0.22879 0.63415 0.16924 0.0
H1645 H 0.23599 0.63782 0.09486 0.0
H1646 H 0.25831 0.56204 0.03859 0.0
H1647 H 0.25581 0.58945 0.06017 0.0
C1648 C 0.33382 0.75796 0.84022 0.0
C1649 C 0.33163 0.74848 0.81896 0.0
C1650 C 0.34937 0.75747 0.85365 0.0
C1651 C 0.38939 0.732 0.86243 0.0
H1652 H 0.40566 0.77361 0.89604 0.0
C1653 C 0.45618 0.73796 0.91289 0.0
C1654 C 0.45579 0.74476 0.93579 0.0
C1655 C 0.44145 0.73841 0.89768 0.0
C1656 C 0.40122 0.76189 0.8868 0.0
H1657 H 0.34414 0.7309 0.79528 0.0
H1658 H 0.37152 0.73058 0.81828 0.0
H1659 H 0.37926 0.77444 0.87089 0.0
H1660 H 0.44013 0.75759 0.96083 0.0
H1661 H 0.41437 0.75868 0.93411 0.0
H1662 H 0.41161 0.71958 0.87822 0.0
C1663 C 0.36107 0.73815 0.82478 0.0
C1664 C 0.38607 0.76232 0.87249 0.0
C1665 C 0.34543 0.73852 0.81143 0.0
C1666 C 0.44062 0.75227 0.9432 0.0
C1667 C 0.42598 0.75293 0.92793 0.0
C1668 C 0.40467 0.73163 0.87656 0.0
C1669 C 0.36324 0.74765 0.84605 0.0
C1670 C 0.37983 0.74733 0.86036 0.0
C1671 C 0.42624 0.74596 0.90507 0.0
C1672 C 0.41059 0.74652 0.88909 0.0
H1673 H 0.32358 0.76598 0.84642 0.0
H1674 H 0.35046 0.76473 0.87011 0.0
H1675 H 0.38487 0.72016 0.85361 0.0
H1676 H 0.46787 0.73229 0.90685 0.0
H1677 H 0.44199 0.73308 0.88007 0.0
C1678 C 0.26348 0.32893 0.87647 0.0
C1679 C 0.26379 0.32715 0.85206 0.0
C1680 C 0.2672 0.34479 0.88777 0.0
C1681 C 0.26609 0.39095 0.87673 0.0
H1682 H 0.29147 0.39487 0.93708 0.0
C1683 C 0.27531 0.45626 0.92589 0.0
C1684 C 0.27145 0.45607 0.94937 0.0
C1685 C 0.27741 0.44076 0.91341 0.0
C1686 C 0.28435 0.39395 0.92024 0.0
H1687 H 0.26843 0.34049 0.82038 0.0
H1688 H 0.27521 0.36812 0.84017 0.0
H1689 H 0.28952 0.36696 0.91618 0.0
H1690 H 0.26704 0.44013 0.97865 0.0
H1691 H 0.27053 0.4129 0.95685 0.0
H1692 H 0.26052 0.41778 0.88101 0.0
C1693 C 0.27195 0.35729 0.85052 0.0
C1694 C 0.28321 0.378 0.90832 0.0
C1695 C 0.26824 0.34144 0.83923 0.0
C1696 C 0.27012 0.44038 0.9605 0.0
C1697 C 0.27222 0.42489 0.94808 0.0
C1698 C 0.26722 0.40687 0.88864 0.0
C1699 C 0.27127 0.35917 0.87486 0.0
C1700 C 0.27383 0.37629 0.88663 0.0
C1701 C 0.27564 0.42492 0.92432 0.0
C1702 C 0.27611 0.40847 0.91068 0.0
H1703 H 0.26029 0.31807 0.88682 0.0
H1704 H 0.26639 0.34591 0.90653 0.0
H1705 H 0.25856 0.38998 0.8602 0.0
H1706 H 0.27634 0.46837 0.91717 0.0
H1707 H 0.28018 0.44114 0.89517 0.0
C1708 C 0.65992 0.25728 0.82409 0.0
C1709 C 0.67687 0.25713 0.83395 0.0
C1710 C 0.64607 0.25785 0.83839 0.0
C1711 C 0.63503 0.25035 0.89939 0.0
H1712 H 0.59331 0.2745 0.87956 0.0
C1713 C 0.57313 0.24429 0.94825 0.0
C1714 C 0.56235 0.25876 0.94993 0.0
C1715 C 0.5871 0.24441 0.93419 0.0
C1716 C 0.60492 0.26788 0.88557 0.0
H1717 H 0.69276 0.25791 0.86633 0.0
H1718 H 0.66866 0.25956 0.89141 0.0
H1719 H 0.6178 0.27488 0.85548 0.0
H1720 H 0.55791 0.28474 0.93787 0.0
H1721 H 0.58276 0.28529 0.91442 0.0
H1722 H 0.62245 0.24402 0.93 0.0
C1723 C 0.66594 0.25866 0.87267 0.0
C1724 C 0.61892 0.26785 0.87151 0.0
C1725 C 0.67977 0.25781 0.85834 0.0
C1726 C 0.56603 0.27342 0.9373 0.0
C1727 C 0.58016 0.27364 0.9235 0.0
C1728 C 0.62113 0.25059 0.9136 0.0
C1729 C 0.64889 0.25856 0.86289 0.0
C1730 C 0.63412 0.25898 0.87815 0.0
C1731 C 0.59086 0.25911 0.9217 0.0
C1732 C 0.60583 0.25924 0.9068 0.0
H1733 H 0.65738 0.25659 0.80529 0.0
H1734 H 0.63316 0.2574 0.83019 0.0
H1735 H 0.6464 0.24317 0.90498 0.0
H1736 H 0.57091 0.23285 0.95798 0.0
H1737 H 0.59485 0.23288 0.933 0.0
C1738 C 0.73007 0.67161 0.83007 0.0
C1739 C 0.74256 0.67228 0.81356 0.0
C1740 C 0.72746 0.65648 0.84182 0.0
C1741 C 0.73677 0.60956 0.84134 0.0
H1742 H 0.73083 0.61531 0.90773 0.0
C1743 C 0.74571 0.55513 0.90794 0.0
C1744 C 0.73371 0.55447 0.92517 0.0
C1745 C 0.74525 0.5686 0.89232 0.0
C1746 C 0.73225 0.6135 0.88916 0.0
H1747 H 0.76188 0.6577 0.79594 0.0
H1748 H 0.75766 0.63127 0.81694 0.0
H1749 H 0.73295 0.64061 0.88417 0.0
H1750 H 0.71163 0.56713 0.93926 0.0
H1751 H 0.71079 0.59058 0.9119 0.0
H1752 H 0.73658 0.58233 0.84673 0.0
C1753 C 0.74963 0.64231 0.82048 0.0
C1754 C 0.73342 0.62799 0.87562 0.0
C1755 C 0.75211 0.65743 0.80853 0.0
C1756 C 0.72095 0.56723 0.92604 0.0
C1757 C 0.72056 0.58072 0.91054 0.0
C1758 C 0.73572 0.59502 0.85498 0.0
C1759 C 0.73744 0.64175 0.83751 0.0
C1760 C 0.73571 0.62621 0.85156 0.0
C1761 C 0.73287 0.58168 0.8938 0.0
C1762 C 0.73345 0.5969 0.879 0.0
H1763 H 0.72235 0.68283 0.83393 0.0
H1764 H 0.71771 0.65636 0.85444 0.0
H1765 H 0.73834 0.60776 0.82281 0.0
H1766 H 0.75558 0.54536 0.90676 0.0
H1767 H 0.75495 0.56911 0.87965 0.0
loop_
_geom_bond_atom_site_label_1
_geom_bond_atom_site_label_2
_geom_bond_distance
_geom_bond_site_symmetry_2
_ccdc_geom_bond_type
H0 C19 0.949 . S
H1 C20 0.950 . S
H2 C22 0.950 . S
H3 C23 0.950 . S
H4 C25 0.950 . S
H5 C28 0.950 . S
H6 C29 0.950 . S
H7 C31 0.951 . S
H8 C32 0.949 . S
H9 C34 0.949 . S
H10 C35 0.950 . S
H11 C37 0.950 . S
H12 C38 0.950 . S
H13 C40 0.950 . S
H14 C43 0.950 . S
H15 C44 0.950 . S
H16 C46 0.951 . S
H17 C47 0.949 . S
C18 C19 1.376 . S
C18 C23 1.386 . S
C18 C24 1.483 . S
C19 H0 0.949 . S
C19 C18 1.376 . S
C19 C20 1.397 . S
C20 H1 0.950 . S
C20 C19 1.397 . S
C20 C21 1.391 . S
C21 C20 1.391 . S
C21 C22 1.405 . S
C22 H2 0.950 . S
C22 C21 1.405 . S
C22 C23 1.367 . S
C23 H3 0.950 . S
C23 C18 1.386 . S
C23 C22 1.367 . S
C24 C18 1.483 . S
C24 C25 1.382 . S
C24 C26 1.403 . S
C25 H4 0.950 . S
C25 C24 1.382 . S
C25 C41 1.411 . S
C26 C24 1.403 . S
C26 C27 1.489 . S
C26 C40 1.411 . S
C27 C26 1.489 . S
C27 C28 1.383 . S
C27 C32 1.382 . S
C28 H5 0.950 . S
C28 C27 1.383 . S
C28 C29 1.395 . S
C29 H6 0.950 . S
C29 C28 1.395 . S
C29 C30 1.288 . S
C30 C29 1.288 . S
C30 C31 1.392 . S
C31 H7 0.951 . S
C31 C30 1.392 . S
C31 C32 1.392 . S
C32 H8 0.949 . S
C32 C27 1.382 . S
C32 C31 1.392 . S
C33 C34 1.376 . S
C33 C38 1.386 . S
C33 C39 1.483 . S
C34 H9 0.949 . S
C34 C33 1.376 . S
C34 C35 1.397 . S
C35 H10 0.950 . S
C35 C34 1.397 . S
C35 C36 1.391 . S
C36 C35 1.391 . S
C36 C37 1.405 . S
C37 H11 0.950 . S
C37 C36 1.405 . S
C37 C38 1.367 . S
C38 H12 0.950 . S
C38 C33 1.386 . S
C38 C37 1.367 . S
C39 C33 1.483 . S
C39 C40 1.382 . S
C39 C41 1.403 . S
C40 H13 0.950 . S
C40 C26 1.411 . S
C40 C39 1.382 . S
C41 C25 1.411 . S
C41 C39 1.403 . S
C41 C42 1.489 . S
C42 C41 1.489 . S
C42 C43 1.383 . S
C42 C47 1.382 . S
C43 H14 0.950 . S
C43 C42 1.383 . S
C43 C44 1.395 . S
C44 H15 0.950 . S
C44 C43 1.395 . S
C44 C45 1.288 . S
C45 C44 1.288 . S
C45 C46 1.392 . S
C46 H16 0.951 . S
C46 C45 1.392 . S
C46 C47 1.392 . S
C47 H17 0.949 . S
C47 C42 1.382 . S
C47 C46 1.392 . S
H48 C67 0.949 . S
H49 C68 0.950 . S
H50 C70 0.950 . S
H51 C71 0.950 . S
H52 C73 0.950 . S
H53 C76 0.950 . S
H54 C77 0.950 . S
H55 C79 0.951 . S
H56 C80 0.949 . S
H57 C82 0.949 . S
H58 C83 0.950 . S
H59 C85 0.950 . S
H60 C86 0.950 . S
H61 C88 0.950 . S
H62 C91 0.950 . S
H63 C92 0.950 . S
H64 C94 0.951 . S
H65 C95 0.949 . S
C66 C67 1.376 . S
C66 C71 1.386 . S
C66 C72 1.483 . S
C67 H48 0.949 . S
C67 C66 1.376 . S
C67 C68 1.397 . S
C68 H49 0.950 . S
C68 C67 1.397 . S
C68 C69 1.391 . S
C69 C68 1.391 . S
C69 C70 1.405 . S
C70 H50 0.950 . S
C70 C69 1.405 . S
C70 C71 1.367 . S
C71 H51 0.950 . S
C71 C66 1.386 . S
C71 C70 1.367 . S
C72 C66 1.483 . S
C72 C73 1.382 . S
C72 C74 1.403 . S
C73 H52 0.950 . S
C73 C72 1.382 . S
C73 C89 1.411 . S
C74 C72 1.403 . S
C74 C75 1.489 . S
C74 C88 1.411 . S
C75 C74 1.489 . S
C75 C76 1.383 . S
C75 C80 1.382 . S
C76 H53 0.950 . S
C76 C75 1.383 . S
C76 C77 1.395 . S
C77 H54 0.950 . S
C77 C76 1.395 . S
C77 C78 1.288 . S
C78 C77 1.288 . S
C78 C79 1.392 . S
C79 H55 0.951 . S
C79 C78 1.392 . S
C79 C80 1.392 . S
C80 H56 0.949 . S
C80 C75 1.382 . S
C80 C79 1.392 . S
C81 C82 1.376 . S
C81 C86 1.386 . S
C81 C87 1.483 . S
C82 H57 0.949 . S
C82 C81 1.376 . S
C82 C83 1.397 . S
C83 H58 0.950 . S
C83 C82 1.397 . S
C83 C84 1.391 . S
C84 C83 1.391 . S
C84 C85 1.405 . S
C85 H59 0.950 . S
C85 C84 1.405 . S
C85 C86 1.367 . S
C86 H60 0.950 . S
C86 C81 1.386 . S
C86 C85 1.367 . S
C87 C81 1.483 . S
C87 C88 1.382 . S
C87 C89 1.403 . S
C88 H61 0.950 . S
C88 C74 1.411 . S
C88 C87 1.382 . S
C89 C73 1.411 . S
C89 C87 1.403 . S
C89 C90 1.489 . S
C90 C89 1.489 . S
C90 C91 1.383 . S
C90 C95 1.382 . S
C91 H62 0.950 . S
C91 C90 1.383 . S
C91 C92 1.395 . S
C92 H63 0.950 . S
C92 C91 1.395 . S
C92 C93 1.288 . S
C93 C92 1.288 . S
C93 C94 1.392 . S
C94 H64 0.951 . S
C94 C93 1.392 . S
C94 C95 1.392 . S
C95 H65 0.949 . S
C95 C90 1.382 . S
C95 C94 1.392 . S
H96 C115 0.949 . S
H97 C116 0.950 . S
H98 C118 0.950 . S
H99 C119 0.950 . S
H100 C121 0.950 . S
H101 C124 0.950 . S
H102 C125 0.950 . S
H103 C127 0.951 . S
H104 C128 0.949 . S
H105 C130 0.949 . S
H106 C131 0.950 . S
H107 C133 0.950 . S
H108 C134 0.950 . S
H109 C136 0.950 . S
H110 C139 0.950 . S
H111 C140 0.950 . S
H112 C142 0.951 . S
H113 C143 0.949 . S
C114 C115 1.376 . S
C114 C119 1.386 . S
C114 C120 1.483 . S
C115 H96 0.949 . S
C115 C114 1.376 . S
C115 C116 1.397 . S
C116 H97 0.950 . S
C116 C115 1.397 . S
C116 C117 1.391 . S
C117 C116 1.391 . S
C117 C118 1.405 . S
C118 H98 0.950 . S
C118 C117 1.405 . S
C118 C119 1.367 . S
C119 H99 0.950 . S
C119 C114 1.386 . S
C119 C118 1.367 . S
C120 C114 1.483 . S
C120 C121 1.382 . S
C120 C122 1.403 . S
C121 H100 0.950 . S
C121 C120 1.382 . S
C121 C137 1.411 . S
C122 C120 1.403 . S
C122 C123 1.489 . S
C122 C136 1.411 . S
C123 C122 1.489 . S
C123 C124 1.383 . S
C123 C128 1.382 . S
C124 H101 0.950 . S
C124 C123 1.383 . S
C124 C125 1.395 . S
C125 H102 0.950 . S
C125 C124 1.395 . S
C125 C126 1.288 . S
C126 C125 1.288 . S
C126 C127 1.392 . S
C127 H103 0.951 . S
C127 C126 1.392 . S
C127 C128 1.392 . S
C128 H104 0.949 . S
C128 C123 1.382 . S
C128 C127 1.392 . S
C129 C130 1.376 . S
C129 C134 1.386 . S
C129 C135 1.483 . S
C130 H105 0.949 . S
C130 C129 1.376 . S
C130 C131 1.397 . S
C131 H106 0.950 . S
C131 C130 1.397 . S
C131 C132 1.391 . S
C132 C131 1.391 . S
C132 C133 1.405 . S
C133 H107 0.950 . S
C133 C132 1.405 . S
C133 C134 1.367 . S
C134 H108 0.950 . S
C134 C129 1.386 . S
C134 C133 1.367 . S
C135 C129 1.483 . S
C135 C136 1.382 . S
C135 C137 1.403 . S
C136 H109 0.950 . S
C136 C122 1.411 . S
C136 C135 1.382 . S
C137 C121 1.411 . S
C137 C135 1.403 . S
C137 C138 1.489 . S
C138 C137 1.489 . S
C138 C139 1.383 . S
C138 C143 1.382 . S
C139 H110 0.950 . S
C139 C138 1.383 . S
C139 C140 1.395 . S
C140 H111 0.950 . S
C140 C139 1.395 . S
C140 C141 1.288 . S
C141 C140 1.288 . S
C141 C142 1.392 . S
C142 H112 0.951 . S
C142 C141 1.392 . S
C142 C143 1.392 . S
C143 H113 0.949 . S
C143 C138 1.382 . S
C143 C142 1.392 . S
H144 C163 0.949 . S
H145 C164 0.950 . S
H146 C166 0.950 . S
H147 C167 0.950 . S
H148 C169 0.950 . S
H149 C172 0.950 . S
H150 C173 0.950 . S
H151 C175 0.951 . S
H152 C176 0.949 . S
H153 C178 0.949 . S
H154 C179 0.950 . S
H155 C181 0.950 . S
H156 C182 0.950 . S
H157 C184 0.950 . S
H158 C187 0.950 . S
H159 C188 0.950 . S
H160 C190 0.951 . S
H161 C191 0.949 . S
C162 C163 1.376 . S
C162 C167 1.386 . S
C162 C168 1.483 . S
C163 H144 0.949 . S
C163 C162 1.376 . S
C163 C164 1.397 . S
C164 H145 0.950 . S
C164 C163 1.397 . S
C164 C165 1.391 . S
C165 C164 1.391 . S
C165 C166 1.405 . S
C166 H146 0.950 . S
C166 C165 1.405 . S
C166 C167 1.367 . S
C167 H147 0.950 . S
C167 C162 1.386 . S
C167 C166 1.367 . S
C168 C162 1.483 . S
C168 C169 1.382 . S
C168 C170 1.403 . S
C169 H148 0.950 . S
C169 C168 1.382 . S
C169 C185 1.411 . S
C170 C168 1.403 . S
C170 C171 1.489 . S
C170 C184 1.411 . S
C171 C170 1.489 . S
C171 C172 1.383 . S
C171 C176 1.382 . S
C172 H149 0.950 . S
C172 C171 1.383 . S
C172 C173 1.395 . S
C173 H150 0.950 . S
C173 C172 1.395 . S
C173 C174 1.288 . S
C174 C173 1.288 . S
C174 C175 1.392 . S
C175 H151 0.951 . S
C175 C174 1.392 . S
C175 C176 1.392 . S
C176 H152 0.949 . S
C176 C171 1.382 . S
C176 C175 1.392 . S
C177 C178 1.376 . S
C177 C182 1.386 . S
C177 C183 1.483 . S
C178 H153 0.949 . S
C178 C177 1.376 . S
C178 C179 1.397 . S
C179 H154 0.950 . S
C179 C178 1.397 . S
C179 C180 1.391 . S
C180 C179 1.391 . S
C180 C181 1.405 . S
C181 H155 0.950 . S
C181 C180 1.405 . S
C181 C182 1.367 . S
C182 H156 0.950 . S
C182 C177 1.386 . S
C182 C181 1.367 . S
C183 C177 1.483 . S
C183 C184 1.382 . S
C183 C185 1.403 . S
C184 H157 0.950 . S
C184 C170 1.411 . S
C184 C183 1.382 . S
C185 C169 1.411 . S
C185 C183 1.403 . S
C185 C186 1.489 . S
C186 C185 1.489 . S
C186 C187 1.383 . S
C186 C191 1.382 . S
C187 H158 0.950 . S
C187 C186 1.383 . S
C187 C188 1.395 . S
C188 H159 0.950 . S
C188 C187 1.395 . S
C188 C189 1.288 . S
C189 C188 1.288 . S
C189 C190 1.392 . S
C190 H160 0.951 . S
C190 C189 1.392 . S
C190 C191 1.392 . S
C191 H161 0.949 . S
C191 C186 1.382 . S
C191 C190 1.392 . S
H192 C211 0.949 . S
H193 C212 0.950 . S
H194 C214 0.950 . S
H195 C215 0.950 . S
H196 C217 0.950 . S
H197 C220 0.950 . S
H198 C221 0.950 . S
H199 C223 0.951 . S
H200 C224 0.949 . S
H201 C226 0.949 . S
H202 C227 0.950 . S
H203 C229 0.950 . S
H204 C230 0.950 . S
H205 C232 0.950 . S
H206 C235 0.950 . S
H207 C236 0.950 . S
H208 C238 0.951 . S
H209 C239 0.949 . S
C210 C211 1.376 . S
C210 C215 1.386 . S
C210 C216 1.483 . S
C211 H192 0.949 . S
C211 C210 1.376 . S
C211 C212 1.397 . S
C212 H193 0.950 . S
C212 C211 1.397 . S
C212 C213 1.391 . S
C213 C212 1.391 . S
C213 C214 1.405 . S
C214 H194 0.950 . S
C214 C213 1.405 . S
C214 C215 1.367 . S
C215 H195 0.950 . S
C215 C210 1.386 . S
C215 C214 1.367 . S
C216 C210 1.483 . S
C216 C217 1.382 . S
C216 C218 1.403 . S
C217 H196 0.950 . S
C217 C216 1.382 . S
C217 C233 1.411 . S
C218 C216 1.403 . S
C218 C219 1.489 . S
C218 C232 1.411 . S
C219 C218 1.489 . S
C219 C220 1.383 . S
C219 C224 1.382 . S
C220 H197 0.950 . S
C220 C219 1.383 . S
C220 C221 1.395 . S
C221 H198 0.950 . S
C221 C220 1.395 . S
C221 C222 1.288 . S
C222 C221 1.288 . S
C222 C223 1.392 . S
C223 H199 0.951 . S
C223 C222 1.392 . S
C223 C224 1.392 . S
C224 H200 0.949 . S
C224 C219 1.382 . S
C224 C223 1.392 . S
C225 C226 1.376 . S
C225 C230 1.386 . S
C225 C231 1.483 . S
C226 H201 0.949 . S
C226 C225 1.376 . S
C226 C227 1.397 . S
C227 H202 0.950 . S
C227 C226 1.397 . S
C227 C228 1.391 . S
C228 C227 1.391 . S
C228 C229 1.405 . S
C229 H203 0.950 . S
C229 C228 1.405 . S
C229 C230 1.367 . S
C230 H204 0.950 . S
C230 C225 1.386 . S
C230 C229 1.367 . S
C231 C225 1.483 . S
C231 C232 1.382 . S
C231 C233 1.403 . S
C232 H205 0.950 . S
C232 C218 1.411 . S
C232 C231 1.382 . S
C233 C217 1.411 . S
C233 C231 1.403 . S
C233 C234 1.489 . S
C234 C233 1.489 . S
C234 C235 1.383 . S
C234 C239 1.382 . S
C235 H206 0.950 . S
C235 C234 1.383 . S
C235 C236 1.395 . S
C236 H207 0.950 . S
C236 C235 1.395 . S
C236 C237 1.288 . S
C237 C236 1.288 . S
C237 C238 1.392 . S
C238 H208 0.951 . S
C238 C237 1.392 . S
C238 C239 1.392 . S
C239 H209 0.949 . S
C239 C234 1.382 . S
C239 C238 1.392 . S
H240 C259 0.949 . S
H241 C260 0.950 . S
H242 C262 0.950 . S
H243 C263 0.950 . S
H244 C265 0.950 . S
H245 C268 0.950 . S
H246 C269 0.950 . S
H247 C271 0.951 . S
H248 C272 0.949 . S
H249 C274 0.949 . S
H250 C275 0.950 . S
H251 C277 0.950 . S
H252 C278 0.950 . S
H253 C280 0.950 . S
H254 C283 0.950 . S
H255 C284 0.950 . S
H256 C286 0.951 . S
H257 C287 0.949 . S
C258 C259 1.376 . S
C258 C263 1.386 . S
C258 C264 1.483 . S
C259 H240 0.949 . S
C259 C258 1.376 . S
C259 C260 1.397 . S
C260 H241 0.950 . S
C260 C259 1.397 . S
C260 C261 1.391 . S
C261 C260 1.391 . S
C261 C262 1.405 . S
C262 H242 0.950 . S
C262 C261 1.405 . S
C262 C263 1.367 . S
C263 H243 0.950 . S
C263 C258 1.386 . S
C263 C262 1.367 . S
C264 C258 1.483 . S
C264 C265 1.382 . S
C264 C266 1.403 . S
C265 H244 0.950 . S
C265 C264 1.382 . S
C265 C281 1.411 . S
C266 C264 1.403 . S
C266 C267 1.489 . S
C266 C280 1.411 . S
C267 C266 1.489 . S
C267 C268 1.383 . S
C267 C272 1.382 . S
C268 H245 0.950 . S
C268 C267 1.383 . S
C268 C269 1.395 . S
C269 H246 0.950 . S
C269 C268 1.395 . S
C269 C270 1.288 . S
C270 C269 1.288 . S
C270 C271 1.392 . S
C271 H247 0.951 . S
C271 C270 1.392 . S
C271 C272 1.392 . S
C272 H248 0.949 . S
C272 C267 1.382 . S
C272 C271 1.392 . S
C273 C274 1.376 . S
C273 C278 1.386 . S
C273 C279 1.483 . S
C274 H249 0.949 . S
C274 C273 1.376 . S
C274 C275 1.397 . S
C275 H250 0.950 . S
C275 C274 1.397 . S
C275 C276 1.391 . S
C276 C275 1.391 . S
C276 C277 1.405 . S
C277 H251 0.950 . S
C277 C276 1.405 . S
C277 C278 1.367 . S
C278 H252 0.950 . S
C278 C273 1.386 . S
C278 C277 1.367 . S
C279 C273 1.483 . S
C279 C280 1.382 . S
C279 C281 1.403 . S
C280 H253 0.950 . S
C280 C266 1.411 . S
C280 C279 1.382 . S
C281 C265 1.411 . S
C281 C279 1.403 . S
C281 C282 1.489 . S
C282 C281 1.489 . S
C282 C283 1.383 . S
C282 C287 1.382 . S
C283 H254 0.950 . S
C283 C282 1.383 . S
C283 C284 1.395 . S
C284 H255 0.950 . S
C284 C283 1.395 . S
C284 C285 1.288 . S
C285 C284 1.288 . S
C285 C286 1.392 . S
C286 H256 0.951 . S
C286 C285 1.392 . S
C286 C287 1.392 . S
C287 H257 0.949 . S
C287 C282 1.382 . S
C287 C286 1.392 . S
H288 C307 0.949 . S
H289 C308 0.950 . S
H290 C310 0.950 . S
H291 C311 0.950 . S
H292 C313 0.950 . S
H293 C316 0.950 . S
H294 C317 0.950 . S
H295 C319 0.951 . S
H296 C320 0.949 . S
H297 C322 0.949 . S
H298 C323 0.950 . S
H299 C325 0.950 . S
H300 C326 0.950 . S
H301 C328 0.950 . S
H302 C331 0.950 . S
H303 C332 0.950 . S
H304 C334 0.951 . S
H305 C335 0.949 . S
C306 C307 1.376 . S
C306 C311 1.386 . S
C306 C312 1.483 . S
C307 H288 0.949 . S
C307 C306 1.376 . S
C307 C308 1.397 . S
C308 H289 0.950 . S
C308 C307 1.397 . S
C308 C309 1.391 . S
C309 C308 1.391 . S
C309 C310 1.405 . S
C310 H290 0.950 . S
C310 C309 1.405 . S
C310 C311 1.367 . S
C311 H291 0.950 . S
C311 C306 1.386 . S
C311 C310 1.367 . S
C312 C306 1.483 . S
C312 C313 1.382 . S
C312 C314 1.403 . S
C313 H292 0.950 . S
C313 C312 1.382 . S
C313 C329 1.411 . S
C314 C312 1.403 . S
C314 C315 1.489 . S
C314 C328 1.411 . S
C315 C314 1.489 . S
C315 C316 1.383 . S
C315 C320 1.382 . S
C316 H293 0.950 . S
C316 C315 1.383 . S
C316 C317 1.395 . S
C317 H294 0.950 . S
C317 C316 1.395 . S
C317 C318 1.288 . S
C318 C317 1.288 . S
C318 C319 1.392 . S
C319 H295 0.951 . S
C319 C318 1.392 . S
C319 C320 1.392 . S
C320 H296 0.949 . S
C320 C315 1.382 . S
C320 C319 1.392 . S
C321 C322 1.376 . S
C321 C326 1.386 . S
C321 C327 1.483 . S
C322 H297 0.949 . S
C322 C321 1.376 . S
C322 C323 1.397 . S
C323 H298 0.950 . S
C323 C322 1.397 . S
C323 C324 1.391 . S
C324 C323 1.391 . S
C324 C325 1.405 . S
C325 H299 0.950 . S
C325 C324 1.405 . S
C325 C326 1.367 . S
C326 H300 0.950 . S
C326 C321 1.386 . S
C326 C325 1.367 . S
C327 C321 1.483 . S
C327 C328 1.382 . S
C327 C329 1.403 . S
C328 H301 0.950 . S
C328 C314 1.411 . S
C328 C327 1.382 . S
C329 C313 1.411 . S
C329 C327 1.403 . S
C329 C330 1.489 . S
C330 C329 1.489 . S
C330 C331 1.383 . S
C330 C335 1.382 . S
C331 H302 0.950 . S
C331 C330 1.383 . S
C331 C332 1.395 . S
C332 H303 0.950 . S
C332 C331 1.395 . S
C332 C333 1.288 . S
C333 C332 1.288 . S
C333 C334 1.392 . S
C334 H304 0.951 . S
C334 C333 1.392 . S
C334 C335 1.392 . S
C335 H305 0.949 . S
C335 C330 1.382 . S
C335 C334 1.392 . S
H336 C355 0.949 . S
H337 C356 0.950 . S
H338 C358 0.950 . S
H339 C359 0.950 . S
H340 C361 0.950 . S
H341 C364 0.950 . S
H342 C365 0.950 . S
H343 C367 0.951 . S
H344 C368 0.949 . S
H345 C370 0.949 . S
H346 C371 0.950 . S
H347 C373 0.950 . S
H348 C374 0.950 . S
H349 C376 0.950 . S
H350 C379 0.950 . S
H351 C380 0.950 . S
H352 C382 0.951 . S
H353 C383 0.949 . S
C354 C355 1.376 . S
C354 C359 1.386 . S
C354 C360 1.483 . S
C355 H336 0.949 . S
C355 C354 1.376 . S
C355 C356 1.397 . S
C356 H337 0.950 . S
C356 C355 1.397 . S
C356 C357 1.391 . S
C357 C356 1.391 . S
C357 C358 1.405 . S
C358 H338 0.950 . S
C358 C357 1.405 . S
C358 C359 1.367 . S
C359 H339 0.950 . S
C359 C354 1.386 . S
C359 C358 1.367 . S
C360 C354 1.483 . S
C360 C361 1.382 . S
C360 C362 1.403 . S
C361 H340 0.950 . S
C361 C360 1.382 . S
C361 C377 1.411 . S
C362 C360 1.403 . S
C362 C363 1.489 . S
C362 C376 1.411 . S
C363 C362 1.489 . S
C363 C364 1.383 . S
C363 C368 1.382 . S
C364 H341 0.950 . S
C364 C363 1.383 . S
C364 C365 1.395 . S
C365 H342 0.950 . S
C365 C364 1.395 . S
C365 C366 1.288 . S
C366 C365 1.288 . S
C366 C367 1.392 . S
C367 H343 0.951 . S
C367 C366 1.392 . S
C367 C368 1.392 . S
C368 H344 0.949 . S
C368 C363 1.382 . S
C368 C367 1.392 . S
C369 C370 1.376 . S
C369 C374 1.386 . S
C369 C375 1.483 . S
C370 H345 0.949 . S
C370 C369 1.376 . S
C370 C371 1.397 . S
C371 H346 0.950 . S
C371 C370 1.397 . S
C371 C372 1.391 . S
C372 C371 1.391 . S
C372 C373 1.405 . S
C373 H347 0.950 . S
C373 C372 1.405 . S
C373 C374 1.367 . S
C374 H348 0.950 . S
C374 C369 1.386 . S
C374 C373 1.367 . S
C375 C369 1.483 . S
C375 C376 1.382 . S
C375 C377 1.403 . S
C376 H349 0.950 . S
C376 C362 1.411 . S
C376 C375 1.382 . S
C377 C361 1.411 . S
C377 C375 1.403 . S
C377 C378 1.489 . S
C378 C377 1.489 . S
C378 C379 1.383 . S
C378 C383 1.382 . S
C379 H350 0.950 . S
C379 C378 1.383 . S
C379 C380 1.395 . S
C380 H351 0.950 . S
C380 C379 1.395 . S
C380 C381 1.288 . S
C381 C380 1.288 . S
C381 C382 1.392 . S
C382 H352 0.951 . S
C382 C381 1.392 . S
C382 C383 1.392 . S
C383 H353 0.949 . S
C383 C378 1.382 . S
C383 C382 1.392 . S
C384 C385 1.443 . S
C384 N388 1.376 . S
C384 C422 1.389 . S
C385 C384 1.443 . S
C385 C386 1.340 . S
C385 H425 0.951 . S
C386 C385 1.340 . S
C386 C387 1.439 . S
C386 H426 0.950 . S
C387 C386 1.439 . S
C387 N388 1.374 . S
C387 C421 1.395 . S
N388 C384 1.376 . S
N388 C387 1.374 . S
N388 Co389 2.008 . S
Co389 N388 2.008 . S
Co389 N390 1.995 1_455 S
Co389 N395 2.008 1_455 S
Co389 N400 1.995 . S
Co389 N405 2.282 1_455 S
Co389 N411 2.282 . S
N390 Co389 1.995 1_655 S
N390 C391 1.376 . S
N390 C394 1.383 . S
C391 N390 1.376 . S
C391 C392 1.446 . S
C391 C421 1.391 1_655 S
C392 C391 1.446 . S
C392 C393 1.339 . S
C392 H427 0.949 . S
C393 C392 1.339 . S
C393 C394 1.439 . S
C393 H428 0.950 . S
C394 N390 1.383 . S
C394 C393 1.439 . S
C394 C423 1.392 . S
N395 Co389 2.008 1_655 S
N395 C396 1.376 . S
N395 C399 1.374 . S
C396 N395 1.376 . S
C396 C397 1.443 . S
C396 C423 1.389 . S
C397 C396 1.443 . S
C397 C398 1.340 . S
C397 H429 0.951 . S
C398 C397 1.340 . S
C398 C399 1.439 . S
C398 H430 0.950 . S
C399 N395 1.374 . S
C399 C398 1.439 . S
C399 C424 1.420 . S
N400 Co389 1.995 . S
N400 C401 1.376 . S
N400 C404 1.383 . S
C401 N400 1.376 . S
C401 C402 1.446 . S
C401 C424 1.365 1_455 S
C402 C401 1.446 . S
C402 C403 1.339 . S
C402 H431 0.949 . S
C403 C402 1.339 . S
C403 C404 1.439 . S
C403 H432 0.950 . S
C404 N400 1.383 . S
C404 C403 1.439 . S
C404 C422 1.392 . S
N405 Co389 2.282 1_655 S
N405 C408 1.332 . S
N405 C410 1.332 . S
C406 C407 1.386 . S
C406 C409 1.388 . S
C407 C406 1.386 . S
C407 C408 1.382 . S
C407 H433 0.950 . S
C408 N405 1.332 . S
C408 C407 1.382 . S
C408 H419 0.952 . S
C409 C406 1.388 . S
C409 C410 1.382 . S
C409 H434 0.950 . S
C410 N405 1.332 . S
C410 C409 1.382 . S
C410 H420 0.948 . S
N411 Co389 2.282 . S
N411 C415 1.332 . S
N411 C416 1.332 . S
C412 C413 1.388 . S
C412 C416 1.382 . S
C412 H435 0.950 . S
C413 C412 1.388 . S
C413 C414 1.386 . S
C414 C413 1.386 . S
C414 C415 1.382 . S
C414 H436 0.950 . S
C415 N411 1.332 . S
C415 C414 1.382 . S
C415 H417 0.952 . S
C416 N411 1.332 . S
C416 C412 1.382 . S
C416 H418 0.948 . S
H417 C415 0.952 . S
H418 C416 0.948 . S
H419 C408 0.952 . S
H420 C410 0.948 . S
C421 C387 1.395 . S
C421 C391 1.391 1_455 S
C422 C384 1.389 . S
C422 C404 1.392 . S
C423 C394 1.392 . S
C423 C396 1.389 . S
C424 C399 1.420 . S
C424 C401 1.365 1_655 S
H425 C385 0.951 . S
H426 C386 0.950 . S
H427 C392 0.949 . S
H428 C393 0.950 . S
H429 C397 0.951 . S
H430 C398 0.950 . S
H431 C402 0.949 . S
H432 C403 0.950 . S
H433 C407 0.950 . S
H434 C409 0.950 . S
H435 C412 0.950 . S
H436 C414 0.950 . S
C437 C438 1.443 . S
C437 N441 1.376 . S
C437 C475 1.389 . S
C438 C437 1.443 . S
C438 C439 1.340 . S
C438 H478 0.951 . S
C439 C438 1.340 . S
C439 C440 1.439 . S
C439 H479 0.950 . S
C440 C439 1.439 . S
C440 N441 1.374 . S
C440 C474 1.395 . S
N441 C437 1.376 . S
N441 C440 1.374 . S
N441 Co442 2.008 . S
Co442 N441 2.008 . S
Co442 N443 1.995 1_545 S
Co442 N448 2.008 1_545 S
Co442 N453 1.995 . S
Co442 N458 2.282 1_545 S
Co442 N464 2.282 . S
N443 Co442 1.995 1_565 S
N443 C444 1.376 . S
N443 C447 1.383 . S
C444 N443 1.376 . S
C444 C445 1.446 . S
C444 C474 1.391 1_565 S
C445 C444 1.446 . S
C445 C446 1.339 . S
C445 H480 0.949 . S
C446 C445 1.339 . S
C446 C447 1.439 . S
C446 H481 0.950 . S
C447 N443 1.383 . S
C447 C446 1.439 . S
C447 C476 1.392 . S
N448 Co442 2.008 1_565 S
N448 C449 1.376 . S
N448 C452 1.374 . S
C449 N448 1.376 . S
C449 C450 1.443 . S
C449 C476 1.389 . S
C450 C449 1.443 . S
C450 C451 1.340 . S
C450 H482 0.951 . S
C451 C450 1.340 . S
C451 C452 1.439 . S
C451 H483 0.950 . S
C452 N448 1.374 . S
C452 C451 1.439 . S
C452 C477 1.401 . S
N453 Co442 1.995 . S
N453 C454 1.376 . S
N453 C457 1.383 . S
C454 N453 1.376 . S
C454 C455 1.446 . S
C454 C477 1.385 1_545 S
C455 C454 1.446 . S
C455 C456 1.339 . S
C455 H484 0.949 . S
C456 C455 1.339 . S
C456 C457 1.439 . S
C456 H485 0.950 . S
C457 N453 1.383 . S
C457 C456 1.439 . S
C457 C475 1.392 . S
N458 Co442 2.282 1_565 S
N458 C461 1.332 . S
N458 C463 1.332 . S
C459 C460 1.386 . S
C459 C462 1.388 . S
C460 C459 1.386 . S
C460 C461 1.382 . S
C460 H486 0.950 . S
C461 N458 1.332 . S
C461 C460 1.382 . S
C461 H472 0.952 . S
C462 C459 1.388 . S
C462 C463 1.382 . S
C462 H487 0.950 . S
C463 N458 1.332 . S
C463 C462 1.382 . S
C463 H473 0.948 . S
N464 Co442 2.282 . S
N464 C468 1.332 . S
N464 C469 1.332 . S
C465 C466 1.388 . S
C465 C469 1.382 . S
C465 H488 0.950 . S
C466 C465 1.388 . S
C466 C467 1.386 . S
C467 C466 1.386 . S
C467 C468 1.382 . S
C467 H489 0.950 . S
C468 N464 1.332 . S
C468 C467 1.382 . S
C468 H470 0.952 . S
C469 N464 1.332 . S
C469 C465 1.382 . S
C469 H471 0.948 . S
H470 C468 0.952 . S
H471 C469 0.948 . S
H472 C461 0.952 . S
H473 C463 0.948 . S
C474 C440 1.395 . S
C474 C444 1.391 1_545 S
C475 C437 1.389 . S
C475 C457 1.392 . S
C476 C447 1.392 . S
C476 C449 1.389 . S
C477 C452 1.401 . S
C477 C454 1.385 1_565 S
H478 C438 0.951 . S
H479 C439 0.950 . S
H480 C445 0.949 . S
H481 C446 0.950 . S
H482 C450 0.951 . S
H483 C451 0.950 . S
H484 C455 0.949 . S
H485 C456 0.950 . S
H486 C460 0.950 . S
H487 C462 0.950 . S
H488 C465 0.950 . S
H489 C467 0.950 . S
C490 C491 1.443 . S
C490 N494 1.376 . S
C490 C528 1.389 . S
C491 C490 1.443 . S
C491 C492 1.340 . S
C491 H531 0.951 . S
C492 C491 1.340 . S
C492 C493 1.439 . S
C492 H532 0.950 . S
C493 C492 1.439 . S
C493 N494 1.374 . S
C493 C527 1.395 . S
N494 C490 1.376 . S
N494 C493 1.374 . S
N494 Co495 2.008 . S
Co495 N494 2.008 . S
Co495 N496 1.995 1_455 S
Co495 N501 2.008 1_455 S
Co495 N506 1.995 . S
Co495 N511 2.282 1_455 S
Co495 N517 2.282 . S
N496 Co495 1.995 1_655 S
N496 C497 1.376 . S
N496 C500 1.383 . S
C497 N496 1.376 . S
C497 C498 1.446 . S
C497 C527 1.391 1_655 S
C498 C497 1.446 . S
C498 C499 1.339 . S
C498 H533 0.949 . S
C499 C498 1.339 . S
C499 C500 1.439 . S
C499 H534 0.950 . S
C500 N496 1.383 . S
C500 C499 1.439 . S
C500 C529 1.392 . S
N501 Co495 2.008 1_655 S
N501 C502 1.376 . S
N501 C505 1.374 . S
C502 N501 1.376 . S
C502 C503 1.443 . S
C502 C529 1.389 . S
C503 C502 1.443 . S
C503 C504 1.340 . S
C503 H535 0.951 . S
C504 C503 1.340 . S
C504 C505 1.439 . S
C504 H536 0.950 . S
C505 N501 1.374 . S
C505 C504 1.439 . S
C505 C530 1.395 . S
N506 Co495 1.995 . S
N506 C507 1.376 . S
N506 C510 1.383 . S
C507 N506 1.376 . S
C507 C508 1.446 . S
C507 C530 1.391 1_455 S
C508 C507 1.446 . S
C508 C509 1.339 . S
C508 H537 0.949 . S
C509 C508 1.339 . S
C509 C510 1.439 . S
C509 H538 0.950 . S
C510 N506 1.383 . S
C510 C509 1.439 . S
C510 C528 1.392 . S
N511 Co495 2.282 1_655 S
N511 C514 1.332 . S
N511 C516 1.332 . S
C512 C513 1.386 . S
C512 C515 1.388 . S
C513 C512 1.386 . S
C513 C514 1.382 . S
C513 H539 0.950 . S
C514 N511 1.332 . S
C514 C513 1.382 . S
C514 H525 0.952 . S
C515 C512 1.388 . S
C515 C516 1.382 . S
C515 H540 0.950 . S
C516 N511 1.332 . S
C516 C515 1.382 . S
C516 H526 0.948 . S
N517 Co495 2.282 . S
N517 C521 1.332 . S
N517 C522 1.332 . S
C518 C519 1.388 . S
C518 C522 1.382 . S
C518 H541 0.950 . S
C519 C518 1.388 . S
C519 C520 1.386 . S
C520 C519 1.386 . S
C520 C521 1.382 . S
C520 H542 0.950 . S
C521 N517 1.332 . S
C521 C520 1.382 . S
C521 H523 0.952 . S
C522 N517 1.332 . S
C522 C518 1.382 . S
C522 H524 0.948 . S
H523 C521 0.952 . S
H524 C522 0.948 . S
H525 C514 0.952 . S
H526 C516 0.948 . S
C527 C493 1.395 . S
C527 C497 1.391 1_455 S
C528 C490 1.389 . S
C528 C510 1.392 . S
C529 C500 1.392 . S
C529 C502 1.389 . S
C530 C505 1.395 . S
C530 C507 1.391 1_655 S
H531 C491 0.951 . S
H532 C492 0.950 . S
H533 C498 0.949 . S
H534 C499 0.950 . S
H535 C503 0.951 . S
H536 C504 0.950 . S
H537 C508 0.949 . S
H538 C509 0.950 . S
H539 C513 0.950 . S
H540 C515 0.950 . S
H541 C518 0.950 . S
H542 C520 0.950 . S
C543 C544 1.443 . S
C543 N547 1.376 . S
C543 C581 1.389 . S
C544 C543 1.443 . S
C544 C545 1.340 . S
C544 H584 0.951 . S
C545 C544 1.340 . S
C545 C546 1.439 . S
C545 H585 0.950 . S
C546 C545 1.439 . S
C546 N547 1.374 . S
C546 C580 1.417 . S
N547 C543 1.376 . S
N547 C546 1.374 . S
N547 Co548 2.008 1_565 S
Co548 N547 2.008 1_545 S
Co548 N549 1.995 . S
Co548 N554 2.008 . S
Co548 N559 1.995 1_545 S
Co548 N564 2.282 . S
Co548 N570 2.282 1_545 S
N549 Co548 1.995 . S
N549 C550 1.376 . S
N549 C553 1.383 . S
C550 N549 1.376 . S
C550 C551 1.446 . S
C550 C580 1.369 1_545 S
C551 C550 1.446 . S
C551 C552 1.339 . S
C551 H586 0.949 . S
C552 C551 1.339 . S
C552 C553 1.439 . S
C552 H587 0.950 . S
C553 N549 1.383 . S
C553 C552 1.439 . S
C553 C582 1.392 . S
N554 Co548 2.008 . S
N554 C555 1.376 . S
N554 C558 1.374 . S
C555 N554 1.376 . S
C555 C556 1.443 . S
C555 C582 1.389 . S
C556 C555 1.443 . S
C556 C557 1.340 . S
C556 H588 0.951 . S
C557 C556 1.340 . S
C557 C558 1.439 . S
C557 H589 0.950 . S
C558 N554 1.374 . S
C558 C557 1.439 . S
C558 C583 1.395 . S
N559 Co548 1.995 1_565 S
N559 C560 1.376 . S
N559 C563 1.383 . S
C560 N559 1.376 . S
C560 C561 1.446 . S
C560 C583 1.391 1_565 S
C561 C560 1.446 . S
C561 C562 1.339 . S
C561 H590 0.949 . S
C562 C561 1.339 . S
C562 C563 1.439 . S
C562 H591 0.950 . S
C563 N559 1.383 . S
C563 C562 1.439 . S
C563 C581 1.392 . S
N564 Co548 2.282 . S
N564 C567 1.332 . S
N564 C569 1.332 . S
C565 C566 1.386 . S
C565 C568 1.388 . S
C566 C565 1.386 . S
C566 C567 1.382 . S
C566 H592 0.950 . S
C567 N564 1.332 . S
C567 C566 1.382 . S
C567 H578 0.952 . S
C568 C565 1.388 . S
C568 C569 1.382 . S
C568 H593 0.950 . S
C569 N564 1.332 . S
C569 C568 1.382 . S
C569 H579 0.948 . S
N570 Co548 2.282 1_565 S
N570 C574 1.332 . S
N570 C575 1.332 . S
C571 C572 1.388 . S
C571 C575 1.382 . S
C571 H594 0.950 . S
C572 C571 1.388 . S
C572 C573 1.386 . S
C573 C572 1.386 . S
C573 C574 1.382 . S
C573 H595 0.950 . S
C574 N570 1.332 . S
C574 C573 1.382 . S
C574 H576 0.952 . S
C575 N570 1.332 . S
C575 C571 1.382 . S
C575 H577 0.948 . S
H576 C574 0.952 . S
H577 C575 0.948 . S
H578 C567 0.952 . S
H579 C569 0.948 . S
C580 C546 1.417 . S
C580 C550 1.369 1_565 S
C581 C543 1.389 . S
C581 C563 1.392 . S
C582 C553 1.392 . S
C582 C555 1.389 . S
C583 C558 1.395 . S
C583 C560 1.391 1_545 S
H584 C544 0.951 . S
H585 C545 0.950 . S
H586 C551 0.949 . S
H587 C552 0.950 . S
H588 C556 0.951 . S
H589 C557 0.950 . S
H590 C561 0.949 . S
H591 C562 0.950 . S
H592 C566 0.950 . S
H593 C568 0.950 . S
H594 C571 0.950 . S
H595 C573 0.950 . S
C596 C597 1.443 . S
C596 N600 1.376 . S
C596 C634 1.389 . S
C597 C596 1.443 . S
C597 C598 1.340 . S
C597 H637 0.951 . S
C598 C597 1.340 . S
C598 C599 1.439 . S
C598 H638 0.950 . S
C599 C598 1.439 . S
C599 N600 1.374 . S
C599 C633 1.395 1_554 S
N600 C596 1.376 . S
N600 C599 1.374 . S
N600 Co601 2.017 . S
Co601 N600 2.017 . S
Co601 N602 1.984 1_554 S
Co601 N607 1.999 1_554 S
Co601 N612 2.006 . S
Co601 N617 2.298 . S
Co601 N623 2.267 1_554 S
N602 Co601 1.984 1_556 S
N602 C603 1.376 . S
N602 C606 1.383 . S
C603 N602 1.376 . S
C603 C604 1.446 . S
C603 C633 1.391 . S
C604 C603 1.446 . S
C604 C605 1.339 . S
C604 H639 0.949 . S
C605 C604 1.339 . S
C605 C606 1.439 . S
C605 H640 0.950 . S
C606 N602 1.383 . S
C606 C605 1.439 . S
C606 C635 1.392 . S
N607 Co601 1.999 1_556 S
N607 C608 1.376 . S
N607 C611 1.374 . S
C608 N607 1.376 . S
C608 C609 1.443 . S
C608 C635 1.389 . S
C609 C608 1.443 . S
C609 C610 1.340 . S
C609 H641 0.951 . S
C610 C609 1.340 . S
C610 C611 1.439 . S
C610 H642 0.950 . S
C611 N607 1.374 . S
C611 C610 1.439 . S
C611 C636 1.395 1_556 S
N612 Co601 2.006 . S
N612 C613 1.376 . S
N612 C616 1.383 . S
C613 N612 1.376 . S
C613 C614 1.446 . S
C613 C636 1.391 . S
C614 C613 1.446 . S
C614 C615 1.339 . S
C614 H643 0.949 . S
C615 C614 1.339 . S
C615 C616 1.439 . S
C615 H644 0.950 . S
C616 N612 1.383 . S
C616 C615 1.439 . S
C616 C634 1.392 . S
N617 Co601 2.298 . S
N617 C620 1.332 . S
N617 C622 1.332 . S
C618 C619 1.386 . S
C618 C621 1.388 . S
C619 C618 1.386 . S
C619 C620 1.382 . S
C619 H645 0.950 . S
C620 N617 1.332 . S
C620 C619 1.382 . S
C620 H631 0.952 . S
C621 C618 1.388 . S
C621 C622 1.382 . S
C621 H646 0.950 . S
C622 N617 1.332 . S
C622 C621 1.382 . S
C622 H632 0.948 . S
N623 Co601 2.267 1_556 S
N623 C627 1.332 . S
N623 C628 1.332 . S
C624 C625 1.388 . S
C624 C628 1.382 . S
C624 H647 0.950 . S
C625 C624 1.388 . S
C625 C626 1.386 . S
C626 C625 1.386 . S
C626 C627 1.382 . S
C626 H648 0.950 . S
C627 N623 1.332 . S
C627 C626 1.382 . S
C627 H629 0.952 . S
C628 N623 1.332 . S
C628 C624 1.382 . S
C628 H630 0.948 . S
H629 C627 0.952 . S
H630 C628 0.948 . S
H631 C620 0.952 . S
H632 C622 0.948 . S
C633 C599 1.395 1_556 S
C633 C603 1.391 . S
C634 C596 1.389 . S
C634 C616 1.392 . S
C635 C606 1.392 . S
C635 C608 1.389 . S
C636 C611 1.395 1_554 S
C636 C613 1.391 . S
H637 C597 0.951 . S
H638 C598 0.950 . S
H639 C604 0.949 . S
H640 C605 0.950 . S
H641 C609 0.951 . S
H642 C610 0.950 . S
H643 C614 0.949 . S
H644 C615 0.950 . S
H645 C619 0.950 . S
H646 C621 0.950 . S
H647 C624 0.950 . S
H648 C626 0.950 . S
C649 C650 1.443 . S
C649 N653 1.376 . S
C649 C687 1.389 . S
C650 C649 1.443 . S
C650 C651 1.340 . S
C650 H690 0.951 . S
C651 C650 1.340 . S
C651 C652 1.439 . S
C651 H691 0.950 . S
C652 C651 1.439 . S
C652 N653 1.374 . S
C652 C686 1.395 . S
N653 C649 1.376 . S
N653 C652 1.374 . S
N653 Co654 2.008 . S
Co654 N653 2.008 . S
Co654 N655 1.995 1_554 S
Co654 N660 2.013 . S
Co654 N665 1.995 . S
Co654 N670 2.282 . S
Co654 N676 2.282 1_554 S
N655 Co654 1.995 1_556 S
N655 C656 1.376 . S
N655 C659 1.383 . S
C656 N655 1.376 . S
C656 C657 1.446 . S
C656 C686 1.391 1_556 S
C657 C656 1.446 . S
C657 C658 1.339 . S
C657 H692 0.949 . S
C658 C657 1.339 . S
C658 C659 1.439 . S
C658 H693 0.950 . S
C659 N655 1.383 . S
C659 C658 1.439 . S
C659 C688 1.392 . S
N660 Co654 2.013 . S
N660 C661 1.370 1_554 S
N660 C664 1.376 . S
C661 N660 1.370 1_556 S
C661 C662 1.443 . S
C661 C688 1.389 . S
C662 C661 1.443 . S
C662 C663 1.340 . S
C662 H694 0.951 . S
C663 C662 1.340 . S
C663 C664 1.439 1_556 S
C663 H695 0.950 . S
C664 N660 1.376 . S
C664 C663 1.439 1_554 S
C664 C689 1.395 . S
N665 Co654 1.995 . S
N665 C666 1.376 . S
N665 C669 1.383 . S
C666 N665 1.376 . S
C666 C667 1.446 . S
C666 C689 1.391 . S
C667 C666 1.446 . S
C667 C668 1.339 . S
C667 H696 0.949 . S
C668 C667 1.339 . S
C668 C669 1.439 . S
C668 H697 0.950 . S
C669 N665 1.383 . S
C669 C668 1.439 . S
C669 C687 1.392 . S
N670 Co654 2.282 . S
N670 C673 1.332 . S
N670 C675 1.332 . S
C671 C672 1.386 . S
C671 C674 1.388 . S
C672 C671 1.386 . S
C672 C673 1.382 . S
C672 H698 0.950 . S
C673 N670 1.332 . S
C673 C672 1.382 . S
C673 H684 0.952 . S
C674 C671 1.388 . S
C674 C675 1.382 . S
C674 H699 0.950 . S
C675 N670 1.332 . S
C675 C674 1.382 . S
C675 H685 0.948 . S
N676 Co654 2.282 1_556 S
N676 C680 1.332 . S
N676 C681 1.332 . S
C677 C678 1.388 . S
C677 C681 1.382 . S
C677 H700 0.950 . S
C678 C677 1.388 . S
C678 C679 1.386 . S
C679 C678 1.386 . S
C679 C680 1.382 . S
C679 H701 0.950 . S
C680 N676 1.332 . S
C680 C679 1.382 . S
C680 H682 0.952 . S
C681 N676 1.332 . S
C681 C677 1.382 . S
C681 H683 0.948 . S
H682 C680 0.952 . S
H683 C681 0.948 . S
H684 C673 0.952 . S
H685 C675 0.948 . S
C686 C652 1.395 . S
C686 C656 1.391 1_554 S
C687 C649 1.389 . S
C687 C669 1.392 . S
C688 C659 1.392 . S
C688 C661 1.389 . S
C689 C664 1.395 . S
C689 C666 1.391 . S
H690 C650 0.951 . S
H691 C651 0.950 . S
H692 C657 0.949 . S
H693 C658 0.950 . S
H694 C662 0.951 . S
H695 C663 0.950 . S
H696 C667 0.949 . S
H697 C668 0.950 . S
H698 C672 0.950 . S
H699 C674 0.950 . S
H700 C677 0.950 . S
H701 C679 0.950 . S
C702 C703 1.443 . S
C702 N706 1.376 1_556 S
C702 C740 1.389 . S
C703 C702 1.443 . S
C703 C704 1.340 1_556 S
C703 H743 0.951 . S
C704 C703 1.340 1_554 S
C704 C705 1.439 . S
C704 H744 0.950 . S
C705 C704 1.439 . S
C705 N706 1.374 . S
C705 C739 1.395 . S
N706 C702 1.376 1_554 S
N706 C705 1.374 . S
N706 Co707 2.008 . S
Co707 N706 2.008 . S
Co707 N708 1.995 . S
Co707 N713 2.008 . S
Co707 N718 1.995 . S
Co707 N723 2.282 1_554 S
Co707 N729 2.282 . S
N708 Co707 1.995 . S
N708 C709 1.376 . S
N708 C712 1.383 . S
C709 N708 1.376 . S
C709 C710 1.446 . S
C709 C739 1.391 . S
C710 C709 1.446 . S
C710 C711 1.339 . S
C710 H745 0.949 . S
C711 C710 1.339 . S
C711 C712 1.439 . S
C711 H746 0.950 . S
C712 N708 1.383 . S
C712 C711 1.439 . S
C712 C741 1.392 . S
N713 Co707 2.008 . S
N713 C714 1.376 . S
N713 C717 1.374 . S
C714 N713 1.376 . S
C714 C715 1.443 . S
C714 C741 1.389 . S
C715 C714 1.443 . S
C715 C716 1.340 . S
C715 H747 0.951 . S
C716 C715 1.340 . S
C716 C717 1.439 . S
C716 H748 0.950 . S
C717 N713 1.374 . S
C717 C716 1.439 . S
C717 C742 1.395 . S
N718 Co707 1.995 . S
N718 C719 1.376 . S
N718 C722 1.383 1_554 S
C719 N718 1.376 . S
C719 C720 1.440 1_554 S
C719 C742 1.397 . S
C720 C719 1.440 1_556 S
C720 C721 1.339 . S
C720 H749 0.949 . S
C721 C720 1.339 . S
C721 C722 1.439 . S
C721 H750 0.950 . S
C722 N718 1.383 1_556 S
C722 C721 1.439 . S
C722 C740 1.392 . S
N723 Co707 2.282 1_556 S
N723 C726 1.332 . S
N723 C728 1.332 . S
C724 C725 1.386 . S
C724 C727 1.388 . S
C725 C724 1.386 . S
C725 C726 1.382 . S
C725 H751 0.950 . S
C726 N723 1.332 . S
C726 C725 1.382 . S
C726 H737 0.952 . S
C727 C724 1.388 . S
C727 C728 1.382 . S
C727 H752 0.950 . S
C728 N723 1.332 . S
C728 C727 1.382 . S
C728 H738 0.954 . S
N729 Co707 2.282 . S
N729 C733 1.332 . S
N729 C734 1.332 . S
C730 C731 1.388 . S
C730 C734 1.382 . S
C730 H753 0.950 . S
C731 C730 1.388 . S
C731 C732 1.386 . S
C732 C731 1.386 . S
C732 C733 1.382 . S
C732 H754 0.950 . S
C733 N729 1.332 . S
C733 C732 1.382 . S
C733 H735 0.952 . S
C734 N729 1.332 . S
C734 C730 1.382 . S
C734 H736 0.948 . S
H735 C733 0.952 . S
H736 C734 0.948 . S
H737 C726 0.952 . S
H738 C728 0.954 . S
C739 C705 1.395 . S
C739 C709 1.391 . S
C740 C702 1.389 . S
C740 C722 1.392 . S
C741 C712 1.392 . S
C741 C714 1.389 . S
C742 C717 1.395 . S
C742 C719 1.397 . S
H743 C703 0.951 . S
H744 C704 0.950 . S
H745 C710 0.949 . S
H746 C711 0.950 . S
H747 C715 0.951 . S
H748 C716 0.950 . S
H749 C720 0.949 . S
H750 C721 0.950 . S
H751 C725 0.950 . S
H752 C727 0.950 . S
H753 C730 0.950 . S
H754 C732 0.950 . S
C755 C756 1.443 . S
C755 N759 1.376 . S
C755 C793 1.389 . S
C756 C755 1.443 . S
C756 C757 1.340 . S
C756 H796 0.951 . S
C757 C756 1.340 . S
C757 C758 1.439 . S
C757 H797 0.950 . S
C758 C757 1.439 . S
C758 N759 1.374 . S
C758 C792 1.368 1_554 S
N759 C755 1.376 . S
N759 C758 1.374 . S
N759 Co760 2.008 . S
Co760 N759 2.008 . S
Co760 N761 1.995 1_554 S
Co760 N766 2.008 1_554 S
Co760 N771 1.995 . S
Co760 N776 2.282 . S
Co760 N782 2.282 1_554 S
N761 Co760 1.995 1_556 S
N761 C762 1.376 . S
N761 C765 1.383 . S
C762 N761 1.376 . S
C762 C763 1.446 . S
C762 C792 1.416 . S
C763 C762 1.446 . S
C763 C764 1.339 . S
C763 H798 0.949 . S
C764 C763 1.339 . S
C764 C765 1.439 . S
C764 H799 0.950 . S
C765 N761 1.383 . S
C765 C764 1.439 . S
C765 C794 1.392 . S
N766 Co760 2.008 1_556 S
N766 C767 1.376 . S
N766 C770 1.365 1_556 S
C767 N766 1.376 . S
C767 C768 1.443 . S
C767 C794 1.389 . S
C768 C767 1.443 . S
C768 C769 1.340 . S
C768 H800 0.951 . S
C769 C768 1.340 . S
C769 C770 1.419 1_556 S
C769 H801 0.950 . S
C770 N766 1.365 1_554 S
C770 C769 1.419 1_554 S
C770 C795 1.424 . S
N771 Co760 1.995 . S
N771 C772 1.376 . S
N771 C775 1.383 . S
C772 N771 1.376 . S
C772 C773 1.446 . S
C772 C795 1.391 . S
C773 C772 1.446 . S
C773 C774 1.339 . S
C773 H802 0.949 . S
C774 C773 1.339 . S
C774 C775 1.439 . S
C774 H803 0.950 . S
C775 N771 1.383 . S
C775 C774 1.439 . S
C775 C793 1.392 . S
N776 Co760 2.282 . S
N776 C779 1.332 . S
N776 C781 1.332 . S
C777 C778 1.386 . S
C777 C780 1.388 . S
C778 C777 1.386 . S
C778 C779 1.382 . S
C778 H804 0.950 . S
C779 N776 1.332 . S
C779 C778 1.382 . S
C779 H790 0.952 . S
C780 C777 1.388 . S
C780 C781 1.382 . S
C780 H805 0.950 . S
C781 N776 1.332 . S
C781 C780 1.382 . S
C781 H791 0.948 . S
N782 Co760 2.282 1_556 S
N782 C786 1.332 . S
N782 C787 1.332 . S
C783 C784 1.388 . S
C783 C787 1.382 . S
C783 H806 0.950 . S
C784 C783 1.388 . S
C784 C785 1.386 . S
C785 C784 1.386 . S
C785 C786 1.382 . S
C785 H807 0.950 . S
C786 N782 1.332 . S
C786 C785 1.382 . S
C786 H788 0.952 . S
C787 N782 1.332 . S
C787 C783 1.382 . S
C787 H789 0.948 . S
H788 C786 0.952 . S
H789 C787 0.948 . S
H790 C779 0.952 . S
H791 C781 0.948 . S
C792 C758 1.368 1_556 S
C792 C762 1.416 . S
C793 C755 1.389 . S
C793 C775 1.392 . S
C794 C765 1.392 . S
C794 C767 1.389 . S
C795 C770 1.424 . S
C795 C772 1.391 . S
H796 C756 0.951 . S
H797 C757 0.950 . S
H798 C763 0.949 . S
H799 C764 0.950 . S
H800 C768 0.951 . S
H801 C769 0.950 . S
H802 C773 0.949 . S
H803 C774 0.950 . S
H804 C778 0.950 . S
H805 C780 0.950 . S
H806 C783 0.950 . S
H807 C785 0.950 . S
C808 C809 1.349 . S
C808 C810 1.327 . S
C808 H833 0.950 . S
C809 C808 1.349 . S
C809 C825 1.349 . S
C810 C808 1.327 . S
C810 C829 1.429 . S
C810 H834 0.950 . S
C811 C828 1.574 . S
C811 C830 1.368 . S
C811 H835 0.949 . S
H812 C816 0.949 . S
C813 C814 1.349 . S
C813 C815 1.327 . S
C813 H836 0.950 . S
C814 C813 1.349 . S
C814 C826 1.349 . S
C815 C813 1.327 . S
C815 C831 1.429 . S
C815 H837 0.950 . S
C816 H812 0.949 . S
C816 C824 1.574 . S
C816 C832 1.368 . S
H817 C825 0.950 . S
H818 C823 0.950 . S
H819 C824 0.949 . S
H820 C826 0.950 . S
H821 C827 0.950 . S
H822 C828 0.949 . S
C823 H818 0.950 . S
C823 C825 1.327 . S
C823 C829 1.429 . S
C824 C816 1.574 . S
C824 H819 0.949 . S
C824 C830 1.368 . S
C825 C809 1.349 . S
C825 H817 0.950 . S
C825 C823 1.327 . S
C826 C814 1.349 . S
C826 H820 0.950 . S
C826 C827 1.327 . S
C827 H821 0.950 . S
C827 C826 1.327 . S
C827 C831 1.429 . S
C828 C811 1.574 . S
C828 H822 0.949 . S
C828 C832 1.368 . S
C829 C810 1.429 . S
C829 C823 1.429 . S
C829 C830 1.523 . S
C830 C811 1.368 . S
C830 C824 1.368 . S
C830 C829 1.523 . S
C831 C815 1.429 . S
C831 C827 1.429 . S
C831 C832 1.523 . S
C832 C816 1.368 . S
C832 C828 1.368 . S
C832 C831 1.523 . S
H833 C808 0.950 . S
H834 C810 0.950 . S
H835 C811 0.949 . S
H836 C813 0.950 . S
H837 C815 0.950 . S
C838 C839 1.349 . S
C838 C840 1.327 . S
C838 H863 0.950 . S
C839 C838 1.349 . S
C839 C855 1.349 . S
C840 C838 1.327 . S
C840 C859 1.429 . S
C840 H864 0.950 . S
C841 C858 1.574 . S
C841 C860 1.368 . S
C841 H865 0.949 . S
H842 C846 0.949 . S
C843 C844 1.349 . S
C843 C845 1.327 . S
C843 H866 0.950 . S
C844 C843 1.349 . S
C844 C856 1.349 . S
C845 C843 1.327 . S
C845 C861 1.429 . S
C845 H867 0.950 . S
C846 H842 0.949 . S
C846 C854 1.574 . S
C846 C862 1.368 . S
H847 C855 0.950 . S
H848 C853 0.950 . S
H849 C854 0.949 . S
H850 C856 0.950 . S
H851 C857 0.950 . S
H852 C858 0.949 . S
C853 H848 0.950 . S
C853 C855 1.327 . S
C853 C859 1.429 . S
C854 C846 1.574 . S
C854 H849 0.949 . S
C854 C860 1.368 . S
C855 C839 1.349 . S
C855 H847 0.950 . S
C855 C853 1.327 . S
C856 C844 1.349 . S
C856 H850 0.950 . S
C856 C857 1.327 . S
C857 H851 0.950 . S
C857 C856 1.327 . S
C857 C861 1.429 . S
C858 C841 1.574 . S
C858 H852 0.949 . S
C858 C862 1.368 . S
C859 C840 1.429 . S
C859 C853 1.429 . S
C859 C860 1.523 . S
C860 C841 1.368 . S
C860 C854 1.368 . S
C860 C859 1.523 . S
C861 C845 1.429 . S
C861 C857 1.429 . S
C861 C862 1.523 . S
C862 C846 1.368 . S
C862 C858 1.368 . S
C862 C861 1.523 . S
H863 C838 0.950 . S
H864 C840 0.950 . S
H865 C841 0.949 . S
H866 C843 0.950 . S
H867 C845 0.950 . S
C868 C869 1.349 . S
C868 C870 1.327 . S
C868 H893 0.950 . S
C869 C868 1.349 . S
C869 C885 1.349 . S
C870 C868 1.327 . S
C870 C889 1.429 . S
C870 H894 0.950 . S
C871 C888 1.574 . S
C871 C890 1.368 . S
C871 H895 0.949 . S
H872 C876 0.949 . S
C873 C874 1.349 . S
C873 C875 1.327 . S
C873 H896 0.950 . S
C874 C873 1.349 . S
C874 C886 1.349 . S
C875 C873 1.327 . S
C875 C891 1.429 . S
C875 H897 0.950 . S
C876 H872 0.949 . S
C876 C884 1.574 . S
C876 C892 1.368 . S
H877 C885 0.950 . S
H878 C883 0.950 . S
H879 C884 0.949 . S
H880 C886 0.950 . S
H881 C887 0.950 . S
H882 C888 0.949 . S
C883 H878 0.950 . S
C883 C885 1.327 . S
C883 C889 1.429 . S
C884 C876 1.574 . S
C884 H879 0.949 . S
C884 C890 1.368 . S
C885 C869 1.349 . S
C885 H877 0.950 . S
C885 C883 1.327 . S
C886 C874 1.349 . S
C886 H880 0.950 . S
C886 C887 1.327 . S
C887 H881 0.950 . S
C887 C886 1.327 . S
C887 C891 1.429 . S
C888 C871 1.574 . S
C888 H882 0.949 . S
C888 C892 1.368 . S
C889 C870 1.429 . S
C889 C883 1.429 . S
C889 C890 1.523 . S
C890 C871 1.368 . S
C890 C884 1.368 . S
C890 C889 1.523 . S
C891 C875 1.429 . S
C891 C887 1.429 . S
C891 C892 1.523 . S
C892 C876 1.368 . S
C892 C888 1.368 . S
C892 C891 1.523 . S
H893 C868 0.950 . S
H894 C870 0.950 . S
H895 C871 0.949 . S
H896 C873 0.950 . S
H897 C875 0.950 . S
C898 C899 1.349 . S
C898 C900 1.327 . S
C898 H923 0.950 . S
C899 C898 1.349 . S
C899 C915 1.349 . S
C900 C898 1.327 . S
C900 C919 1.429 . S
C900 H924 0.950 . S
C901 C918 1.574 . S
C901 C920 1.368 . S
C901 H925 0.949 . S
H902 C906 0.949 . S
C903 C904 1.349 . S
C903 C905 1.327 . S
C903 H926 0.950 . S
C904 C903 1.349 . S
C904 C916 1.349 . S
C905 C903 1.327 . S
C905 C921 1.429 . S
C905 H927 0.950 . S
C906 H902 0.949 . S
C906 C914 1.574 . S
C906 C922 1.368 . S
H907 C915 0.950 . S
H908 C913 0.950 . S
H909 C914 0.949 . S
H910 C916 0.950 . S
H911 C917 0.950 . S
H912 C918 0.949 . S
C913 H908 0.950 . S
C913 C915 1.327 . S
C913 C919 1.429 . S
C914 C906 1.574 . S
C914 H909 0.949 . S
C914 C920 1.368 . S
C915 C899 1.349 . S
C915 H907 0.950 . S
C915 C913 1.327 . S
C916 C904 1.349 . S
C916 H910 0.950 . S
C916 C917 1.327 . S
C917 H911 0.950 . S
C917 C916 1.327 . S
C917 C921 1.429 . S
C918 C901 1.574 . S
C918 H912 0.949 . S
C918 C922 1.368 . S
C919 C900 1.429 . S
C919 C913 1.429 . S
C919 C920 1.523 . S
C920 C901 1.368 . S
C920 C914 1.368 . S
C920 C919 1.523 . S
C921 C905 1.429 . S
C921 C917 1.429 . S
C921 C922 1.523 . S
C922 C906 1.368 . S
C922 C918 1.368 . S
C922 C921 1.523 . S
H923 C898 0.950 . S
H924 C900 0.950 . S
H925 C901 0.949 . S
H926 C903 0.950 . S
H927 C905 0.950 . S
C928 C929 1.349 . S
C928 C930 1.327 . S
C928 H953 0.950 . S
C929 C928 1.349 . S
C929 C945 1.349 . S
C930 C928 1.327 . S
C930 C949 1.429 . S
C930 H954 0.950 . S
C931 C948 1.574 . S
C931 C950 1.368 . S
C931 H955 0.949 . S
H932 C936 0.949 . S
C933 C934 1.349 . S
C933 C935 1.327 . S
C933 H956 0.950 . S
C934 C933 1.349 . S
C934 C946 1.349 . S
C935 C933 1.327 . S
C935 C951 1.429 . S
C935 H957 0.950 . S
C936 H932 0.949 . S
C936 C944 1.574 . S
C936 C952 1.368 . S
H937 C945 0.950 . S
H938 C943 0.950 . S
H939 C944 0.949 . S
H940 C946 0.950 . S
H941 C947 0.950 . S
H942 C948 0.949 . S
C943 H938 0.950 . S
C943 C945 1.327 . S
C943 C949 1.429 . S
C944 C936 1.574 . S
C944 H939 0.949 . S
C944 C950 1.368 . S
C945 C929 1.349 . S
C945 H937 0.950 . S
C945 C943 1.327 . S
C946 C934 1.349 . S
C946 H940 0.950 . S
C946 C947 1.327 . S
C947 H941 0.950 . S
C947 C946 1.327 . S
C947 C951 1.429 . S
C948 C931 1.574 . S
C948 H942 0.949 . S
C948 C952 1.368 . S
C949 C930 1.429 . S
C949 C943 1.429 . S
C949 C950 1.523 . S
C950 C931 1.368 . S
C950 C944 1.368 . S
C950 C949 1.523 . S
C951 C935 1.429 . S
C951 C947 1.429 . S
C951 C952 1.523 . S
C952 C936 1.368 . S
C952 C948 1.368 . S
C952 C951 1.523 . S
H953 C928 0.950 . S
H954 C930 0.950 . S
H955 C931 0.949 . S
H956 C933 0.950 . S
H957 C935 0.950 . S
C958 C959 1.349 . S
C958 C960 1.327 . S
C958 H983 0.950 . S
C959 C958 1.349 . S
C959 C975 1.349 . S
C960 C958 1.327 . S
C960 C979 1.429 . S
C960 H984 0.950 . S
C961 C978 1.574 . S
C961 C980 1.368 . S
C961 H985 0.949 . S
H962 C966 0.949 . S
C963 C964 1.349 . S
C963 C965 1.327 . S
C963 H986 0.950 . S
C964 C963 1.349 . S
C964 C976 1.349 . S
C965 C963 1.327 . S
C965 C981 1.429 . S
C965 H987 0.950 . S
C966 H962 0.949 . S
C966 C974 1.574 . S
C966 C982 1.368 . S
H967 C975 0.950 . S
H968 C973 0.950 . S
H969 C974 0.949 . S
H970 C976 0.950 . S
H971 C977 0.950 . S
H972 C978 0.949 . S
C973 H968 0.950 . S
C973 C975 1.327 . S
C973 C979 1.429 . S
C974 C966 1.574 . S
C974 H969 0.949 . S
C974 C980 1.368 . S
C975 C959 1.349 . S
C975 H967 0.950 . S
C975 C973 1.327 . S
C976 C964 1.349 . S
C976 H970 0.950 . S
C976 C977 1.327 . S
C977 H971 0.950 . S
C977 C976 1.327 . S
C977 C981 1.429 . S
C978 C961 1.574 . S
C978 H972 0.949 . S
C978 C982 1.368 . S
C979 C960 1.429 . S
C979 C973 1.429 . S
C979 C980 1.523 . S
C980 C961 1.368 . S
C980 C974 1.368 . S
C980 C979 1.523 . S
C981 C965 1.429 . S
C981 C977 1.429 . S
C981 C982 1.523 . S
C982 C966 1.368 . S
C982 C978 1.368 . S
C982 C981 1.523 . S
H983 C958 0.950 . S
H984 C960 0.950 . S
H985 C961 0.949 . S
H986 C963 0.950 . S
H987 C965 0.950 . S
C988 C989 1.349 . S
C988 C990 1.327 . S
C988 H1013 0.950 . S
C989 C988 1.349 . S
C989 C1005 1.349 . S
C990 C988 1.327 . S
C990 C1009 1.429 . S
C990 H1014 0.950 . S
C991 C1008 1.574 . S
C991 C1010 1.368 . S
C991 H1015 0.949 . S
H992 C996 0.949 . S
C993 C994 1.349 . S
C993 C995 1.327 . S
C993 H1016 0.950 . S
C994 C993 1.349 . S
C994 C1006 1.349 . S
C995 C993 1.327 . S
C995 C1011 1.429 . S
C995 H1017 0.950 . S
C996 H992 0.949 . S
C996 C1004 1.574 . S
C996 C1012 1.368 . S
H997 C1005 0.950 . S
H998 C1003 0.950 . S
H999 C1004 0.949 . S
H1000 C1006 0.950 . S
H1001 C1007 0.950 . S
H1002 C1008 0.949 . S
C1003 H998 0.950 . S
C1003 C1005 1.327 . S
C1003 C1009 1.429 . S
C1004 C996 1.574 . S
C1004 H999 0.949 . S
C1004 C1010 1.368 . S
C1005 C989 1.349 . S
C1005 H997 0.950 . S
C1005 C1003 1.327 . S
C1006 C994 1.349 . S
C1006 H1000 0.950 . S
C1006 C1007 1.327 . S
C1007 H1001 0.950 . S
C1007 C1006 1.327 . S
C1007 C1011 1.429 . S
C1008 C991 1.574 . S
C1008 H1002 0.949 . S
C1008 C1012 1.368 . S
C1009 C990 1.429 . S
C1009 C1003 1.429 . S
C1009 C1010 1.523 . S
C1010 C991 1.368 . S
C1010 C1004 1.368 . S
C1010 C1009 1.523 . S
C1011 C995 1.429 . S
C1011 C1007 1.429 . S
C1011 C1012 1.523 . S
C1012 C996 1.368 . S
C1012 C1008 1.368 . S
C1012 C1011 1.523 . S
H1013 C988 0.950 . S
H1014 C990 0.950 . S
H1015 C991 0.949 . S
H1016 C993 0.950 . S
H1017 C995 0.950 . S
C1018 C1019 1.349 . S
C1018 C1020 1.327 . S
C1018 H1043 0.950 . S
C1019 C1018 1.349 . S
C1019 C1035 1.349 . S
C1020 C1018 1.327 . S
C1020 C1039 1.429 . S
C1020 H1044 0.950 . S
C1021 C1038 1.574 . S
C1021 C1040 1.368 . S
C1021 H1045 0.949 . S
H1022 C1026 0.949 . S
C1023 C1024 1.349 . S
C1023 C1025 1.327 . S
C1023 H1046 0.950 . S
C1024 C1023 1.349 . S
C1024 C1036 1.349 . S
C1025 C1023 1.327 . S
C1025 C1041 1.429 . S
C1025 H1047 0.950 . S
C1026 H1022 0.949 . S
C1026 C1034 1.574 . S
C1026 C1042 1.368 . S
H1027 C1035 0.950 . S
H1028 C1033 0.950 . S
H1029 C1034 0.949 . S
H1030 C1036 0.950 . S
H1031 C1037 0.950 . S
H1032 C1038 0.949 . S
C1033 H1028 0.950 . S
C1033 C1035 1.327 . S
C1033 C1039 1.429 . S
C1034 C1026 1.574 . S
C1034 H1029 0.949 . S
C1034 C1040 1.368 . S
C1035 C1019 1.349 . S
C1035 H1027 0.950 . S
C1035 C1033 1.327 . S
C1036 C1024 1.349 . S
C1036 H1030 0.950 . S
C1036 C1037 1.327 . S
C1037 H1031 0.950 . S
C1037 C1036 1.327 . S
C1037 C1041 1.429 . S
C1038 C1021 1.574 . S
C1038 H1032 0.949 . S
C1038 C1042 1.368 . S
C1039 C1020 1.429 . S
C1039 C1033 1.429 . S
C1039 C1040 1.523 . S
C1040 C1021 1.368 . S
C1040 C1034 1.368 . S
C1040 C1039 1.523 . S
C1041 C1025 1.429 . S
C1041 C1037 1.429 . S
C1041 C1042 1.523 . S
C1042 C1026 1.368 . S
C1042 C1038 1.368 . S
C1042 C1041 1.523 . S
H1043 C1018 0.950 . S
H1044 C1020 0.950 . S
H1045 C1021 0.949 . S
H1046 C1023 0.950 . S
H1047 C1025 0.950 . S
C1048 C1049 1.349 . S
C1048 C1050 1.327 . S
C1048 H1073 0.950 . S
C1049 C1048 1.349 . S
C1049 C1065 1.349 . S
C1050 C1048 1.327 . S
C1050 C1069 1.429 . S
C1050 H1074 0.950 . S
C1051 C1068 1.574 . S
C1051 C1070 1.368 . S
C1051 H1075 0.949 . S
H1052 C1056 0.949 . S
C1053 C1054 1.349 . S
C1053 C1055 1.327 . S
C1053 H1076 0.950 . S
C1054 C1053 1.349 . S
C1054 C1066 1.349 . S
C1055 C1053 1.327 . S
C1055 C1071 1.429 . S
C1055 H1077 0.950 . S
C1056 H1052 0.949 . S
C1056 C1064 1.574 . S
C1056 C1072 1.368 . S
H1057 C1065 0.950 . S
H1058 C1063 0.950 . S
H1059 C1064 0.949 . S
H1060 C1066 0.950 . S
H1061 C1067 0.950 . S
H1062 C1068 0.949 . S
C1063 H1058 0.950 . S
C1063 C1065 1.327 . S
C1063 C1069 1.429 . S
C1064 C1056 1.574 . S
C1064 H1059 0.949 . S
C1064 C1070 1.368 . S
C1065 C1049 1.349 . S
C1065 H1057 0.950 . S
C1065 C1063 1.327 . S
C1066 C1054 1.349 . S
C1066 H1060 0.950 . S
C1066 C1067 1.327 . S
C1067 H1061 0.950 . S
C1067 C1066 1.327 . S
C1067 C1071 1.429 . S
C1068 C1051 1.574 . S
C1068 H1062 0.949 . S
C1068 C1072 1.368 . S
C1069 C1050 1.429 . S
C1069 C1063 1.429 . S
C1069 C1070 1.523 . S
C1070 C1051 1.368 . S
C1070 C1064 1.368 . S
C1070 C1069 1.523 . S
C1071 C1055 1.429 . S
C1071 C1067 1.429 . S
C1071 C1072 1.523 . S
C1072 C1056 1.368 . S
C1072 C1068 1.368 . S
C1072 C1071 1.523 . S
H1073 C1048 0.950 . S
H1074 C1050 0.950 . S
H1075 C1051 0.949 . S
H1076 C1053 0.950 . S
H1077 C1055 0.950 . S
C1078 C1079 1.349 . S
C1078 C1080 1.327 . S
C1078 H1103 0.950 . S
C1079 C1078 1.349 . S
C1079 C1095 1.349 . S
C1080 C1078 1.327 . S
C1080 C1099 1.429 . S
C1080 H1104 0.950 . S
C1081 C1098 1.574 . S
C1081 C1100 1.368 . S
C1081 H1105 0.949 . S
H1082 C1086 0.949 . S
C1083 C1084 1.349 . S
C1083 C1085 1.327 . S
C1083 H1106 0.950 . S
C1084 C1083 1.349 . S
C1084 C1096 1.349 . S
C1085 C1083 1.327 . S
C1085 C1101 1.429 . S
C1085 H1107 0.950 . S
C1086 H1082 0.949 . S
C1086 C1094 1.574 . S
C1086 C1102 1.368 . S
H1087 C1095 0.950 . S
H1088 C1093 0.950 . S
H1089 C1094 0.949 . S
H1090 C1096 0.950 . S
H1091 C1097 0.950 . S
H1092 C1098 0.949 . S
C1093 H1088 0.950 . S
C1093 C1095 1.327 . S
C1093 C1099 1.429 . S
C1094 C1086 1.574 . S
C1094 H1089 0.949 . S
C1094 C1100 1.368 . S
C1095 C1079 1.349 . S
C1095 H1087 0.950 . S
C1095 C1093 1.327 . S
C1096 C1084 1.349 . S
C1096 H1090 0.950 . S
C1096 C1097 1.327 . S
C1097 H1091 0.950 . S
C1097 C1096 1.327 . S
C1097 C1101 1.429 . S
C1098 C1081 1.574 . S
C1098 H1092 0.949 . S
C1098 C1102 1.368 . S
C1099 C1080 1.429 . S
C1099 C1093 1.429 . S
C1099 C1100 1.523 . S
C1100 C1081 1.368 . S
C1100 C1094 1.368 . S
C1100 C1099 1.523 . S
C1101 C1085 1.429 . S
C1101 C1097 1.429 . S
C1101 C1102 1.523 . S
C1102 C1086 1.368 . S
C1102 C1098 1.368 . S
C1102 C1101 1.523 . S
H1103 C1078 0.950 . S
H1104 C1080 0.950 . S
H1105 C1081 0.949 . S
H1106 C1083 0.950 . S
H1107 C1085 0.950 . S
C1108 C1109 1.349 . S
C1108 C1110 1.327 . S
C1108 H1133 0.950 . S
C1109 C1108 1.349 . S
C1109 C1125 1.349 . S
C1110 C1108 1.327 . S
C1110 C1129 1.429 . S
C1110 H1134 0.950 . S
C1111 C1128 1.574 . S
C1111 C1130 1.368 . S
C1111 H1135 0.949 . S
H1112 C1116 0.949 . S
C1113 C1114 1.349 . S
C1113 C1115 1.327 . S
C1113 H1136 0.950 . S
C1114 C1113 1.349 . S
C1114 C1126 1.349 . S
C1115 C1113 1.327 . S
C1115 C1131 1.429 . S
C1115 H1137 0.950 . S
C1116 H1112 0.949 . S
C1116 C1124 1.574 . S
C1116 C1132 1.368 . S
H1117 C1125 0.950 . S
H1118 C1123 0.950 . S
H1119 C1124 0.949 . S
H1120 C1126 0.950 . S
H1121 C1127 0.950 . S
H1122 C1128 0.949 . S
C1123 H1118 0.950 . S
C1123 C1125 1.327 . S
C1123 C1129 1.429 . S
C1124 C1116 1.574 . S
C1124 H1119 0.949 . S
C1124 C1130 1.368 . S
C1125 C1109 1.349 . S
C1125 H1117 0.950 . S
C1125 C1123 1.327 . S
C1126 C1114 1.349 . S
C1126 H1120 0.950 . S
C1126 C1127 1.327 . S
C1127 H1121 0.950 . S
C1127 C1126 1.327 . S
C1127 C1131 1.429 . S
C1128 C1111 1.574 . S
C1128 H1122 0.949 . S
C1128 C1132 1.368 . S
C1129 C1110 1.429 . S
C1129 C1123 1.429 . S
C1129 C1130 1.523 . S
C1130 C1111 1.368 . S
C1130 C1124 1.368 . S
C1130 C1129 1.523 . S
C1131 C1115 1.429 . S
C1131 C1127 1.429 . S
C1131 C1132 1.523 . S
C1132 C1116 1.368 . S
C1132 C1128 1.368 . S
C1132 C1131 1.523 . S
H1133 C1108 0.950 . S
H1134 C1110 0.950 . S
H1135 C1111 0.949 . S
H1136 C1113 0.950 . S
H1137 C1115 0.950 . S
C1138 C1139 1.349 . S
C1138 C1140 1.327 . S
C1138 H1163 0.950 . S
C1139 C1138 1.349 . S
C1139 C1155 1.349 . S
C1140 C1138 1.327 . S
C1140 C1159 1.429 . S
C1140 H1164 0.950 . S
C1141 C1158 1.574 . S
C1141 C1160 1.368 . S
C1141 H1165 0.949 . S
H1142 C1146 0.949 . S
C1143 C1144 1.349 . S
C1143 C1145 1.327 . S
C1143 H1166 0.950 . S
C1144 C1143 1.349 . S
C1144 C1156 1.349 . S
C1145 C1143 1.327 . S
C1145 C1161 1.429 . S
C1145 H1167 0.950 . S
C1146 H1142 0.949 . S
C1146 C1154 1.574 . S
C1146 C1162 1.368 . S
H1147 C1155 0.950 . S
H1148 C1153 0.950 . S
H1149 C1154 0.949 . S
H1150 C1156 0.950 . S
H1151 C1157 0.950 . S
H1152 C1158 0.949 . S
C1153 H1148 0.950 . S
C1153 C1155 1.327 . S
C1153 C1159 1.429 . S
C1154 C1146 1.574 . S
C1154 H1149 0.949 . S
C1154 C1160 1.368 . S
C1155 C1139 1.349 . S
C1155 H1147 0.950 . S
C1155 C1153 1.327 . S
C1156 C1144 1.349 . S
C1156 H1150 0.950 . S
C1156 C1157 1.327 . S
C1157 H1151 0.950 . S
C1157 C1156 1.327 . S
C1157 C1161 1.429 . S
C1158 C1141 1.574 . S
C1158 H1152 0.949 . S
C1158 C1162 1.368 . S
C1159 C1140 1.429 . S
C1159 C1153 1.429 . S
C1159 C1160 1.523 . S
C1160 C1141 1.368 . S
C1160 C1154 1.368 . S
C1160 C1159 1.523 . S
C1161 C1145 1.429 . S
C1161 C1157 1.429 . S
C1161 C1162 1.523 . S
C1162 C1146 1.368 . S
C1162 C1158 1.368 . S
C1162 C1161 1.523 . S
H1163 C1138 0.950 . S
H1164 C1140 0.950 . S
H1165 C1141 0.949 . S
H1166 C1143 0.950 . S
H1167 C1145 0.950 . S
C1168 C1169 1.349 . S
C1168 C1170 1.327 . S
C1168 H1193 0.950 . S
C1169 C1168 1.349 . S
C1169 C1185 1.349 . S
C1170 C1168 1.327 . S
C1170 C1189 1.429 . S
C1170 H1194 0.950 . S
C1171 C1188 1.574 . S
C1171 C1190 1.368 . S
C1171 H1195 0.949 . S
H1172 C1176 0.949 . S
C1173 C1174 1.349 . S
C1173 C1175 1.327 . S
C1173 H1196 0.950 . S
C1174 C1173 1.349 . S
C1174 C1186 1.349 . S
C1175 C1173 1.327 . S
C1175 C1191 1.429 . S
C1175 H1197 0.950 . S
C1176 H1172 0.949 . S
C1176 C1184 1.574 . S
C1176 C1192 1.368 . S
H1177 C1185 0.950 . S
H1178 C1183 0.950 . S
H1179 C1184 0.949 . S
H1180 C1186 0.950 . S
H1181 C1187 0.950 . S
H1182 C1188 0.949 . S
C1183 H1178 0.950 . S
C1183 C1185 1.327 . S
C1183 C1189 1.429 . S
C1184 C1176 1.574 . S
C1184 H1179 0.949 . S
C1184 C1190 1.368 . S
C1185 C1169 1.349 . S
C1185 H1177 0.950 . S
C1185 C1183 1.327 . S
C1186 C1174 1.349 . S
C1186 H1180 0.950 . S
C1186 C1187 1.327 . S
C1187 H1181 0.950 . S
C1187 C1186 1.327 . S
C1187 C1191 1.429 . S
C1188 C1171 1.574 . S
C1188 H1182 0.949 . S
C1188 C1192 1.368 . S
C1189 C1170 1.429 . S
C1189 C1183 1.429 . S
C1189 C1190 1.523 . S
C1190 C1171 1.368 . S
C1190 C1184 1.368 . S
C1190 C1189 1.523 . S
C1191 C1175 1.429 . S
C1191 C1187 1.429 . S
C1191 C1192 1.523 . S
C1192 C1176 1.368 . S
C1192 C1188 1.368 . S
C1192 C1191 1.523 . S
H1193 C1168 0.950 . S
H1194 C1170 0.950 . S
H1195 C1171 0.949 . S
H1196 C1173 0.950 . S
H1197 C1175 0.950 . S
C1198 C1199 1.349 . S
C1198 C1200 1.327 . S
C1198 H1223 0.950 . S
C1199 C1198 1.349 . S
C1199 C1215 1.349 . S
C1200 C1198 1.327 . S
C1200 C1219 1.429 . S
C1200 H1224 0.950 . S
C1201 C1218 1.574 . S
C1201 C1220 1.368 . S
C1201 H1225 0.949 . S
H1202 C1206 0.949 . S
C1203 C1204 1.349 . S
C1203 C1205 1.327 . S
C1203 H1226 0.950 . S
C1204 C1203 1.349 . S
C1204 C1216 1.349 . S
C1205 C1203 1.327 . S
C1205 C1221 1.429 . S
C1205 H1227 0.950 . S
C1206 H1202 0.949 . S
C1206 C1214 1.574 . S
C1206 C1222 1.368 . S
H1207 C1215 0.950 . S
H1208 C1213 0.950 . S
H1209 C1214 0.949 . S
H1210 C1216 0.950 . S
H1211 C1217 0.950 . S
H1212 C1218 0.949 . S
C1213 H1208 0.950 . S
C1213 C1215 1.327 . S
C1213 C1219 1.429 . S
C1214 C1206 1.574 . S
C1214 H1209 0.949 . S
C1214 C1220 1.368 . S
C1215 C1199 1.349 . S
C1215 H1207 0.950 . S
C1215 C1213 1.327 . S
C1216 C1204 1.349 . S
C1216 H1210 0.950 . S
C1216 C1217 1.327 . S
C1217 H1211 0.950 . S
C1217 C1216 1.327 . S
C1217 C1221 1.429 . S
C1218 C1201 1.574 . S
C1218 H1212 0.949 . S
C1218 C1222 1.368 . S
C1219 C1200 1.429 . S
C1219 C1213 1.429 . S
C1219 C1220 1.523 . S
C1220 C1201 1.368 . S
C1220 C1214 1.368 . S
C1220 C1219 1.523 . S
C1221 C1205 1.429 . S
C1221 C1217 1.429 . S
C1221 C1222 1.523 . S
C1222 C1206 1.368 . S
C1222 C1218 1.368 . S
C1222 C1221 1.523 . S
H1223 C1198 0.950 . S
H1224 C1200 0.950 . S
H1225 C1201 0.949 . S
H1226 C1203 0.950 . S
H1227 C1205 0.950 . S
C1228 C1229 1.349 . S
C1228 C1230 1.327 . S
C1228 H1253 0.950 . S
C1229 C1228 1.349 . S
C1229 C1245 1.349 . S
C1230 C1228 1.327 . S
C1230 C1249 1.429 . S
C1230 H1254 0.950 . S
C1231 C1248 1.574 . S
C1231 C1250 1.368 . S
C1231 H1255 0.949 . S
H1232 C1236 0.949 . S
C1233 C1234 1.349 . S
C1233 C1235 1.327 . S
C1233 H1256 0.950 . S
C1234 C1233 1.349 . S
C1234 C1246 1.349 . S
C1235 C1233 1.327 . S
C1235 C1251 1.429 . S
C1235 H1257 0.950 . S
C1236 H1232 0.949 . S
C1236 C1244 1.574 . S
C1236 C1252 1.368 . S
H1237 C1245 0.950 . S
H1238 C1243 0.950 . S
H1239 C1244 0.949 . S
H1240 C1246 0.950 . S
H1241 C1247 0.950 . S
H1242 C1248 0.949 . S
C1243 H1238 0.950 . S
C1243 C1245 1.327 . S
C1243 C1249 1.429 . S
C1244 C1236 1.574 . S
C1244 H1239 0.949 . S
C1244 C1250 1.368 . S
C1245 C1229 1.349 . S
C1245 H1237 0.950 . S
C1245 C1243 1.327 . S
C1246 C1234 1.349 . S
C1246 H1240 0.950 . S
C1246 C1247 1.327 . S
C1247 H1241 0.950 . S
C1247 C1246 1.327 . S
C1247 C1251 1.429 . S
C1248 C1231 1.574 . S
C1248 H1242 0.949 . S
C1248 C1252 1.368 . S
C1249 C1230 1.429 . S
C1249 C1243 1.429 . S
C1249 C1250 1.523 . S
C1250 C1231 1.368 . S
C1250 C1244 1.368 . S
C1250 C1249 1.523 . S
C1251 C1235 1.429 . S
C1251 C1247 1.429 . S
C1251 C1252 1.523 . S
C1252 C1236 1.368 . S
C1252 C1248 1.368 . S
C1252 C1251 1.523 . S
H1253 C1228 0.950 . S
H1254 C1230 0.950 . S
H1255 C1231 0.949 . S
H1256 C1233 0.950 . S
H1257 C1235 0.950 . S
C1258 C1259 1.349 . S
C1258 C1260 1.327 . S
C1258 H1283 0.950 . S
C1259 C1258 1.349 . S
C1259 C1275 1.349 . S
C1260 C1258 1.327 . S
C1260 C1279 1.429 . S
C1260 H1284 0.950 . S
C1261 C1278 1.574 . S
C1261 C1280 1.368 . S
C1261 H1285 0.949 . S
H1262 C1266 0.949 . S
C1263 C1264 1.349 . S
C1263 C1265 1.327 . S
C1263 H1286 0.950 . S
C1264 C1263 1.349 . S
C1264 C1276 1.349 . S
C1265 C1263 1.327 . S
C1265 C1281 1.429 . S
C1265 H1287 0.950 . S
C1266 H1262 0.949 . S
C1266 C1274 1.574 . S
C1266 C1282 1.368 . S
H1267 C1275 0.950 . S
H1268 C1273 0.950 . S
H1269 C1274 0.949 . S
H1270 C1276 0.950 . S
H1271 C1277 0.950 . S
H1272 C1278 0.949 . S
C1273 H1268 0.950 . S
C1273 C1275 1.327 . S
C1273 C1279 1.429 . S
C1274 C1266 1.574 . S
C1274 H1269 0.949 . S
C1274 C1280 1.368 . S
C1275 C1259 1.349 . S
C1275 H1267 0.950 . S
C1275 C1273 1.327 . S
C1276 C1264 1.349 . S
C1276 H1270 0.950 . S
C1276 C1277 1.327 . S
C1277 H1271 0.950 . S
C1277 C1276 1.327 . S
C1277 C1281 1.429 . S
C1278 C1261 1.574 . S
C1278 H1272 0.949 . S
C1278 C1282 1.368 . S
C1279 C1260 1.429 . S
C1279 C1273 1.429 . S
C1279 C1280 1.523 . S
C1280 C1261 1.368 . S
C1280 C1274 1.368 . S
C1280 C1279 1.523 . S
C1281 C1265 1.429 . S
C1281 C1277 1.429 . S
C1281 C1282 1.523 . S
C1282 C1266 1.368 . S
C1282 C1278 1.368 . S
C1282 C1281 1.523 . S
H1283 C1258 0.950 . S
H1284 C1260 0.950 . S
H1285 C1261 0.949 . S
H1286 C1263 0.950 . S
H1287 C1265 0.950 . S
C1288 C1289 1.349 . S
C1288 C1290 1.327 . S
C1288 H1313 0.950 . S
C1289 C1288 1.349 . S
C1289 C1305 1.349 . S
C1290 C1288 1.327 . S
C1290 C1309 1.429 . S
C1290 H1314 0.950 . S
C1291 C1308 1.574 . S
C1291 C1310 1.368 . S
C1291 H1315 0.949 . S
H1292 C1296 0.949 . S
C1293 C1294 1.349 . S
C1293 C1295 1.327 . S
C1293 H1316 0.950 . S
C1294 C1293 1.349 . S
C1294 C1306 1.349 . S
C1295 C1293 1.327 . S
C1295 C1311 1.429 . S
C1295 H1317 0.950 . S
C1296 H1292 0.949 . S
C1296 C1304 1.574 . S
C1296 C1312 1.368 . S
H1297 C1305 0.950 . S
H1298 C1303 0.950 . S
H1299 C1304 0.949 . S
H1300 C1306 0.950 . S
H1301 C1307 0.950 . S
H1302 C1308 0.949 . S
C1303 H1298 0.950 . S
C1303 C1305 1.327 . S
C1303 C1309 1.429 . S
C1304 C1296 1.574 . S
C1304 H1299 0.949 . S
C1304 C1310 1.368 . S
C1305 C1289 1.349 . S
C1305 H1297 0.950 . S
C1305 C1303 1.327 . S
C1306 C1294 1.349 . S
C1306 H1300 0.950 . S
C1306 C1307 1.327 . S
C1307 H1301 0.950 . S
C1307 C1306 1.327 . S
C1307 C1311 1.429 . S
C1308 C1291 1.574 . S
C1308 H1302 0.949 . S
C1308 C1312 1.368 . S
C1309 C1290 1.429 . S
C1309 C1303 1.429 . S
C1309 C1310 1.523 . S
C1310 C1291 1.368 . S
C1310 C1304 1.368 . S
C1310 C1309 1.523 . S
C1311 C1295 1.429 . S
C1311 C1307 1.429 . S
C1311 C1312 1.523 . S
C1312 C1296 1.368 . S
C1312 C1308 1.368 . S
C1312 C1311 1.523 . S
H1313 C1288 0.950 . S
H1314 C1290 0.950 . S
H1315 C1291 0.949 . S
H1316 C1293 0.950 . S
H1317 C1295 0.950 . S
C1318 C1319 1.349 . S
C1318 C1320 1.327 . S
C1318 H1343 0.950 . S
C1319 C1318 1.349 . S
C1319 C1335 1.349 . S
C1320 C1318 1.327 . S
C1320 C1339 1.429 . S
C1320 H1344 0.950 . S
C1321 C1338 1.574 . S
C1321 C1340 1.368 . S
C1321 H1345 0.949 . S
H1322 C1326 0.949 . S
C1323 C1324 1.349 . S
C1323 C1325 1.327 . S
C1323 H1346 0.950 . S
C1324 C1323 1.349 . S
C1324 C1336 1.349 . S
C1325 C1323 1.327 . S
C1325 C1341 1.429 . S
C1325 H1347 0.950 . S
C1326 H1322 0.949 . S
C1326 C1334 1.574 . S
C1326 C1342 1.368 . S
H1327 C1335 0.950 . S
H1328 C1333 0.950 . S
H1329 C1334 0.949 . S
H1330 C1336 0.950 . S
H1331 C1337 0.950 . S
H1332 C1338 0.949 . S
C1333 H1328 0.950 . S
C1333 C1335 1.327 . S
C1333 C1339 1.429 . S
C1334 C1326 1.574 . S
C1334 H1329 0.949 . S
C1334 C1340 1.368 . S
C1335 C1319 1.349 . S
C1335 H1327 0.950 . S
C1335 C1333 1.327 . S
C1336 C1324 1.349 . S
C1336 H1330 0.950 . S
C1336 C1337 1.327 . S
C1337 H1331 0.950 . S
C1337 C1336 1.327 . S
C1337 C1341 1.429 . S
C1338 C1321 1.574 . S
C1338 H1332 0.949 . S
C1338 C1342 1.368 . S
C1339 C1320 1.429 . S
C1339 C1333 1.429 . S
C1339 C1340 1.523 . S
C1340 C1321 1.368 . S
C1340 C1334 1.368 . S
C1340 C1339 1.523 . S
C1341 C1325 1.429 . S
C1341 C1337 1.429 . S
C1341 C1342 1.523 . S
C1342 C1326 1.368 . S
C1342 C1338 1.368 . S
C1342 C1341 1.523 . S
H1343 C1318 0.950 . S
H1344 C1320 0.950 . S
H1345 C1321 0.949 . S
H1346 C1323 0.950 . S
H1347 C1325 0.950 . S
C1348 C1349 1.349 . S
C1348 C1350 1.327 . S
C1348 H1373 0.950 . S
C1349 C1348 1.349 . S
C1349 C1365 1.349 . S
C1350 C1348 1.327 . S
C1350 C1369 1.429 . S
C1350 H1374 0.950 . S
C1351 C1368 1.574 . S
C1351 C1370 1.368 . S
C1351 H1375 0.949 . S
H1352 C1356 0.949 . S
C1353 C1354 1.349 . S
C1353 C1355 1.327 . S
C1353 H1376 0.950 . S
C1354 C1353 1.349 . S
C1354 C1366 1.349 . S
C1355 C1353 1.327 . S
C1355 C1371 1.429 . S
C1355 H1377 0.950 . S
C1356 H1352 0.949 . S
C1356 C1364 1.574 . S
C1356 C1372 1.368 . S
H1357 C1365 0.950 . S
H1358 C1363 0.950 . S
H1359 C1364 0.949 . S
H1360 C1366 0.950 . S
H1361 C1367 0.950 . S
H1362 C1368 0.949 . S
C1363 H1358 0.950 . S
C1363 C1365 1.327 . S
C1363 C1369 1.429 . S
C1364 C1356 1.574 . S
C1364 H1359 0.949 . S
C1364 C1370 1.368 . S
C1365 C1349 1.349 . S
C1365 H1357 0.950 . S
C1365 C1363 1.327 . S
C1366 C1354 1.349 . S
C1366 H1360 0.950 . S
C1366 C1367 1.327 . S
C1367 H1361 0.950 . S
C1367 C1366 1.327 . S
C1367 C1371 1.429 . S
C1368 C1351 1.574 . S
C1368 H1362 0.949 . S
C1368 C1372 1.368 . S
C1369 C1350 1.429 . S
C1369 C1363 1.429 . S
C1369 C1370 1.523 . S
C1370 C1351 1.368 . S
C1370 C1364 1.368 . S
C1370 C1369 1.523 . S
C1371 C1355 1.429 . S
C1371 C1367 1.429 . S
C1371 C1372 1.523 . S
C1372 C1356 1.368 . S
C1372 C1368 1.368 . S
C1372 C1371 1.523 . S
H1373 C1348 0.950 . S
H1374 C1350 0.950 . S
H1375 C1351 0.949 . S
H1376 C1353 0.950 . S
H1377 C1355 0.950 . S
C1378 C1379 1.349 . S
C1378 C1380 1.327 . S
C1378 H1403 0.950 . S
C1379 C1378 1.349 . S
C1379 C1395 1.349 . S
C1380 C1378 1.327 . S
C1380 C1399 1.429 . S
C1380 H1404 0.950 . S
C1381 C1398 1.574 . S
C1381 C1400 1.368 . S
C1381 H1405 0.949 . S
H1382 C1386 0.949 . S
C1383 C1384 1.349 . S
C1383 C1385 1.327 . S
C1383 H1406 0.950 . S
C1384 C1383 1.349 . S
C1384 C1396 1.349 . S
C1385 C1383 1.327 . S
C1385 C1401 1.429 . S
C1385 H1407 0.950 . S
C1386 H1382 0.949 . S
C1386 C1394 1.574 . S
C1386 C1402 1.368 . S
H1387 C1395 0.950 . S
H1388 C1393 0.950 . S
H1389 C1394 0.949 . S
H1390 C1396 0.950 . S
H1391 C1397 0.950 . S
H1392 C1398 0.949 . S
C1393 H1388 0.950 . S
C1393 C1395 1.327 . S
C1393 C1399 1.429 . S
C1394 C1386 1.574 . S
C1394 H1389 0.949 . S
C1394 C1400 1.368 . S
C1395 C1379 1.349 . S
C1395 H1387 0.950 . S
C1395 C1393 1.327 . S
C1396 C1384 1.349 . S
C1396 H1390 0.950 . S
C1396 C1397 1.327 . S
C1397 H1391 0.950 . S
C1397 C1396 1.327 . S
C1397 C1401 1.429 . S
C1398 C1381 1.574 . S
C1398 H1392 0.949 . S
C1398 C1402 1.368 . S
C1399 C1380 1.429 . S
C1399 C1393 1.429 . S
C1399 C1400 1.523 . S
C1400 C1381 1.368 . S
C1400 C1394 1.368 . S
C1400 C1399 1.523 . S
C1401 C1385 1.429 . S
C1401 C1397 1.429 . S
C1401 C1402 1.523 . S
C1402 C1386 1.368 . S
C1402 C1398 1.368 . S
C1402 C1401 1.523 . S
H1403 C1378 0.950 . S
H1404 C1380 0.950 . S
H1405 C1381 0.949 . S
H1406 C1383 0.950 . S
H1407 C1385 0.950 . S
C1408 C1409 1.349 . S
C1408 C1410 1.327 . S
C1408 H1433 0.950 . S
C1409 C1408 1.349 . S
C1409 C1425 1.349 . S
C1410 C1408 1.327 . S
C1410 C1429 1.429 . S
C1410 H1434 0.950 . S
C1411 C1428 1.574 . S
C1411 C1430 1.368 . S
C1411 H1435 0.949 . S
H1412 C1416 0.949 . S
C1413 C1414 1.349 . S
C1413 C1415 1.327 . S
C1413 H1436 0.950 . S
C1414 C1413 1.349 . S
C1414 C1426 1.349 . S
C1415 C1413 1.327 . S
C1415 C1431 1.429 . S
C1415 H1437 0.950 . S
C1416 H1412 0.949 . S
C1416 C1424 1.574 . S
C1416 C1432 1.368 . S
H1417 C1425 0.950 . S
H1418 C1423 0.950 . S
H1419 C1424 0.949 . S
H1420 C1426 0.950 . S
H1421 C1427 0.950 . S
H1422 C1428 0.949 . S
C1423 H1418 0.950 . S
C1423 C1425 1.327 . S
C1423 C1429 1.429 . S
C1424 C1416 1.574 . S
C1424 H1419 0.949 . S
C1424 C1430 1.368 . S
C1425 C1409 1.349 . S
C1425 H1417 0.950 . S
C1425 C1423 1.327 . S
C1426 C1414 1.349 . S
C1426 H1420 0.950 . S
C1426 C1427 1.327 . S
C1427 H1421 0.950 . S
C1427 C1426 1.327 . S
C1427 C1431 1.429 . S
C1428 C1411 1.574 . S
C1428 H1422 0.949 . S
C1428 C1432 1.368 . S
C1429 C1410 1.429 . S
C1429 C1423 1.429 . S
C1429 C1430 1.523 . S
C1430 C1411 1.368 . S
C1430 C1424 1.368 . S
C1430 C1429 1.523 . S
C1431 C1415 1.429 . S
C1431 C1427 1.429 . S
C1431 C1432 1.523 . S
C1432 C1416 1.368 . S
C1432 C1428 1.368 . S
C1432 C1431 1.523 . S
H1433 C1408 0.950 . S
H1434 C1410 0.950 . S
H1435 C1411 0.949 . S
H1436 C1413 0.950 . S
H1437 C1415 0.950 . S
C1438 C1439 1.349 . S
C1438 C1440 1.327 . S
C1438 H1463 0.950 . S
C1439 C1438 1.349 . S
C1439 C1455 1.349 . S
C1440 C1438 1.327 . S
C1440 C1459 1.429 . S
C1440 H1464 0.950 . S
C1441 C1458 1.574 . S
C1441 C1460 1.368 . S
C1441 H1465 0.949 . S
H1442 C1446 0.949 . S
C1443 C1444 1.349 . S
C1443 C1445 1.327 . S
C1443 H1466 0.950 . S
C1444 C1443 1.349 . S
C1444 C1456 1.349 . S
C1445 C1443 1.327 . S
C1445 C1461 1.429 . S
C1445 H1467 0.950 . S
C1446 H1442 0.949 . S
C1446 C1454 1.574 . S
C1446 C1462 1.368 . S
H1447 C1455 0.950 . S
H1448 C1453 0.950 . S
H1449 C1454 0.949 . S
H1450 C1456 0.950 . S
H1451 C1457 0.950 . S
H1452 C1458 0.949 . S
C1453 H1448 0.950 . S
C1453 C1455 1.327 . S
C1453 C1459 1.429 . S
C1454 C1446 1.574 . S
C1454 H1449 0.949 . S
C1454 C1460 1.368 . S
C1455 C1439 1.349 . S
C1455 H1447 0.950 . S
C1455 C1453 1.327 . S
C1456 C1444 1.349 . S
C1456 H1450 0.950 . S
C1456 C1457 1.327 . S
C1457 H1451 0.950 . S
C1457 C1456 1.327 . S
C1457 C1461 1.429 . S
C1458 C1441 1.574 . S
C1458 H1452 0.949 . S
C1458 C1462 1.368 . S
C1459 C1440 1.429 . S
C1459 C1453 1.429 . S
C1459 C1460 1.523 . S
C1460 C1441 1.368 . S
C1460 C1454 1.368 . S
C1460 C1459 1.523 . S
C1461 C1445 1.429 . S
C1461 C1457 1.429 . S
C1461 C1462 1.523 . S
C1462 C1446 1.368 . S
C1462 C1458 1.368 . S
C1462 C1461 1.523 . S
H1463 C1438 0.950 . S
H1464 C1440 0.950 . S
H1465 C1441 0.949 . S
H1466 C1443 0.950 . S
H1467 C1445 0.950 . S
C1468 C1469 1.349 . S
C1468 C1470 1.327 . S
C1468 H1493 0.950 . S
C1469 C1468 1.349 . S
C1469 C1485 1.349 . S
C1470 C1468 1.327 . S
C1470 C1489 1.429 . S
C1470 H1494 0.950 . S
C1471 C1488 1.574 . S
C1471 C1490 1.368 . S
C1471 H1495 0.949 . S
H1472 C1476 0.949 . S
C1473 C1474 1.349 . S
C1473 C1475 1.327 . S
C1473 H1496 0.950 . S
C1474 C1473 1.349 . S
C1474 C1486 1.349 . S
C1475 C1473 1.327 . S
C1475 C1491 1.429 . S
C1475 H1497 0.950 . S
C1476 H1472 0.949 . S
C1476 C1484 1.574 . S
C1476 C1492 1.368 . S
H1477 C1485 0.950 . S
H1478 C1483 0.950 . S
H1479 C1484 0.949 . S
H1480 C1486 0.950 . S
H1481 C1487 0.950 . S
H1482 C1488 0.949 . S
C1483 H1478 0.950 . S
C1483 C1485 1.327 . S
C1483 C1489 1.429 . S
C1484 C1476 1.574 . S
C1484 H1479 0.949 . S
C1484 C1490 1.368 . S
C1485 C1469 1.349 . S
C1485 H1477 0.950 . S
C1485 C1483 1.327 . S
C1486 C1474 1.349 . S
C1486 H1480 0.950 . S
C1486 C1487 1.327 . S
C1487 H1481 0.950 . S
C1487 C1486 1.327 . S
C1487 C1491 1.429 . S
C1488 C1471 1.574 . S
C1488 H1482 0.949 . S
C1488 C1492 1.368 . S
C1489 C1470 1.429 . S
C1489 C1483 1.429 . S
C1489 C1490 1.523 . S
C1490 C1471 1.368 . S
C1490 C1484 1.368 . S
C1490 C1489 1.523 . S
C1491 C1475 1.429 . S
C1491 C1487 1.429 . S
C1491 C1492 1.523 . S
C1492 C1476 1.368 . S
C1492 C1488 1.368 . S
C1492 C1491 1.523 . S
H1493 C1468 0.950 . S
H1494 C1470 0.950 . S
H1495 C1471 0.949 . S
H1496 C1473 0.950 . S
H1497 C1475 0.950 . S
C1498 C1499 1.349 . S
C1498 C1500 1.327 . S
C1498 H1523 0.950 . S
C1499 C1498 1.349 . S
C1499 C1515 1.349 . S
C1500 C1498 1.327 . S
C1500 C1519 1.429 . S
C1500 H1524 0.950 . S
C1501 C1518 1.574 . S
C1501 C1520 1.368 . S
C1501 H1525 0.949 . S
H1502 C1506 0.949 . S
C1503 C1504 1.349 . S
C1503 C1505 1.327 . S
C1503 H1526 0.950 . S
C1504 C1503 1.349 . S
C1504 C1516 1.349 . S
C1505 C1503 1.327 . S
C1505 C1521 1.429 . S
C1505 H1527 0.950 . S
C1506 H1502 0.949 . S
C1506 C1514 1.574 . S
C1506 C1522 1.368 . S
H1507 C1515 0.950 . S
H1508 C1513 0.950 . S
H1509 C1514 0.949 . S
H1510 C1516 0.950 . S
H1511 C1517 0.950 . S
H1512 C1518 0.949 . S
C1513 H1508 0.950 . S
C1513 C1515 1.327 . S
C1513 C1519 1.429 . S
C1514 C1506 1.574 . S
C1514 H1509 0.949 . S
C1514 C1520 1.368 . S
C1515 C1499 1.349 . S
C1515 H1507 0.950 . S
C1515 C1513 1.327 . S
C1516 C1504 1.349 . S
C1516 H1510 0.950 . S
C1516 C1517 1.327 . S
C1517 H1511 0.950 . S
C1517 C1516 1.327 . S
C1517 C1521 1.429 . S
C1518 C1501 1.574 . S
C1518 H1512 0.949 . S
C1518 C1522 1.368 . S
C1519 C1500 1.429 . S
C1519 C1513 1.429 . S
C1519 C1520 1.523 . S
C1520 C1501 1.368 . S
C1520 C1514 1.368 . S
C1520 C1519 1.523 . S
C1521 C1505 1.429 . S
C1521 C1517 1.429 . S
C1521 C1522 1.523 . S
C1522 C1506 1.368 . S
C1522 C1518 1.368 . S
C1522 C1521 1.523 . S
H1523 C1498 0.950 . S
H1524 C1500 0.950 . S
H1525 C1501 0.949 . S
H1526 C1503 0.950 . S
H1527 C1505 0.950 . S
C1528 C1529 1.349 . S
C1528 C1530 1.327 . S
C1528 H1553 0.950 . S
C1529 C1528 1.349 . S
C1529 C1545 1.349 . S
C1530 C1528 1.327 . S
C1530 C1549 1.429 . S
C1530 H1554 0.950 . S
C1531 C1548 1.574 . S
C1531 C1550 1.368 . S
C1531 H1555 0.949 . S
H1532 C1536 0.949 . S
C1533 C1534 1.349 . S
C1533 C1535 1.327 . S
C1533 H1556 0.950 . S
C1534 C1533 1.349 . S
C1534 C1546 1.349 . S
C1535 C1533 1.327 . S
C1535 C1551 1.429 . S
C1535 H1557 0.950 . S
C1536 H1532 0.949 . S
C1536 C1544 1.574 . S
C1536 C1552 1.368 . S
H1537 C1545 0.950 . S
H1538 C1543 0.950 . S
H1539 C1544 0.949 . S
H1540 C1546 0.950 . S
H1541 C1547 0.950 . S
H1542 C1548 0.949 . S
C1543 H1538 0.950 . S
C1543 C1545 1.327 . S
C1543 C1549 1.429 . S
C1544 C1536 1.574 . S
C1544 H1539 0.949 . S
C1544 C1550 1.368 . S
C1545 C1529 1.349 . S
C1545 H1537 0.950 . S
C1545 C1543 1.327 . S
C1546 C1534 1.349 . S
C1546 H1540 0.950 . S
C1546 C1547 1.327 . S
C1547 H1541 0.950 . S
C1547 C1546 1.327 . S
C1547 C1551 1.429 . S
C1548 C1531 1.574 . S
C1548 H1542 0.949 . S
C1548 C1552 1.368 . S
C1549 C1530 1.429 . S
C1549 C1543 1.429 . S
C1549 C1550 1.523 . S
C1550 C1531 1.368 . S
C1550 C1544 1.368 . S
C1550 C1549 1.523 . S
C1551 C1535 1.429 . S
C1551 C1547 1.429 . S
C1551 C1552 1.523 . S
C1552 C1536 1.368 . S
C1552 C1548 1.368 . S
C1552 C1551 1.523 . S
H1553 C1528 0.950 . S
H1554 C1530 0.950 . S
H1555 C1531 0.949 . S
H1556 C1533 0.950 . S
H1557 C1535 0.950 . S
C1558 C1559 1.349 . S
C1558 C1560 1.327 . S
C1558 H1583 0.950 . S
C1559 C1558 1.349 . S
C1559 C1575 1.349 . S
C1560 C1558 1.327 . S
C1560 C1579 1.429 . S
C1560 H1584 0.950 . S
C1561 C1578 1.574 . S
C1561 C1580 1.368 . S
C1561 H1585 0.949 . S
H1562 C1566 0.949 . S
C1563 C1564 1.349 . S
C1563 C1565 1.327 . S
C1563 H1586 0.950 . S
C1564 C1563 1.349 . S
C1564 C1576 1.349 . S
C1565 C1563 1.327 . S
C1565 C1581 1.429 . S
C1565 H1587 0.950 . S
C1566 H1562 0.949 . S
C1566 C1574 1.574 . S
C1566 C1582 1.368 . S
H1567 C1575 0.950 . S
H1568 C1573 0.950 . S
H1569 C1574 0.949 . S
H1570 C1576 0.950 . S
H1571 C1577 0.950 . S
H1572 C1578 0.949 . S
C1573 H1568 0.950 . S
C1573 C1575 1.327 . S
C1573 C1579 1.429 . S
C1574 C1566 1.574 . S
C1574 H1569 0.949 . S
C1574 C1580 1.368 . S
C1575 C1559 1.349 . S
C1575 H1567 0.950 . S
C1575 C1573 1.327 . S
C1576 C1564 1.349 . S
C1576 H1570 0.950 . S
C1576 C1577 1.327 . S
C1577 H1571 0.950 . S
C1577 C1576 1.327 . S
C1577 C1581 1.429 . S
C1578 C1561 1.574 . S
C1578 H1572 0.949 . S
C1578 C1582 1.368 . S
C1579 C1560 1.429 . S
C1579 C1573 1.429 . S
C1579 C1580 1.523 . S
C1580 C1561 1.368 . S
C1580 C1574 1.368 . S
C1580 C1579 1.523 . S
C1581 C1565 1.429 . S
C1581 C1577 1.429 . S
C1581 C1582 1.523 . S
C1582 C1566 1.368 . S
C1582 C1578 1.368 . S
C1582 C1581 1.523 . S
H1583 C1558 0.950 . S
H1584 C1560 0.950 . S
H1585 C1561 0.949 . S
H1586 C1563 0.950 . S
H1587 C1565 0.950 . S
C1588 C1589 1.349 . S
C1588 C1590 1.327 . S
C1588 H1613 0.950 . S
C1589 C1588 1.349 . S
C1589 C1605 1.349 . S
C1590 C1588 1.327 . S
C1590 C1609 1.429 . S
C1590 H1614 0.950 . S
C1591 C1608 1.574 . S
C1591 C1610 1.368 . S
C1591 H1615 0.949 . S
H1592 C1596 0.949 . S
C1593 C1594 1.349 . S
C1593 C1595 1.327 . S
C1593 H1616 0.950 . S
C1594 C1593 1.349 . S
C1594 C1606 1.349 . S
C1595 C1593 1.327 . S
C1595 C1611 1.429 . S
C1595 H1617 0.950 . S
C1596 H1592 0.949 . S
C1596 C1604 1.574 . S
C1596 C1612 1.368 . S
H1597 C1605 0.950 . S
H1598 C1603 0.950 . S
H1599 C1604 0.949 . S
H1600 C1606 0.950 . S
H1601 C1607 0.950 . S
H1602 C1608 0.949 . S
C1603 H1598 0.950 . S
C1603 C1605 1.327 . S
C1603 C1609 1.429 . S
C1604 C1596 1.574 . S
C1604 H1599 0.949 . S
C1604 C1610 1.368 . S
C1605 C1589 1.349 . S
C1605 H1597 0.950 . S
C1605 C1603 1.327 . S
C1606 C1594 1.349 . S
C1606 H1600 0.950 . S
C1606 C1607 1.327 . S
C1607 H1601 0.950 . S
C1607 C1606 1.327 . S
C1607 C1611 1.429 . S
C1608 C1591 1.574 . S
C1608 H1602 0.949 . S
C1608 C1612 1.368 . S
C1609 C1590 1.429 . S
C1609 C1603 1.429 . S
C1609 C1610 1.523 . S
C1610 C1591 1.368 . S
C1610 C1604 1.368 . S
C1610 C1609 1.523 . S
C1611 C1595 1.429 . S
C1611 C1607 1.429 . S
C1611 C1612 1.523 . S
C1612 C1596 1.368 . S
C1612 C1608 1.368 . S
C1612 C1611 1.523 . S
H1613 C1588 0.950 . S
H1614 C1590 0.950 . S
H1615 C1591 0.949 . S
H1616 C1593 0.950 . S
H1617 C1595 0.950 . S
C1618 C1619 1.349 . S
C1618 C1620 1.327 . S
C1618 H1643 0.950 . S
C1619 C1618 1.349 . S
C1619 C1635 1.349 . S
C1620 C1618 1.327 . S
C1620 C1639 1.429 . S
C1620 H1644 0.950 . S
C1621 C1638 1.574 . S
C1621 C1640 1.368 . S
C1621 H1645 0.949 . S
H1622 C1626 0.949 . S
C1623 C1624 1.349 . S
C1623 C1625 1.327 . S
C1623 H1646 0.950 . S
C1624 C1623 1.349 . S
C1624 C1636 1.349 . S
C1625 C1623 1.327 . S
C1625 C1641 1.429 . S
C1625 H1647 0.950 . S
C1626 H1622 0.949 . S
C1626 C1634 1.574 . S
C1626 C1642 1.368 . S
H1627 C1635 0.950 . S
H1628 C1633 0.950 . S
H1629 C1634 0.949 . S
H1630 C1636 0.950 . S
H1631 C1637 0.950 . S
H1632 C1638 0.949 . S
C1633 H1628 0.950 . S
C1633 C1635 1.327 . S
C1633 C1639 1.429 . S
C1634 C1626 1.574 . S
C1634 H1629 0.949 . S
C1634 C1640 1.368 . S
C1635 C1619 1.349 . S
C1635 H1627 0.950 . S
C1635 C1633 1.327 . S
C1636 C1624 1.349 . S
C1636 H1630 0.950 . S
C1636 C1637 1.327 . S
C1637 H1631 0.950 . S
C1637 C1636 1.327 . S
C1637 C1641 1.429 . S
C1638 C1621 1.574 . S
C1638 H1632 0.949 . S
C1638 C1642 1.368 . S
C1639 C1620 1.429 . S
C1639 C1633 1.429 . S
C1639 C1640 1.523 . S
C1640 C1621 1.368 . S
C1640 C1634 1.368 . S
C1640 C1639 1.523 . S
C1641 C1625 1.429 . S
C1641 C1637 1.429 . S
C1641 C1642 1.523 . S
C1642 C1626 1.368 . S
C1642 C1638 1.368 . S
C1642 C1641 1.523 . S
H1643 C1618 0.950 . S
H1644 C1620 0.950 . S
H1645 C1621 0.949 . S
H1646 C1623 0.950 . S
H1647 C1625 0.950 . S
C1648 C1649 1.349 . S
C1648 C1650 1.327 . S
C1648 H1673 0.950 . S
C1649 C1648 1.349 . S
C1649 C1665 1.349 . S
C1650 C1648 1.327 . S
C1650 C1669 1.429 . S
C1650 H1674 0.950 . S
C1651 C1668 1.574 . S
C1651 C1670 1.368 . S
C1651 H1675 0.949 . S
H1652 C1656 0.949 . S
C1653 C1654 1.349 . S
C1653 C1655 1.327 . S
C1653 H1676 0.950 . S
C1654 C1653 1.349 . S
C1654 C1666 1.349 . S
C1655 C1653 1.327 . S
C1655 C1671 1.429 . S
C1655 H1677 0.950 . S
C1656 H1652 0.949 . S
C1656 C1664 1.574 . S
C1656 C1672 1.368 . S
H1657 C1665 0.950 . S
H1658 C1663 0.950 . S
H1659 C1664 0.949 . S
H1660 C1666 0.950 . S
H1661 C1667 0.950 . S
H1662 C1668 0.949 . S
C1663 H1658 0.950 . S
C1663 C1665 1.327 . S
C1663 C1669 1.429 . S
C1664 C1656 1.574 . S
C1664 H1659 0.949 . S
C1664 C1670 1.368 . S
C1665 C1649 1.349 . S
C1665 H1657 0.950 . S
C1665 C1663 1.327 . S
C1666 C1654 1.349 . S
C1666 H1660 0.950 . S
C1666 C1667 1.327 . S
C1667 H1661 0.950 . S
C1667 C1666 1.327 . S
C1667 C1671 1.429 . S
C1668 C1651 1.574 . S
C1668 H1662 0.949 . S
C1668 C1672 1.368 . S
C1669 C1650 1.429 . S
C1669 C1663 1.429 . S
C1669 C1670 1.523 . S
C1670 C1651 1.368 . S
C1670 C1664 1.368 . S
C1670 C1669 1.523 . S
C1671 C1655 1.429 . S
C1671 C1667 1.429 . S
C1671 C1672 1.523 . S
C1672 C1656 1.368 . S
C1672 C1668 1.368 . S
C1672 C1671 1.523 . S
H1673 C1648 0.950 . S
H1674 C1650 0.950 . S
H1675 C1651 0.949 . S
H1676 C1653 0.950 . S
H1677 C1655 0.950 . S
C1678 C1679 1.349 . S
C1678 C1680 1.327 . S
C1678 H1703 0.950 . S
C1679 C1678 1.349 . S
C1679 C1695 1.349 . S
C1680 C1678 1.327 . S
C1680 C1699 1.429 . S
C1680 H1704 0.950 . S
C1681 C1698 1.574 . S
C1681 C1700 1.368 . S
C1681 H1705 0.949 . S
H1682 C1686 0.949 . S
C1683 C1684 1.349 . S
C1683 C1685 1.327 . S
C1683 H1706 0.950 . S
C1684 C1683 1.349 . S
C1684 C1696 1.349 . S
C1685 C1683 1.327 . S
C1685 C1701 1.429 . S
C1685 H1707 0.950 . S
C1686 H1682 0.949 . S
C1686 C1694 1.574 . S
C1686 C1702 1.368 . S
H1687 C1695 0.950 . S
H1688 C1693 0.950 . S
H1689 C1694 0.949 . S
H1690 C1696 0.950 . S
H1691 C1697 0.950 . S
H1692 C1698 0.949 . S
C1693 H1688 0.950 . S
C1693 C1695 1.327 . S
C1693 C1699 1.429 . S
C1694 C1686 1.574 . S
C1694 H1689 0.949 . S
C1694 C1700 1.368 . S
C1695 C1679 1.349 . S
C1695 H1687 0.950 . S
C1695 C1693 1.327 . S
C1696 C1684 1.349 . S
C1696 H1690 0.950 . S
C1696 C1697 1.327 . S
C1697 H1691 0.950 . S
C1697 C1696 1.327 . S
C1697 C1701 1.429 . S
C1698 C1681 1.574 . S
C1698 H1692 0.949 . S
C1698 C1702 1.368 . S
C1699 C1680 1.429 . S
C1699 C1693 1.429 . S
C1699 C1700 1.523 . S
C1700 C1681 1.368 . S
C1700 C1694 1.368 . S
C1700 C1699 1.523 . S
C1701 C1685 1.429 . S
C1701 C1697 1.429 . S
C1701 C1702 1.523 . S
C1702 C1686 1.368 . S
C1702 C1698 1.368 . S
C1702 C1701 1.523 . S
H1703 C1678 0.950 . S
H1704 C1680 0.950 . S
H1705 C1681 0.949 . S
H1706 C1683 0.950 . S
H1707 C1685 0.950 . S
C1708 C1709 1.349 . S
C1708 C1710 1.327 . S
C1708 H1733 0.950 . S
C1709 C1708 1.349 . S
C1709 C1725 1.349 . S
C1710 C1708 1.327 . S
C1710 C1729 1.429 . S
C1710 H1734 0.950 . S
C1711 C1728 1.574 . S
C1711 C1730 1.368 . S
C1711 H1735 0.949 . S
H1712 C1716 0.949 . S
C1713 C1714 1.349 . S
C1713 C1715 1.327 . S
C1713 H1736 0.950 . S
C1714 C1713 1.349 . S
C1714 C1726 1.349 . S
C1715 C1713 1.327 . S
C1715 C1731 1.429 . S
C1715 H1737 0.950 . S
C1716 H1712 0.949 . S
C1716 C1724 1.574 . S
C1716 C1732 1.368 . S
H1717 C1725 0.950 . S
H1718 C1723 0.950 . S
H1719 C1724 0.949 . S
H1720 C1726 0.950 . S
H1721 C1727 0.950 . S
H1722 C1728 0.949 . S
C1723 H1718 0.950 . S
C1723 C1725 1.327 . S
C1723 C1729 1.429 . S
C1724 C1716 1.574 . S
C1724 H1719 0.949 . S
C1724 C1730 1.368 . S
C1725 C1709 1.349 . S
C1725 H1717 0.950 . S
C1725 C1723 1.327 . S
C1726 C1714 1.349 . S
C1726 H1720 0.950 . S
C1726 C1727 1.327 . S
C1727 H1721 0.950 . S
C1727 C1726 1.327 . S
C1727 C1731 1.429 . S
C1728 C1711 1.574 . S
C1728 H1722 0.949 . S
C1728 C1732 1.368 . S
C1729 C1710 1.429 . S
C1729 C1723 1.429 . S
C1729 C1730 1.523 . S
C1730 C1711 1.368 . S
C1730 C1724 1.368 . S
C1730 C1729 1.523 . S
C1731 C1715 1.429 . S
C1731 C1727 1.429 . S
C1731 C1732 1.523 . S
C1732 C1716 1.368 . S
C1732 C1728 1.368 . S
C1732 C1731 1.523 . S
H1733 C1708 0.950 . S
H1734 C1710 0.950 . S
H1735 C1711 0.949 . S
H1736 C1713 0.950 . S
H1737 C1715 0.950 . S
C1738 C1739 1.349 . S
C1738 C1740 1.327 . S
C1738 H1763 0.950 . S
C1739 C1738 1.349 . S
C1739 C1755 1.349 . S
C1740 C1738 1.327 . S
C1740 C1759 1.429 . S
C1740 H1764 0.950 . S
C1741 C1758 1.574 . S
C1741 C1760 1.368 . S
C1741 H1765 0.949 . S
H1742 C1746 0.949 . S
C1743 C1744 1.349 . S
C1743 C1745 1.327 . S
C1743 H1766 0.950 . S
C1744 C1743 1.349 . S
C1744 C1756 1.349 . S
C1745 C1743 1.327 . S
C1745 C1761 1.429 . S
C1745 H1767 0.950 . S
C1746 H1742 0.949 . S
C1746 C1754 1.574 . S
C1746 C1762 1.368 . S
H1747 C1755 0.950 . S
H1748 C1753 0.950 . S
H1749 C1754 0.949 . S
H1750 C1756 0.950 . S
H1751 C1757 0.950 . S
H1752 C1758 0.949 . S
C1753 H1748 0.950 . S
C1753 C1755 1.327 . S
C1753 C1759 1.429 . S
C1754 C1746 1.574 . S
C1754 H1749 0.949 . S
C1754 C1760 1.368 . S
C1755 C1739 1.349 . S
C1755 H1747 0.950 . S
C1755 C1753 1.327 . S
C1756 C1744 1.349 . S
C1756 H1750 0.950 . S
C1756 C1757 1.327 . S
C1757 H1751 0.950 . S
C1757 C1756 1.327 . S
C1757 C1761 1.429 . S
C1758 C1741 1.574 . S
C1758 H1752 0.949 . S
C1758 C1762 1.368 . S
C1759 C1740 1.429 . S
C1759 C1753 1.429 . S
C1759 C1760 1.523 . S
C1760 C1741 1.368 . S
C1760 C1754 1.368 . S
C1760 C1759 1.523 . S
C1761 C1745 1.429 . S
C1761 C1757 1.429 . S
C1761 C1762 1.523 . S
C1762 C1746 1.368 . S
C1762 C1758 1.368 . S
C1762 C1761 1.523 . S
H1763 C1738 0.950 . S
H1764 C1740 0.950 . S
H1765 C1741 0.949 . S
H1766 C1743 0.950 . S
H1767 C1745 0.950 . S
C814 C413 1.457 . S
C809 C36 1.456 . S
C844 C466 1.285 . S
C839 C93 1.281 . S
C874 C529 1.526 . S
C869 C132 1.526 . S
C904 C572 1.249 . S
C899 C174 1.247 . S
C929 C213 1.522 . S
C934 C528 1.523 . S
C964 C565 1.309 . S
C959 C285 1.303 . S
C994 C406 1.461 . S
C989 C324 1.460 . S
C1024 C459 1.224 . S
C1019 C366 1.221 . S
C1054 C512 1.484 . S
C1049 C357 1.480 . S
C1084 C581 1.788 . S
C1079 C222 1.786 . S
C1114 C422 1.553 . S
C1109 C276 1.553 . S
C1144 C475 1.719 . S
C1139 C333 1.714 . S
C1174 C423 1.546 . S
C1169 C84 1.545 . S
C1204 C476 1.786 . S
C1199 C141 1.780 . S
C1234 C519 1.492 . S
C1229 C165 1.489 . S
C1264 C582 1.724 . S
C1259 C45 1.715 . S
C1294 C625 1.430 . S
C1289 C372 1.429 . S
C1319 C237 1.665 . S
C1324 C678 1.672 . S
C1349 C261 1.552 . S
C1354 C740 1.552 . S
C1379 C318 1.663 . S
C1384 C794 1.668 . S
C1409 C69 1.490 . S
C1414 C741 1.492 . S
C1439 C126 1.728 . S
C1444 C793 1.734 . S
C1469 C180 1.484 . S
C1474 C618 1.485 . S
C1504 C671 1.613 . S
C1499 C30 1.610 . S
C1534 C731 1.457 . S
C1529 C21 1.454 . S
C1559 C78 1.334 . S
C1564 C777 1.338 . S
C1589 C117 1.577 . S
C1594 C634 1.578 . S
C1619 C189 1.314 . S
C1624 C687 1.320 . S
C1654 C635 1.516 . S
C1649 C228 1.514 . S
C1684 C688 1.388 . S
C1679 C270 1.386 . S
C1709 C309 1.510 . S
C1714 C724 1.513 . S
C1744 C784 1.275 . S
C1739 C381 1.271 . S
