# Generated by pormake.
# Topology tsx, (6,3)-cn, num edge types: 1
# Building blocks:
#     Node 0, Type 0, BuildingBlock: MIDCAF_clean_sbu_0, # of connection points: 6
#     Node 1, Type 0, BuildingBlock: MIDCAF_clean_sbu_0, # of connection points: 6
#     Node 2, Type 1, BuildingBlock: BETDAH_clean_linker_0, # of connection points: 3
#     Node 3, Type 1, BuildingBlock: BETDAH_clean_linker_0, # of connection points: 3
#     Node 4, Type 1, BuildingBlock: BETDAH_clean_linker_0, # of connection points: 3
#     Node 5, Type 1, BuildingBlock: BETDAH_clean_linker_0, # of connection points: 3
#     Edge 6, Type (0, 1), BuildingBlock: FUNLAD_clean_linker_1, # of connection points: 2
#     Edge 7, Type (0, 1), BuildingBlock: FUNLAD_clean_linker_1, # of connection points: 2
#     Edge 8, Type (0, 1), BuildingBlock: FUNLAD_clean_linker_1, # of connection points: 2
#     Edge 9, Type (0, 1), BuildingBlock: FUNLAD_clean_linker_1, # of connection points: 2
#     Edge 10, Type (0, 1), BuildingBlock: FUNLAD_clean_linker_1, # of connection points: 2
#     Edge 11, Type (0, 1), BuildingBlock: FUNLAD_clean_linker_1, # of connection points: 2
#     Edge 12, Type (0, 1), BuildingBlock: FUNLAD_clean_linker_1, # of connection points: 2
#     Edge 13, Type (0, 1), BuildingBlock: FUNLAD_clean_linker_1, # of connection points: 2
#     Edge 14, Type (0, 1), BuildingBlock: FUNLAD_clean_linker_1, # of connection points: 2
#     Edge 15, Type (0, 1), BuildingBlock: FUNLAD_clean_linker_1, # of connection points: 2
#     Edge 16, Type (0, 1), BuildingBlock: FUNLAD_clean_linker_1, # of connection points: 2
#     Edge 17, Type (0, 1), BuildingBlock: FUNLAD_clean_linker_1, # of connection points: 2
# Relax obj value: 0.079
# Max RMSD: 0.149
# Mean RMSD: 0.109
data_MOF--net-tsx--node1-MIDCAF_clean_sbu_0--node2-BETDAH_clean_linker_0--edge1-FUNLAD_clean_linker_1
_symmetry_space_group_name_H-M    P1
_symmetry_Int_Tables_number       1
_symmetry_cell_setting            triclinic
loop_
_symmetry_equiv_pos_as_xyz
'x, y, z'
_cell_length_a     21.000711
_cell_length_b     21.642395
_cell_length_c     36.564885
_cell_angle_alpha  90.467718
_cell_angle_beta   103.15913
_cell_angle_gamma 90.638177
loop_
_atom_site_label
_atom_site_type_symbol
_atom_site_fract_x
_atom_site_fract_y
_atom_site_fract_z
_atom_type_partial_charge
Zn0 Zn 0.94278 0.99085 0.95557 0.0
Zn1 Zn 0.15395 1.00008 0.06827 0.0
Zn2 Zn 0.04584 0.00489 0.01296 0.0
C3 C 0.13104 0.12456 0.04525 0.0
C4 C 0.1795 0.92779 0.01139 0.0
O5 O 0.96615 0.9554 0.03243 0.0
O6 O 0.89176 0.93322 0.98049 0.0
C7 C 0.96523 0.11925 0.97482 0.0
O8 O 0.0788 0.10179 0.02356 0.0
O9 O 0.17097 0.09018 0.06664 0.0
O10 O 0.20656 0.94279 0.04481 0.0
O11 O 0.12211 0.9479 0.99611 0.0
O12 O 0.92548 0.08143 0.95486 0.0
O13 O 0.01673 0.10006 0.99796 0.0
O14 O 0.07454 0.96126 0.96395 0.0
O15 O 0.98716 0.96009 0.91695 0.0
C16 C 0.04757 0.95122 0.92903 0.0
O17 O 0.01768 0.96847 0.06355 0.0
O18 O 0.10966 0.97086 0.10743 0.0
C19 C 0.91205 0.92871 0.01564 0.0
C20 C 0.04864 0.9612 0.09792 0.0
Zn21 Zn 0.66322 0.51036 0.54802 0.0
Zn22 Zn 0.42822 0.53049 0.46748 0.0
Zn23 Zn 0.54702 0.5267 0.50696 0.0
C24 C 0.50853 0.49821 0.41873 0.0
C25 C 0.46582 0.65059 0.49396 0.0
O26 O 0.5358 0.48788 0.56077 0.0
O27 O 0.63588 0.49644 0.59621 0.0
C28 C 0.65359 0.43381 0.48631 0.0
O29 O 0.54966 0.49198 0.45046 0.0
O30 O 0.45146 0.51704 0.41792 0.0
O31 O 0.41541 0.61717 0.48229 0.0
O32 O 0.52272 0.62588 0.50181 0.0
O33 O 0.68778 0.43957 0.51942 0.0
O34 O 0.6023 0.46704 0.4755 0.0
O35 O 0.59002 0.62025 0.51914 0.0
O36 O 0.69381 0.59526 0.53895 0.0
C37 C 0.65083 0.63607 0.52906 0.0
O38 O 0.48154 0.46932 0.53395 0.0
O39 O 0.38818 0.46282 0.49134 0.0
C40 C 0.57563 0.48575 0.59322 0.0
C41 C 0.4234 0.44627 0.52233 0.0
H42 H 0.15076 0.96743 0.37884 0.0
H43 H 0.95569 0.02904 0.37646 0.0
H44 H 0.07923 0.96876 0.48011 0.0
C45 C 0.11283 0.97845 0.39352 0.0
C46 C 0.12333 0.96778 0.43226 0.0
C47 C 0.05191 0.99837 0.37288 0.0
C48 C 1.0024 0.01205 0.39182 0.0
C49 C 0.01277 0.00224 0.43068 0.0
C50 C 0.07229 0.97815 0.45039 0.0
N51 N 0.96328 0.01417 0.45034 0.0
C52 C 0.92632 0.06756 0.44508 0.0
H53 H 0.99025 0.94994 0.65582 0.0
H54 H 0.18227 0.02634 0.66203 0.0
H55 H 0.06603 0.95956 0.55621 0.0
C56 C 0.02829 0.96413 0.64186 0.0
C57 C 0.02015 0.95324 0.60318 0.0
C58 C 0.08712 0.98871 0.66342 0.0
C59 C 0.13722 0.00618 0.64564 0.0
C60 C 0.12901 0.99677 0.60665 0.0
C61 C 0.07134 0.9686 0.58597 0.0
N62 N 0.1781 0.01355 0.58741 0.0
C63 C 0.22722 0.05735 0.60035 0.0
H64 H 0.71799 0.47998 0.88071 0.0
H65 H 0.542 0.57952 0.88149 0.0
H66 H 0.66816 0.52397 0.98554 0.0
C67 C 0.6849 0.50013 0.89617 0.0
C68 C 0.69946 0.49741 0.93557 0.0
C69 C 0.62766 0.52836 0.87629 0.0
C70 C 0.58576 0.55667 0.89637 0.0
C71 C 0.60108 0.55549 0.93596 0.0
C72 C 0.65741 0.52558 0.95511 0.0
N73 N 0.56046 0.58209 0.95776 0.0
C74 C 0.51591 0.62876 0.946 0.0
H75 H 0.36306 0.51626 0.13072 0.0
H76 H 0.5619 0.56601 0.12943 0.0
H77 H 0.4293 0.50132 0.02832 0.0
C78 C 0.40135 0.52285 0.11554 0.0
C79 C 0.38877 0.50743 0.07732 0.0
C80 C 0.46423 0.54164 0.13499 0.0
C81 C 0.51359 0.55012 0.11494 0.0
C82 C 0.50042 0.53677 0.07612 0.0
C83 C 0.43869 0.51366 0.05788 0.0
N84 N 0.54853 0.54356 0.05474 0.0
C85 C 0.60067 0.58533 0.06307 0.0
H86 H 0.18417 0.2072 0.07035 0.0
C87 C 0.14792 0.19065 0.04594 0.0
H88 H 0.09742 0.21052 0.99102 0.0
H89 H 0.26428 0.43578 0.10609 0.0
H90 H 0.18554 0.42093 0.14415 0.0
H91 H 0.09094 0.35016 0.12352 0.0
H92 H 0.07687 0.2917 0.06489 0.0
C93 C 0.12873 0.22852 0.01672 0.0
C94 C 0.16011 0.29113 0.01792 0.0
C95 C 0.16388 0.32991 0.04974 0.0
C96 C 0.21546 0.37429 0.05992 0.0
C97 C 0.22363 0.40502 0.0951 0.0
C98 C 0.17895 0.39632 0.11762 0.0
C99 C 0.12589 0.35627 0.10613 0.0
C100 C 0.11848 0.32295 0.07269 0.0
H101 H 0.28066 0.50488 0.05902 0.0
C102 C 0.32495 0.47939 0.05906 0.0
H103 H 0.36639 0.39479 0.04925 0.0
H104 H 0.15185 0.23829 0.94863 0.0
H105 H 0.21889 0.26382 0.9048 0.0
H106 H 0.30354 0.34595 0.91981 0.0
H107 H 0.32199 0.4027 0.97902 0.0
C108 C 0.32139 0.41966 0.04853 0.0
C109 C 0.2588 0.38426 0.03568 0.0
C110 C 0.24685 0.35315 1.0004 0.0
C111 C 0.19756 0.30625 0.99153 0.0
C112 C 0.18873 0.27408 0.95686 0.0
C113 C 0.22668 0.28854 0.93134 0.0
C114 C 0.27434 0.33478 0.93979 0.0
C115 C 0.28462 0.36679 0.9739 0.0
H116 H 0.18273 0.85823 0.96717 0.0
C117 C 0.21233 0.8845 0.99051 0.0
H118 H 0.3061 0.90092 0.02482 0.0
H119 H 0.42974 0.64361 0.0187 0.0
H120 H 0.42081 0.65089 0.08342 0.0
H121 H 0.35837 0.73423 0.10448 0.0
H122 H 0.30584 0.8121 0.0612 0.0
C123 C 0.27694 0.87466 1.0013 0.0
C124 C 0.30893 0.82171 0.98676 0.0
C125 C 0.33738 0.77512 0.01219 0.0
C126 C 0.37133 0.72568 0.99972 0.0
C127 C 0.40175 0.68136 0.02623 0.0
C128 C 0.3972 0.68492 0.06358 0.0
C129 C 0.36226 0.73204 0.07548 0.0
C130 C 0.33257 0.77666 0.05027 0.0
H131 H 0.48925 0.72568 0.94002 0.0
C132 C 0.47072 0.67913 0.94216 0.0
H133 H 0.39581 0.62299 0.95389 0.0
H134 H 0.26554 0.9061 0.93137 0.0
H135 H 0.27176 0.89745 0.86613 0.0
H136 H 0.32268 0.80708 0.84339 0.0
H137 H 0.36962 0.72562 0.88615 0.0
C138 C 0.41169 0.66981 0.94944 0.0
C139 C 0.37524 0.72182 0.96155 0.0
C140 C 0.34576 0.76767 0.9359 0.0
C141 C 0.31368 0.81841 0.94868 0.0
C142 C 0.28812 0.86538 0.92294 0.0
C143 C 0.29174 0.86117 0.88543 0.0
C144 C 0.32067 0.81041 0.87266 0.0
C145 C 0.34756 0.76409 0.89749 0.0
H146 H 0.88003 0.90139 0.06715 0.0
C147 C 0.87305 0.89263 0.03721 0.0
H148 H 0.8228 0.84153 0.99004 0.0
H149 H 0.75275 0.66853 0.12532 0.0
H150 H 0.86926 0.6639 0.15311 0.0
H151 H 0.94815 0.72566 0.12753 0.0
H152 H 0.91135 0.79323 0.07483 0.0
C153 C 0.82941 0.84944 0.02009 0.0
C154 C 0.78358 0.81528 0.0388 0.0
C155 C 0.80674 0.77378 0.06869 0.0
C156 C 0.76156 0.73548 0.0822 0.0
C157 C 0.78531 0.69668 0.11315 0.0
C158 C 0.85193 0.69383 0.12945 0.0
C159 C 0.89632 0.72879 0.11513 0.0
C160 C 0.87435 0.768 0.08497 0.0
H161 H 0.69583 0.61367 0.05464 0.0
C162 C 0.65392 0.62881 0.06497 0.0
H163 H 0.60412 0.70368 0.08192 0.0
H164 H 0.72168 0.89582 0.98528 0.0
H165 H 0.60542 0.89942 0.95751 0.0
H166 H 0.52833 0.82791 0.97789 0.0
H167 H 0.56683 0.75286 0.02627 0.0
C168 C 0.64792 0.68854 0.07348 0.0
C169 C 0.694 0.73608 0.06451 0.0
C170 C 0.67057 0.77951 0.03592 0.0
C171 C 0.71526 0.81957 0.02343 0.0
C172 C 0.69025 0.86308 0.99517 0.0
C173 C 0.62352 0.86591 0.97909 0.0
C174 C 0.58013 0.82574 0.9906 0.0
C175 C 0.60303 0.78289 0.01857 0.0
H176 H 0.91607 0.19811 0.94439 0.0
C177 C 0.94951 0.18515 0.97047 0.0
H178 H 0.99338 0.21408 0.02583 0.0
H179 H 0.87109 0.45046 0.91187 0.0
H180 H 0.96935 0.441 0.88767 0.0
H181 H 0.05096 0.36123 0.91192 0.0
H182 H 0.03441 0.29066 0.96039 0.0
C183 C 0.96496 0.22711 0.99838 0.0
C184 C 0.93061 0.28733 0.99343 0.0
C185 C 0.94115 0.32873 0.96555 0.0
C186 C 0.89405 0.37435 0.95154 0.0
C187 C 0.90519 0.41452 0.9232 0.0
C188 C 0.96141 0.40972 0.90921 0.0
C189 C 1.00735 0.36485 0.92285 0.0
C190 C 0.99737 0.32456 0.95059 0.0
H191 H 0.77944 0.48002 0.98557 0.0
C192 C 0.7577 0.46471 0.95701 0.0
H193 H 0.75836 0.39646 0.91548 0.0
H194 H 0.90501 0.22553 0.05342 0.0
H195 H 0.80949 0.23733 0.07972 0.0
H196 H 0.72438 0.31268 0.05341 0.0
H197 H 0.73447 0.37698 1.00115 0.0
C198 C 0.78035 0.41356 0.94356 0.0
C199 C 0.83638 0.37812 0.96529 0.0
C200 C 0.82938 0.34122 0.99611 0.0
C201 C 0.87756 0.29662 0.01072 0.0
C202 C 0.86938 0.25956 0.04107 0.0
C203 C 0.8149 0.26594 0.05644 0.0
C204 C 0.76705 0.30844 0.04167 0.0
C205 C 0.77368 0.34543 0.01171 0.0
H206 H 0.63522 0.73742 0.53132 0.0
C207 C 0.67144 0.70189 0.53155 0.0
H208 H 0.77132 0.68168 0.53695 0.0
H209 H 0.87352 0.94935 0.51589 0.0
H210 H 0.83746 0.9249 0.4493 0.0
H211 H 0.76687 0.83367 0.42768 0.0
H212 H 0.73104 0.76682 0.47259 0.0
C213 C 0.73531 0.71721 0.53732 0.0
C214 C 0.76206 0.78004 0.54876 0.0
C215 C 0.78276 0.81832 0.52237 0.0
C216 C 0.82472 0.87004 0.5349 0.0
C217 C 0.84342 0.90837 0.50787 0.0
C218 C 0.82267 0.89509 0.46961 0.0
C219 C 0.78285 0.84375 0.45743 0.0
C220 C 0.76292 0.80564 0.48341 0.0
H221 H 0.96836 0.88499 0.56122 0.0
C222 C 0.96135 0.91975 0.58153 0.0
H223 H 0.89402 0.96338 0.60773 0.0
H224 H 0.72281 0.72148 0.60611 0.0
H225 H 0.75506 0.74784 0.67235 0.0
H226 H 0.82974 0.83597 0.69448 0.0
H227 H 0.87245 0.89815 0.65066 0.0
C228 C 0.90138 0.9277 0.5881 0.0
C229 C 0.84728 0.88219 0.57393 0.0
C230 C 0.82146 0.8473 0.6001 0.0
C231 C 0.77871 0.7962 0.58743 0.0
C232 C 0.75545 0.76071 0.61419 0.0
C233 C 0.77353 0.77536 0.65233 0.0
C234 C 0.81551 0.82499 0.66477 0.0
C235 C 0.8396 0.86048 0.63917 0.0
H236 H 0.64019 0.38038 0.43282 0.0
C237 C 0.67122 0.38684 0.46077 0.0
H238 H 0.75499 0.35749 0.50019 0.0
H239 H 0.72503 0.08827 0.42472 0.0
H240 H 0.62244 0.07999 0.44432 0.0
H241 H 0.57303 0.17181 0.46641 0.0
H242 H 0.62589 0.27247 0.46919 0.0
C243 C 0.72315 0.35028 0.47254 0.0
C244 C 0.74139 0.29931 0.44955 0.0
C245 C 0.70896 0.24111 0.44735 0.0
C246 C 0.73758 0.18806 0.43465 0.0
C247 C 0.70543 0.13007 0.43399 0.0
C248 C 0.64651 0.12465 0.44519 0.0
C249 C 0.6187 0.17636 0.45766 0.0
C250 C 0.64954 0.23394 0.45904 0.0
H251 H 0.91205 0.1583 0.46724 0.0
C252 C 0.89225 0.12503 0.44504 0.0
H253 H 0.81498 0.10234 0.39888 0.0
H254 H 0.80945 0.4057 0.44423 0.0
H255 H 0.9084 0.41528 0.42061 0.0
H256 H 0.95659 0.32373 0.39722 0.0
H257 H 0.90654 0.22194 0.39766 0.0
C258 C 0.83613 0.13662 0.42021 0.0
C259 C 0.79873 0.19342 0.42457 0.0
C260 C 0.82715 0.25275 0.42281 0.0
C261 C 0.79879 0.30563 0.4357 0.0
C262 C 0.82932 0.36406 0.43487 0.0
C263 C 0.88583 0.3702 0.42122 0.0
C264 C 0.913 0.31864 0.40808 0.0
C265 C 0.88413 0.26049 0.40873 0.0
H266 H 0.34434 0.38979 0.53549 0.0
C267 C 0.39671 0.39903 0.54379 0.0
H268 H 0.48688 0.36689 0.57582 0.0
H269 H 0.2442 0.23412 0.64121 0.0
H270 H 0.24225 0.33215 0.67399 0.0
H271 H 0.31467 0.4188 0.66532 0.0
H272 H 0.38929 0.4081 0.62363 0.0
C273 C 0.43397 0.36184 0.56896 0.0
C274 C 0.40326 0.30624 0.58201 0.0
C275 C 0.36066 0.31283 0.60669 0.0
C276 C 0.31923 0.26273 0.61181 0.0
C277 C 0.2764 0.27092 0.6362 0.0
C278 C 0.27499 0.32679 0.65523 0.0
C279 C 0.3157 0.37563 0.65031 0.0
C280 C 0.35801 0.36905 0.62624 0.0
H281 H 0.32581 0.09292 0.6251 0.0
C282 C 0.27793 0.10442 0.60824 0.0
H283 H 0.21945 0.1699 0.57432 0.0
H284 H 0.4882 0.27519 0.5385 0.0
H285 H 0.49421 0.17606 0.508 0.0
H286 H 0.42038 0.08985 0.5152 0.0
H287 H 0.34065 0.10187 0.55312 0.0
C288 C 0.26776 0.1591 0.59105 0.0
C289 C 0.32075 0.20603 0.59237 0.0
C290 C 0.36755 0.19775 0.57023 0.0
C291 C 0.40945 0.24779 0.56549 0.0
C292 C 0.45499 0.2388 0.5428 0.0
C293 C 0.45898 0.18217 0.52515 0.0
C294 C 0.41747 0.1336 0.52926 0.0
C295 C 0.37198 0.14112 0.5513 0.0
H296 H 0.49975 0.74862 0.49554 0.0
C297 C 0.45803 0.71839 0.49536 0.0
H298 H 0.35683 0.71145 0.49291 0.0
H299 H 0.27546 0.97663 0.5185 0.0
H300 H 0.31009 0.95076 0.58475 0.0
H301 H 0.37685 0.85862 0.60463 0.0
H302 H 0.41066 0.7923 0.55841 0.0
C303 C 0.39792 0.74193 0.49202 0.0
C304 C 0.38075 0.80718 0.48266 0.0
C305 C 0.3616 0.8453 0.50975 0.0
C306 C 0.32184 0.89751 0.49822 0.0
C307 C 0.30405 0.93539 0.52589 0.0
C308 C 0.32391 0.92127 0.56388 0.0
C309 C 0.36161 0.86938 0.57509 0.0
C310 C 0.38036 0.83159 0.54842 0.0
H311 H 0.18033 0.9035 0.47324 0.0
C312 C 0.18456 0.93904 0.45304 0.0
H313 H 0.24804 0.98834 0.42643 0.0
H314 H 0.4212 0.75141 0.42448 0.0
H315 H 0.39329 0.78114 0.35911 0.0
H316 H 0.32285 0.8707 0.33877 0.0
H317 H 0.28003 0.93087 0.38359 0.0
C318 C 0.24346 0.95191 0.44593 0.0
C319 C 0.29989 0.91023 0.45945 0.0
C320 C 0.32652 0.87714 0.43286 0.0
C321 C 0.36707 0.82541 0.44454 0.0
C322 C 0.39032 0.79109 0.41722 0.0
C323 C 0.37471 0.80771 0.37956 0.0
C324 C 0.33509 0.85813 0.36811 0.0
C325 C 0.31082 0.89237 0.39425 0.0
H326 H 0.95895 0.95163 0.11999 0.0
C327 C 0.01203 0.95076 0.12749 0.0
H328 H 0.09677 0.95203 0.17154 0.0
H329 H 0.98779 0.10277 0.28742 0.0
H330 H 0.01892 0.18927 0.25285 0.0
H331 H 0.0464 0.17262 0.1914 0.0
H332 H 0.04231 0.06961 0.16399 0.0
C333 C 0.04364 0.95063 0.16387 0.0
C334 C 0.01049 0.96223 0.19498 0.0
C335 C 0.01273 0.0227 0.21042 0.0
C336 C 0.99804 0.0322 0.24607 0.0
C337 C 1.0002 0.09304 0.26082 0.0
C338 C 0.01754 0.14302 0.24117 0.0
C339 C 0.03296 0.13365 0.20656 0.0
C340 C 0.03067 0.07429 0.19122 0.0
H341 H 0.08479 0.00986 0.32019 0.0
C342 C 0.04173 0.00198 0.33148 0.0
H343 H 0.94194 0.97478 0.31775 0.0
H344 H 0.98918 0.84339 0.16948 0.0
H345 H 0.95217 0.75764 0.20241 0.0
H346 H 0.92848 0.77342 0.26487 0.0
H347 H 0.94141 0.87478 0.29486 0.0
C348 C 0.98464 0.98788 0.30739 0.0
C349 C 0.98257 0.98102 0.26651 0.0
C350 C 0.97306 0.92169 0.24912 0.0
C351 C 0.9871 0.91236 0.21319 0.0
C352 C 0.97941 0.85253 0.19682 0.0
C353 C 0.95812 0.80313 0.21535 0.0
C354 C 0.94475 0.81203 0.25054 0.0
C355 C 0.95237 0.87045 0.26746 0.0
H356 H 0.14177 0.93838 0.91239 0.0
C357 C 0.08904 0.93954 0.90204 0.0
H358 H 0.01094 0.94594 0.85443 0.0
H359 H 0.15068 0.09502 0.75223 0.0
H360 H 0.11735 0.18155 0.78624 0.0
H361 H 0.07791 0.16432 0.84404 0.0
H362 H 0.07182 0.06071 0.86828 0.0
C363 C 0.06344 0.94179 0.86488 0.0
C364 C 0.10384 0.95337 0.83715 0.0
C365 C 0.10775 0.01419 0.82369 0.0
C366 C 0.12971 0.02411 0.79023 0.0
C367 C 0.13297 0.08517 0.77719 0.0
C368 C 0.1144 0.13509 0.79653 0.0
C369 C 0.09223 0.12539 0.82909 0.0
C370 C 0.08874 0.06572 0.84262 0.0
H371 H 0.04973 0.00147 0.71447 0.0
C372 C 0.09414 0.99381 0.70455 0.0
H373 H 0.19309 0.96711 0.72079 0.0
H374 H 0.11495 0.83369 0.86014 0.0
H375 H 0.15649 0.74841 0.82891 0.0
H376 H 0.19454 0.76537 0.77065 0.0
H377 H 0.19124 0.86751 0.74316 0.0
C378 C 0.14932 0.98021 0.72988 0.0
C379 C 0.1467 0.97311 0.77005 0.0
C380 C 0.15096 0.91348 0.78621 0.0
C381 C 0.12903 0.90356 0.8198 0.0
C382 C 0.13089 0.84331 0.8346 0.0
C383 C 0.15467 0.79416 0.817 0.0
C384 C 0.17618 0.80375 0.78421 0.0
C385 C 0.17403 0.86255 0.76871 0.0
H386 H 0.49715 0.48058 0.62465 0.0
C387 C 0.54976 0.47939 0.62744 0.0
H388 H 0.64271 0.4829 0.66433 0.0
H389 H 0.58732 0.6379 0.79501 0.0
H390 H 0.63656 0.71579 0.76224 0.0
H391 H 0.65407 0.69476 0.69884 0.0
H392 H 0.62214 0.59605 0.66778 0.0
C393 C 0.59012 0.48162 0.66176 0.0
C394 C 0.56741 0.49735 0.69638 0.0
C395 C 0.58609 0.55542 0.71407 0.0
C396 C 0.57676 0.56736 0.75074 0.0
C397 C 0.59508 0.62599 0.76756 0.0
C398 C 0.62287 0.67122 0.74895 0.0
C399 C 0.63268 0.65939 0.71326 0.0
C400 C 0.61447 0.60236 0.69584 0.0
H401 H 0.65769 0.5247 0.8224 0.0
C402 C 0.61523 0.52826 0.83466 0.0
H403 H 0.51167 0.52574 0.82233 0.0
H404 H 0.51716 0.38498 0.6682 0.0
H405 H 0.46039 0.31067 0.69914 0.0
H406 H 0.44389 0.33162 0.76275 0.0
H407 H 0.48407 0.42716 0.79585 0.0
C408 C 0.55552 0.52701 0.81134 0.0
C409 C 0.54985 0.52083 0.76998 0.0
C410 C 0.52461 0.46548 0.7507 0.0
C411 C 0.53375 0.4535 0.71384 0.0
C412 C 0.51078 0.39673 0.69592 0.0
C413 C 0.47832 0.35359 0.71344 0.0
C414 C 0.46901 0.3654 0.74927 0.0
C415 C 0.49228 0.42039 0.76795 0.0
H416 H 0.58049 0.47745 0.38445 0.0
C417 C 0.53008 0.49003 0.38317 0.0
H418 H 0.44123 0.5203 0.34907 0.0
H419 H 0.53758 0.6477 0.22082 0.0
H420 H 0.51978 0.73703 0.25773 0.0
H421 H 0.49986 0.72443 0.32123 0.0
H422 H 0.4981 0.6226 0.3483 0.0
C423 C 0.49064 0.50483 0.35001 0.0
C424 C 0.51423 0.51208 0.3148 0.0
C425 C 0.51546 0.57196 0.29942 0.0
C426 C 0.5262 0.57927 0.26268 0.0
C427 C 0.52795 0.6396 0.24824 0.0
C428 C 0.5183 0.69124 0.26922 0.0
C429 C 0.50714 0.68415 0.30498 0.0
C430 C 0.50589 0.62538 0.32009 0.0
H431 H 0.43467 0.56035 0.18812 0.0
C432 C 0.47634 0.54888 0.1764 0.0
H433 H 0.57317 0.51594 0.18927 0.0
H434 H 0.52067 0.39132 0.33702 0.0
H435 H 0.5434 0.30284 0.30119 0.0
H436 H 0.56284 0.31558 0.23763 0.0
H437 H 0.55954 0.41687 0.20948 0.0
C438 C 0.53239 0.53255 0.20011 0.0
C439 C 0.53477 0.52664 0.24108 0.0
C440 C 0.53903 0.46725 0.25763 0.0
C441 C 0.52831 0.45988 0.29447 0.0
C442 C 0.52952 0.39973 0.3095 0.0
C443 C 0.54228 0.34846 0.28916 0.0
C444 C 0.5532 0.35564 0.25336 0.0
C445 C 0.55124 0.41413 0.23754 0.0
loop_
_geom_bond_atom_site_label_1
_geom_bond_atom_site_label_2
_geom_bond_distance
_geom_bond_site_symmetry_2
_ccdc_geom_bond_type
Zn0 O6 1.920 1_545 S
Zn0 O12 1.898 . S
Zn0 O15 1.905 1_545 S
Zn1 O9 1.905 . S
Zn1 O10 1.898 1_545 S
Zn1 O18 1.920 1_545 S
Zn2 O5 2.080 1_445 S
Zn2 O8 2.114 . S
Zn2 O11 2.120 1_545 S
Zn2 O13 2.120 1_455 S
Zn2 O14 2.114 1_554 S
Zn2 O17 2.080 . S
C3 O8 1.166 . S
C3 O9 1.182 . S
C4 O10 1.167 . S
C4 O11 1.299 . S
O5 Zn2 2.080 1_665 S
O5 C19 1.305 . S
O6 Zn0 1.920 1_565 S
O6 C19 1.234 1_556 S
C7 O12 1.167 . S
C7 O13 1.299 1_556 S
O8 Zn2 2.114 . S
O8 C3 1.166 . S
O9 Zn1 1.905 . S
O9 C3 1.182 . S
O10 Zn1 1.898 1_565 S
O10 C4 1.167 . S
O11 Zn2 2.120 1_565 S
O11 C4 1.299 . S
O12 Zn0 1.898 . S
O12 C7 1.167 . S
O13 Zn2 2.120 1_655 S
O13 C7 1.299 1_554 S
O14 Zn2 2.114 1_556 S
O14 C16 1.171 1_545 S
O15 Zn0 1.905 1_565 S
O15 C16 1.173 1_655 S
C16 O14 1.171 1_565 S
C16 O15 1.173 1_455 S
O17 Zn2 2.080 . S
O17 C20 1.305 1_545 S
O18 Zn1 1.920 1_565 S
O18 C20 1.234 . S
C19 O5 1.305 . S
C19 O6 1.234 1_554 S
C20 O17 1.305 1_565 S
C20 O18 1.234 . S
Zn21 O27 1.920 . S
Zn21 O33 1.898 . S
Zn21 O36 1.905 . S
Zn22 O30 1.905 . S
Zn22 O31 1.898 . S
Zn22 O39 1.920 . S
Zn23 O26 2.080 . S
Zn23 O29 2.114 . S
Zn23 O32 2.120 . S
Zn23 O34 2.120 . S
Zn23 O35 2.114 . S
Zn23 O38 2.080 . S
C24 O29 1.166 . S
C24 O30 1.182 . S
C25 O31 1.167 . S
C25 O32 1.299 . S
O26 Zn23 2.080 . S
O26 C40 1.305 . S
O27 Zn21 1.920 . S
O27 C40 1.234 . S
C28 O33 1.167 . S
C28 O34 1.299 . S
O29 Zn23 2.114 . S
O29 C24 1.166 . S
O30 Zn22 1.905 . S
O30 C24 1.182 . S
O31 Zn22 1.898 . S
O31 C25 1.167 . S
O32 Zn23 2.120 . S
O32 C25 1.299 . S
O33 Zn21 1.898 . S
O33 C28 1.167 . S
O34 Zn23 2.120 . S
O34 C28 1.299 . S
O35 Zn23 2.114 . S
O35 C37 1.166 . S
O36 Zn21 1.905 . S
O36 C37 1.182 . S
C37 O35 1.166 . S
C37 O36 1.182 . S
O38 Zn23 2.080 . S
O38 C41 1.305 . S
O39 Zn22 1.920 . S
O39 C41 1.234 . S
C40 O26 1.305 . S
C40 O27 1.234 . S
C41 O38 1.305 . S
C41 O39 1.234 . S
H42 C45 0.929 . S
H43 C48 0.929 . S
H44 C50 0.930 1_565 S
C45 H42 0.929 . S
C45 C46 1.398 . S
C45 C47 1.396 1_565 S
C46 C45 1.398 . S
C46 C50 1.407 1_565 S
C47 C45 1.396 1_545 S
C47 C48 1.394 . S
C48 H43 0.929 . S
C48 C47 1.394 . S
C48 C49 1.382 . S
C49 C48 1.382 . S
C49 C50 1.392 . S
C49 N51 1.420 . S
C50 H44 0.930 1_545 S
C50 C46 1.407 1_545 S
C50 C49 1.392 . S
N51 C49 1.420 . S
N51 C52 1.244 . S
C52 N51 1.244 . S
H53 C56 0.929 . S
H54 C59 0.929 . S
H55 C61 0.929 1_565 S
C56 H53 0.929 . S
C56 C57 1.398 . S
C56 C58 1.396 1_565 S
C57 C56 1.398 . S
C57 C61 1.405 1_565 S
C58 C56 1.396 1_545 S
C58 C59 1.394 1_655 S
C59 H54 0.929 . S
C59 C58 1.394 1_455 S
C59 C60 1.382 . S
C60 C59 1.382 . S
C60 C61 1.395 1_455 S
C60 N62 1.420 . S
C61 H55 0.929 1_545 S
C61 C57 1.405 1_545 S
C61 C60 1.395 1_655 S
N62 C60 1.420 . S
N62 C63 1.244 . S
C63 N62 1.244 . S
H64 C67 0.929 . S
H65 C70 0.929 . S
H66 C72 0.930 . S
C67 H64 0.929 . S
C67 C68 1.398 . S
C67 C69 1.396 . S
C68 C67 1.398 . S
C68 C72 1.407 . S
C69 C67 1.396 . S
C69 C70 1.394 . S
C70 H65 0.929 . S
C70 C69 1.394 . S
C70 C71 1.382 . S
C71 C70 1.382 . S
C71 C72 1.392 . S
C71 N73 1.420 . S
C72 H66 0.930 . S
C72 C68 1.407 . S
C72 C71 1.392 . S
N73 C71 1.420 . S
N73 C74 1.244 . S
C74 N73 1.244 . S
H75 C78 0.929 . S
H76 C81 0.929 . S
H77 C83 0.930 . S
C78 H75 0.929 . S
C78 C79 1.398 . S
C78 C80 1.396 . S
C79 C78 1.398 . S
C79 C83 1.407 . S
C80 C78 1.396 . S
C80 C81 1.394 . S
C81 H76 0.929 . S
C81 C80 1.394 . S
C81 C82 1.382 . S
C82 C81 1.382 . S
C82 C83 1.392 . S
C82 N84 1.420 . S
C83 H77 0.930 . S
C83 C79 1.407 . S
C83 C82 1.392 . S
N84 C82 1.420 . S
N84 C85 1.244 . S
C85 N84 1.244 . S
H86 C87 0.951 . S
C87 H86 0.951 . S
C87 C93 1.265 . S
H88 C93 0.950 . S
H89 C97 0.949 . S
H90 C98 0.950 . S
H91 C99 0.951 . S
H92 C100 0.951 . S
C93 C87 1.265 . S
C93 H88 0.950 . S
C93 C94 1.478 . S
C94 C93 1.478 . S
C94 C95 1.397 . S
C94 C111 1.394 . S
C95 C94 1.397 . S
C95 C96 1.438 . S
C95 C100 1.429 . S
C96 C95 1.438 . S
C96 C97 1.428 . S
C96 C109 1.394 . S
C97 H89 0.949 . S
C97 C96 1.428 . S
C97 C98 1.345 . S
C98 H90 0.950 . S
C98 C97 1.345 . S
C98 C99 1.424 . S
C99 H91 0.951 . S
C99 C98 1.424 . S
C99 C100 1.347 . S
C100 H92 0.951 . S
C100 C95 1.429 . S
C100 C99 1.347 . S
H101 C102 0.951 . S
C102 H101 0.951 . S
C102 C108 1.265 . S
H103 C108 0.950 . S
H104 C112 0.949 . S
H105 C113 0.950 . S
H106 C114 0.951 . S
H107 C115 0.951 . S
C108 C102 1.265 . S
C108 H103 0.950 . S
C108 C109 1.478 . S
C109 C96 1.394 . S
C109 C108 1.478 . S
C109 C110 1.397 . S
C110 C109 1.397 . S
C110 C111 1.438 . S
C110 C115 1.429 . S
C111 C94 1.394 . S
C111 C110 1.438 . S
C111 C112 1.428 1_554 S
C112 H104 0.949 . S
C112 C111 1.428 1_556 S
C112 C113 1.345 . S
C113 H105 0.950 . S
C113 C112 1.345 . S
C113 C114 1.424 . S
C114 H106 0.951 . S
C114 C113 1.424 . S
C114 C115 1.347 1_556 S
C115 H107 0.951 . S
C115 C110 1.429 . S
C115 C114 1.347 1_554 S
H116 C117 0.951 . S
C117 H116 0.951 . S
C117 C123 1.265 1_556 S
H118 C123 0.950 . S
H119 C127 0.949 . S
H120 C128 0.950 . S
H121 C129 0.951 . S
H122 C130 0.951 . S
C123 C117 1.265 1_554 S
C123 H118 0.950 . S
C123 C124 1.478 1_554 S
C124 C123 1.478 1_556 S
C124 C125 1.397 1_556 S
C124 C141 1.394 . S
C125 C124 1.397 1_554 S
C125 C126 1.438 1_554 S
C125 C130 1.429 . S
C126 C125 1.438 1_556 S
C126 C127 1.428 1_556 S
C126 C139 1.394 . S
C127 H119 0.949 . S
C127 C126 1.428 1_554 S
C127 C128 1.345 . S
C128 H120 0.950 . S
C128 C127 1.345 . S
C128 C129 1.424 . S
C129 H121 0.951 . S
C129 C128 1.424 . S
C129 C130 1.347 . S
C130 H122 0.951 . S
C130 C125 1.429 . S
C130 C129 1.347 . S
H131 C132 0.951 . S
C132 H131 0.951 . S
C132 C138 1.265 . S
H133 C138 0.950 . S
H134 C142 0.949 . S
H135 C143 0.950 . S
H136 C144 0.951 . S
H137 C145 0.951 . S
C138 C132 1.265 . S
C138 H133 0.950 . S
C138 C139 1.478 . S
C139 C126 1.394 . S
C139 C138 1.478 . S
C139 C140 1.397 . S
C140 C139 1.397 . S
C140 C141 1.438 . S
C140 C145 1.429 . S
C141 C124 1.394 . S
C141 C140 1.438 . S
C141 C142 1.428 . S
C142 H134 0.949 . S
C142 C141 1.428 . S
C142 C143 1.345 . S
C143 H135 0.950 . S
C143 C142 1.345 . S
C143 C144 1.424 . S
C144 H136 0.951 . S
C144 C143 1.424 . S
C144 C145 1.347 . S
C145 H137 0.951 . S
C145 C140 1.429 . S
C145 C144 1.347 . S
H146 C147 0.951 . S
C147 H146 0.951 . S
C147 C153 1.265 . S
H148 C153 0.950 . S
H149 C157 0.949 . S
H150 C158 0.950 . S
H151 C159 0.951 . S
H152 C160 0.951 . S
C153 C147 1.265 . S
C153 H148 0.950 . S
C153 C154 1.478 . S
C154 C153 1.478 . S
C154 C155 1.397 . S
C154 C171 1.394 . S
C155 C154 1.397 . S
C155 C156 1.438 . S
C155 C160 1.429 . S
C156 C155 1.438 . S
C156 C157 1.428 . S
C156 C169 1.394 . S
C157 H149 0.949 . S
C157 C156 1.428 . S
C157 C158 1.345 . S
C158 H150 0.950 . S
C158 C157 1.345 . S
C158 C159 1.424 . S
C159 H151 0.951 . S
C159 C158 1.424 . S
C159 C160 1.347 . S
C160 H152 0.951 . S
C160 C155 1.429 . S
C160 C159 1.347 . S
H161 C162 0.951 . S
C162 H161 0.951 . S
C162 C168 1.265 . S
H163 C168 0.950 . S
H164 C172 0.949 . S
H165 C173 0.950 . S
H166 C174 0.951 . S
H167 C175 0.951 . S
C168 C162 1.265 . S
C168 H163 0.950 . S
C168 C169 1.478 . S
C169 C156 1.394 . S
C169 C168 1.478 . S
C169 C170 1.397 . S
C170 C169 1.397 . S
C170 C171 1.438 . S
C170 C175 1.429 1_554 S
C171 C154 1.394 . S
C171 C170 1.438 . S
C171 C172 1.428 1_554 S
C172 H164 0.949 . S
C172 C171 1.428 1_556 S
C172 C173 1.345 . S
C173 H165 0.950 . S
C173 C172 1.345 . S
C173 C174 1.424 . S
C174 H166 0.951 . S
C174 C173 1.424 . S
C174 C175 1.347 . S
C175 H167 0.951 . S
C175 C170 1.429 1_556 S
C175 C174 1.347 . S
H176 C177 0.951 . S
C177 H176 0.951 . S
C177 C183 1.265 . S
H178 C183 0.950 . S
H179 C187 0.949 . S
H180 C188 0.950 . S
H181 C189 0.951 . S
H182 C190 0.951 . S
C183 C177 1.265 . S
C183 H178 0.950 . S
C183 C184 1.478 . S
C184 C183 1.478 . S
C184 C185 1.397 . S
C184 C201 1.394 . S
C185 C184 1.397 . S
C185 C186 1.438 . S
C185 C190 1.429 . S
C186 C185 1.438 . S
C186 C187 1.428 . S
C186 C199 1.394 . S
C187 H179 0.949 . S
C187 C186 1.428 . S
C187 C188 1.345 . S
C188 H180 0.950 . S
C188 C187 1.345 . S
C188 C189 1.424 . S
C189 H181 0.951 . S
C189 C188 1.424 . S
C189 C190 1.347 . S
C190 H182 0.951 . S
C190 C185 1.429 . S
C190 C189 1.347 . S
H191 C192 0.951 . S
C192 H191 0.951 . S
C192 C198 1.265 . S
H193 C198 0.950 . S
H194 C202 0.949 . S
H195 C203 0.950 . S
H196 C204 0.951 . S
H197 C205 0.951 . S
C198 C192 1.265 . S
C198 H193 0.950 . S
C198 C199 1.478 . S
C199 C186 1.394 . S
C199 C198 1.478 . S
C199 C200 1.397 . S
C200 C199 1.397 . S
C200 C201 1.438 . S
C200 C205 1.429 1_556 S
C201 C184 1.394 . S
C201 C200 1.438 . S
C201 C202 1.428 1_556 S
C202 H194 0.949 . S
C202 C201 1.428 1_554 S
C202 C203 1.345 . S
C203 H195 0.950 . S
C203 C202 1.345 . S
C203 C204 1.424 . S
C204 H196 0.951 . S
C204 C203 1.424 . S
C204 C205 1.347 . S
C205 H197 0.951 . S
C205 C200 1.429 1_554 S
C205 C204 1.347 . S
H206 C207 0.951 . S
C207 H206 0.951 . S
C207 C213 1.265 . S
H208 C213 0.950 . S
H209 C217 0.949 . S
H210 C218 0.950 . S
H211 C219 0.951 . S
H212 C220 0.951 . S
C213 C207 1.265 . S
C213 H208 0.950 . S
C213 C214 1.478 . S
C214 C213 1.478 . S
C214 C215 1.397 . S
C214 C231 1.394 . S
C215 C214 1.397 . S
C215 C216 1.438 . S
C215 C220 1.429 . S
C216 C215 1.438 . S
C216 C217 1.428 . S
C216 C229 1.394 . S
C217 H209 0.949 . S
C217 C216 1.428 . S
C217 C218 1.345 . S
C218 H210 0.950 . S
C218 C217 1.345 . S
C218 C219 1.424 . S
C219 H211 0.951 . S
C219 C218 1.424 . S
C219 C220 1.347 . S
C220 H212 0.951 . S
C220 C215 1.429 . S
C220 C219 1.347 . S
H221 C222 0.951 . S
C222 H221 0.951 . S
C222 C228 1.265 . S
H223 C228 0.950 . S
H224 C232 0.949 . S
H225 C233 0.950 . S
H226 C234 0.951 . S
H227 C235 0.951 . S
C228 C222 1.265 . S
C228 H223 0.950 . S
C228 C229 1.478 . S
C229 C216 1.394 . S
C229 C228 1.478 . S
C229 C230 1.397 . S
C230 C229 1.397 . S
C230 C231 1.438 . S
C230 C235 1.429 . S
C231 C214 1.394 . S
C231 C230 1.438 . S
C231 C232 1.428 . S
C232 H224 0.949 . S
C232 C231 1.428 . S
C232 C233 1.345 . S
C233 H225 0.950 . S
C233 C232 1.345 . S
C233 C234 1.424 . S
C234 H226 0.951 . S
C234 C233 1.424 . S
C234 C235 1.347 . S
C235 H227 0.951 . S
C235 C230 1.429 . S
C235 C234 1.347 . S
H236 C237 0.951 . S
C237 H236 0.951 . S
C237 C243 1.265 . S
H238 C243 0.950 . S
H239 C247 0.949 . S
H240 C248 0.950 . S
H241 C249 0.951 . S
H242 C250 0.951 . S
C243 C237 1.265 . S
C243 H238 0.950 . S
C243 C244 1.478 . S
C244 C243 1.478 . S
C244 C245 1.397 . S
C244 C261 1.394 . S
C245 C244 1.397 . S
C245 C246 1.438 . S
C245 C250 1.429 . S
C246 C245 1.438 . S
C246 C247 1.428 . S
C246 C259 1.394 . S
C247 H239 0.949 . S
C247 C246 1.428 . S
C247 C248 1.345 . S
C248 H240 0.950 . S
C248 C247 1.345 . S
C248 C249 1.424 . S
C249 H241 0.951 . S
C249 C248 1.424 . S
C249 C250 1.347 . S
C250 H242 0.951 . S
C250 C245 1.429 . S
C250 C249 1.347 . S
H251 C252 0.951 . S
C252 H251 0.951 . S
C252 C258 1.265 . S
H253 C258 0.950 . S
H254 C262 0.949 . S
H255 C263 0.950 . S
H256 C264 0.951 1_455 S
H257 C265 0.951 . S
C258 C252 1.265 . S
C258 H253 0.950 . S
C258 C259 1.478 . S
C259 C246 1.394 . S
C259 C258 1.478 . S
C259 C260 1.397 . S
C260 C259 1.397 . S
C260 C261 1.438 . S
C260 C265 1.429 . S
C261 C244 1.394 . S
C261 C260 1.438 . S
C261 C262 1.428 . S
C262 H254 0.949 . S
C262 C261 1.428 . S
C262 C263 1.345 . S
C263 H255 0.950 . S
C263 C262 1.345 . S
C263 C264 1.424 . S
C264 H256 0.951 1_655 S
C264 C263 1.424 . S
C264 C265 1.347 . S
C265 H257 0.951 . S
C265 C260 1.429 . S
C265 C264 1.347 . S
H266 C267 0.951 . S
C267 H266 0.951 . S
C267 C273 1.265 . S
H268 C273 0.950 . S
H269 C277 0.949 . S
H270 C278 0.950 . S
H271 C279 0.951 . S
H272 C280 0.951 . S
C273 C267 1.265 . S
C273 H268 0.950 . S
C273 C274 1.478 . S
C274 C273 1.478 . S
C274 C275 1.397 . S
C274 C291 1.394 . S
C275 C274 1.397 . S
C275 C276 1.438 . S
C275 C280 1.429 . S
C276 C275 1.438 . S
C276 C277 1.428 . S
C276 C289 1.394 . S
C277 H269 0.949 . S
C277 C276 1.428 . S
C277 C278 1.345 . S
C278 H270 0.950 . S
C278 C277 1.345 . S
C278 C279 1.424 . S
C279 H271 0.951 . S
C279 C278 1.424 . S
C279 C280 1.347 . S
C280 H272 0.951 . S
C280 C275 1.429 . S
C280 C279 1.347 . S
H281 C282 0.951 . S
C282 H281 0.951 . S
C282 C288 1.265 . S
H283 C288 0.950 . S
H284 C292 0.949 . S
H285 C293 0.950 . S
H286 C294 0.951 . S
H287 C295 0.951 . S
C288 C282 1.265 . S
C288 H283 0.950 . S
C288 C289 1.478 . S
C289 C276 1.394 . S
C289 C288 1.478 . S
C289 C290 1.397 . S
C290 C289 1.397 . S
C290 C291 1.438 . S
C290 C295 1.429 . S
C291 C274 1.394 . S
C291 C290 1.438 . S
C291 C292 1.428 . S
C292 H284 0.949 . S
C292 C291 1.428 . S
C292 C293 1.345 . S
C293 H285 0.950 . S
C293 C292 1.345 . S
C293 C294 1.424 . S
C294 H286 0.951 . S
C294 C293 1.424 . S
C294 C295 1.347 . S
C295 H287 0.951 . S
C295 C290 1.429 . S
C295 C294 1.347 . S
H296 C297 0.951 . S
C297 H296 0.951 . S
C297 C303 1.265 . S
H298 C303 0.950 . S
H299 C307 0.949 . S
H300 C308 0.950 . S
H301 C309 0.951 . S
H302 C310 0.951 . S
C303 C297 1.265 . S
C303 H298 0.950 . S
C303 C304 1.478 . S
C304 C303 1.478 . S
C304 C305 1.397 . S
C304 C321 1.394 . S
C305 C304 1.397 . S
C305 C306 1.438 . S
C305 C310 1.429 . S
C306 C305 1.438 . S
C306 C307 1.428 . S
C306 C319 1.394 . S
C307 H299 0.949 . S
C307 C306 1.428 . S
C307 C308 1.345 . S
C308 H300 0.950 . S
C308 C307 1.345 . S
C308 C309 1.424 . S
C309 H301 0.951 . S
C309 C308 1.424 . S
C309 C310 1.347 . S
C310 H302 0.951 . S
C310 C305 1.429 . S
C310 C309 1.347 . S
H311 C312 0.951 . S
C312 H311 0.951 . S
C312 C318 1.265 . S
H313 C318 0.950 . S
H314 C322 0.949 . S
H315 C323 0.950 . S
H316 C324 0.951 . S
H317 C325 0.951 . S
C318 C312 1.265 . S
C318 H313 0.950 . S
C318 C319 1.478 . S
C319 C306 1.394 . S
C319 C318 1.478 . S
C319 C320 1.397 . S
C320 C319 1.397 . S
C320 C321 1.438 . S
C320 C325 1.429 . S
C321 C304 1.394 . S
C321 C320 1.438 . S
C321 C322 1.428 . S
C322 H314 0.949 . S
C322 C321 1.428 . S
C322 C323 1.345 . S
C323 H315 0.950 . S
C323 C322 1.345 . S
C323 C324 1.424 . S
C324 H316 0.951 . S
C324 C323 1.424 . S
C324 C325 1.347 . S
C325 H317 0.951 . S
C325 C320 1.429 . S
C325 C324 1.347 . S
H326 C327 0.951 . S
C327 H326 0.951 . S
C327 C333 1.265 . S
H328 C333 0.950 . S
H329 C337 0.949 . S
H330 C338 0.950 . S
H331 C339 0.951 . S
H332 C340 0.951 . S
C333 C327 1.265 . S
C333 H328 0.950 . S
C333 C334 1.478 1_565 S
C334 C333 1.478 1_545 S
C334 C335 1.397 . S
C334 C351 1.394 1_545 S
C335 C334 1.397 . S
C335 C336 1.438 . S
C335 C340 1.429 . S
C336 C335 1.438 . S
C336 C337 1.428 . S
C336 C349 1.394 . S
C337 H329 0.949 . S
C337 C336 1.428 . S
C337 C338 1.345 . S
C338 H330 0.950 . S
C338 C337 1.345 . S
C338 C339 1.424 . S
C339 H331 0.951 . S
C339 C338 1.424 . S
C339 C340 1.347 . S
C340 H332 0.951 . S
C340 C335 1.429 . S
C340 C339 1.347 . S
H341 C342 0.951 . S
C342 H341 0.951 . S
C342 C348 1.265 . S
H343 C348 0.950 . S
H344 C352 0.949 . S
H345 C353 0.950 . S
H346 C354 0.951 1_655 S
H347 C355 0.951 . S
C348 C342 1.265 . S
C348 H343 0.950 . S
C348 C349 1.478 . S
C349 C336 1.394 . S
C349 C348 1.478 . S
C349 C350 1.397 1_545 S
C350 C349 1.397 1_565 S
C350 C351 1.438 . S
C350 C355 1.429 . S
C351 C334 1.394 1_565 S
C351 C350 1.438 . S
C351 C352 1.428 . S
C352 H344 0.949 . S
C352 C351 1.428 . S
C352 C353 1.345 . S
C353 H345 0.950 . S
C353 C352 1.345 . S
C353 C354 1.424 . S
C354 H346 0.951 1_455 S
C354 C353 1.424 . S
C354 C355 1.347 . S
C355 H347 0.951 . S
C355 C350 1.429 . S
C355 C354 1.347 . S
H356 C357 0.951 . S
C357 H356 0.951 . S
C357 C363 1.265 1_455 S
H358 C363 0.950 1_545 S
H359 C367 0.949 . S
H360 C368 0.950 . S
H361 C369 0.951 . S
H362 C370 0.951 . S
C363 C357 1.265 1_655 S
C363 H358 0.950 1_565 S
C363 C364 1.479 1_565 S
C364 C363 1.479 1_545 S
C364 C365 1.413 . S
C364 C381 1.377 1_645 S
C365 C364 1.413 . S
C365 C366 1.438 . S
C365 C370 1.429 . S
C366 C365 1.438 . S
C366 C367 1.428 . S
C366 C379 1.394 1_655 S
C367 H359 0.949 . S
C367 C366 1.428 . S
C367 C368 1.345 . S
C368 H360 0.950 . S
C368 C367 1.345 . S
C368 C369 1.424 . S
C369 H361 0.951 . S
C369 C368 1.424 . S
C369 C370 1.347 . S
C370 H362 0.951 . S
C370 C365 1.429 . S
C370 C369 1.347 . S
H371 C372 0.951 . S
C372 H371 0.951 . S
C372 C378 1.265 1_655 S
H373 C378 0.950 . S
H374 C382 0.949 . S
H375 C383 0.950 . S
H376 C384 0.951 . S
H377 C385 0.951 . S
C378 C372 1.265 1_455 S
C378 H373 0.950 . S
C378 C379 1.478 . S
C379 C366 1.394 1_455 S
C379 C378 1.478 . S
C379 C380 1.397 1_545 S
C380 C379 1.397 1_565 S
C380 C381 1.438 . S
C380 C385 1.429 . S
C381 C364 1.377 1_465 S
C381 C380 1.438 . S
C381 C382 1.428 . S
C382 H374 0.949 . S
C382 C381 1.428 . S
C382 C383 1.345 . S
C383 H375 0.950 . S
C383 C382 1.345 . S
C383 C384 1.424 . S
C384 H376 0.951 . S
C384 C383 1.424 . S
C384 C385 1.347 . S
C385 H377 0.951 . S
C385 C380 1.429 . S
C385 C384 1.347 . S
H386 C387 0.951 . S
C387 H386 0.951 . S
C387 C393 1.265 . S
H388 C393 0.950 . S
H389 C397 0.949 . S
H390 C398 0.950 . S
H391 C399 0.951 . S
H392 C400 0.951 . S
C393 C387 1.265 . S
C393 H388 0.950 . S
C393 C394 1.478 . S
C394 C393 1.478 . S
C394 C395 1.397 . S
C394 C411 1.394 . S
C395 C394 1.397 . S
C395 C396 1.438 . S
C395 C400 1.429 . S
C396 C395 1.438 . S
C396 C397 1.428 . S
C396 C409 1.394 . S
C397 H389 0.949 . S
C397 C396 1.428 . S
C397 C398 1.345 . S
C398 H390 0.950 . S
C398 C397 1.345 . S
C398 C399 1.424 . S
C399 H391 0.951 . S
C399 C398 1.424 . S
C399 C400 1.347 . S
C400 H392 0.951 . S
C400 C395 1.429 . S
C400 C399 1.347 . S
H401 C402 0.951 . S
C402 H401 0.951 . S
C402 C408 1.265 . S
H403 C408 0.950 . S
H404 C412 0.949 . S
H405 C413 0.950 . S
H406 C414 0.951 . S
H407 C415 0.951 . S
C408 C402 1.265 . S
C408 H403 0.950 . S
C408 C409 1.478 . S
C409 C396 1.394 . S
C409 C408 1.478 . S
C409 C410 1.397 . S
C410 C409 1.397 . S
C410 C411 1.438 . S
C410 C415 1.429 . S
C411 C394 1.394 . S
C411 C410 1.438 . S
C411 C412 1.428 . S
C412 H404 0.949 . S
C412 C411 1.428 . S
C412 C413 1.345 . S
C413 H405 0.950 . S
C413 C412 1.345 . S
C413 C414 1.424 . S
C414 H406 0.951 . S
C414 C413 1.424 . S
C414 C415 1.347 . S
C415 H407 0.951 . S
C415 C410 1.429 . S
C415 C414 1.347 . S
H416 C417 0.951 . S
C417 H416 0.951 . S
C417 C423 1.265 . S
H418 C423 0.950 . S
H419 C427 0.949 . S
H420 C428 0.950 . S
H421 C429 0.951 . S
H422 C430 0.951 . S
C423 C417 1.265 . S
C423 H418 0.950 . S
C423 C424 1.478 . S
C424 C423 1.478 . S
C424 C425 1.397 . S
C424 C441 1.394 . S
C425 C424 1.397 . S
C425 C426 1.438 . S
C425 C430 1.429 . S
C426 C425 1.438 . S
C426 C427 1.428 . S
C426 C439 1.394 . S
C427 H419 0.949 . S
C427 C426 1.428 . S
C427 C428 1.345 . S
C428 H420 0.950 . S
C428 C427 1.345 . S
C428 C429 1.424 . S
C429 H421 0.951 . S
C429 C428 1.424 . S
C429 C430 1.347 . S
C430 H422 0.951 . S
C430 C425 1.429 . S
C430 C429 1.347 . S
H431 C432 0.951 . S
C432 H431 0.951 . S
C432 C438 1.265 . S
H433 C438 0.950 . S
H434 C442 0.949 . S
H435 C443 0.950 . S
H436 C444 0.951 . S
H437 C445 0.951 . S
C438 C432 1.265 . S
C438 H433 0.950 . S
C438 C439 1.478 . S
C439 C426 1.394 . S
C439 C438 1.478 . S
C439 C440 1.397 . S
C440 C439 1.397 . S
C440 C441 1.438 . S
C440 C445 1.429 . S
C441 C424 1.394 . S
C441 C440 1.438 . S
C441 C442 1.428 . S
C442 H434 0.949 . S
C442 C441 1.428 . S
C442 C443 1.345 . S
C443 H435 0.950 . S
C443 C442 1.345 . S
C443 C444 1.424 . S
C444 H436 0.951 . S
C444 C443 1.424 . S
C444 C445 1.347 . S
C445 H437 0.951 . S
C445 C440 1.429 . S
C445 C444 1.347 . S
C102 C79 1.326 . S
C87 C3 1.129 . S
C117 C4 1.495 1_556 S
C132 C74 1.539 . S
C147 C19 1.436 . S
C162 C85 1.543 . S
C177 C7 1.128 . S
C192 C68 1.334 . S
C207 C37 1.255 . S
C222 C57 1.315 . S
C237 C28 1.443 . S
C252 C52 1.538 1_655 S
C282 C63 1.504 . S
C267 C41 1.426 . S
C312 C46 1.311 . S
C297 C25 1.277 . S
C327 C20 1.416 . S
C342 C47 1.474 . S
C357 C16 1.465 . S
C372 C58 1.518 . S
C402 C69 1.459 . S
C387 C40 1.388 . S
C417 C24 1.455 . S
C432 C80 1.514 . S
