# Generated by pormake.
# Topology bpr, (3,3)-cn, num edge types: 1
# Building blocks:
#     Node 0, Type 0, BuildingBlock: OLANEW_clean_sbu_2, # of connection points: 3
#     Node 1, Type 0, BuildingBlock: OLANEW_clean_sbu_2, # of connection points: 3
#     Node 2, Type 0, BuildingBlock: OLANEW_clean_sbu_2, # of connection points: 3
#     Node 3, Type 0, BuildingBlock: OLANEW_clean_sbu_2, # of connection points: 3
#     Node 4, Type 0, BuildingBlock: OLANEW_clean_sbu_2, # of connection points: 3
#     Node 5, Type 0, BuildingBlock: OLANEW_clean_sbu_2, # of connection points: 3
#     Node 6, Type 0, BuildingBlock: OLANEW_clean_sbu_2, # of connection points: 3
#     Node 7, Type 0, BuildingBlock: OLANEW_clean_sbu_2, # of connection points: 3
#     Node 8, Type 0, BuildingBlock: OLANEW_clean_sbu_2, # of connection points: 3
#     Node 9, Type 0, BuildingBlock: OLANEW_clean_sbu_2, # of connection points: 3
#     Node 10, Type 0, BuildingBlock: OLANEW_clean_sbu_2, # of connection points: 3
#     Node 11, Type 0, BuildingBlock: OLANEW_clean_sbu_2, # of connection points: 3
#     Node 12, Type 0, BuildingBlock: OLANEW_clean_sbu_2, # of connection points: 3
#     Node 13, Type 0, BuildingBlock: OLANEW_clean_sbu_2, # of connection points: 3
#     Node 14, Type 0, BuildingBlock: OLANEW_clean_sbu_2, # of connection points: 3
#     Node 15, Type 0, BuildingBlock: OLANEW_clean_sbu_2, # of connection points: 3
#     Node 16, Type 0, BuildingBlock: OLANEW_clean_sbu_2, # of connection points: 3
#     Node 17, Type 0, BuildingBlock: OLANEW_clean_sbu_2, # of connection points: 3
#     Node 18, Type 0, BuildingBlock: OLANEW_clean_sbu_2, # of connection points: 3
#     Node 19, Type 0, BuildingBlock: OLANEW_clean_sbu_2, # of connection points: 3
#     Node 20, Type 0, BuildingBlock: OLANEW_clean_sbu_2, # of connection points: 3
#     Node 21, Type 0, BuildingBlock: OLANEW_clean_sbu_2, # of connection points: 3
#     Node 22, Type 0, BuildingBlock: OLANEW_clean_sbu_2, # of connection points: 3
#     Node 23, Type 0, BuildingBlock: OLANEW_clean_sbu_2, # of connection points: 3
#     Node 24, Type 0, BuildingBlock: OLANEW_clean_sbu_2, # of connection points: 3
#     Node 25, Type 0, BuildingBlock: OLANEW_clean_sbu_2, # of connection points: 3
#     Node 26, Type 0, BuildingBlock: OLANEW_clean_sbu_2, # of connection points: 3
#     Node 27, Type 0, BuildingBlock: OLANEW_clean_sbu_2, # of connection points: 3
#     Node 28, Type 0, BuildingBlock: OLANEW_clean_sbu_2, # of connection points: 3
#     Node 29, Type 0, BuildingBlock: OLANEW_clean_sbu_2, # of connection points: 3
#     Node 30, Type 0, BuildingBlock: OLANEW_clean_sbu_2, # of connection points: 3
#     Node 31, Type 0, BuildingBlock: OLANEW_clean_sbu_2, # of connection points: 3
#     Node 32, Type 0, BuildingBlock: OLANEW_clean_sbu_2, # of connection points: 3
#     Node 33, Type 0, BuildingBlock: OLANEW_clean_sbu_2, # of connection points: 3
#     Node 34, Type 0, BuildingBlock: OLANEW_clean_sbu_2, # of connection points: 3
#     Node 35, Type 0, BuildingBlock: OLANEW_clean_sbu_2, # of connection points: 3
#     Node 36, Type 0, BuildingBlock: OLANEW_clean_sbu_2, # of connection points: 3
#     Node 37, Type 0, BuildingBlock: OLANEW_clean_sbu_2, # of connection points: 3
#     Node 38, Type 0, BuildingBlock: OLANEW_clean_sbu_2, # of connection points: 3
#     Node 39, Type 0, BuildingBlock: OLANEW_clean_sbu_2, # of connection points: 3
#     Node 40, Type 0, BuildingBlock: OLANEW_clean_sbu_2, # of connection points: 3
#     Node 41, Type 0, BuildingBlock: OLANEW_clean_sbu_2, # of connection points: 3
#     Node 42, Type 0, BuildingBlock: OLANEW_clean_sbu_2, # of connection points: 3
#     Node 43, Type 0, BuildingBlock: OLANEW_clean_sbu_2, # of connection points: 3
#     Node 44, Type 0, BuildingBlock: OLANEW_clean_sbu_2, # of connection points: 3
#     Node 45, Type 0, BuildingBlock: OLANEW_clean_sbu_2, # of connection points: 3
#     Node 46, Type 0, BuildingBlock: OLANEW_clean_sbu_2, # of connection points: 3
#     Node 47, Type 0, BuildingBlock: OLANEW_clean_sbu_2, # of connection points: 3
#     Node 48, Type 1, BuildingBlock: PAMTOO_clean_linker_0, # of connection points: 3
#     Node 49, Type 1, BuildingBlock: PAMTOO_clean_linker_0, # of connection points: 3
#     Node 50, Type 1, BuildingBlock: PAMTOO_clean_linker_0, # of connection points: 3
#     Node 51, Type 1, BuildingBlock: PAMTOO_clean_linker_0, # of connection points: 3
#     Node 52, Type 1, BuildingBlock: PAMTOO_clean_linker_0, # of connection points: 3
#     Node 53, Type 1, BuildingBlock: PAMTOO_clean_linker_0, # of connection points: 3
#     Node 54, Type 1, BuildingBlock: PAMTOO_clean_linker_0, # of connection points: 3
#     Node 55, Type 1, BuildingBlock: PAMTOO_clean_linker_0, # of connection points: 3
#     Node 56, Type 1, BuildingBlock: PAMTOO_clean_linker_0, # of connection points: 3
#     Node 57, Type 1, BuildingBlock: PAMTOO_clean_linker_0, # of connection points: 3
#     Node 58, Type 1, BuildingBlock: PAMTOO_clean_linker_0, # of connection points: 3
#     Node 59, Type 1, BuildingBlock: PAMTOO_clean_linker_0, # of connection points: 3
#     Node 60, Type 1, BuildingBlock: PAMTOO_clean_linker_0, # of connection points: 3
#     Node 61, Type 1, BuildingBlock: PAMTOO_clean_linker_0, # of connection points: 3
#     Node 62, Type 1, BuildingBlock: PAMTOO_clean_linker_0, # of connection points: 3
#     Node 63, Type 1, BuildingBlock: PAMTOO_clean_linker_0, # of connection points: 3
#     Node 64, Type 1, BuildingBlock: PAMTOO_clean_linker_0, # of connection points: 3
#     Node 65, Type 1, BuildingBlock: PAMTOO_clean_linker_0, # of connection points: 3
#     Node 66, Type 1, BuildingBlock: PAMTOO_clean_linker_0, # of connection points: 3
#     Node 67, Type 1, BuildingBlock: PAMTOO_clean_linker_0, # of connection points: 3
#     Node 68, Type 1, BuildingBlock: PAMTOO_clean_linker_0, # of connection points: 3
#     Node 69, Type 1, BuildingBlock: PAMTOO_clean_linker_0, # of connection points: 3
#     Node 70, Type 1, BuildingBlock: PAMTOO_clean_linker_0, # of connection points: 3
#     Node 71, Type 1, BuildingBlock: PAMTOO_clean_linker_0, # of connection points: 3
#     Node 72, Type 1, BuildingBlock: PAMTOO_clean_linker_0, # of connection points: 3
#     Node 73, Type 1, BuildingBlock: PAMTOO_clean_linker_0, # of connection points: 3
#     Node 74, Type 1, BuildingBlock: PAMTOO_clean_linker_0, # of connection points: 3
#     Node 75, Type 1, BuildingBlock: PAMTOO_clean_linker_0, # of connection points: 3
#     Node 76, Type 1, BuildingBlock: PAMTOO_clean_linker_0, # of connection points: 3
#     Node 77, Type 1, BuildingBlock: PAMTOO_clean_linker_0, # of connection points: 3
#     Node 78, Type 1, BuildingBlock: PAMTOO_clean_linker_0, # of connection points: 3
#     Node 79, Type 1, BuildingBlock: PAMTOO_clean_linker_0, # of connection points: 3
#     Node 80, Type 1, BuildingBlock: PAMTOO_clean_linker_0, # of connection points: 3
#     Node 81, Type 1, BuildingBlock: PAMTOO_clean_linker_0, # of connection points: 3
#     Node 82, Type 1, BuildingBlock: PAMTOO_clean_linker_0, # of connection points: 3
#     Node 83, Type 1, BuildingBlock: PAMTOO_clean_linker_0, # of connection points: 3
#     Node 84, Type 1, BuildingBlock: PAMTOO_clean_linker_0, # of connection points: 3
#     Node 85, Type 1, BuildingBlock: PAMTOO_clean_linker_0, # of connection points: 3
#     Node 86, Type 1, BuildingBlock: PAMTOO_clean_linker_0, # of connection points: 3
#     Node 87, Type 1, BuildingBlock: PAMTOO_clean_linker_0, # of connection points: 3
#     Node 88, Type 1, BuildingBlock: PAMTOO_clean_linker_0, # of connection points: 3
#     Node 89, Type 1, BuildingBlock: PAMTOO_clean_linker_0, # of connection points: 3
#     Node 90, Type 1, BuildingBlock: PAMTOO_clean_linker_0, # of connection points: 3
#     Node 91, Type 1, BuildingBlock: PAMTOO_clean_linker_0, # of connection points: 3
#     Node 92, Type 1, BuildingBlock: PAMTOO_clean_linker_0, # of connection points: 3
#     Node 93, Type 1, BuildingBlock: PAMTOO_clean_linker_0, # of connection points: 3
#     Node 94, Type 1, BuildingBlock: PAMTOO_clean_linker_0, # of connection points: 3
#     Node 95, Type 1, BuildingBlock: PAMTOO_clean_linker_0, # of connection points: 3
#     Edge 96, Type (0, 1), BuildingBlock: UVAHIK_clean_linker_0, # of connection points: 2
#     Edge 97, Type (0, 1), BuildingBlock: UVAHIK_clean_linker_0, # of connection points: 2
#     Edge 98, Type (0, 1), BuildingBlock: UVAHIK_clean_linker_0, # of connection points: 2
#     Edge 99, Type (0, 1), BuildingBlock: UVAHIK_clean_linker_0, # of connection points: 2
#     Edge 100, Type (0, 1), BuildingBlock: UVAHIK_clean_linker_0, # of connection points: 2
#     Edge 101, Type (0, 1), BuildingBlock: UVAHIK_clean_linker_0, # of connection points: 2
#     Edge 102, Type (0, 1), BuildingBlock: UVAHIK_clean_linker_0, # of connection points: 2
#     Edge 103, Type (0, 1), BuildingBlock: UVAHIK_clean_linker_0, # of connection points: 2
#     Edge 104, Type (0, 1), BuildingBlock: UVAHIK_clean_linker_0, # of connection points: 2
#     Edge 105, Type (0, 1), BuildingBlock: UVAHIK_clean_linker_0, # of connection points: 2
#     Edge 106, Type (0, 1), BuildingBlock: UVAHIK_clean_linker_0, # of connection points: 2
#     Edge 107, Type (0, 1), BuildingBlock: UVAHIK_clean_linker_0, # of connection points: 2
#     Edge 108, Type (0, 1), BuildingBlock: UVAHIK_clean_linker_0, # of connection points: 2
#     Edge 109, Type (0, 1), BuildingBlock: UVAHIK_clean_linker_0, # of connection points: 2
#     Edge 110, Type (0, 1), BuildingBlock: UVAHIK_clean_linker_0, # of connection points: 2
#     Edge 111, Type (0, 1), BuildingBlock: UVAHIK_clean_linker_0, # of connection points: 2
#     Edge 112, Type (0, 1), BuildingBlock: UVAHIK_clean_linker_0, # of connection points: 2
#     Edge 113, Type (0, 1), BuildingBlock: UVAHIK_clean_linker_0, # of connection points: 2
#     Edge 114, Type (0, 1), BuildingBlock: UVAHIK_clean_linker_0, # of connection points: 2
#     Edge 115, Type (0, 1), BuildingBlock: UVAHIK_clean_linker_0, # of connection points: 2
#     Edge 116, Type (0, 1), BuildingBlock: UVAHIK_clean_linker_0, # of connection points: 2
#     Edge 117, Type (0, 1), BuildingBlock: UVAHIK_clean_linker_0, # of connection points: 2
#     Edge 118, Type (0, 1), BuildingBlock: UVAHIK_clean_linker_0, # of connection points: 2
#     Edge 119, Type (0, 1), BuildingBlock: UVAHIK_clean_linker_0, # of connection points: 2
#     Edge 120, Type (0, 1), BuildingBlock: UVAHIK_clean_linker_0, # of connection points: 2
#     Edge 121, Type (0, 1), BuildingBlock: UVAHIK_clean_linker_0, # of connection points: 2
#     Edge 122, Type (0, 1), BuildingBlock: UVAHIK_clean_linker_0, # of connection points: 2
#     Edge 123, Type (0, 1), BuildingBlock: UVAHIK_clean_linker_0, # of connection points: 2
#     Edge 124, Type (0, 1), BuildingBlock: UVAHIK_clean_linker_0, # of connection points: 2
#     Edge 125, Type (0, 1), BuildingBlock: UVAHIK_clean_linker_0, # of connection points: 2
#     Edge 126, Type (0, 1), BuildingBlock: UVAHIK_clean_linker_0, # of connection points: 2
#     Edge 127, Type (0, 1), BuildingBlock: UVAHIK_clean_linker_0, # of connection points: 2
#     Edge 128, Type (0, 1), BuildingBlock: UVAHIK_clean_linker_0, # of connection points: 2
#     Edge 129, Type (0, 1), BuildingBlock: UVAHIK_clean_linker_0, # of connection points: 2
#     Edge 130, Type (0, 1), BuildingBlock: UVAHIK_clean_linker_0, # of connection points: 2
#     Edge 131, Type (0, 1), BuildingBlock: UVAHIK_clean_linker_0, # of connection points: 2
#     Edge 132, Type (0, 1), BuildingBlock: UVAHIK_clean_linker_0, # of connection points: 2
#     Edge 133, Type (0, 1), BuildingBlock: UVAHIK_clean_linker_0, # of connection points: 2
#     Edge 134, Type (0, 1), BuildingBlock: UVAHIK_clean_linker_0, # of connection points: 2
#     Edge 135, Type (0, 1), BuildingBlock: UVAHIK_clean_linker_0, # of connection points: 2
#     Edge 136, Type (0, 1), BuildingBlock: UVAHIK_clean_linker_0, # of connection points: 2
#     Edge 137, Type (0, 1), BuildingBlock: UVAHIK_clean_linker_0, # of connection points: 2
#     Edge 138, Type (0, 1), BuildingBlock: UVAHIK_clean_linker_0, # of connection points: 2
#     Edge 139, Type (0, 1), BuildingBlock: UVAHIK_clean_linker_0, # of connection points: 2
#     Edge 140, Type (0, 1), BuildingBlock: UVAHIK_clean_linker_0, # of connection points: 2
#     Edge 141, Type (0, 1), BuildingBlock: UVAHIK_clean_linker_0, # of connection points: 2
#     Edge 142, Type (0, 1), BuildingBlock: UVAHIK_clean_linker_0, # of connection points: 2
#     Edge 143, Type (0, 1), BuildingBlock: UVAHIK_clean_linker_0, # of connection points: 2
#     Edge 144, Type (0, 1), BuildingBlock: UVAHIK_clean_linker_0, # of connection points: 2
#     Edge 145, Type (0, 1), BuildingBlock: UVAHIK_clean_linker_0, # of connection points: 2
#     Edge 146, Type (0, 1), BuildingBlock: UVAHIK_clean_linker_0, # of connection points: 2
#     Edge 147, Type (0, 1), BuildingBlock: UVAHIK_clean_linker_0, # of connection points: 2
#     Edge 148, Type (0, 1), BuildingBlock: UVAHIK_clean_linker_0, # of connection points: 2
#     Edge 149, Type (0, 1), BuildingBlock: UVAHIK_clean_linker_0, # of connection points: 2
#     Edge 150, Type (0, 1), BuildingBlock: UVAHIK_clean_linker_0, # of connection points: 2
#     Edge 151, Type (0, 1), BuildingBlock: UVAHIK_clean_linker_0, # of connection points: 2
#     Edge 152, Type (0, 1), BuildingBlock: UVAHIK_clean_linker_0, # of connection points: 2
#     Edge 153, Type (0, 1), BuildingBlock: UVAHIK_clean_linker_0, # of connection points: 2
#     Edge 154, Type (0, 1), BuildingBlock: UVAHIK_clean_linker_0, # of connection points: 2
#     Edge 155, Type (0, 1), BuildingBlock: UVAHIK_clean_linker_0, # of connection points: 2
#     Edge 156, Type (0, 1), BuildingBlock: UVAHIK_clean_linker_0, # of connection points: 2
#     Edge 157, Type (0, 1), BuildingBlock: UVAHIK_clean_linker_0, # of connection points: 2
#     Edge 158, Type (0, 1), BuildingBlock: UVAHIK_clean_linker_0, # of connection points: 2
#     Edge 159, Type (0, 1), BuildingBlock: UVAHIK_clean_linker_0, # of connection points: 2
#     Edge 160, Type (0, 1), BuildingBlock: UVAHIK_clean_linker_0, # of connection points: 2
#     Edge 161, Type (0, 1), BuildingBlock: UVAHIK_clean_linker_0, # of connection points: 2
#     Edge 162, Type (0, 1), BuildingBlock: UVAHIK_clean_linker_0, # of connection points: 2
#     Edge 163, Type (0, 1), BuildingBlock: UVAHIK_clean_linker_0, # of connection points: 2
#     Edge 164, Type (0, 1), BuildingBlock: UVAHIK_clean_linker_0, # of connection points: 2
#     Edge 165, Type (0, 1), BuildingBlock: UVAHIK_clean_linker_0, # of connection points: 2
#     Edge 166, Type (0, 1), BuildingBlock: UVAHIK_clean_linker_0, # of connection points: 2
#     Edge 167, Type (0, 1), BuildingBlock: UVAHIK_clean_linker_0, # of connection points: 2
#     Edge 168, Type (0, 1), BuildingBlock: UVAHIK_clean_linker_0, # of connection points: 2
#     Edge 169, Type (0, 1), BuildingBlock: UVAHIK_clean_linker_0, # of connection points: 2
#     Edge 170, Type (0, 1), BuildingBlock: UVAHIK_clean_linker_0, # of connection points: 2
#     Edge 171, Type (0, 1), BuildingBlock: UVAHIK_clean_linker_0, # of connection points: 2
#     Edge 172, Type (0, 1), BuildingBlock: UVAHIK_clean_linker_0, # of connection points: 2
#     Edge 173, Type (0, 1), BuildingBlock: UVAHIK_clean_linker_0, # of connection points: 2
#     Edge 174, Type (0, 1), BuildingBlock: UVAHIK_clean_linker_0, # of connection points: 2
#     Edge 175, Type (0, 1), BuildingBlock: UVAHIK_clean_linker_0, # of connection points: 2
#     Edge 176, Type (0, 1), BuildingBlock: UVAHIK_clean_linker_0, # of connection points: 2
#     Edge 177, Type (0, 1), BuildingBlock: UVAHIK_clean_linker_0, # of connection points: 2
#     Edge 178, Type (0, 1), BuildingBlock: UVAHIK_clean_linker_0, # of connection points: 2
#     Edge 179, Type (0, 1), BuildingBlock: UVAHIK_clean_linker_0, # of connection points: 2
#     Edge 180, Type (0, 1), BuildingBlock: UVAHIK_clean_linker_0, # of connection points: 2
#     Edge 181, Type (0, 1), BuildingBlock: UVAHIK_clean_linker_0, # of connection points: 2
#     Edge 182, Type (0, 1), BuildingBlock: UVAHIK_clean_linker_0, # of connection points: 2
#     Edge 183, Type (0, 1), BuildingBlock: UVAHIK_clean_linker_0, # of connection points: 2
#     Edge 184, Type (0, 1), BuildingBlock: UVAHIK_clean_linker_0, # of connection points: 2
#     Edge 185, Type (0, 1), BuildingBlock: UVAHIK_clean_linker_0, # of connection points: 2
#     Edge 186, Type (0, 1), BuildingBlock: UVAHIK_clean_linker_0, # of connection points: 2
#     Edge 187, Type (0, 1), BuildingBlock: UVAHIK_clean_linker_0, # of connection points: 2
#     Edge 188, Type (0, 1), BuildingBlock: UVAHIK_clean_linker_0, # of connection points: 2
#     Edge 189, Type (0, 1), BuildingBlock: UVAHIK_clean_linker_0, # of connection points: 2
#     Edge 190, Type (0, 1), BuildingBlock: UVAHIK_clean_linker_0, # of connection points: 2
#     Edge 191, Type (0, 1), BuildingBlock: UVAHIK_clean_linker_0, # of connection points: 2
#     Edge 192, Type (0, 1), BuildingBlock: UVAHIK_clean_linker_0, # of connection points: 2
#     Edge 193, Type (0, 1), BuildingBlock: UVAHIK_clean_linker_0, # of connection points: 2
#     Edge 194, Type (0, 1), BuildingBlock: UVAHIK_clean_linker_0, # of connection points: 2
#     Edge 195, Type (0, 1), BuildingBlock: UVAHIK_clean_linker_0, # of connection points: 2
#     Edge 196, Type (0, 1), BuildingBlock: UVAHIK_clean_linker_0, # of connection points: 2
#     Edge 197, Type (0, 1), BuildingBlock: UVAHIK_clean_linker_0, # of connection points: 2
#     Edge 198, Type (0, 1), BuildingBlock: UVAHIK_clean_linker_0, # of connection points: 2
#     Edge 199, Type (0, 1), BuildingBlock: UVAHIK_clean_linker_0, # of connection points: 2
#     Edge 200, Type (0, 1), BuildingBlock: UVAHIK_clean_linker_0, # of connection points: 2
#     Edge 201, Type (0, 1), BuildingBlock: UVAHIK_clean_linker_0, # of connection points: 2
#     Edge 202, Type (0, 1), BuildingBlock: UVAHIK_clean_linker_0, # of connection points: 2
#     Edge 203, Type (0, 1), BuildingBlock: UVAHIK_clean_linker_0, # of connection points: 2
#     Edge 204, Type (0, 1), BuildingBlock: UVAHIK_clean_linker_0, # of connection points: 2
#     Edge 205, Type (0, 1), BuildingBlock: UVAHIK_clean_linker_0, # of connection points: 2
#     Edge 206, Type (0, 1), BuildingBlock: UVAHIK_clean_linker_0, # of connection points: 2
#     Edge 207, Type (0, 1), BuildingBlock: UVAHIK_clean_linker_0, # of connection points: 2
#     Edge 208, Type (0, 1), BuildingBlock: UVAHIK_clean_linker_0, # of connection points: 2
#     Edge 209, Type (0, 1), BuildingBlock: UVAHIK_clean_linker_0, # of connection points: 2
#     Edge 210, Type (0, 1), BuildingBlock: UVAHIK_clean_linker_0, # of connection points: 2
#     Edge 211, Type (0, 1), BuildingBlock: UVAHIK_clean_linker_0, # of connection points: 2
#     Edge 212, Type (0, 1), BuildingBlock: UVAHIK_clean_linker_0, # of connection points: 2
#     Edge 213, Type (0, 1), BuildingBlock: UVAHIK_clean_linker_0, # of connection points: 2
#     Edge 214, Type (0, 1), BuildingBlock: UVAHIK_clean_linker_0, # of connection points: 2
#     Edge 215, Type (0, 1), BuildingBlock: UVAHIK_clean_linker_0, # of connection points: 2
#     Edge 216, Type (0, 1), BuildingBlock: UVAHIK_clean_linker_0, # of connection points: 2
#     Edge 217, Type (0, 1), BuildingBlock: UVAHIK_clean_linker_0, # of connection points: 2
#     Edge 218, Type (0, 1), BuildingBlock: UVAHIK_clean_linker_0, # of connection points: 2
#     Edge 219, Type (0, 1), BuildingBlock: UVAHIK_clean_linker_0, # of connection points: 2
#     Edge 220, Type (0, 1), BuildingBlock: UVAHIK_clean_linker_0, # of connection points: 2
#     Edge 221, Type (0, 1), BuildingBlock: UVAHIK_clean_linker_0, # of connection points: 2
#     Edge 222, Type (0, 1), BuildingBlock: UVAHIK_clean_linker_0, # of connection points: 2
#     Edge 223, Type (0, 1), BuildingBlock: UVAHIK_clean_linker_0, # of connection points: 2
#     Edge 224, Type (0, 1), BuildingBlock: UVAHIK_clean_linker_0, # of connection points: 2
#     Edge 225, Type (0, 1), BuildingBlock: UVAHIK_clean_linker_0, # of connection points: 2
#     Edge 226, Type (0, 1), BuildingBlock: UVAHIK_clean_linker_0, # of connection points: 2
#     Edge 227, Type (0, 1), BuildingBlock: UVAHIK_clean_linker_0, # of connection points: 2
#     Edge 228, Type (0, 1), BuildingBlock: UVAHIK_clean_linker_0, # of connection points: 2
#     Edge 229, Type (0, 1), BuildingBlock: UVAHIK_clean_linker_0, # of connection points: 2
#     Edge 230, Type (0, 1), BuildingBlock: UVAHIK_clean_linker_0, # of connection points: 2
#     Edge 231, Type (0, 1), BuildingBlock: UVAHIK_clean_linker_0, # of connection points: 2
#     Edge 232, Type (0, 1), BuildingBlock: UVAHIK_clean_linker_0, # of connection points: 2
#     Edge 233, Type (0, 1), BuildingBlock: UVAHIK_clean_linker_0, # of connection points: 2
#     Edge 234, Type (0, 1), BuildingBlock: UVAHIK_clean_linker_0, # of connection points: 2
#     Edge 235, Type (0, 1), BuildingBlock: UVAHIK_clean_linker_0, # of connection points: 2
#     Edge 236, Type (0, 1), BuildingBlock: UVAHIK_clean_linker_0, # of connection points: 2
#     Edge 237, Type (0, 1), BuildingBlock: UVAHIK_clean_linker_0, # of connection points: 2
#     Edge 238, Type (0, 1), BuildingBlock: UVAHIK_clean_linker_0, # of connection points: 2
#     Edge 239, Type (0, 1), BuildingBlock: UVAHIK_clean_linker_0, # of connection points: 2
# Relax obj value: 0.013
# Max RMSD: 0.097
# Mean RMSD: 0.063
data_MOF--net-bpr--node1-OLANEW_clean_sbu_2--node2-PAMTOO_clean_linker_0--edge1-UVAHIK_clean_linker_0
_symmetry_space_group_name_H-M    P1
_symmetry_Int_Tables_number       1
_symmetry_cell_setting            triclinic
loop_
_symmetry_equiv_pos_as_xyz
'x, y, z'
_cell_length_a     105.3095
_cell_length_b     118.35945
_cell_length_c     113.71248
_cell_angle_alpha  92.524412
_cell_angle_beta   97.903287
_cell_angle_gamma 100.80131
loop_
_atom_site_label
_atom_site_type_symbol
_atom_site_fract_x
_atom_site_fract_y
_atom_site_fract_z
_atom_type_partial_charge
O0 O 0.03929 0.38326 0.23687 0.0
Cd1 Cd 0.02565 0.38667 0.21869 0.0
O2 O 0.02286 0.38396 0.24657 0.0
Cd3 Cd 0.01238 0.38458 0.26187 0.0
O4 O 0.99878 0.38575 0.27457 0.0
C5 C 0.99744 0.39559 0.27856 0.0
O6 O 0.00456 0.40488 0.27518 0.0
C7 C 0.03461 0.38271 0.2466 0.0
C8 C 0.03988 0.39107 0.19986 0.0
O9 O 0.03872 0.39927 0.20714 0.0
O10 O 0.03434 0.38078 0.20152 0.0
O11 O 0.87207 0.80753 0.54153 0.0
Cd12 Cd 0.87154 0.79081 0.52796 0.0
O13 O 0.87669 0.79884 0.55784 0.0
Cd14 Cd 0.87649 0.78184 0.54946 0.0
O15 O 0.87767 0.76373 0.5512 0.0
C16 C 0.87744 0.76052 0.56171 0.0
O17 O 0.87641 0.76808 0.57017 0.0
C18 C 0.87452 0.80781 0.5528 0.0
C19 C 0.86694 0.79704 0.5046 0.0
O20 O 0.85748 0.79247 0.50992 0.0
O21 O 0.87859 0.79844 0.51025 0.0
O22 O 0.47846 0.61557 0.75513 0.0
Cd23 Cd 0.49718 0.61343 0.74527 0.0
O24 O 0.46596 0.61125 0.73789 0.0
Cd25 Cd 0.44782 0.60922 0.72539 0.0
O26 O 0.43182 0.60765 0.71064 0.0
C27 C 0.42689 0.61634 0.70783 0.0
O28 O 0.43132 0.62622 0.71412 0.0
C29 C 0.46715 0.61387 0.74901 0.0
C30 C 0.5193 0.6133 0.76178 0.0
O31 O 0.51688 0.62274 0.75775 0.0
O32 O 0.51128 0.60391 0.75795 0.0
O33 O 0.61188 0.21886 0.07921 0.0
Cd34 Cd 0.60311 0.233 0.06715 0.0
O35 O 0.61447 0.2099 0.06277 0.0
Cd36 Cd 0.62024 0.19755 0.05064 0.0
O37 O 0.6234 0.18888 0.03424 0.0
C38 C 0.63218 0.1829 0.0338 0.0
O39 O 0.63968 0.18156 0.04367 0.0
C40 C 0.61546 0.2105 0.07407 0.0
C41 C 0.60087 0.25248 0.08082 0.0
O42 O 0.59151 0.24367 0.07886 0.0
O43 O 0.61131 0.25206 0.07634 0.0
O44 O 0.07529 0.63595 0.23238 0.0
Cd45 Cd 0.05575 0.63218 0.24209 0.0
O46 O 0.07867 0.65466 0.2367 0.0
Cd47 Cd 0.05887 0.6535 0.24083 0.0
O48 O 0.03803 0.65216 0.23468 0.0
C49 C 0.0351 0.65918 0.2271 0.0
O50 O 0.04452 0.66695 0.22409 0.0
C51 C 0.08245 0.64591 0.23255 0.0
C52 C 0.06355 0.63052 0.26629 0.0
O53 O 0.0608 0.62156 0.25897 0.0
O54 O 0.06229 0.64024 0.26221 0.0
O55 O 0.63775 0.75442 0.454 0.0
Cd56 Cd 0.64789 0.74203 0.46749 0.0
O57 O 0.63845 0.76633 0.46944 0.0
Cd58 Cd 0.63473 0.78137 0.4793 0.0
O59 O 0.63343 0.79644 0.4905 0.0
C60 C 0.62278 0.80004 0.49038 0.0
O61 O 0.61231 0.79461 0.48326 0.0
C62 C 0.63545 0.76379 0.45829 0.0
C63 C 0.65018 0.72159 0.45557 0.0
O64 O 0.63978 0.72246 0.45994 0.0
O65 O 0.65955 0.7304 0.45689 0.0
O66 O 0.42637 0.45252 0.74056 0.0
Cd67 Cd 0.4316 0.46225 0.76047 0.0
O68 O 0.44263 0.44344 0.74434 0.0
Cd69 Cd 0.45608 0.43262 0.73953 0.0
O70 O 0.47316 0.42616 0.73536 0.0
C71 C 0.48406 0.43318 0.73738 0.0
O72 O 0.4844 0.44368 0.74185 0.0
C73 C 0.43294 0.44533 0.73724 0.0
C74 C 0.4175 0.44939 0.77601 0.0
O75 O 0.41254 0.4566 0.76965 0.0
O76 O 0.42924 0.44834 0.77515 0.0
O77 O 0.90949 0.25499 0.94805 0.0
Cd78 Cd 0.90537 0.27178 0.95913 0.0
O79 O 0.90007 0.24497 0.96126 0.0
Cd80 Cd 0.89117 0.22959 0.96939 0.0
O81 O 0.883 0.21581 0.97993 0.0
C82 C 0.88862 0.21537 0.99049 0.0
O83 O 0.89919 0.22309 0.99456 0.0
C84 C 0.90558 0.24525 0.95195 0.0
C85 C 0.89078 0.28452 0.94458 0.0
O86 O 0.90326 0.28745 0.94684 0.0
O87 O 0.8852 0.2756 0.94923 0.0
O88 O 0.29439 0.01571 0.36927 0.0
Cd89 Cd 0.27238 0.00418 0.36372 0.0
O90 O 0.29185 0.0187 0.38795 0.0
Cd91 Cd 0.27055 0.01397 0.38411 0.0
O92 O 0.25143 0.01897 0.38229 0.0
C93 C 0.24963 0.02583 0.39055 0.0
O94 O 0.25892 0.02891 0.3997 0.0
C95 C 0.29918 0.01947 0.3799 0.0
C96 C 0.27441 0.98107 0.36068 0.0
O97 O 0.27453 0.98754 0.35192 0.0
O98 O 0.27302 0.98547 0.37081 0.0
O99 O 0.22176 0.01997 0.69337 0.0
Cd100 Cd 0.22885 0.00407 0.70368 0.0
O101 O 0.24132 0.02553 0.68864 0.0
Cd102 Cd 0.25635 0.03587 0.67999 0.0
O103 O 0.27259 0.04652 0.67318 0.0
C104 C 0.28126 0.05322 0.68049 0.0
O105 O 0.28008 0.05354 0.69185 0.0
C106 C 0.22962 0.027 0.68838 0.0
C107 C 0.21148 0.98334 0.69653 0.0
O108 O 0.20947 0.99021 0.70481 0.0
O109 O 0.22176 0.98624 0.69165 0.0
O110 O 0.29201 0.00339 0.95129 0.0
Cd111 Cd 0.31421 0.01454 0.95251 0.0
O112 O 0.28467 0.01446 0.93806 0.0
Cd113 Cd 0.26908 0.02035 0.92665 0.0
O114 O 0.25428 0.02896 0.91758 0.0
C115 C 0.24993 0.03625 0.92368 0.0
O116 O 0.25436 0.03814 0.93511 0.0
C117 C 0.28259 0.00579 0.94424 0.0
C118 C 0.32903 0.00171 0.94087 0.0
O119 O 0.32821 0.00082 0.95194 0.0
O120 O 0.32304 0.00885 0.93535 0.0
O121 O 0.27574 0.98822 0.11844 0.0
Cd122 Cd 0.26232 0.00033 0.1269 0.0
O123 O 0.26213 0.9837 0.1017 0.0
Cd124 Cd 0.2469 0.99048 0.10925 0.0
O125 O 0.23146 0.98627 0.12022 0.0
C126 C 0.23381 0.97947 0.12823 0.0
O127 O 0.24521 0.97631 0.12955 0.0
C128 C 0.27298 0.98328 0.10798 0.0
C129 C 0.27466 0.02339 0.12774 0.0
O130 O 0.27636 0.01736 0.13671 0.0
O131 O 0.26693 0.01855 0.11845 0.0
O132 O 0.4034 0.3144 0.02256 0.0
Cd133 Cd 0.40809 0.30333 0.0056 0.0
O134 O 0.40129 0.2987 0.03215 0.0
Cd135 Cd 0.39669 0.28738 0.04633 0.0
O136 O 0.39411 0.27369 0.05854 0.0
C137 C 0.38281 0.2679 0.0592 0.0
O138 O 0.37259 0.2705 0.05269 0.0
C139 C 0.40102 0.3094 0.0319 0.0
C140 C 0.397 0.31062 0.98429 0.0
O141 O 0.39048 0.30278 0.98972 0.0
O142 O 0.40882 0.31494 0.98889 0.0
O143 O 0.9275 0.9428 0.25219 0.0
Cd144 Cd 0.93718 0.94762 0.27298 0.0
O145 O 0.94298 0.93299 0.25096 0.0
Cd146 Cd 0.95487 0.92333 0.24173 0.0
O147 O 0.97175 0.91824 0.23538 0.0
C148 C 0.98195 0.92607 0.23606 0.0
O149 O 0.98159 0.9365 0.24026 0.0
C150 C 0.93286 0.93634 0.24606 0.0
C151 C 0.92313 0.9337 0.2878 0.0
O152 O 0.92053 0.94357 0.28535 0.0
O153 O 0.93249 0.93045 0.28331 0.0
O154 O 0.08304 0.70742 0.57766 0.0
Cd155 Cd 0.07463 0.7218 0.56568 0.0
O156 O 0.09397 0.70386 0.56337 0.0
Cd157 Cd 0.10559 0.6947 0.55323 0.0
O158 O 0.11351 0.68854 0.53796 0.0
C159 C 0.11512 0.67824 0.53635 0.0
O160 O 0.11233 0.6709 0.5444 0.0
C161 C 0.09077 0.70175 0.57355 0.0
C162 C 0.07772 0.74302 0.57845 0.0
O163 O 0.06745 0.73523 0.57836 0.0
O164 O 0.08656 0.74075 0.57253 0.0
O165 O 0.9988 0.62159 0.7344 0.0
Cd166 Cd 0.01351 0.61864 0.75212 0.0
O167 O 0.00143 0.64035 0.73807 0.0
Cd168 Cd 0.01146 0.63925 0.75597 0.0
O169 O 0.01152 0.63529 0.77454 0.0
C170 C 0.01042 0.64308 0.78218 0.0
O171 O 0.01025 0.65354 0.77883 0.0
C172 C 0.9966 0.63132 0.73125 0.0
C173 C 0.03689 0.61495 0.74523 0.0
O174 O 0.02751 0.60648 0.7459 0.0
O175 O 0.03531 0.62513 0.7481 0.0
O176 O 0.11263 0.20116 0.48191 0.0
Cd177 Cd 0.10837 0.21284 0.49865 0.0
O178 O 0.11777 0.21637 0.47199 0.0
Cd179 Cd 0.12487 0.22686 0.45796 0.0
O180 O 0.12975 0.24003 0.44555 0.0
C181 C 0.12226 0.24003 0.43578 0.0
O182 O 0.11183 0.23181 0.43313 0.0
C183 C 0.11641 0.20552 0.47267 0.0
C184 C 0.11949 0.2052 0.51978 0.0
O185 O 0.10766 0.20095 0.51516 0.0
O186 O 0.12595 0.21324 0.51454 0.0
O187 O 0.53258 0.38891 0.29293 0.0
Cd188 Cd 0.52501 0.39179 0.31199 0.0
O189 O 0.51684 0.3969 0.28449 0.0
Cd190 Cd 0.50416 0.40144 0.2693 0.0
O191 O 0.48896 0.40267 0.25461 0.0
C192 C 0.4825 0.3933 0.24919 0.0
O193 O 0.48544 0.38351 0.25255 0.0
C194 C 0.52659 0.39217 0.28361 0.0
C195 C 0.54546 0.39468 0.33088 0.0
O196 O 0.53895 0.38462 0.32706 0.0
O197 O 0.54227 0.40339 0.32576 0.0
O198 O 0.28802 0.77813 0.87756 0.0
Cd199 Cd 0.27393 0.75943 0.87868 0.0
O200 O 0.29204 0.78055 0.89703 0.0
Cd201 Cd 0.30158 0.78923 0.9143 0.0
O202 O 0.30986 0.79942 0.93103 0.0
C203 C 0.30751 0.80948 0.93263 0.0
O204 O 0.30016 0.81348 0.92415 0.0
C205 C 0.29369 0.7843 0.88691 0.0
C206 C 0.28441 0.74158 0.86949 0.0
O207 O 0.27715 0.74693 0.86271 0.0
O208 O 0.28667 0.74464 0.88065 0.0
O209 O 0.88206 0.31151 0.72296 0.0
Cd210 Cd 0.89283 0.30584 0.70656 0.0
O211 O 0.90141 0.31991 0.73214 0.0
Cd212 Cd 0.9154 0.32827 0.7475 0.0
O213 O 0.93157 0.33367 0.76207 0.0
C214 C 0.93237 0.32764 0.77102 0.0
O215 O 0.9232 0.3185 0.77141 0.0
C216 C 0.8891 0.31732 0.73199 0.0
C217 C 0.88701 0.31736 0.68624 0.0
O218 O 0.88016 0.30753 0.68777 0.0
O219 O 0.89661 0.32174 0.69434 0.0
O220 O 0.35372 0.21662 0.53189 0.0
Cd221 Cd 0.349 0.23079 0.51778 0.0
O222 O 0.36916 0.21314 0.52208 0.0
Cd223 Cd 0.38544 0.2059 0.51698 0.0
O224 O 0.39639 0.19598 0.50693 0.0
C225 C 0.38998 0.19049 0.49745 0.0
O226 O 0.37765 0.19118 0.49455 0.0
C227 C 0.36281 0.21114 0.53077 0.0
C228 C 0.35037 0.25199 0.53005 0.0
O229 O 0.33951 0.24475 0.52757 0.0
O230 O 0.36054 0.24925 0.52656 0.0
O231 O 0.55518 0.64239 0.24666 0.0
Cd232 Cd 0.54327 0.64648 0.22783 0.0
O233 O 0.537 0.63536 0.2534 0.0
Cd234 Cd 0.52549 0.62864 0.2671 0.0
O235 O 0.51274 0.62371 0.28041 0.0
C236 C 0.5127 0.63088 0.28905 0.0
O237 O 0.52053 0.64103 0.28985 0.0
C238 C 0.54942 0.63775 0.25485 0.0
C239 C 0.55856 0.64528 0.2098 0.0
O240 O 0.55896 0.65486 0.2157 0.0
O241 O 0.55076 0.63633 0.2123 0.0
O242 O 0.12254 0.79599 0.08166 0.0
Cd243 Cd 0.12707 0.78559 0.06413 0.0
O244 O 0.10196 0.79547 0.07445 0.0
Cd245 Cd 0.1055 0.79114 0.05651 0.0
O246 O 0.11252 0.79847 0.04077 0.0
C247 C 0.12365 0.80518 0.0425 0.0
O248 O 0.13039 0.8066 0.05325 0.0
C249 C 0.11132 0.79787 0.08306 0.0
C250 C 0.13483 0.76532 0.07097 0.0
O251 O 0.14331 0.77453 0.07048 0.0
O252 O 0.12273 0.76565 0.06797 0.0
O253 O 0.73598 0.02106 0.54724 0.0
Cd254 Cd 0.75232 0.03798 0.5446 0.0
O255 O 0.75022 0.01661 0.56129 0.0
Cd256 Cd 0.7579 0.00565 0.57438 0.0
O257 O 0.76833 0.99521 0.58611 0.0
C258 C 0.76914 0.98512 0.58242 0.0
O259 O 0.76336 0.98108 0.57168 0.0
C260 C 0.73884 0.0144 0.55523 0.0
C261 C 0.74604 0.05768 0.55474 0.0
O262 O 0.74218 0.05446 0.54371 0.0
O263 O 0.75304 0.05167 0.56093 0.0
O264 O 0.7638 0.97843 0.37971 0.0
Cd265 Cd 0.75512 0.99613 0.37817 0.0
O266 O 0.745 0.96963 0.36981 0.0
Cd267 Cd 0.72972 0.95487 0.36252 0.0
O268 O 0.71136 0.94236 0.35869 0.0
C269 C 0.70458 0.94093 0.36712 0.0
O270 O 0.7091 0.9468 0.3774 0.0
C271 C 0.75637 0.96916 0.37498 0.0
C272 C 0.77201 0.0139 0.36969 0.0
O273 O 0.7722 0.01294 0.38089 0.0
O274 O 0.76389 0.00641 0.36251 0.0
O275 O 0.73983 0.98536 0.04915 0.0
Cd276 Cd 0.72954 0.96499 0.04603 0.0
O277 O 0.73278 0.98557 0.06643 0.0
Cd278 Cd 0.72996 0.99513 0.08245 0.0
O279 O 0.72518 0.00759 0.09502 0.0
C280 C 0.72685 0.01811 0.09264 0.0
O281 O 0.73164 0.02109 0.08291 0.0
C282 C 0.73917 0.99075 0.05888 0.0
C283 C 0.7464 0.95177 0.05708 0.0
O284 O 0.74645 0.95398 0.04615 0.0
O285 O 0.73823 0.95568 0.06273 0.0
O286 O 0.71971 0.00672 0.93007 0.0
Cd287 Cd 0.73009 0.99022 0.93414 0.0
O288 O 0.73647 0.01417 0.9216 0.0
Cd289 Cd 0.74949 0.02706 0.91331 0.0
O290 O 0.76531 0.03824 0.90639 0.0
C291 C 0.77517 0.04324 0.91374 0.0
O292 O 0.77528 0.04167 0.92512 0.0
C293 C 0.72542 0.01486 0.92462 0.0
C294 C 0.71433 0.96983 0.92333 0.0
O295 O 0.71369 0.97318 0.93407 0.0
O296 O 0.72248 0.97609 0.91774 0.0
O297 O 0.59991 0.69452 0.98072 0.0
Cd298 Cd 0.59457 0.70525 0.99761 0.0
O299 O 0.60484 0.71038 0.97173 0.0
Cd300 Cd 0.61212 0.72174 0.95843 0.0
O301 O 0.61652 0.735 0.94602 0.0
C302 C 0.60927 0.73444 0.93602 0.0
O303 O 0.59947 0.72565 0.93322 0.0
C304 C 0.6039 0.6995 0.97186 0.0
C305 C 0.60629 0.69785 0.01861 0.0
O306 O 0.59464 0.69309 0.0139 0.0
O307 O 0.61227 0.70628 0.01352 0.0
O308 O 0.06163 0.15627 0.74428 0.0
Cd309 Cd 0.05163 0.16206 0.72538 0.0
O310 O 0.04237 0.1489 0.74884 0.0
Cd311 Cd 0.02923 0.1413 0.76097 0.0
O312 O 0.01533 0.1363 0.77331 0.0
C313 C 0.01535 0.14319 0.78221 0.0
O314 O 0.02386 0.15299 0.78378 0.0
C315 C 0.05476 0.15099 0.75144 0.0
C316 C 0.06633 0.15829 0.70748 0.0
O317 O 0.06855 0.16801 0.71357 0.0
O318 O 0.05703 0.15041 0.70976 0.0
O319 O 0.7887 0.27231 0.38109 0.0
Cd320 Cd 0.77429 0.25394 0.38291 0.0
O321 O 0.78893 0.2766 0.40004 0.0
Cd322 Cd 0.79353 0.2875 0.41671 0.0
O323 O 0.79996 0.2981 0.4334 0.0
C324 C 0.80205 0.30904 0.43349 0.0
O325 O 0.80019 0.31389 0.42339 0.0
C326 C 0.79276 0.2793 0.39021 0.0
C327 C 0.78373 0.23567 0.37325 0.0
O328 O 0.77567 0.24062 0.36689 0.0
O329 O 0.78725 0.23931 0.38421 0.0
O330 O 0.53336 0.88031 0.73009 0.0
Cd331 Cd 0.51978 0.88351 0.71178 0.0
O332 O 0.51664 0.88079 0.73948 0.0
Cd333 Cd 0.50637 0.88136 0.75492 0.0
O334 O 0.4938 0.8832 0.76838 0.0
C335 C 0.49434 0.89308 0.77349 0.0
O336 O 0.50271 0.90192 0.77074 0.0
C337 C 0.52846 0.87969 0.7397 0.0
C338 C 0.53414 0.88854 0.69314 0.0
O339 O 0.53257 0.89656 0.70043 0.0
O340 O 0.52896 0.87812 0.69471 0.0
O341 O 0.98448 0.12019 0.25667 0.0
Cd342 Cd 0.00328 0.11886 0.24663 0.0
O343 O 0.97224 0.11921 0.23931 0.0
Cd344 Cd 0.95444 0.11978 0.2271 0.0
O345 O 0.93856 0.12008 0.21264 0.0
C346 C 0.94153 0.12172 0.2023 0.0
O347 O 0.95389 0.12324 0.20085 0.0
C348 C 0.97335 0.11996 0.25061 0.0
C349 C 0.02538 0.11839 0.26305 0.0
O350 O 0.02285 0.12794 0.25943 0.0
O351 O 0.0175 0.10904 0.25883 0.0
O352 O 0.59803 0.13805 0.73061 0.0
Cd353 Cd 0.57903 0.13341 0.74097 0.0
O354 O 0.59978 0.15674 0.73414 0.0
Cd355 Cd 0.58008 0.15452 0.73878 0.0
O356 O 0.5593 0.15315 0.73227 0.0
C357 C 0.55694 0.15668 0.72195 0.0
O358 O 0.56684 0.16084 0.7165 0.0
C359 C 0.60426 0.1483 0.7302 0.0
C360 C 0.58727 0.13055 0.76486 0.0
O361 O 0.58435 0.12193 0.75709 0.0
O362 O 0.58612 0.1405 0.76134 0.0
O363 O 0.10337 0.24282 0.96042 0.0
Cd364 Cd 0.10879 0.22914 0.97489 0.0
O365 O 0.10797 0.25666 0.97462 0.0
Cd366 Cd 0.10961 0.27395 0.9831 0.0
O367 O 0.11343 0.29063 0.99325 0.0
C368 C 0.10411 0.29527 0.99581 0.0
O369 O 0.092 0.28997 0.99208 0.0
C370 C 0.10431 0.25338 0.96367 0.0
C371 C 0.11485 0.20993 0.96351 0.0
O372 O 0.10306 0.21028 0.96493 0.0
O373 O 0.12382 0.21863 0.96761 0.0
O374 O 0.4049 0.74306 0.445 0.0
Cd375 Cd 0.40568 0.76177 0.45539 0.0
O376 O 0.39463 0.73514 0.45893 0.0
Cd377 Cd 0.38393 0.72143 0.46816 0.0
O378 O 0.37491 0.709 0.47966 0.0
C379 C 0.37967 0.70982 0.49063 0.0
O380 O 0.3898 0.71805 0.49455 0.0
C381 C 0.39954 0.73402 0.44942 0.0
C382 C 0.39249 0.77602 0.44149 0.0
O383 O 0.40466 0.77614 0.44132 0.0
O384 O 0.38653 0.76912 0.44823 0.0
O385 O 0.78879 0.51564 0.86913 0.0
Cd386 Cd 0.76676 0.50417 0.86357 0.0
O387 O 0.78667 0.51785 0.88802 0.0
Cd388 Cd 0.76538 0.51296 0.88441 0.0
O389 O 0.74608 0.5176 0.88262 0.0
C390 C 0.74408 0.52427 0.89094 0.0
O391 O 0.75328 0.52738 0.90016 0.0
C392 C 0.7938 0.51903 0.87982 0.0
C393 C 0.76896 0.48119 0.8598 0.0
O394 O 0.76889 0.48788 0.85124 0.0
O395 O 0.76764 0.48529 0.87009 0.0
O396 O 0.72596 0.51759 0.18705 0.0
Cd397 Cd 0.7345 0.50054 0.19291 0.0
O398 O 0.74043 0.51993 0.17484 0.0
Cd399 Cd 0.75187 0.52931 0.16244 0.0
O400 O 0.76623 0.53942 0.153 0.0
C401 C 0.77702 0.5362 0.15252 0.0
O402 O 0.779 0.52672 0.15743 0.0
C403 C 0.73109 0.52327 0.1791 0.0
C404 C 0.71505 0.48075 0.18827 0.0
O405 O 0.71757 0.48627 0.19854 0.0
O406 O 0.7218 0.48456 0.18021 0.0
O407 O 0.79823 0.50093 0.45719 0.0
Cd408 Cd 0.82071 0.51143 0.45828 0.0
O409 O 0.79142 0.51188 0.44357 0.0
Cd410 Cd 0.77625 0.51791 0.43174 0.0
O411 O 0.76186 0.52638 0.42181 0.0
C412 C 0.75967 0.53566 0.42647 0.0
O413 O 0.76605 0.53968 0.43702 0.0
C414 C 0.78901 0.50341 0.44997 0.0
C415 C 0.83506 0.49747 0.44752 0.0
O416 O 0.83418 0.4972 0.45863 0.0
O417 O 0.82938 0.50452 0.44154 0.0
O418 O 0.77335 0.48469 0.62542 0.0
Cd419 Cd 0.76181 0.49811 0.63447 0.0
O420 O 0.76672 0.48813 0.60698 0.0
Cd421 Cd 0.75089 0.4951 0.61327 0.0
O422 O 0.73384 0.48952 0.6221 0.0
C423 C 0.73397 0.48001 0.62687 0.0
O424 O 0.74404 0.47503 0.62625 0.0
C425 C 0.77394 0.48342 0.61436 0.0
C426 C 0.77658 0.52027 0.63456 0.0
O427 O 0.7789 0.51372 0.64294 0.0
O428 O 0.767 0.51647 0.62625 0.0
O429 O 0.49738 0.11334 0.23085 0.0
Cd430 Cd 0.51279 0.10869 0.24718 0.0
O431 O 0.50037 0.13163 0.23711 0.0
Cd432 Cd 0.51105 0.1289 0.25426 0.0
O433 O 0.51171 0.12641 0.27322 0.0
C434 C 0.5084 0.13423 0.27947 0.0
O435 O 0.50571 0.14342 0.27435 0.0
C436 C 0.49519 0.12343 0.22932 0.0
C437 C 0.53674 0.10881 0.2393 0.0
O438 O 0.52803 0.09954 0.23841 0.0
O439 O 0.53422 0.11796 0.24415 0.0
O440 O 0.03221 0.86479 0.79089 0.0
Cd441 Cd 0.02333 0.86705 0.80938 0.0
O442 O 0.01973 0.876 0.78266 0.0
Cd443 Cd 0.01029 0.88436 0.76806 0.0
O444 O 0.9973 0.89069 0.75437 0.0
C445 C 0.98856 0.88328 0.74789 0.0
O446 O 0.988 0.87229 0.74957 0.0
C447 C 0.02834 0.86987 0.78186 0.0
C448 C 0.0434 0.87354 0.82849 0.0
O449 O 0.03865 0.86288 0.82535 0.0
O450 O 0.03858 0.88114 0.82263 0.0
O451 O 0.37782 0.80987 0.22243 0.0
Cd452 Cd 0.38748 0.80338 0.20562 0.0
O453 O 0.3977 0.81781 0.23071 0.0
Cd454 Cd 0.41257 0.82596 0.24553 0.0
O455 O 0.42914 0.83085 0.25982 0.0
C456 C 0.43106 0.82367 0.26755 0.0
O457 O 0.42285 0.81374 0.26682 0.0
C458 C 0.38548 0.81567 0.23113 0.0
C459 C 0.38134 0.81467 0.18522 0.0
O460 O 0.37434 0.805 0.18705 0.0
O461 O 0.39122 0.819 0.19306 0.0
O462 O 0.85542 0.72684 0.03083 0.0
Cd463 Cd 0.84986 0.74115 0.01723 0.0
O464 O 0.86327 0.71815 0.01687 0.0
Cd465 Cd 0.8737 0.70577 0.00963 0.0
O466 O 0.88332 0.69421 0.00011 0.0
C467 C 0.88887 0.6979 0.9914 0.0
O468 O 0.88877 0.70854 0.9886 0.0
C469 C 0.86085 0.71878 0.02751 0.0
C470 C 0.84922 0.76149 0.03021 0.0
O471 O 0.83883 0.75377 0.02721 0.0
O472 O 0.85985 0.75965 0.0269 0.0
O473 O 0.61204 0.29659 0.57984 0.0
Cd474 Cd 0.61599 0.28614 0.56209 0.0
O475 O 0.59171 0.29724 0.57273 0.0
Cd476 Cd 0.59477 0.29243 0.55475 0.0
O477 O 0.60204 0.29886 0.53874 0.0
C478 C 0.61321 0.3055 0.54037 0.0
O479 O 0.61976 0.30739 0.5512 0.0
C480 C 0.60112 0.29914 0.58132 0.0
C481 C 0.62863 0.26821 0.56869 0.0
O482 O 0.63517 0.27813 0.56702 0.0
O483 O 0.61612 0.26675 0.56707 0.0
O484 O 0.2436 0.52165 0.06208 0.0
Cd485 Cd 0.2595 0.53934 0.06102 0.0
O486 O 0.25785 0.51621 0.07545 0.0
Cd487 Cd 0.26506 0.50383 0.08707 0.0
O488 O 0.2729 0.49048 0.09665 0.0
C489 C 0.27046 0.48025 0.09187 0.0
O490 O 0.26307 0.478 0.08142 0.0
C491 C 0.24653 0.51432 0.06929 0.0
C492 C 0.2508 0.55805 0.07065 0.0
O493 O 0.24818 0.55508 0.05947 0.0
O494 O 0.25773 0.55227 0.07724 0.0
O495 O 0.25645 0.487 0.88662 0.0
Cd496 Cd 0.24845 0.50507 0.88622 0.0
O497 O 0.23693 0.47812 0.87827 0.0
Cd498 Cd 0.22177 0.46302 0.87176 0.0
O499 O 0.20503 0.44878 0.86753 0.0
C500 C 0.20651 0.4384 0.86633 0.0
O501 O 0.21839 0.43624 0.86744 0.0
C502 C 0.2487 0.47773 0.88233 0.0
C503 C 0.26516 0.52211 0.87652 0.0
O504 O 0.26626 0.52126 0.8878 0.0
O505 O 0.25614 0.51492 0.86985 0.0
O506 O 0.23875 0.47628 0.55322 0.0
Cd507 Cd 0.22768 0.45608 0.5514 0.0
O508 O 0.22556 0.4804 0.5654 0.0
Cd509 Cd 0.21751 0.49204 0.57651 0.0
O510 O 0.21115 0.50465 0.58778 0.0
C511 C 0.21374 0.51529 0.58591 0.0
O512 O 0.22021 0.51849 0.57713 0.0
C513 C 0.23526 0.48362 0.55996 0.0
C514 C 0.24487 0.44248 0.56108 0.0
O515 O 0.2438 0.44442 0.55002 0.0
O516 O 0.23767 0.44685 0.56751 0.0
O517 O 0.22488 0.52117 0.39129 0.0
Cd518 Cd 0.23919 0.50724 0.38994 0.0
O519 O 0.23162 0.52552 0.41041 0.0
Cd520 Cd 0.23839 0.50922 0.41159 0.0
O521 O 0.23094 0.49066 0.40858 0.0
C522 C 0.21853 0.48811 0.40646 0.0
O523 O 0.21196 0.49652 0.40648 0.0
C524 C 0.22517 0.52753 0.40068 0.0
C525 C 0.26441 0.51956 0.38929 0.0
O526 O 0.25653 0.51598 0.37967 0.0
O527 O 0.26047 0.51705 0.39921 0.0
H528 H 0.14742 0.40743 0.06615 0.0
H529 H 0.13895 0.42565 0.09688 0.0
H530 H 0.11631 0.39218 0.08492 0.0
H531 H 0.10173 0.40986 0.09111 0.0
C532 C 0.10837 0.41401 0.09926 0.0
O533 O 0.11964 0.40955 0.10066 0.0
H534 H 0.11087 0.42343 0.09818 0.0
C535 C 0.14168 0.40785 0.07331 0.0
C536 C 0.1315 0.39858 0.07445 0.0
C537 C 0.14454 0.41766 0.08138 0.0
C538 C 0.13703 0.41813 0.09063 0.0
C539 C 0.12681 0.40901 0.09176 0.0
C540 C 0.12411 0.39925 0.08376 0.0
H541 H 0.83184 0.8847 0.36032 0.0
H542 H 0.82375 0.86875 0.39248 0.0
H543 H 0.85564 0.8616 0.3755 0.0
H544 H 0.83993 0.84114 0.38493 0.0
C545 C 0.83691 0.84561 0.39258 0.0
O546 O 0.84268 0.85715 0.39336 0.0
H547 H 0.82607 0.84461 0.39109 0.0
C548 C 0.83387 0.87874 0.36698 0.0
C549 C 0.84454 0.87324 0.36666 0.0
C550 C 0.82636 0.87727 0.37629 0.0
C551 C 0.82941 0.86997 0.38521 0.0
C552 C 0.8398 0.86416 0.38476 0.0
C553 C 0.84744 0.86591 0.3756 0.0
H554 H 0.32713 0.5894 0.60123 0.0
H555 H 0.31471 0.60263 0.5678 0.0
H556 H 0.34536 0.62321 0.59278 0.0
H557 H 0.32542 0.63529 0.58095 0.0
C558 C 0.32432 0.63105 0.57183 0.0
O559 O 0.33125 0.62226 0.57192 0.0
H560 H 0.31375 0.6275 0.56887 0.0
C561 C 0.32807 0.5962 0.59515 0.0
C562 C 0.33729 0.60647 0.59845 0.0
C563 C 0.31984 0.5947 0.58413 0.0
C564 C 0.32081 0.60367 0.57642 0.0
C565 C 0.32995 0.61391 0.57962 0.0
C566 C 0.33815 0.61531 0.59057 0.0
H567 H 0.65212 0.10317 0.88005 0.0
H568 H 0.66006 0.11405 0.91741 0.0
H569 H 0.63633 0.13136 0.89363 0.0
H570 H 0.65368 0.14728 0.91248 0.0
C571 C 0.65534 0.14089 0.91912 0.0
O572 O 0.64682 0.13057 0.91565 0.0
H573 H 0.66564 0.13973 0.91953 0.0
C574 C 0.65083 0.10876 0.88742 0.0
C575 C 0.64341 0.1174 0.8853 0.0
C576 C 0.65693 0.10747 0.89895 0.0
C577 C 0.65559 0.11497 0.90842 0.0
C578 C 0.64827 0.12359 0.90643 0.0
C579 C 0.64216 0.12477 0.89494 0.0
H580 H 0.13836 0.61008 0.3776 0.0
H581 H 0.14602 0.61709 0.41571 0.0
H582 H 0.12055 0.63504 0.39455 0.0
H583 H 0.13856 0.64979 0.41421 0.0
C584 C 0.14021 0.64295 0.42033 0.0
O585 O 0.13177 0.63278 0.41606 0.0
H586 H 0.15054 0.64188 0.4207 0.0
C587 C 0.13689 0.61467 0.3856 0.0
C588 C 0.12852 0.62265 0.38467 0.0
C589 C 0.14333 0.61253 0.39673 0.0
C590 C 0.14134 0.61862 0.407 0.0
C591 C 0.13327 0.62677 0.40614 0.0
C592 C 0.12678 0.62871 0.39505 0.0
H593 H 0.6412 0.90925 0.55956 0.0
H594 H 0.63152 0.92785 0.58942 0.0
H595 H 0.61077 0.89343 0.57875 0.0
H596 H 0.59515 0.91038 0.58435 0.0
C597 C 0.60156 0.91485 0.59248 0.0
O598 O 0.61328 0.91111 0.59399 0.0
H599 H 0.60339 0.92428 0.5913 0.0
C600 C 0.63521 0.90972 0.56652 0.0
C601 C 0.62564 0.90011 0.56807 0.0
C602 C 0.63748 0.91978 0.57417 0.0
C603 C 0.63002 0.92016 0.58347 0.0
C604 C 0.62042 0.91067 0.58504 0.0
C605 C 0.61829 0.90067 0.57743 0.0
H606 H 0.32859 0.40147 0.85505 0.0
H607 H 0.32295 0.38124 0.88506 0.0
H608 H 0.35413 0.37793 0.86535 0.0
H609 H 0.34181 0.35638 0.87298 0.0
C610 C 0.33855 0.35932 0.88129 0.0
O611 O 0.34273 0.37108 0.88346 0.0
H612 H 0.32768 0.35715 0.88014 0.0
C613 C 0.33129 0.39485 0.86063 0.0
C614 C 0.34215 0.39001 0.85883 0.0
C615 C 0.32429 0.39175 0.87003 0.0
C616 C 0.32816 0.38365 0.87769 0.0
C617 C 0.33885 0.37865 0.87589 0.0
C618 C 0.34584 0.38184 0.86654 0.0
H619 H 0.83156 0.09667 0.10332 0.0
H620 H 0.82076 0.10774 0.0683 0.0
H621 H 0.85294 0.12786 0.09188 0.0
H622 H 0.83369 0.14051 0.07946 0.0
C623 C 0.83237 0.13583 0.07052 0.0
O624 O 0.83851 0.12652 0.07114 0.0
H625 H 0.82169 0.13278 0.0676 0.0
C626 C 0.83309 0.10268 0.09651 0.0
C627 C 0.84339 0.11232 0.0989 0.0
C628 C 0.82479 0.10081 0.08549 0.0
C629 C 0.82674 0.109 0.07697 0.0
C630 C 0.83668 0.1188 0.07943 0.0
C631 C 0.84501 0.12042 0.09031 0.0
H632 H 0.12143 0.1316 0.36874 0.0
H633 H 0.14991 0.11685 0.39074 0.0
H634 H 0.13477 0.10199 0.35539 0.0
H635 H 0.13649 0.0853 0.37335 0.0
C636 C 0.14537 0.08987 0.37938 0.0
O637 O 0.15022 0.10022 0.37498 0.0
H638 H 0.1425 0.09146 0.38828 0.0
C639 C 0.12777 0.12537 0.36991 0.0
C640 C 0.12729 0.11699 0.36063 0.0
C641 C 0.13587 0.12548 0.38085 0.0
C642 C 0.14352 0.11696 0.38244 0.0
C643 C 0.143 0.10848 0.37329 0.0
C644 C 0.13498 0.10854 0.36241 0.0
H645 H 0.11113 0.88332 0.69036 0.0
H646 H 0.08819 0.85182 0.67216 0.0
H647 H 0.11984 0.87092 0.65681 0.0
H648 H 0.09745 0.86037 0.63893 0.0
C649 C 0.09305 0.85314 0.64394 0.0
O650 O 0.10134 0.85248 0.65427 0.0
H651 H 0.08353 0.85484 0.64606 0.0
C652 C 0.10914 0.87685 0.68294 0.0
C653 C 0.11679 0.87824 0.67372 0.0
C654 C 0.0987 0.86742 0.68247 0.0
C655 C 0.09603 0.85928 0.67263 0.0
C656 C 0.10364 0.86059 0.66343 0.0
C657 C 0.11395 0.87006 0.66394 0.0
H658 H 0.36409 0.90341 0.88573 0.0
H659 H 0.3861 0.88867 0.86186 0.0
H660 H 0.39318 0.92525 0.86944 0.0
H661 H 0.39393 0.91888 0.84439 0.0
C662 C 0.3959 0.91003 0.8453 0.0
O663 O 0.39932 0.9084 0.85716 0.0
H664 H 0.38681 0.90381 0.84147 0.0
C665 C 0.37168 0.90435 0.88011 0.0
C666 C 0.37848 0.91547 0.87856 0.0
C667 C 0.37425 0.89454 0.87414 0.0
C668 C 0.38377 0.89604 0.86649 0.0
C669 C 0.39042 0.90709 0.86473 0.0
C670 C 0.38783 0.91676 0.87079 0.0
H671 H 0.37925 0.1212 0.1447 0.0
H672 H 0.39581 0.1557 0.13689 0.0
H673 H 0.35629 0.14048 0.12213 0.0
H674 H 0.37047 0.1532 0.10552 0.0
C675 C 0.37773 0.15959 0.1117 0.0
O676 O 0.37489 0.15871 0.12315 0.0
H677 H 0.38758 0.1576 0.1112 0.0
C678 C 0.3784 0.12898 0.14021 0.0
C679 C 0.36653 0.12964 0.1332 0.0
C680 C 0.38904 0.13833 0.14171 0.0
C681 C 0.38768 0.14845 0.13606 0.0
C682 C 0.3759 0.14916 0.129 0.0
C683 C 0.3653 0.13986 0.12771 0.0
H684 H 0.13172 0.89334 0.16047 0.0
H685 H 0.0982 0.88476 0.1785 0.0
H686 H 0.11995 0.91946 0.18182 0.0
H687 H 0.11049 0.91157 0.20439 0.0
C688 C 0.10198 0.90487 0.20026 0.0
O689 O 0.10013 0.90555 0.1881 0.0
H690 H 0.10408 0.89628 0.20252 0.0
C691 C 0.12524 0.89589 0.16627 0.0
C692 C 0.12724 0.90745 0.17078 0.0
C693 C 0.11477 0.88763 0.1689 0.0
C694 C 0.10636 0.89098 0.17635 0.0
C695 C 0.10843 0.90238 0.18113 0.0
C696 C 0.11877 0.9106 0.17832 0.0
H697 H 0.34442 0.83568 0.3458 0.0
H698 H 0.32917 0.86418 0.33097 0.0
H699 H 0.32535 0.85645 0.36693 0.0
H700 H 0.30195 0.86232 0.35358 0.0
C701 C 0.30658 0.86837 0.34748 0.0
O702 O 0.32 0.86991 0.35008 0.0
H703 H 0.30324 0.86453 0.3382 0.0
C704 C 0.33942 0.84282 0.34666 0.0
C705 C 0.33525 0.84524 0.35755 0.0
C706 C 0.33741 0.84959 0.33697 0.0
C707 C 0.33078 0.85874 0.33823 0.0
C708 C 0.32635 0.86109 0.34897 0.0
C709 C 0.32872 0.85446 0.35864 0.0
H710 H 0.37659 0.1321 0.62577 0.0
H711 H 0.41649 0.15047 0.63041 0.0
H712 H 0.40437 0.12576 0.6551 0.0
H713 H 0.41937 0.14844 0.66521 0.0
C714 C 0.42672 0.14977 0.65899 0.0
O715 O 0.42372 0.14106 0.65 0.0
H716 H 0.42642 0.15821 0.65513 0.0
C717 C 0.38644 0.13369 0.63063 0.0
C718 C 0.38924 0.12774 0.6408 0.0
C719 C 0.3962 0.14185 0.62676 0.0
C720 C 0.4089 0.14406 0.63315 0.0
C721 C 0.41171 0.13838 0.64345 0.0
C722 C 0.40197 0.13017 0.64719 0.0
H723 H 0.11938 0.13158 0.8683 0.0
H724 H 0.13489 0.10532 0.85067 0.0
H725 H 0.14807 0.11518 0.88768 0.0
H726 H 0.16749 0.11443 0.87005 0.0
C727 C 0.16328 0.10529 0.86684 0.0
O728 O 0.15073 0.10211 0.86942 0.0
H729 H 0.16304 0.10457 0.85702 0.0
C730 C 0.12552 0.12518 0.86855 0.0
C731 C 0.13336 0.124 0.87929 0.0
C732 C 0.12594 0.11855 0.85808 0.0
C733 C 0.13443 0.11064 0.85853 0.0
C734 C 0.14244 0.10956 0.86915 0.0
C735 C 0.14189 0.11619 0.8795 0.0
H736 H 0.84029 0.33623 0.84415 0.0
H737 H 0.82608 0.36433 0.8272 0.0
H738 H 0.82251 0.35927 0.86379 0.0
H739 H 0.79885 0.36359 0.84898 0.0
C740 C 0.80354 0.36989 0.84311 0.0
O741 O 0.81696 0.37146 0.84578 0.0
H742 H 0.80033 0.36631 0.83373 0.0
C743 C 0.83565 0.34366 0.84442 0.0
C744 C 0.83174 0.34707 0.85511 0.0
C745 C 0.83391 0.34989 0.83426 0.0
C746 C 0.82754 0.35931 0.83483 0.0
C747 C 0.82324 0.36252 0.84539 0.0
C748 C 0.82559 0.35657 0.85558 0.0
H749 H 0.87172 0.62715 0.10792 0.0
H750 H 0.90752 0.64947 0.12435 0.0
H751 H 0.8928 0.6187 0.14053 0.0
H752 H 0.90191 0.63875 0.15684 0.0
C753 C 0.91012 0.64333 0.15257 0.0
O754 O 0.91125 0.63701 0.14242 0.0
H755 H 0.9079 0.65186 0.15023 0.0
C756 C 0.88007 0.62906 0.11492 0.0
C757 C 0.88113 0.62156 0.1241 0.0
C758 C 0.88951 0.63919 0.1149 0.0
C759 C 0.90015 0.6417 0.12415 0.0
C760 C 0.90129 0.63428 0.13331 0.0
C761 C 0.8919 0.6242 0.13322 0.0
H762 H 0.6315 0.63009 0.36663 0.0
H763 H 0.64163 0.60001 0.35042 0.0
H764 H 0.66184 0.61457 0.3846 0.0
H765 H 0.67657 0.60919 0.36407 0.0
C766 C 0.67169 0.59992 0.36315 0.0
O767 O 0.66007 0.59837 0.36775 0.0
H768 H 0.66965 0.59715 0.3535 0.0
C769 C 0.63713 0.6233 0.36695 0.0
C770 C 0.64665 0.6232 0.37686 0.0
C771 C 0.6352 0.61504 0.35727 0.0
C772 C 0.64298 0.60657 0.35767 0.0
C773 C 0.6526 0.60649 0.36748 0.0
C774 C 0.65443 0.61478 0.37703 0.0
H775 H 0.86683 0.39685 0.39152 0.0
H776 H 0.88512 0.38314 0.36397 0.0
H777 H 0.8941 0.41943 0.37391 0.0
H778 H 0.89236 0.41382 0.34805 0.0
C779 C 0.89486 0.4051 0.34837 0.0
O780 O 0.89883 0.40301 0.36 0.0
H781 H 0.88595 0.39867 0.34452 0.0
C782 C 0.87363 0.39812 0.38513 0.0
C783 C 0.8803 0.40931 0.38368 0.0
C784 C 0.87519 0.38862 0.37801 0.0
C785 C 0.88369 0.39037 0.36948 0.0
C786 C 0.89047 0.40146 0.36805 0.0
C787 C 0.88876 0.4109 0.37509 0.0
H788 H 0.61479 0.62859 0.86764 0.0
H789 H 0.64302 0.61436 0.89051 0.0
H790 H 0.62867 0.59891 0.85525 0.0
H791 H 0.63007 0.58264 0.87367 0.0
C792 C 0.63897 0.58726 0.87965 0.0
O793 O 0.64381 0.59755 0.87514 0.0
H794 H 0.63612 0.58894 0.88855 0.0
C795 C 0.62117 0.62243 0.86908 0.0
C796 C 0.62094 0.61392 0.86 0.0
C797 C 0.62907 0.62274 0.88017 0.0
C798 C 0.63679 0.61431 0.88209 0.0
C799 C 0.63652 0.60571 0.87314 0.0
C800 C 0.62869 0.60556 0.86212 0.0
H801 H 0.90921 0.60418 0.91723 0.0
H802 H 0.92606 0.59274 0.8875 0.0
H803 H 0.94226 0.62577 0.90579 0.0
H804 H 0.93643 0.62527 0.87999 0.0
C805 C 0.93935 0.61701 0.87751 0.0
O806 O 0.94318 0.61182 0.88768 0.0
H807 H 0.9307 0.61132 0.87213 0.0
C808 C 0.91677 0.60544 0.91158 0.0
C809 C 0.92595 0.61588 0.91293 0.0
C810 C 0.91667 0.59698 0.90246 0.0
C811 C 0.926 0.59905 0.89468 0.0
C812 C 0.93508 0.60946 0.89586 0.0
C813 C 0.93518 0.61776 0.90504 0.0
H814 H 0.16315 0.1193 0.64823 0.0
H815 H 0.19388 0.12732 0.62678 0.0
H816 H 0.16425 0.14778 0.6258 0.0
H817 H 0.17768 0.13243 0.60355 0.0
C818 C 0.18343 0.1414 0.60545 0.0
O819 O 0.18542 0.14475 0.61745 0.0
H820 H 0.19308 0.1413 0.60257 0.0
C821 C 0.16763 0.12446 0.6417 0.0
C822 C 0.16225 0.1338 0.6375 0.0
C823 C 0.17906 0.12203 0.63793 0.0
C824 C 0.18512 0.12908 0.62989 0.0
C825 C 0.17968 0.13824 0.62545 0.0
C826 C 0.16832 0.14063 0.62927 0.0
H827 H 0.66216 0.4227 0.42343 0.0
H828 H 0.67859 0.41013 0.4559 0.0
H829 H 0.64108 0.39294 0.43791 0.0
H830 H 0.64444 0.39913 0.46397 0.0
C831 C 0.65336 0.39544 0.46638 0.0
O832 O 0.65878 0.39322 0.45636 0.0
H833 H 0.6605 0.40192 0.47256 0.0
C834 C 0.66136 0.41663 0.43028 0.0
C835 C 0.65031 0.40767 0.42936 0.0
C836 C 0.67164 0.41756 0.43978 0.0
C837 C 0.67081 0.40948 0.44845 0.0
C838 C 0.65975 0.40071 0.44776 0.0
C839 C 0.6496 0.39976 0.43823 0.0
H840 H 0.34296 0.88964 0.09485 0.0
H841 H 0.33367 0.89363 0.05733 0.0
H842 H 0.34943 0.86447 0.06896 0.0
H843 H 0.36032 0.87577 0.04899 0.0
C844 C 0.35116 0.87769 0.04407 0.0
O845 O 0.34099 0.87481 0.0505 0.0
H846 H 0.35282 0.88709 0.04277 0.0
C847 C 0.34265 0.88664 0.08565 0.0
C848 C 0.34683 0.87633 0.08308 0.0
C849 C 0.33783 0.89298 0.07646 0.0
C850 C 0.33751 0.88899 0.06457 0.0
C851 C 0.34174 0.87877 0.06194 0.0
C852 C 0.34628 0.87242 0.07115 0.0
H853 H 0.84598 0.39173 0.59649 0.0
H854 H 0.83095 0.39348 0.55948 0.0
H855 H 0.84884 0.36528 0.57036 0.0
H856 H 0.85662 0.37522 0.54879 0.0
C857 C 0.84719 0.37738 0.54481 0.0
O858 O 0.83798 0.37473 0.55229 0.0
H859 H 0.84889 0.38679 0.54355 0.0
C860 C 0.84426 0.38824 0.58732 0.0
C861 C 0.84807 0.37779 0.58458 0.0
C862 C 0.83795 0.39403 0.57841 0.0
C863 C 0.83594 0.38937 0.56655 0.0
C864 C 0.84003 0.37913 0.5637 0.0
C865 C 0.84591 0.37329 0.57269 0.0
H866 H 0.41575 0.10298 0.42064 0.0
H867 H 0.43214 0.09288 0.39006 0.0
H868 H 0.44972 0.12449 0.41062 0.0
H869 H 0.44813 0.12748 0.38615 0.0
C870 C 0.44709 0.11844 0.38244 0.0
O871 O 0.45006 0.11158 0.39153 0.0
H872 H 0.43674 0.11548 0.37817 0.0
C873 C 0.42337 0.10438 0.41506 0.0
C874 C 0.43295 0.11457 0.41708 0.0
C875 C 0.42296 0.09642 0.40539 0.0
C876 C 0.43234 0.09877 0.39768 0.0
C877 C 0.44187 0.1089 0.39958 0.0
C878 C 0.44232 0.11666 0.40935 0.0
H879 H 0.65969 0.6158 0.14972 0.0
H880 H 0.68775 0.62442 0.12569 0.0
H881 H 0.65641 0.64278 0.1259 0.0
H882 H 0.66801 0.62744 0.10307 0.0
C883 C 0.6739 0.6364 0.1042 0.0
O884 O 0.67685 0.64043 0.11603 0.0
H885 H 0.68316 0.63596 0.10072 0.0
C886 C 0.66331 0.62095 0.1428 0.0
C887 C 0.65677 0.62964 0.13855 0.0
C888 C 0.67446 0.61889 0.1382 0.0
C889 C 0.67908 0.6257 0.12929 0.0
C890 C 0.67249 0.63419 0.12484 0.0
C891 C 0.66141 0.63618 0.12946 0.0
H892 H 0.15953 0.91881 0.91897 0.0
H893 H 0.17753 0.91018 0.95285 0.0
H894 H 0.14121 0.88953 0.93609 0.0
H895 H 0.14388 0.89748 0.96162 0.0
C896 C 0.15348 0.89502 0.96449 0.0
O897 O 0.15914 0.89245 0.95473 0.0
H898 H 0.1599 0.90249 0.96996 0.0
C899 C 0.15935 0.91337 0.9264 0.0
C900 C 0.14907 0.90382 0.92621 0.0
C901 C 0.1697 0.91568 0.93593 0.0
C902 C 0.16968 0.90845 0.94538 0.0
C903 C 0.15935 0.89913 0.94542 0.0
C904 C 0.14915 0.89678 0.93586 0.0
H905 H 0.8988 0.89739 0.64467 0.0
H906 H 0.86791 0.91345 0.62857 0.0
H907 H 0.88575 0.92364 0.66465 0.0
H908 H 0.85735 0.92663 0.66111 0.0
C909 C 0.85609 0.92399 0.65145 0.0
O910 O 0.86796 0.92696 0.64741 0.0
H911 H 0.85242 0.91448 0.65038 0.0
C912 C 0.89252 0.90363 0.64519 0.0
C913 C 0.89345 0.91036 0.65587 0.0
C914 C 0.88338 0.90466 0.63527 0.0
C915 C 0.87509 0.91258 0.63609 0.0
C916 C 0.87606 0.91944 0.64665 0.0
C917 C 0.88528 0.91842 0.65648 0.0
H918 H 0.86109 0.10431 0.31738 0.0
H919 H 0.86622 0.14107 0.3145 0.0
H920 H 0.83642 0.12393 0.33317 0.0
H921 H 0.82994 0.14 0.3141 0.0
C922 C 0.8379 0.14735 0.31794 0.0
O923 O 0.84702 0.14361 0.32595 0.0
H924 H 0.84268 0.15109 0.31047 0.0
C925 C 0.85834 0.1125 0.31927 0.0
C926 C 0.8481 0.11288 0.32593 0.0
C927 C 0.86502 0.12261 0.31506 0.0
C928 C 0.86119 0.13313 0.31752 0.0
C929 C 0.85086 0.13353 0.32394 0.0
C930 C 0.84443 0.12347 0.32824 0.0
H931 H 0.63317 0.12912 0.1618 0.0
H932 H 0.65953 0.11537 0.14196 0.0
H933 H 0.64698 0.09845 0.17214 0.0
H934 H 0.67427 0.09715 0.17002 0.0
C935 C 0.6741 0.09918 0.16055 0.0
O936 O 0.66133 0.09805 0.15516 0.0
H937 H 0.6795 0.10821 0.1604 0.0
C938 C 0.63923 0.12282 0.1606 0.0
C939 C 0.63926 0.11381 0.16825 0.0
C940 C 0.64643 0.12346 0.15104 0.0
C941 C 0.65386 0.11502 0.14925 0.0
C942 C 0.65412 0.10611 0.15693 0.0
C943 C 0.64676 0.10545 0.16633 0.0
H944 H 0.61971 0.879 0.84972 0.0
H945 H 0.60275 0.84272 0.84643 0.0
H946 H 0.63272 0.85653 0.87561 0.0
H947 H 0.63503 0.83492 0.86291 0.0
C948 C 0.6246 0.83047 0.86187 0.0
O949 O 0.61702 0.83789 0.8655 0.0
H950 H 0.62136 0.82765 0.85229 0.0
C951 C 0.61925 0.87046 0.85291 0.0
C952 C 0.62736 0.86896 0.86339 0.0
C953 C 0.61025 0.86108 0.84673 0.0
C954 C 0.60948 0.8501 0.85113 0.0
C955 C 0.61763 0.84851 0.86147 0.0
C956 C 0.62644 0.85792 0.86764 0.0
H957 H 0.8832 0.13119 0.89386 0.0
H958 H 0.91496 0.14249 0.87431 0.0
H959 H 0.8914 0.10858 0.86636 0.0
H960 H 0.91852 0.10845 0.86388 0.0
C961 C 0.92201 0.11793 0.86389 0.0
O962 O 0.91142 0.12316 0.86115 0.0
H963 H 0.9273 0.12104 0.87297 0.0
C964 C 0.88909 0.12949 0.88712 0.0
C965 C 0.88603 0.11881 0.88045 0.0
C966 C 0.89944 0.13814 0.88495 0.0
C967 C 0.90681 0.13599 0.876 0.0
C968 C 0.90393 0.12533 0.86939 0.0
C969 C 0.89346 0.11682 0.87149 0.0
H970 H 0.67718 0.18316 0.63832 0.0
H971 H 0.69324 0.15228 0.64009 0.0
H972 H 0.69397 0.1711 0.60883 0.0
H973 H 0.68314 0.14598 0.60576 0.0
C974 C 0.69055 0.14308 0.6123 0.0
O975 O 0.69888 0.15252 0.61847 0.0
H976 H 0.68522 0.13779 0.6186 0.0
C977 C 0.6824 0.1772 0.63448 0.0
C978 C 0.68555 0.17857 0.62293 0.0
C979 C 0.68511 0.16777 0.64082 0.0
C980 C 0.69114 0.15968 0.63546 0.0
C981 C 0.69414 0.16086 0.62391 0.0
C982 C 0.69153 0.17033 0.61774 0.0
H983 H 0.60185 0.84949 0.37915 0.0
H984 H 0.56331 0.82846 0.37005 0.0
H985 H 0.57422 0.85884 0.35161 0.0
H986 H 0.5485 0.85537 0.35978 0.0
C987 C 0.54536 0.84591 0.35754 0.0
O988 O 0.5554 0.84148 0.35367 0.0
H989 H 0.54279 0.84184 0.36577 0.0
C990 C 0.59217 0.84785 0.37396 0.0
C991 C 0.58914 0.85539 0.36528 0.0
C992 C 0.583 0.83806 0.37576 0.0
C993 C 0.57062 0.83587 0.36872 0.0
C994 C 0.56747 0.84341 0.3601 0.0
C995 C 0.57677 0.85305 0.35827 0.0
H996 H 0.85016 0.90642 0.12955 0.0
H997 H 0.87181 0.87887 0.12886 0.0
H998 H 0.83982 0.87928 0.10144 0.0
H999 H 0.84179 0.85781 0.1155 0.0
C1000 C 0.85176 0.85745 0.11345 0.0
O1001 O 0.85756 0.86789 0.1098 0.0
H1002 H 0.85769 0.85552 0.12171 0.0
C1003 C 0.85189 0.89855 0.12539 0.0
C1004 C 0.84395 0.89369 0.11472 0.0
C1005 C 0.862 0.8933 0.1307 0.0
C1006 C 0.86401 0.88305 0.12514 0.0
C1007 C 0.85592 0.87801 0.11473 0.0
C1008 C 0.84601 0.88334 0.1095 0.0
H1009 H 0.16353 0.67536 0.14612 0.0
H1010 H 0.18129 0.6456 0.15094 0.0
H1011 H 0.18342 0.66327 0.11892 0.0
H1012 H 0.17426 0.63771 0.1171 0.0
C1013 C 0.18191 0.63563 0.12399 0.0
O1014 O 0.18911 0.64562 0.13011 0.0
H1015 H 0.17687 0.63007 0.13026 0.0
C1016 C 0.16923 0.66942 0.14301 0.0
C1017 C 0.17331 0.67054 0.1318 0.0
C1018 C 0.17208 0.66049 0.15006 0.0
C1019 C 0.17914 0.65265 0.14575 0.0
C1020 C 0.18318 0.65368 0.13454 0.0
C1021 C 0.18044 0.66269 0.12767 0.0
H1022 H 0.10254 0.34058 0.87847 0.0
H1023 H 0.06114 0.32774 0.86927 0.0
H1024 H 0.07944 0.35718 0.8529 0.0
H1025 H 0.05386 0.35885 0.85898 0.0
C1026 C 0.04914 0.34956 0.85808 0.0
O1027 O 0.05744 0.34308 0.85398 0.0
H1028 H 0.04701 0.34699 0.86702 0.0
C1029 C 0.09321 0.34113 0.87339 0.0
C1030 C 0.09246 0.34991 0.86554 0.0
C1031 C 0.08199 0.3331 0.87486 0.0
C1032 C 0.0699 0.33387 0.86831 0.0
C1033 C 0.06907 0.3425 0.86036 0.0
C1034 C 0.0803 0.35045 0.85895 0.0
H1035 H 0.35301 0.3989 0.62684 0.0
H1036 H 0.37653 0.3729 0.62577 0.0
H1037 H 0.34296 0.37116 0.59929 0.0
H1038 H 0.34754 0.35037 0.61368 0.0
C1039 C 0.35742 0.35055 0.61113 0.0
O1040 O 0.36218 0.36109 0.60704 0.0
H1041 H 0.36403 0.34914 0.6192 0.0
C1042 C 0.35487 0.39106 0.62272 0.0
C1043 C 0.34666 0.3857 0.61239 0.0
C1044 C 0.36571 0.38655 0.62759 0.0
C1045 C 0.36832 0.37659 0.62204 0.0
C1046 C 0.36003 0.37103 0.61194 0.0
C1047 C 0.34931 0.37561 0.60708 0.0
H1048 H 0.12144 0.62325 0.66288 0.0
H1049 H 0.1451 0.6105 0.63929 0.0
H1050 H 0.14108 0.59548 0.67253 0.0
H1051 H 0.1674 0.59624 0.6663 0.0
C1052 C 0.16518 0.59734 0.65662 0.0
O1053 O 0.15183 0.59498 0.65315 0.0
H1054 H 0.16936 0.60643 0.65508 0.0
C1055 C 0.12782 0.61745 0.66088 0.0
C1056 C 0.13063 0.60937 0.66905 0.0
C1057 C 0.13287 0.61794 0.65005 0.0
C1058 C 0.14117 0.61041 0.64761 0.0
C1059 C 0.14416 0.60241 0.65576 0.0
C1060 C 0.13881 0.60181 0.66638 0.0
H1061 H 0.39087 0.37599 0.14074 0.0
H1062 H 0.35761 0.38501 0.11948 0.0
H1063 H 0.36961 0.39963 0.15536 0.0
H1064 H 0.34132 0.39427 0.14869 0.0
C1065 C 0.34064 0.39497 0.13891 0.0
O1066 O 0.35288 0.39901 0.13601 0.0
H1067 H 0.33654 0.38624 0.13443 0.0
C1068 C 0.38291 0.38068 0.13981 0.0
C1069 C 0.38127 0.38786 0.14943 0.0
C1070 C 0.37446 0.37956 0.12895 0.0
C1071 C 0.36417 0.38564 0.12782 0.0
C1072 C 0.36249 0.39286 0.13733 0.0
C1073 C 0.37105 0.39402 0.14808 0.0
H1074 H 0.59977 0.39363 0.1857 0.0
H1075 H 0.57786 0.35967 0.17349 0.0
H1076 H 0.61179 0.37379 0.15806 0.0
H1077 H 0.58854 0.36251 0.14147 0.0
C1078 C 0.58537 0.3549 0.14653 0.0
O1079 O 0.59275 0.35605 0.15767 0.0
H1080 H 0.57491 0.35447 0.14744 0.0
C1081 C 0.59816 0.38593 0.17973 0.0
C1082 C 0.607 0.3849 0.17174 0.0
C1083 C 0.58767 0.37685 0.18054 0.0
C1084 C 0.58593 0.36675 0.17306 0.0
C1085 C 0.59455 0.36574 0.1649 0.0
C1086 C 0.60513 0.37473 0.16434 0.0
H1087 H 0.88523 0.61622 0.63987 0.0
H1088 H 0.90207 0.64717 0.62474 0.0
H1089 H 0.86359 0.62908 0.6101 0.0
H1090 H 0.8782 0.63965 0.59207 0.0
C1091 C 0.88519 0.64661 0.5978 0.0
O1092 O 0.88157 0.64726 0.60897 0.0
H1093 H 0.89511 0.64447 0.59838 0.0
C1094 C 0.88458 0.62238 0.63315 0.0
C1095 C 0.87309 0.62126 0.62489 0.0
C1096 C 0.89516 0.63158 0.63312 0.0
C1097 C 0.89406 0.63997 0.62489 0.0
C1098 C 0.88265 0.63902 0.61668 0.0
C1099 C 0.87224 0.62971 0.61665 0.0
H1100 H 0.62707 0.39655 0.65687 0.0
H1101 H 0.59534 0.38845 0.67716 0.0
H1102 H 0.61825 0.42272 0.68027 0.0
H1103 H 0.61 0.41456 0.70344 0.0
C1104 C 0.60121 0.40807 0.69948 0.0
O1105 O 0.59867 0.40917 0.68741 0.0
H1106 H 0.60323 0.39934 0.70122 0.0
C1107 C 0.62127 0.39917 0.66328 0.0
C1108 C 0.62399 0.41065 0.66812 0.0
C1109 C 0.61095 0.39107 0.66644 0.0
C1110 C 0.60338 0.39454 0.67464 0.0
C1111 C 0.60619 0.40587 0.67972 0.0
C1112 C 0.61644 0.41391 0.67648 0.0
H1113 H 0.35674 0.60499 0.8176 0.0
H1114 H 0.36344 0.64156 0.81311 0.0
H1115 H 0.33501 0.6268 0.83441 0.0
H1116 H 0.327 0.64191 0.81647 0.0
C1117 C 0.33569 0.64906 0.81835 0.0
O1118 O 0.34567 0.64565 0.82566 0.0
H1119 H 0.33913 0.65136 0.80978 0.0
C1120 C 0.35466 0.61347 0.81941 0.0
C1121 C 0.34521 0.61472 0.82673 0.0
C1122 C 0.36142 0.62309 0.81444 0.0
C1123 C 0.35837 0.63398 0.81674 0.0
C1124 C 0.34883 0.63524 0.82384 0.0
C1125 C 0.34242 0.62569 0.82896 0.0
H1126 H 0.13012 0.3857 0.35284 0.0
H1127 H 0.11672 0.3489 0.3518 0.0
H1128 H 0.14852 0.36555 0.3782 0.0
H1129 H 0.15182 0.34338 0.36716 0.0
C1130 C 0.14142 0.3388 0.36573 0.0
O1131 O 0.13368 0.34586 0.36979 0.0
H1132 H 0.13842 0.33655 0.35601 0.0
C1133 C 0.13071 0.37746 0.35646 0.0
C1134 C 0.14029 0.37693 0.36623 0.0
C1135 C 0.12216 0.36742 0.3511 0.0
C1136 C 0.12331 0.35675 0.35565 0.0
C1137 C 0.13287 0.35612 0.36532 0.0
C1138 C 0.14132 0.36616 0.37059 0.0
H1139 H 0.37524 0.61529 0.39518 0.0
H1140 H 0.41007 0.62825 0.38018 0.0
H1141 H 0.38977 0.59344 0.37103 0.0
H1142 H 0.41827 0.59555 0.37288 0.0
C1143 C 0.4209 0.605 0.37203 0.0
O1144 O 0.40981 0.60908 0.36784 0.0
H1145 H 0.42528 0.60916 0.38102 0.0
C1146 C 0.38251 0.61393 0.38966 0.0
C1147 C 0.3812 0.6032 0.38331 0.0
C1148 C 0.39281 0.62309 0.38853 0.0
C1149 C 0.40197 0.62136 0.38108 0.0
C1150 C 0.40087 0.61067 0.37488 0.0
C1151 C 0.39048 0.60166 0.3759 0.0
C1152 C 0.23612 0.49913 0.08151 0.0
C1153 C 0.23684 0.5038 0.07042 0.0
C1154 C 0.22654 0.48951 0.08268 0.0
C1155 C 0.2036 0.465 0.0656 0.0
H1156 H 0.18481 0.46546 0.0926 0.0
C1157 C 0.15699 0.43143 0.06891 0.0
C1158 C 0.15534 0.42737 0.08014 0.0
C1159 C 0.16715 0.44058 0.06775 0.0
C1160 C 0.19007 0.46511 0.08509 0.0
H1161 H 0.22801 0.5022 0.05191 0.0
H1162 H 0.21121 0.48538 0.05394 0.0
H1163 H 0.20231 0.48159 0.09054 0.0
H1164 H 0.16319 0.4296 0.09892 0.0
H1165 H 0.181 0.4455 0.0969 0.0
H1166 H 0.19141 0.4485 0.06017 0.0
C1167 C 0.2182 0.48904 0.06169 0.0
C1168 C 0.2001 0.47436 0.08391 0.0
C1169 C 0.22775 0.4987 0.06054 0.0
C1170 C 0.1641 0.43264 0.09017 0.0
C1171 C 0.17429 0.44176 0.08901 0.0
C1172 C 0.19361 0.45571 0.06681 0.0
C1173 C 0.21744 0.48439 0.0728 0.0
C1174 C 0.20695 0.47443 0.07414 0.0
C1175 C 0.17593 0.44586 0.07778 0.0
C1176 C 0.18669 0.45567 0.07656 0.0
H1177 H 0.24268 0.50312 0.08937 0.0
H1178 H 0.22623 0.48611 0.09135 0.0
H1179 H 0.20882 0.46474 0.05805 0.0
H1180 H 0.15029 0.42764 0.06103 0.0
H1181 H 0.16798 0.44364 0.059 0.0
C1182 C 0.75705 0.9495 0.3663 0.0
C1183 C 0.76095 0.95812 0.37567 0.0
C1184 C 0.7621 0.93939 0.36665 0.0
C1185 C 0.77883 0.92128 0.38667 0.0
H1186 H 0.79293 0.91265 0.35859 0.0
C1187 C 0.81587 0.89086 0.38737 0.0
C1188 C 0.81597 0.88406 0.37697 0.0
C1189 C 0.80732 0.89858 0.38745 0.0
C1190 C 0.78881 0.91474 0.36644 0.0
H1191 H 0.77308 0.9629 0.3928 0.0
H1192 H 0.78187 0.9452 0.39346 0.0
H1193 H 0.78126 0.92853 0.35827 0.0
H1194 H 0.80669 0.87938 0.35876 0.0
H1195 H 0.79145 0.89255 0.35898 0.0
H1196 H 0.78642 0.90751 0.39487 0.0
C1197 C 0.77481 0.94621 0.38589 0.0
C1198 C 0.78215 0.9239 0.36625 0.0
C1199 C 0.76986 0.95637 0.38548 0.0
C1200 C 0.80689 0.88464 0.36686 0.0
C1201 C 0.79823 0.89224 0.36697 0.0
C1202 C 0.78539 0.91203 0.38683 0.0
C1203 C 0.77111 0.93768 0.37641 0.0
C1204 C 0.77725 0.92737 0.37641 0.0
C1205 C 0.7986 0.89957 0.37715 0.0
C1206 C 0.79063 0.90874 0.37676 0.0
H1207 H 0.75048 0.95075 0.35848 0.0
H1208 H 0.75907 0.93296 0.35922 0.0
H1209 H 0.77502 0.9237 0.39459 0.0
H1210 H 0.82287 0.89066 0.39525 0.0
H1211 H 0.80801 0.90416 0.39541 0.0
C1212 C 0.24421 0.50219 0.57233 0.0
C1213 C 0.24257 0.49567 0.56142 0.0
C1214 C 0.25164 0.51338 0.57383 0.0
C1215 C 0.27876 0.5316 0.56265 0.0
H1216 H 0.26791 0.55658 0.57942 0.0
C1217 C 0.29749 0.58355 0.57566 0.0
C1218 C 0.31051 0.58366 0.58062 0.0
C1219 C 0.28869 0.57309 0.57258 0.0
C1220 C 0.27101 0.54971 0.57463 0.0
H1221 H 0.24762 0.49566 0.54358 0.0
H1222 H 0.26075 0.51521 0.54622 0.0
H1223 H 0.25307 0.53785 0.57523 0.0
H1224 H 0.32459 0.57295 0.58597 0.0
H1225 H 0.30924 0.55471 0.58058 0.0
H1226 H 0.29674 0.54339 0.56217 0.0
C1227 C 0.25617 0.51169 0.55359 0.0
C1228 C 0.26257 0.53898 0.57233 0.0
C1229 C 0.24864 0.50052 0.55207 0.0
C1230 C 0.31458 0.57313 0.58227 0.0
C1231 C 0.30583 0.56269 0.57909 0.0
C1232 C 0.28723 0.54229 0.56505 0.0
C1233 C 0.25779 0.51821 0.5645 0.0
C1234 C 0.2664 0.52979 0.56639 0.0
C1235 C 0.29279 0.56256 0.57425 0.0
C1236 C 0.28349 0.55142 0.57115 0.0
H1237 H 0.24023 0.49851 0.5799 0.0
H1238 H 0.25297 0.5181 0.58243 0.0
H1239 H 0.28202 0.52465 0.55815 0.0
H1240 H 0.29408 0.59155 0.57435 0.0
H1241 H 0.27871 0.57323 0.56881 0.0
C1242 C 0.7217 0.03141 0.91231 0.0
C1243 C 0.71923 0.02491 0.92209 0.0
C1244 C 0.7154 0.04062 0.9098 0.0
C1245 C 0.68576 0.05132 0.91424 0.0
H1246 H 0.70461 0.08061 0.90603 0.0
C1247 C 0.67668 0.10046 0.90852 0.0
C1248 C 0.6645 0.09819 0.90114 0.0
C1249 C 0.68366 0.09164 0.91079 0.0
C1250 C 0.69924 0.07249 0.90835 0.0
H1251 H 0.70809 0.02289 0.9368 0.0
H1252 H 0.69705 0.03891 0.93237 0.0
H1253 H 0.71638 0.06504 0.9108 0.0
H1254 H 0.65007 0.08491 0.89039 0.0
H1255 H 0.66226 0.06951 0.89435 0.0
H1256 H 0.66863 0.05876 0.91185 0.0
C1257 C 0.70388 0.0369 0.92667 0.0
C1258 C 0.70595 0.06356 0.91098 0.0
C1259 C 0.71024 0.02776 0.92922 0.0
C1260 C 0.65948 0.08694 0.89603 0.0
C1261 C 0.6664 0.0781 0.89838 0.0
C1262 C 0.67904 0.06021 0.91151 0.0
C1263 C 0.70636 0.04342 0.91691 0.0
C1264 C 0.69928 0.0529 0.91401 0.0
C1265 C 0.67854 0.08035 0.90582 0.0
C1266 C 0.6857 0.07089 0.90856 0.0
H1267 H 0.72811 0.02915 0.90633 0.0
H1268 H 0.71732 0.04535 0.90208 0.0
H1269 H 0.68033 0.04317 0.91642 0.0
H1270 H 0.68084 0.10907 0.9125 0.0
H1271 H 0.69295 0.09361 0.91662 0.0
C1272 C 0.21993 0.5455 0.40973 0.0
C1273 C 0.21768 0.53693 0.40033 0.0
C1274 C 0.21257 0.5542 0.40946 0.0
C1275 C 0.19012 0.56785 0.38886 0.0
H1276 H 0.1798 0.57858 0.41817 0.0
C1277 C 0.14911 0.59384 0.39 0.0
C1278 C 0.15213 0.60401 0.39757 0.0
C1279 C 0.15756 0.58603 0.3905 0.0
C1280 C 0.18271 0.57572 0.40994 0.0
H1281 H 0.20589 0.53071 0.3833 0.0
H1282 H 0.19279 0.54557 0.383 0.0
H1283 H 0.19375 0.56426 0.41867 0.0
H1284 H 0.16649 0.61384 0.41167 0.0
H1285 H 0.181 0.59994 0.41279 0.0
H1286 H 0.17865 0.57905 0.38013 0.0
C1287 C 0.20048 0.54584 0.39044 0.0
C1288 C 0.19075 0.56755 0.41021 0.0
C1289 C 0.20795 0.53725 0.39064 0.0
C1290 C 0.16372 0.60603 0.40583 0.0
C1291 C 0.17208 0.59812 0.40644 0.0
C1292 C 0.18193 0.57587 0.38858 0.0
C1293 C 0.20268 0.55444 0.39984 0.0
C1294 C 0.19451 0.56346 0.39966 0.0
C1295 C 0.16913 0.58811 0.3987 0.0
C1296 C 0.1781 0.57984 0.3991 0.0
H1297 H 0.22742 0.54553 0.41729 0.0
H1298 H 0.21471 0.56078 0.41676 0.0
H1299 H 0.19304 0.56513 0.38059 0.0
H1300 H 0.14015 0.59184 0.38372 0.0
H1301 H 0.15498 0.57828 0.38455 0.0
C1302 C 0.72854 0.00048 0.56877 0.0
C1303 C 0.72904 0.00429 0.55729 0.0
C1304 C 0.71886 0.99123 0.57076 0.0
C1305 C 0.6954 0.96606 0.5555 0.0
H1306 H 0.67725 0.96857 0.58266 0.0
C1307 C 0.64907 0.93333 0.56099 0.0
C1308 C 0.64775 0.92978 0.57247 0.0
C1309 C 0.65901 0.94247 0.5593 0.0
C1310 C 0.68233 0.96766 0.57512 0.0
H1311 H 0.71972 0.00154 0.53891 0.0
H1312 H 0.70279 0.98538 0.54236 0.0
H1313 H 0.69481 0.98423 0.57944 0.0
H1314 H 0.6558 0.93302 0.59116 0.0
H1315 H 0.67324 0.94893 0.58822 0.0
H1316 H 0.68301 0.94949 0.55118 0.0
C1317 C 0.71 0.98942 0.5498 0.0
C1318 C 0.69239 0.97664 0.57328 0.0
C1319 C 0.71963 0.99871 0.54784 0.0
C1320 C 0.65648 0.93566 0.58223 0.0
C1321 C 0.66647 0.94477 0.58054 0.0
C1322 C 0.68539 0.95706 0.55736 0.0
C1323 C 0.70947 0.98561 0.56129 0.0
C1324 C 0.699 0.97596 0.56342 0.0
C1325 C 0.6679 0.94824 0.56904 0.0
C1326 C 0.67868 0.95777 0.56716 0.0
H1327 H 0.73536 0.00486 0.5763 0.0
H1328 H 0.71873 0.98849 0.57971 0.0
H1329 H 0.70044 0.96521 0.54791 0.0
H1330 H 0.64236 0.92909 0.55331 0.0
H1331 H 0.65966 0.94506 0.55035 0.0
C1332 C 0.2633 0.46487 0.89093 0.0
C1333 C 0.2535 0.4668 0.88198 0.0
C1334 C 0.26867 0.45497 0.89014 0.0
C1335 C 0.27551 0.43488 0.8679 0.0
H1336 H 0.28351 0.41681 0.89458 0.0
C1337 C 0.3036 0.39835 0.86272 0.0
C1338 C 0.31347 0.39759 0.87213 0.0
C1339 C 0.29431 0.40508 0.86425 0.0
C1340 C 0.28144 0.42182 0.88706 0.0
H1341 H 0.24179 0.45999 0.86509 0.0
H1342 H 0.25111 0.44266 0.86374 0.0
H1343 H 0.27092 0.43195 0.89678 0.0
H1344 H 0.32117 0.40293 0.89058 0.0
H1345 H 0.30523 0.415 0.89319 0.0
H1346 H 0.28648 0.42527 0.85831 0.0
C1347 C 0.25451 0.44874 0.87144 0.0
C1348 C 0.27418 0.43045 0.88832 0.0
C1349 C 0.24905 0.45858 0.87229 0.0
C1350 C 0.31358 0.40331 0.88322 0.0
C1351 C 0.3044 0.41019 0.88471 0.0
C1352 C 0.28288 0.42637 0.86668 0.0
C1353 C 0.26449 0.44691 0.88028 0.0
C1354 C 0.27125 0.43714 0.87878 0.0
C1355 C 0.29482 0.41138 0.87515 0.0
C1356 C 0.28607 0.41979 0.87627 0.0
H1357 H 0.26695 0.47111 0.89846 0.0
H1358 H 0.27646 0.45386 0.89701 0.0
H1359 H 0.27358 0.44002 0.86045 0.0
H1360 H 0.30325 0.39391 0.85411 0.0
H1361 H 0.28689 0.40554 0.85678 0.0
C1362 C 0.75326 0.00636 0.0728 0.0
C1363 C 0.74603 0.00282 0.06152 0.0
C1364 C 0.76036 0.01761 0.07524 0.0
C1365 C 0.77448 0.04323 0.06009 0.0
H1366 H 0.78074 0.05762 0.09222 0.0
C1367 C 0.80253 0.09032 0.07542 0.0
C1368 C 0.81442 0.09017 0.08278 0.0
C1369 C 0.79304 0.08024 0.07263 0.0
C1370 C 0.77898 0.05369 0.08321 0.0
H1371 H 0.74039 0.00819 0.04394 0.0
H1372 H 0.75231 0.02807 0.0483 0.0
H1373 H 0.76562 0.03913 0.0876 0.0
H1374 H 0.82553 0.07907 0.09281 0.0
H1375 H 0.80863 0.06172 0.08841 0.0
H1376 H 0.78769 0.05807 0.05576 0.0
C1377 C 0.75281 0.0221 0.05522 0.0
C1378 C 0.77043 0.04306 0.08055 0.0
C1379 C 0.74591 0.01075 0.05272 0.0
C1380 C 0.81643 0.07968 0.08738 0.0
C1381 C 0.80681 0.06969 0.0848 0.0
C1382 C 0.7828 0.05399 0.06271 0.0
C1383 C 0.76025 0.02567 0.06649 0.0
C1384 C 0.7683 0.03754 0.06902 0.0
C1385 C 0.79512 0.06989 0.07735 0.0
C1386 C 0.78529 0.05916 0.07433 0.0
H1387 H 0.75377 0.00031 0.07964 0.0
H1388 H 0.76621 0.01987 0.08391 0.0
H1389 H 0.77329 0.03923 0.05116 0.0
H1390 H 0.80049 0.09823 0.07187 0.0
H1391 H 0.78403 0.08053 0.06688 0.0
C1392 C 0.11868 0.20077 0.45132 0.0
C1393 C 0.1195 0.1979 0.46322 0.0
C1394 C 0.12138 0.19328 0.44252 0.0
C1395 C 0.12164 0.16271 0.43585 0.0
H1396 H 0.14347 0.1738 0.41233 0.0
C1397 C 0.13609 0.13116 0.40248 0.0
C1398 C 0.13586 0.13424 0.39066 0.0
C1399 C 0.13507 0.13918 0.41153 0.0
C1400 C 0.13723 0.17058 0.41875 0.0
H1401 H 0.12367 0.18485 0.4752 0.0
H1402 H 0.12824 0.17178 0.45988 0.0
H1403 H 0.13944 0.18739 0.42753 0.0
H1404 H 0.13498 0.14836 0.37922 0.0
H1405 H 0.13275 0.16219 0.39488 0.0
H1406 H 0.11915 0.14597 0.42701 0.0
C1407 C 0.12554 0.17983 0.45733 0.0
C1408 C 0.13495 0.17837 0.42746 0.0
C1409 C 0.12294 0.18733 0.46611 0.0
C1410 C 0.13498 0.14563 0.38819 0.0
C1411 C 0.13387 0.15363 0.39722 0.0
C1412 C 0.12383 0.15495 0.42711 0.0
C1413 C 0.12476 0.1827 0.44544 0.0
C1414 C 0.12715 0.17451 0.43611 0.0
C1415 C 0.13372 0.15047 0.40898 0.0
C1416 C 0.13168 0.15876 0.41845 0.0
H1417 H 0.11554 0.20859 0.44868 0.0
H1418 H 0.12047 0.19562 0.43339 0.0
H1419 H 0.11542 0.15951 0.4423 0.0
H1420 H 0.13667 0.12245 0.4047 0.0
H1421 H 0.13523 0.1365 0.42052 0.0
C1422 C 0.03537 0.87748 0.76305 0.0
C1423 C 0.03379 0.86849 0.7707 0.0
C1424 C 0.04132 0.87635 0.75291 0.0
C1425 C 0.06425 0.86046 0.74102 0.0
H1426 H 0.05266 0.87295 0.71135 0.0
C1427 C 0.07695 0.86298 0.68976 0.0
C1428 C 0.09064 0.86617 0.69225 0.0
C1429 C 0.06937 0.86235 0.69899 0.0
C1430 C 0.05594 0.8693 0.71953 0.0
H1431 H 0.03711 0.85126 0.77373 0.0
H1432 H 0.04737 0.84923 0.75598 0.0
H1433 H 0.04015 0.87338 0.72785 0.0
H1434 H 0.10713 0.87085 0.7064 0.0
H1435 H 0.09394 0.86996 0.72244 0.0
H1436 H 0.07998 0.85632 0.7327 0.0
C1437 C 0.04412 0.85719 0.75784 0.0
C1438 C 0.04885 0.86967 0.72903 0.0
C1439 C 0.0382 0.85833 0.76798 0.0
C1440 C 0.0966 0.8685 0.70417 0.0
C1441 C 0.08904 0.86786 0.71338 0.0
C1442 C 0.07133 0.8601 0.73154 0.0
C1443 C 0.04588 0.86624 0.75025 0.0
C1444 C 0.05299 0.86534 0.73992 0.0
C1445 C 0.07533 0.86485 0.7109 0.0
C1446 C 0.06734 0.86463 0.72072 0.0
H1447 H 0.03254 0.88557 0.76514 0.0
H1448 H 0.04277 0.88358 0.7474 0.0
H1449 H 0.0678 0.85717 0.74932 0.0
H1450 H 0.07206 0.86121 0.68066 0.0
H1451 H 0.05884 0.8599 0.69679 0.0
C1452 C 0.30871 0.79727 0.87587 0.0
C1453 C 0.30224 0.79553 0.88584 0.0
C1454 C 0.31674 0.80787 0.87471 0.0
C1455 C 0.32385 0.83868 0.88627 0.0
H1456 H 0.35527 0.83957 0.87182 0.0
C1457 C 0.36306 0.88006 0.88682 0.0
C1458 C 0.36678 0.88284 0.87572 0.0
C1459 C 0.35547 0.8693 0.88817 0.0
C1460 C 0.34649 0.83943 0.87582 0.0
H1461 H 0.29832 0.80384 0.90191 0.0
H1462 H 0.31301 0.82202 0.90043 0.0
H1463 H 0.34153 0.82102 0.87415 0.0
H1464 H 0.36547 0.87633 0.85734 0.0
H1465 H 0.35261 0.85742 0.85985 0.0
H1466 H 0.32908 0.85713 0.88819 0.0
C1467 C 0.31189 0.81525 0.89343 0.0
C1468 C 0.33856 0.82882 0.8771 0.0
C1469 C 0.30372 0.80469 0.89448 0.0
C1470 C 0.36299 0.87446 0.86607 0.0
C1471 C 0.35557 0.86364 0.86747 0.0
C1472 C 0.33189 0.84928 0.88514 0.0
C1473 C 0.31851 0.81699 0.88352 0.0
C1474 C 0.32709 0.8283 0.8823 0.0
C1475 C 0.35161 0.86102 0.8785 0.0
C1476 C 0.34325 0.84975 0.87986 0.0
H1477 H 0.30761 0.79041 0.86896 0.0
H1478 H 0.3214 0.80894 0.86681 0.0
H1479 H 0.31498 0.83868 0.89008 0.0
H1480 H 0.36602 0.88617 0.89452 0.0
H1481 H 0.35269 0.86743 0.89681 0.0
C1482 C 0.48241 0.13626 0.2178 0.0
C1483 C 0.4861 0.12549 0.21884 0.0
C1484 C 0.47304 0.13794 0.20842 0.0
C1485 C 0.44542 0.1215 0.18728 0.0
H1486 H 0.44717 0.15032 0.17206 0.0
C1487 C 0.4064 0.12721 0.1486 0.0
C1488 C 0.40149 0.13744 0.1492 0.0
C1489 C 0.4176 0.12602 0.1562 0.0
C1490 C 0.44652 0.14225 0.17629 0.0
H1491 H 0.48323 0.10816 0.21052 0.0
H1492 H 0.46705 0.11114 0.19407 0.0
H1493 H 0.46535 0.14771 0.18686 0.0
H1494 H 0.40467 0.15455 0.15805 0.0
H1495 H 0.42425 0.15247 0.17135 0.0
H1496 H 0.42657 0.11607 0.17684 0.0
C1497 C 0.4712 0.11823 0.20065 0.0
C1498 C 0.45692 0.14075 0.18476 0.0
C1499 C 0.48054 0.11655 0.21005 0.0
C1500 C 0.40827 0.1466 0.15731 0.0
C1501 C 0.41949 0.14541 0.16492 0.0
C1502 C 0.43506 0.12299 0.17881 0.0
C1503 C 0.46717 0.12888 0.19983 0.0
C1504 C 0.45645 0.13037 0.19041 0.0
C1505 C 0.42416 0.13503 0.16457 0.0
C1506 C 0.43545 0.1334 0.17325 0.0
H1507 H 0.48649 0.14334 0.22442 0.0
H1508 H 0.47008 0.14621 0.20813 0.0
H1509 H 0.44461 0.11348 0.19162 0.0
H1510 H 0.40155 0.12008 0.14229 0.0
H1511 H 0.42109 0.118 0.15555 0.0
C1512 C 0.09719 0.8061 0.09585 0.0
C1513 C 0.10946 0.80371 0.09431 0.0
C1514 C 0.09581 0.81286 0.10581 0.0
C1515 C 0.1128 0.82609 0.13555 0.0
H1516 H 0.09374 0.85045 0.12776 0.0
C1517 C 0.12275 0.87002 0.16237 0.0
C1518 C 0.11231 0.87571 0.16326 0.0
C1519 C 0.12072 0.85945 0.15575 0.0
C1520 C 0.09888 0.84359 0.13019 0.0
H1521 H 0.12978 0.80604 0.10237 0.0
H1522 H 0.12743 0.81797 0.11959 0.0
H1523 H 0.09314 0.83496 0.11285 0.0
H1524 H 0.09143 0.87451 0.1584 0.0
H1525 H 0.08784 0.85595 0.14695 0.0
H1526 H 0.11894 0.83505 0.15279 0.0
C1527 C 0.11882 0.81452 0.11319 0.0
C1528 C 0.09853 0.83467 0.12162 0.0
C1529 C 0.12018 0.80774 0.10326 0.0
C1530 C 0.09967 0.87032 0.15791 0.0
C1531 C 0.09763 0.85974 0.15127 0.0
C1532 C 0.11317 0.83504 0.14413 0.0
C1533 C 0.10669 0.81741 0.11444 0.0
C1534 C 0.10572 0.82596 0.1241 0.0
C1535 C 0.10819 0.85434 0.14987 0.0
C1536 C 0.10644 0.84402 0.14145 0.0
H1537 H 0.0887 0.80305 0.08918 0.0
H1538 H 0.08629 0.81476 0.10661 0.0
H1539 H 0.11828 0.81941 0.13782 0.0
H1540 H 0.13258 0.87391 0.16652 0.0
H1541 H 0.12908 0.85557 0.15479 0.0
C1542 C 0.36955 0.81246 0.24557 0.0
C1543 C 0.38024 0.81948 0.24168 0.0
C1544 C 0.36461 0.81599 0.25562 0.0
C1545 C 0.36167 0.84128 0.27372 0.0
H1546 H 0.35822 0.82063 0.29916 0.0
C1547 C 0.33518 0.84815 0.31453 0.0
C1548 C 0.34239 0.84708 0.32567 0.0
C1549 C 0.33966 0.84525 0.30398 0.0
C1550 C 0.35913 0.82646 0.29211 0.0
H1551 H 0.39372 0.83592 0.24482 0.0
H1552 H 0.38498 0.84217 0.26235 0.0
H1553 H 0.36614 0.81453 0.28111 0.0
H1554 H 0.36035 0.84265 0.33433 0.0
H1555 H 0.36781 0.83719 0.31596 0.0
H1556 H 0.35451 0.85317 0.28471 0.0
C1557 C 0.38058 0.83386 0.25773 0.0
C1558 C 0.36357 0.82296 0.28179 0.0
C1559 C 0.38568 0.83023 0.24781 0.0
C1560 C 0.35432 0.84328 0.32596 0.0
C1561 C 0.35866 0.84021 0.31544 0.0
C1562 C 0.35698 0.84471 0.28397 0.0
C1563 C 0.37008 0.82673 0.26178 0.0
C1564 C 0.36499 0.83037 0.27254 0.0
C1565 C 0.35134 0.84108 0.30436 0.0
C1566 C 0.3558 0.83737 0.29329 0.0
H1567 H 0.36515 0.80415 0.24096 0.0
H1568 H 0.35645 0.81038 0.25853 0.0
H1569 H 0.36262 0.84712 0.26667 0.0
H1570 H 0.3259 0.85094 0.31394 0.0
H1571 H 0.33382 0.84595 0.29552 0.0
C1572 C 0.36184 0.20385 0.55097 0.0
C1573 C 0.36599 0.20299 0.53977 0.0
C1574 C 0.36489 0.19645 0.55969 0.0
C1575 C 0.38887 0.17973 0.57037 0.0
H1576 H 0.36168 0.16302 0.58633 0.0
C1577 C 0.4002 0.14893 0.60688 0.0
C1578 C 0.39291 0.14839 0.61636 0.0
C1579 C 0.39682 0.15493 0.59696 0.0
C1580 C 0.36945 0.16775 0.58212 0.0
H1581 H 0.37576 0.19297 0.52879 0.0
H1582 H 0.38178 0.18053 0.54428 0.0
H1583 H 0.3559 0.1748 0.57015 0.0
H1584 H 0.37669 0.15395 0.62315 0.0
H1585 H 0.37111 0.16483 0.60617 0.0
H1586 H 0.40252 0.17319 0.58263 0.0
C1587 C 0.37629 0.18707 0.54627 0.0
C1588 C 0.36609 0.17442 0.57278 0.0
C1589 C 0.37302 0.19435 0.53744 0.0
C1590 C 0.38235 0.15411 0.61586 0.0
C1591 C 0.37911 0.16027 0.60607 0.0
C1592 C 0.39228 0.17323 0.57987 0.0
C1593 C 0.37226 0.18809 0.55746 0.0
C1594 C 0.37578 0.18052 0.56689 0.0
C1595 C 0.38622 0.1607 0.59642 0.0
C1596 C 0.38261 0.16723 0.58595 0.0
H1597 H 0.35635 0.21036 0.55308 0.0
H1598 H 0.3617 0.19741 0.56828 0.0
H1599 H 0.39652 0.18445 0.56601 0.0
H1600 H 0.40834 0.14451 0.60705 0.0
H1601 H 0.40242 0.15491 0.58966 0.0
C1602 C 0.07276 0.15434 0.76868 0.0
C1603 C 0.06124 0.14741 0.76261 0.0
C1604 C 0.07932 0.15075 0.77894 0.0
C1605 C 0.07526 0.1295 0.80206 0.0
H1606 H 0.1131 0.1376 0.80773 0.0
C1607 C 0.12283 0.11996 0.83587 0.0
C1608 C 0.11785 0.12024 0.84671 0.0
C1609 C 0.11558 0.12237 0.82535 0.0
C1610 C 0.10255 0.13509 0.80623 0.0
H1611 H 0.04777 0.13111 0.76224 0.0
H1612 H 0.0593 0.12468 0.77999 0.0
H1613 H 0.10122 0.14342 0.78995 0.0
H1614 H 0.101 0.12277 0.85482 0.0
H1615 H 0.0887 0.12753 0.8367 0.0
H1616 H 0.07664 0.12075 0.81809 0.0
C1617 C 0.06307 0.13309 0.77713 0.0
C1618 C 0.09569 0.13863 0.7961 0.0
C1619 C 0.05642 0.13678 0.76695 0.0
C1620 C 0.10528 0.12269 0.84669 0.0
C1621 C 0.09811 0.12525 0.83622 0.0
C1622 C 0.08213 0.12583 0.81212 0.0
C1623 C 0.07465 0.14001 0.78324 0.0
C1624 C 0.08194 0.13599 0.79393 0.0
C1625 C 0.10321 0.12525 0.82542 0.0
C1626 C 0.09587 0.12866 0.8144 0.0
H1627 H 0.07668 0.16259 0.7655 0.0
H1628 H 0.08803 0.15644 0.78352 0.0
H1629 H 0.06468 0.12739 0.80079 0.0
H1630 H 0.13251 0.1182 0.83553 0.0
H1631 H 0.11974 0.12205 0.81718 0.0
C1632 C 0.87222 0.31328 0.74546 0.0
C1633 C 0.88305 0.32068 0.74222 0.0
C1634 C 0.86643 0.31642 0.75513 0.0
C1635 C 0.86148 0.3412 0.77288 0.0
H1636 H 0.85653 0.32007 0.79773 0.0
C1637 C 0.8324 0.34769 0.81188 0.0
C1638 C 0.83911 0.34671 0.82327 0.0
C1639 C 0.83736 0.34461 0.80165 0.0
C1640 C 0.85783 0.32603 0.79084 0.0
H1641 H 0.89594 0.33737 0.74615 0.0
H1642 H 0.88574 0.34291 0.76304 0.0
H1643 H 0.86595 0.31448 0.78036 0.0
H1644 H 0.85658 0.34207 0.83272 0.0
H1645 H 0.86485 0.3363 0.81491 0.0
H1646 H 0.85328 0.35273 0.78336 0.0
C1647 C 0.88188 0.33462 0.7582 0.0
C1648 C 0.86315 0.32282 0.7809 0.0
C1649 C 0.8878 0.33139 0.74865 0.0
C1650 C 0.85092 0.34265 0.82414 0.0
C1651 C 0.85574 0.3394 0.81394 0.0
C1652 C 0.85594 0.34434 0.78274 0.0
C1653 C 0.87119 0.32713 0.76157 0.0
C1654 C 0.86514 0.33042 0.77189 0.0
C1655 C 0.84901 0.34033 0.8026 0.0
C1656 C 0.85421 0.33683 0.79186 0.0
H1657 H 0.86833 0.305 0.7406 0.0
H1658 H 0.85815 0.31054 0.75752 0.0
H1659 H 0.86285 0.34718 0.76601 0.0
H1660 H 0.82322 0.35065 0.81084 0.0
H1661 H 0.83197 0.34535 0.79298 0.0
C1662 C 0.86831 0.71423 0.04821 0.0
C1663 C 0.86458 0.71055 0.03611 0.0
C1664 C 0.87158 0.70651 0.05651 0.0
C1665 C 0.88118 0.67805 0.05928 0.0
H1666 H 0.8696 0.68024 0.09009 0.0
C1667 C 0.88379 0.64339 0.09356 0.0
C1668 C 0.88783 0.64739 0.10557 0.0
C1669 C 0.88154 0.6511 0.08489 0.0
C1670 C 0.87303 0.6796 0.08158 0.0
H1671 H 0.86077 0.69579 0.02329 0.0
H1672 H 0.86649 0.68226 0.03777 0.0
H1673 H 0.86438 0.69357 0.07531 0.0
H1674 H 0.89274 0.66261 0.11788 0.0
H1675 H 0.88893 0.67606 0.10274 0.0
H1676 H 0.88968 0.66394 0.06557 0.0
C1677 C 0.86727 0.6912 0.0408 0.0
C1678 C 0.87005 0.68725 0.0731 0.0
C1679 C 0.86406 0.69896 0.03248 0.0
C1680 C 0.88976 0.65928 0.10869 0.0
C1681 C 0.88744 0.66696 0.10004 0.0
C1682 C 0.88411 0.67035 0.06776 0.0
C1683 C 0.87104 0.69488 0.05292 0.0
C1684 C 0.87413 0.68662 0.06186 0.0
C1685 C 0.88318 0.66295 0.08807 0.0
C1686 C 0.88011 0.67108 0.07901 0.0
H1687 H 0.8688 0.72313 0.05125 0.0
H1688 H 0.87462 0.70969 0.06574 0.0
H1689 H 0.88461 0.67741 0.05077 0.0
H1690 H 0.88233 0.63429 0.09088 0.0
H1691 H 0.87819 0.64774 0.07575 0.0
C1692 C 0.55329 0.62517 0.2716 0.0
C1693 C 0.55726 0.63521 0.26586 0.0
C1694 C 0.56124 0.62241 0.28153 0.0
C1695 C 0.59569 0.62884 0.29651 0.0
H1696 H 0.58078 0.61441 0.32275 0.0
C1697 C 0.61345 0.61883 0.34798 0.0
C1698 C 0.6254 0.6156 0.34665 0.0
C1699 C 0.60473 0.62036 0.33803 0.0
C1700 C 0.58512 0.61851 0.31554 0.0
H1701 H 0.57253 0.65029 0.266 0.0
H1702 H 0.58623 0.64571 0.28351 0.0
H1703 H 0.56642 0.61948 0.30599 0.0
H1704 H 0.63729 0.61106 0.33372 0.0
H1705 H 0.62185 0.61324 0.31637 0.0
H1706 H 0.61439 0.62834 0.30625 0.0
C1707 C 0.57713 0.63981 0.28025 0.0
C1708 C 0.57686 0.62129 0.30585 0.0
C1709 C 0.56924 0.64249 0.27027 0.0
C1710 C 0.62816 0.61348 0.3351 0.0
C1711 C 0.61937 0.61491 0.32513 0.0
C1712 C 0.60394 0.62615 0.30624 0.0
C1713 C 0.57332 0.62966 0.28593 0.0
C1714 C 0.58205 0.62655 0.29623 0.0
C1715 C 0.60765 0.61857 0.32647 0.0
C1716 C 0.59878 0.62098 0.31591 0.0
H1717 H 0.5443 0.61921 0.26816 0.0
H1718 H 0.55809 0.61442 0.28552 0.0
H1719 H 0.60004 0.63269 0.28918 0.0
H1720 H 0.61089 0.62034 0.35673 0.0
H1721 H 0.59587 0.62328 0.33944 0.0
C1722 C 0.81068 0.29587 0.3989 0.0
C1723 C 0.80156 0.29042 0.38918 0.0
C1724 C 0.81892 0.30638 0.3978 0.0
C1725 C 0.83415 0.32403 0.37599 0.0
H1726 H 0.83733 0.34948 0.39955 0.0
C1727 C 0.86072 0.37006 0.36926 0.0
C1728 C 0.86765 0.37696 0.37931 0.0
C1729 C 0.85303 0.35932 0.37054 0.0
C1730 C 0.83675 0.34242 0.39299 0.0
H1731 H 0.7943 0.29146 0.37054 0.0
H1732 H 0.80888 0.30971 0.36857 0.0
H1733 H 0.8233 0.33105 0.40172 0.0
H1734 H 0.87235 0.37793 0.39852 0.0
H1735 H 0.85927 0.35905 0.40077 0.0
H1736 H 0.84776 0.33525 0.36735 0.0
C1737 C 0.80951 0.30593 0.37708 0.0
C1738 C 0.82865 0.33188 0.39422 0.0
C1739 C 0.80116 0.2955 0.37823 0.0
C1740 C 0.86698 0.37283 0.39064 0.0
C1741 C 0.85942 0.36203 0.39191 0.0
C1742 C 0.84237 0.33453 0.37482 0.0
C1743 C 0.81842 0.31151 0.38688 0.0
C1744 C 0.82721 0.32261 0.38569 0.0
C1745 C 0.85222 0.35519 0.38189 0.0
C1746 C 0.84373 0.34389 0.38327 0.0
H1747 H 0.81178 0.2919 0.40725 0.0
H1748 H 0.8259 0.31038 0.40543 0.0
H1749 H 0.83334 0.31697 0.36936 0.0
H1750 H 0.86095 0.3731 0.36044 0.0
H1751 H 0.84747 0.3544 0.36262 0.0
C1752 C 0.61171 0.68216 0.96473 0.0
C1753 C 0.60774 0.69261 0.96224 0.0
C1754 C 0.61517 0.67539 0.95578 0.0
C1755 C 0.61096 0.67016 0.92303 0.0
H1756 H 0.63878 0.6531 0.93038 0.0
C1757 C 0.62784 0.64295 0.88702 0.0
C1758 C 0.62878 0.63162 0.88976 0.0
C1759 C 0.62641 0.65103 0.89582 0.0
C1760 C 0.63096 0.65778 0.92821 0.0
H1761 H 0.60366 0.7038 0.94821 0.0
H1762 H 0.6103 0.6923 0.93271 0.0
H1763 H 0.63419 0.66623 0.94568 0.0
H1764 H 0.62929 0.62006 0.90403 0.0
H1765 H 0.62707 0.63427 0.91943 0.0
H1766 H 0.6078 0.66172 0.90553 0.0
C1767 C 0.61072 0.68932 0.9416 0.0
C1768 C 0.62828 0.66528 0.93698 0.0
C1769 C 0.60718 0.69607 0.95056 0.0
C1770 C 0.62876 0.62873 0.90162 0.0
C1771 C 0.62745 0.63686 0.91045 0.0
C1772 C 0.61371 0.66274 0.91423 0.0
C1773 C 0.61475 0.67888 0.9441 0.0
C1774 C 0.61813 0.67145 0.93455 0.0
C1775 C 0.62604 0.64804 0.9076 0.0
C1776 C 0.62365 0.65638 0.91677 0.0
H1777 H 0.61216 0.67919 0.97362 0.0
H1778 H 0.61793 0.66729 0.95801 0.0
H1779 H 0.60294 0.67461 0.92087 0.0
H1780 H 0.62809 0.64555 0.87803 0.0
H1781 H 0.62556 0.65964 0.8934 0.0
C1782 C 0.81371 0.52737 0.89452 0.0
C1783 C 0.80772 0.52478 0.88264 0.0
C1784 C 0.8266 0.53345 0.89718 0.0
C1785 C 0.85685 0.54341 0.88387 0.0
H1786 H 0.86365 0.56744 0.90951 0.0
C1787 C 0.89982 0.5825 0.88899 0.0
C1788 C 0.90612 0.58651 0.90055 0.0
C1789 C 0.88894 0.57348 0.88726 0.0
C1790 C 0.86199 0.56065 0.90244 0.0
H1791 H 0.81068 0.52631 0.86422 0.0
H1792 H 0.833 0.53716 0.86885 0.0
H1793 H 0.84247 0.55449 0.90566 0.0
H1794 H 0.90637 0.58369 0.91929 0.0
H1795 H 0.88727 0.56802 0.91626 0.0
H1796 H 0.8763 0.54993 0.88044 0.0
C1797 C 0.82786 0.53431 0.87614 0.0
C1798 C 0.84983 0.5532 0.90024 0.0
C1799 C 0.81501 0.52814 0.87348 0.0
C1800 C 0.9016 0.58095 0.91029 0.0
C1801 C 0.89068 0.57197 0.90856 0.0
C1802 C 0.86899 0.55093 0.88603 0.0
C1803 C 0.83376 0.53718 0.88803 0.0
C1804 C 0.84705 0.54455 0.89085 0.0
C1805 C 0.88408 0.5683 0.89704 0.0
C1806 C 0.87164 0.5597 0.89527 0.0
H1807 H 0.80841 0.5248 0.90179 0.0
H1808 H 0.83091 0.53532 0.90644 0.0
H1809 H 0.85512 0.53673 0.87669 0.0
H1810 H 0.90291 0.58668 0.88129 0.0
H1811 H 0.88397 0.57092 0.87828 0.0
C1812 C 0.23341 0.04725 0.68197 0.0
C1813 C 0.22499 0.03661 0.68235 0.0
C1814 C 0.22873 0.05641 0.67668 0.0
C1815 C 0.19836 0.06732 0.6692 0.0
H1816 H 0.21783 0.08654 0.6484 0.0
C1817 C 0.17638 0.10147 0.64324 0.0
C1818 C 0.18461 0.11214 0.64246 0.0
C1819 C 0.1815 0.09222 0.64775 0.0
C1820 C 0.21235 0.08134 0.6543 0.0
H1821 H 0.20504 0.02723 0.67761 0.0
H1822 H 0.19686 0.0432 0.66839 0.0
H1823 H 0.2265 0.07047 0.65695 0.0
H1824 H 0.20468 0.12146 0.64578 0.0
H1825 H 0.21365 0.10533 0.6538 0.0
H1826 H 0.1843 0.07821 0.66671 0.0
C1827 C 0.20708 0.04448 0.67218 0.0
C1828 C 0.21731 0.07213 0.65918 0.0
C1829 C 0.21177 0.03533 0.67742 0.0
C1830 C 0.19811 0.11331 0.64616 0.0
C1831 C 0.20325 0.10406 0.65073 0.0
C1832 C 0.19344 0.07655 0.66438 0.0
C1833 C 0.21548 0.05515 0.6718 0.0
C1834 C 0.21033 0.06499 0.66664 0.0
C1835 C 0.19499 0.09342 0.65165 0.0
C1836 C 0.20034 0.08365 0.65682 0.0
H1837 H 0.2435 0.04869 0.68615 0.0
H1838 H 0.23538 0.0646 0.67673 0.0
H1839 H 0.19287 0.06211 0.6751 0.0
H1840 H 0.16596 0.10025 0.64027 0.0
H1841 H 0.17489 0.08409 0.6481 0.0
C1842 C 0.77111 0.4915 0.45892 0.0
C1843 C 0.77579 0.49624 0.44886 0.0
C1844 C 0.75908 0.48386 0.45774 0.0
C1845 C 0.73783 0.46216 0.43688 0.0
H1846 H 0.71123 0.46468 0.45679 0.0
C1847 C 0.69587 0.42449 0.44229 0.0
C1848 C 0.68325 0.42696 0.44063 0.0
C1849 C 0.70683 0.43335 0.443 0.0
C1850 C 0.71857 0.46392 0.45115 0.0
H1851 H 0.77173 0.49656 0.42969 0.0
H1852 H 0.75072 0.48312 0.42762 0.0
H1853 H 0.7309 0.47987 0.4586 0.0
H1854 H 0.67212 0.44058 0.4386 0.0
H1855 H 0.69136 0.45617 0.4401 0.0
H1856 H 0.72568 0.44609 0.42965 0.0
C1857 C 0.75627 0.48548 0.43641 0.0
C1858 C 0.72981 0.47255 0.45222 0.0
C1859 C 0.76819 0.49327 0.43762 0.0
C1860 C 0.68176 0.43847 0.43981 0.0
C1861 C 0.69274 0.44736 0.44074 0.0
C1862 C 0.72671 0.45344 0.43597 0.0
C1863 C 0.75166 0.48063 0.44645 0.0
C1864 C 0.73953 0.47174 0.44509 0.0
C1865 C 0.70536 0.44486 0.44227 0.0
C1866 C 0.717 0.45423 0.4431 0.0
H1867 H 0.77685 0.4936 0.46767 0.0
H1868 H 0.75579 0.48016 0.4656 0.0
H1869 H 0.74524 0.4613 0.43135 0.0
H1870 H 0.69725 0.41568 0.4429 0.0
H1871 H 0.71647 0.43123 0.44426 0.0
C1872 C 0.29403 0.97606 0.11028 0.0
C1873 C 0.28188 0.97633 0.10353 0.0
C1874 C 0.30178 0.96853 0.10674 0.0
C1875 C 0.31048 0.94596 0.10249 0.0
H1876 H 0.3122 0.9375 0.06949 0.0
C1877 C 0.32472 0.90348 0.0883 0.0
C1878 C 0.33264 0.90345 0.07932 0.0
C1879 C 0.31974 0.91325 0.09103 0.0
C1880 C 0.31196 0.93985 0.07876 0.0
H1881 H 0.26861 0.96925 0.08748 0.0
H1882 H 0.28199 0.95599 0.08145 0.0
H1883 H 0.30193 0.95361 0.07436 0.0
H1884 H 0.34159 0.91366 0.06618 0.0
H1885 H 0.33291 0.93079 0.07099 0.0
H1886 H 0.32054 0.93227 0.10691 0.0
C1887 C 0.28564 0.9617 0.08939 0.0
C1888 C 0.30595 0.94901 0.08154 0.0
C1889 C 0.27792 0.96927 0.09289 0.0
C1890 C 0.33543 0.9134 0.07308 0.0
C1891 C 0.33045 0.9232 0.07584 0.0
C1892 C 0.3165 0.93684 0.09971 0.0
C1893 C 0.29753 0.96105 0.09641 0.0
C1894 C 0.30496 0.95206 0.09343 0.0
C1895 C 0.32257 0.92324 0.08487 0.0
C1896 C 0.3171 0.93354 0.08781 0.0
H1897 H 0.29744 0.98146 0.11846 0.0
H1898 H 0.31101 0.96841 0.11224 0.0
H1899 H 0.30978 0.94796 0.11173 0.0
H1900 H 0.32216 0.89588 0.09309 0.0
H1901 H 0.31347 0.91288 0.09785 0.0
C1902 C 0.7849 0.47575 0.59829 0.0
C1903 C 0.78254 0.47603 0.61016 0.0
C1904 C 0.79255 0.46831 0.59431 0.0
C1905 C 0.81577 0.44946 0.60539 0.0
H1906 H 0.8044 0.4333 0.5742 0.0
C1907 C 0.82798 0.40571 0.59233 0.0
C1908 C 0.83302 0.40461 0.58158 0.0
C1909 C 0.82325 0.41553 0.59533 0.0
C1910 C 0.80777 0.43787 0.58287 0.0
H1911 H 0.78641 0.46876 0.62716 0.0
H1912 H 0.79927 0.4556 0.6202 0.0
H1913 H 0.79349 0.44856 0.58037 0.0
H1914 H 0.83702 0.41318 0.56559 0.0
H1915 H 0.82818 0.43015 0.57068 0.0
H1916 H 0.82957 0.43827 0.60806 0.0
C1917 C 0.7956 0.46132 0.61399 0.0
C1918 C 0.80158 0.44664 0.58641 0.0
C1919 C 0.78811 0.46884 0.61798 0.0
C1920 C 0.83306 0.41361 0.57386 0.0
C1921 C 0.82809 0.42337 0.57678 0.0
C1922 C 0.8218 0.44057 0.60191 0.0
C1923 C 0.79789 0.46091 0.60209 0.0
C1924 C 0.80533 0.45241 0.59781 0.0
C1925 C 0.8232 0.42442 0.58757 0.0
C1926 C 0.81771 0.43458 0.59071 0.0
H1927 H 0.7808 0.48125 0.59206 0.0
H1928 H 0.79425 0.46836 0.58514 0.0
H1929 H 0.81918 0.45389 0.6141 0.0
H1930 H 0.82742 0.39887 0.59837 0.0
H1931 H 0.81933 0.41607 0.60361 0.0
C1932 C 0.31898 0.02773 0.39475 0.0
C1933 C 0.3131 0.02521 0.38283 0.0
C1934 C 0.33186 0.03382 0.39753 0.0
C1935 C 0.36225 0.04404 0.38445 0.0
H1936 H 0.36907 0.06738 0.41075 0.0
C1937 C 0.40579 0.08284 0.39122 0.0
C1938 C 0.4121 0.08619 0.40292 0.0
C1939 C 0.39472 0.07401 0.38905 0.0
C1940 C 0.36738 0.06079 0.40349 0.0
H1941 H 0.31621 0.02689 0.36448 0.0
H1942 H 0.3385 0.03779 0.36931 0.0
H1943 H 0.34778 0.05462 0.40647 0.0
H1944 H 0.41214 0.08239 0.42142 0.0
H1945 H 0.39267 0.06712 0.41761 0.0
H1946 H 0.38179 0.0506 0.38126 0.0
C1947 C 0.3333 0.03486 0.37654 0.0
C1948 C 0.35518 0.05344 0.40104 0.0
C1949 C 0.32047 0.02866 0.37375 0.0
C1950 C 0.40737 0.08018 0.41233 0.0
C1951 C 0.39624 0.07142 0.41016 0.0
C1952 C 0.37444 0.05148 0.38685 0.0
C1953 C 0.33911 0.03765 0.38847 0.0
C1954 C 0.3524 0.04501 0.39143 0.0
C1955 C 0.38967 0.06839 0.39852 0.0
C1956 C 0.37709 0.05998 0.39635 0.0
H1957 H 0.31361 0.02509 0.40196 0.0
H1958 H 0.33608 0.03559 0.40682 0.0
H1959 H 0.36054 0.03753 0.37711 0.0
H1960 H 0.40905 0.08737 0.38378 0.0
H1961 H 0.38977 0.07194 0.37999 0.0
C1962 C 0.72129 0.54049 0.18294 0.0
C1963 C 0.72629 0.5336 0.17505 0.0
C1964 C 0.71633 0.55006 0.17904 0.0
C1965 C 0.70203 0.56163 0.15197 0.0
H1966 H 0.71017 0.5907 0.17112 0.0
C1967 C 0.68575 0.60244 0.13452 0.0
C1968 C 0.68114 0.60952 0.14254 0.0
C1969 C 0.69173 0.59345 0.13852 0.0
C1970 C 0.70768 0.58261 0.16573 0.0
H1971 H 0.72948 0.53101 0.15678 0.0
H1972 H 0.72107 0.54784 0.15002 0.0
H1973 H 0.71972 0.57449 0.17808 0.0
H1974 H 0.67947 0.61281 0.16113 0.0
H1975 H 0.68956 0.59693 0.16807 0.0
H1976 H 0.68984 0.56963 0.1397 0.0
C1977 C 0.72108 0.54591 0.15924 0.0
C1978 C 0.71317 0.57333 0.16971 0.0
C1979 C 0.72611 0.53638 0.16316 0.0
C1980 C 0.68276 0.60744 0.15469 0.0
C1981 C 0.6887 0.59842 0.15869 0.0
C1982 C 0.69648 0.57088 0.14802 0.0
C1983 C 0.71611 0.55283 0.16713 0.0
C1984 C 0.71041 0.56275 0.16287 0.0
C1985 C 0.69321 0.59128 0.15065 0.0
C1986 C 0.69923 0.58148 0.15484 0.0
H1987 H 0.72122 0.53847 0.19213 0.0
H1988 H 0.71241 0.55514 0.18529 0.0
H1989 H 0.69954 0.55353 0.14659 0.0
H1990 H 0.68454 0.60371 0.12509 0.0
H1991 H 0.69524 0.58822 0.1321 0.0
C1992 C 0.26508 0.99324 0.95306 0.0
C1993 C 0.26955 0.9983 0.94307 0.0
C1994 C 0.25325 0.98531 0.95182 0.0
C1995 C 0.23288 0.96332 0.9309 0.0
H1996 H 0.20598 0.96452 0.95081 0.0
C1997 C 0.19358 0.92402 0.93776 0.0
C1998 C 0.18059 0.92561 0.93601 0.0
C1999 C 0.20389 0.93339 0.93796 0.0
C2000 C 0.21339 0.96413 0.94516 0.0
H2001 H 0.26533 0.99893 0.92395 0.0
H2002 H 0.24471 0.98492 0.92174 0.0
H2003 H 0.22491 0.98046 0.95252 0.0
H2004 H 0.16814 0.93818 0.93321 0.0
H2005 H 0.18629 0.9547 0.93389 0.0
H2006 H 0.22162 0.94683 0.92382 0.0
C2007 C 0.25024 0.98727 0.93055 0.0
C2008 C 0.22421 0.97319 0.94617 0.0
C2009 C 0.26194 0.99537 0.93183 0.0
C2010 C 0.17808 0.93675 0.93451 0.0
C2011 C 0.18842 0.94617 0.93496 0.0
C2012 C 0.2222 0.95417 0.93005 0.0
C2013 C 0.24586 0.9821 0.94052 0.0
C2014 C 0.23406 0.97284 0.93907 0.0
C2015 C 0.20141 0.94455 0.93665 0.0
C2016 C 0.2124 0.95447 0.9372 0.0
H2017 H 0.27082 0.99531 0.96182 0.0
H2018 H 0.25013 0.98135 0.95962 0.0
H2019 H 0.2404 0.96281 0.9254 0.0
H2020 H 0.19573 0.9155 0.93888 0.0
H2021 H 0.21383 0.93195 0.93935 0.0
C2022 C 0.87278 0.8287 0.55485 0.0
C2023 C 0.87505 0.81859 0.56015 0.0
C2024 C 0.8736 0.8389 0.56188 0.0
C2025 C 0.88827 0.85305 0.59142 0.0
H2026 H 0.86256 0.8725 0.58566 0.0
C2027 C 0.89353 0.8952 0.61986 0.0
C2028 C 0.88224 0.89701 0.62435 0.0
C2029 C 0.8927 0.88683 0.61061 0.0
C2030 C 0.8698 0.86715 0.58738 0.0
H2031 H 0.87974 0.81127 0.57701 0.0
H2032 H 0.88106 0.82897 0.58918 0.0
H2033 H 0.86085 0.85516 0.57254 0.0
H2034 H 0.86116 0.89187 0.6223 0.0
H2035 H 0.85967 0.87711 0.60619 0.0
H2036 H 0.89701 0.86473 0.60643 0.0
C2037 C 0.87884 0.82907 0.5796 0.0
C2038 C 0.86889 0.85728 0.57981 0.0
C2039 C 0.87801 0.8189 0.57261 0.0
C2040 C 0.87001 0.8907 0.61896 0.0
C2041 C 0.86917 0.88226 0.60973 0.0
C2042 C 0.8892 0.86289 0.59895 0.0
C2043 C 0.87675 0.83921 0.57432 0.0
C2044 C 0.87803 0.85005 0.58186 0.0
C2045 C 0.88056 0.88001 0.60568 0.0
C2046 C 0.87992 0.87001 0.5971 0.0
H2047 H 0.87047 0.82876 0.54528 0.0
H2048 H 0.87201 0.84659 0.55755 0.0
H2049 H 0.89557 0.84775 0.59315 0.0
H2050 H 0.90307 0.90009 0.62372 0.0
H2051 H 0.90162 0.8855 0.60751 0.0
C2052 C 0.94944 0.11462 0.25196 0.0
C2053 C 0.96201 0.12064 0.25676 0.0
C2054 C 0.93886 0.11494 0.25808 0.0
C2055 C 0.9311 0.12101 0.28825 0.0
H2056 H 0.89695 0.12216 0.2711 0.0
C2057 C 0.87743 0.12893 0.29835 0.0
C2058 C 0.87596 0.12221 0.30815 0.0
C2059 C 0.88782 0.1287 0.29197 0.0
C2060 C 0.90645 0.12194 0.27604 0.0
H2061 H 0.9734 0.13168 0.27171 0.0
H2062 H 0.95491 0.13245 0.28229 0.0
H2063 H 0.91534 0.12232 0.26021 0.0
H2064 H 0.88434 0.11 0.31893 0.0
H2065 H 0.90221 0.10933 0.30759 0.0
H2066 H 0.92231 0.12097 0.30412 0.0
C2067 C 0.95322 0.12735 0.27389 0.0
C2068 C 0.91696 0.12188 0.26977 0.0
C2069 C 0.9638 0.12696 0.2678 0.0
C2070 C 0.88508 0.11519 0.31136 0.0
C2071 C 0.89545 0.11492 0.30495 0.0
C2072 C 0.9206 0.12112 0.29452 0.0
C2073 C 0.94062 0.12128 0.26914 0.0
C2074 C 0.92942 0.12141 0.2758 0.0
C2075 C 0.89698 0.12171 0.2952 0.0
C2076 C 0.90814 0.12157 0.2885 0.0
H2077 H 0.94785 0.10933 0.24369 0.0
H2078 H 0.92935 0.10996 0.25428 0.0
H2079 H 0.94051 0.12049 0.29317 0.0
H2080 H 0.87049 0.13433 0.29554 0.0
H2081 H 0.88877 0.13414 0.28461 0.0
C2082 C 0.61977 0.19046 0.07662 0.0
C2083 C 0.62065 0.20181 0.08131 0.0
C2084 C 0.62396 0.18219 0.08385 0.0
C2085 C 0.62852 0.17567 0.11518 0.0
H2086 H 0.64854 0.15372 0.10488 0.0
C2087 C 0.64682 0.14419 0.14729 0.0
C2088 C 0.64574 0.13276 0.14279 0.0
C2089 C 0.64503 0.15282 0.1396 0.0
C2090 C 0.64284 0.15972 0.10784 0.0
H2091 H 0.62675 0.21343 0.09722 0.0
H2092 H 0.63399 0.19903 0.1098 0.0
H2093 H 0.64291 0.16835 0.09164 0.0
H2094 H 0.64224 0.12142 0.12672 0.0
H2095 H 0.63886 0.13645 0.11324 0.0
H2096 H 0.62812 0.16698 0.13122 0.0
C2097 C 0.63003 0.19649 0.10055 0.0
C2098 C 0.63964 0.1681 0.10027 0.0
C2099 C 0.62591 0.20474 0.09333 0.0
C2100 C 0.64324 0.13018 0.13041 0.0
C2101 C 0.64132 0.13881 0.12271 0.0
C2102 C 0.63163 0.16727 0.12271 0.0
C2103 C 0.62896 0.1851 0.09594 0.0
C2104 C 0.63248 0.17619 0.10389 0.0
C2105 C 0.64197 0.1502 0.12722 0.0
C2106 C 0.63887 0.15921 0.11917 0.0
H2107 H 0.61535 0.18779 0.06754 0.0
H2108 H 0.62282 0.17343 0.08009 0.0
H2109 H 0.62276 0.18163 0.11814 0.0
H2110 H 0.64894 0.14644 0.15679 0.0
H2111 H 0.64592 0.16154 0.14338 0.0
C2112 C 0.55011 0.88223 0.75261 0.0
C2113 C 0.53657 0.87795 0.7509 0.0
C2114 C 0.55793 0.88041 0.76304 0.0
C2115 C 0.55645 0.87247 0.79407 0.0
H2116 H 0.59071 0.86565 0.79196 0.0
C2117 C 0.58835 0.85765 0.83379 0.0
C2118 C 0.60169 0.86279 0.8357 0.0
C2119 C 0.58029 0.85941 0.82347 0.0
C2120 C 0.58122 0.86765 0.79271 0.0
H2121 H 0.5207 0.86791 0.7585 0.0
H2122 H 0.53431 0.86474 0.77673 0.0
H2123 H 0.57683 0.86889 0.77394 0.0
H2124 H 0.61708 0.87365 0.8282 0.0
H2125 H 0.60299 0.87677 0.81022 0.0
H2126 H 0.56084 0.87112 0.81286 0.0
C2127 C 0.53885 0.86982 0.77018 0.0
C2128 C 0.57326 0.86953 0.78238 0.0
C2129 C 0.53102 0.87169 0.75976 0.0
C2130 C 0.60682 0.86966 0.82703 0.0
C2131 C 0.59877 0.87135 0.81669 0.0
C2132 C 0.56439 0.87053 0.8044 0.0
C2133 C 0.55241 0.87414 0.77194 0.0
C2134 C 0.5608 0.87202 0.78294 0.0
C2135 C 0.58542 0.86627 0.8148 0.0
C2136 C 0.57688 0.86814 0.80383 0.0
H2137 H 0.55465 0.88708 0.74592 0.0
H2138 H 0.5683 0.884 0.76416 0.0
H2139 H 0.54699 0.87452 0.79485 0.0
H2140 H 0.5841 0.85239 0.84036 0.0
H2141 H 0.57005 0.85529 0.82223 0.0
C2142 C 0.90681 0.23419 0.93304 0.0
C2143 C 0.90686 0.23454 0.94542 0.0
C2144 C 0.9074 0.22394 0.92671 0.0
C2145 C 0.89983 0.1926 0.92846 0.0
H2146 H 0.92089 0.19182 0.90312 0.0
C2147 C 0.90283 0.14968 0.90449 0.0
C2148 C 0.90238 0.14936 0.89208 0.0
C2149 C 0.90463 0.16018 0.91118 0.0
C2150 C 0.91485 0.19191 0.91009 0.0
H2151 H 0.90878 0.22471 0.96098 0.0
H2152 H 0.9094 0.20675 0.94991 0.0
H2153 H 0.92171 0.21004 0.91446 0.0
H2154 H 0.90375 0.15978 0.87695 0.0
H2155 H 0.90665 0.17817 0.88859 0.0
H2156 H 0.89271 0.1746 0.92399 0.0
C2157 C 0.90856 0.21432 0.94507 0.0
C2158 C 0.91535 0.20234 0.9166 0.0
C2159 C 0.90805 0.22458 0.9514 0.0
C2160 C 0.90415 0.15979 0.88652 0.0
C2161 C 0.90584 0.17031 0.89321 0.0
C2162 C 0.89926 0.18221 0.92193 0.0
C2163 C 0.90807 0.21385 0.93263 0.0
C2164 C 0.90784 0.20279 0.92585 0.0
C2165 C 0.9059 0.17062 0.90561 0.0
C2166 C 0.90677 0.18171 0.91266 0.0
H2167 H 0.90599 0.24176 0.9282 0.0
H2168 H 0.90694 0.22384 0.91713 0.0
H2169 H 0.89375 0.19271 0.9354 0.0
H2170 H 0.90172 0.14177 0.90903 0.0
H2171 H 0.90495 0.1601 0.92073 0.0
C2172 C 0.62334 0.1617 0.72424 0.0
C2173 C 0.61606 0.15046 0.72425 0.0
C2174 C 0.63351 0.16395 0.71745 0.0
C2175 C 0.65442 0.14997 0.69976 0.0
H2176 H 0.6539 0.17672 0.68134 0.0
C2177 C 0.67461 0.15493 0.65522 0.0
C2178 C 0.68066 0.16596 0.65257 0.0
C2179 C 0.66913 0.1534 0.66569 0.0
C2180 C 0.65437 0.16934 0.68656 0.0
H2181 H 0.61419 0.13267 0.71758 0.0
H2182 H 0.6317 0.13663 0.70556 0.0
H2183 H 0.64 0.17341 0.6967 0.0
H2184 H 0.68637 0.18392 0.65918 0.0
H2185 H 0.67669 0.18126 0.67743 0.0
H2186 H 0.66847 0.14571 0.68921 0.0
C2187 C 0.6297 0.1437 0.71092 0.0
C2188 C 0.6464 0.16743 0.6954 0.0
C2189 C 0.61959 0.14144 0.71777 0.0
C2190 C 0.68158 0.17535 0.66087 0.0
C2191 C 0.67605 0.17383 0.67132 0.0
C2192 C 0.66236 0.15185 0.69086 0.0
C2193 C 0.63659 0.15503 0.71046 0.0
C2194 C 0.64615 0.15763 0.70198 0.0
C2195 C 0.66953 0.16288 0.67372 0.0
C2196 C 0.66226 0.16146 0.68403 0.0
H2197 H 0.62096 0.16883 0.72924 0.0
H2198 H 0.63878 0.17274 0.71749 0.0
H2199 H 0.65463 0.14243 0.70479 0.0
H2200 H 0.67356 0.14753 0.64896 0.0
H2201 H 0.66403 0.14488 0.66721 0.0
C2202 C 0.62075 0.76667 0.43992 0.0
C2203 C 0.6292 0.77139 0.45034 0.0
C2204 C 0.61499 0.77378 0.43222 0.0
C2205 C 0.61932 0.80393 0.42391 0.0
H2206 H 0.58335 0.79469 0.40858 0.0
C2207 C 0.5937 0.83475 0.39606 0.0
C2208 C 0.58654 0.8302 0.38496 0.0
C2209 C 0.59808 0.82748 0.40437 0.0
C2210 C 0.59343 0.79734 0.41273 0.0
H2211 H 0.63878 0.78735 0.46051 0.0
H2212 H 0.62835 0.79973 0.44739 0.0
H2213 H 0.59269 0.78223 0.42251 0.0
H2214 H 0.57802 0.81441 0.37405 0.0
H2215 H 0.58567 0.80167 0.38862 0.0
H2216 H 0.62009 0.81902 0.41415 0.0
C2217 C 0.62613 0.79052 0.44516 0.0
C2218 C 0.59879 0.7902 0.42069 0.0
C2219 C 0.63191 0.7834 0.45283 0.0
C2220 C 0.58343 0.81817 0.38255 0.0
C2221 C 0.58782 0.81088 0.39089 0.0
C2222 C 0.61395 0.81107 0.41599 0.0
C2223 C 0.61763 0.7858 0.43474 0.0
C2224 C 0.61181 0.79342 0.42638 0.0
C2225 C 0.5954 0.81547 0.4018 0.0
C2226 C 0.60095 0.80787 0.41031 0.0
H2227 H 0.61857 0.75744 0.43772 0.0
H2228 H 0.60867 0.76987 0.42418 0.0
H2229 H 0.62945 0.80657 0.42793 0.0
H2230 H 0.59602 0.84397 0.3983 0.0
H2231 H 0.60366 0.83127 0.4128 0.0
C2232 C 0.92723 0.92165 0.22875 0.0
C2233 C 0.92732 0.9328 0.23353 0.0
C2234 C 0.92108 0.918 0.21716 0.0
C2235 C 0.89631 0.92516 0.19351 0.0
H2236 H 0.90877 0.90287 0.17429 0.0
C2237 C 0.87389 0.91041 0.14452 0.0
C2238 C 0.87031 0.89837 0.14208 0.0
C2239 C 0.88146 0.9151 0.15532 0.0
C2240 C 0.9052 0.90909 0.17959 0.0
H2241 H 0.92132 0.94898 0.22993 0.0
H2242 H 0.91107 0.94284 0.20952 0.0
H2243 H 0.92128 0.91047 0.1936 0.0
H2244 H 0.87188 0.88189 0.14926 0.0
H2245 H 0.88547 0.89014 0.16785 0.0
H2246 H 0.88035 0.92388 0.1793 0.0
C2247 C 0.9154 0.93675 0.21478 0.0
C2248 C 0.9123 0.9134 0.19068 0.0
C2249 C 0.92136 0.94032 0.22644 0.0
C2250 C 0.87465 0.89118 0.15067 0.0
C2251 C 0.88239 0.89589 0.16136 0.0
C2252 C 0.88933 0.92098 0.18233 0.0
C2253 C 0.915 0.92548 0.21003 0.0
C2254 C 0.90787 0.92139 0.19788 0.0
C2255 C 0.8858 0.90788 0.16381 0.0
C2256 C 0.89362 0.9128 0.17534 0.0
H2257 H 0.93144 0.91557 0.23414 0.0
H2258 H 0.92075 0.90919 0.21396 0.0
H2259 H 0.89241 0.93111 0.19885 0.0
H2260 H 0.87096 0.91623 0.13806 0.0
H2261 H 0.88406 0.92439 0.15697 0.0
C2262 C 0.10271 0.65837 0.22752 0.0
C2263 C 0.09468 0.64741 0.22723 0.0
C2264 C 0.11351 0.66 0.22146 0.0
C2265 C 0.13503 0.64464 0.20604 0.0
H2266 H 0.13768 0.67112 0.18699 0.0
C2267 C 0.1604 0.64805 0.16407 0.0
C2268 C 0.16677 0.65897 0.16144 0.0
C2269 C 0.15384 0.64686 0.17397 0.0
C2270 C 0.13728 0.6638 0.19242 0.0
H2271 H 0.09206 0.62947 0.22078 0.0
H2272 H 0.11074 0.63236 0.21004 0.0
H2273 H 0.12212 0.66866 0.20101 0.0
H2274 H 0.17208 0.67707 0.16757 0.0
H2275 H 0.1607 0.67499 0.18489 0.0
H2276 H 0.14995 0.63962 0.1971 0.0
C2277 C 0.1088 0.63968 0.21507 0.0
C2278 C 0.12834 0.66239 0.20048 0.0
C2279 C 0.09802 0.63803 0.22117 0.0
C2280 C 0.16706 0.66857 0.16927 0.0
C2281 C 0.16053 0.66738 0.17917 0.0
C2282 C 0.14398 0.64605 0.19795 0.0
C2283 C 0.11651 0.65073 0.21493 0.0
C2284 C 0.12695 0.65271 0.20726 0.0
C2285 C 0.15354 0.65656 0.18145 0.0
C2286 C 0.14506 0.65556 0.19092 0.0
H2287 H 0.10049 0.66576 0.2322 0.0
H2288 H 0.11939 0.66859 0.2217 0.0
H2289 H 0.13433 0.63717 0.21126 0.0
H2290 H 0.15989 0.64051 0.15814 0.0
H2291 H 0.14844 0.63843 0.17539 0.0
C2292 C 0.10687 0.27325 0.9562 0.0
C2293 C 0.10098 0.2615 0.95474 0.0
C2294 C 0.10387 0.28074 0.94753 0.0
C2295 C 0.09233 0.28119 0.91571 0.0
H2296 H 0.08559 0.31133 0.92444 0.0
C2297 C 0.07422 0.32214 0.89174 0.0
C2298 C 0.08295 0.3241 0.88342 0.0
C2299 C 0.07566 0.31414 0.90028 0.0
C2300 C 0.08735 0.3029 0.92187 0.0
H2301 H 0.08753 0.24836 0.9429 0.0
H2302 H 0.08241 0.26143 0.9277 0.0
H2303 H 0.08952 0.29813 0.93989 0.0
H2304 H 0.09976 0.31899 0.87725 0.0
H2305 H 0.10223 0.30497 0.89211 0.0
H2306 H 0.09029 0.28599 0.8977 0.0
C2307 C 0.08927 0.26485 0.9356 0.0
C2308 C 0.08972 0.2954 0.93071 0.0
C2309 C 0.09219 0.25738 0.94432 0.0
C2310 C 0.09295 0.31771 0.88361 0.0
C2311 C 0.0943 0.30963 0.89206 0.0
C2312 C 0.0901 0.28873 0.90688 0.0
C2313 C 0.09508 0.27661 0.93712 0.0
C2314 C 0.09227 0.28448 0.92773 0.0
C2315 C 0.08576 0.30785 0.90056 0.0
C2316 C 0.08763 0.29968 0.90987 0.0
H2317 H 0.11416 0.27661 0.9638 0.0
H2318 H 0.10871 0.28972 0.94882 0.0
H2319 H 0.09437 0.27286 0.91316 0.0
H2320 H 0.06648 0.327 0.89184 0.0
H2321 H 0.06887 0.31288 0.90668 0.0
C2322 C 0.42366 0.44473 0.71578 0.0
C2323 C 0.4291 0.43919 0.72534 0.0
C2324 C 0.41876 0.43865 0.70479 0.0
C2325 C 0.40329 0.40992 0.69236 0.0
H2326 H 0.40919 0.42193 0.66195 0.0
C2327 C 0.36841 0.39483 0.64859 0.0
C2328 C 0.37409 0.39211 0.63862 0.0
C2329 C 0.37625 0.39999 0.65906 0.0
C2330 C 0.40755 0.41843 0.67038 0.0
H2331 H 0.43357 0.42294 0.73096 0.0
H2332 H 0.42491 0.41226 0.71173 0.0
H2333 H 0.42156 0.43219 0.68041 0.0
H2334 H 0.39236 0.39272 0.63171 0.0
H2335 H 0.40612 0.402 0.65004 0.0
H2336 H 0.38899 0.39637 0.68238 0.0
C2337 C 0.42464 0.42136 0.71271 0.0
C2338 C 0.41456 0.42432 0.68092 0.0
C2339 C 0.42973 0.42749 0.72366 0.0
C2340 C 0.38776 0.39469 0.6393 0.0
C2341 C 0.39561 0.40004 0.64973 0.0
C2342 C 0.39615 0.40413 0.68185 0.0
C2343 C 0.41897 0.42685 0.70322 0.0
C2344 C 0.4124 0.42017 0.692 0.0
C2345 C 0.38991 0.40268 0.65972 0.0
C2346 C 0.39811 0.4084 0.67077 0.0
H2347 H 0.423 0.45373 0.71688 0.0
H2348 H 0.41431 0.44306 0.69766 0.0
H2349 H 0.40136 0.40658 0.70079 0.0
H2350 H 0.3579 0.39285 0.64831 0.0
H2351 H 0.37162 0.40204 0.66661 0.0
C2352 C 0.08775 0.68683 0.58822 0.0
C2353 C 0.09552 0.6927 0.58047 0.0
C2354 C 0.09228 0.6786 0.59522 0.0
C2355 C 0.11719 0.66009 0.59869 0.0
H2356 H 0.10853 0.659 0.63074 0.0
C2357 C 0.13826 0.6322 0.63476 0.0
C2358 C 0.12908 0.62611 0.64125 0.0
C2359 C 0.13469 0.64024 0.62689 0.0
C2360 C 0.11095 0.65915 0.62179 0.0
H2361 H 0.11427 0.69478 0.57417 0.0
H2362 H 0.12226 0.68044 0.58648 0.0
H2363 H 0.10146 0.67327 0.61796 0.0
H2364 H 0.10877 0.62324 0.64402 0.0
H2365 H 0.10267 0.63737 0.63055 0.0
H2366 H 0.12687 0.64599 0.60272 0.0
C2367 C 0.11251 0.68197 0.58692 0.0
C2368 C 0.10686 0.6673 0.61443 0.0
C2369 C 0.10792 0.69016 0.57982 0.0
C2370 C 0.11619 0.62801 0.63944 0.0
C2371 C 0.11267 0.63608 0.63168 0.0
C2372 C 0.12139 0.65197 0.60612 0.0
C2373 C 0.10478 0.67616 0.59479 0.0
C2374 C 0.10974 0.66777 0.60272 0.0
C2375 C 0.1219 0.64237 0.62544 0.0
C2376 C 0.11814 0.65132 0.61768 0.0
H2377 H 0.07812 0.68857 0.58886 0.0
H2378 H 0.08593 0.67413 0.60098 0.0
H2379 H 0.1195 0.66015 0.5897 0.0
H2380 H 0.14829 0.631 0.63599 0.0
H2381 H 0.14201 0.64502 0.62222 0.0
C2382 C 0.40038 0.31291 0.05374 0.0
C2383 C 0.39766 0.31597 0.042 0.0
C2384 C 0.39729 0.31932 0.06321 0.0
C2385 C 0.37723 0.34078 0.07009 0.0
H2386 H 0.40163 0.34675 0.09948 0.0
C2387 C 0.36616 0.36448 0.11202 0.0
C2388 C 0.37662 0.37221 0.11879 0.0
C2389 C 0.36835 0.35732 0.10269 0.0
C2390 C 0.39476 0.34524 0.0913 0.0
H2391 H 0.38988 0.32832 0.031 0.0
H2392 H 0.3848 0.33965 0.04749 0.0
H2393 H 0.40623 0.33495 0.08313 0.0
H2394 H 0.3975 0.37881 0.12088 0.0
H2395 H 0.40132 0.36649 0.10454 0.0
H2396 H 0.366 0.35143 0.07813 0.0
C2397 C 0.38896 0.33211 0.0494 0.0
C2398 C 0.3973 0.33833 0.08198 0.0
C2399 C 0.392 0.32568 0.03995 0.0
C2400 C 0.38928 0.37279 0.11594 0.0
C2401 C 0.39146 0.3657 0.1066 0.0
C2402 C 0.37471 0.34774 0.0794 0.0
C2403 C 0.39156 0.32901 0.06115 0.0
C2404 C 0.38861 0.33606 0.07122 0.0
C2405 C 0.38105 0.3578 0.09991 0.0
C2406 C 0.38349 0.35012 0.0901 0.0
H2407 H 0.40522 0.30578 0.0557 0.0
H2408 H 0.3994 0.31666 0.07214 0.0
H2409 H 0.37023 0.33908 0.06199 0.0
H2410 H 0.35632 0.36379 0.11409 0.0
H2411 H 0.36013 0.35125 0.09782 0.0
C2412 C 0.53616 0.38045 0.26965 0.0
C2413 C 0.53083 0.3902 0.27197 0.0
C2414 C 0.54066 0.37873 0.25884 0.0
C2415 C 0.55395 0.3946 0.23503 0.0
H2416 H 0.54658 0.36462 0.21761 0.0
C2417 C 0.5741 0.38796 0.19121 0.0
C2418 C 0.57897 0.37782 0.18959 0.0
C2419 C 0.56677 0.38925 0.20036 0.0
C2420 C 0.54883 0.37303 0.22242 0.0
H2421 H 0.52643 0.40599 0.26497 0.0
H2422 H 0.53422 0.40296 0.24602 0.0
H2423 H 0.53657 0.36729 0.23541 0.0
H2424 H 0.57986 0.36104 0.19613 0.0
H2425 H 0.56731 0.36335 0.21226 0.0
H2426 H 0.56654 0.4003 0.22237 0.0
C2427 C 0.53476 0.39658 0.25252 0.0
C2428 C 0.54306 0.37455 0.23259 0.0
C2429 C 0.53014 0.39823 0.26329 0.0
C2430 C 0.57609 0.36889 0.1971 0.0
C2431 C 0.56887 0.37022 0.20633 0.0
C2432 C 0.55981 0.39306 0.22493 0.0
C2433 C 0.54011 0.38683 0.2502 0.0
C2434 C 0.54564 0.38533 0.23904 0.0
C2435 C 0.56426 0.38048 0.20818 0.0
C2436 C 0.55741 0.38223 0.21854 0.0
H2437 H 0.53687 0.37415 0.27622 0.0
H2438 H 0.54489 0.37122 0.25737 0.0
H2439 H 0.55625 0.40297 0.23991 0.0
H2440 H 0.57604 0.39492 0.18544 0.0
H2441 H 0.56315 0.39716 0.20135 0.0
C2442 C 0.98419 0.64243 0.717 0.0
C2443 C 0.98793 0.63199 0.71998 0.0
C2444 C 0.97522 0.64281 0.70681 0.0
C2445 C 0.94857 0.6238 0.68678 0.0
H2446 H 0.95132 0.64932 0.66641 0.0
C2447 C 0.9124 0.62236 0.64399 0.0
C2448 C 0.90724 0.63231 0.64179 0.0
C2449 C 0.9231 0.6227 0.65281 0.0
C2450 C 0.95037 0.64218 0.67208 0.0
H2451 H 0.98558 0.61387 0.7143 0.0
H2452 H 0.97009 0.61458 0.69651 0.0
H2453 H 0.96859 0.6492 0.68314 0.0
H2454 H 0.90952 0.65053 0.64685 0.0
H2455 H 0.92823 0.65113 0.66238 0.0
H2456 H 0.93036 0.61681 0.67588 0.0
C2457 C 0.97389 0.62242 0.70216 0.0
C2458 C 0.96026 0.64211 0.68165 0.0
C2459 C 0.98283 0.62204 0.71234 0.0
C2460 C 0.91333 0.64273 0.64831 0.0
C2461 C 0.92405 0.64308 0.65719 0.0
C2462 C 0.93873 0.62387 0.67725 0.0
C2463 C 0.9698 0.63276 0.69939 0.0
C2464 C 0.95947 0.63289 0.68909 0.0
C2465 C 0.92889 0.633 0.65968 0.0
C2466 C 0.93951 0.63303 0.66976 0.0
H2467 H 0.98794 0.65025 0.72269 0.0
H2468 H 0.97219 0.65089 0.70497 0.0
H2469 H 0.9475 0.6167 0.69249 0.0
H2470 H 0.90807 0.61425 0.63894 0.0
H2471 H 0.92677 0.61485 0.65432 0.0
C2472 C 0.61074 0.30899 0.60136 0.0
C2473 C 0.59978 0.30524 0.5926 0.0
C2474 C 0.60995 0.3161 0.61126 0.0
C2475 C 0.59103 0.33742 0.61981 0.0
H2476 H 0.61234 0.33789 0.65055 0.0
C2477 C 0.59497 0.37402 0.65594 0.0
C2478 C 0.60788 0.37917 0.66073 0.0
C2479 C 0.59229 0.36335 0.64938 0.0
C2480 C 0.60632 0.33785 0.64201 0.0
H2481 H 0.57914 0.30538 0.58778 0.0
H2482 H 0.57771 0.31762 0.60518 0.0
H2483 H 0.61044 0.32176 0.63584 0.0
H2484 H 0.628 0.37689 0.66304 0.0
H2485 H 0.62336 0.35835 0.6515 0.0
H2486 H 0.58718 0.35364 0.62584 0.0
C2487 C 0.587 0.31528 0.60425 0.0
C2488 C 0.60525 0.32863 0.63358 0.0
C2489 C 0.58781 0.30821 0.59431 0.0
C2490 C 0.61797 0.37319 0.65933 0.0
C2491 C 0.61529 0.36251 0.65283 0.0
C2492 C 0.59206 0.3466 0.62825 0.0
C2493 C 0.59815 0.31958 0.61267 0.0
C2494 C 0.59785 0.32845 0.62226 0.0
C2495 C 0.60246 0.3576 0.64755 0.0
C2496 C 0.59997 0.34706 0.63933 0.0
H2497 H 0.62011 0.30686 0.60034 0.0
H2498 H 0.61877 0.31933 0.61749 0.0
H2499 H 0.58542 0.33769 0.61113 0.0
H2500 H 0.587 0.37845 0.65684 0.0
H2501 H 0.58229 0.35973 0.6455 0.0
C2502 C 0.45713 0.62313 0.76459 0.0
C2503 C 0.45572 0.61508 0.75481 0.0
C2504 C 0.44647 0.62407 0.77039 0.0
C2505 C 0.41524 0.60756 0.77627 0.0
H2506 H 0.40818 0.63753 0.78521 0.0
C2507 C 0.38035 0.61432 0.8099 0.0
C2508 C 0.37167 0.62181 0.80695 0.0
C2509 C 0.39016 0.61332 0.80302 0.0
C2510 C 0.40998 0.6291 0.78271 0.0
H2511 H 0.4422 0.6014 0.74375 0.0
H2512 H 0.42352 0.60312 0.75382 0.0
H2513 H 0.42611 0.63627 0.77397 0.0
H2514 H 0.36636 0.6339 0.79422 0.0
H2515 H 0.38366 0.6323 0.78239 0.0
H2516 H 0.39916 0.60039 0.78508 0.0
C2517 C 0.43284 0.60878 0.7569 0.0
C2518 C 0.4203 0.62839 0.77636 0.0
C2519 C 0.44348 0.60792 0.75102 0.0
C2520 C 0.37301 0.62821 0.7969 0.0
C2521 C 0.3829 0.62728 0.79009 0.0
C2522 C 0.405 0.60828 0.78272 0.0
C2523 C 0.43423 0.61687 0.76665 0.0
C2524 C 0.42305 0.61761 0.7731 0.0
C2525 C 0.3916 0.61985 0.79309 0.0
C2526 C 0.40228 0.61906 0.78603 0.0
H2527 H 0.46649 0.6287 0.76774 0.0
H2528 H 0.44787 0.63029 0.77797 0.0
H2529 H 0.4172 0.59914 0.77396 0.0
H2530 H 0.37976 0.6094 0.81768 0.0
H2531 H 0.39684 0.60763 0.80564 0.0
C2532 C 0.05656 0.38454 0.25882 0.0
C2533 C 0.04294 0.3809 0.25766 0.0
C2534 C 0.06461 0.38265 0.26907 0.0
C2535 C 0.07976 0.37137 0.28823 0.0
H2536 H 0.06985 0.37611 0.3194 0.0
C2537 C 0.10978 0.36001 0.3309 0.0
C2538 C 0.11214 0.36814 0.34073 0.0
C2539 C 0.10076 0.36098 0.32094 0.0
C2540 C 0.07278 0.3748 0.31076 0.0
H2541 H 0.02714 0.37189 0.26613 0.0
H2542 H 0.04117 0.36874 0.28413 0.0
H2543 H 0.05539 0.37924 0.30165 0.0
H2544 H 0.10656 0.38345 0.34795 0.0
H2545 H 0.09101 0.38526 0.3305 0.0
H2546 H 0.09728 0.36722 0.29732 0.0
C2547 C 0.0456 0.37332 0.27721 0.0
C2548 C 0.06443 0.37647 0.30059 0.0
C2549 C 0.03754 0.37521 0.26694 0.0
C2550 C 0.10509 0.37712 0.34046 0.0
C2551 C 0.09606 0.37808 0.33051 0.0
C2552 C 0.08808 0.36968 0.29839 0.0
C2553 C 0.05924 0.37699 0.27838 0.0
C2554 C 0.06788 0.37487 0.2892 0.0
C2555 C 0.09387 0.37008 0.32059 0.0
C2556 C 0.08474 0.37144 0.30978 0.0
H2557 H 0.06102 0.38894 0.25181 0.0
H2558 H 0.07506 0.38573 0.26974 0.0
H2559 H 0.08263 0.36992 0.27959 0.0
H2560 H 0.11512 0.35303 0.33079 0.0
H2561 H 0.09919 0.35459 0.3135 0.0
C2562 C 0.39906 0.72146 0.43105 0.0
C2563 C 0.39893 0.72255 0.44339 0.0
C2564 C 0.39863 0.7107 0.42525 0.0
C2565 C 0.38864 0.67963 0.42797 0.0
H2566 H 0.41199 0.67666 0.40495 0.0
C2567 C 0.39231 0.63523 0.40706 0.0
C2568 C 0.39389 0.63447 0.395 0.0
C2569 C 0.3932 0.64595 0.41311 0.0
C2570 C 0.40527 0.67735 0.41123 0.0
H2571 H 0.39918 0.71328 0.45941 0.0
H2572 H 0.39791 0.69444 0.44925 0.0
H2573 H 0.41288 0.69542 0.41512 0.0
H2574 H 0.39744 0.64434 0.37977 0.0
H2575 H 0.39873 0.66304 0.39022 0.0
H2576 H 0.38082 0.66165 0.42395 0.0
C2577 C 0.39805 0.70189 0.44403 0.0
C2578 C 0.40581 0.6881 0.41708 0.0
C2579 C 0.39861 0.71267 0.44984 0.0
C2580 C 0.39636 0.64467 0.38911 0.0
C2581 C 0.39714 0.65538 0.39512 0.0
C2582 C 0.388 0.66889 0.42205 0.0
C2583 C 0.39804 0.70079 0.43167 0.0
C2584 C 0.39751 0.68936 0.42551 0.0
C2585 C 0.39557 0.65618 0.40721 0.0
C2586 C 0.39631 0.6676 0.41359 0.0
H2587 H 0.39939 0.72893 0.42584 0.0
H2588 H 0.39857 0.71012 0.41571 0.0
H2589 H 0.38201 0.68037 0.43432 0.0
H2590 H 0.39055 0.62751 0.41186 0.0
H2591 H 0.39218 0.64622 0.42246 0.0
C2592 C 0.11985 0.31183 0.00739 0.0
C2593 C 0.10689 0.30628 0.00325 0.0
C2594 C 0.1225 0.32202 0.01474 0.0
C2595 C 0.10783 0.3463 0.02428 0.0
H2596 H 0.1353 0.3497 0.0514 0.0
C2597 C 0.11569 0.38288 0.06152 0.0
C2598 C 0.12866 0.38818 0.06599 0.0
C2599 C 0.11303 0.37304 0.05364 0.0
C2600 C 0.12771 0.34895 0.04379 0.0
H2601 H 0.08654 0.30718 0.00348 0.0
H2602 H 0.09116 0.32492 0.01639 0.0
H2603 H 0.13068 0.33233 0.03798 0.0
H2604 H 0.14899 0.38724 0.06574 0.0
H2605 H 0.14436 0.37021 0.05183 0.0
H2606 H 0.10485 0.36292 0.03013 0.0
C2607 C 0.09928 0.32144 0.01385 0.0
C2608 C 0.12505 0.33899 0.03609 0.0
C2609 C 0.09663 0.31124 0.0065 0.0
C2610 C 0.1389 0.38344 0.06237 0.0
C2611 C 0.13624 0.3736 0.0545 0.0
C2612 C 0.11049 0.35626 0.03198 0.0
C2613 C 0.11225 0.32691 0.01813 0.0
C2614 C 0.11509 0.33755 0.02625 0.0
C2615 C 0.12327 0.36827 0.05006 0.0
C2616 C 0.12046 0.3577 0.04183 0.0
H2617 H 0.12799 0.30828 0.00501 0.0
H2618 H 0.13259 0.3261 0.01773 0.0
H2619 H 0.10021 0.34552 0.01669 0.0
H2620 H 0.10758 0.38638 0.06404 0.0
H2621 H 0.10293 0.36908 0.05047 0.0
C2622 C 0.91732 0.91494 0.29709 0.0
C2623 C 0.91545 0.92626 0.29549 0.0
C2624 C 0.90981 0.90785 0.30414 0.0
C2625 C 0.87886 0.90486 0.31682 0.0
H2626 H 0.89453 0.88485 0.33805 0.0
C2627 C 0.86665 0.87977 0.36079 0.0
C2628 C 0.85312 0.876 0.35747 0.0
C2629 C 0.87446 0.88422 0.35243 0.0
C2630 C 0.89001 0.89041 0.33219 0.0
H2631 H 0.90441 0.93907 0.3002 0.0
H2632 H 0.89154 0.92684 0.31266 0.0
H2633 H 0.90783 0.89652 0.32537 0.0
H2634 H 0.83728 0.87309 0.3427 0.0
H2635 H 0.85094 0.88051 0.328 0.0
H2636 H 0.86123 0.89923 0.32397 0.0
C2637 C 0.89858 0.92332 0.30827 0.0
C2638 C 0.89761 0.89701 0.32483 0.0
C2639 C 0.90603 0.93037 0.30118 0.0
C2640 C 0.84767 0.87608 0.3455 0.0
C2641 C 0.85549 0.8804 0.33712 0.0
C2642 C 0.87131 0.89833 0.3242 0.0
C2643 C 0.9003 0.91194 0.30977 0.0
C2644 C 0.89215 0.90443 0.31716 0.0
C2645 C 0.86891 0.88489 0.34056 0.0
C2646 C 0.8768 0.8911 0.33207 0.0
H2647 H 0.92449 0.9115 0.29279 0.0
H2648 H 0.91131 0.8991 0.30501 0.0
H2649 H 0.87428 0.91032 0.31089 0.0
H2650 H 0.87107 0.8799 0.37 0.0
H2651 H 0.88472 0.88768 0.35544 0.0
C2652 C 0.36301 0.69292 0.49476 0.0
C2653 C 0.37386 0.70173 0.49889 0.0
C2654 C 0.35752 0.68533 0.50261 0.0
C2655 C 0.36502 0.67394 0.53196 0.0
H2656 H 0.32732 0.66521 0.52958 0.0
C2657 C 0.34026 0.64853 0.56756 0.0
C2658 C 0.32944 0.6397 0.5635 0.0
C2659 C 0.34553 0.6562 0.55969 0.0
C2660 C 0.33787 0.66747 0.53028 0.0
H2661 H 0.38745 0.70947 0.51451 0.0
H2662 H 0.37781 0.69631 0.52819 0.0
H2663 H 0.33684 0.67834 0.51576 0.0
H2664 H 0.31592 0.63164 0.54804 0.0
H2665 H 0.32513 0.64502 0.53421 0.0
H2666 H 0.36606 0.66308 0.54647 0.0
C2667 C 0.37363 0.69518 0.51886 0.0
C2668 C 0.34332 0.67499 0.52236 0.0
C2669 C 0.37911 0.70277 0.51102 0.0
C2670 C 0.3241 0.63855 0.5514 0.0
C2671 C 0.32935 0.64622 0.54352 0.0
C2672 C 0.35957 0.66643 0.53988 0.0
C2673 C 0.36277 0.68637 0.51475 0.0
C2674 C 0.35696 0.67832 0.52311 0.0
C2675 C 0.34016 0.65511 0.54757 0.0
C2676 C 0.34593 0.66312 0.53914 0.0
H2677 H 0.35875 0.69186 0.48545 0.0
H2678 H 0.34926 0.67855 0.49913 0.0
H2679 H 0.37556 0.67619 0.53266 0.0
H2680 H 0.34466 0.64945 0.57683 0.0
H2681 H 0.35378 0.66301 0.56311 0.0
C2682 C 0.59256 0.11806 0.78135 0.0
C2683 C 0.59211 0.1291 0.77744 0.0
C2684 C 0.59754 0.11671 0.79314 0.0
C2685 C 0.60569 0.13185 0.8233 0.0
H2686 H 0.62763 0.1092 0.82927 0.0
C2687 C 0.63679 0.1297 0.86894 0.0
C2688 C 0.63701 0.1187 0.87306 0.0
C2689 C 0.63091 0.13091 0.85739 0.0
C2690 C 0.62141 0.11548 0.82776 0.0
H2691 H 0.59647 0.14737 0.78288 0.0
H2692 H 0.60537 0.14504 0.80337 0.0
H2693 H 0.61809 0.11143 0.80895 0.0
H2694 H 0.6309 0.10033 0.86831 0.0
H2695 H 0.62079 0.10245 0.84812 0.0
H2696 H 0.6092 0.13599 0.84215 0.0
C2697 C 0.60167 0.1374 0.79739 0.0
C2698 C 0.61591 0.11674 0.81611 0.0
C2699 C 0.59663 0.13875 0.78562 0.0
C2700 C 0.63113 0.10893 0.86536 0.0
C2701 C 0.62531 0.11014 0.8538 0.0
C2702 C 0.61125 0.13062 0.83496 0.0
C2703 C 0.60226 0.12636 0.80129 0.0
C2704 C 0.60798 0.12495 0.81373 0.0
C2705 C 0.62516 0.12114 0.84967 0.0
C2706 C 0.61917 0.12242 0.83731 0.0
H2707 H 0.58909 0.11044 0.7753 0.0
H2708 H 0.59764 0.10807 0.79587 0.0
H2709 H 0.59947 0.13813 0.82182 0.0
H2710 H 0.64139 0.13741 0.87456 0.0
H2711 H 0.63111 0.1395 0.85442 0.0
C2712 C 0.12105 0.66307 0.52315 0.0
C2713 C 0.11931 0.67445 0.52516 0.0
C2714 C 0.12436 0.6594 0.5123 0.0
C2715 C 0.13745 0.67036 0.48535 0.0
H2716 H 0.11966 0.64036 0.47061 0.0
C2717 C 0.13626 0.65745 0.4357 0.0
C2718 C 0.13808 0.64629 0.43272 0.0
C2719 C 0.13468 0.66064 0.4473 0.0
C2720 C 0.12482 0.6487 0.47468 0.0
H2721 H 0.11987 0.69093 0.51741 0.0
H2722 H 0.1254 0.68451 0.49852 0.0
H2723 H 0.11588 0.64637 0.49042 0.0
H2724 H 0.14005 0.62981 0.4395 0.0
H2725 H 0.13716 0.63533 0.45985 0.0
H2726 H 0.14616 0.67276 0.46948 0.0
C2727 C 0.12443 0.67845 0.50535 0.0
C2728 C 0.12268 0.65214 0.48604 0.0
C2729 C 0.12117 0.68212 0.51618 0.0
C2730 C 0.13845 0.63841 0.44157 0.0
C2731 C 0.13679 0.64156 0.45317 0.0
C2732 C 0.13952 0.66694 0.47397 0.0
C2733 C 0.12598 0.66703 0.50324 0.0
C2734 C 0.12887 0.66306 0.49147 0.0
C2735 C 0.13491 0.65273 0.45617 0.0
C2736 C 0.13313 0.65613 0.46846 0.0
H2737 H 0.11974 0.65696 0.5299 0.0
H2738 H 0.12565 0.65059 0.51103 0.0
H2739 H 0.14257 0.67873 0.48935 0.0
H2740 H 0.13606 0.66372 0.42905 0.0
H2741 H 0.13314 0.66926 0.44931 0.0
C2742 C 0.54757 0.90264 0.68173 0.0
C2743 C 0.54156 0.89124 0.68313 0.0
C2744 C 0.55438 0.90522 0.67216 0.0
C2745 C 0.57024 0.89192 0.64948 0.0
H2746 H 0.56635 0.91938 0.63306 0.0
C2747 C 0.58873 0.90086 0.60459 0.0
C2748 C 0.59478 0.91222 0.60312 0.0
C2749 C 0.58252 0.89831 0.61452 0.0
C2750 C 0.56765 0.91175 0.63764 0.0
H2751 H 0.53804 0.87358 0.67558 0.0
H2752 H 0.54976 0.8781 0.65881 0.0
H2753 H 0.55499 0.9149 0.65007 0.0
H2754 H 0.59952 0.92977 0.61099 0.0
H2755 H 0.58864 0.92535 0.62838 0.0
H2756 H 0.58283 0.88874 0.63696 0.0
C2757 C 0.54938 0.88504 0.6652 0.0
C2758 C 0.56115 0.90918 0.64739 0.0
C2759 C 0.54259 0.88245 0.67479 0.0
C2760 C 0.59474 0.92097 0.61185 0.0
C2761 C 0.58848 0.91844 0.62177 0.0
C2762 C 0.57672 0.89448 0.6397 0.0
C2763 C 0.55532 0.89646 0.66375 0.0
C2764 C 0.56235 0.89924 0.65343 0.0
C2765 C 0.58227 0.90708 0.62319 0.0
C2766 C 0.57549 0.90441 0.63366 0.0
H2767 H 0.54701 0.90961 0.68803 0.0
H2768 H 0.559 0.91409 0.67141 0.0
H2769 H 0.57155 0.88429 0.65404 0.0
H2770 H 0.58878 0.89398 0.598 0.0
H2771 H 0.57773 0.8895 0.61531 0.0
C2772 C 0.37755 0.31107 0.96906 0.0
C2773 C 0.39098 0.31472 0.97316 0.0
C2774 C 0.37176 0.31526 0.95877 0.0
C2775 C 0.37904 0.32869 0.93127 0.0
H2776 H 0.34665 0.33956 0.93229 0.0
C2777 C 0.35804 0.35519 0.89462 0.0
C2778 C 0.34442 0.35336 0.89149 0.0
C2779 C 0.3636 0.34995 0.90427 0.0
C2780 C 0.35558 0.3364 0.93177 0.0
H2781 H 0.4089 0.32548 0.96959 0.0
H2782 H 0.39879 0.33274 0.95159 0.0
H2783 H 0.35655 0.33124 0.94963 0.0
H2784 H 0.32589 0.34437 0.89568 0.0
H2785 H 0.33556 0.33497 0.91239 0.0
H2786 H 0.37805 0.33377 0.9134 0.0
C2787 C 0.39276 0.32662 0.95632 0.0
C2788 C 0.36126 0.33165 0.94172 0.0
C2789 C 0.39853 0.3225 0.96666 0.0
C2790 C 0.33643 0.34599 0.898 0.0
C2791 C 0.34198 0.34068 0.90761 0.0
C2792 C 0.3733 0.33336 0.92127 0.0
C2793 C 0.3793 0.32311 0.95233 0.0
C2794 C 0.37309 0.32782 0.94161 0.0
C2795 C 0.35564 0.34266 0.91093 0.0
C2796 C 0.36154 0.33734 0.92142 0.0
H2797 H 0.37146 0.30508 0.97386 0.0
H2798 H 0.36139 0.31232 0.95584 0.0
H2799 H 0.38807 0.32567 0.93088 0.0
H2800 H 0.36438 0.36082 0.88969 0.0
H2801 H 0.37413 0.3518 0.90666 0.0
C2802 C 0.91801 0.1201 0.19343 0.0
C2803 C 0.93126 0.12157 0.19197 0.0
C2804 C 0.90833 0.11962 0.18357 0.0
C2805 C 0.9022 0.11286 0.15118 0.0
H2806 H 0.87289 0.12827 0.15212 0.0
C2807 C 0.85734 0.12439 0.11645 0.0
C2808 C 0.85279 0.11359 0.11011 0.0
C2809 C 0.86661 0.12558 0.12672 0.0
C2810 C 0.88106 0.12397 0.15171 0.0
H2811 H 0.94471 0.1239 0.17904 0.0
H2812 H 0.92784 0.12309 0.1619 0.0
H2813 H 0.88988 0.13028 0.16948 0.0
H2814 H 0.85441 0.09558 0.10959 0.0
H2815 H 0.87042 0.09762 0.12756 0.0
H2816 H 0.8935 0.10665 0.1334 0.0
C2817 C 0.92493 0.12218 0.17064 0.0
C2818 C 0.89071 0.12503 0.16168 0.0
C2819 C 0.93461 0.12271 0.18048 0.0
C2820 C 0.85761 0.10399 0.11434 0.0
C2821 C 0.86689 0.10519 0.12456 0.0
C2822 C 0.89253 0.11176 0.14125 0.0
C2823 C 0.91168 0.12054 0.17206 0.0
C2824 C 0.9014 0.1195 0.16151 0.0
C2825 C 0.87158 0.116 0.13082 0.0
C2826 C 0.88184 0.11728 0.1414 0.0
H2827 H 0.9151 0.11921 0.20216 0.0
H2828 H 0.89819 0.11825 0.18494 0.0
H2829 H 0.91023 0.10839 0.1508 0.0
H2830 H 0.85374 0.13193 0.11346 0.0
H2831 H 0.87009 0.13403 0.13131 0.0
C2832 C 0.04556 0.12848 0.27651 0.0
C2833 C 0.03692 0.11818 0.27202 0.0
C2834 C 0.05617 0.12834 0.28531 0.0
C2835 C 0.07682 0.10918 0.29967 0.0
H2836 H 0.08379 0.1327 0.32582 0.0
C2837 C 0.11053 0.10661 0.34386 0.0
C2838 C 0.1184 0.11694 0.34929 0.0
C2839 C 0.10139 0.10674 0.33373 0.0
C2840 C 0.08211 0.12617 0.3185 0.0
H2841 H 0.03279 0.09963 0.27313 0.0
H2842 H 0.05123 0.09941 0.28859 0.0
H2843 H 0.06634 0.133 0.30949 0.0
H2844 H 0.12337 0.13542 0.34797 0.0
H2845 H 0.10749 0.13564 0.33027 0.0
H2846 H 0.09253 0.10229 0.30882 0.0
C2847 C 0.04989 0.10758 0.2852 0.0
C2848 C 0.0721 0.12634 0.30913 0.0
C2849 C 0.03927 0.10772 0.27639 0.0
C2850 C 0.11727 0.12734 0.34412 0.0
C2851 C 0.10816 0.12747 0.33399 0.0
C2852 C 0.08685 0.10901 0.30907 0.0
C2853 C 0.0584 0.1179 0.28984 0.0
C2854 C 0.0693 0.11784 0.29962 0.0
C2855 C 0.09996 0.1172 0.3288 0.0
C2856 C 0.08958 0.11749 0.3186 0.0
H2857 H 0.04407 0.13668 0.27329 0.0
H2858 H 0.06266 0.13643 0.28856 0.0
H2859 H 0.07503 0.10259 0.2924 0.0
H2860 H 0.11108 0.09847 0.34771 0.0
H2861 H 0.09514 0.09869 0.33001 0.0
C2862 C 0.06976 0.75657 0.59197 0.0
C2863 C 0.07929 0.75433 0.58515 0.0
C2864 C 0.07119 0.76727 0.59823 0.0
C2865 C 0.08801 0.79762 0.59909 0.0
H2866 H 0.0799 0.79902 0.63131 0.0
C2867 C 0.10022 0.83992 0.62932 0.0
C2868 C 0.09095 0.84195 0.6365 0.0
C2869 C 0.09869 0.82928 0.6229 0.0
C2870 C 0.08205 0.79879 0.62226 0.0
H2871 H 0.09782 0.76158 0.57956 0.0
H2872 H 0.10033 0.78024 0.59053 0.0
H2873 H 0.07746 0.78034 0.62043 0.0
H2874 H 0.07306 0.83448 0.64295 0.0
H2875 H 0.07018 0.81594 0.63155 0.0
H2876 H 0.09254 0.81607 0.6009 0.0
C2877 C 0.09169 0.77375 0.59095 0.0
C2878 C 0.08067 0.78809 0.61604 0.0
C2879 C 0.09028 0.76303 0.58472 0.0
C2880 C 0.08022 0.83314 0.63731 0.0
C2881 C 0.07866 0.82251 0.63087 0.0
C2882 C 0.08936 0.80833 0.6053 0.0
C2883 C 0.08216 0.77599 0.59777 0.0
C2884 C 0.08364 0.78737 0.60439 0.0
C2885 C 0.0879 0.82044 0.62362 0.0
C2886 C 0.08639 0.80905 0.61697 0.0
H2887 H 0.06115 0.75007 0.59247 0.0
H2888 H 0.0636 0.76877 0.6033 0.0
H2889 H 0.0902 0.79736 0.59006 0.0
H2890 H 0.10871 0.84653 0.62878 0.0
H2891 H 0.10611 0.82791 0.61757 0.0
C2892 C 0.47589 0.88541 0.78456 0.0
C2893 C 0.48523 0.89474 0.78195 0.0
C2894 C 0.4669 0.8871 0.79212 0.0
C2895 C 0.45117 0.90972 0.80368 0.0
H2896 H 0.44108 0.88757 0.82648 0.0
C2897 C 0.41662 0.91769 0.83703 0.0
C2898 C 0.40682 0.90831 0.83859 0.0
C2899 C 0.42671 0.91609 0.83071 0.0
C2900 C 0.44371 0.89378 0.82008 0.0
H2901 H 0.49263 0.91313 0.7855 0.0
H2902 H 0.47703 0.91605 0.79876 0.0
H2903 H 0.45781 0.88467 0.81441 0.0
H2904 H 0.40012 0.88986 0.83537 0.0
H2905 H 0.41765 0.88702 0.82416 0.0
H2906 H 0.43701 0.91878 0.80925 0.0
C2907 C 0.47654 0.90745 0.79482 0.0
C2908 C 0.4533 0.89212 0.81317 0.0
C2909 C 0.48553 0.90576 0.78726 0.0
C2910 C 0.4075 0.89724 0.8341 0.0
C2911 C 0.41758 0.89562 0.82779 0.0
C2912 C 0.44159 0.91137 0.81058 0.0
C2913 C 0.46704 0.89816 0.79725 0.0
C2914 C 0.45711 0.90005 0.80485 0.0
C2915 C 0.42725 0.90505 0.82593 0.0
C2916 C 0.4377 0.90341 0.81883 0.0
H2917 H 0.47538 0.87681 0.78061 0.0
H2918 H 0.45963 0.87977 0.79371 0.0
H2919 H 0.45372 0.91589 0.79722 0.0
H2920 H 0.41641 0.92627 0.84063 0.0
H2921 H 0.43413 0.92349 0.82964 0.0
C2922 C 0.36893 0.25089 0.06662 0.0
C2923 C 0.3813 0.25784 0.06655 0.0
C2924 C 0.36764 0.24092 0.07286 0.0
C2925 C 0.38485 0.2259 0.09615 0.0
H2926 H 0.363 0.19833 0.07931 0.0
C2927 C 0.38882 0.17999 0.1093 0.0
C2928 C 0.37733 0.17155 0.10797 0.0
C2929 C 0.38852 0.19099 0.1054 0.0
C2930 C 0.36897 0.20597 0.08424 0.0
H2931 H 0.40198 0.25995 0.07328 0.0
H2932 H 0.39974 0.24252 0.08405 0.0
H2933 H 0.36382 0.21677 0.0705 0.0
H2934 H 0.35642 0.16809 0.1023 0.0
H2935 H 0.35581 0.18736 0.09554 0.0
H2936 H 0.39017 0.21503 0.10981 0.0
C2937 C 0.39101 0.24482 0.07938 0.0
C2938 C 0.36944 0.21655 0.07918 0.0
C2939 C 0.3923 0.25478 0.07314 0.0
C2940 C 0.36543 0.17442 0.10319 0.0
C2941 C 0.36512 0.18542 0.0993 0.0
C2942 C 0.38437 0.2153 0.10122 0.0
C2943 C 0.37869 0.23768 0.07917 0.0
C2944 C 0.37751 0.22662 0.08501 0.0
C2945 C 0.37669 0.19378 0.1002 0.0
C2946 C 0.37654 0.20519 0.09526 0.0
H2947 H 0.36025 0.25303 0.06169 0.0
H2948 H 0.358 0.23568 0.07266 0.0
H2949 H 0.39101 0.23352 0.10095 0.0
H2950 H 0.39807 0.178 0.11313 0.0
H2951 H 0.39762 0.19718 0.10615 0.0
C2952 C 0.00531 0.93226 0.23322 0.0
C2953 C 0.99414 0.92349 0.23245 0.0
C2954 C 0.01692 0.92987 0.23003 0.0
C2955 C 0.02999 0.9089 0.21254 0.0
H2956 H 0.06293 0.92303 0.23181 0.0
C2957 C 0.07914 0.89736 0.20437 0.0
C2958 C 0.08979 0.90659 0.20496 0.0
C2959 C 0.06749 0.89906 0.20807 0.0
C2960 C 0.05382 0.9191 0.22628 0.0
H2961 H 0.9864 0.90531 0.22768 0.0
H2962 H 0.00674 0.90111 0.2222 0.0
H2963 H 0.0425 0.92662 0.23756 0.0
H2964 H 0.09656 0.92489 0.20948 0.0
H2965 H 0.07618 0.92792 0.21598 0.0
H2966 H 0.04133 0.90142 0.20124 0.0
C2967 C 0.00646 0.90987 0.22516 0.0
C2968 C 0.04211 0.92116 0.22957 0.0
C2969 C 0.99482 0.91227 0.22835 0.0
C2970 C 0.08855 0.91759 0.20918 0.0
C2971 C 0.07691 0.9193 0.21291 0.0
C2972 C 0.04171 0.90683 0.20926 0.0
C2973 C 0.01765 0.91864 0.22601 0.0
C2974 C 0.03006 0.91615 0.22269 0.0
C2975 C 0.06623 0.91006 0.21237 0.0
C2976 C 0.05376 0.91197 0.21605 0.0
H2977 H 0.00511 0.94101 0.23629 0.0
H2978 H 0.0253 0.93686 0.2306 0.0
H2979 H 0.02089 0.90503 0.20697 0.0
H2980 H 0.07984 0.88884 0.20095 0.0
H2981 H 0.05947 0.89175 0.20761 0.0
C2982 C 0.3922 0.7911 0.42674 0.0
C2983 C 0.38554 0.78362 0.43412 0.0
C2984 C 0.38565 0.7982 0.41968 0.0
C2985 C 0.35276 0.8009 0.40575 0.0
H2986 H 0.37029 0.8319 0.40117 0.0
C2987 C 0.33677 0.8263 0.36613 0.0
C2988 C 0.33824 0.83834 0.3678 0.0
C2989 C 0.34106 0.81992 0.37538 0.0
C2990 C 0.36516 0.82333 0.40248 0.0
H2991 H 0.36678 0.7778 0.43994 0.0
H2992 H 0.35536 0.79027 0.42766 0.0
H2993 H 0.3809 0.82043 0.41528 0.0
H2994 H 0.34484 0.85306 0.38066 0.0
H2995 H 0.35215 0.84187 0.39692 0.0
H2996 H 0.33702 0.80381 0.39293 0.0
C2997 C 0.36563 0.79055 0.42725 0.0
C2998 C 0.37132 0.8167 0.41045 0.0
C2999 C 0.37219 0.78344 0.43433 0.0
C3000 C 0.34353 0.84379 0.37911 0.0
C3001 C 0.34784 0.8374 0.38838 0.0
C3002 C 0.34659 0.80754 0.39777 0.0
C3003 C 0.37228 0.798 0.41983 0.0
C3004 C 0.36529 0.80534 0.41204 0.0
C3005 C 0.34691 0.82542 0.38654 0.0
C3006 C 0.35281 0.81877 0.39589 0.0
H3007 H 0.40248 0.79143 0.42634 0.0
H3008 H 0.39103 0.8037 0.41393 0.0
H3009 H 0.34787 0.79216 0.40671 0.0
H3010 H 0.33257 0.82184 0.35756 0.0
H3011 H 0.34027 0.81073 0.37362 0.0
C3012 C 0.54109 0.16036 0.70475 0.0
C3013 C 0.54337 0.15597 0.71597 0.0
C3014 C 0.52837 0.1596 0.69892 0.0
C3015 C 0.49471 0.14337 0.69747 0.0
H3016 H 0.48567 0.16949 0.68112 0.0
C3017 C 0.44177 0.14489 0.67648 0.0
C3018 C 0.44016 0.15 0.6656 0.0
C3019 C 0.45428 0.14538 0.68274 0.0
C3020 C 0.48807 0.16206 0.68551 0.0
H3021 H 0.53403 0.14733 0.72987 0.0
H3022 H 0.51174 0.14604 0.71967 0.0
H3023 H 0.50755 0.17097 0.69207 0.0
H3024 H 0.4502 0.15907 0.6524 0.0
H3025 H 0.47212 0.15984 0.66325 0.0
H3026 H 0.47523 0.13443 0.69084 0.0
C3027 C 0.51985 0.15 0.71537 0.0
C3028 C 0.50061 0.16292 0.69181 0.0
C3029 C 0.53261 0.1508 0.72124 0.0
C3030 C 0.45124 0.15525 0.66088 0.0
C3031 C 0.46375 0.15573 0.66712 0.0
C3032 C 0.48215 0.14249 0.69114 0.0
C3033 C 0.5176 0.15441 0.70414 0.0
C3034 C 0.5041 0.15357 0.69781 0.0
C3035 C 0.46542 0.15091 0.6782 0.0
C3036 C 0.47871 0.15181 0.68503 0.0
H3037 H 0.54915 0.16437 0.70041 0.0
H3038 H 0.52699 0.16293 0.69021 0.0
H3039 H 0.49715 0.13596 0.70187 0.0
H3040 H 0.43335 0.14067 0.68021 0.0
H3041 H 0.4552 0.14164 0.69127 0.0
C3042 C 0.13095 0.19934 0.95591 0.0
C3043 C 0.11794 0.19991 0.95701 0.0
C3044 C 0.13377 0.19016 0.94924 0.0
C3045 C 0.11929 0.16072 0.93524 0.0
H3046 H 0.14486 0.16828 0.91388 0.0
C3047 C 0.12051 0.13234 0.89318 0.0
C3048 C 0.1327 0.13114 0.89015 0.0
C3049 C 0.11977 0.13974 0.90285 0.0
C3050 C 0.13786 0.16599 0.91994 0.0
H3051 H 0.09773 0.19119 0.95214 0.0
H3052 H 0.10262 0.17534 0.94033 0.0
H3053 H 0.1416 0.18317 0.92801 0.0
H3054 H 0.15367 0.1365 0.89501 0.0
H3055 H 0.15238 0.14952 0.91197 0.0
H3056 H 0.11525 0.14362 0.92681 0.0
C3057 C 0.11068 0.18185 0.94479 0.0
C3058 C 0.13599 0.17452 0.92805 0.0
C3059 C 0.10786 0.19099 0.9515 0.0
C3060 C 0.14415 0.13723 0.89719 0.0
C3061 C 0.14341 0.14473 0.90682 0.0
C3062 C 0.12111 0.15221 0.92707 0.0
C3063 C 0.12366 0.18138 0.94348 0.0
C3064 C 0.12651 0.17204 0.93566 0.0
C3065 C 0.1312 0.14616 0.90966 0.0
C3066 C 0.13026 0.15481 0.91919 0.0
H3067 H 0.13895 0.20605 0.96011 0.0
H3068 H 0.14389 0.18998 0.94855 0.0
H3069 H 0.1121 0.15845 0.94113 0.0
H3070 H 0.11153 0.12767 0.88796 0.0
H3071 H 0.11021 0.14074 0.90474 0.0
C3072 C 0.28162 0.04133 0.11748 0.0
C3073 C 0.28185 0.03542 0.12794 0.0
C3074 C 0.28923 0.05235 0.11745 0.0
C3075 C 0.30738 0.07769 0.13687 0.0
H3076 H 0.32901 0.08226 0.11184 0.0
C3077 C 0.35793 0.10853 0.12861 0.0
C3078 C 0.35559 0.11954 0.13147 0.0
C3079 C 0.34779 0.09889 0.12734 0.0
C3080 C 0.323 0.08112 0.11886 0.0
H3081 H 0.28985 0.03663 0.14668 0.0
H3082 H 0.30308 0.05589 0.14663 0.0
H3083 H 0.31305 0.06435 0.11145 0.0
H3084 H 0.34082 0.12917 0.13517 0.0
H3085 H 0.32302 0.11223 0.13304 0.0
H3086 H 0.31758 0.09438 0.14443 0.0
C3087 C 0.297 0.052 0.13846 0.0
C3088 C 0.31379 0.07092 0.11858 0.0
C3089 C 0.28948 0.04093 0.13846 0.0
C3090 C 0.34286 0.12077 0.13291 0.0
C3091 C 0.33273 0.11109 0.13177 0.0
C3092 C 0.31652 0.08796 0.13709 0.0
C3093 C 0.29712 0.05774 0.12791 0.0
C3094 C 0.30603 0.06901 0.12769 0.0
C3095 C 0.33511 0.10006 0.129 0.0
C3096 C 0.32458 0.08968 0.12819 0.0
H3097 H 0.27581 0.03733 0.10922 0.0
H3098 H 0.28903 0.05663 0.10921 0.0
H3099 H 0.30146 0.07649 0.14396 0.0
H3100 H 0.36762 0.10735 0.12735 0.0
H3101 H 0.34995 0.09049 0.12531 0.0
C3102 C 0.77164 0.46213 0.86753 0.0
C3103 C 0.77105 0.46925 0.85797 0.0
C3104 C 0.77443 0.45111 0.86596 0.0
C3105 C 0.77515 0.42819 0.84293 0.0
H3106 H 0.79978 0.41869 0.86725 0.0
C3107 C 0.79824 0.38839 0.83544 0.0
C3108 C 0.79936 0.38123 0.84489 0.0
C3109 C 0.79443 0.39897 0.83711 0.0
C3110 C 0.79277 0.42115 0.86044 0.0
H3111 H 0.77267 0.47028 0.83922 0.0
H3112 H 0.77762 0.45112 0.83652 0.0
H3113 H 0.79339 0.43727 0.87 0.0
H3114 H 0.79793 0.37962 0.86356 0.0
H3115 H 0.79113 0.39808 0.86651 0.0
H3116 H 0.7746 0.41209 0.83334 0.0
C3117 C 0.77581 0.454 0.8452 0.0
C3118 C 0.78909 0.4318 0.86202 0.0
C3119 C 0.77303 0.46501 0.84676 0.0
C3120 C 0.79695 0.38495 0.85611 0.0
C3121 C 0.79316 0.39554 0.8578 0.0
C3122 C 0.77883 0.41754 0.84134 0.0
C3123 C 0.77668 0.44696 0.85481 0.0
C3124 C 0.78027 0.43547 0.85326 0.0
C3125 C 0.79179 0.40266 0.8483 0.0
C3126 C 0.78772 0.41391 0.85006 0.0
H3127 H 0.77013 0.46511 0.87627 0.0
H3128 H 0.77484 0.44585 0.87351 0.0
H3129 H 0.76819 0.43068 0.83609 0.0
H3130 H 0.80029 0.38577 0.82676 0.0
H3131 H 0.79372 0.40434 0.82967 0.0
C3132 C 0.78556 0.55374 0.14226 0.0
C3133 C 0.78753 0.54344 0.14724 0.0
C3134 C 0.79577 0.56097 0.13805 0.0
C3135 C 0.83157 0.56842 0.14243 0.0
H3136 H 0.82618 0.58523 0.11425 0.0
C3137 C 0.87363 0.6008 0.12795 0.0
C3138 C 0.8706 0.61139 0.12462 0.0
C3139 C 0.86369 0.5915 0.12924 0.0
C3140 C 0.82782 0.58064 0.12218 0.0
H3141 H 0.80165 0.53244 0.15131 0.0
H3142 H 0.81946 0.54505 0.14391 0.0
H3143 H 0.8083 0.57071 0.11913 0.0
H3144 H 0.85476 0.6205 0.11995 0.0
H3145 H 0.83747 0.60433 0.12226 0.0
H3146 H 0.85095 0.57852 0.14568 0.0
C3147 C 0.81005 0.5476 0.1434 0.0
C3148 C 0.81759 0.57233 0.12496 0.0
C3149 C 0.79982 0.54035 0.14759 0.0
C3150 C 0.85741 0.6124 0.12234 0.0
C3151 C 0.84749 0.60311 0.12366 0.0
C3152 C 0.84179 0.57675 0.13967 0.0
C3153 C 0.80819 0.55807 0.13874 0.0
C3154 C 0.8193 0.56624 0.13521 0.0
C3155 C 0.85051 0.5926 0.12727 0.0
C3156 C 0.83998 0.58307 0.1296 0.0
H3157 H 0.7762 0.55637 0.14184 0.0
H3158 H 0.79406 0.56904 0.13462 0.0
H3159 H 0.83315 0.564 0.15049 0.0
H3160 H 0.88369 0.59973 0.12962 0.0
H3161 H 0.86634 0.58346 0.13186 0.0
C3162 C 0.74335 0.5377 0.40878 0.0
C3163 C 0.75026 0.54196 0.42006 0.0
C3164 C 0.73463 0.54379 0.40269 0.0
C3165 C 0.72702 0.57293 0.40117 0.0
H3166 H 0.69359 0.55679 0.38426 0.0
C3167 C 0.68742 0.59715 0.38106 0.0
C3168 C 0.68065 0.59305 0.36973 0.0
C3169 C 0.69572 0.59079 0.38728 0.0
C3170 C 0.70294 0.56142 0.38883 0.0
H3171 H 0.75332 0.55589 0.43383 0.0
H3172 H 0.73808 0.56643 0.42325 0.0
H3173 H 0.70846 0.54591 0.39492 0.0
H3174 H 0.67681 0.57896 0.35613 0.0
H3175 H 0.69147 0.56787 0.36688 0.0
H3176 H 0.72156 0.58843 0.39506 0.0
C3177 C 0.73951 0.55847 0.41905 0.0
C3178 C 0.71146 0.55518 0.39494 0.0
C3179 C 0.7482 0.55238 0.42514 0.0
C3180 C 0.68206 0.58235 0.36481 0.0
C3181 C 0.69037 0.57598 0.37101 0.0
C3182 C 0.71851 0.57916 0.39505 0.0
C3183 C 0.73266 0.55427 0.40774 0.0
C3184 C 0.72359 0.56087 0.4012 0.0
C3185 C 0.69735 0.58015 0.3823 0.0
C3186 C 0.70637 0.57349 0.38882 0.0
H3187 H 0.74472 0.5297 0.40461 0.0
H3188 H 0.72961 0.54038 0.39394 0.0
H3189 H 0.73638 0.57756 0.40574 0.0
H3190 H 0.68628 0.6053 0.38509 0.0
H3191 H 0.70076 0.59415 0.39604 0.0
C3192 C 0.21105 0.97705 0.13342 0.0
C3193 C 0.22346 0.97406 0.13495 0.0
C3194 C 0.20091 0.97096 0.13877 0.0
C3195 C 0.19011 0.94221 0.14806 0.0
H3196 H 0.16544 0.95558 0.16385 0.0
C3197 C 0.14091 0.91566 0.1556 0.0
C3198 C 0.13792 0.91619 0.16728 0.0
C3199 C 0.15133 0.92341 0.15238 0.0
C3200 C 0.17231 0.95176 0.1595 0.0
H3201 H 0.23511 0.96273 0.1438 0.0
H3202 H 0.21741 0.95209 0.153 0.0
H3203 H 0.18412 0.96822 0.15741 0.0
H3204 H 0.14337 0.92562 0.18461 0.0
H3205 H 0.16146 0.93939 0.17882 0.0
H3206 H 0.17826 0.9258 0.14991 0.0
C3207 C 0.21552 0.95908 0.14761 0.0
C3208 C 0.18292 0.95897 0.15577 0.0
C3209 C 0.22566 0.96521 0.14236 0.0
C3210 C 0.14534 0.92499 0.17553 0.0
C3211 C 0.15571 0.93286 0.17224 0.0
C3212 C 0.17944 0.93504 0.15162 0.0
C3213 C 0.20298 0.96171 0.14566 0.0
C3214 C 0.19191 0.95424 0.15001 0.0
C3215 C 0.15892 0.932 0.16069 0.0
C3216 C 0.17041 0.93974 0.15732 0.0
H3217 H 0.20906 0.98386 0.1278 0.0
H3218 H 0.19131 0.97313 0.13709 0.0
H3219 H 0.19681 0.93833 0.14352 0.0
H3220 H 0.13519 0.90923 0.14891 0.0
H3221 H 0.15346 0.92269 0.14336 0.0
C3222 C 0.18962 0.97054 0.69609 0.0
C3223 C 0.20216 0.97239 0.69275 0.0
C3224 C 0.1808 0.96019 0.6926 0.0
C3225 C 0.17922 0.92983 0.68475 0.0
H3226 H 0.14313 0.92977 0.67182 0.0
C3227 C 0.12868 0.89538 0.66485 0.0
C3228 C 0.12767 0.88828 0.67439 0.0
C3229 C 0.13839 0.90536 0.66588 0.0
C3230 C 0.15321 0.92965 0.67531 0.0
H3231 H 0.21532 0.96485 0.68314 0.0
H3232 H 0.19995 0.94662 0.67724 0.0
H3233 H 0.1588 0.94806 0.67587 0.0
H3234 H 0.13625 0.88573 0.69227 0.0
H3235 H 0.15335 0.90308 0.69402 0.0
H3236 H 0.17353 0.91145 0.68453 0.0
C3237 C 0.19695 0.95324 0.6825 0.0
C3238 C 0.16213 0.94011 0.67771 0.0
C3239 C 0.20572 0.96367 0.68584 0.0
C3240 C 0.13679 0.89111 0.68482 0.0
C3241 C 0.14661 0.90097 0.68578 0.0
C3242 C 0.17025 0.91939 0.68252 0.0
C3243 C 0.18441 0.95141 0.68583 0.0
C3244 C 0.17518 0.9403 0.68256 0.0
C3245 C 0.14738 0.90828 0.6764 0.0
C3246 C 0.15713 0.91922 0.67789 0.0
H3247 H 0.18658 0.9771 0.70139 0.0
H3248 H 0.17123 0.95895 0.69538 0.0
H3249 H 0.18921 0.92975 0.68855 0.0
H3250 H 0.12171 0.8934 0.65674 0.0
H3251 H 0.13883 0.91083 0.65851 0.0
C3252 C 0.84315 0.49005 0.42952 0.0
C3253 C 0.84197 0.48952 0.44166 0.0
C3254 C 0.84891 0.48204 0.42381 0.0
C3255 C 0.85486 0.45263 0.426 0.0
H3256 H 0.87825 0.46107 0.40292 0.0
C3257 C 0.87769 0.41869 0.40317 0.0
C3258 C 0.87806 0.4193 0.39091 0.0
C3259 C 0.87467 0.42776 0.40984 0.0
C3260 C 0.87164 0.45856 0.40926 0.0
H3261 H 0.84623 0.48038 0.4574 0.0
H3262 H 0.85626 0.46642 0.44742 0.0
H3263 H 0.87044 0.47608 0.41369 0.0
H3264 H 0.87574 0.42995 0.37605 0.0
H3265 H 0.87028 0.44573 0.38763 0.0
H3266 H 0.85574 0.43513 0.42142 0.0
C3267 C 0.85263 0.47296 0.44231 0.0
C3268 C 0.8672 0.46716 0.41544 0.0
C3269 C 0.84695 0.481 0.44803 0.0
C3270 C 0.87566 0.4293 0.38551 0.0
C3271 C 0.87256 0.43834 0.39216 0.0
C3272 C 0.85924 0.44403 0.41978 0.0
C3273 C 0.85353 0.47331 0.4301 0.0
C3274 C 0.85872 0.46428 0.42385 0.0
C3275 C 0.87185 0.43762 0.40438 0.0
C3276 C 0.86764 0.44688 0.4113 0.0
H3277 H 0.83942 0.49651 0.42436 0.0
H3278 H 0.84935 0.48247 0.41438 0.0
H3279 H 0.84816 0.45011 0.43227 0.0
H3280 H 0.87969 0.41116 0.4076 0.0
H3281 H 0.87449 0.42701 0.41927 0.0
C3282 C 0.73009 0.53663 0.89922 0.0
C3283 C 0.73208 0.52922 0.88993 0.0
C3284 C 0.71927 0.54197 0.89804 0.0
C3285 C 0.6956 0.55106 0.87529 0.0
H3286 H 0.67723 0.55529 0.90197 0.0
C3287 C 0.65006 0.57227 0.87122 0.0
C3288 C 0.64922 0.57992 0.88074 0.0
C3289 C 0.65969 0.56553 0.87219 0.0
C3290 C 0.68233 0.55428 0.89447 0.0
H3291 H 0.72406 0.52138 0.87222 0.0
H3292 H 0.70508 0.53066 0.87019 0.0
H3293 H 0.69458 0.54415 0.90399 0.0
H3294 H 0.65804 0.58698 0.89849 0.0
H3295 H 0.67496 0.57527 0.90022 0.0
H3296 H 0.68345 0.5613 0.86581 0.0
C3297 C 0.712 0.53244 0.87833 0.0
C3298 C 0.69226 0.54788 0.89562 0.0
C3299 C 0.72283 0.52706 0.87953 0.0
C3300 C 0.65836 0.58096 0.89113 0.0
C3301 C 0.66799 0.57422 0.89211 0.0
C3302 C 0.68566 0.55747 0.87414 0.0
C3303 C 0.71017 0.54004 0.88753 0.0
C3304 C 0.6991 0.54628 0.88608 0.0
C3305 C 0.66873 0.56639 0.88267 0.0
C3306 C 0.67899 0.55924 0.88375 0.0
H3307 H 0.73702 0.53849 0.90735 0.0
H3308 H 0.71825 0.54787 0.90524 0.0
H3309 H 0.70079 0.55014 0.86783 0.0
H3310 H 0.64321 0.57146 0.86306 0.0
H3311 H 0.65994 0.55955 0.86478 0.0
C3312 C 0.90017 0.69407 0.97408 0.0
C3313 C 0.89484 0.69019 0.98419 0.0
C3314 C 0.90523 0.68665 0.96691 0.0
C3315 C 0.91729 0.65927 0.96633 0.0
H3316 H 0.9069 0.65894 0.93224 0.0
C3317 C 0.92213 0.62233 0.93328 0.0
C3318 C 0.92512 0.62509 0.92195 0.0
C3319 C 0.92004 0.63082 0.94133 0.0
C3320 C 0.9101 0.65904 0.94172 0.0
H3321 H 0.89093 0.67553 0.99486 0.0
H3322 H 0.8997 0.66256 0.9823 0.0
H3323 H 0.90028 0.67276 0.94545 0.0
H3324 H 0.92864 0.63905 0.91034 0.0
H3325 H 0.92538 0.65391 0.92448 0.0
H3326 H 0.92702 0.64546 0.96258 0.0
C3327 C 0.90005 0.67137 0.97997 0.0
C3328 C 0.90628 0.66696 0.9493 0.0
C3329 C 0.89495 0.67879 0.98713 0.0
C3330 C 0.92647 0.63663 0.91902 0.0
C3331 C 0.92442 0.64513 0.92708 0.0
C3332 C 0.92116 0.65136 0.95874 0.0
C3333 C 0.90511 0.67518 0.96971 0.0
C3334 C 0.90974 0.6671 0.96169 0.0
C3335 C 0.92093 0.64229 0.93824 0.0
C3336 C 0.91752 0.6511 0.94634 0.0
H3337 H 0.9003 0.70282 0.97159 0.0
H3338 H 0.90921 0.68988 0.95915 0.0
H3339 H 0.92025 0.65927 0.97584 0.0
H3340 H 0.92118 0.61355 0.93587 0.0
H3341 H 0.91728 0.62831 0.9498 0.0
C3342 C 0.07262 0.1451 0.69242 0.0
C3343 C 0.07453 0.15607 0.69839 0.0
C3344 C 0.08088 0.14278 0.68439 0.0
C3345 C 0.10513 0.15647 0.66608 0.0
H3346 H 0.1184 0.12819 0.66953 0.0
C3347 C 0.15039 0.14796 0.64607 0.0
C3348 C 0.15061 0.13659 0.64213 0.0
C3349 C 0.14005 0.15038 0.65161 0.0
C3350 C 0.11463 0.13603 0.66827 0.0
H3351 H 0.0864 0.17332 0.70034 0.0
H3352 H 0.10086 0.16925 0.68635 0.0
H3353 H 0.10224 0.13233 0.68157 0.0
H3354 H 0.13983 0.11896 0.64023 0.0
H3355 H 0.12166 0.12319 0.64969 0.0
H3356 H 0.11763 0.16021 0.65282 0.0
C3357 C 0.09291 0.16246 0.68783 0.0
C3358 C 0.10537 0.13841 0.67521 0.0
C3359 C 0.08467 0.16477 0.6959 0.0
C3360 C 0.14001 0.12777 0.64336 0.0
C3361 C 0.12964 0.1302 0.64882 0.0
C3362 C 0.11437 0.15407 0.65909 0.0
C3363 C 0.09122 0.15139 0.68212 0.0
C3364 C 0.10058 0.14869 0.67426 0.0
C3365 C 0.12966 0.14149 0.65326 0.0
C3366 C 0.11931 0.14385 0.66016 0.0
H3367 H 0.06487 0.13822 0.69409 0.0
H3368 H 0.07923 0.13421 0.68001 0.0
H3369 H 0.10151 0.16441 0.66506 0.0
H3370 H 0.15849 0.15491 0.64534 0.0
H3371 H 0.14047 0.15915 0.65503 0.0
C3372 C 0.6305 0.31939 0.53259 0.0
C3373 C 0.61813 0.31209 0.5306 0.0
C3374 C 0.63463 0.32664 0.52393 0.0
C3375 C 0.62115 0.34163 0.49914 0.0
H3376 H 0.65726 0.34933 0.49384 0.0
C3377 C 0.63814 0.37658 0.4678 0.0
C3378 C 0.64969 0.38444 0.47229 0.0
C3379 C 0.63449 0.36649 0.47347 0.0
C3380 C 0.64715 0.34731 0.49527 0.0
H3381 H 0.60065 0.30626 0.51771 0.0
H3382 H 0.60791 0.31891 0.50254 0.0
H3383 H 0.65054 0.33357 0.5062 0.0
H3384 H 0.66685 0.38773 0.48575 0.0
H3385 H 0.66041 0.3702 0.49582 0.0
H3386 H 0.6178 0.35554 0.4885 0.0
C3387 C 0.61433 0.31912 0.51088 0.0
C3388 C 0.6433 0.33827 0.50232 0.0
C3389 C 0.61021 0.31182 0.51954 0.0
C3390 C 0.65781 0.38185 0.48224 0.0
C3391 C 0.65417 0.37177 0.48792 0.0
C3392 C 0.625 0.35066 0.4921 0.0
C3393 C 0.62648 0.32677 0.51307 0.0
C3394 C 0.6303 0.33547 0.50451 0.0
C3395 C 0.64238 0.36403 0.48369 0.0
C3396 C 0.63809 0.35375 0.49025 0.0
H3397 H 0.63686 0.31979 0.541 0.0
H3398 H 0.64399 0.33251 0.52596 0.0
H3399 H 0.6111 0.3398 0.50079 0.0
H3400 H 0.63187 0.37834 0.46 0.0
H3401 H 0.62546 0.36062 0.46988 0.0
C3402 C 0.38464 0.83196 0.17326 0.0
C3403 C 0.37814 0.82065 0.17438 0.0
C3404 C 0.38157 0.83765 0.16305 0.0
C3405 C 0.35565 0.83674 0.13718 0.0
H3406 H 0.38301 0.8573 0.12468 0.0
C3407 C 0.34648 0.85758 0.09258 0.0
C3408 C 0.35133 0.86951 0.09289 0.0
C3409 C 0.35013 0.85128 0.10216 0.0
C3410 C 0.37527 0.85162 0.12811 0.0
H3411 H 0.36342 0.80636 0.16558 0.0
H3412 H 0.35829 0.81616 0.14765 0.0
H3413 H 0.38861 0.84685 0.14206 0.0
H3414 H 0.36407 0.88412 0.10325 0.0
H3415 H 0.37049 0.87309 0.11997 0.0
H3416 H 0.34235 0.84146 0.12312 0.0
C3417 C 0.36556 0.82076 0.15477 0.0
C3418 C 0.37845 0.84567 0.1381 0.0
C3419 C 0.36855 0.81511 0.16503 0.0
C3420 C 0.36012 0.87495 0.10282 0.0
C3421 C 0.36387 0.86863 0.11234 0.0
C3422 C 0.35249 0.84262 0.12713 0.0
C3423 C 0.372 0.83212 0.15366 0.0
C3424 C 0.36867 0.83821 0.14282 0.0
C3425 C 0.35879 0.85675 0.11217 0.0
C3426 C 0.36225 0.85018 0.12255 0.0
H3427 H 0.39202 0.8365 0.18034 0.0
H3428 H 0.38657 0.84645 0.16261 0.0
H3429 H 0.34783 0.83124 0.14067 0.0
H3430 H 0.33962 0.85318 0.08507 0.0
H3431 H 0.34615 0.84212 0.10175 0.0
C3432 C 0.80947 0.31101 0.45551 0.0
C3433 C 0.80654 0.31619 0.44485 0.0
C3434 C 0.81374 0.31774 0.46623 0.0
C3435 C 0.82843 0.34756 0.47844 0.0
H3436 H 0.8162 0.33662 0.50733 0.0
C3437 C 0.83864 0.37582 0.52279 0.0
C3438 C 0.8425 0.37047 0.5331 0.0
C3439 C 0.83417 0.36929 0.51196 0.0
C3440 C 0.81979 0.33974 0.49936 0.0
H3441 H 0.80574 0.33251 0.43709 0.0
H3442 H 0.81299 0.34423 0.45583 0.0
H3443 H 0.80845 0.32511 0.48853 0.0
H3444 H 0.84455 0.3542 0.54032 0.0
H3445 H 0.83673 0.34272 0.52138 0.0
H3446 H 0.83969 0.36224 0.4893 0.0
C3447 C 0.81219 0.33498 0.45588 0.0
C3448 C 0.81537 0.33314 0.48858 0.0
C3449 C 0.80796 0.32825 0.44514 0.0
C3450 C 0.84167 0.35849 0.53245 0.0
C3451 C 0.83713 0.35194 0.52165 0.0
C3452 C 0.8328 0.35419 0.48922 0.0
C3453 C 0.81514 0.3298 0.46656 0.0
C3454 C 0.81968 0.33694 0.47799 0.0
C3455 C 0.83335 0.35728 0.51128 0.0
C3456 C 0.82857 0.35033 0.4998 0.0
H3457 H 0.80855 0.30175 0.4556 0.0
H3458 H 0.81612 0.31348 0.47425 0.0
H3459 H 0.8321 0.35067 0.4705 0.0
H3460 H 0.83908 0.38505 0.52311 0.0
H3461 H 0.83117 0.37363 0.50416 0.0
C3462 C 0.50136 0.14081 0.29831 0.0
C3463 C 0.50609 0.13248 0.29188 0.0
C3464 C 0.49775 0.1387 0.30948 0.0
C3465 C 0.48626 0.11456 0.32705 0.0
H3466 H 0.48931 0.13914 0.35158 0.0
C3467 C 0.45149 0.11269 0.36199 0.0
C3468 C 0.45616 0.11819 0.37336 0.0
C3469 C 0.45961 0.11337 0.35321 0.0
C3470 C 0.48855 0.1321 0.34494 0.0
H3471 H 0.51136 0.11563 0.29242 0.0
H3472 H 0.50521 0.11201 0.31205 0.0
H3473 H 0.50066 0.14272 0.33445 0.0
H3474 H 0.47306 0.12812 0.38475 0.0
H3475 H 0.48741 0.12921 0.36944 0.0
H3476 H 0.47413 0.10394 0.33753 0.0
C3477 C 0.50408 0.12009 0.30833 0.0
C3478 C 0.49493 0.13421 0.33503 0.0
C3479 C 0.50768 0.1222 0.29711 0.0
C3480 C 0.46925 0.12392 0.37599 0.0
C3481 C 0.4774 0.12458 0.36721 0.0
C3482 C 0.47992 0.11244 0.33698 0.0
C3483 C 0.49883 0.12823 0.31455 0.0
C3484 C 0.49358 0.12555 0.32582 0.0
C3485 C 0.4726 0.11951 0.35564 0.0
C3486 C 0.48071 0.12127 0.3459 0.0
H3487 H 0.50002 0.14883 0.29455 0.0
H3488 H 0.49359 0.1451 0.31392 0.0
H3489 H 0.48493 0.10771 0.3201 0.0
H3490 H 0.44144 0.10817 0.35978 0.0
H3491 H 0.45551 0.10948 0.34437 0.0
C3492 C 0.60634 0.68394 0.0346 0.0
C3493 C 0.61286 0.69339 0.02927 0.0
C3494 C 0.61289 0.67914 0.04406 0.0
C3495 C 0.646 0.67612 0.05652 0.0
H3496 H 0.62958 0.6646 0.08328 0.0
C3497 C 0.6737 0.65457 0.09352 0.0
C3498 C 0.66675 0.64435 0.09717 0.0
C3499 C 0.66718 0.66168 0.08645 0.0
C3500 C 0.63427 0.6677 0.07582 0.0
H3501 H 0.63125 0.70546 0.02998 0.0
H3502 H 0.64265 0.6971 0.04653 0.0
H3503 H 0.61799 0.67506 0.06869 0.0
H3504 H 0.64754 0.63386 0.09702 0.0
H3505 H 0.6361 0.64613 0.08443 0.0
H3506 H 0.66212 0.66856 0.06343 0.0
C3507 C 0.63251 0.69333 0.04329 0.0
C3508 C 0.62763 0.67371 0.06748 0.0
C3509 C 0.62596 0.69815 0.03385 0.0
C3510 C 0.65311 0.64162 0.09414 0.0
C3511 C 0.64657 0.64871 0.08703 0.0
C3512 C 0.6526 0.6701 0.06483 0.0
C3513 C 0.62611 0.68365 0.04838 0.0
C3514 C 0.63339 0.6779 0.05768 0.0
C3515 C 0.65356 0.65873 0.08292 0.0
C3516 C 0.64678 0.66573 0.07453 0.0
H3517 H 0.59624 0.68008 0.03129 0.0
H3518 H 0.60771 0.67162 0.04771 0.0
H3519 H 0.65061 0.67906 0.04897 0.0
H3520 H 0.68422 0.65692 0.09596 0.0
H3521 H 0.67283 0.66945 0.08365 0.0
C3522 C 0.0599 0.86853 0.84442 0.0
C3523 C 0.05424 0.87695 0.83849 0.0
C3524 C 0.07028 0.87173 0.85374 0.0
C3525 C 0.08617 0.8955 0.876 0.0
H3526 H 0.11551 0.87984 0.87762 0.0
C3527 C 0.13293 0.90987 0.9105 0.0
C3528 C 0.13838 0.90107 0.91593 0.0
C3529 C 0.12282 0.90721 0.90087 0.0
C3530 C 0.10733 0.88421 0.87737 0.0
H3531 H 0.05499 0.89535 0.83774 0.0
H3532 H 0.07314 0.90093 0.85401 0.0
H3533 H 0.09749 0.87463 0.86124 0.0
H3534 H 0.1376 0.88261 0.91536 0.0
H3535 H 0.11981 0.87796 0.89878 0.0
H3536 H 0.09596 0.90502 0.8922 0.0
C3537 C 0.06948 0.89185 0.85149 0.0
C3538 C 0.09701 0.88123 0.86798 0.0
C3539 C 0.05912 0.88865 0.84214 0.0
C3540 C 0.13352 0.88958 0.91148 0.0
C3541 C 0.12343 0.88693 0.90187 0.0
C3542 C 0.09649 0.89847 0.88542 0.0
C3543 C 0.0752 0.88343 0.85737 0.0
C3544 C 0.08628 0.88679 0.86722 0.0
C3545 C 0.11795 0.8957 0.89644 0.0
C3546 C 0.10715 0.89281 0.88625 0.0
H3547 H 0.05635 0.85944 0.84185 0.0
H3548 H 0.07436 0.86504 0.85819 0.0
H3549 H 0.07797 0.89985 0.87574 0.0
H3550 H 0.13637 0.9188 0.91378 0.0
H3551 H 0.1189 0.91418 0.89682 0.0
C3552 C 0.96915 0.87861 0.73191 0.0
C3553 C 0.97886 0.88691 0.73889 0.0
C3554 C 0.95973 0.88197 0.72364 0.0
C3555 C 0.95293 0.90613 0.70601 0.0
H3556 H 0.91717 0.88926 0.70277 0.0
C3557 C 0.91076 0.91796 0.67339 0.0
C3558 C 0.90262 0.90857 0.66643 0.0
C3559 C 0.91977 0.91611 0.68302 0.0
C3560 C 0.92713 0.89402 0.70353 0.0
H3561 H 0.98637 0.90527 0.7426 0.0
H3562 H 0.96984 0.91113 0.72819 0.0
H3563 H 0.93364 0.88453 0.71797 0.0
H3564 H 0.89718 0.88992 0.66435 0.0
H3565 H 0.91293 0.88669 0.681 0.0
H3566 H 0.94639 0.91552 0.69143 0.0
C3567 C 0.96959 0.90202 0.72905 0.0
C3568 C 0.93657 0.8913 0.71222 0.0
C3569 C 0.97902 0.89866 0.73734 0.0
C3570 C 0.90345 0.89732 0.66945 0.0
C3571 C 0.91237 0.89548 0.67908 0.0
C3572 C 0.94346 0.90887 0.6973 0.0
C3573 C 0.95978 0.89371 0.72217 0.0
C3574 C 0.94963 0.89718 0.71343 0.0
C3575 C 0.92069 0.90483 0.68593 0.0
C3576 C 0.9305 0.9027 0.69584 0.0
H3577 H 0.96877 0.86949 0.73283 0.0
H3578 H 0.95246 0.87534 0.71833 0.0
H3579 H 0.96293 0.91076 0.70665 0.0
H3580 H 0.91035 0.92672 0.67123 0.0
H3581 H 0.926 0.92349 0.68819 0.0
C3582 C 0.79835 0.22119 0.37492 0.0
C3583 C 0.78896 0.22613 0.36805 0.0
C3584 C 0.80352 0.21237 0.36991 0.0
C3585 C 0.79704 0.19012 0.34491 0.0
H3586 H 0.8344 0.19124 0.35145 0.0
C3587 C 0.82078 0.15304 0.32919 0.0
C3588 C 0.83223 0.15628 0.32413 0.0
C3589 C 0.81551 0.16135 0.33497 0.0
C3590 C 0.82396 0.19084 0.3495 0.0
H3591 H 0.77755 0.22564 0.35056 0.0
H3592 H 0.78662 0.2103 0.34183 0.0
H3593 H 0.82502 0.20618 0.36058 0.0
H3594 H 0.84753 0.17053 0.32157 0.0
H3595 H 0.83829 0.18513 0.33158 0.0
H3596 H 0.796 0.1749 0.33365 0.0
C3597 C 0.7899 0.21317 0.35111 0.0
C3598 C 0.81857 0.19932 0.35483 0.0
C3599 C 0.78476 0.222 0.3561 0.0
C3600 C 0.83857 0.16789 0.32527 0.0
C3601 C 0.83334 0.1762 0.33107 0.0
C3602 C 0.80242 0.18161 0.33962 0.0
C3603 C 0.79938 0.20829 0.35794 0.0
C3604 C 0.80505 0.19909 0.35254 0.0
C3605 C 0.8217 0.17303 0.33591 0.0
C3606 C 0.81595 0.18191 0.3418 0.0
H3607 H 0.80178 0.22416 0.38416 0.0
H3608 H 0.8107 0.2087 0.37544 0.0
H3609 H 0.78657 0.18964 0.34306 0.0
H3610 H 0.81588 0.14409 0.32862 0.0
H3611 H 0.80666 0.15861 0.33879 0.0
C3612 C 0.55831 0.1194 0.23492 0.0
C3613 C 0.54908 0.10907 0.23437 0.0
C3614 C 0.56946 0.11987 0.22943 0.0
C3615 C 0.59005 0.10186 0.21644 0.0
H3616 H 0.59813 0.1279 0.19738 0.0
C3617 C 0.62309 0.10247 0.17969 0.0
C3618 C 0.63102 0.113 0.17789 0.0
C3619 C 0.61436 0.10196 0.18796 0.0
C3620 C 0.59618 0.12066 0.20282 0.0
H3621 H 0.54457 0.09102 0.22798 0.0
H3622 H 0.56397 0.09186 0.21831 0.0
H3623 H 0.58066 0.12709 0.20942 0.0
H3624 H 0.6366 0.13113 0.18384 0.0
H3625 H 0.62148 0.13025 0.19836 0.0
H3626 H 0.60549 0.09536 0.20965 0.0
C3627 C 0.56264 0.09958 0.22307 0.0
C3628 C 0.58614 0.1202 0.20972 0.0
C3629 C 0.55148 0.09912 0.22856 0.0
C3630 C 0.63044 0.12293 0.18489 0.0
C3631 C 0.62176 0.12242 0.19319 0.0
C3632 C 0.60013 0.10233 0.20953 0.0
C3633 C 0.57165 0.11001 0.22328 0.0
C3634 C 0.58288 0.11075 0.21654 0.0
C3635 C 0.61341 0.11198 0.19464 0.0
C3636 C 0.60325 0.1117 0.20256 0.0
H3637 H 0.5568 0.12721 0.23939 0.0
H3638 H 0.57631 0.12799 0.2299 0.0
H3639 H 0.58787 0.09453 0.2217 0.0
H3640 H 0.62323 0.0947 0.17435 0.0
H3641 H 0.60797 0.09381 0.18876 0.0
C3642 C 0.60321 0.74336 0.91698 0.0
C3643 C 0.61143 0.74384 0.9279 0.0
C3644 C 0.60488 0.75245 0.90955 0.0
C3645 C 0.62876 0.77792 0.90349 0.0
H3646 H 0.59788 0.78804 0.88845 0.0
C3647 C 0.6316 0.82046 0.88007 0.0
C3648 C 0.62332 0.8202 0.86924 0.0
C3649 C 0.63026 0.811 0.88705 0.0
C3650 C 0.6066 0.78524 0.89247 0.0
H3651 H 0.62799 0.7542 0.93951 0.0
H3652 H 0.63081 0.7701 0.9266 0.0
H3653 H 0.59549 0.77169 0.90081 0.0
H3654 H 0.60686 0.81014 0.85738 0.0
H3655 H 0.60457 0.7935 0.8695 0.0
H3656 H 0.63987 0.79153 0.89519 0.0
C3657 C 0.62316 0.76264 0.92371 0.0
C3658 C 0.60523 0.77585 0.89955 0.0
C3659 C 0.62149 0.75354 0.93114 0.0
C3660 C 0.61347 0.81045 0.86563 0.0
C3661 C 0.61212 0.80098 0.87261 0.0
C3662 C 0.63013 0.78731 0.89641 0.0
C3663 C 0.61481 0.76224 0.91287 0.0
C3664 C 0.61629 0.7721 0.90516 0.0
C3665 C 0.62052 0.80114 0.88339 0.0
C3666 C 0.61907 0.79109 0.89083 0.0
H3667 H 0.5954 0.73599 0.91418 0.0
H3668 H 0.5984 0.7518 0.90117 0.0
H3669 H 0.63748 0.77515 0.90755 0.0
H3670 H 0.6391 0.828 0.88312 0.0
H3671 H 0.63673 0.81148 0.89541 0.0
C3672 C 0.99637 0.13008 0.78873 0.0
C3673 C 0.00571 0.14041 0.79051 0.0
C3674 C 0.98711 0.1276 0.79644 0.0
C3675 C 0.971 0.14157 0.81834 0.0
H3676 H 0.96216 0.11068 0.82871 0.0
C3677 C 0.94033 0.13105 0.85626 0.0
C3678 C 0.93123 0.12061 0.85496 0.0
C3679 C 0.94908 0.13351 0.8481 0.0
C3680 C 0.96439 0.11932 0.82578 0.0
H3681 H 0.0127 0.1562 0.80186 0.0
H3682 H 0.99665 0.15182 0.81535 0.0
H3683 H 0.9782 0.11479 0.81514 0.0
H3684 H 0.92363 0.1048 0.84388 0.0
H3685 H 0.93887 0.10909 0.82952 0.0
H3686 H 0.95723 0.14611 0.82901 0.0
C3687 C 0.99636 0.1457 0.8079 0.0
C3688 C 0.9736 0.12168 0.81801 0.0
C3689 C 0.00563 0.14817 0.8002 0.0
C3690 C 0.93073 0.11282 0.84516 0.0
C3691 C 0.93948 0.11527 0.837 0.0
C3692 C 0.9618 0.13921 0.82611 0.0
C3693 C 0.98697 0.1354 0.80609 0.0
C3694 C 0.97705 0.13284 0.81423 0.0
C3695 C 0.94884 0.1256 0.83843 0.0
C3696 C 0.95841 0.12807 0.82995 0.0
H3697 H 0.99614 0.12392 0.78133 0.0
H3698 H 0.97992 0.11965 0.79472 0.0
H3699 H 0.97327 0.15022 0.81545 0.0
H3700 H 0.94076 0.13723 0.86369 0.0
H3701 H 0.95622 0.14151 0.84952 0.0
C3702 C 0.64894 0.26011 0.5735 0.0
C3703 C 0.6353 0.25881 0.5727 0.0
C3704 C 0.65527 0.25139 0.57775 0.0
C3705 C 0.64915 0.22039 0.58395 0.0
H3706 H 0.68187 0.22927 0.6054 0.0
C3707 C 0.68273 0.19914 0.62178 0.0
C3708 C 0.68177 0.18816 0.61608 0.0
C3709 C 0.67815 0.20787 0.61561 0.0
C3710 C 0.6727 0.22664 0.59947 0.0
H3711 H 0.61759 0.2473 0.57564 0.0
H3712 H 0.62861 0.23224 0.58329 0.0
H3713 H 0.67138 0.2441 0.59638 0.0
H3714 H 0.67554 0.17789 0.59928 0.0
H3715 H 0.66802 0.19324 0.58841 0.0
H3716 H 0.65013 0.20297 0.58748 0.0
C3717 C 0.63444 0.23988 0.58042 0.0
C3718 C 0.66677 0.23514 0.59416 0.0
C3719 C 0.62811 0.24855 0.57609 0.0
C3720 C 0.67655 0.18626 0.60394 0.0
C3721 C 0.67206 0.19503 0.59774 0.0
C3722 C 0.65503 0.21189 0.58932 0.0
C3723 C 0.6481 0.2412 0.58137 0.0
C3724 C 0.65484 0.23213 0.58644 0.0
C3725 C 0.67259 0.20588 0.60355 0.0
C3726 C 0.66682 0.21491 0.59725 0.0
H3727 H 0.65476 0.26788 0.57089 0.0
H3728 H 0.66578 0.25263 0.57819 0.0
H3729 H 0.64007 0.21774 0.57791 0.0
H3730 H 0.68686 0.20095 0.63109 0.0
H3731 H 0.67861 0.21608 0.62042 0.0
C3732 C 0.44478 0.8182 0.28536 0.0
C3733 C 0.44264 0.82624 0.27694 0.0
C3734 C 0.45591 0.82041 0.294 0.0
C3735 C 0.48183 0.84397 0.30931 0.0
H3736 H 0.50021 0.81911 0.31688 0.0
C3737 C 0.53193 0.85163 0.33947 0.0
C3738 C 0.53364 0.8436 0.34798 0.0
C3739 C 0.52098 0.84952 0.33063 0.0
C3740 C 0.49512 0.82611 0.31495 0.0
H3741 H 0.45048 0.84297 0.27106 0.0
H3742 H 0.46995 0.84679 0.28608 0.0
H3743 H 0.4807 0.81552 0.30192 0.0
H3744 H 0.52569 0.82687 0.35367 0.0
H3745 H 0.50643 0.82317 0.3383 0.0
H3746 H 0.49626 0.85456 0.32235 0.0
C3747 C 0.46295 0.83882 0.28608 0.0
C3748 C 0.48393 0.82405 0.30639 0.0
C3749 C 0.45181 0.8366 0.27743 0.0
C3750 C 0.52446 0.83325 0.34728 0.0
C3751 C 0.51351 0.83112 0.33844 0.0
C3752 C 0.49304 0.84603 0.31788 0.0
C3753 C 0.46517 0.83072 0.29443 0.0
C3754 C 0.47713 0.83295 0.30349 0.0
C3755 C 0.51159 0.83927 0.33006 0.0
C3756 C 0.49979 0.83711 0.32082 0.0
H3757 H 0.43789 0.81014 0.28527 0.0
H3758 H 0.45721 0.81407 0.30041 0.0
H3759 H 0.47673 0.85097 0.30741 0.0
H3760 H 0.53904 0.85957 0.33972 0.0
H3761 H 0.51992 0.85587 0.32418 0.0
C3762 C 0.8372 0.77434 0.04059 0.0
C3763 C 0.84903 0.77205 0.0376 0.0
C3764 C 0.83711 0.78404 0.04801 0.0
C3765 C 0.85729 0.81228 0.06054 0.0
H3766 H 0.83455 0.80865 0.08476 0.0
C3767 C 0.86264 0.84541 0.10067 0.0
C3768 C 0.85109 0.84806 0.1039 0.0
C3769 C 0.8621 0.83653 0.09199 0.0
C3770 C 0.84084 0.80984 0.07795 0.0
H3771 H 0.87002 0.77822 0.03995 0.0
H3772 H 0.86988 0.79501 0.05306 0.0
H3773 H 0.8341 0.79246 0.07062 0.0
H3774 H 0.82993 0.8437 0.10055 0.0
H3775 H 0.82896 0.82812 0.08539 0.0
H3776 H 0.8642 0.82962 0.06808 0.0
C3777 C 0.86064 0.78943 0.04952 0.0
C3778 C 0.84057 0.80057 0.06983 0.0
C3779 C 0.86073 0.77976 0.04204 0.0
C3780 C 0.83898 0.84177 0.09825 0.0
C3781 C 0.83843 0.83284 0.08962 0.0
C3782 C 0.85761 0.82153 0.06871 0.0
C3783 C 0.84884 0.79164 0.05267 0.0
C3784 C 0.84883 0.80165 0.06105 0.0
C3785 C 0.84999 0.8301 0.08643 0.0
C3786 C 0.84942 0.8204 0.07754 0.0
H3787 H 0.82801 0.7686 0.03725 0.0
H3788 H 0.82782 0.78558 0.0501 0.0
H3789 H 0.86363 0.81347 0.05377 0.0
H3790 H 0.87207 0.85016 0.10495 0.0
H3791 H 0.87117 0.83454 0.08981 0.0
C3792 C 0.70557 0.95618 0.90535 0.0
C3793 C 0.70583 0.95909 0.91751 0.0
C3794 C 0.69738 0.94616 0.89979 0.0
C3795 C 0.66777 0.92479 0.90314 0.0
H3796 H 0.67953 0.90671 0.87903 0.0
C3797 C 0.638 0.88067 0.88232 0.0
C3798 C 0.63676 0.87894 0.86987 0.0
C3799 C 0.64666 0.89021 0.88838 0.0
C3800 C 0.67608 0.91172 0.88569 0.0
H3801 H 0.69782 0.95369 0.9334 0.0
H3802 H 0.68372 0.93609 0.92375 0.0
H3803 H 0.69429 0.92373 0.88925 0.0
H3804 H 0.64379 0.88571 0.85405 0.0
H3805 H 0.65889 0.90239 0.86463 0.0
H3806 H 0.64959 0.91271 0.89961 0.0
C3807 C 0.68966 0.94166 0.91845 0.0
C3808 C 0.68452 0.92149 0.89153 0.0
C3809 C 0.6978 0.95172 0.924 0.0
C3810 C 0.64446 0.88688 0.86363 0.0
C3811 C 0.65319 0.89636 0.8697 0.0
C3812 C 0.65936 0.91498 0.89735 0.0
C3813 C 0.6893 0.93878 0.90626 0.0
C3814 C 0.68044 0.92819 0.90028 0.0
C3815 C 0.65434 0.89816 0.88213 0.0
C3816 C 0.6634 0.90838 0.88852 0.0
H3817 H 0.7116 0.96171 0.90008 0.0
H3818 H 0.69721 0.94431 0.89035 0.0
H3819 H 0.66422 0.92985 0.90969 0.0
H3820 H 0.63212 0.87474 0.88735 0.0
H3821 H 0.64741 0.89133 0.89797 0.0
C3822 C 0.24707 0.5698 0.08826 0.0
C3823 C 0.24558 0.56759 0.07585 0.0
C3824 C 0.2414 0.57831 0.0932 0.0
C3825 C 0.2147 0.59422 0.086 0.0
H3826 H 0.23138 0.61308 0.11472 0.0
C3827 C 0.19106 0.62925 0.10599 0.0
C3828 C 0.19076 0.6292 0.11829 0.0
C3829 C 0.19877 0.62275 0.10062 0.0
C3830 C 0.22658 0.60783 0.10673 0.0
H3831 H 0.23737 0.57284 0.05889 0.0
H3832 H 0.22769 0.58781 0.06749 0.0
H3833 H 0.24311 0.59993 0.10556 0.0
H3834 H 0.19869 0.62292 0.13474 0.0
H3835 H 0.21219 0.61147 0.12538 0.0
H3836 H 0.19816 0.60206 0.0872 0.0
C3837 C 0.23301 0.58282 0.07342 0.0
C3838 C 0.23329 0.60029 0.10149 0.0
C3839 C 0.23862 0.57428 0.06849 0.0
C3840 C 0.19871 0.62297 0.12522 0.0
C3841 C 0.20647 0.6165 0.11987 0.0
C3842 C 0.20804 0.60179 0.0912 0.0
C3843 C 0.23416 0.58483 0.08585 0.0
C3844 C 0.22738 0.59332 0.09111 0.0
C3845 C 0.20642 0.61618 0.10748 0.0
C3846 C 0.21385 0.60861 0.10167 0.0
H3847 H 0.25236 0.56478 0.09419 0.0
H3848 H 0.24236 0.57952 0.1028 0.0
H3849 H 0.20975 0.58884 0.07814 0.0
H3850 H 0.18515 0.63414 0.1005 0.0
H3851 H 0.1987 0.62282 0.09109 0.0
C3852 C 0.1965 0.4173 0.86368 0.0
C3853 C 0.19496 0.42885 0.86434 0.0
C3854 C 0.1856 0.40831 0.86248 0.0
C3855 C 0.14952 0.40154 0.85423 0.0
H3856 H 0.15174 0.3763 0.87454 0.0
C3857 C 0.10693 0.36238 0.85335 0.0
C3858 C 0.10433 0.35864 0.86449 0.0
C3859 C 0.11818 0.37054 0.85246 0.0
C3860 C 0.15095 0.3833 0.86883 0.0
H3861 H 0.18073 0.43998 0.86393 0.0
H3862 H 0.16179 0.42432 0.86196 0.0
H3863 H 0.17096 0.39134 0.87435 0.0
H3864 H 0.11133 0.36078 0.88347 0.0
H3865 H 0.13089 0.37494 0.88191 0.0
H3866 H 0.12937 0.39366 0.84901 0.0
C3867 C 0.17139 0.4222 0.86225 0.0
C3868 C 0.16201 0.39185 0.86861 0.0
C3869 C 0.18227 0.43119 0.86346 0.0
C3870 C 0.11317 0.36329 0.87472 0.0
C3871 C 0.12439 0.37141 0.87383 0.0
C3872 C 0.13845 0.39296 0.85443 0.0
C3873 C 0.17293 0.41065 0.86188 0.0
C3874 C 0.16139 0.40115 0.86142 0.0
C3875 C 0.12706 0.37512 0.86269 0.0
C3876 C 0.13899 0.38383 0.86187 0.0
H3877 H 0.20613 0.4152 0.86427 0.0
H3878 H 0.1871 0.3995 0.86206 0.0
H3879 H 0.14875 0.40852 0.84849 0.0
H3880 H 0.10039 0.35887 0.84529 0.0
H3881 H 0.12002 0.37314 0.84374 0.0
C3882 C 0.25598 0.43412 0.57858 0.0
C3883 C 0.25438 0.43566 0.56632 0.0
C3884 C 0.26534 0.42809 0.58363 0.0
C3885 C 0.28577 0.40732 0.57629 0.0
H3886 H 0.3075 0.42029 0.6059 0.0
C3887 C 0.33267 0.39134 0.59477 0.0
C3888 C 0.33539 0.39067 0.60715 0.0
C3889 C 0.32231 0.39633 0.58987 0.0
C3890 C 0.30141 0.41645 0.59771 0.0
H3891 H 0.26123 0.43193 0.5497 0.0
H3892 H 0.27761 0.42147 0.55852 0.0
H3893 H 0.29021 0.4298 0.59722 0.0
H3894 H 0.32913 0.39439 0.62404 0.0
H3895 H 0.31101 0.40304 0.61548 0.0
H3896 H 0.29702 0.394 0.57677 0.0
C3897 C 0.27154 0.42483 0.56422 0.0
C3898 C 0.29149 0.42191 0.59274 0.0
C3899 C 0.2622 0.43088 0.55918 0.0
C3900 C 0.32741 0.39495 0.61449 0.0
C3901 C 0.31704 0.39992 0.60958 0.0
C3902 C 0.29568 0.40184 0.58128 0.0
C3903 C 0.27329 0.42345 0.57651 0.0
C3904 C 0.28359 0.41744 0.58194 0.0
C3905 C 0.31441 0.40073 0.59722 0.0
C3906 C 0.30365 0.40637 0.59203 0.0
H3907 H 0.25008 0.43766 0.58433 0.0
H3908 H 0.26633 0.42705 0.5931 0.0
H3909 H 0.27974 0.40357 0.56805 0.0
H3910 H 0.33874 0.38825 0.58889 0.0
H3911 H 0.32068 0.39697 0.58033 0.0
C3912 C 0.79727 0.05611 0.91781 0.0
C3913 C 0.78653 0.05046 0.90957 0.0
C3914 C 0.80812 0.06274 0.91394 0.0
C3915 C 0.8187 0.07826 0.88841 0.0
H3916 H 0.85333 0.0773 0.90463 0.0
C3917 C 0.86591 0.10358 0.87375 0.0
C3918 C 0.87514 0.10977 0.88301 0.0
C3919 C 0.85528 0.09552 0.87629 0.0
C3920 C 0.84372 0.07771 0.90005 0.0
H3921 H 0.77875 0.04738 0.89078 0.0
H3922 H 0.79779 0.05889 0.88401 0.0
H3923 H 0.83431 0.06488 0.91036 0.0
H3924 H 0.88074 0.1121 0.90216 0.0
H3925 H 0.8622 0.09814 0.90661 0.0
H3926 H 0.82816 0.09117 0.87816 0.0
C3927 C 0.79774 0.05828 0.89348 0.0
C3928 C 0.83282 0.07061 0.90335 0.0
C3929 C 0.78686 0.05165 0.89736 0.0
C3930 C 0.87371 0.10755 0.89484 0.0
C3931 C 0.86316 0.09947 0.89738 0.0
C3932 C 0.82963 0.08535 0.88509 0.0
C3933 C 0.80853 0.06387 0.90173 0.0
C3934 C 0.82015 0.07093 0.8977 0.0
C3935 C 0.85376 0.09343 0.88815 0.0
C3936 C 0.84224 0.08527 0.89099 0.0
H3937 H 0.79732 0.05542 0.92728 0.0
H3938 H 0.81616 0.06709 0.92055 0.0
H3939 H 0.80908 0.07881 0.88396 0.0
H3940 H 0.86673 0.10516 0.86455 0.0
H3941 H 0.84824 0.09094 0.86899 0.0
C3942 C 0.78191 0.02353 0.35301 0.0
C3943 C 0.78074 0.02349 0.36517 0.0
C3944 C 0.78989 0.03275 0.34869 0.0
C3945 C 0.81668 0.0581 0.35842 0.0
H3946 H 0.80452 0.06868 0.32786 0.0
C3947 C 0.8387 0.10214 0.34224 0.0
C3948 C 0.84114 0.10222 0.3304 0.0
C3949 C 0.83194 0.09217 0.34642 0.0
C3950 C 0.8081 0.06575 0.33635 0.0
H3951 H 0.78703 0.03307 0.38233 0.0
H3952 H 0.80063 0.04927 0.37477 0.0
H3953 H 0.79153 0.052 0.33531 0.0
H3954 H 0.83842 0.09199 0.31364 0.0
H3955 H 0.8265 0.07455 0.32094 0.0
H3956 H 0.83308 0.07211 0.35955 0.0
C3957 C 0.79565 0.04208 0.36859 0.0
C3958 C 0.80069 0.05616 0.34062 0.0
C3959 C 0.78778 0.03281 0.37292 0.0
C3960 C 0.83674 0.09213 0.32283 0.0
C3961 C 0.82985 0.0822 0.32697 0.0
C3962 C 0.82402 0.06776 0.3542 0.0
C3963 C 0.79677 0.0422 0.3564 0.0
C3964 C 0.80486 0.05223 0.35173 0.0
C3965 C 0.82736 0.08213 0.3388 0.0
C3966 C 0.81978 0.0717 0.34314 0.0
H3967 H 0.77668 0.01643 0.34682 0.0
H3968 H 0.79069 0.03242 0.33929 0.0
H3969 H 0.82033 0.05521 0.36691 0.0
H3970 H 0.84206 0.10977 0.34828 0.0
H3971 H 0.83007 0.09238 0.35555 0.0
C3972 C 0.2031 0.52062 0.60322 0.0
C3973 C 0.2094 0.52394 0.59343 0.0
C3974 C 0.19888 0.52875 0.61023 0.0
C3975 C 0.18962 0.5572 0.60945 0.0
H3976 H 0.19475 0.55674 0.64384 0.0
C3977 C 0.17702 0.59268 0.63973 0.0
C3978 C 0.17119 0.58916 0.64968 0.0
C3979 C 0.18214 0.58491 0.63302 0.0
C3980 C 0.19311 0.55691 0.63424 0.0
H3981 H 0.21628 0.53845 0.5834 0.0
H3982 H 0.20889 0.55264 0.59566 0.0
H3983 H 0.20285 0.54281 0.63186 0.0
H3984 H 0.16571 0.5748 0.66027 0.0
H3985 H 0.17448 0.56111 0.64849 0.0
H3986 H 0.17973 0.57117 0.61179 0.0
C3987 C 0.20714 0.54372 0.59784 0.0
C3988 C 0.19777 0.54894 0.62738 0.0
C3989 C 0.21143 0.53559 0.59085 0.0
C3990 C 0.17038 0.57772 0.65274 0.0
C3991 C 0.17545 0.56993 0.64602 0.0
C3992 C 0.18491 0.56514 0.6163 0.0
C3993 C 0.2008 0.54039 0.60759 0.0
C3994 C 0.19605 0.54898 0.61491 0.0
C3995 C 0.18138 0.57343 0.63606 0.0
C3996 C 0.18657 0.56508 0.62879 0.0
H3997 H 0.20138 0.51171 0.60545 0.0
H3998 H 0.1939 0.5259 0.61761 0.0
H3999 H 0.18798 0.55734 0.59985 0.0
H4000 H 0.17761 0.60143 0.63713 0.0
H4001 H 0.18675 0.58792 0.6255 0.0
C4002 C 0.2747 0.46012 0.09188 0.0
C4003 C 0.27637 0.47113 0.0977 0.0
C4004 C 0.2808 0.45167 0.09711 0.0
C4005 C 0.30865 0.44848 0.1194 0.0
H4006 H 0.2916 0.41625 0.11617 0.0
C4007 C 0.33261 0.41345 0.1421 0.0
C4008 C 0.33192 0.40324 0.13508 0.0
C4009 C 0.32518 0.42156 0.13821 0.0
C4010 C 0.29651 0.42521 0.11708 0.0
H4011 H 0.28546 0.48181 0.11375 0.0
H4012 H 0.29594 0.46703 0.12294 0.0
H4013 H 0.27966 0.43073 0.10829 0.0
H4014 H 0.32324 0.39357 0.1184 0.0
H4015 H 0.31019 0.40772 0.11154 0.0
H4016 H 0.32552 0.44296 0.12813 0.0
C4017 C 0.29011 0.46498 0.11423 0.0
C4018 C 0.28968 0.43351 0.11255 0.0
C4019 C 0.28404 0.47344 0.10899 0.0
C4020 C 0.32373 0.40128 0.12406 0.0
C4021 C 0.31625 0.40937 0.12017 0.0
C4022 C 0.31546 0.4402 0.12395 0.0
C4023 C 0.28868 0.45404 0.1083 0.0
C4024 C 0.2957 0.44524 0.11358 0.0
C4025 C 0.31697 0.41963 0.12717 0.0
C4026 C 0.30951 0.42846 0.12277 0.0
H4027 H 0.26887 0.45806 0.08317 0.0
H4028 H 0.27961 0.44339 0.09222 0.0
H4029 H 0.31367 0.45741 0.12017 0.0
H4030 H 0.33902 0.41519 0.15056 0.0
H4031 H 0.32588 0.42934 0.14383 0.0
C4032 C 0.63346 0.81596 0.50583 0.0
C4033 C 0.62219 0.81014 0.49831 0.0
C4034 C 0.63293 0.8254 0.51343 0.0
C4035 C 0.61352 0.84771 0.51798 0.0
H4036 H 0.63307 0.85112 0.54985 0.0
C4037 C 0.62377 0.89016 0.54777 0.0
C4038 C 0.62357 0.88946 0.56005 0.0
C4039 C 0.62253 0.8802 0.5403 0.0
C4040 C 0.62743 0.85024 0.54103 0.0
H4041 H 0.60153 0.8097 0.49287 0.0
H4042 H 0.60058 0.82614 0.50623 0.0
H4043 H 0.6329 0.83419 0.53681 0.0
H4044 H 0.62171 0.8777 0.57409 0.0
H4045 H 0.61928 0.86029 0.56102 0.0
H4046 H 0.60795 0.86372 0.52226 0.0
C4047 C 0.60986 0.82346 0.50614 0.0
C4048 C 0.62748 0.84061 0.5335 0.0
C4049 C 0.61039 0.81401 0.49853 0.0
C4050 C 0.62181 0.87854 0.56466 0.0
C4051 C 0.62057 0.86857 0.55719 0.0
C4052 C 0.61349 0.85736 0.52552 0.0
C4053 C 0.62112 0.82924 0.51371 0.0
C4054 C 0.62062 0.83928 0.52185 0.0
C4055 C 0.62105 0.86929 0.54494 0.0
C4056 C 0.62053 0.85878 0.5371 0.0
H4057 H 0.64273 0.81325 0.50585 0.0
H4058 H 0.64183 0.82978 0.51899 0.0
H4059 H 0.60822 0.84699 0.50903 0.0
H4060 H 0.62494 0.89843 0.54391 0.0
H4061 H 0.62306 0.88108 0.53093 0.0
C4062 C 0.39623 0.44155 0.78285 0.0
C4063 C 0.40983 0.44243 0.78405 0.0
C4064 C 0.38892 0.435 0.79041 0.0
C4065 C 0.3905 0.41245 0.81216 0.0
H4066 H 0.36107 0.42372 0.82208 0.0
C4067 C 0.36369 0.3959 0.85136 0.0
C4068 C 0.34995 0.39403 0.8493 0.0
C4069 C 0.37102 0.40077 0.84283 0.0
C4070 C 0.36919 0.42041 0.81929 0.0
H4071 H 0.42648 0.43716 0.79414 0.0
H4072 H 0.41382 0.42606 0.80764 0.0
H4073 H 0.37394 0.43454 0.80863 0.0
H4074 H 0.33316 0.39516 0.83631 0.0
H4075 H 0.34597 0.40394 0.82161 0.0
H4076 H 0.38588 0.3985 0.82326 0.0
C4077 C 0.4087 0.43017 0.80065 0.0
C4078 C 0.37655 0.42658 0.81153 0.0
C4079 C 0.41599 0.4366 0.79297 0.0
C4080 C 0.34372 0.39673 0.83832 0.0
C4081 C 0.35104 0.40172 0.82988 0.0
C4082 C 0.38321 0.40635 0.82007 0.0
C4083 C 0.39507 0.4293 0.79949 0.0
C4084 C 0.38728 0.42267 0.80781 0.0
C4085 C 0.36475 0.40397 0.83214 0.0
C4086 C 0.37245 0.41025 0.82365 0.0
H4087 H 0.39118 0.44584 0.77597 0.0
H4088 H 0.37842 0.43434 0.78904 0.0
H4089 H 0.39856 0.40906 0.80936 0.0
H4090 H 0.36883 0.39405 0.85975 0.0
H4091 H 0.38159 0.40249 0.84482 0.0
C4092 C 0.88912 0.20639 0.01004 0.0
C4093 C 0.88313 0.20655 0.99823 0.0
C4094 C 0.88376 0.19831 0.01749 0.0
C4095 C 0.8528 0.17925 0.02121 0.0
H4096 H 0.87526 0.16484 0.04325 0.0
C4097 C 0.83228 0.14308 0.04997 0.0
C4098 C 0.83814 0.14384 0.06191 0.0
C4099 C 0.83783 0.15039 0.04193 0.0
C4100 C 0.86886 0.16887 0.03722 0.0
H4101 H 0.8669 0.19822 0.98493 0.0
H4102 H 0.85763 0.18403 0.9979 0.0
H4103 H 0.88487 0.17811 0.02961 0.0
H4104 H 0.85458 0.15243 0.07476 0.0
H4105 H 0.86426 0.16535 0.06076 0.0
H4106 H 0.8368 0.17004 0.02886 0.0
C4107 C 0.86638 0.19026 0.00145 0.0
C4108 C 0.87437 0.17648 0.02941 0.0
C4109 C 0.87174 0.19836 0.99399 0.0
C4110 C 0.84981 0.15182 0.06562 0.0
C4111 C 0.85538 0.15913 0.05759 0.0
C4112 C 0.84729 0.17163 0.02902 0.0
C4113 C 0.87229 0.19018 0.0133 0.0
C4114 C 0.86641 0.18181 0.02135 0.0
C4115 C 0.84943 0.15853 0.04566 0.0
C4116 C 0.85526 0.1664 0.03716 0.0
H4117 H 0.89789 0.2126 0.0136 0.0
H4118 H 0.88847 0.19858 0.02661 0.0
H4119 H 0.8464 0.18334 0.01525 0.0
H4120 H 0.8234 0.13682 0.04688 0.0
H4121 H 0.83312 0.14958 0.03276 0.0
C4122 C 0.07011 0.61906 0.2833 0.0
C4123 C 0.06859 0.62974 0.27898 0.0
C4124 C 0.07577 0.61841 0.29504 0.0
C4125 C 0.08447 0.63447 0.32467 0.0
H4126 H 0.10998 0.61473 0.32955 0.0
C4127 C 0.1082 0.62512 0.37145 0.0
C4128 C 0.12152 0.62451 0.37287 0.0
C4129 C 0.10144 0.62614 0.36018 0.0
C4130 C 0.10296 0.62035 0.32833 0.0
H4131 H 0.07148 0.6481 0.28372 0.0
H4132 H 0.08147 0.64698 0.30419 0.0
H4133 H 0.09847 0.61565 0.30965 0.0
H4134 H 0.13833 0.62504 0.36369 0.0
H4135 H 0.12657 0.62684 0.34407 0.0
H4136 H 0.08922 0.63935 0.34336 0.0
C4137 C 0.07817 0.63908 0.29853 0.0
C4138 C 0.09622 0.62076 0.31694 0.0
C4139 C 0.0725 0.63973 0.28677 0.0
C4140 C 0.12801 0.62526 0.36285 0.0
C4141 C 0.12127 0.62628 0.35161 0.0
C4142 C 0.09121 0.63405 0.33609 0.0
C4143 C 0.08005 0.62844 0.30274 0.0
C4144 C 0.08692 0.62784 0.31496 0.0
C4145 C 0.10786 0.62657 0.35011 0.0
C4146 C 0.10058 0.62702 0.33803 0.0
H4147 H 0.06713 0.61119 0.27755 0.0
H4148 H 0.07687 0.61005 0.29807 0.0
H4149 H 0.0773 0.63994 0.32345 0.0
H4150 H 0.10289 0.62446 0.37898 0.0
H4151 H 0.09109 0.62623 0.35932 0.0
C4152 C 0.64408 0.17148 0.02149 0.0
C4153 C 0.63423 0.17792 0.02219 0.0
C4154 C 0.64627 0.16716 0.01044 0.0
C4155 C 0.64102 0.17207 0.97849 0.0
H4156 H 0.64793 0.14124 0.97407 0.0
C4157 C 0.64321 0.15154 0.93206 0.0
C4158 C 0.65307 0.14521 0.93113 0.0
C4159 C 0.64087 0.15534 0.94323 0.0
C4160 C 0.64616 0.14992 0.97519 0.0
H4161 H 0.61878 0.18466 0.01184 0.0
H4162 H 0.62254 0.17708 0.99265 0.0
H4163 H 0.64394 0.14816 0.99351 0.0
H4164 H 0.66787 0.13744 0.94101 0.0
H4165 H 0.66399 0.14426 0.96058 0.0
H4166 H 0.6433 0.17388 0.96022 0.0
C4167 C 0.6287 0.1755 0.00061 0.0
C4168 C 0.64387 0.15388 0.98633 0.0
C4169 C 0.6265 0.17979 0.01163 0.0
C4170 C 0.66035 0.14248 0.94154 0.0
C4171 C 0.65803 0.14629 0.95272 0.0
C4172 C 0.64334 0.16813 0.96737 0.0
C4173 C 0.63867 0.16921 -0.00013 0.0
C4174 C 0.64123 0.16499 0.98809 0.0
C4175 C 0.64829 0.15281 0.9537 0.0
C4176 C 0.6459 0.15699 0.96557 0.0
H4177 H 0.65022 0.16989 0.02945 0.0
H4178 H 0.6541 0.16243 0.01017 0.0
H4179 H 0.63924 0.18075 0.9796 0.0
H4180 H 0.6373 0.15352 0.92414 0.0
H4181 H 0.63312 0.16014 0.94367 0.0
C4182 C 0.04787 0.38447 0.18146 0.0
C4183 C 0.04731 0.39342 0.1898 0.0
C4184 C 0.05473 0.38672 0.17186 0.0
C4185 C 0.06777 0.41044 0.15405 0.0
H4186 H 0.08817 0.38881 0.1437 0.0
C4187 C 0.10191 0.4206 0.11863 0.0
C4188 C 0.10149 0.41172 0.1099 0.0
C4189 C 0.09552 0.41839 0.12853 0.0
C4190 C 0.08242 0.39488 0.14642 0.0
H4191 H 0.05364 0.41175 0.19466 0.0
H4192 H 0.06575 0.41564 0.17802 0.0
H4193 H 0.07667 0.38493 0.16075 0.0
H4194 H 0.0945 0.39358 0.10474 0.0
H4195 H 0.08324 0.38966 0.12202 0.0
H4196 H 0.07357 0.42039 0.13973 0.0
C4197 C 0.06071 0.40691 0.17879 0.0
C4198 C 0.07581 0.39266 0.15618 0.0
C4199 C 0.05383 0.40466 0.18837 0.0
C4200 C 0.09483 0.40056 0.11134 0.0
C4201 C 0.08848 0.39833 0.12125 0.0
C4202 C 0.07441 0.41267 0.14431 0.0
C4203 C 0.06122 0.39797 0.17039 0.0
C4204 C 0.06838 0.40039 0.1601 0.0
C4205 C 0.08871 0.40723 0.12993 0.0
C4206 C 0.08178 0.40491 0.14037 0.0
H4207 H 0.04292 0.37572 0.18228 0.0
H4208 H 0.05477 0.37966 0.16548 0.0
H4209 H 0.06197 0.41649 0.15669 0.0
H4210 H 0.10715 0.42925 0.11779 0.0
H4211 H 0.09604 0.42539 0.13515 0.0
C4212 C 0.87463 0.80757 0.48746 0.0
C4213 C 0.86444 0.80099 0.49248 0.0
C4214 C 0.87213 0.81192 0.47633 0.0
C4215 C 0.84855 0.80818 0.44868 0.0
H4216 H 0.86292 0.84041 0.44569 0.0
C4217 C 0.84439 0.82949 0.40378 0.0
C4218 C 0.84084 0.84035 0.40401 0.0
C4219 C 0.8476 0.82443 0.41439 0.0
C4220 C 0.85882 0.8314 0.4464 0.0
H4221 H 0.84371 0.79357 0.4896 0.0
H4222 H 0.83937 0.80112 0.47013 0.0
H4223 H 0.86796 0.83181 0.46448 0.0
H4224 H 0.83733 0.85423 0.41541 0.0
H4225 H 0.84311 0.84547 0.43399 0.0
H4226 H 0.8393 0.80782 0.43063 0.0
C4227 C 0.84929 0.80289 0.47481 0.0
C4228 C 0.8618 0.82645 0.45711 0.0
C4229 C 0.85177 0.79861 0.48599 0.0
C4230 C 0.84032 0.84597 0.41502 0.0
C4231 C 0.84364 0.84096 0.42563 0.0
C4232 C 0.84567 0.8131 0.43792 0.0
C4233 C 0.85941 0.80971 0.46994 0.0
C4234 C 0.85663 0.81481 0.45839 0.0
C4235 C 0.84731 0.83014 0.42543 0.0
C4236 C 0.85069 0.82479 0.43671 0.0
H4237 H 0.88451 0.80955 0.49223 0.0
H4238 H 0.88015 0.81705 0.47274 0.0
H4239 H 0.8445 0.79916 0.44938 0.0
H4240 H 0.84467 0.82491 0.39539 0.0
H4241 H 0.85044 0.8161 0.41396 0.0
C4242 C 0.41142 0.62511 0.69394 0.0
C4243 C 0.41672 0.61546 0.69726 0.0
C4244 C 0.40221 0.62437 0.68369 0.0
C4245 C 0.37881 0.60339 0.66221 0.0
H4246 H 0.3823 0.62837 0.64119 0.0
C4247 C 0.35165 0.59856 0.61419 0.0
C4248 C 0.34612 0.60782 0.61003 0.0
C4249 C 0.35983 0.59974 0.62511 0.0
C4250 C 0.3811 0.62139 0.64704 0.0
H4251 H 0.41638 0.59744 0.69249 0.0
H4252 H 0.40046 0.59621 0.67458 0.0
H4253 H 0.39721 0.62994 0.65988 0.0
H4254 H 0.34481 0.6256 0.61413 0.0
H4255 H 0.35918 0.62769 0.63321 0.0
H4256 H 0.3628 0.59478 0.6493 0.0
C4257 C 0.40328 0.6043 0.67996 0.0
C4258 C 0.38963 0.62229 0.65775 0.0
C4259 C 0.41248 0.60503 0.69021 0.0
C4260 C 0.34904 0.61834 0.61701 0.0
C4261 C 0.35726 0.61953 0.62794 0.0
C4262 C 0.3703 0.60248 0.65149 0.0
C4263 C 0.3981 0.61398 0.67654 0.0
C4264 C 0.38865 0.61326 0.66542 0.0
C4265 C 0.3627 0.61023 0.63213 0.0
C4266 C 0.37142 0.61142 0.64373 0.0
H4267 H 0.41445 0.63326 0.69921 0.0
H4268 H 0.39828 0.63195 0.68139 0.0
H4269 H 0.37764 0.59637 0.668 0.0
H4270 H 0.34981 0.59041 0.60893 0.0
H4271 H 0.36406 0.59247 0.62798 0.0
C4272 C 0.5396 0.62364 0.77491 0.0
C4273 C 0.53088 0.61328 0.77077 0.0
C4274 C 0.55026 0.62369 0.78372 0.0
C4275 C 0.57088 0.60487 0.79874 0.0
H4276 H 0.57792 0.62903 0.82426 0.0
C4277 C 0.60442 0.60322 0.84325 0.0
C4278 C 0.61224 0.61364 0.84851 0.0
C4279 C 0.59538 0.60316 0.833 0.0
C4280 C 0.57623 0.62232 0.81712 0.0
H4281 H 0.52667 0.59482 0.7725 0.0
H4282 H 0.54519 0.59494 0.78797 0.0
H4283 H 0.56049 0.62899 0.80783 0.0
H4284 H 0.61724 0.63205 0.8468 0.0
H4285 H 0.60154 0.63193 0.82889 0.0
H4286 H 0.58656 0.59814 0.80815 0.0
C4287 C 0.54387 0.60301 0.7843 0.0
C4288 C 0.56622 0.62229 0.80769 0.0
C4289 C 0.5332 0.60295 0.77549 0.0
C4290 C 0.61118 0.62392 0.84306 0.0
C4291 C 0.60218 0.62385 0.83282 0.0
C4292 C 0.58091 0.6049 0.80818 0.0
C4293 C 0.55245 0.6134 0.7886 0.0
C4294 C 0.56339 0.61355 0.79841 0.0
C4295 C 0.594 0.6135 0.82779 0.0
C4296 C 0.58367 0.61361 0.8175 0.0
H4297 H 0.53813 0.63174 0.77141 0.0
H4298 H 0.5568 0.63182 0.78671 0.0
H4299 H 0.56905 0.5981 0.79164 0.0
H4300 H 0.60493 0.59518 0.84731 0.0
H4301 H 0.58915 0.59505 0.82941 0.0
C4302 C 0.60967 0.27271 0.08955 0.0
C4303 C 0.59961 0.26288 0.08795 0.0
C4304 C 0.60838 0.2826 0.09612 0.0
C4305 C 0.59027 0.29261 0.11879 0.0
H4306 H 0.60065 0.32255 0.10667 0.0
C4307 C 0.57763 0.33403 0.13896 0.0
C4308 C 0.58713 0.34419 0.13987 0.0
C4309 C 0.57937 0.32406 0.13284 0.0
C4310 C 0.59786 0.31427 0.11027 0.0
H4311 H 0.58035 0.25568 0.09208 0.0
H4312 H 0.5781 0.27294 0.10349 0.0
H4313 H 0.60335 0.30523 0.09565 0.0
H4314 H 0.60608 0.35189 0.13558 0.0
H4315 H 0.60926 0.33444 0.12494 0.0
H4316 H 0.5848 0.30164 0.13342 0.0
C4317 C 0.58703 0.27298 0.09975 0.0
C4318 C 0.5994 0.30435 0.10394 0.0
C4319 C 0.58829 0.26311 0.09315 0.0
C4320 C 0.59854 0.34417 0.1348 0.0
C4321 C 0.60031 0.33421 0.12869 0.0
C4322 C 0.58876 0.30254 0.12514 0.0
C4323 C 0.59704 0.28285 0.10127 0.0
C4324 C 0.59559 0.2934 0.10811 0.0
C4325 C 0.59072 0.32405 0.12759 0.0
C4326 C 0.5925 0.31349 0.12094 0.0
H4327 H 0.61853 0.27281 0.08569 0.0
H4328 H 0.61633 0.29001 0.09725 0.0
H4329 H 0.58741 0.28432 0.12233 0.0
H4330 H 0.56881 0.33382 0.14293 0.0
H4331 H 0.57174 0.31642 0.13207 0.0
C4332 C 0.98604 0.40749 0.29081 0.0
C4333 C 0.98756 0.39659 0.28645 0.0
C4334 C 0.97638 0.40848 0.29787 0.0
C4335 C 0.95455 0.39196 0.31669 0.0
H4336 H 0.93444 0.41596 0.31077 0.0
C4337 C 0.90749 0.3934 0.33707 0.0
C4338 C 0.90566 0.40424 0.3412 0.0
C4339 C 0.91771 0.39252 0.33064 0.0
C4340 C 0.94007 0.4093 0.31263 0.0
H4341 H 0.9802 0.37818 0.28624 0.0
H4342 H 0.96328 0.37992 0.29845 0.0
H4343 H 0.95193 0.41433 0.2992 0.0
H4344 H 0.91327 0.42261 0.34233 0.0
H4345 H 0.93117 0.42112 0.33108 0.0
H4346 H 0.9426 0.38688 0.33007 0.0
C4347 C 0.96966 0.3877 0.29652 0.0
C4348 C 0.95011 0.40837 0.306 0.0
C4349 C 0.97932 0.3867 0.28947 0.0
C4350 C 0.91436 0.41418 0.33903 0.0
C4351 C 0.92456 0.41331 0.33257 0.0
C4352 C 0.9445 0.39288 0.32331 0.0
C4353 C 0.96801 0.3986 0.30074 0.0
C4354 C 0.95746 0.39968 0.30794 0.0
C4355 C 0.92634 0.40247 0.32828 0.0
C4356 C 0.93712 0.40155 0.32134 0.0
H4357 H 0.99226 0.41528 0.2887 0.0
H4358 H 0.97552 0.417 0.30112 0.0
H4359 H 0.96015 0.38528 0.31853 0.0
H4360 H 0.90098 0.38561 0.3388 0.0
H4361 H 0.91874 0.38405 0.32739 0.0
C4362 C 0.87823 0.74535 0.57624 0.0
C4363 C 0.87853 0.74862 0.56453 0.0
C4364 C 0.87945 0.73422 0.57909 0.0
C4365 C 0.87585 0.70452 0.56606 0.0
H4366 H 0.8966 0.70065 0.596 0.0
C4367 C 0.87347 0.66052 0.58669 0.0
C4368 C 0.88515 0.65801 0.59249 0.0
C4369 C 0.8732 0.67141 0.58248 0.0
C4370 C 0.89089 0.70156 0.58754 0.0
H4371 H 0.88029 0.74271 0.54661 0.0
H4372 H 0.88251 0.72322 0.55163 0.0
H4373 H 0.89535 0.71996 0.59008 0.0
H4374 H 0.90564 0.66485 0.59868 0.0
H4375 H 0.90528 0.68384 0.59115 0.0
H4376 H 0.8715 0.68608 0.56349 0.0
C4377 C 0.88121 0.72928 0.55857 0.0
C4378 C 0.89004 0.71264 0.58422 0.0
C4379 C 0.88 0.74045 0.55571 0.0
C4380 C 0.89656 0.66656 0.59407 0.0
C4381 C 0.89631 0.67744 0.58986 0.0
C4382 C 0.8767 0.69341 0.56939 0.0
C4383 C 0.88102 0.72606 0.57032 0.0
C4384 C 0.8824 0.71426 0.5735 0.0
C4385 C 0.8846 0.68003 0.58409 0.0
C4386 C 0.88415 0.69181 0.58023 0.0
H4387 H 0.87705 0.75139 0.58325 0.0
H4388 H 0.87902 0.73197 0.58818 0.0
H4389 H 0.86982 0.70546 0.55778 0.0
H4390 H 0.8645 0.65411 0.5856 0.0
H4391 H 0.86397 0.67317 0.57828 0.0
C4392 C 0.50805 0.43774 0.73637 0.0
C4393 C 0.49616 0.42974 0.73452 0.0
C4394 C 0.51944 0.43465 0.73342 0.0
C4395 C 0.53079 0.41375 0.71439 0.0
H4396 H 0.56416 0.42507 0.73428 0.0
C4397 C 0.57851 0.40082 0.70401 0.0
C4398 C 0.58948 0.40978 0.70498 0.0
C4399 C 0.56719 0.40259 0.70834 0.0
C4400 C 0.55492 0.42191 0.7286 0.0
H4401 H 0.48696 0.41214 0.72828 0.0
H4402 H 0.5069 0.4067 0.72325 0.0
H4403 H 0.5442 0.42927 0.74059 0.0
H4404 H 0.59724 0.42767 0.71095 0.0
H4405 H 0.57747 0.43082 0.71857 0.0
H4406 H 0.54153 0.40648 0.70235 0.0
C4407 C 0.50736 0.41543 0.72683 0.0
C4408 C 0.54349 0.42432 0.7322 0.0
C4409 C 0.49595 0.41852 0.72977 0.0
C4410 C 0.58897 0.42057 0.71032 0.0
C4411 C 0.57767 0.42235 0.71469 0.0
C4412 C 0.54222 0.41133 0.7108 0.0
C4413 C 0.51923 0.42348 0.72857 0.0
C4414 C 0.5313 0.42037 0.72508 0.0
C4415 C 0.56663 0.4134 0.71368 0.0
C4416 C 0.55443 0.41548 0.71781 0.0
H4417 H 0.50856 0.44646 0.73998 0.0
H4418 H 0.52837 0.44112 0.73472 0.0
H4419 H 0.5216 0.41072 0.7086 0.0
H4420 H 0.57866 0.39248 0.69976 0.0
H4421 H 0.55888 0.39551 0.7075 0.0
C4422 C 0.87037 0.28605 0.9311 0.0
C4423 C 0.88305 0.29112 0.93665 0.0
C4424 C 0.8633 0.2921 0.92317 0.0
C4425 C 0.85961 0.32077 0.91486 0.0
H4426 H 0.8481 0.30659 0.88285 0.0
C4427 C 0.84362 0.34671 0.87557 0.0
C4428 C 0.83479 0.34096 0.86586 0.0
C4429 C 0.84801 0.3406 0.88504 0.0
C4430 C 0.85092 0.31062 0.89179 0.0
H4431 H 0.89811 0.30661 0.93854 0.0
H4432 H 0.88557 0.31728 0.92488 0.0
H4433 H 0.8584 0.29597 0.89799 0.0
H4434 H 0.82301 0.32454 0.85856 0.0
H4435 H 0.83003 0.3139 0.87537 0.0
H4436 H 0.85194 0.33534 0.90883 0.0
C4437 C 0.8812 0.3086 0.92661 0.0
C4438 C 0.85692 0.30452 0.90044 0.0
C4439 C 0.88838 0.30247 0.93436 0.0
C4440 C 0.82989 0.32912 0.86598 0.0
C4441 C 0.83404 0.32303 0.87556 0.0
C4442 C 0.85337 0.3268 0.90627 0.0
C4443 C 0.86867 0.30341 0.92084 0.0
C4444 C 0.86149 0.30961 0.91199 0.0
C4445 C 0.84346 0.32861 0.88507 0.0
C4446 C 0.84912 0.32188 0.89455 0.0
H4447 H 0.86603 0.27731 0.93268 0.0
H4448 H 0.85364 0.28794 0.91883 0.0
H4449 H 0.86297 0.32482 0.92376 0.0
H4450 H 0.84763 0.35584 0.87556 0.0
H4451 H 0.8554 0.34521 0.89205 0.0
C4452 C 0.01163 0.64891 0.223 0.0
C4453 C 0.02152 0.65807 0.22099 0.0
C4454 C 0.99907 0.64744 0.2165 0.0
C4455 C 0.97699 0.66261 0.19771 0.0
H4456 H 0.96039 0.6318 0.1844 0.0
C4457 C 0.93281 0.6544 0.16029 0.0
C4458 C 0.92268 0.64503 0.16108 0.0
C4459 C 0.94454 0.65596 0.16814 0.0
C4460 C 0.9648 0.64044 0.18818 0.0
H4461 H 0.02587 0.67304 0.21081 0.0
H4462 H 0.00406 0.67043 0.19949 0.0
H4463 H 0.98125 0.63474 0.19755 0.0
H4464 H 0.91693 0.62969 0.17026 0.0
H4465 H 0.93739 0.63247 0.18413 0.0
H4466 H 0.96062 0.66832 0.18826 0.0
C4467 C 0.00595 0.66444 0.20614 0.0
C4468 C 0.97676 0.64212 0.19573 0.0
C4469 C 0.01849 0.66589 0.21259 0.0
C4470 C 0.92457 0.63707 0.16962 0.0
C4471 C 0.9363 0.63863 0.17748 0.0
C4472 C 0.96505 0.66093 0.19018 0.0
C4473 C 0.99613 0.65512 0.20791 0.0
C4474 C 0.98305 0.65324 0.20049 0.0
C4475 C 0.9464 0.64813 0.17687 0.0
C4476 C 0.95887 0.64984 0.18523 0.0
H4477 H 0.01364 0.64274 0.22942 0.0
H4478 H 0.99167 0.64025 0.21818 0.0
H4479 H 0.98149 0.67126 0.20139 0.0
H4480 H 0.93163 0.66051 0.1536 0.0
H4481 H 0.95221 0.66324 0.16727 0.0
C4482 C 0.64028 0.70178 0.44631 0.0
C4483 C 0.65122 0.71079 0.44904 0.0
C4484 C 0.64109 0.69173 0.43979 0.0
C4485 C 0.66061 0.68067 0.41889 0.0
H4486 H 0.64058 0.65108 0.425 0.0
C4487 C 0.66101 0.63844 0.39139 0.0
C4488 C 0.64851 0.63207 0.38688 0.0
C4489 C 0.66254 0.64746 0.40016 0.0
C4490 C 0.64622 0.65929 0.4232 0.0
H4491 H 0.67168 0.71622 0.44732 0.0
H4492 H 0.67318 0.69856 0.43615 0.0
H4493 H 0.6412 0.66802 0.43824 0.0
H4494 H 0.62789 0.62976 0.38832 0.0
H4495 H 0.63056 0.64544 0.40369 0.0
H4496 H 0.66556 0.67188 0.4038 0.0
C4497 C 0.66389 0.69935 0.43884 0.0
C4498 C 0.64654 0.66901 0.43074 0.0
C4499 C 0.66306 0.70945 0.44529 0.0
C4500 C 0.63763 0.6346 0.39159 0.0
C4501 C 0.63917 0.6435 0.40044 0.0
C4502 C 0.66038 0.67092 0.41141 0.0
C4503 C 0.65289 0.69039 0.43593 0.0
C4504 C 0.65352 0.67987 0.42855 0.0
C4505 C 0.65161 0.65014 0.40469 0.0
C4506 C 0.65298 0.66018 0.41336 0.0
H4507 H 0.631 0.70256 0.44902 0.0
H4508 H 0.63235 0.68512 0.43755 0.0
H4509 H 0.66595 0.6889 0.41683 0.0
H4510 H 0.66955 0.6367 0.38785 0.0
H4511 H 0.67225 0.6524 0.40334 0.0
C4512 C 0.78115 0.53989 0.62675 0.0
C4513 C 0.78513 0.53164 0.6342 0.0
C4514 C 0.78959 0.55039 0.626 0.0
C4515 C 0.82096 0.56891 0.641 0.0
H4516 H 0.82117 0.58193 0.61029 0.0
C4517 C 0.86458 0.6005 0.62817 0.0
C4518 C 0.86205 0.61135 0.62509 0.0
C4519 C 0.85436 0.5914 0.62923 0.0
C4520 C 0.8211 0.57841 0.61892 0.0
H4521 H 0.80104 0.52792 0.64668 0.0
H4522 H 0.8159 0.5459 0.64503 0.0
H4523 H 0.80484 0.56484 0.61251 0.0
H4524 H 0.84659 0.6209 0.62033 0.0
H4525 H 0.8287 0.60471 0.62164 0.0
H4526 H 0.83774 0.58217 0.64715 0.0
C4527 C 0.80614 0.54453 0.64005 0.0
C4528 C 0.81172 0.56867 0.62025 0.0
C4529 C 0.79764 0.53414 0.64095 0.0
C4530 C 0.84895 0.61267 0.6226 0.0
C4531 C 0.83869 0.60345 0.62342 0.0
C4532 C 0.83048 0.57848 0.63959 0.0
C4533 C 0.80227 0.55281 0.63254 0.0
C4534 C 0.81163 0.56369 0.63128 0.0
C4535 C 0.84136 0.59283 0.62695 0.0
C4536 C 0.8307 0.58323 0.62853 0.0
H4537 H 0.77152 0.53822 0.62148 0.0
H4538 H 0.78614 0.55661 0.62029 0.0
H4539 H 0.82103 0.56556 0.64971 0.0
H4540 H 0.87448 0.599 0.62981 0.0
H4541 H 0.85661 0.58321 0.6318 0.0
C4542 C 0.27835 0.96446 0.34816 0.0
C4543 C 0.27633 0.96903 0.35922 0.0
C4544 C 0.28089 0.95332 0.34694 0.0
C4545 C 0.2933 0.93116 0.36453 0.0
H4546 H 0.27871 0.91103 0.33616 0.0
C4547 C 0.30003 0.88387 0.35995 0.0
C4548 C 0.30252 0.87982 0.34887 0.0
C4549 C 0.29645 0.89459 0.3613 0.0
C4550 C 0.28297 0.91659 0.34408 0.0
H4551 H 0.27509 0.96538 0.3776 0.0
H4552 H 0.27938 0.94591 0.37543 0.0
H4553 H 0.27281 0.9299 0.33833 0.0
H4554 H 0.3038 0.88391 0.33066 0.0
H4555 H 0.2976 0.90271 0.33298 0.0
H4556 H 0.30352 0.91788 0.37026 0.0
C4557 C 0.2792 0.951 0.36774 0.0
C4558 C 0.27958 0.9274 0.34533 0.0
C4559 C 0.27665 0.96214 0.36897 0.0
C4560 C 0.30167 0.88678 0.33923 0.0
C4561 C 0.29808 0.8975 0.34056 0.0
C4562 C 0.29669 0.92035 0.36328 0.0
C4563 C 0.28146 0.94649 0.35674 0.0
C4564 C 0.28475 0.93484 0.35555 0.0
C4565 C 0.29539 0.90152 0.35161 0.0
C4566 C 0.2916 0.91295 0.35302 0.0
H4567 H 0.2782 0.96955 0.34048 0.0
H4568 H 0.28273 0.95017 0.33837 0.0
H4569 H 0.29763 0.93674 0.37242 0.0
H4570 H 0.3008 0.8787 0.36755 0.0
H4571 H 0.29437 0.8974 0.3699 0.0
C4572 C 0.30213 0.06788 0.68442 0.0
C4573 C 0.29256 0.06049 0.6763 0.0
C4574 C 0.31282 0.07473 0.6805 0.0
C4575 C 0.32374 0.08743 0.65367 0.0
H4576 H 0.35828 0.09128 0.67215 0.0
C4577 C 0.36972 0.11155 0.63664 0.0
C4578 C 0.37875 0.11928 0.64489 0.0
C4579 C 0.3595 0.10394 0.64041 0.0
C4580 C 0.34868 0.09037 0.66695 0.0
H4581 H 0.28675 0.05447 0.65769 0.0
H4582 H 0.30546 0.06637 0.65087 0.0
H4583 H 0.3398 0.07886 0.67882 0.0
H4584 H 0.38416 0.12505 0.66359 0.0
H4585 H 0.36632 0.11176 0.67017 0.0
H4586 H 0.33258 0.09897 0.64184 0.0
C4587 C 0.30461 0.06696 0.66025 0.0
C4588 C 0.33809 0.08326 0.67077 0.0
C4589 C 0.29392 0.0601 0.66417 0.0
C4590 C 0.37747 0.11909 0.65703 0.0
C4591 C 0.36724 0.11148 0.6608 0.0
C4592 C 0.33432 0.09453 0.64985 0.0
C4593 C 0.31419 0.07436 0.66837 0.0
C4594 C 0.32549 0.08174 0.6642 0.0
C4595 C 0.35807 0.10388 0.65252 0.0
C4596 C 0.3469 0.09611 0.65646 0.0
H4597 H 0.30136 0.06841 0.69382 0.0
H4598 H 0.31992 0.08046 0.68696 0.0
H4599 H 0.31413 0.08658 0.6485 0.0
H4600 H 0.37057 0.11135 0.62725 0.0
H4601 H 0.35273 0.09806 0.63383 0.0
C4602 C 0.23599 0.05113 0.92469 0.0
C4603 C 0.24034 0.04277 0.91796 0.0
C4604 C 0.22724 0.05755 0.91928 0.0
C4605 C 0.20294 0.05775 0.8926 0.0
H4606 H 0.20933 0.09062 0.90112 0.0
C4607 C 0.17526 0.08871 0.86628 0.0
C4608 C 0.17176 0.09768 0.87282 0.0
C4609 C 0.18326 0.08175 0.8719 0.0
C4610 C 0.20729 0.08143 0.89875 0.0
H4611 H 0.23877 0.03449 0.90027 0.0
H4612 H 0.22356 0.04575 0.89082 0.0
H4613 H 0.22392 0.07894 0.91071 0.0
H4614 H 0.17331 0.10616 0.89034 0.0
H4615 H 0.18721 0.09394 0.90025 0.0
H4616 H 0.18631 0.06026 0.88062 0.0
C4617 C 0.22683 0.04727 0.90031 0.0
C4618 C 0.21567 0.07473 0.90424 0.0
C4619 C 0.23561 0.04086 0.90572 0.0
C4620 C 0.17608 0.09939 0.88511 0.0
C4621 C 0.18406 0.09243 0.89074 0.0
C4622 C 0.19454 0.06445 0.88711 0.0
C4623 C 0.22262 0.05574 0.90702 0.0
C4624 C 0.2136 0.06282 0.90122 0.0
C4625 C 0.18783 0.08357 0.88419 0.0
C4626 C 0.19663 0.07638 0.89011 0.0
H4627 H 0.23939 0.05279 0.93415 0.0
H4628 H 0.22404 0.0639 0.92473 0.0
H4629 H 0.20098 0.04857 0.89019 0.0
H4630 H 0.17193 0.08717 0.8568 0.0
H4631 H 0.18606 0.07507 0.86656 0.0
C4632 C 0.7116 0.47904 0.63271 0.0
C4633 C 0.72277 0.47419 0.63235 0.0
C4634 C 0.70076 0.47302 0.63722 0.0
C4635 C 0.68509 0.44342 0.64139 0.0
H4636 H 0.66553 0.4574 0.66252 0.0
C4637 C 0.63612 0.41914 0.6521 0.0
C4638 C 0.63451 0.4192 0.66417 0.0
C4639 C 0.64644 0.42663 0.64839 0.0
C4640 C 0.67093 0.45339 0.65665 0.0
H4641 H 0.73148 0.45941 0.63687 0.0
H4642 H 0.71266 0.44899 0.64469 0.0
H4643 H 0.6848 0.46909 0.65607 0.0
H4644 H 0.64228 0.42747 0.68176 0.0
H4645 H 0.66036 0.44065 0.67522 0.0
H4646 H 0.6714 0.42773 0.64199 0.0
C4647 C 0.7122 0.45736 0.64136 0.0
C4648 C 0.68188 0.46009 0.65289 0.0
C4649 C 0.72301 0.46337 0.63692 0.0
C4650 C 0.64321 0.42725 0.67239 0.0
C4651 C 0.65355 0.4348 0.66865 0.0
C4652 C 0.67414 0.43677 0.64505 0.0
C4653 C 0.70088 0.46202 0.64139 0.0
C4654 C 0.68911 0.45513 0.64528 0.0
C4655 C 0.6554 0.43441 0.65663 0.0
C4656 C 0.66694 0.44166 0.65273 0.0
H4657 H 0.71113 0.48737 0.62928 0.0
H4658 H 0.69215 0.4768 0.6371 0.0
H4659 H 0.69037 0.43938 0.63542 0.0
H4660 H 0.6294 0.41326 0.6455 0.0
H4661 H 0.64746 0.42629 0.63903 0.0
C4662 C 0.69867 0.46519 0.19506 0.0
C4663 C 0.70457 0.47036 0.18576 0.0
C4664 C 0.68864 0.45547 0.19268 0.0
C4665 C 0.6628 0.44068 0.16934 0.0
H4666 H 0.66256 0.41465 0.18894 0.0
C4667 C 0.63102 0.39188 0.17195 0.0
C4668 C 0.61842 0.39431 0.17149 0.0
C4669 C 0.6419 0.40084 0.17269 0.0
C4670 C 0.66255 0.42181 0.18332 0.0
H4671 H 0.70458 0.46938 0.16666 0.0
H4672 H 0.68692 0.45245 0.16251 0.0
H4673 H 0.6811 0.43088 0.19236 0.0
H4674 H 0.60723 0.40794 0.17098 0.0
H4675 H 0.62624 0.4236 0.17219 0.0
H4676 H 0.64414 0.43169 0.16043 0.0
C4677 C 0.6901 0.45594 0.17163 0.0
C4678 C 0.6731 0.43113 0.18535 0.0
C4679 C 0.70024 0.46559 0.17402 0.0
C4680 C 0.61685 0.40584 0.1714 0.0
C4681 C 0.62771 0.41478 0.17201 0.0
C4682 C 0.65218 0.43142 0.1674 0.0
C4683 C 0.6842 0.45079 0.18094 0.0
C4684 C 0.67329 0.44069 0.17844 0.0
C4685 C 0.64036 0.41238 0.17284 0.0
C4686 C 0.65192 0.42193 0.17442 0.0
H4687 H 0.7018 0.46865 0.2042 0.0
H4688 H 0.68418 0.45174 0.20002 0.0
H4689 H 0.66266 0.44798 0.16393 0.0
H4690 H 0.63251 0.38308 0.17211 0.0
H4691 H 0.65154 0.39875 0.17323 0.0
C4692 C 0.3377 0.99582 0.92256 0.0
C4693 C 0.33627 0.99439 0.93454 0.0
C4694 C 0.34385 0.98845 0.9164 0.0
C4695 C 0.36511 0.96668 0.92075 0.0
H4696 H 0.349 0.95554 0.88857 0.0
C4697 C 0.37424 0.9255 0.89707 0.0
C4698 C 0.37556 0.92567 0.88495 0.0
C4699 C 0.37085 0.93484 0.90299 0.0
C4700 C 0.35373 0.9587 0.89748 0.0
H4701 H 0.34038 0.98424 0.94952 0.0
H4702 H 0.35086 0.97126 0.93874 0.0
H4703 H 0.34051 0.97014 0.89917 0.0
H4704 H 0.37454 0.9358 0.86955 0.0
H4705 H 0.3686 0.95216 0.87991 0.0
H4706 H 0.37808 0.95495 0.91913 0.0
C4707 C 0.34745 0.97819 0.93413 0.0
C4708 C 0.34888 0.96709 0.90356 0.0
C4709 C 0.34136 0.98559 0.9403 0.0
C4710 C 0.37366 0.93546 0.87891 0.0
C4711 C 0.37016 0.94478 0.88481 0.0
C4712 C 0.3699 0.95824 0.91469 0.0
C4713 C 0.34866 0.97944 0.92206 0.0
C4714 C 0.35441 0.97109 0.91533 0.0
C4715 C 0.36862 0.94452 0.89689 0.0
C4716 C 0.36417 0.95407 0.90303 0.0
H4717 H 0.33394 0.00256 0.91788 0.0
H4718 H 0.3448 0.98978 0.90717 0.0
H4719 H 0.36976 0.96972 0.92971 0.0
H4720 H 0.37577 0.9181 0.90197 0.0
H4721 H 0.36962 0.93433 0.91227 0.0
C4722 C 0.22845 0.02885 0.37918 0.0
C4723 C 0.23778 0.03099 0.38953 0.0
C4724 C 0.21776 0.0344 0.378 0.0
C4725 C 0.19848 0.05032 0.39531 0.0
H4726 H 0.18956 0.06351 0.36539 0.0
C4727 C 0.16487 0.08364 0.39075 0.0
C4728 C 0.15564 0.08255 0.38042 0.0
C4729 C 0.17446 0.07687 0.39172 0.0
C4730 C 0.19181 0.05976 0.37375 0.0
H4731 H 0.243 0.04042 0.40686 0.0
H4732 H 0.22446 0.05009 0.40476 0.0
H4733 H 0.20673 0.05217 0.36739 0.0
H4734 H 0.14944 0.07395 0.36281 0.0
H4735 H 0.16611 0.06198 0.36451 0.0
H4736 H 0.18364 0.05798 0.4017 0.0
C4737 C 0.22532 0.04407 0.3976 0.0
C4738 C 0.20164 0.05324 0.3749 0.0
C4739 C 0.23601 0.03857 0.39877 0.0
C4740 C 0.15636 0.07481 0.37093 0.0
C4741 C 0.16595 0.06803 0.37189 0.0
C4742 C 0.18865 0.05682 0.39416 0.0
C4743 C 0.21614 0.04215 0.38715 0.0
C4744 C 0.20517 0.04853 0.38572 0.0
C4745 C 0.17508 0.06894 0.38232 0.0
C4746 C 0.18526 0.06171 0.3834 0.0
H4747 H 0.22951 0.02305 0.37191 0.0
H4748 H 0.21077 0.03262 0.3699 0.0
H4749 H 0.20082 0.04665 0.40371 0.0
H4750 H 0.16463 0.08972 0.39809 0.0
H4751 H 0.18149 0.07795 0.39978 0.0
C4752 C 0.38899 0.17769 0.47914 0.0
C4753 C 0.39621 0.18347 0.48972 0.0
C4754 C 0.39474 0.17108 0.47175 0.0
C4755 C 0.42178 0.15545 0.47149 0.0
H4756 H 0.41336 0.15636 0.4373 0.0
C4757 C 0.43391 0.13513 0.42418 0.0
C4758 C 0.43228 0.12342 0.42653 0.0
C4759 C 0.43165 0.14329 0.43249 0.0
C4760 C 0.41599 0.15611 0.44682 0.0
H4761 H 0.41516 0.18681 0.50085 0.0
H4762 H 0.42525 0.17526 0.48785 0.0
H4763 H 0.40525 0.16917 0.45048 0.0
H4764 H 0.42776 0.11124 0.43977 0.0
H4765 H 0.42352 0.12544 0.45416 0.0
H4766 H 0.43253 0.14235 0.46778 0.0
C4767 C 0.4151 0.1758 0.48535 0.0
C4768 C 0.41119 0.16335 0.45438 0.0
C4769 C 0.40933 0.18245 0.49276 0.0
C4770 C 0.42894 0.12017 0.43763 0.0
C4771 C 0.42665 0.12833 0.44593 0.0
C4772 C 0.42659 0.14817 0.46391 0.0
C4773 C 0.40787 0.17008 0.47474 0.0
C4774 C 0.41384 0.16298 0.46679 0.0
C4775 C 0.42767 0.13994 0.44334 0.0
C4776 C 0.4236 0.14832 0.45148 0.0
H4777 H 0.37885 0.17824 0.47655 0.0
H4778 H 0.38884 0.16662 0.46374 0.0
H4779 H 0.42395 0.15491 0.48101 0.0
H4780 H 0.43637 0.13793 0.4157 0.0
H4781 H 0.43271 0.1522 0.43029 0.0
C4782 C 0.57553 0.65439 0.19782 0.0
C4783 C 0.56718 0.64449 0.20068 0.0
C4784 C 0.58423 0.65352 0.18974 0.0
C4785 C 0.59159 0.63389 0.16626 0.0
H4786 H 0.62695 0.65137 0.17486 0.0
C4787 C 0.63564 0.62283 0.14628 0.0
C4788 C 0.6453 0.63197 0.14382 0.0
C4789 C 0.62531 0.625 0.15197 0.0
C4790 C 0.61707 0.64656 0.17222 0.0
H4791 H 0.56125 0.62596 0.1971 0.0
H4792 H 0.57656 0.62443 0.18318 0.0
H4793 H 0.61034 0.65402 0.18709 0.0
H4794 H 0.65153 0.65057 0.14517 0.0
H4795 H 0.63342 0.65437 0.15504 0.0
H4796 H 0.59846 0.62623 0.15155 0.0
C4797 C 0.57626 0.63289 0.18703 0.0
C4798 C 0.60753 0.64809 0.17923 0.0
C4799 C 0.56753 0.63376 0.19508 0.0
C4800 C 0.64421 0.64335 0.14689 0.0
C4801 C 0.63391 0.64552 0.15264 0.0
C4802 C 0.60115 0.63234 0.15927 0.0
C4803 C 0.58482 0.64274 0.18436 0.0
C4804 C 0.59471 0.64167 0.17642 0.0
C4805 C 0.62443 0.63636 0.15537 0.0
C4806 C 0.61403 0.63857 0.16226 0.0
H4807 H 0.57545 0.6628 0.20194 0.0
H4808 H 0.59055 0.66131 0.18775 0.0
H4809 H 0.58176 0.62896 0.16372 0.0
H4810 H 0.63614 0.61398 0.14389 0.0
H4811 H 0.61824 0.61775 0.15403 0.0
C4812 C 0.11997 0.81286 0.02234 0.0
C4813 C 0.12826 0.81239 0.03304 0.0
C4814 C 0.1238 0.82077 0.0141 0.0
C4815 C 0.14557 0.8488 0.01313 0.0
H4816 H 0.13666 0.84272 0.97892 0.0
C4817 C 0.16114 0.8833 0.98106 0.0
C4818 C 0.15149 0.88468 0.97172 0.0
C4819 C 0.15917 0.87379 0.98792 0.0
C4820 C 0.13914 0.84456 0.98846 0.0
H4821 H 0.14737 0.81936 0.04313 0.0
H4822 H 0.1541 0.83299 0.0287 0.0
H4823 H 0.13181 0.82707 0.99192 0.0
H4824 H 0.13261 0.877 0.96172 0.0
H4825 H 0.12902 0.86042 0.97383 0.0
H4826 H 0.15271 0.86629 0.00974 0.0
C4827 C 0.14453 0.82745 0.0268 0.0
C4828 C 0.13637 0.8356 0.9959 0.0
C4829 C 0.1407 0.81958 0.03504 0.0
C4830 C 0.14008 0.87618 0.96902 0.0
C4831 C 0.1381 0.86666 0.97588 0.0
C4832 C 0.14834 0.85773 0.00571 0.0
C4833 C 0.136 0.82835 0.01638 0.0
C4834 C 0.13949 0.83764 0.00834 0.0
C4835 C 0.14755 0.86544 0.98551 0.0
C4836 C 0.14509 0.85575 0.99329 0.0
H4837 H 0.11033 0.80743 0.02053 0.0
H4838 H 0.11696 0.82128 0.0062 0.0
H4839 H 0.14787 0.85074 0.02267 0.0
H4840 H 0.17013 0.88965 0.98312 0.0
H4841 H 0.16675 0.87299 0.99513 0.0
C4842 C 0.87422 0.31814 0.66611 0.0
C4843 C 0.88392 0.32349 0.67546 0.0
C4844 C 0.87126 0.32395 0.65596 0.0
C4845 C 0.87295 0.35305 0.64563 0.0
H4846 H 0.86768 0.33742 0.61415 0.0
C4847 C 0.86337 0.37717 0.60341 0.0
C4848 C 0.85373 0.37138 0.59424 0.0
C4849 C 0.868 0.37128 0.61296 0.0
C4850 C 0.86899 0.34188 0.62288 0.0
H4851 H 0.89815 0.33913 0.68148 0.0
H4852 H 0.89292 0.34928 0.66378 0.0
H4853 H 0.87375 0.3272 0.63159 0.0
H4854 H 0.84148 0.35485 0.58781 0.0
H4855 H 0.8494 0.34458 0.60454 0.0
H4856 H 0.86793 0.36764 0.63702 0.0
C4857 C 0.88758 0.34061 0.66433 0.0
C4858 C 0.87249 0.33603 0.63286 0.0
C4859 C 0.89061 0.33477 0.67444 0.0
C4860 C 0.84903 0.35951 0.59468 0.0
C4861 C 0.8536 0.35363 0.60427 0.0
C4862 C 0.86937 0.35888 0.63567 0.0
C4863 C 0.87786 0.33526 0.65499 0.0
C4864 C 0.87446 0.34154 0.64435 0.0
C4865 C 0.86303 0.35947 0.6136 0.0
C4866 C 0.8673 0.35336 0.62416 0.0
H4867 H 0.86889 0.30945 0.66662 0.0
H4868 H 0.86362 0.31965 0.64896 0.0
H4869 H 0.87423 0.35748 0.65438 0.0
H4870 H 0.8673 0.38629 0.60322 0.0
H4871 H 0.87546 0.376 0.61986 0.0
C4872 C 0.32029 0.81219 0.95321 0.0
C4873 C 0.31278 0.81654 0.94392 0.0
C4874 C 0.32507 0.81883 0.96393 0.0
C4875 C 0.3324 0.84885 0.9772 0.0
H4876 H 0.3301 0.83434 0.00695 0.0
C4877 C 0.34077 0.87509 0.02255 0.0
C4878 C 0.34778 0.87087 0.03222 0.0
C4879 C 0.33704 0.8685 0.0117 0.0
C4880 C 0.33097 0.8385 0.99873 0.0
H4881 H 0.30449 0.83132 0.9386 0.0
H4882 H 0.31273 0.84284 0.95731 0.0
H4883 H 0.32269 0.82277 0.98814 0.0
H4884 H 0.35607 0.8564 0.03837 0.0
H4885 H 0.34975 0.84489 0.01933 0.0
H4886 H 0.34062 0.86459 0.98778 0.0
C4887 C 0.31505 0.83435 0.95627 0.0
C4888 C 0.32673 0.83186 0.98794 0.0
C4889 C 0.31025 0.82771 0.94556 0.0
C4890 C 0.35084 0.85989 0.03095 0.0
C4891 C 0.34712 0.85328 0.0201 0.0
C4892 C 0.33666 0.85549 0.98798 0.0
C4893 C 0.32247 0.82997 0.96559 0.0
C4894 C 0.32733 0.83697 0.97705 0.0
C4895 C 0.34016 0.85751 0.01034 0.0
C4896 C 0.33594 0.8504 0.99887 0.0
H4897 H 0.32245 0.80364 0.95223 0.0
H4898 H 0.33089 0.81526 0.97089 0.0
H4899 H 0.33319 0.85302 0.96897 0.0
H4900 H 0.33807 0.88345 0.02344 0.0
H4901 H 0.33148 0.87191 0.00444 0.0
C4902 C 0.00516 0.64846 0.80225 0.0
C4903 C 0.0075 0.64004 0.79415 0.0
C4904 C 0.00068 0.64535 0.81289 0.0
C4905 C 0.98167 0.62062 0.82494 0.0
H4906 H 0.99066 0.63985 0.85453 0.0
C4907 C 0.9542 0.60978 0.86464 0.0
C4908 C 0.95022 0.61912 0.8701 0.0
C4909 C 0.96342 0.61167 0.85683 0.0
C4910 C 0.98802 0.6344 0.84632 0.0
H4911 H 0.00773 0.62184 0.79122 0.0
H4912 H -2e-05 0.61644 0.80983 0.0
H4913 H 0.00314 0.64443 0.83819 0.0
H4914 H 0.95305 0.63774 0.87212 0.0
H4915 H 0.96896 0.64109 0.85835 0.0
H4916 H 0.96628 0.61083 0.83284 0.0
C4917 C 0.00142 0.62543 0.80785 0.0
C4918 C 0.99518 0.63702 0.83697 0.0
C4919 C 0.00593 0.62853 0.79722 0.0
C4920 C 0.95596 0.63039 0.868 0.0
C4921 C 0.96515 0.6323 0.86018 0.0
C4922 C 0.9745 0.61802 0.83426 0.0
C4923 C 0.99843 0.63376 0.81566 0.0
C4924 C 0.99192 0.63028 0.8261 0.0
C4925 C 0.96881 0.62296 0.85432 0.0
C4926 C 0.97742 0.62501 0.84498 0.0
H4927 H 0.00631 0.65741 0.80018 0.0
H4928 H 0.99837 0.65197 0.81866 0.0
H4929 H 0.97876 0.61535 0.81663 0.0
H4930 H 0.94992 0.60101 0.8662 0.0
H4931 H 0.96617 0.6043 0.85261 0.0
C4932 C 0.11877 0.19132 0.53581 0.0
C4933 C 0.12571 0.20057 0.5305 0.0
C4934 C 0.12497 0.18631 0.54531 0.0
C4935 C 0.15768 0.18232 0.55803 0.0
H4936 H 0.1405 0.17102 0.58446 0.0
C4937 C 0.18396 0.15984 0.59512 0.0
C4938 C 0.17668 0.14965 0.5985 0.0
C4939 C 0.17779 0.16721 0.58808 0.0
C4940 C 0.14539 0.17407 0.5771 0.0
H4941 H 0.14449 0.2121 0.53134 0.0
H4942 H 0.15527 0.20342 0.54797 0.0
H4943 H 0.12956 0.18191 0.56985 0.0
H4944 H 0.15723 0.13948 0.59796 0.0
H4945 H 0.1464 0.15221 0.58545 0.0
H4946 H 0.17337 0.1743 0.56507 0.0
C4947 C 0.14508 0.19993 0.54466 0.0
C4948 C 0.13913 0.18031 0.56874 0.0
C4949 C 0.13887 0.20494 0.53517 0.0
C4950 C 0.16305 0.14722 0.59527 0.0
C4951 C 0.15687 0.15457 0.58821 0.0
C4952 C 0.16392 0.17608 0.56637 0.0
C4953 C 0.13826 0.19043 0.54971 0.0
C4954 C 0.14516 0.18442 0.55905 0.0
C4955 C 0.1642 0.16454 0.58434 0.0
C4956 C 0.15782 0.17179 0.57594 0.0
H4957 H 0.10862 0.18774 0.53243 0.0
H4958 H 0.11948 0.17893 0.54892 0.0
H4959 H 0.16251 0.18518 0.55057 0.0
H4960 H 0.19446 0.16198 0.59773 0.0
H4961 H 0.18369 0.17494 0.58548 0.0
C4962 C 0.56285 0.40728 0.34556 0.0
C4963 C 0.55635 0.39619 0.34089 0.0
C4964 C 0.57311 0.40869 0.35505 0.0
C4965 C 0.59761 0.39368 0.37024 0.0
H4966 H 0.5992 0.41613 0.39655 0.0
C4967 C 0.63352 0.3956 0.4137 0.0
C4968 C 0.6396 0.40653 0.41914 0.0
C4969 C 0.62347 0.39449 0.40408 0.0
C4970 C 0.599 0.40993 0.3892 0.0
H4971 H 0.55554 0.37787 0.34249 0.0
H4972 H 0.57343 0.38034 0.35904 0.0
H4973 H 0.58152 0.41396 0.37984 0.0
H4974 H 0.63977 0.42486 0.41878 0.0
H4975 H 0.62246 0.42295 0.4018 0.0
H4976 H 0.61512 0.38969 0.37953 0.0
C4977 C 0.57065 0.38795 0.35531 0.0
C4978 C 0.58886 0.40868 0.37964 0.0
C4979 C 0.56036 0.38654 0.34587 0.0
C4980 C 0.63539 0.41633 0.41472 0.0
C4981 C 0.62536 0.41522 0.40508 0.0
C4982 C 0.60778 0.39497 0.37977 0.0
C4983 C 0.57713 0.39903 0.36001 0.0
C4984 C 0.58802 0.40051 0.37008 0.0
C4985 C 0.61927 0.40428 0.39964 0.0
C4986 C 0.60857 0.40307 0.3894 0.0
H4987 H 0.56002 0.41489 0.34191 0.0
H4988 H 0.578 0.41734 0.3584 0.0
H4989 H 0.59734 0.38744 0.36291 0.0
H4990 H 0.63662 0.38788 0.41679 0.0
H4991 H 0.61889 0.38592 0.40021 0.0
C4992 C 0.46819 0.40377 0.236 0.0
C4993 C 0.47165 0.39336 0.23944 0.0
C4994 C 0.45779 0.40374 0.22689 0.0
C4995 C 0.42813 0.38477 0.21046 0.0
H4996 H 0.43184 0.40693 0.18644 0.0
C4997 C 0.39417 0.37915 0.16555 0.0
C4998 C 0.39039 0.38898 0.16078 0.0
C4999 C 0.40332 0.3802 0.17585 0.0
C5000 C 0.43057 0.4008 0.19318 0.0
H5001 H 0.46697 0.37476 0.23596 0.0
H5002 H 0.44899 0.37472 0.22003 0.0
H5003 H 0.44945 0.40782 0.20301 0.0
H5004 H 0.3931 0.40759 0.16316 0.0
H5005 H 0.40905 0.40942 0.18127 0.0
H5006 H 0.40934 0.37763 0.20053 0.0
C5007 C 0.45416 0.3829 0.22448 0.0
C5008 C 0.44067 0.4013 0.20267 0.0
C5009 C 0.46453 0.38293 0.23356 0.0
C5010 C 0.39576 0.39986 0.16668 0.0
C5011 C 0.40498 0.40091 0.17696 0.0
C5012 C 0.41805 0.38426 0.20097 0.0
C5013 C 0.45064 0.3933 0.22105 0.0
C5014 C 0.43963 0.3932 0.21133 0.0
C5015 C 0.40894 0.3911 0.1816 0.0
C5016 C 0.41923 0.39217 0.19214 0.0
H5017 H 0.47345 0.41195 0.24037 0.0
H5018 H 0.45526 0.41189 0.22453 0.0
H5019 H 0.42692 0.37854 0.21712 0.0
H5020 H 0.39009 0.37064 0.16128 0.0
H5021 H 0.40625 0.37248 0.17912 0.0
C5022 C 0.29628 0.72517 0.87214 0.0
C5023 C 0.29006 0.7322 0.86455 0.0
C5024 C 0.3016 0.7163 0.86744 0.0
C5025 C 0.31434 0.70703 0.84096 0.0
H5026 H 0.30694 0.6765 0.85251 0.0
C5027 C 0.32724 0.66758 0.81718 0.0
C5028 C 0.33158 0.65919 0.82418 0.0
C5029 C 0.3226 0.67662 0.82236 0.0
C5030 C 0.30929 0.68501 0.84931 0.0
H5031 H 0.28463 0.73547 0.84609 0.0
H5032 H 0.29403 0.72005 0.83792 0.0
H5033 H 0.29818 0.69208 0.86117 0.0
H5034 H 0.33396 0.65338 0.84201 0.0
H5035 H 0.32633 0.6694 0.85118 0.0
H5036 H 0.3256 0.70008 0.82921 0.0
C5037 C 0.29479 0.72142 0.84749 0.0
C5038 C 0.30423 0.69392 0.85425 0.0
C5039 C 0.28934 0.7302 0.85218 0.0
C5040 C 0.33097 0.65989 0.83645 0.0
C5041 C 0.32644 0.66899 0.84166 0.0
C5042 C 0.31952 0.69816 0.83609 0.0
C5043 C 0.30095 0.71437 0.85507 0.0
C5044 C 0.30662 0.70499 0.85006 0.0
C5045 C 0.32215 0.67746 0.83467 0.0
C5046 C 0.31698 0.68701 0.84013 0.0
H5047 H 0.29699 0.72649 0.88171 0.0
H5048 H 0.30638 0.71104 0.87349 0.0
H5049 H 0.3165 0.71553 0.83767 0.0
H5050 H 0.32728 0.66705 0.80765 0.0
H5051 H 0.31909 0.68281 0.81665 0.0
C5052 C 0.05038 0.60191 0.73722 0.0
C5053 C 0.04889 0.61308 0.74065 0.0
C5054 C 0.0611 0.60025 0.7318 0.0
C5055 C 0.09372 0.61489 0.72553 0.0
H5056 H 0.08498 0.59414 0.697 0.0
C5057 C 0.12358 0.61863 0.68667 0.0
C5058 C 0.1244 0.60857 0.68001 0.0
C5059 C 0.11621 0.61802 0.69601 0.0
C5060 C 0.0877 0.59979 0.70507 0.0
H5061 H 0.05775 0.63125 0.74151 0.0
H5062 H 0.07629 0.62837 0.73192 0.0
H5063 H 0.06859 0.59519 0.70989 0.0
H5064 H 0.11869 0.58993 0.67832 0.0
H5065 H 0.10591 0.58885 0.69477 0.0
H5066 H 0.11273 0.61977 0.72043 0.0
C5067 C 0.06929 0.62086 0.73354 0.0
C5068 C 0.07827 0.60039 0.71248 0.0
C5069 C 0.0586 0.62252 0.73897 0.0
C5070 C 0.11827 0.59783 0.68331 0.0
C5071 C 0.11085 0.59722 0.69265 0.0
C5072 C 0.10315 0.61429 0.7181 0.0
C5073 C 0.07054 0.60972 0.72967 0.0
C5074 C 0.08108 0.60813 0.72266 0.0
C5075 C 0.10947 0.60734 0.69891 0.0
C5076 C 0.10015 0.60691 0.70765 0.0
H5077 H 0.04312 0.59444 0.73846 0.0
H5078 H 0.06187 0.59154 0.72909 0.0
H5079 H 0.09627 0.6208 0.73341 0.0
H5080 H 0.12835 0.62701 0.68442 0.0
H5081 H 0.11529 0.62599 0.70057 0.0
C5082 C 0.11642 0.24967 0.41714 0.0
C5083 C 0.12486 0.24951 0.42782 0.0
C5084 C 0.11851 0.25889 0.40992 0.0
C5085 C 0.14359 0.28354 0.4039 0.0
H5086 H 0.11354 0.29576 0.3904 0.0
C5087 C 0.14849 0.32739 0.38281 0.0
C5088 C 0.13999 0.32801 0.37232 0.0
C5089 C 0.14683 0.31752 0.38919 0.0
C5090 C 0.12202 0.29236 0.39398 0.0
H5091 H 0.14225 0.25886 0.43917 0.0
H5092 H 0.1458 0.27498 0.42664 0.0
H5093 H 0.11041 0.27898 0.40212 0.0
H5094 H 0.12288 0.31909 0.36043 0.0
H5095 H 0.12001 0.30173 0.37149 0.0
H5096 H 0.15521 0.29701 0.39583 0.0
C5097 C 0.13765 0.26792 0.42377 0.0
C5098 C 0.12023 0.28274 0.40069 0.0
C5099 C 0.13557 0.25869 0.431 0.0
C5100 C 0.12966 0.3187 0.36842 0.0
C5101 C 0.12798 0.30884 0.3748 0.0
C5102 C 0.14539 0.29318 0.39719 0.0
C5103 C 0.12908 0.26818 0.41319 0.0
C5104 C 0.13099 0.27823 0.40577 0.0
C5105 C 0.13654 0.30813 0.38527 0.0
C5106 C 0.13463 0.29773 0.39219 0.0
H5107 H 0.10811 0.24271 0.4144 0.0
H5108 H 0.11183 0.25874 0.40174 0.0
H5109 H 0.15208 0.28018 0.40754 0.0
H5110 H 0.15636 0.33457 0.38611 0.0
H5111 H 0.15345 0.31734 0.39733 0.0
C5112 C 0.49508 0.61728 0.2969 0.0
C5113 C 0.50368 0.62802 0.29787 0.0
C5114 C 0.48632 0.61471 0.30505 0.0
C5115 C 0.46979 0.62865 0.32657 0.0
H5116 H 0.46337 0.59829 0.33864 0.0
C5117 C 0.43923 0.61828 0.36458 0.0
C5118 C 0.43068 0.60755 0.36358 0.0
C5119 C 0.4482 0.62076 0.35661 0.0
C5120 C 0.46494 0.60677 0.33525 0.0
H5121 H 0.50994 0.64442 0.30827 0.0
H5122 H 0.49476 0.6399 0.32253 0.0
H5123 H 0.47904 0.60259 0.32475 0.0
H5124 H 0.42431 0.59118 0.35323 0.0
H5125 H 0.43993 0.5955 0.33921 0.0
H5126 H 0.45568 0.63282 0.33703 0.0
C5127 C 0.49466 0.63352 0.31537 0.0
C5128 C 0.47393 0.60924 0.32729 0.0
C5129 C 0.50342 0.63608 0.30724 0.0
C5130 C 0.431 0.59943 0.3543 0.0
C5131 C 0.43997 0.6019 0.34633 0.0
C5132 C 0.4608 0.62618 0.33451 0.0
C5133 C 0.48596 0.62283 0.31434 0.0
C5134 C 0.47646 0.62021 0.32286 0.0
C5135 C 0.4487 0.61259 0.34741 0.0
C5136 C 0.45827 0.61521 0.33895 0.0
H5137 H 0.495 0.61087 0.28977 0.0
H5138 H 0.47966 0.60645 0.30392 0.0
H5139 H 0.47135 0.63713 0.32317 0.0
H5140 H 0.43901 0.62472 0.37158 0.0
H5141 H 0.45484 0.62904 0.35775 0.0
C5142 C 0.12942 0.7455 0.07801 0.0
C5143 C 0.13884 0.75477 0.07542 0.0
C5144 C 0.13322 0.73593 0.08315 0.0
C5145 C 0.15997 0.71995 0.0881 0.0
H5146 H 0.14456 0.71056 0.11606 0.0
C5147 C 0.17874 0.68697 0.11896 0.0
C5148 C 0.16945 0.67956 0.12423 0.0
C5149 C 0.17509 0.69584 0.11234 0.0
C5150 C 0.14881 0.71291 0.10815 0.0
H5151 H 0.15962 0.76106 0.07577 0.0
H5152 H 0.16624 0.74423 0.08466 0.0
H5153 H 0.13788 0.72633 0.10538 0.0
H5154 H 0.14899 0.67518 0.12624 0.0
H5155 H 0.14251 0.69038 0.11445 0.0
H5156 H 0.17079 0.70642 0.09077 0.0
C5157 C 0.15592 0.74442 0.08272 0.0
C5158 C 0.145 0.72199 0.10206 0.0
C5159 C 0.15213 0.75407 0.07769 0.0
C5160 C 0.15639 0.68092 0.12245 0.0
C5161 C 0.15271 0.68967 0.11574 0.0
C5162 C 0.16369 0.71076 0.09413 0.0
C5163 C 0.14651 0.73536 0.0857 0.0
C5164 C 0.15052 0.7256 0.09197 0.0
C5165 C 0.16203 0.69738 0.11076 0.0
C5166 C 0.15815 0.70712 0.10424 0.0
H5167 H 0.1191 0.74576 0.07635 0.0
H5168 H 0.12575 0.729 0.08523 0.0
H5169 H 0.16432 0.72253 0.0803 0.0
H5170 H 0.18889 0.6861 0.12025 0.0
H5171 H 0.18256 0.70167 0.10875 0.0
C5172 C 0.95398 0.33988 0.77987 0.0
C5173 C 0.94381 0.33048 0.78055 0.0
C5174 C 0.96505 0.34222 0.78858 0.0
C5175 C 0.98376 0.32816 0.81146 0.0
H5176 H 8e-05 0.35954 0.82304 0.0
C5177 C 0.02639 0.33848 0.85051 0.0
C5178 C 0.03663 0.34768 0.84947 0.0
C5179 C 0.01489 0.33652 0.84232 0.0
C5180 C 0.99571 0.35073 0.81981 0.0
H5181 H 0.93718 0.31629 0.79109 0.0
H5182 H 0.95642 0.32043 0.80633 0.0
H5183 H 0.9802 0.35598 0.80849 0.0
H5184 H 0.04321 0.36174 0.83885 0.0
H5185 H 0.02312 0.35831 0.82444 0.0
H5186 H 0.99928 0.3229 0.82273 0.0
C5187 C 0.95593 0.32591 0.79896 0.0
C5188 C 0.98432 0.3487 0.81147 0.0
C5189 C 0.94486 0.32358 0.79025 0.0
C5190 C 0.03531 0.35474 0.83995 0.0
C5191 C 0.02381 0.35279 0.83175 0.0
C5192 C 0.99514 0.33019 0.81979 0.0
C5193 C 0.96621 0.33519 0.79818 0.0
C5194 C 0.97821 0.33738 0.80719 0.0
C5195 C 0.01346 0.34365 0.83284 0.0
C5196 C 0.00127 0.3415 0.82406 0.0
H5197 H 0.9535 0.34537 0.7725 0.0
H5198 H 0.97285 0.34936 0.78764 0.0
H5199 H 0.97944 0.31935 0.8082 0.0
H5200 H 0.02729 0.33284 0.8577 0.0
H5201 H 0.00707 0.32946 0.84346 0.0
C5202 C 0.36342 0.27031 0.5408 0.0
C5203 C 0.35124 0.263 0.53707 0.0
C5204 C 0.36433 0.2804 0.54798 0.0
C5205 C 0.34511 0.30121 0.55767 0.0
H5206 H 0.37203 0.30726 0.58534 0.0
C5207 C 0.34482 0.33468 0.59607 0.0
C5208 C 0.35687 0.34111 0.60167 0.0
C5209 C 0.34438 0.32569 0.58754 0.0
C5210 C 0.36459 0.30582 0.57756 0.0
H5211 H 0.33042 0.2607 0.53771 0.0
H5212 H 0.33202 0.27832 0.55024 0.0
H5213 H 0.37084 0.29068 0.57148 0.0
H5214 H 0.37786 0.34355 0.60258 0.0
H5215 H 0.37716 0.32796 0.58749 0.0
H5216 H 0.33884 0.31634 0.56375 0.0
C5217 C 0.34085 0.27627 0.54756 0.0
C5218 C 0.3639 0.2963 0.56962 0.0
C5219 C 0.33995 0.26614 0.54044 0.0
C5220 C 0.36847 0.33861 0.59842 0.0
C5221 C 0.36804 0.32966 0.58985 0.0
C5222 C 0.34584 0.31077 0.56558 0.0
C5223 C 0.35307 0.28344 0.55152 0.0
C5224 C 0.3541 0.29385 0.55964 0.0
C5225 C 0.35599 0.32301 0.58439 0.0
C5226 C 0.35553 0.31314 0.57567 0.0
H5227 H 0.3723 0.26815 0.53834 0.0
H5228 H 0.37385 0.28583 0.55078 0.0
H5229 H 0.33756 0.29962 0.54997 0.0
H5230 H 0.33573 0.33648 0.59841 0.0
H5231 H 0.33494 0.32067 0.58363 0.0
C5232 C 0.19774 0.47356 0.40175 0.0
C5233 C 0.21148 0.47602 0.4038 0.0
C5234 C 0.19091 0.46226 0.39897 0.0
C5235 C 0.19422 0.43392 0.38658 0.0
H5236 H 0.16189 0.42361 0.39911 0.0
C5237 C 0.1626 0.38806 0.37497 0.0
C5238 C 0.14912 0.38764 0.37186 0.0
C5239 C 0.17091 0.3983 0.37993 0.0
C5240 C 0.17086 0.42638 0.39549 0.0
H5241 H 0.22882 0.46852 0.40463 0.0
H5242 H 0.21682 0.44868 0.39981 0.0
H5243 H 0.17529 0.44245 0.40599 0.0
H5244 H 0.13374 0.39753 0.37181 0.0
H5245 H 0.14821 0.41538 0.38034 0.0
H5246 H 0.18966 0.41788 0.37595 0.0
C5247 C 0.21137 0.45555 0.40027 0.0
C5248 C 0.17854 0.43717 0.39943 0.0
C5249 C 0.21824 0.4669 0.40309 0.0
C5250 C 0.1441 0.39761 0.37399 0.0
C5251 C 0.15238 0.4078 0.379 0.0
C5252 C 0.18653 0.4231 0.38265 0.0
C5253 C 0.19762 0.45312 0.39818 0.0
C5254 C 0.19017 0.44118 0.39484 0.0
C5255 C 0.16588 0.40829 0.38197 0.0
C5256 C 0.17465 0.4193 0.3869 0.0
H5257 H 0.19221 0.48037 0.40219 0.0
H5258 H 0.18033 0.46073 0.39721 0.0
H5259 H 0.20306 0.43679 0.38278 0.0
H5260 H 0.16677 0.38054 0.37336 0.0
H5261 H 0.18126 0.39839 0.3822 0.0
C5262 C 0.73524 0.07481 0.55325 0.0
C5263 C 0.74216 0.06783 0.56026 0.0
C5264 C 0.73094 0.08401 0.55853 0.0
C5265 C 0.73529 0.10264 0.58655 0.0
H5266 H 0.70018 0.10658 0.57472 0.0
C5267 C 0.70595 0.12916 0.6126 0.0
C5268 C 0.69819 0.13581 0.60605 0.0
C5269 C 0.71243 0.12183 0.60677 0.0
C5270 C 0.71007 0.10571 0.57803 0.0
H5271 H 0.75022 0.06515 0.5783 0.0
H5272 H 0.74251 0.08104 0.58753 0.0
H5273 H 0.70941 0.09199 0.56497 0.0
H5274 H 0.69157 0.14051 0.58838 0.0
H5275 H 0.7029 0.12769 0.57815 0.0
H5276 H 0.73576 0.11622 0.59981 0.0
C5277 C 0.74058 0.07955 0.57793 0.0
C5278 C 0.71538 0.09735 0.57243 0.0
C5279 C 0.74494 0.07039 0.57264 0.0
C5280 C 0.69738 0.13535 0.59361 0.0
C5281 C 0.70382 0.12799 0.58777 0.0
C5282 C 0.72994 0.11098 0.5922 0.0
C5283 C 0.7334 0.08639 0.57096 0.0
C5284 C 0.72803 0.09566 0.57665 0.0
C5285 C 0.71126 0.12102 0.59428 0.0
C5286 C 0.71724 0.11256 0.58803 0.0
H5287 H 0.73303 0.07312 0.54368 0.0
H5288 H 0.72564 0.08922 0.55287 0.0
H5289 H 0.74513 0.10169 0.58993 0.0
H5290 H 0.70674 0.12945 0.62221 0.0
H5291 H 0.71802 0.11651 0.61203 0.0
C5292 C 0.68471 0.93107 0.37503 0.0
C5293 C 0.69174 0.93295 0.36543 0.0
C5294 C 0.67257 0.9236 0.37354 0.0
C5295 C 0.65235 0.8991 0.35427 0.0
H5296 H 0.62519 0.90619 0.37155 0.0
C5297 C 0.60238 0.86808 0.35243 0.0
C5298 C 0.599 0.86569 0.36372 0.0
C5299 C 0.61259 0.87721 0.35124 0.0
C5300 C 0.63268 0.9041 0.36666 0.0
H5301 H 0.6915 0.92849 0.34668 0.0
H5302 H 0.67019 0.91551 0.34404 0.0
H5303 H 0.64529 0.92041 0.37199 0.0
H5304 H 0.60316 0.87122 0.3825 0.0
H5305 H 0.62089 0.88717 0.38044 0.0
H5306 H 0.63973 0.88271 0.34909 0.0
C5307 C 0.67416 0.91973 0.35276 0.0
C5308 C 0.64422 0.91222 0.36695 0.0
C5309 C 0.68634 0.9272 0.35427 0.0
C5310 C 0.60565 0.87284 0.37371 0.0
C5311 C 0.61572 0.88202 0.37251 0.0
C5312 C 0.64075 0.891 0.35393 0.0
C5313 C 0.66713 0.91785 0.36239 0.0
C5314 C 0.65433 0.9097 0.36101 0.0
C5315 C 0.61945 0.88419 0.3613 0.0
C5316 C 0.63094 0.89332 0.36036 0.0
H5317 H 0.6886 0.93532 0.38376 0.0
H5318 H 0.66757 0.92219 0.38121 0.0
H5319 H 0.65997 0.89684 0.34967 0.0
H5320 H 0.59743 0.86266 0.3446 0.0
H5321 H 0.61523 0.87875 0.34249 0.0
C5322 C 0.76428 0.94052 0.05666 0.0
C5323 C 0.75569 0.94513 0.06306 0.0
C5324 C 0.77333 0.93456 0.06238 0.0
C5325 C 0.79108 0.93149 0.09191 0.0
H5326 H 0.7976 0.90355 0.07677 0.0
C5327 C 0.82526 0.90396 0.11582 0.0
C5328 C 0.83352 0.8994 0.109 0.0
C5329 C 0.81542 0.90928 0.11036 0.0
C5330 C 0.796 0.91141 0.08107 0.0
H5331 H 0.7498 0.94699 0.08048 0.0
H5332 H 0.7656 0.93655 0.09045 0.0
H5333 H 0.78099 0.91322 0.06694 0.0
H5334 H 0.8381 0.89703 0.09115 0.0
H5335 H 0.82105 0.90638 0.08165 0.0
H5336 H 0.80619 0.92976 0.10596 0.0
C5337 C 0.76539 0.93764 0.08103 0.0
C5338 C 0.78647 0.91694 0.07544 0.0
C5339 C 0.75629 0.94356 0.07529 0.0
C5340 C 0.83176 0.9003 0.09662 0.0
C5341 C 0.82197 0.90564 0.09118 0.0
C5342 C 0.80065 0.92598 0.09752 0.0
C5343 C 0.77405 0.93311 0.07464 0.0
C5344 C 0.78394 0.92707 0.08077 0.0
C5345 C 0.81366 0.91018 0.09798 0.0
C5346 C 0.80327 0.9159 0.09215 0.0
H5347 H 0.76409 0.9416 0.04723 0.0
H5348 H 0.77997 0.93129 0.05724 0.0
H5349 H 0.78949 0.93936 0.09617 0.0
H5350 H 0.82625 0.90326 0.12535 0.0
H5351 H 0.80908 0.91254 0.11584 0.0
C5352 C 0.2818 0.5293 0.37809 0.0
C5353 C 0.27743 0.52682 0.389 0.0
C5354 C 0.29371 0.53678 0.37779 0.0
C5355 C 0.31654 0.56084 0.39533 0.0
H5356 H 0.34032 0.55494 0.37366 0.0
C5357 C 0.36618 0.59131 0.39539 0.0
C5358 C 0.37004 0.59371 0.38427 0.0
C5359 C 0.35544 0.5826 0.39626 0.0
C5360 C 0.33372 0.55677 0.37967 0.0
H5361 H 0.2823 0.53003 0.40817 0.0
H5362 H 0.30308 0.54306 0.40764 0.0
H5363 H 0.3206 0.54061 0.37462 0.0
H5364 H 0.36565 0.58887 0.36533 0.0
H5365 H 0.34681 0.57377 0.3668 0.0
H5366 H 0.32945 0.57707 0.40024 0.0
C5367 C 0.29723 0.5393 0.39931 0.0
C5368 C 0.32244 0.54855 0.38024 0.0
C5369 C 0.28536 0.53178 0.39961 0.0
C5370 C 0.36301 0.58713 0.37405 0.0
C5371 C 0.35223 0.57846 0.3749 0.0
C5372 C 0.32777 0.56908 0.39472 0.0
C5373 C 0.30147 0.54199 0.38839 0.0
C5374 C 0.3137 0.55051 0.38804 0.0
C5375 C 0.34826 0.57613 0.38601 0.0
C5376 C 0.33649 0.56718 0.38686 0.0
H5377 H 0.27592 0.52563 0.36975 0.0
H5378 H 0.29665 0.53876 0.36923 0.0
H5379 H 0.30989 0.56269 0.40129 0.0
H5380 H 0.37152 0.59613 0.40345 0.0
H5381 H 0.35281 0.58091 0.40498 0.0
C5382 C 0.2822 0.54024 0.87868 0.0
C5383 C 0.274 0.53115 0.87135 0.0
C5384 C 0.29038 0.54888 0.87376 0.0
C5385 C 0.29494 0.56186 0.8451 0.0
H5386 H 0.32912 0.57575 0.86228 0.0
C5387 C 0.33239 0.59444 0.82469 0.0
C5388 C 0.33803 0.60458 0.83188 0.0
C5389 C 0.32506 0.5851 0.82942 0.0
C5390 C 0.31957 0.57197 0.85742 0.0
H5391 H 0.26814 0.52385 0.85315 0.0
H5392 H 0.28267 0.53872 0.84461 0.0
H5393 H 0.31546 0.56004 0.87062 0.0
H5394 H 0.34075 0.6128 0.8497 0.0
H5395 H 0.32802 0.59642 0.858 0.0
H5396 H 0.29919 0.57372 0.83183 0.0
C5397 C 0.28256 0.53937 0.85412 0.0
C5398 C 0.3117 0.56301 0.86221 0.0
C5399 C 0.27427 0.5308 0.85903 0.0
C5400 C 0.33644 0.60511 0.84394 0.0
C5401 C 0.32925 0.59572 0.84871 0.0
C5402 C 0.30286 0.57073 0.84026 0.0
C5403 C 0.29067 0.54857 0.86142 0.0
C5404 C 0.29923 0.55789 0.85616 0.0
C5405 C 0.32337 0.58566 0.84147 0.0
C5406 C 0.31521 0.57593 0.84641 0.0
H5407 H 0.28216 0.54079 0.88821 0.0
H5408 H 0.29631 0.55592 0.87965 0.0
H5409 H 0.28531 0.55829 0.84028 0.0
H5410 H 0.33339 0.59383 0.81534 0.0
H5411 H 0.32072 0.57742 0.82366 0.0
C5412 C 0.71693 0.02353 0.11039 0.0
C5413 C 0.72277 0.02678 0.10034 0.0
C5414 C 0.71246 0.03162 0.11728 0.0
C5415 C 0.70162 0.0594 0.1154 0.0
H5416 H 0.706 0.05968 0.14983 0.0
C5417 C 0.68682 0.09465 0.14433 0.0
C5418 C 0.68063 0.09109 0.15407 0.0
C5419 C 0.69249 0.08701 0.13801 0.0
C5420 C 0.70458 0.05964 0.14022 0.0
H5421 H 0.72882 0.04115 0.08983 0.0
H5422 H 0.72113 0.05525 0.1019 0.0
H5423 H 0.71518 0.04602 0.13849 0.0
H5424 H 0.67501 0.07672 0.16463 0.0
H5425 H 0.68482 0.06327 0.15354 0.0
H5426 H 0.69094 0.07293 0.11709 0.0
C5427 C 0.71982 0.04642 0.10435 0.0
C5428 C 0.70985 0.05182 0.13372 0.0
C5429 C 0.72429 0.03834 0.09747 0.0
C5430 C 0.67997 0.0797 0.15728 0.0
C5431 C 0.68563 0.07205 0.15096 0.0
C5432 C 0.69634 0.06721 0.12188 0.0
C5433 C 0.71373 0.04313 0.11426 0.0
C5434 C 0.70841 0.0516 0.12123 0.0
C5435 C 0.69194 0.07561 0.14124 0.0
C5436 C 0.69774 0.0674 0.13437 0.0
H5437 H 0.7156 0.01469 0.11284 0.0
H5438 H 0.70771 0.02878 0.12479 0.0
H5439 H 0.70014 0.05933 0.10577 0.0
H5440 H 0.68727 0.10336 0.1416 0.0
H5441 H 0.69736 0.09006 0.13063 0.0
C5442 C 0.77841 0.96729 0.58559 0.0
C5443 C 0.77703 0.97824 0.58988 0.0
C5444 C 0.78635 0.96102 0.5924 0.0
C5445 C 0.80226 0.95875 0.62307 0.0
H5446 H 0.8254 0.94351 0.60717 0.0
C5447 C 0.84425 0.94058 0.64887 0.0
C5448 C 0.84631 0.92989 0.64456 0.0
C5449 C 0.83542 0.9462 0.64228 0.0
C5450 C 0.81888 0.94759 0.61173 0.0
H5451 H 0.78273 0.99112 0.6048 0.0
H5452 H 0.79665 0.98022 0.61662 0.0
H5453 H 0.81045 0.95368 0.59561 0.0
H5454 H 0.84122 0.91682 0.62989 0.0
H5455 H 0.8256 0.92652 0.61837 0.0
H5456 H 0.81075 0.95271 0.63921 0.0
C5457 C 0.7915 0.97642 0.60804 0.0
C5458 C 0.81031 0.95342 0.6051 0.0
C5459 C 0.78357 0.9827 0.60123 0.0
C5460 C 0.83961 0.92499 0.63344 0.0
C5461 C 0.83078 0.9306 0.62684 0.0
C5462 C 0.81083 0.95292 0.62971 0.0
C5463 C 0.79307 0.96556 0.60366 0.0
C5464 C 0.80193 0.9591 0.61069 0.0
C5465 C 0.82856 0.94126 0.63119 0.0
C5466 C 0.81928 0.9473 0.62412 0.0
H5467 H 0.77347 0.96358 0.57691 0.0
H5468 H 0.78721 0.9526 0.58884 0.0
H5469 H 0.7958 0.96291 0.62763 0.0
H5470 H 0.84952 0.94461 0.65733 0.0
H5471 H 0.83412 0.9545 0.64578 0.0
loop_
_geom_bond_atom_site_label_1
_geom_bond_atom_site_label_2
_geom_bond_distance
_geom_bond_site_symmetry_2
_ccdc_geom_bond_type
O0 Cd1 2.300 . S
O0 C7 1.275 . S
Cd1 O0 2.300 . S
Cd1 O9 2.381 . S
Cd1 O10 2.378 . S
O2 Cd3 2.385 . S
O2 C7 1.255 . S
Cd3 O2 2.385 . S
Cd3 O4 2.317 1_455 S
O4 Cd3 2.317 1_655 S
O4 C5 1.232 . S
C5 O4 1.232 . S
C5 O6 1.218 . S
O6 C5 1.218 . S
C7 O0 1.275 . S
C7 O2 1.255 . S
C8 O9 1.258 . S
C8 O10 1.256 . S
O9 Cd1 2.381 . S
O9 C8 1.258 . S
O10 Cd1 2.378 . S
O10 C8 1.256 . S
O11 Cd12 2.300 . S
O11 C18 1.275 . S
Cd12 O11 2.300 . S
Cd12 O20 2.381 . S
Cd12 O21 2.378 . S
O13 Cd14 2.385 . S
O13 C18 1.255 . S
Cd14 O13 2.385 . S
Cd14 O15 2.317 . S
O15 Cd14 2.317 . S
O15 C16 1.232 . S
C16 O15 1.232 . S
C16 O17 1.218 . S
O17 C16 1.218 . S
C18 O11 1.275 . S
C18 O13 1.255 . S
C19 O20 1.258 . S
C19 O21 1.256 . S
O20 Cd12 2.381 . S
O20 C19 1.258 . S
O21 Cd12 2.378 . S
O21 C19 1.256 . S
O22 Cd23 2.300 . S
O22 C29 1.275 . S
Cd23 O22 2.300 . S
Cd23 O31 2.381 . S
Cd23 O32 2.378 . S
O24 Cd25 2.385 . S
O24 C29 1.255 . S
Cd25 O24 2.385 . S
Cd25 O26 2.317 . S
O26 Cd25 2.317 . S
O26 C27 1.232 . S
C27 O26 1.232 . S
C27 O28 1.218 . S
O28 C27 1.218 . S
C29 O22 1.275 . S
C29 O24 1.255 . S
C30 O31 1.258 . S
C30 O32 1.256 . S
O31 Cd23 2.381 . S
O31 C30 1.258 . S
O32 Cd23 2.378 . S
O32 C30 1.256 . S
O33 Cd34 2.300 . S
O33 C40 1.275 . S
Cd34 O33 2.300 . S
Cd34 O42 2.381 . S
Cd34 O43 2.378 . S
O35 Cd36 2.385 . S
O35 C40 1.255 . S
Cd36 O35 2.385 . S
Cd36 O37 2.317 . S
O37 Cd36 2.317 . S
O37 C38 1.232 . S
C38 O37 1.232 . S
C38 O39 1.218 . S
O39 C38 1.218 . S
C40 O33 1.275 . S
C40 O35 1.255 . S
C41 O42 1.258 . S
C41 O43 1.256 . S
O42 Cd34 2.381 . S
O42 C41 1.258 . S
O43 Cd34 2.378 . S
O43 C41 1.256 . S
O44 Cd45 2.300 . S
O44 C51 1.275 . S
Cd45 O44 2.300 . S
Cd45 O53 2.381 . S
Cd45 O54 2.378 . S
O46 Cd47 2.385 . S
O46 C51 1.255 . S
Cd47 O46 2.385 . S
Cd47 O48 2.317 . S
O48 Cd47 2.317 . S
O48 C49 1.232 . S
C49 O48 1.232 . S
C49 O50 1.218 . S
O50 C49 1.218 . S
C51 O44 1.275 . S
C51 O46 1.255 . S
C52 O53 1.258 . S
C52 O54 1.256 . S
O53 Cd45 2.381 . S
O53 C52 1.258 . S
O54 Cd45 2.378 . S
O54 C52 1.256 . S
O55 Cd56 2.300 . S
O55 C62 1.275 . S
Cd56 O55 2.300 . S
Cd56 O64 2.381 . S
Cd56 O65 2.378 . S
O57 Cd58 2.385 . S
O57 C62 1.255 . S
Cd58 O57 2.385 . S
Cd58 O59 2.317 . S
O59 Cd58 2.317 . S
O59 C60 1.232 . S
C60 O59 1.232 . S
C60 O61 1.218 . S
O61 C60 1.218 . S
C62 O55 1.275 . S
C62 O57 1.255 . S
C63 O64 1.258 . S
C63 O65 1.256 . S
O64 Cd56 2.381 . S
O64 C63 1.258 . S
O65 Cd56 2.378 . S
O65 C63 1.256 . S
O66 Cd67 2.300 . S
O66 C73 1.275 . S
Cd67 O66 2.300 . S
Cd67 O75 2.381 . S
Cd67 O76 2.378 . S
O68 Cd69 2.385 . S
O68 C73 1.255 . S
Cd69 O68 2.385 . S
Cd69 O70 2.317 . S
O70 Cd69 2.317 . S
O70 C71 1.232 . S
C71 O70 1.232 . S
C71 O72 1.218 . S
O72 C71 1.218 . S
C73 O66 1.275 . S
C73 O68 1.255 . S
C74 O75 1.258 . S
C74 O76 1.256 . S
O75 Cd67 2.381 . S
O75 C74 1.258 . S
O76 Cd67 2.378 . S
O76 C74 1.256 . S
O77 Cd78 2.300 . S
O77 C84 1.275 . S
Cd78 O77 2.300 . S
Cd78 O86 2.381 . S
Cd78 O87 2.378 . S
O79 Cd80 2.385 . S
O79 C84 1.255 . S
Cd80 O79 2.385 . S
Cd80 O81 2.317 . S
O81 Cd80 2.317 . S
O81 C82 1.232 . S
C82 O81 1.232 . S
C82 O83 1.218 . S
O83 C82 1.218 . S
C84 O77 1.275 . S
C84 O79 1.255 . S
C85 O86 1.258 . S
C85 O87 1.256 . S
O86 Cd78 2.381 . S
O86 C85 1.258 . S
O87 Cd78 2.378 . S
O87 C85 1.256 . S
O88 Cd89 2.300 . S
O88 C95 1.275 . S
Cd89 O88 2.300 . S
Cd89 O97 2.381 1_545 S
Cd89 O98 2.378 1_545 S
O90 Cd91 2.385 . S
O90 C95 1.255 . S
Cd91 O90 2.385 . S
Cd91 O92 2.317 . S
O92 Cd91 2.317 . S
O92 C93 1.232 . S
C93 O92 1.232 . S
C93 O94 1.218 . S
O94 C93 1.218 . S
C95 O88 1.275 . S
C95 O90 1.255 . S
C96 O97 1.258 . S
C96 O98 1.256 . S
O97 Cd89 2.381 1_565 S
O97 C96 1.258 . S
O98 Cd89 2.378 1_565 S
O98 C96 1.256 . S
O99 Cd100 2.300 . S
O99 C106 1.275 . S
Cd100 O99 2.300 . S
Cd100 O108 2.381 . S
Cd100 O109 2.378 . S
O101 Cd102 2.385 . S
O101 C106 1.255 . S
Cd102 O101 2.385 . S
Cd102 O103 2.317 . S
O103 Cd102 2.317 . S
O103 C104 1.232 . S
C104 O103 1.232 . S
C104 O105 1.218 . S
O105 C104 1.218 . S
C106 O99 1.275 . S
C106 O101 1.255 . S
C107 O108 1.258 . S
C107 O109 1.256 . S
O108 Cd100 2.381 . S
O108 C107 1.258 . S
O109 Cd100 2.378 . S
O109 C107 1.256 . S
O110 Cd111 2.300 . S
O110 C117 1.275 . S
Cd111 O110 2.300 . S
Cd111 O119 2.381 . S
Cd111 O120 2.378 . S
O112 Cd113 2.385 1_565 S
O112 C117 1.255 . S
Cd113 O112 2.385 1_545 S
Cd113 O114 2.317 . S
O114 Cd113 2.317 . S
O114 C115 1.232 . S
C115 O114 1.232 . S
C115 O116 1.218 . S
O116 C115 1.218 . S
C117 O110 1.275 . S
C117 O112 1.255 . S
C118 O119 1.258 . S
C118 O120 1.256 . S
O119 Cd111 2.381 . S
O119 C118 1.258 . S
O120 Cd111 2.378 . S
O120 C118 1.256 . S
O121 Cd122 2.300 1_565 S
O121 C128 1.275 . S
Cd122 O121 2.300 1_545 S
Cd122 O130 2.381 . S
Cd122 O131 2.378 . S
O123 Cd124 2.385 . S
O123 C128 1.255 . S
Cd124 O123 2.385 . S
Cd124 O125 2.317 . S
O125 Cd124 2.317 . S
O125 C126 1.232 . S
C126 O125 1.232 . S
C126 O127 1.218 . S
O127 C126 1.218 . S
C128 O121 1.275 . S
C128 O123 1.255 . S
C129 O130 1.258 . S
C129 O131 1.256 . S
O130 Cd122 2.381 . S
O130 C129 1.258 . S
O131 Cd122 2.378 . S
O131 C129 1.256 . S
O132 Cd133 2.300 . S
O132 C139 1.275 . S
Cd133 O132 2.300 . S
Cd133 O141 2.381 . S
Cd133 O142 2.378 . S
O134 Cd135 2.385 . S
O134 C139 1.255 . S
Cd135 O134 2.385 . S
Cd135 O136 2.317 . S
O136 Cd135 2.317 . S
O136 C137 1.232 . S
C137 O136 1.232 . S
C137 O138 1.218 . S
O138 C137 1.218 . S
C139 O132 1.275 . S
C139 O134 1.255 . S
C140 O141 1.258 . S
C140 O142 1.256 . S
O141 Cd133 2.381 . S
O141 C140 1.258 . S
O142 Cd133 2.378 . S
O142 C140 1.256 . S
O143 Cd144 2.300 . S
O143 C150 1.275 . S
Cd144 O143 2.300 . S
Cd144 O152 2.381 . S
Cd144 O153 2.378 . S
O145 Cd146 2.385 . S
O145 C150 1.255 . S
Cd146 O145 2.385 . S
Cd146 O147 2.317 . S
O147 Cd146 2.317 . S
O147 C148 1.232 . S
C148 O147 1.232 . S
C148 O149 1.218 . S
O149 C148 1.218 . S
C150 O143 1.275 . S
C150 O145 1.255 . S
C151 O152 1.258 . S
C151 O153 1.256 . S
O152 Cd144 2.381 . S
O152 C151 1.258 . S
O153 Cd144 2.378 . S
O153 C151 1.256 . S
O154 Cd155 2.300 . S
O154 C161 1.275 . S
Cd155 O154 2.300 . S
Cd155 O163 2.381 . S
Cd155 O164 2.378 . S
O156 Cd157 2.385 . S
O156 C161 1.255 . S
Cd157 O156 2.385 . S
Cd157 O158 2.317 . S
O158 Cd157 2.317 . S
O158 C159 1.232 . S
C159 O158 1.232 . S
C159 O160 1.218 . S
O160 C159 1.218 . S
C161 O154 1.275 . S
C161 O156 1.255 . S
C162 O163 1.258 . S
C162 O164 1.256 . S
O163 Cd155 2.381 . S
O163 C162 1.258 . S
O164 Cd155 2.378 . S
O164 C162 1.256 . S
O165 Cd166 2.300 1_655 S
O165 C172 1.275 . S
Cd166 O165 2.300 1_455 S
Cd166 O174 2.381 . S
Cd166 O175 2.378 . S
O167 Cd168 2.385 . S
O167 C172 1.255 . S
Cd168 O167 2.385 . S
Cd168 O169 2.317 . S
O169 Cd168 2.317 . S
O169 C170 1.232 . S
C170 O169 1.232 . S
C170 O171 1.218 . S
O171 C170 1.218 . S
C172 O165 1.275 . S
C172 O167 1.255 . S
C173 O174 1.258 . S
C173 O175 1.256 . S
O174 Cd166 2.381 . S
O174 C173 1.258 . S
O175 Cd166 2.378 . S
O175 C173 1.256 . S
O176 Cd177 2.300 . S
O176 C183 1.275 . S
Cd177 O176 2.300 . S
Cd177 O185 2.381 . S
Cd177 O186 2.378 . S
O178 Cd179 2.385 . S
O178 C183 1.255 . S
Cd179 O178 2.385 . S
Cd179 O180 2.317 . S
O180 Cd179 2.317 . S
O180 C181 1.232 . S
C181 O180 1.232 . S
C181 O182 1.218 . S
O182 C181 1.218 . S
C183 O176 1.275 . S
C183 O178 1.255 . S
C184 O185 1.258 . S
C184 O186 1.256 . S
O185 Cd177 2.381 . S
O185 C184 1.258 . S
O186 Cd177 2.378 . S
O186 C184 1.256 . S
O187 Cd188 2.300 . S
O187 C194 1.275 . S
Cd188 O187 2.300 . S
Cd188 O196 2.381 . S
Cd188 O197 2.378 . S
O189 Cd190 2.385 . S
O189 C194 1.255 . S
Cd190 O189 2.385 . S
Cd190 O191 2.317 . S
O191 Cd190 2.317 . S
O191 C192 1.232 . S
C192 O191 1.232 . S
C192 O193 1.218 . S
O193 C192 1.218 . S
C194 O187 1.275 . S
C194 O189 1.255 . S
C195 O196 1.258 . S
C195 O197 1.256 . S
O196 Cd188 2.381 . S
O196 C195 1.258 . S
O197 Cd188 2.378 . S
O197 C195 1.256 . S
O198 Cd199 2.300 . S
O198 C205 1.275 . S
Cd199 O198 2.300 . S
Cd199 O207 2.381 . S
Cd199 O208 2.378 . S
O200 Cd201 2.385 . S
O200 C205 1.255 . S
Cd201 O200 2.385 . S
Cd201 O202 2.317 . S
O202 Cd201 2.317 . S
O202 C203 1.232 . S
C203 O202 1.232 . S
C203 O204 1.218 . S
O204 C203 1.218 . S
C205 O198 1.275 . S
C205 O200 1.255 . S
C206 O207 1.258 . S
C206 O208 1.256 . S
O207 Cd199 2.381 . S
O207 C206 1.258 . S
O208 Cd199 2.378 . S
O208 C206 1.256 . S
O209 Cd210 2.300 . S
O209 C216 1.275 . S
Cd210 O209 2.300 . S
Cd210 O218 2.381 . S
Cd210 O219 2.378 . S
O211 Cd212 2.385 . S
O211 C216 1.255 . S
Cd212 O211 2.385 . S
Cd212 O213 2.317 . S
O213 Cd212 2.317 . S
O213 C214 1.232 . S
C214 O213 1.232 . S
C214 O215 1.218 . S
O215 C214 1.218 . S
C216 O209 1.275 . S
C216 O211 1.255 . S
C217 O218 1.258 . S
C217 O219 1.256 . S
O218 Cd210 2.381 . S
O218 C217 1.258 . S
O219 Cd210 2.378 . S
O219 C217 1.256 . S
O220 Cd221 2.300 . S
O220 C227 1.275 . S
Cd221 O220 2.300 . S
Cd221 O229 2.381 . S
Cd221 O230 2.378 . S
O222 Cd223 2.385 . S
O222 C227 1.255 . S
Cd223 O222 2.385 . S
Cd223 O224 2.317 . S
O224 Cd223 2.317 . S
O224 C225 1.232 . S
C225 O224 1.232 . S
C225 O226 1.218 . S
O226 C225 1.218 . S
C227 O220 1.275 . S
C227 O222 1.255 . S
C228 O229 1.258 . S
C228 O230 1.256 . S
O229 Cd221 2.381 . S
O229 C228 1.258 . S
O230 Cd221 2.378 . S
O230 C228 1.256 . S
O231 Cd232 2.300 . S
O231 C238 1.275 . S
Cd232 O231 2.300 . S
Cd232 O240 2.381 . S
Cd232 O241 2.378 . S
O233 Cd234 2.385 . S
O233 C238 1.255 . S
Cd234 O233 2.385 . S
Cd234 O235 2.317 . S
O235 Cd234 2.317 . S
O235 C236 1.232 . S
C236 O235 1.232 . S
C236 O237 1.218 . S
O237 C236 1.218 . S
C238 O231 1.275 . S
C238 O233 1.255 . S
C239 O240 1.258 . S
C239 O241 1.256 . S
O240 Cd232 2.381 . S
O240 C239 1.258 . S
O241 Cd232 2.378 . S
O241 C239 1.256 . S
O242 Cd243 2.300 . S
O242 C249 1.275 . S
Cd243 O242 2.300 . S
Cd243 O251 2.381 . S
Cd243 O252 2.378 . S
O244 Cd245 2.385 . S
O244 C249 1.255 . S
Cd245 O244 2.385 . S
Cd245 O246 2.317 . S
O246 Cd245 2.317 . S
O246 C247 1.232 . S
C247 O246 1.232 . S
C247 O248 1.218 . S
O248 C247 1.218 . S
C249 O242 1.275 . S
C249 O244 1.255 . S
C250 O251 1.258 . S
C250 O252 1.256 . S
O251 Cd243 2.381 . S
O251 C250 1.258 . S
O252 Cd243 2.378 . S
O252 C250 1.256 . S
O253 Cd254 2.300 1_565 S
O253 C260 1.275 . S
Cd254 O253 2.300 1_545 S
Cd254 O262 2.381 . S
Cd254 O263 2.378 . S
O255 Cd256 2.385 . S
O255 C260 1.255 . S
Cd256 O255 2.385 . S
Cd256 O257 2.317 . S
O257 Cd256 2.317 . S
O257 C258 1.232 . S
C258 O257 1.232 . S
C258 O259 1.218 . S
O259 C258 1.218 . S
C260 O253 1.275 . S
C260 O255 1.255 . S
C261 O262 1.258 . S
C261 O263 1.256 . S
O262 Cd254 2.381 . S
O262 C261 1.258 . S
O263 Cd254 2.378 . S
O263 C261 1.256 . S
O264 Cd265 2.300 . S
O264 C271 1.275 . S
Cd265 O264 2.300 . S
Cd265 O273 2.381 . S
Cd265 O274 2.378 . S
O266 Cd267 2.385 . S
O266 C271 1.255 . S
Cd267 O266 2.385 . S
Cd267 O268 2.317 . S
O268 Cd267 2.317 . S
O268 C269 1.232 . S
C269 O268 1.232 . S
C269 O270 1.218 . S
O270 C269 1.218 . S
C271 O264 1.275 . S
C271 O266 1.255 . S
C272 O273 1.258 . S
C272 O274 1.256 . S
O273 Cd265 2.381 . S
O273 C272 1.258 . S
O274 Cd265 2.378 . S
O274 C272 1.256 . S
O275 Cd276 2.300 1_545 S
O275 C282 1.275 . S
Cd276 O275 2.300 1_565 S
Cd276 O284 2.381 . S
Cd276 O285 2.378 . S
O277 Cd278 2.385 . S
O277 C282 1.255 . S
Cd278 O277 2.385 . S
Cd278 O279 2.317 . S
O279 Cd278 2.317 . S
O279 C280 1.232 . S
C280 O279 1.232 . S
C280 O281 1.218 . S
O281 C280 1.218 . S
C282 O275 1.275 . S
C282 O277 1.255 . S
C283 O284 1.258 . S
C283 O285 1.256 . S
O284 Cd276 2.381 . S
O284 C283 1.258 . S
O285 Cd276 2.378 . S
O285 C283 1.256 . S
O286 Cd287 2.300 . S
O286 C293 1.275 . S
Cd287 O286 2.300 . S
Cd287 O295 2.355 1_545 S
Cd287 O296 2.378 1_545 S
O288 Cd289 2.385 . S
O288 C293 1.255 . S
Cd289 O288 2.385 . S
Cd289 O290 2.317 . S
O290 Cd289 2.317 . S
O290 C291 1.232 . S
C291 O290 1.232 . S
C291 O292 1.218 . S
O292 C291 1.218 . S
C293 O286 1.275 . S
C293 O288 1.255 . S
C294 O295 1.285 . S
C294 O296 1.256 . S
O295 Cd287 2.355 1_565 S
O295 C294 1.285 . S
O296 Cd287 2.378 1_565 S
O296 C294 1.256 . S
O297 Cd298 2.300 . S
O297 C304 1.275 . S
Cd298 O297 2.300 . S
Cd298 O306 2.381 . S
Cd298 O307 2.378 . S
O299 Cd300 2.385 . S
O299 C304 1.255 . S
Cd300 O299 2.385 . S
Cd300 O301 2.317 . S
O301 Cd300 2.317 . S
O301 C302 1.232 . S
C302 O301 1.232 . S
C302 O303 1.218 . S
O303 C302 1.218 . S
C304 O297 1.275 . S
C304 O299 1.255 . S
C305 O306 1.258 . S
C305 O307 1.256 . S
O306 Cd298 2.381 . S
O306 C305 1.258 . S
O307 Cd298 2.378 . S
O307 C305 1.256 . S
O308 Cd309 2.300 . S
O308 C315 1.275 . S
Cd309 O308 2.300 . S
Cd309 O317 2.381 . S
Cd309 O318 2.378 . S
O310 Cd311 2.385 . S
O310 C315 1.255 . S
Cd311 O310 2.385 . S
Cd311 O312 2.317 . S
O312 Cd311 2.317 . S
O312 C313 1.232 . S
C313 O312 1.232 . S
C313 O314 1.218 . S
O314 C313 1.218 . S
C315 O308 1.275 . S
C315 O310 1.255 . S
C316 O317 1.258 . S
C316 O318 1.256 . S
O317 Cd309 2.381 . S
O317 C316 1.258 . S
O318 Cd309 2.378 . S
O318 C316 1.256 . S
O319 Cd320 2.300 . S
O319 C326 1.275 . S
Cd320 O319 2.300 . S
Cd320 O328 2.381 . S
Cd320 O329 2.378 . S
O321 Cd322 2.385 . S
O321 C326 1.255 . S
Cd322 O321 2.385 . S
Cd322 O323 2.317 . S
O323 Cd322 2.317 . S
O323 C324 1.232 . S
C324 O323 1.232 . S
C324 O325 1.218 . S
O325 C324 1.218 . S
C326 O319 1.275 . S
C326 O321 1.255 . S
C327 O328 1.258 . S
C327 O329 1.256 . S
O328 Cd320 2.381 . S
O328 C327 1.258 . S
O329 Cd320 2.378 . S
O329 C327 1.256 . S
O330 Cd331 2.300 . S
O330 C337 1.275 . S
Cd331 O330 2.300 . S
Cd331 O339 2.381 . S
Cd331 O340 2.378 . S
O332 Cd333 2.385 . S
O332 C337 1.255 . S
Cd333 O332 2.385 . S
Cd333 O334 2.317 . S
O334 Cd333 2.317 . S
O334 C335 1.232 . S
C335 O334 1.232 . S
C335 O336 1.218 . S
O336 C335 1.218 . S
C337 O330 1.275 . S
C337 O332 1.255 . S
C338 O339 1.258 . S
C338 O340 1.256 . S
O339 Cd331 2.381 . S
O339 C338 1.258 . S
O340 Cd331 2.378 . S
O340 C338 1.256 . S
O341 Cd342 2.300 . S
O341 C348 1.275 . S
Cd342 O341 2.300 . S
Cd342 O350 2.381 . S
Cd342 O351 2.378 . S
O343 Cd344 2.385 . S
O343 C348 1.255 . S
Cd344 O343 2.385 . S
Cd344 O345 2.317 . S
O345 Cd344 2.317 . S
O345 C346 1.232 . S
C346 O345 1.232 . S
C346 O347 1.218 . S
O347 C346 1.218 . S
C348 O341 1.275 . S
C348 O343 1.255 . S
C349 O350 1.258 . S
C349 O351 1.256 . S
O350 Cd342 2.381 . S
O350 C349 1.258 . S
O351 Cd342 2.378 . S
O351 C349 1.256 . S
O352 Cd353 2.300 . S
O352 C359 1.275 . S
Cd353 O352 2.300 . S
Cd353 O361 2.381 . S
Cd353 O362 2.378 . S
O354 Cd355 2.385 . S
O354 C359 1.255 . S
Cd355 O354 2.385 . S
Cd355 O356 2.317 . S
O356 Cd355 2.317 . S
O356 C357 1.232 . S
C357 O356 1.232 . S
C357 O358 1.218 . S
O358 C357 1.218 . S
C359 O352 1.275 . S
C359 O354 1.255 . S
C360 O361 1.258 . S
C360 O362 1.256 . S
O361 Cd353 2.381 . S
O361 C360 1.258 . S
O362 Cd353 2.378 . S
O362 C360 1.256 . S
O363 Cd364 2.300 . S
O363 C370 1.275 . S
Cd364 O363 2.300 . S
Cd364 O372 2.381 . S
Cd364 O373 2.378 . S
O365 Cd366 2.385 . S
O365 C370 1.255 . S
Cd366 O365 2.385 . S
Cd366 O367 2.317 . S
O367 Cd366 2.317 . S
O367 C368 1.232 . S
C368 O367 1.232 . S
C368 O369 1.218 . S
O369 C368 1.218 . S
C370 O363 1.275 . S
C370 O365 1.255 . S
C371 O372 1.258 . S
C371 O373 1.256 . S
O372 Cd364 2.381 . S
O372 C371 1.258 . S
O373 Cd364 2.378 . S
O373 C371 1.256 . S
O374 Cd375 2.300 . S
O374 C381 1.275 . S
Cd375 O374 2.300 . S
Cd375 O383 2.381 . S
Cd375 O384 2.378 . S
O376 Cd377 2.385 . S
O376 C381 1.255 . S
Cd377 O376 2.385 . S
Cd377 O378 2.317 . S
O378 Cd377 2.317 . S
O378 C379 1.232 . S
C379 O378 1.232 . S
C379 O380 1.218 . S
O380 C379 1.218 . S
C381 O374 1.275 . S
C381 O376 1.255 . S
C382 O383 1.258 . S
C382 O384 1.256 . S
O383 Cd375 2.381 . S
O383 C382 1.258 . S
O384 Cd375 2.378 . S
O384 C382 1.256 . S
O385 Cd386 2.300 . S
O385 C392 1.275 . S
Cd386 O385 2.300 . S
Cd386 O394 2.381 . S
Cd386 O395 2.378 . S
O387 Cd388 2.385 . S
O387 C392 1.255 . S
Cd388 O387 2.385 . S
Cd388 O389 2.317 . S
O389 Cd388 2.317 . S
O389 C390 1.232 . S
C390 O389 1.232 . S
C390 O391 1.218 . S
O391 C390 1.218 . S
C392 O385 1.275 . S
C392 O387 1.255 . S
C393 O394 1.258 . S
C393 O395 1.256 . S
O394 Cd386 2.381 . S
O394 C393 1.258 . S
O395 Cd386 2.378 . S
O395 C393 1.256 . S
O396 Cd397 2.300 . S
O396 C403 1.275 . S
Cd397 O396 2.300 . S
Cd397 O405 2.381 . S
Cd397 O406 2.378 . S
O398 Cd399 2.385 . S
O398 C403 1.255 . S
Cd399 O398 2.385 . S
Cd399 O400 2.317 . S
O400 Cd399 2.317 . S
O400 C401 1.232 . S
C401 O400 1.232 . S
C401 O402 1.218 . S
O402 C401 1.218 . S
C403 O396 1.275 . S
C403 O398 1.255 . S
C404 O405 1.258 . S
C404 O406 1.256 . S
O405 Cd397 2.381 . S
O405 C404 1.258 . S
O406 Cd397 2.378 . S
O406 C404 1.256 . S
O407 Cd408 2.300 . S
O407 C414 1.275 . S
Cd408 O407 2.300 . S
Cd408 O416 2.381 . S
Cd408 O417 2.378 . S
O409 Cd410 2.385 . S
O409 C414 1.255 . S
Cd410 O409 2.385 . S
Cd410 O411 2.317 . S
O411 Cd410 2.317 . S
O411 C412 1.232 . S
C412 O411 1.232 . S
C412 O413 1.218 . S
O413 C412 1.218 . S
C414 O407 1.275 . S
C414 O409 1.255 . S
C415 O416 1.258 . S
C415 O417 1.256 . S
O416 Cd408 2.381 . S
O416 C415 1.258 . S
O417 Cd408 2.378 . S
O417 C415 1.256 . S
O418 Cd419 2.300 . S
O418 C425 1.275 . S
Cd419 O418 2.300 . S
Cd419 O427 2.381 . S
Cd419 O428 2.378 . S
O420 Cd421 2.385 . S
O420 C425 1.255 . S
Cd421 O420 2.385 . S
Cd421 O422 2.317 . S
O422 Cd421 2.317 . S
O422 C423 1.232 . S
C423 O422 1.232 . S
C423 O424 1.218 . S
O424 C423 1.218 . S
C425 O418 1.275 . S
C425 O420 1.255 . S
C426 O427 1.258 . S
C426 O428 1.256 . S
O427 Cd419 2.381 . S
O427 C426 1.258 . S
O428 Cd419 2.378 . S
O428 C426 1.256 . S
O429 Cd430 2.300 . S
O429 C436 1.275 . S
Cd430 O429 2.300 . S
Cd430 O438 2.381 . S
Cd430 O439 2.378 . S
O431 Cd432 2.385 . S
O431 C436 1.255 . S
Cd432 O431 2.385 . S
Cd432 O433 2.317 . S
O433 Cd432 2.317 . S
O433 C434 1.232 . S
C434 O433 1.232 . S
C434 O435 1.218 . S
O435 C434 1.218 . S
C436 O429 1.275 . S
C436 O431 1.255 . S
C437 O438 1.258 . S
C437 O439 1.256 . S
O438 Cd430 2.381 . S
O438 C437 1.258 . S
O439 Cd430 2.378 . S
O439 C437 1.256 . S
O440 Cd441 2.300 . S
O440 C447 1.275 . S
Cd441 O440 2.300 . S
Cd441 O449 2.381 . S
Cd441 O450 2.378 . S
O442 Cd443 2.385 . S
O442 C447 1.255 . S
Cd443 O442 2.385 . S
Cd443 O444 2.317 . S
O444 Cd443 2.317 . S
O444 C445 1.232 . S
C445 O444 1.232 . S
C445 O446 1.218 . S
O446 C445 1.218 . S
C447 O440 1.275 . S
C447 O442 1.255 . S
C448 O449 1.258 . S
C448 O450 1.256 . S
O449 Cd441 2.381 . S
O449 C448 1.258 . S
O450 Cd441 2.378 . S
O450 C448 1.256 . S
O451 Cd452 2.300 . S
O451 C458 1.275 . S
Cd452 O451 2.300 . S
Cd452 O460 2.381 . S
Cd452 O461 2.378 . S
O453 Cd454 2.385 . S
O453 C458 1.255 . S
Cd454 O453 2.385 . S
Cd454 O455 2.317 . S
O455 Cd454 2.317 . S
O455 C456 1.232 . S
C456 O455 1.232 . S
C456 O457 1.218 . S
O457 C456 1.218 . S
C458 O451 1.275 . S
C458 O453 1.255 . S
C459 O460 1.258 . S
C459 O461 1.256 . S
O460 Cd452 2.381 . S
O460 C459 1.258 . S
O461 Cd452 2.378 . S
O461 C459 1.256 . S
O462 Cd463 2.300 . S
O462 C469 1.275 . S
Cd463 O462 2.300 . S
Cd463 O471 2.381 . S
Cd463 O472 2.378 . S
O464 Cd465 2.385 . S
O464 C469 1.255 . S
Cd465 O464 2.385 . S
Cd465 O466 2.317 1_554 S
O466 Cd465 2.317 1_556 S
O466 C467 1.232 . S
C467 O466 1.232 . S
C467 O468 1.218 . S
O468 C467 1.218 . S
C469 O462 1.275 . S
C469 O464 1.255 . S
C470 O471 1.258 . S
C470 O472 1.256 . S
O471 Cd463 2.381 . S
O471 C470 1.258 . S
O472 Cd463 2.378 . S
O472 C470 1.256 . S
O473 Cd474 2.300 . S
O473 C480 1.275 . S
Cd474 O473 2.300 . S
Cd474 O482 2.381 . S
Cd474 O483 2.378 . S
O475 Cd476 2.385 . S
O475 C480 1.255 . S
Cd476 O475 2.385 . S
Cd476 O477 2.317 . S
O477 Cd476 2.317 . S
O477 C478 1.232 . S
C478 O477 1.232 . S
C478 O479 1.218 . S
O479 C478 1.218 . S
C480 O473 1.275 . S
C480 O475 1.255 . S
C481 O482 1.258 . S
C481 O483 1.256 . S
O482 Cd474 2.381 . S
O482 C481 1.258 . S
O483 Cd474 2.378 . S
O483 C481 1.256 . S
O484 Cd485 2.300 . S
O484 C491 1.275 . S
Cd485 O484 2.300 . S
Cd485 O493 2.381 . S
Cd485 O494 2.378 . S
O486 Cd487 2.385 . S
O486 C491 1.255 . S
Cd487 O486 2.385 . S
Cd487 O488 2.317 . S
O488 Cd487 2.317 . S
O488 C489 1.232 . S
C489 O488 1.232 . S
C489 O490 1.218 . S
O490 C489 1.218 . S
C491 O484 1.275 . S
C491 O486 1.255 . S
C492 O493 1.258 . S
C492 O494 1.256 . S
O493 Cd485 2.381 . S
O493 C492 1.258 . S
O494 Cd485 2.378 . S
O494 C492 1.256 . S
O495 Cd496 2.300 . S
O495 C502 1.275 . S
Cd496 O495 2.300 . S
Cd496 O504 2.381 . S
Cd496 O505 2.378 . S
O497 Cd498 2.385 . S
O497 C502 1.255 . S
Cd498 O497 2.385 . S
Cd498 O499 2.317 . S
O499 Cd498 2.317 . S
O499 C500 1.232 . S
C500 O499 1.232 . S
C500 O501 1.218 . S
O501 C500 1.218 . S
C502 O495 1.275 . S
C502 O497 1.255 . S
C503 O504 1.258 . S
C503 O505 1.256 . S
O504 Cd496 2.381 . S
O504 C503 1.258 . S
O505 Cd496 2.378 . S
O505 C503 1.256 . S
O506 Cd507 2.300 . S
O506 C513 1.275 . S
Cd507 O506 2.300 . S
Cd507 O515 2.381 . S
Cd507 O516 2.378 . S
O508 Cd509 2.385 . S
O508 C513 1.255 . S
Cd509 O508 2.385 . S
Cd509 O510 2.317 . S
O510 Cd509 2.317 . S
O510 C511 1.232 . S
C511 O510 1.232 . S
C511 O512 1.218 . S
O512 C511 1.218 . S
C513 O506 1.275 . S
C513 O508 1.255 . S
C514 O515 1.258 . S
C514 O516 1.256 . S
O515 Cd507 2.381 . S
O515 C514 1.258 . S
O516 Cd507 2.378 . S
O516 C514 1.256 . S
O517 Cd518 2.300 . S
O517 C524 1.275 . S
Cd518 O517 2.300 . S
Cd518 O526 2.381 . S
Cd518 O527 2.378 . S
O519 Cd520 2.385 . S
O519 C524 1.255 . S
Cd520 O519 2.385 . S
Cd520 O521 2.317 . S
O521 Cd520 2.317 . S
O521 C522 1.232 . S
C522 O521 1.232 . S
C522 O523 1.218 . S
O523 C522 1.218 . S
C524 O517 1.275 . S
C524 O519 1.255 . S
C525 O526 1.258 . S
C525 O527 1.256 . S
O526 Cd518 2.381 . S
O526 C525 1.258 . S
O527 Cd518 2.378 . S
O527 C525 1.256 . S
H528 C535 0.929 . S
H529 C538 0.930 . S
H530 C540 0.929 . S
H531 C532 0.969 . S
C532 H531 0.969 . S
C532 O533 1.550 . S
C532 H534 0.973 . S
O533 C532 1.550 . S
O533 C539 1.412 . S
H534 C532 0.973 . S
C535 H528 0.929 . S
C535 C536 1.400 . S
C535 C537 1.364 . S
C536 C535 1.400 . S
C536 C540 1.377 . S
C537 C535 1.364 . S
C537 C538 1.374 . S
C538 H529 0.930 . S
C538 C537 1.374 . S
C538 C539 1.383 . S
C539 O533 1.412 . S
C539 C538 1.383 . S
C539 C540 1.394 . S
C540 H530 0.929 . S
C540 C536 1.377 . S
C540 C539 1.394 . S
H541 C548 0.929 . S
H542 C551 0.930 . S
H543 C553 0.929 . S
H544 C545 0.969 . S
C545 H544 0.969 . S
C545 O546 1.550 . S
C545 H547 0.973 . S
O546 C545 1.550 . S
O546 C552 1.412 . S
H547 C545 0.973 . S
C548 H541 0.929 . S
C548 C549 1.400 . S
C548 C550 1.364 . S
C549 C548 1.400 . S
C549 C553 1.377 . S
C550 C548 1.364 . S
C550 C551 1.374 . S
C551 H542 0.930 . S
C551 C550 1.374 . S
C551 C552 1.383 . S
C552 O546 1.412 . S
C552 C551 1.383 . S
C552 C553 1.394 . S
C553 H543 0.929 . S
C553 C549 1.377 . S
C553 C552 1.394 . S
H554 C561 0.929 . S
H555 C564 0.930 . S
H556 C566 0.929 . S
H557 C558 0.969 . S
C558 H557 0.969 . S
C558 O559 1.550 . S
C558 H560 0.973 . S
O559 C558 1.550 . S
O559 C565 1.412 . S
H560 C558 0.973 . S
C561 H554 0.929 . S
C561 C562 1.400 . S
C561 C563 1.364 . S
C562 C561 1.400 . S
C562 C566 1.377 . S
C563 C561 1.364 . S
C563 C564 1.374 . S
C564 H555 0.930 . S
C564 C563 1.374 . S
C564 C565 1.383 . S
C565 O559 1.412 . S
C565 C564 1.383 . S
C565 C566 1.394 . S
C566 H556 0.929 . S
C566 C562 1.377 . S
C566 C565 1.394 . S
H567 C574 0.929 . S
H568 C577 0.930 . S
H569 C579 0.929 . S
H570 C571 0.969 . S
C571 H570 0.969 . S
C571 O572 1.550 . S
C571 H573 0.973 . S
O572 C571 1.550 . S
O572 C578 1.412 . S
H573 C571 0.973 . S
C574 H567 0.929 . S
C574 C575 1.400 . S
C574 C576 1.364 . S
C575 C574 1.400 . S
C575 C579 1.377 . S
C576 C574 1.364 . S
C576 C577 1.374 . S
C577 H568 0.930 . S
C577 C576 1.374 . S
C577 C578 1.383 . S
C578 O572 1.412 . S
C578 C577 1.383 . S
C578 C579 1.394 . S
C579 H569 0.929 . S
C579 C575 1.377 . S
C579 C578 1.394 . S
H580 C587 0.929 . S
H581 C590 0.930 . S
H582 C592 0.929 . S
H583 C584 0.969 . S
C584 H583 0.969 . S
C584 O585 1.550 . S
C584 H586 0.973 . S
O585 C584 1.550 . S
O585 C591 1.412 . S
H586 C584 0.973 . S
C587 H580 0.929 . S
C587 C588 1.400 . S
C587 C589 1.364 . S
C588 C587 1.400 . S
C588 C592 1.377 . S
C589 C587 1.364 . S
C589 C590 1.374 . S
C590 H581 0.930 . S
C590 C589 1.374 . S
C590 C591 1.383 . S
C591 O585 1.412 . S
C591 C590 1.383 . S
C591 C592 1.394 . S
C592 H582 0.929 . S
C592 C588 1.377 . S
C592 C591 1.394 . S
H593 C600 0.929 . S
H594 C603 0.930 . S
H595 C605 0.929 . S
H596 C597 0.969 . S
C597 H596 0.969 . S
C597 O598 1.550 . S
C597 H599 0.973 . S
O598 C597 1.550 . S
O598 C604 1.412 . S
H599 C597 0.973 . S
C600 H593 0.929 . S
C600 C601 1.400 . S
C600 C602 1.364 . S
C601 C600 1.400 . S
C601 C605 1.377 . S
C602 C600 1.364 . S
C602 C603 1.374 . S
C603 H594 0.930 . S
C603 C602 1.374 . S
C603 C604 1.383 . S
C604 O598 1.412 . S
C604 C603 1.383 . S
C604 C605 1.394 . S
C605 H595 0.929 . S
C605 C601 1.377 . S
C605 C604 1.394 . S
H606 C613 0.929 . S
H607 C616 0.930 . S
H608 C618 0.929 . S
H609 C610 0.969 . S
C610 H609 0.969 . S
C610 O611 1.550 . S
C610 H612 0.973 . S
O611 C610 1.550 . S
O611 C617 1.412 . S
H612 C610 0.973 . S
C613 H606 0.929 . S
C613 C614 1.400 . S
C613 C615 1.364 . S
C614 C613 1.400 . S
C614 C618 1.377 . S
C615 C613 1.364 . S
C615 C616 1.374 . S
C616 H607 0.930 . S
C616 C615 1.374 . S
C616 C617 1.383 . S
C617 O611 1.412 . S
C617 C616 1.383 . S
C617 C618 1.394 . S
C618 H608 0.929 . S
C618 C614 1.377 . S
C618 C617 1.394 . S
H619 C626 0.929 . S
H620 C629 0.930 . S
H621 C631 0.929 . S
H622 C623 0.969 . S
C623 H622 0.969 . S
C623 O624 1.550 . S
C623 H625 0.973 . S
O624 C623 1.550 . S
O624 C630 1.412 . S
H625 C623 0.973 . S
C626 H619 0.929 . S
C626 C627 1.400 . S
C626 C628 1.364 . S
C627 C626 1.400 . S
C627 C631 1.377 . S
C628 C626 1.364 . S
C628 C629 1.374 . S
C629 H620 0.930 . S
C629 C628 1.374 . S
C629 C630 1.383 . S
C630 O624 1.412 . S
C630 C629 1.383 . S
C630 C631 1.394 . S
C631 H621 0.929 . S
C631 C627 1.377 . S
C631 C630 1.394 . S
H632 C639 0.929 . S
H633 C642 0.930 . S
H634 C644 0.929 . S
H635 C636 0.969 . S
C636 H635 0.969 . S
C636 O637 1.550 . S
C636 H638 0.973 . S
O637 C636 1.550 . S
O637 C643 1.412 . S
H638 C636 0.973 . S
C639 H632 0.929 . S
C639 C640 1.400 . S
C639 C641 1.364 . S
C640 C639 1.400 . S
C640 C644 1.377 . S
C641 C639 1.364 . S
C641 C642 1.374 . S
C642 H633 0.930 . S
C642 C641 1.374 . S
C642 C643 1.383 . S
C643 O637 1.412 . S
C643 C642 1.383 . S
C643 C644 1.394 . S
C644 H634 0.929 . S
C644 C640 1.377 . S
C644 C643 1.394 . S
H645 C652 0.929 . S
H646 C655 0.930 . S
H647 C657 0.929 . S
H648 C649 0.969 . S
C649 H648 0.969 . S
C649 O650 1.550 . S
C649 H651 0.973 . S
O650 C649 1.550 . S
O650 C656 1.412 . S
H651 C649 0.973 . S
C652 H645 0.929 . S
C652 C653 1.400 . S
C652 C654 1.364 . S
C653 C652 1.400 . S
C653 C657 1.377 . S
C654 C652 1.364 . S
C654 C655 1.374 . S
C655 H646 0.930 . S
C655 C654 1.374 . S
C655 C656 1.383 . S
C656 O650 1.412 . S
C656 C655 1.383 . S
C656 C657 1.394 . S
C657 H647 0.929 . S
C657 C653 1.377 . S
C657 C656 1.394 . S
H658 C665 0.929 . S
H659 C668 0.930 . S
H660 C670 0.929 . S
H661 C662 0.969 . S
C662 H661 0.969 . S
C662 O663 1.550 . S
C662 H664 0.973 . S
O663 C662 1.550 . S
O663 C669 1.412 . S
H664 C662 0.973 . S
C665 H658 0.929 . S
C665 C666 1.400 . S
C665 C667 1.364 . S
C666 C665 1.400 . S
C666 C670 1.377 . S
C667 C665 1.364 . S
C667 C668 1.374 . S
C668 H659 0.930 . S
C668 C667 1.374 . S
C668 C669 1.383 . S
C669 O663 1.412 . S
C669 C668 1.383 . S
C669 C670 1.394 . S
C670 H660 0.929 . S
C670 C666 1.377 . S
C670 C669 1.394 . S
H671 C678 0.929 . S
H672 C681 0.930 . S
H673 C683 0.929 . S
H674 C675 0.969 . S
C675 H674 0.969 . S
C675 O676 1.550 . S
C675 H677 0.973 . S
O676 C675 1.550 . S
O676 C682 1.412 . S
H677 C675 0.973 . S
C678 H671 0.929 . S
C678 C679 1.400 . S
C678 C680 1.364 . S
C679 C678 1.400 . S
C679 C683 1.377 . S
C680 C678 1.364 . S
C680 C681 1.374 . S
C681 H672 0.930 . S
C681 C680 1.374 . S
C681 C682 1.383 . S
C682 O676 1.412 . S
C682 C681 1.383 . S
C682 C683 1.394 . S
C683 H673 0.929 . S
C683 C679 1.377 . S
C683 C682 1.394 . S
H684 C691 0.929 . S
H685 C694 0.930 . S
H686 C696 0.929 . S
H687 C688 0.969 . S
C688 H687 0.969 . S
C688 O689 1.550 . S
C688 H690 0.973 . S
O689 C688 1.550 . S
O689 C695 1.412 . S
H690 C688 0.973 . S
C691 H684 0.929 . S
C691 C692 1.400 . S
C691 C693 1.364 . S
C692 C691 1.400 . S
C692 C696 1.377 . S
C693 C691 1.364 . S
C693 C694 1.374 . S
C694 H685 0.930 . S
C694 C693 1.374 . S
C694 C695 1.383 . S
C695 O689 1.412 . S
C695 C694 1.383 . S
C695 C696 1.394 . S
C696 H686 0.929 . S
C696 C692 1.377 . S
C696 C695 1.394 . S
H697 C704 0.929 . S
H698 C707 0.930 . S
H699 C709 0.929 . S
H700 C701 0.969 . S
C701 H700 0.969 . S
C701 O702 1.550 . S
C701 H703 0.973 . S
O702 C701 1.550 . S
O702 C708 1.412 . S
H703 C701 0.973 . S
C704 H697 0.929 . S
C704 C705 1.400 . S
C704 C706 1.364 . S
C705 C704 1.400 . S
C705 C709 1.377 . S
C706 C704 1.364 . S
C706 C707 1.374 . S
C707 H698 0.930 . S
C707 C706 1.374 . S
C707 C708 1.383 . S
C708 O702 1.412 . S
C708 C707 1.383 . S
C708 C709 1.394 . S
C709 H699 0.929 . S
C709 C705 1.377 . S
C709 C708 1.394 . S
H710 C717 0.929 . S
H711 C720 0.930 . S
H712 C722 0.929 . S
H713 C714 0.969 . S
C714 H713 0.969 . S
C714 O715 1.550 . S
C714 H716 0.973 . S
O715 C714 1.550 . S
O715 C721 1.412 . S
H716 C714 0.973 . S
C717 H710 0.929 . S
C717 C718 1.400 . S
C717 C719 1.364 . S
C718 C717 1.400 . S
C718 C722 1.377 . S
C719 C717 1.364 . S
C719 C720 1.374 . S
C720 H711 0.930 . S
C720 C719 1.374 . S
C720 C721 1.383 . S
C721 O715 1.412 . S
C721 C720 1.383 . S
C721 C722 1.394 . S
C722 H712 0.929 . S
C722 C718 1.377 . S
C722 C721 1.394 . S
H723 C730 0.929 . S
H724 C733 0.930 . S
H725 C735 0.929 . S
H726 C727 0.969 . S
C727 H726 0.969 . S
C727 O728 1.550 . S
C727 H729 0.973 . S
O728 C727 1.550 . S
O728 C734 1.412 . S
H729 C727 0.973 . S
C730 H723 0.929 . S
C730 C731 1.400 . S
C730 C732 1.364 . S
C731 C730 1.400 . S
C731 C735 1.377 . S
C732 C730 1.364 . S
C732 C733 1.374 . S
C733 H724 0.930 . S
C733 C732 1.374 . S
C733 C734 1.383 . S
C734 O728 1.412 . S
C734 C733 1.383 . S
C734 C735 1.394 . S
C735 H725 0.929 . S
C735 C731 1.377 . S
C735 C734 1.394 . S
H736 C743 0.929 . S
H737 C746 0.930 . S
H738 C748 0.929 . S
H739 C740 0.969 . S
C740 H739 0.969 . S
C740 O741 1.550 . S
C740 H742 0.973 . S
O741 C740 1.550 . S
O741 C747 1.412 . S
H742 C740 0.973 . S
C743 H736 0.929 . S
C743 C744 1.400 . S
C743 C745 1.364 . S
C744 C743 1.400 . S
C744 C748 1.377 . S
C745 C743 1.364 . S
C745 C746 1.374 . S
C746 H737 0.930 . S
C746 C745 1.374 . S
C746 C747 1.383 . S
C747 O741 1.412 . S
C747 C746 1.383 . S
C747 C748 1.394 . S
C748 H738 0.929 . S
C748 C744 1.377 . S
C748 C747 1.394 . S
H749 C756 0.929 . S
H750 C759 0.930 . S
H751 C761 0.929 . S
H752 C753 0.969 . S
C753 H752 0.969 . S
C753 O754 1.550 . S
C753 H755 0.973 . S
O754 C753 1.550 . S
O754 C760 1.412 . S
H755 C753 0.973 . S
C756 H749 0.929 . S
C756 C757 1.400 . S
C756 C758 1.364 . S
C757 C756 1.400 . S
C757 C761 1.377 . S
C758 C756 1.364 . S
C758 C759 1.374 . S
C759 H750 0.930 . S
C759 C758 1.374 . S
C759 C760 1.383 . S
C760 O754 1.412 . S
C760 C759 1.383 . S
C760 C761 1.394 . S
C761 H751 0.929 . S
C761 C757 1.377 . S
C761 C760 1.394 . S
H762 C769 0.929 . S
H763 C772 0.930 . S
H764 C774 0.929 . S
H765 C766 0.969 . S
C766 H765 0.969 . S
C766 O767 1.550 . S
C766 H768 0.973 . S
O767 C766 1.550 . S
O767 C773 1.412 . S
H768 C766 0.973 . S
C769 H762 0.929 . S
C769 C770 1.400 . S
C769 C771 1.364 . S
C770 C769 1.400 . S
C770 C774 1.377 . S
C771 C769 1.364 . S
C771 C772 1.374 . S
C772 H763 0.930 . S
C772 C771 1.374 . S
C772 C773 1.383 . S
C773 O767 1.412 . S
C773 C772 1.383 . S
C773 C774 1.394 . S
C774 H764 0.929 . S
C774 C770 1.377 . S
C774 C773 1.394 . S
H775 C782 0.929 . S
H776 C785 0.930 . S
H777 C787 0.929 . S
H778 C779 0.969 . S
C779 H778 0.969 . S
C779 O780 1.550 . S
C779 H781 0.973 . S
O780 C779 1.550 . S
O780 C786 1.412 . S
H781 C779 0.973 . S
C782 H775 0.929 . S
C782 C783 1.400 . S
C782 C784 1.364 . S
C783 C782 1.400 . S
C783 C787 1.377 . S
C784 C782 1.364 . S
C784 C785 1.374 . S
C785 H776 0.930 . S
C785 C784 1.374 . S
C785 C786 1.383 . S
C786 O780 1.412 . S
C786 C785 1.383 . S
C786 C787 1.394 . S
C787 H777 0.929 . S
C787 C783 1.377 . S
C787 C786 1.394 . S
H788 C795 0.929 . S
H789 C798 0.930 . S
H790 C800 0.929 . S
H791 C792 0.969 . S
C792 H791 0.969 . S
C792 O793 1.550 . S
C792 H794 0.973 . S
O793 C792 1.550 . S
O793 C799 1.412 . S
H794 C792 0.973 . S
C795 H788 0.929 . S
C795 C796 1.400 . S
C795 C797 1.364 . S
C796 C795 1.400 . S
C796 C800 1.377 . S
C797 C795 1.364 . S
C797 C798 1.374 . S
C798 H789 0.930 . S
C798 C797 1.374 . S
C798 C799 1.383 . S
C799 O793 1.412 . S
C799 C798 1.383 . S
C799 C800 1.394 . S
C800 H790 0.929 . S
C800 C796 1.377 . S
C800 C799 1.394 . S
H801 C808 0.929 . S
H802 C811 0.930 . S
H803 C813 0.929 . S
H804 C805 0.969 . S
C805 H804 0.969 . S
C805 O806 1.550 . S
C805 H807 0.973 . S
O806 C805 1.550 . S
O806 C812 1.412 . S
H807 C805 0.973 . S
C808 H801 0.929 . S
C808 C809 1.400 . S
C808 C810 1.364 . S
C809 C808 1.400 . S
C809 C813 1.377 . S
C810 C808 1.364 . S
C810 C811 1.374 . S
C811 H802 0.930 . S
C811 C810 1.374 . S
C811 C812 1.383 . S
C812 O806 1.412 . S
C812 C811 1.383 . S
C812 C813 1.394 . S
C813 H803 0.929 . S
C813 C809 1.377 . S
C813 C812 1.394 . S
H814 C821 0.929 . S
H815 C824 0.930 . S
H816 C826 0.929 . S
H817 C818 0.969 . S
C818 H817 0.969 . S
C818 O819 1.550 . S
C818 H820 0.973 . S
O819 C818 1.550 . S
O819 C825 1.412 . S
H820 C818 0.973 . S
C821 H814 0.929 . S
C821 C822 1.400 . S
C821 C823 1.364 . S
C822 C821 1.400 . S
C822 C826 1.377 . S
C823 C821 1.364 . S
C823 C824 1.374 . S
C824 H815 0.930 . S
C824 C823 1.374 . S
C824 C825 1.383 . S
C825 O819 1.412 . S
C825 C824 1.383 . S
C825 C826 1.394 . S
C826 H816 0.929 . S
C826 C822 1.377 . S
C826 C825 1.394 . S
H827 C834 0.929 . S
H828 C837 0.930 . S
H829 C839 0.929 . S
H830 C831 0.969 . S
C831 H830 0.969 . S
C831 O832 1.550 . S
C831 H833 0.973 . S
O832 C831 1.550 . S
O832 C838 1.412 . S
H833 C831 0.973 . S
C834 H827 0.929 . S
C834 C835 1.400 . S
C834 C836 1.364 . S
C835 C834 1.400 . S
C835 C839 1.377 . S
C836 C834 1.364 . S
C836 C837 1.374 . S
C837 H828 0.930 . S
C837 C836 1.374 . S
C837 C838 1.383 . S
C838 O832 1.412 . S
C838 C837 1.383 . S
C838 C839 1.394 . S
C839 H829 0.929 . S
C839 C835 1.377 . S
C839 C838 1.394 . S
H840 C847 0.929 . S
H841 C850 0.930 . S
H842 C852 0.929 . S
H843 C844 0.969 . S
C844 H843 0.969 . S
C844 O845 1.550 . S
C844 H846 0.973 . S
O845 C844 1.550 . S
O845 C851 1.412 . S
H846 C844 0.973 . S
C847 H840 0.929 . S
C847 C848 1.400 . S
C847 C849 1.364 . S
C848 C847 1.400 . S
C848 C852 1.377 . S
C849 C847 1.364 . S
C849 C850 1.374 . S
C850 H841 0.930 . S
C850 C849 1.374 . S
C850 C851 1.383 . S
C851 O845 1.412 . S
C851 C850 1.383 . S
C851 C852 1.394 . S
C852 H842 0.929 . S
C852 C848 1.377 . S
C852 C851 1.394 . S
H853 C860 0.929 . S
H854 C863 0.930 . S
H855 C865 0.929 . S
H856 C857 0.969 . S
C857 H856 0.969 . S
C857 O858 1.550 . S
C857 H859 0.973 . S
O858 C857 1.550 . S
O858 C864 1.412 . S
H859 C857 0.973 . S
C860 H853 0.929 . S
C860 C861 1.400 . S
C860 C862 1.364 . S
C861 C860 1.400 . S
C861 C865 1.377 . S
C862 C860 1.364 . S
C862 C863 1.374 . S
C863 H854 0.930 . S
C863 C862 1.374 . S
C863 C864 1.383 . S
C864 O858 1.412 . S
C864 C863 1.383 . S
C864 C865 1.394 . S
C865 H855 0.929 . S
C865 C861 1.377 . S
C865 C864 1.394 . S
H866 C873 0.929 . S
H867 C876 0.930 . S
H868 C878 0.929 . S
H869 C870 0.969 . S
C870 H869 0.969 . S
C870 O871 1.550 . S
C870 H872 0.973 . S
O871 C870 1.550 . S
O871 C877 1.412 . S
H872 C870 0.973 . S
C873 H866 0.929 . S
C873 C874 1.400 . S
C873 C875 1.364 . S
C874 C873 1.400 . S
C874 C878 1.377 . S
C875 C873 1.364 . S
C875 C876 1.374 . S
C876 H867 0.930 . S
C876 C875 1.374 . S
C876 C877 1.383 . S
C877 O871 1.412 . S
C877 C876 1.383 . S
C877 C878 1.394 . S
C878 H868 0.929 . S
C878 C874 1.377 . S
C878 C877 1.394 . S
H879 C886 0.929 . S
H880 C889 0.930 . S
H881 C891 0.929 . S
H882 C883 0.969 . S
C883 H882 0.969 . S
C883 O884 1.550 . S
C883 H885 0.973 . S
O884 C883 1.550 . S
O884 C890 1.412 . S
H885 C883 0.973 . S
C886 H879 0.929 . S
C886 C887 1.400 . S
C886 C888 1.364 . S
C887 C886 1.400 . S
C887 C891 1.377 . S
C888 C886 1.364 . S
C888 C889 1.374 . S
C889 H880 0.930 . S
C889 C888 1.374 . S
C889 C890 1.383 . S
C890 O884 1.412 . S
C890 C889 1.383 . S
C890 C891 1.394 . S
C891 H881 0.929 . S
C891 C887 1.377 . S
C891 C890 1.394 . S
H892 C899 0.929 . S
H893 C902 0.930 . S
H894 C904 0.929 . S
H895 C896 0.969 . S
C896 H895 0.969 . S
C896 O897 1.550 . S
C896 H898 0.973 . S
O897 C896 1.550 . S
O897 C903 1.412 . S
H898 C896 0.973 . S
C899 H892 0.929 . S
C899 C900 1.400 . S
C899 C901 1.364 . S
C900 C899 1.400 . S
C900 C904 1.377 . S
C901 C899 1.364 . S
C901 C902 1.374 . S
C902 H893 0.930 . S
C902 C901 1.374 . S
C902 C903 1.383 . S
C903 O897 1.412 . S
C903 C902 1.383 . S
C903 C904 1.394 . S
C904 H894 0.929 . S
C904 C900 1.377 . S
C904 C903 1.394 . S
H905 C912 0.929 . S
H906 C915 0.930 . S
H907 C917 0.929 . S
H908 C909 0.969 . S
C909 H908 0.969 . S
C909 O910 1.550 . S
C909 H911 0.973 . S
O910 C909 1.550 . S
O910 C916 1.412 . S
H911 C909 0.973 . S
C912 H905 0.929 . S
C912 C913 1.400 . S
C912 C914 1.364 . S
C913 C912 1.400 . S
C913 C917 1.377 . S
C914 C912 1.364 . S
C914 C915 1.374 . S
C915 H906 0.930 . S
C915 C914 1.374 . S
C915 C916 1.383 . S
C916 O910 1.412 . S
C916 C915 1.383 . S
C916 C917 1.394 . S
C917 H907 0.929 . S
C917 C913 1.377 . S
C917 C916 1.394 . S
H918 C925 0.929 . S
H919 C928 0.930 . S
H920 C930 0.929 . S
H921 C922 0.969 . S
C922 H921 0.969 . S
C922 O923 1.550 . S
C922 H924 0.973 . S
O923 C922 1.550 . S
O923 C929 1.412 . S
H924 C922 0.973 . S
C925 H918 0.929 . S
C925 C926 1.400 . S
C925 C927 1.364 . S
C926 C925 1.400 . S
C926 C930 1.377 . S
C927 C925 1.364 . S
C927 C928 1.374 . S
C928 H919 0.930 . S
C928 C927 1.374 . S
C928 C929 1.383 . S
C929 O923 1.412 . S
C929 C928 1.383 . S
C929 C930 1.394 . S
C930 H920 0.929 . S
C930 C926 1.377 . S
C930 C929 1.394 . S
H931 C938 0.929 . S
H932 C941 0.930 . S
H933 C943 0.929 . S
H934 C935 0.969 . S
C935 H934 0.969 . S
C935 O936 1.550 . S
C935 H937 0.973 . S
O936 C935 1.550 . S
O936 C942 1.412 . S
H937 C935 0.973 . S
C938 H931 0.929 . S
C938 C939 1.400 . S
C938 C940 1.364 . S
C939 C938 1.400 . S
C939 C943 1.377 . S
C940 C938 1.364 . S
C940 C941 1.374 . S
C941 H932 0.930 . S
C941 C940 1.374 . S
C941 C942 1.383 . S
C942 O936 1.412 . S
C942 C941 1.383 . S
C942 C943 1.394 . S
C943 H933 0.929 . S
C943 C939 1.377 . S
C943 C942 1.394 . S
H944 C951 0.929 . S
H945 C954 0.930 . S
H946 C956 0.929 . S
H947 C948 0.969 . S
C948 H947 0.969 . S
C948 O949 1.550 . S
C948 H950 0.973 . S
O949 C948 1.550 . S
O949 C955 1.412 . S
H950 C948 0.973 . S
C951 H944 0.929 . S
C951 C952 1.400 . S
C951 C953 1.364 . S
C952 C951 1.400 . S
C952 C956 1.377 . S
C953 C951 1.364 . S
C953 C954 1.374 . S
C954 H945 0.930 . S
C954 C953 1.374 . S
C954 C955 1.383 . S
C955 O949 1.412 . S
C955 C954 1.383 . S
C955 C956 1.394 . S
C956 H946 0.929 . S
C956 C952 1.377 . S
C956 C955 1.394 . S
H957 C964 0.929 . S
H958 C967 0.930 . S
H959 C969 0.929 . S
H960 C961 0.969 . S
C961 H960 0.969 . S
C961 O962 1.550 . S
C961 H963 0.973 . S
O962 C961 1.550 . S
O962 C968 1.412 . S
H963 C961 0.973 . S
C964 H957 0.929 . S
C964 C965 1.400 . S
C964 C966 1.364 . S
C965 C964 1.400 . S
C965 C969 1.377 . S
C966 C964 1.364 . S
C966 C967 1.374 . S
C967 H958 0.930 . S
C967 C966 1.374 . S
C967 C968 1.383 . S
C968 O962 1.412 . S
C968 C967 1.383 . S
C968 C969 1.394 . S
C969 H959 0.929 . S
C969 C965 1.377 . S
C969 C968 1.394 . S
H970 C977 0.929 . S
H971 C980 0.930 . S
H972 C982 0.929 . S
H973 C974 0.969 . S
C974 H973 0.969 . S
C974 O975 1.550 . S
C974 H976 0.973 . S
O975 C974 1.550 . S
O975 C981 1.412 . S
H976 C974 0.973 . S
C977 H970 0.929 . S
C977 C978 1.400 . S
C977 C979 1.364 . S
C978 C977 1.400 . S
C978 C982 1.377 . S
C979 C977 1.364 . S
C979 C980 1.374 . S
C980 H971 0.930 . S
C980 C979 1.374 . S
C980 C981 1.383 . S
C981 O975 1.412 . S
C981 C980 1.383 . S
C981 C982 1.394 . S
C982 H972 0.929 . S
C982 C978 1.377 . S
C982 C981 1.394 . S
H983 C990 0.929 . S
H984 C993 0.930 . S
H985 C995 0.929 . S
H986 C987 0.969 . S
C987 H986 0.969 . S
C987 O988 1.550 . S
C987 H989 0.973 . S
O988 C987 1.550 . S
O988 C994 1.412 . S
H989 C987 0.973 . S
C990 H983 0.929 . S
C990 C991 1.400 . S
C990 C992 1.364 . S
C991 C990 1.400 . S
C991 C995 1.377 . S
C992 C990 1.364 . S
C992 C993 1.374 . S
C993 H984 0.930 . S
C993 C992 1.374 . S
C993 C994 1.383 . S
C994 O988 1.412 . S
C994 C993 1.383 . S
C994 C995 1.394 . S
C995 H985 0.929 . S
C995 C991 1.377 . S
C995 C994 1.394 . S
H996 C1003 0.929 . S
H997 C1006 0.930 . S
H998 C1008 0.929 . S
H999 C1000 0.969 . S
C1000 H999 0.969 . S
C1000 O1001 1.550 . S
C1000 H1002 0.973 . S
O1001 C1000 1.550 . S
O1001 C1007 1.412 . S
H1002 C1000 0.973 . S
C1003 H996 0.929 . S
C1003 C1004 1.400 . S
C1003 C1005 1.364 . S
C1004 C1003 1.400 . S
C1004 C1008 1.377 . S
C1005 C1003 1.364 . S
C1005 C1006 1.374 . S
C1006 H997 0.930 . S
C1006 C1005 1.374 . S
C1006 C1007 1.383 . S
C1007 O1001 1.412 . S
C1007 C1006 1.383 . S
C1007 C1008 1.394 . S
C1008 H998 0.929 . S
C1008 C1004 1.377 . S
C1008 C1007 1.394 . S
H1009 C1016 0.929 . S
H1010 C1019 0.930 . S
H1011 C1021 0.929 . S
H1012 C1013 0.969 . S
C1013 H1012 0.969 . S
C1013 O1014 1.550 . S
C1013 H1015 0.973 . S
O1014 C1013 1.550 . S
O1014 C1020 1.412 . S
H1015 C1013 0.973 . S
C1016 H1009 0.929 . S
C1016 C1017 1.400 . S
C1016 C1018 1.364 . S
C1017 C1016 1.400 . S
C1017 C1021 1.377 . S
C1018 C1016 1.364 . S
C1018 C1019 1.374 . S
C1019 H1010 0.930 . S
C1019 C1018 1.374 . S
C1019 C1020 1.383 . S
C1020 O1014 1.412 . S
C1020 C1019 1.383 . S
C1020 C1021 1.394 . S
C1021 H1011 0.929 . S
C1021 C1017 1.377 . S
C1021 C1020 1.394 . S
H1022 C1029 0.929 . S
H1023 C1032 0.930 . S
H1024 C1034 0.929 . S
H1025 C1026 0.969 . S
C1026 H1025 0.969 . S
C1026 O1027 1.550 . S
C1026 H1028 0.973 . S
O1027 C1026 1.550 . S
O1027 C1033 1.412 . S
H1028 C1026 0.973 . S
C1029 H1022 0.929 . S
C1029 C1030 1.400 . S
C1029 C1031 1.364 . S
C1030 C1029 1.400 . S
C1030 C1034 1.377 . S
C1031 C1029 1.364 . S
C1031 C1032 1.374 . S
C1032 H1023 0.930 . S
C1032 C1031 1.374 . S
C1032 C1033 1.383 . S
C1033 O1027 1.412 . S
C1033 C1032 1.383 . S
C1033 C1034 1.394 . S
C1034 H1024 0.929 . S
C1034 C1030 1.377 . S
C1034 C1033 1.394 . S
H1035 C1042 0.929 . S
H1036 C1045 0.930 . S
H1037 C1047 0.929 . S
H1038 C1039 0.969 . S
C1039 H1038 0.969 . S
C1039 O1040 1.550 . S
C1039 H1041 0.973 . S
O1040 C1039 1.550 . S
O1040 C1046 1.412 . S
H1041 C1039 0.973 . S
C1042 H1035 0.929 . S
C1042 C1043 1.400 . S
C1042 C1044 1.364 . S
C1043 C1042 1.400 . S
C1043 C1047 1.377 . S
C1044 C1042 1.364 . S
C1044 C1045 1.374 . S
C1045 H1036 0.930 . S
C1045 C1044 1.374 . S
C1045 C1046 1.383 . S
C1046 O1040 1.412 . S
C1046 C1045 1.383 . S
C1046 C1047 1.394 . S
C1047 H1037 0.929 . S
C1047 C1043 1.377 . S
C1047 C1046 1.394 . S
H1048 C1055 0.929 . S
H1049 C1058 0.930 . S
H1050 C1060 0.929 . S
H1051 C1052 0.969 . S
C1052 H1051 0.969 . S
C1052 O1053 1.550 . S
C1052 H1054 0.973 . S
O1053 C1052 1.550 . S
O1053 C1059 1.412 . S
H1054 C1052 0.973 . S
C1055 H1048 0.929 . S
C1055 C1056 1.400 . S
C1055 C1057 1.364 . S
C1056 C1055 1.400 . S
C1056 C1060 1.377 . S
C1057 C1055 1.364 . S
C1057 C1058 1.374 . S
C1058 H1049 0.930 . S
C1058 C1057 1.374 . S
C1058 C1059 1.383 . S
C1059 O1053 1.412 . S
C1059 C1058 1.383 . S
C1059 C1060 1.394 . S
C1060 H1050 0.929 . S
C1060 C1056 1.377 . S
C1060 C1059 1.394 . S
H1061 C1068 0.929 . S
H1062 C1071 0.930 . S
H1063 C1073 0.929 . S
H1064 C1065 0.969 . S
C1065 H1064 0.969 . S
C1065 O1066 1.550 . S
C1065 H1067 0.973 . S
O1066 C1065 1.550 . S
O1066 C1072 1.412 . S
H1067 C1065 0.973 . S
C1068 H1061 0.929 . S
C1068 C1069 1.400 . S
C1068 C1070 1.364 . S
C1069 C1068 1.400 . S
C1069 C1073 1.377 . S
C1070 C1068 1.364 . S
C1070 C1071 1.374 . S
C1071 H1062 0.930 . S
C1071 C1070 1.374 . S
C1071 C1072 1.383 . S
C1072 O1066 1.412 . S
C1072 C1071 1.383 . S
C1072 C1073 1.394 . S
C1073 H1063 0.929 . S
C1073 C1069 1.377 . S
C1073 C1072 1.394 . S
H1074 C1081 0.929 . S
H1075 C1084 0.930 . S
H1076 C1086 0.929 . S
H1077 C1078 0.969 . S
C1078 H1077 0.969 . S
C1078 O1079 1.550 . S
C1078 H1080 0.973 . S
O1079 C1078 1.550 . S
O1079 C1085 1.412 . S
H1080 C1078 0.973 . S
C1081 H1074 0.929 . S
C1081 C1082 1.400 . S
C1081 C1083 1.364 . S
C1082 C1081 1.400 . S
C1082 C1086 1.377 . S
C1083 C1081 1.364 . S
C1083 C1084 1.374 . S
C1084 H1075 0.930 . S
C1084 C1083 1.374 . S
C1084 C1085 1.383 . S
C1085 O1079 1.412 . S
C1085 C1084 1.383 . S
C1085 C1086 1.394 . S
C1086 H1076 0.929 . S
C1086 C1082 1.377 . S
C1086 C1085 1.394 . S
H1087 C1094 0.929 . S
H1088 C1097 0.930 . S
H1089 C1099 0.929 . S
H1090 C1091 0.969 . S
C1091 H1090 0.969 . S
C1091 O1092 1.550 . S
C1091 H1093 0.973 . S
O1092 C1091 1.550 . S
O1092 C1098 1.412 . S
H1093 C1091 0.973 . S
C1094 H1087 0.929 . S
C1094 C1095 1.400 . S
C1094 C1096 1.364 . S
C1095 C1094 1.400 . S
C1095 C1099 1.377 . S
C1096 C1094 1.364 . S
C1096 C1097 1.374 . S
C1097 H1088 0.930 . S
C1097 C1096 1.374 . S
C1097 C1098 1.383 . S
C1098 O1092 1.412 . S
C1098 C1097 1.383 . S
C1098 C1099 1.394 . S
C1099 H1089 0.929 . S
C1099 C1095 1.377 . S
C1099 C1098 1.394 . S
H1100 C1107 0.929 . S
H1101 C1110 0.930 . S
H1102 C1112 0.929 . S
H1103 C1104 0.969 . S
C1104 H1103 0.969 . S
C1104 O1105 1.550 . S
C1104 H1106 0.973 . S
O1105 C1104 1.550 . S
O1105 C1111 1.412 . S
H1106 C1104 0.973 . S
C1107 H1100 0.929 . S
C1107 C1108 1.400 . S
C1107 C1109 1.364 . S
C1108 C1107 1.400 . S
C1108 C1112 1.377 . S
C1109 C1107 1.364 . S
C1109 C1110 1.374 . S
C1110 H1101 0.930 . S
C1110 C1109 1.374 . S
C1110 C1111 1.383 . S
C1111 O1105 1.412 . S
C1111 C1110 1.383 . S
C1111 C1112 1.394 . S
C1112 H1102 0.929 . S
C1112 C1108 1.377 . S
C1112 C1111 1.394 . S
H1113 C1120 0.929 . S
H1114 C1123 0.930 . S
H1115 C1125 0.929 . S
H1116 C1117 0.969 . S
C1117 H1116 0.969 . S
C1117 O1118 1.550 . S
C1117 H1119 0.973 . S
O1118 C1117 1.550 . S
O1118 C1124 1.412 . S
H1119 C1117 0.973 . S
C1120 H1113 0.929 . S
C1120 C1121 1.400 . S
C1120 C1122 1.364 . S
C1121 C1120 1.400 . S
C1121 C1125 1.377 . S
C1122 C1120 1.364 . S
C1122 C1123 1.374 . S
C1123 H1114 0.930 . S
C1123 C1122 1.374 . S
C1123 C1124 1.383 . S
C1124 O1118 1.412 . S
C1124 C1123 1.383 . S
C1124 C1125 1.394 . S
C1125 H1115 0.929 . S
C1125 C1121 1.377 . S
C1125 C1124 1.394 . S
H1126 C1133 0.929 . S
H1127 C1136 0.930 . S
H1128 C1138 0.929 . S
H1129 C1130 0.969 . S
C1130 H1129 0.969 . S
C1130 O1131 1.550 . S
C1130 H1132 0.973 . S
O1131 C1130 1.550 . S
O1131 C1137 1.412 . S
H1132 C1130 0.973 . S
C1133 H1126 0.929 . S
C1133 C1134 1.400 . S
C1133 C1135 1.364 . S
C1134 C1133 1.400 . S
C1134 C1138 1.377 . S
C1135 C1133 1.364 . S
C1135 C1136 1.374 . S
C1136 H1127 0.930 . S
C1136 C1135 1.374 . S
C1136 C1137 1.383 . S
C1137 O1131 1.412 . S
C1137 C1136 1.383 . S
C1137 C1138 1.394 . S
C1138 H1128 0.929 . S
C1138 C1134 1.377 . S
C1138 C1137 1.394 . S
H1139 C1146 0.929 . S
H1140 C1149 0.930 . S
H1141 C1151 0.929 . S
H1142 C1143 0.969 . S
C1143 H1142 0.969 . S
C1143 O1144 1.550 . S
C1143 H1145 0.973 . S
O1144 C1143 1.550 . S
O1144 C1150 1.412 . S
H1145 C1143 0.973 . S
C1146 H1139 0.929 . S
C1146 C1147 1.400 . S
C1146 C1148 1.364 . S
C1147 C1146 1.400 . S
C1147 C1151 1.377 . S
C1148 C1146 1.364 . S
C1148 C1149 1.374 . S
C1149 H1140 0.930 . S
C1149 C1148 1.374 . S
C1149 C1150 1.383 . S
C1150 O1144 1.412 . S
C1150 C1149 1.383 . S
C1150 C1151 1.394 . S
C1151 H1141 0.929 . S
C1151 C1147 1.377 . S
C1151 C1150 1.394 . S
C1152 C1153 1.349 . S
C1152 C1154 1.327 . S
C1152 H1177 0.950 . S
C1153 C1152 1.349 . S
C1153 C1169 1.349 . S
C1154 C1152 1.327 . S
C1154 C1173 1.429 . S
C1154 H1178 0.950 . S
C1155 C1172 1.574 . S
C1155 C1174 1.368 . S
C1155 H1179 0.949 . S
H1156 C1160 0.949 . S
C1157 C1158 1.349 . S
C1157 C1159 1.327 . S
C1157 H1180 0.950 . S
C1158 C1157 1.349 . S
C1158 C1170 1.349 . S
C1159 C1157 1.327 . S
C1159 C1175 1.429 . S
C1159 H1181 0.950 . S
C1160 H1156 0.949 . S
C1160 C1168 1.574 . S
C1160 C1176 1.368 . S
H1161 C1169 0.950 . S
H1162 C1167 0.950 . S
H1163 C1168 0.949 . S
H1164 C1170 0.950 . S
H1165 C1171 0.950 . S
H1166 C1172 0.949 . S
C1167 H1162 0.950 . S
C1167 C1169 1.327 . S
C1167 C1173 1.429 . S
C1168 C1160 1.574 . S
C1168 H1163 0.949 . S
C1168 C1174 1.368 . S
C1169 C1153 1.349 . S
C1169 H1161 0.950 . S
C1169 C1167 1.327 . S
C1170 C1158 1.349 . S
C1170 H1164 0.950 . S
C1170 C1171 1.327 . S
C1171 H1165 0.950 . S
C1171 C1170 1.327 . S
C1171 C1175 1.429 . S
C1172 C1155 1.574 . S
C1172 H1166 0.949 . S
C1172 C1176 1.368 . S
C1173 C1154 1.429 . S
C1173 C1167 1.429 . S
C1173 C1174 1.523 . S
C1174 C1155 1.368 . S
C1174 C1168 1.368 . S
C1174 C1173 1.523 . S
C1175 C1159 1.429 . S
C1175 C1171 1.429 . S
C1175 C1176 1.523 . S
C1176 C1160 1.368 . S
C1176 C1172 1.368 . S
C1176 C1175 1.523 . S
H1177 C1152 0.950 . S
H1178 C1154 0.950 . S
H1179 C1155 0.949 . S
H1180 C1157 0.950 . S
H1181 C1159 0.950 . S
C1182 C1183 1.349 . S
C1182 C1184 1.327 . S
C1182 H1207 0.950 . S
C1183 C1182 1.349 . S
C1183 C1199 1.349 . S
C1184 C1182 1.327 . S
C1184 C1203 1.429 . S
C1184 H1208 0.950 . S
C1185 C1202 1.574 . S
C1185 C1204 1.368 . S
C1185 H1209 0.949 . S
H1186 C1190 0.949 . S
C1187 C1188 1.349 . S
C1187 C1189 1.327 . S
C1187 H1210 0.950 . S
C1188 C1187 1.349 . S
C1188 C1200 1.349 . S
C1189 C1187 1.327 . S
C1189 C1205 1.429 . S
C1189 H1211 0.950 . S
C1190 H1186 0.949 . S
C1190 C1198 1.574 . S
C1190 C1206 1.368 . S
H1191 C1199 0.950 . S
H1192 C1197 0.950 . S
H1193 C1198 0.949 . S
H1194 C1200 0.950 . S
H1195 C1201 0.950 . S
H1196 C1202 0.949 . S
C1197 H1192 0.950 . S
C1197 C1199 1.327 . S
C1197 C1203 1.429 . S
C1198 C1190 1.574 . S
C1198 H1193 0.949 . S
C1198 C1204 1.368 . S
C1199 C1183 1.349 . S
C1199 H1191 0.950 . S
C1199 C1197 1.327 . S
C1200 C1188 1.349 . S
C1200 H1194 0.950 . S
C1200 C1201 1.327 . S
C1201 H1195 0.950 . S
C1201 C1200 1.327 . S
C1201 C1205 1.429 . S
C1202 C1185 1.574 . S
C1202 H1196 0.949 . S
C1202 C1206 1.368 . S
C1203 C1184 1.429 . S
C1203 C1197 1.429 . S
C1203 C1204 1.523 . S
C1204 C1185 1.368 . S
C1204 C1198 1.368 . S
C1204 C1203 1.523 . S
C1205 C1189 1.429 . S
C1205 C1201 1.429 . S
C1205 C1206 1.523 . S
C1206 C1190 1.368 . S
C1206 C1202 1.368 . S
C1206 C1205 1.523 . S
H1207 C1182 0.950 . S
H1208 C1184 0.950 . S
H1209 C1185 0.949 . S
H1210 C1187 0.950 . S
H1211 C1189 0.950 . S
C1212 C1213 1.349 . S
C1212 C1214 1.327 . S
C1212 H1237 0.950 . S
C1213 C1212 1.349 . S
C1213 C1229 1.349 . S
C1214 C1212 1.327 . S
C1214 C1233 1.429 . S
C1214 H1238 0.950 . S
C1215 C1232 1.574 . S
C1215 C1234 1.368 . S
C1215 H1239 0.949 . S
H1216 C1220 0.949 . S
C1217 C1218 1.349 . S
C1217 C1219 1.327 . S
C1217 H1240 0.950 . S
C1218 C1217 1.349 . S
C1218 C1230 1.349 . S
C1219 C1217 1.327 . S
C1219 C1235 1.429 . S
C1219 H1241 0.950 . S
C1220 H1216 0.949 . S
C1220 C1228 1.574 . S
C1220 C1236 1.368 . S
H1221 C1229 0.950 . S
H1222 C1227 0.950 . S
H1223 C1228 0.949 . S
H1224 C1230 0.950 . S
H1225 C1231 0.950 . S
H1226 C1232 0.949 . S
C1227 H1222 0.950 . S
C1227 C1229 1.327 . S
C1227 C1233 1.429 . S
C1228 C1220 1.574 . S
C1228 H1223 0.949 . S
C1228 C1234 1.368 . S
C1229 C1213 1.349 . S
C1229 H1221 0.950 . S
C1229 C1227 1.327 . S
C1230 C1218 1.349 . S
C1230 H1224 0.950 . S
C1230 C1231 1.327 . S
C1231 H1225 0.950 . S
C1231 C1230 1.327 . S
C1231 C1235 1.429 . S
C1232 C1215 1.574 . S
C1232 H1226 0.949 . S
C1232 C1236 1.368 . S
C1233 C1214 1.429 . S
C1233 C1227 1.429 . S
C1233 C1234 1.523 . S
C1234 C1215 1.368 . S
C1234 C1228 1.368 . S
C1234 C1233 1.523 . S
C1235 C1219 1.429 . S
C1235 C1231 1.429 . S
C1235 C1236 1.523 . S
C1236 C1220 1.368 . S
C1236 C1232 1.368 . S
C1236 C1235 1.523 . S
H1237 C1212 0.950 . S
H1238 C1214 0.950 . S
H1239 C1215 0.949 . S
H1240 C1217 0.950 . S
H1241 C1219 0.950 . S
C1242 C1243 1.349 . S
C1242 C1244 1.327 . S
C1242 H1267 0.950 . S
C1243 C1242 1.349 . S
C1243 C1259 1.349 . S
C1244 C1242 1.327 . S
C1244 C1263 1.429 . S
C1244 H1268 0.950 . S
C1245 C1262 1.574 . S
C1245 C1264 1.368 . S
C1245 H1269 0.949 . S
H1246 C1250 0.949 . S
C1247 C1248 1.349 . S
C1247 C1249 1.327 . S
C1247 H1270 0.950 . S
C1248 C1247 1.349 . S
C1248 C1260 1.349 . S
C1249 C1247 1.327 . S
C1249 C1265 1.429 . S
C1249 H1271 0.950 . S
C1250 H1246 0.949 . S
C1250 C1258 1.574 . S
C1250 C1266 1.368 . S
H1251 C1259 0.950 . S
H1252 C1257 0.950 . S
H1253 C1258 0.949 . S
H1254 C1260 0.950 . S
H1255 C1261 0.950 . S
H1256 C1262 0.949 . S
C1257 H1252 0.950 . S
C1257 C1259 1.327 . S
C1257 C1263 1.429 . S
C1258 C1250 1.574 . S
C1258 H1253 0.949 . S
C1258 C1264 1.368 . S
C1259 C1243 1.349 . S
C1259 H1251 0.950 . S
C1259 C1257 1.327 . S
C1260 C1248 1.349 . S
C1260 H1254 0.950 . S
C1260 C1261 1.327 . S
C1261 H1255 0.950 . S
C1261 C1260 1.327 . S
C1261 C1265 1.429 . S
C1262 C1245 1.574 . S
C1262 H1256 0.949 . S
C1262 C1266 1.368 . S
C1263 C1244 1.429 . S
C1263 C1257 1.429 . S
C1263 C1264 1.523 . S
C1264 C1245 1.368 . S
C1264 C1258 1.368 . S
C1264 C1263 1.523 . S
C1265 C1249 1.429 . S
C1265 C1261 1.429 . S
C1265 C1266 1.523 . S
C1266 C1250 1.368 . S
C1266 C1262 1.368 . S
C1266 C1265 1.523 . S
H1267 C1242 0.950 . S
H1268 C1244 0.950 . S
H1269 C1245 0.949 . S
H1270 C1247 0.950 . S
H1271 C1249 0.950 . S
C1272 C1273 1.349 . S
C1272 C1274 1.327 . S
C1272 H1297 0.950 . S
C1273 C1272 1.349 . S
C1273 C1289 1.349 . S
C1274 C1272 1.327 . S
C1274 C1293 1.429 . S
C1274 H1298 0.950 . S
C1275 C1292 1.574 . S
C1275 C1294 1.368 . S
C1275 H1299 0.949 . S
H1276 C1280 0.949 . S
C1277 C1278 1.349 . S
C1277 C1279 1.327 . S
C1277 H1300 0.950 . S
C1278 C1277 1.349 . S
C1278 C1290 1.349 . S
C1279 C1277 1.327 . S
C1279 C1295 1.429 . S
C1279 H1301 0.950 . S
C1280 H1276 0.949 . S
C1280 C1288 1.574 . S
C1280 C1296 1.368 . S
H1281 C1289 0.950 . S
H1282 C1287 0.950 . S
H1283 C1288 0.949 . S
H1284 C1290 0.950 . S
H1285 C1291 0.950 . S
H1286 C1292 0.949 . S
C1287 H1282 0.950 . S
C1287 C1289 1.327 . S
C1287 C1293 1.429 . S
C1288 C1280 1.574 . S
C1288 H1283 0.949 . S
C1288 C1294 1.368 . S
C1289 C1273 1.349 . S
C1289 H1281 0.950 . S
C1289 C1287 1.327 . S
C1290 C1278 1.349 . S
C1290 H1284 0.950 . S
C1290 C1291 1.327 . S
C1291 H1285 0.950 . S
C1291 C1290 1.327 . S
C1291 C1295 1.429 . S
C1292 C1275 1.574 . S
C1292 H1286 0.949 . S
C1292 C1296 1.368 . S
C1293 C1274 1.429 . S
C1293 C1287 1.429 . S
C1293 C1294 1.523 . S
C1294 C1275 1.368 . S
C1294 C1288 1.368 . S
C1294 C1293 1.523 . S
C1295 C1279 1.429 . S
C1295 C1291 1.429 . S
C1295 C1296 1.523 . S
C1296 C1280 1.368 . S
C1296 C1292 1.368 . S
C1296 C1295 1.523 . S
H1297 C1272 0.950 . S
H1298 C1274 0.950 . S
H1299 C1275 0.949 . S
H1300 C1277 0.950 . S
H1301 C1279 0.950 . S
C1302 C1303 1.349 . S
C1302 C1304 1.327 . S
C1302 H1327 0.950 . S
C1303 C1302 1.349 . S
C1303 C1319 1.349 . S
C1304 C1302 1.327 . S
C1304 C1323 1.429 . S
C1304 H1328 0.950 . S
C1305 C1322 1.574 . S
C1305 C1324 1.368 . S
C1305 H1329 0.949 . S
H1306 C1310 0.949 . S
C1307 C1308 1.349 . S
C1307 C1309 1.327 . S
C1307 H1330 0.950 . S
C1308 C1307 1.349 . S
C1308 C1320 1.349 . S
C1309 C1307 1.327 . S
C1309 C1325 1.429 . S
C1309 H1331 0.950 . S
C1310 H1306 0.949 . S
C1310 C1318 1.574 . S
C1310 C1326 1.368 . S
H1311 C1319 0.950 . S
H1312 C1317 0.950 . S
H1313 C1318 0.949 . S
H1314 C1320 0.950 . S
H1315 C1321 0.950 . S
H1316 C1322 0.949 . S
C1317 H1312 0.950 . S
C1317 C1319 1.327 . S
C1317 C1323 1.429 . S
C1318 C1310 1.574 . S
C1318 H1313 0.949 . S
C1318 C1324 1.368 . S
C1319 C1303 1.349 . S
C1319 H1311 0.950 . S
C1319 C1317 1.327 . S
C1320 C1308 1.349 . S
C1320 H1314 0.950 . S
C1320 C1321 1.327 . S
C1321 H1315 0.950 . S
C1321 C1320 1.327 . S
C1321 C1325 1.429 . S
C1322 C1305 1.574 . S
C1322 H1316 0.949 . S
C1322 C1326 1.368 . S
C1323 C1304 1.429 . S
C1323 C1317 1.429 . S
C1323 C1324 1.523 . S
C1324 C1305 1.368 . S
C1324 C1318 1.368 . S
C1324 C1323 1.523 . S
C1325 C1309 1.429 . S
C1325 C1321 1.429 . S
C1325 C1326 1.523 . S
C1326 C1310 1.368 . S
C1326 C1322 1.368 . S
C1326 C1325 1.523 . S
H1327 C1302 0.950 . S
H1328 C1304 0.950 . S
H1329 C1305 0.949 . S
H1330 C1307 0.950 . S
H1331 C1309 0.950 . S
C1332 C1333 1.349 . S
C1332 C1334 1.327 . S
C1332 H1357 0.950 . S
C1333 C1332 1.349 . S
C1333 C1349 1.349 . S
C1334 C1332 1.327 . S
C1334 C1353 1.429 . S
C1334 H1358 0.950 . S
C1335 C1352 1.574 . S
C1335 C1354 1.368 . S
C1335 H1359 0.949 . S
H1336 C1340 0.949 . S
C1337 C1338 1.349 . S
C1337 C1339 1.327 . S
C1337 H1360 0.950 . S
C1338 C1337 1.349 . S
C1338 C1350 1.349 . S
C1339 C1337 1.327 . S
C1339 C1355 1.429 . S
C1339 H1361 0.950 . S
C1340 H1336 0.949 . S
C1340 C1348 1.574 . S
C1340 C1356 1.368 . S
H1341 C1349 0.950 . S
H1342 C1347 0.950 . S
H1343 C1348 0.949 . S
H1344 C1350 0.950 . S
H1345 C1351 0.950 . S
H1346 C1352 0.949 . S
C1347 H1342 0.950 . S
C1347 C1349 1.327 . S
C1347 C1353 1.429 . S
C1348 C1340 1.574 . S
C1348 H1343 0.949 . S
C1348 C1354 1.368 . S
C1349 C1333 1.349 . S
C1349 H1341 0.950 . S
C1349 C1347 1.327 . S
C1350 C1338 1.349 . S
C1350 H1344 0.950 . S
C1350 C1351 1.327 . S
C1351 H1345 0.950 . S
C1351 C1350 1.327 . S
C1351 C1355 1.429 . S
C1352 C1335 1.574 . S
C1352 H1346 0.949 . S
C1352 C1356 1.368 . S
C1353 C1334 1.429 . S
C1353 C1347 1.429 . S
C1353 C1354 1.523 . S
C1354 C1335 1.368 . S
C1354 C1348 1.368 . S
C1354 C1353 1.523 . S
C1355 C1339 1.429 . S
C1355 C1351 1.429 . S
C1355 C1356 1.523 . S
C1356 C1340 1.368 . S
C1356 C1352 1.368 . S
C1356 C1355 1.523 . S
H1357 C1332 0.950 . S
H1358 C1334 0.950 . S
H1359 C1335 0.949 . S
H1360 C1337 0.950 . S
H1361 C1339 0.950 . S
C1362 C1363 1.349 . S
C1362 C1364 1.327 . S
C1362 H1387 0.950 . S
C1363 C1362 1.349 . S
C1363 C1379 1.349 . S
C1364 C1362 1.327 . S
C1364 C1383 1.429 . S
C1364 H1388 0.950 . S
C1365 C1382 1.574 . S
C1365 C1384 1.368 . S
C1365 H1389 0.949 . S
H1366 C1370 0.949 . S
C1367 C1368 1.349 . S
C1367 C1369 1.327 . S
C1367 H1390 0.950 . S
C1368 C1367 1.349 . S
C1368 C1380 1.349 . S
C1369 C1367 1.327 . S
C1369 C1385 1.429 . S
C1369 H1391 0.950 . S
C1370 H1366 0.949 . S
C1370 C1378 1.574 . S
C1370 C1386 1.368 . S
H1371 C1379 0.950 . S
H1372 C1377 0.950 . S
H1373 C1378 0.949 . S
H1374 C1380 0.950 . S
H1375 C1381 0.950 . S
H1376 C1382 0.949 . S
C1377 H1372 0.950 . S
C1377 C1379 1.327 . S
C1377 C1383 1.429 . S
C1378 C1370 1.574 . S
C1378 H1373 0.949 . S
C1378 C1384 1.368 . S
C1379 C1363 1.349 . S
C1379 H1371 0.950 . S
C1379 C1377 1.327 . S
C1380 C1368 1.349 . S
C1380 H1374 0.950 . S
C1380 C1381 1.327 . S
C1381 H1375 0.950 . S
C1381 C1380 1.327 . S
C1381 C1385 1.429 . S
C1382 C1365 1.574 . S
C1382 H1376 0.949 . S
C1382 C1386 1.368 . S
C1383 C1364 1.429 . S
C1383 C1377 1.429 . S
C1383 C1384 1.523 . S
C1384 C1365 1.368 . S
C1384 C1378 1.368 . S
C1384 C1383 1.523 . S
C1385 C1369 1.429 . S
C1385 C1381 1.429 . S
C1385 C1386 1.523 . S
C1386 C1370 1.368 . S
C1386 C1382 1.368 . S
C1386 C1385 1.523 . S
H1387 C1362 0.950 . S
H1388 C1364 0.950 . S
H1389 C1365 0.949 . S
H1390 C1367 0.950 . S
H1391 C1369 0.950 . S
C1392 C1393 1.349 . S
C1392 C1394 1.327 . S
C1392 H1417 0.950 . S
C1393 C1392 1.349 . S
C1393 C1409 1.349 . S
C1394 C1392 1.327 . S
C1394 C1413 1.429 . S
C1394 H1418 0.950 . S
C1395 C1412 1.574 . S
C1395 C1414 1.368 . S
C1395 H1419 0.949 . S
H1396 C1400 0.949 . S
C1397 C1398 1.349 . S
C1397 C1399 1.327 . S
C1397 H1420 0.950 . S
C1398 C1397 1.349 . S
C1398 C1410 1.349 . S
C1399 C1397 1.327 . S
C1399 C1415 1.429 . S
C1399 H1421 0.950 . S
C1400 H1396 0.949 . S
C1400 C1408 1.574 . S
C1400 C1416 1.368 . S
H1401 C1409 0.950 . S
H1402 C1407 0.950 . S
H1403 C1408 0.949 . S
H1404 C1410 0.950 . S
H1405 C1411 0.950 . S
H1406 C1412 0.949 . S
C1407 H1402 0.950 . S
C1407 C1409 1.327 . S
C1407 C1413 1.429 . S
C1408 C1400 1.574 . S
C1408 H1403 0.949 . S
C1408 C1414 1.368 . S
C1409 C1393 1.349 . S
C1409 H1401 0.950 . S
C1409 C1407 1.327 . S
C1410 C1398 1.349 . S
C1410 H1404 0.950 . S
C1410 C1411 1.327 . S
C1411 H1405 0.950 . S
C1411 C1410 1.327 . S
C1411 C1415 1.429 . S
C1412 C1395 1.574 . S
C1412 H1406 0.949 . S
C1412 C1416 1.368 . S
C1413 C1394 1.429 . S
C1413 C1407 1.429 . S
C1413 C1414 1.523 . S
C1414 C1395 1.368 . S
C1414 C1408 1.368 . S
C1414 C1413 1.523 . S
C1415 C1399 1.429 . S
C1415 C1411 1.429 . S
C1415 C1416 1.523 . S
C1416 C1400 1.368 . S
C1416 C1412 1.368 . S
C1416 C1415 1.523 . S
H1417 C1392 0.950 . S
H1418 C1394 0.950 . S
H1419 C1395 0.949 . S
H1420 C1397 0.950 . S
H1421 C1399 0.950 . S
C1422 C1423 1.349 . S
C1422 C1424 1.327 . S
C1422 H1447 0.950 . S
C1423 C1422 1.349 . S
C1423 C1439 1.349 . S
C1424 C1422 1.327 . S
C1424 C1443 1.429 . S
C1424 H1448 0.950 . S
C1425 C1442 1.574 . S
C1425 C1444 1.368 . S
C1425 H1449 0.949 . S
H1426 C1430 0.949 . S
C1427 C1428 1.349 . S
C1427 C1429 1.327 . S
C1427 H1450 0.950 . S
C1428 C1427 1.349 . S
C1428 C1440 1.349 . S
C1429 C1427 1.327 . S
C1429 C1445 1.429 . S
C1429 H1451 0.950 . S
C1430 H1426 0.949 . S
C1430 C1438 1.574 . S
C1430 C1446 1.368 . S
H1431 C1439 0.950 . S
H1432 C1437 0.950 . S
H1433 C1438 0.949 . S
H1434 C1440 0.950 . S
H1435 C1441 0.950 . S
H1436 C1442 0.949 . S
C1437 H1432 0.950 . S
C1437 C1439 1.327 . S
C1437 C1443 1.429 . S
C1438 C1430 1.574 . S
C1438 H1433 0.949 . S
C1438 C1444 1.368 . S
C1439 C1423 1.349 . S
C1439 H1431 0.950 . S
C1439 C1437 1.327 . S
C1440 C1428 1.349 . S
C1440 H1434 0.950 . S
C1440 C1441 1.327 . S
C1441 H1435 0.950 . S
C1441 C1440 1.327 . S
C1441 C1445 1.429 . S
C1442 C1425 1.574 . S
C1442 H1436 0.949 . S
C1442 C1446 1.368 . S
C1443 C1424 1.429 . S
C1443 C1437 1.429 . S
C1443 C1444 1.523 . S
C1444 C1425 1.368 . S
C1444 C1438 1.368 . S
C1444 C1443 1.523 . S
C1445 C1429 1.429 . S
C1445 C1441 1.429 . S
C1445 C1446 1.523 . S
C1446 C1430 1.368 . S
C1446 C1442 1.368 . S
C1446 C1445 1.523 . S
H1447 C1422 0.950 . S
H1448 C1424 0.950 . S
H1449 C1425 0.949 . S
H1450 C1427 0.950 . S
H1451 C1429 0.950 . S
C1452 C1453 1.349 . S
C1452 C1454 1.327 . S
C1452 H1477 0.950 . S
C1453 C1452 1.349 . S
C1453 C1469 1.349 . S
C1454 C1452 1.327 . S
C1454 C1473 1.429 . S
C1454 H1478 0.950 . S
C1455 C1472 1.574 . S
C1455 C1474 1.368 . S
C1455 H1479 0.949 . S
H1456 C1460 0.949 . S
C1457 C1458 1.349 . S
C1457 C1459 1.327 . S
C1457 H1480 0.950 . S
C1458 C1457 1.349 . S
C1458 C1470 1.349 . S
C1459 C1457 1.327 . S
C1459 C1475 1.429 . S
C1459 H1481 0.950 . S
C1460 H1456 0.949 . S
C1460 C1468 1.574 . S
C1460 C1476 1.368 . S
H1461 C1469 0.950 . S
H1462 C1467 0.950 . S
H1463 C1468 0.949 . S
H1464 C1470 0.950 . S
H1465 C1471 0.950 . S
H1466 C1472 0.949 . S
C1467 H1462 0.950 . S
C1467 C1469 1.327 . S
C1467 C1473 1.429 . S
C1468 C1460 1.574 . S
C1468 H1463 0.949 . S
C1468 C1474 1.368 . S
C1469 C1453 1.349 . S
C1469 H1461 0.950 . S
C1469 C1467 1.327 . S
C1470 C1458 1.349 . S
C1470 H1464 0.950 . S
C1470 C1471 1.327 . S
C1471 H1465 0.950 . S
C1471 C1470 1.327 . S
C1471 C1475 1.429 . S
C1472 C1455 1.574 . S
C1472 H1466 0.949 . S
C1472 C1476 1.368 . S
C1473 C1454 1.429 . S
C1473 C1467 1.429 . S
C1473 C1474 1.523 . S
C1474 C1455 1.368 . S
C1474 C1468 1.368 . S
C1474 C1473 1.523 . S
C1475 C1459 1.429 . S
C1475 C1471 1.429 . S
C1475 C1476 1.523 . S
C1476 C1460 1.368 . S
C1476 C1472 1.368 . S
C1476 C1475 1.523 . S
H1477 C1452 0.950 . S
H1478 C1454 0.950 . S
H1479 C1455 0.949 . S
H1480 C1457 0.950 . S
H1481 C1459 0.950 . S
C1482 C1483 1.349 . S
C1482 C1484 1.327 . S
C1482 H1507 0.950 . S
C1483 C1482 1.349 . S
C1483 C1499 1.349 . S
C1484 C1482 1.327 . S
C1484 C1503 1.429 . S
C1484 H1508 0.950 . S
C1485 C1502 1.574 . S
C1485 C1504 1.368 . S
C1485 H1509 0.949 . S
H1486 C1490 0.949 . S
C1487 C1488 1.349 . S
C1487 C1489 1.327 . S
C1487 H1510 0.950 . S
C1488 C1487 1.349 . S
C1488 C1500 1.349 . S
C1489 C1487 1.327 . S
C1489 C1505 1.429 . S
C1489 H1511 0.950 . S
C1490 H1486 0.949 . S
C1490 C1498 1.574 . S
C1490 C1506 1.368 . S
H1491 C1499 0.950 . S
H1492 C1497 0.950 . S
H1493 C1498 0.949 . S
H1494 C1500 0.950 . S
H1495 C1501 0.950 . S
H1496 C1502 0.949 . S
C1497 H1492 0.950 . S
C1497 C1499 1.327 . S
C1497 C1503 1.429 . S
C1498 C1490 1.574 . S
C1498 H1493 0.949 . S
C1498 C1504 1.368 . S
C1499 C1483 1.349 . S
C1499 H1491 0.950 . S
C1499 C1497 1.327 . S
C1500 C1488 1.349 . S
C1500 H1494 0.950 . S
C1500 C1501 1.327 . S
C1501 H1495 0.950 . S
C1501 C1500 1.327 . S
C1501 C1505 1.429 . S
C1502 C1485 1.574 . S
C1502 H1496 0.949 . S
C1502 C1506 1.368 . S
C1503 C1484 1.429 . S
C1503 C1497 1.429 . S
C1503 C1504 1.523 . S
C1504 C1485 1.368 . S
C1504 C1498 1.368 . S
C1504 C1503 1.523 . S
C1505 C1489 1.429 . S
C1505 C1501 1.429 . S
C1505 C1506 1.523 . S
C1506 C1490 1.368 . S
C1506 C1502 1.368 . S
C1506 C1505 1.523 . S
H1507 C1482 0.950 . S
H1508 C1484 0.950 . S
H1509 C1485 0.949 . S
H1510 C1487 0.950 . S
H1511 C1489 0.950 . S
C1512 C1513 1.349 . S
C1512 C1514 1.327 . S
C1512 H1537 0.950 . S
C1513 C1512 1.349 . S
C1513 C1529 1.349 . S
C1514 C1512 1.327 . S
C1514 C1533 1.429 . S
C1514 H1538 0.950 . S
C1515 C1532 1.574 . S
C1515 C1534 1.368 . S
C1515 H1539 0.949 . S
H1516 C1520 0.949 . S
C1517 C1518 1.349 . S
C1517 C1519 1.327 . S
C1517 H1540 0.950 . S
C1518 C1517 1.349 . S
C1518 C1530 1.349 . S
C1519 C1517 1.327 . S
C1519 C1535 1.429 . S
C1519 H1541 0.950 . S
C1520 H1516 0.949 . S
C1520 C1528 1.574 . S
C1520 C1536 1.368 . S
H1521 C1529 0.950 . S
H1522 C1527 0.950 . S
H1523 C1528 0.949 . S
H1524 C1530 0.950 . S
H1525 C1531 0.950 . S
H1526 C1532 0.949 . S
C1527 H1522 0.950 . S
C1527 C1529 1.327 . S
C1527 C1533 1.429 . S
C1528 C1520 1.574 . S
C1528 H1523 0.949 . S
C1528 C1534 1.368 . S
C1529 C1513 1.349 . S
C1529 H1521 0.950 . S
C1529 C1527 1.327 . S
C1530 C1518 1.349 . S
C1530 H1524 0.950 . S
C1530 C1531 1.327 . S
C1531 H1525 0.950 . S
C1531 C1530 1.327 . S
C1531 C1535 1.429 . S
C1532 C1515 1.574 . S
C1532 H1526 0.949 . S
C1532 C1536 1.368 . S
C1533 C1514 1.429 . S
C1533 C1527 1.429 . S
C1533 C1534 1.523 . S
C1534 C1515 1.368 . S
C1534 C1528 1.368 . S
C1534 C1533 1.523 . S
C1535 C1519 1.429 . S
C1535 C1531 1.429 . S
C1535 C1536 1.523 . S
C1536 C1520 1.368 . S
C1536 C1532 1.368 . S
C1536 C1535 1.523 . S
H1537 C1512 0.950 . S
H1538 C1514 0.950 . S
H1539 C1515 0.949 . S
H1540 C1517 0.950 . S
H1541 C1519 0.950 . S
C1542 C1543 1.349 . S
C1542 C1544 1.327 . S
C1542 H1567 0.950 . S
C1543 C1542 1.349 . S
C1543 C1559 1.349 . S
C1544 C1542 1.327 . S
C1544 C1563 1.429 . S
C1544 H1568 0.950 . S
C1545 C1562 1.574 . S
C1545 C1564 1.368 . S
C1545 H1569 0.949 . S
H1546 C1550 0.949 . S
C1547 C1548 1.349 . S
C1547 C1549 1.327 . S
C1547 H1570 0.950 . S
C1548 C1547 1.349 . S
C1548 C1560 1.349 . S
C1549 C1547 1.327 . S
C1549 C1565 1.429 . S
C1549 H1571 0.950 . S
C1550 H1546 0.949 . S
C1550 C1558 1.574 . S
C1550 C1566 1.368 . S
H1551 C1559 0.950 . S
H1552 C1557 0.950 . S
H1553 C1558 0.949 . S
H1554 C1560 0.950 . S
H1555 C1561 0.950 . S
H1556 C1562 0.949 . S
C1557 H1552 0.950 . S
C1557 C1559 1.327 . S
C1557 C1563 1.429 . S
C1558 C1550 1.574 . S
C1558 H1553 0.949 . S
C1558 C1564 1.368 . S
C1559 C1543 1.349 . S
C1559 H1551 0.950 . S
C1559 C1557 1.327 . S
C1560 C1548 1.349 . S
C1560 H1554 0.950 . S
C1560 C1561 1.327 . S
C1561 H1555 0.950 . S
C1561 C1560 1.327 . S
C1561 C1565 1.429 . S
C1562 C1545 1.574 . S
C1562 H1556 0.949 . S
C1562 C1566 1.368 . S
C1563 C1544 1.429 . S
C1563 C1557 1.429 . S
C1563 C1564 1.523 . S
C1564 C1545 1.368 . S
C1564 C1558 1.368 . S
C1564 C1563 1.523 . S
C1565 C1549 1.429 . S
C1565 C1561 1.429 . S
C1565 C1566 1.523 . S
C1566 C1550 1.368 . S
C1566 C1562 1.368 . S
C1566 C1565 1.523 . S
H1567 C1542 0.950 . S
H1568 C1544 0.950 . S
H1569 C1545 0.949 . S
H1570 C1547 0.950 . S
H1571 C1549 0.950 . S
C1572 C1573 1.349 . S
C1572 C1574 1.327 . S
C1572 H1597 0.950 . S
C1573 C1572 1.349 . S
C1573 C1589 1.349 . S
C1574 C1572 1.327 . S
C1574 C1593 1.429 . S
C1574 H1598 0.950 . S
C1575 C1592 1.574 . S
C1575 C1594 1.368 . S
C1575 H1599 0.949 . S
H1576 C1580 0.949 . S
C1577 C1578 1.349 . S
C1577 C1579 1.327 . S
C1577 H1600 0.950 . S
C1578 C1577 1.349 . S
C1578 C1590 1.349 . S
C1579 C1577 1.327 . S
C1579 C1595 1.429 . S
C1579 H1601 0.950 . S
C1580 H1576 0.949 . S
C1580 C1588 1.574 . S
C1580 C1596 1.368 . S
H1581 C1589 0.950 . S
H1582 C1587 0.950 . S
H1583 C1588 0.949 . S
H1584 C1590 0.950 . S
H1585 C1591 0.950 . S
H1586 C1592 0.949 . S
C1587 H1582 0.950 . S
C1587 C1589 1.327 . S
C1587 C1593 1.429 . S
C1588 C1580 1.574 . S
C1588 H1583 0.949 . S
C1588 C1594 1.368 . S
C1589 C1573 1.349 . S
C1589 H1581 0.950 . S
C1589 C1587 1.327 . S
C1590 C1578 1.349 . S
C1590 H1584 0.950 . S
C1590 C1591 1.327 . S
C1591 H1585 0.950 . S
C1591 C1590 1.327 . S
C1591 C1595 1.429 . S
C1592 C1575 1.574 . S
C1592 H1586 0.949 . S
C1592 C1596 1.368 . S
C1593 C1574 1.429 . S
C1593 C1587 1.429 . S
C1593 C1594 1.523 . S
C1594 C1575 1.368 . S
C1594 C1588 1.368 . S
C1594 C1593 1.523 . S
C1595 C1579 1.429 . S
C1595 C1591 1.429 . S
C1595 C1596 1.523 . S
C1596 C1580 1.368 . S
C1596 C1592 1.368 . S
C1596 C1595 1.523 . S
H1597 C1572 0.950 . S
H1598 C1574 0.950 . S
H1599 C1575 0.949 . S
H1600 C1577 0.950 . S
H1601 C1579 0.950 . S
C1602 C1603 1.349 . S
C1602 C1604 1.327 . S
C1602 H1627 0.950 . S
C1603 C1602 1.349 . S
C1603 C1619 1.349 . S
C1604 C1602 1.327 . S
C1604 C1623 1.429 . S
C1604 H1628 0.950 . S
C1605 C1622 1.574 . S
C1605 C1624 1.368 . S
C1605 H1629 0.949 . S
H1606 C1610 0.949 . S
C1607 C1608 1.349 . S
C1607 C1609 1.327 . S
C1607 H1630 0.950 . S
C1608 C1607 1.349 . S
C1608 C1620 1.349 . S
C1609 C1607 1.327 . S
C1609 C1625 1.429 . S
C1609 H1631 0.950 . S
C1610 H1606 0.949 . S
C1610 C1618 1.574 . S
C1610 C1626 1.368 . S
H1611 C1619 0.950 . S
H1612 C1617 0.950 . S
H1613 C1618 0.949 . S
H1614 C1620 0.950 . S
H1615 C1621 0.950 . S
H1616 C1622 0.949 . S
C1617 H1612 0.950 . S
C1617 C1619 1.327 . S
C1617 C1623 1.429 . S
C1618 C1610 1.574 . S
C1618 H1613 0.949 . S
C1618 C1624 1.368 . S
C1619 C1603 1.349 . S
C1619 H1611 0.950 . S
C1619 C1617 1.327 . S
C1620 C1608 1.349 . S
C1620 H1614 0.950 . S
C1620 C1621 1.327 . S
C1621 H1615 0.950 . S
C1621 C1620 1.327 . S
C1621 C1625 1.429 . S
C1622 C1605 1.574 . S
C1622 H1616 0.949 . S
C1622 C1626 1.368 . S
C1623 C1604 1.429 . S
C1623 C1617 1.429 . S
C1623 C1624 1.523 . S
C1624 C1605 1.368 . S
C1624 C1618 1.368 . S
C1624 C1623 1.523 . S
C1625 C1609 1.429 . S
C1625 C1621 1.429 . S
C1625 C1626 1.523 . S
C1626 C1610 1.368 . S
C1626 C1622 1.368 . S
C1626 C1625 1.523 . S
H1627 C1602 0.950 . S
H1628 C1604 0.950 . S
H1629 C1605 0.949 . S
H1630 C1607 0.950 . S
H1631 C1609 0.950 . S
C1632 C1633 1.349 . S
C1632 C1634 1.327 . S
C1632 H1657 0.950 . S
C1633 C1632 1.349 . S
C1633 C1649 1.349 . S
C1634 C1632 1.327 . S
C1634 C1653 1.429 . S
C1634 H1658 0.950 . S
C1635 C1652 1.574 . S
C1635 C1654 1.368 . S
C1635 H1659 0.949 . S
H1636 C1640 0.949 . S
C1637 C1638 1.349 . S
C1637 C1639 1.327 . S
C1637 H1660 0.950 . S
C1638 C1637 1.349 . S
C1638 C1650 1.349 . S
C1639 C1637 1.327 . S
C1639 C1655 1.429 . S
C1639 H1661 0.950 . S
C1640 H1636 0.949 . S
C1640 C1648 1.574 . S
C1640 C1656 1.368 . S
H1641 C1649 0.950 . S
H1642 C1647 0.950 . S
H1643 C1648 0.949 . S
H1644 C1650 0.950 . S
H1645 C1651 0.950 . S
H1646 C1652 0.949 . S
C1647 H1642 0.950 . S
C1647 C1649 1.327 . S
C1647 C1653 1.429 . S
C1648 C1640 1.574 . S
C1648 H1643 0.949 . S
C1648 C1654 1.368 . S
C1649 C1633 1.349 . S
C1649 H1641 0.950 . S
C1649 C1647 1.327 . S
C1650 C1638 1.349 . S
C1650 H1644 0.950 . S
C1650 C1651 1.327 . S
C1651 H1645 0.950 . S
C1651 C1650 1.327 . S
C1651 C1655 1.429 . S
C1652 C1635 1.574 . S
C1652 H1646 0.949 . S
C1652 C1656 1.368 . S
C1653 C1634 1.429 . S
C1653 C1647 1.429 . S
C1653 C1654 1.523 . S
C1654 C1635 1.368 . S
C1654 C1648 1.368 . S
C1654 C1653 1.523 . S
C1655 C1639 1.429 . S
C1655 C1651 1.429 . S
C1655 C1656 1.523 . S
C1656 C1640 1.368 . S
C1656 C1652 1.368 . S
C1656 C1655 1.523 . S
H1657 C1632 0.950 . S
H1658 C1634 0.950 . S
H1659 C1635 0.949 . S
H1660 C1637 0.950 . S
H1661 C1639 0.950 . S
C1662 C1663 1.349 . S
C1662 C1664 1.327 . S
C1662 H1687 0.950 . S
C1663 C1662 1.349 . S
C1663 C1679 1.349 . S
C1664 C1662 1.327 . S
C1664 C1683 1.429 . S
C1664 H1688 0.950 . S
C1665 C1682 1.574 . S
C1665 C1684 1.368 . S
C1665 H1689 0.949 . S
H1666 C1670 0.949 . S
C1667 C1668 1.349 . S
C1667 C1669 1.327 . S
C1667 H1690 0.950 . S
C1668 C1667 1.349 . S
C1668 C1680 1.349 . S
C1669 C1667 1.327 . S
C1669 C1685 1.429 . S
C1669 H1691 0.950 . S
C1670 H1666 0.949 . S
C1670 C1678 1.574 . S
C1670 C1686 1.368 . S
H1671 C1679 0.950 . S
H1672 C1677 0.950 . S
H1673 C1678 0.949 . S
H1674 C1680 0.950 . S
H1675 C1681 0.950 . S
H1676 C1682 0.949 . S
C1677 H1672 0.950 . S
C1677 C1679 1.327 . S
C1677 C1683 1.429 . S
C1678 C1670 1.574 . S
C1678 H1673 0.949 . S
C1678 C1684 1.368 . S
C1679 C1663 1.349 . S
C1679 H1671 0.950 . S
C1679 C1677 1.327 . S
C1680 C1668 1.349 . S
C1680 H1674 0.950 . S
C1680 C1681 1.327 . S
C1681 H1675 0.950 . S
C1681 C1680 1.327 . S
C1681 C1685 1.429 . S
C1682 C1665 1.574 . S
C1682 H1676 0.949 . S
C1682 C1686 1.368 . S
C1683 C1664 1.429 . S
C1683 C1677 1.429 . S
C1683 C1684 1.523 . S
C1684 C1665 1.368 . S
C1684 C1678 1.368 . S
C1684 C1683 1.523 . S
C1685 C1669 1.429 . S
C1685 C1681 1.429 . S
C1685 C1686 1.523 . S
C1686 C1670 1.368 . S
C1686 C1682 1.368 . S
C1686 C1685 1.523 . S
H1687 C1662 0.950 . S
H1688 C1664 0.950 . S
H1689 C1665 0.949 . S
H1690 C1667 0.950 . S
H1691 C1669 0.950 . S
C1692 C1693 1.349 . S
C1692 C1694 1.327 . S
C1692 H1717 0.950 . S
C1693 C1692 1.349 . S
C1693 C1709 1.349 . S
C1694 C1692 1.327 . S
C1694 C1713 1.429 . S
C1694 H1718 0.950 . S
C1695 C1712 1.574 . S
C1695 C1714 1.368 . S
C1695 H1719 0.949 . S
H1696 C1700 0.949 . S
C1697 C1698 1.349 . S
C1697 C1699 1.327 . S
C1697 H1720 0.950 . S
C1698 C1697 1.349 . S
C1698 C1710 1.349 . S
C1699 C1697 1.327 . S
C1699 C1715 1.429 . S
C1699 H1721 0.950 . S
C1700 H1696 0.949 . S
C1700 C1708 1.574 . S
C1700 C1716 1.368 . S
H1701 C1709 0.950 . S
H1702 C1707 0.950 . S
H1703 C1708 0.949 . S
H1704 C1710 0.950 . S
H1705 C1711 0.950 . S
H1706 C1712 0.949 . S
C1707 H1702 0.950 . S
C1707 C1709 1.327 . S
C1707 C1713 1.429 . S
C1708 C1700 1.574 . S
C1708 H1703 0.949 . S
C1708 C1714 1.368 . S
C1709 C1693 1.349 . S
C1709 H1701 0.950 . S
C1709 C1707 1.327 . S
C1710 C1698 1.349 . S
C1710 H1704 0.950 . S
C1710 C1711 1.327 . S
C1711 H1705 0.950 . S
C1711 C1710 1.327 . S
C1711 C1715 1.429 . S
C1712 C1695 1.574 . S
C1712 H1706 0.949 . S
C1712 C1716 1.368 . S
C1713 C1694 1.429 . S
C1713 C1707 1.429 . S
C1713 C1714 1.523 . S
C1714 C1695 1.368 . S
C1714 C1708 1.368 . S
C1714 C1713 1.523 . S
C1715 C1699 1.429 . S
C1715 C1711 1.429 . S
C1715 C1716 1.523 . S
C1716 C1700 1.368 . S
C1716 C1712 1.368 . S
C1716 C1715 1.523 . S
H1717 C1692 0.950 . S
H1718 C1694 0.950 . S
H1719 C1695 0.949 . S
H1720 C1697 0.950 . S
H1721 C1699 0.950 . S
C1722 C1723 1.349 . S
C1722 C1724 1.327 . S
C1722 H1747 0.950 . S
C1723 C1722 1.349 . S
C1723 C1739 1.349 . S
C1724 C1722 1.327 . S
C1724 C1743 1.429 . S
C1724 H1748 0.950 . S
C1725 C1742 1.574 . S
C1725 C1744 1.368 . S
C1725 H1749 0.949 . S
H1726 C1730 0.949 . S
C1727 C1728 1.349 . S
C1727 C1729 1.327 . S
C1727 H1750 0.950 . S
C1728 C1727 1.349 . S
C1728 C1740 1.349 . S
C1729 C1727 1.327 . S
C1729 C1745 1.429 . S
C1729 H1751 0.950 . S
C1730 H1726 0.949 . S
C1730 C1738 1.574 . S
C1730 C1746 1.368 . S
H1731 C1739 0.950 . S
H1732 C1737 0.950 . S
H1733 C1738 0.949 . S
H1734 C1740 0.950 . S
H1735 C1741 0.950 . S
H1736 C1742 0.949 . S
C1737 H1732 0.950 . S
C1737 C1739 1.327 . S
C1737 C1743 1.429 . S
C1738 C1730 1.574 . S
C1738 H1733 0.949 . S
C1738 C1744 1.368 . S
C1739 C1723 1.349 . S
C1739 H1731 0.950 . S
C1739 C1737 1.327 . S
C1740 C1728 1.349 . S
C1740 H1734 0.950 . S
C1740 C1741 1.327 . S
C1741 H1735 0.950 . S
C1741 C1740 1.327 . S
C1741 C1745 1.429 . S
C1742 C1725 1.574 . S
C1742 H1736 0.949 . S
C1742 C1746 1.368 . S
C1743 C1724 1.429 . S
C1743 C1737 1.429 . S
C1743 C1744 1.523 . S
C1744 C1725 1.368 . S
C1744 C1738 1.368 . S
C1744 C1743 1.523 . S
C1745 C1729 1.429 . S
C1745 C1741 1.429 . S
C1745 C1746 1.523 . S
C1746 C1730 1.368 . S
C1746 C1742 1.368 . S
C1746 C1745 1.523 . S
H1747 C1722 0.950 . S
H1748 C1724 0.950 . S
H1749 C1725 0.949 . S
H1750 C1727 0.950 . S
H1751 C1729 0.950 . S
C1752 C1753 1.349 . S
C1752 C1754 1.327 . S
C1752 H1777 0.950 . S
C1753 C1752 1.349 . S
C1753 C1769 1.349 . S
C1754 C1752 1.327 . S
C1754 C1773 1.429 . S
C1754 H1778 0.950 . S
C1755 C1772 1.574 . S
C1755 C1774 1.368 . S
C1755 H1779 0.949 . S
H1756 C1760 0.949 . S
C1757 C1758 1.349 . S
C1757 C1759 1.327 . S
C1757 H1780 0.950 . S
C1758 C1757 1.349 . S
C1758 C1770 1.349 . S
C1759 C1757 1.327 . S
C1759 C1775 1.429 . S
C1759 H1781 0.950 . S
C1760 H1756 0.949 . S
C1760 C1768 1.574 . S
C1760 C1776 1.368 . S
H1761 C1769 0.950 . S
H1762 C1767 0.950 . S
H1763 C1768 0.949 . S
H1764 C1770 0.950 . S
H1765 C1771 0.950 . S
H1766 C1772 0.949 . S
C1767 H1762 0.950 . S
C1767 C1769 1.327 . S
C1767 C1773 1.429 . S
C1768 C1760 1.574 . S
C1768 H1763 0.949 . S
C1768 C1774 1.368 . S
C1769 C1753 1.349 . S
C1769 H1761 0.950 . S
C1769 C1767 1.327 . S
C1770 C1758 1.349 . S
C1770 H1764 0.950 . S
C1770 C1771 1.327 . S
C1771 H1765 0.950 . S
C1771 C1770 1.327 . S
C1771 C1775 1.429 . S
C1772 C1755 1.574 . S
C1772 H1766 0.949 . S
C1772 C1776 1.368 . S
C1773 C1754 1.429 . S
C1773 C1767 1.429 . S
C1773 C1774 1.523 . S
C1774 C1755 1.368 . S
C1774 C1768 1.368 . S
C1774 C1773 1.523 . S
C1775 C1759 1.429 . S
C1775 C1771 1.429 . S
C1775 C1776 1.523 . S
C1776 C1760 1.368 . S
C1776 C1772 1.368 . S
C1776 C1775 1.523 . S
H1777 C1752 0.950 . S
H1778 C1754 0.950 . S
H1779 C1755 0.949 . S
H1780 C1757 0.950 . S
H1781 C1759 0.950 . S
C1782 C1783 1.349 . S
C1782 C1784 1.327 . S
C1782 H1807 0.950 . S
C1783 C1782 1.349 . S
C1783 C1799 1.349 . S
C1784 C1782 1.327 . S
C1784 C1803 1.429 . S
C1784 H1808 0.950 . S
C1785 C1802 1.574 . S
C1785 C1804 1.368 . S
C1785 H1809 0.949 . S
H1786 C1790 0.949 . S
C1787 C1788 1.349 . S
C1787 C1789 1.327 . S
C1787 H1810 0.950 . S
C1788 C1787 1.349 . S
C1788 C1800 1.349 . S
C1789 C1787 1.327 . S
C1789 C1805 1.429 . S
C1789 H1811 0.950 . S
C1790 H1786 0.949 . S
C1790 C1798 1.574 . S
C1790 C1806 1.368 . S
H1791 C1799 0.950 . S
H1792 C1797 0.950 . S
H1793 C1798 0.949 . S
H1794 C1800 0.950 . S
H1795 C1801 0.950 . S
H1796 C1802 0.949 . S
C1797 H1792 0.950 . S
C1797 C1799 1.327 . S
C1797 C1803 1.429 . S
C1798 C1790 1.574 . S
C1798 H1793 0.949 . S
C1798 C1804 1.368 . S
C1799 C1783 1.349 . S
C1799 H1791 0.950 . S
C1799 C1797 1.327 . S
C1800 C1788 1.349 . S
C1800 H1794 0.950 . S
C1800 C1801 1.327 . S
C1801 H1795 0.950 . S
C1801 C1800 1.327 . S
C1801 C1805 1.429 . S
C1802 C1785 1.574 . S
C1802 H1796 0.949 . S
C1802 C1806 1.368 . S
C1803 C1784 1.429 . S
C1803 C1797 1.429 . S
C1803 C1804 1.523 . S
C1804 C1785 1.368 . S
C1804 C1798 1.368 . S
C1804 C1803 1.523 . S
C1805 C1789 1.429 . S
C1805 C1801 1.429 . S
C1805 C1806 1.523 . S
C1806 C1790 1.368 . S
C1806 C1802 1.368 . S
C1806 C1805 1.523 . S
H1807 C1782 0.950 . S
H1808 C1784 0.950 . S
H1809 C1785 0.949 . S
H1810 C1787 0.950 . S
H1811 C1789 0.950 . S
C1812 C1813 1.349 . S
C1812 C1814 1.327 . S
C1812 H1837 0.950 . S
C1813 C1812 1.349 . S
C1813 C1829 1.349 . S
C1814 C1812 1.327 . S
C1814 C1833 1.429 . S
C1814 H1838 0.950 . S
C1815 C1832 1.574 . S
C1815 C1834 1.368 . S
C1815 H1839 0.949 . S
H1816 C1820 0.949 . S
C1817 C1818 1.349 . S
C1817 C1819 1.327 . S
C1817 H1840 0.950 . S
C1818 C1817 1.349 . S
C1818 C1830 1.349 . S
C1819 C1817 1.327 . S
C1819 C1835 1.429 . S
C1819 H1841 0.950 . S
C1820 H1816 0.949 . S
C1820 C1828 1.574 . S
C1820 C1836 1.368 . S
H1821 C1829 0.950 . S
H1822 C1827 0.950 . S
H1823 C1828 0.949 . S
H1824 C1830 0.950 . S
H1825 C1831 0.950 . S
H1826 C1832 0.949 . S
C1827 H1822 0.950 . S
C1827 C1829 1.327 . S
C1827 C1833 1.429 . S
C1828 C1820 1.574 . S
C1828 H1823 0.949 . S
C1828 C1834 1.368 . S
C1829 C1813 1.349 . S
C1829 H1821 0.950 . S
C1829 C1827 1.327 . S
C1830 C1818 1.349 . S
C1830 H1824 0.950 . S
C1830 C1831 1.327 . S
C1831 H1825 0.950 . S
C1831 C1830 1.327 . S
C1831 C1835 1.429 . S
C1832 C1815 1.574 . S
C1832 H1826 0.949 . S
C1832 C1836 1.368 . S
C1833 C1814 1.429 . S
C1833 C1827 1.429 . S
C1833 C1834 1.523 . S
C1834 C1815 1.368 . S
C1834 C1828 1.368 . S
C1834 C1833 1.523 . S
C1835 C1819 1.429 . S
C1835 C1831 1.429 . S
C1835 C1836 1.523 . S
C1836 C1820 1.368 . S
C1836 C1832 1.368 . S
C1836 C1835 1.523 . S
H1837 C1812 0.950 . S
H1838 C1814 0.950 . S
H1839 C1815 0.949 . S
H1840 C1817 0.950 . S
H1841 C1819 0.950 . S
C1842 C1843 1.349 . S
C1842 C1844 1.327 . S
C1842 H1867 0.950 . S
C1843 C1842 1.349 . S
C1843 C1859 1.349 . S
C1844 C1842 1.327 . S
C1844 C1863 1.429 . S
C1844 H1868 0.950 . S
C1845 C1862 1.574 . S
C1845 C1864 1.368 . S
C1845 H1869 0.949 . S
H1846 C1850 0.949 . S
C1847 C1848 1.349 . S
C1847 C1849 1.327 . S
C1847 H1870 0.950 . S
C1848 C1847 1.349 . S
C1848 C1860 1.349 . S
C1849 C1847 1.327 . S
C1849 C1865 1.429 . S
C1849 H1871 0.950 . S
C1850 H1846 0.949 . S
C1850 C1858 1.574 . S
C1850 C1866 1.368 . S
H1851 C1859 0.950 . S
H1852 C1857 0.950 . S
H1853 C1858 0.949 . S
H1854 C1860 0.950 . S
H1855 C1861 0.950 . S
H1856 C1862 0.949 . S
C1857 H1852 0.950 . S
C1857 C1859 1.327 . S
C1857 C1863 1.429 . S
C1858 C1850 1.574 . S
C1858 H1853 0.949 . S
C1858 C1864 1.368 . S
C1859 C1843 1.349 . S
C1859 H1851 0.950 . S
C1859 C1857 1.327 . S
C1860 C1848 1.349 . S
C1860 H1854 0.950 . S
C1860 C1861 1.327 . S
C1861 H1855 0.950 . S
C1861 C1860 1.327 . S
C1861 C1865 1.429 . S
C1862 C1845 1.574 . S
C1862 H1856 0.949 . S
C1862 C1866 1.368 . S
C1863 C1844 1.429 . S
C1863 C1857 1.429 . S
C1863 C1864 1.523 . S
C1864 C1845 1.368 . S
C1864 C1858 1.368 . S
C1864 C1863 1.523 . S
C1865 C1849 1.429 . S
C1865 C1861 1.429 . S
C1865 C1866 1.523 . S
C1866 C1850 1.368 . S
C1866 C1862 1.368 . S
C1866 C1865 1.523 . S
H1867 C1842 0.950 . S
H1868 C1844 0.950 . S
H1869 C1845 0.949 . S
H1870 C1847 0.950 . S
H1871 C1849 0.950 . S
C1872 C1873 1.349 . S
C1872 C1874 1.327 . S
C1872 H1897 0.950 . S
C1873 C1872 1.349 . S
C1873 C1889 1.349 . S
C1874 C1872 1.327 . S
C1874 C1893 1.429 . S
C1874 H1898 0.950 . S
C1875 C1892 1.574 . S
C1875 C1894 1.368 . S
C1875 H1899 0.949 . S
H1876 C1880 0.949 . S
C1877 C1878 1.349 . S
C1877 C1879 1.327 . S
C1877 H1900 0.950 . S
C1878 C1877 1.349 . S
C1878 C1890 1.349 . S
C1879 C1877 1.327 . S
C1879 C1895 1.429 . S
C1879 H1901 0.950 . S
C1880 H1876 0.949 . S
C1880 C1888 1.574 . S
C1880 C1896 1.368 . S
H1881 C1889 0.950 . S
H1882 C1887 0.950 . S
H1883 C1888 0.949 . S
H1884 C1890 0.950 . S
H1885 C1891 0.950 . S
H1886 C1892 0.949 . S
C1887 H1882 0.950 . S
C1887 C1889 1.327 . S
C1887 C1893 1.429 . S
C1888 C1880 1.574 . S
C1888 H1883 0.949 . S
C1888 C1894 1.368 . S
C1889 C1873 1.349 . S
C1889 H1881 0.950 . S
C1889 C1887 1.327 . S
C1890 C1878 1.349 . S
C1890 H1884 0.950 . S
C1890 C1891 1.327 . S
C1891 H1885 0.950 . S
C1891 C1890 1.327 . S
C1891 C1895 1.429 . S
C1892 C1875 1.574 . S
C1892 H1886 0.949 . S
C1892 C1896 1.368 . S
C1893 C1874 1.429 . S
C1893 C1887 1.429 . S
C1893 C1894 1.523 . S
C1894 C1875 1.368 . S
C1894 C1888 1.368 . S
C1894 C1893 1.523 . S
C1895 C1879 1.429 . S
C1895 C1891 1.429 . S
C1895 C1896 1.523 . S
C1896 C1880 1.368 . S
C1896 C1892 1.368 . S
C1896 C1895 1.523 . S
H1897 C1872 0.950 . S
H1898 C1874 0.950 . S
H1899 C1875 0.949 . S
H1900 C1877 0.950 . S
H1901 C1879 0.950 . S
C1902 C1903 1.349 . S
C1902 C1904 1.327 . S
C1902 H1927 0.950 . S
C1903 C1902 1.349 . S
C1903 C1919 1.349 . S
C1904 C1902 1.327 . S
C1904 C1923 1.429 . S
C1904 H1928 0.950 . S
C1905 C1922 1.574 . S
C1905 C1924 1.368 . S
C1905 H1929 0.949 . S
H1906 C1910 0.949 . S
C1907 C1908 1.349 . S
C1907 C1909 1.327 . S
C1907 H1930 0.950 . S
C1908 C1907 1.349 . S
C1908 C1920 1.349 . S
C1909 C1907 1.327 . S
C1909 C1925 1.429 . S
C1909 H1931 0.950 . S
C1910 H1906 0.949 . S
C1910 C1918 1.574 . S
C1910 C1926 1.368 . S
H1911 C1919 0.950 . S
H1912 C1917 0.950 . S
H1913 C1918 0.949 . S
H1914 C1920 0.950 . S
H1915 C1921 0.950 . S
H1916 C1922 0.949 . S
C1917 H1912 0.950 . S
C1917 C1919 1.327 . S
C1917 C1923 1.429 . S
C1918 C1910 1.574 . S
C1918 H1913 0.949 . S
C1918 C1924 1.368 . S
C1919 C1903 1.349 . S
C1919 H1911 0.950 . S
C1919 C1917 1.327 . S
C1920 C1908 1.349 . S
C1920 H1914 0.950 . S
C1920 C1921 1.327 . S
C1921 H1915 0.950 . S
C1921 C1920 1.327 . S
C1921 C1925 1.429 . S
C1922 C1905 1.574 . S
C1922 H1916 0.949 . S
C1922 C1926 1.368 . S
C1923 C1904 1.429 . S
C1923 C1917 1.429 . S
C1923 C1924 1.523 . S
C1924 C1905 1.368 . S
C1924 C1918 1.368 . S
C1924 C1923 1.523 . S
C1925 C1909 1.429 . S
C1925 C1921 1.429 . S
C1925 C1926 1.523 . S
C1926 C1910 1.368 . S
C1926 C1922 1.368 . S
C1926 C1925 1.523 . S
H1927 C1902 0.950 . S
H1928 C1904 0.950 . S
H1929 C1905 0.949 . S
H1930 C1907 0.950 . S
H1931 C1909 0.950 . S
C1932 C1933 1.349 . S
C1932 C1934 1.327 . S
C1932 H1957 0.950 . S
C1933 C1932 1.349 . S
C1933 C1949 1.349 . S
C1934 C1932 1.327 . S
C1934 C1953 1.429 . S
C1934 H1958 0.950 . S
C1935 C1952 1.574 . S
C1935 C1954 1.368 . S
C1935 H1959 0.949 . S
H1936 C1940 0.949 . S
C1937 C1938 1.349 . S
C1937 C1939 1.327 . S
C1937 H1960 0.950 . S
C1938 C1937 1.349 . S
C1938 C1950 1.349 . S
C1939 C1937 1.327 . S
C1939 C1955 1.429 . S
C1939 H1961 0.950 . S
C1940 H1936 0.949 . S
C1940 C1948 1.574 . S
C1940 C1956 1.368 . S
H1941 C1949 0.950 . S
H1942 C1947 0.950 . S
H1943 C1948 0.949 . S
H1944 C1950 0.950 . S
H1945 C1951 0.950 . S
H1946 C1952 0.949 . S
C1947 H1942 0.950 . S
C1947 C1949 1.327 . S
C1947 C1953 1.429 . S
C1948 C1940 1.574 . S
C1948 H1943 0.949 . S
C1948 C1954 1.368 . S
C1949 C1933 1.349 . S
C1949 H1941 0.950 . S
C1949 C1947 1.327 . S
C1950 C1938 1.349 . S
C1950 H1944 0.950 . S
C1950 C1951 1.327 . S
C1951 H1945 0.950 . S
C1951 C1950 1.327 . S
C1951 C1955 1.429 . S
C1952 C1935 1.574 . S
C1952 H1946 0.949 . S
C1952 C1956 1.368 . S
C1953 C1934 1.429 . S
C1953 C1947 1.429 . S
C1953 C1954 1.523 . S
C1954 C1935 1.368 . S
C1954 C1948 1.368 . S
C1954 C1953 1.523 . S
C1955 C1939 1.429 . S
C1955 C1951 1.429 . S
C1955 C1956 1.523 . S
C1956 C1940 1.368 . S
C1956 C1952 1.368 . S
C1956 C1955 1.523 . S
H1957 C1932 0.950 . S
H1958 C1934 0.950 . S
H1959 C1935 0.949 . S
H1960 C1937 0.950 . S
H1961 C1939 0.950 . S
C1962 C1963 1.349 . S
C1962 C1964 1.327 . S
C1962 H1987 0.950 . S
C1963 C1962 1.349 . S
C1963 C1979 1.349 . S
C1964 C1962 1.327 . S
C1964 C1983 1.429 . S
C1964 H1988 0.950 . S
C1965 C1982 1.574 . S
C1965 C1984 1.368 . S
C1965 H1989 0.949 . S
H1966 C1970 0.949 . S
C1967 C1968 1.349 . S
C1967 C1969 1.327 . S
C1967 H1990 0.950 . S
C1968 C1967 1.349 . S
C1968 C1980 1.349 . S
C1969 C1967 1.327 . S
C1969 C1985 1.429 . S
C1969 H1991 0.950 . S
C1970 H1966 0.949 . S
C1970 C1978 1.574 . S
C1970 C1986 1.368 . S
H1971 C1979 0.950 . S
H1972 C1977 0.950 . S
H1973 C1978 0.949 . S
H1974 C1980 0.950 . S
H1975 C1981 0.950 . S
H1976 C1982 0.949 . S
C1977 H1972 0.950 . S
C1977 C1979 1.327 . S
C1977 C1983 1.429 . S
C1978 C1970 1.574 . S
C1978 H1973 0.949 . S
C1978 C1984 1.368 . S
C1979 C1963 1.349 . S
C1979 H1971 0.950 . S
C1979 C1977 1.327 . S
C1980 C1968 1.349 . S
C1980 H1974 0.950 . S
C1980 C1981 1.327 . S
C1981 H1975 0.950 . S
C1981 C1980 1.327 . S
C1981 C1985 1.429 . S
C1982 C1965 1.574 . S
C1982 H1976 0.949 . S
C1982 C1986 1.368 . S
C1983 C1964 1.429 . S
C1983 C1977 1.429 . S
C1983 C1984 1.523 . S
C1984 C1965 1.368 . S
C1984 C1978 1.368 . S
C1984 C1983 1.523 . S
C1985 C1969 1.429 . S
C1985 C1981 1.429 . S
C1985 C1986 1.523 . S
C1986 C1970 1.368 . S
C1986 C1982 1.368 . S
C1986 C1985 1.523 . S
H1987 C1962 0.950 . S
H1988 C1964 0.950 . S
H1989 C1965 0.949 . S
H1990 C1967 0.950 . S
H1991 C1969 0.950 . S
C1992 C1993 1.349 . S
C1992 C1994 1.327 . S
C1992 H2017 0.950 . S
C1993 C1992 1.349 . S
C1993 C2009 1.349 . S
C1994 C1992 1.327 . S
C1994 C2013 1.429 . S
C1994 H2018 0.950 . S
C1995 C2012 1.574 . S
C1995 C2014 1.368 . S
C1995 H2019 0.949 . S
H1996 C2000 0.949 . S
C1997 C1998 1.349 . S
C1997 C1999 1.327 . S
C1997 H2020 0.950 . S
C1998 C1997 1.349 . S
C1998 C2010 1.349 . S
C1999 C1997 1.327 . S
C1999 C2015 1.429 . S
C1999 H2021 0.950 . S
C2000 H1996 0.949 . S
C2000 C2008 1.574 . S
C2000 C2016 1.368 . S
H2001 C2009 0.950 . S
H2002 C2007 0.950 . S
H2003 C2008 0.949 . S
H2004 C2010 0.950 . S
H2005 C2011 0.950 . S
H2006 C2012 0.949 . S
C2007 H2002 0.950 . S
C2007 C2009 1.327 . S
C2007 C2013 1.429 . S
C2008 C2000 1.574 . S
C2008 H2003 0.949 . S
C2008 C2014 1.368 . S
C2009 C1993 1.349 . S
C2009 H2001 0.950 . S
C2009 C2007 1.327 . S
C2010 C1998 1.349 . S
C2010 H2004 0.950 . S
C2010 C2011 1.327 . S
C2011 H2005 0.950 . S
C2011 C2010 1.327 . S
C2011 C2015 1.429 . S
C2012 C1995 1.574 . S
C2012 H2006 0.949 . S
C2012 C2016 1.368 . S
C2013 C1994 1.429 . S
C2013 C2007 1.429 . S
C2013 C2014 1.523 . S
C2014 C1995 1.368 . S
C2014 C2008 1.368 . S
C2014 C2013 1.523 . S
C2015 C1999 1.429 . S
C2015 C2011 1.429 . S
C2015 C2016 1.523 . S
C2016 C2000 1.368 . S
C2016 C2012 1.368 . S
C2016 C2015 1.523 . S
H2017 C1992 0.950 . S
H2018 C1994 0.950 . S
H2019 C1995 0.949 . S
H2020 C1997 0.950 . S
H2021 C1999 0.950 . S
C2022 C2023 1.349 . S
C2022 C2024 1.327 . S
C2022 H2047 0.950 . S
C2023 C2022 1.349 . S
C2023 C2039 1.349 . S
C2024 C2022 1.327 . S
C2024 C2043 1.429 . S
C2024 H2048 0.950 . S
C2025 C2042 1.574 . S
C2025 C2044 1.368 . S
C2025 H2049 0.949 . S
H2026 C2030 0.949 . S
C2027 C2028 1.349 . S
C2027 C2029 1.327 . S
C2027 H2050 0.950 . S
C2028 C2027 1.349 . S
C2028 C2040 1.349 . S
C2029 C2027 1.327 . S
C2029 C2045 1.429 . S
C2029 H2051 0.950 . S
C2030 H2026 0.949 . S
C2030 C2038 1.574 . S
C2030 C2046 1.368 . S
H2031 C2039 0.950 . S
H2032 C2037 0.950 . S
H2033 C2038 0.949 . S
H2034 C2040 0.950 . S
H2035 C2041 0.950 . S
H2036 C2042 0.949 . S
C2037 H2032 0.950 . S
C2037 C2039 1.327 . S
C2037 C2043 1.429 . S
C2038 C2030 1.574 . S
C2038 H2033 0.949 . S
C2038 C2044 1.368 . S
C2039 C2023 1.349 . S
C2039 H2031 0.950 . S
C2039 C2037 1.327 . S
C2040 C2028 1.349 . S
C2040 H2034 0.950 . S
C2040 C2041 1.327 . S
C2041 H2035 0.950 . S
C2041 C2040 1.327 . S
C2041 C2045 1.429 . S
C2042 C2025 1.574 . S
C2042 H2036 0.949 . S
C2042 C2046 1.368 . S
C2043 C2024 1.429 . S
C2043 C2037 1.429 . S
C2043 C2044 1.523 . S
C2044 C2025 1.368 . S
C2044 C2038 1.368 . S
C2044 C2043 1.523 . S
C2045 C2029 1.429 . S
C2045 C2041 1.429 . S
C2045 C2046 1.523 . S
C2046 C2030 1.368 . S
C2046 C2042 1.368 . S
C2046 C2045 1.523 . S
H2047 C2022 0.950 . S
H2048 C2024 0.950 . S
H2049 C2025 0.949 . S
H2050 C2027 0.950 . S
H2051 C2029 0.950 . S
C2052 C2053 1.349 . S
C2052 C2054 1.327 . S
C2052 H2077 0.950 . S
C2053 C2052 1.349 . S
C2053 C2069 1.349 . S
C2054 C2052 1.327 . S
C2054 C2073 1.429 . S
C2054 H2078 0.950 . S
C2055 C2072 1.574 . S
C2055 C2074 1.368 . S
C2055 H2079 0.949 . S
H2056 C2060 0.949 . S
C2057 C2058 1.349 . S
C2057 C2059 1.327 . S
C2057 H2080 0.950 . S
C2058 C2057 1.349 . S
C2058 C2070 1.349 . S
C2059 C2057 1.327 . S
C2059 C2075 1.429 . S
C2059 H2081 0.950 . S
C2060 H2056 0.949 . S
C2060 C2068 1.574 . S
C2060 C2076 1.368 . S
H2061 C2069 0.950 . S
H2062 C2067 0.950 . S
H2063 C2068 0.949 . S
H2064 C2070 0.950 . S
H2065 C2071 0.950 . S
H2066 C2072 0.949 . S
C2067 H2062 0.950 . S
C2067 C2069 1.327 . S
C2067 C2073 1.429 . S
C2068 C2060 1.574 . S
C2068 H2063 0.949 . S
C2068 C2074 1.368 . S
C2069 C2053 1.349 . S
C2069 H2061 0.950 . S
C2069 C2067 1.327 . S
C2070 C2058 1.349 . S
C2070 H2064 0.950 . S
C2070 C2071 1.327 . S
C2071 H2065 0.950 . S
C2071 C2070 1.327 . S
C2071 C2075 1.429 . S
C2072 C2055 1.574 . S
C2072 H2066 0.949 . S
C2072 C2076 1.368 . S
C2073 C2054 1.429 . S
C2073 C2067 1.429 . S
C2073 C2074 1.523 . S
C2074 C2055 1.368 . S
C2074 C2068 1.368 . S
C2074 C2073 1.523 . S
C2075 C2059 1.429 . S
C2075 C2071 1.429 . S
C2075 C2076 1.523 . S
C2076 C2060 1.368 . S
C2076 C2072 1.368 . S
C2076 C2075 1.523 . S
H2077 C2052 0.950 . S
H2078 C2054 0.950 . S
H2079 C2055 0.949 . S
H2080 C2057 0.950 . S
H2081 C2059 0.950 . S
C2082 C2083 1.349 . S
C2082 C2084 1.327 . S
C2082 H2107 0.950 . S
C2083 C2082 1.349 . S
C2083 C2099 1.349 . S
C2084 C2082 1.327 . S
C2084 C2103 1.429 . S
C2084 H2108 0.950 . S
C2085 C2102 1.574 . S
C2085 C2104 1.368 . S
C2085 H2109 0.949 . S
H2086 C2090 0.949 . S
C2087 C2088 1.349 . S
C2087 C2089 1.327 . S
C2087 H2110 0.950 . S
C2088 C2087 1.349 . S
C2088 C2100 1.349 . S
C2089 C2087 1.327 . S
C2089 C2105 1.429 . S
C2089 H2111 0.950 . S
C2090 H2086 0.949 . S
C2090 C2098 1.574 . S
C2090 C2106 1.368 . S
H2091 C2099 0.950 . S
H2092 C2097 0.950 . S
H2093 C2098 0.949 . S
H2094 C2100 0.950 . S
H2095 C2101 0.950 . S
H2096 C2102 0.949 . S
C2097 H2092 0.950 . S
C2097 C2099 1.327 . S
C2097 C2103 1.429 . S
C2098 C2090 1.574 . S
C2098 H2093 0.949 . S
C2098 C2104 1.368 . S
C2099 C2083 1.349 . S
C2099 H2091 0.950 . S
C2099 C2097 1.327 . S
C2100 C2088 1.349 . S
C2100 H2094 0.950 . S
C2100 C2101 1.327 . S
C2101 H2095 0.950 . S
C2101 C2100 1.327 . S
C2101 C2105 1.429 . S
C2102 C2085 1.574 . S
C2102 H2096 0.949 . S
C2102 C2106 1.368 . S
C2103 C2084 1.429 . S
C2103 C2097 1.429 . S
C2103 C2104 1.523 . S
C2104 C2085 1.368 . S
C2104 C2098 1.368 . S
C2104 C2103 1.523 . S
C2105 C2089 1.429 . S
C2105 C2101 1.429 . S
C2105 C2106 1.523 . S
C2106 C2090 1.368 . S
C2106 C2102 1.368 . S
C2106 C2105 1.523 . S
H2107 C2082 0.950 . S
H2108 C2084 0.950 . S
H2109 C2085 0.949 . S
H2110 C2087 0.950 . S
H2111 C2089 0.950 . S
C2112 C2113 1.349 . S
C2112 C2114 1.327 . S
C2112 H2137 0.950 . S
C2113 C2112 1.349 . S
C2113 C2129 1.349 . S
C2114 C2112 1.327 . S
C2114 C2133 1.429 . S
C2114 H2138 0.950 . S
C2115 C2132 1.574 . S
C2115 C2134 1.368 . S
C2115 H2139 0.949 . S
H2116 C2120 0.949 . S
C2117 C2118 1.349 . S
C2117 C2119 1.327 . S
C2117 H2140 0.950 . S
C2118 C2117 1.349 . S
C2118 C2130 1.349 . S
C2119 C2117 1.327 . S
C2119 C2135 1.429 . S
C2119 H2141 0.950 . S
C2120 H2116 0.949 . S
C2120 C2128 1.574 . S
C2120 C2136 1.368 . S
H2121 C2129 0.950 . S
H2122 C2127 0.950 . S
H2123 C2128 0.949 . S
H2124 C2130 0.950 . S
H2125 C2131 0.950 . S
H2126 C2132 0.949 . S
C2127 H2122 0.950 . S
C2127 C2129 1.327 . S
C2127 C2133 1.429 . S
C2128 C2120 1.574 . S
C2128 H2123 0.949 . S
C2128 C2134 1.368 . S
C2129 C2113 1.349 . S
C2129 H2121 0.950 . S
C2129 C2127 1.327 . S
C2130 C2118 1.349 . S
C2130 H2124 0.950 . S
C2130 C2131 1.327 . S
C2131 H2125 0.950 . S
C2131 C2130 1.327 . S
C2131 C2135 1.429 . S
C2132 C2115 1.574 . S
C2132 H2126 0.949 . S
C2132 C2136 1.368 . S
C2133 C2114 1.429 . S
C2133 C2127 1.429 . S
C2133 C2134 1.523 . S
C2134 C2115 1.368 . S
C2134 C2128 1.368 . S
C2134 C2133 1.523 . S
C2135 C2119 1.429 . S
C2135 C2131 1.429 . S
C2135 C2136 1.523 . S
C2136 C2120 1.368 . S
C2136 C2132 1.368 . S
C2136 C2135 1.523 . S
H2137 C2112 0.950 . S
H2138 C2114 0.950 . S
H2139 C2115 0.949 . S
H2140 C2117 0.950 . S
H2141 C2119 0.950 . S
C2142 C2143 1.349 . S
C2142 C2144 1.327 . S
C2142 H2167 0.950 . S
C2143 C2142 1.349 . S
C2143 C2159 1.349 . S
C2144 C2142 1.327 . S
C2144 C2163 1.429 . S
C2144 H2168 0.950 . S
C2145 C2162 1.574 . S
C2145 C2164 1.368 . S
C2145 H2169 0.949 . S
H2146 C2150 0.949 . S
C2147 C2148 1.349 . S
C2147 C2149 1.327 . S
C2147 H2170 0.950 . S
C2148 C2147 1.349 . S
C2148 C2160 1.349 . S
C2149 C2147 1.327 . S
C2149 C2165 1.429 . S
C2149 H2171 0.950 . S
C2150 H2146 0.949 . S
C2150 C2158 1.574 . S
C2150 C2166 1.368 . S
H2151 C2159 0.950 . S
H2152 C2157 0.950 . S
H2153 C2158 0.949 . S
H2154 C2160 0.950 . S
H2155 C2161 0.950 . S
H2156 C2162 0.949 . S
C2157 H2152 0.950 . S
C2157 C2159 1.327 . S
C2157 C2163 1.429 . S
C2158 C2150 1.574 . S
C2158 H2153 0.949 . S
C2158 C2164 1.368 . S
C2159 C2143 1.349 . S
C2159 H2151 0.950 . S
C2159 C2157 1.327 . S
C2160 C2148 1.349 . S
C2160 H2154 0.950 . S
C2160 C2161 1.327 . S
C2161 H2155 0.950 . S
C2161 C2160 1.327 . S
C2161 C2165 1.429 . S
C2162 C2145 1.574 . S
C2162 H2156 0.949 . S
C2162 C2166 1.368 . S
C2163 C2144 1.429 . S
C2163 C2157 1.429 . S
C2163 C2164 1.523 . S
C2164 C2145 1.368 . S
C2164 C2158 1.368 . S
C2164 C2163 1.523 . S
C2165 C2149 1.429 . S
C2165 C2161 1.429 . S
C2165 C2166 1.523 . S
C2166 C2150 1.368 . S
C2166 C2162 1.368 . S
C2166 C2165 1.523 . S
H2167 C2142 0.950 . S
H2168 C2144 0.950 . S
H2169 C2145 0.949 . S
H2170 C2147 0.950 . S
H2171 C2149 0.950 . S
C2172 C2173 1.349 . S
C2172 C2174 1.327 . S
C2172 H2197 0.950 . S
C2173 C2172 1.349 . S
C2173 C2189 1.349 . S
C2174 C2172 1.327 . S
C2174 C2193 1.429 . S
C2174 H2198 0.950 . S
C2175 C2192 1.574 . S
C2175 C2194 1.368 . S
C2175 H2199 0.949 . S
H2176 C2180 0.949 . S
C2177 C2178 1.349 . S
C2177 C2179 1.327 . S
C2177 H2200 0.950 . S
C2178 C2177 1.349 . S
C2178 C2190 1.349 . S
C2179 C2177 1.327 . S
C2179 C2195 1.429 . S
C2179 H2201 0.950 . S
C2180 H2176 0.949 . S
C2180 C2188 1.574 . S
C2180 C2196 1.368 . S
H2181 C2189 0.950 . S
H2182 C2187 0.950 . S
H2183 C2188 0.949 . S
H2184 C2190 0.950 . S
H2185 C2191 0.950 . S
H2186 C2192 0.949 . S
C2187 H2182 0.950 . S
C2187 C2189 1.327 . S
C2187 C2193 1.429 . S
C2188 C2180 1.574 . S
C2188 H2183 0.949 . S
C2188 C2194 1.368 . S
C2189 C2173 1.349 . S
C2189 H2181 0.950 . S
C2189 C2187 1.327 . S
C2190 C2178 1.349 . S
C2190 H2184 0.950 . S
C2190 C2191 1.327 . S
C2191 H2185 0.950 . S
C2191 C2190 1.327 . S
C2191 C2195 1.429 . S
C2192 C2175 1.574 . S
C2192 H2186 0.949 . S
C2192 C2196 1.368 . S
C2193 C2174 1.429 . S
C2193 C2187 1.429 . S
C2193 C2194 1.523 . S
C2194 C2175 1.368 . S
C2194 C2188 1.368 . S
C2194 C2193 1.523 . S
C2195 C2179 1.429 . S
C2195 C2191 1.429 . S
C2195 C2196 1.523 . S
C2196 C2180 1.368 . S
C2196 C2192 1.368 . S
C2196 C2195 1.523 . S
H2197 C2172 0.950 . S
H2198 C2174 0.950 . S
H2199 C2175 0.949 . S
H2200 C2177 0.950 . S
H2201 C2179 0.950 . S
C2202 C2203 1.349 . S
C2202 C2204 1.327 . S
C2202 H2227 0.950 . S
C2203 C2202 1.349 . S
C2203 C2219 1.349 . S
C2204 C2202 1.327 . S
C2204 C2223 1.429 . S
C2204 H2228 0.950 . S
C2205 C2222 1.574 . S
C2205 C2224 1.368 . S
C2205 H2229 0.949 . S
H2206 C2210 0.949 . S
C2207 C2208 1.349 . S
C2207 C2209 1.327 . S
C2207 H2230 0.950 . S
C2208 C2207 1.349 . S
C2208 C2220 1.349 . S
C2209 C2207 1.327 . S
C2209 C2225 1.429 . S
C2209 H2231 0.950 . S
C2210 H2206 0.949 . S
C2210 C2218 1.574 . S
C2210 C2226 1.368 . S
H2211 C2219 0.950 . S
H2212 C2217 0.950 . S
H2213 C2218 0.949 . S
H2214 C2220 0.950 . S
H2215 C2221 0.950 . S
H2216 C2222 0.949 . S
C2217 H2212 0.950 . S
C2217 C2219 1.327 . S
C2217 C2223 1.429 . S
C2218 C2210 1.574 . S
C2218 H2213 0.949 . S
C2218 C2224 1.368 . S
C2219 C2203 1.349 . S
C2219 H2211 0.950 . S
C2219 C2217 1.327 . S
C2220 C2208 1.349 . S
C2220 H2214 0.950 . S
C2220 C2221 1.327 . S
C2221 H2215 0.950 . S
C2221 C2220 1.327 . S
C2221 C2225 1.429 . S
C2222 C2205 1.574 . S
C2222 H2216 0.949 . S
C2222 C2226 1.368 . S
C2223 C2204 1.429 . S
C2223 C2217 1.429 . S
C2223 C2224 1.523 . S
C2224 C2205 1.368 . S
C2224 C2218 1.368 . S
C2224 C2223 1.523 . S
C2225 C2209 1.429 . S
C2225 C2221 1.429 . S
C2225 C2226 1.523 . S
C2226 C2210 1.368 . S
C2226 C2222 1.368 . S
C2226 C2225 1.523 . S
H2227 C2202 0.950 . S
H2228 C2204 0.950 . S
H2229 C2205 0.949 . S
H2230 C2207 0.950 . S
H2231 C2209 0.950 . S
C2232 C2233 1.349 . S
C2232 C2234 1.327 . S
C2232 H2257 0.950 . S
C2233 C2232 1.349 . S
C2233 C2249 1.349 . S
C2234 C2232 1.327 . S
C2234 C2253 1.429 . S
C2234 H2258 0.950 . S
C2235 C2252 1.574 . S
C2235 C2254 1.368 . S
C2235 H2259 0.949 . S
H2236 C2240 0.949 . S
C2237 C2238 1.349 . S
C2237 C2239 1.327 . S
C2237 H2260 0.950 . S
C2238 C2237 1.349 . S
C2238 C2250 1.349 . S
C2239 C2237 1.327 . S
C2239 C2255 1.429 . S
C2239 H2261 0.950 . S
C2240 H2236 0.949 . S
C2240 C2248 1.574 . S
C2240 C2256 1.368 . S
H2241 C2249 0.950 . S
H2242 C2247 0.950 . S
H2243 C2248 0.949 . S
H2244 C2250 0.950 . S
H2245 C2251 0.950 . S
H2246 C2252 0.949 . S
C2247 H2242 0.950 . S
C2247 C2249 1.327 . S
C2247 C2253 1.429 . S
C2248 C2240 1.574 . S
C2248 H2243 0.949 . S
C2248 C2254 1.368 . S
C2249 C2233 1.349 . S
C2249 H2241 0.950 . S
C2249 C2247 1.327 . S
C2250 C2238 1.349 . S
C2250 H2244 0.950 . S
C2250 C2251 1.327 . S
C2251 H2245 0.950 . S
C2251 C2250 1.327 . S
C2251 C2255 1.429 . S
C2252 C2235 1.574 . S
C2252 H2246 0.949 . S
C2252 C2256 1.368 . S
C2253 C2234 1.429 . S
C2253 C2247 1.429 . S
C2253 C2254 1.523 . S
C2254 C2235 1.368 . S
C2254 C2248 1.368 . S
C2254 C2253 1.523 . S
C2255 C2239 1.429 . S
C2255 C2251 1.429 . S
C2255 C2256 1.523 . S
C2256 C2240 1.368 . S
C2256 C2252 1.368 . S
C2256 C2255 1.523 . S
H2257 C2232 0.950 . S
H2258 C2234 0.950 . S
H2259 C2235 0.949 . S
H2260 C2237 0.950 . S
H2261 C2239 0.950 . S
C2262 C2263 1.349 . S
C2262 C2264 1.327 . S
C2262 H2287 0.950 . S
C2263 C2262 1.349 . S
C2263 C2279 1.349 . S
C2264 C2262 1.327 . S
C2264 C2283 1.429 . S
C2264 H2288 0.950 . S
C2265 C2282 1.574 . S
C2265 C2284 1.368 . S
C2265 H2289 0.949 . S
H2266 C2270 0.949 . S
C2267 C2268 1.349 . S
C2267 C2269 1.327 . S
C2267 H2290 0.950 . S
C2268 C2267 1.349 . S
C2268 C2280 1.349 . S
C2269 C2267 1.327 . S
C2269 C2285 1.429 . S
C2269 H2291 0.950 . S
C2270 H2266 0.949 . S
C2270 C2278 1.574 . S
C2270 C2286 1.368 . S
H2271 C2279 0.950 . S
H2272 C2277 0.950 . S
H2273 C2278 0.949 . S
H2274 C2280 0.950 . S
H2275 C2281 0.950 . S
H2276 C2282 0.949 . S
C2277 H2272 0.950 . S
C2277 C2279 1.327 . S
C2277 C2283 1.429 . S
C2278 C2270 1.574 . S
C2278 H2273 0.949 . S
C2278 C2284 1.368 . S
C2279 C2263 1.349 . S
C2279 H2271 0.950 . S
C2279 C2277 1.327 . S
C2280 C2268 1.349 . S
C2280 H2274 0.950 . S
C2280 C2281 1.327 . S
C2281 H2275 0.950 . S
C2281 C2280 1.327 . S
C2281 C2285 1.429 . S
C2282 C2265 1.574 . S
C2282 H2276 0.949 . S
C2282 C2286 1.368 . S
C2283 C2264 1.429 . S
C2283 C2277 1.429 . S
C2283 C2284 1.523 . S
C2284 C2265 1.368 . S
C2284 C2278 1.368 . S
C2284 C2283 1.523 . S
C2285 C2269 1.429 . S
C2285 C2281 1.429 . S
C2285 C2286 1.523 . S
C2286 C2270 1.368 . S
C2286 C2282 1.368 . S
C2286 C2285 1.523 . S
H2287 C2262 0.950 . S
H2288 C2264 0.950 . S
H2289 C2265 0.949 . S
H2290 C2267 0.950 . S
H2291 C2269 0.950 . S
C2292 C2293 1.349 . S
C2292 C2294 1.327 . S
C2292 H2317 0.950 . S
C2293 C2292 1.349 . S
C2293 C2309 1.349 . S
C2294 C2292 1.327 . S
C2294 C2313 1.429 . S
C2294 H2318 0.950 . S
C2295 C2312 1.574 . S
C2295 C2314 1.368 . S
C2295 H2319 0.949 . S
H2296 C2300 0.949 . S
C2297 C2298 1.349 . S
C2297 C2299 1.327 . S
C2297 H2320 0.950 . S
C2298 C2297 1.349 . S
C2298 C2310 1.349 . S
C2299 C2297 1.327 . S
C2299 C2315 1.429 . S
C2299 H2321 0.950 . S
C2300 H2296 0.949 . S
C2300 C2308 1.574 . S
C2300 C2316 1.368 . S
H2301 C2309 0.950 . S
H2302 C2307 0.950 . S
H2303 C2308 0.949 . S
H2304 C2310 0.950 . S
H2305 C2311 0.950 . S
H2306 C2312 0.949 . S
C2307 H2302 0.950 . S
C2307 C2309 1.327 . S
C2307 C2313 1.429 . S
C2308 C2300 1.574 . S
C2308 H2303 0.949 . S
C2308 C2314 1.368 . S
C2309 C2293 1.349 . S
C2309 H2301 0.950 . S
C2309 C2307 1.327 . S
C2310 C2298 1.349 . S
C2310 H2304 0.950 . S
C2310 C2311 1.327 . S
C2311 H2305 0.950 . S
C2311 C2310 1.327 . S
C2311 C2315 1.429 . S
C2312 C2295 1.574 . S
C2312 H2306 0.949 . S
C2312 C2316 1.368 . S
C2313 C2294 1.429 . S
C2313 C2307 1.429 . S
C2313 C2314 1.523 . S
C2314 C2295 1.368 . S
C2314 C2308 1.368 . S
C2314 C2313 1.523 . S
C2315 C2299 1.429 . S
C2315 C2311 1.429 . S
C2315 C2316 1.523 . S
C2316 C2300 1.368 . S
C2316 C2312 1.368 . S
C2316 C2315 1.523 . S
H2317 C2292 0.950 . S
H2318 C2294 0.950 . S
H2319 C2295 0.949 . S
H2320 C2297 0.950 . S
H2321 C2299 0.950 . S
C2322 C2323 1.349 . S
C2322 C2324 1.327 . S
C2322 H2347 0.950 . S
C2323 C2322 1.349 . S
C2323 C2339 1.349 . S
C2324 C2322 1.327 . S
C2324 C2343 1.429 . S
C2324 H2348 0.950 . S
C2325 C2342 1.574 . S
C2325 C2344 1.368 . S
C2325 H2349 0.949 . S
H2326 C2330 0.949 . S
C2327 C2328 1.349 . S
C2327 C2329 1.327 . S
C2327 H2350 0.950 . S
C2328 C2327 1.349 . S
C2328 C2340 1.349 . S
C2329 C2327 1.327 . S
C2329 C2345 1.429 . S
C2329 H2351 0.950 . S
C2330 H2326 0.949 . S
C2330 C2338 1.574 . S
C2330 C2346 1.368 . S
H2331 C2339 0.950 . S
H2332 C2337 0.950 . S
H2333 C2338 0.949 . S
H2334 C2340 0.950 . S
H2335 C2341 0.950 . S
H2336 C2342 0.949 . S
C2337 H2332 0.950 . S
C2337 C2339 1.327 . S
C2337 C2343 1.429 . S
C2338 C2330 1.574 . S
C2338 H2333 0.949 . S
C2338 C2344 1.368 . S
C2339 C2323 1.349 . S
C2339 H2331 0.950 . S
C2339 C2337 1.327 . S
C2340 C2328 1.349 . S
C2340 H2334 0.950 . S
C2340 C2341 1.327 . S
C2341 H2335 0.950 . S
C2341 C2340 1.327 . S
C2341 C2345 1.429 . S
C2342 C2325 1.574 . S
C2342 H2336 0.949 . S
C2342 C2346 1.368 . S
C2343 C2324 1.429 . S
C2343 C2337 1.429 . S
C2343 C2344 1.523 . S
C2344 C2325 1.368 . S
C2344 C2338 1.368 . S
C2344 C2343 1.523 . S
C2345 C2329 1.429 . S
C2345 C2341 1.429 . S
C2345 C2346 1.523 . S
C2346 C2330 1.368 . S
C2346 C2342 1.368 . S
C2346 C2345 1.523 . S
H2347 C2322 0.950 . S
H2348 C2324 0.950 . S
H2349 C2325 0.949 . S
H2350 C2327 0.950 . S
H2351 C2329 0.950 . S
C2352 C2353 1.349 . S
C2352 C2354 1.327 . S
C2352 H2377 0.950 . S
C2353 C2352 1.349 . S
C2353 C2369 1.349 . S
C2354 C2352 1.327 . S
C2354 C2373 1.429 . S
C2354 H2378 0.950 . S
C2355 C2372 1.574 . S
C2355 C2374 1.368 . S
C2355 H2379 0.949 . S
H2356 C2360 0.949 . S
C2357 C2358 1.349 . S
C2357 C2359 1.327 . S
C2357 H2380 0.950 . S
C2358 C2357 1.349 . S
C2358 C2370 1.349 . S
C2359 C2357 1.327 . S
C2359 C2375 1.429 . S
C2359 H2381 0.950 . S
C2360 H2356 0.949 . S
C2360 C2368 1.574 . S
C2360 C2376 1.368 . S
H2361 C2369 0.950 . S
H2362 C2367 0.950 . S
H2363 C2368 0.949 . S
H2364 C2370 0.950 . S
H2365 C2371 0.950 . S
H2366 C2372 0.949 . S
C2367 H2362 0.950 . S
C2367 C2369 1.327 . S
C2367 C2373 1.429 . S
C2368 C2360 1.574 . S
C2368 H2363 0.949 . S
C2368 C2374 1.368 . S
C2369 C2353 1.349 . S
C2369 H2361 0.950 . S
C2369 C2367 1.327 . S
C2370 C2358 1.349 . S
C2370 H2364 0.950 . S
C2370 C2371 1.327 . S
C2371 H2365 0.950 . S
C2371 C2370 1.327 . S
C2371 C2375 1.429 . S
C2372 C2355 1.574 . S
C2372 H2366 0.949 . S
C2372 C2376 1.368 . S
C2373 C2354 1.429 . S
C2373 C2367 1.429 . S
C2373 C2374 1.523 . S
C2374 C2355 1.368 . S
C2374 C2368 1.368 . S
C2374 C2373 1.523 . S
C2375 C2359 1.429 . S
C2375 C2371 1.429 . S
C2375 C2376 1.523 . S
C2376 C2360 1.368 . S
C2376 C2372 1.368 . S
C2376 C2375 1.523 . S
H2377 C2352 0.950 . S
H2378 C2354 0.950 . S
H2379 C2355 0.949 . S
H2380 C2357 0.950 . S
H2381 C2359 0.950 . S
C2382 C2383 1.349 . S
C2382 C2384 1.327 . S
C2382 H2407 0.950 . S
C2383 C2382 1.349 . S
C2383 C2399 1.349 . S
C2384 C2382 1.327 . S
C2384 C2403 1.429 . S
C2384 H2408 0.950 . S
C2385 C2402 1.574 . S
C2385 C2404 1.368 . S
C2385 H2409 0.949 . S
H2386 C2390 0.949 . S
C2387 C2388 1.349 . S
C2387 C2389 1.327 . S
C2387 H2410 0.950 . S
C2388 C2387 1.349 . S
C2388 C2400 1.349 . S
C2389 C2387 1.327 . S
C2389 C2405 1.429 . S
C2389 H2411 0.950 . S
C2390 H2386 0.949 . S
C2390 C2398 1.574 . S
C2390 C2406 1.368 . S
H2391 C2399 0.950 . S
H2392 C2397 0.950 . S
H2393 C2398 0.949 . S
H2394 C2400 0.950 . S
H2395 C2401 0.950 . S
H2396 C2402 0.949 . S
C2397 H2392 0.950 . S
C2397 C2399 1.327 . S
C2397 C2403 1.429 . S
C2398 C2390 1.574 . S
C2398 H2393 0.949 . S
C2398 C2404 1.368 . S
C2399 C2383 1.349 . S
C2399 H2391 0.950 . S
C2399 C2397 1.327 . S
C2400 C2388 1.349 . S
C2400 H2394 0.950 . S
C2400 C2401 1.327 . S
C2401 H2395 0.950 . S
C2401 C2400 1.327 . S
C2401 C2405 1.429 . S
C2402 C2385 1.574 . S
C2402 H2396 0.949 . S
C2402 C2406 1.368 . S
C2403 C2384 1.429 . S
C2403 C2397 1.429 . S
C2403 C2404 1.523 . S
C2404 C2385 1.368 . S
C2404 C2398 1.368 . S
C2404 C2403 1.523 . S
C2405 C2389 1.429 . S
C2405 C2401 1.429 . S
C2405 C2406 1.523 . S
C2406 C2390 1.368 . S
C2406 C2402 1.368 . S
C2406 C2405 1.523 . S
H2407 C2382 0.950 . S
H2408 C2384 0.950 . S
H2409 C2385 0.949 . S
H2410 C2387 0.950 . S
H2411 C2389 0.950 . S
C2412 C2413 1.349 . S
C2412 C2414 1.327 . S
C2412 H2437 0.950 . S
C2413 C2412 1.349 . S
C2413 C2429 1.349 . S
C2414 C2412 1.327 . S
C2414 C2433 1.429 . S
C2414 H2438 0.950 . S
C2415 C2432 1.574 . S
C2415 C2434 1.368 . S
C2415 H2439 0.949 . S
H2416 C2420 0.949 . S
C2417 C2418 1.349 . S
C2417 C2419 1.327 . S
C2417 H2440 0.950 . S
C2418 C2417 1.349 . S
C2418 C2430 1.349 . S
C2419 C2417 1.327 . S
C2419 C2435 1.429 . S
C2419 H2441 0.950 . S
C2420 H2416 0.949 . S
C2420 C2428 1.574 . S
C2420 C2436 1.368 . S
H2421 C2429 0.950 . S
H2422 C2427 0.950 . S
H2423 C2428 0.949 . S
H2424 C2430 0.950 . S
H2425 C2431 0.950 . S
H2426 C2432 0.949 . S
C2427 H2422 0.950 . S
C2427 C2429 1.327 . S
C2427 C2433 1.429 . S
C2428 C2420 1.574 . S
C2428 H2423 0.949 . S
C2428 C2434 1.368 . S
C2429 C2413 1.349 . S
C2429 H2421 0.950 . S
C2429 C2427 1.327 . S
C2430 C2418 1.349 . S
C2430 H2424 0.950 . S
C2430 C2431 1.327 . S
C2431 H2425 0.950 . S
C2431 C2430 1.327 . S
C2431 C2435 1.429 . S
C2432 C2415 1.574 . S
C2432 H2426 0.949 . S
C2432 C2436 1.368 . S
C2433 C2414 1.429 . S
C2433 C2427 1.429 . S
C2433 C2434 1.523 . S
C2434 C2415 1.368 . S
C2434 C2428 1.368 . S
C2434 C2433 1.523 . S
C2435 C2419 1.429 . S
C2435 C2431 1.429 . S
C2435 C2436 1.523 . S
C2436 C2420 1.368 . S
C2436 C2432 1.368 . S
C2436 C2435 1.523 . S
H2437 C2412 0.950 . S
H2438 C2414 0.950 . S
H2439 C2415 0.949 . S
H2440 C2417 0.950 . S
H2441 C2419 0.950 . S
C2442 C2443 1.349 . S
C2442 C2444 1.327 . S
C2442 H2467 0.950 . S
C2443 C2442 1.349 . S
C2443 C2459 1.349 . S
C2444 C2442 1.327 . S
C2444 C2463 1.429 . S
C2444 H2468 0.950 . S
C2445 C2462 1.574 . S
C2445 C2464 1.368 . S
C2445 H2469 0.949 . S
H2446 C2450 0.949 . S
C2447 C2448 1.349 . S
C2447 C2449 1.327 . S
C2447 H2470 0.950 . S
C2448 C2447 1.349 . S
C2448 C2460 1.349 . S
C2449 C2447 1.327 . S
C2449 C2465 1.429 . S
C2449 H2471 0.950 . S
C2450 H2446 0.949 . S
C2450 C2458 1.574 . S
C2450 C2466 1.368 . S
H2451 C2459 0.950 . S
H2452 C2457 0.950 . S
H2453 C2458 0.949 . S
H2454 C2460 0.950 . S
H2455 C2461 0.950 . S
H2456 C2462 0.949 . S
C2457 H2452 0.950 . S
C2457 C2459 1.327 . S
C2457 C2463 1.429 . S
C2458 C2450 1.574 . S
C2458 H2453 0.949 . S
C2458 C2464 1.368 . S
C2459 C2443 1.349 . S
C2459 H2451 0.950 . S
C2459 C2457 1.327 . S
C2460 C2448 1.349 . S
C2460 H2454 0.950 . S
C2460 C2461 1.327 . S
C2461 H2455 0.950 . S
C2461 C2460 1.327 . S
C2461 C2465 1.429 . S
C2462 C2445 1.574 . S
C2462 H2456 0.949 . S
C2462 C2466 1.368 . S
C2463 C2444 1.429 . S
C2463 C2457 1.429 . S
C2463 C2464 1.523 . S
C2464 C2445 1.368 . S
C2464 C2458 1.368 . S
C2464 C2463 1.523 . S
C2465 C2449 1.429 . S
C2465 C2461 1.429 . S
C2465 C2466 1.523 . S
C2466 C2450 1.368 . S
C2466 C2462 1.368 . S
C2466 C2465 1.523 . S
H2467 C2442 0.950 . S
H2468 C2444 0.950 . S
H2469 C2445 0.949 . S
H2470 C2447 0.950 . S
H2471 C2449 0.950 . S
C2472 C2473 1.349 . S
C2472 C2474 1.327 . S
C2472 H2497 0.950 . S
C2473 C2472 1.349 . S
C2473 C2489 1.349 . S
C2474 C2472 1.327 . S
C2474 C2493 1.429 . S
C2474 H2498 0.950 . S
C2475 C2492 1.574 . S
C2475 C2494 1.368 . S
C2475 H2499 0.949 . S
H2476 C2480 0.949 . S
C2477 C2478 1.349 . S
C2477 C2479 1.327 . S
C2477 H2500 0.950 . S
C2478 C2477 1.349 . S
C2478 C2490 1.349 . S
C2479 C2477 1.327 . S
C2479 C2495 1.429 . S
C2479 H2501 0.950 . S
C2480 H2476 0.949 . S
C2480 C2488 1.574 . S
C2480 C2496 1.368 . S
H2481 C2489 0.950 . S
H2482 C2487 0.950 . S
H2483 C2488 0.949 . S
H2484 C2490 0.950 . S
H2485 C2491 0.950 . S
H2486 C2492 0.949 . S
C2487 H2482 0.950 . S
C2487 C2489 1.327 . S
C2487 C2493 1.429 . S
C2488 C2480 1.574 . S
C2488 H2483 0.949 . S
C2488 C2494 1.368 . S
C2489 C2473 1.349 . S
C2489 H2481 0.950 . S
C2489 C2487 1.327 . S
C2490 C2478 1.349 . S
C2490 H2484 0.950 . S
C2490 C2491 1.327 . S
C2491 H2485 0.950 . S
C2491 C2490 1.327 . S
C2491 C2495 1.429 . S
C2492 C2475 1.574 . S
C2492 H2486 0.949 . S
C2492 C2496 1.368 . S
C2493 C2474 1.429 . S
C2493 C2487 1.429 . S
C2493 C2494 1.523 . S
C2494 C2475 1.368 . S
C2494 C2488 1.368 . S
C2494 C2493 1.523 . S
C2495 C2479 1.429 . S
C2495 C2491 1.429 . S
C2495 C2496 1.523 . S
C2496 C2480 1.368 . S
C2496 C2492 1.368 . S
C2496 C2495 1.523 . S
H2497 C2472 0.950 . S
H2498 C2474 0.950 . S
H2499 C2475 0.949 . S
H2500 C2477 0.950 . S
H2501 C2479 0.950 . S
C2502 C2503 1.349 . S
C2502 C2504 1.327 . S
C2502 H2527 0.950 . S
C2503 C2502 1.349 . S
C2503 C2519 1.349 . S
C2504 C2502 1.327 . S
C2504 C2523 1.429 . S
C2504 H2528 0.950 . S
C2505 C2522 1.574 . S
C2505 C2524 1.368 . S
C2505 H2529 0.949 . S
H2506 C2510 0.949 . S
C2507 C2508 1.349 . S
C2507 C2509 1.327 . S
C2507 H2530 0.950 . S
C2508 C2507 1.349 . S
C2508 C2520 1.349 . S
C2509 C2507 1.327 . S
C2509 C2525 1.429 . S
C2509 H2531 0.950 . S
C2510 H2506 0.949 . S
C2510 C2518 1.574 . S
C2510 C2526 1.368 . S
H2511 C2519 0.950 . S
H2512 C2517 0.950 . S
H2513 C2518 0.949 . S
H2514 C2520 0.950 . S
H2515 C2521 0.950 . S
H2516 C2522 0.949 . S
C2517 H2512 0.950 . S
C2517 C2519 1.327 . S
C2517 C2523 1.429 . S
C2518 C2510 1.574 . S
C2518 H2513 0.949 . S
C2518 C2524 1.368 . S
C2519 C2503 1.349 . S
C2519 H2511 0.950 . S
C2519 C2517 1.327 . S
C2520 C2508 1.349 . S
C2520 H2514 0.950 . S
C2520 C2521 1.327 . S
C2521 H2515 0.950 . S
C2521 C2520 1.327 . S
C2521 C2525 1.429 . S
C2522 C2505 1.574 . S
C2522 H2516 0.949 . S
C2522 C2526 1.368 . S
C2523 C2504 1.429 . S
C2523 C2517 1.429 . S
C2523 C2524 1.523 . S
C2524 C2505 1.368 . S
C2524 C2518 1.368 . S
C2524 C2523 1.523 . S
C2525 C2509 1.429 . S
C2525 C2521 1.429 . S
C2525 C2526 1.523 . S
C2526 C2510 1.368 . S
C2526 C2522 1.368 . S
C2526 C2525 1.523 . S
H2527 C2502 0.950 . S
H2528 C2504 0.950 . S
H2529 C2505 0.949 . S
H2530 C2507 0.950 . S
H2531 C2509 0.950 . S
C2532 C2533 1.349 . S
C2532 C2534 1.327 . S
C2532 H2557 0.950 . S
C2533 C2532 1.349 . S
C2533 C2549 1.349 . S
C2534 C2532 1.327 . S
C2534 C2553 1.429 . S
C2534 H2558 0.950 . S
C2535 C2552 1.574 . S
C2535 C2554 1.368 . S
C2535 H2559 0.949 . S
H2536 C2540 0.949 . S
C2537 C2538 1.349 . S
C2537 C2539 1.327 . S
C2537 H2560 0.950 . S
C2538 C2537 1.349 . S
C2538 C2550 1.349 . S
C2539 C2537 1.327 . S
C2539 C2555 1.429 . S
C2539 H2561 0.950 . S
C2540 H2536 0.949 . S
C2540 C2548 1.574 . S
C2540 C2556 1.368 . S
H2541 C2549 0.950 . S
H2542 C2547 0.950 . S
H2543 C2548 0.949 . S
H2544 C2550 0.950 . S
H2545 C2551 0.950 . S
H2546 C2552 0.949 . S
C2547 H2542 0.950 . S
C2547 C2549 1.327 . S
C2547 C2553 1.429 . S
C2548 C2540 1.574 . S
C2548 H2543 0.949 . S
C2548 C2554 1.368 . S
C2549 C2533 1.349 . S
C2549 H2541 0.950 . S
C2549 C2547 1.327 . S
C2550 C2538 1.349 . S
C2550 H2544 0.950 . S
C2550 C2551 1.327 . S
C2551 H2545 0.950 . S
C2551 C2550 1.327 . S
C2551 C2555 1.429 . S
C2552 C2535 1.574 . S
C2552 H2546 0.949 . S
C2552 C2556 1.368 . S
C2553 C2534 1.429 . S
C2553 C2547 1.429 . S
C2553 C2554 1.523 . S
C2554 C2535 1.368 . S
C2554 C2548 1.368 . S
C2554 C2553 1.523 . S
C2555 C2539 1.429 . S
C2555 C2551 1.429 . S
C2555 C2556 1.523 . S
C2556 C2540 1.368 . S
C2556 C2552 1.368 . S
C2556 C2555 1.523 . S
H2557 C2532 0.950 . S
H2558 C2534 0.950 . S
H2559 C2535 0.949 . S
H2560 C2537 0.950 . S
H2561 C2539 0.950 . S
C2562 C2563 1.349 . S
C2562 C2564 1.327 . S
C2562 H2587 0.950 . S
C2563 C2562 1.349 . S
C2563 C2579 1.349 . S
C2564 C2562 1.327 . S
C2564 C2583 1.429 . S
C2564 H2588 0.950 . S
C2565 C2582 1.574 . S
C2565 C2584 1.368 . S
C2565 H2589 0.949 . S
H2566 C2570 0.949 . S
C2567 C2568 1.349 . S
C2567 C2569 1.327 . S
C2567 H2590 0.950 . S
C2568 C2567 1.349 . S
C2568 C2580 1.349 . S
C2569 C2567 1.327 . S
C2569 C2585 1.429 . S
C2569 H2591 0.950 . S
C2570 H2566 0.949 . S
C2570 C2578 1.574 . S
C2570 C2586 1.368 . S
H2571 C2579 0.950 . S
H2572 C2577 0.950 . S
H2573 C2578 0.949 . S
H2574 C2580 0.950 . S
H2575 C2581 0.950 . S
H2576 C2582 0.949 . S
C2577 H2572 0.950 . S
C2577 C2579 1.327 . S
C2577 C2583 1.429 . S
C2578 C2570 1.574 . S
C2578 H2573 0.949 . S
C2578 C2584 1.368 . S
C2579 C2563 1.349 . S
C2579 H2571 0.950 . S
C2579 C2577 1.327 . S
C2580 C2568 1.349 . S
C2580 H2574 0.950 . S
C2580 C2581 1.327 . S
C2581 H2575 0.950 . S
C2581 C2580 1.327 . S
C2581 C2585 1.429 . S
C2582 C2565 1.574 . S
C2582 H2576 0.949 . S
C2582 C2586 1.368 . S
C2583 C2564 1.429 . S
C2583 C2577 1.429 . S
C2583 C2584 1.523 . S
C2584 C2565 1.368 . S
C2584 C2578 1.368 . S
C2584 C2583 1.523 . S
C2585 C2569 1.429 . S
C2585 C2581 1.429 . S
C2585 C2586 1.523 . S
C2586 C2570 1.368 . S
C2586 C2582 1.368 . S
C2586 C2585 1.523 . S
H2587 C2562 0.950 . S
H2588 C2564 0.950 . S
H2589 C2565 0.949 . S
H2590 C2567 0.950 . S
H2591 C2569 0.950 . S
C2592 C2593 1.349 1_554 S
C2592 C2594 1.327 . S
C2592 H2617 0.950 . S
C2593 C2592 1.349 1_556 S
C2593 C2609 1.349 . S
C2594 C2592 1.327 . S
C2594 C2613 1.429 . S
C2594 H2618 0.950 . S
C2595 C2612 1.574 . S
C2595 C2614 1.368 . S
C2595 H2619 0.949 . S
H2596 C2600 0.949 . S
C2597 C2598 1.349 . S
C2597 C2599 1.327 . S
C2597 H2620 0.950 . S
C2598 C2597 1.349 . S
C2598 C2610 1.349 . S
C2599 C2597 1.327 . S
C2599 C2615 1.429 . S
C2599 H2621 0.950 . S
C2600 H2596 0.949 . S
C2600 C2608 1.574 . S
C2600 C2616 1.368 . S
H2601 C2609 0.950 . S
H2602 C2607 0.951 . S
H2603 C2608 0.949 . S
H2604 C2610 0.950 . S
H2605 C2611 0.950 . S
H2606 C2612 0.949 . S
C2607 H2602 0.951 . S
C2607 C2609 1.327 1_554 S
C2607 C2613 1.429 . S
C2608 C2600 1.574 . S
C2608 H2603 0.949 . S
C2608 C2614 1.368 . S
C2609 C2593 1.349 . S
C2609 H2601 0.950 . S
C2609 C2607 1.327 1_556 S
C2610 C2598 1.349 . S
C2610 H2604 0.950 . S
C2610 C2611 1.327 . S
C2611 H2605 0.950 . S
C2611 C2610 1.327 . S
C2611 C2615 1.429 . S
C2612 C2595 1.574 . S
C2612 H2606 0.949 . S
C2612 C2616 1.368 . S
C2613 C2594 1.429 . S
C2613 C2607 1.429 . S
C2613 C2614 1.523 . S
C2614 C2595 1.368 . S
C2614 C2608 1.368 . S
C2614 C2613 1.523 . S
C2615 C2599 1.429 . S
C2615 C2611 1.429 . S
C2615 C2616 1.523 . S
C2616 C2600 1.368 . S
C2616 C2612 1.368 . S
C2616 C2615 1.523 . S
H2617 C2592 0.950 . S
H2618 C2594 0.950 . S
H2619 C2595 0.949 . S
H2620 C2597 0.950 . S
H2621 C2599 0.950 . S
C2622 C2623 1.349 . S
C2622 C2624 1.327 . S
C2622 H2647 0.950 . S
C2623 C2622 1.349 . S
C2623 C2639 1.349 . S
C2624 C2622 1.327 . S
C2624 C2643 1.429 . S
C2624 H2648 0.950 . S
C2625 C2642 1.574 . S
C2625 C2644 1.368 . S
C2625 H2649 0.949 . S
H2626 C2630 0.949 . S
C2627 C2628 1.349 . S
C2627 C2629 1.327 . S
C2627 H2650 0.950 . S
C2628 C2627 1.349 . S
C2628 C2640 1.349 . S
C2629 C2627 1.327 . S
C2629 C2645 1.429 . S
C2629 H2651 0.950 . S
C2630 H2626 0.949 . S
C2630 C2638 1.574 . S
C2630 C2646 1.368 . S
H2631 C2639 0.950 . S
H2632 C2637 0.950 . S
H2633 C2638 0.949 . S
H2634 C2640 0.950 . S
H2635 C2641 0.950 . S
H2636 C2642 0.949 . S
C2637 H2632 0.950 . S
C2637 C2639 1.327 . S
C2637 C2643 1.429 . S
C2638 C2630 1.574 . S
C2638 H2633 0.949 . S
C2638 C2644 1.368 . S
C2639 C2623 1.349 . S
C2639 H2631 0.950 . S
C2639 C2637 1.327 . S
C2640 C2628 1.349 . S
C2640 H2634 0.950 . S
C2640 C2641 1.327 . S
C2641 H2635 0.950 . S
C2641 C2640 1.327 . S
C2641 C2645 1.429 . S
C2642 C2625 1.574 . S
C2642 H2636 0.949 . S
C2642 C2646 1.368 . S
C2643 C2624 1.429 . S
C2643 C2637 1.429 . S
C2643 C2644 1.523 . S
C2644 C2625 1.368 . S
C2644 C2638 1.368 . S
C2644 C2643 1.523 . S
C2645 C2629 1.429 . S
C2645 C2641 1.429 . S
C2645 C2646 1.523 . S
C2646 C2630 1.368 . S
C2646 C2642 1.368 . S
C2646 C2645 1.523 . S
H2647 C2622 0.950 . S
H2648 C2624 0.950 . S
H2649 C2625 0.949 . S
H2650 C2627 0.950 . S
H2651 C2629 0.950 . S
C2652 C2653 1.349 . S
C2652 C2654 1.327 . S
C2652 H2677 0.950 . S
C2653 C2652 1.349 . S
C2653 C2669 1.349 . S
C2654 C2652 1.327 . S
C2654 C2673 1.429 . S
C2654 H2678 0.950 . S
C2655 C2672 1.574 . S
C2655 C2674 1.368 . S
C2655 H2679 0.949 . S
H2656 C2660 0.949 . S
C2657 C2658 1.349 . S
C2657 C2659 1.327 . S
C2657 H2680 0.950 . S
C2658 C2657 1.349 . S
C2658 C2670 1.349 . S
C2659 C2657 1.327 . S
C2659 C2675 1.429 . S
C2659 H2681 0.950 . S
C2660 H2656 0.949 . S
C2660 C2668 1.574 . S
C2660 C2676 1.368 . S
H2661 C2669 0.950 . S
H2662 C2667 0.950 . S
H2663 C2668 0.949 . S
H2664 C2670 0.950 . S
H2665 C2671 0.950 . S
H2666 C2672 0.949 . S
C2667 H2662 0.950 . S
C2667 C2669 1.327 . S
C2667 C2673 1.429 . S
C2668 C2660 1.574 . S
C2668 H2663 0.949 . S
C2668 C2674 1.368 . S
C2669 C2653 1.349 . S
C2669 H2661 0.950 . S
C2669 C2667 1.327 . S
C2670 C2658 1.349 . S
C2670 H2664 0.950 . S
C2670 C2671 1.327 . S
C2671 H2665 0.950 . S
C2671 C2670 1.327 . S
C2671 C2675 1.429 . S
C2672 C2655 1.574 . S
C2672 H2666 0.949 . S
C2672 C2676 1.368 . S
C2673 C2654 1.429 . S
C2673 C2667 1.429 . S
C2673 C2674 1.523 . S
C2674 C2655 1.368 . S
C2674 C2668 1.368 . S
C2674 C2673 1.523 . S
C2675 C2659 1.429 . S
C2675 C2671 1.429 . S
C2675 C2676 1.523 . S
C2676 C2660 1.368 . S
C2676 C2672 1.368 . S
C2676 C2675 1.523 . S
H2677 C2652 0.950 . S
H2678 C2654 0.950 . S
H2679 C2655 0.949 . S
H2680 C2657 0.950 . S
H2681 C2659 0.950 . S
C2682 C2683 1.349 . S
C2682 C2684 1.327 . S
C2682 H2707 0.950 . S
C2683 C2682 1.349 . S
C2683 C2699 1.349 . S
C2684 C2682 1.327 . S
C2684 C2703 1.429 . S
C2684 H2708 0.950 . S
C2685 C2702 1.574 . S
C2685 C2704 1.368 . S
C2685 H2709 0.949 . S
H2686 C2690 0.949 . S
C2687 C2688 1.349 . S
C2687 C2689 1.327 . S
C2687 H2710 0.950 . S
C2688 C2687 1.349 . S
C2688 C2700 1.349 . S
C2689 C2687 1.327 . S
C2689 C2705 1.429 . S
C2689 H2711 0.950 . S
C2690 H2686 0.949 . S
C2690 C2698 1.574 . S
C2690 C2706 1.368 . S
H2691 C2699 0.950 . S
H2692 C2697 0.950 . S
H2693 C2698 0.949 . S
H2694 C2700 0.950 . S
H2695 C2701 0.950 . S
H2696 C2702 0.949 . S
C2697 H2692 0.950 . S
C2697 C2699 1.327 . S
C2697 C2703 1.429 . S
C2698 C2690 1.574 . S
C2698 H2693 0.949 . S
C2698 C2704 1.368 . S
C2699 C2683 1.349 . S
C2699 H2691 0.950 . S
C2699 C2697 1.327 . S
C2700 C2688 1.349 . S
C2700 H2694 0.950 . S
C2700 C2701 1.327 . S
C2701 H2695 0.950 . S
C2701 C2700 1.327 . S
C2701 C2705 1.429 . S
C2702 C2685 1.574 . S
C2702 H2696 0.949 . S
C2702 C2706 1.368 . S
C2703 C2684 1.429 . S
C2703 C2697 1.429 . S
C2703 C2704 1.523 . S
C2704 C2685 1.368 . S
C2704 C2698 1.368 . S
C2704 C2703 1.523 . S
C2705 C2689 1.429 . S
C2705 C2701 1.429 . S
C2705 C2706 1.523 . S
C2706 C2690 1.368 . S
C2706 C2702 1.368 . S
C2706 C2705 1.523 . S
H2707 C2682 0.950 . S
H2708 C2684 0.950 . S
H2709 C2685 0.949 . S
H2710 C2687 0.950 . S
H2711 C2689 0.950 . S
C2712 C2713 1.349 . S
C2712 C2714 1.327 . S
C2712 H2737 0.950 . S
C2713 C2712 1.349 . S
C2713 C2729 1.349 . S
C2714 C2712 1.327 . S
C2714 C2733 1.429 . S
C2714 H2738 0.950 . S
C2715 C2732 1.574 . S
C2715 C2734 1.368 . S
C2715 H2739 0.949 . S
H2716 C2720 0.949 . S
C2717 C2718 1.349 . S
C2717 C2719 1.327 . S
C2717 H2740 0.950 . S
C2718 C2717 1.349 . S
C2718 C2730 1.349 . S
C2719 C2717 1.327 . S
C2719 C2735 1.429 . S
C2719 H2741 0.950 . S
C2720 H2716 0.949 . S
C2720 C2728 1.574 . S
C2720 C2736 1.368 . S
H2721 C2729 0.950 . S
H2722 C2727 0.950 . S
H2723 C2728 0.949 . S
H2724 C2730 0.950 . S
H2725 C2731 0.950 . S
H2726 C2732 0.949 . S
C2727 H2722 0.950 . S
C2727 C2729 1.327 . S
C2727 C2733 1.429 . S
C2728 C2720 1.574 . S
C2728 H2723 0.949 . S
C2728 C2734 1.368 . S
C2729 C2713 1.349 . S
C2729 H2721 0.950 . S
C2729 C2727 1.327 . S
C2730 C2718 1.349 . S
C2730 H2724 0.950 . S
C2730 C2731 1.327 . S
C2731 H2725 0.950 . S
C2731 C2730 1.327 . S
C2731 C2735 1.429 . S
C2732 C2715 1.574 . S
C2732 H2726 0.949 . S
C2732 C2736 1.368 . S
C2733 C2714 1.429 . S
C2733 C2727 1.429 . S
C2733 C2734 1.523 . S
C2734 C2715 1.368 . S
C2734 C2728 1.368 . S
C2734 C2733 1.523 . S
C2735 C2719 1.429 . S
C2735 C2731 1.429 . S
C2735 C2736 1.523 . S
C2736 C2720 1.368 . S
C2736 C2732 1.368 . S
C2736 C2735 1.523 . S
H2737 C2712 0.950 . S
H2738 C2714 0.950 . S
H2739 C2715 0.949 . S
H2740 C2717 0.950 . S
H2741 C2719 0.950 . S
C2742 C2743 1.349 . S
C2742 C2744 1.327 . S
C2742 H2767 0.950 . S
C2743 C2742 1.349 . S
C2743 C2759 1.349 . S
C2744 C2742 1.327 . S
C2744 C2763 1.429 . S
C2744 H2768 0.950 . S
C2745 C2762 1.574 . S
C2745 C2764 1.368 . S
C2745 H2769 0.949 . S
H2746 C2750 0.949 . S
C2747 C2748 1.349 . S
C2747 C2749 1.327 . S
C2747 H2770 0.950 . S
C2748 C2747 1.349 . S
C2748 C2760 1.349 . S
C2749 C2747 1.327 . S
C2749 C2765 1.429 . S
C2749 H2771 0.950 . S
C2750 H2746 0.949 . S
C2750 C2758 1.574 . S
C2750 C2766 1.368 . S
H2751 C2759 0.950 . S
H2752 C2757 0.950 . S
H2753 C2758 0.949 . S
H2754 C2760 0.950 . S
H2755 C2761 0.950 . S
H2756 C2762 0.949 . S
C2757 H2752 0.950 . S
C2757 C2759 1.327 . S
C2757 C2763 1.429 . S
C2758 C2750 1.574 . S
C2758 H2753 0.949 . S
C2758 C2764 1.368 . S
C2759 C2743 1.349 . S
C2759 H2751 0.950 . S
C2759 C2757 1.327 . S
C2760 C2748 1.349 . S
C2760 H2754 0.950 . S
C2760 C2761 1.327 . S
C2761 H2755 0.950 . S
C2761 C2760 1.327 . S
C2761 C2765 1.429 . S
C2762 C2745 1.574 . S
C2762 H2756 0.949 . S
C2762 C2766 1.368 . S
C2763 C2744 1.429 . S
C2763 C2757 1.429 . S
C2763 C2764 1.523 . S
C2764 C2745 1.368 . S
C2764 C2758 1.368 . S
C2764 C2763 1.523 . S
C2765 C2749 1.429 . S
C2765 C2761 1.429 . S
C2765 C2766 1.523 . S
C2766 C2750 1.368 . S
C2766 C2762 1.368 . S
C2766 C2765 1.523 . S
H2767 C2742 0.950 . S
H2768 C2744 0.950 . S
H2769 C2745 0.949 . S
H2770 C2747 0.950 . S
H2771 C2749 0.950 . S
C2772 C2773 1.349 . S
C2772 C2774 1.327 1_554 S
C2772 H2797 0.950 . S
C2773 C2772 1.349 . S
C2773 C2789 1.349 1_554 S
C2774 C2772 1.327 1_556 S
C2774 C2793 1.429 . S
C2774 H2798 0.950 . S
C2775 C2792 1.574 . S
C2775 C2794 1.368 . S
C2775 H2799 0.949 . S
H2776 C2780 0.949 . S
C2777 C2778 1.349 . S
C2777 C2779 1.327 . S
C2777 H2800 0.950 . S
C2778 C2777 1.349 . S
C2778 C2790 1.349 . S
C2779 C2777 1.327 . S
C2779 C2795 1.429 . S
C2779 H2801 0.950 . S
C2780 H2776 0.949 . S
C2780 C2788 1.574 . S
C2780 C2796 1.368 . S
H2781 C2789 0.950 . S
H2782 C2787 0.950 . S
H2783 C2788 0.949 . S
H2784 C2790 0.950 . S
H2785 C2791 0.950 . S
H2786 C2792 0.949 . S
C2787 H2782 0.950 . S
C2787 C2789 1.327 . S
C2787 C2793 1.429 . S
C2788 C2780 1.574 . S
C2788 H2783 0.949 . S
C2788 C2794 1.368 . S
C2789 C2773 1.349 1_556 S
C2789 H2781 0.950 . S
C2789 C2787 1.327 . S
C2790 C2778 1.349 . S
C2790 H2784 0.950 . S
C2790 C2791 1.327 . S
C2791 H2785 0.950 . S
C2791 C2790 1.327 . S
C2791 C2795 1.429 . S
C2792 C2775 1.574 . S
C2792 H2786 0.949 . S
C2792 C2796 1.368 . S
C2793 C2774 1.429 . S
C2793 C2787 1.429 . S
C2793 C2794 1.523 . S
C2794 C2775 1.368 . S
C2794 C2788 1.368 . S
C2794 C2793 1.523 . S
C2795 C2779 1.429 . S
C2795 C2791 1.429 . S
C2795 C2796 1.523 . S
C2796 C2780 1.368 . S
C2796 C2792 1.368 . S
C2796 C2795 1.523 . S
H2797 C2772 0.950 . S
H2798 C2774 0.950 . S
H2799 C2775 0.949 . S
H2800 C2777 0.950 . S
H2801 C2779 0.950 . S
C2802 C2803 1.349 . S
C2802 C2804 1.327 . S
C2802 H2827 0.950 . S
C2803 C2802 1.349 . S
C2803 C2819 1.349 . S
C2804 C2802 1.327 . S
C2804 C2823 1.429 . S
C2804 H2828 0.950 . S
C2805 C2822 1.574 . S
C2805 C2824 1.368 . S
C2805 H2829 0.949 . S
H2806 C2810 0.949 . S
C2807 C2808 1.349 . S
C2807 C2809 1.327 . S
C2807 H2830 0.950 . S
C2808 C2807 1.349 . S
C2808 C2820 1.349 . S
C2809 C2807 1.327 . S
C2809 C2825 1.429 . S
C2809 H2831 0.950 . S
C2810 H2806 0.949 . S
C2810 C2818 1.574 . S
C2810 C2826 1.368 . S
H2811 C2819 0.950 . S
H2812 C2817 0.950 . S
H2813 C2818 0.949 . S
H2814 C2820 0.950 . S
H2815 C2821 0.950 . S
H2816 C2822 0.949 . S
C2817 H2812 0.950 . S
C2817 C2819 1.327 . S
C2817 C2823 1.429 . S
C2818 C2810 1.574 . S
C2818 H2813 0.949 . S
C2818 C2824 1.368 . S
C2819 C2803 1.349 . S
C2819 H2811 0.950 . S
C2819 C2817 1.327 . S
C2820 C2808 1.349 . S
C2820 H2814 0.950 . S
C2820 C2821 1.327 . S
C2821 H2815 0.950 . S
C2821 C2820 1.327 . S
C2821 C2825 1.429 . S
C2822 C2805 1.574 . S
C2822 H2816 0.949 . S
C2822 C2826 1.368 . S
C2823 C2804 1.429 . S
C2823 C2817 1.429 . S
C2823 C2824 1.523 . S
C2824 C2805 1.368 . S
C2824 C2818 1.368 . S
C2824 C2823 1.523 . S
C2825 C2809 1.429 . S
C2825 C2821 1.429 . S
C2825 C2826 1.523 . S
C2826 C2810 1.368 . S
C2826 C2822 1.368 . S
C2826 C2825 1.523 . S
H2827 C2802 0.950 . S
H2828 C2804 0.950 . S
H2829 C2805 0.949 . S
H2830 C2807 0.950 . S
H2831 C2809 0.950 . S
C2832 C2833 1.349 . S
C2832 C2834 1.327 . S
C2832 H2857 0.950 . S
C2833 C2832 1.349 . S
C2833 C2849 1.349 . S
C2834 C2832 1.327 . S
C2834 C2853 1.429 . S
C2834 H2858 0.950 . S
C2835 C2852 1.574 . S
C2835 C2854 1.368 . S
C2835 H2859 0.949 . S
H2836 C2840 0.949 . S
C2837 C2838 1.349 . S
C2837 C2839 1.327 . S
C2837 H2860 0.950 . S
C2838 C2837 1.349 . S
C2838 C2850 1.349 . S
C2839 C2837 1.327 . S
C2839 C2855 1.429 . S
C2839 H2861 0.950 . S
C2840 H2836 0.949 . S
C2840 C2848 1.574 . S
C2840 C2856 1.368 . S
H2841 C2849 0.950 . S
H2842 C2847 0.950 . S
H2843 C2848 0.949 . S
H2844 C2850 0.950 . S
H2845 C2851 0.950 . S
H2846 C2852 0.949 . S
C2847 H2842 0.950 . S
C2847 C2849 1.327 . S
C2847 C2853 1.429 . S
C2848 C2840 1.574 . S
C2848 H2843 0.949 . S
C2848 C2854 1.368 . S
C2849 C2833 1.349 . S
C2849 H2841 0.950 . S
C2849 C2847 1.327 . S
C2850 C2838 1.349 . S
C2850 H2844 0.950 . S
C2850 C2851 1.327 . S
C2851 H2845 0.950 . S
C2851 C2850 1.327 . S
C2851 C2855 1.429 . S
C2852 C2835 1.574 . S
C2852 H2846 0.949 . S
C2852 C2856 1.368 . S
C2853 C2834 1.429 . S
C2853 C2847 1.429 . S
C2853 C2854 1.523 . S
C2854 C2835 1.368 . S
C2854 C2848 1.368 . S
C2854 C2853 1.523 . S
C2855 C2839 1.429 . S
C2855 C2851 1.429 . S
C2855 C2856 1.523 . S
C2856 C2840 1.368 . S
C2856 C2852 1.368 . S
C2856 C2855 1.523 . S
H2857 C2832 0.950 . S
H2858 C2834 0.950 . S
H2859 C2835 0.949 . S
H2860 C2837 0.950 . S
H2861 C2839 0.950 . S
C2862 C2863 1.349 . S
C2862 C2864 1.327 . S
C2862 H2887 0.950 . S
C2863 C2862 1.349 . S
C2863 C2879 1.349 . S
C2864 C2862 1.327 . S
C2864 C2883 1.429 . S
C2864 H2888 0.950 . S
C2865 C2882 1.574 . S
C2865 C2884 1.368 . S
C2865 H2889 0.949 . S
H2866 C2870 0.949 . S
C2867 C2868 1.349 . S
C2867 C2869 1.327 . S
C2867 H2890 0.950 . S
C2868 C2867 1.349 . S
C2868 C2880 1.349 . S
C2869 C2867 1.327 . S
C2869 C2885 1.429 . S
C2869 H2891 0.950 . S
C2870 H2866 0.949 . S
C2870 C2878 1.574 . S
C2870 C2886 1.368 . S
H2871 C2879 0.950 . S
H2872 C2877 0.950 . S
H2873 C2878 0.949 . S
H2874 C2880 0.950 . S
H2875 C2881 0.950 . S
H2876 C2882 0.949 . S
C2877 H2872 0.950 . S
C2877 C2879 1.327 . S
C2877 C2883 1.429 . S
C2878 C2870 1.574 . S
C2878 H2873 0.949 . S
C2878 C2884 1.368 . S
C2879 C2863 1.349 . S
C2879 H2871 0.950 . S
C2879 C2877 1.327 . S
C2880 C2868 1.349 . S
C2880 H2874 0.950 . S
C2880 C2881 1.327 . S
C2881 H2875 0.950 . S
C2881 C2880 1.327 . S
C2881 C2885 1.429 . S
C2882 C2865 1.574 . S
C2882 H2876 0.949 . S
C2882 C2886 1.368 . S
C2883 C2864 1.429 . S
C2883 C2877 1.429 . S
C2883 C2884 1.523 . S
C2884 C2865 1.368 . S
C2884 C2878 1.368 . S
C2884 C2883 1.523 . S
C2885 C2869 1.429 . S
C2885 C2881 1.429 . S
C2885 C2886 1.523 . S
C2886 C2870 1.368 . S
C2886 C2882 1.368 . S
C2886 C2885 1.523 . S
H2887 C2862 0.950 . S
H2888 C2864 0.950 . S
H2889 C2865 0.949 . S
H2890 C2867 0.950 . S
H2891 C2869 0.950 . S
C2892 C2893 1.349 . S
C2892 C2894 1.327 . S
C2892 H2917 0.950 . S
C2893 C2892 1.349 . S
C2893 C2909 1.349 . S
C2894 C2892 1.327 . S
C2894 C2913 1.429 . S
C2894 H2918 0.950 . S
C2895 C2912 1.574 . S
C2895 C2914 1.368 . S
C2895 H2919 0.949 . S
H2896 C2900 0.949 . S
C2897 C2898 1.349 . S
C2897 C2899 1.327 . S
C2897 H2920 0.950 . S
C2898 C2897 1.349 . S
C2898 C2910 1.349 . S
C2899 C2897 1.327 . S
C2899 C2915 1.429 . S
C2899 H2921 0.950 . S
C2900 H2896 0.949 . S
C2900 C2908 1.574 . S
C2900 C2916 1.368 . S
H2901 C2909 0.950 . S
H2902 C2907 0.950 . S
H2903 C2908 0.949 . S
H2904 C2910 0.950 . S
H2905 C2911 0.950 . S
H2906 C2912 0.949 . S
C2907 H2902 0.950 . S
C2907 C2909 1.327 . S
C2907 C2913 1.429 . S
C2908 C2900 1.574 . S
C2908 H2903 0.949 . S
C2908 C2914 1.368 . S
C2909 C2893 1.349 . S
C2909 H2901 0.950 . S
C2909 C2907 1.327 . S
C2910 C2898 1.349 . S
C2910 H2904 0.950 . S
C2910 C2911 1.327 . S
C2911 H2905 0.950 . S
C2911 C2910 1.327 . S
C2911 C2915 1.429 . S
C2912 C2895 1.574 . S
C2912 H2906 0.949 . S
C2912 C2916 1.368 . S
C2913 C2894 1.429 . S
C2913 C2907 1.429 . S
C2913 C2914 1.523 . S
C2914 C2895 1.368 . S
C2914 C2908 1.368 . S
C2914 C2913 1.523 . S
C2915 C2899 1.429 . S
C2915 C2911 1.429 . S
C2915 C2916 1.523 . S
C2916 C2900 1.368 . S
C2916 C2912 1.368 . S
C2916 C2915 1.523 . S
H2917 C2892 0.950 . S
H2918 C2894 0.950 . S
H2919 C2895 0.949 . S
H2920 C2897 0.950 . S
H2921 C2899 0.950 . S
C2922 C2923 1.349 . S
C2922 C2924 1.327 . S
C2922 H2947 0.950 . S
C2923 C2922 1.349 . S
C2923 C2939 1.349 . S
C2924 C2922 1.327 . S
C2924 C2943 1.429 . S
C2924 H2948 0.950 . S
C2925 C2942 1.574 . S
C2925 C2944 1.368 . S
C2925 H2949 0.949 . S
H2926 C2930 0.949 . S
C2927 C2928 1.349 . S
C2927 C2929 1.327 . S
C2927 H2950 0.950 . S
C2928 C2927 1.349 . S
C2928 C2940 1.349 . S
C2929 C2927 1.327 . S
C2929 C2945 1.429 . S
C2929 H2951 0.950 . S
C2930 H2926 0.949 . S
C2930 C2938 1.574 . S
C2930 C2946 1.368 . S
H2931 C2939 0.950 . S
H2932 C2937 0.950 . S
H2933 C2938 0.949 . S
H2934 C2940 0.950 . S
H2935 C2941 0.950 . S
H2936 C2942 0.949 . S
C2937 H2932 0.950 . S
C2937 C2939 1.327 . S
C2937 C2943 1.429 . S
C2938 C2930 1.574 . S
C2938 H2933 0.949 . S
C2938 C2944 1.368 . S
C2939 C2923 1.349 . S
C2939 H2931 0.950 . S
C2939 C2937 1.327 . S
C2940 C2928 1.349 . S
C2940 H2934 0.950 . S
C2940 C2941 1.327 . S
C2941 H2935 0.950 . S
C2941 C2940 1.327 . S
C2941 C2945 1.429 . S
C2942 C2925 1.574 . S
C2942 H2936 0.949 . S
C2942 C2946 1.368 . S
C2943 C2924 1.429 . S
C2943 C2937 1.429 . S
C2943 C2944 1.523 . S
C2944 C2925 1.368 . S
C2944 C2938 1.368 . S
C2944 C2943 1.523 . S
C2945 C2929 1.429 . S
C2945 C2941 1.429 . S
C2945 C2946 1.523 . S
C2946 C2930 1.368 . S
C2946 C2942 1.368 . S
C2946 C2945 1.523 . S
H2947 C2922 0.950 . S
H2948 C2924 0.950 . S
H2949 C2925 0.949 . S
H2950 C2927 0.950 . S
H2951 C2929 0.950 . S
C2952 C2953 1.349 . S
C2952 C2954 1.327 1_655 S
C2952 H2977 0.950 . S
C2953 C2952 1.349 . S
C2953 C2969 1.349 . S
C2954 C2952 1.327 1_455 S
C2954 C2973 1.429 . S
C2954 H2978 0.950 . S
C2955 C2972 1.574 . S
C2955 C2974 1.368 . S
C2955 H2979 0.949 . S
H2956 C2960 0.949 . S
C2957 C2958 1.349 . S
C2957 C2959 1.327 . S
C2957 H2980 0.950 . S
C2958 C2957 1.349 . S
C2958 C2970 1.349 . S
C2959 C2957 1.327 . S
C2959 C2975 1.429 . S
C2959 H2981 0.950 . S
C2960 H2956 0.949 . S
C2960 C2968 1.574 . S
C2960 C2976 1.368 . S
H2961 C2969 0.950 . S
H2962 C2967 0.950 . S
H2963 C2968 0.949 . S
H2964 C2970 0.950 . S
H2965 C2971 0.950 . S
H2966 C2972 0.949 . S
C2967 H2962 0.950 . S
C2967 C2969 1.327 1_455 S
C2967 C2973 1.429 . S
C2968 C2960 1.574 . S
C2968 H2963 0.949 . S
C2968 C2974 1.368 . S
C2969 C2953 1.349 . S
C2969 H2961 0.950 . S
C2969 C2967 1.327 1_655 S
C2970 C2958 1.349 . S
C2970 H2964 0.950 . S
C2970 C2971 1.327 . S
C2971 H2965 0.950 . S
C2971 C2970 1.327 . S
C2971 C2975 1.429 . S
C2972 C2955 1.574 . S
C2972 H2966 0.949 . S
C2972 C2976 1.368 . S
C2973 C2954 1.429 . S
C2973 C2967 1.429 . S
C2973 C2974 1.523 . S
C2974 C2955 1.368 . S
C2974 C2968 1.368 . S
C2974 C2973 1.523 . S
C2975 C2959 1.429 . S
C2975 C2971 1.429 . S
C2975 C2976 1.523 . S
C2976 C2960 1.368 . S
C2976 C2972 1.368 . S
C2976 C2975 1.523 . S
H2977 C2952 0.950 . S
H2978 C2954 0.950 . S
H2979 C2955 0.949 . S
H2980 C2957 0.950 . S
H2981 C2959 0.950 . S
C2982 C2983 1.349 . S
C2982 C2984 1.327 . S
C2982 H3007 0.950 . S
C2983 C2982 1.349 . S
C2983 C2999 1.349 . S
C2984 C2982 1.327 . S
C2984 C3003 1.429 . S
C2984 H3008 0.950 . S
C2985 C3002 1.574 . S
C2985 C3004 1.368 . S
C2985 H3009 0.949 . S
H2986 C2990 0.949 . S
C2987 C2988 1.349 . S
C2987 C2989 1.327 . S
C2987 H3010 0.950 . S
C2988 C2987 1.349 . S
C2988 C3000 1.349 . S
C2989 C2987 1.327 . S
C2989 C3005 1.429 . S
C2989 H3011 0.950 . S
C2990 H2986 0.949 . S
C2990 C2998 1.574 . S
C2990 C3006 1.368 . S
H2991 C2999 0.950 . S
H2992 C2997 0.950 . S
H2993 C2998 0.949 . S
H2994 C3000 0.950 . S
H2995 C3001 0.950 . S
H2996 C3002 0.949 . S
C2997 H2992 0.950 . S
C2997 C2999 1.327 . S
C2997 C3003 1.429 . S
C2998 C2990 1.574 . S
C2998 H2993 0.949 . S
C2998 C3004 1.368 . S
C2999 C2983 1.349 . S
C2999 H2991 0.950 . S
C2999 C2997 1.327 . S
C3000 C2988 1.349 . S
C3000 H2994 0.950 . S
C3000 C3001 1.327 . S
C3001 H2995 0.950 . S
C3001 C3000 1.327 . S
C3001 C3005 1.429 . S
C3002 C2985 1.574 . S
C3002 H2996 0.949 . S
C3002 C3006 1.368 . S
C3003 C2984 1.429 . S
C3003 C2997 1.429 . S
C3003 C3004 1.523 . S
C3004 C2985 1.368 . S
C3004 C2998 1.368 . S
C3004 C3003 1.523 . S
C3005 C2989 1.429 . S
C3005 C3001 1.429 . S
C3005 C3006 1.523 . S
C3006 C2990 1.368 . S
C3006 C3002 1.368 . S
C3006 C3005 1.523 . S
H3007 C2982 0.950 . S
H3008 C2984 0.950 . S
H3009 C2985 0.949 . S
H3010 C2987 0.950 . S
H3011 C2989 0.950 . S
C3012 C3013 1.349 . S
C3012 C3014 1.327 . S
C3012 H3037 0.950 . S
C3013 C3012 1.349 . S
C3013 C3029 1.349 . S
C3014 C3012 1.327 . S
C3014 C3033 1.429 . S
C3014 H3038 0.950 . S
C3015 C3032 1.574 . S
C3015 C3034 1.368 . S
C3015 H3039 0.949 . S
H3016 C3020 0.949 . S
C3017 C3018 1.349 . S
C3017 C3019 1.327 . S
C3017 H3040 0.950 . S
C3018 C3017 1.349 . S
C3018 C3030 1.349 . S
C3019 C3017 1.327 . S
C3019 C3035 1.429 . S
C3019 H3041 0.950 . S
C3020 H3016 0.949 . S
C3020 C3028 1.574 . S
C3020 C3036 1.368 . S
H3021 C3029 0.950 . S
H3022 C3027 0.950 . S
H3023 C3028 0.949 . S
H3024 C3030 0.950 . S
H3025 C3031 0.950 . S
H3026 C3032 0.949 . S
C3027 H3022 0.950 . S
C3027 C3029 1.327 . S
C3027 C3033 1.429 . S
C3028 C3020 1.574 . S
C3028 H3023 0.949 . S
C3028 C3034 1.368 . S
C3029 C3013 1.349 . S
C3029 H3021 0.950 . S
C3029 C3027 1.327 . S
C3030 C3018 1.349 . S
C3030 H3024 0.950 . S
C3030 C3031 1.327 . S
C3031 H3025 0.950 . S
C3031 C3030 1.327 . S
C3031 C3035 1.429 . S
C3032 C3015 1.574 . S
C3032 H3026 0.949 . S
C3032 C3036 1.368 . S
C3033 C3014 1.429 . S
C3033 C3027 1.429 . S
C3033 C3034 1.523 . S
C3034 C3015 1.368 . S
C3034 C3028 1.368 . S
C3034 C3033 1.523 . S
C3035 C3019 1.429 . S
C3035 C3031 1.429 . S
C3035 C3036 1.523 . S
C3036 C3020 1.368 . S
C3036 C3032 1.368 . S
C3036 C3035 1.523 . S
H3037 C3012 0.950 . S
H3038 C3014 0.950 . S
H3039 C3015 0.949 . S
H3040 C3017 0.950 . S
H3041 C3019 0.950 . S
C3042 C3043 1.349 . S
C3042 C3044 1.327 . S
C3042 H3067 0.950 . S
C3043 C3042 1.349 . S
C3043 C3059 1.349 . S
C3044 C3042 1.327 . S
C3044 C3063 1.429 . S
C3044 H3068 0.950 . S
C3045 C3062 1.574 . S
C3045 C3064 1.368 . S
C3045 H3069 0.949 . S
H3046 C3050 0.949 . S
C3047 C3048 1.349 . S
C3047 C3049 1.327 . S
C3047 H3070 0.950 . S
C3048 C3047 1.349 . S
C3048 C3060 1.349 . S
C3049 C3047 1.327 . S
C3049 C3065 1.429 . S
C3049 H3071 0.950 . S
C3050 H3046 0.949 . S
C3050 C3058 1.574 . S
C3050 C3066 1.368 . S
H3051 C3059 0.950 . S
H3052 C3057 0.950 . S
H3053 C3058 0.949 . S
H3054 C3060 0.950 . S
H3055 C3061 0.950 . S
H3056 C3062 0.949 . S
C3057 H3052 0.950 . S
C3057 C3059 1.327 . S
C3057 C3063 1.429 . S
C3058 C3050 1.574 . S
C3058 H3053 0.949 . S
C3058 C3064 1.368 . S
C3059 C3043 1.349 . S
C3059 H3051 0.950 . S
C3059 C3057 1.327 . S
C3060 C3048 1.349 . S
C3060 H3054 0.950 . S
C3060 C3061 1.327 . S
C3061 H3055 0.950 . S
C3061 C3060 1.327 . S
C3061 C3065 1.429 . S
C3062 C3045 1.574 . S
C3062 H3056 0.949 . S
C3062 C3066 1.368 . S
C3063 C3044 1.429 . S
C3063 C3057 1.429 . S
C3063 C3064 1.523 . S
C3064 C3045 1.368 . S
C3064 C3058 1.368 . S
C3064 C3063 1.523 . S
C3065 C3049 1.429 . S
C3065 C3061 1.429 . S
C3065 C3066 1.523 . S
C3066 C3050 1.368 . S
C3066 C3062 1.368 . S
C3066 C3065 1.523 . S
H3067 C3042 0.950 . S
H3068 C3044 0.950 . S
H3069 C3045 0.949 . S
H3070 C3047 0.950 . S
H3071 C3049 0.950 . S
C3072 C3073 1.349 . S
C3072 C3074 1.327 . S
C3072 H3097 0.950 . S
C3073 C3072 1.349 . S
C3073 C3089 1.349 . S
C3074 C3072 1.327 . S
C3074 C3093 1.429 . S
C3074 H3098 0.950 . S
C3075 C3092 1.574 . S
C3075 C3094 1.368 . S
C3075 H3099 0.949 . S
H3076 C3080 0.949 . S
C3077 C3078 1.349 . S
C3077 C3079 1.327 . S
C3077 H3100 0.950 . S
C3078 C3077 1.349 . S
C3078 C3090 1.349 . S
C3079 C3077 1.327 . S
C3079 C3095 1.429 . S
C3079 H3101 0.950 . S
C3080 H3076 0.949 . S
C3080 C3088 1.574 . S
C3080 C3096 1.368 . S
H3081 C3089 0.950 . S
H3082 C3087 0.950 . S
H3083 C3088 0.949 . S
H3084 C3090 0.950 . S
H3085 C3091 0.950 . S
H3086 C3092 0.949 . S
C3087 H3082 0.950 . S
C3087 C3089 1.327 . S
C3087 C3093 1.429 . S
C3088 C3080 1.574 . S
C3088 H3083 0.949 . S
C3088 C3094 1.368 . S
C3089 C3073 1.349 . S
C3089 H3081 0.950 . S
C3089 C3087 1.327 . S
C3090 C3078 1.349 . S
C3090 H3084 0.950 . S
C3090 C3091 1.327 . S
C3091 H3085 0.950 . S
C3091 C3090 1.327 . S
C3091 C3095 1.429 . S
C3092 C3075 1.574 . S
C3092 H3086 0.949 . S
C3092 C3096 1.368 . S
C3093 C3074 1.429 . S
C3093 C3087 1.429 . S
C3093 C3094 1.523 . S
C3094 C3075 1.368 . S
C3094 C3088 1.368 . S
C3094 C3093 1.523 . S
C3095 C3079 1.429 . S
C3095 C3091 1.429 . S
C3095 C3096 1.523 . S
C3096 C3080 1.368 . S
C3096 C3092 1.368 . S
C3096 C3095 1.523 . S
H3097 C3072 0.950 . S
H3098 C3074 0.950 . S
H3099 C3075 0.949 . S
H3100 C3077 0.950 . S
H3101 C3079 0.950 . S
C3102 C3103 1.349 . S
C3102 C3104 1.327 . S
C3102 H3127 0.950 . S
C3103 C3102 1.349 . S
C3103 C3119 1.349 . S
C3104 C3102 1.327 . S
C3104 C3123 1.429 . S
C3104 H3128 0.950 . S
C3105 C3122 1.574 . S
C3105 C3124 1.368 . S
C3105 H3129 0.949 . S
H3106 C3110 0.949 . S
C3107 C3108 1.349 . S
C3107 C3109 1.327 . S
C3107 H3130 0.950 . S
C3108 C3107 1.349 . S
C3108 C3120 1.349 . S
C3109 C3107 1.327 . S
C3109 C3125 1.429 . S
C3109 H3131 0.950 . S
C3110 H3106 0.949 . S
C3110 C3118 1.574 . S
C3110 C3126 1.368 . S
H3111 C3119 0.950 . S
H3112 C3117 0.950 . S
H3113 C3118 0.949 . S
H3114 C3120 0.950 . S
H3115 C3121 0.950 . S
H3116 C3122 0.949 . S
C3117 H3112 0.950 . S
C3117 C3119 1.327 . S
C3117 C3123 1.429 . S
C3118 C3110 1.574 . S
C3118 H3113 0.949 . S
C3118 C3124 1.368 . S
C3119 C3103 1.349 . S
C3119 H3111 0.950 . S
C3119 C3117 1.327 . S
C3120 C3108 1.349 . S
C3120 H3114 0.950 . S
C3120 C3121 1.327 . S
C3121 H3115 0.950 . S
C3121 C3120 1.327 . S
C3121 C3125 1.429 . S
C3122 C3105 1.574 . S
C3122 H3116 0.949 . S
C3122 C3126 1.368 . S
C3123 C3104 1.429 . S
C3123 C3117 1.429 . S
C3123 C3124 1.523 . S
C3124 C3105 1.368 . S
C3124 C3118 1.368 . S
C3124 C3123 1.523 . S
C3125 C3109 1.429 . S
C3125 C3121 1.429 . S
C3125 C3126 1.523 . S
C3126 C3110 1.368 . S
C3126 C3122 1.368 . S
C3126 C3125 1.523 . S
H3127 C3102 0.950 . S
H3128 C3104 0.950 . S
H3129 C3105 0.949 . S
H3130 C3107 0.950 . S
H3131 C3109 0.950 . S
C3132 C3133 1.349 . S
C3132 C3134 1.327 . S
C3132 H3157 0.950 . S
C3133 C3132 1.349 . S
C3133 C3149 1.349 . S
C3134 C3132 1.327 . S
C3134 C3153 1.429 . S
C3134 H3158 0.950 . S
C3135 C3152 1.574 . S
C3135 C3154 1.368 . S
C3135 H3159 0.949 . S
H3136 C3140 0.949 . S
C3137 C3138 1.349 . S
C3137 C3139 1.327 . S
C3137 H3160 0.950 . S
C3138 C3137 1.349 . S
C3138 C3150 1.349 . S
C3139 C3137 1.327 . S
C3139 C3155 1.429 . S
C3139 H3161 0.950 . S
C3140 H3136 0.949 . S
C3140 C3148 1.574 . S
C3140 C3156 1.368 . S
H3141 C3149 0.950 . S
H3142 C3147 0.950 . S
H3143 C3148 0.949 . S
H3144 C3150 0.950 . S
H3145 C3151 0.950 . S
H3146 C3152 0.949 . S
C3147 H3142 0.950 . S
C3147 C3149 1.327 . S
C3147 C3153 1.429 . S
C3148 C3140 1.574 . S
C3148 H3143 0.949 . S
C3148 C3154 1.368 . S
C3149 C3133 1.349 . S
C3149 H3141 0.950 . S
C3149 C3147 1.327 . S
C3150 C3138 1.349 . S
C3150 H3144 0.950 . S
C3150 C3151 1.327 . S
C3151 H3145 0.950 . S
C3151 C3150 1.327 . S
C3151 C3155 1.429 . S
C3152 C3135 1.574 . S
C3152 H3146 0.949 . S
C3152 C3156 1.368 . S
C3153 C3134 1.429 . S
C3153 C3147 1.429 . S
C3153 C3154 1.523 . S
C3154 C3135 1.368 . S
C3154 C3148 1.368 . S
C3154 C3153 1.523 . S
C3155 C3139 1.429 . S
C3155 C3151 1.429 . S
C3155 C3156 1.523 . S
C3156 C3140 1.368 . S
C3156 C3152 1.368 . S
C3156 C3155 1.523 . S
H3157 C3132 0.950 . S
H3158 C3134 0.950 . S
H3159 C3135 0.949 . S
H3160 C3137 0.950 . S
H3161 C3139 0.950 . S
C3162 C3163 1.349 . S
C3162 C3164 1.327 . S
C3162 H3187 0.950 . S
C3163 C3162 1.349 . S
C3163 C3179 1.349 . S
C3164 C3162 1.327 . S
C3164 C3183 1.429 . S
C3164 H3188 0.950 . S
C3165 C3182 1.574 . S
C3165 C3184 1.368 . S
C3165 H3189 0.949 . S
H3166 C3170 0.949 . S
C3167 C3168 1.349 . S
C3167 C3169 1.327 . S
C3167 H3190 0.950 . S
C3168 C3167 1.349 . S
C3168 C3180 1.349 . S
C3169 C3167 1.327 . S
C3169 C3185 1.429 . S
C3169 H3191 0.950 . S
C3170 H3166 0.949 . S
C3170 C3178 1.574 . S
C3170 C3186 1.368 . S
H3171 C3179 0.950 . S
H3172 C3177 0.950 . S
H3173 C3178 0.949 . S
H3174 C3180 0.950 . S
H3175 C3181 0.950 . S
H3176 C3182 0.949 . S
C3177 H3172 0.950 . S
C3177 C3179 1.327 . S
C3177 C3183 1.429 . S
C3178 C3170 1.574 . S
C3178 H3173 0.949 . S
C3178 C3184 1.368 . S
C3179 C3163 1.349 . S
C3179 H3171 0.950 . S
C3179 C3177 1.327 . S
C3180 C3168 1.349 . S
C3180 H3174 0.950 . S
C3180 C3181 1.327 . S
C3181 H3175 0.950 . S
C3181 C3180 1.327 . S
C3181 C3185 1.429 . S
C3182 C3165 1.574 . S
C3182 H3176 0.949 . S
C3182 C3186 1.368 . S
C3183 C3164 1.429 . S
C3183 C3177 1.429 . S
C3183 C3184 1.523 . S
C3184 C3165 1.368 . S
C3184 C3178 1.368 . S
C3184 C3183 1.523 . S
C3185 C3169 1.429 . S
C3185 C3181 1.429 . S
C3185 C3186 1.523 . S
C3186 C3170 1.368 . S
C3186 C3182 1.368 . S
C3186 C3185 1.523 . S
H3187 C3162 0.950 . S
H3188 C3164 0.950 . S
H3189 C3165 0.949 . S
H3190 C3167 0.950 . S
H3191 C3169 0.950 . S
C3192 C3193 1.349 . S
C3192 C3194 1.327 . S
C3192 H3217 0.950 . S
C3193 C3192 1.349 . S
C3193 C3209 1.349 . S
C3194 C3192 1.327 . S
C3194 C3213 1.429 . S
C3194 H3218 0.950 . S
C3195 C3212 1.574 . S
C3195 C3214 1.368 . S
C3195 H3219 0.949 . S
H3196 C3200 0.949 . S
C3197 C3198 1.349 . S
C3197 C3199 1.327 . S
C3197 H3220 0.950 . S
C3198 C3197 1.349 . S
C3198 C3210 1.349 . S
C3199 C3197 1.327 . S
C3199 C3215 1.429 . S
C3199 H3221 0.950 . S
C3200 H3196 0.949 . S
C3200 C3208 1.574 . S
C3200 C3216 1.368 . S
H3201 C3209 0.950 . S
H3202 C3207 0.950 . S
H3203 C3208 0.949 . S
H3204 C3210 0.950 . S
H3205 C3211 0.950 . S
H3206 C3212 0.949 . S
C3207 H3202 0.950 . S
C3207 C3209 1.327 . S
C3207 C3213 1.429 . S
C3208 C3200 1.574 . S
C3208 H3203 0.949 . S
C3208 C3214 1.368 . S
C3209 C3193 1.349 . S
C3209 H3201 0.950 . S
C3209 C3207 1.327 . S
C3210 C3198 1.349 . S
C3210 H3204 0.950 . S
C3210 C3211 1.327 . S
C3211 H3205 0.950 . S
C3211 C3210 1.327 . S
C3211 C3215 1.429 . S
C3212 C3195 1.574 . S
C3212 H3206 0.949 . S
C3212 C3216 1.368 . S
C3213 C3194 1.429 . S
C3213 C3207 1.429 . S
C3213 C3214 1.523 . S
C3214 C3195 1.368 . S
C3214 C3208 1.368 . S
C3214 C3213 1.523 . S
C3215 C3199 1.429 . S
C3215 C3211 1.429 . S
C3215 C3216 1.523 . S
C3216 C3200 1.368 . S
C3216 C3212 1.368 . S
C3216 C3215 1.523 . S
H3217 C3192 0.950 . S
H3218 C3194 0.950 . S
H3219 C3195 0.949 . S
H3220 C3197 0.950 . S
H3221 C3199 0.950 . S
C3222 C3223 1.349 . S
C3222 C3224 1.327 . S
C3222 H3247 0.950 . S
C3223 C3222 1.349 . S
C3223 C3239 1.349 . S
C3224 C3222 1.327 . S
C3224 C3243 1.429 . S
C3224 H3248 0.950 . S
C3225 C3242 1.574 . S
C3225 C3244 1.368 . S
C3225 H3249 0.949 . S
H3226 C3230 0.949 . S
C3227 C3228 1.349 . S
C3227 C3229 1.327 . S
C3227 H3250 0.950 . S
C3228 C3227 1.349 . S
C3228 C3240 1.349 . S
C3229 C3227 1.327 . S
C3229 C3245 1.429 . S
C3229 H3251 0.950 . S
C3230 H3226 0.949 . S
C3230 C3238 1.574 . S
C3230 C3246 1.368 . S
H3231 C3239 0.950 . S
H3232 C3237 0.950 . S
H3233 C3238 0.949 . S
H3234 C3240 0.950 . S
H3235 C3241 0.950 . S
H3236 C3242 0.949 . S
C3237 H3232 0.950 . S
C3237 C3239 1.327 . S
C3237 C3243 1.429 . S
C3238 C3230 1.574 . S
C3238 H3233 0.949 . S
C3238 C3244 1.368 . S
C3239 C3223 1.349 . S
C3239 H3231 0.950 . S
C3239 C3237 1.327 . S
C3240 C3228 1.349 . S
C3240 H3234 0.950 . S
C3240 C3241 1.327 . S
C3241 H3235 0.950 . S
C3241 C3240 1.327 . S
C3241 C3245 1.429 . S
C3242 C3225 1.574 . S
C3242 H3236 0.949 . S
C3242 C3246 1.368 . S
C3243 C3224 1.429 . S
C3243 C3237 1.429 . S
C3243 C3244 1.523 . S
C3244 C3225 1.368 . S
C3244 C3238 1.368 . S
C3244 C3243 1.523 . S
C3245 C3229 1.429 . S
C3245 C3241 1.429 . S
C3245 C3246 1.523 . S
C3246 C3230 1.368 . S
C3246 C3242 1.368 . S
C3246 C3245 1.523 . S
H3247 C3222 0.950 . S
H3248 C3224 0.950 . S
H3249 C3225 0.949 . S
H3250 C3227 0.950 . S
H3251 C3229 0.950 . S
C3252 C3253 1.349 . S
C3252 C3254 1.327 . S
C3252 H3277 0.950 . S
C3253 C3252 1.349 . S
C3253 C3269 1.349 . S
C3254 C3252 1.327 . S
C3254 C3273 1.429 . S
C3254 H3278 0.950 . S
C3255 C3272 1.574 . S
C3255 C3274 1.368 . S
C3255 H3279 0.949 . S
H3256 C3260 0.949 . S
C3257 C3258 1.349 . S
C3257 C3259 1.327 . S
C3257 H3280 0.950 . S
C3258 C3257 1.349 . S
C3258 C3270 1.349 . S
C3259 C3257 1.327 . S
C3259 C3275 1.429 . S
C3259 H3281 0.950 . S
C3260 H3256 0.949 . S
C3260 C3268 1.574 . S
C3260 C3276 1.368 . S
H3261 C3269 0.950 . S
H3262 C3267 0.950 . S
H3263 C3268 0.949 . S
H3264 C3270 0.950 . S
H3265 C3271 0.950 . S
H3266 C3272 0.949 . S
C3267 H3262 0.950 . S
C3267 C3269 1.327 . S
C3267 C3273 1.429 . S
C3268 C3260 1.574 . S
C3268 H3263 0.949 . S
C3268 C3274 1.368 . S
C3269 C3253 1.349 . S
C3269 H3261 0.950 . S
C3269 C3267 1.327 . S
C3270 C3258 1.349 . S
C3270 H3264 0.950 . S
C3270 C3271 1.327 . S
C3271 H3265 0.950 . S
C3271 C3270 1.327 . S
C3271 C3275 1.429 . S
C3272 C3255 1.574 . S
C3272 H3266 0.949 . S
C3272 C3276 1.368 . S
C3273 C3254 1.429 . S
C3273 C3267 1.429 . S
C3273 C3274 1.523 . S
C3274 C3255 1.368 . S
C3274 C3268 1.368 . S
C3274 C3273 1.523 . S
C3275 C3259 1.429 . S
C3275 C3271 1.429 . S
C3275 C3276 1.523 . S
C3276 C3260 1.368 . S
C3276 C3272 1.368 . S
C3276 C3275 1.523 . S
H3277 C3252 0.950 . S
H3278 C3254 0.950 . S
H3279 C3255 0.949 . S
H3280 C3257 0.950 . S
H3281 C3259 0.950 . S
C3282 C3283 1.349 . S
C3282 C3284 1.327 . S
C3282 H3307 0.950 . S
C3283 C3282 1.349 . S
C3283 C3299 1.349 . S
C3284 C3282 1.327 . S
C3284 C3303 1.429 . S
C3284 H3308 0.950 . S
C3285 C3302 1.574 . S
C3285 C3304 1.368 . S
C3285 H3309 0.949 . S
H3286 C3290 0.949 . S
C3287 C3288 1.349 . S
C3287 C3289 1.327 . S
C3287 H3310 0.950 . S
C3288 C3287 1.349 . S
C3288 C3300 1.349 . S
C3289 C3287 1.327 . S
C3289 C3305 1.429 . S
C3289 H3311 0.950 . S
C3290 H3286 0.949 . S
C3290 C3298 1.574 . S
C3290 C3306 1.368 . S
H3291 C3299 0.950 . S
H3292 C3297 0.950 . S
H3293 C3298 0.949 . S
H3294 C3300 0.950 . S
H3295 C3301 0.950 . S
H3296 C3302 0.949 . S
C3297 H3292 0.950 . S
C3297 C3299 1.327 . S
C3297 C3303 1.429 . S
C3298 C3290 1.574 . S
C3298 H3293 0.949 . S
C3298 C3304 1.368 . S
C3299 C3283 1.349 . S
C3299 H3291 0.950 . S
C3299 C3297 1.327 . S
C3300 C3288 1.349 . S
C3300 H3294 0.950 . S
C3300 C3301 1.327 . S
C3301 H3295 0.950 . S
C3301 C3300 1.327 . S
C3301 C3305 1.429 . S
C3302 C3285 1.574 . S
C3302 H3296 0.949 . S
C3302 C3306 1.368 . S
C3303 C3284 1.429 . S
C3303 C3297 1.429 . S
C3303 C3304 1.523 . S
C3304 C3285 1.368 . S
C3304 C3298 1.368 . S
C3304 C3303 1.523 . S
C3305 C3289 1.429 . S
C3305 C3301 1.429 . S
C3305 C3306 1.523 . S
C3306 C3290 1.368 . S
C3306 C3302 1.368 . S
C3306 C3305 1.523 . S
H3307 C3282 0.950 . S
H3308 C3284 0.950 . S
H3309 C3285 0.949 . S
H3310 C3287 0.950 . S
H3311 C3289 0.950 . S
C3312 C3313 1.349 . S
C3312 C3314 1.327 . S
C3312 H3337 0.950 . S
C3313 C3312 1.349 . S
C3313 C3329 1.349 . S
C3314 C3312 1.327 . S
C3314 C3333 1.429 . S
C3314 H3338 0.950 . S
C3315 C3332 1.574 . S
C3315 C3334 1.368 . S
C3315 H3339 0.949 . S
H3316 C3320 0.949 . S
C3317 C3318 1.349 . S
C3317 C3319 1.327 . S
C3317 H3340 0.950 . S
C3318 C3317 1.349 . S
C3318 C3330 1.349 . S
C3319 C3317 1.327 . S
C3319 C3335 1.429 . S
C3319 H3341 0.950 . S
C3320 H3316 0.949 . S
C3320 C3328 1.574 . S
C3320 C3336 1.368 . S
H3321 C3329 0.950 . S
H3322 C3327 0.950 . S
H3323 C3328 0.949 . S
H3324 C3330 0.950 . S
H3325 C3331 0.950 . S
H3326 C3332 0.949 . S
C3327 H3322 0.950 . S
C3327 C3329 1.327 . S
C3327 C3333 1.429 . S
C3328 C3320 1.574 . S
C3328 H3323 0.949 . S
C3328 C3334 1.368 . S
C3329 C3313 1.349 . S
C3329 H3321 0.950 . S
C3329 C3327 1.327 . S
C3330 C3318 1.349 . S
C3330 H3324 0.950 . S
C3330 C3331 1.327 . S
C3331 H3325 0.950 . S
C3331 C3330 1.327 . S
C3331 C3335 1.429 . S
C3332 C3315 1.574 . S
C3332 H3326 0.949 . S
C3332 C3336 1.368 . S
C3333 C3314 1.429 . S
C3333 C3327 1.429 . S
C3333 C3334 1.523 . S
C3334 C3315 1.368 . S
C3334 C3328 1.368 . S
C3334 C3333 1.523 . S
C3335 C3319 1.429 . S
C3335 C3331 1.429 . S
C3335 C3336 1.523 . S
C3336 C3320 1.368 . S
C3336 C3332 1.368 . S
C3336 C3335 1.523 . S
H3337 C3312 0.950 . S
H3338 C3314 0.950 . S
H3339 C3315 0.949 . S
H3340 C3317 0.950 . S
H3341 C3319 0.950 . S
C3342 C3343 1.349 . S
C3342 C3344 1.327 . S
C3342 H3367 0.950 . S
C3343 C3342 1.349 . S
C3343 C3359 1.349 . S
C3344 C3342 1.327 . S
C3344 C3363 1.429 . S
C3344 H3368 0.950 . S
C3345 C3362 1.574 . S
C3345 C3364 1.368 . S
C3345 H3369 0.949 . S
H3346 C3350 0.949 . S
C3347 C3348 1.349 . S
C3347 C3349 1.327 . S
C3347 H3370 0.950 . S
C3348 C3347 1.349 . S
C3348 C3360 1.349 . S
C3349 C3347 1.327 . S
C3349 C3365 1.429 . S
C3349 H3371 0.950 . S
C3350 H3346 0.949 . S
C3350 C3358 1.574 . S
C3350 C3366 1.368 . S
H3351 C3359 0.950 . S
H3352 C3357 0.950 . S
H3353 C3358 0.949 . S
H3354 C3360 0.950 . S
H3355 C3361 0.950 . S
H3356 C3362 0.949 . S
C3357 H3352 0.950 . S
C3357 C3359 1.327 . S
C3357 C3363 1.429 . S
C3358 C3350 1.574 . S
C3358 H3353 0.949 . S
C3358 C3364 1.368 . S
C3359 C3343 1.349 . S
C3359 H3351 0.950 . S
C3359 C3357 1.327 . S
C3360 C3348 1.349 . S
C3360 H3354 0.950 . S
C3360 C3361 1.327 . S
C3361 H3355 0.950 . S
C3361 C3360 1.327 . S
C3361 C3365 1.429 . S
C3362 C3345 1.574 . S
C3362 H3356 0.949 . S
C3362 C3366 1.368 . S
C3363 C3344 1.429 . S
C3363 C3357 1.429 . S
C3363 C3364 1.523 . S
C3364 C3345 1.368 . S
C3364 C3358 1.368 . S
C3364 C3363 1.523 . S
C3365 C3349 1.429 . S
C3365 C3361 1.429 . S
C3365 C3366 1.523 . S
C3366 C3350 1.368 . S
C3366 C3362 1.368 . S
C3366 C3365 1.523 . S
H3367 C3342 0.950 . S
H3368 C3344 0.950 . S
H3369 C3345 0.949 . S
H3370 C3347 0.950 . S
H3371 C3349 0.950 . S
C3372 C3373 1.349 . S
C3372 C3374 1.327 . S
C3372 H3397 0.950 . S
C3373 C3372 1.349 . S
C3373 C3389 1.349 . S
C3374 C3372 1.327 . S
C3374 C3393 1.429 . S
C3374 H3398 0.950 . S
C3375 C3392 1.574 . S
C3375 C3394 1.368 . S
C3375 H3399 0.949 . S
H3376 C3380 0.949 . S
C3377 C3378 1.349 . S
C3377 C3379 1.327 . S
C3377 H3400 0.950 . S
C3378 C3377 1.349 . S
C3378 C3390 1.349 . S
C3379 C3377 1.327 . S
C3379 C3395 1.429 . S
C3379 H3401 0.950 . S
C3380 H3376 0.949 . S
C3380 C3388 1.574 . S
C3380 C3396 1.368 . S
H3381 C3389 0.950 . S
H3382 C3387 0.950 . S
H3383 C3388 0.949 . S
H3384 C3390 0.950 . S
H3385 C3391 0.950 . S
H3386 C3392 0.949 . S
C3387 H3382 0.950 . S
C3387 C3389 1.327 . S
C3387 C3393 1.429 . S
C3388 C3380 1.574 . S
C3388 H3383 0.949 . S
C3388 C3394 1.368 . S
C3389 C3373 1.349 . S
C3389 H3381 0.950 . S
C3389 C3387 1.327 . S
C3390 C3378 1.349 . S
C3390 H3384 0.950 . S
C3390 C3391 1.327 . S
C3391 H3385 0.950 . S
C3391 C3390 1.327 . S
C3391 C3395 1.429 . S
C3392 C3375 1.574 . S
C3392 H3386 0.949 . S
C3392 C3396 1.368 . S
C3393 C3374 1.429 . S
C3393 C3387 1.429 . S
C3393 C3394 1.523 . S
C3394 C3375 1.368 . S
C3394 C3388 1.368 . S
C3394 C3393 1.523 . S
C3395 C3379 1.429 . S
C3395 C3391 1.429 . S
C3395 C3396 1.523 . S
C3396 C3380 1.368 . S
C3396 C3392 1.368 . S
C3396 C3395 1.523 . S
H3397 C3372 0.950 . S
H3398 C3374 0.950 . S
H3399 C3375 0.949 . S
H3400 C3377 0.950 . S
H3401 C3379 0.950 . S
C3402 C3403 1.349 . S
C3402 C3404 1.327 . S
C3402 H3427 0.950 . S
C3403 C3402 1.349 . S
C3403 C3419 1.349 . S
C3404 C3402 1.327 . S
C3404 C3423 1.429 . S
C3404 H3428 0.950 . S
C3405 C3422 1.574 . S
C3405 C3424 1.368 . S
C3405 H3429 0.949 . S
H3406 C3410 0.949 . S
C3407 C3408 1.349 . S
C3407 C3409 1.327 . S
C3407 H3430 0.950 . S
C3408 C3407 1.349 . S
C3408 C3420 1.349 . S
C3409 C3407 1.327 . S
C3409 C3425 1.429 . S
C3409 H3431 0.950 . S
C3410 H3406 0.949 . S
C3410 C3418 1.574 . S
C3410 C3426 1.368 . S
H3411 C3419 0.950 . S
H3412 C3417 0.950 . S
H3413 C3418 0.949 . S
H3414 C3420 0.950 . S
H3415 C3421 0.950 . S
H3416 C3422 0.949 . S
C3417 H3412 0.950 . S
C3417 C3419 1.327 . S
C3417 C3423 1.429 . S
C3418 C3410 1.574 . S
C3418 H3413 0.949 . S
C3418 C3424 1.368 . S
C3419 C3403 1.349 . S
C3419 H3411 0.950 . S
C3419 C3417 1.327 . S
C3420 C3408 1.349 . S
C3420 H3414 0.950 . S
C3420 C3421 1.327 . S
C3421 H3415 0.950 . S
C3421 C3420 1.327 . S
C3421 C3425 1.429 . S
C3422 C3405 1.574 . S
C3422 H3416 0.949 . S
C3422 C3426 1.368 . S
C3423 C3404 1.429 . S
C3423 C3417 1.429 . S
C3423 C3424 1.523 . S
C3424 C3405 1.368 . S
C3424 C3418 1.368 . S
C3424 C3423 1.523 . S
C3425 C3409 1.429 . S
C3425 C3421 1.429 . S
C3425 C3426 1.523 . S
C3426 C3410 1.368 . S
C3426 C3422 1.368 . S
C3426 C3425 1.523 . S
H3427 C3402 0.950 . S
H3428 C3404 0.950 . S
H3429 C3405 0.949 . S
H3430 C3407 0.950 . S
H3431 C3409 0.950 . S
C3432 C3433 1.349 . S
C3432 C3434 1.327 . S
C3432 H3457 0.950 . S
C3433 C3432 1.349 . S
C3433 C3449 1.349 . S
C3434 C3432 1.327 . S
C3434 C3453 1.429 . S
C3434 H3458 0.950 . S
C3435 C3452 1.574 . S
C3435 C3454 1.368 . S
C3435 H3459 0.949 . S
H3436 C3440 0.949 . S
C3437 C3438 1.349 . S
C3437 C3439 1.327 . S
C3437 H3460 0.950 . S
C3438 C3437 1.349 . S
C3438 C3450 1.349 . S
C3439 C3437 1.327 . S
C3439 C3455 1.429 . S
C3439 H3461 0.950 . S
C3440 H3436 0.949 . S
C3440 C3448 1.574 . S
C3440 C3456 1.368 . S
H3441 C3449 0.950 . S
H3442 C3447 0.950 . S
H3443 C3448 0.949 . S
H3444 C3450 0.950 . S
H3445 C3451 0.950 . S
H3446 C3452 0.949 . S
C3447 H3442 0.950 . S
C3447 C3449 1.327 . S
C3447 C3453 1.429 . S
C3448 C3440 1.574 . S
C3448 H3443 0.949 . S
C3448 C3454 1.368 . S
C3449 C3433 1.349 . S
C3449 H3441 0.950 . S
C3449 C3447 1.327 . S
C3450 C3438 1.349 . S
C3450 H3444 0.950 . S
C3450 C3451 1.327 . S
C3451 H3445 0.950 . S
C3451 C3450 1.327 . S
C3451 C3455 1.429 . S
C3452 C3435 1.574 . S
C3452 H3446 0.949 . S
C3452 C3456 1.368 . S
C3453 C3434 1.429 . S
C3453 C3447 1.429 . S
C3453 C3454 1.523 . S
C3454 C3435 1.368 . S
C3454 C3448 1.368 . S
C3454 C3453 1.523 . S
C3455 C3439 1.429 . S
C3455 C3451 1.429 . S
C3455 C3456 1.523 . S
C3456 C3440 1.368 . S
C3456 C3452 1.368 . S
C3456 C3455 1.523 . S
H3457 C3432 0.950 . S
H3458 C3434 0.950 . S
H3459 C3435 0.949 . S
H3460 C3437 0.950 . S
H3461 C3439 0.950 . S
C3462 C3463 1.349 . S
C3462 C3464 1.327 . S
C3462 H3487 0.950 . S
C3463 C3462 1.349 . S
C3463 C3479 1.349 . S
C3464 C3462 1.327 . S
C3464 C3483 1.429 . S
C3464 H3488 0.950 . S
C3465 C3482 1.574 . S
C3465 C3484 1.368 . S
C3465 H3489 0.949 . S
H3466 C3470 0.949 . S
C3467 C3468 1.349 . S
C3467 C3469 1.327 . S
C3467 H3490 0.950 . S
C3468 C3467 1.349 . S
C3468 C3480 1.349 . S
C3469 C3467 1.327 . S
C3469 C3485 1.429 . S
C3469 H3491 0.950 . S
C3470 H3466 0.949 . S
C3470 C3478 1.574 . S
C3470 C3486 1.368 . S
H3471 C3479 0.950 . S
H3472 C3477 0.950 . S
H3473 C3478 0.949 . S
H3474 C3480 0.950 . S
H3475 C3481 0.950 . S
H3476 C3482 0.949 . S
C3477 H3472 0.950 . S
C3477 C3479 1.327 . S
C3477 C3483 1.429 . S
C3478 C3470 1.574 . S
C3478 H3473 0.949 . S
C3478 C3484 1.368 . S
C3479 C3463 1.349 . S
C3479 H3471 0.950 . S
C3479 C3477 1.327 . S
C3480 C3468 1.349 . S
C3480 H3474 0.950 . S
C3480 C3481 1.327 . S
C3481 H3475 0.950 . S
C3481 C3480 1.327 . S
C3481 C3485 1.429 . S
C3482 C3465 1.574 . S
C3482 H3476 0.949 . S
C3482 C3486 1.368 . S
C3483 C3464 1.429 . S
C3483 C3477 1.429 . S
C3483 C3484 1.523 . S
C3484 C3465 1.368 . S
C3484 C3478 1.368 . S
C3484 C3483 1.523 . S
C3485 C3469 1.429 . S
C3485 C3481 1.429 . S
C3485 C3486 1.523 . S
C3486 C3470 1.368 . S
C3486 C3482 1.368 . S
C3486 C3485 1.523 . S
H3487 C3462 0.950 . S
H3488 C3464 0.950 . S
H3489 C3465 0.949 . S
H3490 C3467 0.950 . S
H3491 C3469 0.950 . S
C3492 C3493 1.349 . S
C3492 C3494 1.327 . S
C3492 H3517 0.950 . S
C3493 C3492 1.349 . S
C3493 C3509 1.349 . S
C3494 C3492 1.327 . S
C3494 C3513 1.429 . S
C3494 H3518 0.950 . S
C3495 C3512 1.574 . S
C3495 C3514 1.368 . S
C3495 H3519 0.949 . S
H3496 C3500 0.949 . S
C3497 C3498 1.349 . S
C3497 C3499 1.327 . S
C3497 H3520 0.950 . S
C3498 C3497 1.349 . S
C3498 C3510 1.349 . S
C3499 C3497 1.327 . S
C3499 C3515 1.429 . S
C3499 H3521 0.950 . S
C3500 H3496 0.949 . S
C3500 C3508 1.574 . S
C3500 C3516 1.368 . S
H3501 C3509 0.950 . S
H3502 C3507 0.950 . S
H3503 C3508 0.949 . S
H3504 C3510 0.950 . S
H3505 C3511 0.950 . S
H3506 C3512 0.949 . S
C3507 H3502 0.950 . S
C3507 C3509 1.327 . S
C3507 C3513 1.429 . S
C3508 C3500 1.574 . S
C3508 H3503 0.949 . S
C3508 C3514 1.368 . S
C3509 C3493 1.349 . S
C3509 H3501 0.950 . S
C3509 C3507 1.327 . S
C3510 C3498 1.349 . S
C3510 H3504 0.950 . S
C3510 C3511 1.327 . S
C3511 H3505 0.950 . S
C3511 C3510 1.327 . S
C3511 C3515 1.429 . S
C3512 C3495 1.574 . S
C3512 H3506 0.949 . S
C3512 C3516 1.368 . S
C3513 C3494 1.429 . S
C3513 C3507 1.429 . S
C3513 C3514 1.523 . S
C3514 C3495 1.368 . S
C3514 C3508 1.368 . S
C3514 C3513 1.523 . S
C3515 C3499 1.429 . S
C3515 C3511 1.429 . S
C3515 C3516 1.523 . S
C3516 C3500 1.368 . S
C3516 C3512 1.368 . S
C3516 C3515 1.523 . S
H3517 C3492 0.950 . S
H3518 C3494 0.950 . S
H3519 C3495 0.949 . S
H3520 C3497 0.950 . S
H3521 C3499 0.950 . S
C3522 C3523 1.349 . S
C3522 C3524 1.327 . S
C3522 H3547 0.950 . S
C3523 C3522 1.349 . S
C3523 C3539 1.349 . S
C3524 C3522 1.327 . S
C3524 C3543 1.429 . S
C3524 H3548 0.950 . S
C3525 C3542 1.574 . S
C3525 C3544 1.368 . S
C3525 H3549 0.949 . S
H3526 C3530 0.949 . S
C3527 C3528 1.349 . S
C3527 C3529 1.327 . S
C3527 H3550 0.950 . S
C3528 C3527 1.349 . S
C3528 C3540 1.349 . S
C3529 C3527 1.327 . S
C3529 C3545 1.429 . S
C3529 H3551 0.950 . S
C3530 H3526 0.949 . S
C3530 C3538 1.574 . S
C3530 C3546 1.368 . S
H3531 C3539 0.950 . S
H3532 C3537 0.950 . S
H3533 C3538 0.949 . S
H3534 C3540 0.950 . S
H3535 C3541 0.950 . S
H3536 C3542 0.949 . S
C3537 H3532 0.950 . S
C3537 C3539 1.327 . S
C3537 C3543 1.429 . S
C3538 C3530 1.574 . S
C3538 H3533 0.949 . S
C3538 C3544 1.368 . S
C3539 C3523 1.349 . S
C3539 H3531 0.950 . S
C3539 C3537 1.327 . S
C3540 C3528 1.349 . S
C3540 H3534 0.950 . S
C3540 C3541 1.327 . S
C3541 H3535 0.950 . S
C3541 C3540 1.327 . S
C3541 C3545 1.429 . S
C3542 C3525 1.574 . S
C3542 H3536 0.949 . S
C3542 C3546 1.368 . S
C3543 C3524 1.429 . S
C3543 C3537 1.429 . S
C3543 C3544 1.523 . S
C3544 C3525 1.368 . S
C3544 C3538 1.368 . S
C3544 C3543 1.523 . S
C3545 C3529 1.429 . S
C3545 C3541 1.429 . S
C3545 C3546 1.523 . S
C3546 C3530 1.368 . S
C3546 C3542 1.368 . S
C3546 C3545 1.523 . S
H3547 C3522 0.950 . S
H3548 C3524 0.950 . S
H3549 C3525 0.949 . S
H3550 C3527 0.950 . S
H3551 C3529 0.950 . S
C3552 C3553 1.349 . S
C3552 C3554 1.327 . S
C3552 H3577 0.950 . S
C3553 C3552 1.349 . S
C3553 C3569 1.349 . S
C3554 C3552 1.327 . S
C3554 C3573 1.429 . S
C3554 H3578 0.950 . S
C3555 C3572 1.574 . S
C3555 C3574 1.368 . S
C3555 H3579 0.949 . S
H3556 C3560 0.949 . S
C3557 C3558 1.349 . S
C3557 C3559 1.327 . S
C3557 H3580 0.950 . S
C3558 C3557 1.349 . S
C3558 C3570 1.349 . S
C3559 C3557 1.327 . S
C3559 C3575 1.429 . S
C3559 H3581 0.950 . S
C3560 H3556 0.949 . S
C3560 C3568 1.574 . S
C3560 C3576 1.368 . S
H3561 C3569 0.903 1_455 S
H3562 C3567 0.950 . S
H3563 C3568 0.949 . S
H3564 C3570 0.950 . S
H3565 C3571 0.950 . S
H3566 C3572 0.949 . S
C3567 H3562 0.950 . S
C3567 C3569 1.327 . S
C3567 C3573 1.429 . S
C3568 C3560 1.574 . S
C3568 H3563 0.949 . S
C3568 C3574 1.368 . S
C3569 C3553 1.349 . S
C3569 H3561 0.903 1_655 S
C3569 C3567 1.327 . S
C3570 C3558 1.349 . S
C3570 H3564 0.950 . S
C3570 C3571 1.327 . S
C3571 H3565 0.950 . S
C3571 C3570 1.327 . S
C3571 C3575 1.429 . S
C3572 C3555 1.574 . S
C3572 H3566 0.949 . S
C3572 C3576 1.368 . S
C3573 C3554 1.429 . S
C3573 C3567 1.429 . S
C3573 C3574 1.523 . S
C3574 C3555 1.368 . S
C3574 C3568 1.368 . S
C3574 C3573 1.523 . S
C3575 C3559 1.429 . S
C3575 C3571 1.429 . S
C3575 C3576 1.523 . S
C3576 C3560 1.368 . S
C3576 C3572 1.368 . S
C3576 C3575 1.523 . S
H3577 C3552 0.950 . S
H3578 C3554 0.950 . S
H3579 C3555 0.949 . S
H3580 C3557 0.950 . S
H3581 C3559 0.950 . S
C3582 C3583 1.349 . S
C3582 C3584 1.327 . S
C3582 H3607 0.950 . S
C3583 C3582 1.349 . S
C3583 C3599 1.349 . S
C3584 C3582 1.327 . S
C3584 C3603 1.429 . S
C3584 H3608 0.950 . S
C3585 C3602 1.574 . S
C3585 C3604 1.368 . S
C3585 H3609 0.949 . S
H3586 C3590 0.949 . S
C3587 C3588 1.349 . S
C3587 C3589 1.327 . S
C3587 H3610 0.950 . S
C3588 C3587 1.349 . S
C3588 C3600 1.349 . S
C3589 C3587 1.327 . S
C3589 C3605 1.429 . S
C3589 H3611 0.950 . S
C3590 H3586 0.949 . S
C3590 C3598 1.574 . S
C3590 C3606 1.368 . S
H3591 C3599 0.950 . S
H3592 C3597 0.950 . S
H3593 C3598 0.949 . S
H3594 C3600 0.950 . S
H3595 C3601 0.950 . S
H3596 C3602 0.949 . S
C3597 H3592 0.950 . S
C3597 C3599 1.327 . S
C3597 C3603 1.429 . S
C3598 C3590 1.574 . S
C3598 H3593 0.949 . S
C3598 C3604 1.368 . S
C3599 C3583 1.349 . S
C3599 H3591 0.950 . S
C3599 C3597 1.327 . S
C3600 C3588 1.349 . S
C3600 H3594 0.950 . S
C3600 C3601 1.327 . S
C3601 H3595 0.950 . S
C3601 C3600 1.327 . S
C3601 C3605 1.429 . S
C3602 C3585 1.574 . S
C3602 H3596 0.949 . S
C3602 C3606 1.368 . S
C3603 C3584 1.429 . S
C3603 C3597 1.429 . S
C3603 C3604 1.523 . S
C3604 C3585 1.368 . S
C3604 C3598 1.368 . S
C3604 C3603 1.523 . S
C3605 C3589 1.429 . S
C3605 C3601 1.429 . S
C3605 C3606 1.523 . S
C3606 C3590 1.368 . S
C3606 C3602 1.368 . S
C3606 C3605 1.523 . S
H3607 C3582 0.950 . S
H3608 C3584 0.950 . S
H3609 C3585 0.949 . S
H3610 C3587 0.950 . S
H3611 C3589 0.950 . S
C3612 C3613 1.349 . S
C3612 C3614 1.327 . S
C3612 H3637 0.950 . S
C3613 C3612 1.349 . S
C3613 C3629 1.349 . S
C3614 C3612 1.327 . S
C3614 C3633 1.429 . S
C3614 H3638 0.950 . S
C3615 C3632 1.574 . S
C3615 C3634 1.368 . S
C3615 H3639 0.949 . S
H3616 C3620 0.949 . S
C3617 C3618 1.349 . S
C3617 C3619 1.327 . S
C3617 H3640 0.950 . S
C3618 C3617 1.349 . S
C3618 C3630 1.349 . S
C3619 C3617 1.327 . S
C3619 C3635 1.429 . S
C3619 H3641 0.950 . S
C3620 H3616 0.949 . S
C3620 C3628 1.574 . S
C3620 C3636 1.368 . S
H3621 C3629 0.950 . S
H3622 C3627 0.950 . S
H3623 C3628 0.949 . S
H3624 C3630 0.950 . S
H3625 C3631 0.950 . S
H3626 C3632 0.949 . S
C3627 H3622 0.950 . S
C3627 C3629 1.327 . S
C3627 C3633 1.429 . S
C3628 C3620 1.574 . S
C3628 H3623 0.949 . S
C3628 C3634 1.368 . S
C3629 C3613 1.349 . S
C3629 H3621 0.950 . S
C3629 C3627 1.327 . S
C3630 C3618 1.349 . S
C3630 H3624 0.950 . S
C3630 C3631 1.327 . S
C3631 H3625 0.950 . S
C3631 C3630 1.327 . S
C3631 C3635 1.429 . S
C3632 C3615 1.574 . S
C3632 H3626 0.949 . S
C3632 C3636 1.368 . S
C3633 C3614 1.429 . S
C3633 C3627 1.429 . S
C3633 C3634 1.523 . S
C3634 C3615 1.368 . S
C3634 C3628 1.368 . S
C3634 C3633 1.523 . S
C3635 C3619 1.429 . S
C3635 C3631 1.429 . S
C3635 C3636 1.523 . S
C3636 C3620 1.368 . S
C3636 C3632 1.368 . S
C3636 C3635 1.523 . S
H3637 C3612 0.950 . S
H3638 C3614 0.950 . S
H3639 C3615 0.949 . S
H3640 C3617 0.950 . S
H3641 C3619 0.950 . S
C3642 C3643 1.349 . S
C3642 C3644 1.327 . S
C3642 H3667 0.950 . S
C3643 C3642 1.349 . S
C3643 C3659 1.349 . S
C3644 C3642 1.327 . S
C3644 C3663 1.429 . S
C3644 H3668 0.950 . S
C3645 C3662 1.574 . S
C3645 C3664 1.368 . S
C3645 H3669 0.949 . S
H3646 C3650 0.949 . S
C3647 C3648 1.349 . S
C3647 C3649 1.327 . S
C3647 H3670 0.950 . S
C3648 C3647 1.349 . S
C3648 C3660 1.349 . S
C3649 C3647 1.327 . S
C3649 C3665 1.429 . S
C3649 H3671 0.950 . S
C3650 H3646 0.949 . S
C3650 C3658 1.574 . S
C3650 C3666 1.368 . S
H3651 C3659 0.950 . S
H3652 C3657 0.950 . S
H3653 C3658 0.949 . S
H3654 C3660 0.950 . S
H3655 C3661 0.950 . S
H3656 C3662 0.949 . S
C3657 H3652 0.950 . S
C3657 C3659 1.327 . S
C3657 C3663 1.429 . S
C3658 C3650 1.574 . S
C3658 H3653 0.949 . S
C3658 C3664 1.368 . S
C3659 C3643 1.349 . S
C3659 H3651 0.950 . S
C3659 C3657 1.327 . S
C3660 C3648 1.349 . S
C3660 H3654 0.950 . S
C3660 C3661 1.327 . S
C3661 H3655 0.950 . S
C3661 C3660 1.327 . S
C3661 C3665 1.429 . S
C3662 C3645 1.574 . S
C3662 H3656 0.949 . S
C3662 C3666 1.368 . S
C3663 C3644 1.429 . S
C3663 C3657 1.429 . S
C3663 C3664 1.523 . S
C3664 C3645 1.368 . S
C3664 C3658 1.368 . S
C3664 C3663 1.523 . S
C3665 C3649 1.429 . S
C3665 C3661 1.429 . S
C3665 C3666 1.523 . S
C3666 C3650 1.368 . S
C3666 C3662 1.368 . S
C3666 C3665 1.523 . S
H3667 C3642 0.950 . S
H3668 C3644 0.950 . S
H3669 C3645 0.949 . S
H3670 C3647 0.950 . S
H3671 C3649 0.950 . S
C3672 C3673 1.349 . S
C3672 C3674 1.327 . S
C3672 H3697 0.950 . S
C3673 C3672 1.349 . S
C3673 C3689 1.349 . S
C3674 C3672 1.327 . S
C3674 C3693 1.422 . S
C3674 H3698 0.950 . S
C3675 C3692 1.574 . S
C3675 C3694 1.368 . S
C3675 H3699 0.949 . S
H3676 C3680 0.949 . S
C3677 C3678 1.349 . S
C3677 C3679 1.327 . S
C3677 H3700 0.950 . S
C3678 C3677 1.349 . S
C3678 C3690 1.349 . S
C3679 C3677 1.327 . S
C3679 C3695 1.429 . S
C3679 H3701 0.950 . S
C3680 H3676 0.949 . S
C3680 C3688 1.574 . S
C3680 C3696 1.368 . S
H3681 C3689 0.950 . S
H3682 C3687 0.950 1_655 S
H3683 C3688 0.949 . S
H3684 C3690 0.950 . S
H3685 C3691 0.950 . S
H3686 C3692 0.949 . S
C3687 H3682 0.950 1_455 S
C3687 C3689 1.327 . S
C3687 C3693 1.427 . S
C3688 C3680 1.574 . S
C3688 H3683 0.949 . S
C3688 C3694 1.368 . S
C3689 C3673 1.349 . S
C3689 H3681 0.950 . S
C3689 C3687 1.327 . S
C3690 C3678 1.349 . S
C3690 H3684 0.950 . S
C3690 C3691 1.327 . S
C3691 H3685 0.950 . S
C3691 C3690 1.327 . S
C3691 C3695 1.429 . S
C3692 C3675 1.574 . S
C3692 H3686 0.949 . S
C3692 C3696 1.368 . S
C3693 C3674 1.422 . S
C3693 C3687 1.427 . S
C3693 C3694 1.530 1_455 S
C3694 C3675 1.368 . S
C3694 C3688 1.368 . S
C3694 C3693 1.530 1_655 S
C3695 C3679 1.429 . S
C3695 C3691 1.429 . S
C3695 C3696 1.523 . S
C3696 C3680 1.368 . S
C3696 C3692 1.368 . S
C3696 C3695 1.523 . S
H3697 C3672 0.950 . S
H3698 C3674 0.950 . S
H3699 C3675 0.949 . S
H3700 C3677 0.950 . S
H3701 C3679 0.950 . S
C3702 C3703 1.349 . S
C3702 C3704 1.327 . S
C3702 H3727 0.950 . S
C3703 C3702 1.349 . S
C3703 C3719 1.349 . S
C3704 C3702 1.327 . S
C3704 C3723 1.429 . S
C3704 H3728 0.950 . S
C3705 C3722 1.574 . S
C3705 C3724 1.368 . S
C3705 H3729 0.949 . S
H3706 C3710 0.949 . S
C3707 C3708 1.349 . S
C3707 C3709 1.327 . S
C3707 H3730 0.950 . S
C3708 C3707 1.349 . S
C3708 C3720 1.349 . S
C3709 C3707 1.327 . S
C3709 C3725 1.429 . S
C3709 H3731 0.950 . S
C3710 H3706 0.949 . S
C3710 C3718 1.574 . S
C3710 C3726 1.368 . S
H3711 C3719 0.950 . S
H3712 C3717 0.950 . S
H3713 C3718 0.949 . S
H3714 C3720 0.950 . S
H3715 C3721 0.950 . S
H3716 C3722 0.949 . S
C3717 H3712 0.950 . S
C3717 C3719 1.327 . S
C3717 C3723 1.429 . S
C3718 C3710 1.574 . S
C3718 H3713 0.949 . S
C3718 C3724 1.368 . S
C3719 C3703 1.349 . S
C3719 H3711 0.950 . S
C3719 C3717 1.327 . S
C3720 C3708 1.349 . S
C3720 H3714 0.950 . S
C3720 C3721 1.327 . S
C3721 H3715 0.950 . S
C3721 C3720 1.327 . S
C3721 C3725 1.429 . S
C3722 C3705 1.574 . S
C3722 H3716 0.949 . S
C3722 C3726 1.368 . S
C3723 C3704 1.429 . S
C3723 C3717 1.429 . S
C3723 C3724 1.523 . S
C3724 C3705 1.368 . S
C3724 C3718 1.368 . S
C3724 C3723 1.523 . S
C3725 C3709 1.429 . S
C3725 C3721 1.429 . S
C3725 C3726 1.523 . S
C3726 C3710 1.368 . S
C3726 C3722 1.368 . S
C3726 C3725 1.523 . S
H3727 C3702 0.950 . S
H3728 C3704 0.950 . S
H3729 C3705 0.949 . S
H3730 C3707 0.950 . S
H3731 C3709 0.950 . S
C3732 C3733 1.349 . S
C3732 C3734 1.327 . S
C3732 H3757 0.950 . S
C3733 C3732 1.349 . S
C3733 C3749 1.349 . S
C3734 C3732 1.327 . S
C3734 C3753 1.429 . S
C3734 H3758 0.950 . S
C3735 C3752 1.574 . S
C3735 C3754 1.368 . S
C3735 H3759 0.949 . S
H3736 C3740 0.949 . S
C3737 C3738 1.349 . S
C3737 C3739 1.327 . S
C3737 H3760 0.950 . S
C3738 C3737 1.349 . S
C3738 C3750 1.349 . S
C3739 C3737 1.327 . S
C3739 C3755 1.429 . S
C3739 H3761 0.950 . S
C3740 H3736 0.949 . S
C3740 C3748 1.574 . S
C3740 C3756 1.368 . S
H3741 C3749 0.950 . S
H3742 C3747 0.950 . S
H3743 C3748 0.949 . S
H3744 C3750 0.950 . S
H3745 C3751 0.950 . S
H3746 C3752 0.949 . S
C3747 H3742 0.950 . S
C3747 C3749 1.327 . S
C3747 C3753 1.429 . S
C3748 C3740 1.574 . S
C3748 H3743 0.949 . S
C3748 C3754 1.368 . S
C3749 C3733 1.349 . S
C3749 H3741 0.950 . S
C3749 C3747 1.327 . S
C3750 C3738 1.349 . S
C3750 H3744 0.950 . S
C3750 C3751 1.327 . S
C3751 H3745 0.950 . S
C3751 C3750 1.327 . S
C3751 C3755 1.429 . S
C3752 C3735 1.574 . S
C3752 H3746 0.949 . S
C3752 C3756 1.368 . S
C3753 C3734 1.429 . S
C3753 C3747 1.429 . S
C3753 C3754 1.523 . S
C3754 C3735 1.368 . S
C3754 C3748 1.368 . S
C3754 C3753 1.523 . S
C3755 C3739 1.429 . S
C3755 C3751 1.429 . S
C3755 C3756 1.523 . S
C3756 C3740 1.368 . S
C3756 C3752 1.368 . S
C3756 C3755 1.523 . S
H3757 C3732 0.950 . S
H3758 C3734 0.950 . S
H3759 C3735 0.949 . S
H3760 C3737 0.950 . S
H3761 C3739 0.950 . S
C3762 C3763 1.349 . S
C3762 C3764 1.327 . S
C3762 H3787 0.950 . S
C3763 C3762 1.349 . S
C3763 C3779 1.349 . S
C3764 C3762 1.327 . S
C3764 C3783 1.429 . S
C3764 H3788 0.950 . S
C3765 C3782 1.574 . S
C3765 C3784 1.368 . S
C3765 H3789 0.949 . S
H3766 C3770 0.949 . S
C3767 C3768 1.349 . S
C3767 C3769 1.327 . S
C3767 H3790 0.950 . S
C3768 C3767 1.349 . S
C3768 C3780 1.349 . S
C3769 C3767 1.327 . S
C3769 C3785 1.429 . S
C3769 H3791 0.950 . S
C3770 H3766 0.949 . S
C3770 C3778 1.574 . S
C3770 C3786 1.368 . S
H3771 C3779 0.950 . S
H3772 C3777 0.950 . S
H3773 C3778 0.949 . S
H3774 C3780 0.950 . S
H3775 C3781 0.950 . S
H3776 C3782 0.949 . S
C3777 H3772 0.950 . S
C3777 C3779 1.327 . S
C3777 C3783 1.429 . S
C3778 C3770 1.574 . S
C3778 H3773 0.949 . S
C3778 C3784 1.368 . S
C3779 C3763 1.349 . S
C3779 H3771 0.950 . S
C3779 C3777 1.327 . S
C3780 C3768 1.349 . S
C3780 H3774 0.950 . S
C3780 C3781 1.327 . S
C3781 H3775 0.950 . S
C3781 C3780 1.327 . S
C3781 C3785 1.429 . S
C3782 C3765 1.574 . S
C3782 H3776 0.949 . S
C3782 C3786 1.368 . S
C3783 C3764 1.429 . S
C3783 C3777 1.429 . S
C3783 C3784 1.523 . S
C3784 C3765 1.368 . S
C3784 C3778 1.368 . S
C3784 C3783 1.523 . S
C3785 C3769 1.429 . S
C3785 C3781 1.429 . S
C3785 C3786 1.523 . S
C3786 C3770 1.368 . S
C3786 C3782 1.368 . S
C3786 C3785 1.523 . S
H3787 C3762 0.950 . S
H3788 C3764 0.950 . S
H3789 C3765 0.949 . S
H3790 C3767 0.950 . S
H3791 C3769 0.950 . S
C3792 C3793 1.349 . S
C3792 C3794 1.327 . S
C3792 H3817 0.950 . S
C3793 C3792 1.349 . S
C3793 C3809 1.349 . S
C3794 C3792 1.327 . S
C3794 C3813 1.429 . S
C3794 H3818 0.950 . S
C3795 C3812 1.574 . S
C3795 C3814 1.368 . S
C3795 H3819 0.949 . S
H3796 C3800 0.949 . S
C3797 C3798 1.349 . S
C3797 C3799 1.327 . S
C3797 H3820 0.950 . S
C3798 C3797 1.349 . S
C3798 C3810 1.349 . S
C3799 C3797 1.327 . S
C3799 C3815 1.429 . S
C3799 H3821 0.950 . S
C3800 H3796 0.949 . S
C3800 C3808 1.574 . S
C3800 C3816 1.368 . S
H3801 C3809 0.950 . S
H3802 C3807 0.950 . S
H3803 C3808 0.949 . S
H3804 C3810 0.950 . S
H3805 C3811 0.950 . S
H3806 C3812 0.949 . S
C3807 H3802 0.950 . S
C3807 C3809 1.327 . S
C3807 C3813 1.429 . S
C3808 C3800 1.574 . S
C3808 H3803 0.949 . S
C3808 C3814 1.368 . S
C3809 C3793 1.349 . S
C3809 H3801 0.950 . S
C3809 C3807 1.327 . S
C3810 C3798 1.349 . S
C3810 H3804 0.950 . S
C3810 C3811 1.327 . S
C3811 H3805 0.950 . S
C3811 C3810 1.327 . S
C3811 C3815 1.429 . S
C3812 C3795 1.574 . S
C3812 H3806 0.949 . S
C3812 C3816 1.368 . S
C3813 C3794 1.429 . S
C3813 C3807 1.429 . S
C3813 C3814 1.523 . S
C3814 C3795 1.368 . S
C3814 C3808 1.368 . S
C3814 C3813 1.523 . S
C3815 C3799 1.429 . S
C3815 C3811 1.429 . S
C3815 C3816 1.523 . S
C3816 C3800 1.368 . S
C3816 C3812 1.368 . S
C3816 C3815 1.523 . S
H3817 C3792 0.950 . S
H3818 C3794 0.950 . S
H3819 C3795 0.949 . S
H3820 C3797 0.950 . S
H3821 C3799 0.950 . S
C3822 C3823 1.349 . S
C3822 C3824 1.327 . S
C3822 H3847 0.950 . S
C3823 C3822 1.349 . S
C3823 C3839 1.349 . S
C3824 C3822 1.327 . S
C3824 C3843 1.429 . S
C3824 H3848 0.950 . S
C3825 C3842 1.574 . S
C3825 C3844 1.368 . S
C3825 H3849 0.949 . S
H3826 C3830 0.949 . S
C3827 C3828 1.349 . S
C3827 C3829 1.327 . S
C3827 H3850 0.950 . S
C3828 C3827 1.349 . S
C3828 C3840 1.349 . S
C3829 C3827 1.327 . S
C3829 C3845 1.429 . S
C3829 H3851 0.950 . S
C3830 H3826 0.949 . S
C3830 C3838 1.574 . S
C3830 C3846 1.368 . S
H3831 C3839 0.950 . S
H3832 C3837 0.950 . S
H3833 C3838 0.949 . S
H3834 C3840 0.950 . S
H3835 C3841 0.950 . S
H3836 C3842 0.949 . S
C3837 H3832 0.950 . S
C3837 C3839 1.327 . S
C3837 C3843 1.429 . S
C3838 C3830 1.574 . S
C3838 H3833 0.949 . S
C3838 C3844 1.368 . S
C3839 C3823 1.349 . S
C3839 H3831 0.950 . S
C3839 C3837 1.327 . S
C3840 C3828 1.349 . S
C3840 H3834 0.950 . S
C3840 C3841 1.327 . S
C3841 H3835 0.950 . S
C3841 C3840 1.327 . S
C3841 C3845 1.429 . S
C3842 C3825 1.574 . S
C3842 H3836 0.949 . S
C3842 C3846 1.368 . S
C3843 C3824 1.429 . S
C3843 C3837 1.429 . S
C3843 C3844 1.523 . S
C3844 C3825 1.368 . S
C3844 C3838 1.368 . S
C3844 C3843 1.523 . S
C3845 C3829 1.429 . S
C3845 C3841 1.429 . S
C3845 C3846 1.523 . S
C3846 C3830 1.368 . S
C3846 C3842 1.368 . S
C3846 C3845 1.523 . S
H3847 C3822 0.950 . S
H3848 C3824 0.950 . S
H3849 C3825 0.949 . S
H3850 C3827 0.950 . S
H3851 C3829 0.950 . S
C3852 C3853 1.349 . S
C3852 C3854 1.327 . S
C3852 H3877 0.950 . S
C3853 C3852 1.349 . S
C3853 C3869 1.349 . S
C3854 C3852 1.327 . S
C3854 C3873 1.429 . S
C3854 H3878 0.950 . S
C3855 C3872 1.574 . S
C3855 C3874 1.368 . S
C3855 H3879 0.949 . S
H3856 C3860 0.949 . S
C3857 C3858 1.349 . S
C3857 C3859 1.327 . S
C3857 H3880 0.950 . S
C3858 C3857 1.349 . S
C3858 C3870 1.349 . S
C3859 C3857 1.327 . S
C3859 C3875 1.429 . S
C3859 H3881 0.950 . S
C3860 H3856 0.949 . S
C3860 C3868 1.574 . S
C3860 C3876 1.368 . S
H3861 C3869 0.950 . S
H3862 C3867 0.950 . S
H3863 C3868 0.949 . S
H3864 C3870 0.950 . S
H3865 C3871 0.950 . S
H3866 C3872 0.949 . S
C3867 H3862 0.950 . S
C3867 C3869 1.327 . S
C3867 C3873 1.429 . S
C3868 C3860 1.574 . S
C3868 H3863 0.949 . S
C3868 C3874 1.368 . S
C3869 C3853 1.349 . S
C3869 H3861 0.950 . S
C3869 C3867 1.327 . S
C3870 C3858 1.349 . S
C3870 H3864 0.950 . S
C3870 C3871 1.327 . S
C3871 H3865 0.950 . S
C3871 C3870 1.327 . S
C3871 C3875 1.429 . S
C3872 C3855 1.574 . S
C3872 H3866 0.949 . S
C3872 C3876 1.368 . S
C3873 C3854 1.429 . S
C3873 C3867 1.429 . S
C3873 C3874 1.523 . S
C3874 C3855 1.368 . S
C3874 C3868 1.368 . S
C3874 C3873 1.523 . S
C3875 C3859 1.429 . S
C3875 C3871 1.429 . S
C3875 C3876 1.523 . S
C3876 C3860 1.368 . S
C3876 C3872 1.368 . S
C3876 C3875 1.523 . S
H3877 C3852 0.950 . S
H3878 C3854 0.950 . S
H3879 C3855 0.949 . S
H3880 C3857 0.950 . S
H3881 C3859 0.950 . S
C3882 C3883 1.349 . S
C3882 C3884 1.327 . S
C3882 H3907 0.950 . S
C3883 C3882 1.349 . S
C3883 C3899 1.349 . S
C3884 C3882 1.327 . S
C3884 C3903 1.429 . S
C3884 H3908 0.950 . S
C3885 C3902 1.574 . S
C3885 C3904 1.368 . S
C3885 H3909 0.949 . S
H3886 C3890 0.949 . S
C3887 C3888 1.349 . S
C3887 C3889 1.327 . S
C3887 H3910 0.950 . S
C3888 C3887 1.349 . S
C3888 C3900 1.349 . S
C3889 C3887 1.327 . S
C3889 C3905 1.429 . S
C3889 H3911 0.950 . S
C3890 H3886 0.949 . S
C3890 C3898 1.574 . S
C3890 C3906 1.368 . S
H3891 C3899 0.950 . S
H3892 C3897 0.950 . S
H3893 C3898 0.949 . S
H3894 C3900 0.950 . S
H3895 C3901 0.950 . S
H3896 C3902 0.949 . S
C3897 H3892 0.950 . S
C3897 C3899 1.327 . S
C3897 C3903 1.429 . S
C3898 C3890 1.574 . S
C3898 H3893 0.949 . S
C3898 C3904 1.368 . S
C3899 C3883 1.349 . S
C3899 H3891 0.950 . S
C3899 C3897 1.327 . S
C3900 C3888 1.349 . S
C3900 H3894 0.950 . S
C3900 C3901 1.327 . S
C3901 H3895 0.950 . S
C3901 C3900 1.327 . S
C3901 C3905 1.429 . S
C3902 C3885 1.574 . S
C3902 H3896 0.949 . S
C3902 C3906 1.368 . S
C3903 C3884 1.429 . S
C3903 C3897 1.429 . S
C3903 C3904 1.523 . S
C3904 C3885 1.368 . S
C3904 C3898 1.368 . S
C3904 C3903 1.523 . S
C3905 C3889 1.429 . S
C3905 C3901 1.429 . S
C3905 C3906 1.523 . S
C3906 C3890 1.368 . S
C3906 C3902 1.368 . S
C3906 C3905 1.523 . S
H3907 C3882 0.950 . S
H3908 C3884 0.950 . S
H3909 C3885 0.949 . S
H3910 C3887 0.950 . S
H3911 C3889 0.950 . S
C3912 C3913 1.349 . S
C3912 C3914 1.327 . S
C3912 H3937 0.950 . S
C3913 C3912 1.349 . S
C3913 C3929 1.349 . S
C3914 C3912 1.327 . S
C3914 C3933 1.429 . S
C3914 H3938 0.950 . S
C3915 C3932 1.574 . S
C3915 C3934 1.368 . S
C3915 H3939 0.949 . S
H3916 C3920 0.949 . S
C3917 C3918 1.349 . S
C3917 C3919 1.327 . S
C3917 H3940 0.950 . S
C3918 C3917 1.349 . S
C3918 C3930 1.349 . S
C3919 C3917 1.327 . S
C3919 C3935 1.429 . S
C3919 H3941 0.950 . S
C3920 H3916 0.949 . S
C3920 C3928 1.574 . S
C3920 C3936 1.368 . S
H3921 C3929 0.950 . S
H3922 C3927 0.950 . S
H3923 C3928 0.949 . S
H3924 C3930 0.950 . S
H3925 C3931 0.950 . S
H3926 C3932 0.949 . S
C3927 H3922 0.950 . S
C3927 C3929 1.327 . S
C3927 C3933 1.429 . S
C3928 C3920 1.574 . S
C3928 H3923 0.949 . S
C3928 C3934 1.368 . S
C3929 C3913 1.349 . S
C3929 H3921 0.950 . S
C3929 C3927 1.327 . S
C3930 C3918 1.349 . S
C3930 H3924 0.950 . S
C3930 C3931 1.327 . S
C3931 H3925 0.950 . S
C3931 C3930 1.327 . S
C3931 C3935 1.429 . S
C3932 C3915 1.574 . S
C3932 H3926 0.949 . S
C3932 C3936 1.368 . S
C3933 C3914 1.429 . S
C3933 C3927 1.429 . S
C3933 C3934 1.523 . S
C3934 C3915 1.368 . S
C3934 C3928 1.368 . S
C3934 C3933 1.523 . S
C3935 C3919 1.429 . S
C3935 C3931 1.429 . S
C3935 C3936 1.523 . S
C3936 C3920 1.368 . S
C3936 C3932 1.368 . S
C3936 C3935 1.523 . S
H3937 C3912 0.950 . S
H3938 C3914 0.950 . S
H3939 C3915 0.949 . S
H3940 C3917 0.950 . S
H3941 C3919 0.950 . S
C3942 C3943 1.349 . S
C3942 C3944 1.327 . S
C3942 H3967 0.950 . S
C3943 C3942 1.349 . S
C3943 C3959 1.349 . S
C3944 C3942 1.327 . S
C3944 C3963 1.429 . S
C3944 H3968 0.950 . S
C3945 C3962 1.574 . S
C3945 C3964 1.368 . S
C3945 H3969 0.949 . S
H3946 C3950 0.949 . S
C3947 C3948 1.349 . S
C3947 C3949 1.327 . S
C3947 H3970 0.950 . S
C3948 C3947 1.349 . S
C3948 C3960 1.349 . S
C3949 C3947 1.327 . S
C3949 C3965 1.429 . S
C3949 H3971 0.950 . S
C3950 H3946 0.949 . S
C3950 C3958 1.574 . S
C3950 C3966 1.368 . S
H3951 C3959 0.950 . S
H3952 C3957 0.950 . S
H3953 C3958 0.949 . S
H3954 C3960 0.950 . S
H3955 C3961 0.950 . S
H3956 C3962 0.949 . S
C3957 H3952 0.950 . S
C3957 C3959 1.327 . S
C3957 C3963 1.429 . S
C3958 C3950 1.574 . S
C3958 H3953 0.949 . S
C3958 C3964 1.368 . S
C3959 C3943 1.349 . S
C3959 H3951 0.950 . S
C3959 C3957 1.327 . S
C3960 C3948 1.349 . S
C3960 H3954 0.950 . S
C3960 C3961 1.327 . S
C3961 H3955 0.950 . S
C3961 C3960 1.327 . S
C3961 C3965 1.429 . S
C3962 C3945 1.574 . S
C3962 H3956 0.949 . S
C3962 C3966 1.368 . S
C3963 C3944 1.429 . S
C3963 C3957 1.429 . S
C3963 C3964 1.523 . S
C3964 C3945 1.368 . S
C3964 C3958 1.368 . S
C3964 C3963 1.523 . S
C3965 C3949 1.429 . S
C3965 C3961 1.429 . S
C3965 C3966 1.523 . S
C3966 C3950 1.368 . S
C3966 C3962 1.368 . S
C3966 C3965 1.523 . S
H3967 C3942 0.950 . S
H3968 C3944 0.950 . S
H3969 C3945 0.949 . S
H3970 C3947 0.950 . S
H3971 C3949 0.950 . S
C3972 C3973 1.349 . S
C3972 C3974 1.327 . S
C3972 H3997 0.950 . S
C3973 C3972 1.349 . S
C3973 C3989 1.349 . S
C3974 C3972 1.327 . S
C3974 C3993 1.429 . S
C3974 H3998 0.950 . S
C3975 C3992 1.574 . S
C3975 C3994 1.368 . S
C3975 H3999 0.949 . S
H3976 C3980 0.949 . S
C3977 C3978 1.349 . S
C3977 C3979 1.327 . S
C3977 H4000 0.950 . S
C3978 C3977 1.349 . S
C3978 C3990 1.349 . S
C3979 C3977 1.327 . S
C3979 C3995 1.429 . S
C3979 H4001 0.950 . S
C3980 H3976 0.949 . S
C3980 C3988 1.574 . S
C3980 C3996 1.368 . S
H3981 C3989 0.950 . S
H3982 C3987 0.950 . S
H3983 C3988 0.949 . S
H3984 C3990 0.950 . S
H3985 C3991 0.950 . S
H3986 C3992 0.949 . S
C3987 H3982 0.950 . S
C3987 C3989 1.327 . S
C3987 C3993 1.429 . S
C3988 C3980 1.574 . S
C3988 H3983 0.949 . S
C3988 C3994 1.368 . S
C3989 C3973 1.349 . S
C3989 H3981 0.950 . S
C3989 C3987 1.327 . S
C3990 C3978 1.349 . S
C3990 H3984 0.950 . S
C3990 C3991 1.327 . S
C3991 H3985 0.950 . S
C3991 C3990 1.327 . S
C3991 C3995 1.429 . S
C3992 C3975 1.574 . S
C3992 H3986 0.949 . S
C3992 C3996 1.368 . S
C3993 C3974 1.429 . S
C3993 C3987 1.429 . S
C3993 C3994 1.523 . S
C3994 C3975 1.368 . S
C3994 C3988 1.368 . S
C3994 C3993 1.523 . S
C3995 C3979 1.429 . S
C3995 C3991 1.429 . S
C3995 C3996 1.523 . S
C3996 C3980 1.368 . S
C3996 C3992 1.368 . S
C3996 C3995 1.523 . S
H3997 C3972 0.950 . S
H3998 C3974 0.950 . S
H3999 C3975 0.949 . S
H4000 C3977 0.950 . S
H4001 C3979 0.950 . S
C4002 C4003 1.349 . S
C4002 C4004 1.327 . S
C4002 H4027 0.950 . S
C4003 C4002 1.349 . S
C4003 C4019 1.349 . S
C4004 C4002 1.327 . S
C4004 C4023 1.429 . S
C4004 H4028 0.950 . S
C4005 C4022 1.574 . S
C4005 C4024 1.368 . S
C4005 H4029 0.949 . S
H4006 C4010 0.949 . S
C4007 C4008 1.349 . S
C4007 C4009 1.327 . S
C4007 H4030 0.950 . S
C4008 C4007 1.349 . S
C4008 C4020 1.349 . S
C4009 C4007 1.327 . S
C4009 C4025 1.429 . S
C4009 H4031 0.950 . S
C4010 H4006 0.949 . S
C4010 C4018 1.574 . S
C4010 C4026 1.368 . S
H4011 C4019 0.950 . S
H4012 C4017 0.950 . S
H4013 C4018 0.949 . S
H4014 C4020 0.950 . S
H4015 C4021 0.950 . S
H4016 C4022 0.949 . S
C4017 H4012 0.950 . S
C4017 C4019 1.327 . S
C4017 C4023 1.429 . S
C4018 C4010 1.574 . S
C4018 H4013 0.949 . S
C4018 C4024 1.368 . S
C4019 C4003 1.349 . S
C4019 H4011 0.950 . S
C4019 C4017 1.327 . S
C4020 C4008 1.349 . S
C4020 H4014 0.950 . S
C4020 C4021 1.327 . S
C4021 H4015 0.950 . S
C4021 C4020 1.327 . S
C4021 C4025 1.429 . S
C4022 C4005 1.574 . S
C4022 H4016 0.949 . S
C4022 C4026 1.368 . S
C4023 C4004 1.429 . S
C4023 C4017 1.429 . S
C4023 C4024 1.523 . S
C4024 C4005 1.368 . S
C4024 C4018 1.368 . S
C4024 C4023 1.523 . S
C4025 C4009 1.429 . S
C4025 C4021 1.429 . S
C4025 C4026 1.523 . S
C4026 C4010 1.368 . S
C4026 C4022 1.368 . S
C4026 C4025 1.523 . S
H4027 C4002 0.950 . S
H4028 C4004 0.950 . S
H4029 C4005 0.949 . S
H4030 C4007 0.950 . S
H4031 C4009 0.950 . S
C4032 C4033 1.349 . S
C4032 C4034 1.327 . S
C4032 H4057 0.950 . S
C4033 C4032 1.349 . S
C4033 C4049 1.349 . S
C4034 C4032 1.327 . S
C4034 C4053 1.429 . S
C4034 H4058 0.950 . S
C4035 C4052 1.574 . S
C4035 C4054 1.368 . S
C4035 H4059 0.949 . S
H4036 C4040 0.949 . S
C4037 C4038 1.349 . S
C4037 C4039 1.327 . S
C4037 H4060 0.950 . S
C4038 C4037 1.349 . S
C4038 C4050 1.349 . S
C4039 C4037 1.327 . S
C4039 C4055 1.429 . S
C4039 H4061 0.950 . S
C4040 H4036 0.949 . S
C4040 C4048 1.574 . S
C4040 C4056 1.368 . S
H4041 C4049 0.950 . S
H4042 C4047 0.950 . S
H4043 C4048 0.949 . S
H4044 C4050 0.950 . S
H4045 C4051 0.950 . S
H4046 C4052 0.949 . S
C4047 H4042 0.950 . S
C4047 C4049 1.327 . S
C4047 C4053 1.429 . S
C4048 C4040 1.574 . S
C4048 H4043 0.949 . S
C4048 C4054 1.368 . S
C4049 C4033 1.349 . S
C4049 H4041 0.950 . S
C4049 C4047 1.327 . S
C4050 C4038 1.349 . S
C4050 H4044 0.950 . S
C4050 C4051 1.327 . S
C4051 H4045 0.950 . S
C4051 C4050 1.327 . S
C4051 C4055 1.429 . S
C4052 C4035 1.574 . S
C4052 H4046 0.949 . S
C4052 C4056 1.368 . S
C4053 C4034 1.429 . S
C4053 C4047 1.429 . S
C4053 C4054 1.523 . S
C4054 C4035 1.368 . S
C4054 C4048 1.368 . S
C4054 C4053 1.523 . S
C4055 C4039 1.429 . S
C4055 C4051 1.429 . S
C4055 C4056 1.523 . S
C4056 C4040 1.368 . S
C4056 C4052 1.368 . S
C4056 C4055 1.523 . S
H4057 C4032 0.950 . S
H4058 C4034 0.950 . S
H4059 C4035 0.949 . S
H4060 C4037 0.950 . S
H4061 C4039 0.950 . S
C4062 C4063 1.349 . S
C4062 C4064 1.327 . S
C4062 H4087 0.950 . S
C4063 C4062 1.349 . S
C4063 C4079 1.349 . S
C4064 C4062 1.327 . S
C4064 C4083 1.429 . S
C4064 H4088 0.950 . S
C4065 C4082 1.574 . S
C4065 C4084 1.368 . S
C4065 H4089 0.949 . S
H4066 C4070 0.949 . S
C4067 C4068 1.349 . S
C4067 C4069 1.327 . S
C4067 H4090 0.950 . S
C4068 C4067 1.349 . S
C4068 C4080 1.349 . S
C4069 C4067 1.327 . S
C4069 C4085 1.429 . S
C4069 H4091 0.950 . S
C4070 H4066 0.949 . S
C4070 C4078 1.574 . S
C4070 C4086 1.368 . S
H4071 C4079 0.950 . S
H4072 C4077 0.950 . S
H4073 C4078 0.949 . S
H4074 C4080 0.950 . S
H4075 C4081 0.950 . S
H4076 C4082 0.949 . S
C4077 H4072 0.950 . S
C4077 C4079 1.327 . S
C4077 C4083 1.429 . S
C4078 C4070 1.574 . S
C4078 H4073 0.949 . S
C4078 C4084 1.368 . S
C4079 C4063 1.349 . S
C4079 H4071 0.950 . S
C4079 C4077 1.327 . S
C4080 C4068 1.349 . S
C4080 H4074 0.950 . S
C4080 C4081 1.327 . S
C4081 H4075 0.950 . S
C4081 C4080 1.327 . S
C4081 C4085 1.429 . S
C4082 C4065 1.574 . S
C4082 H4076 0.949 . S
C4082 C4086 1.368 . S
C4083 C4064 1.429 . S
C4083 C4077 1.429 . S
C4083 C4084 1.523 . S
C4084 C4065 1.368 . S
C4084 C4078 1.368 . S
C4084 C4083 1.523 . S
C4085 C4069 1.429 . S
C4085 C4081 1.429 . S
C4085 C4086 1.523 . S
C4086 C4070 1.368 . S
C4086 C4082 1.368 . S
C4086 C4085 1.523 . S
H4087 C4062 0.950 . S
H4088 C4064 0.950 . S
H4089 C4065 0.949 . S
H4090 C4067 0.950 . S
H4091 C4069 0.950 . S
C4092 C4093 1.349 . S
C4092 C4094 1.327 . S
C4092 H4117 0.950 . S
C4093 C4092 1.349 . S
C4093 C4109 1.349 . S
C4094 C4092 1.327 . S
C4094 C4113 1.429 1_556 S
C4094 H4118 0.950 . S
C4095 C4112 1.574 . S
C4095 C4114 1.368 . S
C4095 H4119 0.949 . S
H4096 C4100 0.949 . S
C4097 C4098 1.349 . S
C4097 C4099 1.327 . S
C4097 H4120 0.950 . S
C4098 C4097 1.349 . S
C4098 C4110 1.349 . S
C4099 C4097 1.327 . S
C4099 C4115 1.429 . S
C4099 H4121 0.950 . S
C4100 H4096 0.949 . S
C4100 C4108 1.574 . S
C4100 C4116 1.368 . S
H4101 C4109 0.950 . S
H4102 C4107 0.950 . S
H4103 C4108 0.949 . S
H4104 C4110 0.950 . S
H4105 C4111 0.950 . S
H4106 C4112 0.949 . S
C4107 H4102 0.950 . S
C4107 C4109 1.327 1_554 S
C4107 C4113 1.429 . S
C4108 C4100 1.574 . S
C4108 H4103 0.949 . S
C4108 C4114 1.368 . S
C4109 C4093 1.349 . S
C4109 H4101 0.950 . S
C4109 C4107 1.327 1_556 S
C4110 C4098 1.349 . S
C4110 H4104 0.950 . S
C4110 C4111 1.327 . S
C4111 H4105 0.950 . S
C4111 C4110 1.327 . S
C4111 C4115 1.429 . S
C4112 C4095 1.574 . S
C4112 H4106 0.949 . S
C4112 C4116 1.368 . S
C4113 C4094 1.429 1_554 S
C4113 C4107 1.429 . S
C4113 C4114 1.523 . S
C4114 C4095 1.368 . S
C4114 C4108 1.368 . S
C4114 C4113 1.523 . S
C4115 C4099 1.429 . S
C4115 C4111 1.429 . S
C4115 C4116 1.523 . S
C4116 C4100 1.368 . S
C4116 C4112 1.368 . S
C4116 C4115 1.523 . S
H4117 C4092 0.950 . S
H4118 C4094 0.950 . S
H4119 C4095 0.949 . S
H4120 C4097 0.950 . S
H4121 C4099 0.950 . S
C4122 C4123 1.349 . S
C4122 C4124 1.327 . S
C4122 H4147 0.950 . S
C4123 C4122 1.349 . S
C4123 C4139 1.349 . S
C4124 C4122 1.327 . S
C4124 C4143 1.429 . S
C4124 H4148 0.950 . S
C4125 C4142 1.574 . S
C4125 C4144 1.368 . S
C4125 H4149 0.949 . S
H4126 C4130 0.949 . S
C4127 C4128 1.349 . S
C4127 C4129 1.327 . S
C4127 H4150 0.950 . S
C4128 C4127 1.349 . S
C4128 C4140 1.349 . S
C4129 C4127 1.327 . S
C4129 C4145 1.429 . S
C4129 H4151 0.950 . S
C4130 H4126 0.949 . S
C4130 C4138 1.574 . S
C4130 C4146 1.368 . S
H4131 C4139 0.950 . S
H4132 C4137 0.950 . S
H4133 C4138 0.949 . S
H4134 C4140 0.950 . S
H4135 C4141 0.950 . S
H4136 C4142 0.949 . S
C4137 H4132 0.950 . S
C4137 C4139 1.327 . S
C4137 C4143 1.429 . S
C4138 C4130 1.574 . S
C4138 H4133 0.949 . S
C4138 C4144 1.368 . S
C4139 C4123 1.349 . S
C4139 H4131 0.950 . S
C4139 C4137 1.327 . S
C4140 C4128 1.349 . S
C4140 H4134 0.950 . S
C4140 C4141 1.327 . S
C4141 H4135 0.950 . S
C4141 C4140 1.327 . S
C4141 C4145 1.429 . S
C4142 C4125 1.574 . S
C4142 H4136 0.949 . S
C4142 C4146 1.368 . S
C4143 C4124 1.429 . S
C4143 C4137 1.429 . S
C4143 C4144 1.523 . S
C4144 C4125 1.368 . S
C4144 C4138 1.368 . S
C4144 C4143 1.523 . S
C4145 C4129 1.429 . S
C4145 C4141 1.429 . S
C4145 C4146 1.523 . S
C4146 C4130 1.368 . S
C4146 C4142 1.368 . S
C4146 C4145 1.523 . S
H4147 C4122 0.950 . S
H4148 C4124 0.950 . S
H4149 C4125 0.949 . S
H4150 C4127 0.950 . S
H4151 C4129 0.950 . S
C4152 C4153 1.349 . S
C4152 C4154 1.327 . S
C4152 H4177 0.950 . S
C4153 C4152 1.349 . S
C4153 C4169 1.349 . S
C4154 C4152 1.327 . S
C4154 C4173 1.429 . S
C4154 H4178 0.950 . S
C4155 C4172 1.574 . S
C4155 C4174 1.352 1_556 S
C4155 H4179 0.949 1_556 S
H4156 C4160 0.949 . S
C4157 C4158 1.349 . S
C4157 C4159 1.327 . S
C4157 H4180 0.950 . S
C4158 C4157 1.349 . S
C4158 C4170 1.349 . S
C4159 C4157 1.327 . S
C4159 C4175 1.429 . S
C4159 H4181 0.950 . S
C4160 H4156 0.949 . S
C4160 C4168 1.574 . S
C4160 C4176 1.368 . S
H4161 C4169 0.950 . S
H4162 C4167 0.950 . S
H4163 C4168 0.949 . S
H4164 C4170 0.950 . S
H4165 C4171 0.950 . S
H4166 C4172 0.949 . S
C4167 H4162 0.950 . S
C4167 C4169 1.327 . S
C4167 C4173 1.429 . S
C4168 C4160 1.574 . S
C4168 H4163 0.949 . S
C4168 C4174 1.352 1_556 S
C4169 C4153 1.349 . S
C4169 H4161 0.950 . S
C4169 C4167 1.327 . S
C4170 C4158 1.349 . S
C4170 H4164 0.950 . S
C4170 C4171 1.327 . S
C4171 H4165 0.950 . S
C4171 C4170 1.327 . S
C4171 C4175 1.429 . S
C4172 C4155 1.574 . S
C4172 H4166 0.949 . S
C4172 C4176 1.368 . S
C4173 C4154 1.429 . S
C4173 C4167 1.429 . S
C4173 C4174 1.568 . S
C4174 C4155 1.352 1_554 S
C4174 C4168 1.352 1_554 S
C4174 C4173 1.568 . S
C4175 C4159 1.429 . S
C4175 C4171 1.429 . S
C4175 C4176 1.523 . S
C4176 C4160 1.368 . S
C4176 C4172 1.368 . S
C4176 C4175 1.523 . S
H4177 C4152 0.950 . S
H4178 C4154 0.950 . S
H4179 C4155 0.949 1_554 S
H4180 C4157 0.950 . S
H4181 C4159 0.950 . S
C4182 C4183 1.349 . S
C4182 C4184 1.327 . S
C4182 H4207 0.950 . S
C4183 C4182 1.349 . S
C4183 C4199 1.349 . S
C4184 C4182 1.327 . S
C4184 C4203 1.429 . S
C4184 H4208 0.950 . S
C4185 C4202 1.574 . S
C4185 C4204 1.368 . S
C4185 H4209 0.949 . S
H4186 C4190 0.949 . S
C4187 C4188 1.349 . S
C4187 C4189 1.327 . S
C4187 H4210 0.950 . S
C4188 C4187 1.349 . S
C4188 C4200 1.349 . S
C4189 C4187 1.327 . S
C4189 C4205 1.429 . S
C4189 H4211 0.950 . S
C4190 H4186 0.949 . S
C4190 C4198 1.574 . S
C4190 C4206 1.368 . S
H4191 C4199 0.950 . S
H4192 C4197 0.950 . S
H4193 C4198 0.949 . S
H4194 C4200 0.950 . S
H4195 C4201 0.950 . S
H4196 C4202 0.949 . S
C4197 H4192 0.950 . S
C4197 C4199 1.327 . S
C4197 C4203 1.429 . S
C4198 C4190 1.574 . S
C4198 H4193 0.949 . S
C4198 C4204 1.368 . S
C4199 C4183 1.349 . S
C4199 H4191 0.950 . S
C4199 C4197 1.327 . S
C4200 C4188 1.349 . S
C4200 H4194 0.950 . S
C4200 C4201 1.327 . S
C4201 H4195 0.950 . S
C4201 C4200 1.327 . S
C4201 C4205 1.429 . S
C4202 C4185 1.574 . S
C4202 H4196 0.949 . S
C4202 C4206 1.368 . S
C4203 C4184 1.429 . S
C4203 C4197 1.429 . S
C4203 C4204 1.523 . S
C4204 C4185 1.368 . S
C4204 C4198 1.368 . S
C4204 C4203 1.523 . S
C4205 C4189 1.429 . S
C4205 C4201 1.429 . S
C4205 C4206 1.523 . S
C4206 C4190 1.368 . S
C4206 C4202 1.368 . S
C4206 C4205 1.523 . S
H4207 C4182 0.950 . S
H4208 C4184 0.950 . S
H4209 C4185 0.949 . S
H4210 C4187 0.950 . S
H4211 C4189 0.950 . S
C4212 C4213 1.349 . S
C4212 C4214 1.327 . S
C4212 H4237 0.950 . S
C4213 C4212 1.349 . S
C4213 C4229 1.349 . S
C4214 C4212 1.327 . S
C4214 C4233 1.429 . S
C4214 H4238 0.950 . S
C4215 C4232 1.574 . S
C4215 C4234 1.368 . S
C4215 H4239 0.949 . S
H4216 C4220 0.949 . S
C4217 C4218 1.349 . S
C4217 C4219 1.327 . S
C4217 H4240 0.950 . S
C4218 C4217 1.349 . S
C4218 C4230 1.349 . S
C4219 C4217 1.327 . S
C4219 C4235 1.429 . S
C4219 H4241 0.950 . S
C4220 H4216 0.949 . S
C4220 C4228 1.574 . S
C4220 C4236 1.368 . S
H4221 C4229 0.950 . S
H4222 C4227 0.950 . S
H4223 C4228 0.949 . S
H4224 C4230 0.950 . S
H4225 C4231 0.950 . S
H4226 C4232 0.949 . S
C4227 H4222 0.950 . S
C4227 C4229 1.327 . S
C4227 C4233 1.429 . S
C4228 C4220 1.574 . S
C4228 H4223 0.949 . S
C4228 C4234 1.368 . S
C4229 C4213 1.349 . S
C4229 H4221 0.950 . S
C4229 C4227 1.327 . S
C4230 C4218 1.349 . S
C4230 H4224 0.950 . S
C4230 C4231 1.327 . S
C4231 H4225 0.950 . S
C4231 C4230 1.327 . S
C4231 C4235 1.429 . S
C4232 C4215 1.574 . S
C4232 H4226 0.949 . S
C4232 C4236 1.368 . S
C4233 C4214 1.429 . S
C4233 C4227 1.429 . S
C4233 C4234 1.523 . S
C4234 C4215 1.368 . S
C4234 C4228 1.368 . S
C4234 C4233 1.523 . S
C4235 C4219 1.429 . S
C4235 C4231 1.429 . S
C4235 C4236 1.523 . S
C4236 C4220 1.368 . S
C4236 C4232 1.368 . S
C4236 C4235 1.523 . S
H4237 C4212 0.950 . S
H4238 C4214 0.950 . S
H4239 C4215 0.949 . S
H4240 C4217 0.950 . S
H4241 C4219 0.950 . S
C4242 C4243 1.349 . S
C4242 C4244 1.327 . S
C4242 H4267 0.950 . S
C4243 C4242 1.349 . S
C4243 C4259 1.349 . S
C4244 C4242 1.327 . S
C4244 C4263 1.429 . S
C4244 H4268 0.950 . S
C4245 C4262 1.574 . S
C4245 C4264 1.368 . S
C4245 H4269 0.949 . S
H4246 C4250 0.949 . S
C4247 C4248 1.349 . S
C4247 C4249 1.327 . S
C4247 H4270 0.950 . S
C4248 C4247 1.349 . S
C4248 C4260 1.349 . S
C4249 C4247 1.327 . S
C4249 C4265 1.429 . S
C4249 H4271 0.950 . S
C4250 H4246 0.949 . S
C4250 C4258 1.574 . S
C4250 C4266 1.368 . S
H4251 C4259 0.950 . S
H4252 C4257 0.950 . S
H4253 C4258 0.949 . S
H4254 C4260 0.950 . S
H4255 C4261 0.950 . S
H4256 C4262 0.949 . S
C4257 H4252 0.950 . S
C4257 C4259 1.327 . S
C4257 C4263 1.429 . S
C4258 C4250 1.574 . S
C4258 H4253 0.949 . S
C4258 C4264 1.368 . S
C4259 C4243 1.349 . S
C4259 H4251 0.950 . S
C4259 C4257 1.327 . S
C4260 C4248 1.349 . S
C4260 H4254 0.950 . S
C4260 C4261 1.327 . S
C4261 H4255 0.950 . S
C4261 C4260 1.327 . S
C4261 C4265 1.429 . S
C4262 C4245 1.574 . S
C4262 H4256 0.949 . S
C4262 C4266 1.368 . S
C4263 C4244 1.429 . S
C4263 C4257 1.429 . S
C4263 C4264 1.523 . S
C4264 C4245 1.368 . S
C4264 C4258 1.368 . S
C4264 C4263 1.523 . S
C4265 C4249 1.429 . S
C4265 C4261 1.429 . S
C4265 C4266 1.523 . S
C4266 C4250 1.368 . S
C4266 C4262 1.368 . S
C4266 C4265 1.523 . S
H4267 C4242 0.950 . S
H4268 C4244 0.950 . S
H4269 C4245 0.949 . S
H4270 C4247 0.950 . S
H4271 C4249 0.950 . S
C4272 C4273 1.349 . S
C4272 C4274 1.327 . S
C4272 H4297 0.950 . S
C4273 C4272 1.349 . S
C4273 C4289 1.349 . S
C4274 C4272 1.327 . S
C4274 C4293 1.429 . S
C4274 H4298 0.950 . S
C4275 C4292 1.574 . S
C4275 C4294 1.368 . S
C4275 H4299 0.949 . S
H4276 C4280 0.949 . S
C4277 C4278 1.349 . S
C4277 C4279 1.327 . S
C4277 H4300 0.950 . S
C4278 C4277 1.349 . S
C4278 C4290 1.349 . S
C4279 C4277 1.327 . S
C4279 C4295 1.429 . S
C4279 H4301 0.950 . S
C4280 H4276 0.949 . S
C4280 C4288 1.574 . S
C4280 C4296 1.368 . S
H4281 C4289 0.950 . S
H4282 C4287 0.950 . S
H4283 C4288 0.949 . S
H4284 C4290 0.950 . S
H4285 C4291 0.950 . S
H4286 C4292 0.949 . S
C4287 H4282 0.950 . S
C4287 C4289 1.327 . S
C4287 C4293 1.429 . S
C4288 C4280 1.574 . S
C4288 H4283 0.949 . S
C4288 C4294 1.368 . S
C4289 C4273 1.349 . S
C4289 H4281 0.950 . S
C4289 C4287 1.327 . S
C4290 C4278 1.349 . S
C4290 H4284 0.950 . S
C4290 C4291 1.327 . S
C4291 H4285 0.950 . S
C4291 C4290 1.327 . S
C4291 C4295 1.429 . S
C4292 C4275 1.574 . S
C4292 H4286 0.949 . S
C4292 C4296 1.368 . S
C4293 C4274 1.429 . S
C4293 C4287 1.429 . S
C4293 C4294 1.523 . S
C4294 C4275 1.368 . S
C4294 C4288 1.368 . S
C4294 C4293 1.523 . S
C4295 C4279 1.429 . S
C4295 C4291 1.429 . S
C4295 C4296 1.523 . S
C4296 C4280 1.368 . S
C4296 C4292 1.368 . S
C4296 C4295 1.523 . S
H4297 C4272 0.950 . S
H4298 C4274 0.950 . S
H4299 C4275 0.949 . S
H4300 C4277 0.950 . S
H4301 C4279 0.950 . S
C4302 C4303 1.349 . S
C4302 C4304 1.327 . S
C4302 H4327 0.950 . S
C4303 C4302 1.349 . S
C4303 C4319 1.349 . S
C4304 C4302 1.327 . S
C4304 C4323 1.429 . S
C4304 H4328 0.950 . S
C4305 C4322 1.574 . S
C4305 C4324 1.368 . S
C4305 H4329 0.949 . S
H4306 C4310 0.949 . S
C4307 C4308 1.349 . S
C4307 C4309 1.327 . S
C4307 H4330 0.950 . S
C4308 C4307 1.349 . S
C4308 C4320 1.349 . S
C4309 C4307 1.327 . S
C4309 C4325 1.429 . S
C4309 H4331 0.950 . S
C4310 H4306 0.949 . S
C4310 C4318 1.574 . S
C4310 C4326 1.368 . S
H4311 C4319 0.950 . S
H4312 C4317 0.950 . S
H4313 C4318 0.949 . S
H4314 C4320 0.950 . S
H4315 C4321 0.950 . S
H4316 C4322 0.949 . S
C4317 H4312 0.950 . S
C4317 C4319 1.327 . S
C4317 C4323 1.429 . S
C4318 C4310 1.574 . S
C4318 H4313 0.949 . S
C4318 C4324 1.368 . S
C4319 C4303 1.349 . S
C4319 H4311 0.950 . S
C4319 C4317 1.327 . S
C4320 C4308 1.349 . S
C4320 H4314 0.950 . S
C4320 C4321 1.327 . S
C4321 H4315 0.950 . S
C4321 C4320 1.327 . S
C4321 C4325 1.429 . S
C4322 C4305 1.574 . S
C4322 H4316 0.949 . S
C4322 C4326 1.368 . S
C4323 C4304 1.429 . S
C4323 C4317 1.429 . S
C4323 C4324 1.523 . S
C4324 C4305 1.368 . S
C4324 C4318 1.368 . S
C4324 C4323 1.523 . S
C4325 C4309 1.429 . S
C4325 C4321 1.429 . S
C4325 C4326 1.523 . S
C4326 C4310 1.368 . S
C4326 C4322 1.368 . S
C4326 C4325 1.523 . S
H4327 C4302 0.950 . S
H4328 C4304 0.950 . S
H4329 C4305 0.949 . S
H4330 C4307 0.950 . S
H4331 C4309 0.950 . S
C4332 C4333 1.349 . S
C4332 C4334 1.327 . S
C4332 H4357 0.936 1_655 S
C4333 C4332 1.349 . S
C4333 C4349 1.349 . S
C4334 C4332 1.327 . S
C4334 C4353 1.429 . S
C4334 H4358 0.950 . S
C4335 C4352 1.574 . S
C4335 C4354 1.368 . S
C4335 H4359 0.949 . S
H4336 C4340 0.949 . S
C4337 C4338 1.349 . S
C4337 C4339 1.327 . S
C4337 H4360 0.950 . S
C4338 C4337 1.349 . S
C4338 C4350 1.349 . S
C4339 C4337 1.327 . S
C4339 C4355 1.429 . S
C4339 H4361 0.950 . S
C4340 H4336 0.949 . S
C4340 C4348 1.574 . S
C4340 C4356 1.368 . S
H4341 C4349 0.950 . S
H4342 C4347 0.950 . S
H4343 C4348 0.949 . S
H4344 C4350 0.950 . S
H4345 C4351 0.950 . S
H4346 C4352 0.949 . S
C4347 H4342 0.950 . S
C4347 C4349 1.327 . S
C4347 C4353 1.429 . S
C4348 C4340 1.574 . S
C4348 H4343 0.949 . S
C4348 C4354 1.368 . S
C4349 C4333 1.349 . S
C4349 H4341 0.950 . S
C4349 C4347 1.327 . S
C4350 C4338 1.349 . S
C4350 H4344 0.950 . S
C4350 C4351 1.327 . S
C4351 H4345 0.950 . S
C4351 C4350 1.327 . S
C4351 C4355 1.429 . S
C4352 C4335 1.574 . S
C4352 H4346 0.949 . S
C4352 C4356 1.368 . S
C4353 C4334 1.429 . S
C4353 C4347 1.429 . S
C4353 C4354 1.523 . S
C4354 C4335 1.368 . S
C4354 C4348 1.368 . S
C4354 C4353 1.523 . S
C4355 C4339 1.429 . S
C4355 C4351 1.429 . S
C4355 C4356 1.523 . S
C4356 C4340 1.368 . S
C4356 C4352 1.368 . S
C4356 C4355 1.523 . S
H4357 C4332 0.936 1_455 S
H4358 C4334 0.950 . S
H4359 C4335 0.949 . S
H4360 C4337 0.950 . S
H4361 C4339 0.950 . S
C4362 C4363 1.349 . S
C4362 C4364 1.327 . S
C4362 H4387 0.950 . S
C4363 C4362 1.349 . S
C4363 C4379 1.349 . S
C4364 C4362 1.327 . S
C4364 C4383 1.429 . S
C4364 H4388 0.950 . S
C4365 C4382 1.574 . S
C4365 C4384 1.368 . S
C4365 H4389 0.949 . S
H4366 C4370 0.949 . S
C4367 C4368 1.349 . S
C4367 C4369 1.327 . S
C4367 H4390 0.950 . S
C4368 C4367 1.349 . S
C4368 C4380 1.349 . S
C4369 C4367 1.327 . S
C4369 C4385 1.429 . S
C4369 H4391 0.950 . S
C4370 H4366 0.949 . S
C4370 C4378 1.574 . S
C4370 C4386 1.368 . S
H4371 C4379 0.950 . S
H4372 C4377 0.950 . S
H4373 C4378 0.949 . S
H4374 C4380 0.950 . S
H4375 C4381 0.950 . S
H4376 C4382 0.949 . S
C4377 H4372 0.950 . S
C4377 C4379 1.327 . S
C4377 C4383 1.429 . S
C4378 C4370 1.574 . S
C4378 H4373 0.949 . S
C4378 C4384 1.368 . S
C4379 C4363 1.349 . S
C4379 H4371 0.950 . S
C4379 C4377 1.327 . S
C4380 C4368 1.349 . S
C4380 H4374 0.950 . S
C4380 C4381 1.327 . S
C4381 H4375 0.950 . S
C4381 C4380 1.327 . S
C4381 C4385 1.429 . S
C4382 C4365 1.574 . S
C4382 H4376 0.949 . S
C4382 C4386 1.368 . S
C4383 C4364 1.429 . S
C4383 C4377 1.429 . S
C4383 C4384 1.523 . S
C4384 C4365 1.368 . S
C4384 C4378 1.368 . S
C4384 C4383 1.523 . S
C4385 C4369 1.429 . S
C4385 C4381 1.429 . S
C4385 C4386 1.523 . S
C4386 C4370 1.368 . S
C4386 C4382 1.368 . S
C4386 C4385 1.523 . S
H4387 C4362 0.950 . S
H4388 C4364 0.950 . S
H4389 C4365 0.949 . S
H4390 C4367 0.950 . S
H4391 C4369 0.950 . S
C4392 C4393 1.349 . S
C4392 C4394 1.327 . S
C4392 H4417 0.950 . S
C4393 C4392 1.349 . S
C4393 C4409 1.349 . S
C4394 C4392 1.327 . S
C4394 C4413 1.429 . S
C4394 H4418 0.950 . S
C4395 C4412 1.574 . S
C4395 C4414 1.368 . S
C4395 H4419 0.949 . S
H4396 C4400 0.949 . S
C4397 C4398 1.349 . S
C4397 C4399 1.327 . S
C4397 H4420 0.950 . S
C4398 C4397 1.349 . S
C4398 C4410 1.349 . S
C4399 C4397 1.327 . S
C4399 C4415 1.429 . S
C4399 H4421 0.950 . S
C4400 H4396 0.949 . S
C4400 C4408 1.574 . S
C4400 C4416 1.368 . S
H4401 C4409 0.950 . S
H4402 C4407 0.950 . S
H4403 C4408 0.949 . S
H4404 C4410 0.950 . S
H4405 C4411 0.950 . S
H4406 C4412 0.949 . S
C4407 H4402 0.950 . S
C4407 C4409 1.327 . S
C4407 C4413 1.429 . S
C4408 C4400 1.574 . S
C4408 H4403 0.949 . S
C4408 C4414 1.368 . S
C4409 C4393 1.349 . S
C4409 H4401 0.950 . S
C4409 C4407 1.327 . S
C4410 C4398 1.349 . S
C4410 H4404 0.950 . S
C4410 C4411 1.327 . S
C4411 H4405 0.950 . S
C4411 C4410 1.327 . S
C4411 C4415 1.429 . S
C4412 C4395 1.574 . S
C4412 H4406 0.949 . S
C4412 C4416 1.368 . S
C4413 C4394 1.429 . S
C4413 C4407 1.429 . S
C4413 C4414 1.523 . S
C4414 C4395 1.368 . S
C4414 C4408 1.368 . S
C4414 C4413 1.523 . S
C4415 C4399 1.429 . S
C4415 C4411 1.429 . S
C4415 C4416 1.523 . S
C4416 C4400 1.368 . S
C4416 C4412 1.368 . S
C4416 C4415 1.523 . S
H4417 C4392 0.950 . S
H4418 C4394 0.950 . S
H4419 C4395 0.949 . S
H4420 C4397 0.950 . S
H4421 C4399 0.950 . S
C4422 C4423 1.349 . S
C4422 C4424 1.327 . S
C4422 H4447 0.950 . S
C4423 C4422 1.349 . S
C4423 C4439 1.349 . S
C4424 C4422 1.327 . S
C4424 C4443 1.429 . S
C4424 H4448 0.950 . S
C4425 C4442 1.574 . S
C4425 C4444 1.368 . S
C4425 H4449 0.949 . S
H4426 C4430 0.949 . S
C4427 C4428 1.349 . S
C4427 C4429 1.327 . S
C4427 H4450 0.950 . S
C4428 C4427 1.349 . S
C4428 C4440 1.349 . S
C4429 C4427 1.327 . S
C4429 C4445 1.429 . S
C4429 H4451 0.950 . S
C4430 H4426 0.949 . S
C4430 C4438 1.574 . S
C4430 C4446 1.368 . S
H4431 C4439 0.950 . S
H4432 C4437 0.950 . S
H4433 C4438 0.949 . S
H4434 C4440 0.950 . S
H4435 C4441 0.950 . S
H4436 C4442 0.949 . S
C4437 H4432 0.950 . S
C4437 C4439 1.327 . S
C4437 C4443 1.429 . S
C4438 C4430 1.574 . S
C4438 H4433 0.949 . S
C4438 C4444 1.368 . S
C4439 C4423 1.349 . S
C4439 H4431 0.950 . S
C4439 C4437 1.327 . S
C4440 C4428 1.349 . S
C4440 H4434 0.950 . S
C4440 C4441 1.327 . S
C4441 H4435 0.950 . S
C4441 C4440 1.327 . S
C4441 C4445 1.429 . S
C4442 C4425 1.574 . S
C4442 H4436 0.949 . S
C4442 C4446 1.368 . S
C4443 C4424 1.429 . S
C4443 C4437 1.429 . S
C4443 C4444 1.523 . S
C4444 C4425 1.368 . S
C4444 C4438 1.368 . S
C4444 C4443 1.523 . S
C4445 C4429 1.429 . S
C4445 C4441 1.429 . S
C4445 C4446 1.523 . S
C4446 C4430 1.368 . S
C4446 C4442 1.368 . S
C4446 C4445 1.523 . S
H4447 C4422 0.950 . S
H4448 C4424 0.950 . S
H4449 C4425 0.949 . S
H4450 C4427 0.950 . S
H4451 C4429 0.950 . S
C4452 C4453 1.349 . S
C4452 C4454 1.327 . S
C4452 H4477 0.950 . S
C4453 C4452 1.349 . S
C4453 C4469 1.349 . S
C4454 C4452 1.327 . S
C4454 C4473 1.429 . S
C4454 H4478 0.950 . S
C4455 C4472 1.574 . S
C4455 C4474 1.368 . S
C4455 H4479 0.949 1_655 S
H4456 C4460 0.949 . S
C4457 C4458 1.349 . S
C4457 C4459 1.327 . S
C4457 H4480 0.950 . S
C4458 C4457 1.349 . S
C4458 C4470 1.349 . S
C4459 C4457 1.327 . S
C4459 C4475 1.429 . S
C4459 H4481 0.950 . S
C4460 H4456 0.949 . S
C4460 C4468 1.574 . S
C4460 C4476 1.368 . S
H4461 C4469 0.950 . S
H4462 C4467 0.950 . S
H4463 C4468 0.949 . S
H4464 C4470 0.950 . S
H4465 C4471 0.950 . S
H4466 C4472 0.949 . S
C4467 H4462 0.950 . S
C4467 C4469 1.327 . S
C4467 C4473 1.429 . S
C4468 C4460 1.574 . S
C4468 H4463 0.949 . S
C4468 C4474 1.368 . S
C4469 C4453 1.349 . S
C4469 H4461 0.950 . S
C4469 C4467 1.327 . S
C4470 C4458 1.349 . S
C4470 H4464 0.950 . S
C4470 C4471 1.327 . S
C4471 H4465 0.950 . S
C4471 C4470 1.327 . S
C4471 C4475 1.429 . S
C4472 C4455 1.574 . S
C4472 H4466 0.949 . S
C4472 C4476 1.368 . S
C4473 C4454 1.429 . S
C4473 C4467 1.429 . S
C4473 C4474 1.523 1_455 S
C4474 C4455 1.368 . S
C4474 C4468 1.368 . S
C4474 C4473 1.523 1_655 S
C4475 C4459 1.429 . S
C4475 C4471 1.429 . S
C4475 C4476 1.523 . S
C4476 C4460 1.368 . S
C4476 C4472 1.368 . S
C4476 C4475 1.523 . S
H4477 C4452 0.950 . S
H4478 C4454 0.950 . S
H4479 C4455 0.949 1_455 S
H4480 C4457 0.950 . S
H4481 C4459 0.950 . S
C4482 C4483 1.349 . S
C4482 C4484 1.327 . S
C4482 H4507 0.950 . S
C4483 C4482 1.349 . S
C4483 C4499 1.349 . S
C4484 C4482 1.327 . S
C4484 C4503 1.429 . S
C4484 H4508 0.950 . S
C4485 C4502 1.574 . S
C4485 C4504 1.368 . S
C4485 H4509 0.949 . S
H4486 C4490 0.949 . S
C4487 C4488 1.349 . S
C4487 C4489 1.327 . S
C4487 H4510 0.950 . S
C4488 C4487 1.349 . S
C4488 C4500 1.349 . S
C4489 C4487 1.327 . S
C4489 C4505 1.429 . S
C4489 H4511 0.950 . S
C4490 H4486 0.949 . S
C4490 C4498 1.574 . S
C4490 C4506 1.368 . S
H4491 C4499 0.950 . S
H4492 C4497 0.950 . S
H4493 C4498 0.949 . S
H4494 C4500 0.950 . S
H4495 C4501 0.950 . S
H4496 C4502 0.949 . S
C4497 H4492 0.950 . S
C4497 C4499 1.327 . S
C4497 C4503 1.429 . S
C4498 C4490 1.574 . S
C4498 H4493 0.949 . S
C4498 C4504 1.368 . S
C4499 C4483 1.349 . S
C4499 H4491 0.950 . S
C4499 C4497 1.327 . S
C4500 C4488 1.349 . S
C4500 H4494 0.950 . S
C4500 C4501 1.327 . S
C4501 H4495 0.950 . S
C4501 C4500 1.327 . S
C4501 C4505 1.429 . S
C4502 C4485 1.574 . S
C4502 H4496 0.949 . S
C4502 C4506 1.368 . S
C4503 C4484 1.429 . S
C4503 C4497 1.429 . S
C4503 C4504 1.523 . S
C4504 C4485 1.368 . S
C4504 C4498 1.368 . S
C4504 C4503 1.523 . S
C4505 C4489 1.429 . S
C4505 C4501 1.429 . S
C4505 C4506 1.523 . S
C4506 C4490 1.368 . S
C4506 C4502 1.368 . S
C4506 C4505 1.523 . S
H4507 C4482 0.950 . S
H4508 C4484 0.950 . S
H4509 C4485 0.949 . S
H4510 C4487 0.950 . S
H4511 C4489 0.950 . S
C4512 C4513 1.349 . S
C4512 C4514 1.327 . S
C4512 H4537 0.950 . S
C4513 C4512 1.349 . S
C4513 C4529 1.349 . S
C4514 C4512 1.327 . S
C4514 C4533 1.429 . S
C4514 H4538 0.950 . S
C4515 C4532 1.574 . S
C4515 C4534 1.368 . S
C4515 H4539 0.949 . S
H4516 C4520 0.949 . S
C4517 C4518 1.349 . S
C4517 C4519 1.327 . S
C4517 H4540 0.950 . S
C4518 C4517 1.349 . S
C4518 C4530 1.349 . S
C4519 C4517 1.327 . S
C4519 C4535 1.429 . S
C4519 H4541 0.950 . S
C4520 H4516 0.949 . S
C4520 C4528 1.574 . S
C4520 C4536 1.368 . S
H4521 C4529 0.950 . S
H4522 C4527 0.950 . S
H4523 C4528 0.949 . S
H4524 C4530 0.950 . S
H4525 C4531 0.950 . S
H4526 C4532 0.949 . S
C4527 H4522 0.950 . S
C4527 C4529 1.327 . S
C4527 C4533 1.429 . S
C4528 C4520 1.574 . S
C4528 H4523 0.949 . S
C4528 C4534 1.368 . S
C4529 C4513 1.349 . S
C4529 H4521 0.950 . S
C4529 C4527 1.327 . S
C4530 C4518 1.349 . S
C4530 H4524 0.950 . S
C4530 C4531 1.327 . S
C4531 H4525 0.950 . S
C4531 C4530 1.327 . S
C4531 C4535 1.429 . S
C4532 C4515 1.574 . S
C4532 H4526 0.949 . S
C4532 C4536 1.368 . S
C4533 C4514 1.429 . S
C4533 C4527 1.429 . S
C4533 C4534 1.523 . S
C4534 C4515 1.368 . S
C4534 C4528 1.368 . S
C4534 C4533 1.523 . S
C4535 C4519 1.429 . S
C4535 C4531 1.429 . S
C4535 C4536 1.523 . S
C4536 C4520 1.368 . S
C4536 C4532 1.368 . S
C4536 C4535 1.523 . S
H4537 C4512 0.950 . S
H4538 C4514 0.950 . S
H4539 C4515 0.949 . S
H4540 C4517 0.950 . S
H4541 C4519 0.950 . S
C4542 C4543 1.349 . S
C4542 C4544 1.327 . S
C4542 H4567 0.950 . S
C4543 C4542 1.349 . S
C4543 C4559 1.349 . S
C4544 C4542 1.327 . S
C4544 C4563 1.429 . S
C4544 H4568 0.950 . S
C4545 C4562 1.574 . S
C4545 C4564 1.368 . S
C4545 H4569 0.949 . S
H4546 C4550 0.949 . S
C4547 C4548 1.349 . S
C4547 C4549 1.327 . S
C4547 H4570 0.950 . S
C4548 C4547 1.349 . S
C4548 C4560 1.349 . S
C4549 C4547 1.327 . S
C4549 C4565 1.429 . S
C4549 H4571 0.950 . S
C4550 H4546 0.949 . S
C4550 C4558 1.574 . S
C4550 C4566 1.368 . S
H4551 C4559 0.950 . S
H4552 C4557 0.950 . S
H4553 C4558 0.949 . S
H4554 C4560 0.950 . S
H4555 C4561 0.950 . S
H4556 C4562 0.949 . S
C4557 H4552 0.950 . S
C4557 C4559 1.327 . S
C4557 C4563 1.429 . S
C4558 C4550 1.574 . S
C4558 H4553 0.949 . S
C4558 C4564 1.368 . S
C4559 C4543 1.349 . S
C4559 H4551 0.950 . S
C4559 C4557 1.327 . S
C4560 C4548 1.349 . S
C4560 H4554 0.950 . S
C4560 C4561 1.327 . S
C4561 H4555 0.950 . S
C4561 C4560 1.327 . S
C4561 C4565 1.429 . S
C4562 C4545 1.574 . S
C4562 H4556 0.949 . S
C4562 C4566 1.368 . S
C4563 C4544 1.429 . S
C4563 C4557 1.429 . S
C4563 C4564 1.523 . S
C4564 C4545 1.368 . S
C4564 C4558 1.368 . S
C4564 C4563 1.523 . S
C4565 C4549 1.429 . S
C4565 C4561 1.429 . S
C4565 C4566 1.523 . S
C4566 C4550 1.368 . S
C4566 C4562 1.368 . S
C4566 C4565 1.523 . S
H4567 C4542 0.950 . S
H4568 C4544 0.950 . S
H4569 C4545 0.949 . S
H4570 C4547 0.950 . S
H4571 C4549 0.950 . S
C4572 C4573 1.349 . S
C4572 C4574 1.327 . S
C4572 H4597 0.950 . S
C4573 C4572 1.349 . S
C4573 C4589 1.349 . S
C4574 C4572 1.327 . S
C4574 C4593 1.429 . S
C4574 H4598 0.950 . S
C4575 C4592 1.574 . S
C4575 C4594 1.368 . S
C4575 H4599 0.949 . S
H4576 C4580 0.949 . S
C4577 C4578 1.349 . S
C4577 C4579 1.327 . S
C4577 H4600 0.950 . S
C4578 C4577 1.349 . S
C4578 C4590 1.349 . S
C4579 C4577 1.327 . S
C4579 C4595 1.429 . S
C4579 H4601 0.950 . S
C4580 H4576 0.949 . S
C4580 C4588 1.574 . S
C4580 C4596 1.368 . S
H4581 C4589 0.950 . S
H4582 C4587 0.950 . S
H4583 C4588 0.949 . S
H4584 C4590 0.950 . S
H4585 C4591 0.950 . S
H4586 C4592 0.949 . S
C4587 H4582 0.950 . S
C4587 C4589 1.327 . S
C4587 C4593 1.429 . S
C4588 C4580 1.574 . S
C4588 H4583 0.949 . S
C4588 C4594 1.368 . S
C4589 C4573 1.349 . S
C4589 H4581 0.950 . S
C4589 C4587 1.327 . S
C4590 C4578 1.349 . S
C4590 H4584 0.950 . S
C4590 C4591 1.327 . S
C4591 H4585 0.950 . S
C4591 C4590 1.327 . S
C4591 C4595 1.429 . S
C4592 C4575 1.574 . S
C4592 H4586 0.949 . S
C4592 C4596 1.368 . S
C4593 C4574 1.429 . S
C4593 C4587 1.429 . S
C4593 C4594 1.523 . S
C4594 C4575 1.368 . S
C4594 C4588 1.368 . S
C4594 C4593 1.523 . S
C4595 C4579 1.429 . S
C4595 C4591 1.429 . S
C4595 C4596 1.523 . S
C4596 C4580 1.368 . S
C4596 C4592 1.368 . S
C4596 C4595 1.523 . S
H4597 C4572 0.950 . S
H4598 C4574 0.950 . S
H4599 C4575 0.949 . S
H4600 C4577 0.950 . S
H4601 C4579 0.950 . S
C4602 C4603 1.349 . S
C4602 C4604 1.327 . S
C4602 H4627 0.950 . S
C4603 C4602 1.349 . S
C4603 C4619 1.349 . S
C4604 C4602 1.327 . S
C4604 C4623 1.429 . S
C4604 H4628 0.950 . S
C4605 C4622 1.574 . S
C4605 C4624 1.368 . S
C4605 H4629 0.949 . S
H4606 C4610 0.949 . S
C4607 C4608 1.349 . S
C4607 C4609 1.327 . S
C4607 H4630 0.950 . S
C4608 C4607 1.349 . S
C4608 C4620 1.349 . S
C4609 C4607 1.327 . S
C4609 C4625 1.429 . S
C4609 H4631 0.950 . S
C4610 H4606 0.949 . S
C4610 C4618 1.574 . S
C4610 C4626 1.368 . S
H4611 C4619 0.950 . S
H4612 C4617 0.950 . S
H4613 C4618 0.949 . S
H4614 C4620 0.950 . S
H4615 C4621 0.950 . S
H4616 C4622 0.949 . S
C4617 H4612 0.950 . S
C4617 C4619 1.327 . S
C4617 C4623 1.429 . S
C4618 C4610 1.574 . S
C4618 H4613 0.949 . S
C4618 C4624 1.368 . S
C4619 C4603 1.349 . S
C4619 H4611 0.950 . S
C4619 C4617 1.327 . S
C4620 C4608 1.349 . S
C4620 H4614 0.950 . S
C4620 C4621 1.327 . S
C4621 H4615 0.950 . S
C4621 C4620 1.327 . S
C4621 C4625 1.429 . S
C4622 C4605 1.574 . S
C4622 H4616 0.949 . S
C4622 C4626 1.368 . S
C4623 C4604 1.429 . S
C4623 C4617 1.429 . S
C4623 C4624 1.523 . S
C4624 C4605 1.368 . S
C4624 C4618 1.368 . S
C4624 C4623 1.523 . S
C4625 C4609 1.429 . S
C4625 C4621 1.429 . S
C4625 C4626 1.523 . S
C4626 C4610 1.368 . S
C4626 C4622 1.368 . S
C4626 C4625 1.523 . S
H4627 C4602 0.950 . S
H4628 C4604 0.950 . S
H4629 C4605 0.949 . S
H4630 C4607 0.950 . S
H4631 C4609 0.950 . S
C4632 C4633 1.349 . S
C4632 C4634 1.327 . S
C4632 H4657 0.950 . S
C4633 C4632 1.349 . S
C4633 C4649 1.349 . S
C4634 C4632 1.327 . S
C4634 C4653 1.429 . S
C4634 H4658 0.950 . S
C4635 C4652 1.574 . S
C4635 C4654 1.368 . S
C4635 H4659 0.949 . S
H4636 C4640 0.949 . S
C4637 C4638 1.349 . S
C4637 C4639 1.327 . S
C4637 H4660 0.950 . S
C4638 C4637 1.349 . S
C4638 C4650 1.349 . S
C4639 C4637 1.327 . S
C4639 C4655 1.429 . S
C4639 H4661 0.950 . S
C4640 H4636 0.949 . S
C4640 C4648 1.574 . S
C4640 C4656 1.368 . S
H4641 C4649 0.950 . S
H4642 C4647 0.950 . S
H4643 C4648 0.949 . S
H4644 C4650 0.950 . S
H4645 C4651 0.950 . S
H4646 C4652 0.949 . S
C4647 H4642 0.950 . S
C4647 C4649 1.327 . S
C4647 C4653 1.429 . S
C4648 C4640 1.574 . S
C4648 H4643 0.949 . S
C4648 C4654 1.368 . S
C4649 C4633 1.349 . S
C4649 H4641 0.950 . S
C4649 C4647 1.327 . S
C4650 C4638 1.349 . S
C4650 H4644 0.950 . S
C4650 C4651 1.327 . S
C4651 H4645 0.950 . S
C4651 C4650 1.327 . S
C4651 C4655 1.429 . S
C4652 C4635 1.574 . S
C4652 H4646 0.949 . S
C4652 C4656 1.368 . S
C4653 C4634 1.429 . S
C4653 C4647 1.429 . S
C4653 C4654 1.523 . S
C4654 C4635 1.368 . S
C4654 C4648 1.368 . S
C4654 C4653 1.523 . S
C4655 C4639 1.429 . S
C4655 C4651 1.429 . S
C4655 C4656 1.523 . S
C4656 C4640 1.368 . S
C4656 C4652 1.368 . S
C4656 C4655 1.523 . S
H4657 C4632 0.950 . S
H4658 C4634 0.950 . S
H4659 C4635 0.949 . S
H4660 C4637 0.950 . S
H4661 C4639 0.950 . S
C4662 C4663 1.349 . S
C4662 C4664 1.327 . S
C4662 H4687 0.950 . S
C4663 C4662 1.349 . S
C4663 C4679 1.349 . S
C4664 C4662 1.327 . S
C4664 C4683 1.429 . S
C4664 H4688 0.950 . S
C4665 C4682 1.574 . S
C4665 C4684 1.368 . S
C4665 H4689 0.949 . S
H4666 C4670 0.949 . S
C4667 C4668 1.349 . S
C4667 C4669 1.327 . S
C4667 H4690 0.950 . S
C4668 C4667 1.349 . S
C4668 C4680 1.349 . S
C4669 C4667 1.327 . S
C4669 C4685 1.429 . S
C4669 H4691 0.950 . S
C4670 H4666 0.949 . S
C4670 C4678 1.574 . S
C4670 C4686 1.368 . S
H4671 C4679 0.950 . S
H4672 C4677 0.950 . S
H4673 C4678 0.949 . S
H4674 C4680 0.950 . S
H4675 C4681 0.950 . S
H4676 C4682 0.949 . S
C4677 H4672 0.950 . S
C4677 C4679 1.327 . S
C4677 C4683 1.429 . S
C4678 C4670 1.574 . S
C4678 H4673 0.949 . S
C4678 C4684 1.368 . S
C4679 C4663 1.349 . S
C4679 H4671 0.950 . S
C4679 C4677 1.327 . S
C4680 C4668 1.349 . S
C4680 H4674 0.950 . S
C4680 C4681 1.327 . S
C4681 H4675 0.950 . S
C4681 C4680 1.327 . S
C4681 C4685 1.429 . S
C4682 C4665 1.574 . S
C4682 H4676 0.949 . S
C4682 C4686 1.368 . S
C4683 C4664 1.429 . S
C4683 C4677 1.429 . S
C4683 C4684 1.523 . S
C4684 C4665 1.368 . S
C4684 C4678 1.368 . S
C4684 C4683 1.523 . S
C4685 C4669 1.429 . S
C4685 C4681 1.429 . S
C4685 C4686 1.523 . S
C4686 C4670 1.368 . S
C4686 C4682 1.368 . S
C4686 C4685 1.523 . S
H4687 C4662 0.950 . S
H4688 C4664 0.950 . S
H4689 C4665 0.949 . S
H4690 C4667 0.950 . S
H4691 C4669 0.950 . S
C4692 C4693 1.349 . S
C4692 C4694 1.327 . S
C4692 H4717 0.950 . S
C4693 C4692 1.349 . S
C4693 C4709 1.349 . S
C4694 C4692 1.327 . S
C4694 C4713 1.429 . S
C4694 H4718 0.950 . S
C4695 C4712 1.574 . S
C4695 C4714 1.368 . S
C4695 H4719 0.949 . S
H4696 C4700 0.949 . S
C4697 C4698 1.349 . S
C4697 C4699 1.327 . S
C4697 H4720 0.950 . S
C4698 C4697 1.349 . S
C4698 C4710 1.349 . S
C4699 C4697 1.327 . S
C4699 C4715 1.429 . S
C4699 H4721 0.950 . S
C4700 H4696 0.949 . S
C4700 C4708 1.574 . S
C4700 C4716 1.368 . S
H4701 C4709 0.950 . S
H4702 C4707 0.950 . S
H4703 C4708 0.949 . S
H4704 C4710 0.950 . S
H4705 C4711 0.950 . S
H4706 C4712 0.949 . S
C4707 H4702 0.950 . S
C4707 C4709 1.327 . S
C4707 C4713 1.429 . S
C4708 C4700 1.574 . S
C4708 H4703 0.949 . S
C4708 C4714 1.368 . S
C4709 C4693 1.349 . S
C4709 H4701 0.950 . S
C4709 C4707 1.327 . S
C4710 C4698 1.349 . S
C4710 H4704 0.950 . S
C4710 C4711 1.327 . S
C4711 H4705 0.950 . S
C4711 C4710 1.327 . S
C4711 C4715 1.429 . S
C4712 C4695 1.574 . S
C4712 H4706 0.949 . S
C4712 C4716 1.368 . S
C4713 C4694 1.429 . S
C4713 C4707 1.429 . S
C4713 C4714 1.523 . S
C4714 C4695 1.368 . S
C4714 C4708 1.368 . S
C4714 C4713 1.523 . S
C4715 C4699 1.429 . S
C4715 C4711 1.429 . S
C4715 C4716 1.523 . S
C4716 C4700 1.368 . S
C4716 C4712 1.368 . S
C4716 C4715 1.523 . S
H4717 C4692 0.950 . S
H4718 C4694 0.950 . S
H4719 C4695 0.949 . S
H4720 C4697 0.950 . S
H4721 C4699 0.950 . S
C4722 C4723 1.349 . S
C4722 C4724 1.327 . S
C4722 H4747 0.950 . S
C4723 C4722 1.349 . S
C4723 C4739 1.349 . S
C4724 C4722 1.327 . S
C4724 C4743 1.429 . S
C4724 H4748 0.950 . S
C4725 C4742 1.574 . S
C4725 C4744 1.368 . S
C4725 H4749 0.949 . S
H4726 C4730 0.949 . S
C4727 C4728 1.349 . S
C4727 C4729 1.327 . S
C4727 H4750 0.950 . S
C4728 C4727 1.349 . S
C4728 C4740 1.349 . S
C4729 C4727 1.327 . S
C4729 C4745 1.429 . S
C4729 H4751 0.950 . S
C4730 H4726 0.949 . S
C4730 C4738 1.574 . S
C4730 C4746 1.368 . S
H4731 C4739 0.950 . S
H4732 C4737 0.950 . S
H4733 C4738 0.949 . S
H4734 C4740 0.950 . S
H4735 C4741 0.950 . S
H4736 C4742 0.949 . S
C4737 H4732 0.950 . S
C4737 C4739 1.327 . S
C4737 C4743 1.429 . S
C4738 C4730 1.574 . S
C4738 H4733 0.949 . S
C4738 C4744 1.368 . S
C4739 C4723 1.349 . S
C4739 H4731 0.950 . S
C4739 C4737 1.327 . S
C4740 C4728 1.349 . S
C4740 H4734 0.950 . S
C4740 C4741 1.327 . S
C4741 H4735 0.950 . S
C4741 C4740 1.327 . S
C4741 C4745 1.429 . S
C4742 C4725 1.574 . S
C4742 H4736 0.949 . S
C4742 C4746 1.368 . S
C4743 C4724 1.429 . S
C4743 C4737 1.429 . S
C4743 C4744 1.523 . S
C4744 C4725 1.368 . S
C4744 C4738 1.368 . S
C4744 C4743 1.523 . S
C4745 C4729 1.429 . S
C4745 C4741 1.429 . S
C4745 C4746 1.523 . S
C4746 C4730 1.368 . S
C4746 C4742 1.368 . S
C4746 C4745 1.523 . S
H4747 C4722 0.950 . S
H4748 C4724 0.950 . S
H4749 C4725 0.949 . S
H4750 C4727 0.950 . S
H4751 C4729 0.950 . S
C4752 C4753 1.349 . S
C4752 C4754 1.327 . S
C4752 H4777 0.950 . S
C4753 C4752 1.349 . S
C4753 C4769 1.349 . S
C4754 C4752 1.327 . S
C4754 C4773 1.429 . S
C4754 H4778 0.950 . S
C4755 C4772 1.574 . S
C4755 C4774 1.368 . S
C4755 H4779 0.949 . S
H4756 C4760 0.949 . S
C4757 C4758 1.349 . S
C4757 C4759 1.327 . S
C4757 H4780 0.950 . S
C4758 C4757 1.349 . S
C4758 C4770 1.349 . S
C4759 C4757 1.327 . S
C4759 C4775 1.429 . S
C4759 H4781 0.950 . S
C4760 H4756 0.949 . S
C4760 C4768 1.574 . S
C4760 C4776 1.368 . S
H4761 C4769 0.950 . S
H4762 C4767 0.950 . S
H4763 C4768 0.949 . S
H4764 C4770 0.950 . S
H4765 C4771 0.950 . S
H4766 C4772 0.949 . S
C4767 H4762 0.950 . S
C4767 C4769 1.327 . S
C4767 C4773 1.429 . S
C4768 C4760 1.574 . S
C4768 H4763 0.949 . S
C4768 C4774 1.368 . S
C4769 C4753 1.349 . S
C4769 H4761 0.950 . S
C4769 C4767 1.327 . S
C4770 C4758 1.349 . S
C4770 H4764 0.950 . S
C4770 C4771 1.327 . S
C4771 H4765 0.950 . S
C4771 C4770 1.327 . S
C4771 C4775 1.429 . S
C4772 C4755 1.574 . S
C4772 H4766 0.949 . S
C4772 C4776 1.368 . S
C4773 C4754 1.429 . S
C4773 C4767 1.429 . S
C4773 C4774 1.523 . S
C4774 C4755 1.368 . S
C4774 C4768 1.368 . S
C4774 C4773 1.523 . S
C4775 C4759 1.429 . S
C4775 C4771 1.429 . S
C4775 C4776 1.523 . S
C4776 C4760 1.368 . S
C4776 C4772 1.368 . S
C4776 C4775 1.523 . S
H4777 C4752 0.950 . S
H4778 C4754 0.950 . S
H4779 C4755 0.949 . S
H4780 C4757 0.950 . S
H4781 C4759 0.950 . S
C4782 C4783 1.349 . S
C4782 C4784 1.327 . S
C4782 H4807 0.950 . S
C4783 C4782 1.349 . S
C4783 C4799 1.349 . S
C4784 C4782 1.327 . S
C4784 C4803 1.429 . S
C4784 H4808 0.950 . S
C4785 C4802 1.574 . S
C4785 C4804 1.368 . S
C4785 H4809 0.949 . S
H4786 C4790 0.949 . S
C4787 C4788 1.349 . S
C4787 C4789 1.327 . S
C4787 H4810 0.950 . S
C4788 C4787 1.349 . S
C4788 C4800 1.349 . S
C4789 C4787 1.327 . S
C4789 C4805 1.429 . S
C4789 H4811 0.950 . S
C4790 H4786 0.949 . S
C4790 C4798 1.574 . S
C4790 C4806 1.368 . S
H4791 C4799 0.950 . S
H4792 C4797 0.950 . S
H4793 C4798 0.949 . S
H4794 C4800 0.950 . S
H4795 C4801 0.950 . S
H4796 C4802 0.949 . S
C4797 H4792 0.950 . S
C4797 C4799 1.327 . S
C4797 C4803 1.429 . S
C4798 C4790 1.574 . S
C4798 H4793 0.949 . S
C4798 C4804 1.368 . S
C4799 C4783 1.349 . S
C4799 H4791 0.950 . S
C4799 C4797 1.327 . S
C4800 C4788 1.349 . S
C4800 H4794 0.950 . S
C4800 C4801 1.327 . S
C4801 H4795 0.950 . S
C4801 C4800 1.327 . S
C4801 C4805 1.429 . S
C4802 C4785 1.574 . S
C4802 H4796 0.949 . S
C4802 C4806 1.368 . S
C4803 C4784 1.429 . S
C4803 C4797 1.429 . S
C4803 C4804 1.523 . S
C4804 C4785 1.368 . S
C4804 C4798 1.368 . S
C4804 C4803 1.523 . S
C4805 C4789 1.429 . S
C4805 C4801 1.429 . S
C4805 C4806 1.523 . S
C4806 C4790 1.368 . S
C4806 C4802 1.368 . S
C4806 C4805 1.523 . S
H4807 C4782 0.950 . S
H4808 C4784 0.950 . S
H4809 C4785 0.949 . S
H4810 C4787 0.950 . S
H4811 C4789 0.950 . S
C4812 C4813 1.349 . S
C4812 C4814 1.327 . S
C4812 H4837 0.950 . S
C4813 C4812 1.349 . S
C4813 C4829 1.349 . S
C4814 C4812 1.327 . S
C4814 C4833 1.429 . S
C4814 H4838 0.950 . S
C4815 C4832 1.532 1_554 S
C4815 C4834 1.368 . S
C4815 H4839 0.949 . S
H4816 C4820 0.949 . S
C4817 C4818 1.349 . S
C4817 C4819 1.327 . S
C4817 H4840 0.950 . S
C4818 C4817 1.349 . S
C4818 C4830 1.349 . S
C4819 C4817 1.327 . S
C4819 C4835 1.429 . S
C4819 H4841 0.950 . S
C4820 H4816 0.949 . S
C4820 C4828 1.546 1_556 S
C4820 C4836 1.368 . S
H4821 C4829 0.950 . S
H4822 C4827 0.950 . S
H4823 C4828 0.950 . S
H4824 C4830 0.950 . S
H4825 C4831 0.950 . S
H4826 C4832 0.951 . S
C4827 H4822 0.950 . S
C4827 C4829 1.327 . S
C4827 C4833 1.429 . S
C4828 C4820 1.546 1_554 S
C4828 H4823 0.950 . S
C4828 C4834 1.396 . S
C4829 C4813 1.349 . S
C4829 H4821 0.950 . S
C4829 C4827 1.327 . S
C4830 C4818 1.349 . S
C4830 H4824 0.950 . S
C4830 C4831 1.327 . S
C4831 H4825 0.950 . S
C4831 C4830 1.327 . S
C4831 C4835 1.429 . S
C4832 C4815 1.532 1_556 S
C4832 H4826 0.951 . S
C4832 C4836 1.410 . S
C4833 C4814 1.429 . S
C4833 C4827 1.429 . S
C4833 C4834 1.523 . S
C4834 C4815 1.368 . S
C4834 C4828 1.396 . S
C4834 C4833 1.523 . S
C4835 C4819 1.429 . S
C4835 C4831 1.429 . S
C4835 C4836 1.523 . S
C4836 C4820 1.368 . S
C4836 C4832 1.410 . S
C4836 C4835 1.523 . S
H4837 C4812 0.950 . S
H4838 C4814 0.950 . S
H4839 C4815 0.949 . S
H4840 C4817 0.950 . S
H4841 C4819 0.950 . S
C4842 C4843 1.349 . S
C4842 C4844 1.327 . S
C4842 H4867 0.950 . S
C4843 C4842 1.349 . S
C4843 C4859 1.349 . S
C4844 C4842 1.327 . S
C4844 C4863 1.429 . S
C4844 H4868 0.950 . S
C4845 C4862 1.574 . S
C4845 C4864 1.368 . S
C4845 H4869 0.949 . S
H4846 C4850 0.949 . S
C4847 C4848 1.349 . S
C4847 C4849 1.327 . S
C4847 H4870 0.950 . S
C4848 C4847 1.349 . S
C4848 C4860 1.349 . S
C4849 C4847 1.327 . S
C4849 C4865 1.429 . S
C4849 H4871 0.950 . S
C4850 H4846 0.949 . S
C4850 C4858 1.574 . S
C4850 C4866 1.368 . S
H4851 C4859 0.950 . S
H4852 C4857 0.950 . S
H4853 C4858 0.949 . S
H4854 C4860 0.950 . S
H4855 C4861 0.950 . S
H4856 C4862 0.949 . S
C4857 H4852 0.950 . S
C4857 C4859 1.327 . S
C4857 C4863 1.429 . S
C4858 C4850 1.574 . S
C4858 H4853 0.949 . S
C4858 C4864 1.368 . S
C4859 C4843 1.349 . S
C4859 H4851 0.950 . S
C4859 C4857 1.327 . S
C4860 C4848 1.349 . S
C4860 H4854 0.950 . S
C4860 C4861 1.327 . S
C4861 H4855 0.950 . S
C4861 C4860 1.327 . S
C4861 C4865 1.429 . S
C4862 C4845 1.574 . S
C4862 H4856 0.949 . S
C4862 C4866 1.368 . S
C4863 C4844 1.429 . S
C4863 C4857 1.429 . S
C4863 C4864 1.523 . S
C4864 C4845 1.368 . S
C4864 C4858 1.368 . S
C4864 C4863 1.523 . S
C4865 C4849 1.429 . S
C4865 C4861 1.429 . S
C4865 C4866 1.523 . S
C4866 C4850 1.368 . S
C4866 C4862 1.368 . S
C4866 C4865 1.523 . S
H4867 C4842 0.950 . S
H4868 C4844 0.950 . S
H4869 C4845 0.949 . S
H4870 C4847 0.950 . S
H4871 C4849 0.950 . S
C4872 C4873 1.349 . S
C4872 C4874 1.327 . S
C4872 H4897 0.950 . S
C4873 C4872 1.349 . S
C4873 C4889 1.349 . S
C4874 C4872 1.327 . S
C4874 C4893 1.429 . S
C4874 H4898 0.950 . S
C4875 C4892 1.574 . S
C4875 C4894 1.368 . S
C4875 H4899 0.949 . S
H4876 C4880 0.949 . S
C4877 C4878 1.349 . S
C4877 C4879 1.327 . S
C4877 H4900 0.950 . S
C4878 C4877 1.349 . S
C4878 C4890 1.349 . S
C4879 C4877 1.327 . S
C4879 C4895 1.429 . S
C4879 H4901 0.950 . S
C4880 H4876 0.949 . S
C4880 C4888 1.574 1_554 S
C4880 C4896 1.368 . S
H4881 C4889 0.950 . S
H4882 C4887 0.950 . S
H4883 C4888 0.949 . S
H4884 C4890 0.950 . S
H4885 C4891 0.950 . S
H4886 C4892 0.949 . S
C4887 H4882 0.950 . S
C4887 C4889 1.327 . S
C4887 C4893 1.429 . S
C4888 C4880 1.574 1_556 S
C4888 H4883 0.949 . S
C4888 C4894 1.368 . S
C4889 C4873 1.349 . S
C4889 H4881 0.950 . S
C4889 C4887 1.327 . S
C4890 C4878 1.349 . S
C4890 H4884 0.950 . S
C4890 C4891 1.327 . S
C4891 H4885 0.950 . S
C4891 C4890 1.327 . S
C4891 C4895 1.429 . S
C4892 C4875 1.574 . S
C4892 H4886 0.949 . S
C4892 C4896 1.368 1_556 S
C4893 C4874 1.429 . S
C4893 C4887 1.429 . S
C4893 C4894 1.523 . S
C4894 C4875 1.368 . S
C4894 C4888 1.368 . S
C4894 C4893 1.523 . S
C4895 C4879 1.429 . S
C4895 C4891 1.429 . S
C4895 C4896 1.523 . S
C4896 C4880 1.368 . S
C4896 C4892 1.368 1_554 S
C4896 C4895 1.523 . S
H4897 C4872 0.950 . S
H4898 C4874 0.950 . S
H4899 C4875 0.949 . S
H4900 C4877 0.950 . S
H4901 C4879 0.950 . S
C4902 C4903 1.349 . S
C4902 C4904 1.327 . S
C4902 H4927 0.950 . S
C4903 C4902 1.349 . S
C4903 C4919 1.349 . S
C4904 C4902 1.327 . S
C4904 C4923 1.429 . S
C4904 H4928 0.950 . S
C4905 C4922 1.574 . S
C4905 C4924 1.368 . S
C4905 H4929 0.949 . S
H4906 C4910 0.949 . S
C4907 C4908 1.349 . S
C4907 C4909 1.327 . S
C4907 H4930 0.950 . S
C4908 C4907 1.349 . S
C4908 C4920 1.349 . S
C4909 C4907 1.327 . S
C4909 C4925 1.429 . S
C4909 H4931 0.950 . S
C4910 H4906 0.949 . S
C4910 C4918 1.574 . S
C4910 C4926 1.368 . S
H4911 C4919 0.950 . S
H4912 C4917 0.950 . S
H4913 C4918 0.949 . S
H4914 C4920 0.950 . S
H4915 C4921 0.950 . S
H4916 C4922 0.949 . S
C4917 H4912 0.950 . S
C4917 C4919 1.327 . S
C4917 C4923 1.429 . S
C4918 C4910 1.574 . S
C4918 H4913 0.949 . S
C4918 C4924 1.368 . S
C4919 C4903 1.349 . S
C4919 H4911 0.950 . S
C4919 C4917 1.327 . S
C4920 C4908 1.349 . S
C4920 H4914 0.950 . S
C4920 C4921 1.327 . S
C4921 H4915 0.950 . S
C4921 C4920 1.327 . S
C4921 C4925 1.429 . S
C4922 C4905 1.574 . S
C4922 H4916 0.949 . S
C4922 C4926 1.368 . S
C4923 C4904 1.429 . S
C4923 C4917 1.429 . S
C4923 C4924 1.523 . S
C4924 C4905 1.368 . S
C4924 C4918 1.368 . S
C4924 C4923 1.523 . S
C4925 C4909 1.429 . S
C4925 C4921 1.429 . S
C4925 C4926 1.523 . S
C4926 C4910 1.368 . S
C4926 C4922 1.368 . S
C4926 C4925 1.523 . S
H4927 C4902 0.950 . S
H4928 C4904 0.950 . S
H4929 C4905 0.949 . S
H4930 C4907 0.950 . S
H4931 C4909 0.950 . S
C4932 C4933 1.349 . S
C4932 C4934 1.327 . S
C4932 H4957 0.950 . S
C4933 C4932 1.349 . S
C4933 C4949 1.349 . S
C4934 C4932 1.327 . S
C4934 C4953 1.429 . S
C4934 H4958 0.950 . S
C4935 C4952 1.574 . S
C4935 C4954 1.368 . S
C4935 H4959 0.949 . S
H4936 C4940 0.949 . S
C4937 C4938 1.349 . S
C4937 C4939 1.327 . S
C4937 H4960 0.950 . S
C4938 C4937 1.349 . S
C4938 C4950 1.349 . S
C4939 C4937 1.327 . S
C4939 C4955 1.429 . S
C4939 H4961 0.950 . S
C4940 H4936 0.949 . S
C4940 C4948 1.574 . S
C4940 C4956 1.368 . S
H4941 C4949 0.950 . S
H4942 C4947 0.950 . S
H4943 C4948 0.949 . S
H4944 C4950 0.950 . S
H4945 C4951 0.950 . S
H4946 C4952 0.949 . S
C4947 H4942 0.950 . S
C4947 C4949 1.327 . S
C4947 C4953 1.429 . S
C4948 C4940 1.574 . S
C4948 H4943 0.949 . S
C4948 C4954 1.368 . S
C4949 C4933 1.349 . S
C4949 H4941 0.950 . S
C4949 C4947 1.327 . S
C4950 C4938 1.349 . S
C4950 H4944 0.950 . S
C4950 C4951 1.327 . S
C4951 H4945 0.950 . S
C4951 C4950 1.327 . S
C4951 C4955 1.429 . S
C4952 C4935 1.574 . S
C4952 H4946 0.949 . S
C4952 C4956 1.368 . S
C4953 C4934 1.429 . S
C4953 C4947 1.429 . S
C4953 C4954 1.523 . S
C4954 C4935 1.368 . S
C4954 C4948 1.368 . S
C4954 C4953 1.523 . S
C4955 C4939 1.429 . S
C4955 C4951 1.429 . S
C4955 C4956 1.523 . S
C4956 C4940 1.368 . S
C4956 C4952 1.368 . S
C4956 C4955 1.523 . S
H4957 C4932 0.950 . S
H4958 C4934 0.950 . S
H4959 C4935 0.949 . S
H4960 C4937 0.950 . S
H4961 C4939 0.950 . S
C4962 C4963 1.349 . S
C4962 C4964 1.327 . S
C4962 H4987 0.950 . S
C4963 C4962 1.349 . S
C4963 C4979 1.349 . S
C4964 C4962 1.327 . S
C4964 C4983 1.429 . S
C4964 H4988 0.950 . S
C4965 C4982 1.574 . S
C4965 C4984 1.368 . S
C4965 H4989 0.949 . S
H4966 C4970 0.949 . S
C4967 C4968 1.349 . S
C4967 C4969 1.327 . S
C4967 H4990 0.950 . S
C4968 C4967 1.349 . S
C4968 C4980 1.349 . S
C4969 C4967 1.327 . S
C4969 C4985 1.429 . S
C4969 H4991 0.950 . S
C4970 H4966 0.949 . S
C4970 C4978 1.574 . S
C4970 C4986 1.368 . S
H4971 C4979 0.950 . S
H4972 C4977 0.950 . S
H4973 C4978 0.949 . S
H4974 C4980 0.950 . S
H4975 C4981 0.950 . S
H4976 C4982 0.949 . S
C4977 H4972 0.950 . S
C4977 C4979 1.327 . S
C4977 C4983 1.429 . S
C4978 C4970 1.574 . S
C4978 H4973 0.949 . S
C4978 C4984 1.368 . S
C4979 C4963 1.349 . S
C4979 H4971 0.950 . S
C4979 C4977 1.327 . S
C4980 C4968 1.349 . S
C4980 H4974 0.950 . S
C4980 C4981 1.327 . S
C4981 H4975 0.950 . S
C4981 C4980 1.327 . S
C4981 C4985 1.429 . S
C4982 C4965 1.574 . S
C4982 H4976 0.949 . S
C4982 C4986 1.368 . S
C4983 C4964 1.429 . S
C4983 C4977 1.429 . S
C4983 C4984 1.523 . S
C4984 C4965 1.368 . S
C4984 C4978 1.368 . S
C4984 C4983 1.523 . S
C4985 C4969 1.429 . S
C4985 C4981 1.429 . S
C4985 C4986 1.523 . S
C4986 C4970 1.368 . S
C4986 C4982 1.368 . S
C4986 C4985 1.523 . S
H4987 C4962 0.950 . S
H4988 C4964 0.950 . S
H4989 C4965 0.949 . S
H4990 C4967 0.950 . S
H4991 C4969 0.950 . S
C4992 C4993 1.349 . S
C4992 C4994 1.327 . S
C4992 H5017 0.950 . S
C4993 C4992 1.349 . S
C4993 C5009 1.349 . S
C4994 C4992 1.327 . S
C4994 C5013 1.429 . S
C4994 H5018 0.950 . S
C4995 C5012 1.574 . S
C4995 C5014 1.368 . S
C4995 H5019 0.949 . S
H4996 C5000 0.949 . S
C4997 C4998 1.349 . S
C4997 C4999 1.327 . S
C4997 H5020 0.950 . S
C4998 C4997 1.349 . S
C4998 C5010 1.349 . S
C4999 C4997 1.327 . S
C4999 C5015 1.429 . S
C4999 H5021 0.950 . S
C5000 H4996 0.949 . S
C5000 C5008 1.574 . S
C5000 C5016 1.368 . S
H5001 C5009 0.950 . S
H5002 C5007 0.950 . S
H5003 C5008 0.949 . S
H5004 C5010 0.950 . S
H5005 C5011 0.950 . S
H5006 C5012 0.949 . S
C5007 H5002 0.950 . S
C5007 C5009 1.327 . S
C5007 C5013 1.429 . S
C5008 C5000 1.574 . S
C5008 H5003 0.949 . S
C5008 C5014 1.368 . S
C5009 C4993 1.349 . S
C5009 H5001 0.950 . S
C5009 C5007 1.327 . S
C5010 C4998 1.349 . S
C5010 H5004 0.950 . S
C5010 C5011 1.327 . S
C5011 H5005 0.950 . S
C5011 C5010 1.327 . S
C5011 C5015 1.429 . S
C5012 C4995 1.574 . S
C5012 H5006 0.949 . S
C5012 C5016 1.368 . S
C5013 C4994 1.429 . S
C5013 C5007 1.429 . S
C5013 C5014 1.523 . S
C5014 C4995 1.368 . S
C5014 C5008 1.368 . S
C5014 C5013 1.523 . S
C5015 C4999 1.429 . S
C5015 C5011 1.429 . S
C5015 C5016 1.523 . S
C5016 C5000 1.368 . S
C5016 C5012 1.368 . S
C5016 C5015 1.523 . S
H5017 C4992 0.950 . S
H5018 C4994 0.950 . S
H5019 C4995 0.949 . S
H5020 C4997 0.950 . S
H5021 C4999 0.950 . S
C5022 C5023 1.349 . S
C5022 C5024 1.327 . S
C5022 H5047 0.950 . S
C5023 C5022 1.349 . S
C5023 C5039 1.349 . S
C5024 C5022 1.327 . S
C5024 C5043 1.429 . S
C5024 H5048 0.950 . S
C5025 C5042 1.574 . S
C5025 C5044 1.368 . S
C5025 H5049 0.949 . S
H5026 C5030 0.949 . S
C5027 C5028 1.349 . S
C5027 C5029 1.327 . S
C5027 H5050 0.950 . S
C5028 C5027 1.349 . S
C5028 C5040 1.349 . S
C5029 C5027 1.327 . S
C5029 C5045 1.429 . S
C5029 H5051 0.950 . S
C5030 H5026 0.949 . S
C5030 C5038 1.574 . S
C5030 C5046 1.368 . S
H5031 C5039 0.950 . S
H5032 C5037 0.950 . S
H5033 C5038 0.949 . S
H5034 C5040 0.950 . S
H5035 C5041 0.950 . S
H5036 C5042 0.949 . S
C5037 H5032 0.950 . S
C5037 C5039 1.327 . S
C5037 C5043 1.429 . S
C5038 C5030 1.574 . S
C5038 H5033 0.949 . S
C5038 C5044 1.368 . S
C5039 C5023 1.349 . S
C5039 H5031 0.950 . S
C5039 C5037 1.327 . S
C5040 C5028 1.349 . S
C5040 H5034 0.950 . S
C5040 C5041 1.327 . S
C5041 H5035 0.950 . S
C5041 C5040 1.327 . S
C5041 C5045 1.429 . S
C5042 C5025 1.574 . S
C5042 H5036 0.949 . S
C5042 C5046 1.368 . S
C5043 C5024 1.429 . S
C5043 C5037 1.429 . S
C5043 C5044 1.523 . S
C5044 C5025 1.368 . S
C5044 C5038 1.368 . S
C5044 C5043 1.523 . S
C5045 C5029 1.429 . S
C5045 C5041 1.429 . S
C5045 C5046 1.523 . S
C5046 C5030 1.368 . S
C5046 C5042 1.368 . S
C5046 C5045 1.523 . S
H5047 C5022 0.950 . S
H5048 C5024 0.950 . S
H5049 C5025 0.949 . S
H5050 C5027 0.950 . S
H5051 C5029 0.950 . S
C5052 C5053 1.349 . S
C5052 C5054 1.327 . S
C5052 H5077 0.950 . S
C5053 C5052 1.349 . S
C5053 C5069 1.349 . S
C5054 C5052 1.327 . S
C5054 C5073 1.429 . S
C5054 H5078 0.950 . S
C5055 C5072 1.574 . S
C5055 C5074 1.368 . S
C5055 H5079 0.949 . S
H5056 C5060 0.949 . S
C5057 C5058 1.349 . S
C5057 C5059 1.327 . S
C5057 H5080 0.950 . S
C5058 C5057 1.349 . S
C5058 C5070 1.349 . S
C5059 C5057 1.327 . S
C5059 C5075 1.429 . S
C5059 H5081 0.950 . S
C5060 H5056 0.949 . S
C5060 C5068 1.574 . S
C5060 C5076 1.368 . S
H5061 C5069 0.950 . S
H5062 C5067 0.950 . S
H5063 C5068 0.949 . S
H5064 C5070 0.950 . S
H5065 C5071 0.950 . S
H5066 C5072 0.949 . S
C5067 H5062 0.950 . S
C5067 C5069 1.327 . S
C5067 C5073 1.429 . S
C5068 C5060 1.574 . S
C5068 H5063 0.949 . S
C5068 C5074 1.368 . S
C5069 C5053 1.349 . S
C5069 H5061 0.950 . S
C5069 C5067 1.327 . S
C5070 C5058 1.349 . S
C5070 H5064 0.950 . S
C5070 C5071 1.327 . S
C5071 H5065 0.950 . S
C5071 C5070 1.327 . S
C5071 C5075 1.429 . S
C5072 C5055 1.574 . S
C5072 H5066 0.949 . S
C5072 C5076 1.368 . S
C5073 C5054 1.429 . S
C5073 C5067 1.429 . S
C5073 C5074 1.523 . S
C5074 C5055 1.368 . S
C5074 C5068 1.368 . S
C5074 C5073 1.523 . S
C5075 C5059 1.429 . S
C5075 C5071 1.429 . S
C5075 C5076 1.523 . S
C5076 C5060 1.368 . S
C5076 C5072 1.368 . S
C5076 C5075 1.523 . S
H5077 C5052 0.950 . S
H5078 C5054 0.950 . S
H5079 C5055 0.949 . S
H5080 C5057 0.950 . S
H5081 C5059 0.950 . S
C5082 C5083 1.349 . S
C5082 C5084 1.327 . S
C5082 H5107 0.950 . S
C5083 C5082 1.349 . S
C5083 C5099 1.349 . S
C5084 C5082 1.327 . S
C5084 C5103 1.429 . S
C5084 H5108 0.950 . S
C5085 C5102 1.574 . S
C5085 C5104 1.368 . S
C5085 H5109 0.949 . S
H5086 C5090 0.949 . S
C5087 C5088 1.349 . S
C5087 C5089 1.327 . S
C5087 H5110 0.950 . S
C5088 C5087 1.349 . S
C5088 C5100 1.349 . S
C5089 C5087 1.327 . S
C5089 C5105 1.429 . S
C5089 H5111 0.950 . S
C5090 H5086 0.949 . S
C5090 C5098 1.574 . S
C5090 C5106 1.368 . S
H5091 C5099 0.950 . S
H5092 C5097 0.950 . S
H5093 C5098 0.949 . S
H5094 C5100 0.950 . S
H5095 C5101 0.950 . S
H5096 C5102 0.949 . S
C5097 H5092 0.950 . S
C5097 C5099 1.327 . S
C5097 C5103 1.429 . S
C5098 C5090 1.574 . S
C5098 H5093 0.949 . S
C5098 C5104 1.368 . S
C5099 C5083 1.349 . S
C5099 H5091 0.950 . S
C5099 C5097 1.327 . S
C5100 C5088 1.349 . S
C5100 H5094 0.950 . S
C5100 C5101 1.327 . S
C5101 H5095 0.950 . S
C5101 C5100 1.327 . S
C5101 C5105 1.429 . S
C5102 C5085 1.574 . S
C5102 H5096 0.949 . S
C5102 C5106 1.368 . S
C5103 C5084 1.429 . S
C5103 C5097 1.429 . S
C5103 C5104 1.523 . S
C5104 C5085 1.368 . S
C5104 C5098 1.368 . S
C5104 C5103 1.523 . S
C5105 C5089 1.429 . S
C5105 C5101 1.429 . S
C5105 C5106 1.523 . S
C5106 C5090 1.368 . S
C5106 C5102 1.368 . S
C5106 C5105 1.523 . S
H5107 C5082 0.950 . S
H5108 C5084 0.950 . S
H5109 C5085 0.949 . S
H5110 C5087 0.950 . S
H5111 C5089 0.950 . S
C5112 C5113 1.349 . S
C5112 C5114 1.327 . S
C5112 H5137 0.950 . S
C5113 C5112 1.349 . S
C5113 C5129 1.349 . S
C5114 C5112 1.327 . S
C5114 C5133 1.429 . S
C5114 H5138 0.950 . S
C5115 C5132 1.574 . S
C5115 C5134 1.368 . S
C5115 H5139 0.949 . S
H5116 C5120 0.949 . S
C5117 C5118 1.349 . S
C5117 C5119 1.327 . S
C5117 H5140 0.950 . S
C5118 C5117 1.349 . S
C5118 C5130 1.349 . S
C5119 C5117 1.327 . S
C5119 C5135 1.429 . S
C5119 H5141 0.950 . S
C5120 H5116 0.949 . S
C5120 C5128 1.574 . S
C5120 C5136 1.368 . S
H5121 C5129 0.950 . S
H5122 C5127 0.950 . S
H5123 C5128 0.949 . S
H5124 C5130 0.950 . S
H5125 C5131 0.950 . S
H5126 C5132 0.949 . S
C5127 H5122 0.950 . S
C5127 C5129 1.327 . S
C5127 C5133 1.429 . S
C5128 C5120 1.574 . S
C5128 H5123 0.949 . S
C5128 C5134 1.368 . S
C5129 C5113 1.349 . S
C5129 H5121 0.950 . S
C5129 C5127 1.327 . S
C5130 C5118 1.349 . S
C5130 H5124 0.950 . S
C5130 C5131 1.327 . S
C5131 H5125 0.950 . S
C5131 C5130 1.327 . S
C5131 C5135 1.429 . S
C5132 C5115 1.574 . S
C5132 H5126 0.949 . S
C5132 C5136 1.368 . S
C5133 C5114 1.429 . S
C5133 C5127 1.429 . S
C5133 C5134 1.523 . S
C5134 C5115 1.368 . S
C5134 C5128 1.368 . S
C5134 C5133 1.523 . S
C5135 C5119 1.429 . S
C5135 C5131 1.429 . S
C5135 C5136 1.523 . S
C5136 C5120 1.368 . S
C5136 C5132 1.368 . S
C5136 C5135 1.523 . S
H5137 C5112 0.950 . S
H5138 C5114 0.950 . S
H5139 C5115 0.949 . S
H5140 C5117 0.950 . S
H5141 C5119 0.950 . S
C5142 C5143 1.349 . S
C5142 C5144 1.327 . S
C5142 H5167 0.950 . S
C5143 C5142 1.349 . S
C5143 C5159 1.349 . S
C5144 C5142 1.327 . S
C5144 C5163 1.429 . S
C5144 H5168 0.950 . S
C5145 C5162 1.574 . S
C5145 C5164 1.368 . S
C5145 H5169 0.949 . S
H5146 C5150 0.949 . S
C5147 C5148 1.349 . S
C5147 C5149 1.327 . S
C5147 H5170 0.950 . S
C5148 C5147 1.349 . S
C5148 C5160 1.349 . S
C5149 C5147 1.327 . S
C5149 C5165 1.429 . S
C5149 H5171 0.950 . S
C5150 H5146 0.949 . S
C5150 C5158 1.574 . S
C5150 C5166 1.368 . S
H5151 C5159 0.950 . S
H5152 C5157 0.950 . S
H5153 C5158 0.949 . S
H5154 C5160 0.950 . S
H5155 C5161 0.950 . S
H5156 C5162 0.949 . S
C5157 H5152 0.950 . S
C5157 C5159 1.327 . S
C5157 C5163 1.429 . S
C5158 C5150 1.574 . S
C5158 H5153 0.949 . S
C5158 C5164 1.368 . S
C5159 C5143 1.349 . S
C5159 H5151 0.950 . S
C5159 C5157 1.327 . S
C5160 C5148 1.349 . S
C5160 H5154 0.950 . S
C5160 C5161 1.327 . S
C5161 H5155 0.950 . S
C5161 C5160 1.327 . S
C5161 C5165 1.429 . S
C5162 C5145 1.574 . S
C5162 H5156 0.949 . S
C5162 C5166 1.368 . S
C5163 C5144 1.429 . S
C5163 C5157 1.429 . S
C5163 C5164 1.523 . S
C5164 C5145 1.368 . S
C5164 C5158 1.368 . S
C5164 C5163 1.523 . S
C5165 C5149 1.429 . S
C5165 C5161 1.429 . S
C5165 C5166 1.523 . S
C5166 C5150 1.368 . S
C5166 C5162 1.368 . S
C5166 C5165 1.523 . S
H5167 C5142 0.950 . S
H5168 C5144 0.950 . S
H5169 C5145 0.949 . S
H5170 C5147 0.950 . S
H5171 C5149 0.950 . S
C5172 C5173 1.349 . S
C5172 C5174 1.327 . S
C5172 H5197 0.950 . S
C5173 C5172 1.349 . S
C5173 C5189 1.349 . S
C5174 C5172 1.327 . S
C5174 C5193 1.429 . S
C5174 H5198 0.950 . S
C5175 C5192 1.574 1_655 S
C5175 C5194 1.368 . S
C5175 H5199 0.949 . S
H5176 C5180 0.953 . S
C5177 C5178 1.349 . S
C5177 C5179 1.327 . S
C5177 H5200 0.950 . S
C5178 C5177 1.349 . S
C5178 C5190 1.349 . S
C5179 C5177 1.327 . S
C5179 C5195 1.429 . S
C5179 H5201 0.950 . S
C5180 H5176 0.953 . S
C5180 C5188 1.574 . S
C5180 C5196 1.368 1_655 S
H5181 C5189 0.950 . S
H5182 C5187 0.950 . S
H5183 C5188 0.949 . S
H5184 C5190 0.950 . S
H5185 C5191 0.950 . S
H5186 C5192 0.949 . S
C5187 H5182 0.950 . S
C5187 C5189 1.327 . S
C5187 C5193 1.429 . S
C5188 C5180 1.574 . S
C5188 H5183 0.949 . S
C5188 C5194 1.368 . S
C5189 C5173 1.349 . S
C5189 H5181 0.950 . S
C5189 C5187 1.327 . S
C5190 C5178 1.349 . S
C5190 H5184 0.950 . S
C5190 C5191 1.327 . S
C5191 H5185 0.950 . S
C5191 C5190 1.327 . S
C5191 C5195 1.429 . S
C5192 C5175 1.574 1_455 S
C5192 H5186 0.949 . S
C5192 C5196 1.368 . S
C5193 C5174 1.429 . S
C5193 C5187 1.429 . S
C5193 C5194 1.523 . S
C5194 C5175 1.368 . S
C5194 C5188 1.368 . S
C5194 C5193 1.523 . S
C5195 C5179 1.429 . S
C5195 C5191 1.429 . S
C5195 C5196 1.523 . S
C5196 C5180 1.368 1_455 S
C5196 C5192 1.368 . S
C5196 C5195 1.523 . S
H5197 C5172 0.950 . S
H5198 C5174 0.950 . S
H5199 C5175 0.949 . S
H5200 C5177 0.950 . S
H5201 C5179 0.950 . S
C5202 C5203 1.349 . S
C5202 C5204 1.327 . S
C5202 H5227 0.950 . S
C5203 C5202 1.349 . S
C5203 C5219 1.349 . S
C5204 C5202 1.327 . S
C5204 C5223 1.429 . S
C5204 H5228 0.950 . S
C5205 C5222 1.574 . S
C5205 C5224 1.368 . S
C5205 H5229 0.949 . S
H5206 C5210 0.949 . S
C5207 C5208 1.349 . S
C5207 C5209 1.327 . S
C5207 H5230 0.950 . S
C5208 C5207 1.349 . S
C5208 C5220 1.349 . S
C5209 C5207 1.327 . S
C5209 C5225 1.429 . S
C5209 H5231 0.950 . S
C5210 H5206 0.949 . S
C5210 C5218 1.574 . S
C5210 C5226 1.368 . S
H5211 C5219 0.950 . S
H5212 C5217 0.950 . S
H5213 C5218 0.949 . S
H5214 C5220 0.950 . S
H5215 C5221 0.950 . S
H5216 C5222 0.949 . S
C5217 H5212 0.950 . S
C5217 C5219 1.327 . S
C5217 C5223 1.429 . S
C5218 C5210 1.574 . S
C5218 H5213 0.949 . S
C5218 C5224 1.368 . S
C5219 C5203 1.349 . S
C5219 H5211 0.950 . S
C5219 C5217 1.327 . S
C5220 C5208 1.349 . S
C5220 H5214 0.950 . S
C5220 C5221 1.327 . S
C5221 H5215 0.950 . S
C5221 C5220 1.327 . S
C5221 C5225 1.429 . S
C5222 C5205 1.574 . S
C5222 H5216 0.949 . S
C5222 C5226 1.368 . S
C5223 C5204 1.429 . S
C5223 C5217 1.429 . S
C5223 C5224 1.523 . S
C5224 C5205 1.368 . S
C5224 C5218 1.368 . S
C5224 C5223 1.523 . S
C5225 C5209 1.429 . S
C5225 C5221 1.429 . S
C5225 C5226 1.523 . S
C5226 C5210 1.368 . S
C5226 C5222 1.368 . S
C5226 C5225 1.523 . S
H5227 C5202 0.950 . S
H5228 C5204 0.950 . S
H5229 C5205 0.949 . S
H5230 C5207 0.950 . S
H5231 C5209 0.950 . S
C5232 C5233 1.349 . S
C5232 C5234 1.327 . S
C5232 H5257 0.950 . S
C5233 C5232 1.349 . S
C5233 C5249 1.349 . S
C5234 C5232 1.327 . S
C5234 C5253 1.429 . S
C5234 H5258 0.950 . S
C5235 C5252 1.574 . S
C5235 C5254 1.368 . S
C5235 H5259 0.949 . S
H5236 C5240 0.949 . S
C5237 C5238 1.349 . S
C5237 C5239 1.327 . S
C5237 H5260 0.950 . S
C5238 C5237 1.349 . S
C5238 C5250 1.349 . S
C5239 C5237 1.327 . S
C5239 C5255 1.429 . S
C5239 H5261 0.950 . S
C5240 H5236 0.949 . S
C5240 C5248 1.574 . S
C5240 C5256 1.368 . S
H5241 C5249 0.950 . S
H5242 C5247 0.950 . S
H5243 C5248 0.949 . S
H5244 C5250 0.950 . S
H5245 C5251 0.950 . S
H5246 C5252 0.949 . S
C5247 H5242 0.950 . S
C5247 C5249 1.327 . S
C5247 C5253 1.429 . S
C5248 C5240 1.574 . S
C5248 H5243 0.949 . S
C5248 C5254 1.368 . S
C5249 C5233 1.349 . S
C5249 H5241 0.950 . S
C5249 C5247 1.327 . S
C5250 C5238 1.349 . S
C5250 H5244 0.950 . S
C5250 C5251 1.327 . S
C5251 H5245 0.950 . S
C5251 C5250 1.327 . S
C5251 C5255 1.429 . S
C5252 C5235 1.574 . S
C5252 H5246 0.949 . S
C5252 C5256 1.368 . S
C5253 C5234 1.429 . S
C5253 C5247 1.429 . S
C5253 C5254 1.523 . S
C5254 C5235 1.368 . S
C5254 C5248 1.368 . S
C5254 C5253 1.523 . S
C5255 C5239 1.429 . S
C5255 C5251 1.429 . S
C5255 C5256 1.523 . S
C5256 C5240 1.368 . S
C5256 C5252 1.368 . S
C5256 C5255 1.523 . S
H5257 C5232 0.950 . S
H5258 C5234 0.950 . S
H5259 C5235 0.949 . S
H5260 C5237 0.950 . S
H5261 C5239 0.950 . S
C5262 C5263 1.349 . S
C5262 C5264 1.327 . S
C5262 H5287 0.950 . S
C5263 C5262 1.349 . S
C5263 C5279 1.349 . S
C5264 C5262 1.327 . S
C5264 C5283 1.429 . S
C5264 H5288 0.950 . S
C5265 C5282 1.574 . S
C5265 C5284 1.368 . S
C5265 H5289 0.949 . S
H5266 C5270 0.949 . S
C5267 C5268 1.349 . S
C5267 C5269 1.327 . S
C5267 H5290 0.950 . S
C5268 C5267 1.349 . S
C5268 C5280 1.349 . S
C5269 C5267 1.327 . S
C5269 C5285 1.429 . S
C5269 H5291 0.950 . S
C5270 H5266 0.949 . S
C5270 C5278 1.574 . S
C5270 C5286 1.368 . S
H5271 C5279 0.950 . S
H5272 C5277 0.950 . S
H5273 C5278 0.949 . S
H5274 C5280 0.950 . S
H5275 C5281 0.950 . S
H5276 C5282 0.949 . S
C5277 H5272 0.950 . S
C5277 C5279 1.327 . S
C5277 C5283 1.429 . S
C5278 C5270 1.574 . S
C5278 H5273 0.949 . S
C5278 C5284 1.368 . S
C5279 C5263 1.349 . S
C5279 H5271 0.950 . S
C5279 C5277 1.327 . S
C5280 C5268 1.349 . S
C5280 H5274 0.950 . S
C5280 C5281 1.327 . S
C5281 H5275 0.950 . S
C5281 C5280 1.327 . S
C5281 C5285 1.429 . S
C5282 C5265 1.574 . S
C5282 H5276 0.949 . S
C5282 C5286 1.368 . S
C5283 C5264 1.429 . S
C5283 C5277 1.429 . S
C5283 C5284 1.523 . S
C5284 C5265 1.368 . S
C5284 C5278 1.368 . S
C5284 C5283 1.523 . S
C5285 C5269 1.429 . S
C5285 C5281 1.429 . S
C5285 C5286 1.523 . S
C5286 C5270 1.368 . S
C5286 C5282 1.368 . S
C5286 C5285 1.523 . S
H5287 C5262 0.950 . S
H5288 C5264 0.950 . S
H5289 C5265 0.949 . S
H5290 C5267 0.950 . S
H5291 C5269 0.950 . S
C5292 C5293 1.349 . S
C5292 C5294 1.327 . S
C5292 H5317 0.950 . S
C5293 C5292 1.349 . S
C5293 C5309 1.349 . S
C5294 C5292 1.327 . S
C5294 C5313 1.429 . S
C5294 H5318 0.950 . S
C5295 C5312 1.574 . S
C5295 C5314 1.368 . S
C5295 H5319 0.949 . S
H5296 C5300 0.949 . S
C5297 C5298 1.349 . S
C5297 C5299 1.327 . S
C5297 H5320 0.950 . S
C5298 C5297 1.349 . S
C5298 C5310 1.349 . S
C5299 C5297 1.327 . S
C5299 C5315 1.429 . S
C5299 H5321 0.950 . S
C5300 H5296 0.949 . S
C5300 C5308 1.574 . S
C5300 C5316 1.368 . S
H5301 C5309 0.950 . S
H5302 C5307 0.950 . S
H5303 C5308 0.949 . S
H5304 C5310 0.950 . S
H5305 C5311 0.950 . S
H5306 C5312 0.949 . S
C5307 H5302 0.950 . S
C5307 C5309 1.327 . S
C5307 C5313 1.429 . S
C5308 C5300 1.574 . S
C5308 H5303 0.949 . S
C5308 C5314 1.368 . S
C5309 C5293 1.349 . S
C5309 H5301 0.950 . S
C5309 C5307 1.327 . S
C5310 C5298 1.349 . S
C5310 H5304 0.950 . S
C5310 C5311 1.327 . S
C5311 H5305 0.950 . S
C5311 C5310 1.327 . S
C5311 C5315 1.429 . S
C5312 C5295 1.574 . S
C5312 H5306 0.949 . S
C5312 C5316 1.368 . S
C5313 C5294 1.429 . S
C5313 C5307 1.429 . S
C5313 C5314 1.523 . S
C5314 C5295 1.368 . S
C5314 C5308 1.368 . S
C5314 C5313 1.523 . S
C5315 C5299 1.429 . S
C5315 C5311 1.429 . S
C5315 C5316 1.523 . S
C5316 C5300 1.368 . S
C5316 C5312 1.368 . S
C5316 C5315 1.523 . S
H5317 C5292 0.950 . S
H5318 C5294 0.950 . S
H5319 C5295 0.949 . S
H5320 C5297 0.950 . S
H5321 C5299 0.950 . S
C5322 C5323 1.349 . S
C5322 C5324 1.327 . S
C5322 H5347 0.950 . S
C5323 C5322 1.349 . S
C5323 C5339 1.349 . S
C5324 C5322 1.327 . S
C5324 C5343 1.429 . S
C5324 H5348 0.950 . S
C5325 C5342 1.574 . S
C5325 C5344 1.368 . S
C5325 H5349 0.949 . S
H5326 C5330 0.949 . S
C5327 C5328 1.349 . S
C5327 C5329 1.327 . S
C5327 H5350 0.950 . S
C5328 C5327 1.349 . S
C5328 C5340 1.349 . S
C5329 C5327 1.327 . S
C5329 C5345 1.429 . S
C5329 H5351 0.950 . S
C5330 H5326 0.949 . S
C5330 C5338 1.574 . S
C5330 C5346 1.368 . S
H5331 C5339 0.950 . S
H5332 C5337 0.950 . S
H5333 C5338 0.949 . S
H5334 C5340 0.950 . S
H5335 C5341 0.950 . S
H5336 C5342 0.949 . S
C5337 H5332 0.950 . S
C5337 C5339 1.327 . S
C5337 C5343 1.429 . S
C5338 C5330 1.574 . S
C5338 H5333 0.949 . S
C5338 C5344 1.368 . S
C5339 C5323 1.349 . S
C5339 H5331 0.950 . S
C5339 C5337 1.327 . S
C5340 C5328 1.349 . S
C5340 H5334 0.950 . S
C5340 C5341 1.327 . S
C5341 H5335 0.950 . S
C5341 C5340 1.327 . S
C5341 C5345 1.429 . S
C5342 C5325 1.574 . S
C5342 H5336 0.949 . S
C5342 C5346 1.368 . S
C5343 C5324 1.429 . S
C5343 C5337 1.429 . S
C5343 C5344 1.523 . S
C5344 C5325 1.368 . S
C5344 C5338 1.368 . S
C5344 C5343 1.523 . S
C5345 C5329 1.429 . S
C5345 C5341 1.429 . S
C5345 C5346 1.523 . S
C5346 C5330 1.368 . S
C5346 C5342 1.368 . S
C5346 C5345 1.523 . S
H5347 C5322 0.950 . S
H5348 C5324 0.950 . S
H5349 C5325 0.949 . S
H5350 C5327 0.950 . S
H5351 C5329 0.950 . S
C5352 C5353 1.349 . S
C5352 C5354 1.327 . S
C5352 H5377 0.950 . S
C5353 C5352 1.349 . S
C5353 C5369 1.349 . S
C5354 C5352 1.327 . S
C5354 C5373 1.429 . S
C5354 H5378 0.950 . S
C5355 C5372 1.574 . S
C5355 C5374 1.368 . S
C5355 H5379 0.949 . S
H5356 C5360 0.949 . S
C5357 C5358 1.349 . S
C5357 C5359 1.327 . S
C5357 H5380 0.950 . S
C5358 C5357 1.349 . S
C5358 C5370 1.349 . S
C5359 C5357 1.327 . S
C5359 C5375 1.429 . S
C5359 H5381 0.950 . S
C5360 H5356 0.949 . S
C5360 C5368 1.574 . S
C5360 C5376 1.368 . S
H5361 C5369 0.950 . S
H5362 C5367 0.950 . S
H5363 C5368 0.949 . S
H5364 C5370 0.950 . S
H5365 C5371 0.950 . S
H5366 C5372 0.949 . S
C5367 H5362 0.950 . S
C5367 C5369 1.327 . S
C5367 C5373 1.429 . S
C5368 C5360 1.574 . S
C5368 H5363 0.949 . S
C5368 C5374 1.368 . S
C5369 C5353 1.349 . S
C5369 H5361 0.950 . S
C5369 C5367 1.327 . S
C5370 C5358 1.349 . S
C5370 H5364 0.950 . S
C5370 C5371 1.327 . S
C5371 H5365 0.950 . S
C5371 C5370 1.327 . S
C5371 C5375 1.429 . S
C5372 C5355 1.574 . S
C5372 H5366 0.949 . S
C5372 C5376 1.368 . S
C5373 C5354 1.429 . S
C5373 C5367 1.429 . S
C5373 C5374 1.523 . S
C5374 C5355 1.368 . S
C5374 C5368 1.368 . S
C5374 C5373 1.523 . S
C5375 C5359 1.429 . S
C5375 C5371 1.429 . S
C5375 C5376 1.523 . S
C5376 C5360 1.368 . S
C5376 C5372 1.368 . S
C5376 C5375 1.523 . S
H5377 C5352 0.950 . S
H5378 C5354 0.950 . S
H5379 C5355 0.949 . S
H5380 C5357 0.950 . S
H5381 C5359 0.950 . S
C5382 C5383 1.349 . S
C5382 C5384 1.327 . S
C5382 H5407 0.950 . S
C5383 C5382 1.349 . S
C5383 C5399 1.349 . S
C5384 C5382 1.327 . S
C5384 C5403 1.429 . S
C5384 H5408 0.950 . S
C5385 C5402 1.574 . S
C5385 C5404 1.368 . S
C5385 H5409 0.949 . S
H5386 C5390 0.949 . S
C5387 C5388 1.349 . S
C5387 C5389 1.327 . S
C5387 H5410 0.950 . S
C5388 C5387 1.349 . S
C5388 C5400 1.349 . S
C5389 C5387 1.327 . S
C5389 C5405 1.429 . S
C5389 H5411 0.950 . S
C5390 H5386 0.949 . S
C5390 C5398 1.574 . S
C5390 C5406 1.368 . S
H5391 C5399 0.950 . S
H5392 C5397 0.950 . S
H5393 C5398 0.949 . S
H5394 C5400 0.950 . S
H5395 C5401 0.950 . S
H5396 C5402 0.949 . S
C5397 H5392 0.950 . S
C5397 C5399 1.327 . S
C5397 C5403 1.429 . S
C5398 C5390 1.574 . S
C5398 H5393 0.949 . S
C5398 C5404 1.368 . S
C5399 C5383 1.349 . S
C5399 H5391 0.950 . S
C5399 C5397 1.327 . S
C5400 C5388 1.349 . S
C5400 H5394 0.950 . S
C5400 C5401 1.327 . S
C5401 H5395 0.950 . S
C5401 C5400 1.327 . S
C5401 C5405 1.429 . S
C5402 C5385 1.574 . S
C5402 H5396 0.949 . S
C5402 C5406 1.368 . S
C5403 C5384 1.429 . S
C5403 C5397 1.429 . S
C5403 C5404 1.523 . S
C5404 C5385 1.368 . S
C5404 C5398 1.368 . S
C5404 C5403 1.523 . S
C5405 C5389 1.429 . S
C5405 C5401 1.429 . S
C5405 C5406 1.523 . S
C5406 C5390 1.368 . S
C5406 C5402 1.368 . S
C5406 C5405 1.523 . S
H5407 C5382 0.950 . S
H5408 C5384 0.950 . S
H5409 C5385 0.949 . S
H5410 C5387 0.950 . S
H5411 C5389 0.950 . S
C5412 C5413 1.349 . S
C5412 C5414 1.327 . S
C5412 H5437 0.950 . S
C5413 C5412 1.349 . S
C5413 C5429 1.349 . S
C5414 C5412 1.327 . S
C5414 C5433 1.429 . S
C5414 H5438 0.950 . S
C5415 C5432 1.574 . S
C5415 C5434 1.368 . S
C5415 H5439 0.949 . S
H5416 C5420 0.949 . S
C5417 C5418 1.349 . S
C5417 C5419 1.327 . S
C5417 H5440 0.950 . S
C5418 C5417 1.349 . S
C5418 C5430 1.349 . S
C5419 C5417 1.327 . S
C5419 C5435 1.429 . S
C5419 H5441 0.950 . S
C5420 H5416 0.949 . S
C5420 C5428 1.574 . S
C5420 C5436 1.368 . S
H5421 C5429 0.950 . S
H5422 C5427 0.950 . S
H5423 C5428 0.949 . S
H5424 C5430 0.950 . S
H5425 C5431 0.950 . S
H5426 C5432 0.949 . S
C5427 H5422 0.950 . S
C5427 C5429 1.327 . S
C5427 C5433 1.429 . S
C5428 C5420 1.574 . S
C5428 H5423 0.949 . S
C5428 C5434 1.368 . S
C5429 C5413 1.349 . S
C5429 H5421 0.950 . S
C5429 C5427 1.327 . S
C5430 C5418 1.349 . S
C5430 H5424 0.950 . S
C5430 C5431 1.327 . S
C5431 H5425 0.950 . S
C5431 C5430 1.327 . S
C5431 C5435 1.429 . S
C5432 C5415 1.574 . S
C5432 H5426 0.949 . S
C5432 C5436 1.368 . S
C5433 C5414 1.429 . S
C5433 C5427 1.429 . S
C5433 C5434 1.523 . S
C5434 C5415 1.368 . S
C5434 C5428 1.368 . S
C5434 C5433 1.523 . S
C5435 C5419 1.429 . S
C5435 C5431 1.429 . S
C5435 C5436 1.523 . S
C5436 C5420 1.368 . S
C5436 C5432 1.368 . S
C5436 C5435 1.523 . S
H5437 C5412 0.950 . S
H5438 C5414 0.950 . S
H5439 C5415 0.949 . S
H5440 C5417 0.950 . S
H5441 C5419 0.950 . S
C5442 C5443 1.349 . S
C5442 C5444 1.327 . S
C5442 H5467 0.950 . S
C5443 C5442 1.349 . S
C5443 C5459 1.349 . S
C5444 C5442 1.327 . S
C5444 C5463 1.429 . S
C5444 H5468 0.950 . S
C5445 C5462 1.574 . S
C5445 C5464 1.368 . S
C5445 H5469 0.949 . S
H5446 C5450 0.949 . S
C5447 C5448 1.349 . S
C5447 C5449 1.327 . S
C5447 H5470 0.950 . S
C5448 C5447 1.349 . S
C5448 C5460 1.349 . S
C5449 C5447 1.327 . S
C5449 C5465 1.429 . S
C5449 H5471 0.950 . S
C5450 H5446 0.949 . S
C5450 C5458 1.574 . S
C5450 C5466 1.368 . S
H5451 C5459 0.950 . S
H5452 C5457 0.950 . S
H5453 C5458 0.949 . S
H5454 C5460 0.950 . S
H5455 C5461 0.950 . S
H5456 C5462 0.949 . S
C5457 H5452 0.950 . S
C5457 C5459 1.327 . S
C5457 C5463 1.429 . S
C5458 C5450 1.574 . S
C5458 H5453 0.949 . S
C5458 C5464 1.368 . S
C5459 C5443 1.349 . S
C5459 H5451 0.950 . S
C5459 C5457 1.327 . S
C5460 C5448 1.349 . S
C5460 H5454 0.950 . S
C5460 C5461 1.327 . S
C5461 H5455 0.950 . S
C5461 C5460 1.327 . S
C5461 C5465 1.429 . S
C5462 C5445 1.574 . S
C5462 H5456 0.949 . S
C5462 C5466 1.368 . S
C5463 C5444 1.429 . S
C5463 C5457 1.429 . S
C5463 C5464 1.523 . S
C5464 C5445 1.368 . S
C5464 C5458 1.368 . S
C5464 C5463 1.523 . S
C5465 C5449 1.429 . S
C5465 C5461 1.429 . S
C5465 C5466 1.523 . S
C5466 C5450 1.368 . S
C5466 C5462 1.368 . S
C5466 C5465 1.523 . S
H5467 C5442 0.950 . S
H5468 C5444 0.950 . S
H5469 C5445 0.949 . S
H5470 C5447 0.950 . S
H5471 C5449 0.950 . S
C1153 C491 1.530 . S
C1158 C537 1.639 . S
C1183 C271 1.570 . S
C1188 C550 1.571 . S
C1218 C563 1.422 . S
C1213 C513 1.384 . S
C1243 C293 1.576 . S
C1248 C576 1.604 . S
C1273 C524 1.630 . S
C1278 C589 1.657 . S
C1303 C260 1.543 . S
C1308 C602 1.642 . S
C1333 C502 1.569 . S
C1338 C615 1.574 . S
C1363 C282 1.383 . S
C1368 C628 1.406 . S
C1393 C183 1.610 . S
C1398 C641 1.666 . S
C1423 C447 1.488 . S
C1428 C654 1.497 . S
C1453 C205 1.456 . S
C1458 C667 1.532 . S
C1483 C436 1.486 . S
C1488 C680 1.505 . S
C1513 C249 1.500 . S
C1518 C693 1.512 . S
C1548 C706 1.707 . S
C1543 C458 1.641 . S
C1578 C719 1.650 . S
C1573 C227 1.592 . S
C1603 C315 1.433 . S
C1608 C732 1.459 . S
C1638 C745 1.701 . S
C1633 C216 1.635 . S
C1668 C758 1.614 . S
C1663 C469 1.559 . S
C1693 C238 1.398 . S
C1698 C771 1.425 . S
C1723 C326 1.461 . S
C1728 C784 1.542 . S
C1758 C797 1.599 . S
C1753 C304 1.537 . S
C1783 C392 1.446 . S
C1788 C810 1.451 . S
C1818 C823 1.680 . S
C1813 C106 1.639 . S
C1848 C836 1.648 . S
C1843 C414 1.564 . S
C1878 C849 1.642 . S
C1873 C128 1.626 . S
C1908 C862 1.632 . S
C1903 C425 1.616 . S
C1933 C95 1.437 . S
C1938 C875 1.442 . S
C1968 C888 1.574 . S
C1963 C403 1.540 . S
C1993 C117 1.564 . S
C1998 C901 1.646 . S
C2028 C914 1.593 . S
C2023 C18 1.586 . S
C2058 C927 1.623 . S
C2053 C348 1.604 . S
C2083 C40 1.479 . S
C2088 C940 1.532 . S
C2118 C953 1.438 . S
C2113 C337 1.410 . S
C2148 C966 1.442 . S
C2143 C84 1.382 . S
C2173 C359 1.543 . S
C2178 C979 1.553 . S
C2208 C992 1.478 . S
C2203 C62 1.474 . S
C2238 C1005 1.564 . S
C2233 C150 1.489 . S
C2263 C51 1.620 . S
C2268 C1018 1.622 . S
C2298 C1031 1.512 . S
C2293 C370 1.509 . S
C2323 C73 1.494 . S
C2328 C1044 1.572 . S
C2358 C1057 1.488 . S
C2353 C161 1.449 . S
C2383 C139 1.578 . S
C2388 C1070 1.584 . S
C2413 C194 1.428 . S
C2418 C1083 1.436 . S
C2448 C1096 1.500 . S
C2443 C172 1.473 . S
C2473 C480 1.526 . S
C2478 C1109 1.534 . S
C2503 C29 1.607 . S
C2508 C1122 1.623 . S
C2538 C1135 1.454 . S
C2533 C7 1.428 . S
C2568 C1148 1.449 . S
C2563 C381 1.392 . S
C2593 C368 1.456 . S
C2598 C536 1.618 . S
C2623 C151 1.533 . S
C2628 C549 1.572 . S
C2653 C379 1.250 . S
C2658 C558 1.480 . S
C2688 C575 1.528 . S
C2683 C360 1.526 . S
C2713 C159 1.355 . S
C2718 C584 1.523 . S
C2743 C338 1.440 . S
C2748 C597 1.380 . S
C2778 C610 1.639 . S
C2773 C140 1.672 . S
C2803 C346 1.370 . S
C2808 C627 1.514 . S
C2833 C349 1.602 1_455 S
C2838 C640 1.583 . S
C2868 C649 1.432 . S
C2863 C162 1.478 . S
C2893 C335 1.223 . S
C2898 C662 1.314 . S
C2928 C675 1.531 . S
C2923 C137 1.528 . S
C2953 C148 1.222 . S
C2958 C688 1.493 . S
C2983 C382 1.612 . S
C2988 C705 1.640 . S
C3018 C714 1.565 . S
C3013 C357 1.512 . S
C3048 C731 1.573 . S
C3043 C371 1.580 . S
C3073 C129 1.634 . S
C3078 C679 1.621 . S
C3103 C393 1.517 . S
C3108 C740 1.473 . S
C3133 C401 1.425 . S
C3138 C757 1.677 . S
C3168 C766 1.362 . S
C3163 C412 1.155 . S
C3198 C692 1.528 . S
C3193 C126 1.369 . S
C3223 C107 1.561 1_565 S
C3228 C653 1.576 . S
C3253 C415 1.417 . S
C3258 C783 1.452 . S
C3288 C792 1.513 . S
C3283 C390 1.512 . S
C3318 C809 1.494 . S
C3313 C467 1.201 . S
C3343 C316 1.469 . S
C3348 C822 1.470 . S
C3378 C831 1.497 . S
C3373 C478 1.373 . S
C3408 C848 1.723 . S
C3403 C459 1.677 . S
C3433 C324 1.325 . S
C3438 C857 1.621 . S
C3463 C434 1.288 . S
C3468 C870 1.399 . S
C3493 C305 1.440 1_554 S
C3498 C883 1.399 . S
C3528 C900 1.660 . S
C3523 C448 1.666 . S
C3558 C913 1.628 . S
C3553 C445 1.469 1_655 S
C3583 C327 1.528 . S
C3588 C922 1.521 . S
C3618 C939 1.376 . S
C3613 C437 1.377 . S
C3643 C302 1.191 . S
C3648 C948 1.416 . S
C3678 C961 1.355 . S
C3673 C313 1.225 . S
C3703 C481 1.518 . S
C3708 C978 1.496 . S
C3738 C987 1.604 . S
C3733 C456 1.339 . S
C3763 C470 1.482 . S
C3768 C1000 1.439 . S
C3793 C294 1.513 . S
C3798 C952 1.519 . S
C3823 C492 1.597 . S
C3828 C1013 1.568 . S
C3853 C500 1.393 . S
C3858 C1030 1.565 . S
C3888 C1043 1.394 . S
C3883 C514 1.372 . S
C3913 C291 1.315 . S
C3918 C965 1.523 . S
C3943 C272 1.538 1_545 S
C3948 C926 1.538 . S
C3978 C1052 1.306 . S
C3973 C511 1.110 . S
C4003 C489 1.303 . S
C4008 C1065 1.640 . S
C4038 C601 1.584 . S
C4033 C60 1.420 . S
C4068 C614 1.591 . S
C4063 C74 1.551 . S
C4098 C623 1.469 . S
C4093 C82 1.254 . S
C4128 C588 1.614 . S
C4123 C52 1.627 . S
C4158 C571 1.534 . S
C4153 C38 1.295 . S
C4183 C8 1.439 . S
C4188 C532 1.374 . S
C4213 C19 1.676 . S
C4218 C545 1.644 . S
C4243 C27 1.355 . S
C4248 C562 1.493 . S
C4273 C30 1.552 . S
C4278 C796 1.533 . S
C4303 C41 1.468 . S
C4308 C1078 1.430 . S
C4333 C5 1.199 . S
C4338 C779 1.296 . S
C4363 C16 1.518 . S
C4368 C1091 1.524 . S
C4393 C71 1.249 . S
C4398 C1104 1.530 . S
C4428 C744 1.576 . S
C4423 C85 1.549 . S
C4453 C49 1.523 . S
C4458 C753 1.555 . S
C4483 C63 1.522 . S
C4488 C770 1.517 . S
C4518 C1095 1.599 . S
C4513 C426 1.610 . S
C4543 C96 1.557 . S
C4548 C701 1.513 . S
C4573 C104 1.455 . S
C4578 C718 1.718 . S
C4603 C115 1.179 . S
C4608 C727 1.383 . S
C4638 C1108 1.534 . S
C4633 C423 1.374 . S
C4668 C1082 1.523 . S
C4663 C404 1.509 . S
C4698 C666 1.449 . S
C4693 C118 1.418 . S
C4723 C93 1.559 . S
C4728 C636 1.564 . S
C4753 C225 1.221 . S
C4758 C874 1.513 . S
C4783 C239 1.393 . S
C4788 C887 1.394 . S
C4813 C247 1.371 . S
C4818 C896 1.495 . S
C4843 C217 1.684 . S
C4848 C861 1.729 . S
C4878 C844 1.613 . S
C4873 C203 1.324 . S
C4908 C805 1.384 . S
C4903 C170 1.260 . S
C4938 C818 1.429 . S
C4933 C184 1.477 . S
C4963 C195 1.651 . S
C4968 C835 1.645 . S
C4998 C1069 1.603 . S
C4993 C192 1.445 . S
C5023 C206 1.540 . S
C5028 C1117 1.532 . S
C5053 C173 1.377 . S
C5058 C1056 1.381 . S
C5088 C1130 1.464 . S
C5083 C181 1.272 . S
C5113 C236 1.154 . S
C5118 C1143 1.290 . S
C5148 C1017 1.533 . S
C5143 C250 1.550 . S
C5173 C214 1.347 . S
C5178 C1026 1.614 . S
C5203 C228 1.484 . S
C5208 C1039 1.442 . S
C5233 C522 1.375 . S
C5238 C1134 1.591 . S
C5268 C974 1.537 . S
C5263 C261 1.585 . S
C5293 C269 1.395 . S
C5298 C991 1.559 . S
C5323 C283 1.343 . S
C5328 C1004 1.367 . S
C5353 C525 1.450 . S
C5358 C1147 1.452 . S
C5383 C503 1.539 . S
C5388 C1121 1.540 . S
C5418 C935 1.261 . S
C5413 C280 1.092 . S
C5448 C909 1.673 . S
C5443 C258 1.328 . S
