# Generated by pormake.
# Topology pyr, (3,6)-cn, num edge types: 1
# Building blocks:
#     Node 0, Type 0, BuildingBlock: MIDCAF_clean_linker_0, # of connection points: 3
#     Node 1, Type 0, BuildingBlock: MIDCAF_clean_linker_0, # of connection points: 3
#     Node 2, Type 0, BuildingBlock: MIDCAF_clean_linker_0, # of connection points: 3
#     Node 3, Type 0, BuildingBlock: MIDCAF_clean_linker_0, # of connection points: 3
#     Node 4, Type 0, BuildingBlock: MIDCAF_clean_linker_0, # of connection points: 3
#     Node 5, Type 0, BuildingBlock: MIDCAF_clean_linker_0, # of connection points: 3
#     Node 6, Type 0, BuildingBlock: MIDCAF_clean_linker_0, # of connection points: 3
#     Node 7, Type 0, BuildingBlock: MIDCAF_clean_linker_0, # of connection points: 3
#     Node 8, Type 1, BuildingBlock: INOVEN_clean_sbu_0, # of connection points: 6
#     Node 9, Type 1, BuildingBlock: INOVEN_clean_sbu_0, # of connection points: 6
#     Node 10, Type 1, BuildingBlock: INOVEN_clean_sbu_0, # of connection points: 6
#     Node 11, Type 1, BuildingBlock: INOVEN_clean_sbu_0, # of connection points: 6
#     Edge 12, Type (0, 1), BuildingBlock: KIFKEQ_clean_linker_1, # of connection points: 2
#     Edge 13, Type (0, 1), BuildingBlock: KIFKEQ_clean_linker_1, # of connection points: 2
#     Edge 14, Type (0, 1), BuildingBlock: KIFKEQ_clean_linker_1, # of connection points: 2
#     Edge 15, Type (0, 1), BuildingBlock: KIFKEQ_clean_linker_1, # of connection points: 2
#     Edge 16, Type (0, 1), BuildingBlock: KIFKEQ_clean_linker_1, # of connection points: 2
#     Edge 17, Type (0, 1), BuildingBlock: KIFKEQ_clean_linker_1, # of connection points: 2
#     Edge 18, Type (0, 1), BuildingBlock: KIFKEQ_clean_linker_1, # of connection points: 2
#     Edge 19, Type (0, 1), BuildingBlock: KIFKEQ_clean_linker_1, # of connection points: 2
#     Edge 20, Type (0, 1), BuildingBlock: KIFKEQ_clean_linker_1, # of connection points: 2
#     Edge 21, Type (0, 1), BuildingBlock: KIFKEQ_clean_linker_1, # of connection points: 2
#     Edge 22, Type (0, 1), BuildingBlock: KIFKEQ_clean_linker_1, # of connection points: 2
#     Edge 23, Type (0, 1), BuildingBlock: KIFKEQ_clean_linker_1, # of connection points: 2
#     Edge 24, Type (0, 1), BuildingBlock: KIFKEQ_clean_linker_1, # of connection points: 2
#     Edge 25, Type (0, 1), BuildingBlock: KIFKEQ_clean_linker_1, # of connection points: 2
#     Edge 26, Type (0, 1), BuildingBlock: KIFKEQ_clean_linker_1, # of connection points: 2
#     Edge 27, Type (0, 1), BuildingBlock: KIFKEQ_clean_linker_1, # of connection points: 2
#     Edge 28, Type (0, 1), BuildingBlock: KIFKEQ_clean_linker_1, # of connection points: 2
#     Edge 29, Type (0, 1), BuildingBlock: KIFKEQ_clean_linker_1, # of connection points: 2
#     Edge 30, Type (0, 1), BuildingBlock: KIFKEQ_clean_linker_1, # of connection points: 2
#     Edge 31, Type (0, 1), BuildingBlock: KIFKEQ_clean_linker_1, # of connection points: 2
#     Edge 32, Type (0, 1), BuildingBlock: KIFKEQ_clean_linker_1, # of connection points: 2
#     Edge 33, Type (0, 1), BuildingBlock: KIFKEQ_clean_linker_1, # of connection points: 2
#     Edge 34, Type (0, 1), BuildingBlock: KIFKEQ_clean_linker_1, # of connection points: 2
#     Edge 35, Type (0, 1), BuildingBlock: KIFKEQ_clean_linker_1, # of connection points: 2
# Relax obj value: 0.092
# Max RMSD: 0.126
# Mean RMSD: 0.059
data_MOF--net-pyr--node1-INOVEN_clean_sbu_0--node2-MIDCAF_clean_linker_0--edge1-KIFKEQ_clean_linker_1
_symmetry_space_group_name_H-M    P1
_symmetry_Int_Tables_number       1
_symmetry_cell_setting            triclinic
loop_
_symmetry_equiv_pos_as_xyz
'x, y, z'
_cell_length_a     47.898583
_cell_length_b     48.81777
_cell_length_c     43.091844
_cell_angle_alpha  89.72852
_cell_angle_beta   87.642995
_cell_angle_gamma 100.95234
loop_
_atom_site_label
_atom_site_type_symbol
_atom_site_fract_x
_atom_site_fract_y
_atom_site_fract_z
_atom_type_partial_charge
C0 C 0.26797 0.30597 0.34559 0.0
C1 C 0.2638 0.27879 0.35806 0.0
C2 C 0.28139 0.26063 0.34698 0.0
C3 C 0.30088 0.26861 0.32203 0.0
H4 H 0.36478 0.24551 0.26552 0.0
H5 H 0.38918 0.21028 0.24355 0.0
H6 H 0.38792 0.24672 0.15222 0.0
H7 H 0.36304 0.28185 0.17403 0.0
H8 H 0.31907 0.32547 0.16484 0.0
H9 H 0.2931 0.35364 0.13389 0.0
H10 H 0.27272 0.39665 0.21677 0.0
H11 H 0.29901 0.36928 0.24724 0.0
H12 H 0.28883 0.3345 0.31043 0.0
H13 H 0.25517 0.32063 0.35409 0.0
H14 H 0.27866 0.23949 0.35597 0.0
H15 H 0.31271 0.25345 0.31274 0.0
N16 N 0.33456 0.28351 0.26471 0.0
N17 N 0.33786 0.30702 0.21659 0.0
N18 N 0.31157 0.32122 0.25854 0.0
C19 C 0.34491 0.28664 0.23476 0.0
C20 C 0.32138 0.32458 0.22853 0.0
C21 C 0.31795 0.3008 0.2768 0.0
C22 C 0.36171 0.26651 0.22155 0.0
C23 C 0.36979 0.2462 0.24075 0.0
C24 C 0.38398 0.22604 0.2282 0.0
C25 C 0.39039 0.22561 0.19613 0.0
C26 C 0.38293 0.24627 0.17699 0.0
C27 C 0.36882 0.26652 0.18955 0.0
C28 C 0.31079 0.34486 0.20858 0.0
C29 C 0.30968 0.34147 0.17625 0.0
C30 C 0.29459 0.35745 0.15856 0.0
C31 C 0.28054 0.37722 0.17286 0.0
C32 C 0.28344 0.38185 0.20483 0.0
C33 C 0.29836 0.36591 0.22243 0.0
C34 C 0.30301 0.29485 0.30758 0.0
C35 C 0.28734 0.31391 0.3206 0.0
C36 C 0.14773 0.86553 0.66466 0.0
C37 C 0.13843 0.86137 0.63425 0.0
C38 C 0.14614 0.83952 0.61684 0.0
C39 C 0.16414 0.82319 0.62891 0.0
H40 H 0.2434 0.79977 0.59711 0.0
H41 H 0.27647 0.78093 0.56187 0.0
H42 H 0.28829 0.72246 0.63332 0.0
H43 H 0.25618 0.74181 0.66882 0.0
H44 H 0.27893 0.79508 0.72862 0.0
H45 H 0.30472 0.815 0.77306 0.0
H46 H 0.23567 0.85684 0.79926 0.0
H47 H 0.21007 0.83755 0.75426 0.0
H48 H 0.17342 0.85366 0.69984 0.0
H49 H 0.14228 0.88233 0.67857 0.0
H50 H 0.13883 0.83551 0.59354 0.0
H51 H 0.17037 0.8071 0.61444 0.0
N52 N 0.20981 0.7982 0.64943 0.0
N53 N 0.24146 0.79106 0.68736 0.0
N54 N 0.2071 0.81833 0.69848 0.0
C55 C 0.23176 0.78655 0.65833 0.0
C56 C 0.22927 0.80697 0.70761 0.0
C57 C 0.19707 0.81381 0.66954 0.0
C58 C 0.24742 0.7722 0.63562 0.0
C59 C 0.25258 0.78245 0.60495 0.0
C60 C 0.27144 0.7718 0.58487 0.0
C61 C 0.28458 0.75023 0.59497 0.0
C62 C 0.27804 0.73888 0.62498 0.0
C63 C 0.25986 0.75001 0.64528 0.0
C64 C 0.24257 0.81506 0.7375 0.0
C65 C 0.26896 0.80818 0.74406 0.0
C66 C 0.28376 0.8195 0.7697 0.0
C67 C 0.27245 0.83784 0.78946 0.0
C68 C 0.24525 0.84328 0.78405 0.0
C69 C 0.2305 0.83206 0.75834 0.0
C70 C 0.17481 0.82836 0.65866 0.0
C71 C 0.16571 0.84915 0.67679 0.0
C72 C 0.63225 0.2793 0.94113 0.0
C73 C 0.61078 0.26244 0.92464 0.0
C74 C 0.60351 0.2727 0.89602 0.0
C75 C 0.61713 0.29898 0.8844 0.0
H76 H 0.60997 0.36041 0.8189 0.0
H77 H 0.59063 0.38276 0.77621 0.0
H78 H 0.65877 0.45429 0.78166 0.0
H79 H 0.67788 0.43223 0.82469 0.0
H80 H 0.73254 0.4255 0.86726 0.0
H81 H 0.77632 0.44766 0.891 0.0
H82 H 0.75258 0.39551 0.97282 0.0
H83 H 0.70963 0.37261 0.94848 0.0
H84 H 0.66231 0.31772 0.94297 0.0
H85 H 0.63819 0.27256 0.96348 0.0
H86 H 0.58748 0.26029 0.88226 0.0
H87 H 0.61094 0.306 0.86227 0.0
N88 N 0.6435 0.35565 0.86368 0.0
N89 N 0.681 0.39429 0.86601 0.0
N90 N 0.67721 0.35737 0.90198 0.0
C91 C 0.65705 0.38105 0.85231 0.0
C92 C 0.69123 0.38262 0.89088 0.0
C93 C 0.65344 0.34362 0.88851 0.0
C94 C 0.64556 0.39442 0.82552 0.0
C95 C 0.62093 0.38089 0.81105 0.0
C96 C 0.60987 0.39369 0.78633 0.0
C97 C 0.62304 0.42044 0.77534 0.0
C98 C 0.64776 0.43388 0.78968 0.0
C99 C 0.65886 0.42108 0.81434 0.0
C100 C 0.71751 0.39709 0.9058 0.0
C101 C 0.73665 0.41879 0.89034 0.0
C102 C 0.76179 0.43165 0.90412 0.0
C103 C 0.76837 0.42345 0.93396 0.0
C104 C 0.74884 0.40209 0.94959 0.0
C105 C 0.72395 0.389 0.93565 0.0
C106 C 0.63863 0.31573 0.9009 0.0
C107 C 0.64601 0.30545 0.92941 0.0
C108 C 0.75071 0.67621 0.43245 0.0
C109 C 0.73803 0.64869 0.42534 0.0
C110 C 0.75264 0.63372 0.40449 0.0
C111 C 0.77906 0.64621 0.39068 0.0
H112 H 0.85853 0.63242 0.34099 0.0
H113 H 0.87984 0.60882 0.2994 0.0
H114 H 0.90537 0.68761 0.24993 0.0
H115 H 0.88604 0.71123 0.29305 0.0
H116 H 0.91196 0.75524 0.36697 0.0
H117 H 0.93406 0.80046 0.38763 0.0
H118 H 0.85427 0.80743 0.43428 0.0
H119 H 0.83219 0.76258 0.41373 0.0
H120 H 0.78597 0.70988 0.42493 0.0
H121 H 0.74029 0.68819 0.4488 0.0
H122 H 0.74339 0.61254 0.3984 0.0
H123 H 0.78957 0.63417 0.37449 0.0
N124 N 0.83234 0.67475 0.3599 0.0
N125 N 0.86945 0.71394 0.35469 0.0
N126 N 0.83181 0.71366 0.39136 0.0
C127 C 0.85727 0.68781 0.34569 0.0
C128 C 0.85686 0.72695 0.37775 0.0
C129 C 0.81935 0.68764 0.38266 0.0
C130 C 0.87068 0.67367 0.32032 0.0
C131 C 0.86891 0.64465 0.32126 0.0
C132 C 0.88094 0.63107 0.29706 0.0
C133 C 0.89433 0.646 0.27065 0.0
C134 C 0.89592 0.67518 0.26986 0.0
C135 C 0.88462 0.68884 0.29456 0.0
C136 C 0.87027 0.75512 0.38869 0.0
C137 C 0.89906 0.76651 0.38142 0.0
C138 C 0.91179 0.79235 0.39343 0.0
C139 C 0.89594 0.80758 0.41263 0.0
C140 C 0.86704 0.79644 0.41932 0.0
C141 C 0.85442 0.77055 0.40765 0.0
C142 C 0.79159 0.67387 0.39761 0.0
C143 C 0.77709 0.6886 0.41885 0.0
C144 C 0.60377 0.83173 0.89836 0.0
C145 C 0.60946 0.84277 0.92807 0.0
C146 C 0.62977 0.83267 0.94546 0.0
C147 C 0.64476 0.81305 0.93296 0.0
H148 H 0.69164 0.74771 0.95258 0.0
H149 H 0.72097 0.7206 0.98035 0.0
H150 H 0.75124 0.69198 0.89276 0.0
H151 H 0.72171 0.71821 0.8653 0.0
H152 H 0.7277 0.75912 0.80775 0.0
H153 H 0.75956 0.78356 0.76696 0.0
H154 H 0.71256 0.85078 0.76905 0.0
H155 H 0.68074 0.82659 0.81014 0.0
H156 H 0.61522 0.80548 0.86219 0.0
H157 H 0.58774 0.83819 0.88455 0.0
H158 H 0.63516 0.84081 0.96821 0.0
H159 H 0.66107 0.80659 0.9464 0.0
N160 N 0.67087 0.76813 0.9034 0.0
N161 N 0.69887 0.7612 0.85923 0.0
N162 N 0.66847 0.79328 0.85723 0.0
C163 C 0.69025 0.75468 0.88921 0.0
C164 C 0.68825 0.78051 0.84308 0.0
C165 C 0.65951 0.78708 0.88719 0.0
C166 C 0.70453 0.7354 0.90668 0.0
C167 C 0.70411 0.73515 0.93934 0.0
C168 C 0.72109 0.71979 0.95524 0.0
C169 C 0.73862 0.70424 0.9388 0.0
C170 C 0.73781 0.70341 0.90626 0.0
C171 C 0.72099 0.71874 0.89044 0.0
C172 C 0.70212 0.79124 0.81289 0.0
C173 C 0.72361 0.77876 0.799 0.0
C174 C 0.74181 0.79268 0.77542 0.0
C175 C 0.73888 0.81934 0.76531 0.0
C176 C 0.7156 0.83047 0.77686 0.0
C177 C 0.69731 0.81651 0.80035 0.0
C178 C 0.64024 0.80357 0.90258 0.0
C179 C 0.61926 0.81268 0.88562 0.0
C180 C 0.72807 0.20879 0.35064 0.0
C181 C 0.71674 0.22865 0.33415 0.0
C182 C 0.72515 0.25705 0.34084 0.0
C183 C 0.74399 0.26537 0.3645 0.0
H184 H 0.77163 0.3305 0.42733 0.0
H185 H 0.75805 0.36791 0.45756 0.0
H186 H 0.78321 0.33175 0.54126 0.0
H187 H 0.79664 0.29377 0.51077 0.0
H188 H 0.81582 0.23161 0.5046 0.0
H189 H 0.8402 0.19536 0.52371 0.0
H190 H 0.85435 0.16996 0.42948 0.0
H191 H 0.82964 0.20561 0.41037 0.0
H192 H 0.75529 0.20112 0.3863 0.0
H193 H 0.72207 0.18678 0.34558 0.0
H194 H 0.71665 0.27268 0.32827 0.0
H195 H 0.74974 0.28735 0.36974 0.0
N196 N 0.77296 0.27763 0.42287 0.0
N197 N 0.80326 0.26548 0.45993 0.0
N198 N 0.78962 0.23574 0.41838 0.0
C199 C 0.78776 0.28378 0.44901 0.0
C200 C 0.80457 0.24161 0.44434 0.0
C201 C 0.77367 0.25356 0.40755 0.0
C202 C 0.7847 0.30893 0.46673 0.0
C203 C 0.77481 0.33075 0.45209 0.0
C204 C 0.76736 0.35244 0.46943 0.0
C205 C 0.76948 0.35277 0.50188 0.0
C206 C 0.7812 0.33194 0.51632 0.0
C207 C 0.78894 0.31027 0.49884 0.0
C208 C 0.82087 0.22133 0.45604 0.0
C209 C 0.82434 0.2184 0.48802 0.0
C210 C 0.83804 0.19763 0.49895 0.0
C211 C 0.84897 0.18002 0.47797 0.0
C212 C 0.84611 0.18341 0.44601 0.0
C213 C 0.83194 0.20372 0.43515 0.0
C214 C 0.75515 0.2454 0.38126 0.0
C215 C 0.74726 0.21707 0.37376 0.0
C216 C 0.26067 0.63611 0.19465 0.0
C217 C 0.24587 0.65129 0.17537 0.0
C218 C 0.25678 0.67989 0.1704 0.0
C219 C 0.28181 0.69292 0.18411 0.0
H220 H 0.3371 0.76915 0.18865 0.0
H221 H 0.35988 0.81528 0.16873 0.0
H222 H 0.43986 0.8034 0.20384 0.0
H223 H 0.41708 0.75733 0.22414 0.0
H224 H 0.41349 0.70752 0.27664 0.0
H225 H 0.43432 0.68504 0.31818 0.0
H226 H 0.35858 0.62104 0.32657 0.0
H227 H 0.33758 0.64355 0.28513 0.0
H228 H 0.2964 0.63684 0.22331 0.0
H229 H 0.25277 0.61411 0.19922 0.0
H230 H 0.24619 0.6922 0.15545 0.0
H231 H 0.2895 0.71494 0.17947 0.0
N232 N 0.33649 0.71792 0.20767 0.0
N233 N 0.3734 0.71757 0.24173 0.0
N234 N 0.33586 0.67888 0.23988 0.0
C235 C 0.36137 0.73093 0.21951 0.0
C236 C 0.36072 0.6916 0.25227 0.0
C237 C 0.32362 0.69186 0.21748 0.0
C238 C 0.37522 0.75937 0.20801 0.0
C239 C 0.35954 0.77634 0.19224 0.0
C240 C 0.37254 0.80289 0.18094 0.0
C241 C 0.4017 0.81303 0.18463 0.0
C242 C 0.4174 0.79613 0.20041 0.0
C243 C 0.40429 0.76976 0.2122 0.0
C244 C 0.37374 0.67747 0.27734 0.0
C245 C 0.4012 0.68864 0.28725 0.0
C246 C 0.41327 0.67563 0.31103 0.0
C247 C 0.39819 0.65118 0.32587 0.0
C248 C 0.37074 0.63999 0.31598 0.0
C249 C 0.35875 0.65286 0.29199 0.0
C250 C 0.29664 0.67782 0.20345 0.0
C251 C 0.28563 0.64923 0.20864 0.0
C252 C 0.13709 0.28642 0.66392 0.0
C253 C 0.1156 0.26799 0.6807 0.0
C254 C 0.10668 0.27593 0.71032 0.0
C255 C 0.11902 0.30173 0.72278 0.0
H256 H 0.10109 0.38094 0.77224 0.0
H257 H 0.08114 0.40533 0.81442 0.0
H258 H 0.16619 0.43783 0.84402 0.0
H259 H 0.18582 0.41506 0.80063 0.0
H260 H 0.22112 0.43927 0.72131 0.0
H261 H 0.26519 0.46224 0.6943 0.0
H262 H 0.27569 0.38318 0.65535 0.0
H263 H 0.23119 0.36069 0.68107 0.0
H264 H 0.16628 0.32536 0.66279 0.0
H265 H 0.14469 0.28087 0.64122 0.0
H266 H 0.09003 0.26226 0.72375 0.0
H267 H 0.11179 0.30717 0.74568 0.0
N268 N 0.14361 0.35861 0.74412 0.0
N269 N 0.18302 0.39577 0.74276 0.0
N270 N 0.18083 0.35983 0.70665 0.0
C271 C 0.15746 0.38311 0.75596 0.0
C272 C 0.19482 0.38425 0.71805 0.0
C273 C 0.15531 0.34681 0.71939 0.0
C274 C 0.14503 0.39624 0.78292 0.0
C275 C 0.11543 0.3933 0.78786 0.0
C276 C 0.10401 0.40722 0.81229 0.0
C277 C 0.12189 0.42396 0.83291 0.0
C278 C 0.15153 0.426 0.82835 0.0
C279 C 0.1629 0.41267 0.80352 0.0
C280 C 0.22246 0.39817 0.70319 0.0
C281 C 0.23291 0.42682 0.70701 0.0
C282 C 0.25831 0.43997 0.69159 0.0
C283 C 0.27409 0.42472 0.67229 0.0
C284 C 0.2639 0.39588 0.66925 0.0
C285 C 0.23837 0.38287 0.68425 0.0
C286 C 0.14086 0.31995 0.70609 0.0
C287 C 0.14961 0.31193 0.67646 0.0
Gd288 Gd 0.01894 0.0475 0.51931 0.0
Gd289 Gd 0.9986 1.01996 0.58295 0.0
C290 C 0.03731 0.08225 0.58187 0.0
C291 C 0.03224 0.08118 0.4724 0.0
C292 C 0.05191 0.10804 0.46772 0.0
C293 C 0.07749 0.11367 0.48332 0.0
C294 C 0.04576 0.12779 0.4467 0.0
C295 C 0.092 0.15736 0.45445 0.0
C296 C 0.06556 0.15233 0.44022 0.0
C297 C 0.0974 0.13798 0.47663 0.0
C298 C 0.0499 1.01163 0.54102 0.0
C299 C 0.98182 0.98641 0.52018 0.0
C300 C 0.99061 0.99499 0.63614 0.0
C301 C 0.96756 0.97335 0.64955 0.0
C302 C 0.95477 0.97788 0.67841 0.0
C303 C 0.95648 0.94942 0.63274 0.0
C304 C 0.91919 0.93551 0.67295 0.0
C305 C 0.93264 0.93059 0.64443 0.0
C306 C 0.93077 0.95924 0.68995 0.0
C307 C 0.95866 0.03966 0.55212 0.0
O308 O 0.04032 0.0808 0.55127 0.0
O309 O 0.02239 0.0615 0.59895 0.0
O310 O 0.04423 0.05971 0.47722 0.0
O311 O 0.00976 0.08125 0.49068 0.0
O312 O 0.04471 1.01379 0.5119 0.0
O313 O 0.03948 1.02912 0.55683 0.0
O314 O 0.98954 0.98438 0.54919 0.0
O315 O 0.98616 1.01075 0.50522 0.0
O316 O 0.98354 1.01921 0.631 0.0
O317 O 0.00654 0.9873 0.61353 0.0
O318 O 0.95267 1.01861 0.57125 0.0
O319 O 0.98448 0.05065 0.55316 0.0
H320 H 0.08255 0.09881 0.49995 0.0
H321 H 0.02595 0.12395 0.43476 0.0
H322 H 0.06038 0.16707 0.42355 0.0
H323 H 0.11755 0.14087 0.48785 0.0
H324 H 0.96281 0.99636 0.69157 0.0
H325 H 0.9658 0.94552 0.61025 0.0
H326 H 0.92459 0.91235 0.63095 0.0
H327 H 0.92075 0.96399 0.71173 0.0
Gd328 Gd 0.53178 0.04873 0.06834 0.0
Gd329 Gd 0.47459 1.02945 1.04295 0.0
C330 C 0.47747 0.07302 0.09683 0.0
C331 C 0.57859 0.07846 0.08667 0.0
C332 C 0.58694 0.09777 0.11209 0.0
C333 C 0.57195 0.09447 0.14096 0.0
C334 C 0.61052 0.11948 0.10762 0.0
C335 C 0.60548 0.1332 0.16139 0.0
C336 C 0.61969 0.13716 0.13207 0.0
C337 C 0.58127 0.11195 0.16551 0.0
C338 C 0.50254 1.00102 0.0952 0.0
C339 C 0.52841 1.00321 1.01646 0.0
C340 C 0.42708 1.00238 1.02294 0.0
C341 C 0.41612 0.98467 0.99681 0.0
C342 C 0.3979 0.99434 0.97649 0.0
C343 C 0.42227 0.95783 0.99268 0.0
C344 C 0.3915 0.95052 0.94874 0.0
C345 C 0.40997 0.94087 0.96888 0.0
C346 C 0.38582 0.97752 0.95262 0.0
C347 C 0.50471 0.07723 1.01672 0.0
O348 O 0.50538 0.07708 0.09201 0.0
O349 O 0.4606 0.05206 0.08393 0.0
O350 O 0.56972 0.05227 0.0946 0.0
O351 O 0.56325 0.0871 0.06564 0.0
O352 O 0.52989 1.00642 0.09007 0.0
O353 O 0.49197 1.02191 0.08795 0.0
O354 O 0.50045 1.00026 1.02002 0.0
O355 O 0.54568 1.02386 1.02939 0.0
O356 O 0.43702 1.02868 1.01645 0.0
O357 O 0.4421 0.99198 1.04304 0.0
O358 O 0.47758 0.07282 1.02315 0.0
O359 O 0.51451 0.05575 1.02322 0.0
H360 H 0.5534 0.07805 0.1447 0.0
H361 H 0.62218 0.1224 0.08539 0.0
H362 H 0.63853 0.15323 0.12837 0.0
H363 H 0.5698 0.10867 0.18782 0.0
H364 H 0.39259 1.01481 0.9794 0.0
H365 H 0.43625 0.94978 1.00801 0.0
H366 H 0.41484 0.9202 0.96626 0.0
H367 H 0.37133 0.98536 0.93776 0.0
Gd368 Gd 0.51333 0.51065 0.52946 0.0
Gd369 Gd 0.50077 0.55774 0.57486 0.0
C370 C 0.53492 0.51296 0.60126 0.0
C371 C 0.53716 0.47449 0.50113 0.0
C372 C 0.56231 0.46287 0.5092 0.0
C373 C 0.56039 0.44276 0.5331 0.0
C374 C 0.58901 0.47346 0.49472 0.0
C375 C 0.61145 0.44478 0.52849 0.0
C376 C 0.61334 0.46458 0.50433 0.0
C377 C 0.58471 0.43384 0.54264 0.0
C378 C 0.4608 0.50314 0.55689 0.0
C379 C 0.48475 0.55871 0.50123 0.0
C380 C 0.47381 0.58802 0.60873 0.0
C381 C 0.46583 0.61465 0.6012 0.0
C382 C 0.4722 0.6262 0.57124 0.0
C383 C 0.44928 0.62704 0.62236 0.0
C384 C 0.44279 0.66047 0.5825 0.0
C385 C 0.43796 0.64999 0.61314 0.0
C386 C 0.46055 0.64882 0.56184 0.0
C387 C 0.55101 0.57518 0.54207 0.0
O388 O 0.53804 0.50467 0.57221 0.0
O389 O 0.51901 0.53155 0.60874 0.0
O390 O 0.51444 0.46751 0.51958 0.0
O391 O 0.54215 0.50093 0.49294 0.0
O392 O 0.46579 0.49587 0.52852 0.0
O393 O 0.4838 0.51291 0.56952 0.0
O394 O 0.4798 0.56616 0.53026 0.0
O395 O 0.50011 0.53946 0.49449 0.0
O396 O 0.50117 0.58861 0.61082 0.0
O397 O 0.46091 0.56699 0.59257 0.0
O398 O 0.54055 0.5904 0.56239 0.0
O399 O 0.53402 0.55229 0.54091 0.0
H400 H 0.54018 0.43422 0.5449 0.0
H401 H 0.59117 0.48893 0.47623 0.0
H402 H 0.6336 0.47293 0.49254 0.0
H403 H 0.58264 0.41861 0.56137 0.0
H404 H 0.48514 0.61691 0.55467 0.0
H405 H 0.4441 0.61825 0.64549 0.0
H406 H 0.42402 0.65842 0.62936 0.0
H407 H 0.46456 0.65657 0.53816 0.0
Gd408 Gd 0.01112 0.50939 0.0657 0.0
Gd409 Gd 0.00737 0.56433 1.03657 0.0
C410 C 0.06358 0.56265 0.07202 0.0
C411 C 0.02748 0.4649 0.08462 0.0
C412 C 0.05538 0.45777 0.09034 0.0
C413 C 0.0587 0.44258 0.11717 0.0
C414 C 0.07898 0.46662 0.06978 0.0
C415 C 0.10882 0.44499 0.10287 0.0
C416 C 0.10543 0.4601 0.0759 0.0
C417 C 0.08519 0.43632 0.12345 0.0
C418 C 0.98037 0.5405 0.09967 0.0
C419 C 0.95542 0.51077 1.02956 0.0
C420 C 0.99108 0.6095 1.01962 0.0
C421 C 0.96359 0.61774 1.01484 0.0
C422 C 0.96238 0.64001 0.99469 0.0
C423 C 0.93849 0.60354 1.0301 0.0
C424 C 0.91121 0.63429 1.0054 0.0
C425 C 0.91253 0.61176 1.02544 0.0
C426 C 0.93646 0.64822 0.98997 0.0
C427 C 0.0382 0.5336 1.00192 0.0
O428 O 0.05547 0.53516 0.07141 0.0
O429 O 0.04703 0.57932 0.06214 0.0
O430 O 0.0192 0.48288 0.1036 0.0
O431 O 0.02225 0.46937 0.05567 0.0
O432 O 0.97325 0.5136 0.09729 0.0
O433 O 0.0036 0.54932 0.08491 0.0
O434 O 0.96305 0.53827 1.03103 0.0
O435 O 0.97236 0.49422 1.03878 0.0
O436 O 0.99847 0.59164 0.99988 0.0
O437 O 0.99627 0.60402 1.04833 0.0
O438 O 0.04428 0.56063 1.00352 0.0
O439 O 0.01531 0.52444 1.01727 0.0
H440 H 0.04079 0.43567 0.13335 0.0
H441 H 0.07707 0.4787 1.04909 0.0
H442 H 0.12334 0.46728 0.05983 0.0
H443 H 0.08715 0.42442 0.14427 0.0
H444 H 0.98152 0.65106 0.98256 0.0
H445 H 0.93899 0.58622 1.04574 0.0
H446 H 0.89359 0.60073 1.03789 0.0
H447 H 0.93617 0.66528 0.97391 0.0
H448 H 0.26047 0.24429 0.40925 0.0
H449 H 0.20989 0.28824 0.35334 0.0
H450 H 0.21706 0.21974 0.43657 0.0
H451 H 0.16686 0.26427 0.38108 0.0
H452 H 0.10424 0.17875 0.39567 0.0
H453 H 0.14469 0.21362 0.37753 0.0
H454 H 0.17344 0.224 0.47113 0.0
H455 H 0.13212 0.18958 0.48981 0.0
C456 C 0.24019 0.24916 0.40328 0.0
C457 C 0.23863 0.26804 0.37897 0.0
C458 C 0.21539 0.23529 0.41909 0.0
C459 C 0.18861 0.23994 0.41069 0.0
C460 C 0.18722 0.26012 0.3878 0.0
C461 C 0.21195 0.27405 0.37214 0.0
C462 C 0.11855 0.18901 0.41268 0.0
C463 C 0.11484 0.18119 0.44425 0.0
C464 C 0.14187 0.20898 0.40219 0.0
C465 C 0.16223 0.22148 0.42292 0.0
C466 C 0.15816 0.21448 0.45464 0.0
C467 C 0.13457 0.19469 0.46524 0.0
H468 H 0.30759 0.81761 0.82896 0.0
H469 H 0.27726 0.89257 0.80493 0.0
H470 H 0.33877 0.84385 0.86645 0.0
H471 H 0.3073 0.91833 0.84317 0.0
H472 H 0.38507 0.96418 0.88837 0.0
H473 H 0.3573 0.93578 0.84992 0.0
H474 H 0.33707 0.86743 0.91617 0.0
H475 H 0.36522 0.89582 0.95453 0.0
C476 C 0.30745 0.83962 0.8318 0.0
C477 C 0.28989 0.85297 0.81398 0.0
C478 C 0.32514 0.85459 0.85343 0.0
C479 C 0.32567 0.88322 0.85762 0.0
C480 C 0.30777 0.89641 0.84015 0.0
C481 C 0.29017 0.88151 0.81856 0.0
C482 C 0.37478 0.94304 0.89464 0.0
C483 C 0.3771 0.93228 0.9245 0.0
C484 C 0.3588 0.92681 0.87268 0.0
C485 C 0.34464 0.89948 0.88014 0.0
C486 C 0.34787 0.88833 0.90963 0.0
C487 C 0.36399 0.90457 0.93159 0.0
H488 H 0.59922 0.39682 0.72232 0.0
H489 H 0.61923 0.47571 0.7691 0.0
H490 H 0.57858 0.41929 0.68061 0.0
H491 H 0.59953 0.49836 0.72688 0.0
H492 H 0.53324 0.52343 0.66384 0.0
H493 H 0.55473 0.50135 0.70509 0.0
H494 H 0.5905 0.45152 0.6372 0.0
H495 H 0.56862 0.47329 0.59594 0.0
C496 C 0.59924 0.41896 0.72378 0.0
C497 C 0.61092 0.43434 0.74929 0.0
C498 C 0.58767 0.43195 0.69959 0.0
C499 C 0.58731 0.46073 0.7002 0.0
C500 C 0.59909 0.47613 0.72565 0.0
C501 C 0.61073 0.46316 0.74978 0.0
C502 C 0.54576 0.50784 0.65761 0.0
C503 C 0.54907 0.5002 0.6264 0.0
C504 C 0.55825 0.49523 0.68135 0.0
C505 C 0.57442 0.47454 0.67466 0.0
C506 C 0.57791 0.46705 0.64341 0.0
C507 C 0.56546 0.47971 0.61964 0.0
H508 H 0.87671 0.59177 0.25106 0.0
H509 H 0.93945 0.66623 0.22926 0.0
H510 H 0.89751 0.56725 0.21054 0.0
H511 H 0.9579 0.64273 0.18611 0.0
H512 H 0.00577 0.58697 0.12972 0.0
H513 H 0.98514 0.61224 0.17031 0.0
H514 H 0.90334 0.55809 0.1598 0.0
H515 H 0.92504 0.53151 0.12111 0.0
C516 C 0.89489 0.60313 0.23769 0.0
C517 C 0.90637 0.63119 0.24418 0.0
C518 C 0.90654 0.58907 0.21364 0.0
C519 C 0.92959 0.60273 0.19447 0.0
C520 C 0.94062 0.631 0.20046 0.0
C521 C 0.92949 0.64484 0.2251 0.0
C522 C 0.98336 0.58056 0.13618 0.0
C523 C 0.96704 0.55717 0.12249 0.0
C524 C 0.97132 0.59523 0.15938 0.0
C525 C 0.94232 0.58745 0.1689 0.0
C526 C 0.92585 0.56449 0.15413 0.0
C527 C 0.93817 0.54932 0.13159 0.0
H528 H 0.3767 0.1963 0.14328 0.0
H529 H 0.43434 0.20375 0.21861 0.0
H530 H 0.39795 0.15866 0.12155 0.0
H531 H 0.45508 0.16544 0.19733 0.0
H532 H 0.50526 0.11883 0.127 0.0
H533 H 0.48443 0.15532 0.15214 0.0
H534 H 0.40028 0.11009 0.13362 0.0
H535 H 0.42102 0.07381 0.10808 0.0
C536 C 0.39401 0.18999 0.15512 0.0
C537 C 0.40388 0.20308 0.18263 0.0
C538 C 0.40593 0.16816 0.1429 0.0
C539 C 0.42807 0.15892 0.15784 0.0
C540 C 0.43814 0.17216 0.1852 0.0
C541 C 0.42612 0.19395 0.19751 0.0
C542 C 0.48229 0.1165 0.12856 0.0
C543 C 0.46482 0.09346 0.11532 0.0
C544 C 0.47036 0.1374 0.14307 0.0
C545 C 0.44071 0.13575 0.14458 0.0
C546 C 0.42323 0.11222 0.13233 0.0
C547 C 0.43513 0.0913 0.11791 0.0
H548 H 0.14752 0.88424 0.57615 0.0
H549 H 0.09471 0.88382 0.65997 0.0
H550 H 0.1248 0.91961 0.55344 0.0
H551 H 0.07181 0.91933 0.63711 0.0
H552 H 0.06076 0.96538 0.5118 0.0
H553 H 0.07973 0.92708 0.53422 0.0
H554 H 0.08543 0.96884 0.62263 0.0
H555 H 0.06602 1.0069 0.60022 0.0
C556 C 0.13064 0.89131 0.58949 0.0
C557 C 0.12283 0.88121 0.61982 0.0
C558 C 0.11765 0.91162 0.57649 0.0
C559 C 0.09657 0.92228 0.59351 0.0
C560 C 0.0883 0.91178 0.62361 0.0
C561 C 0.10134 0.89144 0.63666 0.0
C562 C 0.06616 0.96634 0.53599 0.0
C563 C 0.06202 0.989 0.55434 0.0
C564 C 0.07702 0.94447 0.54881 0.0
C565 C 0.08402 0.94495 0.58019 0.0
C566 C 0.07982 0.96768 0.59851 0.0
C567 C 0.06892 0.98953 0.58567 0.0
H568 H 0.79745 0.47805 0.92879 0.0
H569 H 0.80148 0.39912 0.9725 0.0
H570 H 0.84214 0.4989 0.95133 0.0
H571 H 0.84481 0.42046 0.99691 0.0
H572 H 0.93759 0.45705 1.0109 0.0
H573 H 0.89311 0.43675 0.98777 0.0
H574 H 0.86491 0.51551 0.99645 0.0
H575 H 0.91017 0.53614 1.01836 0.0
C576 C 0.80773 0.46506 0.94322 0.0
C577 C 0.79555 0.43672 0.94858 0.0
C578 C 0.83329 0.47722 0.95664 0.0
C579 C 0.84742 0.46152 0.97611 0.0
C580 C 0.83505 0.43328 0.98172 0.0
C581 C 0.80971 0.42106 0.96803 0.0
C582 C 0.92188 0.47005 1.00799 0.0
C583 C 0.92755 0.49825 1.0166 0.0
C584 C 0.89614 0.45832 0.99483 0.0
C585 C 0.87501 0.4743 0.9902 0.0
C586 C 0.88065 0.50252 0.99908 0.0
C587 C 0.90661 0.51436 1.01192 0.0
H588 H 0.69133 0.67286 0.43294 0.0
H589 H 0.72028 0.59582 0.44988 0.0
H590 H 0.64585 0.65377 0.45927 0.0
H591 H 0.67462 0.57665 0.47664 0.0
H592 H 0.57877 0.54461 0.50184 0.0
H593 H 0.62322 0.56099 0.47133 0.0
H594 H 0.62896 0.64257 0.51185 0.0
H595 H 0.58452 0.62636 0.54136 0.0
C596 C 0.68802 0.65185 0.44242 0.0
C597 C 0.70961 0.63602 0.43963 0.0
C598 C 0.66192 0.64088 0.45756 0.0
C599 C 0.65665 0.61378 0.4705 0.0
C600 C 0.67786 0.59753 0.4668 0.0
C601 C 0.70405 0.60852 0.45149 0.0
C602 C 0.58946 0.56604 0.5039 0.0
C603 C 0.57799 0.58425 0.52367 0.0
C604 C 0.61505 0.57541 0.48666 0.0
C605 C 0.62959 0.60323 0.48885 0.0
C606 C 0.61811 0.62122 0.509 0.0
C607 C 0.59269 0.61185 0.52613 0.0
H608 H 0.2427 0.35385 0.13009 0.0
H609 H 0.27216 0.43117 0.17741 0.0
H610 H 0.20393 0.37326 0.10944 0.0
H611 H 0.23294 0.45032 0.15717 0.0
H612 H 0.13559 0.45105 0.1577 0.0
H613 H 0.18049 0.43769 0.16993 0.0
H614 H 0.1905 0.41053 0.07557 0.0
H615 H 0.14528 0.42372 0.06339 0.0
C616 C 0.24142 0.37524 0.13542 0.0
C617 C 0.2604 0.39083 0.15572 0.0
C618 C 0.21909 0.38633 0.12365 0.0
C619 C 0.21519 0.41316 0.13205 0.0
C620 C 0.23515 0.42938 0.15077 0.0
C621 C 0.25758 0.41839 0.16235 0.0
C622 C 0.14742 0.4423 0.13956 0.0
C623 C 0.13688 0.43826 0.10967 0.0
C624 C 0.17328 0.43493 0.14645 0.0
C625 C 0.18905 0.42314 0.12367 0.0
C626 C 0.17874 0.41949 0.0936 0.0
C627 C 0.15298 0.42717 0.08661 0.0
H628 H 0.55456 0.23728 0.92009 0.0
H629 H 0.63293 0.22391 0.95836 0.0
H630 H 0.53029 0.19233 0.94083 0.0
H631 H 0.60814 0.17966 0.98089 0.0
H632 H 0.56042 0.08881 0.9942 0.0
H633 H 0.58644 0.13277 0.97114 0.0
H634 H 0.5122 0.16993 0.98752 0.0
H635 H 0.48625 0.12595 1.0093 0.0
C636 C 0.56673 0.2248 0.93285 0.0
C637 C 0.59586 0.23454 0.93742 0.0
C638 C 0.55262 0.19904 0.94525 0.0
C639 C 0.56704 0.18219 0.96292 0.0
C640 C 0.59624 0.19178 0.96725 0.0
C641 C 0.61043 0.21749 0.95465 0.0
C642 C 0.54975 0.10642 0.99274 0.0
C643 C 0.52122 0.10384 1.00335 0.0
C644 C 0.56469 0.13173 0.97969 0.0
C645 C 0.55148 0.1551 0.97712 0.0
C646 C 0.52303 0.1524 0.98828 0.0
C647 C 0.50813 0.12714 1.00104 0.0
H648 H 0.87478 0.85586 0.41722 0.0
H649 H 0.94758 0.8204 0.43958 0.0
H650 H 0.89558 0.89916 0.44262 0.0
H651 H 0.96859 0.86386 0.46459 0.0
H652 H 0.97871 0.93227 0.53907 0.0
H653 H 0.95869 0.88979 0.51197 0.0
H654 H 0.93627 0.93924 0.43692 0.0
H655 H 0.95622 0.98189 0.46408 0.0
C656 C 0.89527 0.85734 0.42747 0.0
C657 C 0.90947 0.8346 0.42642 0.0
C658 C 0.9073 0.88225 0.44181 0.0
C659 C 0.93372 0.88498 0.45575 0.0
C660 C 0.94808 0.86237 0.45437 0.0
C661 C 0.93618 0.83755 0.43975 0.0
C662 C 0.96945 0.93417 0.51683 0.0
C663 C 0.96907 0.96058 0.50381 0.0
C664 C 0.95817 0.90976 0.50117 0.0
C665 C 0.94596 0.91107 0.4722 0.0
C666 C 0.94533 0.93747 0.45929 0.0
C667 C 0.95688 0.96193 0.47482 0.0
H668 H 0.28757 0.69823 0.57489 0.0
H669 H 0.33433 0.78295 0.57519 0.0
H670 H 0.33095 0.68194 0.55867 0.0
H671 H 0.37805 0.76666 0.55939 0.0
H672 H 0.43678 0.70974 0.60891 0.0
H673 H 0.40048 0.73694 0.59778 0.0
H674 H 0.3743 0.68352 0.52049 0.0
H675 H 0.41079 0.65638 0.53155 0.0
C676 C 0.30697 0.71341 0.57022 0.0
C677 C 0.30785 0.74171 0.57637 0.0
C678 C 0.33176 0.70418 0.56082 0.0
C679 C 0.35784 0.72309 0.55805 0.0
C680 C 0.35817 0.75174 0.56143 0.0
C681 C 0.33322 0.76103 0.57032 0.0
C682 C 0.42388 0.70444 0.58894 0.0
C683 C 0.42625 0.68086 0.57132 0.0
C684 C 0.4033 0.72012 0.58237 0.0
C685 C 0.38453 0.71216 0.55836 0.0
C686 C 0.38853 0.69001 0.5391 0.0
C687 C 0.40941 0.67457 0.54541 0.0
H688 H 0.76857 0.80539 0.71366 0.0
H689 H 0.76312 0.87302 0.77657 0.0
H690 H 0.81218 0.83298 0.68915 0.0
H691 H 0.8063 0.90033 0.75213 0.0
H692 H 0.90317 0.91916 0.73298 0.0
H693 H 0.85796 0.89155 0.75227 0.0
H694 H 0.8299 0.88062 0.65849 0.0
H695 H 0.87476 0.90922 0.63899 0.0
C696 C 0.77642 0.82626 0.72187 0.0
C697 C 0.76242 0.83708 0.74696 0.0
C698 C 0.80125 0.84201 0.70785 0.0
C699 C 0.81266 0.86858 0.71908 0.0
C700 C 0.79806 0.87976 0.74331 0.0
C701 C 0.77316 0.86424 0.75701 0.0
C702 C 0.88734 0.91114 0.71641 0.0
C703 C 0.89258 0.9167 0.68444 0.0
C704 C 0.8615 0.89525 0.72748 0.0
C705 C 0.84044 0.88424 0.70684 0.0
C706 C 0.8459 0.88884 0.67482 0.0
C707 C 0.87166 0.90508 0.66373 0.0
H708 H 0.72076 0.24413 0.27312 0.0
H709 H 0.66682 0.19186 0.3412 0.0
H710 H 0.69033 0.22324 0.232 0.0
H711 H 0.63548 0.17184 0.3006 0.0
H712 H 0.61473 0.11373 0.21837 0.0
H713 H 0.63834 0.13974 0.26085 0.0
H714 H 0.64616 0.21631 0.20749 0.0
H715 H 0.62326 0.18979 0.16438 0.0
C716 C 0.70193 0.22866 0.27926 0.0
C717 C 0.69618 0.21929 0.31007 0.0
C718 C 0.68439 0.21676 0.2558 0.0
C719 C 0.6606 0.19554 0.26289 0.0
C720 C 0.65401 0.18756 0.29415 0.0
C721 C 0.67178 0.19912 0.31744 0.0
C722 C 0.62107 0.13618 0.21595 0.0
C723 C 0.61721 0.14976 0.18814 0.0
C724 C 0.63453 0.15118 0.24036 0.0
C725 C 0.64417 0.18021 0.2377 0.0
C726 C 0.63943 0.19393 0.21017 0.0
C727 C 0.62623 0.17882 0.18554 0.0
H728 H 0.45312 0.64271 0.32943 0.0
H729 H 0.37228 0.62866 0.38077 0.0
H730 H 0.47403 0.62088 0.37155 0.0
H731 H 0.39305 0.60637 0.42264 0.0
H732 H 0.44799 0.5956 0.50559 0.0
H733 H 0.42744 0.6178 0.46361 0.0
H734 H 0.47224 0.57506 0.39624 0.0
H735 H 0.493 0.55294 0.4382 0.0
C736 C 0.43979 0.63503 0.34972 0.0
C737 C 0.41096 0.63752 0.35159 0.0
C738 C 0.45174 0.62224 0.37379 0.0
C739 C 0.43528 0.61178 0.40061 0.0
C740 C 0.40648 0.61437 0.40253 0.0
C741 C 0.39446 0.62692 0.37833 0.0
C742 C 0.45352 0.59087 0.48186 0.0
C743 C 0.47221 0.57234 0.47545 0.0
C744 C 0.44155 0.60353 0.45771 0.0
C745 C 0.44808 0.59825 0.42641 0.0
C746 C 0.46692 0.57987 0.42 0.0
C747 C 0.47872 0.56703 0.44415 0.0
H748 H 0.07045 0.40955 0.86628 0.0
H749 H 0.14577 0.47438 0.85834 0.0
H750 H 0.05053 0.43588 0.90617 0.0
H751 H 0.12725 0.49909 0.90041 0.0
H752 H 0.07655 0.55334 0.95478 0.0
H753 H 0.09603 0.52702 0.91435 0.0
H754 H 0.05023 0.45008 0.95673 0.0
H755 H 0.02909 0.47687 0.9956 0.0
C756 C 0.08294 0.42932 0.87299 0.0
C757 C 0.10988 0.43961 0.85861 0.0
C758 C 0.07164 0.44431 0.89652 0.0
C759 C 0.08711 0.46985 0.90695 0.0
C760 C 0.11423 0.47988 0.8929 0.0
C761 C 0.12524 0.46523 0.86895 0.0
C762 C 0.07069 0.53079 0.95543 0.0
C763 C 0.05136 0.5172 0.97851 0.0
C764 C 0.08208 0.51554 0.9323 0.0
C765 C 0.07498 0.48614 0.93195 0.0
C766 C 0.05595 0.4726 0.95556 0.0
C767 C 0.04406 0.48795 0.97827 0.0
H768 H 0.59437 0.85342 0.98868 0.0
H769 H 0.59318 0.88497 0.89474 0.0
H770 H 0.57532 0.89331 1.00812 0.0
H771 H 0.57235 0.9236 0.91446 0.0
H772 H 0.50345 0.96629 0.97349 0.0
H773 H 0.52225 0.92709 0.95081 0.0
H774 H 0.59873 0.95062 1.00154 0.0
H775 H 0.58054 0.99016 1.02352 0.0
C776 C 0.59006 0.86866 0.97211 0.0
C777 C 0.59555 0.86579 0.94004 0.0
C778 C 0.57895 0.89138 0.98331 0.0
C779 C 0.57247 0.91137 0.9627 0.0
C780 C 0.57702 0.90825 0.93071 0.0
C781 C 0.58874 0.88591 0.9195 0.0
C782 C 0.52445 0.96332 0.9794 0.0
C783 C 0.5406 0.98137 1.00013 0.0
C784 C 0.53513 0.94094 0.96649 0.0
C785 C 0.56176 0.93588 0.97473 0.0
C786 C 0.57805 0.95409 0.99505 0.0
C787 C 0.56771 0.97681 1.00738 0.0
H788 H 0.90189 0.17209 0.46117 0.0
H789 H 0.82794 0.13832 0.51954 0.0
H790 H 0.92553 0.13517 0.47846 0.0
H791 H 0.85082 0.10023 0.53585 0.0
H792 H 0.91573 0.0571 0.5844 0.0
H793 H 0.88721 0.08997 0.56621 0.0
H794 H 0.9258 0.08766 0.47386 0.0
H795 H 0.95521 0.05603 0.49285 0.0
C796 C 0.89067 0.15649 0.47754 0.0
C797 C 0.86326 0.15793 0.48916 0.0
C798 C 0.90401 0.13514 0.48723 0.0
C799 C 0.88997 0.11442 0.50829 0.0
C800 C 0.86241 0.11596 0.51989 0.0
C801 C 0.84927 0.13768 0.51057 0.0
C802 C 0.91757 0.06335 0.56012 0.0
C803 C 0.93767 0.05453 0.53995 0.0
C804 C 0.90126 0.08212 0.54963 0.0
C805 C 0.90456 0.09193 0.51866 0.0
C806 C 0.92337 0.08131 0.49809 0.0
C807 C 0.94004 0.06306 0.50878 0.0
H808 H 0.23482 0.60021 0.14704 0.0
H809 H 0.19648 0.67115 0.16968 0.0
H810 H 0.19194 0.57864 0.12104 0.0
H811 H 0.15343 0.64947 0.14443 0.0
H812 H 0.09015 0.61761 0.07184 0.0
H813 H 0.13421 0.63824 0.09582 0.0
H814 H 0.14364 0.55659 0.12781 0.0
H815 H 0.10002 0.53585 0.10279 0.0
C816 C 0.21711 0.61108 0.14679 0.0
C817 C 0.21924 0.63752 0.16037 0.0
C818 C 0.19241 0.59868 0.13187 0.0
C819 C 0.16902 0.61226 0.13031 0.0
C820 C 0.17109 0.63854 0.14437 0.0
C821 C 0.19583 0.651 0.15904 0.0
C822 C 0.10168 0.60399 0.08381 0.0
C823 C 0.09137 0.57503 0.08535 0.0
C824 C 0.12694 0.61589 0.09787 0.0
C825 C 0.1426 0.59925 0.11418 0.0
C826 C 0.1325 0.57017 0.11525 0.0
C827 C 0.10731 0.55823 0.10097 0.0
H828 H 0.29387 0.41291 0.61411 0.0
H829 H 0.31516 0.46837 0.69106 0.0
H830 H 0.33826 0.43345 0.58713 0.0
H831 H 0.35869 0.49058 0.66283 0.0
H832 H 0.4497 0.50133 0.6196 0.0
H833 H 0.40429 0.48409 0.64731 0.0
H834 H 0.36313 0.47195 0.55959 0.0
H835 H 0.4089 0.48776 0.53213 0.0
C836 C 0.30795 0.42955 0.62534 0.0
C837 C 0.30084 0.43864 0.65507 0.0
C838 C 0.33334 0.44179 0.6095 0.0
C839 C 0.35229 0.46388 0.62259 0.0
C840 C 0.34494 0.47339 0.65207 0.0
C841 C 0.31966 0.46087 0.66814 0.0
C842 C 0.43086 0.4951 0.60633 0.0
C843 C 0.43284 0.49558 0.57373 0.0
C844 C 0.40471 0.48535 0.62221 0.0
C845 C 0.37984 0.47625 0.60582 0.0
C846 C 0.38181 0.47799 0.57312 0.0
C847 C 0.40802 0.4873 0.55729 0.0
H848 H 0.7533 0.65358 0.92679 0.0
H849 H 0.77185 0.72481 0.98678 0.0
H850 H 0.7933 0.63573 0.94656 0.0
H851 H 0.81096 0.7062 1.00778 0.0
H852 H 0.90158 0.68756 1.00015 0.0
H853 H 0.85749 0.70234 0.98834 0.0
H854 H 0.81391 0.61626 0.98912 0.0
H855 H 0.8585 0.60137 0.99937 0.0
C856 C 0.76563 0.66521 0.94458 0.0
C857 C 0.75957 0.69084 0.95486 0.0
C858 C 0.78841 0.6548 0.9562 0.0
C859 C 0.80562 0.66968 0.97852 0.0
C860 C 0.79849 0.69446 0.99016 0.0
C861 C 0.77578 0.70494 0.97843 0.0
C862 C 0.88265 0.67175 0.99763 0.0
C863 C 0.8837 0.64326 1.00039 0.0
C864 C 0.8572 0.68025 0.99134 0.0
C865 C 0.83206 0.66051 0.98779 0.0
C866 C 0.83292 0.63202 0.99138 0.0
C867 C 0.85844 0.6235 0.99758 0.0
H868 H 0.38341 0.86295 0.18927 0.0
H869 H 0.4517 0.82608 0.15014 0.0
H870 H 0.40697 0.90855 0.16862 0.0
H871 H 0.47469 0.87114 0.12824 0.0
H872 H 0.52509 0.95843 0.11772 0.0
H873 H 0.50063 0.91419 0.13993 0.0
H874 H 0.41963 0.93801 0.12537 0.0
H875 H 0.44459 0.98331 0.10485 0.0
C876 C 0.40336 0.86456 0.17596 0.0
C877 C 0.41579 0.84089 0.17158 0.0
C878 C 0.41686 0.89075 0.16392 0.0
C879 C 0.44301 0.89393 0.14675 0.0
C880 C 0.45506 0.86998 0.14196 0.0
C881 C 0.44179 0.84397 0.15441 0.0
C882 C 0.50204 0.95431 0.1194 0.0
C883 C 0.4868 0.97436 0.10929 0.0
C884 C 0.48789 0.92867 0.13188 0.0
C885 C 0.45793 0.92197 0.13421 0.0
C886 C 0.44266 0.94227 0.12433 0.0
C887 C 0.45694 0.96822 0.11224 0.0
H888 H 0.09838 0.2573 0.62152 0.0
H889 H 0.10462 0.21651 0.70933 0.0
H890 H 0.08007 0.21236 0.59852 0.0
H891 H 0.08698 0.17129 0.68619 0.0
H892 H 0.02868 0.09736 0.64222 0.0
H893 H 0.04679 0.1418 0.66642 0.0
H894 H 0.09392 0.17102 0.58113 0.0
H895 H 0.07498 0.12698 0.55664 0.0
C896 C 0.09599 0.23866 0.63588 0.0
C897 C 0.10304 0.24052 0.66726 0.0
C898 C 0.08563 0.21279 0.62264 0.0
C899 C 0.08223 0.18795 0.64031 0.0
C900 C 0.08894 0.18988 0.67187 0.0
C901 C 0.09909 0.21584 0.68519 0.0
C902 C 0.04306 0.11319 0.62866 0.0
C903 C 0.05027 0.10852 0.5974 0.0
C904 C 0.05357 0.13874 0.64262 0.0
C905 C 0.07175 0.16028 0.62579 0.0
C906 C 0.0795 0.15527 0.59473 0.0
C907 C 0.06881 0.12982 0.5807 0.0
H908 H 0.73516 0.3407 0.55424 0.0
H909 H 0.77069 0.4082 0.49069 0.0
H910 H 0.70012 0.36722 0.57369 0.0
H911 H 0.73478 0.43408 0.50886 0.0
H912 H 0.61629 0.39096 0.53921 0.0
H913 H 0.65954 0.37306 0.54567 0.0
H914 H 0.70821 0.45731 0.54492 0.0
H915 H 0.66454 0.47524 0.53796 0.0
C916 C 0.73618 0.36161 0.54519 0.0
C917 C 0.75518 0.37208 0.52032 0.0
C918 C 0.71584 0.37669 0.55609 0.0
C919 C 0.71402 0.40234 0.54212 0.0
C920 C 0.73539 0.41433 0.5201 0.0
C921 C 0.75586 0.39937 0.50941 0.0
C922 C 0.63608 0.40571 0.54129 0.0
C923 C 0.63712 0.43445 0.53755 0.0
C924 C 0.66096 0.39547 0.54522 0.0
C925 C 0.68747 0.41376 0.54561 0.0
C926 C 0.6882 0.44267 0.54422 0.0
C927 C 0.66326 0.45292 0.54012 0.0
loop_
_geom_bond_atom_site_label_1
_geom_bond_atom_site_label_2
_geom_bond_distance
_geom_bond_site_symmetry_2
_ccdc_geom_bond_type
C0 C1 1.384 . S
C0 H13 0.947 . S
C0 C35 1.382 . S
C1 C0 1.384 . S
C1 C2 1.378 . S
C2 C1 1.378 . S
C2 C3 1.378 . S
C2 H14 0.952 . S
C3 C2 1.378 . S
C3 H15 0.950 . S
C3 C34 1.383 . S
H4 C23 0.947 . S
H5 C24 0.946 . S
H6 C26 0.953 . S
H7 C27 0.945 . S
H8 C29 0.952 . S
H9 C30 0.949 . S
H10 C32 0.950 . S
H11 C33 0.948 . S
H12 C35 0.951 . S
H13 C0 0.947 . S
H14 C2 0.952 . S
H15 C3 0.950 . S
N16 C19 1.382 . S
N16 C21 1.363 . S
N17 C19 1.371 . S
N17 C20 1.372 . S
N18 C20 1.361 . S
N18 C21 1.377 . S
C19 N16 1.382 . S
C19 N17 1.371 . S
C19 C22 1.480 . S
C20 N17 1.372 . S
C20 N18 1.361 . S
C20 C28 1.457 . S
C21 N16 1.363 . S
C21 N18 1.377 . S
C21 C34 1.479 . S
C22 C19 1.480 . S
C22 C23 1.383 . S
C22 C27 1.385 . S
C23 H4 0.947 . S
C23 C22 1.383 . S
C23 C24 1.388 . S
C24 H5 0.946 . S
C24 C23 1.388 . S
C24 C25 1.384 . S
C25 C24 1.384 . S
C25 C26 1.377 . S
C26 H6 0.953 . S
C26 C25 1.377 . S
C26 C27 1.369 . S
C27 H7 0.945 . S
C27 C22 1.385 . S
C27 C26 1.369 . S
C28 C20 1.457 . S
C28 C29 1.372 . S
C28 C33 1.364 . S
C29 H8 0.952 . S
C29 C28 1.372 . S
C29 C30 1.389 . S
C30 H9 0.949 . S
C30 C29 1.389 . S
C30 C31 1.387 . S
C31 C30 1.387 . S
C31 C32 1.372 . S
C32 H10 0.950 . S
C32 C31 1.372 . S
C32 C33 1.379 . S
C33 H11 0.948 . S
C33 C28 1.364 . S
C33 C32 1.379 . S
C34 C3 1.383 . S
C34 C21 1.479 . S
C34 C35 1.398 . S
C35 C0 1.382 . S
C35 H12 0.951 . S
C35 C34 1.398 . S
C36 C37 1.384 . S
C36 H49 0.947 . S
C36 C71 1.382 . S
C37 C36 1.384 . S
C37 C38 1.378 . S
C38 C37 1.378 . S
C38 C39 1.378 . S
C38 H50 0.952 . S
C39 C38 1.378 . S
C39 H51 0.950 . S
C39 C70 1.383 . S
H40 C59 0.947 . S
H41 C60 0.946 . S
H42 C62 0.953 . S
H43 C63 0.945 . S
H44 C65 0.952 . S
H45 C66 0.949 . S
H46 C68 0.950 . S
H47 C69 0.948 . S
H48 C71 0.951 . S
H49 C36 0.947 . S
H50 C38 0.952 . S
H51 C39 0.950 . S
N52 C55 1.382 . S
N52 C57 1.363 . S
N53 C55 1.371 . S
N53 C56 1.372 . S
N54 C56 1.361 . S
N54 C57 1.377 . S
C55 N52 1.382 . S
C55 N53 1.371 . S
C55 C58 1.480 . S
C56 N53 1.372 . S
C56 N54 1.361 . S
C56 C64 1.457 . S
C57 N52 1.363 . S
C57 N54 1.377 . S
C57 C70 1.479 . S
C58 C55 1.480 . S
C58 C59 1.383 . S
C58 C63 1.385 . S
C59 H40 0.947 . S
C59 C58 1.383 . S
C59 C60 1.388 . S
C60 H41 0.946 . S
C60 C59 1.388 . S
C60 C61 1.384 . S
C61 C60 1.384 . S
C61 C62 1.377 . S
C62 H42 0.953 . S
C62 C61 1.377 . S
C62 C63 1.369 . S
C63 H43 0.945 . S
C63 C58 1.385 . S
C63 C62 1.369 . S
C64 C56 1.457 . S
C64 C65 1.372 . S
C64 C69 1.364 . S
C65 H44 0.952 . S
C65 C64 1.372 . S
C65 C66 1.389 . S
C66 H45 0.949 . S
C66 C65 1.389 . S
C66 C67 1.387 . S
C67 C66 1.387 . S
C67 C68 1.372 . S
C68 H46 0.950 . S
C68 C67 1.372 . S
C68 C69 1.379 . S
C69 H47 0.948 . S
C69 C64 1.364 . S
C69 C68 1.379 . S
C70 C39 1.383 . S
C70 C57 1.479 . S
C70 C71 1.398 . S
C71 C36 1.382 . S
C71 H48 0.951 . S
C71 C70 1.398 . S
C72 C73 1.384 . S
C72 H85 0.947 . S
C72 C107 1.382 . S
C73 C72 1.384 . S
C73 C74 1.378 . S
C74 C73 1.378 . S
C74 C75 1.378 . S
C74 H86 0.952 . S
C75 C74 1.378 . S
C75 H87 0.950 . S
C75 C106 1.383 . S
H76 C95 0.947 . S
H77 C96 0.946 . S
H78 C98 0.953 . S
H79 C99 0.945 . S
H80 C101 0.952 . S
H81 C102 0.949 . S
H82 C104 0.950 . S
H83 C105 0.948 . S
H84 C107 0.951 . S
H85 C72 0.947 . S
H86 C74 0.952 . S
H87 C75 0.950 . S
N88 C91 1.382 . S
N88 C93 1.363 . S
N89 C91 1.371 . S
N89 C92 1.372 . S
N90 C92 1.361 . S
N90 C93 1.377 . S
C91 N88 1.382 . S
C91 N89 1.371 . S
C91 C94 1.480 . S
C92 N89 1.372 . S
C92 N90 1.361 . S
C92 C100 1.457 . S
C93 N88 1.363 . S
C93 N90 1.377 . S
C93 C106 1.479 . S
C94 C91 1.480 . S
C94 C95 1.383 . S
C94 C99 1.385 . S
C95 H76 0.947 . S
C95 C94 1.383 . S
C95 C96 1.388 . S
C96 H77 0.946 . S
C96 C95 1.388 . S
C96 C97 1.384 . S
C97 C96 1.384 . S
C97 C98 1.377 . S
C98 H78 0.953 . S
C98 C97 1.377 . S
C98 C99 1.369 . S
C99 H79 0.945 . S
C99 C94 1.385 . S
C99 C98 1.369 . S
C100 C92 1.457 . S
C100 C101 1.372 . S
C100 C105 1.364 . S
C101 H80 0.952 . S
C101 C100 1.372 . S
C101 C102 1.389 . S
C102 H81 0.949 . S
C102 C101 1.389 . S
C102 C103 1.387 . S
C103 C102 1.387 . S
C103 C104 1.372 . S
C104 H82 0.950 . S
C104 C103 1.372 . S
C104 C105 1.379 . S
C105 H83 0.948 . S
C105 C100 1.364 . S
C105 C104 1.379 . S
C106 C75 1.383 . S
C106 C93 1.479 . S
C106 C107 1.398 . S
C107 C72 1.382 . S
C107 H84 0.951 . S
C107 C106 1.398 . S
C108 C109 1.384 . S
C108 H121 0.947 . S
C108 C143 1.382 . S
C109 C108 1.384 . S
C109 C110 1.378 . S
C110 C109 1.378 . S
C110 C111 1.378 . S
C110 H122 0.952 . S
C111 C110 1.378 . S
C111 H123 0.950 . S
C111 C142 1.383 . S
H112 C131 0.947 . S
H113 C132 0.946 . S
H114 C134 0.953 . S
H115 C135 0.945 . S
H116 C137 0.952 . S
H117 C138 0.949 . S
H118 C140 0.950 . S
H119 C141 0.948 . S
H120 C143 0.951 . S
H121 C108 0.947 . S
H122 C110 0.952 . S
H123 C111 0.950 . S
N124 C127 1.382 . S
N124 C129 1.363 . S
N125 C127 1.371 . S
N125 C128 1.372 . S
N126 C128 1.361 . S
N126 C129 1.377 . S
C127 N124 1.382 . S
C127 N125 1.371 . S
C127 C130 1.480 . S
C128 N125 1.372 . S
C128 N126 1.361 . S
C128 C136 1.457 . S
C129 N124 1.363 . S
C129 N126 1.377 . S
C129 C142 1.479 . S
C130 C127 1.480 . S
C130 C131 1.383 . S
C130 C135 1.385 . S
C131 H112 0.947 . S
C131 C130 1.383 . S
C131 C132 1.388 . S
C132 H113 0.946 . S
C132 C131 1.388 . S
C132 C133 1.384 . S
C133 C132 1.384 . S
C133 C134 1.377 . S
C134 H114 0.953 . S
C134 C133 1.377 . S
C134 C135 1.369 . S
C135 H115 0.945 . S
C135 C130 1.385 . S
C135 C134 1.369 . S
C136 C128 1.457 . S
C136 C137 1.372 . S
C136 C141 1.364 . S
C137 H116 0.952 . S
C137 C136 1.372 . S
C137 C138 1.389 . S
C138 H117 0.949 . S
C138 C137 1.389 . S
C138 C139 1.387 . S
C139 C138 1.387 . S
C139 C140 1.372 . S
C140 H118 0.950 . S
C140 C139 1.372 . S
C140 C141 1.379 . S
C141 H119 0.948 . S
C141 C136 1.364 . S
C141 C140 1.379 . S
C142 C111 1.383 . S
C142 C129 1.479 . S
C142 C143 1.398 . S
C143 C108 1.382 . S
C143 H120 0.951 . S
C143 C142 1.398 . S
C144 C145 1.384 . S
C144 H157 0.947 . S
C144 C179 1.382 . S
C145 C144 1.384 . S
C145 C146 1.378 . S
C146 C145 1.378 . S
C146 C147 1.378 . S
C146 H158 0.952 . S
C147 C146 1.378 . S
C147 H159 0.950 . S
C147 C178 1.383 . S
H148 C167 0.947 . S
H149 C168 0.946 . S
H150 C170 0.953 . S
H151 C171 0.945 . S
H152 C173 0.952 . S
H153 C174 0.949 . S
H154 C176 0.950 . S
H155 C177 0.948 . S
H156 C179 0.951 . S
H157 C144 0.947 . S
H158 C146 0.952 . S
H159 C147 0.950 . S
N160 C163 1.382 . S
N160 C165 1.363 . S
N161 C163 1.371 . S
N161 C164 1.372 . S
N162 C164 1.361 . S
N162 C165 1.377 . S
C163 N160 1.382 . S
C163 N161 1.371 . S
C163 C166 1.480 . S
C164 N161 1.372 . S
C164 N162 1.361 . S
C164 C172 1.457 . S
C165 N160 1.363 . S
C165 N162 1.377 . S
C165 C178 1.479 . S
C166 C163 1.480 . S
C166 C167 1.383 . S
C166 C171 1.385 . S
C167 H148 0.947 . S
C167 C166 1.383 . S
C167 C168 1.388 . S
C168 H149 0.946 . S
C168 C167 1.388 . S
C168 C169 1.384 . S
C169 C168 1.384 . S
C169 C170 1.377 . S
C170 H150 0.953 . S
C170 C169 1.377 . S
C170 C171 1.369 . S
C171 H151 0.945 . S
C171 C166 1.385 . S
C171 C170 1.369 . S
C172 C164 1.457 . S
C172 C173 1.372 . S
C172 C177 1.364 . S
C173 H152 0.952 . S
C173 C172 1.372 . S
C173 C174 1.389 . S
C174 H153 0.949 . S
C174 C173 1.389 . S
C174 C175 1.387 . S
C175 C174 1.387 . S
C175 C176 1.372 . S
C176 H154 0.950 . S
C176 C175 1.372 . S
C176 C177 1.379 . S
C177 H155 0.948 . S
C177 C172 1.364 . S
C177 C176 1.379 . S
C178 C147 1.383 . S
C178 C165 1.479 . S
C178 C179 1.398 . S
C179 C144 1.382 . S
C179 H156 0.951 . S
C179 C178 1.398 . S
C180 C181 1.384 . S
C180 H193 0.947 . S
C180 C215 1.382 . S
C181 C180 1.384 . S
C181 C182 1.378 . S
C182 C181 1.378 . S
C182 C183 1.378 . S
C182 H194 0.952 . S
C183 C182 1.378 . S
C183 H195 0.950 . S
C183 C214 1.383 . S
H184 C203 0.947 . S
H185 C204 0.946 . S
H186 C206 0.953 . S
H187 C207 0.945 . S
H188 C209 0.952 . S
H189 C210 0.949 . S
H190 C212 0.950 . S
H191 C213 0.948 . S
H192 C215 0.951 . S
H193 C180 0.947 . S
H194 C182 0.952 . S
H195 C183 0.950 . S
N196 C199 1.382 . S
N196 C201 1.363 . S
N197 C199 1.371 . S
N197 C200 1.372 . S
N198 C200 1.361 . S
N198 C201 1.377 . S
C199 N196 1.382 . S
C199 N197 1.371 . S
C199 C202 1.480 . S
C200 N197 1.372 . S
C200 N198 1.361 . S
C200 C208 1.457 . S
C201 N196 1.363 . S
C201 N198 1.377 . S
C201 C214 1.479 . S
C202 C199 1.480 . S
C202 C203 1.383 . S
C202 C207 1.385 . S
C203 H184 0.947 . S
C203 C202 1.383 . S
C203 C204 1.388 . S
C204 H185 0.946 . S
C204 C203 1.388 . S
C204 C205 1.384 . S
C205 C204 1.384 . S
C205 C206 1.377 . S
C206 H186 0.953 . S
C206 C205 1.377 . S
C206 C207 1.369 . S
C207 H187 0.945 . S
C207 C202 1.385 . S
C207 C206 1.369 . S
C208 C200 1.457 . S
C208 C209 1.372 . S
C208 C213 1.364 . S
C209 H188 0.952 . S
C209 C208 1.372 . S
C209 C210 1.389 . S
C210 H189 0.949 . S
C210 C209 1.389 . S
C210 C211 1.387 . S
C211 C210 1.387 . S
C211 C212 1.372 . S
C212 H190 0.950 . S
C212 C211 1.372 . S
C212 C213 1.379 . S
C213 H191 0.948 . S
C213 C208 1.364 . S
C213 C212 1.379 . S
C214 C183 1.383 . S
C214 C201 1.479 . S
C214 C215 1.398 . S
C215 C180 1.382 . S
C215 H192 0.951 . S
C215 C214 1.398 . S
C216 C217 1.384 . S
C216 H229 0.947 . S
C216 C251 1.382 . S
C217 C216 1.384 . S
C217 C218 1.378 . S
C218 C217 1.378 . S
C218 C219 1.378 . S
C218 H230 0.952 . S
C219 C218 1.378 . S
C219 H231 0.950 . S
C219 C250 1.383 . S
H220 C239 0.947 . S
H221 C240 0.946 . S
H222 C242 0.953 . S
H223 C243 0.945 . S
H224 C245 0.952 . S
H225 C246 0.949 . S
H226 C248 0.950 . S
H227 C249 0.948 . S
H228 C251 0.951 . S
H229 C216 0.947 . S
H230 C218 0.952 . S
H231 C219 0.950 . S
N232 C235 1.382 . S
N232 C237 1.363 . S
N233 C235 1.371 . S
N233 C236 1.372 . S
N234 C236 1.361 . S
N234 C237 1.377 . S
C235 N232 1.382 . S
C235 N233 1.371 . S
C235 C238 1.480 . S
C236 N233 1.372 . S
C236 N234 1.361 . S
C236 C244 1.457 . S
C237 N232 1.363 . S
C237 N234 1.377 . S
C237 C250 1.479 . S
C238 C235 1.480 . S
C238 C239 1.383 . S
C238 C243 1.385 . S
C239 H220 0.947 . S
C239 C238 1.383 . S
C239 C240 1.388 . S
C240 H221 0.946 . S
C240 C239 1.388 . S
C240 C241 1.384 . S
C241 C240 1.384 . S
C241 C242 1.377 . S
C242 H222 0.953 . S
C242 C241 1.377 . S
C242 C243 1.369 . S
C243 H223 0.945 . S
C243 C238 1.385 . S
C243 C242 1.369 . S
C244 C236 1.457 . S
C244 C245 1.372 . S
C244 C249 1.364 . S
C245 H224 0.952 . S
C245 C244 1.372 . S
C245 C246 1.389 . S
C246 H225 0.949 . S
C246 C245 1.389 . S
C246 C247 1.387 . S
C247 C246 1.387 . S
C247 C248 1.372 . S
C248 H226 0.950 . S
C248 C247 1.372 . S
C248 C249 1.379 . S
C249 H227 0.948 . S
C249 C244 1.364 . S
C249 C248 1.379 . S
C250 C219 1.383 . S
C250 C237 1.479 . S
C250 C251 1.398 . S
C251 C216 1.382 . S
C251 H228 0.951 . S
C251 C250 1.398 . S
C252 C253 1.384 . S
C252 H265 0.947 . S
C252 C287 1.382 . S
C253 C252 1.384 . S
C253 C254 1.378 . S
C254 C253 1.378 . S
C254 C255 1.378 . S
C254 H266 0.952 . S
C255 C254 1.378 . S
C255 H267 0.950 . S
C255 C286 1.383 . S
H256 C275 0.947 . S
H257 C276 0.946 . S
H258 C278 0.953 . S
H259 C279 0.945 . S
H260 C281 0.952 . S
H261 C282 0.949 . S
H262 C284 0.950 . S
H263 C285 0.948 . S
H264 C287 0.951 . S
H265 C252 0.947 . S
H266 C254 0.952 . S
H267 C255 0.950 . S
N268 C271 1.382 . S
N268 C273 1.363 . S
N269 C271 1.371 . S
N269 C272 1.372 . S
N270 C272 1.361 . S
N270 C273 1.377 . S
C271 N268 1.382 . S
C271 N269 1.371 . S
C271 C274 1.480 . S
C272 N269 1.372 . S
C272 N270 1.361 . S
C272 C280 1.457 . S
C273 N268 1.363 . S
C273 N270 1.377 . S
C273 C286 1.479 . S
C274 C271 1.480 . S
C274 C275 1.383 . S
C274 C279 1.385 . S
C275 H256 0.947 . S
C275 C274 1.383 . S
C275 C276 1.388 . S
C276 H257 0.946 . S
C276 C275 1.388 . S
C276 C277 1.384 . S
C277 C276 1.384 . S
C277 C278 1.377 . S
C278 H258 0.953 . S
C278 C277 1.377 . S
C278 C279 1.369 . S
C279 H259 0.945 . S
C279 C274 1.385 . S
C279 C278 1.369 . S
C280 C272 1.457 . S
C280 C281 1.372 . S
C280 C285 1.364 . S
C281 H260 0.952 . S
C281 C280 1.372 . S
C281 C282 1.389 . S
C282 H261 0.949 . S
C282 C281 1.389 . S
C282 C283 1.387 . S
C283 C282 1.387 . S
C283 C284 1.372 . S
C284 H262 0.950 . S
C284 C283 1.372 . S
C284 C285 1.379 . S
C285 H263 0.948 . S
C285 C280 1.364 . S
C285 C284 1.379 . S
C286 C255 1.383 . S
C286 C273 1.479 . S
C286 C287 1.398 . S
C287 C252 1.382 . S
C287 H264 0.951 . S
C287 C286 1.398 . S
Gd288 C291 2.818 . S
Gd288 O308 2.377 . S
Gd288 O310 2.448 . S
Gd288 O311 2.506 . S
Gd288 O312 2.435 1_545 S
Gd288 O313 2.717 1_545 S
Gd288 O315 2.395 1_445 S
Gd288 O319 2.327 1_455 S
Gd289 C300 2.818 . S
Gd289 O309 2.395 1_665 S
Gd289 O313 2.327 1_655 S
Gd289 O314 2.377 . S
Gd289 O316 2.448 . S
Gd289 O317 2.506 . S
Gd289 O318 2.435 1_565 S
Gd289 O319 2.717 1_565 S
C290 O308 1.240 . S
C290 O309 1.240 . S
C291 Gd288 2.818 . S
C291 C292 1.510 . S
C291 O310 1.249 . S
C291 O311 1.252 . S
C292 C291 1.510 . S
C292 C293 1.404 . S
C292 C294 1.352 . S
C293 C292 1.404 . S
C293 C297 1.389 . S
C293 H320 0.930 . S
C294 C292 1.352 . S
C294 C296 1.374 . S
C294 H321 0.931 . S
C295 C296 1.359 . S
C295 C297 1.364 . S
C296 C294 1.374 . S
C296 C295 1.359 . S
C296 H322 0.931 . S
C297 C293 1.389 . S
C297 C295 1.364 . S
C297 H323 0.931 . S
C298 O312 1.256 . S
C298 O313 1.257 . S
C299 O314 1.240 . S
C299 O315 1.240 . S
C300 Gd289 2.818 . S
C300 C301 1.510 . S
C300 O316 1.249 . S
C300 O317 1.252 . S
C301 C300 1.510 . S
C301 C302 1.404 . S
C301 C303 1.352 . S
C302 C301 1.404 . S
C302 C306 1.389 . S
C302 H324 0.930 . S
C303 C301 1.352 . S
C303 C305 1.374 . S
C303 H325 0.931 . S
C304 C305 1.359 . S
C304 C306 1.364 . S
C305 C303 1.374 . S
C305 C304 1.359 . S
C305 H326 0.931 . S
C306 C302 1.389 . S
C306 C304 1.364 . S
C306 H327 0.931 . S
C307 O318 1.256 . S
C307 O319 1.257 . S
O308 Gd288 2.377 . S
O308 C290 1.240 . S
O309 Gd289 2.395 1_445 S
O309 C290 1.240 . S
O310 Gd288 2.448 . S
O310 C291 1.249 . S
O311 Gd288 2.506 . S
O311 C291 1.252 . S
O312 Gd288 2.435 1_565 S
O312 C298 1.256 . S
O313 Gd288 2.717 1_565 S
O313 Gd289 2.327 1_455 S
O313 C298 1.257 . S
O314 Gd289 2.377 . S
O314 C299 1.240 . S
O315 Gd288 2.395 1_665 S
O315 C299 1.240 . S
O316 Gd289 2.448 . S
O316 C300 1.249 . S
O317 Gd289 2.506 . S
O317 C300 1.252 . S
O318 Gd289 2.435 1_545 S
O318 C307 1.256 . S
O319 Gd288 2.327 1_655 S
O319 Gd289 2.717 1_545 S
O319 C307 1.257 . S
H320 C293 0.930 . S
H321 C294 0.931 . S
H322 C296 0.931 . S
H323 C297 0.931 . S
H324 C302 0.930 . S
H325 C303 0.931 . S
H326 C305 0.931 . S
H327 C306 0.931 . S
Gd328 C331 2.812 1_565 S
Gd328 O348 2.370 1_565 S
Gd328 O350 2.447 1_565 S
Gd328 O351 2.496 1_565 S
Gd328 O352 2.444 . S
Gd328 O353 2.722 . S
Gd328 O355 2.403 1_554 S
Gd328 O359 2.319 1_564 S
Gd329 C340 2.818 1_545 S
Gd329 O349 2.395 1_556 S
Gd329 O353 2.327 1_546 S
Gd329 O354 2.377 1_545 S
Gd329 O356 2.448 1_545 S
Gd329 O357 2.506 1_545 S
Gd329 O358 2.435 . S
Gd329 O359 2.717 . S
C330 O348 1.240 . S
C330 O349 1.240 . S
C331 Gd328 2.812 1_545 S
C331 C332 1.510 . S
C331 O350 1.249 . S
C331 O351 1.252 . S
C332 C331 1.510 . S
C332 C333 1.404 . S
C332 C334 1.352 . S
C333 C332 1.404 . S
C333 C337 1.389 . S
C333 H360 0.930 . S
C334 C332 1.352 . S
C334 C336 1.374 . S
C334 H361 0.931 . S
C335 C336 1.359 . S
C335 C337 1.364 . S
C336 C334 1.374 . S
C336 C335 1.359 . S
C336 H362 0.931 . S
C337 C333 1.389 . S
C337 C335 1.364 . S
C337 H363 0.931 . S
C338 O352 1.256 . S
C338 O353 1.257 . S
C339 O354 1.240 . S
C339 O355 1.240 . S
C340 Gd329 2.818 1_565 S
C340 C341 1.510 . S
C340 O356 1.249 . S
C340 O357 1.252 . S
C341 C340 1.510 . S
C341 C342 1.404 . S
C341 C343 1.352 . S
C342 C341 1.404 . S
C342 C346 1.389 . S
C342 H364 0.930 . S
C343 C341 1.352 . S
C343 C345 1.374 . S
C343 H365 0.931 . S
C344 C345 1.359 . S
C344 C346 1.364 . S
C345 C343 1.374 . S
C345 C344 1.359 . S
C345 H366 0.931 . S
C346 C342 1.389 . S
C346 C344 1.364 . S
C346 H367 0.931 . S
C347 O358 1.256 . S
C347 O359 1.257 . S
O348 Gd328 2.370 1_545 S
O348 C330 1.240 . S
O349 Gd329 2.395 1_554 S
O349 C330 1.240 . S
O350 Gd328 2.447 1_545 S
O350 C331 1.249 . S
O351 Gd328 2.496 1_545 S
O351 C331 1.252 . S
O352 Gd328 2.444 . S
O352 C338 1.256 . S
O353 Gd328 2.722 . S
O353 Gd329 2.327 1_564 S
O353 C338 1.257 . S
O354 Gd329 2.377 1_565 S
O354 C339 1.240 . S
O355 Gd328 2.403 1_556 S
O355 C339 1.240 . S
O356 Gd329 2.448 1_565 S
O356 C340 1.249 . S
O357 Gd329 2.506 1_565 S
O357 C340 1.252 . S
O358 Gd329 2.435 . S
O358 C347 1.256 . S
O359 Gd328 2.319 1_546 S
O359 Gd329 2.717 . S
O359 C347 1.257 . S
H360 C333 0.930 . S
H361 C334 0.931 . S
H362 C336 0.931 . S
H363 C337 0.931 . S
H364 C342 0.930 . S
H365 C343 0.931 . S
H366 C345 0.931 . S
H367 C346 0.931 . S
Gd368 C371 2.818 . S
Gd368 O388 2.377 . S
Gd368 O390 2.448 . S
Gd368 O391 2.506 . S
Gd368 O392 2.435 . S
Gd368 O393 2.717 . S
Gd368 O395 2.395 . S
Gd368 O399 2.327 . S
Gd369 C380 2.818 . S
Gd369 O389 2.395 . S
Gd369 O393 2.327 . S
Gd369 O394 2.377 . S
Gd369 O396 2.448 . S
Gd369 O397 2.506 . S
Gd369 O398 2.435 . S
Gd369 O399 2.717 . S
C370 O388 1.240 . S
C370 O389 1.240 . S
C371 Gd368 2.818 . S
C371 C372 1.510 . S
C371 O390 1.249 . S
C371 O391 1.252 . S
C372 C371 1.510 . S
C372 C373 1.404 . S
C372 C374 1.352 . S
C373 C372 1.404 . S
C373 C377 1.389 . S
C373 H400 0.930 . S
C374 C372 1.352 . S
C374 C376 1.374 . S
C374 H401 0.931 . S
C375 C376 1.359 . S
C375 C377 1.364 . S
C376 C374 1.374 . S
C376 C375 1.359 . S
C376 H402 0.931 . S
C377 C373 1.389 . S
C377 C375 1.364 . S
C377 H403 0.931 . S
C378 O392 1.256 . S
C378 O393 1.257 . S
C379 O394 1.240 . S
C379 O395 1.240 . S
C380 Gd369 2.818 . S
C380 C381 1.510 . S
C380 O396 1.249 . S
C380 O397 1.252 . S
C381 C380 1.510 . S
C381 C382 1.404 . S
C381 C383 1.352 . S
C382 C381 1.404 . S
C382 C386 1.389 . S
C382 H404 0.930 . S
C383 C381 1.352 . S
C383 C385 1.374 . S
C383 H405 0.931 . S
C384 C385 1.359 . S
C384 C386 1.364 . S
C385 C383 1.374 . S
C385 C384 1.359 . S
C385 H406 0.931 . S
C386 C382 1.389 . S
C386 C384 1.364 . S
C386 H407 0.931 . S
C387 O398 1.256 . S
C387 O399 1.257 . S
O388 Gd368 2.377 . S
O388 C370 1.240 . S
O389 Gd369 2.395 . S
O389 C370 1.240 . S
O390 Gd368 2.448 . S
O390 C371 1.249 . S
O391 Gd368 2.506 . S
O391 C371 1.252 . S
O392 Gd368 2.435 . S
O392 C378 1.256 . S
O393 Gd368 2.717 . S
O393 Gd369 2.327 . S
O393 C378 1.257 . S
O394 Gd369 2.377 . S
O394 C379 1.240 . S
O395 Gd368 2.395 . S
O395 C379 1.240 . S
O396 Gd369 2.448 . S
O396 C380 1.249 . S
O397 Gd369 2.506 . S
O397 C380 1.252 . S
O398 Gd369 2.435 . S
O398 C387 1.256 . S
O399 Gd368 2.327 . S
O399 Gd369 2.717 . S
O399 C387 1.257 . S
H400 C373 0.930 . S
H401 C374 0.931 . S
H402 C376 0.931 . S
H403 C377 0.931 . S
H404 C382 0.930 . S
H405 C383 0.931 . S
H406 C385 0.931 . S
H407 C386 0.931 . S
Gd408 C411 2.818 . S
Gd408 O428 2.377 . S
Gd408 O430 2.448 . S
Gd408 O431 2.506 . S
Gd408 O432 2.435 1_455 S
Gd408 O433 2.717 1_455 S
Gd408 O435 2.409 1_455 S
Gd408 O439 2.327 1_554 S
Gd409 C420 2.799 1_455 S
Gd409 O429 2.416 1_556 S
Gd409 O433 2.321 1_456 S
Gd409 O434 2.363 1_455 S
Gd409 O436 2.436 1_455 S
Gd409 O437 2.484 1_455 S
Gd409 O438 2.447 . S
Gd409 O439 2.729 . S
C410 O428 1.240 . S
C410 O429 1.240 . S
C411 Gd408 2.818 . S
C411 C412 1.510 . S
C411 O430 1.249 . S
C411 O431 1.252 . S
C412 C411 1.510 . S
C412 C413 1.404 . S
C412 C414 1.352 . S
C413 C412 1.404 . S
C413 C417 1.389 . S
C413 H440 0.930 . S
C414 C412 1.352 . S
C414 C416 1.374 . S
C414 H441 0.931 . S
C415 C416 1.359 . S
C415 C417 1.364 . S
C416 C414 1.374 . S
C416 C415 1.359 . S
C416 H442 0.931 . S
C417 C413 1.389 . S
C417 C415 1.364 . S
C417 H443 0.931 . S
C418 O432 1.256 . S
C418 O433 1.257 . S
C419 O434 1.240 . S
C419 O435 1.220 1_556 S
C420 Gd409 2.799 1_655 S
C420 C421 1.510 . S
C420 O436 1.249 . S
C420 O437 1.252 . S
C421 C420 1.510 . S
C421 C422 1.404 . S
C421 C423 1.352 . S
C422 C421 1.404 . S
C422 C426 1.389 . S
C422 H444 0.930 . S
C423 C421 1.352 . S
C423 C425 1.374 . S
C423 H445 0.931 . S
C424 C425 1.359 . S
C424 C426 1.364 . S
C425 C423 1.374 . S
C425 C424 1.359 . S
C425 H446 0.931 . S
C426 C422 1.389 . S
C426 C424 1.364 . S
C426 H447 0.931 . S
C427 O438 1.256 . S
C427 O439 1.257 . S
O428 Gd408 2.377 . S
O428 C410 1.240 . S
O429 Gd409 2.416 1_554 S
O429 C410 1.240 . S
O430 Gd408 2.448 . S
O430 C411 1.249 . S
O431 Gd408 2.506 . S
O431 C411 1.252 . S
O432 Gd408 2.435 1_655 S
O432 C418 1.256 . S
O433 Gd408 2.717 1_655 S
O433 Gd409 2.321 1_654 S
O433 C418 1.257 . S
O434 Gd409 2.363 1_655 S
O434 C419 1.240 . S
O435 Gd408 2.409 1_655 S
O435 C419 1.220 1_554 S
O436 Gd409 2.436 1_655 S
O436 C420 1.249 . S
O437 Gd409 2.484 1_655 S
O437 C420 1.252 . S
O438 Gd409 2.447 . S
O438 C427 1.256 . S
O439 Gd408 2.327 1_556 S
O439 Gd409 2.729 . S
O439 C427 1.257 . S
H440 C413 0.930 . S
H441 C414 0.931 . S
H442 C416 0.931 . S
H443 C417 0.931 . S
H444 C422 0.930 . S
H445 C423 0.931 . S
H446 C425 0.931 . S
H447 C426 0.931 . S
H448 C456 0.950 . S
H449 C461 0.950 . S
H450 C458 0.950 . S
H451 C460 0.950 . S
H452 C462 0.950 . S
H453 C464 0.950 . S
H454 C466 0.950 . S
H455 C467 0.950 . S
C456 H448 0.950 . S
C456 C457 1.386 . S
C456 C458 1.391 . S
C457 C456 1.386 . S
C457 C461 1.393 . S
C458 H450 0.950 . S
C458 C456 1.391 . S
C458 C459 1.400 . S
C459 C458 1.400 . S
C459 C460 1.398 . S
C459 C465 1.491 . S
C460 H451 0.950 . S
C460 C459 1.398 . S
C460 C461 1.391 . S
C461 H449 0.950 . S
C461 C457 1.393 . S
C461 C460 1.391 . S
C462 H452 0.950 . S
C462 C463 1.386 . S
C462 C464 1.391 . S
C463 C462 1.386 . S
C463 C467 1.393 . S
C464 H453 0.950 . S
C464 C462 1.391 . S
C464 C465 1.400 . S
C465 C459 1.491 . S
C465 C464 1.400 . S
C465 C466 1.398 . S
C466 H454 0.950 . S
C466 C465 1.398 . S
C466 C467 1.391 . S
C467 H455 0.950 . S
C467 C463 1.393 . S
C467 C466 1.391 . S
H468 C476 0.950 . S
H469 C481 0.950 . S
H470 C478 0.950 . S
H471 C480 0.950 . S
H472 C482 0.950 . S
H473 C484 0.950 . S
H474 C486 0.950 . S
H475 C487 0.950 . S
C476 H468 0.950 . S
C476 C477 1.386 . S
C476 C478 1.391 . S
C477 C476 1.386 . S
C477 C481 1.393 . S
C478 H470 0.950 . S
C478 C476 1.391 . S
C478 C479 1.400 . S
C479 C478 1.400 . S
C479 C480 1.398 . S
C479 C485 1.491 . S
C480 H471 0.950 . S
C480 C479 1.398 . S
C480 C481 1.391 . S
C481 H469 0.950 . S
C481 C477 1.393 . S
C481 C480 1.391 . S
C482 H472 0.950 . S
C482 C483 1.386 . S
C482 C484 1.391 . S
C483 C482 1.386 . S
C483 C487 1.393 . S
C484 H473 0.950 . S
C484 C482 1.391 . S
C484 C485 1.400 . S
C485 C479 1.491 . S
C485 C484 1.400 . S
C485 C486 1.398 . S
C486 H474 0.950 . S
C486 C485 1.398 . S
C486 C487 1.391 . S
C487 H475 0.950 . S
C487 C483 1.393 . S
C487 C486 1.391 . S
H488 C496 0.950 . S
H489 C501 0.950 . S
H490 C498 0.950 . S
H491 C500 0.950 . S
H492 C502 0.950 . S
H493 C504 0.950 . S
H494 C506 0.950 . S
H495 C507 0.950 . S
C496 H488 0.950 . S
C496 C497 1.386 . S
C496 C498 1.391 . S
C497 C496 1.386 . S
C497 C501 1.393 . S
C498 H490 0.950 . S
C498 C496 1.391 . S
C498 C499 1.400 . S
C499 C498 1.400 . S
C499 C500 1.398 . S
C499 C505 1.491 . S
C500 H491 0.950 . S
C500 C499 1.398 . S
C500 C501 1.391 . S
C501 H489 0.950 . S
C501 C497 1.393 . S
C501 C500 1.391 . S
C502 H492 0.950 . S
C502 C503 1.386 . S
C502 C504 1.391 . S
C503 C502 1.386 . S
C503 C507 1.393 . S
C504 H493 0.950 . S
C504 C502 1.391 . S
C504 C505 1.400 . S
C505 C499 1.491 . S
C505 C504 1.400 . S
C505 C506 1.398 . S
C506 H494 0.950 . S
C506 C505 1.398 . S
C506 C507 1.391 . S
C507 H495 0.950 . S
C507 C503 1.393 . S
C507 C506 1.391 . S
H508 C516 0.950 . S
H509 C521 0.950 . S
H510 C518 0.950 . S
H511 C520 0.950 . S
H512 C522 0.950 . S
H513 C524 0.950 . S
H514 C526 0.950 . S
H515 C527 0.950 . S
C516 H508 0.950 . S
C516 C517 1.386 . S
C516 C518 1.391 . S
C517 C516 1.386 . S
C517 C521 1.393 . S
C518 H510 0.950 . S
C518 C516 1.391 . S
C518 C519 1.400 . S
C519 C518 1.400 . S
C519 C520 1.398 . S
C519 C525 1.491 . S
C520 H511 0.950 . S
C520 C519 1.398 . S
C520 C521 1.391 . S
C521 H509 0.950 . S
C521 C517 1.393 . S
C521 C520 1.391 . S
C522 H512 0.950 . S
C522 C523 1.386 . S
C522 C524 1.391 . S
C523 C522 1.386 . S
C523 C527 1.393 . S
C524 H513 0.950 . S
C524 C522 1.391 . S
C524 C525 1.400 . S
C525 C519 1.491 . S
C525 C524 1.400 . S
C525 C526 1.398 . S
C526 H514 0.950 . S
C526 C525 1.398 . S
C526 C527 1.391 . S
C527 H515 0.950 . S
C527 C523 1.393 . S
C527 C526 1.391 . S
H528 C536 0.950 . S
H529 C541 0.950 . S
H530 C538 0.950 . S
H531 C540 0.950 . S
H532 C542 0.950 . S
H533 C544 0.950 . S
H534 C546 0.950 . S
H535 C547 0.950 . S
C536 H528 0.950 . S
C536 C537 1.386 . S
C536 C538 1.391 . S
C537 C536 1.386 . S
C537 C541 1.393 . S
C538 H530 0.950 . S
C538 C536 1.391 . S
C538 C539 1.400 . S
C539 C538 1.400 . S
C539 C540 1.398 . S
C539 C545 1.491 . S
C540 H531 0.950 . S
C540 C539 1.398 . S
C540 C541 1.391 . S
C541 H529 0.950 . S
C541 C537 1.393 . S
C541 C540 1.391 . S
C542 H532 0.950 . S
C542 C543 1.386 . S
C542 C544 1.391 . S
C543 C542 1.386 . S
C543 C547 1.393 . S
C544 H533 0.950 . S
C544 C542 1.391 . S
C544 C545 1.400 . S
C545 C539 1.491 . S
C545 C544 1.400 . S
C545 C546 1.398 . S
C546 H534 0.950 . S
C546 C545 1.398 . S
C546 C547 1.391 . S
C547 H535 0.950 . S
C547 C543 1.393 . S
C547 C546 1.391 . S
H548 C556 0.950 . S
H549 C561 0.950 . S
H550 C558 0.950 . S
H551 C560 0.950 . S
H552 C562 0.950 . S
H553 C564 0.950 . S
H554 C566 0.950 . S
H555 C567 0.950 . S
C556 H548 0.950 . S
C556 C557 1.386 . S
C556 C558 1.391 . S
C557 C556 1.386 . S
C557 C561 1.393 . S
C558 H550 0.950 . S
C558 C556 1.391 . S
C558 C559 1.400 . S
C559 C558 1.400 . S
C559 C560 1.398 . S
C559 C565 1.491 . S
C560 H551 0.950 . S
C560 C559 1.398 . S
C560 C561 1.391 . S
C561 H549 0.950 . S
C561 C557 1.393 . S
C561 C560 1.391 . S
C562 H552 0.950 . S
C562 C563 1.386 . S
C562 C564 1.391 . S
C563 C562 1.386 . S
C563 C567 1.393 . S
C564 H553 0.950 . S
C564 C562 1.391 . S
C564 C565 1.400 . S
C565 C559 1.491 . S
C565 C564 1.400 . S
C565 C566 1.398 . S
C566 H554 0.950 . S
C566 C565 1.398 . S
C566 C567 1.391 . S
C567 H555 0.950 . S
C567 C563 1.393 . S
C567 C566 1.391 . S
H568 C576 0.950 . S
H569 C581 0.950 . S
H570 C578 0.950 . S
H571 C580 0.950 . S
H572 C582 0.950 . S
H573 C584 0.950 . S
H574 C586 0.950 . S
H575 C587 0.950 . S
C576 H568 0.950 . S
C576 C577 1.386 . S
C576 C578 1.391 . S
C577 C576 1.386 . S
C577 C581 1.393 . S
C578 H570 0.950 . S
C578 C576 1.391 . S
C578 C579 1.400 . S
C579 C578 1.400 . S
C579 C580 1.398 . S
C579 C585 1.491 . S
C580 H571 0.950 . S
C580 C579 1.398 . S
C580 C581 1.391 . S
C581 H569 0.950 . S
C581 C577 1.393 . S
C581 C580 1.391 . S
C582 H572 0.950 . S
C582 C583 1.386 . S
C582 C584 1.391 . S
C583 C582 1.386 . S
C583 C587 1.393 . S
C584 H573 0.950 . S
C584 C582 1.391 . S
C584 C585 1.400 . S
C585 C579 1.491 . S
C585 C584 1.400 . S
C585 C586 1.398 . S
C586 H574 0.950 . S
C586 C585 1.398 . S
C586 C587 1.391 . S
C587 H575 0.950 . S
C587 C583 1.393 . S
C587 C586 1.391 . S
H588 C596 0.950 . S
H589 C601 0.950 . S
H590 C598 0.950 . S
H591 C600 0.950 . S
H592 C602 0.950 . S
H593 C604 0.950 . S
H594 C606 0.950 . S
H595 C607 0.950 . S
C596 H588 0.950 . S
C596 C597 1.386 . S
C596 C598 1.391 . S
C597 C596 1.386 . S
C597 C601 1.393 . S
C598 H590 0.950 . S
C598 C596 1.391 . S
C598 C599 1.400 . S
C599 C598 1.400 . S
C599 C600 1.398 . S
C599 C605 1.491 . S
C600 H591 0.950 . S
C600 C599 1.398 . S
C600 C601 1.391 . S
C601 H589 0.950 . S
C601 C597 1.393 . S
C601 C600 1.391 . S
C602 H592 0.950 . S
C602 C603 1.386 . S
C602 C604 1.391 . S
C603 C602 1.386 . S
C603 C607 1.393 . S
C604 H593 0.950 . S
C604 C602 1.391 . S
C604 C605 1.400 . S
C605 C599 1.491 . S
C605 C604 1.400 . S
C605 C606 1.398 . S
C606 H594 0.950 . S
C606 C605 1.398 . S
C606 C607 1.391 . S
C607 H595 0.950 . S
C607 C603 1.393 . S
C607 C606 1.391 . S
H608 C616 0.950 . S
H609 C621 0.950 . S
H610 C618 0.950 . S
H611 C620 0.950 . S
H612 C622 0.950 . S
H613 C624 0.950 . S
H614 C626 0.950 . S
H615 C627 0.950 . S
C616 H608 0.950 . S
C616 C617 1.386 . S
C616 C618 1.391 . S
C617 C616 1.386 . S
C617 C621 1.393 . S
C618 H610 0.950 . S
C618 C616 1.391 . S
C618 C619 1.400 . S
C619 C618 1.400 . S
C619 C620 1.398 . S
C619 C625 1.491 . S
C620 H611 0.950 . S
C620 C619 1.398 . S
C620 C621 1.391 . S
C621 H609 0.950 . S
C621 C617 1.393 . S
C621 C620 1.391 . S
C622 H612 0.950 . S
C622 C623 1.386 . S
C622 C624 1.391 . S
C623 C622 1.386 . S
C623 C627 1.393 . S
C624 H613 0.950 . S
C624 C622 1.391 . S
C624 C625 1.400 . S
C625 C619 1.491 . S
C625 C624 1.400 . S
C625 C626 1.398 . S
C626 H614 0.950 . S
C626 C625 1.398 . S
C626 C627 1.391 . S
C627 H615 0.950 . S
C627 C623 1.393 . S
C627 C626 1.391 . S
H628 C636 0.950 . S
H629 C641 0.950 . S
H630 C638 0.950 . S
H631 C640 0.950 . S
H632 C642 0.950 . S
H633 C644 0.950 . S
H634 C646 0.950 . S
H635 C647 0.950 . S
C636 H628 0.950 . S
C636 C637 1.386 . S
C636 C638 1.391 . S
C637 C636 1.386 . S
C637 C641 1.393 . S
C638 H630 0.950 . S
C638 C636 1.391 . S
C638 C639 1.400 . S
C639 C638 1.400 . S
C639 C640 1.398 . S
C639 C645 1.491 . S
C640 H631 0.950 . S
C640 C639 1.398 . S
C640 C641 1.391 . S
C641 H629 0.950 . S
C641 C637 1.393 . S
C641 C640 1.391 . S
C642 H632 0.950 . S
C642 C643 1.386 . S
C642 C644 1.391 . S
C643 C642 1.386 . S
C643 C647 1.393 . S
C644 H633 0.950 . S
C644 C642 1.391 . S
C644 C645 1.400 . S
C645 C639 1.491 . S
C645 C644 1.400 . S
C645 C646 1.398 . S
C646 H634 0.950 . S
C646 C645 1.398 . S
C646 C647 1.391 . S
C647 H635 0.950 . S
C647 C643 1.393 . S
C647 C646 1.391 . S
H648 C656 0.950 . S
H649 C661 0.950 . S
H650 C658 0.950 . S
H651 C660 0.950 . S
H652 C662 0.950 . S
H653 C664 0.950 . S
H654 C666 0.950 . S
H655 C667 0.950 . S
C656 H648 0.950 . S
C656 C657 1.386 . S
C656 C658 1.391 . S
C657 C656 1.386 . S
C657 C661 1.393 . S
C658 H650 0.950 . S
C658 C656 1.391 . S
C658 C659 1.400 . S
C659 C658 1.400 . S
C659 C660 1.398 . S
C659 C665 1.491 . S
C660 H651 0.950 . S
C660 C659 1.398 . S
C660 C661 1.391 . S
C661 H649 0.950 . S
C661 C657 1.393 . S
C661 C660 1.391 . S
C662 H652 0.950 . S
C662 C663 1.386 . S
C662 C664 1.391 . S
C663 C662 1.386 . S
C663 C667 1.393 . S
C664 H653 0.950 . S
C664 C662 1.391 . S
C664 C665 1.400 . S
C665 C659 1.491 . S
C665 C664 1.400 . S
C665 C666 1.398 . S
C666 H654 0.950 . S
C666 C665 1.398 . S
C666 C667 1.391 . S
C667 H655 0.950 . S
C667 C663 1.393 . S
C667 C666 1.391 . S
H668 C676 0.950 . S
H669 C681 0.950 . S
H670 C678 0.950 . S
H671 C680 0.950 . S
H672 C682 0.950 . S
H673 C684 0.950 . S
H674 C686 0.950 . S
H675 C687 0.950 . S
C676 H668 0.950 . S
C676 C677 1.386 . S
C676 C678 1.391 . S
C677 C676 1.386 . S
C677 C681 1.393 . S
C678 H670 0.950 . S
C678 C676 1.391 . S
C678 C679 1.400 . S
C679 C678 1.400 . S
C679 C680 1.398 . S
C679 C685 1.491 . S
C680 H671 0.950 . S
C680 C679 1.398 . S
C680 C681 1.391 . S
C681 H669 0.950 . S
C681 C677 1.393 . S
C681 C680 1.391 . S
C682 H672 0.950 . S
C682 C683 1.386 . S
C682 C684 1.391 . S
C683 C682 1.386 . S
C683 C687 1.393 . S
C684 H673 0.950 . S
C684 C682 1.391 . S
C684 C685 1.400 . S
C685 C679 1.491 . S
C685 C684 1.400 . S
C685 C686 1.398 . S
C686 H674 0.950 . S
C686 C685 1.398 . S
C686 C687 1.391 . S
C687 H675 0.950 . S
C687 C683 1.393 . S
C687 C686 1.391 . S
H688 C696 0.950 . S
H689 C701 0.950 . S
H690 C698 0.950 . S
H691 C700 0.950 . S
H692 C702 0.950 . S
H693 C704 0.950 . S
H694 C706 0.950 . S
H695 C707 0.950 . S
C696 H688 0.950 . S
C696 C697 1.386 . S
C696 C698 1.391 . S
C697 C696 1.386 . S
C697 C701 1.393 . S
C698 H690 0.950 . S
C698 C696 1.391 . S
C698 C699 1.400 . S
C699 C698 1.400 . S
C699 C700 1.398 . S
C699 C705 1.491 . S
C700 H691 0.950 . S
C700 C699 1.398 . S
C700 C701 1.391 . S
C701 H689 0.950 . S
C701 C697 1.393 . S
C701 C700 1.391 . S
C702 H692 0.950 . S
C702 C703 1.386 . S
C702 C704 1.391 . S
C703 C702 1.386 . S
C703 C707 1.393 . S
C704 H693 0.950 . S
C704 C702 1.391 . S
C704 C705 1.400 . S
C705 C699 1.491 . S
C705 C704 1.400 . S
C705 C706 1.398 . S
C706 H694 0.950 . S
C706 C705 1.398 . S
C706 C707 1.391 . S
C707 H695 0.950 . S
C707 C703 1.393 . S
C707 C706 1.391 . S
H708 C716 0.950 . S
H709 C721 0.950 . S
H710 C718 0.950 . S
H711 C720 0.950 . S
H712 C722 0.950 . S
H713 C724 0.950 . S
H714 C726 0.950 . S
H715 C727 0.950 . S
C716 H708 0.950 . S
C716 C717 1.386 . S
C716 C718 1.391 . S
C717 C716 1.386 . S
C717 C721 1.393 . S
C718 H710 0.950 . S
C718 C716 1.391 . S
C718 C719 1.400 . S
C719 C718 1.400 . S
C719 C720 1.398 . S
C719 C725 1.491 . S
C720 H711 0.950 . S
C720 C719 1.398 . S
C720 C721 1.391 . S
C721 H709 0.950 . S
C721 C717 1.393 . S
C721 C720 1.391 . S
C722 H712 0.950 . S
C722 C723 1.386 . S
C722 C724 1.391 . S
C723 C722 1.386 . S
C723 C727 1.393 . S
C724 H713 0.950 . S
C724 C722 1.391 . S
C724 C725 1.400 . S
C725 C719 1.491 . S
C725 C724 1.400 . S
C725 C726 1.398 . S
C726 H714 0.950 . S
C726 C725 1.398 . S
C726 C727 1.391 . S
C727 H715 0.950 . S
C727 C723 1.393 . S
C727 C726 1.391 . S
H728 C736 0.950 . S
H729 C741 0.950 . S
H730 C738 0.950 . S
H731 C740 0.950 . S
H732 C742 0.950 . S
H733 C744 0.950 . S
H734 C746 0.950 . S
H735 C747 0.950 . S
C736 H728 0.950 . S
C736 C737 1.386 . S
C736 C738 1.391 . S
C737 C736 1.386 . S
C737 C741 1.393 . S
C738 H730 0.950 . S
C738 C736 1.391 . S
C738 C739 1.400 . S
C739 C738 1.400 . S
C739 C740 1.398 . S
C739 C745 1.491 . S
C740 H731 0.950 . S
C740 C739 1.398 . S
C740 C741 1.391 . S
C741 H729 0.950 . S
C741 C737 1.393 . S
C741 C740 1.391 . S
C742 H732 0.950 . S
C742 C743 1.386 . S
C742 C744 1.391 . S
C743 C742 1.386 . S
C743 C747 1.393 . S
C744 H733 0.950 . S
C744 C742 1.391 . S
C744 C745 1.400 . S
C745 C739 1.491 . S
C745 C744 1.400 . S
C745 C746 1.398 . S
C746 H734 0.950 . S
C746 C745 1.398 . S
C746 C747 1.391 . S
C747 H735 0.950 . S
C747 C743 1.393 . S
C747 C746 1.391 . S
H748 C756 0.950 . S
H749 C761 0.950 . S
H750 C758 0.950 . S
H751 C760 0.950 . S
H752 C762 0.950 . S
H753 C764 0.950 . S
H754 C766 0.950 . S
H755 C767 0.950 . S
C756 H748 0.950 . S
C756 C757 1.386 . S
C756 C758 1.391 . S
C757 C756 1.386 . S
C757 C761 1.393 . S
C758 H750 0.950 . S
C758 C756 1.391 . S
C758 C759 1.400 . S
C759 C758 1.400 . S
C759 C760 1.398 . S
C759 C765 1.491 . S
C760 H751 0.950 . S
C760 C759 1.398 . S
C760 C761 1.391 . S
C761 H749 0.950 . S
C761 C757 1.393 . S
C761 C760 1.391 . S
C762 H752 0.950 . S
C762 C763 1.386 . S
C762 C764 1.391 . S
C763 C762 1.386 . S
C763 C767 1.393 . S
C764 H753 0.950 . S
C764 C762 1.391 . S
C764 C765 1.400 . S
C765 C759 1.491 . S
C765 C764 1.400 . S
C765 C766 1.398 . S
C766 H754 0.950 . S
C766 C765 1.398 . S
C766 C767 1.391 . S
C767 H755 0.950 . S
C767 C763 1.393 . S
C767 C766 1.391 . S
H768 C776 0.950 . S
H769 C781 0.950 . S
H770 C778 0.950 . S
H771 C780 0.950 . S
H772 C782 0.950 . S
H773 C784 0.950 . S
H774 C786 0.950 . S
H775 C787 0.950 . S
C776 H768 0.950 . S
C776 C777 1.386 . S
C776 C778 1.391 . S
C777 C776 1.386 . S
C777 C781 1.393 . S
C778 H770 0.950 . S
C778 C776 1.391 . S
C778 C779 1.400 . S
C779 C778 1.400 . S
C779 C780 1.398 . S
C779 C785 1.491 . S
C780 H771 0.950 . S
C780 C779 1.398 . S
C780 C781 1.391 . S
C781 H769 0.950 . S
C781 C777 1.393 . S
C781 C780 1.391 . S
C782 H772 0.950 . S
C782 C783 1.386 . S
C782 C784 1.391 . S
C783 C782 1.386 . S
C783 C787 1.393 . S
C784 H773 0.950 . S
C784 C782 1.391 . S
C784 C785 1.400 . S
C785 C779 1.491 . S
C785 C784 1.400 . S
C785 C786 1.398 . S
C786 H774 0.950 . S
C786 C785 1.398 . S
C786 C787 1.391 . S
C787 H775 0.950 . S
C787 C783 1.393 . S
C787 C786 1.391 . S
H788 C796 0.950 . S
H789 C801 0.950 . S
H790 C798 0.950 . S
H791 C800 0.950 . S
H792 C802 0.950 . S
H793 C804 0.950 . S
H794 C806 0.950 . S
H795 C807 0.950 . S
C796 H788 0.950 . S
C796 C797 1.386 . S
C796 C798 1.391 . S
C797 C796 1.386 . S
C797 C801 1.393 . S
C798 H790 0.950 . S
C798 C796 1.391 . S
C798 C799 1.400 . S
C799 C798 1.400 . S
C799 C800 1.398 . S
C799 C805 1.491 . S
C800 H791 0.950 . S
C800 C799 1.398 . S
C800 C801 1.391 . S
C801 H789 0.950 . S
C801 C797 1.393 . S
C801 C800 1.391 . S
C802 H792 0.950 . S
C802 C803 1.386 . S
C802 C804 1.391 . S
C803 C802 1.386 . S
C803 C807 1.393 . S
C804 H793 0.950 . S
C804 C802 1.391 . S
C804 C805 1.400 . S
C805 C799 1.491 . S
C805 C804 1.400 . S
C805 C806 1.398 . S
C806 H794 0.950 . S
C806 C805 1.398 . S
C806 C807 1.391 . S
C807 H795 0.950 . S
C807 C803 1.393 . S
C807 C806 1.391 . S
H808 C816 0.950 . S
H809 C821 0.950 . S
H810 C818 0.950 . S
H811 C820 0.950 . S
H812 C822 0.950 . S
H813 C824 0.950 . S
H814 C826 0.950 . S
H815 C827 0.950 . S
C816 H808 0.950 . S
C816 C817 1.386 . S
C816 C818 1.391 . S
C817 C816 1.386 . S
C817 C821 1.393 . S
C818 H810 0.950 . S
C818 C816 1.391 . S
C818 C819 1.400 . S
C819 C818 1.400 . S
C819 C820 1.398 . S
C819 C825 1.491 . S
C820 H811 0.950 . S
C820 C819 1.398 . S
C820 C821 1.391 . S
C821 H809 0.950 . S
C821 C817 1.393 . S
C821 C820 1.391 . S
C822 H812 0.950 . S
C822 C823 1.386 . S
C822 C824 1.391 . S
C823 C822 1.386 . S
C823 C827 1.393 . S
C824 H813 0.950 . S
C824 C822 1.391 . S
C824 C825 1.400 . S
C825 C819 1.491 . S
C825 C824 1.400 . S
C825 C826 1.398 . S
C826 H814 0.950 . S
C826 C825 1.398 . S
C826 C827 1.391 . S
C827 H815 0.950 . S
C827 C823 1.393 . S
C827 C826 1.391 . S
H828 C836 0.950 . S
H829 C841 0.950 . S
H830 C838 0.950 . S
H831 C840 0.950 . S
H832 C842 0.950 . S
H833 C844 0.950 . S
H834 C846 0.950 . S
H835 C847 0.950 . S
C836 H828 0.950 . S
C836 C837 1.386 . S
C836 C838 1.391 . S
C837 C836 1.386 . S
C837 C841 1.393 . S
C838 H830 0.950 . S
C838 C836 1.391 . S
C838 C839 1.400 . S
C839 C838 1.400 . S
C839 C840 1.398 . S
C839 C845 1.491 . S
C840 H831 0.950 . S
C840 C839 1.398 . S
C840 C841 1.391 . S
C841 H829 0.950 . S
C841 C837 1.393 . S
C841 C840 1.391 . S
C842 H832 0.950 . S
C842 C843 1.386 . S
C842 C844 1.391 . S
C843 C842 1.386 . S
C843 C847 1.393 . S
C844 H833 0.950 . S
C844 C842 1.391 . S
C844 C845 1.400 . S
C845 C839 1.491 . S
C845 C844 1.400 . S
C845 C846 1.398 . S
C846 H834 0.950 . S
C846 C845 1.398 . S
C846 C847 1.391 . S
C847 H835 0.950 . S
C847 C843 1.393 . S
C847 C846 1.391 . S
H848 C856 0.950 . S
H849 C861 0.950 . S
H850 C858 0.950 . S
H851 C860 0.950 . S
H852 C862 0.950 . S
H853 C864 0.950 . S
H854 C866 0.950 . S
H855 C867 0.950 . S
C856 H848 0.950 . S
C856 C857 1.386 . S
C856 C858 1.391 . S
C857 C856 1.386 . S
C857 C861 1.393 . S
C858 H850 0.950 . S
C858 C856 1.391 . S
C858 C859 1.400 . S
C859 C858 1.400 . S
C859 C860 1.398 . S
C859 C865 1.491 . S
C860 H851 0.950 . S
C860 C859 1.398 . S
C860 C861 1.391 . S
C861 H849 0.950 . S
C861 C857 1.393 . S
C861 C860 1.391 . S
C862 H852 0.950 . S
C862 C863 1.386 . S
C862 C864 1.391 . S
C863 C862 1.386 . S
C863 C867 1.393 . S
C864 H853 0.950 . S
C864 C862 1.391 . S
C864 C865 1.400 . S
C865 C859 1.491 . S
C865 C864 1.400 . S
C865 C866 1.398 . S
C866 H854 0.950 . S
C866 C865 1.398 . S
C866 C867 1.391 . S
C867 H855 0.950 . S
C867 C863 1.393 . S
C867 C866 1.391 . S
H868 C876 0.950 . S
H869 C881 0.950 . S
H870 C878 0.950 . S
H871 C880 0.950 . S
H872 C882 0.950 . S
H873 C884 0.950 . S
H874 C886 0.950 . S
H875 C887 0.950 . S
C876 H868 0.950 . S
C876 C877 1.386 . S
C876 C878 1.391 . S
C877 C876 1.386 . S
C877 C881 1.393 . S
C878 H870 0.950 . S
C878 C876 1.391 . S
C878 C879 1.400 . S
C879 C878 1.400 . S
C879 C880 1.398 . S
C879 C885 1.491 . S
C880 H871 0.950 . S
C880 C879 1.398 . S
C880 C881 1.391 . S
C881 H869 0.950 . S
C881 C877 1.393 . S
C881 C880 1.391 . S
C882 H872 0.950 . S
C882 C883 1.386 . S
C882 C884 1.391 . S
C883 C882 1.386 . S
C883 C887 1.393 . S
C884 H873 0.950 . S
C884 C882 1.391 . S
C884 C885 1.400 . S
C885 C879 1.491 . S
C885 C884 1.400 . S
C885 C886 1.398 . S
C886 H874 0.950 . S
C886 C885 1.398 . S
C886 C887 1.391 . S
C887 H875 0.950 . S
C887 C883 1.393 . S
C887 C886 1.391 . S
H888 C896 0.950 . S
H889 C901 0.950 . S
H890 C898 0.950 . S
H891 C900 0.950 . S
H892 C902 0.950 . S
H893 C904 0.950 . S
H894 C906 0.950 . S
H895 C907 0.950 . S
C896 H888 0.950 . S
C896 C897 1.386 . S
C896 C898 1.391 . S
C897 C896 1.386 . S
C897 C901 1.393 . S
C898 H890 0.950 . S
C898 C896 1.391 . S
C898 C899 1.400 . S
C899 C898 1.400 . S
C899 C900 1.398 . S
C899 C905 1.491 . S
C900 H891 0.950 . S
C900 C899 1.398 . S
C900 C901 1.391 . S
C901 H889 0.950 . S
C901 C897 1.393 . S
C901 C900 1.391 . S
C902 H892 0.950 . S
C902 C903 1.386 . S
C902 C904 1.391 . S
C903 C902 1.386 . S
C903 C907 1.393 . S
C904 H893 0.950 . S
C904 C902 1.391 . S
C904 C905 1.400 . S
C905 C899 1.491 . S
C905 C904 1.400 . S
C905 C906 1.398 . S
C906 H894 0.950 . S
C906 C905 1.398 . S
C906 C907 1.391 . S
C907 H895 0.950 . S
C907 C903 1.393 . S
C907 C906 1.391 . S
H908 C916 0.950 . S
H909 C921 0.950 . S
H910 C918 0.950 . S
H911 C920 0.950 . S
H912 C922 0.950 . S
H913 C924 0.950 . S
H914 C926 0.950 . S
H915 C927 0.950 . S
C916 H908 0.950 . S
C916 C917 1.386 . S
C916 C918 1.391 . S
C917 C916 1.386 . S
C917 C921 1.393 . S
C918 H910 0.950 . S
C918 C916 1.391 . S
C918 C919 1.400 . S
C919 C918 1.400 . S
C919 C920 1.398 . S
C919 C925 1.491 . S
C920 H911 0.950 . S
C920 C919 1.398 . S
C920 C921 1.391 . S
C921 H909 0.950 . S
C921 C917 1.393 . S
C921 C920 1.391 . S
C922 H912 0.950 . S
C922 C923 1.386 . S
C922 C924 1.391 . S
C923 C922 1.386 . S
C923 C927 1.393 . S
C924 H913 0.950 . S
C924 C922 1.391 . S
C924 C925 1.400 . S
C925 C919 1.491 . S
C925 C924 1.400 . S
C925 C926 1.398 . S
C926 H914 0.950 . S
C926 C925 1.398 . S
C926 C927 1.391 . S
C927 H915 0.950 . S
C927 C923 1.393 . S
C927 C926 1.391 . S
C457 C1 1.277 . S
C463 C295 1.299 . S
C477 C67 0.988 . S
C483 C344 0.982 . S
C503 C370 2.432 . S
C497 C97 2.452 . S
C517 C133 2.387 . S
C523 C418 2.323 . S
C543 C330 2.509 . S
C537 C25 2.435 . S
C563 C298 0.903 . S
C557 C37 0.907 . S
C583 C419 1.891 . S
C577 C103 1.925 . S
C603 C387 1.568 . S
C597 C109 1.594 . S
C617 C31 1.713 . S
C623 C415 1.770 . S
C643 C347 2.308 . S
C637 C73 2.375 . S
C657 C139 2.344 . S
C663 C299 2.339 . S
C677 C61 0.872 . S
C683 C384 0.872 . S
C703 C304 1.308 . S
C697 C175 1.241 . S
C717 C181 0.977 . S
C723 C335 0.984 . S
C737 C247 2.476 . S
C743 C379 2.449 . S
C757 C277 2.373 . S
C763 C427 2.309 . S
C777 C145 2.327 . S
C783 C339 2.495 . S
C803 C307 0.877 . S
C797 C211 0.903 . S
C823 C410 1.888 . S
C817 C217 1.906 . S
C843 C378 1.577 . S
C837 C283 1.609 . S
C857 C169 1.651 . S
C863 C424 1.764 . S
C883 C338 2.315 . S
C877 C241 2.381 . S
C903 C290 2.329 . S
C897 C253 2.335 . S
C917 C205 0.906 . S
C923 C375 0.908 . S
