# Generated by pormake.
# Topology pyr, (3,6)-cn, num edge types: 1
# Building blocks:
#     Node 0, Type 0, BuildingBlock: CUQRIR_clean_linker_1, # of connection points: 3
#     Node 1, Type 0, BuildingBlock: CUQRIR_clean_linker_1, # of connection points: 3
#     Node 2, Type 0, BuildingBlock: CUQRIR_clean_linker_1, # of connection points: 3
#     Node 3, Type 0, BuildingBlock: CUQRIR_clean_linker_1, # of connection points: 3
#     Node 4, Type 0, BuildingBlock: CUQRIR_clean_linker_1, # of connection points: 3
#     Node 5, Type 0, BuildingBlock: CUQRIR_clean_linker_1, # of connection points: 3
#     Node 6, Type 0, BuildingBlock: CUQRIR_clean_linker_1, # of connection points: 3
#     Node 7, Type 0, BuildingBlock: CUQRIR_clean_linker_1, # of connection points: 3
#     Node 8, Type 1, BuildingBlock: INOVEN_clean_sbu_0, # of connection points: 6
#     Node 9, Type 1, BuildingBlock: INOVEN_clean_sbu_0, # of connection points: 6
#     Node 10, Type 1, BuildingBlock: INOVEN_clean_sbu_0, # of connection points: 6
#     Node 11, Type 1, BuildingBlock: INOVEN_clean_sbu_0, # of connection points: 6
#     Edge 12, Type (0, 1), BuildingBlock: UVAHIK_clean_linker_0, # of connection points: 2
#     Edge 13, Type (0, 1), BuildingBlock: UVAHIK_clean_linker_0, # of connection points: 2
#     Edge 14, Type (0, 1), BuildingBlock: UVAHIK_clean_linker_0, # of connection points: 2
#     Edge 15, Type (0, 1), BuildingBlock: UVAHIK_clean_linker_0, # of connection points: 2
#     Edge 16, Type (0, 1), BuildingBlock: UVAHIK_clean_linker_0, # of connection points: 2
#     Edge 17, Type (0, 1), BuildingBlock: UVAHIK_clean_linker_0, # of connection points: 2
#     Edge 18, Type (0, 1), BuildingBlock: UVAHIK_clean_linker_0, # of connection points: 2
#     Edge 19, Type (0, 1), BuildingBlock: UVAHIK_clean_linker_0, # of connection points: 2
#     Edge 20, Type (0, 1), BuildingBlock: UVAHIK_clean_linker_0, # of connection points: 2
#     Edge 21, Type (0, 1), BuildingBlock: UVAHIK_clean_linker_0, # of connection points: 2
#     Edge 22, Type (0, 1), BuildingBlock: UVAHIK_clean_linker_0, # of connection points: 2
#     Edge 23, Type (0, 1), BuildingBlock: UVAHIK_clean_linker_0, # of connection points: 2
#     Edge 24, Type (0, 1), BuildingBlock: UVAHIK_clean_linker_0, # of connection points: 2
#     Edge 25, Type (0, 1), BuildingBlock: UVAHIK_clean_linker_0, # of connection points: 2
#     Edge 26, Type (0, 1), BuildingBlock: UVAHIK_clean_linker_0, # of connection points: 2
#     Edge 27, Type (0, 1), BuildingBlock: UVAHIK_clean_linker_0, # of connection points: 2
#     Edge 28, Type (0, 1), BuildingBlock: UVAHIK_clean_linker_0, # of connection points: 2
#     Edge 29, Type (0, 1), BuildingBlock: UVAHIK_clean_linker_0, # of connection points: 2
#     Edge 30, Type (0, 1), BuildingBlock: UVAHIK_clean_linker_0, # of connection points: 2
#     Edge 31, Type (0, 1), BuildingBlock: UVAHIK_clean_linker_0, # of connection points: 2
#     Edge 32, Type (0, 1), BuildingBlock: UVAHIK_clean_linker_0, # of connection points: 2
#     Edge 33, Type (0, 1), BuildingBlock: UVAHIK_clean_linker_0, # of connection points: 2
#     Edge 34, Type (0, 1), BuildingBlock: UVAHIK_clean_linker_0, # of connection points: 2
#     Edge 35, Type (0, 1), BuildingBlock: UVAHIK_clean_linker_0, # of connection points: 2
# Relax obj value: 0.152
# Max RMSD: 0.247
# Mean RMSD: 0.165
data_MOF--net-pyr--node1-INOVEN_clean_sbu_0--node2-CUQRIR_clean_linker_1--edge1-UVAHIK_clean_linker_0
_symmetry_space_group_name_H-M    P1
_symmetry_Int_Tables_number       1
_symmetry_cell_setting            triclinic
loop_
_symmetry_equiv_pos_as_xyz
'x, y, z'
_cell_length_a     46.470464
_cell_length_b     48.861928
_cell_length_c     43.072653
_cell_angle_alpha  90.042533
_cell_angle_beta   89.548269
_cell_angle_gamma 104.6347
loop_
_atom_site_label
_atom_site_type_symbol
_atom_site_fract_x
_atom_site_fract_y
_atom_site_fract_z
_atom_type_partial_charge
C0 C 0.32388 0.33799 0.20063 0.0
N1 N 0.33759 0.31749 0.20775 0.0
N2 N 0.33418 0.35041 0.17325 0.0
C3 C 0.29768 0.34335 0.21834 0.0
C4 C 0.35432 0.3363 0.16371 0.0
N5 N 0.35626 0.31607 0.18463 0.0
C6 C 0.37287 0.34325 0.13468 0.0
H7 H 0.28124 0.34852 0.2023 0.0
H8 H 0.30572 0.36162 0.23408 0.0
H9 H 0.28618 0.32484 0.23253 0.0
H10 H 0.37595 0.36582 0.12832 0.0
H11 H 0.36135 0.33009 0.11528 0.0
H12 H 0.39492 0.33877 0.13781 0.0
C13 C 0.3243 0.93069 0.59957 0.0
N14 N 0.31767 0.94563 0.62382 0.0
N15 N 0.34955 0.92266 0.60511 0.0
C16 C 0.30687 0.925 0.56994 0.0
C17 C 0.35803 0.93318 0.63364 0.0
N18 N 0.33881 0.94756 0.64486 0.0
C19 C 0.38313 0.92678 0.65177 0.0
H20 H 0.28807 0.90603 0.57319 0.0
H21 H 0.32098 0.92102 0.55041 0.0
H22 H 0.29755 0.94311 0.564 0.0
H23 H 0.38745 0.90643 0.64436 0.0
H24 H 0.37814 0.92575 0.67704 0.0
H25 H 0.4036 0.94387 0.64759 0.0
C26 C 0.6329 0.37195 0.85582 0.0
N27 N 0.65001 0.36884 0.88042 0.0
N28 N 0.64115 0.39872 0.84446 0.0
C29 C 0.60643 0.34969 0.84455 0.0
C30 C 0.66377 0.41186 0.86315 0.0
N31 N 0.66902 0.39387 0.8851 0.0
C32 C 0.68165 0.44196 0.85914 0.0
H33 H 0.61404 0.33609 0.82734 0.0
H34 H 0.59009 0.35942 0.83317 0.0
H35 H 0.59527 0.33618 0.86405 0.0
H36 H 0.67195 0.45582 0.8742 0.0
H37 H 0.6812 0.44901 0.83471 0.0
H38 H 0.70507 0.44438 0.86618 0.0
C39 C 0.83848 0.69884 0.3611 0.0
N40 N 0.86327 0.71931 0.35342 0.0
N41 N 0.82226 0.70804 0.38322 0.0
C42 C 0.82957 0.67011 0.34614 0.0
C43 C 0.83809 0.73491 0.38877 0.0
N44 N 0.86289 0.74199 0.37056 0.0
C45 C 0.83027 0.75367 0.41351 0.0
H46 H 0.80508 0.66149 0.34687 0.0
H47 H 0.83998 0.65549 0.359 0.0
H48 H 0.83734 0.67096 0.32167 0.0
H49 H 0.81663 0.74096 0.43223 0.0
H50 H 0.81729 0.76739 0.40291 0.0
H51 H 0.85063 0.76745 0.42385 0.0
C52 C 0.68078 0.81719 0.88131 0.0
N53 N 0.70249 0.81135 0.86336 0.0
N54 N 0.66993 0.83765 0.86819 0.0
C55 C 0.6737 0.80641 0.91386 0.0
C56 C 0.68607 0.84412 0.8417 0.0
N57 N 0.70606 0.82837 0.83885 0.0
C58 C 0.68376 0.8675 0.81994 0.0
H59 H 0.67758 0.78504 0.9165 0.0
H60 H 0.65029 0.8057 0.91999 0.0
H61 H 0.68845 0.821 0.93017 0.0
H62 H 0.69783 0.88788 0.82854 0.0
H63 H 0.66045 0.86933 0.81911 0.0
H64 H 0.69143 0.86363 0.79626 0.0
C65 C 0.79542 0.27627 0.51075 0.0
N66 N 0.8025 0.26173 0.48639 0.0
N67 N 0.78052 0.29511 0.50103 0.0
C68 C 0.80269 0.27181 0.54399 0.0
C69 C 0.77854 0.29123 0.46986 0.0
N70 N 0.79224 0.27111 0.46092 0.0
C71 C 0.75981 0.30431 0.44892 0.0
H72 H 0.78539 0.25385 0.55372 0.0
H73 H 0.80322 0.29095 0.55807 0.0
H74 H 0.82446 0.26642 0.54549 0.0
H75 H 0.77371 0.32466 0.43986 0.0
H76 H 0.74065 0.30866 0.46173 0.0
H77 H 0.75118 0.29044 0.42892 0.0
C78 C 0.34834 0.7163 0.24274 0.0
N79 N 0.37314 0.73581 0.25186 0.0
N80 N 0.33324 0.72727 0.22125 0.0
C81 C 0.33808 0.68695 0.25609 0.0
C82 C 0.34972 0.75426 0.21773 0.0
N83 N 0.3738 0.75964 0.23655 0.0
C84 C 0.34356 0.77476 0.19413 0.0
H85 H 0.34829 0.6725 0.24251 0.0
H86 H 0.31353 0.6791 0.25492 0.0
H87 H 0.34509 0.68646 0.2806 0.0
H88 H 0.33065 0.76346 0.17436 0.0
H89 H 0.36459 0.78877 0.1851 0.0
H90 H 0.3305 0.7882 0.20539 0.0
C91 C 0.12512 0.38642 0.74692 0.0
N92 N 0.14479 0.38247 0.72488 0.0
N93 N 0.13609 0.41073 0.76301 0.0
C94 C 0.09594 0.36562 0.75396 0.0
C95 C 0.16326 0.4214 0.74978 0.0
N96 N 0.16876 0.40414 0.72691 0.0
C97 C 0.18323 0.45001 0.75726 0.0
H98 H 0.0894 0.36702 0.77863 0.0
H99 H 0.09719 0.34368 0.74889 0.0
H100 H 0.07851 0.37047 0.73905 0.0
H101 H 0.19943 0.44751 0.77514 0.0
H102 H 0.17021 0.46444 0.76644 0.0
H103 H 0.19578 0.45979 0.73636 0.0
Gd104 Gd 0.03582 0.07629 0.50272 0.0
Gd105 Gd 0.02477 0.04803 0.56531 0.0
C106 C 0.05219 0.11419 0.56502 0.0
C107 C 0.04308 0.10844 0.45415 0.0
C108 C 0.06967 0.12414 0.43675 0.0
C109 C 0.08941 0.11001 0.42304 0.0
C110 C 0.07606 0.15372 0.43469 0.0
C111 C 0.12171 0.15485 0.4059 0.0
C112 C 0.10185 0.16895 0.41951 0.0
C113 C 0.11506 0.12519 0.40771 0.0
C114 C 0.08102 0.0559 0.52433 0.0
C115 C 1.00363 1.01051 0.50243 0.0
C116 C 0.02274 1.01539 0.6128 0.0
C117 C 1.0004 0.99097 0.62534 0.0
C118 C 0.96997 0.9891 0.62192 0.0
C119 C 1.00935 0.96965 0.64142 0.0
C120 C 0.95755 0.9458 0.65262 0.0
C121 C 0.98812 0.94718 0.65486 0.0
C122 C 0.9488 0.9669 0.63561 0.0
C123 C 0.98074 0.07086 0.54689 0.0
O124 O 0.04103 0.11306 0.53669 0.0
O125 O 0.05389 0.09063 0.57922 0.0
O126 O 0.03693 0.08087 0.45276 0.0
O127 O 0.03957 0.11763 0.48207 0.0
O128 O 0.07505 0.05683 0.4952 0.0
O129 O 0.06505 0.06805 0.53963 0.0
O130 O 1.01121 1.01062 0.53205 0.0
O131 O 1.00678 1.03446 0.48698 0.0
O132 O 0.0156 0.03962 0.61402 0.0
O133 O 0.03526 1.01139 0.58642 0.0
O134 O 0.98788 0.06873 0.57561 0.0
O135 O 0.99487 0.0581 0.52941 0.0
H136 H 0.0852 0.0872 0.42423 0.0
H137 H 0.06127 0.16511 0.44519 0.0
H138 H 0.10645 0.1918 0.4189 0.0
H139 H 0.12955 0.1136 0.39704 0.0
H140 H 0.96255 1.00521 0.60932 0.0
H141 H 0.03276 0.97061 0.64398 0.0
H142 H 0.99569 0.93108 0.66729 0.0
H143 H 0.92559 0.96695 0.63374 0.0
Gd144 Gd 0.55727 0.07879 0.08926 0.0
Gd145 Gd 0.49561 0.05862 0.06938 0.0
C146 C 0.50574 0.10133 0.12402 0.0
C147 C 0.60988 0.10754 0.10539 0.0
C148 C 0.62668 0.11987 0.13324 0.0
C149 C 0.63924 0.10317 0.15295 0.0
C150 C 0.63202 0.149 0.13916 0.0
C151 C 0.66216 0.14449 0.18391 0.0
C152 C 0.64949 0.16116 0.16428 0.0
C153 C 0.65672 0.11533 0.17804 0.0
C154 C 0.52837 1.02925 0.11695 0.0
C155 C 0.54653 0.03575 0.03446 0.0
C156 C 0.44362 1.03109 0.05033 0.0
C157 C 0.4298 1.02567 1.01961 0.0
C158 C 0.43925 0.04491 0.99517 0.0
C159 C 0.4073 1.00099 1.01443 0.0
C160 C 0.40353 1.01495 0.96066 0.0
C161 C 0.3943 0.9956 0.98513 0.0
C162 C 0.42611 0.03967 0.966 0.0
C163 C 0.52555 0.10766 0.04103 0.0
O164 O 0.53378 0.10759 0.11472 0.0
O165 O 0.48708 0.07796 0.11442 0.0
O166 O 0.60215 0.07999 0.10322 0.0
O167 O 0.58923 0.11923 0.09559 0.0
O168 O 0.55596 0.03563 0.10838 0.0
O169 O 0.51738 0.05006 0.1124 0.0
O170 O 0.51864 1.02937 0.04414 0.0
O171 O 0.56543 0.05883 0.04446 0.0
O172 O 0.44969 0.05731 0.05975 0.0
O173 O 0.4651 1.01898 0.05587 0.0
O174 O 0.49783 0.10185 0.04899 0.0
O175 O 0.53564 0.08654 0.04624 0.0
H176 H 0.63598 0.08073 0.14878 0.0
H177 H 0.62295 0.16248 0.12416 0.0
H178 H 0.65298 0.18363 0.16838 0.0
H179 H 0.66651 0.10198 0.19243 0.0
H180 H 0.45687 0.06394 0.99859 0.0
H181 H 0.39983 0.98588 0.03303 0.0
H182 H 0.37688 0.97643 0.98168 0.0
H183 H 0.43401 0.05472 0.94746 0.0
Gd184 Gd 0.49118 0.52966 0.5232 0.0
Gd185 Gd 0.4901 0.57499 0.56666 0.0
C186 C 0.51568 0.52687 0.59371 0.0
C187 C 0.5062 0.49001 0.49257 0.0
C188 C 0.52686 0.47279 0.50054 0.0
C189 C 0.5186 0.4435 0.49572 0.0
C190 C 0.5539 0.48511 0.51529 0.0
C191 C 0.56423 0.43898 0.52027 0.0
C192 C 0.57244 0.4684 0.52493 0.0
C193 C 0.5371 0.42671 0.50552 0.0
C194 C 0.43781 0.52318 0.55217 0.0
C195 C 0.46959 0.58062 0.49449 0.0
C196 C 0.47455 0.61361 0.59851 0.0
C197 C 0.46564 0.63919 0.58906 0.0
C198 C 0.48119 0.66563 0.60044 0.0
C199 C 0.44323 0.63777 0.56694 0.0
C200 C 0.45266 0.68895 0.56708 0.0
C201 C 0.43681 0.66242 0.55606 0.0
C202 C 0.47478 0.69032 0.58954 0.0
C203 C 0.54377 0.5813 0.53844 0.0
O204 O 0.51848 0.52063 0.5641 0.0
O205 O 0.50089 0.54552 0.60162 0.0
O206 O 0.48216 0.48554 0.50971 0.0
O207 O 0.51814 0.51689 0.48754 0.0
O208 O 0.44096 0.51871 0.52277 0.0
O209 O 0.46303 0.53097 0.56475 0.0
O210 O 0.46934 0.58913 0.52366 0.0
O211 O 0.47925 0.55821 0.48737 0.0
O212 O 0.50235 0.61398 0.59299 0.0
O213 O 0.45615 0.58935 0.59166 0.0
O214 O 0.5403 0.58701 0.56744 0.0
O215 O 0.51871 0.57347 0.52555 0.0
H216 H 0.49761 0.43357 0.48484 0.0
H217 H 0.56063 0.50766 0.51969 0.0
H218 H 0.59335 0.47861 0.53575 0.0
H219 H 0.52995 0.40407 0.50194 0.0
H220 H 0.4986 0.66719 0.61744 0.0
H221 H 0.43098 0.61767 0.55754 0.0
H222 H 0.41979 0.66073 0.53861 0.0
H223 H 0.48698 0.71046 0.59888 0.0
Gd224 Gd 0.99968 0.53779 0.07627 0.0
Gd225 Gd 0.99289 0.59295 0.04315 0.0
C226 C 0.05526 0.59361 0.07467 0.0
C227 C 0.01762 0.49539 0.09694 0.0
C228 C 0.04583 0.48696 0.09726 0.0
C229 C 0.05123 0.46973 0.12132 0.0
C230 C 0.0676 0.49619 0.07414 0.0
C231 C 0.09961 0.47012 0.09877 0.0
C232 C 0.09423 0.48776 0.07484 0.0
C233 C 0.07786 0.46144 0.12215 0.0
C234 C 0.97216 0.5714 0.10977 0.0
C235 C 0.94024 0.5341 0.03748 0.0
C236 C 0.97662 0.63886 0.0336 0.0
C237 C 0.95752 0.65004 1.0125 0.0
C238 C 0.96755 0.67773 1.0012 0.0
C239 C 0.92872 0.63421 1.00511 0.0
C240 C 0.91943 0.67454 0.97737 0.0
C241 C 0.90983 0.64638 0.9878 0.0
C242 C 0.94877 0.68984 0.9837 0.0
C243 C 0.01406 0.56025 1.00148 0.0
O244 O 0.04669 0.56562 0.07529 0.0
O245 O 0.03704 0.60916 0.06638 0.0
O246 O 0.01668 0.51731 0.11404 0.0
O247 O 1.00505 0.49547 0.06981 0.0
O248 O 0.96474 0.54393 0.11092 0.0
O249 O 0.99428 0.57942 0.09184 0.0
O250 O 0.94797 0.56213 0.03537 0.0
O251 O 0.95771 0.51963 0.05007 0.0
O252 O 1.00124 0.63452 1.02185 0.0
O253 O 0.96297 0.61908 0.05309 0.0
O254 O 1.00911 0.58457 0.99478 0.0
O255 O 1.00745 0.55526 0.0297 0.0
H256 H 0.03482 0.46269 0.13955 0.0
H257 H 0.06395 0.50975 0.05548 0.0
H258 H 0.11034 0.49468 0.05635 0.0
H259 H 0.08146 0.44838 0.1413 0.0
H260 H 0.98974 0.69024 1.00653 0.0
H261 H 0.92047 0.61272 1.01344 0.0
H262 H 0.88734 0.63404 0.98363 0.0
H263 H 0.95711 0.71136 0.97552 0.0
C264 C 0.31251 0.26957 0.22527 0.0
C265 C 0.32856 0.29717 0.23227 0.0
C266 C 0.29687 0.25202 0.24867 0.0
C267 C 0.26838 0.21654 0.30437 0.0
H268 H 0.22277 0.25804 0.3528 0.0
C269 C 0.17595 0.16266 0.39216 0.0
C270 C 0.14915 0.17095 0.38968 0.0
C271 C 0.20153 0.17744 0.37631 0.0
C272 C 0.23537 0.24616 0.33952 0.0
H273 H 0.34327 0.32758 0.26883 0.0
H274 H 0.3165 0.29678 0.31016 0.0
H275 H 0.26318 0.28368 0.31961 0.0
H276 H 0.12834 0.20122 0.36833 0.0
H277 H 0.17299 0.22717 0.3411 0.0
H278 H 0.2395 0.17891 0.32346 0.0
C279 C 0.31545 0.28874 0.28664 0.0
C280 C 0.25882 0.26085 0.3208 0.0
C281 C 0.33097 0.30625 0.26321 0.0
C282 C 0.14867 0.19454 0.37123 0.0
C283 C 0.17426 0.2094 0.35558 0.0
C284 C 0.24494 0.20181 0.32327 0.0
C285 C 0.2971 0.26194 0.27939 0.0
C286 C 0.27522 0.24622 0.3025 0.0
C287 C 0.20094 0.20097 0.35787 0.0
C288 C 0.22776 0.21648 0.34044 0.0
H289 H 0.31023 0.26246 0.20139 0.0
H290 H 0.28281 0.2316 0.24223 0.0
H291 H 0.28072 0.20469 0.29068 0.0
H292 H 0.17725 0.14487 0.40657 0.0
H293 H 0.22185 0.17064 0.37873 0.0
C294 C 0.36502 0.97871 0.68608 0.0
C295 C 0.33915 0.95979 0.67528 0.0
C296 C 0.36707 0.98747 0.717 0.0
C297 C 0.33543 0.96327 0.7938 0.0
H298 H 0.38392 0.03635 0.81952 0.0
C299 C 0.38657 0.98245 0.91569 0.0
C300 C 0.39027 1.00919 0.92938 0.0
C301 C 0.37599 0.97758 0.88539 0.0
C302 C 0.3699 1.01598 0.81287 0.0
H303 H 0.2946 0.93619 0.68747 0.0
H304 H 0.2976 0.95218 0.74153 0.0
H305 H 0.37227 1.02766 0.7649 0.0
H306 H 0.38451 0.05143 0.92266 0.0
H307 H 0.3655 0.04283 0.86996 0.0
H308 H 0.33283 0.95168 0.84182 0.0
C309 C 0.31661 0.95982 0.72634 0.0
C310 C 0.36353 1.01087 0.78143 0.0
C311 C 0.31469 0.95095 0.69538 0.0
C312 C 0.38229 1.03072 0.9125 0.0
C313 C 0.37147 1.02579 0.8823 0.0
C314 C 0.34163 0.96844 0.82527 0.0
C315 C 0.34312 0.97763 0.73773 0.0
C316 C 0.34678 0.98425 0.77142 0.0
C317 C 0.36861 0.99929 0.86817 0.0
C318 C 0.35949 0.99465 0.83514 0.0
H319 H 0.38404 0.98583 0.67077 0.0
H320 H 0.38794 1.00092 0.72493 0.0
H321 H 0.32269 0.94242 0.78696 0.0
H322 H 0.39285 0.96556 0.92802 0.0
H323 H 0.37457 0.95704 0.87514 0.0
C324 C 0.61809 0.43497 0.82297 0.0
C325 C 0.62857 0.41069 0.81877 0.0
C326 C 0.60644 0.44698 0.798 0.0
C327 C 0.57645 0.43169 0.71764 0.0
H328 H 0.5906 0.51327 0.71385 0.0
C329 C 0.54279 0.49088 0.61145 0.0
C330 C 0.52953 0.51311 0.61838 0.0
C331 C 0.55555 0.47799 0.635 0.0
C332 C 0.58622 0.49043 0.71464 0.0
H333 H 0.63516 0.37987 0.7853 0.0
H334 H 0.61529 0.40094 0.74134 0.0
H335 H 0.61135 0.49166 0.75624 0.0
H336 H 0.51948 0.53914 0.65572 0.0
H337 H 0.54164 0.51686 0.69645 0.0
H338 H 0.55153 0.43067 0.6757 0.0
C339 C 0.61549 0.41057 0.76401 0.0
C340 C 0.59807 0.47796 0.73909 0.0
C341 C 0.62699 0.39849 0.78911 0.0
C342 C 0.52949 0.52214 0.64941 0.0
C343 C 0.5424 0.50945 0.67283 0.0
C344 C 0.56476 0.44421 0.69301 0.0
C345 C 0.60512 0.4351 0.76802 0.0
C346 C 0.59313 0.44836 0.74122 0.0
C347 C 0.55561 0.48719 0.66602 0.0
C348 C 0.56922 0.47375 0.69135 0.0
H349 H 0.61876 0.44454 0.84572 0.0
H350 H 0.59815 0.46545 0.80234 0.0
H351 H 0.57178 0.40884 0.71852 0.0
H352 H 0.54323 0.48333 0.58785 0.0
H353 H 0.56571 0.46106 0.62884 0.0
C354 C 0.90455 0.69996 0.33583 0.0
C355 C 0.88445 0.71638 0.32965 0.0
C356 C 0.9177 0.68805 0.31155 0.0
C357 C 0.92801 0.68673 0.22461 0.0
H358 H 0.93127 0.60957 0.24077 0.0
C359 C 0.97538 0.61923 0.13417 0.0
C360 C 0.962 0.58999 0.13278 0.0
C361 C 0.96712 0.63623 0.1573 0.0
C362 C 0.93032 0.631 0.2356 0.0
H363 H 0.86301 0.73385 0.29315 0.0
H364 H 0.88604 0.7135 0.25055 0.0
H365 H 0.91656 0.63721 0.28203 0.0
H366 H 0.92878 0.55598 0.15429 0.0
H367 H 0.91408 0.58542 0.19411 0.0
H368 H 0.94097 0.68006 0.17778 0.0
C369 C 0.89223 0.71007 0.27413 0.0
C370 C 0.9223 0.64715 0.2596 0.0
C371 C 0.87919 0.72206 0.29853 0.0
C372 C 0.93969 0.57836 0.15471 0.0
C373 C 0.93143 0.59531 0.1778 0.0
C374 C 0.9361 0.67053 0.20053 0.0
C375 C 0.91081 0.69191 0.28026 0.0
C376 C 0.92089 0.6753 0.25459 0.0
C377 C 0.94524 0.6245 0.1798 0.0
C378 C 0.93718 0.64227 0.20555 0.0
H379 H 0.90837 0.69466 0.3596 0.0
H380 H 0.93234 0.6748 0.31744 0.0
H381 H 0.92743 0.70831 0.21968 0.0
H382 H 0.99271 0.62891 0.11771 0.0
H383 H 0.97851 0.65847 0.15802 0.0
C384 C 0.37301 0.2798 0.15449 0.0
C385 C 0.37343 0.29533 0.18199 0.0
C386 C 0.38935 0.2595 0.15204 0.0
C387 C 0.42009 0.21056 0.19653 0.0
H388 H 0.47181 0.21259 0.12498 0.0
C389 C 0.51144 0.15092 0.14255 0.0
C390 C 0.49416 0.12282 0.14085 0.0
C391 C 0.49873 0.17251 0.15242 0.0
C392 C 0.45768 0.2119 0.14524 0.0
H393 H 0.39071 0.30149 0.22866 0.0
H394 H 0.41867 0.26515 0.22478 0.0
H395 H 0.44521 0.24944 0.1316 0.0
H396 H 0.45061 0.0951 0.15051 0.0
H397 H 0.42862 0.13285 0.16835 0.0
H398 H 0.4319 0.17241 0.20959 0.0
C399 C 0.40595 0.26901 0.20503 0.0
C400 C 0.44229 0.23283 0.14887 0.0
C401 C 0.39 0.28972 0.20727 0.0
C402 C 0.46451 0.11652 0.15147 0.0
C403 C 0.45191 0.13812 0.16175 0.0
C404 C 0.43511 0.18927 0.19261 0.0
C405 C 0.40596 0.25388 0.17729 0.0
C406 C 0.42322 0.23229 0.17442 0.0
C407 C 0.46862 0.16644 0.16124 0.0
C408 C 0.45399 0.18971 0.16685 0.0
H409 H 0.35966 0.28307 0.13505 0.0
H410 H 0.38861 0.24782 0.13055 0.0
H411 H 0.40538 0.20962 0.21636 0.0
H412 H 0.53435 0.15656 0.13457 0.0
H413 H 0.51219 0.19414 0.15214 0.0
C414 C 0.26416 0.94209 0.62298 0.0
C415 C 0.29339 0.95873 0.62538 0.0
C416 C 0.24086 0.95477 0.61814 0.0
C417 C 0.19392 0.98842 0.6168 0.0
H418 H 0.21051 0.04112 0.54767 0.0
C419 C 0.10846 0.04547 0.57022 0.0
C420 C 0.10529 0.04564 0.53782 0.0
C421 C 0.13152 0.03612 0.5835 0.0
C422 C 0.20558 1.02641 0.56696 0.0
H423 H 0.32151 1.00125 0.62669 0.0
H424 H 0.2806 1.02384 0.61812 0.0
H425 H 0.2506 1.02337 0.56955 0.0
H426 H 0.12348 0.03622 0.49382 0.0
H427 H 0.16417 1.0199 0.51712 0.0
H428 H 0.14871 0.99096 0.61367 0.0
C429 C 0.27569 1.00101 0.61983 0.0
C430 C 0.22857 1.01657 0.57976 0.0
C431 C 0.29895 0.98824 0.62496 0.0
C432 C 0.12554 0.0363 0.51886 0.0
C433 C 0.14883 1.02715 0.53217 0.0
C434 C 0.17096 0.99846 0.60416 0.0
C435 C 0.24658 0.98431 0.61538 0.0
C436 C 0.22288 0.99718 0.60452 0.0
C437 C 0.15199 1.02698 0.56463 0.0
C438 C 0.17652 1.01723 0.57883 0.0
H439 H 0.2597 0.91923 0.62328 0.0
H440 H 0.21871 0.94137 0.6146 0.0
H441 H 0.18897 0.97351 0.6359 0.0
H442 H 0.09313 0.05262 0.58537 0.0
H443 H 0.13358 0.03643 0.60854 0.0
C444 C 0.69183 0.41943 0.93155 0.0
C445 C 0.69279 0.4005 0.90734 0.0
C446 C 0.7173 0.43124 0.94894 0.0
C447 C 0.79589 0.42724 0.96364 0.0
H448 H 0.80598 0.50584 0.9864 0.0
C449 C 0.89949 0.4893 0.0315 0.0
C450 C 0.911 0.5182 1.02477 0.0
C451 C 0.87233 0.47415 1.01904 0.0
C452 C 0.80381 0.48399 0.97998 0.0
H453 H 0.72064 0.3786 0.88243 0.0
H454 H 0.7655 0.39945 0.9122 0.0
H455 H 0.76033 0.48024 0.96185 0.0
H456 H 0.90277 0.55369 0.99932 0.0
H457 H 0.85607 0.52726 0.97692 0.0
H458 H 0.84006 0.4315 0.98035 0.0
C459 C 0.74501 0.40477 0.9186 0.0
C460 C 0.7772 0.46903 0.96632 0.0
C461 C 0.71934 0.39268 0.90152 0.0
C462 C 0.89455 0.53154 1.00525 0.0
C463 C 0.86755 0.51631 0.99251 0.0
C464 C 0.82266 0.44231 0.97704 0.0
C465 C 0.74461 0.42487 0.94206 0.0
C466 C 0.77276 0.4404 0.95785 0.0
C467 C 0.85596 0.48734 0.99917 0.0
C468 C 0.82712 0.47099 0.98534 0.0
H469 H 0.6716 0.42597 0.93607 0.0
H470 H 0.71569 0.446 0.96723 0.0
H471 H 0.7934 0.40521 0.95785 0.0
H472 H 0.91139 0.47831 0.0466 0.0
H473 H 0.86408 0.45209 1.02531 0.0
C474 C 0.79083 0.66668 0.41123 0.0
C475 C 0.79415 0.69318 0.39705 0.0
C476 C 0.76376 0.6527 0.42532 0.0
C477 C 0.68303 0.65164 0.42861 0.0
H478 H 0.68427 0.61174 0.50611 0.0
C479 C 0.57411 0.58851 0.48899 0.0
C480 C 0.57258 0.59071 0.52147 0.0
C481 C 0.60111 0.59907 0.47303 0.0
C482 C 0.68343 0.6229 0.48456 0.0
H483 H 0.77175 0.72565 0.38607 0.0
H484 H 0.72469 0.70172 0.41107 0.0
H485 H 0.73092 0.63436 0.48004 0.0
H486 H 0.59837 0.60517 0.5627 0.0
H487 H 0.6452 0.62377 0.53505 0.0
H488 H 0.63558 0.64092 0.43361 0.0
C489 C 0.74274 0.6914 0.41108 0.0
C490 C 0.71029 0.63562 0.46935 0.0
C491 C 0.76979 0.7053 0.397 0.0
C492 C 0.59877 0.60312 0.53766 0.0
C493 C 0.62573 0.61366 0.52176 0.0
C494 C 0.65617 0.63891 0.44382 0.0
C495 C 0.7393 0.6649 0.42557 0.0
C496 C 0.71053 0.65039 0.44124 0.0
C497 C 0.62731 0.61205 0.48916 0.0
C498 C 0.65595 0.62452 0.47217 0.0
H499 H 0.80934 0.65697 0.41171 0.0
H500 H 0.76197 0.63222 0.43586 0.0
H501 H 0.68217 0.66245 0.40683 0.0
H502 H 0.55434 0.57897 0.47584 0.0
H503 H 0.60144 0.59701 0.44801 0.0
C504 C 0.309 0.36169 0.12663 0.0
C505 C 0.32144 0.36956 0.15587 0.0
C506 C 0.29052 0.37678 0.11296 0.0
C507 C 0.25972 0.44048 0.12267 0.0
H508 H 0.18895 0.38973 0.08896 0.0
C509 C 0.15507 0.47872 0.09088 0.0
C510 C 0.12756 0.46045 0.09936 0.0
C511 C 0.18129 0.4696 0.09229 0.0
C512 C 0.20848 0.40423 0.09844 0.0
H513 H 0.32657 0.40048 0.19258 0.0
H514 H 0.2935 0.42629 0.16959 0.0
H515 H 0.23168 0.37184 0.10083 0.0
H516 H 0.10611 0.41796 0.11509 0.0
H517 H 0.15161 0.40254 0.11872 0.0
H518 H 0.23551 0.47238 0.12224 0.0
C519 C 0.2982 0.40888 0.1567 0.0
C520 C 0.23333 0.39407 0.10475 0.0
C521 C 0.31702 0.39403 0.17007 0.0
C522 C 0.1269 0.43278 0.10885 0.0
C523 C 0.15304 0.42376 0.11043 0.0
C524 C 0.23468 0.45059 0.11666 0.0
C525 C 0.28371 0.39975 0.12853 0.0
C526 C 0.2591 0.41186 0.11763 0.0
C527 C 0.18062 0.44203 0.10225 0.0
C528 C 0.20846 0.43238 0.10521 0.0
H529 H 0.31192 0.34277 0.11535 0.0
H530 H 0.28043 0.36954 0.09088 0.0
H531 H 0.27929 0.45496 0.13207 0.0
H532 H 0.15646 0.50025 0.08369 0.0
H533 H 0.20208 0.48418 0.08555 0.0
C534 C 0.64438 0.31736 0.88582 0.0
C535 C 0.64631 0.34383 0.89957 0.0
C536 C 0.6356 0.2924 0.90327 0.0
C537 C 0.59376 0.265 0.97562 0.0
H538 H 0.61821 0.19698 0.95487 0.0
C539 C 0.52687 0.1552 1.0186 0.0
C540 C 0.54193 0.13453 1.02599 0.0
C541 C 0.54192 0.18083 1.00482 0.0
C542 C 0.61131 0.21579 0.96132 0.0
H543 H 0.64213 0.36506 0.94274 0.0
H544 H 0.62794 0.32166 0.97374 0.0
H545 H 0.64226 0.24146 0.92941 0.0
H546 H 0.5848 0.12466 1.02492 0.0
H547 H 0.61136 0.16968 1.00134 0.0
H548 H 0.56329 0.23955 1.00798 0.0
C549 C 0.63238 0.31997 0.9492 0.0
C550 C 0.62491 0.24137 0.94635 0.0
C551 C 0.641 0.34495 0.93161 0.0
C552 C 0.57253 0.14012 1.01932 0.0
C553 C 0.5877 0.16592 1.00566 0.0
C554 C 0.58031 0.2395 0.99069 0.0
C555 C 0.62872 0.29322 0.93513 0.0
C556 C 0.61606 0.26634 0.95292 0.0
C557 C 0.57262 0.18674 0.99823 0.0
C558 C 0.58849 0.21435 0.98346 0.0
H559 H 0.64855 0.31596 0.86118 0.0
H560 H 0.6329 0.27242 0.89134 0.0
H561 H 0.58595 0.28351 0.98122 0.0
H562 H 0.50327 0.15154 1.02335 0.0
H563 H 0.52925 0.19588 0.99896 0.0
C564 C 0.91197 0.77266 0.38516 0.0
C565 C 0.8842 0.76933 0.37087 0.0
C566 C 0.92814 0.79948 0.39562 0.0
C567 C 0.9131 0.86242 0.42926 0.0
H568 H 0.99545 0.90195 0.41413 0.0
C569 C 0.97721 0.95847 0.50329 0.0
C570 C 0.9911 0.98295 0.48635 0.0
C571 C 0.96549 0.9326 0.4881 0.0
C572 C 0.97242 0.89112 0.4186 0.0
H573 H 0.85255 0.79161 0.3547 0.0
H574 H 0.8804 0.83816 0.37301 0.0
H575 H 0.974 0.85665 0.38787 0.0
H576 H 1.00408 0.99901 0.44007 0.0
H577 H 0.9845 0.95365 0.41377 0.0
H578 H 0.9116 0.8963 0.46056 0.0
C579 C 0.88983 0.82022 0.37609 0.0
C580 C 0.96021 0.86515 0.40366 0.0
C581 C 0.87408 0.79366 0.3652 0.0
C582 C 0.99337 0.98069 0.45386 0.0
C583 C 0.98233 0.95464 0.43877 0.0
C584 C 0.92548 0.88792 0.44476 0.0
C585 C 0.91652 0.82333 0.39243 0.0
C586 C 0.93027 0.85064 0.40857 0.0
C587 C 0.96804 0.93029 0.45566 0.0
C588 C 0.95524 0.90275 0.43949 0.0
H589 H 0.91994 0.75421 0.39047 0.0
H590 H 0.94862 0.80117 0.40815 0.0
H591 H 0.89003 0.85169 0.43373 0.0
H592 H 0.97505 0.95937 0.5283 0.0
H593 H 0.95469 0.91425 0.50181 0.0
C594 C 0.39237 0.91198 0.57839 0.0
C595 C 0.36223 0.90407 0.58684 0.0
C596 C 0.40544 0.89264 0.56363 0.0
C597 C 0.38881 0.82128 0.52684 0.0
H598 H 0.45927 0.81497 0.5709 0.0
C599 C 0.41583 0.71629 0.55314 0.0
C600 C 0.44557 0.71511 0.55594 0.0
C601 C 0.40902 0.74171 0.54579 0.0
C602 C 0.44009 0.81672 0.55767 0.0
H603 H 0.32168 0.87065 0.58575 0.0
H604 H 0.34435 0.83655 0.56037 0.0
H605 H 0.4409 0.85678 0.57782 0.0
H606 H 0.49152 0.73898 0.55087 0.0
H607 H 0.47959 0.78356 0.53818 0.0
H608 H 0.38715 0.78028 0.50816 0.0
C609 C 0.35793 0.85775 0.5644 0.0
C610 C 0.42953 0.84077 0.56163 0.0
C611 C 0.34493 0.87712 0.57907 0.0
C612 C 0.46839 0.73946 0.54952 0.0
C613 C 0.46157 0.7649 0.54212 0.0
C614 C 0.39937 0.79715 0.5229 0.0
C615 C 0.38851 0.86505 0.55727 0.0
C616 C 0.40309 0.84278 0.54729 0.0
C617 C 0.43182 0.76645 0.54106 0.0
C618 C 0.42442 0.79416 0.5393 0.0
H619 H 0.40588 0.93286 0.58406 0.0
H620 H 0.42898 0.89895 0.55813 0.0
H621 H 0.36867 0.8225 0.51503 0.0
H622 H 0.39777 0.69793 0.55816 0.0
H623 H 0.38587 0.74228 0.54564 0.0
C624 C 0.73955 0.81418 0.80076 0.0
C625 C 0.73228 0.83497 0.81949 0.0
C626 C 0.76584 0.82051 0.7831 0.0
C627 C 0.83889 0.8735 0.77712 0.0
H628 H 0.8382 0.848 0.69186 0.0
C629 C 0.94085 0.91509 0.69952 0.0
C630 C 0.93488 0.92384 0.66968 0.0
C631 C 0.91829 0.89773 0.71741 0.0
C632 C 0.83877 0.85536 0.71561 0.0
H633 H 0.74686 0.8781 0.83565 0.0
H634 H 0.79188 0.88975 0.80397 0.0
H635 H 0.79407 0.83142 0.72442 0.0
H636 H 0.90094 0.91896 0.63431 0.0
H637 H 0.86136 0.89019 0.666 0.0
H638 H 0.8826 0.89892 0.76801 0.0
C639 C 0.77776 0.86843 0.80298 0.0
C640 C 0.81357 0.84556 0.73441 0.0
C641 C 0.75171 0.86201 0.82068 0.0
C642 C 0.90621 0.9133 0.65749 0.0
C643 C 0.88354 0.89632 0.67556 0.0
C644 C 0.86387 0.88353 0.75831 0.0
C645 C 0.78528 0.84776 0.78407 0.0
C646 C 0.81308 0.85515 0.76515 0.0
C647 C 0.88906 0.88903 0.70613 0.0
C648 C 0.86395 0.87513 0.72707 0.0
H649 H 0.72488 0.7931 0.79991 0.0
H650 H 0.7711 0.80403 0.76903 0.0
H651 H 0.83955 0.88082 0.80091 0.0
H652 H 0.96257 0.92277 0.70982 0.0
H653 H 0.92358 0.89198 0.74055 0.0
C654 C 0.77305 0.22898 0.42892 0.0
C655 C 0.78926 0.25726 0.43126 0.0
C656 C 0.76599 0.21658 0.39988 0.0
C657 C 0.75227 0.23676 0.32082 0.0
H658 H 0.74539 0.15745 0.30369 0.0
C659 C 0.7019 0.18381 0.20685 0.0
C660 C 0.68119 0.15746 0.21027 0.0
C661 C 0.71961 0.19608 0.23177 0.0
C662 C 0.74711 0.17961 0.30819 0.0
H663 H 0.81188 0.29461 0.40573 0.0
H664 H 0.79974 0.27293 0.35444 0.0
H665 H 0.77019 0.17869 0.35085 0.0
H666 H 0.66278 0.12342 0.24261 0.0
H667 H 0.69363 0.14482 0.28605 0.0
H668 H 0.7285 0.23753 0.27864 0.0
C669 C 0.79232 0.26035 0.37504 0.0
C670 C 0.76135 0.19178 0.33514 0.0
C671 C 0.79944 0.2727 0.40419 0.0
C672 C 0.67881 0.14354 0.23908 0.0
C673 C 0.69654 0.15578 0.26395 0.0
C674 C 0.73806 0.2246 0.29387 0.0
C675 C 0.77489 0.23234 0.37259 0.0
C676 C 0.76352 0.22034 0.34208 0.0
C677 C 0.71705 0.18224 0.26062 0.0
C678 C 0.73475 0.19575 0.2876 0.0
H679 H 0.76445 0.21699 0.44958 0.0
H680 H 0.75213 0.19515 0.39886 0.0
H681 H 0.75315 0.2587 0.3257 0.0
H682 H 0.70463 0.19485 0.18481 0.0
H683 H 0.73544 0.21635 0.22839 0.0
C684 C 0.41111 0.71186 0.26763 0.0
C685 C 0.39384 0.73084 0.27467 0.0
C686 C 0.42317 0.69864 0.29131 0.0
C687 C 0.43765 0.6979 0.37659 0.0
H688 H 0.42481 0.61725 0.36315 0.0
C689 C 0.44931 0.62119 0.47637 0.0
C690 C 0.46088 0.59791 0.46926 0.0
C691 C 0.44256 0.63836 0.45281 0.0
C692 C 0.42906 0.63977 0.36728 0.0
H693 H 0.37665 0.75184 0.31188 0.0
H694 H 0.39817 0.72928 0.35358 0.0
H695 H 0.41317 0.64685 0.32224 0.0
H696 H 0.47448 0.57471 0.43132 0.0
H697 H 0.46323 0.6047 0.39039 0.0
H698 H 0.45355 0.69077 0.42171 0.0
C699 C 0.4027 0.72469 0.32971 0.0
C700 C 0.42236 0.65685 0.34366 0.0
C701 C 0.39061 0.7379 0.30588 0.0
C702 C 0.46535 0.59223 0.4378 0.0
C703 C 0.45876 0.60949 0.41422 0.0
C704 C 0.44454 0.6808 0.40022 0.0
C705 C 0.4181 0.70395 0.32277 0.0
C706 C 0.42651 0.68618 0.3479 0.0
C707 C 0.44731 0.63291 0.4213 0.0
C708 C 0.44028 0.6514 0.39599 0.0
H709 H 0.41333 0.70565 0.24376 0.0
H710 H 0.43536 0.68326 0.28495 0.0
H711 H 0.44135 0.72038 0.3807 0.0
H712 H 0.44551 0.62629 0.50023 0.0
H713 H 0.43334 0.6558 0.45939 0.0
C714 C 0.13806 0.43185 0.81575 0.0
C715 C 0.12233 0.42269 0.78832 0.0
C716 C 0.12538 0.44462 0.83971 0.0
C717 C 0.06431 0.48068 0.85476 0.0
H718 H 0.08452 0.47323 0.94095 0.0
C719 C 0.03426 0.55322 0.94894 0.0
C720 C 0.02615 0.54263 0.97897 0.0
C721 C 0.04529 0.53733 0.92686 0.0
C722 C 0.07831 0.47538 0.91707 0.0
H723 H 0.08069 0.41946 0.76483 0.0
H724 H 0.05803 0.44071 0.80681 0.0
H725 H 0.10392 0.44725 0.90089 0.0
H726 H 0.02357 0.50684 1.00933 0.0
H727 H 0.04243 0.47864 0.97056 0.0
H728 H 0.03808 0.50812 0.87086 0.0
C729 C 0.08051 0.4387 0.80975 0.0
C730 C 0.08984 0.4607 0.89388 0.0
C731 C 0.09332 0.42612 0.78573 0.0
C732 C 0.02961 0.51563 0.98644 0.0
C733 C 0.0406 0.49954 0.96416 0.0
C734 C 0.0527 0.49519 0.87789 0.0
C735 C 0.09642 0.44848 0.83709 0.0
C736 C 0.08325 0.46327 0.86224 0.0
C737 C 0.04842 0.51008 0.93386 0.0
C738 C 0.05975 0.49313 0.90945 0.0
H739 H 0.16036 0.42928 0.81857 0.0
H740 H 0.13867 0.45204 0.86 0.0
H741 H 0.05881 0.48367 0.83084 0.0
H742 H 0.03215 0.57402 0.94239 0.0
H743 H 0.05167 0.54671 0.90428 0.0
C744 C 0.67263 0.88268 0.89442 0.0
C745 C 0.65563 0.8563 0.88444 0.0
C746 C 0.65924 0.90115 0.91022 0.0
C747 C 0.5874 0.91805 0.92403 0.0
H748 H 0.6293 0.96012 0.99355 0.0
C749 C 0.53762 0.99047 1.00435 0.0
C750 C 0.55707 1.01604 1.01381 0.0
C751 C 0.54829 0.97059 0.98745 0.0
C752 C 0.61746 0.94878 0.97397 0.0
H753 H 0.61169 0.82804 0.88302 0.0
H754 H 0.58778 0.86043 0.91113 0.0
H755 H 0.65003 0.92527 0.96729 0.0
H756 H 0.60277 0.04125 1.01184 0.0
H757 H 0.62126 1.00673 0.98219 0.0
H758 H 0.55479 0.94173 0.93086 0.0
C759 C 0.61145 0.86698 0.90641 0.0
C760 C 0.62932 0.92876 0.95895 0.0
C761 C 0.62499 0.84844 0.89055 0.0
C762 C 0.5872 1.02172 1.00508 0.0
C763 C 0.59785 1.00184 0.98827 0.0
C764 C 0.57547 0.93812 0.93914 0.0
C765 C 0.62851 0.89353 0.9165 0.0
C766 C 0.61466 0.91342 0.93355 0.0
C767 C 0.57864 0.97584 0.97977 0.0
C768 C 0.5906 0.95395 0.96403 0.0
H769 H 0.69636 0.88891 0.88994 0.0
H770 H 0.67295 0.92155 0.91724 0.0
H771 H 0.5757 0.90674 0.90436 0.0
H772 H 0.51426 0.98544 1.01069 0.0
H773 H 0.53297 0.9507 0.98136 0.0
C774 C 0.8447 0.24202 0.47348 0.0
C775 C 0.81685 0.23901 0.48755 0.0
C776 C 0.85938 0.22045 0.47591 0.0
C777 C 0.85954 0.15837 0.52535 0.0
H778 H 0.9176 0.1475 0.46454 0.0
C779 C 0.94972 0.104 0.55841 0.0
C780 C 0.95964 0.08692 0.53679 0.0
C781 C 0.93012 0.11984 0.54961 0.0
C782 C 0.90112 0.14989 0.48155 0.0
H783 H 0.78128 0.2111 0.51327 0.0
H784 H 0.80602 0.17262 0.51646 0.0
H785 H 0.88603 0.17901 0.45274 0.0
H786 H 0.95716 0.07295 0.48894 0.0
H787 H 0.92184 0.10016 0.47352 0.0
H788 H 0.87382 0.12866 0.55373 0.0
C789 C 0.81739 0.19195 0.50471 0.0
C790 C 0.88331 0.16833 0.47498 0.0
C791 C 0.80311 0.2138 0.50285 0.0
C792 C 0.94966 0.08593 0.50604 0.0
C793 C 0.92963 0.10162 0.49724 0.0
C794 C 0.87693 0.13965 0.53165 0.0
C795 C 0.84608 0.19523 0.49193 0.0
C796 C 0.86279 0.17335 0.49715 0.0
C797 C 0.91955 0.11869 0.51903 0.0
C798 C 0.89858 0.13582 0.51028 0.0
H799 H 0.85539 0.26144 0.46149 0.0
H800 H 0.88155 0.22403 0.46614 0.0
H801 H 0.84433 0.16178 0.54324 0.0
H802 H 0.95741 0.10547 0.58218 0.0
H803 H 0.92363 0.13335 0.56682 0.0
C804 C 0.30237 0.6873 0.19138 0.0
C805 C 0.30579 0.71363 0.20594 0.0
C806 C 0.27577 0.67419 0.17644 0.0
C807 C 0.19608 0.67656 0.17082 0.0
H808 H 0.19755 0.63188 0.09665 0.0
C809 C 0.09245 0.63674 0.09411 0.0
C810 C 0.08544 0.60792 0.08604 0.0
C811 C 0.11983 0.64966 0.10758 0.0
C812 C 0.19679 0.64417 0.11745 0.0
H813 H 0.28414 0.74686 0.21642 0.0
H814 H 0.23825 0.72486 0.18928 0.0
H815 H 0.24409 0.65443 0.12246 0.0
H816 H 0.10229 0.57035 0.08493 0.0
H817 H 0.15032 0.59314 0.10795 0.0
H818 H 0.14879 0.66675 0.16526 0.0
C819 C 0.25568 0.71378 0.18992 0.0
C820 C 0.22348 0.65702 0.1324 0.0
C821 C 0.28213 0.72665 0.20516 0.0
C822 C 0.10692 0.59258 0.09087 0.0
C823 C 0.13449 0.60564 0.10396 0.0
C824 C 0.1695 0.66403 0.15564 0.0
C825 C 0.252 0.68727 0.1754 0.0
C826 C 0.22354 0.67342 0.15936 0.0
C827 C 0.14106 0.63421 0.11296 0.0
C828 C 0.16951 0.64767 0.12879 0.0
H829 H 0.3204 0.67695 0.19142 0.0
H830 H 0.2738 0.65365 0.166 0.0
H831 H 0.19496 0.6884 0.19185 0.0
H832 H 0.07647 0.6492 0.09084 0.0
H833 H 0.12436 0.67179 0.11395 0.0
C834 C 0.19365 0.41232 0.6753 0.0
C835 C 0.19528 0.40935 0.70763 0.0
C836 C 0.21964 0.42277 0.65749 0.0
C837 C 0.29632 0.46793 0.66636 0.0
H838 H 0.3105 0.44058 0.58467 0.0
C839 C 0.40926 0.50976 0.60216 0.0
C840 C 0.4095 0.51169 0.5696 0.0
C841 C 0.38296 0.49705 0.61841 0.0
C842 C 0.30679 0.44885 0.60726 0.0
H843 H 0.22526 0.4132 0.74636 0.0
H844 H 0.27053 0.43124 0.71557 0.0
H845 H 0.26527 0.41765 0.61332 0.0
H846 H 0.38202 0.50242 0.52866 0.0
H847 H 0.33606 0.48106 0.55687 0.0
H848 H 0.33733 0.49941 0.66032 0.0
C849 C 0.2493 0.42608 0.70387 0.0
C850 C 0.2808 0.43554 0.62377 0.0
C851 C 0.22343 0.41552 0.72151 0.0
C852 C 0.38264 0.50117 0.55374 0.0
C853 C 0.35628 0.48864 0.56999 0.0
C854 C 0.32213 0.48135 0.64981 0.0
C855 C 0.24778 0.43063 0.67172 0.0
C856 C 0.27529 0.44476 0.65368 0.0
C857 C 0.35601 0.4861 0.60261 0.0
C858 C 0.32796 0.47198 0.62003 0.0
H859 H 0.1722 0.408 0.66411 0.0
H860 H 0.21755 0.42601 0.63283 0.0
H861 H 0.29262 0.47605 0.68904 0.0
H862 H 0.42958 0.51751 0.61511 0.0
H863 H 0.38401 0.49525 0.6434 0.0
C864 C 0.72119 0.76859 0.86441 0.0
C865 C 0.72391 0.79666 0.8733 0.0
C866 C 0.74276 0.75469 0.87315 0.0
C867 C 0.82066 0.76877 0.90026 0.0
H868 H 0.79686 0.69107 0.92904 0.0
C869 C 0.89878 0.71662 0.96839 0.0
C870 C 0.89846 0.68839 0.96156 0.0
C871 C 0.87822 0.72937 0.95489 0.0
C872 C 0.80389 0.71264 0.92064 0.0
H873 H 0.75051 0.83256 0.89791 0.0
H874 H 0.78816 0.80834 0.91393 0.0
H875 H 0.75918 0.71412 0.91104 0.0
H876 H 0.87657 0.65169 0.93443 0.0
H877 H 0.84036 0.67392 0.91115 0.0
H878 H 0.8653 0.76744 0.91044 0.0
C879 C 0.76978 0.79699 0.89986 0.0
C880 C 0.7823 0.72586 0.91033 0.0
C881 C 0.74824 0.8108 0.89105 0.0
C882 C 0.8772 0.67333 0.94057 0.0
C883 C 0.85648 0.68606 0.92719 0.0
C884 C 0.8422 0.75559 0.91067 0.0
C885 C 0.76738 0.76879 0.89092 0.0
C886 C 0.7904 0.7542 0.90036 0.0
C887 C 0.85669 0.71417 0.93435 0.0
C888 C 0.83402 0.72749 0.92131 0.0
H889 H 0.70254 0.75762 0.85047 0.0
H890 H 0.7404 0.7331 0.86559 0.0
H891 H 0.82773 0.79042 0.89212 0.0
H892 H 0.91438 0.72872 0.98493 0.0
H893 H 0.87865 0.75091 0.96127 0.0
C894 C 0.42378 0.78927 0.2236 0.0
C895 C 0.39598 0.7863 0.23796 0.0
C896 C 0.44123 0.81618 0.21508 0.0
C897 C 0.44627 0.89457 0.22126 0.0
H898 H 0.48395 0.89656 0.14043 0.0
C899 C 0.48548 0.99782 0.14701 0.0
C900 C 0.51352 1.00214 0.13258 0.0
C901 C 0.47234 0.97201 0.16195 0.0
C902 C 0.47377 0.89644 0.16315 0.0
H903 H 0.3654 0.80897 0.25637 0.0
H904 H 0.3953 0.85568 0.24167 0.0
H905 H 0.46119 0.85124 0.16464 0.0
H906 H 0.54952 0.98263 0.12227 0.0
H907 H 0.52663 0.93788 0.14781 0.0
H908 H 0.4582 0.93998 0.21903 0.0
C909 C 0.40424 0.83764 0.23717 0.0
C910 C 0.46084 0.87032 0.17726 0.0
C911 C 0.38704 0.81083 0.24583 0.0
C912 C 0.52791 0.98005 0.13318 0.0
C913 C 0.5147 0.95427 0.14772 0.0
C914 C 0.45894 0.92072 0.20695 0.0
C915 C 0.43108 0.84073 0.22048 0.0
C916 C 0.44678 0.86886 0.20655 0.0
C917 C 0.48675 0.94983 0.16237 0.0
C918 C 0.47285 0.92203 0.17766 0.0
H919 H 0.4309 0.77065 0.21684 0.0
H920 H 0.46207 0.81757 0.20302 0.0
H921 H 0.43612 0.89458 0.24396 0.0
H922 H 0.47381 1.01441 0.1469 0.0
H923 H 0.45068 0.96925 0.17277 0.0
C924 C 0.15685 0.33779 0.70935 0.0
C925 C 0.14091 0.35827 0.70449 0.0
C926 C 0.14954 0.31203 0.69303 0.0
C927 C 0.11089 0.27631 0.62321 0.0
H928 H 0.0995 0.20762 0.67174 0.0
C929 C 0.05559 0.16644 0.56963 0.0
C930 C 0.06353 0.14224 0.58053 0.0
C931 C 0.06611 0.1928 0.58418 0.0
C932 C 0.10304 0.22643 0.65751 0.0
H933 H 0.10546 0.36832 0.67841 0.0
H934 H 0.09322 0.32384 0.64904 0.0
H935 H 0.11735 0.25342 0.69678 0.0
H936 H 0.08931 0.12713 0.61523 0.0
H937 H 0.10855 0.17297 0.63978 0.0
H938 H 0.09733 0.24963 0.58379 0.0
C939 C 0.1113 0.32749 0.66549 0.0
C940 C 0.11325 0.25285 0.67204 0.0
C941 C 0.11829 0.35297 0.6822 0.0
C942 C 0.08249 0.14521 0.6063 0.0
C943 C 0.09341 0.17166 0.62057 0.0
C944 C 0.10114 0.24991 0.60855 0.0
C945 C 0.12639 0.30636 0.67112 0.0
C946 C 0.11707 0.27819 0.65518 0.0
C947 C 0.08535 0.196 0.60988 0.0
C948 C 0.09672 0.2244 0.62545 0.0
H949 H 0.1741 0.34129 0.72674 0.0
H950 H 0.16178 0.29638 0.69783 0.0
H951 H 0.11386 0.29535 0.60939 0.0
H952 H 0.04084 0.16499 0.55001 0.0
H953 H 0.05866 0.21057 0.57541 0.0
C954 C 0.76723 0.33935 0.51379 0.0
C955 C 0.76417 0.31054 0.51953 0.0
C956 C 0.74684 0.35298 0.5264 0.0
C957 C 0.70237 0.37917 0.55917 0.0
H958 H 0.62272 0.33418 0.54144 0.0
C959 C 0.60071 0.42721 0.55762 0.0
C960 C 0.5844 0.4214 0.52993 0.0
C961 C 0.62143 0.41202 0.56533 0.0
C962 C 0.64479 0.34693 0.5468 0.0
H963 H 0.73912 0.27374 0.54451 0.0
H964 H 0.7037 0.29765 0.56732 0.0
H965 H 0.66399 0.31196 0.54083 0.0
H966 H 0.57668 0.39466 0.48904 0.0
H967 H 0.61239 0.36802 0.50267 0.0
H968 H 0.68319 0.41454 0.56311 0.0
C969 C 0.72157 0.30968 0.55279 0.0
C970 C 0.66843 0.33416 0.54683 0.0
C971 C 0.74195 0.29607 0.54006 0.0
C972 C 0.58849 0.39941 0.51075 0.0
C973 C 0.60898 0.38412 0.51857 0.0
C974 C 0.67864 0.39196 0.55921 0.0
C975 C 0.72303 0.33795 0.54499 0.0
C976 C 0.69765 0.35034 0.55185 0.0
C977 C 0.62598 0.39054 0.54568 0.0
C978 C 0.64983 0.37614 0.55181 0.0
H979 H 0.78426 0.35073 0.49792 0.0
H980 H 0.74847 0.37467 0.51966 0.0
H981 H 0.72459 0.39211 0.56347 0.0
H982 H 0.59767 0.44367 0.57322 0.0
H983 H 0.63408 0.41723 0.58649 0.0
loop_
_geom_bond_atom_site_label_1
_geom_bond_atom_site_label_2
_geom_bond_distance
_geom_bond_site_symmetry_2
_ccdc_geom_bond_type
C0 N1 1.317 . S
C0 N2 1.348 . S
C0 C3 1.485 . S
N1 C0 1.317 . S
N1 N5 1.370 . S
N2 C0 1.348 . S
N2 C4 1.346 . S
C3 C0 1.485 . S
C3 H7 0.960 . S
C3 H8 0.961 . S
C3 H9 0.960 . S
C4 N2 1.346 . S
C4 N5 1.307 . S
C4 C6 1.486 . S
N5 N1 1.370 . S
N5 C4 1.307 . S
C6 C4 1.486 . S
C6 H10 0.960 . S
C6 H11 0.960 . S
C6 H12 0.959 . S
H7 C3 0.960 . S
H8 C3 0.961 . S
H9 C3 0.960 . S
H10 C6 0.960 . S
H11 C6 0.960 . S
H12 C6 0.959 . S
C13 N14 1.317 . S
C13 N15 1.348 . S
C13 C16 1.485 . S
N14 C13 1.317 . S
N14 N18 1.370 . S
N15 C13 1.348 . S
N15 C17 1.346 . S
C16 C13 1.485 . S
C16 H20 0.960 . S
C16 H21 0.961 . S
C16 H22 0.960 . S
C17 N15 1.346 . S
C17 N18 1.307 . S
C17 C19 1.486 . S
N18 N14 1.370 . S
N18 C17 1.307 . S
C19 C17 1.486 . S
C19 H23 0.960 . S
C19 H24 0.960 . S
C19 H25 0.959 . S
H20 C16 0.960 . S
H21 C16 0.961 . S
H22 C16 0.960 . S
H23 C19 0.960 . S
H24 C19 0.960 . S
H25 C19 0.959 . S
C26 N27 1.317 . S
C26 N28 1.348 . S
C26 C29 1.485 . S
N27 C26 1.317 . S
N27 N31 1.370 . S
N28 C26 1.348 . S
N28 C30 1.346 . S
C29 C26 1.485 . S
C29 H33 0.960 . S
C29 H34 0.961 . S
C29 H35 0.960 . S
C30 N28 1.346 . S
C30 N31 1.307 . S
C30 C32 1.486 . S
N31 N27 1.370 . S
N31 C30 1.307 . S
C32 C30 1.486 . S
C32 H36 0.960 . S
C32 H37 0.960 . S
C32 H38 0.959 . S
H33 C29 0.960 . S
H34 C29 0.961 . S
H35 C29 0.960 . S
H36 C32 0.960 . S
H37 C32 0.960 . S
H38 C32 0.959 . S
C39 N40 1.317 . S
C39 N41 1.348 . S
C39 C42 1.485 . S
N40 C39 1.317 . S
N40 N44 1.370 . S
N41 C39 1.348 . S
N41 C43 1.346 . S
C42 C39 1.485 . S
C42 H46 0.960 . S
C42 H47 0.961 . S
C42 H48 0.960 . S
C43 N41 1.346 . S
C43 N44 1.307 . S
C43 C45 1.486 . S
N44 N40 1.370 . S
N44 C43 1.307 . S
C45 C43 1.486 . S
C45 H49 0.960 . S
C45 H50 0.960 . S
C45 H51 0.959 . S
H46 C42 0.960 . S
H47 C42 0.961 . S
H48 C42 0.960 . S
H49 C45 0.960 . S
H50 C45 0.960 . S
H51 C45 0.959 . S
C52 N53 1.317 . S
C52 N54 1.348 . S
C52 C55 1.485 . S
N53 C52 1.317 . S
N53 N57 1.370 . S
N54 C52 1.348 . S
N54 C56 1.346 . S
C55 C52 1.485 . S
C55 H59 0.960 . S
C55 H60 0.961 . S
C55 H61 0.960 . S
C56 N54 1.346 . S
C56 N57 1.307 . S
C56 C58 1.486 . S
N57 N53 1.370 . S
N57 C56 1.307 . S
C58 C56 1.486 . S
C58 H62 0.960 . S
C58 H63 0.960 . S
C58 H64 0.959 . S
H59 C55 0.960 . S
H60 C55 0.961 . S
H61 C55 0.960 . S
H62 C58 0.960 . S
H63 C58 0.960 . S
H64 C58 0.959 . S
C65 N66 1.317 . S
C65 N67 1.348 . S
C65 C68 1.485 . S
N66 C65 1.317 . S
N66 N70 1.370 . S
N67 C65 1.348 . S
N67 C69 1.346 . S
C68 C65 1.485 . S
C68 H72 0.960 . S
C68 H73 0.961 . S
C68 H74 0.960 . S
C69 N67 1.346 . S
C69 N70 1.307 . S
C69 C71 1.486 . S
N70 N66 1.370 . S
N70 C69 1.307 . S
C71 C69 1.486 . S
C71 H75 0.960 . S
C71 H76 0.960 . S
C71 H77 0.959 . S
H72 C68 0.960 . S
H73 C68 0.961 . S
H74 C68 0.960 . S
H75 C71 0.960 . S
H76 C71 0.960 . S
H77 C71 0.959 . S
C78 N79 1.317 . S
C78 N80 1.348 . S
C78 C81 1.485 . S
N79 C78 1.317 . S
N79 N83 1.370 . S
N80 C78 1.348 . S
N80 C82 1.346 . S
C81 C78 1.485 . S
C81 H85 0.960 . S
C81 H86 0.961 . S
C81 H87 0.960 . S
C82 N80 1.346 . S
C82 N83 1.307 . S
C82 C84 1.486 . S
N83 N79 1.370 . S
N83 C82 1.307 . S
C84 C82 1.486 . S
C84 H88 0.960 . S
C84 H89 0.960 . S
C84 H90 0.959 . S
H85 C81 0.960 . S
H86 C81 0.961 . S
H87 C81 0.960 . S
H88 C84 0.960 . S
H89 C84 0.960 . S
H90 C84 0.959 . S
C91 N92 1.317 . S
C91 N93 1.348 . S
C91 C94 1.485 . S
N92 C91 1.317 . S
N92 N96 1.370 . S
N93 C91 1.348 . S
N93 C95 1.346 . S
C94 C91 1.485 . S
C94 H98 0.960 . S
C94 H99 0.961 . S
C94 H100 0.960 . S
C95 N93 1.346 . S
C95 N96 1.307 . S
C95 C97 1.486 . S
N96 N92 1.370 . S
N96 C95 1.307 . S
C97 C95 1.486 . S
C97 H101 0.960 . S
C97 H102 0.960 . S
C97 H103 0.959 . S
H98 C94 0.960 . S
H99 C94 0.961 . S
H100 C94 0.960 . S
H101 C97 0.960 . S
H102 C97 0.960 . S
H103 C97 0.959 . S
Gd104 C107 2.818 . S
Gd104 O124 2.377 . S
Gd104 O126 2.448 . S
Gd104 O127 2.506 . S
Gd104 O128 2.435 . S
Gd104 O129 2.717 . S
Gd104 O131 2.395 1_545 S
Gd104 O135 2.327 . S
Gd105 C116 2.818 1_445 S
Gd105 O125 2.395 . S
Gd105 O129 2.327 . S
Gd105 O130 2.377 1_445 S
Gd105 O132 2.448 1_445 S
Gd105 O133 2.506 1_545 S
Gd105 O134 2.435 1_455 S
Gd105 O135 2.717 . S
C106 O124 1.240 . S
C106 O125 1.240 . S
C107 Gd104 2.818 . S
C107 C108 1.510 . S
C107 O126 1.249 . S
C107 O127 1.252 . S
C108 C107 1.510 . S
C108 C109 1.404 . S
C108 C110 1.352 . S
C109 C108 1.404 . S
C109 C113 1.389 . S
C109 H136 0.930 . S
C110 C108 1.352 . S
C110 C112 1.374 . S
C110 H137 0.931 . S
C111 C112 1.359 . S
C111 C113 1.364 . S
C112 C110 1.374 . S
C112 C111 1.359 . S
C112 H138 0.931 . S
C113 C109 1.389 . S
C113 C111 1.364 . S
C113 H139 0.931 . S
C114 O128 1.256 1_565 S
C114 O129 1.257 1_565 S
C115 O130 1.240 1_455 S
C115 O131 1.240 . S
C116 Gd105 2.818 1_665 S
C116 C117 1.510 . S
C116 O132 1.249 . S
C116 O133 1.223 1_655 S
C117 C116 1.510 . S
C117 C118 1.404 . S
C117 C119 1.352 . S
C118 C117 1.404 . S
C118 C122 1.389 . S
C118 H140 0.930 . S
C119 C117 1.352 . S
C119 C121 1.374 . S
C119 H141 0.931 . S
C120 C121 1.359 . S
C120 C122 1.364 . S
C121 C119 1.374 . S
C121 C120 1.359 . S
C121 H142 0.931 . S
C122 C118 1.389 . S
C122 C120 1.364 . S
C122 H143 0.931 . S
C123 O134 1.256 . S
C123 O135 1.257 1_655 S
O124 Gd104 2.377 . S
O124 C106 1.240 . S
O125 Gd105 2.395 . S
O125 C106 1.240 . S
O126 Gd104 2.448 . S
O126 C107 1.249 . S
O127 Gd104 2.506 . S
O127 C107 1.252 . S
O128 Gd104 2.435 . S
O128 C114 1.256 1_545 S
O129 Gd104 2.717 . S
O129 Gd105 2.327 . S
O129 C114 1.257 1_545 S
O130 Gd105 2.377 1_665 S
O130 C115 1.240 1_655 S
O131 Gd104 2.395 1_565 S
O131 C115 1.240 . S
O132 Gd105 2.448 1_665 S
O132 C116 1.249 . S
O133 Gd105 2.506 1_565 S
O133 C116 1.223 1_455 S
O134 Gd105 2.435 1_655 S
O134 C123 1.256 . S
O135 Gd104 2.327 . S
O135 Gd105 2.717 . S
O135 C123 1.257 1_455 S
H136 C109 0.930 . S
H137 C110 0.931 . S
H138 C112 0.931 . S
H139 C113 0.931 . S
H140 C118 0.930 . S
H141 C119 0.931 . S
H142 C121 0.931 . S
H143 C122 0.931 . S
Gd144 C147 2.818 . S
Gd144 O164 2.377 . S
Gd144 O166 2.448 . S
Gd144 O167 2.506 . S
Gd144 O168 2.435 1_545 S
Gd144 O169 2.717 . S
Gd144 O171 2.395 . S
Gd144 O175 2.327 . S
Gd145 C156 2.818 1_554 S
Gd145 O165 2.395 . S
Gd145 O169 2.327 . S
Gd145 O170 2.377 1_554 S
Gd145 O172 2.448 1_554 S
Gd145 O173 2.506 1_544 S
Gd145 O174 2.435 1_554 S
Gd145 O175 2.717 . S
C146 O164 1.240 . S
C146 O165 1.240 . S
C147 Gd144 2.818 . S
C147 C148 1.510 . S
C147 O166 1.249 . S
C147 O167 1.252 . S
C148 C147 1.510 . S
C148 C149 1.404 . S
C148 C150 1.352 . S
C149 C148 1.404 . S
C149 C153 1.389 . S
C149 H176 0.930 . S
C150 C148 1.352 . S
C150 C152 1.374 . S
C150 H177 0.931 . S
C151 C152 1.359 . S
C151 C153 1.364 . S
C152 C150 1.374 . S
C152 C151 1.359 . S
C152 H178 0.931 . S
C153 C149 1.389 . S
C153 C151 1.364 . S
C153 H179 0.931 . S
C154 O168 1.256 . S
C154 O169 1.257 1_565 S
C155 O170 1.240 1_554 S
C155 O171 1.240 . S
C156 Gd145 2.818 1_556 S
C156 C157 1.510 1_545 S
C156 O172 1.249 . S
C156 O173 1.252 1_545 S
C157 C156 1.510 1_565 S
C157 C158 1.404 . S
C157 C159 1.352 . S
C158 C157 1.404 . S
C158 C162 1.389 . S
C158 H180 0.930 1_565 S
C159 C157 1.352 . S
C159 C161 1.374 . S
C159 H181 0.931 . S
C160 C161 1.359 . S
C160 C162 1.364 . S
C161 C159 1.374 . S
C161 C160 1.359 . S
C161 H182 0.931 . S
C162 C158 1.389 . S
C162 C160 1.364 . S
C162 H183 0.931 . S
C163 O174 1.256 1_554 S
C163 O175 1.257 . S
O164 Gd144 2.377 . S
O164 C146 1.240 . S
O165 Gd145 2.395 . S
O165 C146 1.240 . S
O166 Gd144 2.448 . S
O166 C147 1.249 . S
O167 Gd144 2.506 . S
O167 C147 1.252 . S
O168 Gd144 2.435 1_565 S
O168 C154 1.256 . S
O169 Gd144 2.717 . S
O169 Gd145 2.327 . S
O169 C154 1.257 1_545 S
O170 Gd145 2.377 1_556 S
O170 C155 1.240 1_556 S
O171 Gd144 2.395 . S
O171 C155 1.240 . S
O172 Gd145 2.448 1_556 S
O172 C156 1.249 . S
O173 Gd145 2.506 1_566 S
O173 C156 1.252 1_565 S
O174 Gd145 2.435 1_556 S
O174 C163 1.256 1_556 S
O175 Gd144 2.327 . S
O175 Gd145 2.717 . S
O175 C163 1.257 . S
H176 C149 0.930 . S
H177 C150 0.931 . S
H178 C152 0.931 . S
H179 C153 0.931 . S
H180 C158 0.930 1_545 S
H181 C159 0.931 . S
H182 C161 0.931 . S
H183 C162 0.931 . S
Gd184 C187 2.818 . S
Gd184 O204 2.377 . S
Gd184 O206 2.448 . S
Gd184 O207 2.506 . S
Gd184 O208 2.435 . S
Gd184 O209 2.717 . S
Gd184 O211 2.395 . S
Gd184 O215 2.327 . S
Gd185 C196 2.818 . S
Gd185 O205 2.395 . S
Gd185 O209 2.327 . S
Gd185 O210 2.377 . S
Gd185 O212 2.448 . S
Gd185 O213 2.506 . S
Gd185 O214 2.435 . S
Gd185 O215 2.717 . S
C186 O204 1.240 . S
C186 O205 1.240 . S
C187 Gd184 2.818 . S
C187 C188 1.510 . S
C187 O206 1.249 . S
C187 O207 1.252 . S
C188 C187 1.510 . S
C188 C189 1.404 . S
C188 C190 1.352 . S
C189 C188 1.404 . S
C189 C193 1.389 . S
C189 H216 0.930 . S
C190 C188 1.352 . S
C190 C192 1.374 . S
C190 H217 0.931 . S
C191 C192 1.359 . S
C191 C193 1.364 . S
C192 C190 1.374 . S
C192 C191 1.359 . S
C192 H218 0.931 . S
C193 C189 1.389 . S
C193 C191 1.364 . S
C193 H219 0.931 . S
C194 O208 1.256 . S
C194 O209 1.257 . S
C195 O210 1.240 . S
C195 O211 1.240 . S
C196 Gd185 2.818 . S
C196 C197 1.510 . S
C196 O212 1.249 . S
C196 O213 1.252 . S
C197 C196 1.510 . S
C197 C198 1.404 . S
C197 C199 1.352 . S
C198 C197 1.404 . S
C198 C202 1.389 . S
C198 H220 0.930 . S
C199 C197 1.352 . S
C199 C201 1.374 . S
C199 H221 0.931 . S
C200 C201 1.359 . S
C200 C202 1.364 . S
C201 C199 1.374 . S
C201 C200 1.359 . S
C201 H222 0.931 . S
C202 C198 1.389 . S
C202 C200 1.364 . S
C202 H223 0.931 . S
C203 O214 1.256 . S
C203 O215 1.257 . S
O204 Gd184 2.377 . S
O204 C186 1.240 . S
O205 Gd185 2.395 . S
O205 C186 1.240 . S
O206 Gd184 2.448 . S
O206 C187 1.249 . S
O207 Gd184 2.506 . S
O207 C187 1.252 . S
O208 Gd184 2.435 . S
O208 C194 1.256 . S
O209 Gd184 2.717 . S
O209 Gd185 2.327 . S
O209 C194 1.257 . S
O210 Gd185 2.377 . S
O210 C195 1.240 . S
O211 Gd184 2.395 . S
O211 C195 1.240 . S
O212 Gd185 2.448 . S
O212 C196 1.249 . S
O213 Gd185 2.506 . S
O213 C196 1.252 . S
O214 Gd185 2.435 . S
O214 C203 1.256 . S
O215 Gd184 2.327 . S
O215 Gd185 2.717 . S
O215 C203 1.257 . S
H216 C189 0.930 . S
H217 C190 0.931 . S
H218 C192 0.931 . S
H219 C193 0.931 . S
H220 C198 0.930 . S
H221 C199 0.931 . S
H222 C201 0.931 . S
H223 C202 0.931 . S
Gd224 C227 2.818 . S
Gd224 O244 2.377 . S
Gd224 O246 2.448 . S
Gd224 O247 2.506 . S
Gd224 O248 2.435 1_455 S
Gd224 O249 2.717 1_455 S
Gd224 O251 2.395 1_455 S
Gd224 O255 2.327 1_554 S
Gd225 C236 2.818 1_455 S
Gd225 O245 2.395 1_556 S
Gd225 O249 2.327 1_456 S
Gd225 O250 2.377 1_455 S
Gd225 O252 2.448 1_455 S
Gd225 O253 2.506 1_455 S
Gd225 O254 2.435 . S
Gd225 O255 2.717 . S
C226 O244 1.240 . S
C226 O245 1.240 . S
C227 Gd224 2.818 . S
C227 C228 1.510 . S
C227 O246 1.249 . S
C227 O247 1.252 . S
C228 C227 1.510 . S
C228 C229 1.404 . S
C228 C230 1.352 . S
C229 C228 1.404 . S
C229 C233 1.389 . S
C229 H256 0.930 . S
C230 C228 1.352 . S
C230 C232 1.374 . S
C230 H257 0.931 . S
C231 C232 1.359 . S
C231 C233 1.364 . S
C232 C230 1.374 . S
C232 C231 1.359 . S
C232 H258 0.931 . S
C233 C229 1.389 . S
C233 C231 1.364 . S
C233 H259 0.931 . S
C234 O248 1.256 . S
C234 O249 1.257 . S
C235 O250 1.240 . S
C235 O251 1.240 1_556 S
C236 Gd225 2.818 1_655 S
C236 C237 1.510 . S
C236 O252 1.249 . S
C236 O253 1.252 . S
C237 C236 1.510 . S
C237 C238 1.404 . S
C237 C239 1.352 . S
C238 C237 1.404 . S
C238 C242 1.389 . S
C238 H260 0.930 . S
C239 C237 1.352 . S
C239 C241 1.374 . S
C239 H261 0.931 . S
C240 C241 1.359 . S
C240 C242 1.364 . S
C241 C239 1.374 . S
C241 C240 1.359 . S
C241 H262 0.931 . S
C242 C238 1.389 . S
C242 C240 1.364 . S
C242 H263 0.931 . S
C243 O254 1.256 . S
C243 O255 1.257 . S
O244 Gd224 2.377 . S
O244 C226 1.240 . S
O245 Gd225 2.395 1_554 S
O245 C226 1.240 . S
O246 Gd224 2.448 . S
O246 C227 1.249 . S
O247 Gd224 2.506 . S
O247 C227 1.252 . S
O248 Gd224 2.435 1_655 S
O248 C234 1.256 . S
O249 Gd224 2.717 1_655 S
O249 Gd225 2.327 1_654 S
O249 C234 1.257 . S
O250 Gd225 2.377 1_655 S
O250 C235 1.240 . S
O251 Gd224 2.395 1_655 S
O251 C235 1.240 1_554 S
O252 Gd225 2.448 1_655 S
O252 C236 1.249 . S
O253 Gd225 2.506 1_655 S
O253 C236 1.252 . S
O254 Gd225 2.435 . S
O254 C243 1.256 . S
O255 Gd224 2.327 1_556 S
O255 Gd225 2.717 . S
O255 C243 1.257 . S
H256 C229 0.930 . S
H257 C230 0.931 . S
H258 C232 0.931 . S
H259 C233 0.931 . S
H260 C238 0.930 . S
H261 C239 0.931 . S
H262 C241 0.931 . S
H263 C242 0.931 . S
C264 C265 1.349 . S
C264 C266 1.327 . S
C264 H289 0.950 . S
C265 C264 1.349 . S
C265 C281 1.349 . S
C266 C264 1.327 . S
C266 C285 1.429 . S
C266 H290 0.950 . S
C267 C284 1.574 . S
C267 C286 1.368 . S
C267 H291 0.949 . S
H268 C272 0.949 . S
C269 C270 1.349 . S
C269 C271 1.327 . S
C269 H292 0.950 . S
C270 C269 1.349 . S
C270 C282 1.349 . S
C271 C269 1.327 . S
C271 C287 1.429 . S
C271 H293 0.950 . S
C272 H268 0.949 . S
C272 C280 1.574 . S
C272 C288 1.368 . S
H273 C281 0.950 . S
H274 C279 0.950 . S
H275 C280 0.949 . S
H276 C282 0.950 . S
H277 C283 0.950 . S
H278 C284 0.949 . S
C279 H274 0.950 . S
C279 C281 1.327 . S
C279 C285 1.429 . S
C280 C272 1.574 . S
C280 H275 0.949 . S
C280 C286 1.368 . S
C281 C265 1.349 . S
C281 H273 0.950 . S
C281 C279 1.327 . S
C282 C270 1.349 . S
C282 H276 0.950 . S
C282 C283 1.327 . S
C283 H277 0.950 . S
C283 C282 1.327 . S
C283 C287 1.429 . S
C284 C267 1.574 . S
C284 H278 0.949 . S
C284 C288 1.368 . S
C285 C266 1.429 . S
C285 C279 1.429 . S
C285 C286 1.523 . S
C286 C267 1.368 . S
C286 C280 1.368 . S
C286 C285 1.523 . S
C287 C271 1.429 . S
C287 C283 1.429 . S
C287 C288 1.523 . S
C288 C272 1.368 . S
C288 C284 1.368 . S
C288 C287 1.523 . S
H289 C264 0.950 . S
H290 C266 0.950 . S
H291 C267 0.949 . S
H292 C269 0.950 . S
H293 C271 0.950 . S
C294 C295 1.349 . S
C294 C296 1.327 . S
C294 H319 0.950 . S
C295 C294 1.349 . S
C295 C311 1.349 . S
C296 C294 1.327 . S
C296 C315 1.429 . S
C296 H320 0.950 . S
C297 C314 1.574 . S
C297 C316 1.368 . S
C297 H321 0.949 . S
H298 C302 0.949 . S
C299 C300 1.349 . S
C299 C301 1.327 . S
C299 H322 0.950 . S
C300 C299 1.349 . S
C300 C312 1.349 . S
C301 C299 1.327 . S
C301 C317 1.429 . S
C301 H323 0.950 . S
C302 H298 0.949 . S
C302 C310 1.574 . S
C302 C318 1.368 . S
H303 C311 0.950 . S
H304 C309 0.950 . S
H305 C310 0.949 . S
H306 C312 0.950 . S
H307 C313 0.950 . S
H308 C314 0.949 . S
C309 H304 0.950 . S
C309 C311 1.327 . S
C309 C315 1.429 . S
C310 C302 1.574 . S
C310 H305 0.949 . S
C310 C316 1.368 . S
C311 C295 1.349 . S
C311 H303 0.950 . S
C311 C309 1.327 . S
C312 C300 1.349 . S
C312 H306 0.950 . S
C312 C313 1.327 . S
C313 H307 0.950 . S
C313 C312 1.327 . S
C313 C317 1.429 . S
C314 C297 1.574 . S
C314 H308 0.949 . S
C314 C318 1.368 . S
C315 C296 1.429 . S
C315 C309 1.429 . S
C315 C316 1.523 . S
C316 C297 1.368 . S
C316 C310 1.368 . S
C316 C315 1.523 . S
C317 C301 1.429 . S
C317 C313 1.429 . S
C317 C318 1.523 . S
C318 C302 1.368 . S
C318 C314 1.368 . S
C318 C317 1.523 . S
H319 C294 0.950 . S
H320 C296 0.950 . S
H321 C297 0.949 . S
H322 C299 0.950 . S
H323 C301 0.950 . S
C324 C325 1.349 . S
C324 C326 1.327 . S
C324 H349 0.950 . S
C325 C324 1.349 . S
C325 C341 1.349 . S
C326 C324 1.327 . S
C326 C345 1.429 . S
C326 H350 0.950 . S
C327 C344 1.574 . S
C327 C346 1.368 . S
C327 H351 0.949 . S
H328 C332 0.949 . S
C329 C330 1.349 . S
C329 C331 1.327 . S
C329 H352 0.950 . S
C330 C329 1.349 . S
C330 C342 1.349 . S
C331 C329 1.327 . S
C331 C347 1.429 . S
C331 H353 0.950 . S
C332 H328 0.949 . S
C332 C340 1.574 . S
C332 C348 1.368 . S
H333 C341 0.950 . S
H334 C339 0.950 . S
H335 C340 0.949 . S
H336 C342 0.950 . S
H337 C343 0.950 . S
H338 C344 0.949 . S
C339 H334 0.950 . S
C339 C341 1.327 . S
C339 C345 1.429 . S
C340 C332 1.574 . S
C340 H335 0.949 . S
C340 C346 1.368 . S
C341 C325 1.349 . S
C341 H333 0.950 . S
C341 C339 1.327 . S
C342 C330 1.349 . S
C342 H336 0.950 . S
C342 C343 1.327 . S
C343 H337 0.950 . S
C343 C342 1.327 . S
C343 C347 1.429 . S
C344 C327 1.574 . S
C344 H338 0.949 . S
C344 C348 1.368 . S
C345 C326 1.429 . S
C345 C339 1.429 . S
C345 C346 1.523 . S
C346 C327 1.368 . S
C346 C340 1.368 . S
C346 C345 1.523 . S
C347 C331 1.429 . S
C347 C343 1.429 . S
C347 C348 1.523 . S
C348 C332 1.368 . S
C348 C344 1.368 . S
C348 C347 1.523 . S
H349 C324 0.950 . S
H350 C326 0.950 . S
H351 C327 0.949 . S
H352 C329 0.950 . S
H353 C331 0.950 . S
C354 C355 1.349 . S
C354 C356 1.327 . S
C354 H379 0.950 . S
C355 C354 1.349 . S
C355 C371 1.349 . S
C356 C354 1.327 . S
C356 C375 1.429 . S
C356 H380 0.950 . S
C357 C374 1.574 . S
C357 C376 1.368 . S
C357 H381 0.949 . S
H358 C362 0.949 . S
C359 C360 1.349 . S
C359 C361 1.327 . S
C359 H382 0.950 . S
C360 C359 1.349 . S
C360 C372 1.349 . S
C361 C359 1.327 . S
C361 C377 1.429 . S
C361 H383 0.950 . S
C362 H358 0.949 . S
C362 C370 1.574 . S
C362 C378 1.368 . S
H363 C371 0.950 . S
H364 C369 0.950 . S
H365 C370 0.949 . S
H366 C372 0.950 . S
H367 C373 0.950 . S
H368 C374 0.949 . S
C369 H364 0.950 . S
C369 C371 1.327 . S
C369 C375 1.429 . S
C370 C362 1.574 . S
C370 H365 0.949 . S
C370 C376 1.368 . S
C371 C355 1.349 . S
C371 H363 0.950 . S
C371 C369 1.327 . S
C372 C360 1.349 . S
C372 H366 0.950 . S
C372 C373 1.327 . S
C373 H367 0.950 . S
C373 C372 1.327 . S
C373 C377 1.429 . S
C374 C357 1.574 . S
C374 H368 0.949 . S
C374 C378 1.368 . S
C375 C356 1.429 . S
C375 C369 1.429 . S
C375 C376 1.523 . S
C376 C357 1.368 . S
C376 C370 1.368 . S
C376 C375 1.523 . S
C377 C361 1.429 . S
C377 C373 1.429 . S
C377 C378 1.523 . S
C378 C362 1.368 . S
C378 C374 1.368 . S
C378 C377 1.523 . S
H379 C354 0.950 . S
H380 C356 0.950 . S
H381 C357 0.949 . S
H382 C359 0.950 . S
H383 C361 0.950 . S
C384 C385 1.349 . S
C384 C386 1.327 . S
C384 H409 0.950 . S
C385 C384 1.349 . S
C385 C401 1.349 . S
C386 C384 1.327 . S
C386 C405 1.429 . S
C386 H410 0.950 . S
C387 C404 1.574 . S
C387 C406 1.368 . S
C387 H411 0.949 . S
H388 C392 0.949 . S
C389 C390 1.349 . S
C389 C391 1.327 . S
C389 H412 0.950 . S
C390 C389 1.349 . S
C390 C402 1.349 . S
C391 C389 1.327 . S
C391 C407 1.429 . S
C391 H413 0.950 . S
C392 H388 0.949 . S
C392 C400 1.574 . S
C392 C408 1.368 . S
H393 C401 0.950 . S
H394 C399 0.950 . S
H395 C400 0.949 . S
H396 C402 0.950 . S
H397 C403 0.950 . S
H398 C404 0.949 . S
C399 H394 0.950 . S
C399 C401 1.327 . S
C399 C405 1.429 . S
C400 C392 1.574 . S
C400 H395 0.949 . S
C400 C406 1.368 . S
C401 C385 1.349 . S
C401 H393 0.950 . S
C401 C399 1.327 . S
C402 C390 1.349 . S
C402 H396 0.950 . S
C402 C403 1.327 . S
C403 H397 0.950 . S
C403 C402 1.327 . S
C403 C407 1.429 . S
C404 C387 1.574 . S
C404 H398 0.949 . S
C404 C408 1.368 . S
C405 C386 1.429 . S
C405 C399 1.429 . S
C405 C406 1.523 . S
C406 C387 1.368 . S
C406 C400 1.368 . S
C406 C405 1.523 . S
C407 C391 1.429 . S
C407 C403 1.429 . S
C407 C408 1.523 . S
C408 C392 1.368 . S
C408 C404 1.368 . S
C408 C407 1.523 . S
H409 C384 0.950 . S
H410 C386 0.950 . S
H411 C387 0.949 . S
H412 C389 0.950 . S
H413 C391 0.950 . S
C414 C415 1.349 . S
C414 C416 1.327 . S
C414 H439 0.950 . S
C415 C414 1.349 . S
C415 C431 1.349 . S
C416 C414 1.327 . S
C416 C435 1.429 . S
C416 H440 0.950 . S
C417 C434 1.574 . S
C417 C436 1.368 . S
C417 H441 0.949 . S
H418 C422 0.949 . S
C419 C420 1.349 . S
C419 C421 1.327 . S
C419 H442 0.950 1_565 S
C420 C419 1.349 . S
C420 C432 1.349 . S
C421 C419 1.327 . S
C421 C437 1.429 . S
C421 H443 0.950 . S
C422 H418 0.949 . S
C422 C430 1.574 . S
C422 C438 1.368 . S
H423 C431 0.950 . S
H424 C429 0.950 . S
H425 C430 0.949 . S
H426 C432 0.950 . S
H427 C433 0.950 . S
H428 C434 0.949 . S
C429 H424 0.950 . S
C429 C431 1.327 . S
C429 C435 1.429 . S
C430 C422 1.574 . S
C430 H425 0.949 . S
C430 C436 1.368 . S
C431 C415 1.349 . S
C431 H423 0.950 . S
C431 C429 1.327 . S
C432 C420 1.349 . S
C432 H426 0.950 . S
C432 C433 1.327 . S
C433 H427 0.950 . S
C433 C432 1.327 . S
C433 C437 1.429 . S
C434 C417 1.574 . S
C434 H428 0.949 . S
C434 C438 1.368 . S
C435 C416 1.429 . S
C435 C429 1.429 . S
C435 C436 1.523 . S
C436 C417 1.368 . S
C436 C430 1.368 . S
C436 C435 1.523 . S
C437 C421 1.429 . S
C437 C433 1.429 . S
C437 C438 1.523 . S
C438 C422 1.368 . S
C438 C434 1.368 . S
C438 C437 1.523 . S
H439 C414 0.950 . S
H440 C416 0.950 . S
H441 C417 0.949 . S
H442 C419 0.950 1_545 S
H443 C421 0.950 . S
C444 C445 1.349 . S
C444 C446 1.327 . S
C444 H469 0.950 . S
C445 C444 1.349 . S
C445 C461 1.349 . S
C446 C444 1.327 . S
C446 C465 1.429 . S
C446 H470 0.950 . S
C447 C464 1.574 . S
C447 C466 1.368 . S
C447 H471 0.949 . S
H448 C452 0.949 . S
C449 C450 1.349 . S
C449 C451 1.327 . S
C449 H472 0.950 . S
C450 C449 1.349 . S
C450 C462 1.349 . S
C451 C449 1.327 . S
C451 C467 1.429 . S
C451 H473 0.950 . S
C452 H448 0.949 . S
C452 C460 1.574 . S
C452 C468 1.368 . S
H453 C461 0.950 . S
H454 C459 0.950 . S
H455 C460 0.949 . S
H456 C462 0.950 . S
H457 C463 0.950 . S
H458 C464 0.949 . S
C459 H454 0.950 . S
C459 C461 1.327 . S
C459 C465 1.429 . S
C460 C452 1.574 . S
C460 H455 0.949 . S
C460 C466 1.368 . S
C461 C445 1.349 . S
C461 H453 0.950 . S
C461 C459 1.327 . S
C462 C450 1.349 . S
C462 H456 0.950 . S
C462 C463 1.327 . S
C463 H457 0.950 . S
C463 C462 1.327 . S
C463 C467 1.429 . S
C464 C447 1.574 . S
C464 H458 0.949 . S
C464 C468 1.368 . S
C465 C446 1.429 . S
C465 C459 1.429 . S
C465 C466 1.523 . S
C466 C447 1.368 . S
C466 C460 1.368 . S
C466 C465 1.523 . S
C467 C451 1.429 . S
C467 C463 1.429 . S
C467 C468 1.523 . S
C468 C452 1.368 . S
C468 C464 1.368 . S
C468 C467 1.523 . S
H469 C444 0.950 . S
H470 C446 0.950 . S
H471 C447 0.949 . S
H472 C449 0.950 . S
H473 C451 0.950 . S
C474 C475 1.349 . S
C474 C476 1.327 . S
C474 H499 0.950 . S
C475 C474 1.349 . S
C475 C491 1.349 . S
C476 C474 1.327 . S
C476 C495 1.429 . S
C476 H500 0.950 . S
C477 C494 1.574 . S
C477 C496 1.368 . S
C477 H501 0.949 . S
H478 C482 0.949 . S
C479 C480 1.349 . S
C479 C481 1.327 . S
C479 H502 0.950 . S
C480 C479 1.349 . S
C480 C492 1.349 . S
C481 C479 1.327 . S
C481 C497 1.429 . S
C481 H503 0.950 . S
C482 H478 0.949 . S
C482 C490 1.574 . S
C482 C498 1.368 . S
H483 C491 0.950 . S
H484 C489 0.950 . S
H485 C490 0.949 . S
H486 C492 0.950 . S
H487 C493 0.950 . S
H488 C494 0.949 . S
C489 H484 0.950 . S
C489 C491 1.327 . S
C489 C495 1.429 . S
C490 C482 1.574 . S
C490 H485 0.949 . S
C490 C496 1.368 . S
C491 C475 1.349 . S
C491 H483 0.950 . S
C491 C489 1.327 . S
C492 C480 1.349 . S
C492 H486 0.950 . S
C492 C493 1.327 . S
C493 H487 0.950 . S
C493 C492 1.327 . S
C493 C497 1.429 . S
C494 C477 1.574 . S
C494 H488 0.949 . S
C494 C498 1.368 . S
C495 C476 1.429 . S
C495 C489 1.429 . S
C495 C496 1.523 . S
C496 C477 1.368 . S
C496 C490 1.368 . S
C496 C495 1.523 . S
C497 C481 1.429 . S
C497 C493 1.429 . S
C497 C498 1.523 . S
C498 C482 1.368 . S
C498 C494 1.368 . S
C498 C497 1.523 . S
H499 C474 0.950 . S
H500 C476 0.950 . S
H501 C477 0.949 . S
H502 C479 0.950 . S
H503 C481 0.950 . S
C504 C505 1.349 . S
C504 C506 1.327 . S
C504 H529 0.950 . S
C505 C504 1.349 . S
C505 C521 1.349 . S
C506 C504 1.327 . S
C506 C525 1.429 . S
C506 H530 0.950 . S
C507 C524 1.574 . S
C507 C526 1.368 . S
C507 H531 0.949 . S
H508 C512 0.949 . S
C509 C510 1.349 . S
C509 C511 1.327 . S
C509 H532 0.950 . S
C510 C509 1.349 . S
C510 C522 1.349 . S
C511 C509 1.327 . S
C511 C527 1.429 . S
C511 H533 0.950 . S
C512 H508 0.949 . S
C512 C520 1.574 . S
C512 C528 1.368 . S
H513 C521 0.950 . S
H514 C519 0.950 . S
H515 C520 0.949 . S
H516 C522 0.950 . S
H517 C523 0.950 . S
H518 C524 0.949 . S
C519 H514 0.950 . S
C519 C521 1.327 . S
C519 C525 1.429 . S
C520 C512 1.574 . S
C520 H515 0.949 . S
C520 C526 1.368 . S
C521 C505 1.349 . S
C521 H513 0.950 . S
C521 C519 1.327 . S
C522 C510 1.349 . S
C522 H516 0.950 . S
C522 C523 1.327 . S
C523 H517 0.950 . S
C523 C522 1.327 . S
C523 C527 1.429 . S
C524 C507 1.574 . S
C524 H518 0.949 . S
C524 C528 1.368 . S
C525 C506 1.429 . S
C525 C519 1.429 . S
C525 C526 1.523 . S
C526 C507 1.368 . S
C526 C520 1.368 . S
C526 C525 1.523 . S
C527 C511 1.429 . S
C527 C523 1.429 . S
C527 C528 1.523 . S
C528 C512 1.368 . S
C528 C524 1.368 . S
C528 C527 1.523 . S
H529 C504 0.950 . S
H530 C506 0.950 . S
H531 C507 0.949 . S
H532 C509 0.950 . S
H533 C511 0.950 . S
C534 C535 1.349 . S
C534 C536 1.327 . S
C534 H559 0.950 . S
C535 C534 1.349 . S
C535 C551 1.349 . S
C536 C534 1.327 . S
C536 C555 1.429 . S
C536 H560 0.950 . S
C537 C554 1.574 . S
C537 C556 1.368 . S
C537 H561 0.949 . S
H538 C542 0.949 . S
C539 C540 1.349 . S
C539 C541 1.327 . S
C539 H562 0.950 1_556 S
C540 C539 1.349 . S
C540 C552 1.349 . S
C541 C539 1.327 . S
C541 C557 1.429 . S
C541 H563 0.950 . S
C542 H538 0.949 . S
C542 C550 1.574 . S
C542 C558 1.368 . S
H543 C551 0.950 . S
H544 C549 0.950 . S
H545 C550 0.949 . S
H546 C552 0.950 . S
H547 C553 0.950 . S
H548 C554 0.949 . S
C549 H544 0.950 . S
C549 C551 1.327 . S
C549 C555 1.429 . S
C550 C542 1.574 . S
C550 H545 0.949 . S
C550 C556 1.368 . S
C551 C535 1.349 . S
C551 H543 0.950 . S
C551 C549 1.327 . S
C552 C540 1.349 . S
C552 H546 0.950 . S
C552 C553 1.327 . S
C553 H547 0.950 . S
C553 C552 1.327 . S
C553 C557 1.429 . S
C554 C537 1.574 . S
C554 H548 0.949 . S
C554 C558 1.368 . S
C555 C536 1.429 . S
C555 C549 1.429 . S
C555 C556 1.523 . S
C556 C537 1.368 . S
C556 C550 1.368 . S
C556 C555 1.523 . S
C557 C541 1.429 . S
C557 C553 1.429 . S
C557 C558 1.523 . S
C558 C542 1.368 . S
C558 C554 1.368 . S
C558 C557 1.523 . S
H559 C534 0.950 . S
H560 C536 0.950 . S
H561 C537 0.949 . S
H562 C539 0.950 1_554 S
H563 C541 0.950 . S
C564 C565 1.349 . S
C564 C566 1.327 . S
C564 H589 0.950 . S
C565 C564 1.349 . S
C565 C581 1.349 . S
C566 C564 1.327 . S
C566 C585 1.429 . S
C566 H590 0.950 . S
C567 C584 1.574 . S
C567 C586 1.368 . S
C567 H591 0.949 . S
H568 C572 0.949 . S
C569 C570 1.349 . S
C569 C571 1.327 . S
C569 H592 0.950 . S
C570 C569 1.349 . S
C570 C582 1.349 . S
C571 C569 1.327 . S
C571 C587 1.429 . S
C571 H593 0.950 . S
C572 H568 0.949 . S
C572 C580 1.574 . S
C572 C588 1.368 . S
H573 C581 0.950 . S
H574 C579 0.950 . S
H575 C580 0.949 . S
H576 C582 0.950 1_455 S
H577 C583 0.950 . S
H578 C584 0.949 . S
C579 H574 0.950 . S
C579 C581 1.327 . S
C579 C585 1.429 . S
C580 C572 1.574 . S
C580 H575 0.949 . S
C580 C586 1.368 . S
C581 C565 1.349 . S
C581 H573 0.950 . S
C581 C579 1.327 . S
C582 C570 1.349 . S
C582 H576 0.950 1_655 S
C582 C583 1.327 . S
C583 H577 0.950 . S
C583 C582 1.327 . S
C583 C587 1.429 . S
C584 C567 1.574 . S
C584 H578 0.949 . S
C584 C588 1.368 . S
C585 C566 1.429 . S
C585 C579 1.429 . S
C585 C586 1.523 . S
C586 C567 1.368 . S
C586 C580 1.368 . S
C586 C585 1.523 . S
C587 C571 1.429 . S
C587 C583 1.429 . S
C587 C588 1.523 . S
C588 C572 1.368 . S
C588 C584 1.368 . S
C588 C587 1.523 . S
H589 C564 0.950 . S
H590 C566 0.950 . S
H591 C567 0.949 . S
H592 C569 0.950 . S
H593 C571 0.950 . S
C594 C595 1.349 . S
C594 C596 1.327 . S
C594 H619 0.950 . S
C595 C594 1.349 . S
C595 C611 1.349 . S
C596 C594 1.327 . S
C596 C615 1.429 . S
C596 H620 0.950 . S
C597 C614 1.574 . S
C597 C616 1.368 . S
C597 H621 0.949 . S
H598 C602 0.949 . S
C599 C600 1.349 . S
C599 C601 1.327 . S
C599 H622 0.950 . S
C600 C599 1.349 . S
C600 C612 1.349 . S
C601 C599 1.327 . S
C601 C617 1.429 . S
C601 H623 0.950 . S
C602 H598 0.949 . S
C602 C610 1.574 . S
C602 C618 1.368 . S
H603 C611 0.950 . S
H604 C609 0.950 . S
H605 C610 0.949 . S
H606 C612 0.950 . S
H607 C613 0.950 . S
H608 C614 0.949 . S
C609 H604 0.950 . S
C609 C611 1.327 . S
C609 C615 1.429 . S
C610 C602 1.574 . S
C610 H605 0.949 . S
C610 C616 1.368 . S
C611 C595 1.349 . S
C611 H603 0.950 . S
C611 C609 1.327 . S
C612 C600 1.349 . S
C612 H606 0.950 . S
C612 C613 1.327 . S
C613 H607 0.950 . S
C613 C612 1.327 . S
C613 C617 1.429 . S
C614 C597 1.574 . S
C614 H608 0.949 . S
C614 C618 1.368 . S
C615 C596 1.429 . S
C615 C609 1.429 . S
C615 C616 1.523 . S
C616 C597 1.368 . S
C616 C610 1.368 . S
C616 C615 1.523 . S
C617 C601 1.429 . S
C617 C613 1.429 . S
C617 C618 1.523 . S
C618 C602 1.368 . S
C618 C614 1.368 . S
C618 C617 1.523 . S
H619 C594 0.950 . S
H620 C596 0.950 . S
H621 C597 0.949 . S
H622 C599 0.950 . S
H623 C601 0.950 . S
C624 C625 1.349 . S
C624 C626 1.327 . S
C624 H649 0.950 . S
C625 C624 1.349 . S
C625 C641 1.349 . S
C626 C624 1.327 . S
C626 C645 1.429 . S
C626 H650 0.950 . S
C627 C644 1.574 . S
C627 C646 1.368 . S
C627 H651 0.949 . S
H628 C632 0.949 . S
C629 C630 1.349 . S
C629 C631 1.327 . S
C629 H652 0.950 . S
C630 C629 1.349 . S
C630 C642 1.349 . S
C631 C629 1.327 . S
C631 C647 1.429 . S
C631 H653 0.950 . S
C632 H628 0.949 . S
C632 C640 1.574 . S
C632 C648 1.368 . S
H633 C641 0.950 . S
H634 C639 0.950 . S
H635 C640 0.949 . S
H636 C642 0.950 . S
H637 C643 0.950 . S
H638 C644 0.949 . S
C639 H634 0.950 . S
C639 C641 1.327 . S
C639 C645 1.429 . S
C640 C632 1.574 . S
C640 H635 0.949 . S
C640 C646 1.368 . S
C641 C625 1.349 . S
C641 H633 0.950 . S
C641 C639 1.327 . S
C642 C630 1.349 . S
C642 H636 0.950 . S
C642 C643 1.327 . S
C643 H637 0.950 . S
C643 C642 1.327 . S
C643 C647 1.429 . S
C644 C627 1.574 . S
C644 H638 0.949 . S
C644 C648 1.368 . S
C645 C626 1.429 . S
C645 C639 1.429 . S
C645 C646 1.523 . S
C646 C627 1.368 . S
C646 C640 1.368 . S
C646 C645 1.523 . S
C647 C631 1.429 . S
C647 C643 1.429 . S
C647 C648 1.523 . S
C648 C632 1.368 . S
C648 C644 1.368 . S
C648 C647 1.523 . S
H649 C624 0.950 . S
H650 C626 0.950 . S
H651 C627 0.949 . S
H652 C629 0.950 . S
H653 C631 0.950 . S
C654 C655 1.349 . S
C654 C656 1.327 . S
C654 H679 0.950 . S
C655 C654 1.349 . S
C655 C671 1.349 . S
C656 C654 1.327 . S
C656 C675 1.429 . S
C656 H680 0.950 . S
C657 C674 1.574 . S
C657 C676 1.368 . S
C657 H681 0.949 . S
H658 C662 0.949 . S
C659 C660 1.349 . S
C659 C661 1.327 . S
C659 H682 0.950 . S
C660 C659 1.349 . S
C660 C672 1.349 . S
C661 C659 1.327 . S
C661 C677 1.429 . S
C661 H683 0.950 . S
C662 H658 0.949 . S
C662 C670 1.574 . S
C662 C678 1.368 . S
H663 C671 0.950 . S
H664 C669 0.950 . S
H665 C670 0.949 . S
H666 C672 0.950 . S
H667 C673 0.950 . S
H668 C674 0.949 . S
C669 H664 0.950 . S
C669 C671 1.327 . S
C669 C675 1.429 . S
C670 C662 1.574 . S
C670 H665 0.949 . S
C670 C676 1.368 . S
C671 C655 1.349 . S
C671 H663 0.950 . S
C671 C669 1.327 . S
C672 C660 1.349 . S
C672 H666 0.950 . S
C672 C673 1.327 . S
C673 H667 0.950 . S
C673 C672 1.327 . S
C673 C677 1.429 . S
C674 C657 1.574 . S
C674 H668 0.949 . S
C674 C678 1.368 . S
C675 C656 1.429 . S
C675 C669 1.429 . S
C675 C676 1.523 . S
C676 C657 1.368 . S
C676 C670 1.368 . S
C676 C675 1.523 . S
C677 C661 1.429 . S
C677 C673 1.429 . S
C677 C678 1.523 . S
C678 C662 1.368 . S
C678 C674 1.368 . S
C678 C677 1.523 . S
H679 C654 0.950 . S
H680 C656 0.950 . S
H681 C657 0.949 . S
H682 C659 0.950 . S
H683 C661 0.950 . S
C684 C685 1.349 . S
C684 C686 1.327 . S
C684 H709 0.950 . S
C685 C684 1.349 . S
C685 C701 1.349 . S
C686 C684 1.327 . S
C686 C705 1.429 . S
C686 H710 0.950 . S
C687 C704 1.574 . S
C687 C706 1.368 . S
C687 H711 0.949 . S
H688 C692 0.949 . S
C689 C690 1.349 . S
C689 C691 1.327 . S
C689 H712 0.950 . S
C690 C689 1.349 . S
C690 C702 1.349 . S
C691 C689 1.327 . S
C691 C707 1.429 . S
C691 H713 0.950 . S
C692 H688 0.949 . S
C692 C700 1.574 . S
C692 C708 1.368 . S
H693 C701 0.950 . S
H694 C699 0.950 . S
H695 C700 0.949 . S
H696 C702 0.950 . S
H697 C703 0.950 . S
H698 C704 0.949 . S
C699 H694 0.950 . S
C699 C701 1.327 . S
C699 C705 1.429 . S
C700 C692 1.574 . S
C700 H695 0.949 . S
C700 C706 1.368 . S
C701 C685 1.349 . S
C701 H693 0.950 . S
C701 C699 1.327 . S
C702 C690 1.349 . S
C702 H696 0.950 . S
C702 C703 1.327 . S
C703 H697 0.950 . S
C703 C702 1.327 . S
C703 C707 1.429 . S
C704 C687 1.574 . S
C704 H698 0.949 . S
C704 C708 1.368 . S
C705 C686 1.429 . S
C705 C699 1.429 . S
C705 C706 1.523 . S
C706 C687 1.368 . S
C706 C700 1.368 . S
C706 C705 1.523 . S
C707 C691 1.429 . S
C707 C703 1.429 . S
C707 C708 1.523 . S
C708 C692 1.368 . S
C708 C704 1.368 . S
C708 C707 1.523 . S
H709 C684 0.950 . S
H710 C686 0.950 . S
H711 C687 0.949 . S
H712 C689 0.950 . S
H713 C691 0.950 . S
C714 C715 1.349 . S
C714 C716 1.327 . S
C714 H739 0.950 . S
C715 C714 1.349 . S
C715 C731 1.349 . S
C716 C714 1.327 . S
C716 C735 1.429 . S
C716 H740 0.950 . S
C717 C734 1.574 . S
C717 C736 1.368 . S
C717 H741 0.949 . S
H718 C722 0.949 . S
C719 C720 1.349 . S
C719 C721 1.327 . S
C719 H742 0.950 . S
C720 C719 1.349 . S
C720 C732 1.349 . S
C721 C719 1.327 . S
C721 C737 1.429 . S
C721 H743 0.950 . S
C722 H718 0.949 . S
C722 C730 1.574 . S
C722 C738 1.368 . S
H723 C731 0.950 . S
H724 C729 0.950 . S
H725 C730 0.949 . S
H726 C732 0.950 . S
H727 C733 0.950 . S
H728 C734 0.949 . S
C729 H724 0.950 . S
C729 C731 1.327 . S
C729 C735 1.429 . S
C730 C722 1.574 . S
C730 H725 0.949 . S
C730 C736 1.368 . S
C731 C715 1.349 . S
C731 H723 0.950 . S
C731 C729 1.327 . S
C732 C720 1.349 . S
C732 H726 0.950 . S
C732 C733 1.327 . S
C733 H727 0.950 . S
C733 C732 1.327 . S
C733 C737 1.429 . S
C734 C717 1.574 . S
C734 H728 0.949 . S
C734 C738 1.368 . S
C735 C716 1.429 . S
C735 C729 1.429 . S
C735 C736 1.523 . S
C736 C717 1.368 . S
C736 C730 1.368 . S
C736 C735 1.523 . S
C737 C721 1.429 . S
C737 C733 1.429 . S
C737 C738 1.523 . S
C738 C722 1.368 . S
C738 C734 1.368 . S
C738 C737 1.523 . S
H739 C714 0.950 . S
H740 C716 0.950 . S
H741 C717 0.949 . S
H742 C719 0.950 . S
H743 C721 0.950 . S
C744 C745 1.349 . S
C744 C746 1.327 . S
C744 H769 0.950 . S
C745 C744 1.349 . S
C745 C761 1.349 . S
C746 C744 1.327 . S
C746 C765 1.429 . S
C746 H770 0.950 . S
C747 C764 1.574 . S
C747 C766 1.368 . S
C747 H771 0.949 . S
H748 C752 0.949 . S
C749 C750 1.349 . S
C749 C751 1.327 . S
C749 H772 0.950 . S
C750 C749 1.349 . S
C750 C762 1.349 . S
C751 C749 1.327 . S
C751 C767 1.429 . S
C751 H773 0.950 . S
C752 H748 0.949 . S
C752 C760 1.574 . S
C752 C768 1.368 . S
H753 C761 0.950 . S
H754 C759 0.950 . S
H755 C760 0.949 . S
H756 C762 0.950 1_554 S
H757 C763 0.950 . S
H758 C764 0.949 . S
C759 H754 0.950 . S
C759 C761 1.327 . S
C759 C765 1.429 . S
C760 C752 1.574 . S
C760 H755 0.949 . S
C760 C766 1.368 . S
C761 C745 1.349 . S
C761 H753 0.950 . S
C761 C759 1.327 . S
C762 C750 1.349 . S
C762 H756 0.950 1_556 S
C762 C763 1.327 . S
C763 H757 0.950 . S
C763 C762 1.327 . S
C763 C767 1.429 . S
C764 C747 1.574 . S
C764 H758 0.949 . S
C764 C768 1.368 . S
C765 C746 1.429 . S
C765 C759 1.429 . S
C765 C766 1.523 . S
C766 C747 1.368 . S
C766 C760 1.368 . S
C766 C765 1.523 . S
C767 C751 1.429 . S
C767 C763 1.429 . S
C767 C768 1.523 . S
C768 C752 1.368 . S
C768 C764 1.368 . S
C768 C767 1.523 . S
H769 C744 0.950 . S
H770 C746 0.950 . S
H771 C747 0.949 . S
H772 C749 0.950 . S
H773 C751 0.950 . S
C774 C775 1.349 . S
C774 C776 1.327 . S
C774 H799 0.950 . S
C775 C774 1.349 . S
C775 C791 1.349 . S
C776 C774 1.327 . S
C776 C795 1.429 . S
C776 H800 0.950 . S
C777 C794 1.574 . S
C777 C796 1.368 . S
C777 H801 0.949 . S
H778 C782 0.949 . S
C779 C780 1.349 . S
C779 C781 1.327 . S
C779 H802 0.950 . S
C780 C779 1.349 . S
C780 C792 1.349 . S
C781 C779 1.327 . S
C781 C797 1.429 . S
C781 H803 0.950 . S
C782 H778 0.949 . S
C782 C790 1.574 . S
C782 C798 1.368 . S
H783 C791 0.950 . S
H784 C789 0.950 . S
H785 C790 0.949 . S
H786 C792 0.950 . S
H787 C793 0.950 . S
H788 C794 0.949 . S
C789 H784 0.950 . S
C789 C791 1.327 . S
C789 C795 1.429 . S
C790 C782 1.574 . S
C790 H785 0.949 . S
C790 C796 1.368 . S
C791 C775 1.349 . S
C791 H783 0.950 . S
C791 C789 1.327 . S
C792 C780 1.349 . S
C792 H786 0.950 . S
C792 C793 1.327 . S
C793 H787 0.950 . S
C793 C792 1.327 . S
C793 C797 1.429 . S
C794 C777 1.574 . S
C794 H788 0.949 . S
C794 C798 1.368 . S
C795 C776 1.429 . S
C795 C789 1.429 . S
C795 C796 1.523 . S
C796 C777 1.368 . S
C796 C790 1.368 . S
C796 C795 1.523 . S
C797 C781 1.429 . S
C797 C793 1.429 . S
C797 C798 1.523 . S
C798 C782 1.368 . S
C798 C794 1.368 . S
C798 C797 1.523 . S
H799 C774 0.950 . S
H800 C776 0.950 . S
H801 C777 0.949 . S
H802 C779 0.950 . S
H803 C781 0.950 . S
C804 C805 1.349 . S
C804 C806 1.327 . S
C804 H829 0.950 . S
C805 C804 1.349 . S
C805 C821 1.349 . S
C806 C804 1.327 . S
C806 C825 1.429 . S
C806 H830 0.950 . S
C807 C824 1.574 . S
C807 C826 1.368 . S
C807 H831 0.949 . S
H808 C812 0.949 . S
C809 C810 1.349 . S
C809 C811 1.327 . S
C809 H832 0.950 . S
C810 C809 1.349 . S
C810 C822 1.349 . S
C811 C809 1.327 . S
C811 C827 1.429 . S
C811 H833 0.950 . S
C812 H808 0.949 . S
C812 C820 1.574 . S
C812 C828 1.368 . S
H813 C821 0.950 . S
H814 C819 0.950 . S
H815 C820 0.949 . S
H816 C822 0.950 . S
H817 C823 0.950 . S
H818 C824 0.949 . S
C819 H814 0.950 . S
C819 C821 1.327 . S
C819 C825 1.429 . S
C820 C812 1.574 . S
C820 H815 0.949 . S
C820 C826 1.368 . S
C821 C805 1.349 . S
C821 H813 0.950 . S
C821 C819 1.327 . S
C822 C810 1.349 . S
C822 H816 0.950 . S
C822 C823 1.327 . S
C823 H817 0.950 . S
C823 C822 1.327 . S
C823 C827 1.429 . S
C824 C807 1.574 . S
C824 H818 0.949 . S
C824 C828 1.368 . S
C825 C806 1.429 . S
C825 C819 1.429 . S
C825 C826 1.523 . S
C826 C807 1.368 . S
C826 C820 1.368 . S
C826 C825 1.523 . S
C827 C811 1.429 . S
C827 C823 1.429 . S
C827 C828 1.523 . S
C828 C812 1.368 . S
C828 C824 1.368 . S
C828 C827 1.523 . S
H829 C804 0.950 . S
H830 C806 0.950 . S
H831 C807 0.949 . S
H832 C809 0.950 . S
H833 C811 0.950 . S
C834 C835 1.349 . S
C834 C836 1.327 . S
C834 H859 0.950 . S
C835 C834 1.349 . S
C835 C851 1.349 . S
C836 C834 1.327 . S
C836 C855 1.429 . S
C836 H860 0.950 . S
C837 C854 1.574 . S
C837 C856 1.368 . S
C837 H861 0.949 . S
H838 C842 0.949 . S
C839 C840 1.349 . S
C839 C841 1.327 . S
C839 H862 0.950 . S
C840 C839 1.349 . S
C840 C852 1.349 . S
C841 C839 1.327 . S
C841 C857 1.429 . S
C841 H863 0.950 . S
C842 H838 0.949 . S
C842 C850 1.574 . S
C842 C858 1.368 . S
H843 C851 0.950 . S
H844 C849 0.950 . S
H845 C850 0.949 . S
H846 C852 0.950 . S
H847 C853 0.950 . S
H848 C854 0.949 . S
C849 H844 0.950 . S
C849 C851 1.327 . S
C849 C855 1.429 . S
C850 C842 1.574 . S
C850 H845 0.949 . S
C850 C856 1.368 . S
C851 C835 1.349 . S
C851 H843 0.950 . S
C851 C849 1.327 . S
C852 C840 1.349 . S
C852 H846 0.950 . S
C852 C853 1.327 . S
C853 H847 0.950 . S
C853 C852 1.327 . S
C853 C857 1.429 . S
C854 C837 1.574 . S
C854 H848 0.949 . S
C854 C858 1.368 . S
C855 C836 1.429 . S
C855 C849 1.429 . S
C855 C856 1.523 . S
C856 C837 1.368 . S
C856 C850 1.368 . S
C856 C855 1.523 . S
C857 C841 1.429 . S
C857 C853 1.429 . S
C857 C858 1.523 . S
C858 C842 1.368 . S
C858 C854 1.368 . S
C858 C857 1.523 . S
H859 C834 0.950 . S
H860 C836 0.950 . S
H861 C837 0.949 . S
H862 C839 0.950 . S
H863 C841 0.950 . S
C864 C865 1.349 . S
C864 C866 1.327 . S
C864 H889 0.950 . S
C865 C864 1.349 . S
C865 C881 1.349 . S
C866 C864 1.327 . S
C866 C885 1.429 . S
C866 H890 0.950 . S
C867 C884 1.574 . S
C867 C886 1.368 . S
C867 H891 0.949 . S
H868 C872 0.949 . S
C869 C870 1.349 . S
C869 C871 1.327 . S
C869 H892 0.950 . S
C870 C869 1.349 . S
C870 C882 1.349 . S
C871 C869 1.327 . S
C871 C887 1.429 . S
C871 H893 0.950 . S
C872 H868 0.949 . S
C872 C880 1.574 . S
C872 C888 1.368 . S
H873 C881 0.950 . S
H874 C879 0.950 . S
H875 C880 0.949 . S
H876 C882 0.950 . S
H877 C883 0.950 . S
H878 C884 0.949 . S
C879 H874 0.950 . S
C879 C881 1.327 . S
C879 C885 1.429 . S
C880 C872 1.574 . S
C880 H875 0.949 . S
C880 C886 1.368 . S
C881 C865 1.349 . S
C881 H873 0.950 . S
C881 C879 1.327 . S
C882 C870 1.349 . S
C882 H876 0.950 . S
C882 C883 1.327 . S
C883 H877 0.950 . S
C883 C882 1.327 . S
C883 C887 1.429 . S
C884 C867 1.574 . S
C884 H878 0.949 . S
C884 C888 1.368 . S
C885 C866 1.429 . S
C885 C879 1.429 . S
C885 C886 1.523 . S
C886 C867 1.368 . S
C886 C880 1.368 . S
C886 C885 1.523 . S
C887 C871 1.429 . S
C887 C883 1.429 . S
C887 C888 1.523 . S
C888 C872 1.368 . S
C888 C884 1.368 . S
C888 C887 1.523 . S
H889 C864 0.950 . S
H890 C866 0.950 . S
H891 C867 0.949 . S
H892 C869 0.950 . S
H893 C871 0.950 . S
C894 C895 1.349 . S
C894 C896 1.327 . S
C894 H919 0.950 . S
C895 C894 1.349 . S
C895 C911 1.349 . S
C896 C894 1.327 . S
C896 C915 1.429 . S
C896 H920 0.950 . S
C897 C914 1.574 . S
C897 C916 1.368 . S
C897 H921 0.949 . S
H898 C902 0.949 . S
C899 C900 1.349 . S
C899 C901 1.327 . S
C899 H922 0.950 . S
C900 C899 1.349 . S
C900 C912 1.349 . S
C901 C899 1.327 . S
C901 C917 1.429 . S
C901 H923 0.950 . S
C902 H898 0.949 . S
C902 C910 1.574 . S
C902 C918 1.368 . S
H903 C911 0.950 . S
H904 C909 0.950 . S
H905 C910 0.949 . S
H906 C912 0.950 . S
H907 C913 0.950 . S
H908 C914 0.949 . S
C909 H904 0.950 . S
C909 C911 1.327 . S
C909 C915 1.429 . S
C910 C902 1.574 . S
C910 H905 0.949 . S
C910 C916 1.368 . S
C911 C895 1.349 . S
C911 H903 0.950 . S
C911 C909 1.327 . S
C912 C900 1.349 . S
C912 H906 0.950 . S
C912 C913 1.327 . S
C913 H907 0.950 . S
C913 C912 1.327 . S
C913 C917 1.429 . S
C914 C897 1.574 . S
C914 H908 0.949 . S
C914 C918 1.368 . S
C915 C896 1.429 . S
C915 C909 1.429 . S
C915 C916 1.523 . S
C916 C897 1.368 . S
C916 C910 1.368 . S
C916 C915 1.523 . S
C917 C901 1.429 . S
C917 C913 1.429 . S
C917 C918 1.523 . S
C918 C902 1.368 . S
C918 C914 1.368 . S
C918 C917 1.523 . S
H919 C894 0.950 . S
H920 C896 0.950 . S
H921 C897 0.949 . S
H922 C899 0.950 . S
H923 C901 0.950 . S
C924 C925 1.349 . S
C924 C926 1.327 . S
C924 H949 0.950 . S
C925 C924 1.349 . S
C925 C941 1.349 . S
C926 C924 1.327 . S
C926 C945 1.429 . S
C926 H950 0.950 . S
C927 C944 1.574 . S
C927 C946 1.368 . S
C927 H951 0.949 . S
H928 C932 0.949 . S
C929 C930 1.349 . S
C929 C931 1.327 . S
C929 H952 0.950 . S
C930 C929 1.349 . S
C930 C942 1.349 . S
C931 C929 1.327 . S
C931 C947 1.429 . S
C931 H953 0.950 . S
C932 H928 0.949 . S
C932 C940 1.574 . S
C932 C948 1.368 . S
H933 C941 0.950 . S
H934 C939 0.950 . S
H935 C940 0.949 . S
H936 C942 0.950 . S
H937 C943 0.950 . S
H938 C944 0.949 . S
C939 H934 0.950 . S
C939 C941 1.327 . S
C939 C945 1.429 . S
C940 C932 1.574 . S
C940 H935 0.949 . S
C940 C946 1.368 . S
C941 C925 1.349 . S
C941 H933 0.950 . S
C941 C939 1.327 . S
C942 C930 1.349 . S
C942 H936 0.950 . S
C942 C943 1.327 . S
C943 H937 0.950 . S
C943 C942 1.327 . S
C943 C947 1.429 . S
C944 C927 1.574 . S
C944 H938 0.949 . S
C944 C948 1.368 . S
C945 C926 1.429 . S
C945 C939 1.429 . S
C945 C946 1.523 . S
C946 C927 1.368 . S
C946 C940 1.368 . S
C946 C945 1.523 . S
C947 C931 1.429 . S
C947 C943 1.429 . S
C947 C948 1.523 . S
C948 C932 1.368 . S
C948 C944 1.368 . S
C948 C947 1.523 . S
H949 C924 0.950 . S
H950 C926 0.950 . S
H951 C927 0.949 . S
H952 C929 0.950 . S
H953 C931 0.950 . S
C954 C955 1.349 . S
C954 C956 1.327 . S
C954 H979 0.950 . S
C955 C954 1.349 . S
C955 C971 1.349 . S
C956 C954 1.327 . S
C956 C975 1.429 . S
C956 H980 0.950 . S
C957 C974 1.574 . S
C957 C976 1.368 . S
C957 H981 0.949 . S
H958 C962 0.949 . S
C959 C960 1.349 . S
C959 C961 1.327 . S
C959 H982 0.950 . S
C960 C959 1.349 . S
C960 C972 1.349 . S
C961 C959 1.327 . S
C961 C977 1.429 . S
C961 H983 0.950 . S
C962 H958 0.949 . S
C962 C970 1.574 . S
C962 C978 1.368 . S
H963 C971 0.950 . S
H964 C969 0.950 . S
H965 C970 0.949 . S
H966 C972 0.950 . S
H967 C973 0.950 . S
H968 C974 0.949 . S
C969 H964 0.950 . S
C969 C971 1.327 . S
C969 C975 1.429 . S
C970 C962 1.574 . S
C970 H965 0.949 . S
C970 C976 1.368 . S
C971 C955 1.349 . S
C971 H963 0.950 . S
C971 C969 1.327 . S
C972 C960 1.349 . S
C972 H966 0.950 . S
C972 C973 1.327 . S
C973 H967 0.950 . S
C973 C972 1.327 . S
C973 C977 1.429 . S
C974 C957 1.574 . S
C974 H968 0.949 . S
C974 C978 1.368 . S
C975 C956 1.429 . S
C975 C969 1.429 . S
C975 C976 1.523 . S
C976 C957 1.368 . S
C976 C970 1.368 . S
C976 C975 1.523 . S
C977 C961 1.429 . S
C977 C973 1.429 . S
C977 C978 1.523 . S
C978 C962 1.368 . S
C978 C974 1.368 . S
C978 C977 1.523 . S
H979 C954 0.950 . S
H980 C956 0.950 . S
H981 C957 0.949 . S
H982 C959 0.950 . S
H983 C961 0.950 . S
C265 N1 0.964 . S
C270 C111 0.986 . S
C295 N18 1.132 . S
C300 C160 1.167 . S
C330 C186 1.943 . S
C325 N28 1.968 . S
C355 N40 2.543 . S
C360 C234 2.529 . S
C390 C146 2.611 . S
C385 N5 2.573 . S
C420 C114 0.849 . S
C415 N14 0.858 . S
C450 C235 1.992 . S
C445 N31 1.981 . S
C480 C203 1.202 . S
C475 N41 1.224 . S
C505 N2 1.400 . S
C510 C231 1.422 . S
C540 C163 2.459 1_556 S
C535 N27 2.513 . S
C565 N44 2.396 . S
C570 C115 2.435 1_655 S
C595 N15 0.560 . S
C600 C200 0.565 . S
C630 C120 1.526 . S
C625 N57 1.526 . S
C655 N70 0.871 . S
C660 C151 0.890 . S
C685 N79 2.194 . S
C690 C195 2.228 . S
C715 N93 2.294 . S
C720 C243 2.264 . S
C745 N54 2.007 . S
C750 C155 2.084 1_566 S
C780 C123 1.649 . S
C775 N66 1.729 . S
C810 C226 1.247 . S
C805 N80 1.269 . S
C840 C194 1.581 . S
C835 N96 1.585 . S
C865 N53 1.492 . S
C870 C240 1.521 . S
C900 C154 2.085 . S
C895 N83 2.077 . S
C930 C106 2.637 . S
C925 N92 2.621 . S
C955 N67 0.733 . S
C960 C191 0.732 . S
