# Generated by pormake.
# Topology zzz, (3,6)-cn, num edge types: 1
# Building blocks:
#     Node 0, Type 0, BuildingBlock: BELTOD_clean_linker_0, # of connection points: 3
#     Node 1, Type 0, BuildingBlock: BELTOD_clean_linker_0, # of connection points: 3
#     Node 2, Type 0, BuildingBlock: BELTOD_clean_linker_0, # of connection points: 3
#     Node 3, Type 0, BuildingBlock: BELTOD_clean_linker_0, # of connection points: 3
#     Node 4, Type 0, BuildingBlock: BELTOD_clean_linker_0, # of connection points: 3
#     Node 5, Type 0, BuildingBlock: BELTOD_clean_linker_0, # of connection points: 3
#     Node 6, Type 0, BuildingBlock: BELTOD_clean_linker_0, # of connection points: 3
#     Node 7, Type 0, BuildingBlock: BELTOD_clean_linker_0, # of connection points: 3
#     Node 8, Type 1, BuildingBlock: PAMTUU_clean_sbu_0, # of connection points: 6
#     Node 9, Type 1, BuildingBlock: PAMTUU_clean_sbu_0, # of connection points: 6
#     Node 10, Type 1, BuildingBlock: PAMTUU_clean_sbu_0, # of connection points: 6
#     Node 11, Type 1, BuildingBlock: PAMTUU_clean_sbu_0, # of connection points: 6
#     Edge 12, Type (0, 1), BuildingBlock: EZIPEK_clean_linker_0, # of connection points: 2
#     Edge 13, Type (0, 1), BuildingBlock: EZIPEK_clean_linker_0, # of connection points: 2
#     Edge 14, Type (0, 1), BuildingBlock: EZIPEK_clean_linker_0, # of connection points: 2
#     Edge 15, Type (0, 1), BuildingBlock: EZIPEK_clean_linker_0, # of connection points: 2
#     Edge 16, Type (0, 1), BuildingBlock: EZIPEK_clean_linker_0, # of connection points: 2
#     Edge 17, Type (0, 1), BuildingBlock: EZIPEK_clean_linker_0, # of connection points: 2
#     Edge 18, Type (0, 1), BuildingBlock: EZIPEK_clean_linker_0, # of connection points: 2
#     Edge 19, Type (0, 1), BuildingBlock: EZIPEK_clean_linker_0, # of connection points: 2
#     Edge 20, Type (0, 1), BuildingBlock: EZIPEK_clean_linker_0, # of connection points: 2
#     Edge 21, Type (0, 1), BuildingBlock: EZIPEK_clean_linker_0, # of connection points: 2
#     Edge 22, Type (0, 1), BuildingBlock: EZIPEK_clean_linker_0, # of connection points: 2
#     Edge 23, Type (0, 1), BuildingBlock: EZIPEK_clean_linker_0, # of connection points: 2
#     Edge 24, Type (0, 1), BuildingBlock: EZIPEK_clean_linker_0, # of connection points: 2
#     Edge 25, Type (0, 1), BuildingBlock: EZIPEK_clean_linker_0, # of connection points: 2
#     Edge 26, Type (0, 1), BuildingBlock: EZIPEK_clean_linker_0, # of connection points: 2
#     Edge 27, Type (0, 1), BuildingBlock: EZIPEK_clean_linker_0, # of connection points: 2
#     Edge 28, Type (0, 1), BuildingBlock: EZIPEK_clean_linker_0, # of connection points: 2
#     Edge 29, Type (0, 1), BuildingBlock: EZIPEK_clean_linker_0, # of connection points: 2
#     Edge 30, Type (0, 1), BuildingBlock: EZIPEK_clean_linker_0, # of connection points: 2
#     Edge 31, Type (0, 1), BuildingBlock: EZIPEK_clean_linker_0, # of connection points: 2
#     Edge 32, Type (0, 1), BuildingBlock: EZIPEK_clean_linker_0, # of connection points: 2
#     Edge 33, Type (0, 1), BuildingBlock: EZIPEK_clean_linker_0, # of connection points: 2
#     Edge 34, Type (0, 1), BuildingBlock: EZIPEK_clean_linker_0, # of connection points: 2
#     Edge 35, Type (0, 1), BuildingBlock: EZIPEK_clean_linker_0, # of connection points: 2
# Relax obj value: 0.413
# Max RMSD: 0.293
# Mean RMSD: 0.208
data_MOF--net-zzz--node1-PAMTUU_clean_sbu_0--node2-BELTOD_clean_linker_0--edge1-EZIPEK_clean_linker_0
_symmetry_space_group_name_H-M    P1
_symmetry_Int_Tables_number       1
_symmetry_cell_setting            triclinic
loop_
_symmetry_equiv_pos_as_xyz
'x, y, z'
_cell_length_a     40.725762
_cell_length_b     44.561956
_cell_length_c     15.137718
_cell_angle_alpha  101.36145
_cell_angle_beta   89.864674
_cell_angle_gamma 88.733641
loop_
_atom_site_label
_atom_site_type_symbol
_atom_site_fract_x
_atom_site_fract_y
_atom_site_fract_z
_atom_type_partial_charge
P0 P 0.72314 0.46708 0.46975 0.0
H1 H 0.74278 0.47802 0.65893 0.0
H2 H 0.79427 0.48984 0.73064 0.0
H3 H 0.83267 0.50975 0.48277 0.0
H4 H 0.78058 0.49824 0.41299 0.0
H5 H 0.66231 0.44114 0.39843 0.0
H6 H 0.62413 0.45177 0.2839 0.0
H7 H 0.67726 0.53275 0.26412 0.0
H8 H 0.71654 0.52155 0.37896 0.0
H9 H 0.75585 0.41073 0.49796 0.0
H10 H 0.74296 0.46012 0.28159 0.0
O11 O 0.70263 0.45076 0.54279 0.0
H12 H 0.80088 0.38034 0.41304 0.0
H13 H 0.78786 0.43038 0.19865 0.0
C14 C 0.75634 0.48905 0.53123 0.0
C15 C 0.76143 0.48738 0.6218 0.0
C16 C 0.79166 0.4949 0.66419 0.0
C17 C 0.81823 0.50598 0.61984 0.0
C18 C 0.81303 0.50612 0.52685 0.0
C19 C 0.78259 0.49876 0.48458 0.0
C20 C 0.69207 0.48086 0.3994 0.0
C21 C 0.66554 0.46167 0.37145 0.0
C22 C 0.64374 0.46757 0.30522 0.0
C23 C 0.64765 0.49299 0.26472 0.0
C24 C 0.67361 0.51298 0.29438 0.0
C25 C 0.6959 0.50676 0.36049 0.0
C26 C 0.74589 0.43749 0.39578 0.0
C27 C 0.76162 0.41407 0.43075 0.0
C28 C 0.78731 0.39683 0.38268 0.0
C29 C 0.79777 0.40358 0.30056 0.0
C30 C 0.78004 0.42499 0.26211 0.0
C31 C 0.75428 0.4419 0.3095 0.0
P32 P 0.0505 0.71568 0.47105 0.0
H33 H 0.05223 0.74378 0.66236 0.0
H34 H 0.03244 0.79467 0.73674 0.0
H35 H 0.97169 0.80013 0.5076 0.0
H36 H 0.99143 0.74911 0.43286 0.0
H37 H 0.08032 0.66697 0.34054 0.0
H38 H 0.05862 0.62301 0.236 0.0
H39 H 0.96089 0.64711 0.34016 0.0
H40 H 0.98276 0.69157 0.44552 0.0
H41 H 0.09963 0.76281 0.50889 0.0
H42 H 0.0383 0.72351 0.28567 0.0
O43 O 0.07974 0.70346 0.5334 0.0
H44 H 0.11399 0.80405 0.43046 0.0
H45 H 0.05326 0.76429 0.20698 0.0
C46 C 0.02318 0.74244 0.54205 0.0
C47 C 0.03319 0.755 0.63004 0.0
C48 C 0.02201 0.78418 0.67259 0.0
C49 C 1.00076 0.80114 0.62742 0.0
C50 C 0.98784 0.78722 0.54383 0.0
C51 C 0.99895 0.75797 0.50145 0.0
C52 C 0.03314 0.6826 0.4002 0.0
C53 C 0.05423 0.66277 0.34146 0.0
C54 C 0.04189 0.63771 0.28187 0.0
C55 C 1.00818 0.63196 0.28003 0.0
C56 C 0.98698 0.65132 0.34047 0.0
C57 C 0.99943 0.67664 0.40027 0.0
C58 C 0.06863 0.73959 0.40216 0.0
C59 C 0.09039 0.76229 0.44159 0.0
C60 C 0.09839 0.7859 0.39733 0.0
C61 C 0.08475 0.78697 0.31304 0.0
C62 C 0.06422 0.76354 0.27167 0.0
C63 C 0.05595 0.74014 0.31635 0.0
P64 P 0.80699 0.0345 0.50163 0.0
H65 H 0.77991 0.04328 0.68248 0.0
H66 H 0.72746 0.03053 0.74056 0.0
H67 H 0.70859 0.9697 0.48818 0.0
H68 H 0.76111 0.98392 0.42749 0.0
H69 H 0.85599 0.06671 0.42561 0.0
H70 H 0.89541 0.05428 0.30651 0.0
H71 H 0.8634 0.96078 0.25353 0.0
H72 H 0.82303 0.97412 0.3742 0.0
H73 H 0.78297 0.09747 0.57171 0.0
H74 H 0.77369 0.02787 0.33116 0.0
O75 O 0.82804 0.0545 0.58712 0.0
H76 H 0.73921 0.12819 0.51761 0.0
H77 H 0.72978 0.05803 0.27866 0.0
C78 C 0.77551 0.01396 0.55079 0.0
C79 C 0.76535 0.02628 0.63983 0.0
C80 C 0.73492 0.01925 0.67322 0.0
C81 C 0.71352 -0.00075 0.61925 0.0
C82 C 0.72442 0.98527 0.53169 0.0
C83 C 0.75478 0.99299 0.49728 0.0
C84 C 0.8378 0.02099 0.41403 0.0
C85 C 0.85857 0.04299 0.39152 0.0
C86 C 0.88233 0.03539 0.3236 0.0
C87 C 0.88837 0.00481 0.27813 0.0
C88 C 0.86457 0.98341 0.29448 0.0
C89 C 0.8402 0.99119 0.36279 0.0
C90 C 0.78167 0.06062 0.45472 0.0
C91 C 0.77225 0.08926 0.50629 0.0
C92 C 0.74733 0.10671 0.47579 0.0
C93 C 0.73125 0.09508 0.39483 0.0
C94 C 0.74199 0.06726 0.34136 0.0
C95 C 0.76704 0.05012 0.37117 0.0
P96 P 0.49741 0.77798 0.25304 0.0
H97 H 0.49604 0.76148 0.43053 0.0
H98 H 0.52438 0.71961 0.48449 0.0
H99 H 0.58935 0.70623 0.25436 0.0
H100 H 0.56112 0.74834 0.2003 0.0
H101 H 0.46697 0.81153 0.12909 0.0
H102 H 0.48396 0.85493 0.0639 0.0
H103 H 0.57683 0.85571 0.20034 0.0
H104 H 0.55965 0.81208 0.26659 0.0
H105 H 0.45286 0.72917 0.2655 0.0
H106 H 0.51315 0.75626 0.06122 0.0
O107 O 0.46646 0.79228 0.32217 0.0
H108 H 0.44812 0.6781 0.17117 0.0
H109 H 0.50759 0.70541 0.96605 0.0
C110 C 0.5268 0.75849 0.31205 0.0
C111 C 0.5174 0.75068 0.39381 0.0
C112 C 0.53336 0.72657 0.42434 0.0
C113 C 0.55882 0.70985 0.37321 0.0
C114 C 0.5699 0.71908 0.29504 0.0
C115 C 0.55401 0.74331 0.26474 0.0
C116 C 0.51222 0.80834 0.20155 0.0
C117 C 0.49113 0.8208 0.14443 0.0
C118 C 0.50076 0.84556 0.10743 0.0
C119 C 0.53163 0.8584 0.12716 0.0
C120 C 0.55296 0.84595 0.18413 0.0
C121 C 0.5432 0.82107 0.22157 0.0
C122 C 0.4828 0.74674 0.16976 0.0
C123 C 0.46354 0.72472 0.19846 0.0
C124 C 0.46095 0.69555 0.14495 0.0
C125 C 0.47743 0.68818 0.06186 0.0
C126 C 0.49438 0.71093 0.02959 0.0
C127 C 0.49737 0.74 0.08379 0.0
P128 P 0.29946 0.45945 0.19039 0.0
H129 H 0.27991 0.44299 0.99998 0.0
H130 H 0.22904 0.45298 0.92424 0.0
H131 H 0.20023 0.5217 0.15477 0.0
H132 H 0.25179 0.51221 0.23021 0.0
H133 H 0.37116 0.44814 0.19155 0.0
H134 H 0.41146 0.46338 0.3113 0.0
H135 H 0.34238 0.52989 0.45422 0.0
H136 H 0.30293 0.51667 0.33038 0.0
H137 H 0.22948 0.44305 0.20084 0.0
H138 H 0.31466 0.44672 0.37051 0.0
O139 O 0.31545 0.42772 0.12603 0.0
H140 H 0.19435 0.45536 0.33412 0.0
H141 H 0.27953 0.45958 0.50429 0.0
C142 C 0.27028 0.47686 0.12148 0.0
C143 C 0.26353 0.46119 0.03338 0.0
C144 C 0.23409 0.46666 0.99005 0.0
C145 C 0.21018 0.48772 0.03389 0.0
C146 C 0.218 0.50522 0.11913 0.0
C147 C 0.24781 0.50006 0.16199 0.0
C148 C 0.33333 0.48081 0.25162 0.0
C149 C 0.36493 0.46701 0.24613 0.0
C150 C 0.38788 0.47522 0.31559 0.0
C151 C 0.37959 0.49675 0.39375 0.0
C152 C 0.34931 0.51277 0.39555 0.0
C153 C 0.32673 0.50528 0.32434 0.0
C154 C 0.27488 0.44759 0.27655 0.0
C155 C 0.24071 0.44558 0.26651 0.0
C156 C 0.22052 0.45215 0.34269 0.0
C157 C 0.23464 0.45979 0.42836 0.0
C158 C 0.26833 0.45449 0.43833 0.0
C159 C 0.28841 0.44768 0.36182 0.0
P160 P 0.08967 0.24939 0.29355 0.0
H161 H 0.12861 0.21736 0.13873 0.0
H162 H 0.11543 0.17102 0.02951 0.0
H163 H 1.01319 0.18417 0.10395 0.0
H164 H 0.0261 0.23108 0.21128 0.0
H165 H 0.12341 0.29662 0.41527 0.0
H166 H 0.10753 0.34887 0.48624 0.0
H167 H 0.02367 0.34487 0.31142 0.0
H168 H 0.03968 0.29189 0.23957 0.0
H169 H 0.0962 0.19055 0.34626 0.0
H170 H 0.02959 0.26883 0.40192 0.0
O171 O 0.12935 0.24221 0.31022 0.0
H172 H 0.05789 0.16141 0.41965 0.0
H173 H 0.99145 0.23959 0.47496 0.0
C174 C 0.07843 0.22762 0.18437 0.0
C175 C 0.10311 0.21131 0.12854 0.0
C176 C 0.09566 0.18465 0.06654 0.0
C177 C 0.06346 0.17385 0.06016 0.0
C178 C 0.03823 0.19203 0.10834 0.0
C179 C 0.04562 0.21899 0.16913 0.0
C180 C 0.08297 0.29039 0.32123 0.0
C181 C 0.10228 0.3072 0.38938 0.0
C182 C 0.09318 0.33707 0.43035 0.0
C183 C 0.06438 0.35069 0.40454 0.0
C184 C 0.04611 0.33476 0.33196 0.0
C185 C 0.05529 0.30463 0.29075 0.0
C186 C 0.06619 0.23206 0.37012 0.0
C187 C 0.07399 0.20183 0.37699 0.0
C188 C 0.05205 0.18513 0.41795 0.0
C189 C 0.022 0.19848 0.45233 0.0
C190 C 1.01467 0.2291 0.44902 0.0
C191 C 0.03663 0.2458 0.40784 0.0
P192 P 0.2289 0.0365 0.20785 0.0
H193 H 0.24924 0.04744 0.03009 0.0
H194 H 0.30129 0.03547 0.94879 0.0
H195 H 0.32631 0.97071 0.11606 0.0
H196 H 0.27341 0.9819 0.19544 0.0
H197 H 0.1579 0.05027 0.22853 0.0
H198 H 0.11757 0.03798 0.3351 0.0
H199 H 0.1856 0.9718 0.40864 0.0
H200 H 0.22539 0.98289 0.29785 0.0
H201 H 0.29541 0.06073 0.21314 0.0
H202 H 0.2236 0.04628 0.40936 0.0
O203 O 0.21326 0.06686 0.1719 0.0
H204 H 0.3393 0.04767 0.30874 0.0
H205 H 0.26769 0.03409 0.50659 0.0
C206 C 0.25688 0.01572 0.12006 0.0
C207 C 0.26493 0.0295 0.0469 0.0
C208 C 0.29511 0.02296 1.00084 0.0
C209 C 0.31838 0.00264 0.02706 0.0
C210 C 0.30911 0.98665 0.09446 0.0
C211 C 0.27857 0.99285 0.13953 0.0
C212 C 0.19516 0.01771 0.25462 0.0
C213 C 0.16386 0.03212 0.26433 0.0
C214 C 0.14077 0.02535 0.3264 0.0
C215 C 0.14862 0.00455 0.38247 0.0
C216 C 0.17884 0.9882 0.36735 0.0
C217 C 0.20158 0.99432 0.30306 0.0
C218 C 0.25638 0.05066 0.29945 0.0
C219 C 0.28903 0.05593 0.27826 0.0
C220 C 0.31418 0.04868 0.33314 0.0
C221 C 0.30637 0.03807 0.41161 0.0
C222 C 0.27392 0.04105 0.4441 0.0
C223 C 0.24876 0.04759 0.38776 0.0
P224 P 0.44335 0.23859 0.53331 0.0
H225 H 0.38893 0.25607 0.42654 0.0
H226 H 0.38879 0.28815 0.31297 0.0
H227 H 0.49408 0.27791 0.2888 0.0
H228 H 0.49421 0.24492 0.40089 0.0
H229 H 0.48033 0.2172 0.67417 0.0
H230 H 0.49246 0.16614 0.70307 0.0
H231 H 0.44934 0.12579 0.44885 0.0
H232 H 0.43773 0.17742 0.41846 0.0
H233 H 0.42481 0.29933 0.6313 0.0
H234 H 0.51432 0.24599 0.56434 0.0
O235 O 0.40556 0.24139 0.5775 0.0
H236 H 0.45699 0.34474 0.68786 0.0
H237 H 0.5466 0.29166 0.62202 0.0
C238 C 0.44162 0.24813 0.42285 0.0
C239 C 0.41188 0.25934 0.3939 0.0
C240 C 0.41177 0.27788 0.32934 0.0
C241 C 0.44146 0.28577 0.29349 0.0
C242 C 0.47091 0.27211 0.31569 0.0
C243 C 0.47093 0.25315 0.37941 0.0
C244 C 0.45927 0.20122 0.54241 0.0
C245 C 0.47463 0.19753 0.62262 0.0
C246 C 0.48123 0.16836 0.63977 0.0
C247 C 0.4719 0.14226 0.57803 0.0
C248 C 0.45697 0.14572 0.49691 0.0
C249 C 0.45061 0.1751 0.47934 0.0
C250 C 0.46715 0.26908 0.59599 0.0
C251 C 0.45134 0.29711 0.63167 0.0
C252 C 0.46966 0.32305 0.66323 0.0
C253 C 0.50404 0.3214 0.65891 0.0
C254 C 0.52005 0.29319 0.62627 0.0
C255 C 0.50164 0.26718 0.59417 0.0
Tb256 Tb 0.98798 0.00207 0.77033 0.0
Tb257 Tb 0.04962 0.97831 0.88111 0.0
C258 C 0.97782 0.98954 0.9664 0.0
C259 C 0.94644 0.05014 0.63647 0.0
C260 C 0.95526 0.10389 0.57009 0.0
C261 C 0.92422 0.09748 0.60149 0.0
C262 C 0.91987 0.07067 0.63504 0.0
C263 C 0.97695 0.05613 0.60102 0.0
C264 C 0.9813 0.08276 0.56819 0.0
C265 C 0.94394 0.02459 0.68422 0.0
O266 O 1.00565 0.04207 0.86265 0.0
O267 O 0.05863 0.02658 0.88393 0.0
O268 O 0.07152 0.97888 0.7498 0.0
O269 O 0.03252 0.00763 0.69156 0.0
O270 O 0.07613 0.98273 1.00199 0.0
O271 O 0.08914 0.9478 0.88679 0.0
O272 O 0.02044 0.93779 0.83137 0.0
O273 O 0.98971 0.95315 0.72 0.0
O274 O 0.9649 0.98692 0.88543 0.0
O275 O 1.00968 0.99159 0.97868 0.0
C276 C 0.03585 0.04821 0.88851 0.0
O277 O 0.9614 0.00015 0.65066 0.0
O278 O 0.94729 0.03208 0.7712 0.0
C279 C 0.06163 0.9936 0.68713 0.0
C280 C 0.0939 0.9349 0.02901 0.0
C281 C 0.09468 0.88918 0.13292 0.0
C282 C 0.12006 0.91037 0.14115 0.0
C283 C 0.11969 0.93313 0.08919 0.0
C284 C 0.06819 0.91413 0.02248 0.0
C285 C 0.06865 0.89136 0.07387 0.0
C286 C 0.09385 0.95812 0.97237 0.0
C287 C 1.00188 0.93175 0.75924 0.0
H288 H 0.9039 0.11367 0.603 0.0
H289 H 0.89624 0.0665 0.66273 0.0
H290 H 0.99788 0.0408 0.60167 0.0
H291 H 1.00536 0.08741 0.54393 0.0
H292 H 0.1402 0.90906 0.18696 0.0
H293 H 0.13957 0.94915 0.09547 0.0
H294 H 0.04793 0.91535 0.977 0.0
H295 H 0.0488 0.87529 0.06724 0.0
Tb296 Tb 0.50963 0.96735 0.74757 0.0
Tb297 Tb 0.52596 0.02374 0.91248 0.0
C298 C 0.53658 0.95629 0.93506 0.0
C299 C 0.45964 0.92817 0.57286 0.0
C300 C 0.40489 0.95615 0.50945 0.0
C301 C 0.4322 0.94753 0.45276 0.0
C302 C 0.45959 0.93359 0.48451 0.0
C303 C 0.43042 0.93312 0.62415 0.0
C304 C 0.40339 0.94745 0.59311 0.0
C305 C 0.49114 0.92673 0.61944 0.0
O306 O 0.46142 0.98522 0.80222 0.0
O307 O 0.47745 0.00797 0.94424 0.0
O308 O 0.49449 0.04256 0.82093 0.0
O309 O 0.50912 0.00912 0.69227 0.0
O310 O 0.52526 0.04433 0.04945 0.0
O311 O 0.54147 0.0691 0.94895 0.0
O312 O 0.5695 0.01729 0.8227 0.0
O313 O 0.56315 0.96761 0.74755 0.0
O314 O 0.51765 0.94717 0.86538 0.0
O315 O 0.54824 0.98404 0.95437 0.0
C316 C 0.45435 0.99666 0.88738 0.0
O317 O 0.5115 0.94797 0.60928 0.0
O318 O 0.48927 0.92407 0.70349 0.0
C319 C 0.4977 0.03597 0.73342 0.0
C320 C 0.56535 0.08128 0.0917 0.0
C321 C 0.61678 0.10352 0.20655 0.0
C322 C 0.59024 0.12297 0.19551 0.0
C323 C 0.56451 0.11179 0.13835 0.0
C324 C 0.59232 0.06212 0.10098 0.0
C325 C 0.61786 0.07319 0.15843 0.0
C326 C 0.53777 0.06957 0.03468 0.0
C327 C 0.58107 0.99209 0.76963 0.0
H328 H 0.43333 0.95388 0.38734 0.0
H329 H 0.48176 0.92996 0.44371 0.0
H330 H 0.4294 0.92883 0.69198 0.0
H331 H 0.38216 0.95357 0.63678 0.0
H332 H 0.58922 0.14643 0.23229 0.0
H333 H 0.54381 0.12682 0.13128 0.0
H334 H 0.59337 0.03856 0.06481 0.0
H335 H 0.63834 0.05801 0.16633 0.0
Tb336 Tb 0.48303 0.49061 0.89742 0.0
Tb337 Tb 0.54193 0.5137 0.77418 0.0
C338 C 0.46854 0.50438 0.7032 0.0
C339 C 0.44128 0.44138 0.03185 0.0
C340 C 0.44123 0.38867 0.10947 0.0
C341 C 0.41351 0.39671 0.06346 0.0
C342 C 0.41353 0.4229 0.0251 0.0
C343 C 0.46916 0.43306 0.07713 0.0
C344 C 0.46902 0.40703 0.11603 0.0
C345 C 0.44112 0.46864 0.98937 0.0
O346 O 0.50136 0.45096 0.80352 0.0
O347 O 0.55311 0.46541 0.76967 0.0
O348 O 0.56307 0.51547 0.90817 0.0
O349 O 0.52914 0.48301 0.9649 0.0
O350 O 0.56876 0.50912 0.65318 0.0
O351 O 0.57868 0.54546 0.76623 0.0
O352 O 0.50967 0.5531 0.82089 0.0
O353 O 0.48655 0.53958 0.94606 0.0
O354 O 0.45746 0.50631 0.78635 0.0
O355 O 0.50017 0.50215 0.68388 0.0
C356 C 0.53119 0.44446 0.77249 0.0
O357 O 0.46087 0.49055 0.02299 0.0
O358 O 0.44181 0.46314 0.90169 0.0
C359 C 0.55613 0.49897 0.96881 0.0
C360 C 0.58496 0.55705 0.62166 0.0
C361 C 0.58779 0.60113 0.50785 0.0
C362 C 0.60851 0.6026 0.58364 0.0
C363 C 0.60772 0.58051 0.63764 0.0
C364 C 0.56218 0.55669 0.55231 0.0
C365 C 0.56315 0.57865 0.49772 0.0
C366 C 0.58444 0.53442 0.68124 0.0
C367 C 0.49474 0.56016 0.89931 0.0
H368 H 0.39176 0.38294 0.05833 0.0
H369 H 0.39184 0.42877 0.99026 0.0
H370 H 0.49104 0.44667 0.08264 0.0
H371 H 0.49057 0.40125 0.15163 0.0
H372 H 0.6249 0.62122 0.60515 0.0
H373 H 0.62455 0.58221 0.69367 0.0
H374 H 0.54311 0.5398 0.54117 0.0
H375 H 0.54348 0.57812 0.44994 0.0
Tb376 Tb 0.02357 0.52419 0.77952 0.0
Tb377 Tb 1.00429 0.46758 0.87456 0.0
C378 C 0.99608 0.53442 0.97925 0.0
C379 C 0.07892 0.56647 0.67353 0.0
C380 C 0.14134 0.5417 0.62311 0.0
C381 C 0.11662 0.54039 0.55837 0.0
C382 C 0.08559 0.55295 0.58321 0.0
C383 C 0.10519 0.57165 0.73478 0.0
C384 C 0.13623 0.55886 0.71001 0.0
C385 C 0.04504 0.56611 0.70795 0.0
O386 O 0.07078 0.50404 0.8111 0.0
O387 O 0.05288 0.48226 0.92675 0.0
O388 O 0.0341 0.44853 0.75718 0.0
O389 O 0.02099 0.48377 0.6719 0.0
O390 O 1.00589 0.44582 0.98525 0.0
O391 O 0.98593 0.42318 0.85835 0.0
O392 O 0.96033 0.47674 0.79771 0.0
O393 O 0.9701 0.52573 0.77759 0.0
O394 O 1.01657 0.54275 0.92218 0.0
O395 O 0.98271 0.50738 0.96383 0.0
C396 C 0.07685 0.49273 0.88365 0.0
O397 O 0.0271 0.54411 0.66513 0.0
O398 O 0.0422 0.56849 0.79473 0.0
C399 C 0.03104 0.4562 0.67854 0.0
C400 C 0.96345 0.4118 0.99016 0.0
C401 C 0.9127 0.39452 0.09298 0.0
C402 C 0.94026 0.37511 0.07035 0.0
C403 C 0.96562 0.38379 0.01903 0.0
C404 C 0.93549 0.43078 0.01077 0.0
C405 C 0.91023 0.42216 0.06207 0.0
C406 C 0.99105 0.42173 0.9423 0.0
C407 C 0.9505 0.50241 0.77341 0.0
H408 H 0.12066 0.52767 0.4903 0.0
H409 H 0.06602 0.5491 0.53414 0.0
H410 H 0.10107 0.58286 0.80423 0.0
H411 H 0.15548 0.56057 0.75991 0.0
H412 H 0.94245 0.35382 0.09438 0.0
H413 H 0.9872 0.369 1.0035 0.0
H414 H 0.93358 0.45249 0.98893 0.0
H415 H 0.88907 0.43738 0.07956 0.0
C416 C 0.11961 0.02761 0.53103 0.0
C417 C 0.12647 0.00172 0.46102 0.0
C418 C 0.09675 0.96975 0.54913 0.0
C419 C 0.08532 0.99624 0.6115 0.0
N420 N 0.08632 0.05104 0.66058 0.0
N421 N 0.11597 0.94892 0.39712 0.0
C422 C 0.0966 0.02539 0.60119 0.0
C423 C 0.11344 0.97302 0.46841 0.0
N424 N 0.13678 0.05383 0.53428 0.0
N425 N 0.09298 0.94132 0.56792 0.0
H426 H 0.12702 0.9506 0.33612 0.0
H427 H 0.10423 0.92828 0.3954 0.0
H428 H 0.08279 0.93778 0.62791 0.0
H429 H 0.10352 0.92155 0.52893 0.0
H430 H 0.13546 0.07239 0.58814 0.0
H431 H 0.15504 0.05597 0.48773 0.0
H432 H 0.08958 0.07316 0.6498 0.0
H433 H 0.07354 0.05009 0.71953 0.0
C434 C 0.45134 0.10055 0.65293 0.0
C435 C 0.47623 0.11169 0.60277 0.0
C436 C 0.51475 0.0721 0.63379 0.0
C437 C 0.48964 0.06023 0.6816 0.0
N438 N 0.43248 0.05916 0.72204 0.0
N439 N 0.5287 0.10411 0.52744 0.0
C440 C 0.45741 0.07328 0.6867 0.0
C441 C 0.50693 0.09599 0.5869 0.0
N442 N 0.4223 0.11662 0.67073 0.0
N443 N 0.5466 0.06233 0.63908 0.0
H444 H 0.52388 0.12189 0.49325 0.0
H445 H 0.54999 0.09141 0.50568 0.0
H446 H 0.55368 0.04624 0.67716 0.0
H447 H 0.56643 0.07231 0.61334 0.0
H448 H 0.40471 0.11192 0.71582 0.0
H449 H 0.41645 0.13588 0.64382 0.0
H450 H 0.40786 0.06576 0.72016 0.0
H451 H 0.43601 0.03887 0.74567 0.0
C452 C 0.42377 0.5244 0.49657 0.0
C453 C 0.40127 0.50004 0.47607 0.0
C454 C 0.42299 0.47875 0.60406 0.0
C455 C 0.44463 0.5036 0.62689 0.0
N456 N 0.46272 0.55241 0.60227 0.0
N457 N 0.37952 0.45396 0.51529 0.0
C458 C 0.44428 0.52703 0.57483 0.0
C459 C 0.40079 0.47753 0.53118 0.0
N460 N 0.42642 0.54436 0.43912 0.0
N461 N 0.42382 0.45545 0.65084 0.0
H462 H 0.36211 0.45086 0.46412 0.0
H463 H 0.36211 0.45086 0.46412 0.0
H464 H 0.44036 0.45434 0.70262 0.0
H465 H 0.40841 0.43673 0.63602 0.0
H466 H 0.44471 0.56051 0.44328 0.0
H467 H 0.41144 0.54346 0.38287 0.0
H468 H 0.4613 0.57183 0.57386 0.0
H469 H 0.47788 0.55509 0.65857 0.0
C470 C 0.02586 0.37863 0.52471 0.0
C471 C 0.05173 0.37972 0.46238 0.0
C472 C 0.06192 0.43316 0.53487 0.0
C473 C 0.03592 0.43188 0.59657 0.0
N474 N 0.98689 0.40725 0.63182 0.0
N475 N 0.0897 0.4094 0.39515 0.0
C476 C 1.01591 0.4058 0.58547 0.0
C477 C 0.0682 0.40756 0.4632 0.0
N478 N 1.01203 0.35133 0.52985 0.0
N479 N 0.08148 0.45816 0.54716 0.0
H480 H 0.0946 0.39099 0.34211 0.0
H481 H 0.10049 0.42963 0.3869 0.0
H482 H 0.07726 0.47738 0.59794 0.0
H483 H 0.10293 0.45926 0.51056 0.0
H484 H 0.99601 0.34868 0.58135 0.0
H485 H 0.01848 0.33069 0.48726 0.0
H486 H 0.96966 0.39001 0.62007 0.0
H487 H 0.97842 0.42713 0.67493 0.0
C488 C 0.94054 0.0197 0.20012 0.0
C489 C 0.91696 -0.0027 0.20881 0.0
C490 C 0.94045 0.96578 0.0687 0.0
C491 C 0.95631 0.99188 0.04888 0.0
N492 N 0.97064 0.04482 0.0992 0.0
N493 N 0.91708 0.94236 0.18528 0.0
C494 C 0.95612 0.01913 0.11567 0.0
C495 C 0.92248 0.96808 0.15177 0.0
N496 N 0.95243 0.03812 0.27547 0.0
N497 N 0.94399 0.93838 0.01048 0.0
H498 H 0.91305 0.94356 0.25399 0.0
H499 H 0.92228 0.92022 0.1503 0.0
H500 H 0.96103 0.93501 0.95791 0.0
H501 H 0.92973 0.9195 0.01365 0.0
H502 H 0.97201 0.05269 0.27365 0.0
H503 H 0.94588 0.03532 0.34006 0.0
H504 H 0.96874 0.06582 0.14406 0.0
H505 H 0.98195 0.04574 0.03797 0.0
C506 C 0.52885 0.91488 0.13121 0.0
C507 C 0.54063 0.88538 0.08856 0.0
C508 C 0.55998 0.90636 0.96004 0.0
C509 C 0.54309 0.93432 0.99541 0.0
N510 N 0.51043 0.96547 0.11367 0.0
N511 N 0.56756 0.85236 0.96297 0.0
C512 C 0.52781 0.93893 0.08168 0.0
C513 C 0.55673 0.88102 1.00363 0.0
N514 N 0.51847 0.91971 0.21892 0.0
N515 N 0.57933 0.9043 0.88508 0.0
H516 H 0.56664 0.83357 0.9945 0.0
H517 H 0.57591 0.8468 0.89659 0.0
H518 H 0.5824 0.92275 0.85295 0.0
H519 H 0.5946 0.88553 0.85978 0.0
H520 H 0.5125 0.94125 0.25699 0.0
H521 H 0.51861 0.90239 0.25636 0.0
H522 H 0.49529 0.96868 0.1704 0.0
H523 H 0.5095 0.98384 0.08049 0.0
C524 C 0.63561 0.48796 0.09783 0.0
C525 C 0.62502 0.49729 0.189 0.0
C526 C 0.57001 0.51003 0.13566 0.0
C527 C 0.57987 0.49839 0.04479 0.0
N528 N 0.62069 0.47221 0.94032 0.0
N529 N 0.58132 0.51468 0.29554 0.0
C530 C 0.61242 0.48652 0.02615 0.0
C531 C 0.59195 0.50761 0.20798 0.0
N532 N 0.66796 0.48032 0.07953 0.0
N533 N 0.54007 0.52456 0.15278 0.0
H534 H 0.59703 0.51538 0.3502 0.0
H535 H 0.55674 0.51845 0.31434 0.0
H536 H 0.52335 0.52673 0.10226 0.0
H537 H 0.53264 0.53652 0.21602 0.0
H538 H 0.67822 0.47699 0.01521 0.0
H539 H 0.6853 0.47936 0.12949 0.0
H540 H 0.64256 0.45989 0.92335 0.0
H541 H 0.60447 0.47032 0.88647 0.0
C542 C 0.98192 0.61115 0.13067 0.0
C543 C 0.99586 0.60584 0.21222 0.0
C544 C 1.0025 0.55108 0.14716 0.0
C545 C 0.98957 0.5566 0.06465 0.0
N546 N 0.95814 0.5892 0.98597 0.0
N547 N 1.01065 0.57036 0.30711 0.0
C548 C 0.97622 0.58583 0.05946 0.0
C549 C 1.00304 0.57554 0.22345 0.0
N550 N 0.97602 0.64045 0.11918 0.0
N551 N 1.01633 0.52315 0.15108 0.0
H552 H 1.01122 0.58799 0.36384 0.0
H553 H 1.01331 0.54858 0.32182 0.0
H554 H 1.01599 0.50453 0.09733 0.0
H555 H 0.02984 0.51887 0.20577 0.0
H556 H 0.96971 0.64595 0.05758 0.0
H557 H 0.97936 0.65958 0.17013 0.0
H558 H 0.94529 0.60926 0.98106 0.0
H559 H 0.95335 0.57079 0.93364 0.0
C560 C 0.99537 0.17911 0.57899 0.0
C561 C 0.99746 0.17932 0.48566 0.0
C562 C 0.96224 0.13475 0.45067 0.0
C563 C 0.96218 0.13328 0.54324 0.0
N564 N 0.96982 0.15803 0.6977 0.0
N565 N 0.97698 0.16301 0.33501 0.0
C566 C 0.97567 0.157 0.60822 0.0
C567 C 0.9787 0.15902 0.42221 0.0
N568 N 1.01374 0.19883 0.63878 0.0
N569 N 0.94776 0.11211 0.39019 0.0
H570 H 0.989 0.18055 0.31242 0.0
H571 H 0.96186 0.15056 0.28655 0.0
H572 H 0.9341 0.09506 0.41034 0.0
H573 H 0.94989 0.1096 0.32061 0.0
H574 H 1.01647 0.19743 0.70621 0.0
H575 H 0.02779 0.21583 0.61981 0.0
H576 H 0.97602 0.17639 0.74829 0.0
H577 H 0.95592 0.1417 0.72074 0.0
C578 C 0.32553 0.98521 0.42334 0.0
C579 C 0.33019 0.01743 0.44496 0.0
C580 C 0.38499 0.00907 0.50209 0.0
C581 C 0.3793 0.97711 0.48617 0.0
N582 N 0.34273 0.9349 0.44566 0.0
N583 N 0.36159 0.06039 0.51723 0.0
C584 C 0.34904 0.96525 0.45152 0.0
C585 C 0.35918 0.02948 0.4879 0.0
N586 N 0.29969 0.97346 0.37121 0.0
N587 N 0.41525 0.01987 0.52912 0.0
H588 H 0.34289 0.07586 0.50813 0.0
H589 H 0.38072 0.07048 0.55706 0.0
H590 H 0.43427 0.00608 0.54623 0.0
H591 H 0.42223 0.04216 0.52848 0.0
H592 H 0.29749 0.95027 0.3437 0.0
H593 H 0.28163 0.98693 0.34874 0.0
H594 H 0.31956 0.92573 0.4319 0.0
H595 H 0.36007 0.91913 0.46084 0.0
C596 C 0.53058 0.36147 0.77448 0.0
C597 C 0.52257 0.35007 0.68313 0.0
C598 C 0.53365 0.3998 0.64479 0.0
C599 C 0.53874 0.41179 0.73735 0.0
N600 N 0.55187 0.40358 0.88519 0.0
N601 N 0.52452 0.35503 0.52757 0.0
C602 C 0.54077 0.39223 0.80035 0.0
C603 C 0.52718 0.36812 0.6168 0.0
N604 N 0.52663 0.34339 0.83676 0.0
N605 N 0.53269 0.4192 0.58523 0.0
H606 H 0.51915 0.33199 0.50546 0.0
H607 H 0.53003 0.36616 0.47527 0.0
H608 H 0.5387 0.44222 0.60378 0.0
H609 H 0.52504 0.41296 0.51874 0.0
H610 H 0.52827 0.35127 0.906 0.0
H611 H 0.52035 0.32041 0.81893 0.0
H612 H 0.556 0.39035 0.93372 0.0
H613 H 0.55976 0.42606 0.90403 0.0
C614 C 0.19547 0.47098 0.55926 0.0
C615 C 0.21656 0.48172 0.49854 0.0
C616 C 0.19648 0.53435 0.5529 0.0
C617 C 0.17135 0.52276 0.59968 0.0
N618 N 0.14797 0.48164 0.65922 0.0
N619 N 0.23791 0.52345 0.43625 0.0
C620 C 0.17153 0.49155 0.6079 0.0
C621 C 0.21785 0.51351 0.49652 0.0
N622 N 0.19823 0.44117 0.56884 0.0
N623 N 0.19946 0.5653 0.56188 0.0
H624 H 0.25439 0.50907 0.39455 0.0
H625 H 0.23691 0.54553 0.42324 0.0
H626 H 0.1837 0.58094 0.6028 0.0
H627 H 0.21913 0.57549 0.5362 0.0
H628 H 0.18507 0.43201 0.6158 0.0
H629 H 0.2156 0.42589 0.53305 0.0
H630 H 0.14445 0.4588 0.66189 0.0
H631 H 0.1311 0.49657 0.69838 0.0
C632 C 0.11493 0.81418 0.20849 0.0
C633 C 0.08925 0.81414 0.27178 0.0
C634 C 0.07197 0.86592 0.25696 0.0
C635 C 0.09495 0.86442 0.18566 0.0
N636 N 0.13605 0.83604 0.08583 0.0
N637 N 0.04047 0.83792 0.34841 0.0
C638 C 0.11607 0.83835 0.1597 0.0
C639 C 0.06704 0.83952 0.29426 0.0
N640 N 0.13829 0.79121 0.19555 0.0
N641 N 0.05528 0.89277 0.2899 0.0
H642 H 0.03591 0.81893 0.37692 0.0
H643 H 0.02153 0.85434 0.35953 0.0
H644 H 0.05843 0.9126 0.26417 0.0
H645 H 0.04078 0.89628 0.34794 0.0
H646 H 0.15958 0.79158 0.15759 0.0
H647 H 0.13768 0.77279 0.22866 0.0
H648 H 0.14918 0.81616 0.05736 0.0
H649 H 0.13773 0.85329 0.04854 0.0
C650 C 0.67041 0.10343 0.40521 0.0
C651 C 0.70095 0.10965 0.36792 0.0
C652 C 0.67335 0.12316 0.23771 0.0
C653 C 0.64343 0.11384 0.27046 0.0
N654 N 0.61093 0.10527 0.39555 0.0
N655 N 0.73102 0.13414 0.2665 0.0
C656 C 0.64112 0.10777 0.35845 0.0
C657 C 0.70212 0.12283 0.2903 0.0
N658 N 0.66965 0.09103 0.48092 0.0
N659 N 0.6744 0.13055 0.15435 0.0
H660 H 0.75222 0.13396 0.30513 0.0
H661 H 0.73338 0.14586 0.21387 0.0
H662 H 0.65328 0.1321 0.11642 0.0
H663 H 0.69602 0.13423 0.12166 0.0
H664 H 0.64856 0.08257 0.50523 0.0
H665 H 0.69053 0.08787 0.51794 0.0
H666 H 0.60737 0.10351 0.46243 0.0
H667 H 0.58913 0.10785 0.36147 0.0
C668 C 0.45852 0.64133 0.95433 0.0
C669 C 0.4819 0.6556 0.01731 0.0
C670 C 0.51217 0.60686 1.0069 0.0
C671 C 0.48983 0.5929 0.94025 0.0
N672 N 0.44407 0.59668 0.84219 0.0
N673 N 0.53352 0.65374 0.09444 0.0
C674 C 0.46367 0.61012 0.91134 0.0
C675 C 0.50946 0.63885 0.04101 0.0
N676 N 0.43112 0.6575 0.93735 0.0
N677 N 0.53575 0.58942 0.03855 0.0
H678 H 0.53209 0.67696 0.12359 0.0
H679 H 0.55606 0.6437 0.10547 0.0
H680 H 0.53967 0.56621 0.0123 0.0
H681 H 0.55016 0.59733 0.0946 0.0
H682 H 0.41134 0.64776 0.89966 0.0
H683 H 0.42723 0.68062 0.96566 0.0
H684 H 0.42684 0.60863 0.81102 0.0
H685 H 0.44631 0.57356 0.81206 0.0
C686 C 0.85886 0.40743 0.29706 0.0
C687 C 0.82999 0.39258 0.26044 0.0
C688 C 0.85891 0.37149 0.11947 0.0
C689 C 0.88708 0.38764 0.15466 0.0
N690 N 0.91772 0.41229 0.28331 0.0
N691 N 0.8045 0.35429 0.14938 0.0
C692 C 0.88836 0.40243 0.24616 0.0
C693 C 0.83084 0.37226 0.17579 0.0
N694 N 0.85754 0.42826 0.37664 0.0
N695 N 0.85854 0.35691 0.03119 0.0
H696 H 0.78377 0.35468 0.19034 0.0
H697 H 0.80428 0.33731 0.09131 0.0
H698 H 0.87924 0.35514 0.98953 0.0
H699 H 0.83757 0.34769 0.99826 0.0
H700 H 0.87675 0.44265 0.4003 0.0
H701 H 0.83652 0.43284 0.41676 0.0
H702 H 0.92081 0.42074 0.35192 0.0
H703 H 0.93969 0.40919 0.24669 0.0
C704 C 0.0439 0.13547 0.92588 0.0
C705 C 0.05697 0.14171 0.01424 0.0
C706 C 0.05426 0.08717 0.02181 0.0
C707 C 0.04351 0.08043 0.93093 0.0
N708 N 0.0291 0.09761 0.79403 0.0
N709 N 0.07779 0.12363 0.14405 0.0
C710 C 0.03845 0.10449 0.88236 0.0
C711 C 0.06319 0.11755 0.06128 0.0
N712 N 0.03634 0.15933 0.88432 0.0
N713 N 0.05379 0.06495 0.07265 0.0
H714 H 0.08266 0.1457 0.17866 0.0
H715 H 0.08707 0.10669 0.17629 0.0
H716 H 0.04662 0.04261 0.04764 0.0
H717 H 0.05743 0.06919 0.14199 0.0
H718 H 0.02393 0.1571 0.82358 0.0
H719 H 0.04116 0.18205 0.91302 0.0
H720 H 0.02823 0.11327 0.7514 0.0
H721 H 0.02377 0.07553 0.76071 0.0
C722 C 0.36622 0.97312 0.93639 0.0
C723 C 0.35325 0.00063 0.9904 0.0
C724 C 0.40484 0.02621 0.96617 0.0
C725 C 0.41916 -0.00203 0.92053 0.0
N726 N 0.41491 0.94311 0.87831 0.0
N727 N 0.36378 0.05158 0.07291 0.0
C728 C 0.40017 0.97102 0.90971 0.0
C729 C 0.3736 0.02667 0.00975 0.0
N730 N 0.34593 0.94916 0.90833 0.0
N731 N 0.42038 0.053 0.96502 0.0
H732 H 0.34166 0.05268 0.10823 0.0
H733 H 0.37905 0.0698 0.09693 0.0
H734 H 0.44268 0.05394 0.93196 0.0
H735 H 0.40949 0.07447 0.98862 0.0
H736 H 0.35295 0.92977 0.86107 0.0
H737 H 0.32113 0.94987 0.9262 0.0
H738 H 0.40334 0.92246 0.87756 0.0
H739 H 0.43976 0.94047 0.86105 0.0
C740 C 0.44842 0.30669 0.15079 0.0
C741 C 0.44202 0.31181 0.24488 0.0
C742 C 0.4316 0.36639 0.24708 0.0
C743 C 0.44071 0.36185 0.15485 0.0
N744 N 0.46191 0.32867 0.02075 0.0
N745 N 0.43471 0.34755 0.38626 0.0
C746 C 0.45035 0.33223 0.10714 0.0
C747 C 0.43562 0.34198 0.2941 0.0
N748 N 0.45168 0.27739 0.10285 0.0
N749 N 0.41828 0.3939 0.28929 0.0
H750 H 0.43826 0.33047 0.42376 0.0
H751 H 0.43365 0.36951 0.42586 0.0
H752 H 0.41487 0.41216 0.25651 0.0
H753 H 0.40785 0.39765 0.35354 0.0
H754 H 0.45298 0.2719 0.03281 0.0
H755 H 0.45065 0.25828 0.13291 0.0
H756 H 0.4727 0.30841 0.98553 0.0
H757 H 0.46281 0.3467 0.98615 0.0
C758 C 0.16435 0.51616 0.96583 0.0
C759 C 0.17615 0.48927 0.99396 0.0
C760 C 0.12502 0.46357 0.93665 0.0
C761 C 0.1116 0.49146 0.91846 0.0
N762 N 0.11687 0.54607 0.93391 0.0
N763 N 0.16401 0.43927 0.02266 0.0
C764 C 0.13092 0.51823 0.93757 0.0
C765 C 0.15542 0.4635 0.98386 0.0
N766 N 0.18528 0.53954 0.96382 0.0
N767 N 0.10942 0.43673 0.90573 0.0
H768 H 0.18542 0.43853 0.05989 0.0
H769 H 0.14831 0.42136 0.02579 0.0
H770 H 0.08785 0.43555 0.86835 0.0
H771 H 0.11971 0.41535 0.90875 0.0
H772 H 0.1792 0.55827 0.93485 0.0
H773 H 0.20976 0.53884 0.9836 0.0
H774 H 0.12864 0.5667 0.95583 0.0
H775 H 0.0923 0.54883 0.91747 0.0
C776 C 0.01981 0.85333 0.61766 0.0
C777 C 0.99824 0.83497 0.65704 0.0
C778 C 0.97367 0.88133 0.75116 0.0
C779 C 0.99691 0.89916 0.71608 0.0
N780 N 0.0311 0.9036 0.58983 0.0
N781 N 0.95516 0.83061 0.76257 0.0
C782 C 1.01676 0.88562 0.64153 0.0
C783 C 0.97508 0.84875 0.7239 0.0
N784 N 0.04453 0.83995 0.56106 0.0
N785 N 0.94871 0.89589 0.80416 0.0
H786 H 0.95506 0.80685 0.74181 0.0
H787 H 0.94 0.83873 0.8179 0.0
H788 H 0.9454 0.91962 0.81501 0.0
H789 H 0.9295 0.88481 0.82865 0.0
H790 H 0.06342 0.85228 0.5397 0.0
H791 H 0.04787 0.81632 0.54114 0.0
H792 H 0.04276 0.89483 0.52854 0.0
H793 H 0.02788 0.92732 0.60258 0.0
C794 C 0.67504 0.98413 0.73605 0.0
C795 C 0.67929 0.9948 0.65398 0.0
C796 C 0.61889 -0.00211 0.64084 0.0
C797 C 0.61492 0.99182 0.72894 0.0
N798 N 0.63977 0.98153 0.86426 0.0
N799 N 0.65416 0.01781 0.53807 0.0
C800 C 0.64321 0.98569 0.77773 0.0
C801 C 0.65088 0.00314 0.60871 0.0
N802 N 0.70121 0.97129 0.77243 0.0
N803 N 0.59214 -0.00183 0.58676 0.0
H804 H 0.6768 0.02362 0.51483 0.0
H805 H 0.63428 0.0271 0.50862 0.0
H806 H 0.56846 0.99414 0.60724 0.0
H807 H 0.5939 -0.00058 0.5189 0.0
H808 H 0.6992 0.96046 0.82713 0.0
H809 H 0.72442 0.96868 0.74222 0.0
H810 H 0.65956 0.98039 0.90701 0.0
H811 H 0.61692 0.98134 0.89543 0.0
C812 C 0.5545 0.65288 0.35688 0.0
C813 C 0.5707 0.68032 0.39451 0.0
C814 C 0.61013 0.65032 0.46529 0.0
C815 C 0.58872 0.62513 0.44816 0.0
N816 N 0.56057 0.59785 0.31856 0.0
N817 N 0.61577 0.70507 0.48079 0.0
C818 C 0.56636 0.62473 0.37636 0.0
C819 C 0.59928 0.67902 0.44704 0.0
N820 N 0.52741 0.6536 0.30426 0.0
N821 N 0.64236 0.64554 0.48365 0.0
H822 H 0.60897 0.72639 0.46701 0.0
H823 H 0.6348 0.70561 0.52701 0.0
H824 H 0.65211 0.62345 0.48004 0.0
H825 H 0.65986 0.66251 0.48898 0.0
H826 H 0.51308 0.63446 0.28272 0.0
H827 H 0.51807 0.67366 0.28716 0.0
H828 H 0.54672 0.59645 0.26016 0.0
H829 H 0.57356 0.57778 0.32345 0.0
C830 C 0.85645 0.51282 0.7604 0.0
C831 C 0.85185 0.51289 0.66696 0.0
C832 C 0.91214 0.51164 0.64913 0.0
C833 C 0.91636 0.50533 0.73702 0.0
N834 N 0.89152 0.50032 0.87811 0.0
N835 N 0.87769 0.53845 0.56002 0.0
C836 C 0.88819 0.5059 0.79305 0.0
C837 C 0.88032 0.51945 0.62015 0.0
N838 N 0.83228 0.5249 0.82029 0.0
N839 N 0.93835 0.50973 0.59178 0.0
H840 H 0.85591 0.55065 0.55383 0.0
H841 H 0.89798 0.54608 0.52932 0.0
H842 H 0.962 0.50359 0.60898 0.0
H843 H 0.93574 0.51147 0.52442 0.0
H844 H 0.83502 0.52827 0.88994 0.0
H845 H 0.81149 0.53587 0.80016 0.0
H846 H 0.87147 0.49703 0.91779 0.0
H847 H 0.91426 0.49706 0.9067 0.0
loop_
_geom_bond_atom_site_label_1
_geom_bond_atom_site_label_2
_geom_bond_distance
_geom_bond_site_symmetry_2
_ccdc_geom_bond_type
P0 O11 1.490 . S
P0 C14 1.812 . S
P0 C20 1.803 . S
P0 C26 1.819 . S
H1 C15 0.941 . S
H2 C16 0.939 . S
H3 C18 0.940 . S
H4 C19 0.940 . S
H5 C21 0.939 . S
H6 C22 0.942 . S
H7 C24 0.940 . S
H8 C25 0.939 . S
H9 C27 0.941 . S
H10 C31 0.939 . S
O11 P0 1.490 . S
H12 C28 0.939 . S
H13 C30 0.940 . S
C14 P0 1.812 . S
C14 C15 1.389 . S
C14 C19 1.391 . S
C15 H1 0.941 . S
C15 C14 1.389 . S
C15 C16 1.397 . S
C16 H2 0.939 . S
C16 C15 1.397 . S
C16 C17 1.378 . S
C17 C16 1.378 . S
C17 C18 1.378 . S
C18 H3 0.940 . S
C18 C17 1.378 . S
C18 C19 1.396 . S
C19 H4 0.940 . S
C19 C14 1.391 . S
C19 C18 1.396 . S
C20 P0 1.803 . S
C20 C21 1.378 . S
C20 C25 1.400 . S
C21 H5 0.939 . S
C21 C20 1.378 . S
C21 C22 1.361 . S
C22 H6 0.942 . S
C22 C21 1.361 . S
C22 C23 1.369 . S
C23 C22 1.369 . S
C23 C24 1.404 . S
C24 H7 0.940 . S
C24 C23 1.404 . S
C24 C25 1.389 . S
C25 H8 0.939 . S
C25 C20 1.400 . S
C25 C24 1.389 . S
C26 P0 1.819 . S
C26 C27 1.391 . S
C26 C31 1.391 . S
C27 H9 0.941 . S
C27 C26 1.391 . S
C27 C28 1.396 . S
C28 H12 0.939 . S
C28 C27 1.396 . S
C28 C29 1.397 . S
C29 C28 1.397 . S
C29 C30 1.385 . S
C30 H13 0.940 . S
C30 C29 1.385 . S
C30 C31 1.388 . S
C31 H10 0.939 . S
C31 C26 1.391 . S
C31 C30 1.388 . S
P32 O43 1.490 . S
P32 C46 1.812 . S
P32 C52 1.803 . S
P32 C58 1.819 . S
H33 C47 0.941 . S
H34 C48 0.939 . S
H35 C50 0.940 . S
H36 C51 0.950 . S
H37 C53 0.939 . S
H38 C54 0.942 . S
H39 C56 0.940 . S
H40 C57 0.959 . S
H41 C59 0.941 . S
H42 C63 0.928 1_655 S
O43 P32 1.490 . S
H44 C60 0.939 . S
H45 C62 0.940 . S
C46 P32 1.812 . S
C46 C47 1.389 . S
C46 C51 1.375 1_455 S
C47 H33 0.941 . S
C47 C46 1.389 . S
C47 C48 1.397 . S
C48 H34 0.939 . S
C48 C47 1.397 . S
C48 C49 1.378 . S
C49 C48 1.378 . S
C49 C50 1.378 1_455 S
C50 H35 0.940 . S
C50 C49 1.378 1_655 S
C50 C51 1.402 . S
C51 H36 0.950 . S
C51 C46 1.375 1_655 S
C51 C50 1.402 . S
C52 P32 1.803 . S
C52 C53 1.378 . S
C52 C57 1.368 1_455 S
C53 H37 0.939 . S
C53 C52 1.378 . S
C53 C54 1.361 . S
C54 H38 0.942 . S
C54 C53 1.361 . S
C54 C55 1.369 . S
C55 C54 1.369 . S
C55 C56 1.404 1_455 S
C56 H39 0.940 . S
C56 C55 1.404 1_655 S
C56 C57 1.403 . S
C57 H40 0.959 . S
C57 C52 1.368 1_655 S
C57 C56 1.403 . S
C58 P32 1.819 . S
C58 C59 1.391 . S
C58 C63 1.391 . S
C59 H41 0.941 . S
C59 C58 1.391 . S
C59 C60 1.396 . S
C60 H44 0.939 . S
C60 C59 1.396 . S
C60 C61 1.397 . S
C61 C60 1.397 . S
C61 C62 1.385 1_455 S
C62 H45 0.940 . S
C62 C61 1.385 1_655 S
C62 C63 1.388 1_655 S
C63 H42 0.928 1_455 S
C63 C58 1.391 . S
C63 C62 1.388 1_455 S
P64 O75 1.490 . S
P64 C78 1.812 . S
P64 C84 1.803 . S
P64 C90 1.819 . S
H65 C79 0.941 . S
H66 C80 0.939 . S
H67 C82 0.940 . S
H68 C83 0.947 . S
H69 C85 0.939 . S
H70 C86 0.942 . S
H71 C88 0.940 . S
H72 C89 0.964 . S
H73 C91 0.941 . S
H74 C95 0.930 1_565 S
O75 P64 1.490 . S
H76 C92 0.939 . S
H77 C94 0.940 . S
C78 P64 1.812 . S
C78 C79 1.389 . S
C78 C83 1.375 1_545 S
C79 H65 0.941 . S
C79 C78 1.389 . S
C79 C80 1.397 . S
C80 H66 0.939 . S
C80 C79 1.397 . S
C80 C81 1.378 . S
C81 C80 1.378 . S
C81 C82 1.378 1_545 S
C82 H67 0.940 . S
C82 C81 1.378 1_565 S
C82 C83 1.406 . S
C83 H68 0.947 . S
C83 C78 1.375 1_565 S
C83 C82 1.406 . S
C84 P64 1.803 . S
C84 C85 1.378 . S
C84 C89 1.367 1_545 S
C85 H69 0.939 . S
C85 C84 1.378 . S
C85 C86 1.361 . S
C86 H70 0.942 . S
C86 C85 1.361 . S
C86 C87 1.369 . S
C87 C86 1.369 . S
C87 C88 1.404 1_545 S
C88 H71 0.940 . S
C88 C87 1.404 1_565 S
C88 C89 1.399 . S
C89 H72 0.964 . S
C89 C84 1.367 1_565 S
C89 C88 1.399 . S
C90 P64 1.819 . S
C90 C91 1.391 . S
C90 C95 1.391 . S
C91 H73 0.941 . S
C91 C90 1.391 . S
C91 C92 1.396 . S
C92 H76 0.939 . S
C92 C91 1.396 . S
C92 C93 1.397 . S
C93 C92 1.397 . S
C93 C94 1.385 1_545 S
C94 H77 0.940 . S
C94 C93 1.385 1_565 S
C94 C95 1.388 1_565 S
C95 H74 0.930 1_545 S
C95 C90 1.391 . S
C95 C94 1.388 1_545 S
P96 O107 1.490 . S
P96 C110 1.812 . S
P96 C116 1.803 1_554 S
P96 C122 1.819 1_554 S
H97 C111 0.941 . S
H98 C112 0.939 . S
H99 C114 0.940 . S
H100 C115 0.940 . S
H101 C117 0.939 . S
H102 C118 0.942 . S
H103 C120 0.937 1_554 S
H104 C121 0.939 . S
H105 C123 0.941 . S
H106 C127 0.939 . S
O107 P96 1.490 . S
H108 C124 0.939 . S
H109 C126 0.940 . S
C110 P96 1.812 . S
C110 C111 1.389 . S
C110 C115 1.391 . S
C111 H97 0.941 . S
C111 C110 1.389 . S
C111 C112 1.397 . S
C112 H98 0.939 . S
C112 C111 1.397 . S
C112 C113 1.378 . S
C113 C112 1.378 . S
C113 C114 1.378 . S
C114 H99 0.940 . S
C114 C113 1.378 . S
C114 C115 1.396 . S
C115 H100 0.940 . S
C115 C110 1.391 . S
C115 C114 1.396 . S
C116 P96 1.803 1_556 S
C116 C117 1.378 . S
C116 C121 1.400 1_556 S
C117 H101 0.939 . S
C117 C116 1.378 . S
C117 C118 1.361 . S
C118 H102 0.942 . S
C118 C117 1.361 . S
C118 C119 1.369 . S
C119 C118 1.369 . S
C119 C120 1.412 . S
C120 H103 0.937 1_556 S
C120 C119 1.412 . S
C120 C121 1.384 1_556 S
C121 H104 0.939 . S
C121 C116 1.400 1_554 S
C121 C120 1.384 1_554 S
C122 P96 1.819 1_556 S
C122 C123 1.391 . S
C122 C127 1.391 . S
C123 H105 0.941 . S
C123 C122 1.391 . S
C123 C124 1.396 . S
C124 H108 0.939 . S
C124 C123 1.396 . S
C124 C125 1.397 . S
C125 C124 1.397 . S
C125 C126 1.385 . S
C126 H109 0.940 . S
C126 C125 1.385 . S
C126 C127 1.388 . S
C127 H106 0.939 . S
C127 C122 1.391 . S
C127 C126 1.388 . S
P128 O139 1.490 . S
P128 C142 1.812 . S
P128 C148 1.803 . S
P128 C154 1.819 . S
H129 C143 0.941 . S
H130 C144 0.939 . S
H131 C146 0.940 1_554 S
H132 C147 0.940 . S
H133 C149 0.939 . S
H134 C150 0.942 . S
H135 C152 0.940 . S
H136 C153 0.939 . S
H137 C155 0.941 . S
H138 C159 0.939 . S
O139 P128 1.490 . S
H140 C156 0.939 . S
H141 C158 0.940 . S
C142 P128 1.812 . S
C142 C143 1.389 1_554 S
C142 C147 1.391 . S
C143 H129 0.941 . S
C143 C142 1.389 1_556 S
C143 C144 1.397 . S
C144 H130 0.939 . S
C144 C143 1.397 . S
C144 C145 1.378 . S
C145 C144 1.378 . S
C145 C146 1.378 . S
C146 H131 0.940 1_556 S
C146 C145 1.378 . S
C146 C147 1.396 1_556 S
C147 H132 0.940 . S
C147 C142 1.391 . S
C147 C146 1.396 1_554 S
C148 P128 1.803 . S
C148 C149 1.378 . S
C148 C153 1.400 . S
C149 H133 0.939 . S
C149 C148 1.378 . S
C149 C150 1.361 . S
C150 H134 0.942 . S
C150 C149 1.361 . S
C150 C151 1.369 . S
C151 C150 1.369 . S
C151 C152 1.404 . S
C152 H135 0.940 . S
C152 C151 1.404 . S
C152 C153 1.389 . S
C153 H136 0.939 . S
C153 C148 1.400 . S
C153 C152 1.389 . S
C154 P128 1.819 . S
C154 C155 1.391 . S
C154 C159 1.391 . S
C155 H137 0.941 . S
C155 C154 1.391 . S
C155 C156 1.396 . S
C156 H140 0.939 . S
C156 C155 1.396 . S
C156 C157 1.397 . S
C157 C156 1.397 . S
C157 C158 1.385 . S
C158 H141 0.940 . S
C158 C157 1.385 . S
C158 C159 1.388 . S
C159 H138 0.939 . S
C159 C154 1.391 . S
C159 C158 1.388 . S
P160 O171 1.490 . S
P160 C174 1.812 . S
P160 C180 1.803 . S
P160 C186 1.819 . S
H161 C175 0.941 . S
H162 C176 0.939 . S
H163 C178 0.940 . S
H164 C179 0.945 . S
H165 C181 0.939 . S
H166 C182 0.942 . S
H167 C184 0.940 . S
H168 C185 0.955 . S
H169 C187 0.941 . S
H170 C191 0.932 1_655 S
O171 P160 1.490 . S
H172 C188 0.939 . S
H173 C190 0.940 . S
C174 P160 1.812 . S
C174 C175 1.389 . S
C174 C179 1.383 1_455 S
C175 H161 0.941 . S
C175 C174 1.389 . S
C175 C176 1.397 1_554 S
C176 H162 0.939 . S
C176 C175 1.397 1_556 S
C176 C177 1.378 . S
C177 C176 1.378 . S
C177 C178 1.378 1_456 S
C178 H163 0.940 . S
C178 C177 1.378 1_654 S
C178 C179 1.400 . S
C179 H164 0.945 . S
C179 C174 1.383 1_655 S
C179 C178 1.400 . S
C180 P160 1.803 . S
C180 C181 1.378 . S
C180 C185 1.376 1_455 S
C181 H165 0.939 . S
C181 C180 1.378 . S
C181 C182 1.361 . S
C182 H166 0.942 . S
C182 C181 1.361 . S
C182 C183 1.369 . S
C183 C182 1.369 . S
C183 C184 1.404 1_455 S
C184 H167 0.940 . S
C184 C183 1.404 1_655 S
C184 C185 1.398 . S
C185 H168 0.955 . S
C185 C180 1.376 1_655 S
C185 C184 1.398 . S
C186 P160 1.819 . S
C186 C187 1.391 . S
C186 C191 1.391 . S
C187 H169 0.941 . S
C187 C186 1.391 . S
C187 C188 1.396 . S
C188 H172 0.939 . S
C188 C187 1.396 . S
C188 C189 1.397 . S
C189 C188 1.397 . S
C189 C190 1.385 1_455 S
C190 H173 0.940 . S
C190 C189 1.385 1_655 S
C190 C191 1.388 1_655 S
C191 H170 0.932 1_455 S
C191 C186 1.391 . S
C191 C190 1.388 1_455 S
P192 O203 1.490 . S
P192 C206 1.812 . S
P192 C212 1.803 . S
P192 C218 1.819 . S
H193 C207 0.941 . S
H194 C208 0.939 . S
H195 C210 0.940 1_556 S
H196 C211 0.947 . S
H197 C213 0.939 . S
H198 C214 0.942 . S
H199 C216 0.940 . S
H200 C217 0.951 . S
H201 C219 0.941 . S
H202 C223 0.931 1_565 S
O203 P192 1.490 . S
H204 C220 0.939 . S
H205 C222 0.940 . S
C206 P192 1.812 . S
C206 C207 1.389 . S
C206 C211 1.383 1_545 S
C207 H193 0.941 . S
C207 C206 1.389 . S
C207 C208 1.397 1_554 S
C208 H194 0.939 . S
C208 C207 1.397 1_556 S
C208 C209 1.378 . S
C209 C208 1.378 . S
C209 C210 1.378 1_546 S
C210 H195 0.940 1_554 S
C210 C209 1.378 1_564 S
C210 C211 1.398 . S
C211 H196 0.947 . S
C211 C206 1.383 1_565 S
C211 C210 1.398 . S
C212 P192 1.803 . S
C212 C213 1.378 . S
C212 C217 1.378 1_545 S
C213 H197 0.939 . S
C213 C212 1.378 . S
C213 C214 1.361 . S
C214 H198 0.942 . S
C214 C213 1.361 . S
C214 C215 1.369 . S
C215 C214 1.369 . S
C215 C216 1.404 1_545 S
C216 H199 0.940 . S
C216 C215 1.404 1_565 S
C216 C217 1.401 . S
C217 H200 0.951 . S
C217 C212 1.378 1_565 S
C217 C216 1.401 . S
C218 P192 1.819 . S
C218 C219 1.391 . S
C218 C223 1.391 . S
C219 H201 0.941 . S
C219 C218 1.391 . S
C219 C220 1.396 . S
C220 H204 0.939 . S
C220 C219 1.396 . S
C220 C221 1.397 . S
C221 C220 1.397 . S
C221 C222 1.385 1_545 S
C222 H205 0.940 . S
C222 C221 1.385 1_565 S
C222 C223 1.388 1_565 S
C223 H202 0.931 1_545 S
C223 C218 1.391 . S
C223 C222 1.388 1_545 S
P224 O235 1.490 . S
P224 C238 1.812 . S
P224 C244 1.803 . S
P224 C250 1.819 . S
H225 C239 0.941 . S
H226 C240 0.939 . S
H227 C242 0.940 . S
H228 C243 0.940 . S
H229 C245 0.939 . S
H230 C246 0.942 . S
H231 C248 0.940 . S
H232 C249 0.939 . S
H233 C251 0.941 . S
H234 C255 0.939 . S
O235 P224 1.490 . S
H236 C252 0.939 . S
H237 C254 0.940 . S
C238 P224 1.812 . S
C238 C239 1.389 . S
C238 C243 1.391 . S
C239 H225 0.941 . S
C239 C238 1.389 . S
C239 C240 1.397 . S
C240 H226 0.939 . S
C240 C239 1.397 . S
C240 C241 1.378 . S
C241 C240 1.378 . S
C241 C242 1.378 . S
C242 H227 0.940 . S
C242 C241 1.378 . S
C242 C243 1.396 . S
C243 H228 0.940 . S
C243 C238 1.391 . S
C243 C242 1.396 . S
C244 P224 1.803 . S
C244 C245 1.378 . S
C244 C249 1.400 . S
C245 H229 0.939 . S
C245 C244 1.378 . S
C245 C246 1.361 . S
C246 H230 0.942 . S
C246 C245 1.361 . S
C246 C247 1.369 . S
C247 C246 1.369 . S
C247 C248 1.404 . S
C248 H231 0.940 . S
C248 C247 1.404 . S
C248 C249 1.389 . S
C249 H232 0.939 . S
C249 C244 1.400 . S
C249 C248 1.389 . S
C250 P224 1.819 . S
C250 C251 1.391 . S
C250 C255 1.391 . S
C251 H233 0.941 . S
C251 C250 1.391 . S
C251 C252 1.396 . S
C252 H236 0.939 . S
C252 C251 1.396 . S
C252 C253 1.397 . S
C253 C252 1.397 . S
C253 C254 1.385 . S
C254 H237 0.940 . S
C254 C253 1.385 . S
C254 C255 1.388 . S
C255 H234 0.939 . S
C255 C250 1.391 . S
C255 C254 1.388 . S
Tb256 C265 2.764 . S
Tb256 O266 2.325 . S
Tb256 O269 2.303 1_655 S
Tb256 O273 2.322 1_545 S
Tb256 O274 2.349 . S
Tb256 O277 2.415 . S
Tb256 O278 2.399 . S
Tb257 O267 2.322 1_565 S
Tb257 O268 2.349 . S
Tb257 O270 2.415 . S
Tb257 O271 2.399 . S
Tb257 O272 2.325 . S
Tb257 O275 2.303 1_455 S
Tb257 C286 2.764 . S
C258 O274 1.261 . S
C258 O275 1.257 1_545 S
C259 C262 1.358 . S
C259 C263 1.332 . S
C259 C265 1.504 . S
C260 C261 1.373 . S
C260 C264 1.308 . S
C261 C260 1.373 . S
C261 C262 1.429 . S
C261 H288 0.932 . S
C262 C259 1.358 . S
C262 C261 1.429 . S
C262 H289 0.930 . S
C263 C259 1.332 . S
C263 C264 1.394 . S
C263 H290 0.946 . S
C264 C260 1.308 . S
C264 C263 1.394 . S
C264 H291 0.929 . S
C265 Tb256 2.764 . S
C265 C259 1.504 . S
C265 O277 1.239 . S
C265 O278 1.263 . S
O266 Tb256 2.325 . S
O266 C276 1.236 1_655 S
O267 Tb257 2.322 1_545 S
O267 C276 1.257 . S
O268 Tb257 2.349 . S
O268 C279 1.261 . S
O269 Tb256 2.303 1_455 S
O269 C279 1.257 1_545 S
O270 Tb257 2.415 . S
O270 C286 1.239 . S
O271 Tb257 2.399 . S
O271 C286 1.263 . S
O272 Tb257 2.325 . S
O272 C287 1.236 1_455 S
O273 Tb256 2.322 1_565 S
O273 C287 1.257 . S
O274 Tb256 2.349 . S
O274 C258 1.261 . S
O275 Tb257 2.303 1_655 S
O275 C258 1.257 1_565 S
C276 O266 1.236 1_455 S
C276 O267 1.257 . S
O277 Tb256 2.415 . S
O277 C265 1.239 . S
O278 Tb256 2.399 . S
O278 C265 1.263 . S
C279 O268 1.261 . S
C279 O269 1.257 1_565 S
C280 C283 1.358 . S
C280 C284 1.332 . S
C280 C286 1.504 1_554 S
C281 C282 1.373 . S
C281 C285 1.308 . S
C282 C281 1.373 . S
C282 C283 1.429 . S
C282 H292 0.932 . S
C283 C280 1.358 . S
C283 C282 1.429 . S
C283 H293 0.930 . S
C284 C280 1.332 . S
C284 C285 1.394 . S
C284 H294 0.954 . S
C285 C281 1.308 . S
C285 C284 1.394 . S
C285 H295 0.929 . S
C286 Tb257 2.764 . S
C286 O270 1.239 . S
C286 O271 1.263 . S
C286 C280 1.504 1_556 S
C287 O272 1.236 1_655 S
C287 O273 1.257 . S
H288 C261 0.932 . S
H289 C262 0.930 . S
H290 C263 0.946 . S
H291 C264 0.929 . S
H292 C282 0.932 . S
H293 C283 0.930 . S
H294 C284 0.954 . S
H295 C285 0.929 . S
Tb296 C305 2.764 . S
Tb296 O306 2.325 . S
Tb296 O309 2.303 1_565 S
Tb296 O313 2.322 . S
Tb296 O314 2.349 . S
Tb296 O317 2.415 1_565 S
Tb296 O318 2.399 . S
Tb297 O307 2.322 . S
Tb297 O308 2.349 . S
Tb297 O310 2.415 1_546 S
Tb297 O311 2.399 1_556 S
Tb297 O312 2.325 . S
Tb297 O315 2.303 1_545 S
Tb297 C326 2.764 1_556 S
C298 O314 1.261 . S
C298 O315 1.257 . S
C299 C302 1.358 . S
C299 C303 1.332 1_565 S
C299 C305 1.504 . S
C300 C301 1.373 . S
C300 C304 1.332 . S
C301 C300 1.373 . S
C301 C302 1.429 . S
C301 H328 0.932 . S
C302 C299 1.358 . S
C302 C301 1.429 . S
C302 H329 0.930 . S
C303 C299 1.332 1_545 S
C303 C304 1.396 1_545 S
C303 H330 0.932 . S
C304 C300 1.332 . S
C304 C303 1.396 1_565 S
C304 H331 0.903 1_565 S
C305 Tb296 2.764 . S
C305 C299 1.504 . S
C305 O317 1.239 1_565 S
C305 O318 1.263 . S
O306 Tb296 2.325 . S
O306 C316 1.236 1_565 S
O307 Tb297 2.322 . S
O307 C316 1.257 . S
O308 Tb297 2.349 . S
O308 C319 1.261 . S
O309 Tb296 2.303 1_545 S
O309 C319 1.257 . S
O310 Tb297 2.415 1_564 S
O310 C326 1.239 1_565 S
O311 Tb297 2.399 1_554 S
O311 C326 1.263 . S
O312 Tb297 2.325 . S
O312 C327 1.236 1_545 S
O313 Tb296 2.322 . S
O313 C327 1.257 . S
O314 Tb296 2.349 . S
O314 C298 1.261 . S
O315 Tb297 2.303 1_565 S
O315 C298 1.257 . S
C316 O306 1.236 1_545 S
C316 O307 1.257 . S
O317 Tb296 2.415 1_545 S
O317 C305 1.239 1_545 S
O318 Tb296 2.399 . S
O318 C305 1.263 . S
C319 O308 1.261 . S
C319 O309 1.257 . S
C320 C323 1.358 . S
C320 C324 1.303 1_545 S
C320 C326 1.504 . S
C321 C322 1.373 . S
C321 C325 1.308 . S
C322 C321 1.373 . S
C322 C323 1.429 . S
C322 H332 0.932 . S
C323 C320 1.358 . S
C323 C322 1.429 . S
C323 H333 0.930 . S
C324 C320 1.303 1_565 S
C324 C325 1.396 1_565 S
C324 H334 0.961 . S
C325 C321 1.308 . S
C325 C324 1.396 1_545 S
C325 H335 0.929 1_545 S
C326 Tb297 2.764 1_554 S
C326 O310 1.239 1_545 S
C326 O311 1.263 . S
C326 C320 1.504 . S
C327 O312 1.236 1_565 S
C327 O313 1.257 . S
H328 C301 0.932 . S
H329 C302 0.930 . S
H330 C303 0.932 . S
H331 C304 0.903 1_545 S
H332 C322 0.932 . S
H333 C323 0.930 . S
H334 C324 0.961 . S
H335 C325 0.929 1_565 S
Tb336 C345 2.764 1_556 S
Tb336 O346 2.325 . S
Tb336 O349 2.303 . S
Tb336 O353 2.322 . S
Tb336 O354 2.349 . S
Tb336 O357 2.415 1_556 S
Tb336 O358 2.399 . S
Tb337 O347 2.322 . S
Tb337 O348 2.349 . S
Tb337 O350 2.415 . S
Tb337 O351 2.399 . S
Tb337 O352 2.325 . S
Tb337 O355 2.303 . S
Tb337 C366 2.764 . S
C338 O354 1.261 . S
C338 O355 1.257 . S
C339 C342 1.358 . S
C339 C343 1.332 . S
C339 C345 1.504 . S
C340 C341 1.373 . S
C340 C344 1.308 . S
C341 C340 1.373 . S
C341 C342 1.429 . S
C341 H368 0.932 . S
C342 C339 1.358 . S
C342 C341 1.429 . S
C342 H369 0.930 . S
C343 C339 1.332 . S
C343 C344 1.394 . S
C343 H370 0.932 . S
C344 C340 1.308 . S
C344 C343 1.394 . S
C344 H371 0.929 . S
C345 Tb336 2.764 1_554 S
C345 C339 1.504 . S
C345 O357 1.239 . S
C345 O358 1.263 1_554 S
O346 Tb336 2.325 . S
O346 C356 1.236 . S
O347 Tb337 2.322 . S
O347 C356 1.257 . S
O348 Tb337 2.349 . S
O348 C359 1.261 . S
O349 Tb336 2.303 . S
O349 C359 1.257 . S
O350 Tb337 2.415 . S
O350 C366 1.239 . S
O351 Tb337 2.399 . S
O351 C366 1.263 . S
O352 Tb337 2.325 . S
O352 C367 1.236 . S
O353 Tb336 2.322 . S
O353 C367 1.257 . S
O354 Tb336 2.349 . S
O354 C338 1.261 . S
O355 Tb337 2.303 . S
O355 C338 1.257 . S
C356 O346 1.236 . S
C356 O347 1.257 . S
O357 Tb336 2.415 1_554 S
O357 C345 1.239 . S
O358 Tb336 2.399 . S
O358 C345 1.263 1_556 S
C359 O348 1.261 . S
C359 O349 1.257 . S
C360 C363 1.358 . S
C360 C364 1.332 . S
C360 C366 1.504 . S
C361 C362 1.373 . S
C361 C365 1.308 . S
C362 C361 1.373 . S
C362 C363 1.429 . S
C362 H372 0.932 . S
C363 C360 1.358 . S
C363 C362 1.429 . S
C363 H373 0.930 . S
C364 C360 1.332 . S
C364 C365 1.394 . S
C364 H374 0.932 . S
C365 C361 1.308 . S
C365 C364 1.394 . S
C365 H375 0.929 . S
C366 Tb337 2.764 . S
C366 O350 1.239 . S
C366 O351 1.263 . S
C366 C360 1.504 . S
C367 O352 1.236 . S
C367 O353 1.257 . S
H368 C341 0.932 . S
H369 C342 0.930 . S
H370 C343 0.932 . S
H371 C344 0.929 . S
H372 C362 0.932 . S
H373 C363 0.930 . S
H374 C364 0.932 . S
H375 C365 0.929 . S
Tb376 C385 2.764 . S
Tb376 O386 2.325 . S
Tb376 O389 2.303 . S
Tb376 O393 2.322 1_455 S
Tb376 O394 2.349 . S
Tb376 O397 2.415 . S
Tb376 O398 2.399 . S
Tb377 O387 2.322 1_655 S
Tb377 O388 2.349 . S
Tb377 O390 2.415 1_556 S
Tb377 O391 2.399 . S
Tb377 O392 2.325 . S
Tb377 O395 2.303 . S
Tb377 C406 2.764 1_556 S
C378 O394 1.261 . S
C378 O395 1.257 1_455 S
C379 C382 1.358 . S
C379 C383 1.332 . S
C379 C385 1.504 . S
C380 C381 1.373 . S
C380 C384 1.308 . S
C381 C380 1.373 . S
C381 C382 1.429 . S
C381 H408 0.932 . S
C382 C379 1.358 . S
C382 C381 1.429 . S
C382 H409 0.930 . S
C383 C379 1.332 . S
C383 C384 1.394 . S
C383 H410 0.932 . S
C384 C380 1.308 . S
C384 C383 1.394 . S
C384 H411 0.929 . S
C385 Tb376 2.764 . S
C385 C379 1.504 . S
C385 O397 1.239 . S
C385 O398 1.263 . S
O386 Tb376 2.325 . S
O386 C396 1.236 . S
O387 Tb377 2.322 1_455 S
O387 C396 1.257 . S
O388 Tb377 2.349 . S
O388 C399 1.261 . S
O389 Tb376 2.303 . S
O389 C399 1.257 1_455 S
O390 Tb377 2.415 1_554 S
O390 C406 1.239 . S
O391 Tb377 2.399 . S
O391 C406 1.263 1_556 S
O392 Tb377 2.325 . S
O392 C407 1.236 . S
O393 Tb376 2.322 1_655 S
O393 C407 1.257 . S
O394 Tb376 2.349 . S
O394 C378 1.261 . S
O395 Tb377 2.303 . S
O395 C378 1.257 1_655 S
C396 O386 1.236 . S
C396 O387 1.257 . S
O397 Tb376 2.415 . S
O397 C385 1.239 . S
O398 Tb376 2.399 . S
O398 C385 1.263 . S
C399 O388 1.261 . S
C399 O389 1.257 1_655 S
C400 C403 1.358 . S
C400 C404 1.332 . S
C400 C406 1.504 . S
C401 C402 1.373 . S
C401 C405 1.308 . S
C402 C401 1.373 . S
C402 C403 1.429 . S
C402 H412 0.932 . S
C403 C400 1.358 . S
C403 C402 1.429 . S
C403 H413 0.930 . S
C404 C400 1.332 . S
C404 C405 1.394 . S
C404 H414 0.932 . S
C405 C401 1.308 . S
C405 C404 1.394 . S
C405 H415 0.929 . S
C406 Tb377 2.764 1_554 S
C406 O390 1.239 . S
C406 O391 1.263 1_554 S
C406 C400 1.504 . S
C407 O392 1.236 . S
C407 O393 1.257 . S
H408 C381 0.932 . S
H409 C382 0.930 . S
H410 C383 0.932 . S
H411 C384 0.929 . S
H412 C402 0.932 . S
H413 C403 0.930 . S
H414 C404 0.932 . S
H415 C405 0.929 . S
C416 C417 1.383 . S
C416 C422 1.379 . S
C416 N424 1.356 . S
C417 C416 1.383 . S
C417 C423 1.337 1_545 S
C418 C419 1.363 1_565 S
C418 C423 1.379 . S
C418 N425 1.356 . S
C419 C418 1.363 1_545 S
C419 C422 1.363 . S
N420 C422 1.356 . S
N420 H432 0.984 . S
N420 H433 0.985 . S
N421 C423 1.356 . S
N421 H426 0.984 . S
N421 H427 0.985 . S
C422 C416 1.379 . S
C422 C419 1.363 . S
C422 N420 1.356 . S
C423 C417 1.337 1_565 S
C423 C418 1.379 . S
C423 N421 1.356 . S
N424 C416 1.356 . S
N424 H430 0.984 . S
N424 H431 0.984 . S
N425 C418 1.356 . S
N425 H428 0.984 . S
N425 H429 0.985 . S
H426 N421 0.984 . S
H427 N421 0.985 . S
H428 N425 0.984 . S
H429 N425 0.985 . S
H430 N424 0.984 . S
H431 N424 0.984 . S
H432 N420 0.984 . S
H433 N420 0.985 . S
C434 C435 1.363 . S
C434 C440 1.379 . S
C434 N442 1.356 . S
C435 C434 1.363 . S
C435 C441 1.363 . S
C436 C437 1.363 . S
C436 C441 1.379 . S
C436 N443 1.356 . S
C437 C436 1.363 . S
C437 C440 1.363 . S
N438 C440 1.356 . S
N438 H450 0.984 . S
N438 H451 0.985 . S
N439 C441 1.356 . S
N439 H444 0.984 . S
N439 H445 0.985 . S
C440 C434 1.379 . S
C440 C437 1.363 . S
C440 N438 1.356 . S
C441 C435 1.363 . S
C441 C436 1.379 . S
C441 N439 1.356 . S
N442 C434 1.356 . S
N442 H448 0.984 . S
N442 H449 0.984 . S
N443 C436 1.356 . S
N443 H446 0.984 . S
N443 H447 0.985 . S
H444 N439 0.984 . S
H445 N439 0.985 . S
H446 N443 0.984 . S
H447 N443 0.985 . S
H448 N442 0.984 . S
H449 N442 0.984 . S
H450 N438 0.984 . S
H451 N438 0.985 . S
C452 C453 1.363 . S
C452 C458 1.379 . S
C452 N460 1.356 . S
C453 C452 1.363 . S
C453 C459 1.363 . S
C454 C455 1.363 . S
C454 C459 1.379 . S
C454 N461 1.356 . S
C455 C454 1.363 . S
C455 C458 1.363 . S
N456 C458 1.356 . S
N456 H468 0.984 . S
N456 H469 0.985 . S
N457 C459 1.356 . S
N457 H462 0.984 . S
N457 H463 0.985 . S
C458 C452 1.379 . S
C458 C455 1.363 . S
C458 N456 1.356 . S
C459 C453 1.363 . S
C459 C454 1.379 . S
C459 N457 1.356 . S
N460 C452 1.356 . S
N460 H466 0.984 . S
N460 H467 0.984 . S
N461 C454 1.356 . S
N461 H464 0.984 . S
N461 H465 0.985 . S
H462 N457 0.984 . S
H463 N457 0.985 . S
H464 N461 0.984 . S
H465 N461 0.985 . S
H466 N460 0.984 . S
H467 N460 0.984 . S
H468 N456 0.984 . S
H469 N456 0.985 . S
C470 C471 1.354 1_655 S
C470 C476 1.379 . S
C470 N478 1.356 . S
C471 C470 1.354 1_455 S
C471 C477 1.373 . S
C472 C473 1.363 . S
C472 C477 1.379 . S
C472 N479 1.356 . S
C473 C472 1.363 . S
C473 C476 1.363 1_455 S
N474 C476 1.356 . S
N474 H486 0.984 . S
N474 H487 0.985 . S
N475 C477 1.356 . S
N475 H480 0.984 . S
N475 H481 0.985 . S
C476 C470 1.379 . S
C476 C473 1.363 1_655 S
C476 N474 1.356 . S
C477 C471 1.373 . S
C477 C472 1.379 . S
C477 N475 1.356 . S
N478 C470 1.356 . S
N478 H484 0.984 . S
N478 H485 0.984 . S
N479 C472 1.356 . S
N479 H482 0.984 . S
N479 H483 0.985 . S
H480 N475 0.984 . S
H481 N475 0.985 . S
H482 N479 0.984 . S
H483 N479 0.985 . S
H484 N478 0.984 . S
H485 N478 0.984 . S
H486 N474 0.984 . S
H487 N474 0.985 . S
C488 C489 1.341 1_545 S
C488 C494 1.379 . S
C488 N496 1.356 . S
C489 C488 1.341 1_565 S
C489 C495 1.380 . S
C490 C491 1.363 . S
C490 C495 1.379 . S
C490 N497 1.356 . S
C491 C490 1.363 . S
C491 C494 1.363 1_565 S
N492 C494 1.356 . S
N492 H504 0.984 . S
N492 H505 0.985 . S
N493 C495 1.356 . S
N493 H498 0.984 . S
N493 H499 0.985 . S
C494 C488 1.379 . S
C494 C491 1.363 1_545 S
C494 N492 1.356 . S
C495 C489 1.380 . S
C495 C490 1.379 . S
C495 N493 1.356 . S
N496 C488 1.356 . S
N496 H502 0.984 . S
N496 H503 0.984 . S
N497 C490 1.356 . S
N497 H500 0.984 1_554 S
N497 H501 0.985 . S
H498 N493 0.984 . S
H499 N493 0.985 . S
H500 N497 0.984 1_556 S
H501 N497 0.985 . S
H502 N496 0.984 . S
H503 N496 0.984 . S
H504 N492 0.984 . S
H505 N492 0.985 . S
C506 C507 1.363 . S
C506 C512 1.379 . S
C506 N514 1.356 1_556 S
C507 C506 1.363 . S
C507 C513 1.363 . S
C508 C509 1.363 . S
C508 C513 1.379 . S
C508 N515 1.356 . S
C509 C508 1.363 . S
C509 C512 1.363 . S
N510 C512 1.356 . S
N510 H522 0.984 1_556 S
N510 H523 0.985 . S
N511 C513 1.356 . S
N511 H516 0.984 . S
N511 H517 0.985 . S
C512 C506 1.379 . S
C512 C509 1.363 . S
C512 N510 1.356 . S
C513 C507 1.363 . S
C513 C508 1.379 . S
C513 N511 1.356 . S
N514 C506 1.356 1_554 S
N514 H520 0.984 . S
N514 H521 0.984 . S
N515 C508 1.356 . S
N515 H518 0.984 . S
N515 H519 0.985 . S
H516 N511 0.984 . S
H517 N511 0.985 . S
H518 N515 0.984 . S
H519 N515 0.985 . S
H520 N514 0.984 . S
H521 N514 0.984 . S
H522 N510 0.984 1_554 S
H523 N510 0.985 . S
C524 C525 1.363 . S
C524 C530 1.379 . S
C524 N532 1.356 . S
C525 C524 1.363 . S
C525 C531 1.363 . S
C526 C527 1.363 . S
C526 C531 1.379 . S
C526 N533 1.356 . S
C527 C526 1.363 . S
C527 C530 1.363 . S
N528 C530 1.356 . S
N528 H540 0.984 . S
N528 H541 0.985 . S
N529 C531 1.356 . S
N529 H534 0.984 . S
N529 H535 0.985 . S
C530 C524 1.379 . S
C530 C527 1.363 . S
C530 N528 1.356 . S
C531 C525 1.363 . S
C531 C526 1.379 . S
C531 N529 1.356 . S
N532 C524 1.356 . S
N532 H538 0.984 . S
N532 H539 0.984 . S
N533 C526 1.356 . S
N533 H536 0.984 . S
N533 H537 0.985 . S
H534 N529 0.984 . S
H535 N529 0.985 . S
H536 N533 0.984 . S
H537 N533 0.985 . S
H538 N532 0.984 . S
H539 N532 0.984 . S
H540 N528 0.984 . S
H541 N528 0.985 . S
C542 C543 1.375 . S
C542 C548 1.379 . S
C542 N550 1.356 . S
C543 C542 1.375 . S
C543 C549 1.352 1_655 S
C544 C545 1.363 1_455 S
C544 C549 1.379 . S
C544 N551 1.356 . S
C545 C544 1.363 1_655 S
C545 C548 1.363 . S
N546 C548 1.356 . S
N546 H558 0.984 . S
N546 H559 0.985 1_554 S
N547 C549 1.356 . S
N547 H552 0.984 . S
N547 H553 0.985 . S
C548 C542 1.379 . S
C548 C545 1.363 . S
C548 N546 1.356 . S
C549 C543 1.352 1_455 S
C549 C544 1.379 . S
C549 N547 1.356 . S
N550 C542 1.356 . S
N550 H556 0.984 . S
N550 H557 0.984 . S
N551 C544 1.356 . S
N551 H554 0.984 1_554 S
N551 H555 0.985 . S
H552 N547 0.984 . S
H553 N547 0.985 . S
H554 N551 0.984 1_556 S
H555 N551 0.985 . S
H556 N550 0.984 . S
H557 N550 0.984 . S
H558 N546 0.984 . S
H559 N546 0.985 1_556 S
C560 C561 1.363 . S
C560 C566 1.379 . S
C560 N568 1.356 1_655 S
C561 C560 1.363 . S
C561 C567 1.363 . S
C562 C563 1.363 . S
C562 C567 1.379 . S
C562 N569 1.356 . S
C563 C562 1.363 . S
C563 C566 1.363 . S
N564 C566 1.356 . S
N564 H576 0.984 . S
N564 H577 0.985 . S
N565 C567 1.356 . S
N565 H570 0.984 . S
N565 H571 0.985 . S
C566 C560 1.379 . S
C566 C563 1.363 . S
C566 N564 1.356 . S
C567 C561 1.363 . S
C567 C562 1.379 . S
C567 N565 1.356 . S
N568 C560 1.356 1_455 S
N568 H574 0.984 . S
N568 H575 0.984 . S
N569 C562 1.356 . S
N569 H572 0.984 . S
N569 H573 0.985 . S
H570 N565 0.984 . S
H571 N565 0.985 . S
H572 N569 0.984 . S
H573 N569 0.985 . S
H574 N568 0.984 . S
H575 N568 0.984 . S
H576 N564 0.984 . S
H577 N564 0.985 . S
C578 C579 1.363 1_565 S
C578 C584 1.379 . S
C578 N586 1.356 . S
C579 C578 1.363 1_545 S
C579 C585 1.363 . S
C580 C581 1.363 . S
C580 C585 1.379 1_565 S
C580 N587 1.356 . S
C581 C580 1.363 . S
C581 C584 1.363 . S
N582 C584 1.356 . S
N582 H594 0.984 . S
N582 H595 0.985 . S
N583 C585 1.356 . S
N583 H588 0.984 . S
N583 H589 0.985 . S
C584 C578 1.379 . S
C584 C581 1.363 . S
C584 N582 1.356 . S
C585 C579 1.363 . S
C585 C580 1.379 1_545 S
C585 N583 1.356 . S
N586 C578 1.356 . S
N586 H592 0.984 . S
N586 H593 0.984 . S
N587 C580 1.356 . S
N587 H590 1.007 . S
N587 H591 0.963 1_565 S
H588 N583 0.984 . S
H589 N583 0.985 . S
H590 N587 1.007 . S
H591 N587 0.963 1_545 S
H592 N586 0.984 . S
H593 N586 0.984 . S
H594 N582 0.984 . S
H595 N582 0.985 . S
C596 C597 1.363 . S
C596 C602 1.379 . S
C596 N604 1.356 . S
C597 C596 1.363 . S
C597 C603 1.363 . S
C598 C599 1.363 . S
C598 C603 1.379 . S
C598 N605 1.356 . S
C599 C598 1.363 . S
C599 C602 1.363 . S
N600 C602 1.356 . S
N600 H612 0.984 . S
N600 H613 0.985 . S
N601 C603 1.356 . S
N601 H606 0.984 . S
N601 H607 0.985 . S
C602 C596 1.379 . S
C602 C599 1.363 . S
C602 N600 1.356 . S
C603 C597 1.363 . S
C603 C598 1.379 . S
C603 N601 1.356 . S
N604 C596 1.356 . S
N604 H610 0.984 1_556 S
N604 H611 0.984 . S
N605 C598 1.356 . S
N605 H608 0.984 . S
N605 H609 0.985 . S
H606 N601 0.984 . S
H607 N601 0.985 . S
H608 N605 0.984 . S
H609 N605 0.985 . S
H610 N604 0.984 1_554 S
H611 N604 0.984 . S
H612 N600 0.984 . S
H613 N600 0.985 . S
C614 C615 1.363 . S
C614 C620 1.379 . S
C614 N622 1.356 . S
C615 C614 1.363 . S
C615 C621 1.363 . S
C616 C617 1.363 . S
C616 C621 1.379 . S
C616 N623 1.356 . S
C617 C616 1.363 . S
C617 C620 1.363 . S
N618 C620 1.356 . S
N618 H630 0.984 . S
N618 H631 0.985 . S
N619 C621 1.356 . S
N619 H624 0.984 . S
N619 H625 0.985 . S
C620 C614 1.379 . S
C620 C617 1.363 . S
C620 N618 1.356 . S
C621 C615 1.363 . S
C621 C616 1.379 . S
C621 N619 1.356 . S
N622 C614 1.356 . S
N622 H628 0.984 . S
N622 H629 0.984 . S
N623 C616 1.356 . S
N623 H626 0.984 . S
N623 H627 0.985 . S
H624 N619 0.984 . S
H625 N619 0.985 . S
H626 N623 0.984 . S
H627 N623 0.985 . S
H628 N622 0.984 . S
H629 N622 0.984 . S
H630 N618 0.984 . S
H631 N618 0.985 . S
C632 C633 1.363 . S
C632 C638 1.379 . S
C632 N640 1.356 . S
C633 C632 1.363 . S
C633 C639 1.363 . S
C634 C635 1.363 . S
C634 C639 1.379 . S
C634 N641 1.356 . S
C635 C634 1.363 . S
C635 C638 1.363 . S
N636 C638 1.356 . S
N636 H648 0.984 1_554 S
N636 H649 0.985 . S
N637 C639 1.356 1_655 S
N637 H642 0.984 . S
N637 H643 0.985 . S
C638 C632 1.379 . S
C638 C635 1.363 . S
C638 N636 1.356 . S
C639 C633 1.363 . S
C639 C634 1.379 . S
C639 N637 1.356 1_455 S
N640 C632 1.356 . S
N640 H646 0.984 . S
N640 H647 0.970 1_455 S
N641 C634 1.356 . S
N641 H644 0.984 . S
N641 H645 0.985 . S
H642 N637 0.984 . S
H643 N637 0.985 . S
H644 N641 0.984 . S
H645 N641 0.985 . S
H646 N640 0.984 . S
H647 N640 0.970 1_655 S
H648 N636 0.984 1_556 S
H649 N636 0.985 . S
C650 C651 1.363 1_545 S
C650 C656 1.379 . S
C650 N658 1.356 1_545 S
C651 C650 1.363 1_565 S
C651 C657 1.363 1_565 S
C652 C653 1.363 . S
C652 C657 1.379 . S
C652 N659 1.356 . S
C653 C652 1.363 . S
C653 C656 1.363 . S
N654 C656 1.356 . S
N654 H666 0.984 . S
N654 H667 0.985 . S
N655 C657 1.356 1_565 S
N655 H660 0.984 . S
N655 H661 0.985 . S
C656 C650 1.379 . S
C656 C653 1.363 . S
C656 N654 1.356 . S
C657 C651 1.363 1_545 S
C657 C652 1.379 . S
C657 N655 1.356 1_545 S
N658 C650 1.356 1_565 S
N658 H664 0.984 . S
N658 H665 0.984 . S
N659 C652 1.356 . S
N659 H662 0.984 . S
N659 H663 0.985 . S
H660 N655 0.984 . S
H661 N655 0.985 . S
H662 N659 0.984 . S
H663 N659 0.985 . S
H664 N658 0.984 . S
H665 N658 0.984 . S
H666 N654 0.984 . S
H667 N654 0.985 . S
C668 C669 1.363 . S
C668 C674 1.379 . S
C668 N676 1.356 . S
C669 C668 1.363 . S
C669 C675 1.363 . S
C670 C671 1.363 . S
C670 C675 1.379 . S
C670 N677 1.356 . S
C671 C670 1.363 . S
C671 C674 1.363 . S
N672 C674 1.356 . S
N672 H684 0.984 . S
N672 H685 0.985 . S
N673 C675 1.356 . S
N673 H678 0.984 . S
N673 H679 0.985 . S
C674 C668 1.379 . S
C674 C671 1.363 . S
C674 N672 1.356 . S
C675 C669 1.363 . S
C675 C670 1.379 . S
C675 N673 1.356 . S
N676 C668 1.356 . S
N676 H682 0.984 . S
N676 H683 0.984 . S
N677 C670 1.356 . S
N677 H680 0.984 . S
N677 H681 0.985 . S
H678 N673 0.984 . S
H679 N673 0.985 . S
H680 N677 0.984 . S
H681 N677 0.985 . S
H682 N676 0.984 . S
H683 N676 0.984 . S
H684 N672 0.984 . S
H685 N672 0.985 . S
C686 C687 1.363 . S
C686 C692 1.379 . S
C686 N694 1.356 . S
C687 C686 1.363 . S
C687 C693 1.363 . S
C688 C689 1.363 . S
C688 C693 1.379 . S
C688 N695 1.356 . S
C689 C688 1.363 . S
C689 C692 1.363 . S
N690 C692 1.356 . S
N690 H702 0.984 . S
N690 H703 0.985 . S
N691 C693 1.356 . S
N691 H696 0.984 . S
N691 H697 0.985 . S
C692 C686 1.379 . S
C692 C689 1.363 . S
C692 N690 1.356 . S
C693 C687 1.363 . S
C693 C688 1.379 . S
C693 N691 1.356 . S
N694 C686 1.356 . S
N694 H700 0.984 . S
N694 H701 0.984 . S
N695 C688 1.356 . S
N695 H698 0.984 . S
N695 H699 0.985 . S
H696 N691 0.984 . S
H697 N691 0.985 . S
H698 N695 0.984 . S
H699 N695 0.985 . S
H700 N694 0.984 . S
H701 N694 0.984 . S
H702 N690 0.984 . S
H703 N690 0.985 . S
C704 C705 1.363 1_655 S
C704 C710 1.379 . S
C704 N712 1.356 . S
C705 C704 1.363 1_455 S
C705 C711 1.363 . S
C706 C707 1.363 . S
C706 C711 1.379 . S
C706 N713 1.356 1_556 S
C707 C706 1.363 . S
C707 C710 1.363 1_455 S
N708 C710 1.356 . S
N708 H720 0.984 . S
N708 H721 0.985 . S
N709 C711 1.356 1_554 S
N709 H714 0.984 . S
N709 H715 0.985 . S
C710 C704 1.379 . S
C710 C707 1.363 1_655 S
C710 N708 1.356 . S
C711 C705 1.363 . S
C711 C706 1.379 . S
C711 N709 1.356 1_556 S
N712 C704 1.356 . S
N712 H718 0.984 . S
N712 H719 0.984 . S
N713 C706 1.356 1_554 S
N713 H716 0.984 . S
N713 H717 0.985 . S
H714 N709 0.984 . S
H715 N709 0.985 . S
H716 N713 0.984 . S
H717 N713 0.985 . S
H718 N712 0.984 . S
H719 N712 0.984 . S
H720 N708 0.984 . S
H721 N708 0.985 . S
C722 C723 1.363 1_565 S
C722 C728 1.379 . S
C722 N730 1.356 . S
C723 C722 1.363 1_545 S
C723 C729 1.363 . S
C724 C725 1.363 . S
C724 C729 1.379 . S
C724 N731 1.356 . S
C725 C724 1.363 . S
C725 C728 1.363 1_545 S
N726 C728 1.356 . S
N726 H738 0.984 . S
N726 H739 0.985 . S
N727 C729 1.356 . S
N727 H732 0.984 . S
N727 H733 0.985 1_556 S
C728 C722 1.379 . S
C728 C725 1.363 1_565 S
C728 N726 1.356 . S
C729 C723 1.363 . S
C729 C724 1.379 . S
C729 N727 1.356 . S
N730 C722 1.356 . S
N730 H736 0.984 . S
N730 H737 0.984 . S
N731 C724 1.356 . S
N731 H734 0.984 . S
N731 H735 0.985 1_556 S
H732 N727 0.984 . S
H733 N727 0.985 1_554 S
H734 N731 0.984 . S
H735 N731 0.985 1_554 S
H736 N730 0.984 . S
H737 N730 0.984 . S
H738 N726 0.984 . S
H739 N726 0.985 . S
C740 C741 1.363 . S
C740 C746 1.379 . S
C740 N748 1.356 . S
C741 C740 1.363 . S
C741 C747 1.363 . S
C742 C743 1.363 . S
C742 C747 1.379 . S
C742 N749 1.356 . S
C743 C742 1.363 . S
C743 C746 1.363 . S
N744 C746 1.356 . S
N744 H756 0.984 . S
N744 H757 0.985 . S
N745 C747 1.356 . S
N745 H750 0.984 . S
N745 H751 0.985 . S
C746 C740 1.379 . S
C746 C743 1.363 . S
C746 N744 1.356 . S
C747 C741 1.363 . S
C747 C742 1.379 . S
C747 N745 1.356 . S
N748 C740 1.356 . S
N748 H754 0.984 . S
N748 H755 0.984 . S
N749 C742 1.356 . S
N749 H752 0.984 . S
N749 H753 0.985 . S
H750 N745 0.984 . S
H751 N745 0.985 . S
H752 N749 0.984 . S
H753 N749 0.985 . S
H754 N748 0.984 . S
H755 N748 0.984 . S
H756 N744 0.984 . S
H757 N744 0.985 . S
C758 C759 1.363 . S
C758 C764 1.379 . S
C758 N766 1.356 . S
C759 C758 1.363 . S
C759 C765 1.363 . S
C760 C761 1.363 . S
C760 C765 1.379 . S
C760 N767 1.356 . S
C761 C760 1.363 . S
C761 C764 1.363 . S
N762 C764 1.356 . S
N762 H774 0.984 . S
N762 H775 0.985 . S
N763 C765 1.356 . S
N763 H768 0.984 . S
N763 H769 0.985 . S
C764 C758 1.379 . S
C764 C761 1.363 . S
C764 N762 1.356 . S
C765 C759 1.363 . S
C765 C760 1.379 . S
C765 N763 1.356 . S
N766 C758 1.356 . S
N766 H772 0.984 . S
N766 H773 0.984 . S
N767 C760 1.356 . S
N767 H770 0.984 . S
N767 H771 0.985 . S
H768 N763 0.984 . S
H769 N763 0.985 . S
H770 N767 0.984 . S
H771 N767 0.985 . S
H772 N766 0.984 . S
H773 N766 0.984 . S
H774 N762 0.984 . S
H775 N762 0.985 . S
C776 C777 1.363 1_455 S
C776 C782 1.379 . S
C776 N784 1.356 . S
C777 C776 1.363 1_655 S
C777 C783 1.363 . S
C778 C779 1.363 . S
C778 C783 1.379 . S
C778 N785 1.356 . S
C779 C778 1.363 . S
C779 C782 1.363 1_655 S
N780 C782 1.356 . S
N780 H792 0.984 . S
N780 H793 0.985 . S
N781 C783 1.356 . S
N781 H786 0.984 . S
N781 H787 0.985 . S
C782 C776 1.379 . S
C782 C779 1.363 1_455 S
C782 N780 1.356 . S
C783 C777 1.363 . S
C783 C778 1.379 . S
C783 N781 1.356 . S
N784 C776 1.356 . S
N784 H790 0.984 . S
N784 H791 0.984 . S
N785 C778 1.356 . S
N785 H788 0.984 . S
N785 H789 0.985 . S
H786 N781 0.984 . S
H787 N781 0.985 . S
H788 N785 0.984 . S
H789 N785 0.985 . S
H790 N784 0.984 . S
H791 N784 0.984 . S
H792 N780 0.984 . S
H793 N780 0.985 . S
C794 C795 1.363 1_545 S
C794 C800 1.379 . S
C794 N802 1.356 . S
C795 C794 1.363 1_565 S
C795 C801 1.363 . S
C796 C797 1.363 . S
C796 C801 1.379 . S
C796 N803 1.356 . S
C797 C796 1.363 . S
C797 C800 1.363 1_565 S
N798 C800 1.356 . S
N798 H810 0.984 . S
N798 H811 0.985 . S
N799 C801 1.356 . S
N799 H804 0.984 . S
N799 H805 0.985 . S
C800 C794 1.379 . S
C800 C797 1.363 1_545 S
C800 N798 1.356 . S
C801 C795 1.363 . S
C801 C796 1.379 . S
C801 N799 1.356 . S
N802 C794 1.356 . S
N802 H808 0.984 . S
N802 H809 0.984 . S
N803 C796 1.356 . S
N803 H806 0.984 . S
N803 H807 0.985 . S
H804 N799 0.984 . S
H805 N799 0.985 . S
H806 N803 0.984 . S
H807 N803 0.985 . S
H808 N802 0.984 . S
H809 N802 0.984 . S
H810 N798 0.984 . S
H811 N798 0.985 . S
C812 C813 1.363 . S
C812 C818 1.379 . S
C812 N820 1.356 . S
C813 C812 1.363 . S
C813 C819 1.363 . S
C814 C815 1.363 . S
C814 C819 1.379 . S
C814 N821 1.356 . S
C815 C814 1.363 . S
C815 C818 1.363 . S
N816 C818 1.356 . S
N816 H828 0.984 . S
N816 H829 0.985 . S
N817 C819 1.356 . S
N817 H822 0.984 . S
N817 H823 0.985 . S
C818 C812 1.379 . S
C818 C815 1.363 . S
C818 N816 1.356 . S
C819 C813 1.363 . S
C819 C814 1.379 . S
C819 N817 1.356 . S
N820 C812 1.356 . S
N820 H826 0.984 . S
N820 H827 0.984 . S
N821 C814 1.356 . S
N821 H824 0.984 . S
N821 H825 0.985 . S
H822 N817 0.984 . S
H823 N817 0.985 . S
H824 N821 0.984 . S
H825 N821 0.985 . S
H826 N820 0.984 . S
H827 N820 0.984 . S
H828 N816 0.984 . S
H829 N816 0.985 . S
C830 C831 1.363 . S
C830 C836 1.379 . S
C830 N838 1.356 . S
C831 C830 1.363 . S
C831 C837 1.363 . S
C832 C833 1.363 . S
C832 C837 1.379 . S
C832 N839 1.356 . S
C833 C832 1.363 . S
C833 C836 1.363 . S
N834 C836 1.356 . S
N834 H846 0.984 . S
N834 H847 0.985 . S
N835 C837 1.356 . S
N835 H840 0.984 . S
N835 H841 0.985 . S
C836 C830 1.379 . S
C836 C833 1.363 . S
C836 N834 1.356 . S
C837 C831 1.363 . S
C837 C832 1.379 . S
C837 N835 1.356 . S
N838 C830 1.356 . S
N838 H844 0.984 . S
N838 H845 0.984 . S
N839 C832 1.356 . S
N839 H842 0.984 . S
N839 H843 0.985 . S
H840 N835 0.984 . S
H841 N835 0.985 . S
H842 N839 0.984 . S
H843 N839 0.985 . S
H844 N838 0.984 . S
H845 N838 0.984 . S
H846 N834 0.984 . S
H847 N834 0.985 . S
C417 C215 2.415 . S
C419 C279 2.675 1_545 S
C437 C319 1.738 . S
C435 C247 1.734 . S
C455 C338 2.723 . S
C453 C151 2.513 . S
C473 C399 1.964 1_455 S
C471 C183 1.755 . S
C491 C258 2.676 1_564 S
C489 C87 2.416 1_565 S
C507 C119 1.607 . S
C509 C298 1.741 . S
C525 C23 2.398 . S
C527 C359 2.724 1_554 S
C543 C55 1.755 1_655 S
C545 C378 1.964 1_654 S
C563 C260 1.075 . S
C561 C189 1.223 1_655 S
C581 C300 0.590 . S
C579 C221 0.463 . S
C599 C356 1.478 . S
C597 C253 1.404 . S
C615 C157 0.786 . S
C617 C380 0.767 . S
C633 C61 1.047 . S
C635 C281 1.079 . S
C653 C321 0.590 . S
C651 C93 0.658 1_565 S
C671 C367 1.478 . S
C669 C125 1.156 . S
C687 C29 0.760 . S
C689 C401 0.774 . S
C705 C177 2.172 . S
C707 C276 2.512 . S
C723 C209 2.827 . S
C725 C316 3.186 . S
C743 C340 1.927 . S
C741 C241 1.893 . S
C761 C396 3.171 . S
C759 C145 2.841 . S
C777 C49 2.224 1_655 S
C779 C287 2.520 . S
C797 C327 3.186 . S
C795 C81 2.844 1_565 S
C815 C361 1.927 . S
C813 C113 1.976 . S
C831 C17 2.815 . S
C833 C407 3.175 . S
