# Generated by pormake.
# Topology zzz, (3,6)-cn, num edge types: 1
# Building blocks:
#     Node 0, Type 0, BuildingBlock: ESEHIV_clean_linker_0, # of connection points: 3
#     Node 1, Type 0, BuildingBlock: ESEHIV_clean_linker_0, # of connection points: 3
#     Node 2, Type 0, BuildingBlock: ESEHIV_clean_linker_0, # of connection points: 3
#     Node 3, Type 0, BuildingBlock: ESEHIV_clean_linker_0, # of connection points: 3
#     Node 4, Type 0, BuildingBlock: ESEHIV_clean_linker_0, # of connection points: 3
#     Node 5, Type 0, BuildingBlock: ESEHIV_clean_linker_0, # of connection points: 3
#     Node 6, Type 0, BuildingBlock: ESEHIV_clean_linker_0, # of connection points: 3
#     Node 7, Type 0, BuildingBlock: ESEHIV_clean_linker_0, # of connection points: 3
#     Node 8, Type 1, BuildingBlock: BETDAH_clean_sbu_0, # of connection points: 6
#     Node 9, Type 1, BuildingBlock: BETDAH_clean_sbu_0, # of connection points: 6
#     Node 10, Type 1, BuildingBlock: BETDAH_clean_sbu_0, # of connection points: 6
#     Node 11, Type 1, BuildingBlock: BETDAH_clean_sbu_0, # of connection points: 6
#     Edge 12, Type (0, 1), BuildingBlock: TEMPAE_clean_linker_10, # of connection points: 2
#     Edge 13, Type (0, 1), BuildingBlock: TEMPAE_clean_linker_10, # of connection points: 2
#     Edge 14, Type (0, 1), BuildingBlock: TEMPAE_clean_linker_10, # of connection points: 2
#     Edge 15, Type (0, 1), BuildingBlock: TEMPAE_clean_linker_10, # of connection points: 2
#     Edge 16, Type (0, 1), BuildingBlock: TEMPAE_clean_linker_10, # of connection points: 2
#     Edge 17, Type (0, 1), BuildingBlock: TEMPAE_clean_linker_10, # of connection points: 2
#     Edge 18, Type (0, 1), BuildingBlock: TEMPAE_clean_linker_10, # of connection points: 2
#     Edge 19, Type (0, 1), BuildingBlock: TEMPAE_clean_linker_10, # of connection points: 2
#     Edge 20, Type (0, 1), BuildingBlock: TEMPAE_clean_linker_10, # of connection points: 2
#     Edge 21, Type (0, 1), BuildingBlock: TEMPAE_clean_linker_10, # of connection points: 2
#     Edge 22, Type (0, 1), BuildingBlock: TEMPAE_clean_linker_10, # of connection points: 2
#     Edge 23, Type (0, 1), BuildingBlock: TEMPAE_clean_linker_10, # of connection points: 2
#     Edge 24, Type (0, 1), BuildingBlock: TEMPAE_clean_linker_10, # of connection points: 2
#     Edge 25, Type (0, 1), BuildingBlock: TEMPAE_clean_linker_10, # of connection points: 2
#     Edge 26, Type (0, 1), BuildingBlock: TEMPAE_clean_linker_10, # of connection points: 2
#     Edge 27, Type (0, 1), BuildingBlock: TEMPAE_clean_linker_10, # of connection points: 2
#     Edge 28, Type (0, 1), BuildingBlock: TEMPAE_clean_linker_10, # of connection points: 2
#     Edge 29, Type (0, 1), BuildingBlock: TEMPAE_clean_linker_10, # of connection points: 2
#     Edge 30, Type (0, 1), BuildingBlock: TEMPAE_clean_linker_10, # of connection points: 2
#     Edge 31, Type (0, 1), BuildingBlock: TEMPAE_clean_linker_10, # of connection points: 2
#     Edge 32, Type (0, 1), BuildingBlock: TEMPAE_clean_linker_10, # of connection points: 2
#     Edge 33, Type (0, 1), BuildingBlock: TEMPAE_clean_linker_10, # of connection points: 2
#     Edge 34, Type (0, 1), BuildingBlock: TEMPAE_clean_linker_10, # of connection points: 2
#     Edge 35, Type (0, 1), BuildingBlock: TEMPAE_clean_linker_10, # of connection points: 2
# Relax obj value: 0.500
# Max RMSD: 0.265
# Mean RMSD: 0.256
data_MOF--net-zzz--node1-BETDAH_clean_sbu_0--node2-ESEHIV_clean_linker_0--edge1-TEMPAE_clean_linker_10
_symmetry_space_group_name_H-M    P1
_symmetry_Int_Tables_number       1
_symmetry_cell_setting            triclinic
loop_
_symmetry_equiv_pos_as_xyz
'x, y, z'
_cell_length_a     46.175311
_cell_length_b     46.206919
_cell_length_c     14.396103
_cell_angle_alpha  89.640109
_cell_angle_beta   90.114726
_cell_angle_gamma 90.023565
loop_
_atom_site_label
_atom_site_type_symbol
_atom_site_fract_x
_atom_site_fract_y
_atom_site_fract_z
_atom_type_partial_charge
H0 H 0.77237 0.47501 0.43232 0.0
H1 H 0.69328 0.48139 0.28045 0.0
H2 H 0.71701 0.54878 0.47372 0.0
C3 C 0.7517 0.48572 0.42184 0.0
C4 C 0.74621 0.51141 0.46992 0.0
C5 C 0.73344 0.47576 0.35148 0.0
C6 C 0.70718 0.48954 0.33541 0.0
C7 C 0.70095 0.51624 0.37603 0.0
C8 C 0.72092 0.52776 0.44348 0.0
H9 H 0.97093 0.7829 0.36329 0.0
H10 H 0.97319 0.70245 0.22226 0.0
H11 H 1.00954 0.70891 0.4981 0.0
C12 C 0.97462 0.75969 0.3659 0.0
C13 C 0.98773 0.74787 0.44526 0.0
C14 C 0.9737 0.74421 0.28307 0.0
C15 C 0.97573 0.71421 0.28692 0.0
C16 C 0.99006 0.70081 0.3615 0.0
C17 C 0.99704 0.71812 0.44154 0.0
H18 H 0.75027 0.96526 0.43011 0.0
H19 H 0.82515 0.96794 0.2618 0.0
H20 H 0.81205 0.03408 0.46756 0.0
C21 C 0.77122 0.97479 0.41497 0.0
C22 C 0.77884 1.00016 0.46167 0.0
C23 C 0.78417 0.96909 0.3294 0.0
C24 C 0.8135 0.9759 0.32188 0.0
C25 C 0.8244 1.00004 0.3695 0.0
C26 C 0.80592 0.01361 0.43711 0.0
H27 H 0.51006 0.7398 0.37902 0.0
H28 H 0.53065 0.81912 0.52307 0.0
H29 H 0.50798 0.8198 0.2306 0.0
C30 C 0.51367 0.76305 0.37915 0.0
C31 C 0.50871 0.77862 0.29772 0.0
C32 C 0.52089 0.77676 0.46219 0.0
C33 C 0.52495 0.80773 0.46016 0.0
C34 C 0.5209 0.82354 0.37421 0.0
C35 C 0.51229 0.80832 0.29529 0.0
H36 H 0.24036 0.5002 0.13116 0.0
H37 H 0.31976 0.50267 0.28166 0.0
H38 H 0.32139 0.49777 0.98161 0.0
C39 C 0.26383 0.49837 0.13046 0.0
C40 C 0.27822 0.49813 0.04521 0.0
C41 C 0.2788 0.50171 0.21362 0.0
C42 C 0.30872 0.49984 0.21558 0.0
C43 C 0.32478 0.49738 0.13382 0.0
C44 C 0.30947 0.49753 0.04624 0.0
H45 H 0.96457 0.26827 0.99969 0.0
H46 H 0.98096 0.33047 0.20499 0.0
H47 H 0.04962 0.30775 0.01757 0.0
C48 C 0.97945 0.28449 0.02527 0.0
C49 C 1.00849 0.28468 0.99541 0.0
C50 C 0.97292 0.29528 0.11281 0.0
C51 C 0.98806 0.31943 0.14278 0.0
C52 C 0.01553 0.32555 0.10696 0.0
C53 C 0.02706 0.30627 0.03726 0.0
H54 H 0.28011 0.99293 0.08705 0.0
H55 H 0.20621 1.00601 0.2598 0.0
H56 H 0.20424 0.03477 0.97389 0.0
C57 C 0.25802 1.00063 0.09481 0.0
C58 C 0.24513 0.01537 0.02098 0.0
C59 C 0.24524 0.99988 0.18236 0.0
C60 C 0.21631 1.0074 0.19191 0.0
C61 C 0.20027 0.01786 0.11627 0.0
C62 C 0.21528 0.02386 0.03049 0.0
H63 H 0.47461 0.28219 0.09874 0.0
H64 H 0.51845 0.20728 0.99074 0.0
H65 H 0.47934 0.20577 0.26257 0.0
C66 C 0.47927 0.25915 0.10263 0.0
C67 C 0.47896 0.24594 0.18981 0.0
C68 C 0.49474 0.24645 0.02995 0.0
C69 C 0.50465 0.21713 0.04233 0.0
C70 C 0.49687 0.20128 0.12508 0.0
C71 C 0.48184 0.216 0.19492 0.0
Ho72 Ho 0.03831 1.00772 0.79956 0.0
Ho73 Ho 0.99074 0.01752 0.6855 0.0
C74 C 1.00815 0.95172 0.69946 0.0
C75 C 0.07429 0.98865 0.92352 0.0
C76 C 0.07508 0.96019 0.96829 0.0
C77 C 0.04932 0.94424 0.97521 0.0
C78 C 0.04997 0.91567 1.00486 0.0
C79 C 0.07632 0.90264 0.02874 0.0
C80 C 0.10208 0.91865 0.02551 0.0
C81 C 0.10148 0.94745 0.99461 0.0
C82 C 0.05577 0.02283 0.62339 0.0
C83 C 0.02179 0.07392 0.77927 0.0
C84 C 0.95322 0.03531 0.56568 0.0
C85 C 0.95034 0.06414 0.52486 0.0
C86 C 0.97472 0.07818 0.48763 0.0
C87 C 0.97392 0.1077 0.46966 0.0
C88 C 0.94884 0.12364 0.48928 0.0
C89 C 0.92401 0.10934 0.52189 0.0
C90 C 0.92473 0.07969 0.53923 0.0
C91 C 0.97336 1.00395 0.86294 0.0
O92 O 0.02236 0.961 0.7738 0.0
O93 O 0.99556 0.97089 0.64508 0.0
O94 O 0.0797 0.98843 0.83477 0.0
O95 O 0.05171 1.0044 0.94322 0.0
O96 O 0.06734 0.03204 0.69981 0.0
O97 O 0.03529 1.00571 0.64437 0.0
O98 O 1.0071 0.06433 0.70619 0.0
O99 O 0.03419 0.05499 0.8354 0.0
O100 O 0.94812 0.03423 0.6546 0.0
O101 O 0.97641 0.02093 0.54293 0.0
O102 O 0.96323 0.99241 0.78784 0.0
O103 O 0.9938 0.02092 0.8401 0.0
H104 H 0.0287 0.95361 0.95528 0.0
H105 H 0.02988 0.90352 0.00797 0.0
H106 H 0.1225 0.90875 0.04472 0.0
H107 H 0.12154 0.95949 0.98902 0.0
H108 H 0.99487 0.06674 0.47631 0.0
H109 H 0.99305 0.1181 0.4415 0.0
H110 H 0.90436 0.12121 0.53678 0.0
H111 H 0.90584 0.06921 0.56877 0.0
Ho112 Ho 0.5167 0.04298 0.81983 0.0
Ho113 Ho 0.51056 0.99316 0.69666 0.0
C114 C 0.576 0.01367 0.73105 0.0
C115 C 0.53393 0.0773 0.94829 0.0
C116 C 0.56132 0.07333 0.99824 0.0
C117 C 0.57086 0.04492 0.01421 0.0
C118 C 0.59949 0.03943 0.03606 0.0
C119 C 0.61947 0.06216 0.04103 0.0
C120 C 0.60979 0.09088 0.03198 0.0
C121 C 0.5807 0.09645 0.01004 0.0
C122 C 0.50509 0.05872 0.64104 0.0
C123 C 0.45157 0.01981 0.79147 0.0
C124 C 0.49843 0.96517 0.54821 0.0
C125 C 0.47106 0.95119 0.52432 0.0
C126 C 0.45601 0.96184 0.44676 0.0
C127 C 0.42614 0.95863 0.4415 0.0
C128 C 0.41119 0.94454 0.51335 0.0
C129 C 0.42634 0.93136 0.58614 0.0
C130 C 0.45632 0.93454 0.59148 0.0
C131 C 0.51271 0.96933 0.87172 0.0
O132 O 0.56463 0.03233 0.79084 0.0
O133 O 0.55909 0.99585 0.68459 0.0
O134 O 0.53715 0.08318 0.86017 0.0
O135 O 0.51449 0.05718 0.96274 0.0
O136 O 0.49308 0.07011 0.7136 0.0
O137 O 0.52235 0.03894 0.66802 0.0
O138 O 0.46271 1.0029 0.72643 0.0
O139 O 0.46854 0.03647 0.8424 0.0
O140 O 0.51346 0.95373 0.61635 0.0
O141 O 0.49598 0.99327 0.55501 0.0
O142 O 0.51017 0.95519 0.79489 0.0
O143 O 0.51417 0.99633 0.8525 0.0
H144 H 0.55676 0.02662 1.00287 0.0
H145 H 0.60627 0.01713 0.04511 0.0
H146 H 0.6249 0.10874 0.0368 0.0
H147 H 0.57382 0.11849 0.9965 0.0
H148 H 0.46689 0.97513 0.39523 0.0
H149 H 0.41447 0.96899 0.38493 0.0
H150 H 0.41486 0.92036 0.64161 0.0
H151 H 0.46741 0.92634 0.65254 0.0
Ho152 Ho 0.48838 0.51587 0.81666 0.0
Ho153 Ho 0.54141 0.50761 0.67906 0.0
C154 C 0.5173 0.57321 0.7145 0.0
C155 C 0.45702 0.52601 0.95981 0.0
C156 C 0.44992 0.55398 1.00032 0.0
C157 C 0.47205 0.57426 0.01521 0.0
C158 C 0.46515 0.60292 0.03184 0.0
C159 C 0.43615 0.61169 0.03378 0.0
C160 C 0.41389 0.59151 0.02265 0.0
C161 C 0.4208 0.56262 1.00567 0.0
C162 C 0.46768 0.50768 0.63848 0.0
C163 C 0.5126 0.45047 0.78308 0.0
C164 C 0.57308 0.49451 0.53981 0.0
C165 C 0.57469 0.46647 0.49441 0.0
C166 C 0.54993 0.44893 0.49301 0.0
C167 C 0.55198 0.42036 0.4655 0.0
C168 C 0.57874 0.40897 0.43867 0.0
C169 C 0.60354 0.42638 0.43818 0.0
C170 C 0.60157 0.45508 0.46747 0.0
C171 C 0.56129 0.51857 0.85572 0.0
O172 O 0.50059 0.56298 0.78309 0.0
O173 O 0.53319 0.55582 0.66146 0.0
O174 O 0.44628 0.52256 0.87675 0.0
O175 O 0.48407 0.51764 0.96611 0.0
O176 O 0.45216 0.51143 0.71205 0.0
O177 O 0.49394 0.5077 0.666 0.0
O178 O 0.52902 0.46066 0.71406 0.0
O179 O 0.49671 0.46794 0.83509 0.0
O180 O 0.58261 0.49393 0.62511 0.0
O181 O 0.54857 0.50861 0.53068 0.0
O182 O 0.5776 0.51435 0.78434 0.0
O183 O 0.53543 0.51707 0.82666 0.0
H184 H 0.49469 0.56839 0.00947 0.0
H185 H 0.4825 0.61846 0.04126 0.0
H186 H 0.39142 0.59817 0.02525 0.0
H187 H 0.40352 0.54731 0.99249 0.0
H188 H 0.52914 0.45698 0.51617 0.0
H189 H 0.53265 0.40703 0.46535 0.0
H190 H 0.62424 0.41769 0.41672 0.0
H191 H 0.621 0.46814 0.47112 0.0
Ho192 Ho 1.0114 0.48896 0.79757 0.0
Ho193 Ho 0.01771 0.53687 0.68738 0.0
C194 C 0.953 0.51723 0.707 0.0
C195 C 0.9952 0.45075 0.91787 0.0
C196 C 0.96851 0.45055 0.9716 0.0
C197 C 0.95431 0.47685 0.98837 0.0
C198 C 0.92616 0.47694 0.02207 0.0
C199 C 0.91187 0.4507 0.03982 0.0
C200 C 0.92668 0.42441 0.02763 0.0
C201 C 0.9549 0.42434 0.99332 0.0
C202 C 0.02784 0.47287 0.62125 0.0
C203 C 0.07629 0.50921 0.7803 0.0
C204 C 0.03156 0.57668 0.5683 0.0
C205 C 0.05869 0.58181 0.51971 0.0
C206 C 0.07748 0.55845 0.50549 0.0
C207 C 0.10525 0.56336 0.47316 0.0
C208 C 0.11461 0.59163 0.45474 0.0
C209 C 0.09568 0.61503 0.46525 0.0
C210 C 0.06761 0.61009 0.49804 0.0
C211 C 1.00317 0.55288 0.86542 0.0
O212 O 0.9638 0.50391 0.78118 0.0
O213 O 0.97108 0.52958 0.64887 0.0
O214 O 0.99134 0.44773 0.82877 0.0
O215 O 0.0131 0.47168 0.93728 0.0
O216 O 0.03863 0.46281 0.69781 0.0
O217 O 1.00883 0.4916 0.64218 0.0
O218 O 0.06566 0.52391 0.7083 0.0
O219 O 0.05817 0.49526 0.83485 0.0
O220 O 0.03307 0.58018 0.6578 0.0
O221 O 0.0181 0.55291 0.54608 0.0
O222 O 0.99121 0.56263 0.7901 0.0
O223 O 0.02143 0.53372 0.84257 0.0
H224 H 0.96443 0.49735 0.97109 0.0
H225 H 0.91517 0.49748 0.03019 0.0
H226 H 0.91619 0.40394 0.0425 0.0
H227 H 0.9656 0.40391 0.9801 0.0
H228 H 0.07106 0.53649 0.52252 0.0
H229 H 0.1198 0.54513 0.46488 0.0
H230 H 0.10282 0.63692 0.45067 0.0
H231 H 0.05329 0.62828 0.50954 0.0
C232 C 0.15995 0.0486 0.17906 0.0
C233 C 0.1687 0.02245 0.13833 0.0
C234 C 0.13705 0.0496 0.24471 0.0
C235 C 0.12289 0.02371 0.27362 0.0
C236 C 0.12971 0.99779 0.22582 0.0
C237 C 0.15199 0.99763 0.15823 0.0
C238 C 0.1298 0.07812 0.28924 0.0
C239 C 0.1158 0.96944 0.25318 0.0
C240 C 0.1026 0.02051 0.53322 0.0
C241 C 0.07222 0.02234 0.53277 0.0
C242 C 0.11889 0.02015 0.45003 0.0
C243 C 0.10486 0.02293 0.3624 0.0
C244 C 0.07407 0.02495 0.36138 0.0
C245 C 0.05818 0.02413 0.44606 0.0
C246 C 0.15135 0.01659 0.45619 0.0
C247 C 0.05789 0.02904 0.27116 0.0
H248 H 0.17286 0.06784 0.16661 0.0
H249 H 0.15882 0.97712 0.12935 0.0
H250 H 0.10603 0.08035 0.29827 0.0
H251 H 0.13992 0.0791 0.3591 0.0
H252 H 0.13788 0.09671 0.24741 0.0
H253 H 0.12157 0.95168 0.20498 0.0
H254 H 0.123 0.96326 0.3242 0.0
H255 H 0.0919 0.97156 0.25488 0.0
H256 H 0.11378 0.01882 0.59932 0.0
H257 H 0.03477 0.02575 0.44449 0.0
H258 H 0.16222 0.03638 0.42966 0.0
H259 H 0.15843 0.99829 0.4121 0.0
H260 H 0.15885 0.01252 0.52847 0.0
H261 H 0.06253 0.05097 0.24307 0.0
H262 H 0.03409 0.02682 0.28022 0.0
H263 H 0.06521 0.01325 0.21851 0.0
C264 C 0.53144 0.17141 0.2191 0.0
C265 C 0.50821 0.17209 0.15551 0.0
C266 C 0.53378 0.14965 0.28853 0.0
C267 C 0.51313 0.12689 0.29306 0.0
C268 C 0.49203 0.12534 0.22119 0.0
C269 C 0.48943 0.1481 0.155 0.0
C270 C 0.55652 0.15296 0.36312 0.0
C271 C 0.47036 0.10094 0.21913 0.0
C272 C 0.52428 0.06548 0.47524 0.0
C273 C 0.50645 0.07453 0.54885 0.0
C274 C 0.5264 0.08175 0.39115 0.0
C275 C 0.51063 0.10803 0.37996 0.0
C276 C 0.49245 0.11694 0.45396 0.0
C277 C 0.49046 0.10016 0.53616 0.0
C278 C 0.54576 0.07092 0.31457 0.0
C279 C 0.47534 0.14473 0.44724 0.0
H280 H 0.546 0.18975 0.22153 0.0
H281 H 0.47106 0.14838 0.10801 0.0
H282 H 0.54599 0.15998 0.42847 0.0
H283 H 0.56737 0.132 0.37754 0.0
H284 H 0.5732 0.16925 0.34389 0.0
H285 H 0.45946 0.09939 0.15047 0.0
H286 H 0.48103 0.07997 0.23508 0.0
H287 H 0.4536 0.10463 0.27287 0.0
H288 H 0.5368 0.0458 0.48362 0.0
H289 H 0.47658 0.10754 0.59181 0.0
H290 H 0.564 0.08621 0.30391 0.0
H291 H 0.53357 0.06991 0.24815 0.0
H292 H 0.5548 0.04916 0.33035 0.0
H293 H 0.49026 0.16326 0.43599 0.0
H294 H 0.46237 0.14888 0.51068 0.0
H295 H 0.46044 0.14394 0.38678 0.0
C296 C 0.37181 0.52333 0.16398 0.0
C297 C 0.35708 0.49695 0.15078 0.0
C298 C 0.3955 0.52576 0.22695 0.0
C299 C 0.40475 0.50133 0.28003 0.0
C300 C 0.39173 0.47418 0.26006 0.0
C301 C 0.36864 0.47231 0.19533 0.0
C302 C 0.40923 0.55502 0.24172 0.0
C303 C 0.3995 0.44758 0.31604 0.0
C304 C 0.4685 0.50087 0.45905 0.0
C305 C 0.45401 0.50732 0.54241 0.0
C306 C 0.45326 0.49977 0.37239 0.0
C307 C 0.42278 0.50496 0.36843 0.0
C308 C 0.40856 0.51234 0.45216 0.0
C309 C 0.42414 0.51345 0.5364 0.0
C310 C 0.46974 0.49305 0.28495 0.0
C311 C 0.37648 0.5189 0.45347 0.0
H312 H 0.36296 0.54274 0.13219 0.0
H313 H 0.35708 0.45198 0.1887 0.0
H314 H 0.41016 0.56043 0.31659 0.0
H315 H 0.43187 0.55451 0.21603 0.0
H316 H 0.39736 0.57256 0.20491 0.0
H317 H 0.39062 0.42752 0.28475 0.0
H318 H 0.42331 0.44535 0.32264 0.0
H319 H 0.39054 0.44972 0.38719 0.0
H320 H 0.4915 0.49637 0.46146 0.0
H321 H 0.41245 0.51901 0.59899 0.0
H322 H 0.46537 0.50992 0.23148 0.0
H323 H 0.46227 0.47211 0.25625 0.0
H324 H 0.49347 0.49178 0.29732 0.0
H325 H 0.37194 0.5384 0.41049 0.0
H326 H 0.36825 0.52287 0.52472 0.0
H327 H 0.36409 0.50066 0.42309 0.0
C328 C 0.04082 0.34281 0.25053 0.0
C329 C 0.03111 0.3491 0.15978 0.0
C330 C 0.0421 0.36423 0.32074 0.0
C331 C 0.03404 0.39334 0.30089 0.0
C332 C 0.02647 0.40033 0.20747 0.0
C333 C 0.02469 0.37827 0.13918 0.0
C334 C 0.04967 0.35501 0.41851 0.0
C335 C 0.01818 0.43079 0.18032 0.0
C336 C 1.00382 0.44025 0.50159 0.0
C337 C 0.02845 0.45522 0.53308 0.0
C338 C 1.00528 0.42043 0.42646 0.0
C339 C 0.03185 0.41572 0.37871 0.0
C340 C 0.05648 0.43176 0.40823 0.0
C341 C 0.05463 0.45065 0.48558 0.0
C342 C 0.97843 0.40376 0.40001 0.0
C343 C 0.085 0.42876 0.35838 0.0
H344 H 0.04455 0.32035 0.26928 0.0
H345 H 0.01595 0.38354 0.07117 0.0
H346 H 0.06636 0.36954 0.44822 0.0
H347 H 0.03013 0.35666 0.46294 0.0
H348 H 0.05778 0.3324 0.42182 0.0
H349 H 0.02053 0.43439 0.10439 0.0
H350 H 0.99519 0.43462 0.19889 0.0
H351 H 0.03161 0.44695 0.21745 0.0
H352 H 0.98357 0.44312 0.53835 0.0
H353 H 0.07387 0.46188 0.50927 0.0
H354 H 0.98264 0.38017 0.40612 0.0
H355 H 0.97271 0.40831 0.3265 0.0
H356 H 0.95958 0.40928 0.44433 0.0
H357 H 0.09345 0.40646 0.36761 0.0
H358 H 0.1015 0.44427 0.38423 0.0
H359 H 0.08187 0.43241 0.28272 0.0
C360 C 0.85052 0.03249 0.2562 0.0
C361 C 0.85207 0.01213 0.32914 0.0
C362 C 0.87265 0.0348 0.1881 0.0
C363 C 0.89723 0.01623 0.19171 0.0
C364 C 0.9001 0.99758 0.27007 0.0
C365 C 0.87763 0.99567 0.33687 0.0
C366 C 0.86831 0.05541 0.1077 0.0
C367 C 0.92576 0.97756 0.27922 0.0
C368 C 0.92962 0.99016 0.95968 0.0
C369 C 0.95515 1.00656 0.9501 0.0
C370 C 0.91093 0.99325 0.03693 0.0
C371 C 0.91751 0.01328 0.10848 0.0
C372 C 0.94343 0.0298 0.09989 0.0
C373 C 0.9618 0.02629 0.02134 0.0
C374 C 0.88382 0.97502 0.04159 0.0
C375 C 0.95157 0.05155 0.17313 0.0
H376 H 0.83067 0.04473 0.24718 0.0
H377 H 0.87892 0.97929 0.39096 0.0
H378 H 0.88887 0.06653 0.08979 0.0
H379 H 0.86124 0.04307 0.0458 0.0
H380 H 0.85157 0.07196 0.12307 0.0
H381 H 0.9271 0.96751 0.3494 0.0
H382 H 0.92392 0.96007 0.22706 0.0
H383 H 0.94622 0.98938 0.26521 0.0
H384 H 0.92398 0.9749 0.9057 0.0
H385 H 0.98123 0.03932 0.01516 0.0
H386 H 0.86445 0.9892 0.04457 0.0
H387 H 0.88398 0.96165 0.10589 0.0
H388 H 0.88159 0.96045 0.98092 0.0
H389 H 0.93487 0.06879 0.17598 0.0
H390 H 0.97293 0.06176 0.15931 0.0
H391 H 0.95222 0.04103 0.24259 0.0
C392 C 0.54876 0.86427 0.30355 0.0
C393 C 0.52454 0.85553 0.35601 0.0
C394 C 0.54724 0.88726 0.23791 0.0
C395 C 0.52096 0.90274 0.22426 0.0
C396 C 0.49751 0.8963 0.28498 0.0
C397 C 0.49952 0.8729 0.3493 0.0
C398 C 0.57294 0.89274 0.17574 0.0
C399 C 0.46907 0.91203 0.27543 0.0
C400 C 0.52125 0.96754 0.04944 0.0
C401 C 0.51296 0.95419 0.96581 0.0
C402 C 0.52344 0.95154 0.1344 0.0
C403 C 0.51667 0.92143 0.1372 0.0
C404 C 0.50693 0.90838 0.05375 0.0
C405 C 0.50548 0.92464 0.97028 0.0
C406 C 0.53351 0.96678 0.22092 0.0
C407 C 0.49862 0.87676 0.05174 0.0
H408 H 0.56793 0.85074 0.30537 0.0
H409 H 0.48032 0.86617 0.38688 0.0
H410 H 0.568 0.88483 0.10479 0.0
H411 H 0.57743 0.91627 0.17026 0.0
H412 H 0.59274 0.88157 0.20123 0.0
H413 H 0.45512 0.90869 0.33736 0.0
H414 H 0.47265 0.93555 0.26462 0.0
H415 H 0.45726 0.90381 0.21383 0.0
H416 H 0.52652 0.99031 0.04841 0.0
H417 H 0.49857 0.91388 0.90733 0.0
H418 H 0.55473 0.95785 0.24322 0.0
H419 H 0.51802 0.96291 0.27852 0.0
H420 H 0.53589 0.99049 0.20992 0.0
H421 H 0.51789 0.86323 0.06742 0.0
H422 H 0.48971 0.87017 0.98334 0.0
H423 H 0.48219 0.87201 0.10584 0.0
C424 C 0.64742 0.52301 0.35053 0.0
C425 C 0.67595 0.5317 0.32993 0.0
C426 C 0.62489 0.52455 0.28328 0.0
C427 C 0.63082 0.53431 0.1916 0.0
C428 C 0.65891 0.54544 0.17296 0.0
C429 C 0.68085 0.54422 0.24193 0.0
C430 C 0.59537 0.51329 0.30904 0.0
C431 C 0.66668 0.55618 0.07709 0.0
C432 C 0.59294 0.49925 0.98233 0.0
C433 C 0.57324 0.52056 0.95253 0.0
C434 C 0.61055 0.50296 0.06178 0.0
C435 C 0.60941 0.52916 0.11263 0.0
C436 C 0.58859 0.55032 0.08532 0.0
C437 C 0.57076 0.54579 1.00591 0.0
C438 C 0.63112 0.47904 0.08963 0.0
C439 C 0.58582 0.57818 0.13836 0.0
H440 H 0.64322 0.51263 0.41683 0.0
H441 H 0.70283 0.55011 0.22333 0.0
H442 H 0.57796 0.52177 0.26328 0.0
H443 H 0.59537 0.48935 0.30416 0.0
H444 H 0.59025 0.51944 0.38131 0.0
H445 H 0.68797 0.56738 0.07599 0.0
H446 H 0.66766 0.53756 0.02884 0.0
H447 H 0.64983 0.57124 0.0506 0.0
H448 H 0.5953 0.47983 0.94113 0.0
H449 H 0.5561 0.56268 0.98269 0.0
H450 H 0.62709 0.47252 0.16282 0.0
H451 H 0.6538 0.48689 0.08533 0.0
H452 H 0.62887 0.45964 0.04497 0.0
H453 H 0.58183 0.57344 0.21292 0.0
H454 H 0.56797 0.592 0.1114 0.0
H455 H 0.60643 0.59048 0.13394 0.0
C456 C 0.98206 0.64765 0.33523 0.0
C457 C 1.00152 0.67109 0.33811 0.0
C458 C 0.98537 0.62466 0.271 0.0
C459 C 1.00804 0.62536 0.20424 0.0
C460 C 0.02929 0.64747 0.21289 0.0
C461 C 0.02615 0.66943 0.28068 0.0
C462 C 0.96296 0.60095 0.26932 0.0
C463 C 0.05372 0.65001 0.14395 0.0
C464 C 0.02055 0.56182 0.03244 0.0
C465 C 1.00404 0.57033 0.95444 0.0
C466 C 0.02202 0.57911 0.11406 0.0
C467 C 1.00695 0.60596 0.11851 0.0
C468 C 0.99039 0.61456 0.03966 0.0
C469 C 0.98895 0.59673 0.96003 0.0
C470 C 0.03973 0.5686 0.19569 0.0
C471 C 0.97433 0.64301 0.03876 0.0
H472 H 0.96267 0.64861 0.3774 0.0
H473 H 0.04132 0.68732 0.28102 0.0
H474 H 0.94775 0.6048 0.21077 0.0
H475 H 0.97334 0.57959 0.25833 0.0
H476 H 0.95029 0.60012 0.33482 0.0
H477 H 0.07111 0.66465 0.16904 0.0
H478 H 0.06327 0.62854 0.12892 0.0
H479 H 0.04512 0.65892 0.07763 0.0
H480 H 0.03241 0.54161 0.02971 0.0
H481 H 0.97619 0.60384 0.9009 0.0
H482 H 0.02594 0.56727 0.25862 0.0
H483 H 0.05734 0.58423 0.21082 0.0
H484 H 0.04954 0.54703 0.1831 0.0
H485 H 0.95786 0.64314 0.09474 0.0
H486 H 0.96327 0.64724 0.97144 0.0
H487 H 0.9896 0.66104 0.05262 0.0
C488 C 0.95223 0.2823 0.2698 0.0
C489 C 0.96449 0.2738 0.18501 0.0
C490 C 0.94992 0.26256 0.34393 0.0
C491 C 0.95913 0.23373 0.33122 0.0
C492 C 0.97205 0.22517 0.24715 0.0
C493 C 0.97449 0.24516 0.17564 0.0
C494 C 0.93835 0.27247 0.43624 0.0
C495 C 0.9836 0.19487 0.23234 0.0
C496 C 0.9724 0.1721 0.49337 0.0
C497 C 0.94837 0.15492 0.47097 0.0
C498 C 0.97494 0.20017 0.45756 0.0
C499 C 0.95259 0.21103 0.39969 0.0
C500 C 0.92685 0.19497 0.38638 0.0
C501 C 0.92512 0.16693 0.42197 0.0
C502 C 1.00252 0.21694 0.47525 0.0
C503 C 0.90293 0.20561 0.32306 0.0
H504 H 0.94513 0.30444 0.27901 0.0
H505 H 0.98548 0.23819 0.11334 0.0
H506 H 0.91773 0.26114 0.45191 0.0
H507 H 0.95395 0.26669 0.4922 0.0
H508 H 0.93451 0.29619 0.43758 0.0
H509 H 0.99397 0.19235 0.16342 0.0
H510 H 0.99999 0.1895 0.28617 0.0
H511 H 0.96576 0.17887 0.23813 0.0
H512 H 0.98998 0.16292 0.53395 0.0
H513 H 0.90659 0.15361 0.40447 0.0
H514 H 0.99918 0.23121 0.53598 0.0
H515 H 1.0088 0.23084 0.41551 0.0
H516 H 0.02093 0.20224 0.49119 0.0
H517 H 0.89787 0.22863 0.33695 0.0
H518 H 0.88282 0.19265 0.33106 0.0
H519 H 0.91016 0.20404 0.24973 0.0
C520 C 0.29204 1.0058 0.26274 0.0
C521 C 0.26375 0.99489 0.26427 0.0
C522 C 0.31207 0.99763 0.32964 0.0
C523 C 0.30281 0.97999 0.40464 0.0
C524 C 0.27322 0.97278 0.41472 0.0
C525 C 0.25399 0.97953 0.34241 0.0
C526 C 0.34341 1.00556 0.31173 0.0
C527 C 0.26235 0.95677 0.49934 0.0
C528 C 0.36345 0.92979 0.45672 0.0
C529 C 0.37978 0.94712 0.51576 0.0
C530 C 0.33588 0.93857 0.42872 0.0
C531 C 0.32489 0.96529 0.46119 0.0
C532 C 0.33995 0.98104 0.52986 0.0
C533 C 0.36755 0.97166 0.55664 0.0
C534 C 0.32073 0.92159 0.35349 0.0
C535 C 0.32933 1.01024 0.56174 0.0
H536 H 0.29922 0.01947 0.2057 0.0
H537 H 0.23183 0.9719 0.34572 0.0
H538 H 0.35738 1.00459 0.37403 0.0
H539 H 0.35238 0.9904 0.25962 0.0
H540 H 0.34499 0.02772 0.28165 0.0
H541 H 0.23831 0.95626 0.50218 0.0
H542 H 0.27048 0.93419 0.49922 0.0
H543 H 0.27072 0.96721 0.56322 0.0
H544 H 0.37344 0.91106 0.425 0.0
H545 H 0.38073 0.98519 0.60129 0.0
H546 H 0.32172 0.9339 0.28705 0.0
H547 H 0.29759 0.91833 0.37076 0.0
H548 H 0.33084 0.90007 0.3426 0.0
H549 H 0.33434 0.02684 0.5081 0.0
H550 H 0.34011 0.01689 0.62696 0.0
H551 H 0.30551 1.01012 0.57178 0.0
C552 C 0.52532 0.25693 0.26407 0.0
C553 C 0.49539 0.26237 0.25923 0.0
C554 C 0.54448 0.27755 0.29771 0.0
C555 C 0.5333 0.30383 0.33077 0.0
C556 C 0.50295 0.3086 0.33391 0.0
C557 C 0.48422 0.28783 0.29643 0.0
C558 C 0.57666 0.27257 0.28695 0.0
C559 C 0.49049 0.33658 0.36967 0.0
C560 C 0.57631 0.35677 0.47093 0.0
C561 C 0.57913 0.37924 0.40604 0.0
C562 C 0.56361 0.33054 0.44502 0.0
C563 C 0.55332 0.32752 0.35323 0.0
C564 C 0.55966 0.3488 0.28515 0.0
C565 C 0.57265 0.3746 0.31271 0.0
C566 C 0.55849 0.30733 0.51741 0.0
C567 C 0.55002 0.34613 0.18545 0.0
H568 H 0.53423 0.23795 0.23125 0.0
H569 H 0.46125 0.29231 0.29014 0.0
H570 H 0.58481 0.28615 0.22872 0.0
H571 H 0.58864 0.27904 0.3503 0.0
H572 H 0.58177 0.24959 0.27159 0.0
H573 H 0.46658 0.33545 0.37759 0.0
H574 H 0.5003 0.34208 0.43779 0.0
H575 H 0.49569 0.3544 0.32042 0.0
H576 H 0.5815 0.36072 0.54322 0.0
H577 H 0.57477 0.3923 0.26323 0.0
H578 H 0.56335 0.28556 0.48956 0.0
H579 H 0.53528 0.30735 0.53729 0.0
H580 H 0.57197 0.31074 0.58034 0.0
H581 H 0.56562 0.35724 0.13868 0.0
H582 H 0.52876 0.35701 0.17716 0.0
H583 H 0.54773 0.3233 0.16327 0.0
C584 C 0.23787 0.50629 0.32243 0.0
C585 C 0.26385 0.51717 0.28746 0.0
C586 C 0.21746 0.52503 0.36056 0.0
C587 C 0.22329 0.5552 0.36121 0.0
C588 C 0.25055 0.56586 0.33317 0.0
C589 C 0.27091 0.54643 0.29873 0.0
C590 C 0.18859 0.51286 0.39095 0.0
C591 C 0.25726 0.59786 0.3309 0.0
C592 C 0.15176 0.59171 0.33405 0.0
C593 C 0.1447 0.59548 0.42738 0.0
C594 C 0.17921 0.58167 0.30956 0.0
C595 C 0.19945 0.57533 0.38086 0.0
C596 C 0.19371 0.58315 0.47355 0.0
C597 C 0.16603 0.59304 0.49616 0.0
C598 C 0.18511 0.57443 0.20915 0.0
C599 C 0.21555 0.57776 0.54978 0.0
H600 H 0.23252 0.48366 0.31216 0.0
H601 H 0.29103 0.55471 0.27016 0.0
H602 H 0.182 0.52221 0.45839 0.0
H603 H 0.17175 0.51866 0.33897 0.0
H604 H 0.18912 0.4889 0.39788 0.0
H605 H 0.27756 0.6027 0.29251 0.0
H606 H 0.2393 0.61015 0.29785 0.0
H607 H 0.25976 0.60595 0.40273 0.0
H608 H 0.13493 0.59343 0.2816 0.0
H609 H 0.16014 0.59579 0.56849 0.0
H610 H 0.18235 0.5508 0.19872 0.0
H611 H 0.20768 0.5801 0.18986 0.0
H612 H 0.17 0.58591 0.1614 0.0
H613 H 0.21921 0.55414 0.55795 0.0
H614 H 0.20845 0.58685 0.6172 0.0
H615 H 0.23667 0.58753 0.53126 0.0
C616 C 0.01634 0.74976 0.18335 0.0
C617 C 0.98803 0.75881 0.20429 0.0
C618 C 0.03684 0.76916 0.14936 0.0
C619 C 0.02819 0.79773 0.12941 0.0
C620 C 0.99863 0.80584 0.13706 0.0
C621 C 0.97883 0.78627 0.1758 0.0
C622 C 0.06813 0.75959 0.14704 0.0
C623 C 0.98846 0.83601 0.11267 0.0
C624 C 0.07203 0.86547 0.15075 0.0
C625 C 0.07564 0.87222 0.05675 0.0
C626 C 0.05935 0.83918 0.17701 0.0
C627 C 0.04995 0.81997 0.107 0.0
C628 C 0.05767 0.82481 0.01355 0.0
C629 C 0.07018 0.85132 0.98891 0.0
C630 C 0.05371 0.83304 0.27852 0.0
C631 C 0.05018 0.80317 0.9392 0.0
H632 H 0.02381 0.72862 0.20526 0.0
H633 H 0.95703 0.79329 0.19213 0.0
H634 H 0.08172 0.7729 0.09999 0.0
H635 H 0.07729 0.7613 0.21816 0.0
H636 H 0.06976 0.73655 0.12597 0.0
H637 H 0.96446 0.83767 0.11201 0.0
H638 H 0.99699 0.85157 0.16443 0.0
H639 H 0.99685 0.8426 0.04347 0.0
H640 H 0.07648 0.88178 0.20273 0.0
H641 H 0.07323 0.85675 0.91617 0.0
H642 H 0.06048 0.81063 0.29636 0.0
H643 H 0.03018 0.83471 0.29282 0.0
H644 H 0.06538 0.8484 0.32441 0.0
H645 H 0.05582 0.78089 0.96157 0.0
H646 H 0.06179 0.80784 0.87338 0.0
H647 H 0.02646 0.80345 0.92681 0.0
C648 C 0.77412 0.9976 0.18418 0.0
C649 C 0.76533 0.97587 0.24759 0.0
C650 C 0.75381 0.01456 0.13655 0.0
C651 C 0.72409 1.00961 0.15201 0.0
C652 C 0.71506 0.98587 0.20771 0.0
C653 C 0.7359 0.9684 0.25089 0.0
C654 C 0.76419 0.03926 0.07604 0.0
C655 C 0.68342 0.97962 0.22624 0.0
C656 C 0.66637 0.06686 0.12562 0.0
C657 C 0.65024 0.0548 0.05338 0.0
C658 C 0.69257 0.05416 0.15353 0.0
C659 C 0.70211 0.0286 0.1086 0.0
C660 C 0.68758 0.01865 0.02868 0.0
C661 C 0.66198 0.0322 1.00098 0.0
C662 C 0.70887 0.0679 0.23279 0.0
C663 C 0.698 0.99242 0.97651 0.0
H664 H 0.79672 1.00346 0.17773 0.0
H665 H 0.72891 0.95087 0.29595 0.0
H666 H 0.75228 0.03958 0.00899 0.0
H667 H 0.75984 0.06007 0.11148 0.0
H668 H 0.7878 0.03795 0.06181 0.0
H669 H 0.68044 0.9664 0.29028 0.0
H670 H 0.67072 0.99984 0.23362 0.0
H671 H 0.67419 0.96735 0.16725 0.0
H672 H 0.65765 0.08492 0.16434 0.0
H673 H 0.64994 0.02373 0.94231 0.0
H674 H 0.71861 0.08847 0.2077 0.0
H675 H 0.72648 0.0542 0.26094 0.0
H676 H 0.69377 0.0737 0.28966 0.0
H677 H 0.72102 0.9954 0.95668 0.0
H678 H 0.68475 0.98817 0.91365 0.0
H679 H 0.69697 0.9729 0.02148 0.0
C680 C 0.46681 0.76979 0.19642 0.0
C681 C 0.4956 0.76369 0.2194 0.0
C682 C 0.45042 0.7498 0.14647 0.0
C683 C 0.46343 0.72344 0.1203 0.0
C684 C 0.49356 0.71892 0.13402 0.0
C685 C 0.50937 0.73941 0.18335 0.0
C686 C 0.41858 0.75549 0.13146 0.0
C687 C 0.5092 0.69186 0.10313 0.0
C688 C 0.42876 0.65107 0.14283 0.0
C689 C 0.43025 0.64212 0.0507 0.0
C690 C 0.43649 0.67927 0.16633 0.0
C691 C 0.44522 0.69864 0.09494 0.0
C692 C 0.44273 0.69074 1.00074 0.0
C693 C 0.43549 0.66216 0.97941 0.0
C694 C 0.43965 0.68669 0.26796 0.0
C695 C 0.45116 0.71142 0.92391 0.0
H696 H 0.45639 0.78879 0.22501 0.0
H697 H 0.53188 0.73529 0.20068 0.0
H698 H 0.4112 0.74692 0.06362 0.0
H699 H 0.40599 0.74437 0.18672 0.0
H700 H 0.4136 0.77898 0.13453 0.0
H701 H 0.52607 0.68548 0.15448 0.0
H702 H 0.49474 0.67306 0.09224 0.0
H703 H 0.5204 0.69659 0.03662 0.0
H704 H 0.42511 0.63512 0.19724 0.0
H705 H 0.43685 0.65476 0.90819 0.0
H706 H 0.43159 0.70883 0.28187 0.0
H707 H 0.46293 0.68602 0.28741 0.0
H708 H 0.42781 0.67117 0.31334 0.0
H709 H 0.4387 0.73182 0.93021 0.0
H710 H 0.44731 0.70216 0.85397 0.0
H711 H 0.47441 0.71714 0.93052 0.0
C712 C 0.74809 0.47117 0.18834 0.0
C713 C 0.7466 0.45843 0.27703 0.0
C714 C 0.77185 0.46607 0.131 0.0
C715 C 0.7939 0.44732 0.16298 0.0
C716 C 0.78975 0.43051 0.24443 0.0
C717 C 0.7657 0.43603 0.30037 0.0
C718 C 0.77542 0.48432 0.04435 0.0
C719 C 0.81284 0.41014 0.28008 0.0
C720 C 0.86156 0.43184 0.02574 0.0
C721 C 0.88124 0.45084 0.06769 0.0
C722 C 0.83254 0.43117 0.05334 0.0
C723 C 0.82328 0.44992 0.12429 0.0
C724 C 0.84277 0.47011 0.16395 0.0
C725 C 0.87163 0.47021 0.13527 0.0
C726 C 0.81207 0.40987 0.00885 0.0
C727 C 0.83343 0.49096 0.23879 0.0
H728 H 0.73318 0.48835 0.16927 0.0
H729 H 0.76416 0.42585 0.36828 0.0
H730 H 0.78903 0.50343 0.06072 0.0
H731 H 0.78637 0.47211 0.98848 0.0
H732 H 0.7542 0.49228 0.01804 0.0
H733 H 0.80428 0.39514 0.33403 0.0
H734 H 0.82213 0.39727 0.22262 0.0
H735 H 0.83069 0.42293 0.31137 0.0
H736 H 0.86889 0.41743 0.97153 0.0
H737 H 0.88687 0.48496 0.16742 0.0
H738 H 0.79192 0.42091 0.98601 0.0
H739 H 0.80578 0.39314 0.06061 0.0
H740 H 0.82193 0.39896 0.94809 0.0
H741 H 0.81417 0.50343 0.21562 0.0
H742 H 0.85084 0.50651 0.25741 0.0
H743 H 0.82721 0.47875 0.30232 0.0
C744 C 0.99729 0.24469 0.87869 0.0
C745 C 0.01775 0.25828 0.93763 0.0
C746 C 0.99941 0.21526 0.8527 0.0
C747 C 0.02471 0.19906 0.87401 0.0
C748 C 0.04759 0.21396 0.92069 0.0
C749 C 0.04344 0.24266 0.95513 0.0
C750 C 0.97346 0.20167 0.80584 0.0
C751 C 0.07651 0.19949 0.93508 0.0
C752 C 0.02068 0.11526 0.89451 0.0
C753 C 0.02352 0.10593 0.80208 0.0
C754 C 0.02131 0.14502 0.91874 0.0
C755 C 0.02651 0.16671 0.84997 0.0
C756 C 0.03052 0.15721 0.75677 0.0
C757 C 0.02816 0.12733 0.73371 0.0
C758 C 0.0142 0.15318 0.01734 0.0
C759 C 0.03721 0.17867 0.68066 0.0
H760 H 0.97798 0.25645 0.85831 0.0
H761 H 0.05997 0.25238 0.99841 0.0
H762 H 0.9743 0.20627 0.7302 0.0
H763 H 0.97235 0.1779 0.81648 0.0
H764 H 0.95301 0.21123 0.83227 0.0
H765 H 0.09342 0.21516 0.95693 0.0
H766 H 0.07477 0.18243 0.9892 0.0
H767 H 0.08358 0.1889 0.8699 0.0
H768 H 0.01673 0.09916 0.94813 0.0
H769 H 0.0306 0.12066 0.66208 0.0
H770 H 0.99256 0.16363 0.01835 0.0
H771 H 0.02997 0.16901 0.04491 0.0
H772 H 0.01373 0.1341 0.06465 0.0
H773 H 0.01715 0.19032 0.66114 0.0
H774 H 0.04582 0.16794 0.61765 0.0
H775 H 0.05315 0.19498 0.70487 0.0
C776 C 0.28728 0.04565 0.97367 0.0
C777 C 0.2669 0.02442 0.94778 0.0
C778 C 0.31633 0.04534 0.94155 0.0
C779 C 0.32565 0.02432 0.87622 0.0
C780 C 0.3044 1.00428 0.84354 0.0
C781 C 0.27577 1.0044 0.88024 0.0
C782 C 0.33774 0.06589 0.98524 0.0
C783 C 0.31167 0.98092 0.77479 0.0
C784 C 0.40116 0.04113 0.7677 0.0
C785 C 0.41917 0.02003 0.80845 0.0
C786 C 0.3709 0.04233 0.78617 0.0
C787 C 0.35778 0.02223 0.84902 0.0
C788 C 0.37613 1.00087 0.89027 0.0
C789 C 0.40618 0.99985 0.8688 0.0
C790 C 0.3535 0.06568 0.73819 0.0
C791 C 0.36418 0.97936 0.95957 0.0
H792 H 0.28142 0.06045 0.0287 0.0
H793 H 0.26102 0.98711 0.86161 0.0
H794 H 0.35709 0.05388 0.01034 0.0
H795 H 0.34509 0.08193 0.93288 0.0
H796 H 0.3283 0.07784 0.04466 0.0
H797 H 0.29633 0.98209 0.71545 0.0
H798 H 0.33413 0.98215 0.74827 0.0
H799 H 0.30846 0.9594 0.80789 0.0
H800 H 0.41076 0.05696 0.72118 0.0
H801 H 0.41976 0.98351 0.90115 0.0
H802 H 0.35734 0.0866 0.77354 0.0
H803 H 0.32991 0.06113 0.73794 0.0
H804 H 0.36085 0.06843 0.66522 0.0
H805 H 0.35126 0.99066 0.01331 0.0
H806 H 0.38154 0.96669 0.99452 0.0
H807 H 0.34958 0.964 0.92361 0.0
C808 C 0.52939 0.28408 0.96877 0.0
C809 C 0.50398 0.26772 0.9554 0.0
C810 C 0.53282 0.31215 0.92924 0.0
C811 C 0.51024 0.32482 0.87543 0.0
C812 C 0.48584 0.30728 0.85434 0.0
C813 C 0.48287 0.27935 0.89503 0.0
C814 C 0.56023 0.32882 0.94817 0.0
C815 C 0.46204 0.31863 0.79232 0.0
C816 C 0.49843 0.40765 0.88606 0.0
C817 C 0.51194 0.41819 0.80481 0.0
C818 C 0.49791 0.37774 0.90916 0.0
C819 C 0.51077 0.35702 0.84942 0.0
C820 C 0.52407 0.36749 0.76668 0.0
C821 C 0.5248 0.39764 0.74607 0.0
C822 C 0.48349 0.36829 0.99833 0.0
C823 C 0.53793 0.34725 0.69878 0.0
H824 H 0.54561 0.27593 0.01681 0.0
H825 H 0.46284 0.26749 0.88539 0.0
H826 H 0.57213 0.33203 0.88201 0.0
H827 H 0.55503 0.3506 0.97546 0.0
H828 H 0.57468 0.31743 0.99821 0.0
H829 H 0.4464 0.30142 0.77284 0.0
H830 H 0.45013 0.33608 0.82849 0.0
H831 H 0.47141 0.32812 0.728 0.0
H832 H 0.48838 0.42288 0.93292 0.0
H833 H 0.53535 0.405 0.683 0.0
H834 H 0.49821 0.35409 0.03907 0.0
H835 H 0.46384 0.35546 0.98204 0.0
H836 H 0.47708 0.38692 0.04212 0.0
H837 H 0.56175 0.34775 0.70908 0.0
H838 H 0.53334 0.35464 0.62669 0.0
H839 H 0.53035 0.32459 0.70663 0.0
C840 C 0.24197 0.52893 0.96102 0.0
C841 C 0.25813 0.50299 0.96292 0.0
C842 C 0.2139 0.53062 0.92117 0.0
C843 C 0.20156 0.5062 0.87656 0.0
C844 C 0.21911 0.48096 0.86865 0.0
C845 C 0.24663 0.4794 0.91353 0.0
C846 C 0.19635 0.55778 0.93543 0.0
C847 C 0.20796 0.45477 0.81803 0.0
C848 C 0.11832 0.49693 0.88791 0.0
C849 C 0.10852 0.50812 0.80206 0.0
C850 C 0.14812 0.49605 0.912 0.0
C851 C 0.16949 0.50608 0.84859 0.0
C852 C 0.15978 0.51694 0.76108 0.0
C853 C 0.12968 0.51813 0.73937 0.0
C854 C 0.15667 0.48482 1.00687 0.0
C855 C 0.18119 0.52771 0.69038 0.0
H856 H 0.24992 0.54711 1.001 0.0
H857 H 0.25815 0.45897 0.91573 0.0
H858 H 0.1869 0.56536 0.86877 0.0
H859 H 0.17808 0.55302 0.98318 0.0
H860 H 0.20945 0.57557 0.96564 0.0
H861 H 0.22548 0.43893 0.80397 0.0
H862 H 0.19109 0.44391 0.86053 0.0
H863 H 0.1978 0.46127 0.75113 0.0
H864 H 0.10254 0.48918 0.93781 0.0
H865 H 0.12276 0.52681 0.67282 0.0
H866 H 0.16848 0.5019 0.04547 0.0
H867 H 0.17157 0.46615 0.99985 0.0
H868 H 0.13768 0.47789 0.04869 0.0
H869 H 0.1913 0.54788 0.71605 0.0
H870 H 0.1708 0.5323 0.62225 0.0
H871 H 0.19878 0.51165 0.68058 0.0
C872 C 0.0215 0.784 0.52142 0.0
C873 C 0.99441 0.76998 0.51983 0.0
C874 C 0.02505 0.81212 0.55995 0.0
C875 C 1.00088 0.8274 0.59668 0.0
C876 C 0.97391 0.81258 0.60028 0.0
C877 C 0.9711 0.78439 0.5626 0.0
C878 C 0.05445 0.82624 0.5559 0.0
C879 C 0.94718 0.82744 0.63662 0.0
C880 C 1.01124 0.89776 0.74063 0.0
C881 C 1.00649 0.91984 0.67465 0.0
C882 C 1.00923 0.86798 0.71673 0.0
C883 C 1.0031 0.85939 0.62395 0.0
C884 C 0.99844 0.88169 0.55708 0.0
C885 C 0.99998 0.91125 0.58307 0.0
C886 C 0.01365 0.84554 0.79115 0.0
C887 C 0.99196 0.87433 0.45721 0.0
H888 H 0.03952 0.77393 0.48592 0.0
H889 H 0.94981 0.77455 0.55916 0.0
H890 H 0.05404 0.84426 0.50466 0.0
H891 H 0.0601 0.83561 0.62439 0.0
H892 H 0.07166 0.81075 0.53551 0.0
H893 H 0.92902 0.81202 0.64759 0.0
H894 H 0.95181 0.83855 0.70305 0.0
H895 H 0.94011 0.84418 0.58582 0.0
H896 H 0.01611 0.90374 0.81164 0.0
H897 H 0.9964 0.9278 0.53062 0.0
H898 H 0.03122 0.83075 0.76959 0.0
H899 H 0.99376 0.83231 0.7994 0.0
H900 H 0.01913 0.8553 0.85927 0.0
H901 H 1.01113 0.86378 0.42597 0.0
H902 H 0.98645 0.89378 0.415 0.0
H903 H 0.97371 0.85875 0.45322 0.0
C904 C 0.75086 1.00797 0.61155 0.0
C905 C 0.7542 0.01349 0.51607 0.0
C906 C 0.72342 1.01028 0.65595 0.0
C907 C 0.69805 0.01736 0.604 0.0
C908 C 0.70158 0.02384 0.50815 0.0
C909 C 0.72931 0.02225 0.46641 0.0
C910 C 0.72133 1.0031 0.75756 0.0
C911 C 0.67575 0.03101 0.44786 0.0
C912 C 0.62171 0.98947 0.67052 0.0
C913 C 0.6082 0.0139 0.70931 0.0
C914 C 0.65102 0.98995 0.64078 0.0
C915 C 0.6677 0.01577 0.64676 0.0
C916 C 0.65434 0.04038 0.6875 0.0
C917 C 0.62517 0.03904 0.71928 0.0
C918 C 0.66389 0.96287 0.59985 0.0
C919 C 0.67059 0.06857 0.69455 0.0
H920 H 0.76936 1.00001 0.65049 0.0
H921 H 0.73114 0.02525 0.39205 0.0
H922 H 0.70811 0.01958 0.7937 0.0
H923 H 0.71041 0.98185 0.76598 0.0
H924 H 0.74296 1.0019 0.79128 0.0
H925 H 0.6812 0.03079 0.37292 0.0
H926 H 0.6579 0.01534 0.45951 0.0
H927 H 0.66752 0.0528 0.46614 0.0
H928 H 0.60919 0.9698 0.66239 0.0
H929 H 0.61525 0.0582 0.74836 0.0
H930 H 0.68454 0.95747 0.63551 0.0
H931 H 0.66892 0.96657 0.52537 0.0
H932 H 0.64905 0.94401 0.6056 0.0
H933 H 0.69084 0.06537 0.73491 0.0
H934 H 0.65755 0.08574 0.72827 0.0
H935 H 0.67687 0.07612 0.62406 0.0
C936 C 0.54724 0.74252 0.57201 0.0
C937 C 0.52134 0.75639 0.54531 0.0
C938 C 0.54725 0.71467 0.61518 0.0
C939 C 0.52086 0.69926 0.62882 0.0
C940 C 0.49464 0.71415 0.60888 0.0
C941 C 0.49522 0.74235 0.56929 0.0
C942 C 0.57579 0.70095 0.64072 0.0
C943 C 0.46581 0.69927 0.62138 0.0
C944 C 0.52278 0.61587 0.60338 0.0
C945 C 0.51818 0.60552 0.69438 0.0
C946 C 0.52348 0.6459 0.58191 0.0
C947 C 0.52057 0.66689 0.65321 0.0
C948 C 0.51636 0.65654 0.74576 0.0
C949 C 0.51482 0.62628 0.7648 0.0
C950 C 0.52681 0.65517 0.48176 0.0
C951 C 0.51447 0.67718 0.82611 0.0
H952 H 0.56765 0.75242 0.55262 0.0
H953 H 0.475 0.75218 0.54722 0.0
H954 H 0.57416 0.68954 0.70863 0.0
H955 H 0.5817 0.68471 0.58761 0.0
H956 H 0.59345 0.71725 0.64464 0.0
H957 H 0.44733 0.71441 0.61221 0.0
H958 H 0.46374 0.68168 0.56961 0.0
H959 H 0.46439 0.68919 0.69135 0.0
H960 H 0.52523 0.60034 0.54785 0.0
H961 H 0.51164 0.61888 0.83568 0.0
H962 H 0.54684 0.66816 0.47333 0.0
H963 H 0.50832 0.66914 0.46091 0.0
H964 H 0.52784 0.63646 0.43381 0.0
H965 H 0.53671 0.68195 0.85112 0.0
H966 H 0.50211 0.66759 0.88487 0.0
H967 H 0.50433 0.69799 0.8056 0.0
C968 C 0.78111 0.49856 0.59865 0.0
C969 C 0.77002 0.52002 0.53791 0.0
C970 C 0.80955 0.49981 0.63538 0.0
C971 C 0.82749 0.52412 0.61698 0.0
C972 C 0.81494 0.54772 0.56648 0.0
C973 C 0.7869 0.54509 0.52551 0.0
C974 C 0.82091 0.47401 0.68901 0.0
C975 C 0.83146 0.57552 0.55236 0.0
C976 C 0.90011 0.52438 0.75604 0.0
C977 C 0.92076 0.51855 0.68687 0.0
C978 C 0.87011 0.52753 0.73463 0.0
C979 C 0.8598 0.52335 0.64203 0.0
C980 C 0.88066 0.51643 0.57293 0.0
C981 C 0.91056 0.515 0.59548 0.0
C982 C 0.84991 0.53541 0.81266 0.0
C983 C 0.87135 0.50944 0.47495 0.0
H984 H 0.76837 0.47915 0.61012 0.0
H985 H 0.77901 0.56199 0.47945 0.0
H986 H 0.84244 0.46738 0.6623 0.0
H987 H 0.82355 0.47985 0.76309 0.0
H988 H 0.80607 0.45512 0.68522 0.0
H989 H 0.81644 0.59411 0.54329 0.0
H990 H 0.84607 0.57996 0.61195 0.0
H991 H 0.84479 0.574 0.48863 0.0
H992 H 0.90747 0.5274 0.8269 0.0
H993 H 0.92608 0.51026 0.54126 0.0
H994 H 0.84651 0.51616 0.85782 0.0
H995 H 0.82857 0.54332 0.78773 0.0
H996 H 0.85989 0.55238 0.85672 0.0
H997 H 0.85395 0.49284 0.4759 0.0
H998 H 0.88956 0.5013 0.43208 0.0
H999 H 0.86245 0.52905 0.4407 0.0
loop_
_geom_bond_atom_site_label_1
_geom_bond_atom_site_label_2
_geom_bond_distance
_geom_bond_site_symmetry_2
_ccdc_geom_bond_type
H0 C3 0.931 . S
H1 C6 0.928 . S
H2 C8 0.930 . S
C3 H0 0.931 . S
C3 C4 1.413 . S
C3 C5 1.360 . S
C4 C3 1.413 . S
C4 C8 1.429 . S
C5 C3 1.360 . S
C5 C6 1.372 . S
C6 H1 0.928 . S
C6 C5 1.372 . S
C6 C7 1.404 . S
C7 C6 1.404 . S
C7 C8 1.391 . S
C8 H2 0.930 . S
C8 C4 1.429 . S
C8 C7 1.391 . S
H9 C12 0.931 . S
H10 C15 0.928 . S
H11 C17 0.930 . S
C12 H9 0.931 . S
C12 C13 1.413 . S
C12 C14 1.360 . S
C13 C12 1.413 . S
C13 C17 1.429 1_655 S
C14 C12 1.360 . S
C14 C15 1.372 . S
C15 H10 0.928 . S
C15 C14 1.372 . S
C15 C16 1.404 . S
C16 C15 1.404 . S
C16 C17 1.390 1_655 S
C17 H11 0.930 . S
C17 C13 1.429 1_455 S
C17 C16 1.390 1_455 S
H18 C21 0.931 . S
H19 C24 0.928 . S
H20 C26 0.930 . S
C21 H18 0.931 . S
C21 C22 1.413 . S
C21 C23 1.360 . S
C22 C21 1.413 . S
C22 C26 1.429 1_565 S
C23 C21 1.360 . S
C23 C24 1.372 . S
C24 H19 0.928 . S
C24 C23 1.372 . S
C24 C25 1.404 . S
C25 C24 1.404 . S
C25 C26 1.390 1_565 S
C26 H20 0.930 . S
C26 C22 1.429 1_545 S
C26 C25 1.390 1_545 S
H27 C30 0.931 . S
H28 C33 0.928 . S
H29 C35 0.930 . S
C30 H27 0.931 . S
C30 C31 1.413 . S
C30 C32 1.360 . S
C31 C30 1.413 . S
C31 C35 1.429 . S
C32 C30 1.360 . S
C32 C33 1.372 . S
C33 H28 0.928 . S
C33 C32 1.372 . S
C33 C34 1.404 . S
C34 C33 1.404 . S
C34 C35 1.391 . S
C35 H29 0.930 . S
C35 C31 1.429 . S
C35 C34 1.391 . S
H36 C39 0.931 . S
H37 C42 0.928 . S
H38 C44 0.930 . S
C39 H36 0.931 . S
C39 C40 1.413 1_554 S
C39 C41 1.360 . S
C40 C39 1.413 1_556 S
C40 C44 1.429 . S
C41 C39 1.360 . S
C41 C42 1.372 . S
C42 H37 0.928 . S
C42 C41 1.372 . S
C42 C43 1.404 . S
C43 C42 1.404 . S
C43 C44 1.391 1_554 S
C44 H38 0.930 . S
C44 C40 1.429 . S
C44 C43 1.391 1_556 S
H45 C48 0.931 . S
H46 C51 0.928 . S
H47 C53 0.930 . S
C48 H45 0.931 . S
C48 C49 1.413 1_554 S
C48 C50 1.360 . S
C49 C48 1.413 1_556 S
C49 C53 1.429 1_655 S
C50 C48 1.360 . S
C50 C51 1.372 . S
C51 H46 0.928 . S
C51 C50 1.372 . S
C51 C52 1.404 . S
C52 C51 1.404 . S
C52 C53 1.391 1_654 S
C53 H47 0.930 . S
C53 C49 1.429 1_455 S
C53 C52 1.391 1_456 S
H54 C57 0.931 . S
H55 C60 0.928 . S
H56 C62 0.930 . S
C57 H54 0.931 . S
C57 C58 1.413 1_554 S
C57 C59 1.360 . S
C58 C57 1.413 1_556 S
C58 C62 1.429 1_565 S
C59 C57 1.360 . S
C59 C60 1.372 . S
C60 H55 0.928 . S
C60 C59 1.372 . S
C60 C61 1.404 . S
C61 C60 1.404 . S
C61 C62 1.391 1_564 S
C62 H56 0.930 . S
C62 C58 1.429 1_545 S
C62 C61 1.391 1_546 S
H63 C66 0.931 . S
H64 C69 0.928 . S
H65 C71 0.930 . S
C66 H63 0.931 . S
C66 C67 1.413 . S
C66 C68 1.360 1_554 S
C67 C66 1.413 . S
C67 C71 1.429 . S
C68 C66 1.360 1_556 S
C68 C69 1.372 . S
C69 H64 0.928 . S
C69 C68 1.372 . S
C69 C70 1.404 1_556 S
C70 C69 1.404 1_554 S
C70 C71 1.391 . S
C71 H65 0.930 . S
C71 C67 1.429 . S
C71 C70 1.391 . S
Ho72 C75 2.811 . S
Ho72 O92 2.322 . S
Ho72 O94 2.378 . S
Ho72 O95 2.524 . S
Ho72 O96 2.381 . S
Ho72 O97 2.669 1_565 S
Ho72 O99 2.346 1_565 S
Ho72 O103 2.305 1_455 S
Ho73 C84 2.811 . S
Ho73 O93 2.346 1_545 S
Ho73 O97 2.305 1_655 S
Ho73 O98 2.322 . S
Ho73 O100 2.378 . S
Ho73 O101 2.524 . S
Ho73 O102 2.381 . S
Ho73 O103 2.669 1_545 S
C74 O92 1.259 1_655 S
C74 O93 1.268 . S
C75 Ho72 2.811 . S
C75 C76 1.488 . S
C75 O94 1.215 . S
C75 O95 1.289 . S
C76 C75 1.488 . S
C76 C77 1.348 1_556 S
C76 C81 1.413 . S
C77 C76 1.348 1_554 S
C77 C78 1.442 . S
C77 H104 0.930 1_455 S
C78 C77 1.442 . S
C78 C79 1.381 . S
C78 H105 0.931 . S
C79 C78 1.381 . S
C79 C80 1.321 . S
C80 C79 1.321 . S
C80 C81 1.403 1_554 S
C80 H106 0.934 . S
C81 C76 1.413 . S
C81 C80 1.403 1_556 S
C81 H107 0.930 . S
C82 O96 1.275 . S
C82 O97 1.256 1_565 S
C83 O98 1.259 1_455 S
C83 O99 1.268 . S
C84 Ho73 2.811 . S
C84 C85 1.488 . S
C84 O100 1.215 . S
C84 O101 1.289 . S
C85 C84 1.488 . S
C85 C86 1.348 . S
C85 C90 1.413 . S
C86 C85 1.348 . S
C86 C87 1.442 . S
C86 H108 0.930 1_655 S
C87 C86 1.442 . S
C87 C88 1.381 . S
C87 H109 0.931 . S
C88 C87 1.381 . S
C88 C89 1.321 . S
C89 C88 1.321 . S
C89 C90 1.403 . S
C89 H110 0.934 . S
C90 C85 1.413 . S
C90 C89 1.403 . S
C90 H111 0.930 . S
C91 O102 1.275 . S
C91 O103 1.256 1_545 S
O92 Ho72 2.322 . S
O92 C74 1.259 1_455 S
O93 Ho73 2.346 1_565 S
O93 C74 1.268 . S
O94 Ho72 2.378 . S
O94 C75 1.215 . S
O95 Ho72 2.524 . S
O95 C75 1.289 . S
O96 Ho72 2.381 . S
O96 C82 1.275 . S
O97 Ho72 2.669 1_545 S
O97 Ho73 2.305 1_455 S
O97 C82 1.256 1_545 S
O98 Ho73 2.322 . S
O98 C83 1.259 1_655 S
O99 Ho72 2.346 1_545 S
O99 C83 1.268 . S
O100 Ho73 2.378 . S
O100 C84 1.215 . S
O101 Ho73 2.524 . S
O101 C84 1.289 . S
O102 Ho73 2.381 . S
O102 C91 1.275 . S
O103 Ho72 2.305 1_655 S
O103 Ho73 2.669 1_565 S
O103 C91 1.256 1_565 S
H104 C77 0.930 1_655 S
H105 C78 0.931 . S
H106 C80 0.934 . S
H107 C81 0.930 . S
H108 C86 0.930 1_455 S
H109 C87 0.931 . S
H110 C89 0.934 . S
H111 C90 0.930 . S
Ho112 C115 2.811 . S
Ho112 O132 2.322 . S
Ho112 O134 2.378 . S
Ho112 O135 2.524 . S
Ho112 O136 2.381 . S
Ho112 O137 2.669 . S
Ho112 O139 2.346 . S
Ho112 O143 2.305 1_545 S
Ho113 C124 2.811 . S
Ho113 O133 2.346 . S
Ho113 O137 2.305 1_565 S
Ho113 O138 2.322 . S
Ho113 O140 2.378 . S
Ho113 O141 2.524 . S
Ho113 O142 2.381 . S
Ho113 O143 2.669 . S
C114 O132 1.259 1_565 S
C114 O133 1.268 . S
C115 Ho112 2.811 . S
C115 C116 1.488 . S
C115 O134 1.215 . S
C115 O135 1.289 . S
C116 C115 1.488 . S
C116 C117 1.348 1_556 S
C116 C121 1.413 . S
C117 C116 1.348 1_554 S
C117 C118 1.442 . S
C117 H144 0.930 1_545 S
C118 C117 1.442 . S
C118 C119 1.381 . S
C118 H145 0.931 . S
C119 C118 1.381 . S
C119 C120 1.321 . S
C120 C119 1.321 . S
C120 C121 1.403 1_554 S
C120 H146 0.934 . S
C121 C116 1.413 . S
C121 C120 1.403 1_556 S
C121 H147 0.930 . S
C122 O136 1.275 . S
C122 O137 1.256 . S
C123 O138 1.259 1_545 S
C123 O139 1.268 . S
C124 Ho113 2.811 . S
C124 C125 1.488 . S
C124 O140 1.215 . S
C124 O141 1.289 . S
C125 C124 1.488 . S
C125 C126 1.348 . S
C125 C130 1.413 . S
C126 C125 1.348 . S
C126 C127 1.442 . S
C126 H148 0.930 1_565 S
C127 C126 1.442 . S
C127 C128 1.381 . S
C127 H149 0.931 . S
C128 C127 1.381 . S
C128 C129 1.321 . S
C129 C128 1.321 . S
C129 C130 1.403 . S
C129 H150 0.934 . S
C130 C125 1.413 . S
C130 C129 1.403 . S
C130 H151 0.930 . S
C131 O142 1.275 . S
C131 O143 1.256 . S
O132 Ho112 2.322 . S
O132 C114 1.259 1_545 S
O133 Ho113 2.346 . S
O133 C114 1.268 . S
O134 Ho112 2.378 . S
O134 C115 1.215 . S
O135 Ho112 2.524 . S
O135 C115 1.289 . S
O136 Ho112 2.381 . S
O136 C122 1.275 . S
O137 Ho112 2.669 . S
O137 Ho113 2.305 1_545 S
O137 C122 1.256 . S
O138 Ho113 2.322 . S
O138 C123 1.259 1_565 S
O139 Ho112 2.346 . S
O139 C123 1.268 . S
O140 Ho113 2.378 . S
O140 C124 1.215 . S
O141 Ho113 2.524 . S
O141 C124 1.289 . S
O142 Ho113 2.381 . S
O142 C131 1.275 . S
O143 Ho112 2.305 1_565 S
O143 Ho113 2.669 . S
O143 C131 1.256 . S
H144 C117 0.930 1_565 S
H145 C118 0.931 . S
H146 C120 0.934 . S
H147 C121 0.930 . S
H148 C126 0.930 1_545 S
H149 C127 0.931 . S
H150 C129 0.934 . S
H151 C130 0.930 . S
Ho152 C155 2.811 . S
Ho152 O172 2.322 . S
Ho152 O174 2.378 . S
Ho152 O175 2.524 . S
Ho152 O176 2.381 . S
Ho152 O177 2.669 . S
Ho152 O179 2.346 . S
Ho152 O183 2.305 . S
Ho153 C164 2.811 . S
Ho153 O173 2.346 . S
Ho153 O177 2.305 . S
Ho153 O178 2.322 . S
Ho153 O180 2.378 . S
Ho153 O181 2.524 . S
Ho153 O182 2.381 . S
Ho153 O183 2.669 . S
C154 O172 1.259 . S
C154 O173 1.268 . S
C155 Ho152 2.811 . S
C155 C156 1.488 . S
C155 O174 1.215 . S
C155 O175 1.289 . S
C156 C155 1.488 . S
C156 C157 1.348 1_556 S
C156 C161 1.413 . S
C157 C156 1.348 1_554 S
C157 C158 1.442 . S
C157 H184 0.930 . S
C158 C157 1.442 . S
C158 C159 1.381 . S
C158 H185 0.931 . S
C159 C158 1.381 . S
C159 C160 1.321 . S
C160 C159 1.321 . S
C160 C161 1.403 1_554 S
C160 H186 0.934 . S
C161 C156 1.413 . S
C161 C160 1.403 1_556 S
C161 H187 0.930 . S
C162 O176 1.275 . S
C162 O177 1.256 . S
C163 O178 1.259 . S
C163 O179 1.268 . S
C164 Ho153 2.811 . S
C164 C165 1.488 . S
C164 O180 1.215 . S
C164 O181 1.289 . S
C165 C164 1.488 . S
C165 C166 1.348 . S
C165 C170 1.413 . S
C166 C165 1.348 . S
C166 C167 1.442 . S
C166 H188 0.930 . S
C167 C166 1.442 . S
C167 C168 1.381 . S
C167 H189 0.931 . S
C168 C167 1.381 . S
C168 C169 1.321 . S
C169 C168 1.321 . S
C169 C170 1.403 . S
C169 H190 0.934 . S
C170 C165 1.413 . S
C170 C169 1.403 . S
C170 H191 0.930 . S
C171 O182 1.275 . S
C171 O183 1.256 . S
O172 Ho152 2.322 . S
O172 C154 1.259 . S
O173 Ho153 2.346 . S
O173 C154 1.268 . S
O174 Ho152 2.378 . S
O174 C155 1.215 . S
O175 Ho152 2.524 . S
O175 C155 1.289 . S
O176 Ho152 2.381 . S
O176 C162 1.275 . S
O177 Ho152 2.669 . S
O177 Ho153 2.305 . S
O177 C162 1.256 . S
O178 Ho153 2.322 . S
O178 C163 1.259 . S
O179 Ho152 2.346 . S
O179 C163 1.268 . S
O180 Ho153 2.378 . S
O180 C164 1.215 . S
O181 Ho153 2.524 . S
O181 C164 1.289 . S
O182 Ho153 2.381 . S
O182 C171 1.275 . S
O183 Ho152 2.305 . S
O183 Ho153 2.669 . S
O183 C171 1.256 . S
H184 C157 0.930 . S
H185 C158 0.931 . S
H186 C160 0.934 . S
H187 C161 0.930 . S
H188 C166 0.930 . S
H189 C167 0.931 . S
H190 C169 0.934 . S
H191 C170 0.930 . S
Ho192 C195 2.811 . S
Ho192 O212 2.322 . S
Ho192 O214 2.378 . S
Ho192 O215 2.524 . S
Ho192 O216 2.381 . S
Ho192 O217 2.669 1_655 S
Ho192 O219 2.346 1_655 S
Ho192 O223 2.305 . S
Ho193 C204 2.811 . S
Ho193 O213 2.346 1_455 S
Ho193 O217 2.305 . S
Ho193 O218 2.322 . S
Ho193 O220 2.378 . S
Ho193 O221 2.524 . S
Ho193 O222 2.381 . S
Ho193 O223 2.669 1_455 S
C194 O212 1.259 . S
C194 O213 1.268 . S
C195 Ho192 2.811 . S
C195 C196 1.488 . S
C195 O214 1.215 . S
C195 O215 1.289 . S
C196 C195 1.488 . S
C196 C197 1.348 1_556 S
C196 C201 1.413 . S
C197 C196 1.348 1_554 S
C197 C198 1.442 . S
C197 H224 0.930 . S
C198 C197 1.442 . S
C198 C199 1.381 . S
C198 H225 0.931 . S
C199 C198 1.381 . S
C199 C200 1.321 . S
C200 C199 1.321 . S
C200 C201 1.403 1_554 S
C200 H226 0.934 . S
C201 C196 1.413 . S
C201 C200 1.403 1_556 S
C201 H227 0.930 . S
C202 O216 1.281 . S
C202 O217 1.252 1_655 S
C203 O218 1.259 . S
C203 O219 1.268 . S
C204 Ho193 2.811 . S
C204 C205 1.488 . S
C204 O220 1.215 . S
C204 O221 1.289 . S
C205 C204 1.488 . S
C205 C206 1.348 . S
C205 C210 1.413 . S
C206 C205 1.348 . S
C206 C207 1.442 . S
C206 H228 0.930 . S
C207 C206 1.442 . S
C207 C208 1.381 . S
C207 H229 0.931 . S
C208 C207 1.381 . S
C208 C209 1.321 . S
C209 C208 1.321 . S
C209 C210 1.403 . S
C209 H230 0.934 . S
C210 C205 1.413 . S
C210 C209 1.403 . S
C210 H231 0.930 . S
C211 O222 1.286 . S
C211 O223 1.250 1_455 S
O212 Ho192 2.322 . S
O212 C194 1.259 . S
O213 Ho193 2.346 1_655 S
O213 C194 1.268 . S
O214 Ho192 2.378 . S
O214 C195 1.215 . S
O215 Ho192 2.524 . S
O215 C195 1.289 . S
O216 Ho192 2.381 . S
O216 C202 1.281 . S
O217 Ho192 2.669 1_455 S
O217 Ho193 2.305 . S
O217 C202 1.252 1_455 S
O218 Ho193 2.322 . S
O218 C203 1.259 . S
O219 Ho192 2.346 1_455 S
O219 C203 1.268 . S
O220 Ho193 2.378 . S
O220 C204 1.215 . S
O221 Ho193 2.524 . S
O221 C204 1.289 . S
O222 Ho193 2.381 . S
O222 C211 1.286 . S
O223 Ho192 2.305 . S
O223 Ho193 2.669 1_655 S
O223 C211 1.250 1_655 S
H224 C197 0.930 . S
H225 C198 0.931 . S
H226 C200 0.934 . S
H227 C201 0.930 . S
H228 C206 0.930 . S
H229 C207 0.931 . S
H230 C209 0.934 . S
H231 C210 0.930 . S
C232 C233 1.415 . S
C232 C234 1.394 . S
C232 H248 0.931 . S
C233 C232 1.415 . S
C233 C237 1.353 1_545 S
C234 C232 1.394 . S
C234 C235 1.369 . S
C234 C238 1.531 . S
C235 C234 1.369 . S
C235 C236 1.410 1_545 S
C235 C243 1.503 . S
C236 C235 1.410 1_565 S
C236 C237 1.392 . S
C236 C239 1.511 . S
C237 C233 1.353 1_565 S
C237 C236 1.392 . S
C237 H249 0.929 . S
C238 C234 1.531 . S
C238 H250 0.960 . S
C238 H251 0.962 . S
C238 H252 0.960 . S
C239 C236 1.511 . S
C239 H253 0.961 . S
C239 H254 0.961 . S
C239 H255 0.961 . S
C240 C241 1.370 1_565 S
C240 C242 1.363 . S
C240 H256 0.931 . S
C241 C240 1.370 1_545 S
C241 C245 1.408 . S
C242 C240 1.363 . S
C242 C243 1.370 1_565 S
C242 C246 1.524 . S
C243 C235 1.503 . S
C243 C242 1.370 1_545 S
C243 C244 1.403 . S
C244 C243 1.403 . S
C244 C245 1.404 . S
C244 C247 1.539 . S
C245 C241 1.408 . S
C245 C244 1.404 . S
C245 H257 0.930 . S
C246 C242 1.524 . S
C246 H258 0.956 1_565 S
C246 H259 0.961 . S
C246 H260 0.961 . S
C247 C244 1.539 . S
C247 H261 0.958 . S
C247 H262 0.961 . S
C247 H263 0.965 . S
H248 C232 0.931 . S
H249 C237 0.929 . S
H250 C238 0.960 . S
H251 C238 0.962 . S
H252 C238 0.960 . S
H253 C239 0.961 . S
H254 C239 0.961 . S
H255 C239 0.961 . S
H256 C240 0.931 . S
H257 C245 0.930 . S
H258 C246 0.956 1_545 S
H259 C246 0.961 . S
H260 C246 0.961 . S
H261 C247 0.958 . S
H262 C247 0.961 . S
H263 C247 0.965 . S
C264 C265 1.391 . S
C264 C266 1.394 . S
C264 H280 0.931 . S
C265 C264 1.391 . S
C265 C269 1.376 . S
C266 C264 1.394 . S
C266 C267 1.369 . S
C266 C270 1.531 . S
C267 C266 1.369 . S
C267 C268 1.410 . S
C267 C275 1.503 . S
C268 C267 1.410 . S
C268 C269 1.392 . S
C268 C271 1.511 . S
C269 C265 1.376 . S
C269 C268 1.392 . S
C269 H281 0.929 . S
C270 C266 1.531 . S
C270 H282 0.960 . S
C270 H283 0.962 . S
C270 H284 0.960 . S
C271 C268 1.511 . S
C271 H285 0.961 . S
C271 H286 0.961 . S
C271 H287 0.961 . S
C272 C273 1.370 . S
C272 C274 1.363 . S
C272 H288 0.931 . S
C273 C272 1.370 . S
C273 C277 1.408 . S
C274 C272 1.363 . S
C274 C275 1.370 . S
C274 C278 1.524 . S
C275 C267 1.503 . S
C275 C274 1.370 . S
C275 C276 1.403 . S
C276 C275 1.403 . S
C276 C277 1.404 . S
C276 C279 1.539 . S
C277 C273 1.408 . S
C277 C276 1.404 . S
C277 H289 0.930 . S
C278 C274 1.524 . S
C278 H290 0.956 . S
C278 H291 0.961 . S
C278 H292 0.961 . S
C279 C276 1.539 . S
C279 H293 0.958 . S
C279 H294 0.961 . S
C279 H295 0.960 . S
H280 C264 0.931 . S
H281 C269 0.929 . S
H282 C270 0.960 . S
H283 C270 0.962 . S
H284 C270 0.960 . S
H285 C271 0.961 . S
H286 C271 0.961 . S
H287 C271 0.961 . S
H288 C272 0.931 . S
H289 C277 0.930 . S
H290 C278 0.956 . S
H291 C278 0.961 . S
H292 C278 0.961 . S
H293 C279 0.958 . S
H294 C279 0.961 . S
H295 C279 0.960 . S
C296 C297 1.391 . S
C296 C298 1.394 . S
C296 H312 0.931 . S
C297 C296 1.391 . S
C297 C301 1.376 . S
C298 C296 1.394 . S
C298 C299 1.369 . S
C298 C302 1.531 . S
C299 C298 1.369 . S
C299 C300 1.410 . S
C299 C307 1.503 . S
C300 C299 1.410 . S
C300 C301 1.392 . S
C300 C303 1.511 . S
C301 C297 1.376 . S
C301 C300 1.392 . S
C301 H313 0.929 . S
C302 C298 1.531 . S
C302 H314 0.960 . S
C302 H315 0.962 . S
C302 H316 0.960 . S
C303 C300 1.511 . S
C303 H317 0.961 . S
C303 H318 0.961 . S
C303 H319 0.961 . S
C304 C305 1.370 . S
C304 C306 1.363 . S
C304 H320 0.931 . S
C305 C304 1.370 . S
C305 C309 1.408 . S
C306 C304 1.363 . S
C306 C307 1.370 . S
C306 C310 1.524 . S
C307 C299 1.503 . S
C307 C306 1.370 . S
C307 C308 1.403 . S
C308 C307 1.403 . S
C308 C309 1.404 . S
C308 C311 1.539 . S
C309 C305 1.408 . S
C309 C308 1.404 . S
C309 H321 0.930 . S
C310 C306 1.524 . S
C310 H322 0.956 . S
C310 H323 0.961 . S
C310 H324 0.961 . S
C311 C308 1.539 . S
C311 H325 0.958 . S
C311 H326 0.961 . S
C311 H327 0.960 . S
H312 C296 0.931 . S
H313 C301 0.929 . S
H314 C302 0.960 . S
H315 C302 0.962 . S
H316 C302 0.960 . S
H317 C303 0.961 . S
H318 C303 0.961 . S
H319 C303 0.961 . S
H320 C304 0.931 . S
H321 C309 0.930 . S
H322 C310 0.956 . S
H323 C310 0.961 . S
H324 C310 0.961 . S
H325 C311 0.958 . S
H326 C311 0.961 . S
H327 C311 0.960 . S
C328 C329 1.391 . S
C328 C330 1.394 . S
C328 H344 0.931 . S
C329 C328 1.391 . S
C329 C333 1.376 1_455 S
C330 C328 1.394 . S
C330 C331 1.369 . S
C330 C334 1.531 . S
C331 C330 1.369 . S
C331 C332 1.410 . S
C331 C339 1.503 . S
C332 C331 1.410 . S
C332 C333 1.392 1_455 S
C332 C335 1.511 1_455 S
C333 C329 1.376 1_655 S
C333 C332 1.392 1_655 S
C333 H345 0.929 . S
C334 C330 1.531 . S
C334 H346 0.960 . S
C334 H347 0.962 . S
C334 H348 0.960 . S
C335 C332 1.511 1_655 S
C335 H349 0.961 . S
C335 H350 0.961 . S
C335 H351 0.961 1_655 S
C336 C337 1.370 1_655 S
C336 C338 1.363 . S
C336 H352 0.931 . S
C337 C336 1.370 1_455 S
C337 C341 1.408 . S
C338 C336 1.363 . S
C338 C339 1.370 1_655 S
C338 C342 1.524 . S
C339 C331 1.503 . S
C339 C338 1.370 1_455 S
C339 C340 1.403 . S
C340 C339 1.403 . S
C340 C341 1.404 . S
C340 C343 1.539 . S
C341 C337 1.408 . S
C341 C340 1.404 . S
C341 H353 0.930 . S
C342 C338 1.524 . S
C342 H354 0.956 . S
C342 H355 0.961 . S
C342 H356 0.961 . S
C343 C340 1.539 . S
C343 H357 0.958 . S
C343 H358 0.961 . S
C343 H359 0.960 . S
H344 C328 0.931 . S
H345 C333 0.929 . S
H346 C334 0.960 . S
H347 C334 0.962 . S
H348 C334 0.960 . S
H349 C335 0.961 . S
H350 C335 0.961 . S
H351 C335 0.961 1_455 S
H352 C336 0.931 . S
H353 C341 0.930 . S
H354 C342 0.956 . S
H355 C342 0.961 . S
H356 C342 0.961 . S
H357 C343 0.958 . S
H358 C343 0.961 . S
H359 C343 0.960 . S
C360 C361 1.391 . S
C360 C362 1.394 . S
C360 H376 0.931 . S
C361 C360 1.391 . S
C361 C365 1.376 1_545 S
C362 C360 1.394 . S
C362 C363 1.369 . S
C362 C366 1.531 . S
C363 C362 1.369 . S
C363 C364 1.410 1_545 S
C363 C371 1.503 . S
C364 C363 1.410 1_565 S
C364 C365 1.392 . S
C364 C367 1.511 . S
C365 C361 1.376 1_565 S
C365 C364 1.392 . S
C365 H377 0.929 . S
C366 C362 1.531 . S
C366 H378 0.960 . S
C366 H379 0.962 . S
C366 H380 0.960 . S
C367 C364 1.511 . S
C367 H381 0.961 . S
C367 H382 0.961 . S
C367 H383 0.961 . S
C368 C369 1.381 . S
C368 C370 1.363 1_556 S
C368 H384 0.931 . S
C369 C368 1.381 . S
C369 C373 1.396 1_565 S
C370 C368 1.363 1_554 S
C370 C371 1.370 1_565 S
C370 C374 1.524 . S
C371 C363 1.503 . S
C371 C370 1.370 1_545 S
C371 C372 1.403 . S
C372 C371 1.403 . S
C372 C373 1.404 1_554 S
C372 C375 1.539 . S
C373 C369 1.396 1_545 S
C373 C372 1.404 1_556 S
C373 H385 0.930 . S
C374 C370 1.524 . S
C374 H386 0.956 . S
C374 H387 0.961 . S
C374 H388 0.961 . S
C375 C372 1.539 . S
C375 H389 0.958 . S
C375 H390 0.961 . S
C375 H391 0.960 . S
H376 C360 0.931 . S
H377 C365 0.929 . S
H378 C366 0.960 . S
H379 C366 0.962 . S
H380 C366 0.960 . S
H381 C367 0.961 . S
H382 C367 0.961 . S
H383 C367 0.961 . S
H384 C368 0.931 . S
H385 C373 0.930 . S
H386 C374 0.956 . S
H387 C374 0.961 . S
H388 C374 0.961 . S
H389 C375 0.958 . S
H390 C375 0.961 . S
H391 C375 0.960 . S
C392 C393 1.391 . S
C392 C394 1.394 . S
C392 H408 0.931 . S
C393 C392 1.391 . S
C393 C397 1.376 . S
C394 C392 1.394 . S
C394 C395 1.369 . S
C394 C398 1.531 . S
C395 C394 1.369 . S
C395 C396 1.410 . S
C395 C403 1.503 . S
C396 C395 1.410 . S
C396 C397 1.392 . S
C396 C399 1.511 . S
C397 C393 1.376 . S
C397 C396 1.392 . S
C397 H409 0.929 . S
C398 C394 1.531 . S
C398 H410 0.960 . S
C398 H411 0.962 . S
C398 H412 0.960 . S
C399 C396 1.511 . S
C399 H413 0.961 . S
C399 H414 0.961 . S
C399 H415 0.961 . S
C400 C401 1.370 1_554 S
C400 C402 1.363 . S
C400 H416 0.931 . S
C401 C400 1.370 1_556 S
C401 C405 1.408 . S
C402 C400 1.363 . S
C402 C403 1.370 . S
C402 C406 1.524 . S
C403 C395 1.503 . S
C403 C402 1.370 . S
C403 C404 1.403 . S
C404 C403 1.403 . S
C404 C405 1.404 1_554 S
C404 C407 1.539 . S
C405 C401 1.408 . S
C405 C404 1.404 1_556 S
C405 H417 0.930 . S
C406 C402 1.524 . S
C406 H418 0.956 . S
C406 H419 0.961 . S
C406 H420 0.961 . S
C407 C404 1.539 . S
C407 H421 0.958 1_554 S
C407 H422 0.961 1_554 S
C407 H423 0.960 . S
H408 C392 0.931 . S
H409 C397 0.929 . S
H410 C398 0.960 . S
H411 C398 0.962 . S
H412 C398 0.960 . S
H413 C399 0.961 . S
H414 C399 0.961 . S
H415 C399 0.961 . S
H416 C400 0.931 . S
H417 C405 0.930 . S
H418 C406 0.956 . S
H419 C406 0.961 . S
H420 C406 0.961 . S
H421 C407 0.958 1_556 S
H422 C407 0.961 1_556 S
H423 C407 0.960 . S
C424 C425 1.391 . S
C424 C426 1.394 . S
C424 H440 0.931 . S
C425 C424 1.391 . S
C425 C429 1.376 . S
C426 C424 1.394 . S
C426 C427 1.369 . S
C426 C430 1.531 . S
C427 C426 1.369 . S
C427 C428 1.410 . S
C427 C435 1.503 . S
C428 C427 1.410 . S
C428 C429 1.392 . S
C428 C431 1.511 . S
C429 C425 1.376 . S
C429 C428 1.392 . S
C429 H441 0.929 . S
C430 C426 1.531 . S
C430 H442 0.960 . S
C430 H443 0.962 . S
C430 H444 0.960 . S
C431 C428 1.511 . S
C431 H445 0.961 . S
C431 H446 0.961 . S
C431 H447 0.961 . S
C432 C433 1.370 . S
C432 C434 1.363 1_556 S
C432 H448 0.931 . S
C433 C432 1.370 . S
C433 C437 1.408 . S
C434 C432 1.363 1_554 S
C434 C435 1.370 . S
C434 C438 1.524 . S
C435 C427 1.503 . S
C435 C434 1.370 . S
C435 C436 1.403 . S
C436 C435 1.403 . S
C436 C437 1.404 1_554 S
C436 C439 1.539 . S
C437 C433 1.408 . S
C437 C436 1.404 1_556 S
C437 H449 0.930 . S
C438 C434 1.524 . S
C438 H450 0.956 . S
C438 H451 0.961 . S
C438 H452 0.961 . S
C439 C436 1.539 . S
C439 H453 0.958 . S
C439 H454 0.961 . S
C439 H455 0.960 . S
H440 C424 0.931 . S
H441 C429 0.929 . S
H442 C430 0.960 . S
H443 C430 0.962 . S
H444 C430 0.960 . S
H445 C431 0.961 . S
H446 C431 0.961 . S
H447 C431 0.961 . S
H448 C432 0.931 . S
H449 C437 0.930 . S
H450 C438 0.956 . S
H451 C438 0.961 . S
H452 C438 0.961 . S
H453 C439 0.958 . S
H454 C439 0.961 . S
H455 C439 0.960 . S
C456 C457 1.391 . S
C456 C458 1.394 . S
C456 H472 0.931 . S
C457 C456 1.391 . S
C457 C461 1.376 1_655 S
C458 C456 1.394 . S
C458 C459 1.369 . S
C458 C462 1.531 . S
C459 C458 1.369 . S
C459 C460 1.410 1_655 S
C459 C467 1.503 . S
C460 C459 1.410 1_455 S
C460 C461 1.392 . S
C460 C463 1.511 . S
C461 C457 1.376 1_455 S
C461 C460 1.392 . S
C461 H473 0.929 . S
C462 C458 1.531 . S
C462 H474 0.960 . S
C462 H475 0.962 . S
C462 H476 0.960 . S
C463 C460 1.511 . S
C463 H477 0.961 . S
C463 H478 0.961 . S
C463 H479 0.961 . S
C464 C465 1.370 1_454 S
C464 C466 1.363 . S
C464 H480 0.931 . S
C465 C464 1.370 1_656 S
C465 C469 1.408 . S
C466 C464 1.363 . S
C466 C467 1.370 1_455 S
C466 C470 1.524 . S
C467 C459 1.503 . S
C467 C466 1.370 1_655 S
C467 C468 1.403 . S
C468 C467 1.403 . S
C468 C469 1.404 1_554 S
C468 C471 1.539 . S
C469 C465 1.408 . S
C469 C468 1.404 1_556 S
C469 H481 0.930 . S
C470 C466 1.524 . S
C470 H482 0.956 . S
C470 H483 0.961 . S
C470 H484 0.961 . S
C471 C468 1.539 . S
C471 H485 0.958 . S
C471 H486 0.961 1_554 S
C471 H487 0.960 . S
H472 C456 0.931 . S
H473 C461 0.929 . S
H474 C462 0.960 . S
H475 C462 0.962 . S
H476 C462 0.960 . S
H477 C463 0.961 . S
H478 C463 0.961 . S
H479 C463 0.961 . S
H480 C464 0.931 . S
H481 C469 0.930 . S
H482 C470 0.956 . S
H483 C470 0.961 . S
H484 C470 0.961 . S
H485 C471 0.958 . S
H486 C471 0.961 1_556 S
H487 C471 0.960 . S
C488 C489 1.388 1_655 S
C488 C490 1.394 . S
C488 H504 0.931 . S
C489 C488 1.388 1_455 S
C489 C493 1.376 1_455 S
C490 C488 1.394 . S
C490 C491 1.369 . S
C490 C494 1.531 . S
C491 C490 1.369 . S
C491 C492 1.410 . S
C491 C499 1.503 . S
C492 C491 1.410 . S
C492 C493 1.394 . S
C492 C495 1.511 . S
C493 C489 1.376 1_655 S
C493 C492 1.394 . S
C493 H505 0.927 1_655 S
C494 C490 1.531 . S
C494 H506 0.960 . S
C494 H507 0.962 . S
C494 H508 0.960 . S
C495 C492 1.511 . S
C495 H509 0.961 1_655 S
C495 H510 0.961 . S
C495 H511 0.961 . S
C496 C497 1.370 . S
C496 C498 1.363 . S
C496 H512 0.931 . S
C497 C496 1.370 . S
C497 C501 1.408 . S
C498 C496 1.363 . S
C498 C499 1.370 . S
C498 C502 1.524 1_655 S
C499 C491 1.503 . S
C499 C498 1.370 . S
C499 C500 1.403 . S
C500 C499 1.403 . S
C500 C501 1.404 . S
C500 C503 1.539 . S
C501 C497 1.408 . S
C501 C500 1.404 . S
C501 H513 0.930 . S
C502 C498 1.524 1_455 S
C502 H514 0.956 . S
C502 H515 0.961 . S
C502 H516 0.961 . S
C503 C500 1.539 . S
C503 H517 0.958 . S
C503 H518 0.961 . S
C503 H519 0.960 . S
H504 C488 0.931 . S
H505 C493 0.927 1_455 S
H506 C494 0.960 . S
H507 C494 0.962 . S
H508 C494 0.960 . S
H509 C495 0.961 1_455 S
H510 C495 0.961 . S
H511 C495 0.961 . S
H512 C496 0.931 . S
H513 C501 0.930 . S
H514 C502 0.956 . S
H515 C502 0.961 . S
H516 C502 0.961 . S
H517 C503 0.958 . S
H518 C503 0.961 . S
H519 C503 0.960 . S
C520 C521 1.391 . S
C520 C522 1.394 1_545 S
C520 H536 0.931 . S
C521 C520 1.391 . S
C521 C525 1.376 1_545 S
C522 C520 1.394 1_565 S
C522 C523 1.369 . S
C522 C526 1.531 . S
C523 C522 1.369 . S
C523 C524 1.410 . S
C523 C531 1.503 . S
C524 C523 1.410 . S
C524 C525 1.392 . S
C524 C527 1.511 . S
C525 C521 1.376 1_565 S
C525 C524 1.392 . S
C525 H537 0.929 . S
C526 C522 1.531 . S
C526 H538 0.959 1_565 S
C526 H539 0.965 . S
C526 H540 0.957 1_565 S
C527 C524 1.511 . S
C527 H541 0.961 . S
C527 H542 0.961 . S
C527 H543 0.961 . S
C528 C529 1.370 . S
C528 C530 1.363 . S
C528 H544 0.931 . S
C529 C528 1.370 . S
C529 C533 1.408 . S
C530 C528 1.363 . S
C530 C531 1.370 . S
C530 C534 1.524 . S
C531 C523 1.503 . S
C531 C530 1.370 . S
C531 C532 1.403 . S
C532 C531 1.403 . S
C532 C533 1.404 . S
C532 C535 1.539 1_565 S
C533 C529 1.408 . S
C533 C532 1.404 . S
C533 H545 0.930 . S
C534 C530 1.524 . S
C534 H546 0.956 . S
C534 H547 0.961 . S
C534 H548 0.961 . S
C535 C532 1.539 1_545 S
C535 H549 0.958 . S
C535 H550 0.961 . S
C535 H551 0.960 . S
H536 C520 0.931 . S
H537 C525 0.929 . S
H538 C526 0.959 1_545 S
H539 C526 0.965 . S
H540 C526 0.957 1_545 S
H541 C527 0.961 . S
H542 C527 0.961 . S
H543 C527 0.961 . S
H544 C528 0.931 . S
H545 C533 0.930 . S
H546 C534 0.956 . S
H547 C534 0.961 . S
H548 C534 0.961 . S
H549 C535 0.958 . S
H550 C535 0.961 . S
H551 C535 0.960 . S
C552 C553 1.391 . S
C552 C554 1.394 . S
C552 H568 0.931 . S
C553 C552 1.391 . S
C553 C557 1.376 . S
C554 C552 1.394 . S
C554 C555 1.369 . S
C554 C558 1.531 . S
C555 C554 1.369 . S
C555 C556 1.410 . S
C555 C563 1.503 . S
C556 C555 1.410 . S
C556 C557 1.392 . S
C556 C559 1.511 . S
C557 C553 1.376 . S
C557 C556 1.392 . S
C557 H569 0.929 . S
C558 C554 1.531 . S
C558 H570 0.960 . S
C558 H571 0.962 . S
C558 H572 0.960 . S
C559 C556 1.511 . S
C559 H573 0.961 . S
C559 H574 0.961 . S
C559 H575 0.961 . S
C560 C561 1.370 . S
C560 C562 1.363 . S
C560 H576 0.931 . S
C561 C560 1.370 . S
C561 C565 1.408 . S
C562 C560 1.363 . S
C562 C563 1.370 . S
C562 C566 1.524 . S
C563 C555 1.503 . S
C563 C562 1.370 . S
C563 C564 1.403 . S
C564 C563 1.403 . S
C564 C565 1.404 . S
C564 C567 1.539 . S
C565 C561 1.408 . S
C565 C564 1.404 . S
C565 H577 0.930 . S
C566 C562 1.524 . S
C566 H578 0.956 . S
C566 H579 0.961 . S
C566 H580 0.961 . S
C567 C564 1.539 . S
C567 H581 0.958 . S
C567 H582 0.961 . S
C567 H583 0.960 . S
H568 C552 0.931 . S
H569 C557 0.929 . S
H570 C558 0.960 . S
H571 C558 0.962 . S
H572 C558 0.960 . S
H573 C559 0.961 . S
H574 C559 0.961 . S
H575 C559 0.961 . S
H576 C560 0.931 . S
H577 C565 0.930 . S
H578 C566 0.956 . S
H579 C566 0.961 . S
H580 C566 0.961 . S
H581 C567 0.958 . S
H582 C567 0.961 . S
H583 C567 0.960 . S
C584 C585 1.391 . S
C584 C586 1.394 . S
C584 H600 0.931 . S
C585 C584 1.391 . S
C585 C589 1.376 . S
C586 C584 1.394 . S
C586 C587 1.369 . S
C586 C590 1.531 . S
C587 C586 1.369 . S
C587 C588 1.410 . S
C587 C595 1.503 . S
C588 C587 1.410 . S
C588 C589 1.392 . S
C588 C591 1.511 . S
C589 C585 1.376 . S
C589 C588 1.392 . S
C589 H601 0.929 . S
C590 C586 1.531 . S
C590 H602 0.960 . S
C590 H603 0.962 . S
C590 H604 0.960 . S
C591 C588 1.511 . S
C591 H605 0.961 . S
C591 H606 0.961 . S
C591 H607 0.961 . S
C592 C593 1.370 . S
C592 C594 1.363 . S
C592 H608 0.931 . S
C593 C592 1.370 . S
C593 C597 1.408 . S
C594 C592 1.363 . S
C594 C595 1.370 . S
C594 C598 1.524 . S
C595 C587 1.503 . S
C595 C594 1.370 . S
C595 C596 1.403 . S
C596 C595 1.403 . S
C596 C597 1.404 . S
C596 C599 1.539 . S
C597 C593 1.408 . S
C597 C596 1.404 . S
C597 H609 0.930 . S
C598 C594 1.524 . S
C598 H610 0.956 . S
C598 H611 0.961 . S
C598 H612 0.961 . S
C599 C596 1.539 . S
C599 H613 0.958 . S
C599 H614 0.961 . S
C599 H615 0.960 . S
H600 C584 0.931 . S
H601 C589 0.929 . S
H602 C590 0.960 . S
H603 C590 0.962 . S
H604 C590 0.960 . S
H605 C591 0.961 . S
H606 C591 0.961 . S
H607 C591 0.961 . S
H608 C592 0.931 . S
H609 C597 0.930 . S
H610 C598 0.956 . S
H611 C598 0.961 . S
H612 C598 0.961 . S
H613 C599 0.958 . S
H614 C599 0.961 . S
H615 C599 0.960 . S
C616 C617 1.391 1_455 S
C616 C618 1.394 . S
C616 H632 0.931 . S
C617 C616 1.391 1_655 S
C617 C621 1.376 . S
C618 C616 1.394 . S
C618 C619 1.369 . S
C618 C622 1.531 . S
C619 C618 1.369 . S
C619 C620 1.410 1_455 S
C619 C627 1.503 . S
C620 C619 1.410 1_655 S
C620 C621 1.392 . S
C620 C623 1.511 . S
C621 C617 1.376 . S
C621 C620 1.392 . S
C621 H633 0.929 . S
C622 C618 1.531 . S
C622 H634 0.960 . S
C622 H635 0.962 . S
C622 H636 0.960 . S
C623 C620 1.511 . S
C623 H637 0.961 . S
C623 H638 0.961 . S
C623 H639 0.961 . S
C624 C625 1.370 . S
C624 C626 1.363 . S
C624 H640 0.931 . S
C625 C624 1.370 . S
C625 C629 1.408 . S
C626 C624 1.363 . S
C626 C627 1.370 . S
C626 C630 1.524 . S
C627 C619 1.503 . S
C627 C626 1.370 . S
C627 C628 1.403 . S
C628 C627 1.403 . S
C628 C629 1.404 . S
C628 C631 1.539 . S
C629 C625 1.408 . S
C629 C628 1.404 . S
C629 H641 0.930 1_554 S
C630 C626 1.524 . S
C630 H642 0.956 . S
C630 H643 0.961 . S
C630 H644 0.961 . S
C631 C628 1.539 . S
C631 H645 0.958 1_554 S
C631 H646 0.961 1_454 S
C631 H647 0.960 1_455 S
H632 C616 0.931 . S
H633 C621 0.929 . S
H634 C622 0.960 . S
H635 C622 0.962 . S
H636 C622 0.960 . S
H637 C623 0.961 . S
H638 C623 0.961 . S
H639 C623 0.961 . S
H640 C624 0.931 . S
H641 C629 0.930 1_556 S
H642 C630 0.956 . S
H643 C630 0.961 . S
H644 C630 0.961 . S
H645 C631 0.958 1_556 S
H646 C631 0.961 1_656 S
H647 C631 0.960 1_655 S
C648 C649 1.391 1_545 S
C648 C650 1.394 . S
C648 H664 0.931 . S
C649 C648 1.391 1_565 S
C649 C653 1.376 . S
C650 C648 1.394 . S
C650 C651 1.369 . S
C650 C654 1.531 . S
C651 C650 1.369 . S
C651 C652 1.410 1_545 S
C651 C659 1.503 . S
C652 C651 1.410 1_565 S
C652 C653 1.392 . S
C652 C655 1.511 . S
C653 C649 1.376 . S
C653 C652 1.392 . S
C653 H665 0.929 . S
C654 C650 1.531 . S
C654 H666 0.960 . S
C654 H667 0.962 . S
C654 H668 0.960 . S
C655 C652 1.511 . S
C655 H669 0.961 . S
C655 H670 0.961 . S
C655 H671 0.961 . S
C656 C657 1.370 . S
C656 C658 1.363 . S
C656 H672 0.931 . S
C657 C656 1.370 . S
C657 C661 1.408 . S
C658 C656 1.363 . S
C658 C659 1.370 . S
C658 C662 1.524 . S
C659 C651 1.503 . S
C659 C658 1.370 . S
C659 C660 1.403 . S
C660 C659 1.403 . S
C660 C661 1.404 . S
C660 C663 1.539 1_545 S
C661 C657 1.408 . S
C661 C660 1.404 . S
C661 H673 0.930 1_554 S
C662 C658 1.524 . S
C662 H674 0.956 . S
C662 H675 0.961 . S
C662 H676 0.961 . S
C663 C660 1.539 1_565 S
C663 H677 0.958 1_564 S
C663 H678 0.961 1_554 S
C663 H679 0.960 . S
H664 C648 0.931 . S
H665 C653 0.929 . S
H666 C654 0.960 . S
H667 C654 0.962 . S
H668 C654 0.960 . S
H669 C655 0.961 . S
H670 C655 0.961 . S
H671 C655 0.961 . S
H672 C656 0.931 . S
H673 C661 0.930 1_556 S
H674 C662 0.956 . S
H675 C662 0.961 . S
H676 C662 0.961 . S
H677 C663 0.958 1_546 S
H678 C663 0.961 1_556 S
H679 C663 0.960 . S
C680 C681 1.391 . S
C680 C682 1.394 . S
C680 H696 0.931 . S
C681 C680 1.391 . S
C681 C685 1.376 . S
C682 C680 1.394 . S
C682 C683 1.369 . S
C682 C686 1.531 . S
C683 C682 1.369 . S
C683 C684 1.410 . S
C683 C691 1.503 . S
C684 C683 1.410 . S
C684 C685 1.392 . S
C684 C687 1.511 . S
C685 C681 1.376 . S
C685 C684 1.392 . S
C685 H697 0.929 . S
C686 C682 1.531 . S
C686 H698 0.960 . S
C686 H699 0.962 . S
C686 H700 0.960 . S
C687 C684 1.511 . S
C687 H701 0.961 . S
C687 H702 0.961 . S
C687 H703 0.961 . S
C688 C689 1.370 . S
C688 C690 1.363 . S
C688 H704 0.931 . S
C689 C688 1.370 . S
C689 C693 1.408 . S
C690 C688 1.363 . S
C690 C691 1.370 . S
C690 C694 1.524 . S
C691 C683 1.503 . S
C691 C690 1.370 . S
C691 C692 1.403 . S
C692 C691 1.403 . S
C692 C693 1.404 . S
C692 C695 1.539 . S
C693 C689 1.408 . S
C693 C692 1.404 . S
C693 H705 0.930 1_554 S
C694 C690 1.524 . S
C694 H706 0.956 . S
C694 H707 0.961 . S
C694 H708 0.961 . S
C695 C692 1.539 . S
C695 H709 0.958 1_554 S
C695 H710 0.961 1_554 S
C695 H711 0.960 . S
H696 C680 0.931 . S
H697 C685 0.929 . S
H698 C686 0.960 . S
H699 C686 0.962 . S
H700 C686 0.960 . S
H701 C687 0.961 . S
H702 C687 0.961 . S
H703 C687 0.961 . S
H704 C688 0.931 . S
H705 C693 0.930 1_556 S
H706 C694 0.956 . S
H707 C694 0.961 . S
H708 C694 0.961 . S
H709 C695 0.958 1_556 S
H710 C695 0.961 1_556 S
H711 C695 0.960 . S
C712 C713 1.391 . S
C712 C714 1.394 . S
C712 H728 0.931 . S
C713 C712 1.391 . S
C713 C717 1.376 . S
C714 C712 1.394 . S
C714 C715 1.369 . S
C714 C718 1.531 . S
C715 C714 1.369 . S
C715 C716 1.410 . S
C715 C723 1.503 . S
C716 C715 1.410 . S
C716 C717 1.392 . S
C716 C719 1.511 . S
C717 C713 1.376 . S
C717 C716 1.392 . S
C717 H729 0.929 . S
C718 C714 1.531 . S
C718 H730 0.960 . S
C718 H731 0.962 . S
C718 H732 0.960 . S
C719 C716 1.511 . S
C719 H733 0.961 . S
C719 H734 0.961 . S
C719 H735 0.961 . S
C720 C721 1.370 . S
C720 C722 1.363 . S
C720 H736 0.931 . S
C721 C720 1.370 . S
C721 C725 1.408 . S
C722 C720 1.363 . S
C722 C723 1.370 . S
C722 C726 1.524 . S
C723 C715 1.503 . S
C723 C722 1.370 . S
C723 C724 1.403 . S
C724 C723 1.403 . S
C724 C725 1.404 . S
C724 C727 1.539 . S
C725 C721 1.408 . S
C725 C724 1.404 . S
C725 H737 0.930 . S
C726 C722 1.524 . S
C726 H738 0.956 . S
C726 H739 0.961 . S
C726 H740 0.961 . S
C727 C724 1.539 . S
C727 H741 0.958 . S
C727 H742 0.961 . S
C727 H743 0.960 . S
H728 C712 0.931 . S
H729 C717 0.929 . S
H730 C718 0.960 . S
H731 C718 0.962 . S
H732 C718 0.960 . S
H733 C719 0.961 . S
H734 C719 0.961 . S
H735 C719 0.961 . S
H736 C720 0.931 . S
H737 C725 0.930 . S
H738 C726 0.956 . S
H739 C726 0.961 . S
H740 C726 0.961 . S
H741 C727 0.958 . S
H742 C727 0.961 . S
H743 C727 0.960 . S
C744 C745 1.391 1_655 S
C744 C746 1.394 . S
C744 H760 0.931 . S
C745 C744 1.391 1_455 S
C745 C749 1.376 . S
C746 C744 1.394 . S
C746 C747 1.369 1_655 S
C746 C750 1.531 . S
C747 C746 1.369 1_455 S
C747 C748 1.410 . S
C747 C755 1.503 . S
C748 C747 1.410 . S
C748 C749 1.392 . S
C748 C751 1.511 . S
C749 C745 1.376 . S
C749 C748 1.392 . S
C749 H761 0.929 . S
C750 C746 1.531 . S
C750 H762 0.960 . S
C750 H763 0.962 . S
C750 H764 0.960 . S
C751 C748 1.511 . S
C751 H765 0.961 . S
C751 H766 0.961 . S
C751 H767 0.961 . S
C752 C753 1.370 . S
C752 C754 1.363 . S
C752 H768 0.931 . S
C753 C752 1.370 . S
C753 C757 1.408 . S
C754 C752 1.363 . S
C754 C755 1.370 . S
C754 C758 1.535 . S
C755 C747 1.503 . S
C755 C754 1.370 . S
C755 C756 1.403 . S
C756 C755 1.403 . S
C756 C757 1.404 . S
C756 C759 1.539 . S
C757 C753 1.408 . S
C757 C756 1.404 . S
C757 H769 0.930 . S
C758 C754 1.535 . S
C758 H770 0.953 1_456 S
C758 H771 0.961 . S
C758 H772 0.953 1_556 S
C759 C756 1.539 . S
C759 H773 0.958 1_455 S
C759 H774 0.961 . S
C759 H775 0.960 . S
H760 C744 0.931 . S
H761 C749 0.929 . S
H762 C750 0.960 . S
H763 C750 0.962 . S
H764 C750 0.960 . S
H765 C751 0.961 . S
H766 C751 0.961 . S
H767 C751 0.961 . S
H768 C752 0.931 . S
H769 C757 0.930 . S
H770 C758 0.953 1_654 S
H771 C758 0.961 . S
H772 C758 0.953 1_554 S
H773 C759 0.958 1_655 S
H774 C759 0.961 . S
H775 C759 0.960 . S
C776 C777 1.395 . S
C776 C778 1.394 . S
C776 H792 0.931 1_556 S
C777 C776 1.395 . S
C777 C781 1.372 1_545 S
C778 C776 1.394 . S
C778 C779 1.369 . S
C778 C782 1.531 1_556 S
C779 C778 1.369 . S
C779 C780 1.410 1_545 S
C779 C787 1.503 . S
C780 C779 1.410 1_565 S
C780 C781 1.392 . S
C780 C783 1.511 . S
C781 C777 1.372 1_565 S
C781 C780 1.392 . S
C781 H793 0.929 . S
C782 C778 1.531 1_554 S
C782 H794 0.960 . S
C782 H795 0.962 . S
C782 H796 0.960 . S
C783 C780 1.511 . S
C783 H797 0.961 . S
C783 H798 0.961 . S
C783 H799 0.961 . S
C784 C785 1.370 . S
C784 C786 1.363 . S
C784 H800 0.931 . S
C785 C784 1.370 . S
C785 C789 1.408 1_545 S
C786 C784 1.363 . S
C786 C787 1.370 . S
C786 C790 1.524 . S
C787 C779 1.503 . S
C787 C786 1.370 . S
C787 C788 1.403 1_545 S
C788 C787 1.403 1_565 S
C788 C789 1.404 . S
C788 C791 1.539 . S
C789 C785 1.408 1_565 S
C789 C788 1.404 . S
C789 H801 0.930 . S
C790 C786 1.524 . S
C790 H802 0.956 . S
C790 H803 0.961 . S
C790 H804 0.961 . S
C791 C788 1.539 . S
C791 H805 0.958 . S
C791 H806 0.961 . S
C791 H807 0.960 . S
H792 C776 0.931 1_554 S
H793 C781 0.929 . S
H794 C782 0.960 . S
H795 C782 0.962 . S
H796 C782 0.960 . S
H797 C783 0.961 . S
H798 C783 0.961 . S
H799 C783 0.961 . S
H800 C784 0.931 . S
H801 C789 0.930 . S
H802 C790 0.956 . S
H803 C790 0.961 . S
H804 C790 0.961 . S
H805 C791 0.958 . S
H806 C791 0.961 . S
H807 C791 0.960 . S
C808 C809 1.391 . S
C808 C810 1.394 . S
C808 H824 0.931 . S
C809 C808 1.391 . S
C809 C813 1.376 . S
C810 C808 1.394 . S
C810 C811 1.369 . S
C810 C814 1.531 . S
C811 C810 1.369 . S
C811 C812 1.410 . S
C811 C819 1.503 . S
C812 C811 1.410 . S
C812 C813 1.392 . S
C812 C815 1.511 . S
C813 C809 1.376 . S
C813 C812 1.392 . S
C813 H825 0.929 . S
C814 C810 1.531 . S
C814 H826 0.960 . S
C814 H827 0.962 . S
C814 H828 0.960 . S
C815 C812 1.511 . S
C815 H829 0.961 . S
C815 H830 0.961 . S
C815 H831 0.961 . S
C816 C817 1.370 . S
C816 C818 1.363 . S
C816 H832 0.931 . S
C817 C816 1.370 . S
C817 C821 1.408 . S
C818 C816 1.363 . S
C818 C819 1.370 . S
C818 C822 1.524 . S
C819 C811 1.503 . S
C819 C818 1.370 . S
C819 C820 1.403 . S
C820 C819 1.403 . S
C820 C821 1.404 . S
C820 C823 1.539 . S
C821 C817 1.408 . S
C821 C820 1.404 . S
C821 H833 0.930 . S
C822 C818 1.524 . S
C822 H834 0.956 1_556 S
C822 H835 0.961 . S
C822 H836 0.961 1_556 S
C823 C820 1.539 . S
C823 H837 0.958 . S
C823 H838 0.961 . S
C823 H839 0.960 . S
H824 C808 0.931 . S
H825 C813 0.929 . S
H826 C814 0.960 . S
H827 C814 0.962 . S
H828 C814 0.960 . S
H829 C815 0.961 . S
H830 C815 0.961 . S
H831 C815 0.961 . S
H832 C816 0.931 . S
H833 C821 0.930 . S
H834 C822 0.956 1_554 S
H835 C822 0.961 . S
H836 C822 0.961 1_554 S
H837 C823 0.958 . S
H838 C823 0.961 . S
H839 C823 0.960 . S
C840 C841 1.391 . S
C840 C842 1.394 . S
C840 H856 0.931 . S
C841 C840 1.391 . S
C841 C845 1.376 . S
C842 C840 1.394 . S
C842 C843 1.369 . S
C842 C846 1.531 . S
C843 C842 1.369 . S
C843 C844 1.410 . S
C843 C851 1.503 . S
C844 C843 1.410 . S
C844 C845 1.392 . S
C844 C847 1.511 . S
C845 C841 1.376 . S
C845 C844 1.392 . S
C845 H857 0.929 . S
C846 C842 1.531 . S
C846 H858 0.960 . S
C846 H859 0.962 . S
C846 H860 0.960 . S
C847 C844 1.511 . S
C847 H861 0.961 . S
C847 H862 0.961 . S
C847 H863 0.961 . S
C848 C849 1.370 . S
C848 C850 1.363 . S
C848 H864 0.931 . S
C849 C848 1.370 . S
C849 C853 1.408 . S
C850 C848 1.363 . S
C850 C851 1.370 . S
C850 C854 1.524 . S
C851 C843 1.503 . S
C851 C850 1.370 . S
C851 C852 1.403 . S
C852 C851 1.403 . S
C852 C853 1.404 . S
C852 C855 1.539 . S
C853 C849 1.408 . S
C853 C852 1.404 . S
C853 H865 0.930 . S
C854 C850 1.524 . S
C854 H866 0.956 1_556 S
C854 H867 0.961 . S
C854 H868 0.961 1_556 S
C855 C852 1.539 . S
C855 H869 0.958 . S
C855 H870 0.961 . S
C855 H871 0.960 . S
H856 C840 0.931 . S
H857 C845 0.929 . S
H858 C846 0.960 . S
H859 C846 0.962 . S
H860 C846 0.960 . S
H861 C847 0.961 . S
H862 C847 0.961 . S
H863 C847 0.961 . S
H864 C848 0.931 . S
H865 C853 0.930 . S
H866 C854 0.956 1_554 S
H867 C854 0.961 . S
H868 C854 0.961 1_554 S
H869 C855 0.958 . S
H870 C855 0.961 . S
H871 C855 0.960 . S
C872 C873 1.391 1_455 S
C872 C874 1.394 . S
C872 H888 0.931 . S
C873 C872 1.391 1_655 S
C873 C877 1.376 . S
C874 C872 1.394 . S
C874 C875 1.369 1_455 S
C874 C878 1.531 . S
C875 C874 1.369 1_655 S
C875 C876 1.410 . S
C875 C883 1.503 . S
C876 C875 1.410 . S
C876 C877 1.392 . S
C876 C879 1.511 . S
C877 C873 1.376 . S
C877 C876 1.392 . S
C877 H889 0.929 . S
C878 C874 1.531 . S
C878 H890 0.960 . S
C878 H891 0.962 . S
C878 H892 0.960 . S
C879 C876 1.511 . S
C879 H893 0.961 . S
C879 H894 0.961 . S
C879 H895 0.961 . S
C880 C881 1.370 . S
C880 C882 1.363 . S
C880 H896 0.931 . S
C881 C880 1.370 . S
C881 C885 1.408 . S
C882 C880 1.363 . S
C882 C883 1.370 . S
C882 C886 1.524 . S
C883 C875 1.503 . S
C883 C882 1.370 . S
C883 C884 1.403 . S
C884 C883 1.403 . S
C884 C885 1.404 . S
C884 C887 1.539 . S
C885 C881 1.408 . S
C885 C884 1.404 . S
C885 H897 0.930 . S
C886 C882 1.524 . S
C886 H898 0.956 1_655 S
C886 H899 0.961 . S
C886 H900 0.961 . S
C887 C884 1.539 . S
C887 H901 0.958 1_655 S
C887 H902 0.961 . S
C887 H903 0.960 . S
H888 C872 0.931 . S
H889 C877 0.929 . S
H890 C878 0.960 . S
H891 C878 0.962 . S
H892 C878 0.960 . S
H893 C879 0.961 . S
H894 C879 0.961 . S
H895 C879 0.961 . S
H896 C880 0.931 . S
H897 C885 0.930 . S
H898 C886 0.956 1_455 S
H899 C886 0.961 . S
H900 C886 0.961 . S
H901 C887 0.958 1_455 S
H902 C887 0.961 . S
H903 C887 0.960 . S
C904 C905 1.391 1_565 S
C904 C906 1.394 . S
C904 H920 0.931 . S
C905 C904 1.391 1_545 S
C905 C909 1.376 . S
C906 C904 1.394 . S
C906 C907 1.369 . S
C906 C910 1.531 . S
C907 C906 1.369 . S
C907 C908 1.409 1_565 S
C907 C915 1.506 . S
C908 C907 1.409 1_545 S
C908 C909 1.392 . S
C908 C911 1.511 . S
C909 C905 1.376 . S
C909 C908 1.392 . S
C909 H921 0.929 . S
C910 C906 1.531 . S
C910 H922 0.960 1_565 S
C910 H923 0.962 . S
C910 H924 0.960 1_565 S
C911 C908 1.511 . S
C911 H925 0.961 1_545 S
C911 H926 0.961 1_545 S
C911 H927 0.961 . S
C912 C913 1.370 . S
C912 C914 1.363 . S
C912 H928 0.931 . S
C913 C912 1.370 . S
C913 C917 1.408 1_565 S
C914 C912 1.363 . S
C914 C915 1.370 . S
C914 C918 1.524 . S
C915 C907 1.506 . S
C915 C914 1.370 . S
C915 C916 1.403 1_565 S
C916 C915 1.403 1_545 S
C916 C917 1.404 . S
C916 C919 1.539 . S
C917 C913 1.408 1_545 S
C917 C916 1.404 . S
C917 H929 0.930 . S
C918 C914 1.524 . S
C918 H930 0.956 . S
C918 H931 0.961 . S
C918 H932 0.961 . S
C919 C916 1.539 . S
C919 H933 0.958 . S
C919 H934 0.961 . S
C919 H935 0.960 . S
H920 C904 0.931 . S
H921 C909 0.929 . S
H922 C910 0.960 1_545 S
H923 C910 0.962 . S
H924 C910 0.960 1_545 S
H925 C911 0.961 1_565 S
H926 C911 0.961 1_565 S
H927 C911 0.961 . S
H928 C912 0.931 . S
H929 C917 0.930 . S
H930 C918 0.956 . S
H931 C918 0.961 . S
H932 C918 0.961 . S
H933 C919 0.958 . S
H934 C919 0.961 . S
H935 C919 0.960 . S
C936 C937 1.391 . S
C936 C938 1.394 . S
C936 H952 0.931 . S
C937 C936 1.391 . S
C937 C941 1.376 . S
C938 C936 1.394 . S
C938 C939 1.369 . S
C938 C942 1.531 . S
C939 C938 1.369 . S
C939 C940 1.410 . S
C939 C947 1.503 . S
C940 C939 1.410 . S
C940 C941 1.392 . S
C940 C943 1.511 . S
C941 C937 1.376 . S
C941 C940 1.392 . S
C941 H953 0.929 . S
C942 C938 1.531 . S
C942 H954 0.960 . S
C942 H955 0.962 . S
C942 H956 0.960 . S
C943 C940 1.511 . S
C943 H957 0.961 . S
C943 H958 0.961 . S
C943 H959 0.961 . S
C944 C945 1.370 . S
C944 C946 1.363 . S
C944 H960 0.931 . S
C945 C944 1.370 . S
C945 C949 1.408 . S
C946 C944 1.363 . S
C946 C947 1.370 . S
C946 C950 1.524 . S
C947 C939 1.503 . S
C947 C946 1.370 . S
C947 C948 1.403 . S
C948 C947 1.403 . S
C948 C949 1.404 . S
C948 C951 1.539 . S
C949 C945 1.408 . S
C949 C948 1.404 . S
C949 H961 0.930 . S
C950 C946 1.524 . S
C950 H962 0.956 . S
C950 H963 0.961 . S
C950 H964 0.961 . S
C951 C948 1.539 . S
C951 H965 0.958 . S
C951 H966 0.961 . S
C951 H967 0.960 . S
H952 C936 0.931 . S
H953 C941 0.929 . S
H954 C942 0.960 . S
H955 C942 0.962 . S
H956 C942 0.960 . S
H957 C943 0.961 . S
H958 C943 0.961 . S
H959 C943 0.961 . S
H960 C944 0.931 . S
H961 C949 0.930 . S
H962 C950 0.956 . S
H963 C950 0.961 . S
H964 C950 0.961 . S
H965 C951 0.958 . S
H966 C951 0.961 . S
H967 C951 0.960 . S
C968 C969 1.391 . S
C968 C970 1.394 . S
C968 H984 0.931 . S
C969 C968 1.391 . S
C969 C973 1.376 . S
C970 C968 1.394 . S
C970 C971 1.369 . S
C970 C974 1.531 . S
C971 C970 1.369 . S
C971 C972 1.410 . S
C971 C979 1.503 . S
C972 C971 1.410 . S
C972 C973 1.392 . S
C972 C975 1.511 . S
C973 C969 1.376 . S
C973 C972 1.392 . S
C973 H985 0.929 . S
C974 C970 1.531 . S
C974 H986 0.960 . S
C974 H987 0.962 . S
C974 H988 0.960 . S
C975 C972 1.511 . S
C975 H989 0.961 . S
C975 H990 0.961 . S
C975 H991 0.961 . S
C976 C977 1.370 . S
C976 C978 1.363 . S
C976 H992 0.931 . S
C977 C976 1.370 . S
C977 C981 1.408 . S
C978 C976 1.363 . S
C978 C979 1.370 . S
C978 C982 1.524 . S
C979 C971 1.503 . S
C979 C978 1.370 . S
C979 C980 1.403 . S
C980 C979 1.403 . S
C980 C981 1.404 . S
C980 C983 1.539 . S
C981 C977 1.408 . S
C981 C980 1.404 . S
C981 H993 0.930 . S
C982 C978 1.524 . S
C982 H994 0.956 . S
C982 H995 0.961 . S
C982 H996 0.961 . S
C983 C980 1.539 . S
C983 H997 0.958 . S
C983 H998 0.961 . S
C983 H999 0.960 . S
H984 C968 0.931 . S
H985 C973 0.929 . S
H986 C974 0.960 . S
H987 C974 0.962 . S
H988 C974 0.960 . S
H989 C975 0.961 . S
H990 C975 0.961 . S
H991 C975 0.961 . S
H992 C976 0.931 . S
H993 C981 0.930 . S
H994 C982 0.956 . S
H995 C982 0.961 . S
H996 C982 0.961 . S
H997 C983 0.958 . S
H998 C983 0.961 . S
H999 C983 0.960 . S
C233 C61 1.821 1_545 S
C241 C82 1.927 1_545 S
C273 C122 1.947 . S
C265 C70 1.782 . S
C305 C162 1.947 . S
C297 C43 1.783 . S
C337 C202 1.942 1_455 S
C329 C52 1.806 1_455 S
C369 C91 1.927 1_565 S
C361 C25 1.814 1_545 S
C393 C34 1.788 . S
C401 C131 1.942 . S
C425 C7 1.812 . S
C433 C171 1.954 . S
C457 C16 1.771 . S
C465 C211 1.941 1_655 S
C497 C88 0.552 . S
C489 C50 0.412 1_455 S
C529 C128 0.492 . S
C521 C59 0.562 1_545 S
C561 C168 0.511 . S
C553 C67 0.456 . S
C585 C41 0.549 . S
C593 C208 0.508 . S
C617 C14 0.546 . S
C625 C79 0.503 . S
C657 C119 0.501 . S
C649 C23 0.551 . S
C689 C159 0.504 . S
C681 C31 0.546 . S
C713 C5 0.517 . S
C721 C199 0.490 . S
C745 C49 2.058 1_455 S
C753 C83 2.256 . S
C777 C58 1.970 1_545 S
C785 C123 2.213 . S
C817 C163 2.207 . S
C809 C68 2.004 . S
C849 C203 2.240 . S
C841 C40 2.033 . S
C873 C13 1.980 . S
C881 C74 2.263 . S
C913 C114 2.214 . S
C905 C22 1.988 1_545 S
C945 C154 2.206 . S
C937 C32 2.011 . S
C969 C4 1.965 . S
C977 C194 2.243 . S
