# Generated by pormake.
# Topology ftw, (4,12)-cn, num edge types: 1
# Building blocks:
#     Node 0, Type 0, BuildingBlock: MIFKUJ_clean_linker_1, # of connection points: 4
#     Node 1, Type 0, BuildingBlock: MIFKUJ_clean_linker_1, # of connection points: 4
#     Node 2, Type 0, BuildingBlock: MIFKUJ_clean_linker_1, # of connection points: 4
#     Node 3, Type 1, BuildingBlock: EZIPEK_clean_sbu_0, # of connection points: 12
#     Edge 4, Type (0, 1), BuildingBlock: ZUJKAS_clean_linker_0, # of connection points: 2
#     Edge 5, Type (0, 1), BuildingBlock: ZUJKAS_clean_linker_0, # of connection points: 2
#     Edge 6, Type (0, 1), BuildingBlock: ZUJKAS_clean_linker_0, # of connection points: 2
#     Edge 7, Type (0, 1), BuildingBlock: ZUJKAS_clean_linker_0, # of connection points: 2
#     Edge 8, Type (0, 1), BuildingBlock: ZUJKAS_clean_linker_0, # of connection points: 2
#     Edge 9, Type (0, 1), BuildingBlock: ZUJKAS_clean_linker_0, # of connection points: 2
#     Edge 10, Type (0, 1), BuildingBlock: ZUJKAS_clean_linker_0, # of connection points: 2
#     Edge 11, Type (0, 1), BuildingBlock: ZUJKAS_clean_linker_0, # of connection points: 2
#     Edge 12, Type (0, 1), BuildingBlock: ZUJKAS_clean_linker_0, # of connection points: 2
#     Edge 13, Type (0, 1), BuildingBlock: ZUJKAS_clean_linker_0, # of connection points: 2
#     Edge 14, Type (0, 1), BuildingBlock: ZUJKAS_clean_linker_0, # of connection points: 2
#     Edge 15, Type (0, 1), BuildingBlock: ZUJKAS_clean_linker_0, # of connection points: 2
# Relax obj value: 0.048
# Max RMSD: 0.168
# Mean RMSD: 0.128
data_MOF--net-ftw--node1-EZIPEK_clean_sbu_0--node2-MIFKUJ_clean_linker_1--edge1-ZUJKAS_clean_linker_0
_symmetry_space_group_name_H-M    P1
_symmetry_Int_Tables_number       1
_symmetry_cell_setting            triclinic
loop_
_symmetry_equiv_pos_as_xyz
'x, y, z'
_cell_length_a     33.766678
_cell_length_b     35.690929
_cell_length_c     34.35521
_cell_angle_alpha  89.970104
_cell_angle_beta   89.936783
_cell_angle_gamma 90.055166
loop_
_atom_site_label
_atom_site_type_symbol
_atom_site_fract_x
_atom_site_fract_y
_atom_site_fract_z
_atom_type_partial_charge
H0 H 0.05015 0.57434 0.57836 0.0
H1 H 0.04994 0.62693 0.62375 0.0
H2 H 0.93564 0.66125 0.58016 0.0
H3 H 0.93572 0.60795 0.53517 0.0
H4 H -0.0006 0.51791 0.58067 0.0
H5 H 0.03644 0.61061 0.48466 0.0
H6 H 0.03573 0.66268 0.43813 0.0
H7 H 0.92512 0.6221 0.39128 0.0
H8 H 0.92581 0.57042 0.43781 0.0
H9 H 0.9276 0.46376 0.43669 0.0
H10 H 0.92737 0.41198 0.39091 0.0
H11 H 0.03429 0.36869 0.44344 0.0
H12 H 0.03569 0.42229 0.48768 0.0
H13 H 0.97666 0.5167 0.43848 0.0
H14 H 0.9382 0.4246 0.53527 0.0
H15 H 0.93852 0.37261 0.58194 0.0
H16 H 0.0501 0.41187 0.62782 0.0
H17 H 0.04973 0.46348 0.58121 0.0
C18 C -0.00694 0.58712 0.55309 0.0
C19 C 0.02524 0.59346 0.57815 0.0
C20 C 0.02516 0.62373 0.60405 0.0
C21 C -0.0073 0.64838 0.60584 0.0
C22 C 0.96094 0.64263 0.57992 0.0
C23 C 0.96115 0.61238 0.5538 0.0
C24 C -0.00881 0.55197 0.52962 0.0
C25 C -0.005 0.51757 0.54939 0.0
C26 C 0.98399 0.55163 0.489 0.0
C27 C 0.98115 0.58642 0.46495 0.0
C28 C 0.01153 0.6134 0.46505 0.0
C29 C 0.01118 0.64315 0.43826 0.0
C30 C 0.98062 0.64633 0.41057 0.0
C31 C 0.9495 0.62013 0.41163 0.0
C32 C 0.94976 0.59063 0.43845 0.0
C33 C 0.9816 0.44722 0.46594 0.0
C34 C 0.95095 0.44304 0.43862 0.0
C35 C 0.95067 0.41298 0.4125 0.0
C36 C 0.98086 0.38579 0.41307 0.0
C37 C 0.01082 0.38924 0.44148 0.0
C38 C 0.01131 0.41967 0.4674 0.0
C39 C 0.98432 0.48238 0.48954 0.0
C40 C 0.98084 0.51687 0.46978 0.0
C41 C -0.00843 0.48277 0.53023 0.0
C42 C -0.00601 0.44809 0.5545 0.0
C43 C 0.96319 0.42154 0.55474 0.0
C44 C 0.96334 0.39184 0.5816 0.0
C45 C -0.0059 0.38828 0.60903 0.0
C46 C 0.02555 0.41412 0.60769 0.0
C47 C 0.02548 0.44358 0.58082 0.0
H48 H 0.42505 0.12495 0.44891 0.0
H49 H 0.37317 0.11795 0.39949 0.0
H50 H 0.40769 1.0025 0.38254 0.0
H51 H 0.45818 1.00924 0.43255 0.0
H52 H 0.42623 0.08336 0.51675 0.0
H53 H 0.51445 0.10175 0.40726 0.0
H54 H 0.54701 0.08709 0.34549 0.0
H55 H 0.58606 0.98118 0.39324 0.0
H56 H 0.55161 0.99493 0.4535 0.0
H57 H 0.54786 0.98506 0.55128 0.0
H58 H 0.58812 0.96032 0.6043 0.0
H59 H 0.57997 0.06696 0.66349 0.0
H60 H 0.53881 0.09126 0.61057 0.0
H61 H 0.56627 0.0436 0.50413 0.0
H62 H 0.46666 1.00466 0.59043 0.0
H63 H 0.42415 0.99796 0.64734 0.0
H64 H 0.39686 0.11619 0.6424 0.0
H65 H 0.44092 0.123 0.58613 0.0
C66 C 0.44569 0.06779 0.44388 0.0
C67 C 0.42167 0.09837 0.43406 0.0
C68 C 0.39228 0.09437 0.40583 0.0
C69 C 0.38641 0.05962 0.38748 0.0
C70 C 0.41134 0.02945 0.39659 0.0
C71 C 0.44052 0.03343 0.42476 0.0
C72 C 0.47334 0.06999 0.47691 0.0
C73 C 0.45732 0.07609 0.51397 0.0
C74 C 0.51319 0.05867 0.47323 0.0
C75 C 0.53112 0.04966 0.43511 0.0
C76 C 0.52942 0.0751 0.40403 0.0
C77 C 0.54817 0.06675 0.36886 0.0
C78 C 0.5693 0.03305 0.36449 0.0
C79 C 0.56959 1.00712 0.39527 0.0
C80 C 0.55053 1.01528 0.43011 0.0
C81 C 0.541 0.0401 0.57694 0.0
C82 C 0.55465 1.00301 0.57582 0.0
C83 C 0.57749 0.9889 0.60609 0.0
C84 C 0.58735 1.01178 0.63783 0.0
C85 C 0.5724 0.04854 0.63958 0.0
C86 C 0.54926 0.0626 0.6093 0.0
C87 C 0.51844 0.05483 0.54366 0.0
C88 C 0.53569 0.05259 0.50678 0.0
C89 C 0.479 0.06719 0.54742 0.0
C90 C 0.45737 0.06447 0.58456 0.0
C91 C 0.45259 0.02938 0.60237 0.0
C92 C 0.4279 0.02548 0.63455 0.0
C93 C 0.40706 0.0565 0.64905 0.0
C94 C 0.41294 0.09191 0.63204 0.0
C95 C 0.43786 0.09582 0.59987 0.0
H96 H 0.55657 0.57505 0.94882 0.0
H97 H 0.60056 0.62946 0.94864 0.0
H98 H 0.55657 0.66132 0.06205 0.0
H99 H 0.51324 0.60631 0.06243 0.0
H100 H 0.56012 0.51766 0.99829 0.0
H101 H 0.46167 0.60591 0.95962 0.0
H102 H 0.41775 0.66039 0.95975 0.0
H103 H 0.37371 0.6281 0.07307 0.0
H104 H 0.41833 0.57423 0.07315 0.0
H105 H 0.41913 0.46127 0.07425 0.0
H106 H 0.37387 0.40786 0.07581 0.0
H107 H 0.41701 0.37235 0.9633 0.0
H108 H 0.46224 0.42598 0.96182 0.0
H109 H 0.41572 0.51674 0.02394 0.0
H110 H 0.51452 0.42614 0.06035 0.0
H111 H 0.56028 0.37299 0.05881 0.0
H112 H 0.60336 0.4094 0.94652 0.0
H113 H 0.55753 0.46228 0.9481 0.0
C114 C 0.53157 0.58669 1.00556 0.0
C115 C 0.55613 0.59398 0.97346 0.0
C116 C 0.58103 0.62522 0.97329 0.0
C117 C 0.58207 0.64963 1.00538 0.0
C118 C 0.55667 0.64282 0.03707 0.0
C119 C 0.53164 0.61161 0.03716 0.0
C120 C 0.50825 0.55153 1.00728 0.0
C121 C 0.52837 0.51739 1.00324 0.0
C122 C 0.46716 0.55127 0.01489 0.0
C123 C 0.44341 0.58613 0.01647 0.0
C124 C 0.44314 0.61101 0.98482 0.0
C125 C 0.41776 0.64191 0.98476 0.0
C126 C 0.39217 0.64843 0.01635 0.0
C127 C 0.39336 0.62406 0.04849 0.0
C128 C 0.41864 0.59314 0.04847 0.0
C129 C 0.44413 0.44762 0.01797 0.0
C130 C 0.41917 0.44175 0.0501 0.0
C131 C 0.39321 0.41133 0.05089 0.0
C132 C 0.39164 0.38613 0.01952 0.0
C133 C 0.4178 0.39113 0.98804 0.0
C134 C 0.44371 0.42173 0.9872 0.0
C135 C 0.46759 0.48266 0.01519 0.0
C136 C 0.44746 0.51688 0.019 0.0
C137 C 0.50866 0.48292 1.00708 0.0
C138 C 0.53253 0.44817 1.00429 0.0
C139 C 0.53315 0.42218 0.035 0.0
C140 C 0.55937 0.39187 0.03413 0.0
C141 C 0.58565 0.38727 1.00271 0.0
C142 C 0.58391 0.41257 0.9714 0.0
C143 C 0.55764 0.44269 0.9722 0.0
C144 C -0.01043 0.10839 0.91473 0.0
C145 C 0.98487 0.10726 0.10505 0.0
C146 C -0.00897 0.92615 0.91366 0.0
C147 C 0.9858 0.92508 0.10394 0.0
C148 C 0.08411 0.92627 0.0117 0.0
C149 C 0.0841 0.1073 0.01223 0.0
C150 C 0.89158 0.9265 1.00645 0.0
C151 C 0.89171 0.10742 1.00707 0.0
C152 C 0.88831 1.01339 0.09879 0.0
C153 C 0.07949 1.01626 0.10682 0.0
C154 C 0.89639 1.01362 0.91209 0.0
C155 C 0.08768 0.01892 0.91967 0.0
Eu156 Eu -0.01217 0.08845 1.00979 0.0
O157 O 0.02117 0.05016 0.04554 0.0
O158 O 0.95452 0.05078 0.97324 0.0
Eu159 Eu 0.06177 1.01675 0.01231 0.0
Eu160 Eu 0.91412 1.01699 1.00638 0.0
O161 O 0.02399 0.05049 0.97641 0.0
O162 O 0.95153 0.05038 0.04309 0.0
Eu163 Eu -0.0089 1.01714 0.9356 0.0
Eu164 Eu 0.98479 1.01626 0.08305 0.0
O165 O 0.02427 0.98315 0.97577 0.0
O166 O 0.02119 0.98283 0.04515 0.0
O167 O 0.95186 0.98304 0.04217 0.0
O168 O 0.95482 0.98349 0.97338 0.0
Eu169 Eu -0.01208 0.945 1.0089 0.0
O170 O -0.01068 0.11988 0.95185 0.0
O171 O 0.98602 0.11924 0.06809 0.0
O172 O -0.01146 0.91427 0.95059 0.0
O173 O 0.98653 0.91355 0.06684 0.0
O174 O 0.09546 0.96206 0.01311 0.0
O175 O 0.09545 0.07151 0.01295 0.0
O176 O 0.88036 0.96232 1.00531 0.0
O177 O 0.88033 0.07163 1.00606 0.0
O178 O 0.9251 1.013 0.11288 0.0
O179 O 0.04156 1.01608 0.1176 0.0
O180 O 0.93428 1.01366 0.90115 0.0
O181 O 0.05083 0.01902 0.9057 0.0
O182 O 0.92897 0.91437 1.008 0.0
O183 O 0.04668 0.91423 1.00982 0.0
O184 O 0.92918 0.11943 1.0083 0.0
O185 O 0.04663 0.11932 0.01131 0.0
O186 O 0.984 0.07135 0.11622 0.0
O187 O 0.98522 0.96084 0.11551 0.0
O188 O -0.01011 0.07262 0.90312 0.0
O189 O -0.00685 0.96202 0.90255 0.0
O190 O 0.09754 1.01769 0.95715 0.0
O191 O 0.09274 1.01661 0.07029 0.0
O192 O 0.88315 1.01575 0.94853 0.0
O193 O 0.87831 1.01565 0.06143 0.0
H194 H 0.04586 0.35265 0.37839 0.0
H195 H 0.04685 0.30486 0.32769 0.0
H196 H 0.9192 0.30308 0.32664 0.0
H197 H 0.91786 0.34876 0.3793 0.0
H198 H 0.94517 0.23499 0.32052 0.0
H199 H 0.02892 0.32095 0.21456 0.0
H200 H 0.05587 0.31409 0.25891 0.0
H201 H 0.01011 0.34002 0.2595 0.0
C202 C 0.0179 0.34175 0.36798 0.0
C203 C 0.98174 0.35516 0.38308 0.0
C204 C 0.01854 0.31478 0.33828 0.0
C205 C 0.9831 0.30098 0.32227 0.0
C206 C 0.94703 0.31351 0.33798 0.0
H207 H 0.96666 0.18227 0.09965 0.0
H208 H 0.96521 0.2287 0.15212 0.0
C209 C 0.94634 0.34006 0.368 0.0
C210 C 0.9834 0.27315 0.28965 0.0
H211 H 0.02016 0.25659 0.19836 0.0
C212 C 0.96148 0.23987 0.29377 0.0
C213 C 0.00399 0.27956 0.25424 0.0
C214 C 0.02569 0.31576 0.2463 0.0
C215 C 0.95998 0.21281 0.26399 0.0
C216 C 0.98212 0.2184 0.22937 0.0
C217 C 0.00357 0.25192 0.22498 0.0
C218 C 0.98321 0.19002 0.19732 0.0
C219 C 0.93374 0.17898 0.26969 0.0
C220 C -0.00555 0.15281 0.20483 0.0
C221 C -0.00519 0.12609 0.17497 0.0
C222 C 0.98471 0.13601 0.13656 0.0
C223 C 0.97455 0.17353 0.12882 0.0
C224 C 0.97372 0.20017 0.15887 0.0
H225 H 0.90972 0.18469 0.291 0.0
H226 H 0.92008 0.16994 0.24185 0.0
H227 H 0.95173 0.1555 0.28128 0.0
H228 H 0.0032 0.14436 0.23384 0.0
H229 H 0.00346 0.09768 0.18203 0.0
H230 H 0.58308 0.96688 0.32604 0.0
H231 H 0.63669 0.95444 0.27987 0.0
H232 H 0.66572 0.07213 0.27792 0.0
H233 H 0.61418 0.08455 0.32567 0.0
H234 H 0.65781 0.97882 0.20703 0.0
H235 H 0.7675 0.02408 0.31679 0.0
H236 H 0.7161 1.01606 0.32859 0.0
H237 H 0.73157 0.05996 0.30757 0.0
C238 C 0.60081 0.99013 0.31565 0.0
C239 C 0.59493 0.02658 0.33019 0.0
C240 C 0.6312 0.98298 0.28915 0.0
C241 C 0.65579 1.01224 0.27665 0.0
C242 C 0.64764 0.04908 0.28823 0.0
H243 H 0.81374 0.04006 0.0899 0.0
H244 H 0.75798 0.03252 0.13418 0.0
C245 C 0.6177 0.05619 0.31507 0.0
C246 C 0.69135 1.00437 0.25327 0.0
H247 H 0.79059 0.02118 0.25068 0.0
C248 C 0.68696 0.98758 0.21667 0.0
C249 C 0.72949 1.0145 0.26664 0.0
C250 C 0.73655 0.02923 0.30725 0.0
C251 C 0.71955 0.98315 0.19184 0.0
C252 C 0.75695 0.99693 0.20371 0.0
C253 C 0.76173 1.01125 0.24137 0.0
C254 C 0.79062 0.99992 0.17656 0.0
C255 C 0.71347 0.96414 0.15307 0.0
C256 C 0.82793 0.9856 0.18663 0.0
C257 C 0.86021 0.99071 0.16177 0.0
C258 C 0.85539 1.01001 0.12648 0.0
C259 C 0.81812 0.02465 0.11673 0.0
C260 C 0.78613 0.01998 0.14176 0.0
H261 H 0.68891 0.94344 0.15461 0.0
H262 H 0.70528 0.98545 0.13098 0.0
H263 H 0.74071 0.94955 0.14318 0.0
H264 H 0.83203 0.97046 0.21367 0.0
H265 H 0.88863 0.97894 0.16977 0.0
H266 H 0.96369 0.63808 0.33317 0.0
H267 H 0.96585 0.68548 0.28189 0.0
H268 H 0.00221 0.76843 0.36581 0.0
H269 H 0.00058 0.72087 0.41731 0.0
H270 H 0.92468 0.74905 0.27275 0.0
H271 H 0.08436 0.78398 0.28242 0.0
H272 H 0.06318 0.74388 0.30676 0.0
H273 H 0.05847 0.78991 0.32762 0.0
C274 C 0.97201 0.66644 0.34082 0.0
C275 C 0.98195 0.67562 0.37946 0.0
C276 C 0.97339 0.69353 0.31137 0.0
C277 C 0.98479 0.73052 0.31968 0.0
C278 C -0.00567 0.73992 0.35832 0.0
H279 H -0.00419 0.9352 0.18252 0.0
H280 H -0.00486 0.88787 0.23384 0.0
C281 C -0.00675 0.71271 0.38782 0.0
C282 C 0.9856 0.75921 0.28799 0.0
H283 H 0.04505 0.82313 0.24196 0.0
C284 C 0.9511 0.76507 0.26593 0.0
C285 C 0.02006 0.7802 0.27891 0.0
C286 C 0.05873 0.77399 0.29989 0.0
C287 C 0.94991 0.7916 0.23563 0.0
C288 C 0.98425 0.8127 0.22676 0.0
C289 C 0.01873 0.80696 0.2488 0.0
C290 C 0.98481 0.84121 0.19506 0.0
C291 C 0.91165 0.79742 0.21382 0.0
C292 C 0.97967 0.83074 0.15596 0.0
C293 C 0.98015 0.8578 0.12632 0.0
C294 C 0.98572 0.89598 0.13516 0.0
C295 C -0.00883 0.90621 0.17442 0.0
C296 C -0.00908 0.87913 0.20393 0.0
H297 H 0.88594 0.78516 0.22952 0.0
H298 H 0.90604 0.82773 0.20902 0.0
H299 H 0.91377 0.78371 0.18491 0.0
H300 H 0.97549 0.80156 0.14833 0.0
H301 H 0.97593 0.84875 0.09653 0.0
H302 H 0.36259 0.10539 0.32827 0.0
H303 H 0.30702 0.09517 0.28365 0.0
H304 H 0.27967 0.9911 0.34174 0.0
H305 H 0.3349 1.00112 0.3864 0.0
H306 H 0.28327 0.98556 0.26065 0.0
H307 H 0.18803 0.10342 0.30912 0.0
H308 H 0.23777 0.11692 0.29683 0.0
H309 H 0.22919 0.08631 0.33755 0.0
C310 C 0.34444 0.08055 0.33166 0.0
C311 C 0.35299 0.05399 0.36059 0.0
C312 C 0.3128 0.07479 0.30631 0.0
C313 C 0.28918 0.04263 0.3099 0.0
C314 C 0.29765 1.01609 0.33871 0.0
H315 H 0.0674 1.01122 0.18553 0.0
H316 H 0.1175 1.01375 0.23669 0.0
C317 C 0.32926 0.02177 0.36396 0.0
C318 C 0.25634 0.03597 0.28275 0.0
H319 H 0.16955 0.07294 0.25017 0.0
C320 C 0.25821 1.00445 0.25849 0.0
C321 C 0.22353 0.06039 0.2807 0.0
C322 C 0.21918 0.09348 0.30768 0.0
C323 C 0.22855 0.99735 0.23107 0.0
C324 C 0.19678 0.02285 0.22765 0.0
C325 C 0.19422 0.05366 0.25282 0.0
C326 C 0.16685 0.01914 0.19687 0.0
C327 C 0.23149 0.96274 0.20601 0.0
C328 C 0.17828 0.02155 0.15777 0.0
C329 C 0.1499 0.02009 0.12849 0.0
C330 C 0.10952 1.01656 0.1379 0.0
C331 C 0.09822 1.01401 0.17724 0.0
C332 C 0.12673 1.0154 0.20652 0.0
H333 H 0.25051 0.94104 0.21971 0.0
H334 H 0.20179 0.95051 0.20043 0.0
H335 H 0.24494 0.97036 0.1776 0.0
H336 H 0.20912 0.02529 0.14992 0.0
H337 H 0.1597 0.02234 0.09855 0.0
H338 H 0.05304 0.69477 0.62963 0.0
H339 H 0.0518 0.74158 0.68162 0.0
H340 H 0.92846 0.71753 0.70252 0.0
H341 H 0.92942 0.67074 0.65047 0.0
H342 H 0.94291 0.7925 0.70363 0.0
H343 H 0.05204 0.71989 0.79733 0.0
H344 H 0.0705 0.72954 0.74937 0.0
H345 H 0.0296 0.69774 0.75562 0.0
C346 C 0.02566 0.69928 0.64538 0.0
C347 C -0.0086 0.6787 0.6359 0.0
C348 C 0.02503 0.72603 0.67524 0.0
C349 C -0.00974 0.73262 0.69669 0.0
C350 C 0.95573 0.71289 0.6866 0.0
H351 H 0.98007 0.84986 0.92028 0.0
H352 H 0.97846 0.80327 0.86807 0.0
C353 C 0.95628 0.68623 0.65663 0.0
C354 C -0.01019 0.76015 0.72944 0.0
H355 H 0.03441 0.78188 0.81594 0.0
C356 C 0.96285 0.79009 0.72823 0.0
C357 C 0.0153 0.75676 0.76201 0.0
C358 C 0.04322 0.72406 0.76648 0.0
C359 C 0.96125 0.81705 0.75812 0.0
C360 C -0.01209 0.81454 0.78986 0.0
C361 C 0.01428 0.78415 0.79148 0.0
C362 C -0.01109 0.84308 0.82165 0.0
C363 C 0.93047 0.84758 0.75568 0.0
C364 C -0.00403 0.88101 0.81321 0.0
C365 C -0.00324 0.9078 0.84299 0.0
C366 C -0.00904 0.89732 0.88215 0.0
C367 C 0.98464 0.85914 0.8906 0.0
C368 C 0.9837 0.83237 0.86071 0.0
H369 H 0.90541 0.83938 0.73655 0.0
H370 H 0.91856 0.85461 0.78492 0.0
H371 H 0.94418 0.87317 0.74317 0.0
H372 H 0.00114 0.88996 0.78351 0.0
H373 H 0.00207 0.93676 0.83516 0.0
H374 H 0.393 0.10051 0.71278 0.0
H375 H 0.33986 0.09297 0.7609 0.0
H376 H 0.29931 0.9938 0.70123 0.0
H377 H 0.35192 1.00116 0.65314 0.0
H378 H 0.25798 0.09156 0.74491 0.0
H379 H 0.30845 0.95986 0.81514 0.0
H380 H 0.34061 0.98847 0.78538 0.0
H381 H 0.30546 0.95737 0.76302 0.0
C382 C 0.37283 0.07704 0.71012 0.0
C383 C 0.37673 0.05123 0.67952 0.0
C384 C 0.34267 0.07273 0.73757 0.0
C385 C 0.31623 0.04254 0.73476 0.0
C386 C 0.32009 1.01675 0.7043 0.0
H387 H 0.08371 0.02054 0.83986 0.0
H388 H 0.13904 0.02618 0.79421 0.0
C389 C 0.35017 0.02098 0.67695 0.0
C390 C 0.28329 0.03885 0.76254 0.0
H391 H 0.2429 0.97989 0.82978 0.0
C392 C 0.25471 0.0673 0.76368 0.0
C393 C 0.27946 1.00718 0.78694 0.0
C394 C 0.3103 0.97661 0.78793 0.0
C395 C 0.22185 0.06466 0.78841 0.0
C396 C 0.21744 0.03248 0.81197 0.0
C397 C 0.2463 1.00428 0.81121 0.0
C398 C 0.18396 0.02828 0.83904 0.0
C399 C 0.19249 0.0965 0.78959 0.0
C400 C 0.19127 0.02668 0.87907 0.0
C401 C 0.15996 0.02323 0.90515 0.0
C402 C 0.12069 0.02122 0.8916 0.0
C403 C 0.11354 0.02222 0.85129 0.0
C404 C 0.14503 0.02562 0.82518 0.0
H405 H 0.20473 0.12245 0.77632 0.0
H406 H 0.16558 0.08844 0.77308 0.0
H407 H 0.18348 0.1027 0.82001 0.0
H408 H 0.22124 0.02857 0.89017 0.0
H409 H 0.16671 0.02253 0.93595 0.0
H410 H 0.01226 0.39591 0.68629 0.0
H411 H 0.01085 0.34801 0.73722 0.0
H412 H 0.97053 0.26639 0.65374 0.0
H413 H 0.97241 0.31413 0.60232 0.0
H414 H 0.94464 0.3032 0.76247 0.0
H415 H 0.06845 0.21647 0.70558 0.0
H416 H 0.06037 0.26423 0.69014 0.0
H417 H 0.02983 0.22723 0.67137 0.0
C418 C 0.00351 0.36768 0.67858 0.0
C419 C -0.00718 0.35885 0.64002 0.0
C420 C 0.00245 0.34037 0.70785 0.0
C421 C -0.00895 0.30347 0.69928 0.0
C422 C 0.97997 0.29455 0.66096 0.0
H423 H 0.97823 0.09856 0.83627 0.0
H424 H 0.9774 0.14608 0.78523 0.0
C425 C 0.98075 0.32195 0.63165 0.0
C426 C -0.00958 0.27459 0.73064 0.0
H427 H 0.03402 0.19302 0.76027 0.0
C428 C 0.96421 0.27912 0.76206 0.0
C429 C 0.01589 0.24314 0.73006 0.0
C430 C 0.0455 0.23742 0.69769 0.0
C431 C 0.96231 0.25277 0.79255 0.0
C432 C -0.0119 0.22145 0.79222 0.0
C433 C 0.01427 0.21696 0.76069 0.0
C434 C -0.01182 0.19277 0.82393 0.0
C435 C 0.9319 0.2583 0.82425 0.0
C436 C -0.00507 0.20291 0.86293 0.0
C437 C -0.00484 0.17571 0.89244 0.0
C438 C -0.01079 0.13759 0.88359 0.0
C439 C 0.983 0.12753 0.8444 0.0
C440 C 0.9825 0.15475 0.81502 0.0
H441 H 0.90733 0.27672 0.8145 0.0
H442 H 0.9192 0.23112 0.83388 0.0
H443 H 0.94622 0.27186 0.84966 0.0
H444 H 0.00046 0.23187 0.87056 0.0
H445 H 0.00043 0.18459 0.92212 0.0
H446 H 0.65563 0.97365 0.62416 0.0
H447 H 0.70846 0.96036 0.67045 0.0
H448 H 0.63875 1.00893 0.76279 0.0
H449 H 0.58505 0.02136 0.71681 0.0
H450 H 0.74348 0.02124 0.7084 0.0
H451 H 0.6886 0.91551 0.81398 0.0
H452 H 0.66706 0.92163 0.76625 0.0
H453 H 0.65468 0.9533 0.80505 0.0
C454 C 0.65091 0.98029 0.65457 0.0
C455 C 0.61631 0.9987 0.66694 0.0
C456 C 0.68117 0.97279 0.68088 0.0
C457 C 0.67722 0.98341 0.7199 0.0
C458 C 0.64194 0.99996 0.73283 0.0
H459 H 0.81799 0.03059 0.91708 0.0
H460 H 0.76712 0.01981 0.86807 0.0
C461 C 0.61157 1.00747 0.70651 0.0
C462 C 0.71201 0.9827 0.74554 0.0
H463 H 0.745 0.95172 0.83344 0.0
C464 C 0.74423 1.00556 0.73546 0.0
C465 C 0.71246 0.96235 0.78073 0.0
C466 C 0.679 0.93653 0.79208 0.0
C467 C 0.77634 1.01006 0.76067 0.0
C468 C 0.77633 0.99052 0.79641 0.0
C469 C 0.74471 0.96663 0.80591 0.0
C470 C 0.80751 0.99658 0.82554 0.0
C471 C 0.80894 0.0371 0.74975 0.0
C472 C 0.84698 0.98717 0.81754 0.0
C473 C 0.87627 0.99368 0.84531 0.0
C474 C 0.86626 1.00921 0.8816 0.0
C475 C 0.82662 1.01852 0.88942 0.0
C476 C 0.7975 1.01227 0.86157 0.0
H477 H 0.80025 0.05564 0.72522 0.0
H478 H 0.81724 0.05488 0.77498 0.0
H479 H 0.83554 0.02108 0.74068 0.0
H480 H 0.85502 0.9745 0.79 0.0
H481 H 0.90649 0.98571 0.83871 0.0
H482 H 0.31355 0.39221 0.03854 0.0
H483 H 0.26276 0.34338 0.03651 0.0
H484 H 0.34938 0.26393 0.99552 0.0
H485 H 0.4007 0.31264 0.99796 0.0
H486 H 0.24081 0.29902 0.96798 0.0
H487 H 0.2951 0.21339 0.09242 0.0
H488 H 0.30924 0.26179 0.08566 0.0
H489 H 0.33094 0.22598 0.05587 0.0
C490 C 0.32194 0.36422 0.02957 0.0
C491 C 0.3612 0.35615 0.01873 0.0
C492 C 0.29284 0.33648 0.02818 0.0
C493 C 0.30247 0.30008 0.01622 0.0
C494 C 0.34154 0.29183 1.00524 0.0
H495 H 0.16345 0.09626 1.00074 0.0
H496 H 0.21595 0.14319 1.00013 0.0
C497 C 0.3707 0.31968 1.0064 0.0
C498 C 0.27127 0.27105 0.01467 0.0
H499 H 0.23986 0.19029 0.05801 0.0
C500 C 0.24052 0.2752 0.9876 0.0
C501 C 0.27122 0.24007 0.04027 0.0
C502 C 0.30318 0.23495 0.07045 0.0
C503 C 0.20971 0.24889 0.98521 0.0
C504 C 0.20924 0.21817 0.01128 0.0
C505 C 0.24024 0.21392 0.03814 0.0
C506 C 0.17694 0.19004 0.01117 0.0
C507 C 0.17842 0.25384 0.9543 0.0
C508 C 0.13754 0.20076 0.01798 0.0
C509 C 0.10728 0.17399 0.01818 0.0
C510 C 0.11596 0.1359 0.01207 0.0
C511 C 0.15559 0.12528 1.0057 0.0
C512 C 0.18572 0.15208 1.00529 0.0
H513 H 0.18897 0.2721 0.93021 0.0
H514 H 0.16929 0.22643 0.94192 0.0
H515 H 0.15197 0.26727 0.96742 0.0
H516 H 0.13023 0.22981 0.02351 0.0
H517 H 0.07719 0.18316 0.02351 0.0
H518 H 0.37182 0.69717 0.07455 0.0
H519 H 0.3199 0.74501 0.0732 0.0
H520 H 0.29376 0.71671 0.95392 0.0
H521 H 0.34559 0.66892 0.95501 0.0
H522 H 0.29666 0.79312 0.9667 0.0
H523 H 0.20121 0.72253 0.0761 0.0
H524 H 0.25077 0.73143 0.0926 0.0
H525 H 0.24255 0.69943 0.05301 0.0
C526 C 0.35494 0.70112 0.04808 0.0
C527 C 0.36266 0.67918 0.01495 0.0
C528 C 0.32526 0.72836 0.04737 0.0
C529 C 0.30254 0.73388 0.01368 0.0
C530 C 0.3109 0.71277 0.98025 0.0
H531 H 0.07731 0.85059 0.99902 0.0
H532 H 0.1304 0.80406 0.99831 0.0
C533 C 0.34065 0.68563 0.98087 0.0
C534 C 0.2699 0.76153 0.01323 0.0
H535 H 0.18208 0.78376 0.05674 0.0
C536 C 0.27155 0.79107 0.98631 0.0
C537 C 0.23688 0.75838 0.03842 0.0
C538 C 0.23241 0.72605 0.06643 0.0
C539 C 0.24135 0.81798 0.98435 0.0
C540 C 0.20906 0.81559 0.01052 0.0
C541 C 0.20707 0.78569 0.03697 0.0
C542 C 0.17702 0.84386 0.01095 0.0
C543 C 0.24399 0.84835 0.95386 0.0
C544 C 0.1856 0.88152 0.0189 0.0
C545 C 0.15543 0.90821 0.01921 0.0
C546 C 0.11592 0.89769 0.01196 0.0
C547 C 0.10734 0.85974 1.00471 0.0
C548 C 0.13764 0.83308 1.00426 0.0
H549 H 0.26415 0.84034 0.92968 0.0
H550 H 0.21437 0.85478 0.94156 0.0
H551 H 0.25587 0.87425 0.96737 0.0
H552 H 0.21567 0.89027 0.02509 0.0
H553 H 0.16317 0.93706 0.02533 0.0
H554 H 0.57706 0.31353 0.02354 0.0
H555 H 0.62875 0.26521 0.02573 0.0
H556 H 0.71489 0.34578 0.98574 0.0
H557 H 0.66375 0.39418 0.98391 0.0
H558 H 0.68041 0.24221 0.96037 0.0
H559 H 0.76289 0.29918 0.08724 0.0
H560 H 0.71204 0.31149 0.07709 0.0
H561 H 0.75147 0.33227 0.0494 0.0
C562 C 0.60707 0.32093 0.01544 0.0
C563 C 0.61636 0.35759 1.00348 0.0
C564 C 0.63646 0.29334 0.01656 0.0
C565 C 0.6756 0.30215 1.00628 0.0
C566 C 0.68491 0.33861 0.99419 0.0
H567 H 0.89886 0.18329 0.99583 0.0
H568 H 0.84583 0.22993 0.99505 0.0
C569 C 0.65558 0.36609 0.9928 0.0
C570 C 0.70678 0.27313 1.00743 0.0
H571 H 0.79306 0.24935 0.05273 0.0
C572 C 0.70494 0.24353 0.98069 0.0
C573 C 0.73877 0.27527 0.03382 0.0
C574 C 0.74147 0.30607 0.06377 0.0
C575 C 0.73485 0.21629 0.97906 0.0
C576 C 0.76687 0.21833 1.00555 0.0
C577 C 0.76853 0.24789 0.03243 0.0
C578 C 0.79888 0.18997 1.00599 0.0
C579 C 0.73242 0.18622 0.94828 0.0
C580 C 0.7901 0.15215 0.01298 0.0
C581 C 0.82024 0.12541 0.01323 0.0
C582 C 0.85991 0.13602 1.00696 0.0
C583 C 0.86869 0.17409 1.00071 0.0
C584 C 0.83843 0.2008 1.00024 0.0
H585 H 0.71273 0.1946 0.9239 0.0
H586 H 0.76217 0.17966 0.9363 0.0
H587 H 0.72009 0.1603 0.9614 0.0
H588 H 0.75992 0.14332 0.0185 0.0
H589 H 0.81236 0.09645 0.01868 0.0
H590 H 0.60171 0.6986 0.94707 0.0
H591 H 0.6536 0.74657 0.948 0.0
H592 H 0.68058 0.71843 0.06715 0.0
H593 H 0.62877 0.67052 0.0665 0.0
H594 H 0.67822 0.79495 0.05403 0.0
H595 H 0.77205 0.72325 0.94423 0.0
H596 H 0.72243 0.73241 0.92811 0.0
H597 H 0.73071 0.70052 0.9678 0.0
C598 C 0.61874 0.70264 0.97344 0.0
C599 C 0.61131 0.68066 1.00664 0.0
C600 C 0.64839 0.72996 0.9739 0.0
C601 C 0.67139 0.73552 1.00741 0.0
C602 C 0.66323 0.71446 0.04095 0.0
H603 H 0.8979 0.85082 0.01941 0.0
H604 H 0.84438 0.80462 0.02096 0.0
C605 C 0.6335 0.68724 0.04058 0.0
C606 C 0.70427 0.76298 1.00745 0.0
H607 H 0.79195 0.78439 0.96312 0.0
C608 C 0.70314 0.79264 0.03423 0.0
C609 C 0.73705 0.75948 0.98202 0.0
C610 C 0.74098 0.72702 0.95415 0.0
C611 C 0.73363 0.81934 0.03579 0.0
C612 C 0.76569 0.81659 1.00938 0.0
C613 C 0.76715 0.78657 0.98308 0.0
C614 C 0.798 0.84464 1.00847 0.0
C615 C 0.73155 0.84988 0.0661 0.0
C616 C 0.78968 0.8823 1.00029 0.0
C617 C 0.8201 0.90878 0.99948 0.0
C618 C 0.85958 0.89806 1.00644 0.0
C619 C 0.86789 0.86011 0.0139 0.0
C620 C 0.83735 0.83365 0.01485 0.0
H621 H 0.71153 0.84213 0.09051 0.0
H622 H 0.76134 0.85618 0.07811 0.0
H623 H 0.7198 0.8758 0.05253 0.0
H624 H 0.75964 0.8912 0.99433 0.0
H625 H 0.81254 0.93764 0.99322 0.0
loop_
_geom_bond_atom_site_label_1
_geom_bond_atom_site_label_2
_geom_bond_distance
_geom_bond_site_symmetry_2
_ccdc_geom_bond_type
H0 C19 0.949 . S
H1 C20 0.950 . S
H2 C22 0.950 . S
H3 C23 0.950 . S
H4 C25 0.950 . S
H5 C28 0.950 . S
H6 C29 0.950 . S
H7 C31 0.951 . S
H8 C32 0.949 . S
H9 C34 0.949 . S
H10 C35 0.950 . S
H11 C37 0.950 . S
H12 C38 0.950 . S
H13 C40 0.950 . S
H14 C43 0.950 . S
H15 C44 0.950 . S
H16 C46 0.951 . S
H17 C47 0.949 . S
C18 C19 1.376 . S
C18 C23 1.386 1_455 S
C18 C24 1.483 . S
C19 H0 0.949 . S
C19 C18 1.376 . S
C19 C20 1.397 . S
C20 H1 0.950 . S
C20 C19 1.397 . S
C20 C21 1.391 . S
C21 C20 1.391 . S
C21 C22 1.405 1_455 S
C22 H2 0.950 . S
C22 C21 1.405 1_655 S
C22 C23 1.367 . S
C23 H3 0.950 . S
C23 C18 1.386 1_655 S
C23 C22 1.367 . S
C24 C18 1.483 . S
C24 C25 1.382 . S
C24 C26 1.403 1_455 S
C25 H4 0.950 . S
C25 C24 1.382 . S
C25 C41 1.411 . S
C26 C24 1.403 1_655 S
C26 C27 1.489 . S
C26 C40 1.411 . S
C27 C26 1.489 . S
C27 C28 1.383 1_655 S
C27 C32 1.382 . S
C28 H5 0.950 . S
C28 C27 1.383 1_455 S
C28 C29 1.395 . S
C29 H6 0.950 . S
C29 C28 1.395 . S
C29 C30 1.288 1_455 S
C30 C29 1.288 1_655 S
C30 C31 1.392 . S
C31 H7 0.951 . S
C31 C30 1.392 . S
C31 C32 1.392 . S
C32 H8 0.949 . S
C32 C27 1.382 . S
C32 C31 1.392 . S
C33 C34 1.376 . S
C33 C38 1.386 1_655 S
C33 C39 1.483 . S
C34 H9 0.949 . S
C34 C33 1.376 . S
C34 C35 1.397 . S
C35 H10 0.950 . S
C35 C34 1.397 . S
C35 C36 1.391 . S
C36 C35 1.391 . S
C36 C37 1.405 1_655 S
C37 H11 0.950 . S
C37 C36 1.405 1_455 S
C37 C38 1.367 . S
C38 H12 0.950 . S
C38 C33 1.386 1_455 S
C38 C37 1.367 . S
C39 C33 1.483 . S
C39 C40 1.382 . S
C39 C41 1.403 1_655 S
C40 H13 0.950 . S
C40 C26 1.411 . S
C40 C39 1.382 . S
C41 C25 1.411 . S
C41 C39 1.403 1_455 S
C41 C42 1.489 . S
C42 C41 1.489 . S
C42 C43 1.383 1_455 S
C42 C47 1.382 . S
C43 H14 0.950 . S
C43 C42 1.383 1_655 S
C43 C44 1.395 . S
C44 H15 0.950 . S
C44 C43 1.395 . S
C44 C45 1.288 1_655 S
C45 C44 1.288 1_455 S
C45 C46 1.392 . S
C46 H16 0.951 . S
C46 C45 1.392 . S
C46 C47 1.392 . S
C47 H17 0.949 . S
C47 C42 1.382 . S
C47 C46 1.392 . S
H48 C67 0.949 . S
H49 C68 0.950 . S
H50 C70 0.950 . S
H51 C71 0.950 . S
H52 C73 0.950 . S
H53 C76 0.950 . S
H54 C77 0.950 . S
H55 C79 0.951 . S
H56 C80 0.949 . S
H57 C82 0.949 . S
H58 C83 0.950 . S
H59 C85 0.950 . S
H60 C86 0.950 . S
H61 C88 0.950 . S
H62 C91 0.950 . S
H63 C92 0.950 . S
H64 C94 0.951 . S
H65 C95 0.949 . S
C66 C67 1.376 . S
C66 C71 1.386 1_545 S
C66 C72 1.483 . S
C67 H48 0.949 . S
C67 C66 1.376 . S
C67 C68 1.397 . S
C68 H49 0.950 . S
C68 C67 1.397 . S
C68 C69 1.391 . S
C69 C68 1.391 . S
C69 C70 1.405 1_545 S
C70 H50 0.950 . S
C70 C69 1.405 1_565 S
C70 C71 1.367 . S
C71 H51 0.950 . S
C71 C66 1.386 1_565 S
C71 C70 1.367 . S
C72 C66 1.483 . S
C72 C73 1.382 . S
C72 C74 1.403 1_545 S
C73 H52 0.950 . S
C73 C72 1.382 . S
C73 C89 1.411 . S
C74 C72 1.403 1_565 S
C74 C75 1.489 . S
C74 C88 1.411 . S
C75 C74 1.489 . S
C75 C76 1.383 1_565 S
C75 C80 1.382 . S
C76 H53 0.950 . S
C76 C75 1.383 1_545 S
C76 C77 1.395 . S
C77 H54 0.950 . S
C77 C76 1.395 . S
C77 C78 1.288 1_545 S
C78 C77 1.288 1_565 S
C78 C79 1.392 . S
C79 H55 0.951 . S
C79 C78 1.392 . S
C79 C80 1.392 . S
C80 H56 0.949 . S
C80 C75 1.382 . S
C80 C79 1.392 . S
C81 C82 1.376 . S
C81 C86 1.386 1_565 S
C81 C87 1.483 . S
C82 H57 0.949 . S
C82 C81 1.376 . S
C82 C83 1.397 . S
C83 H58 0.950 . S
C83 C82 1.397 . S
C83 C84 1.391 . S
C84 C83 1.391 . S
C84 C85 1.405 1_565 S
C85 H59 0.950 . S
C85 C84 1.405 1_545 S
C85 C86 1.367 . S
C86 H60 0.950 . S
C86 C81 1.386 1_545 S
C86 C85 1.367 . S
C87 C81 1.483 . S
C87 C88 1.382 . S
C87 C89 1.403 1_565 S
C88 H61 0.950 . S
C88 C74 1.411 . S
C88 C87 1.382 . S
C89 C73 1.411 . S
C89 C87 1.403 1_545 S
C89 C90 1.489 . S
C90 C89 1.489 . S
C90 C91 1.383 1_545 S
C90 C95 1.382 . S
C91 H62 0.950 . S
C91 C90 1.383 1_565 S
C91 C92 1.395 . S
C92 H63 0.950 . S
C92 C91 1.395 . S
C92 C93 1.288 1_565 S
C93 C92 1.288 1_545 S
C93 C94 1.392 . S
C94 H64 0.951 . S
C94 C93 1.392 . S
C94 C95 1.392 . S
C95 H65 0.949 . S
C95 C90 1.382 . S
C95 C94 1.392 . S
H96 C115 0.949 . S
H97 C116 0.950 . S
H98 C118 0.950 . S
H99 C119 0.950 . S
H100 C121 0.950 . S
H101 C124 0.950 . S
H102 C125 0.950 . S
H103 C127 0.951 . S
H104 C128 0.949 . S
H105 C130 0.949 . S
H106 C131 0.950 . S
H107 C133 0.950 . S
H108 C134 0.950 . S
H109 C136 0.950 . S
H110 C139 0.950 . S
H111 C140 0.950 . S
H112 C142 0.951 . S
H113 C143 0.949 . S
C114 C115 1.376 . S
C114 C119 1.386 1_556 S
C114 C120 1.483 . S
C115 H96 0.949 . S
C115 C114 1.376 . S
C115 C116 1.397 . S
C116 H97 0.950 . S
C116 C115 1.397 . S
C116 C117 1.391 . S
C117 C116 1.391 . S
C117 C118 1.405 1_556 S
C118 H98 0.950 . S
C118 C117 1.405 1_554 S
C118 C119 1.367 . S
C119 H99 0.950 . S
C119 C114 1.386 1_554 S
C119 C118 1.367 . S
C120 C114 1.483 . S
C120 C121 1.382 . S
C120 C122 1.403 1_556 S
C121 H100 0.950 . S
C121 C120 1.382 . S
C121 C137 1.411 . S
C122 C120 1.403 1_554 S
C122 C123 1.489 . S
C122 C136 1.411 . S
C123 C122 1.489 . S
C123 C124 1.383 1_554 S
C123 C128 1.382 . S
C124 H101 0.950 . S
C124 C123 1.383 1_556 S
C124 C125 1.395 . S
C125 H102 0.950 . S
C125 C124 1.395 . S
C125 C126 1.288 1_556 S
C126 C125 1.288 1_554 S
C126 C127 1.392 . S
C127 H103 0.951 . S
C127 C126 1.392 . S
C127 C128 1.392 . S
C128 H104 0.949 . S
C128 C123 1.382 . S
C128 C127 1.392 . S
C129 C130 1.376 . S
C129 C134 1.386 1_554 S
C129 C135 1.483 . S
C130 H105 0.949 . S
C130 C129 1.376 . S
C130 C131 1.397 . S
C131 H106 0.950 . S
C131 C130 1.397 . S
C131 C132 1.391 . S
C132 C131 1.391 . S
C132 C133 1.405 1_554 S
C133 H107 0.950 . S
C133 C132 1.405 1_556 S
C133 C134 1.367 . S
C134 H108 0.950 . S
C134 C129 1.386 1_556 S
C134 C133 1.367 . S
C135 C129 1.483 . S
C135 C136 1.382 . S
C135 C137 1.403 1_554 S
C136 H109 0.950 . S
C136 C122 1.411 . S
C136 C135 1.382 . S
C137 C121 1.411 . S
C137 C135 1.403 1_556 S
C137 C138 1.489 . S
C138 C137 1.489 . S
C138 C139 1.383 1_556 S
C138 C143 1.382 . S
C139 H110 0.950 . S
C139 C138 1.383 1_554 S
C139 C140 1.395 . S
C140 H111 0.950 . S
C140 C139 1.395 . S
C140 C141 1.288 1_554 S
C141 C140 1.288 1_556 S
C141 C142 1.392 . S
C142 H112 0.951 . S
C142 C141 1.392 . S
C142 C143 1.392 . S
C143 H113 0.949 . S
C143 C138 1.382 . S
C143 C142 1.392 . S
C144 O170 1.283 . S
C144 O188 1.283 . S
C145 O171 1.283 . S
C145 O186 1.283 . S
C146 O172 1.283 . S
C146 O189 1.283 . S
C147 O173 1.283 . S
C147 O187 1.283 . S
C148 O174 1.283 . S
C148 O183 1.283 . S
C149 O175 1.283 . S
C149 O185 1.283 . S
C150 O176 1.283 . S
C150 O182 1.283 . S
C151 O177 1.283 . S
C151 O184 1.283 . S
C152 O178 1.283 . S
C152 O193 1.283 . S
C153 O179 1.283 . S
C153 O191 1.283 . S
C154 O180 1.283 . S
C154 O192 1.283 . S
C155 O181 1.283 . S
C155 O190 1.283 . S
Eu156 O157 2.370 . S
Eu156 O158 2.370 1_454 S
Eu156 O161 2.370 1_554 S
Eu156 O162 2.370 1_455 S
Eu156 O170 2.363 1_554 S
Eu156 O171 2.363 . S
Eu156 O184 2.363 1_455 S
Eu156 O185 2.363 . S
O157 Eu156 2.370 . S
O157 Eu159 2.371 . S
O157 Eu164 2.371 . S
O158 Eu156 2.370 1_656 S
O158 Eu160 2.370 1_556 S
O158 Eu163 2.370 1_655 S
Eu159 O157 2.371 . S
Eu159 O161 2.370 1_554 S
Eu159 O165 2.370 1_544 S
Eu159 O166 2.370 1_545 S
Eu159 O174 2.363 1_545 S
Eu159 O175 2.363 . S
Eu159 O190 2.363 1_554 S
Eu159 O191 2.363 . S
Eu160 O158 2.370 1_554 S
Eu160 O162 2.370 . S
Eu160 O167 2.370 1_545 S
Eu160 O168 2.371 1_544 S
Eu160 O176 2.363 1_545 S
Eu160 O177 2.363 . S
Eu160 O192 2.363 1_554 S
Eu160 O193 2.363 . S
O161 Eu156 2.370 1_556 S
O161 Eu159 2.370 1_556 S
O161 Eu163 2.370 . S
O162 Eu156 2.370 1_655 S
O162 Eu160 2.370 . S
O162 Eu164 2.370 1_655 S
Eu163 O158 2.370 1_455 S
Eu163 O161 2.370 . S
Eu163 O165 2.370 1_545 S
Eu163 O168 2.371 1_445 S
Eu163 O180 2.363 1_455 S
Eu163 O181 2.363 . S
Eu163 O188 2.363 . S
Eu163 O189 2.363 1_545 S
Eu164 O157 2.371 . S
Eu164 O162 2.370 1_455 S
Eu164 O166 2.370 1_545 S
Eu164 O167 2.370 1_445 S
Eu164 O178 2.363 1_455 S
Eu164 O179 2.363 . S
Eu164 O186 2.363 . S
Eu164 O187 2.363 1_545 S
O165 Eu159 2.370 1_566 S
O165 Eu163 2.370 1_565 S
O165 Eu169 2.370 1_556 S
O166 Eu159 2.370 1_565 S
O166 Eu164 2.370 1_565 S
O166 Eu169 2.370 . S
O167 Eu160 2.370 1_565 S
O167 Eu164 2.370 1_665 S
O167 Eu169 2.370 1_655 S
O168 Eu160 2.371 1_566 S
O168 Eu163 2.371 1_665 S
O168 Eu169 2.370 1_656 S
Eu169 O165 2.370 1_554 S
Eu169 O166 2.370 . S
Eu169 O167 2.370 1_455 S
Eu169 O168 2.370 1_454 S
Eu169 O172 2.363 1_554 S
Eu169 O173 2.363 . S
Eu169 O182 2.363 1_455 S
Eu169 O183 2.363 . S
O170 C144 1.283 . S
O170 Eu156 2.363 1_556 S
O171 C145 1.283 . S
O171 Eu156 2.363 . S
O172 C146 1.283 . S
O172 Eu169 2.363 1_556 S
O173 C147 1.283 . S
O173 Eu169 2.363 . S
O174 C148 1.283 . S
O174 Eu159 2.363 1_565 S
O175 C149 1.283 . S
O175 Eu159 2.363 . S
O176 C150 1.283 . S
O176 Eu160 2.363 1_565 S
O177 C151 1.283 . S
O177 Eu160 2.363 . S
O178 C152 1.283 . S
O178 Eu164 2.363 1_655 S
O179 C153 1.283 . S
O179 Eu164 2.363 . S
O180 C154 1.283 . S
O180 Eu163 2.363 1_655 S
O181 C155 1.283 . S
O181 Eu163 2.363 . S
O182 C150 1.283 . S
O182 Eu169 2.363 1_655 S
O183 C148 1.283 . S
O183 Eu169 2.363 . S
O184 C151 1.283 . S
O184 Eu156 2.363 1_655 S
O185 C149 1.283 . S
O185 Eu156 2.363 . S
O186 C145 1.283 . S
O186 Eu164 2.363 . S
O187 C147 1.283 . S
O187 Eu164 2.363 1_565 S
O188 C144 1.283 . S
O188 Eu163 2.363 . S
O189 C146 1.283 . S
O189 Eu163 2.363 1_565 S
O190 C155 1.283 . S
O190 Eu159 2.363 1_556 S
O191 C153 1.283 . S
O191 Eu159 2.363 . S
O192 C154 1.283 . S
O192 Eu160 2.363 1_556 S
O193 C152 1.283 . S
O193 Eu160 2.363 . S
H194 C202 0.929 . S
H195 C204 0.930 . S
H196 C206 0.930 . S
H197 C209 0.929 . S
H198 C212 0.930 . S
H199 C214 0.960 . S
H200 C214 0.960 . S
H201 C214 0.960 . S
C202 H194 0.929 . S
C202 C203 1.390 . S
C202 C204 1.384 . S
C203 C202 1.390 . S
C203 C209 1.377 1_455 S
C204 H195 0.930 . S
C204 C202 1.384 . S
C204 C205 1.372 . S
C205 C204 1.372 . S
C205 C206 1.400 1_455 S
C205 C210 1.490 . S
C206 H196 0.930 . S
C206 C205 1.400 1_655 S
C206 C209 1.386 . S
H207 C223 0.930 . S
H208 C224 0.931 . S
C209 H197 0.929 . S
C209 C203 1.377 1_655 S
C209 C206 1.386 . S
C210 C205 1.490 . S
C210 C212 1.395 . S
C210 C213 1.403 1_455 S
H211 C217 0.930 . S
C212 H198 0.930 . S
C212 C210 1.395 . S
C212 C215 1.403 . S
C213 C210 1.403 1_655 S
C213 C214 1.524 . S
C213 C217 1.400 . S
C214 H199 0.960 . S
C214 H200 0.960 . S
C214 H201 0.960 . S
C214 C213 1.524 . S
C215 C212 1.403 . S
C215 C216 1.392 . S
C215 C219 1.495 . S
C216 C215 1.392 . S
C216 C217 1.385 1_455 S
C216 C218 1.478 . S
C217 H211 0.930 . S
C217 C213 1.400 . S
C217 C216 1.385 1_655 S
C218 C216 1.478 . S
C218 C220 1.381 . S
C218 C224 1.383 1_455 S
C219 C215 1.495 . S
C219 H225 0.959 . S
C219 H226 0.961 . S
C219 H227 0.960 . S
C220 C218 1.381 . S
C220 C221 1.394 . S
C220 H228 0.930 . S
C221 C220 1.394 . S
C221 C222 1.383 . S
C221 H229 0.929 . S
C222 C221 1.383 . S
C222 C223 1.377 1_455 S
C223 H207 0.930 . S
C223 C222 1.377 1_655 S
C223 C224 1.379 . S
C224 H208 0.931 . S
C224 C218 1.383 1_655 S
C224 C223 1.379 . S
H225 C219 0.959 . S
H226 C219 0.961 . S
H227 C219 0.960 . S
H228 C220 0.930 . S
H229 C221 0.929 . S
H230 C238 0.929 . S
H231 C240 0.930 . S
H232 C242 0.930 . S
H233 C245 0.929 . S
H234 C248 0.930 . S
H235 C250 0.960 . S
H236 C250 0.960 . S
H237 C250 0.960 . S
C238 H230 0.929 . S
C238 C239 1.380 . S
C238 C240 1.384 . S
C239 C238 1.380 . S
C239 C245 1.387 1_565 S
C240 H231 0.930 . S
C240 C238 1.384 . S
C240 C241 1.372 . S
C241 C240 1.372 . S
C241 C242 1.400 1_565 S
C241 C246 1.490 . S
C242 H232 0.930 . S
C242 C241 1.400 1_545 S
C242 C245 1.386 . S
H243 C259 0.930 . S
H244 C260 0.931 . S
C245 H233 0.929 . S
C245 C239 1.387 1_545 S
C245 C242 1.386 . S
C246 C241 1.490 . S
C246 C248 1.395 . S
C246 C249 1.403 1_565 S
H247 C253 0.930 . S
C248 H234 0.930 . S
C248 C246 1.395 . S
C248 C251 1.403 . S
C249 C246 1.403 1_545 S
C249 C250 1.524 . S
C249 C253 1.400 . S
C250 H235 0.960 . S
C250 H236 0.960 . S
C250 H237 0.960 . S
C250 C249 1.524 . S
C251 C248 1.403 . S
C251 C252 1.392 . S
C251 C255 1.495 . S
C252 C251 1.392 . S
C252 C253 1.385 1_565 S
C252 C254 1.478 . S
C253 H247 0.930 . S
C253 C249 1.400 . S
C253 C252 1.385 1_545 S
C254 C252 1.478 . S
C254 C256 1.381 . S
C254 C260 1.383 1_565 S
C255 C251 1.495 . S
C255 H261 0.959 . S
C255 H262 0.961 . S
C255 H263 0.960 . S
C256 C254 1.381 . S
C256 C257 1.394 . S
C256 H264 0.930 . S
C257 C256 1.394 . S
C257 C258 1.383 . S
C257 H265 0.929 . S
C258 C257 1.383 . S
C258 C259 1.377 1_565 S
C259 H243 0.930 . S
C259 C258 1.377 1_545 S
C259 C260 1.379 . S
C260 H244 0.931 . S
C260 C254 1.383 1_545 S
C260 C259 1.379 . S
H261 C255 0.959 . S
H262 C255 0.961 . S
H263 C255 0.960 . S
H264 C256 0.930 . S
H265 C257 0.929 . S
H266 C274 0.929 . S
H267 C276 0.930 . S
H268 C278 0.930 . S
H269 C281 0.929 . S
H270 C284 0.930 . S
H271 C286 0.960 . S
H272 C286 0.960 . S
H273 C286 0.960 . S
C274 H266 0.929 . S
C274 C275 1.374 1_655 S
C274 C276 1.384 . S
C275 C274 1.374 1_455 S
C275 C281 1.393 . S
C276 H267 0.930 . S
C276 C274 1.384 . S
C276 C277 1.385 . S
C277 C276 1.385 . S
C277 C278 1.387 1_655 S
C277 C282 1.491 . S
C278 H268 0.930 . S
C278 C277 1.387 1_455 S
C278 C281 1.386 . S
H279 C295 0.930 . S
H280 C296 0.931 . S
C281 H269 0.929 . S
C281 C275 1.393 . S
C281 C278 1.386 . S
C282 C277 1.491 . S
C282 C284 1.395 . S
C282 C285 1.403 1_655 S
H283 C289 0.930 . S
C284 H270 0.930 . S
C284 C282 1.395 . S
C284 C287 1.403 . S
C285 C282 1.403 1_455 S
C285 C286 1.524 . S
C285 C289 1.400 . S
C286 H271 0.960 . S
C286 H272 0.960 . S
C286 H273 0.960 . S
C286 C285 1.524 . S
C287 C284 1.403 . S
C287 C288 1.392 . S
C287 C291 1.495 . S
C288 C287 1.392 . S
C288 C289 1.385 1_655 S
C288 C290 1.478 . S
C289 H283 0.930 . S
C289 C285 1.400 . S
C289 C288 1.385 1_455 S
C290 C288 1.478 . S
C290 C292 1.381 . S
C290 C296 1.383 1_655 S
C291 C287 1.495 . S
C291 H297 0.959 . S
C291 H298 0.961 . S
C291 H299 0.960 . S
C292 C290 1.381 . S
C292 C293 1.394 . S
C292 H300 0.930 . S
C293 C292 1.394 . S
C293 C294 1.383 . S
C293 H301 0.929 . S
C294 C293 1.383 . S
C294 C295 1.377 1_655 S
C295 H279 0.930 . S
C295 C294 1.377 1_455 S
C295 C296 1.379 . S
C296 H280 0.931 . S
C296 C290 1.383 1_455 S
C296 C295 1.379 . S
H297 C291 0.959 . S
H298 C291 0.961 . S
H299 C291 0.960 . S
H300 C292 0.930 . S
H301 C293 0.929 . S
H302 C310 0.929 . S
H303 C312 0.930 . S
H304 C314 0.930 . S
H305 C317 0.929 . S
H306 C320 0.930 . S
H307 C322 0.960 . S
H308 C322 0.960 . S
H309 C322 0.960 . S
C310 H302 0.929 . S
C310 C311 1.384 . S
C310 C312 1.384 . S
C311 C310 1.384 . S
C311 C317 1.384 1_545 S
C312 H303 0.930 . S
C312 C310 1.384 . S
C312 C313 1.372 . S
C313 C312 1.372 . S
C313 C314 1.400 1_545 S
C313 C318 1.490 . S
C314 H304 0.930 . S
C314 C313 1.400 1_565 S
C314 C317 1.386 . S
H315 C331 0.930 . S
H316 C332 0.931 . S
C317 H305 0.929 . S
C317 C311 1.384 1_565 S
C317 C314 1.386 . S
C318 C313 1.490 . S
C318 C320 1.390 1_545 S
C318 C321 1.407 . S
H319 C325 0.930 . S
C320 H306 0.930 . S
C320 C318 1.390 1_565 S
C320 C323 1.403 . S
C321 C318 1.407 . S
C321 C322 1.524 . S
C321 C325 1.400 . S
C322 H307 0.960 . S
C322 H308 0.960 . S
C322 H309 0.960 . S
C322 C321 1.524 . S
C323 C320 1.403 . S
C323 C324 1.392 . S
C323 C327 1.495 . S
C324 C323 1.392 . S
C324 C325 1.385 1_565 S
C324 C326 1.478 . S
C325 H319 0.930 . S
C325 C321 1.400 . S
C325 C324 1.385 1_545 S
C326 C324 1.478 . S
C326 C328 1.381 1_565 S
C326 C332 1.383 . S
C327 C323 1.495 . S
C327 H333 0.959 . S
C327 H334 0.961 . S
C327 H335 0.960 . S
C328 C326 1.381 1_545 S
C328 C329 1.394 . S
C328 H336 0.930 . S
C329 C328 1.394 . S
C329 C330 1.383 1_545 S
C329 H337 0.929 . S
C330 C329 1.383 1_565 S
C330 C331 1.377 . S
C331 H315 0.930 . S
C331 C330 1.377 . S
C331 C332 1.379 . S
C332 H316 0.931 . S
C332 C326 1.383 . S
C332 C331 1.379 . S
H333 C327 0.959 . S
H334 C327 0.961 . S
H335 C327 0.960 . S
H336 C328 0.930 . S
H337 C329 0.929 . S
H338 C346 0.929 . S
H339 C348 0.930 . S
H340 C350 0.930 . S
H341 C353 0.929 . S
H342 C356 0.930 . S
H343 C358 0.960 . S
H344 C358 0.960 1_455 S
H345 C358 0.960 . S
C346 H338 0.929 . S
C346 C347 1.392 . S
C346 C348 1.384 . S
C347 C346 1.392 . S
C347 C353 1.375 1_455 S
C348 H339 0.930 . S
C348 C346 1.384 . S
C348 C349 1.372 . S
C349 C348 1.372 . S
C349 C350 1.400 1_455 S
C349 C354 1.490 . S
C350 H340 0.930 . S
C350 C349 1.400 1_655 S
C350 C353 1.386 . S
H351 C367 0.930 . S
H352 C368 0.931 . S
C353 H341 0.929 . S
C353 C347 1.375 1_655 S
C353 C350 1.386 . S
C354 C349 1.490 . S
C354 C356 1.395 . S
C354 C357 1.403 1_455 S
H355 C361 0.930 . S
C356 H342 0.930 . S
C356 C354 1.395 . S
C356 C359 1.403 . S
C357 C354 1.403 1_655 S
C357 C358 1.524 . S
C357 C361 1.400 . S
C358 H343 0.960 . S
C358 H344 0.960 1_655 S
C358 H345 0.960 . S
C358 C357 1.524 . S
C359 C356 1.403 . S
C359 C360 1.392 . S
C359 C363 1.495 . S
C360 C359 1.392 . S
C360 C361 1.385 1_455 S
C360 C362 1.478 . S
C361 H355 0.930 . S
C361 C357 1.400 . S
C361 C360 1.385 1_655 S
C362 C360 1.478 . S
C362 C364 1.381 . S
C362 C368 1.383 1_455 S
C363 C359 1.495 . S
C363 H369 0.959 . S
C363 H370 0.961 1_455 S
C363 H371 0.960 . S
C364 C362 1.381 . S
C364 C365 1.394 . S
C364 H372 0.930 . S
C365 C364 1.394 . S
C365 C366 1.383 . S
C365 H373 0.929 . S
C366 C365 1.383 . S
C366 C367 1.377 1_455 S
C367 H351 0.930 . S
C367 C366 1.377 1_655 S
C367 C368 1.379 . S
C368 H352 0.931 . S
C368 C362 1.383 1_655 S
C368 C367 1.379 . S
H369 C363 0.959 . S
H370 C363 0.961 1_655 S
H371 C363 0.960 . S
H372 C364 0.930 . S
H373 C365 0.929 . S
H374 C382 0.929 . S
H375 C384 0.930 . S
H376 C386 0.930 . S
H377 C389 0.929 . S
H378 C392 0.930 . S
H379 C394 0.960 . S
H380 C394 0.960 . S
H381 C394 0.960 . S
C382 H374 0.929 . S
C382 C383 1.381 . S
C382 C384 1.384 . S
C383 C382 1.381 . S
C383 C389 1.386 1_545 S
C384 H375 0.930 . S
C384 C382 1.384 . S
C384 C385 1.372 . S
C385 C384 1.372 . S
C385 C386 1.400 1_545 S
C385 C390 1.490 . S
C386 H376 0.930 . S
C386 C385 1.400 1_565 S
C386 C389 1.386 . S
H387 C403 0.930 . S
H388 C404 0.931 . S
C389 H377 0.929 . S
C389 C383 1.386 1_565 S
C389 C386 1.386 . S
C390 C385 1.490 . S
C390 C392 1.395 . S
C390 C393 1.403 1_545 S
H391 C397 0.930 . S
C392 H378 0.930 . S
C392 C390 1.395 . S
C392 C395 1.403 . S
C393 C390 1.403 1_565 S
C393 C394 1.524 . S
C393 C397 1.400 . S
C394 H379 0.960 . S
C394 H380 0.960 . S
C394 H381 0.960 . S
C394 C393 1.524 . S
C395 C392 1.403 . S
C395 C396 1.392 . S
C395 C399 1.495 . S
C396 C395 1.392 . S
C396 C397 1.385 1_545 S
C396 C398 1.478 . S
C397 H391 0.930 . S
C397 C393 1.400 . S
C397 C396 1.385 1_565 S
C398 C396 1.478 . S
C398 C400 1.381 . S
C398 C404 1.383 1_545 S
C399 C395 1.495 . S
C399 H405 0.959 . S
C399 H406 0.961 . S
C399 H407 0.960 . S
C400 C398 1.381 . S
C400 C401 1.394 . S
C400 H408 0.930 . S
C401 C400 1.394 . S
C401 C402 1.383 . S
C401 H409 0.929 . S
C402 C401 1.383 . S
C402 C403 1.377 1_545 S
C403 H387 0.930 . S
C403 C402 1.377 1_565 S
C403 C404 1.379 . S
C404 H388 0.931 . S
C404 C398 1.383 1_565 S
C404 C403 1.379 . S
H405 C399 0.959 . S
H406 C399 0.961 . S
H407 C399 0.960 . S
H408 C400 0.930 . S
H409 C401 0.929 . S
H410 C418 0.929 . S
H411 C420 0.930 . S
H412 C422 0.930 . S
H413 C425 0.929 . S
H414 C428 0.930 . S
H415 C430 0.960 . S
H416 C430 0.960 . S
H417 C430 0.960 . S
C418 H410 0.929 . S
C418 C419 1.389 . S
C418 C420 1.384 . S
C419 C418 1.389 . S
C419 C425 1.378 1_455 S
C420 H411 0.930 . S
C420 C418 1.384 . S
C420 C421 1.372 . S
C421 C420 1.372 . S
C421 C422 1.400 1_455 S
C421 C426 1.490 . S
C422 H412 0.930 . S
C422 C421 1.400 1_655 S
C422 C425 1.386 . S
H423 C439 0.930 . S
H424 C440 0.931 . S
C425 H413 0.929 . S
C425 C419 1.378 1_655 S
C425 C422 1.386 . S
C426 C421 1.490 . S
C426 C428 1.395 1_455 S
C426 C429 1.403 . S
H427 C433 0.930 . S
C428 H414 0.930 . S
C428 C426 1.395 1_655 S
C428 C431 1.403 . S
C429 C426 1.403 . S
C429 C430 1.524 . S
C429 C433 1.400 . S
C430 H415 0.960 . S
C430 H416 0.960 . S
C430 H417 0.960 . S
C430 C429 1.524 . S
C431 C428 1.403 . S
C431 C432 1.392 . S
C431 C435 1.495 . S
C432 C431 1.392 . S
C432 C433 1.385 1_655 S
C432 C434 1.478 . S
C433 H427 0.930 . S
C433 C429 1.400 . S
C433 C432 1.385 1_455 S
C434 C432 1.478 . S
C434 C436 1.381 1_655 S
C434 C440 1.383 . S
C435 C431 1.495 . S
C435 H441 0.959 . S
C435 H442 0.961 . S
C435 H443 0.960 . S
C436 C434 1.381 1_455 S
C436 C437 1.394 . S
C436 H444 0.930 . S
C437 C436 1.394 . S
C437 C438 1.383 1_455 S
C437 H445 0.929 . S
C438 C437 1.383 1_655 S
C438 C439 1.377 . S
C439 H423 0.930 . S
C439 C438 1.377 . S
C439 C440 1.379 . S
C440 H424 0.931 . S
C440 C434 1.383 . S
C440 C439 1.379 . S
H441 C435 0.959 . S
H442 C435 0.961 . S
H443 C435 0.960 . S
H444 C436 0.930 . S
H445 C437 0.929 . S
H446 C454 0.929 . S
H447 C456 0.930 . S
H448 C458 0.930 . S
H449 C461 0.929 . S
H450 C464 0.930 . S
H451 C466 0.960 . S
H452 C466 0.960 . S
H453 C466 0.960 . S
C454 H446 0.929 . S
C454 C455 1.383 . S
C454 C456 1.384 . S
C455 C454 1.383 . S
C455 C461 1.384 1_565 S
C456 H447 0.930 . S
C456 C454 1.384 . S
C456 C457 1.372 . S
C457 C456 1.372 . S
C457 C458 1.400 1_565 S
C457 C462 1.490 . S
C458 H448 0.930 . S
C458 C457 1.400 1_545 S
C458 C461 1.386 . S
H459 C475 0.930 . S
H460 C476 0.931 . S
C461 H449 0.929 . S
C461 C455 1.384 1_545 S
C461 C458 1.386 . S
C462 C457 1.490 . S
C462 C464 1.388 1_565 S
C462 C465 1.409 . S
H463 C469 0.930 . S
C464 H450 0.930 . S
C464 C462 1.388 1_545 S
C464 C467 1.403 . S
C465 C462 1.409 . S
C465 C466 1.524 . S
C465 C469 1.400 . S
C466 H451 0.960 . S
C466 H452 0.960 . S
C466 H453 0.960 . S
C466 C465 1.524 . S
C467 C464 1.403 . S
C467 C468 1.392 . S
C467 C471 1.495 . S
C468 C467 1.392 . S
C468 C469 1.385 1_545 S
C468 C470 1.478 . S
C469 H463 0.930 . S
C469 C465 1.400 . S
C469 C468 1.385 1_565 S
C470 C468 1.478 . S
C470 C472 1.381 1_545 S
C470 C476 1.383 . S
C471 C467 1.495 . S
C471 H477 0.959 . S
C471 H478 0.961 . S
C471 H479 0.960 . S
C472 C470 1.381 1_565 S
C472 C473 1.394 . S
C472 H480 0.930 . S
C473 C472 1.394 . S
C473 C474 1.383 1_565 S
C473 H481 0.929 . S
C474 C473 1.383 1_545 S
C474 C475 1.377 . S
C475 H459 0.930 . S
C475 C474 1.377 . S
C475 C476 1.379 . S
C476 H460 0.931 . S
C476 C470 1.383 . S
C476 C475 1.379 . S
H477 C471 0.959 . S
H478 C471 0.961 . S
H479 C471 0.960 . S
H480 C472 0.930 . S
H481 C473 0.929 . S
H482 C490 0.929 . S
H483 C492 0.930 . S
H484 C494 0.930 . S
H485 C497 0.929 . S
H486 C500 0.930 . S
H487 C502 0.960 1_556 S
H488 C502 0.960 . S
H489 C502 0.960 1_556 S
C490 H482 0.929 . S
C490 C491 1.392 . S
C490 C492 1.384 . S
C491 C490 1.392 . S
C491 C497 1.375 1_554 S
C492 H483 0.930 . S
C492 C490 1.384 . S
C492 C493 1.372 . S
C493 C492 1.372 . S
C493 C494 1.400 1_554 S
C493 C498 1.490 . S
C494 H484 0.930 . S
C494 C493 1.400 1_556 S
C494 C497 1.386 . S
H495 C511 0.930 . S
H496 C512 0.931 . S
C497 H485 0.929 . S
C497 C491 1.375 1_556 S
C497 C494 1.386 . S
C498 C493 1.490 . S
C498 C500 1.395 . S
C498 C501 1.404 . S
H499 C505 0.930 1_556 S
C500 H486 0.930 . S
C500 C498 1.395 . S
C500 C503 1.403 . S
C501 C498 1.404 . S
C501 C502 1.524 . S
C501 C505 1.400 . S
C502 H487 0.960 1_554 S
C502 H488 0.960 . S
C502 H489 0.960 1_554 S
C502 C501 1.524 . S
C503 C500 1.403 . S
C503 C504 1.392 . S
C503 C507 1.495 . S
C504 C503 1.392 . S
C504 C505 1.385 . S
C504 C506 1.478 . S
C505 H499 0.930 1_554 S
C505 C501 1.400 . S
C505 C504 1.385 . S
C506 C504 1.478 . S
C506 C508 1.394 . S
C506 C512 1.369 1_554 S
C507 C503 1.495 . S
C507 H513 0.959 . S
C507 H514 0.961 1_554 S
C507 H515 0.960 . S
C508 C506 1.394 . S
C508 C509 1.394 . S
C508 H516 0.930 . S
C509 C508 1.394 . S
C509 C510 1.386 1_554 S
C509 H517 0.929 . S
C510 C509 1.386 1_556 S
C510 C511 1.374 . S
C511 H495 0.930 . S
C511 C510 1.374 . S
C511 C512 1.379 . S
C512 H496 0.931 . S
C512 C506 1.369 1_556 S
C512 C511 1.379 . S
H513 C507 0.959 . S
H514 C507 0.961 1_556 S
H515 C507 0.960 . S
H516 C508 0.930 . S
H517 C509 0.929 . S
H518 C526 0.929 . S
H519 C528 0.930 . S
H520 C530 0.930 . S
H521 C533 0.929 . S
H522 C536 0.930 . S
H523 C538 0.960 . S
H524 C538 0.960 . S
H525 C538 0.960 . S
C526 H518 0.929 . S
C526 C527 1.390 . S
C526 C528 1.384 . S
C527 C526 1.390 . S
C527 C533 1.377 1_554 S
C528 H519 0.930 . S
C528 C526 1.384 . S
C528 C529 1.372 . S
C529 C528 1.372 . S
C529 C530 1.400 1_554 S
C529 C534 1.490 . S
C530 H520 0.930 . S
C530 C529 1.400 1_556 S
C530 C533 1.386 . S
H531 C547 0.930 . S
H532 C548 0.931 . S
C533 H521 0.929 . S
C533 C527 1.377 1_556 S
C533 C530 1.386 . S
C534 C529 1.490 . S
C534 C536 1.395 . S
C534 C537 1.403 1_554 S
H535 C541 0.930 . S
C536 H522 0.930 . S
C536 C534 1.395 . S
C536 C539 1.403 . S
C537 C534 1.403 1_556 S
C537 C538 1.524 . S
C537 C541 1.400 . S
C538 H523 0.960 . S
C538 H524 0.960 . S
C538 H525 0.960 . S
C538 C537 1.524 . S
C539 C536 1.403 . S
C539 C540 1.392 . S
C539 C543 1.495 . S
C540 C539 1.392 . S
C540 C541 1.385 1_554 S
C540 C542 1.478 . S
C541 H535 0.930 . S
C541 C537 1.400 . S
C541 C540 1.385 1_556 S
C542 C540 1.478 . S
C542 C544 1.381 . S
C542 C548 1.383 1_554 S
C543 C539 1.495 . S
C543 H549 0.959 . S
C543 H550 0.961 . S
C543 H551 0.960 . S
C544 C542 1.381 . S
C544 C545 1.394 . S
C544 H552 0.930 . S
C545 C544 1.394 . S
C545 C546 1.409 . S
C545 H553 0.929 . S
C546 C545 1.409 . S
C546 C547 1.352 1_554 S
C547 H531 0.930 . S
C547 C546 1.352 1_556 S
C547 C548 1.379 . S
C548 H532 0.931 . S
C548 C542 1.383 1_556 S
C548 C547 1.379 . S
H549 C543 0.959 . S
H550 C543 0.961 . S
H551 C543 0.960 . S
H552 C544 0.930 . S
H553 C545 0.929 . S
H554 C562 0.929 . S
H555 C564 0.930 . S
H556 C566 0.930 . S
H557 C569 0.929 . S
H558 C572 0.930 . S
H559 C574 0.960 . S
H560 C574 0.960 . S
H561 C574 0.958 1_556 S
C562 H554 0.929 . S
C562 C563 1.391 . S
C562 C564 1.384 . S
C563 C562 1.391 . S
C563 C569 1.377 1_554 S
C564 H555 0.930 . S
C564 C562 1.384 . S
C564 C565 1.372 . S
C565 C564 1.372 . S
C565 C566 1.400 1_554 S
C565 C570 1.490 . S
C566 H556 0.930 . S
C566 C565 1.400 1_556 S
C566 C569 1.386 . S
H567 C583 0.930 . S
H568 C584 0.931 . S
C569 H557 0.929 . S
C569 C563 1.377 1_556 S
C569 C566 1.386 . S
C570 C565 1.490 . S
C570 C572 1.395 1_554 S
C570 C573 1.403 . S
H571 C577 0.930 . S
C572 H558 0.930 . S
C572 C570 1.395 1_556 S
C572 C575 1.403 . S
C573 C570 1.403 . S
C573 C574 1.524 . S
C573 C577 1.400 . S
C574 H559 0.960 . S
C574 H560 0.960 . S
C574 H561 0.958 1_554 S
C574 C573 1.524 . S
C575 C572 1.403 . S
C575 C576 1.395 . S
C575 C579 1.495 . S
C576 C575 1.395 . S
C576 C577 1.382 1_556 S
C576 C578 1.478 . S
C577 H571 0.930 . S
C577 C573 1.400 . S
C577 C576 1.382 1_554 S
C578 C576 1.478 . S
C578 C580 1.381 1_556 S
C578 C584 1.383 . S
C579 C575 1.495 . S
C579 H585 0.959 . S
C579 H586 0.961 . S
C579 H587 0.960 1_556 S
C580 C578 1.381 1_554 S
C580 C581 1.394 . S
C580 H588 0.930 . S
C581 C580 1.394 . S
C581 C582 1.366 1_554 S
C581 H589 0.929 . S
C582 C581 1.366 1_556 S
C582 C583 1.394 . S
C583 H567 0.930 . S
C583 C582 1.394 . S
C583 C584 1.379 . S
C584 H568 0.931 . S
C584 C578 1.383 . S
C584 C583 1.379 . S
H585 C579 0.959 . S
H586 C579 0.961 . S
H587 C579 0.960 1_554 S
H588 C580 0.930 . S
H589 C581 0.929 . S
H590 C598 0.929 . S
H591 C600 0.930 . S
H592 C602 0.930 . S
H593 C605 0.929 . S
H594 C608 0.930 . S
H595 C610 0.960 . S
H596 C610 0.960 1_556 S
H597 C610 0.960 . S
C598 H590 0.929 . S
C598 C599 1.387 . S
C598 C600 1.384 . S
C599 C598 1.387 . S
C599 C605 1.381 1_556 S
C600 H591 0.930 . S
C600 C598 1.384 . S
C600 C601 1.372 . S
C601 C600 1.372 . S
C601 C602 1.400 1_556 S
C601 C606 1.490 . S
C602 H592 0.930 . S
C602 C601 1.400 1_554 S
C602 C605 1.386 . S
H603 C619 0.930 . S
H604 C620 0.931 . S
C605 H593 0.929 . S
C605 C599 1.381 1_554 S
C605 C602 1.386 . S
C606 C601 1.490 . S
C606 C608 1.395 . S
C606 C609 1.403 1_556 S
H607 C613 0.930 . S
C608 H594 0.930 . S
C608 C606 1.395 . S
C608 C611 1.403 . S
C609 C606 1.403 1_554 S
C609 C610 1.524 . S
C609 C613 1.400 . S
C610 H595 0.960 . S
C610 H596 0.960 1_554 S
C610 H597 0.960 . S
C610 C609 1.524 . S
C611 C608 1.403 . S
C611 C612 1.392 . S
C611 C615 1.495 . S
C612 C611 1.392 . S
C612 C613 1.385 1_556 S
C612 C614 1.478 . S
C613 H607 0.930 . S
C613 C609 1.400 . S
C613 C612 1.385 1_554 S
C614 C612 1.478 . S
C614 C616 1.402 . S
C614 C620 1.362 1_556 S
C615 C611 1.495 . S
C615 H621 0.959 . S
C615 H622 0.961 1_556 S
C615 H623 0.960 . S
C616 C614 1.402 . S
C616 C617 1.394 . S
C616 H624 0.930 . S
C617 C616 1.394 . S
C617 C618 1.385 1_556 S
C617 H625 0.929 . S
C618 C617 1.385 1_554 S
C618 C619 1.375 . S
C619 H603 0.930 . S
C619 C618 1.375 . S
C619 C620 1.379 . S
C620 H604 0.931 . S
C620 C614 1.362 1_554 S
C620 C619 1.379 . S
H621 C615 0.959 . S
H622 C615 0.961 1_554 S
H623 C615 0.960 . S
H624 C616 0.930 . S
H625 C617 0.929 . S
C222 C145 1.915 . S
C203 C36 1.909 1_455 S
C258 C152 1.186 1_565 S
C239 C78 1.173 . S
C294 C147 1.914 1_655 S
C275 C30 1.895 1_455 S
C330 C153 1.188 1_565 S
C311 C69 1.184 . S
C347 C21 1.914 . S
C366 C146 1.919 . S
C402 C155 1.190 . S
C383 C93 1.182 . S
C419 C45 1.897 . S
C438 C144 1.916 1_655 S
C455 C84 1.188 . S
C474 C154 1.196 . S
C491 C132 1.539 . S
C510 C149 1.533 1_556 S
C527 C126 1.525 . S
C546 C148 1.536 . S
C582 C151 1.537 1_556 S
C563 C141 1.525 1_554 S
C618 C150 1.539 . S
C599 C117 1.542 . S
