# Generated by pormake.
# Topology pyr, (3,6)-cn, num edge types: 1
# Building blocks:
#     Node 0, Type 0, BuildingBlock: MIDCAF_clean_linker_0, # of connection points: 3
#     Node 1, Type 0, BuildingBlock: MIDCAF_clean_linker_0, # of connection points: 3
#     Node 2, Type 0, BuildingBlock: MIDCAF_clean_linker_0, # of connection points: 3
#     Node 3, Type 0, BuildingBlock: MIDCAF_clean_linker_0, # of connection points: 3
#     Node 4, Type 0, BuildingBlock: MIDCAF_clean_linker_0, # of connection points: 3
#     Node 5, Type 0, BuildingBlock: MIDCAF_clean_linker_0, # of connection points: 3
#     Node 6, Type 0, BuildingBlock: MIDCAF_clean_linker_0, # of connection points: 3
#     Node 7, Type 0, BuildingBlock: MIDCAF_clean_linker_0, # of connection points: 3
#     Node 8, Type 1, BuildingBlock: GEDQOX_clean_sbu_0, # of connection points: 6
#     Node 9, Type 1, BuildingBlock: GEDQOX_clean_sbu_0, # of connection points: 6
#     Node 10, Type 1, BuildingBlock: GEDQOX_clean_sbu_0, # of connection points: 6
#     Node 11, Type 1, BuildingBlock: GEDQOX_clean_sbu_0, # of connection points: 6
#     Edge 12, Type (0, 1), BuildingBlock: MIFKUJ_clean_linker_0, # of connection points: 2
#     Edge 13, Type (0, 1), BuildingBlock: MIFKUJ_clean_linker_0, # of connection points: 2
#     Edge 14, Type (0, 1), BuildingBlock: MIFKUJ_clean_linker_0, # of connection points: 2
#     Edge 15, Type (0, 1), BuildingBlock: MIFKUJ_clean_linker_0, # of connection points: 2
#     Edge 16, Type (0, 1), BuildingBlock: MIFKUJ_clean_linker_0, # of connection points: 2
#     Edge 17, Type (0, 1), BuildingBlock: MIFKUJ_clean_linker_0, # of connection points: 2
#     Edge 18, Type (0, 1), BuildingBlock: MIFKUJ_clean_linker_0, # of connection points: 2
#     Edge 19, Type (0, 1), BuildingBlock: MIFKUJ_clean_linker_0, # of connection points: 2
#     Edge 20, Type (0, 1), BuildingBlock: MIFKUJ_clean_linker_0, # of connection points: 2
#     Edge 21, Type (0, 1), BuildingBlock: MIFKUJ_clean_linker_0, # of connection points: 2
#     Edge 22, Type (0, 1), BuildingBlock: MIFKUJ_clean_linker_0, # of connection points: 2
#     Edge 23, Type (0, 1), BuildingBlock: MIFKUJ_clean_linker_0, # of connection points: 2
#     Edge 24, Type (0, 1), BuildingBlock: MIFKUJ_clean_linker_0, # of connection points: 2
#     Edge 25, Type (0, 1), BuildingBlock: MIFKUJ_clean_linker_0, # of connection points: 2
#     Edge 26, Type (0, 1), BuildingBlock: MIFKUJ_clean_linker_0, # of connection points: 2
#     Edge 27, Type (0, 1), BuildingBlock: MIFKUJ_clean_linker_0, # of connection points: 2
#     Edge 28, Type (0, 1), BuildingBlock: MIFKUJ_clean_linker_0, # of connection points: 2
#     Edge 29, Type (0, 1), BuildingBlock: MIFKUJ_clean_linker_0, # of connection points: 2
#     Edge 30, Type (0, 1), BuildingBlock: MIFKUJ_clean_linker_0, # of connection points: 2
#     Edge 31, Type (0, 1), BuildingBlock: MIFKUJ_clean_linker_0, # of connection points: 2
#     Edge 32, Type (0, 1), BuildingBlock: MIFKUJ_clean_linker_0, # of connection points: 2
#     Edge 33, Type (0, 1), BuildingBlock: MIFKUJ_clean_linker_0, # of connection points: 2
#     Edge 34, Type (0, 1), BuildingBlock: MIFKUJ_clean_linker_0, # of connection points: 2
#     Edge 35, Type (0, 1), BuildingBlock: MIFKUJ_clean_linker_0, # of connection points: 2
# Relax obj value: 0.082
# Max RMSD: 0.146
# Mean RMSD: 0.058
data_MOF--net-pyr--node1-GEDQOX_clean_sbu_0--node2-MIDCAF_clean_linker_0--edge1-MIFKUJ_clean_linker_0
_symmetry_space_group_name_H-M    P1
_symmetry_Int_Tables_number       1
_symmetry_cell_setting            triclinic
loop_
_symmetry_equiv_pos_as_xyz
'x, y, z'
_cell_length_a     59.974178
_cell_length_b     59.756741
_cell_length_c     53.344725
_cell_angle_alpha  87.95542
_cell_angle_beta   91.844089
_cell_angle_gamma 88.600711
loop_
_atom_site_label
_atom_site_type_symbol
_atom_site_fract_x
_atom_site_fract_y
_atom_site_fract_z
_atom_type_partial_charge
C0 C 0.15289 0.15701 0.22928 0.0
C1 C 0.16309 0.13869 0.24314 0.0
C2 C 0.18384 0.1307 0.23458 0.0
C3 C 0.19387 0.1406 0.21332 0.0
H4 H 0.2494 0.13548 0.16516 0.0
H5 H 0.28277 0.11861 0.14796 0.0
H6 H 0.27828 0.16658 0.08557 0.0
H7 H 0.24468 0.1834 0.10276 0.0
H8 H 0.20858 0.23057 0.10945 0.0
H9 H 0.19025 0.26541 0.09314 0.0
H10 H 0.13398 0.25218 0.13943 0.0
H11 H 0.15258 0.21816 0.15621 0.0
H12 H 0.15424 0.18091 0.19838 0.0
H13 H 0.13681 0.16365 0.23445 0.0
H14 H 0.19268 0.11692 0.24454 0.0
H15 H 0.20981 0.13387 0.20771 0.0
N16 N 0.21331 0.16138 0.16703 0.0
N17 N 0.21278 0.19066 0.136 0.0
N18 N 0.18481 0.18915 0.16597 0.0
C19 C 0.22278 0.17138 0.14648 0.0
C20 C 0.19373 0.19975 0.14563 0.0
C21 C 0.19429 0.17006 0.17696 0.0
C22 C 0.24386 0.16107 0.13561 0.0
C23 C 0.2554 0.14258 0.14776 0.0
C24 C 0.27488 0.13286 0.13784 0.0
C25 C 0.2838 0.14098 0.11511 0.0
C26 C 0.27219 0.15942 0.10288 0.0
C27 C 0.25277 0.16928 0.11294 0.0
C28 C 0.18237 0.22117 0.13445 0.0
C29 C 0.1923 0.23507 0.1162 0.0
C30 C 0.18157 0.25522 0.10666 0.0
C31 C 0.16034 0.26234 0.11481 0.0
C32 C 0.1504 0.24814 0.1328 0.0
C33 C 0.16115 0.2282 0.14243 0.0
C34 C 0.18367 0.15901 0.19968 0.0
C35 C 0.16295 0.16694 0.20817 0.0
C36 C 0.26527 0.80731 0.73254 0.0
C37 C 0.25264 0.79148 0.71972 0.0
C38 C 0.26095 0.76929 0.71934 0.0
C39 C 0.28187 0.76338 0.73016 0.0
H40 H 0.33219 0.7169 0.72254 0.0
H41 H 0.35068 0.68757 0.7 0.0
H42 H 0.41472 0.71521 0.71887 0.0
H43 H 0.39618 0.74433 0.74219 0.0
H44 H 0.39616 0.79019 0.77613 0.0
H45 H 0.41558 0.81544 0.80412 0.0
H46 H 0.35308 0.83331 0.83692 0.0
H47 H 0.33353 0.80845 0.80872 0.0
H48 H 0.29574 0.81413 0.7525 0.0
H49 H 0.25957 0.82462 0.733 0.0
H50 H 0.25148 0.75652 0.71018 0.0
H51 H 0.28802 0.74628 0.72881 0.0
N52 N 0.32914 0.75627 0.74048 0.0
N53 N 0.36214 0.76525 0.76221 0.0
N54 N 0.32938 0.78699 0.76652 0.0
C55 C 0.35105 0.75183 0.74622 0.0
C56 C 0.3513 0.78273 0.77267 0.0
C57 C 0.3182 0.77382 0.7504 0.0
C58 C 0.36268 0.73311 0.73406 0.0
C59 C 0.35024 0.71672 0.72203 0.0
C60 C 0.36085 0.69992 0.70894 0.0
C61 C 0.38419 0.69914 0.70731 0.0
C62 C 0.39672 0.71517 0.71991 0.0
C63 C 0.38609 0.73193 0.73323 0.0
C64 C 0.36329 0.79736 0.79015 0.0
C65 C 0.38657 0.79943 0.78937 0.0
C66 C 0.39767 0.81393 0.80528 0.0
C67 C 0.38579 0.82628 0.82264 0.0
C68 C 0.36262 0.82388 0.82379 0.0
C69 C 0.35145 0.80975 0.80755 0.0
C70 C 0.29491 0.77945 0.74194 0.0
C71 C 0.2861 0.80132 0.74365 0.0
C72 C 0.68701 0.34243 0.9308 0.0
C73 C 0.66546 0.3348 0.92542 0.0
C74 C 0.6523 0.3459 0.90635 0.0
C75 C 0.6608 0.36364 0.89225 0.0
H76 H 0.66843 0.37975 0.81295 0.0
H77 H 0.64894 0.38752 0.7729 0.0
H78 H 0.66854 0.45668 0.77496 0.0
H79 H 0.68933 0.4483 0.81439 0.0
H80 H 0.74974 0.43513 0.84068 0.0
H81 H 0.78655 0.44863 0.85212 0.0
H82 H 0.77651 0.42919 0.92968 0.0
H83 H 0.74012 0.41498 0.91813 0.0
H84 H 0.71235 0.36551 0.92098 0.0
H85 H 0.69747 0.33424 0.94549 0.0
H86 H 0.63573 0.34024 0.90154 0.0
H87 H 0.65037 0.3714 0.87725 0.0
N88 N 0.68236 0.3933 0.85755 0.0
N89 N 0.71036 0.41882 0.84855 0.0
N90 N 0.71137 0.39835 0.88704 0.0
C91 C 0.69125 0.4086 0.84162 0.0
C92 C 0.72054 0.41372 0.87129 0.0
C93 C 0.69221 0.38817 0.88033 0.0
C94 C 0.68028 0.41346 0.81681 0.0
C95 C 0.66867 0.39658 0.80473 0.0
C96 C 0.65732 0.40112 0.78181 0.0
C97 C 0.65679 0.42284 0.77067 0.0
C98 C 0.66876 0.43967 0.78267 0.0
C99 C 0.6806 0.43495 0.80537 0.0
C100 C 0.74205 0.42378 0.87845 0.0
C101 C 0.75532 0.43389 0.86021 0.0
C102 C 0.77642 0.44172 0.86679 0.0
C103 C 0.78463 0.43982 0.8918 0.0
C104 C 0.77098 0.43044 0.91015 0.0
C105 C 0.75002 0.42241 0.90354 0.0
C106 C 0.68264 0.3708 0.89697 0.0
C107 C 0.69548 0.36037 0.91681 0.0
C108 C 0.80349 0.7149 0.38186 0.0
C109 C 0.79727 0.6943 0.37208 0.0
C110 C 0.80449 0.68878 0.34822 0.0
C111 C 0.81692 0.70374 0.33411 0.0
H112 H 0.82026 0.72603 0.26031 0.0
H113 H 0.82419 0.71597 0.21705 0.0
H114 H 0.87967 0.76032 0.21029 0.0
H115 H 0.876 0.77022 0.25406 0.0
H116 H 0.88869 0.79919 0.30176 0.0
H117 H 0.91051 0.82817 0.32116 0.0
H118 H 0.88125 0.81255 0.3924 0.0
H119 H 0.85919 0.78373 0.37308 0.0
H120 H 0.82044 0.74569 0.37566 0.0
H121 H 0.79803 0.7198 0.40006 0.0
H122 H 0.80052 0.67285 0.34033 0.0
H123 H 0.82199 0.69895 0.31571 0.0
N124 N 0.83564 0.73818 0.30288 0.0
N125 N 0.85918 0.76869 0.29888 0.0
N126 N 0.84691 0.75716 0.33858 0.0
C127 C 0.84738 0.75223 0.28812 0.0
C128 C 0.85895 0.77132 0.32411 0.0
C129 C 0.83531 0.74047 0.32804 0.0
C130 C 0.84807 0.74865 0.26083 0.0
C131 C 0.83316 0.7339 0.2496 0.0
C132 C 0.83523 0.72831 0.22463 0.0
C133 C 0.85229 0.73729 0.21024 0.0
C134 C 0.86648 0.75298 0.22101 0.0
C135 C 0.86433 0.75868 0.24605 0.0
C136 C 0.87212 0.78909 0.33582 0.0
C137 C 0.88683 0.80192 0.32155 0.0
C138 C 0.89948 0.81844 0.33269 0.0
C139 C 0.89761 0.8226 0.3583 0.0
C140 C 0.88288 0.80986 0.37256 0.0
C141 C 0.87032 0.79326 0.36148 0.0
C142 C 0.82275 0.7245 0.34363 0.0
C143 C 0.81622 0.7298 0.36782 0.0
C144 C 0.7851 0.90725 0.87596 0.0
C145 C 0.7698 0.89456 0.8898 0.0
C146 C 0.7752 0.8715 0.89393 0.0
C147 C 0.79505 0.86168 0.88485 0.0
H148 H 0.84842 0.80854 0.90317 0.0
H149 H 0.86649 0.77386 0.92037 0.0
H150 H 0.91077 0.77397 0.85815 0.0
H151 H 0.89331 0.80868 0.84165 0.0
H152 H 0.89174 0.84681 0.79974 0.0
H153 H 0.91028 0.86409 0.76454 0.0
H154 H 0.87477 0.92645 0.77612 0.0
H155 H 0.85536 0.90858 0.81076 0.0
H156 H 0.81562 0.90787 0.85574 0.0
H157 H 0.78176 0.92493 0.87204 0.0
H158 H 0.76418 0.86099 0.90456 0.0
H159 H 0.79835 0.84397 0.88867 0.0
N160 N 0.84003 0.8436 0.86982 0.0
N161 N 0.86856 0.84483 0.84053 0.0
N162 N 0.84176 0.87421 0.84067 0.0
C163 C 0.85884 0.834 0.8602 0.0
C164 C 0.86037 0.86485 0.83052 0.0
C165 C 0.83124 0.86375 0.86021 0.0
C166 C 0.86923 0.81193 0.87088 0.0
C167 C 0.86201 0.8012 0.89312 0.0
C168 C 0.87245 0.78102 0.90299 0.0
C169 C 0.89054 0.77058 0.89104 0.0
C170 C 0.89743 0.78126 0.86861 0.0
C171 C 0.88713 0.80139 0.85888 0.0
C172 C 0.87184 0.8761 0.80853 0.0
C173 C 0.88777 0.86424 0.79488 0.0
C174 C 0.89871 0.87439 0.77451 0.0
C175 C 0.89455 0.89707 0.76691 0.0
C176 C 0.87854 0.90895 0.78063 0.0
C177 C 0.86735 0.89866 0.80087 0.0
C178 C 0.81018 0.87433 0.87072 0.0
C179 C 0.80467 0.89733 0.86642 0.0
C180 C 0.66607 0.21651 0.18915 0.0
C181 C 0.64277 0.21471 0.18778 0.0
C182 C 0.62986 0.22556 0.20546 0.0
C183 C 0.64012 0.23757 0.22451 0.0
H184 H 0.63439 0.29662 0.27066 0.0
H185 H 0.61657 0.32541 0.29523 0.0
H186 H 0.66982 0.31745 0.35158 0.0
H187 H 0.6878 0.28938 0.32702 0.0
H188 H 0.72972 0.26252 0.31792 0.0
H189 H 0.76441 0.24591 0.3353 0.0
H190 H 0.76734 0.20164 0.27314 0.0
H191 H 0.7322 0.21791 0.2559 0.0
H192 H 0.69438 0.22868 0.20934 0.0
H193 H 0.67642 0.20815 0.17588 0.0
H194 H 0.61185 0.22448 0.20473 0.0
H195 H 0.62978 0.24534 0.23821 0.0
N196 N 0.66386 0.2648 0.26139 0.0
N197 N 0.69487 0.26609 0.28918 0.0
N198 N 0.69556 0.24182 0.25579 0.0
C199 C 0.67402 0.27354 0.2819 0.0
C200 C 0.70578 0.25028 0.27631 0.0
C201 C 0.67465 0.24897 0.24818 0.0
C202 C 0.66262 0.29072 0.29672 0.0
C203 C 0.64228 0.30105 0.28828 0.0
C204 C 0.63202 0.31748 0.30242 0.0
C205 C 0.64185 0.32389 0.3253 0.0
C206 C 0.66202 0.31333 0.3338 0.0
C207 C 0.67228 0.29706 0.3197 0.0
C208 C 0.72798 0.24145 0.28557 0.0
C209 C 0.73778 0.24938 0.30776 0.0
C210 C 0.75782 0.23995 0.31768 0.0
C211 C 0.76864 0.2224 0.30565 0.0
C212 C 0.75925 0.21493 0.28305 0.0
C213 C 0.73915 0.22435 0.27311 0.0
C214 C 0.6635 0.23855 0.22651 0.0
C215 C 0.67633 0.22815 0.20841 0.0
C216 C 0.25584 0.60561 0.17012 0.0
C217 C 0.246 0.61359 0.14713 0.0
C218 C 0.25761 0.62895 0.13224 0.0
C219 C 0.27854 0.63619 0.14011 0.0
H220 H 0.32102 0.69061 0.13175 0.0
H221 H 0.33775 0.72364 0.11274 0.0
H222 H 0.402 0.70246 0.14555 0.0
H223 H 0.38518 0.66998 0.16522 0.0
H224 H 0.3837 0.64369 0.21699 0.0
H225 H 0.40205 0.63138 0.25633 0.0
H226 H 0.34466 0.59281 0.27548 0.0
H227 H 0.32609 0.60497 0.2356 0.0
H228 H 0.28394 0.60637 0.19582 0.0
H229 H 0.24722 0.59393 0.18214 0.0
H230 H 0.25071 0.63512 0.11422 0.0
H231 H 0.28697 0.64795 0.128 0.0
N232 N 0.32079 0.65219 0.15741 0.0
N233 N 0.35161 0.65034 0.18546 0.0
N234 N 0.32135 0.62707 0.19234 0.0
C235 C 0.34124 0.65941 0.16443 0.0
C236 C 0.34185 0.63423 0.19958 0.0
C237 C 0.31078 0.63592 0.17114 0.0
C238 C 0.35171 0.67787 0.1503 0.0
C239 C 0.33876 0.69289 0.13466 0.0
C240 C 0.34837 0.71178 0.12367 0.0
C241 C 0.37115 0.71587 0.12793 0.0
C242 C 0.38429 0.70013 0.14243 0.0
C243 C 0.37466 0.68144 0.15361 0.0
C244 C 0.35328 0.62549 0.22312 0.0
C245 C 0.37487 0.63257 0.22945 0.0
C246 C 0.3854 0.62562 0.25214 0.0
C247 C 0.37467 0.61142 0.26918 0.0
C248 C 0.35333 0.60377 0.26268 0.0
C249 C 0.3427 0.61078 0.23987 0.0
C250 C 0.28847 0.62819 0.16306 0.0
C251 C 0.27686 0.61282 0.17799 0.0
C252 C 0.15709 0.25189 0.64089 0.0
C253 C 0.14486 0.23591 0.65427 0.0
C254 C 0.14218 0.23847 0.68011 0.0
C255 C 0.15173 0.25636 0.69233 0.0
H256 H 0.17287 0.2755 0.7644 0.0
H257 H 0.17438 0.27762 0.81018 0.0
H258 H 0.20253 0.34338 0.80307 0.0
H259 H 0.20176 0.34103 0.75819 0.0
H260 H 0.21217 0.36217 0.71029 0.0
H261 H 0.22977 0.39273 0.68819 0.0
H262 H 0.21128 0.36475 0.61724 0.0
H263 H 0.19335 0.33373 0.63941 0.0
H264 H 0.17597 0.28176 0.6422 0.0
H265 H 0.15979 0.25029 0.62105 0.0
H266 H 0.13252 0.22674 0.69094 0.0
H267 H 0.14931 0.25774 0.71226 0.0
N268 N 0.17585 0.29078 0.71762 0.0
N269 N 0.19343 0.32526 0.71607 0.0
N270 N 0.18263 0.30871 0.67868 0.0
C271 C 0.18545 0.30787 0.72974 0.0
C272 C 0.19213 0.32595 0.69067 0.0
C273 C 0.1744 0.29108 0.69206 0.0
C274 C 0.18709 0.30812 0.75752 0.0
C275 C 0.17963 0.29026 0.77271 0.0
C276 C 0.18049 0.29147 0.79894 0.0
C277 C 0.1888 0.31056 0.81042 0.0
C278 C 0.19662 0.32811 0.7951 0.0
C279 C 0.19588 0.32687 0.76913 0.0
C280 C 0.20152 0.34523 0.67667 0.0
C281 C 0.21165 0.36241 0.68998 0.0
C282 C 0.22181 0.37999 0.67734 0.0
C283 C 0.22205 0.38098 0.65106 0.0
C284 C 0.21122 0.36438 0.63756 0.0
C285 C 0.2011 0.34659 0.65026 0.0
C286 C 0.16405 0.27227 0.67898 0.0
C287 C 0.16649 0.2699 0.65307 0.0
Nd288 Nd 0.05104 1.0032 0.51111 0.0
Nd289 Nd 1.01442 0.03799 0.506 0.0
C290 C 0.07868 0.96807 0.51621 0.0
C291 C 0.08156 0.94613 0.52929 0.0
C292 C 0.06974 0.94084 0.5509 0.0
C293 C 0.07577 0.92177 0.5658 0.0
C294 C 0.09374 0.90776 0.55932 0.0
C295 C 0.10454 0.91247 0.53676 0.0
C296 C 0.09849 0.9315 0.52192 0.0
C297 C 0.06213 0.04439 0.52831 0.0
C298 C 1.01127 1.00062 0.55314 0.0
C299 C 0.98486 0.07131 0.50806 0.0
C300 C 0.97146 0.08512 0.48965 0.0
C301 C 0.95945 0.1039 0.49735 0.0
C302 C 0.94546 0.11623 0.48021 0.0
C303 C 0.94322 0.10981 0.45515 0.0
C304 C 0.95577 0.09127 0.44741 0.0
C305 C 0.96983 0.07905 0.46451 0.0
C306 C 1.00924 1.00319 0.47417 0.0
C307 C 0.05306 0.03918 0.46367 0.0
O308 O 0.06347 0.97031 0.49804 0.0
O309 O 0.07955 0.9854 0.53046 0.0
O310 O 0.07506 0.0324 0.51486 0.0
O311 O 0.04416 0.03465 0.53234 0.0
O312 O 0.02952 0.99096 0.54452 0.0
O313 O 1.00284 0.01935 0.54218 0.0
O314 O 1.00643 0.0743 0.50839 0.0
O315 O 0.97968 0.05018 0.50968 0.0
O316 O 1.00425 0.02388 0.46785 0.0
O317 O 1.01565 1.00138 0.49685 0.0
O318 O 0.03944 0.05171 0.47682 0.0
O319 O 0.05727 0.01797 0.47094 0.0
H320 H 0.0566 0.952 0.55685 0.0
H321 H 0.06691 0.91845 0.58286 0.0
H322 H 0.11862 0.90227 0.53132 0.0
H323 H 0.10788 0.93542 0.50537 0.0
H324 H 0.96054 0.10876 0.51672 0.0
H325 H 0.93585 0.13032 0.48675 0.0
H326 H 0.95458 0.08611 0.42816 0.0
H327 H 0.97912 0.06463 0.45824 0.0
Nd328 Nd 0.52732 1.00499 0.02 0.0
Nd329 Nd 0.52511 0.0318 0.97827 0.0
C330 C 0.5305 0.97036 0.05235 0.0
C331 C 0.51705 0.9504 0.05677 0.0
C332 C 0.51078 0.93673 0.03696 0.0
C333 C 0.49695 0.91863 0.04119 0.0
C334 C 0.48906 0.91387 0.06528 0.0
C335 C 0.49551 0.9275 0.0851 0.0
C336 C 0.5094 0.94557 0.08086 0.0
C337 C 0.49205 0.03595 0.02468 0.0
C338 C 0.49793 0.9883 0.97122 0.0
C339 C 0.52394 0.06639 0.94587 0.0
C340 C 0.53358 0.08878 0.94717 0.0
C341 C 0.52994 0.1023 0.9678 0.0
C342 C 0.54125 0.1223 0.97022 0.0
C343 C 0.55658 0.12896 0.95227 0.0
C344 C 0.55988 0.11569 0.93143 0.0
C345 C 0.5484 0.09582 0.92885 0.0
C346 C 0.56015 1.00024 0.97509 0.0
C347 C 0.55267 0.0494 0.02701 0.0
O348 O 0.54131 0.97141 0.0315 0.0
O349 O 0.52108 0.98946 0.05749 0.0
O350 O 0.50729 0.03072 0.04178 0.0
O351 O 0.49617 0.02553 1.00474 0.0
O352 O 0.50838 0.98241 0.99259 0.0
O353 O 0.49976 1.0086 0.96163 0.0
O354 O 0.50774 0.06196 0.96088 0.0
O355 O 0.53835 0.04979 0.94503 0.0
O356 O 0.5444 1.00397 0.95812 0.0
O357 O 0.5562 1.01192 0.99407 0.0
O358 O 0.54035 0.05545 1.00703 0.0
O359 O 0.55341 0.02843 0.03498 0.0
H360 H 0.51639 0.94008 0.01814 0.0
H361 H 0.49256 0.90828 0.02561 0.0
H362 H 0.48949 0.92447 0.10381 0.0
H363 H 0.51391 0.956 0.09635 0.0
H364 H 0.51884 0.09718 0.98244 0.0
H365 H 0.53857 0.13217 0.98653 0.0
H366 H 0.57148 0.12064 0.91721 0.0
H367 H 0.55156 0.0856 0.9129 0.0
Nd368 Nd 0.49495 0.50221 0.5113 0.0
Nd369 Nd 0.53948 0.52566 0.52242 0.0
C370 C 0.45355 0.49331 0.49742 0.0
C371 C 0.43165 0.49506 0.50855 0.0
C372 C 0.41291 0.48709 0.49573 0.0
C373 C 0.39217 0.48742 0.50689 0.0
C374 C 0.38998 0.49561 0.5311 0.0
C375 C 0.40873 0.50426 0.54354 0.0
C376 C 0.42943 0.50402 0.53231 0.0
C377 C 0.51923 0.48527 0.55252 0.0
C378 C 0.49566 0.54482 0.54859 0.0
C379 C 0.58056 0.53679 0.53515 0.0
C380 C 0.60062 0.54314 0.52189 0.0
C381 C 0.62161 0.54097 0.53413 0.0
C382 C 0.64059 0.54854 0.52221 0.0
C383 C 0.63881 0.55851 0.49789 0.0
C384 C 0.61772 0.55999 0.48547 0.0
C385 C 0.59884 0.55227 0.49731 0.0
C386 C 0.51548 0.54229 0.48092 0.0
C387 C 0.5385 0.48142 0.48658 0.0
O388 O 0.46292 0.51234 0.49196 0.0
O389 O 0.46746 0.47835 0.50805 0.0
O390 O 0.50674 0.47288 0.53864 0.0
O391 O 0.51676 0.50553 0.54589 0.0
O392 O 0.484 0.5339 0.53175 0.0
O393 O 0.51742 0.54123 0.55187 0.0
O394 O 0.57454 0.51598 0.53343 0.0
O395 O 0.56374 0.55116 0.53283 0.0
O396 O 0.52761 0.5548 0.49498 0.0
O397 O 0.51803 0.52209 0.48773 0.0
O398 O 0.55039 0.49352 0.50224 0.0
O399 O 0.51666 0.48426 0.48376 0.0
H400 H 0.41441 0.48021 0.47732 0.0
H401 H 0.37806 0.48042 0.49701 0.0
H402 H 0.40746 0.51077 0.56215 0.0
H403 H 0.4438 0.51033 0.54238 0.0
H404 H 0.62326 0.53381 0.55307 0.0
H405 H 0.6566 0.5468 0.53215 0.0
H406 H 0.6156 0.56786 0.46692 0.0
H407 H 0.58273 0.55398 0.48753 0.0
Nd408 Nd 1.00545 0.5118 0.02153 0.0
Nd409 Nd 0.04334 0.5205 0.98665 0.0
C410 C 0.96587 0.51128 0.04154 0.0
C411 C 0.95228 0.53072 0.04842 0.0
C412 C 0.92978 0.52881 0.05428 0.0
C413 C 0.91747 0.54775 0.0612 0.0
C414 C 0.92762 0.56871 0.06231 0.0
C415 C 0.94997 0.57053 0.05561 0.0
C416 C 0.96218 0.55173 0.0489 0.0
C417 C 0.0416 0.53135 0.04322 0.0
C418 C 1.00503 0.55989 0.98537 0.0
C419 C 0.08404 0.52282 0.9697 0.0
C420 C 0.10219 0.50571 0.97068 0.0
C421 C 0.10508 0.49094 0.99171 0.0
C422 C 0.11842 0.4716 0.99051 0.0
C423 C 0.12947 0.46691 0.96847 0.0
C424 C 0.12818 0.48266 0.94822 0.0
C425 C 0.11447 0.50187 0.94926 0.0
C426 C 1.00687 0.50177 0.96473 0.0
C427 C 0.04281 0.47177 0.02154 0.0
O428 O 0.96863 0.50952 0.01744 0.0
O429 O 0.9845 0.50815 0.05477 0.0
O430 O 0.03022 0.51616 0.05466 0.0
O431 O 0.03315 0.53647 0.02183 0.0
O432 O 0.9941 0.54535 0.99957 0.0
O433 O 0.02588 0.5553 0.97926 0.0
O434 O 0.07845 0.53074 0.99126 0.0
O435 O 0.06673 0.51821 0.9554 0.0
O436 O 0.01855 0.5169 0.95339 0.0
O437 O 1.01533 0.4962 0.98607 0.0
O438 O 0.05412 0.4865 1.008 0.0
O439 O 0.02187 0.47636 0.02724 0.0
H440 H 0.92187 0.51272 0.05382 0.0
H441 H 0.90028 0.54589 0.06636 0.0
H442 H 0.95812 0.58652 0.05581 0.0
H443 H 0.97953 0.55357 0.04436 0.0
H444 H 0.09618 0.49369 1.0087 0.0
H445 H 0.11922 0.45976 1.00637 0.0
H446 H 0.13641 0.4793 0.93092 0.0
H447 H 0.11244 0.51301 0.93283 0.0
H448 H 0.16573 0.09449 0.26227 0.0
H449 H 0.14823 0.07796 0.29899 0.0
H450 H 0.1169 0.14167 0.31321 0.0
H451 H 0.13531 0.15863 0.27739 0.0
H452 H 0.12834 0.12403 0.35617 0.0
H453 H 0.08864 0.09375 0.28621 0.0
H454 H 0.0842 0.07389 0.24668 0.0
H455 H 0.11425 1.0144 0.28207 0.0
H456 H 0.11912 0.034 0.32174 0.0
H457 H 0.04909 0.08239 0.44306 0.0
H458 H 0.0673 0.09867 0.40649 0.0
H459 H 0.1009 0.03542 0.3954 0.0
H460 H 0.08241 0.01896 0.43176 0.0
H461 H 0.08847 0.05257 0.35105 0.0
H462 H 0.12746 0.08307 0.42137 0.0
H463 H 0.13101 0.10301 0.46094 0.0
H464 H 0.10146 0.16236 0.42471 0.0
H465 H 0.09743 0.14267 0.385 0.0
C466 C 0.15535 0.10522 0.27322 0.0
C467 C 0.15212 0.12816 0.26615 0.0
C468 C 0.14494 0.09553 0.29429 0.0
C469 C 0.13058 0.10821 0.30913 0.0
C470 C 0.12762 0.13116 0.30237 0.0
C471 C 0.13811 0.1409 0.2814 0.0
C472 C 0.11886 0.0978 0.33162 0.0
C473 C 0.11939 0.10855 0.35477 0.0
C474 C 0.10738 0.07724 0.33066 0.0
C475 C 0.10445 0.06542 0.30686 0.0
C476 C 0.09444 0.07648 0.28551 0.0
C477 C 0.09182 0.06527 0.26309 0.0
C478 C 0.09899 0.04292 0.26185 0.0
C479 C 0.10874 0.03172 0.28305 0.0
C480 C 0.11141 0.04287 0.30551 0.0
C481 C 0.06034 0.07184 0.43292 0.0
C482 C 0.06416 0.04921 0.44079 0.0
C483 C 0.07097 0.0813 0.41189 0.0
C484 C 0.08601 0.06859 0.39791 0.0
C485 C 0.08955 0.04587 0.40553 0.0
C486 C 0.07892 0.0364 0.42657 0.0
C487 C 0.09791 0.07883 0.37551 0.0
C488 C 0.09743 0.06804 0.35242 0.0
C489 C 0.10936 0.09939 0.3765 0.0
C490 C 0.11196 0.11133 0.40027 0.0
C491 C 0.12159 0.10033 0.42188 0.0
C492 C 0.1237 0.11159 0.44433 0.0
C493 C 0.11642 0.13392 0.44535 0.0
C494 C 0.10707 0.14506 0.4239 0.0
C495 C 0.10488 0.13386 0.40141 0.0
H496 H 0.11806 0.14261 0.46275 0.0
H497 H 0.09695 0.03426 0.24447 0.0
H498 H 0.41351 0.85956 0.80873 0.0
H499 H 0.432 0.88624 0.8356 0.0
H500 H 0.40338 0.85468 0.90073 0.0
H501 H 0.38396 0.82866 0.87357 0.0
H502 H 0.40139 0.89664 0.90631 0.0
H503 H 0.46038 0.84713 0.8851 0.0
H504 H 0.48445 0.8252 0.85793 0.0
H505 H 0.50546 0.88582 0.82114 0.0
H506 H 0.48128 0.90812 0.84786 0.0
H507 H 0.48057 0.94938 0.98973 0.0
H508 H 0.46091 0.92096 0.96608 0.0
H509 H 0.46734 0.96074 0.89778 0.0
H510 H 0.48663 0.98937 0.92129 0.0
H511 H 0.48145 0.91296 0.89675 0.0
H512 H 0.41967 0.96142 0.92014 0.0
H513 H 0.39749 0.98106 0.95113 0.0
H514 H 0.38431 0.91827 0.98873 0.0
H515 H 0.40669 0.89828 0.95815 0.0
C516 C 0.41129 0.85829 0.8288 0.0
C517 C 0.39746 0.842 0.83913 0.0
C518 C 0.42194 0.87347 0.8442 0.0
C519 C 0.41953 0.87226 0.87036 0.0
C520 C 0.40558 0.85599 0.88066 0.0
C521 C 0.39454 0.8411 0.86517 0.0
C522 C 0.43127 0.88819 0.8868 0.0
C523 C 0.41898 0.89989 0.9044 0.0
C524 C 0.45425 0.89262 0.88447 0.0
C525 C 0.46885 0.87929 0.86834 0.0
C526 C 0.47001 0.85578 0.87109 0.0
C527 C 0.48369 0.84328 0.85579 0.0
C528 C 0.49643 0.85411 0.83778 0.0
C529 C 0.49556 0.87746 0.83508 0.0
C530 C 0.48189 0.89004 0.85032 0.0
C531 C 0.47771 0.9521 0.96969 0.0
C532 C 0.48514 0.97159 0.95735 0.0
C533 C 0.46646 0.93589 0.95625 0.0
C534 C 0.46274 0.9388 0.93021 0.0
C535 C 0.4701 0.95823 0.91787 0.0
C536 C 0.481 0.9746 0.93135 0.0
C537 C 0.45145 0.92145 0.91567 0.0
C538 C 0.46389 0.9095 0.89856 0.0
C539 C 0.42882 0.91639 0.91892 0.0
C540 C 0.41502 0.92838 0.937 0.0
C541 C 0.41217 0.95182 0.93512 0.0
C542 C 0.39954 0.96301 0.95259 0.0
C543 C 0.38954 0.95093 0.97192 0.0
C544 C 0.39208 0.92761 0.97376 0.0
C545 C 0.40472 0.91634 0.95635 0.0
H546 H 0.3798 0.95962 0.98545 0.0
H547 H 0.50702 0.8444 0.82595 0.0
H548 H 0.66565 0.45272 0.73188 0.0
H549 H 0.64236 0.46208 0.69433 0.0
H550 H 0.59481 0.41322 0.71741 0.0
H551 H 0.61701 0.40471 0.75579 0.0
H552 H 0.61101 0.41433 0.66228 0.0
H553 H 0.57796 0.45821 0.72773 0.0
H554 H 0.57995 0.48489 0.7619 0.0
H555 H 0.60587 0.53469 0.71145 0.0
H556 H 0.60436 0.50815 0.67706 0.0
H557 H 0.52038 0.44405 0.57677 0.0
H558 H 0.54408 0.43197 0.61334 0.0
H559 H 0.57532 0.49636 0.61184 0.0
H560 H 0.55081 0.5088 0.57656 0.0
H561 H 0.56786 0.48634 0.65672 0.0
H562 H 0.60054 0.44582 0.59096 0.0
H563 H 0.60169 0.42042 0.55561 0.0
H564 H 0.58115 0.36604 0.60363 0.0
H565 H 0.57944 0.39126 0.63918 0.0
C566 C 0.65013 0.44411 0.72924 0.0
C567 C 0.6433 0.42794 0.74707 0.0
C568 C 0.63699 0.44933 0.7076 0.0
C569 C 0.61701 0.43823 0.70318 0.0
C570 C 0.61034 0.42177 0.72047 0.0
C571 C 0.62319 0.41686 0.74235 0.0
C572 C 0.60253 0.44451 0.68101 0.0
C573 C 0.60133 0.42994 0.66103 0.0
C574 C 0.59054 0.46513 0.67931 0.0
C575 C 0.5913 0.48112 0.69993 0.0
C576 C 0.5843 0.47477 0.724 0.0
C577 C 0.58529 0.48988 0.74339 0.0
C578 C 0.5931 0.51145 0.73887 0.0
C579 C 0.59987 0.51797 0.71493 0.0
C580 C 0.59893 0.5029 0.69549 0.0
C581 C 0.53235 0.45553 0.58432 0.0
C582 C 0.53384 0.4773 0.57387 0.0
C583 C 0.546 0.4486 0.60508 0.0
C584 C 0.56176 0.46314 0.61522 0.0
C585 C 0.5633 0.48482 0.60449 0.0
C586 C 0.54936 0.49188 0.5842 0.0
C587 C 0.57623 0.45623 0.63747 0.0
C588 C 0.57746 0.47069 0.65766 0.0
C589 C 0.58865 0.4357 0.63903 0.0
C590 C 0.58964 0.42049 0.61768 0.0
C591 C 0.59609 0.42849 0.59394 0.0
C592 C 0.59687 0.41411 0.57386 0.0
C593 C 0.59148 0.39162 0.57737 0.0
C594 C 0.5853 0.38347 0.60095 0.0
C595 C 0.58441 0.3978 0.62106 0.0
H596 H 0.59216 0.38048 0.56185 0.0
H597 H 0.59385 0.52313 0.75391 0.0
H598 H 0.89262 0.72527 0.1922 0.0
H599 H 0.89961 0.70306 0.15589 0.0
H600 H 0.82925 0.70521 0.13598 0.0
H601 H 0.8221 0.72757 0.17262 0.0
H602 H 0.84398 0.66382 0.13914 0.0
H603 H 0.86773 0.72854 0.096 0.0
H604 H 0.887 0.76405 0.08884 0.0
H605 H 0.95047 0.72983 0.1004 0.0
H606 H 0.93162 0.69416 0.10804 0.0
H607 H 0.88487 0.58405 0.05015 0.0
H608 H 0.86611 0.61785 0.06529 0.0
H609 H 0.92479 0.63154 0.11049 0.0
H610 H 0.94337 0.59805 0.09578 0.0
H611 H 0.90775 0.66912 0.08251 0.0
H612 H 0.88178 0.60774 0.13686 0.0
H613 H 0.86235 0.57233 0.14434 0.0
H614 H 0.80222 0.60158 0.11005 0.0
H615 H 0.82142 0.63709 0.10209 0.0
C616 C 0.87869 0.72176 0.17963 0.0
C617 C 0.85679 0.72808 0.18538 0.0
C618 C 0.88272 0.70902 0.15878 0.0
C619 C 0.86496 0.70253 0.14306 0.0
C620 C 0.8432 0.71001 0.14785 0.0
C621 C 0.83914 0.72272 0.1688 0.0
C622 C 0.86903 0.68542 0.12414 0.0
C623 C 0.85747 0.66529 0.12616 0.0
C624 C 0.88668 0.6872 0.10725 0.0
C625 C 0.8982 0.70863 0.10268 0.0
C626 C 0.88579 0.72859 0.0972 0.0
C627 C 0.89665 0.74876 0.09302 0.0
C628 C 0.91994 0.7492 0.09418 0.0
C629 C 0.93242 0.72946 0.09949 0.0
C630 C 0.92166 0.70924 0.10369 0.0
C631 C 0.89364 0.59425 0.06343 0.0
C632 C 0.91563 0.58855 0.07164 0.0
C633 C 0.88298 0.61355 0.07193 0.0
C634 C 0.8942 0.62725 0.08879 0.0
C635 C 0.91599 0.62135 0.0972 0.0
C636 C 0.92658 0.60221 0.08876 0.0
C637 C 0.88343 0.64749 0.09861 0.0
C638 C 0.89373 0.66811 0.09481 0.0
C639 C 0.86458 0.64624 0.11374 0.0
C640 C 0.8531 0.62493 0.11857 0.0
C641 C 0.86447 0.60654 0.13072 0.0
C642 C 0.8535 0.58647 0.13509 0.0
C643 C 0.83109 0.58467 0.12759 0.0
C644 C 0.81959 0.60297 0.11579 0.0
C645 C 0.83051 0.62307 0.11134 0.0
H646 H 0.82261 0.56913 0.131 0.0
H647 H 0.92831 0.76483 0.09094 0.0
H648 H 0.32136 0.12182 0.14049 0.0
H649 H 0.35487 0.10466 0.12366 0.0
H650 H 0.32889 0.11861 0.04842 0.0
H651 H 0.29501 0.13547 0.06516 0.0
H652 H 0.34904 0.07766 0.05018 0.0
H653 H 0.37189 0.14979 0.0762 0.0
H654 H 0.37687 0.18037 0.10555 0.0
H655 H 0.41673 0.13652 0.15539 0.0
H656 H 0.41175 0.10558 0.12647 0.0
H657 H 0.45446 0.04904 0.99416 0.0
H658 H 0.41945 0.06725 1.00676 0.0
H659 H 0.44413 0.06555 0.08362 0.0
H660 H 0.47908 0.04855 0.07094 0.0
H661 H 0.42381 0.10174 0.0788 0.0
H662 H 0.39996 0.02899 0.05453 0.0
H663 H 0.3949 0.99785 0.02588 0.0
H664 H 0.35702 0.04153 0.97396 0.0
H665 H 0.36209 0.073 1.00216 0.0
C666 C 0.32249 0.12119 0.12032 0.0
C667 C 0.30494 0.13035 0.10445 0.0
C668 C 0.34203 0.11143 0.11059 0.0
C669 C 0.34506 0.1103 0.08449 0.0
C670 C 0.32745 0.11911 0.06857 0.0
C671 C 0.30794 0.12905 0.0783 0.0
C672 C 0.36648 0.1002 0.07399 0.0
C673 C 0.36535 0.08319 0.05629 0.0
C674 C 0.38819 0.10673 0.08191 0.0
C675 C 0.39127 0.12532 0.09928 0.0
C676 C 0.38159 0.14663 0.0935 0.0
C677 C 0.38443 0.16403 0.11005 0.0
C678 C 0.39706 0.16038 0.13235 0.0
C679 C 0.40693 0.13932 0.13812 0.0
C680 C 0.40412 0.12185 0.12165 0.0
C681 C 0.45243 0.05256 0.01374 0.0
C682 C 0.46995 0.04708 0.03139 0.0
C683 C 0.43212 0.0629 0.02111 0.0
C684 C 0.42833 0.06778 0.04652 0.0
C685 C 0.44601 0.06232 0.06394 0.0
C686 C 0.46625 0.05235 0.05657 0.0
C687 C 0.40654 0.07875 0.05528 0.0
C688 C 0.40757 0.09605 0.07266 0.0
C689 C 0.38478 0.0723 0.04721 0.0
C690 C 0.38161 0.0534 0.03033 0.0
C691 C 0.39067 0.03198 0.03693 0.0
C692 C 0.38779 1.01427 0.02078 0.0
C693 C 0.37571 0.01773 0.99808 0.0
C694 C 0.36641 0.03889 0.99152 0.0
C695 C 0.36927 0.05666 1.00759 0.0
H696 H 0.37349 1.00402 0.98561 0.0
H697 H 0.39924 0.17387 0.14514 0.0
H698 H 0.23813 0.77706 0.67399 0.0
H699 H 0.20605 0.79089 0.64837 0.0
H700 H 0.18859 0.8366 0.70578 0.0
H701 H 0.22006 0.82196 0.73227 0.0
H702 H 0.15158 0.8202 0.68382 0.0
H703 H 0.21913 0.85371 0.65617 0.0
H704 H 0.2577 0.85385 0.64151 0.0
H705 H 0.23762 0.81753 0.57689 0.0
H706 H 0.19896 0.81691 0.59137 0.0
H707 H 0.09917 0.90969 0.61026 0.0
H708 H 0.12053 0.88367 0.63848 0.0
H709 H 0.13178 0.84006 0.57719 0.0
H710 H 0.11007 0.86591 0.54879 0.0
H711 H 0.17023 0.85188 0.60007 0.0
H712 H 0.10097 0.82278 0.6261 0.0
H713 H 0.0625 0.82446 0.64099 0.0
H714 H 0.08555 0.85445 0.70871 0.0
H715 H 0.12414 0.85326 0.69408 0.0
C716 C 0.22718 0.78962 0.68156 0.0
C717 C 0.23185 0.79849 0.70521 0.0
C718 C 0.20894 0.79768 0.66671 0.0
C719 C 0.19518 0.81508 0.67494 0.0
C720 C 0.19908 0.82325 0.69899 0.0
C721 C 0.21724 0.81504 0.71399 0.0
C722 C 0.17776 0.8258 0.65778 0.0
C723 C 0.15564 0.82727 0.66557 0.0
C724 C 0.18299 0.83464 0.63376 0.0
C725 C 0.20622 0.83504 0.625 0.0
C726 C 0.22298 0.8456 0.63894 0.0
C727 C 0.24485 0.84579 0.63065 0.0
C728 C 0.25013 0.83565 0.60832 0.0
C729 C 0.23352 0.82534 0.59421 0.0
C730 C 0.21163 0.82507 0.60244 0.0
C731 C 0.1055 0.89421 0.60289 0.0
C732 C 0.10303 0.88998 0.57718 0.0
C733 C 0.11778 0.87934 0.6191 0.0
C734 C 0.12776 0.85992 0.60995 0.0
C735 C 0.12427 0.855 0.58461 0.0
C736 C 0.11194 0.86983 0.5684 0.0
C737 C 0.14398 0.84635 0.62605 0.0
C738 C 0.166 0.84449 0.61813 0.0
C739 C 0.13864 0.83739 0.64997 0.0
C740 C 0.11545 0.83808 0.65889 0.0
C741 C 0.09782 0.8299 0.64408 0.0
C742 C 0.07599 0.83074 0.65249 0.0
C743 C 0.07158 0.8396 0.67576 0.0
C744 C 0.08899 0.8476 0.69069 0.0
C745 C 0.11086 0.84682 0.68236 0.0
H746 H 0.05466 0.84023 0.68224 0.0
H747 H 0.26707 0.83582 0.60193 0.0
H748 H 0.8146 0.41911 0.92539 0.0
H749 H 0.85215 0.43068 0.93694 0.0
H750 H 0.84489 0.48737 0.88477 0.0
H751 H 0.80689 0.47635 0.87359 0.0
H752 H 0.88565 0.46306 0.8816 0.0
H753 H 0.84128 0.49669 0.94419 0.0
H754 H 0.81358 0.49725 0.97734 0.0
H755 H 0.8537 0.44948 0.02205 0.0
H756 H 0.88149 0.44837 0.98898 0.0
H757 H 0.98208 0.51921 0.92474 0.0
H758 H 0.94444 0.50896 0.91129 0.0
H759 H 0.94454 0.45773 0.97044 0.0
H760 H 0.98194 0.46842 0.98439 0.0
H761 H 0.9068 0.4804 0.96934 0.0
H762 H 0.95058 0.4454 0.90737 0.0
H763 H 0.97835 0.44346 0.87436 0.0
H764 H 0.93982 0.49187 0.82874 0.0
H765 H 0.91196 0.49432 0.86163 0.0
C766 C 0.82077 0.43425 0.91662 0.0
C767 C 0.80758 0.4469 0.89869 0.0
C768 C 0.84232 0.44075 0.92315 0.0
C769 C 0.85119 0.45995 0.91183 0.0
C770 C 0.8383 0.47246 0.89368 0.0
C771 C 0.81663 0.46608 0.88726 0.0
C772 C 0.874 0.46682 0.91899 0.0
C773 C 0.89026 0.46719 0.90069 0.0
C774 C 0.88003 0.47161 0.94404 0.0
C775 C 0.86336 0.47229 0.96399 0.0
C776 C 0.8441 0.48615 0.96099 0.0
C777 C 0.8284 0.4866 0.97979 0.0
C778 C 0.83185 0.47337 1.00176 0.0
C779 C 0.85103 0.4597 1.00501 0.0
C780 C 0.86678 0.45917 0.98625 0.0
C781 C 0.97413 0.50562 0.93469 0.0
C782 C 0.98489 0.49453 0.95552 0.0
C783 C 0.95265 0.49973 0.92696 0.0
C784 C 0.94173 0.48239 0.93967 0.0
C785 C 0.95262 0.47115 0.96034 0.0
C786 C 0.97401 0.47719 0.96823 0.0
C787 C 0.91867 0.47646 0.932 0.0
C788 C 0.90229 0.4763 0.95022 0.0
C789 C 0.91259 0.47167 0.90691 0.0
C790 C 0.9293 0.47021 0.88708 0.0
C791 C 0.94812 0.45576 0.89038 0.0
C792 C 0.96386 0.45455 0.87167 0.0
C793 C 0.96088 0.46758 0.84949 0.0
C794 C 0.94213 0.48181 0.84594 0.0
C795 C 0.92634 0.4831 0.8646 0.0
H796 H 0.97309 0.46661 0.83503 0.0
H797 H 0.81968 0.47374 0.0163 0.0
H798 H 0.76358 0.66921 0.35315 0.0
H799 H 0.73949 0.64404 0.37588 0.0
H800 H 0.77251 0.66011 0.44576 0.0
H801 H 0.79774 0.68448 0.42289 0.0
H802 H 0.76444 0.6165 0.44533 0.0
H803 H 0.7216 0.6839 0.42808 0.0
H804 H 0.70513 0.71553 0.40226 0.0
H805 H 0.66846 0.66975 0.35752 0.0
H806 H 0.68497 0.63782 0.38285 0.0
H807 H 0.67239 0.58172 0.52041 0.0
H808 H 0.70224 0.60183 0.50003 0.0
H809 H 0.67904 0.57937 0.42808 0.0
H810 H 0.64964 0.55846 0.44832 0.0
H811 H 0.68256 0.62651 0.4313 0.0
H812 H 0.72608 0.55895 0.45038 0.0
H813 H 0.74225 0.52836 0.47798 0.0
H814 H 0.77694 0.57612 0.52198 0.0
H815 H 0.76071 0.60705 0.49484 0.0
C816 C 0.76606 0.66716 0.3733 0.0
C817 C 0.78266 0.67891 0.38617 0.0
C818 C 0.75205 0.65294 0.38632 0.0
C819 C 0.75394 0.65049 0.41256 0.0
C820 C 0.77069 0.66186 0.4255 0.0
C821 C 0.78493 0.67596 0.41243 0.0
C822 C 0.7381 0.63633 0.42633 0.0
C823 C 0.74653 0.61888 0.44255 0.0
C824 C 0.71472 0.63928 0.42247 0.0
C825 C 0.70468 0.65845 0.40723 0.0
C826 C 0.71015 0.68057 0.41262 0.0
C827 C 0.70079 0.69855 0.39809 0.0
C828 C 0.6858 0.69465 0.37823 0.0
C829 C 0.68009 0.67275 0.37289 0.0
C830 C 0.68943 0.6547 0.38735 0.0
C831 C 0.67397 0.5805 0.50034 0.0
C832 C 0.65846 0.56859 0.48598 0.0
C833 C 0.69099 0.5921 0.48873 0.0
C834 C 0.69274 0.5921 0.46259 0.0
C835 C 0.67784 0.57963 0.44829 0.0
C836 C 0.66098 0.56782 0.45989 0.0
C837 C 0.70891 0.60654 0.44994 0.0
C838 C 0.70048 0.62415 0.43404 0.0
C839 C 0.7322 0.6039 0.45441 0.0
C840 C 0.74198 0.58533 0.47074 0.0
C841 C 0.73698 0.56295 0.46609 0.0
C842 C 0.7462 0.54555 0.48162 0.0
C843 C 0.76056 0.5503 0.50176 0.0
C844 C 0.76579 0.57247 0.50639 0.0
C845 C 0.7566 0.58994 0.49092 0.0
H846 H 0.76769 0.5368 0.51376 0.0
H847 H 0.67856 0.7086 0.367 0.0
H848 H 0.13013 0.29024 0.13851 0.0
H849 H 0.11061 0.32429 0.12248 0.0
H850 H 0.14428 0.31987 0.05273 0.0
H851 H 0.16354 0.28529 0.06832 0.0
H852 H 0.1429 0.36291 0.06612 0.0
H853 H 0.08768 0.30668 0.05872 0.0
H854 H 0.06431 0.27582 0.07351 0.0
H855 H 0.03536 0.31847 0.12752 0.0
H856 H 0.0588 0.34951 0.11328 0.0
H857 H 0.07686 0.4483 0.99979 0.0
H858 H 0.09614 0.41346 0.01454 0.0
H859 H 0.05483 0.4105 0.07907 0.0
H860 H 0.03475 0.44481 0.06358 0.0
H861 H 0.06053 0.37079 0.06811 0.0
H862 H 0.11598 0.42691 0.07686 0.0
H863 H 0.14014 0.45762 0.06351 0.0
H864 H 0.16927 0.41583 1.00886 0.0
H865 H 0.14496 0.38495 0.02163 0.0
C866 C 0.1333 0.29605 0.11956 0.0
C867 C 0.14859 0.28421 0.10489 0.0
C868 C 0.12201 0.31589 0.11035 0.0
C869 C 0.12545 0.32497 0.08605 0.0
C870 C 0.14104 0.31356 0.07151 0.0
C871 C 0.15226 0.29358 0.08064 0.0
C872 C 0.11292 0.3462 0.07597 0.0
C873 C 0.12485 0.36444 0.06631 0.0
C874 C 0.0893 0.34895 0.07655 0.0
C875 C 0.07515 0.33035 0.0851 0.0
C876 C 0.07646 0.30943 0.07388 0.0
C877 C 0.06318 0.29191 0.08215 0.0
C878 C 0.0484 0.29516 0.10149 0.0
C879 C 0.04684 0.31596 0.11257 0.0
C880 C 0.0601 0.33353 0.10439 0.0
C881 C 0.07192 0.44035 0.01722 0.0
C882 C 0.05426 0.4498 0.0305 0.0
C883 C 0.08319 0.42031 0.02585 0.0
C884 C 0.07779 0.40913 0.04856 0.0
C885 C 0.05979 0.4184 0.06161 0.0
C886 C 0.04819 0.43823 0.05269 0.0
C887 C 0.09048 0.38779 0.05838 0.0
C888 C 0.07858 0.36943 0.06797 0.0
C889 C 0.11418 0.38503 0.05795 0.0
C890 C 0.12859 0.40366 0.0501 0.0
C891 C 0.12746 0.42431 0.0619 0.0
C892 C 0.1412 0.44173 0.05447 0.0
C893 C 0.1563 0.43863 0.03539 0.0
C894 C 0.15765 0.41814 0.0237 0.0
C895 C 0.14388 0.40069 0.031 0.0
H896 H 0.1669 0.45212 0.02958 0.0
H897 H 0.03814 0.28159 0.10786 0.0
H898 H 0.62409 0.32754 0.94381 0.0
H899 H 0.60876 0.2915 0.95662 0.0
H900 H 0.67295 0.25922 0.9474 0.0
H901 H 0.68827 0.29513 0.93416 0.0
H902 H 0.64003 0.2407 0.91986 0.0
H903 H 0.65152 0.26129 1.00483 0.0
H904 H 0.64919 0.28542 0.04123 0.0
H905 H 0.57765 0.28403 0.03624 0.0
H906 H 0.57951 0.26015 0.99957 0.0
H907 H 0.60148 0.13317 0.94974 0.0
H908 H 0.62276 0.16744 0.95275 0.0
H909 H 0.56198 0.2052 0.96455 0.0
H910 H 0.54071 0.17076 0.96226 0.0
H911 H 0.59582 0.2197 0.99374 0.0
H912 H 0.58385 0.20361 0.90668 0.0
H913 H 0.58505 0.18036 0.86944 0.0
H914 H 0.65646 0.17477 0.87745 0.0
H915 H 0.65565 0.19774 0.91497 0.0
C916 C 0.63502 0.31282 0.94497 0.0
C917 C 0.65732 0.3141 0.9378 0.0
C918 C 0.6263 0.29228 0.95249 0.0
C919 C 0.63974 0.2727 0.95298 0.0
C920 C 0.66234 0.27416 0.9472 0.0
C921 C 0.67109 0.29471 0.93979 0.0
C922 C 0.62954 0.25052 0.95622 0.0
C923 C 0.63079 0.2359 0.93629 0.0
C924 C 0.61687 0.24464 0.97726 0.0
C925 C 0.61566 0.25907 0.99928 0.0
C926 C 0.63528 0.26629 0.01134 0.0
C927 C 0.63404 0.2799 0.03206 0.0
C928 C 0.61329 0.2863 0.04101 0.0
C929 C 0.59372 0.27908 0.02928 0.0
C930 C 0.59485 0.26548 1.00854 0.0
C931 C 0.59272 0.1488 0.95307 0.0
C932 C 0.56947 0.14947 0.95543 0.0
C933 C 0.60486 0.16832 0.95484 0.0
C934 C 0.59389 0.18891 0.95848 0.0
C935 C 0.57075 0.18948 0.96171 0.0
C936 C 0.55863 0.16987 0.96031 0.0
C937 C 0.60634 0.21001 0.95737 0.0
C938 C 0.60537 0.22443 0.97754 0.0
C939 C 0.61913 0.2159 0.93641 0.0
C940 C 0.61967 0.20218 0.91378 0.0
C941 C 0.59979 0.19728 0.90061 0.0
C942 C 0.60041 0.18418 0.87944 0.0
C943 C 0.62082 0.17604 0.87113 0.0
C944 C 0.64066 0.18105 0.88393 0.0
C945 C 0.64014 0.19412 0.90514 0.0
H946 H 0.62126 0.1659 0.85473 0.0
H947 H 0.61237 0.29682 0.05706 0.0
H948 H 0.88335 0.85387 0.39068 0.0
H949 H 0.90492 0.88358 0.40937 0.0
H950 H 0.96333 0.86094 0.37142 0.0
H951 H 0.94176 0.83127 0.35251 0.0
H952 H 0.94028 0.88341 0.44022 0.0
H953 H 0.99432 0.90611 0.35562 0.0
H954 H 0.99241 0.90503 0.3094 0.0
H955 H 0.92085 0.9094 0.30988 0.0
H956 H 0.92235 0.91081 0.35605 0.0
H957 H 0.01954 0.95902 0.4836 0.0
H958 H 1.0043 0.92709 0.46192 0.0
H959 H 0.96635 0.97243 0.41113 0.0
H960 H 0.98241 1.00435 0.43198 0.0
H961 H 0.97995 0.93803 0.38664 0.0
H962 H 0.94409 0.94822 0.46529 0.0
H963 H 0.94405 0.95199 0.51116 0.0
H964 H 0.97331 0.8859 0.52202 0.0
H965 H 0.97393 0.88192 0.47615 0.0
C966 C 0.90083 0.85512 0.38648 0.0
C967 C 0.91085 0.84031 0.37005 0.0
C968 C 0.91313 0.87211 0.39714 0.0
C969 C 0.93568 0.87461 0.3916 0.0
C970 C 0.94585 0.85956 0.37561 0.0
C971 C 0.93351 0.84265 0.3648 0.0
C972 C 0.94838 0.89318 0.40238 0.0
C973 C 0.94901 0.8953 0.4285 0.0
C974 C 0.95957 0.90885 0.38709 0.0
C975 C 0.95847 0.90831 0.3593 0.0
C976 C 0.97819 0.90691 0.34584 0.0
C977 C 0.97717 0.90624 0.31966 0.0
C978 C 0.95652 0.90707 0.30672 0.0
C979 C 0.93684 0.90867 0.31993 0.0
C980 C 0.93776 0.90938 0.34611 0.0
C981 C 1.00824 0.96212 0.46753 0.0
C982 C 1.00195 0.98409 0.45958 0.0
C983 C 0.99946 0.94389 0.45525 0.0
C984 C 0.98377 0.94735 0.43527 0.0
C985 C 0.97835 0.96933 0.42656 0.0
C986 C 0.98746 0.98756 0.43854 0.0
C987 C 0.97187 0.92826 0.42447 0.0
C988 C 0.97139 0.92602 0.39837 0.0
C989 C 0.96034 0.91279 0.43973 0.0
C990 C 0.95924 0.91486 0.4673 0.0
C991 C 0.95057 0.93452 0.47747 0.0
C992 C 0.95047 0.9367 0.50347 0.0
C993 C 0.95872 0.91921 0.51951 0.0
C994 C 0.96696 0.89945 0.50957 0.0
C995 C 0.9672 0.89722 0.48357 0.0
H996 H 0.95873 0.92095 0.53963 0.0
H997 H 0.95577 0.90652 0.28645 0.0
H998 H 0.42374 0.67583 0.71747 0.0
H999 H 0.44214 0.64866 0.69122 0.0
H1000 H 0.38801 0.65636 0.63617 0.0
H1001 H 0.36975 0.68385 0.66192 0.0
H1002 H 0.40075 0.61203 0.64527 0.0
H1003 H 0.43528 0.68212 0.62601 0.0
H1004 H 0.45497 0.71664 0.63585 0.0
H1005 H 0.51017 0.67745 0.66851 0.0
H1006 H 0.49066 0.64268 0.65917 0.0
H1007 H 0.45308 0.56204 0.54266 0.0
H1008 H 0.43362 0.58712 0.57033 0.0
H1009 H 0.49163 0.58623 0.62043 0.0
H1010 H 0.51146 0.56188 0.59236 0.0
H1011 H 0.47641 0.62668 0.61457 0.0
H1012 H 0.44234 0.55612 0.63256 0.0
H1013 H 0.42236 0.5217 0.62297 0.0
H1014 H 0.36624 0.56112 0.59304 0.0
H1015 H 0.38598 0.5958 0.60215 0.0
C1016 C 0.41581 0.67188 0.6997 0.0
C1017 C 0.39525 0.68209 0.69184 0.0
C1018 C 0.4263 0.65626 0.68478 0.0
C1019 C 0.41647 0.65057 0.6617 0.0
C1020 C 0.39581 0.66041 0.65399 0.0
C1021 C 0.38536 0.67609 0.66881 0.0
C1022 C 0.42799 0.63483 0.64522 0.0
C1023 C 0.41722 0.61527 0.63833 0.0
C1024 C 0.44961 0.63892 0.63658 0.0
C1025 C 0.46141 0.65981 0.64213 0.0
C1026 C 0.45154 0.68087 0.63548 0.0
C1027 C 0.46268 0.70048 0.64093 0.0
C1028 C 0.48378 0.69924 0.65287 0.0
C1029 C 0.49381 0.67838 0.65931 0.0
C1030 C 0.48272 0.65872 0.65393 0.0
C1031 C 0.46169 0.56719 0.55958 0.0
C1032 C 0.48383 0.56 0.56531 0.0
C1033 C 0.45047 0.5814 0.5755 0.0
C1034 C 0.461 0.5883 0.59774 0.0
C1035 C 0.48312 0.58113 0.60342 0.0
C1036 C 0.49445 0.5672 0.58734 0.0
C1037 C 0.44932 0.60361 0.61468 0.0
C1038 C 0.46002 0.62322 0.62159 0.0
C1039 C 0.42764 0.59948 0.62336 0.0
C1040 C 0.41574 0.57859 0.61785 0.0
C1041 C 0.4258 0.55747 0.62377 0.0
C1042 C 0.4145 0.5379 0.61845 0.0
C1043 C 0.39304 0.53922 0.6074 0.0
C1044 C 0.38285 0.56012 0.60163 0.0
C1045 C 0.39408 0.57974 0.60688 0.0
H1046 H 0.3843 0.52406 0.60334 0.0
H1047 H 0.49238 0.71444 0.65707 0.0
H1048 H 0.9365 0.88641 0.74847 0.0
H1049 H 0.95534 0.90292 0.71296 0.0
H1050 H 0.90088 0.95068 0.70005 0.0
H1051 H 0.881 0.93311 0.73443 0.0
H1052 H 0.9131 0.94103 0.65712 0.0
H1053 H 0.95708 0.96224 0.72831 0.0
H1054 H 0.97948 0.95679 0.76774 0.0
H1055 H 0.02657 0.91528 0.73053 0.0
H1056 H 1.0043 0.92026 0.69094 0.0
H1057 H 0.97227 1.01456 0.57493 0.0
H1058 H 0.95305 0.99751 0.61028 0.0
H1059 H 1.00389 0.9453 0.61762 0.0
H1060 H 0.02337 0.96249 0.58234 0.0
H1061 H 0.99366 0.95744 0.66317 0.0
H1062 H 0.94828 0.9371 0.59153 0.0
H1063 H 0.9252 0.9439 0.55274 0.0
H1064 H 0.88057 0.98653 0.59183 0.0
H1065 H 0.90334 0.98002 0.63088 0.0
C1066 C 0.92812 0.90019 0.73806 0.0
C1067 C 0.90681 0.90807 0.74501 0.0
C1068 C 0.93933 0.91006 0.7177 0.0
C1069 C 0.9301 0.92866 0.70358 0.0
C1070 C 0.9088 0.93652 0.71034 0.0
C1071 C 0.89741 0.92648 0.73052 0.0
C1072 C 0.94232 0.93959 0.68172 0.0
C1073 C 0.93065 0.94486 0.65879 0.0
C1074 C 0.96547 0.94447 0.68298 0.0
C1075 C 0.9789 0.94144 0.70673 0.0
C1076 C 0.97213 0.95182 0.72858 0.0
C1077 C 0.98482 0.94884 0.75095 0.0
C1078 C 1.0044 0.93565 0.75166 0.0
C1079 C 1.01138 0.92546 0.72997 0.0
C1080 C 0.99874 0.92838 0.70755 0.0
C1081 C 0.97948 0.99943 0.58396 0.0
C1082 C 0.99958 0.99006 0.57536 0.0
C1083 C 0.96826 0.9895 0.60428 0.0
C1084 C 0.97657 0.96969 0.61686 0.0
C1085 C 0.99682 0.96046 0.60853 0.0
C1086 C 1.00803 0.97037 0.58813 0.0
C1087 C 0.96441 0.95884 0.63872 0.0
C1088 C 0.9761 0.95359 0.66161 0.0
C1089 C 0.94123 0.95423 0.63754 0.0
C1090 C 0.92763 0.95824 0.61405 0.0
C1091 C 0.93363 0.94805 0.5918 0.0
C1092 C 0.9206 0.95183 0.56979 0.0
C1093 C 0.90153 0.96573 0.56978 0.0
C1094 C 0.89537 0.97581 0.59184 0.0
C1095 C 0.90829 0.97203 0.61394 0.0
H1096 H 0.89148 0.96863 0.5527 0.0
H1097 H 1.0142 0.93336 0.76899 0.0
H1098 H 0.613 0.18184 0.19614 0.0
H1099 H 0.5986 0.15524 0.16607 0.0
H1100 H 0.63457 0.18806 0.10713 0.0
H1101 H 0.64931 0.21459 0.13726 0.0
H1102 H 0.58751 0.17568 0.09484 0.0
H1103 H 0.65787 0.14489 0.12848 0.0
H1104 H 0.68472 0.13331 0.16276 0.0
H1105 H 0.63783 0.08674 0.192 0.0
H1106 H 0.61056 0.09831 0.1581 0.0
H1107 H 0.56973 0.0886 1.00933 0.0
H1108 H 0.58678 0.11794 0.03385 0.0
H1109 H 0.57618 0.07899 0.10206 0.0
H1110 H 0.56075 0.04908 0.07741 0.0
H1111 H 0.6129 0.09634 0.10757 0.0
H1112 H 0.54178 0.12672 0.07594 0.0
H1113 H 0.51309 0.13933 0.04403 0.0
H1114 H 0.5579 0.18751 0.01386 0.0
H1115 H 0.58713 0.17465 0.04494 0.0
C1116 C 0.61754 0.1836 0.17669 0.0
C1117 C 0.63227 0.20024 0.16899 0.0
C1118 C 0.6094 0.16836 0.15959 0.0
C1119 C 0.61564 0.16967 0.13447 0.0
C1120 C 0.62959 0.18682 0.12646 0.0
C1121 C 0.63804 0.20186 0.14366 0.0
C1122 C 0.60845 0.15236 0.11697 0.0
C1123 C 0.5932 0.15834 0.09729 0.0
C1124 C 0.61564 0.12977 0.12065 0.0
C1125 C 0.63211 0.12262 0.14089 0.0
C1126 C 0.65322 0.13232 0.14234 0.0
C1127 C 0.66852 0.12573 0.16168 0.0
C1128 C 0.66297 0.10934 0.17958 0.0
C1129 C 0.64211 0.09945 0.17814 0.0
C1130 C 0.62673 0.10601 0.15886 0.0
C1131 C 0.5713 0.08629 0.02956 0.0
C1132 C 0.56399 0.0666 0.04153 0.0
C1133 C 0.58084 0.10316 0.0436 0.0
C1134 C 0.58236 0.10104 0.06997 0.0
C1135 C 0.57528 0.08114 0.08179 0.0
C1136 C 0.56644 0.06401 0.06771 0.0
C1137 C 0.59127 0.11933 0.08545 0.0
C1138 C 0.60705 0.1136 0.10483 0.0
C1139 C 0.58423 0.14212 0.08167 0.0
C1140 C 0.56676 0.14951 0.06261 0.0
C1141 C 0.54562 0.13979 0.06229 0.0
C1142 C 0.52926 0.14698 0.04431 0.0
C1143 C 0.53371 0.16412 0.02683 0.0
C1144 C 0.55454 0.17409 0.02724 0.0
C1145 C 0.57102 0.16683 0.045 0.0
H1146 H 0.52101 0.16971 0.01297 0.0
H1147 H 0.67484 0.10426 0.19454 0.0
H1148 H 0.39716 0.63834 0.30088 0.0
H1149 H 0.41915 0.62717 0.33877 0.0
H1150 H 0.39958 0.55874 0.33088 0.0
H1151 H 0.37756 0.56981 0.29268 0.0
H1152 H 0.4003 0.57206 0.38086 0.0
H1153 H 0.44827 0.57331 0.31033 0.0
H1154 H 0.46494 0.58992 0.27256 0.0
H1155 H 0.49158 0.64275 0.31608 0.0
H1156 H 0.47476 0.62663 0.35406 0.0
H1157 H 0.48953 0.51718 0.45091 0.0
H1158 H 0.46356 0.53033 0.41702 0.0
H1159 H 0.48225 0.59848 0.42893 0.0
H1160 H 0.50804 0.58542 0.4634 0.0
H1161 H 0.48146 0.5861 0.37795 0.0
H1162 H 0.435 0.58439 0.44876 0.0
H1163 H 0.41871 0.56796 0.48683 0.0
H1164 H 0.3897 0.51624 0.44354 0.0
H1165 H 0.40616 0.53214 0.4052 0.0
C1166 C 0.39749 0.62091 0.30722 0.0
C1167 C 0.38593 0.60487 0.29359 0.0
C1168 C 0.40997 0.61459 0.32892 0.0
C1169 C 0.41125 0.59209 0.33736 0.0
C1170 C 0.39881 0.57619 0.3246 0.0
C1171 C 0.38625 0.58253 0.30282 0.0
C1172 C 0.42669 0.58508 0.35855 0.0
C1173 C 0.41807 0.57487 0.38015 0.0
C1174 C 0.4498 0.58923 0.35776 0.0
C1175 C 0.46006 0.59889 0.33498 0.0
C1176 C 0.45753 0.58857 0.31181 0.0
C1177 C 0.46703 0.59788 0.29037 0.0
C1178 C 0.47926 0.61741 0.29191 0.0
C1179 C 0.48207 0.62764 0.31491 0.0
C1180 C 0.47257 0.61842 0.3364 0.0
C1181 C 0.48803 0.53498 0.44641 0.0
C1182 C 0.5006 0.55034 0.45988 0.0
C1183 C 0.47319 0.54244 0.42708 0.0
C1184 C 0.47087 0.56536 0.42072 0.0
C1185 C 0.4838 0.58072 0.43371 0.0
C1186 C 0.49847 0.57327 0.45332 0.0
C1187 C 0.45509 0.57311 0.40023 0.0
C1188 C 0.46367 0.58339 0.37872 0.0
C1189 C 0.43199 0.56901 0.40115 0.0
C1190 C 0.42197 0.55937 0.42411 0.0
C1191 C 0.42531 0.56939 0.44736 0.0
C1192 C 0.41602 0.5602 0.46899 0.0
C1193 C 0.40315 0.5411 0.46758 0.0
C1194 C 0.39964 0.53107 0.44457 0.0
C1195 C 0.40894 0.54018 0.42287 0.0
H1196 H 0.39584 0.53414 0.48432 0.0
H1197 H 0.48661 0.62459 0.27529 0.0
H1198 H 0.15535 0.29783 0.84151 0.0
H1199 H 0.14796 0.31286 0.8824 0.0
H1200 H 0.21048 0.34704 0.88146 0.0
H1201 H 0.21889 0.3305 0.84174 0.0
H1202 H 0.19935 0.34148 0.92796 0.0
H1203 H 0.16174 0.36978 0.851 0.0
H1204 H 0.13804 0.36678 0.81267 0.0
H1205 H 0.08337 0.34592 0.85724 0.0
H1206 H 0.1069 0.34851 0.89583 0.0
H1207 H 0.17095 0.45571 0.95206 0.0
H1208 H 0.18367 0.41862 0.9391 0.0
H1209 H 0.12206 0.39051 0.96336 0.0
H1210 H 0.10928 0.42747 0.97588 0.0
H1211 H 0.12974 0.38715 0.9125 0.0
H1212 H 0.16803 0.36772 0.9906 0.0
H1213 H 0.19311 0.37426 0.02705 0.0
H1214 H 0.24793 0.38296 0.97808 0.0
H1215 H 0.22307 0.37669 0.94136 0.0
C1216 C 0.16805 0.30763 0.85052 0.0
C1217 C 0.18733 0.31371 0.83785 0.0
C1218 C 0.1637 0.3164 0.87386 0.0
C1219 C 0.17818 0.33191 0.88441 0.0
C1220 C 0.19881 0.33548 0.87348 0.0
C1221 C 0.20344 0.32625 0.85052 0.0
C1222 C 0.17034 0.34752 0.9035 0.0
C1223 C 0.18407 0.35139 0.92468 0.0
C1224 C 0.15034 0.36045 0.89935 0.0
C1225 C 0.13613 0.35905 0.87622 0.0
C1226 C 0.1447 0.36444 0.85259 0.0
C1227 C 0.1313 0.36281 0.83083 0.0
C1228 C 0.10923 0.35609 0.83251 0.0
C1229 C 0.10049 0.35106 0.85597 0.0
C1230 C 0.11384 0.35259 0.87778 0.0
C1231 C 0.16047 0.44144 0.95524 0.0
C1232 C 0.13922 0.44432 0.96508 0.0
C1233 C 0.1678 0.42027 0.94808 0.0
C1234 C 0.15385 0.40181 0.95047 0.0
C1235 C 0.13316 0.40448 0.96165 0.0
C1236 C 0.12593 0.42555 0.96891 0.0
C1237 C 0.15881 0.38127 0.9368 0.0
C1238 C 0.14461 0.37672 0.91635 0.0
C1239 C 0.17857 0.36822 0.94135 0.0
C1240 C 0.19365 0.37194 0.96328 0.0
C1241 C 0.18539 0.37122 0.98764 0.0
C1242 C 0.19958 0.3748 1.00834 0.0
C1243 C 0.22209 0.37909 1.00488 0.0
C1244 C 0.23048 0.37967 0.98073 0.0
C1245 C 0.21636 0.37605 0.95998 0.0
H1246 H 0.23305 0.3819 0.02092 0.0
H1247 H 0.09888 0.35485 0.81565 0.0
H1248 H 0.72682 0.87801 0.89053 0.0
H1249 H 0.69253 0.89554 0.90567 0.0
H1250 H 0.72948 0.95299 0.92731 0.0
H1251 H 0.76374 0.93573 0.91176 0.0
H1252 H 0.69883 0.93869 0.96491 0.0
H1253 H 0.69658 0.95701 0.87602 0.0
H1254 H 0.69724 0.94831 0.8312 0.0
H1255 H 0.63984 0.90744 0.83947 0.0
H1256 H 0.63903 0.91565 0.88444 0.0
H1257 H 0.60351 1.00857 0.9924 0.0
H1258 H 0.63875 0.99187 0.97896 0.0
H1259 H 0.60199 0.94781 0.93146 0.0
H1260 H 0.56708 0.96582 0.94341 0.0
H1261 H 0.63383 0.95536 0.90703 0.0
H1262 H 0.63543 0.93359 0.99431 0.0
H1263 H 0.63426 0.9386 0.03995 0.0
H1264 H 0.69129 0.98055 0.03668 0.0
H1265 H 0.69264 0.97599 0.99095 0.0
C1266 C 0.7278 0.89435 0.89857 0.0
C1267 C 0.74846 0.90527 0.89968 0.0
C1268 C 0.70797 0.9045 0.90721 0.0
C1269 C 0.70796 0.92585 0.91779 0.0
C1270 C 0.72863 0.9366 0.91936 0.0
C1271 C 0.74838 0.92667 0.91023 0.0
C1272 C 0.68651 0.93699 0.92678 0.0
C1273 C 0.68472 0.94254 0.95213 0.0
C1274 C 0.66748 0.94161 0.91069 0.0
C1275 C 0.66788 0.93677 0.88364 0.0
C1276 C 0.68421 0.94602 0.86832 0.0
C1277 C 0.68459 0.94121 0.84288 0.0
C1278 C 0.66862 0.92728 0.83251 0.0
C1279 C 0.65221 0.9182 0.84754 0.0
C1280 C 0.65178 0.92294 0.873 0.0
C1281 C 0.60293 0.99517 0.97928 0.0
C1282 C 0.58214 0.98856 0.96926 0.0
C1283 C 0.62332 0.98533 0.9716 0.0
C1284 C 0.62381 0.96784 0.95427 0.0
C1285 C 0.60284 0.96114 0.94465 0.0
C1286 C 0.58259 0.97142 0.95174 0.0
C1287 C 0.64572 0.95695 0.94553 0.0
C1288 C 0.64773 0.95148 0.92007 0.0
C1289 C 0.66473 0.95185 0.96173 0.0
C1290 C 0.66398 0.95464 0.98918 0.0
C1291 C 0.64763 0.94399 1.00331 0.0
C1292 C 0.64695 0.94674 0.02919 0.0
C1293 C 0.66265 0.95994 0.04119 0.0
C1294 C 0.67911 0.97037 0.02735 0.0
C1295 C 0.67986 0.9677 1.00145 0.0
H1296 H 0.6621 0.96205 0.06123 0.0
H1297 H 0.66894 0.92358 0.81281 0.0
H1298 H 0.779 0.17754 0.30888 0.0
H1299 H 0.81061 0.15884 0.33155 0.0
H1300 H 0.83519 0.22289 0.35298 0.0
H1301 H 0.80405 0.24181 0.32948 0.0
H1302 H 0.86904 0.19507 0.34142 0.0
H1303 H 0.80544 0.19168 0.39332 0.0
H1304 H 0.76665 0.18352 0.40377 0.0
H1305 H 0.77891 0.11372 0.39157 0.0
H1306 H 0.81771 0.12151 0.38069 0.0
H1307 H 0.93628 0.15509 0.44796 0.0
H1308 H 0.90826 0.17449 0.42002 0.0
H1309 H 0.8857 0.11089 0.39464 0.0
H1310 H 0.91342 0.09142 0.4227 0.0
H1311 H 0.85129 0.13875 0.40798 0.0
H1312 H 0.91587 0.14285 0.35708 0.0
H1313 H 0.95474 0.15183 0.34787 0.0
H1314 H 0.94071 0.22136 0.35992 0.0
H1315 H 0.90181 0.21274 0.36957 0.0
C1316 C 0.79137 0.1877 0.31795 0.0
C1317 C 0.78891 0.21118 0.31751 0.0
C1318 C 0.80931 0.17697 0.33112 0.0
C1319 C 0.82502 0.18946 0.34432 0.0
C1320 C 0.82317 0.21292 0.34305 0.0
C1321 C 0.80527 0.22369 0.32979 0.0
C1322 C 0.8428 0.17801 0.36033 0.0
C1323 C 0.86517 0.18293 0.35616 0.0
C1324 C 0.83773 0.16198 0.37935 0.0
C1325 C 0.81441 0.15722 0.38594 0.0
C1326 C 0.79982 0.17462 0.39267 0.0
C1327 C 0.77784 0.17006 0.3987 0.0
C1328 C 0.7703 0.14813 0.39827 0.0
C1329 C 0.78476 0.1307 0.39186 0.0
C1330 C 0.80675 0.13518 0.38577 0.0
C1331 C 0.92535 0.14528 0.43639 0.0
C1332 C 0.92706 0.12175 0.43745 0.0
C1333 C 0.90949 0.15636 0.42033 0.0
C1334 C 0.89504 0.1441 0.40516 0.0
C1335 C 0.89676 0.12064 0.40614 0.0
C1336 C 0.9127 0.10956 0.42204 0.0
C1337 C 0.87753 0.15566 0.38894 0.0
C1338 C 0.85517 0.15082 0.39317 0.0
C1339 C 0.88263 0.17188 0.37016 0.0
C1340 C 0.90599 0.17711 0.36429 0.0
C1341 C 0.92112 0.16003 0.35798 0.0
C1342 C 0.94315 0.16506 0.35264 0.0
C1343 C 0.95021 0.18714 0.35337 0.0
C1344 C 0.93523 0.20425 0.35939 0.0
C1345 C 0.91318 0.19931 0.36477 0.0
H1346 H 0.96727 0.191 0.34923 0.0
H1347 H 0.75328 0.14463 0.40295 0.0
H1348 H 0.21183 0.6382 0.12357 0.0
H1349 H 0.17671 0.62461 0.1063 0.0
H1350 H 0.19467 0.55768 0.1341 0.0
H1351 H 0.23031 0.57098 0.15047 0.0
H1352 H 0.17985 0.55717 0.087 0.0
H1353 H 0.15453 0.58993 0.16194 0.0
H1354 H 0.14988 0.61957 0.19247 0.0
H1355 H 0.11558 0.66167 0.13602 0.0
H1356 H 0.12029 0.63238 0.10503 0.0
H1357 H 0.06936 0.51219 0.07944 0.0
H1358 H 0.10453 0.52676 0.09603 0.0
H1359 H 0.09596 0.58527 0.04666 0.0
H1360 H 0.06108 0.57039 0.02933 0.0
H1361 H 0.10551 0.59055 0.10383 0.0
H1362 H 0.13192 0.55766 0.02889 0.0
H1363 H 0.13869 0.52859 0.99822 0.0
H1364 H 0.17135 0.48646 0.05582 0.0
H1365 H 0.16452 0.51517 0.0869 0.0
C1366 C 0.20835 0.62057 0.12595 0.0
C1367 C 0.22392 0.60565 0.13832 0.0
C1368 C 0.18815 0.61287 0.11631 0.0
C1369 C 0.18297 0.59017 0.11911 0.0
C1370 C 0.19831 0.57529 0.13178 0.0
C1371 C 0.21858 0.58295 0.14133 0.0
C1372 C 0.16204 0.58174 0.1078 0.0
C1373 C 0.16358 0.56426 0.09101 0.0
C1374 C 0.14085 0.5914 0.1125 0.0
C1375 C 0.13796 0.60904 0.1311 0.0
C1376 C 0.14616 0.60558 0.15597 0.0
C1377 C 0.14348 0.6223 0.17337 0.0
C1378 C 0.13249 0.64251 0.16617 0.0
C1379 C 0.12411 0.64602 0.14156 0.0
C1380 C 0.12676 0.62935 0.12408 0.0
C1381 C 0.07501 0.52814 0.07213 0.0
C1382 C 0.06256 0.54027 0.05325 0.0
C1383 C 0.09508 0.53636 0.08151 0.0
C1384 C 0.10272 0.55702 0.07249 0.0
C1385 C 0.09024 0.56927 0.05376 0.0
C1386 C 0.07042 0.56079 0.04393 0.0
C1387 C 0.12347 0.56601 0.08325 0.0
C1388 C 0.12184 0.58352 0.09994 0.0
C1389 C 0.14456 0.55631 0.07861 0.0
C1390 C 0.1474 0.53843 0.06031 0.0
C1391 C 0.14013 0.54201 0.03513 0.0
C1392 C 0.14406 0.52562 0.01763 0.0
C1393 C 0.15525 0.50558 0.02509 0.0
C1394 C 0.16251 0.50189 0.05007 0.0
C1395 C 0.15864 0.51822 0.06764 0.0
H1396 H 0.15847 0.49301 0.01146 0.0
H1397 H 0.13043 0.65544 0.17967 0.0
H1398 H 0.20886 0.40832 0.61054 0.0
H1399 H 0.23088 0.43718 0.58955 0.0
H1400 H 0.28628 0.42133 0.64136 0.0
H1401 H 0.26428 0.39311 0.66255 0.0
H1402 H 0.28247 0.46509 0.63371 0.0
H1403 H 0.28123 0.39969 0.58046 0.0
H1404 H 0.26223 0.37225 0.55428 0.0
H1405 H 0.23354 0.42572 0.50686 0.0
H1406 H 0.2522 0.45348 0.53296 0.0
H1407 H 0.38479 0.47904 0.57852 0.0
H1408 H 0.35018 0.46907 0.59808 0.0
H1409 H 0.31252 0.49586 0.53299 0.0
H1410 H 0.34747 0.50537 0.51294 0.0
H1411 H 0.29943 0.45597 0.54422 0.0
H1412 H 0.30976 0.52047 0.59194 0.0
H1413 H 0.33102 0.54691 0.61719 0.0
H1414 H 0.34367 0.49567 0.67469 0.0
H1415 H 0.32274 0.4688 0.64968 0.0
C1416 C 0.22573 0.41111 0.61738 0.0
C1417 C 0.2349 0.39854 0.63814 0.0
C1418 C 0.23826 0.42759 0.60546 0.0
C1419 C 0.26029 0.43136 0.61381 0.0
C1420 C 0.26927 0.41892 0.63471 0.0
C1421 C 0.25671 0.40273 0.64677 0.0
C1422 C 0.27476 0.4472 0.60028 0.0
C1423 C 0.28617 0.46318 0.61411 0.0
C1424 C 0.27895 0.44533 0.57448 0.0
C1425 C 0.26786 0.42863 0.55881 0.0
C1426 C 0.27075 0.40558 0.56454 0.0
C1427 C 0.26007 0.38997 0.54971 0.0
C1428 C 0.24663 0.39724 0.52897 0.0
C1429 C 0.24391 0.42012 0.52297 0.0
C1430 C 0.25453 0.43579 0.53776 0.0
C1431 C 0.36913 0.48336 0.56863 0.0
C1432 C 0.36879 0.49296 0.54421 0.0
C1433 C 0.34929 0.47773 0.57988 0.0
C1434 C 0.32866 0.48199 0.56717 0.0
C1435 C 0.32823 0.49246 0.54317 0.0
C1436 C 0.34815 0.49786 0.53174 0.0
C1437 C 0.308 0.47312 0.57795 0.0
C1438 C 0.29533 0.45849 0.56359 0.0
C1439 C 0.30271 0.47625 0.60328 0.0
C1440 C 0.31466 0.49258 0.61887 0.0
C1441 C 0.3171 0.51481 0.60995 0.0
C1442 C 0.32913 0.52987 0.62421 0.0
C1443 C 0.33873 0.52297 0.6475 0.0
C1444 C 0.3362 0.501 0.65665 0.0
C1445 C 0.3242 0.48586 0.64247 0.0
H1446 H 0.34811 0.53463 0.65846 0.0
H1447 H 0.23837 0.38514 0.51751 0.0
H1448 H 0.93481 0.75597 0.887 0.0
H1449 H 0.95319 0.7212 0.90268 0.0
H1450 H 0.89224 0.70053 0.93596 0.0
H1451 H 0.87344 0.73521 0.91986 0.0
H1452 H 0.9263 0.6894 0.96796 0.0
H1453 H 0.91276 0.67743 0.88053 0.0
H1454 H 0.91406 0.68599 0.83504 0.0
H1455 H 0.98568 0.68453 0.83995 0.0
H1456 H 0.98481 0.67624 0.88555 0.0
H1457 H 0.9621 0.57523 0.99417 0.0
H1458 H 0.94295 0.60995 0.97904 0.0
H1459 H 1.00186 0.62965 0.94062 0.0
H1460 H 0.02098 0.59461 0.95536 0.0
H1461 H 0.96834 0.64122 0.9112 0.0
H1462 H 0.98255 0.65396 0.99799 0.0
H1463 H 0.98211 0.64679 0.04378 0.0
H1464 H 0.91047 0.64768 0.0405 0.0
H1465 H 0.91048 0.65458 0.99464 0.0
C1466 C 0.92497 0.74405 0.89728 0.0
C1467 C 0.90221 0.74892 0.90162 0.0
C1468 C 0.93572 0.72391 0.90644 0.0
C1469 C 0.92429 0.70757 0.9204 0.0
C1470 C 0.90174 0.71252 0.9253 0.0
C1471 C 0.89091 0.73267 0.91605 0.0
C1472 C 0.93583 0.68556 0.92979 0.0
C1473 C 0.93518 0.67877 0.95536 0.0
C1474 C 0.94813 0.67151 0.9139 0.0
C1475 C 0.94871 0.67644 0.88649 0.0
C1476 C 0.92879 0.6791 0.87194 0.0
C1477 C 0.92944 0.68387 0.84613 0.0
C1478 C 0.94994 0.68586 0.83462 0.0
C1479 C 0.96982 0.68301 0.84889 0.0
C1480 C 0.96925 0.67826 0.87472 0.0
C1481 C 0.97114 0.5869 0.98256 0.0
C1482 C 0.99335 0.58176 0.97623 0.0
C1483 C 0.96009 0.60707 0.97395 0.0
C1484 C 0.97077 0.62314 0.95876 0.0
C1485 C 0.99292 0.61792 0.95224 0.0
C1486 C 1.00398 0.59771 0.96084 0.0
C1487 C 0.95891 0.64503 0.94943 0.0
C1488 C 0.95946 0.65181 0.92384 0.0
C1489 C 0.94663 0.65912 0.96534 0.0
C1490 C 0.94653 0.65459 0.99285 0.0
C1491 C 0.96671 0.65242 1.007 0.0
C1492 C 0.96653 0.64844 0.03297 0.0
C1493 C 0.94629 0.64677 0.04504 0.0
C1494 C 0.92615 0.64897 0.03115 0.0
C1495 C 0.92622 0.65293 1.00516 0.0
H1496 H 0.94625 0.64393 0.06516 0.0
H1497 H 0.95041 0.68956 0.81464 0.0
H1498 H 0.40102 0.74146 0.15279 0.0
H1499 H 0.41697 0.77646 0.13849 0.0
H1500 H 0.37866 0.77444 0.06878 0.0
H1501 H 0.36331 0.73854 0.08255 0.0
H1502 H 0.4203 0.78702 0.06052 0.0
H1503 H 0.36304 0.81012 0.11379 0.0
H1504 H 0.34065 0.81017 0.15174 0.0
H1505 H 0.39811 0.82836 0.19584 0.0
H1506 H 0.42095 0.8281 0.15822 0.0
H1507 H 0.45449 0.9001 0.03513 0.0
H1508 H 0.43058 0.86805 0.04246 0.0
H1509 H 0.46587 0.85264 0.11293 0.0
H1510 H 0.4901 0.88426 0.10557 0.0
H1511 H 0.41977 0.85165 0.11642 0.0
H1512 H 0.47735 0.82338 0.06251 0.0
H1513 H 0.49876 0.82395 0.02379 0.0
H1514 H 0.43832 0.81684 0.97973 0.0
H1515 H 0.41652 0.81651 0.01821 0.0
C1516 C 0.39619 0.7482 0.13424 0.0
C1517 C 0.38094 0.73711 0.11877 0.0
C1518 C 0.4051 0.76842 0.12623 0.0
C1519 C 0.39867 0.77828 0.10277 0.0
C1520 C 0.38369 0.76719 0.08706 0.0
C1521 C 0.37483 0.74678 0.09501 0.0
C1522 C 0.40806 0.80001 0.09481 0.0
C1523 C 0.41978 0.80132 0.07247 0.0
C1524 C 0.40744 0.81865 0.11046 0.0
C1525 C 0.39375 0.81896 0.13317 0.0
C1526 C 0.37095 0.81399 0.1316 0.0
C1527 C 0.35816 0.81407 0.15306 0.0
C1528 C 0.36796 0.81923 0.17619 0.0
C1529 C 0.39055 0.82436 0.1779 0.0
C1530 C 0.40341 0.82428 0.15651 0.0
C1531 C 0.45729 0.88977 0.05208 0.0
C1532 C 0.47424 0.8947 0.06976 0.0
C1533 C 0.44355 0.87155 0.05627 0.0
C1534 C 0.44655 0.85799 0.07818 0.0
C1535 C 0.46324 0.86302 0.09597 0.0
C1536 C 0.47702 0.88114 0.09176 0.0
C1537 C 0.43258 0.8383 0.08267 0.0
C1538 C 0.41994 0.83745 0.10431 0.0
C1539 C 0.43215 0.82023 0.06625 0.0
C1540 C 0.44529 0.82016 0.04319 0.0
C1541 C 0.46862 0.8221 0.04455 0.0
C1542 C 0.48082 0.82235 0.02266 0.0
C1543 C 0.4699 0.8205 0.99931 0.0
C1544 C 0.44676 0.81831 0.99783 0.0
C1545 C 0.43447 0.81807 0.01967 0.0
H1546 H 0.47938 0.82071 0.98238 0.0
H1547 H 0.35803 0.81928 0.19278 0.0
H1548 H 0.12534 0.23519 0.60703 0.0
H1549 H 0.11029 0.20305 0.5858 0.0
H1550 H 0.12638 0.16081 0.65149 0.0
H1551 H 0.14258 0.19255 0.67232 0.0
H1552 H 0.13757 0.13996 0.61205 0.0
H1553 H 0.07207 0.17959 0.63618 0.0
H1554 H 0.04639 0.21213 0.63943 0.0
H1555 H 0.0382 0.21714 0.55914 0.0
H1556 H 0.06409 0.18479 0.5554 0.0
H1557 H 0.04012 0.06761 0.56349 0.0
H1558 H 0.05294 0.10067 0.58513 0.0
H1559 H 0.11169 0.10158 0.54048 0.0
H1560 H 0.09924 0.06822 0.51935 0.0
H1561 H 0.0618 0.14226 0.5717 0.0
H1562 H 0.15599 0.11734 0.57527 0.0
H1563 H 0.17989 0.08309 0.57654 0.0
H1564 H 0.12746 0.04572 0.60979 0.0
H1565 H 0.10338 0.07979 0.60903 0.0
C1566 C 0.1259 0.21903 0.61689 0.0
C1567 C 0.13516 0.21651 0.64144 0.0
C1568 C 0.11702 0.2007 0.60482 0.0
C1569 C 0.11692 0.17955 0.61716 0.0
C1570 C 0.12619 0.17697 0.64161 0.0
C1571 C 0.13525 0.19522 0.65361 0.0
C1572 C 0.10758 0.15998 0.60444 0.0
C1573 C 0.121 0.1405 0.60323 0.0
C1574 C 0.0858 0.16047 0.59333 0.0
C1575 C 0.07019 0.1799 0.5955 0.0
C1576 C 0.06493 0.18773 0.61921 0.0
C1577 C 0.05031 0.20613 0.62114 0.0
C1578 C 0.04071 0.21673 0.5995 0.0
C1579 C 0.04567 0.20892 0.57589 0.0
C1580 C 0.0603 0.19055 0.57385 0.0
C1581 C 0.05573 0.07494 0.55828 0.0
C1582 C 0.06887 0.06524 0.54003 0.0
C1583 C 0.063 0.09385 0.57057 0.0
C1584 C 0.08346 0.10337 0.56473 0.0
C1585 C 0.09609 0.09423 0.54569 0.0
C1586 C 0.08894 0.07522 0.53357 0.0
C1587 C 0.09193 0.12243 0.57902 0.0
C1588 C 0.07837 0.14179 0.5805 0.0
C1589 C 0.11336 0.12162 0.59102 0.0
C1590 C 0.12782 0.10108 0.59185 0.0
C1591 C 0.1496 0.10183 0.58293 0.0
C1592 C 0.16317 0.08244 0.58355 0.0
C1593 C 0.15517 0.06222 0.59316 0.0
C1594 C 0.13361 0.06137 0.60227 0.0
C1595 C 0.11998 0.08071 0.60172 0.0
H1596 H 0.16569 0.04723 0.59361 0.0
H1597 H 0.02939 0.23097 0.60104 0.0
H1598 H 0.59735 0.33051 0.3341 0.0
H1599 H 0.5804 0.35824 0.36081 0.0
H1600 H 0.64536 0.38417 0.37811 0.0
H1601 H 0.66239 0.35688 0.35109 0.0
H1602 H 0.62115 0.3767 0.42031 0.0
H1603 H 0.61029 0.41331 0.33901 0.0
H1604 H 0.59776 0.4164 0.29451 0.0
H1605 H 0.53016 0.4059 0.3154 0.0
H1606 H 0.54234 0.40243 0.36002 0.0
H1607 H 0.58351 0.47462 0.48098 0.0
H1608 H 0.6017 0.44843 0.45335 0.0
H1609 H 0.53735 0.42491 0.42911 0.0
H1610 H 0.51909 0.45122 0.45614 0.0
H1611 H 0.56216 0.4317 0.39008 0.0
H1612 H 0.57228 0.39423 0.47075 0.0
H1613 H 0.58413 0.38992 0.51535 0.0
H1614 H 0.65213 0.4006 0.49614 0.0
H1615 H 0.64061 0.40536 0.45141 0.0
C1616 C 0.608 0.34233 0.34326 0.0
C1617 C 0.63125 0.34138 0.3405 0.0
C1618 C 0.5983 0.35811 0.3586 0.0
C1619 C 0.61164 0.37328 0.37141 0.0
C1620 C 0.63479 0.37253 0.36852 0.0
C1621 C 0.64449 0.35685 0.35312 0.0
C1622 C 0.60154 0.38964 0.38825 0.0
C1623 C 0.60847 0.38896 0.41366 0.0
C1624 C 0.58463 0.40523 0.37966 0.0
C1625 C 0.57726 0.40739 0.35284 0.0
C1626 C 0.59278 0.41147 0.3341 0.0
C1627 C 0.58574 0.41333 0.30886 0.0
C1628 C 0.56319 0.41129 0.30213 0.0
C1629 C 0.54763 0.40745 0.32064 0.0
C1630 C 0.55459 0.40556 0.34591 0.0
C1631 C 0.57325 0.4638 0.46985 0.0
C1632 C 0.54985 0.46505 0.47077 0.0
C1633 C 0.58367 0.44878 0.45411 0.0
C1634 C 0.57089 0.43458 0.43926 0.0
C1635 C 0.54755 0.43574 0.44031 0.0
C1636 C 0.53715 0.45079 0.45587 0.0
C1637 C 0.58166 0.41872 0.42226 0.0
C1638 C 0.57487 0.4195 0.39678 0.0
C1639 C 0.59858 0.4031 0.43085 0.0
C1640 C 0.60554 0.40039 0.45775 0.0
C1641 C 0.58973 0.39587 0.47606 0.0
C1642 C 0.5964 0.39331 0.50136 0.0
C1643 C 0.61888 0.39501 0.50859 0.0
C1644 C 0.63473 0.39931 0.49052 0.0
C1645 C 0.62814 0.40194 0.46518 0.0
H1646 H 0.62404 0.39293 0.52818 0.0
H1647 H 0.55777 0.41274 0.28258 0.0
loop_
_geom_bond_atom_site_label_1
_geom_bond_atom_site_label_2
_geom_bond_distance
_geom_bond_site_symmetry_2
_ccdc_geom_bond_type
C0 C1 1.384 . S
C0 H13 0.947 . S
C0 C35 1.382 . S
C1 C0 1.384 . S
C1 C2 1.378 . S
C2 C1 1.378 . S
C2 C3 1.378 . S
C2 H14 0.952 . S
C3 C2 1.378 . S
C3 H15 0.950 . S
C3 C34 1.383 . S
H4 C23 0.947 . S
H5 C24 0.946 . S
H6 C26 0.953 . S
H7 C27 0.945 . S
H8 C29 0.952 . S
H9 C30 0.949 . S
H10 C32 0.950 . S
H11 C33 0.948 . S
H12 C35 0.951 . S
H13 C0 0.947 . S
H14 C2 0.952 . S
H15 C3 0.950 . S
N16 C19 1.382 . S
N16 C21 1.363 . S
N17 C19 1.371 . S
N17 C20 1.372 . S
N18 C20 1.361 . S
N18 C21 1.377 . S
C19 N16 1.382 . S
C19 N17 1.371 . S
C19 C22 1.480 . S
C20 N17 1.372 . S
C20 N18 1.361 . S
C20 C28 1.457 . S
C21 N16 1.363 . S
C21 N18 1.377 . S
C21 C34 1.479 . S
C22 C19 1.480 . S
C22 C23 1.383 . S
C22 C27 1.385 . S
C23 H4 0.947 . S
C23 C22 1.383 . S
C23 C24 1.388 . S
C24 H5 0.946 . S
C24 C23 1.388 . S
C24 C25 1.384 . S
C25 C24 1.384 . S
C25 C26 1.377 . S
C26 H6 0.953 . S
C26 C25 1.377 . S
C26 C27 1.369 . S
C27 H7 0.945 . S
C27 C22 1.385 . S
C27 C26 1.369 . S
C28 C20 1.457 . S
C28 C29 1.372 . S
C28 C33 1.364 . S
C29 H8 0.952 . S
C29 C28 1.372 . S
C29 C30 1.389 . S
C30 H9 0.949 . S
C30 C29 1.389 . S
C30 C31 1.387 . S
C31 C30 1.387 . S
C31 C32 1.372 . S
C32 H10 0.950 . S
C32 C31 1.372 . S
C32 C33 1.379 . S
C33 H11 0.948 . S
C33 C28 1.364 . S
C33 C32 1.379 . S
C34 C3 1.383 . S
C34 C21 1.479 . S
C34 C35 1.398 . S
C35 C0 1.382 . S
C35 H12 0.951 . S
C35 C34 1.398 . S
C36 C37 1.384 . S
C36 H49 0.947 . S
C36 C71 1.382 . S
C37 C36 1.384 . S
C37 C38 1.378 . S
C38 C37 1.378 . S
C38 C39 1.378 . S
C38 H50 0.952 . S
C39 C38 1.378 . S
C39 H51 0.950 . S
C39 C70 1.383 . S
H40 C59 0.947 . S
H41 C60 0.946 . S
H42 C62 0.953 . S
H43 C63 0.945 . S
H44 C65 0.952 . S
H45 C66 0.949 . S
H46 C68 0.950 . S
H47 C69 0.948 . S
H48 C71 0.951 . S
H49 C36 0.947 . S
H50 C38 0.952 . S
H51 C39 0.950 . S
N52 C55 1.382 . S
N52 C57 1.363 . S
N53 C55 1.371 . S
N53 C56 1.372 . S
N54 C56 1.361 . S
N54 C57 1.377 . S
C55 N52 1.382 . S
C55 N53 1.371 . S
C55 C58 1.480 . S
C56 N53 1.372 . S
C56 N54 1.361 . S
C56 C64 1.457 . S
C57 N52 1.363 . S
C57 N54 1.377 . S
C57 C70 1.479 . S
C58 C55 1.480 . S
C58 C59 1.383 . S
C58 C63 1.385 . S
C59 H40 0.947 . S
C59 C58 1.383 . S
C59 C60 1.388 . S
C60 H41 0.946 . S
C60 C59 1.388 . S
C60 C61 1.384 . S
C61 C60 1.384 . S
C61 C62 1.377 . S
C62 H42 0.953 . S
C62 C61 1.377 . S
C62 C63 1.369 . S
C63 H43 0.945 . S
C63 C58 1.385 . S
C63 C62 1.369 . S
C64 C56 1.457 . S
C64 C65 1.372 . S
C64 C69 1.364 . S
C65 H44 0.952 . S
C65 C64 1.372 . S
C65 C66 1.389 . S
C66 H45 0.949 . S
C66 C65 1.389 . S
C66 C67 1.387 . S
C67 C66 1.387 . S
C67 C68 1.372 . S
C68 H46 0.950 . S
C68 C67 1.372 . S
C68 C69 1.379 . S
C69 H47 0.948 . S
C69 C64 1.364 . S
C69 C68 1.379 . S
C70 C39 1.383 . S
C70 C57 1.479 . S
C70 C71 1.398 . S
C71 C36 1.382 . S
C71 H48 0.951 . S
C71 C70 1.398 . S
C72 C73 1.384 . S
C72 H85 0.947 . S
C72 C107 1.382 . S
C73 C72 1.384 . S
C73 C74 1.378 . S
C74 C73 1.378 . S
C74 C75 1.378 . S
C74 H86 0.952 . S
C75 C74 1.378 . S
C75 H87 0.950 . S
C75 C106 1.383 . S
H76 C95 0.947 . S
H77 C96 0.946 . S
H78 C98 0.953 . S
H79 C99 0.945 . S
H80 C101 0.952 . S
H81 C102 0.949 . S
H82 C104 0.950 . S
H83 C105 0.948 . S
H84 C107 0.951 . S
H85 C72 0.947 . S
H86 C74 0.952 . S
H87 C75 0.950 . S
N88 C91 1.382 . S
N88 C93 1.363 . S
N89 C91 1.371 . S
N89 C92 1.372 . S
N90 C92 1.361 . S
N90 C93 1.377 . S
C91 N88 1.382 . S
C91 N89 1.371 . S
C91 C94 1.480 . S
C92 N89 1.372 . S
C92 N90 1.361 . S
C92 C100 1.457 . S
C93 N88 1.363 . S
C93 N90 1.377 . S
C93 C106 1.479 . S
C94 C91 1.480 . S
C94 C95 1.383 . S
C94 C99 1.385 . S
C95 H76 0.947 . S
C95 C94 1.383 . S
C95 C96 1.388 . S
C96 H77 0.946 . S
C96 C95 1.388 . S
C96 C97 1.384 . S
C97 C96 1.384 . S
C97 C98 1.377 . S
C98 H78 0.953 . S
C98 C97 1.377 . S
C98 C99 1.369 . S
C99 H79 0.945 . S
C99 C94 1.385 . S
C99 C98 1.369 . S
C100 C92 1.457 . S
C100 C101 1.372 . S
C100 C105 1.364 . S
C101 H80 0.952 . S
C101 C100 1.372 . S
C101 C102 1.389 . S
C102 H81 0.949 . S
C102 C101 1.389 . S
C102 C103 1.387 . S
C103 C102 1.387 . S
C103 C104 1.372 . S
C104 H82 0.950 . S
C104 C103 1.372 . S
C104 C105 1.379 . S
C105 H83 0.948 . S
C105 C100 1.364 . S
C105 C104 1.379 . S
C106 C75 1.383 . S
C106 C93 1.479 . S
C106 C107 1.398 . S
C107 C72 1.382 . S
C107 H84 0.951 . S
C107 C106 1.398 . S
C108 C109 1.384 . S
C108 H121 0.947 . S
C108 C143 1.382 . S
C109 C108 1.384 . S
C109 C110 1.378 . S
C110 C109 1.378 . S
C110 C111 1.378 . S
C110 H122 0.952 . S
C111 C110 1.378 . S
C111 H123 0.950 . S
C111 C142 1.383 . S
H112 C131 0.947 . S
H113 C132 0.946 . S
H114 C134 0.953 . S
H115 C135 0.945 . S
H116 C137 0.952 . S
H117 C138 0.949 . S
H118 C140 0.950 . S
H119 C141 0.948 . S
H120 C143 0.951 . S
H121 C108 0.947 . S
H122 C110 0.952 . S
H123 C111 0.950 . S
N124 C127 1.382 . S
N124 C129 1.363 . S
N125 C127 1.371 . S
N125 C128 1.372 . S
N126 C128 1.361 . S
N126 C129 1.377 . S
C127 N124 1.382 . S
C127 N125 1.371 . S
C127 C130 1.480 . S
C128 N125 1.372 . S
C128 N126 1.361 . S
C128 C136 1.457 . S
C129 N124 1.363 . S
C129 N126 1.377 . S
C129 C142 1.479 . S
C130 C127 1.480 . S
C130 C131 1.383 . S
C130 C135 1.385 . S
C131 H112 0.947 . S
C131 C130 1.383 . S
C131 C132 1.388 . S
C132 H113 0.946 . S
C132 C131 1.388 . S
C132 C133 1.384 . S
C133 C132 1.384 . S
C133 C134 1.377 . S
C134 H114 0.953 . S
C134 C133 1.377 . S
C134 C135 1.369 . S
C135 H115 0.945 . S
C135 C130 1.385 . S
C135 C134 1.369 . S
C136 C128 1.457 . S
C136 C137 1.372 . S
C136 C141 1.364 . S
C137 H116 0.952 . S
C137 C136 1.372 . S
C137 C138 1.389 . S
C138 H117 0.949 . S
C138 C137 1.389 . S
C138 C139 1.387 . S
C139 C138 1.387 . S
C139 C140 1.372 . S
C140 H118 0.950 . S
C140 C139 1.372 . S
C140 C141 1.379 . S
C141 H119 0.948 . S
C141 C136 1.364 . S
C141 C140 1.379 . S
C142 C111 1.383 . S
C142 C129 1.479 . S
C142 C143 1.398 . S
C143 C108 1.382 . S
C143 H120 0.951 . S
C143 C142 1.398 . S
C144 C145 1.384 . S
C144 H157 0.947 . S
C144 C179 1.382 . S
C145 C144 1.384 . S
C145 C146 1.378 . S
C146 C145 1.378 . S
C146 C147 1.378 . S
C146 H158 0.952 . S
C147 C146 1.378 . S
C147 H159 0.950 . S
C147 C178 1.383 . S
H148 C167 0.947 . S
H149 C168 0.946 . S
H150 C170 0.953 . S
H151 C171 0.945 . S
H152 C173 0.952 . S
H153 C174 0.949 . S
H154 C176 0.950 . S
H155 C177 0.948 . S
H156 C179 0.951 . S
H157 C144 0.947 . S
H158 C146 0.952 . S
H159 C147 0.950 . S
N160 C163 1.382 . S
N160 C165 1.363 . S
N161 C163 1.371 . S
N161 C164 1.372 . S
N162 C164 1.361 . S
N162 C165 1.377 . S
C163 N160 1.382 . S
C163 N161 1.371 . S
C163 C166 1.480 . S
C164 N161 1.372 . S
C164 N162 1.361 . S
C164 C172 1.457 . S
C165 N160 1.363 . S
C165 N162 1.377 . S
C165 C178 1.479 . S
C166 C163 1.480 . S
C166 C167 1.383 . S
C166 C171 1.385 . S
C167 H148 0.947 . S
C167 C166 1.383 . S
C167 C168 1.388 . S
C168 H149 0.946 . S
C168 C167 1.388 . S
C168 C169 1.384 . S
C169 C168 1.384 . S
C169 C170 1.377 . S
C170 H150 0.953 . S
C170 C169 1.377 . S
C170 C171 1.369 . S
C171 H151 0.945 . S
C171 C166 1.385 . S
C171 C170 1.369 . S
C172 C164 1.457 . S
C172 C173 1.372 . S
C172 C177 1.364 . S
C173 H152 0.952 . S
C173 C172 1.372 . S
C173 C174 1.389 . S
C174 H153 0.949 . S
C174 C173 1.389 . S
C174 C175 1.387 . S
C175 C174 1.387 . S
C175 C176 1.372 . S
C176 H154 0.950 . S
C176 C175 1.372 . S
C176 C177 1.379 . S
C177 H155 0.948 . S
C177 C172 1.364 . S
C177 C176 1.379 . S
C178 C147 1.383 . S
C178 C165 1.479 . S
C178 C179 1.398 . S
C179 C144 1.382 . S
C179 H156 0.951 . S
C179 C178 1.398 . S
C180 C181 1.384 . S
C180 H193 0.947 . S
C180 C215 1.382 . S
C181 C180 1.384 . S
C181 C182 1.378 . S
C182 C181 1.378 . S
C182 C183 1.378 . S
C182 H194 0.952 . S
C183 C182 1.378 . S
C183 H195 0.950 . S
C183 C214 1.383 . S
H184 C203 0.947 . S
H185 C204 0.946 . S
H186 C206 0.953 . S
H187 C207 0.945 . S
H188 C209 0.952 . S
H189 C210 0.949 . S
H190 C212 0.950 . S
H191 C213 0.948 . S
H192 C215 0.951 . S
H193 C180 0.947 . S
H194 C182 0.952 . S
H195 C183 0.950 . S
N196 C199 1.382 . S
N196 C201 1.363 . S
N197 C199 1.371 . S
N197 C200 1.372 . S
N198 C200 1.361 . S
N198 C201 1.377 . S
C199 N196 1.382 . S
C199 N197 1.371 . S
C199 C202 1.480 . S
C200 N197 1.372 . S
C200 N198 1.361 . S
C200 C208 1.457 . S
C201 N196 1.363 . S
C201 N198 1.377 . S
C201 C214 1.479 . S
C202 C199 1.480 . S
C202 C203 1.383 . S
C202 C207 1.385 . S
C203 H184 0.947 . S
C203 C202 1.383 . S
C203 C204 1.388 . S
C204 H185 0.946 . S
C204 C203 1.388 . S
C204 C205 1.384 . S
C205 C204 1.384 . S
C205 C206 1.377 . S
C206 H186 0.953 . S
C206 C205 1.377 . S
C206 C207 1.369 . S
C207 H187 0.945 . S
C207 C202 1.385 . S
C207 C206 1.369 . S
C208 C200 1.457 . S
C208 C209 1.372 . S
C208 C213 1.364 . S
C209 H188 0.952 . S
C209 C208 1.372 . S
C209 C210 1.389 . S
C210 H189 0.949 . S
C210 C209 1.389 . S
C210 C211 1.387 . S
C211 C210 1.387 . S
C211 C212 1.372 . S
C212 H190 0.950 . S
C212 C211 1.372 . S
C212 C213 1.379 . S
C213 H191 0.948 . S
C213 C208 1.364 . S
C213 C212 1.379 . S
C214 C183 1.383 . S
C214 C201 1.479 . S
C214 C215 1.398 . S
C215 C180 1.382 . S
C215 H192 0.951 . S
C215 C214 1.398 . S
C216 C217 1.384 . S
C216 H229 0.947 . S
C216 C251 1.382 . S
C217 C216 1.384 . S
C217 C218 1.378 . S
C218 C217 1.378 . S
C218 C219 1.378 . S
C218 H230 0.952 . S
C219 C218 1.378 . S
C219 H231 0.950 . S
C219 C250 1.383 . S
H220 C239 0.947 . S
H221 C240 0.946 . S
H222 C242 0.953 . S
H223 C243 0.945 . S
H224 C245 0.952 . S
H225 C246 0.949 . S
H226 C248 0.950 . S
H227 C249 0.948 . S
H228 C251 0.951 . S
H229 C216 0.947 . S
H230 C218 0.952 . S
H231 C219 0.950 . S
N232 C235 1.382 . S
N232 C237 1.363 . S
N233 C235 1.371 . S
N233 C236 1.372 . S
N234 C236 1.361 . S
N234 C237 1.377 . S
C235 N232 1.382 . S
C235 N233 1.371 . S
C235 C238 1.480 . S
C236 N233 1.372 . S
C236 N234 1.361 . S
C236 C244 1.457 . S
C237 N232 1.363 . S
C237 N234 1.377 . S
C237 C250 1.479 . S
C238 C235 1.480 . S
C238 C239 1.383 . S
C238 C243 1.385 . S
C239 H220 0.947 . S
C239 C238 1.383 . S
C239 C240 1.388 . S
C240 H221 0.946 . S
C240 C239 1.388 . S
C240 C241 1.384 . S
C241 C240 1.384 . S
C241 C242 1.377 . S
C242 H222 0.953 . S
C242 C241 1.377 . S
C242 C243 1.369 . S
C243 H223 0.945 . S
C243 C238 1.385 . S
C243 C242 1.369 . S
C244 C236 1.457 . S
C244 C245 1.372 . S
C244 C249 1.364 . S
C245 H224 0.952 . S
C245 C244 1.372 . S
C245 C246 1.389 . S
C246 H225 0.949 . S
C246 C245 1.389 . S
C246 C247 1.387 . S
C247 C246 1.387 . S
C247 C248 1.372 . S
C248 H226 0.950 . S
C248 C247 1.372 . S
C248 C249 1.379 . S
C249 H227 0.948 . S
C249 C244 1.364 . S
C249 C248 1.379 . S
C250 C219 1.383 . S
C250 C237 1.479 . S
C250 C251 1.398 . S
C251 C216 1.382 . S
C251 H228 0.951 . S
C251 C250 1.398 . S
C252 C253 1.384 . S
C252 H265 0.947 . S
C252 C287 1.382 . S
C253 C252 1.384 . S
C253 C254 1.378 . S
C254 C253 1.378 . S
C254 C255 1.378 . S
C254 H266 0.952 . S
C255 C254 1.378 . S
C255 H267 0.950 . S
C255 C286 1.383 . S
H256 C275 0.947 . S
H257 C276 0.946 . S
H258 C278 0.953 . S
H259 C279 0.945 . S
H260 C281 0.952 . S
H261 C282 0.949 . S
H262 C284 0.950 . S
H263 C285 0.948 . S
H264 C287 0.951 . S
H265 C252 0.947 . S
H266 C254 0.952 . S
H267 C255 0.950 . S
N268 C271 1.382 . S
N268 C273 1.363 . S
N269 C271 1.371 . S
N269 C272 1.372 . S
N270 C272 1.361 . S
N270 C273 1.377 . S
C271 N268 1.382 . S
C271 N269 1.371 . S
C271 C274 1.480 . S
C272 N269 1.372 . S
C272 N270 1.361 . S
C272 C280 1.457 . S
C273 N268 1.363 . S
C273 N270 1.377 . S
C273 C286 1.479 . S
C274 C271 1.480 . S
C274 C275 1.383 . S
C274 C279 1.385 . S
C275 H256 0.947 . S
C275 C274 1.383 . S
C275 C276 1.388 . S
C276 H257 0.946 . S
C276 C275 1.388 . S
C276 C277 1.384 . S
C277 C276 1.384 . S
C277 C278 1.377 . S
C278 H258 0.953 . S
C278 C277 1.377 . S
C278 C279 1.369 . S
C279 H259 0.945 . S
C279 C274 1.385 . S
C279 C278 1.369 . S
C280 C272 1.457 . S
C280 C281 1.372 . S
C280 C285 1.364 . S
C281 H260 0.952 . S
C281 C280 1.372 . S
C281 C282 1.389 . S
C282 H261 0.949 . S
C282 C281 1.389 . S
C282 C283 1.387 . S
C283 C282 1.387 . S
C283 C284 1.372 . S
C284 H262 0.950 . S
C284 C283 1.372 . S
C284 C285 1.379 . S
C285 H263 0.948 . S
C285 C280 1.364 . S
C285 C284 1.379 . S
C286 C255 1.383 . S
C286 C273 1.479 . S
C286 C287 1.398 . S
C287 C252 1.382 . S
C287 H264 0.951 . S
C287 C286 1.398 . S
Nd288 C290 2.836 . S
Nd288 O308 2.500 . S
Nd288 O309 2.492 . S
Nd288 O310 2.487 1_565 S
Nd288 O311 2.682 1_565 S
Nd288 O312 2.410 . S
Nd288 O317 2.414 1_455 S
Nd288 O319 2.424 1_565 S
Nd289 C299 2.836 . S
Nd289 O311 2.414 1_655 S
Nd289 O313 2.424 1_545 S
Nd289 O314 2.500 . S
Nd289 O315 2.492 . S
Nd289 O316 2.487 1_545 S
Nd289 O317 2.682 1_545 S
Nd289 O318 2.410 . S
C290 Nd288 2.836 . S
C290 C291 1.498 . S
C290 O308 1.258 . S
C290 O309 1.239 . S
C291 C290 1.498 . S
C291 C292 1.366 . S
C291 C296 1.407 . S
C292 C291 1.366 . S
C292 C293 1.392 . S
C292 H320 0.930 . S
C293 C292 1.392 . S
C293 C294 1.398 . S
C293 H321 0.929 . S
C294 C293 1.398 . S
C294 C295 1.352 . S
C295 C294 1.352 . S
C295 C296 1.384 . S
C295 H322 0.930 . S
C296 C291 1.407 . S
C296 C295 1.384 . S
C296 H323 0.929 . S
C297 O310 1.241 . S
C297 O311 1.273 . S
C298 O312 1.251 1_655 S
C298 O313 1.268 . S
C299 Nd289 2.836 . S
C299 C300 1.498 . S
C299 O314 1.258 . S
C299 O315 1.239 . S
C300 C299 1.498 . S
C300 C301 1.366 . S
C300 C305 1.407 . S
C301 C300 1.366 . S
C301 C302 1.392 . S
C301 H324 0.930 . S
C302 C301 1.392 . S
C302 C303 1.398 . S
C302 H325 0.929 . S
C303 C302 1.398 . S
C303 C304 1.352 . S
C304 C303 1.352 . S
C304 C305 1.384 . S
C304 H326 0.930 . S
C305 C300 1.407 . S
C305 C304 1.384 . S
C305 H327 0.929 . S
C306 O316 1.241 . S
C306 O317 1.273 . S
C307 O318 1.251 1_455 S
C307 O319 1.268 . S
O308 Nd288 2.500 . S
O308 C290 1.258 . S
O309 Nd288 2.492 . S
O309 C290 1.239 . S
O310 Nd288 2.487 1_545 S
O310 C297 1.241 . S
O311 Nd288 2.682 1_545 S
O311 Nd289 2.414 1_455 S
O311 C297 1.273 . S
O312 Nd288 2.410 . S
O312 C298 1.251 1_455 S
O313 Nd289 2.424 1_565 S
O313 C298 1.268 . S
O314 Nd289 2.500 . S
O314 C299 1.258 . S
O315 Nd289 2.492 . S
O315 C299 1.239 . S
O316 Nd289 2.487 1_565 S
O316 C306 1.241 . S
O317 Nd288 2.414 1_655 S
O317 Nd289 2.682 1_565 S
O317 C306 1.273 . S
O318 Nd289 2.410 . S
O318 C307 1.251 1_655 S
O319 Nd288 2.424 1_545 S
O319 C307 1.268 . S
H320 C292 0.930 . S
H321 C293 0.929 . S
H322 C295 0.930 . S
H323 C296 0.929 . S
H324 C301 0.930 . S
H325 C302 0.929 . S
H326 C304 0.930 . S
H327 C305 0.929 . S
Nd328 C330 2.836 . S
Nd328 O348 2.500 . S
Nd328 O349 2.492 . S
Nd328 O350 2.487 1_565 S
Nd328 O351 2.682 1_565 S
Nd328 O352 2.410 1_554 S
Nd328 O357 2.414 1_554 S
Nd328 O359 2.424 1_565 S
Nd329 C339 2.836 . S
Nd329 O351 2.414 1_556 S
Nd329 O353 2.424 1_545 S
Nd329 O354 2.500 . S
Nd329 O355 2.492 . S
Nd329 O356 2.487 . S
Nd329 O357 2.682 1_545 S
Nd329 O358 2.410 1_556 S
C330 Nd328 2.836 . S
C330 C331 1.498 . S
C330 O348 1.258 . S
C330 O349 1.239 . S
C331 C330 1.498 . S
C331 C332 1.366 . S
C331 C336 1.407 . S
C332 C331 1.366 . S
C332 C333 1.392 . S
C332 H360 0.930 . S
C333 C332 1.392 . S
C333 C334 1.398 . S
C333 H361 0.929 . S
C334 C333 1.398 . S
C334 C335 1.352 . S
C335 C334 1.352 . S
C335 C336 1.384 . S
C335 H362 0.930 . S
C336 C331 1.407 . S
C336 C335 1.384 . S
C336 H363 0.929 . S
C337 O350 1.241 . S
C337 O351 1.273 . S
C338 O352 1.251 . S
C338 O353 1.268 . S
C339 Nd329 2.836 . S
C339 C340 1.498 . S
C339 O354 1.258 . S
C339 O355 1.239 . S
C340 C339 1.498 . S
C340 C341 1.366 . S
C340 C345 1.407 . S
C341 C340 1.366 . S
C341 C342 1.392 . S
C341 H364 0.930 . S
C342 C341 1.392 . S
C342 C343 1.398 . S
C342 H365 0.929 . S
C343 C342 1.398 . S
C343 C344 1.352 . S
C344 C343 1.352 . S
C344 C345 1.384 . S
C344 H366 0.930 . S
C345 C340 1.407 . S
C345 C344 1.384 . S
C345 H367 0.929 . S
C346 O356 1.241 1_565 S
C346 O357 1.273 . S
C347 O358 1.251 . S
C347 O359 1.268 . S
O348 Nd328 2.500 . S
O348 C330 1.258 . S
O349 Nd328 2.492 . S
O349 C330 1.239 . S
O350 Nd328 2.487 1_545 S
O350 C337 1.241 . S
O351 Nd328 2.682 1_545 S
O351 Nd329 2.414 1_554 S
O351 C337 1.273 . S
O352 Nd328 2.410 1_556 S
O352 C338 1.251 . S
O353 Nd329 2.424 1_565 S
O353 C338 1.268 . S
O354 Nd329 2.500 . S
O354 C339 1.258 . S
O355 Nd329 2.492 . S
O355 C339 1.239 . S
O356 Nd329 2.487 . S
O356 C346 1.241 1_545 S
O357 Nd328 2.414 1_556 S
O357 Nd329 2.682 1_565 S
O357 C346 1.273 . S
O358 Nd329 2.410 1_554 S
O358 C347 1.251 . S
O359 Nd328 2.424 1_545 S
O359 C347 1.268 . S
H360 C332 0.930 . S
H361 C333 0.929 . S
H362 C335 0.930 . S
H363 C336 0.929 . S
H364 C341 0.930 . S
H365 C342 0.929 . S
H366 C344 0.930 . S
H367 C345 0.929 . S
Nd368 C370 2.836 . S
Nd368 O388 2.500 . S
Nd368 O389 2.492 . S
Nd368 O390 2.487 . S
Nd368 O391 2.682 . S
Nd368 O392 2.410 . S
Nd368 O397 2.414 . S
Nd368 O399 2.424 . S
Nd369 C379 2.836 . S
Nd369 O391 2.414 . S
Nd369 O393 2.424 . S
Nd369 O394 2.500 . S
Nd369 O395 2.492 . S
Nd369 O396 2.487 . S
Nd369 O397 2.682 . S
Nd369 O398 2.410 . S
C370 Nd368 2.836 . S
C370 C371 1.498 . S
C370 O388 1.258 . S
C370 O389 1.239 . S
C371 C370 1.498 . S
C371 C372 1.366 . S
C371 C376 1.407 . S
C372 C371 1.366 . S
C372 C373 1.392 . S
C372 H400 0.930 . S
C373 C372 1.392 . S
C373 C374 1.398 . S
C373 H401 0.929 . S
C374 C373 1.398 . S
C374 C375 1.352 . S
C375 C374 1.352 . S
C375 C376 1.384 . S
C375 H402 0.930 . S
C376 C371 1.407 . S
C376 C375 1.384 . S
C376 H403 0.929 . S
C377 O390 1.241 . S
C377 O391 1.273 . S
C378 O392 1.251 . S
C378 O393 1.268 . S
C379 Nd369 2.836 . S
C379 C380 1.498 . S
C379 O394 1.258 . S
C379 O395 1.239 . S
C380 C379 1.498 . S
C380 C381 1.366 . S
C380 C385 1.407 . S
C381 C380 1.366 . S
C381 C382 1.392 . S
C381 H404 0.930 . S
C382 C381 1.392 . S
C382 C383 1.398 . S
C382 H405 0.929 . S
C383 C382 1.398 . S
C383 C384 1.352 . S
C384 C383 1.352 . S
C384 C385 1.384 . S
C384 H406 0.930 . S
C385 C380 1.407 . S
C385 C384 1.384 . S
C385 H407 0.929 . S
C386 O396 1.241 . S
C386 O397 1.273 . S
C387 O398 1.251 . S
C387 O399 1.268 . S
O388 Nd368 2.500 . S
O388 C370 1.258 . S
O389 Nd368 2.492 . S
O389 C370 1.239 . S
O390 Nd368 2.487 . S
O390 C377 1.241 . S
O391 Nd368 2.682 . S
O391 Nd369 2.414 . S
O391 C377 1.273 . S
O392 Nd368 2.410 . S
O392 C378 1.251 . S
O393 Nd369 2.424 . S
O393 C378 1.268 . S
O394 Nd369 2.500 . S
O394 C379 1.258 . S
O395 Nd369 2.492 . S
O395 C379 1.239 . S
O396 Nd369 2.487 . S
O396 C386 1.241 . S
O397 Nd368 2.414 . S
O397 Nd369 2.682 . S
O397 C386 1.273 . S
O398 Nd369 2.410 . S
O398 C387 1.251 . S
O399 Nd368 2.424 . S
O399 C387 1.268 . S
H400 C372 0.930 . S
H401 C373 0.929 . S
H402 C375 0.930 . S
H403 C376 0.929 . S
H404 C381 0.930 . S
H405 C382 0.929 . S
H406 C384 0.930 . S
H407 C385 0.929 . S
Nd408 C410 2.836 . S
Nd408 O428 2.500 . S
Nd408 O429 2.492 . S
Nd408 O430 2.487 1_655 S
Nd408 O431 2.682 1_655 S
Nd408 O432 2.410 . S
Nd408 O437 2.414 1_554 S
Nd408 O439 2.424 1_655 S
Nd409 C419 2.836 . S
Nd409 O431 2.414 1_556 S
Nd409 O433 2.424 1_455 S
Nd409 O434 2.500 . S
Nd409 O435 2.492 . S
Nd409 O436 2.487 1_455 S
Nd409 O437 2.682 1_455 S
Nd409 O438 2.410 . S
C410 Nd408 2.836 . S
C410 C411 1.498 . S
C410 O428 1.258 . S
C410 O429 1.239 . S
C411 C410 1.498 . S
C411 C412 1.366 . S
C411 C416 1.407 . S
C412 C411 1.366 . S
C412 C413 1.392 . S
C412 H440 0.930 . S
C413 C412 1.392 . S
C413 C414 1.398 . S
C413 H441 0.929 . S
C414 C413 1.398 . S
C414 C415 1.352 . S
C415 C414 1.352 . S
C415 C416 1.384 . S
C415 H442 0.930 . S
C416 C411 1.407 . S
C416 C415 1.384 . S
C416 H443 0.929 . S
C417 O430 1.241 . S
C417 O431 1.273 . S
C418 O432 1.251 1_556 S
C418 O433 1.268 . S
C419 Nd409 2.836 . S
C419 C420 1.498 . S
C419 O434 1.258 . S
C419 O435 1.239 . S
C420 C419 1.498 . S
C420 C421 1.366 . S
C420 C425 1.407 . S
C421 C420 1.366 . S
C421 C422 1.392 . S
C421 H444 0.930 . S
C422 C421 1.392 . S
C422 C423 1.398 . S
C422 H445 0.929 . S
C423 C422 1.398 . S
C423 C424 1.352 . S
C424 C423 1.352 . S
C424 C425 1.384 . S
C424 H446 0.930 . S
C425 C420 1.407 . S
C425 C424 1.384 . S
C425 H447 0.929 . S
C426 O436 1.241 . S
C426 O437 1.273 . S
C427 O438 1.251 1_554 S
C427 O439 1.268 . S
O428 Nd408 2.500 . S
O428 C410 1.258 . S
O429 Nd408 2.492 . S
O429 C410 1.239 . S
O430 Nd408 2.487 1_455 S
O430 C417 1.241 . S
O431 Nd408 2.682 1_455 S
O431 Nd409 2.414 1_554 S
O431 C417 1.273 . S
O432 Nd408 2.410 . S
O432 C418 1.251 1_554 S
O433 Nd409 2.424 1_655 S
O433 C418 1.268 . S
O434 Nd409 2.500 . S
O434 C419 1.258 . S
O435 Nd409 2.492 . S
O435 C419 1.239 . S
O436 Nd409 2.487 1_655 S
O436 C426 1.241 . S
O437 Nd408 2.414 1_556 S
O437 Nd409 2.682 1_655 S
O437 C426 1.273 . S
O438 Nd409 2.410 . S
O438 C427 1.251 1_556 S
O439 Nd408 2.424 1_455 S
O439 C427 1.268 . S
H440 C412 0.930 . S
H441 C413 0.929 . S
H442 C415 0.930 . S
H443 C416 0.929 . S
H444 C421 0.930 . S
H445 C422 0.929 . S
H446 C424 0.930 . S
H447 C425 0.929 . S
H448 C466 0.951 . S
H449 C468 0.951 . S
H450 C470 0.950 . S
H451 C471 0.950 . S
H452 C473 0.950 . S
H453 C476 0.950 . S
H454 C477 0.950 . S
H455 C479 0.950 1_565 S
H456 C480 0.950 . S
H457 C481 0.951 . S
H458 C483 0.951 . S
H459 C485 0.950 . S
H460 C486 0.950 . S
H461 C488 0.950 . S
H462 C491 0.950 . S
H463 C492 0.950 . S
H464 C494 0.950 . S
H465 C495 0.950 . S
C466 H448 0.951 . S
C466 C467 1.366 . S
C466 C468 1.388 . S
C467 C466 1.366 . S
C467 C471 1.385 . S
C468 H449 0.951 . S
C468 C466 1.388 . S
C468 C469 1.366 . S
C469 C468 1.366 . S
C469 C470 1.414 . S
C469 C472 1.499 . S
C470 H450 0.950 . S
C470 C469 1.414 . S
C470 C471 1.374 . S
C471 H451 0.950 . S
C471 C467 1.385 . S
C471 C470 1.374 . S
C472 C469 1.499 . S
C472 C473 1.373 . S
C472 C474 1.389 . S
C473 H452 0.950 . S
C473 C472 1.373 . S
C473 C489 1.377 . S
C474 C472 1.389 . S
C474 C475 1.524 . S
C474 C488 1.377 . S
C475 C474 1.524 . S
C475 C476 1.397 . S
C475 C480 1.363 . S
C476 H453 0.950 . S
C476 C475 1.397 . S
C476 C477 1.334 . S
C477 H454 0.950 . S
C477 C476 1.334 . S
C477 C478 1.287 . S
C478 C477 1.287 . S
C478 C479 1.524 . S
C478 H497 0.913 . S
C479 H455 0.950 1_545 S
C479 C478 1.524 . S
C479 C480 1.415 . S
C480 H456 0.950 . S
C480 C475 1.363 . S
C480 C479 1.415 . S
C481 H457 0.951 . S
C481 C482 1.366 . S
C481 C483 1.388 . S
C482 C481 1.366 . S
C482 C486 1.385 . S
C483 H458 0.951 . S
C483 C481 1.388 . S
C483 C484 1.366 . S
C484 C483 1.366 . S
C484 C485 1.414 . S
C484 C487 1.499 . S
C485 H459 0.950 . S
C485 C484 1.414 . S
C485 C486 1.374 . S
C486 H460 0.950 . S
C486 C482 1.385 . S
C486 C485 1.374 . S
C487 C484 1.499 . S
C487 C488 1.373 . S
C487 C489 1.389 . S
C488 H461 0.950 . S
C488 C474 1.377 . S
C488 C487 1.373 . S
C489 C473 1.377 . S
C489 C487 1.389 . S
C489 C490 1.524 . S
C490 C489 1.524 . S
C490 C491 1.397 . S
C490 C495 1.363 . S
C491 H462 0.950 . S
C491 C490 1.397 . S
C491 C492 1.334 . S
C492 H463 0.950 . S
C492 C491 1.334 . S
C492 C493 1.287 . S
C493 C492 1.287 . S
C493 C494 1.524 . S
C493 H496 0.999 . S
C494 H464 0.950 . S
C494 C493 1.524 . S
C494 C495 1.415 . S
C495 H465 0.950 . S
C495 C490 1.363 . S
C495 C494 1.415 . S
H496 C493 0.999 . S
H497 C478 0.913 . S
H498 C516 0.951 . S
H499 C518 0.951 . S
H500 C520 0.950 . S
H501 C521 0.950 . S
H502 C523 0.950 . S
H503 C526 0.950 . S
H504 C527 0.950 . S
H505 C529 0.950 . S
H506 C530 0.950 . S
H507 C531 0.951 . S
H508 C533 0.951 . S
H509 C535 0.950 . S
H510 C536 0.950 . S
H511 C538 0.950 . S
H512 C541 0.950 . S
H513 C542 0.950 . S
H514 C544 0.950 . S
H515 C545 0.950 . S
C516 H498 0.951 . S
C516 C517 1.366 . S
C516 C518 1.388 . S
C517 C516 1.366 . S
C517 C521 1.385 . S
C518 H499 0.951 . S
C518 C516 1.388 . S
C518 C519 1.366 . S
C519 C518 1.366 . S
C519 C520 1.414 . S
C519 C522 1.499 . S
C520 H500 0.950 . S
C520 C519 1.414 . S
C520 C521 1.374 . S
C521 H501 0.950 . S
C521 C517 1.385 . S
C521 C520 1.374 . S
C522 C519 1.499 . S
C522 C523 1.373 . S
C522 C524 1.389 . S
C523 H502 0.950 . S
C523 C522 1.373 . S
C523 C539 1.377 . S
C524 C522 1.389 . S
C524 C525 1.524 . S
C524 C538 1.377 . S
C525 C524 1.524 . S
C525 C526 1.397 . S
C525 C530 1.363 . S
C526 H503 0.950 . S
C526 C525 1.397 . S
C526 C527 1.334 . S
C527 H504 0.950 . S
C527 C526 1.334 . S
C527 C528 1.287 . S
C528 C527 1.287 . S
C528 C529 1.524 . S
C528 H547 0.913 . S
C529 H505 0.950 . S
C529 C528 1.524 . S
C529 C530 1.415 . S
C530 H506 0.950 . S
C530 C525 1.363 . S
C530 C529 1.415 . S
C531 H507 0.951 . S
C531 C532 1.366 . S
C531 C533 1.388 . S
C532 C531 1.366 . S
C532 C536 1.385 . S
C533 H508 0.951 . S
C533 C531 1.388 . S
C533 C534 1.366 . S
C534 C533 1.366 . S
C534 C535 1.414 . S
C534 C537 1.499 . S
C535 H509 0.950 . S
C535 C534 1.414 . S
C535 C536 1.374 . S
C536 H510 0.950 . S
C536 C532 1.385 . S
C536 C535 1.374 . S
C537 C534 1.499 . S
C537 C538 1.373 . S
C537 C539 1.389 . S
C538 H511 0.950 . S
C538 C524 1.377 . S
C538 C537 1.373 . S
C539 C523 1.377 . S
C539 C537 1.389 . S
C539 C540 1.524 . S
C540 C539 1.524 . S
C540 C541 1.397 . S
C540 C545 1.363 . S
C541 H512 0.950 . S
C541 C540 1.397 . S
C541 C542 1.334 . S
C542 H513 0.950 . S
C542 C541 1.334 . S
C542 C543 1.287 . S
C543 C542 1.287 . S
C543 C544 1.524 . S
C543 H546 0.999 . S
C544 H514 0.950 . S
C544 C543 1.524 . S
C544 C545 1.415 . S
C545 H515 0.950 . S
C545 C540 1.363 . S
C545 C544 1.415 . S
H546 C543 0.999 . S
H547 C528 0.913 . S
H548 C566 0.951 . S
H549 C568 0.951 . S
H550 C570 0.950 . S
H551 C571 0.950 . S
H552 C573 0.950 . S
H553 C576 0.950 . S
H554 C577 0.950 . S
H555 C579 0.950 . S
H556 C580 0.950 . S
H557 C581 0.951 . S
H558 C583 0.951 . S
H559 C585 0.950 . S
H560 C586 0.950 . S
H561 C588 0.950 . S
H562 C591 0.950 . S
H563 C592 0.950 . S
H564 C594 0.950 . S
H565 C595 0.950 . S
C566 H548 0.951 . S
C566 C567 1.366 . S
C566 C568 1.388 . S
C567 C566 1.366 . S
C567 C571 1.385 . S
C568 H549 0.951 . S
C568 C566 1.388 . S
C568 C569 1.366 . S
C569 C568 1.366 . S
C569 C570 1.414 . S
C569 C572 1.499 . S
C570 H550 0.950 . S
C570 C569 1.414 . S
C570 C571 1.374 . S
C571 H551 0.950 . S
C571 C567 1.385 . S
C571 C570 1.374 . S
C572 C569 1.499 . S
C572 C573 1.373 . S
C572 C574 1.389 . S
C573 H552 0.950 . S
C573 C572 1.373 . S
C573 C589 1.377 . S
C574 C572 1.389 . S
C574 C575 1.524 . S
C574 C588 1.377 . S
C575 C574 1.524 . S
C575 C576 1.397 . S
C575 C580 1.363 . S
C576 H553 0.950 . S
C576 C575 1.397 . S
C576 C577 1.334 . S
C577 H554 0.950 . S
C577 C576 1.334 . S
C577 C578 1.287 . S
C578 C577 1.287 . S
C578 C579 1.524 . S
C578 H597 0.913 . S
C579 H555 0.950 . S
C579 C578 1.524 . S
C579 C580 1.415 . S
C580 H556 0.950 . S
C580 C575 1.363 . S
C580 C579 1.415 . S
C581 H557 0.951 . S
C581 C582 1.366 . S
C581 C583 1.388 . S
C582 C581 1.366 . S
C582 C586 1.385 . S
C583 H558 0.951 . S
C583 C581 1.388 . S
C583 C584 1.366 . S
C584 C583 1.366 . S
C584 C585 1.414 . S
C584 C587 1.499 . S
C585 H559 0.950 . S
C585 C584 1.414 . S
C585 C586 1.374 . S
C586 H560 0.950 . S
C586 C582 1.385 . S
C586 C585 1.374 . S
C587 C584 1.499 . S
C587 C588 1.373 . S
C587 C589 1.389 . S
C588 H561 0.950 . S
C588 C574 1.377 . S
C588 C587 1.373 . S
C589 C573 1.377 . S
C589 C587 1.389 . S
C589 C590 1.524 . S
C590 C589 1.524 . S
C590 C591 1.397 . S
C590 C595 1.363 . S
C591 H562 0.950 . S
C591 C590 1.397 . S
C591 C592 1.334 . S
C592 H563 0.950 . S
C592 C591 1.334 . S
C592 C593 1.287 . S
C593 C592 1.287 . S
C593 C594 1.524 . S
C593 H596 0.999 . S
C594 H564 0.950 . S
C594 C593 1.524 . S
C594 C595 1.415 . S
C595 H565 0.950 . S
C595 C590 1.363 . S
C595 C594 1.415 . S
H596 C593 0.999 . S
H597 C578 0.913 . S
H598 C616 0.951 . S
H599 C618 0.951 . S
H600 C620 0.950 . S
H601 C621 0.950 . S
H602 C623 0.950 . S
H603 C626 0.950 . S
H604 C627 0.950 . S
H605 C629 0.950 . S
H606 C630 0.950 . S
H607 C631 0.951 . S
H608 C633 0.951 . S
H609 C635 0.950 . S
H610 C636 0.950 . S
H611 C638 0.950 . S
H612 C641 0.950 . S
H613 C642 0.950 . S
H614 C644 0.950 . S
H615 C645 0.950 . S
C616 H598 0.951 . S
C616 C617 1.366 . S
C616 C618 1.388 . S
C617 C616 1.366 . S
C617 C621 1.385 . S
C618 H599 0.951 . S
C618 C616 1.388 . S
C618 C619 1.366 . S
C619 C618 1.366 . S
C619 C620 1.414 . S
C619 C622 1.499 . S
C620 H600 0.950 . S
C620 C619 1.414 . S
C620 C621 1.374 . S
C621 H601 0.950 . S
C621 C617 1.385 . S
C621 C620 1.374 . S
C622 C619 1.499 . S
C622 C623 1.373 . S
C622 C624 1.389 . S
C623 H602 0.950 . S
C623 C622 1.373 . S
C623 C639 1.377 . S
C624 C622 1.389 . S
C624 C625 1.524 . S
C624 C638 1.377 . S
C625 C624 1.524 . S
C625 C626 1.397 . S
C625 C630 1.363 . S
C626 H603 0.950 . S
C626 C625 1.397 . S
C626 C627 1.334 . S
C627 H604 0.950 . S
C627 C626 1.334 . S
C627 C628 1.287 . S
C628 C627 1.287 . S
C628 C629 1.524 . S
C628 H647 0.913 . S
C629 H605 0.950 . S
C629 C628 1.524 . S
C629 C630 1.415 . S
C630 H606 0.950 . S
C630 C625 1.363 . S
C630 C629 1.415 . S
C631 H607 0.951 . S
C631 C632 1.366 . S
C631 C633 1.388 . S
C632 C631 1.366 . S
C632 C636 1.385 . S
C633 H608 0.951 . S
C633 C631 1.388 . S
C633 C634 1.366 . S
C634 C633 1.366 . S
C634 C635 1.414 . S
C634 C637 1.499 . S
C635 H609 0.950 . S
C635 C634 1.414 . S
C635 C636 1.374 . S
C636 H610 0.950 . S
C636 C632 1.385 . S
C636 C635 1.374 . S
C637 C634 1.499 . S
C637 C638 1.373 . S
C637 C639 1.389 . S
C638 H611 0.950 . S
C638 C624 1.377 . S
C638 C637 1.373 . S
C639 C623 1.377 . S
C639 C637 1.389 . S
C639 C640 1.524 . S
C640 C639 1.524 . S
C640 C641 1.397 . S
C640 C645 1.363 . S
C641 H612 0.950 . S
C641 C640 1.397 . S
C641 C642 1.334 . S
C642 H613 0.950 . S
C642 C641 1.334 . S
C642 C643 1.287 . S
C643 C642 1.287 . S
C643 C644 1.524 . S
C643 H646 0.999 . S
C644 H614 0.950 . S
C644 C643 1.524 . S
C644 C645 1.415 . S
C645 H615 0.950 . S
C645 C640 1.363 . S
C645 C644 1.415 . S
H646 C643 0.999 . S
H647 C628 0.913 . S
H648 C666 0.951 . S
H649 C668 0.951 . S
H650 C670 0.950 . S
H651 C671 0.950 . S
H652 C673 0.950 . S
H653 C676 0.950 . S
H654 C677 0.950 . S
H655 C679 0.950 . S
H656 C680 0.950 . S
H657 C681 0.951 . S
H658 C683 0.951 . S
H659 C685 0.950 . S
H660 C686 0.950 . S
H661 C688 0.950 . S
H662 C691 0.950 . S
H663 C692 0.950 . S
H664 C694 0.950 . S
H665 C695 0.950 . S
C666 H648 0.951 . S
C666 C667 1.366 . S
C666 C668 1.388 . S
C667 C666 1.366 . S
C667 C671 1.385 . S
C668 H649 0.951 . S
C668 C666 1.388 . S
C668 C669 1.366 . S
C669 C668 1.366 . S
C669 C670 1.414 . S
C669 C672 1.499 . S
C670 H650 0.950 . S
C670 C669 1.414 . S
C670 C671 1.374 . S
C671 H651 0.950 . S
C671 C667 1.385 . S
C671 C670 1.374 . S
C672 C669 1.499 . S
C672 C673 1.373 . S
C672 C674 1.389 . S
C673 H652 0.950 . S
C673 C672 1.373 . S
C673 C689 1.377 . S
C674 C672 1.389 . S
C674 C675 1.524 . S
C674 C688 1.377 . S
C675 C674 1.524 . S
C675 C676 1.397 . S
C675 C680 1.363 . S
C676 H653 0.950 . S
C676 C675 1.397 . S
C676 C677 1.334 . S
C677 H654 0.950 . S
C677 C676 1.334 . S
C677 C678 1.287 . S
C678 C677 1.287 . S
C678 C679 1.524 . S
C678 H697 0.913 . S
C679 H655 0.950 . S
C679 C678 1.524 . S
C679 C680 1.415 . S
C680 H656 0.950 . S
C680 C675 1.363 . S
C680 C679 1.415 . S
C681 H657 0.951 . S
C681 C682 1.366 . S
C681 C683 1.388 . S
C682 C681 1.366 . S
C682 C686 1.385 . S
C683 H658 0.951 . S
C683 C681 1.388 . S
C683 C684 1.366 . S
C684 C683 1.366 . S
C684 C685 1.414 . S
C684 C687 1.499 . S
C685 H659 0.950 . S
C685 C684 1.414 . S
C685 C686 1.374 . S
C686 H660 0.950 . S
C686 C682 1.385 . S
C686 C685 1.374 . S
C687 C684 1.499 . S
C687 C688 1.373 . S
C687 C689 1.389 . S
C688 H661 0.950 . S
C688 C674 1.377 . S
C688 C687 1.373 . S
C689 C673 1.377 . S
C689 C687 1.389 . S
C689 C690 1.524 1_554 S
C690 C689 1.524 1_556 S
C690 C691 1.397 . S
C690 C695 1.363 . S
C691 H662 0.950 . S
C691 C690 1.397 . S
C691 C692 1.334 . S
C692 H663 0.950 . S
C692 C691 1.334 . S
C692 C693 1.287 . S
C693 C692 1.287 . S
C693 C694 1.524 . S
C693 H696 0.999 . S
C694 H664 0.950 . S
C694 C693 1.524 . S
C694 C695 1.415 . S
C695 H665 0.950 . S
C695 C690 1.363 . S
C695 C694 1.415 . S
H696 C693 0.999 . S
H697 C678 0.913 . S
H698 C716 0.951 . S
H699 C718 0.951 . S
H700 C720 0.950 . S
H701 C721 0.950 . S
H702 C723 0.950 . S
H703 C726 0.950 . S
H704 C727 0.950 . S
H705 C729 0.950 . S
H706 C730 0.950 . S
H707 C731 0.951 . S
H708 C733 0.951 . S
H709 C735 0.950 . S
H710 C736 0.950 . S
H711 C738 0.950 . S
H712 C741 0.950 . S
H713 C742 0.950 . S
H714 C744 0.950 . S
H715 C745 0.950 . S
C716 H698 0.951 . S
C716 C717 1.366 . S
C716 C718 1.388 . S
C717 C716 1.366 . S
C717 C721 1.385 . S
C718 H699 0.951 . S
C718 C716 1.388 . S
C718 C719 1.366 . S
C719 C718 1.366 . S
C719 C720 1.414 . S
C719 C722 1.499 . S
C720 H700 0.950 . S
C720 C719 1.414 . S
C720 C721 1.374 . S
C721 H701 0.950 . S
C721 C717 1.385 . S
C721 C720 1.374 . S
C722 C719 1.499 . S
C722 C723 1.373 . S
C722 C724 1.389 . S
C723 H702 0.950 . S
C723 C722 1.373 . S
C723 C739 1.377 . S
C724 C722 1.389 . S
C724 C725 1.524 . S
C724 C738 1.377 . S
C725 C724 1.524 . S
C725 C726 1.397 . S
C725 C730 1.363 . S
C726 H703 0.950 . S
C726 C725 1.397 . S
C726 C727 1.334 . S
C727 H704 0.950 . S
C727 C726 1.334 . S
C727 C728 1.287 . S
C728 C727 1.287 . S
C728 C729 1.524 . S
C728 H747 0.913 . S
C729 H705 0.950 . S
C729 C728 1.524 . S
C729 C730 1.415 . S
C730 H706 0.950 . S
C730 C725 1.363 . S
C730 C729 1.415 . S
C731 H707 0.951 . S
C731 C732 1.366 . S
C731 C733 1.388 . S
C732 C731 1.366 . S
C732 C736 1.385 . S
C733 H708 0.951 . S
C733 C731 1.388 . S
C733 C734 1.366 . S
C734 C733 1.366 . S
C734 C735 1.414 . S
C734 C737 1.499 . S
C735 H709 0.950 . S
C735 C734 1.414 . S
C735 C736 1.374 . S
C736 H710 0.950 . S
C736 C732 1.385 . S
C736 C735 1.374 . S
C737 C734 1.499 . S
C737 C738 1.373 . S
C737 C739 1.389 . S
C738 H711 0.950 . S
C738 C724 1.377 . S
C738 C737 1.373 . S
C739 C723 1.377 . S
C739 C737 1.389 . S
C739 C740 1.524 . S
C740 C739 1.524 . S
C740 C741 1.397 . S
C740 C745 1.363 . S
C741 H712 0.950 . S
C741 C740 1.397 . S
C741 C742 1.334 . S
C742 H713 0.950 . S
C742 C741 1.334 . S
C742 C743 1.287 . S
C743 C742 1.287 . S
C743 C744 1.524 . S
C743 H746 0.999 . S
C744 H714 0.950 . S
C744 C743 1.524 . S
C744 C745 1.415 . S
C745 H715 0.950 . S
C745 C740 1.363 . S
C745 C744 1.415 . S
H746 C743 0.999 . S
H747 C728 0.913 . S
H748 C766 0.951 . S
H749 C768 0.951 . S
H750 C770 0.950 . S
H751 C771 0.950 . S
H752 C773 0.950 . S
H753 C776 0.950 . S
H754 C777 0.950 . S
H755 C779 0.950 . S
H756 C780 0.950 . S
H757 C781 0.951 . S
H758 C783 0.951 . S
H759 C785 0.950 . S
H760 C786 0.950 . S
H761 C788 0.950 . S
H762 C791 0.950 . S
H763 C792 0.950 . S
H764 C794 0.950 . S
H765 C795 0.950 . S
C766 H748 0.951 . S
C766 C767 1.366 . S
C766 C768 1.388 . S
C767 C766 1.366 . S
C767 C771 1.385 . S
C768 H749 0.951 . S
C768 C766 1.388 . S
C768 C769 1.366 . S
C769 C768 1.366 . S
C769 C770 1.414 . S
C769 C772 1.499 . S
C770 H750 0.950 . S
C770 C769 1.414 . S
C770 C771 1.374 . S
C771 H751 0.950 . S
C771 C767 1.385 . S
C771 C770 1.374 . S
C772 C769 1.499 . S
C772 C773 1.373 . S
C772 C774 1.389 . S
C773 H752 0.950 . S
C773 C772 1.373 . S
C773 C789 1.377 . S
C774 C772 1.389 . S
C774 C775 1.524 . S
C774 C788 1.377 . S
C775 C774 1.524 . S
C775 C776 1.397 . S
C775 C780 1.363 . S
C776 H753 0.950 . S
C776 C775 1.397 . S
C776 C777 1.334 . S
C777 H754 0.950 . S
C777 C776 1.334 . S
C777 C778 1.287 1_556 S
C778 C777 1.287 1_554 S
C778 C779 1.524 . S
C778 H797 0.913 . S
C779 H755 0.950 . S
C779 C778 1.524 . S
C779 C780 1.415 1_554 S
C780 H756 0.950 . S
C780 C775 1.363 . S
C780 C779 1.415 1_556 S
C781 H757 0.951 . S
C781 C782 1.366 . S
C781 C783 1.388 . S
C782 C781 1.366 . S
C782 C786 1.385 . S
C783 H758 0.951 . S
C783 C781 1.388 . S
C783 C784 1.366 . S
C784 C783 1.366 . S
C784 C785 1.414 . S
C784 C787 1.499 . S
C785 H759 0.950 . S
C785 C784 1.414 . S
C785 C786 1.374 . S
C786 H760 0.950 . S
C786 C782 1.385 . S
C786 C785 1.374 . S
C787 C784 1.499 . S
C787 C788 1.373 . S
C787 C789 1.389 . S
C788 H761 0.950 . S
C788 C774 1.377 . S
C788 C787 1.373 . S
C789 C773 1.377 . S
C789 C787 1.389 . S
C789 C790 1.524 . S
C790 C789 1.524 . S
C790 C791 1.397 . S
C790 C795 1.363 . S
C791 H762 0.950 . S
C791 C790 1.397 . S
C791 C792 1.334 . S
C792 H763 0.950 . S
C792 C791 1.334 . S
C792 C793 1.287 . S
C793 C792 1.287 . S
C793 C794 1.524 . S
C793 H796 0.999 . S
C794 H764 0.950 . S
C794 C793 1.524 . S
C794 C795 1.415 . S
C795 H765 0.950 . S
C795 C790 1.363 . S
C795 C794 1.415 . S
H796 C793 0.999 . S
H797 C778 0.913 . S
H798 C816 0.951 . S
H799 C818 0.951 . S
H800 C820 0.950 . S
H801 C821 0.950 . S
H802 C823 0.950 . S
H803 C826 0.950 . S
H804 C827 0.950 . S
H805 C829 0.950 . S
H806 C830 0.950 . S
H807 C831 0.951 . S
H808 C833 0.951 . S
H809 C835 0.950 . S
H810 C836 0.950 . S
H811 C838 0.950 . S
H812 C841 0.950 . S
H813 C842 0.950 . S
H814 C844 0.950 . S
H815 C845 0.950 . S
C816 H798 0.951 . S
C816 C817 1.366 . S
C816 C818 1.388 . S
C817 C816 1.366 . S
C817 C821 1.385 . S
C818 H799 0.951 . S
C818 C816 1.388 . S
C818 C819 1.366 . S
C819 C818 1.366 . S
C819 C820 1.414 . S
C819 C822 1.499 . S
C820 H800 0.950 . S
C820 C819 1.414 . S
C820 C821 1.374 . S
C821 H801 0.950 . S
C821 C817 1.385 . S
C821 C820 1.374 . S
C822 C819 1.499 . S
C822 C823 1.373 . S
C822 C824 1.389 . S
C823 H802 0.950 . S
C823 C822 1.373 . S
C823 C839 1.377 . S
C824 C822 1.389 . S
C824 C825 1.524 . S
C824 C838 1.377 . S
C825 C824 1.524 . S
C825 C826 1.397 . S
C825 C830 1.363 . S
C826 H803 0.950 . S
C826 C825 1.397 . S
C826 C827 1.334 . S
C827 H804 0.950 . S
C827 C826 1.334 . S
C827 C828 1.287 . S
C828 C827 1.287 . S
C828 C829 1.524 . S
C828 H847 0.913 . S
C829 H805 0.950 . S
C829 C828 1.524 . S
C829 C830 1.415 . S
C830 H806 0.950 . S
C830 C825 1.363 . S
C830 C829 1.415 . S
C831 H807 0.951 . S
C831 C832 1.366 . S
C831 C833 1.388 . S
C832 C831 1.366 . S
C832 C836 1.385 . S
C833 H808 0.951 . S
C833 C831 1.388 . S
C833 C834 1.366 . S
C834 C833 1.366 . S
C834 C835 1.414 . S
C834 C837 1.499 . S
C835 H809 0.950 . S
C835 C834 1.414 . S
C835 C836 1.374 . S
C836 H810 0.950 . S
C836 C832 1.385 . S
C836 C835 1.374 . S
C837 C834 1.499 . S
C837 C838 1.373 . S
C837 C839 1.389 . S
C838 H811 0.950 . S
C838 C824 1.377 . S
C838 C837 1.373 . S
C839 C823 1.377 . S
C839 C837 1.389 . S
C839 C840 1.524 . S
C840 C839 1.524 . S
C840 C841 1.397 . S
C840 C845 1.363 . S
C841 H812 0.950 . S
C841 C840 1.397 . S
C841 C842 1.334 . S
C842 H813 0.950 . S
C842 C841 1.334 . S
C842 C843 1.287 . S
C843 C842 1.287 . S
C843 C844 1.524 . S
C843 H846 0.999 . S
C844 H814 0.950 . S
C844 C843 1.524 . S
C844 C845 1.415 . S
C845 H815 0.950 . S
C845 C840 1.363 . S
C845 C844 1.415 . S
H846 C843 0.999 . S
H847 C828 0.913 . S
H848 C866 0.951 . S
H849 C868 0.951 . S
H850 C870 0.950 . S
H851 C871 0.950 . S
H852 C873 0.950 . S
H853 C876 0.950 1_554 S
H854 C877 0.950 . S
H855 C879 0.950 . S
H856 C880 0.953 . S
H857 C881 0.951 . S
H858 C883 0.951 . S
H859 C885 0.950 . S
H860 C886 0.950 . S
H861 C888 0.950 . S
H862 C891 0.950 . S
H863 C892 0.950 . S
H864 C894 0.950 . S
H865 C895 0.950 . S
C866 H848 0.951 . S
C866 C867 1.366 . S
C866 C868 1.388 . S
C867 C866 1.366 . S
C867 C871 1.385 . S
C868 H849 0.951 . S
C868 C866 1.388 . S
C868 C869 1.366 . S
C869 C868 1.366 . S
C869 C870 1.414 . S
C869 C872 1.499 . S
C870 H850 0.950 . S
C870 C869 1.414 . S
C870 C871 1.374 . S
C871 H851 0.950 . S
C871 C867 1.385 . S
C871 C870 1.374 . S
C872 C869 1.499 . S
C872 C873 1.373 . S
C872 C874 1.389 . S
C873 H852 0.950 . S
C873 C872 1.373 . S
C873 C889 1.377 . S
C874 C872 1.389 . S
C874 C875 1.524 . S
C874 C888 1.377 . S
C875 C874 1.524 . S
C875 C876 1.397 1_554 S
C875 C880 1.363 1_554 S
C876 H853 0.950 1_556 S
C876 C875 1.397 1_556 S
C876 C877 1.334 . S
C877 H854 0.950 . S
C877 C876 1.334 . S
C877 C878 1.287 . S
C878 C877 1.287 . S
C878 C879 1.524 . S
C878 H897 0.913 . S
C879 H855 0.950 . S
C879 C878 1.524 . S
C879 C880 1.415 . S
C880 H856 0.953 . S
C880 C875 1.363 1_556 S
C880 C879 1.415 . S
C881 H857 0.951 . S
C881 C882 1.366 . S
C881 C883 1.388 . S
C882 C881 1.366 . S
C882 C886 1.385 . S
C883 H858 0.951 . S
C883 C881 1.388 . S
C883 C884 1.366 . S
C884 C883 1.366 . S
C884 C885 1.414 . S
C884 C887 1.499 . S
C885 H859 0.950 . S
C885 C884 1.414 . S
C885 C886 1.374 . S
C886 H860 0.950 . S
C886 C882 1.385 . S
C886 C885 1.374 . S
C887 C884 1.499 . S
C887 C888 1.373 . S
C887 C889 1.389 . S
C888 H861 0.950 . S
C888 C874 1.377 . S
C888 C887 1.373 . S
C889 C873 1.377 . S
C889 C887 1.389 . S
C889 C890 1.524 . S
C890 C889 1.524 . S
C890 C891 1.397 . S
C890 C895 1.363 . S
C891 H862 0.950 . S
C891 C890 1.397 . S
C891 C892 1.334 . S
C892 H863 0.950 . S
C892 C891 1.334 . S
C892 C893 1.287 . S
C893 C892 1.287 . S
C893 C894 1.524 . S
C893 H896 0.999 . S
C894 H864 0.950 . S
C894 C893 1.524 . S
C894 C895 1.415 . S
C895 H865 0.950 . S
C895 C890 1.363 . S
C895 C894 1.415 . S
H896 C893 0.999 . S
H897 C878 0.913 . S
H898 C916 0.951 . S
H899 C918 0.951 . S
H900 C920 0.950 . S
H901 C921 0.950 . S
H902 C923 0.950 . S
H903 C926 0.950 . S
H904 C927 0.950 . S
H905 C929 0.950 1_554 S
H906 C930 0.950 . S
H907 C931 0.951 . S
H908 C933 0.951 . S
H909 C935 0.950 . S
H910 C936 0.950 . S
H911 C938 0.950 . S
H912 C941 0.950 . S
H913 C942 0.950 . S
H914 C944 0.950 . S
H915 C945 0.950 . S
C916 H898 0.951 . S
C916 C917 1.366 . S
C916 C918 1.388 . S
C917 C916 1.366 . S
C917 C921 1.385 . S
C918 H899 0.951 . S
C918 C916 1.388 . S
C918 C919 1.366 . S
C919 C918 1.366 . S
C919 C920 1.414 . S
C919 C922 1.499 . S
C920 H900 0.950 . S
C920 C919 1.414 . S
C920 C921 1.374 . S
C921 H901 0.950 . S
C921 C917 1.385 . S
C921 C920 1.374 . S
C922 C919 1.499 . S
C922 C923 1.373 . S
C922 C924 1.389 . S
C923 H902 0.950 . S
C923 C922 1.373 . S
C923 C939 1.377 . S
C924 C922 1.389 . S
C924 C925 1.524 . S
C924 C938 1.377 . S
C925 C924 1.524 . S
C925 C926 1.397 . S
C925 C930 1.363 . S
C926 H903 0.950 . S
C926 C925 1.397 . S
C926 C927 1.334 . S
C927 H904 0.950 . S
C927 C926 1.334 . S
C927 C928 1.287 . S
C928 C927 1.287 . S
C928 C929 1.524 . S
C928 H947 0.913 1_556 S
C929 H905 0.950 1_556 S
C929 C928 1.524 . S
C929 C930 1.415 . S
C930 H906 0.950 . S
C930 C925 1.363 . S
C930 C929 1.415 . S
C931 H907 0.951 . S
C931 C932 1.366 . S
C931 C933 1.388 . S
C932 C931 1.366 . S
C932 C936 1.385 . S
C933 H908 0.951 . S
C933 C931 1.388 . S
C933 C934 1.366 . S
C934 C933 1.366 . S
C934 C935 1.414 . S
C934 C937 1.499 . S
C935 H909 0.950 . S
C935 C934 1.414 . S
C935 C936 1.374 . S
C936 H910 0.950 . S
C936 C932 1.385 . S
C936 C935 1.374 . S
C937 C934 1.499 . S
C937 C938 1.373 . S
C937 C939 1.389 . S
C938 H911 0.950 . S
C938 C924 1.377 . S
C938 C937 1.373 . S
C939 C923 1.377 . S
C939 C937 1.389 . S
C939 C940 1.524 . S
C940 C939 1.524 . S
C940 C941 1.397 . S
C940 C945 1.363 . S
C941 H912 0.950 . S
C941 C940 1.397 . S
C941 C942 1.334 . S
C942 H913 0.950 . S
C942 C941 1.334 . S
C942 C943 1.287 . S
C943 C942 1.287 . S
C943 C944 1.524 . S
C943 H946 0.999 . S
C944 H914 0.950 . S
C944 C943 1.524 . S
C944 C945 1.415 . S
C945 H915 0.950 . S
C945 C940 1.363 . S
C945 C944 1.415 . S
H946 C943 0.999 . S
H947 C928 0.913 1_554 S
H948 C966 0.951 . S
H949 C968 0.951 . S
H950 C970 0.950 . S
H951 C971 0.950 . S
H952 C973 0.950 . S
H953 C976 0.950 . S
H954 C977 0.950 . S
H955 C979 0.950 . S
H956 C980 0.950 . S
H957 C981 0.951 1_455 S
H958 C983 0.951 . S
H959 C985 0.950 . S
H960 C986 0.950 . S
H961 C988 0.950 . S
H962 C991 0.950 . S
H963 C992 0.950 . S
H964 C994 0.950 1_455 S
H965 C995 0.950 . S
C966 H948 0.951 . S
C966 C967 1.366 . S
C966 C968 1.388 . S
C967 C966 1.366 . S
C967 C971 1.385 . S
C968 H949 0.951 . S
C968 C966 1.388 . S
C968 C969 1.366 . S
C969 C968 1.366 . S
C969 C970 1.414 . S
C969 C972 1.499 . S
C970 H950 0.950 . S
C970 C969 1.414 . S
C970 C971 1.374 . S
C971 H951 0.950 . S
C971 C967 1.385 . S
C971 C970 1.374 . S
C972 C969 1.499 . S
C972 C973 1.373 . S
C972 C974 1.389 . S
C973 H952 0.950 . S
C973 C972 1.373 . S
C973 C989 1.377 . S
C974 C972 1.389 . S
C974 C975 1.524 . S
C974 C988 1.377 . S
C975 C974 1.524 . S
C975 C976 1.397 . S
C975 C980 1.363 . S
C976 H953 0.950 . S
C976 C975 1.397 . S
C976 C977 1.334 . S
C977 H954 0.950 . S
C977 C976 1.334 . S
C977 C978 1.287 . S
C978 C977 1.287 . S
C978 C979 1.524 . S
C978 H997 0.913 . S
C979 H955 0.950 . S
C979 C978 1.524 . S
C979 C980 1.415 . S
C980 H956 0.950 . S
C980 C975 1.363 . S
C980 C979 1.415 . S
C981 H957 0.951 1_655 S
C981 C982 1.366 . S
C981 C983 1.388 . S
C982 C981 1.366 . S
C982 C986 1.385 . S
C983 H958 0.951 . S
C983 C981 1.388 . S
C983 C984 1.366 . S
C984 C983 1.366 . S
C984 C985 1.414 . S
C984 C987 1.499 . S
C985 H959 0.950 . S
C985 C984 1.414 . S
C985 C986 1.374 . S
C986 H960 0.950 . S
C986 C982 1.385 . S
C986 C985 1.374 . S
C987 C984 1.499 . S
C987 C988 1.373 . S
C987 C989 1.389 . S
C988 H961 0.950 . S
C988 C974 1.377 . S
C988 C987 1.373 . S
C989 C973 1.377 . S
C989 C987 1.389 . S
C989 C990 1.524 . S
C990 C989 1.524 . S
C990 C991 1.397 . S
C990 C995 1.363 . S
C991 H962 0.950 . S
C991 C990 1.397 . S
C991 C992 1.334 . S
C992 H963 0.950 . S
C992 C991 1.334 . S
C992 C993 1.287 . S
C993 C992 1.287 . S
C993 C994 1.524 . S
C993 H996 0.999 . S
C994 H964 0.950 1_655 S
C994 C993 1.524 . S
C994 C995 1.415 . S
C995 H965 0.950 . S
C995 C990 1.363 . S
C995 C994 1.415 . S
H996 C993 0.999 . S
H997 C978 0.913 . S
H998 C1016 0.951 . S
H999 C1018 0.951 . S
H1000 C1020 0.950 . S
H1001 C1021 0.950 . S
H1002 C1023 0.950 . S
H1003 C1026 0.950 . S
H1004 C1027 0.950 . S
H1005 C1029 0.950 . S
H1006 C1030 0.950 . S
H1007 C1031 0.951 . S
H1008 C1033 0.951 . S
H1009 C1035 0.950 . S
H1010 C1036 0.950 . S
H1011 C1038 0.950 . S
H1012 C1041 0.950 . S
H1013 C1042 0.950 . S
H1014 C1044 0.950 . S
H1015 C1045 0.950 . S
C1016 H998 0.951 . S
C1016 C1017 1.366 . S
C1016 C1018 1.388 . S
C1017 C1016 1.366 . S
C1017 C1021 1.385 . S
C1018 H999 0.951 . S
C1018 C1016 1.388 . S
C1018 C1019 1.366 . S
C1019 C1018 1.366 . S
C1019 C1020 1.414 . S
C1019 C1022 1.499 . S
C1020 H1000 0.950 . S
C1020 C1019 1.414 . S
C1020 C1021 1.374 . S
C1021 H1001 0.950 . S
C1021 C1017 1.385 . S
C1021 C1020 1.374 . S
C1022 C1019 1.499 . S
C1022 C1023 1.373 . S
C1022 C1024 1.389 . S
C1023 H1002 0.950 . S
C1023 C1022 1.373 . S
C1023 C1039 1.377 . S
C1024 C1022 1.389 . S
C1024 C1025 1.524 . S
C1024 C1038 1.377 . S
C1025 C1024 1.524 . S
C1025 C1026 1.397 . S
C1025 C1030 1.363 . S
C1026 H1003 0.950 . S
C1026 C1025 1.397 . S
C1026 C1027 1.334 . S
C1027 H1004 0.950 . S
C1027 C1026 1.334 . S
C1027 C1028 1.287 . S
C1028 C1027 1.287 . S
C1028 C1029 1.524 . S
C1028 H1047 0.913 . S
C1029 H1005 0.950 . S
C1029 C1028 1.524 . S
C1029 C1030 1.415 . S
C1030 H1006 0.950 . S
C1030 C1025 1.363 . S
C1030 C1029 1.415 . S
C1031 H1007 0.951 . S
C1031 C1032 1.366 . S
C1031 C1033 1.388 . S
C1032 C1031 1.366 . S
C1032 C1036 1.385 . S
C1033 H1008 0.951 . S
C1033 C1031 1.388 . S
C1033 C1034 1.366 . S
C1034 C1033 1.366 . S
C1034 C1035 1.414 . S
C1034 C1037 1.499 . S
C1035 H1009 0.950 . S
C1035 C1034 1.414 . S
C1035 C1036 1.374 . S
C1036 H1010 0.950 . S
C1036 C1032 1.385 . S
C1036 C1035 1.374 . S
C1037 C1034 1.499 . S
C1037 C1038 1.373 . S
C1037 C1039 1.389 . S
C1038 H1011 0.950 . S
C1038 C1024 1.377 . S
C1038 C1037 1.373 . S
C1039 C1023 1.377 . S
C1039 C1037 1.389 . S
C1039 C1040 1.524 . S
C1040 C1039 1.524 . S
C1040 C1041 1.397 . S
C1040 C1045 1.363 . S
C1041 H1012 0.950 . S
C1041 C1040 1.397 . S
C1041 C1042 1.334 . S
C1042 H1013 0.950 . S
C1042 C1041 1.334 . S
C1042 C1043 1.287 . S
C1043 C1042 1.287 . S
C1043 C1044 1.524 . S
C1043 H1046 0.999 . S
C1044 H1014 0.950 . S
C1044 C1043 1.524 . S
C1044 C1045 1.415 . S
C1045 H1015 0.950 . S
C1045 C1040 1.363 . S
C1045 C1044 1.415 . S
H1046 C1043 0.999 . S
H1047 C1028 0.913 . S
H1048 C1066 0.951 . S
H1049 C1068 0.951 . S
H1050 C1070 0.950 . S
H1051 C1071 0.950 . S
H1052 C1073 0.950 . S
H1053 C1076 0.950 . S
H1054 C1077 0.950 . S
H1055 C1079 0.950 . S
H1056 C1080 0.950 . S
H1057 C1081 0.951 . S
H1058 C1083 0.951 . S
H1059 C1085 0.950 . S
H1060 C1086 0.898 1_455 S
H1061 C1088 0.950 . S
H1062 C1091 0.950 . S
H1063 C1092 0.950 . S
H1064 C1094 0.950 . S
H1065 C1095 0.950 . S
C1066 H1048 0.951 . S
C1066 C1067 1.366 . S
C1066 C1068 1.388 . S
C1067 C1066 1.366 . S
C1067 C1071 1.385 . S
C1068 H1049 0.951 . S
C1068 C1066 1.388 . S
C1068 C1069 1.366 . S
C1069 C1068 1.366 . S
C1069 C1070 1.414 . S
C1069 C1072 1.499 . S
C1070 H1050 0.950 . S
C1070 C1069 1.414 . S
C1070 C1071 1.374 . S
C1071 H1051 0.950 . S
C1071 C1067 1.385 . S
C1071 C1070 1.374 . S
C1072 C1069 1.499 . S
C1072 C1073 1.373 . S
C1072 C1074 1.389 . S
C1073 H1052 0.950 . S
C1073 C1072 1.373 . S
C1073 C1089 1.377 . S
C1074 C1072 1.389 . S
C1074 C1075 1.524 . S
C1074 C1088 1.377 . S
C1075 C1074 1.524 . S
C1075 C1076 1.397 . S
C1075 C1080 1.363 . S
C1076 H1053 0.950 . S
C1076 C1075 1.397 . S
C1076 C1077 1.334 . S
C1077 H1054 0.950 . S
C1077 C1076 1.334 . S
C1077 C1078 1.287 . S
C1078 C1077 1.287 . S
C1078 C1079 1.524 . S
C1078 H1097 0.913 . S
C1079 H1055 0.950 . S
C1079 C1078 1.524 . S
C1079 C1080 1.415 . S
C1080 H1056 0.950 . S
C1080 C1075 1.363 . S
C1080 C1079 1.415 . S
C1081 H1057 0.951 . S
C1081 C1082 1.366 . S
C1081 C1083 1.388 . S
C1082 C1081 1.366 . S
C1082 C1086 1.385 . S
C1083 H1058 0.951 . S
C1083 C1081 1.388 . S
C1083 C1084 1.366 . S
C1084 C1083 1.366 . S
C1084 C1085 1.414 . S
C1084 C1087 1.499 . S
C1085 H1059 0.950 . S
C1085 C1084 1.414 . S
C1085 C1086 1.374 . S
C1086 H1060 0.898 1_655 S
C1086 C1082 1.385 . S
C1086 C1085 1.374 . S
C1087 C1084 1.499 . S
C1087 C1088 1.373 . S
C1087 C1089 1.389 . S
C1088 H1061 0.950 . S
C1088 C1074 1.377 . S
C1088 C1087 1.373 . S
C1089 C1073 1.377 . S
C1089 C1087 1.389 . S
C1089 C1090 1.524 . S
C1090 C1089 1.524 . S
C1090 C1091 1.397 . S
C1090 C1095 1.363 . S
C1091 H1062 0.950 . S
C1091 C1090 1.397 . S
C1091 C1092 1.334 . S
C1092 H1063 0.950 . S
C1092 C1091 1.334 . S
C1092 C1093 1.287 . S
C1093 C1092 1.287 . S
C1093 C1094 1.524 . S
C1093 H1096 0.999 . S
C1094 H1064 0.950 . S
C1094 C1093 1.524 . S
C1094 C1095 1.415 . S
C1095 H1065 0.950 . S
C1095 C1090 1.363 . S
C1095 C1094 1.415 . S
H1096 C1093 0.999 . S
H1097 C1078 0.913 . S
H1098 C1116 0.951 . S
H1099 C1118 0.951 . S
H1100 C1120 0.950 . S
H1101 C1121 0.950 . S
H1102 C1123 0.950 . S
H1103 C1126 0.950 . S
H1104 C1127 0.950 . S
H1105 C1129 0.950 . S
H1106 C1130 0.950 . S
H1107 C1131 0.951 . S
H1108 C1133 0.951 . S
H1109 C1135 0.950 . S
H1110 C1136 0.950 . S
H1111 C1138 0.950 . S
H1112 C1141 0.950 . S
H1113 C1142 0.950 1_556 S
H1114 C1144 0.950 1_556 S
H1115 C1145 0.950 . S
C1116 H1098 0.951 . S
C1116 C1117 1.366 . S
C1116 C1118 1.388 . S
C1117 C1116 1.366 . S
C1117 C1121 1.385 . S
C1118 H1099 0.951 . S
C1118 C1116 1.388 . S
C1118 C1119 1.366 . S
C1119 C1118 1.366 . S
C1119 C1120 1.414 . S
C1119 C1122 1.499 . S
C1120 H1100 0.950 . S
C1120 C1119 1.414 . S
C1120 C1121 1.374 . S
C1121 H1101 0.950 . S
C1121 C1117 1.385 . S
C1121 C1120 1.374 . S
C1122 C1119 1.499 . S
C1122 C1123 1.373 . S
C1122 C1124 1.389 . S
C1123 H1102 0.950 . S
C1123 C1122 1.373 . S
C1123 C1139 1.377 . S
C1124 C1122 1.389 . S
C1124 C1125 1.524 . S
C1124 C1138 1.377 . S
C1125 C1124 1.524 . S
C1125 C1126 1.397 . S
C1125 C1130 1.363 . S
C1126 H1103 0.950 . S
C1126 C1125 1.397 . S
C1126 C1127 1.334 . S
C1127 H1104 0.950 . S
C1127 C1126 1.334 . S
C1127 C1128 1.287 . S
C1128 C1127 1.287 . S
C1128 C1129 1.524 . S
C1128 H1147 0.913 . S
C1129 H1105 0.950 . S
C1129 C1128 1.524 . S
C1129 C1130 1.415 . S
C1130 H1106 0.950 . S
C1130 C1125 1.363 . S
C1130 C1129 1.415 . S
C1131 H1107 0.951 . S
C1131 C1132 1.366 . S
C1131 C1133 1.388 . S
C1132 C1131 1.366 . S
C1132 C1136 1.385 . S
C1133 H1108 0.951 . S
C1133 C1131 1.388 . S
C1133 C1134 1.366 . S
C1134 C1133 1.366 . S
C1134 C1135 1.414 . S
C1134 C1137 1.499 . S
C1135 H1109 0.950 . S
C1135 C1134 1.414 . S
C1135 C1136 1.374 . S
C1136 H1110 0.950 . S
C1136 C1132 1.385 . S
C1136 C1135 1.374 . S
C1137 C1134 1.499 . S
C1137 C1138 1.373 . S
C1137 C1139 1.389 . S
C1138 H1111 0.950 . S
C1138 C1124 1.377 . S
C1138 C1137 1.373 . S
C1139 C1123 1.377 . S
C1139 C1137 1.389 . S
C1139 C1140 1.524 . S
C1140 C1139 1.524 . S
C1140 C1141 1.397 . S
C1140 C1145 1.363 . S
C1141 H1112 0.950 . S
C1141 C1140 1.397 . S
C1141 C1142 1.334 . S
C1142 H1113 0.950 1_554 S
C1142 C1141 1.334 . S
C1142 C1143 1.287 1_554 S
C1143 C1142 1.287 1_556 S
C1143 C1144 1.524 1_556 S
C1143 H1146 0.999 . S
C1144 H1114 0.950 1_554 S
C1144 C1143 1.524 1_554 S
C1144 C1145 1.415 . S
C1145 H1115 0.950 . S
C1145 C1140 1.363 . S
C1145 C1144 1.415 . S
H1146 C1143 0.999 . S
H1147 C1128 0.913 . S
H1148 C1166 0.951 . S
H1149 C1168 0.951 . S
H1150 C1170 0.950 . S
H1151 C1171 0.950 . S
H1152 C1173 0.950 . S
H1153 C1176 0.950 . S
H1154 C1177 0.950 . S
H1155 C1179 0.950 . S
H1156 C1180 0.950 . S
H1157 C1181 0.951 . S
H1158 C1183 0.951 . S
H1159 C1185 0.950 . S
H1160 C1186 0.950 . S
H1161 C1188 0.950 . S
H1162 C1191 0.950 . S
H1163 C1192 0.950 . S
H1164 C1194 0.950 . S
H1165 C1195 0.950 . S
C1166 H1148 0.951 . S
C1166 C1167 1.366 . S
C1166 C1168 1.388 . S
C1167 C1166 1.366 . S
C1167 C1171 1.385 . S
C1168 H1149 0.951 . S
C1168 C1166 1.388 . S
C1168 C1169 1.366 . S
C1169 C1168 1.366 . S
C1169 C1170 1.414 . S
C1169 C1172 1.499 . S
C1170 H1150 0.950 . S
C1170 C1169 1.414 . S
C1170 C1171 1.374 . S
C1171 H1151 0.950 . S
C1171 C1167 1.385 . S
C1171 C1170 1.374 . S
C1172 C1169 1.499 . S
C1172 C1173 1.373 . S
C1172 C1174 1.389 . S
C1173 H1152 0.950 . S
C1173 C1172 1.373 . S
C1173 C1189 1.377 . S
C1174 C1172 1.389 . S
C1174 C1175 1.524 . S
C1174 C1188 1.377 . S
C1175 C1174 1.524 . S
C1175 C1176 1.397 . S
C1175 C1180 1.363 . S
C1176 H1153 0.950 . S
C1176 C1175 1.397 . S
C1176 C1177 1.334 . S
C1177 H1154 0.950 . S
C1177 C1176 1.334 . S
C1177 C1178 1.287 . S
C1178 C1177 1.287 . S
C1178 C1179 1.524 . S
C1178 H1197 0.913 . S
C1179 H1155 0.950 . S
C1179 C1178 1.524 . S
C1179 C1180 1.415 . S
C1180 H1156 0.950 . S
C1180 C1175 1.363 . S
C1180 C1179 1.415 . S
C1181 H1157 0.951 . S
C1181 C1182 1.366 . S
C1181 C1183 1.388 . S
C1182 C1181 1.366 . S
C1182 C1186 1.385 . S
C1183 H1158 0.951 . S
C1183 C1181 1.388 . S
C1183 C1184 1.366 . S
C1184 C1183 1.366 . S
C1184 C1185 1.414 . S
C1184 C1187 1.499 . S
C1185 H1159 0.950 . S
C1185 C1184 1.414 . S
C1185 C1186 1.374 . S
C1186 H1160 0.950 . S
C1186 C1182 1.385 . S
C1186 C1185 1.374 . S
C1187 C1184 1.499 . S
C1187 C1188 1.373 . S
C1187 C1189 1.389 . S
C1188 H1161 0.950 . S
C1188 C1174 1.377 . S
C1188 C1187 1.373 . S
C1189 C1173 1.377 . S
C1189 C1187 1.389 . S
C1189 C1190 1.524 . S
C1190 C1189 1.524 . S
C1190 C1191 1.397 . S
C1190 C1195 1.363 . S
C1191 H1162 0.950 . S
C1191 C1190 1.397 . S
C1191 C1192 1.334 . S
C1192 H1163 0.950 . S
C1192 C1191 1.334 . S
C1192 C1193 1.287 . S
C1193 C1192 1.287 . S
C1193 C1194 1.524 . S
C1193 H1196 0.999 . S
C1194 H1164 0.950 . S
C1194 C1193 1.524 . S
C1194 C1195 1.415 . S
C1195 H1165 0.950 . S
C1195 C1190 1.363 . S
C1195 C1194 1.415 . S
H1196 C1193 0.999 . S
H1197 C1178 0.913 . S
H1198 C1216 0.951 . S
H1199 C1218 0.951 . S
H1200 C1220 0.950 . S
H1201 C1221 0.950 . S
H1202 C1223 0.950 . S
H1203 C1226 0.950 . S
H1204 C1227 0.950 . S
H1205 C1229 0.950 . S
H1206 C1230 0.950 . S
H1207 C1231 0.951 . S
H1208 C1233 0.951 . S
H1209 C1235 0.950 . S
H1210 C1236 0.950 . S
H1211 C1238 0.950 . S
H1212 C1241 0.950 . S
H1213 C1242 0.950 . S
H1214 C1244 0.950 . S
H1215 C1245 0.950 . S
C1216 H1198 0.951 . S
C1216 C1217 1.366 . S
C1216 C1218 1.388 . S
C1217 C1216 1.366 . S
C1217 C1221 1.385 . S
C1218 H1199 0.951 . S
C1218 C1216 1.388 . S
C1218 C1219 1.366 . S
C1219 C1218 1.366 . S
C1219 C1220 1.414 . S
C1219 C1222 1.499 . S
C1220 H1200 0.950 . S
C1220 C1219 1.414 . S
C1220 C1221 1.374 . S
C1221 H1201 0.950 . S
C1221 C1217 1.385 . S
C1221 C1220 1.374 . S
C1222 C1219 1.499 . S
C1222 C1223 1.373 . S
C1222 C1224 1.389 . S
C1223 H1202 0.950 . S
C1223 C1222 1.373 . S
C1223 C1239 1.377 . S
C1224 C1222 1.389 . S
C1224 C1225 1.524 . S
C1224 C1238 1.377 . S
C1225 C1224 1.524 . S
C1225 C1226 1.397 . S
C1225 C1230 1.363 . S
C1226 H1203 0.950 . S
C1226 C1225 1.397 . S
C1226 C1227 1.334 . S
C1227 H1204 0.950 . S
C1227 C1226 1.334 . S
C1227 C1228 1.287 . S
C1228 C1227 1.287 . S
C1228 C1229 1.524 . S
C1228 H1247 0.913 . S
C1229 H1205 0.950 . S
C1229 C1228 1.524 . S
C1229 C1230 1.415 . S
C1230 H1206 0.950 . S
C1230 C1225 1.363 . S
C1230 C1229 1.415 . S
C1231 H1207 0.951 . S
C1231 C1232 1.366 . S
C1231 C1233 1.388 . S
C1232 C1231 1.366 . S
C1232 C1236 1.385 . S
C1233 H1208 0.951 . S
C1233 C1231 1.388 . S
C1233 C1234 1.366 . S
C1234 C1233 1.366 . S
C1234 C1235 1.414 . S
C1234 C1237 1.499 . S
C1235 H1209 0.950 . S
C1235 C1234 1.414 . S
C1235 C1236 1.374 . S
C1236 H1210 0.950 . S
C1236 C1232 1.385 . S
C1236 C1235 1.374 . S
C1237 C1234 1.499 . S
C1237 C1238 1.373 . S
C1237 C1239 1.389 . S
C1238 H1211 0.950 . S
C1238 C1224 1.377 . S
C1238 C1237 1.373 . S
C1239 C1223 1.377 . S
C1239 C1237 1.389 . S
C1239 C1240 1.524 . S
C1240 C1239 1.524 . S
C1240 C1241 1.397 . S
C1240 C1245 1.363 . S
C1241 H1212 0.950 . S
C1241 C1240 1.397 . S
C1241 C1242 1.334 . S
C1242 H1213 0.950 . S
C1242 C1241 1.334 . S
C1242 C1243 1.287 . S
C1243 C1242 1.287 . S
C1243 C1244 1.524 . S
C1243 H1246 0.999 . S
C1244 H1214 0.950 . S
C1244 C1243 1.524 . S
C1244 C1245 1.415 . S
C1245 H1215 0.950 . S
C1245 C1240 1.363 . S
C1245 C1244 1.415 . S
H1246 C1243 0.999 . S
H1247 C1228 0.913 . S
H1248 C1266 0.951 . S
H1249 C1268 0.951 . S
H1250 C1270 0.950 . S
H1251 C1271 0.950 . S
H1252 C1273 0.950 . S
H1253 C1276 0.950 . S
H1254 C1277 0.950 . S
H1255 C1279 0.950 . S
H1256 C1280 0.950 . S
H1257 C1281 0.951 . S
H1258 C1283 0.951 . S
H1259 C1285 0.950 . S
H1260 C1286 0.950 . S
H1261 C1288 0.950 . S
H1262 C1291 0.950 . S
H1263 C1292 0.950 . S
H1264 C1294 0.918 1_545 S
H1265 C1295 0.950 . S
C1266 H1248 0.951 . S
C1266 C1267 1.366 . S
C1266 C1268 1.388 . S
C1267 C1266 1.366 . S
C1267 C1271 1.385 . S
C1268 H1249 0.951 . S
C1268 C1266 1.388 . S
C1268 C1269 1.366 . S
C1269 C1268 1.366 . S
C1269 C1270 1.414 . S
C1269 C1272 1.499 . S
C1270 H1250 0.950 . S
C1270 C1269 1.414 . S
C1270 C1271 1.374 . S
C1271 H1251 0.950 . S
C1271 C1267 1.385 . S
C1271 C1270 1.374 . S
C1272 C1269 1.499 . S
C1272 C1273 1.373 . S
C1272 C1274 1.389 . S
C1273 H1252 0.950 . S
C1273 C1272 1.373 . S
C1273 C1289 1.377 . S
C1274 C1272 1.389 . S
C1274 C1275 1.524 . S
C1274 C1288 1.377 . S
C1275 C1274 1.524 . S
C1275 C1276 1.397 . S
C1275 C1280 1.363 . S
C1276 H1253 0.950 . S
C1276 C1275 1.397 . S
C1276 C1277 1.334 . S
C1277 H1254 0.950 . S
C1277 C1276 1.334 . S
C1277 C1278 1.287 . S
C1278 C1277 1.287 . S
C1278 C1279 1.524 . S
C1278 H1297 0.913 . S
C1279 H1255 0.950 . S
C1279 C1278 1.524 . S
C1279 C1280 1.415 . S
C1280 H1256 0.950 . S
C1280 C1275 1.363 . S
C1280 C1279 1.415 . S
C1281 H1257 0.951 . S
C1281 C1282 1.366 . S
C1281 C1283 1.388 . S
C1282 C1281 1.366 . S
C1282 C1286 1.385 . S
C1283 H1258 0.951 . S
C1283 C1281 1.388 . S
C1283 C1284 1.366 . S
C1284 C1283 1.366 . S
C1284 C1285 1.414 . S
C1284 C1287 1.499 . S
C1285 H1259 0.950 . S
C1285 C1284 1.414 . S
C1285 C1286 1.374 . S
C1286 H1260 0.950 . S
C1286 C1282 1.385 . S
C1286 C1285 1.374 . S
C1287 C1284 1.499 . S
C1287 C1288 1.373 . S
C1287 C1289 1.389 . S
C1288 H1261 0.950 . S
C1288 C1274 1.377 . S
C1288 C1287 1.373 . S
C1289 C1273 1.377 . S
C1289 C1287 1.389 . S
C1289 C1290 1.524 . S
C1290 C1289 1.524 . S
C1290 C1291 1.397 1_556 S
C1290 C1295 1.363 . S
C1291 H1262 0.950 . S
C1291 C1290 1.397 1_554 S
C1291 C1292 1.334 . S
C1292 H1263 0.950 . S
C1292 C1291 1.334 . S
C1292 C1293 1.287 . S
C1293 C1292 1.287 . S
C1293 C1294 1.534 . S
C1293 H1296 0.999 1_565 S
C1294 H1264 0.918 1_565 S
C1294 C1293 1.534 . S
C1294 C1295 1.442 1_554 S
C1295 H1265 0.950 . S
C1295 C1290 1.363 . S
C1295 C1294 1.442 1_556 S
H1296 C1293 0.999 1_545 S
H1297 C1278 0.913 . S
H1298 C1316 0.951 . S
H1299 C1318 0.951 . S
H1300 C1320 0.950 . S
H1301 C1321 0.950 . S
H1302 C1323 0.950 . S
H1303 C1326 0.950 . S
H1304 C1327 0.950 . S
H1305 C1329 0.950 . S
H1306 C1330 0.950 . S
H1307 C1331 0.951 . S
H1308 C1333 0.951 . S
H1309 C1335 0.950 . S
H1310 C1336 0.950 . S
H1311 C1338 0.950 . S
H1312 C1341 0.950 . S
H1313 C1342 0.950 . S
H1314 C1344 0.950 . S
H1315 C1345 0.950 . S
C1316 H1298 0.951 . S
C1316 C1317 1.366 . S
C1316 C1318 1.388 . S
C1317 C1316 1.366 . S
C1317 C1321 1.385 . S
C1318 H1299 0.951 . S
C1318 C1316 1.388 . S
C1318 C1319 1.366 . S
C1319 C1318 1.366 . S
C1319 C1320 1.414 . S
C1319 C1322 1.499 . S
C1320 H1300 0.950 . S
C1320 C1319 1.414 . S
C1320 C1321 1.374 . S
C1321 H1301 0.950 . S
C1321 C1317 1.385 . S
C1321 C1320 1.374 . S
C1322 C1319 1.499 . S
C1322 C1323 1.373 . S
C1322 C1324 1.389 . S
C1323 H1302 0.950 . S
C1323 C1322 1.373 . S
C1323 C1339 1.377 . S
C1324 C1322 1.389 . S
C1324 C1325 1.524 . S
C1324 C1338 1.377 . S
C1325 C1324 1.524 . S
C1325 C1326 1.397 . S
C1325 C1330 1.363 . S
C1326 H1303 0.950 . S
C1326 C1325 1.397 . S
C1326 C1327 1.334 . S
C1327 H1304 0.950 . S
C1327 C1326 1.334 . S
C1327 C1328 1.287 . S
C1328 C1327 1.287 . S
C1328 C1329 1.524 . S
C1328 H1347 0.913 . S
C1329 H1305 0.950 . S
C1329 C1328 1.524 . S
C1329 C1330 1.415 . S
C1330 H1306 0.950 . S
C1330 C1325 1.363 . S
C1330 C1329 1.415 . S
C1331 H1307 0.951 . S
C1331 C1332 1.366 . S
C1331 C1333 1.388 . S
C1332 C1331 1.366 . S
C1332 C1336 1.385 . S
C1333 H1308 0.951 . S
C1333 C1331 1.388 . S
C1333 C1334 1.366 . S
C1334 C1333 1.366 . S
C1334 C1335 1.414 . S
C1334 C1337 1.499 . S
C1335 H1309 0.950 . S
C1335 C1334 1.414 . S
C1335 C1336 1.374 . S
C1336 H1310 0.950 . S
C1336 C1332 1.385 . S
C1336 C1335 1.374 . S
C1337 C1334 1.499 . S
C1337 C1338 1.373 . S
C1337 C1339 1.389 . S
C1338 H1311 0.950 . S
C1338 C1324 1.377 . S
C1338 C1337 1.373 . S
C1339 C1323 1.377 . S
C1339 C1337 1.389 . S
C1339 C1340 1.524 . S
C1340 C1339 1.524 . S
C1340 C1341 1.397 . S
C1340 C1345 1.363 . S
C1341 H1312 0.950 . S
C1341 C1340 1.397 . S
C1341 C1342 1.334 . S
C1342 H1313 0.950 . S
C1342 C1341 1.334 . S
C1342 C1343 1.287 . S
C1343 C1342 1.287 . S
C1343 C1344 1.524 . S
C1343 H1346 0.999 . S
C1344 H1314 0.950 . S
C1344 C1343 1.524 . S
C1344 C1345 1.415 . S
C1345 H1315 0.950 . S
C1345 C1340 1.363 . S
C1345 C1344 1.415 . S
H1346 C1343 0.999 . S
H1347 C1328 0.913 . S
H1348 C1366 0.951 . S
H1349 C1368 0.951 . S
H1350 C1370 0.950 . S
H1351 C1371 0.950 . S
H1352 C1373 0.950 . S
H1353 C1376 0.950 . S
H1354 C1377 0.950 . S
H1355 C1379 0.950 . S
H1356 C1380 0.950 . S
H1357 C1381 0.951 . S
H1358 C1383 0.951 . S
H1359 C1385 0.950 . S
H1360 C1386 0.950 . S
H1361 C1388 0.950 . S
H1362 C1391 0.950 . S
H1363 C1392 0.950 . S
H1364 C1394 0.950 . S
H1365 C1395 0.950 . S
C1366 H1348 0.951 . S
C1366 C1367 1.366 . S
C1366 C1368 1.388 . S
C1367 C1366 1.366 . S
C1367 C1371 1.385 . S
C1368 H1349 0.951 . S
C1368 C1366 1.388 . S
C1368 C1369 1.366 . S
C1369 C1368 1.366 . S
C1369 C1370 1.414 . S
C1369 C1372 1.499 . S
C1370 H1350 0.950 . S
C1370 C1369 1.414 . S
C1370 C1371 1.374 . S
C1371 H1351 0.950 . S
C1371 C1367 1.385 . S
C1371 C1370 1.374 . S
C1372 C1369 1.499 . S
C1372 C1373 1.373 . S
C1372 C1374 1.389 . S
C1373 H1352 0.950 . S
C1373 C1372 1.373 . S
C1373 C1389 1.377 . S
C1374 C1372 1.389 . S
C1374 C1375 1.524 . S
C1374 C1388 1.377 . S
C1375 C1374 1.524 . S
C1375 C1376 1.397 . S
C1375 C1380 1.363 . S
C1376 H1353 0.950 . S
C1376 C1375 1.397 . S
C1376 C1377 1.334 . S
C1377 H1354 0.950 . S
C1377 C1376 1.334 . S
C1377 C1378 1.287 . S
C1378 C1377 1.287 . S
C1378 C1379 1.524 . S
C1378 H1397 0.913 . S
C1379 H1355 0.950 . S
C1379 C1378 1.524 . S
C1379 C1380 1.415 . S
C1380 H1356 0.950 . S
C1380 C1375 1.363 . S
C1380 C1379 1.415 . S
C1381 H1357 0.951 . S
C1381 C1382 1.366 . S
C1381 C1383 1.388 . S
C1382 C1381 1.366 . S
C1382 C1386 1.385 . S
C1383 H1358 0.951 . S
C1383 C1381 1.388 . S
C1383 C1384 1.366 . S
C1384 C1383 1.366 . S
C1384 C1385 1.414 . S
C1384 C1387 1.499 . S
C1385 H1359 0.950 . S
C1385 C1384 1.414 . S
C1385 C1386 1.374 . S
C1386 H1360 0.950 . S
C1386 C1382 1.385 . S
C1386 C1385 1.374 . S
C1387 C1384 1.499 . S
C1387 C1388 1.373 . S
C1387 C1389 1.389 . S
C1388 H1361 0.950 . S
C1388 C1374 1.377 . S
C1388 C1387 1.373 . S
C1389 C1373 1.377 . S
C1389 C1387 1.389 . S
C1389 C1390 1.524 . S
C1390 C1389 1.524 . S
C1390 C1391 1.397 . S
C1390 C1395 1.363 . S
C1391 H1362 0.950 . S
C1391 C1390 1.397 . S
C1391 C1392 1.334 1_554 S
C1392 H1363 0.950 . S
C1392 C1391 1.334 1_556 S
C1392 C1393 1.287 . S
C1393 C1392 1.287 . S
C1393 C1394 1.524 1_556 S
C1393 H1396 0.999 . S
C1394 H1364 0.950 . S
C1394 C1393 1.524 1_554 S
C1394 C1395 1.415 . S
C1395 H1365 0.950 . S
C1395 C1390 1.363 . S
C1395 C1394 1.415 . S
H1396 C1393 0.999 . S
H1397 C1378 0.913 . S
H1398 C1416 0.951 . S
H1399 C1418 0.951 . S
H1400 C1420 0.950 . S
H1401 C1421 0.950 . S
H1402 C1423 0.950 . S
H1403 C1426 0.950 . S
H1404 C1427 0.950 . S
H1405 C1429 0.950 . S
H1406 C1430 0.950 . S
H1407 C1431 0.951 . S
H1408 C1433 0.951 . S
H1409 C1435 0.950 . S
H1410 C1436 0.950 . S
H1411 C1438 0.950 . S
H1412 C1441 0.950 . S
H1413 C1442 0.950 . S
H1414 C1444 0.950 . S
H1415 C1445 0.950 . S
C1416 H1398 0.951 . S
C1416 C1417 1.366 . S
C1416 C1418 1.388 . S
C1417 C1416 1.366 . S
C1417 C1421 1.385 . S
C1418 H1399 0.951 . S
C1418 C1416 1.388 . S
C1418 C1419 1.366 . S
C1419 C1418 1.366 . S
C1419 C1420 1.414 . S
C1419 C1422 1.499 . S
C1420 H1400 0.950 . S
C1420 C1419 1.414 . S
C1420 C1421 1.374 . S
C1421 H1401 0.950 . S
C1421 C1417 1.385 . S
C1421 C1420 1.374 . S
C1422 C1419 1.499 . S
C1422 C1423 1.373 . S
C1422 C1424 1.389 . S
C1423 H1402 0.950 . S
C1423 C1422 1.373 . S
C1423 C1439 1.377 . S
C1424 C1422 1.389 . S
C1424 C1425 1.524 . S
C1424 C1438 1.377 . S
C1425 C1424 1.524 . S
C1425 C1426 1.397 . S
C1425 C1430 1.363 . S
C1426 H1403 0.950 . S
C1426 C1425 1.397 . S
C1426 C1427 1.334 . S
C1427 H1404 0.950 . S
C1427 C1426 1.334 . S
C1427 C1428 1.287 . S
C1428 C1427 1.287 . S
C1428 C1429 1.524 . S
C1428 H1447 0.913 . S
C1429 H1405 0.950 . S
C1429 C1428 1.524 . S
C1429 C1430 1.415 . S
C1430 H1406 0.950 . S
C1430 C1425 1.363 . S
C1430 C1429 1.415 . S
C1431 H1407 0.951 . S
C1431 C1432 1.366 . S
C1431 C1433 1.388 . S
C1432 C1431 1.366 . S
C1432 C1436 1.385 . S
C1433 H1408 0.951 . S
C1433 C1431 1.388 . S
C1433 C1434 1.366 . S
C1434 C1433 1.366 . S
C1434 C1435 1.414 . S
C1434 C1437 1.499 . S
C1435 H1409 0.950 . S
C1435 C1434 1.414 . S
C1435 C1436 1.374 . S
C1436 H1410 0.950 . S
C1436 C1432 1.385 . S
C1436 C1435 1.374 . S
C1437 C1434 1.499 . S
C1437 C1438 1.373 . S
C1437 C1439 1.389 . S
C1438 H1411 0.950 . S
C1438 C1424 1.377 . S
C1438 C1437 1.373 . S
C1439 C1423 1.377 . S
C1439 C1437 1.389 . S
C1439 C1440 1.524 . S
C1440 C1439 1.524 . S
C1440 C1441 1.397 . S
C1440 C1445 1.363 . S
C1441 H1412 0.950 . S
C1441 C1440 1.397 . S
C1441 C1442 1.334 . S
C1442 H1413 0.950 . S
C1442 C1441 1.334 . S
C1442 C1443 1.287 . S
C1443 C1442 1.287 . S
C1443 C1444 1.524 . S
C1443 H1446 0.999 . S
C1444 H1414 0.950 . S
C1444 C1443 1.524 . S
C1444 C1445 1.415 . S
C1445 H1415 0.950 . S
C1445 C1440 1.363 . S
C1445 C1444 1.415 . S
H1446 C1443 0.999 . S
H1447 C1428 0.913 . S
H1448 C1466 0.951 . S
H1449 C1468 0.951 . S
H1450 C1470 0.950 . S
H1451 C1471 0.950 . S
H1452 C1473 0.950 . S
H1453 C1476 0.950 . S
H1454 C1477 0.950 . S
H1455 C1479 0.901 1_455 S
H1456 C1480 0.950 . S
H1457 C1481 0.951 . S
H1458 C1483 0.951 . S
H1459 C1485 0.950 . S
H1460 C1486 0.950 . S
H1461 C1488 0.950 . S
H1462 C1491 0.950 . S
H1463 C1492 0.950 . S
H1464 C1494 0.950 . S
H1465 C1495 0.950 . S
C1466 H1448 0.951 . S
C1466 C1467 1.366 . S
C1466 C1468 1.388 . S
C1467 C1466 1.366 . S
C1467 C1471 1.385 . S
C1468 H1449 0.951 . S
C1468 C1466 1.388 . S
C1468 C1469 1.366 . S
C1469 C1468 1.366 . S
C1469 C1470 1.414 . S
C1469 C1472 1.499 . S
C1470 H1450 0.950 . S
C1470 C1469 1.414 . S
C1470 C1471 1.374 . S
C1471 H1451 0.950 . S
C1471 C1467 1.385 . S
C1471 C1470 1.374 . S
C1472 C1469 1.499 . S
C1472 C1473 1.373 . S
C1472 C1474 1.389 . S
C1473 H1452 0.950 . S
C1473 C1472 1.373 . S
C1473 C1489 1.377 . S
C1474 C1472 1.389 . S
C1474 C1475 1.524 . S
C1474 C1488 1.377 . S
C1475 C1474 1.524 . S
C1475 C1476 1.397 . S
C1475 C1480 1.363 . S
C1476 H1453 0.950 . S
C1476 C1475 1.397 . S
C1476 C1477 1.334 . S
C1477 H1454 0.950 . S
C1477 C1476 1.334 . S
C1477 C1478 1.287 . S
C1478 C1477 1.287 . S
C1478 C1479 1.524 . S
C1478 H1497 0.913 . S
C1479 H1455 0.901 1_655 S
C1479 C1478 1.524 . S
C1479 C1480 1.415 . S
C1480 H1456 0.950 . S
C1480 C1475 1.363 . S
C1480 C1479 1.415 . S
C1481 H1457 0.951 . S
C1481 C1482 1.366 . S
C1481 C1483 1.388 . S
C1482 C1481 1.366 . S
C1482 C1486 1.385 . S
C1483 H1458 0.951 . S
C1483 C1481 1.388 . S
C1483 C1484 1.366 . S
C1484 C1483 1.366 . S
C1484 C1485 1.414 . S
C1484 C1487 1.499 . S
C1485 H1459 0.950 . S
C1485 C1484 1.414 . S
C1485 C1486 1.374 . S
C1486 H1460 0.950 . S
C1486 C1482 1.385 . S
C1486 C1485 1.374 . S
C1487 C1484 1.499 . S
C1487 C1488 1.373 . S
C1487 C1489 1.389 . S
C1488 H1461 0.950 . S
C1488 C1474 1.377 . S
C1488 C1487 1.373 . S
C1489 C1473 1.377 . S
C1489 C1487 1.389 . S
C1489 C1490 1.524 . S
C1490 C1489 1.524 . S
C1490 C1491 1.397 1_556 S
C1490 C1495 1.363 . S
C1491 H1462 0.950 . S
C1491 C1490 1.397 1_554 S
C1491 C1492 1.334 . S
C1492 H1463 0.950 . S
C1492 C1491 1.334 . S
C1492 C1493 1.287 . S
C1493 C1492 1.287 . S
C1493 C1494 1.524 . S
C1493 H1496 0.999 . S
C1494 H1464 0.950 . S
C1494 C1493 1.524 . S
C1494 C1495 1.415 1_554 S
C1495 H1465 0.950 . S
C1495 C1490 1.363 . S
C1495 C1494 1.415 1_556 S
H1496 C1493 0.999 . S
H1497 C1478 0.913 . S
H1498 C1516 0.951 . S
H1499 C1518 0.951 . S
H1500 C1520 0.950 . S
H1501 C1521 0.950 . S
H1502 C1523 0.950 . S
H1503 C1526 0.950 . S
H1504 C1527 0.950 . S
H1505 C1529 0.950 . S
H1506 C1530 0.950 . S
H1507 C1531 0.951 . S
H1508 C1533 0.951 . S
H1509 C1535 0.950 . S
H1510 C1536 0.950 . S
H1511 C1538 0.950 . S
H1512 C1541 0.950 . S
H1513 C1542 0.950 . S
H1514 C1544 0.950 . S
H1515 C1545 0.950 . S
C1516 H1498 0.951 . S
C1516 C1517 1.366 . S
C1516 C1518 1.388 . S
C1517 C1516 1.366 . S
C1517 C1521 1.385 . S
C1518 H1499 0.951 . S
C1518 C1516 1.388 . S
C1518 C1519 1.366 . S
C1519 C1518 1.366 . S
C1519 C1520 1.414 . S
C1519 C1522 1.499 . S
C1520 H1500 0.950 . S
C1520 C1519 1.414 . S
C1520 C1521 1.374 . S
C1521 H1501 0.950 . S
C1521 C1517 1.385 . S
C1521 C1520 1.374 . S
C1522 C1519 1.499 . S
C1522 C1523 1.373 . S
C1522 C1524 1.389 . S
C1523 H1502 0.950 . S
C1523 C1522 1.373 . S
C1523 C1539 1.377 . S
C1524 C1522 1.389 . S
C1524 C1525 1.524 . S
C1524 C1538 1.377 . S
C1525 C1524 1.524 . S
C1525 C1526 1.397 . S
C1525 C1530 1.363 . S
C1526 H1503 0.950 . S
C1526 C1525 1.397 . S
C1526 C1527 1.334 . S
C1527 H1504 0.950 . S
C1527 C1526 1.334 . S
C1527 C1528 1.287 . S
C1528 C1527 1.287 . S
C1528 C1529 1.524 . S
C1528 H1547 0.913 . S
C1529 H1505 0.950 . S
C1529 C1528 1.524 . S
C1529 C1530 1.415 . S
C1530 H1506 0.950 . S
C1530 C1525 1.363 . S
C1530 C1529 1.415 . S
C1531 H1507 0.951 . S
C1531 C1532 1.366 . S
C1531 C1533 1.388 . S
C1532 C1531 1.366 . S
C1532 C1536 1.385 . S
C1533 H1508 0.951 . S
C1533 C1531 1.388 . S
C1533 C1534 1.366 . S
C1534 C1533 1.366 . S
C1534 C1535 1.414 . S
C1534 C1537 1.499 . S
C1535 H1509 0.950 . S
C1535 C1534 1.414 . S
C1535 C1536 1.374 . S
C1536 H1510 0.950 . S
C1536 C1532 1.385 . S
C1536 C1535 1.374 . S
C1537 C1534 1.499 . S
C1537 C1538 1.373 . S
C1537 C1539 1.389 . S
C1538 H1511 0.950 . S
C1538 C1524 1.377 . S
C1538 C1537 1.373 . S
C1539 C1523 1.377 . S
C1539 C1537 1.389 . S
C1539 C1540 1.524 . S
C1540 C1539 1.524 . S
C1540 C1541 1.397 . S
C1540 C1545 1.363 . S
C1541 H1512 0.950 . S
C1541 C1540 1.397 . S
C1541 C1542 1.334 . S
C1542 H1513 0.950 . S
C1542 C1541 1.334 . S
C1542 C1543 1.287 1_554 S
C1543 C1542 1.287 1_556 S
C1543 C1544 1.524 . S
C1543 H1546 0.999 . S
C1544 H1514 0.950 . S
C1544 C1543 1.524 . S
C1544 C1545 1.415 1_556 S
C1545 H1515 0.950 . S
C1545 C1540 1.363 . S
C1545 C1544 1.415 1_554 S
H1546 C1543 0.999 . S
H1547 C1528 0.913 . S
H1548 C1566 0.951 . S
H1549 C1568 0.951 . S
H1550 C1570 0.950 . S
H1551 C1571 0.950 . S
H1552 C1573 0.950 . S
H1553 C1576 0.950 . S
H1554 C1577 0.950 . S
H1555 C1579 0.950 . S
H1556 C1580 0.950 . S
H1557 C1581 0.951 . S
H1558 C1583 0.951 . S
H1559 C1585 0.950 . S
H1560 C1586 0.950 . S
H1561 C1588 0.950 . S
H1562 C1591 0.950 . S
H1563 C1592 0.950 . S
H1564 C1594 0.950 . S
H1565 C1595 0.950 . S
C1566 H1548 0.951 . S
C1566 C1567 1.366 . S
C1566 C1568 1.388 . S
C1567 C1566 1.366 . S
C1567 C1571 1.385 . S
C1568 H1549 0.951 . S
C1568 C1566 1.388 . S
C1568 C1569 1.366 . S
C1569 C1568 1.366 . S
C1569 C1570 1.414 . S
C1569 C1572 1.499 . S
C1570 H1550 0.950 . S
C1570 C1569 1.414 . S
C1570 C1571 1.374 . S
C1571 H1551 0.950 . S
C1571 C1567 1.385 . S
C1571 C1570 1.374 . S
C1572 C1569 1.499 . S
C1572 C1573 1.373 . S
C1572 C1574 1.389 . S
C1573 H1552 0.950 . S
C1573 C1572 1.373 . S
C1573 C1589 1.377 . S
C1574 C1572 1.389 . S
C1574 C1575 1.524 . S
C1574 C1588 1.377 . S
C1575 C1574 1.524 . S
C1575 C1576 1.397 . S
C1575 C1580 1.363 . S
C1576 H1553 0.950 . S
C1576 C1575 1.397 . S
C1576 C1577 1.334 . S
C1577 H1554 0.950 . S
C1577 C1576 1.334 . S
C1577 C1578 1.287 . S
C1578 C1577 1.287 . S
C1578 C1579 1.524 . S
C1578 H1597 0.913 . S
C1579 H1555 0.950 . S
C1579 C1578 1.524 . S
C1579 C1580 1.415 . S
C1580 H1556 0.950 . S
C1580 C1575 1.363 . S
C1580 C1579 1.415 . S
C1581 H1557 0.951 . S
C1581 C1582 1.366 . S
C1581 C1583 1.388 . S
C1582 C1581 1.366 . S
C1582 C1586 1.385 . S
C1583 H1558 0.951 . S
C1583 C1581 1.388 . S
C1583 C1584 1.366 . S
C1584 C1583 1.366 . S
C1584 C1585 1.414 . S
C1584 C1587 1.499 . S
C1585 H1559 0.950 . S
C1585 C1584 1.414 . S
C1585 C1586 1.374 . S
C1586 H1560 0.950 . S
C1586 C1582 1.385 . S
C1586 C1585 1.374 . S
C1587 C1584 1.499 . S
C1587 C1588 1.373 . S
C1587 C1589 1.389 . S
C1588 H1561 0.950 . S
C1588 C1574 1.377 . S
C1588 C1587 1.373 . S
C1589 C1573 1.377 . S
C1589 C1587 1.389 . S
C1589 C1590 1.524 . S
C1590 C1589 1.524 . S
C1590 C1591 1.397 . S
C1590 C1595 1.363 . S
C1591 H1562 0.950 . S
C1591 C1590 1.397 . S
C1591 C1592 1.334 . S
C1592 H1563 0.950 . S
C1592 C1591 1.334 . S
C1592 C1593 1.287 . S
C1593 C1592 1.287 . S
C1593 C1594 1.524 . S
C1593 H1596 0.999 . S
C1594 H1564 0.950 . S
C1594 C1593 1.524 . S
C1594 C1595 1.415 . S
C1595 H1565 0.950 . S
C1595 C1590 1.363 . S
C1595 C1594 1.415 . S
H1596 C1593 0.999 . S
H1597 C1578 0.913 . S
H1598 C1616 0.951 . S
H1599 C1618 0.951 . S
H1600 C1620 0.950 . S
H1601 C1621 0.950 . S
H1602 C1623 0.950 . S
H1603 C1626 0.950 . S
H1604 C1627 0.950 . S
H1605 C1629 0.950 . S
H1606 C1630 0.950 . S
H1607 C1631 0.951 . S
H1608 C1633 0.951 . S
H1609 C1635 0.950 . S
H1610 C1636 0.950 . S
H1611 C1638 0.950 . S
H1612 C1641 0.950 . S
H1613 C1642 0.950 . S
H1614 C1644 0.950 . S
H1615 C1645 0.950 . S
C1616 H1598 0.951 . S
C1616 C1617 1.366 . S
C1616 C1618 1.388 . S
C1617 C1616 1.366 . S
C1617 C1621 1.385 . S
C1618 H1599 0.951 . S
C1618 C1616 1.388 . S
C1618 C1619 1.366 . S
C1619 C1618 1.366 . S
C1619 C1620 1.414 . S
C1619 C1622 1.499 . S
C1620 H1600 0.950 . S
C1620 C1619 1.414 . S
C1620 C1621 1.374 . S
C1621 H1601 0.950 . S
C1621 C1617 1.385 . S
C1621 C1620 1.374 . S
C1622 C1619 1.499 . S
C1622 C1623 1.373 . S
C1622 C1624 1.389 . S
C1623 H1602 0.950 . S
C1623 C1622 1.373 . S
C1623 C1639 1.377 . S
C1624 C1622 1.389 . S
C1624 C1625 1.524 . S
C1624 C1638 1.377 . S
C1625 C1624 1.524 . S
C1625 C1626 1.397 . S
C1625 C1630 1.363 . S
C1626 H1603 0.950 . S
C1626 C1625 1.397 . S
C1626 C1627 1.334 . S
C1627 H1604 0.950 . S
C1627 C1626 1.334 . S
C1627 C1628 1.287 . S
C1628 C1627 1.287 . S
C1628 C1629 1.524 . S
C1628 H1647 0.913 . S
C1629 H1605 0.950 . S
C1629 C1628 1.524 . S
C1629 C1630 1.415 . S
C1630 H1606 0.950 . S
C1630 C1625 1.363 . S
C1630 C1629 1.415 . S
C1631 H1607 0.951 . S
C1631 C1632 1.366 . S
C1631 C1633 1.388 . S
C1632 C1631 1.366 . S
C1632 C1636 1.385 . S
C1633 H1608 0.951 . S
C1633 C1631 1.388 . S
C1633 C1634 1.366 . S
C1634 C1633 1.366 . S
C1634 C1635 1.414 . S
C1634 C1637 1.499 . S
C1635 H1609 0.950 . S
C1635 C1634 1.414 . S
C1635 C1636 1.374 . S
C1636 H1610 0.950 . S
C1636 C1632 1.385 . S
C1636 C1635 1.374 . S
C1637 C1634 1.499 . S
C1637 C1638 1.373 . S
C1637 C1639 1.389 . S
C1638 H1611 0.950 . S
C1638 C1624 1.377 . S
C1638 C1637 1.373 . S
C1639 C1623 1.377 . S
C1639 C1637 1.389 . S
C1639 C1640 1.524 . S
C1640 C1639 1.524 . S
C1640 C1641 1.397 . S
C1640 C1645 1.363 . S
C1641 H1612 0.950 . S
C1641 C1640 1.397 . S
C1641 C1642 1.334 . S
C1642 H1613 0.950 . S
C1642 C1641 1.334 . S
C1642 C1643 1.287 . S
C1643 C1642 1.287 . S
C1643 C1644 1.524 . S
C1643 H1646 0.999 . S
C1644 H1614 0.950 . S
C1644 C1643 1.524 . S
C1644 C1645 1.415 . S
C1645 H1615 0.950 . S
C1645 C1640 1.363 . S
C1645 C1644 1.415 . S
H1646 C1643 0.999 . S
H1647 C1628 0.913 . S
C467 C1 2.931 . S
C482 C307 2.915 . S
C517 C67 2.446 . S
C532 C338 2.480 . S
C582 C377 1.275 . S
C567 C97 1.303 . S
C617 C133 0.365 . S
C632 C414 0.392 . S
C682 C337 2.849 . S
C667 C25 2.916 . S
C732 C294 1.613 . S
C717 C37 1.611 . S
C782 C426 1.326 . S
C767 C103 1.358 . S
C832 C383 0.902 . S
C817 C109 0.902 . S
C867 C31 2.271 . S
C882 C427 2.286 . S
C932 C343 1.269 . S
C917 C73 1.261 . S
C967 C139 0.587 . S
C982 C306 0.615 . S
C1017 C61 2.619 . S
C1032 C378 2.609 . S
C1082 C298 2.923 . S
C1067 C175 2.951 . S
C1117 C181 2.434 . S
C1132 C347 2.464 . S
C1167 C247 1.340 . S
C1182 C386 1.291 . S
C1217 C277 0.378 . S
C1232 C423 0.386 . S
C1267 C145 2.928 . S
C1282 C346 2.841 . S
C1332 C303 1.622 . S
C1317 C211 1.614 . S
C1382 C417 1.305 . S
C1367 C217 1.351 . S
C1432 C374 0.923 . S
C1417 C283 0.928 . S
C1467 C169 2.278 . S
C1482 C418 2.281 . S
C1532 C334 1.268 . S
C1517 C241 1.266 . S
C1582 C297 0.606 . S
C1567 C253 0.575 . S
C1617 C205 2.627 . S
C1632 C387 2.620 . S
