# Generated by pormake.
# Topology rtl, (3,6)-cn, num edge types: 1
# Building blocks:
#     Node 0, Type 0, BuildingBlock: BETDIP_clean_linker_0, # of connection points: 3
#     Node 1, Type 0, BuildingBlock: BETDIP_clean_linker_0, # of connection points: 3
#     Node 2, Type 0, BuildingBlock: BETDIP_clean_linker_0, # of connection points: 3
#     Node 3, Type 0, BuildingBlock: BETDIP_clean_linker_0, # of connection points: 3
#     Node 4, Type 1, BuildingBlock: CIFDUS_clean_sbu_1, # of connection points: 6
#     Node 5, Type 1, BuildingBlock: CIFDUS_clean_sbu_1, # of connection points: 6
#     Edge 6, Type (0, 1), BuildingBlock: XIVTED_clean_linker_0, # of connection points: 2
#     Edge 7, Type (0, 1), BuildingBlock: XIVTED_clean_linker_0, # of connection points: 2
#     Edge 8, Type (0, 1), BuildingBlock: XIVTED_clean_linker_0, # of connection points: 2
#     Edge 9, Type (0, 1), BuildingBlock: XIVTED_clean_linker_0, # of connection points: 2
#     Edge 10, Type (0, 1), BuildingBlock: XIVTED_clean_linker_0, # of connection points: 2
#     Edge 11, Type (0, 1), BuildingBlock: XIVTED_clean_linker_0, # of connection points: 2
#     Edge 12, Type (0, 1), BuildingBlock: XIVTED_clean_linker_0, # of connection points: 2
#     Edge 13, Type (0, 1), BuildingBlock: XIVTED_clean_linker_0, # of connection points: 2
#     Edge 14, Type (0, 1), BuildingBlock: XIVTED_clean_linker_0, # of connection points: 2
#     Edge 15, Type (0, 1), BuildingBlock: XIVTED_clean_linker_0, # of connection points: 2
#     Edge 16, Type (0, 1), BuildingBlock: XIVTED_clean_linker_0, # of connection points: 2
#     Edge 17, Type (0, 1), BuildingBlock: XIVTED_clean_linker_0, # of connection points: 2
# Relax obj value: 0.017
# Max RMSD: 0.115
# Mean RMSD: 0.088
data_MOF--net-rtl--node1-CIFDUS_clean_sbu_1--node2-BETDIP_clean_linker_0--edge1-XIVTED_clean_linker_0
_symmetry_space_group_name_H-M    P1
_symmetry_Int_Tables_number       1
_symmetry_cell_setting            triclinic
loop_
_symmetry_equiv_pos_as_xyz
'x, y, z'
_cell_length_a     35.4362
_cell_length_b     35.332324
_cell_length_c     22.054472
_cell_angle_alpha  90.968647
_cell_angle_beta   99.845854
_cell_angle_gamma 89.868743
loop_
_atom_site_label
_atom_site_type_symbol
_atom_site_fract_x
_atom_site_fract_y
_atom_site_fract_z
_atom_type_partial_charge
H0 H 0.21703 0.8269 0.99716 0.0
H1 H 0.23797 0.84129 0.19392 0.0
H2 H 0.15741 0.91361 0.08232 0.0
H3 H 0.29604 0.81394 0.18296 0.0
C4 C 0.28649 0.79195 0.14881 0.0
C5 C 0.21161 0.84199 0.038 0.0
C6 C 0.18517 0.87199 0.03254 0.0
C7 C 0.23102 0.83097 0.09583 0.0
C8 C 0.22363 0.85004 0.14905 0.0
C9 C 0.19708 0.87998 0.14472 0.0
C10 C 0.17807 0.89074 0.08619 0.0
N11 N 0.25635 0.79947 0.09895 0.0
H12 H 0.72962 0.73947 0.71717 0.0
H13 H 0.711 0.74814 0.52004 0.0
H14 H 0.65071 0.66408 0.60578 0.0
H15 H 0.72037 0.81456 0.55436 0.0
C16 C 0.74631 0.81009 0.58766 0.0
C17 C 0.71525 0.72966 0.67232 0.0
C18 C 0.6896 0.69918 0.66762 0.0
C19 C 0.72228 0.74803 0.61959 0.0
C20 C 0.70431 0.73499 0.5609 0.0
C21 C 0.67917 0.70377 0.55516 0.0
C22 C 0.67154 0.68676 0.60911 0.0
N23 N 0.74885 0.77851 0.6271 0.0
H24 H 0.78476 0.2208 0.87635 0.0
H25 H 0.80134 0.23155 0.07334 0.0
H26 H 0.8639 0.14719 0.98776 0.0
H27 H 0.72744 0.24243 0.03116 0.0
C28 C 0.73394 0.26499 1.00163 0.0
C29 C 0.79873 0.2113 0.92108 0.0
C30 C 0.82491 0.18121 0.9255 0.0
C31 C 0.7895 0.22885 0.97393 0.0
C32 C 0.80749 0.21701 0.03251 0.0
C33 C 0.83517 0.18797 0.03791 0.0
C34 C 0.84297 0.16982 0.98407 0.0
N35 N 0.76362 0.25982 0.96655 0.0
H36 H 0.29822 0.33447 0.39021 0.0
H37 H 0.31871 0.31366 0.58434 0.0
H38 H 0.38294 0.39987 0.5107 0.0
H39 H 0.30372 0.25012 0.53938 0.0
C40 C 0.27815 0.25762 0.50716 0.0
C41 C 0.31384 0.341 0.43586 0.0
C42 C 0.34197 0.36937 0.44415 0.0
C43 C 0.3059 0.32034 0.48567 0.0
C44 C 0.32541 0.32901 0.54544 0.0
C45 C 0.35319 0.35799 0.55501 0.0
C46 C 0.36139 0.37778 0.50392 0.0
N47 N 0.27726 0.29182 0.47409 0.0
O48 O 0.98753 0.06391 0.45953 0.0
Mn49 Mn 0.01228 0.032 0.53566 0.0
O50 O 0.96183 0.02195 0.38562 0.0
Mn51 Mn 0.97844 0.97826 0.42779 0.0
O52 O 0.03689 0.99985 0.61195 0.0
O53 O 0.04722 0.07588 0.56499 0.0
Mn54 Mn 0.04732 0.08489 0.64377 0.0
O55 O 0.9698 0.05264 0.58357 0.0
O56 O 0.06671 0.04132 0.68318 0.0
O57 O 0.05493 0.01132 0.48765 0.0
O58 O 0.02818 0.96389 0.42555 0.0
O59 O 0.08003 0.12 0.62036 0.0
O60 O 0.99761 0.09769 0.64979 0.0
C61 C 0.95195 0.96198 0.50355 0.0
C62 C 0.96863 0.05576 0.40569 0.0
C63 C 0.05826 1.00765 0.66401 0.0
C64 C 0.07161 0.10319 0.56721 0.0
C65 C 0.96829 0.07946 0.62327 0.0
C66 C 0.05713 0.9832 0.45049 0.0
O67 O 0.97717 0.98848 0.50586 0.0
O68 O 0.94385 0.94476 0.45073 0.0
O69 O 0.53429 0.57081 0.12707 0.0
Mn70 Mn 0.51253 0.53477 0.05173 0.0
O71 O 0.5695 0.53378 0.19754 0.0
Mn72 Mn 0.5568 0.48822 0.15751 0.0
O73 O 0.49051 0.49853 0.97702 0.0
O74 O 0.47142 0.57355 0.02513 0.0
Mn75 Mn 0.46689 0.58022 0.94518 0.0
O76 O 0.54982 0.56057 1.00018 0.0
O77 O 0.45185 0.53399 0.90853 0.0
O78 O 0.47502 0.5093 0.10326 0.0
O79 O 0.51008 0.4684 0.16687 0.0
O80 O 0.43121 0.6117 0.97085 0.0
O81 O 0.51363 0.59905 0.93332 0.0
C82 C 0.58032 0.47056 0.07943 0.0
C83 C 0.5562 0.56593 0.17934 0.0
C84 C 0.46602 0.50224 0.92711 0.0
C85 C 0.4443 0.59817 0.02448 0.0
C86 C 0.54599 0.58618 0.95876 0.0
C87 C 0.47813 0.4827 0.14288 0.0
O88 O 0.55371 0.49587 0.07812 0.0
O89 O 0.5932 0.45725 0.13333 0.0
H90 H 0.20562 0.26889 0.44199 0.0
H91 H 0.13321 0.0679 0.53526 0.0
H92 H 0.27767 0.18427 0.5422 0.0
H93 H 0.06001 0.16485 0.49559 0.0
H94 H 0.18511 0.10247 0.50003 0.0
H95 H 0.15194 0.22418 0.42852 0.0
C96 C 0.21029 0.24074 0.46048 0.0
C97 C 0.246 0.23033 0.49402 0.0
C98 C 0.15725 0.11568 0.49679 0.0
C99 C 0.1849 0.17901 0.47795 0.0
C100 C 0.12742 0.09567 0.51569 0.0
C101 C 0.0924 0.11363 0.51801 0.0
C102 C 0.15176 0.1538 0.48024 0.0
C103 C 0.0866 0.15002 0.49391 0.0
C104 C 0.17966 0.21524 0.4526 0.0
C105 C 0.25044 0.19348 0.51671 0.0
N106 N 0.11624 0.16927 0.47714 0.0
N107 N 0.22019 0.16921 0.50862 0.0
H108 H 0.26523 0.7247 0.0895 0.0
H109 H 0.47432 0.64893 0.11375 0.0
H110 H 0.35929 0.77919 0.20864 0.0
H111 H 0.37478 0.58058 0.04901 0.0
H112 H 0.43442 0.69256 0.16312 0.0
H113 H 0.30504 0.66874 0.08383 0.0
C114 C 0.29428 0.72477 0.11472 0.0
C115 C 0.30927 0.75678 0.14878 0.0
C116 C 0.42152 0.66723 0.14022 0.0
C117 C 0.35524 0.69279 0.14235 0.0
C118 C 0.44446 0.642 0.11296 0.0
C119 C 0.4277 0.61115 0.07765 0.0
C120 C 0.38161 0.6617 0.13074 0.0
C121 C 0.38872 0.60399 0.0763 0.0
C122 C 0.31696 0.69267 0.11194 0.0
C123 C 0.34687 0.75511 0.1814 0.0
N124 N 0.36678 0.62956 0.10103 0.0
N125 N 0.36888 0.72391 0.17649 0.0
H126 H 0.74295 0.88029 0.53905 0.0
H127 H 0.96512 0.90521 0.5853 0.0
H128 H 0.81998 0.80491 0.65172 0.0
H129 H 0.8867 0.99538 0.52432 0.0
H130 H 0.914 0.87234 0.6251 0.0
H131 H 0.79518 0.92596 0.54347 0.0
C132 C 0.77084 0.87356 0.56518 0.0
C133 C 0.77727 0.83872 0.59452 0.0
C134 C 0.9082 0.89998 0.60512 0.0
C135 C 0.83735 0.89063 0.59955 0.0
C136 C 0.9376 0.919 0.58332 0.0
C137 C 0.93004 0.95311 0.55211 0.0
C138 C 0.87084 0.91478 0.59382 0.0
C139 C 0.89365 0.96929 0.54884 0.0
C140 C 0.8006 0.89971 0.56809 0.0
C141 C 0.81383 0.83141 0.62814 0.0
N142 N 0.86507 0.94954 0.56792 0.0
N143 N 0.84268 0.85689 0.62892 0.0
H144 H 0.7483 0.33492 0.95758 0.0
H145 H 0.54459 0.41493 0.00658 0.0
H146 H 0.66059 0.26984 0.02162 0.0
H147 H 0.64709 0.4826 0.03851 0.0
H148 H 0.58039 0.36362 0.96633 0.0
H149 H 0.70541 0.39016 0.94762 0.0
C150 C 0.71982 0.33212 0.96863 0.0
C151 C 0.70796 0.29797 0.99108 0.0
C152 C 0.59465 0.39031 0.97973 0.0
C153 C 0.65873 0.36044 0.97816 0.0
C154 C 0.57405 0.41987 1.00144 0.0
C155 C 0.59302 0.45293 0.02579 0.0
C156 C 0.63431 0.39419 0.982 0.0
C157 C 0.63147 0.45755 0.01971 0.0
C158 C 0.69543 0.36355 0.96277 0.0
C159 C 0.67087 0.29583 1.0048 0.0
N160 N 0.65118 0.42815 0.99961 0.0
N161 N 0.64757 0.32664 0.99821 0.0
H162 H 0.18579 0.95583 0.16598 0.0
H163 H 0.09393 0.9161 0.46189 0.0
H164 H 0.18678 0.84707 0.2524 0.0
H165 H 0.09974 0.02746 0.3877 0.0
H166 H 0.1391 0.89324 0.39764 0.0
H167 H 0.16366 0.98492 0.25514 0.0
C168 C 0.18162 0.9381 0.20386 0.0
C169 C 0.1877 0.89882 0.20123 0.0
C170 C 0.13141 0.92293 0.39632 0.0
C171 C 0.16268 0.93203 0.30376 0.0
C172 C 0.10596 0.93603 0.43358 0.0
C173 C 0.09338 0.97366 0.43008 0.0
C174 C 0.14352 0.94742 0.35389 0.0
C175 C 0.10915 0.9983 0.39199 0.0
C176 C 0.16928 0.95479 0.25499 0.0
C177 C 0.18261 0.87743 0.2523 0.0
N178 N 0.13281 0.98455 0.35421 0.0
N179 N 0.16998 0.89422 0.30097 0.0
H180 H 0.68418 0.62343 0.68992 0.0
H181 H 0.56557 0.65977 0.95622 0.0
H182 H 0.67294 0.73365 0.772 0.0
H183 H 0.60099 0.54796 0.90898 0.0
H184 H 0.61096 0.687 0.89741 0.0
H185 H 0.65962 0.59461 0.77556 0.0
C186 C 0.67692 0.64152 0.72638 0.0
C187 C 0.68009 0.68105 0.72343 0.0
C188 C 0.60959 0.65652 0.90085 0.0
C189 C 0.6519 0.64828 0.82146 0.0
C190 C 0.58379 0.64102 0.93465 0.0
C191 C 0.57975 0.60169 0.93729 0.0
C192 C 0.63069 0.63248 0.86788 0.0
C193 C 0.60361 0.57848 0.90823 0.0
C194 C 0.66314 0.62504 0.77543 0.0
C195 C 0.67092 0.70309 0.77236 0.0
N196 N 0.62759 0.59424 0.87352 0.0
N197 N 0.65667 0.68646 0.81881 0.0
H198 H 0.91208 0.17488 0.0676 0.0
H199 H 0.90409 0.09807 0.40501 0.0
H200 H 0.8091 0.1766 0.14736 0.0
H201 H 0.99824 0.07975 0.30784 0.0
H202 H 0.87272 0.13768 0.32016 0.0
H203 H 0.94745 0.15067 0.16363 0.0
C204 C 0.89686 0.17017 0.10542 0.0
C205 C 0.85732 0.17705 0.09884 0.0
C206 C 0.90059 0.12563 0.31797 0.0
C207 C 0.89798 0.1495 0.20979 0.0
C208 C 0.9186 0.10342 0.36657 0.0
C209 C 0.95391 0.08622 0.36339 0.0
C210 C 0.9181 0.13046 0.26598 0.0
C211 C 0.97121 0.09301 0.31212 0.0
C212 C 0.91717 0.15649 0.16044 0.0
C213 C 0.83947 0.1715 0.15022 0.0
N214 N 0.95308 0.11443 0.26534 0.0
N215 N 0.85984 0.15765 0.20334 0.0
H216 H 0.42963 0.37228 0.59502 0.0
H217 H 0.39351 0.4762 0.90031 0.0
H218 H 0.32119 0.36932 0.65861 0.0
H219 H 0.50703 0.45525 0.86247 0.0
H220 H 0.36751 0.43224 0.81693 0.0
H221 H 0.45961 0.39827 0.69534 0.0
C222 C 0.4122 0.37678 0.63032 0.0
C223 C 0.37272 0.36898 0.61813 0.0
C224 C 0.3982 0.43648 0.82748 0.0
C225 C 0.40687 0.39887 0.73316 0.0
C226 C 0.41304 0.4614 0.87533 0.0
C227 C 0.45241 0.46899 0.88836 0.0
C228 C 0.42282 0.4198 0.79109 0.0
C229 C 0.47652 0.44971 0.85414 0.0
C230 C 0.42938 0.39142 0.68772 0.0
C231 C 0.35168 0.37484 0.66592 0.0
N232 N 0.46126 0.42646 0.80622 0.0
N233 N 0.36887 0.38992 0.72091 0.0
H234 H 0.66588 0.62935 0.52321 0.0
H235 H 0.59396 0.63376 0.17108 0.0
H236 H 0.65218 0.74114 0.44604 0.0
H237 H 0.5395 0.56676 0.29299 0.0
H238 H 0.62327 0.67339 0.26056 0.0
H239 H 0.63062 0.60314 0.42782 0.0
C240 C 0.65527 0.64857 0.48645 0.0
C241 C 0.66114 0.68779 0.49381 0.0
C242 C 0.60398 0.65065 0.267 0.0
C243 C 0.62155 0.65734 0.3829 0.0
C244 C 0.58707 0.62834 0.21613 0.0
C245 C 0.56439 0.59705 0.22505 0.0
C246 C 0.5985 0.64076 0.3264 0.0
C247 C 0.55692 0.59059 0.28437 0.0
C248 C 0.63527 0.63345 0.4318 0.0
C249 C 0.64815 0.71078 0.44276 0.0
N250 N 0.57448 0.61171 0.33281 0.0
N251 N 0.62884 0.6952 0.38921 0.0
H252 H 0.83565 0.10553 0.90279 0.0
H253 H 0.93271 0.14714 0.61302 0.0
H254 H 0.83719 0.21511 0.81969 0.0
H255 H 0.92437 0.03515 0.68364 0.0
H256 H 0.88667 0.16986 0.67581 0.0
H257 H 0.85875 0.07705 0.81405 0.0
C258 C 0.8406 0.12357 0.8657 0.0
C259 C 0.83497 0.16288 0.86916 0.0
C260 C 0.89402 0.14009 0.67665 0.0
C261 C 0.86108 0.13039 0.76716 0.0
C262 C 0.91999 0.12709 0.64027 0.0
C263 C 0.93204 0.08931 0.64324 0.0
C264 C 0.88088 0.11531 0.71767 0.0
C265 C 0.91538 0.06446 0.67987 0.0
C266 C 0.85348 0.10724 0.81481 0.0
C267 C 0.84103 0.18471 0.81911 0.0
N268 N 0.89119 0.07808 0.71684 0.0
N269 N 0.85418 0.16826 0.77067 0.0
H270 H 0.35541 0.44525 0.4313 0.0
H271 H 0.45183 0.41091 0.13816 0.0
H272 H 0.35205 0.33803 0.33391 0.0
H273 H 0.43055 0.52287 0.20478 0.0
H274 H 0.40891 0.38479 0.2024 0.0
H275 H 0.37791 0.47547 0.34481 0.0
C276 C 0.35917 0.42812 0.39157 0.0
C277 C 0.35222 0.38898 0.39011 0.0
C278 C 0.41275 0.41518 0.20205 0.0
C279 C 0.37775 0.42334 0.29098 0.0
C280 C 0.43701 0.43005 0.165 0.0
C281 C 0.44434 0.46898 0.16614 0.0
C282 C 0.39668 0.43935 0.24202 0.0
C283 C 0.42513 0.49268 0.20234 0.0
C284 C 0.37167 0.44544 0.342 0.0
C285 C 0.35692 0.36828 0.33702 0.0
N286 N 0.40272 0.4774 0.24 0.0
N287 N 0.36984 0.38561 0.29002 0.0
H288 H 0.21663 0.88487 0.92971 0.0
H289 H 0.02111 0.9566 0.72504 0.0
H290 H 0.10872 0.88713 0.9952 0.0
H291 H 0.13334 0.99159 0.69816 0.0
H292 H 0.05113 0.91652 0.81045 0.0
H293 H 0.18456 0.90984 0.8312 0.0
C294 C 0.18609 0.89016 0.92306 0.0
C295 C 0.16539 0.88426 0.97094 0.0
C296 C 0.06914 0.9324 0.78497 0.0
C297 C 0.12848 0.91271 0.85826 0.0
C298 C 0.05205 0.95486 0.73598 0.0
C299 C 0.07494 0.97704 0.7046 0.0
C300 C 0.10928 0.932 0.80189 0.0
C301 C 0.11484 0.97461 0.72119 0.0
C302 C 0.16784 0.90454 0.86696 0.0
C303 C 0.12586 0.89182 0.95983 0.0
N304 N 0.13076 0.95262 0.76876 0.0
N305 N 0.1087 0.90574 0.90474 0.0
loop_
_geom_bond_atom_site_label_1
_geom_bond_atom_site_label_2
_geom_bond_distance
_geom_bond_site_symmetry_2
_ccdc_geom_bond_type
H0 C5 0.930 1_556 S
H1 C8 0.930 . S
H2 C10 0.930 . S
H3 C4 1.016 . S
C4 H3 1.016 . S
C4 N11 1.286 . S
C5 H0 0.930 1_554 S
C5 C6 1.397 . S
C5 C7 1.361 . S
C6 C5 1.397 . S
C6 C10 1.390 . S
C7 C5 1.361 . S
C7 C8 1.393 . S
C7 N11 1.413 . S
C8 H1 0.930 . S
C8 C7 1.393 . S
C8 C9 1.399 . S
C9 C8 1.399 . S
C9 C10 1.381 . S
C10 H2 0.930 . S
C10 C6 1.390 . S
C10 C9 1.381 . S
N11 C4 1.286 . S
N11 C7 1.413 . S
H12 C17 0.930 . S
H13 C20 0.930 . S
H14 C22 0.930 . S
H15 C16 1.016 . S
C16 H15 1.016 . S
C16 N23 1.286 . S
C17 H12 0.930 . S
C17 C18 1.397 . S
C17 C19 1.361 . S
C18 C17 1.397 . S
C18 C22 1.390 . S
C19 C17 1.361 . S
C19 C20 1.393 . S
C19 N23 1.413 . S
C20 H13 0.930 . S
C20 C19 1.393 . S
C20 C21 1.399 . S
C21 C20 1.399 . S
C21 C22 1.381 . S
C22 H14 0.930 . S
C22 C18 1.390 . S
C22 C21 1.381 . S
N23 C16 1.286 . S
N23 C19 1.413 . S
H24 C29 0.930 . S
H25 C32 0.930 . S
H26 C34 0.930 . S
H27 C28 1.016 . S
C28 H27 1.016 . S
C28 N35 1.286 1_554 S
C29 H24 0.930 . S
C29 C30 1.397 . S
C29 C31 1.361 . S
C30 C29 1.397 . S
C30 C34 1.390 1_556 S
C31 C29 1.361 . S
C31 C32 1.393 1_556 S
C31 N35 1.413 . S
C32 H25 0.930 . S
C32 C31 1.393 1_554 S
C32 C33 1.399 . S
C33 C32 1.399 . S
C33 C34 1.381 . S
C34 H26 0.930 . S
C34 C30 1.390 1_554 S
C34 C33 1.381 . S
N35 C28 1.286 1_556 S
N35 C31 1.413 . S
H36 C41 0.930 . S
H37 C44 0.930 . S
H38 C46 0.930 . S
H39 C40 1.016 . S
C40 H39 1.016 . S
C40 N47 1.286 . S
C41 H36 0.930 . S
C41 C42 1.397 . S
C41 C43 1.361 . S
C42 C41 1.397 . S
C42 C46 1.390 . S
C43 C41 1.361 . S
C43 C44 1.393 . S
C43 N47 1.413 . S
C44 H37 0.930 . S
C44 C43 1.393 . S
C44 C45 1.399 . S
C45 C44 1.399 . S
C45 C46 1.381 . S
C46 H38 0.930 . S
C46 C42 1.390 . S
C46 C45 1.381 . S
N47 C40 1.286 . S
N47 C43 1.413 . S
O48 Mn49 2.163 1_655 S
O48 C62 1.244 . S
Mn49 O48 2.163 1_455 S
Mn49 O52 2.160 1_545 S
Mn49 O53 2.221 . S
Mn49 O55 2.163 1_455 S
Mn49 O57 2.160 1_545 S
Mn49 O67 2.221 1_445 S
O50 Mn51 2.087 1_545 S
O50 C62 1.256 . S
Mn51 O50 2.087 1_565 S
Mn51 O58 2.089 1_655 S
Mn51 O67 2.290 . S
Mn51 O68 2.251 . S
O52 Mn49 2.160 1_565 S
O52 C63 1.239 . S
O53 Mn49 2.221 . S
O53 Mn54 2.290 . S
O53 C64 1.278 . S
Mn54 O53 2.290 . S
Mn54 O56 2.089 . S
Mn54 O59 2.251 . S
Mn54 O60 2.087 . S
O55 Mn49 2.163 1_655 S
O55 C65 1.244 . S
O56 Mn54 2.089 . S
O56 C63 1.256 1_545 S
O57 Mn49 2.160 1_565 S
O57 C66 1.239 . S
O58 Mn51 2.089 1_455 S
O58 C66 1.256 . S
O59 Mn54 2.251 . S
O59 C64 1.241 . S
O60 Mn54 2.087 . S
O60 C65 1.256 1_455 S
C61 O67 1.278 . S
C61 O68 1.241 . S
C62 O48 1.244 . S
C62 O50 1.256 . S
C63 O52 1.239 . S
C63 O56 1.256 1_565 S
C64 O53 1.278 . S
C64 O59 1.241 . S
C65 O55 1.244 . S
C65 O60 1.256 1_655 S
C66 O57 1.239 . S
C66 O58 1.256 . S
O67 Mn49 2.221 1_665 S
O67 Mn51 2.290 . S
O67 C61 1.278 . S
O68 Mn51 2.251 . S
O68 C61 1.241 . S
O69 Mn70 2.163 . S
O69 C83 1.244 . S
Mn70 O69 2.163 . S
Mn70 O73 2.160 1_554 S
Mn70 O74 2.221 . S
Mn70 O76 2.163 1_554 S
Mn70 O78 2.160 . S
Mn70 O88 2.221 . S
O71 Mn72 2.087 . S
O71 C83 1.256 . S
Mn72 O71 2.087 . S
Mn72 O79 2.089 . S
Mn72 O88 2.290 . S
Mn72 O89 2.251 . S
O73 Mn70 2.160 1_556 S
O73 C84 1.239 . S
O74 Mn70 2.221 . S
O74 Mn75 2.290 1_554 S
O74 C85 1.278 . S
Mn75 O74 2.290 1_556 S
Mn75 O77 2.089 . S
Mn75 O80 2.251 . S
Mn75 O81 2.087 . S
O76 Mn70 2.163 1_556 S
O76 C86 1.244 . S
O77 Mn75 2.089 . S
O77 C84 1.256 . S
O78 Mn70 2.160 . S
O78 C87 1.239 . S
O79 Mn72 2.089 . S
O79 C87 1.256 . S
O80 Mn75 2.251 . S
O80 C85 1.241 1_556 S
O81 Mn75 2.087 . S
O81 C86 1.256 . S
C82 O88 1.278 . S
C82 O89 1.241 . S
C83 O69 1.244 . S
C83 O71 1.256 . S
C84 O73 1.239 . S
C84 O77 1.256 . S
C85 O74 1.278 . S
C85 O80 1.241 1_554 S
C86 O76 1.244 . S
C86 O81 1.256 . S
C87 O78 1.239 . S
C87 O79 1.256 . S
O88 Mn70 2.221 . S
O88 Mn72 2.290 . S
O88 C82 1.278 . S
O89 Mn72 2.251 . S
O89 C82 1.241 . S
H90 C96 0.930 . S
H91 C100 0.930 . S
H92 C105 0.929 . S
H93 C103 0.929 . S
H94 C98 0.929 . S
H95 C104 0.929 . S
C96 H90 0.930 . S
C96 C97 1.367 . S
C96 C104 1.378 . S
C97 C96 1.367 . S
C97 C105 1.433 . S
C98 H94 0.929 . S
C98 C100 1.378 . S
C98 C102 1.350 . S
C99 C102 1.463 . S
C99 C104 1.350 . S
C99 N107 1.427 . S
C100 H91 0.930 . S
C100 C98 1.378 . S
C100 C101 1.367 . S
C101 C100 1.367 . S
C101 C103 1.433 . S
C102 C98 1.350 . S
C102 C99 1.463 . S
C102 N106 1.427 . S
C103 H93 0.929 . S
C103 C101 1.433 . S
C103 N106 1.384 . S
C104 H95 0.929 . S
C104 C96 1.378 . S
C104 C99 1.350 . S
C105 H92 0.929 . S
C105 C97 1.433 . S
C105 N107 1.384 . S
N106 C102 1.427 . S
N106 C103 1.384 . S
N107 C99 1.427 . S
N107 C105 1.384 . S
H108 C114 0.930 . S
H109 C118 0.930 . S
H110 C123 0.929 . S
H111 C121 0.929 1_556 S
H112 C116 0.929 . S
H113 C122 0.929 . S
C114 H108 0.930 . S
C114 C115 1.367 . S
C114 C122 1.378 . S
C115 C114 1.367 . S
C115 C123 1.433 . S
C116 H112 0.929 . S
C116 C118 1.378 . S
C116 C120 1.350 . S
C117 C120 1.463 . S
C117 C122 1.350 . S
C117 N125 1.427 . S
C118 H109 0.930 . S
C118 C116 1.378 . S
C118 C119 1.367 . S
C119 C118 1.367 . S
C119 C121 1.433 . S
C120 C116 1.350 . S
C120 C117 1.463 . S
C120 N124 1.427 . S
C121 H111 0.929 1_554 S
C121 C119 1.433 . S
C121 N124 1.384 . S
C122 H113 0.929 . S
C122 C114 1.378 . S
C122 C117 1.350 . S
C123 H110 0.929 . S
C123 C115 1.433 . S
C123 N125 1.384 . S
N124 C120 1.427 . S
N124 C121 1.384 . S
N125 C117 1.427 . S
N125 C123 1.384 . S
H126 C132 0.930 . S
H127 C136 0.930 . S
H128 C141 0.929 . S
H129 C139 0.929 . S
H130 C134 0.929 . S
H131 C140 0.929 . S
C132 H126 0.930 . S
C132 C133 1.367 . S
C132 C140 1.378 . S
C133 C132 1.367 . S
C133 C141 1.433 . S
C134 H130 0.929 . S
C134 C136 1.378 . S
C134 C138 1.350 . S
C135 C138 1.463 . S
C135 C140 1.350 . S
C135 N143 1.427 . S
C136 H127 0.930 . S
C136 C134 1.378 . S
C136 C137 1.367 . S
C137 C136 1.367 . S
C137 C139 1.433 . S
C138 C134 1.350 . S
C138 C135 1.463 . S
C138 N142 1.427 . S
C139 H129 0.929 . S
C139 C137 1.433 . S
C139 N142 1.384 . S
C140 H131 0.929 . S
C140 C132 1.378 . S
C140 C135 1.350 . S
C141 H128 0.929 . S
C141 C133 1.433 . S
C141 N143 1.384 . S
N142 C138 1.427 . S
N142 C139 1.384 . S
N143 C135 1.427 . S
N143 C141 1.384 . S
H144 C150 0.930 . S
H145 C154 0.930 . S
H146 C159 0.929 . S
H147 C157 0.929 . S
H148 C152 0.929 . S
H149 C158 0.929 . S
C150 H144 0.930 . S
C150 C151 1.367 1_556 S
C150 C158 1.378 . S
C151 C150 1.367 1_554 S
C151 C159 1.433 . S
C152 H148 0.929 . S
C152 C154 1.378 . S
C152 C156 1.350 . S
C153 C156 1.463 . S
C153 C158 1.350 1_554 S
C153 N161 1.427 . S
C154 H145 0.930 . S
C154 C152 1.378 . S
C154 C155 1.367 . S
C155 C154 1.367 . S
C155 C157 1.433 1_554 S
C156 C152 1.350 . S
C156 C153 1.463 . S
C156 N160 1.427 1_554 S
C157 H147 0.929 . S
C157 C155 1.433 1_556 S
C157 N160 1.384 . S
C158 H149 0.929 . S
C158 C150 1.378 . S
C158 C153 1.350 1_556 S
C159 H146 0.929 . S
C159 C151 1.433 . S
C159 N161 1.384 . S
N160 C156 1.427 1_556 S
N160 C157 1.384 . S
N161 C153 1.427 . S
N161 C159 1.384 . S
H162 C168 0.930 . S
H163 C172 0.930 . S
H164 C177 0.929 . S
H165 C175 0.929 1_545 S
H166 C170 0.929 . S
H167 C176 0.929 . S
C168 H162 0.930 . S
C168 C169 1.367 . S
C168 C176 1.378 . S
C169 C168 1.367 . S
C169 C177 1.433 . S
C170 H166 0.929 . S
C170 C172 1.378 . S
C170 C174 1.350 . S
C171 C174 1.463 . S
C171 C176 1.350 . S
C171 N179 1.427 . S
C172 H163 0.930 . S
C172 C170 1.378 . S
C172 C173 1.367 . S
C173 C172 1.367 . S
C173 C175 1.433 . S
C174 C170 1.350 . S
C174 C171 1.463 . S
C174 N178 1.427 . S
C175 H165 0.929 1_565 S
C175 C173 1.433 . S
C175 N178 1.384 . S
C176 H167 0.929 . S
C176 C168 1.378 . S
C176 C171 1.350 . S
C177 H164 0.929 . S
C177 C169 1.433 . S
C177 N179 1.384 . S
N178 C174 1.427 . S
N178 C175 1.384 . S
N179 C171 1.427 . S
N179 C177 1.384 . S
H180 C186 0.930 . S
H181 C190 0.930 . S
H182 C195 0.929 . S
H183 C193 0.929 . S
H184 C188 0.929 . S
H185 C194 0.929 . S
C186 H180 0.930 . S
C186 C187 1.367 . S
C186 C194 1.378 . S
C187 C186 1.367 . S
C187 C195 1.433 . S
C188 H184 0.929 . S
C188 C190 1.378 . S
C188 C192 1.350 . S
C189 C192 1.463 . S
C189 C194 1.350 . S
C189 N197 1.427 . S
C190 H181 0.930 . S
C190 C188 1.378 . S
C190 C191 1.367 . S
C191 C190 1.367 . S
C191 C193 1.433 . S
C192 C188 1.350 . S
C192 C189 1.463 . S
C192 N196 1.427 . S
C193 H183 0.929 . S
C193 C191 1.433 . S
C193 N196 1.384 . S
C194 H185 0.929 . S
C194 C186 1.378 . S
C194 C189 1.350 . S
C195 H182 0.929 . S
C195 C187 1.433 . S
C195 N197 1.384 . S
N196 C192 1.427 . S
N196 C193 1.384 . S
N197 C189 1.427 . S
N197 C195 1.384 . S
H198 C204 0.930 . S
H199 C208 0.930 . S
H200 C213 0.929 . S
H201 C211 0.929 . S
H202 C206 0.929 . S
H203 C212 0.929 . S
C204 H198 0.930 . S
C204 C205 1.367 . S
C204 C212 1.378 . S
C205 C204 1.367 . S
C205 C213 1.433 . S
C206 H202 0.929 . S
C206 C208 1.378 . S
C206 C210 1.350 . S
C207 C210 1.463 . S
C207 C212 1.350 . S
C207 N215 1.427 . S
C208 H199 0.930 . S
C208 C206 1.378 . S
C208 C209 1.367 . S
C209 C208 1.367 . S
C209 C211 1.433 . S
C210 C206 1.350 . S
C210 C207 1.463 . S
C210 N214 1.427 . S
C211 H201 0.929 . S
C211 C209 1.433 . S
C211 N214 1.384 . S
C212 H203 0.929 . S
C212 C204 1.378 . S
C212 C207 1.350 . S
C213 H200 0.929 . S
C213 C205 1.433 . S
C213 N215 1.384 . S
N214 C210 1.427 . S
N214 C211 1.384 . S
N215 C207 1.427 . S
N215 C213 1.384 . S
H216 C222 0.930 . S
H217 C226 0.930 . S
H218 C231 0.929 . S
H219 C229 0.929 . S
H220 C224 0.929 . S
H221 C230 0.929 . S
C222 H216 0.930 . S
C222 C223 1.367 . S
C222 C230 1.378 . S
C223 C222 1.367 . S
C223 C231 1.433 . S
C224 H220 0.929 . S
C224 C226 1.378 . S
C224 C228 1.350 . S
C225 C228 1.463 . S
C225 C230 1.350 . S
C225 N233 1.427 . S
C226 H217 0.930 . S
C226 C224 1.378 . S
C226 C227 1.367 . S
C227 C226 1.367 . S
C227 C229 1.433 . S
C228 C224 1.350 . S
C228 C225 1.463 . S
C228 N232 1.427 . S
C229 H219 0.929 . S
C229 C227 1.433 . S
C229 N232 1.384 . S
C230 H221 0.929 . S
C230 C222 1.378 . S
C230 C225 1.350 . S
C231 H218 0.929 . S
C231 C223 1.433 . S
C231 N233 1.384 . S
N232 C228 1.427 . S
N232 C229 1.384 . S
N233 C225 1.427 . S
N233 C231 1.384 . S
H234 C240 0.930 . S
H235 C244 0.930 . S
H236 C249 0.929 . S
H237 C247 0.929 . S
H238 C242 0.929 . S
H239 C248 0.929 . S
C240 H234 0.930 . S
C240 C241 1.367 . S
C240 C248 1.378 . S
C241 C240 1.367 . S
C241 C249 1.433 . S
C242 H238 0.929 . S
C242 C244 1.378 . S
C242 C246 1.350 . S
C243 C246 1.463 . S
C243 C248 1.350 . S
C243 N251 1.427 . S
C244 H235 0.930 . S
C244 C242 1.378 . S
C244 C245 1.367 . S
C245 C244 1.367 . S
C245 C247 1.433 . S
C246 C242 1.350 . S
C246 C243 1.463 . S
C246 N250 1.427 . S
C247 H237 0.929 . S
C247 C245 1.433 . S
C247 N250 1.384 . S
C248 H239 0.929 . S
C248 C240 1.378 . S
C248 C243 1.350 . S
C249 H236 0.929 . S
C249 C241 1.433 . S
C249 N251 1.384 . S
N250 C246 1.427 . S
N250 C247 1.384 . S
N251 C243 1.427 . S
N251 C249 1.384 . S
H252 C258 0.930 . S
H253 C262 0.930 . S
H254 C267 0.929 . S
H255 C265 0.929 . S
H256 C260 0.929 . S
H257 C266 0.929 . S
C258 H252 0.930 . S
C258 C259 1.367 . S
C258 C266 1.378 . S
C259 C258 1.367 . S
C259 C267 1.433 . S
C260 H256 0.929 . S
C260 C262 1.378 . S
C260 C264 1.350 . S
C261 C264 1.463 . S
C261 C266 1.350 . S
C261 N269 1.427 . S
C262 H253 0.930 . S
C262 C260 1.378 . S
C262 C263 1.367 . S
C263 C262 1.367 . S
C263 C265 1.433 . S
C264 C260 1.350 . S
C264 C261 1.463 . S
C264 N268 1.427 . S
C265 H255 0.929 . S
C265 C263 1.433 . S
C265 N268 1.384 . S
C266 H257 0.929 . S
C266 C258 1.378 . S
C266 C261 1.350 . S
C267 H254 0.929 . S
C267 C259 1.433 . S
C267 N269 1.384 . S
N268 C264 1.427 . S
N268 C265 1.384 . S
N269 C261 1.427 . S
N269 C267 1.384 . S
H270 C276 0.930 . S
H271 C280 0.930 . S
H272 C285 0.929 . S
H273 C283 0.929 . S
H274 C278 0.929 . S
H275 C284 0.929 . S
C276 H270 0.930 . S
C276 C277 1.367 . S
C276 C284 1.378 . S
C277 C276 1.367 . S
C277 C285 1.433 . S
C278 H274 0.929 . S
C278 C280 1.378 . S
C278 C282 1.350 . S
C279 C282 1.463 . S
C279 C284 1.350 . S
C279 N287 1.427 . S
C280 H271 0.930 . S
C280 C278 1.378 . S
C280 C281 1.367 . S
C281 C280 1.367 . S
C281 C283 1.433 . S
C282 C278 1.350 . S
C282 C279 1.463 . S
C282 N286 1.427 . S
C283 H273 0.929 . S
C283 C281 1.433 . S
C283 N286 1.384 . S
C284 H275 0.929 . S
C284 C276 1.378 . S
C284 C279 1.350 . S
C285 H272 0.929 . S
C285 C277 1.433 . S
C285 N287 1.384 . S
N286 C282 1.427 . S
N286 C283 1.384 . S
N287 C279 1.427 . S
N287 C285 1.384 . S
H288 C294 0.930 . S
H289 C298 0.930 . S
H290 C303 0.929 . S
H291 C301 0.929 1_545 S
H292 C296 0.929 . S
H293 C302 0.929 . S
C294 H288 0.930 . S
C294 C295 1.367 . S
C294 C302 1.378 . S
C295 C294 1.367 . S
C295 C303 1.433 . S
C296 H292 0.929 . S
C296 C298 1.378 . S
C296 C300 1.350 . S
C297 C300 1.463 . S
C297 C302 1.350 . S
C297 N305 1.427 . S
C298 H289 0.930 . S
C298 C296 1.378 . S
C298 C299 1.367 . S
C299 C298 1.367 . S
C299 C301 1.433 . S
C300 C296 1.350 . S
C300 C297 1.463 . S
C300 N304 1.427 . S
C301 H291 0.929 1_565 S
C301 C299 1.433 . S
C301 N304 1.384 . S
C302 H293 0.929 . S
C302 C294 1.378 . S
C302 C297 1.350 . S
C303 H290 0.929 . S
C303 C295 1.433 . S
C303 N305 1.384 . S
N304 C300 1.427 . S
N304 C301 1.384 . S
N305 C297 1.427 . S
N305 C303 1.384 . S
C101 C64 1.241 . S
C97 C40 1.438 . S
C115 C4 1.469 . S
C119 C85 1.289 . S
C133 C16 1.595 . S
C137 C61 1.420 . S
C151 C28 1.600 . S
C155 C82 1.381 . S
C173 C66 1.494 . S
C169 C9 1.506 . S
C191 C86 1.535 . S
C187 C18 1.602 . S
C205 C33 1.580 . S
C209 C62 1.547 . S
C223 C45 1.518 . S
C227 C84 1.459 . S
C245 C83 1.485 . S
C241 C21 1.518 . S
C263 C65 1.478 . S
C259 C30 1.534 . S
C281 C87 1.423 . S
C277 C42 1.464 . S
C295 C6 1.468 1_556 S
C299 C63 1.419 . S
