# Generated by pormake.
# Topology pth, (4,4)-cn, num edge types: 1
# Building blocks:
#     Node 0, Type 0, BuildingBlock: NAHDIM_clean_sbu_0, # of connection points: 4
#     Node 1, Type 0, BuildingBlock: NAHDIM_clean_sbu_0, # of connection points: 4
#     Node 2, Type 0, BuildingBlock: NAHDIM_clean_sbu_0, # of connection points: 4
#     Node 3, Type 1, BuildingBlock: NAHDIM_clean_linker_0, # of connection points: 4
#     Node 4, Type 1, BuildingBlock: NAHDIM_clean_linker_0, # of connection points: 4
#     Node 5, Type 1, BuildingBlock: NAHDIM_clean_linker_0, # of connection points: 4
#     Edge 6, Type (0, 1), BuildingBlock: ZUJKAS_clean_linker_0, # of connection points: 2
#     Edge 7, Type (0, 1), BuildingBlock: ZUJKAS_clean_linker_0, # of connection points: 2
#     Edge 8, Type (0, 1), BuildingBlock: ZUJKAS_clean_linker_0, # of connection points: 2
#     Edge 9, Type (0, 1), BuildingBlock: ZUJKAS_clean_linker_0, # of connection points: 2
#     Edge 10, Type (0, 1), BuildingBlock: ZUJKAS_clean_linker_0, # of connection points: 2
#     Edge 11, Type (0, 1), BuildingBlock: ZUJKAS_clean_linker_0, # of connection points: 2
#     Edge 12, Type (0, 1), BuildingBlock: ZUJKAS_clean_linker_0, # of connection points: 2
#     Edge 13, Type (0, 1), BuildingBlock: ZUJKAS_clean_linker_0, # of connection points: 2
#     Edge 14, Type (0, 1), BuildingBlock: ZUJKAS_clean_linker_0, # of connection points: 2
#     Edge 15, Type (0, 1), BuildingBlock: ZUJKAS_clean_linker_0, # of connection points: 2
#     Edge 16, Type (0, 1), BuildingBlock: ZUJKAS_clean_linker_0, # of connection points: 2
#     Edge 17, Type (0, 1), BuildingBlock: ZUJKAS_clean_linker_0, # of connection points: 2
# Relax obj value: 0.059
# Max RMSD: 0.179
# Mean RMSD: 0.115
data_MOF--net-pth--node1-NAHDIM_clean_sbu_0--node2-NAHDIM_clean_linker_0--edge1-ZUJKAS_clean_linker_0
_symmetry_space_group_name_H-M    P1
_symmetry_Int_Tables_number       1
_symmetry_cell_setting            triclinic
loop_
_symmetry_equiv_pos_as_xyz
'x, y, z'
_cell_length_a     38.432153
_cell_length_b     38.603809
_cell_length_c     96.269176
_cell_angle_alpha  91.708326
_cell_angle_beta   90.346834
_cell_angle_gamma 120.56148
loop_
_atom_site_label
_atom_site_type_symbol
_atom_site_fract_x
_atom_site_fract_y
_atom_site_fract_z
_atom_type_partial_charge
C0 C 0.03222 0.99174 0.08502 0.0
O1 O 0.99493 0.98286 0.0824 0.0
O2 O 0.03229 0.08983 0.08512 0.0
Zn3 Zn 0.04409 0.05882 0.07061 0.0
O4 O 0.99502 0.02143 0.05858 0.0
C5 C 0.07697 0.11233 0.04853 0.0
O6 O 0.03814 0.09792 0.04636 0.0
O7 O 0.0612 0.02462 0.08077 0.0
C8 C 0.00133 0.0031 0.04862 0.0
O9 O 0.03838 0.01083 0.04667 0.0
C10 C 0.0126 0.10756 0.08302 0.0
O11 O 0.99623 0.10432 0.07068 0.0
O12 O 0.08823 0.09933 0.05857 0.0
C13 C 0.06624 0.14003 0.38621 0.0
O14 O 0.03125 0.10853 0.38911 0.0
O15 O 0.07043 0.05032 0.39531 0.0
Zn16 Zn 0.08869 0.10292 0.40593 0.0
O17 O 0.04618 0.09813 0.41915 0.0
C18 C 0.16235 0.10504 0.41368 0.0
O19 O 0.15452 0.08323 0.40209 0.0
O20 O 0.09797 0.14512 0.39233 0.0
C21 C 0.03444 0.07426 0.42915 0.0
O22 O 0.05 0.05121 0.4309 0.0
C23 C 0.03428 0.02086 0.39468 0.0
O24 O 0.00597 0.02382 0.40123 0.0
O25 O 0.13912 0.11813 0.41714 0.0
C26 C 0.11051 0.04137 0.72376 0.0
O27 O 0.1048 0.07074 0.72021 0.0
O28 O 0.02009 0.04117 0.73043 0.0
Zn29 Zn 0.05579 0.0356 0.74452 0.0
O30 O 0.08935 0.08816 0.75532 0.0
C31 C 0.98901 0.99275 0.76182 0.0
O32 O 0.98458 0.02326 0.75876 0.0
O33 O 0.09253 0.02119 0.73427 0.0
C34 C 0.09353 0.0915 0.76849 0.0
O35 O 0.07543 0.05906 0.77584 0.0
C36 C 0.02355 0.07444 0.72718 0.0
O37 O 0.05232 0.10814 0.73311 0.0
O38 O 0.0191 0.99136 0.75708 0.0
C39 C 0.90497 0.67112 0.29463 0.0
C40 C 0.9413 0.68028 0.30402 0.0
C41 C 0.98654 0.66749 0.2895 0.0
C42 C 0.02523 0.68561 0.28404 0.0
C43 C 0.03897 0.66277 0.27692 0.0
C44 C 0.01268 0.62077 0.27482 0.0
C45 C 0.97337 0.60213 0.2803 0.0
C46 C 0.96089 0.62558 0.28775 0.0
C47 C 0.08151 0.68364 0.27161 0.0
C48 C 0.94436 0.55743 0.27821 0.0
C49 C 0.04253 0.37098 0.3101 0.0
C50 C 0.03012 0.39415 0.30139 0.0
C51 C 0.05675 0.46026 0.29162 0.0
C52 C 0.02147 0.44935 0.28373 0.0
C53 C 0.01846 0.47755 0.27578 0.0
C54 C 0.05167 0.51738 0.27546 0.0
C55 C 0.08745 0.52841 0.28319 0.0
C56 C 0.08947 0.49964 0.29122 0.0
C57 C 0.97956 0.46475 0.26779 0.0
C58 C 0.12344 0.57054 0.28297 0.0
C59 C 0.09691 0.47392 0.18853 0.0
C60 C 0.05636 0.45632 0.19233 0.0
C61 C 0.04174 0.47991 0.19831 0.0
C62 C 0.06835 0.52181 0.20061 0.0
C63 C 0.1087 0.53983 0.19615 0.0
C64 C 0.1223 0.51559 0.18999 0.0
C65 C 0.99813 0.45997 0.20248 0.0
C66 C 0.13774 0.58446 0.19827 0.0
C67 C 0.95033 0.72875 0.19429 0.0
C68 C 0.98509 0.72506 0.18826 0.0
C69 C 0.9867 0.66264 0.18841 0.0
C70 C 0.96049 0.62149 0.18997 0.0
C71 C 0.97435 0.59749 0.19563 0.0
C72 C 0.0156 0.6152 0.1996 0.0
C73 C 0.04288 0.65614 0.197 0.0
C74 C 0.02815 0.67948 0.19139 0.0
C75 C 0.94462 0.55373 0.19802 0.0
C76 C 0.08726 0.67558 0.20072 0.0
C77 C 0.02612 0.59635 0.26681 0.0
C78 C 0.0365 0.5721 0.27416 0.0
C79 C 0.0481 0.54737 0.26724 0.0
C80 C 0.05145 0.54818 0.25263 0.0
C81 C 0.0651 0.52528 0.24544 0.0
C82 C 0.06688 0.52513 0.23101 0.0
C83 C 0.05445 0.54736 0.2232 0.0
C84 C 0.05481 0.54633 0.20849 0.0
C85 C 0.04219 0.56876 0.20105 0.0
C86 C 0.02915 0.59235 0.20795 0.0
C87 C 0.02856 0.59375 0.22264 0.0
C88 C 0.01526 0.61694 0.22989 0.0
C89 C 0.01447 0.6179 0.24433 0.0
C90 C 0.02704 0.5958 0.25211 0.0
C91 C 0.04023 0.57198 0.24502 0.0
C92 C 0.04122 0.57114 0.23028 0.0
C93 C 0.14162 0.4161 0.19295 0.0
C94 C 0.10298 0.41389 0.18759 0.0
O95 O 0.97532 0.6917 0.29617 0.0
O96 O 0.97088 0.68518 0.18427 0.0
O97 O 0.11248 0.45171 0.18337 0.0
O98 O 0.06018 0.43382 0.29973 0.0
H99 H 0.93395 0.65287 0.30978 0.0
H100 H 0.89726 0.64539 0.28729 0.0
H101 H 0.91163 0.69754 0.28843 0.0
H102 H 0.87811 0.66309 0.30103 0.0
H103 H 0.04487 0.71791 0.28548 0.0
H104 H 0.93092 0.61091 0.29196 0.0
H105 H 0.0967 0.66666 0.27428 0.0
H106 H 0.09995 0.71496 0.27596 0.0
H107 H 0.08054 0.6847 0.26012 0.0
H108 H 0.91328 0.54852 0.28143 0.0
H109 H 0.95512 0.54083 0.28445 0.0
H110 H 0.9432 0.54798 0.26713 0.0
H111 H 0.00048 0.39095 0.30415 0.0
H112 H 0.02307 0.36327 0.31952 0.0
H113 H 0.07112 0.39372 0.31589 0.0
H114 H 0.03999 0.32688 0.29614 0.0
H115 H 0.99597 0.41892 0.28377 0.0
H116 H 0.11662 0.50781 0.29727 0.0
H117 H 0.98506 0.46559 0.25647 0.0
H118 H 0.96871 0.48593 0.2702 0.0
H119 H 0.9553 0.43383 0.27018 0.0
H120 H 0.15004 0.57362 0.28875 0.0
H121 H 0.11536 0.59203 0.28769 0.0
H122 H 0.13193 0.57913 0.27206 0.0
H123 H 0.0818 0.40433 0.1964 0.0
H124 H 0.03615 0.42422 0.19063 0.0
H125 H 0.15333 0.52891 0.18675 0.0
H126 H 0.99663 0.46017 0.21399 0.0
H127 H 0.98018 0.42829 0.19843 0.0
H128 H 0.9841 0.47699 0.19862 0.0
H129 H 0.16839 0.59367 0.19448 0.0
H130 H 0.14021 0.59315 0.2095 0.0
H131 H 0.12603 0.60135 0.1927 0.0
H132 H 0.00834 0.73524 0.19679 0.0
H133 H 0.96092 0.76059 0.19743 0.0
H134 H 0.93891 0.7103 0.20364 0.0
H135 H 0.92493 0.71795 0.18659 0.0
H136 H 0.9287 0.60862 0.18734 0.0
H137 H 0.04893 0.71095 0.18955 0.0
H138 H 0.94191 0.54875 0.20936 0.0
H139 H 0.95577 0.53462 0.19336 0.0
H140 H 0.91415 0.54385 0.19352 0.0
H141 H 0.10515 0.70646 0.19679 0.0
H142 H 0.09943 0.65698 0.19641 0.0
H143 H 0.09128 0.6773 0.2122 0.0
H144 H 0.03418 0.57142 0.28539 0.0
H145 H 0.07464 0.50729 0.2509 0.0
H146 H 0.07774 0.50698 0.22606 0.0
H147 H 0.04243 0.56776 0.18978 0.0
H148 H 0.00512 0.63455 0.22449 0.0
H149 H 0.00364 0.63604 0.24929 0.0
H150 H 0.16429 0.42552 0.18463 0.0
H151 H 0.13489 0.38633 0.19662 0.0
H152 H 0.15486 0.43838 0.20182 0.0
C153 C 0.35158 0.90231 0.64323 0.0
C154 C 0.3683 0.94763 0.6427 0.0
C155 C 0.40487 0.97683 0.62201 0.0
C156 C 0.43109 0.01831 0.62391 0.0
C157 C 0.46785 0.03774 0.61695 0.0
C158 C 0.47853 0.01484 0.60808 0.0
C159 C 0.4518 0.97276 0.60618 0.0
C160 C 0.41489 0.95437 0.61304 0.0
C161 C 0.49539 0.08259 0.61915 0.0
C162 C 0.46243 0.94708 0.59709 0.0
C163 C 0.75502 0.04603 0.65048 0.0
C164 C 0.7202 0.03461 0.64085 0.0
C165 C 0.68419 0.06322 0.62946 0.0
C166 C 0.65967 0.02865 0.62099 0.0
C167 C 0.62921 0.02658 0.61231 0.0
C168 C 0.62322 0.05979 0.612 0.0
C169 C 0.64823 0.09489 0.62029 0.0
C170 C 0.6785 0.09615 0.62892 0.0
C171 C 0.60309 0.98866 0.60357 0.0
C172 C 0.64271 0.13086 0.62009 0.0
C173 C 0.72103 0.11926 0.52805 0.0
C174 C 0.69349 0.07846 0.53014 0.0
C175 C 0.65499 0.06616 0.53527 0.0
C176 C 0.64397 0.09535 0.53839 0.0
C177 C 0.67089 0.13619 0.53555 0.0
C178 C 0.70905 0.14756 0.53026 0.0
C179 C 0.62646 0.02214 0.53771 0.0
C180 C 0.65987 0.16794 0.53858 0.0
C181 C 0.3174 0.97949 0.52345 0.0
C182 C 0.35694 0.01726 0.51986 0.0
C183 C 0.42256 0.02166 0.52116 0.0
C184 C 0.43833 0.99623 0.52199 0.0
C185 C 0.47571 0.00929 0.52868 0.0
C186 C 0.49807 0.0491 0.53439 0.0
C187 C 0.48371 0.07596 0.53259 0.0
C188 C 0.44597 0.06193 0.52599 0.0
C189 C 0.49047 0.98005 0.5302 0.0
C190 C 0.50751 0.11896 0.53814 0.0
C191 C 0.51831 0.03446 0.60127 0.0
C192 C 0.5521 0.04179 0.6092 0.0
C193 C 0.58996 0.05704 0.60325 0.0
C194 C 0.59461 0.06571 0.58899 0.0
C195 C 0.63225 0.0809 0.58267 0.0
C196 C 0.63609 0.08745 0.56849 0.0
C197 C 0.60238 0.07888 0.56006 0.0
C198 C 0.60553 0.08345 0.54551 0.0
C199 C 0.57142 0.07463 0.53743 0.0
C200 C 0.53392 0.06099 0.54352 0.0
C201 C 0.53016 0.05617 0.55805 0.0
C202 C 0.49278 0.04223 0.56449 0.0
C203 C 0.48902 0.03603 0.57869 0.0
C204 C 0.52234 0.04299 0.58699 0.0
C205 C 0.56056 0.05824 0.5808 0.0
C206 C 0.56445 0.06481 0.56632 0.0
C207 C 0.8179 0.15369 0.53816 0.0
C208 C 0.78449 0.11951 0.52914 0.0
O209 O 0.36998 0.95818 0.62899 0.0
O210 O 0.38457 0.00617 0.5158 0.0
O211 O 0.75924 0.13215 0.52389 0.0
O212 O 0.71323 0.06576 0.63829 0.0
H213 H 0.39928 0.96333 0.64757 0.0
H214 H 0.37181 0.89428 0.6376 0.0
H215 H 0.32091 0.88517 0.63828 0.0
H216 H 0.34994 0.89334 0.65418 0.0
H217 H 0.42271 0.03527 0.63088 0.0
H218 H 0.39412 0.92224 0.61169 0.0
H219 H 0.52314 0.08874 0.62494 0.0
H220 H 0.48076 0.09664 0.6251 0.0
H221 H 0.50478 0.09706 0.60897 0.0
H222 H 0.44085 0.9144 0.59814 0.0
H223 H 0.49336 0.9535 0.59976 0.0
H224 H 0.46211 0.95437 0.58605 0.0
H225 H 0.69207 0.00602 0.64328 0.0
H226 H 0.74126 0.02745 0.65985 0.0
H227 H 0.76239 0.07537 0.65589 0.0
H228 H 0.79625 0.03993 0.63798 0.0
H229 H 0.66395 0.00305 0.62113 0.0
H230 H 0.69764 0.12278 0.6354 0.0
H231 H 0.60575 0.99588 0.59241 0.0
H232 H 0.57091 0.97585 0.60629 0.0
H233 H 0.61154 0.96541 0.60502 0.0
H234 H 0.66548 0.15643 0.62681 0.0
H235 H 0.61204 0.1222 0.6237 0.0
H236 H 0.64503 0.14099 0.60929 0.0
H237 H 0.76779 0.0936 0.536 0.0
H238 H 0.70212 0.05626 0.52781 0.0
H239 H 0.73032 0.17888 0.52833 0.0
H240 H 0.62251 0.01755 0.54905 0.0
H241 H 0.63776 0.00281 0.53335 0.0
H242 H 0.59628 0.01224 0.53296 0.0
H243 H 0.68404 0.19837 0.53567 0.0
H244 H 0.65409 0.16885 0.54984 0.0
H245 H 0.63158 0.16014 0.5328 0.0
H246 H 0.36772 0.03685 0.52951 0.0
H247 H 0.29473 0.98757 0.52682 0.0
H248 H 0.32293 0.96435 0.53211 0.0
H249 H 0.30489 0.95797 0.51434 0.0
H250 H 0.42035 0.96546 0.51794 0.0
H251 H 0.43462 0.08226 0.52478 0.0
H252 H 0.49327 0.97545 0.54139 0.0
H253 H 0.52093 0.99268 0.52572 0.0
H254 H 0.46985 0.95035 0.52495 0.0
H255 H 0.49469 0.13728 0.53448 0.0
H256 H 0.53944 0.13306 0.53493 0.0
H257 H 0.50748 0.11944 0.54968 0.0
H258 H 0.54861 0.03424 0.62007 0.0
H259 H 0.65911 0.08756 0.58861 0.0
H260 H 0.66577 0.0989 0.56419 0.0
H261 H 0.57389 0.07753 0.52626 0.0
H262 H 0.46584 0.03561 0.55863 0.0
H263 H 0.45949 0.02515 0.58306 0.0
H264 H 0.83852 0.14423 0.5425 0.0
H265 H 0.80431 0.16159 0.54695 0.0
H266 H 0.83572 0.18092 0.532 0.0
C267 C 0.64666 0.61632 0.81199 0.0
C268 C 0.65662 0.65033 0.82273 0.0
C269 C 0.63453 0.62756 0.8459 0.0
C270 C 0.61865 0.65168 0.85013 0.0
C271 C 0.5877 0.63805 0.85982 0.0
C272 C 0.57219 0.59935 0.86525 0.0
C273 C 0.5895 0.57576 0.86143 0.0
C274 C 0.62105 0.59057 0.85194 0.0
C275 C 0.57072 0.66445 0.86393 0.0
C276 C 0.57351 0.53422 0.86689 0.0
C277 C 0.31377 0.51978 0.81517 0.0
C278 C 0.33004 0.49772 0.82351 0.0
C279 C 0.35855 0.51342 0.84695 0.0
C280 C 0.37706 0.49013 0.84705 0.0
C281 C 0.40933 0.49987 0.85632 0.0
C282 C 0.42409 0.53431 0.86538 0.0
C283 C 0.40482 0.55737 0.86545 0.0
C284 C 0.37152 0.54587 0.85645 0.0
C285 C 0.42825 0.47387 0.85616 0.0
C286 C 0.42022 0.59505 0.87458 0.0
C287 C 0.35316 0.48321 0.95395 0.0
C288 C 0.36922 0.46011 0.94865 0.0
C289 C 0.40648 0.47851 0.94199 0.0
C290 C 0.42781 0.52072 0.94052 0.0
C291 C 0.4124 0.54415 0.94634 0.0
C292 C 0.37542 0.52503 0.95315 0.0
C293 C 0.42277 0.45282 0.93631 0.0
C294 C 0.4345 0.58924 0.94506 0.0
C295 C 0.75623 0.6749 0.95112 0.0
C296 C 0.72501 0.68605 0.95567 0.0
C297 C 0.65365 0.63452 0.95428 0.0
C298 C 0.6312 0.59266 0.95252 0.0
C299 C 0.59336 0.57344 0.94562 0.0
C300 C 0.57731 0.59681 0.94074 0.0
C301 C 0.59887 0.63907 0.94329 0.0
C302 C 0.63704 0.65754 0.94996 0.0
C303 C 0.57104 0.52833 0.94321 0.0
C304 C 0.58189 0.66475 0.93878 0.0
C305 C 0.53534 0.58199 0.87374 0.0
C306 C 0.49823 0.56632 0.86668 0.0
C307 C 0.46186 0.54834 0.87375 0.0
C308 C 0.46233 0.54528 0.88834 0.0
C309 C 0.42633 0.52594 0.89575 0.0
C310 C 0.42718 0.52419 0.91016 0.0
C311 C 0.46409 0.54141 0.9177 0.0
C312 C 0.46529 0.54018 0.93237 0.0
C313 C 0.50248 0.55827 0.93955 0.0
C314 C 0.53884 0.57734 0.93247 0.0
C315 C 0.53828 0.57814 0.91778 0.0
C316 C 0.57428 0.59625 0.9103 0.0
C317 C 0.57344 0.59755 0.89588 0.0
C318 C 0.53657 0.58067 0.88838 0.0
C319 C 0.49988 0.56208 0.8957 0.0
C320 C 0.50075 0.56046 0.9104 0.0
C321 C 0.24597 0.43261 0.95493 0.0
C322 C 0.28341 0.42866 0.95642 0.0
O323 O 0.66204 0.63893 0.83572 0.0
O324 O 0.69115 0.65182 0.96022 0.0
O325 O 0.31642 0.46627 0.95989 0.0
O326 O 0.32884 0.50585 0.83756 0.0
H327 H 0.63032 0.65506 0.82263 0.0
H328 H 0.61805 0.5889 0.81471 0.0
H329 H 0.67105 0.6089 0.81174 0.0
H330 H 0.64265 0.62511 0.80148 0.0
H331 H 0.63012 0.6809 0.84569 0.0
H332 H 0.63396 0.57247 0.84868 0.0
H333 H 0.54006 0.65171 0.85915 0.0
H334 H 0.5899 0.69574 0.86047 0.0
H335 H 0.56776 0.66523 0.87539 0.0
H336 H 0.58932 0.51915 0.8625 0.0
H337 H 0.5407 0.51518 0.86434 0.0
H338 H 0.57717 0.53623 0.87838 0.0
H339 H 0.36203 0.51 0.82042 0.0
H340 H 0.31471 0.5139 0.80384 0.0
H341 H 0.33272 0.55272 0.8174 0.0
H342 H 0.28214 0.50993 0.81797 0.0
H343 H 0.36637 0.46443 0.83987 0.0
H344 H 0.35674 0.56343 0.8563 0.0
H345 H 0.43469 0.46872 0.86693 0.0
H346 H 0.45738 0.48947 0.85071 0.0
H347 H 0.40854 0.44426 0.85071 0.0
H348 H 0.40601 0.61284 0.87175 0.0
H349 H 0.45352 0.61445 0.87383 0.0
H350 H 0.41339 0.58674 0.88557 0.0
H351 H 0.28754 0.41746 0.94612 0.0
H352 H 0.35275 0.4278 0.94973 0.0
H353 H 0.36299 0.54257 0.95747 0.0
H354 H 0.42252 0.45302 0.92479 0.0
H355 H 0.40469 0.42114 0.93951 0.0
H356 H 0.45461 0.46546 0.93992 0.0
H357 H 0.41786 0.60299 0.94982 0.0
H358 H 0.43917 0.59675 0.93393 0.0
H359 H 0.46478 0.60292 0.95023 0.0
H360 H 0.71736 0.69773 0.9464 0.0
H361 H 0.7835 0.70162 0.94718 0.0
H362 H 0.74315 0.65135 0.94262 0.0
H363 H 0.76532 0.66305 0.95994 0.0
H364 H 0.64412 0.5752 0.95614 0.0
H365 H 0.65387 0.68989 0.95183 0.0
H366 H 0.56421 0.52059 0.93194 0.0
H367 H 0.54179 0.51468 0.94861 0.0
H368 H 0.58858 0.51474 0.94705 0.0
H369 H 0.59966 0.69606 0.94319 0.0
H370 H 0.55003 0.65138 0.94201 0.0
H371 H 0.58209 0.66583 0.92728 0.0
H372 H 0.49765 0.56829 0.85546 0.0
H373 H 0.39707 0.51207 0.89049 0.0
H374 H 0.39848 0.50926 0.91531 0.0
H375 H 0.50315 0.55769 0.95081 0.0
H376 H 0.60359 0.6097 0.9155 0.0
H377 H 0.60207 0.61212 0.89067 0.0
H378 H 0.24004 0.44393 0.96486 0.0
H379 H 0.21905 0.40301 0.9519 0.0
H380 H 0.25066 0.45411 0.94672 0.0
H381 H 0.98323 0.15887 0.08107 0.0
H382 H 0.99136 0.21074 0.09828 0.0
H383 H 0.04982 0.17106 0.12676 0.0
H384 H 0.04225 0.11954 0.10967 0.0
H385 H 0.96807 0.20807 0.12688 0.0
H386 H 0.13435 0.29071 0.12071 0.0
H387 H 0.09995 0.25123 0.10859 0.0
H388 H 0.1134 0.23887 0.12486 0.0
C389 C 0.99739 0.16086 0.09106 0.0
C390 C 0.01259 0.13543 0.09393 0.0
C391 C 0.00196 0.19049 0.10087 0.0
C392 C 0.02185 0.19513 0.11366 0.0
C393 C 0.03504 0.16839 0.11683 0.0
H394 H 0.04779 0.33362 0.18891 0.0
H395 H 0.02449 0.28161 0.17028 0.0
C396 C 0.03057 0.13889 0.10706 0.0
C397 C 0.03093 0.22921 0.12341 0.0
H398 H 0.10952 0.31255 0.13947 0.0
C399 C 0.99894 0.23113 0.12959 0.0
C400 C 0.07122 0.2596 0.1267 0.0
C401 C 0.10674 0.26036 0.11978 0.0
C402 C 0.00631 0.26207 0.13936 0.0
C403 C 0.0467 0.29136 0.14315 0.0
C404 C 0.07856 0.28999 0.13663 0.0
C405 C 0.05704 0.32316 0.15412 0.0
C406 C 0.9708 0.26321 0.14543 0.0
C407 C 0.08354 0.36375 0.1513 0.0
C408 C 0.09732 0.3934 0.16197 0.0
C409 C 0.08446 0.38305 0.17566 0.0
C410 C 0.05739 0.3425 0.17841 0.0
C411 C 0.04389 0.31281 0.16775 0.0
H412 H 0.94361 0.24727 0.13845 0.0
H413 H 0.96323 0.24786 0.15547 0.0
H414 H 0.97785 0.29464 0.14738 0.0
H415 H 0.09445 0.37237 0.14089 0.0
H416 H 0.11889 0.42424 0.15958 0.0
H417 H 0.00259 0.1234 0.42995 0.0
H418 H 0.95463 0.12339 0.44647 0.0
H419 H 0.94843 0.02188 0.4664 0.0
H420 H 0.99723 0.02223 0.4501 0.0
H421 H 0.87649 0.06506 0.4523 0.0
H422 H 0.978 0.10298 0.4987 0.0
H423 H 0.99574 0.10667 0.48119 0.0
H424 H 0.96825 0.05844 0.48895 0.0
C425 C 0.99107 0.10104 0.43784 0.0
C426 C 0.00406 0.07307 0.4388 0.0
C427 C 0.96357 0.10103 0.44725 0.0
C428 C 0.94848 0.07308 0.4578 0.0
C429 C 0.96042 0.04431 0.45854 0.0
H430 H 0.79719 0.0558 0.52764 0.0
H431 H 0.83268 0.03999 0.50975 0.0
C432 C 0.98817 0.04445 0.44917 0.0
C433 C 0.92077 0.07468 0.46809 0.0
H434 H 0.91253 0.09148 0.50261 0.0
C435 C 0.88428 0.07071 0.46331 0.0
C436 C 0.93101 0.082 0.48245 0.0
C437 C 0.97051 0.08813 0.48816 0.0
C438 C 0.85782 0.07409 0.47249 0.0
C439 C 0.86845 0.08215 0.4868 0.0
C440 C 0.90447 0.08521 0.49163 0.0
C441 C 0.84372 0.08944 0.49689 0.0
C442 C 0.81869 0.06886 0.46682 0.0
C443 C 0.83821 0.12247 0.49556 0.0
C444 C 0.81793 0.13149 0.50574 0.0
C445 C 0.80272 0.10756 0.5174 0.0
C446 C 0.80802 0.07432 0.51864 0.0
C447 C 0.82834 0.06535 0.50847 0.0
H448 H 0.80981 0.05191 0.45665 0.0
H449 H 0.7938 0.05284 0.47419 0.0
H450 H 0.82249 0.09895 0.46524 0.0
H451 H 0.85076 0.14206 0.48689 0.0
H452 H 0.81504 0.15777 0.50468 0.0
H453 H 0.98933 0.92598 0.77064 0.0
H454 H 0.93541 0.869 0.78267 0.0
H455 H 0.86486 0.92715 0.78322 0.0
H456 H 0.91834 0.98413 0.77127 0.0
H457 H 0.89453 0.86994 0.80957 0.0
H458 H 0.79405 0.81326 0.76236 0.0
H459 H 0.84803 0.84681 0.76153 0.0
H460 H 0.81614 0.86597 0.76689 0.0
C461 C 0.96246 0.92677 0.77341 0.0
C462 C 0.958 0.95947 0.76991 0.0
C463 C 0.93178 0.89427 0.78029 0.0
C464 C 0.89614 0.89385 0.78368 0.0
C465 C 0.89207 0.92686 0.78056 0.0
H466 H 0.66208 0.71925 0.81338 0.0
H467 H 0.72172 0.77925 0.80514 0.0
C468 C 0.92272 0.95941 0.77375 0.0
C469 C 0.86242 0.85833 0.79001 0.0
H470 H 0.76624 0.78104 0.78327 0.0
C471 C 0.86649 0.8503 0.80385 0.0
C472 C 0.82601 0.833 0.78247 0.0
C473 C 0.82064 0.83983 0.76745 0.0
C474 C 0.83448 0.81797 0.8105 0.0
C475 C 0.79793 0.79265 0.80296 0.0
C476 C 0.7942 0.80057 0.78906 0.0
C477 C 0.76289 0.7578 0.8092 0.0
C478 C 0.8397 0.81195 0.82561 0.0
C479 C 0.76628 0.72593 0.81432 0.0
C480 C 0.73228 0.69177 0.81917 0.0
C481 C 0.69421 0.68871 0.81881 0.0
C482 C 0.69105 0.72088 0.81385 0.0
C483 C 0.72506 0.7551 0.80911 0.0
H484 H 0.86445 0.83984 0.83081 0.0
H485 H 0.81138 0.8024 0.83131 0.0
H486 H 0.84752 0.78808 0.82638 0.0
H487 H 0.79494 0.72692 0.81418 0.0
H488 H 0.73544 0.66724 0.82284 0.0
H489 H 0.97771 0.91489 0.09141 0.0
H490 H 0.98696 0.87217 0.10736 0.0
H491 H 0.11202 0.96412 0.114 0.0
H492 H 0.10307 0.00745 0.09793 0.0
H493 H 0.04781 0.84524 0.10785 0.0
H494 H 0.05622 0.94305 0.15314 0.0
H495 H 0.03564 0.94496 0.13647 0.0
H496 H 0.08905 0.9659 0.13879 0.0
C497 C 0.00735 0.92599 0.09614 0.0
C498 C 0.03957 0.96473 0.09353 0.0
C499 C 0.0126 0.90142 0.10519 0.0
C500 C 0.05004 0.91516 0.1119 0.0
C501 C 0.08283 0.95316 0.10895 0.0
H502 H 0.05826 0.79513 0.1866 0.0
H503 H 0.08326 0.84142 0.16739 0.0
C504 C 0.07767 0.97778 0.09976 0.0
C505 C 0.05312 0.89049 0.12275 0.0
H506 H 0.04924 0.88083 0.15787 0.0
C507 C 0.04891 0.85325 0.11881 0.0
C508 C 0.05482 0.90123 0.137 0.0
C509 C 0.05903 0.94085 0.14172 0.0
C510 C 0.04463 0.82564 0.12879 0.0
C511 C 0.04337 0.83518 0.14302 0.0
C512 C 0.05002 0.87344 0.14696 0.0
C513 C 0.03114 0.80483 0.15386 0.0
C514 C 0.04082 0.7863 0.12395 0.0
C515 C 0.99369 0.76879 0.1526 0.0
C516 C 0.97959 0.74225 0.16349 0.0
C517 C 0.00239 0.75151 0.17593 0.0
C518 C 0.0402 0.78719 0.17709 0.0
C519 C 0.05447 0.81361 0.16614 0.0
H520 H 0.05721 0.78975 0.11414 0.0
H521 H 0.05276 0.77454 0.13191 0.0
H522 H 0.00847 0.76375 0.12181 0.0
H523 H 0.97453 0.7619 0.14343 0.0
H524 H 0.95019 0.71512 0.16239 0.0
H525 H 0.20543 0.06655 0.4124 0.0
H526 H 0.24978 0.06568 0.43049 0.0
H527 H 0.23625 0.15292 0.45523 0.0
H528 H 0.19088 0.15316 0.43734 0.0
H529 H 0.32126 0.12248 0.44412 0.0
H530 H 0.19266 0.0574 0.48029 0.0
H531 H 0.1859 0.062 0.46203 0.0
H532 H 0.20512 0.10531 0.47374 0.0
C533 C 0.21228 0.08598 0.4216 0.0
C534 C 0.19408 0.10939 0.42355 0.0
C535 C 0.23771 0.08549 0.43192 0.0
C536 C 0.24554 0.10855 0.44433 0.0
C537 C 0.22977 0.13416 0.44587 0.0
H538 H 0.34653 0.08229 0.52221 0.0
H539 H 0.32613 0.11184 0.50396 0.0
C540 C 0.20399 0.13437 0.43562 0.0
C541 C 0.2675 0.10319 0.45598 0.0
H542 H 0.25465 0.06738 0.48868 0.0
C543 C 0.30687 0.11076 0.45392 0.0
C544 C 0.24857 0.08778 0.46873 0.0
C545 C 0.20563 0.07728 0.47135 0.0
C546 C 0.32763 0.1028 0.46422 0.0
C547 C 0.30826 0.08646 0.4768 0.0
C548 C 0.26945 0.08011 0.47903 0.0
C549 C 0.32607 0.07264 0.4874 0.0
C550 C 0.36996 0.11167 0.46153 0.0
C551 C 0.3329 0.04097 0.48411 0.0
C552 C 0.34447 0.02409 0.49449 0.0
C553 C 0.34951 0.03867 0.50835 0.0
C554 C 0.34344 0.07093 0.51158 0.0
C555 C 0.33179 0.08776 0.50119 0.0
H556 H 0.38467 0.13464 0.45353 0.0
H557 H 0.38896 0.12245 0.4712 0.0
H558 H 0.3687 0.08369 0.45765 0.0
H559 H 0.32754 0.0281 0.47362 0.0
H560 H 0.34813 0.99871 0.49177 0.0
H561 H 0.13914 0.16344 0.75621 0.0
H562 H 0.17895 0.23006 0.76756 0.0
H563 H 0.14274 0.1778 0.80768 0.0
H564 H 0.10328 0.11075 0.79642 0.0
H565 H 0.15166 0.26962 0.78463 0.0
H566 H 0.26573 0.24734 0.81234 0.0
H567 H 0.23308 0.21326 0.79857 0.0
H568 H 0.21399 0.21095 0.81572 0.0
C569 C 0.13978 0.166 0.76746 0.0
C570 C 0.11813 0.13175 0.77542 0.0
C571 C 0.16253 0.20413 0.77392 0.0
C572 C 0.16417 0.2088 0.78846 0.0
C573 C 0.14252 0.17475 0.79646 0.0
H574 H 0.25306 0.44279 0.83159 0.0
H575 H 0.21177 0.37137 0.8243 0.0
C576 C 0.11983 0.13649 0.78999 0.0
C577 C 0.18759 0.24962 0.79512 0.0
H578 H 0.26856 0.30942 0.81672 0.0
C579 C 0.17712 0.2783 0.7917 0.0
C580 C 0.22095 0.26085 0.80424 0.0
C581 C 0.23445 0.23166 0.80788 0.0
C582 C 0.19928 0.31804 0.79708 0.0
C583 C 0.23242 0.32919 0.80628 0.0
C584 C 0.24283 0.30053 0.80977 0.0
C585 C 0.25805 0.37118 0.81167 0.0
C586 C 0.18788 0.34815 0.79255 0.0
C587 C 0.29792 0.39422 0.80724 0.0
C588 C 0.32142 0.43482 0.81137 0.0
C589 C 0.30559 0.45293 0.82013 0.0
C590 C 0.26599 0.42946 0.82488 0.0
C591 C 0.24241 0.38884 0.82069 0.0
H592 H 0.16646 0.3366 0.78348 0.0
H593 H 0.17324 0.35496 0.80126 0.0
H594 H 0.2152 0.37675 0.7898 0.0
H595 H 0.31046 0.38106 0.80026 0.0
H596 H 0.35175 0.45228 0.8075 0.0
H597 H 0.95933 0.00985 0.71396 0.0
H598 H 0.91195 0.01024 0.69707 0.0
H599 H 0.97509 0.13992 0.70025 0.0
H600 H 0.02308 0.13996 0.71715 0.0
H601 H 0.86167 0.04437 0.70122 0.0
H602 H 0.96809 0.11337 0.65787 0.0
H603 H 0.97927 0.09162 0.67234 0.0
H604 H 0.98311 0.13978 0.67452 0.0
C605 C 0.96335 0.03853 0.71105 0.0
C606 C 0.99509 0.0749 0.71687 0.0
C607 C 0.93618 0.03866 0.70141 0.0
C608 C 0.9403 0.0751 0.69733 0.0
C609 C 0.97181 0.11152 0.70312 0.0
H610 H 0.79044 0.10752 0.62596 0.0
H611 H 0.84942 0.12523 0.64809 0.0
C612 C 0.99905 0.11144 0.71282 0.0
C613 C 0.91085 0.07441 0.6872 0.0
H614 H 0.90038 0.09523 0.65373 0.0
C615 C 0.87012 0.05565 0.69085 0.0
C616 C 0.92215 0.08974 0.67377 0.0
C617 C 0.96546 0.10957 0.66928 0.0
C618 C 0.84015 0.05078 0.6813 0.0
C619 C 0.85119 0.06431 0.66767 0.0
C620 C 0.89208 0.08475 0.66419 0.0
C621 C 0.82069 0.05478 0.65661 0.0
C622 C 0.79706 0.03169 0.68597 0.0
C623 C 0.78316 0.00257 0.65291 0.0
C624 C 0.74654 0.98853 0.63898 0.0
C625 C 0.74555 0.03143 0.63111 0.0
C626 C 0.78994 0.08372 0.63178 0.0
C627 C 0.82522 0.09461 0.64598 0.0
H628 H 0.79558 0.03415 0.69745 0.0
H629 H 0.78145 0.04606 0.68117 0.0
H630 H 0.78051 0.99923 0.68285 0.0
H631 H 0.78302 0.97936 0.65896 0.0
H632 H 0.72198 0.95779 0.63742 0.0
H633 H 0.91986 0.97029 0.05226 0.0
H634 H 0.86459 0.91504 0.03843 0.0
H635 H 0.95133 0.91102 0.01124 0.0
H636 H 0.0065 0.96541 0.02505 0.0
H637 H 0.84196 0.90684 0.01051 0.0
H638 H 0.88597 0.79556 0.02366 0.0
H639 H 0.90632 0.84355 0.03292 0.0
H640 H 0.92698 0.83988 0.01657 0.0
C641 C 0.92711 0.9577 0.0433 0.0
C642 C 0.96756 0.97191 0.03983 0.0
C643 C 0.89552 0.92616 0.03543 0.0
C644 C 0.90394 0.90838 0.02401 0.0
C645 C 0.94422 0.92362 0.02023 0.0
H646 H 0.76685 0.76733 0.95274 0.0
H647 H 0.80443 0.82038 0.97055 0.0
C648 C 0.97571 0.95487 0.0281 0.0
C649 C 0.87095 0.87371 0.01599 0.0
H650 H 0.841 0.7784 0.00398 0.0
C651 C 0.84136 0.87853 0.0092 0.0
C652 C 0.86962 0.83648 0.01458 0.0
C653 C 0.89867 0.82834 0.02244 0.0
C654 C 0.81171 0.84776 0.00042 0.0
C655 C 0.81234 0.81166 0.99818 0.0
C656 C 0.84071 0.80619 0.00555 0.0
C657 C 0.78563 0.78004 0.98768 0.0
C658 C 0.78015 0.85435 0.99365 0.0
C659 C 0.76304 0.73956 0.99131 0.0
C660 C 0.74209 0.70913 0.98109 0.0
C661 C 0.74294 0.71868 0.96707 0.0
C662 C 0.76491 0.75925 0.96351 0.0
C663 C 0.78617 0.7896 0.9737 0.0
H664 H 0.77487 0.87568 -0.0 0.0
H665 H 0.79091 0.86766 0.98338 0.0
H666 H 0.75098 0.82564 0.99205 0.0
H667 H 0.76258 0.7314 0.002 0.0
H668 H 0.72621 0.67809 0.98412 0.0
H669 H 0.96246 0.94935 0.39342 0.0
H670 H 0.9458 0.88843 0.37959 0.0
H671 H 0.06603 0.9479 0.36327 0.0
H672 H 0.08326 0.00856 0.37728 0.0
H673 H 0.9452 0.87912 0.35151 0.0
H674 H 0.05394 0.8428 0.37533 0.0
H675 H 0.04251 0.87873 0.38325 0.0
H676 H 0.07763 0.89315 0.3693 0.0
C677 C 0.98546 0.94938 0.38696 0.0
C678 C 0.02422 0.98376 0.38648 0.0
C679 C 0.97589 0.91454 0.37908 0.0
C680 C 0.00487 0.9134 0.37058 0.0
C681 C 0.04352 0.94774 0.37003 0.0
H682 H 0.97109 0.76001 0.29896 0.0
H683 H 0.98472 0.81493 0.31562 0.0
C684 C 0.05321 0.9825 0.37797 0.0
C685 C 0.99406 0.87704 0.36176 0.0
H686 H 0.02222 0.80806 0.35379 0.0
C687 C 0.96183 0.86339 0.35209 0.0
C688 C 0.01552 0.85628 0.36263 0.0
C689 C 0.04906 0.86821 0.37328 0.0
C690 C 0.95125 0.83028 0.34299 0.0
C691 C 0.97383 0.81069 0.34347 0.0
C692 C 0.00526 0.82348 0.35339 0.0
C693 C 0.96578 0.77743 0.3335 0.0
C694 C 0.91598 0.81644 0.33294 0.0
C695 C 0.95123 0.73839 0.33811 0.0
C696 C 0.94324 0.70693 0.32861 0.0
C697 C 0.9502 0.7142 0.31438 0.0
C698 C 0.96529 0.75354 0.30985 0.0
C699 C 0.97299 0.78485 0.31933 0.0
H700 H 0.89617 0.8284 0.33605 0.0
H701 H 0.92753 0.8273 0.32246 0.0
H702 H 0.89757 0.78306 0.33218 0.0
H703 H 0.94566 0.73221 0.34903 0.0
H704 H 0.93163 0.67694 0.33238 0.0
H705 H 0.13281 0.98585 0.72902 0.0
H706 H 0.17735 0.97085 0.71532 0.0
H707 H 0.19204 0.0594 0.686 0.0
H708 H 0.14827 0.07513 0.69973 0.0
H709 H 0.16898 0.94317 0.68806 0.0
H710 H 0.30844 0.09252 0.69559 0.0
H711 H 0.26426 0.0772 0.70593 0.0
H712 H 0.26623 0.09494 0.68872 0.0
C713 C 0.14567 0.00227 0.71969 0.0
C714 C 0.13723 0.0319 0.71552 0.0
C715 C 0.17106 0.99362 0.71187 0.0
C716 C 0.18852 0.01449 0.69978 0.0
C717 C 0.17965 0.04361 0.69548 0.0
H718 H 0.29653 0.94169 0.63442 0.0
H719 H 0.25286 0.95801 0.64812 0.0
C720 C 0.15443 0.0524 0.70331 0.0
C721 C 0.21542 0.00526 0.69151 0.0
H722 H 0.3106 0.04736 0.67877 0.0
C723 C 0.19999 0.96588 0.68606 0.0
C724 C 0.25599 0.03487 0.68905 0.0
C725 C 0.27491 0.07716 0.69524 0.0
C726 C 0.22391 0.9554 0.67806 0.0
C727 C 0.26408 0.98534 0.67522 0.0
C728 C 0.27966 0.02458 0.68083 0.0
C729 C 0.29081 0.97638 0.66675 0.0
C730 C 0.20619 0.91223 0.67293 0.0
C731 C 0.32713 0.98237 0.67255 0.0
C732 C 0.35235 0.97363 0.6647 0.0
C733 C 0.34193 0.95917 0.65084 0.0
C734 C 0.30557 0.95331 0.64502 0.0
C735 C 0.28043 0.96221 0.65287 0.0
H736 H 0.17951 0.89139 0.67899 0.0
H737 H 0.19618 0.90928 0.6619 0.0
H738 H 0.22895 0.90269 0.67355 0.0
H739 H 0.3357 0.99328 0.68324 0.0
H740 H 0.37988 0.97785 0.66949 0.0
H741 H 0.15986 0.15583 0.05164 0.0
H742 H 0.20752 0.21324 0.03809 0.0
H743 H 0.10864 0.19924 0.01236 0.0
H744 H 0.06109 0.14251 0.02577 0.0
H745 H 0.22248 0.22012 0.00852 0.0
H746 H 0.16406 0.3168 0.02805 0.0
H747 H 0.15391 0.27139 0.0364 0.0
H748 H 0.12481 0.26865 0.02125 0.0
C749 C 0.14836 0.16488 0.04304 0.0
C750 C 0.10663 0.14489 0.03988 0.0
C751 C 0.1756 0.19762 0.03533 0.0
C752 C 0.16142 0.21085 0.02441 0.0
C753 C 0.12005 0.18996 0.02093 0.0
H754 H 0.25214 0.3477 0.95279 0.0
H755 H 0.23099 0.2974 0.97057 0.0
C756 C 0.09293 0.15743 0.02859 0.0
C757 C 0.18921 0.24693 0.01671 0.0
H758 H 0.20206 0.33698 0.00721 0.0
C759 C 0.21859 0.24604 0.00838 0.0
C760 C 0.18467 0.28105 0.01678 0.0
C761 C 0.15544 0.28483 0.02621 0.0
C762 C 0.24184 0.27741 0.99944 0.0
C763 C 0.23486 0.30998 0.99867 0.0
C764 C 0.20722 0.31189 0.00766 0.0
C765 C 0.25317 0.34077 0.98795 0.0
C766 C 0.27326 0.27508 0.99081 0.0
C767 C 0.27231 0.38193 0.99175 0.0
C768 C 0.28383 0.41067 0.98159 0.0
C769 C 0.2768 0.39879 0.96741 0.0
C770 C 0.2587 0.35771 0.96362 0.0
C771 C 0.24688 0.32897 0.97378 0.0
H772 H 0.28503 0.25771 0.99605 0.0
H773 H 0.25926 0.25925 0.98071 0.0
H774 H 0.29901 0.3055 0.98874 0.0
H775 H 0.27702 0.39171 0.00262 0.0
H776 H 0.29694 0.44204 0.98484 0.0
H777 H 0.13345 0.20743 0.37706 0.0
H778 H 0.1354 0.25515 0.36034 0.0
H779 H 0.00553 0.18537 0.35574 0.0
H780 H 0.00318 0.13797 0.37239 0.0
H781 H 0.10565 0.23918 0.33232 0.0
H782 H 0.0288 0.30011 0.36458 0.0
H783 H 0.05057 0.27248 0.37178 0.0
H784 H 0.00146 0.2461 0.36332 0.0
C785 C 0.10532 0.20238 0.37252 0.0
C786 C 0.06813 0.16902 0.3761 0.0
C787 C 0.10652 0.22963 0.36298 0.0
C788 C 0.07056 0.22411 0.35702 0.0
C789 C 0.03355 0.19062 0.36046 0.0
H790 H 0.95579 0.31305 0.29618 0.0
H791 H 0.97851 0.27374 0.31636 0.0
C792 C 0.03231 0.16342 0.36993 0.0
C793 C 0.0712 0.25237 0.34684 0.0
H794 H 0.02969 0.31011 0.34007 0.0
C795 C 0.08976 0.25539 0.33406 0.0
C796 C 0.05054 0.2735 0.34922 0.0
C797 C 0.03206 0.27327 0.36302 0.0
C798 C 0.08596 0.27699 0.32325 0.0
C799 C 0.06361 0.29647 0.32545 0.0
C800 C 0.04662 0.2949 0.33841 0.0
C801 C 0.05423 0.31573 0.31424 0.0
C802 C 0.10385 0.27668 0.30937 0.0
C803 C 0.09424 0.35479 0.30446 0.0
C804 C 0.08279 0.37973 0.29119 0.0
C805 C 0.02932 0.36801 0.29078 0.0
C806 C 0.98698 0.321 0.29757 0.0
C807 C 0.00158 0.29809 0.31057 0.0
H808 H 0.11029 0.25175 0.30829 0.0
H809 H 0.0833 0.27369 0.30066 0.0
H810 H 0.13281 0.30544 0.30842 0.0
H811 H 0.12539 0.36399 0.30675 0.0
H812 H 0.10655 0.40541 0.2861 0.0
loop_
_geom_bond_atom_site_label_1
_geom_bond_atom_site_label_2
_geom_bond_distance
_geom_bond_site_symmetry_2
_ccdc_geom_bond_type
C0 O1 1.160 1_565 S
C0 O7 1.185 1_565 S
O1 C0 1.160 1_545 S
O2 Zn3 1.899 . S
O2 C10 1.284 . S
Zn3 O2 1.899 . S
Zn3 O4 2.032 1_455 S
Zn3 O7 2.086 . S
Zn3 O12 1.977 . S
O4 Zn3 2.032 1_655 S
O4 C8 1.278 . S
C5 O6 1.203 . S
C5 O12 1.267 . S
O6 C5 1.203 . S
O7 C0 1.185 1_545 S
O7 Zn3 2.086 . S
C8 O4 1.278 . S
C8 O9 1.211 . S
O9 C8 1.211 . S
C10 O2 1.284 . S
C10 O11 1.273 1_455 S
O11 C10 1.273 1_655 S
O12 Zn3 1.977 . S
O12 C5 1.267 . S
C13 O14 1.160 . S
C13 O20 1.185 . S
O14 C13 1.160 . S
O15 Zn16 1.899 . S
O15 C23 1.284 . S
Zn16 O15 1.899 . S
Zn16 O17 2.032 . S
Zn16 O20 2.086 . S
Zn16 O25 1.977 . S
O17 Zn16 2.032 . S
O17 C21 1.278 . S
C18 O19 1.203 . S
C18 O25 1.267 . S
O19 C18 1.203 . S
O20 C13 1.185 . S
O20 Zn16 2.086 . S
C21 O17 1.278 . S
C21 O22 1.211 . S
O22 C21 1.211 . S
C23 O15 1.284 . S
C23 O24 1.273 . S
O24 C23 1.273 . S
O25 Zn16 1.977 . S
O25 C18 1.267 . S
C26 O27 1.160 . S
C26 O33 1.185 . S
O27 C26 1.160 . S
O28 Zn29 1.893 1_655 S
O28 C36 1.291 . S
Zn29 O28 1.893 1_455 S
Zn29 O30 2.032 . S
Zn29 O33 2.086 . S
Zn29 O38 1.977 1_545 S
O30 Zn29 2.032 . S
O30 C34 1.278 . S
C31 O32 1.203 . S
C31 O38 1.267 1_655 S
O32 C31 1.203 . S
O33 C26 1.185 . S
O33 Zn29 2.086 . S
C34 O30 1.278 . S
C34 O35 1.211 . S
O35 C34 1.211 . S
C36 O28 1.291 . S
C36 O37 1.273 1_655 S
O37 C36 1.273 1_455 S
O38 Zn29 1.977 1_565 S
O38 C31 1.267 1_455 S
C39 C40 1.560 1_655 S
C39 H100 0.959 . S
C39 H101 0.959 . S
C39 H102 0.960 . S
C40 C39 1.560 1_455 S
C40 O95 1.426 1_455 S
C40 H99 0.980 . S
C41 C42 1.407 . S
C41 C46 1.418 1_455 S
C41 O95 1.334 1_455 S
C42 C41 1.407 . S
C42 C43 1.360 . S
C42 H103 0.929 . S
C43 C42 1.360 . S
C43 C44 1.401 . S
C43 C47 1.527 . S
C44 C43 1.401 . S
C44 C45 1.405 1_455 S
C44 C77 1.587 . S
C45 C44 1.405 1_655 S
C45 C46 1.332 . S
C45 C48 1.496 . S
C46 C41 1.418 1_655 S
C46 C45 1.332 . S
C46 H104 0.929 . S
C47 C43 1.527 . S
C47 H105 0.959 . S
C47 H106 0.961 . S
C47 H107 0.961 . S
C48 C45 1.496 . S
C48 H108 0.960 . S
C48 H109 0.960 . S
C48 H110 0.961 . S
C49 C50 1.517 . S
C49 H112 0.961 . S
C49 H113 0.960 . S
C49 H114 0.959 . S
C50 C49 1.517 . S
C50 O98 1.468 . S
C50 H111 0.980 . S
C51 C52 1.349 . S
C51 C56 1.367 . S
C51 O98 1.408 . S
C52 C51 1.349 . S
C52 C53 1.407 . S
C52 H115 0.930 . S
C53 C52 1.407 . S
C53 C54 1.449 . S
C53 C57 1.535 1_455 S
C54 C53 1.449 . S
C54 C55 1.384 . S
C54 C79 1.553 . S
C55 C54 1.384 . S
C55 C56 1.364 . S
C55 C58 1.450 . S
C56 C51 1.367 . S
C56 C55 1.364 . S
C56 H116 0.931 . S
C57 C53 1.535 1_655 S
C57 H117 0.959 . S
C57 H118 0.961 . S
C57 H119 0.959 . S
C58 C55 1.450 . S
C58 H120 0.960 . S
C58 H121 0.960 . S
C58 H122 0.960 . S
C59 C60 1.309 . S
C59 C64 1.304 . S
C59 O97 1.435 . S
C60 C59 1.309 . S
C60 C61 1.476 . S
C60 H124 0.939 . S
C61 C60 1.476 . S
C61 C62 1.400 . S
C61 C65 1.567 1_455 S
C62 C61 1.400 . S
C62 C63 1.373 . S
C62 C84 1.432 . S
C63 C62 1.373 . S
C63 C64 1.339 . S
C63 C66 1.530 . S
C64 C59 1.304 . S
C64 C63 1.339 . S
C64 H125 0.930 . S
C65 C61 1.567 1_655 S
C65 H126 0.961 . S
C65 H127 0.960 . S
C65 H128 0.958 . S
C66 C63 1.530 . S
C66 H129 0.961 . S
C66 H130 0.960 . S
C66 H131 0.960 . S
C67 C68 1.530 1_655 S
C67 H133 0.959 1_655 S
C67 H134 0.961 . S
C67 H135 0.959 . S
C68 C67 1.530 1_455 S
C68 O96 1.412 1_455 S
C68 H132 0.980 . S
C69 C70 1.288 . S
C69 C74 1.377 1_655 S
C69 O96 1.393 . S
C70 C69 1.288 . S
C70 C71 1.369 . S
C70 H136 0.932 . S
C71 C70 1.369 . S
C71 C72 1.398 1_655 S
C71 C75 1.527 . S
C72 C71 1.398 1_455 S
C72 C73 1.380 . S
C72 C86 1.497 . S
C73 C72 1.380 . S
C73 C74 1.383 . S
C73 C76 1.603 . S
C74 C69 1.377 1_455 S
C74 C73 1.383 . S
C74 H137 0.929 . S
C75 C71 1.527 . S
C75 H138 0.961 . S
C75 H139 0.959 . S
C75 H140 0.959 . S
C76 C73 1.603 . S
C76 H141 0.960 . S
C76 H142 0.962 . S
C76 H143 0.961 . S
C77 C44 1.587 . S
C77 C78 1.360 . S
C77 C90 1.412 . S
C78 C77 1.360 . S
C78 C79 1.365 . S
C78 H144 0.929 . S
C79 C54 1.553 . S
C79 C78 1.365 . S
C79 C80 1.404 . S
C80 C79 1.404 . S
C80 C81 1.395 . S
C80 C91 1.451 . S
C81 C80 1.395 . S
C81 C82 1.322 . S
C81 H145 0.930 . S
C82 C81 1.322 . S
C82 C83 1.459 . S
C82 H146 0.929 . S
C83 C82 1.459 . S
C83 C84 1.445 . S
C83 C92 1.395 . S
C84 C62 1.432 . S
C84 C83 1.445 . S
C84 C85 1.370 . S
C85 C84 1.370 . S
C85 C86 1.438 . S
C85 H147 0.930 . S
C86 C72 1.497 . S
C86 C85 1.438 . S
C86 C87 1.360 . S
C87 C86 1.360 . S
C87 C88 1.401 . S
C87 C92 1.446 . S
C88 C87 1.401 . S
C88 C89 1.347 . S
C88 H148 0.929 . S
C89 C88 1.347 . S
C89 C90 1.455 . S
C89 H149 0.930 . S
C90 C77 1.412 . S
C90 C89 1.455 . S
C90 C91 1.331 . S
C91 C80 1.451 . S
C91 C90 1.331 . S
C91 C92 1.497 . S
C92 C83 1.395 . S
C92 C87 1.446 . S
C92 C91 1.497 . S
C93 C94 1.582 . S
C93 H150 0.962 . S
C93 H151 0.959 . S
C93 H152 0.958 . S
C94 C93 1.582 . S
C94 O97 1.458 . S
C94 H123 0.980 . S
O95 C40 1.426 1_655 S
O95 C41 1.334 1_655 S
O96 C68 1.412 1_655 S
O96 C69 1.393 . S
O97 C59 1.435 . S
O97 C94 1.458 . S
O98 C50 1.468 . S
O98 C51 1.408 . S
H99 C40 0.980 . S
H100 C39 0.959 . S
H101 C39 0.959 . S
H102 C39 0.960 . S
H103 C42 0.929 . S
H104 C46 0.929 . S
H105 C47 0.959 . S
H106 C47 0.961 . S
H107 C47 0.961 . S
H108 C48 0.960 . S
H109 C48 0.960 . S
H110 C48 0.961 . S
H111 C50 0.980 . S
H112 C49 0.961 . S
H113 C49 0.960 . S
H114 C49 0.959 . S
H115 C52 0.930 . S
H116 C56 0.931 . S
H117 C57 0.959 . S
H118 C57 0.961 . S
H119 C57 0.959 . S
H120 C58 0.960 . S
H121 C58 0.960 . S
H122 C58 0.960 . S
H123 C94 0.980 . S
H124 C60 0.939 . S
H125 C64 0.930 . S
H126 C65 0.961 . S
H127 C65 0.960 . S
H128 C65 0.958 . S
H129 C66 0.961 . S
H130 C66 0.960 . S
H131 C66 0.960 . S
H132 C68 0.980 . S
H133 C67 0.959 1_455 S
H134 C67 0.961 . S
H135 C67 0.959 . S
H136 C70 0.932 . S
H137 C74 0.929 . S
H138 C75 0.961 . S
H139 C75 0.959 . S
H140 C75 0.959 . S
H141 C76 0.960 . S
H142 C76 0.962 . S
H143 C76 0.961 . S
H144 C78 0.929 . S
H145 C81 0.930 . S
H146 C82 0.929 . S
H147 C85 0.930 . S
H148 C88 0.929 . S
H149 C89 0.930 . S
H150 C93 0.962 . S
H151 C93 0.959 . S
H152 C93 0.958 . S
C153 C154 1.560 1_565 S
C153 H214 0.959 . S
C153 H215 0.959 . S
C153 H216 0.960 . S
C154 C153 1.560 1_545 S
C154 O209 1.415 1_545 S
C154 H213 0.980 . S
C155 C156 1.407 . S
C155 C160 1.418 1_545 S
C155 O209 1.334 1_545 S
C156 C155 1.407 . S
C156 C157 1.360 . S
C156 H217 0.929 . S
C157 C156 1.360 . S
C157 C158 1.401 . S
C157 C161 1.527 . S
C158 C157 1.401 . S
C158 C159 1.405 . S
C158 C191 1.587 . S
C159 C158 1.405 . S
C159 C160 1.332 1_545 S
C159 C162 1.496 1_545 S
C160 C155 1.418 1_565 S
C160 C159 1.332 1_565 S
C160 H218 0.929 . S
C161 C157 1.527 . S
C161 H219 0.959 . S
C161 H220 0.961 . S
C161 H221 0.961 . S
C162 C159 1.496 1_565 S
C162 H222 0.960 . S
C162 H223 0.960 . S
C162 H224 0.961 . S
C163 C164 1.517 . S
C163 H226 0.961 . S
C163 H227 0.960 . S
C163 H228 0.959 . S
C164 C163 1.517 . S
C164 O212 1.468 . S
C164 H225 0.980 . S
C165 C166 1.349 . S
C165 C170 1.367 . S
C165 O212 1.408 . S
C166 C165 1.349 . S
C166 C167 1.407 . S
C166 H229 0.930 . S
C167 C166 1.407 . S
C167 C168 1.449 . S
C167 C171 1.535 . S
C168 C167 1.449 . S
C168 C169 1.384 . S
C168 C193 1.553 . S
C169 C168 1.384 . S
C169 C170 1.364 . S
C169 C172 1.450 . S
C170 C165 1.367 . S
C170 C169 1.364 . S
C170 H230 0.931 . S
C171 C167 1.535 . S
C171 H231 0.959 . S
C171 H232 0.961 1_545 S
C171 H233 0.959 1_545 S
C172 C169 1.450 . S
C172 H234 0.960 . S
C172 H235 0.960 . S
C172 H236 0.960 . S
C173 C174 1.309 . S
C173 C178 1.304 . S
C173 O211 1.435 . S
C174 C173 1.309 . S
C174 C175 1.476 . S
C174 H238 0.930 . S
C175 C174 1.476 . S
C175 C176 1.400 . S
C175 C179 1.567 . S
C176 C175 1.400 . S
C176 C177 1.373 . S
C176 C198 1.432 . S
C177 C176 1.373 . S
C177 C178 1.339 . S
C177 C180 1.530 . S
C178 C173 1.304 . S
C178 C177 1.339 . S
C178 H239 0.930 . S
C179 C175 1.567 . S
C179 H240 0.961 . S
C179 H241 0.960 1_545 S
C179 H242 0.958 1_545 S
C180 C177 1.530 . S
C180 H243 0.961 . S
C180 H244 0.960 . S
C180 H245 0.960 . S
C181 C182 1.530 . S
C181 H247 0.961 . S
C181 H248 0.961 . S
C181 H249 0.959 . S
C182 C181 1.530 . S
C182 O210 1.412 . S
C182 H246 0.980 . S
C183 C184 1.288 . S
C183 C188 1.377 . S
C183 O210 1.393 . S
C184 C183 1.288 . S
C184 C185 1.369 . S
C184 H250 0.932 1_545 S
C185 C184 1.369 . S
C185 C186 1.398 . S
C185 C189 1.527 1_545 S
C186 C185 1.398 . S
C186 C187 1.380 . S
C186 C200 1.497 . S
C187 C186 1.380 . S
C187 C188 1.383 . S
C187 C190 1.603 . S
C188 C183 1.377 . S
C188 C187 1.383 . S
C188 H251 0.929 . S
C189 C185 1.527 1_565 S
C189 H252 0.961 . S
C189 H253 0.959 . S
C189 H254 0.959 . S
C190 C187 1.603 . S
C190 H255 0.960 . S
C190 H256 0.962 . S
C190 H257 0.961 . S
C191 C158 1.587 . S
C191 C192 1.360 . S
C191 C204 1.412 . S
C192 C191 1.360 . S
C192 C193 1.365 . S
C192 H258 0.929 . S
C193 C168 1.553 . S
C193 C192 1.365 . S
C193 C194 1.404 . S
C194 C193 1.404 . S
C194 C195 1.395 . S
C194 C205 1.451 . S
C195 C194 1.395 . S
C195 C196 1.322 . S
C195 H259 0.930 . S
C196 C195 1.322 . S
C196 C197 1.459 . S
C196 H260 0.929 . S
C197 C196 1.459 . S
C197 C198 1.445 . S
C197 C206 1.395 . S
C198 C176 1.432 . S
C198 C197 1.445 . S
C198 C199 1.370 . S
C199 C198 1.370 . S
C199 C200 1.438 . S
C199 H261 0.930 . S
C200 C186 1.497 . S
C200 C199 1.438 . S
C200 C201 1.360 . S
C201 C200 1.360 . S
C201 C202 1.401 . S
C201 C206 1.446 . S
C202 C201 1.401 . S
C202 C203 1.347 . S
C202 H262 0.929 . S
C203 C202 1.347 . S
C203 C204 1.455 . S
C203 H263 0.930 . S
C204 C191 1.412 . S
C204 C203 1.455 . S
C204 C205 1.331 . S
C205 C194 1.451 . S
C205 C204 1.331 . S
C205 C206 1.497 . S
C206 C197 1.395 . S
C206 C201 1.446 . S
C206 C205 1.497 . S
C207 C208 1.582 . S
C207 H264 0.962 . S
C207 H265 0.959 . S
C207 H266 0.958 . S
C208 C207 1.582 . S
C208 O211 1.458 . S
C208 H237 0.980 . S
O209 C154 1.415 1_565 S
O209 C155 1.334 1_565 S
O210 C182 1.412 . S
O210 C183 1.393 . S
O211 C173 1.435 . S
O211 C208 1.458 . S
O212 C164 1.468 . S
O212 C165 1.408 . S
H213 C154 0.980 . S
H214 C153 0.959 . S
H215 C153 0.959 . S
H216 C153 0.960 . S
H217 C156 0.929 . S
H218 C160 0.929 . S
H219 C161 0.959 . S
H220 C161 0.961 . S
H221 C161 0.961 . S
H222 C162 0.960 . S
H223 C162 0.960 . S
H224 C162 0.961 . S
H225 C164 0.980 . S
H226 C163 0.961 . S
H227 C163 0.960 . S
H228 C163 0.959 . S
H229 C166 0.930 . S
H230 C170 0.931 . S
H231 C171 0.959 . S
H232 C171 0.961 1_565 S
H233 C171 0.959 1_565 S
H234 C172 0.960 . S
H235 C172 0.960 . S
H236 C172 0.960 . S
H237 C208 0.980 . S
H238 C174 0.930 . S
H239 C178 0.930 . S
H240 C179 0.961 . S
H241 C179 0.960 1_565 S
H242 C179 0.958 1_565 S
H243 C180 0.961 . S
H244 C180 0.960 . S
H245 C180 0.960 . S
H246 C182 0.980 . S
H247 C181 0.961 . S
H248 C181 0.961 . S
H249 C181 0.959 . S
H250 C184 0.932 1_565 S
H251 C188 0.929 . S
H252 C189 0.961 . S
H253 C189 0.959 . S
H254 C189 0.959 . S
H255 C190 0.960 . S
H256 C190 0.962 . S
H257 C190 0.961 . S
H258 C192 0.929 . S
H259 C195 0.930 . S
H260 C196 0.929 . S
H261 C199 0.930 . S
H262 C202 0.929 . S
H263 C203 0.930 . S
H264 C207 0.962 . S
H265 C207 0.959 . S
H266 C207 0.958 . S
C267 C268 1.560 . S
C267 H328 0.959 . S
C267 H329 0.959 . S
C267 H330 0.960 . S
C268 C267 1.560 . S
C268 O323 1.426 . S
C268 H327 0.980 . S
C269 C270 1.407 . S
C269 C274 1.418 . S
C269 O323 1.334 . S
C270 C269 1.407 . S
C270 C271 1.360 . S
C270 H331 0.929 . S
C271 C270 1.360 . S
C271 C272 1.401 . S
C271 C275 1.527 . S
C272 C271 1.401 . S
C272 C273 1.405 . S
C272 C305 1.587 . S
C273 C272 1.405 . S
C273 C274 1.332 . S
C273 C276 1.496 . S
C274 C269 1.418 . S
C274 C273 1.332 . S
C274 H332 0.929 . S
C275 C271 1.527 . S
C275 H333 0.959 . S
C275 H334 0.961 . S
C275 H335 0.961 . S
C276 C273 1.496 . S
C276 H336 0.960 . S
C276 H337 0.960 . S
C276 H338 0.961 . S
C277 C278 1.517 . S
C277 H340 0.961 . S
C277 H341 0.960 . S
C277 H342 0.959 . S
C278 C277 1.517 . S
C278 O326 1.468 . S
C278 H339 0.980 . S
C279 C280 1.349 . S
C279 C284 1.367 . S
C279 O326 1.408 . S
C280 C279 1.349 . S
C280 C281 1.407 . S
C280 H343 0.930 . S
C281 C280 1.407 . S
C281 C282 1.449 . S
C281 C285 1.535 . S
C282 C281 1.449 . S
C282 C283 1.384 . S
C282 C307 1.553 . S
C283 C282 1.384 . S
C283 C284 1.364 . S
C283 C286 1.450 . S
C284 C279 1.367 . S
C284 C283 1.364 . S
C284 H344 0.931 . S
C285 C281 1.535 . S
C285 H345 0.959 . S
C285 H346 0.961 . S
C285 H347 0.959 . S
C286 C283 1.450 . S
C286 H348 0.960 . S
C286 H349 0.960 . S
C286 H350 0.960 . S
C287 C288 1.309 . S
C287 C292 1.304 . S
C287 O325 1.435 . S
C288 C287 1.309 . S
C288 C289 1.476 . S
C288 H352 0.930 . S
C289 C288 1.476 . S
C289 C290 1.400 . S
C289 C293 1.567 . S
C290 C289 1.400 . S
C290 C291 1.373 . S
C290 C312 1.432 . S
C291 C290 1.373 . S
C291 C292 1.339 . S
C291 C294 1.530 . S
C292 C287 1.304 . S
C292 C291 1.339 . S
C292 H353 0.930 . S
C293 C289 1.567 . S
C293 H354 0.961 . S
C293 H355 0.960 . S
C293 H356 0.958 . S
C294 C291 1.530 . S
C294 H357 0.961 . S
C294 H358 0.960 . S
C294 H359 0.960 . S
C295 C296 1.530 . S
C295 H361 0.961 . S
C295 H362 0.961 . S
C295 H363 0.959 . S
C296 C295 1.530 . S
C296 O324 1.412 . S
C296 H360 0.980 . S
C297 C298 1.288 . S
C297 C302 1.377 . S
C297 O324 1.393 . S
C298 C297 1.288 . S
C298 C299 1.369 . S
C298 H364 0.932 . S
C299 C298 1.369 . S
C299 C300 1.398 . S
C299 C303 1.527 . S
C300 C299 1.398 . S
C300 C301 1.380 . S
C300 C314 1.497 . S
C301 C300 1.380 . S
C301 C302 1.383 . S
C301 C304 1.603 . S
C302 C297 1.377 . S
C302 C301 1.383 . S
C302 H365 0.929 . S
C303 C299 1.527 . S
C303 H366 0.961 . S
C303 H367 0.959 . S
C303 H368 0.959 . S
C304 C301 1.603 . S
C304 H369 0.960 . S
C304 H370 0.962 . S
C304 H371 0.961 . S
C305 C272 1.587 . S
C305 C306 1.360 . S
C305 C318 1.412 . S
C306 C305 1.360 . S
C306 C307 1.365 . S
C306 H372 0.929 . S
C307 C282 1.553 . S
C307 C306 1.365 . S
C307 C308 1.404 . S
C308 C307 1.404 . S
C308 C309 1.395 . S
C308 C319 1.451 . S
C309 C308 1.395 . S
C309 C310 1.322 . S
C309 H373 0.930 . S
C310 C309 1.322 . S
C310 C311 1.459 . S
C310 H374 0.929 . S
C311 C310 1.459 . S
C311 C312 1.445 . S
C311 C320 1.395 . S
C312 C290 1.432 . S
C312 C311 1.445 . S
C312 C313 1.370 . S
C313 C312 1.370 . S
C313 C314 1.438 . S
C313 H375 0.930 . S
C314 C300 1.497 . S
C314 C313 1.438 . S
C314 C315 1.360 . S
C315 C314 1.360 . S
C315 C316 1.401 . S
C315 C320 1.446 . S
C316 C315 1.401 . S
C316 C317 1.347 . S
C316 H376 0.929 . S
C317 C316 1.347 . S
C317 C318 1.455 . S
C317 H377 0.930 . S
C318 C305 1.412 . S
C318 C317 1.455 . S
C318 C319 1.331 . S
C319 C308 1.451 . S
C319 C318 1.331 . S
C319 C320 1.497 . S
C320 C311 1.395 . S
C320 C315 1.446 . S
C320 C319 1.497 . S
C321 C322 1.582 . S
C321 H378 0.962 . S
C321 H379 0.959 . S
C321 H380 0.958 . S
C322 C321 1.582 . S
C322 O325 1.458 . S
C322 H351 0.980 . S
O323 C268 1.426 . S
O323 C269 1.334 . S
O324 C296 1.412 . S
O324 C297 1.393 . S
O325 C287 1.435 . S
O325 C322 1.458 . S
O326 C278 1.468 . S
O326 C279 1.408 . S
H327 C268 0.980 . S
H328 C267 0.959 . S
H329 C267 0.959 . S
H330 C267 0.960 . S
H331 C270 0.929 . S
H332 C274 0.929 . S
H333 C275 0.959 . S
H334 C275 0.961 . S
H335 C275 0.961 . S
H336 C276 0.960 . S
H337 C276 0.960 . S
H338 C276 0.961 . S
H339 C278 0.980 . S
H340 C277 0.961 . S
H341 C277 0.960 . S
H342 C277 0.959 . S
H343 C280 0.930 . S
H344 C284 0.931 . S
H345 C285 0.959 . S
H346 C285 0.961 . S
H347 C285 0.959 . S
H348 C286 0.960 . S
H349 C286 0.960 . S
H350 C286 0.960 . S
H351 C322 0.980 . S
H352 C288 0.930 . S
H353 C292 0.930 . S
H354 C293 0.961 . S
H355 C293 0.960 . S
H356 C293 0.958 . S
H357 C294 0.961 . S
H358 C294 0.960 . S
H359 C294 0.960 . S
H360 C296 0.980 . S
H361 C295 0.961 . S
H362 C295 0.961 . S
H363 C295 0.959 . S
H364 C298 0.932 . S
H365 C302 0.929 . S
H366 C303 0.961 . S
H367 C303 0.959 . S
H368 C303 0.959 . S
H369 C304 0.960 . S
H370 C304 0.962 . S
H371 C304 0.961 . S
H372 C306 0.929 . S
H373 C309 0.930 . S
H374 C310 0.929 . S
H375 C313 0.930 . S
H376 C316 0.929 . S
H377 C317 0.930 . S
H378 C321 0.962 . S
H379 C321 0.959 . S
H380 C321 0.958 . S
H381 C389 0.929 . S
H382 C391 0.930 . S
H383 C393 0.930 . S
H384 C396 0.929 . S
H385 C399 0.930 . S
H386 C401 0.960 . S
H387 C401 0.960 . S
H388 C401 0.960 . S
C389 H381 0.929 . S
C389 C390 1.377 1_655 S
C389 C391 1.384 . S
C390 C389 1.377 1_455 S
C390 C396 1.390 . S
C391 H382 0.930 . S
C391 C389 1.384 . S
C391 C392 1.372 1_655 S
C392 C391 1.372 1_455 S
C392 C393 1.400 . S
C392 C397 1.490 . S
C393 H383 0.930 . S
C393 C392 1.400 . S
C393 C396 1.386 . S
H394 C410 0.930 . S
H395 C411 0.931 . S
C396 H384 0.929 . S
C396 C390 1.390 . S
C396 C393 1.386 . S
C397 C392 1.490 . S
C397 C399 1.395 1_455 S
C397 C400 1.403 . S
H398 C404 0.930 . S
C399 H385 0.930 . S
C399 C397 1.395 1_655 S
C399 C402 1.403 . S
C400 C397 1.403 . S
C400 C401 1.524 . S
C400 C404 1.400 . S
C401 H386 0.960 . S
C401 H387 0.960 . S
C401 H388 0.960 . S
C401 C400 1.524 . S
C402 C399 1.403 . S
C402 C403 1.392 1_655 S
C402 C406 1.495 . S
C403 C402 1.392 1_455 S
C403 C404 1.385 . S
C403 C405 1.478 . S
C404 H398 0.930 . S
C404 C400 1.400 . S
C404 C403 1.385 . S
C405 C403 1.478 . S
C405 C407 1.381 1_455 S
C405 C411 1.383 . S
C406 C402 1.495 . S
C406 H412 0.959 . S
C406 H413 0.961 . S
C406 H414 0.960 . S
C407 C405 1.381 1_655 S
C407 C408 1.394 . S
C407 H415 0.930 . S
C408 C407 1.394 . S
C408 C409 1.383 1_655 S
C408 H416 0.929 . S
C409 C408 1.383 1_455 S
C409 C410 1.377 . S
C410 H394 0.930 . S
C410 C409 1.377 . S
C410 C411 1.379 . S
C411 H395 0.931 . S
C411 C405 1.383 . S
C411 C410 1.379 . S
H412 C406 0.959 . S
H413 C406 0.961 . S
H414 C406 0.960 . S
H415 C407 0.930 . S
H416 C408 0.929 . S
H417 C425 0.929 1_455 S
H418 C427 0.930 . S
H419 C429 0.930 . S
H420 C432 0.929 . S
H421 C435 0.930 . S
H422 C437 0.960 1_565 S
H423 C437 0.960 . S
H424 C437 0.960 1_565 S
C425 H417 0.929 1_655 S
C425 C426 1.377 . S
C425 C427 1.384 . S
C426 C425 1.377 . S
C426 C432 1.390 . S
C427 H418 0.930 . S
C427 C425 1.384 . S
C427 C428 1.372 . S
C428 C427 1.372 . S
C428 C429 1.400 . S
C428 C433 1.490 . S
C429 H419 0.930 . S
C429 C428 1.400 . S
C429 C432 1.386 . S
H430 C446 0.930 . S
H431 C447 0.931 . S
C432 H420 0.929 . S
C432 C426 1.390 . S
C432 C429 1.386 . S
C433 C428 1.490 . S
C433 C435 1.395 . S
C433 C436 1.403 . S
H434 C440 0.930 . S
C435 H421 0.930 . S
C435 C433 1.395 . S
C435 C438 1.403 . S
C436 C433 1.403 . S
C436 C437 1.524 . S
C436 C440 1.400 . S
C437 H422 0.960 1_545 S
C437 H423 0.960 . S
C437 H424 0.960 1_545 S
C437 C436 1.524 . S
C438 C435 1.403 . S
C438 C439 1.392 . S
C438 C442 1.495 . S
C439 C438 1.392 . S
C439 C440 1.385 . S
C439 C441 1.478 . S
C440 H434 0.930 . S
C440 C436 1.400 . S
C440 C439 1.385 . S
C441 C439 1.478 . S
C441 C443 1.381 . S
C441 C447 1.383 . S
C442 C438 1.495 . S
C442 H448 0.959 . S
C442 H449 0.961 . S
C442 H450 0.960 . S
C443 C441 1.381 . S
C443 C444 1.394 . S
C443 H451 0.930 . S
C444 C443 1.394 . S
C444 C445 1.383 . S
C444 H452 0.929 . S
C445 C444 1.383 . S
C445 C446 1.377 . S
C446 H430 0.930 . S
C446 C445 1.377 . S
C446 C447 1.379 . S
C447 H431 0.931 . S
C447 C441 1.383 . S
C447 C446 1.379 . S
H448 C442 0.959 . S
H449 C442 0.961 . S
H450 C442 0.960 . S
H451 C443 0.930 . S
H452 C444 0.929 . S
H453 C461 0.929 . S
H454 C463 0.930 . S
H455 C465 0.930 . S
H456 C468 0.929 . S
H457 C471 0.930 . S
H458 C473 0.960 . S
H459 C473 0.960 . S
H460 C473 0.960 . S
C461 H453 0.929 . S
C461 C462 1.377 . S
C461 C463 1.384 . S
C462 C461 1.377 . S
C462 C468 1.390 . S
C463 H454 0.930 . S
C463 C461 1.384 . S
C463 C464 1.372 . S
C464 C463 1.372 . S
C464 C465 1.400 . S
C464 C469 1.490 . S
C465 H455 0.930 . S
C465 C464 1.400 . S
C465 C468 1.386 . S
H466 C482 0.930 . S
H467 C483 0.931 . S
C468 H456 0.929 . S
C468 C462 1.390 . S
C468 C465 1.386 . S
C469 C464 1.490 . S
C469 C471 1.395 . S
C469 C472 1.403 . S
H470 C476 0.930 . S
C471 H457 0.930 . S
C471 C469 1.395 . S
C471 C474 1.403 . S
C472 C469 1.403 . S
C472 C473 1.524 . S
C472 C476 1.400 . S
C473 H458 0.960 . S
C473 H459 0.960 . S
C473 H460 0.960 . S
C473 C472 1.524 . S
C474 C471 1.403 . S
C474 C475 1.392 . S
C474 C478 1.495 . S
C475 C474 1.392 . S
C475 C476 1.385 . S
C475 C477 1.478 . S
C476 H470 0.930 . S
C476 C472 1.400 . S
C476 C475 1.385 . S
C477 C475 1.478 . S
C477 C479 1.381 . S
C477 C483 1.383 . S
C478 C474 1.495 . S
C478 H484 0.959 . S
C478 H485 0.961 . S
C478 H486 0.960 . S
C479 C477 1.381 . S
C479 C480 1.394 . S
C479 H487 0.930 . S
C480 C479 1.394 . S
C480 C481 1.383 . S
C480 H488 0.929 . S
C481 C480 1.383 . S
C481 C482 1.377 . S
C482 H466 0.930 . S
C482 C481 1.377 . S
C482 C483 1.379 . S
C483 H467 0.931 . S
C483 C477 1.383 . S
C483 C482 1.379 . S
H484 C478 0.959 . S
H485 C478 0.961 . S
H486 C478 0.960 . S
H487 C479 0.930 . S
H488 C480 0.929 . S
H489 C497 0.929 1_655 S
H490 C499 0.930 1_655 S
H491 C501 0.930 . S
H492 C504 0.929 . S
H493 C507 0.930 1_655 S
H494 C509 0.960 . S
H495 C509 0.960 . S
H496 C509 0.960 . S
C497 H489 0.929 1_455 S
C497 C498 1.377 . S
C497 C499 1.384 . S
C498 C497 1.377 . S
C498 C504 1.390 . S
C499 H490 0.930 1_455 S
C499 C497 1.384 . S
C499 C500 1.372 . S
C500 C499 1.372 . S
C500 C501 1.400 . S
C500 C505 1.490 . S
C501 H491 0.930 . S
C501 C500 1.400 . S
C501 C504 1.386 . S
H502 C518 0.930 . S
H503 C519 0.931 . S
C504 H492 0.929 . S
C504 C498 1.390 . S
C504 C501 1.386 . S
C505 C500 1.490 . S
C505 C507 1.395 . S
C505 C508 1.403 . S
H506 C512 0.930 . S
C507 H493 0.930 1_455 S
C507 C505 1.395 . S
C507 C510 1.403 . S
C508 C505 1.403 . S
C508 C509 1.524 . S
C508 C512 1.400 . S
C509 H494 0.960 . S
C509 H495 0.960 . S
C509 H496 0.960 . S
C509 C508 1.524 . S
C510 C507 1.403 . S
C510 C511 1.392 . S
C510 C514 1.495 1_455 S
C511 C510 1.392 . S
C511 C512 1.385 . S
C511 C513 1.478 . S
C512 H506 0.930 . S
C512 C508 1.400 . S
C512 C511 1.385 . S
C513 C511 1.478 . S
C513 C515 1.381 1_455 S
C513 C519 1.383 . S
C514 C510 1.495 1_655 S
C514 H520 0.959 . S
C514 H521 0.961 . S
C514 H522 0.960 . S
C515 C513 1.381 1_655 S
C515 C516 1.394 . S
C515 H523 0.930 . S
C516 C515 1.394 . S
C516 C517 1.383 1_655 S
C516 H524 0.929 . S
C517 C516 1.383 1_455 S
C517 C518 1.377 . S
C518 H502 0.930 . S
C518 C517 1.377 . S
C518 C519 1.379 . S
C519 H503 0.931 . S
C519 C513 1.383 . S
C519 C518 1.379 . S
H520 C514 0.959 . S
H521 C514 0.961 . S
H522 C514 0.960 . S
H523 C515 0.930 . S
H524 C516 0.929 . S
H525 C533 0.929 . S
H526 C535 0.930 . S
H527 C537 0.930 . S
H528 C540 0.929 . S
H529 C543 0.930 . S
H530 C545 0.960 . S
H531 C545 0.960 . S
H532 C545 0.960 . S
C533 H525 0.929 . S
C533 C534 1.377 . S
C533 C535 1.384 . S
C534 C533 1.377 . S
C534 C540 1.390 . S
C535 H526 0.930 . S
C535 C533 1.384 . S
C535 C536 1.372 . S
C536 C535 1.372 . S
C536 C537 1.400 . S
C536 C541 1.490 . S
C537 H527 0.930 . S
C537 C536 1.400 . S
C537 C540 1.386 . S
H538 C554 0.930 . S
H539 C555 0.931 . S
C540 H528 0.929 . S
C540 C534 1.390 . S
C540 C537 1.386 . S
C541 C536 1.490 . S
C541 C543 1.395 . S
C541 C544 1.403 . S
H542 C548 0.930 . S
C543 H529 0.930 . S
C543 C541 1.395 . S
C543 C546 1.403 . S
C544 C541 1.403 . S
C544 C545 1.524 . S
C544 C548 1.400 . S
C545 H530 0.960 . S
C545 H531 0.960 . S
C545 H532 0.960 . S
C545 C544 1.524 . S
C546 C543 1.403 . S
C546 C547 1.392 . S
C546 C550 1.495 . S
C547 C546 1.392 . S
C547 C548 1.385 . S
C547 C549 1.478 . S
C548 H542 0.930 . S
C548 C544 1.400 . S
C548 C547 1.385 . S
C549 C547 1.478 . S
C549 C551 1.381 . S
C549 C555 1.383 . S
C550 C546 1.495 . S
C550 H556 0.959 . S
C550 H557 0.961 . S
C550 H558 0.960 . S
C551 C549 1.381 . S
C551 C552 1.394 . S
C551 H559 0.930 . S
C552 C551 1.394 . S
C552 C553 1.383 . S
C552 H560 0.929 . S
C553 C552 1.383 . S
C553 C554 1.377 . S
C554 H538 0.930 . S
C554 C553 1.377 . S
C554 C555 1.379 . S
C555 H539 0.931 . S
C555 C549 1.383 . S
C555 C554 1.379 . S
H556 C550 0.959 . S
H557 C550 0.961 . S
H558 C550 0.960 . S
H559 C551 0.930 . S
H560 C552 0.929 . S
H561 C569 0.929 . S
H562 C571 0.930 . S
H563 C573 0.930 . S
H564 C576 0.929 . S
H565 C579 0.930 . S
H566 C581 0.960 . S
H567 C581 0.960 . S
H568 C581 0.960 . S
C569 H561 0.929 . S
C569 C570 1.377 . S
C569 C571 1.384 . S
C570 C569 1.377 . S
C570 C576 1.390 . S
C571 H562 0.930 . S
C571 C569 1.384 . S
C571 C572 1.372 . S
C572 C571 1.372 . S
C572 C573 1.400 . S
C572 C577 1.490 . S
C573 H563 0.930 . S
C573 C572 1.400 . S
C573 C576 1.386 . S
H574 C590 0.930 . S
H575 C591 0.931 . S
C576 H564 0.929 . S
C576 C570 1.390 . S
C576 C573 1.386 . S
C577 C572 1.490 . S
C577 C579 1.395 . S
C577 C580 1.403 . S
H578 C584 0.930 . S
C579 H565 0.930 . S
C579 C577 1.395 . S
C579 C582 1.403 . S
C580 C577 1.403 . S
C580 C581 1.524 . S
C580 C584 1.400 . S
C581 H566 0.960 . S
C581 H567 0.960 . S
C581 H568 0.960 . S
C581 C580 1.524 . S
C582 C579 1.403 . S
C582 C583 1.392 . S
C582 C586 1.495 . S
C583 C582 1.392 . S
C583 C584 1.385 . S
C583 C585 1.478 . S
C584 H578 0.930 . S
C584 C580 1.400 . S
C584 C583 1.385 . S
C585 C583 1.478 . S
C585 C587 1.381 . S
C585 C591 1.383 . S
C586 C582 1.495 . S
C586 H592 0.959 . S
C586 H593 0.961 . S
C586 H594 0.960 . S
C587 C585 1.381 . S
C587 C588 1.394 . S
C587 H595 0.930 . S
C588 C587 1.394 . S
C588 C589 1.383 . S
C588 H596 0.929 . S
C589 C588 1.383 . S
C589 C590 1.377 . S
C590 H574 0.930 . S
C590 C589 1.377 . S
C590 C591 1.379 . S
C591 H575 0.931 . S
C591 C585 1.383 . S
C591 C590 1.379 . S
H592 C586 0.959 . S
H593 C586 0.961 . S
H594 C586 0.960 . S
H595 C587 0.930 . S
H596 C588 0.929 . S
H597 C605 0.929 1_565 S
H598 C607 0.930 1_565 S
H599 C609 0.930 . S
H600 C612 0.929 1_455 S
H601 C615 0.930 . S
H602 C617 0.960 . S
H603 C617 0.960 . S
H604 C617 0.960 . S
C605 H597 0.929 1_545 S
C605 C606 1.377 . S
C605 C607 1.384 . S
C606 C605 1.377 . S
C606 C612 1.390 . S
C607 H598 0.930 1_545 S
C607 C605 1.384 . S
C607 C608 1.372 . S
C608 C607 1.372 . S
C608 C609 1.400 . S
C608 C613 1.490 . S
C609 H599 0.930 . S
C609 C608 1.400 . S
C609 C612 1.386 . S
H610 C626 0.930 . S
H611 C627 0.931 . S
C612 H600 0.929 1_655 S
C612 C606 1.390 . S
C612 C609 1.386 . S
C613 C608 1.490 . S
C613 C615 1.395 . S
C613 C616 1.403 . S
H614 C620 0.930 . S
C615 H601 0.930 . S
C615 C613 1.395 . S
C615 C618 1.403 . S
C616 C613 1.403 . S
C616 C617 1.524 . S
C616 C620 1.400 . S
C617 H602 0.960 . S
C617 H603 0.960 . S
C617 H604 0.960 . S
C617 C616 1.524 . S
C618 C615 1.403 . S
C618 C619 1.392 . S
C618 C622 1.495 . S
C619 C618 1.392 . S
C619 C620 1.385 . S
C619 C621 1.478 . S
C620 H614 0.930 . S
C620 C616 1.400 . S
C620 C619 1.385 . S
C621 C619 1.478 . S
C621 C623 1.381 . S
C621 C627 1.383 . S
C622 C618 1.495 . S
C622 H628 0.959 . S
C622 H629 0.961 . S
C622 H630 0.960 . S
C623 C621 1.381 . S
C623 C624 1.394 . S
C623 H631 0.930 1_545 S
C624 C623 1.394 . S
C624 C625 1.383 . S
C624 H632 0.929 1_545 S
C625 C624 1.383 . S
C625 C626 1.377 . S
C626 H610 0.930 . S
C626 C625 1.377 . S
C626 C627 1.379 . S
C627 H611 0.931 . S
C627 C621 1.383 . S
C627 C626 1.379 . S
H628 C622 0.959 . S
H629 C622 0.961 . S
H630 C622 0.960 . S
H631 C623 0.930 1_565 S
H632 C624 0.929 1_565 S
H633 C641 0.929 . S
H634 C643 0.930 . S
H635 C645 0.930 . S
H636 C648 0.929 . S
H637 C651 0.930 . S
H638 C653 0.960 . S
H639 C653 0.960 . S
H640 C653 0.960 . S
C641 H633 0.929 . S
C641 C642 1.377 . S
C641 C643 1.384 . S
C642 C641 1.377 . S
C642 C648 1.390 . S
C643 H634 0.930 . S
C643 C641 1.384 . S
C643 C644 1.372 . S
C644 C643 1.372 . S
C644 C645 1.400 . S
C644 C649 1.490 . S
C645 H635 0.930 . S
C645 C644 1.400 . S
C645 C648 1.386 . S
H646 C662 0.930 . S
H647 C663 0.931 . S
C648 H636 0.929 . S
C648 C642 1.390 . S
C648 C645 1.386 . S
C649 C644 1.490 . S
C649 C651 1.395 . S
C649 C652 1.403 . S
H650 C656 0.930 . S
C651 H637 0.930 . S
C651 C649 1.395 . S
C651 C654 1.403 . S
C652 C649 1.403 . S
C652 C653 1.524 . S
C652 C656 1.400 . S
C653 H638 0.960 . S
C653 H639 0.960 . S
C653 H640 0.960 . S
C653 C652 1.524 . S
C654 C651 1.403 . S
C654 C655 1.392 . S
C654 C658 1.488 1_554 S
C655 C654 1.392 . S
C655 C656 1.385 . S
C655 C657 1.478 1_554 S
C656 H650 0.930 . S
C656 C652 1.400 . S
C656 C655 1.385 . S
C657 C655 1.478 1_556 S
C657 C659 1.381 . S
C657 C663 1.383 . S
C658 C654 1.488 1_556 S
C658 H664 0.954 1_556 S
C658 H665 0.979 . S
C658 H666 0.955 1_556 S
C659 C657 1.381 . S
C659 C660 1.394 . S
C659 H667 0.930 1_556 S
C660 C659 1.394 . S
C660 C661 1.383 . S
C660 H668 0.929 . S
C661 C660 1.383 . S
C661 C662 1.377 . S
C662 H646 0.930 . S
C662 C661 1.377 . S
C662 C663 1.379 . S
C663 H647 0.931 . S
C663 C657 1.383 . S
C663 C662 1.379 . S
H664 C658 0.954 1_554 S
H665 C658 0.979 . S
H666 C658 0.955 1_554 S
H667 C659 0.930 1_554 S
H668 C660 0.929 . S
H669 C677 0.929 . S
H670 C679 0.930 . S
H671 C681 0.930 . S
H672 C684 0.929 . S
H673 C687 0.930 . S
H674 C689 0.960 . S
H675 C689 0.960 . S
H676 C689 0.960 . S
C677 H669 0.929 . S
C677 C678 1.377 . S
C677 C679 1.384 . S
C678 C677 1.377 . S
C678 C684 1.390 1_565 S
C679 H670 0.930 . S
C679 C677 1.384 . S
C679 C680 1.372 . S
C680 C679 1.372 . S
C680 C681 1.400 . S
C680 C685 1.490 . S
C681 H671 0.930 . S
C681 C680 1.400 . S
C681 C684 1.386 1_565 S
H682 C698 0.930 . S
H683 C699 0.931 . S
C684 H672 0.929 . S
C684 C678 1.390 1_545 S
C684 C681 1.386 1_545 S
C685 C680 1.490 . S
C685 C687 1.394 1_455 S
C685 C688 1.403 . S
H686 C692 0.930 . S
C687 H673 0.930 . S
C687 C685 1.394 1_655 S
C687 C690 1.403 . S
C688 C685 1.403 . S
C688 C689 1.524 . S
C688 C692 1.400 . S
C689 H674 0.960 . S
C689 H675 0.960 . S
C689 H676 0.960 . S
C689 C688 1.524 . S
C690 C687 1.403 . S
C690 C691 1.392 1_655 S
C690 C694 1.495 . S
C691 C690 1.392 1_455 S
C691 C692 1.385 . S
C691 C693 1.478 . S
C692 H686 0.930 . S
C692 C688 1.400 . S
C692 C691 1.385 . S
C693 C691 1.478 . S
C693 C695 1.381 . S
C693 C699 1.383 . S
C694 C690 1.495 . S
C694 H700 0.959 . S
C694 H701 0.961 . S
C694 H702 0.960 . S
C695 C693 1.381 . S
C695 C696 1.394 . S
C695 H703 0.934 . S
C696 C695 1.394 . S
C696 C697 1.383 . S
C696 H704 0.925 . S
C697 C696 1.383 . S
C697 C698 1.377 . S
C698 H682 0.930 . S
C698 C697 1.377 . S
C698 C699 1.379 . S
C699 H683 0.931 . S
C699 C693 1.383 . S
C699 C698 1.379 . S
H700 C694 0.959 . S
H701 C694 0.961 . S
H702 C694 0.960 . S
H703 C695 0.934 . S
H704 C696 0.925 . S
H705 C713 0.929 . S
H706 C715 0.930 . S
H707 C717 0.930 . S
H708 C720 0.929 . S
H709 C723 0.930 . S
H710 C725 0.960 . S
H711 C725 0.960 . S
H712 C725 0.960 . S
C713 H705 0.929 . S
C713 C714 1.377 1_565 S
C713 C715 1.384 . S
C714 C713 1.377 1_545 S
C714 C720 1.390 . S
C715 H706 0.930 . S
C715 C713 1.384 . S
C715 C716 1.372 1_565 S
C716 C715 1.372 1_545 S
C716 C717 1.400 . S
C716 C721 1.490 . S
C717 H707 0.930 . S
C717 C716 1.400 . S
C717 C720 1.386 . S
H718 C734 0.930 . S
H719 C735 0.931 . S
C720 H708 0.929 . S
C720 C714 1.390 . S
C720 C717 1.386 . S
C721 C716 1.490 . S
C721 C723 1.395 1_545 S
C721 C724 1.403 . S
H722 C728 0.930 . S
C723 H709 0.930 . S
C723 C721 1.395 1_565 S
C723 C726 1.403 . S
C724 C721 1.403 . S
C724 C725 1.524 . S
C724 C728 1.400 . S
C725 H710 0.960 . S
C725 H711 0.960 . S
C725 H712 0.960 . S
C725 C724 1.524 . S
C726 C723 1.403 . S
C726 C727 1.392 1_565 S
C726 C730 1.495 . S
C727 C726 1.392 1_545 S
C727 C728 1.385 . S
C727 C729 1.478 . S
C728 H722 0.930 . S
C728 C724 1.400 . S
C728 C727 1.385 . S
C729 C727 1.478 . S
C729 C731 1.381 1_545 S
C729 C735 1.383 . S
C730 C726 1.495 . S
C730 H736 0.959 . S
C730 H737 0.961 . S
C730 H738 0.960 . S
C731 C729 1.381 1_565 S
C731 C732 1.394 1_565 S
C731 H739 0.930 . S
C732 C731 1.394 1_545 S
C732 C733 1.383 . S
C732 H740 0.929 1_545 S
C733 C732 1.383 . S
C733 C734 1.377 . S
C734 H718 0.930 . S
C734 C733 1.377 . S
C734 C735 1.379 . S
C735 H719 0.931 . S
C735 C729 1.383 . S
C735 C734 1.379 . S
H736 C730 0.959 . S
H737 C730 0.961 . S
H738 C730 0.960 . S
H739 C731 0.930 . S
H740 C732 0.929 1_565 S
H741 C749 0.929 . S
H742 C751 0.930 . S
H743 C753 0.930 . S
H744 C756 0.929 . S
H745 C759 0.930 . S
H746 C761 0.960 . S
H747 C761 0.960 . S
H748 C761 0.960 . S
C749 H741 0.929 . S
C749 C750 1.377 . S
C749 C751 1.384 . S
C750 C749 1.377 . S
C750 C756 1.390 . S
C751 H742 0.930 . S
C751 C749 1.384 . S
C751 C752 1.372 . S
C752 C751 1.372 . S
C752 C753 1.400 . S
C752 C757 1.490 . S
C753 H743 0.930 . S
C753 C752 1.400 . S
C753 C756 1.386 . S
H754 C770 0.930 . S
H755 C771 0.931 . S
C756 H744 0.929 . S
C756 C750 1.390 . S
C756 C753 1.386 . S
C757 C752 1.490 . S
C757 C759 1.395 . S
C757 C760 1.403 . S
H758 C764 0.930 1_556 S
C759 H745 0.930 . S
C759 C757 1.395 . S
C759 C762 1.403 . S
C760 C757 1.403 . S
C760 C761 1.524 . S
C760 C764 1.400 . S
C761 H746 0.960 . S
C761 H747 0.960 . S
C761 H748 0.960 . S
C761 C760 1.524 . S
C762 C759 1.403 . S
C762 C763 1.383 1_554 S
C762 C766 1.495 . S
C763 C762 1.383 1_556 S
C763 C764 1.382 1_556 S
C763 C765 1.491 . S
C764 H758 0.930 1_554 S
C764 C760 1.400 . S
C764 C763 1.382 1_554 S
C765 C763 1.491 . S
C765 C767 1.381 . S
C765 C771 1.383 . S
C766 C762 1.495 . S
C766 H772 0.959 . S
C766 H773 0.961 1_554 S
C766 H774 0.960 . S
C767 C765 1.381 . S
C767 C768 1.394 . S
C767 H775 0.930 1_556 S
C768 C767 1.394 . S
C768 C769 1.383 . S
C768 H776 0.929 . S
C769 C768 1.383 . S
C769 C770 1.377 . S
C770 H754 0.930 . S
C770 C769 1.377 . S
C770 C771 1.379 . S
C771 H755 0.931 . S
C771 C765 1.383 . S
C771 C770 1.379 . S
H772 C766 0.959 . S
H773 C766 0.961 1_556 S
H774 C766 0.960 . S
H775 C767 0.930 1_554 S
H776 C768 0.929 . S
H777 C785 0.929 . S
H778 C787 0.930 . S
H779 C789 0.930 . S
H780 C792 0.929 . S
H781 C795 0.930 . S
H782 C797 0.960 . S
H783 C797 0.960 . S
H784 C797 0.960 . S
C785 H777 0.929 . S
C785 C786 1.377 . S
C785 C787 1.384 . S
C786 C785 1.377 . S
C786 C792 1.390 . S
C787 H778 0.930 . S
C787 C785 1.384 . S
C787 C788 1.372 . S
C788 C787 1.372 . S
C788 C789 1.400 . S
C788 C793 1.490 . S
C789 H779 0.930 . S
C789 C788 1.400 . S
C789 C792 1.386 . S
H790 C806 0.930 1_655 S
H791 C807 0.931 1_655 S
C792 H780 0.929 . S
C792 C786 1.390 . S
C792 C789 1.386 . S
C793 C788 1.490 . S
C793 C795 1.395 . S
C793 C796 1.403 . S
H794 C800 0.930 . S
C795 H781 0.930 . S
C795 C793 1.395 . S
C795 C798 1.403 . S
C796 C793 1.403 . S
C796 C797 1.524 . S
C796 C800 1.400 . S
C797 H782 0.960 . S
C797 H783 0.960 . S
C797 H784 0.960 . S
C797 C796 1.524 . S
C798 C795 1.403 . S
C798 C799 1.392 . S
C798 C802 1.495 . S
C799 C798 1.392 . S
C799 C800 1.385 . S
C799 C801 1.478 . S
C800 H794 0.930 . S
C800 C796 1.400 . S
C800 C799 1.385 . S
C801 C799 1.478 . S
C801 C803 1.381 . S
C801 C807 1.383 . S
C802 C798 1.495 . S
C802 H808 0.959 . S
C802 H809 0.961 . S
C802 H810 0.960 . S
C803 C801 1.381 . S
C803 C804 1.394 . S
C803 H811 0.930 . S
C804 C803 1.394 . S
C804 C805 1.383 . S
C804 H812 0.929 . S
C805 C804 1.383 . S
C805 C806 1.377 . S
C806 H790 0.930 1_455 S
C806 C805 1.377 . S
C806 C807 1.379 . S
C807 H791 0.931 1_455 S
C807 C801 1.383 . S
C807 C806 1.379 . S
H808 C802 0.959 . S
H809 C802 0.961 . S
H810 C802 0.960 . S
H811 C803 0.930 . S
H812 C804 0.929 . S
C409 C94 1.079 . S
C390 C10 1.462 . S
C426 C21 1.489 1_655 S
C445 C208 1.125 . S
C462 C31 1.175 . S
C481 C268 0.965 . S
C498 C0 1.237 . S
C517 C68 1.064 . S
C553 C182 1.118 . S
C534 C18 1.247 . S
C570 C34 1.359 . S
C589 C278 0.801 . S
C625 C164 0.742 . S
C606 C36 1.355 . S
C642 C8 1.289 1_565 S
C661 C296 1.063 . S
C697 C40 0.945 . S
C678 C23 1.204 1_565 S
C733 C154 0.901 . S
C714 C26 1.103 . S
C769 C322 1.197 . S
C750 C5 1.415 . S
C786 C13 1.317 . S
C805 C50 0.880 . S
