# Generated by pormake.
# Topology eea, (3,6)-cn, num edge types: 1
# Building blocks:
#     Node 0, Type 0, BuildingBlock: ESEHIV_clean_linker_0, # of connection points: 3
#     Node 1, Type 0, BuildingBlock: ESEHIV_clean_linker_0, # of connection points: 3
#     Node 2, Type 0, BuildingBlock: ESEHIV_clean_linker_0, # of connection points: 3
#     Node 3, Type 0, BuildingBlock: ESEHIV_clean_linker_0, # of connection points: 3
#     Node 4, Type 0, BuildingBlock: ESEHIV_clean_linker_0, # of connection points: 3
#     Node 5, Type 0, BuildingBlock: ESEHIV_clean_linker_0, # of connection points: 3
#     Node 6, Type 0, BuildingBlock: ESEHIV_clean_linker_0, # of connection points: 3
#     Node 7, Type 0, BuildingBlock: ESEHIV_clean_linker_0, # of connection points: 3
#     Node 8, Type 0, BuildingBlock: ESEHIV_clean_linker_0, # of connection points: 3
#     Node 9, Type 0, BuildingBlock: ESEHIV_clean_linker_0, # of connection points: 3
#     Node 10, Type 0, BuildingBlock: ESEHIV_clean_linker_0, # of connection points: 3
#     Node 11, Type 0, BuildingBlock: ESEHIV_clean_linker_0, # of connection points: 3
#     Node 12, Type 0, BuildingBlock: ESEHIV_clean_linker_0, # of connection points: 3
#     Node 13, Type 0, BuildingBlock: ESEHIV_clean_linker_0, # of connection points: 3
#     Node 14, Type 0, BuildingBlock: ESEHIV_clean_linker_0, # of connection points: 3
#     Node 15, Type 0, BuildingBlock: ESEHIV_clean_linker_0, # of connection points: 3
#     Node 16, Type 0, BuildingBlock: ESEHIV_clean_linker_0, # of connection points: 3
#     Node 17, Type 0, BuildingBlock: ESEHIV_clean_linker_0, # of connection points: 3
#     Node 18, Type 1, BuildingBlock: NUHQIS_clean_sbu_0, # of connection points: 6
#     Node 19, Type 1, BuildingBlock: NUHQIS_clean_sbu_0, # of connection points: 6
#     Node 20, Type 1, BuildingBlock: NUHQIS_clean_sbu_0, # of connection points: 6
#     Node 21, Type 1, BuildingBlock: NUHQIS_clean_sbu_0, # of connection points: 6
#     Node 22, Type 1, BuildingBlock: NUHQIS_clean_sbu_0, # of connection points: 6
#     Node 23, Type 1, BuildingBlock: NUHQIS_clean_sbu_0, # of connection points: 6
#     Node 24, Type 1, BuildingBlock: NUHQIS_clean_sbu_0, # of connection points: 6
#     Node 25, Type 1, BuildingBlock: NUHQIS_clean_sbu_0, # of connection points: 6
#     Node 26, Type 1, BuildingBlock: NUHQIS_clean_sbu_0, # of connection points: 6
#     Edge 27, Type (0, 1), BuildingBlock: EZIPEK_clean_linker_0, # of connection points: 2
#     Edge 28, Type (0, 1), BuildingBlock: EZIPEK_clean_linker_0, # of connection points: 2
#     Edge 29, Type (0, 1), BuildingBlock: EZIPEK_clean_linker_0, # of connection points: 2
#     Edge 30, Type (0, 1), BuildingBlock: EZIPEK_clean_linker_0, # of connection points: 2
#     Edge 31, Type (0, 1), BuildingBlock: EZIPEK_clean_linker_0, # of connection points: 2
#     Edge 32, Type (0, 1), BuildingBlock: EZIPEK_clean_linker_0, # of connection points: 2
#     Edge 33, Type (0, 1), BuildingBlock: EZIPEK_clean_linker_0, # of connection points: 2
#     Edge 34, Type (0, 1), BuildingBlock: EZIPEK_clean_linker_0, # of connection points: 2
#     Edge 35, Type (0, 1), BuildingBlock: EZIPEK_clean_linker_0, # of connection points: 2
#     Edge 36, Type (0, 1), BuildingBlock: EZIPEK_clean_linker_0, # of connection points: 2
#     Edge 37, Type (0, 1), BuildingBlock: EZIPEK_clean_linker_0, # of connection points: 2
#     Edge 38, Type (0, 1), BuildingBlock: EZIPEK_clean_linker_0, # of connection points: 2
#     Edge 39, Type (0, 1), BuildingBlock: EZIPEK_clean_linker_0, # of connection points: 2
#     Edge 40, Type (0, 1), BuildingBlock: EZIPEK_clean_linker_0, # of connection points: 2
#     Edge 41, Type (0, 1), BuildingBlock: EZIPEK_clean_linker_0, # of connection points: 2
#     Edge 42, Type (0, 1), BuildingBlock: EZIPEK_clean_linker_0, # of connection points: 2
#     Edge 43, Type (0, 1), BuildingBlock: EZIPEK_clean_linker_0, # of connection points: 2
#     Edge 44, Type (0, 1), BuildingBlock: EZIPEK_clean_linker_0, # of connection points: 2
#     Edge 45, Type (0, 1), BuildingBlock: EZIPEK_clean_linker_0, # of connection points: 2
#     Edge 46, Type (0, 1), BuildingBlock: EZIPEK_clean_linker_0, # of connection points: 2
#     Edge 47, Type (0, 1), BuildingBlock: EZIPEK_clean_linker_0, # of connection points: 2
#     Edge 48, Type (0, 1), BuildingBlock: EZIPEK_clean_linker_0, # of connection points: 2
#     Edge 49, Type (0, 1), BuildingBlock: EZIPEK_clean_linker_0, # of connection points: 2
#     Edge 50, Type (0, 1), BuildingBlock: EZIPEK_clean_linker_0, # of connection points: 2
#     Edge 51, Type (0, 1), BuildingBlock: EZIPEK_clean_linker_0, # of connection points: 2
#     Edge 52, Type (0, 1), BuildingBlock: EZIPEK_clean_linker_0, # of connection points: 2
#     Edge 53, Type (0, 1), BuildingBlock: EZIPEK_clean_linker_0, # of connection points: 2
#     Edge 54, Type (0, 1), BuildingBlock: EZIPEK_clean_linker_0, # of connection points: 2
#     Edge 55, Type (0, 1), BuildingBlock: EZIPEK_clean_linker_0, # of connection points: 2
#     Edge 56, Type (0, 1), BuildingBlock: EZIPEK_clean_linker_0, # of connection points: 2
#     Edge 57, Type (0, 1), BuildingBlock: EZIPEK_clean_linker_0, # of connection points: 2
#     Edge 58, Type (0, 1), BuildingBlock: EZIPEK_clean_linker_0, # of connection points: 2
#     Edge 59, Type (0, 1), BuildingBlock: EZIPEK_clean_linker_0, # of connection points: 2
#     Edge 60, Type (0, 1), BuildingBlock: EZIPEK_clean_linker_0, # of connection points: 2
#     Edge 61, Type (0, 1), BuildingBlock: EZIPEK_clean_linker_0, # of connection points: 2
#     Edge 62, Type (0, 1), BuildingBlock: EZIPEK_clean_linker_0, # of connection points: 2
#     Edge 63, Type (0, 1), BuildingBlock: EZIPEK_clean_linker_0, # of connection points: 2
#     Edge 64, Type (0, 1), BuildingBlock: EZIPEK_clean_linker_0, # of connection points: 2
#     Edge 65, Type (0, 1), BuildingBlock: EZIPEK_clean_linker_0, # of connection points: 2
#     Edge 66, Type (0, 1), BuildingBlock: EZIPEK_clean_linker_0, # of connection points: 2
#     Edge 67, Type (0, 1), BuildingBlock: EZIPEK_clean_linker_0, # of connection points: 2
#     Edge 68, Type (0, 1), BuildingBlock: EZIPEK_clean_linker_0, # of connection points: 2
#     Edge 69, Type (0, 1), BuildingBlock: EZIPEK_clean_linker_0, # of connection points: 2
#     Edge 70, Type (0, 1), BuildingBlock: EZIPEK_clean_linker_0, # of connection points: 2
#     Edge 71, Type (0, 1), BuildingBlock: EZIPEK_clean_linker_0, # of connection points: 2
#     Edge 72, Type (0, 1), BuildingBlock: EZIPEK_clean_linker_0, # of connection points: 2
#     Edge 73, Type (0, 1), BuildingBlock: EZIPEK_clean_linker_0, # of connection points: 2
#     Edge 74, Type (0, 1), BuildingBlock: EZIPEK_clean_linker_0, # of connection points: 2
#     Edge 75, Type (0, 1), BuildingBlock: EZIPEK_clean_linker_0, # of connection points: 2
#     Edge 76, Type (0, 1), BuildingBlock: EZIPEK_clean_linker_0, # of connection points: 2
#     Edge 77, Type (0, 1), BuildingBlock: EZIPEK_clean_linker_0, # of connection points: 2
#     Edge 78, Type (0, 1), BuildingBlock: EZIPEK_clean_linker_0, # of connection points: 2
#     Edge 79, Type (0, 1), BuildingBlock: EZIPEK_clean_linker_0, # of connection points: 2
#     Edge 80, Type (0, 1), BuildingBlock: EZIPEK_clean_linker_0, # of connection points: 2
# Relax obj value: 0.034
# Max RMSD: 0.131
# Mean RMSD: 0.112
data_MOF--net-eea--node1-NUHQIS_clean_sbu_0--node2-ESEHIV_clean_linker_0--edge1-EZIPEK_clean_linker_0
_symmetry_space_group_name_H-M    P1
_symmetry_Int_Tables_number       1
_symmetry_cell_setting            triclinic
loop_
_symmetry_equiv_pos_as_xyz
'x, y, z'
_cell_length_a     34.416976
_cell_length_b     33.987145
_cell_length_c     55.324425
_cell_angle_alpha  93.056766
_cell_angle_beta   93.053788
_cell_angle_gamma 119.69648
loop_
_atom_site_label
_atom_site_type_symbol
_atom_site_fract_x
_atom_site_fract_y
_atom_site_fract_z
_atom_type_partial_charge
H0 H 0.27623 0.20814 0.45484 0.0
H1 H 0.29121 0.09247 0.44644 0.0
H2 H 0.2486 0.13824 0.38475 0.0
C3 C 0.27803 0.18408 0.44223 0.0
C4 C 0.27036 0.18317 0.41692 0.0
C5 C 0.2868 0.15235 0.45246 0.0
C6 C 0.28576 0.11725 0.43766 0.0
C7 C 0.27559 0.11298 0.41223 0.0
C8 C 0.26423 0.1443 0.40282 0.0
H9 H 0.81536 0.08097 0.45267 0.0
H10 H 0.94171 0.20487 0.452 0.0
H11 H 0.89274 0.10254 0.39125 0.0
C12 C 0.84494 0.10233 0.4436 0.0
C13 C 0.8504 0.08692 0.42072 0.0
C14 C 0.87772 0.14477 0.45501 0.0
C15 C 0.91622 0.17208 0.44324 0.0
C16 C 0.92173 0.15702 0.42012 0.0
C17 C 0.88855 0.11448 0.40896 0.0
H18 H 0.82023 0.74289 0.45453 0.0
H19 H 0.95068 0.75525 0.45926 0.0
H20 H 0.90858 0.80084 0.39828 0.0
C21 C 0.8505 0.7509 0.44598 0.0
C22 C 0.85555 0.76439 0.42196 0.0
C23 C 0.88416 0.74694 0.45951 0.0
C24 C 0.92502 0.75947 0.44949 0.0
C25 C 0.93298 0.77827 0.42705 0.0
C26 C 0.89927 0.78265 0.41425 0.0
H27 H 0.0543 0.25053 0.59425 0.0
H28 H 0.18041 0.25263 0.59306 0.0
H29 H 0.099 0.19897 0.65242 0.0
C30 C 0.07914 0.24338 0.60251 0.0
C31 C 0.07234 0.224 0.62486 0.0
C32 C 0.11813 0.25378 0.59089 0.0
C33 C 0.15024 0.24457 0.60185 0.0
C34 C 0.14332 0.22441 0.62391 0.0
C35 C 0.10433 0.21425 0.6353 0.0
H36 H 0.7049 0.90817 0.59875 0.0
H37 H 0.70503 0.782 0.60188 0.0
H38 H 0.76005 0.88237 0.66349 0.0
C39 C 0.71148 0.88534 0.60891 0.0
C40 C 0.73273 0.89956 0.63256 0.0
C41 C 0.70118 0.84284 0.59784 0.0
C42 C 0.71163 0.81428 0.61067 0.0
C43 C 0.73281 0.82851 0.63439 0.0
C44 C 0.7425 0.87078 0.64543 0.0
H45 H 0.04182 0.78958 0.59431 0.0
H46 H 0.17533 0.90251 0.59552 0.0
H47 H 0.09841 0.88373 0.65729 0.0
C48 C 0.07018 0.81956 0.60393 0.0
C49 C 0.06727 0.83364 0.62766 0.0
C50 C 0.1094 0.84484 0.59245 0.0
C51 C 0.14658 0.88273 0.60537 0.0
C52 C 0.14605 0.89489 0.63025 0.0
C53 C 0.10403 0.87216 0.64002 0.0
H54 H 0.94968 0.55152 0.78469 0.0
H55 H 0.9556 0.42832 0.78758 0.0
H56 H 0.90436 0.4549 0.72167 0.0
C57 C 0.94572 0.52049 0.77565 0.0
C58 C 0.92719 0.50707 0.7514 0.0
C59 C 0.95675 0.49243 0.7886 0.0
C60 C 0.94903 0.45101 0.77727 0.0
C61 C 0.93024 0.43749 0.75316 0.0
C62 C 0.92032 0.46606 0.74009 0.0
H63 H 0.49089 0.41532 0.79169 0.0
H64 H 0.61516 0.54069 0.78878 0.0
H65 H 0.56137 0.43936 0.72744 0.0
C66 C 0.51936 0.43709 0.78198 0.0
C67 C 0.52265 0.42246 0.75843 0.0
C68 C 0.55234 0.47991 0.79296 0.0
C69 C 0.58946 0.50771 0.78033 0.0
C70 C 0.59296 0.4931 0.75663 0.0
C71 C 0.55903 0.45073 0.74572 0.0
H72 H 0.48981 0.07802 0.79084 0.0
H73 H 0.61501 0.0786 0.78819 0.0
H74 H 0.56864 0.12981 0.73048 0.0
C75 C 0.51964 0.08577 0.78177 0.0
C76 C 0.52552 0.10478 0.75946 0.0
C77 C 0.55163 0.07601 0.79227 0.0
C78 C 0.59013 0.08601 0.78025 0.0
C79 C 0.59647 0.10571 0.75798 0.0
C80 C 0.56393 0.11475 0.74764 0.0
H81 H 0.71932 0.58643 0.93199 0.0
H82 H 0.8421 0.58341 0.92602 0.0
H83 H 0.76536 0.53049 0.98717 0.0
C84 C 0.7439 0.57794 0.93919 0.0
C85 C 0.73769 0.5572 0.96113 0.0
C86 C 0.78122 0.58708 0.92629 0.0
C87 C 0.81308 0.57613 0.93573 0.0
C88 C 0.80775 0.55628 0.95791 0.0
C89 C 0.76982 0.54646 0.9703 0.0
H90 H 0.36019 0.23727 0.9325 0.0
H91 H 0.36086 0.11037 0.93358 0.0
H92 H 0.43445 0.21708 0.9898 0.0
C93 C 0.3678 0.21385 0.94117 0.0
C94 C 0.39756 0.23097 0.96228 0.0
C95 C 0.34937 0.16807 0.93135 0.0
C96 C 0.36774 0.14287 0.94175 0.0
C97 C 0.39751 0.1602 0.96293 0.0
C98 C 0.41157 0.20381 0.97337 0.0
H99 H 0.71654 0.11811 0.92681 0.0
H100 H 0.84478 0.23967 0.93034 0.0
H101 H 0.76094 0.21373 0.98925 0.0
C102 C 0.74236 0.14948 0.93674 0.0
C103 C 0.73563 0.16267 0.95993 0.0
C104 C 0.78179 0.17785 0.92603 0.0
C105 C 0.81565 0.21764 0.93944 0.0
C106 C 0.81215 0.22884 0.96393 0.0
C107 C 0.76947 0.20315 0.97266 0.0
H108 H 0.59896 0.88065 0.11443 0.0
H109 H 0.61419 0.76418 0.12492 0.0
H110 H 0.5462 0.76955 0.05862 0.0
C111 C 0.59409 0.84781 0.10773 0.0
C112 C 0.57158 0.82791 0.08473 0.0
C113 C 0.60907 0.82468 0.12239 0.0
C114 C 0.60264 0.78216 0.11365 0.0
C115 C 0.57988 0.7622 0.09061 0.0
C116 C 0.56426 0.78512 0.0763 0.0
H117 H 0.15103 0.75749 0.12115 0.0
H118 H 0.26892 0.88479 0.11405 0.0
H119 H 0.22167 0.77317 0.05832 0.0
C120 C 0.17835 0.7789 0.11064 0.0
C121 C 0.18237 0.76164 0.08803 0.0
C122 C 0.21009 0.82309 0.1201 0.0
C123 C 0.24416 0.85139 0.10583 0.0
C124 C 0.24628 0.83634 0.08168 0.0
C125 C 0.21765 0.78942 0.07448 0.0
H126 H 0.14954 0.40589 0.12536 0.0
H127 H 0.27592 0.40832 0.12458 0.0
H128 H 0.23142 0.45995 0.0663 0.0
C129 C 0.17977 0.41391 0.11665 0.0
C130 C 0.18676 0.43386 0.09456 0.0
C131 C 0.21186 0.40478 0.12772 0.0
C132 C 0.25105 0.41533 0.11622 0.0
C133 C 0.25817 0.43512 0.09396 0.0
C134 C 0.22602 0.44455 0.08337 0.0
H135 H 0.38995 0.92083 0.2613 0.0
H136 H 0.51112 0.91334 0.25851 0.0
H137 H 0.43163 0.86589 0.31907 0.0
C138 C 0.41354 0.91168 0.26923 0.0
C139 C 0.40621 0.89226 0.29161 0.0
C140 C 0.45133 0.91924 0.25707 0.0
C141 C 0.48183 0.90743 0.26764 0.0
C142 C 0.47486 0.8883 0.28999 0.0
C143 C 0.43702 0.88068 0.30182 0.0
H144 H 0.03635 0.58434 0.27305 0.0
H145 H 0.03177 0.45536 0.26794 0.0
H146 H 0.09558 0.54836 0.33205 0.0
C147 C 0.04251 0.55948 0.28132 0.0
C148 C 0.0659 0.57036 0.30446 0.0
C149 C 0.03004 0.51796 0.26809 0.0
C150 C 0.03987 0.48679 0.27842 0.0
C151 C 0.06313 0.49761 0.30156 0.0
C152 C 0.07585 0.53921 0.31462 0.0
H153 H 0.37037 0.45436 0.25933 0.0
H154 H 0.50445 0.5654 0.25896 0.0
H155 H 0.43176 0.54687 0.32256 0.0
C156 C 0.3996 0.48377 0.26876 0.0
C157 C 0.39843 0.49766 0.29281 0.0
C158 C 0.43839 0.50824 0.25679 0.0
C159 C 0.4764 0.54583 0.26931 0.0
C160 C 0.47732 0.55851 0.29426 0.0
C161 C 0.43617 0.53562 0.3049 0.0
Tb162 Tb 0.47399 0.96915 0.99421 0.0
Eu163 Eu 0.50874 0.02399 0.05018 0.0
C164 C 0.51118 0.93353 0.03477 0.0
C165 C 0.40931 0.9414 0.03648 0.0
C166 C 0.47039 0.95611 0.92738 0.0
C167 C 0.5013 0.95425 0.88898 0.0
C168 C 0.4851 0.93496 0.9106 0.0
C169 C 0.47265 0.99728 0.92221 0.0
C170 C 0.48848 0.01634 0.9005 0.0
C171 C 0.50273 0.99489 0.88364 0.0
C172 C 0.45441 0.9358 0.95046 0.0
O173 O 0.47895 0.03474 0.99185 0.0
O174 O 0.46902 0.05133 0.03104 0.0
O175 O 0.56077 0.06911 0.02564 0.0
O176 O 0.54655 0.01246 0.99579 0.0
C177 C 0.46671 0.05555 1.00767 0.0
O178 O 0.4964 0.05523 0.0823 0.0
O179 O 0.55545 0.04812 0.08308 0.0
O180 O 0.5338 0.97486 0.04558 0.0
O181 O 0.47948 0.92173 1.01703 0.0
O182 O 0.41338 0.94733 1.0132 0.0
O183 O 0.4443 0.95874 0.05259 0.0
C184 C 0.57159 0.0541 1.00606 0.0
O185 O 0.48405 0.9336 0.96511 0.0
O186 O 0.43052 0.94918 0.96221 0.0
C187 C 0.51816 0.03703 0.1195 0.0
C188 C 0.49376 -0.00147 0.16432 0.0
C189 C 0.49231 0.03804 0.15964 0.0
C190 C 0.50448 0.05712 0.13749 0.0
C191 C 0.51917 0.99716 0.12408 0.0
C192 C 0.50728 0.97824 0.14632 0.0
C193 C 0.5295 0.05711 0.09587 0.0
H194 H 0.5122 0.93721 0.87623 0.0
H195 H 0.4841 0.90349 0.91426 0.0
H196 H 0.46224 0.01484 0.93492 0.0
H197 H 0.48942 0.04776 0.89677 0.0
H198 H 0.4819 0.05421 0.17322 0.0
H199 H 0.50301 0.08757 0.13435 0.0
H200 H 0.52899 0.9805 0.11047 0.0
H201 H 0.50859 0.94773 0.1495 0.0
Tb202 Tb 0.02343 0.50595 1.00282 0.0
Eu203 Eu 0.96729 0.48132 0.05138 0.0
C204 C 0.05242 0.579 0.04738 0.0
C205 C 0.05702 0.47553 0.04893 0.0
C206 C 0.04921 0.52477 0.93906 0.0
C207 C 0.05306 0.50947 0.89618 0.0
C208 C 0.06773 0.5116 0.9205 0.0
C209 C 0.01617 0.53636 0.93303 0.0
C210 C 0.00185 0.53469 0.90871 0.0
C211 C 0.01985 0.52073 0.89018 0.0
C212 C 0.0634 0.52469 0.96456 0.0
O213 O 0.9609 0.44209 0.99262 0.0
O214 O 0.9517 0.41633 0.03028 0.0
O215 O 0.92174 0.48449 1.02164 0.0
O216 O 0.9766 0.53141 0.99828 0.0
C217 C 0.94334 0.40865 1.00665 0.0
O218 O 0.93138 0.43282 0.07739 0.0
O219 O 0.93476 0.49823 0.07979 0.0
O220 O 0.01211 0.55721 0.05476 0.0
O221 O 0.06587 0.56078 0.03066 0.0
O222 O 0.05155 0.47302 0.02504 0.0
O223 O 0.03369 0.48668 0.06296 0.0
C224 C 0.93525 0.51249 1.00452 0.0
O225 O 0.063 0.5549 0.97992 0.0
O226 O 0.04623 0.48491 0.97296 0.0
C227 C 0.93646 0.46705 0.11656 0.0
C228 C 0.96242 0.48196 0.1667 0.0
C229 C 0.92735 0.4884 0.15757 0.0
C230 C 0.91431 0.48077 0.13262 0.0
C231 C 0.97154 0.46057 0.12576 0.0
C232 C 0.98419 0.46768 0.15068 0.0
C233 C 0.92374 0.46112 0.09027 0.0
H234 H 0.06713 0.49849 0.88204 0.0
H235 H 0.09306 0.50235 0.92484 0.0
H236 H 0.00109 0.54621 0.94709 0.0
H237 H 0.97608 0.54332 0.90434 0.0
H238 H 0.91048 0.49975 0.16972 0.0
H239 H 0.88737 0.48617 0.12582 0.0
H240 H 0.98949 0.4505 0.11369 0.0
H241 H 0.01154 0.46289 0.15746 0.0
Tb242 Tb 0.5148 0.48662 0.05296 0.0
Eu243 Eu 0.48309 0.51284 1.00086 0.0
C244 C 0.46766 0.41256 1.008 0.0
C245 C 0.57799 0.51696 1.01025 0.0
C246 C 0.52024 0.4737 0.11871 0.0
C247 C 0.48259 0.43609 0.15353 0.0
C248 C 0.50289 0.43599 0.13228 0.0
C249 C 0.52032 0.51293 0.12789 0.0
C250 C 0.4994 0.51279 0.14892 0.0
C251 C 0.47632 0.47292 0.16111 0.0
C252 C 0.535 0.47021 0.09444 0.0
O253 O 0.54694 0.5602 0.05411 0.0
O254 O 0.49567 0.56795 0.02961 0.0
O255 O 0.42068 0.48321 1.0209 0.0
O256 O 0.45287 0.48755 0.05946 0.0
C257 C 0.52795 0.58349 0.04729 0.0
O258 O 0.49913 0.56258 0.9741 0.0
O259 O 0.43934 0.49619 0.96741 0.0
O260 O 0.47563 0.44382 0.99303 0.0
O261 O 0.47609 0.42164 0.03163 0.0
O262 O 0.56316 0.48955 0.02773 0.0
O263 O 0.55703 0.53751 1.00202 0.0
C264 C 0.41823 0.47984 0.04443 0.0
O265 O 0.50367 0.43973 0.07873 0.0
O266 O 0.55958 0.50789 0.08465 0.0
C267 C 0.48128 0.52792 0.93389 0.0
C268 C 0.51083 0.51918 0.88832 0.0
C269 C 0.51223 0.55978 0.89645 0.0
C270 C 0.49741 0.56403 0.91903 0.0
C271 C 0.48071 0.48761 0.9259 0.0
C272 C 0.49516 0.48323 0.90327 0.0
C273 C 0.46719 0.5334 0.95806 0.0
H274 H 0.47272 0.40694 0.16361 0.0
H275 H 0.5045 0.406 0.12625 0.0
H276 H 0.53611 0.54366 0.11871 0.0
H277 H 0.50164 0.54446 0.15544 0.0
H278 H 0.5243 0.58791 0.88517 0.0
H279 H 0.49865 0.59558 0.92493 0.0
H280 H 0.46921 0.45947 0.93715 0.0
H281 H 0.49396 0.45172 0.89735 0.0
Tb282 Tb 0.14553 0.303 0.33076 0.0
Eu283 Eu 0.17387 0.36198 0.38558 0.0
C284 C 0.19601 0.28351 0.37261 0.0
C285 C 0.08241 0.26941 0.37325 0.0
C286 C 0.14344 0.2847 0.26439 0.0
C287 C 0.12596 0.287 0.22137 0.0
C288 C 0.11316 0.26756 0.24339 0.0
C289 C 0.18696 0.32155 0.2629 0.0
C290 C 0.19986 0.34072 0.24085 0.0
C291 C 0.16936 0.32387 0.21992 0.0
C292 C 0.12874 0.2655 0.28789 0.0
O293 O 0.14368 0.36434 0.3249 0.0
O294 O 0.13249 0.38408 0.36326 0.0
O295 O 0.22832 0.40864 0.36333 0.0
O296 O 0.21578 0.35585 0.33125 0.0
C297 C 0.13083 0.38623 0.33962 0.0
O298 O 0.15484 0.39069 0.41586 0.0
O299 O 0.21755 0.39046 0.41962 0.0
O300 O 0.21252 0.32558 0.38173 0.0
O301 O 0.16218 0.26452 0.35562 0.0
O302 O 0.08432 0.27508 0.34988 0.0
O303 O 0.11764 0.29169 0.3889 0.0
C304 C 0.24052 0.39609 0.34352 0.0
O305 O 0.15979 0.26781 0.30346 0.0
O306 O 0.10218 0.27671 0.29844 0.0
C307 C 0.17624 0.37528 0.45419 0.0
C308 C 0.15529 0.33507 0.49866 0.0
C309 C 0.19757 0.37324 0.49663 0.0
C310 C 0.20789 0.39321 0.47461 0.0
C311 C 0.13399 0.33685 0.45619 0.0
C312 C 0.12355 0.31713 0.47826 0.0
C313 C 0.18804 0.39604 0.43084 0.0
H314 H 0.10187 0.27352 0.20548 0.0
H315 H 0.07939 0.23947 0.2441 0.0
H316 H 0.21092 0.33587 0.27884 0.0
H317 H 0.23345 0.36917 0.24018 0.0
H318 H 0.22258 0.38752 0.51211 0.0
H319 H 0.24074 0.42256 0.47348 0.0
H320 H 0.10905 0.3219 0.44069 0.0
H321 H 0.09079 0.28765 0.4794 0.0
Tb322 Tb 0.68866 0.83492 0.33168 0.0
Eu323 Eu 0.6354 0.80934 0.38105 0.0
C324 C 0.72029 0.90694 0.37704 0.0
C325 C 0.72315 0.80207 0.37632 0.0
C326 C 0.71151 0.85664 0.26804 0.0
C327 C 0.72694 0.87483 0.22663 0.0
C328 C 0.74122 0.87062 0.25 0.0
C329 C 0.66677 0.84459 0.2622 0.0
C330 C 0.65249 0.84882 0.23888 0.0
C331 C 0.68304 0.86755 0.22092 0.0
C332 C 0.72716 0.85487 0.29292 0.0
O333 O 0.62543 0.7718 0.32166 0.0
O334 O 0.61989 0.74526 0.35894 0.0
O335 O 0.58837 0.81335 0.35264 0.0
O336 O 0.64165 0.86032 0.32854 0.0
C337 C 0.60957 0.73791 0.33543 0.0
O338 O 0.60538 0.76112 0.40819 0.0
O339 O 0.5998 0.82191 0.40916 0.0
O340 O 0.68057 0.88513 0.38513 0.0
O341 O 0.7327 0.88874 0.35972 0.0
O342 O 0.71507 0.79886 0.35252 0.0
O343 O 0.70274 0.81585 0.39104 0.0
C344 C 0.60087 0.84157 0.33561 0.0
O345 O 0.72773 0.88464 0.30897 0.0
O346 O 0.70969 0.81465 0.30079 0.0
C347 C 0.60698 0.79469 0.44662 0.0
C348 C 0.63464 0.80699 0.49643 0.0
C349 C 0.59808 0.76554 0.48627 0.0
C350 C 0.58422 0.75952 0.46151 0.0
C351 C 0.64367 0.83615 0.45679 0.0
C352 C 0.65721 0.84234 0.48159 0.0
C353 C 0.59357 0.78672 0.4204 0.0
H354 H 0.75074 0.88275 0.21324 0.0
H355 H 0.7755 0.87808 0.25393 0.0
H356 H 0.64272 0.83168 0.27569 0.0
H357 H 0.61699 0.83612 0.23524 0.0
H358 H 0.58053 0.73789 0.4975 0.0
H359 H 0.55614 0.72719 0.45388 0.0
H360 H 0.66213 0.86352 0.44554 0.0
H361 H 0.68566 0.87444 0.48918 0.0
Tb362 Tb 0.18909 0.83463 0.38617 0.0
Eu363 Eu 0.15301 0.85109 0.33257 0.0
C364 C 0.13794 0.75509 0.34532 0.0
C365 C 0.2492 0.85649 0.34169 0.0
C366 C 0.19084 0.82256 0.45194 0.0
C367 C 0.18322 0.80445 0.49387 0.0
C368 C 0.20321 0.80706 0.47218 0.0
C369 C 0.16021 0.83803 0.45414 0.0
C370 C 0.14026 0.8355 0.47586 0.0
C371 C 0.14818 0.8148 0.4957 0.0
C372 C 0.20907 0.82158 0.42852 0.0
O373 O 0.19362 0.90094 0.38976 0.0
O374 O 0.20638 0.9182 0.35061 0.0
O375 O 0.10606 0.85306 0.3593 0.0
O376 O 0.11796 0.81161 0.38743 0.0
C377 C 0.20969 0.9308 0.37369 0.0
O378 O 0.15802 0.89609 0.30445 0.0
O379 O 0.10942 0.82438 0.29868 0.0
O380 O 0.1185 0.77628 0.33612 0.0
O381 O 0.1732 0.77563 0.36131 0.0
O382 O 0.24838 0.86073 0.3655 0.0
O383 O 0.21385 0.84461 0.32639 0.0
C384 C 0.09467 0.82929 0.37836 0.0
O385 O 0.18123 0.7892 0.41228 0.0
O386 O 0.23053 0.86027 0.41909 0.0
C387 C 0.1457 0.86081 0.26442 0.0
C388 C 0.17404 0.85764 0.21767 0.0
C389 C 0.17194 0.89581 0.22689 0.0
C390 C 0.15765 0.89725 0.25001 0.0
C391 C 0.149 0.82314 0.2554 0.0
C392 C 0.16283 0.82153 0.2322 0.0
C393 C 0.1301 0.86259 0.28873 0.0
H394 H 0.19629 0.79475 0.50918 0.0
H395 H 0.22839 0.79685 0.47123 0.0
H396 H 0.15171 0.85218 0.43901 0.0
H397 H 0.11953 0.85095 0.47669 0.0
H398 H 0.18056 0.92407 0.21598 0.0
H399 H 0.15567 0.92674 0.2566 0.0
H400 H 0.14057 0.79471 0.26615 0.0
H401 H 0.16436 0.79184 0.22547 0.0
Tb402 Tb 0.81429 0.64007 0.66482 0.0
Eu403 Eu 0.84673 0.69555 0.72136 0.0
C404 C 0.85784 0.61034 0.7054 0.0
C405 C 0.74937 0.60619 0.70719 0.0
C406 C 0.81311 0.63058 0.59759 0.0
C407 C 0.84086 0.63022 0.5579 0.0
C408 C 0.82709 0.61047 0.57977 0.0
C409 C 0.81388 0.67142 0.59319 0.0
C410 C 0.82722 0.69093 0.5712 0.0
C411 C 0.84061 0.6704 0.55326 0.0
C412 C 0.79842 0.60895 0.62062 0.0
O413 O 0.81162 0.70209 0.66302 0.0
O414 O 0.80324 0.71885 0.70264 0.0
O415 O 0.89652 0.74348 0.69704 0.0
O416 O 0.88593 0.68827 0.66709 0.0
C417 C 0.79902 0.72189 0.67925 0.0
O418 O 0.83658 0.72964 0.75303 0.0
O419 O 0.89098 0.71528 0.75507 0.0
O420 O 0.87803 0.65196 0.71578 0.0
O421 O 0.82505 0.59571 0.68796 0.0
O422 O 0.75291 0.6088 0.68362 0.0
O423 O 0.78304 0.63016 0.72374 0.0
C424 C 0.90834 0.73014 0.67734 0.0
O425 O 0.82951 0.6095 0.6354 0.0
O426 O 0.77174 0.61843 0.63235 0.0
C427 C 0.85235 0.70738 0.79034 0.0
C428 C 0.81814 0.66925 0.83467 0.0
C429 C 0.85269 0.71521 0.83434 0.0
C430 C 0.86839 0.73418 0.81253 0.0
C431 C 0.82259 0.66065 0.79051 0.0
C432 C 0.80686 0.64174 0.81233 0.0
C433 C 0.86711 0.72808 0.76724 0.0
H434 H 0.85111 0.61379 0.54441 0.0
H435 H 0.82717 0.57926 0.58274 0.0
H436 H 0.80391 0.68817 0.60666 0.0
H437 H 0.8268 0.72193 0.56811 0.0
H438 H 0.86892 0.73725 0.85081 0.0
H439 H 0.89337 0.76991 0.81307 0.0
H440 H 0.81165 0.6386 0.77373 0.0
H441 H 0.78656 0.60521 0.81124 0.0
Tb442 Tb 0.35614 0.16939 0.66758 0.0
Eu443 Eu 0.30075 0.14683 0.71715 0.0
C444 C 0.39139 0.24431 0.71252 0.0
C445 C 0.39153 0.14247 0.716 0.0
C446 C 0.37519 0.1736 0.60254 0.0
C447 C 0.38697 0.19715 0.56184 0.0
C448 C 0.40399 0.19881 0.58556 0.0
C449 C 0.32982 0.14376 0.59502 0.0
C450 C 0.31283 0.14214 0.57125 0.0
C451 C 0.34015 0.17248 0.55477 0.0
C452 C 0.39237 0.18046 0.62813 0.0
O453 O 0.29302 0.10528 0.65948 0.0
O454 O 0.28758 0.0815 0.69738 0.0
O455 O 0.25675 0.15205 0.6873 0.0
O456 O 0.31084 0.19645 0.66285 0.0
C457 C 0.27778 0.07243 0.67389 0.0
O458 O 0.26185 0.09888 0.74281 0.0
O459 O 0.2689 0.16593 0.74492 0.0
O460 O 0.35535 0.22035 0.72387 0.0
O461 O 0.3989 0.22973 0.69182 0.0
O462 O 0.39147 0.14679 0.69239 0.0
O463 O 0.36247 0.14501 0.72945 0.0
C464 C 0.27023 0.17939 0.66992 0.0
O465 O 0.39036 0.2125 0.641 0.0
O466 O 0.3789 0.14402 0.6396 0.0
C467 C 0.26431 0.13213 0.78153 0.0
C468 C 0.28192 0.1376 0.83208 0.0
C469 C 0.2375 0.11512 0.82142 0.0
C470 C 0.22876 0.11243 0.79626 0.0
C471 C 0.30882 0.15463 0.79216 0.0
C472 C 0.31758 0.1574 0.81736 0.0
C473 C 0.25454 0.12797 0.75511 0.0
H474 H 0.41128 0.2156 0.54927 0.0
H475 H 0.43966 0.22036 0.59073 0.0
H476 H 0.3074 0.12193 0.60757 0.0
H477 H 0.27836 0.11644 0.56627 0.0
H478 H 0.20969 0.09964 0.83259 0.0
H479 H 0.19427 0.09479 0.78829 0.0
H480 H 0.33664 0.1698 0.78096 0.0
H481 H 0.35203 0.17479 0.82538 0.0
Tb482 Tb 0.85146 0.15801 0.71707 0.0
Eu483 Eu 0.81902 0.18298 0.66455 0.0
C484 C 0.80252 0.08402 0.67307 0.0
C485 C 0.91299 0.18477 0.67323 0.0
C486 C 0.85577 0.14438 0.78283 0.0
C487 C 0.82562 0.11012 0.81998 0.0
C488 C 0.84038 0.10747 0.79714 0.0
C489 C 0.85569 0.18394 0.79172 0.0
C490 C 0.84139 0.18676 0.81466 0.0
C491 C 0.82638 0.14995 0.82903 0.0
C492 C 0.87008 0.14039 0.75844 0.0
O493 O 0.85477 0.22289 0.72453 0.0
O494 O 0.86537 0.24885 0.68663 0.0
O495 O 0.76901 0.17892 0.69067 0.0
O496 O 0.78048 0.13599 0.71812 0.0
C497 C 0.8683 0.25589 0.71027 0.0
O498 O 0.83434 0.23048 0.63666 0.0
O499 O 0.7724 0.16592 0.63217 0.0
O500 O 0.78533 0.10725 0.6638 0.0
O501 O 0.8354 0.10131 0.69055 0.0
O502 O 0.91148 0.18752 0.697 0.0
O503 O 0.87821 0.17425 0.65787 0.0
C504 C 0.75717 0.15376 0.70916 0.0
O505 O 0.83875 0.11013 0.74255 0.0
O506 O 0.89552 0.17817 0.74887 0.0
C507 C 0.81041 0.19427 0.59694 0.0
C508 C 0.83558 0.18318 0.55044 0.0
C509 C 0.8378 0.22417 0.55855 0.0
C510 C 0.82513 0.22958 0.58158 0.0
C511 C 0.80853 0.15334 0.58889 0.0
C512 C 0.82076 0.14778 0.56576 0.0
C513 C 0.80001 0.20175 0.62177 0.0
H514 H 0.81405 0.0813 0.83074 0.0
H515 H 0.83967 0.07647 0.7906 0.0
H516 H 0.86667 0.21272 0.78096 0.0
H517 H 0.84214 0.21774 0.82126 0.0
H518 H 0.84931 0.25192 0.54702 0.0
H519 H 0.82735 0.26158 0.58753 0.0
H520 H 0.79802 0.12582 0.60052 0.0
H521 H 0.81898 0.11597 0.55987 0.0
C522 C 0.28778 0.8518 0.04265 0.0
C523 C 0.28063 0.86801 0.06521 0.0
C524 C 0.35118 0.93946 0.06312 0.0
C525 C 0.36377 0.91715 0.04523 0.0
N526 N 0.34254 0.85012 1.01795 0.0
N527 N 0.28929 0.93855 0.08246 0.0
C528 C 0.33156 0.8729 0.03481 0.0
C529 C 0.3078 0.91544 0.07172 0.0
N530 N 0.25209 0.82267 0.02667 0.0
N531 N 0.38015 0.98362 0.07174 0.0
H532 H 0.25507 0.92257 0.08488 0.0
H533 H 0.30574 0.97384 0.08572 0.0
H534 H 0.40981 0.00425 0.06405 0.0
H535 H 0.37521 -0.00076 0.08706 0.0
H536 H 0.25572 0.81293 1.00911 0.0
H537 H 0.21934 0.81439 0.0298 0.0
H538 H 0.32043 0.81626 1.01155 0.0
H539 H 0.37459 0.86349 1.01206 0.0
C540 C 0.15983 0.4889 0.0865 0.0
C541 C 0.15303 0.44419 0.08312 0.0
C542 C 0.08169 0.41923 0.05863 0.0
C543 C 0.09032 0.46476 0.06043 0.0
N544 N 0.14158 0.54435 0.07202 0.0
N545 N 0.11114 0.36798 0.06343 0.0
C546 C 0.13044 0.50001 0.07333 0.0
C547 C 0.11493 0.40964 0.06846 0.0
N548 N 0.19393 0.52057 0.10267 0.0
N549 N 0.04112 0.38495 0.04821 0.0
H550 H 0.13432 0.35947 0.0707 0.0
H551 H 0.08697 0.34298 0.0507 0.0
H552 H 0.01619 0.39068 0.04059 0.0
H553 H 0.03072 0.35058 0.04872 0.0
H554 H 0.19759 0.55217 0.108 0.0
H555 H 0.2166 0.51392 0.11234 0.0
H556 H 0.17243 0.5719 0.07895 0.0
H557 H 0.12158 0.55374 0.06192 0.0
C558 C 0.53967 0.67753 0.09214 0.0
C559 C 0.57082 0.71652 0.0813 0.0
C560 C 0.57421 0.6681 0.04802 0.0
C561 C 0.54462 0.62929 0.05949 0.0
N562 N 0.50869 0.59703 0.09537 0.0
N563 N 0.62563 0.74955 0.05227 0.0
C564 C 0.53056 0.63401 0.08255 0.0
C565 C 0.59054 0.71198 0.06021 0.0
N566 N 0.51671 0.68166 0.11062 0.0
N567 N 0.58628 0.66302 0.02541 0.0
H568 H 0.63895 0.78208 0.06113 0.0
H569 H 0.64422 0.74804 0.03838 0.0
H570 H 0.5766 0.63132 1.01643 0.0
H571 H 0.60356 0.69002 1.01494 0.0
H572 H 0.48992 0.65388 0.11723 0.0
H573 H 0.52154 0.71283 0.11795 0.0
H574 H 0.502 0.59934 0.11338 0.0
H575 H 0.50021 0.5643 0.08861 0.0
C576 C 0.89537 0.29183 0.97122 0.0
C577 C 0.85129 0.26957 0.97897 0.0
C578 C 0.8708 0.33575 1.00686 0.0
C579 C 0.9118 0.36122 0.99629 0.0
N580 N 0.96551 0.3622 0.96949 0.0
N581 N 0.8231 0.26102 1.01842 0.0
C582 C 0.92492 0.33892 0.97874 0.0
C583 C 0.8454 0.28836 1.00094 0.0
N584 N 0.91112 0.26633 0.96015 0.0
N585 N 0.85529 0.35637 1.02231 0.0
H586 H 0.81342 0.22653 1.01696 0.0
H587 H 0.82118 0.27392 0.03558 0.0
H588 H 0.8712 0.39154 0.02625 0.0
H589 H 0.82397 0.33835 0.02908 0.0
H590 H 0.94413 0.27933 0.95589 0.0
H591 H 0.89238 0.23084 0.95824 0.0
H592 H 0.9742 0.34947 0.95445 0.0
H593 H 0.98992 0.39509 0.97617 0.0
C594 C 0.7011 0.56568 0.9982 0.0
C595 C 0.69685 0.54562 0.97425 0.0
C596 C 0.61477 0.50842 0.97364 0.0
C597 C 0.61886 0.52455 0.99846 0.0
N598 N 0.66609 0.56411 0.03539 0.0
N599 N 0.64931 0.48926 0.94156 0.0
C600 C 0.66213 0.55145 1.01112 0.0
C601 C 0.65357 0.51452 0.96265 0.0
N602 N 0.74197 0.60021 1.00809 0.0
N603 N 0.57401 0.48802 0.96026 0.0
H604 H 0.67677 0.49149 0.93328 0.0
H605 H 0.6186 0.46274 0.93365 0.0
H606 H 0.54429 0.48129 0.96753 0.0
H607 H 0.57024 0.48083 0.94145 0.0
H608 H 0.74645 0.61941 0.02437 0.0
H609 H 0.77092 0.61273 0.99893 0.0
H610 H 0.69652 0.57938 0.04618 0.0
H611 H 0.63849 0.55638 0.04518 0.0
C612 C 0.45948 0.1432 0.9715 0.0
C613 C 0.41484 0.13295 0.97441 0.0
C614 C 0.40417 0.0722 0.99985 0.0
C615 C 0.44984 0.08463 0.99832 0.0
N616 N 0.52345 0.13752 0.98713 0.0
N617 N 0.34697 0.09362 0.9945 0.0
C618 C 0.47825 0.12177 0.98539 0.0
C619 C 0.38781 0.09917 0.98954 0.0
N620 N 0.48348 0.17259 0.95503 0.0
N621 N 0.37589 0.03349 1.01012 0.0
H622 H 0.33343 0.11213 0.98689 0.0
H623 H 0.32805 0.07324 1.00758 0.0
H624 H 0.38647 0.01285 1.01804 0.0
H625 H 0.34122 0.01984 1.00917 0.0
H626 H 0.51438 0.17768 0.95022 0.0
H627 H 0.47082 0.18909 0.94458 0.0
H628 H 0.54657 0.16707 0.97996 0.0
H629 H 0.53842 0.12345 0.99785 0.0
C630 C 0.65199 0.12894 0.96149 0.0
C631 C 0.69327 0.13427 0.9715 0.0
C632 C 0.65575 0.09294 1.00617 0.0
C633 C 0.61379 0.08398 0.99493 0.0
N634 N 0.57105 0.08539 0.95912 0.0
N635 N 0.73309 0.11412 1.001 0.0
C636 C 0.61162 0.0995 0.97175 0.0
C637 C 0.69482 0.1144 0.99328 0.0
N638 N 0.65141 0.15346 0.94281 0.0
N639 N 0.65824 0.0805 0.02904 0.0
H640 H 0.76188 0.1282 0.99168 0.0
H641 H 0.73506 0.09625 1.01528 0.0
H642 H 0.63012 0.06277 0.03856 0.0
H643 H 0.68846 0.09054 0.03928 0.0
H644 H 0.62296 0.15466 0.93654 0.0
H645 H 0.68032 0.17619 0.93512 0.0
H646 H 0.56765 0.09121 0.94103 0.0
H647 H 0.54058 0.06458 0.96594 0.0
C648 C 0.83342 0.50012 0.96614 0.0
C649 C 0.84187 0.54558 0.96852 0.0
C650 C 0.91037 0.5688 0.99541 0.0
C651 C 0.90311 0.52384 0.99207 0.0
N652 N 0.86179 0.44817 0.97161 0.0
N653 N 0.89076 0.62456 0.98269 0.0
C654 C 0.86564 0.48983 0.97675 0.0
C655 C 0.88122 0.58037 0.98226 0.0
N656 N 0.79414 0.46662 0.954 0.0
N657 N 0.94382 0.59983 1.01213 0.0
H658 H 0.86925 0.63413 0.9743 0.0
H659 H 0.92129 0.65219 0.98991 0.0
H660 H 0.96544 0.5925 1.02232 0.0
H661 H 0.94808 0.63165 1.01745 0.0
H662 H 0.78308 0.43206 0.95417 0.0
H663 H 0.77104 0.47317 0.94475 0.0
H664 H 0.83832 0.42353 0.95849 0.0
H665 H 0.88433 0.43918 0.9792 0.0
C666 C 0.38932 0.2859 0.99033 0.0
C667 C 0.41443 0.27777 0.97328 0.0
C668 C 0.47612 0.35626 0.9812 0.0
C669 C 0.4504 0.36525 0.9975 0.0
N670 N 0.38672 0.33729 1.02146 0.0
N671 N 0.47816 0.30514 0.94964 0.0
C672 C 0.40809 0.32969 1.00318 0.0
C673 C 0.45685 0.31297 0.9679 0.0
N674 N 0.34694 0.25193 0.99361 0.0
N675 N 0.5202 0.38807 0.97994 0.0
H676 H 0.4653 0.27352 0.93978 0.0
H677 H 0.50665 0.33061 0.94289 0.0
H678 H 0.53625 0.4187 0.99093 0.0
H679 H 0.54225 0.38247 0.97013 0.0
H680 H 0.32446 0.25648 1.00357 0.0
H681 H 0.33267 0.21912 0.985 0.0
H682 H 0.35823 0.31204 0.02827 0.0
H683 H 0.39914 0.36863 0.03137 0.0
C684 C 0.12059 0.70809 0.05635 0.0
C685 C 0.14828 0.71465 0.07791 0.0
C686 C 0.10723 0.63257 0.08151 0.0
C687 C 0.08404 0.62569 0.05831 0.0
N688 N 0.07186 0.65627 1.02216 0.0
N689 N 0.17344 0.68238 0.10866 0.0
C690 C 0.09182 0.66329 0.04523 0.0
C691 C 0.14305 0.67667 0.08992 0.0
N692 N 0.12015 0.74442 0.04713 0.0
N693 N 0.09472 0.59722 0.09567 0.0
H694 H 0.2009 0.714 0.11494 0.0
H695 H 0.17392 0.6553 0.11637 0.0
H696 H 0.06878 0.56436 0.09011 0.0
H697 H 0.10746 0.60135 0.11371 0.0
H698 H 0.09738 0.74116 0.03291 0.0
H699 H 0.13948 0.77765 0.0552 0.0
H700 H 0.08032 0.68219 1.01074 0.0
H701 H 0.04907 0.62401 1.01376 0.0
C702 C 0.29643 0.41615 0.06137 0.0
C703 C 0.29911 0.44592 0.08126 0.0
C704 C 0.3759 0.50131 0.07301 0.0
C705 C 0.37541 0.46958 0.05509 0.0
N706 N 0.33496 0.39673 0.03154 0.0
N707 N 0.34275 0.51487 0.10779 0.0
C708 C 0.33542 0.42708 0.04893 0.0
C709 C 0.33934 0.48786 0.08765 0.0
N710 N 0.25629 0.3777 0.05416 0.0
N711 N 0.40997 0.54543 0.07478 0.0
H712 H 0.31619 0.50711 0.11845 0.0
H713 H 0.37288 0.54313 0.11499 0.0
H714 H 0.43508 0.55695 0.06288 0.0
H715 H 0.41055 0.57146 0.08589 0.0
H716 H 0.25017 0.35723 0.03815 0.0
H717 H 0.22786 0.36726 0.06364 0.0
H718 H 0.3095 0.36293 0.02843 0.0
H719 H 0.36106 0.40492 1.02056 0.0
C720 C 0.58109 0.88032 0.05269 0.0
C721 C 0.55399 0.85118 0.06965 0.0
C722 C 0.49348 0.86652 0.05794 0.0
C723 C 0.52277 0.90003 0.04336 0.0
N724 N 0.59389 0.93964 0.02632 0.0
N725 N 0.48554 0.81685 0.08954 0.0
C726 C 0.56633 0.90686 0.04041 0.0
C727 C 0.51025 0.84397 0.07242 0.0
N728 N 0.62065 0.88216 0.04822 0.0
N729 N 0.44978 0.8565 0.05801 0.0
H730 H 0.49611 0.79855 0.09991 0.0
H731 H 0.45579 0.81438 0.09462 0.0
H732 H 0.43658 0.87299 0.04803 0.0
H733 H 0.42546 0.82943 0.06633 0.0
H734 H 0.63985 0.89903 0.03433 0.0
H735 H 0.63307 0.86412 0.05744 0.0
H736 H 0.62791 0.95065 0.02581 0.0
H737 H 0.58297 0.95733 1.01565 0.0
C738 C 0.97071 0.22822 0.40024 0.0
C739 C 0.9624 0.18547 0.40744 0.0
C740 C 0.02838 0.19456 0.38778 0.0
C741 C 0.03924 0.23927 0.38308 0.0
N742 N 0.02669 0.3026 0.39031 0.0
N743 N 0.98826 0.13172 0.41216 0.0
C744 C 0.01207 0.25726 0.39082 0.0
C745 C 0.99252 0.16951 0.40225 0.0
N746 N 0.93867 0.24063 0.40172 0.0
N747 N 0.05236 0.17609 0.37842 0.0
H748 H 0.96347 0.11337 0.42357 0.0
H749 H 0.01182 0.1211 0.41103 0.0
H750 H 0.0792 0.19386 0.36804 0.0
H751 H 0.04327 0.14207 0.37918 0.0
H752 H 0.94138 0.26946 0.39444 0.0
H753 H 0.90746 0.21991 0.40802 0.0
H754 H 0.01028 0.31829 0.39802 0.0
H755 H 0.0576 0.32534 0.38438 0.0
C756 C 0.77183 0.74055 0.41264 0.0
C757 C 0.81678 0.76299 0.40615 0.0
C758 C 0.79686 0.80308 0.377 0.0
C759 C 0.75479 0.78781 0.38659 0.0
N760 N 0.69974 0.73707 0.41216 0.0
N761 N 0.84806 0.7774 0.36746 0.0
C762 C 0.74148 0.7551 0.40407 0.0
C763 C 0.82347 0.78391 0.38407 0.0
N764 N 0.75614 0.70061 0.42315 0.0
N765 N 0.81237 0.83648 0.36149 0.0
H766 H 0.85912 0.75409 0.36958 0.0
H767 H 0.85074 0.78912 0.35023 0.0
H768 H 0.79549 0.85368 0.35668 0.0
H769 H 0.84442 0.84995 0.35551 0.0
H770 H 0.72275 0.68002 0.42647 0.0
H771 H 0.77544 0.68491 0.42527 0.0
H772 H 0.69084 0.71859 0.42732 0.0
H773 H 0.67428 0.74158 0.40421 0.0
C774 C 0.29241 0.04815 0.40535 0.0
C775 C 0.27236 0.07307 0.39666 0.0
C776 C 0.21856 0.00763 0.36962 0.0
C777 C 0.23239 0.97998 0.38142 0.0
N778 N 0.28788 0.97481 0.40763 0.0
N779 N 0.24898 0.08244 0.35661 0.0
C780 C 0.27128 0.00054 0.39836 0.0
C781 C 0.24429 0.05517 0.37469 0.0
N782 N 0.33384 0.07123 0.41798 0.0
N783 N 0.18067 0.98906 0.35387 0.0
H784 H 0.27604 0.11564 0.35755 0.0
H785 H 0.23121 0.0698 0.3395 0.0
H786 H 0.1592 0.95408 0.35028 0.0
H787 H 0.16875 0.00897 0.34628 0.0
H788 H 0.35254 0.05633 0.42349 0.0
H789 H 0.35133 0.10672 0.42074 0.0
H790 H 0.31256 0.98641 0.42214 0.0
H791 H 0.27618 0.94116 0.4011 0.0
C792 C 0.56044 0.62255 0.29804 0.0
C793 C 0.51875 0.5985 0.3082 0.0
C794 C 0.54042 0.66298 0.33766 0.0
C795 C 0.57836 0.69039 0.32512 0.0
N796 N 0.62766 0.69465 0.29445 0.0
N797 N 0.49858 0.58724 0.3493 0.0
C798 C 0.58944 0.66978 0.30555 0.0
C799 C 0.51654 0.61573 0.33156 0.0
N800 N 0.57552 0.59864 0.28478 0.0
N801 N 0.52599 0.6816 0.35499 0.0
H802 H 0.48832 0.55268 0.34646 0.0
H803 H 0.4998 0.59915 0.36727 0.0
H804 H 0.53995 0.7166 0.35889 0.0
H805 H 0.49679 0.66186 0.36337 0.0
H806 H 0.60731 0.61308 0.27854 0.0
H807 H 0.55814 0.56312 0.28299 0.0
H808 H 0.63415 0.68311 0.27817 0.0
H809 H 0.65229 0.72746 0.30101 0.0
C810 C 0.36543 0.91994 0.31816 0.0
C811 C 0.36614 0.88356 0.30467 0.0
C812 C 0.29485 0.82921 0.31994 0.0
C813 C 0.29161 0.86585 0.33117 0.0
N814 N 0.32159 0.94657 0.33937 0.0
N815 N 0.32882 0.80419 0.28995 0.0
C816 C 0.32642 0.9114 0.32994 0.0
C817 C 0.33007 0.83832 0.30482 0.0
N818 N 0.40258 0.9624 0.32032 0.0
N819 N 0.2651 0.78568 0.32449 0.0
H820 H 0.30115 0.77145 0.28725 0.0
H821 H 0.35396 0.80953 0.27862 0.0
H822 H 0.23995 0.77816 0.33613 0.0
H823 H 0.26796 0.75763 0.31875 0.0
H824 H 0.4062 0.98924 0.33203 0.0
H825 H 0.43145 0.97006 0.31172 0.0
H826 H 0.34293 0.98043 0.33649 0.0
H827 H 0.29448 0.9417 0.34894 0.0
C828 C 0.05329 0.43301 0.32518 0.0
C829 C 0.07979 0.46818 0.3107 0.0
C830 C 0.14011 0.44991 0.31499 0.0
C831 C 0.11293 0.41364 0.32886 0.0
N832 N 0.03939 0.36248 0.34082 0.0
N833 N 0.14489 0.50621 0.28831 0.0
C834 C 0.06831 0.40294 0.3323 0.0
C835 C 0.12219 0.47545 0.30453 0.0
N836 N 0.01398 0.42861 0.33228 0.0
N837 N 0.18348 0.46084 0.31238 0.0
H838 H 0.13373 0.52686 0.28093 0.0
H839 H 0.17317 0.5092 0.28074 0.0
H840 H 0.19722 0.44167 0.31863 0.0
H841 H 0.20683 0.49034 0.30527 0.0
H842 H -0.00425 0.40682 0.34506 0.0
H843 H 0.00124 0.44919 0.32672 0.0
H844 H 0.00531 0.35084 0.34175 0.0
H845 H 0.04838 0.33805 0.34426 0.0
C846 C 0.35107 0.43121 0.31614 0.0
C847 C 0.35834 0.4718 0.30632 0.0
C848 C 0.29786 0.47046 0.32846 0.0
C849 C 0.28547 0.42606 0.33485 0.0
N850 N 0.30276 0.36551 0.33695 0.0
N851 N 0.33604 0.52786 0.30078 0.0
C852 C 0.31294 0.4069 0.32931 0.0
C853 C 0.3311 0.49089 0.31192 0.0
N854 N 0.38164 0.41696 0.31371 0.0
N855 N 0.27928 0.49399 0.33868 0.0
H856 H 0.35996 0.54368 0.2885 0.0
H857 H 0.31379 0.54017 0.30198 0.0
H858 H 0.25566 0.48122 0.3513 0.0
H859 H 0.29066 0.52814 0.3365 0.0
H860 H 0.3812 0.39059 0.32264 0.0
H861 H 0.40971 0.43358 0.304 0.0
H862 H 0.31667 0.34629 0.33058 0.0
H863 H 0.27943 0.34979 0.34952 0.0
C864 C 0.50134 0.8323 0.29632 0.0
C865 C 0.50763 0.87657 0.30135 0.0
C866 C 0.57584 0.89837 0.32818 0.0
C867 C 0.56827 0.85334 0.32414 0.0
N868 N 0.52196 0.77596 0.30641 0.0
N869 N 0.54749 0.95066 0.32353 0.0
C870 C 0.53038 0.81983 0.30883 0.0
C871 C 0.54409 0.90939 0.31763 0.0
N872 N 0.46822 0.8026 0.27905 0.0
N873 N 0.61347 0.93062 0.34214 0.0
H874 H 0.52578 0.96044 0.31559 0.0
H875 H 0.57001 0.97441 0.33727 0.0
H876 H 0.63541 0.92312 0.35187 0.0
H877 H 0.62429 0.96524 0.34337 0.0
H878 H 0.46468 0.77168 0.27238 0.0
H879 H 0.44565 0.81014 0.27001 0.0
H880 H 0.49235 0.74873 0.29797 0.0
H881 H 0.54358 0.76592 0.31412 0.0
C882 C 0.06687 0.62634 0.3365 0.0
C883 C 0.08588 0.61707 0.31638 0.0
C884 C 0.13712 0.69816 0.31463 0.0
C885 C 0.12099 0.70751 0.33596 0.0
N886 N 0.07446 0.68109 0.36917 0.0
N887 N 0.14675 0.64275 0.29059 0.0
C888 C 0.08712 0.67169 0.3476 0.0
C889 C 0.12338 0.65258 0.30675 0.0
N890 N 0.02876 0.59215 0.34443 0.0
N891 N 0.16403 0.73254 0.30124 0.0
H892 H 0.13864 0.60956 0.28504 0.0
H893 H 0.17698 0.6674 0.28484 0.0
H894 H 0.1741 0.76645 0.30608 0.0
H895 H 0.17279 0.72697 0.28418 0.0
H896 H 0.0105 0.5975 0.35732 0.0
H897 H 0.01353 0.55852 0.33686 0.0
H898 H 0.05312 0.65614 0.37976 0.0
H899 H 0.08785 0.7141 0.37739 0.0
C900 C 0.81209 0.00201 0.42031 0.0
C901 C 0.81676 0.04084 0.40945 0.0
C902 C 0.76041 0.9916 0.37625 0.0
C903 C 0.75283 0.95301 0.38838 0.0
N904 N 0.76513 0.92165 0.42423 0.0
N905 N 0.79007 0.07316 0.37955 0.0
C906 C 0.77667 0.95826 0.41114 0.0
C907 C 0.78948 0.03584 0.38805 0.0
N908 N 0.84267 0.00673 0.43871 0.0
N909 N 0.7401 0.98601 0.35342 0.0
H910 H 0.81048 0.10603 0.38791 0.0
H911 H 0.76757 0.07121 0.36554 0.0
H912 H 0.71747 0.95416 0.34451 0.0
H913 H 0.74811 0.01268 0.34259 0.0
H914 H 0.84373 0.97927 0.44553 0.0
H915 H 0.86977 0.03814 0.44563 0.0
H916 H 0.77804 0.92442 0.4421 0.0
H917 H 0.7396 0.88895 0.41811 0.0
C918 C 0.0145 0.83408 0.42221 0.0
C919 C 0.97554 0.79114 0.41552 0.0
C920 C 0.01265 0.77734 0.38191 0.0
C921 C 0.05261 0.81882 0.38959 0.0
N922 N 0.09384 0.8847 0.41843 0.0
N923 N 0.93921 0.71879 0.39148 0.0
C924 C 0.05414 0.84667 0.41014 0.0
C925 C 0.97512 0.76192 0.39601 0.0
N926 N 0.0131 0.86338 0.4396 0.0
N927 N 0.01045 0.75304 0.36086 0.0
H928 H 0.91124 0.70629 0.40146 0.0
H929 H 0.93853 0.69402 0.37928 0.0
H930 H 0.0374 0.76324 0.35022 0.0
H931 H 0.98107 0.72496 0.3528 0.0
H932 H 0.03842 0.89709 0.44349 0.0
H933 H 0.98514 0.8548 0.44922 0.0
H934 H 0.09898 0.90334 0.435 0.0
H935 H 0.12271 0.89633 0.40926 0.0
C936 C 0.26231 0.22142 0.37955 0.0
C937 C 0.26333 0.21895 0.40516 0.0
C938 C 0.22368 0.26098 0.4087 0.0
C939 C 0.21625 0.25786 0.38303 0.0
N940 N 0.23199 0.23838 0.34347 0.0
N941 N 0.28163 0.27438 0.43914 0.0
C942 C 0.23663 0.23904 0.36818 0.0
C943 C 0.2543 0.2492 0.41894 0.0
N944 N 0.29083 0.213 0.3669 0.0
N945 N 0.20198 0.27549 0.42357 0.0
H946 H 0.31193 0.2752 0.44356 0.0
H947 H 0.27798 0.29954 0.44866 0.0
H948 H 0.17733 0.28257 0.41705 0.0
H949 H 0.20564 0.27585 0.44245 0.0
H950 H 0.29497 0.21757 0.34858 0.0
H951 H 0.3145 0.20664 0.37569 0.0
H952 H 0.24133 0.22029 0.33166 0.0
H953 H 0.21687 0.25428 0.33459 0.0
C954 C 0.66059 0.50527 0.73538 0.0
C955 C 0.63202 0.52182 0.74288 0.0
C956 C 0.67941 0.59357 0.72549 0.0
C957 C 0.70559 0.57545 0.71629 0.0
N958 N 0.71485 0.51058 0.70763 0.0
N959 N 0.60814 0.57741 0.73981 0.0
C960 C 0.694 0.53004 0.71959 0.0
C961 C 0.63961 0.56476 0.73639 0.0
N962 N 0.65748 0.46719 0.74434 0.0
N963 N 0.69316 0.63863 0.72446 0.0
H964 H 0.57801 0.55681 0.74717 0.0
H965 H 0.60992 0.60632 0.73317 0.0
H966 H 0.72161 0.66065 0.71621 0.0
H967 H 0.67823 0.65479 0.73335 0.0
H968 H 0.6804 0.45625 0.74138 0.0
H969 H 0.63484 0.44917 0.7568 0.0
H970 H 0.70493 0.47621 0.70762 0.0
H971 H 0.73933 0.52791 0.69587 0.0
C972 C 0.45781 0.08229 0.73037 0.0
C973 C 0.491 0.11418 0.7484 0.0
C974 C 0.45551 0.1614 0.7476 0.0
C975 C 0.42486 0.13198 0.72778 0.0
N976 N 0.39623 0.06408 0.70013 0.0
N977 N 0.52589 0.18688 0.77196 0.0
C978 C 0.42602 0.09242 0.71903 0.0
C979 C 0.49098 0.15442 0.75646 0.0
N980 N 0.45574 0.04153 0.72479 0.0
N981 N 0.45057 0.19566 0.75833 0.0
H982 H 0.55215 0.18275 0.77915 0.0
H983 H 0.53091 0.21941 0.77614 0.0
H984 H 0.42697 0.20415 0.75191 0.0
H985 H 0.46813 0.21414 0.77469 0.0
H986 H 0.4296 0.01451 0.71387 0.0
H987 H 0.47885 0.03329 0.73245 0.0
H988 H 0.39912 0.03851 0.69065 0.0
H989 H 0.36897 0.06681 0.69323 0.0
C990 C 0.86827 0.35958 0.7383 0.0
C991 C 0.91502 0.3907 0.74266 0.0
C992 C 0.93102 0.33133 0.72828 0.0
C993 C 0.88461 0.30238 0.72116 0.0
N994 N 0.81 0.29192 0.71494 0.0
N995 N 0.9915 0.40875 0.73889 0.0
C996 C 0.85347 0.31738 0.72482 0.0
C997 C 0.9467 0.37731 0.73689 0.0
N998 N 0.83801 0.36952 0.74791 0.0
N999 N 0.95985 0.31466 0.72726 0.0
H1000 H 0.0041 0.44279 0.74507 0.0
H1001 H 0.01576 0.40198 0.73259 0.0
H1002 H 0.94938 0.2811 0.72099 0.0
H1003 H 0.99327 0.33289 0.73447 0.0
H1004 H 0.80381 0.34604 0.74729 0.0
H1005 H 0.84756 0.39943 0.75879 0.0
H1006 H 0.78713 0.30358 0.71498 0.0
H1007 H 0.79795 0.26089 0.7047 0.0
C1008 C 0.18385 0.94974 0.66864 0.0
C1009 C 0.18705 0.93382 0.64511 0.0
C1010 C 0.25933 0.00423 0.64453 0.0
C1011 C 0.24747 0.02439 0.66395 0.0
N1012 N 0.19363 0.01481 0.69307 0.0
N1013 N 0.24485 0.93369 0.62274 0.0
C1014 C 0.20856 0.99671 0.67575 0.0
C1015 C 0.22975 0.9576 0.63598 0.0
N1016 N 0.16368 0.91998 0.68556 0.0
N1017 N 0.29896 0.02897 0.63461 0.0
H1018 H 0.2268 0.89819 0.62036 0.0
H1019 H 0.27711 0.94783 0.61714 0.0
H1020 H 0.32411 0.06062 0.64242 0.0
H1021 H 0.30637 0.01835 0.61836 0.0
H1022 H 0.16399 0.93073 0.70364 0.0
H1023 H 0.15237 0.88529 0.68205 0.0
H1024 H 0.16369 0.99493 0.70081 0.0
H1025 H 0.20797 0.04968 0.69758 0.0
C1026 C 0.02928 0.2501 0.65033 0.0
C1027 C 0.0318 0.21406 0.63768 0.0
C1028 C 0.96039 0.15867 0.6524 0.0
C1029 C 0.95562 0.1949 0.66287 0.0
N1030 N 0.9822 0.2753 0.66901 0.0
N1031 N -0.00287 0.13451 0.62375 0.0
C1032 C 0.98925 0.24072 0.66115 0.0
C1033 C -0.00337 0.1684 0.63795 0.0
N1034 N 0.06562 0.29311 0.65258 0.0
N1035 N 0.93086 0.11499 0.65683 0.0
H1036 H 0.02308 0.14034 0.61294 0.0
H1037 H 0.9702 0.10135 0.62107 0.0
H1038 H 0.90444 0.10689 0.66762 0.0
H1039 H 0.9348 0.08733 0.65171 0.0
H1040 H 0.06771 0.31982 0.66378 0.0
H1041 H 0.09537 0.30138 0.64478 0.0
H1042 H 0.003 0.30909 0.66578 0.0
H1043 H 0.95355 0.26979 0.6772 0.0
C1044 C 0.71824 0.7586 0.65451 0.0
C1045 C 0.74923 0.8014 0.64686 0.0
C1046 C 0.81186 0.79552 0.66561 0.0
C1047 C 0.78132 0.75047 0.67043 0.0
N1048 N 0.70604 0.68603 0.66634 0.0
N1049 N 0.82582 0.85661 0.64068 0.0
C1050 C 0.73458 0.73107 0.66407 0.0
C1051 C 0.7962 0.81892 0.65124 0.0
N1052 N 0.67347 0.74478 0.6532 0.0
N1053 N 0.85569 0.8161 0.67499 0.0
H1054 H 0.81574 0.87394 0.62922 0.0
H1055 H 0.8601 0.86795 0.64127 0.0
H1056 H 0.8681 0.79988 0.68583 0.0
H1057 H 0.87851 0.85043 0.67395 0.0
H1058 H 0.64994 0.71598 0.66078 0.0
H1059 H 0.66035 0.76427 0.64641 0.0
H1060 H 0.67237 0.66891 0.65957 0.0
H1061 H 0.71686 0.66482 0.6733 0.0
C1062 C 0.98712 0.81018 0.63423 0.0
C1063 C 0.02621 0.80758 0.64045 0.0
C1064 C 0.9906 0.76278 0.67436 0.0
C1065 C 0.95009 0.7616 0.66664 0.0
N1066 N 0.90748 0.77876 0.63727 0.0
N1067 N 0.06356 0.77621 0.66405 0.0
C1068 C 0.94773 0.78389 0.64605 0.0
C1069 C 0.0276 0.78259 0.65996 0.0
N1070 N 0.98805 0.83886 0.61755 0.0
N1071 N 0.99361 0.74495 0.6955 0.0
H1072 H 0.09097 0.78957 0.65365 0.0
H1073 H 0.06466 0.75448 0.67628 0.0
H1074 H 0.96685 0.72961 0.70624 0.0
H1075 H 0.02346 0.74866 0.70347 0.0
H1076 H 0.96229 0.84611 0.61423 0.0
H1077 H 0.01616 0.85838 0.60834 0.0
H1078 H 0.90229 0.78901 0.62057 0.0
H1079 H 0.87839 0.7616 0.64601 0.0
C1080 C 0.18348 0.17922 0.62396 0.0
C1081 C 0.17699 0.2138 0.63527 0.0
C1082 C 0.22909 0.2232 0.67013 0.0
C1083 C 0.23844 0.19147 0.65789 0.0
N1084 N 0.22981 0.14407 0.62166 0.0
N1085 N 0.20012 0.27498 0.66675 0.0
C1086 C 0.21741 0.17113 0.63427 0.0
C1087 C 0.20162 0.23755 0.65773 0.0
N1088 N 0.15574 0.15254 0.60406 0.0
N1089 N 0.24599 0.23924 0.69373 0.0
H1090 H 0.18107 0.28706 0.65797 0.0
H1091 H 0.22091 0.29657 0.68168 0.0
H1092 H 0.26706 0.23039 0.70326 0.0
H1093 H 0.23635 0.25846 0.70447 0.0
H1094 H 0.15564 0.12373 0.59656 0.0
H1095 H 0.12988 0.15666 0.59626 0.0
H1096 H 0.21977 0.13278 0.60332 0.0
H1097 H 0.25284 0.13552 0.62903 0.0
C1098 C 0.72988 0.95581 0.66256 0.0
C1099 C 0.74992 0.94682 0.64286 0.0
C1100 C 0.80137 0.02812 0.64159 0.0
C1101 C 0.78463 0.03685 0.66284 0.0
N1102 N 0.73627 0.00974 0.69528 0.0
N1103 N 0.81055 0.97312 0.61679 0.0
C1104 C 0.74987 0.00085 0.6739 0.0
C1105 C 0.78731 0.98261 0.63322 0.0
N1106 N 0.69105 0.92158 0.66985 0.0
N1107 N 0.82976 0.06317 0.62899 0.0
H1108 H 0.80181 0.94011 0.61034 0.0
H1109 H 0.84099 -0.00219 0.61127 0.0
H1110 H 0.84088 0.09711 0.63452 0.0
H1111 H 0.83906 0.05841 0.61195 0.0
H1112 H 0.67224 0.9268 0.68244 0.0
H1113 H 0.67552 0.88821 0.66185 0.0
H1114 H 0.71446 0.9845 0.70558 0.0
H1115 H 0.74921 0.04256 0.70366 0.0
C1116 C 0.49982 0.34208 0.74462 0.0
C1117 C 0.48845 0.37676 0.74704 0.0
C1118 C 0.4129 0.32438 0.72736 0.0
C1119 C 0.4253 0.29048 0.72358 0.0
N1120 N 0.48397 0.27065 0.72397 0.0
N1121 N 0.43723 0.40406 0.73785 0.0
C1122 C 0.46981 0.30044 0.73072 0.0
C1123 C 0.4457 0.36874 0.73773 0.0
N1124 N 0.53861 0.34826 0.75649 0.0
N1125 N 0.36996 0.31441 0.72064 0.0
H1126 H 0.4604 0.4369 0.74537 0.0
H1127 H 0.4087 0.40191 0.72902 0.0
H1128 H 0.34643 0.28429 0.71055 0.0
H1129 H 0.357 0.3352 0.72578 0.0
H1130 H 0.5462 0.3223 0.7578 0.0
H1131 H 0.56135 0.37818 0.76707 0.0
H1132 H 0.51748 0.27885 0.72604 0.0
H1133 H 0.4631 0.23871 0.7148 0.0
C1134 C 0.67747 0.16001 0.75264 0.0
C1135 C 0.63773 0.11806 0.74544 0.0
C1136 C 0.67455 0.10328 0.71206 0.0
C1137 C 0.71531 0.14349 0.72046 0.0
N1138 N 0.75772 0.20674 0.75084 0.0
N1139 N 0.59907 0.04696 0.72033 0.0
C1140 C 0.71735 0.17098 0.74131 0.0
C1141 C 0.6364 0.08892 0.72564 0.0
N1142 N 0.67677 0.18998 0.76988 0.0
N1143 N 0.67231 0.07911 0.69094 0.0
H1144 H 0.57048 0.03563 0.72975 0.0
H1145 H 0.59739 0.02202 0.70786 0.0
H1146 H 0.69983 0.08827 0.68084 0.0
H1147 H 0.64267 0.05201 0.68243 0.0
H1148 H 0.70296 0.2233 0.77387 0.0
H1149 H 0.64856 0.18279 0.77902 0.0
H1150 H 0.7625 0.22462 0.76763 0.0
H1151 H 0.78738 0.21669 0.74272 0.0
C1152 C 0.86536 0.52426 0.74336 0.0
C1153 C 0.90876 0.53238 0.73879 0.0
C1154 C 0.9138 0.58409 0.70832 0.0
C1155 C 0.87244 0.5794 0.71469 0.0
N1156 N 0.81143 0.55 0.7404 0.0
N1157 N 0.97643 0.57209 0.71873 0.0
C1158 C 0.8487 0.55055 0.73265 0.0
C1159 C 0.93356 0.56274 0.72165 0.0
N1160 N 0.83969 0.49082 0.75765 0.0
N1161 N 0.93374 0.60856 0.68933 0.0
H1162 H 0.99157 0.55655 0.72804 0.0
H1163 H -0.00185 0.59734 0.70842 0.0
H1164 H 0.91999 0.62461 0.6793 0.0
H1165 H 0.96182 0.61013 0.68223 0.0
H1166 H 0.80577 0.47938 0.75913 0.0
H1167 H 0.85125 0.47199 0.76674 0.0
H1168 H 0.79604 0.53446 0.75559 0.0
H1169 H 0.79752 0.56785 0.73258 0.0
C1170 C 0.49724 0.98489 0.23261 0.0
C1171 C 0.46007 0.94048 0.23345 0.0
C1172 C 0.44148 0.93675 0.18948 0.0
C1173 C 0.4817 0.97875 0.18822 0.0
N1174 N 0.55158 0.03955 0.20815 0.0
N1175 N 0.40004 0.87132 0.21212 0.0
C1176 C 0.51055 0.00201 0.2097 0.0
C1177 C 0.43292 0.91566 0.21172 0.0
N1178 N 0.51913 0.01128 0.25379 0.0
N1179 N 0.4108 0.91762 0.16958 0.0
H1180 H 0.39277 0.85466 0.22796 0.0
H1181 H 0.38243 0.84993 0.19649 0.0
H1182 H 0.41581 0.93208 0.15305 0.0
H1183 H 0.37878 0.88972 0.17005 0.0
H1184 H 0.54338 0.04556 0.25443 0.0
H1185 H 0.51004 0.00015 0.2709 0.0
H1186 H 0.57609 0.05499 0.22277 0.0
H1187 H 0.56282 0.05298 0.19175 0.0
C1188 C 0.9666 0.47512 0.23531 0.0
C1189 C 0.01168 0.50942 0.24229 0.0
C1190 C 0.0213 0.53 0.20043 0.0
C1191 C 0.97819 0.49232 0.19294 0.0
N1192 N 0.91204 0.42462 0.20252 0.0
N1193 N 0.08499 0.56292 0.23064 0.0
C1194 C 0.95128 0.46366 0.21019 0.0
C1195 C 0.03992 0.53516 0.22462 0.0
N1196 N 0.93824 0.45422 0.25269 0.0
N1197 N 0.04407 0.56147 0.18459 0.0
H1198 H 0.10036 0.56632 0.24796 0.0
H1199 H 0.10776 0.57883 0.21788 0.0
H1200 H 0.03124 0.55925 0.16673 0.0
H1201 H 0.07358 0.59202 0.18984 0.0
H1202 H 0.90384 0.43231 0.24881 0.0
H1203 H 0.94842 0.46179 0.27126 0.0
H1204 H 0.8935 0.39995 0.21401 0.0
H1205 H 0.89983 0.41496 0.18426 0.0
C1206 C 0.43981 0.45358 0.22475 0.0
C1207 C 0.43934 0.49439 0.23093 0.0
C1208 C 0.43965 0.50738 0.1877 0.0
C1209 C 0.45051 0.47266 0.18281 0.0
N1210 N 0.418 0.39488 0.19231 0.0
N1211 N 0.43392 0.55833 0.21784 0.0
C1212 C 0.43871 0.44 0.19998 0.0
C1213 C 0.43733 0.52059 0.21222 0.0
N1214 N 0.44204 0.42794 0.24236 0.0
N1215 N 0.426 0.52324 0.1688 0.0
H1216 H 0.42941 0.56749 0.23532 0.0
H1217 H 0.4378 0.58167 0.20539 0.0
H1218 H 0.42179 0.50929 0.15092 0.0
H1219 H 0.41366 0.54555 0.171 0.0
H1220 H 0.44618 0.39995 0.23839 0.0
H1221 H 0.44339 0.43668 0.26087 0.0
H1222 H 0.40559 0.36947 0.20423 0.0
H1223 H 0.40639 0.38332 0.17408 0.0
C1224 C 0.01652 0.5376 0.82284 0.0
C1225 C 0.97182 0.50352 0.81489 0.0
C1226 C 0.95879 0.48034 0.85615 0.0
C1227 C 0.00266 0.51605 0.86443 0.0
N1228 N 0.06992 0.58453 0.85691 0.0
N1229 N 0.89716 0.45 0.82457 0.0
C1230 C 0.03056 0.54654 0.84813 0.0
C1231 C 0.9419 0.47727 0.83178 0.0
N1232 N 0.04602 0.56013 0.8062 0.0
N1233 N 0.93404 0.44807 0.87122 0.0
H1234 H 0.88348 0.44726 0.80685 0.0
H1235 H 0.87303 0.43362 0.83663 0.0
H1236 H 0.94535 0.4486 0.88916 0.0
H1237 H 0.90397 0.41854 0.86531 0.0
H1238 H 0.08032 0.58159 0.81072 0.0
H1239 H 0.0368 0.55483 0.78754 0.0
H1240 H 0.08948 0.61038 0.84625 0.0
H1241 H 0.08108 0.59222 0.87537 0.0
C1242 C 0.5722 0.49733 0.83842 0.0
C1243 C 0.54602 0.49583 0.81729 0.0
C1244 C 0.49692 0.50965 0.84266 0.0
C1245 C 0.52434 0.51349 0.86377 0.0
N1246 N 0.59325 0.52051 0.88158 0.0
N1247 N 0.49064 0.51155 0.79895 0.0
C1248 C 0.56366 0.51028 0.86159 0.0
C1249 C 0.51065 0.50553 0.81934 0.0
N1250 N 0.6039 0.48453 0.83647 0.0
N1251 N 0.45658 0.50762 0.84482 0.0
H1252 H 0.50021 0.50929 0.78158 0.0
H1253 H 0.46779 0.52318 0.79948 0.0
H1254 H 0.4448 0.50983 0.86153 0.0
H1255 H 0.43295 0.49968 0.83012 0.0
H1256 H 0.62053 0.47998 0.8514 0.0
H1257 H 0.61137 0.47523 0.81984 0.0
H1258 H 0.62467 0.52328 0.88076 0.0
H1259 H 0.5881 0.53025 0.89878 0.0
C1260 C 0.56884 0.07788 0.8376 0.0
C1261 C 0.54303 0.0536 0.81546 0.0
C1262 C 0.49059 0.99138 0.83802 0.0
C1263 C 0.51772 0.01432 0.86003 0.0
N1264 N 0.58756 0.07478 0.88015 0.0
N1265 N 0.48612 0.98281 0.79403 0.0
C1266 C 0.55843 0.05621 0.85962 0.0
C1267 C 0.50602 0.00891 0.81553 0.0
N1268 N 0.60199 0.12226 0.8378 0.0
N1269 N 0.44903 0.95403 0.83863 0.0
H1270 H 0.49698 0.99428 0.77721 0.0
H1271 H 0.46196 0.94843 0.793 0.0
H1272 H 0.43596 0.94041 0.8547 0.0
H1273 H 0.42581 0.93902 0.82343 0.0
H1274 H 0.61865 0.14323 0.8537 0.0
H1275 H 0.61062 0.13934 0.82213 0.0
H1276 H 0.61977 0.10274 0.88042 0.0
H1277 H 0.58111 0.05974 0.89652 0.0
C1278 C 0.12508 0.24828 0.54583 0.0
C1279 C 0.12554 0.27403 0.56704 0.0
C1280 C 0.13952 0.33742 0.54266 0.0
C1281 C 0.14437 0.31372 0.52216 0.0
N1282 N 0.14923 0.24944 0.50538 0.0
N1283 N 0.1404 0.34598 0.58651 0.0
C1284 C 0.13912 0.26985 0.52404 0.0
C1285 C 0.13463 0.31941 0.56569 0.0
N1286 N 0.1099 0.2028 0.54628 0.0
N1287 N 0.13818 0.37649 0.53998 0.0
H1288 H 0.13753 0.33428 0.60373 0.0
H1289 H 0.15191 0.38073 0.58692 0.0
H1290 H 0.14119 0.39051 0.52339 0.0
H1291 H 0.12996 0.39266 0.55363 0.0
H1292 H 0.10443 0.18129 0.53078 0.0
H1293 H 0.09857 0.18563 0.56175 0.0
H1294 H 0.15075 0.21978 0.50674 0.0
H1295 H 0.16016 0.26428 0.48925 0.0
C1296 C 0.71064 0.83027 0.55396 0.0
C1297 C 0.68285 0.83024 0.57202 0.0
C1298 C 0.62384 0.8167 0.54048 0.0
C1299 C 0.65025 0.81318 0.52257 0.0
N1300 N 0.7142 0.8064 0.51253 0.0
N1301 N 0.61005 0.81467 0.58303 0.0
C1302 C 0.6923 0.81684 0.5294 0.0
C1303 C 0.63846 0.82074 0.56544 0.0
N1304 N 0.75509 0.84511 0.56006 0.0
N1305 N 0.58582 0.81814 0.53368 0.0
H1306 H 0.61966 0.81717 0.60151 0.0
H1307 H 0.57595 0.80314 0.57921 0.0
H1308 H 0.57417 0.81571 0.51556 0.0
H1309 H 0.56793 0.82564 0.54593 0.0
H1310 H 0.77793 0.85056 0.54723 0.0
H1311 H 0.7702 0.85599 0.57781 0.0
H1312 H 0.74265 0.80393 0.51701 0.0
H1313 H 0.70155 0.7959 0.49436 0.0
C1314 C 0.09276 0.84118 0.54714 0.0
C1315 C 0.11223 0.83023 0.56707 0.0
C1316 C 0.13278 0.78749 0.53851 0.0
C1317 C 0.12454 0.80879 0.51907 0.0
N1318 N 0.06262 0.81863 0.5052 0.0
N1319 N 0.1484 0.78961 0.58185 0.0
C1320 C 0.0947 0.82553 0.52312 0.0
C1321 C 0.13128 0.80209 0.56281 0.0
N1322 N 0.07291 0.8669 0.55098 0.0
N1323 N 0.13494 0.7489 0.53361 0.0
H1324 H 0.14648 0.79811 0.59997 0.0
H1325 H 0.16692 0.77322 0.57947 0.0
H1326 H 0.12867 0.73345 0.51592 0.0
H1327 H 0.13666 0.7293 0.54704 0.0
H1328 H 0.06213 0.87926 0.53681 0.0
H1329 H 0.07007 0.87834 0.56832 0.0
H1330 H 0.03741 0.82656 0.5078 0.0
H1331 H 0.05719 0.79828 0.48915 0.0
C1332 C 0.67711 0.86767 0.15244 0.0
C1333 C 0.62972 0.84435 0.14741 0.0
C1334 C 0.62267 0.86279 0.18965 0.0
C1335 C 0.66758 0.87358 0.19573 0.0
N1336 N 0.73887 0.92205 0.18075 0.0
N1337 N 0.5566 0.82137 0.16132 0.0
C1338 C 0.69601 0.88648 0.17656 0.0
C1339 C 0.60221 0.84289 0.16596 0.0
N1340 N 0.70405 0.87164 0.1344 0.0
N1341 N 0.60216 0.87765 0.20513 0.0
H1342 H 0.54004 0.80611 0.1442 0.0
H1343 H 0.53525 0.81588 0.17502 0.0
H1344 H 0.61953 0.89861 0.221 0.0
H1345 H 0.57081 0.87437 0.20065 0.0
H1346 H 0.73846 0.8842 0.13782 0.0
H1347 H 0.69156 0.85997 0.11629 0.0
H1348 H 0.76004 0.93579 0.16701 0.0
H1349 H 0.7505 0.94158 0.1975 0.0
C1350 C 0.16854 0.84586 0.14827 0.0
C1351 C 0.20567 0.83953 0.1448 0.0
C1352 C 0.22731 0.85518 0.18879 0.0
C1353 C 0.18642 0.85446 0.19246 0.0
N1354 N 0.11495 0.8431 0.17571 0.0
N1355 N 0.26873 0.8342 0.16181 0.0
C1356 C 0.15631 0.84859 0.17219 0.0
C1357 C 0.23493 0.84353 0.16506 0.0
N1358 N 0.14521 0.84972 0.12864 0.0
N1359 N 0.25917 0.8678 0.20792 0.0
H1360 H 0.27568 0.82606 0.14474 0.0
H1361 H 0.28789 0.8314 0.17611 0.0
H1362 H 0.25474 0.87677 0.22546 0.0
H1363 H 0.29142 0.87337 0.20602 0.0
H1364 H 0.12061 0.85885 0.13013 0.0
H1365 H 0.15357 0.84824 0.11088 0.0
H1366 H 0.08975 0.83357 0.16166 0.0
H1367 H 0.10419 0.84408 0.19288 0.0
C1368 C 0.20487 0.41116 0.17271 0.0
C1369 C 0.20424 0.38488 0.15169 0.0
C1370 C 0.18744 0.32108 0.17635 0.0
C1371 C 0.18252 0.34537 0.19655 0.0
N1372 N 0.17972 0.41116 0.21281 0.0
N1373 N 0.1886 0.3124 0.13263 0.0
C1374 C 0.18953 0.38988 0.19445 0.0
C1375 C 0.19397 0.33918 0.15328 0.0
N1376 N 0.22124 0.45683 0.17208 0.0
N1377 N 0.18714 0.28129 0.17935 0.0
H1378 H 0.19291 0.32424 0.11541 0.0
H1379 H 0.17621 0.27751 0.13227 0.0
H1380 H 0.18283 0.26719 0.19597 0.0
H1381 H 0.19527 0.26448 0.16601 0.0
H1382 H 0.22692 0.47867 0.18747 0.0
H1383 H 0.23327 0.4737 0.1566 0.0
H1384 H 0.17942 0.44141 0.21123 0.0
H1385 H 0.16787 0.39662 0.22888 0.0
C1386 C 0.81041 0.65661 0.90297 0.0
C1387 C 0.78668 0.60855 0.90288 0.0
C1388 C 0.76556 0.60277 0.85916 0.0
C1389 C 0.79818 0.64943 0.85835 0.0
N1390 N 0.81634 0.71916 0.88173 0.0
N1391 N 0.74001 0.53507 0.88055 0.0
C1392 C 0.81129 0.67669 0.88092 0.0
C1393 C 0.76362 0.58136 0.88088 0.0
N1394 N 0.83218 0.68334 0.92402 0.0
N1395 N 0.73139 0.58142 0.8411 0.0
H1396 H 0.73699 0.51811 0.89613 0.0
H1397 H 0.72633 0.51374 0.86447 0.0
H1398 H 0.72665 0.5993 0.82757 0.0
H1399 H 0.70437 0.54868 0.84171 0.0
H1400 H 0.85358 0.71838 0.92441 0.0
H1401 H 0.83136 0.67012 0.94071 0.0
H1402 H 0.82185 0.7391 0.89791 0.0
H1403 H 0.80792 0.73108 0.86644 0.0
C1404 C 0.29686 0.17523 0.89954 0.0
C1405 C 0.3158 0.14976 0.90885 0.0
C1406 C 0.29798 0.10672 0.86917 0.0
C1407 C 0.29085 0.14014 0.85876 0.0
N1408 N 0.28019 0.20509 0.86422 0.0
N1409 N 0.29353 0.0704 0.90595 0.0
C1410 C 0.28862 0.17374 0.87402 0.0
C1411 C 0.30516 0.10904 0.89481 0.0
N1412 N 0.28171 0.19598 0.91513 0.0
N1413 N 0.29806 0.0729 0.85475 0.0
H1414 H 0.289 0.0693 0.92447 0.0
H1415 H 0.28173 0.03869 0.89644 0.0
H1416 H 0.29143 0.06906 0.83589 0.0
H1417 H 0.3075 0.05056 0.8616 0.0
H1418 H 0.26381 0.21162 0.90935 0.0
H1419 H 0.28247 0.19233 0.93375 0.0
H1420 H 0.28299 0.23309 0.87453 0.0
H1421 H 0.27343 0.20479 0.84558 0.0
C1422 C 0.7644 0.16732 0.88023 0.0
C1423 C 0.78945 0.16568 0.90104 0.0
C1424 C 0.83936 0.15508 0.87469 0.0
C1425 C 0.81262 0.15367 0.85384 0.0
N1426 N 0.74411 0.14853 0.83677 0.0
N1427 N 0.84356 0.14672 0.91781 0.0
C1428 C 0.77336 0.15674 0.85662 0.0
C1429 C 0.8247 0.15601 0.89815 0.0
N1430 N 0.7335 0.18099 0.8829 0.0
N1431 N 0.87988 0.15772 0.87224 0.0
H1432 H 0.83305 0.14616 0.9352 0.0
H1433 H 0.86629 0.13505 0.91644 0.0
H1434 H 0.89242 0.15803 0.85546 0.0
H1435 H 0.90296 0.16389 0.88695 0.0
H1436 H 0.71769 0.18751 0.86836 0.0
H1437 H 0.72632 0.18951 0.8998 0.0
H1438 H 0.7127 0.14563 0.83795 0.0
H1439 H 0.74943 0.14041 0.81927 0.0
C1440 C 0.34145 0.19515 0.48857 0.0
C1441 C 0.29912 0.15828 0.47903 0.0
C1442 C 0.27624 0.14609 0.52035 0.0
C1443 C 0.32164 0.17539 0.52968 0.0
N1444 N 0.38011 0.25045 0.52294 0.0
N1445 N 0.22476 0.09887 0.48586 0.0
C1446 C 0.34992 0.2069 0.51396 0.0
C1447 C 0.26603 0.13364 0.49492 0.0
N1448 N 0.3739 0.21868 0.47352 0.0
N1449 N 0.24256 0.13792 0.53476 0.0
H1450 H 0.21543 0.08975 0.46728 0.0
H1451 H 0.20119 0.07722 0.49698 0.0
H1452 H 0.24915 0.15554 0.55189 0.0
H1453 H 0.20864 0.12004 0.5284 0.0
H1454 H 0.40659 0.24321 0.48009 0.0
H1455 H 0.36928 0.21091 0.45472 0.0
H1456 H 0.39867 0.27611 0.51191 0.0
H1457 H 0.38165 0.26189 0.54106 0.0
C1458 C 0.83556 0.16998 0.4814 0.0
C1459 C 0.87075 0.15998 0.47935 0.0
C1460 C 0.88788 0.1736 0.52367 0.0
C1461 C 0.84876 0.17715 0.52586 0.0
N1462 N 0.78155 0.17235 0.50688 0.0
N1463 N 0.92717 0.14661 0.49867 0.0
C1464 C 0.82166 0.17389 0.50473 0.0
C1465 C 0.89629 0.16053 0.50052 0.0
N1466 N 0.81595 0.17651 0.46104 0.0
N1467 N 0.91754 0.18377 0.54361 0.0
H1468 H 0.93435 0.13675 0.4821 0.0
H1469 H 0.9431 0.14136 0.51367 0.0
H1470 H 0.91268 0.19386 0.5608 0.0
H1471 H 0.94886 0.18635 0.5427 0.0
H1472 H 0.79326 0.18835 0.46158 0.0
H1473 H 0.82566 0.17437 0.44369 0.0
H1474 H 0.75813 0.16495 0.49214 0.0
H1475 H 0.76975 0.17445 0.52359 0.0
C1476 C 0.90024 0.75344 0.50549 0.0
C1477 C 0.87499 0.72703 0.48361 0.0
C1478 C 0.82532 0.66544 0.5076 0.0
C1479 C 0.85286 0.69002 0.52926 0.0
N1480 N 0.9219 0.75384 0.54805 0.0
N1481 N 0.82045 0.65342 0.46375 0.0
C1482 C 0.89194 0.73304 0.52798 0.0
C1483 C 0.83955 0.68169 0.48466 0.0
N1484 N 0.93092 0.79852 0.50501 0.0
N1485 N 0.78456 0.6274 0.50891 0.0
H1486 H 0.83101 0.6634 0.44668 0.0
H1487 H 0.79758 0.61879 0.46361 0.0
H1488 H 0.7723 0.61483 0.52531 0.0
H1489 H 0.76106 0.61098 0.49392 0.0
H1490 H 0.947 0.82058 0.52064 0.0
H1491 H 0.93747 0.81491 0.48908 0.0
H1492 H 0.95326 0.78274 0.54761 0.0
H1493 H 0.91722 0.73984 0.56471 0.0
loop_
_geom_bond_atom_site_label_1
_geom_bond_atom_site_label_2
_geom_bond_distance
_geom_bond_site_symmetry_2
_ccdc_geom_bond_type
H0 C3 0.931 . S
H1 C6 0.928 . S
H2 C8 0.930 . S
C3 H0 0.931 . S
C3 C4 1.413 . S
C3 C5 1.360 . S
C4 C3 1.413 . S
C4 C8 1.429 . S
C5 C3 1.360 . S
C5 C6 1.372 . S
C6 H1 0.928 . S
C6 C5 1.372 . S
C6 C7 1.404 . S
C7 C6 1.404 . S
C7 C8 1.391 . S
C8 H2 0.930 . S
C8 C4 1.429 . S
C8 C7 1.391 . S
H9 C12 0.931 . S
H10 C15 0.928 . S
H11 C17 0.930 . S
C12 H9 0.931 . S
C12 C13 1.413 . S
C12 C14 1.360 . S
C13 C12 1.413 . S
C13 C17 1.429 . S
C14 C12 1.360 . S
C14 C15 1.372 . S
C15 H10 0.928 . S
C15 C14 1.372 . S
C15 C16 1.404 . S
C16 C15 1.404 . S
C16 C17 1.391 . S
C17 H11 0.930 . S
C17 C13 1.429 . S
C17 C16 1.391 . S
H18 C21 0.931 . S
H19 C24 0.928 . S
H20 C26 0.930 . S
C21 H18 0.931 . S
C21 C22 1.413 . S
C21 C23 1.360 . S
C22 C21 1.413 . S
C22 C26 1.429 . S
C23 C21 1.360 . S
C23 C24 1.372 . S
C24 H19 0.928 . S
C24 C23 1.372 . S
C24 C25 1.404 . S
C25 C24 1.404 . S
C25 C26 1.391 . S
C26 H20 0.930 . S
C26 C22 1.429 . S
C26 C25 1.391 . S
H27 C30 0.931 . S
H28 C33 0.928 . S
H29 C35 0.930 . S
C30 H27 0.931 . S
C30 C31 1.413 . S
C30 C32 1.360 . S
C31 C30 1.413 . S
C31 C35 1.429 . S
C32 C30 1.360 . S
C32 C33 1.372 . S
C33 H28 0.928 . S
C33 C32 1.372 . S
C33 C34 1.404 . S
C34 C33 1.404 . S
C34 C35 1.391 . S
C35 H29 0.930 . S
C35 C31 1.429 . S
C35 C34 1.391 . S
H36 C39 0.931 . S
H37 C42 0.928 . S
H38 C44 0.930 . S
C39 H36 0.931 . S
C39 C40 1.413 . S
C39 C41 1.360 . S
C40 C39 1.413 . S
C40 C44 1.429 . S
C41 C39 1.360 . S
C41 C42 1.372 . S
C42 H37 0.928 . S
C42 C41 1.372 . S
C42 C43 1.404 . S
C43 C42 1.404 . S
C43 C44 1.391 . S
C44 H38 0.930 . S
C44 C40 1.429 . S
C44 C43 1.391 . S
H45 C48 0.931 . S
H46 C51 0.928 . S
H47 C53 0.930 . S
C48 H45 0.931 . S
C48 C49 1.413 . S
C48 C50 1.360 . S
C49 C48 1.413 . S
C49 C53 1.429 . S
C50 C48 1.360 . S
C50 C51 1.372 . S
C51 H46 0.928 . S
C51 C50 1.372 . S
C51 C52 1.404 . S
C52 C51 1.404 . S
C52 C53 1.391 . S
C53 H47 0.930 . S
C53 C49 1.429 . S
C53 C52 1.391 . S
H54 C57 0.931 . S
H55 C60 0.928 . S
H56 C62 0.930 . S
C57 H54 0.931 . S
C57 C58 1.413 . S
C57 C59 1.360 . S
C58 C57 1.413 . S
C58 C62 1.429 . S
C59 C57 1.360 . S
C59 C60 1.372 . S
C60 H55 0.928 . S
C60 C59 1.372 . S
C60 C61 1.404 . S
C61 C60 1.404 . S
C61 C62 1.391 . S
C62 H56 0.930 . S
C62 C58 1.429 . S
C62 C61 1.391 . S
H63 C66 0.931 . S
H64 C69 0.928 . S
H65 C71 0.930 . S
C66 H63 0.931 . S
C66 C67 1.413 . S
C66 C68 1.360 . S
C67 C66 1.413 . S
C67 C71 1.429 . S
C68 C66 1.360 . S
C68 C69 1.372 . S
C69 H64 0.928 . S
C69 C68 1.372 . S
C69 C70 1.404 . S
C70 C69 1.404 . S
C70 C71 1.391 . S
C71 H65 0.930 . S
C71 C67 1.429 . S
C71 C70 1.391 . S
H72 C75 0.931 . S
H73 C78 0.928 . S
H74 C80 0.930 . S
C75 H72 0.931 . S
C75 C76 1.413 . S
C75 C77 1.360 . S
C76 C75 1.413 . S
C76 C80 1.429 . S
C77 C75 1.360 . S
C77 C78 1.372 . S
C78 H73 0.928 . S
C78 C77 1.372 . S
C78 C79 1.404 . S
C79 C78 1.404 . S
C79 C80 1.391 . S
C80 H74 0.930 . S
C80 C76 1.429 . S
C80 C79 1.391 . S
H81 C84 0.931 . S
H82 C87 0.928 . S
H83 C89 0.930 . S
C84 H81 0.931 . S
C84 C85 1.413 . S
C84 C86 1.360 . S
C85 C84 1.413 . S
C85 C89 1.429 . S
C86 C84 1.360 . S
C86 C87 1.372 . S
C87 H82 0.928 . S
C87 C86 1.372 . S
C87 C88 1.404 . S
C88 C87 1.404 . S
C88 C89 1.391 . S
C89 H83 0.930 . S
C89 C85 1.429 . S
C89 C88 1.391 . S
H90 C93 0.931 . S
H91 C96 0.928 . S
H92 C98 0.930 . S
C93 H90 0.931 . S
C93 C94 1.413 . S
C93 C95 1.360 . S
C94 C93 1.413 . S
C94 C98 1.429 . S
C95 C93 1.360 . S
C95 C96 1.372 . S
C96 H91 0.928 . S
C96 C95 1.372 . S
C96 C97 1.404 . S
C97 C96 1.404 . S
C97 C98 1.391 . S
C98 H92 0.930 . S
C98 C94 1.429 . S
C98 C97 1.391 . S
H99 C102 0.931 . S
H100 C105 0.928 . S
H101 C107 0.930 . S
C102 H99 0.931 . S
C102 C103 1.413 . S
C102 C104 1.360 . S
C103 C102 1.413 . S
C103 C107 1.429 . S
C104 C102 1.360 . S
C104 C105 1.372 . S
C105 H100 0.928 . S
C105 C104 1.372 . S
C105 C106 1.404 . S
C106 C105 1.404 . S
C106 C107 1.391 . S
C107 H101 0.930 . S
C107 C103 1.429 . S
C107 C106 1.391 . S
H108 C111 0.931 . S
H109 C114 0.928 . S
H110 C116 0.930 . S
C111 H108 0.931 . S
C111 C112 1.413 . S
C111 C113 1.360 . S
C112 C111 1.413 . S
C112 C116 1.429 . S
C113 C111 1.360 . S
C113 C114 1.372 . S
C114 H109 0.928 . S
C114 C113 1.372 . S
C114 C115 1.404 . S
C115 C114 1.404 . S
C115 C116 1.391 . S
C116 H110 0.930 . S
C116 C112 1.429 . S
C116 C115 1.391 . S
H117 C120 0.931 . S
H118 C123 0.928 . S
H119 C125 0.930 . S
C120 H117 0.931 . S
C120 C121 1.413 . S
C120 C122 1.360 . S
C121 C120 1.413 . S
C121 C125 1.429 . S
C122 C120 1.360 . S
C122 C123 1.372 . S
C123 H118 0.928 . S
C123 C122 1.372 . S
C123 C124 1.404 . S
C124 C123 1.404 . S
C124 C125 1.391 . S
C125 H119 0.930 . S
C125 C121 1.429 . S
C125 C124 1.391 . S
H126 C129 0.931 . S
H127 C132 0.928 . S
H128 C134 0.930 . S
C129 H126 0.931 . S
C129 C130 1.413 . S
C129 C131 1.360 . S
C130 C129 1.413 . S
C130 C134 1.429 . S
C131 C129 1.360 . S
C131 C132 1.372 . S
C132 H127 0.928 . S
C132 C131 1.372 . S
C132 C133 1.404 . S
C133 C132 1.404 . S
C133 C134 1.391 . S
C134 H128 0.930 . S
C134 C130 1.429 . S
C134 C133 1.391 . S
H135 C138 0.931 . S
H136 C141 0.928 . S
H137 C143 0.930 . S
C138 H135 0.931 . S
C138 C139 1.413 . S
C138 C140 1.360 . S
C139 C138 1.413 . S
C139 C143 1.429 . S
C140 C138 1.360 . S
C140 C141 1.372 . S
C141 H136 0.928 . S
C141 C140 1.372 . S
C141 C142 1.404 . S
C142 C141 1.404 . S
C142 C143 1.391 . S
C143 H137 0.930 . S
C143 C139 1.429 . S
C143 C142 1.391 . S
H144 C147 0.931 . S
H145 C150 0.928 . S
H146 C152 0.930 . S
C147 H144 0.931 . S
C147 C148 1.413 . S
C147 C149 1.360 . S
C148 C147 1.413 . S
C148 C152 1.429 . S
C149 C147 1.360 . S
C149 C150 1.372 . S
C150 H145 0.928 . S
C150 C149 1.372 . S
C150 C151 1.404 . S
C151 C150 1.404 . S
C151 C152 1.391 . S
C152 H146 0.930 . S
C152 C148 1.429 . S
C152 C151 1.391 . S
H153 C156 0.931 . S
H154 C159 0.928 . S
H155 C161 0.930 . S
C156 H153 0.931 . S
C156 C157 1.413 . S
C156 C158 1.360 . S
C157 C156 1.413 . S
C157 C161 1.429 . S
C158 C156 1.360 . S
C158 C159 1.372 . S
C159 H154 0.928 . S
C159 C158 1.372 . S
C159 C160 1.404 . S
C160 C159 1.404 . S
C160 C161 1.391 . S
C161 H155 0.930 . S
C161 C157 1.429 . S
C161 C160 1.391 . S
Tb162 C172 2.825 . S
Tb162 O173 2.347 1_565 S
Tb162 O176 2.366 1_565 S
Tb162 O181 2.418 . S
Tb162 O182 2.411 . S
Tb162 O185 2.479 . S
Tb162 O186 2.471 . S
Eu163 O174 2.418 . S
Eu163 O175 2.384 . S
Eu163 O178 2.479 . S
Eu163 O179 2.471 . S
Eu163 O180 2.347 1_545 S
Eu163 O183 2.366 1_545 S
Eu163 C193 2.825 . S
C164 O180 1.259 . S
C164 O181 1.265 1_554 S
C165 O182 1.224 1_554 S
C165 O183 1.265 . S
C166 C168 1.380 . S
C166 C169 1.374 1_565 S
C166 C172 1.507 . S
C167 C168 1.384 . S
C167 C171 1.387 1_565 S
C167 H194 0.930 . S
C168 C166 1.380 . S
C168 C167 1.384 . S
C168 H195 0.931 . S
C169 C166 1.374 1_545 S
C169 C170 1.390 . S
C169 H196 0.930 . S
C170 C169 1.390 . S
C170 C171 1.391 . S
C170 H197 0.930 . S
C171 C167 1.387 1_545 S
C171 C170 1.391 . S
C172 Tb162 2.825 . S
C172 C166 1.507 . S
C172 O185 1.238 . S
C172 O186 1.247 . S
O173 Tb162 2.347 1_545 S
O173 C177 1.259 . S
O174 Eu163 2.418 . S
O174 C177 1.265 1_554 S
O175 Eu163 2.384 . S
O175 C184 1.255 1_554 S
O176 Tb162 2.366 1_545 S
O176 C184 1.265 . S
C177 O173 1.259 . S
C177 O174 1.265 1_556 S
O178 Eu163 2.479 . S
O178 C193 1.238 . S
O179 Eu163 2.471 . S
O179 C193 1.247 . S
O180 Eu163 2.347 1_565 S
O180 C164 1.259 . S
O181 Tb162 2.418 . S
O181 C164 1.265 1_556 S
O182 Tb162 2.411 . S
O182 C165 1.224 1_556 S
O183 Eu163 2.366 1_565 S
O183 C165 1.265 . S
C184 O175 1.255 1_556 S
C184 O176 1.265 . S
O185 Tb162 2.479 . S
O185 C172 1.238 . S
O186 Tb162 2.471 . S
O186 C172 1.247 . S
C187 C190 1.380 . S
C187 C191 1.374 1_545 S
C187 C193 1.507 . S
C188 C189 1.365 1_565 S
C188 C192 1.410 . S
C189 C188 1.365 1_545 S
C189 C190 1.384 . S
C189 H198 0.930 . S
C190 C187 1.380 . S
C190 C189 1.384 . S
C190 H199 0.931 . S
C191 C187 1.374 1_565 S
C191 C192 1.390 . S
C191 H200 0.930 . S
C192 C188 1.410 . S
C192 C191 1.390 . S
C192 H201 0.930 . S
C193 Eu163 2.825 . S
C193 O178 1.238 . S
C193 O179 1.247 . S
C193 C187 1.507 . S
H194 C167 0.930 . S
H195 C168 0.931 . S
H196 C169 0.930 . S
H197 C170 0.930 . S
H198 C189 0.930 . S
H199 C190 0.931 . S
H200 C191 0.930 . S
H201 C192 0.930 . S
Tb202 C212 2.825 . S
Tb202 O213 2.347 1_455 S
Tb202 O216 2.366 1_455 S
Tb202 O221 2.418 . S
Tb202 O222 2.384 1_556 S
Tb202 O225 2.479 . S
Tb202 O226 2.471 1_455 S
Eu203 O214 2.418 . S
Eu203 O215 2.384 1_554 S
Eu203 O218 2.479 . S
Eu203 O219 2.471 1_655 S
Eu203 O220 2.347 1_655 S
Eu203 O223 2.366 1_655 S
Eu203 C233 2.825 . S
C204 O220 1.259 . S
C204 O221 1.265 1_554 S
C205 O222 1.255 . S
C205 O223 1.265 . S
C206 C208 1.380 . S
C206 C209 1.374 1_455 S
C206 C212 1.507 . S
C207 C208 1.384 . S
C207 C211 1.387 1_455 S
C207 H234 0.930 . S
C208 C206 1.380 . S
C208 C207 1.384 . S
C208 H235 0.931 . S
C209 C206 1.374 1_655 S
C209 C210 1.390 . S
C209 H236 0.930 . S
C210 C209 1.390 . S
C210 C211 1.391 . S
C210 H237 0.930 . S
C211 C207 1.387 1_655 S
C211 C210 1.391 . S
C212 Tb202 2.825 . S
C212 C206 1.507 . S
C212 O225 1.238 . S
C212 O226 1.247 1_455 S
O213 Tb202 2.347 1_655 S
O213 C217 1.259 . S
O214 Eu203 2.418 . S
O214 C217 1.265 1_554 S
O215 Eu203 2.384 1_556 S
O215 C224 1.255 . S
O216 Tb202 2.366 1_655 S
O216 C224 1.265 . S
C217 O213 1.259 . S
C217 O214 1.265 1_556 S
O218 Eu203 2.479 . S
O218 C233 1.238 . S
O219 Eu203 2.471 1_455 S
O219 C233 1.247 1_455 S
O220 Eu203 2.347 1_455 S
O220 C204 1.259 . S
O221 Tb202 2.418 . S
O221 C204 1.265 1_556 S
O222 Tb202 2.384 1_554 S
O222 C205 1.255 . S
O223 Eu203 2.366 1_455 S
O223 C205 1.265 . S
C224 O215 1.255 . S
C224 O216 1.265 . S
O225 Tb202 2.479 . S
O225 C212 1.238 . S
O226 Tb202 2.471 1_655 S
O226 C212 1.247 1_655 S
C227 C230 1.380 . S
C227 C231 1.374 1_655 S
C227 C233 1.507 . S
C228 C229 1.387 1_455 S
C228 C232 1.391 . S
C229 C228 1.387 1_655 S
C229 C230 1.384 . S
C229 H238 0.930 . S
C230 C227 1.380 . S
C230 C229 1.384 . S
C230 H239 0.931 . S
C231 C227 1.374 1_455 S
C231 C232 1.390 . S
C231 H240 0.930 . S
C232 C228 1.391 . S
C232 C231 1.390 . S
C232 H241 0.930 . S
C233 Eu203 2.825 . S
C233 O218 1.238 . S
C233 O219 1.247 1_655 S
C233 C227 1.507 . S
H234 C207 0.930 . S
H235 C208 0.931 . S
H236 C209 0.930 . S
H237 C210 0.930 . S
H238 C229 0.930 . S
H239 C230 0.931 . S
H240 C231 0.930 . S
H241 C232 0.930 . S
Tb242 C252 2.825 . S
Tb242 O253 2.347 . S
Tb242 O256 2.366 . S
Tb242 O261 2.418 . S
Tb242 O262 2.420 . S
Tb242 O265 2.479 . S
Tb242 O266 2.471 . S
Eu243 O254 2.418 . S
Eu243 O255 2.384 1_556 S
Eu243 O258 2.479 . S
Eu243 O259 2.471 . S
Eu243 O260 2.347 . S
Eu243 O263 2.366 . S
Eu243 C273 2.825 . S
C244 O260 1.259 . S
C244 O261 1.265 1_556 S
C245 O262 1.214 1_556 S
C245 O263 1.265 . S
C246 C248 1.380 . S
C246 C249 1.374 . S
C246 C252 1.507 . S
C247 C248 1.384 . S
C247 C251 1.387 . S
C247 H274 0.930 . S
C248 C246 1.380 . S
C248 C247 1.384 . S
C248 H275 0.931 . S
C249 C246 1.374 . S
C249 C250 1.390 . S
C249 H276 0.930 . S
C250 C249 1.390 . S
C250 C251 1.391 . S
C250 H277 0.930 . S
C251 C247 1.387 . S
C251 C250 1.391 . S
C252 Tb242 2.825 . S
C252 C246 1.507 . S
C252 O265 1.238 . S
C252 O266 1.247 . S
O253 Tb242 2.347 . S
O253 C257 1.259 . S
O254 Eu243 2.418 . S
O254 C257 1.265 1_556 S
O255 Eu243 2.384 1_554 S
O255 C264 1.255 . S
O256 Tb242 2.366 . S
O256 C264 1.265 . S
C257 O253 1.259 . S
C257 O254 1.265 1_554 S
O258 Eu243 2.479 . S
O258 C273 1.238 . S
O259 Eu243 2.471 . S
O259 C273 1.247 . S
O260 Eu243 2.347 . S
O260 C244 1.259 . S
O261 Tb242 2.418 . S
O261 C244 1.265 1_554 S
O262 Tb242 2.420 . S
O262 C245 1.214 1_554 S
O263 Eu243 2.366 . S
O263 C245 1.265 . S
C264 O255 1.255 . S
C264 O256 1.265 . S
O265 Tb242 2.479 . S
O265 C252 1.238 . S
O266 Tb242 2.471 . S
O266 C252 1.247 . S
C267 C270 1.380 . S
C267 C271 1.374 . S
C267 C273 1.507 . S
C268 C269 1.387 . S
C268 C272 1.391 . S
C269 C268 1.387 . S
C269 C270 1.384 . S
C269 H278 0.930 . S
C270 C267 1.380 . S
C270 C269 1.384 . S
C270 H279 0.931 . S
C271 C267 1.374 . S
C271 C272 1.390 . S
C271 H280 0.930 . S
C272 C268 1.391 . S
C272 C271 1.390 . S
C272 H281 0.930 . S
C273 Eu243 2.825 . S
C273 O258 1.238 . S
C273 O259 1.247 . S
C273 C267 1.507 . S
H274 C247 0.930 . S
H275 C248 0.931 . S
H276 C249 0.930 . S
H277 C250 0.930 . S
H278 C269 0.930 . S
H279 C270 0.931 . S
H280 C271 0.930 . S
H281 C272 0.930 . S
Tb282 C292 2.825 . S
Tb282 O293 2.347 . S
Tb282 O296 2.366 . S
Tb282 O301 2.418 . S
Tb282 O302 2.384 . S
Tb282 O305 2.479 . S
Tb282 O306 2.471 . S
Eu283 O294 2.418 . S
Eu283 O295 2.384 . S
Eu283 O298 2.479 . S
Eu283 O299 2.471 . S
Eu283 O300 2.347 . S
Eu283 O303 2.366 . S
Eu283 C313 2.825 . S
C284 O300 1.259 . S
C284 O301 1.265 . S
C285 O302 1.255 . S
C285 O303 1.265 . S
C286 C288 1.380 . S
C286 C289 1.374 . S
C286 C292 1.507 . S
C287 C288 1.384 . S
C287 C291 1.387 . S
C287 H314 0.930 . S
C288 C286 1.380 . S
C288 C287 1.384 . S
C288 H315 0.931 . S
C289 C286 1.374 . S
C289 C290 1.390 . S
C289 H316 0.930 . S
C290 C289 1.390 . S
C290 C291 1.391 . S
C290 H317 0.930 . S
C291 C287 1.387 . S
C291 C290 1.391 . S
C292 Tb282 2.825 . S
C292 C286 1.507 . S
C292 O305 1.238 . S
C292 O306 1.247 . S
O293 Tb282 2.347 . S
O293 C297 1.259 . S
O294 Eu283 2.418 . S
O294 C297 1.265 . S
O295 Eu283 2.384 . S
O295 C304 1.255 . S
O296 Tb282 2.366 . S
O296 C304 1.265 . S
C297 O293 1.259 . S
C297 O294 1.265 . S
O298 Eu283 2.479 . S
O298 C313 1.238 . S
O299 Eu283 2.471 . S
O299 C313 1.247 . S
O300 Eu283 2.347 . S
O300 C284 1.259 . S
O301 Tb282 2.418 . S
O301 C284 1.265 . S
O302 Tb282 2.384 . S
O302 C285 1.255 . S
O303 Eu283 2.366 . S
O303 C285 1.265 . S
C304 O295 1.255 . S
C304 O296 1.265 . S
O305 Tb282 2.479 . S
O305 C292 1.238 . S
O306 Tb282 2.471 . S
O306 C292 1.247 . S
C307 C310 1.380 . S
C307 C311 1.374 . S
C307 C313 1.507 . S
C308 C309 1.387 . S
C308 C312 1.391 . S
C309 C308 1.387 . S
C309 C310 1.384 . S
C309 H318 0.930 . S
C310 C307 1.380 . S
C310 C309 1.384 . S
C310 H319 0.931 . S
C311 C307 1.374 . S
C311 C312 1.390 . S
C311 H320 0.930 . S
C312 C308 1.391 . S
C312 C311 1.390 . S
C312 H321 0.930 . S
C313 Eu283 2.825 . S
C313 O298 1.238 . S
C313 O299 1.247 . S
C313 C307 1.507 . S
H314 C287 0.930 . S
H315 C288 0.931 . S
H316 C289 0.930 . S
H317 C290 0.930 . S
H318 C309 0.930 . S
H319 C310 0.931 . S
H320 C311 0.930 . S
H321 C312 0.930 . S
Tb322 C332 2.825 . S
Tb322 O333 2.347 . S
Tb322 O336 2.366 . S
Tb322 O341 2.418 . S
Tb322 O342 2.384 . S
Tb322 O345 2.479 . S
Tb322 O346 2.471 . S
Eu323 O334 2.418 . S
Eu323 O335 2.384 . S
Eu323 O338 2.479 . S
Eu323 O339 2.471 . S
Eu323 O340 2.347 . S
Eu323 O343 2.366 . S
Eu323 C353 2.825 . S
C324 O340 1.259 . S
C324 O341 1.265 . S
C325 O342 1.255 . S
C325 O343 1.265 . S
C326 C328 1.380 . S
C326 C329 1.374 . S
C326 C332 1.507 . S
C327 C328 1.384 . S
C327 C331 1.387 . S
C327 H354 0.930 . S
C328 C326 1.380 . S
C328 C327 1.384 . S
C328 H355 0.931 . S
C329 C326 1.374 . S
C329 C330 1.390 . S
C329 H356 0.930 . S
C330 C329 1.390 . S
C330 C331 1.391 . S
C330 H357 0.930 . S
C331 C327 1.387 . S
C331 C330 1.391 . S
C332 Tb322 2.825 . S
C332 C326 1.507 . S
C332 O345 1.238 . S
C332 O346 1.247 . S
O333 Tb322 2.347 . S
O333 C337 1.259 . S
O334 Eu323 2.418 . S
O334 C337 1.265 . S
O335 Eu323 2.384 . S
O335 C344 1.255 . S
O336 Tb322 2.366 . S
O336 C344 1.265 . S
C337 O333 1.259 . S
C337 O334 1.265 . S
O338 Eu323 2.479 . S
O338 C353 1.238 . S
O339 Eu323 2.471 . S
O339 C353 1.247 . S
O340 Eu323 2.347 . S
O340 C324 1.259 . S
O341 Tb322 2.418 . S
O341 C324 1.265 . S
O342 Tb322 2.384 . S
O342 C325 1.255 . S
O343 Eu323 2.366 . S
O343 C325 1.265 . S
C344 O335 1.255 . S
C344 O336 1.265 . S
O345 Tb322 2.479 . S
O345 C332 1.238 . S
O346 Tb322 2.471 . S
O346 C332 1.247 . S
C347 C350 1.380 . S
C347 C351 1.374 . S
C347 C353 1.507 . S
C348 C349 1.387 . S
C348 C352 1.391 . S
C349 C348 1.387 . S
C349 C350 1.384 . S
C349 H358 0.930 . S
C350 C347 1.380 . S
C350 C349 1.384 . S
C350 H359 0.931 . S
C351 C347 1.374 . S
C351 C352 1.390 . S
C351 H360 0.930 . S
C352 C348 1.391 . S
C352 C351 1.390 . S
C352 H361 0.930 . S
C353 Eu323 2.825 . S
C353 O338 1.238 . S
C353 O339 1.247 . S
C353 C347 1.507 . S
H354 C327 0.930 . S
H355 C328 0.931 . S
H356 C329 0.930 . S
H357 C330 0.930 . S
H358 C349 0.930 . S
H359 C350 0.931 . S
H360 C351 0.930 . S
H361 C352 0.930 . S
Tb362 C372 2.825 . S
Tb362 O373 2.347 . S
Tb362 O376 2.366 . S
Tb362 O381 2.418 . S
Tb362 O382 2.384 . S
Tb362 O385 2.479 . S
Tb362 O386 2.471 . S
Eu363 O374 2.418 . S
Eu363 O375 2.384 . S
Eu363 O378 2.479 . S
Eu363 O379 2.471 . S
Eu363 O380 2.347 . S
Eu363 O383 2.366 . S
Eu363 C393 2.825 . S
C364 O380 1.259 . S
C364 O381 1.265 . S
C365 O382 1.255 . S
C365 O383 1.265 . S
C366 C368 1.380 . S
C366 C369 1.374 . S
C366 C372 1.507 . S
C367 C368 1.384 . S
C367 C371 1.387 . S
C367 H394 0.930 . S
C368 C366 1.380 . S
C368 C367 1.384 . S
C368 H395 0.931 . S
C369 C366 1.374 . S
C369 C370 1.390 . S
C369 H396 0.930 . S
C370 C369 1.390 . S
C370 C371 1.391 . S
C370 H397 0.930 . S
C371 C367 1.387 . S
C371 C370 1.391 . S
C372 Tb362 2.825 . S
C372 C366 1.507 . S
C372 O385 1.238 . S
C372 O386 1.247 . S
O373 Tb362 2.347 . S
O373 C377 1.259 . S
O374 Eu363 2.418 . S
O374 C377 1.265 . S
O375 Eu363 2.384 . S
O375 C384 1.255 . S
O376 Tb362 2.366 . S
O376 C384 1.265 . S
C377 O373 1.259 . S
C377 O374 1.265 . S
O378 Eu363 2.479 . S
O378 C393 1.238 . S
O379 Eu363 2.471 . S
O379 C393 1.247 . S
O380 Eu363 2.347 . S
O380 C364 1.259 . S
O381 Tb362 2.418 . S
O381 C364 1.265 . S
O382 Tb362 2.384 . S
O382 C365 1.255 . S
O383 Eu363 2.366 . S
O383 C365 1.265 . S
C384 O375 1.255 . S
C384 O376 1.265 . S
O385 Tb362 2.479 . S
O385 C372 1.238 . S
O386 Tb362 2.471 . S
O386 C372 1.247 . S
C387 C390 1.380 . S
C387 C391 1.374 . S
C387 C393 1.507 . S
C388 C389 1.387 . S
C388 C392 1.391 . S
C389 C388 1.387 . S
C389 C390 1.384 . S
C389 H398 0.930 . S
C390 C387 1.380 . S
C390 C389 1.384 . S
C390 H399 0.931 . S
C391 C387 1.374 . S
C391 C392 1.390 . S
C391 H400 0.930 . S
C392 C388 1.391 . S
C392 C391 1.390 . S
C392 H401 0.930 . S
C393 Eu363 2.825 . S
C393 O378 1.238 . S
C393 O379 1.247 . S
C393 C387 1.507 . S
H394 C367 0.930 . S
H395 C368 0.931 . S
H396 C369 0.930 . S
H397 C370 0.930 . S
H398 C389 0.930 . S
H399 C390 0.931 . S
H400 C391 0.930 . S
H401 C392 0.930 . S
Tb402 C412 2.825 . S
Tb402 O413 2.347 . S
Tb402 O416 2.366 . S
Tb402 O421 2.418 . S
Tb402 O422 2.384 . S
Tb402 O425 2.479 . S
Tb402 O426 2.471 . S
Eu403 O414 2.418 . S
Eu403 O415 2.384 . S
Eu403 O418 2.479 . S
Eu403 O419 2.471 . S
Eu403 O420 2.347 . S
Eu403 O423 2.366 . S
Eu403 C433 2.825 . S
C404 O420 1.259 . S
C404 O421 1.265 . S
C405 O422 1.255 . S
C405 O423 1.265 . S
C406 C408 1.380 . S
C406 C409 1.374 . S
C406 C412 1.507 . S
C407 C408 1.384 . S
C407 C411 1.387 . S
C407 H434 0.930 . S
C408 C406 1.380 . S
C408 C407 1.384 . S
C408 H435 0.931 . S
C409 C406 1.374 . S
C409 C410 1.390 . S
C409 H436 0.930 . S
C410 C409 1.390 . S
C410 C411 1.391 . S
C410 H437 0.930 . S
C411 C407 1.387 . S
C411 C410 1.391 . S
C412 Tb402 2.825 . S
C412 C406 1.507 . S
C412 O425 1.238 . S
C412 O426 1.247 . S
O413 Tb402 2.347 . S
O413 C417 1.259 . S
O414 Eu403 2.418 . S
O414 C417 1.265 . S
O415 Eu403 2.384 . S
O415 C424 1.255 . S
O416 Tb402 2.366 . S
O416 C424 1.265 . S
C417 O413 1.259 . S
C417 O414 1.265 . S
O418 Eu403 2.479 . S
O418 C433 1.238 . S
O419 Eu403 2.471 . S
O419 C433 1.247 . S
O420 Eu403 2.347 . S
O420 C404 1.259 . S
O421 Tb402 2.418 . S
O421 C404 1.265 . S
O422 Tb402 2.384 . S
O422 C405 1.255 . S
O423 Eu403 2.366 . S
O423 C405 1.265 . S
C424 O415 1.255 . S
C424 O416 1.265 . S
O425 Tb402 2.479 . S
O425 C412 1.238 . S
O426 Tb402 2.471 . S
O426 C412 1.247 . S
C427 C430 1.380 . S
C427 C431 1.374 . S
C427 C433 1.507 . S
C428 C429 1.387 . S
C428 C432 1.391 . S
C429 C428 1.387 . S
C429 C430 1.384 . S
C429 H438 0.930 . S
C430 C427 1.380 . S
C430 C429 1.384 . S
C430 H439 0.931 . S
C431 C427 1.374 . S
C431 C432 1.390 . S
C431 H440 0.930 . S
C432 C428 1.391 . S
C432 C431 1.390 . S
C432 H441 0.930 . S
C433 Eu403 2.825 . S
C433 O418 1.238 . S
C433 O419 1.247 . S
C433 C427 1.507 . S
H434 C407 0.930 . S
H435 C408 0.931 . S
H436 C409 0.930 . S
H437 C410 0.930 . S
H438 C429 0.930 . S
H439 C430 0.931 . S
H440 C431 0.930 . S
H441 C432 0.930 . S
Tb442 C452 2.825 . S
Tb442 O453 2.347 . S
Tb442 O456 2.366 . S
Tb442 O461 2.418 . S
Tb442 O462 2.384 . S
Tb442 O465 2.479 . S
Tb442 O466 2.471 . S
Eu443 O454 2.418 . S
Eu443 O455 2.384 . S
Eu443 O458 2.479 . S
Eu443 O459 2.471 . S
Eu443 O460 2.347 . S
Eu443 O463 2.366 . S
Eu443 C473 2.825 . S
C444 O460 1.259 . S
C444 O461 1.265 . S
C445 O462 1.255 . S
C445 O463 1.265 . S
C446 C448 1.380 . S
C446 C449 1.374 . S
C446 C452 1.507 . S
C447 C448 1.384 . S
C447 C451 1.387 . S
C447 H474 0.930 . S
C448 C446 1.380 . S
C448 C447 1.384 . S
C448 H475 0.931 . S
C449 C446 1.374 . S
C449 C450 1.390 . S
C449 H476 0.930 . S
C450 C449 1.390 . S
C450 C451 1.391 . S
C450 H477 0.930 . S
C451 C447 1.387 . S
C451 C450 1.391 . S
C452 Tb442 2.825 . S
C452 C446 1.507 . S
C452 O465 1.238 . S
C452 O466 1.247 . S
O453 Tb442 2.347 . S
O453 C457 1.259 . S
O454 Eu443 2.418 . S
O454 C457 1.265 . S
O455 Eu443 2.384 . S
O455 C464 1.255 . S
O456 Tb442 2.366 . S
O456 C464 1.265 . S
C457 O453 1.259 . S
C457 O454 1.265 . S
O458 Eu443 2.479 . S
O458 C473 1.238 . S
O459 Eu443 2.471 . S
O459 C473 1.247 . S
O460 Eu443 2.347 . S
O460 C444 1.259 . S
O461 Tb442 2.418 . S
O461 C444 1.265 . S
O462 Tb442 2.384 . S
O462 C445 1.255 . S
O463 Eu443 2.366 . S
O463 C445 1.265 . S
C464 O455 1.255 . S
C464 O456 1.265 . S
O465 Tb442 2.479 . S
O465 C452 1.238 . S
O466 Tb442 2.471 . S
O466 C452 1.247 . S
C467 C470 1.380 . S
C467 C471 1.374 . S
C467 C473 1.507 . S
C468 C469 1.387 . S
C468 C472 1.391 . S
C469 C468 1.387 . S
C469 C470 1.384 . S
C469 H478 0.930 . S
C470 C467 1.380 . S
C470 C469 1.384 . S
C470 H479 0.931 . S
C471 C467 1.374 . S
C471 C472 1.390 . S
C471 H480 0.930 . S
C472 C468 1.391 . S
C472 C471 1.390 . S
C472 H481 0.930 . S
C473 Eu443 2.825 . S
C473 O458 1.238 . S
C473 O459 1.247 . S
C473 C467 1.507 . S
H474 C447 0.930 . S
H475 C448 0.931 . S
H476 C449 0.930 . S
H477 C450 0.930 . S
H478 C469 0.930 . S
H479 C470 0.931 . S
H480 C471 0.930 . S
H481 C472 0.930 . S
Tb482 C492 2.825 . S
Tb482 O493 2.347 . S
Tb482 O496 2.366 . S
Tb482 O501 2.418 . S
Tb482 O502 2.384 . S
Tb482 O505 2.479 . S
Tb482 O506 2.471 . S
Eu483 O494 2.418 . S
Eu483 O495 2.384 . S
Eu483 O498 2.479 . S
Eu483 O499 2.471 . S
Eu483 O500 2.347 . S
Eu483 O503 2.366 . S
Eu483 C513 2.825 . S
C484 O500 1.259 . S
C484 O501 1.265 . S
C485 O502 1.255 . S
C485 O503 1.265 . S
C486 C488 1.380 . S
C486 C489 1.374 . S
C486 C492 1.507 . S
C487 C488 1.384 . S
C487 C491 1.387 . S
C487 H514 0.930 . S
C488 C486 1.380 . S
C488 C487 1.384 . S
C488 H515 0.931 . S
C489 C486 1.374 . S
C489 C490 1.390 . S
C489 H516 0.930 . S
C490 C489 1.390 . S
C490 C491 1.391 . S
C490 H517 0.930 . S
C491 C487 1.387 . S
C491 C490 1.391 . S
C492 Tb482 2.825 . S
C492 C486 1.507 . S
C492 O505 1.238 . S
C492 O506 1.247 . S
O493 Tb482 2.347 . S
O493 C497 1.259 . S
O494 Eu483 2.418 . S
O494 C497 1.265 . S
O495 Eu483 2.384 . S
O495 C504 1.255 . S
O496 Tb482 2.366 . S
O496 C504 1.265 . S
C497 O493 1.259 . S
C497 O494 1.265 . S
O498 Eu483 2.479 . S
O498 C513 1.238 . S
O499 Eu483 2.471 . S
O499 C513 1.247 . S
O500 Eu483 2.347 . S
O500 C484 1.259 . S
O501 Tb482 2.418 . S
O501 C484 1.265 . S
O502 Tb482 2.384 . S
O502 C485 1.255 . S
O503 Eu483 2.366 . S
O503 C485 1.265 . S
C504 O495 1.255 . S
C504 O496 1.265 . S
O505 Tb482 2.479 . S
O505 C492 1.238 . S
O506 Tb482 2.471 . S
O506 C492 1.247 . S
C507 C510 1.380 . S
C507 C511 1.374 . S
C507 C513 1.507 . S
C508 C509 1.387 . S
C508 C512 1.391 . S
C509 C508 1.387 . S
C509 C510 1.384 . S
C509 H518 0.930 . S
C510 C507 1.380 . S
C510 C509 1.384 . S
C510 H519 0.931 . S
C511 C507 1.374 . S
C511 C512 1.390 . S
C511 H520 0.930 . S
C512 C508 1.391 . S
C512 C511 1.390 . S
C512 H521 0.930 . S
C513 Eu483 2.825 . S
C513 O498 1.238 . S
C513 O499 1.247 . S
C513 C507 1.507 . S
H514 C487 0.930 . S
H515 C488 0.931 . S
H516 C489 0.930 . S
H517 C490 0.930 . S
H518 C509 0.930 . S
H519 C510 0.931 . S
H520 C511 0.930 . S
H521 C512 0.930 . S
C522 C523 1.363 . S
C522 C528 1.379 . S
C522 N530 1.356 . S
C523 C522 1.363 . S
C523 C529 1.363 . S
C524 C525 1.363 . S
C524 C529 1.379 . S
C524 N531 1.356 . S
C525 C524 1.363 . S
C525 C528 1.363 . S
N526 C528 1.356 1_556 S
N526 H538 0.984 . S
N526 H539 0.985 . S
N527 C529 1.356 . S
N527 H532 0.984 . S
N527 H533 0.985 . S
C528 C522 1.379 . S
C528 C525 1.363 . S
C528 N526 1.356 1_554 S
C529 C523 1.363 . S
C529 C524 1.379 . S
C529 N527 1.356 . S
N530 C522 1.356 . S
N530 H536 0.984 . S
N530 H537 0.984 . S
N531 C524 1.356 . S
N531 H534 0.984 . S
N531 H535 0.985 . S
H532 N527 0.984 . S
H533 N527 0.985 . S
H534 N531 0.984 . S
H535 N531 0.985 . S
H536 N530 0.984 . S
H537 N530 0.984 . S
H538 N526 0.984 . S
H539 N526 0.985 . S
C540 C541 1.363 . S
C540 C546 1.379 . S
C540 N548 1.356 . S
C541 C540 1.363 . S
C541 C547 1.363 . S
C542 C543 1.363 . S
C542 C547 1.379 . S
C542 N549 1.356 . S
C543 C542 1.363 . S
C543 C546 1.363 . S
N544 C546 1.356 . S
N544 H556 0.984 . S
N544 H557 0.985 . S
N545 C547 1.356 . S
N545 H550 0.984 . S
N545 H551 0.985 . S
C546 C540 1.379 . S
C546 C543 1.363 . S
C546 N544 1.356 . S
C547 C541 1.363 . S
C547 C542 1.379 . S
C547 N545 1.356 . S
N548 C540 1.356 . S
N548 H554 0.984 . S
N548 H555 0.984 . S
N549 C542 1.356 . S
N549 H552 0.984 . S
N549 H553 0.985 . S
H550 N545 0.984 . S
H551 N545 0.985 . S
H552 N549 0.984 . S
H553 N549 0.985 . S
H554 N548 0.984 . S
H555 N548 0.984 . S
H556 N544 0.984 . S
H557 N544 0.985 . S
C558 C559 1.363 . S
C558 C564 1.379 . S
C558 N566 1.356 . S
C559 C558 1.363 . S
C559 C565 1.363 . S
C560 C561 1.363 . S
C560 C565 1.379 . S
C560 N567 1.356 1_554 S
C561 C560 1.363 . S
C561 C564 1.363 . S
N562 C564 1.356 . S
N562 H574 0.984 . S
N562 H575 0.985 . S
N563 C565 1.356 . S
N563 H568 0.984 . S
N563 H569 0.985 1_554 S
C564 C558 1.379 . S
C564 C561 1.363 . S
C564 N562 1.356 . S
C565 C559 1.363 . S
C565 C560 1.379 . S
C565 N563 1.356 . S
N566 C558 1.356 . S
N566 H572 0.984 . S
N566 H573 0.984 . S
N567 C560 1.356 1_556 S
N567 H570 0.984 . S
N567 H571 0.985 . S
H568 N563 0.984 . S
H569 N563 0.985 1_556 S
H570 N567 0.984 . S
H571 N567 0.985 . S
H572 N566 0.984 . S
H573 N566 0.984 . S
H574 N562 0.984 . S
H575 N562 0.985 . S
C576 C577 1.363 . S
C576 C582 1.379 . S
C576 N584 1.356 . S
C577 C576 1.363 . S
C577 C583 1.363 . S
C578 C579 1.363 . S
C578 C583 1.379 . S
C578 N585 1.356 1_556 S
C579 C578 1.363 . S
C579 C582 1.363 . S
N580 C582 1.356 . S
N580 H592 0.984 . S
N580 H593 0.985 . S
N581 C583 1.356 . S
N581 H586 0.984 . S
N581 H587 0.985 1_556 S
C582 C576 1.379 . S
C582 C579 1.363 . S
C582 N580 1.356 . S
C583 C577 1.363 . S
C583 C578 1.379 . S
C583 N581 1.356 . S
N584 C576 1.356 . S
N584 H590 0.984 . S
N584 H591 0.984 . S
N585 C578 1.356 1_554 S
N585 H588 0.984 . S
N585 H589 0.985 . S
H586 N581 0.984 . S
H587 N581 0.985 1_554 S
H588 N585 0.984 . S
H589 N585 0.985 . S
H590 N584 0.984 . S
H591 N584 0.984 . S
H592 N580 0.984 . S
H593 N580 0.985 . S
C594 C595 1.363 . S
C594 C600 1.379 . S
C594 N602 1.356 . S
C595 C594 1.363 . S
C595 C601 1.363 . S
C596 C597 1.363 . S
C596 C601 1.379 . S
C596 N603 1.356 . S
C597 C596 1.363 . S
C597 C600 1.363 . S
N598 C600 1.356 1_554 S
N598 H610 0.984 . S
N598 H611 0.985 . S
N599 C601 1.356 . S
N599 H604 0.984 . S
N599 H605 0.985 . S
C600 C594 1.379 . S
C600 C597 1.363 . S
C600 N598 1.356 1_556 S
C601 C595 1.363 . S
C601 C596 1.379 . S
C601 N599 1.356 . S
N602 C594 1.356 . S
N602 H608 0.984 . S
N602 H609 0.984 . S
N603 C596 1.356 . S
N603 H606 0.984 . S
N603 H607 0.985 . S
H604 N599 0.984 . S
H605 N599 0.985 . S
H606 N603 0.984 . S
H607 N603 0.985 . S
H608 N602 0.984 . S
H609 N602 0.984 . S
H610 N598 0.984 . S
H611 N598 0.985 . S
C612 C613 1.363 . S
C612 C618 1.379 . S
C612 N620 1.356 . S
C613 C612 1.363 . S
C613 C619 1.363 . S
C614 C615 1.363 . S
C614 C619 1.379 . S
C614 N621 1.356 . S
C615 C614 1.363 . S
C615 C618 1.363 . S
N616 C618 1.369 . S
N616 H628 0.981 1_556 S
N616 H629 0.977 1_556 S
N617 C619 1.356 . S
N617 H622 0.984 . S
N617 H623 0.985 . S
C618 C612 1.379 . S
C618 C615 1.363 . S
C618 N616 1.369 . S
C619 C613 1.363 . S
C619 C614 1.379 . S
C619 N617 1.356 . S
N620 C612 1.356 . S
N620 H626 0.984 . S
N620 H627 0.984 . S
N621 C614 1.356 . S
N621 H624 0.984 . S
N621 H625 0.985 1_545 S
H622 N617 0.984 . S
H623 N617 0.985 . S
H624 N621 0.984 . S
H625 N621 0.985 1_565 S
H626 N620 0.984 . S
H627 N620 0.984 . S
H628 N616 0.981 1_554 S
H629 N616 0.977 1_554 S
C630 C631 1.363 . S
C630 C636 1.379 . S
C630 N638 1.356 . S
C631 C630 1.363 . S
C631 C637 1.363 . S
C632 C633 1.363 . S
C632 C637 1.379 . S
C632 N639 1.356 1_556 S
C633 C632 1.363 . S
C633 C636 1.363 . S
N634 C636 1.356 . S
N634 H646 0.984 . S
N634 H647 0.985 . S
N635 C637 1.356 . S
N635 H640 0.984 . S
N635 H641 0.985 1_556 S
C636 C630 1.379 . S
C636 C633 1.363 . S
C636 N634 1.356 . S
C637 C631 1.363 . S
C637 C632 1.379 . S
C637 N635 1.356 . S
N638 C630 1.356 . S
N638 H644 0.984 . S
N638 H645 0.984 . S
N639 C632 1.356 1_554 S
N639 H642 0.984 . S
N639 H643 0.985 . S
H640 N635 0.984 . S
H641 N635 0.985 1_554 S
H642 N639 0.984 . S
H643 N639 0.985 . S
H644 N638 0.984 . S
H645 N638 0.984 . S
H646 N634 0.984 . S
H647 N634 0.985 . S
C648 C649 1.363 . S
C648 C654 1.379 . S
C648 N656 1.356 . S
C649 C648 1.363 . S
C649 C655 1.363 . S
C650 C651 1.363 . S
C650 C655 1.379 . S
C650 N657 1.356 . S
C651 C650 1.363 . S
C651 C654 1.363 . S
N652 C654 1.356 . S
N652 H664 0.984 . S
N652 H665 0.985 . S
N653 C655 1.356 . S
N653 H658 0.984 . S
N653 H659 0.985 . S
C654 C648 1.379 . S
C654 C651 1.363 . S
C654 N652 1.356 . S
C655 C649 1.363 . S
C655 C650 1.379 . S
C655 N653 1.356 . S
N656 C648 1.356 . S
N656 H662 0.984 . S
N656 H663 0.984 . S
N657 C650 1.356 . S
N657 H660 0.984 . S
N657 H661 0.985 . S
H658 N653 0.984 . S
H659 N653 0.985 . S
H660 N657 0.984 . S
H661 N657 0.985 . S
H662 N656 0.984 . S
H663 N656 0.984 . S
H664 N652 0.984 . S
H665 N652 0.985 . S
C666 C667 1.363 . S
C666 C672 1.379 . S
C666 N674 1.356 . S
C667 C666 1.363 . S
C667 C673 1.363 . S
C668 C669 1.363 . S
C668 C673 1.379 . S
C668 N675 1.356 . S
C669 C668 1.363 . S
C669 C672 1.363 . S
N670 C672 1.356 1_554 S
N670 H682 0.984 . S
N670 H683 0.985 . S
N671 C673 1.356 . S
N671 H676 0.984 . S
N671 H677 0.985 . S
C672 C666 1.379 . S
C672 C669 1.363 . S
C672 N670 1.356 1_556 S
C673 C667 1.363 . S
C673 C668 1.379 . S
C673 N671 1.356 . S
N674 C666 1.356 . S
N674 H680 0.984 1_556 S
N674 H681 0.984 . S
N675 C668 1.356 . S
N675 H678 0.984 . S
N675 H679 0.985 . S
H676 N671 0.984 . S
H677 N671 0.985 . S
H678 N675 0.984 . S
H679 N675 0.985 . S
H680 N674 0.984 1_554 S
H681 N674 0.984 . S
H682 N670 0.984 . S
H683 N670 0.985 . S
C684 C685 1.363 . S
C684 C690 1.379 . S
C684 N692 1.356 . S
C685 C684 1.363 . S
C685 C691 1.363 . S
C686 C687 1.363 . S
C686 C691 1.379 . S
C686 N693 1.356 . S
C687 C686 1.363 . S
C687 C690 1.363 . S
N688 C690 1.356 1_556 S
N688 H700 0.984 . S
N688 H701 0.985 . S
N689 C691 1.356 . S
N689 H694 0.984 . S
N689 H695 0.985 . S
C690 C684 1.379 . S
C690 C687 1.363 . S
C690 N688 1.356 1_554 S
C691 C685 1.363 . S
C691 C686 1.379 . S
C691 N689 1.356 . S
N692 C684 1.356 . S
N692 H698 0.984 1_554 S
N692 H699 0.984 . S
N693 C686 1.356 . S
N693 H696 0.984 . S
N693 H697 0.985 . S
H694 N689 0.984 . S
H695 N689 0.985 . S
H696 N693 0.984 . S
H697 N693 0.985 . S
H698 N692 0.984 1_556 S
H699 N692 0.984 . S
H700 N688 0.984 . S
H701 N688 0.985 . S
C702 C703 1.363 . S
C702 C708 1.379 . S
C702 N710 1.356 . S
C703 C702 1.363 . S
C703 C709 1.363 . S
C704 C705 1.363 . S
C704 C709 1.379 . S
C704 N711 1.356 . S
C705 C704 1.363 . S
C705 C708 1.363 . S
N706 C708 1.356 . S
N706 H718 0.984 . S
N706 H719 0.985 . S
N707 C709 1.356 . S
N707 H712 0.984 . S
N707 H713 0.985 . S
C708 C702 1.379 . S
C708 C705 1.363 . S
C708 N706 1.356 . S
C709 C703 1.363 . S
C709 C704 1.379 . S
C709 N707 1.356 . S
N710 C702 1.356 . S
N710 H716 0.984 . S
N710 H717 0.984 . S
N711 C704 1.356 . S
N711 H714 0.984 . S
N711 H715 0.985 . S
H712 N707 0.984 . S
H713 N707 0.985 . S
H714 N711 0.984 . S
H715 N711 0.985 . S
H716 N710 0.984 . S
H717 N710 0.984 . S
H718 N706 0.984 . S
H719 N706 0.985 . S
C720 C721 1.363 . S
C720 C726 1.379 . S
C720 N728 1.356 . S
C721 C720 1.363 . S
C721 C727 1.363 . S
C722 C723 1.363 . S
C722 C727 1.379 . S
C722 N729 1.356 . S
C723 C722 1.363 . S
C723 C726 1.363 . S
N724 C726 1.356 1_556 S
N724 H736 0.984 . S
N724 H737 0.985 . S
N725 C727 1.356 . S
N725 H730 0.984 . S
N725 H731 0.985 . S
C726 C720 1.379 . S
C726 C723 1.363 . S
C726 N724 1.356 1_554 S
C727 C721 1.363 . S
C727 C722 1.379 . S
C727 N725 1.356 . S
N728 C720 1.356 . S
N728 H734 0.984 1_554 S
N728 H735 0.984 . S
N729 C722 1.356 . S
N729 H732 0.984 . S
N729 H733 0.985 . S
H730 N725 0.984 . S
H731 N725 0.985 . S
H732 N729 0.984 . S
H733 N729 0.985 . S
H734 N728 0.984 1_556 S
H735 N728 0.984 . S
H736 N724 0.984 . S
H737 N724 0.985 . S
C738 C739 1.363 . S
C738 C744 1.379 1_655 S
C738 N746 1.356 . S
C739 C738 1.363 . S
C739 C745 1.363 . S
C740 C741 1.363 . S
C740 C745 1.379 1_455 S
C740 N747 1.356 . S
C741 C740 1.363 . S
C741 C744 1.363 . S
N742 C744 1.356 . S
N742 H754 0.984 . S
N742 H755 0.985 . S
N743 C745 1.356 . S
N743 H748 0.984 . S
N743 H749 0.985 . S
C744 C738 1.379 1_455 S
C744 C741 1.363 . S
C744 N742 1.356 . S
C745 C739 1.363 . S
C745 C740 1.379 1_655 S
C745 N743 1.356 . S
N746 C738 1.356 . S
N746 H752 0.984 . S
N746 H753 0.984 . S
N747 C740 1.356 . S
N747 H750 0.984 . S
N747 H751 0.985 . S
H748 N743 0.984 . S
H749 N743 0.985 . S
H750 N747 0.984 . S
H751 N747 0.985 . S
H752 N746 0.984 . S
H753 N746 0.984 . S
H754 N742 0.984 . S
H755 N742 0.985 . S
C756 C757 1.363 . S
C756 C762 1.379 . S
C756 N764 1.356 . S
C757 C756 1.363 . S
C757 C763 1.363 . S
C758 C759 1.363 . S
C758 C763 1.379 . S
C758 N765 1.356 . S
C759 C758 1.363 . S
C759 C762 1.363 . S
N760 C762 1.356 . S
N760 H772 0.984 . S
N760 H773 0.985 . S
N761 C763 1.356 . S
N761 H766 0.984 . S
N761 H767 0.985 . S
C762 C756 1.379 . S
C762 C759 1.363 . S
C762 N760 1.356 . S
C763 C757 1.363 . S
C763 C758 1.379 . S
C763 N761 1.356 . S
N764 C756 1.356 . S
N764 H770 0.984 . S
N764 H771 0.984 . S
N765 C758 1.356 . S
N765 H768 0.984 . S
N765 H769 0.985 . S
H766 N761 0.984 . S
H767 N761 0.985 . S
H768 N765 0.984 . S
H769 N765 0.985 . S
H770 N764 0.984 . S
H771 N764 0.984 . S
H772 N760 0.984 . S
H773 N760 0.985 . S
C774 C775 1.363 . S
C774 C780 1.379 1_545 S
C774 N782 1.356 . S
C775 C774 1.363 . S
C775 C781 1.363 . S
C776 C777 1.363 1_545 S
C776 C781 1.379 . S
C776 N783 1.356 1_545 S
C777 C776 1.363 1_565 S
C777 C780 1.363 . S
N778 C780 1.356 . S
N778 H790 0.984 . S
N778 H791 0.985 . S
N779 C781 1.356 . S
N779 H784 0.984 . S
N779 H785 0.985 . S
C780 C774 1.379 1_565 S
C780 C777 1.363 . S
C780 N778 1.356 . S
C781 C775 1.363 . S
C781 C776 1.379 . S
C781 N779 1.356 . S
N782 C774 1.356 . S
N782 H788 0.984 . S
N782 H789 0.984 . S
N783 C776 1.356 1_565 S
N783 H786 0.984 . S
N783 H787 0.985 . S
H784 N779 0.984 . S
H785 N779 0.985 . S
H786 N783 0.984 . S
H787 N783 0.985 . S
H788 N782 0.984 . S
H789 N782 0.984 . S
H790 N778 0.984 . S
H791 N778 0.985 . S
C792 C793 1.363 . S
C792 C798 1.379 . S
C792 N800 1.356 . S
C793 C792 1.363 . S
C793 C799 1.363 . S
C794 C795 1.363 . S
C794 C799 1.379 . S
C794 N801 1.356 . S
C795 C794 1.363 . S
C795 C798 1.363 . S
N796 C798 1.356 . S
N796 H808 0.984 . S
N796 H809 0.985 . S
N797 C799 1.356 . S
N797 H802 0.984 . S
N797 H803 0.985 . S
C798 C792 1.379 . S
C798 C795 1.363 . S
C798 N796 1.356 . S
C799 C793 1.363 . S
C799 C794 1.379 . S
C799 N797 1.356 . S
N800 C792 1.356 . S
N800 H806 0.984 . S
N800 H807 0.984 . S
N801 C794 1.356 . S
N801 H804 0.984 . S
N801 H805 0.985 . S
H802 N797 0.984 . S
H803 N797 0.985 . S
H804 N801 0.984 . S
H805 N801 0.985 . S
H806 N800 0.984 . S
H807 N800 0.984 . S
H808 N796 0.984 . S
H809 N796 0.985 . S
C810 C811 1.363 . S
C810 C816 1.379 . S
C810 N818 1.356 . S
C811 C810 1.363 . S
C811 C817 1.363 . S
C812 C813 1.363 . S
C812 C817 1.379 . S
C812 N819 1.356 . S
C813 C812 1.363 . S
C813 C816 1.363 . S
N814 C816 1.356 . S
N814 H826 0.984 . S
N814 H827 0.985 . S
N815 C817 1.356 . S
N815 H820 0.984 . S
N815 H821 0.985 . S
C816 C810 1.379 . S
C816 C813 1.363 . S
C816 N814 1.356 . S
C817 C811 1.363 . S
C817 C812 1.379 . S
C817 N815 1.356 . S
N818 C810 1.356 . S
N818 H824 0.984 . S
N818 H825 0.984 . S
N819 C812 1.356 . S
N819 H822 0.984 . S
N819 H823 0.985 . S
H820 N815 0.984 . S
H821 N815 0.985 . S
H822 N819 0.984 . S
H823 N819 0.985 . S
H824 N818 0.984 . S
H825 N818 0.984 . S
H826 N814 0.984 . S
H827 N814 0.985 . S
C828 C829 1.363 . S
C828 C834 1.379 . S
C828 N836 1.375 . S
C829 C828 1.363 . S
C829 C835 1.363 . S
C830 C831 1.363 . S
C830 C835 1.379 . S
C830 N837 1.356 . S
C831 C830 1.363 . S
C831 C834 1.363 . S
N832 C834 1.356 . S
N832 H844 0.984 . S
N832 H845 0.985 . S
N833 C835 1.356 . S
N833 H838 0.984 . S
N833 H839 0.985 . S
C834 C828 1.379 . S
C834 C831 1.363 . S
C834 N832 1.356 . S
C835 C829 1.363 . S
C835 C830 1.379 . S
C835 N833 1.356 . S
N836 C828 1.375 . S
N836 H842 0.978 1_455 S
N836 H843 0.973 1_455 S
N837 C830 1.356 . S
N837 H840 0.984 . S
N837 H841 0.985 . S
H838 N833 0.984 . S
H839 N833 0.985 . S
H840 N837 0.984 . S
H841 N837 0.985 . S
H842 N836 0.978 1_655 S
H843 N836 0.973 1_655 S
H844 N832 0.984 . S
H845 N832 0.985 . S
C846 C847 1.363 . S
C846 C852 1.379 . S
C846 N854 1.356 . S
C847 C846 1.363 . S
C847 C853 1.363 . S
C848 C849 1.363 . S
C848 C853 1.379 . S
C848 N855 1.356 . S
C849 C848 1.363 . S
C849 C852 1.363 . S
N850 C852 1.356 . S
N850 H862 0.984 . S
N850 H863 0.985 . S
N851 C853 1.356 . S
N851 H856 0.984 . S
N851 H857 0.985 . S
C852 C846 1.379 . S
C852 C849 1.363 . S
C852 N850 1.356 . S
C853 C847 1.363 . S
C853 C848 1.379 . S
C853 N851 1.356 . S
N854 C846 1.356 . S
N854 H860 0.984 . S
N854 H861 0.984 . S
N855 C848 1.356 . S
N855 H858 0.984 . S
N855 H859 0.985 . S
H856 N851 0.984 . S
H857 N851 0.985 . S
H858 N855 0.984 . S
H859 N855 0.985 . S
H860 N854 0.984 . S
H861 N854 0.984 . S
H862 N850 0.984 . S
H863 N850 0.985 . S
C864 C865 1.363 . S
C864 C870 1.379 . S
C864 N872 1.356 . S
C865 C864 1.363 . S
C865 C871 1.363 . S
C866 C867 1.363 . S
C866 C871 1.379 . S
C866 N873 1.356 . S
C867 C866 1.363 . S
C867 C870 1.363 . S
N868 C870 1.356 . S
N868 H880 0.984 . S
N868 H881 0.985 . S
N869 C871 1.356 . S
N869 H874 0.984 . S
N869 H875 0.985 . S
C870 C864 1.379 . S
C870 C867 1.363 . S
C870 N868 1.356 . S
C871 C865 1.363 . S
C871 C866 1.379 . S
C871 N869 1.356 . S
N872 C864 1.356 . S
N872 H878 0.984 . S
N872 H879 0.984 . S
N873 C866 1.356 . S
N873 H876 0.984 . S
N873 H877 0.985 . S
H874 N869 0.984 . S
H875 N869 0.985 . S
H876 N873 0.984 . S
H877 N873 0.985 . S
H878 N872 0.984 . S
H879 N872 0.984 . S
H880 N868 0.984 . S
H881 N868 0.985 . S
C882 C883 1.363 . S
C882 C888 1.379 . S
C882 N890 1.356 . S
C883 C882 1.363 . S
C883 C889 1.363 . S
C884 C885 1.363 . S
C884 C889 1.379 . S
C884 N891 1.356 . S
C885 C884 1.363 . S
C885 C888 1.363 . S
N886 C888 1.356 . S
N886 H898 0.984 . S
N886 H899 0.985 . S
N887 C889 1.356 . S
N887 H892 0.984 . S
N887 H893 0.985 . S
C888 C882 1.379 . S
C888 C885 1.363 . S
C888 N886 1.356 . S
C889 C883 1.363 . S
C889 C884 1.379 . S
C889 N887 1.356 . S
N890 C882 1.356 . S
N890 H896 0.984 . S
N890 H897 0.984 . S
N891 C884 1.356 . S
N891 H894 0.984 . S
N891 H895 0.985 . S
H892 N887 0.984 . S
H893 N887 0.985 . S
H894 N891 0.984 . S
H895 N891 0.985 . S
H896 N890 0.984 . S
H897 N890 0.984 . S
H898 N886 0.984 . S
H899 N886 0.985 . S
C900 C901 1.363 . S
C900 C906 1.379 1_545 S
C900 N908 1.356 . S
C901 C900 1.363 . S
C901 C907 1.363 . S
C902 C903 1.363 1_545 S
C902 C907 1.379 . S
C902 N909 1.356 1_545 S
C903 C902 1.363 1_565 S
C903 C906 1.363 . S
N904 C906 1.356 . S
N904 H916 0.984 . S
N904 H917 0.985 . S
N905 C907 1.356 . S
N905 H910 0.984 . S
N905 H911 0.985 . S
C906 C900 1.379 1_565 S
C906 C903 1.363 . S
C906 N904 1.356 . S
C907 C901 1.363 . S
C907 C902 1.379 . S
C907 N905 1.356 . S
N908 C900 1.356 . S
N908 H914 0.984 . S
N908 H915 0.984 . S
N909 C902 1.356 1_565 S
N909 H912 0.984 . S
N909 H913 0.985 . S
H910 N905 0.984 . S
H911 N905 0.985 . S
H912 N909 0.984 . S
H913 N909 0.985 . S
H914 N908 0.984 . S
H915 N908 0.984 . S
H916 N904 0.984 . S
H917 N904 0.985 . S
C918 C919 1.363 1_455 S
C918 C924 1.379 . S
C918 N926 1.356 1_455 S
C919 C918 1.363 1_655 S
C919 C925 1.363 . S
C920 C921 1.363 . S
C920 C925 1.379 1_455 S
C920 N927 1.356 . S
C921 C920 1.363 . S
C921 C924 1.363 . S
N922 C924 1.356 . S
N922 H934 0.984 . S
N922 H935 0.985 . S
N923 C925 1.356 . S
N923 H928 0.984 . S
N923 H929 0.985 . S
C924 C918 1.379 . S
C924 C921 1.363 . S
C924 N922 1.356 . S
C925 C919 1.363 . S
C925 C920 1.379 1_655 S
C925 N923 1.356 . S
N926 C918 1.356 1_655 S
N926 H932 0.984 1_655 S
N926 H933 0.984 . S
N927 C920 1.356 . S
N927 H930 0.984 . S
N927 H931 0.985 1_455 S
H928 N923 0.984 . S
H929 N923 0.985 . S
H930 N927 0.984 . S
H931 N927 0.985 1_655 S
H932 N926 0.984 1_455 S
H933 N926 0.984 . S
H934 N922 0.984 . S
H935 N922 0.985 . S
C936 C937 1.363 . S
C936 C942 1.379 . S
C936 N944 1.356 . S
C937 C936 1.363 . S
C937 C943 1.363 . S
C938 C939 1.363 . S
C938 C943 1.379 . S
C938 N945 1.356 . S
C939 C938 1.363 . S
C939 C942 1.363 . S
N940 C942 1.356 . S
N940 H952 0.984 . S
N940 H953 0.985 . S
N941 C943 1.356 . S
N941 H946 0.984 . S
N941 H947 0.985 . S
C942 C936 1.379 . S
C942 C939 1.363 . S
C942 N940 1.356 . S
C943 C937 1.363 . S
C943 C938 1.379 . S
C943 N941 1.356 . S
N944 C936 1.356 . S
N944 H950 0.984 . S
N944 H951 0.984 . S
N945 C938 1.356 . S
N945 H948 0.984 . S
N945 H949 0.985 . S
H946 N941 0.984 . S
H947 N941 0.985 . S
H948 N945 0.984 . S
H949 N945 0.985 . S
H950 N944 0.984 . S
H951 N944 0.984 . S
H952 N940 0.984 . S
H953 N940 0.985 . S
C954 C955 1.363 . S
C954 C960 1.379 . S
C954 N962 1.356 . S
C955 C954 1.363 . S
C955 C961 1.363 . S
C956 C957 1.363 . S
C956 C961 1.379 . S
C956 N963 1.356 . S
C957 C956 1.363 . S
C957 C960 1.363 . S
N958 C960 1.356 . S
N958 H970 0.984 . S
N958 H971 0.985 . S
N959 C961 1.356 . S
N959 H964 0.984 . S
N959 H965 0.985 . S
C960 C954 1.379 . S
C960 C957 1.363 . S
C960 N958 1.356 . S
C961 C955 1.363 . S
C961 C956 1.379 . S
C961 N959 1.356 . S
N962 C954 1.356 . S
N962 H968 0.984 . S
N962 H969 0.984 . S
N963 C956 1.356 . S
N963 H966 0.984 . S
N963 H967 0.985 . S
H964 N959 0.984 . S
H965 N959 0.985 . S
H966 N963 0.984 . S
H967 N963 0.985 . S
H968 N962 0.984 . S
H969 N962 0.984 . S
H970 N958 0.984 . S
H971 N958 0.985 . S
C972 C973 1.363 . S
C972 C978 1.379 . S
C972 N980 1.356 . S
C973 C972 1.363 . S
C973 C979 1.363 . S
C974 C975 1.363 . S
C974 C979 1.379 . S
C974 N981 1.356 . S
C975 C974 1.363 . S
C975 C978 1.363 . S
N976 C978 1.356 . S
N976 H988 0.984 . S
N976 H989 0.985 . S
N977 C979 1.356 . S
N977 H982 0.984 . S
N977 H983 0.985 . S
C978 C972 1.379 . S
C978 C975 1.363 . S
C978 N976 1.356 . S
C979 C973 1.363 . S
C979 C974 1.379 . S
C979 N977 1.356 . S
N980 C972 1.356 . S
N980 H986 0.984 . S
N980 H987 0.984 . S
N981 C974 1.356 . S
N981 H984 0.984 . S
N981 H985 0.985 . S
H982 N977 0.984 . S
H983 N977 0.985 . S
H984 N981 0.984 . S
H985 N981 0.985 . S
H986 N980 0.984 . S
H987 N980 0.984 . S
H988 N976 0.984 . S
H989 N976 0.985 . S
C990 C991 1.363 . S
C990 C996 1.379 . S
C990 N998 1.356 . S
C991 C990 1.363 . S
C991 C997 1.363 . S
C992 C993 1.363 . S
C992 C997 1.379 . S
C992 N999 1.356 . S
C993 C992 1.363 . S
C993 C996 1.363 . S
N994 C996 1.356 . S
N994 H1006 0.984 . S
N994 H1007 0.985 . S
N995 C997 1.356 . S
N995 H1000 0.984 . S
N995 H1001 0.985 1_655 S
C996 C990 1.379 . S
C996 C993 1.363 . S
C996 N994 1.356 . S
C997 C991 1.363 . S
C997 C992 1.379 . S
C997 N995 1.356 . S
N998 C990 1.356 . S
N998 H1004 0.984 . S
N998 H1005 0.984 . S
N999 C992 1.356 . S
N999 H1002 0.984 . S
N999 H1003 0.985 . S
H1000 N995 0.984 . S
H1001 N995 0.985 1_455 S
H1002 N999 0.984 . S
H1003 N999 0.985 . S
H1004 N998 0.984 . S
H1005 N998 0.984 . S
H1006 N994 0.984 . S
H1007 N994 0.985 . S
C1008 C1009 1.363 . S
C1008 C1014 1.356 1_565 S
C1008 N1016 1.356 . S
C1009 C1008 1.363 . S
C1009 C1015 1.363 . S
C1010 C1011 1.363 . S
C1010 C1015 1.379 1_545 S
C1010 N1017 1.356 . S
C1011 C1010 1.363 . S
C1011 C1014 1.373 . S
N1012 C1014 1.375 . S
N1012 H1024 0.984 . S
N1012 H1025 0.985 . S
N1013 C1015 1.356 . S
N1013 H1018 0.984 . S
N1013 H1019 0.985 . S
C1014 C1008 1.356 1_545 S
C1014 C1011 1.373 . S
C1014 N1012 1.375 . S
C1015 C1009 1.363 . S
C1015 C1010 1.379 1_565 S
C1015 N1013 1.356 . S
N1016 C1008 1.356 . S
N1016 H1022 0.984 . S
N1016 H1023 0.984 . S
N1017 C1010 1.356 . S
N1017 H1020 0.984 . S
N1017 H1021 0.985 . S
H1018 N1013 0.984 . S
H1019 N1013 0.985 . S
H1020 N1017 0.984 . S
H1021 N1017 0.985 . S
H1022 N1016 0.984 . S
H1023 N1016 0.984 . S
H1024 N1012 0.984 . S
H1025 N1012 0.985 . S
C1026 C1027 1.363 . S
C1026 C1032 1.379 1_455 S
C1026 N1034 1.356 . S
C1027 C1026 1.363 . S
C1027 C1033 1.363 . S
C1028 C1029 1.363 . S
C1028 C1033 1.379 1_655 S
C1028 N1035 1.356 . S
C1029 C1028 1.363 . S
C1029 C1032 1.363 . S
N1030 C1032 1.356 . S
N1030 H1042 0.984 . S
N1030 H1043 0.985 . S
N1031 C1033 1.356 . S
N1031 H1036 0.984 . S
N1031 H1037 0.985 . S
C1032 C1026 1.379 1_655 S
C1032 C1029 1.363 . S
C1032 N1030 1.356 . S
C1033 C1027 1.363 . S
C1033 C1028 1.379 1_455 S
C1033 N1031 1.356 . S
N1034 C1026 1.356 . S
N1034 H1040 0.984 . S
N1034 H1041 0.984 . S
N1035 C1028 1.356 . S
N1035 H1038 0.984 . S
N1035 H1039 0.985 . S
H1036 N1031 0.984 . S
H1037 N1031 0.985 . S
H1038 N1035 0.984 . S
H1039 N1035 0.985 . S
H1040 N1034 0.984 . S
H1041 N1034 0.984 . S
H1042 N1030 0.984 . S
H1043 N1030 0.985 . S
C1044 C1045 1.363 . S
C1044 C1050 1.379 . S
C1044 N1052 1.356 . S
C1045 C1044 1.363 . S
C1045 C1051 1.363 . S
C1046 C1047 1.363 . S
C1046 C1051 1.379 . S
C1046 N1053 1.356 . S
C1047 C1046 1.363 . S
C1047 C1050 1.363 . S
N1048 C1050 1.356 . S
N1048 H1060 0.984 . S
N1048 H1061 0.985 . S
N1049 C1051 1.356 . S
N1049 H1054 0.984 . S
N1049 H1055 0.985 . S
C1050 C1044 1.379 . S
C1050 C1047 1.363 . S
C1050 N1048 1.356 . S
C1051 C1045 1.363 . S
C1051 C1046 1.379 . S
C1051 N1049 1.356 . S
N1052 C1044 1.356 . S
N1052 H1058 0.984 . S
N1052 H1059 0.984 . S
N1053 C1046 1.356 . S
N1053 H1056 0.984 . S
N1053 H1057 0.985 . S
H1054 N1049 0.984 . S
H1055 N1049 0.985 . S
H1056 N1053 0.984 . S
H1057 N1053 0.985 . S
H1058 N1052 0.984 . S
H1059 N1052 0.984 . S
H1060 N1048 0.984 . S
H1061 N1048 0.985 . S
C1062 C1063 1.363 . S
C1062 C1068 1.379 1_455 S
C1062 N1070 1.356 . S
C1063 C1062 1.363 . S
C1063 C1069 1.363 . S
C1064 C1065 1.363 1_455 S
C1064 C1069 1.379 . S
C1064 N1071 1.356 1_455 S
C1065 C1064 1.363 1_655 S
C1065 C1068 1.363 . S
N1066 C1068 1.356 . S
N1066 H1078 0.984 . S
N1066 H1079 0.985 . S
N1067 C1069 1.356 . S
N1067 H1072 0.984 . S
N1067 H1073 0.985 . S
C1068 C1062 1.379 1_655 S
C1068 C1065 1.363 . S
C1068 N1066 1.356 . S
C1069 C1063 1.363 . S
C1069 C1064 1.379 . S
C1069 N1067 1.356 . S
N1070 C1062 1.356 . S
N1070 H1076 0.984 . S
N1070 H1077 0.984 . S
N1071 C1064 1.356 1_655 S
N1071 H1074 0.984 . S
N1071 H1075 0.985 1_655 S
H1072 N1067 0.984 . S
H1073 N1067 0.985 . S
H1074 N1071 0.984 . S
H1075 N1071 0.985 1_455 S
H1076 N1070 0.984 . S
H1077 N1070 0.984 . S
H1078 N1066 0.984 . S
H1079 N1066 0.985 . S
C1080 C1081 1.363 . S
C1080 C1086 1.379 . S
C1080 N1088 1.356 . S
C1081 C1080 1.363 . S
C1081 C1087 1.363 . S
C1082 C1083 1.363 . S
C1082 C1087 1.379 . S
C1082 N1089 1.356 . S
C1083 C1082 1.363 . S
C1083 C1086 1.363 . S
N1084 C1086 1.356 . S
N1084 H1096 0.984 . S
N1084 H1097 0.985 . S
N1085 C1087 1.356 . S
N1085 H1090 0.984 . S
N1085 H1091 0.985 . S
C1086 C1080 1.379 . S
C1086 C1083 1.363 . S
C1086 N1084 1.356 . S
C1087 C1081 1.363 . S
C1087 C1082 1.379 . S
C1087 N1085 1.356 . S
N1088 C1080 1.356 . S
N1088 H1094 0.984 . S
N1088 H1095 0.984 . S
N1089 C1082 1.356 . S
N1089 H1092 0.984 . S
N1089 H1093 0.985 . S
H1090 N1085 0.984 . S
H1091 N1085 0.985 . S
H1092 N1089 0.984 . S
H1093 N1089 0.985 . S
H1094 N1088 0.984 . S
H1095 N1088 0.984 . S
H1096 N1084 0.984 . S
H1097 N1084 0.985 . S
C1098 C1099 1.363 . S
C1098 C1104 1.379 . S
C1098 N1106 1.356 . S
C1099 C1098 1.363 . S
C1099 C1105 1.363 . S
C1100 C1101 1.363 . S
C1100 C1105 1.379 1_545 S
C1100 N1107 1.356 . S
C1101 C1100 1.363 . S
C1101 C1104 1.363 1_545 S
N1102 C1104 1.356 1_545 S
N1102 H1114 0.984 . S
N1102 H1115 0.985 . S
N1103 C1105 1.356 . S
N1103 H1108 0.984 . S
N1103 H1109 0.985 . S
C1104 C1098 1.379 . S
C1104 C1101 1.363 1_565 S
C1104 N1102 1.356 1_565 S
C1105 C1099 1.363 . S
C1105 C1100 1.379 1_565 S
C1105 N1103 1.356 . S
N1106 C1098 1.356 . S
N1106 H1112 0.984 . S
N1106 H1113 0.984 . S
N1107 C1100 1.356 . S
N1107 H1110 0.984 . S
N1107 H1111 0.985 . S
H1108 N1103 0.984 . S
H1109 N1103 0.985 . S
H1110 N1107 0.984 . S
H1111 N1107 0.985 . S
H1112 N1106 0.984 . S
H1113 N1106 0.984 . S
H1114 N1102 0.984 . S
H1115 N1102 0.985 . S
C1116 C1117 1.363 . S
C1116 C1122 1.379 . S
C1116 N1124 1.356 . S
C1117 C1116 1.363 . S
C1117 C1123 1.363 . S
C1118 C1119 1.363 . S
C1118 C1123 1.379 . S
C1118 N1125 1.356 . S
C1119 C1118 1.363 . S
C1119 C1122 1.363 . S
N1120 C1122 1.356 . S
N1120 H1132 0.984 . S
N1120 H1133 0.985 . S
N1121 C1123 1.356 . S
N1121 H1126 0.984 . S
N1121 H1127 0.985 . S
C1122 C1116 1.379 . S
C1122 C1119 1.363 . S
C1122 N1120 1.356 . S
C1123 C1117 1.363 . S
C1123 C1118 1.379 . S
C1123 N1121 1.356 . S
N1124 C1116 1.356 . S
N1124 H1130 0.984 . S
N1124 H1131 0.984 . S
N1125 C1118 1.356 . S
N1125 H1128 0.984 . S
N1125 H1129 0.985 . S
H1126 N1121 0.984 . S
H1127 N1121 0.985 . S
H1128 N1125 0.984 . S
H1129 N1125 0.985 . S
H1130 N1124 0.984 . S
H1131 N1124 0.984 . S
H1132 N1120 0.984 . S
H1133 N1120 0.985 . S
C1134 C1135 1.363 . S
C1134 C1140 1.379 . S
C1134 N1142 1.356 . S
C1135 C1134 1.363 . S
C1135 C1141 1.363 . S
C1136 C1137 1.363 . S
C1136 C1141 1.379 . S
C1136 N1143 1.356 . S
C1137 C1136 1.363 . S
C1137 C1140 1.363 . S
N1138 C1140 1.356 . S
N1138 H1150 0.984 . S
N1138 H1151 0.985 . S
N1139 C1141 1.356 . S
N1139 H1144 0.984 . S
N1139 H1145 0.985 1_545 S
C1140 C1134 1.379 . S
C1140 C1137 1.363 . S
C1140 N1138 1.356 . S
C1141 C1135 1.363 . S
C1141 C1136 1.379 . S
C1141 N1139 1.356 . S
N1142 C1134 1.356 . S
N1142 H1148 0.984 . S
N1142 H1149 0.984 . S
N1143 C1136 1.356 . S
N1143 H1146 0.984 . S
N1143 H1147 0.985 . S
H1144 N1139 0.984 . S
H1145 N1139 0.985 1_565 S
H1146 N1143 0.984 . S
H1147 N1143 0.985 . S
H1148 N1142 0.984 . S
H1149 N1142 0.984 . S
H1150 N1138 0.984 . S
H1151 N1138 0.985 . S
C1152 C1153 1.363 . S
C1152 C1158 1.379 . S
C1152 N1160 1.356 . S
C1153 C1152 1.363 . S
C1153 C1159 1.363 . S
C1154 C1155 1.363 . S
C1154 C1159 1.379 . S
C1154 N1161 1.356 . S
C1155 C1154 1.363 . S
C1155 C1158 1.363 . S
N1156 C1158 1.356 . S
N1156 H1168 0.984 . S
N1156 H1169 0.985 . S
N1157 C1159 1.356 . S
N1157 H1162 0.984 . S
N1157 H1163 0.985 . S
C1158 C1152 1.379 . S
C1158 C1155 1.363 . S
C1158 N1156 1.356 . S
C1159 C1153 1.363 . S
C1159 C1154 1.379 . S
C1159 N1157 1.356 . S
N1160 C1152 1.356 . S
N1160 H1166 0.984 . S
N1160 H1167 0.984 . S
N1161 C1154 1.356 . S
N1161 H1164 0.984 . S
N1161 H1165 0.985 . S
H1162 N1157 0.984 . S
H1163 N1157 0.985 . S
H1164 N1161 0.984 . S
H1165 N1161 0.985 . S
H1166 N1160 0.984 . S
H1167 N1160 0.984 . S
H1168 N1156 0.984 . S
H1169 N1156 0.985 . S
C1170 C1171 1.363 . S
C1170 C1176 1.379 1_565 S
C1170 N1178 1.356 1_565 S
C1171 C1170 1.363 . S
C1171 C1177 1.363 . S
C1172 C1173 1.363 . S
C1172 C1177 1.379 . S
C1172 N1179 1.356 . S
C1173 C1172 1.363 . S
C1173 C1176 1.363 1_565 S
N1174 C1176 1.356 . S
N1174 H1186 0.984 . S
N1174 H1187 0.985 . S
N1175 C1177 1.356 . S
N1175 H1180 0.984 . S
N1175 H1181 0.985 . S
C1176 C1170 1.379 1_545 S
C1176 C1173 1.363 1_545 S
C1176 N1174 1.356 . S
C1177 C1171 1.363 . S
C1177 C1172 1.379 . S
C1177 N1175 1.356 . S
N1178 C1170 1.356 1_545 S
N1178 H1184 0.984 . S
N1178 H1185 0.984 1_545 S
N1179 C1172 1.356 . S
N1179 H1182 0.984 . S
N1179 H1183 0.985 . S
H1180 N1175 0.984 . S
H1181 N1175 0.985 . S
H1182 N1179 0.984 . S
H1183 N1179 0.985 . S
H1184 N1178 0.984 . S
H1185 N1178 0.984 1_565 S
H1186 N1174 0.984 . S
H1187 N1174 0.985 . S
C1188 C1189 1.363 . S
C1188 C1194 1.379 . S
C1188 N1196 1.356 . S
C1189 C1188 1.363 . S
C1189 C1195 1.363 . S
C1190 C1191 1.363 . S
C1190 C1195 1.379 . S
C1190 N1197 1.356 . S
C1191 C1190 1.363 . S
C1191 C1194 1.363 . S
N1192 C1194 1.356 . S
N1192 H1204 0.984 . S
N1192 H1205 0.985 . S
N1193 C1195 1.356 . S
N1193 H1198 0.984 . S
N1193 H1199 0.985 . S
C1194 C1188 1.379 . S
C1194 C1191 1.363 . S
C1194 N1192 1.356 . S
C1195 C1189 1.363 . S
C1195 C1190 1.379 . S
C1195 N1193 1.356 . S
N1196 C1188 1.356 . S
N1196 H1202 0.984 . S
N1196 H1203 0.984 . S
N1197 C1190 1.356 . S
N1197 H1200 0.984 . S
N1197 H1201 0.985 . S
H1198 N1193 0.984 . S
H1199 N1193 0.985 . S
H1200 N1197 0.984 . S
H1201 N1197 0.985 . S
H1202 N1196 0.984 . S
H1203 N1196 0.984 . S
H1204 N1192 0.984 . S
H1205 N1192 0.985 . S
C1206 C1207 1.363 . S
C1206 C1212 1.379 . S
C1206 N1214 1.356 . S
C1207 C1206 1.363 . S
C1207 C1213 1.363 . S
C1208 C1209 1.363 . S
C1208 C1213 1.379 . S
C1208 N1215 1.356 . S
C1209 C1208 1.363 . S
C1209 C1212 1.363 . S
N1210 C1212 1.356 . S
N1210 H1222 0.984 . S
N1210 H1223 0.985 . S
N1211 C1213 1.356 . S
N1211 H1216 0.984 . S
N1211 H1217 0.985 . S
C1212 C1206 1.379 . S
C1212 C1209 1.363 . S
C1212 N1210 1.356 . S
C1213 C1207 1.363 . S
C1213 C1208 1.379 . S
C1213 N1211 1.356 . S
N1214 C1206 1.356 . S
N1214 H1220 0.984 . S
N1214 H1221 0.984 . S
N1215 C1208 1.356 . S
N1215 H1218 0.984 . S
N1215 H1219 0.985 . S
H1216 N1211 0.984 . S
H1217 N1211 0.985 . S
H1218 N1215 0.984 . S
H1219 N1215 0.985 . S
H1220 N1214 0.984 . S
H1221 N1214 0.984 . S
H1222 N1210 0.984 . S
H1223 N1210 0.985 . S
C1224 C1225 1.363 . S
C1224 C1230 1.379 . S
C1224 N1232 1.356 1_655 S
C1225 C1224 1.363 . S
C1225 C1231 1.363 . S
C1226 C1227 1.363 . S
C1226 C1231 1.379 . S
C1226 N1233 1.356 . S
C1227 C1226 1.363 . S
C1227 C1230 1.363 . S
N1228 C1230 1.356 1_455 S
N1228 H1240 0.984 . S
N1228 H1241 0.985 . S
N1229 C1231 1.356 . S
N1229 H1234 0.984 . S
N1229 H1235 0.985 . S
C1230 C1224 1.379 . S
C1230 C1227 1.363 . S
C1230 N1228 1.356 1_655 S
C1231 C1225 1.363 . S
C1231 C1226 1.379 . S
C1231 N1229 1.356 . S
N1232 C1224 1.356 1_455 S
N1232 H1238 0.984 . S
N1232 H1239 0.984 . S
N1233 C1226 1.356 . S
N1233 H1236 0.984 . S
N1233 H1237 0.985 . S
H1234 N1229 0.984 . S
H1235 N1229 0.985 . S
H1236 N1233 0.984 . S
H1237 N1233 0.985 . S
H1238 N1232 0.984 . S
H1239 N1232 0.984 . S
H1240 N1228 0.984 . S
H1241 N1228 0.985 . S
C1242 C1243 1.363 . S
C1242 C1248 1.379 . S
C1242 N1250 1.356 . S
C1243 C1242 1.363 . S
C1243 C1249 1.363 . S
C1244 C1245 1.363 . S
C1244 C1249 1.379 . S
C1244 N1251 1.356 . S
C1245 C1244 1.363 . S
C1245 C1248 1.363 . S
N1246 C1248 1.356 . S
N1246 H1258 0.984 . S
N1246 H1259 0.985 . S
N1247 C1249 1.356 . S
N1247 H1252 0.984 . S
N1247 H1253 0.985 . S
C1248 C1242 1.379 . S
C1248 C1245 1.363 . S
C1248 N1246 1.356 . S
C1249 C1243 1.363 . S
C1249 C1244 1.379 . S
C1249 N1247 1.356 . S
N1250 C1242 1.356 . S
N1250 H1256 0.984 . S
N1250 H1257 0.984 . S
N1251 C1244 1.356 . S
N1251 H1254 0.984 . S
N1251 H1255 0.985 . S
H1252 N1247 0.984 . S
H1253 N1247 0.985 . S
H1254 N1251 0.984 . S
H1255 N1251 0.985 . S
H1256 N1250 0.984 . S
H1257 N1250 0.984 . S
H1258 N1246 0.984 . S
H1259 N1246 0.985 . S
C1260 C1261 1.363 . S
C1260 C1266 1.379 . S
C1260 N1268 1.356 . S
C1261 C1260 1.363 . S
C1261 C1267 1.363 . S
C1262 C1263 1.363 1_565 S
C1262 C1267 1.379 1_565 S
C1262 N1269 1.356 . S
C1263 C1262 1.363 1_545 S
C1263 C1266 1.363 . S
N1264 C1266 1.356 . S
N1264 H1276 0.984 . S
N1264 H1277 0.985 . S
N1265 C1267 1.356 1_565 S
N1265 H1270 0.984 1_565 S
N1265 H1271 0.985 . S
C1266 C1260 1.379 . S
C1266 C1263 1.363 . S
C1266 N1264 1.356 . S
C1267 C1261 1.363 . S
C1267 C1262 1.379 1_545 S
C1267 N1265 1.356 1_545 S
N1268 C1260 1.356 . S
N1268 H1274 0.984 . S
N1268 H1275 0.984 . S
N1269 C1262 1.356 . S
N1269 H1272 0.984 . S
N1269 H1273 0.985 . S
H1270 N1265 0.984 1_545 S
H1271 N1265 0.985 . S
H1272 N1269 0.984 . S
H1273 N1269 0.985 . S
H1274 N1268 0.984 . S
H1275 N1268 0.984 . S
H1276 N1264 0.984 . S
H1277 N1264 0.985 . S
C1278 C1279 1.363 . S
C1278 C1284 1.379 . S
C1278 N1286 1.356 . S
C1279 C1278 1.363 . S
C1279 C1285 1.363 . S
C1280 C1281 1.363 . S
C1280 C1285 1.379 . S
C1280 N1287 1.356 . S
C1281 C1280 1.363 . S
C1281 C1284 1.363 . S
N1282 C1284 1.356 . S
N1282 H1294 0.984 . S
N1282 H1295 0.985 . S
N1283 C1285 1.356 . S
N1283 H1288 0.984 . S
N1283 H1289 0.985 . S
C1284 C1278 1.379 . S
C1284 C1281 1.363 . S
C1284 N1282 1.356 . S
C1285 C1279 1.363 . S
C1285 C1280 1.379 . S
C1285 N1283 1.356 . S
N1286 C1278 1.356 . S
N1286 H1292 0.984 . S
N1286 H1293 0.984 . S
N1287 C1280 1.356 . S
N1287 H1290 0.984 . S
N1287 H1291 0.985 . S
H1288 N1283 0.984 . S
H1289 N1283 0.985 . S
H1290 N1287 0.984 . S
H1291 N1287 0.985 . S
H1292 N1286 0.984 . S
H1293 N1286 0.984 . S
H1294 N1282 0.984 . S
H1295 N1282 0.985 . S
C1296 C1297 1.363 . S
C1296 C1302 1.379 . S
C1296 N1304 1.356 . S
C1297 C1296 1.363 . S
C1297 C1303 1.363 . S
C1298 C1299 1.363 . S
C1298 C1303 1.379 . S
C1298 N1305 1.356 . S
C1299 C1298 1.363 . S
C1299 C1302 1.363 . S
N1300 C1302 1.356 . S
N1300 H1312 0.984 . S
N1300 H1313 0.985 . S
N1301 C1303 1.356 . S
N1301 H1306 0.984 . S
N1301 H1307 0.985 . S
C1302 C1296 1.379 . S
C1302 C1299 1.363 . S
C1302 N1300 1.356 . S
C1303 C1297 1.363 . S
C1303 C1298 1.379 . S
C1303 N1301 1.356 . S
N1304 C1296 1.356 . S
N1304 H1310 0.984 . S
N1304 H1311 0.984 . S
N1305 C1298 1.356 . S
N1305 H1308 0.984 . S
N1305 H1309 0.985 . S
H1306 N1301 0.984 . S
H1307 N1301 0.985 . S
H1308 N1305 0.984 . S
H1309 N1305 0.985 . S
H1310 N1304 0.984 . S
H1311 N1304 0.984 . S
H1312 N1300 0.984 . S
H1313 N1300 0.985 . S
C1314 C1315 1.363 . S
C1314 C1320 1.379 . S
C1314 N1322 1.356 . S
C1315 C1314 1.363 . S
C1315 C1321 1.363 . S
C1316 C1317 1.363 . S
C1316 C1321 1.379 . S
C1316 N1323 1.356 . S
C1317 C1316 1.363 . S
C1317 C1320 1.363 . S
N1318 C1320 1.356 . S
N1318 H1330 0.984 . S
N1318 H1331 0.985 . S
N1319 C1321 1.356 . S
N1319 H1324 0.984 . S
N1319 H1325 0.985 . S
C1320 C1314 1.379 . S
C1320 C1317 1.363 . S
C1320 N1318 1.356 . S
C1321 C1315 1.363 . S
C1321 C1316 1.379 . S
C1321 N1319 1.356 . S
N1322 C1314 1.356 . S
N1322 H1328 0.984 . S
N1322 H1329 0.984 . S
N1323 C1316 1.356 . S
N1323 H1326 0.984 . S
N1323 H1327 0.985 . S
H1324 N1319 0.984 . S
H1325 N1319 0.985 . S
H1326 N1323 0.984 . S
H1327 N1323 0.985 . S
H1328 N1322 0.984 . S
H1329 N1322 0.984 . S
H1330 N1318 0.984 . S
H1331 N1318 0.985 . S
C1332 C1333 1.363 . S
C1332 C1338 1.379 . S
C1332 N1340 1.356 . S
C1333 C1332 1.363 . S
C1333 C1339 1.363 . S
C1334 C1335 1.363 . S
C1334 C1339 1.379 . S
C1334 N1341 1.356 . S
C1335 C1334 1.363 . S
C1335 C1338 1.363 . S
N1336 C1338 1.356 . S
N1336 H1348 0.984 . S
N1336 H1349 0.985 . S
N1337 C1339 1.356 . S
N1337 H1342 0.984 . S
N1337 H1343 0.985 . S
C1338 C1332 1.379 . S
C1338 C1335 1.363 . S
C1338 N1336 1.356 . S
C1339 C1333 1.363 . S
C1339 C1334 1.379 . S
C1339 N1337 1.356 . S
N1340 C1332 1.356 . S
N1340 H1346 0.984 . S
N1340 H1347 0.984 . S
N1341 C1334 1.356 . S
N1341 H1344 0.984 . S
N1341 H1345 0.985 . S
H1342 N1337 0.984 . S
H1343 N1337 0.985 . S
H1344 N1341 0.984 . S
H1345 N1341 0.985 . S
H1346 N1340 0.984 . S
H1347 N1340 0.984 . S
H1348 N1336 0.984 . S
H1349 N1336 0.985 . S
C1350 C1351 1.363 . S
C1350 C1356 1.379 . S
C1350 N1358 1.356 . S
C1351 C1350 1.363 . S
C1351 C1357 1.363 . S
C1352 C1353 1.363 . S
C1352 C1357 1.379 . S
C1352 N1359 1.356 . S
C1353 C1352 1.363 . S
C1353 C1356 1.363 . S
N1354 C1356 1.356 . S
N1354 H1366 0.984 . S
N1354 H1367 0.985 . S
N1355 C1357 1.356 . S
N1355 H1360 0.984 . S
N1355 H1361 0.985 . S
C1356 C1350 1.379 . S
C1356 C1353 1.363 . S
C1356 N1354 1.356 . S
C1357 C1351 1.363 . S
C1357 C1352 1.379 . S
C1357 N1355 1.356 . S
N1358 C1350 1.356 . S
N1358 H1364 0.984 . S
N1358 H1365 0.984 . S
N1359 C1352 1.356 . S
N1359 H1362 0.984 . S
N1359 H1363 0.985 . S
H1360 N1355 0.984 . S
H1361 N1355 0.985 . S
H1362 N1359 0.984 . S
H1363 N1359 0.985 . S
H1364 N1358 0.984 . S
H1365 N1358 0.984 . S
H1366 N1354 0.984 . S
H1367 N1354 0.985 . S
C1368 C1369 1.363 . S
C1368 C1374 1.379 . S
C1368 N1376 1.356 . S
C1369 C1368 1.363 . S
C1369 C1375 1.363 . S
C1370 C1371 1.363 . S
C1370 C1375 1.379 . S
C1370 N1377 1.356 . S
C1371 C1370 1.363 . S
C1371 C1374 1.363 . S
N1372 C1374 1.356 . S
N1372 H1384 0.984 . S
N1372 H1385 0.985 . S
N1373 C1375 1.356 . S
N1373 H1378 0.984 . S
N1373 H1379 0.985 . S
C1374 C1368 1.379 . S
C1374 C1371 1.363 . S
C1374 N1372 1.356 . S
C1375 C1369 1.363 . S
C1375 C1370 1.379 . S
C1375 N1373 1.356 . S
N1376 C1368 1.356 . S
N1376 H1382 0.984 . S
N1376 H1383 0.984 . S
N1377 C1370 1.356 . S
N1377 H1380 0.984 . S
N1377 H1381 0.985 . S
H1378 N1373 0.984 . S
H1379 N1373 0.985 . S
H1380 N1377 0.984 . S
H1381 N1377 0.985 . S
H1382 N1376 0.984 . S
H1383 N1376 0.984 . S
H1384 N1372 0.984 . S
H1385 N1372 0.985 . S
C1386 C1387 1.363 . S
C1386 C1392 1.379 . S
C1386 N1394 1.356 . S
C1387 C1386 1.363 . S
C1387 C1393 1.363 . S
C1388 C1389 1.363 . S
C1388 C1393 1.379 . S
C1388 N1395 1.356 . S
C1389 C1388 1.363 . S
C1389 C1392 1.363 . S
N1390 C1392 1.356 . S
N1390 H1402 0.984 . S
N1390 H1403 0.985 . S
N1391 C1393 1.356 . S
N1391 H1396 0.984 . S
N1391 H1397 0.985 . S
C1392 C1386 1.379 . S
C1392 C1389 1.363 . S
C1392 N1390 1.356 . S
C1393 C1387 1.363 . S
C1393 C1388 1.379 . S
C1393 N1391 1.356 . S
N1394 C1386 1.356 . S
N1394 H1400 0.984 . S
N1394 H1401 0.984 . S
N1395 C1388 1.356 . S
N1395 H1398 0.984 . S
N1395 H1399 0.985 . S
H1396 N1391 0.984 . S
H1397 N1391 0.985 . S
H1398 N1395 0.984 . S
H1399 N1395 0.985 . S
H1400 N1394 0.984 . S
H1401 N1394 0.984 . S
H1402 N1390 0.984 . S
H1403 N1390 0.985 . S
C1404 C1405 1.363 . S
C1404 C1410 1.379 . S
C1404 N1412 1.356 . S
C1405 C1404 1.363 . S
C1405 C1411 1.363 . S
C1406 C1407 1.363 . S
C1406 C1411 1.379 . S
C1406 N1413 1.356 . S
C1407 C1406 1.363 . S
C1407 C1410 1.363 . S
N1408 C1410 1.356 . S
N1408 H1420 0.984 . S
N1408 H1421 0.985 . S
N1409 C1411 1.356 . S
N1409 H1414 0.984 . S
N1409 H1415 0.985 . S
C1410 C1404 1.379 . S
C1410 C1407 1.363 . S
C1410 N1408 1.356 . S
C1411 C1405 1.363 . S
C1411 C1406 1.379 . S
C1411 N1409 1.356 . S
N1412 C1404 1.356 . S
N1412 H1418 0.984 . S
N1412 H1419 0.984 . S
N1413 C1406 1.356 . S
N1413 H1416 0.984 . S
N1413 H1417 0.985 . S
H1414 N1409 0.984 . S
H1415 N1409 0.985 . S
H1416 N1413 0.984 . S
H1417 N1413 0.985 . S
H1418 N1412 0.984 . S
H1419 N1412 0.984 . S
H1420 N1408 0.984 . S
H1421 N1408 0.985 . S
C1422 C1423 1.363 . S
C1422 C1428 1.379 . S
C1422 N1430 1.356 . S
C1423 C1422 1.363 . S
C1423 C1429 1.363 . S
C1424 C1425 1.363 . S
C1424 C1429 1.379 . S
C1424 N1431 1.356 . S
C1425 C1424 1.363 . S
C1425 C1428 1.363 . S
N1426 C1428 1.356 . S
N1426 H1438 0.984 . S
N1426 H1439 0.985 . S
N1427 C1429 1.356 . S
N1427 H1432 0.984 . S
N1427 H1433 0.985 . S
C1428 C1422 1.379 . S
C1428 C1425 1.363 . S
C1428 N1426 1.356 . S
C1429 C1423 1.363 . S
C1429 C1424 1.379 . S
C1429 N1427 1.356 . S
N1430 C1422 1.356 . S
N1430 H1436 0.984 . S
N1430 H1437 0.984 . S
N1431 C1424 1.356 . S
N1431 H1434 0.984 . S
N1431 H1435 0.985 . S
H1432 N1427 0.984 . S
H1433 N1427 0.985 . S
H1434 N1431 0.984 . S
H1435 N1431 0.985 . S
H1436 N1430 0.984 . S
H1437 N1430 0.984 . S
H1438 N1426 0.984 . S
H1439 N1426 0.985 . S
C1440 C1441 1.363 . S
C1440 C1446 1.379 . S
C1440 N1448 1.356 . S
C1441 C1440 1.363 . S
C1441 C1447 1.363 . S
C1442 C1443 1.363 . S
C1442 C1447 1.379 . S
C1442 N1449 1.356 . S
C1443 C1442 1.363 . S
C1443 C1446 1.363 . S
N1444 C1446 1.356 . S
N1444 H1456 0.984 . S
N1444 H1457 0.985 . S
N1445 C1447 1.356 . S
N1445 H1450 0.984 . S
N1445 H1451 0.985 . S
C1446 C1440 1.379 . S
C1446 C1443 1.363 . S
C1446 N1444 1.356 . S
C1447 C1441 1.363 . S
C1447 C1442 1.379 . S
C1447 N1445 1.356 . S
N1448 C1440 1.356 . S
N1448 H1454 0.984 . S
N1448 H1455 0.984 . S
N1449 C1442 1.356 . S
N1449 H1452 0.984 . S
N1449 H1453 0.985 . S
H1450 N1445 0.984 . S
H1451 N1445 0.985 . S
H1452 N1449 0.984 . S
H1453 N1449 0.985 . S
H1454 N1448 0.984 . S
H1455 N1448 0.984 . S
H1456 N1444 0.984 . S
H1457 N1444 0.985 . S
C1458 C1459 1.363 . S
C1458 C1464 1.379 . S
C1458 N1466 1.356 . S
C1459 C1458 1.363 . S
C1459 C1465 1.363 . S
C1460 C1461 1.363 . S
C1460 C1465 1.379 . S
C1460 N1467 1.356 . S
C1461 C1460 1.363 . S
C1461 C1464 1.363 . S
N1462 C1464 1.356 . S
N1462 H1474 0.984 . S
N1462 H1475 0.985 . S
N1463 C1465 1.356 . S
N1463 H1468 0.984 . S
N1463 H1469 0.985 . S
C1464 C1458 1.379 . S
C1464 C1461 1.363 . S
C1464 N1462 1.356 . S
C1465 C1459 1.363 . S
C1465 C1460 1.379 . S
C1465 N1463 1.356 . S
N1466 C1458 1.356 . S
N1466 H1472 0.984 . S
N1466 H1473 0.984 . S
N1467 C1460 1.356 . S
N1467 H1470 0.984 . S
N1467 H1471 0.985 . S
H1468 N1463 0.984 . S
H1469 N1463 0.985 . S
H1470 N1467 0.984 . S
H1471 N1467 0.985 . S
H1472 N1466 0.984 . S
H1473 N1466 0.984 . S
H1474 N1462 0.984 . S
H1475 N1462 0.985 . S
C1476 C1477 1.363 . S
C1476 C1482 1.379 . S
C1476 N1484 1.356 . S
C1477 C1476 1.363 . S
C1477 C1483 1.363 . S
C1478 C1479 1.363 . S
C1478 C1483 1.379 . S
C1478 N1485 1.356 . S
C1479 C1478 1.363 . S
C1479 C1482 1.363 . S
N1480 C1482 1.356 . S
N1480 H1492 0.984 . S
N1480 H1493 0.985 . S
N1481 C1483 1.356 . S
N1481 H1486 0.984 . S
N1481 H1487 0.985 . S
C1482 C1476 1.379 . S
C1482 C1479 1.363 . S
C1482 N1480 1.356 . S
C1483 C1477 1.363 . S
C1483 C1478 1.379 . S
C1483 N1481 1.356 . S
N1484 C1476 1.356 . S
N1484 H1490 0.984 . S
N1484 H1491 0.984 . S
N1485 C1478 1.356 . S
N1485 H1488 0.984 . S
N1485 H1489 0.985 . S
H1486 N1481 0.984 . S
H1487 N1481 0.985 . S
H1488 N1485 0.984 . S
H1489 N1485 0.985 . S
H1490 N1484 0.984 . S
H1491 N1484 0.984 . S
H1492 N1480 0.984 . S
H1493 N1480 0.985 . S
C523 C124 1.570 . S
C525 C165 1.588 . S
C541 C130 1.685 . S
C543 C205 1.692 . S
C559 C115 1.570 . S
C561 C257 1.585 . S
C577 C106 1.496 . S
C579 C217 1.499 . S
C597 C245 1.484 . S
C595 C85 1.469 . S
C613 C97 1.374 . S
C615 C177 1.399 . S
C633 C184 1.607 . S
C631 C103 1.586 . S
C651 C224 1.674 . S
C649 C88 1.664 . S
C667 C94 1.569 . S
C669 C244 1.582 . S
C685 C121 1.495 . S
C687 C204 1.497 . S
C703 C133 1.449 . S
C705 C264 1.463 . S
C723 C164 1.417 . S
C721 C112 1.390 . S
C741 C285 1.588 . S
C739 C16 1.570 . S
C757 C22 1.685 . S
C759 C325 1.692 . S
C775 C7 1.570 . S
C777 C377 1.585 . S
C793 C160 1.496 . S
C795 C337 1.499 . S
C811 C139 1.469 . S
C813 C365 1.484 . S
C829 C151 1.374 . S
C831 C297 1.399 . S
C847 C157 1.586 . S
C849 C304 1.607 . S
C865 C142 1.664 . S
C867 C344 1.674 . S
C885 C364 1.583 . S
C883 C148 1.570 . S
C901 C13 1.495 . S
C903 C324 1.497 . S
C921 C384 1.463 . S
C919 C25 1.450 . S
C937 C4 1.390 . S
C939 C284 1.417 . S
C957 C405 1.588 . S
C955 C70 1.570 . S
C973 C76 1.685 . S
C975 C445 1.692 . S
C993 C497 1.585 . S
C991 C61 1.570 . S
C1011 C457 1.499 . S
C1009 C52 1.496 . S
C1029 C485 1.484 . S
C1027 C31 1.469 . S
C1045 C43 1.374 . S
C1047 C417 1.399 . S
C1063 C49 1.586 . S
C1065 C424 1.607 . S
C1081 C34 1.664 . S
C1083 C464 1.674 . S
C1101 C484 1.583 . S
C1099 C40 1.570 . S
C1117 C67 1.495 . S
C1119 C444 1.497 . S
C1135 C79 1.449 . S
C1137 C504 1.463 . S
C1153 C58 1.390 . S
C1155 C404 1.417 . S
C1171 C140 1.499 . S
C1173 C188 1.479 . S
C1191 C228 1.681 . S
C1189 C149 1.704 . S
C1207 C158 1.548 . S
C1209 C251 1.541 . S
C1225 C59 1.721 . S
C1227 C211 1.695 . S
C1243 C68 1.532 . S
C1245 C268 1.526 . S
C1263 C171 1.473 . S
C1261 C77 1.499 . S
C1279 C32 1.499 . S
C1281 C308 1.472 . S
C1297 C41 1.704 . S
C1299 C348 1.681 . S
C1315 C50 1.548 . S
C1317 C371 1.541 . S
C1333 C113 1.721 . S
C1335 C331 1.695 . S
C1353 C388 1.527 . S
C1351 C122 1.532 . S
C1369 C131 1.499 . S
C1371 C291 1.473 . S
C1387 C86 1.499 . S
C1389 C428 1.472 . S
C1405 C95 1.704 . S
C1407 C468 1.681 . S
C1425 C491 1.541 . S
C1423 C104 1.548 . S
C1441 C5 1.721 . S
C1443 C451 1.695 . S
C1459 C14 1.532 . S
C1461 C508 1.526 . S
C1477 C23 1.499 . S
C1479 C411 1.473 . S
