# Generated by pormake.
# Topology pth, (4,4)-cn, num edge types: 1
# Building blocks:
#     Node 0, Type 0, BuildingBlock: QUQFOY_clean_sbu_3, # of connection points: 4
#     Node 1, Type 0, BuildingBlock: QUQFOY_clean_sbu_3, # of connection points: 4
#     Node 2, Type 0, BuildingBlock: QUQFOY_clean_sbu_3, # of connection points: 4
#     Node 3, Type 1, BuildingBlock: NAWXER_clean_linker_0, # of connection points: 4
#     Node 4, Type 1, BuildingBlock: NAWXER_clean_linker_0, # of connection points: 4
#     Node 5, Type 1, BuildingBlock: NAWXER_clean_linker_0, # of connection points: 4
#     Edge 6, Type (0, 1), BuildingBlock: CIFDUS_clean_linker_0, # of connection points: 2
#     Edge 7, Type (0, 1), BuildingBlock: CIFDUS_clean_linker_0, # of connection points: 2
#     Edge 8, Type (0, 1), BuildingBlock: CIFDUS_clean_linker_0, # of connection points: 2
#     Edge 9, Type (0, 1), BuildingBlock: CIFDUS_clean_linker_0, # of connection points: 2
#     Edge 10, Type (0, 1), BuildingBlock: CIFDUS_clean_linker_0, # of connection points: 2
#     Edge 11, Type (0, 1), BuildingBlock: CIFDUS_clean_linker_0, # of connection points: 2
#     Edge 12, Type (0, 1), BuildingBlock: CIFDUS_clean_linker_0, # of connection points: 2
#     Edge 13, Type (0, 1), BuildingBlock: CIFDUS_clean_linker_0, # of connection points: 2
#     Edge 14, Type (0, 1), BuildingBlock: CIFDUS_clean_linker_0, # of connection points: 2
#     Edge 15, Type (0, 1), BuildingBlock: CIFDUS_clean_linker_0, # of connection points: 2
#     Edge 16, Type (0, 1), BuildingBlock: CIFDUS_clean_linker_0, # of connection points: 2
#     Edge 17, Type (0, 1), BuildingBlock: CIFDUS_clean_linker_0, # of connection points: 2
# Relax obj value: 0.008
# Max RMSD: 0.059
# Mean RMSD: 0.041
data_MOF--net-pth--node1-QUQFOY_clean_sbu_3--node2-NAWXER_clean_linker_0--edge1-CIFDUS_clean_linker_0
_symmetry_space_group_name_H-M    P1
_symmetry_Int_Tables_number       1
_symmetry_cell_setting            triclinic
loop_
_symmetry_equiv_pos_as_xyz
'x, y, z'
_cell_length_a     26.423481
_cell_length_b     26.246101
_cell_length_c     60.868584
_cell_angle_alpha  90.115567
_cell_angle_beta   90.919338
_cell_angle_gamma 120.89344
loop_
_atom_site_label
_atom_site_type_symbol
_atom_site_fract_x
_atom_site_fract_y
_atom_site_fract_z
_atom_type_partial_charge
C0 C 0.97948 0.16852 0.06822 0.0
O1 O 0.95657 0.16954 0.04985 0.0
Cd2 Cd 0.95232 0.11127 0.01845 0.0
O3 O 0.00145 0.13559 0.07077 0.0
Cd4 Cd 0.01487 0.06363 0.04922 0.0
C5 C 0.09903 0.16259 0.01086 0.0
O6 O 0.91837 0.01206 0.03019 0.0
O7 O 0.983 0.99095 0.01936 0.0
O8 O 0.98739 0.00366 0.08199 0.0
C9 C 0.93051 0.98033 0.01818 0.0
O10 O 0.05077 0.1562 0.00343 0.0
C11 C 0.03254 -0.00147 0.08294 0.0
O12 O 0.10054 0.13805 0.02871 0.0
O13 O 0.07102 0.02512 0.06832 0.0
C14 C 0.16279 0.12706 0.40496 0.0
O15 O 0.18988 0.16282 0.38954 0.0
Cd16 Cd 0.13882 0.16696 0.35756 0.0
O17 O 0.10658 0.09803 0.40525 0.0
Cd18 Cd 0.02288 0.09367 0.38387 0.0
C19 C 0.04781 0.0167 0.34604 0.0
O20 O 0.06849 0.19294 0.36835 0.0
O21 O -0.01059 0.12525 0.35166 0.0
O22 O 0.98755 0.12067 0.41574 0.0
C23 C 0.02842 0.1798 0.35389 0.0
O24 O 0.09258 0.06693 0.3415 0.0
C25 C 0.93663 0.07437 0.41582 0.0
O26 O 0.01383 0.01189 0.36155 0.0
O27 O 0.92556 0.03498 0.40126 0.0
C28 C 0.92108 0.08113 0.68802 0.0
O29 O 0.92096 0.10772 0.70544 0.0
Cd30 Cd 0.98413 0.12049 0.73656 0.0
O31 O 0.9561 0.06167 0.68642 0.0
Cd32 Cd 0.0334 0.05932 0.70863 0.0
C33 C 0.93771 0.97537 0.74726 0.0
O34 O 0.08397 0.15867 0.72549 0.0
O35 O 0.10112 0.09396 0.74026 0.0
O36 O 0.09318 0.09063 0.67633 0.0
C37 C 0.11416 0.14758 0.73895 0.0
O38 O 0.94344 0.02404 0.75403 0.0
C39 C 0.10092 0.04687 0.67525 0.0
O40 O 0.96151 0.97312 0.72953 0.0
O41 O 0.07636 0.00722 0.68981 0.0
C42 C 0.95686 0.37465 0.2498 0.0
C43 C 0.00693 0.38686 0.26253 0.0
C44 C 0.9567 0.41897 0.23717 0.0
C45 C 0.0064 0.47648 0.23712 0.0
C46 C 0.05716 0.44434 0.26192 0.0
C47 C 0.05656 0.48883 0.24957 0.0
C48 C 0.00467 0.52489 0.22551 0.0
C49 C 0.0165 0.41561 0.17041 0.0
C50 C 0.96797 0.39043 0.15561 0.0
C51 C 0.02203 0.45621 0.18656 0.0
C52 C 0.97913 0.47232 0.18826 0.0
C53 C 0.9242 0.40534 0.15787 0.0
C54 C 0.93003 0.44625 0.17389 0.0
C55 C 0.98847 0.52119 0.20309 0.0
C56 C 0.04475 0.76759 0.183 0.0
C57 C -0.00429 0.75543 0.16973 0.0
C58 C 0.04471 0.72246 0.19515 0.0
C59 C -0.00437 0.66442 0.19422 0.0
C60 C 0.9466 0.69735 0.16891 0.0
C61 C 0.9468 0.65217 0.1809 0.0
C62 C -0.00356 0.61562 0.20596 0.0
C63 C 0.98708 0.73206 0.25728 0.0
C64 C 0.03916 0.76377 0.27001 0.0
C65 C 0.97795 0.68473 0.24387 0.0
C66 C 0.02077 0.66829 0.24293 0.0
C67 C 0.08139 0.7464 0.2694 0.0
C68 C 0.072 0.69869 0.25611 0.0
C69 C 0.01184 0.61899 0.22844 0.0
H70 H 0.91699 0.33138 0.25011 0.0
H71 H 0.91704 0.40883 0.22801 0.0
H72 H 0.09698 0.45522 0.27109 0.0
H73 H 0.09534 0.53302 0.24976 0.0
H74 H 0.05153 0.40596 0.16894 0.0
H75 H 0.06117 0.47696 0.19706 0.0
H76 H 0.88577 0.38606 0.14702 0.0
H77 H 0.89657 0.4583 0.17485 0.0
H78 H 0.08313 0.81197 0.18395 0.0
H79 H 0.08346 0.73265 0.20494 0.0
H80 H 0.90855 0.68654 0.15857 0.0
H81 H 0.9088 0.60755 0.17976 0.0
H82 H 0.95391 0.74462 0.25736 0.0
H83 H 0.93748 0.66104 0.23418 0.0
H84 H 0.12161 0.76964 0.27925 0.0
H85 H 0.10525 0.68626 0.25579 0.0
N86 N 0.01583 0.57372 0.23736 0.0
N87 N 0.98494 0.5667 0.1942 0.0
C88 C 0.68064 0.04079 0.511 0.0
C89 C 0.66564 -0.00012 0.49354 0.0
C90 C 0.63698 0.04031 0.52381 0.0
C91 C 0.57722 -0.00264 0.52011 0.0
C92 C 0.60564 0.95751 0.48966 0.0
C93 C 0.56209 0.95622 0.50282 0.0
C94 C 0.52971 -0.00262 0.53285 0.0
C95 C 0.6468 0.99016 0.58848 0.0
C96 C 0.67069 0.041 0.60216 0.0
C97 C 0.60333 0.97943 0.57258 0.0
C98 C 0.58352 0.01955 0.57017 0.0
C99 C 0.65214 0.08195 0.59898 0.0
C100 C 0.60875 0.07108 0.58329 0.0
C101 C 0.53262 0.00649 0.55588 0.0
C102 C 0.2883 0.9499 0.57753 0.0
C103 C 0.30285 -0.00635 0.59378 0.0
C104 C 0.33216 0.9522 0.56426 0.0
C105 C 0.3912 -0.00207 0.56724 0.0
C106 C 0.36184 0.03959 0.59654 0.0
C107 C 0.40566 0.04138 0.58353 0.0
C108 C 0.43882 -0.00119 0.55454 0.0
C109 C 0.34895 0.05667 0.50723 0.0
C110 C 0.31694 0.016 0.49021 0.0
C111 C 0.38706 0.04845 0.52082 0.0
C112 C 0.39387 -0.00073 0.51773 0.0
C113 C 0.32323 0.96638 0.48721 0.0
C114 C 0.362 0.95845 0.50074 0.0
C115 C 0.43718 -0.00661 0.53148 0.0
H116 H 0.7262 0.07375 0.51477 0.0
H117 H 0.65028 0.07461 0.53623 0.0
H118 H 0.59191 0.9261 0.47611 0.0
H119 H 0.51631 0.9233 0.4993 0.0
H120 H 0.65998 0.95762 0.59063 0.0
H121 H 0.58376 0.939 0.56278 0.0
H122 H 0.67053 0.12213 0.60888 0.0
H123 H 0.59405 0.10262 0.58164 0.0
H124 H 0.24308 0.9141 0.5751 0.0
H125 H 0.32021 0.9176 0.55204 0.0
H126 H 0.37429 0.07347 0.60912 0.0
H127 H 0.45097 0.07676 0.58621 0.0
H128 H 0.34481 0.09518 0.50995 0.0
H129 H 0.41225 0.08138 0.53347 0.0
H130 H 0.29945 0.93471 0.47403 0.0
H131 H 0.3672 0.92062 0.49793 0.0
N132 N 0.48206 0.99167 0.52152 0.0
N133 N 0.48681 0.00616 0.56574 0.0
C134 C 0.39493 0.34455 0.84111 0.0
C135 C 0.36042 0.35903 0.82758 0.0
C136 C 0.44078 0.38791 0.85423 0.0
C137 C 0.45387 0.44681 0.85376 0.0
C138 C 0.37372 0.41836 0.82738 0.0
C139 C 0.42055 0.46194 0.84011 0.0
C140 C 0.50258 0.49276 0.86743 0.0
C141 C 0.34827 0.39912 0.91146 0.0
C142 C 0.35375 0.36264 0.92705 0.0
C143 C 0.39678 0.43995 0.89952 0.0
C144 C 0.45198 0.44539 0.90287 0.0
C145 C 0.40942 0.36876 0.9306 0.0
C146 C 0.45824 0.41016 0.91871 0.0
C147 C 0.50337 0.48996 0.89053 0.0
C148 C 0.69771 0.73059 0.91804 0.0
C149 C 0.72806 0.71696 0.93392 0.0
C150 C 0.65533 0.68618 0.90417 0.0
C151 C 0.64268 0.62747 0.90593 0.0
C152 C 0.71504 0.65807 0.93571 0.0
C153 C 0.67227 0.6136 0.92197 0.0
C154 C 0.59671 0.57988 0.89183 0.0
C155 C 0.7477 0.70076 0.84901 0.0
C156 C 0.73242 0.72327 0.83084 0.0
C157 C 0.70382 0.65416 0.86109 0.0
C158 C 0.64383 0.631 0.85574 0.0
C159 C 0.67282 0.69845 0.82485 0.0
C160 C 0.62894 0.65293 0.83723 0.0
C161 C 0.59602 0.58266 0.86859 0.0
H162 H 0.38725 0.2999 0.8414 0.0
H163 H 0.4666 0.37566 0.86452 0.0
H164 H 0.34763 0.43128 0.81762 0.0
H165 H 0.43 0.50727 0.83966 0.0
H166 H 0.30662 0.39697 0.90871 0.0
H167 H 0.39135 0.46805 0.88788 0.0
H168 H 0.41519 0.34119 0.94237 0.0
H169 H 0.50069 0.41421 0.92168 0.0
H170 H 0.70704 0.77566 0.91628 0.0
H171 H 0.63213 0.69757 0.89216 0.0
H172 H 0.73724 0.64624 0.94799 0.0
H173 H 0.66254 0.56838 0.92374 0.0
H174 H 0.79358 0.71891 0.85371 0.0
H175 H 0.71701 0.63633 0.87455 0.0
H176 H 0.66014 0.71533 0.8109 0.0
H177 H 0.58318 0.63547 0.83251 0.0
N178 N 0.54865 0.53892 0.85732 0.0
N179 N 0.55053 0.53345 0.9019 0.0
H180 H 0.94526 0.25029 0.0679 0.0
H181 H 0.01547 0.16928 0.11065 0.0
H182 H 0.01665 0.22941 0.14148 0.0
H183 H -0.00217 0.30503 0.15638 0.0
H184 H 0.93126 0.3886 0.11321 0.0
H185 H 0.92753 0.32655 0.08267 0.0
C186 C 0.96078 0.24568 0.08395 0.0
C187 C 0.98026 0.20529 0.08689 0.0
C188 C 0.96162 0.28057 0.10163 0.0
C189 C 0.00034 0.20009 0.10784 0.0
C190 C 0.00097 0.23442 0.12553 0.0
C191 C 0.98291 0.31002 0.14026 0.0
C192 C 0.96459 0.35132 0.1372 0.0
C193 C 0.98184 0.27489 0.12261 0.0
C194 C 0.94459 0.35646 0.11622 0.0
C195 C 0.94291 0.32133 0.09865 0.0
H196 H 0.83582 0.97355 0.42802 0.0
H197 H 0.9371 0.16327 0.43873 0.0
H198 H 0.86241 0.15699 0.46337 0.0
H199 H 0.76735 0.09875 0.48085 0.0
H200 H 0.6689 0.90783 0.47305 0.0
H201 H 0.74276 0.91379 0.44795 0.0
C202 C 0.8415 0.01339 0.43583 0.0
C203 C 0.89184 0.06878 0.43148 0.0
C204 C 0.79868 0.00943 0.45034 0.0
C205 C 0.89889 0.12003 0.44184 0.0
C206 C 0.85609 0.11655 0.45589 0.0
C207 C 0.7623 0.05809 0.47412 0.0
C208 C 0.71208 0.00294 0.47894 0.0
C209 C 0.80574 0.06156 0.4602 0.0
C210 C 0.70625 0.95116 0.46941 0.0
C211 C 0.74882 0.95441 0.45515 0.0
H212 H 0.92228 0.9677 0.79115 0.0
H213 H 0.87177 0.86138 0.7318 0.0
H214 H 0.80435 0.77293 0.75259 0.0
H215 H 0.75575 0.72722 0.78748 0.0
H216 H 0.81075 0.83288 0.84697 0.0
H217 H 0.88082 0.92043 0.82637 0.0
C218 C 0.89672 0.92505 0.78281 0.0
C219 C 0.90135 0.92102 0.75998 0.0
C220 C 0.85887 0.8745 0.79489 0.0
C221 C 0.86884 0.86546 0.74939 0.0
C222 C 0.83016 0.81501 0.76124 0.0
C223 C 0.78356 0.76944 0.79585 0.0
C224 C 0.7782 0.77415 0.81858 0.0
C225 C 0.82421 0.8192 0.78394 0.0
C226 C 0.81453 0.82858 0.82945 0.0
C227 C 0.85429 0.87852 0.81768 0.0
H228 H 0.95165 0.92979 0.1129 0.0
H229 H 0.12539 0.98159 0.09023 0.0
H230 H 0.13072 0.91321 0.11611 0.0
H231 H 0.08344 0.83454 0.14368 0.0
H232 H 0.90859 0.7813 0.16535 0.0
H233 H 0.90617 0.8544 0.14126 0.0
C234 C -0.00906 0.92655 0.11372 0.0
C235 C 0.038 0.96062 0.09961 0.0
C236 C -0.0067 0.8866 0.12835 0.0
C237 C 0.08851 0.95576 0.10088 0.0
C238 C 0.09154 0.91662 0.11564 0.0
C239 C 0.04519 0.8396 0.14332 0.0
C240 C -0.00382 0.80253 0.1562 0.0
C241 C 0.04387 0.88126 0.12925 0.0
C242 C 0.94657 0.80893 0.15539 0.0
C243 C 0.94523 0.85079 0.14169 0.0
H244 H 0.12839 0.02633 0.42809 0.0
H245 H 0.27478 0.20452 0.41933 0.0
H246 H 0.33469 0.18607 0.44538 0.0
H247 H 0.34676 0.11839 0.46955 0.0
H248 H 0.20295 0.93848 0.47701 0.0
H249 H 0.14078 0.9581 0.45234 0.0
C250 C 0.17317 0.06126 0.43211 0.0
C251 C 0.19707 0.11683 0.42194 0.0
C252 C 0.20794 0.04979 0.44664 0.0
C253 C 0.25546 0.1614 0.42697 0.0
C254 C 0.28975 0.15087 0.44182 0.0
C255 C 0.30163 0.08365 0.46589 0.0
C256 C 0.27924 0.02721 0.47512 0.0
C257 C 0.26665 0.09509 0.45157 0.0
C258 C 0.22112 0.98219 0.46997 0.0
C259 C 0.18558 -0.0065 0.45598 0.0
H260 H 0.15144 0.13384 0.77895 0.0
H261 H 0.18018 0.26592 0.73079 0.0
H262 H 0.25968 0.34299 0.75377 0.0
H263 H 0.32249 0.3718 0.78693 0.0
H264 H 0.28651 0.24102 0.83683 0.0
H265 H 0.20923 0.16428 0.81349 0.0
C266 C 0.17516 0.17954 0.77352 0.0
C267 C 0.16048 0.19428 0.75318 0.0
C268 C 0.21978 0.22368 0.787 0.0
C269 C 0.19081 0.25367 0.74643 0.0
C270 C 0.2363 0.29763 0.75952 0.0
C271 C 0.29721 0.32686 0.79299 0.0
C272 C 0.31125 0.31259 0.81364 0.0
C273 C 0.25127 0.28308 0.77981 0.0
C274 C 0.2782 0.25348 0.82083 0.0
C275 C 0.23342 0.20945 0.80757 0.0
H276 H 0.82854 0.0991 0.68811 0.0
H277 H 0.92032 0.04067 0.64653 0.0
H278 H 0.85094 0.02261 0.61635 0.0
H279 H 0.76419 0.02377 0.60164 0.0
H280 H 0.67114 0.07932 0.64384 0.0
H281 H 0.74124 0.09847 0.67375 0.0
C282 C 0.83356 0.08264 0.67243 0.0
C283 C 0.87966 0.07144 0.66961 0.0
C284 C 0.79327 0.07184 0.65519 0.0
C285 C 0.88519 0.04967 0.64919 0.0
C286 C 0.84552 0.03928 0.63189 0.0
C287 C 0.75901 0.03957 0.61744 0.0
C288 C 0.71281 0.0506 0.62039 0.0
C289 C 0.79927 0.05007 0.63472 0.0
C290 C 0.70698 0.07154 0.64095 0.0
C291 C 0.74685 0.08221 0.65813 0.0
H292 H 0.9414 0.89896 -0.0055 0.0
H293 H 0.82025 0.95889 0.00783 0.0
H294 H 0.74735 0.88341 0.98257 0.0
H295 H 0.71773 0.79974 0.95694 0.0
H296 H 0.83821 0.73873 0.94425 0.0
H297 H 0.91168 0.81516 0.96912 0.0
C298 C 0.89909 0.89559 0.99185 0.0
C299 C 0.8863 0.93453 0.00298 0.0
C300 C 0.85727 0.85185 0.97746 0.0
C301 C 0.83115 0.92938 -0.00052 0.0
C302 C 0.78947 0.88629 0.98502 0.0
C303 C 0.76029 0.80359 0.95951 0.0
C304 C 0.77268 0.76386 0.94877 0.0
C305 C 0.80206 0.84729 0.97394 0.0
C306 C 0.82757 0.7686 0.95248 0.0
C307 C 0.86961 0.81236 0.96662 0.0
H308 H 0.12293 0.00696 0.31896 0.0
H309 H 0.94731 0.90669 0.34477 0.0
H310 H 0.92912 0.81943 0.32354 0.0
H311 H 0.96324 0.77182 0.2975 0.0
H312 H 0.13958 0.87232 0.27247 0.0
H313 H 0.15753 0.95927 0.29373 0.0
C314 C 0.08055 0.96612 0.31992 0.0
C315 C 0.03643 0.96352 0.33334 0.0
C316 C 0.07064 0.9161 0.30789 0.0
C317 C 0.98204 0.90995 0.33456 0.0
C318 C 0.97159 0.86004 0.32242 0.0
C319 C 0.00548 0.81288 0.29667 0.0
C320 C 0.05002 0.81573 0.28344 0.0
C321 C 0.01555 0.86266 0.309 0.0
C322 C 0.10483 0.8689 0.28271 0.0
C323 C 0.115 0.91868 0.29476 0.0
H324 H 0.11196 0.95239 0.66379 0.0
H325 H 0.17441 0.13556 0.64829 0.0
H326 H 0.24041 0.13432 0.62113 0.0
H327 H 0.28336 0.08282 0.60272 0.0
H328 H 0.22071 0.89941 0.61719 0.0
H329 H 0.15123 0.89874 0.64356 0.0
C330 C 0.13991 0.99189 0.6544 0.0
C331 C 0.13858 0.04407 0.65818 0.0
C332 C 0.17761 0.99081 0.6386 0.0
C333 C 0.1746 0.09479 0.64574 0.0
C334 C 0.21247 0.09422 0.63021 0.0
C335 C 0.25431 0.04271 0.61163 0.0
C336 C 0.25727 0.99143 0.60821 0.0
C337 C 0.21474 0.04274 0.62666 0.0
C338 C 0.2189 0.93936 0.61954 0.0
C339 C 0.17951 0.9391 0.63468 0.0
H340 H 0.10625 0.18576 0.96748 0.0
H341 H 0.21377 0.21972 0.02597 0.0
H342 H 0.30274 0.28338 0.00507 0.0
H343 H 0.34901 0.33312 0.97045 0.0
H344 H 0.24033 0.2936 0.9118 0.0
H345 H 0.15269 0.22877 0.93261 0.0
C346 C 0.14915 0.20707 0.97568 0.0
C347 C 0.1534 0.19865 -0.00172 0.0
C348 C 0.19985 0.24287 0.96357 0.0
C349 C 0.20937 0.22565 0.00858 0.0
C350 C 0.26018 0.26213 -0.00335 0.0
C351 C 0.30633 0.30962 0.96213 0.0
C352 C 0.30139 0.31917 0.93961 0.0
C353 C 0.25588 0.27149 0.97415 0.0
C354 C 0.24546 0.28846 0.9292 0.0
C355 C 0.19524 0.251 0.94105 0.0
H356 H 0.97486 0.16271 0.31383 0.0
H357 H 0.08606 0.2991 0.36111 0.0
H358 H 0.08874 0.37497 0.33713 0.0
H359 H 0.05827 0.40221 0.30317 0.0
H360 H 0.95328 0.26686 0.2545 0.0
H361 H 0.94858 0.19086 0.27881 0.0
C362 C -0.00044 0.20905 0.31888 0.0
C363 C 0.02997 0.22531 0.33924 0.0
C364 C 0.00183 0.25256 0.30483 0.0
C365 C 0.06236 0.28553 0.34549 0.0
C366 C 0.06385 0.3289 0.33181 0.0
C367 C 0.03519 0.3563 0.29762 0.0
C368 C 0.00606 0.3406 0.27696 0.0
C369 C 0.0338 0.31291 0.31144 0.0
C370 C 0.97529 0.28042 0.27042 0.0
C371 C 0.97289 0.23684 0.28426 0.0
loop_
_geom_bond_atom_site_label_1
_geom_bond_atom_site_label_2
_geom_bond_distance
_geom_bond_site_symmetry_2
_ccdc_geom_bond_type
C0 O1 1.306 1_455 S
C0 O3 1.160 . S
O1 C0 1.306 1_655 S
O1 Cd2 2.228 . S
Cd2 O1 2.228 . S
Cd2 O6 2.273 . S
Cd2 O10 2.277 1_655 S
O3 C0 1.160 . S
O3 Cd4 2.203 . S
Cd4 O3 2.203 . S
Cd4 O6 2.411 1_455 S
Cd4 O7 2.333 1_445 S
Cd4 O8 2.352 1_545 S
Cd4 O12 2.277 . S
Cd4 O13 2.356 1_545 S
C5 O10 1.209 . S
C5 O12 1.226 . S
O6 Cd2 2.273 . S
O6 Cd4 2.411 1_655 S
O6 C9 1.320 1_545 S
O7 Cd4 2.333 1_665 S
O7 C9 1.214 . S
O8 Cd4 2.352 1_565 S
O8 C11 1.266 . S
C9 O6 1.320 1_565 S
C9 O7 1.214 . S
O10 Cd2 2.277 1_455 S
O10 C5 1.209 . S
C11 O8 1.266 . S
C11 O13 1.282 . S
O12 Cd4 2.277 . S
O12 C5 1.226 . S
O13 Cd4 2.356 1_565 S
O13 C11 1.282 . S
C14 O15 1.306 . S
C14 O17 1.160 . S
O15 C14 1.306 . S
O15 Cd16 2.228 . S
Cd16 O15 2.228 . S
Cd16 O20 2.273 . S
Cd16 O24 2.277 . S
O17 C14 1.160 . S
O17 Cd18 2.203 . S
Cd18 O17 2.203 . S
Cd18 O20 2.411 . S
Cd18 O21 2.333 1_455 S
Cd18 O22 2.352 1_455 S
Cd18 O26 2.277 1_445 S
Cd18 O27 2.356 1_455 S
C19 O24 1.209 1_565 S
C19 O26 1.226 1_455 S
O20 Cd16 2.273 . S
O20 Cd18 2.411 . S
O20 C23 1.320 . S
O21 Cd18 2.333 1_655 S
O21 C23 1.214 1_655 S
O22 Cd18 2.352 1_655 S
O22 C25 1.258 . S
C23 O20 1.320 . S
C23 O21 1.214 1_455 S
O24 Cd16 2.277 . S
O24 C19 1.209 1_545 S
C25 O22 1.258 . S
C25 O27 1.282 . S
O26 Cd18 2.277 1_665 S
O26 C19 1.226 1_655 S
O27 Cd18 2.356 1_655 S
O27 C25 1.282 . S
C28 O29 1.306 . S
C28 O31 1.160 . S
O29 C28 1.306 . S
O29 Cd30 2.228 . S
Cd30 O29 2.228 . S
Cd30 O34 2.273 1_655 S
Cd30 O38 2.277 . S
O31 C28 1.160 . S
O31 Cd32 2.203 1_655 S
Cd32 O31 2.203 1_455 S
Cd32 O34 2.411 . S
Cd32 O35 2.333 . S
Cd32 O36 2.352 . S
Cd32 O40 2.277 1_445 S
Cd32 O41 2.356 . S
C33 O38 1.209 1_565 S
C33 O40 1.226 . S
O34 Cd30 2.273 1_455 S
O34 Cd32 2.411 . S
O34 C37 1.320 . S
O35 Cd32 2.333 . S
O35 C37 1.214 . S
O36 Cd32 2.352 . S
O36 C39 1.258 . S
C37 O34 1.320 . S
C37 O35 1.214 . S
O38 Cd30 2.277 . S
O38 C33 1.209 1_545 S
C39 O36 1.258 . S
C39 O41 1.282 . S
O40 Cd32 2.277 1_665 S
O40 C33 1.226 . S
O41 Cd32 2.356 . S
O41 C39 1.282 . S
C42 C43 1.384 . S
C42 C44 1.384 . S
C42 H70 0.931 1_455 S
C43 C42 1.384 . S
C43 C46 1.382 . S
C44 C42 1.384 . S
C44 C45 1.381 . S
C44 H71 0.930 1_455 S
C45 C44 1.381 . S
C45 C47 1.381 . S
C45 C48 1.487 . S
C46 C43 1.382 . S
C46 C47 1.387 . S
C46 H72 0.930 . S
C47 C45 1.381 . S
C47 C46 1.387 . S
C47 H73 0.931 . S
C48 C45 1.487 . S
C48 C55 1.399 . S
C48 N86 1.343 . S
C49 C50 1.384 . S
C49 C51 1.384 . S
C49 H74 0.931 . S
C50 C49 1.384 . S
C50 C53 1.382 . S
C51 C49 1.384 . S
C51 C52 1.381 . S
C51 H75 0.930 . S
C52 C51 1.381 . S
C52 C54 1.381 . S
C52 C55 1.487 . S
C53 C50 1.382 . S
C53 C54 1.387 . S
C53 H76 0.930 1_455 S
C54 C52 1.381 . S
C54 C53 1.387 . S
C54 H77 0.931 1_455 S
C55 C48 1.399 . S
C55 C52 1.487 . S
C55 N87 1.343 . S
C56 C57 1.384 . S
C56 C58 1.384 . S
C56 H78 0.931 . S
C57 C56 1.384 . S
C57 C60 1.382 . S
C58 C56 1.384 . S
C58 C59 1.381 . S
C58 H79 0.930 . S
C59 C58 1.381 . S
C59 C61 1.381 . S
C59 C62 1.487 . S
C60 C57 1.382 . S
C60 C61 1.387 . S
C60 H80 0.930 1_455 S
C61 C59 1.381 . S
C61 C60 1.387 . S
C61 H81 0.931 1_455 S
C62 C59 1.487 . S
C62 C69 1.399 . S
C62 N87 1.343 . S
C63 C64 1.384 . S
C63 C65 1.384 . S
C63 H82 0.931 1_455 S
C64 C63 1.384 . S
C64 C67 1.382 . S
C65 C63 1.384 . S
C65 C66 1.381 . S
C65 H83 0.930 1_455 S
C66 C65 1.381 . S
C66 C68 1.381 . S
C66 C69 1.487 . S
C67 C64 1.382 . S
C67 C68 1.387 . S
C67 H84 0.930 . S
C68 C66 1.381 . S
C68 C67 1.387 . S
C68 H85 0.931 . S
C69 C62 1.399 . S
C69 C66 1.487 . S
C69 N86 1.343 . S
H70 C42 0.931 1_655 S
H71 C44 0.930 1_655 S
H72 C46 0.930 . S
H73 C47 0.931 . S
H74 C49 0.931 . S
H75 C51 0.930 . S
H76 C53 0.930 1_655 S
H77 C54 0.931 1_655 S
H78 C56 0.931 . S
H79 C58 0.930 . S
H80 C60 0.930 1_655 S
H81 C61 0.931 1_655 S
H82 C63 0.931 1_655 S
H83 C65 0.930 1_655 S
H84 C67 0.930 . S
H85 C68 0.931 . S
N86 C48 1.343 . S
N86 C69 1.343 . S
N87 C55 1.343 . S
N87 C62 1.343 . S
C88 C89 1.384 . S
C88 C90 1.384 . S
C88 H116 0.931 . S
C89 C88 1.384 . S
C89 C92 1.382 . S
C90 C88 1.384 . S
C90 C91 1.381 . S
C90 H117 0.930 . S
C91 C90 1.381 . S
C91 C93 1.381 . S
C91 C94 1.487 . S
C92 C89 1.382 . S
C92 C93 1.387 . S
C92 H118 0.930 1_545 S
C93 C91 1.381 . S
C93 C92 1.387 . S
C93 H119 0.931 1_545 S
C94 C91 1.487 . S
C94 C101 1.399 . S
C94 N132 1.343 . S
C95 C96 1.384 . S
C95 C97 1.384 . S
C95 H120 0.931 1_545 S
C96 C95 1.384 . S
C96 C99 1.382 . S
C97 C95 1.384 . S
C97 C98 1.381 . S
C97 H121 0.930 1_545 S
C98 C97 1.381 . S
C98 C100 1.381 . S
C98 C101 1.487 . S
C99 C96 1.382 . S
C99 C100 1.387 . S
C99 H122 0.930 . S
C100 C98 1.381 . S
C100 C99 1.387 . S
C100 H123 0.931 . S
C101 C94 1.399 . S
C101 C98 1.487 . S
C101 N133 1.343 . S
C102 C103 1.384 . S
C102 C104 1.384 . S
C102 H124 0.931 1_545 S
C103 C102 1.384 . S
C103 C106 1.382 . S
C104 C102 1.384 . S
C104 C105 1.381 . S
C104 H125 0.930 1_545 S
C105 C104 1.381 . S
C105 C107 1.381 . S
C105 C108 1.487 . S
C106 C103 1.382 . S
C106 C107 1.387 . S
C106 H126 0.930 . S
C107 C105 1.381 . S
C107 C106 1.387 . S
C107 H127 0.931 . S
C108 C105 1.487 . S
C108 C115 1.399 . S
C108 N133 1.343 . S
C109 C110 1.384 . S
C109 C111 1.384 . S
C109 H128 0.931 . S
C110 C109 1.384 . S
C110 C113 1.382 . S
C111 C109 1.384 . S
C111 C112 1.381 . S
C111 H129 0.930 . S
C112 C111 1.381 . S
C112 C114 1.381 . S
C112 C115 1.487 . S
C113 C110 1.382 . S
C113 C114 1.387 . S
C113 H130 0.930 1_545 S
C114 C112 1.381 . S
C114 C113 1.387 . S
C114 H131 0.931 1_545 S
C115 C108 1.399 . S
C115 C112 1.487 . S
C115 N132 1.343 . S
H116 C88 0.931 . S
H117 C90 0.930 . S
H118 C92 0.930 1_565 S
H119 C93 0.931 1_565 S
H120 C95 0.931 1_565 S
H121 C97 0.930 1_565 S
H122 C99 0.930 . S
H123 C100 0.931 . S
H124 C102 0.931 1_565 S
H125 C104 0.930 1_565 S
H126 C106 0.930 . S
H127 C107 0.931 . S
H128 C109 0.931 . S
H129 C111 0.930 . S
H130 C113 0.930 1_565 S
H131 C114 0.931 1_565 S
N132 C94 1.343 . S
N132 C115 1.343 . S
N133 C101 1.343 . S
N133 C108 1.343 . S
C134 C135 1.384 . S
C134 C136 1.384 . S
C134 H162 0.931 . S
C135 C134 1.384 . S
C135 C138 1.382 . S
C136 C134 1.384 . S
C136 C137 1.381 . S
C136 H163 0.930 . S
C137 C136 1.381 . S
C137 C139 1.381 . S
C137 C140 1.487 . S
C138 C135 1.382 . S
C138 C139 1.387 . S
C138 H164 0.930 . S
C139 C137 1.381 . S
C139 C138 1.387 . S
C139 H165 0.931 . S
C140 C137 1.487 . S
C140 C147 1.399 . S
C140 N178 1.343 . S
C141 C142 1.384 . S
C141 C143 1.384 . S
C141 H166 0.931 . S
C142 C141 1.384 . S
C142 C145 1.382 . S
C143 C141 1.384 . S
C143 C144 1.381 . S
C143 H167 0.930 . S
C144 C143 1.381 . S
C144 C146 1.381 . S
C144 C147 1.487 . S
C145 C142 1.382 . S
C145 C146 1.387 . S
C145 H168 0.930 . S
C146 C144 1.381 . S
C146 C145 1.387 . S
C146 H169 0.931 . S
C147 C140 1.399 . S
C147 C144 1.487 . S
C147 N179 1.343 . S
C148 C149 1.384 . S
C148 C150 1.384 . S
C148 H170 0.931 . S
C149 C148 1.384 . S
C149 C152 1.382 . S
C150 C148 1.384 . S
C150 C151 1.381 . S
C150 H171 0.930 . S
C151 C150 1.381 . S
C151 C153 1.381 . S
C151 C154 1.487 . S
C152 C149 1.382 . S
C152 C153 1.387 . S
C152 H172 0.930 . S
C153 C151 1.381 . S
C153 C152 1.387 . S
C153 H173 0.931 . S
C154 C151 1.487 . S
C154 C161 1.399 . S
C154 N179 1.343 . S
C155 C156 1.384 . S
C155 C157 1.384 . S
C155 H174 0.931 . S
C156 C155 1.384 . S
C156 C159 1.382 . S
C157 C155 1.384 . S
C157 C158 1.381 . S
C157 H175 0.930 . S
C158 C157 1.381 . S
C158 C160 1.381 . S
C158 C161 1.487 . S
C159 C156 1.382 . S
C159 C160 1.387 . S
C159 H176 0.930 . S
C160 C158 1.381 . S
C160 C159 1.387 . S
C160 H177 0.931 . S
C161 C154 1.399 . S
C161 C158 1.487 . S
C161 N178 1.343 . S
H162 C134 0.931 . S
H163 C136 0.930 . S
H164 C138 0.930 . S
H165 C139 0.931 . S
H166 C141 0.931 . S
H167 C143 0.930 . S
H168 C145 0.930 . S
H169 C146 0.931 . S
H170 C148 0.931 . S
H171 C150 0.930 . S
H172 C152 0.930 . S
H173 C153 0.931 . S
H174 C155 0.931 . S
H175 C157 0.930 . S
H176 C159 0.930 . S
H177 C160 0.931 . S
N178 C140 1.343 . S
N178 C161 1.343 . S
N179 C147 1.343 . S
N179 C154 1.343 . S
H180 C186 0.930 . S
H181 C189 0.930 . S
H182 C190 0.930 . S
H183 C191 0.930 1_655 S
H184 C194 0.930 . S
H185 C195 0.930 . S
C186 H180 0.930 . S
C186 C187 1.355 . S
C186 C188 1.415 . S
C187 C186 1.355 . S
C187 C189 1.419 1_455 S
C188 C186 1.415 . S
C188 C193 1.425 . S
C188 C195 1.409 . S
C189 H181 0.930 . S
C189 C187 1.419 1_655 S
C189 C190 1.362 . S
C190 H182 0.930 . S
C190 C189 1.362 . S
C190 C193 1.409 1_655 S
C191 H183 0.930 1_455 S
C191 C192 1.355 . S
C191 C193 1.415 . S
C192 C191 1.355 . S
C192 C194 1.419 . S
C193 C188 1.425 . S
C193 C190 1.409 1_455 S
C193 C191 1.415 . S
C194 H184 0.930 . S
C194 C192 1.419 . S
C194 C195 1.362 . S
C195 H185 0.930 . S
C195 C188 1.409 . S
C195 C194 1.362 . S
H196 C202 0.930 1_565 S
H197 C205 0.930 . S
H198 C206 0.930 . S
H199 C207 0.930 . S
H200 C210 0.930 . S
H201 C211 0.930 . S
C202 H196 0.930 1_545 S
C202 C203 1.355 . S
C202 C204 1.415 . S
C203 C202 1.355 . S
C203 C205 1.419 . S
C204 C202 1.415 . S
C204 C209 1.425 . S
C204 C211 1.409 1_545 S
C205 H197 0.930 . S
C205 C203 1.419 . S
C205 C206 1.362 . S
C206 H198 0.930 . S
C206 C205 1.362 . S
C206 C209 1.409 . S
C207 H199 0.930 . S
C207 C208 1.355 . S
C207 C209 1.415 . S
C208 C207 1.355 . S
C208 C210 1.419 1_545 S
C209 C204 1.425 . S
C209 C206 1.409 . S
C209 C207 1.415 . S
C210 H200 0.930 . S
C210 C208 1.419 1_565 S
C210 C211 1.362 . S
C211 H201 0.930 . S
C211 C204 1.409 1_565 S
C211 C210 1.362 . S
H212 C218 0.930 . S
H213 C221 0.930 . S
H214 C222 0.930 . S
H215 C223 0.930 . S
H216 C226 0.930 . S
H217 C227 0.930 . S
C218 H212 0.930 . S
C218 C219 1.355 . S
C218 C220 1.415 . S
C219 C218 1.355 . S
C219 C221 1.419 . S
C220 C218 1.415 . S
C220 C225 1.425 . S
C220 C227 1.409 . S
C221 H213 0.930 . S
C221 C219 1.419 . S
C221 C222 1.362 . S
C222 H214 0.930 . S
C222 C221 1.362 . S
C222 C225 1.409 . S
C223 H215 0.930 . S
C223 C224 1.355 . S
C223 C225 1.415 . S
C224 C223 1.355 . S
C224 C226 1.419 . S
C225 C220 1.425 . S
C225 C222 1.409 . S
C225 C223 1.415 . S
C226 H216 0.930 . S
C226 C224 1.419 . S
C226 C227 1.362 . S
C227 H217 0.930 . S
C227 C220 1.409 . S
C227 C226 1.362 . S
H228 C234 0.930 . S
H229 C237 0.930 . S
H230 C238 0.930 . S
H231 C239 0.930 . S
H232 C242 0.930 . S
H233 C243 0.930 . S
C234 H228 0.930 . S
C234 C235 1.355 . S
C234 C236 1.415 . S
C235 C234 1.355 . S
C235 C237 1.419 . S
C236 C234 1.415 . S
C236 C241 1.425 . S
C236 C243 1.409 . S
C237 H229 0.930 . S
C237 C235 1.419 . S
C237 C238 1.362 . S
C238 H230 0.930 . S
C238 C237 1.362 . S
C238 C241 1.409 . S
C239 H231 0.930 . S
C239 C240 1.355 . S
C239 C241 1.415 . S
C240 C239 1.355 . S
C240 C242 1.419 . S
C241 C236 1.425 . S
C241 C238 1.409 . S
C241 C239 1.415 . S
C242 H232 0.930 . S
C242 C240 1.419 . S
C242 C243 1.362 . S
C243 H233 0.930 . S
C243 C236 1.409 . S
C243 C242 1.362 . S
H244 C250 0.930 . S
H245 C253 0.930 . S
H246 C254 0.930 . S
H247 C255 0.930 . S
H248 C258 0.930 . S
H249 C259 0.930 . S
C250 H244 0.930 . S
C250 C251 1.355 . S
C250 C252 1.415 . S
C251 C250 1.355 . S
C251 C253 1.419 . S
C252 C250 1.415 . S
C252 C257 1.425 . S
C252 C259 1.409 . S
C253 H245 0.930 . S
C253 C251 1.419 . S
C253 C254 1.362 . S
C254 H246 0.930 . S
C254 C253 1.362 . S
C254 C257 1.409 . S
C255 H247 0.930 . S
C255 C256 1.355 . S
C255 C257 1.415 . S
C256 C255 1.355 . S
C256 C258 1.419 . S
C257 C252 1.425 . S
C257 C254 1.409 . S
C257 C255 1.415 . S
C258 H248 0.930 . S
C258 C256 1.419 . S
C258 C259 1.362 . S
C259 H249 0.930 . S
C259 C252 1.409 . S
C259 C258 1.362 . S
H260 C266 0.930 . S
H261 C269 0.930 . S
H262 C270 0.930 . S
H263 C271 0.930 . S
H264 C274 0.930 . S
H265 C275 0.930 . S
C266 H260 0.930 . S
C266 C267 1.355 . S
C266 C268 1.415 . S
C267 C266 1.355 . S
C267 C269 1.419 . S
C268 C266 1.415 . S
C268 C273 1.425 . S
C268 C275 1.409 . S
C269 H261 0.930 . S
C269 C267 1.419 . S
C269 C270 1.362 . S
C270 H262 0.930 . S
C270 C269 1.362 . S
C270 C273 1.409 . S
C271 H263 0.930 . S
C271 C272 1.355 . S
C271 C273 1.415 . S
C272 C271 1.355 . S
C272 C274 1.419 . S
C273 C268 1.425 . S
C273 C270 1.409 . S
C273 C271 1.415 . S
C274 H264 0.930 . S
C274 C272 1.419 . S
C274 C275 1.362 . S
C275 H265 0.930 . S
C275 C268 1.409 . S
C275 C274 1.362 . S
H276 C282 0.930 . S
H277 C285 0.930 . S
H278 C286 0.930 . S
H279 C287 0.930 . S
H280 C290 0.930 . S
H281 C291 0.930 . S
C282 H276 0.930 . S
C282 C283 1.355 . S
C282 C284 1.415 . S
C283 C282 1.355 . S
C283 C285 1.419 . S
C284 C282 1.415 . S
C284 C289 1.425 . S
C284 C291 1.409 . S
C285 H277 0.930 . S
C285 C283 1.419 . S
C285 C286 1.362 . S
C286 H278 0.930 . S
C286 C285 1.362 . S
C286 C289 1.409 . S
C287 H279 0.930 . S
C287 C288 1.355 . S
C287 C289 1.415 . S
C288 C287 1.355 . S
C288 C290 1.419 . S
C289 C284 1.425 . S
C289 C286 1.409 . S
C289 C287 1.415 . S
C290 H280 0.930 . S
C290 C288 1.419 . S
C290 C291 1.362 . S
C291 H281 0.930 . S
C291 C284 1.409 . S
C291 C290 1.362 . S
H292 C298 0.930 . S
H293 C301 0.930 . S
H294 C302 0.930 . S
H295 C303 0.930 . S
H296 C306 0.930 . S
H297 C307 0.930 . S
C298 H292 0.930 . S
C298 C299 1.355 1_556 S
C298 C300 1.415 . S
C299 C298 1.355 1_554 S
C299 C301 1.419 . S
C300 C298 1.415 . S
C300 C305 1.425 . S
C300 C307 1.409 . S
C301 H293 0.930 . S
C301 C299 1.419 . S
C301 C302 1.362 1_554 S
C302 H294 0.930 . S
C302 C301 1.362 1_556 S
C302 C305 1.409 . S
C303 H295 0.930 . S
C303 C304 1.355 . S
C303 C305 1.415 . S
C304 C303 1.355 . S
C304 C306 1.419 . S
C305 C300 1.425 . S
C305 C302 1.409 . S
C305 C303 1.415 . S
C306 H296 0.930 . S
C306 C304 1.419 . S
C306 C307 1.362 . S
C307 H297 0.930 . S
C307 C300 1.409 . S
C307 C306 1.362 . S
H308 C314 0.930 . S
H309 C317 0.930 . S
H310 C318 0.930 . S
H311 C319 0.930 1_655 S
H312 C322 0.930 . S
H313 C323 0.930 . S
C314 H308 0.930 . S
C314 C315 1.355 . S
C314 C316 1.415 . S
C315 C314 1.355 . S
C315 C317 1.419 1_455 S
C316 C314 1.415 . S
C316 C321 1.425 . S
C316 C323 1.409 . S
C317 H309 0.930 . S
C317 C315 1.419 1_655 S
C317 C318 1.362 . S
C318 H310 0.930 . S
C318 C317 1.362 . S
C318 C321 1.409 1_655 S
C319 H311 0.930 1_455 S
C319 C320 1.355 . S
C319 C321 1.415 . S
C320 C319 1.355 . S
C320 C322 1.419 . S
C321 C316 1.425 . S
C321 C318 1.409 1_455 S
C321 C319 1.415 . S
C322 H312 0.930 . S
C322 C320 1.419 . S
C322 C323 1.362 . S
C323 H313 0.930 . S
C323 C316 1.409 . S
C323 C322 1.362 . S
H324 C330 0.930 1_565 S
H325 C333 0.930 . S
H326 C334 0.930 . S
H327 C335 0.930 . S
H328 C338 0.930 1_565 S
H329 C339 0.930 . S
C330 H324 0.930 1_545 S
C330 C331 1.355 . S
C330 C332 1.415 . S
C331 C330 1.355 . S
C331 C333 1.419 . S
C332 C330 1.415 . S
C332 C337 1.425 . S
C332 C339 1.409 1_545 S
C333 H325 0.930 . S
C333 C331 1.419 . S
C333 C334 1.362 . S
C334 H326 0.930 . S
C334 C333 1.362 . S
C334 C337 1.409 . S
C335 H327 0.930 . S
C335 C336 1.355 . S
C335 C337 1.415 . S
C336 C335 1.355 . S
C336 C338 1.419 . S
C337 C332 1.425 . S
C337 C334 1.409 . S
C337 C335 1.415 . S
C338 H328 0.930 1_545 S
C338 C336 1.419 . S
C338 C339 1.362 1_545 S
C339 H329 0.930 . S
C339 C332 1.409 1_565 S
C339 C338 1.362 1_565 S
H340 C346 0.930 . S
H341 C349 0.930 . S
H342 C350 0.939 . S
H343 C351 0.930 . S
H344 C354 0.930 . S
H345 C355 0.930 . S
C346 H340 0.930 . S
C346 C347 1.355 1_556 S
C346 C348 1.415 . S
C347 C346 1.355 1_554 S
C347 C349 1.419 . S
C348 C346 1.415 . S
C348 C353 1.425 . S
C348 C355 1.409 . S
C349 H341 0.930 . S
C349 C347 1.419 . S
C349 C350 1.384 . S
C350 H342 0.939 . S
C350 C349 1.384 . S
C350 C353 1.380 1_554 S
C351 H343 0.930 . S
C351 C352 1.355 . S
C351 C353 1.415 . S
C352 C351 1.355 . S
C352 C354 1.419 . S
C353 C348 1.425 . S
C353 C350 1.380 1_556 S
C353 C351 1.415 . S
C354 H344 0.930 . S
C354 C352 1.419 . S
C354 C355 1.362 . S
C355 H345 0.930 . S
C355 C348 1.409 . S
C355 C354 1.362 . S
H356 C362 0.930 . S
H357 C365 0.930 . S
H358 C366 0.930 . S
H359 C367 0.930 . S
H360 C370 0.930 . S
H361 C371 0.930 . S
C362 H356 0.930 . S
C362 C363 1.355 . S
C362 C364 1.415 . S
C363 C362 1.355 . S
C363 C365 1.419 . S
C364 C362 1.415 . S
C364 C369 1.425 . S
C364 C371 1.409 . S
C365 H357 0.930 . S
C365 C363 1.419 . S
C365 C366 1.362 . S
C366 H358 0.930 . S
C366 C365 1.362 . S
C366 C369 1.409 . S
C367 H359 0.930 . S
C367 C368 1.355 . S
C367 C369 1.415 . S
C368 C367 1.355 . S
C368 C370 1.419 . S
C369 C364 1.425 . S
C369 C366 1.409 . S
C369 C367 1.415 . S
C370 H360 0.930 . S
C370 C368 1.419 . S
C370 C371 1.362 . S
C371 H361 0.930 . S
C371 C364 1.409 . S
C371 C370 1.362 . S
C192 C50 1.455 . S
C187 C0 1.461 . S
C203 C25 1.482 . S
C208 C89 1.480 . S
C219 C33 1.505 . S
C224 C156 1.509 . S
C235 C11 1.436 . S
C240 C57 1.439 . S
C256 C110 1.480 . S
C251 C14 1.467 . S
C267 C37 1.500 . S
C272 C135 1.508 . S
C288 C96 1.480 . S
C283 C28 1.486 . S
C299 C9 1.514 . S
C304 C149 1.498 . S
C320 C64 1.537 . S
C315 C19 1.538 . S
C336 C103 1.485 . S
C331 C39 1.479 . S
C352 C142 1.515 . S
C347 C5 1.515 . S
C363 C23 1.541 . S
C368 C43 1.546 . S
