# Generated by pormake.
# Topology ctn, (3,4)-cn, num edge types: 1
# Building blocks:
#     Node 0, Type 0, BuildingBlock: MIDCAF_clean_linker_0, # of connection points: 3
#     Node 1, Type 0, BuildingBlock: MIDCAF_clean_linker_0, # of connection points: 3
#     Node 2, Type 0, BuildingBlock: MIDCAF_clean_linker_0, # of connection points: 3
#     Node 3, Type 0, BuildingBlock: MIDCAF_clean_linker_0, # of connection points: 3
#     Node 4, Type 0, BuildingBlock: MIDCAF_clean_linker_0, # of connection points: 3
#     Node 5, Type 0, BuildingBlock: MIDCAF_clean_linker_0, # of connection points: 3
#     Node 6, Type 0, BuildingBlock: MIDCAF_clean_linker_0, # of connection points: 3
#     Node 7, Type 0, BuildingBlock: MIDCAF_clean_linker_0, # of connection points: 3
#     Node 8, Type 0, BuildingBlock: MIDCAF_clean_linker_0, # of connection points: 3
#     Node 9, Type 0, BuildingBlock: MIDCAF_clean_linker_0, # of connection points: 3
#     Node 10, Type 0, BuildingBlock: MIDCAF_clean_linker_0, # of connection points: 3
#     Node 11, Type 0, BuildingBlock: MIDCAF_clean_linker_0, # of connection points: 3
#     Node 12, Type 0, BuildingBlock: MIDCAF_clean_linker_0, # of connection points: 3
#     Node 13, Type 0, BuildingBlock: MIDCAF_clean_linker_0, # of connection points: 3
#     Node 14, Type 0, BuildingBlock: MIDCAF_clean_linker_0, # of connection points: 3
#     Node 15, Type 0, BuildingBlock: MIDCAF_clean_linker_0, # of connection points: 3
#     Node 16, Type 1, BuildingBlock: QUQFOY_clean_sbu_1, # of connection points: 4
#     Node 17, Type 1, BuildingBlock: QUQFOY_clean_sbu_1, # of connection points: 4
#     Node 18, Type 1, BuildingBlock: QUQFOY_clean_sbu_1, # of connection points: 4
#     Node 19, Type 1, BuildingBlock: QUQFOY_clean_sbu_1, # of connection points: 4
#     Node 20, Type 1, BuildingBlock: QUQFOY_clean_sbu_1, # of connection points: 4
#     Node 21, Type 1, BuildingBlock: QUQFOY_clean_sbu_1, # of connection points: 4
#     Node 22, Type 1, BuildingBlock: QUQFOY_clean_sbu_1, # of connection points: 4
#     Node 23, Type 1, BuildingBlock: QUQFOY_clean_sbu_1, # of connection points: 4
#     Node 24, Type 1, BuildingBlock: QUQFOY_clean_sbu_1, # of connection points: 4
#     Node 25, Type 1, BuildingBlock: QUQFOY_clean_sbu_1, # of connection points: 4
#     Node 26, Type 1, BuildingBlock: QUQFOY_clean_sbu_1, # of connection points: 4
#     Node 27, Type 1, BuildingBlock: QUQFOY_clean_sbu_1, # of connection points: 4
#     Edge 28, Type (0, 1), BuildingBlock: KIFKEQ_clean_linker_1, # of connection points: 2
#     Edge 29, Type (0, 1), BuildingBlock: KIFKEQ_clean_linker_1, # of connection points: 2
#     Edge 30, Type (0, 1), BuildingBlock: KIFKEQ_clean_linker_1, # of connection points: 2
#     Edge 31, Type (0, 1), BuildingBlock: KIFKEQ_clean_linker_1, # of connection points: 2
#     Edge 32, Type (0, 1), BuildingBlock: KIFKEQ_clean_linker_1, # of connection points: 2
#     Edge 33, Type (0, 1), BuildingBlock: KIFKEQ_clean_linker_1, # of connection points: 2
#     Edge 34, Type (0, 1), BuildingBlock: KIFKEQ_clean_linker_1, # of connection points: 2
#     Edge 35, Type (0, 1), BuildingBlock: KIFKEQ_clean_linker_1, # of connection points: 2
#     Edge 36, Type (0, 1), BuildingBlock: KIFKEQ_clean_linker_1, # of connection points: 2
#     Edge 37, Type (0, 1), BuildingBlock: KIFKEQ_clean_linker_1, # of connection points: 2
#     Edge 38, Type (0, 1), BuildingBlock: KIFKEQ_clean_linker_1, # of connection points: 2
#     Edge 39, Type (0, 1), BuildingBlock: KIFKEQ_clean_linker_1, # of connection points: 2
#     Edge 40, Type (0, 1), BuildingBlock: KIFKEQ_clean_linker_1, # of connection points: 2
#     Edge 41, Type (0, 1), BuildingBlock: KIFKEQ_clean_linker_1, # of connection points: 2
#     Edge 42, Type (0, 1), BuildingBlock: KIFKEQ_clean_linker_1, # of connection points: 2
#     Edge 43, Type (0, 1), BuildingBlock: KIFKEQ_clean_linker_1, # of connection points: 2
#     Edge 44, Type (0, 1), BuildingBlock: KIFKEQ_clean_linker_1, # of connection points: 2
#     Edge 45, Type (0, 1), BuildingBlock: KIFKEQ_clean_linker_1, # of connection points: 2
#     Edge 46, Type (0, 1), BuildingBlock: KIFKEQ_clean_linker_1, # of connection points: 2
#     Edge 47, Type (0, 1), BuildingBlock: KIFKEQ_clean_linker_1, # of connection points: 2
#     Edge 48, Type (0, 1), BuildingBlock: KIFKEQ_clean_linker_1, # of connection points: 2
#     Edge 49, Type (0, 1), BuildingBlock: KIFKEQ_clean_linker_1, # of connection points: 2
#     Edge 50, Type (0, 1), BuildingBlock: KIFKEQ_clean_linker_1, # of connection points: 2
#     Edge 51, Type (0, 1), BuildingBlock: KIFKEQ_clean_linker_1, # of connection points: 2
#     Edge 52, Type (0, 1), BuildingBlock: KIFKEQ_clean_linker_1, # of connection points: 2
#     Edge 53, Type (0, 1), BuildingBlock: KIFKEQ_clean_linker_1, # of connection points: 2
#     Edge 54, Type (0, 1), BuildingBlock: KIFKEQ_clean_linker_1, # of connection points: 2
#     Edge 55, Type (0, 1), BuildingBlock: KIFKEQ_clean_linker_1, # of connection points: 2
#     Edge 56, Type (0, 1), BuildingBlock: KIFKEQ_clean_linker_1, # of connection points: 2
#     Edge 57, Type (0, 1), BuildingBlock: KIFKEQ_clean_linker_1, # of connection points: 2
#     Edge 58, Type (0, 1), BuildingBlock: KIFKEQ_clean_linker_1, # of connection points: 2
#     Edge 59, Type (0, 1), BuildingBlock: KIFKEQ_clean_linker_1, # of connection points: 2
#     Edge 60, Type (0, 1), BuildingBlock: KIFKEQ_clean_linker_1, # of connection points: 2
#     Edge 61, Type (0, 1), BuildingBlock: KIFKEQ_clean_linker_1, # of connection points: 2
#     Edge 62, Type (0, 1), BuildingBlock: KIFKEQ_clean_linker_1, # of connection points: 2
#     Edge 63, Type (0, 1), BuildingBlock: KIFKEQ_clean_linker_1, # of connection points: 2
#     Edge 64, Type (0, 1), BuildingBlock: KIFKEQ_clean_linker_1, # of connection points: 2
#     Edge 65, Type (0, 1), BuildingBlock: KIFKEQ_clean_linker_1, # of connection points: 2
#     Edge 66, Type (0, 1), BuildingBlock: KIFKEQ_clean_linker_1, # of connection points: 2
#     Edge 67, Type (0, 1), BuildingBlock: KIFKEQ_clean_linker_1, # of connection points: 2
#     Edge 68, Type (0, 1), BuildingBlock: KIFKEQ_clean_linker_1, # of connection points: 2
#     Edge 69, Type (0, 1), BuildingBlock: KIFKEQ_clean_linker_1, # of connection points: 2
#     Edge 70, Type (0, 1), BuildingBlock: KIFKEQ_clean_linker_1, # of connection points: 2
#     Edge 71, Type (0, 1), BuildingBlock: KIFKEQ_clean_linker_1, # of connection points: 2
#     Edge 72, Type (0, 1), BuildingBlock: KIFKEQ_clean_linker_1, # of connection points: 2
#     Edge 73, Type (0, 1), BuildingBlock: KIFKEQ_clean_linker_1, # of connection points: 2
#     Edge 74, Type (0, 1), BuildingBlock: KIFKEQ_clean_linker_1, # of connection points: 2
#     Edge 75, Type (0, 1), BuildingBlock: KIFKEQ_clean_linker_1, # of connection points: 2
# Relax obj value: 0.036
# Max RMSD: 0.143
# Mean RMSD: 0.064
data_MOF--net-ctn--node1-QUQFOY_clean_sbu_1--node2-MIDCAF_clean_linker_0--edge1-KIFKEQ_clean_linker_1
_symmetry_space_group_name_H-M    P1
_symmetry_Int_Tables_number       1
_symmetry_cell_setting            triclinic
loop_
_symmetry_equiv_pos_as_xyz
'x, y, z'
_cell_length_a     68.093458
_cell_length_b     67.999635
_cell_length_c     68.199791
_cell_angle_alpha  92.765554
_cell_angle_beta   90.065884
_cell_angle_gamma 94.45529
loop_
_atom_site_label
_atom_site_type_symbol
_atom_site_fract_x
_atom_site_fract_y
_atom_site_fract_z
_atom_type_partial_charge
C0 C 0.00325 0.11322 0.12648 0.0
C1 C 0.99818 0.09408 0.13258 0.0
C2 C 0.01044 0.07896 0.12759 0.0
C3 C 0.02727 0.08277 0.11636 0.0
H4 H 0.07486 0.05733 0.09644 0.0
H5 H 0.09609 0.03077 0.09017 0.0
H6 H 0.1337 0.0686 0.0545 0.0
H7 H 0.11193 0.0951 0.06019 0.0
H8 H 0.08932 0.13043 0.03992 0.0
H9 H 0.08601 0.15456 0.01499 0.0
H10 H 0.03593 0.17592 0.04593 0.0
H11 H 0.03955 0.15247 0.07095 0.0
H12 H 0.02333 0.1318 0.11003 0.0
H13 H 0.994 0.1251 0.13021 0.0
H14 H 0.00696 0.06413 0.13236 0.0
H15 H 0.03621 0.07067 0.11255 0.0
N16 N 0.06272 0.09176 0.09445 0.0
N17 N 0.07849 0.10965 0.06964 0.0
N18 N 0.05019 0.12086 0.08472 0.0
C19 C 0.07757 0.09391 0.08128 0.0
C20 C 0.06485 0.12323 0.07132 0.0
C21 C 0.04904 0.10519 0.09635 0.0
C22 C 0.09157 0.07836 0.07868 0.0
C23 C 0.08773 0.06011 0.08736 0.0
C24 C 0.10002 0.04484 0.08387 0.0
C25 C 0.11661 0.04745 0.07176 0.0
C26 C 0.12084 0.06593 0.06361 0.0
C27 C 0.10841 0.08118 0.06695 0.0
C28 C 0.06459 0.13932 0.05739 0.0
C29 C 0.07781 0.1405 0.04157 0.0
C30 C 0.07585 0.15426 0.0272 0.0
C31 C 0.06064 0.16714 0.02836 0.0
C32 C 0.048 0.16647 0.04464 0.0
C33 C 0.04998 0.15282 0.05897 0.0
C34 C 0.03208 0.10175 0.10962 0.0
C35 C 0.01997 0.117 0.11492 0.0
C36 C 0.25172 0.6687 0.24902 0.0
C37 C 0.23397 0.66503 0.23856 0.0
C38 C 0.22904 0.67833 0.22451 0.0
C39 C 0.24168 0.69503 0.22106 0.0
H40 H 0.24375 0.7544 0.20237 0.0
H41 H 0.23445 0.78119 0.18265 0.0
H42 H 0.2958 0.80201 0.17785 0.0
H43 H 0.30498 0.77581 0.19807 0.0
H44 H 0.33348 0.7634 0.23393 0.0
H45 H 0.36462 0.76556 0.25198 0.0
H46 H 0.35236 0.70563 0.26939 0.0
H47 H 0.32126 0.70348 0.25173 0.0
H48 H 0.27797 0.68747 0.25384 0.0
H49 H 0.25601 0.65859 0.25976 0.0
H50 H 0.21536 0.6759 0.21633 0.0
H51 H 0.23753 0.705 0.21013 0.0
N52 N 0.26799 0.7308 0.21681 0.0
N53 N 0.29939 0.74732 0.2215 0.0
N54 N 0.29184 0.71688 0.23535 0.0
C55 C 0.28095 0.7466 0.21366 0.0
C56 C 0.30493 0.73246 0.23236 0.0
C57 C 0.2734 0.71586 0.22769 0.0
C58 C 0.27512 0.76291 0.2018 0.0
C59 C 0.25524 0.76475 0.19716 0.0
C60 C 0.2499 0.7801 0.1858 0.0
C61 C 0.26434 0.79385 0.17866 0.0
C62 C 0.2842 0.792 0.18341 0.0
C63 C 0.28951 0.77682 0.19491 0.0
C64 C 0.3247 0.73337 0.24159 0.0
C65 C 0.33751 0.75062 0.24144 0.0
C66 C 0.3554 0.75183 0.25169 0.0
C67 C 0.36081 0.73583 0.26226 0.0
C68 C 0.34841 0.71833 0.26168 0.0
C69 C 0.33058 0.71711 0.25149 0.0
C70 C 0.25955 0.69859 0.23145 0.0
C71 C 0.26437 0.68523 0.24549 0.0
C72 C 0.95549 0.41211 0.02502 0.0
C73 C 0.94344 0.41134 0.00826 0.0
C74 C 0.92678 0.42233 0.00845 0.0
C75 C 0.9225 0.43417 0.02504 0.0
H76 H 0.88352 0.47571 0.04945 0.0
H77 H 0.86336 0.50348 0.04537 0.0
H78 H 0.89598 0.53686 0.09181 0.0
H79 H 0.91598 0.5091 0.09616 0.0
H80 H 0.93536 0.4769 0.12814 0.0
H81 H 0.95919 0.47961 0.15499 0.0
H82 H 0.99848 0.44565 0.11977 0.0
H83 H 0.9744 0.44223 0.09337 0.0
H84 H 0.96091 0.42397 0.05415 0.0
H85 H 0.96821 0.4035 0.02543 0.0
H86 H 0.91724 0.42198 0.9957 0.0
H87 H 0.9097 0.44265 0.0247 0.0
N88 N 0.91725 0.46154 0.05868 0.0
N89 N 0.92616 0.47324 0.09067 0.0
N90 N 0.94198 0.44719 0.07565 0.0
C91 C 0.91484 0.47424 0.07438 0.0
C92 C 0.93968 0.45964 0.09145 0.0
C93 C 0.93084 0.44795 0.05925 0.0
C94 C 0.9014 0.49022 0.07306 0.0
C95 C 0.88624 0.48887 0.05895 0.0
C96 C 0.87464 0.5047 0.05668 0.0
C97 C 0.8782 0.52227 0.06826 0.0
C98 C 0.89302 0.52348 0.08267 0.0
C99 C 0.90439 0.50754 0.08518 0.0
C100 C 0.95307 0.45957 0.10853 0.0
C101 C 0.94898 0.4698 0.12625 0.0
C102 C 0.96269 0.47141 0.1416 0.0
C103 C 0.9809 0.46309 0.13946 0.0
C104 C 0.98455 0.45208 0.12207 0.0
C105 C 0.97075 0.45024 0.10682 0.0
C106 C 0.93469 0.43502 0.04178 0.0
C107 C 0.95115 0.42374 0.04158 0.0
C108 C 0.74101 0.7635 0.17616 0.0
C109 C 0.73006 0.74511 0.17462 0.0
C110 C 0.71659 0.74012 0.18953 0.0
C111 C 0.71399 0.75334 0.20551 0.0
H112 H 0.67291 0.76895 0.25077 0.0
H113 H 0.64632 0.7659 0.27469 0.0
H114 H 0.6791 0.8081 0.3141 0.0
H115 H 0.70522 0.81164 0.28999 0.0
H116 H 0.72391 0.84874 0.26508 0.0
H117 H 0.74054 0.8816 0.26582 0.0
H118 H 0.77446 0.86524 0.21494 0.0
H119 H 0.75744 0.83227 0.21383 0.0
H120 H 0.74701 0.79081 0.1926 0.0
H121 H 0.75128 0.76795 0.16479 0.0
H122 H 0.70806 0.72598 0.18886 0.0
H123 H 0.70341 0.74906 0.21667 0.0
N124 N 0.70853 0.78171 0.23789 0.0
N125 N 0.71599 0.81293 0.25337 0.0
N126 N 0.7318 0.80433 0.22413 0.0
C127 C 0.70574 0.795 0.25297 0.0
C128 C 0.72897 0.81778 0.23902 0.0
C129 C 0.7217 0.78624 0.22347 0.0
C130 C 0.69099 0.79076 0.26838 0.0
C131 C 0.67453 0.77733 0.26467 0.0
C132 C 0.65933 0.77555 0.27842 0.0
C133 C 0.66043 0.787 0.29621 0.0
C134 C 0.67752 0.79946 0.30035 0.0
C135 C 0.69254 0.80142 0.28655 0.0
C136 C 0.73938 0.83775 0.23943 0.0
C137 C 0.73491 0.85204 0.25401 0.0
C138 C 0.74451 0.87092 0.25451 0.0
C139 C 0.7589 0.87601 0.24051 0.0
C140 C 0.7633 0.86183 0.22581 0.0
C141 C 0.75363 0.84288 0.22527 0.0
C142 C 0.72478 0.77186 0.20691 0.0
C143 C 0.73843 0.7767 0.19209 0.0
C144 C 0.06274 0.92488 0.49547 0.0
C145 C 0.04345 0.91681 0.49856 0.0
C146 C 0.02837 0.92128 0.48582 0.0
C147 C 0.03237 0.93404 0.47064 0.0
H148 H 0.00789 0.95652 0.4212 0.0
H149 H 0.98223 0.96449 0.39855 0.0
H150 H 0.01905 0.01515 0.38092 0.0
H151 H 0.04477 0.00704 0.40306 0.0
H152 H 0.08172 0.02167 0.42953 0.0
H153 H 0.11095 0.04445 0.43481 0.0
H154 H 0.14119 0.99842 0.46044 0.0
H155 H 0.11179 0.97555 0.45557 0.0
H156 H 0.0817 0.94409 0.47869 0.0
H157 H 0.07464 0.92175 0.50511 0.0
H158 H 0.01341 0.91501 0.48768 0.0
H159 H 0.02031 0.93746 0.46135 0.0
N160 N 0.0411 0.96166 0.44028 0.0
N161 N 0.06165 0.9875 0.42817 0.0
N162 N 0.07289 0.96889 0.45331 0.0
C163 C 0.04417 0.97644 0.42765 0.0
C164 C 0.07609 0.98377 0.44086 0.0
C165 C 0.05542 0.95778 0.45315 0.0
C166 C 0.02846 0.98108 0.41394 0.0
C167 C 0.01053 0.96933 0.41247 0.0
C168 C 0.99577 0.97396 0.39957 0.0
C169 C -0.00138 0.99042 0.3879 0.0
C170 C 0.0165 0.00218 0.38945 0.0
C171 C 0.03124 0.99755 0.40226 0.0
C172 C 0.09443 0.99685 0.44225 0.0
C173 C 0.09466 0.01629 0.43607 0.0
C174 C 0.11131 0.02935 0.43913 0.0
C175 C 0.12816 0.0231 0.44805 0.0
C176 C 0.12832 0.00348 0.45346 0.0
C177 C 0.11151 0.99048 0.45076 0.0
C178 C 0.05154 0.94273 0.46796 0.0
C179 C 0.06674 0.93776 0.48037 0.0
C180 C 0.22694 0.76815 0.8779 0.0
C181 C 0.21377 0.78269 0.88208 0.0
C182 C 0.20147 0.78811 0.86702 0.0
C183 C 0.20254 0.77941 0.84812 0.0
H184 H 0.179 0.78025 0.79392 0.0
H185 H 0.15346 0.78608 0.77053 0.0
H186 H 0.17544 0.74256 0.72974 0.0
H187 H 0.20133 0.73673 0.75313 0.0
H188 H 0.24416 0.71942 0.76529 0.0
H189 H 0.26789 0.69473 0.75913 0.0
H190 H 0.27595 0.69085 0.82167 0.0
H191 H 0.25298 0.71583 0.82777 0.0
H192 H 0.23843 0.74837 0.85631 0.0
H193 H 0.23643 0.76348 0.88926 0.0
H194 H 0.19136 0.79947 0.86969 0.0
H195 H 0.193 0.78414 0.83683 0.0
N196 N 0.20526 0.76112 0.80924 0.0
N197 N 0.21989 0.73959 0.78672 0.0
N198 N 0.2308 0.74287 0.81945 0.0
C199 C 0.20636 0.75293 0.79074 0.0
C200 C 0.2322 0.73453 0.80105 0.0
C201 C 0.21742 0.7562 0.82367 0.0
C202 C 0.19212 0.75779 0.77556 0.0
C203 C 0.17859 0.77198 0.77993 0.0
C204 C 0.16388 0.77533 0.76654 0.0
C205 C 0.1623 0.76461 0.74842 0.0
C206 C 0.17636 0.7511 0.74358 0.0
C207 C 0.19112 0.7477 0.75704 0.0
C208 C 0.24667 0.71967 0.79702 0.0
C209 C 0.25109 0.71335 0.7777 0.0
C210 C 0.26464 0.69913 0.77418 0.0
C211 C 0.27395 0.69083 0.78989 0.0
C212 C 0.26947 0.6972 0.80917 0.0
C213 C 0.25612 0.71149 0.81268 0.0
C214 C 0.21595 0.76509 0.84383 0.0
C215 C 0.22802 0.75945 0.859 0.0
C216 C 0.96984 0.63358 0.50157 0.0
C217 C 0.95762 0.63795 0.51751 0.0
C218 C 0.94012 0.62602 0.52009 0.0
C219 C 0.935 0.60997 0.50706 0.0
H220 H 0.89304 0.56502 0.49664 0.0
H221 H 0.86408 0.54318 0.50312 0.0
H222 H 0.87842 0.50445 0.45401 0.0
H223 H 0.90769 0.52608 0.44766 0.0
H224 H 0.94912 0.53359 0.42678 0.0
H225 H 0.97244 0.52523 0.40114 0.0
H226 H 0.00582 0.58118 0.41299 0.0
H227 H 0.98254 0.58972 0.4384 0.0
H228 H 0.97462 0.61452 0.47652 0.0
H229 H 0.98354 0.64238 0.49933 0.0
H230 H 0.93027 0.62919 0.53209 0.0
H231 H 0.92141 0.60108 0.50953 0.0
N232 N 0.92545 0.5764 0.48033 0.0
N233 N 0.93338 0.55571 0.45347 0.0
N234 N 0.95443 0.58352 0.46276 0.0
C235 C 0.92091 0.56019 0.46829 0.0
C236 C 0.95016 0.56736 0.45059 0.0
C237 C 0.94218 0.58814 0.47766 0.0
C238 C 0.90281 0.54729 0.47167 0.0
C239 C 0.89005 0.5519 0.48714 0.0
C240 C 0.87334 0.53944 0.4908 0.0
C241 C 0.86897 0.52209 0.47909 0.0
C242 C 0.88154 0.5176 0.46344 0.0
C243 C 0.89827 0.53007 0.45975 0.0
C244 C 0.96394 0.56233 0.43469 0.0
C245 C 0.96137 0.54416 0.42387 0.0
C246 C 0.97479 0.5393 0.40927 0.0
C247 C 0.99093 0.55255 0.40509 0.0
C248 C 0.99339 0.57076 0.41575 0.0
C249 C 0.98008 0.57558 0.43041 0.0
C250 C 0.9473 0.60548 0.49118 0.0
C251 C 0.96475 0.61753 0.48855 0.0
C252 C 0.86126 0.80506 0.77307 0.0
C253 C 0.86266 0.81479 0.75537 0.0
C254 C 0.84708 0.82576 0.74977 0.0
C255 C 0.8303 0.82665 0.76147 0.0
H256 H 0.7784 0.85308 0.76723 0.0
H257 H 0.7538 0.87616 0.76103 0.0
H258 H 0.71868 0.85349 0.8088 0.0
H259 H 0.74315 0.83019 0.81499 0.0
H260 H 0.75965 0.79036 0.83648 0.0
H261 H 0.75798 0.77026 0.86539 0.0
H262 H 0.82132 0.77712 0.8707 0.0
H263 H 0.82313 0.79683 0.84164 0.0
H264 H 0.84396 0.79814 0.79824 0.0
H265 H 0.87314 0.79675 0.77794 0.0
H266 H 0.84766 0.83327 0.73611 0.0
H267 H 0.81846 0.83502 0.75658 0.0
N268 N 0.79554 0.82739 0.78595 0.0
N269 N 0.77759 0.81682 0.81338 0.0
N270 N 0.80926 0.80659 0.80771 0.0
C271 C 0.77891 0.82745 0.79697 0.0
C272 C 0.79276 0.80641 0.81883 0.0
C273 C 0.81075 0.81693 0.79119 0.0
C274 C 0.76293 0.83992 0.79181 0.0
C275 C 0.76534 0.85278 0.77629 0.0
C276 C 0.75127 0.86607 0.77274 0.0
C277 C 0.73442 0.86675 0.78454 0.0
C278 C 0.73147 0.85322 0.79938 0.0
C279 C 0.74559 0.83996 0.80301 0.0
C280 C 0.79152 0.79507 0.83676 0.0
C281 C 0.7732 0.78766 0.84388 0.0
C282 C 0.77223 0.77613 0.86033 0.0
C283 C 0.78953 0.77224 0.87017 0.0
C284 C 0.80779 0.78005 0.86338 0.0
C285 C 0.8088 0.79121 0.84671 0.0
C286 C 0.82876 0.81662 0.77903 0.0
C287 C 0.84452 0.80596 0.78476 0.0
C288 C 0.35885 0.31071 0.27454 0.0
C289 C 0.35909 0.32145 0.25745 0.0
C290 C 0.34284 0.33214 0.25329 0.0
C291 C 0.32665 0.33196 0.26588 0.0
H292 H 0.26629 0.34311 0.26904 0.0
H293 H 0.23927 0.36341 0.26269 0.0
H294 H 0.2232 0.36266 0.32402 0.0
H295 H 0.24953 0.34162 0.33006 0.0
H296 H 0.26215 0.29148 0.34401 0.0
H297 H 0.26303 0.26979 0.37158 0.0
H298 H 0.3265 0.2781 0.37279 0.0
H299 H 0.32575 0.29948 0.34504 0.0
H300 H 0.34305 0.30193 0.30005 0.0
H301 H 0.37098 0.30205 0.27801 0.0
H302 H 0.34268 0.34073 0.24033 0.0
H303 H 0.31436 0.34032 0.2622 0.0
N304 N 0.29302 0.33015 0.29204 0.0
N305 N 0.27754 0.31882 0.32058 0.0
N306 N 0.30925 0.31 0.31261 0.0
C307 C 0.27721 0.32947 0.30422 0.0
C308 C 0.29355 0.30904 0.32483 0.0
C309 C 0.30912 0.32045 0.29617 0.0
C310 C 0.26012 0.34082 0.30008 0.0
C311 C 0.25685 0.34715 0.28111 0.0
C312 C 0.2414 0.35889 0.2775 0.0
C313 C 0.22904 0.36486 0.29284 0.0
C314 C 0.23211 0.35812 0.31172 0.0
C315 C 0.24735 0.34613 0.31525 0.0
C316 C 0.29388 0.2971 0.34233 0.0
C317 C 0.27627 0.28881 0.35026 0.0
C318 C 0.27676 0.27635 0.36593 0.0
C319 C 0.29484 0.27231 0.37419 0.0
C320 C 0.3124 0.28108 0.36669 0.0
C321 C 0.31194 0.29321 0.35078 0.0
C322 C 0.32636 0.32107 0.28291 0.0
C323 C 0.34271 0.31053 0.28712 0.0
C324 C 0.44006 0.88916 0.54336 0.0
C325 C 0.43082 0.89001 0.52507 0.0
C326 C 0.41623 0.90329 0.52295 0.0
C327 C 0.41168 0.91617 0.53865 0.0
H328 H 0.3748 0.9618 0.55856 0.0
H329 H 0.35732 0.9907 0.55126 0.0
H330 H 0.3915 0.02555 0.59562 0.0
H331 H 0.40884 0.99676 0.60316 0.0
H332 H 0.42593 0.96645 0.63865 0.0
H333 H 0.45078 0.97168 0.66448 0.0
H334 H 0.48842 0.9339 0.63149 0.0
H335 H 0.46325 0.92792 0.6063 0.0
H336 H 0.44326 0.90099 0.57276 0.0
H337 H 0.4511 0.8788 0.54549 0.0
H338 H 0.40889 0.90422 0.50897 0.0
H339 H 0.40085 0.9267 0.53639 0.0
N340 N 0.40633 0.9454 0.57055 0.0
N341 N 0.41653 0.96015 0.60109 0.0
N342 N 0.42989 0.93122 0.58929 0.0
C343 C 0.40517 0.96008 0.58469 0.0
C344 C 0.42885 0.94569 0.60353 0.0
C345 C 0.41865 0.93084 0.57281 0.0
C346 C 0.39327 0.97696 0.58138 0.0
C347 C 0.37844 0.97556 0.56691 0.0
C348 C 0.36837 0.99205 0.56279 0.0
C349 C 0.37316 0.01032 0.57284 0.0
C350 C 0.38764 0.01164 0.5876 0.0
C351 C 0.39747 0.9951 0.59195 0.0
C352 C 0.4427 0.94697 0.62033 0.0
C353 C 0.43939 0.95903 0.6371 0.0
C354 C 0.45371 0.9621 0.65185 0.0
C355 C 0.4718 0.95348 0.64997 0.0
C356 C 0.47464 0.94063 0.63362 0.0
C357 C 0.4602 0.93729 0.61905 0.0
C358 C 0.42156 0.91587 0.55676 0.0
C359 C 0.43546 0.90186 0.55902 0.0
C360 C 0.2451 0.26632 0.67157 0.0
C361 C 0.23474 0.24766 0.66955 0.0
C362 C 0.22191 0.24152 0.68458 0.0
C363 C 0.21903 0.2541 0.70101 0.0
H364 H 0.17954 0.26417 0.74657 0.0
H365 H 0.15184 0.25844 0.7688 0.0
H366 H 0.17292 0.30969 0.80487 0.0
H367 H 0.20065 0.31541 0.78286 0.0
H368 H 0.22871 0.34831 0.76364 0.0
H369 H 0.24539 0.38134 0.76439 0.0
H370 H 0.27292 0.36759 0.70889 0.0
H371 H 0.25667 0.33447 0.70827 0.0
H372 H 0.2504 0.2932 0.68881 0.0
H373 H 0.25532 0.27133 0.66036 0.0
H374 H 0.21365 0.22724 0.68335 0.0
H375 H 0.20873 0.2491 0.71214 0.0
N376 N 0.21161 0.28208 0.73334 0.0
N377 N 0.2177 0.31339 0.74916 0.0
N378 N 0.2349 0.30524 0.72061 0.0
C379 C 0.20783 0.29521 0.74828 0.0
C380 C 0.23124 0.31853 0.73536 0.0
C381 C 0.22525 0.28697 0.71949 0.0
C382 C 0.19222 0.29038 0.76279 0.0
C383 C 0.17845 0.27407 0.75939 0.0
C384 C 0.16253 0.27081 0.77207 0.0
C385 C 0.16018 0.28368 0.7885 0.0
C386 C 0.17444 0.29942 0.79242 0.0
C387 C 0.19025 0.30278 0.77968 0.0
C388 C 0.24139 0.33864 0.73594 0.0
C389 C 0.23833 0.35229 0.75159 0.0
C390 C 0.24778 0.3713 0.75196 0.0
C391 C 0.26047 0.3771 0.7367 0.0
C392 C 0.26344 0.3635 0.72101 0.0
C393 C 0.25404 0.3445 0.72064 0.0
C394 C 0.22901 0.27302 0.70276 0.0
C395 C 0.24231 0.27883 0.68797 0.0
C396 C 0.75702 0.16065 0.73139 0.0
C397 C 0.73923 0.1582 0.72079 0.0
C398 C 0.73396 0.17355 0.70922 0.0
C399 C 0.74595 0.19116 0.70871 0.0
H400 H 0.75135 0.24584 0.68461 0.0
H401 H 0.74299 0.27273 0.66482 0.0
H402 H 0.78652 0.31206 0.69606 0.0
H403 H 0.79535 0.28495 0.71553 0.0
H404 H 0.82162 0.26612 0.75021 0.0
H405 H 0.85078 0.26872 0.77149 0.0
H406 H 0.85565 0.20599 0.76294 0.0
H407 H 0.82643 0.20324 0.74192 0.0
H408 H 0.78242 0.17961 0.73955 0.0
H409 H 0.7614 0.14926 0.74069 0.0
H410 H 0.72046 0.17202 0.70067 0.0
H411 H 0.7413 0.20279 0.69989 0.0
N412 N 0.7697 0.22855 0.71103 0.0
N413 N 0.79729 0.2482 0.72327 0.0
N414 N 0.79257 0.21498 0.73105 0.0
C415 C 0.78046 0.24627 0.71236 0.0
C416 C 0.80346 0.23254 0.73256 0.0
C417 C 0.77564 0.21285 0.72041 0.0
C418 C 0.7742 0.26313 0.70153 0.0
C419 C 0.75905 0.26024 0.68743 0.0
C420 C 0.75412 0.27575 0.67615 0.0
C421 C 0.76412 0.29458 0.67877 0.0
C422 C 0.77874 0.29766 0.69342 0.0
C423 C 0.78377 0.28211 0.70463 0.0
C424 C 0.82169 0.23447 0.74448 0.0
C425 C 0.82899 0.25292 0.75276 0.0
C426 C 0.84558 0.2544 0.76499 0.0
C427 C 0.85535 0.23754 0.76881 0.0
C428 C 0.8484 0.21921 0.76011 0.0
C429 C 0.83163 0.21765 0.74819 0.0
C430 C 0.76349 0.19378 0.71975 0.0
C431 C 0.76902 0.17818 0.73084 0.0
C432 C 0.50222 0.6191 0.62429 0.0
C433 C 0.50301 0.60749 0.6407 0.0
C434 C 0.52055 0.59889 0.64486 0.0
C435 C 0.53669 0.60105 0.6323 0.0
H436 H 0.57426 0.56229 0.6043 0.0
H437 H 0.59325 0.53369 0.5986 0.0
H438 H 0.6324 0.56728 0.5606 0.0
H439 H 0.61297 0.59561 0.56568 0.0
H440 H 0.58304 0.62072 0.53595 0.0
H441 H 0.57859 0.64051 0.50756 0.0
H442 H 0.54384 0.67917 0.54271 0.0
H443 H 0.54815 0.65945 0.5711 0.0
H444 H 0.51715 0.6301 0.59904 0.0
H445 H 0.48889 0.62598 0.62085 0.0
H446 H 0.5215 0.58973 0.65734 0.0
H447 H 0.54977 0.59368 0.63556 0.0
N448 N 0.56496 0.59837 0.60071 0.0
N449 N 0.57937 0.61092 0.57223 0.0
N450 N 0.55258 0.62568 0.58663 0.0
C451 C 0.57884 0.59757 0.58646 0.0
C452 C 0.56636 0.62508 0.57227 0.0
C453 C 0.55185 0.61245 0.60095 0.0
C454 C 0.59192 0.58115 0.58521 0.0
C455 C 0.58706 0.56366 0.59492 0.0
C456 C 0.59802 0.54725 0.59172 0.0
C457 C 0.6142 0.54805 0.5789 0.0
C458 C 0.61971 0.56596 0.57014 0.0
C459 C 0.60863 0.58226 0.57315 0.0
C460 C 0.5658 0.63841 0.55577 0.0
C461 C 0.57471 0.63362 0.53774 0.0
C462 C 0.5721 0.64487 0.52144 0.0
C463 C 0.56081 0.66129 0.52294 0.0
C464 C 0.55274 0.66666 0.54119 0.0
C465 C 0.55511 0.65528 0.5574 0.0
C466 C 0.53568 0.61206 0.61546 0.0
C467 C 0.51844 0.6215 0.61188 0.0
C468 C 0.56478 0.42228 0.99199 0.0
C469 C 0.54525 0.41497 0.99511 0.0
C470 C 0.53061 0.41892 0.98164 0.0
C471 C 0.53528 0.4305 0.96569 0.0
H472 H 0.51258 0.4498 0.91422 0.0
H473 H 0.48727 0.45696 0.89084 0.0
H474 H 0.52562 0.50496 0.86982 0.0
H475 H 0.55101 0.49763 0.89273 0.0
H476 H 0.58492 0.51589 0.9223 0.0
H477 H 0.61264 0.54022 0.92919 0.0
H478 H 0.64292 0.49686 0.95904 0.0
H479 H 0.615 0.47244 0.95258 0.0
H480 H 0.58457 0.43989 0.97444 0.0
H481 H 0.57634 0.41948 0.00218 0.0
H482 H 0.51547 0.4132 0.98355 0.0
H483 H 0.52354 0.43362 0.95586 0.0
N484 N 0.54556 0.4554 0.93344 0.0
N485 N 0.56623 0.48103 0.92111 0.0
N486 N 0.57641 0.46419 0.94803 0.0
C487 C 0.54905 0.46949 0.92013 0.0
C488 C 0.58 0.47842 0.93493 0.0
C489 C 0.55921 0.45263 0.94741 0.0
C490 C 0.53386 0.47315 0.90543 0.0
C491 C 0.51568 0.46181 0.90453 0.0
C492 C 0.50111 0.46597 0.89121 0.0
C493 C 0.50442 0.48155 0.87849 0.0
C494 C 0.52269 0.49268 0.87921 0.0
C495 C 0.53723 0.48853 0.89248 0.0
C496 C 0.59775 0.49228 0.93701 0.0
C497 C 0.59759 0.51141 0.93008 0.0
C498 C 0.61336 0.52536 0.93406 0.0
C499 C 0.62974 0.52032 0.94466 0.0
C500 C 0.63041 0.50098 0.95077 0.0
C501 C 0.61444 0.4871 0.94715 0.0
C502 C 0.55469 0.43854 0.96298 0.0
C503 C 0.56945 0.43403 0.97614 0.0
C504 C 0.72546 0.27863 0.3694 0.0
C505 C 0.71195 0.29299 0.37291 0.0
C506 C 0.69998 0.29792 0.35737 0.0
C507 C 0.70143 0.28863 0.33874 0.0
H508 H 0.68398 0.28964 0.27838 0.0
H509 H 0.65769 0.29363 0.25474 0.0
H510 H 0.66224 0.23397 0.23167 0.0
H511 H 0.68883 0.23001 0.25498 0.0
H512 H 0.7289 0.2093 0.26711 0.0
H513 H 0.75127 0.18308 0.26388 0.0
H514 H 0.7863 0.21048 0.31213 0.0
H515 H 0.76357 0.23623 0.31581 0.0
H516 H 0.73744 0.25829 0.34872 0.0
H517 H 0.73473 0.2743 0.38111 0.0
H518 H 0.68962 0.30913 0.35951 0.0
H519 H 0.69195 0.29278 0.32713 0.0
N520 N 0.70304 0.26694 0.30127 0.0
N521 N 0.71661 0.24287 0.28073 0.0
N522 N 0.72945 0.2503 0.31236 0.0
C523 C 0.70326 0.25656 0.28376 0.0
C524 C 0.72991 0.23983 0.29492 0.0
C525 C 0.71603 0.26381 0.31571 0.0
C526 C 0.6884 0.25948 0.26857 0.0
C527 C 0.67952 0.27744 0.26813 0.0
C528 C 0.66459 0.27979 0.25456 0.0
C529 C 0.65802 0.26409 0.24149 0.0
C530 C 0.6671 0.24626 0.24167 0.0
C531 C 0.68232 0.24404 0.25495 0.0
C532 C 0.74431 0.22475 0.29185 0.0
C533 C 0.74146 0.2098 0.27693 0.0
C534 C 0.75437 0.19481 0.27501 0.0
C535 C 0.77055 0.19455 0.28783 0.0
C536 C 0.77377 0.20994 0.30227 0.0
C537 C 0.76076 0.22478 0.30433 0.0
C538 C 0.71493 0.27422 0.33524 0.0
C539 C 0.72696 0.26939 0.35079 0.0
C540 C 0.47179 0.13823 0.00022 0.0
C541 C 0.458 0.14322 0.01456 0.0
C542 C 0.44031 0.13131 0.01593 0.0
C543 C 0.43661 0.11457 0.00344 0.0
H544 H 0.39735 0.06743 0.99359 0.0
H545 H 0.36892 0.04485 -0.0001 0.0
H546 H 0.38804 0.00363 0.95504 0.0
H547 H 0.41681 0.02607 0.94888 0.0
H548 H 0.45675 0.03617 0.92679 0.0
H549 H 0.48124 0.02769 0.90246 0.0
H550 H 0.51565 0.08241 0.91749 0.0
H551 H 0.49147 0.09079 0.94206 0.0
H552 H 0.47911 0.11804 0.97689 0.0
H553 H 0.48545 0.14729 0.99865 0.0
H554 H 0.42949 0.13467 0.02698 0.0
H555 H 0.42291 0.1056 0.00509 0.0
N556 N 0.43047 0.07896 0.97887 0.0
N557 N 0.44076 0.05729 0.95386 0.0
N558 N 0.46025 0.08631 0.9627 0.0
C559 C 0.42726 0.06199 0.96762 0.0
C560 C 0.45729 0.0694 0.95129 0.0
C561 C 0.44691 0.0912 0.97651 0.0
C562 C 0.40947 0.04856 0.97077 0.0
C563 C 0.39553 0.0536 0.98498 0.0
C564 C 0.37912 0.04071 0.98853 0.0
C565 C 0.37624 0.02246 0.97797 0.0
C566 C 0.38999 0.0175 0.96358 0.0
C567 C 0.40643 0.03042 0.95999 0.0
C568 C 0.47209 0.06418 0.93642 0.0
C569 C 0.46954 0.04641 0.92496 0.0
C570 C 0.48353 0.04156 0.91094 0.0
C571 C 0.50038 0.05437 0.90807 0.0
C572 C 0.50297 0.07209 0.91955 0.0
C573 C 0.489 0.07695 0.93356 0.0
C574 C 0.45052 0.10938 0.98925 0.0
C575 C 0.46808 0.12151 0.98768 0.0
O576 O 0.23662 0.8719 0.01443 0.0
Cd577 Cd 0.24563 0.89268 0.03627 0.0
Cd578 Cd 0.22003 0.91403 0.01796 0.0
O579 O 0.21241 0.88766 0.00274 0.0
O580 O 0.26084 0.87803 0.05477 0.0
O581 O 0.23292 0.89089 0.06288 0.0
C582 C 0.24745 0.88093 0.06768 0.0
C583 C 0.19603 0.93346 0.03077 0.0
C584 C 0.22215 0.87247 0.00274 0.0
C585 C 0.26245 0.9287 0.01683 0.0
O586 O 0.24537 0.92987 0.0097 0.0
O587 O 0.26543 0.9156 0.02891 0.0
O588 O 0.19878 0.93127 0.01213 0.0
O589 O 0.20645 0.92384 0.0423 0.0
O590 O 0.14971 0.53349 0.28192 0.0
Cd591 Cd 0.132 0.50932 0.29028 0.0
Cd592 Cd 0.10757 0.51946 0.26221 0.0
O593 O 0.13115 0.53904 0.2566 0.0
O594 O 0.14872 0.49134 0.30356 0.0
O595 O 0.13377 0.48358 0.27499 0.0
C596 C 0.14505 0.4788 0.28897 0.0
C597 C 0.08972 0.50528 0.23532 0.0
C598 C 0.14659 0.54319 0.26691 0.0
C599 C 0.09298 0.52139 0.30375 0.0
O600 O 0.09023 0.52547 0.28604 0.0
O601 O 0.10865 0.51391 0.3087 0.0
O602 O 0.08989 0.52382 0.24007 0.0
O603 O 0.10021 0.49455 0.24563 0.0
O604 O 0.76146 0.68283 0.9919 0.0
Cd605 Cd 0.74909 0.66297 0.011 0.0
Cd606 Cd 0.77706 0.64034 0.9973 0.0
O607 O 0.78441 0.66423 0.98047 0.0
O608 O 0.73301 0.6784 0.02952 0.0
O609 O 0.75888 0.66329 0.0388 0.0
C610 C 0.74465 0.67415 0.04336 0.0
C611 C 0.80064 0.6261 0.01538 0.0
C612 C 0.77584 0.68018 0.98049 0.0
C613 C 0.73543 0.62426 0.99067 0.0
O614 O 0.75348 0.62138 0.98829 0.0
O615 O 0.73041 0.64001 -0.0006 0.0
O616 O 0.80018 0.62424 0.99648 0.0
O617 O 0.7881 0.63681 0.0241 0.0
O618 O 0.89691 0.02204 0.27481 0.0
Cd619 Cd 0.87915 0.02791 0.25169 0.0
Cd620 Cd 0.85655 0.04029 0.28103 0.0
O621 O 0.87974 0.03482 0.29892 0.0
O622 O 0.89655 0.02423 0.22876 0.0
O623 O 0.88505 0.05291 0.23725 0.0
C624 C 0.8958 0.04269 0.22569 0.0
C625 C 0.8439 0.07108 0.28269 0.0
C626 C 0.8948 0.02642 0.29296 0.0
C627 C 0.83999 0.00559 0.25595 0.0
O628 O 0.83786 0.01652 0.27132 0.0
O629 O 0.85518 0.00831 0.24535 0.0
O630 O 0.83997 0.05846 0.29595 0.0
O631 O 0.85545 0.06629 0.26851 0.0
O632 O 0.27096 0.17756 0.49124 0.0
Cd633 Cd 0.2575 0.15798 0.51 0.0
Cd634 Cd 0.28392 0.13412 0.49458 0.0
O635 O 0.29262 0.15819 0.47846 0.0
O636 O 0.24096 0.17464 0.52682 0.0
O637 O 0.2654 0.15905 0.53855 0.0
C638 C 0.25143 0.17062 0.54163 0.0
C639 C 0.30576 0.11849 0.51347 0.0
C640 C 0.28495 0.17466 0.47941 0.0
C641 C 0.24173 0.12038 0.48844 0.0
O642 O 0.25944 0.11668 0.48517 0.0
O643 O 0.23783 0.13601 0.49814 0.0
O644 O 0.306 0.11671 0.49455 0.0
O645 O 0.29361 0.12998 0.52172 0.0
O646 O 0.40045 0.51832 0.7692 0.0
Cd647 Cd 0.38215 0.52707 0.74777 0.0
Cd648 Cd 0.36154 0.53894 0.77842 0.0
O649 O 0.38591 0.53269 0.79428 0.0
O650 O 0.39803 0.52721 0.72328 0.0
O651 O 0.3879 0.5543 0.73801 0.0
C652 C 0.39772 0.54616 0.72406 0.0
C653 C 0.34999 0.57021 0.78016 0.0
C654 C 0.39981 0.523 0.78744 0.0
C655 C 0.3426 0.50585 0.75306 0.0
O656 O 0.34201 0.51557 0.76942 0.0
O657 O 0.35686 0.50925 0.74138 0.0
O658 O 0.3469 0.55832 0.79423 0.0
O659 O 0.36004 0.56441 0.76521 0.0
O660 O 0.72776 0.37205 0.51162 0.0
Cd661 Cd 0.73789 0.39142 0.53423 0.0
Cd662 Cd 0.71186 0.41425 0.51813 0.0
O663 O 0.70439 0.38932 0.50056 0.0
O664 O 0.75421 0.37503 0.54998 0.0
O665 O 0.72785 0.38832 0.56187 0.0
C666 C 0.74244 0.37765 0.56446 0.0
C667 C 0.68766 0.43212 0.53294 0.0
C668 C 0.7137 0.37382 0.49973 0.0
C669 C 0.75433 0.42889 0.51686 0.0
O670 O 0.737 0.43108 0.51091 0.0
O671 O 0.75761 0.41448 0.52725 0.0
O672 O 0.69027 0.43164 0.51422 0.0
O673 O 0.69839 0.42172 0.54339 0.0
O674 O 0.65192 0.03414 0.77256 0.0
Cd675 Cd 0.63518 0.01129 0.7847 0.0
Cd676 Cd 0.60787 0.02093 0.75866 0.0
O677 O 0.63097 0.03918 0.74906 0.0
O678 O 0.65448 0.99604 0.79798 0.0
O679 O 0.63627 0.98384 0.77265 0.0
C680 C 0.64982 0.9816 0.78547 0.0
C681 C 0.58702 0.00478 0.735 0.0
C682 C 0.64758 0.04306 0.75739 0.0
C683 C 0.59825 0.02544 0.80164 0.0
O684 O 0.59372 0.02881 0.78412 0.0
O685 O 0.61412 0.01762 0.80526 0.0
O686 O 0.58765 0.02361 0.73831 0.0
O687 O 0.59871 0.99489 0.74491 0.0
O688 O 0.97827 0.28878 0.91639 0.0
Cd689 Cd 0.98603 0.2628 0.9031 0.0
Cd690 Cd 0.00228 0.28716 0.87735 0.0
O691 O 0.9945 0.30928 0.89701 0.0
O692 O 0.98383 0.24384 0.92437 0.0
O693 O 0.01199 0.25246 0.90974 0.0
C694 C 0.0026 0.24272 0.92309 0.0
C695 C 0.03397 0.28774 0.86457 0.0
C696 C 0.98365 0.30628 0.91189 0.0
C697 C 0.9684 0.2587 0.86334 0.0
O698 O 0.98044 0.27323 0.85955 0.0
O699 O 0.9685 0.25131 0.8801 0.0
O700 O 0.02142 0.29954 0.85881 0.0
O701 O 0.02869 0.27593 0.87822 0.0
O702 O 0.47351 0.78084 0.41795 0.0
Cd703 Cd 0.48491 0.75844 0.40114 0.0
Cd704 Cd 0.5011 0.7884 0.38178 0.0
O705 O 0.49177 0.80528 0.40538 0.0
O706 O 0.48372 0.73475 0.41737 0.0
O707 O 0.51163 0.75077 0.40858 0.0
C708 C 0.50271 0.73676 0.41807 0.0
C709 C 0.53368 0.79032 0.3715 0.0
C710 C 0.47926 0.79908 0.41793 0.0
C711 C 0.47075 0.76155 0.36025 0.0
O712 O 0.48055 0.77824 0.36083 0.0
O713 O 0.4716 0.75026 0.37451 0.0
O714 O 0.52223 0.80397 0.36779 0.0
O715 O 0.52674 0.77592 0.38175 0.0
O716 O 0.98812 0.78268 0.66744 0.0
Cd717 Cd 0.01022 0.77239 0.65003 0.0
Cd718 Cd 0.99415 0.79706 0.62361 0.0
O719 O 0.97654 0.80337 0.64721 0.0
O720 O 0.02592 0.75839 0.66867 0.0
O721 O 0.03818 0.78437 0.65319 0.0
C722 C 0.04063 0.77088 0.66548 0.0
C723 C 0.00487 0.82298 0.60411 0.0
C724 C 0.97615 0.79545 0.6637 0.0
C725 C 0.99368 0.75354 0.61229 0.0
O726 O 0.98869 0.77048 0.60821 0.0
O727 O 0.00282 0.75119 0.62814 0.0
O728 O 0.98676 0.81597 0.60417 0.0
O729 O 0.01707 0.81555 0.61566 0.0
O730 O 0.48145 0.28739 0.16662 0.0
Cd731 Cd 0.50354 0.27759 0.14884 0.0
Cd732 Cd 0.48772 0.30218 0.12283 0.0
O733 O 0.47048 0.30869 0.14664 0.0
O734 O 0.52025 0.26311 0.16614 0.0
O735 O 0.5311 0.29051 0.15202 0.0
C736 C 0.53444 0.27625 0.16313 0.0
C737 C 0.50002 0.32784 0.10382 0.0
C738 C 0.46981 0.30053 0.16302 0.0
C739 C 0.48684 0.25912 0.11083 0.0
O740 O 0.48144 0.27597 0.10702 0.0
O741 O 0.49633 0.25684 0.12648 0.0
O742 O 0.4816 0.32189 0.10371 0.0
O743 O 0.5116 0.31959 0.11539 0.0
H744 H 0.24527 0.79564 0.90528 0.0
H745 H 0.18168 0.79294 0.9034 0.0
H746 H 0.24518 0.81452 0.93646 0.0
H747 H 0.18159 0.81193 0.93474 0.0
H748 H 0.19469 0.87025 0.97325 0.0
H749 H 0.1912 0.84598 0.94582 0.0
H750 H 0.23627 0.81343 0.97094 0.0
H751 H 0.24009 0.83792 0.99822 0.0
C752 C 0.23124 0.79874 0.91172 0.0
C753 C 0.21349 0.79285 0.90182 0.0
C754 C 0.23118 0.80955 0.92963 0.0
C755 C 0.21337 0.81473 0.93808 0.0
C756 C 0.19556 0.80837 0.92847 0.0
C757 C 0.19562 0.79753 0.91053 0.0
C758 C 0.20365 0.85776 0.97311 0.0
C759 C 0.21786 0.85618 0.9878 0.0
C760 C 0.20157 0.84378 0.95741 0.0
C761 C 0.21362 0.8279 0.95609 0.0
C762 C 0.22703 0.82571 0.97137 0.0
C763 C 0.22914 0.8397 0.98705 0.0
H764 H 0.00774 0.5176 0.39894 0.0
H765 H 0.00666 0.57598 0.37684 0.0
H766 H 0.03215 0.50949 0.37417 0.0
H767 H 0.03135 0.56806 0.35244 0.0
H768 H 0.05907 0.5394 0.29843 0.0
H769 H 0.03399 0.54624 0.32267 0.0
H770 H 0.06729 0.51955 0.36682 0.0
H771 H 0.0924 0.51246 0.3425 0.0
C772 C 0.01265 0.52864 0.38872 0.0
C773 C 0.00533 0.54741 0.3898 0.0
C774 C 0.02675 0.52408 0.3747 0.0
C775 C 0.03367 0.53816 0.36142 0.0
C776 C 0.02617 0.55686 0.36238 0.0
C777 C 0.01218 0.56145 0.37645 0.0
C778 C 0.06107 0.53495 0.31329 0.0
C779 C 0.07777 0.52542 0.31855 0.0
C780 C 0.04673 0.53896 0.32719 0.0
C781 C 0.04872 0.53347 0.34663 0.0
C782 C 0.0653 0.52378 0.35188 0.0
C783 C 0.07972 0.51984 0.33799 0.0
H784 H 0.77214 0.73505 0.87143 0.0
H785 H 0.8051 0.78063 0.90674 0.0
H786 H 0.77135 0.71331 0.89908 0.0
H787 H 0.80395 0.75898 0.9346 0.0
H788 H 0.7685 0.71916 0.98178 0.0
H789 H 0.77356 0.74224 0.95546 0.0
H790 H 0.79955 0.69731 0.91948 0.0
H791 H 0.79492 0.67431 0.94584 0.0
C792 C 0.77909 0.74041 0.88517 0.0
C793 C 0.78863 0.75944 0.88707 0.0
C794 C 0.77878 0.72797 0.90087 0.0
C795 C 0.78769 0.73452 0.91884 0.0
C796 C 0.79701 0.75366 0.92085 0.0
C797 C 0.79768 0.76597 0.90498 0.0
C798 C 0.77561 0.71433 0.96838 0.0
C799 C 0.78126 0.69492 0.96583 0.0
C800 C 0.77853 0.72753 0.95339 0.0
C801 C 0.78678 0.72142 0.93549 0.0
C802 C 0.79304 0.70227 0.93316 0.0
C803 C 0.79049 0.68919 0.94827 0.0
H804 H 0.00345 0.00287 0.35061 0.0
H805 H 0.95874 0.98923 0.39385 0.0
H806 H 0.97832 0.01212 0.32821 0.0
H807 H 0.93341 0.99765 0.37102 0.0
H808 H 0.89652 0.03493 0.33269 0.0
H809 H 0.92147 0.02617 0.35578 0.0
H810 H 0.95163 0.99694 0.30832 0.0
H811 H 0.92711 0.00606 0.28525 0.0
C812 C 0.98824 0.00184 0.35534 0.0
C813 C 0.98311 0.99538 0.37405 0.0
C814 C 0.9738 0.00693 0.3424 0.0
C815 C 0.95385 0.00559 0.34781 0.0
C816 C 0.94867 -0.00095 0.36649 0.0
C817 C 0.96315 0.99398 0.37947 0.0
C818 C 0.90851 0.02667 0.32719 0.0
C819 C 0.90986 0.02127 0.30711 0.0
C820 C 0.92273 0.02155 0.34044 0.0
C821 C 0.93856 0.01089 0.33388 0.0
C822 C 0.93981 0.00543 0.31382 0.0
C823 C 0.92567 0.01059 0.3006 0.0
H824 H 0.23441 0.25924 0.63197 0.0
H825 H 0.23941 0.20791 0.66601 0.0
H826 H 0.238 0.23922 0.60185 0.0
H827 H 0.24265 0.18764 0.63562 0.0
H828 H 0.27156 0.16672 0.57598 0.0
H829 H 0.26688 0.18423 0.60767 0.0
H830 H 0.21839 0.21245 0.58322 0.0
H831 H 0.22309 0.19525 0.55171 0.0
C832 C 0.23634 0.24366 0.633 0.0
C833 C 0.23672 0.23516 0.65135 0.0
C834 C 0.23819 0.23215 0.61574 0.0
C835 C 0.2405 0.21184 0.61638 0.0
C836 C 0.24098 0.20328 0.63471 0.0
C837 C 0.23897 0.21482 0.65206 0.0
C838 C 0.25981 0.17654 0.57745 0.0
C839 C 0.24783 0.17975 0.56129 0.0
C840 C 0.25708 0.18648 0.5956 0.0
C841 C 0.2424 0.19985 0.59783 0.0
C842 C 0.23004 0.20249 0.58184 0.0
C843 C 0.2327 0.19256 0.5638 0.0
H844 H 0.46629 0.59503 0.62726 0.0
H845 H 0.49965 0.60903 0.68067 0.0
H846 H 0.43793 0.58307 0.64651 0.0
H847 H 0.47123 0.59709 0.69993 0.0
H848 H 0.41112 0.58503 0.72875 0.0
H849 H 0.43468 0.60327 0.70787 0.0
H850 H 0.43461 0.5524 0.66746 0.0
H851 H 0.41138 0.53412 0.68836 0.0
C852 C 0.46739 0.59597 0.64313 0.0
C853 C 0.48516 0.60287 0.65251 0.0
C854 C 0.45122 0.58903 0.65411 0.0
C855 C 0.45245 0.58912 0.67466 0.0
C856 C 0.46986 0.597 0.6841 0.0
C857 C 0.48614 0.60368 0.67311 0.0
C858 C 0.41588 0.5779 0.71522 0.0
C859 C 0.40953 0.55814 0.7102 0.0
C860 C 0.42941 0.58829 0.70336 0.0
C861 C 0.43645 0.57921 0.68611 0.0
C862 C 0.42928 0.55981 0.6806 0.0
C863 C 0.41607 0.54932 0.69261 0.0
H864 H 0.72869 0.3037 0.66368 0.0
H865 H 0.79108 0.32115 0.66296 0.0
H866 H 0.72341 0.32622 0.63773 0.0
H867 H 0.78564 0.34432 0.63785 0.0
H868 H 0.77291 0.35631 0.57378 0.0
H869 H 0.77772 0.3391 0.60347 0.0
H870 H 0.72427 0.36048 0.62762 0.0
H871 H 0.7192 0.37759 0.59742 0.0
C872 C 0.74123 0.31253 0.6582 0.0
C873 C 0.76035 0.31039 0.66523 0.0
C874 C 0.73816 0.32563 0.6435 0.0
C875 C 0.75414 0.33689 0.63556 0.0
C876 C 0.77306 0.3356 0.64342 0.0
C877 C 0.77614 0.32247 0.65802 0.0
C878 C 0.76221 0.3575 0.58543 0.0
C879 C 0.74562 0.36826 0.5832 0.0
C880 C 0.76507 0.34774 0.60257 0.0
C881 C 0.75145 0.3485 0.61799 0.0
C882 C 0.73497 0.35952 0.61594 0.0
C883 C 0.73211 0.36937 0.5987 0.0
H884 H 0.48121 0.98987 0.66773 0.0
H885 H 0.50013 0.93055 0.66352 0.0
H886 H 0.50945 0.00044 0.68817 0.0
H887 H 0.5294 0.94161 0.68291 0.0
H888 H 0.56995 0.96696 0.73483 0.0
H889 H 0.54181 0.95324 0.71483 0.0
H890 H 0.5436 0.00712 0.68347 0.0
H891 H 0.57092 0.02098 0.70396 0.0
C892 C 0.49126 0.97898 0.6713 0.0
C893 C 0.48832 0.95933 0.66388 0.0
C894 C 0.50775 0.98517 0.68273 0.0
C895 C 0.52197 0.97199 0.68683 0.0
C896 C 0.51876 0.95216 0.68001 0.0
C897 C 0.50207 0.94588 0.66871 0.0
C898 C 0.56443 0.97569 0.72346 0.0
C899 C 0.5724 0.99509 0.72106 0.0
C900 C 0.54833 0.96785 0.712 0.0
C901 C 0.54015 0.97925 0.69784 0.0
C902 C 0.54907 0.99818 0.69469 0.0
C903 C 0.56486 0.00606 0.70629 0.0
H904 H 0.85745 0.25422 0.80583 0.0
H905 H 0.89146 0.22377 0.76228 0.0
H906 H 0.8855 0.25632 0.82849 0.0
H907 H 0.91968 0.22609 0.78492 0.0
H908 H 0.96898 0.26371 0.82391 0.0
H909 H 0.9418 0.25634 0.80061 0.0
H910 H 0.90583 0.23128 0.8466 0.0
H911 H 0.93306 0.23837 0.86992 0.0
C912 C 0.87097 0.24805 0.80113 0.0
C913 C 0.8724 0.23892 0.78235 0.0
C914 C 0.88691 0.24908 0.81412 0.0
C915 C 0.90464 0.24127 0.80843 0.0
C916 C 0.90612 0.2322 0.78961 0.0
C917 C 0.89004 0.23086 0.77673 0.0
C918 C 0.95539 0.25632 0.82897 0.0
C919 C 0.95309 0.25171 0.84875 0.0
C920 C 0.93989 0.25205 0.81563 0.0
C921 C 0.92175 0.24341 0.82191 0.0
C922 C 0.91967 0.2381 0.84148 0.0
C923 C 0.93528 0.24205 0.85476 0.0
H924 H 0.46833 0.88497 0.51351 0.0
H925 H 0.4077 0.86726 0.49847 0.0
H926 H 0.47927 0.86359 0.48665 0.0
H927 H 0.41868 0.84592 0.4713 0.0
H928 H 0.44907 0.79188 0.44364 0.0
H929 H 0.43654 0.81476 0.46837 0.0
H930 H 0.47873 0.86088 0.45001 0.0
H931 H 0.49138 0.83803 0.42531 0.0
C932 C 0.45735 0.87649 0.50441 0.0
C933 C 0.43717 0.87763 0.50814 0.0
C934 C 0.46361 0.86441 0.48893 0.0
C935 C 0.44983 0.8531 0.47689 0.0
C936 C 0.42961 0.85439 0.48045 0.0
C937 C 0.42333 0.86667 0.49587 0.0
C938 C 0.45565 0.80691 0.44483 0.0
C939 C 0.47132 0.8131 0.43258 0.0
C940 C 0.44836 0.82004 0.45889 0.0
C941 C 0.45668 0.83957 0.46111 0.0
C942 C 0.47216 0.84584 0.44872 0.0
C943 C 0.47936 0.83277 0.43455 0.0
H944 H 0.15722 0.28635 0.82863 0.0
H945 H 0.12231 0.27717 0.77558 0.0
H946 H 0.127 0.28674 0.8481 0.0
H947 H 0.09227 0.27735 0.79499 0.0
H948 H 0.04661 0.30728 0.83252 0.0
H949 H 0.07744 0.30478 0.81494 0.0
H950 H 0.09613 0.26434 0.85683 0.0
H951 H 0.06504 0.26675 0.87458 0.0
C952 C 0.1431 0.28422 0.82118 0.0
C953 C 0.14211 0.28177 0.80059 0.0
C954 C 0.12586 0.28433 0.83231 0.0
C955 C 0.10735 0.28225 0.82301 0.0
C956 C 0.10637 0.2792 0.8025 0.0
C957 C 0.12356 0.2789 0.79142 0.0
C958 C 0.0573 0.29792 0.8381 0.0
C959 C 0.05335 0.28715 0.85491 0.0
C960 C 0.0749 0.2964 0.82793 0.0
C961 C 0.08905 0.2842 0.83441 0.0
C962 C 0.08544 0.27386 0.85155 0.0
C963 C 0.06766 0.27522 0.86166 0.0
H964 H 0.56272 0.70117 0.51877 0.0
H965 H 0.54778 0.64528 0.48748 0.0
H966 H 0.55103 0.71851 0.49091 0.0
H967 H 0.53614 0.66261 0.45964 0.0
H968 H 0.54082 0.74325 0.43083 0.0
H969 H 0.55772 0.7243 0.4544 0.0
H970 H 0.50638 0.68306 0.45687 0.0
H971 H 0.48943 0.702 0.43353 0.0
C972 C 0.55718 0.69264 0.50583 0.0
C973 C 0.55608 0.67191 0.50528 0.0
C974 C 0.55064 0.70254 0.48986 0.0
C975 C 0.54263 0.69187 0.47318 0.0
C976 C 0.54215 0.67116 0.47238 0.0
C977 C 0.54894 0.66128 0.48823 0.0
C978 C 0.53326 0.72997 0.4362 0.0
C979 C 0.51376 0.72415 0.43043 0.0
C980 C 0.5429 0.71922 0.44973 0.0
C981 C 0.53333 0.70227 0.45745 0.0
C982 C 0.51417 0.69598 0.45101 0.0
C983 C 0.50443 0.70688 0.43774 0.0
H984 H 0.88313 0.84388 0.73558 0.0
H985 H 0.88147 0.78164 0.74617 0.0
H986 H 0.9117 0.84065 0.71435 0.0
H987 H 0.90987 0.7784 0.72499 0.0
H988 H 0.97142 0.78202 0.70067 0.0
H989 H 0.94494 0.78801 0.72363 0.0
H990 H 0.91968 0.82541 0.68246 0.0
H991 H 0.94638 0.81979 0.65963 0.0
C992 C 0.88881 0.82951 0.7333 0.0
C993 C 0.8801 0.81303 0.7426 0.0
C994 C 0.90517 0.82766 0.72116 0.0
C995 C 0.91311 0.80929 0.71807 0.0
C996 C 0.90437 0.79284 0.72739 0.0
C997 C 0.88807 0.79469 0.73951 0.0
C998 C 0.96033 0.79167 0.69657 0.0
C999 C 0.96096 0.80032 0.67825 0.0
C1000 C 0.94509 0.79501 0.70969 0.0
C1001 C 0.93012 0.80704 0.70479 0.0
C1002 C 0.93108 0.8162 0.68675 0.0
C1003 C 0.94635 0.81289 0.67362 0.0
H1004 H 0.01301 0.91907 0.52419 0.0
H1005 H 0.06375 0.8865 0.51109 0.0
H1006 H 0.00474 0.89804 0.55136 0.0
H1007 H 0.05533 0.86516 0.53816 0.0
H1008 H 0.04229 0.83969 0.59814 0.0
H1009 H 0.05261 0.86377 0.57388 0.0
H1010 H 0.99218 0.8644 0.55462 0.0
H1011 H 0.98191 0.84093 0.57894 0.0
C1012 C 0.02232 0.9073 0.52706 0.0
C1013 C 0.03889 0.90426 0.51539 0.0
C1014 C 0.01761 0.89527 0.54264 0.0
C1015 C 0.02929 0.87982 0.54684 0.0
C1016 C 0.04616 0.87708 0.53546 0.0
C1017 C 0.05094 0.88922 0.51991 0.0
C1018 C 0.03124 0.84517 0.58884 0.0
C1019 C 0.0113 0.83841 0.59046 0.0
C1020 C 0.03715 0.85883 0.57487 0.0
C1021 C 0.02321 0.86601 0.56233 0.0
C1022 C 0.00327 0.85944 0.56424 0.0
C1023 C 0.99739 0.84586 0.57814 0.0
H1024 H 0.12394 0.76546 0.75904 0.0
H1025 H 0.16194 0.76777 0.70839 0.0
H1026 H 0.09539 0.76752 0.73799 0.0
H1027 H 0.13307 0.76953 0.68713 0.0
H1028 H 0.07536 0.79382 0.66157 0.0
H1029 H 0.10568 0.79272 0.68082 0.0
H1030 H 0.07843 0.74446 0.71254 0.0
H1031 H 0.04837 0.74552 0.69357 0.0
C1032 C 0.12621 0.7666 0.7434 0.0
C1033 C 0.14519 0.76651 0.73536 0.0
C1034 C 0.10983 0.76758 0.73133 0.0
C1035 C 0.11201 0.76855 0.71092 0.0
C1036 C 0.131 0.76886 0.70283 0.0
C1037 C 0.14746 0.76771 0.71495 0.0
C1038 C 0.07592 0.78293 0.67259 0.0
C1039 C 0.05942 0.76986 0.67614 0.0
C1040 C 0.09328 0.78225 0.68352 0.0
C1041 C 0.09431 0.76863 0.69828 0.0
C1042 C 0.07795 0.75532 0.70147 0.0
C1043 C 0.06075 0.75589 0.69051 0.0
H1044 H 0.95509 0.63909 0.55753 0.0
H1045 H 0.97275 0.67493 0.509 0.0
H1046 H 0.96387 0.66703 0.58047 0.0
H1047 H 0.98218 0.70264 0.53198 0.0
H1048 H 0.97457 0.75347 0.57707 0.0
H1049 H 0.96602 0.72544 0.55434 0.0
H1050 H 0.9932 0.68699 0.59312 0.0
H1051 H 0.0015 0.71501 0.61612 0.0
C1052 C 0.96082 0.65294 0.55178 0.0
C1053 C 0.96318 0.65484 0.53147 0.0
C1054 C 0.96606 0.66886 0.56492 0.0
C1055 C 0.97372 0.68702 0.55802 0.0
C1056 C 0.97613 0.68889 0.53772 0.0
C1057 C 0.97092 0.67297 0.52458 0.0
C1058 C 0.97875 0.73906 0.58078 0.0
C1059 C 0.98871 0.73648 0.59843 0.0
C1060 C 0.97394 0.72301 0.56769 0.0
C1061 C 0.97897 0.70403 0.57193 0.0
C1062 C 0.98894 0.70142 0.58956 0.0
C1063 C 0.99378 0.71749 0.60268 0.0
H1064 H 0.76896 0.89994 0.21025 0.0
H1065 H 0.77293 0.89707 0.27328 0.0
H1066 H 0.78659 0.93271 0.21239 0.0
H1067 H 0.79034 0.92969 0.2754 0.0
H1068 H 0.80637 0.99469 0.27587 0.0
H1069 H 0.78508 0.96439 0.27076 0.0
H1070 H 0.82001 0.94734 0.22083 0.0
H1071 H 0.84113 0.97779 0.22568 0.0
C1072 C 0.77365 0.90626 0.22453 0.0
C1073 C 0.7695 0.89594 0.2416 0.0
C1074 C 0.78368 0.92503 0.22576 0.0
C1075 C 0.7897 0.93384 0.24408 0.0
C1076 C 0.78551 0.9235 0.26111 0.0
C1077 C 0.77556 0.90478 0.25989 0.0
C1078 C 0.80936 0.98463 0.26363 0.0
C1079 C 0.82559 0.98856 0.25132 0.0
C1080 C 0.79723 0.96722 0.26077 0.0
C1081 C 0.80104 0.95337 0.24556 0.0
C1082 C 0.81663 0.95777 0.23262 0.0
C1083 C 0.82879 0.97519 0.23547 0.0
H1084 H 0.78348 0.17429 0.25506 0.0
H1085 H 0.78661 0.17666 0.31845 0.0
H1086 H 0.8023 0.14518 0.25385 0.0
H1087 H 0.80636 0.14843 0.31718 0.0
H1088 H 0.81698 0.08338 0.30908 0.0
H1089 H 0.80069 0.11388 0.30998 0.0
H1090 H 0.83412 0.13287 0.25951 0.0
H1091 H 0.8501 0.10184 0.25825 0.0
C1092 C 0.78829 0.16871 0.26872 0.0
C1093 C 0.78339 0.17779 0.28685 0.0
C1094 C 0.79932 0.15217 0.26802 0.0
C1095 C 0.80575 0.14437 0.28542 0.0
C1096 C 0.80137 0.15384 0.30349 0.0
C1097 C 0.79026 0.17025 0.3042 0.0
C1098 C 0.82096 0.09407 0.29821 0.0
C1099 C 0.83484 0.09018 0.28358 0.0
C1100 C 0.81169 0.11166 0.29881 0.0
C1101 C 0.81615 0.12591 0.28488 0.0
C1102 C 0.83019 0.12212 0.27034 0.0
C1103 C 0.83943 0.10441 0.26968 0.0
H1104 H 0.33814 0.0308 0.98484 0.0
H1105 H 0.37591 0.98256 0.98132 0.0
H1106 H 0.31061 0.00811 0.99415 0.0
H1107 H 0.3482 0.95974 0.98992 0.0
H1108 H 0.30086 0.93036 0.02894 0.0
H1109 H 0.32811 0.95292 0.01885 0.0
H1110 H 0.28884 0.98048 0.98069 0.0
H1111 H 0.26148 0.95819 0.99103 0.0
C1112 C 0.34053 0.01533 0.98598 0.0
C1113 C 0.35921 0.00848 0.98242 0.0
C1114 C 0.32472 0.00231 0.99111 0.0
C1115 C 0.32726 0.98215 0.99282 0.0
C1116 C 0.34585 0.97524 0.98896 0.0
C1117 C 0.36166 0.98826 0.9838 0.0
C1118 C 0.29801 0.94124 0.01842 0.0
C1119 C 0.27898 0.94248 0.01081 0.0
C1120 C 0.31367 0.95408 0.01254 0.0
C1121 C 0.31063 0.96844 -0.00107 0.0
C1122 C 0.2916 0.96971 0.99136 0.0
C1123 C 0.27594 0.95687 0.99723 0.0
H1124 H 0.23098 0.39589 0.2684 0.0
H1125 H 0.19251 0.36608 0.3099 0.0
H1126 H 0.20762 0.42095 0.26559 0.0
H1127 H 0.16969 0.39186 0.3077 0.0
H1128 H 0.15822 0.45953 0.31974 0.0
H1129 H 0.17578 0.42955 0.31866 0.0
H1130 H 0.17054 0.42536 0.2555 0.0
H1131 H 0.15251 0.45529 0.25656 0.0
C1132 C 0.21741 0.39439 0.27663 0.0
C1133 C 0.2138 0.37896 0.28953 0.0
C1134 C 0.20406 0.40883 0.27504 0.0
C1135 C 0.18696 0.40834 0.28651 0.0
C1136 C 0.1829 0.39261 0.29883 0.0
C1137 C 0.19607 0.37797 0.30019 0.0
C1138 C 0.16058 0.45208 0.30564 0.0
C1139 C 0.15409 0.45975 0.28823 0.0
C1140 C 0.17051 0.43487 0.30504 0.0
C1141 C 0.17446 0.4252 0.287 0.0
C1142 C 0.16765 0.43261 0.26958 0.0
C1143 C 0.15732 0.44964 0.2702 0.0
H1144 H 0.12761 0.05717 0.47006 0.0
H1145 H 0.16646 0.02103 0.43708 0.0
H1146 H 0.15529 0.08055 0.47931 0.0
H1147 H 0.19424 0.045 0.44523 0.0
H1148 H 0.24266 0.08076 0.48082 0.0
H1149 H 0.21537 0.05723 0.47057 0.0
H1150 H 0.17725 0.10513 0.46821 0.0
H1151 H 0.20427 0.12833 0.47966 0.0
C1152 C 0.14213 0.05448 0.46455 0.0
C1153 C 0.14502 0.03744 0.45287 0.0
C1154 C 0.158 0.06792 0.4697 0.0
C1155 C 0.17709 0.06482 0.46293 0.0
C1156 C 0.17986 0.04776 0.45101 0.0
C1157 C 0.16399 0.03409 0.4462 0.0
C1158 C 0.22842 0.08619 0.47806 0.0
C1159 C 0.2255 0.10631 0.48117 0.0
C1160 C 0.21278 0.07274 0.47204 0.0
C1161 C 0.19398 0.07919 0.46861 0.0
C1162 C 0.19133 0.09948 0.47118 0.0
C1163 C 0.20685 0.11284 0.47762 0.0
H1164 H 0.69914 0.15574 0.72421 0.0
H1165 H 0.7489 0.11992 0.7223 0.0
H1166 H 0.67737 0.12672 0.73082 0.0
H1167 H 0.72707 0.09091 0.72924 0.0
H1168 H 0.68531 0.05363 0.7698 0.0
H1169 H 0.70763 0.08045 0.75846 0.0
H1170 H 0.66401 0.09418 0.71625 0.0
H1171 H 0.64157 0.06749 0.72765 0.0
C1172 C 0.70539 0.14161 0.72481 0.0
C1173 C 0.72578 0.14017 0.72282 0.0
C1174 C 0.69291 0.12499 0.72865 0.0
C1175 C 0.70056 0.10659 0.73066 0.0
C1176 C 0.72083 0.10498 0.72805 0.0
C1177 C 0.73331 0.12159 0.72411 0.0
C1178 C 0.68052 0.06227 0.75802 0.0
C1179 C 0.66161 0.0585 0.74973 0.0
C1180 C 0.69336 0.07755 0.75143 0.0
C1181 C 0.68752 0.08942 0.7365 0.0
C1182 C 0.6688 0.08539 0.72792 0.0
C1183 C 0.656 0.07004 0.73441 0.0
H1184 H 0.33394 0.01502 0.56867 0.0
H1185 H 0.39153 0.04572 0.564 0.0
H1186 H 0.31886 0.04393 0.55705 0.0
H1187 H 0.37648 0.07451 0.55216 0.0
H1188 H 0.33956 0.10234 0.50235 0.0
H1189 H 0.35679 0.078 0.51949 0.0
H1190 H 0.31589 0.08169 0.56758 0.0
H1191 H 0.29881 0.10642 0.5506 0.0
C1192 C 0.34331 0.02801 0.5653 0.0
C1193 C 0.36386 0.02818 0.56718 0.0
C1194 C 0.33471 0.04456 0.55882 0.0
C1195 C 0.34655 0.0614 0.55377 0.0
C1196 C 0.36707 0.06169 0.55597 0.0
C1197 C 0.37564 0.04529 0.56279 0.0
C1198 C 0.3345 0.09826 0.51676 0.0
C1199 C 0.31785 0.10623 0.52515 0.0
C1200 C 0.34438 0.08439 0.52657 0.0
C1201 C 0.33756 0.07794 0.54477 0.0
C1202 C 0.32134 0.08639 0.5535 0.0
C1203 C 0.31168 0.10061 0.54386 0.0
H1204 H 0.62344 0.51837 0.60266 0.0
H1205 H 0.62781 0.53658 0.54286 0.0
H1206 H 0.63873 0.48804 0.59299 0.0
H1207 H 0.64401 0.50713 0.53357 0.0
H1208 H 0.6561 0.44627 0.51569 0.0
H1209 H 0.63679 0.47269 0.52823 0.0
H1210 H 0.66972 0.47593 0.58267 0.0
H1211 H 0.68853 0.44878 0.5703 0.0
C1212 C 0.6277 0.51596 0.58749 0.0
C1213 C 0.62442 0.52998 0.57356 0.0
C1214 C 0.63662 0.49866 0.582 0.0
C1215 C 0.64244 0.49502 0.56246 0.0
C1216 C 0.63936 0.50919 0.54866 0.0
C1217 C 0.63037 0.52633 0.55409 0.0
C1218 C 0.65896 0.45238 0.53048 0.0
C1219 C 0.67393 0.44563 0.54195 0.0
C1220 C 0.64802 0.46765 0.53762 0.0
C1221 C 0.65203 0.4768 0.55628 0.0
C1222 C 0.66622 0.46922 0.56825 0.0
C1223 C 0.67701 0.45367 0.56117 0.0
H1224 H 0.67869 0.30262 0.39269 0.0
H1225 H 0.74214 0.30601 0.39782 0.0
H1226 H 0.67672 0.31973 0.42489 0.0
H1227 H 0.74014 0.32289 0.42992 0.0
H1228 H 0.73122 0.3393 0.49309 0.0
H1229 H 0.72894 0.31766 0.46354 0.0
H1230 H 0.68565 0.35311 0.43953 0.0
H1231 H 0.68765 0.37462 0.4692 0.0
C1232 C 0.6922 0.30705 0.40065 0.0
C1233 C 0.71058 0.30296 0.39268 0.0
C1234 C 0.69106 0.31678 0.41911 0.0
C1235 C 0.70826 0.32254 0.42999 0.0
C1236 C 0.72658 0.31827 0.42209 0.0
C1237 C 0.72773 0.30862 0.40366 0.0
C1238 C 0.72094 0.3423 0.48168 0.0
C1239 C 0.7098 0.35886 0.48342 0.0
C1240 C 0.71974 0.32996 0.46469 0.0
C1241 C 0.70737 0.33387 0.44908 0.0
C1242 C 0.69529 0.34966 0.45132 0.0
C1243 C 0.69648 0.36203 0.46833 0.0
H1244 H 0.49334 0.03865 0.87088 0.0
H1245 H 0.54058 0.0591 0.91098 0.0
H1246 H 0.51738 0.03129 0.84569 0.0
H1247 H 0.56463 0.05244 0.88548 0.0
H1248 H 0.6017 0.01848 0.84071 0.0
H1249 H 0.57817 0.02496 0.86677 0.0
H1250 H 0.5405 0.04974 0.82496 0.0
H1251 H 0.56371 0.04297 0.79891 0.0
C1252 C 0.50886 0.04148 0.87435 0.0
C1253 C 0.51506 0.04948 0.89291 0.0
C1254 C 0.52263 0.03749 0.85984 0.0
C1255 C 0.5429 0.04141 0.86356 0.0
C1256 C 0.54912 0.04914 0.88221 0.0
C1257 C 0.53534 0.05315 0.89673 0.0
C1258 C 0.58843 0.02537 0.8371 0.0
C1259 C 0.58456 0.03014 0.81772 0.0
C1260 C 0.57499 0.02914 0.85204 0.0
C1261 C 0.55743 0.03774 0.84789 0.0
C1262 C 0.55373 0.04277 0.82856 0.0
C1263 C 0.56712 0.039 0.81366 0.0
H1264 H 0.27803 0.2348 0.37419 0.0
H1265 H 0.31312 0.2785 0.40982 0.0
H1266 H 0.27903 0.21148 0.40035 0.0
H1267 H 0.31382 0.25523 0.43622 0.0
H1268 H 0.28019 0.21412 0.48319 0.0
H1269 H 0.28513 0.2383 0.45791 0.0
H1270 H 0.30692 0.19364 0.41836 0.0
H1271 H 0.30235 0.16947 0.44371 0.0
C1272 C 0.28589 0.23938 0.38766 0.0
C1273 C 0.29542 0.2584 0.3901 0.0
C1274 C 0.28662 0.22604 0.40251 0.0
C1275 C 0.2966 0.23159 0.42018 0.0
C1276 C 0.30607 0.25064 0.42268 0.0
C1277 C 0.30568 0.26388 0.40764 0.0
C1278 C 0.2864 0.20956 0.46923 0.0
C1279 C 0.2908 0.18989 0.46538 0.0
C1280 C 0.28927 0.22341 0.45483 0.0
C1281 C 0.29625 0.21773 0.43622 0.0
C1282 C 0.3014 0.19829 0.4326 0.0
C1283 C 0.2989 0.18453 0.44713 0.0
H1284 H 0.46497 0.48259 0.88569 0.0
H1285 H 0.50855 0.49198 0.8404 0.0
H1286 H 0.43951 0.49194 0.86355 0.0
H1287 H 0.4833 0.50219 0.8186 0.0
H1288 H 0.42992 0.5 0.7781 0.0
H1289 H 0.4547 0.48911 0.79998 0.0
H1290 H 0.42943 0.52127 0.84869 0.0
H1291 H 0.40429 0.53179 0.82688 0.0
C1292 C 0.4691 0.48654 0.87098 0.0
C1293 C 0.48879 0.48656 0.86481 0.0
C1294 C 0.45456 0.49216 0.85838 0.0
C1295 C 0.45939 0.49791 0.83935 0.0
C1296 C 0.47904 0.49767 0.83311 0.0
C1297 C 0.49356 0.49203 0.84568 0.0
C1298 C 0.42964 0.50478 0.79347 0.0
C1299 C 0.41512 0.51679 0.80073 0.0
C1300 C 0.44391 0.4986 0.806 0.0
C1301 C 0.44405 0.50432 0.82608 0.0
C1302 C 0.42956 0.51636 0.83335 0.0
C1303 C 0.41523 0.52251 0.82081 0.0
H1304 H 0.764 0.73645 0.1557 0.0
H1305 H 0.70088 0.72343 0.15375 0.0
H1306 H 0.7671 0.71726 0.12489 0.0
H1307 H 0.70406 0.70357 0.12337 0.0
H1308 H 0.71561 0.69648 0.05695 0.0
H1309 H 0.71198 0.71122 0.08978 0.0
H1310 H 0.76367 0.68423 0.10884 0.0
H1311 H 0.76755 0.66969 0.07571 0.0
C1312 C 0.7508 0.72933 0.14879 0.0
C1313 C 0.73217 0.73164 0.15708 0.0
C1314 C 0.75261 0.71813 0.13125 0.0
C1315 C 0.73581 0.70899 0.12161 0.0
C1316 C 0.71726 0.71066 0.1303 0.0
C1317 C 0.71546 0.72186 0.14783 0.0
C1318 C 0.72615 0.69356 0.06815 0.0
C1319 C 0.74193 0.68199 0.0637 0.0
C1320 C 0.72397 0.7019 0.08703 0.0
C1321 C 0.73751 0.69889 0.10195 0.0
C1322 C 0.7531 0.68699 0.09761 0.0
C1323 C 0.75527 0.6786 0.07867 0.0
H1324 H 0.98634 0.11263 0.16649 0.0
H1325 H 0.96933 0.06518 0.12413 0.0
H1326 H 0.9588 0.10178 0.18746 0.0
H1327 H 0.94151 0.05469 0.14459 0.0
H1328 H 0.91784 0.02388 0.1987 0.0
H1329 H 0.94007 0.03835 0.17478 0.0
H1330 H 0.92325 0.09651 0.19266 0.0
H1331 H 0.90109 0.08189 0.21725 0.0
C1332 C 0.97641 0.10017 0.1615 0.0
C1333 C 0.98007 0.0895 0.14392 0.0
C1334 C 0.96061 0.094 0.17343 0.0
C1335 C 0.94814 0.07717 0.16783 0.0
C1336 C 0.95112 0.0674 0.14956 0.0
C1337 C 0.96699 0.07341 0.13782 0.0
C1338 C 0.91868 0.03975 0.19747 0.0
C1339 C 0.90775 0.05174 0.20994 0.0
C1340 C 0.93135 0.04806 0.18359 0.0
C1341 C 0.93339 0.0686 0.18171 0.0
C1342 C 0.9221 0.08064 0.19386 0.0
C1343 C 0.90934 0.07227 0.20783 0.0
H1344 H 0.28063 0.83201 0.1777 0.0
H1345 H 0.23594 0.79128 0.14984 0.0
H1346 H 0.27501 0.85605 0.15327 0.0
H1347 H 0.22992 0.8157 0.12596 0.0
H1348 H 0.21709 0.87021 0.09221 0.0
H1349 H 0.21903 0.85147 0.12197 0.0
H1350 H 0.28225 0.85319 0.11607 0.0
H1351 H 0.28032 0.87148 0.08637 0.0
C1352 C 0.2695 0.82821 0.16651 0.0
C1353 C 0.25898 0.80953 0.16558 0.0
C1354 C 0.2662 0.84206 0.15264 0.0
C1355 C 0.2521 0.83767 0.13773 0.0
C1356 C 0.24073 0.81952 0.13745 0.0
C1357 C 0.2442 0.80555 0.15117 0.0
C1358 C 0.2314 0.86686 0.09752 0.0
C1359 C 0.24855 0.87217 0.08698 0.0
C1360 C 0.23249 0.85609 0.11444 0.0
C1361 C 0.25079 0.85092 0.12127 0.0
C1362 C 0.26798 0.85714 0.11124 0.0
C1363 C 0.26686 0.86751 0.09418 0.0
H1364 H 0.98972 0.49767 0.16072 0.0
H1365 H 0.0082 0.43848 0.15193 0.0
H1366 H 0.01689 0.50591 0.18326 0.0
H1367 H 0.03636 0.44724 0.1737 0.0
H1368 H 0.0726 0.46754 0.23073 0.0
H1369 H 0.04625 0.45583 0.20755 0.0
H1370 H 0.05163 0.51226 0.18065 0.0
H1371 H 0.07719 0.52407 0.20416 0.0
C1372 C -0.00055 0.48631 0.16372 0.0
C1373 C 0.99672 0.46739 0.15445 0.0
C1374 C 0.01531 0.49118 0.1764 0.0
C1375 C 0.02906 0.47737 0.17996 0.0
C1376 C 0.02605 0.45823 0.17123 0.0
C1377 C 0.01002 0.45328 0.15861 0.0
C1378 C 0.06831 0.47725 0.21961 0.0
C1379 C 0.07669 0.49677 0.21935 0.0
C1380 C 0.05324 0.47057 0.20636 0.0
C1381 C 0.04652 0.48328 0.19256 0.0
C1382 C 0.05599 0.50231 0.1915 0.0
C1383 C 0.07077 0.50903 0.20485 0.0
H1384 H 0.36397 0.72393 0.29955 0.0
H1385 H 0.39769 0.75228 0.25374 0.0
H1386 H 0.39239 0.72838 0.32127 0.0
H1387 H 0.42643 0.75658 0.27553 0.0
H1388 H 0.46156 0.7841 0.32997 0.0
H1389 H 0.43653 0.77626 0.30475 0.0
H1390 H 0.42477 0.71814 0.32713 0.0
H1391 H 0.44943 0.7262 0.35277 0.0
C1392 C 0.37761 0.73078 0.29399 0.0
C1393 C 0.37862 0.73772 0.27493 0.0
C1394 C 0.39394 0.73329 0.30644 0.0
C1395 C 0.41173 0.74275 0.30012 0.0
C1396 C 0.41287 0.74941 0.28091 0.0
C1397 C 0.39645 0.74696 0.26844 0.0
C1398 C 0.4538 0.76956 0.32939 0.0
C1399 C 0.45731 0.75586 0.34355 0.0
C1400 C 0.43953 0.76502 0.31483 0.0
C1401 C 0.42852 0.74664 0.31403 0.0
C1402 C 0.43273 0.73258 0.32759 0.0
C1403 C 0.44693 0.73716 0.34223 0.0
H1404 H 0.97925 0.40837 0.99103 0.0
H1405 H 0.91838 0.38544 0.98665 0.0
H1406 H 0.98804 0.38423 0.96556 0.0
H1407 H 0.9271 0.36152 0.96082 0.0
H1408 H 0.95684 0.30475 0.94148 0.0
H1409 H 0.94603 0.33194 0.96208 0.0
H1410 H 0.98394 0.37312 0.93038 0.0
H1411 H 0.99499 0.34575 0.90969 0.0
C1412 C 0.96772 0.39832 0.98441 0.0
C1413 C 0.94818 0.3986 0.99096 0.0
C1414 C 0.97272 0.38464 0.96971 0.0
C1415 C 0.95828 0.37089 0.96132 0.0
C1416 C 0.93856 0.3718 0.9672 0.0
C1417 C 0.93354 0.38558 0.98185 0.0
C1418 C 0.96286 0.31959 0.93881 0.0
C1419 C 0.97689 0.32306 0.92401 0.0
C1420 C 0.9565 0.3352 0.95051 0.0
C1421 C 0.96406 0.35467 0.94777 0.0
C1422 C 0.97793 0.35824 0.93286 0.0
C1423 C 0.98423 0.34258 0.92101 0.0
H1424 H 0.63507 0.75571 0.30638 0.0
H1425 H 0.64682 0.81879 0.31641 0.0
H1426 H 0.60542 0.75686 0.32636 0.0
H1427 H 0.61792 0.81973 0.33711 0.0
H1428 H 0.55145 0.81772 0.34811 0.0
H1429 H 0.58299 0.81663 0.33165 0.0
H1430 H 0.59296 0.7625 0.35949 0.0
H1431 H 0.56103 0.76334 0.37568 0.0
C1432 C 0.63145 0.76977 0.31298 0.0
C1433 C 0.64332 0.78715 0.30972 0.0
C1434 C 0.61459 0.77039 0.32463 0.0
C1435 C 0.60926 0.78841 0.33327 0.0
C1436 C 0.62146 0.80565 0.33047 0.0
C1437 C 0.63821 0.80505 0.31879 0.0
C1438 C 0.56043 0.80568 0.3509 0.0
C1439 C 0.55371 0.79059 0.36315 0.0
C1440 C 0.57859 0.8051 0.34153 0.0
C1441 C 0.5905 0.78946 0.34424 0.0
C1442 C 0.58401 0.77461 0.35691 0.0
C1443 C 0.56579 0.77517 0.36628 0.0
H1444 H 0.0633 0.15892 0.98867 0.0
H1445 H 0.04905 0.20486 0.03116 0.0
H1446 H 0.05177 0.17825 0.96225 0.0
H1447 H 0.03688 0.22367 0.00477 0.0
H1448 H 0.98847 0.22952 0.95764 0.0
H1449 H 0.00579 0.21285 0.98242 0.0
H1450 H 0.05761 0.21384 0.94602 0.0
H1451 H 0.04032 0.23103 0.92107 0.0
C1452 C 0.05816 0.17331 0.99237 0.0
C1453 C 0.05682 0.18019 0.0121 0.0
C1454 C 0.0515 0.18431 0.97723 0.0
C1455 C 0.04321 0.20226 0.98157 0.0
C1456 C 0.04296 0.2097 0.00111 0.0
C1457 C 0.04983 0.19887 0.0162 0.0
C1458 C 0.00353 0.22616 0.95481 0.0
C1459 C 0.01304 0.23158 0.93739 0.0
C1460 C 0.01347 0.21675 0.96908 0.0
C1461 C 0.03306 0.21228 0.96617 0.0
C1462 C 0.04251 0.21722 0.94858 0.0
C1463 C 0.03264 0.22701 0.93437 0.0
H1464 H 0.35809 0.31814 0.21734 0.0
H1465 H 0.39834 0.3234 0.26669 0.0
H1466 H 0.3857 0.315 0.19501 0.0
H1467 H 0.42596 0.32011 0.24432 0.0
H1468 H 0.46422 0.28656 0.19973 0.0
H1469 H 0.43804 0.29352 0.22277 0.0
H1470 H 0.4153 0.33342 0.18251 0.0
H1471 H 0.4413 0.32631 0.15931 0.0
C1472 C 0.37285 0.31895 0.2234 0.0
C1473 C 0.37601 0.32093 0.24379 0.0
C1474 C 0.38867 0.31713 0.21061 0.0
C1475 C 0.40799 0.31722 0.21793 0.0
C1476 C 0.4112 0.31968 0.23828 0.0
C1477 C 0.39539 0.32155 0.25107 0.0
C1478 C 0.45373 0.29693 0.19583 0.0
C1479 C 0.4548 0.30578 0.17762 0.0
C1480 C 0.4388 0.30099 0.20909 0.0
C1481 C 0.42458 0.31396 0.20441 0.0
C1482 C 0.4259 0.32317 0.18641 0.0
C1483 C 0.44087 0.31916 0.17317 0.0
H1484 H 0.51493 0.42047 0.02018 0.0
H1485 H 0.56378 0.38452 0.00984 0.0
H1486 H 0.50524 0.40153 0.04848 0.0
H1487 H 0.55384 0.36516 0.03796 0.0
H1488 H 0.53829 0.34234 0.09819 0.0
H1489 H 0.55039 0.36516 0.07345 0.0
H1490 H 0.49067 0.36912 0.05335 0.0
H1491 H 0.47865 0.34699 0.0782 0.0
C1492 C 0.52352 0.40841 0.02393 0.0
C1493 C 0.53995 0.40379 0.0127 0.0
C1494 C 0.51799 0.39756 0.04014 0.0
C1495 C 0.52865 0.3817 0.04539 0.0
C1496 C 0.54544 0.37742 0.03446 0.0
C1497 C 0.55107 0.38842 0.0183 0.0
C1498 C 0.52778 0.34833 0.08864 0.0
C1499 C 0.50753 0.34285 0.09014 0.0
C1500 C 0.53471 0.36127 0.07438 0.0
C1501 C 0.5215 0.36896 0.0614 0.0
C1502 C 0.50124 0.36377 0.06328 0.0
C1503 C 0.49435 0.35094 0.07749 0.0
H1504 H 0.65319 0.29191 0.21467 0.0
H1505 H 0.62418 0.24044 0.23974 0.0
H1506 H 0.62446 0.2948 0.19374 0.0
H1507 H 0.59506 0.24385 0.21997 0.0
H1508 H 0.55084 0.24284 0.1721 0.0
H1509 H 0.58178 0.23982 0.18899 0.0
H1510 H 0.59209 0.30351 0.19313 0.0
H1511 H 0.5616 0.30627 0.17489 0.0
C1512 C 0.64056 0.2813 0.21571 0.0
C1513 C 0.64086 0.26585 0.2286 0.0
C1514 C 0.62404 0.283 0.20386 0.0
C1515 C 0.60734 0.26951 0.205 0.0
C1516 C 0.60774 0.25421 0.21817 0.0
C1517 C 0.62438 0.25228 0.22965 0.0
C1518 C 0.55985 0.25617 0.17649 0.0
C1519 C 0.55382 0.27479 0.17234 0.0
C1520 C 0.57754 0.25448 0.18635 0.0
C1521 C 0.5894 0.27142 0.19285 0.0
C1522 C 0.58353 0.2901 0.18823 0.0
C1523 C 0.566 0.29174 0.17787 0.0
H1524 H 0.43298 0.17091 0.0266 0.0
H1525 H 0.49254 0.15457 0.03372 0.0
H1526 H 0.4397 0.19881 0.05015 0.0
H1527 H 0.49944 0.1828 0.05677 0.0
H1528 H 0.49709 0.22125 0.11355 0.0
H1529 H 0.48992 0.19337 0.09017 0.0
H1530 H 0.45947 0.23068 0.0528 0.0
H1531 H 0.46634 0.25853 0.07628 0.0
C1532 C 0.4475 0.1733 0.03319 0.0
C1533 C 0.46223 0.16055 0.02834 0.0
C1534 C 0.4514 0.18936 0.04652 0.0
C1535 C 0.47009 0.19296 0.05531 0.0
C1536 C 0.48484 0.18027 0.05039 0.0
C1537 C 0.48096 0.16425 0.03702 0.0
C1538 C 0.48883 0.22351 0.10038 0.0
C1539 C 0.48229 0.24212 0.09679 0.0
C1540 C 0.48483 0.20756 0.08693 0.0
C1541 C 0.47418 0.20986 0.06964 0.0
C1542 C 0.46753 0.22842 0.0661 0.0
C1543 C 0.47156 0.24439 0.07952 0.0
H1544 H 0.24601 0.41244 0.74795 0.0
H1545 H 0.29875 0.38695 0.72702 0.0
H1546 H 0.26382 0.44509 0.75001 0.0
H1547 H 0.31642 0.41947 0.72897 0.0
H1548 H 0.33983 0.48156 0.71988 0.0
H1549 H 0.31818 0.4516 0.71418 0.0
H1550 H 0.29041 0.46222 0.77021 0.0
H1551 H 0.31179 0.49238 0.7758 0.0
C1552 C 0.26139 0.4138 0.74382 0.0
C1553 C 0.27097 0.39709 0.73734 0.0
C1554 C 0.27156 0.43249 0.74496 0.0
C1555 C 0.29149 0.43487 0.73958 0.0
C1556 C 0.30096 0.4182 0.73285 0.0
C1557 C 0.29084 0.39955 0.73176 0.0
C1558 C 0.32891 0.47769 0.73087 0.0
C1559 C 0.3277 0.48926 0.7484 0.0
C1560 C 0.31659 0.46045 0.72764 0.0
C1561 C 0.30277 0.45441 0.74186 0.0
C1562 C 0.30083 0.46653 0.75891 0.0
C1563 C 0.31316 0.48378 0.76216 0.0
H1564 H 0.30782 0.68555 0.81012 0.0
H1565 H 0.27136 0.66033 0.76189 0.0
H1566 H 0.32817 0.65762 0.80703 0.0
H1567 H 0.29225 0.6328 0.75843 0.0
H1568 H 0.3447 0.59404 0.74974 0.0
H1569 H 0.32826 0.62486 0.75072 0.0
H1570 H 0.31985 0.62082 0.81317 0.0
H1571 H 0.33601 0.58999 0.81221 0.0
C1572 C 0.30417 0.67413 0.7988 0.0
C1573 C 0.28774 0.67509 0.78644 0.0
C1574 C 0.31591 0.65821 0.79698 0.0
C1575 C 0.31169 0.64304 0.78257 0.0
C1576 C 0.29591 0.64441 0.76956 0.0
C1577 C 0.28398 0.66022 0.77153 0.0
C1578 C 0.33951 0.59985 0.7637 0.0
C1579 C 0.34156 0.58959 0.7809 0.0
C1580 C 0.33004 0.61741 0.76422 0.0
C1581 C 0.32282 0.62517 0.78201 0.0
C1582 C 0.32544 0.61523 0.79929 0.0
C1583 C 0.33459 0.59755 0.79872 0.0
H1584 H 0.86705 0.48183 0.4792 0.0
H1585 H 0.83191 0.53156 0.48932 0.0
H1586 H 0.83901 0.45944 0.48773 0.0
H1587 H 0.80407 0.5092 0.49857 0.0
H1588 H 0.75295 0.46095 0.49427 0.0
H1589 H 0.78043 0.4834 0.48438 0.0
H1590 H 0.82049 0.45116 0.51726 0.0
H1591 H 0.79315 0.4285 0.52687 0.0
C1592 C 0.8533 0.48797 0.48312 0.0
C1593 C 0.85169 0.50846 0.4836 0.0
C1594 C 0.83732 0.47517 0.48825 0.0
C1595 C 0.81938 0.48257 0.49394 0.0
C1596 C 0.81766 0.50304 0.49411 0.0
C1597 C 0.83366 0.51585 0.48901 0.0
C1598 C 0.76761 0.45866 0.49942 0.0
C1599 C 0.77086 0.4429 0.51133 0.0
C1600 C 0.78334 0.47158 0.49381 0.0
C1601 C 0.80262 0.46899 0.49998 0.0
C1602 C 0.80584 0.45334 0.51201 0.0
C1603 C 0.79014 0.44044 0.51763 0.0
H1604 H 0.74456 0.90576 0.78046 0.0
H1605 H 0.69396 0.86374 0.7846 0.0
H1606 H 0.72291 0.9326 0.77996 0.0
H1607 H 0.67219 0.89085 0.78429 0.0
H1608 H 0.64254 0.94722 0.76288 0.0
H1609 H 0.66217 0.91841 0.76154 0.0
H1610 H 0.70093 0.94662 0.8064 0.0
H1611 H 0.68151 0.97516 0.80785 0.0
C1612 C 0.72878 0.90223 0.78095 0.0
C1613 C 0.72094 0.88265 0.78256 0.0
C1614 C 0.71641 0.91761 0.78086 0.0
C1615 C 0.69592 0.91378 0.78226 0.0
C1616 C 0.68795 0.89416 0.78316 0.0
C1617 C 0.70038 0.87872 0.78346 0.0
C1618 C 0.65517 0.94716 0.77254 0.0
C1619 C 0.66054 0.96351 0.78539 0.0
C1620 C 0.66634 0.93069 0.7718 0.0
C1621 C 0.68316 0.93044 0.78371 0.0
C1622 C 0.6882 0.94657 0.79684 0.0
C1623 C 0.67699 0.96287 0.79773 0.0
H1624 H 0.62556 0.5543 0.9659 0.0
H1625 H 0.66899 0.5205 0.93684 0.0
H1626 H 0.65124 0.57926 0.97697 0.0
H1627 H 0.6948 0.54605 0.94676 0.0
H1628 H 0.73873 0.58477 0.9847 0.0
H1629 H 0.71331 0.55964 0.9734 0.0
H1630 H 0.67271 0.60492 0.96733 0.0
H1631 H 0.69783 0.62975 0.97984 0.0
C1632 C 0.64066 0.55246 0.96165 0.0
C1633 C 0.64541 0.53563 0.95054 0.0
C1634 C 0.65539 0.5668 0.96784 0.0
C1635 C 0.67518 0.56482 0.9627 0.0
C1636 C 0.67982 0.54796 0.95132 0.0
C1637 C 0.66508 0.53339 0.94549 0.0
C1638 C 0.72434 0.58929 0.98095 0.0
C1639 C 0.72018 0.60916 0.98325 0.0
C1640 C 0.70978 0.57491 0.97431 0.0
C1641 C 0.69085 0.58016 0.96942 0.0
C1642 C 0.68691 0.60019 0.97137 0.0
C1643 C 0.70135 0.61448 0.97843 0.0
H1644 H 0.22298 0.65089 0.27396 0.0
H1645 H 0.21558 0.63886 0.21153 0.0
H1646 H 0.20258 0.62083 0.28022 0.0
H1647 H 0.19536 0.60857 0.21773 0.0
H1648 H 0.14254 0.56848 0.23756 0.0
H1649 H 0.16366 0.59769 0.23049 0.0
H1650 H 0.20309 0.58534 0.27726 0.0
H1651 H 0.1816 0.5563 0.28475 0.0
C1652 C 0.21707 0.64172 0.26158 0.0
C1653 C 0.22086 0.64719 0.24226 0.0
C1654 C 0.20546 0.62445 0.26515 0.0
C1655 C 0.19745 0.61222 0.24948 0.0
C1656 C 0.20113 0.61779 0.23014 0.0
C1657 C 0.21267 0.63513 0.22657 0.0
C1658 C 0.15577 0.57189 0.2463 0.0
C1659 C 0.16033 0.56009 0.2618 0.0
C1660 C 0.16794 0.58861 0.24215 0.0
C1661 C 0.18503 0.5939 0.25335 0.0
C1662 C 0.18985 0.58185 0.26857 0.0
C1663 C 0.17761 0.56513 0.27277 0.0
H1664 H 0.83841 0.52419 0.06563 0.0
H1665 H 0.89367 0.55944 0.06176 0.0
H1666 H 0.82077 0.55235 0.05609 0.0
H1667 H 0.87605 0.58749 0.05195 0.0
H1668 H 0.83558 0.61316 0.00323 0.0
H1669 H 0.85529 0.59012 0.01943 0.0
H1670 H 0.81519 0.5895 0.0684 0.0
H1671 H 0.79563 0.61299 0.05238 0.0
C1672 C 0.84671 0.53803 0.06295 0.0
C1673 C 0.86735 0.5397 0.06438 0.0
C1674 C 0.83665 0.55414 0.05765 0.0
C1675 C 0.84711 0.57203 0.05334 0.0
C1676 C 0.8677 0.57384 0.05523 0.0
C1677 C 0.87773 0.55785 0.06089 0.0
C1678 C 0.83122 0.60844 0.01764 0.0
C1679 C 0.81409 0.6148 0.02655 0.0
C1680 C 0.84251 0.59533 0.02692 0.0
C1681 C 0.83666 0.58803 0.04509 0.0
C1682 C 0.81993 0.59492 0.05436 0.0
C1683 C 0.80885 0.60841 0.04526 0.0
H1684 H 0.13349 0.03793 0.03653 0.0
H1685 H 0.12715 0.01865 0.09582 0.0
H1686 H 0.15209 0.00979 0.02797 0.0
H1687 H 0.14469 0.98967 0.08686 0.0
H1688 H 0.19534 0.95125 0.0676 0.0
H1689 H 0.17624 0.97874 0.07833 0.0
H1690 H 0.14674 0.97526 0.02195 0.0
H1691 H 0.16635 0.94845 0.01107 0.0
C1692 C 0.13613 0.02776 0.0478 0.0
C1693 C 0.12877 0.03063 0.06688 0.0
C1694 C 0.14652 0.01137 0.04278 0.0
C1695 C 0.14965 0.99724 0.05663 0.0
C1696 C 0.14262 0.00026 0.07583 0.0
C1697 C 0.13235 0.01679 0.0809 0.0
C1698 C 0.18456 0.95622 0.05764 0.0
C1699 C 0.18245 0.94785 0.03845 0.0
C1700 C 0.1736 0.97197 0.06378 0.0
C1701 C 0.16017 0.97947 0.05089 0.0
C1702 C 0.15735 0.97028 0.03208 0.0
C1703 C 0.16845 0.95476 0.02589 0.0
loop_
_geom_bond_atom_site_label_1
_geom_bond_atom_site_label_2
_geom_bond_distance
_geom_bond_site_symmetry_2
_ccdc_geom_bond_type
C0 C1 1.384 . S
C0 H13 0.947 . S
C0 C35 1.382 . S
C1 C0 1.384 . S
C1 C2 1.378 . S
C2 C1 1.378 . S
C2 C3 1.378 . S
C2 H14 0.952 . S
C3 C2 1.378 . S
C3 H15 0.950 . S
C3 C34 1.383 . S
H4 C23 0.947 . S
H5 C24 0.946 . S
H6 C26 0.953 . S
H7 C27 0.945 . S
H8 C29 0.952 . S
H9 C30 0.949 . S
H10 C32 0.950 . S
H11 C33 0.948 . S
H12 C35 0.951 . S
H13 C0 0.947 . S
H14 C2 0.952 . S
H15 C3 0.950 . S
N16 C19 1.382 . S
N16 C21 1.363 . S
N17 C19 1.371 . S
N17 C20 1.372 . S
N18 C20 1.361 . S
N18 C21 1.377 . S
C19 N16 1.382 . S
C19 N17 1.371 . S
C19 C22 1.480 . S
C20 N17 1.372 . S
C20 N18 1.361 . S
C20 C28 1.457 . S
C21 N16 1.363 . S
C21 N18 1.377 . S
C21 C34 1.479 . S
C22 C19 1.480 . S
C22 C23 1.383 . S
C22 C27 1.385 . S
C23 H4 0.947 . S
C23 C22 1.383 . S
C23 C24 1.388 . S
C24 H5 0.946 . S
C24 C23 1.388 . S
C24 C25 1.384 . S
C25 C24 1.384 . S
C25 C26 1.377 . S
C26 H6 0.953 . S
C26 C25 1.377 . S
C26 C27 1.369 . S
C27 H7 0.945 . S
C27 C22 1.385 . S
C27 C26 1.369 . S
C28 C20 1.457 . S
C28 C29 1.372 . S
C28 C33 1.364 . S
C29 H8 0.952 . S
C29 C28 1.372 . S
C29 C30 1.389 . S
C30 H9 0.949 . S
C30 C29 1.389 . S
C30 C31 1.387 . S
C31 C30 1.387 . S
C31 C32 1.372 . S
C32 H10 0.950 . S
C32 C31 1.372 . S
C32 C33 1.379 . S
C33 H11 0.948 . S
C33 C28 1.364 . S
C33 C32 1.379 . S
C34 C3 1.383 . S
C34 C21 1.479 . S
C34 C35 1.398 . S
C35 C0 1.382 . S
C35 H12 0.951 . S
C35 C34 1.398 . S
C36 C37 1.384 . S
C36 H49 0.947 . S
C36 C71 1.382 . S
C37 C36 1.384 . S
C37 C38 1.378 . S
C38 C37 1.378 . S
C38 C39 1.378 . S
C38 H50 0.952 . S
C39 C38 1.378 . S
C39 H51 0.950 . S
C39 C70 1.383 . S
H40 C59 0.947 . S
H41 C60 0.946 . S
H42 C62 0.953 . S
H43 C63 0.945 . S
H44 C65 0.952 . S
H45 C66 0.949 . S
H46 C68 0.950 . S
H47 C69 0.948 . S
H48 C71 0.951 . S
H49 C36 0.947 . S
H50 C38 0.952 . S
H51 C39 0.950 . S
N52 C55 1.382 . S
N52 C57 1.363 . S
N53 C55 1.371 . S
N53 C56 1.372 . S
N54 C56 1.361 . S
N54 C57 1.377 . S
C55 N52 1.382 . S
C55 N53 1.371 . S
C55 C58 1.480 . S
C56 N53 1.372 . S
C56 N54 1.361 . S
C56 C64 1.457 . S
C57 N52 1.363 . S
C57 N54 1.377 . S
C57 C70 1.479 . S
C58 C55 1.480 . S
C58 C59 1.383 . S
C58 C63 1.385 . S
C59 H40 0.947 . S
C59 C58 1.383 . S
C59 C60 1.388 . S
C60 H41 0.946 . S
C60 C59 1.388 . S
C60 C61 1.384 . S
C61 C60 1.384 . S
C61 C62 1.377 . S
C62 H42 0.953 . S
C62 C61 1.377 . S
C62 C63 1.369 . S
C63 H43 0.945 . S
C63 C58 1.385 . S
C63 C62 1.369 . S
C64 C56 1.457 . S
C64 C65 1.372 . S
C64 C69 1.364 . S
C65 H44 0.952 . S
C65 C64 1.372 . S
C65 C66 1.389 . S
C66 H45 0.949 . S
C66 C65 1.389 . S
C66 C67 1.387 . S
C67 C66 1.387 . S
C67 C68 1.372 . S
C68 H46 0.950 . S
C68 C67 1.372 . S
C68 C69 1.379 . S
C69 H47 0.948 . S
C69 C64 1.364 . S
C69 C68 1.379 . S
C70 C39 1.383 . S
C70 C57 1.479 . S
C70 C71 1.398 . S
C71 C36 1.382 . S
C71 H48 0.951 . S
C71 C70 1.398 . S
C72 C73 1.384 . S
C72 H85 0.947 . S
C72 C107 1.382 . S
C73 C72 1.384 . S
C73 C74 1.378 . S
C74 C73 1.378 . S
C74 C75 1.378 . S
C74 H86 0.952 . S
C75 C74 1.378 . S
C75 H87 0.950 . S
C75 C106 1.383 . S
H76 C95 0.947 . S
H77 C96 0.946 . S
H78 C98 0.953 . S
H79 C99 0.945 . S
H80 C101 0.952 . S
H81 C102 0.949 . S
H82 C104 0.950 . S
H83 C105 0.948 . S
H84 C107 0.951 . S
H85 C72 0.947 . S
H86 C74 0.952 . S
H87 C75 0.950 . S
N88 C91 1.382 . S
N88 C93 1.363 . S
N89 C91 1.371 . S
N89 C92 1.372 . S
N90 C92 1.361 . S
N90 C93 1.377 . S
C91 N88 1.382 . S
C91 N89 1.371 . S
C91 C94 1.480 . S
C92 N89 1.372 . S
C92 N90 1.361 . S
C92 C100 1.457 . S
C93 N88 1.363 . S
C93 N90 1.377 . S
C93 C106 1.479 . S
C94 C91 1.480 . S
C94 C95 1.383 . S
C94 C99 1.385 . S
C95 H76 0.947 . S
C95 C94 1.383 . S
C95 C96 1.388 . S
C96 H77 0.946 . S
C96 C95 1.388 . S
C96 C97 1.384 . S
C97 C96 1.384 . S
C97 C98 1.377 . S
C98 H78 0.953 . S
C98 C97 1.377 . S
C98 C99 1.369 . S
C99 H79 0.945 . S
C99 C94 1.385 . S
C99 C98 1.369 . S
C100 C92 1.457 . S
C100 C101 1.372 . S
C100 C105 1.364 . S
C101 H80 0.952 . S
C101 C100 1.372 . S
C101 C102 1.389 . S
C102 H81 0.949 . S
C102 C101 1.389 . S
C102 C103 1.387 . S
C103 C102 1.387 . S
C103 C104 1.372 . S
C104 H82 0.950 . S
C104 C103 1.372 . S
C104 C105 1.379 . S
C105 H83 0.948 . S
C105 C100 1.364 . S
C105 C104 1.379 . S
C106 C75 1.383 . S
C106 C93 1.479 . S
C106 C107 1.398 . S
C107 C72 1.382 . S
C107 H84 0.951 . S
C107 C106 1.398 . S
C108 C109 1.384 . S
C108 H121 0.947 . S
C108 C143 1.382 . S
C109 C108 1.384 . S
C109 C110 1.378 . S
C110 C109 1.378 . S
C110 C111 1.378 . S
C110 H122 0.952 . S
C111 C110 1.378 . S
C111 H123 0.950 . S
C111 C142 1.383 . S
H112 C131 0.947 . S
H113 C132 0.946 . S
H114 C134 0.953 . S
H115 C135 0.945 . S
H116 C137 0.952 . S
H117 C138 0.949 . S
H118 C140 0.950 . S
H119 C141 0.948 . S
H120 C143 0.951 . S
H121 C108 0.947 . S
H122 C110 0.952 . S
H123 C111 0.950 . S
N124 C127 1.382 . S
N124 C129 1.363 . S
N125 C127 1.371 . S
N125 C128 1.372 . S
N126 C128 1.361 . S
N126 C129 1.377 . S
C127 N124 1.382 . S
C127 N125 1.371 . S
C127 C130 1.480 . S
C128 N125 1.372 . S
C128 N126 1.361 . S
C128 C136 1.457 . S
C129 N124 1.363 . S
C129 N126 1.377 . S
C129 C142 1.479 . S
C130 C127 1.480 . S
C130 C131 1.383 . S
C130 C135 1.385 . S
C131 H112 0.947 . S
C131 C130 1.383 . S
C131 C132 1.388 . S
C132 H113 0.946 . S
C132 C131 1.388 . S
C132 C133 1.384 . S
C133 C132 1.384 . S
C133 C134 1.377 . S
C134 H114 0.953 . S
C134 C133 1.377 . S
C134 C135 1.369 . S
C135 H115 0.945 . S
C135 C130 1.385 . S
C135 C134 1.369 . S
C136 C128 1.457 . S
C136 C137 1.372 . S
C136 C141 1.364 . S
C137 H116 0.952 . S
C137 C136 1.372 . S
C137 C138 1.389 . S
C138 H117 0.949 . S
C138 C137 1.389 . S
C138 C139 1.387 . S
C139 C138 1.387 . S
C139 C140 1.372 . S
C140 H118 0.950 . S
C140 C139 1.372 . S
C140 C141 1.379 . S
C141 H119 0.948 . S
C141 C136 1.364 . S
C141 C140 1.379 . S
C142 C111 1.383 . S
C142 C129 1.479 . S
C142 C143 1.398 . S
C143 C108 1.382 . S
C143 H120 0.951 . S
C143 C142 1.398 . S
C144 C145 1.384 . S
C144 H157 0.947 . S
C144 C179 1.382 . S
C145 C144 1.384 . S
C145 C146 1.378 . S
C146 C145 1.378 . S
C146 C147 1.378 . S
C146 H158 0.952 . S
C147 C146 1.378 . S
C147 H159 0.950 . S
C147 C178 1.383 . S
H148 C167 0.947 . S
H149 C168 0.946 . S
H150 C170 0.953 . S
H151 C171 0.945 . S
H152 C173 0.952 . S
H153 C174 0.949 . S
H154 C176 0.950 . S
H155 C177 0.948 . S
H156 C179 0.951 . S
H157 C144 0.947 . S
H158 C146 0.952 . S
H159 C147 0.950 . S
N160 C163 1.382 . S
N160 C165 1.363 . S
N161 C163 1.371 . S
N161 C164 1.372 . S
N162 C164 1.361 . S
N162 C165 1.377 . S
C163 N160 1.382 . S
C163 N161 1.371 . S
C163 C166 1.480 . S
C164 N161 1.372 . S
C164 N162 1.361 . S
C164 C172 1.457 . S
C165 N160 1.363 . S
C165 N162 1.377 . S
C165 C178 1.479 . S
C166 C163 1.480 . S
C166 C167 1.383 . S
C166 C171 1.385 . S
C167 H148 0.947 . S
C167 C166 1.383 . S
C167 C168 1.388 . S
C168 H149 0.946 . S
C168 C167 1.388 . S
C168 C169 1.384 . S
C169 C168 1.384 . S
C169 C170 1.377 . S
C170 H150 0.953 . S
C170 C169 1.377 . S
C170 C171 1.369 . S
C171 H151 0.945 . S
C171 C166 1.385 . S
C171 C170 1.369 . S
C172 C164 1.457 . S
C172 C173 1.372 . S
C172 C177 1.364 . S
C173 H152 0.952 . S
C173 C172 1.372 . S
C173 C174 1.389 1_565 S
C174 H153 0.949 . S
C174 C173 1.389 1_545 S
C174 C175 1.395 . S
C175 C174 1.395 . S
C175 C176 1.353 1_545 S
C176 H154 0.950 . S
C176 C175 1.353 1_565 S
C176 C177 1.379 . S
C177 H155 0.948 . S
C177 C172 1.364 . S
C177 C176 1.379 . S
C178 C147 1.383 . S
C178 C165 1.479 . S
C178 C179 1.398 . S
C179 C144 1.382 . S
C179 H156 0.951 . S
C179 C178 1.398 . S
C180 C181 1.384 . S
C180 H193 0.947 . S
C180 C215 1.382 . S
C181 C180 1.384 . S
C181 C182 1.378 . S
C182 C181 1.378 . S
C182 C183 1.378 . S
C182 H194 0.952 . S
C183 C182 1.378 . S
C183 H195 0.950 . S
C183 C214 1.383 . S
H184 C203 0.947 . S
H185 C204 0.946 . S
H186 C206 0.953 . S
H187 C207 0.945 . S
H188 C209 0.952 . S
H189 C210 0.949 . S
H190 C212 0.950 . S
H191 C213 0.948 . S
H192 C215 0.951 . S
H193 C180 0.947 . S
H194 C182 0.952 . S
H195 C183 0.950 . S
N196 C199 1.382 . S
N196 C201 1.363 . S
N197 C199 1.371 . S
N197 C200 1.372 . S
N198 C200 1.361 . S
N198 C201 1.377 . S
C199 N196 1.382 . S
C199 N197 1.371 . S
C199 C202 1.480 . S
C200 N197 1.372 . S
C200 N198 1.361 . S
C200 C208 1.457 . S
C201 N196 1.363 . S
C201 N198 1.377 . S
C201 C214 1.479 . S
C202 C199 1.480 . S
C202 C203 1.383 . S
C202 C207 1.385 . S
C203 H184 0.947 . S
C203 C202 1.383 . S
C203 C204 1.388 . S
C204 H185 0.946 . S
C204 C203 1.388 . S
C204 C205 1.384 . S
C205 C204 1.384 . S
C205 C206 1.377 . S
C206 H186 0.953 . S
C206 C205 1.377 . S
C206 C207 1.369 . S
C207 H187 0.945 . S
C207 C202 1.385 . S
C207 C206 1.369 . S
C208 C200 1.457 . S
C208 C209 1.372 . S
C208 C213 1.364 . S
C209 H188 0.952 . S
C209 C208 1.372 . S
C209 C210 1.389 . S
C210 H189 0.949 . S
C210 C209 1.389 . S
C210 C211 1.387 . S
C211 C210 1.387 . S
C211 C212 1.372 . S
C212 H190 0.950 . S
C212 C211 1.372 . S
C212 C213 1.379 . S
C213 H191 0.948 . S
C213 C208 1.364 . S
C213 C212 1.379 . S
C214 C183 1.383 . S
C214 C201 1.479 . S
C214 C215 1.398 . S
C215 C180 1.382 . S
C215 H192 0.951 . S
C215 C214 1.398 . S
C216 C217 1.384 . S
C216 H229 0.947 . S
C216 C251 1.382 . S
C217 C216 1.384 . S
C217 C218 1.378 . S
C218 C217 1.378 . S
C218 C219 1.378 . S
C218 H230 0.952 . S
C219 C218 1.378 . S
C219 H231 0.950 . S
C219 C250 1.383 . S
H220 C239 0.947 . S
H221 C240 0.946 . S
H222 C242 0.953 . S
H223 C243 0.945 . S
H224 C245 0.952 . S
H225 C246 0.949 . S
H226 C248 0.950 . S
H227 C249 0.948 . S
H228 C251 0.951 . S
H229 C216 0.947 . S
H230 C218 0.952 . S
H231 C219 0.950 . S
N232 C235 1.382 . S
N232 C237 1.363 . S
N233 C235 1.371 . S
N233 C236 1.372 . S
N234 C236 1.361 . S
N234 C237 1.377 . S
C235 N232 1.382 . S
C235 N233 1.371 . S
C235 C238 1.480 . S
C236 N233 1.372 . S
C236 N234 1.361 . S
C236 C244 1.457 . S
C237 N232 1.363 . S
C237 N234 1.377 . S
C237 C250 1.479 . S
C238 C235 1.480 . S
C238 C239 1.383 . S
C238 C243 1.385 . S
C239 H220 0.947 . S
C239 C238 1.383 . S
C239 C240 1.388 . S
C240 H221 0.946 . S
C240 C239 1.388 . S
C240 C241 1.384 . S
C241 C240 1.384 . S
C241 C242 1.377 . S
C242 H222 0.953 . S
C242 C241 1.377 . S
C242 C243 1.369 . S
C243 H223 0.945 . S
C243 C238 1.385 . S
C243 C242 1.369 . S
C244 C236 1.457 . S
C244 C245 1.372 . S
C244 C249 1.364 . S
C245 H224 0.952 . S
C245 C244 1.372 . S
C245 C246 1.389 . S
C246 H225 0.949 . S
C246 C245 1.389 . S
C246 C247 1.387 . S
C247 C246 1.387 . S
C247 C248 1.372 . S
C248 H226 0.950 . S
C248 C247 1.372 . S
C248 C249 1.379 . S
C249 H227 0.948 . S
C249 C244 1.364 . S
C249 C248 1.379 . S
C250 C219 1.383 . S
C250 C237 1.479 . S
C250 C251 1.398 . S
C251 C216 1.382 . S
C251 H228 0.951 . S
C251 C250 1.398 . S
C252 C253 1.384 . S
C252 H265 0.947 . S
C252 C287 1.382 . S
C253 C252 1.384 . S
C253 C254 1.378 . S
C254 C253 1.378 . S
C254 C255 1.378 . S
C254 H266 0.952 . S
C255 C254 1.378 . S
C255 H267 0.950 . S
C255 C286 1.383 . S
H256 C275 0.947 . S
H257 C276 0.946 . S
H258 C278 0.953 . S
H259 C279 0.945 . S
H260 C281 0.952 . S
H261 C282 0.949 . S
H262 C284 0.950 . S
H263 C285 0.948 . S
H264 C287 0.951 . S
H265 C252 0.947 . S
H266 C254 0.952 . S
H267 C255 0.950 . S
N268 C271 1.382 . S
N268 C273 1.363 . S
N269 C271 1.371 . S
N269 C272 1.372 . S
N270 C272 1.361 . S
N270 C273 1.377 . S
C271 N268 1.382 . S
C271 N269 1.371 . S
C271 C274 1.480 . S
C272 N269 1.372 . S
C272 N270 1.361 . S
C272 C280 1.457 . S
C273 N268 1.363 . S
C273 N270 1.377 . S
C273 C286 1.479 . S
C274 C271 1.480 . S
C274 C275 1.383 . S
C274 C279 1.385 . S
C275 H256 0.947 . S
C275 C274 1.383 . S
C275 C276 1.388 . S
C276 H257 0.946 . S
C276 C275 1.388 . S
C276 C277 1.384 . S
C277 C276 1.384 . S
C277 C278 1.377 . S
C278 H258 0.953 . S
C278 C277 1.377 . S
C278 C279 1.369 . S
C279 H259 0.945 . S
C279 C274 1.385 . S
C279 C278 1.369 . S
C280 C272 1.457 . S
C280 C281 1.372 . S
C280 C285 1.364 . S
C281 H260 0.952 . S
C281 C280 1.372 . S
C281 C282 1.389 . S
C282 H261 0.949 . S
C282 C281 1.389 . S
C282 C283 1.387 . S
C283 C282 1.387 . S
C283 C284 1.372 . S
C284 H262 0.950 . S
C284 C283 1.372 . S
C284 C285 1.379 . S
C285 H263 0.948 . S
C285 C280 1.364 . S
C285 C284 1.379 . S
C286 C255 1.383 . S
C286 C273 1.479 . S
C286 C287 1.398 . S
C287 C252 1.382 . S
C287 H264 0.951 . S
C287 C286 1.398 . S
C288 C289 1.384 . S
C288 H301 0.947 . S
C288 C323 1.382 . S
C289 C288 1.384 . S
C289 C290 1.378 . S
C290 C289 1.378 . S
C290 C291 1.378 . S
C290 H302 0.952 . S
C291 C290 1.378 . S
C291 H303 0.950 . S
C291 C322 1.383 . S
H292 C311 0.947 . S
H293 C312 0.946 . S
H294 C314 0.953 . S
H295 C315 0.945 . S
H296 C317 0.952 . S
H297 C318 0.949 . S
H298 C320 0.950 . S
H299 C321 0.948 . S
H300 C323 0.951 . S
H301 C288 0.947 . S
H302 C290 0.952 . S
H303 C291 0.950 . S
N304 C307 1.382 . S
N304 C309 1.363 . S
N305 C307 1.371 . S
N305 C308 1.372 . S
N306 C308 1.361 . S
N306 C309 1.377 . S
C307 N304 1.382 . S
C307 N305 1.371 . S
C307 C310 1.480 . S
C308 N305 1.372 . S
C308 N306 1.361 . S
C308 C316 1.457 . S
C309 N304 1.363 . S
C309 N306 1.377 . S
C309 C322 1.479 . S
C310 C307 1.480 . S
C310 C311 1.383 . S
C310 C315 1.385 . S
C311 H292 0.947 . S
C311 C310 1.383 . S
C311 C312 1.388 . S
C312 H293 0.946 . S
C312 C311 1.388 . S
C312 C313 1.384 . S
C313 C312 1.384 . S
C313 C314 1.377 . S
C314 H294 0.953 . S
C314 C313 1.377 . S
C314 C315 1.369 . S
C315 H295 0.945 . S
C315 C310 1.385 . S
C315 C314 1.369 . S
C316 C308 1.457 . S
C316 C317 1.372 . S
C316 C321 1.364 . S
C317 H296 0.952 . S
C317 C316 1.372 . S
C317 C318 1.389 . S
C318 H297 0.949 . S
C318 C317 1.389 . S
C318 C319 1.387 . S
C319 C318 1.387 . S
C319 C320 1.372 . S
C320 H298 0.950 . S
C320 C319 1.372 . S
C320 C321 1.379 . S
C321 H299 0.948 . S
C321 C316 1.364 . S
C321 C320 1.379 . S
C322 C291 1.383 . S
C322 C309 1.479 . S
C322 C323 1.398 . S
C323 C288 1.382 . S
C323 H300 0.951 . S
C323 C322 1.398 . S
C324 C325 1.384 . S
C324 H337 0.947 . S
C324 C359 1.382 . S
C325 C324 1.384 . S
C325 C326 1.378 . S
C326 C325 1.378 . S
C326 C327 1.378 . S
C326 H338 0.952 . S
C327 C326 1.378 . S
C327 H339 0.950 . S
C327 C358 1.383 . S
H328 C347 0.947 . S
H329 C348 0.946 . S
H330 C350 0.953 . S
H331 C351 0.945 . S
H332 C353 0.952 . S
H333 C354 0.949 . S
H334 C356 0.950 . S
H335 C357 0.948 . S
H336 C359 0.951 . S
H337 C324 0.947 . S
H338 C326 0.952 . S
H339 C327 0.950 . S
N340 C343 1.382 . S
N340 C345 1.363 . S
N341 C343 1.371 . S
N341 C344 1.372 . S
N342 C344 1.361 . S
N342 C345 1.377 . S
C343 N340 1.382 . S
C343 N341 1.371 . S
C343 C346 1.480 . S
C344 N341 1.372 . S
C344 N342 1.361 . S
C344 C352 1.457 . S
C345 N340 1.363 . S
C345 N342 1.377 . S
C345 C358 1.479 . S
C346 C343 1.480 . S
C346 C347 1.383 . S
C346 C351 1.385 . S
C347 H328 0.947 . S
C347 C346 1.383 . S
C347 C348 1.388 . S
C348 H329 0.946 . S
C348 C347 1.388 . S
C348 C349 1.384 . S
C349 C348 1.384 . S
C349 C350 1.377 . S
C350 H330 0.953 . S
C350 C349 1.377 . S
C350 C351 1.369 . S
C351 H331 0.945 . S
C351 C346 1.385 . S
C351 C350 1.369 . S
C352 C344 1.457 . S
C352 C353 1.372 . S
C352 C357 1.364 . S
C353 H332 0.952 . S
C353 C352 1.372 . S
C353 C354 1.389 . S
C354 H333 0.949 . S
C354 C353 1.389 . S
C354 C355 1.387 . S
C355 C354 1.387 . S
C355 C356 1.372 . S
C356 H334 0.950 . S
C356 C355 1.372 . S
C356 C357 1.379 . S
C357 H335 0.948 . S
C357 C352 1.364 . S
C357 C356 1.379 . S
C358 C327 1.383 . S
C358 C345 1.479 . S
C358 C359 1.398 . S
C359 C324 1.382 . S
C359 H336 0.951 . S
C359 C358 1.398 . S
C360 C361 1.384 . S
C360 H373 0.947 . S
C360 C395 1.382 . S
C361 C360 1.384 . S
C361 C362 1.378 . S
C362 C361 1.378 . S
C362 C363 1.378 . S
C362 H374 0.952 . S
C363 C362 1.378 . S
C363 H375 0.950 . S
C363 C394 1.383 . S
H364 C383 0.947 . S
H365 C384 0.946 . S
H366 C386 0.953 . S
H367 C387 0.945 . S
H368 C389 0.952 . S
H369 C390 0.949 . S
H370 C392 0.950 . S
H371 C393 0.948 . S
H372 C395 0.951 . S
H373 C360 0.947 . S
H374 C362 0.952 . S
H375 C363 0.950 . S
N376 C379 1.382 . S
N376 C381 1.363 . S
N377 C379 1.371 . S
N377 C380 1.372 . S
N378 C380 1.361 . S
N378 C381 1.377 . S
C379 N376 1.382 . S
C379 N377 1.371 . S
C379 C382 1.480 . S
C380 N377 1.372 . S
C380 N378 1.361 . S
C380 C388 1.457 . S
C381 N376 1.363 . S
C381 N378 1.377 . S
C381 C394 1.479 . S
C382 C379 1.480 . S
C382 C383 1.383 . S
C382 C387 1.385 . S
C383 H364 0.947 . S
C383 C382 1.383 . S
C383 C384 1.388 . S
C384 H365 0.946 . S
C384 C383 1.388 . S
C384 C385 1.384 . S
C385 C384 1.384 . S
C385 C386 1.377 . S
C386 H366 0.953 . S
C386 C385 1.377 . S
C386 C387 1.369 . S
C387 H367 0.945 . S
C387 C382 1.385 . S
C387 C386 1.369 . S
C388 C380 1.457 . S
C388 C389 1.372 . S
C388 C393 1.364 . S
C389 H368 0.952 . S
C389 C388 1.372 . S
C389 C390 1.389 . S
C390 H369 0.949 . S
C390 C389 1.389 . S
C390 C391 1.387 . S
C391 C390 1.387 . S
C391 C392 1.372 . S
C392 H370 0.950 . S
C392 C391 1.372 . S
C392 C393 1.379 . S
C393 H371 0.948 . S
C393 C388 1.364 . S
C393 C392 1.379 . S
C394 C363 1.383 . S
C394 C381 1.479 . S
C394 C395 1.398 . S
C395 C360 1.382 . S
C395 H372 0.951 . S
C395 C394 1.398 . S
C396 C397 1.384 . S
C396 H409 0.947 . S
C396 C431 1.382 . S
C397 C396 1.384 . S
C397 C398 1.378 . S
C398 C397 1.378 . S
C398 C399 1.378 . S
C398 H410 0.952 . S
C399 C398 1.378 . S
C399 H411 0.950 . S
C399 C430 1.383 . S
H400 C419 0.947 . S
H401 C420 0.946 . S
H402 C422 0.953 . S
H403 C423 0.945 . S
H404 C425 0.952 . S
H405 C426 0.949 . S
H406 C428 0.950 . S
H407 C429 0.948 . S
H408 C431 0.951 . S
H409 C396 0.947 . S
H410 C398 0.952 . S
H411 C399 0.950 . S
N412 C415 1.382 . S
N412 C417 1.363 . S
N413 C415 1.371 . S
N413 C416 1.372 . S
N414 C416 1.361 . S
N414 C417 1.377 . S
C415 N412 1.382 . S
C415 N413 1.371 . S
C415 C418 1.480 . S
C416 N413 1.372 . S
C416 N414 1.361 . S
C416 C424 1.457 . S
C417 N412 1.363 . S
C417 N414 1.377 . S
C417 C430 1.479 . S
C418 C415 1.480 . S
C418 C419 1.383 . S
C418 C423 1.385 . S
C419 H400 0.947 . S
C419 C418 1.383 . S
C419 C420 1.388 . S
C420 H401 0.946 . S
C420 C419 1.388 . S
C420 C421 1.384 . S
C421 C420 1.384 . S
C421 C422 1.377 . S
C422 H402 0.953 . S
C422 C421 1.377 . S
C422 C423 1.369 . S
C423 H403 0.945 . S
C423 C418 1.385 . S
C423 C422 1.369 . S
C424 C416 1.457 . S
C424 C425 1.372 . S
C424 C429 1.364 . S
C425 H404 0.952 . S
C425 C424 1.372 . S
C425 C426 1.389 . S
C426 H405 0.949 . S
C426 C425 1.389 . S
C426 C427 1.387 . S
C427 C426 1.387 . S
C427 C428 1.372 . S
C428 H406 0.950 . S
C428 C427 1.372 . S
C428 C429 1.379 . S
C429 H407 0.948 . S
C429 C424 1.364 . S
C429 C428 1.379 . S
C430 C399 1.383 . S
C430 C417 1.479 . S
C430 C431 1.398 . S
C431 C396 1.382 . S
C431 H408 0.951 . S
C431 C430 1.398 . S
C432 C433 1.384 . S
C432 H445 0.947 . S
C432 C467 1.382 . S
C433 C432 1.384 . S
C433 C434 1.378 . S
C434 C433 1.378 . S
C434 C435 1.378 . S
C434 H446 0.952 . S
C435 C434 1.378 . S
C435 H447 0.950 . S
C435 C466 1.383 . S
H436 C455 0.947 . S
H437 C456 0.946 . S
H438 C458 0.953 . S
H439 C459 0.945 . S
H440 C461 0.952 . S
H441 C462 0.949 . S
H442 C464 0.950 . S
H443 C465 0.948 . S
H444 C467 0.951 . S
H445 C432 0.947 . S
H446 C434 0.952 . S
H447 C435 0.950 . S
N448 C451 1.382 . S
N448 C453 1.363 . S
N449 C451 1.371 . S
N449 C452 1.372 . S
N450 C452 1.361 . S
N450 C453 1.377 . S
C451 N448 1.382 . S
C451 N449 1.371 . S
C451 C454 1.480 . S
C452 N449 1.372 . S
C452 N450 1.361 . S
C452 C460 1.457 . S
C453 N448 1.363 . S
C453 N450 1.377 . S
C453 C466 1.479 . S
C454 C451 1.480 . S
C454 C455 1.383 . S
C454 C459 1.385 . S
C455 H436 0.947 . S
C455 C454 1.383 . S
C455 C456 1.388 . S
C456 H437 0.946 . S
C456 C455 1.388 . S
C456 C457 1.384 . S
C457 C456 1.384 . S
C457 C458 1.377 . S
C458 H438 0.953 . S
C458 C457 1.377 . S
C458 C459 1.369 . S
C459 H439 0.945 . S
C459 C454 1.385 . S
C459 C458 1.369 . S
C460 C452 1.457 . S
C460 C461 1.372 . S
C460 C465 1.364 . S
C461 H440 0.952 . S
C461 C460 1.372 . S
C461 C462 1.389 . S
C462 H441 0.949 . S
C462 C461 1.389 . S
C462 C463 1.387 . S
C463 C462 1.387 . S
C463 C464 1.372 . S
C464 H442 0.950 . S
C464 C463 1.372 . S
C464 C465 1.379 . S
C465 H443 0.948 . S
C465 C460 1.364 . S
C465 C464 1.379 . S
C466 C435 1.383 . S
C466 C453 1.479 . S
C466 C467 1.398 . S
C467 C432 1.382 . S
C467 H444 0.951 . S
C467 C466 1.398 . S
C468 C469 1.384 . S
C468 H481 0.947 . S
C468 C503 1.382 . S
C469 C468 1.384 . S
C469 C470 1.378 . S
C470 C469 1.378 . S
C470 C471 1.378 . S
C470 H482 0.952 . S
C471 C470 1.378 . S
C471 H483 0.950 . S
C471 C502 1.383 . S
H472 C491 0.947 . S
H473 C492 0.946 . S
H474 C494 0.953 . S
H475 C495 0.945 . S
H476 C497 0.952 . S
H477 C498 0.949 . S
H478 C500 0.950 . S
H479 C501 0.948 . S
H480 C503 0.951 . S
H481 C468 0.947 . S
H482 C470 0.952 . S
H483 C471 0.950 . S
N484 C487 1.382 . S
N484 C489 1.363 . S
N485 C487 1.371 . S
N485 C488 1.372 . S
N486 C488 1.361 . S
N486 C489 1.377 . S
C487 N484 1.382 . S
C487 N485 1.371 . S
C487 C490 1.480 . S
C488 N485 1.372 . S
C488 N486 1.361 . S
C488 C496 1.457 . S
C489 N484 1.363 . S
C489 N486 1.377 . S
C489 C502 1.479 . S
C490 C487 1.480 . S
C490 C491 1.383 . S
C490 C495 1.385 . S
C491 H472 0.947 . S
C491 C490 1.383 . S
C491 C492 1.388 . S
C492 H473 0.946 . S
C492 C491 1.388 . S
C492 C493 1.384 . S
C493 C492 1.384 . S
C493 C494 1.377 . S
C494 H474 0.953 . S
C494 C493 1.377 . S
C494 C495 1.369 . S
C495 H475 0.945 . S
C495 C490 1.385 . S
C495 C494 1.369 . S
C496 C488 1.457 . S
C496 C497 1.372 . S
C496 C501 1.364 . S
C497 H476 0.952 . S
C497 C496 1.372 . S
C497 C498 1.389 . S
C498 H477 0.949 . S
C498 C497 1.389 . S
C498 C499 1.387 . S
C499 C498 1.387 . S
C499 C500 1.372 . S
C500 H478 0.950 . S
C500 C499 1.372 . S
C500 C501 1.379 . S
C501 H479 0.948 . S
C501 C496 1.364 . S
C501 C500 1.379 . S
C502 C471 1.383 . S
C502 C489 1.479 . S
C502 C503 1.398 . S
C503 C468 1.382 . S
C503 H480 0.951 . S
C503 C502 1.398 . S
C504 C505 1.384 . S
C504 H517 0.947 . S
C504 C539 1.382 . S
C505 C504 1.384 . S
C505 C506 1.378 . S
C506 C505 1.378 . S
C506 C507 1.378 . S
C506 H518 0.952 . S
C507 C506 1.378 . S
C507 H519 0.950 . S
C507 C538 1.383 . S
H508 C527 0.947 . S
H509 C528 0.946 . S
H510 C530 0.953 . S
H511 C531 0.945 . S
H512 C533 0.952 . S
H513 C534 0.949 . S
H514 C536 0.950 . S
H515 C537 0.948 . S
H516 C539 0.951 . S
H517 C504 0.947 . S
H518 C506 0.952 . S
H519 C507 0.950 . S
N520 C523 1.382 . S
N520 C525 1.363 . S
N521 C523 1.371 . S
N521 C524 1.372 . S
N522 C524 1.361 . S
N522 C525 1.377 . S
C523 N520 1.382 . S
C523 N521 1.371 . S
C523 C526 1.480 . S
C524 N521 1.372 . S
C524 N522 1.361 . S
C524 C532 1.457 . S
C525 N520 1.363 . S
C525 N522 1.377 . S
C525 C538 1.479 . S
C526 C523 1.480 . S
C526 C527 1.383 . S
C526 C531 1.385 . S
C527 H508 0.947 . S
C527 C526 1.383 . S
C527 C528 1.388 . S
C528 H509 0.946 . S
C528 C527 1.388 . S
C528 C529 1.384 . S
C529 C528 1.384 . S
C529 C530 1.377 . S
C530 H510 0.953 . S
C530 C529 1.377 . S
C530 C531 1.369 . S
C531 H511 0.945 . S
C531 C526 1.385 . S
C531 C530 1.369 . S
C532 C524 1.457 . S
C532 C533 1.372 . S
C532 C537 1.364 . S
C533 H512 0.952 . S
C533 C532 1.372 . S
C533 C534 1.389 . S
C534 H513 0.949 . S
C534 C533 1.389 . S
C534 C535 1.387 . S
C535 C534 1.387 . S
C535 C536 1.372 . S
C536 H514 0.950 . S
C536 C535 1.372 . S
C536 C537 1.379 . S
C537 H515 0.948 . S
C537 C532 1.364 . S
C537 C536 1.379 . S
C538 C507 1.383 . S
C538 C525 1.479 . S
C538 C539 1.398 . S
C539 C504 1.382 . S
C539 H516 0.951 . S
C539 C538 1.398 . S
C540 C541 1.384 . S
C540 H553 0.947 . S
C540 C575 1.382 . S
C541 C540 1.384 . S
C541 C542 1.378 . S
C542 C541 1.378 . S
C542 C543 1.378 . S
C542 H554 0.952 1_556 S
C543 C542 1.378 . S
C543 H555 0.950 . S
C543 C574 1.383 . S
H544 C563 0.947 . S
H545 C564 0.946 . S
H546 C566 0.953 . S
H547 C567 0.945 . S
H548 C569 0.952 . S
H549 C570 0.949 . S
H550 C572 0.950 . S
H551 C573 0.948 . S
H552 C575 0.951 . S
H553 C540 0.947 . S
H554 C542 0.952 1_554 S
H555 C543 0.950 . S
N556 C559 1.382 . S
N556 C561 1.363 . S
N557 C559 1.371 . S
N557 C560 1.372 . S
N558 C560 1.361 . S
N558 C561 1.377 . S
C559 N556 1.382 . S
C559 N557 1.371 . S
C559 C562 1.480 . S
C560 N557 1.372 . S
C560 N558 1.361 . S
C560 C568 1.457 . S
C561 N556 1.363 . S
C561 N558 1.377 . S
C561 C574 1.479 . S
C562 C559 1.480 . S
C562 C563 1.383 . S
C562 C567 1.385 . S
C563 H544 0.947 . S
C563 C562 1.383 . S
C563 C564 1.388 . S
C564 H545 0.946 . S
C564 C563 1.388 . S
C564 C565 1.384 . S
C565 C564 1.384 . S
C565 C566 1.377 . S
C566 H546 0.953 . S
C566 C565 1.377 . S
C566 C567 1.369 . S
C567 H547 0.945 . S
C567 C562 1.385 . S
C567 C566 1.369 . S
C568 C560 1.457 . S
C568 C569 1.372 . S
C568 C573 1.364 . S
C569 H548 0.952 . S
C569 C568 1.372 . S
C569 C570 1.389 . S
C570 H549 0.949 . S
C570 C569 1.389 . S
C570 C571 1.387 . S
C571 C570 1.387 . S
C571 C572 1.372 . S
C572 H550 0.950 . S
C572 C571 1.372 . S
C572 C573 1.379 . S
C573 H551 0.948 . S
C573 C568 1.364 . S
C573 C572 1.379 . S
C574 C543 1.383 . S
C574 C561 1.479 . S
C574 C575 1.398 . S
C575 C540 1.382 . S
C575 H552 0.951 . S
C575 C574 1.398 . S
O576 Cd577 2.223 . S
O576 C584 1.315 . S
Cd577 O576 2.223 . S
Cd577 O580 2.297 . S
Cd577 O581 2.439 . S
Cd577 O587 2.240 . S
Cd578 O579 2.240 . S
Cd578 O586 2.223 . S
Cd578 O588 2.297 . S
Cd578 O589 2.439 . S
O579 Cd578 2.240 . S
O579 C584 1.279 . S
O580 Cd577 2.297 . S
O580 C582 1.247 . S
O581 Cd577 2.439 . S
O581 C582 1.208 . S
C582 O580 1.247 . S
C582 O581 1.208 . S
C583 O588 1.247 . S
C583 O589 1.208 . S
C584 O576 1.315 . S
C584 O579 1.279 . S
C585 O586 1.315 . S
C585 O587 1.279 . S
O586 Cd578 2.223 . S
O586 C585 1.315 . S
O587 Cd577 2.240 . S
O587 C585 1.279 . S
O588 Cd578 2.297 . S
O588 C583 1.247 . S
O589 Cd578 2.439 . S
O589 C583 1.208 . S
O590 Cd591 2.223 . S
O590 C598 1.315 . S
Cd591 O590 2.223 . S
Cd591 O594 2.297 . S
Cd591 O595 2.439 . S
Cd591 O601 2.240 . S
Cd592 O593 2.240 . S
Cd592 O600 2.223 . S
Cd592 O602 2.297 . S
Cd592 O603 2.439 . S
O593 Cd592 2.240 . S
O593 C598 1.279 . S
O594 Cd591 2.297 . S
O594 C596 1.247 . S
O595 Cd591 2.439 . S
O595 C596 1.208 . S
C596 O594 1.247 . S
C596 O595 1.208 . S
C597 O602 1.247 . S
C597 O603 1.208 . S
C598 O590 1.315 . S
C598 O593 1.279 . S
C599 O600 1.315 . S
C599 O601 1.279 . S
O600 Cd592 2.223 . S
O600 C599 1.315 . S
O601 Cd591 2.240 . S
O601 C599 1.279 . S
O602 Cd592 2.297 . S
O602 C597 1.247 . S
O603 Cd592 2.439 . S
O603 C597 1.208 . S
O604 Cd605 2.223 1_556 S
O604 C612 1.315 . S
Cd605 O604 2.223 1_554 S
Cd605 O608 2.297 . S
Cd605 O609 2.439 . S
Cd605 O615 2.240 . S
Cd606 O607 2.240 . S
Cd606 O614 2.223 . S
Cd606 O616 2.297 1_556 S
Cd606 O617 2.439 1_556 S
O607 Cd606 2.240 . S
O607 C612 1.279 . S
O608 Cd605 2.297 . S
O608 C610 1.247 . S
O609 Cd605 2.439 . S
O609 C610 1.208 . S
C610 O608 1.247 . S
C610 O609 1.208 . S
C611 O616 1.247 . S
C611 O617 1.208 . S
C612 O604 1.315 . S
C612 O607 1.279 . S
C613 O614 1.315 . S
C613 O615 1.279 1_556 S
O614 Cd606 2.223 . S
O614 C613 1.315 . S
O615 Cd605 2.240 . S
O615 C613 1.279 1_554 S
O616 Cd606 2.297 1_554 S
O616 C611 1.247 . S
O617 Cd606 2.439 1_554 S
O617 C611 1.208 . S
O618 Cd619 2.223 . S
O618 C626 1.315 . S
Cd619 O618 2.223 . S
Cd619 O622 2.297 . S
Cd619 O623 2.439 . S
Cd619 O629 2.240 . S
Cd620 O621 2.240 . S
Cd620 O628 2.223 . S
Cd620 O630 2.297 . S
Cd620 O631 2.439 . S
O621 Cd620 2.240 . S
O621 C626 1.279 . S
O622 Cd619 2.297 . S
O622 C624 1.247 . S
O623 Cd619 2.439 . S
O623 C624 1.208 . S
C624 O622 1.247 . S
C624 O623 1.208 . S
C625 O630 1.247 . S
C625 O631 1.208 . S
C626 O618 1.315 . S
C626 O621 1.279 . S
C627 O628 1.315 . S
C627 O629 1.279 . S
O628 Cd620 2.223 . S
O628 C627 1.315 . S
O629 Cd619 2.240 . S
O629 C627 1.279 . S
O630 Cd620 2.297 . S
O630 C625 1.247 . S
O631 Cd620 2.439 . S
O631 C625 1.208 . S
O632 Cd633 2.223 . S
O632 C640 1.315 . S
Cd633 O632 2.223 . S
Cd633 O636 2.297 . S
Cd633 O637 2.439 . S
Cd633 O643 2.240 . S
Cd634 O635 2.240 . S
Cd634 O642 2.223 . S
Cd634 O644 2.297 . S
Cd634 O645 2.439 . S
O635 Cd634 2.240 . S
O635 C640 1.279 . S
O636 Cd633 2.297 . S
O636 C638 1.247 . S
O637 Cd633 2.439 . S
O637 C638 1.208 . S
C638 O636 1.247 . S
C638 O637 1.208 . S
C639 O644 1.247 . S
C639 O645 1.208 . S
C640 O632 1.315 . S
C640 O635 1.279 . S
C641 O642 1.315 . S
C641 O643 1.279 . S
O642 Cd634 2.223 . S
O642 C641 1.315 . S
O643 Cd633 2.240 . S
O643 C641 1.279 . S
O644 Cd634 2.297 . S
O644 C639 1.247 . S
O645 Cd634 2.439 . S
O645 C639 1.208 . S
O646 Cd647 2.223 . S
O646 C654 1.315 . S
Cd647 O646 2.223 . S
Cd647 O650 2.297 . S
Cd647 O651 2.439 . S
Cd647 O657 2.240 . S
Cd648 O649 2.240 . S
Cd648 O656 2.223 . S
Cd648 O658 2.297 . S
Cd648 O659 2.439 . S
O649 Cd648 2.240 . S
O649 C654 1.279 . S
O650 Cd647 2.297 . S
O650 C652 1.247 . S
O651 Cd647 2.439 . S
O651 C652 1.208 . S
C652 O650 1.247 . S
C652 O651 1.208 . S
C653 O658 1.247 . S
C653 O659 1.208 . S
C654 O646 1.315 . S
C654 O649 1.279 . S
C655 O656 1.315 . S
C655 O657 1.279 . S
O656 Cd648 2.223 . S
O656 C655 1.315 . S
O657 Cd647 2.240 . S
O657 C655 1.279 . S
O658 Cd648 2.297 . S
O658 C653 1.247 . S
O659 Cd648 2.439 . S
O659 C653 1.208 . S
O660 Cd661 2.223 . S
O660 C668 1.315 . S
Cd661 O660 2.223 . S
Cd661 O664 2.297 . S
Cd661 O665 2.439 . S
Cd661 O671 2.240 . S
Cd662 O663 2.240 . S
Cd662 O670 2.223 . S
Cd662 O672 2.297 . S
Cd662 O673 2.439 . S
O663 Cd662 2.240 . S
O663 C668 1.279 . S
O664 Cd661 2.297 . S
O664 C666 1.247 . S
O665 Cd661 2.439 . S
O665 C666 1.208 . S
C666 O664 1.247 . S
C666 O665 1.208 . S
C667 O672 1.247 . S
C667 O673 1.208 . S
C668 O660 1.315 . S
C668 O663 1.279 . S
C669 O670 1.315 . S
C669 O671 1.279 . S
O670 Cd662 2.223 . S
O670 C669 1.315 . S
O671 Cd661 2.240 . S
O671 C669 1.279 . S
O672 Cd662 2.297 . S
O672 C667 1.247 . S
O673 Cd662 2.439 . S
O673 C667 1.208 . S
O674 Cd675 2.223 1_545 S
O674 C682 1.315 . S
Cd675 O674 2.223 1_565 S
Cd675 O678 2.297 . S
Cd675 O679 2.439 . S
Cd675 O685 2.240 1_565 S
Cd676 O677 2.240 . S
Cd676 O684 2.223 . S
Cd676 O686 2.297 . S
Cd676 O687 2.439 1_545 S
O677 Cd676 2.240 . S
O677 C682 1.279 . S
O678 Cd675 2.297 . S
O678 C680 1.247 . S
O679 Cd675 2.439 . S
O679 C680 1.208 . S
C680 O678 1.247 . S
C680 O679 1.208 . S
C681 O686 1.247 1_565 S
C681 O687 1.208 . S
C682 O674 1.315 . S
C682 O677 1.279 . S
C683 O684 1.315 . S
C683 O685 1.279 . S
O684 Cd676 2.223 . S
O684 C683 1.315 . S
O685 Cd675 2.240 1_545 S
O685 C683 1.279 . S
O686 Cd676 2.297 . S
O686 C681 1.247 1_545 S
O687 Cd676 2.439 1_565 S
O687 C681 1.208 . S
O688 Cd689 2.223 . S
O688 C696 1.315 . S
Cd689 O688 2.223 . S
Cd689 O692 2.297 1_655 S
Cd689 O693 2.439 1_655 S
Cd689 O699 2.240 . S
Cd690 O691 2.240 . S
Cd690 O698 2.223 1_455 S
Cd690 O700 2.297 . S
Cd690 O701 2.439 . S
O691 Cd690 2.240 . S
O691 C696 1.279 1_455 S
O692 Cd689 2.297 1_455 S
O692 C694 1.247 . S
O693 Cd689 2.439 1_455 S
O693 C694 1.208 . S
C694 O692 1.247 . S
C694 O693 1.208 . S
C695 O700 1.247 . S
C695 O701 1.208 . S
C696 O688 1.315 . S
C696 O691 1.279 1_655 S
C697 O698 1.315 . S
C697 O699 1.279 . S
O698 Cd690 2.223 1_655 S
O698 C697 1.315 . S
O699 Cd689 2.240 . S
O699 C697 1.279 . S
O700 Cd690 2.297 . S
O700 C695 1.247 . S
O701 Cd690 2.439 . S
O701 C695 1.208 . S
O702 Cd703 2.223 . S
O702 C710 1.315 . S
Cd703 O702 2.223 . S
Cd703 O706 2.297 . S
Cd703 O707 2.439 . S
Cd703 O713 2.240 . S
Cd704 O705 2.240 . S
Cd704 O712 2.223 . S
Cd704 O714 2.297 . S
Cd704 O715 2.439 . S
O705 Cd704 2.240 . S
O705 C710 1.279 . S
O706 Cd703 2.297 . S
O706 C708 1.247 . S
O707 Cd703 2.439 . S
O707 C708 1.208 . S
C708 O706 1.247 . S
C708 O707 1.208 . S
C709 O714 1.247 . S
C709 O715 1.208 . S
C710 O702 1.315 . S
C710 O705 1.279 . S
C711 O712 1.315 . S
C711 O713 1.279 . S
O712 Cd704 2.223 . S
O712 C711 1.315 . S
O713 Cd703 2.240 . S
O713 C711 1.279 . S
O714 Cd704 2.297 . S
O714 C709 1.247 . S
O715 Cd704 2.439 . S
O715 C709 1.208 . S
O716 Cd717 2.223 1_655 S
O716 C724 1.315 . S
Cd717 O716 2.223 1_455 S
Cd717 O720 2.297 . S
Cd717 O721 2.439 . S
Cd717 O727 2.240 . S
Cd718 O719 2.240 . S
Cd718 O726 2.223 . S
Cd718 O728 2.297 1_655 S
Cd718 O729 2.439 1_655 S
O719 Cd718 2.240 . S
O719 C724 1.279 . S
O720 Cd717 2.297 . S
O720 C722 1.247 . S
O721 Cd717 2.439 . S
O721 C722 1.208 . S
C722 O720 1.247 . S
C722 O721 1.208 . S
C723 O728 1.247 . S
C723 O729 1.208 . S
C724 O716 1.315 . S
C724 O719 1.279 . S
C725 O726 1.315 . S
C725 O727 1.279 1_655 S
O726 Cd718 2.223 . S
O726 C725 1.315 . S
O727 Cd717 2.240 . S
O727 C725 1.279 1_455 S
O728 Cd718 2.297 1_455 S
O728 C723 1.247 . S
O729 Cd718 2.439 1_455 S
O729 C723 1.208 . S
O730 Cd731 2.223 . S
O730 C738 1.315 . S
Cd731 O730 2.223 . S
Cd731 O734 2.297 . S
Cd731 O735 2.439 . S
Cd731 O741 2.240 . S
Cd732 O733 2.240 . S
Cd732 O740 2.223 . S
Cd732 O742 2.297 . S
Cd732 O743 2.439 . S
O733 Cd732 2.240 . S
O733 C738 1.279 . S
O734 Cd731 2.297 . S
O734 C736 1.247 . S
O735 Cd731 2.439 . S
O735 C736 1.208 . S
C736 O734 1.247 . S
C736 O735 1.208 . S
C737 O742 1.247 . S
C737 O743 1.208 . S
C738 O730 1.315 . S
C738 O733 1.279 . S
C739 O740 1.315 . S
C739 O741 1.279 . S
O740 Cd732 2.223 . S
O740 C739 1.315 . S
O741 Cd731 2.240 . S
O741 C739 1.279 . S
O742 Cd732 2.297 . S
O742 C737 1.247 . S
O743 Cd732 2.439 . S
O743 C737 1.208 . S
H744 C752 0.950 . S
H745 C757 0.950 . S
H746 C754 0.950 . S
H747 C756 0.950 . S
H748 C758 0.920 1_554 S
H749 C760 0.950 . S
H750 C762 0.950 . S
H751 C763 0.950 . S
C752 H744 0.950 . S
C752 C753 1.386 . S
C752 C754 1.391 . S
C753 C752 1.386 . S
C753 C757 1.393 . S
C754 H746 0.950 . S
C754 C752 1.391 . S
C754 C755 1.400 . S
C755 C754 1.400 . S
C755 C756 1.398 . S
C755 C761 1.491 . S
C756 H747 0.950 . S
C756 C755 1.398 . S
C756 C757 1.391 . S
C757 H745 0.950 . S
C757 C753 1.393 . S
C757 C756 1.391 . S
C758 H748 0.920 1_556 S
C758 C759 1.386 . S
C758 C760 1.391 . S
C759 C758 1.386 . S
C759 C763 1.393 . S
C760 H749 0.950 . S
C760 C758 1.391 . S
C760 C761 1.400 . S
C761 C755 1.491 . S
C761 C760 1.400 . S
C761 C762 1.398 . S
C762 H750 0.950 . S
C762 C761 1.398 . S
C762 C763 1.391 . S
C763 H751 0.950 . S
C763 C759 1.393 . S
C763 C762 1.391 . S
H764 C772 0.950 . S
H765 C777 0.950 . S
H766 C774 0.950 . S
H767 C776 0.950 . S
H768 C778 0.950 . S
H769 C780 0.950 . S
H770 C782 0.950 . S
H771 C783 0.950 . S
C772 H764 0.950 . S
C772 C773 1.386 . S
C772 C774 1.391 1_655 S
C773 C772 1.386 . S
C773 C777 1.393 . S
C774 H766 0.950 . S
C774 C772 1.391 1_455 S
C774 C775 1.400 . S
C775 C774 1.400 . S
C775 C776 1.398 . S
C775 C781 1.491 . S
C776 H767 0.950 . S
C776 C775 1.398 . S
C776 C777 1.391 1_455 S
C777 H765 0.950 . S
C777 C773 1.393 . S
C777 C776 1.391 1_655 S
C778 H768 0.950 . S
C778 C779 1.386 . S
C778 C780 1.391 . S
C779 C778 1.386 . S
C779 C783 1.393 . S
C780 H769 0.950 . S
C780 C778 1.391 . S
C780 C781 1.400 . S
C781 C775 1.491 . S
C781 C780 1.400 . S
C781 C782 1.398 . S
C782 H770 0.950 . S
C782 C781 1.398 . S
C782 C783 1.391 . S
C783 H771 0.950 . S
C783 C779 1.393 . S
C783 C782 1.391 . S
H784 C792 0.950 . S
H785 C797 0.950 . S
H786 C794 0.950 . S
H787 C796 0.950 . S
H788 C798 0.950 . S
H789 C800 0.950 . S
H790 C802 0.950 . S
H791 C803 0.950 . S
C792 H784 0.950 . S
C792 C793 1.386 . S
C792 C794 1.391 . S
C793 C792 1.386 . S
C793 C797 1.393 . S
C794 H786 0.950 . S
C794 C792 1.391 . S
C794 C795 1.400 . S
C795 C794 1.400 . S
C795 C796 1.398 . S
C795 C801 1.491 . S
C796 H787 0.950 . S
C796 C795 1.398 . S
C796 C797 1.391 . S
C797 H785 0.950 . S
C797 C793 1.393 . S
C797 C796 1.391 . S
C798 H788 0.950 . S
C798 C799 1.386 . S
C798 C800 1.391 . S
C799 C798 1.386 . S
C799 C803 1.393 . S
C800 H789 0.950 . S
C800 C798 1.391 . S
C800 C801 1.400 . S
C801 C795 1.491 . S
C801 C800 1.400 . S
C801 C802 1.398 . S
C802 H790 0.950 . S
C802 C801 1.398 . S
C802 C803 1.391 . S
C803 H791 0.950 . S
C803 C799 1.393 . S
C803 C802 1.391 . S
H804 C812 0.950 . S
H805 C817 0.945 1_455 S
H806 C814 0.950 . S
H807 C816 0.950 1_545 S
H808 C818 0.950 . S
H809 C820 0.950 . S
H810 C822 0.950 1_565 S
H811 C823 0.950 . S
C812 H804 0.950 . S
C812 C813 1.386 . S
C812 C814 1.391 1_455 S
C813 C812 1.386 . S
C813 C817 1.393 1_455 S
C814 H806 0.950 . S
C814 C812 1.391 1_655 S
C814 C815 1.400 . S
C815 C814 1.400 . S
C815 C816 1.398 . S
C815 C821 1.491 1_565 S
C816 H807 0.950 1_565 S
C816 C815 1.398 . S
C816 C817 1.391 . S
C817 H805 0.945 1_655 S
C817 C813 1.393 1_655 S
C817 C816 1.391 . S
C818 H808 0.950 . S
C818 C819 1.386 . S
C818 C820 1.391 . S
C819 C818 1.386 . S
C819 C823 1.393 . S
C820 H809 0.950 . S
C820 C818 1.391 . S
C820 C821 1.400 . S
C821 C815 1.491 1_545 S
C821 C820 1.400 . S
C821 C822 1.398 . S
C822 H810 0.950 1_545 S
C822 C821 1.398 . S
C822 C823 1.391 . S
C823 H811 0.950 . S
C823 C819 1.393 . S
C823 C822 1.391 . S
H824 C832 0.950 . S
H825 C837 0.950 . S
H826 C834 0.950 . S
H827 C836 0.950 . S
H828 C838 0.950 . S
H829 C840 0.950 . S
H830 C842 0.950 . S
H831 C843 0.950 . S
C832 H824 0.950 . S
C832 C833 1.386 . S
C832 C834 1.391 . S
C833 C832 1.386 . S
C833 C837 1.393 . S
C834 H826 0.950 . S
C834 C832 1.391 . S
C834 C835 1.400 . S
C835 C834 1.400 . S
C835 C836 1.398 . S
C835 C841 1.491 . S
C836 H827 0.950 . S
C836 C835 1.398 . S
C836 C837 1.391 . S
C837 H825 0.950 . S
C837 C833 1.393 . S
C837 C836 1.391 . S
C838 H828 0.950 . S
C838 C839 1.386 . S
C838 C840 1.391 . S
C839 C838 1.386 . S
C839 C843 1.393 . S
C840 H829 0.950 . S
C840 C838 1.391 . S
C840 C841 1.400 . S
C841 C835 1.491 . S
C841 C840 1.400 . S
C841 C842 1.398 . S
C842 H830 0.950 . S
C842 C841 1.398 . S
C842 C843 1.391 . S
C843 H831 0.950 . S
C843 C839 1.393 . S
C843 C842 1.391 . S
H844 C852 0.950 . S
H845 C857 0.950 . S
H846 C854 0.950 . S
H847 C856 0.950 . S
H848 C858 0.950 . S
H849 C860 0.950 . S
H850 C862 0.950 . S
H851 C863 0.950 . S
C852 H844 0.950 . S
C852 C853 1.386 . S
C852 C854 1.391 . S
C853 C852 1.386 . S
C853 C857 1.393 . S
C854 H846 0.950 . S
C854 C852 1.391 . S
C854 C855 1.400 . S
C855 C854 1.400 . S
C855 C856 1.398 . S
C855 C861 1.491 . S
C856 H847 0.950 . S
C856 C855 1.398 . S
C856 C857 1.391 . S
C857 H845 0.950 . S
C857 C853 1.393 . S
C857 C856 1.391 . S
C858 H848 0.950 . S
C858 C859 1.386 . S
C858 C860 1.391 . S
C859 C858 1.386 . S
C859 C863 1.393 . S
C860 H849 0.950 . S
C860 C858 1.391 . S
C860 C861 1.400 . S
C861 C855 1.491 . S
C861 C860 1.400 . S
C861 C862 1.398 . S
C862 H850 0.950 . S
C862 C861 1.398 . S
C862 C863 1.391 . S
C863 H851 0.950 . S
C863 C859 1.393 . S
C863 C862 1.391 . S
H864 C872 0.950 . S
H865 C877 0.950 . S
H866 C874 0.950 . S
H867 C876 0.950 . S
H868 C878 0.950 . S
H869 C880 0.950 . S
H870 C882 0.950 . S
H871 C883 0.950 . S
C872 H864 0.950 . S
C872 C873 1.386 . S
C872 C874 1.391 . S
C873 C872 1.386 . S
C873 C877 1.393 . S
C874 H866 0.950 . S
C874 C872 1.391 . S
C874 C875 1.400 . S
C875 C874 1.400 . S
C875 C876 1.398 . S
C875 C881 1.491 . S
C876 H867 0.950 . S
C876 C875 1.398 . S
C876 C877 1.391 . S
C877 H865 0.950 . S
C877 C873 1.393 . S
C877 C876 1.391 . S
C878 H868 0.950 . S
C878 C879 1.386 . S
C878 C880 1.391 . S
C879 C878 1.386 . S
C879 C883 1.393 . S
C880 H869 0.950 . S
C880 C878 1.391 . S
C880 C881 1.400 . S
C881 C875 1.491 . S
C881 C880 1.400 . S
C881 C882 1.398 . S
C882 H870 0.950 . S
C882 C881 1.398 . S
C882 C883 1.391 . S
C883 H871 0.950 . S
C883 C879 1.393 . S
C883 C882 1.391 . S
H884 C892 0.950 . S
H885 C897 0.950 . S
H886 C894 0.950 . S
H887 C896 0.950 . S
H888 C898 0.950 . S
H889 C900 0.950 . S
H890 C902 0.950 . S
H891 C903 0.950 . S
C892 H884 0.950 . S
C892 C893 1.386 . S
C892 C894 1.391 . S
C893 C892 1.386 . S
C893 C897 1.393 . S
C894 H886 0.950 . S
C894 C892 1.391 . S
C894 C895 1.400 . S
C895 C894 1.400 . S
C895 C896 1.398 . S
C895 C901 1.491 . S
C896 H887 0.950 . S
C896 C895 1.398 . S
C896 C897 1.391 . S
C897 H885 0.950 . S
C897 C893 1.393 . S
C897 C896 1.391 . S
C898 H888 0.950 . S
C898 C899 1.386 . S
C898 C900 1.391 . S
C899 C898 1.386 . S
C899 C903 1.393 . S
C900 H889 0.950 . S
C900 C898 1.391 . S
C900 C901 1.400 . S
C901 C895 1.491 . S
C901 C900 1.400 . S
C901 C902 1.398 . S
C902 H890 0.950 . S
C902 C901 1.398 . S
C902 C903 1.391 . S
C903 H891 0.950 . S
C903 C899 1.393 . S
C903 C902 1.391 . S
H904 C912 0.950 . S
H905 C917 0.950 . S
H906 C914 0.950 . S
H907 C916 0.950 . S
H908 C918 0.950 . S
H909 C920 0.950 . S
H910 C922 0.950 . S
H911 C923 0.950 . S
C912 H904 0.950 . S
C912 C913 1.386 . S
C912 C914 1.391 . S
C913 C912 1.386 . S
C913 C917 1.393 . S
C914 H906 0.950 . S
C914 C912 1.391 . S
C914 C915 1.400 . S
C915 C914 1.400 . S
C915 C916 1.398 . S
C915 C921 1.491 . S
C916 H907 0.950 . S
C916 C915 1.398 . S
C916 C917 1.391 . S
C917 H905 0.950 . S
C917 C913 1.393 . S
C917 C916 1.391 . S
C918 H908 0.950 . S
C918 C919 1.386 . S
C918 C920 1.391 . S
C919 C918 1.386 . S
C919 C923 1.393 . S
C920 H909 0.950 . S
C920 C918 1.391 . S
C920 C921 1.400 . S
C921 C915 1.491 . S
C921 C920 1.400 . S
C921 C922 1.398 . S
C922 H910 0.950 . S
C922 C921 1.398 . S
C922 C923 1.391 . S
C923 H911 0.950 . S
C923 C919 1.393 . S
C923 C922 1.391 . S
H924 C932 0.950 . S
H925 C937 0.950 . S
H926 C934 0.950 . S
H927 C936 0.950 . S
H928 C938 0.950 . S
H929 C940 0.950 . S
H930 C942 0.950 . S
H931 C943 0.950 . S
C932 H924 0.950 . S
C932 C933 1.386 . S
C932 C934 1.391 . S
C933 C932 1.386 . S
C933 C937 1.393 . S
C934 H926 0.950 . S
C934 C932 1.391 . S
C934 C935 1.400 . S
C935 C934 1.400 . S
C935 C936 1.398 . S
C935 C941 1.491 . S
C936 H927 0.950 . S
C936 C935 1.398 . S
C936 C937 1.391 . S
C937 H925 0.950 . S
C937 C933 1.393 . S
C937 C936 1.391 . S
C938 H928 0.950 . S
C938 C939 1.386 . S
C938 C940 1.391 . S
C939 C938 1.386 . S
C939 C943 1.393 . S
C940 H929 0.950 . S
C940 C938 1.391 . S
C940 C941 1.400 . S
C941 C935 1.491 . S
C941 C940 1.400 . S
C941 C942 1.398 . S
C942 H930 0.950 . S
C942 C941 1.398 . S
C942 C943 1.391 . S
C943 H931 0.950 . S
C943 C939 1.393 . S
C943 C942 1.391 . S
H944 C952 0.950 . S
H945 C957 0.950 . S
H946 C954 0.950 . S
H947 C956 0.950 . S
H948 C958 0.950 . S
H949 C960 0.950 . S
H950 C962 0.950 . S
H951 C963 0.950 . S
C952 H944 0.950 . S
C952 C953 1.386 . S
C952 C954 1.391 . S
C953 C952 1.386 . S
C953 C957 1.393 . S
C954 H946 0.950 . S
C954 C952 1.391 . S
C954 C955 1.400 . S
C955 C954 1.400 . S
C955 C956 1.398 . S
C955 C961 1.491 . S
C956 H947 0.950 . S
C956 C955 1.398 . S
C956 C957 1.391 . S
C957 H945 0.950 . S
C957 C953 1.393 . S
C957 C956 1.391 . S
C958 H948 0.950 . S
C958 C959 1.386 . S
C958 C960 1.391 . S
C959 C958 1.386 . S
C959 C963 1.393 . S
C960 H949 0.950 . S
C960 C958 1.391 . S
C960 C961 1.400 . S
C961 C955 1.491 . S
C961 C960 1.400 . S
C961 C962 1.398 . S
C962 H950 0.950 . S
C962 C961 1.398 . S
C962 C963 1.391 . S
C963 H951 0.950 . S
C963 C959 1.393 . S
C963 C962 1.391 . S
H964 C972 0.950 . S
H965 C977 0.950 . S
H966 C974 0.950 . S
H967 C976 0.950 . S
H968 C978 0.950 . S
H969 C980 0.950 . S
H970 C982 0.950 . S
H971 C983 0.950 . S
C972 H964 0.950 . S
C972 C973 1.386 . S
C972 C974 1.391 . S
C973 C972 1.386 . S
C973 C977 1.393 . S
C974 H966 0.950 . S
C974 C972 1.391 . S
C974 C975 1.400 . S
C975 C974 1.400 . S
C975 C976 1.398 . S
C975 C981 1.491 . S
C976 H967 0.950 . S
C976 C975 1.398 . S
C976 C977 1.391 . S
C977 H965 0.950 . S
C977 C973 1.393 . S
C977 C976 1.391 . S
C978 H968 0.950 . S
C978 C979 1.386 . S
C978 C980 1.391 . S
C979 C978 1.386 . S
C979 C983 1.393 . S
C980 H969 0.950 . S
C980 C978 1.391 . S
C980 C981 1.400 . S
C981 C975 1.491 . S
C981 C980 1.400 . S
C981 C982 1.398 . S
C982 H970 0.950 . S
C982 C981 1.398 . S
C982 C983 1.391 . S
C983 H971 0.950 . S
C983 C979 1.393 . S
C983 C982 1.391 . S
H984 C992 0.950 . S
H985 C997 0.950 . S
H986 C994 0.950 . S
H987 C996 0.950 . S
H988 C998 0.950 . S
H989 C1000 0.950 . S
H990 C1002 0.950 . S
H991 C1003 0.950 . S
C992 H984 0.950 . S
C992 C993 1.386 . S
C992 C994 1.391 . S
C993 C992 1.386 . S
C993 C997 1.393 . S
C994 H986 0.950 . S
C994 C992 1.391 . S
C994 C995 1.400 . S
C995 C994 1.400 . S
C995 C996 1.398 . S
C995 C1001 1.491 . S
C996 H987 0.950 . S
C996 C995 1.398 . S
C996 C997 1.391 . S
C997 H985 0.950 . S
C997 C993 1.393 . S
C997 C996 1.391 . S
C998 H988 0.950 . S
C998 C999 1.386 . S
C998 C1000 1.391 . S
C999 C998 1.386 . S
C999 C1003 1.393 . S
C1000 H989 0.950 . S
C1000 C998 1.391 . S
C1000 C1001 1.400 . S
C1001 C995 1.491 . S
C1001 C1000 1.400 . S
C1001 C1002 1.398 . S
C1002 H990 0.950 . S
C1002 C1001 1.398 . S
C1002 C1003 1.391 . S
C1003 H991 0.950 . S
C1003 C999 1.393 . S
C1003 C1002 1.391 . S
H1004 C1012 0.950 . S
H1005 C1017 0.950 . S
H1006 C1014 0.950 . S
H1007 C1016 0.950 . S
H1008 C1018 0.950 . S
H1009 C1020 0.950 . S
H1010 C1022 0.950 . S
H1011 C1023 0.950 . S
C1012 H1004 0.950 . S
C1012 C1013 1.386 . S
C1012 C1014 1.391 . S
C1013 C1012 1.386 . S
C1013 C1017 1.393 . S
C1014 H1006 0.950 . S
C1014 C1012 1.391 . S
C1014 C1015 1.400 . S
C1015 C1014 1.400 . S
C1015 C1016 1.398 . S
C1015 C1021 1.491 . S
C1016 H1007 0.950 . S
C1016 C1015 1.398 . S
C1016 C1017 1.391 . S
C1017 H1005 0.950 . S
C1017 C1013 1.393 . S
C1017 C1016 1.391 . S
C1018 H1008 0.950 . S
C1018 C1019 1.386 . S
C1018 C1020 1.391 . S
C1019 C1018 1.386 . S
C1019 C1023 1.393 . S
C1020 H1009 0.950 . S
C1020 C1018 1.391 . S
C1020 C1021 1.400 . S
C1021 C1015 1.491 . S
C1021 C1020 1.400 . S
C1021 C1022 1.398 . S
C1022 H1010 0.950 . S
C1022 C1021 1.398 . S
C1022 C1023 1.391 . S
C1023 H1011 0.950 . S
C1023 C1019 1.393 . S
C1023 C1022 1.391 . S
H1024 C1032 0.950 . S
H1025 C1037 0.950 . S
H1026 C1034 0.950 . S
H1027 C1036 0.950 . S
H1028 C1038 0.950 . S
H1029 C1040 0.950 . S
H1030 C1042 0.950 . S
H1031 C1043 0.950 . S
C1032 H1024 0.950 . S
C1032 C1033 1.386 . S
C1032 C1034 1.391 . S
C1033 C1032 1.386 . S
C1033 C1037 1.393 . S
C1034 H1026 0.950 . S
C1034 C1032 1.391 . S
C1034 C1035 1.400 . S
C1035 C1034 1.400 . S
C1035 C1036 1.398 . S
C1035 C1041 1.491 . S
C1036 H1027 0.950 . S
C1036 C1035 1.398 . S
C1036 C1037 1.391 . S
C1037 H1025 0.950 . S
C1037 C1033 1.393 . S
C1037 C1036 1.391 . S
C1038 H1028 0.950 . S
C1038 C1039 1.386 . S
C1038 C1040 1.391 . S
C1039 C1038 1.386 . S
C1039 C1043 1.393 . S
C1040 H1029 0.950 . S
C1040 C1038 1.391 . S
C1040 C1041 1.400 . S
C1041 C1035 1.491 . S
C1041 C1040 1.400 . S
C1041 C1042 1.398 . S
C1042 H1030 0.950 . S
C1042 C1041 1.398 . S
C1042 C1043 1.391 . S
C1043 H1031 0.950 . S
C1043 C1039 1.393 . S
C1043 C1042 1.391 . S
H1044 C1052 0.950 . S
H1045 C1057 0.950 . S
H1046 C1054 0.950 . S
H1047 C1056 0.950 . S
H1048 C1058 0.950 . S
H1049 C1060 0.950 . S
H1050 C1062 0.950 . S
H1051 C1063 0.950 . S
C1052 H1044 0.950 . S
C1052 C1053 1.386 . S
C1052 C1054 1.391 . S
C1053 C1052 1.386 . S
C1053 C1057 1.393 . S
C1054 H1046 0.950 . S
C1054 C1052 1.391 . S
C1054 C1055 1.400 . S
C1055 C1054 1.400 . S
C1055 C1056 1.398 . S
C1055 C1061 1.491 . S
C1056 H1047 0.950 . S
C1056 C1055 1.398 . S
C1056 C1057 1.391 . S
C1057 H1045 0.950 . S
C1057 C1053 1.393 . S
C1057 C1056 1.391 . S
C1058 H1048 0.950 . S
C1058 C1059 1.386 . S
C1058 C1060 1.391 . S
C1059 C1058 1.386 . S
C1059 C1063 1.393 . S
C1060 H1049 0.950 . S
C1060 C1058 1.391 . S
C1060 C1061 1.400 . S
C1061 C1055 1.491 . S
C1061 C1060 1.400 . S
C1061 C1062 1.398 . S
C1062 H1050 0.950 . S
C1062 C1061 1.398 . S
C1062 C1063 1.391 . S
C1063 H1051 0.950 . S
C1063 C1059 1.393 . S
C1063 C1062 1.391 . S
H1064 C1072 0.950 . S
H1065 C1077 0.950 . S
H1066 C1074 0.950 . S
H1067 C1076 0.950 . S
H1068 C1078 0.950 . S
H1069 C1080 0.950 . S
H1070 C1082 0.950 . S
H1071 C1083 0.950 . S
C1072 H1064 0.950 . S
C1072 C1073 1.386 . S
C1072 C1074 1.391 . S
C1073 C1072 1.386 . S
C1073 C1077 1.393 . S
C1074 H1066 0.950 . S
C1074 C1072 1.391 . S
C1074 C1075 1.400 . S
C1075 C1074 1.400 . S
C1075 C1076 1.398 . S
C1075 C1081 1.491 . S
C1076 H1067 0.950 . S
C1076 C1075 1.398 . S
C1076 C1077 1.391 . S
C1077 H1065 0.950 . S
C1077 C1073 1.393 . S
C1077 C1076 1.391 . S
C1078 H1068 0.950 . S
C1078 C1079 1.386 1_565 S
C1078 C1080 1.391 . S
C1079 C1078 1.386 1_545 S
C1079 C1083 1.393 . S
C1080 H1069 0.950 . S
C1080 C1078 1.391 . S
C1080 C1081 1.400 . S
C1081 C1075 1.491 . S
C1081 C1080 1.400 . S
C1081 C1082 1.398 . S
C1082 H1070 0.950 . S
C1082 C1081 1.398 . S
C1082 C1083 1.391 1_565 S
C1083 H1071 0.950 . S
C1083 C1079 1.393 . S
C1083 C1082 1.391 1_545 S
H1084 C1092 0.950 . S
H1085 C1097 0.950 . S
H1086 C1094 0.950 . S
H1087 C1096 0.950 . S
H1088 C1098 0.950 . S
H1089 C1100 0.950 . S
H1090 C1102 0.950 . S
H1091 C1103 0.950 . S
C1092 H1084 0.950 . S
C1092 C1093 1.386 . S
C1092 C1094 1.391 . S
C1093 C1092 1.386 . S
C1093 C1097 1.393 . S
C1094 H1086 0.950 . S
C1094 C1092 1.391 . S
C1094 C1095 1.400 . S
C1095 C1094 1.400 . S
C1095 C1096 1.398 . S
C1095 C1101 1.491 . S
C1096 H1087 0.950 . S
C1096 C1095 1.398 . S
C1096 C1097 1.391 . S
C1097 H1085 0.950 . S
C1097 C1093 1.393 . S
C1097 C1096 1.391 . S
C1098 H1088 0.950 . S
C1098 C1099 1.386 . S
C1098 C1100 1.391 . S
C1099 C1098 1.386 . S
C1099 C1103 1.393 . S
C1100 H1089 0.950 . S
C1100 C1098 1.391 . S
C1100 C1101 1.400 . S
C1101 C1095 1.491 . S
C1101 C1100 1.400 . S
C1101 C1102 1.398 . S
C1102 H1090 0.950 . S
C1102 C1101 1.398 . S
C1102 C1103 1.391 . S
C1103 H1091 0.950 . S
C1103 C1099 1.393 . S
C1103 C1102 1.391 . S
H1104 C1112 0.950 . S
H1105 C1117 0.950 . S
H1106 C1114 0.950 . S
H1107 C1116 0.950 1_565 S
H1108 C1118 0.950 . S
H1109 C1120 0.950 . S
H1110 C1122 0.950 . S
H1111 C1123 0.950 . S
C1112 H1104 0.950 . S
C1112 C1113 1.386 . S
C1112 C1114 1.391 . S
C1113 C1112 1.386 . S
C1113 C1117 1.393 . S
C1114 H1106 0.950 . S
C1114 C1112 1.391 . S
C1114 C1115 1.402 . S
C1115 C1114 1.402 . S
C1115 C1116 1.398 . S
C1115 C1121 1.489 1_545 S
C1116 H1107 0.950 1_545 S
C1116 C1115 1.398 . S
C1116 C1117 1.391 . S
C1117 H1105 0.950 . S
C1117 C1113 1.393 . S
C1117 C1116 1.391 . S
C1118 H1108 0.950 . S
C1118 C1119 1.386 . S
C1118 C1120 1.391 . S
C1119 C1118 1.386 . S
C1119 C1123 1.393 . S
C1120 H1109 0.950 . S
C1120 C1118 1.391 . S
C1120 C1121 1.400 1_554 S
C1121 C1115 1.489 1_565 S
C1121 C1120 1.400 1_556 S
C1121 C1122 1.398 . S
C1122 H1110 0.950 . S
C1122 C1121 1.398 . S
C1122 C1123 1.391 1_556 S
C1123 H1111 0.950 . S
C1123 C1119 1.393 . S
C1123 C1122 1.391 1_554 S
H1124 C1132 0.950 . S
H1125 C1137 0.950 . S
H1126 C1134 0.950 . S
H1127 C1136 0.950 . S
H1128 C1138 0.950 . S
H1129 C1140 0.950 . S
H1130 C1142 0.950 . S
H1131 C1143 0.950 . S
C1132 H1124 0.950 . S
C1132 C1133 1.386 . S
C1132 C1134 1.391 . S
C1133 C1132 1.386 . S
C1133 C1137 1.393 . S
C1134 H1126 0.950 . S
C1134 C1132 1.391 . S
C1134 C1135 1.400 . S
C1135 C1134 1.400 . S
C1135 C1136 1.398 . S
C1135 C1141 1.491 . S
C1136 H1127 0.950 . S
C1136 C1135 1.398 . S
C1136 C1137 1.391 . S
C1137 H1125 0.950 . S
C1137 C1133 1.393 . S
C1137 C1136 1.391 . S
C1138 H1128 0.950 . S
C1138 C1139 1.386 . S
C1138 C1140 1.391 . S
C1139 C1138 1.386 . S
C1139 C1143 1.393 . S
C1140 H1129 0.950 . S
C1140 C1138 1.391 . S
C1140 C1141 1.400 . S
C1141 C1135 1.491 . S
C1141 C1140 1.400 . S
C1141 C1142 1.398 . S
C1142 H1130 0.950 . S
C1142 C1141 1.398 . S
C1142 C1143 1.391 . S
C1143 H1131 0.950 . S
C1143 C1139 1.393 . S
C1143 C1142 1.391 . S
H1144 C1152 0.950 . S
H1145 C1157 0.950 . S
H1146 C1154 0.950 . S
H1147 C1156 0.950 . S
H1148 C1158 0.950 . S
H1149 C1160 0.950 . S
H1150 C1162 0.950 . S
H1151 C1163 0.950 . S
C1152 H1144 0.950 . S
C1152 C1153 1.386 . S
C1152 C1154 1.391 . S
C1153 C1152 1.386 . S
C1153 C1157 1.393 . S
C1154 H1146 0.950 . S
C1154 C1152 1.391 . S
C1154 C1155 1.400 . S
C1155 C1154 1.400 . S
C1155 C1156 1.398 . S
C1155 C1161 1.491 . S
C1156 H1147 0.950 . S
C1156 C1155 1.398 . S
C1156 C1157 1.391 . S
C1157 H1145 0.950 . S
C1157 C1153 1.393 . S
C1157 C1156 1.391 . S
C1158 H1148 0.950 . S
C1158 C1159 1.386 . S
C1158 C1160 1.391 . S
C1159 C1158 1.386 . S
C1159 C1163 1.393 . S
C1160 H1149 0.950 . S
C1160 C1158 1.391 . S
C1160 C1161 1.400 . S
C1161 C1155 1.491 . S
C1161 C1160 1.400 . S
C1161 C1162 1.398 . S
C1162 H1150 0.950 . S
C1162 C1161 1.398 . S
C1162 C1163 1.391 . S
C1163 H1151 0.950 . S
C1163 C1159 1.393 . S
C1163 C1162 1.391 . S
H1164 C1172 0.950 . S
H1165 C1177 0.950 . S
H1166 C1174 0.950 . S
H1167 C1176 0.950 . S
H1168 C1178 0.950 . S
H1169 C1180 0.950 . S
H1170 C1182 0.950 . S
H1171 C1183 0.950 . S
C1172 H1164 0.950 . S
C1172 C1173 1.386 . S
C1172 C1174 1.391 . S
C1173 C1172 1.386 . S
C1173 C1177 1.393 . S
C1174 H1166 0.950 . S
C1174 C1172 1.391 . S
C1174 C1175 1.400 . S
C1175 C1174 1.400 . S
C1175 C1176 1.398 . S
C1175 C1181 1.491 . S
C1176 H1167 0.950 . S
C1176 C1175 1.398 . S
C1176 C1177 1.391 . S
C1177 H1165 0.950 . S
C1177 C1173 1.393 . S
C1177 C1176 1.391 . S
C1178 H1168 0.950 . S
C1178 C1179 1.386 . S
C1178 C1180 1.391 . S
C1179 C1178 1.386 . S
C1179 C1183 1.393 . S
C1180 H1169 0.950 . S
C1180 C1178 1.391 . S
C1180 C1181 1.400 . S
C1181 C1175 1.491 . S
C1181 C1180 1.400 . S
C1181 C1182 1.398 . S
C1182 H1170 0.950 . S
C1182 C1181 1.398 . S
C1182 C1183 1.391 . S
C1183 H1171 0.950 . S
C1183 C1179 1.393 . S
C1183 C1182 1.391 . S
H1184 C1192 0.950 . S
H1185 C1197 0.950 . S
H1186 C1194 0.950 . S
H1187 C1196 0.950 . S
H1188 C1198 0.950 . S
H1189 C1200 0.950 . S
H1190 C1202 0.950 . S
H1191 C1203 0.950 . S
C1192 H1184 0.950 . S
C1192 C1193 1.386 . S
C1192 C1194 1.391 1_565 S
C1193 C1192 1.386 . S
C1193 C1197 1.393 1_565 S
C1194 H1186 0.950 . S
C1194 C1192 1.391 1_545 S
C1194 C1195 1.400 . S
C1195 C1194 1.400 . S
C1195 C1196 1.398 . S
C1195 C1201 1.491 . S
C1196 H1187 0.950 . S
C1196 C1195 1.398 . S
C1196 C1197 1.391 . S
C1197 H1185 0.950 . S
C1197 C1193 1.393 1_545 S
C1197 C1196 1.391 . S
C1198 H1188 0.950 . S
C1198 C1199 1.386 . S
C1198 C1200 1.391 . S
C1199 C1198 1.386 . S
C1199 C1203 1.393 . S
C1200 H1189 0.950 . S
C1200 C1198 1.391 . S
C1200 C1201 1.400 . S
C1201 C1195 1.491 . S
C1201 C1200 1.400 . S
C1201 C1202 1.398 . S
C1202 H1190 0.950 . S
C1202 C1201 1.398 . S
C1202 C1203 1.391 . S
C1203 H1191 0.950 . S
C1203 C1199 1.393 . S
C1203 C1202 1.391 . S
H1204 C1212 0.950 . S
H1205 C1217 0.950 . S
H1206 C1214 0.950 . S
H1207 C1216 0.950 . S
H1208 C1218 0.950 . S
H1209 C1220 0.950 . S
H1210 C1222 0.950 . S
H1211 C1223 0.950 . S
C1212 H1204 0.950 . S
C1212 C1213 1.386 . S
C1212 C1214 1.391 . S
C1213 C1212 1.386 . S
C1213 C1217 1.393 . S
C1214 H1206 0.950 . S
C1214 C1212 1.391 . S
C1214 C1215 1.400 . S
C1215 C1214 1.400 . S
C1215 C1216 1.398 . S
C1215 C1221 1.491 . S
C1216 H1207 0.950 . S
C1216 C1215 1.398 . S
C1216 C1217 1.391 . S
C1217 H1205 0.950 . S
C1217 C1213 1.393 . S
C1217 C1216 1.391 . S
C1218 H1208 0.950 . S
C1218 C1219 1.386 . S
C1218 C1220 1.391 . S
C1219 C1218 1.386 . S
C1219 C1223 1.393 . S
C1220 H1209 0.950 . S
C1220 C1218 1.391 . S
C1220 C1221 1.400 . S
C1221 C1215 1.491 . S
C1221 C1220 1.400 . S
C1221 C1222 1.398 . S
C1222 H1210 0.950 . S
C1222 C1221 1.398 . S
C1222 C1223 1.391 . S
C1223 H1211 0.950 . S
C1223 C1219 1.393 . S
C1223 C1222 1.391 . S
H1224 C1232 0.950 . S
H1225 C1237 0.950 . S
H1226 C1234 0.950 . S
H1227 C1236 0.950 . S
H1228 C1238 0.950 . S
H1229 C1240 0.950 . S
H1230 C1242 0.950 . S
H1231 C1243 0.950 . S
C1232 H1224 0.950 . S
C1232 C1233 1.386 . S
C1232 C1234 1.391 . S
C1233 C1232 1.386 . S
C1233 C1237 1.393 . S
C1234 H1226 0.950 . S
C1234 C1232 1.391 . S
C1234 C1235 1.400 . S
C1235 C1234 1.400 . S
C1235 C1236 1.398 . S
C1235 C1241 1.491 . S
C1236 H1227 0.950 . S
C1236 C1235 1.398 . S
C1236 C1237 1.391 . S
C1237 H1225 0.950 . S
C1237 C1233 1.393 . S
C1237 C1236 1.391 . S
C1238 H1228 0.950 . S
C1238 C1239 1.386 . S
C1238 C1240 1.391 . S
C1239 C1238 1.386 . S
C1239 C1243 1.393 . S
C1240 H1229 0.950 . S
C1240 C1238 1.391 . S
C1240 C1241 1.400 . S
C1241 C1235 1.491 . S
C1241 C1240 1.400 . S
C1241 C1242 1.398 . S
C1242 H1230 0.950 . S
C1242 C1241 1.398 . S
C1242 C1243 1.391 . S
C1243 H1231 0.950 . S
C1243 C1239 1.393 . S
C1243 C1242 1.391 . S
H1244 C1252 0.950 . S
H1245 C1257 0.950 . S
H1246 C1254 0.950 . S
H1247 C1256 0.950 . S
H1248 C1258 0.950 . S
H1249 C1260 0.950 . S
H1250 C1262 0.950 . S
H1251 C1263 0.950 . S
C1252 H1244 0.950 . S
C1252 C1253 1.386 . S
C1252 C1254 1.391 . S
C1253 C1252 1.386 . S
C1253 C1257 1.393 . S
C1254 H1246 0.950 . S
C1254 C1252 1.391 . S
C1254 C1255 1.400 . S
C1255 C1254 1.400 . S
C1255 C1256 1.398 . S
C1255 C1261 1.491 . S
C1256 H1247 0.950 . S
C1256 C1255 1.398 . S
C1256 C1257 1.391 . S
C1257 H1245 0.950 . S
C1257 C1253 1.393 . S
C1257 C1256 1.391 . S
C1258 H1248 0.950 . S
C1258 C1259 1.386 . S
C1258 C1260 1.391 . S
C1259 C1258 1.386 . S
C1259 C1263 1.393 . S
C1260 H1249 0.950 . S
C1260 C1258 1.391 . S
C1260 C1261 1.400 . S
C1261 C1255 1.491 . S
C1261 C1260 1.400 . S
C1261 C1262 1.398 . S
C1262 H1250 0.950 . S
C1262 C1261 1.398 . S
C1262 C1263 1.391 . S
C1263 H1251 0.950 . S
C1263 C1259 1.393 . S
C1263 C1262 1.391 . S
H1264 C1272 0.950 . S
H1265 C1277 0.950 . S
H1266 C1274 0.950 . S
H1267 C1276 0.950 . S
H1268 C1278 0.950 . S
H1269 C1280 0.950 . S
H1270 C1282 0.950 . S
H1271 C1283 0.950 . S
C1272 H1264 0.950 . S
C1272 C1273 1.386 . S
C1272 C1274 1.391 . S
C1273 C1272 1.386 . S
C1273 C1277 1.393 . S
C1274 H1266 0.950 . S
C1274 C1272 1.391 . S
C1274 C1275 1.400 . S
C1275 C1274 1.400 . S
C1275 C1276 1.398 . S
C1275 C1281 1.491 . S
C1276 H1267 0.950 . S
C1276 C1275 1.398 . S
C1276 C1277 1.391 . S
C1277 H1265 0.950 . S
C1277 C1273 1.393 . S
C1277 C1276 1.391 . S
C1278 H1268 0.950 . S
C1278 C1279 1.386 . S
C1278 C1280 1.391 . S
C1279 C1278 1.386 . S
C1279 C1283 1.393 . S
C1280 H1269 0.950 . S
C1280 C1278 1.391 . S
C1280 C1281 1.400 . S
C1281 C1275 1.491 . S
C1281 C1280 1.400 . S
C1281 C1282 1.398 . S
C1282 H1270 0.950 . S
C1282 C1281 1.398 . S
C1282 C1283 1.391 . S
C1283 H1271 0.950 . S
C1283 C1279 1.393 . S
C1283 C1282 1.391 . S
H1284 C1292 0.950 . S
H1285 C1297 0.950 . S
H1286 C1294 0.950 . S
H1287 C1296 0.950 . S
H1288 C1298 0.950 . S
H1289 C1300 0.950 . S
H1290 C1302 0.950 . S
H1291 C1303 0.950 . S
C1292 H1284 0.950 . S
C1292 C1293 1.386 . S
C1292 C1294 1.391 . S
C1293 C1292 1.386 . S
C1293 C1297 1.393 . S
C1294 H1286 0.950 . S
C1294 C1292 1.391 . S
C1294 C1295 1.400 . S
C1295 C1294 1.400 . S
C1295 C1296 1.398 . S
C1295 C1301 1.491 . S
C1296 H1287 0.950 . S
C1296 C1295 1.398 . S
C1296 C1297 1.391 . S
C1297 H1285 0.950 . S
C1297 C1293 1.393 . S
C1297 C1296 1.391 . S
C1298 H1288 0.950 . S
C1298 C1299 1.386 . S
C1298 C1300 1.391 . S
C1299 C1298 1.386 . S
C1299 C1303 1.393 . S
C1300 H1289 0.950 . S
C1300 C1298 1.391 . S
C1300 C1301 1.400 . S
C1301 C1295 1.491 . S
C1301 C1300 1.400 . S
C1301 C1302 1.398 . S
C1302 H1290 0.950 . S
C1302 C1301 1.398 . S
C1302 C1303 1.391 . S
C1303 H1291 0.950 . S
C1303 C1299 1.393 . S
C1303 C1302 1.391 . S
H1304 C1312 0.950 . S
H1305 C1317 0.950 . S
H1306 C1314 0.950 . S
H1307 C1316 0.950 . S
H1308 C1318 0.950 . S
H1309 C1320 0.950 . S
H1310 C1322 0.950 . S
H1311 C1323 0.950 . S
C1312 H1304 0.950 . S
C1312 C1313 1.386 . S
C1312 C1314 1.391 . S
C1313 C1312 1.386 . S
C1313 C1317 1.393 . S
C1314 H1306 0.950 . S
C1314 C1312 1.391 . S
C1314 C1315 1.400 . S
C1315 C1314 1.400 . S
C1315 C1316 1.398 . S
C1315 C1321 1.491 . S
C1316 H1307 0.950 . S
C1316 C1315 1.398 . S
C1316 C1317 1.391 . S
C1317 H1305 0.950 . S
C1317 C1313 1.393 . S
C1317 C1316 1.391 . S
C1318 H1308 0.950 . S
C1318 C1319 1.386 . S
C1318 C1320 1.391 . S
C1319 C1318 1.386 . S
C1319 C1323 1.393 . S
C1320 H1309 0.950 . S
C1320 C1318 1.391 . S
C1320 C1321 1.400 . S
C1321 C1315 1.491 . S
C1321 C1320 1.400 . S
C1321 C1322 1.398 . S
C1322 H1310 0.950 . S
C1322 C1321 1.398 . S
C1322 C1323 1.391 . S
C1323 H1311 0.950 . S
C1323 C1319 1.393 . S
C1323 C1322 1.391 . S
H1324 C1332 0.950 . S
H1325 C1337 0.950 . S
H1326 C1334 0.950 . S
H1327 C1336 0.950 . S
H1328 C1338 0.950 . S
H1329 C1340 0.950 . S
H1330 C1342 0.950 . S
H1331 C1343 0.950 . S
C1332 H1324 0.950 . S
C1332 C1333 1.386 . S
C1332 C1334 1.391 1_455 S
C1333 C1332 1.386 . S
C1333 C1337 1.393 . S
C1334 H1326 0.950 . S
C1334 C1332 1.391 1_655 S
C1334 C1335 1.400 . S
C1335 C1334 1.400 . S
C1335 C1336 1.398 1_655 S
C1335 C1341 1.491 . S
C1336 H1327 0.950 . S
C1336 C1335 1.398 1_455 S
C1336 C1337 1.391 . S
C1337 H1325 0.950 . S
C1337 C1333 1.393 . S
C1337 C1336 1.391 . S
C1338 H1328 0.950 . S
C1338 C1339 1.386 . S
C1338 C1340 1.391 . S
C1339 C1338 1.386 . S
C1339 C1343 1.393 . S
C1340 H1329 0.950 . S
C1340 C1338 1.391 . S
C1340 C1341 1.400 . S
C1341 C1335 1.491 . S
C1341 C1340 1.400 . S
C1341 C1342 1.398 . S
C1342 H1330 0.950 . S
C1342 C1341 1.398 . S
C1342 C1343 1.391 . S
C1343 H1331 0.950 . S
C1343 C1339 1.393 . S
C1343 C1342 1.391 . S
H1344 C1352 0.950 . S
H1345 C1357 0.950 . S
H1346 C1354 0.950 . S
H1347 C1356 0.950 . S
H1348 C1358 0.950 . S
H1349 C1360 0.950 . S
H1350 C1362 0.950 . S
H1351 C1363 0.950 . S
C1352 H1344 0.950 . S
C1352 C1353 1.386 . S
C1352 C1354 1.391 . S
C1353 C1352 1.386 . S
C1353 C1357 1.393 . S
C1354 H1346 0.950 . S
C1354 C1352 1.391 . S
C1354 C1355 1.400 . S
C1355 C1354 1.400 . S
C1355 C1356 1.398 . S
C1355 C1361 1.491 . S
C1356 H1347 0.950 . S
C1356 C1355 1.398 . S
C1356 C1357 1.391 . S
C1357 H1345 0.950 . S
C1357 C1353 1.393 . S
C1357 C1356 1.391 . S
C1358 H1348 0.950 . S
C1358 C1359 1.386 . S
C1358 C1360 1.391 . S
C1359 C1358 1.386 . S
C1359 C1363 1.393 . S
C1360 H1349 0.950 . S
C1360 C1358 1.391 . S
C1360 C1361 1.400 . S
C1361 C1355 1.491 . S
C1361 C1360 1.400 . S
C1361 C1362 1.398 . S
C1362 H1350 0.950 . S
C1362 C1361 1.398 . S
C1362 C1363 1.391 . S
C1363 H1351 0.950 . S
C1363 C1359 1.393 . S
C1363 C1362 1.391 . S
H1364 C1372 0.950 . S
H1365 C1377 0.950 . S
H1366 C1374 0.950 . S
H1367 C1376 0.950 . S
H1368 C1378 0.950 . S
H1369 C1380 0.950 . S
H1370 C1382 0.950 . S
H1371 C1383 0.950 . S
C1372 H1364 0.950 . S
C1372 C1373 1.386 . S
C1372 C1374 1.391 . S
C1373 C1372 1.386 . S
C1373 C1377 1.393 . S
C1374 H1366 0.950 . S
C1374 C1372 1.391 . S
C1374 C1375 1.400 . S
C1375 C1374 1.400 . S
C1375 C1376 1.398 . S
C1375 C1381 1.491 1_655 S
C1376 H1367 0.950 . S
C1376 C1375 1.398 . S
C1376 C1377 1.391 . S
C1377 H1365 0.950 . S
C1377 C1373 1.393 . S
C1377 C1376 1.391 . S
C1378 H1368 0.950 . S
C1378 C1379 1.386 . S
C1378 C1380 1.391 . S
C1379 C1378 1.386 . S
C1379 C1383 1.393 . S
C1380 H1369 0.950 . S
C1380 C1378 1.391 . S
C1380 C1381 1.400 . S
C1381 C1375 1.491 1_455 S
C1381 C1380 1.400 . S
C1381 C1382 1.398 . S
C1382 H1370 0.950 . S
C1382 C1381 1.398 . S
C1382 C1383 1.391 . S
C1383 H1371 0.950 . S
C1383 C1379 1.393 . S
C1383 C1382 1.391 . S
H1384 C1392 0.950 . S
H1385 C1397 0.950 . S
H1386 C1394 0.950 . S
H1387 C1396 0.950 . S
H1388 C1398 0.950 . S
H1389 C1400 0.950 . S
H1390 C1402 0.950 . S
H1391 C1403 0.950 . S
C1392 H1384 0.950 . S
C1392 C1393 1.386 . S
C1392 C1394 1.391 . S
C1393 C1392 1.386 . S
C1393 C1397 1.393 . S
C1394 H1386 0.950 . S
C1394 C1392 1.391 . S
C1394 C1395 1.400 . S
C1395 C1394 1.400 . S
C1395 C1396 1.398 . S
C1395 C1401 1.491 . S
C1396 H1387 0.950 . S
C1396 C1395 1.398 . S
C1396 C1397 1.391 . S
C1397 H1385 0.950 . S
C1397 C1393 1.393 . S
C1397 C1396 1.391 . S
C1398 H1388 0.950 . S
C1398 C1399 1.386 . S
C1398 C1400 1.391 . S
C1399 C1398 1.386 . S
C1399 C1403 1.393 . S
C1400 H1389 0.950 . S
C1400 C1398 1.391 . S
C1400 C1401 1.400 . S
C1401 C1395 1.491 . S
C1401 C1400 1.400 . S
C1401 C1402 1.398 . S
C1402 H1390 0.950 . S
C1402 C1401 1.398 . S
C1402 C1403 1.391 . S
C1403 H1391 0.950 . S
C1403 C1399 1.393 . S
C1403 C1402 1.391 . S
H1404 C1412 0.950 . S
H1405 C1417 0.949 1_556 S
H1406 C1414 0.950 . S
H1407 C1416 0.950 . S
H1408 C1418 0.950 . S
H1409 C1420 0.950 . S
H1410 C1422 0.950 . S
H1411 C1423 0.899 1_455 S
C1412 H1404 0.950 . S
C1412 C1413 1.386 . S
C1412 C1414 1.391 . S
C1413 C1412 1.386 . S
C1413 C1417 1.402 . S
C1414 H1406 0.950 . S
C1414 C1412 1.391 . S
C1414 C1415 1.400 1_554 S
C1415 C1414 1.400 1_556 S
C1415 C1416 1.398 . S
C1415 C1421 1.491 . S
C1416 H1407 0.950 . S
C1416 C1415 1.398 . S
C1416 C1417 1.383 1_556 S
C1417 H1405 0.949 1_554 S
C1417 C1413 1.402 . S
C1417 C1416 1.383 1_554 S
C1418 H1408 0.950 . S
C1418 C1419 1.386 . S
C1418 C1420 1.391 . S
C1419 C1418 1.386 . S
C1419 C1423 1.393 . S
C1420 H1409 0.950 . S
C1420 C1418 1.391 . S
C1420 C1421 1.400 . S
C1421 C1415 1.491 . S
C1421 C1420 1.400 . S
C1421 C1422 1.398 . S
C1422 H1410 0.950 . S
C1422 C1421 1.398 . S
C1422 C1423 1.391 . S
C1423 H1411 0.899 1_655 S
C1423 C1419 1.393 . S
C1423 C1422 1.391 . S
H1424 C1432 0.950 . S
H1425 C1437 0.950 . S
H1426 C1434 0.950 . S
H1427 C1436 0.950 . S
H1428 C1438 0.950 . S
H1429 C1440 0.950 . S
H1430 C1442 0.950 . S
H1431 C1443 0.950 . S
C1432 H1424 0.950 . S
C1432 C1433 1.386 . S
C1432 C1434 1.391 . S
C1433 C1432 1.386 . S
C1433 C1437 1.393 . S
C1434 H1426 0.950 . S
C1434 C1432 1.391 . S
C1434 C1435 1.400 . S
C1435 C1434 1.400 . S
C1435 C1436 1.398 . S
C1435 C1441 1.491 . S
C1436 H1427 0.950 . S
C1436 C1435 1.398 . S
C1436 C1437 1.391 . S
C1437 H1425 0.950 . S
C1437 C1433 1.393 . S
C1437 C1436 1.391 . S
C1438 H1428 0.950 . S
C1438 C1439 1.386 . S
C1438 C1440 1.391 . S
C1439 C1438 1.386 . S
C1439 C1443 1.393 . S
C1440 H1429 0.950 . S
C1440 C1438 1.391 . S
C1440 C1441 1.400 . S
C1441 C1435 1.491 . S
C1441 C1440 1.400 . S
C1441 C1442 1.398 . S
C1442 H1430 0.950 . S
C1442 C1441 1.398 . S
C1442 C1443 1.391 . S
C1443 H1431 0.950 . S
C1443 C1439 1.393 . S
C1443 C1442 1.391 . S
H1444 C1452 0.950 . S
H1445 C1457 0.950 . S
H1446 C1454 0.950 1_556 S
H1447 C1456 0.950 . S
H1448 C1458 0.950 . S
H1449 C1460 0.950 1_554 S
H1450 C1462 0.950 . S
H1451 C1463 0.950 . S
C1452 H1444 0.950 . S
C1452 C1453 1.386 . S
C1452 C1454 1.391 . S
C1453 C1452 1.386 . S
C1453 C1457 1.393 . S
C1454 H1446 0.950 1_554 S
C1454 C1452 1.391 . S
C1454 C1455 1.400 . S
C1455 C1454 1.400 . S
C1455 C1456 1.398 . S
C1455 C1461 1.491 1_554 S
C1456 H1447 0.950 . S
C1456 C1455 1.398 . S
C1456 C1457 1.391 . S
C1457 H1445 0.950 . S
C1457 C1453 1.393 . S
C1457 C1456 1.391 . S
C1458 H1448 0.950 . S
C1458 C1459 1.386 . S
C1458 C1460 1.391 . S
C1459 C1458 1.386 . S
C1459 C1463 1.393 . S
C1460 H1449 0.950 1_556 S
C1460 C1458 1.391 . S
C1460 C1461 1.400 . S
C1461 C1455 1.491 1_556 S
C1461 C1460 1.400 . S
C1461 C1462 1.398 . S
C1462 H1450 0.950 . S
C1462 C1461 1.398 . S
C1462 C1463 1.391 . S
C1463 H1451 0.950 . S
C1463 C1459 1.393 . S
C1463 C1462 1.391 . S
H1464 C1472 0.950 . S
H1465 C1477 0.950 . S
H1466 C1474 0.950 . S
H1467 C1476 0.950 . S
H1468 C1478 0.950 . S
H1469 C1480 0.950 . S
H1470 C1482 0.950 . S
H1471 C1483 0.950 . S
C1472 H1464 0.950 . S
C1472 C1473 1.386 . S
C1472 C1474 1.391 . S
C1473 C1472 1.386 . S
C1473 C1477 1.393 . S
C1474 H1466 0.950 . S
C1474 C1472 1.391 . S
C1474 C1475 1.400 . S
C1475 C1474 1.400 . S
C1475 C1476 1.398 . S
C1475 C1481 1.491 . S
C1476 H1467 0.950 . S
C1476 C1475 1.398 . S
C1476 C1477 1.391 . S
C1477 H1465 0.950 . S
C1477 C1473 1.393 . S
C1477 C1476 1.391 . S
C1478 H1468 0.950 . S
C1478 C1479 1.386 . S
C1478 C1480 1.391 . S
C1479 C1478 1.386 . S
C1479 C1483 1.393 . S
C1480 H1469 0.950 . S
C1480 C1478 1.391 . S
C1480 C1481 1.400 . S
C1481 C1475 1.491 . S
C1481 C1480 1.400 . S
C1481 C1482 1.398 . S
C1482 H1470 0.950 . S
C1482 C1481 1.398 . S
C1482 C1483 1.391 . S
C1483 H1471 0.950 . S
C1483 C1479 1.393 . S
C1483 C1482 1.391 . S
H1484 C1492 0.950 . S
H1485 C1497 0.950 . S
H1486 C1494 0.955 . S
H1487 C1496 0.950 . S
H1488 C1498 0.950 . S
H1489 C1500 0.950 . S
H1490 C1502 0.950 . S
H1491 C1503 0.950 . S
C1492 H1484 0.950 . S
C1492 C1493 1.386 . S
C1492 C1494 1.391 . S
C1493 C1492 1.386 . S
C1493 C1497 1.393 . S
C1494 H1486 0.955 . S
C1494 C1492 1.391 . S
C1494 C1495 1.400 1_556 S
C1495 C1494 1.400 1_554 S
C1495 C1496 1.398 . S
C1495 C1501 1.491 . S
C1496 H1487 0.950 . S
C1496 C1495 1.398 . S
C1496 C1497 1.391 1_554 S
C1497 H1485 0.950 . S
C1497 C1493 1.393 . S
C1497 C1496 1.391 1_556 S
C1498 H1488 0.950 . S
C1498 C1499 1.386 . S
C1498 C1500 1.391 . S
C1499 C1498 1.386 . S
C1499 C1503 1.393 . S
C1500 H1489 0.950 . S
C1500 C1498 1.391 . S
C1500 C1501 1.400 . S
C1501 C1495 1.491 . S
C1501 C1500 1.400 . S
C1501 C1502 1.398 . S
C1502 H1490 0.950 . S
C1502 C1501 1.398 . S
C1502 C1503 1.391 . S
C1503 H1491 0.950 . S
C1503 C1499 1.393 . S
C1503 C1502 1.391 . S
H1504 C1512 0.950 . S
H1505 C1517 0.950 . S
H1506 C1514 0.950 . S
H1507 C1516 0.950 . S
H1508 C1518 0.950 . S
H1509 C1520 0.950 . S
H1510 C1522 0.950 . S
H1511 C1523 0.950 . S
C1512 H1504 0.950 . S
C1512 C1513 1.386 . S
C1512 C1514 1.391 . S
C1513 C1512 1.386 . S
C1513 C1517 1.393 . S
C1514 H1506 0.950 . S
C1514 C1512 1.391 . S
C1514 C1515 1.400 . S
C1515 C1514 1.400 . S
C1515 C1516 1.398 . S
C1515 C1521 1.491 . S
C1516 H1507 0.950 . S
C1516 C1515 1.398 . S
C1516 C1517 1.391 . S
C1517 H1505 0.950 . S
C1517 C1513 1.393 . S
C1517 C1516 1.391 . S
C1518 H1508 0.950 . S
C1518 C1519 1.386 . S
C1518 C1520 1.391 . S
C1519 C1518 1.386 . S
C1519 C1523 1.393 . S
C1520 H1509 0.950 . S
C1520 C1518 1.391 . S
C1520 C1521 1.400 . S
C1521 C1515 1.491 . S
C1521 C1520 1.400 . S
C1521 C1522 1.398 . S
C1522 H1510 0.950 . S
C1522 C1521 1.398 . S
C1522 C1523 1.391 . S
C1523 H1511 0.950 . S
C1523 C1519 1.393 . S
C1523 C1522 1.391 . S
H1524 C1532 0.950 . S
H1525 C1537 0.950 . S
H1526 C1534 0.950 . S
H1527 C1536 0.950 . S
H1528 C1538 0.950 . S
H1529 C1540 0.950 . S
H1530 C1542 0.950 . S
H1531 C1543 0.950 . S
C1532 H1524 0.950 . S
C1532 C1533 1.386 . S
C1532 C1534 1.391 . S
C1533 C1532 1.386 . S
C1533 C1537 1.393 . S
C1534 H1526 0.950 . S
C1534 C1532 1.391 . S
C1534 C1535 1.400 . S
C1535 C1534 1.400 . S
C1535 C1536 1.398 . S
C1535 C1541 1.491 . S
C1536 H1527 0.950 . S
C1536 C1535 1.398 . S
C1536 C1537 1.391 . S
C1537 H1525 0.950 . S
C1537 C1533 1.393 . S
C1537 C1536 1.391 . S
C1538 H1528 0.950 . S
C1538 C1539 1.386 . S
C1538 C1540 1.391 . S
C1539 C1538 1.386 . S
C1539 C1543 1.393 . S
C1540 H1529 0.950 . S
C1540 C1538 1.391 . S
C1540 C1541 1.400 . S
C1541 C1535 1.491 . S
C1541 C1540 1.400 . S
C1541 C1542 1.398 . S
C1542 H1530 0.950 . S
C1542 C1541 1.398 . S
C1542 C1543 1.391 . S
C1543 H1531 0.950 . S
C1543 C1539 1.393 . S
C1543 C1542 1.391 . S
H1544 C1552 0.950 . S
H1545 C1557 0.950 . S
H1546 C1554 0.950 . S
H1547 C1556 0.950 . S
H1548 C1558 0.950 . S
H1549 C1560 0.950 . S
H1550 C1562 0.950 . S
H1551 C1563 0.950 . S
C1552 H1544 0.950 . S
C1552 C1553 1.386 . S
C1552 C1554 1.391 . S
C1553 C1552 1.386 . S
C1553 C1557 1.393 . S
C1554 H1546 0.950 . S
C1554 C1552 1.391 . S
C1554 C1555 1.400 . S
C1555 C1554 1.400 . S
C1555 C1556 1.398 . S
C1555 C1561 1.491 . S
C1556 H1547 0.950 . S
C1556 C1555 1.398 . S
C1556 C1557 1.391 . S
C1557 H1545 0.950 . S
C1557 C1553 1.393 . S
C1557 C1556 1.391 . S
C1558 H1548 0.950 . S
C1558 C1559 1.386 . S
C1558 C1560 1.391 . S
C1559 C1558 1.386 . S
C1559 C1563 1.393 . S
C1560 H1549 0.950 . S
C1560 C1558 1.391 . S
C1560 C1561 1.400 . S
C1561 C1555 1.491 . S
C1561 C1560 1.400 . S
C1561 C1562 1.398 . S
C1562 H1550 0.950 . S
C1562 C1561 1.398 . S
C1562 C1563 1.391 . S
C1563 H1551 0.950 . S
C1563 C1559 1.393 . S
C1563 C1562 1.391 . S
H1564 C1572 0.950 . S
H1565 C1577 0.950 . S
H1566 C1574 0.950 . S
H1567 C1576 0.950 . S
H1568 C1578 0.950 . S
H1569 C1580 0.950 . S
H1570 C1582 0.950 . S
H1571 C1583 0.950 . S
C1572 H1564 0.950 . S
C1572 C1573 1.386 . S
C1572 C1574 1.391 . S
C1573 C1572 1.386 . S
C1573 C1577 1.393 . S
C1574 H1566 0.950 . S
C1574 C1572 1.391 . S
C1574 C1575 1.400 . S
C1575 C1574 1.400 . S
C1575 C1576 1.398 . S
C1575 C1581 1.491 . S
C1576 H1567 0.950 . S
C1576 C1575 1.398 . S
C1576 C1577 1.391 . S
C1577 H1565 0.950 . S
C1577 C1573 1.393 . S
C1577 C1576 1.391 . S
C1578 H1568 0.950 . S
C1578 C1579 1.386 . S
C1578 C1580 1.391 . S
C1579 C1578 1.386 . S
C1579 C1583 1.393 . S
C1580 H1569 0.950 . S
C1580 C1578 1.391 . S
C1580 C1581 1.400 . S
C1581 C1575 1.491 . S
C1581 C1580 1.400 . S
C1581 C1582 1.398 . S
C1582 H1570 0.950 . S
C1582 C1581 1.398 . S
C1582 C1583 1.391 . S
C1583 H1571 0.950 . S
C1583 C1579 1.393 . S
C1583 C1582 1.391 . S
H1584 C1592 0.950 . S
H1585 C1597 0.950 . S
H1586 C1594 0.950 . S
H1587 C1596 0.950 . S
H1588 C1598 0.950 . S
H1589 C1600 0.950 . S
H1590 C1602 0.950 . S
H1591 C1603 0.950 . S
C1592 H1584 0.950 . S
C1592 C1593 1.386 . S
C1592 C1594 1.391 . S
C1593 C1592 1.386 . S
C1593 C1597 1.393 . S
C1594 H1586 0.950 . S
C1594 C1592 1.391 . S
C1594 C1595 1.400 . S
C1595 C1594 1.400 . S
C1595 C1596 1.398 . S
C1595 C1601 1.491 . S
C1596 H1587 0.950 . S
C1596 C1595 1.398 . S
C1596 C1597 1.391 . S
C1597 H1585 0.950 . S
C1597 C1593 1.393 . S
C1597 C1596 1.391 . S
C1598 H1588 0.950 . S
C1598 C1599 1.386 . S
C1598 C1600 1.391 . S
C1599 C1598 1.386 . S
C1599 C1603 1.393 . S
C1600 H1589 0.950 . S
C1600 C1598 1.391 . S
C1600 C1601 1.400 . S
C1601 C1595 1.491 . S
C1601 C1600 1.400 . S
C1601 C1602 1.398 . S
C1602 H1590 0.950 . S
C1602 C1601 1.398 . S
C1602 C1603 1.391 . S
C1603 H1591 0.950 . S
C1603 C1599 1.393 . S
C1603 C1602 1.391 . S
H1604 C1612 0.950 . S
H1605 C1617 0.950 . S
H1606 C1614 0.950 . S
H1607 C1616 0.950 . S
H1608 C1618 0.950 . S
H1609 C1620 0.950 . S
H1610 C1622 0.950 . S
H1611 C1623 0.950 . S
C1612 H1604 0.950 . S
C1612 C1613 1.386 . S
C1612 C1614 1.391 . S
C1613 C1612 1.386 . S
C1613 C1617 1.393 . S
C1614 H1606 0.950 . S
C1614 C1612 1.391 . S
C1614 C1615 1.400 . S
C1615 C1614 1.400 . S
C1615 C1616 1.398 . S
C1615 C1621 1.491 . S
C1616 H1607 0.950 . S
C1616 C1615 1.398 . S
C1616 C1617 1.391 . S
C1617 H1605 0.950 . S
C1617 C1613 1.393 . S
C1617 C1616 1.391 . S
C1618 H1608 0.950 . S
C1618 C1619 1.386 . S
C1618 C1620 1.391 . S
C1619 C1618 1.386 . S
C1619 C1623 1.393 . S
C1620 H1609 0.950 . S
C1620 C1618 1.391 . S
C1620 C1621 1.400 . S
C1621 C1615 1.491 . S
C1621 C1620 1.400 . S
C1621 C1622 1.398 . S
C1622 H1610 0.950 . S
C1622 C1621 1.398 . S
C1622 C1623 1.391 . S
C1623 H1611 0.950 . S
C1623 C1619 1.393 . S
C1623 C1622 1.391 . S
H1624 C1632 0.950 . S
H1625 C1637 0.950 . S
H1626 C1634 0.950 . S
H1627 C1636 0.950 . S
H1628 C1638 0.950 . S
H1629 C1640 0.950 . S
H1630 C1642 0.950 . S
H1631 C1643 0.950 . S
C1632 H1624 0.950 . S
C1632 C1633 1.386 . S
C1632 C1634 1.391 . S
C1633 C1632 1.386 . S
C1633 C1637 1.393 . S
C1634 H1626 0.950 . S
C1634 C1632 1.391 . S
C1634 C1635 1.400 . S
C1635 C1634 1.400 . S
C1635 C1636 1.398 . S
C1635 C1641 1.491 . S
C1636 H1627 0.950 . S
C1636 C1635 1.398 . S
C1636 C1637 1.391 . S
C1637 H1625 0.950 . S
C1637 C1633 1.393 . S
C1637 C1636 1.391 . S
C1638 H1628 0.950 . S
C1638 C1639 1.386 . S
C1638 C1640 1.391 . S
C1639 C1638 1.386 . S
C1639 C1643 1.393 . S
C1640 H1629 0.950 . S
C1640 C1638 1.391 . S
C1640 C1641 1.400 . S
C1641 C1635 1.491 . S
C1641 C1640 1.400 . S
C1641 C1642 1.398 . S
C1642 H1630 0.950 . S
C1642 C1641 1.398 . S
C1642 C1643 1.391 . S
C1643 H1631 0.950 . S
C1643 C1639 1.393 . S
C1643 C1642 1.391 . S
H1644 C1652 0.950 . S
H1645 C1657 0.950 . S
H1646 C1654 0.950 . S
H1647 C1656 0.950 . S
H1648 C1658 0.950 . S
H1649 C1660 0.950 . S
H1650 C1662 0.950 . S
H1651 C1663 0.950 . S
C1652 H1644 0.950 . S
C1652 C1653 1.386 . S
C1652 C1654 1.391 . S
C1653 C1652 1.386 . S
C1653 C1657 1.393 . S
C1654 H1646 0.950 . S
C1654 C1652 1.391 . S
C1654 C1655 1.400 . S
C1655 C1654 1.400 . S
C1655 C1656 1.398 . S
C1655 C1661 1.491 . S
C1656 H1647 0.950 . S
C1656 C1655 1.398 . S
C1656 C1657 1.391 . S
C1657 H1645 0.950 . S
C1657 C1653 1.393 . S
C1657 C1656 1.391 . S
C1658 H1648 0.950 . S
C1658 C1659 1.386 . S
C1658 C1660 1.391 . S
C1659 C1658 1.386 . S
C1659 C1663 1.393 . S
C1660 H1649 0.950 . S
C1660 C1658 1.391 . S
C1660 C1661 1.400 . S
C1661 C1655 1.491 . S
C1661 C1660 1.400 . S
C1661 C1662 1.398 . S
C1662 H1650 0.950 . S
C1662 C1661 1.398 . S
C1662 C1663 1.391 . S
C1663 H1651 0.950 . S
C1663 C1659 1.393 . S
C1663 C1662 1.391 . S
H1664 C1672 0.950 . S
H1665 C1677 0.950 . S
H1666 C1674 0.950 . S
H1667 C1676 0.950 . S
H1668 C1678 0.950 . S
H1669 C1680 0.950 . S
H1670 C1682 0.950 . S
H1671 C1683 0.950 . S
C1672 H1664 0.950 . S
C1672 C1673 1.386 . S
C1672 C1674 1.391 . S
C1673 C1672 1.386 . S
C1673 C1677 1.393 . S
C1674 H1666 0.950 . S
C1674 C1672 1.391 . S
C1674 C1675 1.400 . S
C1675 C1674 1.400 . S
C1675 C1676 1.398 . S
C1675 C1681 1.491 . S
C1676 H1667 0.950 . S
C1676 C1675 1.398 . S
C1676 C1677 1.391 . S
C1677 H1665 0.950 . S
C1677 C1673 1.393 . S
C1677 C1676 1.391 . S
C1678 H1668 0.950 . S
C1678 C1679 1.386 . S
C1678 C1680 1.391 . S
C1679 C1678 1.386 . S
C1679 C1683 1.393 . S
C1680 H1669 0.950 . S
C1680 C1678 1.391 . S
C1680 C1681 1.400 . S
C1681 C1675 1.491 . S
C1681 C1680 1.400 . S
C1681 C1682 1.398 . S
C1682 H1670 0.950 . S
C1682 C1681 1.398 . S
C1682 C1683 1.391 . S
C1683 H1671 0.950 . S
C1683 C1679 1.393 . S
C1683 C1682 1.391 . S
H1684 C1692 0.950 . S
H1685 C1697 0.950 . S
H1686 C1694 0.950 . S
H1687 C1696 0.950 . S
H1688 C1698 0.950 . S
H1689 C1700 0.950 . S
H1690 C1702 0.950 . S
H1691 C1703 0.950 . S
C1692 H1684 0.950 . S
C1692 C1693 1.386 . S
C1692 C1694 1.391 . S
C1693 C1692 1.386 . S
C1693 C1697 1.393 . S
C1694 H1686 0.950 . S
C1694 C1692 1.391 . S
C1694 C1695 1.400 . S
C1695 C1694 1.400 . S
C1695 C1696 1.398 . S
C1695 C1701 1.491 . S
C1696 H1687 0.950 . S
C1696 C1695 1.398 . S
C1696 C1697 1.391 . S
C1697 H1685 0.950 . S
C1697 C1693 1.393 . S
C1697 C1696 1.391 . S
C1698 H1688 0.950 . S
C1698 C1699 1.386 . S
C1698 C1700 1.391 . S
C1699 C1698 1.386 . S
C1699 C1703 1.393 . S
C1700 H1689 0.950 . S
C1700 C1698 1.391 . S
C1700 C1701 1.400 1_565 S
C1701 C1695 1.491 . S
C1701 C1700 1.400 1_545 S
C1701 C1702 1.398 . S
C1702 H1690 0.950 . S
C1702 C1701 1.398 . S
C1702 C1703 1.391 1_545 S
C1703 H1691 0.950 . S
C1703 C1699 1.393 . S
C1703 C1702 1.391 1_565 S
C759 C584 1.610 1_556 S
C753 C181 1.622 . S
C779 C599 1.742 . S
C773 C247 1.747 . S
C793 C283 1.707 . S
C799 C612 1.705 . S
C819 C626 1.567 . S
C813 C169 1.633 . S
C839 C638 1.638 . S
C833 C361 1.715 . S
C859 C652 1.387 . S
C853 C433 1.369 . S
C873 C421 1.763 . S
C879 C666 1.734 . S
C899 C681 1.540 . S
C893 C355 1.504 . S
C913 C427 1.679 . S
C919 C697 1.675 . S
C939 C710 1.567 . S
C933 C325 1.559 . S
C953 C385 1.603 . S
C959 C695 1.564 . S
C979 C708 1.569 . S
C973 C463 1.575 . S
C993 C253 1.850 . S
C999 C724 1.855 . S
C1013 C145 1.636 . S
C1019 C723 1.601 . S
C1033 C205 1.733 . S
C1039 C722 1.663 . S
C1053 C217 1.628 . S
C1059 C725 1.631 . S
C1073 C139 1.713 . S
C1079 C627 1.707 . S
C1093 C535 1.508 . S
C1099 C625 1.484 . S
C1119 C585 1.539 . S
C1113 C565 1.544 . S
C1139 C596 1.750 . S
C1133 C313 1.764 . S
C1153 C175 1.679 . S
C1159 C641 1.637 . S
C1179 C682 1.885 . S
C1173 C397 1.883 . S
C1199 C639 1.554 . S
C1193 C349 1.517 . S
C1219 C667 1.553 . S
C1213 C457 1.566 . S
C1239 C668 1.618 . S
C1233 C505 1.621 . S
C1253 C571 1.740 . S
C1259 C683 1.731 . S
C1273 C319 1.708 . S
C1279 C640 1.705 . S
C1299 C654 1.577 . S
C1293 C493 1.628 . S
C1313 C109 1.714 . S
C1319 C610 1.656 . S
C1339 C624 1.383 . S
C1333 C1 1.364 . S
C1359 C582 1.736 . S
C1353 C61 1.755 . S
C1379 C597 1.537 . S
C1373 C103 1.508 . S
C1393 C67 1.677 . S
C1399 C711 1.675 . S
C1413 C73 1.558 . S
C1419 C696 1.568 . S
C1433 C133 1.606 . S
C1439 C709 1.561 . S
C1453 C31 1.558 . S
C1459 C694 1.578 . S
C1479 C738 1.851 . S
C1473 C289 1.848 . S
C1499 C737 1.600 . S
C1493 C469 1.636 . S
C1519 C736 1.671 . S
C1513 C529 1.732 . S
C1533 C541 1.615 1_554 S
C1539 C739 1.616 . S
C1553 C391 1.713 . S
C1559 C655 1.699 . S
C1579 C653 1.486 . S
C1573 C211 1.503 . S
C1599 C669 1.543 . S
C1593 C241 1.539 . S
C1619 C680 1.745 . S
C1613 C277 1.763 . S
C1633 C499 1.664 . S
C1639 C613 1.636 . S
C1659 C598 1.882 . S
C1653 C37 1.888 . S
C1673 C97 1.519 . S
C1679 C611 1.554 . S
C1699 C583 1.557 . S
C1693 C25 1.580 . S
