# Generated by pormake.
# Topology hwx, (6,3)-cn, num edge types: 1
# Building blocks:
#     Node 0, Type 0, BuildingBlock: IZENUY_clean_sbu_0, # of connection points: 6
#     Node 1, Type 0, BuildingBlock: IZENUY_clean_sbu_0, # of connection points: 6
#     Node 2, Type 0, BuildingBlock: IZENUY_clean_sbu_0, # of connection points: 6
#     Node 3, Type 0, BuildingBlock: IZENUY_clean_sbu_0, # of connection points: 6
#     Node 4, Type 1, BuildingBlock: KAKCAD_clean_linker_0, # of connection points: 3
#     Node 5, Type 1, BuildingBlock: KAKCAD_clean_linker_0, # of connection points: 3
#     Node 6, Type 1, BuildingBlock: KAKCAD_clean_linker_0, # of connection points: 3
#     Node 7, Type 1, BuildingBlock: KAKCAD_clean_linker_0, # of connection points: 3
#     Node 8, Type 1, BuildingBlock: KAKCAD_clean_linker_0, # of connection points: 3
#     Node 9, Type 1, BuildingBlock: KAKCAD_clean_linker_0, # of connection points: 3
#     Node 10, Type 1, BuildingBlock: KAKCAD_clean_linker_0, # of connection points: 3
#     Node 11, Type 1, BuildingBlock: KAKCAD_clean_linker_0, # of connection points: 3
#     Edge 12, Type (0, 1), BuildingBlock: XUDNAN_clean_linker_2, # of connection points: 2
#     Edge 13, Type (0, 1), BuildingBlock: XUDNAN_clean_linker_2, # of connection points: 2
#     Edge 14, Type (0, 1), BuildingBlock: XUDNAN_clean_linker_2, # of connection points: 2
#     Edge 15, Type (0, 1), BuildingBlock: XUDNAN_clean_linker_2, # of connection points: 2
#     Edge 16, Type (0, 1), BuildingBlock: XUDNAN_clean_linker_2, # of connection points: 2
#     Edge 17, Type (0, 1), BuildingBlock: XUDNAN_clean_linker_2, # of connection points: 2
#     Edge 18, Type (0, 1), BuildingBlock: XUDNAN_clean_linker_2, # of connection points: 2
#     Edge 19, Type (0, 1), BuildingBlock: XUDNAN_clean_linker_2, # of connection points: 2
#     Edge 20, Type (0, 1), BuildingBlock: XUDNAN_clean_linker_2, # of connection points: 2
#     Edge 21, Type (0, 1), BuildingBlock: XUDNAN_clean_linker_2, # of connection points: 2
#     Edge 22, Type (0, 1), BuildingBlock: XUDNAN_clean_linker_2, # of connection points: 2
#     Edge 23, Type (0, 1), BuildingBlock: XUDNAN_clean_linker_2, # of connection points: 2
#     Edge 24, Type (0, 1), BuildingBlock: XUDNAN_clean_linker_2, # of connection points: 2
#     Edge 25, Type (0, 1), BuildingBlock: XUDNAN_clean_linker_2, # of connection points: 2
#     Edge 26, Type (0, 1), BuildingBlock: XUDNAN_clean_linker_2, # of connection points: 2
#     Edge 27, Type (0, 1), BuildingBlock: XUDNAN_clean_linker_2, # of connection points: 2
#     Edge 28, Type (0, 1), BuildingBlock: XUDNAN_clean_linker_2, # of connection points: 2
#     Edge 29, Type (0, 1), BuildingBlock: XUDNAN_clean_linker_2, # of connection points: 2
#     Edge 30, Type (0, 1), BuildingBlock: XUDNAN_clean_linker_2, # of connection points: 2
#     Edge 31, Type (0, 1), BuildingBlock: XUDNAN_clean_linker_2, # of connection points: 2
#     Edge 32, Type (0, 1), BuildingBlock: XUDNAN_clean_linker_2, # of connection points: 2
#     Edge 33, Type (0, 1), BuildingBlock: XUDNAN_clean_linker_2, # of connection points: 2
#     Edge 34, Type (0, 1), BuildingBlock: XUDNAN_clean_linker_2, # of connection points: 2
#     Edge 35, Type (0, 1), BuildingBlock: XUDNAN_clean_linker_2, # of connection points: 2
# Relax obj value: 0.051
# Max RMSD: 0.075
# Mean RMSD: 0.067
data_MOF--net-hwx--node1-IZENUY_clean_sbu_0--node2-KAKCAD_clean_linker_0--edge1-XUDNAN_clean_linker_2
_symmetry_space_group_name_H-M    P1
_symmetry_Int_Tables_number       1
_symmetry_cell_setting            triclinic
loop_
_symmetry_equiv_pos_as_xyz
'x, y, z'
_cell_length_a     58.076664
_cell_length_b     58.138466
_cell_length_c     28.114333
_cell_angle_alpha  89.855989
_cell_angle_beta   90.068971
_cell_angle_gamma 90.026383
loop_
_atom_site_label
_atom_site_type_symbol
_atom_site_fract_x
_atom_site_fract_y
_atom_site_fract_z
_atom_type_partial_charge
Fe0 Fe 0.24847 0.21695 0.04531 0.0
Fe1 Fe 0.23921 0.2272 0.94023 0.0
O2 O 0.23528 0.20935 0.99067 0.0
Fe3 Fe 0.21814 0.18409 0.98683 0.0
O4 O 0.19866 0.19407 0.03329 0.0
O5 O 0.22619 0.2041 0.08264 0.0
O6 O 0.23246 0.24369 0.04771 0.0
C7 C 0.23276 0.25882 0.01548 0.0
C8 C 0.25609 0.17078 0.04488 0.0
O9 O 0.24016 0.25412 0.97425 0.0
C10 C 0.24205 0.18215 0.90298 0.0
O11 O 0.27356 0.23116 0.0184 0.0
O12 O 0.27015 0.2238 0.94237 0.0
O13 O 0.23573 0.1678 0.02961 0.0
O14 O 0.26502 0.19057 0.04647 0.0
C15 C 0.19356 0.21644 0.93053 0.0
O16 O 0.23906 0.20353 0.89718 0.0
O17 O 0.23628 0.17215 0.94089 0.0
C18 C 0.28243 0.22911 0.97756 0.0
O19 O 0.20859 0.23192 0.9345 0.0
O20 O 0.19782 0.19589 0.9428 0.0
C21 C 0.20544 0.1988 0.07479 0.0
Fe22 Fe 0.26598 0.71931 0.55133 0.0
Fe23 Fe 0.28453 0.67859 0.49357 0.0
O24 O 0.26732 0.70372 0.49738 0.0
Fe25 Fe 0.25172 0.71354 0.44726 0.0
O26 O 0.26679 0.74076 0.44738 0.0
O27 O 0.2622 0.74771 0.52333 0.0
O28 O 0.29664 0.72466 0.54966 0.0
C29 C 0.31168 0.70904 0.54885 0.0
C30 C 0.22095 0.72078 0.524 0.0
O31 O 0.30654 0.68879 0.53587 0.0
C32 C 0.2447 0.66732 0.43979 0.0
O33 O 0.26977 0.69387 0.58953 0.0
O34 O 0.26821 0.66454 0.54046 0.0
O35 O 0.22768 0.72507 0.48204 0.0
O36 O 0.23512 0.71493 0.5559 0.0
C37 C 0.29423 0.69979 0.40872 0.0
O38 O 0.26559 0.66395 0.45083 0.0
O39 O 0.23571 0.68696 0.44328 0.0
C40 C 0.26623 0.67272 0.58172 0.0
O41 O 0.30205 0.69107 0.44655 0.0
O42 O 0.27297 0.70384 0.40378 0.0
C43 C 0.26744 0.75447 0.48191 0.0
Fe44 Fe 0.75734 0.79835 0.95234 0.0
Fe45 Fe 0.76208 0.79032 0.05965 0.0
O46 O 0.76675 0.80788 0.00898 0.0
Fe47 Fe 0.78064 0.83494 0.01513 0.0
O48 O 0.75599 0.85024 0.99061 0.0
O49 O 0.75092 0.82718 0.9297 0.0
O50 O 0.7275 0.79677 0.97211 0.0
C51 C 0.72087 0.78565 0.00819 0.0
C52 C 0.79902 0.81716 0.92913 0.0
O53 O 0.73523 0.7779 0.03793 0.0
C54 C 0.80654 0.80814 0.0748 0.0
O55 O 0.76232 0.76774 0.96457 0.0
O56 O 0.77896 0.76704 0.03483 0.0
O57 O 0.79478 0.83377 0.95687 0.0
O58 O 0.78642 0.79945 0.92883 0.0
C59 C 0.75137 0.8327 0.09535 0.0
O60 O 0.78816 0.79944 0.09068 0.0
O61 O 0.80638 0.82168 0.03973 0.0
C62 C 0.77511 0.75792 0.99496 0.0
O63 O 0.74477 0.8124 0.08755 0.0
O64 O 0.76892 0.84086 0.07458 0.0
C65 C 0.74745 0.84623 0.95013 0.0
Fe66 Fe 0.71925 0.33104 0.5148 0.0
Fe67 Fe 0.74615 0.29 0.55668 0.0
O68 O 0.73351 0.30423 0.50741 0.0
Fe69 Fe 0.73527 0.29134 0.45036 0.0
O70 O 0.75155 0.31554 0.42799 0.0
O71 O 0.72883 0.34259 0.45678 0.0
O72 O 0.74444 0.34455 0.54051 0.0
C73 C 0.75571 0.33697 0.57545 0.0
C74 C 0.69076 0.31143 0.44915 0.0
O75 O 0.75411 0.31623 0.58849 0.0
C76 C 0.7248 0.25422 0.50554 0.0
O77 O 0.70742 0.32392 0.57397 0.0
O78 O 0.71883 0.28828 0.5867 0.0
O79 O 0.70816 0.30337 0.428 0.0
O80 O 0.69265 0.32006 0.48995 0.0
C81 C 0.77895 0.28205 0.48975 0.0
O82 O 0.74015 0.26104 0.53426 0.0
O83 O 0.71904 0.26634 0.47015 0.0
C84 C 0.70547 0.30479 0.59546 0.0
O85 O 0.77445 0.2908 0.52961 0.0
O86 O 0.76289 0.27698 0.4612 0.0
C87 C 0.74515 0.33626 0.42975 0.0
C88 C 0.21705 0.55255 0.8444 0.0
C89 C 0.23048 0.57236 0.85197 0.0
C90 C 0.20771 0.54041 0.88304 0.0
C91 C 0.21154 0.54794 0.92993 0.0
C92 C 0.22482 0.56785 0.93717 0.0
C93 C 0.23399 0.57995 0.89883 0.0
C94 C 0.20258 0.53497 0.97178 0.0
C95 C 0.20384 0.51081 0.97368 0.0
C96 C 0.1986 0.49895 0.01598 0.0
C97 C 0.19201 0.51149 0.05641 0.0
C98 C 0.19054 0.53558 0.05523 0.0
C99 C 0.19503 0.54703 0.01217 0.0
C100 C 0.18714 0.54881 0.10011 0.0
C101 C 0.17345 0.54008 0.13739 0.0
C102 C 0.19948 0.56933 0.10775 0.0
C103 C 0.1989 0.58027 0.1518 0.0
C104 C 0.1863 0.5708 0.18961 0.0
C105 C 0.20145 0.4736 0.01942 0.0
C106 C 0.19322 0.459 0.98344 0.0
C107 C 0.21201 0.46381 0.05969 0.0
C108 C 0.21368 0.44 0.06462 0.0
C109 C 0.20493 0.42535 0.02933 0.0
C110 C 0.19494 0.43508 0.98834 0.0
C111 C 0.17326 0.55083 0.18188 0.0
H112 H 0.21409 0.54621 0.80873 0.0
H113 H 0.19748 0.52519 0.87621 0.0
H114 H 0.22856 0.57397 0.97271 0.0
H115 H 0.24387 0.59536 0.90606 0.0
H116 H 0.21019 0.50133 0.94327 0.0
H117 H 0.19336 0.56556 0.01045 0.0
H118 H 0.18882 0.5024 0.0894 0.0
H119 H 0.16333 0.52461 0.13267 0.0
H120 H 0.21065 0.5764 0.0806 0.0
H121 H 0.2094 0.59547 0.15706 0.0
H122 H 0.18492 0.46604 0.9521 0.0
H123 H 0.21908 0.47459 0.08749 0.0
H124 H 0.16332 0.54329 0.21053 0.0
H125 H 0.18797 0.42421 0.96061 0.0
H126 H 0.22197 0.43306 0.09606 0.0
C127 C 0.94387 0.78196 0.32585 0.0
C128 C 0.92622 0.79762 0.31457 0.0
C129 C 0.95441 0.78232 0.37052 0.0
C130 C 0.94777 0.79853 0.40493 0.0
C131 C 0.93108 0.81505 0.39264 0.0
C132 C 0.92036 0.81453 0.34811 0.0
C133 C 0.95711 0.79719 0.45425 0.0
C134 C 0.98012 0.79075 0.46255 0.0
C135 C 0.98848 0.78774 0.50913 0.0
C136 C 0.97363 0.79162 0.54766 0.0
C137 C 0.95076 0.79846 0.54013 0.0
C138 C 0.94262 0.80116 0.49345 0.0
C139 C 0.9353 0.80258 0.58111 0.0
C140 C 0.93416 0.7867 0.61882 0.0
C141 C 0.92185 0.82261 0.58308 0.0
C142 C 0.90785 0.82691 0.62243 0.0
C143 C 0.90685 0.81114 0.66032 0.0
C144 C 0.01255 0.78007 0.51763 0.0
C145 C 0.02245 0.76289 0.48911 0.0
C146 C 0.02565 0.7895 0.55491 0.0
C147 C 0.04807 0.78184 0.56362 0.0
C148 C 0.05793 0.76467 0.53509 0.0
C149 C 0.0449 0.75531 0.49768 0.0
C150 C 0.91996 0.79088 0.65794 0.0
H151 H 0.94914 0.76896 0.30058 0.0
H152 H 0.96708 0.76922 0.37866 0.0
H153 H 0.92586 0.82808 0.41787 0.0
H154 H 0.90675 0.82679 0.3409 0.0
H155 H 0.99162 0.78825 0.43271 0.0
H156 H 0.92469 0.80554 0.48781 0.0
H157 H 0.97982 0.78921 0.58372 0.0
H158 H 0.94421 0.77101 0.61796 0.0
H159 H 0.92249 0.83518 0.55459 0.0
H160 H 0.89776 0.84257 0.62318 0.0
H161 H 0.01271 0.75498 0.46063 0.0
H162 H 0.01868 0.803 0.5771 0.0
H163 H 0.91959 0.7785 0.68679 0.0
H164 H 0.05194 0.74185 0.47545 0.0
H165 H 0.05782 0.78963 0.59223 0.0
C166 C 0.7681 0.44333 0.14076 0.0
C167 C 0.78461 0.44552 0.17703 0.0
C168 C 0.77012 0.45609 0.09878 0.0
C169 C 0.78851 0.47152 0.09254 0.0
C170 C 0.80453 0.47436 0.12953 0.0
C171 C 0.80269 0.46136 0.17126 0.0
C172 C 0.79165 0.48368 0.04661 0.0
C173 C 0.79615 0.50742 0.04535 0.0
C174 C 0.79964 0.51884 0.00175 0.0
C175 C 0.79917 0.50605 0.95935 0.0
C176 C 0.79468 0.48234 0.96015 0.0
C177 C 0.7907 0.47133 0.0038 0.0
C178 C 0.79426 0.46899 0.91541 0.0
C179 C 0.77543 0.45475 0.90472 0.0
C180 C 0.81291 0.46999 0.88371 0.0
C181 C 0.81298 0.45653 0.84256 0.0
C182 C 0.79418 0.44221 0.83198 0.0
C183 C 0.80275 0.54422 1.00006 0.0
C184 C 0.78906 0.55864 0.02843 0.0
C185 C 0.81848 0.55427 0.96819 0.0
C186 C 0.81984 0.57817 0.96348 0.0
C187 C 0.80556 0.59255 0.99063 0.0
C188 C 0.79047 0.58254 0.0238 0.0
C189 C 0.77529 0.44164 0.86315 0.0
H190 H 0.75409 0.43113 0.14412 0.0
H191 H 0.75745 0.45371 0.0709 0.0
H192 H 0.81894 0.48604 0.12551 0.0
H193 H 0.81558 0.46345 0.1988 0.0
H194 H 0.7968 0.517 0.07835 0.0
H195 H 0.78759 0.45294 0.00454 0.0
H196 H 0.80152 0.51461 0.92541 0.0
H197 H 0.76081 0.45379 0.92855 0.0
H198 H 0.82767 0.48078 0.89136 0.0
H199 H 0.8277 0.45728 0.81899 0.0
H200 H 0.77656 0.55148 0.05288 0.0
H201 H 0.82957 0.54365 0.94644 0.0
H202 H 0.76068 0.43059 0.85594 0.0
H203 H 0.77902 0.59313 0.0448 0.0
H204 H 0.8319 0.58538 0.93815 0.0
C205 C 0.06073 0.21348 0.67531 0.0
C206 C 0.07898 0.22903 0.68191 0.0
C207 C 0.05017 0.21142 0.63071 0.0
C208 C 0.0581 0.22449 0.59195 0.0
C209 C 0.07635 0.23998 0.59865 0.0
C210 C 0.08657 0.24235 0.64326 0.0
C211 C 0.0477 0.22197 0.54422 0.0
C212 C 0.02401 0.22512 0.53751 0.0
C213 C 0.01438 0.22438 0.4916 0.0
C214 C 0.02881 0.22 0.45243 0.0
C215 C 0.0526 0.21669 0.45866 0.0
C216 C 0.0618 0.21759 0.50488 0.0
C217 C 0.06802 0.21279 0.41716 0.0
C218 C 0.06103 0.19907 0.37849 0.0
C219 C 0.09022 0.22247 0.41652 0.0
C220 C 0.10539 0.21771 0.37946 0.0
C221 C 0.09862 0.20351 0.34171 0.0
C222 C 0.98949 0.22921 0.4844 0.0
C223 C 0.97296 0.2208 0.51661 0.0
C224 C 0.98211 0.24273 0.44574 0.0
C225 C 0.95879 0.24768 0.43936 0.0
C226 C 0.94234 0.23939 0.47169 0.0
C227 C 0.94964 0.22592 0.51041 0.0
C228 C 0.07618 0.19459 0.34089 0.0
H229 H 0.05462 0.20303 0.70465 0.0
H230 H 0.03614 0.19933 0.62623 0.0
H231 H 0.08266 0.25032 0.5693 0.0
H232 H 0.10077 0.25428 0.64734 0.0
H233 H 0.01329 0.22918 0.56789 0.0
H234 H 0.08004 0.21471 0.51057 0.0
H235 H 0.02155 0.21949 0.41695 0.0
H236 H 0.04413 0.1912 0.37792 0.0
H237 H 0.09601 0.23366 0.44486 0.0
H238 H 0.12256 0.225 0.38045 0.0
H239 H 0.97802 0.21009 0.54641 0.0
H240 H 0.99439 0.24991 0.42083 0.0
H241 H 0.07067 0.18351 0.31213 0.0
H242 H 0.93727 0.21909 0.53557 0.0
H243 H 0.95368 0.25838 0.40958 0.0
C244 C 0.68599 0.96842 0.68867 0.0
C245 C 0.70272 0.95122 0.69478 0.0
C246 C 0.68298 0.97901 0.6443 0.0
C247 C 0.69677 0.97273 0.60527 0.0
C248 C 0.71381 0.95584 0.6119 0.0
C249 C 0.71668 0.94517 0.65601 0.0
C250 C 0.69349 0.98362 0.55774 0.0
C251 C 0.68895 0.00727 0.55361 0.0
C252 C 0.68669 0.01777 0.5087 0.0
C253 C 0.68883 0.0043 0.4675 0.0
C254 C 0.69341 0.98065 0.47103 0.0
C255 C 0.69558 0.97046 0.51612 0.0
C256 C 0.69652 0.96647 0.42784 0.0
C257 C 0.67992 0.96653 0.39147 0.0
C258 C 0.71589 0.95218 0.42359 0.0
C259 C 0.71851 0.93798 0.38401 0.0
C260 C 0.70164 0.93755 0.34819 0.0
C261 C 0.68353 0.04305 0.50536 0.0
C262 C 0.6679 0.05429 0.53545 0.0
C263 C 0.6974 0.05629 0.47483 0.0
C264 C 0.69663 0.08032 0.47644 0.0
C265 C 0.68189 0.09158 0.5085 0.0
C266 C 0.66702 0.07828 0.53687 0.0
C267 C 0.68236 0.95202 0.35215 0.0
H268 H 0.6749 0.97332 0.71788 0.0
H269 H 0.66956 0.9918 0.64036 0.0
H270 H 0.72513 0.95096 0.58305 0.0
H271 H 0.73003 0.93229 0.65989 0.0
H272 H 0.68813 0.01775 0.58539 0.0
H273 H 0.69866 0.95211 0.51866 0.0
H274 H 0.6873 0.01226 0.43273 0.0
H275 H 0.66479 0.97735 0.39407 0.0
H276 H 0.729 0.95194 0.45105 0.0
H277 H 0.73345 0.92687 0.38202 0.0
H278 H 0.65672 0.04451 0.55878 0.0
H279 H 0.70974 0.04809 0.4515 0.0
H280 H 0.66917 0.95208 0.32485 0.0
H281 H 0.65514 0.08642 0.56125 0.0
H282 H 0.70847 0.09003 0.45443 0.0
C283 C 0.56265 0.30562 0.18471 0.0
C284 C 0.57542 0.32505 0.19813 0.0
C285 C 0.55133 0.30511 0.14085 0.0
C286 C 0.55306 0.3238 0.10933 0.0
C287 C 0.56575 0.34328 0.12283 0.0
C288 C 0.57663 0.34401 0.16721 0.0
C289 C 0.54252 0.32239 0.06159 0.0
C290 C 0.51897 0.31751 0.05672 0.0
C291 C 0.50916 0.31446 0.01148 0.0
C292 C 0.5233 0.3162 0.97112 0.0
C293 C 0.54703 0.32044 0.97544 0.0
C294 C 0.55642 0.32406 0.0209 0.0
C295 C 0.56225 0.31853 0.93313 0.0
C296 C 0.55855 0.30082 0.90002 0.0
C297 C 0.58115 0.33335 0.92663 0.0
C298 C 0.59632 0.33013 0.88849 0.0
C299 C 0.59291 0.31194 0.85637 0.0
C300 C 0.48464 0.30765 0.00603 0.0
C301 C 0.47492 0.29088 0.03606 0.0
C302 C 0.47128 0.31662 0.9686 0.0
C303 C 0.44908 0.30834 0.96019 0.0
C304 C 0.43969 0.291 0.98916 0.0
C305 C 0.45266 0.28268 0.02777 0.0
C306 C 0.57361 0.29765 0.86208 0.0
H307 H 0.56155 0.29081 0.20808 0.0
H308 H 0.54177 0.28984 0.13093 0.0
H309 H 0.56731 0.35785 0.09895 0.0
H310 H 0.58656 0.35908 0.17683 0.0
H311 H 0.50834 0.31603 0.08826 0.0
H312 H 0.57479 0.32671 0.02501 0.0
H313 H 0.51597 0.31328 0.9362 0.0
H314 H 0.54441 0.28884 0.9042 0.0
H315 H 0.58437 0.34726 0.95132 0.0
H316 H 0.6111 0.34137 0.88508 0.0
H317 H 0.48485 0.28338 0.06481 0.0
H318 H 0.47812 0.32983 0.94535 0.0
H319 H 0.57031 0.28368 0.83755 0.0
H320 H 0.44594 0.26918 0.05047 0.0
H321 H 0.43931 0.31538 0.93071 0.0
C322 C 0.27666 0.04675 0.30995 0.0
C323 C 0.29208 0.06479 0.30009 0.0
C324 C 0.27669 0.03596 0.35433 0.0
C325 C 0.29207 0.043 0.39003 0.0
C326 C 0.30748 0.06105 0.38037 0.0
C327 C 0.30753 0.0718 0.33581 0.0
C328 C 0.29194 0.03146 0.43716 0.0
C329 C 0.29047 0.00748 0.44008 0.0
C330 C 0.28943 0.99623 0.48428 0.0
C331 C 0.29071 0.00933 0.52622 0.0
C332 C 0.29223 0.03354 0.52408 0.0
C333 C 0.29264 0.04435 0.47916 0.0
C334 C 0.29262 0.04781 0.56817 0.0
C335 C 0.27982 0.04149 0.60863 0.0
C336 C 0.30499 0.0686 0.56923 0.0
C337 C 0.30366 0.08322 0.60838 0.0
C338 C 0.29047 0.07723 0.64852 0.0
C339 C 0.28666 0.97082 0.48553 0.0
C340 C 0.27164 0.96011 0.45317 0.0
C341 C 0.29977 0.95701 0.51654 0.0
C342 C 0.29869 0.93296 0.51343 0.0
C343 C 0.28462 0.92244 0.47907 0.0
C344 C 0.27073 0.93624 0.4498 0.0
C345 C 0.27894 0.0559 0.64842 0.0
H346 H 0.26415 0.04126 0.28372 0.0
H347 H 0.26436 0.02235 0.361 0.0
H348 H 0.31969 0.06667 0.40709 0.0
H349 H 0.31979 0.08549 0.32924 0.0
H350 H 0.29036 0.99747 0.40759 0.0
H351 H 0.29273 0.06295 0.47661 0.0
H352 H 0.29026 0.00066 0.56034 0.0
H353 H 0.2699 0.02573 0.60923 0.0
H354 H 0.31553 0.07388 0.53939 0.0
H355 H 0.31255 0.09955 0.60628 0.0
H356 H 0.26085 0.97024 0.42966 0.0
H357 H 0.31152 0.96475 0.54179 0.0
H358 H 0.26898 0.05034 0.67887 0.0
H359 H 0.25938 0.92853 0.42371 0.0
H360 H 0.30955 0.92264 0.53643 0.0
C361 C 0.44361 0.70257 0.80496 0.0
C362 C 0.42592 0.71841 0.79546 0.0
C363 C 0.45324 0.70114 0.85059 0.0
C364 C 0.44483 0.71509 0.88739 0.0
C365 C 0.427 0.73072 0.87783 0.0
C366 C 0.41775 0.73247 0.83224 0.0
C367 C 0.45471 0.714 0.93577 0.0
C368 C 0.47814 0.71844 0.94308 0.0
C369 C 0.48697 0.7208 0.98939 0.0
C370 C 0.47203 0.71812 0.02847 0.0
C371 C 0.44847 0.71356 0.02167 0.0
C372 C 0.44012 0.71116 0.97501 0.0
C373 C 0.43222 0.71338 0.06271 0.0
C374 C 0.43863 0.70426 0.10724 0.0
C375 C 0.41024 0.72325 0.0579 0.0
C376 C 0.39518 0.72415 0.09638 0.0
C377 C 0.40177 0.71568 0.14125 0.0
C378 C 0.51131 0.72791 0.99671 0.0
C379 C 0.52906 0.71882 0.9684 0.0
C380 C 0.51685 0.74446 0.03126 0.0
C381 C 0.53959 0.75152 0.03781 0.0
C382 C 0.55733 0.74232 0.00979 0.0
C383 C 0.55184 0.72601 0.97478 0.0
C384 C 0.42359 0.70545 0.14612 0.0
H385 H 0.4501 0.69154 0.77703 0.0
H386 H 0.46701 0.689 0.85731 0.0
H387 H 0.4204 0.74179 0.9056 0.0
H388 H 0.40395 0.74463 0.82584 0.0
H389 H 0.48916 0.72149 0.91261 0.0
H390 H 0.42205 0.70756 0.96885 0.0
H391 H 0.47864 0.72038 0.06419 0.0
H392 H 0.45531 0.69628 0.11218 0.0
H393 H 0.40472 0.73085 0.02459 0.0
H394 H 0.37833 0.73168 0.09083 0.0
H395 H 0.52539 0.70593 0.94168 0.0
H396 H 0.50357 0.75228 0.05282 0.0
H397 H 0.42929 0.69881 0.18018 0.0
H398 H 0.56522 0.71847 0.95302 0.0
H399 H 0.54327 0.76439 0.06456 0.0
H400 H 0.15884 0.20699 0.08626 0.0
H401 H 0.21941 0.17985 0.15747 0.0
H402 H 0.19706 0.17432 0.23074 0.0
H403 H 0.13924 0.23931 0.18274 0.0
H404 H 0.10895 0.23421 0.17335 0.0
H405 H 0.12856 0.23316 0.12388 0.0
H406 H 0.11472 0.19193 0.10397 0.0
H407 H 0.09499 0.19287 0.15338 0.0
H408 H 0.11575 0.16993 0.14923 0.0
H409 H 0.17039 0.17556 0.29797 0.0
H410 H 0.13997 0.18348 0.35684 0.0
H411 H 0.09578 0.20978 0.2448 0.0
C412 C 0.16712 0.19938 0.11704 0.0
C413 C 0.19079 0.19382 0.11632 0.0
C414 C 0.2013 0.18436 0.15743 0.0
C415 C 0.18873 0.18099 0.19915 0.0
C416 C 0.16562 0.18718 0.19932 0.0
C417 C 0.15479 0.19611 0.15951 0.0
C418 C 0.13023 0.20311 0.17106 0.0
C419 C 0.12654 0.22898 0.16224 0.0
C420 C 0.1129 0.18859 0.14272 0.0
C421 C 0.12933 0.19733 0.22374 0.0
C422 C 0.14991 0.18791 0.23895 0.0
C423 C 0.15404 0.18258 0.28649 0.0
C424 C 0.13676 0.18722 0.31964 0.0
C425 C 0.11563 0.19708 0.30512 0.0
C426 C 0.1117 0.20185 0.25647 0.0
H427 H 0.2328 0.64123 0.60457 0.0
H428 H 0.29829 0.66922 0.65071 0.0
H429 H 0.29781 0.64363 0.72102 0.0
H430 H 0.20824 0.63925 0.72016 0.0
H431 H 0.19227 0.61307 0.71058 0.0
H432 H 0.19892 0.63159 0.66108 0.0
H433 H 0.21858 0.59754 0.6179 0.0
H434 H 0.21205 0.57891 0.66744 0.0
H435 H 0.24136 0.58196 0.64735 0.0
H436 H 0.28992 0.61626 0.78671 0.0
H437 H 0.27358 0.59122 0.84873 0.0
H438 H 0.21148 0.58276 0.76427 0.0
C439 C 0.24711 0.64161 0.62929 0.0
C440 C 0.26569 0.6569 0.62244 0.0
C441 C 0.28397 0.6575 0.65567 0.0
C442 C 0.28389 0.64298 0.69543 0.0
C443 C 0.26525 0.62819 0.70164 0.0
C444 C 0.24705 0.62753 0.66989 0.0
C445 C 0.22824 0.61149 0.6874 0.0
C446 C 0.20558 0.62464 0.69528 0.0
C447 C 0.22487 0.59128 0.65296 0.0
C448 C 0.23862 0.6035 0.73415 0.0
C449 C 0.26014 0.61307 0.74109 0.0
C450 C 0.27304 0.60871 0.78183 0.0
C451 C 0.26352 0.59459 0.81702 0.0
C452 C 0.2411 0.58524 0.81178 0.0
C453 C 0.22871 0.58945 0.76924 0.0
H454 H 0.83777 0.83802 0.11395 0.0
H455 H 0.82264 0.76572 0.09366 0.0
H456 H 0.85572 0.75528 0.14449 0.0
H457 H 0.90231 0.83255 0.12438 0.0
H458 H 0.90366 0.85385 0.17077 0.0
H459 H 0.88173 0.85575 0.12547 0.0
H460 H 0.85029 0.85644 0.19074 0.0
H461 H 0.87203 0.85438 0.23613 0.0
H462 H 0.84914 0.83346 0.23387 0.0
H463 H 0.88647 0.75255 0.20466 0.0
H464 H 0.91244 0.75746 0.27287 0.0
H465 H 0.90805 0.83168 0.25675 0.0
C466 C 0.84206 0.82005 0.119 0.0
C467 C 0.82812 0.80259 0.09943 0.0
C468 C 0.83343 0.77923 0.10808 0.0
C469 C 0.85219 0.77317 0.1367 0.0
C470 C 0.86532 0.79071 0.1567 0.0
C471 C 0.86057 0.81369 0.14833 0.0
C472 C 0.8756 0.82903 0.17899 0.0
C473 C 0.89179 0.84366 0.14805 0.0
C474 C 0.86088 0.84421 0.21187 0.0
C475 C 0.88888 0.81106 0.20698 0.0
C476 C 0.88298 0.78911 0.19279 0.0
C477 C 0.89165 0.76965 0.21545 0.0
C478 C 0.90653 0.77264 0.25411 0.0
C479 C 0.91258 0.79496 0.27006 0.0
C480 C 0.90385 0.81439 0.24549 0.0
H481 H 0.73958 0.37755 0.60956 0.0
H482 H 0.79832 0.33172 0.61423 0.0
H483 H 0.81673 0.35653 0.67491 0.0
H484 H 0.77022 0.43241 0.63379 0.0
H485 H 0.74743 0.44276 0.67156 0.0
H486 H 0.74089 0.42375 0.62281 0.0
H487 H 0.72079 0.39566 0.68126 0.0
H488 H 0.7274 0.41443 0.73015 0.0
H489 H 0.73655 0.38482 0.73185 0.0
H490 H 0.82732 0.38476 0.73889 0.0
H491 H 0.82805 0.41238 0.80571 0.0
H492 H 0.76089 0.43786 0.7636 0.0
C493 C 0.75667 0.37325 0.62227 0.0
C494 C 0.76791 0.35317 0.60663 0.0
C495 C 0.78973 0.34733 0.62544 0.0
C496 C 0.80027 0.36132 0.65974 0.0
C497 C 0.78853 0.38082 0.67529 0.0
C498 C 0.76712 0.38669 0.6574 0.0
C499 C 0.75687 0.40681 0.68415 0.0
C500 C 0.75367 0.42767 0.6511 0.0
C501 C 0.73406 0.40001 0.70828 0.0
C502 C 0.77567 0.41109 0.7204 0.0
C503 C 0.794 0.39625 0.71406 0.0
C504 C 0.81315 0.39658 0.74398 0.0
C505 C 0.81345 0.41232 0.7817 0.0
C506 C 0.79455 0.42718 0.7896 0.0
C507 C 0.77555 0.42665 0.75827 0.0
H508 H 0.67678 0.2873 0.37103 0.0
H509 H 0.65607 0.34235 0.46572 0.0
H510 H 0.62256 0.35046 0.41409 0.0
H511 H 0.6636 0.31468 0.26466 0.0
H512 H 0.65281 0.28948 0.23479 0.0
H513 H 0.67382 0.28652 0.28145 0.0
H514 H 0.64666 0.25889 0.32722 0.0
H515 H 0.6256 0.26156 0.28041 0.0
H516 H 0.61775 0.26796 0.34096 0.0
H517 H 0.59442 0.35582 0.34638 0.0
H518 H 0.57143 0.35524 0.27194 0.0
H519 H 0.60921 0.29531 0.22451 0.0
C520 C 0.66495 0.30078 0.38139 0.0
C521 C 0.66903 0.31421 0.42232 0.0
C522 C 0.65319 0.33173 0.43469 0.0
C523 C 0.63415 0.33651 0.4055 0.0
C524 C 0.63099 0.32334 0.36465 0.0
C525 C 0.64572 0.30554 0.35311 0.0
C526 C 0.63896 0.29441 0.30653 0.0
C527 C 0.65846 0.29641 0.2697 0.0
C528 C 0.63181 0.26921 0.31426 0.0
C529 C 0.61854 0.30916 0.29291 0.0
C530 C 0.61422 0.32581 0.32679 0.0
C531 C 0.59732 0.34256 0.32012 0.0
C532 C 0.58445 0.34219 0.27782 0.0
C533 C 0.58843 0.32504 0.24323 0.0
C534 C 0.60556 0.30828 0.25107 0.0
H535 H 0.22525 0.14386 0.85849 0.0
H536 H 0.28334 0.19063 0.86235 0.0
H537 H 0.30316 0.1674 0.80109 0.0
H538 H 0.25641 0.09121 0.83791 0.0
H539 H 0.23563 0.0798 0.79652 0.0
H540 H 0.22652 0.09926 0.84259 0.0
H541 H 0.20869 0.12643 0.77927 0.0
H542 H 0.21751 0.10693 0.7331 0.0
H543 H 0.22631 0.13665 0.73088 0.0
H544 H 0.31723 0.13809 0.7427 0.0
H545 H 0.32261 0.10829 0.68193 0.0
H546 H 0.25308 0.0835 0.70828 0.0
C547 C 0.24216 0.14907 0.84633 0.0
C548 C 0.25298 0.16881 0.865 0.0
C549 C 0.2749 0.17551 0.84812 0.0
C550 C 0.28629 0.16237 0.81369 0.0
C551 C 0.27526 0.14289 0.79598 0.0
C552 C 0.25349 0.13653 0.81093 0.0
C553 C 0.24484 0.1158 0.78363 0.0
C554 C 0.2406 0.09531 0.81718 0.0
C555 C 0.22305 0.12182 0.75502 0.0
C556 C 0.26521 0.11145 0.75125 0.0
C557 C 0.28271 0.127 0.75963 0.0
C558 C 0.30348 0.12606 0.73514 0.0
C559 C 0.30626 0.10913 0.70026 0.0
C560 C 0.28814 0.09363 0.68912 0.0
C561 C 0.26745 0.09478 0.71572 0.0
H562 H 0.33188 0.67613 0.37408 0.0
H563 H 0.29131 0.73812 0.3551 0.0
H564 H 0.31641 0.75008 0.28893 0.0
H565 H 0.38809 0.70045 0.34228 0.0
H566 H 0.39711 0.67535 0.30973 0.0
H567 H 0.3774 0.67244 0.35886 0.0
H568 H 0.34815 0.65175 0.30401 0.0
H569 H 0.36778 0.65453 0.25481 0.0
H570 H 0.33889 0.6656 0.24982 0.0
H571 H 0.34511 0.75539 0.22529 0.0
H572 H 0.37374 0.75217 0.16146 0.0
H573 H 0.39406 0.68501 0.21524 0.0
C574 C 0.32856 0.69232 0.35622 0.0
C575 C 0.30984 0.70636 0.36975 0.0
C576 C 0.3056 0.72719 0.34514 0.0
C577 C 0.31982 0.73418 0.30774 0.0
C578 C 0.33802 0.71996 0.29488 0.0
C579 C 0.34232 0.69933 0.3178 0.0
C580 C 0.36192 0.68653 0.29397 0.0
C581 C 0.38234 0.68352 0.32826 0.0
C582 C 0.35369 0.66322 0.27449 0.0
C583 C 0.36776 0.70314 0.25401 0.0
C584 C 0.35396 0.72245 0.2559 0.0
C585 C 0.35591 0.74026 0.22308 0.0
C586 C 0.37211 0.73815 0.18663 0.0
C587 C 0.38594 0.71814 0.18256 0.0
C588 C 0.3839 0.70057 0.21733 0.0
H589 H 0.73226 0.8442 0.85848 0.0
H590 H 0.73867 0.89094 0.97797 0.0
H591 H 0.72447 0.92281 0.92716 0.0
H592 H 0.75373 0.88153 0.77345 0.0
H593 H 0.7349 0.87207 0.72638 0.0
H594 H 0.74249 0.85261 0.77367 0.0
H595 H 0.69929 0.84591 0.79232 0.0
H596 H 0.69151 0.86524 0.74474 0.0
H597 H 0.68092 0.87023 0.80406 0.0
H598 H 0.71255 0.9502 0.86026 0.0
H599 H 0.70486 0.97033 0.78404 0.0
H600 H 0.70737 0.9051 0.70982 0.0
C601 C 0.73028 0.861 0.87451 0.0
C602 C 0.73653 0.86502 0.92237 0.0
C603 C 0.7339 0.8874 0.94147 0.0
C604 C 0.72583 0.9056 0.91287 0.0
C605 C 0.72042 0.90108 0.8654 0.0
C606 C 0.72248 0.87925 0.84656 0.0
C607 C 0.71733 0.879 0.79385 0.0
C608 C 0.73836 0.87083 0.76518 0.0
C609 C 0.69599 0.86422 0.78313 0.0
C610 C 0.71254 0.90421 0.78551 0.0
C611 C 0.71408 0.9167 0.82718 0.0
C612 C 0.7111 0.94052 0.82757 0.0
C613 C 0.70669 0.9518 0.7842 0.0
C614 C 0.7056 0.93926 0.7411 0.0
C615 C 0.70828 0.91515 0.74216 0.0
H616 H 0.81405 0.7854 0.86341 0.0
H617 H 0.82534 0.85532 0.91258 0.0
H618 H 0.85445 0.86099 0.85012 0.0
H619 H 0.87384 0.77339 0.83406 0.0
H620 H 0.86664 0.75673 0.78214 0.0
H621 H 0.847 0.75784 0.83164 0.0
H622 H 0.81458 0.77202 0.77541 0.0
H623 H 0.83411 0.77104 0.72577 0.0
H624 H 0.81919 0.79737 0.73957 0.0
H625 H 0.88094 0.85993 0.78048 0.0
H626 H 0.90464 0.85138 0.70981 0.0
H627 H 0.87688 0.78209 0.70626 0.0
C628 C 0.82273 0.80186 0.86125 0.0
C629 C 0.81732 0.81992 0.89293 0.0
C630 C 0.82914 0.84119 0.88884 0.0
C631 C 0.84571 0.84462 0.85342 0.0
C632 C 0.85043 0.82659 0.8225 0.0
C633 C 0.83945 0.80557 0.8262 0.0
C634 C 0.84765 0.78913 0.78807 0.0
C635 C 0.85949 0.76803 0.81032 0.0
C636 C 0.82769 0.78198 0.75527 0.0
C637 C 0.86479 0.8043 0.76219 0.0
C638 C 0.86606 0.82585 0.7826 0.0
C639 C 0.8802 0.84308 0.76428 0.0
C640 C 0.89348 0.83812 0.72403 0.0
C641 C 0.89258 0.8161 0.7027 0.0
C642 C 0.87808 0.79899 0.72221 0.0
H643 H 0.7245 0.3724 0.38353 0.0
H644 H 0.78969 0.33692 0.40055 0.0
H645 H 0.80762 0.36329 0.34232 0.0
H646 H 0.72901 0.37894 0.25894 0.0
H647 H 0.71545 0.4068 0.25673 0.0
H648 H 0.70834 0.38696 0.30371 0.0
H649 H 0.71941 0.41758 0.36654 0.0
H650 H 0.72653 0.43756 0.31969 0.0
H651 H 0.74758 0.43058 0.36462 0.0
H652 H 0.81814 0.39241 0.28059 0.0
H653 H 0.81987 0.42041 0.21448 0.0
H654 H 0.74737 0.43567 0.23381 0.0
C655 C 0.74265 0.37052 0.37558 0.0
C656 C 0.75584 0.35286 0.39678 0.0
C657 C 0.77936 0.35043 0.38468 0.0
C658 C 0.7897 0.36537 0.35187 0.0
C659 C 0.7762 0.38246 0.3311 0.0
C660 C 0.75314 0.38501 0.3421 0.0
C661 C 0.74206 0.4035 0.31164 0.0
C662 C 0.72257 0.39344 0.28093 0.0
C663 C 0.73339 0.42349 0.34247 0.0
C664 C 0.76243 0.41074 0.28147 0.0
C665 C 0.78204 0.39865 0.29388 0.0
C666 C 0.80294 0.40207 0.27069 0.0
C667 C 0.80379 0.41807 0.23337 0.0
C668 C 0.78379 0.43021 0.21921 0.0
C669 C 0.76291 0.42658 0.24389 0.0
H670 H 0.16514 0.18685 0.88228 0.0
H671 H 0.17408 0.25876 0.91905 0.0
H672 H 0.14142 0.26905 0.86713 0.0
H673 H 0.15551 0.19576 0.76354 0.0
H674 H 0.13429 0.17344 0.7558 0.0
H675 H 0.15539 0.17103 0.80236 0.0
H676 H 0.12293 0.1667 0.8649 0.0
H677 H 0.10165 0.16899 0.81838 0.0
H678 H 0.1007 0.18825 0.86848 0.0
H679 H 0.11217 0.27234 0.80312 0.0
H680 H 0.08793 0.26828 0.73132 0.0
H681 H 0.09761 0.19438 0.73542 0.0
C682 C 0.15972 0.20466 0.8806 0.0
C683 C 0.17204 0.222 0.90491 0.0
C684 C 0.16485 0.2452 0.90079 0.0
C685 C 0.14625 0.2512 0.87157 0.0
C686 C 0.13493 0.2338 0.84685 0.0
C687 C 0.14127 0.21097 0.85125 0.0
C688 C 0.12793 0.19597 0.81686 0.0
C689 C 0.14425 0.18332 0.78262 0.0
C690 C 0.11237 0.17897 0.84377 0.0
C691 C 0.11381 0.21405 0.79114 0.0
C692 C 0.11787 0.23572 0.80953 0.0
C693 C 0.10846 0.25544 0.78903 0.0
C694 C 0.09483 0.253 0.74821 0.0
C695 C 0.09078 0.23102 0.72835 0.0
C696 C 0.1 0.2113 0.7507 0.0
H697 H 0.21567 0.67245 0.36463 0.0
H698 H 0.24628 0.62115 0.45715 0.0
H699 H 0.22815 0.59029 0.40943 0.0
H700 H 0.16164 0.64059 0.33331 0.0
H701 H 0.16289 0.65034 0.27245 0.0
H702 H 0.174 0.66825 0.31946 0.0
H703 H 0.21342 0.67038 0.27651 0.0
H704 H 0.20248 0.65252 0.22957 0.0
H705 H 0.22811 0.64408 0.26135 0.0
H706 H 0.21039 0.56524 0.34699 0.0
H707 H 0.1983 0.548 0.27063 0.0
H708 H 0.18162 0.61576 0.21606 0.0
C709 C 0.21786 0.65473 0.37574 0.0
C710 C 0.23194 0.64906 0.41496 0.0
C711 C 0.2353 0.62572 0.42742 0.0
C712 C 0.22496 0.60815 0.40074 0.0
C713 C 0.21155 0.61427 0.3615 0.0
C714 C 0.20813 0.63703 0.34883 0.0
C715 C 0.19603 0.63903 0.30129 0.0
C716 C 0.17222 0.65021 0.30699 0.0
C717 C 0.21091 0.65227 0.26507 0.0
C718 C 0.1939 0.61388 0.28832 0.0
C719 C 0.20231 0.59984 0.32413 0.0
C720 C 0.20344 0.57603 0.31902 0.0
C721 C 0.19646 0.56638 0.27566 0.0
C722 C 0.18892 0.58059 0.2378 0.0
C723 C 0.18711 0.60455 0.24473 0.0
H724 H 0.33856 0.67837 0.59733 0.0
H725 H 0.33408 0.75008 0.55546 0.0
H726 H 0.36798 0.75892 0.60522 0.0
H727 H 0.34885 0.68871 0.71422 0.0
H728 H 0.3684 0.66513 0.72434 0.0
H729 H 0.34729 0.6633 0.67773 0.0
H730 H 0.37949 0.65554 0.6161 0.0
H731 H 0.40079 0.6572 0.66269 0.0
H732 H 0.40323 0.67538 0.6109 0.0
H733 H 0.39757 0.76126 0.66843 0.0
H734 H 0.42072 0.757 0.74171 0.0
H735 H 0.40603 0.68393 0.74399 0.0
C736 C 0.34531 0.69574 0.59721 0.0
C737 C 0.33396 0.71351 0.57215 0.0
C738 C 0.34269 0.73622 0.57419 0.0
C739 C 0.36198 0.74137 0.60216 0.0
C740 C 0.37231 0.72361 0.62782 0.0
C741 C 0.36437 0.70121 0.62547 0.0
C742 C 0.37652 0.68597 0.66138 0.0
C743 C 0.35924 0.67516 0.69648 0.0
C744 C 0.39086 0.66743 0.63625 0.0
C745 C 0.39184 0.70349 0.6856 0.0
C746 C 0.38943 0.72501 0.66508 0.0
C747 C 0.40003 0.74443 0.68412 0.0
C748 C 0.41304 0.74188 0.72575 0.0
C749 C 0.4153 0.72012 0.74785 0.0
C750 C 0.40503 0.70062 0.72689 0.0
H751 H 0.7684 0.86953 0.14473 0.0
H752 H 0.70736 0.82718 0.12806 0.0
H753 H 0.68723 0.85068 0.18827 0.0
H754 H 0.76395 0.87553 0.27067 0.0
H755 H 0.77439 0.90472 0.27125 0.0
H756 H 0.78346 0.88534 0.22509 0.0
H757 H 0.76894 0.91407 0.16112 0.0
H758 H 0.75975 0.93353 0.20711 0.0
H759 H 0.73949 0.92384 0.16286 0.0
H760 H 0.67379 0.87898 0.25021 0.0
H761 H 0.6691 0.90793 0.31388 0.0
H762 H 0.73947 0.93057 0.29203 0.0
C763 C 0.75074 0.86529 0.15349 0.0
C764 C 0.73938 0.84662 0.13159 0.0
C765 C 0.71639 0.8414 0.14453 0.0
C766 C 0.70479 0.85471 0.17848 0.0
C767 C 0.71651 0.87301 0.19941 0.0
C768 C 0.73904 0.87816 0.18774 0.0
C769 C 0.74811 0.89801 0.21704 0.0
C770 C 0.76869 0.89044 0.24784 0.0
C771 C 0.75444 0.91858 0.18512 0.0
C772 C 0.72719 0.90319 0.24718 0.0
C773 C 0.70904 0.88878 0.23608 0.0
C774 C 0.68788 0.89036 0.25921 0.0
C775 C 0.68533 0.9069 0.29509 0.0
C776 C 0.70392 0.92141 0.30778 0.0
C777 C 0.72502 0.91958 0.28319 0.0
H778 H 0.68015 0.33821 0.64179 0.0
H779 H 0.69198 0.26446 0.6361 0.0
H780 H 0.66469 0.25874 0.70172 0.0
H781 H 0.67608 0.34193 0.76896 0.0
H782 H 0.65356 0.36325 0.76864 0.0
H783 H 0.67368 0.36187 0.72 0.0
H784 H 0.63988 0.35771 0.6604 0.0
H785 H 0.61965 0.35919 0.70883 0.0
H786 H 0.61909 0.33503 0.66877 0.0
H787 H 0.63709 0.26057 0.7681 0.0
H788 H 0.60968 0.2699 0.83185 0.0
H789 H 0.61487 0.34242 0.7959 0.0
C790 C 0.67686 0.32087 0.65416 0.0
C791 C 0.68828 0.30179 0.63379 0.0
C792 C 0.6836 0.27937 0.65122 0.0
C793 C 0.66808 0.27591 0.68849 0.0
C794 C 0.65735 0.29502 0.70812 0.0
C795 C 0.66142 0.31706 0.69168 0.0
C796 C 0.64767 0.33454 0.71984 0.0
C797 C 0.66371 0.35139 0.7459 0.0
C798 C 0.63055 0.34737 0.68752 0.0
C799 C 0.63529 0.3188 0.75455 0.0
C800 C 0.64119 0.29609 0.74695 0.0
C801 C 0.63218 0.27827 0.77428 0.0
C802 C 0.61653 0.28374 0.81023 0.0
C803 C 0.60994 0.30685 0.81855 0.0
C804 C 0.61964 0.32462 0.79049 0.0
H805 H 0.27739 0.17322 0.13071 0.0
H806 H 0.25747 0.12563 0.0197 0.0
H807 H 0.27002 0.09296 0.07009 0.0
H808 H 0.32678 0.13968 0.18164 0.0
H809 H 0.31894 0.14734 0.24156 0.0
H810 H 0.31314 0.16694 0.19323 0.0
H811 H 0.27009 0.16802 0.21733 0.0
H812 H 0.27566 0.14832 0.26534 0.0
H813 H 0.25416 0.14146 0.2213 0.0
H814 H 0.28034 0.06564 0.13551 0.0
H815 H 0.28589 0.04547 0.21197 0.0
H816 H 0.2961 0.11109 0.28233 0.0
C817 C 0.27662 0.15596 0.11636 0.0
C818 C 0.26709 0.15182 0.07103 0.0
C819 C 0.26516 0.12902 0.05412 0.0
C820 C 0.27227 0.11044 0.08242 0.0
C821 C 0.28097 0.11502 0.12767 0.0
C822 C 0.28312 0.13723 0.1446 0.0
C823 C 0.28979 0.13741 0.19668 0.0
C824 C 0.31358 0.1485 0.20367 0.0
C825 C 0.27132 0.1495 0.22691 0.0
C826 C 0.29053 0.11184 0.20673 0.0
C827 C 0.28583 0.09922 0.16627 0.0
C828 C 0.28424 0.07532 0.16734 0.0
C829 C 0.28721 0.06405 0.21103 0.0
C830 C 0.29137 0.07668 0.25325 0.0
C831 C 0.29341 0.10087 0.25065 0.0
H832 H 0.23343 0.29609 0.95558 0.0
H833 H 0.21731 0.27594 0.10067 0.0
H834 H 0.20705 0.31617 0.11916 0.0
H835 H 0.25936 0.34975 0.98362 0.0
H836 H 0.24795 0.36442 0.93219 0.0
H837 H 0.25316 0.33392 0.93005 0.0
H838 H 0.21068 0.327 0.90552 0.0
H839 H 0.20531 0.3575 0.90766 0.0
H840 H 0.18786 0.33807 0.94232 0.0
H841 H 0.19967 0.35877 0.12233 0.0
H842 H 0.19581 0.40066 0.11017 0.0
H843 H 0.21706 0.39284 0.96314 0.0
C844 C 0.22766 0.30005 0.99125 0.0
C845 C 0.22623 0.28282 0.02672 0.0
C846 C 0.2186 0.28882 0.07292 0.0
C847 C 0.21269 0.31162 0.08374 0.0
C848 C 0.21444 0.32816 0.04795 0.0
C849 C 0.22171 0.32265 0.00264 0.0
C850 C 0.22257 0.34371 0.97088 0.0
C851 C 0.24723 0.34821 0.95316 0.0
C852 C 0.20559 0.34143 0.92913 0.0
C853 C 0.21487 0.36201 0.00554 0.0
C854 C 0.21018 0.35267 0.04976 0.0
C855 C 0.20326 0.36626 0.08785 0.0
C856 C 0.20125 0.39004 0.08066 0.0
C857 C 0.20619 0.40002 0.03575 0.0
C858 C 0.21289 0.3857 0.99769 0.0
H859 H 0.18588 0.73104 0.46284 0.0
H860 H 0.20082 0.7205 0.61272 0.0
H861 H 0.16032 0.72973 0.63219 0.0
H862 H 0.1488 0.77879 0.47677 0.0
H863 H 0.12958 0.77037 0.42953 0.0
H864 H 0.1594 0.76201 0.4276 0.0
H865 H 0.14741 0.7192 0.4202 0.0
H866 H 0.11753 0.72743 0.42198 0.0
H867 H 0.12853 0.70676 0.46415 0.0
H868 H 0.11838 0.74193 0.63505 0.0
H869 H 0.0783 0.75469 0.62085 0.0
H870 H 0.09159 0.75698 0.46908 0.0
C871 C 0.1807 0.73054 0.49982 0.0
C872 C 0.19657 0.72513 0.53629 0.0
C873 C 0.18897 0.7246 0.58416 0.0
C874 C 0.16601 0.72983 0.59556 0.0
C875 C 0.15092 0.73539 0.55866 0.0
C876 C 0.15796 0.73562 0.51175 0.0
C877 C 0.13858 0.74245 0.47864 0.0
C878 C 0.14445 0.76473 0.45156 0.0
C879 C 0.13267 0.72278 0.44422 0.0
C880 C 0.11951 0.74627 0.51425 0.0
C881 C 0.12691 0.74213 0.56024 0.0
C882 C 0.11239 0.74512 0.59917 0.0
C883 C 0.08973 0.75249 0.59079 0.0
C884 C 0.08183 0.75673 0.54386 0.0
C885 C 0.09701 0.75352 0.50527 0.0
H886 H 0.78606 0.72413 0.05957 0.0
H887 H 0.7823 0.73852 0.90821 0.0
H888 H 0.79343 0.69843 0.89094 0.0
H889 H 0.83445 0.68286 0.05497 0.0
H890 H 0.82205 0.66463 0.10013 0.0
H891 H 0.81657 0.69515 0.10069 0.0
H892 H 0.77265 0.68726 0.10002 0.0
H893 H 0.77797 0.65678 0.09925 0.0
H894 H 0.76047 0.66975 0.05349 0.0
H895 H 0.80208 0.65641 0.88987 0.0
H896 H 0.80609 0.6148 0.90492 0.0
H897 H 0.80346 0.62724 0.057 0.0
C898 C 0.78805 0.71895 0.02283 0.0
C899 C 0.78344 0.73442 0.98518 0.0
C900 C 0.78573 0.7269 0.93755 0.0
C901 C 0.79216 0.70421 0.9274 0.0
C902 C 0.79615 0.68925 0.96528 0.0
C903 C 0.79416 0.69625 0.01205 0.0
C904 C 0.79752 0.67626 0.04602 0.0
C905 C 0.81892 0.67995 0.0773 0.0
C906 C 0.77586 0.67228 0.07647 0.0
C907 C 0.80117 0.65684 0.011 0.0
C908 C 0.80068 0.66479 0.96465 0.0
C909 C 0.80278 0.65 0.92602 0.0
C910 C 0.80516 0.6264 0.93494 0.0
C911 C 0.80522 0.61777 0.98213 0.0
C912 C 0.80345 0.63331 0.02055 0.0
H913 H 0.8165 0.27988 0.54943 0.0
H914 H 0.79536 0.26936 0.40282 0.0
H915 H 0.83488 0.25756 0.38231 0.0
H916 H 0.87322 0.30229 0.52393 0.0
H917 H 0.88657 0.28791 0.5737 0.0
H918 H 0.8567 0.29611 0.57669 0.0
H919 H 0.84553 0.25393 0.59589 0.0
H920 H 0.87535 0.24558 0.59276 0.0
H921 H 0.85428 0.23131 0.55609 0.0
H922 H 0.87645 0.24679 0.37751 0.0
H923 H 0.9175 0.23717 0.38923 0.0
H924 H 0.91154 0.25405 0.53899 0.0
C925 C 0.8202 0.27521 0.51297 0.0
C926 C 0.80283 0.27552 0.47773 0.0
C927 C 0.80836 0.26915 0.43048 0.0
C928 C 0.83076 0.26247 0.41842 0.0
C929 C 0.84742 0.26215 0.45404 0.0
C930 C 0.84245 0.26831 0.50035 0.0
C931 C 0.86345 0.26604 0.53199 0.0
C932 C 0.87039 0.28949 0.55279 0.0
C933 C 0.8594 0.24815 0.57151 0.0
C934 C 0.88097 0.25762 0.49619 0.0
C935 C 0.87138 0.25561 0.4514 0.0
C936 C 0.88418 0.24832 0.4124 0.0
C937 C 0.90747 0.24298 0.41934 0.0
C938 C 0.91765 0.24486 0.46497 0.0
C939 C 0.90414 0.25222 0.50382 0.0
H940 H 0.712 0.22182 0.43888 0.0
H941 H 0.71528 0.23493 0.59057 0.0
H942 H 0.70045 0.196 0.60679 0.0
H943 H 0.6604 0.18394 0.44034 0.0
H944 H 0.67203 0.16481 0.3961 0.0
H945 H 0.67981 0.19484 0.39564 0.0
H946 H 0.72298 0.18372 0.39909 0.0
H947 H 0.71534 0.15372 0.39969 0.0
H948 H 0.73311 0.16534 0.44642 0.0
H949 H 0.68838 0.15541 0.60755 0.0
H950 H 0.68174 0.11426 0.59322 0.0
H951 H 0.68727 0.1259 0.44097 0.0
C952 C 0.70907 0.21657 0.47536 0.0
C953 C 0.71451 0.23137 0.51355 0.0
C954 C 0.7111 0.22382 0.5609 0.0
C955 C 0.7026 0.2018 0.57046 0.0
C956 C 0.69778 0.18742 0.53224 0.0
C957 C 0.70099 0.19435 0.48562 0.0
C958 C 0.69659 0.1746 0.45159 0.0
C959 C 0.67598 0.17987 0.41899 0.0
C960 C 0.7183 0.16902 0.4225 0.0
C961 C 0.69096 0.15547 0.48652 0.0
C962 C 0.69136 0.16344 0.53275 0.0
C963 C 0.68768 0.14897 0.57149 0.0
C964 C 0.68378 0.12561 0.56292 0.0
C965 C 0.68372 0.11682 0.51595 0.0
C966 C 0.68715 0.13209 0.47726 0.0
H967 H 0.31347 0.24384 0.0445 0.0
H968 H 0.30624 0.23019 0.89335 0.0
H969 H 0.34589 0.24405 0.88015 0.0
H970 H 0.34523 0.29562 0.03321 0.0
H971 H 0.36351 0.29014 0.08383 0.0
H972 H 0.33493 0.27819 0.08185 0.0
H973 H 0.35163 0.23727 0.09418 0.0
H974 H 0.38028 0.2491 0.09647 0.0
H975 H 0.37351 0.22681 0.05426 0.0
H976 H 0.3856 0.26106 0.88285 0.0
H977 H 0.42335 0.27835 0.90184 0.0
H978 H 0.4046 0.28081 0.05114 0.0
C979 C 0.32025 0.24357 0.00864 0.0
C980 C 0.30669 0.23598 0.96994 0.0
C981 C 0.31626 0.23594 0.92358 0.0
C982 C 0.33877 0.2438 0.9157 0.0
C983 C 0.3515 0.2515 0.95454 0.0
C984 C 0.34266 0.25129 1.00013 0.0
C985 C 0.3598 0.26082 0.03562 0.0
C986 C 0.3503 0.28248 0.06005 0.0
C987 C 0.36671 0.2424 0.07229 0.0
C988 C 0.3796 0.26662 0.00278 0.0
C989 C 0.37445 0.26114 0.95615 0.0
C990 C 0.38986 0.26535 0.91924 0.0
C991 C 0.41117 0.27533 0.93033 0.0
C992 C 0.41687 0.28095 0.97793 0.0
C993 C 0.40081 0.27648 0.01451 0.0
H994 H 0.26901 0.78979 0.54695 0.0
H995 H 0.27722 0.77491 0.39653 0.0
H996 H 0.28456 0.81593 0.38078 0.0
H997 H 0.23931 0.84263 0.53242 0.0
H998 H 0.25305 0.85671 0.58196 0.0
H999 H 0.24966 0.82592 0.58215 0.0
H1000 H 0.29361 0.82101 0.59452 0.0
H1001 H 0.29715 0.8518 0.59435 0.0
H1002 H 0.3133 0.83435 0.55332 0.0
H1003 H 0.28883 0.85843 0.38018 0.0
H1004 H 0.29022 0.90022 0.39503 0.0
H1005 H 0.27983 0.88802 0.54579 0.0
C1006 C 0.2725 0.79512 0.51074 0.0
C1007 C 0.27248 0.77908 0.47297 0.0
C1008 C 0.27711 0.78681 0.42609 0.0
C1009 C 0.28135 0.81009 0.41675 0.0
C1010 C 0.28104 0.82544 0.45466 0.0
C1011 C 0.27683 0.81833 0.50075 0.0
C1012 C 0.27685 0.83854 0.53475 0.0
C1013 C 0.25332 0.84109 0.55925 0.0
C1014 C 0.29639 0.83629 0.5714 0.0
C1015 C 0.28134 0.85815 0.50037 0.0
C1016 C 0.28378 0.85013 0.4544 0.0
C1017 C 0.28711 0.86493 0.41604 0.0
C1018 C 0.28776 0.8886 0.42478 0.0
C1019 C 0.28512 0.89726 0.47149 0.0
C1020 C 0.28217 0.8818 0.50984 0.0
H1021 H 0.68586 0.78092 0.94193 0.0
H1022 H 0.70049 0.77907 0.0934 0.0
H1023 H 0.66016 0.76895 0.10977 0.0
H1024 H 0.62746 0.80426 0.95127 0.0
H1025 H 0.61628 0.78671 0.90377 0.0
H1026 H 0.64611 0.79527 0.90358 0.0
H1027 H 0.65836 0.75252 0.89784 0.0
H1028 H 0.62859 0.74383 0.89828 0.0
H1029 H 0.64826 0.73232 0.94188 0.0
H1030 H 0.61914 0.75802 0.11054 0.0
H1031 H 0.57903 0.74625 0.09528 0.0
H1032 H 0.59022 0.75406 0.94343 0.0
C1033 C 0.68043 0.77863 0.97848 0.0
C1034 C 0.69627 0.78072 0.01641 0.0
C1035 C 0.68866 0.77735 0.06379 0.0
C1036 C 0.66578 0.7717 0.07351 0.0
C1037 C 0.65067 0.76934 0.03547 0.0
C1038 C 0.65757 0.77264 0.98889 0.0
C1039 C 0.63785 0.76803 0.95475 0.0
C1040 C 0.63155 0.78987 0.92669 0.0
C1041 C 0.64362 0.74798 0.92122 0.0
C1042 C 0.61898 0.76148 0.98954 0.0
C1043 C 0.62678 0.76256 0.03589 0.0
C1044 C 0.61273 0.75722 0.07443 0.0
C1045 C 0.58997 0.75064 0.06543 0.0
C1046 C 0.58152 0.74934 0.01825 0.0
C1047 C 0.59628 0.75478 0.97984 0.0
loop_
_geom_bond_atom_site_label_1
_geom_bond_atom_site_label_2
_geom_bond_distance
_geom_bond_site_symmetry_2
_ccdc_geom_bond_type
Fe0 O2 1.918 . S
Fe0 O5 1.997 . S
Fe0 O6 2.002 . S
Fe0 O11 1.976 . S
Fe0 O14 1.996 . S
Fe1 O2 1.918 1_556 S
Fe1 O9 1.997 . S
Fe1 O12 1.996 . S
Fe1 O16 1.976 . S
Fe1 O19 2.002 . S
O2 Fe0 1.918 . S
O2 Fe1 1.918 1_554 S
O2 Fe3 1.918 . S
Fe3 O2 1.918 . S
Fe3 O4 2.002 . S
Fe3 O13 1.976 . S
Fe3 O17 1.996 1_554 S
Fe3 O20 1.997 1_554 S
O4 Fe3 2.002 . S
O4 C21 1.295 . S
O5 Fe0 1.997 . S
O5 C21 1.235 . S
O6 Fe0 2.002 . S
O6 C7 1.295 . S
C7 O6 1.295 . S
C7 O9 1.235 1_554 S
C8 O13 1.287 . S
C8 O14 1.255 . S
O9 Fe1 1.997 . S
O9 C7 1.235 1_556 S
C10 O16 1.287 . S
C10 O17 1.255 . S
O11 Fe0 1.976 . S
O11 C18 1.294 . S
O12 Fe1 1.996 . S
O12 C18 1.247 1_556 S
O13 Fe3 1.976 . S
O13 C8 1.287 . S
O14 Fe0 1.996 . S
O14 C8 1.255 . S
C15 O19 1.295 . S
C15 O20 1.235 . S
O16 Fe1 1.976 . S
O16 C10 1.287 . S
O17 Fe3 1.996 1_556 S
O17 C10 1.255 . S
C18 O11 1.294 . S
C18 O12 1.247 1_554 S
O19 Fe1 2.002 . S
O19 C15 1.295 . S
O20 Fe3 1.997 1_556 S
O20 C15 1.235 . S
C21 O4 1.295 . S
C21 O5 1.235 . S
Fe22 O24 1.918 . S
Fe22 O27 1.997 . S
Fe22 O28 2.002 . S
Fe22 O33 1.976 . S
Fe22 O36 1.996 . S
Fe23 O24 1.918 . S
Fe23 O31 1.997 . S
Fe23 O34 1.996 . S
Fe23 O38 1.976 . S
Fe23 O41 2.002 . S
O24 Fe22 1.918 . S
O24 Fe23 1.918 . S
O24 Fe25 1.918 . S
Fe25 O24 1.918 . S
Fe25 O26 2.002 . S
Fe25 O35 1.976 . S
Fe25 O39 1.996 . S
Fe25 O42 1.997 . S
O26 Fe25 2.002 . S
O26 C43 1.295 . S
O27 Fe22 1.997 . S
O27 C43 1.235 . S
O28 Fe22 2.002 . S
O28 C29 1.295 . S
C29 O28 1.295 . S
C29 O31 1.235 . S
C30 O35 1.287 . S
C30 O36 1.255 . S
O31 Fe23 1.997 . S
O31 C29 1.235 . S
C32 O38 1.287 . S
C32 O39 1.255 . S
O33 Fe22 1.976 . S
O33 C40 1.287 . S
O34 Fe23 1.996 . S
O34 C40 1.255 . S
O35 Fe25 1.976 . S
O35 C30 1.287 . S
O36 Fe22 1.996 . S
O36 C30 1.255 . S
C37 O41 1.295 . S
C37 O42 1.235 . S
O38 Fe23 1.976 . S
O38 C32 1.287 . S
O39 Fe25 1.996 . S
O39 C32 1.255 . S
C40 O33 1.287 . S
C40 O34 1.255 . S
O41 Fe23 2.002 . S
O41 C37 1.295 . S
O42 Fe25 1.997 . S
O42 C37 1.235 . S
C43 O26 1.295 . S
C43 O27 1.235 . S
Fe44 O46 1.918 1_556 S
Fe44 O49 1.997 . S
Fe44 O50 2.002 . S
Fe44 O55 1.976 . S
Fe44 O58 1.996 . S
Fe45 O46 1.918 . S
Fe45 O53 1.997 . S
Fe45 O56 1.996 . S
Fe45 O60 1.976 . S
Fe45 O63 2.002 . S
O46 Fe44 1.918 1_554 S
O46 Fe45 1.918 . S
O46 Fe47 1.918 . S
Fe47 O46 1.918 . S
Fe47 O48 2.002 1_554 S
Fe47 O57 1.976 1_554 S
Fe47 O61 1.996 . S
Fe47 O64 1.997 . S
O48 Fe47 2.002 1_556 S
O48 C65 1.295 . S
O49 Fe44 1.997 . S
O49 C65 1.235 . S
O50 Fe44 2.002 . S
O50 C51 1.291 1_556 S
C51 O50 1.291 1_554 S
C51 O53 1.239 . S
C52 O57 1.287 . S
C52 O58 1.255 . S
O53 Fe45 1.997 . S
O53 C51 1.239 . S
C54 O60 1.287 . S
C54 O61 1.255 . S
O55 Fe44 1.976 . S
O55 C62 1.287 1_556 S
O56 Fe45 1.996 . S
O56 C62 1.255 . S
O57 Fe47 1.976 1_556 S
O57 C52 1.287 . S
O58 Fe44 1.996 . S
O58 C52 1.255 . S
C59 O63 1.295 . S
C59 O64 1.235 . S
O60 Fe45 1.976 . S
O60 C54 1.287 . S
O61 Fe47 1.996 . S
O61 C54 1.255 . S
C62 O55 1.287 1_554 S
C62 O56 1.255 . S
O63 Fe45 2.002 . S
O63 C59 1.295 . S
O64 Fe47 1.997 . S
O64 C59 1.235 . S
C65 O48 1.295 . S
C65 O49 1.235 . S
Fe66 O68 1.918 . S
Fe66 O71 1.997 . S
Fe66 O72 2.002 . S
Fe66 O77 1.976 . S
Fe66 O80 1.996 . S
Fe67 O68 1.918 . S
Fe67 O75 1.997 . S
Fe67 O78 1.996 . S
Fe67 O82 1.976 . S
Fe67 O85 2.002 . S
O68 Fe66 1.918 . S
O68 Fe67 1.918 . S
O68 Fe69 1.918 . S
Fe69 O68 1.918 . S
Fe69 O70 2.002 . S
Fe69 O79 1.976 . S
Fe69 O83 1.996 . S
Fe69 O86 1.997 . S
O70 Fe69 2.002 . S
O70 C87 1.295 . S
O71 Fe66 1.997 . S
O71 C87 1.235 . S
O72 Fe66 2.002 . S
O72 C73 1.295 . S
C73 O72 1.295 . S
C73 O75 1.235 . S
C74 O79 1.287 . S
C74 O80 1.255 . S
O75 Fe67 1.997 . S
O75 C73 1.235 . S
C76 O82 1.287 . S
C76 O83 1.255 . S
O77 Fe66 1.976 . S
O77 C84 1.287 . S
O78 Fe67 1.996 . S
O78 C84 1.255 . S
O79 Fe69 1.976 . S
O79 C74 1.287 . S
O80 Fe66 1.996 . S
O80 C74 1.255 . S
C81 O85 1.295 . S
C81 O86 1.235 . S
O82 Fe67 1.976 . S
O82 C76 1.287 . S
O83 Fe69 1.996 . S
O83 C76 1.255 . S
C84 O77 1.287 . S
C84 O78 1.255 . S
O85 Fe67 2.002 . S
O85 C81 1.295 . S
O86 Fe69 1.997 . S
O86 C81 1.235 . S
C87 O70 1.295 . S
C87 O71 1.235 . S
C88 C89 1.386 . S
C88 C90 1.397 . S
C88 H112 0.931 . S
C89 C88 1.386 . S
C89 C93 1.397 . S
C90 C88 1.397 . S
C90 C91 1.384 . S
C90 H113 0.930 . S
C91 C90 1.384 . S
C91 C92 1.377 . S
C91 C94 1.481 . S
C92 C91 1.377 . S
C92 C93 1.389 . S
C92 H114 0.929 . S
C93 C89 1.397 . S
C93 C92 1.389 . S
C93 H115 0.931 . S
C94 C91 1.481 . S
C94 C95 1.387 . S
C94 C99 1.390 1_556 S
C95 C94 1.387 . S
C95 C96 1.401 1_556 S
C95 H116 0.930 . S
C96 C95 1.401 1_554 S
C96 C97 1.376 . S
C96 C105 1.511 . S
C97 C96 1.376 . S
C97 C98 1.392 . S
C97 H118 0.931 . S
C98 C97 1.392 . S
C98 C99 1.361 . S
C98 C100 1.500 . S
C99 C94 1.390 1_554 S
C99 C98 1.361 . S
C99 H117 0.931 . S
C100 C98 1.500 . S
C100 C101 1.371 . S
C100 C102 1.365 . S
C101 C100 1.371 . S
C101 C111 1.386 . S
C101 H119 0.931 . S
C102 C100 1.365 . S
C102 C103 1.409 . S
C102 H120 0.929 . S
C103 C102 1.409 . S
C103 C104 1.380 . S
C103 H121 0.930 . S
C104 C103 1.380 . S
C104 C111 1.357 . S
C105 C96 1.511 . S
C105 C106 1.341 1_554 S
C105 C107 1.371 . S
C106 C105 1.341 1_556 S
C106 C110 1.394 . S
C106 H122 0.930 . S
C107 C105 1.371 . S
C107 C108 1.392 . S
C107 H123 0.931 . S
C108 C107 1.392 . S
C108 C109 1.331 . S
C108 H126 0.932 . S
C109 C108 1.331 . S
C109 C110 1.336 1_554 S
C110 C106 1.394 . S
C110 C109 1.336 1_556 S
C110 H125 0.929 . S
C111 C101 1.386 . S
C111 C104 1.357 . S
C111 H124 0.928 . S
H112 C88 0.931 . S
H113 C90 0.930 . S
H114 C92 0.929 . S
H115 C93 0.931 . S
H116 C95 0.930 . S
H117 C99 0.931 . S
H118 C97 0.931 . S
H119 C101 0.931 . S
H120 C102 0.929 . S
H121 C103 0.930 . S
H122 C106 0.930 . S
H123 C107 0.931 . S
H124 C111 0.928 . S
H125 C110 0.929 . S
H126 C108 0.932 . S
C127 C128 1.386 . S
C127 C129 1.397 . S
C127 H151 0.931 . S
C128 C127 1.386 . S
C128 C132 1.397 . S
C129 C127 1.397 . S
C129 C130 1.384 . S
C129 H152 0.930 . S
C130 C129 1.384 . S
C130 C131 1.377 . S
C130 C133 1.481 . S
C131 C130 1.377 . S
C131 C132 1.389 . S
C131 H153 0.929 . S
C132 C128 1.397 . S
C132 C131 1.389 . S
C132 H154 0.931 . S
C133 C130 1.481 . S
C133 C134 1.387 . S
C133 C138 1.390 . S
C134 C133 1.387 . S
C134 C135 1.401 1_655 S
C134 H155 0.941 . S
C135 C134 1.401 1_455 S
C135 C136 1.376 1_455 S
C135 C144 1.511 . S
C136 C135 1.376 1_655 S
C136 C137 1.392 . S
C136 H157 0.955 . S
C137 C136 1.392 . S
C137 C138 1.361 . S
C137 C139 1.500 . S
C138 C133 1.390 . S
C138 C137 1.361 . S
C138 H156 0.931 . S
C139 C137 1.500 . S
C139 C140 1.371 . S
C139 C141 1.365 . S
C140 C139 1.371 . S
C140 C150 1.386 . S
C140 H158 0.931 . S
C141 C139 1.365 . S
C141 C142 1.409 . S
C141 H159 0.929 . S
C142 C141 1.409 . S
C142 C143 1.380 . S
C142 H160 0.930 . S
C143 C142 1.380 . S
C143 C150 1.357 . S
C144 C135 1.511 . S
C144 C145 1.341 . S
C144 C146 1.371 . S
C145 C144 1.341 . S
C145 C149 1.394 . S
C145 H161 0.930 . S
C146 C144 1.371 . S
C146 C147 1.392 . S
C146 H162 0.931 . S
C147 C146 1.392 . S
C147 C148 1.331 . S
C147 H165 0.932 . S
C148 C147 1.331 . S
C148 C149 1.336 . S
C149 C145 1.394 . S
C149 C148 1.336 . S
C149 H164 0.929 . S
C150 C140 1.386 . S
C150 C143 1.357 . S
C150 H163 0.928 . S
H151 C127 0.931 . S
H152 C129 0.930 . S
H153 C131 0.929 . S
H154 C132 0.931 . S
H155 C134 0.941 . S
H156 C138 0.931 . S
H157 C136 0.955 . S
H158 C140 0.931 . S
H159 C141 0.929 . S
H160 C142 0.930 . S
H161 C145 0.930 . S
H162 C146 0.931 . S
H163 C150 0.928 . S
H164 C149 0.929 . S
H165 C147 0.932 . S
C166 C167 1.386 . S
C166 C168 1.397 . S
C166 H190 0.931 . S
C167 C166 1.386 . S
C167 C171 1.397 . S
C168 C166 1.397 . S
C168 C169 1.384 . S
C168 H191 0.930 . S
C169 C168 1.384 . S
C169 C170 1.377 . S
C169 C172 1.481 . S
C170 C169 1.377 . S
C170 C171 1.389 . S
C170 H192 0.929 . S
C171 C167 1.397 . S
C171 C170 1.389 . S
C171 H193 0.931 . S
C172 C169 1.481 . S
C172 C173 1.387 . S
C172 C177 1.390 . S
C173 C172 1.387 . S
C173 C174 1.399 . S
C173 H194 0.930 . S
C174 C173 1.399 . S
C174 C175 1.378 1_554 S
C174 C183 1.511 . S
C175 C174 1.378 1_556 S
C175 C176 1.392 . S
C175 H196 0.931 . S
C176 C175 1.392 . S
C176 C177 1.361 1_556 S
C176 C178 1.500 . S
C177 C172 1.390 . S
C177 C176 1.361 1_554 S
C177 H195 0.931 . S
C178 C176 1.500 . S
C178 C179 1.371 . S
C178 C180 1.365 . S
C179 C178 1.371 . S
C179 C189 1.386 . S
C179 H197 0.931 . S
C180 C178 1.365 . S
C180 C181 1.409 . S
C180 H198 0.929 . S
C181 C180 1.409 . S
C181 C182 1.380 . S
C181 H199 0.930 . S
C182 C181 1.380 . S
C182 C189 1.357 . S
C183 C174 1.511 . S
C183 C184 1.343 . S
C183 C185 1.369 1_554 S
C184 C183 1.343 . S
C184 C188 1.394 . S
C184 H200 0.930 . S
C185 C183 1.369 1_556 S
C185 C186 1.392 . S
C185 H201 0.931 . S
C186 C185 1.392 . S
C186 C187 1.331 1_556 S
C186 H204 0.932 . S
C187 C186 1.331 1_554 S
C187 C188 1.336 . S
C188 C184 1.394 . S
C188 C187 1.336 . S
C188 H203 0.929 . S
C189 C179 1.386 . S
C189 C182 1.357 . S
C189 H202 0.928 . S
H190 C166 0.931 . S
H191 C168 0.930 . S
H192 C170 0.929 . S
H193 C171 0.931 . S
H194 C173 0.930 . S
H195 C177 0.931 . S
H196 C175 0.931 . S
H197 C179 0.931 . S
H198 C180 0.929 . S
H199 C181 0.930 . S
H200 C184 0.930 . S
H201 C185 0.931 . S
H202 C189 0.928 . S
H203 C188 0.929 . S
H204 C186 0.932 . S
C205 C206 1.386 . S
C205 C207 1.397 . S
C205 H229 0.931 . S
C206 C205 1.386 . S
C206 C210 1.397 . S
C207 C205 1.397 . S
C207 C208 1.384 . S
C207 H230 0.930 . S
C208 C207 1.384 . S
C208 C209 1.377 . S
C208 C211 1.481 . S
C209 C208 1.377 . S
C209 C210 1.389 . S
C209 H231 0.929 . S
C210 C206 1.397 . S
C210 C209 1.389 . S
C210 H232 0.931 . S
C211 C208 1.481 . S
C211 C212 1.387 . S
C211 C216 1.390 . S
C212 C211 1.387 . S
C212 C213 1.401 1_455 S
C212 H233 0.916 1_455 S
C213 C212 1.401 1_655 S
C213 C214 1.376 1_655 S
C213 C222 1.511 . S
C214 C213 1.376 1_455 S
C214 C215 1.392 . S
C214 H235 0.934 . S
C215 C214 1.392 . S
C215 C216 1.361 . S
C215 C217 1.500 . S
C216 C211 1.390 . S
C216 C215 1.361 . S
C216 H234 0.931 . S
C217 C215 1.500 . S
C217 C218 1.371 . S
C217 C219 1.365 . S
C218 C217 1.371 . S
C218 C228 1.386 . S
C218 H236 0.931 . S
C219 C217 1.365 . S
C219 C220 1.409 . S
C219 H237 0.929 . S
C220 C219 1.409 . S
C220 C221 1.380 . S
C220 H238 0.930 . S
C221 C220 1.380 . S
C221 C228 1.357 . S
C222 C213 1.511 . S
C222 C223 1.341 . S
C222 C224 1.371 . S
C223 C222 1.341 . S
C223 C227 1.394 . S
C223 H239 0.930 . S
C224 C222 1.371 . S
C224 C225 1.392 . S
C224 H240 0.931 . S
C225 C224 1.392 . S
C225 C226 1.331 . S
C225 H243 0.932 . S
C226 C225 1.331 . S
C226 C227 1.336 . S
C227 C223 1.394 . S
C227 C226 1.336 . S
C227 H242 0.929 . S
C228 C218 1.386 . S
C228 C221 1.357 . S
C228 H241 0.928 . S
H229 C205 0.931 . S
H230 C207 0.930 . S
H231 C209 0.929 . S
H232 C210 0.931 . S
H233 C212 0.916 1_655 S
H234 C216 0.931 . S
H235 C214 0.934 . S
H236 C218 0.931 . S
H237 C219 0.929 . S
H238 C220 0.930 . S
H239 C223 0.930 . S
H240 C224 0.931 . S
H241 C228 0.928 . S
H242 C227 0.929 . S
H243 C225 0.932 . S
C244 C245 1.386 . S
C244 C246 1.397 . S
C244 H268 0.931 . S
C245 C244 1.386 . S
C245 C249 1.397 . S
C246 C244 1.397 . S
C246 C247 1.384 . S
C246 H269 0.930 . S
C247 C246 1.384 . S
C247 C248 1.377 . S
C247 C250 1.481 . S
C248 C247 1.377 . S
C248 C249 1.389 . S
C248 H270 0.929 . S
C249 C245 1.397 . S
C249 C248 1.389 . S
C249 H271 0.931 . S
C250 C247 1.481 . S
C250 C251 1.387 1_565 S
C250 C255 1.390 . S
C251 C250 1.387 1_545 S
C251 C252 1.401 . S
C251 H272 0.930 . S
C252 C251 1.401 . S
C252 C253 1.376 . S
C252 C261 1.511 . S
C253 C252 1.376 . S
C253 C254 1.392 1_545 S
C253 H274 0.931 . S
C254 C253 1.392 1_565 S
C254 C255 1.361 . S
C254 C256 1.500 . S
C255 C250 1.390 . S
C255 C254 1.361 . S
C255 H273 0.931 . S
C256 C254 1.500 . S
C256 C257 1.371 . S
C256 C258 1.365 . S
C257 C256 1.371 . S
C257 C267 1.386 . S
C257 H275 0.931 . S
C258 C256 1.365 . S
C258 C259 1.409 . S
C258 H276 0.929 . S
C259 C258 1.409 . S
C259 C260 1.380 . S
C259 H277 0.930 . S
C260 C259 1.380 . S
C260 C267 1.357 . S
C261 C252 1.511 . S
C261 C262 1.341 . S
C261 C263 1.371 . S
C262 C261 1.341 . S
C262 C266 1.394 . S
C262 H278 0.930 . S
C263 C261 1.371 . S
C263 C264 1.392 . S
C263 H279 0.931 . S
C264 C263 1.392 . S
C264 C265 1.331 . S
C264 H282 0.932 . S
C265 C264 1.331 . S
C265 C266 1.336 . S
C266 C262 1.394 . S
C266 C265 1.336 . S
C266 H281 0.929 . S
C267 C257 1.386 . S
C267 C260 1.357 . S
C267 H280 0.928 . S
H268 C244 0.931 . S
H269 C246 0.930 . S
H270 C248 0.929 . S
H271 C249 0.931 . S
H272 C251 0.930 . S
H273 C255 0.931 . S
H274 C253 0.931 . S
H275 C257 0.931 . S
H276 C258 0.929 . S
H277 C259 0.930 . S
H278 C262 0.930 . S
H279 C263 0.931 . S
H280 C267 0.928 . S
H281 C266 0.929 . S
H282 C264 0.932 . S
C283 C284 1.386 . S
C283 C285 1.397 . S
C283 H307 0.931 . S
C284 C283 1.386 . S
C284 C288 1.397 . S
C285 C283 1.397 . S
C285 C286 1.384 . S
C285 H308 0.930 . S
C286 C285 1.384 . S
C286 C287 1.377 . S
C286 C289 1.481 . S
C287 C286 1.377 . S
C287 C288 1.389 . S
C287 H309 0.929 . S
C288 C284 1.397 . S
C288 C287 1.389 . S
C288 H310 0.931 . S
C289 C286 1.481 . S
C289 C290 1.387 . S
C289 C294 1.399 . S
C290 C289 1.387 . S
C290 C291 1.390 1_554 S
C290 H311 0.930 . S
C291 C290 1.390 1_556 S
C291 C292 1.387 . S
C291 C300 1.511 . S
C292 C291 1.387 . S
C292 C293 1.392 . S
C292 H313 0.931 . S
C293 C292 1.392 . S
C293 C294 1.352 1_556 S
C293 C295 1.500 . S
C294 C289 1.399 . S
C294 C293 1.352 1_554 S
C294 H312 0.931 . S
C295 C293 1.500 . S
C295 C296 1.371 . S
C295 C297 1.365 . S
C296 C295 1.371 . S
C296 C306 1.386 . S
C296 H314 0.931 . S
C297 C295 1.365 . S
C297 C298 1.409 . S
C297 H315 0.929 . S
C298 C297 1.409 . S
C298 C299 1.380 . S
C298 H316 0.930 . S
C299 C298 1.380 . S
C299 C306 1.357 . S
C300 C291 1.511 . S
C300 C301 1.335 1_556 S
C300 C302 1.377 . S
C301 C300 1.335 1_554 S
C301 C305 1.394 . S
C301 H317 0.930 . S
C302 C300 1.377 . S
C302 C303 1.392 . S
C302 H318 0.931 . S
C303 C302 1.392 . S
C303 C304 1.315 1_556 S
C303 H321 0.932 . S
C304 C303 1.315 1_554 S
C304 C305 1.352 . S
C305 C301 1.394 . S
C305 C304 1.352 . S
C305 H320 0.929 . S
C306 C296 1.386 . S
C306 C299 1.357 . S
C306 H319 0.928 . S
H307 C283 0.931 . S
H308 C285 0.930 . S
H309 C287 0.929 . S
H310 C288 0.931 . S
H311 C290 0.930 . S
H312 C294 0.931 . S
H313 C292 0.931 . S
H314 C296 0.931 . S
H315 C297 0.929 . S
H316 C298 0.930 . S
H317 C301 0.930 . S
H318 C302 0.931 . S
H319 C306 0.928 . S
H320 C305 0.929 . S
H321 C303 0.932 . S
C322 C323 1.386 . S
C322 C324 1.397 . S
C322 H346 0.931 . S
C323 C322 1.386 . S
C323 C327 1.397 . S
C324 C322 1.397 . S
C324 C325 1.384 . S
C324 H347 0.930 . S
C325 C324 1.384 . S
C325 C326 1.377 . S
C325 C328 1.481 . S
C326 C325 1.377 . S
C326 C327 1.389 . S
C326 H348 0.929 . S
C327 C323 1.397 . S
C327 C326 1.389 . S
C327 H349 0.931 . S
C328 C325 1.481 . S
C328 C329 1.387 . S
C328 C333 1.390 . S
C329 C328 1.387 . S
C329 C330 1.401 1_545 S
C329 H350 0.930 1_545 S
C330 C329 1.401 1_565 S
C330 C331 1.376 1_565 S
C330 C339 1.511 . S
C331 C330 1.376 1_545 S
C331 C332 1.392 . S
C331 H352 0.931 1_545 S
C332 C331 1.392 . S
C332 C333 1.361 . S
C332 C334 1.500 . S
C333 C328 1.390 . S
C333 C332 1.361 . S
C333 H351 0.931 . S
C334 C332 1.500 . S
C334 C335 1.371 . S
C334 C336 1.365 . S
C335 C334 1.371 . S
C335 C345 1.386 . S
C335 H353 0.931 . S
C336 C334 1.365 . S
C336 C337 1.409 . S
C336 H354 0.929 . S
C337 C336 1.409 . S
C337 C338 1.380 . S
C337 H355 0.930 . S
C338 C337 1.380 . S
C338 C345 1.357 . S
C339 C330 1.511 . S
C339 C340 1.341 . S
C339 C341 1.371 . S
C340 C339 1.341 . S
C340 C344 1.394 . S
C340 H356 0.930 . S
C341 C339 1.371 . S
C341 C342 1.392 . S
C341 H357 0.931 . S
C342 C341 1.392 . S
C342 C343 1.331 . S
C342 H360 0.932 . S
C343 C342 1.331 . S
C343 C344 1.336 . S
C344 C340 1.394 . S
C344 C343 1.336 . S
C344 H359 0.929 . S
C345 C335 1.386 . S
C345 C338 1.357 . S
C345 H358 0.928 . S
H346 C322 0.931 . S
H347 C324 0.930 . S
H348 C326 0.929 . S
H349 C327 0.931 . S
H350 C329 0.930 1_565 S
H351 C333 0.931 . S
H352 C331 0.931 1_565 S
H353 C335 0.931 . S
H354 C336 0.929 . S
H355 C337 0.930 . S
H356 C340 0.930 . S
H357 C341 0.931 . S
H358 C345 0.928 . S
H359 C344 0.929 . S
H360 C342 0.932 . S
C361 C362 1.386 . S
C361 C363 1.397 . S
C361 H385 0.931 . S
C362 C361 1.386 . S
C362 C366 1.397 . S
C363 C361 1.397 . S
C363 C364 1.384 . S
C363 H386 0.930 . S
C364 C363 1.384 . S
C364 C365 1.377 . S
C364 C367 1.481 . S
C365 C364 1.377 . S
C365 C366 1.389 . S
C365 H387 0.929 . S
C366 C362 1.397 . S
C366 C365 1.389 . S
C366 H388 0.931 . S
C367 C364 1.481 . S
C367 C368 1.387 . S
C367 C372 1.390 1_556 S
C368 C367 1.387 . S
C368 C369 1.401 1_556 S
C368 H389 0.930 . S
C369 C368 1.401 1_554 S
C369 C370 1.376 . S
C369 C378 1.511 . S
C370 C369 1.376 . S
C370 C371 1.392 . S
C370 H391 0.931 . S
C371 C370 1.392 . S
C371 C372 1.361 . S
C371 C373 1.500 . S
C372 C367 1.390 1_554 S
C372 C371 1.361 . S
C372 H390 0.931 . S
C373 C371 1.500 . S
C373 C374 1.371 . S
C373 C375 1.365 . S
C374 C373 1.371 . S
C374 C384 1.386 . S
C374 H392 0.931 . S
C375 C373 1.365 . S
C375 C376 1.409 . S
C375 H393 0.929 . S
C376 C375 1.409 . S
C376 C377 1.380 . S
C376 H394 0.930 . S
C377 C376 1.380 . S
C377 C384 1.357 . S
C378 C369 1.511 . S
C378 C379 1.341 1_554 S
C378 C380 1.371 . S
C379 C378 1.341 1_556 S
C379 C383 1.394 . S
C379 H395 0.930 . S
C380 C378 1.371 . S
C380 C381 1.392 . S
C380 H396 0.931 . S
C381 C380 1.392 . S
C381 C382 1.331 . S
C381 H399 0.932 . S
C382 C381 1.331 . S
C382 C383 1.336 1_554 S
C383 C379 1.394 . S
C383 C382 1.336 1_556 S
C383 H398 0.929 . S
C384 C374 1.386 . S
C384 C377 1.357 . S
C384 H397 0.928 . S
H385 C361 0.931 . S
H386 C363 0.930 . S
H387 C365 0.929 . S
H388 C366 0.931 . S
H389 C368 0.930 . S
H390 C372 0.931 . S
H391 C370 0.931 . S
H392 C374 0.931 . S
H393 C375 0.929 . S
H394 C376 0.930 . S
H395 C379 0.930 . S
H396 C380 0.931 . S
H397 C384 0.928 . S
H398 C383 0.929 . S
H399 C381 0.932 . S
H400 C412 0.930 . S
H401 C414 0.930 . S
H402 C415 0.930 . S
H403 C419 0.959 . S
H404 C419 0.959 . S
H405 C419 0.961 . S
H406 C420 0.960 . S
H407 C420 0.961 . S
H408 C420 0.959 . S
H409 C423 0.929 . S
H410 C424 0.931 . S
H411 C426 0.930 . S
C412 H400 0.930 . S
C412 C413 1.399 . S
C412 C417 1.399 . S
C413 C412 1.399 . S
C413 C414 1.376 . S
C414 H401 0.930 . S
C414 C413 1.376 . S
C414 C415 1.388 . S
C415 H402 0.930 . S
C415 C414 1.388 . S
C415 C416 1.390 . S
C416 C415 1.390 . S
C416 C417 1.394 . S
C416 C422 1.465 . S
C417 C412 1.399 . S
C417 C416 1.394 . S
C417 C418 1.516 . S
C418 C417 1.516 . S
C418 C419 1.502 . S
C418 C420 1.561 . S
C418 C421 1.526 . S
C419 H403 0.959 . S
C419 H404 0.959 . S
C419 H405 0.961 . S
C419 C418 1.502 . S
C420 H406 0.960 . S
C420 H407 0.961 . S
C420 H408 0.959 . S
C420 C418 1.561 . S
C421 C418 1.526 . S
C421 C422 1.396 . S
C421 C426 1.390 . S
C422 C416 1.465 . S
C422 C421 1.396 . S
C422 C423 1.399 . S
C423 H409 0.929 . S
C423 C422 1.399 . S
C423 C424 1.385 . S
C424 H410 0.931 . S
C424 C423 1.385 . S
C424 C425 1.389 . S
C425 C424 1.389 . S
C425 C426 1.387 . S
C426 H411 0.930 . S
C426 C421 1.390 . S
C426 C425 1.387 . S
H427 C439 0.930 . S
H428 C441 0.930 . S
H429 C442 0.930 . S
H430 C446 0.959 . S
H431 C446 0.959 . S
H432 C446 0.961 . S
H433 C447 0.960 . S
H434 C447 0.961 . S
H435 C447 0.959 . S
H436 C450 0.929 . S
H437 C451 0.931 . S
H438 C453 0.930 . S
C439 H427 0.930 . S
C439 C440 1.399 . S
C439 C444 1.399 . S
C440 C439 1.399 . S
C440 C441 1.376 . S
C441 H428 0.930 . S
C441 C440 1.376 . S
C441 C442 1.388 . S
C442 H429 0.930 . S
C442 C441 1.388 . S
C442 C443 1.390 . S
C443 C442 1.390 . S
C443 C444 1.394 . S
C443 C449 1.465 . S
C444 C439 1.399 . S
C444 C443 1.394 . S
C444 C445 1.516 . S
C445 C444 1.516 . S
C445 C446 1.502 . S
C445 C447 1.561 . S
C445 C448 1.526 . S
C446 H430 0.959 . S
C446 H431 0.959 . S
C446 H432 0.961 . S
C446 C445 1.502 . S
C447 H433 0.960 . S
C447 H434 0.961 . S
C447 H435 0.959 . S
C447 C445 1.561 . S
C448 C445 1.526 . S
C448 C449 1.396 . S
C448 C453 1.390 . S
C449 C443 1.465 . S
C449 C448 1.396 . S
C449 C450 1.399 . S
C450 H436 0.929 . S
C450 C449 1.399 . S
C450 C451 1.385 . S
C451 H437 0.931 . S
C451 C450 1.385 . S
C451 C452 1.389 . S
C452 C451 1.389 . S
C452 C453 1.387 . S
C453 H438 0.930 . S
C453 C448 1.390 . S
C453 C452 1.387 . S
H454 C466 0.930 . S
H455 C468 0.930 . S
H456 C469 0.930 . S
H457 C473 0.959 . S
H458 C473 0.959 . S
H459 C473 0.961 . S
H460 C474 0.960 . S
H461 C474 0.961 . S
H462 C474 0.959 . S
H463 C477 0.929 . S
H464 C478 0.931 . S
H465 C480 0.930 . S
C466 H454 0.930 . S
C466 C467 1.399 . S
C466 C471 1.399 . S
C467 C466 1.399 . S
C467 C468 1.376 . S
C468 H455 0.930 . S
C468 C467 1.376 . S
C468 C469 1.388 . S
C469 H456 0.930 . S
C469 C468 1.388 . S
C469 C470 1.390 . S
C470 C469 1.390 . S
C470 C471 1.394 . S
C470 C476 1.465 . S
C471 C466 1.399 . S
C471 C470 1.394 . S
C471 C472 1.516 . S
C472 C471 1.516 . S
C472 C473 1.502 . S
C472 C474 1.561 . S
C472 C475 1.526 . S
C473 H457 0.959 . S
C473 H458 0.959 . S
C473 H459 0.961 . S
C473 C472 1.502 . S
C474 H460 0.960 . S
C474 H461 0.961 . S
C474 H462 0.959 . S
C474 C472 1.561 . S
C475 C472 1.526 . S
C475 C476 1.396 . S
C475 C480 1.390 . S
C476 C470 1.465 . S
C476 C475 1.396 . S
C476 C477 1.399 . S
C477 H463 0.929 . S
C477 C476 1.399 . S
C477 C478 1.385 . S
C478 H464 0.931 . S
C478 C477 1.385 . S
C478 C479 1.389 . S
C479 C478 1.389 . S
C479 C480 1.387 . S
C480 H465 0.930 . S
C480 C475 1.390 . S
C480 C479 1.387 . S
H481 C493 0.930 . S
H482 C495 0.930 . S
H483 C496 0.930 . S
H484 C500 0.959 . S
H485 C500 0.959 . S
H486 C500 0.961 . S
H487 C501 0.960 . S
H488 C501 0.961 . S
H489 C501 0.959 . S
H490 C504 0.929 . S
H491 C505 0.931 . S
H492 C507 0.930 . S
C493 H481 0.930 . S
C493 C494 1.399 . S
C493 C498 1.399 . S
C494 C493 1.399 . S
C494 C495 1.376 . S
C495 H482 0.930 . S
C495 C494 1.376 . S
C495 C496 1.388 . S
C496 H483 0.930 . S
C496 C495 1.388 . S
C496 C497 1.390 . S
C497 C496 1.390 . S
C497 C498 1.394 . S
C497 C503 1.465 . S
C498 C493 1.399 . S
C498 C497 1.394 . S
C498 C499 1.516 . S
C499 C498 1.516 . S
C499 C500 1.502 . S
C499 C501 1.561 . S
C499 C502 1.526 . S
C500 H484 0.959 . S
C500 H485 0.959 . S
C500 H486 0.961 . S
C500 C499 1.502 . S
C501 H487 0.960 . S
C501 H488 0.961 . S
C501 H489 0.959 . S
C501 C499 1.561 . S
C502 C499 1.526 . S
C502 C503 1.396 . S
C502 C507 1.390 . S
C503 C497 1.465 . S
C503 C502 1.396 . S
C503 C504 1.399 . S
C504 H490 0.929 . S
C504 C503 1.399 . S
C504 C505 1.385 . S
C505 H491 0.931 . S
C505 C504 1.385 . S
C505 C506 1.389 . S
C506 C505 1.389 . S
C506 C507 1.387 . S
C507 H492 0.930 . S
C507 C502 1.390 . S
C507 C506 1.387 . S
H508 C520 0.930 . S
H509 C522 0.930 . S
H510 C523 0.930 . S
H511 C527 0.959 . S
H512 C527 0.959 . S
H513 C527 0.961 . S
H514 C528 0.960 . S
H515 C528 0.961 . S
H516 C528 0.959 . S
H517 C531 0.929 . S
H518 C532 0.931 . S
H519 C534 0.930 . S
C520 H508 0.930 . S
C520 C521 1.399 . S
C520 C525 1.399 . S
C521 C520 1.399 . S
C521 C522 1.376 . S
C522 H509 0.930 . S
C522 C521 1.376 . S
C522 C523 1.388 . S
C523 H510 0.930 . S
C523 C522 1.388 . S
C523 C524 1.390 . S
C524 C523 1.390 . S
C524 C525 1.394 . S
C524 C530 1.465 . S
C525 C520 1.399 . S
C525 C524 1.394 . S
C525 C526 1.516 . S
C526 C525 1.516 . S
C526 C527 1.502 . S
C526 C528 1.561 . S
C526 C529 1.526 . S
C527 H511 0.959 . S
C527 H512 0.959 . S
C527 H513 0.961 . S
C527 C526 1.502 . S
C528 H514 0.960 . S
C528 H515 0.961 . S
C528 H516 0.959 . S
C528 C526 1.561 . S
C529 C526 1.526 . S
C529 C530 1.396 . S
C529 C534 1.390 . S
C530 C524 1.465 . S
C530 C529 1.396 . S
C530 C531 1.399 . S
C531 H517 0.929 . S
C531 C530 1.399 . S
C531 C532 1.385 . S
C532 H518 0.931 . S
C532 C531 1.385 . S
C532 C533 1.389 . S
C533 C532 1.389 . S
C533 C534 1.387 . S
C534 H519 0.930 . S
C534 C529 1.390 . S
C534 C533 1.387 . S
H535 C547 0.930 . S
H536 C549 0.930 . S
H537 C550 0.930 . S
H538 C554 0.959 . S
H539 C554 0.959 . S
H540 C554 0.961 . S
H541 C555 0.960 . S
H542 C555 0.961 . S
H543 C555 0.959 . S
H544 C558 0.929 . S
H545 C559 0.931 . S
H546 C561 0.930 . S
C547 H535 0.930 . S
C547 C548 1.399 . S
C547 C552 1.399 . S
C548 C547 1.399 . S
C548 C549 1.376 . S
C549 H536 0.930 . S
C549 C548 1.376 . S
C549 C550 1.388 . S
C550 H537 0.930 . S
C550 C549 1.388 . S
C550 C551 1.390 . S
C551 C550 1.390 . S
C551 C552 1.394 . S
C551 C557 1.465 . S
C552 C547 1.399 . S
C552 C551 1.394 . S
C552 C553 1.516 . S
C553 C552 1.516 . S
C553 C554 1.502 . S
C553 C555 1.561 . S
C553 C556 1.526 . S
C554 H538 0.959 . S
C554 H539 0.959 . S
C554 H540 0.961 . S
C554 C553 1.502 . S
C555 H541 0.960 . S
C555 H542 0.961 . S
C555 H543 0.959 . S
C555 C553 1.561 . S
C556 C553 1.526 . S
C556 C557 1.396 . S
C556 C561 1.390 . S
C557 C551 1.465 . S
C557 C556 1.396 . S
C557 C558 1.399 . S
C558 H544 0.929 . S
C558 C557 1.399 . S
C558 C559 1.385 . S
C559 H545 0.931 . S
C559 C558 1.385 . S
C559 C560 1.389 . S
C560 C559 1.389 . S
C560 C561 1.387 . S
C561 H546 0.930 . S
C561 C556 1.390 . S
C561 C560 1.387 . S
H562 C574 0.930 . S
H563 C576 0.930 . S
H564 C577 0.930 . S
H565 C581 0.959 . S
H566 C581 0.959 . S
H567 C581 0.961 . S
H568 C582 0.960 . S
H569 C582 0.961 . S
H570 C582 0.959 . S
H571 C585 0.929 . S
H572 C586 0.931 . S
H573 C588 0.930 . S
C574 H562 0.930 . S
C574 C575 1.399 . S
C574 C579 1.399 . S
C575 C574 1.399 . S
C575 C576 1.376 . S
C576 H563 0.930 . S
C576 C575 1.376 . S
C576 C577 1.388 . S
C577 H564 0.930 . S
C577 C576 1.388 . S
C577 C578 1.390 . S
C578 C577 1.390 . S
C578 C579 1.394 . S
C578 C584 1.465 . S
C579 C574 1.399 . S
C579 C578 1.394 . S
C579 C580 1.516 . S
C580 C579 1.516 . S
C580 C581 1.502 . S
C580 C582 1.561 . S
C580 C583 1.526 . S
C581 H565 0.959 . S
C581 H566 0.959 . S
C581 H567 0.961 . S
C581 C580 1.502 . S
C582 H568 0.960 . S
C582 H569 0.961 . S
C582 H570 0.959 . S
C582 C580 1.561 . S
C583 C580 1.526 . S
C583 C584 1.396 . S
C583 C588 1.390 . S
C584 C578 1.465 . S
C584 C583 1.396 . S
C584 C585 1.399 . S
C585 H571 0.929 . S
C585 C584 1.399 . S
C585 C586 1.385 . S
C586 H572 0.931 . S
C586 C585 1.385 . S
C586 C587 1.389 . S
C587 C586 1.389 . S
C587 C588 1.387 . S
C588 H573 0.930 . S
C588 C583 1.390 . S
C588 C587 1.387 . S
H589 C601 0.930 . S
H590 C603 0.930 . S
H591 C604 0.930 . S
H592 C608 0.959 . S
H593 C608 0.959 . S
H594 C608 0.961 . S
H595 C609 0.960 . S
H596 C609 0.961 . S
H597 C609 0.959 . S
H598 C612 0.929 . S
H599 C613 0.931 . S
H600 C615 0.930 . S
C601 H589 0.930 . S
C601 C602 1.399 . S
C601 C606 1.399 . S
C602 C601 1.399 . S
C602 C603 1.376 . S
C603 H590 0.930 . S
C603 C602 1.376 . S
C603 C604 1.388 . S
C604 H591 0.930 . S
C604 C603 1.388 . S
C604 C605 1.390 . S
C605 C604 1.390 . S
C605 C606 1.394 . S
C605 C611 1.465 . S
C606 C601 1.399 . S
C606 C605 1.394 . S
C606 C607 1.516 . S
C607 C606 1.516 . S
C607 C608 1.502 . S
C607 C609 1.561 . S
C607 C610 1.526 . S
C608 H592 0.959 . S
C608 H593 0.959 . S
C608 H594 0.961 . S
C608 C607 1.502 . S
C609 H595 0.960 . S
C609 H596 0.961 . S
C609 H597 0.959 . S
C609 C607 1.561 . S
C610 C607 1.526 . S
C610 C611 1.396 . S
C610 C615 1.390 . S
C611 C605 1.465 . S
C611 C610 1.396 . S
C611 C612 1.399 . S
C612 H598 0.929 . S
C612 C611 1.399 . S
C612 C613 1.385 . S
C613 H599 0.931 . S
C613 C612 1.385 . S
C613 C614 1.389 . S
C614 C613 1.389 . S
C614 C615 1.387 . S
C615 H600 0.930 . S
C615 C610 1.390 . S
C615 C614 1.387 . S
H616 C628 0.930 . S
H617 C630 0.930 . S
H618 C631 0.930 . S
H619 C635 0.959 . S
H620 C635 0.959 . S
H621 C635 0.961 . S
H622 C636 0.960 . S
H623 C636 0.961 . S
H624 C636 0.959 . S
H625 C639 0.929 . S
H626 C640 0.931 . S
H627 C642 0.930 . S
C628 H616 0.930 . S
C628 C629 1.399 . S
C628 C633 1.399 . S
C629 C628 1.399 . S
C629 C630 1.376 . S
C630 H617 0.930 . S
C630 C629 1.376 . S
C630 C631 1.388 . S
C631 H618 0.930 . S
C631 C630 1.388 . S
C631 C632 1.390 . S
C632 C631 1.390 . S
C632 C633 1.394 . S
C632 C638 1.465 . S
C633 C628 1.399 . S
C633 C632 1.394 . S
C633 C634 1.516 . S
C634 C633 1.516 . S
C634 C635 1.502 . S
C634 C636 1.561 . S
C634 C637 1.526 . S
C635 H619 0.959 . S
C635 H620 0.959 . S
C635 H621 0.961 . S
C635 C634 1.502 . S
C636 H622 0.960 . S
C636 H623 0.961 . S
C636 H624 0.959 . S
C636 C634 1.561 . S
C637 C634 1.526 . S
C637 C638 1.396 . S
C637 C642 1.390 . S
C638 C632 1.465 . S
C638 C637 1.396 . S
C638 C639 1.399 . S
C639 H625 0.929 . S
C639 C638 1.399 . S
C639 C640 1.385 . S
C640 H626 0.931 . S
C640 C639 1.385 . S
C640 C641 1.389 . S
C641 C640 1.389 . S
C641 C642 1.387 . S
C642 H627 0.930 . S
C642 C637 1.390 . S
C642 C641 1.387 . S
H643 C655 0.930 . S
H644 C657 0.930 . S
H645 C658 0.930 . S
H646 C662 0.959 . S
H647 C662 0.959 . S
H648 C662 0.961 . S
H649 C663 0.960 . S
H650 C663 0.961 . S
H651 C663 0.959 . S
H652 C666 0.929 . S
H653 C667 0.931 . S
H654 C669 0.930 . S
C655 H643 0.930 . S
C655 C656 1.399 . S
C655 C660 1.399 . S
C656 C655 1.399 . S
C656 C657 1.376 . S
C657 H644 0.930 . S
C657 C656 1.376 . S
C657 C658 1.388 . S
C658 H645 0.930 . S
C658 C657 1.388 . S
C658 C659 1.390 . S
C659 C658 1.390 . S
C659 C660 1.394 . S
C659 C665 1.465 . S
C660 C655 1.399 . S
C660 C659 1.394 . S
C660 C661 1.516 . S
C661 C660 1.516 . S
C661 C662 1.502 . S
C661 C663 1.561 . S
C661 C664 1.526 . S
C662 H646 0.959 . S
C662 H647 0.959 . S
C662 H648 0.961 . S
C662 C661 1.502 . S
C663 H649 0.960 . S
C663 H650 0.961 . S
C663 H651 0.959 . S
C663 C661 1.561 . S
C664 C661 1.526 . S
C664 C665 1.396 . S
C664 C669 1.390 . S
C665 C659 1.465 . S
C665 C664 1.396 . S
C665 C666 1.399 . S
C666 H652 0.929 . S
C666 C665 1.399 . S
C666 C667 1.385 . S
C667 H653 0.931 . S
C667 C666 1.385 . S
C667 C668 1.389 . S
C668 C667 1.389 . S
C668 C669 1.387 . S
C669 H654 0.930 . S
C669 C664 1.390 . S
C669 C668 1.387 . S
H670 C682 0.930 . S
H671 C684 0.930 . S
H672 C685 0.930 . S
H673 C689 0.959 . S
H674 C689 0.959 . S
H675 C689 0.961 . S
H676 C690 0.960 . S
H677 C690 0.961 . S
H678 C690 0.959 . S
H679 C693 0.929 . S
H680 C694 0.931 . S
H681 C696 0.930 . S
C682 H670 0.930 . S
C682 C683 1.399 . S
C682 C687 1.399 . S
C683 C682 1.399 . S
C683 C684 1.376 . S
C684 H671 0.930 . S
C684 C683 1.376 . S
C684 C685 1.388 . S
C685 H672 0.930 . S
C685 C684 1.388 . S
C685 C686 1.390 . S
C686 C685 1.390 . S
C686 C687 1.394 . S
C686 C692 1.465 . S
C687 C682 1.399 . S
C687 C686 1.394 . S
C687 C688 1.516 . S
C688 C687 1.516 . S
C688 C689 1.502 . S
C688 C690 1.561 . S
C688 C691 1.526 . S
C689 H673 0.959 . S
C689 H674 0.959 . S
C689 H675 0.961 . S
C689 C688 1.502 . S
C690 H676 0.960 . S
C690 H677 0.961 . S
C690 H678 0.959 . S
C690 C688 1.561 . S
C691 C688 1.526 . S
C691 C692 1.396 . S
C691 C696 1.390 . S
C692 C686 1.465 . S
C692 C691 1.396 . S
C692 C693 1.399 . S
C693 H679 0.929 . S
C693 C692 1.399 . S
C693 C694 1.385 . S
C694 H680 0.931 . S
C694 C693 1.385 . S
C694 C695 1.389 . S
C695 C694 1.389 . S
C695 C696 1.387 . S
C696 H681 0.930 . S
C696 C691 1.390 . S
C696 C695 1.387 . S
H697 C709 0.930 . S
H698 C711 0.930 . S
H699 C712 0.930 . S
H700 C716 0.959 . S
H701 C716 0.959 . S
H702 C716 0.961 . S
H703 C717 0.960 . S
H704 C717 0.961 . S
H705 C717 0.959 . S
H706 C720 0.929 . S
H707 C721 0.931 . S
H708 C723 0.930 . S
C709 H697 0.930 . S
C709 C710 1.399 . S
C709 C714 1.399 . S
C710 C709 1.399 . S
C710 C711 1.376 . S
C711 H698 0.930 . S
C711 C710 1.376 . S
C711 C712 1.388 . S
C712 H699 0.930 . S
C712 C711 1.388 . S
C712 C713 1.390 . S
C713 C712 1.390 . S
C713 C714 1.394 . S
C713 C719 1.465 . S
C714 C709 1.399 . S
C714 C713 1.394 . S
C714 C715 1.516 . S
C715 C714 1.516 . S
C715 C716 1.502 . S
C715 C717 1.561 . S
C715 C718 1.526 . S
C716 H700 0.959 . S
C716 H701 0.959 . S
C716 H702 0.961 . S
C716 C715 1.502 . S
C717 H703 0.960 . S
C717 H704 0.961 . S
C717 H705 0.959 . S
C717 C715 1.561 . S
C718 C715 1.526 . S
C718 C719 1.396 . S
C718 C723 1.390 . S
C719 C713 1.465 . S
C719 C718 1.396 . S
C719 C720 1.399 . S
C720 H706 0.929 . S
C720 C719 1.399 . S
C720 C721 1.385 . S
C721 H707 0.931 . S
C721 C720 1.385 . S
C721 C722 1.389 . S
C722 C721 1.389 . S
C722 C723 1.387 . S
C723 H708 0.930 . S
C723 C718 1.390 . S
C723 C722 1.387 . S
H724 C736 0.930 . S
H725 C738 0.930 . S
H726 C739 0.930 . S
H727 C743 0.959 . S
H728 C743 0.959 . S
H729 C743 0.961 . S
H730 C744 0.960 . S
H731 C744 0.961 . S
H732 C744 0.959 . S
H733 C747 0.929 . S
H734 C748 0.931 . S
H735 C750 0.930 . S
C736 H724 0.930 . S
C736 C737 1.399 . S
C736 C741 1.399 . S
C737 C736 1.399 . S
C737 C738 1.376 . S
C738 H725 0.930 . S
C738 C737 1.376 . S
C738 C739 1.388 . S
C739 H726 0.930 . S
C739 C738 1.388 . S
C739 C740 1.390 . S
C740 C739 1.390 . S
C740 C741 1.394 . S
C740 C746 1.465 . S
C741 C736 1.399 . S
C741 C740 1.394 . S
C741 C742 1.516 . S
C742 C741 1.516 . S
C742 C743 1.502 . S
C742 C744 1.561 . S
C742 C745 1.526 . S
C743 H727 0.959 . S
C743 H728 0.959 . S
C743 H729 0.961 . S
C743 C742 1.502 . S
C744 H730 0.960 . S
C744 H731 0.961 . S
C744 H732 0.959 . S
C744 C742 1.561 . S
C745 C742 1.526 . S
C745 C746 1.396 . S
C745 C750 1.390 . S
C746 C740 1.465 . S
C746 C745 1.396 . S
C746 C747 1.399 . S
C747 H733 0.929 . S
C747 C746 1.399 . S
C747 C748 1.385 . S
C748 H734 0.931 . S
C748 C747 1.385 . S
C748 C749 1.389 . S
C749 C748 1.389 . S
C749 C750 1.387 . S
C750 H735 0.930 . S
C750 C745 1.390 . S
C750 C749 1.387 . S
H751 C763 0.930 . S
H752 C765 0.930 . S
H753 C766 0.930 . S
H754 C770 0.959 . S
H755 C770 0.959 . S
H756 C770 0.961 . S
H757 C771 0.960 . S
H758 C771 0.961 . S
H759 C771 0.959 . S
H760 C774 0.929 . S
H761 C775 0.931 . S
H762 C777 0.930 . S
C763 H751 0.930 . S
C763 C764 1.399 . S
C763 C768 1.399 . S
C764 C763 1.399 . S
C764 C765 1.376 . S
C765 H752 0.930 . S
C765 C764 1.376 . S
C765 C766 1.388 . S
C766 H753 0.930 . S
C766 C765 1.388 . S
C766 C767 1.390 . S
C767 C766 1.390 . S
C767 C768 1.394 . S
C767 C773 1.465 . S
C768 C763 1.399 . S
C768 C767 1.394 . S
C768 C769 1.516 . S
C769 C768 1.516 . S
C769 C770 1.502 . S
C769 C771 1.561 . S
C769 C772 1.526 . S
C770 H754 0.959 . S
C770 H755 0.959 . S
C770 H756 0.961 . S
C770 C769 1.502 . S
C771 H757 0.960 . S
C771 H758 0.961 . S
C771 H759 0.959 . S
C771 C769 1.561 . S
C772 C769 1.526 . S
C772 C773 1.396 . S
C772 C777 1.390 . S
C773 C767 1.465 . S
C773 C772 1.396 . S
C773 C774 1.399 . S
C774 H760 0.929 . S
C774 C773 1.399 . S
C774 C775 1.385 . S
C775 H761 0.931 . S
C775 C774 1.385 . S
C775 C776 1.389 . S
C776 C775 1.389 . S
C776 C777 1.387 . S
C777 H762 0.930 . S
C777 C772 1.390 . S
C777 C776 1.387 . S
H778 C790 0.930 . S
H779 C792 0.930 . S
H780 C793 0.930 . S
H781 C797 0.959 . S
H782 C797 0.959 . S
H783 C797 0.961 . S
H784 C798 0.960 . S
H785 C798 0.961 . S
H786 C798 0.959 . S
H787 C801 0.929 . S
H788 C802 0.931 . S
H789 C804 0.930 . S
C790 H778 0.930 . S
C790 C791 1.399 . S
C790 C795 1.399 . S
C791 C790 1.399 . S
C791 C792 1.376 . S
C792 H779 0.930 . S
C792 C791 1.376 . S
C792 C793 1.388 . S
C793 H780 0.930 . S
C793 C792 1.388 . S
C793 C794 1.390 . S
C794 C793 1.390 . S
C794 C795 1.394 . S
C794 C800 1.465 . S
C795 C790 1.399 . S
C795 C794 1.394 . S
C795 C796 1.516 . S
C796 C795 1.516 . S
C796 C797 1.502 . S
C796 C798 1.561 . S
C796 C799 1.526 . S
C797 H781 0.959 . S
C797 H782 0.959 . S
C797 H783 0.961 . S
C797 C796 1.502 . S
C798 H784 0.960 . S
C798 H785 0.961 . S
C798 H786 0.959 . S
C798 C796 1.561 . S
C799 C796 1.526 . S
C799 C800 1.396 . S
C799 C804 1.390 . S
C800 C794 1.465 . S
C800 C799 1.396 . S
C800 C801 1.399 . S
C801 H787 0.929 . S
C801 C800 1.399 . S
C801 C802 1.385 . S
C802 H788 0.931 . S
C802 C801 1.385 . S
C802 C803 1.389 . S
C803 C802 1.389 . S
C803 C804 1.387 . S
C804 H789 0.930 . S
C804 C799 1.390 . S
C804 C803 1.387 . S
H805 C817 0.930 . S
H806 C819 0.930 . S
H807 C820 0.930 . S
H808 C824 0.959 . S
H809 C824 0.959 . S
H810 C824 0.961 . S
H811 C825 0.960 . S
H812 C825 0.961 . S
H813 C825 0.959 . S
H814 C828 0.929 . S
H815 C829 0.931 . S
H816 C831 0.930 . S
C817 H805 0.930 . S
C817 C818 1.399 . S
C817 C822 1.399 . S
C818 C817 1.399 . S
C818 C819 1.376 . S
C819 H806 0.930 . S
C819 C818 1.376 . S
C819 C820 1.388 . S
C820 H807 0.930 . S
C820 C819 1.388 . S
C820 C821 1.390 . S
C821 C820 1.390 . S
C821 C822 1.394 . S
C821 C827 1.465 . S
C822 C817 1.399 . S
C822 C821 1.394 . S
C822 C823 1.516 . S
C823 C822 1.516 . S
C823 C824 1.502 . S
C823 C825 1.561 . S
C823 C826 1.526 . S
C824 H808 0.959 . S
C824 H809 0.959 . S
C824 H810 0.961 . S
C824 C823 1.502 . S
C825 H811 0.960 . S
C825 H812 0.961 . S
C825 H813 0.959 . S
C825 C823 1.561 . S
C826 C823 1.526 . S
C826 C827 1.396 . S
C826 C831 1.390 . S
C827 C821 1.465 . S
C827 C826 1.396 . S
C827 C828 1.399 . S
C828 H814 0.929 . S
C828 C827 1.399 . S
C828 C829 1.385 . S
C829 H815 0.931 . S
C829 C828 1.385 . S
C829 C830 1.389 . S
C830 C829 1.389 . S
C830 C831 1.387 . S
C831 H816 0.930 . S
C831 C826 1.390 . S
C831 C830 1.387 . S
H832 C844 0.930 . S
H833 C846 0.930 . S
H834 C847 0.930 . S
H835 C851 0.959 . S
H836 C851 0.959 . S
H837 C851 0.961 . S
H838 C852 0.960 . S
H839 C852 0.961 . S
H840 C852 0.959 . S
H841 C855 0.929 . S
H842 C856 0.931 . S
H843 C858 0.930 . S
C844 H832 0.930 . S
C844 C845 1.399 1_556 S
C844 C849 1.399 . S
C845 C844 1.399 1_554 S
C845 C846 1.376 . S
C846 H833 0.930 . S
C846 C845 1.376 . S
C846 C847 1.388 . S
C847 H834 0.930 . S
C847 C846 1.388 . S
C847 C848 1.390 . S
C848 C847 1.390 . S
C848 C849 1.394 1_554 S
C848 C854 1.465 . S
C849 C844 1.399 . S
C849 C848 1.394 1_556 S
C849 C850 1.516 . S
C850 C849 1.516 . S
C850 C851 1.502 . S
C850 C852 1.561 . S
C850 C853 1.526 . S
C851 H835 0.959 . S
C851 H836 0.959 . S
C851 H837 0.961 . S
C851 C850 1.502 . S
C852 H838 0.960 . S
C852 H839 0.961 . S
C852 H840 0.959 . S
C852 C850 1.561 . S
C853 C850 1.526 . S
C853 C854 1.396 1_556 S
C853 C858 1.390 . S
C854 C848 1.465 . S
C854 C853 1.396 1_554 S
C854 C855 1.399 . S
C855 H841 0.929 . S
C855 C854 1.399 . S
C855 C856 1.385 . S
C856 H842 0.931 . S
C856 C855 1.385 . S
C856 C857 1.389 . S
C857 C856 1.389 . S
C857 C858 1.387 1_554 S
C858 H843 0.930 . S
C858 C853 1.390 . S
C858 C857 1.387 1_556 S
H859 C871 0.930 . S
H860 C873 0.930 . S
H861 C874 0.930 . S
H862 C878 0.959 . S
H863 C878 0.959 . S
H864 C878 0.961 . S
H865 C879 0.960 . S
H866 C879 0.961 . S
H867 C879 0.959 . S
H868 C882 0.929 . S
H869 C883 0.931 . S
H870 C885 0.930 . S
C871 H859 0.930 . S
C871 C872 1.399 . S
C871 C876 1.399 . S
C872 C871 1.399 . S
C872 C873 1.376 . S
C873 H860 0.930 . S
C873 C872 1.376 . S
C873 C874 1.388 . S
C874 H861 0.930 . S
C874 C873 1.388 . S
C874 C875 1.390 . S
C875 C874 1.390 . S
C875 C876 1.394 . S
C875 C881 1.465 . S
C876 C871 1.399 . S
C876 C875 1.394 . S
C876 C877 1.516 . S
C877 C876 1.516 . S
C877 C878 1.502 . S
C877 C879 1.561 . S
C877 C880 1.526 . S
C878 H862 0.959 . S
C878 H863 0.959 . S
C878 H864 0.961 . S
C878 C877 1.502 . S
C879 H865 0.960 . S
C879 H866 0.961 . S
C879 H867 0.959 . S
C879 C877 1.561 . S
C880 C877 1.526 . S
C880 C881 1.396 . S
C880 C885 1.390 . S
C881 C875 1.465 . S
C881 C880 1.396 . S
C881 C882 1.399 . S
C882 H868 0.929 . S
C882 C881 1.399 . S
C882 C883 1.385 . S
C883 H869 0.931 . S
C883 C882 1.385 . S
C883 C884 1.389 . S
C884 C883 1.389 . S
C884 C885 1.387 . S
C885 H870 0.930 . S
C885 C880 1.390 . S
C885 C884 1.387 . S
H886 C898 0.930 . S
H887 C900 0.930 . S
H888 C901 0.930 . S
H889 C905 0.959 . S
H890 C905 0.959 . S
H891 C905 0.961 . S
H892 C906 0.960 . S
H893 C906 0.961 . S
H894 C906 0.959 . S
H895 C909 0.929 . S
H896 C910 0.931 . S
H897 C912 0.930 . S
C898 H886 0.930 . S
C898 C899 1.399 1_554 S
C898 C903 1.399 . S
C899 C898 1.399 1_556 S
C899 C900 1.376 . S
C900 H887 0.930 . S
C900 C899 1.376 . S
C900 C901 1.388 . S
C901 H888 0.930 . S
C901 C900 1.388 . S
C901 C902 1.390 . S
C902 C901 1.390 . S
C902 C903 1.394 1_556 S
C902 C908 1.465 . S
C903 C898 1.399 . S
C903 C902 1.394 1_554 S
C903 C904 1.516 . S
C904 C903 1.516 . S
C904 C905 1.502 . S
C904 C906 1.561 . S
C904 C907 1.526 . S
C905 H889 0.959 . S
C905 H890 0.959 . S
C905 H891 0.961 . S
C905 C904 1.502 . S
C906 H892 0.960 . S
C906 H893 0.961 . S
C906 H894 0.959 . S
C906 C904 1.561 . S
C907 C904 1.526 . S
C907 C908 1.396 1_554 S
C907 C912 1.390 . S
C908 C902 1.465 . S
C908 C907 1.396 1_556 S
C908 C909 1.399 . S
C909 H895 0.929 . S
C909 C908 1.399 . S
C909 C910 1.385 . S
C910 H896 0.931 . S
C910 C909 1.385 . S
C910 C911 1.389 . S
C911 C910 1.389 . S
C911 C912 1.387 1_556 S
C912 H897 0.930 . S
C912 C907 1.390 . S
C912 C911 1.387 1_554 S
H913 C925 0.930 . S
H914 C927 0.930 . S
H915 C928 0.930 . S
H916 C932 0.959 . S
H917 C932 0.959 . S
H918 C932 0.961 . S
H919 C933 0.960 . S
H920 C933 0.961 . S
H921 C933 0.959 . S
H922 C936 0.929 . S
H923 C937 0.931 . S
H924 C939 0.930 . S
C925 H913 0.930 . S
C925 C926 1.399 . S
C925 C930 1.399 . S
C926 C925 1.399 . S
C926 C927 1.376 . S
C927 H914 0.930 . S
C927 C926 1.376 . S
C927 C928 1.388 . S
C928 H915 0.930 . S
C928 C927 1.388 . S
C928 C929 1.390 . S
C929 C928 1.390 . S
C929 C930 1.394 . S
C929 C935 1.465 . S
C930 C925 1.399 . S
C930 C929 1.394 . S
C930 C931 1.516 . S
C931 C930 1.516 . S
C931 C932 1.502 . S
C931 C933 1.561 . S
C931 C934 1.526 . S
C932 H916 0.959 . S
C932 H917 0.959 . S
C932 H918 0.961 . S
C932 C931 1.502 . S
C933 H919 0.960 . S
C933 H920 0.961 . S
C933 H921 0.959 . S
C933 C931 1.561 . S
C934 C931 1.526 . S
C934 C935 1.396 . S
C934 C939 1.390 . S
C935 C929 1.465 . S
C935 C934 1.396 . S
C935 C936 1.399 . S
C936 H922 0.929 . S
C936 C935 1.399 . S
C936 C937 1.385 . S
C937 H923 0.931 . S
C937 C936 1.385 . S
C937 C938 1.389 . S
C938 C937 1.389 . S
C938 C939 1.387 . S
C939 H924 0.930 . S
C939 C934 1.390 . S
C939 C938 1.387 . S
H940 C952 0.930 . S
H941 C954 0.930 . S
H942 C955 0.930 . S
H943 C959 0.959 . S
H944 C959 0.959 . S
H945 C959 0.961 . S
H946 C960 0.960 . S
H947 C960 0.961 . S
H948 C960 0.959 . S
H949 C963 0.929 . S
H950 C964 0.931 . S
H951 C966 0.930 . S
C952 H940 0.930 . S
C952 C953 1.399 . S
C952 C957 1.399 . S
C953 C952 1.399 . S
C953 C954 1.376 . S
C954 H941 0.930 . S
C954 C953 1.376 . S
C954 C955 1.388 . S
C955 H942 0.930 . S
C955 C954 1.388 . S
C955 C956 1.390 . S
C956 C955 1.390 . S
C956 C957 1.394 . S
C956 C962 1.465 . S
C957 C952 1.399 . S
C957 C956 1.394 . S
C957 C958 1.516 . S
C958 C957 1.516 . S
C958 C959 1.502 . S
C958 C960 1.561 . S
C958 C961 1.526 . S
C959 H943 0.959 . S
C959 H944 0.959 . S
C959 H945 0.961 . S
C959 C958 1.502 . S
C960 H946 0.960 . S
C960 H947 0.961 . S
C960 H948 0.959 . S
C960 C958 1.561 . S
C961 C958 1.526 . S
C961 C962 1.396 . S
C961 C966 1.390 . S
C962 C956 1.465 . S
C962 C961 1.396 . S
C962 C963 1.399 . S
C963 H949 0.929 . S
C963 C962 1.399 . S
C963 C964 1.385 . S
C964 H950 0.931 . S
C964 C963 1.385 . S
C964 C965 1.389 . S
C965 C964 1.389 . S
C965 C966 1.387 . S
C966 H951 0.930 . S
C966 C961 1.390 . S
C966 C965 1.387 . S
H967 C979 0.930 . S
H968 C981 0.930 . S
H969 C982 0.930 . S
H970 C986 0.959 . S
H971 C986 0.959 . S
H972 C986 0.961 . S
H973 C987 0.960 . S
H974 C987 0.961 . S
H975 C987 0.959 . S
H976 C990 0.929 . S
H977 C991 0.931 . S
H978 C993 0.930 . S
C979 H967 0.930 . S
C979 C980 1.399 1_554 S
C979 C984 1.399 . S
C980 C979 1.399 1_556 S
C980 C981 1.376 . S
C981 H968 0.930 . S
C981 C980 1.376 . S
C981 C982 1.388 . S
C982 H969 0.930 . S
C982 C981 1.388 . S
C982 C983 1.390 . S
C983 C982 1.390 . S
C983 C984 1.394 1_556 S
C983 C989 1.465 . S
C984 C979 1.399 . S
C984 C983 1.394 1_554 S
C984 C985 1.516 . S
C985 C984 1.516 . S
C985 C986 1.502 . S
C985 C987 1.561 . S
C985 C988 1.526 . S
C986 H970 0.959 . S
C986 H971 0.959 . S
C986 H972 0.961 . S
C986 C985 1.502 . S
C987 H973 0.960 . S
C987 H974 0.961 . S
C987 H975 0.959 . S
C987 C985 1.561 . S
C988 C985 1.526 . S
C988 C989 1.396 1_554 S
C988 C993 1.390 . S
C989 C983 1.465 . S
C989 C988 1.396 1_556 S
C989 C990 1.399 . S
C990 H976 0.929 . S
C990 C989 1.399 . S
C990 C991 1.385 . S
C991 H977 0.931 . S
C991 C990 1.385 . S
C991 C992 1.389 . S
C992 C991 1.389 . S
C992 C993 1.387 1_556 S
C993 H978 0.930 . S
C993 C988 1.390 . S
C993 C992 1.387 1_554 S
H994 C1006 0.930 . S
H995 C1008 0.930 . S
H996 C1009 0.930 . S
H997 C1013 0.959 . S
H998 C1013 0.959 . S
H999 C1013 0.961 . S
H1000 C1014 0.960 . S
H1001 C1014 0.961 . S
H1002 C1014 0.959 . S
H1003 C1017 0.929 . S
H1004 C1018 0.931 . S
H1005 C1020 0.930 . S
C1006 H994 0.930 . S
C1006 C1007 1.399 . S
C1006 C1011 1.399 . S
C1007 C1006 1.399 . S
C1007 C1008 1.376 . S
C1008 H995 0.930 . S
C1008 C1007 1.376 . S
C1008 C1009 1.388 . S
C1009 H996 0.930 . S
C1009 C1008 1.388 . S
C1009 C1010 1.390 . S
C1010 C1009 1.390 . S
C1010 C1011 1.394 . S
C1010 C1016 1.465 . S
C1011 C1006 1.399 . S
C1011 C1010 1.394 . S
C1011 C1012 1.516 . S
C1012 C1011 1.516 . S
C1012 C1013 1.502 . S
C1012 C1014 1.561 . S
C1012 C1015 1.526 . S
C1013 H997 0.959 . S
C1013 H998 0.959 . S
C1013 H999 0.961 . S
C1013 C1012 1.502 . S
C1014 H1000 0.960 . S
C1014 H1001 0.961 . S
C1014 H1002 0.959 . S
C1014 C1012 1.561 . S
C1015 C1012 1.526 . S
C1015 C1016 1.396 . S
C1015 C1020 1.390 . S
C1016 C1010 1.465 . S
C1016 C1015 1.396 . S
C1016 C1017 1.399 . S
C1017 H1003 0.929 . S
C1017 C1016 1.399 . S
C1017 C1018 1.385 . S
C1018 H1004 0.931 . S
C1018 C1017 1.385 . S
C1018 C1019 1.389 . S
C1019 C1018 1.389 . S
C1019 C1020 1.387 . S
C1020 H1005 0.930 . S
C1020 C1015 1.390 . S
C1020 C1019 1.387 . S
H1021 C1033 0.930 . S
H1022 C1035 0.930 . S
H1023 C1036 0.930 . S
H1024 C1040 0.959 . S
H1025 C1040 0.959 . S
H1026 C1040 0.961 . S
H1027 C1041 0.960 . S
H1028 C1041 0.961 . S
H1029 C1041 0.959 . S
H1030 C1044 0.929 . S
H1031 C1045 0.931 . S
H1032 C1047 0.930 . S
C1033 H1021 0.930 . S
C1033 C1034 1.399 1_556 S
C1033 C1038 1.399 . S
C1034 C1033 1.399 1_554 S
C1034 C1035 1.376 . S
C1035 H1022 0.930 . S
C1035 C1034 1.376 . S
C1035 C1036 1.388 . S
C1036 H1023 0.930 . S
C1036 C1035 1.388 . S
C1036 C1037 1.390 . S
C1037 C1036 1.390 . S
C1037 C1038 1.394 1_554 S
C1037 C1043 1.465 . S
C1038 C1033 1.399 . S
C1038 C1037 1.394 1_556 S
C1038 C1039 1.516 . S
C1039 C1038 1.516 . S
C1039 C1040 1.502 . S
C1039 C1041 1.561 . S
C1039 C1042 1.526 . S
C1040 H1024 0.959 . S
C1040 H1025 0.959 . S
C1040 H1026 0.961 . S
C1040 C1039 1.502 . S
C1041 H1027 0.960 . S
C1041 H1028 0.961 . S
C1041 H1029 0.959 . S
C1041 C1039 1.561 . S
C1042 C1039 1.526 . S
C1042 C1043 1.396 1_556 S
C1042 C1047 1.390 . S
C1043 C1037 1.465 . S
C1043 C1042 1.396 1_554 S
C1043 C1044 1.399 . S
C1044 H1030 0.929 . S
C1044 C1043 1.399 . S
C1044 C1045 1.385 . S
C1045 H1031 0.931 . S
C1045 C1044 1.385 . S
C1045 C1046 1.389 . S
C1046 C1045 1.389 . S
C1046 C1047 1.387 1_554 S
C1047 H1032 0.930 . S
C1047 C1042 1.390 . S
C1047 C1046 1.387 1_556 S
C413 C21 1.591 . S
C425 C221 1.592 . S
C440 C40 1.737 . S
C452 C89 1.647 . S
C479 C128 1.526 . S
C467 C54 1.596 . S
C494 C73 1.765 . S
C506 C182 1.687 . S
C533 C284 1.587 . S
C521 C74 1.581 . S
C560 C338 1.699 . S
C548 C10 1.726 . S
C587 C377 1.572 . S
C575 C37 1.618 . S
C614 C245 1.743 . S
C602 C65 1.781 . S
C629 C52 1.577 . S
C641 C143 1.573 . S
C656 C87 1.765 . S
C668 C167 1.723 . S
C683 C15 1.632 . S
C695 C206 1.582 . S
C722 C104 1.651 . S
C710 C32 1.734 . S
C737 C29 1.636 . S
C749 C362 1.613 . S
C776 C260 1.723 . S
C764 C59 1.764 . S
C803 C299 1.539 . S
C791 C84 1.603 . S
C818 C8 1.736 . S
C830 C323 1.659 . S
C857 C109 1.813 . S
C845 C7 1.844 . S
C884 C148 1.636 . S
C872 C30 1.685 . S
C899 C62 1.865 1_556 S
C911 C187 1.778 1_556 S
C926 C81 1.640 . S
C938 C226 1.671 . S
C965 C265 1.806 . S
C953 C76 1.864 . S
C980 C18 1.686 1_556 S
C992 C304 1.633 1_556 S
C1007 C43 1.843 . S
C1019 C343 1.798 . S
C1034 C51 1.637 . S
C1046 C382 1.675 . S
