# Generated by pormake.
# Topology zzz, (3,6)-cn, num edge types: 1
# Building blocks:
#     Node 0, Type 0, BuildingBlock: VETTIZ_charged_linker_0, # of connection points: 3
#     Node 1, Type 0, BuildingBlock: VETTIZ_charged_linker_0, # of connection points: 3
#     Node 2, Type 0, BuildingBlock: VETTIZ_charged_linker_0, # of connection points: 3
#     Node 3, Type 0, BuildingBlock: VETTIZ_charged_linker_0, # of connection points: 3
#     Node 4, Type 0, BuildingBlock: VETTIZ_charged_linker_0, # of connection points: 3
#     Node 5, Type 0, BuildingBlock: VETTIZ_charged_linker_0, # of connection points: 3
#     Node 6, Type 0, BuildingBlock: VETTIZ_charged_linker_0, # of connection points: 3
#     Node 7, Type 0, BuildingBlock: VETTIZ_charged_linker_0, # of connection points: 3
#     Node 8, Type 1, BuildingBlock: KUMJIN_clean_sbu_1, # of connection points: 6
#     Node 9, Type 1, BuildingBlock: KUMJIN_clean_sbu_1, # of connection points: 6
#     Node 10, Type 1, BuildingBlock: KUMJIN_clean_sbu_1, # of connection points: 6
#     Node 11, Type 1, BuildingBlock: KUMJIN_clean_sbu_1, # of connection points: 6
#     Edge 12, Type (0, 1), BuildingBlock: KIFKEQ_clean_linker_1, # of connection points: 2
#     Edge 13, Type (0, 1), BuildingBlock: KIFKEQ_clean_linker_1, # of connection points: 2
#     Edge 14, Type (0, 1), BuildingBlock: KIFKEQ_clean_linker_1, # of connection points: 2
#     Edge 15, Type (0, 1), BuildingBlock: KIFKEQ_clean_linker_1, # of connection points: 2
#     Edge 16, Type (0, 1), BuildingBlock: KIFKEQ_clean_linker_1, # of connection points: 2
#     Edge 17, Type (0, 1), BuildingBlock: KIFKEQ_clean_linker_1, # of connection points: 2
#     Edge 18, Type (0, 1), BuildingBlock: KIFKEQ_clean_linker_1, # of connection points: 2
#     Edge 19, Type (0, 1), BuildingBlock: KIFKEQ_clean_linker_1, # of connection points: 2
#     Edge 20, Type (0, 1), BuildingBlock: KIFKEQ_clean_linker_1, # of connection points: 2
#     Edge 21, Type (0, 1), BuildingBlock: KIFKEQ_clean_linker_1, # of connection points: 2
#     Edge 22, Type (0, 1), BuildingBlock: KIFKEQ_clean_linker_1, # of connection points: 2
#     Edge 23, Type (0, 1), BuildingBlock: KIFKEQ_clean_linker_1, # of connection points: 2
#     Edge 24, Type (0, 1), BuildingBlock: KIFKEQ_clean_linker_1, # of connection points: 2
#     Edge 25, Type (0, 1), BuildingBlock: KIFKEQ_clean_linker_1, # of connection points: 2
#     Edge 26, Type (0, 1), BuildingBlock: KIFKEQ_clean_linker_1, # of connection points: 2
#     Edge 27, Type (0, 1), BuildingBlock: KIFKEQ_clean_linker_1, # of connection points: 2
#     Edge 28, Type (0, 1), BuildingBlock: KIFKEQ_clean_linker_1, # of connection points: 2
#     Edge 29, Type (0, 1), BuildingBlock: KIFKEQ_clean_linker_1, # of connection points: 2
#     Edge 30, Type (0, 1), BuildingBlock: KIFKEQ_clean_linker_1, # of connection points: 2
#     Edge 31, Type (0, 1), BuildingBlock: KIFKEQ_clean_linker_1, # of connection points: 2
#     Edge 32, Type (0, 1), BuildingBlock: KIFKEQ_clean_linker_1, # of connection points: 2
#     Edge 33, Type (0, 1), BuildingBlock: KIFKEQ_clean_linker_1, # of connection points: 2
#     Edge 34, Type (0, 1), BuildingBlock: KIFKEQ_clean_linker_1, # of connection points: 2
#     Edge 35, Type (0, 1), BuildingBlock: KIFKEQ_clean_linker_1, # of connection points: 2
# Relax obj value: 0.317
# Max RMSD: 0.211
# Mean RMSD: 0.184
data_MOF--net-zzz--node1-KUMJIN_clean_sbu_1--node2-VETTIZ_charged_linker_0--edge1-KIFKEQ_clean_linker_1
_symmetry_space_group_name_H-M    P1
_symmetry_Int_Tables_number       1
_symmetry_cell_setting            triclinic
loop_
_symmetry_equiv_pos_as_xyz
'x, y, z'
_cell_length_a     56.451576
_cell_length_b     56.44626
_cell_length_c     20.844395
_cell_angle_alpha  90.158918
_cell_angle_beta   89.930166
_cell_angle_gamma 90.212579
loop_
_atom_site_label
_atom_site_type_symbol
_atom_site_fract_x
_atom_site_fract_y
_atom_site_fract_z
_atom_type_partial_charge
C0 C 0.81436 0.55586 0.30527 0.0
C1 C 0.83736 0.56399 0.32271 0.0
C2 C 0.84832 0.58136 0.28472 0.0
C3 C 0.81484 0.58187 0.21215 0.0
C4 C 0.80321 0.5654 0.24982 0.0
C5 C 0.77859 0.56012 0.22274 0.0
H6 H 0.69662 0.58805 0.98789 0.0
C7 C 0.79939 0.5886 0.15816 0.0
C8 C 0.77749 0.57669 0.1644 0.0
H9 H 0.68731 0.53423 0.13219 0.0
H10 H 0.72644 0.54393 0.17677 0.0
H11 H 0.72254 0.62822 0.07683 0.0
H12 H 0.74008 0.57367 0.94536 0.0
H13 H 0.76631 0.59022 0.94449 0.0
H14 H 0.73892 0.60365 0.91897 0.0
H15 H 0.71846 0.62881 0.99145 0.0
H16 H 0.74538 0.63964 0.02812 0.0
C17 C 0.75979 0.56649 0.27344 0.0
C18 C 0.77762 0.53386 0.20252 0.0
C19 C 0.83503 0.62871 0.96403 0.0
C20 C 0.825 0.63429 0.90406 0.0
C21 C 0.80034 0.6377 0.90029 0.0
C22 C 0.7857 0.63185 0.95216 0.0
C23 C 0.79584 0.6223 1.00791 0.0
C24 C 0.82009 0.62266 1.01527 0.0
C25 C 0.8275 0.6131 0.07961 0.0
C26 C 0.80391 0.60357 0.10481 0.0
C27 C 0.78563 0.60882 0.06209 0.0
C28 C 0.83696 0.6342 0.12037 0.0
C29 C 0.8458 0.59305 0.0689 0.0
C30 C 0.70253 0.57859 0.03009 0.0
C31 C 0.68847 0.56073 0.057 0.0
C32 C 0.69767 0.54823 0.11035 0.0
C33 C 0.72037 0.55386 0.13615 0.0
C34 C 0.73428 0.5718 0.10749 0.0
C35 C 0.72502 0.58351 0.05487 0.0
C36 C 0.74214 0.60034 0.02489 0.0
C37 C 0.76329 0.59758 0.0686 0.0
C38 C 0.75899 0.58111 0.11827 0.0
C39 C 0.73165 0.62563 0.02996 0.0
C40 C 0.74714 0.59176 0.95493 0.0
H41 H 0.84686 0.60325 0.20342 0.0
H42 H 0.80536 0.54266 0.33406 0.0
H43 H 0.79325 0.52932 0.17244 0.0
H44 H 0.76179 0.5297 0.17362 0.0
H45 H 0.77768 0.52216 0.24531 0.0
H46 H 0.76259 0.5849 0.29112 0.0
H47 H 0.76086 0.55432 0.31513 0.0
H48 H 0.74166 0.56557 0.25387 0.0
H49 H 0.85396 0.62645 0.96902 0.0
H50 H 0.79222 0.64281 0.85538 0.0
H51 H 0.767 0.63349 0.94519 0.0
H52 H 0.8331 0.65168 0.09821 0.0
H53 H 0.85648 0.63327 0.12655 0.0
H54 H 0.82846 0.63492 0.1684 0.0
H55 H 0.83953 0.58062 0.03101 0.0
H56 H 0.84888 0.58223 0.11198 0.0
H57 H 0.86318 0.6004 0.05362 0.0
H58 H 0.86581 0.58791 0.29706 0.0
C59 C 0.83726 0.5903 0.2302 0.0
C60 C 0.91297 0.80966 0.94115 0.0
C61 C 0.91317 0.83447 0.93443 0.0
C62 C 0.91252 0.84846 0.99071 0.0
C63 C 0.92048 0.81381 0.05499 0.0
C64 C 0.91761 0.79971 1.00138 0.0
C65 C 0.92384 0.77426 1.01418 0.0
H66 H 1.00263 0.70268 0.1262 0.0
C67 C 0.93191 0.7995 0.1054 0.0
C68 C 0.93353 0.77623 0.08271 0.0
H69 H 0.93913 0.685 1.01941 0.0
H70 H 0.92143 0.72206 0.0537 0.0
H71 H 1.0083 0.76288 0.11064 0.0
H72 H 0.96199 0.72799 0.24868 0.0
H73 H 0.98139 0.74969 0.28142 0.0
H74 H 0.9934 0.72269 0.24955 0.0
H75 H 0.02013 0.74197 0.16725 0.0
H76 H 1.01226 0.77131 0.19276 0.0
C77 C 0.94312 0.76631 0.96573 0.0
C78 C 0.90089 0.75917 1.00914 0.0
C79 C 0.96681 0.8433 0.29479 0.0
C80 C 0.984 0.83843 0.34131 0.0
C81 C 0.99581 0.81633 0.33788 0.0
C82 C 0.98981 0.79926 0.29014 0.0
C83 C 0.972 0.80441 0.24487 0.0
C84 C 0.96134 0.82647 0.24752 0.0
C85 C 0.945 0.83073 0.19245 0.0
C86 C 0.94514 0.80668 0.16008 0.0
C87 C 0.96116 0.79097 0.18987 0.0
C88 C 0.95618 0.85053 0.14993 0.0
C89 C 0.9201 0.83674 0.21912 0.0
C90 C 0.98528 0.70723 0.10811 0.0
C91 C 0.97289 0.69146 0.0662 0.0
C92 C 0.9495 0.6971 0.04854 0.0
C93 C 0.93952 0.71875 0.06583 0.0
C94 C 0.95324 0.73538 0.09873 0.0
C95 C 0.97444 0.72901 0.12591 0.0
C96 C 0.98185 0.74767 0.17557 0.0
C97 C 0.96324 0.76721 0.16508 0.0
C98 C 0.94765 0.75974 0.1164 0.0
C99 C 1.00709 0.75648 0.16094 0.0
C100 C 0.97965 0.7365 0.24266 0.0
H101 H 0.91589 0.84969 0.09183 0.0
H102 H 0.91189 0.79834 0.89927 0.0
H103 H 0.88627 0.76879 0.98492 0.0
H104 H 0.89421 0.75401 0.05732 0.0
H105 H 0.90368 0.74297 0.97983 0.0
H106 H 0.95888 0.77814 0.96866 0.0
H107 H 0.93631 0.76666 0.91581 0.0
H108 H 0.94908 0.748 0.97414 0.0
H109 H 0.95813 0.86038 0.29388 0.0
H110 H 1.00948 0.81218 0.3724 0.0
H111 H 0.99946 0.78291 0.28914 0.0
H112 H 0.97461 0.85512 0.16443 0.0
H113 H 0.94587 0.86722 0.1527 0.0
H114 H 0.95782 0.84505 0.09903 0.0
H115 H 0.91541 0.82477 0.25954 0.0
H116 H 0.90597 0.83433 0.183 0.0
H117 H 0.91947 0.85526 0.23723 0.0
H118 H 0.912 0.86759 0.98832 0.0
C119 C 0.91565 0.83812 0.05105 0.0
C120 C 0.83885 1.00185 0.10127 0.0
C121 C 0.85654 0.98959 0.06544 0.0
C122 C 0.85427 0.96489 0.05779 0.0
C123 C 0.81562 0.96571 0.10651 0.0
C124 C 0.81868 0.98907 0.12358 0.0
C125 C 0.79874 0.99667 0.16895 0.0
H126 H 0.69027 0.96419 0.30007 0.0
C127 C 0.79224 0.95759 0.12717 0.0
C128 C 0.7822 0.9749 0.1675 0.0
H129 H 0.72992 0.02696 0.35002 0.0
H130 H 0.76065 0.01615 0.27177 0.0
H131 H 0.69428 0.97232 0.16204 0.0
H132 H 0.73196 0.92597 0.28568 0.0
H133 H 0.72422 0.90998 0.21561 0.0
H134 H 0.70133 0.92364 0.263 0.0
H135 H 0.68578 0.94196 0.1683 0.0
H136 H 0.70634 0.95195 0.1075 0.0
C137 C 0.78656 0.01892 0.14243 0.0
C138 C 0.80952 1.00066 0.236 0.0
C139 C 0.7507 0.90083 0.97813 0.0
C140 C 0.72632 0.89634 0.97101 0.0
C141 C 0.71167 0.8986 0.0257 0.0
C142 C 0.72038 0.90879 0.0823 0.0
C143 C 0.74364 0.91761 0.08358 0.0
C144 C 0.75882 0.91237 0.03361 0.0
C145 C 0.7828 0.92364 0.04227 0.0
C146 C 0.77838 0.93869 0.10239 0.0
C147 C 0.75542 0.93515 0.12575 0.0
C148 C 0.78836 0.93905 0.98262 0.0
C149 C 0.80118 0.90363 0.0529 0.0
C150 C 0.70582 0.97538 0.29568 0.0
C151 C 0.70793 0.99599 0.33289 0.0
C152 C 0.72799 1.0107 0.32279 0.0
C153 C 0.74592 1.00429 0.27804 0.0
C154 C 0.74367 0.9831 0.24246 0.0
C155 C 0.72344 0.96948 0.25111 0.0
C156 C 0.722 0.9491 0.20528 0.0
C157 C 0.74592 0.95078 0.17261 0.0
C158 C 0.75886 0.97087 0.1934 0.0
C159 C 0.70106 0.95387 0.15846 0.0
C160 C 0.71961 0.92586 0.24412 0.0
H161 H 0.83357 0.93411 0.07401 0.0
H162 H 0.84078 0.02056 0.11164 0.0
H163 H 0.82062 0.98527 0.24999 0.0
H164 H 0.79591 1.00259 0.27352 0.0
H165 H 0.82093 0.01674 0.2364 0.0
H166 H 0.78066 0.01584 0.09221 0.0
H167 H 0.79892 0.03428 0.14276 0.0
H168 H 0.77075 0.02371 0.1709 0.0
H169 H 0.76271 0.89791 0.93841 0.0
H170 H 0.69288 0.89483 1.02331 0.0
H171 H 0.70818 0.91093 0.12125 0.0
H172 H 0.7741 0.95226 0.97473 0.0
H173 H 0.78998 0.92797 0.93877 0.0
H174 H 0.80522 0.94881 0.98682 0.0
H175 H 0.79357 0.88563 0.04519 0.0
H176 H 0.80818 0.90386 0.10271 0.0
H177 H 0.81623 0.90505 1.01875 0.0
H178 H 0.86781 0.95479 0.03309 0.0
C179 C 0.83421 0.95292 0.0794 0.0
C180 C 0.54119 0.72539 0.3052 0.0
C181 C 0.55346 0.70535 0.33003 0.0
C182 C 0.57606 0.70002 0.30517 0.0
C183 C 0.57196 0.73041 0.22522 0.0
C184 C 0.55143 0.73831 0.25348 0.0
C185 C 0.54434 0.76217 0.22428 0.0
H186 H 0.57386 0.8463 0.99464 0.0
C187 C 0.57849 0.74605 0.17278 0.0
C188 C 0.56381 0.76604 0.17335 0.0
H189 H 0.5144 0.85083 0.12413 0.0
H190 H 0.52571 0.81275 0.17203 0.0
H191 H 0.61296 0.82486 0.09439 0.0
H192 H 0.56949 0.80641 0.94399 0.0
H193 H 0.57817 0.77703 0.96022 0.0
H194 H 0.59953 0.79903 0.9344 0.0
H195 H 0.6154 0.82928 1.00921 0.0
H196 H 0.62805 0.80362 0.04725 0.0
C197 C 0.54515 0.78129 0.27704 0.0
C198 C 0.51968 0.75967 0.19359 0.0
C199 C 0.61191 0.71137 0.97023 0.0
C200 C 0.62002 0.72227 0.91332 0.0
C201 C 0.62783 0.74604 0.91646 0.0
C202 C 0.62392 0.75959 0.97186 0.0
C203 C 0.61173 0.74936 1.02343 0.0
C204 C 0.60822 0.72525 0.0251 0.0
C205 C 0.59813 0.71735 0.08846 0.0
C206 C 0.59381 0.74141 0.12079 0.0
C207 C 0.59971 0.75988 0.07919 0.0
C208 C 0.61676 0.70175 0.12214 0.0
C209 C 0.5747 0.70366 0.07795 0.0
C210 C 0.5634 0.83957 0.03426 0.0
C211 C 0.54357 0.85205 0.05624 0.0
C212 C 0.52996 0.84177 0.10629 0.0
C213 C 0.53657 0.81977 0.13421 0.0
C214 C 0.55672 0.80767 0.11111 0.0
C215 C 0.56932 0.81769 0.06092 0.0
C216 C 0.58898 0.80236 0.03703 0.0
C217 C 0.58689 0.78148 0.08233 0.0
C218 C 0.56814 0.78444 0.12694 0.0
C219 C 0.61268 0.81571 0.04704 0.0
C220 C 0.58394 0.79576 0.96555 0.0
H221 H 0.60367 0.70999 0.24064 0.0
H222 H 0.52457 0.73097 0.32615 0.0
H223 H 0.51936 0.74447 0.15954 0.0
H224 H 0.51471 0.77563 0.16631 0.0
H225 H 0.50597 0.75651 0.23094 0.0
H226 H 0.56252 0.78096 0.30213 0.0
H227 H 0.53099 0.77818 0.31318 0.0
H228 H 0.54295 0.79928 0.25743 0.0
H229 H 0.60647 0.69299 0.97076 0.0
H230 H 0.63546 0.75458 0.8748 0.0
H231 H 0.62958 0.77774 0.97203 0.0
H232 H 0.62661 0.69065 0.08705 0.0
H233 H 0.60835 0.68889 0.15525 0.0
H234 H 0.62993 0.71279 0.14837 0.0
H235 H 0.56185 0.71462 0.05073 0.0
H236 H 0.56647 0.69879 0.12447 0.0
H237 H 0.57777 0.68695 0.051 0.0
H238 H 0.58647 0.6858 0.32545 0.0
C239 C 0.58555 0.71289 0.25416 0.0
C240 C 0.3305 0.4898 0.24194 0.0
C241 C 0.34574 0.4785 0.28683 0.0
C242 C 0.33934 0.45601 0.31009 0.0
C243 C 0.30152 0.45843 0.25693 0.0
C244 C 0.30854 0.47879 0.22592 0.0
C245 C 0.29032 0.48533 0.17472 0.0
H246 H 0.17623 0.46509 0.06441 0.0
C247 C 0.27705 0.45272 0.23916 0.0
C248 C 0.27015 0.46758 0.18834 0.0
H249 H 0.22827 0.50956 0.97154 0.0
H250 H 0.25671 0.50058 0.05667 0.0
H251 H 0.20959 0.42134 0.09715 0.0
H252 H 0.18505 0.48287 0.19582 0.0
H253 H 0.19166 0.46343 0.25862 0.0
H254 H 0.16916 0.4555 0.20082 0.0
H255 H 0.1797 0.42633 0.12343 0.0
H256 H 0.20111 0.41239 0.17489 0.0
C257 C 0.30168 0.48098 0.10847 0.0
C258 C 0.28233 0.51113 0.18422 0.0
C259 C 0.22741 0.41353 0.41057 0.0
C260 C 0.2027 0.41309 0.41897 0.0
C261 C 0.18819 0.4151 0.36415 0.0
C262 C 0.19797 0.4209 0.30444 0.0
C263 C 0.2224 0.42539 0.29968 0.0
C264 C 0.23685 0.42055 0.35132 0.0
C265 C 0.26226 0.42715 0.33863 0.0
C266 C 0.26013 0.4388 0.27267 0.0
C267 C 0.23678 0.43774 0.25054 0.0
C268 C 0.27713 0.40405 0.3371 0.0
C269 C 0.27029 0.44495 0.39119 0.0
C270 C 0.1939 0.47247 0.06051 0.0
C271 C 0.19992 0.4875 1.0094 0.0
C272 C 0.22297 0.49766 1.00962 0.0
C273 C 0.23963 0.49219 0.05854 0.0
C274 C 0.23333 0.4763 0.10787 0.0
C275 C 0.21057 0.46704 0.1079 0.0
C276 C 0.20584 0.45137 0.1642 0.0
C277 C 0.23 0.45081 0.19548 0.0
C278 C 0.24636 0.46578 0.16377 0.0
C279 C 0.19851 0.42653 0.13904 0.0
C280 C 0.18692 0.4637 0.2071 0.0
H281 H 0.31369 0.42871 0.31344 0.0
H282 H 0.33557 0.50645 0.22021 0.0
H283 H 0.27578 0.51386 0.23401 0.0
H284 H 0.26781 0.51583 0.15114 0.0
H285 H 0.29729 0.52358 0.17575 0.0
H286 H 0.31018 0.46324 0.10674 0.0
H287 H 0.31551 0.49453 0.09838 0.0
H288 H 0.28861 0.48123 0.06931 0.0
H289 H 0.23903 0.41099 0.4512 0.0
H290 H 0.16907 0.41456 0.36818 0.0
H291 H 0.18589 0.42329 0.26541 0.0
H292 H 0.26621 0.38785 0.34486 0.0
H293 H 0.29084 0.40405 0.3753 0.0
H294 H 0.28592 0.4015 0.28987 0.0
H295 H 0.25799 0.46028 0.39347 0.0
H296 H 0.28819 0.45211 0.3833 0.0
H297 H 0.27064 0.43642 0.43911 0.0
H298 H 0.3509 0.44656 0.34257 0.0
C299 C 0.31759 0.44583 0.29448 0.0
C300 C 0.12646 0.24874 0.38471 0.0
C301 C 0.1284 0.22409 0.39253 0.0
C302 C 0.12846 0.20966 0.33704 0.0
C303 C 0.11692 0.24319 0.27228 0.0
C304 C 0.11997 0.25785 0.32476 0.0
C305 C 0.11222 0.28283 0.31154 0.0
H306 H 0.02831 0.34947 0.20564 0.0
C307 C 0.10409 0.25657 0.2224 0.0
C308 C 0.10165 0.27989 0.24425 0.0
H309 H 0.09223 0.37103 0.30515 0.0
H310 H 0.11146 0.33485 0.26986 0.0
H311 H 0.0688 0.32598 0.07978 0.0
H312 H 0.02601 0.28929 0.22262 0.0
H313 H 0.02154 0.28027 0.14116 0.0
H314 H 1.01245 0.30928 0.16643 0.0
H315 H 0.03714 0.32957 0.08145 0.0
H316 H 0.05024 0.30316 0.04914 0.0
C317 C 0.1344 0.29912 0.3134 0.0
C318 C 0.09327 0.29006 0.36171 0.0
C319 C 0.06983 0.21071 0.03519 0.0
C320 C 0.05191 0.21467 0.99004 0.0
C321 C 0.03887 0.23603 0.99469 0.0
C322 C 0.04439 0.25335 0.04211 0.0
C323 C 0.06294 0.2492 0.08592 0.0
C324 C 0.07479 0.22776 0.08241 0.0
C325 C 0.09184 0.22445 0.13654 0.0
C326 C 0.09068 0.24851 0.16887 0.0
C327 C 0.07357 0.26328 0.14001 0.0
C328 C 0.11679 0.21974 0.10847 0.0
C329 C 0.08215 0.20416 0.17991 0.0
C330 C 0.04614 0.34595 0.22194 0.0
C331 C 0.05824 0.36249 0.26223 0.0
C332 C 0.08214 0.35824 0.27744 0.0
C333 C 0.09304 0.33711 0.25961 0.0
C334 C 0.07977 0.31962 0.22865 0.0
C335 C 0.05791 0.32473 0.20347 0.0
C336 C 0.05087 0.30553 0.15496 0.0
C337 C 0.07058 0.28701 0.16427 0.0
C338 C 0.08637 0.29549 0.21122 0.0
C339 C 0.05169 0.31656 0.08747 0.0
C340 C 0.02629 0.2955 0.17204 0.0
H341 H 0.12262 0.20728 0.2368 0.0
H342 H 0.12758 0.26041 0.42588 0.0
H343 H 0.0781 0.27743 0.36089 0.0
H344 H 0.08625 0.30799 0.3533 0.0
H345 H 0.10079 0.29033 0.41088 0.0
H346 H 0.14993 0.29039 0.33596 0.0
H347 H 0.13125 0.31527 0.34268 0.0
H348 H 0.13999 0.30443 0.26434 0.0
H349 H 0.07951 0.19416 0.03492 0.0
H350 H 0.02462 0.23941 0.96125 0.0
H351 H 0.03381 0.2691 0.04406 0.0
H352 H 0.12065 0.23215 0.06837 0.0
H353 H 0.11814 0.20138 0.08953 0.0
H354 H 0.13103 0.22255 0.14409 0.0
H355 H 0.06375 0.1988 0.1672 0.0
H356 H 0.081 0.20951 0.23101 0.0
H357 H 0.09317 0.18796 0.17593 0.0
H358 H 0.13035 0.19063 0.34055 0.0
C359 C 0.12316 0.21922 0.27682 0.0
C360 C 0.31047 0.05971 0.99123 0.0
C361 C 0.3294 0.07174 0.95939 0.0
C362 C 0.33371 0.09567 0.97514 0.0
C363 C 0.30572 0.09343 0.06201 0.0
C364 C 0.29813 0.07154 0.04151 0.0
C365 C 0.27558 0.06459 0.0779 0.0
H366 H 0.20477 0.09127 0.34067 0.0
C367 C 0.293 0.10008 0.12027 0.0
C368 C 0.27401 0.08425 0.12928 0.0
H369 H 0.18843 0.03905 0.19572 0.0
H370 H 0.22582 0.04819 0.14079 0.0
H371 H 0.25325 0.07544 0.35943 0.0
H372 H 0.22548 0.13317 0.25302 0.0
H373 H 0.25032 0.14352 0.29666 0.0
H374 H 0.22588 0.13014 0.33884 0.0
H375 H 0.25298 0.10447 0.39328 0.0
H376 H 0.27838 0.09345 0.34981 0.0
C377 C 0.27856 0.03993 0.10795 0.0
C378 C 0.25471 0.06569 0.03044 0.0
C379 C 0.34244 0.13999 0.28927 0.0
C380 C 0.33902 0.14131 0.35598 0.0
C381 C 0.31568 0.14109 0.37999 0.0
C382 C 0.29657 0.13593 0.33926 0.0
C383 C 0.30102 0.13021 0.27464 0.0
C384 C 0.32342 0.13367 0.24974 0.0
C385 C 0.32529 0.12599 0.18076 0.0
C386 C 0.30066 0.1152 0.17051 0.0
C387 C 0.28684 0.11735 0.22597 0.0
C388 C 0.34516 0.1072 0.17464 0.0
C389 C 0.33007 0.14827 0.13918 0.0
C390 C 0.20869 0.0822 0.29604 0.0
C391 C 0.19308 0.06503 0.27171 0.0
C392 C 0.19986 0.05272 0.21523 0.0
C393 C 0.22136 0.05823 0.18287 0.0
C394 C 0.23633 0.07616 0.20727 0.0
C395 C 0.22984 0.08738 0.26381 0.0
C396 C 0.24828 0.10432 0.28751 0.0
C397 C 0.26577 0.10375 0.23245 0.0
C398 C 0.25922 0.08696 0.18513 0.0
C399 C 0.25877 0.09411 0.35074 0.0
C400 C 0.23698 0.12915 0.29487 0.0
H401 H 0.32473 0.12505 0.0342 0.0
H402 H 0.30554 0.04188 0.97731 0.0
H403 H 0.25496 0.08273 1.00377 0.0
H404 H 0.23739 0.06466 0.05461 0.0
H405 H 0.25584 0.05103 0.99487 0.0
H406 H 0.29469 0.03949 0.13849 0.0
H407 H 0.28036 0.02616 0.07009 0.0
H408 H 0.26326 0.03518 0.13851 0.0
H409 H 0.3601 0.14059 0.26919 0.0
H410 H 0.31247 0.14271 0.43107 0.0
H411 H 0.27931 0.13498 0.36052 0.0
H412 H 0.34184 0.09216 0.20786 0.0
H413 H 0.36277 0.11495 0.18592 0.0
H414 H 0.3467 0.0999 0.12575 0.0
H415 H 0.33524 0.16397 0.16841 0.0
H416 H 0.31408 0.15344 0.11155 0.0
H417 H 0.34503 0.14545 0.10544 0.0
H418 H 0.3472 0.10579 0.95015 0.0
C419 C 0.32155 0.10665 0.02517 0.0
C420 C 0.48968 0.31896 1.01994 0.0
C421 C 0.47726 0.33763 0.98866 0.0
C422 C 0.45293 0.34054 1.00188 0.0
C423 C 0.45501 0.31122 0.08486 0.0
C424 C 0.47761 0.30521 0.06695 0.0
C425 C 0.48502 0.28256 0.10196 0.0
H426 H 0.45218 0.20133 0.33637 0.0
C427 C 0.44738 0.29649 0.13793 0.0
C428 C 0.46366 0.2781 0.14674 0.0
H429 H 0.51552 0.19785 0.22122 0.0
H430 H 0.50406 0.23442 0.1659 0.0
H431 H 0.45617 0.24457 0.38039 0.0
H432 H 0.41394 0.2208 0.23024 0.0
H433 H 0.39802 0.24215 0.27544 0.0
H434 H 0.41125 0.21731 0.31573 0.0
H435 H 0.42543 0.2493 0.3877 0.0
H436 H 0.44488 0.27254 0.35898 0.0
C437 C 0.50789 0.28742 0.13993 0.0
C438 C 0.48788 0.26262 0.052 0.0
C439 C 0.40819 0.33736 0.32161 0.0
C440 C 0.40215 0.32883 0.38307 0.0
C441 C 0.39584 0.30467 0.38892 0.0
C442 C 0.40036 0.28878 0.33856 0.0
C443 C 0.41148 0.2972 0.28294 0.0
C444 C 0.41285 0.32121 0.27223 0.0
C445 C 0.42304 0.32681 0.20732 0.0
C446 C 0.43045 0.30196 0.18542 0.0
C447 C 0.4251 0.28509 0.23233 0.0
C448 C 0.44461 0.34364 0.2144 0.0
C449 C 0.40329 0.33802 0.16616 0.0
C450 C 0.46339 0.20806 0.29825 0.0
C451 C 0.48439 0.19634 0.28215 0.0
C452 C 0.49903 0.20638 0.23407 0.0
C453 C 0.49232 0.22746 0.2018 0.0
C454 C 0.47103 0.23889 0.21876 0.0
C455 C 0.45739 0.22925 0.2676 0.0
C456 C 0.43697 0.24464 0.28627 0.0
C457 C 0.4392 0.26433 0.23714 0.0
C458 C 0.45912 0.26109 0.19667 0.0
C459 C 0.4409 0.25329 0.35663 0.0
C460 C 0.41372 0.2305 0.27679 0.0
H461 H 0.42282 0.32824 0.05448 0.0
H462 H 0.50792 0.31516 1.00773 0.0
H463 H 0.47186 0.26139 1.02115 0.0
H464 H 0.49018 0.24513 0.07447 0.0
H465 H 0.50341 0.26613 1.02057 0.0
H466 H 0.50561 0.30313 0.1716 0.0
H467 H 0.52292 0.29098 0.10683 0.0
H468 H 0.51269 0.27233 0.17084 0.0
H469 H 0.41206 0.35587 0.31371 0.0
H470 H 0.38942 0.2977 0.43407 0.0
H471 H 0.39626 0.2704 0.34548 0.0
H472 H 0.45816 0.33581 0.24659 0.0
H473 H 0.43924 0.36109 0.23423 0.0
H474 H 0.45305 0.3473 0.16748 0.0
H475 H 0.3908 0.34854 0.19602 0.0
H476 H 0.39279 0.32423 0.14067 0.0
H477 H 0.41057 0.35088 0.13113 0.0
H478 H 0.4426 0.35366 0.97652 0.0
C479 C 0.44169 0.32697 0.04869 0.0
Eu480 Eu 0.9974 0.04116 0.60047 0.0
C481 C 0.06967 0.03663 0.83214 0.0
N482 N 0.07225 0.03265 0.76833 0.0
C483 C 0.10911 0.05387 0.76836 0.0
C484 C 0.08628 0.05045 0.86627 0.0
C485 C 0.09205 0.04016 0.73656 0.0
C486 C 0.10603 0.05935 0.83331 0.0
C487 C 0.04869 0.02817 0.93095 0.0
C488 C 0.05122 0.02551 0.86399 0.0
C489 C 0.06425 0.04321 0.96458 0.0
C490 C 0.08307 0.05426 0.93232 0.0
Eu491 Eu 0.04289 1.00936 0.71788 0.0
N492 N 0.03706 1.01047 0.83042 0.0
C493 C 0.03133 1.01478 0.96249 0.0
C494 C 0.02169 0.9958 0.86179 0.0
C495 C 0.01809 0.99817 0.92788 0.0
H496 H 0.09439 0.03591 0.68636 0.0
H497 H 1.0054 0.98691 0.95222 0.0
H498 H 0.94508 0.03752 0.68152 0.0
H499 H 0.01656 1.00654 0.36166 0.0
H500 H 1.01237 0.98204 0.83597 0.0
H501 H 0.02879 0.01633 1.01386 0.0
H502 H 0.02153 0.03291 0.4561 0.0
H503 H 0.12456 0.06024 0.7428 0.0
H504 H 0.06242 0.04568 1.01591 0.0
H505 H 0.09544 0.06512 0.95924 0.0
H506 H 0.91039 1.01106 0.68621 0.0
H507 H 0.11925 0.06998 0.85784 0.0
H508 H 0.98411 0.97689 0.35995 0.0
N509 N 0.96126 0.01925 0.6035 0.0
C510 C 0.9578 1.00328 0.55549 0.0
C511 C 0.92381 1.00837 0.6498 0.0
C512 C 0.93784 0.98818 0.55494 0.0
C513 C 0.94382 0.02304 0.64783 0.0
C514 C 0.92106 0.99049 0.60398 0.0
N515 N 0.99217 0.01826 0.50621 0.0
C516 C 1.00707 0.02029 0.45479 0.0
C517 C 0.97019 0.98745 0.45255 0.0
C518 C 0.97355 1.00303 0.50473 0.0
C519 C 0.98606 0.98859 0.40092 0.0
C520 C 1.00438 1.00532 0.40167 0.0
H521 H 0.90546 0.97925 0.60534 0.0
H522 H 0.91985 0.95988 0.50374 0.0
H523 H 0.94834 0.95912 0.41421 0.0
O524 O 1.00191 0.06908 0.5299 0.0
O525 O 0.01541 1.00591 0.57734 0.0
O526 O 1.01302 0.98792 0.67315 0.0
O527 O 0.96926 0.06714 0.58286 0.0
O528 O 0.03606 0.05042 0.57936 0.0
O529 O 0.05776 0.01904 0.61961 0.0
O530 O 0.06113 0.98059 0.76706 0.0
O531 O 0.04508 0.05019 0.71367 0.0
O532 O 1.00698 0.06147 0.69116 0.0
O533 O 0.0661 0.98529 0.66528 0.0
O534 O 1.00332 1.00418 0.73863 0.0
O535 O 0.98661 0.03913 0.70637 0.0
C536 C 1.01186 0.98661 0.61065 0.0
C537 C 0.98704 0.10486 0.57096 0.0
C538 C 0.01475 0.13643 0.60123 0.0
C539 C 0.99538 0.15141 0.61341 0.0
C540 C 0.96798 0.12009 0.58283 0.0
C541 C 0.97218 0.14315 0.60491 0.0
C542 C 1.01024 0.11292 0.58275 0.0
C543 C 0.05507 0.03687 0.57951 0.0
C544 C 0.98305 0.08039 0.54806 0.0
C545 C 0.93489 0.97186 0.5045 0.0
C546 C 0.95106 0.97148 0.4534 0.0
C547 C 0.02794 0.06604 0.7156 0.0
C548 C 0.06416 0.94641 0.70283 0.0
C549 C 0.03547 0.9139 0.70091 0.0
C550 C 0.05333 0.89884 0.67727 0.0
C551 C 0.08166 0.93122 0.67912 0.0
C552 C 0.04113 0.93779 0.71285 0.0
C553 C 0.07621 0.90752 0.66628 0.0
C554 C 0.98728 0.02089 0.74559 0.0
C555 C 0.06952 0.97151 0.71426 0.0
H556 H 0.99808 0.16974 0.62705 0.0
H557 H 0.94994 0.11415 0.57516 0.0
H558 H 0.95741 0.15488 0.61386 0.0
H559 H 0.02501 0.10098 0.57623 0.0
H560 H 0.04986 0.88024 0.6686 0.0
H561 H 0.09946 0.9377 0.67036 0.0
H562 H 0.02763 0.94984 0.72979 0.0
H563 H 0.0898 0.89578 0.64823 0.0
Eu564 Eu 0.53682 0.04275 0.7261 0.0
C565 C 0.48427 0.95098 0.67462 0.0
N566 N 0.50397 0.9586 0.6436 0.0
C567 C 0.52255 0.921 0.66016 0.0
C568 C 0.48336 0.9283 0.70266 0.0
C569 C 0.52253 0.94363 0.63291 0.0
C570 C 0.50309 0.9135 0.69646 0.0
C571 C 0.44272 0.95673 0.69836 0.0
C572 C 0.46434 0.96509 0.67295 0.0
C573 C 0.44213 0.93496 0.7309 0.0
C574 C 0.46245 0.92077 0.73314 0.0
Eu575 Eu 0.50381 0.99826 0.60714 0.0
N576 N 0.46546 0.98574 0.63988 0.0
C577 C 0.42213 0.96977 0.68682 0.0
C578 C 0.4451 0.997 0.62237 0.0
C579 C 0.42323 0.98962 0.64701 0.0
H580 H 0.53771 0.94964 0.60566 0.0
H581 H 0.40725 0.99919 0.63513 0.0
H582 H 0.51453 0.03355 0.87333 0.0
H583 H 0.57717 0.12323 0.63127 0.0
H584 H 0.44585 1.01212 0.59075 0.0
H585 H 0.40515 0.96396 0.70542 0.0
H586 H 0.56848 0.08031 0.63731 0.0
H587 H 0.53762 0.90944 0.65356 0.0
H588 H 0.42578 0.92842 0.75178 0.0
H589 H 0.4615 0.90357 0.75595 0.0
H590 H 0.50005 0.05681 0.96558 0.0
H591 H 0.50312 0.89595 0.71742 0.0
H592 H 0.5611 0.15042 0.71387 0.0
N593 N 0.52488 0.06381 0.81929 0.0
C594 C 0.52745 0.08766 0.81892 0.0
C595 C 0.50761 0.06575 0.92447 0.0
C596 C 0.51977 0.1017 0.87094 0.0
C597 C 0.51577 0.05263 0.8719 0.0
C598 C 0.50938 0.09044 0.92373 0.0
N599 N 0.54722 0.08337 0.72098 0.0
C600 C 0.56138 0.09207 0.67338 0.0
C601 C 0.54369 0.12238 0.76696 0.0
C602 C 0.5391 0.09781 0.76792 0.0
C603 C 0.55717 0.13164 0.71645 0.0
C604 C 0.56632 0.11635 0.66986 0.0
H605 H 0.50321 0.10057 0.96466 0.0
H606 H 0.51738 0.13748 0.90848 0.0
H607 H 0.53843 0.15563 0.81724 0.0
O608 O 0.56122 1.01333 0.7357 0.0
O609 O 0.52442 0.06181 0.63589 0.0
O610 O 0.50035 0.03694 0.57407 0.0
O611 O 0.57033 0.04714 0.77815 0.0
O612 O 0.55125 0.03753 0.62459 0.0
O613 O 0.54413 0.99826 0.60809 0.0
O614 O 0.48745 0.97683 0.53184 0.0
O615 O 0.52609 0.98611 0.69161 0.0
O616 O 0.51687 1.01159 0.77099 0.0
O617 O 0.51695 0.99939 0.50846 0.0
O618 O 0.48062 0.02709 0.65383 0.0
O619 O 0.49814 0.03561 0.75134 0.0
C620 C 0.51032 0.05778 0.58642 0.0
C621 C 0.6014 0.02211 0.73955 0.0
C622 C 0.63413 0.99455 0.72302 0.0
C623 C 0.64673 1.01261 0.69111 0.0
C624 C 0.61416 0.03994 0.70788 0.0
C625 C 0.63669 0.03507 0.6833 0.0
C626 C 0.61118 0.99949 0.74539 0.0
C627 C 0.55755 0.01708 0.59966 0.0
C628 C 0.57738 0.02569 0.7646 0.0
C629 C 0.52331 0.12635 0.86923 0.0
C630 C 0.53528 0.13668 0.81729 0.0
C631 C 0.51946 0.9897 0.75116 0.0
C632 C 0.4867 0.99566 0.43245 0.0
C633 C 0.45961 0.02581 0.3925 0.0
C634 C 0.46186 0.016 0.33053 0.0
C635 C 0.48895 0.98627 0.37061 0.0
C636 C 0.47173 1.01499 0.44333 0.0
C637 C 0.47637 0.99632 0.31989 0.0
C638 C 0.4792 0.03347 0.71475 0.0
C639 C 0.50018 0.98586 0.48606 0.0
H640 H 0.66457 1.0097 0.67379 0.0
H641 H 0.60667 0.05742 0.70155 0.0
H642 H 0.64653 0.04882 0.65876 0.0
H643 H 0.60069 0.98568 0.76786 0.0
H644 H 0.45233 0.02337 0.29028 0.0
H645 H 0.50039 0.97125 0.36162 0.0
H646 H 0.47035 0.02209 0.49139 0.0
H647 H 0.478 0.98897 0.27208 0.0
Eu648 Eu 0.53695 0.50713 0.61384 0.0
C649 C 0.4496 0.5101 0.78741 0.0
N650 N 0.45421 0.52303 0.73394 0.0
C651 C 0.41562 0.51348 0.69272 0.0
C652 C 0.42819 0.49738 0.79423 0.0
C653 C 0.43696 0.52606 0.68881 0.0
C654 C 0.41141 0.49866 0.74505 0.0
C655 C 0.46071 0.49948 0.8959 0.0
C656 C 0.46552 0.51114 0.8376 0.0
C657 C 0.44005 0.48571 0.9017 0.0
C658 C 0.42382 0.48464 0.8509 0.0
Eu659 Eu 0.49212 0.54157 0.72868 0.0
N660 N 0.48533 0.52448 0.83029 0.0
C661 C 0.47651 0.50255 0.94705 0.0
C662 C 0.50023 0.52852 0.88071 0.0
C663 C 0.49617 0.51744 0.9397 0.0
H664 H 0.43935 0.53845 0.65002 0.0
H665 H 0.50827 0.52027 0.97926 0.0
H666 H 0.58909 0.53101 0.65298 0.0
H667 H 0.49589 0.49978 0.37621 0.0
H668 H 0.51552 0.53986 0.87467 0.0
H669 H 0.47343 0.49393 0.99269 0.0
H670 H 0.50362 0.48809 0.48788 0.0
H671 H 0.40229 0.51551 0.65588 0.0
H672 H 0.43615 0.47637 0.94583 0.0
H673 H 0.4076 0.47454 0.85671 0.0
H674 H 0.61955 0.5572 0.60471 0.0
H675 H 0.39474 0.48916 0.74838 0.0
H676 H 0.52044 0.53089 0.32527 0.0
N677 N 0.5668 0.53179 0.57104 0.0
C678 C 0.5641 0.53879 0.50921 0.0
C679 C 0.60396 0.55229 0.57752 0.0
C680 C 0.58089 0.5538 0.47984 0.0
C681 C 0.58673 0.53754 0.60475 0.0
C682 C 0.6009 0.56069 0.51505 0.0
N683 N 0.52982 0.51468 0.50354 0.0
C684 C 0.51338 0.50274 0.46777 0.0
C685 C 0.54177 0.53686 0.41011 0.0
C686 C 0.54475 0.5304 0.47494 0.0
C687 C 0.52334 0.52639 0.37513 0.0
C688 C 0.5094 0.50888 0.40375 0.0
H689 H 0.61423 0.57219 0.49417 0.0
H690 H 0.58987 0.57299 0.3932 0.0
H691 H 0.55561 0.55814 0.33207 0.0
O692 O 0.55113 0.47913 0.55248 0.0
O693 O 0.53894 0.54786 0.62183 0.0
O694 O 0.49994 0.55659 0.63024 0.0
O695 O 0.56313 0.48215 0.65026 0.0
O696 O 0.49747 0.49932 0.59786 0.0
O697 O 0.48049 0.53486 0.62469 0.0
O698 O 0.50227 0.57455 0.77526 0.0
O699 O 0.50739 0.50634 0.76328 0.0
O700 O 0.50876 0.4865 0.66855 0.0
O701 O 0.46565 0.56876 0.7509 0.0
O702 O 0.53148 0.54713 0.75212 0.0
O703 O 0.55164 0.51425 0.71377 0.0
C704 C 0.52121 0.56235 0.61077 0.0
C705 C 0.55716 0.44371 0.6105 0.0
C706 C 0.52952 0.4102 0.60615 0.0
C707 C 0.54501 0.39735 0.64587 0.0
C708 C 0.57241 0.4304 0.64911 0.0
C709 C 0.56635 0.40733 0.66653 0.0
C710 C 0.53592 0.43341 0.58832 0.0
C711 C 0.48041 0.51499 0.59128 0.0
C712 C 0.56245 0.46892 0.59909 0.0
C713 C 0.57734 0.56118 0.41632 0.0
C714 C 0.55779 0.55279 0.38158 0.0
C715 C 0.50771 0.48627 0.73145 0.0
C716 C 0.48215 0.60674 0.72921 0.0
C717 C 0.50514 0.63967 0.68471 0.0
C718 C 0.48513 0.64706 0.65034 0.0
C719 C 0.4623 0.61437 0.69434 0.0
C720 C 0.50336 0.61973 0.72453 0.0
C721 C 0.46384 0.63443 0.65523 0.0
C722 C 0.54965 0.53238 0.75349 0.0
C723 C 0.48173 0.58437 0.76626 0.0
H724 H 0.54049 0.37972 0.66225 0.0
H725 H 0.58873 0.43809 0.66707 0.0
H726 H 0.57803 0.39728 0.69722 0.0
H727 H 0.52422 0.44365 0.55814 0.0
H728 H 0.486 0.66246 0.61954 0.0
H729 H 0.44573 0.60469 0.69655 0.0
H730 H 0.51864 0.61435 0.75228 0.0
H731 H 0.44852 0.64012 0.62829 0.0
Eu732 Eu 0.03089 0.55194 0.61585 0.0
C733 C 0.04003 0.46315 0.78457 0.0
N734 N 0.02667 0.46544 0.7307 0.0
C735 C 0.0403 0.42786 0.69209 0.0
C736 C 0.05465 0.44321 0.79334 0.0
C737 C 0.02627 0.44806 0.68516 0.0
C738 C 0.05465 0.42548 0.74622 0.0
C739 C 0.05402 0.47971 0.8853 0.0
C740 C 0.03979 0.48132 0.82985 0.0
C741 C 0.06873 0.45997 0.89388 0.0
C742 C 0.06902 0.44176 0.8481 0.0
Eu743 Eu 1.00431 0.50046 0.72162 0.0
N744 N 0.02587 0.5006 0.81941 0.0
C745 C 0.05296 0.49797 0.9307 0.0
C746 C 0.02353 0.51752 0.86585 0.0
C747 C 0.03735 0.51674 0.9214 0.0
H748 H 0.01501 0.44966 0.64364 0.0
H749 H 0.03569 0.53047 0.95748 0.0
H750 H 0.03052 0.60265 0.70042 0.0
H751 H 0.98905 0.53086 0.38566 0.0
H752 H 1.01054 0.53126 0.86166 0.0
H753 H 0.06364 0.49742 0.97383 0.0
H754 H 0.01425 0.52364 0.47944 0.0
H755 H 0.04005 0.41416 0.65566 0.0
H756 H 0.07992 0.45857 0.93591 0.0
H757 H 0.08049 0.42666 0.85541 0.0
H758 H 1.01196 0.64211 0.69545 0.0
H759 H 0.06564 0.4099 0.7512 0.0
H760 H 0.96907 0.56947 0.37305 0.0
N761 N 0.01476 0.59046 0.61389 0.0
C762 C 1.00122 0.59596 0.56218 0.0
C763 C 1.00867 0.62925 0.65785 0.0
C764 C 0.99047 0.61839 0.557 0.0
C765 C 0.01892 0.60678 0.66096 0.0
C766 C 0.99429 0.63506 0.60579 0.0
N767 N 1.00769 0.55718 0.52227 0.0
C768 C 1.00523 0.54028 0.47584 0.0
C769 C 0.98336 0.58396 0.46124 0.0
C770 C 0.99772 0.57893 0.51483 0.0
C771 C 0.98002 0.56632 0.41479 0.0
C772 C 0.99117 0.54446 0.42192 0.0
H773 H 0.98634 0.65248 0.60356 0.0
H774 H 0.96771 0.64054 0.49902 0.0
H775 H 0.96146 0.61039 0.41529 0.0
O776 O 0.05826 0.54993 0.54245 0.0
O777 O 0.99029 0.55144 0.62389 0.0
O778 O 0.98133 0.51212 0.63779 0.0
O779 O 0.05812 0.57955 0.60822 0.0
O780 O 0.03679 0.51371 0.57945 0.0
O781 O 1.00474 0.49209 0.61546 0.0
O782 O 0.97767 0.49656 0.79664 0.0
O783 O 0.0444 0.50088 0.70271 0.0
O784 O 0.05184 0.54041 0.70351 0.0
O785 O 0.97973 0.47031 0.72157 0.0
O786 O 0.99578 0.53887 0.75225 0.0
O787 O 0.02931 0.55911 0.72266 0.0
C788 C 0.97549 0.53346 0.6186 0.0
C789 C 0.0948 0.56176 0.5865 0.0
C790 C 0.12414 0.53213 0.61738 0.0
C791 C 0.14088 0.55042 0.62593 0.0
C792 C 0.1117 0.57971 0.59493 0.0
C793 C 0.13458 0.57404 0.61527 0.0
C794 C 0.10096 0.53819 0.59976 0.0
C795 C 0.02244 0.49518 0.57533 0.0
C796 C 0.07042 0.56744 0.56692 0.0
C797 C 0.97616 0.62343 0.50371 0.0
C798 C 0.97262 0.60627 0.45599 0.0
C799 C 0.05861 0.5187 0.71569 0.0
C800 C 0.94206 0.48477 0.74775 0.0
C801 C 0.91207 0.51419 0.7203 0.0
C802 C 0.89623 0.49571 0.70527 0.0
C803 C 0.92605 0.46656 0.73301 0.0
C804 C 0.9351 0.50844 0.73968 0.0
C805 C 0.90327 0.47206 0.71135 0.0
C806 C 1.01018 0.55727 0.75816 0.0
C807 C 0.96665 0.47957 0.76637 0.0
H808 H 0.15903 0.5465 0.63855 0.0
H809 H 0.10718 0.59805 0.58608 0.0
H810 H 0.14762 0.58796 0.62153 0.0
H811 H 0.08768 0.52437 0.59548 0.0
H812 H 0.87822 0.49948 0.69079 0.0
H813 H 0.93123 0.44818 0.73755 0.0
H814 H 0.9477 0.5226 0.74868 0.0
H815 H 0.89092 0.45795 0.70002 0.0
H816 H 0.17227 0.02202 0.30219 0.0
H817 H 0.16239 0.09738 0.32325 0.0
H818 H 0.13795 1.01497 0.37187 0.0
H819 H 0.1288 0.09048 0.39401 0.0
H820 H 0.05779 0.07143 0.48595 0.0
H821 H 0.08889 0.07734 0.40581 0.0
H822 H 0.1273 0.0179 0.48306 0.0
H823 H 0.09617 1.01175 0.56201 0.0
C824 C 0.16263 0.03708 0.32092 0.0
C825 C 0.17033 0.06026 0.30725 0.0
C826 C 0.14307 0.03308 0.3617 0.0
C827 C 0.13053 0.05213 0.38962 0.0
C828 C 0.13771 0.07528 0.37352 0.0
C829 C 0.15722 0.07925 0.33314 0.0
C830 C 0.07285 0.0596 0.48591 0.0
C831 C 0.0743 0.04113 0.531 0.0
C832 C 0.09081 0.06303 0.43986 0.0
C833 C 0.11079 0.04806 0.43727 0.0
C834 C 0.11213 0.02958 0.48235 0.0
C835 C 0.09425 0.02619 0.52835 0.0
H836 H 0.45739 0.15659 0.29772 0.0
H837 H 0.5248 0.18679 0.35126 0.0
H838 H 0.46434 0.12314 0.36933 0.0
H839 H 0.53171 0.15323 0.42388 0.0
H840 H 0.51801 0.10558 0.6053 0.0
H841 H 0.51391 0.13783 0.52806 0.0
H842 H 0.49056 0.08784 0.38448 0.0
H843 H 0.49554 0.05561 0.4609 0.0
C844 C 0.47391 0.15585 0.32403 0.0
C845 C 0.49064 0.17429 0.31823 0.0
C846 C 0.47789 0.13664 0.36518 0.0
C847 C 0.49851 0.13543 0.40282 0.0
C848 C 0.51552 0.15364 0.39609 0.0
C849 C 0.51172 0.17273 0.35389 0.0
C850 C 0.51208 0.10136 0.55723 0.0
C851 C 0.50667 0.07777 0.54004 0.0
C852 C 0.50979 0.11993 0.51276 0.0
C853 C 0.50179 0.11555 0.44985 0.0
C854 C 0.49635 0.09201 0.43272 0.0
C855 C 0.49895 0.07345 0.47691 0.0
H856 H 0.35019 0.51848 0.36071 0.0
H857 H 0.39074 0.46135 0.27915 0.0
H858 H 0.38338 0.52844 0.43157 0.0
H859 H 0.42413 0.47145 0.34845 0.0
H860 H 0.46443 0.47298 0.53958 0.0
H861 H 0.43372 0.46699 0.45873 0.0
H862 H 0.42288 0.54261 0.44913 0.0
H863 H 0.45343 0.54847 0.53058 0.0
C864 C 0.36658 0.5087 0.35597 0.0
C865 C 0.36787 0.48931 0.31367 0.0
C866 C 0.38563 0.51424 0.39711 0.0
C867 C 0.40649 0.50049 0.3971 0.0
C868 C 0.40827 0.48213 0.35142 0.0
C869 C 0.38925 0.47659 0.31063 0.0
C870 C 0.45558 0.48834 0.52001 0.0
C871 C 0.46151 0.5112 0.54179 0.0
C872 C 0.43798 0.48495 0.47313 0.0
C873 C 0.4257 0.50432 0.44645 0.0
C874 C 0.43163 0.52719 0.46859 0.0
C875 C 0.44925 0.53057 0.51543 0.0
H876 H 0.02268 0.36354 0.35121 0.0
H877 H 0.07023 0.40905 0.24652 0.0
H878 H 1.01302 0.39625 0.42354 0.0
H879 H 0.06002 0.44217 0.31672 0.0
H880 H 0.06208 0.4869 0.50113 0.0
H881 H 0.06782 0.45627 0.41974 0.0
H882 H 0.99568 0.43252 0.4477 0.0
H883 H 0.99039 0.46251 0.53052 0.0
C884 C 0.03027 0.38086 0.34194 0.0
C885 C 0.04694 0.38373 0.29243 0.0
C886 C 0.02489 0.39972 0.38383 0.0
C887 C 0.03596 0.42211 0.37729 0.0
C888 C 0.05152 0.42523 0.32495 0.0
C889 C 0.05704 0.40633 0.28362 0.0
C890 C 0.04742 0.4752 0.48969 0.0
C891 C 0.02583 0.47721 0.52296 0.0
C892 C 0.05062 0.45761 0.44243 0.0
C893 C 0.03223 0.44159 0.42628 0.0
C894 C 1.01049 0.44402 0.45897 0.0
C895 C 1.00739 0.46142 0.50655 0.0
H896 H 0.85635 0.02496 0.97494 0.0
H897 H 0.90332 0.97894 0.07887 0.0
H898 H 0.88857 0.03455 0.89986 0.0
H899 H 0.93534 0.98833 1.00435 0.0
H900 H 0.97196 0.98063 0.80725 0.0
H901 H 0.94207 0.97706 0.89123 0.0
H902 H 0.92898 0.05222 0.88111 0.0
H903 H 0.95952 0.05591 0.79798 0.0
C904 C 0.87378 0.01762 0.98325 0.0
C905 C 0.87723 1.00123 0.03311 0.0
C906 C 0.89223 0.02291 0.93981 0.0
C907 C 0.91451 1.0118 0.94499 0.0
C908 C 0.91834 0.99681 0.99777 0.0
C909 C 0.90004 0.99167 0.04114 0.0
C910 C 0.96314 0.99652 0.82376 0.0
C911 C 0.96864 0.01863 0.79653 0.0
C912 C 0.94585 0.99446 0.87194 0.0
C913 C 0.93317 1.0144 0.89383 0.0
C914 C 0.9383 0.03647 0.86562 0.0
C915 C 0.95586 0.03857 0.81792 0.0
H916 H 0.49992 0.8686 1.0146 0.0
H917 H 0.57393 0.88775 1.02281 0.0
H918 H 0.49256 0.90273 0.94397 0.0
H919 H 0.56673 0.92101 0.95153 0.0
H920 H 0.55145 0.95361 0.75349 0.0
H921 H 0.55526 0.92195 0.83246 0.0
H922 H 0.49558 0.94989 0.93726 0.0
H923 H 0.49196 0.98198 0.85793 0.0
C924 C 0.51451 0.88028 1.00258 0.0
C925 C 0.5376 0.87509 1.0239 0.0
C926 C 0.51032 0.89977 0.96174 0.0
C927 C 0.52916 0.91435 0.94091 0.0
C928 C 0.55189 0.9099 0.96531 0.0
C929 C 0.55599 0.89078 1.00644 0.0
C930 C 0.53905 0.95297 0.79315 0.0
C931 C 0.52139 0.97031 0.79936 0.0
C932 C 0.54131 0.93488 0.83871 0.0
C933 C 0.52579 0.93337 0.89153 0.0
C934 C 0.50778 0.95046 0.89715 0.0
C935 C 0.50581 0.96891 0.85201 0.0
H936 H 0.65477 0.59205 1.01689 0.0
H937 H 0.6693 0.51717 1.02391 0.0
H938 H 0.62105 0.58472 0.94749 0.0
H939 H 0.6346 0.50951 0.95619 0.0
H940 H 0.59086 0.50712 0.76931 0.0
H941 H 0.62196 0.51285 0.84861 0.0
H942 H 0.58265 0.5709 0.93156 0.0
H943 H 0.55199 0.56572 0.85051 0.0
C944 C 0.65047 0.57388 1.0046 0.0
C945 C 0.66503 0.55524 0.02583 0.0
C946 C 0.63088 0.56961 0.96485 0.0
C947 C 0.62491 0.54648 0.94498 0.0
C948 C 0.63875 0.52765 0.96902 0.0
C949 C 0.6585 0.53197 1.00891 0.0
C950 C 0.58878 0.52117 0.80433 0.0
C951 C 0.56875 0.536 0.8028 0.0
C952 C 0.60664 0.52432 0.85059 0.0
C953 C 0.6051 0.54235 0.89736 0.0
C954 C 0.58489 0.55702 0.89616 0.0
C955 C 0.5671 0.55397 0.84958 0.0
H956 H 1.01122 0.68811 0.98618 0.0
H957 H 0.95677 0.64588 0.07533 0.0
H958 H 0.02095 0.65506 0.91495 0.0
H959 H 0.96685 0.61246 1.00611 0.0
H960 H 0.96845 0.56876 0.81965 0.0
H961 H 0.96187 0.59964 0.90008 0.0
H962 H 0.0364 0.61736 0.89521 0.0
H963 H 0.04266 0.58707 0.81367 0.0
C964 C 1.00199 0.67141 0.99235 0.0
C965 C 0.98341 0.66961 0.03704 0.0
C966 C 1.00742 0.65237 0.95106 0.0
C967 C 0.99449 0.63088 0.95342 0.0
C968 C 0.97688 0.62873 1.00112 0.0
C969 C 0.97136 0.6478 0.04189 0.0
C970 C 0.98342 0.57922 0.83594 0.0
C971 C 1.00603 0.5755 0.80943 0.0
C972 C 0.97972 0.59693 0.88262 0.0
C973 C 0.99858 0.61133 0.90489 0.0
C974 C 0.02126 0.60717 0.87898 0.0
C975 C 0.02489 0.58962 0.83208 0.0
H976 H 0.14623 0.18238 0.44239 0.0
H977 H 0.09969 0.24076 0.48816 0.0
H978 H 0.12642 0.15843 0.52381 0.0
H979 H 0.08044 0.21719 0.56855 0.0
H980 H 0.03574 0.17027 0.67928 0.0
H981 H 0.07321 0.19095 0.65902 0.0
H982 H 0.08698 0.14386 0.49959 0.0
H983 H 0.05 0.12406 0.51793 0.0
C984 C 0.13242 0.19043 0.47112 0.0
C985 C 0.12401 0.21322 0.4566 0.0
C986 C 0.12114 0.17673 0.51802 0.0
C987 C 0.10127 0.18562 0.55102 0.0
C988 C 0.09556 0.20964 0.54395 0.0
C989 C 0.10676 0.22329 0.49719 0.0
C990 C 0.04699 0.16417 0.64053 0.0
C991 C 0.03947 0.1458 0.59948 0.0
C992 C 0.06856 0.17585 0.6294 0.0
C993 C 0.08303 0.16923 0.57731 0.0
C994 C 0.07658 0.14932 0.54073 0.0
C995 C 0.05507 0.1379 0.5513 0.0
H996 H 0.38487 0.15835 0.35257 0.0
H997 H 0.33937 0.10872 0.45137 0.0
H998 H 0.41922 0.13442 0.38075 0.0
H999 H 0.37313 0.08485 0.47817 0.0
H1000 H 0.43346 0.03762 0.49971 0.0
H1001 H 0.41004 0.07293 0.51786 0.0
H1002 H 0.42841 0.09796 0.32835 0.0
H1003 H 0.45365 0.06387 0.31262 0.0
C1004 C 0.3823 0.14293 0.38267 0.0
C1005 C 0.35932 0.13501 0.39777 0.0
C1006 C 0.40194 0.12906 0.39818 0.0
C1007 C 0.39883 0.10713 0.42916 0.0
C1008 C 0.37631 0.10145 0.4537 0.0
C1009 C 0.35676 0.11535 0.43849 0.0
C1010 C 0.43315 0.05094 0.46253 0.0
C1011 C 0.44532 0.04757 0.40418 0.0
C1012 C 0.41949 0.07118 0.47286 0.0
C1013 C 0.4172 0.08836 0.42463 0.0
C1014 C 0.42999 0.08538 0.3672 0.0
C1015 C 0.44401 0.06539 0.35737 0.0
H1016 H 0.41896 0.31268 0.49868 0.0
H1017 H 0.40169 0.37765 0.39977 0.0
H1018 H 0.4451 0.33433 0.56895 0.0
H1019 H 0.43003 0.39883 0.46578 0.0
H1020 H 0.4864 0.43245 0.58595 0.0
H1021 H 0.44909 0.41455 0.5552 0.0
H1022 H 0.48337 0.34634 0.54153 0.0
H1023 H 0.52032 0.36394 0.57523 0.0
C1024 C 0.42007 0.33168 0.4926 0.0
C1025 C 0.40905 0.3431 0.44061 0.0
C1026 C 0.43563 0.34407 0.53243 0.0
C1027 C 0.4409 0.368 0.52046 0.0
C1028 C 0.42699 0.38024 0.47555 0.0
C1029 C 0.41085 0.36796 0.4369 0.0
C1030 C 0.48603 0.41355 0.57771 0.0
C1031 C 0.50653 0.3996 0.58507 0.0
C1032 C 0.46447 0.40327 0.55964 0.0
C1033 C 0.46292 0.37886 0.5469 0.0
C1034 C 0.48348 0.36502 0.55335 0.0
C1035 C 0.50489 0.3752 0.57235 0.0
H1036 H 0.16003 0.39718 0.46875 0.0
H1037 H 0.22152 0.4396 0.51634 0.0
H1038 H 0.13735 0.41821 0.5506 0.0
H1039 H 0.19919 0.46024 0.59649 0.0
H1040 H 0.15641 0.51034 0.69737 0.0
H1041 H 0.17365 0.47102 0.68284 0.0
H1042 H 0.12491 0.45755 0.527 0.0
H1043 H 0.1082 0.49617 0.54067 0.0
C1044 C 0.16898 0.41031 0.49804 0.0
C1045 C 0.19232 0.41735 0.48374 0.0
C1046 C 0.15599 0.42234 0.54509 0.0
C1047 C 0.16613 0.44167 0.5781 0.0
C1048 C 0.19059 0.44569 0.57174 0.0
C1049 C 0.20354 0.43368 0.52504 0.0
C1050 C 0.1492 0.49878 0.66068 0.0
C1051 C 0.13132 0.50678 0.61917 0.0
C1052 C 0.1589 0.47615 0.65282 0.0
C1053 C 0.15101 0.4612 0.60298 0.0
C1054 C 0.13141 0.4683 0.56637 0.0
C1055 C 0.1218 0.49078 0.5741 0.0
H1056 H 0.90221 0.87882 0.88578 0.0
H1057 H 0.94181 0.81524 0.84182 0.0
H1058 H 0.92639 0.9006 0.80853 0.0
H1059 H 0.96488 0.83664 0.76452 0.0
H1060 H 1.01002 0.87925 0.63756 0.0
H1061 H 0.97246 0.86144 0.67026 0.0
H1062 H 0.96856 0.91015 0.83003 0.0
H1063 H 1.00599 0.92746 0.79896 0.0
C1064 C 0.91545 0.86925 0.85856 0.0
C1065 C 0.92048 0.84538 0.87226 0.0
C1066 C 0.92921 0.88174 0.81405 0.0
C1067 C 0.94794 0.87046 0.78174 0.0
C1068 C 0.95061 0.84591 0.78852 0.0
C1069 C 0.93713 0.83353 0.83332 0.0
C1070 C 1.00115 0.88618 0.67967 0.0
C1071 C 1.01135 0.90463 0.71601 0.0
C1072 C 0.97946 0.87618 0.69778 0.0
C1073 C 0.96751 0.8844 0.75265 0.0
C1074 C 0.97701 0.90371 0.78671 0.0
C1075 C 0.99867 0.9136 0.76888 0.0
H1076 H 0.68505 0.87429 0.92973 0.0
H1077 H 0.74247 0.91889 0.86283 0.0
H1078 H 0.66001 0.8897 0.84428 0.0
H1079 H 0.7179 0.93329 0.77769 0.0
H1080 H 0.66663 0.96894 0.65145 0.0
H1081 H 0.68873 0.93396 0.68602 0.0
H1082 H 0.64815 0.93228 0.86164 0.0
H1083 H 0.62738 0.96735 0.82995 0.0
C1084 C 0.6927 0.88659 0.89568 0.0
C1085 C 0.71545 0.8962 0.90571 0.0
C1086 C 0.67839 0.89524 0.84634 0.0
C1087 C 0.68677 0.91334 0.80589 0.0
C1088 C 0.71082 0.91951 0.80841 0.0
C1089 C 0.72503 0.91111 0.85795 0.0
C1090 C 0.66233 0.96099 0.69723 0.0
C1091 C 0.64528 0.97129 0.73797 0.0
C1092 C 0.67473 0.94075 0.71646 0.0
C1093 C 0.67001 0.93021 0.7762 0.0
C1094 C 0.65183 0.93952 0.81456 0.0
C1095 C 0.63986 0.95987 0.79616 0.0
H1096 H 0.62302 0.67489 0.88186 0.0
H1097 H 0.60599 0.7432 0.8011 0.0
H1098 H 0.60035 0.65569 0.79807 0.0
H1099 H 0.58507 0.7239 0.71414 0.0
H1100 H 0.51077 0.68741 0.69578 0.0
H1101 H 0.5469 0.70821 0.7238 0.0
H1102 H 0.5868 0.64359 0.69751 0.0
H1103 H 0.55017 0.6226 0.67293 0.0
C1104 C 0.6152 0.68581 0.84494 0.0
C1105 C 0.61543 0.71063 0.85029 0.0
C1106 C 0.60239 0.67475 0.79597 0.0
C1107 C 0.58998 0.68831 0.75051 0.0
C1108 C 0.59362 0.71295 0.74979 0.0
C1109 C 0.60603 0.72403 0.79947 0.0
C1110 C 0.52736 0.67785 0.69388 0.0
C1111 C 0.5276 0.65332 0.68338 0.0
C1112 C 0.54825 0.6898 0.70964 0.0
C1113 C 0.56987 0.67749 0.71446 0.0
C1114 C 0.57043 0.65351 0.69611 0.0
C1115 C 0.54946 0.6415 0.6815 0.0
H1116 H 0.81076 0.61036 0.79752 0.0
H1117 H 0.87118 0.64718 0.87728 0.0
H1118 H 0.83633 0.5887 0.72646 0.0
H1119 H 0.89713 0.62574 0.80376 0.0
H1120 H 0.8826 0.53772 0.63643 0.0
H1121 H 0.86532 0.57703 0.65147 0.0
H1122 H 0.90664 0.58601 0.82458 0.0
H1123 H 0.92371 0.54756 0.8093 0.0
C1124 C 0.82942 0.61487 0.79754 0.0
C1125 C 0.83902 0.6299 0.84486 0.0
C1126 C 0.84425 0.60232 0.75626 0.0
C1127 C 0.86898 0.60466 0.76122 0.0
C1128 C 0.8782 0.62281 0.80056 0.0
C1129 C 0.86334 0.6352 0.84255 0.0
C1130 C 0.88822 0.54837 0.67697 0.0
C1131 C 0.90424 0.5393 0.72216 0.0
C1132 C 0.87844 0.57094 0.68543 0.0
C1133 C 0.88427 0.5847 0.73974 0.0
C1134 C 0.90183 0.57631 0.78162 0.0
C1135 C 0.91161 0.55395 0.77304 0.0
H1136 H 0.08354 0.1942 0.90788 0.0
H1137 H 1.00978 0.19214 0.96059 0.0
H1138 H 0.07772 0.16054 0.83626 0.0
H1139 H 1.00392 0.15752 0.89133 0.0
H1140 H 0.99569 0.10197 0.73429 0.0
H1141 H 1.00085 0.13922 0.79176 0.0
H1142 H 0.07328 0.12023 0.83372 0.0
H1143 H 0.06841 0.08402 0.77205 0.0
C1144 C 0.06598 0.18655 0.90389 0.0
C1145 C 0.04714 0.19596 0.9401 0.0
C1146 C 0.06264 0.16693 0.86322 0.0
C1147 C 0.04039 0.1556 0.85809 0.0
C1148 C 0.02132 0.1656 0.89287 0.0
C1149 C 0.02462 0.18556 0.9329 0.0
C1150 C 1.0128 0.10574 0.75551 0.0
C1151 C 0.03154 0.0894 0.74947 0.0
C1152 C 0.01572 0.12721 0.78924 0.0
C1153 C 0.03743 0.13309 0.81887 0.0
C1154 C 0.05627 0.11687 0.81157 0.0
C1155 C 0.05342 0.09562 0.77693 0.0
H1156 H 0.35578 0.03126 0.97379 0.0
H1157 H 0.34177 0.08752 0.84001 0.0
H1158 H 0.39039 0.01952 0.9103 0.0
H1159 H 0.37658 0.07657 0.77795 0.0
H1160 H 0.46747 0.02814 0.84109 0.0
H1161 H 0.42927 0.03373 0.89293 0.0
H1162 H 0.39827 0.05154 0.70997 0.0
H1163 H 0.437 0.04709 0.65877 0.0
C1164 C 0.35966 0.04068 0.92978 0.0
C1165 C 0.34591 0.06032 0.91212 0.0
C1166 C 0.37984 0.03427 0.89385 0.0
C1167 C 0.38686 0.04734 0.8392 0.0
C1168 C 0.37198 0.06589 0.8192 0.0
C1169 C 0.35188 0.07223 0.85498 0.0
C1170 C 0.45256 0.03339 0.81182 0.0
C1171 C 0.45544 0.03704 0.74546 0.0
C1172 C 0.43041 0.03625 0.84156 0.0
C1173 C 0.41027 0.04292 0.80606 0.0
C1174 C 0.4132 0.04657 0.73947 0.0
C1175 C 0.43545 0.04379 0.70975 0.0
H1176 H 0.51444 0.36825 1.00973 0.0
H1177 H 0.46372 0.34722 0.86609 0.0
H1178 H 0.52485 0.4032 0.94569 0.0
H1179 H 0.47332 0.38215 0.80319 0.0
H1180 H 0.50091 0.44201 0.68266 0.0
H1181 H 0.49867 0.40417 0.73841 0.0
H1182 H 0.50878 0.44071 0.91882 0.0
H1183 H 0.51245 0.47815 0.86138 0.0
C1184 C 0.50605 0.3707 0.96353 0.0
C1185 C 0.4884 0.35479 0.94285 0.0
C1186 C 0.51165 0.39103 0.92723 0.0
C1187 C 0.49974 0.39598 0.8692 0.0
C1188 C 0.48315 0.37914 0.84695 0.0
C1189 C 0.4776 0.35895 0.88312 0.0
C1190 C 0.50293 0.44184 0.7339 0.0
C1191 C 0.50661 0.46321 0.76696 0.0
C1192 C 0.50143 0.42012 0.76641 0.0
C1193 C 0.50335 0.41904 0.83379 0.0
C1194 C 0.50746 0.44049 0.86702 0.0
C1195 C 0.50917 0.46218 0.83408 0.0
H1196 H 0.1674 0.45642 0.95802 0.0
H1197 H 0.19089 0.52903 0.94218 0.0
H1198 H 0.13489 0.46434 0.88588 0.0
H1199 H 0.15902 0.53666 0.8656 0.0
H1200 H 0.08306 0.54994 0.792 0.0
H1201 H 0.11825 0.54273 0.85656 0.0
H1202 H 0.12115 0.47104 0.78358 0.0
H1203 H 0.08558 0.47828 0.72047 0.0
C1204 C 0.16579 0.47415 0.93888 0.0
C1205 C 0.18178 0.49217 0.95763 0.0
C1206 C 0.14715 0.47863 0.89616 0.0
C1207 C 0.14387 0.50125 0.86932 0.0
C1208 C 0.16045 0.51909 0.88586 0.0
C1209 C 0.17908 0.51463 0.92931 0.0
C1210 C 0.09131 0.53267 0.78945 0.0
C1211 C 0.08118 0.51458 0.75167 0.0
C1212 C 0.11169 0.52852 0.82642 0.0
C1213 C 0.12283 0.50618 0.82643 0.0
C1214 C 0.113 0.48832 0.7868 0.0
C1215 C 0.09253 0.49247 0.75013 0.0
H1216 H 0.02744 0.85645 0.37911 0.0
H1217 H 0.95253 0.86343 0.41451 0.0
H1218 H 0.03504 0.89098 0.44823 0.0
H1219 H 0.95997 0.89786 0.4826 0.0
H1220 H 0.98274 0.94944 0.64247 0.0
H1221 H 0.97642 0.91243 0.58286 0.0
H1222 H 0.02873 0.93422 0.44363 0.0
H1223 H 0.03428 0.9715 0.50201 0.0
C1224 C 1.01264 0.86506 0.40252 0.0
C1225 C 0.98937 0.8571 0.39098 0.0
C1226 C 0.01694 0.88507 0.44159 0.0
C1227 C 0.99812 0.89751 0.4709 0.0
C1228 C 0.97498 0.88881 0.46151 0.0
C1229 C 0.97069 0.86905 0.42207 0.0
C1230 C 0.99301 0.94618 0.59942 0.0
C1231 C 1.00912 0.96334 0.57723 0.0
C1232 C 0.98937 0.92498 0.56503 0.0
C1233 C 1.00234 0.91995 0.50871 0.0
C1234 C 0.01874 0.93709 0.48732 0.0
C1235 C 0.02185 0.95856 0.52064 0.0
H1236 H 0.68997 0.967 0.42551 0.0
H1237 H 0.68183 0.03703 0.34707 0.0
H1238 H 0.65531 0.97294 0.4932 0.0
H1239 H 0.64634 0.04286 0.41316 0.0
H1240 H 0.59019 0.05209 0.57119 0.0
H1241 H 0.62772 0.0484 0.51385 0.0
H1242 H 0.61421 0.97367 0.48664 0.0
H1243 H 0.57727 0.97729 0.54588 0.0
C1244 C 0.68078 0.98379 0.42302 0.0
C1245 C 0.68873 1.0015 0.38061 0.0
C1246 C 0.66063 0.98714 0.46145 0.0
C1247 C 0.64738 1.00823 0.45828 0.0
C1248 C 0.65594 0.02639 0.41768 0.0
C1249 C 0.67638 0.0231 0.37961 0.0
C1250 C 0.59524 0.03484 0.55319 0.0
C1251 C 0.58052 1.015 0.56362 0.0
C1252 C 0.61683 0.03273 0.51971 0.0
C1253 C 0.62441 1.0107 0.49519 0.0
C1254 C 0.60953 0.99091 0.50556 0.0
C1255 C 0.58805 0.99301 0.53925 0.0
H1256 H 0.51395 0.67689 0.32677 0.0
H1257 H 0.57284 0.69633 0.4473 0.0
H1258 H 0.50515 0.64332 0.39731 0.0
H1259 H 0.56382 0.66335 0.51898 0.0
H1260 H 0.56281 0.58558 0.58119 0.0
H1261 H 0.56818 0.62157 0.51827 0.0
H1262 H 0.49231 0.62761 0.49813 0.0
H1263 H 0.48716 0.59096 0.55834 0.0
C1264 C 0.52445 0.67453 0.36971 0.0
C1265 C 0.54397 0.68944 0.38156 0.0
C1266 C 0.51955 0.65512 0.41016 0.0
C1267 C 0.53404 0.6501 0.46365 0.0
C1268 C 0.55261 0.66606 0.47755 0.0
C1269 C 0.55756 0.68529 0.437 0.0
C1270 C 0.54732 0.59427 0.56219 0.0
C1271 C 0.52464 0.58488 0.57383 0.0
C1272 C 0.55032 0.61529 0.52695 0.0
C1273 C 0.53068 0.62781 0.50262 0.0
C1274 C 0.50794 0.61849 0.51495 0.0
C1275 C 0.50498 0.59743 0.55003 0.0
H1276 H 0.84478 0.58623 0.43718 0.0
H1277 H 0.86327 0.52333 0.3316 0.0
H1278 H 0.87584 0.57784 0.51556 0.0
H1279 H 0.89491 0.51511 0.40842 0.0
H1280 H 0.94487 0.49923 0.57359 0.0
H1281 H 0.90858 0.50431 0.51189 0.0
H1282 H 0.91747 0.58026 0.52198 0.0
H1283 H 0.95309 0.5751 0.58616 0.0
C1284 C 0.85503 0.57015 0.43196 0.0
C1285 C 0.85112 0.55513 0.37901 0.0
C1286 C 0.87323 0.56554 0.47622 0.0
C1287 C 0.88841 0.54594 0.46839 0.0
C1288 C 0.88362 0.53025 0.41701 0.0
C1289 C 0.8653 0.53483 0.37294 0.0
C1290 C 0.93903 0.51705 0.56309 0.0
C1291 C 0.95238 0.53675 0.58409 0.0
C1292 C 0.91818 0.51998 0.52705 0.0
C1293 C 0.9099 0.54271 0.51074 0.0
C1294 C 0.92292 0.56242 0.53355 0.0
C1295 C 0.94369 0.55947 0.56988 0.0
loop_
_geom_bond_atom_site_label_1
_geom_bond_atom_site_label_2
_geom_bond_distance
_geom_bond_site_symmetry_2
_ccdc_geom_bond_type
C0 C1 1.391 . S
C0 C4 1.391 . S
C0 H42 0.948 . S
C1 C0 1.391 . S
C1 C2 1.391 . S
C2 C1 1.391 . S
C2 H58 0.947 . S
C2 C59 1.392 . S
C3 C4 1.391 . S
C3 C7 1.397 . S
C3 C59 1.419 . S
C4 C0 1.391 . S
C4 C3 1.391 . S
C4 C5 1.399 . S
C5 C4 1.399 . S
C5 C8 1.396 . S
C5 C17 1.453 . S
C5 C18 1.684 . S
H6 C30 0.948 . S
C7 C3 1.397 . S
C7 C8 1.394 . S
C7 C26 1.723 . S
C8 C5 1.396 . S
C8 C7 1.394 . S
C8 C38 1.723 . S
H9 C32 0.947 . S
H10 C33 0.948 . S
H11 C39 0.982 . S
H12 C40 0.979 . S
H13 C40 0.980 . S
H14 C40 0.983 . S
H15 C39 0.979 . S
H16 C39 0.977 . S
C17 C5 1.453 . S
C17 H46 0.982 . S
C17 H47 0.979 . S
C17 H48 0.977 . S
C18 C5 1.684 . S
C18 H43 0.979 . S
C18 H44 0.980 . S
C18 H45 0.983 . S
C19 C20 1.391 . S
C19 C24 1.391 . S
C19 H49 0.948 . S
C20 C19 1.391 . S
C20 C21 1.391 . S
C21 C20 1.391 . S
C21 C22 1.392 . S
C21 H50 0.947 1_554 S
C22 C21 1.392 . S
C22 C23 1.419 . S
C22 H51 0.948 . S
C23 C22 1.419 . S
C23 C24 1.391 . S
C23 C27 1.397 . S
C24 C19 1.391 . S
C24 C23 1.391 . S
C24 C25 1.399 . S
C25 C24 1.399 . S
C25 C26 1.396 . S
C25 C28 1.453 . S
C25 C29 1.684 . S
C26 C7 1.723 . S
C26 C25 1.396 . S
C26 C27 1.394 . S
C27 C23 1.397 . S
C27 C26 1.394 . S
C27 C37 1.723 . S
C28 C25 1.453 . S
C28 H52 0.982 . S
C28 H53 0.979 . S
C28 H54 0.977 . S
C29 C25 1.684 . S
C29 H55 0.979 . S
C29 H56 0.980 . S
C29 H57 0.983 . S
C30 H6 0.948 . S
C30 C31 1.391 . S
C30 C35 1.391 . S
C31 C30 1.391 . S
C31 C32 1.391 . S
C32 H9 0.947 . S
C32 C31 1.391 . S
C32 C33 1.392 . S
C33 H10 0.948 . S
C33 C32 1.392 . S
C33 C34 1.419 . S
C34 C33 1.419 . S
C34 C35 1.391 . S
C34 C38 1.397 . S
C35 C30 1.391 . S
C35 C34 1.391 . S
C35 C36 1.399 . S
C36 C35 1.399 . S
C36 C37 1.396 . S
C36 C39 1.453 . S
C36 C40 1.684 . S
C37 C27 1.723 . S
C37 C36 1.396 . S
C37 C38 1.394 . S
C38 C8 1.723 . S
C38 C34 1.397 . S
C38 C37 1.394 . S
C39 H11 0.982 . S
C39 H15 0.979 . S
C39 H16 0.977 . S
C39 C36 1.453 . S
C40 H12 0.979 . S
C40 H13 0.980 . S
C40 H14 0.983 . S
C40 C36 1.684 . S
H41 C59 0.948 . S
H42 C0 0.948 . S
H43 C18 0.979 . S
H44 C18 0.980 . S
H45 C18 0.983 . S
H46 C17 0.982 . S
H47 C17 0.979 . S
H48 C17 0.977 . S
H49 C19 0.948 . S
H50 C21 0.947 1_556 S
H51 C22 0.948 . S
H52 C28 0.982 . S
H53 C28 0.979 . S
H54 C28 0.977 . S
H55 C29 0.979 . S
H56 C29 0.980 . S
H57 C29 0.983 . S
H58 C2 0.947 . S
C59 C2 1.392 . S
C59 C3 1.419 . S
C59 H41 0.948 . S
C60 C61 1.391 . S
C60 C64 1.391 . S
C60 H102 0.948 . S
C61 C60 1.391 . S
C61 C62 1.391 . S
C62 C61 1.391 . S
C62 H118 0.947 . S
C62 C119 1.392 . S
C63 C64 1.391 . S
C63 C67 1.397 . S
C63 C119 1.419 . S
C64 C60 1.391 . S
C64 C63 1.391 . S
C64 C65 1.399 . S
C65 C64 1.399 . S
C65 C68 1.396 . S
C65 C77 1.453 . S
C65 C78 1.684 . S
H66 C90 0.948 . S
C67 C63 1.397 . S
C67 C68 1.394 . S
C67 C86 1.723 . S
C68 C65 1.396 . S
C68 C67 1.394 . S
C68 C98 1.723 . S
H69 C92 0.947 . S
H70 C93 0.948 . S
H71 C99 0.982 . S
H72 C100 0.979 . S
H73 C100 0.980 . S
H74 C100 0.983 . S
H75 C99 0.979 . S
H76 C99 0.977 . S
C77 C65 1.453 . S
C77 H106 0.982 . S
C77 H107 0.979 . S
C77 H108 0.977 . S
C78 C65 1.684 . S
C78 H103 0.979 . S
C78 H104 0.980 . S
C78 H105 0.983 . S
C79 C80 1.391 . S
C79 C84 1.391 . S
C79 H109 0.948 . S
C80 C79 1.391 . S
C80 C81 1.391 . S
C81 C80 1.391 . S
C81 C82 1.392 . S
C81 H110 0.947 . S
C82 C81 1.392 . S
C82 C83 1.419 . S
C82 H111 0.948 . S
C83 C82 1.419 . S
C83 C84 1.391 . S
C83 C87 1.397 . S
C84 C79 1.391 . S
C84 C83 1.391 . S
C84 C85 1.399 . S
C85 C84 1.399 . S
C85 C86 1.396 . S
C85 C88 1.453 . S
C85 C89 1.684 . S
C86 C67 1.723 . S
C86 C85 1.396 . S
C86 C87 1.394 . S
C87 C83 1.397 . S
C87 C86 1.394 . S
C87 C97 1.723 . S
C88 C85 1.453 . S
C88 H112 0.982 . S
C88 H113 0.979 . S
C88 H114 0.977 . S
C89 C85 1.684 . S
C89 H115 0.979 . S
C89 H116 0.980 . S
C89 H117 0.983 . S
C90 H66 0.948 . S
C90 C91 1.391 . S
C90 C95 1.391 . S
C91 C90 1.391 . S
C91 C92 1.391 . S
C92 H69 0.947 . S
C92 C91 1.391 . S
C92 C93 1.392 . S
C93 H70 0.948 . S
C93 C92 1.392 . S
C93 C94 1.419 . S
C94 C93 1.419 . S
C94 C95 1.391 . S
C94 C98 1.397 . S
C95 C90 1.391 . S
C95 C94 1.391 . S
C95 C96 1.399 . S
C96 C95 1.399 . S
C96 C97 1.396 . S
C96 C99 1.453 . S
C96 C100 1.684 . S
C97 C87 1.723 . S
C97 C96 1.396 . S
C97 C98 1.394 . S
C98 C68 1.723 . S
C98 C94 1.397 . S
C98 C97 1.394 . S
C99 H71 0.982 . S
C99 H75 0.979 . S
C99 H76 0.977 . S
C99 C96 1.453 . S
C100 H72 0.979 . S
C100 H73 0.980 . S
C100 H74 0.983 . S
C100 C96 1.684 . S
H101 C119 0.948 . S
H102 C60 0.948 . S
H103 C78 0.979 . S
H104 C78 0.980 . S
H105 C78 0.983 . S
H106 C77 0.982 . S
H107 C77 0.979 . S
H108 C77 0.977 . S
H109 C79 0.948 . S
H110 C81 0.947 . S
H111 C82 0.948 . S
H112 C88 0.982 . S
H113 C88 0.979 . S
H114 C88 0.977 . S
H115 C89 0.979 . S
H116 C89 0.980 . S
H117 C89 0.983 . S
H118 C62 0.947 . S
C119 C62 1.392 . S
C119 C63 1.419 . S
C119 H101 0.948 . S
C120 C121 1.391 . S
C120 C124 1.391 . S
C120 H162 0.948 . S
C121 C120 1.391 . S
C121 C122 1.391 . S
C122 C121 1.391 . S
C122 H178 0.947 . S
C122 C179 1.392 . S
C123 C124 1.391 . S
C123 C127 1.397 . S
C123 C179 1.419 . S
C124 C120 1.391 . S
C124 C123 1.391 . S
C124 C125 1.399 . S
C125 C124 1.399 . S
C125 C128 1.396 . S
C125 C137 1.453 . S
C125 C138 1.684 . S
H126 C150 0.948 . S
C127 C123 1.397 . S
C127 C128 1.394 . S
C127 C146 1.723 . S
C128 C125 1.396 . S
C128 C127 1.394 . S
C128 C158 1.723 . S
H129 C152 0.947 . S
H130 C153 0.948 . S
H131 C159 0.985 1_545 S
H132 C160 0.979 . S
H133 C160 0.980 . S
H134 C160 0.983 . S
H135 C159 0.979 . S
H136 C159 0.977 . S
C137 C125 1.453 . S
C137 H166 0.985 1_565 S
C137 H167 0.979 . S
C137 H168 0.977 . S
C138 C125 1.684 . S
C138 H163 0.979 . S
C138 H164 0.980 . S
C138 H165 0.983 . S
C139 C140 1.391 . S
C139 C144 1.391 . S
C139 H169 0.948 . S
C140 C139 1.391 . S
C140 C141 1.391 . S
C141 C140 1.391 . S
C141 C142 1.392 . S
C141 H170 0.947 . S
C142 C141 1.392 . S
C142 C143 1.419 . S
C142 H171 0.948 . S
C143 C142 1.419 . S
C143 C144 1.391 . S
C143 C147 1.397 . S
C144 C139 1.391 . S
C144 C143 1.391 . S
C144 C145 1.399 . S
C145 C144 1.399 . S
C145 C146 1.396 . S
C145 C148 1.453 . S
C145 C149 1.684 . S
C146 C127 1.723 . S
C146 C145 1.396 . S
C146 C147 1.394 . S
C147 C143 1.397 . S
C147 C146 1.394 . S
C147 C157 1.723 . S
C148 C145 1.453 . S
C148 H172 0.985 1_565 S
C148 H173 0.979 . S
C148 H174 0.977 . S
C149 C145 1.684 . S
C149 H175 0.979 . S
C149 H176 0.980 . S
C149 H177 0.983 . S
C150 H126 0.948 . S
C150 C151 1.391 . S
C150 C155 1.391 . S
C151 C150 1.391 . S
C151 C152 1.391 . S
C152 H129 0.947 . S
C152 C151 1.391 . S
C152 C153 1.392 . S
C153 H130 0.948 . S
C153 C152 1.392 . S
C153 C154 1.419 . S
C154 C153 1.419 . S
C154 C155 1.391 . S
C154 C158 1.397 . S
C155 C150 1.391 . S
C155 C154 1.391 . S
C155 C156 1.399 . S
C156 C155 1.399 . S
C156 C157 1.396 . S
C156 C159 1.453 . S
C156 C160 1.684 . S
C157 C147 1.723 . S
C157 C156 1.396 . S
C157 C158 1.394 . S
C158 C128 1.723 . S
C158 C154 1.397 . S
C158 C157 1.394 . S
C159 H131 0.985 1_565 S
C159 H135 0.979 . S
C159 H136 0.977 . S
C159 C156 1.453 . S
C160 H132 0.979 . S
C160 H133 0.980 . S
C160 H134 0.983 . S
C160 C156 1.684 . S
H161 C179 0.948 . S
H162 C120 0.948 . S
H163 C138 0.979 . S
H164 C138 0.980 . S
H165 C138 0.983 . S
H166 C137 0.985 1_545 S
H167 C137 0.979 . S
H168 C137 0.977 . S
H169 C139 0.948 . S
H170 C141 0.947 . S
H171 C142 0.948 . S
H172 C148 0.985 1_545 S
H173 C148 0.979 . S
H174 C148 0.977 . S
H175 C149 0.979 . S
H176 C149 0.980 . S
H177 C149 0.983 . S
H178 C122 0.947 . S
C179 C122 1.392 . S
C179 C123 1.419 . S
C179 H161 0.948 . S
C180 C181 1.391 . S
C180 C184 1.391 . S
C180 H222 0.948 . S
C181 C180 1.391 . S
C181 C182 1.391 . S
C182 C181 1.391 . S
C182 H238 0.947 . S
C182 C239 1.392 . S
C183 C184 1.391 . S
C183 C187 1.397 . S
C183 C239 1.419 . S
C184 C180 1.391 . S
C184 C183 1.391 . S
C184 C185 1.399 . S
C185 C184 1.399 . S
C185 C188 1.396 . S
C185 C197 1.453 . S
C185 C198 1.684 . S
H186 C210 0.948 . S
C187 C183 1.397 . S
C187 C188 1.394 . S
C187 C206 1.723 . S
C188 C185 1.396 . S
C188 C187 1.394 . S
C188 C218 1.723 . S
H189 C212 0.947 . S
H190 C213 0.948 . S
H191 C219 0.982 . S
H192 C220 0.979 . S
H193 C220 0.980 . S
H194 C220 0.983 . S
H195 C219 0.979 . S
H196 C219 0.977 . S
C197 C185 1.453 . S
C197 H226 0.982 . S
C197 H227 0.979 . S
C197 H228 0.977 . S
C198 C185 1.684 . S
C198 H223 0.979 . S
C198 H224 0.980 . S
C198 H225 0.983 . S
C199 C200 1.391 . S
C199 C204 1.391 . S
C199 H229 0.948 . S
C200 C199 1.391 . S
C200 C201 1.391 . S
C201 C200 1.391 . S
C201 C202 1.392 . S
C201 H230 0.947 1_554 S
C202 C201 1.392 . S
C202 C203 1.419 . S
C202 H231 0.948 . S
C203 C202 1.419 . S
C203 C204 1.391 . S
C203 C207 1.397 . S
C204 C199 1.391 . S
C204 C203 1.391 . S
C204 C205 1.399 . S
C205 C204 1.399 . S
C205 C206 1.396 . S
C205 C208 1.453 . S
C205 C209 1.684 . S
C206 C187 1.723 . S
C206 C205 1.396 . S
C206 C207 1.394 . S
C207 C203 1.397 . S
C207 C206 1.394 . S
C207 C217 1.723 . S
C208 C205 1.453 . S
C208 H232 0.982 . S
C208 H233 0.979 . S
C208 H234 0.977 . S
C209 C205 1.684 . S
C209 H235 0.979 . S
C209 H236 0.980 . S
C209 H237 0.983 . S
C210 H186 0.948 . S
C210 C211 1.391 . S
C210 C215 1.391 . S
C211 C210 1.391 . S
C211 C212 1.391 . S
C212 H189 0.947 . S
C212 C211 1.391 . S
C212 C213 1.392 . S
C213 H190 0.948 . S
C213 C212 1.392 . S
C213 C214 1.419 . S
C214 C213 1.419 . S
C214 C215 1.391 . S
C214 C218 1.397 . S
C215 C210 1.391 . S
C215 C214 1.391 . S
C215 C216 1.399 . S
C216 C215 1.399 . S
C216 C217 1.396 . S
C216 C219 1.453 . S
C216 C220 1.684 . S
C217 C207 1.723 . S
C217 C216 1.396 . S
C217 C218 1.394 . S
C218 C188 1.723 . S
C218 C214 1.397 . S
C218 C217 1.394 . S
C219 H191 0.982 . S
C219 H195 0.979 . S
C219 H196 0.977 . S
C219 C216 1.453 . S
C220 H192 0.979 . S
C220 H193 0.980 . S
C220 H194 0.983 . S
C220 C216 1.684 . S
H221 C239 0.948 . S
H222 C180 0.948 . S
H223 C198 0.979 . S
H224 C198 0.980 . S
H225 C198 0.983 . S
H226 C197 0.982 . S
H227 C197 0.979 . S
H228 C197 0.977 . S
H229 C199 0.948 . S
H230 C201 0.947 1_556 S
H231 C202 0.948 . S
H232 C208 0.982 . S
H233 C208 0.979 . S
H234 C208 0.977 . S
H235 C209 0.979 . S
H236 C209 0.980 . S
H237 C209 0.983 . S
H238 C182 0.947 . S
C239 C182 1.392 . S
C239 C183 1.419 . S
C239 H221 0.948 . S
C240 C241 1.391 . S
C240 C244 1.391 . S
C240 H282 0.948 . S
C241 C240 1.391 . S
C241 C242 1.391 . S
C242 C241 1.391 . S
C242 H298 0.947 . S
C242 C299 1.392 . S
C243 C244 1.391 . S
C243 C247 1.397 . S
C243 C299 1.419 . S
C244 C240 1.391 . S
C244 C243 1.391 . S
C244 C245 1.399 1_554 S
C245 C244 1.399 1_556 S
C245 C248 1.396 1_556 S
C245 C257 1.453 . S
C245 C258 1.684 . S
H246 C270 0.948 . S
C247 C243 1.397 . S
C247 C248 1.394 . S
C247 C266 1.723 . S
C248 C245 1.396 1_554 S
C248 C247 1.394 . S
C248 C278 1.723 1_554 S
H249 C272 0.947 . S
H250 C273 0.948 . S
H251 C279 0.982 . S
H252 C280 0.979 . S
H253 C280 0.980 1_554 S
H254 C280 0.983 . S
H255 C279 0.979 . S
H256 C279 0.977 1_554 S
C257 C245 1.453 . S
C257 H286 0.982 . S
C257 H287 0.979 . S
C257 H288 0.977 . S
C258 C245 1.684 . S
C258 H283 0.979 . S
C258 H284 0.980 . S
C258 H285 0.983 . S
C259 C260 1.391 . S
C259 C264 1.391 . S
C259 H289 0.948 . S
C260 C259 1.391 . S
C260 C261 1.391 . S
C261 C260 1.391 . S
C261 C262 1.392 . S
C261 H290 0.947 . S
C262 C261 1.392 . S
C262 C263 1.419 . S
C262 H291 0.948 . S
C263 C262 1.419 . S
C263 C264 1.391 . S
C263 C267 1.397 . S
C264 C259 1.391 . S
C264 C263 1.391 . S
C264 C265 1.399 . S
C265 C264 1.399 . S
C265 C266 1.396 . S
C265 C268 1.453 . S
C265 C269 1.684 . S
C266 C247 1.723 . S
C266 C265 1.396 . S
C266 C267 1.394 . S
C267 C263 1.397 . S
C267 C266 1.394 . S
C267 C277 1.723 . S
C268 C265 1.453 . S
C268 H292 0.982 . S
C268 H293 0.979 . S
C268 H294 0.977 . S
C269 C265 1.684 . S
C269 H295 0.979 . S
C269 H296 0.980 . S
C269 H297 0.983 . S
C270 H246 0.948 . S
C270 C271 1.391 . S
C270 C275 1.391 . S
C271 C270 1.391 . S
C271 C272 1.391 . S
C272 H249 0.947 . S
C272 C271 1.391 . S
C272 C273 1.392 . S
C273 H250 0.948 . S
C273 C272 1.392 . S
C273 C274 1.419 . S
C274 C273 1.419 . S
C274 C275 1.391 . S
C274 C278 1.397 . S
C275 C270 1.391 . S
C275 C274 1.391 . S
C275 C276 1.399 . S
C276 C275 1.399 . S
C276 C277 1.396 1_556 S
C276 C279 1.453 . S
C276 C280 1.684 . S
C277 C267 1.723 . S
C277 C276 1.396 1_554 S
C277 C278 1.394 1_554 S
C278 C248 1.723 1_556 S
C278 C274 1.397 . S
C278 C277 1.394 1_556 S
C279 H251 0.982 . S
C279 H255 0.979 . S
C279 H256 0.977 1_556 S
C279 C276 1.453 . S
C280 H252 0.979 . S
C280 H253 0.980 1_556 S
C280 H254 0.983 . S
C280 C276 1.684 . S
H281 C299 0.948 . S
H282 C240 0.948 . S
H283 C258 0.979 . S
H284 C258 0.980 . S
H285 C258 0.983 . S
H286 C257 0.982 . S
H287 C257 0.979 . S
H288 C257 0.977 . S
H289 C259 0.948 . S
H290 C261 0.947 . S
H291 C262 0.948 . S
H292 C268 0.982 . S
H293 C268 0.979 . S
H294 C268 0.977 . S
H295 C269 0.979 . S
H296 C269 0.980 . S
H297 C269 0.983 . S
H298 C242 0.947 . S
C299 C242 1.392 . S
C299 C243 1.419 . S
C299 H281 0.948 . S
C300 C301 1.391 . S
C300 C304 1.391 . S
C300 H342 0.948 . S
C301 C300 1.391 . S
C301 C302 1.391 . S
C302 C301 1.391 . S
C302 H358 0.947 . S
C302 C359 1.392 . S
C303 C304 1.391 . S
C303 C307 1.397 . S
C303 C359 1.419 . S
C304 C300 1.391 . S
C304 C303 1.391 . S
C304 C305 1.399 . S
C305 C304 1.399 . S
C305 C308 1.396 . S
C305 C317 1.453 . S
C305 C318 1.684 . S
H306 C330 0.948 . S
C307 C303 1.397 . S
C307 C308 1.394 . S
C307 C326 1.723 . S
C308 C305 1.396 . S
C308 C307 1.394 . S
C308 C338 1.723 . S
H309 C332 0.947 . S
H310 C333 0.948 . S
H311 C339 0.982 . S
H312 C340 0.979 . S
H313 C340 0.980 . S
H314 C340 0.983 . S
H315 C339 0.979 . S
H316 C339 0.977 . S
C317 C305 1.453 . S
C317 H346 0.982 . S
C317 H347 0.979 . S
C317 H348 0.977 . S
C318 C305 1.684 . S
C318 H343 0.979 . S
C318 H344 0.980 . S
C318 H345 0.983 . S
C319 C320 1.391 . S
C319 C324 1.391 . S
C319 H349 0.948 . S
C320 C319 1.391 . S
C320 C321 1.391 . S
C321 C320 1.391 . S
C321 C322 1.392 . S
C321 H350 0.947 . S
C322 C321 1.392 . S
C322 C323 1.419 . S
C322 H351 0.948 . S
C323 C322 1.419 . S
C323 C324 1.391 . S
C323 C327 1.397 . S
C324 C319 1.391 . S
C324 C323 1.391 . S
C324 C325 1.399 . S
C325 C324 1.399 . S
C325 C326 1.396 1_556 S
C325 C328 1.453 . S
C325 C329 1.684 . S
C326 C307 1.723 . S
C326 C325 1.396 1_554 S
C326 C327 1.394 1_554 S
C327 C323 1.397 . S
C327 C326 1.394 1_556 S
C327 C337 1.723 1_556 S
C328 C325 1.453 . S
C328 H352 0.982 . S
C328 H353 0.979 . S
C328 H354 0.977 1_556 S
C329 C325 1.684 . S
C329 H355 0.979 . S
C329 H356 0.980 1_556 S
C329 H357 0.983 . S
C330 H306 0.948 . S
C330 C331 1.391 . S
C330 C335 1.391 . S
C331 C330 1.391 . S
C331 C332 1.391 . S
C332 H309 0.947 . S
C332 C331 1.391 . S
C332 C333 1.392 . S
C333 H310 0.948 . S
C333 C332 1.392 . S
C333 C334 1.419 . S
C334 C333 1.419 . S
C334 C335 1.391 . S
C334 C338 1.397 . S
C335 C330 1.391 . S
C335 C334 1.391 . S
C335 C336 1.399 1_554 S
C336 C335 1.399 1_556 S
C336 C337 1.396 1_556 S
C336 C339 1.453 . S
C336 C340 1.684 . S
C337 C327 1.723 1_554 S
C337 C336 1.396 1_554 S
C337 C338 1.394 . S
C338 C308 1.723 . S
C338 C334 1.397 . S
C338 C337 1.394 . S
C339 H311 0.982 . S
C339 H315 0.979 . S
C339 H316 0.977 . S
C339 C336 1.453 . S
C340 H312 0.979 . S
C340 H313 0.980 . S
C340 H314 0.983 . S
C340 C336 1.684 . S
H341 C359 0.948 . S
H342 C300 0.948 . S
H343 C318 0.979 . S
H344 C318 0.980 . S
H345 C318 0.983 . S
H346 C317 0.982 . S
H347 C317 0.979 . S
H348 C317 0.977 . S
H349 C319 0.948 . S
H350 C321 0.947 . S
H351 C322 0.948 . S
H352 C328 0.982 . S
H353 C328 0.979 . S
H354 C328 0.977 1_554 S
H355 C329 0.979 . S
H356 C329 0.980 1_554 S
H357 C329 0.983 . S
H358 C302 0.947 . S
C359 C302 1.392 . S
C359 C303 1.419 . S
C359 H341 0.948 . S
C360 C361 1.391 . S
C360 C364 1.391 . S
C360 H402 0.948 . S
C361 C360 1.391 . S
C361 C362 1.391 . S
C362 C361 1.391 . S
C362 H418 0.947 . S
C362 C419 1.392 . S
C363 C364 1.391 . S
C363 C367 1.397 . S
C363 C419 1.419 . S
C364 C360 1.391 . S
C364 C363 1.391 . S
C364 C365 1.399 . S
C365 C364 1.399 . S
C365 C368 1.396 . S
C365 C377 1.453 . S
C365 C378 1.684 . S
H366 C390 0.948 . S
C367 C363 1.397 . S
C367 C368 1.394 . S
C367 C386 1.723 1_556 S
C368 C365 1.396 . S
C368 C367 1.394 . S
C368 C398 1.723 1_556 S
H369 C392 0.947 . S
H370 C393 0.948 1_556 S
H371 C399 0.982 . S
H372 C400 0.979 . S
H373 C400 0.980 . S
H374 C400 0.983 . S
H375 C399 0.979 . S
H376 C399 0.977 . S
C377 C365 1.453 . S
C377 H406 0.982 . S
C377 H407 0.979 . S
C377 H408 0.977 . S
C378 C365 1.684 . S
C378 H403 0.979 . S
C378 H404 0.980 . S
C378 H405 0.983 . S
C379 C380 1.391 . S
C379 C384 1.391 . S
C379 H409 0.948 . S
C380 C379 1.391 . S
C380 C381 1.391 . S
C381 C380 1.391 . S
C381 C382 1.392 . S
C381 H410 0.947 . S
C382 C381 1.392 . S
C382 C383 1.419 . S
C382 H411 0.948 . S
C383 C382 1.419 . S
C383 C384 1.391 . S
C383 C387 1.397 . S
C384 C379 1.391 . S
C384 C383 1.391 . S
C384 C385 1.399 . S
C385 C384 1.399 . S
C385 C386 1.396 . S
C385 C388 1.453 . S
C385 C389 1.684 . S
C386 C367 1.723 1_554 S
C386 C385 1.396 . S
C386 C387 1.394 . S
C387 C383 1.397 . S
C387 C386 1.394 . S
C387 C397 1.723 . S
C388 C385 1.453 . S
C388 H412 0.982 . S
C388 H413 0.979 . S
C388 H414 0.977 1_554 S
C389 C385 1.684 . S
C389 H415 0.979 . S
C389 H416 0.980 1_554 S
C389 H417 0.983 . S
C390 H366 0.948 . S
C390 C391 1.391 . S
C390 C395 1.391 . S
C391 C390 1.391 . S
C391 C392 1.391 . S
C392 H369 0.947 . S
C392 C391 1.391 . S
C392 C393 1.392 . S
C393 H370 0.948 1_554 S
C393 C392 1.392 . S
C393 C394 1.419 . S
C394 C393 1.419 . S
C394 C395 1.391 . S
C394 C398 1.397 . S
C395 C390 1.391 . S
C395 C394 1.391 . S
C395 C396 1.399 . S
C396 C395 1.399 . S
C396 C397 1.396 . S
C396 C399 1.453 . S
C396 C400 1.684 . S
C397 C387 1.723 . S
C397 C396 1.396 . S
C397 C398 1.394 . S
C398 C368 1.723 1_554 S
C398 C394 1.397 . S
C398 C397 1.394 . S
C399 H371 0.982 . S
C399 H375 0.979 . S
C399 H376 0.977 . S
C399 C396 1.453 . S
C400 H372 0.979 . S
C400 H373 0.980 . S
C400 H374 0.983 . S
C400 C396 1.684 . S
H401 C419 0.948 . S
H402 C360 0.948 . S
H403 C378 0.979 . S
H404 C378 0.980 . S
H405 C378 0.983 . S
H406 C377 0.982 . S
H407 C377 0.979 . S
H408 C377 0.977 . S
H409 C379 0.948 . S
H410 C381 0.947 . S
H411 C382 0.948 . S
H412 C388 0.982 . S
H413 C388 0.979 . S
H414 C388 0.977 1_556 S
H415 C389 0.979 . S
H416 C389 0.980 1_556 S
H417 C389 0.983 . S
H418 C362 0.947 . S
C419 C362 1.392 . S
C419 C363 1.419 . S
C419 H401 0.948 . S
C420 C421 1.391 . S
C420 C424 1.391 . S
C420 H462 0.948 . S
C421 C420 1.391 . S
C421 C422 1.391 . S
C422 C421 1.391 . S
C422 H478 0.947 . S
C422 C479 1.392 . S
C423 C424 1.391 . S
C423 C427 1.397 . S
C423 C479 1.419 . S
C424 C420 1.391 . S
C424 C423 1.391 . S
C424 C425 1.399 . S
C425 C424 1.399 . S
C425 C428 1.396 . S
C425 C437 1.453 . S
C425 C438 1.684 . S
H426 C450 0.948 . S
C427 C423 1.397 . S
C427 C428 1.394 . S
C427 C446 1.723 1_556 S
C428 C425 1.396 . S
C428 C427 1.394 . S
C428 C458 1.723 1_556 S
H429 C452 0.947 1_556 S
H430 C453 0.948 1_556 S
H431 C459 0.982 . S
H432 C460 0.979 . S
H433 C460 0.980 . S
H434 C460 0.983 . S
H435 C459 0.979 . S
H436 C459 0.977 . S
C437 C425 1.453 . S
C437 H466 0.982 . S
C437 H467 0.979 . S
C437 H468 0.977 . S
C438 C425 1.684 . S
C438 H463 0.979 . S
C438 H464 0.980 . S
C438 H465 0.983 . S
C439 C440 1.391 . S
C439 C444 1.391 . S
C439 H469 0.948 . S
C440 C439 1.391 . S
C440 C441 1.391 . S
C441 C440 1.391 . S
C441 C442 1.392 . S
C441 H470 0.947 . S
C442 C441 1.392 . S
C442 C443 1.419 . S
C442 H471 0.948 . S
C443 C442 1.419 . S
C443 C444 1.391 . S
C443 C447 1.397 . S
C444 C439 1.391 . S
C444 C443 1.391 . S
C444 C445 1.399 . S
C445 C444 1.399 . S
C445 C446 1.396 . S
C445 C448 1.453 . S
C445 C449 1.684 . S
C446 C427 1.723 1_554 S
C446 C445 1.396 . S
C446 C447 1.394 . S
C447 C443 1.397 . S
C447 C446 1.394 . S
C447 C457 1.723 . S
C448 C445 1.453 . S
C448 H472 0.982 . S
C448 H473 0.979 . S
C448 H474 0.977 1_554 S
C449 C445 1.684 . S
C449 H475 0.979 . S
C449 H476 0.980 1_554 S
C449 H477 0.983 . S
C450 H426 0.948 . S
C450 C451 1.391 . S
C450 C455 1.391 . S
C451 C450 1.391 . S
C451 C452 1.391 . S
C452 H429 0.947 1_554 S
C452 C451 1.391 . S
C452 C453 1.392 . S
C453 H430 0.948 1_554 S
C453 C452 1.392 . S
C453 C454 1.419 . S
C454 C453 1.419 . S
C454 C455 1.391 . S
C454 C458 1.397 . S
C455 C450 1.391 . S
C455 C454 1.391 . S
C455 C456 1.399 . S
C456 C455 1.399 . S
C456 C457 1.396 . S
C456 C459 1.453 . S
C456 C460 1.684 . S
C457 C447 1.723 . S
C457 C456 1.396 . S
C457 C458 1.394 . S
C458 C428 1.723 1_554 S
C458 C454 1.397 . S
C458 C457 1.394 . S
C459 H431 0.982 . S
C459 H435 0.979 . S
C459 H436 0.977 . S
C459 C456 1.453 . S
C460 H432 0.979 . S
C460 H433 0.980 . S
C460 H434 0.983 . S
C460 C456 1.684 . S
H461 C479 0.948 . S
H462 C420 0.948 . S
H463 C438 0.979 . S
H464 C438 0.980 . S
H465 C438 0.983 . S
H466 C437 0.982 . S
H467 C437 0.979 . S
H468 C437 0.977 . S
H469 C439 0.948 . S
H470 C441 0.947 . S
H471 C442 0.948 . S
H472 C448 0.982 . S
H473 C448 0.979 . S
H474 C448 0.977 1_556 S
H475 C449 0.979 . S
H476 C449 0.980 1_556 S
H477 C449 0.983 . S
H478 C422 0.947 . S
C479 C422 1.392 . S
C479 C423 1.419 . S
C479 H461 0.948 . S
Eu480 N509 2.600 . S
Eu480 N515 2.562 . S
Eu480 O524 2.462 . S
Eu480 O525 2.373 1_545 S
Eu480 O527 2.432 . S
Eu480 O528 2.291 1_655 S
Eu480 O532 2.335 1_655 S
Eu480 O535 2.372 . S
Eu480 C544 2.787 . S
C481 N482 1.365 . S
C481 C484 1.405 . S
C481 C488 1.448 . S
N482 C481 1.365 . S
N482 C485 1.314 1_545 S
N482 Eu491 2.600 1_545 S
C483 C485 1.384 1_545 S
C483 C486 1.367 . S
C483 H503 0.931 . S
C484 C481 1.405 . S
C484 C486 1.403 . S
C484 C490 1.439 . S
C485 N482 1.314 1_565 S
C485 C483 1.384 1_565 S
C485 H496 0.951 . S
C486 C483 1.367 . S
C486 C484 1.403 . S
C486 H507 0.929 . S
C487 C488 1.430 . S
C487 C489 1.387 . S
C487 C493 1.404 . S
C488 C481 1.448 . S
C488 C487 1.430 . S
C488 N492 1.351 . S
C489 C487 1.387 . S
C489 C490 1.374 . S
C489 H504 0.931 . S
C490 C484 1.439 . S
C490 C489 1.374 . S
C490 H505 0.931 . S
Eu491 N482 2.600 1_565 S
Eu491 N492 2.562 1_565 S
Eu491 O526 2.335 . S
Eu491 O529 2.372 . S
Eu491 O530 2.462 . S
Eu491 O531 2.373 1_565 S
Eu491 O533 2.432 . S
Eu491 O534 2.291 1_465 S
Eu491 C555 2.787 . S
N492 C488 1.351 . S
N492 Eu491 2.562 1_545 S
N492 C494 1.325 . S
C493 C487 1.404 . S
C493 C495 1.366 . S
C493 H501 0.930 . S
C494 N492 1.325 . S
C494 C495 1.416 . S
C494 H500 0.909 1_455 S
C495 C493 1.366 . S
C495 C494 1.416 . S
C495 H497 0.930 . S
H496 C485 0.951 . S
H497 C495 0.930 . S
H498 C513 0.930 . S
H499 C520 0.930 1_455 S
H500 C494 0.909 1_655 S
H501 C493 0.930 . S
H502 C516 0.929 1_455 S
H503 C483 0.931 . S
H504 C489 0.931 . S
H505 C490 0.931 . S
H506 C511 0.931 . S
H507 C486 0.929 . S
H508 C519 0.930 . S
N509 Eu480 2.600 . S
N509 C510 1.365 . S
N509 C513 1.319 . S
C510 N509 1.365 . S
C510 C512 1.405 1_545 S
C510 C518 1.448 . S
C511 H506 0.931 . S
C511 C513 1.397 . S
C511 C514 1.374 . S
C512 C510 1.405 1_565 S
C512 C514 1.402 1_565 S
C512 C545 1.439 . S
C513 H498 0.930 . S
C513 N509 1.319 . S
C513 C511 1.397 . S
C514 C511 1.374 . S
C514 C512 1.402 1_545 S
C514 H521 0.924 1_545 S
N515 Eu480 2.562 . S
N515 C516 1.325 . S
N515 C518 1.351 . S
C516 H502 0.929 1_655 S
C516 N515 1.325 . S
C516 C520 1.416 1_545 S
C517 C518 1.430 1_565 S
C517 C519 1.404 . S
C517 C546 1.387 . S
C518 C510 1.448 . S
C518 N515 1.351 . S
C518 C517 1.430 1_545 S
C519 H508 0.930 . S
C519 C517 1.404 . S
C519 C520 1.366 . S
C520 H499 0.930 1_655 S
C520 C516 1.416 1_565 S
C520 C519 1.366 . S
H521 C514 0.924 1_565 S
H522 C545 0.931 . S
H523 C546 0.931 . S
O524 Eu480 2.462 . S
O524 C544 1.252 . S
O525 Eu480 2.373 1_565 S
O525 C536 1.249 . S
O526 Eu491 2.335 . S
O526 C536 1.264 1_455 S
O527 Eu480 2.432 . S
O527 C544 1.268 . S
O528 Eu480 2.291 1_455 S
O528 C543 1.255 . S
O529 Eu491 2.372 . S
O529 C543 1.257 1_565 S
O530 Eu491 2.462 . S
O530 C555 1.252 . S
O531 Eu491 2.373 1_545 S
O531 C547 1.249 . S
O532 Eu480 2.335 1_455 S
O532 C547 1.264 . S
O533 Eu491 2.432 . S
O533 C555 1.268 . S
O534 Eu491 2.291 1_645 S
O534 C554 1.255 . S
O535 Eu480 2.372 . S
O535 C554 1.257 . S
C536 O525 1.249 . S
C536 O526 1.264 1_655 S
C537 C540 1.382 . S
C537 C542 1.390 . S
C537 C544 1.506 . S
C538 C539 1.398 . S
C538 C542 1.392 . S
C539 C538 1.398 . S
C539 C541 1.372 . S
C539 H556 0.931 . S
C540 C537 1.382 . S
C540 C541 1.390 . S
C540 H557 0.931 . S
C541 C539 1.372 . S
C541 C540 1.390 . S
C541 H558 0.929 . S
C542 C537 1.390 . S
C542 C538 1.392 . S
C542 H559 0.930 1_655 S
C543 O528 1.255 . S
C543 O529 1.257 1_545 S
C544 Eu480 2.787 . S
C544 O524 1.252 . S
C544 O527 1.268 . S
C544 C537 1.506 . S
C545 C512 1.439 . S
C545 H522 0.931 . S
C545 C546 1.374 . S
C546 C517 1.387 . S
C546 H523 0.931 . S
C546 C545 1.374 . S
C547 O531 1.249 . S
C547 O532 1.264 . S
C548 C551 1.382 . S
C548 C552 1.390 . S
C548 C555 1.506 . S
C549 C550 1.398 . S
C549 C552 1.392 . S
C550 C549 1.398 . S
C550 C553 1.372 . S
C550 H560 0.931 . S
C551 C548 1.382 . S
C551 C553 1.390 . S
C551 H561 0.931 . S
C552 C548 1.390 . S
C552 C549 1.392 . S
C552 H562 0.930 . S
C553 C550 1.372 . S
C553 C551 1.390 . S
C553 H563 0.929 . S
C554 O534 1.255 . S
C554 O535 1.257 . S
C555 Eu491 2.787 . S
C555 O530 1.252 . S
C555 O533 1.268 . S
C555 C548 1.506 . S
H556 C539 0.931 . S
H557 C540 0.931 . S
H558 C541 0.929 . S
H559 C542 0.930 1_455 S
H560 C550 0.931 . S
H561 C551 0.931 . S
H562 C552 0.930 . S
H563 C553 0.929 . S
Eu564 N593 2.600 . S
Eu564 N599 2.562 . S
Eu564 O608 2.462 . S
Eu564 O609 2.373 . S
Eu564 O611 2.432 . S
Eu564 O612 2.291 . S
Eu564 O616 2.335 1_545 S
Eu564 O619 2.372 . S
Eu564 C628 2.787 . S
C565 N566 1.365 . S
C565 C568 1.405 . S
C565 C572 1.448 . S
N566 C565 1.365 . S
N566 C569 1.319 . S
N566 Eu575 2.600 . S
C567 C569 1.397 . S
C567 C570 1.367 . S
C567 H587 0.931 . S
C568 C565 1.405 . S
C568 C570 1.403 . S
C568 C574 1.439 . S
C569 N566 1.319 . S
C569 C567 1.397 . S
C569 H580 0.930 . S
C570 C567 1.367 . S
C570 C568 1.403 . S
C570 H591 0.929 . S
C571 C572 1.430 . S
C571 C573 1.387 . S
C571 C577 1.404 . S
C572 C565 1.448 . S
C572 C571 1.430 . S
C572 N576 1.351 . S
C573 C571 1.387 . S
C573 C574 1.374 . S
C573 H588 0.931 . S
C574 C568 1.439 . S
C574 C573 1.374 . S
C574 H589 0.931 . S
Eu575 N566 2.600 . S
Eu575 N576 2.562 . S
Eu575 O610 2.335 1_565 S
Eu575 O613 2.372 . S
Eu575 O614 2.462 . S
Eu575 O615 2.373 . S
Eu575 O617 2.432 . S
Eu575 O618 2.291 1_565 S
Eu575 C639 2.787 . S
N576 C572 1.351 . S
N576 Eu575 2.562 . S
N576 C578 1.325 . S
C577 C571 1.404 . S
C577 C579 1.366 . S
C577 H585 0.930 . S
C578 N576 1.325 . S
C578 C579 1.416 . S
C578 H584 0.929 . S
C579 C577 1.366 . S
C579 C578 1.416 . S
C579 H581 0.930 . S
H580 C569 0.930 . S
H581 C579 0.930 . S
H582 C597 0.930 . S
H583 C604 0.930 . S
H584 C578 0.929 . S
H585 C577 0.930 . S
H586 C600 0.929 . S
H587 C567 0.931 . S
H588 C573 0.931 . S
H589 C574 0.931 . S
H590 C595 0.931 . S
H591 C570 0.929 . S
H592 C603 0.930 . S
N593 Eu564 2.600 . S
N593 C594 1.365 . S
N593 C597 1.319 . S
C594 N593 1.365 . S
C594 C596 1.405 . S
C594 C602 1.448 . S
C595 H590 0.931 . S
C595 C597 1.397 . S
C595 C598 1.367 . S
C596 C594 1.405 . S
C596 C598 1.403 . S
C596 C629 1.439 . S
C597 H582 0.930 . S
C597 N593 1.319 . S
C597 C595 1.397 . S
C598 C595 1.367 . S
C598 C596 1.403 . S
C598 H605 0.929 . S
N599 Eu564 2.562 . S
N599 C600 1.325 . S
N599 C602 1.351 . S
C600 H586 0.929 . S
C600 N599 1.325 . S
C600 C604 1.416 . S
C601 C602 1.430 . S
C601 C603 1.404 . S
C601 C630 1.387 . S
C602 C594 1.448 . S
C602 N599 1.351 . S
C602 C601 1.430 . S
C603 H592 0.930 . S
C603 C601 1.404 . S
C603 C604 1.366 . S
C604 H583 0.930 . S
C604 C600 1.416 . S
C604 C603 1.366 . S
H605 C598 0.929 . S
H606 C629 0.931 . S
H607 C630 0.931 . S
O608 Eu564 2.462 . S
O608 C628 1.252 . S
O609 Eu564 2.373 . S
O609 C620 1.249 . S
O610 Eu575 2.335 1_545 S
O610 C620 1.264 . S
O611 Eu564 2.432 . S
O611 C628 1.268 . S
O612 Eu564 2.291 . S
O612 C627 1.240 1_545 S
O613 Eu575 2.372 . S
O613 C627 1.267 . S
O614 Eu575 2.462 . S
O614 C639 1.252 . S
O615 Eu575 2.373 . S
O615 C631 1.249 . S
O616 Eu564 2.335 1_565 S
O616 C631 1.264 . S
O617 Eu575 2.432 . S
O617 C639 1.268 . S
O618 Eu575 2.291 1_545 S
O618 C638 1.255 . S
O619 Eu564 2.372 . S
O619 C638 1.257 . S
C620 O609 1.249 . S
C620 O610 1.264 . S
C621 C624 1.382 . S
C621 C626 1.390 . S
C621 C628 1.506 . S
C622 C623 1.398 . S
C622 C626 1.392 . S
C623 C622 1.398 . S
C623 C625 1.372 . S
C623 H640 0.931 . S
C624 C621 1.382 . S
C624 C625 1.390 . S
C624 H641 0.931 . S
C625 C623 1.372 . S
C625 C624 1.390 . S
C625 H642 0.929 . S
C626 C621 1.390 . S
C626 C622 1.392 . S
C626 H643 0.930 . S
C627 O612 1.240 1_565 S
C627 O613 1.267 . S
C628 Eu564 2.787 . S
C628 O608 1.252 . S
C628 O611 1.268 . S
C628 C621 1.506 . S
C629 C596 1.439 . S
C629 H606 0.931 . S
C629 C630 1.374 . S
C630 C601 1.387 . S
C630 H607 0.931 . S
C630 C629 1.374 . S
C631 O615 1.249 . S
C631 O616 1.264 . S
C632 C635 1.382 . S
C632 C636 1.390 1_565 S
C632 C639 1.506 . S
C633 C634 1.398 1_545 S
C633 C636 1.392 . S
C634 C633 1.398 1_565 S
C634 C637 1.372 . S
C634 H644 0.931 . S
C635 C632 1.382 . S
C635 C637 1.390 . S
C635 H645 0.931 . S
C636 C632 1.390 1_545 S
C636 C633 1.392 . S
C636 H646 0.930 . S
C637 C634 1.372 . S
C637 C635 1.390 . S
C637 H647 0.929 . S
C638 O618 1.255 . S
C638 O619 1.257 . S
C639 Eu575 2.787 . S
C639 O614 1.252 . S
C639 O617 1.268 . S
C639 C632 1.506 . S
H640 C623 0.931 . S
H641 C624 0.931 . S
H642 C625 0.929 . S
H643 C626 0.930 . S
H644 C634 0.931 . S
H645 C635 0.931 . S
H646 C636 0.930 . S
H647 C637 0.929 . S
Eu648 N677 2.600 . S
Eu648 N683 2.562 . S
Eu648 O692 2.462 . S
Eu648 O693 2.373 . S
Eu648 O695 2.432 . S
Eu648 O696 2.291 . S
Eu648 O700 2.335 . S
Eu648 O703 2.372 . S
Eu648 C712 2.787 . S
C649 N650 1.365 . S
C649 C652 1.405 . S
C649 C656 1.448 . S
N650 C649 1.365 . S
N650 C653 1.319 . S
N650 Eu659 2.600 . S
C651 C653 1.397 . S
C651 C654 1.367 . S
C651 H671 0.931 . S
C652 C649 1.405 . S
C652 C654 1.403 . S
C652 C658 1.439 . S
C653 N650 1.319 . S
C653 C651 1.397 . S
C653 H664 0.930 . S
C654 C651 1.367 . S
C654 C652 1.403 . S
C654 H675 0.929 . S
C655 C656 1.430 . S
C655 C657 1.387 . S
C655 C661 1.404 . S
C656 C649 1.448 . S
C656 C655 1.430 . S
C656 N660 1.351 . S
C657 C655 1.387 . S
C657 C658 1.374 . S
C657 H672 0.931 . S
C658 C652 1.439 . S
C658 C657 1.374 . S
C658 H673 0.931 . S
Eu659 N650 2.600 . S
Eu659 N660 2.562 . S
Eu659 O694 2.335 . S
Eu659 O697 2.372 . S
Eu659 O698 2.462 . S
Eu659 O699 2.373 . S
Eu659 O701 2.432 . S
Eu659 O702 2.291 . S
Eu659 C723 2.787 . S
N660 C656 1.351 . S
N660 Eu659 2.562 . S
N660 C662 1.325 . S
C661 C655 1.404 . S
C661 C663 1.366 . S
C661 H669 0.930 . S
C662 N660 1.325 . S
C662 C663 1.416 . S
C662 H668 0.929 . S
C663 C661 1.366 . S
C663 C662 1.416 . S
C663 H665 0.930 . S
H664 C653 0.930 . S
H665 C663 0.930 . S
H666 C681 0.930 . S
H667 C688 0.930 . S
H668 C662 0.929 . S
H669 C661 0.930 . S
H670 C684 0.929 . S
H671 C651 0.931 . S
H672 C657 0.931 . S
H673 C658 0.931 . S
H674 C679 0.931 . S
H675 C654 0.929 . S
H676 C687 0.930 . S
N677 Eu648 2.600 . S
N677 C678 1.365 . S
N677 C681 1.319 . S
C678 N677 1.365 . S
C678 C680 1.405 . S
C678 C686 1.448 . S
C679 H674 0.931 . S
C679 C681 1.397 . S
C679 C682 1.367 . S
C680 C678 1.405 . S
C680 C682 1.403 . S
C680 C713 1.439 . S
C681 H666 0.930 . S
C681 N677 1.319 . S
C681 C679 1.397 . S
C682 C679 1.367 . S
C682 C680 1.403 . S
C682 H689 0.929 . S
N683 Eu648 2.562 . S
N683 C684 1.325 . S
N683 C686 1.351 . S
C684 H670 0.929 . S
C684 N683 1.325 . S
C684 C688 1.416 . S
C685 C686 1.430 . S
C685 C687 1.404 . S
C685 C714 1.387 . S
C686 C678 1.448 . S
C686 N683 1.351 . S
C686 C685 1.430 . S
C687 H676 0.930 . S
C687 C685 1.404 . S
C687 C688 1.366 . S
C688 H667 0.930 . S
C688 C684 1.416 . S
C688 C687 1.366 . S
H689 C682 0.929 . S
H690 C713 0.931 . S
H691 C714 0.931 . S
O692 Eu648 2.462 . S
O692 C712 1.252 . S
O693 Eu648 2.373 . S
O693 C704 1.249 . S
O694 Eu659 2.335 . S
O694 C704 1.264 . S
O695 Eu648 2.432 . S
O695 C712 1.268 . S
O696 Eu648 2.291 . S
O696 C711 1.255 . S
O697 Eu659 2.372 . S
O697 C711 1.257 . S
O698 Eu659 2.462 . S
O698 C723 1.252 . S
O699 Eu659 2.373 . S
O699 C715 1.249 . S
O700 Eu648 2.335 . S
O700 C715 1.264 . S
O701 Eu659 2.432 . S
O701 C723 1.268 . S
O702 Eu659 2.291 . S
O702 C722 1.255 . S
O703 Eu648 2.372 . S
O703 C722 1.257 . S
C704 O693 1.249 . S
C704 O694 1.264 . S
C705 C708 1.382 . S
C705 C710 1.390 . S
C705 C712 1.506 . S
C706 C707 1.398 . S
C706 C710 1.392 . S
C707 C706 1.398 . S
C707 C709 1.372 . S
C707 H724 0.931 . S
C708 C705 1.382 . S
C708 C709 1.390 . S
C708 H725 0.931 . S
C709 C707 1.372 . S
C709 C708 1.390 . S
C709 H726 0.929 . S
C710 C705 1.390 . S
C710 C706 1.392 . S
C710 H727 0.930 . S
C711 O696 1.255 . S
C711 O697 1.257 . S
C712 Eu648 2.787 . S
C712 O692 1.252 . S
C712 O695 1.268 . S
C712 C705 1.506 . S
C713 C680 1.439 . S
C713 H690 0.931 . S
C713 C714 1.374 . S
C714 C685 1.387 . S
C714 H691 0.931 . S
C714 C713 1.374 . S
C715 O699 1.249 . S
C715 O700 1.264 . S
C716 C719 1.382 . S
C716 C720 1.390 . S
C716 C723 1.506 . S
C717 C718 1.398 . S
C717 C720 1.392 . S
C718 C717 1.398 . S
C718 C721 1.372 . S
C718 H728 0.931 . S
C719 C716 1.382 . S
C719 C721 1.390 . S
C719 H729 0.931 . S
C720 C716 1.390 . S
C720 C717 1.392 . S
C720 H730 0.930 . S
C721 C718 1.372 . S
C721 C719 1.390 . S
C721 H731 0.929 . S
C722 O702 1.255 . S
C722 O703 1.257 . S
C723 Eu659 2.787 . S
C723 O698 1.252 . S
C723 O701 1.268 . S
C723 C716 1.506 . S
H724 C707 0.931 . S
H725 C708 0.931 . S
H726 C709 0.929 . S
H727 C710 0.930 . S
H728 C718 0.931 . S
H729 C719 0.931 . S
H730 C720 0.930 . S
H731 C721 0.929 . S
Eu732 N761 2.600 . S
Eu732 N767 2.562 . S
Eu732 O776 2.462 . S
Eu732 O777 2.373 1_455 S
Eu732 O779 2.432 . S
Eu732 O780 2.291 . S
Eu732 O784 2.335 . S
Eu732 O787 2.372 . S
Eu732 C796 2.787 . S
C733 N734 1.365 1_455 S
C733 C736 1.405 . S
C733 C740 1.448 . S
N734 C733 1.365 1_655 S
N734 C737 1.319 . S
N734 Eu743 2.600 . S
C735 C737 1.397 1_455 S
C735 C738 1.367 . S
C735 H755 0.931 . S
C736 C733 1.405 . S
C736 C738 1.403 . S
C736 C742 1.439 . S
C737 N734 1.319 . S
C737 C735 1.397 1_655 S
C737 H748 0.930 . S
C738 C735 1.367 . S
C738 C736 1.403 . S
C738 H759 0.929 . S
C739 C740 1.430 . S
C739 C741 1.387 . S
C739 C745 1.404 . S
C740 C733 1.448 . S
C740 C739 1.430 . S
C740 N744 1.351 . S
C741 C739 1.387 . S
C741 C742 1.374 . S
C741 H756 0.931 . S
C742 C736 1.439 . S
C742 C741 1.374 . S
C742 H757 0.931 . S
Eu743 N734 2.600 . S
Eu743 N744 2.562 1_655 S
Eu743 O778 2.335 . S
Eu743 O781 2.372 . S
Eu743 O782 2.462 . S
Eu743 O783 2.373 1_655 S
Eu743 O785 2.432 . S
Eu743 O786 2.305 . S
Eu743 C807 2.787 . S
N744 C740 1.351 . S
N744 Eu743 2.562 1_455 S
N744 C746 1.325 . S
C745 C739 1.404 . S
C745 C747 1.366 . S
C745 H753 0.930 . S
C746 N744 1.325 . S
C746 C747 1.416 . S
C746 H752 0.929 1_455 S
C747 C745 1.366 . S
C747 C746 1.416 . S
C747 H749 0.930 . S
H748 C737 0.930 . S
H749 C747 0.930 . S
H750 C765 0.930 . S
H751 C772 0.930 . S
H752 C746 0.929 1_655 S
H753 C745 0.930 . S
H754 C768 0.929 . S
H755 C735 0.931 . S
H756 C741 0.931 . S
H757 C742 0.931 . S
H758 C763 0.931 . S
H759 C738 0.929 . S
H760 C771 0.930 . S
N761 Eu732 2.600 . S
N761 C762 1.365 . S
N761 C765 1.319 . S
C762 N761 1.365 . S
C762 C764 1.405 1_455 S
C762 C770 1.450 . S
C763 H758 0.931 . S
C763 C765 1.397 . S
C763 C766 1.367 1_455 S
C764 C762 1.405 1_655 S
C764 C766 1.403 . S
C764 C797 1.439 . S
C765 H750 0.930 . S
C765 N761 1.319 . S
C765 C763 1.397 . S
C766 C763 1.367 1_655 S
C766 C764 1.403 . S
C766 H773 0.929 . S
N767 Eu732 2.562 . S
N767 C768 1.325 . S
N767 C770 1.361 . S
C768 H754 0.929 . S
C768 N767 1.325 . S
C768 C772 1.416 1_455 S
C769 C770 1.419 1_655 S
C769 C771 1.404 . S
C769 C798 1.387 . S
C770 C762 1.450 . S
C770 N767 1.361 . S
C770 C769 1.419 1_455 S
C771 H760 0.930 . S
C771 C769 1.404 . S
C771 C772 1.366 . S
C772 H751 0.930 . S
C772 C768 1.416 1_655 S
C772 C771 1.366 . S
H773 C766 0.929 . S
H774 C797 0.931 . S
H775 C798 0.931 . S
O776 Eu732 2.462 . S
O776 C796 1.252 . S
O777 Eu732 2.373 1_655 S
O777 C788 1.249 . S
O778 Eu743 2.335 . S
O778 C788 1.264 . S
O779 Eu732 2.432 . S
O779 C796 1.268 . S
O780 Eu732 2.291 . S
O780 C795 1.255 . S
O781 Eu743 2.372 . S
O781 C795 1.257 1_655 S
O782 Eu743 2.462 . S
O782 C807 1.252 . S
O783 Eu743 2.373 1_455 S
O783 C799 1.249 . S
O784 Eu732 2.335 . S
O784 C799 1.264 . S
O785 Eu743 2.432 . S
O785 C807 1.268 . S
O786 Eu743 2.305 . S
O786 C806 1.246 1_655 S
O787 Eu732 2.372 . S
O787 C806 1.257 . S
C788 O777 1.249 . S
C788 O778 1.264 . S
C789 C792 1.382 . S
C789 C794 1.390 . S
C789 C796 1.506 . S
C790 C791 1.398 . S
C790 C794 1.392 . S
C791 C790 1.398 . S
C791 C793 1.372 . S
C791 H808 0.931 . S
C792 C789 1.382 . S
C792 C793 1.390 . S
C792 H809 0.931 . S
C793 C791 1.372 . S
C793 C792 1.390 . S
C793 H810 0.929 . S
C794 C789 1.390 . S
C794 C790 1.392 . S
C794 H811 0.930 . S
C795 O780 1.255 . S
C795 O781 1.257 1_455 S
C796 Eu732 2.787 . S
C796 O776 1.252 . S
C796 O779 1.268 . S
C796 C789 1.506 . S
C797 C764 1.439 . S
C797 H774 0.931 . S
C797 C798 1.374 . S
C798 C769 1.387 . S
C798 H775 0.931 . S
C798 C797 1.374 . S
C799 O783 1.249 . S
C799 O784 1.264 . S
C800 C803 1.382 . S
C800 C804 1.390 . S
C800 C807 1.506 . S
C801 C802 1.398 . S
C801 C804 1.392 . S
C802 C801 1.398 . S
C802 C805 1.372 . S
C802 H812 0.931 . S
C803 C800 1.382 . S
C803 C805 1.390 . S
C803 H813 0.931 . S
C804 C800 1.390 . S
C804 C801 1.392 . S
C804 H814 0.930 . S
C805 C802 1.372 . S
C805 C803 1.390 . S
C805 H815 0.929 . S
C806 O786 1.246 1_455 S
C806 O787 1.257 . S
C807 Eu743 2.787 . S
C807 O782 1.252 . S
C807 O785 1.268 . S
C807 C800 1.506 . S
H808 C791 0.931 . S
H809 C792 0.931 . S
H810 C793 0.929 . S
H811 C794 0.930 . S
H812 C802 0.931 . S
H813 C803 0.931 . S
H814 C804 0.930 . S
H815 C805 0.929 . S
H816 C824 0.950 . S
H817 C829 0.950 . S
H818 C826 0.950 . S
H819 C828 0.950 . S
H820 C830 0.950 . S
H821 C832 0.950 . S
H822 C834 0.950 . S
H823 C835 0.950 1_565 S
C824 H816 0.950 . S
C824 C825 1.386 . S
C824 C826 1.391 . S
C825 C824 1.386 . S
C825 C829 1.393 . S
C826 H818 0.950 . S
C826 C824 1.391 . S
C826 C827 1.400 . S
C827 C826 1.400 . S
C827 C828 1.398 . S
C827 C833 1.491 . S
C828 H819 0.950 . S
C828 C827 1.398 . S
C828 C829 1.391 . S
C829 H817 0.950 . S
C829 C825 1.393 . S
C829 C828 1.391 . S
C830 H820 0.950 . S
C830 C831 1.386 . S
C830 C832 1.391 . S
C831 C830 1.386 . S
C831 C835 1.393 . S
C832 H821 0.950 . S
C832 C830 1.391 . S
C832 C833 1.400 . S
C833 C827 1.491 . S
C833 C832 1.400 . S
C833 C834 1.398 . S
C834 H822 0.950 . S
C834 C833 1.398 . S
C834 C835 1.391 . S
C835 H823 0.950 1_545 S
C835 C831 1.393 . S
C835 C834 1.391 . S
H836 C844 0.950 . S
H837 C849 0.950 . S
H838 C846 0.950 . S
H839 C848 0.950 . S
H840 C850 0.950 . S
H841 C852 0.950 . S
H842 C854 0.950 . S
H843 C855 0.950 . S
C844 H836 0.950 . S
C844 C845 1.386 . S
C844 C846 1.391 . S
C845 C844 1.386 . S
C845 C849 1.393 . S
C846 H838 0.950 . S
C846 C844 1.391 . S
C846 C847 1.400 . S
C847 C846 1.400 . S
C847 C848 1.398 . S
C847 C853 1.491 . S
C848 H839 0.950 . S
C848 C847 1.398 . S
C848 C849 1.391 . S
C849 H837 0.950 . S
C849 C845 1.393 . S
C849 C848 1.391 . S
C850 H840 0.950 . S
C850 C851 1.386 . S
C850 C852 1.391 . S
C851 C850 1.386 . S
C851 C855 1.393 . S
C852 H841 0.950 . S
C852 C850 1.391 . S
C852 C853 1.400 . S
C853 C847 1.491 . S
C853 C852 1.400 . S
C853 C854 1.398 . S
C854 H842 0.950 . S
C854 C853 1.398 . S
C854 C855 1.391 . S
C855 H843 0.950 . S
C855 C851 1.393 . S
C855 C854 1.391 . S
H856 C864 0.950 . S
H857 C869 0.950 . S
H858 C866 0.950 . S
H859 C868 0.950 . S
H860 C870 0.950 . S
H861 C872 0.950 . S
H862 C874 0.950 . S
H863 C875 0.950 . S
C864 H856 0.950 . S
C864 C865 1.386 . S
C864 C866 1.391 . S
C865 C864 1.386 . S
C865 C869 1.393 . S
C866 H858 0.950 . S
C866 C864 1.391 . S
C866 C867 1.400 . S
C867 C866 1.400 . S
C867 C868 1.398 . S
C867 C873 1.491 . S
C868 H859 0.950 . S
C868 C867 1.398 . S
C868 C869 1.391 . S
C869 H857 0.950 . S
C869 C865 1.393 . S
C869 C868 1.391 . S
C870 H860 0.950 . S
C870 C871 1.386 . S
C870 C872 1.391 . S
C871 C870 1.386 . S
C871 C875 1.393 . S
C872 H861 0.950 . S
C872 C870 1.391 . S
C872 C873 1.400 . S
C873 C867 1.491 . S
C873 C872 1.400 . S
C873 C874 1.398 . S
C874 H862 0.950 . S
C874 C873 1.398 . S
C874 C875 1.391 . S
C875 H863 0.950 . S
C875 C871 1.393 . S
C875 C874 1.391 . S
H876 C884 0.950 . S
H877 C889 0.950 . S
H878 C886 0.983 . S
H879 C888 0.950 . S
H880 C890 0.950 . S
H881 C892 0.950 . S
H882 C894 0.950 1_655 S
H883 C895 0.944 1_655 S
C884 H876 0.950 . S
C884 C885 1.386 . S
C884 C886 1.391 . S
C885 C884 1.386 . S
C885 C889 1.393 . S
C886 H878 0.983 . S
C886 C884 1.391 . S
C886 C887 1.400 . S
C887 C886 1.400 . S
C887 C888 1.398 . S
C887 C893 1.491 . S
C888 H879 0.950 . S
C888 C887 1.398 . S
C888 C889 1.391 . S
C889 H877 0.950 . S
C889 C885 1.393 . S
C889 C888 1.391 . S
C890 H880 0.950 . S
C890 C891 1.386 . S
C890 C892 1.391 . S
C891 C890 1.386 . S
C891 C895 1.398 . S
C892 H881 0.950 . S
C892 C890 1.391 . S
C892 C893 1.400 . S
C893 C887 1.491 . S
C893 C892 1.400 . S
C893 C894 1.398 . S
C894 H882 0.950 1_455 S
C894 C893 1.398 . S
C894 C895 1.392 . S
C895 H883 0.944 1_455 S
C895 C891 1.398 . S
C895 C894 1.392 . S
H896 C904 0.950 1_545 S
H897 C909 0.950 . S
H898 C906 0.980 . S
H899 C908 0.950 . S
H900 C910 0.950 . S
H901 C912 0.950 . S
H902 C914 0.950 . S
H903 C915 0.950 . S
C904 H896 0.950 1_565 S
C904 C905 1.386 . S
C904 C906 1.386 1_565 S
C905 C904 1.386 . S
C905 C909 1.393 . S
C906 H898 0.980 . S
C906 C904 1.386 1_545 S
C906 C907 1.377 1_544 S
C907 C906 1.377 1_566 S
C907 C908 1.398 . S
C907 C913 1.491 . S
C908 H899 0.950 . S
C908 C907 1.398 . S
C908 C909 1.391 1_556 S
C909 H897 0.950 . S
C909 C905 1.393 . S
C909 C908 1.391 1_554 S
C910 H900 0.950 . S
C910 C911 1.386 . S
C910 C912 1.391 . S
C911 C910 1.386 . S
C911 C915 1.393 1_565 S
C912 H901 0.950 . S
C912 C910 1.391 . S
C912 C913 1.400 . S
C913 C907 1.491 . S
C913 C912 1.400 . S
C913 C914 1.398 1_565 S
C914 H902 0.950 . S
C914 C913 1.398 1_545 S
C914 C915 1.391 . S
C915 H903 0.950 . S
C915 C911 1.393 1_545 S
C915 C914 1.391 . S
H916 C924 0.950 . S
H917 C929 0.950 . S
H918 C926 0.950 . S
H919 C928 0.950 . S
H920 C930 0.950 . S
H921 C932 0.950 . S
H922 C934 0.950 . S
H923 C935 0.950 . S
C924 H916 0.950 . S
C924 C925 1.386 . S
C924 C926 1.391 . S
C925 C924 1.386 . S
C925 C929 1.393 . S
C926 H918 0.950 . S
C926 C924 1.391 . S
C926 C927 1.400 1_554 S
C927 C926 1.400 1_556 S
C927 C928 1.398 . S
C927 C933 1.491 . S
C928 H919 0.950 . S
C928 C927 1.398 . S
C928 C929 1.391 1_556 S
C929 H917 0.950 . S
C929 C925 1.393 . S
C929 C928 1.391 1_554 S
C930 H920 0.950 . S
C930 C931 1.386 . S
C930 C932 1.391 . S
C931 C930 1.386 . S
C931 C935 1.393 . S
C932 H921 0.950 . S
C932 C930 1.391 . S
C932 C933 1.400 . S
C933 C927 1.491 . S
C933 C932 1.400 . S
C933 C934 1.398 . S
C934 H922 0.950 . S
C934 C933 1.398 . S
C934 C935 1.391 . S
C935 H923 0.950 . S
C935 C931 1.393 . S
C935 C934 1.391 . S
H936 C944 0.950 . S
H937 C949 0.950 . S
H938 C946 0.950 1_556 S
H939 C948 0.950 1_556 S
H940 C950 0.950 . S
H941 C952 0.950 . S
H942 C954 0.950 . S
H943 C955 0.950 . S
C944 H936 0.950 . S
C944 C945 1.386 . S
C944 C946 1.391 . S
C945 C944 1.386 . S
C945 C949 1.393 . S
C946 H938 0.950 1_554 S
C946 C944 1.391 . S
C946 C947 1.400 1_554 S
C947 C946 1.400 1_556 S
C947 C948 1.398 1_556 S
C947 C953 1.491 . S
C948 H939 0.950 1_554 S
C948 C947 1.398 1_554 S
C948 C949 1.391 . S
C949 H937 0.950 . S
C949 C945 1.393 . S
C949 C948 1.391 . S
C950 H940 0.950 . S
C950 C951 1.386 . S
C950 C952 1.391 . S
C951 C950 1.386 . S
C951 C955 1.393 . S
C952 H941 0.950 . S
C952 C950 1.391 . S
C952 C953 1.400 . S
C953 C947 1.491 . S
C953 C952 1.400 . S
C953 C954 1.398 . S
C954 H942 0.950 . S
C954 C953 1.398 . S
C954 C955 1.391 . S
C955 H943 0.950 . S
C955 C951 1.393 . S
C955 C954 1.391 . S
H956 C964 0.950 . S
H957 C969 0.950 . S
H958 C966 0.950 . S
H959 C968 0.950 . S
H960 C970 0.950 . S
H961 C972 0.950 . S
H962 C974 0.950 . S
H963 C975 0.950 . S
C964 H956 0.950 . S
C964 C965 1.386 . S
C964 C966 1.391 1_554 S
C965 C964 1.386 . S
C965 C969 1.393 . S
C966 H958 0.950 . S
C966 C964 1.391 1_556 S
C966 C967 1.400 . S
C967 C966 1.400 . S
C967 C968 1.398 1_556 S
C967 C973 1.491 . S
C968 H959 0.950 . S
C968 C967 1.398 1_554 S
C968 C969 1.391 . S
C969 H957 0.950 . S
C969 C965 1.393 . S
C969 C968 1.391 . S
C970 H960 0.950 . S
C970 C971 1.386 . S
C970 C972 1.391 . S
C971 C970 1.386 . S
C971 C975 1.393 . S
C972 H961 0.950 . S
C972 C970 1.391 . S
C972 C973 1.400 . S
C973 C967 1.491 . S
C973 C972 1.400 . S
C973 C974 1.398 . S
C974 H962 0.950 . S
C974 C973 1.398 . S
C974 C975 1.391 . S
C975 H963 0.950 . S
C975 C971 1.393 . S
C975 C974 1.391 . S
H976 C984 0.950 . S
H977 C989 0.950 . S
H978 C986 0.950 . S
H979 C988 0.950 . S
H980 C990 0.950 . S
H981 C992 0.943 1_655 S
H982 C994 0.950 . S
H983 C995 0.950 . S
C984 H976 0.950 . S
C984 C985 1.386 . S
C984 C986 1.391 . S
C985 C984 1.386 . S
C985 C989 1.393 . S
C986 H978 0.950 . S
C986 C984 1.391 . S
C986 C987 1.400 . S
C987 C986 1.400 . S
C987 C988 1.398 . S
C987 C993 1.491 . S
C988 H979 0.950 . S
C988 C987 1.398 . S
C988 C989 1.391 . S
C989 H977 0.950 . S
C989 C985 1.393 . S
C989 C988 1.391 . S
C990 H980 0.950 . S
C990 C991 1.386 . S
C990 C992 1.383 1_655 S
C991 C990 1.386 . S
C991 C995 1.393 1_655 S
C992 H981 0.943 1_455 S
C992 C990 1.383 1_455 S
C992 C993 1.416 . S
C993 C987 1.491 . S
C993 C992 1.416 . S
C993 C994 1.398 . S
C994 H982 0.950 . S
C994 C993 1.398 . S
C994 C995 1.391 . S
C995 H983 0.950 . S
C995 C991 1.393 1_455 S
C995 C994 1.391 . S
H996 C1004 0.950 . S
H997 C1009 0.950 . S
H998 C1006 0.950 . S
H999 C1008 0.950 . S
H1000 C1010 0.950 . S
H1001 C1012 0.950 1_565 S
H1002 C1014 0.950 . S
H1003 C1015 0.950 . S
C1004 H996 0.950 . S
C1004 C1005 1.386 . S
C1004 C1006 1.391 . S
C1005 C1004 1.386 . S
C1005 C1009 1.393 . S
C1006 H998 0.950 . S
C1006 C1004 1.391 . S
C1006 C1007 1.400 . S
C1007 C1006 1.400 . S
C1007 C1008 1.398 . S
C1007 C1013 1.491 . S
C1008 H999 0.950 . S
C1008 C1007 1.398 . S
C1008 C1009 1.391 . S
C1009 H997 0.950 . S
C1009 C1005 1.393 . S
C1009 C1008 1.391 . S
C1010 H1000 0.950 . S
C1010 C1011 1.386 1_565 S
C1010 C1012 1.391 1_565 S
C1011 C1010 1.386 1_545 S
C1011 C1015 1.393 . S
C1012 H1001 0.950 1_545 S
C1012 C1010 1.391 1_545 S
C1012 C1013 1.400 . S
C1013 C1007 1.491 . S
C1013 C1012 1.400 . S
C1013 C1014 1.398 . S
C1014 H1002 0.950 . S
C1014 C1013 1.398 . S
C1014 C1015 1.391 . S
C1015 H1003 0.950 . S
C1015 C1011 1.393 . S
C1015 C1014 1.391 . S
H1016 C1024 0.950 . S
H1017 C1029 0.950 . S
H1018 C1026 0.950 . S
H1019 C1028 0.950 . S
H1020 C1030 0.950 . S
H1021 C1032 0.950 . S
H1022 C1034 0.950 . S
H1023 C1035 0.950 . S
C1024 H1016 0.950 . S
C1024 C1025 1.386 . S
C1024 C1026 1.391 . S
C1025 C1024 1.386 . S
C1025 C1029 1.393 . S
C1026 H1018 0.950 . S
C1026 C1024 1.391 . S
C1026 C1027 1.400 . S
C1027 C1026 1.400 . S
C1027 C1028 1.398 . S
C1027 C1033 1.491 . S
C1028 H1019 0.950 . S
C1028 C1027 1.398 . S
C1028 C1029 1.391 . S
C1029 H1017 0.950 . S
C1029 C1025 1.393 . S
C1029 C1028 1.391 . S
C1030 H1020 0.950 . S
C1030 C1031 1.386 . S
C1030 C1032 1.391 . S
C1031 C1030 1.386 . S
C1031 C1035 1.393 . S
C1032 H1021 0.950 . S
C1032 C1030 1.391 . S
C1032 C1033 1.400 . S
C1033 C1027 1.491 . S
C1033 C1032 1.400 . S
C1033 C1034 1.398 . S
C1034 H1022 0.950 . S
C1034 C1033 1.398 . S
C1034 C1035 1.391 . S
C1035 H1023 0.950 . S
C1035 C1031 1.393 . S
C1035 C1034 1.391 . S
H1036 C1044 0.950 . S
H1037 C1049 0.950 . S
H1038 C1046 0.950 . S
H1039 C1048 0.950 . S
H1040 C1050 0.950 . S
H1041 C1052 0.950 . S
H1042 C1054 0.950 . S
H1043 C1055 0.950 . S
C1044 H1036 0.950 . S
C1044 C1045 1.386 . S
C1044 C1046 1.391 . S
C1045 C1044 1.386 . S
C1045 C1049 1.393 . S
C1046 H1038 0.950 . S
C1046 C1044 1.391 . S
C1046 C1047 1.400 . S
C1047 C1046 1.400 . S
C1047 C1048 1.398 . S
C1047 C1053 1.491 . S
C1048 H1039 0.950 . S
C1048 C1047 1.398 . S
C1048 C1049 1.391 . S
C1049 H1037 0.950 . S
C1049 C1045 1.393 . S
C1049 C1048 1.391 . S
C1050 H1040 0.950 . S
C1050 C1051 1.386 . S
C1050 C1052 1.391 . S
C1051 C1050 1.386 . S
C1051 C1055 1.393 . S
C1052 H1041 0.950 . S
C1052 C1050 1.391 . S
C1052 C1053 1.400 . S
C1053 C1047 1.491 . S
C1053 C1052 1.400 . S
C1053 C1054 1.398 . S
C1054 H1042 0.950 . S
C1054 C1053 1.398 . S
C1054 C1055 1.391 . S
C1055 H1043 0.950 . S
C1055 C1051 1.393 . S
C1055 C1054 1.391 . S
H1056 C1064 0.950 . S
H1057 C1069 0.950 . S
H1058 C1066 0.950 . S
H1059 C1068 0.972 . S
H1060 C1070 0.950 . S
H1061 C1072 0.950 . S
H1062 C1074 0.950 . S
H1063 C1075 0.950 . S
C1064 H1056 0.950 . S
C1064 C1065 1.386 . S
C1064 C1066 1.391 . S
C1065 C1064 1.386 . S
C1065 C1069 1.393 1_554 S
C1066 H1058 0.950 . S
C1066 C1064 1.391 . S
C1066 C1067 1.400 1_554 S
C1067 C1066 1.400 1_556 S
C1067 C1068 1.398 . S
C1067 C1073 1.491 . S
C1068 H1059 0.972 . S
C1068 C1067 1.398 . S
C1068 C1069 1.391 . S
C1069 H1057 0.950 . S
C1069 C1065 1.393 1_556 S
C1069 C1068 1.391 . S
C1070 H1060 0.950 . S
C1070 C1071 1.386 . S
C1070 C1072 1.391 . S
C1071 C1070 1.386 . S
C1071 C1075 1.393 1_455 S
C1072 H1061 0.950 . S
C1072 C1070 1.391 . S
C1072 C1073 1.400 1_455 S
C1073 C1067 1.491 . S
C1073 C1072 1.400 1_655 S
C1073 C1074 1.398 . S
C1074 H1062 0.950 . S
C1074 C1073 1.398 . S
C1074 C1075 1.391 . S
C1075 H1063 0.950 . S
C1075 C1071 1.393 1_655 S
C1075 C1074 1.391 . S
H1076 C1084 0.950 . S
H1077 C1089 0.950 . S
H1078 C1086 0.950 . S
H1079 C1088 0.950 . S
H1080 C1090 0.950 . S
H1081 C1092 0.950 . S
H1082 C1094 0.950 . S
H1083 C1095 0.950 . S
C1084 H1076 0.950 . S
C1084 C1085 1.386 . S
C1084 C1086 1.391 . S
C1085 C1084 1.386 . S
C1085 C1089 1.393 1_554 S
C1086 H1078 0.950 . S
C1086 C1084 1.391 . S
C1086 C1087 1.400 1_554 S
C1087 C1086 1.400 1_556 S
C1087 C1088 1.398 . S
C1087 C1093 1.491 . S
C1088 H1079 0.950 . S
C1088 C1087 1.398 . S
C1088 C1089 1.391 . S
C1089 H1077 0.950 . S
C1089 C1085 1.393 1_556 S
C1089 C1088 1.391 . S
C1090 H1080 0.950 . S
C1090 C1091 1.386 . S
C1090 C1092 1.391 . S
C1091 C1090 1.386 . S
C1091 C1095 1.393 . S
C1092 H1081 0.950 . S
C1092 C1090 1.391 . S
C1092 C1093 1.400 1_545 S
C1093 C1087 1.491 . S
C1093 C1092 1.400 1_565 S
C1093 C1094 1.398 . S
C1094 H1082 0.950 . S
C1094 C1093 1.398 . S
C1094 C1095 1.391 1_565 S
C1095 H1083 0.950 . S
C1095 C1091 1.393 . S
C1095 C1094 1.391 1_545 S
H1096 C1104 0.950 . S
H1097 C1109 0.950 . S
H1098 C1106 0.950 . S
H1099 C1108 0.950 . S
H1100 C1110 0.950 . S
H1101 C1112 0.950 . S
H1102 C1114 0.950 . S
H1103 C1115 0.950 . S
C1104 H1096 0.950 . S
C1104 C1105 1.386 . S
C1104 C1106 1.391 1_554 S
C1105 C1104 1.386 . S
C1105 C1109 1.393 . S
C1106 H1098 0.950 . S
C1106 C1104 1.391 1_556 S
C1106 C1107 1.400 . S
C1107 C1106 1.400 . S
C1107 C1108 1.398 . S
C1107 C1113 1.491 . S
C1108 H1099 0.950 . S
C1108 C1107 1.398 . S
C1108 C1109 1.391 1_556 S
C1109 H1097 0.950 . S
C1109 C1105 1.393 . S
C1109 C1108 1.391 1_554 S
C1110 H1100 0.950 . S
C1110 C1111 1.386 . S
C1110 C1112 1.391 . S
C1111 C1110 1.386 . S
C1111 C1115 1.393 . S
C1112 H1101 0.950 . S
C1112 C1110 1.391 . S
C1112 C1113 1.400 . S
C1113 C1107 1.491 . S
C1113 C1112 1.400 . S
C1113 C1114 1.398 . S
C1114 H1102 0.950 . S
C1114 C1113 1.398 . S
C1114 C1115 1.391 . S
C1115 H1103 0.950 . S
C1115 C1111 1.393 . S
C1115 C1114 1.391 . S
H1116 C1124 0.950 . S
H1117 C1129 0.950 . S
H1118 C1126 0.950 . S
H1119 C1128 0.950 . S
H1120 C1130 0.950 . S
H1121 C1132 0.950 . S
H1122 C1134 0.950 . S
H1123 C1135 0.950 . S
C1124 H1116 0.950 . S
C1124 C1125 1.386 . S
C1124 C1126 1.391 . S
C1125 C1124 1.386 . S
C1125 C1129 1.393 1_554 S
C1126 H1118 0.950 . S
C1126 C1124 1.391 . S
C1126 C1127 1.400 1_554 S
C1127 C1126 1.400 1_556 S
C1127 C1128 1.398 . S
C1127 C1133 1.491 . S
C1128 H1119 0.950 . S
C1128 C1127 1.398 . S
C1128 C1129 1.391 . S
C1129 H1117 0.950 . S
C1129 C1125 1.393 1_556 S
C1129 C1128 1.391 . S
C1130 H1120 0.950 . S
C1130 C1131 1.386 . S
C1130 C1132 1.391 . S
C1131 C1130 1.386 . S
C1131 C1135 1.393 . S
C1132 H1121 0.950 . S
C1132 C1130 1.391 . S
C1132 C1133 1.400 . S
C1133 C1127 1.491 . S
C1133 C1132 1.400 . S
C1133 C1134 1.398 . S
C1134 H1122 0.950 . S
C1134 C1133 1.398 . S
C1134 C1135 1.391 . S
C1135 H1123 0.950 . S
C1135 C1131 1.393 . S
C1135 C1134 1.391 . S
H1136 C1144 0.950 . S
H1137 C1149 0.950 . S
H1138 C1146 0.950 . S
H1139 C1148 0.950 . S
H1140 C1150 0.950 . S
H1141 C1152 0.950 . S
H1142 C1154 0.950 . S
H1143 C1155 0.950 . S
C1144 H1136 0.950 . S
C1144 C1145 1.386 . S
C1144 C1146 1.391 . S
C1145 C1144 1.386 . S
C1145 C1149 1.393 . S
C1146 H1138 0.950 . S
C1146 C1144 1.391 . S
C1146 C1147 1.400 . S
C1147 C1146 1.400 . S
C1147 C1148 1.398 . S
C1147 C1153 1.491 . S
C1148 H1139 0.950 . S
C1148 C1147 1.398 . S
C1148 C1149 1.391 . S
C1149 H1137 0.950 . S
C1149 C1145 1.393 . S
C1149 C1148 1.391 . S
C1150 H1140 0.950 . S
C1150 C1151 1.386 . S
C1150 C1152 1.391 . S
C1151 C1150 1.386 . S
C1151 C1155 1.393 . S
C1152 H1141 0.950 . S
C1152 C1150 1.391 . S
C1152 C1153 1.400 . S
C1153 C1147 1.491 . S
C1153 C1152 1.400 . S
C1153 C1154 1.398 . S
C1154 H1142 0.950 . S
C1154 C1153 1.398 . S
C1154 C1155 1.391 . S
C1155 H1143 0.950 . S
C1155 C1151 1.393 . S
C1155 C1154 1.391 . S
H1156 C1164 0.950 . S
H1157 C1169 0.950 . S
H1158 C1166 0.950 . S
H1159 C1168 0.950 . S
H1160 C1170 0.950 . S
H1161 C1172 0.950 . S
H1162 C1174 0.950 . S
H1163 C1175 0.950 1_565 S
C1164 H1156 0.950 . S
C1164 C1165 1.386 . S
C1164 C1166 1.391 . S
C1165 C1164 1.386 . S
C1165 C1169 1.393 . S
C1166 H1158 0.950 . S
C1166 C1164 1.391 . S
C1166 C1167 1.400 . S
C1167 C1166 1.400 . S
C1167 C1168 1.398 . S
C1167 C1173 1.491 . S
C1168 H1159 0.950 . S
C1168 C1167 1.398 . S
C1168 C1169 1.391 . S
C1169 H1157 0.950 . S
C1169 C1165 1.393 . S
C1169 C1168 1.391 . S
C1170 H1160 0.950 . S
C1170 C1171 1.386 . S
C1170 C1172 1.391 . S
C1171 C1170 1.386 . S
C1171 C1175 1.393 . S
C1172 H1161 0.950 . S
C1172 C1170 1.391 . S
C1172 C1173 1.400 . S
C1173 C1167 1.491 . S
C1173 C1172 1.400 . S
C1173 C1174 1.398 . S
C1174 H1162 0.950 . S
C1174 C1173 1.398 . S
C1174 C1175 1.391 . S
C1175 H1163 0.950 1_545 S
C1175 C1171 1.393 . S
C1175 C1174 1.391 . S
H1176 C1184 0.950 . S
H1177 C1189 0.950 . S
H1178 C1186 0.950 . S
H1179 C1188 0.950 . S
H1180 C1190 0.950 . S
H1181 C1192 0.950 . S
H1182 C1194 0.950 . S
H1183 C1195 0.950 . S
C1184 H1176 0.950 . S
C1184 C1185 1.386 . S
C1184 C1186 1.391 . S
C1185 C1184 1.386 . S
C1185 C1189 1.393 . S
C1186 H1178 0.950 . S
C1186 C1184 1.391 . S
C1186 C1187 1.400 . S
C1187 C1186 1.400 . S
C1187 C1188 1.398 . S
C1187 C1193 1.491 . S
C1188 H1179 0.950 . S
C1188 C1187 1.398 . S
C1188 C1189 1.391 . S
C1189 H1177 0.950 . S
C1189 C1185 1.393 . S
C1189 C1188 1.391 . S
C1190 H1180 0.950 . S
C1190 C1191 1.386 . S
C1190 C1192 1.391 . S
C1191 C1190 1.386 . S
C1191 C1195 1.393 . S
C1192 H1181 0.950 . S
C1192 C1190 1.391 . S
C1192 C1193 1.400 . S
C1193 C1187 1.491 . S
C1193 C1192 1.400 . S
C1193 C1194 1.398 . S
C1194 H1182 0.950 . S
C1194 C1193 1.398 . S
C1194 C1195 1.391 . S
C1195 H1183 0.950 . S
C1195 C1191 1.393 . S
C1195 C1194 1.391 . S
H1196 C1204 0.950 . S
H1197 C1209 0.950 . S
H1198 C1206 0.950 . S
H1199 C1208 0.950 . S
H1200 C1210 0.950 . S
H1201 C1212 0.950 . S
H1202 C1214 0.950 . S
H1203 C1215 0.950 . S
C1204 H1196 0.950 . S
C1204 C1205 1.386 . S
C1204 C1206 1.391 . S
C1205 C1204 1.386 . S
C1205 C1209 1.393 . S
C1206 H1198 0.950 . S
C1206 C1204 1.391 . S
C1206 C1207 1.400 . S
C1207 C1206 1.400 . S
C1207 C1208 1.398 . S
C1207 C1213 1.491 . S
C1208 H1199 0.950 . S
C1208 C1207 1.398 . S
C1208 C1209 1.391 . S
C1209 H1197 0.950 . S
C1209 C1205 1.393 . S
C1209 C1208 1.391 . S
C1210 H1200 0.950 . S
C1210 C1211 1.386 . S
C1210 C1212 1.391 . S
C1211 C1210 1.386 . S
C1211 C1215 1.393 . S
C1212 H1201 0.950 . S
C1212 C1210 1.391 . S
C1212 C1213 1.400 . S
C1213 C1207 1.491 . S
C1213 C1212 1.400 . S
C1213 C1214 1.398 . S
C1214 H1202 0.950 . S
C1214 C1213 1.398 . S
C1214 C1215 1.391 . S
C1215 H1203 0.950 . S
C1215 C1211 1.393 . S
C1215 C1214 1.391 . S
H1216 C1224 0.950 . S
H1217 C1229 0.950 . S
H1218 C1226 0.950 . S
H1219 C1228 0.950 . S
H1220 C1230 0.950 . S
H1221 C1232 0.950 . S
H1222 C1234 0.950 . S
H1223 C1235 0.950 . S
C1224 H1216 0.950 . S
C1224 C1225 1.386 . S
C1224 C1226 1.391 . S
C1225 C1224 1.386 . S
C1225 C1229 1.393 . S
C1226 H1218 0.950 . S
C1226 C1224 1.391 . S
C1226 C1227 1.400 . S
C1227 C1226 1.400 . S
C1227 C1228 1.398 . S
C1227 C1233 1.491 . S
C1228 H1219 0.950 . S
C1228 C1227 1.398 . S
C1228 C1229 1.391 . S
C1229 H1217 0.950 . S
C1229 C1225 1.393 . S
C1229 C1228 1.391 . S
C1230 H1220 0.950 . S
C1230 C1231 1.386 . S
C1230 C1232 1.391 . S
C1231 C1230 1.386 . S
C1231 C1235 1.393 . S
C1232 H1221 0.950 . S
C1232 C1230 1.391 . S
C1232 C1233 1.400 . S
C1233 C1227 1.491 . S
C1233 C1232 1.400 . S
C1233 C1234 1.398 . S
C1234 H1222 0.950 . S
C1234 C1233 1.398 . S
C1234 C1235 1.391 . S
C1235 H1223 0.950 . S
C1235 C1231 1.393 . S
C1235 C1234 1.391 . S
H1236 C1244 0.950 . S
H1237 C1249 0.950 1_545 S
H1238 C1246 0.950 . S
H1239 C1248 0.950 1_545 S
H1240 C1250 0.950 . S
H1241 C1252 0.950 . S
H1242 C1254 0.950 . S
H1243 C1255 0.950 . S
C1244 H1236 0.950 . S
C1244 C1245 1.386 . S
C1244 C1246 1.391 . S
C1245 C1244 1.386 . S
C1245 C1249 1.393 . S
C1246 H1238 0.950 . S
C1246 C1244 1.391 . S
C1246 C1247 1.400 . S
C1247 C1246 1.400 . S
C1247 C1248 1.398 . S
C1247 C1253 1.491 . S
C1248 H1239 0.950 1_565 S
C1248 C1247 1.398 . S
C1248 C1249 1.391 . S
C1249 H1237 0.950 1_565 S
C1249 C1245 1.393 . S
C1249 C1248 1.391 . S
C1250 H1240 0.950 . S
C1250 C1251 1.386 1_545 S
C1250 C1252 1.391 . S
C1251 C1250 1.386 1_565 S
C1251 C1255 1.393 . S
C1252 H1241 0.950 . S
C1252 C1250 1.391 . S
C1252 C1253 1.400 1_545 S
C1253 C1247 1.491 . S
C1253 C1252 1.400 1_565 S
C1253 C1254 1.398 . S
C1254 H1242 0.950 . S
C1254 C1253 1.398 . S
C1254 C1255 1.391 . S
C1255 H1243 0.950 . S
C1255 C1251 1.393 . S
C1255 C1254 1.391 . S
H1256 C1264 0.950 . S
H1257 C1269 0.950 . S
H1258 C1266 0.950 . S
H1259 C1268 0.950 . S
H1260 C1270 0.950 . S
H1261 C1272 0.950 . S
H1262 C1274 0.950 . S
H1263 C1275 0.950 . S
C1264 H1256 0.950 . S
C1264 C1265 1.386 . S
C1264 C1266 1.391 . S
C1265 C1264 1.386 . S
C1265 C1269 1.393 . S
C1266 H1258 0.950 . S
C1266 C1264 1.391 . S
C1266 C1267 1.400 . S
C1267 C1266 1.400 . S
C1267 C1268 1.398 . S
C1267 C1273 1.491 . S
C1268 H1259 0.950 . S
C1268 C1267 1.398 . S
C1268 C1269 1.391 . S
C1269 H1257 0.950 . S
C1269 C1265 1.393 . S
C1269 C1268 1.391 . S
C1270 H1260 0.950 . S
C1270 C1271 1.386 . S
C1270 C1272 1.391 . S
C1271 C1270 1.386 . S
C1271 C1275 1.393 . S
C1272 H1261 0.950 . S
C1272 C1270 1.391 . S
C1272 C1273 1.400 . S
C1273 C1267 1.491 . S
C1273 C1272 1.400 . S
C1273 C1274 1.398 . S
C1274 H1262 0.950 . S
C1274 C1273 1.398 . S
C1274 C1275 1.391 . S
C1275 H1263 0.950 . S
C1275 C1271 1.393 . S
C1275 C1274 1.391 . S
H1276 C1284 0.950 . S
H1277 C1289 0.950 . S
H1278 C1286 0.950 . S
H1279 C1288 0.950 . S
H1280 C1290 0.950 . S
H1281 C1292 0.950 . S
H1282 C1294 0.950 . S
H1283 C1295 0.950 . S
C1284 H1276 0.950 . S
C1284 C1285 1.386 . S
C1284 C1286 1.391 . S
C1285 C1284 1.386 . S
C1285 C1289 1.393 . S
C1286 H1278 0.950 . S
C1286 C1284 1.391 . S
C1286 C1287 1.400 . S
C1287 C1286 1.400 . S
C1287 C1288 1.398 . S
C1287 C1293 1.491 . S
C1288 H1279 0.950 . S
C1288 C1287 1.398 . S
C1288 C1289 1.391 . S
C1289 H1277 0.950 . S
C1289 C1285 1.393 . S
C1289 C1288 1.391 . S
C1290 H1280 0.950 . S
C1290 C1291 1.386 . S
C1290 C1292 1.391 . S
C1291 C1290 1.386 . S
C1291 C1295 1.393 . S
C1292 H1281 0.950 . S
C1292 C1290 1.391 . S
C1292 C1293 1.400 . S
C1293 C1287 1.491 . S
C1293 C1292 1.400 . S
C1293 C1294 1.398 . S
C1294 H1282 0.950 . S
C1294 C1293 1.398 . S
C1294 C1295 1.391 . S
C1295 H1283 0.950 . S
C1295 C1291 1.393 . S
C1295 C1294 1.391 . S
C825 C391 2.382 . S
C831 C543 2.417 . S
C851 C620 2.431 . S
C845 C451 2.397 . S
C871 C711 2.416 . S
C865 C241 2.056 . S
C891 C795 2.399 . S
C885 C331 2.048 . S
C911 C554 2.428 1_565 S
C905 C121 2.130 . S
C925 C211 2.365 . S
C931 C631 2.436 . S
C945 C31 2.342 . S
C951 C722 2.417 . S
C965 C91 2.104 . S
C971 C806 2.411 1_655 S
C991 C538 0.478 . S
C985 C301 0.608 . S
C1011 C633 0.498 . S
C1005 C380 0.387 . S
C1031 C706 0.469 . S
C1025 C440 0.449 . S
C1045 C260 0.601 . S
C1051 C790 0.460 . S
C1065 C61 0.472 . S
C1071 C549 0.507 . S
C1091 C622 0.535 . S
C1085 C140 0.468 . S
C1111 C717 0.479 . S
C1105 C200 0.510 . S
C1125 C20 0.470 . S
C1131 C801 0.507 . S
C1145 C320 2.719 . S
C1151 C547 2.894 . S
C1165 C361 2.421 . S
C1171 C638 2.945 . S
C1191 C715 2.916 . S
C1185 C421 2.426 . S
C1211 C799 2.916 . S
C1205 C271 2.740 . S
C1225 C80 2.752 . S
C1231 C536 2.897 . S
C1251 C627 2.950 . S
C1245 C151 2.763 . S
C1271 C704 2.911 . S
C1265 C181 2.373 . S
C1285 C1 2.409 . S
C1291 C788 2.924 . S
