# Generated by pormake.
# Topology zzz, (3,6)-cn, num edge types: 1
# Building blocks:
#     Node 0, Type 0, BuildingBlock: QEWDON_clean_linker_0, # of connection points: 3
#     Node 1, Type 0, BuildingBlock: QEWDON_clean_linker_0, # of connection points: 3
#     Node 2, Type 0, BuildingBlock: QEWDON_clean_linker_0, # of connection points: 3
#     Node 3, Type 0, BuildingBlock: QEWDON_clean_linker_0, # of connection points: 3
#     Node 4, Type 0, BuildingBlock: QEWDON_clean_linker_0, # of connection points: 3
#     Node 5, Type 0, BuildingBlock: QEWDON_clean_linker_0, # of connection points: 3
#     Node 6, Type 0, BuildingBlock: QEWDON_clean_linker_0, # of connection points: 3
#     Node 7, Type 0, BuildingBlock: QEWDON_clean_linker_0, # of connection points: 3
#     Node 8, Type 1, BuildingBlock: JUFBIX_clean_sbu_0, # of connection points: 6
#     Node 9, Type 1, BuildingBlock: JUFBIX_clean_sbu_0, # of connection points: 6
#     Node 10, Type 1, BuildingBlock: JUFBIX_clean_sbu_0, # of connection points: 6
#     Node 11, Type 1, BuildingBlock: JUFBIX_clean_sbu_0, # of connection points: 6
#     Edge 12, Type (0, 1), BuildingBlock: ZUJKAS_clean_linker_0, # of connection points: 2
#     Edge 13, Type (0, 1), BuildingBlock: ZUJKAS_clean_linker_0, # of connection points: 2
#     Edge 14, Type (0, 1), BuildingBlock: ZUJKAS_clean_linker_0, # of connection points: 2
#     Edge 15, Type (0, 1), BuildingBlock: ZUJKAS_clean_linker_0, # of connection points: 2
#     Edge 16, Type (0, 1), BuildingBlock: ZUJKAS_clean_linker_0, # of connection points: 2
#     Edge 17, Type (0, 1), BuildingBlock: ZUJKAS_clean_linker_0, # of connection points: 2
#     Edge 18, Type (0, 1), BuildingBlock: ZUJKAS_clean_linker_0, # of connection points: 2
#     Edge 19, Type (0, 1), BuildingBlock: ZUJKAS_clean_linker_0, # of connection points: 2
#     Edge 20, Type (0, 1), BuildingBlock: ZUJKAS_clean_linker_0, # of connection points: 2
#     Edge 21, Type (0, 1), BuildingBlock: ZUJKAS_clean_linker_0, # of connection points: 2
#     Edge 22, Type (0, 1), BuildingBlock: ZUJKAS_clean_linker_0, # of connection points: 2
#     Edge 23, Type (0, 1), BuildingBlock: ZUJKAS_clean_linker_0, # of connection points: 2
#     Edge 24, Type (0, 1), BuildingBlock: ZUJKAS_clean_linker_0, # of connection points: 2
#     Edge 25, Type (0, 1), BuildingBlock: ZUJKAS_clean_linker_0, # of connection points: 2
#     Edge 26, Type (0, 1), BuildingBlock: ZUJKAS_clean_linker_0, # of connection points: 2
#     Edge 27, Type (0, 1), BuildingBlock: ZUJKAS_clean_linker_0, # of connection points: 2
#     Edge 28, Type (0, 1), BuildingBlock: ZUJKAS_clean_linker_0, # of connection points: 2
#     Edge 29, Type (0, 1), BuildingBlock: ZUJKAS_clean_linker_0, # of connection points: 2
#     Edge 30, Type (0, 1), BuildingBlock: ZUJKAS_clean_linker_0, # of connection points: 2
#     Edge 31, Type (0, 1), BuildingBlock: ZUJKAS_clean_linker_0, # of connection points: 2
#     Edge 32, Type (0, 1), BuildingBlock: ZUJKAS_clean_linker_0, # of connection points: 2
#     Edge 33, Type (0, 1), BuildingBlock: ZUJKAS_clean_linker_0, # of connection points: 2
#     Edge 34, Type (0, 1), BuildingBlock: ZUJKAS_clean_linker_0, # of connection points: 2
#     Edge 35, Type (0, 1), BuildingBlock: ZUJKAS_clean_linker_0, # of connection points: 2
# Relax obj value: 0.086
# Max RMSD: 0.181
# Mean RMSD: 0.079
data_MOF--net-zzz--node1-JUFBIX_clean_sbu_0--node2-QEWDON_clean_linker_0--edge1-ZUJKAS_clean_linker_0
_symmetry_space_group_name_H-M    P1
_symmetry_Int_Tables_number       1
_symmetry_cell_setting            triclinic
loop_
_symmetry_equiv_pos_as_xyz
'x, y, z'
_cell_length_a     70.002801
_cell_length_b     69.995388
_cell_length_c     22.10289
_cell_angle_alpha  82.876067
_cell_angle_beta   89.860202
_cell_angle_gamma 90.440658
loop_
_atom_site_label
_atom_site_type_symbol
_atom_site_fract_x
_atom_site_fract_y
_atom_site_fract_z
_atom_type_partial_charge
H0 H 0.80293 0.53156 0.14172 0.0
C1 C 0.8101 0.53029 0.18537 0.0
C2 C 0.82827 0.52182 0.19087 0.0
C3 C 0.80157 0.53783 0.23525 0.0
H4 H 0.85235 0.51561 0.2505 0.0
C5 C 0.83785 0.52097 0.24677 0.0
C6 C 0.82979 0.52833 0.29682 0.0
C7 C 0.8116 0.53664 0.2911 0.0
C8 C 0.78289 0.54811 0.22797 0.0
H9 H 0.80541 0.54224 0.3302 0.0
C10 C 0.76831 0.54222 0.18989 0.0
C11 C 0.7511 0.55261 0.18153 0.0
C12 C 0.77981 0.56446 0.25785 0.0
H13 H 0.79077 0.56983 0.28596 0.0
C14 C 0.76268 0.57447 0.25084 0.0
H15 H 0.77039 0.52974 0.16622 0.0
C16 C 0.74843 0.56863 0.21312 0.0
H17 H 0.73525 0.57669 0.20882 0.0
H18 H 0.7605 0.58695 0.27437 0.0
H19 H 1.00815 0.78411 0.14785 0.0
C20 C 0.01007 0.79072 0.18925 0.0
C21 C 0.01845 0.80912 0.18548 0.0
C22 C 1.00351 0.78126 0.2457 0.0
H23 H 0.02581 0.83272 0.23501 0.0
C24 C 0.02023 0.81812 0.23832 0.0
C25 C 0.0132 0.80941 0.29433 0.0
C26 C 1.005 0.79093 0.29813 0.0
C27 C 0.99425 0.76182 0.24919 0.0
H28 H 0.9998 0.78422 0.34192 0.0
C29 C 1.00049 0.74802 0.21198 0.0
C30 C 0.9916 0.72976 0.21534 0.0
C31 C 0.97883 0.757 0.28937 0.0
H32 H 0.9732 0.7673 0.31734 0.0
C33 C 0.97012 0.7389 0.29317 0.0
H34 H 0.01246 0.75127 0.18121 0.0
C35 C 0.97644 0.72536 0.25662 0.0
H36 H 0.96918 0.71154 0.25973 0.0
H37 H 0.95825 0.73543 0.32417 0.0
H38 H 0.75384 1.00594 0.06403 0.0
C39 C 0.74655 1.00837 0.10569 0.0
C40 C 0.7278 0.01537 0.10267 0.0
C41 C 0.75546 1.00362 0.16272 0.0
H42 H 0.70318 0.02238 0.1534 0.0
C43 C 0.71795 0.01775 0.15629 0.0
C44 C 0.72626 0.01269 0.21344 0.0
C45 C 0.74508 1.00581 0.21645 0.0
C46 C 0.77498 0.99511 0.16687 0.0
H47 H 0.75153 1.00203 0.26079 0.0
C48 C 0.78976 1.00199 0.12582 0.0
C49 C 0.80827 0.99413 0.13225 0.0
C50 C 0.77894 0.97988 0.21282 0.0
H51 H 0.76787 0.97384 0.24397 0.0
C52 C 0.79715 0.97201 0.21884 0.0
H53 H 0.78706 0.01375 0.09026 0.0
C54 C 0.81174 0.97913 0.1792 0.0
H55 H 0.82575 0.97268 0.18473 0.0
H56 H 0.79997 0.9603 0.25439 0.0
H57 H 0.53451 0.74114 0.06238 0.0
C58 C 0.53083 0.73348 0.10657 0.0
C59 C 0.52212 0.71522 0.10989 0.0
C60 C 0.5358 0.74129 0.16028 0.0
H61 H 0.51239 0.69041 0.16949 0.0
C62 C 0.51817 0.70492 0.16704 0.0
C63 C 0.5235 0.71209 0.22091 0.0
C64 C 0.53216 0.73035 0.21738 0.0
C65 C 0.54649 0.7599 0.15689 0.0
H66 H 0.53634 0.73587 0.25914 0.0
C67 C 0.54136 0.77605 0.11529 0.0
C68 C 0.55206 0.79335 0.11189 0.0
C69 C 0.56238 0.76137 0.1949 0.0
H70 H 0.56694 0.74918 0.22643 0.0
C71 C 0.57287 0.77845 0.19196 0.0
H72 H 0.52918 0.77513 0.0856 0.0
C73 C 0.56779 0.79431 0.15093 0.0
H74 H 0.57609 0.80746 0.15023 0.0
H75 H 0.58504 0.77939 0.22157 0.0
H76 H 0.23949 0.52598 0.35015 0.0
C77 C 0.23138 0.52042 0.31437 0.0
C78 C 0.21216 0.51523 0.32503 0.0
C79 C 0.2399 0.51891 0.25724 0.0
H80 H 0.18625 0.50567 0.286 0.0
C81 C 0.20134 0.50876 0.27838 0.0
C82 C 0.20923 0.50772 0.22071 0.0
C83 C 0.22856 0.51263 0.21043 0.0
C84 C 0.2603 0.52467 0.24559 0.0
H85 H 0.23468 0.51153 0.16596 0.0
C86 C 0.27433 0.52089 0.29135 0.0
C87 C 0.29357 0.52634 0.27976 0.0
C88 C 0.26585 0.5342 0.18835 0.0
H89 H 0.25547 0.53784 0.15263 0.0
C90 C 0.28486 0.53955 0.17668 0.0
H91 H 0.27042 0.51335 0.33549 0.0
C92 C 0.29863 0.53564 0.22185 0.0
H93 H 0.31322 0.54025 0.21178 0.0
H94 H 0.28891 0.54692 0.1325 0.0
H95 H 0.02089 0.25296 0.34876 0.0
C96 C 0.02486 0.24583 0.30987 0.0
C97 C 0.02925 0.22614 0.31925 0.0
C98 C 0.02486 0.25599 0.25047 0.0
H99 H 0.03556 0.20106 0.27565 0.0
C100 C 0.0331 0.21646 0.26892 0.0
C101 C 0.03269 0.226 0.20961 0.0
C102 C 0.02924 0.24587 0.2005 0.0
C103 C 0.01861 0.27656 0.24026 0.0
H104 H 0.02922 0.25315 0.15433 0.0
C105 C 0.02213 0.28939 0.28384 0.0
C106 C 0.0147 0.30822 0.27586 0.0
C107 C 1.00797 0.28323 0.18791 0.0
H108 H 1.00439 0.27383 0.15421 0.0
C109 C 1.00117 0.30202 0.17903 0.0
H110 H 0.03025 0.28469 0.32455 0.0
C111 C 1.0044 0.31441 0.22267 0.0
H112 H 0.99876 0.32887 0.21488 0.0
H113 H 0.99302 0.30691 0.13855 0.0
H114 H 0.28374 0.01102 0.45351 0.0
C115 C 0.29045 0.01687 0.4109 0.0
C116 C 0.30917 0.02419 0.41147 0.0
C117 C 0.28084 0.01619 0.35517 0.0
H118 H 0.33298 0.03585 0.35698 0.0
C119 C 0.31821 0.03102 0.35643 0.0
C120 C 0.30929 0.02979 0.30053 0.0
C121 C 0.29056 0.02247 0.29996 0.0
C122 C 0.26137 1.00741 0.35436 0.0
H123 H 0.28372 0.02148 0.25653 0.0
C124 C 0.24709 0.01122 0.39656 0.0
C125 C 0.22891 1.00233 0.39611 0.0
C126 C 0.25714 0.99465 0.31174 0.0
H127 H 0.26784 0.9911 0.27955 0.0
C128 C 0.23919 0.98597 0.31084 0.0
H129 H 0.25012 0.02099 0.42977 0.0
C130 C 0.22518 0.98975 0.35255 0.0
H131 H 0.21129 0.98294 0.35025 0.0
H132 H 0.23612 0.97621 0.27773 0.0
H133 H 0.52422 0.29567 0.44733 0.0
C134 C 0.52036 0.30386 0.40431 0.0
C135 C 0.51343 0.32267 0.4037 0.0
C136 C 0.52298 0.29599 0.34912 0.0
H137 H 0.50456 0.34837 0.34766 0.0
C138 C 0.50909 0.33356 0.34806 0.0
C139 C 0.5122 0.32633 0.29276 0.0
C140 C 0.51901 0.30751 0.29339 0.0
C141 C 0.5309 0.27627 0.34894 0.0
H142 H 0.52128 0.30192 0.25039 0.0
C143 C 0.52477 0.26066 0.39157 0.0
C144 C 0.53178 0.24195 0.38844 0.0
C145 C 0.54461 0.27293 0.30485 0.0
H146 H 0.55001 0.28463 0.27249 0.0
C147 C 0.5517 0.25451 0.30219 0.0
H148 H 0.51414 0.26289 0.42569 0.0
C149 C 0.54527 0.2391 0.34331 0.0
H150 H 0.55103 0.22493 0.34033 0.0
H151 H 0.56224 0.25216 0.26801 0.0
Co152 Co 0.02398 0.02476 0.79615 0.0
C153 C 0.98468 0.01775 0.80134 0.0
Co154 Co 0.01269 0.01269 0.71537 0.0
C155 C 0.03939 0.05486 0.86059 0.0
C156 C 0.0304 0.03031 0.92159 0.0
N157 N 0.03267 0.03665 0.86191 0.0
N158 N 0.04096 0.06038 0.9169 0.0
C159 C 0.03548 0.0448 0.9554 0.0
H160 H 0.04226 0.06419 0.81876 0.0
H161 H 0.02424 0.01652 0.93928 0.0
C162 C 0.05198 0.01969 0.71021 0.0
N163 N 1.00365 1.00074 0.65051 0.0
C164 C 0.01023 0.98425 0.63242 0.0
C165 C 0.98782 1.00488 0.617 0.0
N166 N 0.99897 0.97769 0.58984 0.0
C167 C 0.98487 0.99072 0.57978 0.0
C168 C 0.01192 0.05194 0.69974 0.0
O169 O 0.04912 0.02594 0.76121 0.0
O170 O 0.03791 0.01304 0.68273 0.0
O171 O 1.00839 0.0375 0.67181 0.0
O172 O 0.0184 0.04924 0.75363 0.0
O173 O 0.98744 0.01247 0.74898 0.0
H174 H 0.97857 0.01695 0.62126 0.0
H175 H 0.02247 0.97661 0.65272 0.0
O176 O 0.99888 0.02348 0.83026 0.0
O177 O 0.02932 0.99996 0.83803 0.0
O178 O 0.01713 0.98813 0.75927 0.0
C179 C 0.02468 0.98545 0.81173 0.0
H180 H 0.03393 0.04424 0.0043 0.0
H181 H 0.97303 0.98987 0.5488 0.0
Co182 Co 0.51258 0.02276 0.80604 0.0
C183 C 0.52111 0.98369 0.80421 0.0
Co184 Co 0.52484 0.01579 0.71862 0.0
C185 C 0.48321 0.03246 0.8903 0.0
C186 C 0.50896 0.02278 0.93571 0.0
N187 N 0.50139 0.02726 0.87974 0.0
N188 N 0.47905 0.03098 0.95045 0.0
C189 C 0.49532 0.02505 0.97909 0.0
H190 H 0.47283 0.03607 0.85463 0.0
H191 H 0.52317 0.01716 0.9446 0.0
C192 C 0.51647 0.05485 0.72037 0.0
N193 N 0.53612 0.01108 0.64485 0.0
C194 C 0.5548 1.00793 0.63377 0.0
C195 C 0.52775 0.01195 0.5897 0.0
N196 N 0.55849 1.00706 0.57406 0.0
C197 C 0.54136 1.00943 0.54639 0.0
C198 C 0.48548 0.01345 0.72141 0.0
O199 O 0.511 0.04946 0.77493 0.0
O200 O 0.52278 0.04236 0.68825 0.0
O201 O 0.49994 0.01106 0.68837 0.0
O202 O 0.48802 0.01847 0.77404 0.0
O203 O 0.52686 0.98922 0.75011 0.0
H204 H 0.51281 0.01485 0.58083 0.0
H205 H 0.56567 1.00705 0.66856 0.0
O206 O 0.5143 0.99605 0.8359 0.0
O207 O 0.53751 0.027 0.83724 0.0
O208 O 0.54928 0.02069 0.75011 0.0
C209 C 0.55189 0.02528 0.8032 0.0
H210 H 0.49709 0.02192 0.02793 0.0
H211 H 0.53875 1.00969 0.4981 0.0
Co212 Co 0.53536 0.51869 0.75825 0.0
C213 C 0.51764 0.4936 0.84892 0.0
Co214 Co 0.50378 0.51926 0.75337 0.0
C215 C 0.57308 0.51968 0.81182 0.0
C216 C 0.57415 0.51634 0.71693 0.0
N217 N 0.56187 0.51826 0.7628 0.0
N218 N 0.59188 0.51867 0.7984 0.0
C219 C 0.59256 0.51655 0.73861 0.0
H220 H 0.56749 0.52123 0.85664 0.0
H221 H 0.56998 0.51497 0.67057 0.0
C222 C 0.52149 0.54434 0.66265 0.0
N223 N 0.47729 0.51961 0.74857 0.0
C224 C 0.46634 0.51928 0.69842 0.0
C225 C 0.46477 0.51999 0.79479 0.0
N226 N 0.44744 0.51943 0.71137 0.0
C227 C 0.44647 0.51988 0.77217 0.0
C228 C 0.51899 0.54653 0.82067 0.0
O229 O 0.5367 0.53751 0.68792 0.0
O230 O 0.50541 0.53788 0.68322 0.0
O231 O 0.50342 0.53964 0.80276 0.0
O232 O 0.53472 0.53902 0.80762 0.0
O233 O 0.50246 0.50056 0.82378 0.0
H234 H 0.46872 0.5202 0.84199 0.0
H235 H 0.47222 0.5191 0.65318 0.0
O236 O 0.53375 0.49996 0.82828 0.0
O237 O 0.53566 0.49829 0.70866 0.0
O238 O 0.50439 0.49897 0.70412 0.0
C239 C 0.52007 0.49145 0.6908 0.0
H240 H 0.60544 0.5156 0.71203 0.0
H241 H 0.43348 0.5198 0.79883 0.0
Co242 Co 0.02028 0.53328 0.75966 0.0
C243 C 0.04538 0.51217 0.83733 0.0
Co244 Co 0.02032 0.50228 0.74799 0.0
C245 C 0.01825 0.568 0.81914 0.0
C246 C 0.02206 0.57403 0.72258 0.0
N247 N 0.02017 0.55941 0.76795 0.0
N248 N 0.01884 0.58747 0.80756 0.0
C249 C 0.02129 0.59121 0.74663 0.0
H250 H 0.01623 0.56004 0.86388 0.0
H251 H 0.02391 0.57231 0.67497 0.0
C252 C 0.9951 0.52338 0.67069 0.0
N253 N 0.02047 0.47617 0.73967 0.0
C254 C 0.0218 0.46759 0.68828 0.0
C255 C 0.01904 0.46153 0.78524 0.0
N256 N 0.02113 0.44816 0.70001 0.0
C257 C 0.01939 0.44434 0.76107 0.0
C258 C 0.99303 0.51203 0.8297 0.0
O259 O 1.00145 0.5373 0.69702 0.0
O260 O 1.00206 0.50669 0.68462 0.0
O261 O 0.99982 0.49819 0.80455 0.0
O262 O 1.00034 0.52876 0.81814 0.0
O263 O 0.03873 0.49818 0.81199 0.0
H264 H 0.01779 0.46325 0.83305 0.0
H265 H 0.02289 0.47548 0.64306 0.0
O266 O 0.03889 0.52898 0.8219 0.0
O267 O 0.04041 0.53744 0.70112 0.0
O268 O 0.0406 0.50664 0.69141 0.0
C269 C 0.04764 0.52341 0.67785 0.0
H270 H 0.02269 0.60534 0.72091 0.0
H271 H 0.01863 0.43013 0.78663 0.0
H272 H 0.21761 0.03701 0.43021 0.0
H273 H 0.19001 0.04303 0.49389 0.0
H274 H 0.17754 0.98215 0.52242 0.0
H275 H 0.20518 0.97604 0.46037 0.0
H276 H 0.15248 0.0348 0.47005 0.0
H277 H 0.17282 0.99647 0.69422 0.0
H278 H 0.18992 1.00261 0.63348 0.0
H279 H 0.17499 0.98153 0.63425 0.0
C280 C 0.20923 0.02489 0.45126 0.0
C281 C 0.21357 1.00605 0.44003 0.0
C282 C 0.1934 0.02835 0.48734 0.0
C283 C 0.18178 0.01303 0.51357 0.0
C284 C 0.18644 0.99419 0.50376 0.0
H285 H 0.0626 1.00713 0.60284 0.0
H286 H 0.09446 1.0074 0.55765 0.0
C287 C 0.20216 0.99073 0.46766 0.0
C288 C 0.16393 0.01666 0.54704 0.0
H289 H 0.1393 1.00283 0.67921 0.0
C290 C 0.14971 0.02803 0.51611 0.0
C291 C 0.16034 1.00804 0.60745 0.0
C292 C 0.17541 0.99665 0.64453 0.0
C293 C 0.13173 0.03024 0.54277 0.0
C294 C 0.12772 0.02059 0.60164 0.0
C295 C 0.14225 0.01001 0.63377 0.0
C296 C 0.10832 0.02066 0.62949 0.0
C297 C 0.11715 0.04284 0.50742 0.0
C298 C 0.10551 0.02755 0.68588 0.0
C299 C 0.08723 0.02732 0.71217 0.0
C300 C 0.07143 0.02005 0.68278 0.0
C301 C 0.07437 0.01297 0.62662 0.0
C302 C 0.0926 0.01322 0.60044 0.0
H303 H 0.12406 0.05357 0.47278 0.0
H304 H 0.10752 0.03371 0.4831 0.0
H305 H 0.10833 0.05059 0.53819 0.0
H306 H 0.11744 0.03322 0.70938 0.0
H307 H 0.08551 0.03283 0.75552 0.0
H308 H 0.51805 0.20771 0.36024 0.0
H309 H 0.51172 0.17833 0.42973 0.0
H310 H 0.52526 0.20839 0.5832 0.0
H311 H 0.53154 0.23802 0.51341 0.0
H312 H 0.54612 0.17315 0.57572 0.0
H313 H 0.46799 0.16238 0.55412 0.0
H314 H 0.4803 0.16783 0.48255 0.0
H315 H 0.47953 0.18554 0.53483 0.0
C316 C 0.51933 0.20815 0.40889 0.0
C317 C 0.52529 0.22513 0.43148 0.0
C318 C 0.51561 0.19138 0.44856 0.0
C319 C 0.51786 0.19119 0.51169 0.0
C320 C 0.52329 0.20827 0.53465 0.0
H321 H 0.49942 0.08508 0.76774 0.0
H322 H 0.49915 0.1191 0.72356 0.0
C323 C 0.52679 0.22518 0.49487 0.0
C324 C 0.51629 0.17267 0.5524 0.0
H325 H 0.48603 0.13476 0.59482 0.0
C326 C 0.53291 0.1649 0.58078 0.0
C327 C 0.49904 0.16193 0.55913 0.0
C328 C 0.48063 0.16988 0.53153 0.0
C329 C 0.53294 0.14629 0.6131 0.0
C330 C 0.51593 0.13517 0.61708 0.0
C331 C 0.49908 0.14328 0.59137 0.0
C332 C 0.51579 0.11465 0.64402 0.0
C333 C 0.55127 0.13844 0.64158 0.0
C334 C 0.52502 0.1009 0.61353 0.0
C335 C 0.52507 0.08153 0.63822 0.0
C336 C 0.51597 0.07546 0.69426 0.0
C337 C 0.50663 0.08927 0.72466 0.0
C338 C 0.50643 0.1087 0.69949 0.0
H339 H 0.56191 0.15004 0.646 0.0
H340 H 0.5485 0.13042 0.68737 0.0
H341 H 0.55758 0.12826 0.61251 0.0
H342 H 0.53218 0.10518 0.5704 0.0
H343 H 0.53241 0.07133 0.61351 0.0
H344 H 0.29135 0.53265 0.39963 0.0
H345 H 0.31715 0.53006 0.47513 0.0
H346 H 0.35507 0.50941 0.34401 0.0
H347 H 0.32948 0.51213 0.26841 0.0
H348 H 0.3398 0.49978 0.52578 0.0
H349 H 0.38418 0.55579 0.39103 0.0
H350 H 0.35944 0.55168 0.37353 0.0
H351 H 0.37768 0.5362 0.34981 0.0
C352 C 0.30512 0.52734 0.38719 0.0
C353 C 0.30845 0.52283 0.3278 0.0
C354 C 0.31987 0.52594 0.43027 0.0
C355 C 0.33818 0.52 0.41476 0.0
C356 C 0.34123 0.51457 0.35649 0.0
H357 H 0.44766 0.50685 0.59955 0.0
H358 H 0.42089 0.50653 0.52889 0.0
C359 C 0.32657 0.51607 0.31338 0.0
C360 C 0.35421 0.51985 0.45888 0.0
H361 H 0.39881 0.53845 0.47753 0.0
C362 C 0.35266 0.5083 0.51538 0.0
C363 C 0.371 0.53101 0.44535 0.0
C364 C 0.37316 0.54452 0.38691 0.0
C365 C 0.3676 0.50731 0.55812 0.0
C366 C 0.38442 0.51834 0.54427 0.0
C367 C 0.38595 0.52992 0.4879 0.0
C368 C 0.40056 0.51829 0.58786 0.0
C369 C 0.36542 0.49417 0.61725 0.0
C370 C 0.39811 0.52526 0.64417 0.0
C371 C 0.41344 0.52564 0.68453 0.0
C372 C 0.43161 0.51909 0.66944 0.0
C373 C 0.434 0.51221 0.61267 0.0
C374 C 0.41866 0.5119 0.57226 0.0
H375 H 0.35386 0.48333 0.61475 0.0
H376 H 0.37897 0.48654 0.62968 0.0
H377 H 0.36176 0.50289 0.65424 0.0
H378 H 0.38437 0.53067 0.6566 0.0
H379 H 0.41106 0.53137 0.72713 0.0
H380 H 0.0473 0.31703 0.33629 0.0
H381 H 0.05079 0.34069 0.40897 0.0
H382 H 0.99046 0.35253 0.39541 0.0
H383 H 0.98701 0.3293 0.32232 0.0
H384 H 0.011 0.3852 0.38402 0.0
H385 H 0.03588 0.33714 0.58672 0.0
H386 H 0.05042 0.33662 0.51994 0.0
H387 H 0.02616 0.32799 0.52038 0.0
C388 C 0.03478 0.32453 0.34952 0.0
C389 C 0.0169 0.32138 0.3234 0.0
C390 C 0.03677 0.33801 0.39115 0.0
C391 C 0.02085 0.34832 0.40815 0.0
C392 C 1.00297 0.34485 0.38292 0.0
H393 H 1.00453 0.41282 0.7116 0.0
H394 H 1.00573 0.38919 0.63918 0.0
C395 C 1.00102 0.33157 0.34108 0.0
C396 C 0.0227 0.36328 0.45027 0.0
H397 H 0.03528 0.37052 0.59504 0.0
C398 C 0.01635 0.38199 0.43014 0.0
C399 C 0.02954 0.35908 0.51063 0.0
C400 C 0.03573 0.33909 0.53606 0.0
C401 C 0.01638 0.3965 0.46875 0.0
C402 C 0.02344 0.39238 0.52889 0.0
C403 C 0.03001 0.37373 0.54883 0.0
C404 C 0.02315 0.40686 0.57289 0.0
C405 C 1.00817 0.41589 0.44536 0.0
C406 C 0.03267 0.42467 0.56016 0.0
C407 C 0.03188 0.43831 0.60148 0.0
C408 C 0.02181 0.43428 0.65682 0.0
C409 C 0.01256 0.41632 0.66976 0.0
C410 C 0.01321 0.40279 0.62829 0.0
H411 H 0.99892 0.41512 0.40493 0.0
H412 H 0.99965 0.42173 0.4812 0.0
H413 H 0.02002 0.42613 0.43152 0.0
H414 H 0.04082 0.428 0.51844 0.0
H415 H 0.03942 0.45186 0.59062 0.0
H416 H 0.84387 1.0051 0.16395 0.0
H417 H 0.87161 0.01241 0.09741 0.0
H418 H 0.8369 1.00584 0.94036 0.0
H419 H 0.80891 0.99851 0.00719 0.0
H420 H 0.87179 0.98324 0.95263 0.0
H421 H 0.8854 0.06028 0.9738 0.0
H422 H 0.88163 0.04537 0.04512 0.0
H423 H 0.86248 0.04879 0.99096 0.0
C424 C 0.84207 1.00553 0.11513 0.0
C425 C 0.82424 1.00123 0.09072 0.0
C426 C 0.85792 1.0098 0.07713 0.0
C427 C 0.85631 1.00981 0.01387 0.0
C428 C 0.83841 1.00603 0.98904 0.0
H429 H 0.95055 0.01003 0.74805 0.0
H430 H 0.91865 1.00888 0.79414 0.0
C431 C 0.82244 1.00195 0.02713 0.0
C432 C 0.87373 0.01223 0.97494 0.0
H433 H 0.91086 0.04312 0.93374 0.0
C434 C 0.88022 0.99641 0.94761 0.0
C435 C 0.88475 0.02938 0.96895 0.0
C436 C 0.87818 0.047 0.99578 0.0
C437 C 0.89786 0.99697 0.91673 0.0
C438 C 0.90911 0.01402 0.9117 0.0
C439 C 0.9023 0.03003 0.93762 0.0
C440 C 0.92836 0.01527 0.88241 0.0
C441 C 0.90467 0.97898 0.89244 0.0
C442 C 0.94443 0.01986 0.91587 0.0
C443 C 0.96265 0.02077 0.88942 0.0
C444 C 0.96524 0.0171 0.82879 0.0
C445 C 0.9491 0.01276 0.79501 0.0
C446 C 0.93084 0.01199 0.82144 0.0
H447 H 0.89686 0.96595 0.91362 0.0
H448 H 0.90217 0.98035 0.84254 0.0
H449 H 0.92019 0.97682 0.90064 0.0
H450 H 0.94291 0.02252 0.9629 0.0
H451 H 0.97473 0.02419 0.91679 0.0
H452 H 0.51669 0.8094 0.0885 0.0
H453 H 0.50958 0.84045 0.02849 0.0
H454 H 0.56907 0.84758 0.97916 0.0
H455 H 0.57622 0.81673 0.03875 0.0
H456 H 0.55441 0.87862 0.02922 0.0
H457 H 0.50739 0.8588 0.84441 0.0
H458 H 0.50018 0.84918 0.92028 0.0
H459 H 0.52219 0.84148 0.88954 0.0
C460 C 0.52815 0.81739 0.06365 0.0
C461 C 0.54704 0.81067 0.0688 0.0
C462 C 0.52408 0.83513 0.02934 0.0
C463 C 0.53879 0.84635 0.99912 0.0
C464 C 0.55749 0.83924 0.00218 0.0
H465 H 0.53503 0.95322 0.75056 0.0
H466 H 0.53858 0.91976 0.79707 0.0
C467 C 0.56156 0.82161 0.03642 0.0
C468 C 0.5352 0.86618 0.9687 0.0
H469 H 0.51082 0.89219 0.85278 0.0
C470 C 0.54489 0.88156 0.9906 0.0
C471 C 0.52289 0.87002 0.91801 0.0
C472 C 0.51266 0.85402 0.89117 0.0
C473 C 0.54255 0.90064 0.96359 0.0
C474 C 0.52994 0.90455 0.91372 0.0
C475 C 0.52037 0.88918 0.8913 0.0
C476 C 0.52671 0.92454 0.88433 0.0
C477 C 0.55385 0.91643 0.98807 0.0
C478 C 0.51855 0.93827 0.91755 0.0
C479 C 0.51654 0.95737 0.89124 0.0
C480 C 0.52259 0.96318 0.83091 0.0
C481 C 0.53031 0.94928 0.79716 0.0
C482 C 0.53229 0.93013 0.82359 0.0
H483 H 0.56614 0.91065 0.01614 0.0
H484 H 0.55931 0.92704 0.95034 0.0
H485 H 0.54444 0.92413 0.01728 0.0
H486 H 0.51388 0.93422 0.96418 0.0
H487 H 0.51042 0.96763 0.91851 0.0
H488 H 0.73015 0.57661 0.10089 0.0
H489 H 0.7037 0.56835 0.03717 0.0
H490 H 0.71154 0.50813 0.10025 0.0
H491 H 0.73773 0.51638 0.1662 0.0
H492 H 0.70235 0.54628 0.94407 0.0
H493 H 0.65488 0.51542 0.13377 0.0
H494 H 0.67615 0.52913 0.14614 0.0
H495 H 0.67796 0.50443 0.13247 0.0
C496 C 0.72617 0.5616 0.10178 0.0
C497 C 0.73591 0.54718 0.13945 0.0
C498 C 0.7111 0.55689 0.06491 0.0
C499 C 0.70537 0.53765 0.06468 0.0
C500 C 0.71543 0.52311 0.10064 0.0
H501 H 0.62691 0.50295 0.78945 0.0
H502 H 0.65459 0.50646 0.85446 0.0
C503 C 0.73055 0.52783 0.13777 0.0
C504 C 0.68885 0.53308 0.02657 0.0
H505 H 0.64364 0.51405 0.03361 0.0
C506 C 0.68955 0.53915 0.96361 0.0
C507 C 0.67203 0.52403 0.05222 0.0
C508 C 0.67004 0.51801 0.11991 0.0
C509 C 0.67391 0.53652 0.92567 0.0
C510 C 0.6572 0.52719 0.95114 0.0
C511 C 0.6565 0.52107 0.01407 0.0
C512 C 0.64011 0.52421 0.9134 0.0
C513 C 0.67523 0.54432 0.85898 0.0
C514 C 0.62253 0.53243 0.9261 0.0
C515 C 0.60662 0.53036 0.88908 0.0
C516 C 0.60796 0.52002 0.83859 0.0
C517 C 0.62547 0.51136 0.82709 0.0
C518 C 0.64133 0.51335 0.86426 0.0
H519 H 0.68679 0.55528 0.85009 0.0
H520 H 0.67843 0.53235 0.83209 0.0
H521 H 0.66154 0.55091 0.84239 0.0
H522 H 0.62124 0.54081 0.96392 0.0
H523 H 0.59343 0.53732 0.89907 0.0
H524 H 0.99793 0.69134 0.24715 0.0
H525 H 1.005 0.66707 0.17974 0.0
H526 H 1.00505 0.71112 0.02484 0.0
H527 H 0.99837 0.7355 0.09235 0.0
H528 H 0.98342 0.65649 0.09061 0.0
H529 H 0.05291 0.68296 0.99188 0.0
H530 H 0.04253 0.69207 0.05729 0.0
H531 H 0.03467 0.70091 0.98153 0.0
C532 C 0.99966 0.69587 0.19877 0.0
C533 C 0.99763 0.71534 0.17506 0.0
C534 C 1.00372 0.68199 0.16028 0.0
C535 C 1.0058 0.68724 0.09717 0.0
C536 C 1.00402 0.70673 0.07346 0.0
H537 H 1.00996 0.62548 0.78267 0.0
H538 H 1.00747 0.64902 0.85468 0.0
C539 C 1.00015 0.72067 0.11208 0.0
C540 C 1.00859 0.67214 0.05607 0.0
H541 H 0.03695 0.65889 0.94237 0.0
C542 C 0.99525 0.65693 0.05867 0.0
C543 C 0.02402 0.67267 0.01426 0.0
C544 C 0.03945 0.68792 0.0114 0.0
C545 C 0.99666 0.64255 0.01982 0.0
C546 C 0.01186 0.64331 0.97738 0.0
C547 C 0.02528 0.65839 0.97492 0.0
C548 C 0.01375 0.62883 0.93406 0.0
C549 C 0.98161 0.6269 0.0233 0.0
C550 C 0.01828 0.60963 0.95475 0.0
C551 C 0.01996 0.59606 0.91348 0.0
C552 C 0.0171 0.6014 0.85057 0.0
C553 C 0.01257 0.62074 0.83033 0.0
C554 C 0.01103 0.63428 0.87155 0.0
H555 H 0.96906 0.6302 0.05095 0.0
H556 H 0.97668 0.62474 0.97689 0.0
H557 H 0.98785 0.61315 0.04451 0.0
H558 H 0.02066 0.60518 0.00282 0.0
H559 H 0.02373 0.58147 0.931 0.0
H560 H 0.05524 0.20076 0.37198 0.0
H561 H 0.04922 0.17511 0.45506 0.0
H562 H 0.99437 0.19968 0.48774 0.0
H563 H 1.00004 0.22504 0.40232 0.0
H564 H 0.04063 0.1703 0.57429 0.0
H565 H 0.97916 0.14786 0.43953 0.0
H566 H 0.99569 0.16654 0.40954 0.0
H567 H 0.97747 0.17146 0.46285 0.0
C568 C 0.04207 0.20094 0.39779 0.0
C569 C 0.02795 0.21463 0.38006 0.0
C570 C 0.03865 0.18629 0.44533 0.0
C571 C 0.02109 0.18514 0.47634 0.0
C572 C 1.00779 0.20001 0.4632 0.0
H573 H 1.00849 0.08445 0.75466 0.0
H574 H 1.00803 0.11773 0.70598 0.0
C575 C 0.01115 0.21464 0.41503 0.0
C576 C 0.01625 0.16728 0.51708 0.0
H577 H 0.98722 0.12754 0.52775 0.0
C578 C 0.0288 0.16104 0.56475 0.0
C579 C 1.00099 0.15508 0.50369 0.0
C580 C 0.98762 0.16042 0.45087 0.0
C581 C 0.02699 0.14266 0.5979 0.0
C582 C 0.01178 0.13043 0.58429 0.0
C583 C 0.9988 0.13697 0.53821 0.0
C584 C 1.00994 0.11029 0.614 0.0
C585 C 0.04205 0.13617 0.64464 0.0
C586 C 1.00998 0.09499 0.57835 0.0
C587 C 1.00975 0.0759 0.60602 0.0
C588 C 1.00967 0.07184 0.66981 0.0
C589 C 1.0088 0.08717 0.70532 0.0
C590 C 1.0087 0.1062 0.67763 0.0
H591 H 0.0552 0.1452 0.6382 0.0
H592 H 0.03638 0.13737 0.69092 0.0
H593 H 0.04603 0.12095 0.64245 0.0
H594 H 0.01082 0.0978 0.5291 0.0
H595 H 0.01044 0.06439 0.57757 0.0
H596 H 0.32598 0.05273 0.46583 0.0
H597 H 0.35358 0.04896 0.53413 0.0
H598 H 0.34803 0.98721 0.54505 0.0
H599 H 0.32002 0.99099 0.47838 0.0
H600 H 0.36204 0.99895 0.65246 0.0
H601 H 0.40187 0.03332 0.44993 0.0
H602 H 0.38343 0.04827 0.47464 0.0
H603 H 0.37719 0.02603 0.44636 0.0
C604 C 0.33018 0.03839 0.4851 0.0
C605 C 0.32095 0.02214 0.46716 0.0
C606 C 0.34606 0.03623 0.5234 0.0
C607 C 0.35318 0.01781 0.54304 0.0
C608 C 0.34284 1.00155 0.53001 0.0
H609 H 0.47426 0.9994 0.61653 0.0
H610 H 0.44178 0.99802 0.5763 0.0
C611 C 0.32677 1.00371 0.49235 0.0
C612 C 0.37248 0.01556 0.57042 0.0
H613 H 0.41935 0.02719 0.54171 0.0
C614 C 0.3746 1.00509 0.62835 0.0
C615 C 0.38892 0.02308 0.53801 0.0
C616 C 0.38783 0.03312 0.47356 0.0
C617 C 0.39269 1.00241 0.65551 0.0
C618 C 0.40899 0.01081 0.62436 0.0
C619 C 0.40686 0.02087 0.56584 0.0
C620 C 0.42838 1.00985 0.65173 0.0
C621 C 0.39414 0.99032 0.71674 0.0
C622 C 0.43168 0.01689 0.70754 0.0
C623 C 0.45016 0.01749 0.73088 0.0
C624 C 0.46582 0.0114 0.69834 0.0
C625 C 0.46251 1.0042 0.64269 0.0
C626 C 0.44395 1.0034 0.61968 0.0
H627 H 0.38203 0.97994 0.72442 0.0
H628 H 0.40772 0.98218 0.72102 0.0
H629 H 0.39364 0.99985 0.75324 0.0
H630 H 0.42004 0.02248 0.73229 0.0
H631 H 0.4522 0.02327 0.77366 0.0
H632 H 0.54346 0.33082 0.47381 0.0
H633 H 0.54465 0.35713 0.53724 0.0
H634 H 0.48378 0.36446 0.51705 0.0
H635 H 0.48266 0.33841 0.45281 0.0
H636 H 0.50517 0.39638 0.4703 0.0
H637 H 0.52853 0.3703 0.70587 0.0
H638 H 0.54273 0.36212 0.64646 0.0
H639 H 0.51823 0.3545 0.65577 0.0
C640 C 0.53022 0.33739 0.48566 0.0
C641 C 0.51296 0.3326 0.45884 0.0
C642 C 0.53091 0.35248 0.52171 0.0
C643 C 0.51429 0.36277 0.53179 0.0
C644 C 0.49675 0.35669 0.50988 0.0
H645 H 0.48922 0.4734 0.64734 0.0
H646 H 0.48846 0.44232 0.60802 0.0
C647 C 0.49609 0.34173 0.47365 0.0
C648 C 0.51562 0.38171 0.55509 0.0
H649 H 0.52902 0.40423 0.67692 0.0
C650 C 0.51024 0.39807 0.5157 0.0
C651 C 0.52257 0.3839 0.61382 0.0
C652 C 0.52822 0.36678 0.65823 0.0
C653 C 0.51163 0.41658 0.53332 0.0
C654 C 0.51829 0.41878 0.59237 0.0
C655 C 0.5239 0.40247 0.63165 0.0
C656 C 0.51898 0.43789 0.61463 0.0
C657 C 0.50628 0.43366 0.48813 0.0
C658 C 0.5364 0.44567 0.63165 0.0
C659 C 0.5369 0.46348 0.6542 0.0
C660 C 0.51995 0.47373 0.66057 0.0
C661 C 0.50256 0.46597 0.64264 0.0
C662 C 0.50209 0.4482 0.62009 0.0
H663 H 0.50653 0.43009 0.44053 0.0
H664 H 0.49157 0.4382 0.49817 0.0
H665 H 0.51609 0.44602 0.49139 0.0
H666 H 0.54958 0.4379 0.62782 0.0
H667 H 0.55051 0.46898 0.668 0.0
H668 H 0.19245 0.4886 0.4005 0.0
H669 H 0.16827 0.49515 0.47502 0.0
H670 H 0.18437 0.55523 0.45061 0.0
H671 H 0.20856 0.5487 0.37522 0.0
H672 H 0.16644 0.51344 0.58408 0.0
H673 H 0.12876 0.55389 0.38675 0.0
H674 H 0.14892 0.53867 0.37681 0.0
H675 H 0.15254 0.56176 0.40256 0.0
C676 C 0.19126 0.50307 0.41268 0.0
C677 C 0.20222 0.51817 0.38212 0.0
C678 C 0.17744 0.50682 0.45508 0.0
C679 C 0.1743 0.52573 0.46728 0.0
C680 C 0.18644 0.54058 0.44107 0.0
H681 H 0.06779 0.55686 0.64446 0.0
H682 H 0.09946 0.56006 0.59627 0.0
C683 C 0.20036 0.53681 0.39863 0.0
C684 C 0.15685 0.52989 0.5011 0.0
H685 H 0.11185 0.54793 0.47875 0.0
C686 C 0.15462 0.52128 0.56149 0.0
C687 C 0.14142 0.54006 0.47126 0.0
C688 C 0.14285 0.54905 0.40567 0.0
C689 C 0.13711 0.52199 0.59213 0.0
C690 C 0.12144 0.5313 0.5612 0.0
C691 C 0.12394 0.54079 0.50206 0.0
C692 C 0.10199 0.52976 0.58748 0.0
C693 C 0.13531 0.51232 0.65683 0.0
C694 C 0.09273 0.5118 0.59618 0.0
C695 C 0.07465 0.50993 0.62294 0.0
C696 C 0.06547 0.52603 0.64165 0.0
C697 C 0.07448 0.54418 0.6306 0.0
C698 C 0.09258 0.54604 0.6034 0.0
H699 H 0.14948 0.51032 0.67916 0.0
H700 H 0.12613 0.52083 0.68439 0.0
H701 H 0.1286 0.49791 0.65658 0.0
H702 H 0.09964 0.49914 0.58297 0.0
H703 H 0.06812 0.49575 0.63059 0.0
H704 H 0.99537 0.81602 0.08638 0.0
H705 H 0.99901 0.84245 0.00345 0.0
H706 H 0.05476 0.85547 0.07101 0.0
H707 H 0.05131 0.82891 0.15318 0.0
H708 H 1.00219 0.87884 0.03827 0.0
H709 H 0.06253 0.86579 0.88634 0.0
H710 H 0.05048 0.84658 0.93431 0.0
H711 H 0.06827 0.86112 0.96591 0.0
C712 C 1.00876 0.82393 0.08173 0.0
C713 C 0.02303 0.82053 0.12622 0.0
C714 C 0.01077 0.83911 0.03463 0.0
C715 C 0.02715 0.85092 0.03108 0.0
C716 C 0.04214 0.84638 0.07223 0.0
H717 H 0.0345 0.97379 0.93051 0.0
H718 H 0.036 0.94063 0.98126 0.0
C719 C 0.04012 0.83126 0.11933 0.0
C720 C 0.02715 0.86979 0.99249 0.0
H721 H 0.0528 0.8987 0.88534 0.0
C722 C 0.01311 0.88308 0.00424 0.0
C723 C 0.04145 0.87531 0.94836 0.0
C724 C 0.05644 0.86139 0.93249 0.0
C725 C 0.01328 0.90192 0.97425 0.0
C726 C 0.028 0.90768 0.93194 0.0
C727 C 0.04171 0.89427 0.91861 0.0
C728 C 0.02899 0.92754 0.90033 0.0
C729 C 0.99772 0.91556 0.98811 0.0
C730 C 0.02507 0.93103 0.83789 0.0
C731 C 0.02413 0.94988 0.80891 0.0
C732 C 0.02726 0.96559 0.84187 0.0
C733 C 0.03197 0.96201 0.90398 0.0
C734 C 0.03279 0.94311 0.93302 0.0
H735 H 0.9854 0.90783 0.01201 0.0
H736 H 1.00353 0.92584 0.01789 0.0
H737 H 0.99251 0.92399 0.94555 0.0
H738 H 0.02212 0.91917 0.81199 0.0
H739 H 0.0206 0.95213 0.76087 0.0
H740 H 0.70902 0.98779 0.0517 0.0
H741 H 0.68232 0.99287 0.98101 0.0
H742 H 0.69416 0.05397 0.9571 0.0
H743 H 0.72039 0.04883 0.03064 0.0
H744 H 0.65924 0.04829 0.98902 0.0
H745 H 0.67166 1.0036 0.80485 0.0
H746 H 0.67411 0.98909 0.87696 0.0
H747 H 0.69045 1.00889 0.85615 0.0
C748 C 0.70645 1.00217 0.02902 0.0
C749 C 0.71689 0.01789 0.04541 0.0
C750 C 0.69116 1.0051 0.98854 0.0
C751 C 0.68626 0.02381 0.96292 0.0
C752 C 0.69768 0.0394 0.97597 0.0
H753 H 0.58392 0.03301 0.73409 0.0
H754 H 0.61681 0.03544 0.76907 0.0
C755 C 0.71279 0.03648 0.01734 0.0
C756 C 0.66769 0.02722 0.93089 0.0
H757 H 0.63835 1.00974 0.82723 0.0
C758 C 0.65484 0.04013 0.95272 0.0
C759 C 0.66189 0.01683 0.88299 0.0
C760 C 0.67538 1.00401 0.85353 0.0
C761 C 0.63617 0.04225 0.9301 0.0
C762 C 0.62986 0.03061 0.88599 0.0
C763 C 0.64299 0.01842 0.86195 0.0
C764 C 0.60968 0.03048 0.86513 0.0
C765 C 0.62347 0.05701 0.95382 0.0
C766 C 0.59461 0.02695 0.90739 0.0
C767 C 0.57571 0.02594 0.88748 0.0
C768 C 0.57158 0.02791 0.82489 0.0
C769 C 0.58665 0.03141 0.78268 0.0
C770 C 0.60548 0.03277 0.80259 0.0
H771 H 0.63202 0.06897 0.969 0.0
H772 H 0.61318 0.06318 0.91866 0.0
H773 H 0.61533 0.05009 0.99391 0.0
H774 H 0.59748 0.02451 0.95582 0.0
H775 H 0.56442 0.02296 0.92101 0.0
H776 H 0.49008 0.69773 0.07279 0.0
H777 H 0.48943 0.67179 0.00791 0.0
H778 H 0.54888 0.68238 0.96348 0.0
H779 H 0.5496 0.70835 0.02841 0.0
H780 H 0.50348 0.66649 0.87782 0.0
H781 H 0.54297 0.6276 0.07377 0.0
H782 H 0.52963 0.64922 0.08036 0.0
H783 H 0.55222 0.65071 0.04151 0.0
C784 C 0.50277 0.69505 0.04704 0.0
C785 C 0.51991 0.70495 0.05567 0.0
C786 C 0.5024 0.68022 0.01021 0.0
C787 C 0.51918 0.67505 0.9818 0.0
C788 C 0.53581 0.68617 0.98534 0.0
H789 H 0.54987 0.5672 0.85232 0.0
H790 H 0.54987 0.59872 0.88893 0.0
C791 C 0.53617 0.7011 0.02196 0.0
C792 C 0.51998 0.65638 0.95716 0.0
H793 H 0.53566 0.61029 0.99234 0.0
C794 C 0.51058 0.65419 0.90249 0.0
C795 C 0.52917 0.6404 0.9899 0.0
C796 C 0.539 0.64192 0.04987 0.0
C797 C 0.51032 0.63638 0.87924 0.0
C798 C 0.51927 0.6203 0.91254 0.0
C799 C 0.52878 0.6226 0.96699 0.0
C800 C 0.51907 0.60094 0.89175 0.0
C801 C 0.50077 0.63505 0.81878 0.0
C802 C 0.50175 0.59143 0.88306 0.0
C803 C 0.50169 0.57338 0.86207 0.0
C804 C 0.51897 0.56444 0.84999 0.0
C805 C 0.5363 0.57367 0.86116 0.0
C806 C 0.53633 0.59174 0.88186 0.0
H807 H 0.49948 0.64942 0.79153 0.0
H808 H 0.5088 0.62544 0.7916 0.0
H809 H 0.48615 0.62903 0.82697 0.0
H810 H 0.48826 0.59801 0.89215 0.0
H811 H 0.4881 0.56663 0.8542 0.0
H812 H 0.8511 0.49041 0.18887 0.0
H813 H 0.87588 0.48655 0.11446 0.0
H814 H 0.85285 0.53413 0.99456 0.0
H815 H 0.82922 0.53945 0.07222 0.0
H816 H 0.88219 0.48001 0.00734 0.0
H817 H 0.90375 0.55604 0.01768 0.0
H818 H 0.88497 0.54453 0.06482 0.0
H819 H 0.88039 0.55373 0.98636 0.0
C820 C 0.85125 0.50006 0.14657 0.0
C821 C 0.8387 0.51577 0.13774 0.0
C822 C 0.86536 0.49772 0.10364 0.0
C823 C 0.86687 0.51065 0.04997 0.0
C824 C 0.8526 0.52458 0.03699 0.0
H825 H 0.96151 0.49262 0.80087 0.0
H826 H 0.93022 0.49187 0.85023 0.0
C827 C 0.83881 0.52736 0.081 0.0
C828 C 0.8844 0.51052 0.01173 0.0
H829 H 0.92195 0.53863 0.95479 0.0
C830 C 0.89089 0.49285 0.99583 0.0
C831 C 0.89602 0.52719 0.99769 0.0
C832 C 0.89105 0.54638 0.01802 0.0
C833 C 0.90882 0.49122 0.9683 0.0
C834 C 0.92015 0.50799 0.95279 0.0
C835 C 0.91334 0.52575 0.96671 0.0
C836 C 0.93934 0.50758 0.9238 0.0
C837 C 0.9157 0.47138 0.95929 0.0
C838 C 0.95488 0.51722 0.94718 0.0
C839 C 0.97256 0.51837 0.9174 0.0
C840 C 0.97518 0.50935 0.86489 0.0
C841 C 0.9599 0.49926 0.84234 0.0
C842 C 0.94203 0.49872 0.87079 0.0
H843 H 0.90865 0.46007 0.99172 0.0
H844 H 0.91206 0.4684 0.91251 0.0
H845 H 0.93139 0.47011 0.96546 0.0
H846 H 0.95324 0.52421 0.98794 0.0
H847 H 0.98414 0.52638 0.93513 0.0
H848 H 0.05913 0.22825 0.1166 0.0
H849 H 0.06342 0.2048 0.04308 0.0
H850 H 0.01369 0.1734 0.11766 0.0
H851 H 1.00929 0.19674 0.18951 0.0
H852 H 0.07058 0.16656 0.0727 0.0
H853 H 1.00434 0.17408 0.93797 0.0
H854 H 0.01217 0.19214 0.98436 0.0
H855 H 0.99884 0.17131 0.01781 0.0
C856 C 0.04887 0.21662 0.11575 0.0
C857 C 0.03386 0.21427 0.15836 0.0
C858 C 0.05136 0.2032 0.07416 0.0
C859 C 0.03871 0.18746 0.07422 0.0
C860 C 0.02336 0.18563 0.11549 0.0
H861 H 0.05157 0.07045 0.02693 0.0
H862 H 0.05353 0.10282 0.0561 0.0
C863 C 0.02092 0.1989 0.15685 0.0
C864 C 0.04232 0.17176 0.03616 0.0
H865 H 0.01916 0.14252 0.94721 0.0
C866 C 0.05951 0.16154 0.0441 0.0
C867 C 0.02807 0.16534 0.99791 0.0
C868 C 1.00992 0.17645 0.9835 0.0
C869 C 0.06224 0.14436 0.01845 0.0
C870 C 0.0472 0.13695 0.9852 0.0
C871 C 0.0306 0.14793 0.97358 0.0
C872 C 0.04774 0.11732 0.96577 0.0
C873 C 0.08112 0.13421 0.02809 0.0
C874 C 0.04349 0.11452 0.90544 0.0
C875 C 0.04189 0.09591 0.88884 0.0
C876 C 0.04448 0.07961 0.9323 0.0
C877 C 0.04929 0.08254 0.99228 0.0
C878 C 0.05072 0.10113 0.0089 0.0
H879 H 0.09289 0.14463 0.03322 0.0
H880 H 0.08042 0.12403 0.07073 0.0
H881 H 0.08464 0.12602 0.98967 0.0
H882 H 0.04096 0.12675 0.87138 0.0
H883 H 0.03792 0.09442 0.84242 0.0
H884 H 0.318 1.00484 0.21969 0.0
H885 H 0.34465 1.00802 0.14679 0.0
H886 H 0.35417 0.06646 0.18327 0.0
H887 H 0.32798 0.06304 0.25773 0.0
H888 H 0.35685 0.03134 0.04411 0.0
H889 H 0.40345 0.0406 0.24135 0.0
H890 H 0.37859 0.03397 0.25021 0.0
H891 H 0.38542 0.05868 0.2278 0.0
C892 C 0.32539 0.01856 0.21052 0.0
C893 C 0.32102 0.03368 0.24436 0.0
C894 C 0.34068 0.02034 0.16915 0.0
C895 C 0.35176 0.0373 0.16083 0.0
C896 C 0.34616 0.05307 0.19014 0.0
H897 H 0.44995 0.05435 0.90804 0.0
H898 H 0.41845 0.05679 0.95535 0.0
C899 C 0.33107 0.0512 0.23211 0.0
C900 C 0.3702 0.03775 0.12693 0.0
H901 H 0.41835 0.04289 0.14505 0.0
C902 C 0.37031 0.03394 0.066 0.0
C903 C 0.38781 0.04075 0.15595 0.0
C904 C 0.38891 0.04354 0.22256 0.0
C905 C 0.38752 0.03308 0.03335 0.0
C906 C 0.40508 0.03652 0.06205 0.0
C907 C 0.40491 0.04042 0.12283 0.0
C908 C 0.42395 0.03503 0.03169 0.0
C909 C 0.38677 0.02781 0.96924 0.0
C910 C 0.43772 0.02237 0.0594 0.0
C911 C 0.45575 0.02118 0.03301 0.0
C912 C 0.46049 0.0326 0.97803 0.0
C913 C 0.44668 0.04525 0.95008 0.0
C914 C 0.42863 0.04657 0.97692 0.0
H915 H 0.37298 0.02079 0.95988 0.0
H916 H 0.38828 0.04107 0.93642 0.0
H917 H 0.39859 0.01795 0.96088 0.0
H918 H 0.43449 0.01329 0.10159 0.0
H919 H 0.46587 0.01104 0.05526 0.0
H920 H 0.53921 0.33551 0.2047 0.0
H921 H 0.53883 0.36314 0.12471 0.0
H922 H 0.48075 0.37511 0.17268 0.0
H923 H 0.4813 0.34787 0.25372 0.0
H924 H 0.51742 0.3755 0.02401 0.0
H925 H 0.50785 0.42445 0.20072 0.0
H926 H 0.51321 0.39926 0.21951 0.0
H927 H 0.48917 0.40675 0.20092 0.0
C928 C 0.52621 0.34375 0.19699 0.0
C929 C 0.51032 0.33966 0.23548 0.0
C930 C 0.52604 0.3596 0.1516 0.0
C931 C 0.50996 0.37154 0.14393 0.0
C932 C 0.49352 0.36646 0.17899 0.0
H933 H 0.48583 0.4777 0.90839 0.0
H934 H 0.48394 0.44806 0.98004 0.0
C935 C 0.49376 0.35078 0.22477 0.0
C936 C 0.51077 0.38988 0.10202 0.0
H937 H 0.50639 0.43868 0.09775 0.0
C938 C 0.51505 0.38931 0.04016 0.0
C939 C 0.50785 0.40795 0.12324 0.0
C940 C 0.50446 0.40972 0.1898 0.0
C941 C 0.51615 0.40626 0.99887 0.0
C942 C 0.51298 0.42422 0.02007 0.0
C943 C 0.50869 0.42484 0.08173 0.0
C944 C 0.51428 0.44258 0.97888 0.0
C945 C 0.52051 0.40492 0.93268 0.0
C946 C 0.53204 0.44955 0.95596 0.0
C947 C 0.53322 0.46657 0.91562 0.0
C948 C 0.51661 0.47689 0.89719 0.0
C949 C 0.49888 0.47012 0.92163 0.0
C950 C 0.49776 0.45316 0.96241 0.0
H951 H 0.51944 0.38989 0.92163 0.0
H952 H 0.51058 0.41407 0.9028 0.0
H953 H 0.53525 0.41029 0.92209 0.0
H954 H 0.54498 0.44168 0.9688 0.0
H955 H 0.54709 0.47133 0.8976 0.0
H956 H 0.20493 0.52827 0.10821 0.0
H957 H 0.17815 0.52587 0.038 0.0
H958 H 0.15711 0.47561 0.15183 0.0
H959 H 0.18376 0.47796 0.22213 0.0
H960 H 0.16167 0.49596 0.97264 0.0
H961 H 0.11476 0.51677 0.15652 0.0
H962 H 0.14044 0.51905 0.15859 0.0
H963 H 0.1292 0.49591 0.1777 0.0
C964 C 0.19495 0.51634 0.11711 0.0
C965 C 0.19631 0.5034 0.17087 0.0
C966 C 0.1796 0.51506 0.0772 0.0
C967 C 0.16545 0.50082 0.09052 0.0
C968 C 0.1677 0.48691 0.14136 0.0
H969 H 0.0661 0.47933 0.86807 0.0
H970 H 0.09523 0.47584 0.92953 0.0
C971 C 0.18296 0.48822 0.18127 0.0
C972 C 0.14747 0.5016 0.05492 0.0
H973 H 0.09958 0.50954 0.06679 0.0
C974 C 0.14807 0.49885 0.99314 0.0
C975 C 0.1298 0.5057 0.08166 0.0
C976 C 0.12842 0.5097 0.1471 0.0
C977 C 0.1314 0.49989 0.95751 0.0
C978 C 0.11368 0.50359 0.98467 0.0
C979 C 0.11314 0.5065 0.04629 0.0
C980 C 0.09563 0.50534 0.94938 0.0
C981 C 0.13292 0.4975 0.89076 0.0
C982 C 0.08582 0.52287 0.94205 0.0
C983 C 0.06913 0.5249 0.90735 0.0
C984 C 0.06182 0.50936 0.87959 0.0
C985 C 0.07133 0.49159 0.88879 0.0
C986 C 0.08808 0.48961 0.9234 0.0
H987 H 0.14791 0.49896 0.87406 0.0
H988 H 0.12762 0.48296 0.88374 0.0
H989 H 0.12403 0.50829 0.86279 0.0
H990 H 0.09132 0.53515 0.96213 0.0
H991 H 0.06218 0.53877 0.90127 0.0
H992 H 0.98178 0.82013 0.35406 0.0
H993 H 0.98 0.84683 0.41607 0.0
H994 H 0.04142 0.85228 0.41047 0.0
H995 H 0.04314 0.82603 0.34692 0.0
H996 H 0.99478 0.85689 0.52416 0.0
H997 H 0.02456 0.90404 0.32533 0.0
H998 H 0.01699 0.87959 0.32069 0.0
H999 H 0.03988 0.88443 0.35263 0.0
C1000 C 0.9949 0.82663 0.36785 0.0
C1001 C 0.01259 0.82111 0.34572 0.0
C1002 C 0.99388 0.84196 0.40288 0.0
C1003 C 0.01054 0.85191 0.4164 0.0
C1004 C 0.02834 0.84516 0.39918 0.0
H1005 H 0.03152 0.95839 0.57218 0.0
H1006 H 0.03428 0.92718 0.53357 0.0
C1007 C 0.02935 0.83003 0.36356 0.0
C1008 C 1.00921 0.87027 0.44353 0.0
H1009 H 0.01998 0.9183 0.41579 0.0
C1010 C 1.00028 0.87031 0.50049 0.0
C1011 C 0.01619 0.88786 0.41225 0.0
C1012 C 0.02477 0.88909 0.3491 0.0
C1013 C 0.99849 0.88741 0.52745 0.0
C1014 C 1.0057 0.90488 0.49643 0.0
C1015 C 0.01461 0.90484 0.4396 0.0
C1016 C 1.00388 0.92348 0.52153 0.0
C1017 C 0.98912 0.88666 0.58922 0.0
C1018 C 0.9859 0.93186 0.52669 0.0
C1019 C 0.98429 0.94973 0.54837 0.0
C1020 C 1.00065 0.95956 0.5655 0.0
C1021 C 0.01865 0.95112 0.55999 0.0
C1022 C 0.02025 0.93332 0.53783 0.0
H1023 H 0.98785 0.87169 0.61243 0.0
H1024 H 0.99734 0.89544 0.61888 0.0
H1025 H 0.97456 0.89277 0.58366 0.0
H1026 H 0.97312 0.92463 0.51348 0.0
H1027 H 0.97021 0.9557 0.55263 0.0
H1028 H 0.70363 0.04161 0.24403 0.0
H1029 H 0.67844 0.03904 0.32156 0.0
H1030 H 0.69558 0.98087 0.38358 0.0
H1031 H 0.72077 0.98334 0.30553 0.0
H1032 H 0.65701 0.98446 0.35048 0.0
H1033 H 0.67632 0.03717 0.50806 0.0
H1034 H 0.6777 0.04689 0.42905 0.0
H1035 H 0.69355 0.02787 0.45837 0.0
C1036 C 0.70236 0.02847 0.27533 0.0
C1037 C 0.71417 0.01268 0.26879 0.0
C1038 C 0.68801 0.02704 0.31981 0.0
C1039 C 0.68519 1.0098 0.35866 0.0
C1040 C 0.69759 0.99434 0.35432 0.0
H1041 H 0.59207 0.99509 0.62865 0.0
H1042 H 0.62347 0.99448 0.58053 0.0
C1043 C 0.71207 0.99582 0.31005 0.0
C1044 C 0.66792 1.00726 0.39812 0.0
H1045 H 0.64348 0.0269 0.50905 0.0
C1046 C 0.65418 0.99355 0.3858 0.0
C1047 C 0.66426 0.01905 0.44433 0.0
C1048 C 0.67881 0.03346 0.46125 0.0
C1049 C 0.63656 0.99188 0.41658 0.0
C1050 C 0.63251 1.00435 0.46054 0.0
C1051 C 0.64656 0.01748 0.47489 0.0
C1052 C 0.61344 1.00455 0.48987 0.0
C1053 C 0.62228 0.97698 0.40125 0.0
C1054 C 0.59739 0.01055 0.45492 0.0
C1055 C 0.57942 0.01116 0.48228 0.0
C1056 C 0.57702 1.00574 0.54543 0.0
C1057 C 0.59322 0.99961 0.5802 0.0
C1058 C 0.61124 0.99915 0.55275 0.0
H1059 H 0.62917 0.96559 0.37814 0.0
H1060 H 0.61489 0.97012 0.44299 0.0
H1061 H 0.61134 0.98407 0.37008 0.0
H1062 H 0.59884 0.01506 0.40642 0.0
H1063 H 0.56754 0.01628 0.45379 0.0
H1064 H 0.49244 0.69148 0.26727 0.0
H1065 H 0.49222 0.66444 0.3489 0.0
H1066 H 0.5517 0.67502 0.38413 0.0
H1067 H 0.55185 0.7023 0.30316 0.0
H1068 H 0.51383 0.63279 0.34336 0.0
H1069 H 0.53069 0.66404 0.55582 0.0
H1070 H 0.52302 0.67858 0.4871 0.0
H1071 H 0.5474 0.67075 0.49503 0.0
C1072 C 0.50529 0.68838 0.29378 0.0
C1073 C 0.52214 0.69902 0.27909 0.0
C1074 C 0.50518 0.67289 0.34019 0.0
C1075 C 0.52192 0.66769 0.37286 0.0
C1076 C 0.53851 0.67895 0.36049 0.0
H1077 H 0.55286 0.56581 0.62125 0.0
H1078 H 0.55346 0.59537 0.54906 0.0
C1079 C 0.53858 0.69458 0.31426 0.0
C1080 C 0.52247 0.64934 0.41473 0.0
H1081 H 0.53218 0.62988 0.56086 0.0
C1082 C 0.51772 0.63219 0.39103 0.0
C1083 C 0.52774 0.64852 0.47676 0.0
C1084 C 0.53234 0.66646 0.50544 0.0
C1085 C 0.51818 0.61429 0.42744 0.0
C1086 C 0.52333 0.61348 0.48948 0.0
C1087 C 0.52827 0.63056 0.51318 0.0
C1088 C 0.52312 0.59508 0.5309 0.0
C1089 C 0.51342 0.59633 0.399 0.0
C1090 C 0.50588 0.58507 0.54429 0.0
C1091 C 0.50547 0.56819 0.5854 0.0
C1092 C 0.52232 0.56099 0.61408 0.0
C1093 C 0.53965 0.57086 0.59965 0.0
C1094 C 0.54001 0.58782 0.5587 0.0
H1095 H 0.51445 0.5988 0.34846 0.0
H1096 H 0.52308 0.58436 0.41613 0.0
H1097 H 0.49856 0.59175 0.41136 0.0
H1098 H 0.49264 0.59055 0.52396 0.0
H1099 H 0.49187 0.56103 0.59571 0.0
H1100 H 0.83832 0.55929 0.35656 0.0
H1101 H 0.8641 0.56133 0.43083 0.0
H1102 H 0.87468 0.50064 0.43271 0.0
H1103 H 0.8488 0.49849 0.35976 0.0
H1104 H 0.87861 0.5132 0.54757 0.0
H1105 H 0.91936 0.55979 0.3688 0.0
H1106 H 0.89634 0.56851 0.38818 0.0
H1107 H 0.89795 0.54698 0.35195 0.0
C1108 C 0.84575 0.5463 0.37445 0.0
C1109 C 0.84168 0.52876 0.35217 0.0
C1110 C 0.86063 0.54751 0.41618 0.0
C1111 C 0.87162 0.53122 0.43606 0.0
C1112 C 0.86651 0.51342 0.41761 0.0
H1113 H 0.97637 0.49603 0.61471 0.0
H1114 H 0.94615 0.49938 0.5595 0.0
C1115 C 0.85171 0.5122 0.37602 0.0
C1116 C 0.88934 0.53274 0.47206 0.0
H1117 H 0.93486 0.55098 0.46216 0.0
C1118 C 0.89085 0.52159 0.52916 0.0
C1119 C 0.90535 0.54365 0.44783 0.0
C1120 C 0.90484 0.55532 0.38566 0.0
C1121 C 0.90798 0.52087 0.56231 0.0
C1122 C 0.92413 0.53131 0.53721 0.0
C1123 C 0.92247 0.54294 0.4811 0.0
C1124 C 0.94305 0.52969 0.56751 0.0
C1125 C 0.90869 0.50886 0.62386 0.0
C1126 C 0.95176 0.54583 0.58794 0.0
C1127 C 0.96915 0.544 0.61927 0.0
C1128 C 0.97819 0.52601 0.63028 0.0
C1129 C 0.9698 0.51008 0.60723 0.0
C1130 C 0.95243 0.51192 0.57612 0.0
H1131 H 0.89417 0.50607 0.64358 0.0
H1132 H 0.91527 0.49477 0.61882 0.0
H1133 H 0.91748 0.51604 0.65636 0.0
H1134 H 0.94484 0.55972 0.58118 0.0
H1135 H 0.9752 0.55656 0.63639 0.0
loop_
_geom_bond_atom_site_label_1
_geom_bond_atom_site_label_2
_geom_bond_distance
_geom_bond_site_symmetry_2
_ccdc_geom_bond_type
H0 C1 0.949 . S
C1 H0 0.949 . S
C1 C2 1.395 . S
C1 C3 1.391 . S
C2 C1 1.395 . S
C2 C5 1.390 . S
C3 C1 1.391 . S
C3 C7 1.387 . S
C3 C8 1.491 . S
H4 C5 0.950 . S
C5 C2 1.390 . S
C5 H4 0.950 . S
C5 C6 1.378 . S
C6 C5 1.378 . S
C6 C7 1.409 . S
C7 C3 1.387 . S
C7 C6 1.409 . S
C7 H9 0.951 . S
C8 C3 1.491 . S
C8 C10 1.382 . S
C8 C12 1.404 . S
H9 C7 0.951 . S
C10 C8 1.382 . S
C10 C11 1.390 . S
C10 H15 0.949 . S
C11 C10 1.390 . S
C11 C16 1.399 . S
C12 C8 1.404 . S
C12 H13 0.950 . S
C12 C14 1.375 . S
H13 C12 0.950 . S
C14 C12 1.375 . S
C14 C16 1.382 . S
C14 H18 0.950 . S
H15 C10 0.949 . S
C16 C11 1.399 . S
C16 C14 1.382 . S
C16 H17 0.952 . S
H17 C16 0.952 . S
H18 C14 0.950 . S
H19 C20 0.949 . S
C20 H19 0.949 . S
C20 C21 1.395 . S
C20 C22 1.391 . S
C21 C20 1.395 . S
C21 C24 1.390 . S
C22 C20 1.391 . S
C22 C26 1.387 . S
C22 C27 1.491 . S
H23 C24 0.950 . S
C24 C21 1.390 . S
C24 H23 0.950 . S
C24 C25 1.378 . S
C25 C24 1.378 . S
C25 C26 1.409 . S
C26 C22 1.387 . S
C26 C25 1.409 . S
C26 H28 0.951 . S
C27 C22 1.491 . S
C27 C29 1.382 . S
C27 C31 1.404 . S
H28 C26 0.951 . S
C29 C27 1.382 . S
C29 C30 1.390 . S
C29 H34 0.949 . S
C30 C29 1.390 . S
C30 C35 1.399 . S
C31 C27 1.404 . S
C31 H32 0.950 . S
C31 C33 1.375 . S
H32 C31 0.950 . S
C33 C31 1.375 . S
C33 C35 1.382 . S
C33 H37 0.950 . S
H34 C29 0.949 . S
C35 C30 1.399 . S
C35 C33 1.382 . S
C35 H36 0.952 . S
H36 C35 0.952 . S
H37 C33 0.950 . S
H38 C39 0.949 1_556 S
C39 H38 0.949 1_554 S
C39 C40 1.395 . S
C39 C41 1.391 . S
C40 C39 1.395 . S
C40 C43 1.389 1_565 S
C41 C39 1.391 . S
C41 C45 1.387 . S
C41 C46 1.491 . S
H42 C43 0.950 . S
C43 C40 1.389 1_545 S
C43 H42 0.950 . S
C43 C44 1.379 1_545 S
C44 C43 1.379 1_565 S
C44 C45 1.413 . S
C45 C41 1.387 . S
C45 C44 1.413 . S
C45 H47 0.951 . S
C46 C41 1.491 . S
C46 C48 1.402 . S
C46 C50 1.404 . S
H47 C45 0.951 . S
C48 C46 1.402 . S
C48 C49 1.403 . S
C48 H53 0.918 1_564 S
C49 C48 1.403 . S
C49 C54 1.399 . S
C50 C46 1.404 . S
C50 H51 0.950 . S
C50 C52 1.375 . S
H51 C50 0.950 . S
C52 C50 1.375 . S
C52 C54 1.382 . S
C52 H56 0.950 . S
H53 C48 0.918 1_546 S
C54 C49 1.399 . S
C54 C52 1.382 . S
C54 H55 0.952 . S
H55 C54 0.952 . S
H56 C52 0.950 . S
H57 C58 0.949 . S
C58 H57 0.949 . S
C58 C59 1.395 . S
C58 C60 1.391 . S
C59 C58 1.395 . S
C59 C62 1.390 . S
C60 C58 1.391 . S
C60 C64 1.387 . S
C60 C65 1.491 . S
H61 C62 0.950 . S
C62 C59 1.390 . S
C62 H61 0.950 . S
C62 C63 1.378 . S
C63 C62 1.378 . S
C63 C64 1.409 . S
C64 C60 1.387 . S
C64 C63 1.409 . S
C64 H66 0.951 . S
C65 C60 1.491 . S
C65 C67 1.382 . S
C65 C69 1.404 . S
H66 C64 0.951 . S
C67 C65 1.382 . S
C67 C68 1.390 . S
C67 H72 0.949 . S
C68 C67 1.390 . S
C68 C73 1.399 . S
C69 C65 1.404 . S
C69 H70 0.950 . S
C69 C71 1.375 . S
H70 C69 0.950 . S
C71 C69 1.375 . S
C71 C73 1.382 . S
C71 H75 0.950 . S
H72 C67 0.949 . S
C73 C68 1.399 . S
C73 C71 1.382 . S
C73 H74 0.952 . S
H74 C73 0.952 . S
H75 C71 0.950 . S
H76 C77 0.949 . S
C77 H76 0.949 . S
C77 C78 1.395 . S
C77 C79 1.391 . S
C78 C77 1.395 . S
C78 C81 1.390 . S
C79 C77 1.391 . S
C79 C83 1.387 . S
C79 C84 1.491 . S
H80 C81 0.950 . S
C81 C78 1.390 . S
C81 H80 0.950 . S
C81 C82 1.378 . S
C82 C81 1.378 . S
C82 C83 1.409 . S
C83 C79 1.387 . S
C83 C82 1.409 . S
C83 H85 0.951 . S
C84 C79 1.491 . S
C84 C86 1.382 . S
C84 C88 1.404 . S
H85 C83 0.951 . S
C86 C84 1.382 . S
C86 C87 1.390 . S
C86 H91 0.949 . S
C87 C86 1.390 . S
C87 C92 1.399 . S
C88 C84 1.404 . S
C88 H89 0.950 . S
C88 C90 1.375 . S
H89 C88 0.950 . S
C90 C88 1.375 . S
C90 C92 1.382 . S
C90 H94 0.950 . S
H91 C86 0.949 . S
C92 C87 1.399 . S
C92 C90 1.382 . S
C92 H93 0.952 . S
H93 C92 0.952 . S
H94 C90 0.950 . S
H95 C96 0.949 . S
C96 H95 0.949 . S
C96 C97 1.395 . S
C96 C98 1.391 . S
C97 C96 1.395 . S
C97 C100 1.390 . S
C98 C96 1.391 . S
C98 C102 1.387 . S
C98 C103 1.491 . S
H99 C100 0.950 . S
C100 C97 1.390 . S
C100 H99 0.950 . S
C100 C101 1.378 . S
C101 C100 1.378 . S
C101 C102 1.409 . S
C102 C98 1.387 . S
C102 C101 1.409 . S
C102 H104 0.951 . S
C103 C98 1.491 . S
C103 C105 1.382 . S
C103 C107 1.404 . S
H104 C102 0.951 . S
C105 C103 1.382 . S
C105 C106 1.390 . S
C105 H110 0.949 . S
C106 C105 1.390 . S
C106 C111 1.399 . S
C107 C103 1.404 . S
C107 H108 0.950 . S
C107 C109 1.375 . S
H108 C107 0.950 . S
C109 C107 1.375 . S
C109 C111 1.382 . S
C109 H113 0.950 . S
H110 C105 0.949 . S
C111 C106 1.399 . S
C111 C109 1.382 . S
C111 H112 0.952 . S
H112 C111 0.952 . S
H113 C109 0.950 . S
H114 C115 0.949 . S
C115 H114 0.949 . S
C115 C116 1.395 . S
C115 C117 1.391 . S
C116 C115 1.395 . S
C116 C119 1.390 . S
C117 C115 1.391 . S
C117 C121 1.387 . S
C117 C122 1.491 . S
H118 C119 0.950 . S
C119 C116 1.390 . S
C119 H118 0.950 . S
C119 C120 1.378 . S
C120 C119 1.378 . S
C120 C121 1.409 . S
C121 C117 1.387 . S
C121 C120 1.409 . S
C121 H123 0.951 . S
C122 C117 1.491 . S
C122 C124 1.382 . S
C122 C126 1.404 1_545 S
H123 C121 0.951 . S
C124 C122 1.382 . S
C124 C125 1.390 . S
C124 H129 0.949 . S
C125 C124 1.390 . S
C125 C130 1.427 . S
C126 C122 1.404 1_565 S
C126 H127 0.950 . S
C126 C128 1.375 . S
H127 C126 0.950 . S
C128 C126 1.375 . S
C128 C130 1.363 1_565 S
C128 H132 0.950 . S
H129 C124 0.949 . S
C130 C125 1.427 . S
C130 C128 1.363 1_545 S
C130 H131 0.945 1_545 S
H131 C130 0.945 1_565 S
H132 C128 0.950 . S
H133 C134 0.949 . S
C134 H133 0.949 . S
C134 C135 1.395 . S
C134 C136 1.391 . S
C135 C134 1.395 . S
C135 C138 1.390 . S
C136 C134 1.391 . S
C136 C140 1.387 . S
C136 C141 1.491 . S
H137 C138 0.950 . S
C138 C135 1.390 . S
C138 H137 0.950 . S
C138 C139 1.378 . S
C139 C138 1.378 . S
C139 C140 1.409 . S
C140 C136 1.387 . S
C140 C139 1.409 . S
C140 H142 0.951 . S
C141 C136 1.491 . S
C141 C143 1.382 . S
C141 C145 1.404 . S
H142 C140 0.951 . S
C143 C141 1.382 . S
C143 C144 1.390 . S
C143 H148 0.949 . S
C144 C143 1.390 . S
C144 C149 1.399 . S
C145 C141 1.404 . S
C145 H146 0.950 . S
C145 C147 1.375 . S
H146 C145 0.950 . S
C147 C145 1.375 . S
C147 C149 1.382 . S
C147 H151 0.950 . S
H148 C143 0.949 . S
C149 C144 1.399 . S
C149 C147 1.382 . S
C149 H150 0.952 . S
H150 C149 0.952 . S
H151 C147 0.950 . S
Co152 N157 2.057 . S
Co152 O169 2.021 . S
Co152 O172 2.062 . S
Co152 O176 2.117 1_455 S
Co152 O177 2.020 1_545 S
C153 O173 1.259 . S
C153 O176 1.258 . S
Co154 N163 2.022 1_545 S
Co154 O170 2.119 . S
Co154 O171 2.071 . S
Co154 O173 2.027 1_455 S
Co154 O178 2.021 1_545 S
C155 N157 1.316 . S
C155 N158 1.347 . S
C155 H160 0.931 . S
C156 N157 1.330 1_655 S
C156 C159 1.337 1_655 S
C156 H161 0.982 . S
N157 Co152 2.057 . S
N157 C155 1.316 . S
N157 C156 1.330 1_455 S
N158 C155 1.347 . S
N158 C159 1.373 . S
C159 C156 1.337 1_455 S
C159 N158 1.373 . S
C159 H180 0.931 1_455 S
H160 C155 0.931 . S
H161 C156 0.982 . S
C162 O169 1.259 . S
C162 O170 1.258 . S
N163 Co154 2.022 1_565 S
N163 C164 1.316 1_455 S
N163 C165 1.375 . S
C164 N163 1.316 1_655 S
C164 N166 1.347 . S
C164 H175 0.931 . S
C165 N163 1.375 . S
C165 C167 1.350 . S
C165 H174 0.930 . S
N166 C164 1.347 . S
N166 C167 1.373 1_655 S
C167 C165 1.350 . S
C167 N166 1.373 1_455 S
C167 H181 0.931 . S
C168 O171 1.256 . S
C168 O172 1.255 . S
O169 Co152 2.021 . S
O169 C162 1.259 . S
O170 Co154 2.119 . S
O170 C162 1.258 . S
O171 Co154 2.071 . S
O171 C168 1.256 . S
O172 Co152 2.062 . S
O172 C168 1.255 . S
O173 C153 1.259 . S
O173 Co154 2.027 1_655 S
H174 C165 0.930 . S
H175 C164 0.931 . S
O176 Co152 2.117 1_655 S
O176 C153 1.258 . S
O177 Co152 2.020 1_565 S
O177 C179 1.256 . S
O178 Co154 2.021 1_565 S
O178 C179 1.255 . S
C179 O177 1.256 . S
C179 O178 1.255 . S
H180 C159 0.931 1_655 S
H181 C167 0.931 . S
Co182 N187 2.057 . S
Co182 O199 2.021 . S
Co182 O202 2.062 . S
Co182 O206 2.117 1_545 S
Co182 O207 2.020 . S
C183 O203 1.259 . S
C183 O206 1.258 . S
Co184 N193 2.057 . S
Co184 O200 2.117 . S
Co184 O201 2.020 . S
Co184 O203 2.021 1_545 S
Co184 O208 2.062 . S
C185 N187 1.316 . S
C185 N188 1.347 . S
C185 H190 0.931 . S
C186 N187 1.375 1_565 S
C186 C189 1.350 . S
C186 H191 0.930 . S
N187 Co182 2.057 . S
N187 C185 1.316 . S
N187 C186 1.375 1_545 S
N188 C185 1.347 . S
N188 C189 1.373 1_545 S
C189 C186 1.350 . S
C189 N188 1.373 1_565 S
C189 H210 0.939 . S
H190 C185 0.931 . S
H191 C186 0.930 . S
C192 O199 1.259 . S
C192 O200 1.258 . S
N193 Co184 2.057 . S
N193 C194 1.316 1_545 S
N193 C195 1.375 . S
C194 N193 1.316 1_565 S
C194 N196 1.347 1_565 S
C194 H205 0.931 . S
C195 N193 1.375 . S
C195 C197 1.350 . S
C195 H204 0.930 . S
N196 C194 1.347 1_545 S
N196 C197 1.373 . S
C197 C195 1.350 . S
C197 N196 1.373 . S
C197 H211 0.931 . S
C198 O201 1.256 . S
C198 O202 1.255 . S
O199 Co182 2.021 . S
O199 C192 1.259 . S
O200 Co184 2.117 . S
O200 C192 1.258 . S
O201 Co184 2.020 . S
O201 C198 1.256 . S
O202 Co182 2.062 . S
O202 C198 1.255 . S
O203 C183 1.259 . S
O203 Co184 2.021 1_565 S
H204 C195 0.930 . S
H205 C194 0.931 . S
O206 Co182 2.117 1_565 S
O206 C183 1.258 . S
O207 Co182 2.020 . S
O207 C209 1.256 . S
O208 Co184 2.062 . S
O208 C209 1.255 . S
C209 O207 1.256 . S
C209 O208 1.255 . S
H210 C189 0.939 . S
H211 C197 0.931 . S
Co212 N217 2.057 . S
Co212 O229 2.021 . S
Co212 O232 2.062 . S
Co212 O236 2.117 . S
Co212 O237 2.020 . S
C213 O233 1.259 . S
C213 O236 1.258 . S
Co214 N223 2.057 . S
Co214 O230 2.117 . S
Co214 O231 2.020 . S
Co214 O233 2.021 . S
Co214 O238 2.062 . S
C215 N217 1.316 . S
C215 N218 1.347 . S
C215 H220 0.931 . S
C216 N217 1.375 . S
C216 C219 1.350 . S
C216 H221 0.930 . S
N217 Co212 2.057 . S
N217 C215 1.316 . S
N217 C216 1.375 . S
N218 C215 1.347 . S
N218 C219 1.373 . S
C219 C216 1.350 . S
C219 N218 1.373 . S
C219 H240 0.931 . S
H220 C215 0.931 . S
H221 C216 0.930 . S
C222 O229 1.259 . S
C222 O230 1.258 . S
N223 Co214 2.057 . S
N223 C224 1.316 . S
N223 C225 1.375 . S
C224 N223 1.316 . S
C224 N226 1.347 . S
C224 H235 0.931 . S
C225 N223 1.375 . S
C225 C227 1.350 . S
C225 H234 0.930 . S
N226 C224 1.347 . S
N226 C227 1.373 . S
C227 C225 1.350 . S
C227 N226 1.373 . S
C227 H241 0.931 . S
C228 O231 1.256 . S
C228 O232 1.255 . S
O229 Co212 2.021 . S
O229 C222 1.259 . S
O230 Co214 2.117 . S
O230 C222 1.258 . S
O231 Co214 2.020 . S
O231 C228 1.256 . S
O232 Co212 2.062 . S
O232 C228 1.255 . S
O233 C213 1.259 . S
O233 Co214 2.021 . S
H234 C225 0.930 . S
H235 C224 0.931 . S
O236 Co212 2.117 . S
O236 C213 1.258 . S
O237 Co212 2.020 . S
O237 C239 1.256 . S
O238 Co214 2.062 . S
O238 C239 1.255 . S
C239 O237 1.256 . S
C239 O238 1.255 . S
H240 C219 0.931 . S
H241 C227 0.931 . S
Co242 N247 2.057 . S
Co242 O259 2.021 1_455 S
Co242 O262 2.062 1_455 S
Co242 O266 2.117 . S
Co242 O267 2.020 . S
C243 O263 1.259 . S
C243 O266 1.258 . S
Co244 N253 2.057 . S
Co244 O260 2.117 1_455 S
Co244 O261 2.020 1_455 S
Co244 O263 2.021 . S
Co244 O268 2.062 . S
C245 N247 1.316 . S
C245 N248 1.347 . S
C245 H250 0.931 1_455 S
C246 N247 1.375 . S
C246 C249 1.350 . S
C246 H251 0.930 . S
N247 Co242 2.057 . S
N247 C245 1.316 . S
N247 C246 1.375 . S
N248 C245 1.347 . S
N248 C249 1.373 . S
C249 C246 1.350 . S
C249 N248 1.373 . S
C249 H270 0.931 . S
H250 C245 0.931 1_655 S
H251 C246 0.930 . S
C252 O259 1.259 . S
C252 O260 1.258 . S
N253 Co244 2.057 . S
N253 C254 1.316 . S
N253 C255 1.375 1_455 S
C254 N253 1.316 . S
C254 N256 1.347 . S
C254 H265 0.931 . S
C255 N253 1.375 1_655 S
C255 C257 1.350 . S
C255 H264 0.930 . S
N256 C254 1.347 . S
N256 C257 1.373 1_455 S
C257 C255 1.350 . S
C257 N256 1.373 1_655 S
C257 H271 0.931 . S
C258 O261 1.256 . S
C258 O262 1.255 . S
O259 Co242 2.021 1_655 S
O259 C252 1.259 . S
O260 Co244 2.117 1_655 S
O260 C252 1.258 . S
O261 Co244 2.020 1_655 S
O261 C258 1.256 . S
O262 Co242 2.062 1_655 S
O262 C258 1.255 . S
O263 C243 1.259 . S
O263 Co244 2.021 . S
H264 C255 0.930 . S
H265 C254 0.931 . S
O266 Co242 2.117 . S
O266 C243 1.258 . S
O267 Co242 2.020 . S
O267 C269 1.256 . S
O268 Co244 2.062 . S
O268 C269 1.255 . S
C269 O267 1.256 . S
C269 O268 1.255 . S
H270 C249 0.931 . S
H271 C257 0.931 . S
H272 C280 0.929 . S
H273 C282 0.930 . S
H274 C284 0.902 1_565 S
H275 C287 0.929 1_565 S
H276 C290 0.930 . S
H277 C292 0.960 . S
H278 C292 0.960 . S
H279 C292 0.960 1_565 S
C280 H272 0.929 . S
C280 C281 1.377 . S
C280 C282 1.384 . S
C281 C280 1.377 . S
C281 C287 1.390 . S
C282 H273 0.930 . S
C282 C280 1.384 . S
C282 C283 1.372 . S
C283 C282 1.372 . S
C283 C284 1.428 . S
C283 C288 1.490 . S
C284 H274 0.902 1_545 S
C284 C283 1.428 . S
C284 C287 1.385 . S
H285 C301 0.930 . S
H286 C302 0.931 . S
C287 H275 0.929 1_545 S
C287 C281 1.390 . S
C287 C284 1.385 . S
C288 C283 1.490 . S
C288 C290 1.395 . S
C288 C291 1.403 . S
H289 C295 0.930 . S
C290 H276 0.930 . S
C290 C288 1.395 . S
C290 C293 1.403 . S
C291 C288 1.403 . S
C291 C292 1.524 . S
C291 C295 1.400 . S
C292 H277 0.960 . S
C292 H278 0.960 . S
C292 H279 0.960 1_545 S
C292 C291 1.524 . S
C293 C290 1.403 . S
C293 C294 1.392 . S
C293 C297 1.495 . S
C294 C293 1.392 . S
C294 C295 1.385 . S
C294 C296 1.478 . S
C295 H289 0.930 . S
C295 C291 1.400 . S
C295 C294 1.385 . S
C296 C294 1.478 . S
C296 C298 1.381 . S
C296 C302 1.383 1_545 S
C297 C293 1.495 . S
C297 H303 0.959 . S
C297 H304 0.961 . S
C297 H305 0.960 . S
C298 C296 1.381 . S
C298 C299 1.394 . S
C298 H306 0.930 . S
C299 C298 1.394 . S
C299 C300 1.383 . S
C299 H307 0.929 . S
C300 C299 1.383 . S
C300 C301 1.377 1_545 S
C301 H285 0.930 . S
C301 C300 1.377 1_565 S
C301 C302 1.379 . S
C302 H286 0.931 . S
C302 C296 1.383 1_565 S
C302 C301 1.379 . S
H303 C297 0.959 . S
H304 C297 0.961 . S
H305 C297 0.960 . S
H306 C298 0.930 . S
H307 C299 0.929 . S
H308 C316 0.929 . S
H309 C318 0.930 . S
H310 C320 0.930 . S
H311 C323 0.929 . S
H312 C326 0.930 . S
H313 C328 0.960 . S
H314 C328 0.960 . S
H315 C328 0.960 . S
C316 H308 0.929 . S
C316 C317 1.377 . S
C316 C318 1.384 . S
C317 C316 1.377 . S
C317 C323 1.390 . S
C318 H309 0.930 . S
C318 C316 1.384 . S
C318 C319 1.372 . S
C319 C318 1.372 . S
C319 C320 1.400 . S
C319 C324 1.490 . S
C320 H310 0.930 . S
C320 C319 1.400 . S
C320 C323 1.386 . S
H321 C337 0.930 . S
H322 C338 0.931 . S
C323 H311 0.929 . S
C323 C317 1.390 . S
C323 C320 1.386 . S
C324 C319 1.490 . S
C324 C326 1.395 . S
C324 C327 1.403 . S
H325 C331 0.930 . S
C326 H312 0.930 . S
C326 C324 1.395 . S
C326 C329 1.403 . S
C327 C324 1.403 . S
C327 C328 1.524 . S
C327 C331 1.400 . S
C328 H313 0.960 . S
C328 H314 0.960 . S
C328 H315 0.960 . S
C328 C327 1.524 . S
C329 C326 1.403 . S
C329 C330 1.392 . S
C329 C333 1.495 . S
C330 C329 1.392 . S
C330 C331 1.385 . S
C330 C332 1.478 . S
C331 H325 0.930 . S
C331 C327 1.400 . S
C331 C330 1.385 . S
C332 C330 1.478 . S
C332 C334 1.381 . S
C332 C338 1.383 . S
C333 C329 1.495 . S
C333 H339 0.959 . S
C333 H340 0.961 . S
C333 H341 0.960 . S
C334 C332 1.381 . S
C334 C335 1.394 . S
C334 H342 0.930 . S
C335 C334 1.394 . S
C335 C336 1.383 . S
C335 H343 0.929 . S
C336 C335 1.383 . S
C336 C337 1.377 . S
C337 H321 0.930 . S
C337 C336 1.377 . S
C337 C338 1.379 . S
C338 H322 0.931 . S
C338 C332 1.383 . S
C338 C337 1.379 . S
H339 C333 0.959 . S
H340 C333 0.961 . S
H341 C333 0.960 . S
H342 C334 0.930 . S
H343 C335 0.929 . S
H344 C352 0.929 . S
H345 C354 0.930 . S
H346 C356 0.930 . S
H347 C359 0.929 . S
H348 C362 0.930 . S
H349 C364 0.960 . S
H350 C364 0.960 . S
H351 C364 0.960 . S
C352 H344 0.929 . S
C352 C353 1.377 . S
C352 C354 1.384 . S
C353 C352 1.377 . S
C353 C359 1.390 . S
C354 H345 0.930 . S
C354 C352 1.384 . S
C354 C355 1.372 . S
C355 C354 1.372 . S
C355 C356 1.400 . S
C355 C360 1.490 . S
C356 H346 0.930 . S
C356 C355 1.400 . S
C356 C359 1.386 . S
H357 C373 0.930 . S
H358 C374 0.931 . S
C359 H347 0.929 . S
C359 C353 1.390 . S
C359 C356 1.386 . S
C360 C355 1.490 . S
C360 C362 1.395 . S
C360 C363 1.403 . S
H361 C367 0.930 . S
C362 H348 0.930 . S
C362 C360 1.395 . S
C362 C365 1.403 . S
C363 C360 1.403 . S
C363 C364 1.524 . S
C363 C367 1.400 . S
C364 H349 0.960 . S
C364 H350 0.960 . S
C364 H351 0.960 . S
C364 C363 1.524 . S
C365 C362 1.403 . S
C365 C366 1.392 . S
C365 C369 1.495 . S
C366 C365 1.392 . S
C366 C367 1.385 . S
C366 C368 1.478 . S
C367 H361 0.930 . S
C367 C363 1.400 . S
C367 C366 1.385 . S
C368 C366 1.478 . S
C368 C370 1.381 . S
C368 C374 1.383 . S
C369 C365 1.495 . S
C369 H375 0.959 . S
C369 H376 0.961 . S
C369 H377 0.960 . S
C370 C368 1.381 . S
C370 C371 1.394 . S
C370 H378 0.930 . S
C371 C370 1.394 . S
C371 C372 1.383 . S
C371 H379 0.929 . S
C372 C371 1.383 . S
C372 C373 1.377 . S
C373 H357 0.930 . S
C373 C372 1.377 . S
C373 C374 1.379 . S
C374 H358 0.931 . S
C374 C368 1.383 . S
C374 C373 1.379 . S
H375 C369 0.959 . S
H376 C369 0.961 . S
H377 C369 0.960 . S
H378 C370 0.930 . S
H379 C371 0.929 . S
H380 C388 0.929 . S
H381 C390 0.930 . S
H382 C392 0.930 . S
H383 C395 0.929 . S
H384 C398 0.930 . S
H385 C400 0.960 . S
H386 C400 0.960 . S
H387 C400 0.960 . S
C388 H380 0.929 . S
C388 C389 1.377 . S
C388 C390 1.384 . S
C389 C388 1.377 . S
C389 C395 1.390 . S
C390 H381 0.930 . S
C390 C388 1.384 . S
C390 C391 1.372 . S
C391 C390 1.372 . S
C391 C392 1.400 . S
C391 C396 1.490 . S
C392 H382 0.930 . S
C392 C391 1.400 . S
C392 C395 1.386 . S
H393 C409 0.930 1_655 S
H394 C410 0.931 1_655 S
C395 H383 0.929 . S
C395 C389 1.390 . S
C395 C392 1.386 . S
C396 C391 1.490 . S
C396 C398 1.395 . S
C396 C399 1.403 . S
H397 C403 0.930 . S
C398 H384 0.930 . S
C398 C396 1.395 . S
C398 C401 1.403 . S
C399 C396 1.403 . S
C399 C400 1.524 . S
C399 C403 1.400 . S
C400 H385 0.960 . S
C400 H386 0.960 . S
C400 H387 0.960 . S
C400 C399 1.524 . S
C401 C398 1.403 . S
C401 C402 1.392 . S
C401 C405 1.495 . S
C402 C401 1.392 . S
C402 C403 1.385 . S
C402 C404 1.478 . S
C403 H397 0.930 . S
C403 C399 1.400 . S
C403 C402 1.385 . S
C404 C402 1.478 . S
C404 C406 1.381 . S
C404 C410 1.383 . S
C405 C401 1.495 . S
C405 H411 0.959 . S
C405 H412 0.961 . S
C405 H413 0.960 . S
C406 C404 1.381 . S
C406 C407 1.394 . S
C406 H414 0.930 . S
C407 C406 1.394 . S
C407 C408 1.383 . S
C407 H415 0.929 . S
C408 C407 1.383 . S
C408 C409 1.377 . S
C409 H393 0.930 1_455 S
C409 C408 1.377 . S
C409 C410 1.379 . S
C410 H394 0.931 1_455 S
C410 C404 1.383 . S
C410 C409 1.379 . S
H411 C405 0.959 . S
H412 C405 0.961 . S
H413 C405 0.960 . S
H414 C406 0.930 . S
H415 C407 0.929 . S
H416 C424 0.929 . S
H417 C426 0.930 1_554 S
H418 C428 0.930 . S
H419 C431 0.929 . S
H420 C434 0.930 . S
H421 C436 0.960 . S
H422 C436 0.960 . S
H423 C436 0.960 . S
C424 H416 0.929 . S
C424 C425 1.352 1_564 S
C424 C426 1.384 1_554 S
C425 C424 1.352 1_546 S
C425 C431 1.417 . S
C426 H417 0.930 1_556 S
C426 C424 1.384 1_556 S
C426 C427 1.372 1_565 S
C427 C426 1.372 1_545 S
C427 C428 1.400 . S
C427 C432 1.490 . S
C428 H418 0.930 . S
C428 C427 1.400 . S
C428 C431 1.386 . S
H429 C445 0.930 . S
H430 C446 0.931 . S
C431 H419 0.929 . S
C431 C425 1.417 . S
C431 C428 1.386 . S
C432 C427 1.490 . S
C432 C434 1.395 1_545 S
C432 C435 1.403 . S
H433 C439 0.930 . S
C434 H420 0.930 . S
C434 C432 1.395 1_565 S
C434 C437 1.403 . S
C435 C432 1.403 . S
C435 C436 1.524 . S
C435 C439 1.400 . S
C436 H421 0.960 . S
C436 H422 0.960 . S
C436 H423 0.960 . S
C436 C435 1.524 . S
C437 C434 1.403 . S
C437 C438 1.392 1_565 S
C437 C441 1.495 . S
C438 C437 1.392 1_545 S
C438 C439 1.385 . S
C438 C440 1.478 . S
C439 H433 0.930 . S
C439 C435 1.400 . S
C439 C438 1.385 . S
C440 C438 1.478 . S
C440 C442 1.381 1_545 S
C440 C446 1.383 . S
C441 C437 1.495 . S
C441 H447 0.959 . S
C441 H448 0.961 . S
C441 H449 0.960 . S
C442 C440 1.381 1_565 S
C442 C443 1.394 . S
C442 H450 0.930 . S
C443 C442 1.394 . S
C443 C444 1.383 1_565 S
C443 H451 0.929 . S
C444 C443 1.383 1_545 S
C444 C445 1.377 . S
C445 H429 0.930 . S
C445 C444 1.377 . S
C445 C446 1.379 . S
C446 H430 0.931 . S
C446 C440 1.383 . S
C446 C445 1.379 . S
H447 C441 0.959 . S
H448 C441 0.961 . S
H449 C441 0.960 . S
H450 C442 0.930 . S
H451 C443 0.929 . S
H452 C460 0.929 . S
H453 C462 0.930 . S
H454 C464 0.930 . S
H455 C467 0.929 . S
H456 C470 0.930 . S
H457 C472 0.960 . S
H458 C472 0.960 . S
H459 C472 0.960 . S
C460 H452 0.929 . S
C460 C461 1.377 1_556 S
C460 C462 1.384 . S
C461 C460 1.377 1_554 S
C461 C467 1.390 . S
C462 H453 0.930 . S
C462 C460 1.384 . S
C462 C463 1.372 . S
C463 C462 1.372 . S
C463 C464 1.400 . S
C463 C468 1.490 . S
C464 H454 0.930 . S
C464 C463 1.400 . S
C464 C467 1.386 1_556 S
H465 C481 0.930 . S
H466 C482 0.931 . S
C467 H455 0.929 . S
C467 C461 1.390 . S
C467 C464 1.386 1_554 S
C468 C463 1.490 . S
C468 C470 1.395 . S
C468 C471 1.403 . S
H469 C475 0.930 . S
C470 H456 0.930 . S
C470 C468 1.395 . S
C470 C473 1.403 . S
C471 C468 1.403 . S
C471 C472 1.524 . S
C471 C475 1.400 . S
C472 H457 0.960 . S
C472 H458 0.960 . S
C472 H459 0.960 . S
C472 C471 1.524 . S
C473 C470 1.403 . S
C473 C474 1.392 . S
C473 C477 1.495 . S
C474 C473 1.392 . S
C474 C475 1.385 . S
C474 C476 1.478 . S
C475 H469 0.930 . S
C475 C471 1.400 . S
C475 C474 1.385 . S
C476 C474 1.478 . S
C476 C478 1.381 . S
C476 C482 1.383 . S
C477 C473 1.495 . S
C477 H483 0.959 . S
C477 H484 0.961 . S
C477 H485 0.960 . S
C478 C476 1.381 . S
C478 C479 1.394 . S
C478 H486 0.930 . S
C479 C478 1.394 . S
C479 C480 1.383 . S
C479 H487 0.929 . S
C480 C479 1.383 . S
C480 C481 1.377 . S
C481 H465 0.930 . S
C481 C480 1.377 . S
C481 C482 1.379 . S
C482 H466 0.931 . S
C482 C476 1.383 . S
C482 C481 1.379 . S
H483 C477 0.959 . S
H484 C477 0.961 . S
H485 C477 0.960 . S
H486 C478 0.930 . S
H487 C479 0.929 . S
H488 C496 0.929 . S
H489 C498 0.930 . S
H490 C500 0.930 . S
H491 C503 0.929 . S
H492 C506 0.930 . S
H493 C508 0.960 . S
H494 C508 0.960 . S
H495 C508 0.960 . S
C496 H488 0.929 . S
C496 C497 1.377 . S
C496 C498 1.384 1_554 S
C497 C496 1.377 . S
C497 C503 1.390 . S
C498 H489 0.930 . S
C498 C496 1.384 1_556 S
C498 C499 1.372 1_556 S
C499 C498 1.372 1_554 S
C499 C500 1.400 . S
C499 C504 1.490 1_554 S
C500 H490 0.930 . S
C500 C499 1.400 . S
C500 C503 1.386 . S
H501 C517 0.930 . S
H502 C518 0.931 . S
C503 H491 0.929 . S
C503 C497 1.390 . S
C503 C500 1.386 . S
C504 C499 1.490 1_556 S
C504 C506 1.395 . S
C504 C507 1.403 1_556 S
H505 C511 0.930 . S
C506 H492 0.930 . S
C506 C504 1.395 . S
C506 C509 1.403 . S
C507 C504 1.403 1_554 S
C507 C508 1.524 . S
C507 C511 1.400 1_554 S
C508 H493 0.960 . S
C508 H494 0.960 . S
C508 H495 0.960 . S
C508 C507 1.524 . S
C509 C506 1.403 . S
C509 C510 1.392 . S
C509 C513 1.495 . S
C510 C509 1.392 . S
C510 C511 1.385 . S
C510 C512 1.478 . S
C511 H505 0.930 . S
C511 C507 1.400 1_556 S
C511 C510 1.385 . S
C512 C510 1.478 . S
C512 C514 1.381 . S
C512 C518 1.383 . S
C513 C509 1.495 . S
C513 H519 0.959 . S
C513 H520 0.961 . S
C513 H521 0.960 . S
C514 C512 1.381 . S
C514 C515 1.394 . S
C514 H522 0.930 . S
C515 C514 1.394 . S
C515 C516 1.383 . S
C515 H523 0.929 . S
C516 C515 1.383 . S
C516 C517 1.377 . S
C517 H501 0.930 . S
C517 C516 1.377 . S
C517 C518 1.379 . S
C518 H502 0.931 . S
C518 C512 1.383 . S
C518 C517 1.379 . S
H519 C513 0.959 . S
H520 C513 0.961 . S
H521 C513 0.960 . S
H522 C514 0.930 . S
H523 C515 0.929 . S
H524 C532 0.929 . S
H525 C534 0.930 . S
H526 C536 0.930 . S
H527 C539 0.929 . S
H528 C542 0.930 . S
H529 C544 0.960 . S
H530 C544 0.960 . S
H531 C544 0.960 . S
C532 H524 0.929 . S
C532 C533 1.377 . S
C532 C534 1.384 . S
C533 C532 1.377 . S
C533 C539 1.390 1_554 S
C534 H525 0.930 . S
C534 C532 1.384 . S
C534 C535 1.372 1_554 S
C535 C534 1.372 1_556 S
C535 C536 1.400 . S
C535 C540 1.490 . S
C536 H526 0.930 . S
C536 C535 1.400 . S
C536 C539 1.386 . S
H537 C553 0.925 1_455 S
H538 C554 0.931 . S
C539 H527 0.929 . S
C539 C533 1.390 1_556 S
C539 C536 1.386 . S
C540 C535 1.490 . S
C540 C542 1.395 . S
C540 C543 1.403 1_655 S
H541 C547 0.930 . S
C542 H528 0.930 . S
C542 C540 1.395 . S
C542 C545 1.403 . S
C543 C540 1.403 1_455 S
C543 C544 1.524 . S
C543 C547 1.400 . S
C544 H529 0.960 . S
C544 H530 0.960 . S
C544 H531 0.960 . S
C544 C543 1.524 . S
C545 C542 1.403 . S
C545 C546 1.392 . S
C545 C549 1.495 . S
C546 C545 1.392 . S
C546 C547 1.385 1_655 S
C546 C548 1.478 . S
C547 H541 0.930 . S
C547 C543 1.400 . S
C547 C546 1.385 1_455 S
C548 C546 1.478 . S
C548 C550 1.381 . S
C548 C554 1.383 . S
C549 C545 1.495 . S
C549 H555 0.959 . S
C549 H556 0.961 . S
C549 H557 0.960 . S
C550 C548 1.381 . S
C550 C551 1.396 . S
C550 H558 0.930 . S
C551 C550 1.396 . S
C551 C552 1.383 1_655 S
C551 H559 0.928 1_655 S
C552 C551 1.383 1_455 S
C552 C553 1.372 1_455 S
C553 H537 0.925 1_655 S
C553 C552 1.372 1_655 S
C553 C554 1.389 . S
C554 H538 0.931 . S
C554 C548 1.383 . S
C554 C553 1.389 . S
H555 C549 0.959 . S
H556 C549 0.961 . S
H557 C549 0.960 . S
H558 C550 0.930 . S
H559 C551 0.928 1_455 S
H560 C568 0.929 . S
H561 C570 0.930 . S
H562 C572 0.930 . S
H563 C575 0.929 . S
H564 C578 0.930 . S
H565 C580 0.960 . S
H566 C580 0.960 . S
H567 C580 0.960 . S
C568 H560 0.929 . S
C568 C569 1.377 . S
C568 C570 1.384 . S
C569 C568 1.377 . S
C569 C575 1.390 . S
C570 H561 0.930 . S
C570 C568 1.384 . S
C570 C571 1.372 . S
C571 C570 1.372 . S
C571 C572 1.400 . S
C571 C576 1.490 . S
C572 H562 0.930 . S
C572 C571 1.400 . S
C572 C575 1.386 . S
H573 C589 0.930 . S
H574 C590 0.931 1_655 S
C575 H563 0.929 . S
C575 C569 1.390 . S
C575 C572 1.386 . S
C576 C571 1.490 . S
C576 C578 1.395 . S
C576 C579 1.403 . S
H577 C583 0.930 . S
C578 H564 0.930 . S
C578 C576 1.395 . S
C578 C581 1.403 . S
C579 C576 1.403 . S
C579 C580 1.524 . S
C579 C583 1.400 . S
C580 H565 0.960 . S
C580 H566 0.960 . S
C580 H567 0.960 . S
C580 C579 1.524 . S
C581 C578 1.403 . S
C581 C582 1.392 . S
C581 C585 1.495 . S
C582 C581 1.392 . S
C582 C583 1.385 . S
C582 C584 1.478 . S
C583 H577 0.930 . S
C583 C579 1.400 . S
C583 C582 1.385 . S
C584 C582 1.478 . S
C584 C586 1.381 . S
C584 C590 1.383 . S
C585 C581 1.495 . S
C585 H591 0.959 . S
C585 H592 0.961 . S
C585 H593 0.960 . S
C586 C584 1.381 . S
C586 C587 1.394 . S
C586 H594 0.930 . S
C587 C586 1.394 . S
C587 C588 1.383 . S
C587 H595 0.929 . S
C588 C587 1.383 . S
C588 C589 1.377 1_455 S
C589 H573 0.930 . S
C589 C588 1.377 1_655 S
C589 C590 1.379 1_655 S
C590 H574 0.931 1_455 S
C590 C584 1.383 . S
C590 C589 1.379 1_455 S
H591 C585 0.959 . S
H592 C585 0.961 . S
H593 C585 0.960 . S
H594 C586 0.930 . S
H595 C587 0.929 . S
H596 C604 0.929 . S
H597 C606 0.930 . S
H598 C608 0.930 1_565 S
H599 C611 0.929 1_565 S
H600 C614 0.930 . S
H601 C616 0.960 . S
H602 C616 0.960 . S
H603 C616 0.960 . S
C604 H596 0.929 . S
C604 C605 1.377 . S
C604 C606 1.384 . S
C605 C604 1.377 . S
C605 C611 1.390 . S
C606 H597 0.930 . S
C606 C604 1.384 . S
C606 C607 1.372 . S
C607 C606 1.372 . S
C607 C608 1.400 . S
C607 C612 1.490 . S
C608 H598 0.930 1_545 S
C608 C607 1.400 . S
C608 C611 1.386 . S
H609 C625 0.930 . S
H610 C626 0.931 . S
C611 H599 0.929 1_545 S
C611 C605 1.390 . S
C611 C608 1.386 . S
C612 C607 1.490 . S
C612 C614 1.395 . S
C612 C615 1.403 . S
H613 C619 0.930 . S
C614 H600 0.930 . S
C614 C612 1.395 . S
C614 C617 1.403 . S
C615 C612 1.403 . S
C615 C616 1.524 . S
C615 C619 1.400 . S
C616 H601 0.960 . S
C616 H602 0.960 . S
C616 H603 0.960 . S
C616 C615 1.524 . S
C617 C614 1.403 . S
C617 C618 1.392 . S
C617 C621 1.495 . S
C618 C617 1.392 . S
C618 C619 1.385 . S
C618 C620 1.478 . S
C619 H613 0.930 . S
C619 C615 1.400 . S
C619 C618 1.385 . S
C620 C618 1.478 . S
C620 C622 1.381 . S
C620 C626 1.383 1_545 S
C621 C617 1.495 . S
C621 H627 0.959 . S
C621 H628 0.961 1_545 S
C621 H629 0.960 . S
C622 C620 1.381 . S
C622 C623 1.394 . S
C622 H630 0.930 . S
C623 C622 1.394 . S
C623 C624 1.383 . S
C623 H631 0.929 . S
C624 C623 1.383 . S
C624 C625 1.377 1_545 S
C625 H609 0.930 . S
C625 C624 1.377 1_565 S
C625 C626 1.379 . S
C626 H610 0.931 . S
C626 C620 1.383 1_565 S
C626 C625 1.379 . S
H627 C621 0.959 . S
H628 C621 0.961 1_565 S
H629 C621 0.960 . S
H630 C622 0.930 . S
H631 C623 0.929 . S
H632 C640 0.929 . S
H633 C642 0.930 . S
H634 C644 0.930 . S
H635 C647 0.929 . S
H636 C650 0.930 . S
H637 C652 0.960 . S
H638 C652 0.960 . S
H639 C652 0.960 . S
C640 H632 0.929 . S
C640 C641 1.377 . S
C640 C642 1.384 . S
C641 C640 1.377 . S
C641 C647 1.390 . S
C642 H633 0.930 . S
C642 C640 1.384 . S
C642 C643 1.372 . S
C643 C642 1.372 . S
C643 C644 1.400 . S
C643 C648 1.490 . S
C644 H634 0.930 . S
C644 C643 1.400 . S
C644 C647 1.386 . S
H645 C661 0.930 . S
H646 C662 0.931 . S
C647 H635 0.929 . S
C647 C641 1.390 . S
C647 C644 1.386 . S
C648 C643 1.490 . S
C648 C650 1.395 . S
C648 C651 1.403 . S
H649 C655 0.930 . S
C650 H636 0.930 . S
C650 C648 1.395 . S
C650 C653 1.403 . S
C651 C648 1.403 . S
C651 C652 1.524 . S
C651 C655 1.400 . S
C652 H637 0.960 . S
C652 H638 0.960 . S
C652 H639 0.960 . S
C652 C651 1.524 . S
C653 C650 1.403 . S
C653 C654 1.392 . S
C653 C657 1.495 . S
C654 C653 1.392 . S
C654 C655 1.385 . S
C654 C656 1.478 . S
C655 H649 0.930 . S
C655 C651 1.400 . S
C655 C654 1.385 . S
C656 C654 1.478 . S
C656 C658 1.381 . S
C656 C662 1.383 . S
C657 C653 1.495 . S
C657 H663 0.959 . S
C657 H664 0.961 . S
C657 H665 0.960 . S
C658 C656 1.381 . S
C658 C659 1.394 . S
C658 H666 0.930 . S
C659 C658 1.394 . S
C659 C660 1.383 . S
C659 H667 0.929 . S
C660 C659 1.383 . S
C660 C661 1.377 . S
C661 H645 0.930 . S
C661 C660 1.377 . S
C661 C662 1.379 . S
C662 H646 0.931 . S
C662 C656 1.383 . S
C662 C661 1.379 . S
H663 C657 0.959 . S
H664 C657 0.961 . S
H665 C657 0.960 . S
H666 C658 0.930 . S
H667 C659 0.929 . S
H668 C676 0.929 . S
H669 C678 0.930 . S
H670 C680 0.930 . S
H671 C683 0.929 . S
H672 C686 0.930 . S
H673 C688 0.960 . S
H674 C688 0.960 . S
H675 C688 0.960 . S
C676 H668 0.929 . S
C676 C677 1.377 . S
C676 C678 1.384 . S
C677 C676 1.377 . S
C677 C683 1.390 . S
C678 H669 0.930 . S
C678 C676 1.384 . S
C678 C679 1.372 . S
C679 C678 1.372 . S
C679 C680 1.400 . S
C679 C684 1.490 . S
C680 H670 0.930 . S
C680 C679 1.400 . S
C680 C683 1.386 . S
H681 C697 0.930 . S
H682 C698 0.931 . S
C683 H671 0.929 . S
C683 C677 1.390 . S
C683 C680 1.386 . S
C684 C679 1.490 . S
C684 C686 1.395 . S
C684 C687 1.403 . S
H685 C691 0.930 . S
C686 H672 0.930 . S
C686 C684 1.395 . S
C686 C689 1.403 . S
C687 C684 1.403 . S
C687 C688 1.524 . S
C687 C691 1.400 . S
C688 H673 0.960 . S
C688 H674 0.960 . S
C688 H675 0.960 . S
C688 C687 1.524 . S
C689 C686 1.403 . S
C689 C690 1.392 . S
C689 C693 1.495 . S
C690 C689 1.392 . S
C690 C691 1.385 . S
C690 C692 1.478 . S
C691 H685 0.930 . S
C691 C687 1.400 . S
C691 C690 1.385 . S
C692 C690 1.478 . S
C692 C694 1.381 . S
C692 C698 1.383 . S
C693 C689 1.495 . S
C693 H699 0.959 . S
C693 H700 0.961 . S
C693 H701 0.960 . S
C694 C692 1.381 . S
C694 C695 1.394 . S
C694 H702 0.930 . S
C695 C694 1.394 . S
C695 C696 1.383 . S
C695 H703 0.929 . S
C696 C695 1.383 . S
C696 C697 1.377 . S
C697 H681 0.930 . S
C697 C696 1.377 . S
C697 C698 1.379 . S
C698 H682 0.931 . S
C698 C692 1.383 . S
C698 C697 1.379 . S
H699 C693 0.959 . S
H700 C693 0.961 . S
H701 C693 0.960 . S
H702 C694 0.930 . S
H703 C695 0.929 . S
H704 C712 0.930 . S
H705 C714 0.930 . S
H706 C716 0.930 1_455 S
H707 C719 0.929 . S
H708 C722 0.930 . S
H709 C724 0.960 . S
H710 C724 0.960 . S
H711 C724 0.960 . S
C712 H704 0.930 . S
C712 C713 1.377 1_556 S
C712 C714 1.384 . S
C713 C712 1.377 1_554 S
C713 C719 1.390 . S
C714 H705 0.930 . S
C714 C712 1.384 . S
C714 C715 1.372 . S
C715 C714 1.372 . S
C715 C716 1.400 1_556 S
C715 C720 1.490 . S
C716 H706 0.930 1_655 S
C716 C715 1.400 1_554 S
C716 C719 1.386 . S
H717 C733 0.930 . S
H718 C734 0.931 . S
C719 H707 0.929 . S
C719 C713 1.390 . S
C719 C716 1.386 . S
C720 C715 1.490 . S
C720 C722 1.395 . S
C720 C723 1.403 1_655 S
H721 C727 0.930 . S
C722 H708 0.930 . S
C722 C720 1.395 . S
C722 C725 1.403 . S
C723 C720 1.403 1_455 S
C723 C724 1.524 . S
C723 C727 1.400 . S
C724 H709 0.960 . S
C724 H710 0.960 . S
C724 H711 0.960 . S
C724 C723 1.524 . S
C725 C722 1.403 . S
C725 C726 1.392 . S
C725 C729 1.495 . S
C726 C725 1.392 . S
C726 C727 1.385 1_655 S
C726 C728 1.478 . S
C727 H721 0.930 . S
C727 C723 1.400 . S
C727 C726 1.385 1_455 S
C728 C726 1.478 . S
C728 C730 1.381 . S
C728 C734 1.383 1_655 S
C729 C725 1.495 . S
C729 H735 0.959 . S
C729 H736 0.961 . S
C729 H737 0.960 . S
C730 C728 1.381 . S
C730 C731 1.394 . S
C730 H738 0.930 . S
C731 C730 1.394 . S
C731 C732 1.383 1_655 S
C731 H739 0.929 . S
C732 C731 1.383 1_455 S
C732 C733 1.377 . S
C733 H717 0.930 . S
C733 C732 1.377 . S
C733 C734 1.379 . S
C734 H718 0.931 . S
C734 C728 1.383 1_455 S
C734 C733 1.379 . S
H735 C729 0.959 . S
H736 C729 0.961 . S
H737 C729 0.960 . S
H738 C730 0.930 . S
H739 C731 0.929 . S
H740 C748 0.929 . S
H741 C750 0.930 1_554 S
H742 C752 0.930 . S
H743 C755 0.929 . S
H744 C758 0.930 1_554 S
H745 C760 0.960 . S
H746 C760 0.960 1_565 S
H747 C760 0.960 . S
C748 H740 0.929 . S
C748 C749 1.393 1_554 S
C748 C750 1.384 1_554 S
C749 C748 1.393 1_556 S
C749 C755 1.373 1_565 S
C750 H741 0.930 1_556 S
C750 C748 1.384 1_556 S
C750 C751 1.372 1_565 S
C751 C750 1.372 1_545 S
C751 C752 1.400 . S
C751 C756 1.490 . S
C752 H742 0.930 . S
C752 C751 1.400 . S
C752 C755 1.386 . S
H753 C769 0.930 . S
H754 C770 0.931 . S
C755 H743 0.929 . S
C755 C749 1.373 1_545 S
C755 C752 1.386 . S
C756 C751 1.490 . S
C756 C758 1.395 . S
C756 C759 1.403 . S
H757 C763 0.930 . S
C758 H744 0.930 1_556 S
C758 C756 1.395 . S
C758 C761 1.403 . S
C759 C756 1.403 . S
C759 C760 1.524 . S
C759 C763 1.400 . S
C760 H745 0.960 . S
C760 H746 0.960 1_545 S
C760 H747 0.960 . S
C760 C759 1.524 . S
C761 C758 1.403 . S
C761 C762 1.392 . S
C761 C765 1.495 1_556 S
C762 C761 1.392 . S
C762 C763 1.385 . S
C762 C764 1.478 . S
C763 H757 0.930 . S
C763 C759 1.400 . S
C763 C762 1.385 . S
C764 C762 1.478 . S
C764 C766 1.381 1_545 S
C764 C770 1.383 . S
C765 C761 1.495 1_554 S
C765 H771 0.959 . S
C765 H772 0.961 . S
C765 H773 0.960 1_545 S
C766 C764 1.381 1_565 S
C766 C767 1.394 . S
C766 H774 0.930 . S
C767 C766 1.394 . S
C767 C768 1.383 1_565 S
C767 H775 0.929 . S
C768 C767 1.383 1_545 S
C768 C769 1.377 . S
C769 H753 0.930 . S
C769 C768 1.377 . S
C769 C770 1.379 . S
C770 H754 0.931 . S
C770 C764 1.383 . S
C770 C769 1.379 . S
H771 C765 0.959 . S
H772 C765 0.961 . S
H773 C765 0.960 1_565 S
H774 C766 0.930 . S
H775 C767 0.929 . S
H776 C784 0.929 . S
H777 C786 0.930 . S
H778 C788 0.930 . S
H779 C791 0.929 . S
H780 C794 0.930 . S
H781 C796 0.960 . S
H782 C796 0.960 1_554 S
H783 C796 0.960 . S
C784 H776 0.929 . S
C784 C785 1.377 . S
C784 C786 1.384 . S
C785 C784 1.377 . S
C785 C791 1.390 1_554 S
C786 H777 0.930 . S
C786 C784 1.384 . S
C786 C787 1.372 1_554 S
C787 C786 1.372 1_556 S
C787 C788 1.400 . S
C787 C792 1.490 . S
C788 H778 0.930 . S
C788 C787 1.400 . S
C788 C791 1.386 . S
H789 C805 0.930 . S
H790 C806 0.931 . S
C791 H779 0.929 . S
C791 C785 1.390 1_556 S
C791 C788 1.386 . S
C792 C787 1.490 . S
C792 C794 1.395 . S
C792 C795 1.403 . S
H793 C799 0.930 . S
C794 H780 0.930 . S
C794 C792 1.395 . S
C794 C797 1.403 . S
C795 C792 1.403 . S
C795 C796 1.524 . S
C795 C799 1.400 . S
C796 H781 0.960 . S
C796 H782 0.960 1_556 S
C796 H783 0.960 . S
C796 C795 1.524 . S
C797 C794 1.403 . S
C797 C798 1.392 . S
C797 C801 1.495 . S
C798 C797 1.392 . S
C798 C799 1.385 . S
C798 C800 1.478 . S
C799 H793 0.930 . S
C799 C795 1.400 . S
C799 C798 1.385 . S
C800 C798 1.478 . S
C800 C802 1.381 . S
C800 C806 1.383 . S
C801 C797 1.495 . S
C801 H807 0.959 . S
C801 H808 0.961 . S
C801 H809 0.960 . S
C802 C800 1.381 . S
C802 C803 1.394 . S
C802 H810 0.930 . S
C803 C802 1.394 . S
C803 C804 1.383 . S
C803 H811 0.929 . S
C804 C803 1.383 . S
C804 C805 1.377 . S
C805 H789 0.930 . S
C805 C804 1.377 . S
C805 C806 1.379 . S
C806 H790 0.931 . S
C806 C800 1.383 . S
C806 C805 1.379 . S
H807 C801 0.959 . S
H808 C801 0.961 . S
H809 C801 0.960 . S
H810 C802 0.930 . S
H811 C803 0.929 . S
H812 C820 0.929 . S
H813 C822 0.930 . S
H814 C824 0.930 . S
H815 C827 0.929 1_556 S
H816 C830 0.930 . S
H817 C832 0.960 . S
H818 C832 0.960 . S
H819 C832 0.960 . S
C820 H812 0.929 . S
C820 C821 1.377 . S
C820 C822 1.384 . S
C821 C820 1.377 . S
C821 C827 1.390 . S
C822 H813 0.930 . S
C822 C820 1.384 . S
C822 C823 1.372 . S
C823 C822 1.372 . S
C823 C824 1.400 1_554 S
C823 C828 1.490 1_554 S
C824 H814 0.930 . S
C824 C823 1.400 1_556 S
C824 C827 1.386 1_556 S
H825 C841 0.930 . S
H826 C842 0.931 . S
C827 H815 0.929 1_554 S
C827 C821 1.390 . S
C827 C824 1.386 1_554 S
C828 C823 1.490 1_556 S
C828 C830 1.395 1_556 S
C828 C831 1.403 . S
H829 C835 0.930 . S
C830 H816 0.930 . S
C830 C828 1.395 1_554 S
C830 C833 1.403 1_554 S
C831 C828 1.403 . S
C831 C832 1.524 . S
C831 C835 1.400 . S
C832 H817 0.960 . S
C832 H818 0.960 . S
C832 H819 0.960 . S
C832 C831 1.524 . S
C833 C830 1.403 1_556 S
C833 C834 1.392 . S
C833 C837 1.495 . S
C834 C833 1.392 . S
C834 C835 1.385 . S
C834 C836 1.478 . S
C835 H829 0.930 . S
C835 C831 1.400 . S
C835 C834 1.385 . S
C836 C834 1.478 . S
C836 C838 1.381 . S
C836 C842 1.383 . S
C837 C833 1.495 . S
C837 H843 0.959 1_556 S
C837 H844 0.961 . S
C837 H845 0.960 1_556 S
C838 C836 1.381 . S
C838 C839 1.394 . S
C838 H846 0.930 . S
C839 C838 1.394 . S
C839 C840 1.383 . S
C839 H847 0.929 . S
C840 C839 1.383 . S
C840 C841 1.377 . S
C841 H825 0.930 . S
C841 C840 1.377 . S
C841 C842 1.379 . S
C842 H826 0.931 . S
C842 C836 1.383 . S
C842 C841 1.379 . S
H843 C837 0.959 1_554 S
H844 C837 0.961 . S
H845 C837 0.960 1_554 S
H846 C838 0.930 . S
H847 C839 0.929 . S
H848 C856 0.929 . S
H849 C858 0.930 . S
H850 C860 0.930 . S
H851 C863 0.929 . S
H852 C866 0.930 . S
H853 C868 0.960 1_655 S
H854 C868 0.960 . S
H855 C868 0.960 . S
C856 H848 0.929 . S
C856 C857 1.377 . S
C856 C858 1.384 . S
C857 C856 1.377 . S
C857 C863 1.390 . S
C858 H849 0.930 . S
C858 C856 1.384 . S
C858 C859 1.372 . S
C859 C858 1.372 . S
C859 C860 1.400 . S
C859 C864 1.490 . S
C860 H850 0.930 . S
C860 C859 1.400 . S
C860 C863 1.386 . S
H861 C877 0.930 . S
H862 C878 0.931 . S
C863 H851 0.929 . S
C863 C857 1.390 . S
C863 C860 1.386 . S
C864 C859 1.490 . S
C864 C866 1.395 . S
C864 C867 1.403 . S
H865 C871 0.930 . S
C866 H852 0.930 . S
C866 C864 1.395 . S
C866 C869 1.403 . S
C867 C864 1.403 . S
C867 C868 1.524 . S
C867 C871 1.400 . S
C868 H853 0.960 1_455 S
C868 H854 0.960 . S
C868 H855 0.960 . S
C868 C867 1.524 . S
C869 C866 1.403 . S
C869 C870 1.392 . S
C869 C873 1.495 . S
C870 C869 1.392 . S
C870 C871 1.385 . S
C870 C872 1.478 . S
C871 H865 0.930 . S
C871 C867 1.400 . S
C871 C870 1.385 . S
C872 C870 1.478 . S
C872 C874 1.381 . S
C872 C878 1.383 . S
C873 C869 1.495 . S
C873 H879 0.959 . S
C873 H880 0.961 . S
C873 H881 0.960 . S
C874 C872 1.381 . S
C874 C875 1.394 1_554 S
C874 H882 0.930 1_554 S
C875 C874 1.394 1_556 S
C875 C876 1.383 . S
C875 H883 0.929 . S
C876 C875 1.383 . S
C876 C877 1.377 1_556 S
C877 H861 0.930 . S
C877 C876 1.377 1_554 S
C877 C878 1.379 . S
C878 H862 0.931 . S
C878 C872 1.383 . S
C878 C877 1.379 . S
H879 C873 0.959 . S
H880 C873 0.961 . S
H881 C873 0.960 . S
H882 C874 0.930 1_556 S
H883 C875 0.929 . S
H884 C892 0.929 1_565 S
H885 C894 0.930 1_565 S
H886 C896 0.930 . S
H887 C899 0.929 . S
H888 C902 0.930 . S
H889 C904 0.960 . S
H890 C904 0.960 . S
H891 C904 0.960 . S
C892 H884 0.929 1_545 S
C892 C893 1.377 . S
C892 C894 1.384 . S
C893 C892 1.377 . S
C893 C899 1.390 . S
C894 H885 0.930 1_545 S
C894 C892 1.384 . S
C894 C895 1.372 . S
C895 C894 1.372 . S
C895 C896 1.400 . S
C895 C900 1.490 . S
C896 H886 0.930 . S
C896 C895 1.400 . S
C896 C899 1.386 . S
H897 C913 0.930 . S
H898 C914 0.931 . S
C899 H887 0.929 . S
C899 C893 1.390 . S
C899 C896 1.386 . S
C900 C895 1.490 . S
C900 C902 1.395 . S
C900 C903 1.403 . S
H901 C907 0.930 . S
C902 H888 0.930 . S
C902 C900 1.395 . S
C902 C905 1.403 . S
C903 C900 1.403 . S
C903 C904 1.524 . S
C903 C907 1.400 . S
C904 H889 0.960 . S
C904 H890 0.960 . S
C904 H891 0.960 . S
C904 C903 1.524 . S
C905 C902 1.403 . S
C905 C906 1.392 . S
C905 C909 1.495 . S
C906 C905 1.392 . S
C906 C907 1.385 . S
C906 C908 1.478 . S
C907 H901 0.930 . S
C907 C903 1.400 . S
C907 C906 1.385 . S
C908 C906 1.478 . S
C908 C910 1.381 . S
C908 C914 1.383 . S
C909 C905 1.495 . S
C909 H915 0.959 . S
C909 H916 0.961 . S
C909 H917 0.960 . S
C910 C908 1.381 . S
C910 C911 1.394 . S
C910 H918 0.930 1_545 S
C911 C910 1.394 . S
C911 C912 1.383 1_554 S
C911 H919 0.929 1_544 S
C912 C911 1.383 1_556 S
C912 C913 1.377 1_556 S
C913 H897 0.930 . S
C913 C912 1.377 1_554 S
C913 C914 1.379 . S
C914 H898 0.931 . S
C914 C908 1.383 . S
C914 C913 1.379 . S
H915 C909 0.959 . S
H916 C909 0.961 . S
H917 C909 0.960 . S
H918 C910 0.930 1_565 S
H919 C911 0.929 1_566 S
H920 C928 0.929 . S
H921 C930 0.930 . S
H922 C932 0.930 . S
H923 C935 0.929 . S
H924 C938 0.930 . S
H925 C940 0.960 . S
H926 C940 0.960 . S
H927 C940 0.960 . S
C928 H920 0.929 . S
C928 C929 1.377 . S
C928 C930 1.384 . S
C929 C928 1.377 . S
C929 C935 1.390 . S
C930 H921 0.930 . S
C930 C928 1.384 . S
C930 C931 1.372 . S
C931 C930 1.372 . S
C931 C932 1.400 . S
C931 C936 1.490 . S
C932 H922 0.930 . S
C932 C931 1.400 . S
C932 C935 1.386 . S
H933 C949 0.930 . S
H934 C950 0.929 1_554 S
C935 H923 0.929 . S
C935 C929 1.390 . S
C935 C932 1.386 . S
C936 C931 1.490 . S
C936 C938 1.395 . S
C936 C939 1.403 . S
H937 C943 0.930 . S
C938 H924 0.930 . S
C938 C936 1.395 . S
C938 C941 1.403 . S
C939 C936 1.403 . S
C939 C940 1.524 . S
C939 C943 1.400 . S
C940 H925 0.960 . S
C940 H926 0.960 . S
C940 H927 0.960 . S
C940 C939 1.524 . S
C941 C938 1.403 . S
C941 C942 1.392 . S
C941 C945 1.495 1_554 S
C942 C941 1.392 . S
C942 C943 1.385 . S
C942 C944 1.478 1_554 S
C943 H937 0.930 . S
C943 C939 1.400 . S
C943 C942 1.385 . S
C944 C942 1.478 1_556 S
C944 C946 1.381 . S
C944 C950 1.383 . S
C945 C941 1.495 1_556 S
C945 H951 0.959 . S
C945 H952 0.961 . S
C945 H953 0.960 . S
C946 C944 1.381 . S
C946 C947 1.394 . S
C946 H954 0.930 . S
C947 C946 1.394 . S
C947 C948 1.383 . S
C947 H955 0.929 . S
C948 C947 1.383 . S
C948 C949 1.377 . S
C949 H933 0.930 . S
C949 C948 1.377 . S
C949 C950 1.379 . S
C950 H934 0.929 1_556 S
C950 C944 1.383 . S
C950 C949 1.379 . S
H951 C945 0.959 . S
H952 C945 0.961 . S
H953 C945 0.960 . S
H954 C946 0.930 . S
H955 C947 0.929 . S
H956 C964 0.929 . S
H957 C966 0.930 . S
H958 C968 0.930 . S
H959 C971 0.929 . S
H960 C974 0.930 . S
H961 C976 0.960 . S
H962 C976 0.960 . S
H963 C976 0.960 . S
C964 H956 0.929 . S
C964 C965 1.377 . S
C964 C966 1.384 . S
C965 C964 1.377 . S
C965 C971 1.390 . S
C966 H957 0.930 . S
C966 C964 1.384 . S
C966 C967 1.372 . S
C967 C966 1.372 . S
C967 C968 1.400 . S
C967 C972 1.490 . S
C968 H958 0.930 . S
C968 C967 1.400 . S
C968 C971 1.386 . S
H969 C985 0.930 . S
H970 C986 0.931 1_554 S
C971 H959 0.929 . S
C971 C965 1.390 . S
C971 C968 1.386 . S
C972 C967 1.490 . S
C972 C974 1.395 . S
C972 C975 1.403 . S
H973 C979 0.930 . S
C974 H960 0.930 . S
C974 C972 1.395 . S
C974 C977 1.411 . S
C975 C972 1.403 . S
C975 C976 1.524 . S
C975 C979 1.400 . S
C976 H961 0.960 . S
C976 H962 0.960 . S
C976 H963 0.960 . S
C976 C975 1.524 . S
C977 C974 1.411 . S
C977 C978 1.395 . S
C977 C981 1.485 1_554 S
C978 C977 1.395 . S
C978 C979 1.385 . S
C978 C980 1.478 1_554 S
C979 H973 0.930 . S
C979 C975 1.400 . S
C979 C978 1.385 . S
C980 C978 1.478 1_556 S
C980 C982 1.381 . S
C980 C986 1.383 . S
C981 C977 1.485 1_556 S
C981 H987 0.959 . S
C981 H988 0.961 . S
C981 H989 0.960 . S
C982 C980 1.381 . S
C982 C983 1.394 . S
C982 H990 0.930 . S
C983 C982 1.394 . S
C983 C984 1.383 . S
C983 H991 0.929 . S
C984 C983 1.383 . S
C984 C985 1.377 . S
C985 H969 0.930 . S
C985 C984 1.377 . S
C985 C986 1.379 . S
C986 H970 0.931 1_556 S
C986 C980 1.383 . S
C986 C985 1.379 . S
H987 C981 0.959 . S
H988 C981 0.961 . S
H989 C981 0.960 . S
H990 C982 0.930 . S
H991 C983 0.929 . S
H992 C1000 0.929 . S
H993 C1002 0.930 . S
H994 C1004 0.930 1_455 S
H995 C1007 0.927 . S
H996 C1010 0.930 . S
H997 C1012 0.960 . S
H998 C1012 0.960 . S
H999 C1012 0.960 . S
C1000 H992 0.929 . S
C1000 C1001 1.377 . S
C1000 C1002 1.384 . S
C1001 C1000 1.377 . S
C1001 C1007 1.390 . S
C1002 H993 0.930 . S
C1002 C1000 1.384 . S
C1002 C1003 1.372 . S
C1003 C1002 1.372 . S
C1003 C1004 1.400 . S
C1003 C1008 1.490 . S
C1004 H994 0.930 1_655 S
C1004 C1003 1.400 . S
C1004 C1007 1.386 . S
H1005 C1021 0.976 . S
H1006 C1022 0.931 1_455 S
C1007 H995 0.927 . S
C1007 C1001 1.390 . S
C1007 C1004 1.386 . S
C1008 C1003 1.490 . S
C1008 C1010 1.395 . S
C1008 C1011 1.403 . S
H1009 C1015 0.930 1_455 S
C1010 H996 0.930 . S
C1010 C1008 1.395 . S
C1010 C1013 1.403 . S
C1011 C1008 1.403 . S
C1011 C1012 1.524 1_655 S
C1011 C1015 1.400 . S
C1012 H997 0.960 . S
C1012 H998 0.960 . S
C1012 H999 0.960 . S
C1012 C1011 1.524 1_455 S
C1013 C1010 1.403 . S
C1013 C1014 1.392 . S
C1013 C1017 1.495 . S
C1014 C1013 1.392 . S
C1014 C1015 1.385 . S
C1014 C1016 1.478 . S
C1015 H1009 0.930 1_655 S
C1015 C1011 1.400 . S
C1015 C1014 1.385 . S
C1016 C1014 1.478 . S
C1016 C1018 1.381 . S
C1016 C1022 1.383 . S
C1017 C1013 1.495 . S
C1017 H1023 0.959 . S
C1017 H1024 0.961 . S
C1017 H1025 0.960 . S
C1018 C1016 1.381 . S
C1018 C1019 1.394 . S
C1018 H1026 0.930 . S
C1019 C1018 1.394 . S
C1019 C1020 1.383 . S
C1019 H1027 0.929 . S
C1020 C1019 1.383 . S
C1020 C1021 1.341 1_655 S
C1021 H1005 0.976 . S
C1021 C1020 1.341 1_455 S
C1021 C1022 1.372 1_455 S
C1022 H1006 0.931 1_655 S
C1022 C1016 1.383 . S
C1022 C1021 1.372 1_655 S
H1023 C1017 0.959 . S
H1024 C1017 0.961 . S
H1025 C1017 0.960 . S
H1026 C1018 0.930 . S
H1027 C1019 0.929 . S
H1028 C1036 0.929 . S
H1029 C1038 0.930 . S
H1030 C1040 0.930 . S
H1031 C1043 0.929 . S
H1032 C1046 0.930 . S
H1033 C1048 0.960 . S
H1034 C1048 0.960 . S
H1035 C1048 0.960 . S
C1036 H1028 0.929 . S
C1036 C1037 1.377 . S
C1036 C1038 1.384 . S
C1037 C1036 1.377 . S
C1037 C1043 1.390 1_545 S
C1038 H1029 0.930 . S
C1038 C1036 1.384 . S
C1038 C1039 1.410 . S
C1039 C1038 1.410 . S
C1039 C1040 1.357 1_545 S
C1039 C1044 1.495 . S
C1040 H1030 0.930 . S
C1040 C1039 1.357 1_565 S
C1040 C1043 1.386 . S
H1041 C1057 0.930 . S
H1042 C1058 0.931 . S
C1043 H1031 0.929 . S
C1043 C1037 1.390 1_565 S
C1043 C1040 1.386 . S
C1044 C1039 1.495 . S
C1044 C1046 1.395 . S
C1044 C1047 1.403 1_545 S
H1045 C1051 0.930 . S
C1046 H1032 0.930 . S
C1046 C1044 1.395 . S
C1046 C1049 1.403 . S
C1047 C1044 1.403 1_565 S
C1047 C1048 1.524 . S
C1047 C1051 1.400 . S
C1048 H1033 0.960 . S
C1048 H1034 0.960 . S
C1048 H1035 0.960 . S
C1048 C1047 1.524 . S
C1049 C1046 1.403 . S
C1049 C1050 1.392 . S
C1049 C1053 1.495 . S
C1050 C1049 1.392 . S
C1050 C1051 1.385 1_545 S
C1050 C1052 1.478 . S
C1051 H1045 0.930 . S
C1051 C1047 1.400 . S
C1051 C1050 1.385 1_565 S
C1052 C1050 1.478 . S
C1052 C1054 1.381 . S
C1052 C1058 1.383 1_545 S
C1053 C1049 1.495 . S
C1053 H1059 0.959 . S
C1053 H1060 0.961 . S
C1053 H1061 0.960 . S
C1054 C1052 1.381 . S
C1054 C1055 1.394 . S
C1054 H1062 0.930 . S
C1055 C1054 1.394 . S
C1055 C1056 1.381 1_545 S
C1055 H1063 0.929 . S
C1056 C1055 1.381 1_565 S
C1056 C1057 1.379 . S
C1057 H1041 0.930 . S
C1057 C1056 1.379 . S
C1057 C1058 1.379 . S
C1058 H1042 0.931 . S
C1058 C1052 1.383 1_565 S
C1058 C1057 1.379 . S
H1059 C1053 0.959 . S
H1060 C1053 0.961 . S
H1061 C1053 0.960 . S
H1062 C1054 0.930 . S
H1063 C1055 0.929 . S
H1064 C1072 0.929 . S
H1065 C1074 0.930 . S
H1066 C1076 0.930 . S
H1067 C1079 0.929 . S
H1068 C1082 0.930 . S
H1069 C1084 0.960 . S
H1070 C1084 0.960 . S
H1071 C1084 0.960 . S
C1072 H1064 0.929 . S
C1072 C1073 1.377 . S
C1072 C1074 1.384 . S
C1073 C1072 1.377 . S
C1073 C1079 1.390 . S
C1074 H1065 0.930 . S
C1074 C1072 1.384 . S
C1074 C1075 1.372 . S
C1075 C1074 1.372 . S
C1075 C1076 1.400 . S
C1075 C1080 1.490 . S
C1076 H1066 0.930 . S
C1076 C1075 1.400 . S
C1076 C1079 1.386 . S
H1077 C1093 0.930 . S
H1078 C1094 0.931 . S
C1079 H1067 0.929 . S
C1079 C1073 1.390 . S
C1079 C1076 1.386 . S
C1080 C1075 1.490 . S
C1080 C1082 1.395 . S
C1080 C1083 1.403 . S
H1081 C1087 0.930 . S
C1082 H1068 0.930 . S
C1082 C1080 1.395 . S
C1082 C1085 1.403 . S
C1083 C1080 1.403 . S
C1083 C1084 1.524 . S
C1083 C1087 1.400 . S
C1084 H1069 0.960 . S
C1084 H1070 0.960 . S
C1084 H1071 0.960 . S
C1084 C1083 1.524 . S
C1085 C1082 1.403 . S
C1085 C1086 1.392 . S
C1085 C1089 1.495 . S
C1086 C1085 1.392 . S
C1086 C1087 1.385 . S
C1086 C1088 1.478 . S
C1087 H1081 0.930 . S
C1087 C1083 1.400 . S
C1087 C1086 1.385 . S
C1088 C1086 1.478 . S
C1088 C1090 1.381 . S
C1088 C1094 1.383 . S
C1089 C1085 1.495 . S
C1089 H1095 0.959 . S
C1089 H1096 0.961 . S
C1089 H1097 0.960 . S
C1090 C1088 1.381 . S
C1090 C1091 1.394 . S
C1090 H1098 0.930 . S
C1091 C1090 1.394 . S
C1091 C1092 1.383 . S
C1091 H1099 0.929 . S
C1092 C1091 1.383 . S
C1092 C1093 1.377 . S
C1093 H1077 0.930 . S
C1093 C1092 1.377 . S
C1093 C1094 1.379 . S
C1094 H1078 0.931 . S
C1094 C1088 1.383 . S
C1094 C1093 1.379 . S
H1095 C1089 0.959 . S
H1096 C1089 0.961 . S
H1097 C1089 0.960 . S
H1098 C1090 0.930 . S
H1099 C1091 0.929 . S
H1100 C1108 0.929 . S
H1101 C1110 0.930 . S
H1102 C1112 0.930 . S
H1103 C1115 0.929 . S
H1104 C1118 0.930 . S
H1105 C1120 0.960 . S
H1106 C1120 0.960 . S
H1107 C1120 0.960 . S
C1108 H1100 0.929 . S
C1108 C1109 1.377 . S
C1108 C1110 1.384 . S
C1109 C1108 1.377 . S
C1109 C1115 1.390 . S
C1110 H1101 0.930 . S
C1110 C1108 1.384 . S
C1110 C1111 1.372 . S
C1111 C1110 1.372 . S
C1111 C1112 1.400 . S
C1111 C1116 1.490 . S
C1112 H1102 0.930 . S
C1112 C1111 1.400 . S
C1112 C1115 1.386 . S
H1113 C1129 0.930 . S
H1114 C1130 0.931 . S
C1115 H1103 0.929 . S
C1115 C1109 1.390 . S
C1115 C1112 1.386 . S
C1116 C1111 1.490 . S
C1116 C1118 1.395 . S
C1116 C1119 1.403 . S
H1117 C1123 0.930 . S
C1118 H1104 0.930 . S
C1118 C1116 1.395 . S
C1118 C1121 1.403 . S
C1119 C1116 1.403 . S
C1119 C1120 1.524 . S
C1119 C1123 1.400 . S
C1120 H1105 0.960 . S
C1120 H1106 0.960 . S
C1120 H1107 0.960 . S
C1120 C1119 1.524 . S
C1121 C1118 1.403 . S
C1121 C1122 1.392 . S
C1121 C1125 1.495 . S
C1122 C1121 1.392 . S
C1122 C1123 1.385 . S
C1122 C1124 1.478 . S
C1123 H1117 0.930 . S
C1123 C1119 1.400 . S
C1123 C1122 1.385 . S
C1124 C1122 1.478 . S
C1124 C1126 1.381 . S
C1124 C1130 1.383 . S
C1125 C1121 1.495 . S
C1125 H1131 0.959 . S
C1125 H1132 0.961 . S
C1125 H1133 0.960 . S
C1126 C1124 1.381 . S
C1126 C1127 1.394 . S
C1126 H1134 0.930 . S
C1127 C1126 1.394 . S
C1127 C1128 1.383 . S
C1127 H1135 0.929 . S
C1128 C1127 1.383 . S
C1128 C1129 1.377 . S
C1129 H1113 0.930 . S
C1129 C1128 1.377 . S
C1129 C1130 1.379 . S
C1130 H1114 0.931 . S
C1130 C1124 1.383 . S
C1130 C1129 1.379 . S
H1131 C1125 0.959 . S
H1132 C1125 0.961 . S
H1133 C1125 0.960 . S
H1134 C1126 0.930 . S
H1135 C1127 0.929 . S
C281 C125 1.597 . S
C300 C162 1.699 . S
C336 C192 1.842 . S
C317 C144 1.710 . S
C372 N226 1.439 . S
C353 C87 1.371 . S
C408 N256 1.333 . S
C389 C106 1.308 . S
C444 C153 1.697 . S
C425 C49 1.602 1_546 S
C461 C68 1.760 . S
C480 C183 1.842 . S
C497 C11 1.409 . S
C516 N218 1.434 . S
C533 C30 1.357 . S
C552 N248 1.354 . S
C588 C168 0.222 . S
C569 C97 0.436 . S
C624 C198 0.600 . S
C605 C116 0.644 . S
C660 C239 0.876 . S
C641 C135 0.855 . S
C677 C78 0.512 . S
C696 C269 0.472 . S
C713 C21 0.463 . S
C732 C179 0.245 . S
C768 C209 0.640 . S
C749 C40 0.652 1_556 S
C804 C228 0.884 . S
C785 C59 0.850 . S
C821 C2 0.499 . S
C840 C258 0.515 . S
C857 C101 1.480 . S
C876 N158 1.486 . S
C893 C120 1.464 . S
C912 N188 1.455 . S
C948 C213 1.633 . S
C929 C139 1.616 . S
C984 C243 1.623 . S
C965 C82 1.599 . S
C1001 C25 1.473 . S
C1020 N166 1.489 . S
C1056 N196 1.437 1_565 S
C1037 C44 1.469 1_545 S
C1092 C222 1.643 . S
C1073 C63 1.621 . S
C1109 C6 1.604 . S
C1128 C252 1.624 . S
