# Generated by pormake.
# Topology anh, (6,3)-cn, num edge types: 1
# Building blocks:
#     Node 0, Type 0, BuildingBlock: INOVEN_clean_sbu_0, # of connection points: 6
#     Node 1, Type 0, BuildingBlock: INOVEN_clean_sbu_0, # of connection points: 6
#     Node 2, Type 0, BuildingBlock: INOVEN_clean_sbu_0, # of connection points: 6
#     Node 3, Type 1, BuildingBlock: QEWDON_clean_linker_0, # of connection points: 3
#     Node 4, Type 1, BuildingBlock: QEWDON_clean_linker_0, # of connection points: 3
#     Node 5, Type 1, BuildingBlock: QEWDON_clean_linker_0, # of connection points: 3
#     Node 6, Type 1, BuildingBlock: QEWDON_clean_linker_0, # of connection points: 3
#     Node 7, Type 1, BuildingBlock: QEWDON_clean_linker_0, # of connection points: 3
#     Node 8, Type 1, BuildingBlock: QEWDON_clean_linker_0, # of connection points: 3
#     Edge 9, Type (0, 1), BuildingBlock: TEMPAE_clean_linker_10, # of connection points: 2
#     Edge 10, Type (0, 1), BuildingBlock: TEMPAE_clean_linker_10, # of connection points: 2
#     Edge 11, Type (0, 1), BuildingBlock: TEMPAE_clean_linker_10, # of connection points: 2
#     Edge 12, Type (0, 1), BuildingBlock: TEMPAE_clean_linker_10, # of connection points: 2
#     Edge 13, Type (0, 1), BuildingBlock: TEMPAE_clean_linker_10, # of connection points: 2
#     Edge 14, Type (0, 1), BuildingBlock: TEMPAE_clean_linker_10, # of connection points: 2
#     Edge 15, Type (0, 1), BuildingBlock: TEMPAE_clean_linker_10, # of connection points: 2
#     Edge 16, Type (0, 1), BuildingBlock: TEMPAE_clean_linker_10, # of connection points: 2
#     Edge 17, Type (0, 1), BuildingBlock: TEMPAE_clean_linker_10, # of connection points: 2
#     Edge 18, Type (0, 1), BuildingBlock: TEMPAE_clean_linker_10, # of connection points: 2
#     Edge 19, Type (0, 1), BuildingBlock: TEMPAE_clean_linker_10, # of connection points: 2
#     Edge 20, Type (0, 1), BuildingBlock: TEMPAE_clean_linker_10, # of connection points: 2
#     Edge 21, Type (0, 1), BuildingBlock: TEMPAE_clean_linker_10, # of connection points: 2
#     Edge 22, Type (0, 1), BuildingBlock: TEMPAE_clean_linker_10, # of connection points: 2
#     Edge 23, Type (0, 1), BuildingBlock: TEMPAE_clean_linker_10, # of connection points: 2
#     Edge 24, Type (0, 1), BuildingBlock: TEMPAE_clean_linker_10, # of connection points: 2
#     Edge 25, Type (0, 1), BuildingBlock: TEMPAE_clean_linker_10, # of connection points: 2
#     Edge 26, Type (0, 1), BuildingBlock: TEMPAE_clean_linker_10, # of connection points: 2
# Relax obj value: 0.129
# Max RMSD: 0.176
# Mean RMSD: 0.124
data_MOF--net-anh--node1-INOVEN_clean_sbu_0--node2-QEWDON_clean_linker_0--edge1-TEMPAE_clean_linker_10
_symmetry_space_group_name_H-M    P1
_symmetry_Int_Tables_number       1
_symmetry_cell_setting            triclinic
loop_
_symmetry_equiv_pos_as_xyz
'x, y, z'
_cell_length_a     32.543476
_cell_length_b     39.849818
_cell_length_c     48.594433
_cell_angle_alpha  96.200496
_cell_angle_beta   91.90036
_cell_angle_gamma 129.74234
loop_
_atom_site_label
_atom_site_type_symbol
_atom_site_fract_x
_atom_site_fract_y
_atom_site_fract_z
_atom_type_partial_charge
Gd0 Gd 0.18758 0.57303 0.14689 0.0
Gd1 Gd 0.1318 0.60351 0.17498 0.0
C2 C 0.25015 0.67864 0.16404 0.0
C3 C 0.23919 0.55823 0.11593 0.0
C4 C 0.23838 0.52137 0.10754 0.0
C5 C 0.19593 0.47861 0.11245 0.0
C6 C 0.28132 0.52935 0.09502 0.0
C7 C 0.23997 0.45201 0.0925 0.0
C8 C 0.28221 0.49503 0.0876 0.0
C9 C 0.19668 0.44412 0.10495 0.0
C10 C 0.18956 0.5752 0.20243 0.0
C11 C 1.06615 0.49664 0.15607 0.0
C12 C 1.07646 0.61095 0.20784 0.0
C13 C 1.01816 0.5806 0.20956 0.0
C14 C 0.98876 0.53475 0.20614 0.0
C15 C 0.99035 0.59659 0.21015 0.0
C16 C 0.9048 0.52115 0.19758 0.0
C17 C 0.93407 0.56711 0.20459 0.0
C18 C 0.93275 0.50535 0.20005 0.0
C19 C 0.12736 0.59999 0.11912 0.0
O20 O 0.24285 0.64727 0.14594 0.0
O21 O 0.21536 0.66863 0.18174 0.0
O22 O 0.19685 0.5526 0.10618 0.0
O23 O 0.25605 0.57646 0.14228 0.0
O24 O 0.18432 0.54485 0.18546 0.0
O25 O 0.19629 0.60375 0.18946 0.0
O26 O 1.06805 0.5286 0.16921 0.0
O27 O 0.10693 0.50511 0.14388 0.0
O28 O 0.09002 0.62817 0.18493 0.0
O29 O 0.10241 0.59756 0.21501 0.0
O30 O 0.1305 0.62935 0.13604 0.0
O31 O 0.12264 0.57243 0.13233 0.0
H32 H 0.16247 0.472 0.1222 0.0
H33 H 0.31454 0.56228 0.09128 0.0
H34 H 0.31668 0.50248 0.07858 0.0
H35 H 0.16341 0.41134 0.10883 0.0
H36 H 1.00905 0.52138 0.20627 0.0
H37 H 1.01225 0.63188 0.21319 0.0
H38 H 0.91391 0.58059 0.20415 0.0
H39 H 0.91225 0.47044 0.19521 0.0
Gd40 Gd 0.72617 0.10695 0.49411 0.0
Gd41 Gd 0.64617 0.12553 0.47884 0.0
C42 C 0.59608 0.02512 0.47577 0.0
C43 C 0.77048 0.08397 0.52238 0.0
C44 C 0.75814 0.04135 0.5234 0.0
C45 C 0.79566 0.03628 0.51656 0.0
C46 C 0.70866 1.0052 0.53076 0.0
C47 C 0.73409 0.95944 0.52393 0.0
C48 C 0.69692 0.96487 0.53114 0.0
C49 C 0.78373 0.99574 0.51673 0.0
C50 C 0.70481 0.09809 0.43797 0.0
C51 C 0.77829 0.20779 0.49152 0.0
C52 C 0.59793 0.15235 0.46022 0.0
C53 C 0.61061 0.19506 0.46051 0.0
C54 C 0.56988 0.19728 0.46425 0.0
C55 C 0.66342 0.23417 0.45987 0.0
C56 C 0.63507 0.27761 0.46878 0.0
C57 C 0.67556 0.27514 0.46397 0.0
C58 C 0.5819 0.23809 0.46833 0.0
C59 C 0.65727 0.11521 0.53154 0.0
O60 O 0.64233 0.0397 0.48924 0.0
O61 O 0.58996 0.05168 0.46591 0.0
O62 O 0.78782 0.10111 0.49958 0.0
O63 O 0.73595 0.08755 0.53188 0.0
O64 O 0.73597 0.0919 0.44905 0.0
O65 O 0.68718 0.10692 0.45737 0.0
O66 O 0.72909 0.19358 0.48414 0.0
O67 O 0.78745 0.18121 0.49772 0.0
O68 O 0.59334 0.14026 0.48467 0.0
O69 O 0.62393 0.14434 0.44476 0.0
O70 O 0.61225 0.10141 0.51851 0.0
O71 O 0.69478 0.13581 0.51666 0.0
H72 H 0.83403 0.06357 0.51077 0.0
H73 H 0.6787 1.00785 0.53618 0.0
H74 H 0.65869 0.93798 0.53725 0.0
H75 H 0.81305 0.99265 0.51069 0.0
H76 H 0.52898 0.1675 0.46503 0.0
H77 H 0.69546 0.23315 0.45692 0.0
H78 H 0.71671 0.30492 0.46383 0.0
H79 H 0.54989 0.23876 0.47237 0.0
Gd80 Gd 0.6621 0.62111 0.84712 0.0
Gd81 Gd 0.58023 0.52173 0.83877 0.0
C82 C 0.5312 0.57051 0.84448 0.0
C83 C 0.71644 0.70356 0.8434 0.0
C84 C 0.7037 0.73171 0.83755 0.0
C85 C 0.73647 0.77558 0.85141 0.0
C86 C 0.65912 0.7153 0.81829 0.0
C87 C 0.68087 0.78683 0.82653 0.0
C88 C 0.64799 0.74265 0.81273 0.0
C89 C 0.72513 0.80287 0.84604 0.0
C90 C 0.64568 0.58489 0.89351 0.0
C91 C 0.71132 0.5724 0.8428 0.0
C92 C 0.52794 0.43922 0.84156 0.0
C93 C 0.54231 0.41084 0.84053 0.0
C94 C 0.50623 0.36774 0.82543 0.0
C95 C 0.59299 0.42716 0.85273 0.0
C96 C 0.57238 0.35829 0.83321 0.0
C97 C 0.60789 0.40107 0.84915 0.0
C98 C 0.52104 0.34166 0.82182 0.0
C99 C 0.59815 0.55688 0.79161 0.0
O100 O 0.58081 0.6067 0.84176 0.0
O101 O 0.52149 0.5332 0.84678 0.0
O102 O 0.70457 0.68882 0.86716 0.0
O103 O 0.70434 0.67362 0.82256 0.0
O104 O 0.69302 0.61883 0.88863 0.0
O105 O 0.6101 0.57342 0.87429 0.0
O106 O 0.66134 0.53606 0.84466 0.0
O107 O 0.72146 0.60986 0.84047 0.0
O108 O 0.52896 0.4533 0.81831 0.0
O109 O 0.54892 0.46991 0.86363 0.0
O110 O 0.55092 0.52295 0.79651 0.0
O111 O 0.63354 0.56929 0.81134 0.0
H112 H 0.77081 0.78873 0.86648 0.0
H113 H 0.63302 0.6814 0.80743 0.0
H114 H 0.61395 0.72926 0.79737 0.0
H115 H 0.75069 0.83638 0.85748 0.0
H116 H 0.46696 0.35456 0.81588 0.0
H117 H 0.62141 0.46029 0.86463 0.0
H118 H 0.64775 0.41487 0.85812 0.0
H119 H 0.49244 0.30855 0.80986 0.0
H120 H 0.67097 0.13063 0.22195 0.0
C121 C 0.64405 0.09576 0.21304 0.0
C122 C 0.62387 0.06411 0.23081 0.0
C123 C 0.62656 0.08235 0.18406 0.0
H124 H 0.57216 0.99455 0.2329 0.0
C125 C 0.58772 0.01895 0.21923 0.0
C126 C 0.56975 1.00464 0.19051 0.0
C127 C 0.58933 0.03656 0.17302 0.0
C128 C 0.64305 0.11571 0.16562 0.0
H129 H 0.57543 0.02567 0.1508 0.0
C130 C 0.69676 0.15614 0.16799 0.0
C131 C 0.71095 0.18701 0.15017 0.0
C132 C 0.60387 0.10723 0.14564 0.0
H133 H 0.56217 0.07719 0.14368 0.0
C134 C 0.61752 0.13775 0.12835 0.0
H135 H 0.72751 0.16302 0.18312 0.0
C136 C 0.67042 0.17722 0.13054 0.0
H137 H 0.67943 0.20049 0.11703 0.0
H138 H 0.58679 0.13089 0.11324 0.0
H139 H 0.62481 0.60594 0.57975 0.0
C140 C 0.63657 0.58729 0.57138 0.0
C141 C 0.64891 0.56846 0.58931 0.0
C142 C 0.63573 0.5796 0.54233 0.0
H143 H 0.67294 0.52912 0.59126 0.0
C144 C 0.66196 0.54287 0.57772 0.0
C145 C 0.65981 0.5338 0.54875 0.0
C146 C 0.64756 0.55293 0.53127 0.0
C147 C 0.61857 0.59643 0.52313 0.0
H148 H 0.64543 0.54584 0.50886 0.0
C149 C 0.63947 0.64063 0.52828 0.0
C150 C 0.62468 0.6565 0.50909 0.0
C151 C 0.58143 0.56806 0.49907 0.0
H152 H 0.56385 0.53371 0.49483 0.0
C153 C 0.56618 0.58353 0.48029 0.0
H154 H 0.66845 0.66295 0.54661 0.0
C155 C 0.58781 0.62746 0.48513 0.0
H156 H 0.57525 0.63869 0.47025 0.0
H157 H 0.53752 0.56136 0.46187 0.0
H158 H 0.13693 0.56594 0.89875 0.0
C159 C 0.10903 0.56984 0.89068 0.0
C160 C 1.08052 0.57477 0.90941 0.0
C161 C 0.09936 0.5669 0.86172 0.0
H162 H 1.02032 0.58112 0.9139 0.0
C163 C 1.04205 0.57756 0.89918 0.0
C164 C 1.03033 0.5752 0.87059 0.0
C165 C 1.05936 0.56968 0.85187 0.0
C166 C 0.12721 0.55654 0.84212 0.0
H167 H 1.05111 0.56812 0.82982 0.0
C168 C 0.1791 0.56859 0.84966 0.0
C169 C 0.20128 0.55519 0.83085 0.0
C170 C 0.09898 0.53081 0.81571 0.0
H171 H 1.05922 0.51933 0.80914 0.0
C172 C 0.11993 0.51734 0.79758 0.0
H173 H 0.20243 0.58868 0.86969 0.0
C174 C 0.16973 0.52894 0.80501 0.0
H175 H 0.18306 0.51634 0.79031 0.0
H176 H 0.09675 0.4969 0.77758 0.0
H177 H 0.14213 0.57236 0.42196 0.0
C178 C 0.17885 0.60616 0.42889 0.0
C179 C 0.21645 0.62816 0.41014 0.0
C180 C 0.18757 0.62794 0.45602 0.0
H181 H 0.29198 0.68902 0.404 0.0
C182 C 0.2632 0.67242 0.41861 0.0
C183 C 0.27213 0.69609 0.44492 0.0
C184 C 0.23462 0.67311 0.46379 0.0
C185 C 0.14578 0.60443 0.47539 0.0
H186 H 0.24146 0.6907 0.4843 0.0
C187 C 0.11377 0.55822 0.47521 0.0
C188 C 1.07357 0.53648 0.49306 0.0
C189 C 0.13627 0.62807 0.49367 0.0
H190 H 0.1582 0.66297 0.49391 0.0
C191 C 0.09709 0.60684 0.51147 0.0
H192 H 0.12045 0.5392 0.46158 0.0
C193 C 1.066 0.56156 0.5112 0.0
H194 H 1.03501 0.54594 0.52483 0.0
H195 H 0.09018 0.62553 0.52528 0.0
H196 H 0.61702 0.0472 0.73712 0.0
C197 C 0.62526 0.076 0.74896 0.0
C198 C 0.6465 0.11358 0.73647 0.0
C199 C 0.6105 0.07405 0.77599 0.0
H200 H 0.67019 0.17867 0.74253 0.0
C201 C 0.65431 0.14971 0.7519 0.0
C202 C 0.63853 0.14779 0.7786 0.0
C203 C 0.61782 0.11024 0.79068 0.0
C204 C 0.58269 0.03294 0.78818 0.0
H205 H 0.60607 0.10869 0.81143 0.0
C206 C 0.60352 0.01102 0.78886 0.0
C207 C 0.5784 0.97389 0.80235 0.0
C208 C 0.53537 0.01618 0.8001 0.0
H209 H 0.51796 0.03193 0.79945 0.0
C210 C 0.50993 0.97894 0.81294 0.0
H211 H 0.64018 0.02377 0.77996 0.0
C212 C 0.53147 0.95808 0.81429 0.0
H213 H 0.51128 0.92935 0.82455 0.0
H214 H 0.47359 0.96638 0.82207 0.0
H215 H 0.47074 0.32806 0.00422 0.0
C216 C 0.49994 0.3323 0.01909 0.0
C217 C 0.55519 0.36682 0.01884 0.0
C218 C 0.48206 0.30539 0.03979 0.0
H219 H 0.6352 0.40149 0.03965 0.0
C220 C 0.59262 0.37369 0.03913 0.0
C221 C 0.57527 0.34696 0.05989 0.0
C222 C 0.51992 0.31252 0.05993 0.0
C223 C 0.42442 0.27527 0.04343 0.0
H224 H 0.50622 0.29302 0.07661 0.0
C225 C 0.39869 0.29278 0.04806 0.0
C226 C 0.34573 0.26642 0.05474 0.0
C227 C 0.39634 0.2305 0.04475 0.0
H228 H 0.41578 0.21652 0.04156 0.0
C229 C 0.34288 0.20357 0.0503 0.0
H230 H 0.42073 0.32751 0.04726 0.0
C231 C 0.31764 0.22137 0.05538 0.0
H232 H 0.27684 0.20025 0.06054 0.0
H233 H 0.32128 0.16899 0.05122 0.0
C234 C 0.22924 0.3872 0.10428 0.0
C235 C 0.24263 0.41627 0.08553 0.0
C236 C 0.23782 0.35684 0.09943 0.0
C237 C 0.26081 0.35592 0.07544 0.0
C238 C 0.27163 0.38348 0.05572 0.0
C239 C 0.26212 0.41311 0.06093 0.0
C240 C 0.22516 0.32759 0.12076 0.0
C241 C 0.29624 0.38356 0.02988 0.0
C242 C 0.35284 0.32887 0.07883 0.0
C243 C 0.3214 0.28696 0.06203 0.0
C244 C 0.33286 0.35097 0.08401 0.0
C245 C 0.27971 0.3304 0.07249 0.0
C246 C 0.24664 0.28713 0.05673 0.0
C247 C 0.26799 0.26591 0.05157 0.0
C248 C 0.36948 0.39709 0.10097 0.0
C249 C 0.18947 0.26393 0.04453 0.0
H250 H 0.21439 0.38953 0.1234 0.0
H251 H 0.27137 0.43477 0.04605 0.0
H252 H 0.20374 0.29312 0.11036 0.0
H253 H 0.26329 0.33971 0.13261 0.0
H254 H 0.20008 0.32734 0.13584 0.0
H255 H 0.29798 0.40419 0.01551 0.0
H256 H 0.33787 0.39667 0.03605 0.0
H257 H 0.27285 0.34935 0.0184 0.0
H258 H 0.39365 0.3448 0.08763 0.0
H259 H 0.24347 0.23351 0.0386 0.0
H260 H 0.34997 0.39882 0.1187 0.0
H261 H 0.37688 0.42108 0.08776 0.0
H262 H 0.40899 0.40763 0.10937 0.0
H263 H 0.1673 0.26555 0.06074 0.0
H264 H 0.1672 0.22867 0.03557 0.0
H265 H 0.1898 0.28089 0.02777 0.0
C266 C 0.81647 0.28624 0.49243 0.0
C267 C 0.82494 0.25582 0.49255 0.0
C268 C 0.85945 0.33138 0.4923 0.0
C269 C 0.91256 0.34684 0.49206 0.0
C270 C 0.92156 0.31644 0.49235 0.0
C271 C 0.87777 0.27141 0.49271 0.0
C272 C 0.84783 0.36251 0.49228 0.0
C273 C 0.97745 0.33146 0.49212 0.0
C274 C 1.01244 0.45784 0.46717 0.0
C275 C 1.03773 0.48758 0.49253 0.0
C276 C 0.97297 0.41182 0.46667 0.0
C277 C 0.95853 0.39501 0.49211 0.0
C278 C 0.98578 0.42476 0.51774 0.0
C279 C 1.02489 0.47049 0.51763 0.0
C280 C 0.94509 0.38135 0.43888 0.0
C281 C 0.972 0.40847 0.54536 0.0
H282 H 0.77607 0.27485 0.4926 0.0
H283 H 0.88488 0.24829 0.49265 0.0
H284 H 0.87403 0.39102 0.50957 0.0
H285 H 0.85698 0.37594 0.47244 0.0
H286 H 0.80512 0.34598 0.49456 0.0
H287 H 0.97781 0.3038 0.49229 0.0
H288 H 0.99422 0.34659 0.47328 0.0
H289 H 1.00467 0.35728 0.51058 0.0
H290 H 1.02173 0.47067 0.44769 0.0
H291 H 1.04474 0.49313 0.53733 0.0
H292 H 0.90213 0.36634 0.43633 0.0
H293 H 0.94595 0.35387 0.43804 0.0
H294 H 0.96394 0.39896 0.42107 0.0
H295 H 0.93001 0.39406 0.54772 0.0
H296 H 0.99937 0.43538 0.56338 0.0
H297 H 0.97414 0.38189 0.54607 0.0
C298 C 0.61517 0.79884 0.81685 0.0
C299 C 0.66871 0.81591 0.8209 0.0
C300 C 0.60312 0.82604 0.81221 0.0
C301 C 0.64563 0.87163 0.81202 0.0
C302 C 0.69971 0.88903 0.81576 0.0
C303 C 0.71058 0.86093 0.81997 0.0
C304 C 0.54486 0.80613 0.80814 0.0
C305 C 0.74613 0.93754 0.81595 0.0
C306 C 0.60922 0.93459 0.78089 0.0
C307 C 0.60105 0.95169 0.80475 0.0
C308 C 0.62487 0.90913 0.78292 0.0
C309 C 0.63333 0.90138 0.80948 0.0
C310 C 0.62741 0.92033 0.83373 0.0
C311 C 0.61091 0.94495 0.83103 0.0
C312 C 0.63019 0.88906 0.75659 0.0
C313 C 0.63703 0.91359 0.86247 0.0
H314 H 0.58252 0.76432 0.81794 0.0
H315 H 0.75203 0.87432 0.82256 0.0
H316 H 0.53707 0.8208 0.8257 0.0
H317 H 0.5361 0.81388 0.78866 0.0
H318 H 0.51651 0.76961 0.80703 0.0
H319 H 0.78579 0.94559 0.81816 0.0
H320 H 0.74151 0.94745 0.79638 0.0
H321 H 0.74605 0.95776 0.8335 0.0
H322 H 0.60122 0.93963 0.76057 0.0
H323 H 0.60499 0.95855 0.8495 0.0
H324 H 0.59899 0.85244 0.75365 0.0
H325 H 0.67004 0.89752 0.75832 0.0
H326 H 0.62551 0.90045 0.73777 0.0
H327 H 0.60677 0.87805 0.86421 0.0
H328 H 0.63434 0.9331 0.87929 0.0
H329 H 0.67742 0.92319 0.86595 0.0
C330 C 0.81241 0.44547 0.18548 0.0
C331 C 0.84786 0.49081 0.18366 0.0
C332 C 0.76289 0.41542 0.168 0.0
C333 C 0.74777 0.43126 0.14885 0.0
C334 C 0.78137 0.47722 0.14836 0.0
C335 C 0.83113 0.50624 0.16542 0.0
C336 C 0.72848 0.36659 0.16891 0.0
C337 C 0.76627 0.49562 0.12857 0.0
C338 C 0.66254 0.36791 0.07874 0.0
C339 C 0.61482 0.35957 0.08362 0.0
C340 C 0.70466 0.38771 0.10057 0.0
C341 C 0.69915 0.40026 0.12769 0.0
C342 C 0.64958 0.38905 0.13308 0.0
C343 C 0.60779 0.36859 0.11093 0.0
C344 C 0.7565 0.3982 0.09414 0.0
C345 C 0.64222 0.40201 0.16166 0.0
H346 H 0.82408 0.43307 0.19984 0.0
H347 H 0.85806 0.5408 0.16318 0.0
H348 H 0.68536 0.35077 0.16838 0.0
H349 H 0.73198 0.35031 0.15023 0.0
H350 H 0.74118 0.3603 0.18781 0.0
H351 H 0.79424 0.53239 0.13269 0.0
H352 H 0.767 0.48469 0.10673 0.0
H353 H 0.72474 0.48289 0.13029 0.0
H354 H 0.66769 0.36056 0.05763 0.0
H355 H 0.57099 0.36242 0.11467 0.0
H356 H 0.77118 0.38904 0.11021 0.0
H357 H 0.78803 0.43434 0.09448 0.0
H358 H 0.75159 0.38065 0.07329 0.0
H359 H 0.65811 0.39429 0.17811 0.0
H360 H 0.5992 0.38496 0.16347 0.0
H361 H 0.66531 0.43827 0.16572 0.0
C362 C 0.49676 0.96282 0.47354 0.0
C363 C 0.54877 0.97716 0.47265 0.0
C364 C 0.45173 0.91759 0.47159 0.0
C365 C 0.45848 0.88567 0.46764 0.0
C366 C 0.51104 0.90006 0.46674 0.0
C367 C 0.55559 0.94563 0.46974 0.0
C368 C 0.39684 0.90396 0.4737 0.0
C369 C 0.52009 0.86729 0.4617 0.0
C370 C 0.34684 0.7664 0.47871 0.0
C371 C 0.31918 0.74509 0.45152 0.0
C372 C 0.39152 0.81222 0.48445 0.0
C373 C 0.41025 0.83726 0.46239 0.0
C374 C 0.3826 0.81606 0.43501 0.0
C375 C 0.33695 0.77087 0.43009 0.0
C376 C 0.41869 0.83385 0.51413 0.0
C377 C 0.40152 0.84103 0.4107 0.0
H378 H 0.49138 0.9871 0.47633 0.0
H379 H 0.59574 0.95657 0.4691 0.0
H380 H 0.37065 0.88504 0.4534 0.0
H381 H 0.37714 0.88187 0.48949 0.0
H382 H 0.39908 0.93288 0.4795 0.0
H383 H 0.56353 0.88382 0.46239 0.0
H384 H 0.50312 0.84512 0.47754 0.0
H385 H 0.49872 0.84613 0.44094 0.0
H386 H 0.33411 0.74729 0.49552 0.0
H387 H 0.31512 0.75583 0.40919 0.0
H388 H 0.42091 0.86268 0.52022 0.0
H389 H 0.46065 0.84648 0.51583 0.0
H390 H 0.39714 0.81061 0.52918 0.0
H391 H 0.39847 0.86732 0.41366 0.0
H392 H 0.37764 0.81911 0.39041 0.0
H393 H 0.44456 0.8575 0.40961 0.0
C394 C 0.61622 0.32841 0.84884 0.0
C395 C 0.58911 0.33145 0.82752 0.0
C396 C 0.63009 0.30157 0.84365 0.0
C397 C 0.61659 0.27738 0.81652 0.0
C398 C 0.59063 0.28138 0.79479 0.0
C399 C 0.57728 0.30835 0.80055 0.0
C400 C 0.6578 0.29815 0.86732 0.0
C401 C 0.57581 0.25636 0.76552 0.0
C402 C 0.67898 0.22729 0.79124 0.0
C403 C 0.63709 0.18231 0.79215 0.0
C404 C 0.67421 0.25919 0.80052 0.0
C405 C 0.62641 0.24572 0.81091 0.0
C406 C 0.58526 0.20074 0.81323 0.0
C407 C 0.59103 0.16963 0.80378 0.0
C408 C 0.71913 0.30689 0.7979 0.0
C409 C 0.53362 0.18498 0.82416 0.0
H410 H 0.62531 0.34609 0.86975 0.0
H411 H 0.5574 0.31134 0.78386 0.0
H412 H 0.6306 0.264 0.87211 0.0
H413 H 0.6946 0.30474 0.86118 0.0
H414 H 0.66924 0.32163 0.8866 0.0
H415 H 0.55774 0.26453 0.75075 0.0
H416 H 0.61205 0.26394 0.75759 0.0
H417 H 0.54646 0.22021 0.76569 0.0
H418 H 0.71495 0.23741 0.7826 0.0
H419 H 0.55808 0.13491 0.8042 0.0
H420 H 0.72955 0.3291 0.81765 0.0
H421 H 0.70557 0.31613 0.78128 0.0
H422 H 0.75602 0.31283 0.79257 0.0
H423 H 0.5426 0.20585 0.84431 0.0
H424 H 0.50804 0.14991 0.82726 0.0
H425 H 0.51015 0.18803 0.80914 0.0
C426 C 0.66803 0.87628 0.51377 0.0
C427 C 0.72058 0.91585 0.52351 0.0
C428 C 0.65455 0.83495 0.51309 0.0
C429 C 0.69471 0.83296 0.522 0.0
C430 C 0.74779 0.87265 0.53189 0.0
C431 C 0.76003 0.91359 0.53267 0.0
C432 C 0.5974 0.7934 0.50245 0.0
C433 C 0.79181 0.87188 0.54135 0.0
C434 C 0.64594 0.72254 0.53899 0.0
C435 C 0.64744 0.70324 0.51359 0.0
C436 C 0.6624 0.76524 0.54231 0.0
C437 C 0.68139 0.78928 0.51981 0.0
C438 C 0.68502 0.77055 0.49453 0.0
C439 C 0.66775 0.7277 0.49169 0.0
C440 C 0.65749 0.78393 0.56949 0.0
C441 C 0.70576 0.79527 0.47018 0.0
H442 H 0.63743 0.87754 0.50617 0.0
H443 H 0.80053 0.94386 0.54061 0.0
H444 H 0.5969 0.77528 0.48325 0.0
H445 H 0.58091 0.77104 0.51821 0.0
H446 H 0.57034 0.80055 0.49759 0.0
H447 H 0.83081 0.90562 0.54892 0.0
H448 H 0.7799 0.85203 0.55836 0.0
H449 H 0.79781 0.85575 0.52381 0.0
H450 H 0.62993 0.70356 0.55587 0.0
H451 H 0.66954 0.71301 0.47214 0.0
H452 H 0.62713 0.78795 0.5658 0.0
H453 H 0.69642 0.8172 0.57789 0.0
H454 H 0.64519 0.76229 0.58551 0.0
H455 H 0.67803 0.80037 0.46229 0.0
H456 H 0.70939 0.77727 0.45269 0.0
H457 H 0.74583 0.82847 0.47697 0.0
C458 C 0.80424 0.60139 0.83184 0.0
C459 C 0.75726 0.57132 0.84391 0.0
C460 C 0.84798 0.60139 0.83318 0.0
C461 C 0.84638 0.57145 0.84767 0.0
C462 C 0.79891 0.54095 0.85986 0.0
C463 C 0.75517 0.54091 0.85756 0.0
C464 C 0.89638 0.63393 0.81918 0.0
C465 C 0.79479 0.50896 0.87614 0.0
C466 C 0.94642 0.54932 0.8387 0.0
C467 C 0.98663 0.57761 0.86182 0.0
C468 C 0.90156 0.54756 0.83343 0.0
C469 C 0.8955 0.5742 0.85179 0.0
C470 C 0.93682 0.60368 0.87457 0.0
C471 C 0.98153 0.6055 0.87894 0.0
C472 C 0.85986 0.51634 0.80842 0.0
C473 C 0.93311 0.63267 0.89507 0.0
H474 H 0.80676 0.62496 0.82105 0.0
H475 H 0.71981 0.51777 0.86731 0.0
H476 H 0.93204 0.65827 0.83517 0.0
H477 H 0.90602 0.61641 0.80532 0.0
H478 H 0.88985 0.65221 0.80662 0.0
H479 H 0.75528 0.48692 0.88406 0.0
H480 H 0.80053 0.48818 0.86281 0.0
H481 H 0.8273 0.52761 0.89417 0.0
H482 H 0.94892 0.52736 0.8252 0.0
H483 H 1.01239 0.62854 0.89649 0.0
H484 H 0.85241 0.53418 0.79601 0.0
H485 H 0.82114 0.48969 0.81549 0.0
H486 H 0.87228 0.5009 0.79469 0.0
H487 H 0.93138 0.65481 0.88409 0.0
H488 H 0.96783 0.65337 0.912 0.0
H489 H 0.8954 0.61178 0.90467 0.0
C490 C 0.3325 0.73892 0.14391 0.0
C491 C 0.29808 0.72601 0.16454 0.0
C492 C 0.37788 0.78374 0.14442 0.0
C493 C 0.38943 0.81645 0.16618 0.0
C494 C 0.35463 0.8036 0.18693 0.0
C495 C 0.30946 0.75873 0.18581 0.0
C496 C 0.4137 0.79607 0.1218 0.0
C497 C 0.3655 0.83725 0.21063 0.0
C498 C 0.53087 0.92613 0.18968 0.0
C499 C 0.52745 0.95621 0.17979 0.0
C500 C 0.48723 0.88035 0.18415 0.0
C501 C 0.43884 0.86398 0.16816 0.0
C502 C 0.43638 0.89389 0.15652 0.0
C503 C 0.48069 0.93965 0.1625 0.0
C504 C 0.49187 0.8498 0.19689 0.0
C505 C 0.3858 0.87785 0.13914 0.0
H506 H 0.32399 0.71402 0.12728 0.0
H507 H 0.28331 0.74929 0.20188 0.0
H508 H 0.41749 0.82126 0.11144 0.0
H509 H 0.45481 0.8111 0.13112 0.0
H510 H 0.39807 0.76705 0.1057 0.0
H511 H 0.33405 0.82203 0.22482 0.0
H512 H 0.40515 0.85417 0.22303 0.0
H513 H 0.36748 0.86299 0.20221 0.0
H514 H 0.56718 0.93862 0.20272 0.0
H515 H 0.47753 0.96262 0.1549 0.0
H516 H 0.47875 0.82155 0.18087 0.0
H517 H 0.46491 0.83594 0.21329 0.0
H518 H 0.5337 0.86707 0.20648 0.0
H519 H 0.37046 0.84898 0.12304 0.0
H520 H 0.39257 0.90415 0.12865 0.0
H521 H 0.35392 0.86682 0.15274 0.0
C522 C 0.69335 0.35487 0.49583 0.0
C523 C 0.64824 0.32102 0.47635 0.0
C524 C 0.70184 0.39342 0.50631 0.0
C525 C 0.66426 0.39814 0.49715 0.0
C526 C 0.62047 0.36528 0.47628 0.0
C527 C 0.61306 0.32719 0.46611 0.0
C528 C 0.74921 0.42779 0.52841 0.0
C529 C 0.57965 0.36914 0.4658 0.0
C530 C 0.63881 0.46122 0.54714 0.0
C531 C 0.66505 0.50092 0.53663 0.0
C532 C 0.63956 0.42815 0.5349 0.0
C533 C 0.6671 0.43471 0.51143 0.0
C534 C 0.69477 0.47508 0.50106 0.0
C535 C 0.69334 0.5077 0.51375 0.0
C536 C 0.60939 0.38555 0.54659 0.0
C537 C 0.72484 0.48336 0.47619 0.0
H538 H 0.72056 0.35028 0.50401 0.0
H539 H 0.57869 0.30153 0.45068 0.0
H540 H 0.77045 0.46151 0.52355 0.0
H541 H 0.73455 0.42663 0.54886 0.0
H542 H 0.77852 0.42227 0.53047 0.0
H543 H 0.55099 0.34296 0.44771 0.0
H544 H 0.55626 0.36642 0.48283 0.0
H545 H 0.60025 0.40195 0.45954 0.0
H546 H 0.61603 0.45531 0.56447 0.0
H547 H 0.71409 0.53844 0.50567 0.0
H548 H 0.63667 0.37877 0.55176 0.0
H549 H 0.5761 0.3575 0.53067 0.0
H550 H 0.59204 0.38645 0.56568 0.0
H551 H 0.75392 0.47795 0.47977 0.0
H552 H 0.74707 0.51748 0.47176 0.0
H553 H 0.69603 0.45951 0.45742 0.0
C554 C 0.49481 0.61178 0.84998 0.0
C555 C 0.48522 0.57163 0.8449 0.0
C556 C 0.45192 0.61288 0.85052 0.0
C557 C 0.39713 0.57295 0.84512 0.0
C558 C 0.38735 0.5324 0.83987 0.0
C559 C 0.43093 0.53222 0.84017 0.0
C560 C 0.46542 0.65709 0.85683 0.0
C561 C 0.33044 0.48885 0.83318 0.0
C562 C 0.27497 0.56484 0.86254 0.0
C563 C 0.25592 0.56652 0.83667 0.0
C564 C 0.32162 0.56855 0.86597 0.0
C565 C 0.35027 0.57341 0.84299 0.0
C566 C 0.33238 0.57686 0.81725 0.0
C567 C 0.28683 0.5742 0.81462 0.0
C568 C 0.33943 0.56605 0.89414 0.0
C569 C 0.3601 0.58153 0.79185 0.0
H570 H 0.53614 0.64263 0.85384 0.0
H571 H 0.42225 0.50084 0.83606 0.0
H572 H 0.45192 0.66324 0.83823 0.0
H573 H 0.44367 0.65699 0.87399 0.0
H574 H 0.50936 0.68484 0.86291 0.0
H575 H 0.32904 0.46009 0.82978 0.0
H576 H 0.30697 0.48501 0.85042 0.0
H577 H 0.31022 0.48828 0.81407 0.0
H578 H 0.25231 0.55898 0.87991 0.0
H579 H 0.2744 0.57698 0.79464 0.0
H580 H 0.38339 0.59357 0.9002 0.0
H581 H 0.33206 0.53462 0.89308 0.0
H582 H 0.31759 0.56755 0.91065 0.0
H583 H 0.40345 0.61132 0.7963 0.0
H584 H 0.3419 0.58414 0.77335 0.0
H585 H 0.35766 0.55245 0.78654 0.0
C586 C 0.96614 0.44025 0.1553 0.0
C587 C 1.0159 0.45009 0.15478 0.0
C588 C 0.91808 0.39664 0.1547 0.0
C589 C 0.91986 0.36196 0.15437 0.0
C590 C 0.97007 0.37174 0.15393 0.0
C591 C 1.01738 0.41558 0.15379 0.0
C592 C 0.86546 0.38782 0.15447 0.0
C593 C 0.97385 0.33589 0.15377 0.0
C594 C 0.79812 0.25658 0.17742 0.0
C595 C 0.7673 0.22975 0.15169 0.0
C596 C 0.84863 0.29918 0.17867 0.0
C597 C 0.86886 0.31538 0.15361 0.0
C598 C 0.83879 0.28777 0.12762 0.0
C599 C 0.78876 0.24539 0.127 0.0
C600 C 0.8795 0.32745 0.2068 0.0
C601 C 0.85835 0.30371 0.10038 0.0
H602 H 0.96461 0.46668 0.15572 0.0
H603 H 1.05576 0.42303 0.15356 0.0
H604 H 0.83403 0.35889 0.13839 0.0
H605 H 0.85087 0.38 0.17504 0.0
H606 H 0.86974 0.41672 0.15029 0.0
H607 H 1.01596 0.34898 0.154 0.0
H608 H 0.9576 0.31943 0.17225 0.0
H609 H 0.94892 0.31019 0.13494 0.0
H610 H 0.78185 0.24502 0.1966 0.0
H611 H 0.76578 0.22467 0.10699 0.0
H612 H 0.8811 0.35628 0.20953 0.0
H613 H 0.92169 0.34057 0.20807 0.0
H614 H 0.86078 0.30884 0.22426 0.0
H615 H 0.86051 0.33234 0.09865 0.0
H616 H 0.8315 0.27752 0.08196 0.0
H617 H 0.8996 0.31527 0.09978 0.0
C618 C 0.11594 0.56134 0.07178 0.0
C619 C 0.12382 0.59652 0.08839 0.0
C620 C 0.11221 0.55749 0.04256 0.0
C621 C 0.11498 0.58895 0.02961 0.0
C622 C 0.12298 0.62458 0.04633 0.0
C623 C 0.12771 0.62811 0.07555 0.0
C624 C 0.10444 0.51936 0.02554 0.0
C625 C 0.12527 0.65841 0.03333 0.0
C626 C 0.1419 0.60066 0.95408 0.0
C627 C 0.08962 0.57611 0.93997 0.0
C628 C 0.15077 0.60424 0.98318 0.0
C629 C 0.10639 0.58326 -0.00143 0.0
C630 C 1.05351 0.55766 0.98439 0.0
C631 C 1.04576 0.55399 0.95531 0.0
C632 C 0.20767 0.63117 -0.00249 0.0
C633 C 1.00508 0.53492 0.0 0.0
H634 H 0.11205 0.53645 0.0816 0.0
H635 H 0.13371 0.65532 0.08833 0.0
H636 H 1.06407 0.49676 0.01287 0.0
H637 H 0.1348 0.53176 0.01082 0.0
H638 H 0.10784 0.50006 0.03886 0.0
H639 H 0.133 0.68469 0.04925 0.0
H640 H 0.15748 0.67419 0.01964 0.0
H641 H 0.08655 0.64182 0.02002 0.0
H642 H 0.17607 0.61803 0.94248 0.0
H643 H 1.0051 0.53396 0.94457 0.0
H644 H 0.21039 0.61122 0.01048 0.0
H645 H 0.21905 0.66041 0.01175 0.0
H646 H 0.23734 0.64285 0.9824 0.0
H647 H 1.00309 0.51183 0.01196 0.0
H648 H 0.9666 0.51603 0.98583 0.0
H649 H 1.00891 0.55987 0.01529 0.0
C650 C 0.68622 0.1249 0.39925 0.0
C651 C 0.69546 0.09767 0.40801 0.0
C652 C 0.67758 0.1248 0.3707 0.0
C653 C 0.67793 0.09653 0.35055 0.0
C654 C 0.6883 0.06957 0.35943 0.0
C655 C 0.69747 0.07081 0.38809 0.0
C656 C 0.66771 0.15465 0.36212 0.0
C657 C 0.68836 0.03855 0.33865 0.0
C658 C 0.59724 0.05383 0.27881 0.0
C659 C 0.63787 0.0771 0.2617 0.0
C660 C 0.60966 0.06099 0.30783 0.0
C661 C 0.66409 0.09279 0.32023 0.0
C662 C 0.70508 0.1184 0.30331 0.0
C663 C 0.69149 0.11016 0.27416 0.0
C664 C 0.56467 0.03299 0.32504 0.0
C665 C 0.76349 0.1531 0.31584 0.0
H666 H 0.68697 0.14699 0.41471 0.0
H667 H 0.70512 0.05004 0.39495 0.0
H668 H 0.69703 0.17603 0.34808 0.0
H669 H 0.62682 0.13442 0.35025 0.0
H670 H 0.67113 0.17606 0.38036 0.0
H671 H 0.69859 0.02072 0.34895 0.0
H672 H 0.648 0.01376 0.32608 0.0
H673 H 0.71781 0.05725 0.32396 0.0
H674 H 0.55553 0.029 0.26935 0.0
H675 H 0.72302 0.12828 0.26106 0.0
H676 H 0.56597 0.05435 0.34234 0.0
H677 H 0.56995 0.01169 0.3346 0.0
H678 H 0.52424 0.0114 0.31239 0.0
H679 H 0.76796 0.17515 0.33398 0.0
H680 H 0.78952 0.17362 0.30045 0.0
H681 H 0.77818 0.1368 0.3236 0.0
C682 C 0.56863 0.55689 0.74367 0.0
C683 C 0.60992 0.56884 0.76353 0.0
C684 C 0.57723 0.56285 0.71585 0.0
C685 C 0.62795 0.58017 0.70763 0.0
C686 C 0.67057 0.59432 0.72798 0.0
C687 C 0.66119 0.58895 0.75581 0.0
C688 C 0.53113 0.54838 0.69497 0.0
C689 C 0.72496 0.61225 0.72006 0.0
C690 C 0.62383 0.5362 0.63349 0.0
C691 C 0.64428 0.57237 0.61978 0.0
C692 C 0.61939 0.5388 0.66207 0.0
C693 C 0.63417 0.57811 0.67741 0.0
C694 C 0.65391 0.61457 0.66376 0.0
C695 C 0.65921 0.61143 0.63516 0.0
C696 C 0.5986 0.49922 0.67582 0.0
C697 C 0.66907 0.65671 0.67933 0.0
H698 H 0.52913 0.54179 0.74972 0.0
H699 H 0.69322 0.59828 0.77118 0.0
H700 H 0.54496 0.57406 0.68181 0.0
H701 H 0.51592 0.51771 0.68088 0.0
H702 H 0.49714 0.54166 0.7053 0.0
H703 H 0.75535 0.62612 0.73866 0.0
H704 H 0.72096 0.58523 0.70731 0.0
H705 H 0.7401 0.6384 0.70712 0.0
H706 H 0.61049 0.50533 0.62181 0.0
H707 H 0.67537 0.63969 0.62492 0.0
H708 H 0.56023 0.48639 0.68382 0.0
H709 H 0.62793 0.50911 0.69397 0.0
H710 H 0.59138 0.47195 0.66125 0.0
H711 H 0.63395 0.64936 0.68863 0.0
H712 H 0.68287 0.68177 0.66561 0.0
H713 H 0.70169 0.67121 0.69678 0.0
C714 C 0.61835 0.07559 0.57151 0.0
C715 C 0.66338 0.11035 0.56065 0.0
C716 C 0.62052 0.0734 0.60005 0.0
C717 C 0.66852 0.10754 0.61826 0.0
C718 C 0.71516 0.14134 0.60709 0.0
C719 C 0.71218 0.14205 0.57824 0.0
C720 C 0.57028 0.03613 0.61093 0.0
C721 C 0.76688 0.17864 0.62579 0.0
C722 C 0.64226 0.13298 0.68962 0.0
C723 C 0.65523 0.1136 0.70646 0.0
C724 C 0.64869 0.13275 0.66129 0.0
C725 C 0.66697 0.11135 0.64897 0.0
C726 C 0.68017 0.09162 0.66565 0.0
C727 C 0.67456 0.09328 0.69426 0.0
C728 C 0.63446 0.1545 0.64435 0.0
C729 C 0.69883 0.0678 0.65311 0.0
H730 H 0.5808 0.05068 0.55776 0.0
H731 H 0.74703 0.1689 0.56975 0.0
H732 H 0.58012 0.02243 0.62598 0.0
H733 H 0.55252 0.04894 0.62217 0.0
H734 H 0.53937 1.00889 0.59382 0.0
H735 H 0.80131 0.19842 0.61373 0.0
H736 H 0.76167 0.20095 0.63748 0.0
H737 H 0.77692 0.1657 0.64138 0.0
H738 H 0.62564 0.14754 0.69837 0.0
H739 H 0.68507 0.07846 0.70703 0.0
H740 H 0.59876 0.12899 0.62863 0.0
H741 H 0.66824 0.17787 0.63287 0.0
H742 H 0.6252 0.17291 0.65755 0.0
H743 H 0.66608 0.03862 0.63756 0.0
H744 H 0.71043 0.05636 0.66914 0.0
H745 H 0.7338 0.08974 0.64186 0.0
C746 C 0.58657 0.52814 0.9228 0.0
C747 C 0.63644 0.55539 0.91289 0.0
C748 C 0.57522 0.49741 0.93967 0.0
C749 C 0.61437 0.49324 0.94625 0.0
C750 C 0.6647 0.52044 0.93597 0.0
C751 C 0.67543 0.55169 0.91968 0.0
C752 C 0.52124 0.46928 0.95036 0.0
C753 C 0.70684 0.51612 0.94184 0.0
C754 C 0.60221 0.4439 0.01114 0.0
C755 C 0.57334 0.39929 -0.00012 0.0
C756 C 0.61667 0.47496 -0.00614 0.0
C757 C 0.6028 0.4612 0.96455 0.0
C758 C 0.57504 0.41635 0.95301 0.0
C759 C 0.56002 0.38574 0.97089 0.0
C760 C 0.64517 0.5222 0.00702 0.0
C761 C 0.56115 0.40076 0.92182 0.0
H762 H 0.55633 0.53084 0.91727 0.0
H763 H 0.71363 0.57221 0.91149 0.0
H764 H 0.49923 0.43374 0.94261 0.0
H765 H 0.52719 0.47422 0.97352 0.0
H766 H 0.49567 0.47717 0.94374 0.0
H767 H 0.74329 0.53893 0.93167 0.0
H768 H 0.71913 0.5232 0.96468 0.0
H769 H 0.68978 0.48167 0.93427 0.0
H770 H 0.61194 0.45417 0.03363 0.0
H771 H 0.53793 0.35122 0.96226 0.0
H772 H 0.61957 0.5307 0.00209 0.0
H773 H 0.68339 0.54523 -0.00173 0.0
H774 H 0.65444 0.5278 0.03009 0.0
H775 H 0.537 0.40859 0.91273 0.0
H776 H 0.53825 0.36461 0.9162 0.0
H777 H 0.5988 0.41854 0.91206 0.0
C778 C 0.20433 0.61492 0.24974 0.0
C779 C 0.18886 0.57681 0.23285 0.0
C780 C 0.20489 0.61751 0.27876 0.0
C781 C 0.18909 0.58089 0.29116 0.0
C782 C 0.17246 0.54195 0.27411 0.0
C783 C 0.17286 0.54047 0.2451 0.0
C784 C 0.22323 0.65976 0.2962 0.0
C785 C 0.15466 0.50209 0.28654 0.0
C786 C 0.24679 0.61325 0.36739 0.0
C787 C 0.20531 0.60721 0.3806 0.0
C788 C 0.24088 0.60232 0.33831 0.0
C789 C 0.19205 0.58446 0.32207 0.0
C790 C 0.14846 0.5749 0.33548 0.0
C791 C 0.15567 0.58655 0.36463 0.0
C792 C 0.28832 0.61296 0.32486 0.0
C793 C 0.09551 0.55529 0.31891 0.0
H794 H 0.2167 0.64304 0.24028 0.0
H795 H 0.1605 0.51084 0.23199 0.0
H796 H 0.19107 0.65266 0.30847 0.0
H797 H 0.25916 0.67403 0.3113 0.0
H798 H 0.23365 0.68498 0.28328 0.0
H799 H 0.14055 0.47367 0.2703 0.0
H800 H 0.18856 0.51078 0.30087 0.0
H801 H 0.12155 0.49158 0.29911 0.0
H802 H 0.28494 0.62857 0.37972 0.0
H803 H 0.12354 0.58201 0.37467 0.0
H804 H 0.30469 0.64098 0.31343 0.0
H805 H 0.27555 0.58427 0.30941 0.0
H806 H 0.32118 0.62225 0.34045 0.0
H807 H 0.10083 0.5806 0.30793 0.0
H808 H 1.0634 0.54382 0.33246 0.0
H809 H 1.08192 0.52699 0.30277 0.0
loop_
_geom_bond_atom_site_label_1
_geom_bond_atom_site_label_2
_geom_bond_distance
_geom_bond_site_symmetry_2
_ccdc_geom_bond_type
Gd0 C3 2.818 . S
Gd0 O20 2.377 . S
Gd0 O22 2.448 . S
Gd0 O23 2.506 . S
Gd0 O24 2.435 . S
Gd0 O25 2.717 . S
Gd0 O27 2.395 1_455 S
Gd0 O31 2.327 . S
Gd1 C12 2.818 1_455 S
Gd1 O21 2.395 . S
Gd1 O25 2.327 . S
Gd1 O26 2.377 1_455 S
Gd1 O28 2.448 1_455 S
Gd1 O29 2.506 1_455 S
Gd1 O30 2.435 . S
Gd1 O31 2.717 . S
C2 O20 1.240 . S
C2 O21 1.240 . S
C3 Gd0 2.818 . S
C3 C4 1.510 . S
C3 O22 1.249 . S
C3 O23 1.252 . S
C4 C3 1.510 . S
C4 C5 1.404 . S
C4 C6 1.352 . S
C5 C4 1.404 . S
C5 C9 1.389 . S
C5 H32 0.930 . S
C6 C4 1.352 . S
C6 C8 1.374 . S
C6 H33 0.931 . S
C7 C8 1.359 . S
C7 C9 1.364 . S
C8 C6 1.374 . S
C8 C7 1.359 . S
C8 H34 0.931 . S
C9 C5 1.389 . S
C9 C7 1.364 . S
C9 H35 0.931 . S
C10 O24 1.256 . S
C10 O25 1.257 . S
C11 O26 1.240 . S
C11 O27 1.240 . S
C12 Gd1 2.818 1_655 S
C12 C13 1.510 . S
C12 O28 1.249 . S
C12 O29 1.252 . S
C13 C12 1.510 . S
C13 C14 1.404 . S
C13 C15 1.352 . S
C14 C13 1.404 . S
C14 C18 1.389 . S
C14 H36 0.930 . S
C15 C13 1.352 . S
C15 C17 1.374 . S
C15 H37 0.931 . S
C16 C17 1.359 . S
C16 C18 1.364 . S
C17 C15 1.374 . S
C17 C16 1.359 . S
C17 H38 0.931 . S
C18 C14 1.389 . S
C18 C16 1.364 . S
C18 H39 0.931 . S
C19 O30 1.256 . S
C19 O31 1.257 . S
O20 Gd0 2.377 . S
O20 C2 1.240 . S
O21 Gd1 2.395 . S
O21 C2 1.240 . S
O22 Gd0 2.448 . S
O22 C3 1.249 . S
O23 Gd0 2.506 . S
O23 C3 1.252 . S
O24 Gd0 2.435 . S
O24 C10 1.256 . S
O25 Gd0 2.717 . S
O25 Gd1 2.327 . S
O25 C10 1.257 . S
O26 Gd1 2.377 1_655 S
O26 C11 1.240 . S
O27 Gd0 2.395 1_655 S
O27 C11 1.240 . S
O28 Gd1 2.448 1_655 S
O28 C12 1.249 . S
O29 Gd1 2.506 1_655 S
O29 C12 1.252 . S
O30 Gd1 2.435 . S
O30 C19 1.256 . S
O31 Gd0 2.327 . S
O31 Gd1 2.717 . S
O31 C19 1.257 . S
H32 C5 0.930 . S
H33 C6 0.931 . S
H34 C8 0.931 . S
H35 C9 0.931 . S
H36 C14 0.930 . S
H37 C15 0.931 . S
H38 C17 0.931 . S
H39 C18 0.931 . S
Gd40 C43 2.818 1_545 S
Gd40 O60 2.377 1_545 S
Gd40 O62 2.448 1_545 S
Gd40 O63 2.506 1_545 S
Gd40 O64 2.435 . S
Gd40 O65 2.717 . S
Gd40 O67 2.395 . S
Gd40 O71 2.327 . S
Gd41 C52 2.818 . S
Gd41 O61 2.395 1_545 S
Gd41 O65 2.327 . S
Gd41 O66 2.377 . S
Gd41 O68 2.448 . S
Gd41 O69 2.506 . S
Gd41 O70 2.435 . S
Gd41 O71 2.717 . S
C42 O60 1.240 . S
C42 O61 1.240 . S
C43 Gd40 2.818 1_565 S
C43 C44 1.510 . S
C43 O62 1.249 . S
C43 O63 1.252 . S
C44 C43 1.510 . S
C44 C45 1.404 . S
C44 C46 1.352 . S
C45 C44 1.404 . S
C45 C49 1.389 . S
C45 H72 0.930 . S
C46 C44 1.352 . S
C46 C48 1.374 . S
C46 H73 0.931 . S
C47 C48 1.359 . S
C47 C49 1.364 . S
C48 C46 1.374 . S
C48 C47 1.359 . S
C48 H74 0.931 . S
C49 C45 1.389 . S
C49 C47 1.364 . S
C49 H75 0.931 . S
C50 O64 1.256 . S
C50 O65 1.257 . S
C51 O66 1.240 . S
C51 O67 1.240 . S
C52 Gd41 2.818 . S
C52 C53 1.510 . S
C52 O68 1.249 . S
C52 O69 1.252 . S
C53 C52 1.510 . S
C53 C54 1.404 . S
C53 C55 1.352 . S
C54 C53 1.404 . S
C54 C58 1.389 . S
C54 H76 0.930 . S
C55 C53 1.352 . S
C55 C57 1.374 . S
C55 H77 0.931 . S
C56 C57 1.359 . S
C56 C58 1.364 . S
C57 C55 1.374 . S
C57 C56 1.359 . S
C57 H78 0.931 . S
C58 C54 1.389 . S
C58 C56 1.364 . S
C58 H79 0.931 . S
C59 O70 1.256 . S
C59 O71 1.257 . S
O60 Gd40 2.377 1_565 S
O60 C42 1.240 . S
O61 Gd41 2.395 1_565 S
O61 C42 1.240 . S
O62 Gd40 2.448 1_565 S
O62 C43 1.249 . S
O63 Gd40 2.506 1_565 S
O63 C43 1.252 . S
O64 Gd40 2.435 . S
O64 C50 1.256 . S
O65 Gd40 2.717 . S
O65 Gd41 2.327 . S
O65 C50 1.257 . S
O66 Gd41 2.377 . S
O66 C51 1.240 . S
O67 Gd40 2.395 . S
O67 C51 1.240 . S
O68 Gd41 2.448 . S
O68 C52 1.249 . S
O69 Gd41 2.506 . S
O69 C52 1.252 . S
O70 Gd41 2.435 . S
O70 C59 1.256 . S
O71 Gd40 2.327 . S
O71 Gd41 2.717 . S
O71 C59 1.257 . S
H72 C45 0.930 . S
H73 C46 0.931 . S
H74 C48 0.931 . S
H75 C49 0.931 . S
H76 C54 0.930 . S
H77 C55 0.931 . S
H78 C57 0.931 . S
H79 C58 0.931 . S
Gd80 C83 2.818 . S
Gd80 O100 2.377 . S
Gd80 O102 2.448 . S
Gd80 O103 2.506 . S
Gd80 O104 2.435 . S
Gd80 O105 2.717 . S
Gd80 O107 2.395 . S
Gd80 O111 2.327 . S
Gd81 C92 2.818 . S
Gd81 O101 2.395 . S
Gd81 O105 2.327 . S
Gd81 O106 2.377 . S
Gd81 O108 2.448 . S
Gd81 O109 2.506 . S
Gd81 O110 2.435 . S
Gd81 O111 2.717 . S
C82 O100 1.240 . S
C82 O101 1.240 . S
C83 Gd80 2.818 . S
C83 C84 1.510 . S
C83 O102 1.249 . S
C83 O103 1.252 . S
C84 C83 1.510 . S
C84 C85 1.404 . S
C84 C86 1.352 . S
C85 C84 1.404 . S
C85 C89 1.389 . S
C85 H112 0.930 . S
C86 C84 1.352 . S
C86 C88 1.374 . S
C86 H113 0.931 . S
C87 C88 1.359 . S
C87 C89 1.364 . S
C88 C86 1.374 . S
C88 C87 1.359 . S
C88 H114 0.931 . S
C89 C85 1.389 . S
C89 C87 1.364 . S
C89 H115 0.931 . S
C90 O104 1.256 . S
C90 O105 1.257 . S
C91 O106 1.240 . S
C91 O107 1.240 . S
C92 Gd81 2.818 . S
C92 C93 1.510 . S
C92 O108 1.249 . S
C92 O109 1.252 . S
C93 C92 1.510 . S
C93 C94 1.404 . S
C93 C95 1.352 . S
C94 C93 1.404 . S
C94 C98 1.389 . S
C94 H116 0.930 . S
C95 C93 1.352 . S
C95 C97 1.374 . S
C95 H117 0.931 . S
C96 C97 1.359 . S
C96 C98 1.364 . S
C97 C95 1.374 . S
C97 C96 1.359 . S
C97 H118 0.931 . S
C98 C94 1.389 . S
C98 C96 1.364 . S
C98 H119 0.931 . S
C99 O110 1.256 . S
C99 O111 1.257 . S
O100 Gd80 2.377 . S
O100 C82 1.240 . S
O101 Gd81 2.395 . S
O101 C82 1.240 . S
O102 Gd80 2.448 . S
O102 C83 1.249 . S
O103 Gd80 2.506 . S
O103 C83 1.252 . S
O104 Gd80 2.435 . S
O104 C90 1.256 . S
O105 Gd80 2.717 . S
O105 Gd81 2.327 . S
O105 C90 1.257 . S
O106 Gd81 2.377 . S
O106 C91 1.240 . S
O107 Gd80 2.395 . S
O107 C91 1.240 . S
O108 Gd81 2.448 . S
O108 C92 1.249 . S
O109 Gd81 2.506 . S
O109 C92 1.252 . S
O110 Gd81 2.435 . S
O110 C99 1.256 . S
O111 Gd80 2.327 . S
O111 Gd81 2.717 . S
O111 C99 1.257 . S
H112 C85 0.930 . S
H113 C86 0.931 . S
H114 C88 0.931 . S
H115 C89 0.931 . S
H116 C94 0.930 . S
H117 C95 0.931 . S
H118 C97 0.931 . S
H119 C98 0.931 . S
H120 C121 0.949 . S
C121 H120 0.949 . S
C121 C122 1.395 . S
C121 C123 1.391 . S
C122 C121 1.395 . S
C122 C125 1.390 . S
C123 C121 1.391 . S
C123 C127 1.387 . S
C123 C128 1.491 . S
H124 C125 0.950 1_565 S
C125 C122 1.390 . S
C125 H124 0.950 1_545 S
C125 C126 1.378 1_545 S
C126 C125 1.378 1_565 S
C126 C127 1.409 1_565 S
C127 C123 1.387 . S
C127 C126 1.409 1_545 S
C127 H129 0.951 . S
C128 C123 1.491 . S
C128 C130 1.382 . S
C128 C132 1.404 . S
H129 C127 0.951 . S
C130 C128 1.382 . S
C130 C131 1.390 . S
C130 H135 0.949 . S
C131 C130 1.390 . S
C131 C136 1.399 . S
C132 C128 1.404 . S
C132 H133 0.950 . S
C132 C134 1.375 . S
H133 C132 0.950 . S
C134 C132 1.375 . S
C134 C136 1.382 . S
C134 H138 0.950 . S
H135 C130 0.949 . S
C136 C131 1.399 . S
C136 C134 1.382 . S
C136 H137 0.952 . S
H137 C136 0.952 . S
H138 C134 0.950 . S
H139 C140 0.949 . S
C140 H139 0.949 . S
C140 C141 1.395 . S
C140 C142 1.391 . S
C141 C140 1.395 . S
C141 C144 1.390 . S
C142 C140 1.391 . S
C142 C146 1.387 . S
C142 C147 1.491 . S
H143 C144 0.950 . S
C144 C141 1.390 . S
C144 H143 0.950 . S
C144 C145 1.378 . S
C145 C144 1.378 . S
C145 C146 1.409 . S
C146 C142 1.387 . S
C146 C145 1.409 . S
C146 H148 0.951 . S
C147 C142 1.491 . S
C147 C149 1.382 . S
C147 C151 1.404 . S
H148 C146 0.951 . S
C149 C147 1.382 . S
C149 C150 1.390 . S
C149 H154 0.949 . S
C150 C149 1.390 . S
C150 C155 1.399 . S
C151 C147 1.404 . S
C151 H152 0.950 . S
C151 C153 1.375 . S
H152 C151 0.950 . S
C153 C151 1.375 . S
C153 C155 1.382 . S
C153 H157 0.950 . S
H154 C149 0.949 . S
C155 C150 1.399 . S
C155 C153 1.382 . S
C155 H156 0.952 . S
H156 C155 0.952 . S
H157 C153 0.950 . S
H158 C159 0.949 . S
C159 H158 0.949 . S
C159 C160 1.395 . S
C159 C161 1.391 . S
C160 C159 1.395 . S
C160 C163 1.390 . S
C161 C159 1.391 . S
C161 C165 1.387 . S
C161 C166 1.491 . S
H162 C163 0.924 1_655 S
C163 C160 1.390 . S
C163 H162 0.924 1_455 S
C163 C164 1.378 . S
C164 C163 1.378 . S
C164 C165 1.409 . S
C165 C161 1.387 . S
C165 C164 1.409 . S
C165 H167 0.951 . S
C166 C161 1.491 . S
C166 C168 1.382 . S
C166 C170 1.404 . S
H167 C165 0.951 . S
C168 C166 1.382 . S
C168 C169 1.390 . S
C168 H173 0.949 . S
C169 C168 1.390 . S
C169 C174 1.399 . S
C170 C166 1.404 . S
C170 H171 0.950 . S
C170 C172 1.375 . S
H171 C170 0.950 . S
C172 C170 1.375 . S
C172 C174 1.382 . S
C172 H176 0.950 . S
H173 C168 0.949 . S
C174 C169 1.399 . S
C174 C172 1.382 . S
C174 H175 0.952 . S
H175 C174 0.952 . S
H176 C172 0.950 . S
H177 C178 0.949 . S
C178 H177 0.949 . S
C178 C179 1.395 1_655 S
C178 C180 1.391 1_655 S
C179 C178 1.395 1_455 S
C179 C182 1.390 . S
C180 C178 1.391 1_455 S
C180 C184 1.387 . S
C180 C185 1.491 1_455 S
H181 C182 0.950 . S
C182 C179 1.390 . S
C182 H181 0.950 . S
C182 C183 1.378 . S
C183 C182 1.378 . S
C183 C184 1.409 . S
C184 C180 1.387 . S
C184 C183 1.409 . S
C184 H186 0.951 . S
C185 C180 1.491 1_655 S
C185 C187 1.382 . S
C185 C189 1.404 . S
H186 C184 0.951 . S
C187 C185 1.382 . S
C187 C188 1.390 . S
C187 H192 0.949 . S
C188 C187 1.390 . S
C188 C193 1.399 . S
C189 C185 1.404 . S
C189 H190 0.950 . S
C189 C191 1.375 . S
H190 C189 0.950 . S
C191 C189 1.375 . S
C191 C193 1.382 . S
C191 H195 0.950 . S
H192 C187 0.949 . S
C193 C188 1.399 . S
C193 C191 1.382 . S
C193 H194 0.952 . S
H194 C193 0.952 . S
H195 C191 0.950 . S
H196 C197 0.949 . S
C197 H196 0.949 . S
C197 C198 1.395 . S
C197 C199 1.391 . S
C198 C197 1.395 . S
C198 C201 1.390 . S
C199 C197 1.391 . S
C199 C203 1.387 . S
C199 C204 1.491 . S
H200 C201 0.950 . S
C201 C198 1.390 . S
C201 H200 0.950 . S
C201 C202 1.378 . S
C202 C201 1.378 . S
C202 C203 1.409 . S
C203 C199 1.387 . S
C203 C202 1.409 . S
C203 H205 0.951 . S
C204 C199 1.491 . S
C204 C206 1.382 1_545 S
C204 C208 1.404 1_545 S
H205 C203 0.951 . S
C206 C204 1.382 1_565 S
C206 C207 1.390 . S
C206 H211 0.949 . S
C207 C206 1.390 . S
C207 C212 1.399 . S
C208 C204 1.404 1_565 S
C208 H209 0.950 1_565 S
C208 C210 1.375 . S
H209 C208 0.950 1_545 S
C210 C208 1.375 . S
C210 C212 1.382 . S
C210 H214 0.950 . S
H211 C206 0.949 . S
C212 C207 1.399 . S
C212 C210 1.382 . S
C212 H213 0.952 . S
H213 C212 0.952 . S
H214 C210 0.950 . S
H215 C216 0.949 . S
C216 H215 0.949 . S
C216 C217 1.395 . S
C216 C218 1.391 . S
C217 C216 1.395 . S
C217 C220 1.390 . S
C218 C216 1.391 . S
C218 C222 1.387 . S
C218 C223 1.491 . S
H219 C220 0.950 . S
C220 C217 1.390 . S
C220 H219 0.950 . S
C220 C221 1.378 . S
C221 C220 1.378 . S
C221 C222 1.409 . S
C222 C218 1.387 . S
C222 C221 1.409 . S
C222 H224 0.951 . S
C223 C218 1.491 . S
C223 C225 1.382 . S
C223 C227 1.404 . S
H224 C222 0.951 . S
C225 C223 1.382 . S
C225 C226 1.390 . S
C225 H230 0.949 . S
C226 C225 1.390 . S
C226 C231 1.399 . S
C227 C223 1.404 . S
C227 H228 0.950 . S
C227 C229 1.375 . S
H228 C227 0.950 . S
C229 C227 1.375 . S
C229 C231 1.382 . S
C229 H233 0.950 . S
H230 C225 0.949 . S
C231 C226 1.399 . S
C231 C229 1.382 . S
C231 H232 0.952 . S
H232 C231 0.952 . S
H233 C229 0.950 . S
C234 C235 1.391 . S
C234 C236 1.394 . S
C234 H250 0.931 . S
C235 C234 1.391 . S
C235 C239 1.376 . S
C236 C234 1.394 . S
C236 C237 1.369 . S
C236 C240 1.531 . S
C237 C236 1.369 . S
C237 C238 1.410 . S
C237 C245 1.503 . S
C238 C237 1.410 . S
C238 C239 1.392 . S
C238 C241 1.511 . S
C239 C235 1.376 . S
C239 C238 1.392 . S
C239 H251 0.929 . S
C240 C236 1.531 . S
C240 H252 0.960 . S
C240 H253 0.962 . S
C240 H254 0.960 . S
C241 C238 1.511 . S
C241 H255 0.961 . S
C241 H256 0.961 . S
C241 H257 0.961 . S
C242 C243 1.370 . S
C242 C244 1.363 . S
C242 H258 0.931 . S
C243 C242 1.370 . S
C243 C247 1.408 . S
C244 C242 1.363 . S
C244 C245 1.370 . S
C244 C248 1.524 . S
C245 C237 1.503 . S
C245 C244 1.370 . S
C245 C246 1.403 . S
C246 C245 1.403 . S
C246 C247 1.404 . S
C246 C249 1.539 . S
C247 C243 1.408 . S
C247 C246 1.404 . S
C247 H259 0.930 . S
C248 C244 1.524 . S
C248 H260 0.956 . S
C248 H261 0.961 . S
C248 H262 0.961 . S
C249 C246 1.539 . S
C249 H263 0.958 . S
C249 H264 0.961 . S
C249 H265 0.960 . S
H250 C234 0.931 . S
H251 C239 0.929 . S
H252 C240 0.960 . S
H253 C240 0.962 . S
H254 C240 0.960 . S
H255 C241 0.961 . S
H256 C241 0.961 . S
H257 C241 0.961 . S
H258 C242 0.931 . S
H259 C247 0.930 . S
H260 C248 0.956 . S
H261 C248 0.961 . S
H262 C248 0.961 . S
H263 C249 0.958 . S
H264 C249 0.961 . S
H265 C249 0.960 . S
C266 C267 1.391 . S
C266 C268 1.394 . S
C266 H282 0.931 . S
C267 C266 1.391 . S
C267 C271 1.376 . S
C268 C266 1.394 . S
C268 C269 1.369 . S
C268 C272 1.531 . S
C269 C268 1.369 . S
C269 C270 1.410 . S
C269 C277 1.503 . S
C270 C269 1.410 . S
C270 C271 1.392 . S
C270 C273 1.511 . S
C271 C267 1.376 . S
C271 C270 1.392 . S
C271 H283 0.929 . S
C272 C268 1.531 . S
C272 H284 0.960 . S
C272 H285 0.962 . S
C272 H286 0.960 . S
C273 C270 1.511 . S
C273 H287 0.961 . S
C273 H288 0.961 . S
C273 H289 0.961 . S
C274 C275 1.370 . S
C274 C276 1.363 . S
C274 H290 0.931 . S
C275 C274 1.370 . S
C275 C279 1.408 . S
C276 C274 1.363 . S
C276 C277 1.370 . S
C276 C280 1.524 . S
C277 C269 1.503 . S
C277 C276 1.370 . S
C277 C278 1.403 . S
C278 C277 1.403 . S
C278 C279 1.404 . S
C278 C281 1.539 . S
C279 C275 1.408 . S
C279 C278 1.404 . S
C279 H291 0.930 . S
C280 C276 1.524 . S
C280 H292 0.956 . S
C280 H293 0.961 . S
C280 H294 0.961 . S
C281 C278 1.539 . S
C281 H295 0.958 . S
C281 H296 0.961 . S
C281 H297 0.960 . S
H282 C266 0.931 . S
H283 C271 0.929 . S
H284 C272 0.960 . S
H285 C272 0.962 . S
H286 C272 0.960 . S
H287 C273 0.961 . S
H288 C273 0.961 . S
H289 C273 0.961 . S
H290 C274 0.931 . S
H291 C279 0.930 . S
H292 C280 0.956 . S
H293 C280 0.961 . S
H294 C280 0.961 . S
H295 C281 0.958 . S
H296 C281 0.961 . S
H297 C281 0.960 . S
C298 C299 1.391 . S
C298 C300 1.394 . S
C298 H314 0.931 . S
C299 C298 1.391 . S
C299 C303 1.376 . S
C300 C298 1.394 . S
C300 C301 1.369 . S
C300 C304 1.531 . S
C301 C300 1.369 . S
C301 C302 1.410 . S
C301 C309 1.503 . S
C302 C301 1.410 . S
C302 C303 1.392 . S
C302 C305 1.511 . S
C303 C299 1.376 . S
C303 C302 1.392 . S
C303 H315 0.929 . S
C304 C300 1.531 . S
C304 H316 0.960 . S
C304 H317 0.962 . S
C304 H318 0.960 . S
C305 C302 1.511 . S
C305 H319 0.961 . S
C305 H320 0.961 . S
C305 H321 0.961 . S
C306 C307 1.370 . S
C306 C308 1.363 . S
C306 H322 0.931 . S
C307 C306 1.370 . S
C307 C311 1.408 . S
C308 C306 1.363 . S
C308 C309 1.370 . S
C308 C312 1.524 . S
C309 C301 1.503 . S
C309 C308 1.370 . S
C309 C310 1.403 . S
C310 C309 1.403 . S
C310 C311 1.404 . S
C310 C313 1.539 . S
C311 C307 1.408 . S
C311 C310 1.404 . S
C311 H323 0.930 . S
C312 C308 1.524 . S
C312 H324 0.956 . S
C312 H325 0.961 . S
C312 H326 0.961 . S
C313 C310 1.539 . S
C313 H327 0.958 . S
C313 H328 0.961 . S
C313 H329 0.960 . S
H314 C298 0.931 . S
H315 C303 0.929 . S
H316 C304 0.960 . S
H317 C304 0.962 . S
H318 C304 0.960 . S
H319 C305 0.961 . S
H320 C305 0.961 . S
H321 C305 0.961 . S
H322 C306 0.931 . S
H323 C311 0.930 . S
H324 C312 0.956 . S
H325 C312 0.961 . S
H326 C312 0.961 . S
H327 C313 0.958 . S
H328 C313 0.961 . S
H329 C313 0.960 . S
C330 C331 1.391 . S
C330 C332 1.394 . S
C330 H346 0.931 . S
C331 C330 1.391 . S
C331 C335 1.376 . S
C332 C330 1.394 . S
C332 C333 1.369 . S
C332 C336 1.531 . S
C333 C332 1.369 . S
C333 C334 1.410 . S
C333 C341 1.503 . S
C334 C333 1.410 . S
C334 C335 1.392 . S
C334 C337 1.511 . S
C335 C331 1.376 . S
C335 C334 1.392 . S
C335 H347 0.929 . S
C336 C332 1.531 . S
C336 H348 0.960 . S
C336 H349 0.962 . S
C336 H350 0.960 . S
C337 C334 1.511 . S
C337 H351 0.961 . S
C337 H352 0.961 . S
C337 H353 0.961 . S
C338 C339 1.370 . S
C338 C340 1.363 . S
C338 H354 0.931 . S
C339 C338 1.370 . S
C339 C343 1.408 . S
C340 C338 1.363 . S
C340 C341 1.370 . S
C340 C344 1.524 . S
C341 C333 1.503 . S
C341 C340 1.370 . S
C341 C342 1.403 . S
C342 C341 1.403 . S
C342 C343 1.404 . S
C342 C345 1.539 . S
C343 C339 1.408 . S
C343 C342 1.404 . S
C343 H355 0.930 . S
C344 C340 1.524 . S
C344 H356 0.956 . S
C344 H357 0.961 . S
C344 H358 0.961 . S
C345 C342 1.539 . S
C345 H359 0.958 . S
C345 H360 0.961 . S
C345 H361 0.960 . S
H346 C330 0.931 . S
H347 C335 0.929 . S
H348 C336 0.960 . S
H349 C336 0.962 . S
H350 C336 0.960 . S
H351 C337 0.961 . S
H352 C337 0.961 . S
H353 C337 0.961 . S
H354 C338 0.931 . S
H355 C343 0.930 . S
H356 C344 0.956 . S
H357 C344 0.961 . S
H358 C344 0.961 . S
H359 C345 0.958 . S
H360 C345 0.961 . S
H361 C345 0.960 . S
C362 C363 1.391 . S
C362 C364 1.394 . S
C362 H378 0.931 . S
C363 C362 1.391 . S
C363 C367 1.376 . S
C364 C362 1.394 . S
C364 C365 1.369 . S
C364 C368 1.531 . S
C365 C364 1.369 . S
C365 C366 1.410 . S
C365 C373 1.503 . S
C366 C365 1.410 . S
C366 C367 1.392 . S
C366 C369 1.511 . S
C367 C363 1.376 . S
C367 C366 1.392 . S
C367 H379 0.929 . S
C368 C364 1.531 . S
C368 H380 0.960 . S
C368 H381 0.962 . S
C368 H382 0.960 . S
C369 C366 1.511 . S
C369 H383 0.961 . S
C369 H384 0.961 . S
C369 H385 0.961 . S
C370 C371 1.370 . S
C370 C372 1.363 . S
C370 H386 0.931 . S
C371 C370 1.370 . S
C371 C375 1.408 . S
C372 C370 1.363 . S
C372 C373 1.370 . S
C372 C376 1.524 . S
C373 C365 1.503 . S
C373 C372 1.370 . S
C373 C374 1.403 . S
C374 C373 1.403 . S
C374 C375 1.404 . S
C374 C377 1.539 . S
C375 C371 1.408 . S
C375 C374 1.404 . S
C375 H387 0.930 . S
C376 C372 1.524 . S
C376 H388 0.956 . S
C376 H389 0.961 . S
C376 H390 0.961 . S
C377 C374 1.539 . S
C377 H391 0.958 . S
C377 H392 0.961 . S
C377 H393 0.960 . S
H378 C362 0.931 . S
H379 C367 0.929 . S
H380 C368 0.960 . S
H381 C368 0.962 . S
H382 C368 0.960 . S
H383 C369 0.961 . S
H384 C369 0.961 . S
H385 C369 0.961 . S
H386 C370 0.931 . S
H387 C375 0.930 . S
H388 C376 0.956 . S
H389 C376 0.961 . S
H390 C376 0.961 . S
H391 C377 0.958 . S
H392 C377 0.961 . S
H393 C377 0.960 . S
C394 C395 1.391 . S
C394 C396 1.394 . S
C394 H410 0.931 . S
C395 C394 1.391 . S
C395 C399 1.376 . S
C396 C394 1.394 . S
C396 C397 1.369 . S
C396 C400 1.531 . S
C397 C396 1.369 . S
C397 C398 1.410 . S
C397 C405 1.503 . S
C398 C397 1.410 . S
C398 C399 1.392 . S
C398 C401 1.511 . S
C399 C395 1.376 . S
C399 C398 1.392 . S
C399 H411 0.929 . S
C400 C396 1.531 . S
C400 H412 0.960 . S
C400 H413 0.962 . S
C400 H414 0.960 . S
C401 C398 1.511 . S
C401 H415 0.961 . S
C401 H416 0.961 . S
C401 H417 0.961 . S
C402 C403 1.370 . S
C402 C404 1.363 . S
C402 H418 0.931 . S
C403 C402 1.370 . S
C403 C407 1.408 . S
C404 C402 1.363 . S
C404 C405 1.370 . S
C404 C408 1.524 . S
C405 C397 1.503 . S
C405 C404 1.370 . S
C405 C406 1.403 . S
C406 C405 1.403 . S
C406 C407 1.404 . S
C406 C409 1.539 . S
C407 C403 1.408 . S
C407 C406 1.404 . S
C407 H419 0.930 . S
C408 C404 1.524 . S
C408 H420 0.956 . S
C408 H421 0.961 . S
C408 H422 0.961 . S
C409 C406 1.539 . S
C409 H423 0.958 . S
C409 H424 0.961 . S
C409 H425 0.960 . S
H410 C394 0.931 . S
H411 C399 0.929 . S
H412 C400 0.960 . S
H413 C400 0.962 . S
H414 C400 0.960 . S
H415 C401 0.961 . S
H416 C401 0.961 . S
H417 C401 0.961 . S
H418 C402 0.931 . S
H419 C407 0.930 . S
H420 C408 0.956 . S
H421 C408 0.961 . S
H422 C408 0.961 . S
H423 C409 0.958 . S
H424 C409 0.961 . S
H425 C409 0.960 . S
C426 C427 1.391 . S
C426 C428 1.394 . S
C426 H442 0.931 . S
C427 C426 1.391 . S
C427 C431 1.376 . S
C428 C426 1.394 . S
C428 C429 1.369 . S
C428 C432 1.531 . S
C429 C428 1.369 . S
C429 C430 1.410 . S
C429 C437 1.503 . S
C430 C429 1.410 . S
C430 C431 1.392 . S
C430 C433 1.511 . S
C431 C427 1.376 . S
C431 C430 1.392 . S
C431 H443 0.929 . S
C432 C428 1.531 . S
C432 H444 0.960 . S
C432 H445 0.962 . S
C432 H446 0.960 . S
C433 C430 1.511 . S
C433 H447 0.961 . S
C433 H448 0.961 . S
C433 H449 0.961 . S
C434 C435 1.370 . S
C434 C436 1.363 . S
C434 H450 0.931 . S
C435 C434 1.370 . S
C435 C439 1.408 . S
C436 C434 1.363 . S
C436 C437 1.370 . S
C436 C440 1.524 . S
C437 C429 1.503 . S
C437 C436 1.370 . S
C437 C438 1.403 . S
C438 C437 1.403 . S
C438 C439 1.404 . S
C438 C441 1.539 . S
C439 C435 1.408 . S
C439 C438 1.404 . S
C439 H451 0.930 . S
C440 C436 1.524 . S
C440 H452 0.956 . S
C440 H453 0.961 . S
C440 H454 0.961 . S
C441 C438 1.539 . S
C441 H455 0.958 . S
C441 H456 0.961 . S
C441 H457 0.960 . S
H442 C426 0.931 . S
H443 C431 0.929 . S
H444 C432 0.960 . S
H445 C432 0.962 . S
H446 C432 0.960 . S
H447 C433 0.961 . S
H448 C433 0.961 . S
H449 C433 0.961 . S
H450 C434 0.931 . S
H451 C439 0.930 . S
H452 C440 0.956 . S
H453 C440 0.961 . S
H454 C440 0.961 . S
H455 C441 0.958 . S
H456 C441 0.961 . S
H457 C441 0.960 . S
C458 C459 1.391 . S
C458 C460 1.394 . S
C458 H474 0.931 . S
C459 C458 1.391 . S
C459 C463 1.376 . S
C460 C458 1.394 . S
C460 C461 1.369 . S
C460 C464 1.531 . S
C461 C460 1.369 . S
C461 C462 1.410 . S
C461 C469 1.503 . S
C462 C461 1.410 . S
C462 C463 1.392 . S
C462 C465 1.511 . S
C463 C459 1.376 . S
C463 C462 1.392 . S
C463 H475 0.929 . S
C464 C460 1.531 . S
C464 H476 0.960 . S
C464 H477 0.962 . S
C464 H478 0.960 . S
C465 C462 1.511 . S
C465 H479 0.961 . S
C465 H480 0.961 . S
C465 H481 0.961 . S
C466 C467 1.370 . S
C466 C468 1.363 . S
C466 H482 0.931 . S
C467 C466 1.370 . S
C467 C471 1.408 . S
C468 C466 1.363 . S
C468 C469 1.370 . S
C468 C472 1.524 . S
C469 C461 1.503 . S
C469 C468 1.370 . S
C469 C470 1.403 . S
C470 C469 1.403 . S
C470 C471 1.404 . S
C470 C473 1.539 . S
C471 C467 1.408 . S
C471 C470 1.404 . S
C471 H483 0.930 . S
C472 C468 1.524 . S
C472 H484 0.956 . S
C472 H485 0.961 . S
C472 H486 0.961 . S
C473 C470 1.539 . S
C473 H487 0.958 . S
C473 H488 0.961 . S
C473 H489 0.960 . S
H474 C458 0.931 . S
H475 C463 0.929 . S
H476 C464 0.960 . S
H477 C464 0.962 . S
H478 C464 0.960 . S
H479 C465 0.961 . S
H480 C465 0.961 . S
H481 C465 0.961 . S
H482 C466 0.931 . S
H483 C471 0.930 . S
H484 C472 0.956 . S
H485 C472 0.961 . S
H486 C472 0.961 . S
H487 C473 0.958 . S
H488 C473 0.961 . S
H489 C473 0.960 . S
C490 C491 1.391 . S
C490 C492 1.394 . S
C490 H506 0.931 . S
C491 C490 1.391 . S
C491 C495 1.376 . S
C492 C490 1.394 . S
C492 C493 1.369 . S
C492 C496 1.531 . S
C493 C492 1.369 . S
C493 C494 1.410 . S
C493 C501 1.503 . S
C494 C493 1.410 . S
C494 C495 1.392 . S
C494 C497 1.511 . S
C495 C491 1.376 . S
C495 C494 1.392 . S
C495 H507 0.929 . S
C496 C492 1.531 . S
C496 H508 0.960 . S
C496 H509 0.962 . S
C496 H510 0.960 . S
C497 C494 1.511 . S
C497 H511 0.961 . S
C497 H512 0.961 . S
C497 H513 0.961 . S
C498 C499 1.370 . S
C498 C500 1.363 . S
C498 H514 0.931 . S
C499 C498 1.370 . S
C499 C503 1.408 . S
C500 C498 1.363 . S
C500 C501 1.370 . S
C500 C504 1.524 . S
C501 C493 1.503 . S
C501 C500 1.370 . S
C501 C502 1.403 . S
C502 C501 1.403 . S
C502 C503 1.404 . S
C502 C505 1.539 . S
C503 C499 1.408 . S
C503 C502 1.404 . S
C503 H515 0.930 . S
C504 C500 1.524 . S
C504 H516 0.956 . S
C504 H517 0.961 . S
C504 H518 0.961 . S
C505 C502 1.539 . S
C505 H519 0.958 . S
C505 H520 0.961 . S
C505 H521 0.960 . S
H506 C490 0.931 . S
H507 C495 0.929 . S
H508 C496 0.960 . S
H509 C496 0.962 . S
H510 C496 0.960 . S
H511 C497 0.961 . S
H512 C497 0.961 . S
H513 C497 0.961 . S
H514 C498 0.931 . S
H515 C503 0.930 . S
H516 C504 0.956 . S
H517 C504 0.961 . S
H518 C504 0.961 . S
H519 C505 0.958 . S
H520 C505 0.961 . S
H521 C505 0.960 . S
C522 C523 1.391 . S
C522 C524 1.394 . S
C522 H538 0.931 . S
C523 C522 1.391 . S
C523 C527 1.376 . S
C524 C522 1.394 . S
C524 C525 1.369 . S
C524 C528 1.531 . S
C525 C524 1.369 . S
C525 C526 1.410 . S
C525 C533 1.503 . S
C526 C525 1.410 . S
C526 C527 1.392 . S
C526 C529 1.511 . S
C527 C523 1.376 . S
C527 C526 1.392 . S
C527 H539 0.929 . S
C528 C524 1.531 . S
C528 H540 0.960 . S
C528 H541 0.962 . S
C528 H542 0.960 . S
C529 C526 1.511 . S
C529 H543 0.961 . S
C529 H544 0.961 . S
C529 H545 0.961 . S
C530 C531 1.370 . S
C530 C532 1.363 . S
C530 H546 0.931 . S
C531 C530 1.370 . S
C531 C535 1.408 . S
C532 C530 1.363 . S
C532 C533 1.370 . S
C532 C536 1.524 . S
C533 C525 1.503 . S
C533 C532 1.370 . S
C533 C534 1.403 . S
C534 C533 1.403 . S
C534 C535 1.404 . S
C534 C537 1.539 . S
C535 C531 1.408 . S
C535 C534 1.404 . S
C535 H547 0.930 . S
C536 C532 1.524 . S
C536 H548 0.956 . S
C536 H549 0.961 . S
C536 H550 0.961 . S
C537 C534 1.539 . S
C537 H551 0.958 . S
C537 H552 0.961 . S
C537 H553 0.960 . S
H538 C522 0.931 . S
H539 C527 0.929 . S
H540 C528 0.960 . S
H541 C528 0.962 . S
H542 C528 0.960 . S
H543 C529 0.961 . S
H544 C529 0.961 . S
H545 C529 0.961 . S
H546 C530 0.931 . S
H547 C535 0.930 . S
H548 C536 0.956 . S
H549 C536 0.961 . S
H550 C536 0.961 . S
H551 C537 0.958 . S
H552 C537 0.961 . S
H553 C537 0.960 . S
C554 C555 1.391 . S
C554 C556 1.394 . S
C554 H570 0.931 . S
C555 C554 1.391 . S
C555 C559 1.376 . S
C556 C554 1.394 . S
C556 C557 1.369 . S
C556 C560 1.531 . S
C557 C556 1.369 . S
C557 C558 1.410 . S
C557 C565 1.503 . S
C558 C557 1.410 . S
C558 C559 1.392 . S
C558 C561 1.511 . S
C559 C555 1.376 . S
C559 C558 1.392 . S
C559 H571 0.929 . S
C560 C556 1.531 . S
C560 H572 0.960 . S
C560 H573 0.962 . S
C560 H574 0.960 . S
C561 C558 1.511 . S
C561 H575 0.961 . S
C561 H576 0.961 . S
C561 H577 0.961 . S
C562 C563 1.370 . S
C562 C564 1.363 . S
C562 H578 0.931 . S
C563 C562 1.370 . S
C563 C567 1.408 . S
C564 C562 1.363 . S
C564 C565 1.370 . S
C564 C568 1.524 . S
C565 C557 1.503 . S
C565 C564 1.370 . S
C565 C566 1.403 . S
C566 C565 1.403 . S
C566 C567 1.404 . S
C566 C569 1.539 . S
C567 C563 1.408 . S
C567 C566 1.404 . S
C567 H579 0.930 . S
C568 C564 1.524 . S
C568 H580 0.956 . S
C568 H581 0.961 . S
C568 H582 0.961 . S
C569 C566 1.539 . S
C569 H583 0.958 . S
C569 H584 0.961 . S
C569 H585 0.960 . S
H570 C554 0.931 . S
H571 C559 0.929 . S
H572 C560 0.960 . S
H573 C560 0.962 . S
H574 C560 0.960 . S
H575 C561 0.961 . S
H576 C561 0.961 . S
H577 C561 0.961 . S
H578 C562 0.931 . S
H579 C567 0.930 . S
H580 C568 0.956 . S
H581 C568 0.961 . S
H582 C568 0.961 . S
H583 C569 0.958 . S
H584 C569 0.961 . S
H585 C569 0.960 . S
C586 C587 1.391 . S
C586 C588 1.394 . S
C586 H602 0.931 . S
C587 C586 1.391 . S
C587 C591 1.376 . S
C588 C586 1.394 . S
C588 C589 1.369 . S
C588 C592 1.531 . S
C589 C588 1.369 . S
C589 C590 1.410 . S
C589 C597 1.503 . S
C590 C589 1.410 . S
C590 C591 1.392 . S
C590 C593 1.511 . S
C591 C587 1.376 . S
C591 C590 1.392 . S
C591 H603 0.929 . S
C592 C588 1.531 . S
C592 H604 0.960 . S
C592 H605 0.962 . S
C592 H606 0.960 . S
C593 C590 1.511 . S
C593 H607 0.961 . S
C593 H608 0.961 . S
C593 H609 0.961 . S
C594 C595 1.370 . S
C594 C596 1.363 . S
C594 H610 0.931 . S
C595 C594 1.370 . S
C595 C599 1.408 . S
C596 C594 1.363 . S
C596 C597 1.370 . S
C596 C600 1.524 . S
C597 C589 1.503 . S
C597 C596 1.370 . S
C597 C598 1.403 . S
C598 C597 1.403 . S
C598 C599 1.404 . S
C598 C601 1.539 . S
C599 C595 1.408 . S
C599 C598 1.404 . S
C599 H611 0.930 . S
C600 C596 1.524 . S
C600 H612 0.956 . S
C600 H613 0.961 . S
C600 H614 0.961 . S
C601 C598 1.539 . S
C601 H615 0.958 . S
C601 H616 0.961 . S
C601 H617 0.960 . S
H602 C586 0.931 . S
H603 C591 0.929 . S
H604 C592 0.960 . S
H605 C592 0.962 . S
H606 C592 0.960 . S
H607 C593 0.961 . S
H608 C593 0.961 . S
H609 C593 0.961 . S
H610 C594 0.931 . S
H611 C599 0.930 . S
H612 C600 0.956 . S
H613 C600 0.961 . S
H614 C600 0.961 . S
H615 C601 0.958 . S
H616 C601 0.961 . S
H617 C601 0.960 . S
C618 C619 1.391 . S
C618 C620 1.394 . S
C618 H634 0.931 . S
C619 C618 1.391 . S
C619 C623 1.376 . S
C620 C618 1.394 . S
C620 C621 1.369 . S
C620 C624 1.531 . S
C621 C620 1.369 . S
C621 C622 1.410 . S
C621 C629 1.503 1_554 S
C622 C621 1.410 . S
C622 C623 1.392 . S
C622 C625 1.511 1_455 S
C623 C619 1.376 . S
C623 C622 1.392 . S
C623 H635 0.929 . S
C624 C620 1.531 . S
C624 H636 0.960 . S
C624 H637 0.962 . S
C624 H638 0.960 . S
C625 C622 1.511 1_655 S
C625 H639 0.961 1_655 S
C625 H640 0.946 1_654 S
C625 H641 0.961 . S
C626 C627 1.370 . S
C626 C628 1.363 . S
C626 H642 0.931 . S
C627 C626 1.370 . S
C627 C631 1.408 . S
C628 C626 1.363 . S
C628 C629 1.370 . S
C628 C632 1.524 1_556 S
C629 C621 1.503 1_556 S
C629 C628 1.370 . S
C629 C630 1.403 . S
C630 C629 1.403 . S
C630 C631 1.404 . S
C630 C633 1.539 1_455 S
C631 C627 1.408 . S
C631 C630 1.404 . S
C631 H643 0.930 1_455 S
C632 C628 1.524 1_554 S
C632 H644 0.956 . S
C632 H645 0.961 . S
C632 H646 0.935 1_554 S
C633 C630 1.539 1_655 S
C633 H647 0.958 . S
C633 H648 0.961 . S
C633 H649 0.960 . S
H634 C618 0.931 . S
H635 C623 0.929 . S
H636 C624 0.960 . S
H637 C624 0.962 . S
H638 C624 0.960 . S
H639 C625 0.961 1_455 S
H640 C625 0.946 1_456 S
H641 C625 0.961 . S
H642 C626 0.931 . S
H643 C631 0.930 1_655 S
H644 C632 0.956 . S
H645 C632 0.961 . S
H646 C632 0.935 1_556 S
H647 C633 0.958 . S
H648 C633 0.961 . S
H649 C633 0.960 . S
C650 C651 1.391 . S
C650 C652 1.394 . S
C650 H666 0.931 . S
C651 C650 1.391 . S
C651 C655 1.376 . S
C652 C650 1.394 . S
C652 C653 1.369 . S
C652 C656 1.531 . S
C653 C652 1.369 . S
C653 C654 1.410 . S
C653 C661 1.503 . S
C654 C653 1.410 . S
C654 C655 1.392 . S
C654 C657 1.511 . S
C655 C651 1.376 . S
C655 C654 1.392 . S
C655 H667 0.929 . S
C656 C652 1.531 . S
C656 H668 0.960 . S
C656 H669 0.962 . S
C656 H670 0.960 . S
C657 C654 1.511 . S
C657 H671 0.961 . S
C657 H672 0.961 . S
C657 H673 0.961 . S
C658 C659 1.370 . S
C658 C660 1.363 . S
C658 H674 0.931 1_545 S
C659 C658 1.370 . S
C659 C663 1.408 . S
C660 C658 1.363 . S
C660 C661 1.370 . S
C660 C664 1.524 1_545 S
C661 C653 1.503 . S
C661 C660 1.370 . S
C661 C662 1.403 . S
C662 C661 1.403 . S
C662 C663 1.404 . S
C662 C665 1.539 . S
C663 C659 1.408 . S
C663 C662 1.404 . S
C663 H675 0.930 . S
C664 C660 1.524 1_565 S
C664 H676 0.956 . S
C664 H677 0.961 . S
C664 H678 0.961 . S
C665 C662 1.539 . S
C665 H679 0.958 . S
C665 H680 0.961 . S
C665 H681 0.960 . S
H666 C650 0.931 . S
H667 C655 0.929 . S
H668 C656 0.960 . S
H669 C656 0.962 . S
H670 C656 0.960 . S
H671 C657 0.961 . S
H672 C657 0.961 . S
H673 C657 0.961 . S
H674 C658 0.931 1_565 S
H675 C663 0.930 . S
H676 C664 0.956 . S
H677 C664 0.961 . S
H678 C664 0.961 . S
H679 C665 0.958 . S
H680 C665 0.961 . S
H681 C665 0.960 . S
C682 C683 1.391 . S
C682 C684 1.394 . S
C682 H698 0.931 . S
C683 C682 1.391 . S
C683 C687 1.376 . S
C684 C682 1.394 . S
C684 C685 1.369 . S
C684 C688 1.531 . S
C685 C684 1.369 . S
C685 C686 1.410 . S
C685 C693 1.503 . S
C686 C685 1.410 . S
C686 C687 1.392 . S
C686 C689 1.511 . S
C687 C683 1.376 . S
C687 C686 1.392 . S
C687 H699 0.929 . S
C688 C684 1.531 . S
C688 H700 0.960 . S
C688 H701 0.962 . S
C688 H702 0.960 . S
C689 C686 1.511 . S
C689 H703 0.961 . S
C689 H704 0.961 . S
C689 H705 0.961 . S
C690 C691 1.370 . S
C690 C692 1.363 . S
C690 H706 0.931 . S
C691 C690 1.370 . S
C691 C695 1.408 . S
C692 C690 1.363 . S
C692 C693 1.370 . S
C692 C696 1.524 . S
C693 C685 1.503 . S
C693 C692 1.370 . S
C693 C694 1.403 . S
C694 C693 1.403 . S
C694 C695 1.404 . S
C694 C697 1.539 . S
C695 C691 1.408 . S
C695 C694 1.404 . S
C695 H707 0.930 . S
C696 C692 1.524 . S
C696 H708 0.956 . S
C696 H709 0.961 . S
C696 H710 0.961 . S
C697 C694 1.539 . S
C697 H711 0.958 . S
C697 H712 0.961 . S
C697 H713 0.960 . S
H698 C682 0.931 . S
H699 C687 0.929 . S
H700 C688 0.960 . S
H701 C688 0.962 . S
H702 C688 0.960 . S
H703 C689 0.961 . S
H704 C689 0.961 . S
H705 C689 0.961 . S
H706 C690 0.931 . S
H707 C695 0.930 . S
H708 C696 0.956 . S
H709 C696 0.961 . S
H710 C696 0.961 . S
H711 C697 0.958 . S
H712 C697 0.961 . S
H713 C697 0.960 . S
C714 C715 1.391 . S
C714 C716 1.394 . S
C714 H730 0.931 1_545 S
C715 C714 1.391 . S
C715 C719 1.376 . S
C716 C714 1.394 . S
C716 C717 1.369 . S
C716 C720 1.531 1_545 S
C717 C716 1.369 . S
C717 C718 1.410 . S
C717 C725 1.503 . S
C718 C717 1.410 . S
C718 C719 1.392 . S
C718 C721 1.511 . S
C719 C715 1.376 . S
C719 C718 1.392 . S
C719 H731 0.929 . S
C720 C716 1.531 1_565 S
C720 H732 0.960 . S
C720 H733 0.962 . S
C720 H734 0.960 . S
C721 C718 1.511 . S
C721 H735 0.961 . S
C721 H736 0.961 . S
C721 H737 0.961 . S
C722 C723 1.370 . S
C722 C724 1.363 . S
C722 H738 0.931 . S
C723 C722 1.370 . S
C723 C727 1.408 . S
C724 C722 1.363 . S
C724 C725 1.370 . S
C724 C728 1.524 . S
C725 C717 1.503 . S
C725 C724 1.370 . S
C725 C726 1.403 . S
C726 C725 1.403 . S
C726 C727 1.404 . S
C726 C729 1.539 . S
C727 C723 1.408 . S
C727 C726 1.404 . S
C727 H739 0.930 . S
C728 C724 1.524 . S
C728 H740 0.956 . S
C728 H741 0.961 . S
C728 H742 0.961 . S
C729 C726 1.539 . S
C729 H743 0.958 . S
C729 H744 0.961 . S
C729 H745 0.960 . S
H730 C714 0.931 1_565 S
H731 C719 0.929 . S
H732 C720 0.960 . S
H733 C720 0.962 . S
H734 C720 0.960 . S
H735 C721 0.961 . S
H736 C721 0.961 . S
H737 C721 0.961 . S
H738 C722 0.931 . S
H739 C727 0.930 . S
H740 C728 0.956 . S
H741 C728 0.961 . S
H742 C728 0.961 . S
H743 C729 0.958 . S
H744 C729 0.961 . S
H745 C729 0.960 . S
C746 C747 1.391 . S
C746 C748 1.394 . S
C746 H762 0.931 . S
C747 C746 1.391 . S
C747 C751 1.376 . S
C748 C746 1.394 . S
C748 C749 1.369 . S
C748 C752 1.531 . S
C749 C748 1.369 . S
C749 C750 1.410 . S
C749 C757 1.503 . S
C750 C749 1.410 . S
C750 C751 1.392 . S
C750 C753 1.511 . S
C751 C747 1.376 . S
C751 C750 1.392 . S
C751 H763 0.929 . S
C752 C748 1.531 . S
C752 H764 0.960 . S
C752 H765 0.962 . S
C752 H766 0.960 . S
C753 C750 1.511 . S
C753 H767 0.961 . S
C753 H768 0.961 1_556 S
C753 H769 0.961 . S
C754 C755 1.370 . S
C754 C756 1.363 . S
C754 H770 0.931 . S
C755 C754 1.370 . S
C755 C759 1.408 . S
C756 C754 1.363 . S
C756 C757 1.370 1_554 S
C756 C760 1.524 1_554 S
C757 C749 1.503 . S
C757 C756 1.370 1_556 S
C757 C758 1.403 1_556 S
C758 C757 1.403 1_554 S
C758 C759 1.404 . S
C758 C761 1.539 . S
C759 C755 1.408 . S
C759 C758 1.404 . S
C759 H771 0.930 . S
C760 C756 1.524 1_556 S
C760 H772 0.956 . S
C760 H773 0.961 . S
C760 H774 0.961 . S
C761 C758 1.539 . S
C761 H775 0.958 1_554 S
C761 H776 0.961 . S
C761 H777 0.960 1_554 S
H762 C746 0.931 . S
H763 C751 0.929 . S
H764 C752 0.960 . S
H765 C752 0.962 . S
H766 C752 0.960 . S
H767 C753 0.961 . S
H768 C753 0.961 1_554 S
H769 C753 0.961 . S
H770 C754 0.931 . S
H771 C759 0.930 . S
H772 C760 0.956 . S
H773 C760 0.961 . S
H774 C760 0.961 . S
H775 C761 0.958 1_556 S
H776 C761 0.961 . S
H777 C761 0.960 1_556 S
C778 C779 1.391 . S
C778 C780 1.394 . S
C778 H794 0.931 . S
C779 C778 1.391 . S
C779 C783 1.392 . S
C780 C778 1.394 . S
C780 C781 1.369 . S
C780 C784 1.531 . S
C781 C780 1.369 . S
C781 C782 1.410 1_455 S
C781 C789 1.503 . S
C782 C781 1.410 1_655 S
C782 C783 1.389 1_655 S
C782 C785 1.511 . S
C783 C779 1.392 . S
C783 C782 1.389 1_455 S
C783 H795 0.916 1_455 S
C784 C780 1.531 . S
C784 H796 0.960 . S
C784 H797 0.962 . S
C784 H798 0.960 . S
C785 C782 1.511 . S
C785 H799 0.961 . S
C785 H800 0.961 . S
C785 H801 0.961 . S
C786 C787 1.370 . S
C786 C788 1.363 . S
C786 H802 0.931 . S
C787 C786 1.370 . S
C787 C791 1.408 . S
C788 C786 1.363 . S
C788 C789 1.370 . S
C788 C792 1.524 . S
C789 C781 1.503 . S
C789 C788 1.370 . S
C789 C790 1.403 . S
C790 C789 1.403 . S
C790 C791 1.404 . S
C790 C793 1.539 . S
C791 C787 1.408 . S
C791 C790 1.404 . S
C791 H803 0.930 . S
C792 C788 1.524 . S
C792 H804 0.956 . S
C792 H805 0.961 . S
C792 H806 0.961 . S
C793 C790 1.539 . S
C793 H807 0.958 . S
C793 H808 0.961 . S
C793 H809 0.960 . S
H794 C778 0.931 . S
H795 C783 0.916 1_655 S
H796 C784 0.960 . S
H797 C784 0.962 . S
H798 C784 0.960 . S
H799 C785 0.961 . S
H800 C785 0.961 . S
H801 C785 0.961 . S
H802 C786 0.931 . S
H803 C791 0.930 . S
H804 C792 0.956 . S
H805 C792 0.961 . S
H806 C792 0.961 . S
H807 C793 0.958 . S
H808 C793 0.961 . S
H809 C793 0.960 . S
C235 C7 0.754 . S
C243 C226 0.832 . S
C267 C51 1.977 . S
C275 C188 1.923 . S
C299 C87 1.304 . S
C307 C207 1.228 . S
C331 C16 0.245 . S
C339 C221 0.176 . S
C371 C183 1.862 . S
C363 C42 1.899 . S
C403 C202 1.115 . S
C395 C96 1.136 . S
C427 C47 1.351 . S
C435 C150 1.244 . S
C459 C91 3.060 . S
C467 C164 3.021 1_655 S
C491 C2 1.920 . S
C499 C126 1.910 . S
C531 C145 1.125 . S
C523 C56 1.132 . S
C563 C169 3.014 . S
C555 C82 3.085 . S
C587 C11 1.987 . S
C595 C131 1.935 . S
C627 C160 1.710 . S
C619 C19 1.691 . S
C651 C50 1.457 . S
C659 C122 1.532 . S
C683 C99 1.571 . S
C691 C141 1.569 . S
C723 C198 1.557 . S
C715 C59 1.571 . S
C755 C217 1.370 . S
C747 C90 1.381 . S
C779 C10 1.466 . S
C787 C179 1.473 . S
