# Generated by pormake.
# Topology ssb, (4,4)-cn, num edge types: 1
# Building blocks:
#     Node 0, Type 0, BuildingBlock: NAHDIM_clean_linker_0, # of connection points: 4
#     Node 1, Type 0, BuildingBlock: NAHDIM_clean_linker_0, # of connection points: 4
#     Node 2, Type 0, BuildingBlock: NAHDIM_clean_linker_0, # of connection points: 4
#     Node 3, Type 0, BuildingBlock: NAHDIM_clean_linker_0, # of connection points: 4
#     Node 4, Type 0, BuildingBlock: NAHDIM_clean_linker_0, # of connection points: 4
#     Node 5, Type 0, BuildingBlock: NAHDIM_clean_linker_0, # of connection points: 4
#     Node 6, Type 0, BuildingBlock: NAHDIM_clean_linker_0, # of connection points: 4
#     Node 7, Type 0, BuildingBlock: NAHDIM_clean_linker_0, # of connection points: 4
#     Node 8, Type 1, BuildingBlock: NAWXER_clean_sbu_0, # of connection points: 4
#     Node 9, Type 1, BuildingBlock: NAWXER_clean_sbu_0, # of connection points: 4
#     Node 10, Type 1, BuildingBlock: NAWXER_clean_sbu_0, # of connection points: 4
#     Node 11, Type 1, BuildingBlock: NAWXER_clean_sbu_0, # of connection points: 4
#     Node 12, Type 1, BuildingBlock: NAWXER_clean_sbu_0, # of connection points: 4
#     Node 13, Type 1, BuildingBlock: NAWXER_clean_sbu_0, # of connection points: 4
#     Node 14, Type 1, BuildingBlock: NAWXER_clean_sbu_0, # of connection points: 4
#     Node 15, Type 1, BuildingBlock: NAWXER_clean_sbu_0, # of connection points: 4
#     Edge 16, Type (0, 1), BuildingBlock: XUDNAN_clean_linker_2, # of connection points: 2
#     Edge 17, Type (0, 1), BuildingBlock: XUDNAN_clean_linker_2, # of connection points: 2
#     Edge 18, Type (0, 1), BuildingBlock: XUDNAN_clean_linker_2, # of connection points: 2
#     Edge 19, Type (0, 1), BuildingBlock: XUDNAN_clean_linker_2, # of connection points: 2
#     Edge 20, Type (0, 1), BuildingBlock: XUDNAN_clean_linker_2, # of connection points: 2
#     Edge 21, Type (0, 1), BuildingBlock: XUDNAN_clean_linker_2, # of connection points: 2
#     Edge 22, Type (0, 1), BuildingBlock: XUDNAN_clean_linker_2, # of connection points: 2
#     Edge 23, Type (0, 1), BuildingBlock: XUDNAN_clean_linker_2, # of connection points: 2
#     Edge 24, Type (0, 1), BuildingBlock: XUDNAN_clean_linker_2, # of connection points: 2
#     Edge 25, Type (0, 1), BuildingBlock: XUDNAN_clean_linker_2, # of connection points: 2
#     Edge 26, Type (0, 1), BuildingBlock: XUDNAN_clean_linker_2, # of connection points: 2
#     Edge 27, Type (0, 1), BuildingBlock: XUDNAN_clean_linker_2, # of connection points: 2
#     Edge 28, Type (0, 1), BuildingBlock: XUDNAN_clean_linker_2, # of connection points: 2
#     Edge 29, Type (0, 1), BuildingBlock: XUDNAN_clean_linker_2, # of connection points: 2
#     Edge 30, Type (0, 1), BuildingBlock: XUDNAN_clean_linker_2, # of connection points: 2
#     Edge 31, Type (0, 1), BuildingBlock: XUDNAN_clean_linker_2, # of connection points: 2
#     Edge 32, Type (0, 1), BuildingBlock: XUDNAN_clean_linker_2, # of connection points: 2
#     Edge 33, Type (0, 1), BuildingBlock: XUDNAN_clean_linker_2, # of connection points: 2
#     Edge 34, Type (0, 1), BuildingBlock: XUDNAN_clean_linker_2, # of connection points: 2
#     Edge 35, Type (0, 1), BuildingBlock: XUDNAN_clean_linker_2, # of connection points: 2
#     Edge 36, Type (0, 1), BuildingBlock: XUDNAN_clean_linker_2, # of connection points: 2
#     Edge 37, Type (0, 1), BuildingBlock: XUDNAN_clean_linker_2, # of connection points: 2
#     Edge 38, Type (0, 1), BuildingBlock: XUDNAN_clean_linker_2, # of connection points: 2
#     Edge 39, Type (0, 1), BuildingBlock: XUDNAN_clean_linker_2, # of connection points: 2
#     Edge 40, Type (0, 1), BuildingBlock: XUDNAN_clean_linker_2, # of connection points: 2
#     Edge 41, Type (0, 1), BuildingBlock: XUDNAN_clean_linker_2, # of connection points: 2
#     Edge 42, Type (0, 1), BuildingBlock: XUDNAN_clean_linker_2, # of connection points: 2
#     Edge 43, Type (0, 1), BuildingBlock: XUDNAN_clean_linker_2, # of connection points: 2
#     Edge 44, Type (0, 1), BuildingBlock: XUDNAN_clean_linker_2, # of connection points: 2
#     Edge 45, Type (0, 1), BuildingBlock: XUDNAN_clean_linker_2, # of connection points: 2
#     Edge 46, Type (0, 1), BuildingBlock: XUDNAN_clean_linker_2, # of connection points: 2
#     Edge 47, Type (0, 1), BuildingBlock: XUDNAN_clean_linker_2, # of connection points: 2
# Relax obj value: 0.005
# Max RMSD: 0.044
# Mean RMSD: 0.033
data_MOF--net-ssb--node1-NAWXER_clean_sbu_0--node2-NAHDIM_clean_linker_0--edge1-XUDNAN_clean_linker_2
_symmetry_space_group_name_H-M    P1
_symmetry_Int_Tables_number       1
_symmetry_cell_setting            triclinic
loop_
_symmetry_equiv_pos_as_xyz
'x, y, z'
_cell_length_a     62.328488
_cell_length_b     62.33371
_cell_length_c     53.484979
_cell_angle_alpha  90.059553
_cell_angle_beta   90.021694
_cell_angle_gamma 89.994989
loop_
_atom_site_label
_atom_site_type_symbol
_atom_site_fract_x
_atom_site_fract_y
_atom_site_fract_z
_atom_type_partial_charge
C0 C 0.33456 0.12315 0.31132 0.0
C1 C 0.3299 0.13989 0.33154 0.0
C2 C 0.3086 0.16995 0.31703 0.0
C3 C 0.31903 0.18737 0.32829 0.0
C4 C 0.3177 0.20798 0.31785 0.0
C5 C 0.30592 0.21111 0.29548 0.0
C6 C 0.29492 0.19358 0.28449 0.0
C7 C 0.2961 0.17326 0.29572 0.0
C8 C 0.32929 0.22625 0.3305 0.0
C9 C 0.28236 0.19618 0.26055 0.0
C10 C 0.42156 0.31261 0.193 0.0
C11 C 0.40719 0.29283 0.19007 0.0
C12 C 0.38498 0.2774 0.22328 0.0
C13 C 0.36884 0.2682 0.20842 0.0
C14 C 0.34945 0.26128 0.21918 0.0
C15 C 0.3461 0.26401 0.24518 0.0
C16 C 0.36252 0.27305 0.26015 0.0
C17 C 0.38188 0.27927 0.24901 0.0
C18 C 0.3325 0.2512 0.20282 0.0
C19 C 0.35956 0.27633 0.2879 0.0
C20 C 0.2549 0.37444 0.22015 0.0
C21 C 0.24455 0.3563 0.21065 0.0
C22 C 0.2443 0.33691 0.22395 0.0
C23 C 0.25447 0.33575 0.24756 0.0
C24 C 0.26456 0.35416 0.25762 0.0
C25 C 0.2648 0.37329 0.24377 0.0
C26 C 0.23337 0.31758 0.2127 0.0
C27 C 0.2752 0.35357 0.28297 0.0
C28 C 0.17167 0.24698 0.38551 0.0
C29 C 0.16897 0.27129 0.38236 0.0
C30 C 0.18443 0.28039 0.34152 0.0
C31 C 0.18277 0.27395 0.31656 0.0
C32 C 0.19964 0.27738 0.29963 0.0
C33 C 0.21853 0.28776 0.30791 0.0
C34 C 0.22003 0.295 0.33292 0.0
C35 C 0.20292 0.29138 0.34943 0.0
C36 C 0.19742 0.26977 0.27298 0.0
C37 C 0.23975 0.30663 0.34218 0.0
C38 C 0.30595 0.23241 0.28298 0.0
C39 C 0.32413 0.23815 0.26919 0.0
C40 C 0.32536 0.25789 0.25689 0.0
C41 C 0.30767 0.2721 0.25755 0.0
C42 C 0.30804 0.29174 0.24465 0.0
C43 C 0.29062 0.30566 0.24551 0.0
C44 C 0.27241 0.30081 0.25995 0.0
C45 C 0.25487 0.31516 0.26151 0.0
C46 C 0.23738 0.31021 0.27682 0.0
C47 C 0.23678 0.29114 0.29053 0.0
C48 C 0.25384 0.27625 0.28855 0.0
C49 C 0.25354 0.25668 0.30162 0.0
C50 C 0.2705 0.24224 0.29973 0.0
C51 C 0.28852 0.24688 0.28487 0.0
C52 C 0.28928 0.26665 0.27179 0.0
C53 C 0.27178 0.2812 0.27334 0.0
C54 C 0.25459 0.42645 0.22731 0.0
C55 C 0.26663 0.41112 0.20979 0.0
O56 O 0.31049 0.1498 0.32633 0.0
O57 O 0.16769 0.27619 0.3571 0.0
O58 O 0.25478 0.39258 0.20598 0.0
O59 O 0.4039 0.28428 0.21366 0.0
H60 H 0.3433 0.15172 0.33104 0.0
H61 H 0.33557 0.1311 0.29278 0.0
H62 H 0.32161 0.11091 0.3106 0.0
H63 H 0.3501 0.11504 0.31508 0.0
H64 H 0.32822 0.18481 0.34523 0.0
H65 H 0.28793 0.15968 0.28738 0.0
H66 H 0.3443 0.22965 0.32011 0.0
H67 H 0.3336 0.22233 0.35013 0.0
H68 H 0.31935 0.24104 0.3304 0.0
H69 H 0.27632 0.18061 0.25326 0.0
H70 H 0.29256 0.20379 0.24602 0.0
H71 H 0.26844 0.20691 0.26386 0.0
H72 H 0.39173 0.29839 0.18187 0.0
H73 H 0.43763 0.30792 0.20017 0.0
H74 H 0.41417 0.324 0.20647 0.0
H75 H 0.42352 0.32111 0.17491 0.0
H76 H 0.37146 0.26614 0.18855 0.0
H77 H 0.39458 0.28616 0.26031 0.0
H78 H 0.32743 0.23557 0.21082 0.0
H79 H 0.33823 0.24859 0.18339 0.0
H80 H 0.31816 0.26174 0.20224 0.0
H81 H 0.37314 0.28524 0.29647 0.0
H82 H 0.35821 0.26051 0.29721 0.0
H83 H 0.34448 0.28528 0.29156 0.0
H84 H 0.28236 0.40709 0.21845 0.0
H85 H 0.23684 0.35734 0.19252 0.0
H86 H 0.27266 0.38719 0.25166 0.0
H87 H 0.24495 0.3041 0.21123 0.0
H88 H 0.2267 0.32094 0.19383 0.0
H89 H 0.22012 0.31228 0.2251 0.0
H90 H 0.28111 0.36959 0.28892 0.0
H91 H 0.28899 0.3423 0.28247 0.0
H92 H 0.26373 0.34754 0.29719 0.0
H93 H 0.1833 0.2786 0.39123 0.0
H94 H 0.17086 0.24248 0.40559 0.0
H95 H 0.18759 0.24202 0.37818 0.0
H96 H 0.1592 0.23811 0.37485 0.0
H97 H 0.16829 0.26584 0.31047 0.0
H98 H 0.20404 0.29759 0.36825 0.0
H99 H 0.21038 0.25811 0.26864 0.0
H100 H 0.19929 0.28355 0.26003 0.0
H101 H 0.18166 0.26201 0.26941 0.0
H102 H 0.23844 0.31132 0.36217 0.0
H103 H 0.24241 0.32129 0.33083 0.0
H104 H 0.25407 0.29621 0.33987 0.0
H105 H 0.3377 0.22726 0.2684 0.0
H106 H 0.32174 0.29652 0.23355 0.0
H107 H 0.29175 0.32044 0.23497 0.0
H108 H 0.2242 0.32152 0.27837 0.0
H109 H 0.24013 0.25228 0.31342 0.0
H110 H 0.2694 0.22744 0.31023 0.0
H111 H 0.26382 0.44156 0.22972 0.0
H112 H 0.25246 0.41905 0.246 0.0
H113 H 0.23844 0.43035 0.21978 0.0
C114 C 0.69456 0.18137 0.0922 0.0
C115 C 0.68069 0.1766 0.11518 0.0
C116 C 0.69604 0.19655 0.15075 0.0
C117 C 0.69193 0.21289 0.16798 0.0
C118 C 0.70562 0.21652 0.18838 0.0
C119 C 0.7241 0.20358 0.19142 0.0
C120 C 0.72871 0.18736 0.17372 0.0
C121 C 0.71466 0.18399 0.15356 0.0
C122 C 0.70014 0.23395 0.20693 0.0
C123 C 0.74842 0.17348 0.17629 0.0
C124 C 0.72453 0.17343 0.38136 0.0
C125 C 0.71431 0.15562 0.36548 0.0
C126 C 0.73025 0.16098 0.32383 0.0
C127 C 0.74518 0.153 0.3067 0.0
C128 C 0.74954 0.16386 0.28429 0.0
C129 C 0.73863 0.1832 0.27896 0.0
C130 C 0.72297 0.19103 0.29576 0.0
C131 C 0.71894 0.17988 0.31803 0.0
C132 C 0.76626 0.15506 0.26668 0.0
C133 C 0.71094 0.21158 0.29053 0.0
C134 C 0.83057 0.27594 0.3387 0.0
C135 C 0.8414 0.2616 0.32286 0.0
C136 C 0.83413 0.25801 0.29834 0.0
C137 C 0.81563 0.26889 0.28969 0.0
C138 C 0.80538 0.28413 0.30526 0.0
C139 C 0.81319 0.28763 0.3295 0.0
C140 C 0.84581 0.24219 0.28191 0.0
C141 C 0.78576 0.29623 0.29659 0.0
C142 C 0.77984 0.3366 0.11845 0.0
C143 C 0.79375 0.34978 0.13644 0.0
C144 C 0.80636 0.32183 0.16534 0.0
C145 C 0.82271 0.30692 0.16955 0.0
C146 C 0.82051 0.29075 0.18764 0.0
C147 C 0.80165 0.28984 0.20232 0.0
C148 C 0.78527 0.30525 0.19868 0.0
C149 C 0.78761 0.3208 0.17996 0.0
C150 C 0.8383 0.27459 0.191 0.0
C151 C 0.76524 0.30544 0.2146 0.0
C152 C 0.73795 0.20637 0.21379 0.0
C153 C 0.73369 0.19348 0.2346 0.0
C154 C 0.74488 0.1963 0.25699 0.0
C155 C 0.76079 0.21236 0.25885 0.0
C156 C 0.77192 0.21594 0.28134 0.0
C157 C 0.78683 0.2324 0.2834 0.0
C158 C 0.79138 0.24583 0.26297 0.0
C159 C 0.80588 0.26317 0.26524 0.0
C160 C 0.80964 0.27656 0.24479 0.0
C161 C 0.79915 0.27322 0.22198 0.0
C162 C 0.78485 0.25572 0.21922 0.0
C163 C 0.77421 0.2517 0.19648 0.0
C164 C 0.75905 0.23536 0.19451 0.0
C165 C 0.75409 0.22231 0.21514 0.0
C166 C 0.76536 0.22546 0.23788 0.0
C167 C 0.78074 0.24218 0.23993 0.0
C168 C 0.83116 0.26287 0.40226 0.0
C169 C 0.84528 0.2641 0.37891 0.0
O170 O 0.68164 0.19359 0.1319 0.0
O171 O 0.80934 0.3368 0.14712 0.0
O172 O 0.83645 0.27915 0.36283 0.0
O173 O 0.72761 0.15015 0.34572 0.0
H174 H 0.6867 0.1617 0.12423 0.0
H175 H 0.7116 0.18336 0.09775 0.0
H176 H 0.68921 0.19637 0.08287 0.0
H177 H 0.69356 0.16789 0.07864 0.0
H178 H 0.67765 0.22262 0.16559 0.0
H179 H 0.71841 0.17154 0.14017 0.0
H180 H 0.69881 0.22701 0.22598 0.0
H181 H 0.68484 0.24218 0.20229 0.0
H182 H 0.71319 0.24605 0.20737 0.0
H183 H 0.75064 0.1626 0.16003 0.0
H184 H 0.74711 0.16362 0.1935 0.0
H185 H 0.7629 0.18373 0.17825 0.0
H186 H 0.69866 0.1615 0.35822 0.0
H187 H 0.71424 0.17708 0.39779 0.0
H188 H 0.72626 0.18835 0.37026 0.0
H189 H 0.74071 0.16862 0.38801 0.0
H190 H 0.75375 0.13837 0.3112 0.0
H191 H 0.70722 0.18636 0.33086 0.0
H192 H 0.75943 0.15353 0.24758 0.0
H193 H 0.77238 0.13915 0.27274 0.0
H194 H 0.77996 0.16642 0.26558 0.0
H195 H 0.69853 0.21502 0.30487 0.0
H196 H 0.70307 0.2106 0.27194 0.0
H197 H 0.72239 0.22521 0.28997 0.0
H198 H 0.8453 0.24783 0.37031 0.0
H199 H 0.8555 0.25323 0.32956 0.0
H200 H 0.80526 0.29899 0.34175 0.0
H201 H 0.83558 0.22783 0.27897 0.0
H202 H 0.86128 0.23696 0.29024 0.0
H203 H 0.84897 0.24939 0.26328 0.0
H204 H 0.77929 0.30706 0.31128 0.0
H205 H 0.773 0.28474 0.29102 0.0
H206 H 0.78983 0.30598 0.2799 0.0
H207 H 0.78345 0.35682 0.15127 0.0
H208 H 0.77169 0.32341 0.12863 0.0
H209 H 0.76728 0.34687 0.10984 0.0
H210 H 0.78988 0.3295 0.10339 0.0
H211 H 0.83713 0.30781 0.15829 0.0
H212 H 0.7747 0.3321 0.17721 0.0
H213 H 0.83167 0.25806 0.19062 0.0
H214 H 0.84597 0.27702 0.20952 0.0
H215 H 0.85082 0.27602 0.17631 0.0
H216 H 0.75609 0.32064 0.21261 0.0
H217 H 0.76932 0.3032 0.23464 0.0
H218 H 0.75462 0.29202 0.2089 0.0
H219 H 0.72112 0.18147 0.23357 0.0
H220 H 0.76905 0.20624 0.29778 0.0
H221 H 0.7946 0.23453 0.30133 0.0
H222 H 0.82018 0.29029 0.24697 0.0
H223 H 0.77728 0.26135 0.18005 0.0
H224 H 0.7511 0.2332 0.17668 0.0
H225 H 0.8308 0.2786 0.41206 0.0
H226 H 0.83724 0.25042 0.41534 0.0
H227 H 0.81451 0.25851 0.39686 0.0
C228 C 0.65717 0.84962 0.36451 0.0
C229 C 0.6789 0.8477 0.37785 0.0
C230 C 0.69716 0.82493 0.34665 0.0
C231 C 0.68736 0.80535 0.35287 0.0
C232 C 0.68911 0.78749 0.33696 0.0
C233 C 0.7007 0.78931 0.31429 0.0
C234 C 0.7111 0.80883 0.30837 0.0
C235 C 0.70945 0.82627 0.32487 0.0
C236 C 0.67809 0.76682 0.34405 0.0
C237 C 0.7233 0.81153 0.28421 0.0
C238 C 0.57288 0.77659 0.21433 0.0
C239 C 0.59254 0.77288 0.1978 0.0
C240 C 0.62203 0.75453 0.21892 0.0
C241 C 0.6394 0.76755 0.21205 0.0
C242 C 0.65857 0.76725 0.22586 0.0
C243 C 0.66033 0.75363 0.24693 0.0
C244 C 0.64298 0.74012 0.25352 0.0
C245 C 0.62415 0.74053 0.23914 0.0
C246 C 0.67692 0.7815 0.218 0.0
C247 C 0.64426 0.72548 0.27592 0.0
C248 C 0.7404 0.64554 0.1933 0.0
C249 C 0.75 0.66519 0.18697 0.0
C250 C 0.75324 0.68115 0.20515 0.0
C251 C 0.74693 0.67728 0.23015 0.0
C252 C 0.73829 0.65709 0.23679 0.0
C253 C 0.7353 0.6414 0.21826 0.0
C254 C 0.76303 0.7023 0.19758 0.0
C255 C 0.73168 0.65233 0.26334 0.0
C256 C 0.88015 0.72033 0.30162 0.0
C257 C 0.86765 0.73284 0.32161 0.0
C258 C 0.83045 0.71995 0.31718 0.0
C259 C 0.82613 0.73049 0.29443 0.0
C260 C 0.80607 0.72855 0.28271 0.0
C261 C 0.78995 0.71572 0.29376 0.0
C262 C 0.79418 0.70505 0.31656 0.0
C263 C 0.81436 0.70737 0.32799 0.0
C264 C 0.80213 0.74013 0.25835 0.0
C265 C 0.77736 0.69119 0.32877 0.0
C266 C 0.70015 0.77155 0.29574 0.0
C267 C 0.68191 0.76992 0.28066 0.0
C268 C 0.6801 0.75396 0.26244 0.0
C269 C 0.69692 0.73902 0.25912 0.0
C270 C 0.69559 0.72273 0.24101 0.0
C271 C 0.71221 0.70809 0.23785 0.0
C272 C 0.73096 0.70938 0.25242 0.0
C273 C 0.74809 0.69478 0.24899 0.0
C274 C 0.7668 0.69692 0.26321 0.0
C275 C 0.76888 0.71324 0.28104 0.0
C276 C 0.75164 0.7276 0.28527 0.0
C277 C 0.7529 0.74384 0.3035 0.0
C278 C 0.73595 0.75806 0.30726 0.0
C279 C 0.71725 0.75685 0.2926 0.0
C280 C 0.71559 0.74052 0.2742 0.0
C281 C 0.73271 0.72576 0.27071 0.0
C282 C 0.70384 0.63192 0.1525 0.0
C283 C 0.72839 0.63349 0.15203 0.0
O284 O 0.695 0.84295 0.36078 0.0
O285 O 0.84974 0.72131 0.32918 0.0
O286 O 0.73619 0.6301 0.176 0.0
O287 O 0.60324 0.75471 0.20611 0.0
H288 H 0.67809 0.83486 0.39225 0.0
H289 H 0.65266 0.83415 0.35569 0.0
H290 H 0.6579 0.86213 0.34975 0.0
H291 H 0.64436 0.8539 0.37808 0.0
H292 H 0.67817 0.80394 0.36994 0.0
H293 H 0.71711 0.84139 0.32036 0.0
H294 H 0.66411 0.7642 0.33155 0.0
H295 H 0.67232 0.767 0.3637 0.0
H296 H 0.68919 0.75305 0.34153 0.0
H297 H 0.7296 0.82808 0.28186 0.0
H298 H 0.71271 0.80771 0.2681 0.0
H299 H 0.73699 0.80016 0.28369 0.0
H300 H 0.60287 0.78739 0.19946 0.0
H301 H 0.56415 0.79126 0.20834 0.0
H302 H 0.578 0.7788 0.23407 0.0
H303 H 0.56181 0.76263 0.21335 0.0
H304 H 0.63811 0.77776 0.19574 0.0
H305 H 0.61073 0.73031 0.24402 0.0
H306 H 0.68 0.79364 0.23279 0.0
H307 H 0.67361 0.78999 0.20016 0.0
H308 H 0.69177 0.77183 0.21581 0.0
H309 H 0.62901 0.7167 0.27921 0.0
H310 H 0.64823 0.73495 0.2929 0.0
H311 H 0.65731 0.71361 0.27314 0.0
H312 H 0.73212 0.64992 0.14527 0.0
H313 H 0.75516 0.66812 0.16797 0.0
H314 H 0.72834 0.62601 0.22305 0.0
H315 H 0.75134 0.71543 0.20091 0.0
H316 H 0.76783 0.70255 0.17758 0.0
H317 H 0.77737 0.70564 0.20928 0.0
H318 H 0.72606 0.63554 0.2657 0.0
H319 H 0.71857 0.66338 0.26897 0.0
H320 H 0.74541 0.65518 0.27617 0.0
H321 H 0.86256 0.7484 0.31338 0.0
H322 H 0.89499 0.72915 0.29644 0.0
H323 H 0.87029 0.71836 0.2845 0.0
H324 H 0.88457 0.7041 0.30846 0.0
H325 H 0.83825 0.74019 0.28549 0.0
H326 H 0.81773 0.69924 0.34547 0.0
H327 H 0.78794 0.75078 0.26019 0.0
H328 H 0.79855 0.72829 0.24341 0.0
H329 H 0.81611 0.74995 0.25245 0.0
H330 H 0.7831 0.68397 0.34654 0.0
H331 H 0.77258 0.67811 0.3158 0.0
H332 H 0.76281 0.70091 0.33269 0.0
H333 H 0.66893 0.78135 0.28304 0.0
H334 H 0.68164 0.72106 0.22909 0.0
H335 H 0.7102 0.69586 0.22367 0.0
H336 H 0.78006 0.68597 0.26005 0.0
H337 H 0.767 0.74568 0.31515 0.0
H338 H 0.73774 0.77017 0.32164 0.0
H339 H 0.69715 0.63401 0.1334 0.0
H340 H 0.69722 0.64485 0.16456 0.0
H341 H 0.69861 0.61627 0.16032 0.0
C342 C 0.32166 0.82438 0.08623 0.0
C343 C 0.33705 0.82946 0.1078 0.0
C344 C 0.32482 0.80909 0.14458 0.0
C345 C 0.33045 0.79273 0.16116 0.0
C346 C 0.31824 0.78864 0.18268 0.0
C347 C 0.29978 0.80115 0.18756 0.0
C348 C 0.29367 0.81745 0.17062 0.0
C349 C 0.30622 0.82125 0.14928 0.0
C350 C 0.32519 0.77111 0.20035 0.0
C351 C 0.27393 0.83092 0.17518 0.0
C352 C 0.33364 0.89394 0.3167 0.0
C353 C 0.30974 0.88989 0.32162 0.0
C354 C 0.29939 0.85341 0.31066 0.0
C355 C 0.28194 0.85747 0.29476 0.0
C356 C 0.27555 0.84232 0.27683 0.0
C357 C 0.28673 0.82262 0.27493 0.0
C358 C 0.30363 0.81805 0.29177 0.0
C359 C 0.30961 0.83348 0.30963 0.0
C360 C 0.25712 0.84752 0.25956 0.0
C361 C 0.31565 0.79708 0.29048 0.0
C362 C 0.18739 0.7354 0.33398 0.0
C363 C 0.18071 0.75224 0.31848 0.0
C364 C 0.18921 0.75455 0.29434 0.0
C365 C 0.20512 0.74002 0.2859 0.0
C366 C 0.21106 0.72241 0.30111 0.0
C367 C 0.2018 0.72014 0.32487 0.0
C368 C 0.18166 0.7729 0.27819 0.0
C369 C 0.22778 0.70646 0.29266 0.0
C370 C 0.20135 0.70037 0.08703 0.0
C371 C 0.21205 0.69015 0.10987 0.0
C372 C 0.20291 0.70014 0.15217 0.0
C373 C 0.18941 0.71601 0.1617 0.0
C374 C 0.19499 0.72747 0.18337 0.0
C375 C 0.21421 0.72229 0.19618 0.0
C376 C 0.22716 0.70515 0.18746 0.0
C377 C 0.22154 0.6945 0.16526 0.0
C378 C 0.18069 0.74552 0.19209 0.0
C379 C 0.24717 0.69836 0.20124 0.0
C380 C 0.28726 0.79761 0.2108 0.0
C381 C 0.29233 0.81013 0.23166 0.0
C382 C 0.28152 0.80749 0.25433 0.0
C383 C 0.26557 0.79147 0.25657 0.0
C384 C 0.25507 0.78772 0.27937 0.0
C385 C 0.23932 0.772 0.28134 0.0
C386 C 0.23308 0.75975 0.26041 0.0
C387 C 0.21666 0.74413 0.26208 0.0
C388 C 0.211 0.73214 0.24096 0.0
C389 C 0.2212 0.73539 0.21798 0.0
C390 C 0.23757 0.75107 0.21593 0.0
C391 C 0.24801 0.75502 0.19306 0.0
C392 C 0.2644 0.77011 0.19136 0.0
C393 C 0.27067 0.7822 0.21233 0.0
C394 C 0.25997 0.77894 0.2354 0.0
C395 C 0.24355 0.76322 0.23725 0.0
C396 C 0.19175 0.74495 0.3984 0.0
C397 C 0.17954 0.75085 0.37457 0.0
O398 O 0.33773 0.81244 0.12444 0.0
O399 O 0.19803 0.69087 0.12994 0.0
O400 O 0.18055 0.73379 0.35797 0.0
O401 O 0.30666 0.86836 0.32711 0.0
H402 H 0.33136 0.84421 0.11748 0.0
H403 H 0.30513 0.82201 0.09343 0.0
H404 H 0.32663 0.8095 0.07634 0.0
H405 H 0.32137 0.83787 0.07268 0.0
H406 H 0.3447 0.78331 0.15733 0.0
H407 H 0.30129 0.83371 0.13645 0.0
H408 H 0.32795 0.77794 0.21927 0.0
H409 H 0.3401 0.76298 0.19404 0.0
H410 H 0.31225 0.75895 0.20201 0.0
H411 H 0.27059 0.84211 0.15951 0.0
H412 H 0.2761 0.84043 0.19257 0.0
H413 H 0.25976 0.82039 0.17793 0.0
H414 H 0.30148 0.89446 0.30395 0.0
H415 H 0.33681 0.91139 0.31466 0.0
H416 H 0.33845 0.88583 0.29906 0.0
H417 H 0.34371 0.88732 0.33198 0.0
H418 H 0.27331 0.87249 0.2963 0.0
H419 H 0.3228 0.83033 0.32232 0.0
H420 H 0.26294 0.84796 0.23995 0.0
H421 H 0.24955 0.86319 0.26404 0.0
H422 H 0.24474 0.83476 0.26076 0.0
H423 H 0.32775 0.79554 0.30563 0.0
H424 H 0.32394 0.79578 0.27216 0.0
H425 H 0.3042 0.78348 0.29178 0.0
H426 H 0.1878 0.76518 0.36662 0.0
H427 H 0.16901 0.76366 0.32536 0.0
H428 H 0.20656 0.70702 0.33694 0.0
H429 H 0.19422 0.78552 0.27771 0.0
H430 H 0.16662 0.78018 0.28542 0.0
H431 H 0.17893 0.76738 0.2587 0.0
H432 H 0.23135 0.69426 0.3072 0.0
H433 H 0.24287 0.71497 0.2878 0.0
H434 H 0.2221 0.69809 0.27556 0.0
H435 H 0.22652 0.70015 0.11381 0.0
H436 H 0.21216 0.69944 0.07054 0.0
H437 H 0.19792 0.71754 0.09092 0.0
H438 H 0.18595 0.69228 0.0825 0.0
H439 H 0.17494 0.72005 0.15149 0.0
H440 H 0.23169 0.68182 0.15802 0.0
H441 H 0.19022 0.76043 0.19452 0.0
H442 H 0.17369 0.74138 0.21055 0.0
H443 H 0.16737 0.74876 0.17881 0.0
H444 H 0.25294 0.68236 0.195 0.0
H445 H 0.2442 0.69784 0.22171 0.0
H446 H 0.2601 0.71022 0.19779 0.0
H447 H 0.30475 0.82227 0.23016 0.0
H448 H 0.25904 0.7968 0.29602 0.0
H449 H 0.232 0.76969 0.29948 0.0
H450 H 0.19843 0.72017 0.24242 0.0
H451 H 0.24374 0.74642 0.1762 0.0
H452 H 0.27199 0.77231 0.17334 0.0
H453 H 0.18476 0.7304 0.40722 0.0
H454 H 0.1912 0.75843 0.412 0.0
H455 H 0.20881 0.74162 0.39381 0.0
C456 C 0.18566 0.69835 0.58706 0.0
C457 C 0.16869 0.69 0.60543 0.0
C458 C 0.18086 0.7043 0.64613 0.0
C459 C 0.17607 0.71895 0.6651 0.0
C460 C 0.18934 0.72113 0.68616 0.0
C461 C 0.20819 0.70857 0.68803 0.0
C462 C 0.21314 0.69359 0.66897 0.0
C463 C 0.19932 0.69144 0.64835 0.0
C464 C 0.18321 0.73688 0.70638 0.0
C465 C 0.2331 0.67994 0.67032 0.0
C466 C 0.21569 0.59468 0.80382 0.0
C467 C 0.23568 0.60625 0.81366 0.0
C468 C 0.23238 0.64421 0.80186 0.0
C469 C 0.24818 0.64511 0.78312 0.0
C470 C 0.24892 0.66231 0.76623 0.0
C471 C 0.23387 0.67919 0.7684 0.0
C472 C 0.21838 0.67871 0.7877 0.0
C473 C 0.21793 0.66124 0.80428 0.0
C474 C 0.26588 0.66247 0.74607 0.0
C475 C 0.20232 0.69662 0.79074 0.0
C476 C 0.33154 0.77792 0.82507 0.0
C477 C 0.33808 0.76336 0.80654 0.0
C478 C 0.32521 0.75955 0.78541 0.0
C479 C 0.3054 0.77046 0.7829 0.0
C480 C 0.2989 0.78526 0.80148 0.0
C481 C 0.31222 0.78898 0.82219 0.0
C482 C 0.33295 0.74419 0.76555 0.0
C483 C 0.27793 0.79723 0.79938 0.0
C484 C 0.27346 0.83312 0.60639 0.0
C485 C 0.27947 0.84961 0.62645 0.0
C486 C 0.29113 0.82656 0.66086 0.0
C487 C 0.30585 0.80993 0.66418 0.0
C488 C 0.30283 0.79439 0.68281 0.0
C489 C 0.28493 0.79597 0.69897 0.0
C490 C 0.27038 0.81326 0.6963 0.0
C491 C 0.27354 0.8283 0.67712 0.0
C492 C 0.31875 0.77625 0.68516 0.0
C493 C 0.25161 0.81594 0.71385 0.0
C494 C 0.22266 0.71105 0.70996 0.0
C495 C 0.22142 0.69577 0.72903 0.0
C496 C 0.2344 0.69722 0.75029 0.0
C497 C 0.2485 0.71482 0.75318 0.0
C498 C 0.26102 0.71733 0.77487 0.0
C499 C 0.27507 0.73456 0.77741 0.0
C500 C 0.27739 0.74974 0.75817 0.0
C501 C 0.2919 0.7671 0.76035 0.0
C502 C 0.29384 0.78184 0.74082 0.0
C503 C 0.28171 0.77978 0.71897 0.0
C504 C 0.26708 0.76257 0.71643 0.0
C505 C 0.25472 0.7599 0.69464 0.0
C506 C 0.24014 0.7431 0.69248 0.0
C507 C 0.23752 0.72814 0.71192 0.0
C508 C 0.25023 0.7302 0.73379 0.0
C509 C 0.26489 0.74754 0.73615 0.0
C510 C 0.34033 0.7599 0.88084 0.0
C511 C 0.35501 0.76784 0.85987 0.0
O512 O 0.16733 0.70334 0.62614 0.0
O513 O 0.2948 0.84094 0.6423 0.0
O514 O 0.34389 0.7825 0.8453 0.0
O515 O 0.23086 0.62762 0.8183 0.0
H516 H 0.17309 0.6735 0.61147 0.0
H517 H 0.2018 0.69838 0.59578 0.0
H518 H 0.18189 0.71501 0.58114 0.0
H519 H 0.18631 0.68789 0.57024 0.0
H520 H 0.16176 0.72873 0.66335 0.0
H521 H 0.20323 0.67981 0.63406 0.0
H522 H 0.18385 0.72901 0.72498 0.0
H523 H 0.16688 0.74359 0.70351 0.0
H524 H 0.19486 0.75035 0.7066 0.0
H525 H 0.2359 0.67076 0.6528 0.0
H526 H 0.2316 0.66839 0.68601 0.0
H527 H 0.24735 0.69014 0.67409 0.0
H528 H 0.24809 0.60455 0.79896 0.0
H529 H 0.21107 0.60148 0.7854 0.0
H530 H 0.21903 0.5773 0.80131 0.0
H531 H 0.20192 0.59668 0.81678 0.0
H532 H 0.26028 0.63277 0.78172 0.0
H533 H 0.20604 0.66065 0.81904 0.0
H534 H 0.25823 0.66425 0.72743 0.0
H535 H 0.27572 0.64761 0.74605 0.0
H536 H 0.27668 0.67642 0.74884 0.0
H537 H 0.19183 0.69429 0.80731 0.0
H538 H 0.19209 0.6976 0.77377 0.0
H539 H 0.21085 0.71218 0.79263 0.0
H540 H 0.36006 0.75372 0.84863 0.0
H541 H 0.35347 0.75545 0.80804 0.0
H542 H 0.3075 0.80044 0.83642 0.0
H543 H 0.32157 0.73056 0.76392 0.0
H544 H 0.34917 0.73771 0.76971 0.0
H545 H 0.3334 0.7524 0.74714 0.0
H546 H 0.27436 0.80683 0.81639 0.0
H547 H 0.26458 0.78576 0.79616 0.0
H548 H 0.27855 0.80821 0.78307 0.0
H549 H 0.26476 0.85395 0.63703 0.0
H550 H 0.26117 0.83982 0.59351 0.0
H551 H 0.26665 0.81855 0.6153 0.0
H552 H 0.28784 0.82841 0.59539 0.0
H553 H 0.31955 0.80893 0.65175 0.0
H554 H 0.26254 0.84164 0.67541 0.0
H555 H 0.31022 0.76062 0.68543 0.0
H556 H 0.32758 0.77781 0.7031 0.0
H557 H 0.33059 0.77614 0.66963 0.0
H558 H 0.24302 0.83135 0.71086 0.0
H559 H 0.25719 0.81524 0.73356 0.0
H560 H 0.24008 0.80259 0.71102 0.0
H561 H 0.21043 0.68237 0.72712 0.0
H562 H 0.26 0.70606 0.79021 0.0
H563 H 0.2842 0.73574 0.79457 0.0
H564 H 0.30501 0.79511 0.74264 0.0
H565 H 0.25612 0.77085 0.67902 0.0
H566 H 0.23102 0.74191 0.67531 0.0
H567 H 0.33508 0.77351 0.89281 0.0
H568 H 0.34877 0.74789 0.89262 0.0
H569 H 0.32588 0.75213 0.8727 0.0
C570 C 0.25241 0.37223 0.85474 0.0
C571 C 0.22811 0.37124 0.86003 0.0
C572 C 0.2195 0.33378 0.849 0.0
C573 C 0.21299 0.31391 0.85843 0.0
C574 C 0.21078 0.29593 0.84275 0.0
C575 C 0.21598 0.29773 0.81707 0.0
C576 C 0.22227 0.31786 0.80729 0.0
C577 C 0.22353 0.33573 0.82321 0.0
C578 C 0.20302 0.27504 0.85373 0.0
C579 C 0.22772 0.32057 0.77997 0.0
C580 C 0.09047 0.27741 0.72148 0.0
C581 C 0.10716 0.27198 0.70149 0.0
C582 C 0.13794 0.25632 0.72278 0.0
C583 C 0.15456 0.2702 0.71562 0.0
C584 C 0.17353 0.27152 0.72973 0.0
C585 C 0.17581 0.25876 0.75145 0.0
C586 C 0.15915 0.24453 0.75845 0.0
C587 C 0.14055 0.24327 0.74373 0.0
C588 C 0.19115 0.28647 0.72138 0.0
C589 C 0.16092 0.23075 0.78154 0.0
C590 C 0.25877 0.14418 0.71095 0.0
C591 C 0.27171 0.1621 0.70662 0.0
C592 C 0.27235 0.17929 0.7236 0.0
C593 C 0.25984 0.17842 0.74563 0.0
C594 C 0.24684 0.16026 0.75032 0.0
C595 C 0.24631 0.14341 0.73289 0.0
C596 C 0.28635 0.19843 0.71799 0.0
C597 C 0.23353 0.15865 0.77382 0.0
C598 C 0.32127 0.20875 0.92125 0.0
C599 C 0.33281 0.1932 0.90349 0.0
C600 C 0.3216 0.20482 0.86145 0.0
C601 C 0.32833 0.21458 0.83925 0.0
C602 C 0.31419 0.21732 0.81901 0.0
C603 C 0.29276 0.21011 0.8211 0.0
C604 C 0.28582 0.20017 0.84345 0.0
C605 C 0.30024 0.19766 0.86336 0.0
C606 C 0.32206 0.228 0.79546 0.0
C607 C 0.26306 0.19219 0.84632 0.0
C608 C 0.2148 0.27871 0.80026 0.0
C609 C 0.19717 0.277 0.78418 0.0
C610 C 0.19557 0.26022 0.7669 0.0
C611 C 0.21215 0.24479 0.76526 0.0
C612 C 0.21161 0.22835 0.74724 0.0
C613 C 0.22761 0.2128 0.74632 0.0
C614 C 0.24456 0.21287 0.76368 0.0
C615 C 0.26031 0.19651 0.76376 0.0
C616 C 0.27635 0.19656 0.78204 0.0
C617 C 0.27741 0.21279 0.80007 0.0
C618 C 0.26251 0.2299 0.79942 0.0
C619 C 0.26385 0.24713 0.81635 0.0
C620 C 0.24863 0.26348 0.81617 0.0
C621 C 0.23104 0.26281 0.79969 0.0
C622 C 0.22965 0.2458 0.78213 0.0
C623 C 0.24569 0.22961 0.78161 0.0
C624 C 0.25652 0.09261 0.71081 0.0
C625 C 0.24665 0.1096 0.69352 0.0
O626 O 0.22184 0.35039 0.86541 0.0
O627 O 0.33612 0.20278 0.88039 0.0
O628 O 0.259 0.1281 0.69364 0.0
O629 O 0.11946 0.25477 0.70948 0.0
H630 H 0.21964 0.37699 0.84298 0.0
H631 H 0.25796 0.38917 0.85412 0.0
H632 H 0.25628 0.36487 0.83643 0.0
H633 H 0.26158 0.36337 0.86923 0.0
H634 H 0.2096 0.31253 0.87824 0.0
H635 H 0.22787 0.35103 0.81523 0.0
H636 H 0.19071 0.26762 0.84145 0.0
H637 H 0.1961 0.27724 0.8727 0.0
H638 H 0.21666 0.26366 0.85517 0.0
H639 H 0.23538 0.3363 0.77606 0.0
H640 H 0.21279 0.31945 0.76873 0.0
H641 H 0.23868 0.30761 0.77366 0.0
H642 H 0.11732 0.28645 0.69867 0.0
H643 H 0.08045 0.29121 0.71541 0.0
H644 H 0.09866 0.28189 0.73919 0.0
H645 H 0.07991 0.2634 0.72514 0.0
H646 H 0.15293 0.27969 0.69879 0.0
H647 H 0.12772 0.2324 0.74885 0.0
H648 H 0.19273 0.29974 0.73509 0.0
H649 H 0.18792 0.29348 0.70267 0.0
H650 H 0.20672 0.27783 0.72078 0.0
H651 H 0.14571 0.22219 0.78577 0.0
H652 H 0.16539 0.24076 0.79793 0.0
H653 H 0.17379 0.21866 0.77886 0.0
H654 H 0.23016 0.11333 0.7002 0.0
H655 H 0.28129 0.16261 0.68972 0.0
H656 H 0.2362 0.12972 0.73673 0.0
H657 H 0.27649 0.21328 0.71808 0.0
H658 H 0.29452 0.19703 0.69961 0.0
H659 H 0.2987 0.20016 0.73282 0.0
H660 H 0.2252 0.14296 0.77543 0.0
H661 H 0.22129 0.17159 0.77399 0.0
H662 H 0.24389 0.16092 0.7905 0.0
H663 H 0.32271 0.17862 0.90119 0.0
H664 H 0.31928 0.20128 0.93997 0.0
H665 H 0.3051 0.21279 0.914 0.0
H666 H 0.33045 0.22393 0.92332 0.0
H667 H 0.34477 0.2201 0.83785 0.0
H668 H 0.29454 0.19015 0.88029 0.0
H669 H 0.31191 0.24219 0.79123 0.0
H670 H 0.32056 0.21671 0.77949 0.0
H671 H 0.33905 0.23324 0.79697 0.0
H672 H 0.26043 0.18386 0.86441 0.0
H673 H 0.25909 0.18096 0.83088 0.0
H674 H 0.25177 0.20592 0.84512 0.0
H675 H 0.1845 0.28892 0.78513 0.0
H676 H 0.19877 0.2273 0.73365 0.0
H677 H 0.22632 0.20051 0.73209 0.0
H678 H 0.28781 0.18345 0.78269 0.0
H679 H 0.27676 0.2482 0.82985 0.0
H680 H 0.2506 0.27641 0.82949 0.0
H681 H 0.27331 0.08898 0.70527 0.0
H682 H 0.24694 0.07758 0.71006 0.0
H683 H 0.25669 0.09831 0.73045 0.0
C684 C 0.82255 0.32379 0.6001 0.0
C685 C 0.83847 0.32611 0.6218 0.0
C686 C 0.8233 0.30391 0.65565 0.0
C687 C 0.82626 0.28523 0.66966 0.0
C688 C 0.81235 0.27991 0.68936 0.0
C689 C 0.79492 0.2936 0.69502 0.0
C690 C 0.79161 0.31239 0.68072 0.0
C691 C 0.80583 0.3174 0.66123 0.0
C692 C 0.81639 0.25979 0.70428 0.0
C693 C 0.77311 0.32729 0.68623 0.0
C694 C 0.83338 0.3407 0.87032 0.0
C695 C 0.81304 0.34772 0.85651 0.0
C696 C 0.79375 0.32187 0.83083 0.0
C697 C 0.78501 0.33515 0.81232 0.0
C698 C 0.77803 0.32651 0.78944 0.0
C699 C 0.78029 0.30421 0.78491 0.0
C700 C 0.78941 0.29089 0.80355 0.0
C701 C 0.79551 0.29987 0.82654 0.0
C702 C 0.76816 0.3412 0.77021 0.0
C703 C 0.79285 0.26719 0.79926 0.0
C704 C 0.65557 0.2356 0.81511 0.0
C705 C 0.65443 0.25431 0.80051 0.0
C706 C 0.66782 0.25701 0.77965 0.0
C707 C 0.683 0.24093 0.77364 0.0
C708 C 0.68401 0.22198 0.78813 0.0
C709 C 0.67007 0.21948 0.8085 0.0
C710 C 0.66583 0.27713 0.76413 0.0
C711 C 0.70001 0.2045 0.78231 0.0
C712 C 0.69332 0.18807 0.58043 0.0
C713 C 0.69534 0.17837 0.60658 0.0
C714 C 0.68849 0.2005 0.64342 0.0
C715 C 0.67831 0.21984 0.64916 0.0
C716 C 0.6845 0.23199 0.67006 0.0
C717 C 0.70092 0.22425 0.68594 0.0
C718 C 0.7109 0.20435 0.68059 0.0
C719 C 0.70463 0.19271 0.65929 0.0
C720 C 0.67342 0.25306 0.67522 0.0
C721 C 0.72792 0.19521 0.6976 0.0
C722 C 0.78069 0.28884 0.71659 0.0
C723 C 0.78606 0.29786 0.73971 0.0
C724 C 0.77312 0.29478 0.76074 0.0
C725 C 0.75414 0.28245 0.75869 0.0
C726 C 0.74037 0.27959 0.77924 0.0
C727 C 0.72207 0.26696 0.77727 0.0
C728 C 0.71663 0.25692 0.75458 0.0
C729 C 0.69803 0.24406 0.75243 0.0
C730 C 0.69342 0.23382 0.72983 0.0
C731 C 0.70671 0.23628 0.70898 0.0
C732 C 0.72504 0.24963 0.71052 0.0
C733 C 0.73837 0.25314 0.68971 0.0
C734 C 0.75652 0.26611 0.69156 0.0
C735 C 0.76213 0.27591 0.71435 0.0
C736 C 0.74881 0.27273 0.73551 0.0
C737 C 0.73013 0.25977 0.73352 0.0
C738 C 0.64745 0.2619 0.86384 0.0
C739 C 0.63182 0.24756 0.84924 0.0
O740 O 0.83763 0.30815 0.63707 0.0
O741 O 0.68204 0.18957 0.62277 0.0
O742 O 0.64315 0.23235 0.83566 0.0
O743 O 0.80018 0.32979 0.85321 0.0
H744 H 0.83441 0.3407 0.63282 0.0
H745 H 0.82337 0.3381 0.58775 0.0
H746 H 0.8059 0.32242 0.60723 0.0
H747 H 0.82618 0.30922 0.58888 0.0
H748 H 0.8397 0.27487 0.66523 0.0
H749 H 0.80311 0.33186 0.65056 0.0
H750 H 0.81891 0.264 0.72425 0.0
H751 H 0.83062 0.25077 0.69747 0.0
H752 H 0.80212 0.24916 0.70328 0.0
H753 H 0.77205 0.34071 0.67264 0.0
H754 H 0.77497 0.3341 0.7053 0.0
H755 H 0.75779 0.3182 0.68586 0.0
H756 H 0.8181 0.35441 0.83811 0.0
H757 H 0.84483 0.35427 0.8722 0.0
H758 H 0.84149 0.32772 0.85966 0.0
H759 H 0.82934 0.33455 0.88924 0.0
H760 H 0.78329 0.35216 0.81598 0.0
H761 H 0.80221 0.28979 0.84109 0.0
H762 H 0.77929 0.34286 0.75414 0.0
H763 H 0.76486 0.35744 0.77788 0.0
H764 H 0.75293 0.33427 0.76305 0.0
H765 H 0.80373 0.26007 0.81347 0.0
H766 H 0.79971 0.26426 0.7804 0.0
H767 H 0.77722 0.25873 0.8003 0.0
H768 H 0.62197 0.25755 0.83642 0.0
H769 H 0.64314 0.26686 0.80514 0.0
H770 H 0.67075 0.20506 0.81977 0.0
H771 H 0.68027 0.28726 0.76692 0.0
H772 H 0.65145 0.28672 0.76923 0.0
H773 H 0.66492 0.273 0.74395 0.0
H774 H 0.69994 0.19157 0.79659 0.0
H775 H 0.71643 0.21136 0.78114 0.0
H776 H 0.69621 0.19731 0.76383 0.0
H777 H 0.71247 0.18021 0.61215 0.0
H778 H 0.70399 0.17953 0.56709 0.0
H779 H 0.69813 0.20523 0.58093 0.0
H780 H 0.6765 0.18704 0.57363 0.0
H781 H 0.66568 0.22557 0.63693 0.0
H782 H 0.71201 0.17734 0.65537 0.0
H783 H 0.6855 0.26588 0.67837 0.0
H784 H 0.66369 0.25164 0.69253 0.0
H785 H 0.66268 0.25796 0.65966 0.0
H786 H 0.73318 0.17896 0.69166 0.0
H787 H 0.72174 0.19428 0.71705 0.0
H788 H 0.74209 0.20598 0.69776 0.0
H789 H 0.80054 0.30742 0.74136 0.0
H790 H 0.74363 0.28702 0.79714 0.0
H791 H 0.71224 0.26516 0.79382 0.0
H792 H 0.67927 0.22373 0.72845 0.0
H793 H 0.73489 0.2459 0.67175 0.0
H794 H 0.76621 0.26823 0.67495 0.0
H795 H 0.65731 0.25209 0.87684 0.0
H796 H 0.63855 0.27418 0.87477 0.0
H797 H 0.65836 0.27044 0.85082 0.0
C798 C 0.84747 0.65361 0.84233 0.0
C799 C 0.82953 0.65755 0.86143 0.0
C800 C 0.81081 0.68655 0.83908 0.0
C801 C 0.8248 0.70337 0.84542 0.0
C802 C 0.82397 0.723 0.83263 0.0
C803 C 0.80909 0.72574 0.81289 0.0
C804 C 0.79452 0.70906 0.80704 0.0
C805 C 0.79536 0.68981 0.82055 0.0
C806 C 0.83947 0.7406 0.8397 0.0
C807 C 0.77867 0.71122 0.78584 0.0
C808 C 0.9171 0.72719 0.69406 0.0
C809 C 0.90363 0.74224 0.67778 0.0
C810 C 0.88018 0.75974 0.70844 0.0
C811 C 0.86084 0.74885 0.70387 0.0
C812 C 0.84394 0.74972 0.72119 0.0
C813 C 0.84651 0.76159 0.74355 0.0
C814 C 0.86596 0.77261 0.74815 0.0
C815 C 0.88241 0.77183 0.73028 0.0
C816 C 0.82324 0.73812 0.7155 0.0
C817 C 0.8694 0.78516 0.77197 0.0
C818 C 0.78482 0.88257 0.71591 0.0
C819 C 0.77111 0.86566 0.70922 0.0
C820 C 0.76516 0.85006 0.72678 0.0
C821 C 0.77329 0.85133 0.75145 0.0
C822 C 0.7858 0.86925 0.75868 0.0
C823 C 0.79121 0.88482 0.7408 0.0
C824 C 0.75115 0.83159 0.71864 0.0
C825 C 0.79443 0.8713 0.78493 0.0
C826 C 0.69764 0.81312 0.91839 0.0
C827 C 0.68671 0.82791 0.89931 0.0
C828 C 0.70291 0.8182 0.85882 0.0
C829 C 0.6991 0.80853 0.83564 0.0
C830 C 0.71514 0.80756 0.81723 0.0
C831 C 0.73559 0.81643 0.82222 0.0
C832 C 0.73963 0.82626 0.84558 0.0
C833 C 0.7233 0.82706 0.86363 0.0
C834 C 0.71031 0.79697 0.79249 0.0
C835 C 0.7613 0.83582 0.85152 0.0
C836 C 0.81042 0.74499 0.79665 0.0
C837 C 0.82657 0.74524 0.77854 0.0
C838 C 0.82884 0.76247 0.76213 0.0
C839 C 0.8145 0.77998 0.76355 0.0
C840 C 0.81619 0.79744 0.74709 0.0
C841 C 0.80219 0.81472 0.74878 0.0
C842 C 0.78571 0.81509 0.76676 0.0
C843 C 0.77131 0.83259 0.76843 0.0
C844 C 0.75507 0.83245 0.78646 0.0
C845 C 0.75287 0.81528 0.80312 0.0
C846 C 0.76721 0.79768 0.8018 0.0
C847 C 0.76566 0.78024 0.81841 0.0
C848 C 0.77986 0.76302 0.8169 0.0
C849 C 0.79607 0.76251 0.79864 0.0
C850 C 0.79807 0.78001 0.78189 0.0
C851 C 0.78362 0.79759 0.78346 0.0
C852 C 0.8248 0.89592 0.67477 0.0
C853 C 0.8008 0.89062 0.67558 0.0
O854 O 0.81188 0.66686 0.84992 0.0
O855 O 0.68661 0.81845 0.87582 0.0
O856 O 0.79252 0.89655 0.69865 0.0
O857 O 0.89677 0.75956 0.69199 0.0
H858 H 0.83549 0.66827 0.87655 0.0
H859 H 0.85314 0.66901 0.83431 0.0
H860 H 0.84161 0.64324 0.82685 0.0
H861 H 0.86141 0.64571 0.85143 0.0
H862 H 0.83653 0.70126 0.86011 0.0
H863 H 0.78452 0.67679 0.81598 0.0
H864 H 0.85197 0.74202 0.825 0.0
H865 H 0.84754 0.73737 0.85784 0.0
H866 H 0.831 0.75624 0.8409 0.0
H867 H 0.7692 0.69633 0.78288 0.0
H868 H 0.78727 0.71515 0.76824 0.0
H869 H 0.76742 0.72458 0.78981 0.0
H870 H 0.88974 0.73311 0.6703 0.0
H871 H 0.92271 0.71319 0.68297 0.0
H872 H 0.90728 0.72111 0.70986 0.0
H873 H 0.93126 0.7358 0.70177 0.0
H874 H 0.85856 0.74011 0.68661 0.0
H875 H 0.89731 0.78035 0.73349 0.0
H876 H 0.8095 0.74937 0.71711 0.0
H877 H 0.82076 0.72514 0.72939 0.0
H878 H 0.82318 0.73093 0.69648 0.0
H879 H 0.88614 0.7911 0.77376 0.0
H880 H 0.8656 0.775 0.78843 0.0
H881 H 0.85839 0.79914 0.77235 0.0
H882 H 0.7999 0.87289 0.67293 0.0
H883 H 0.76542 0.8644 0.69017 0.0
H884 H 0.80143 0.8982 0.74587 0.0
H885 H 0.76106 0.81685 0.7171 0.0
H886 H 0.74345 0.83462 0.70024 0.0
H887 H 0.73847 0.82852 0.73278 0.0
H888 H 0.8033 0.88656 0.78783 0.0
H889 H 0.8054 0.85769 0.78894 0.0
H890 H 0.78102 0.87048 0.79854 0.0
H891 H 0.69578 0.84327 0.89866 0.0
H892 H 0.69684 0.82032 0.93739 0.0
H893 H 0.71479 0.8108 0.91356 0.0
H894 H 0.68986 0.79709 0.91876 0.0
H895 H 0.68341 0.80171 0.83201 0.0
H896 H 0.72677 0.83452 0.88142 0.0
H897 H 0.72127 0.78313 0.78968 0.0
H898 H 0.71325 0.80848 0.77703 0.0
H899 H 0.69348 0.7912 0.79131 0.0
H900 H 0.762 0.84275 0.87064 0.0
H901 H 0.76511 0.84862 0.83781 0.0
H902 H 0.77388 0.82329 0.84982 0.0
H903 H 0.83756 0.73178 0.77717 0.0
H904 H 0.82842 0.798 0.73274 0.0
H905 H 0.80449 0.82775 0.7357 0.0
H906 H 0.74411 0.84594 0.78765 0.0
H907 H 0.75344 0.77972 0.83277 0.0
H908 H 0.77796 0.75007 0.83019 0.0
H909 H 0.83135 0.89303 0.65574 0.0
H910 H 0.83355 0.88544 0.68812 0.0
H911 H 0.82784 0.91283 0.68027 0.0
C912 C 0.97739 0.31517 0.53502 0.0
C913 C 0.03925 0.30487 0.48041 0.0
O914 O 0.99033 0.32933 0.52698 0.0
Zn915 Zn 0.00852 0.3102 0.50808 0.0
O916 O 0.98035 0.29542 0.52914 0.0
Zn917 Zn 0.00268 0.27675 0.50733 0.0
O918 O 0.01545 0.25817 0.53211 0.0
O919 O 0.02415 0.2922 0.53703 0.0
O920 O 0.02976 0.28714 0.48552 0.0
O921 O 0.03217 0.32226 0.48965 0.0
O922 O 0.98697 0.29937 0.47927 0.0
O923 O 0.98396 0.26422 0.48259 0.0
C924 C 0.02547 0.27261 0.54417 0.0
C925 C 0.97886 0.2816 0.47169 0.0
C926 C 0.68937 0.03055 0.55106 0.0
C927 C 0.69383 0.97377 0.48795 0.0
O928 O 0.70807 0.0283 0.54151 0.0
Zn929 Zn 0.72427 0.00843 0.51526 0.0
O930 O 0.67447 0.01768 0.54477 0.0
Zn931 Zn 0.69104 0.00086 0.52076 0.0
O932 O 0.71272 0.98267 0.54305 0.0
O933 O 0.74568 0.99392 0.53545 0.0
O934 O 0.67751 0.97833 0.50122 0.0
O935 O 0.71159 0.9837 0.49153 0.0
O936 O 0.73293 0.02953 0.49066 0.0
O937 O 0.69788 0.0245 0.49267 0.0
C938 C 0.73295 0.9815 0.54703 0.0
C939 C 0.71412 0.03405 0.48303 0.0
C940 C 0.98942 0.75901 0.52461 0.0
C941 C 0.03946 0.76003 0.45509 0.0
O942 O 1.00013 0.77465 0.51599 0.0
Zn943 Zn 0.01333 0.75967 0.48876 0.0
O944 O 0.99044 0.74067 0.51372 0.0
Zn945 Zn 0.00708 0.72696 0.48201 0.0
O946 O 0.02374 0.70458 0.49772 0.0
O947 O 0.03417 0.73729 0.50786 0.0
O948 O 0.03108 0.74138 0.45804 0.0
O949 O 0.03318 0.77554 0.46863 0.0
O950 O 0.9873 0.75373 0.46348 0.0
O951 O 0.98422 0.71872 0.45936 0.0
C952 C 0.03644 0.71688 0.50962 0.0
C953 C 0.97784 0.73746 0.45378 0.0
C954 C 0.2661 0.03613 0.53213 0.0
C955 C 0.27774 0.98797 0.46165 0.0
O956 O 0.28608 0.0318 0.52928 0.0
Zn957 Zn 0.30531 0.01333 0.50346 0.0
O958 O 0.25256 0.02849 0.5168 0.0
Zn959 Zn 0.27226 0.01263 0.49624 0.0
O960 O 0.28406 0.98798 0.52131 0.0
O961 O 0.31899 0.99286 0.52497 0.0
O962 O 0.26023 0.9959 0.46953 0.0
O963 O 0.29544 0.99313 0.47242 0.0
O964 O 0.32341 0.03443 0.48802 0.0
O965 O 0.28968 0.03703 0.47607 0.0
C966 C 0.30223 0.9823 0.5305 0.0
C967 C 0.30918 0.04353 0.47479 0.0
C968 C 0.47832 0.83001 0.02517 0.0
C969 C 0.54207 0.83019 0.97288 0.0
O970 O 0.49043 0.84557 0.01924 0.0
Zn971 Zn 0.50989 0.82948 0.99901 0.0
O972 O 0.48272 0.81105 0.01716 0.0
Zn973 Zn 0.50746 0.79645 0.99368 0.0
O974 O 0.5206 0.77637 0.01611 0.0
O975 O 0.52612 0.81008 0.02683 0.0
O976 O 0.53466 0.81107 0.97509 0.0
O977 O 0.53231 0.84555 0.98345 0.0
O978 O 0.48904 0.81975 0.96865 0.0
O979 O 0.49074 0.78447 0.96692 0.0
C980 C 0.52873 0.78996 0.03104 0.0
C981 C 0.48312 0.80197 0.95867 0.0
C982 C 0.23308 0.5456 0.04083 0.0
C983 C 0.22271 0.48073 0.99084 0.0
O984 O 0.25077 0.5374 0.03316 0.0
Zn985 Zn 0.26113 0.51027 0.01151 0.0
O986 O 0.21545 0.53652 0.03527 0.0
Zn987 Zn 0.22758 0.51295 0.01631 0.0
O988 O 0.24409 0.49438 0.04464 0.0
O989 O 0.27846 0.49465 0.03479 0.0
O990 O 0.20836 0.49235 0.00094 0.0
O991 O 0.24254 0.48562 0.99366 0.0
O992 O 0.27537 0.52346 0.98357 0.0
O993 O 0.24044 0.52914 0.98394 0.0
C994 C 0.26351 0.48881 0.04939 0.0
C995 C 0.25884 0.53178 0.97363 0.0
C996 C 0.52722 0.2097 0.97958 0.0
C997 C 0.48349 0.21892 0.05398 0.0
O998 O 0.52037 0.22698 0.98931 0.0
Zn999 Zn 0.50458 0.214 0.01607 0.0
O1000 O 0.52164 0.19159 0.989 0.0
Zn1001 Zn 0.50206 0.18068 0.01996 0.0
O1002 O 0.47898 0.16527 0.00417 0.0
O1003 O 0.47769 0.19998 0.99679 0.0
O1004 O 0.48648 0.19899 0.04906 0.0
O1005 O 0.49111 0.23307 0.03945 0.0
O1006 O 0.52998 0.19866 0.03769 0.0
O1007 O 0.52234 0.16409 0.03854 0.0
C1008 C 0.46982 0.18114 0.99386 0.0
C1009 C 0.53467 0.17947 0.04458 0.0
C1010 C 0.77798 0.52619 0.0285 0.0
C1011 C 0.78039 0.46976 0.9651 0.0
O1012 O 0.79713 0.52183 0.02132 0.0
Zn1013 Zn 0.81276 0.50059 0.99544 0.0
O1014 O 0.76227 0.51604 0.01901 0.0
Zn1015 Zn 0.77871 0.49799 0.99667 0.0
O1016 O 0.79571 0.47776 0.02208 0.0
O1017 O 0.83049 0.48269 0.01679 0.0
O1018 O 0.76391 0.47711 0.97619 0.0
O1019 O 0.799 0.47729 0.97043 0.0
O1020 O 0.82641 0.52062 0.97308 0.0
O1021 O 0.79106 0.52034 0.96971 0.0
C1022 C 0.81514 0.47325 0.02789 0.0
C1023 C 0.80939 0.52756 0.96279 0.0
H1024 H 0.13008 0.25134 0.39653 0.0
H1025 H 0.16348 0.31248 0.39762 0.0
H1026 H 0.13307 0.32863 0.42063 0.0
H1027 H 0.07608 0.27242 0.38992 0.0
H1028 H 0.0646 0.25244 0.41025 0.0
H1029 H 0.08819 0.24623 0.39217 0.0
H1030 H 0.10834 0.23554 0.43269 0.0
H1031 H 0.08485 0.24171 0.45088 0.0
H1032 H 0.11005 0.25447 0.45812 0.0
H1033 H 0.0998 0.33755 0.44545 0.0
H1034 H 0.06652 0.33842 0.47056 0.0
H1035 H 0.0559 0.27102 0.45411 0.0
C1036 C 0.1312 0.2681 0.40153 0.0
C1037 C 0.14955 0.28055 0.39573 0.0
C1038 C 0.14977 0.30258 0.40228 0.0
C1039 C 0.13257 0.31189 0.41525 0.0
C1040 C 0.11511 0.29899 0.42139 0.0
C1041 C 0.1143 0.27759 0.41471 0.0
C1042 C 0.09416 0.26696 0.42454 0.0
C1043 C 0.07991 0.25905 0.40293 0.0
C1044 C 0.09969 0.24859 0.44263 0.0
C1045 C 0.08392 0.28565 0.43812 0.0
C1046 C 0.09611 0.30406 0.43586 0.0
C1047 C 0.09007 0.32326 0.44724 0.0
C1048 C 0.07114 0.3236 0.46147 0.0
C1049 C 0.0586 0.3048 0.46435 0.0
C1050 C 0.0651 0.28568 0.45231 0.0
H1051 H 0.7439 0.12936 0.389 0.0
H1052 H 0.67545 0.13771 0.37772 0.0
H1053 H 0.66837 0.10643 0.40471 0.0
H1054 H 0.74404 0.07088 0.39112 0.0
H1055 H 0.76401 0.06964 0.41547 0.0
H1056 H 0.76387 0.09181 0.39388 0.0
H1057 H 0.76177 0.11851 0.43096 0.0
H1058 H 0.7619 0.09644 0.45266 0.0
H1059 H 0.74047 0.11585 0.45355 0.0
H1060 H 0.66851 0.07544 0.43373 0.0
H1061 H 0.67557 0.0469 0.46427 0.0
H1062 H 0.74407 0.05891 0.45825 0.0
C1063 C 0.72744 0.12449 0.39213 0.0
C1064 C 0.7102 0.13593 0.38126 0.0
C1065 C 0.68887 0.12914 0.3858 0.0
C1066 C 0.68471 0.1114 0.40107 0.0
C1067 C 0.70203 0.10065 0.41171 0.0
C1068 C 0.72298 0.10692 0.40754 0.0
C1069 C 0.73857 0.09315 0.42225 0.0
C1070 C 0.7535 0.08062 0.40462 0.0
C1071 C 0.75143 0.1068 0.44096 0.0
C1072 C 0.72306 0.0783 0.43552 0.0
C1073 C 0.7021 0.08285 0.42895 0.0
C1074 C 0.68485 0.07166 0.43897 0.0
C1075 C 0.68908 0.05546 0.45635 0.0
C1076 C 0.7104 0.05062 0.46371 0.0
C1077 C 0.72761 0.06216 0.45297 0.0
H1078 H 0.88833 0.70426 0.35342 0.0
H1079 H 0.87929 0.77232 0.33999 0.0
H1080 H 0.90467 0.78066 0.37401 0.0
H1081 H 0.89509 0.70757 0.42166 0.0
H1082 H 0.91562 0.68721 0.42225 0.0
H1083 H 0.89508 0.68651 0.39853 0.0
H1084 H 0.92433 0.6862 0.36413 0.0
H1085 H 0.94494 0.68699 0.3877 0.0
H1086 H 0.94424 0.70717 0.3636 0.0
H1087 H 0.93256 0.78178 0.4073 0.0
H1088 H 0.96145 0.77571 0.43788 0.0
H1089 H 0.95367 0.70684 0.4292 0.0
C1090 C 0.89154 0.7209 0.35784 0.0
C1091 C 0.88185 0.73765 0.34397 0.0
C1092 C 0.88649 0.75923 0.35033 0.0
C1093 C 0.90088 0.76414 0.36963 0.0
C1094 C 0.91055 0.74728 0.38246 0.0
C1095 C 0.90608 0.7261 0.37691 0.0
C1096 C 0.91968 0.71107 0.39262 0.0
C1097 C 0.90552 0.69728 0.40979 0.0
C1098 C 0.93415 0.69704 0.37602 0.0
C1099 C 0.93272 0.72715 0.40755 0.0
C1100 C 0.927 0.74793 0.40153 0.0
C1101 C 0.93709 0.76559 0.41231 0.0
C1102 C 0.95353 0.76194 0.42965 0.0
C1103 C 0.95988 0.74079 0.436 0.0
C1104 C 0.94917 0.7232 0.42484 0.0
H1105 H 0.32932 0.90466 0.36584 0.0
H1106 H 0.26903 0.90565 0.32514 0.0
H1107 H 0.25352 0.92936 0.35749 0.0
H1108 H 0.30695 0.90626 0.42851 0.0
H1109 H 0.32773 0.9237 0.44022 0.0
H1110 H 0.33344 0.90538 0.41502 0.0
H1111 H 0.34657 0.93709 0.3877 0.0
H1112 H 0.34086 0.9555 0.41278 0.0
H1113 H 0.329 0.95961 0.38242 0.0
H1114 H 0.24516 0.95436 0.39325 0.0
H1115 H 0.24467 0.97896 0.4295 0.0
H1116 H 0.31105 0.96282 0.44541 0.0
C1117 C 0.31289 0.90982 0.36353 0.0
C1118 C 0.30055 0.90368 0.34246 0.0
C1119 C 0.27889 0.91046 0.34085 0.0
C1120 C 0.26993 0.92388 0.35915 0.0
C1121 C 0.2828 0.93029 0.3791 0.0
C1122 C 0.3038 0.92346 0.38142 0.0
C1123 C 0.31451 0.93345 0.40403 0.0
C1124 C 0.32104 0.91616 0.42307 0.0
C1125 C 0.33387 0.94723 0.39626 0.0
C1126 C 0.29635 0.94719 0.41388 0.0
C1127 C 0.27811 0.94495 0.39942 0.0
C1128 C 0.25933 0.95619 0.40475 0.0
C1129 C 0.25921 0.97013 0.42537 0.0
C1130 C 0.27783 0.97289 0.44025 0.0
C1131 C 0.29658 0.96116 0.43437 0.0
H1132 H 0.14228 0.72379 0.59286 0.0
H1133 H 0.14695 0.65452 0.58789 0.0
H1134 H 0.11267 0.65345 0.5645 0.0
H1135 H 0.08422 0.72696 0.59999 0.0
H1136 H 0.08205 0.75073 0.58101 0.0
H1137 H 0.10617 0.74575 0.59864 0.0
H1138 H 0.12869 0.74872 0.55803 0.0
H1139 H 0.10465 0.75367 0.5403 0.0
H1140 H 0.12216 0.73187 0.53168 0.0
H1141 H 0.07844 0.6603 0.54011 0.0
H1142 H 0.04754 0.67452 0.51626 0.0
H1143 H 0.06592 0.73931 0.53709 0.0
C1144 C 0.13589 0.70838 0.58717 0.0
C1145 C 0.14705 0.68919 0.59254 0.0
C1146 C 0.13847 0.66936 0.58429 0.0
C1147 C 0.11905 0.66861 0.57098 0.0
C1148 C 0.10848 0.68785 0.56597 0.0
C1149 C 0.11663 0.70736 0.57382 0.0
C1150 C 0.10272 0.72579 0.56513 0.0
C1151 C 0.09322 0.73802 0.58753 0.0
C1152 C 0.11531 0.7409 0.54775 0.0
C1153 C 0.08554 0.71365 0.55099 0.0
C1154 C 0.08904 0.69178 0.55176 0.0
C1155 C 0.07549 0.6774 0.53951 0.0
C1156 C 0.05797 0.68562 0.52601 0.0
C1157 C 0.05425 0.70802 0.52481 0.0
C1158 C 0.06822 0.7221 0.53767 0.0
H1159 H 0.27965 0.09937 0.66108 0.0
H1160 H 0.21023 0.09976 0.66671 0.0
H1161 H 0.20762 0.08335 0.62475 0.0
H1162 H 0.28322 0.10991 0.59371 0.0
H1163 H 0.3056 0.09195 0.5895 0.0
H1164 H 0.30194 0.1056 0.61892 0.0
H1165 H 0.30221 0.06906 0.642 0.0
H1166 H 0.30583 0.05532 0.6127 0.0
H1167 H 0.28358 0.04843 0.63265 0.0
H1168 H 0.2126 0.06512 0.58326 0.0
H1169 H 0.22475 0.04548 0.54576 0.0
H1170 H 0.29102 0.05591 0.56774 0.0
C1171 C 0.26391 0.09625 0.6533 0.0
C1172 C 0.24513 0.10097 0.66707 0.0
C1173 C 0.22481 0.09643 0.65641 0.0
C1174 C 0.22318 0.08712 0.6326 0.0
C1175 C 0.24201 0.08239 0.61969 0.0
C1176 C 0.262 0.08677 0.62966 0.0
C1177 C 0.27974 0.07889 0.61261 0.0
C1178 C 0.29343 0.09771 0.60312 0.0
C1179 C 0.29365 0.06192 0.62578 0.0
C1180 C 0.2666 0.06909 0.59169 0.0
C1181 C 0.24488 0.07149 0.596 0.0
C1182 C 0.22957 0.06326 0.5796 0.0
C1183 C 0.23664 0.05212 0.55834 0.0
C1184 C 0.25884 0.04914 0.55375 0.0
C1185 C 0.27395 0.05795 0.57062 0.0
H1186 H 0.86522 0.29492 0.60247 0.0
H1187 H 0.86187 0.3633 0.61688 0.0
H1188 H 0.89778 0.36798 0.59793 0.0
H1189 H 0.92243 0.28856 0.6146 0.0
H1190 H 0.92592 0.26923 0.58984 0.0
H1191 H 0.90052 0.27127 0.60574 0.0
H1192 H 0.88138 0.27728 0.56327 0.0
H1193 H 0.9067 0.2753 0.54727 0.0
H1194 H 0.89016 0.29875 0.54317 0.0
H1195 H 0.93356 0.36523 0.57578 0.0
H1196 H 0.96609 0.3553 0.55195 0.0
H1197 H 0.94568 0.2887 0.55228 0.0
C1198 C 0.87222 0.31082 0.60199 0.0
C1199 C 0.86098 0.32871 0.61159 0.0
C1200 C 0.8704 0.34935 0.61003 0.0
C1201 C 0.89074 0.35215 0.59928 0.0
C1202 C 0.90142 0.33416 0.59006 0.0
C1203 C 0.89247 0.31389 0.59134 0.0
C1204 C 0.90686 0.2973 0.57926 0.0
C1205 C 0.91438 0.28061 0.59851 0.0
C1206 C 0.8956 0.28653 0.55692 0.0
C1207 C 0.92521 0.31141 0.57079 0.0
C1208 C 0.92185 0.33261 0.57724 0.0
C1209 C 0.93642 0.34865 0.57076 0.0
C1210 C 0.95485 0.34286 0.55722 0.0
C1211 C 0.9585 0.32122 0.55029 0.0
C1212 C 0.94348 0.30537 0.55739 0.0
H1213 H 0.80355 0.93282 0.6579 0.0
H1214 H 0.76915 0.87297 0.64671 0.0
H1215 H 0.74801 0.88982 0.61308 0.0
H1216 H 0.76011 0.96878 0.64529 0.0
H1217 H 0.77642 0.98786 0.62859 0.0
H1218 H 0.78821 0.97146 0.65266 0.0
H1219 H 0.81662 0.95766 0.62116 0.0
H1220 H 0.80492 0.97401 0.59698 0.0
H1221 H 0.80795 0.94554 0.59225 0.0
H1222 H 0.73001 0.9132 0.58164 0.0
H1223 H 0.71761 0.94118 0.55236 0.0
H1224 H 0.76613 0.98476 0.58073 0.0
C1225 C 0.79176 0.92312 0.64827 0.0
C1226 C 0.78824 0.90139 0.6548 0.0
C1227 C 0.77222 0.88957 0.642 0.0
C1228 C 0.76016 0.89898 0.62283 0.0
C1229 C 0.76441 0.92022 0.61651 0.0
C1230 C 0.77994 0.93211 0.62864 0.0
C1231 C 0.78175 0.95443 0.61759 0.0
C1232 C 0.77629 0.97165 0.6372 0.0
C1233 C 0.80414 0.95812 0.60632 0.0
C1234 C 0.76471 0.95324 0.59742 0.0
C1235 C 0.75474 0.93342 0.59738 0.0
C1236 C 0.73783 0.9287 0.5813 0.0
C1237 C 0.73088 0.94468 0.56481 0.0
C1238 C 0.74108 0.96495 0.56421 0.0
C1239 C 0.75833 0.96923 0.58059 0.0
H1240 H 0.91054 0.72141 0.63345 0.0
H1241 H 0.92755 0.77973 0.67312 0.0
H1242 H 0.94964 0.79121 0.63726 0.0
H1243 H 0.96239 0.7126 0.60751 0.0
H1244 H 0.95248 0.70201 0.57833 0.0
H1245 H 0.9368 0.69915 0.60639 0.0
H1246 H 0.90462 0.71778 0.58467 0.0
H1247 H 0.92023 0.72073 0.55654 0.0
H1248 H 0.90822 0.74395 0.57096 0.0
H1249 H 0.97017 0.79616 0.59715 0.0
H1250 H 0.98968 0.793 0.55714 0.0
H1251 H 0.96052 0.73064 0.54458 0.0
C1252 C 0.91868 0.73674 0.63439 0.0
C1253 C 0.91677 0.74996 0.65574 0.0
C1254 C 0.92825 0.76959 0.6567 0.0
C1255 C 0.94089 0.77623 0.63644 0.0
C1256 C 0.94218 0.76291 0.61556 0.0
C1257 C 0.93154 0.74348 0.6145 0.0
C1258 C 0.93657 0.73157 0.59053 0.0
C1259 C 0.94773 0.71007 0.59603 0.0
C1260 C 0.9162 0.72833 0.57474 0.0
C1261 C 0.95175 0.74731 0.57828 0.0
C1262 C 0.95462 0.76538 0.5929 0.0
C1263 C 0.96804 0.78209 0.58554 0.0
C1264 C 0.97901 0.78016 0.56275 0.0
C1265 C 0.97666 0.76157 0.54774 0.0
C1266 C 0.9627 0.74505 0.55562 0.0
H1267 H 0.25619 0.8831 0.60765 0.0
H1268 H 0.32175 0.86086 0.61602 0.0
H1269 H 0.33479 0.89335 0.59442 0.0
H1270 H 0.26285 0.90332 0.54606 0.0
H1271 H 0.24514 0.92587 0.55048 0.0
H1272 H 0.24115 0.90169 0.56826 0.0
H1273 H 0.24333 0.92353 0.60946 0.0
H1274 H 0.24732 0.9478 0.59179 0.0
H1275 H 0.26648 0.94011 0.6154 0.0
H1276 H 0.34058 0.92816 0.57129 0.0
H1277 H 0.33852 0.96132 0.54611 0.0
H1278 H 0.26902 0.9598 0.55137 0.0
C1279 C 0.27331 0.88528 0.60527 0.0
C1280 C 0.28796 0.8698 0.61421 0.0
C1281 C 0.31023 0.87278 0.60998 0.0
C1282 C 0.31779 0.89116 0.59767 0.0
C1283 C 0.30288 0.9062 0.58934 0.0
C1284 C 0.2811 0.90336 0.5928 0.0
C1285 C 0.26833 0.92126 0.5808 0.0
C1286 C 0.2535 0.9125 0.56018 0.0
C1287 C 0.25562 0.93393 0.60054 0.0
C1288 C 0.28634 0.9346 0.56995 0.0
C1289 C 0.30615 0.92577 0.57526 0.0
C1290 C 0.32514 0.93522 0.56703 0.0
C1291 C 0.32381 0.95407 0.55278 0.0
C1292 C 0.30362 0.96314 0.54673 0.0
C1293 C 0.2847 0.95326 0.55562 0.0
H1294 H 0.09808 0.29915 0.66269 0.0
H1295 H 0.08995 0.23312 0.68624 0.0
H1296 H 0.06972 0.2254 0.64742 0.0
H1297 H 0.0461 0.3054 0.63756 0.0
H1298 H 0.05447 0.32222 0.61196 0.0
H1299 H 0.06966 0.32199 0.64057 0.0
H1300 H 0.10404 0.31202 0.61587 0.0
H1301 H 0.08894 0.31229 0.58714 0.0
H1302 H 0.10394 0.28873 0.59586 0.0
H1303 H 0.04912 0.22545 0.6065 0.0
H1304 H 0.02911 0.23351 0.56766 0.0
H1305 H 0.05046 0.29973 0.57185 0.0
C1306 C 0.09239 0.28297 0.65941 0.0
C1307 C 0.09609 0.26659 0.67709 0.0
C1308 C 0.08777 0.24576 0.67261 0.0
C1309 C 0.07622 0.24126 0.65067 0.0
C1310 C 0.07296 0.2578 0.63356 0.0
C1311 C 0.08079 0.27824 0.63773 0.0
C1312 C 0.07421 0.29347 0.61712 0.0
C1313 C 0.06028 0.31185 0.62742 0.0
C1314 C 0.09396 0.30213 0.60317 0.0
C1315 C 0.06126 0.27847 0.60078 0.0
C1316 C 0.06082 0.25793 0.61043 0.0
C1317 C 0.04945 0.24146 0.59872 0.0
C1318 C 0.03814 0.24619 0.57667 0.0
C1319 C 0.03819 0.26724 0.56669 0.0
C1320 C 0.05008 0.28346 0.57893 0.0
H1321 H 0.72252 0.14413 0.60255 0.0
H1322 H 0.65493 0.15987 0.60669 0.0
H1323 H 0.64572 0.12177 0.59908 0.0
H1324 H 0.71861 0.11014 0.5526 0.0
H1325 H 0.73881 0.09143 0.56289 0.0
H1326 H 0.7399 0.11888 0.57304 0.0
H1327 H 0.73995 0.10649 0.61931 0.0
H1328 H 0.7389 0.0789 0.60925 0.0
H1329 H 0.71888 0.08915 0.63043 0.0
H1330 H 0.64413 0.08275 0.58539 0.0
H1331 H 0.65036 0.04727 0.56578 0.0
H1332 H 0.71905 0.05762 0.571 0.0
C1333 C 0.7058 0.13939 0.60274 0.0
C1334 C 0.68945 0.15481 0.60586 0.0
C1335 C 0.6677 0.14819 0.60497 0.0
C1336 C 0.66235 0.1266 0.60065 0.0
C1337 C 0.67892 0.11183 0.59727 0.0
C1338 C 0.70022 0.11798 0.59842 0.0
C1339 C 0.71502 0.09968 0.59157 0.0
C1340 C 0.72888 0.10538 0.56867 0.0
C1341 C 0.72901 0.09317 0.61398 0.0
C1342 C 0.69874 0.08247 0.58543 0.0
C1343 C 0.67799 0.08957 0.58919 0.0
C1344 C 0.66032 0.07691 0.58281 0.0
C1345 C 0.664 0.05674 0.57173 0.0
C1346 C 0.68517 0.04961 0.56692 0.0
C1347 C 0.70265 0.06248 0.57459 0.0
H1348 H 0.87559 0.2384 0.40047 0.0
H1349 H 0.86554 0.30386 0.37553 0.0
H1350 H 0.90109 0.31389 0.39181 0.0
H1351 H 0.89799 0.25236 0.45752 0.0
H1352 H 0.917 0.2306 0.45877 0.0
H1353 H 0.8925 0.22756 0.44138 0.0
H1354 H 0.91426 0.218 0.40161 0.0
H1355 H 0.9389 0.22099 0.41894 0.0
H1356 H 0.93472 0.23615 0.39068 0.0
H1357 H 0.9358 0.31782 0.41435 0.0
H1358 H 0.96635 0.31588 0.44346 0.0
H1359 H 0.95349 0.2482 0.45555 0.0
C1360 C 0.88119 0.25469 0.39783 0.0
C1361 C 0.86799 0.27016 0.38615 0.0
C1362 C 0.87549 0.29155 0.38383 0.0
C1363 C 0.8957 0.29743 0.39304 0.0
C1364 C 0.90816 0.28183 0.40474 0.0
C1365 C 0.90119 0.2609 0.40724 0.0
C1366 C 0.91657 0.24785 0.42306 0.0
C1367 C 0.90534 0.23909 0.44657 0.0
C1368 C 0.92672 0.22967 0.40765 0.0
C1369 C 0.93297 0.26487 0.42963 0.0
C1370 C 0.928 0.28424 0.4185 0.0
C1371 C 0.94002 0.30268 0.42293 0.0
C1372 C 0.95733 0.3014 0.43956 0.0
C1373 C 0.96237 0.28187 0.45177 0.0
C1374 C 0.95024 0.26329 0.44629 0.0
H1375 H 0.6643 0.86162 0.42359 0.0
H1376 H 0.70357 0.88182 0.36086 0.0
H1377 H 0.71082 0.91615 0.38206 0.0
H1378 H 0.64036 0.91381 0.4344 0.0
H1379 H 0.63982 0.91093 0.46792 0.0
H1380 H 0.63805 0.88754 0.4482 0.0
H1381 H 0.67087 0.87089 0.47074 0.0
H1382 H 0.67268 0.89417 0.49059 0.0
H1383 H 0.69559 0.88583 0.47245 0.0
H1384 H 0.71534 0.94736 0.41061 0.0
H1385 H 0.71507 0.9748 0.44387 0.0
H1386 H 0.67066 0.93611 0.48702 0.0
C1387 C 0.67457 0.87324 0.41447 0.0
C1388 C 0.68391 0.86871 0.39094 0.0
C1389 C 0.69673 0.88457 0.37919 0.0
C1390 C 0.70084 0.90421 0.39101 0.0
C1391 C 0.69162 0.908 0.41431 0.0
C1392 C 0.67856 0.8931 0.42583 0.0
C1393 C 0.67024 0.90151 0.45064 0.0
C1394 C 0.64566 0.90357 0.45025 0.0
C1395 C 0.6778 0.88725 0.47239 0.0
C1396 C 0.68093 0.92335 0.45139 0.0
C1397 C 0.69328 0.92665 0.43027 0.0
C1398 C 0.70555 0.94509 0.42711 0.0
C1399 C 0.70534 0.96053 0.44611 0.0
C1400 C 0.6927 0.95761 0.46783 0.0
C1401 C 0.68015 0.93888 0.47038 0.0
H1402 H 0.14668 0.72337 0.38761 0.0
H1403 H 0.16106 0.79075 0.37675 0.0
H1404 H 0.12479 0.80031 0.39171 0.0
H1405 H 0.08867 0.72618 0.37077 0.0
H1406 H 0.08138 0.7071 0.3946 0.0
H1407 H 0.1073 0.70545 0.37978 0.0
H1408 H 0.12571 0.7073 0.4232 0.0
H1409 H 0.09991 0.70903 0.43811 0.0
H1410 H 0.1198 0.72946 0.44377 0.0
H1411 H 0.08896 0.80275 0.4126 0.0
H1412 H 0.05597 0.79784 0.43755 0.0
H1413 H 0.06464 0.72881 0.43433 0.0
C1414 C 0.14192 0.74007 0.38773 0.0
C1415 C 0.15649 0.75633 0.38065 0.0
C1416 C 0.14999 0.77807 0.38174 0.0
C1417 C 0.12944 0.78364 0.39019 0.0
C1418 C 0.11557 0.76726 0.39743 0.0
C1419 C 0.12147 0.7459 0.39614 0.0
C1420 C 0.10426 0.73152 0.40701 0.0
C1421 C 0.09484 0.71669 0.38683 0.0
C1422 C 0.11294 0.71858 0.42934 0.0
C1423 C 0.08806 0.74817 0.41531 0.0
C1424 C 0.09478 0.76867 0.4094 0.0
C1425 C 0.08332 0.78676 0.41692 0.0
C1426 C 0.06464 0.78382 0.43114 0.0
C1427 C 0.05763 0.76295 0.43767 0.0
C1428 C 0.06933 0.74494 0.4292 0.0
H1429 H 0.29727 0.11584 0.35264 0.0
H1430 H 0.36172 0.13901 0.36691 0.0
H1431 H 0.36257 0.11878 0.40662 0.0
H1432 H 0.27889 0.11622 0.4183 0.0
H1433 H 0.26352 0.09195 0.41447 0.0
H1434 H 0.2673 0.10977 0.38833 0.0
H1435 H 0.28305 0.07838 0.36237 0.0
H1436 H 0.27943 0.06051 0.38843 0.0
H1437 H 0.30558 0.06351 0.37449 0.0
H1438 H 0.35759 0.09372 0.44278 0.0
H1439 H 0.34681 0.06618 0.47347 0.0
H1440 H 0.28531 0.05973 0.43608 0.0
C1441 C 0.31133 0.11704 0.36446 0.0
C1442 C 0.32928 0.12934 0.357 0.0
C1443 C 0.34767 0.13001 0.37254 0.0
C1444 C 0.34831 0.11855 0.39507 0.0
C1445 C 0.33041 0.10648 0.40181 0.0
C1446 C 0.31221 0.10574 0.38705 0.0
C1447 C 0.29561 0.09065 0.39792 0.0
C1448 C 0.27512 0.10288 0.40519 0.0
C1449 C 0.29064 0.07217 0.37972 0.0
C1450 C 0.30748 0.08271 0.42083 0.0
C1451 C 0.3275 0.0921 0.42277 0.0
C1452 C 0.34185 0.08647 0.44165 0.0
C1453 C 0.3356 0.07076 0.45895 0.0
C1454 C 0.31517 0.06091 0.45729 0.0
C1455 C 0.30091 0.06718 0.43808 0.0
H1456 H 0.65274 0.79973 0.90616 0.0
H1457 H 0.66932 0.86723 0.91077 0.0
H1458 H 0.63309 0.87534 0.92675 0.0
H1459 H 0.5959 0.80679 0.88911 0.0
H1460 H 0.58719 0.78466 0.90825 0.0
H1461 H 0.6136 0.78439 0.89454 0.0
H1462 H 0.63039 0.77909 0.93843 0.0
H1463 H 0.60408 0.77938 0.95226 0.0
H1464 H 0.62426 0.79795 0.96298 0.0
H1465 H 0.59628 0.87592 0.94495 0.0
H1466 H 0.56142 0.86895 0.96501 0.0
H1467 H 0.5688 0.80082 0.95011 0.0
C1468 C 0.64864 0.81624 0.91029 0.0
C1469 C 0.66389 0.83286 0.90727 0.0
C1470 C 0.65792 0.85426 0.91291 0.0
C1471 C 0.63737 0.85902 0.92196 0.0
C1472 C 0.62292 0.84222 0.92529 0.0
C1473 C 0.62825 0.82126 0.91964 0.0
C1474 C 0.61021 0.80605 0.92657 0.0
C1475 C 0.60119 0.79481 0.90322 0.0
C1476 C 0.61769 0.78965 0.94623 0.0
C1477 C 0.59412 0.82171 0.93746 0.0
C1478 C 0.60169 0.84251 0.93623 0.0
C1479 C 0.59009 0.85972 0.94584 0.0
C1480 C 0.57029 0.85557 0.95725 0.0
C1481 C 0.56231 0.83433 0.95914 0.0
C1482 C 0.57436 0.81725 0.94883 0.0
H1483 H 0.21453 0.60016 0.8587 0.0
H1484 H 0.27572 0.58923 0.82217 0.0
H1485 H 0.28914 0.57106 0.8601 0.0
H1486 H 0.23527 0.60871 0.92172 0.0
H1487 H 0.21337 0.59463 0.93636 0.0
H1488 H 0.20919 0.60835 0.90712 0.0
H1489 H 0.19517 0.5731 0.88722 0.0
H1490 H 0.19928 0.5593 0.91637 0.0
H1491 H 0.21169 0.54937 0.88821 0.0
H1492 H 0.29538 0.55272 0.90132 0.0
H1493 H 0.29353 0.53447 0.94225 0.0
H1494 H 0.22775 0.55612 0.95109 0.0
C1495 C 0.23076 0.59398 0.8587 0.0
C1496 C 0.24401 0.5959 0.83737 0.0
C1497 C 0.26525 0.58781 0.83824 0.0
C1498 C 0.27303 0.57752 0.85971 0.0
C1499 C 0.25939 0.57548 0.88019 0.0
C1500 C 0.2387 0.58345 0.87987 0.0
C1501 C 0.22694 0.57814 0.90385 0.0
C1502 C 0.22084 0.59868 0.91811 0.0
C1503 C 0.2071 0.56414 0.89859 0.0
C1504 C 0.24415 0.56566 0.91754 0.0
C1505 C 0.26284 0.56454 0.90373 0.0
C1506 C 0.28085 0.55356 0.91236 0.0
C1507 C 0.27966 0.54326 0.93564 0.0
C1508 C 0.2605 0.54383 0.94987 0.0
C1509 C 0.24262 0.55536 0.94068 0.0
H1510 H 0.36863 0.21815 0.91306 0.0
H1511 H 0.3447 0.15305 0.91969 0.0
H1512 H 0.37815 0.14236 0.94104 0.0
H1513 H 0.42551 0.20458 0.90404 0.0
H1514 H 0.4347 0.22684 0.92272 0.0
H1515 H 0.40983 0.22885 0.90567 0.0
H1516 H 0.38988 0.23834 0.94672 0.0
H1517 H 0.41463 0.23628 0.96389 0.0
H1518 H 0.39177 0.22045 0.97309 0.0
H1519 H 0.41315 0.13921 0.9639 0.0
H1520 H 0.44701 0.14397 0.98722 0.0
H1521 H 0.44764 0.21143 0.96701 0.0
C1522 C 0.3706 0.20159 0.9187 0.0
C1523 C 0.35412 0.18639 0.91459 0.0
C1524 C 0.35717 0.16491 0.92248 0.0
C1525 C 0.37611 0.15869 0.93462 0.0
C1526 C 0.39184 0.17415 0.93882 0.0
C1527 C 0.38931 0.19515 0.93109 0.0
C1528 C 0.40808 0.20891 0.9393 0.0
C1529 C 0.42025 0.21782 0.91658 0.0
C1530 C 0.40064 0.22706 0.95679 0.0
C1531 C 0.42137 0.19243 0.95319 0.0
C1532 C 0.41183 0.17243 0.95246 0.0
C1533 C 0.42085 0.15477 0.96447 0.0
C1534 C 0.44008 0.15764 0.97769 0.0
C1535 C 0.45 0.17806 0.97897 0.0
C1536 C 0.4405 0.1956 0.96638 0.0
H1537 H 0.8264 0.38887 0.86386 0.0
H1538 H 0.77432 0.34576 0.88312 0.0
H1539 H 0.7581 0.37407 0.90928 0.0
H1540 H 0.83276 0.40934 0.92417 0.0
H1541 H 0.83957 0.43614 0.91434 0.0
H1542 H 0.84522 0.41373 0.8942 0.0
H1543 H 0.82327 0.43156 0.85866 0.0
H1544 H 0.81753 0.45406 0.87875 0.0
H1545 H 0.79586 0.43941 0.86435 0.0
H1546 H 0.74871 0.40666 0.93556 0.0
H1547 H 0.7488 0.43918 0.96223 0.0
H1548 H 0.80848 0.4595 0.92794 0.0
C1549 C 0.81137 0.38553 0.87323 0.0
C1550 C 0.80155 0.36519 0.8711 0.0
C1551 C 0.78209 0.36127 0.88408 0.0
C1552 C 0.7727 0.37729 0.899 0.0
C1553 C 0.78306 0.39705 0.90097 0.0
C1554 C 0.80206 0.40113 0.88854 0.0
C1555 C 0.81122 0.42275 0.89572 0.0
C1556 C 0.8335 0.42033 0.90783 0.0
C1557 C 0.81201 0.43784 0.87301 0.0
C1558 C 0.79464 0.43007 0.91451 0.0
C1559 C 0.77825 0.41527 0.91693 0.0
C1560 C 0.76139 0.4184 0.9337 0.0
C1561 C 0.76154 0.43693 0.94871 0.0
C1562 C 0.77865 0.4518 0.94715 0.0
C1563 C 0.79518 0.4484 0.92954 0.0
H1564 H 0.65127 0.2064 0.09813 0.0
H1565 H 0.65835 0.13854 0.114 0.0
H1566 H 0.62111 0.13223 0.09991 0.0
H1567 H 0.59521 0.21125 0.11683 0.0
H1568 H 0.58873 0.22964 0.09197 0.0
H1569 H 0.6155 0.22901 0.10467 0.0
H1570 H 0.63091 0.22231 0.06034 0.0
H1571 H 0.60421 0.22295 0.04752 0.0
H1572 H 0.62115 0.19995 0.0422 0.0
H1573 H 0.58367 0.1331 0.08269 0.0
H1574 H 0.54895 0.14085 0.06244 0.0
H1575 H 0.56636 0.20817 0.05728 0.0
C1576 C 0.64486 0.19026 0.09887 0.0
C1577 C 0.65759 0.17298 0.10744 0.0
C1578 C 0.64879 0.15203 0.10777 0.0
C1579 C 0.62768 0.1483 0.09982 0.0
C1580 C 0.61558 0.16568 0.09148 0.0
C1581 C 0.62385 0.18624 0.0909 0.0
C1582 C 0.60779 0.20195 0.08009 0.0
C1583 C 0.60143 0.21897 0.09956 0.0
C1584 C 0.61654 0.2124 0.05611 0.0
C1585 C 0.58928 0.18696 0.07443 0.0
C1586 C 0.59406 0.16614 0.0813 0.0
C1587 C 0.5797 0.14936 0.07735 0.0
C1588 C 0.56001 0.15394 0.06582 0.0
C1589 C 0.55487 0.17512 0.0583 0.0
C1590 C 0.5697 0.19183 0.06294 0.0
H1591 H 0.71166 0.59769 0.12524 0.0
H1592 H 0.77014 0.63398 0.13841 0.0
H1593 H 0.78949 0.61015 0.10912 0.0
H1594 H 0.73619 0.54559 0.11997 0.0
H1595 H 0.71837 0.53683 0.09545 0.0
H1596 H 0.70932 0.55619 0.11814 0.0
H1597 H 0.69949 0.58251 0.08245 0.0
H1598 H 0.70851 0.56325 0.05965 0.0
H1599 H 0.71965 0.58993 0.0599 0.0
H1600 H 0.80228 0.58286 0.07812 0.0
H1601 H 0.80769 0.55427 0.04691 0.0
H1602 H 0.7405 0.53655 0.05307 0.0
C1603 C 0.7285 0.60083 0.12215 0.0
C1604 C 0.73936 0.61802 0.13414 0.0
C1605 C 0.76151 0.62104 0.12935 0.0
C1606 C 0.77262 0.6076 0.11279 0.0
C1607 C 0.76135 0.59111 0.10109 0.0
C1608 C 0.7398 0.58769 0.10551 0.0
C1609 C 0.73136 0.56913 0.09003 0.0
C1610 C 0.72334 0.55085 0.10691 0.0
C1611 C 0.71371 0.57666 0.07194 0.0
C1612 C 0.75152 0.56273 0.07611 0.0
C1613 C 0.76866 0.57553 0.08291 0.0
C1614 C 0.78899 0.57272 0.07265 0.0
C1615 C 0.79188 0.5564 0.05493 0.0
C1616 C 0.77452 0.54316 0.04749 0.0
C1617 C 0.75408 0.54643 0.05829 0.0
H1618 H 0.36561 0.80046 0.0873 0.0
H1619 H 0.35853 0.86796 0.10531 0.0
H1620 H 0.39458 0.87512 0.08801 0.0
H1621 H 0.42267 0.79631 0.10087 0.0
H1622 H 0.42784 0.77838 0.07511 0.0
H1623 H 0.40194 0.77839 0.09005 0.0
H1624 H 0.38367 0.78546 0.0473 0.0
H1625 H 0.40949 0.78545 0.03224 0.0
H1626 H 0.39192 0.80824 0.0289 0.0
H1627 H 0.43085 0.87511 0.06773 0.0
H1628 H 0.46444 0.86817 0.04475 0.0
H1629 H 0.44773 0.80068 0.03935 0.0
C1630 C 0.37177 0.8167 0.08778 0.0
C1631 C 0.3594 0.83364 0.09787 0.0
C1632 C 0.36783 0.85474 0.09788 0.0
C1633 C 0.38828 0.85895 0.08811 0.0
C1634 C 0.40004 0.8419 0.07831 0.0
C1635 C 0.39209 0.82121 0.078 0.0
C1636 C 0.40766 0.80592 0.0655 0.0
C1637 C 0.41549 0.78874 0.08399 0.0
C1638 C 0.39758 0.79567 0.0421 0.0
C1639 C 0.42552 0.82129 0.05865 0.0
C1640 C 0.42086 0.84193 0.06635 0.0
C1641 C 0.43472 0.85899 0.06169 0.0
C1642 C 0.45378 0.85488 0.04862 0.0
C1643 C 0.45878 0.83388 0.04025 0.0
C1644 C 0.44447 0.81689 0.04558 0.0
H1645 H 0.23704 0.42397 0.17434 0.0
H1646 H 0.30547 0.42243 0.18907 0.0
H1647 H 0.31223 0.44067 0.14882 0.0
H1648 H 0.2399 0.41572 0.10722 0.0
H1649 H 0.21821 0.434 0.10064 0.0
H1650 H 0.21888 0.41972 0.1299 0.0
H1651 H 0.21671 0.45576 0.15399 0.0
H1652 H 0.21603 0.47013 0.12482 0.0
H1653 H 0.23627 0.47638 0.14778 0.0
H1654 H 0.31145 0.45973 0.10742 0.0
H1655 H 0.30317 0.47946 0.0686 0.0
H1656 H 0.23511 0.46971 0.08167 0.0
C1657 C 0.25344 0.42741 0.16902 0.0
C1658 C 0.27075 0.42176 0.1848 0.0
C1659 C 0.29199 0.42656 0.17723 0.0
C1660 C 0.29598 0.43689 0.15442 0.0
C1661 C 0.27855 0.44239 0.13943 0.0
C1662 C 0.25769 0.43789 0.14645 0.0
C1663 C 0.24177 0.4463 0.12743 0.0
C1664 C 0.22894 0.42783 0.1156 0.0
C1665 C 0.22682 0.46315 0.13921 0.0
C1666 C 0.25693 0.45639 0.10871 0.0
C1667 C 0.27807 0.45378 0.11585 0.0
C1668 C 0.29495 0.46185 0.10161 0.0
C1669 C 0.29008 0.47301 0.07957 0.0
C1670 C 0.26849 0.47617 0.07209 0.0
C1671 C 0.25177 0.46761 0.08687 0.0
H1672 H 0.41527 0.29779 0.14017 0.0
H1673 H 0.42277 0.25151 0.20018 0.0
H1674 H 0.44101 0.22683 0.17113 0.0
H1675 H 0.40791 0.26005 0.08897 0.0
H1676 H 0.42366 0.27575 0.06745 0.0
H1677 H 0.40915 0.28881 0.09231 0.0
H1678 H 0.44438 0.30656 0.10769 0.0
H1679 H 0.45899 0.29355 0.08293 0.0
H1680 H 0.46719 0.28991 0.11497 0.0
H1681 H 0.45927 0.2074 0.1355 0.0
H1682 H 0.47823 0.19599 0.09708 0.0
H1683 H 0.46156 0.25635 0.06172 0.0
C1684 C 0.42062 0.2824 0.14717 0.0
C1685 C 0.41746 0.27667 0.17246 0.0
C1686 C 0.4248 0.25637 0.18091 0.0
C1687 C 0.43521 0.24217 0.16452 0.0
C1688 C 0.43839 0.24858 0.13984 0.0
C1689 C 0.43145 0.26829 0.13127 0.0
C1690 C 0.43823 0.27203 0.10445 0.0
C1691 C 0.41856 0.27429 0.08729 0.0
C1692 C 0.45308 0.29167 0.10241 0.0
C1693 C 0.45024 0.25141 0.09931 0.0
C1694 C 0.44984 0.23791 0.11979 0.0
C1695 C 0.45971 0.21785 0.11937 0.0
C1696 C 0.4704 0.2115 0.09748 0.0
C1697 C 0.47146 0.22535 0.07655 0.0
C1698 C 0.46117 0.24551 0.07754 0.0
H1699 H 0.77602 0.3889 0.12779 0.0
H1700 H 0.83326 0.35179 0.11204 0.0
H1701 H 0.84735 0.38168 0.08635 0.0
H1702 H 0.76976 0.4086 0.06775 0.0
H1703 H 0.75972 0.43448 0.0772 0.0
H1704 H 0.75589 0.4116 0.09712 0.0
H1705 H 0.77456 0.43173 0.13359 0.0
H1706 H 0.77847 0.45473 0.11372 0.0
H1707 H 0.80111 0.44254 0.12914 0.0
H1708 H 0.85378 0.41506 0.05976 0.0
H1709 H 0.85044 0.44699 0.03236 0.0
H1710 H 0.78821 0.46075 0.06486 0.0
C1711 C 0.7918 0.38733 0.1195 0.0
C1712 C 0.80384 0.36836 0.12256 0.0
C1713 C 0.82403 0.36645 0.11055 0.0
C1714 C 0.83215 0.38334 0.09592 0.0
C1715 C 0.81978 0.40187 0.09333 0.0
C1716 C 0.79997 0.40385 0.10475 0.0
C1717 C 0.78874 0.42429 0.09714 0.0
C1718 C 0.76727 0.41944 0.08402 0.0
C1719 C 0.78554 0.4392 0.11975 0.0
C1720 C 0.80504 0.43334 0.07914 0.0
C1721 C 0.82305 0.42048 0.07747 0.0
C1722 C 0.83982 0.42533 0.06112 0.0
C1723 C 0.83785 0.4435 0.04571 0.0
C1724 C 0.81907 0.45626 0.04653 0.0
C1725 C 0.80276 0.45129 0.06385 0.0
H1726 H 0.58633 0.80453 0.16309 0.0
H1727 H 0.58152 0.7356 0.17246 0.0
H1728 H 0.56727 0.73228 0.12952 0.0
H1729 H 0.53758 0.81057 0.13099 0.0
H1730 H 0.54691 0.83146 0.11041 0.0
H1731 H 0.55894 0.82818 0.14076 0.0
H1732 H 0.59645 0.82454 0.12026 0.0
H1733 H 0.58452 0.82788 0.08981 0.0
H1734 H 0.60068 0.80457 0.09636 0.0
H1735 H 0.55164 0.73672 0.08646 0.0
H1736 H 0.5346 0.74865 0.0472 0.0
H1737 H 0.54865 0.81487 0.06648 0.0
C1738 C 0.58275 0.7887 0.15583 0.0
C1739 C 0.58567 0.77028 0.17081 0.0
C1740 C 0.58002 0.74988 0.16108 0.0
C1741 C 0.57185 0.74784 0.13673 0.0
C1742 C 0.56921 0.76636 0.12248 0.0
C1743 C 0.57444 0.78641 0.13168 0.0
C1744 C 0.56863 0.80391 0.11327 0.0
C1745 C 0.55203 0.81944 0.12453 0.0
C1746 C 0.58877 0.81593 0.1044 0.0
C1747 C 0.55899 0.79061 0.09241 0.0
C1748 C 0.55967 0.76898 0.09796 0.0
C1749 C 0.55115 0.75361 0.08184 0.0
C1750 C 0.54149 0.76056 0.05957 0.0
C1751 C 0.54028 0.7827 0.05371 0.0
C1752 C 0.54937 0.79783 0.07032 0.0
H1753 H 0.18676 0.65542 0.09607 0.0
H1754 H 0.25273 0.67346 0.11123 0.0
H1755 H 0.26472 0.63727 0.09878 0.0
H1756 H 0.19115 0.59861 0.11543 0.0
H1757 H 0.17398 0.58939 0.09051 0.0
H1758 H 0.17023 0.61579 0.10357 0.0
H1759 H 0.17404 0.63241 0.05941 0.0
H1760 H 0.17787 0.60611 0.04624 0.0
H1761 H 0.19768 0.62672 0.04115 0.0
H1762 H 0.26998 0.60071 0.08122 0.0
H1763 H 0.26836 0.56589 0.05959 0.0
H1764 H 0.19901 0.57138 0.05455 0.0
C1765 C 0.20369 0.65162 0.09707 0.0
C1766 C 0.21885 0.66727 0.10451 0.0
C1767 C 0.24087 0.66173 0.10556 0.0
C1768 C 0.24782 0.64121 0.09858 0.0
C1769 C 0.23255 0.62638 0.09062 0.0
C1770 C 0.21094 0.63125 0.08989 0.0
C1771 C 0.19808 0.61288 0.07885 0.0
C1772 C 0.18244 0.60362 0.09825 0.0
C1773 C 0.18623 0.61996 0.055 0.0
C1774 C 0.21592 0.59713 0.07294 0.0
C1775 C 0.23563 0.60519 0.08018 0.0
C1776 C 0.25463 0.59412 0.07571 0.0
C1777 C 0.25352 0.57435 0.06331 0.0
C1778 C 0.23355 0.56584 0.05538 0.0
C1779 C 0.21449 0.57734 0.06057 0.0
H1780 H 0.39091 0.74757 0.87743 0.0
H1781 H 0.36332 0.81106 0.86904 0.0
H1782 H 0.3951 0.82686 0.88947 0.0
H1783 H 0.41077 0.75629 0.93813 0.0
H1784 H 0.43469 0.74043 0.934 0.0
H1785 H 0.41102 0.73441 0.91607 0.0
H1786 H 0.43285 0.73813 0.87506 0.0
H1787 H 0.45662 0.74424 0.8929 0.0
H1788 H 0.44749 0.76253 0.86907 0.0
H1789 H 0.42894 0.83559 0.91288 0.0
H1790 H 0.46082 0.83636 0.94021 0.0
H1791 H 0.46575 0.76702 0.93476 0.0
C1792 C 0.39182 0.76484 0.87942 0.0
C1793 C 0.37494 0.77809 0.87091 0.0
C1794 C 0.37628 0.80058 0.87471 0.0
C1795 C 0.39428 0.80972 0.88634 0.0
C1796 C 0.41067 0.79617 0.89437 0.0
C1797 C 0.40953 0.77419 0.89124 0.0
C1798 C 0.42838 0.76303 0.90349 0.0
C1799 C 0.42075 0.74764 0.92415 0.0
C1800 C 0.44215 0.75129 0.88396 0.0
C1801 C 0.44016 0.78215 0.91433 0.0
C1802 C 0.42984 0.80113 0.90857 0.0
C1803 C 0.43724 0.82084 0.91735 0.0
C1804 C 0.45541 0.82111 0.93284 0.0
C1805 C 0.46586 0.80177 0.9396 0.0
C1806 C 0.45827 0.78211 0.92979 0.0
H1807 H 0.25068 0.38205 0.90375 0.0
H1808 H 0.19028 0.39312 0.86542 0.0
H1809 H 0.17997 0.41919 0.8982 0.0
H1810 H 0.23145 0.3896 0.96821 0.0
H1811 H 0.25562 0.4034 0.97743 0.0
H1812 H 0.25661 0.38314 0.95338 0.0
H1813 H 0.27398 0.41046 0.92297 0.0
H1814 H 0.27308 0.43072 0.94688 0.0
H1815 H 0.26062 0.4356 0.917 0.0
H1816 H 0.17783 0.44664 0.93317 0.0
H1817 H 0.18498 0.47427 0.96542 0.0
H1818 H 0.24781 0.44654 0.97846 0.0
C1819 C 0.23522 0.38978 0.90212 0.0
C1820 C 0.22151 0.38589 0.88149 0.0
C1821 C 0.20121 0.39613 0.88078 0.0
C1822 C 0.19517 0.41087 0.89938 0.0
C1823 C 0.20954 0.41509 0.91875 0.0
C1824 C 0.22916 0.40482 0.92019 0.0
C1825 C 0.24266 0.41368 0.94133 0.0
C1826 C 0.24682 0.39642 0.96127 0.0
C1827 C 0.26382 0.42318 0.93145 0.0
C1828 C 0.22786 0.43098 0.95112 0.0
C1829 C 0.20861 0.43124 0.93829 0.0
C1830 C 0.19277 0.44644 0.94348 0.0
C1831 C 0.19693 0.46203 0.96186 0.0
C1832 C 0.21694 0.46253 0.9744 0.0
C1833 C 0.23235 0.44653 0.96921 0.0
H1834 H 0.59712 0.26524 0.87281 0.0
H1835 H 0.63291 0.20566 0.8676 0.0
H1836 H 0.60841 0.18902 0.89807 0.0
H1837 H 0.5895 0.26261 0.93854 0.0
H1838 H 0.56306 0.27433 0.93794 0.0
H1839 H 0.58218 0.28098 0.91396 0.0
H1840 H 0.55513 0.26883 0.87995 0.0
H1841 H 0.53592 0.2621 0.90386 0.0
H1842 H 0.54396 0.24217 0.88129 0.0
H1843 H 0.58037 0.17896 0.92963 0.0
H1844 H 0.55275 0.17714 0.96262 0.0
H1845 H 0.53663 0.24392 0.94926 0.0
C1846 C 0.59957 0.2486 0.87784 0.0
C1847 C 0.61657 0.23664 0.86726 0.0
C1848 C 0.61971 0.21506 0.87488 0.0
C1849 C 0.60589 0.20544 0.89224 0.0
C1850 C 0.58924 0.21769 0.90215 0.0
C1851 C 0.58616 0.23886 0.89543 0.0
C1852 C 0.56803 0.24893 0.91017 0.0
C1853 C 0.57619 0.26782 0.9261 0.0
C1854 C 0.54967 0.25591 0.89278 0.0
C1855 C 0.56145 0.23014 0.92634 0.0
C1856 C 0.57369 0.21219 0.92118 0.0
C1857 C 0.57067 0.1929 0.93383 0.0
C1858 C 0.5549 0.19202 0.95248 0.0
C1859 C 0.54256 0.21039 0.95853 0.0
C1860 C 0.54582 0.22962 0.94509 0.0
H1861 H 0.84873 0.63697 0.90083 0.0
H1862 H 0.79674 0.62981 0.84746 0.0
H1863 H 0.78691 0.59526 0.86673 0.0
H1864 H 0.86381 0.58063 0.90113 0.0
H1865 H 0.87037 0.58047 0.93395 0.0
H1866 H 0.87331 0.60477 0.91607 0.0
H1867 H 0.84858 0.62485 0.94723 0.0
H1868 H 0.84564 0.60065 0.96525 0.0
H1869 H 0.82219 0.61436 0.95367 0.0
H1870 H 0.78129 0.56277 0.89337 0.0
H1871 H 0.78156 0.5333 0.92423 0.0
H1872 H 0.8388 0.56 0.95834 0.0
C1873 C 0.83521 0.62814 0.89334 0.0
C1874 C 0.8231 0.63642 0.87319 0.0
C1875 C 0.80588 0.62414 0.86335 0.0
C1876 C 0.80026 0.60442 0.87406 0.0
C1877 C 0.81232 0.59693 0.89415 0.0
C1878 C 0.82958 0.60827 0.90353 0.0
C1879 C 0.84005 0.59649 0.92509 0.0
C1880 C 0.86326 0.59022 0.91866 0.0
C1881 C 0.83904 0.60989 0.94924 0.0
C1882 C 0.82571 0.57692 0.92666 0.0
C1883 C 0.80978 0.57755 0.90869 0.0
C1884 C 0.79385 0.56193 0.90731 0.0
C1885 C 0.7941 0.54531 0.92492 0.0
C1886 C 0.81033 0.54431 0.94341 0.0
C1887 C 0.82647 0.56018 0.94406 0.0
loop_
_geom_bond_atom_site_label_1
_geom_bond_atom_site_label_2
_geom_bond_distance
_geom_bond_site_symmetry_2
_ccdc_geom_bond_type
C0 C1 1.560 . S
C0 H61 0.959 . S
C0 H62 0.959 . S
C0 H63 0.960 . S
C1 C0 1.560 . S
C1 O56 1.426 . S
C1 H60 0.980 . S
C2 C3 1.407 . S
C2 C7 1.418 . S
C2 O56 1.334 . S
C3 C2 1.407 . S
C3 C4 1.360 . S
C3 H64 0.929 . S
C4 C3 1.360 . S
C4 C5 1.401 . S
C4 C8 1.527 . S
C5 C4 1.401 . S
C5 C6 1.405 . S
C5 C38 1.587 . S
C6 C5 1.405 . S
C6 C7 1.332 . S
C6 C9 1.496 . S
C7 C2 1.418 . S
C7 C6 1.332 . S
C7 H65 0.929 . S
C8 C4 1.527 . S
C8 H66 0.959 . S
C8 H67 0.961 . S
C8 H68 0.961 . S
C9 C6 1.496 . S
C9 H69 0.960 . S
C9 H70 0.960 . S
C9 H71 0.961 . S
C10 C11 1.517 . S
C10 H73 0.961 . S
C10 H74 0.960 . S
C10 H75 0.959 . S
C11 C10 1.517 . S
C11 O59 1.468 . S
C11 H72 0.980 . S
C12 C13 1.349 . S
C12 C17 1.367 . S
C12 O59 1.408 . S
C13 C12 1.349 . S
C13 C14 1.407 . S
C13 H76 0.930 . S
C14 C13 1.407 . S
C14 C15 1.449 . S
C14 C18 1.535 . S
C15 C14 1.449 . S
C15 C16 1.384 . S
C15 C40 1.553 . S
C16 C15 1.384 . S
C16 C17 1.364 . S
C16 C19 1.450 . S
C17 C12 1.367 . S
C17 C16 1.364 . S
C17 H77 0.931 . S
C18 C14 1.535 . S
C18 H78 0.959 . S
C18 H79 0.961 . S
C18 H80 0.959 . S
C19 C16 1.450 . S
C19 H81 0.960 . S
C19 H82 0.960 . S
C19 H83 0.960 . S
C20 C21 1.309 . S
C20 C25 1.304 . S
C20 O58 1.435 . S
C21 C20 1.309 . S
C21 C22 1.476 . S
C21 H85 0.930 . S
C22 C21 1.476 . S
C22 C23 1.400 . S
C22 C26 1.567 . S
C23 C22 1.400 . S
C23 C24 1.373 . S
C23 C45 1.432 . S
C24 C23 1.373 . S
C24 C25 1.339 . S
C24 C27 1.530 . S
C25 C20 1.304 . S
C25 C24 1.339 . S
C25 H86 0.930 . S
C26 C22 1.567 . S
C26 H87 0.961 . S
C26 H88 0.960 . S
C26 H89 0.958 . S
C27 C24 1.530 . S
C27 H90 0.961 . S
C27 H91 0.960 . S
C27 H92 0.960 . S
C28 C29 1.530 . S
C28 H94 0.961 . S
C28 H95 0.961 . S
C28 H96 0.959 . S
C29 C28 1.530 . S
C29 O57 1.412 . S
C29 H93 0.980 . S
C30 C31 1.288 . S
C30 C35 1.377 . S
C30 O57 1.393 . S
C31 C30 1.288 . S
C31 C32 1.369 . S
C31 H97 0.932 . S
C32 C31 1.369 . S
C32 C33 1.398 . S
C32 C36 1.527 . S
C33 C32 1.398 . S
C33 C34 1.380 . S
C33 C47 1.497 . S
C34 C33 1.380 . S
C34 C35 1.383 . S
C34 C37 1.603 . S
C35 C30 1.377 . S
C35 C34 1.383 . S
C35 H98 0.929 . S
C36 C32 1.527 . S
C36 H99 0.961 . S
C36 H100 0.959 . S
C36 H101 0.959 . S
C37 C34 1.603 . S
C37 H102 0.960 . S
C37 H103 0.962 . S
C37 H104 0.961 . S
C38 C5 1.587 . S
C38 C39 1.360 . S
C38 C51 1.412 . S
C39 C38 1.360 . S
C39 C40 1.365 . S
C39 H105 0.929 . S
C40 C15 1.553 . S
C40 C39 1.365 . S
C40 C41 1.404 . S
C41 C40 1.404 . S
C41 C42 1.395 . S
C41 C52 1.451 . S
C42 C41 1.395 . S
C42 C43 1.322 . S
C42 H106 0.930 . S
C43 C42 1.322 . S
C43 C44 1.459 . S
C43 H107 0.929 . S
C44 C43 1.459 . S
C44 C45 1.445 . S
C44 C53 1.395 . S
C45 C23 1.432 . S
C45 C44 1.445 . S
C45 C46 1.370 . S
C46 C45 1.370 . S
C46 C47 1.438 . S
C46 H108 0.930 . S
C47 C33 1.497 . S
C47 C46 1.438 . S
C47 C48 1.360 . S
C48 C47 1.360 . S
C48 C49 1.401 . S
C48 C53 1.446 . S
C49 C48 1.401 . S
C49 C50 1.347 . S
C49 H109 0.929 . S
C50 C49 1.347 . S
C50 C51 1.455 . S
C50 H110 0.930 . S
C51 C38 1.412 . S
C51 C50 1.455 . S
C51 C52 1.331 . S
C52 C41 1.451 . S
C52 C51 1.331 . S
C52 C53 1.497 . S
C53 C44 1.395 . S
C53 C48 1.446 . S
C53 C52 1.497 . S
C54 C55 1.582 . S
C54 H111 0.962 . S
C54 H112 0.959 . S
C54 H113 0.958 . S
C55 C54 1.582 . S
C55 O58 1.458 . S
C55 H84 0.980 . S
O56 C1 1.426 . S
O56 C2 1.334 . S
O57 C29 1.412 . S
O57 C30 1.393 . S
O58 C20 1.435 . S
O58 C55 1.458 . S
O59 C11 1.468 . S
O59 C12 1.408 . S
H60 C1 0.980 . S
H61 C0 0.959 . S
H62 C0 0.959 . S
H63 C0 0.960 . S
H64 C3 0.929 . S
H65 C7 0.929 . S
H66 C8 0.959 . S
H67 C8 0.961 . S
H68 C8 0.961 . S
H69 C9 0.960 . S
H70 C9 0.960 . S
H71 C9 0.961 . S
H72 C11 0.980 . S
H73 C10 0.961 . S
H74 C10 0.960 . S
H75 C10 0.959 . S
H76 C13 0.930 . S
H77 C17 0.931 . S
H78 C18 0.959 . S
H79 C18 0.961 . S
H80 C18 0.959 . S
H81 C19 0.960 . S
H82 C19 0.960 . S
H83 C19 0.960 . S
H84 C55 0.980 . S
H85 C21 0.930 . S
H86 C25 0.930 . S
H87 C26 0.961 . S
H88 C26 0.960 . S
H89 C26 0.958 . S
H90 C27 0.961 . S
H91 C27 0.960 . S
H92 C27 0.960 . S
H93 C29 0.980 . S
H94 C28 0.961 . S
H95 C28 0.961 . S
H96 C28 0.959 . S
H97 C31 0.932 . S
H98 C35 0.929 . S
H99 C36 0.961 . S
H100 C36 0.959 . S
H101 C36 0.959 . S
H102 C37 0.960 . S
H103 C37 0.962 . S
H104 C37 0.961 . S
H105 C39 0.929 . S
H106 C42 0.930 . S
H107 C43 0.929 . S
H108 C46 0.930 . S
H109 C49 0.929 . S
H110 C50 0.930 . S
H111 C54 0.962 . S
H112 C54 0.959 . S
H113 C54 0.958 . S
C114 C115 1.560 . S
C114 H175 0.959 . S
C114 H176 0.959 . S
C114 H177 0.960 . S
C115 C114 1.560 . S
C115 O170 1.426 . S
C115 H174 0.980 . S
C116 C117 1.407 . S
C116 C121 1.418 . S
C116 O170 1.334 . S
C117 C116 1.407 . S
C117 C118 1.360 . S
C117 H178 0.929 . S
C118 C117 1.360 . S
C118 C119 1.401 . S
C118 C122 1.527 . S
C119 C118 1.401 . S
C119 C120 1.405 . S
C119 C152 1.587 . S
C120 C119 1.405 . S
C120 C121 1.332 . S
C120 C123 1.496 . S
C121 C116 1.418 . S
C121 C120 1.332 . S
C121 H179 0.929 . S
C122 C118 1.527 . S
C122 H180 0.959 . S
C122 H181 0.961 . S
C122 H182 0.961 . S
C123 C120 1.496 . S
C123 H183 0.960 . S
C123 H184 0.960 . S
C123 H185 0.961 . S
C124 C125 1.517 . S
C124 H187 0.961 . S
C124 H188 0.960 . S
C124 H189 0.959 . S
C125 C124 1.517 . S
C125 O173 1.468 . S
C125 H186 0.980 . S
C126 C127 1.349 . S
C126 C131 1.367 . S
C126 O173 1.408 . S
C127 C126 1.349 . S
C127 C128 1.407 . S
C127 H190 0.930 . S
C128 C127 1.407 . S
C128 C129 1.449 . S
C128 C132 1.535 . S
C129 C128 1.449 . S
C129 C130 1.384 . S
C129 C154 1.553 . S
C130 C129 1.384 . S
C130 C131 1.364 . S
C130 C133 1.450 . S
C131 C126 1.367 . S
C131 C130 1.364 . S
C131 H191 0.931 . S
C132 C128 1.535 . S
C132 H192 0.959 . S
C132 H193 0.961 . S
C132 H194 0.959 . S
C133 C130 1.450 . S
C133 H195 0.960 . S
C133 H196 0.960 . S
C133 H197 0.960 . S
C134 C135 1.309 . S
C134 C139 1.304 . S
C134 O172 1.435 . S
C135 C134 1.309 . S
C135 C136 1.476 . S
C135 H199 0.930 . S
C136 C135 1.476 . S
C136 C137 1.400 . S
C136 C140 1.567 . S
C137 C136 1.400 . S
C137 C138 1.373 . S
C137 C159 1.432 . S
C138 C137 1.373 . S
C138 C139 1.339 . S
C138 C141 1.530 . S
C139 C134 1.304 . S
C139 C138 1.339 . S
C139 H200 0.930 . S
C140 C136 1.567 . S
C140 H201 0.961 . S
C140 H202 0.960 . S
C140 H203 0.958 . S
C141 C138 1.530 . S
C141 H204 0.961 . S
C141 H205 0.960 . S
C141 H206 0.960 . S
C142 C143 1.530 . S
C142 H208 0.961 . S
C142 H209 0.961 . S
C142 H210 0.959 . S
C143 C142 1.530 . S
C143 O171 1.412 . S
C143 H207 0.980 . S
C144 C145 1.288 . S
C144 C149 1.377 . S
C144 O171 1.393 . S
C145 C144 1.288 . S
C145 C146 1.369 . S
C145 H211 0.932 . S
C146 C145 1.369 . S
C146 C147 1.398 . S
C146 C150 1.527 . S
C147 C146 1.398 . S
C147 C148 1.380 . S
C147 C161 1.497 . S
C148 C147 1.380 . S
C148 C149 1.383 . S
C148 C151 1.603 . S
C149 C144 1.377 . S
C149 C148 1.383 . S
C149 H212 0.929 . S
C150 C146 1.527 . S
C150 H213 0.961 . S
C150 H214 0.959 . S
C150 H215 0.959 . S
C151 C148 1.603 . S
C151 H216 0.960 . S
C151 H217 0.962 . S
C151 H218 0.961 . S
C152 C119 1.587 . S
C152 C153 1.360 . S
C152 C165 1.412 . S
C153 C152 1.360 . S
C153 C154 1.365 . S
C153 H219 0.929 . S
C154 C129 1.553 . S
C154 C153 1.365 . S
C154 C155 1.404 . S
C155 C154 1.404 . S
C155 C156 1.395 . S
C155 C166 1.451 . S
C156 C155 1.395 . S
C156 C157 1.322 . S
C156 H220 0.930 . S
C157 C156 1.322 . S
C157 C158 1.459 . S
C157 H221 0.929 . S
C158 C157 1.459 . S
C158 C159 1.445 . S
C158 C167 1.395 . S
C159 C137 1.432 . S
C159 C158 1.445 . S
C159 C160 1.370 . S
C160 C159 1.370 . S
C160 C161 1.438 . S
C160 H222 0.930 . S
C161 C147 1.497 . S
C161 C160 1.438 . S
C161 C162 1.360 . S
C162 C161 1.360 . S
C162 C163 1.401 . S
C162 C167 1.446 . S
C163 C162 1.401 . S
C163 C164 1.347 . S
C163 H223 0.929 . S
C164 C163 1.347 . S
C164 C165 1.455 . S
C164 H224 0.930 . S
C165 C152 1.412 . S
C165 C164 1.455 . S
C165 C166 1.331 . S
C166 C155 1.451 . S
C166 C165 1.331 . S
C166 C167 1.497 . S
C167 C158 1.395 . S
C167 C162 1.446 . S
C167 C166 1.497 . S
C168 C169 1.582 . S
C168 H225 0.962 . S
C168 H226 0.959 . S
C168 H227 0.958 . S
C169 C168 1.582 . S
C169 O172 1.458 . S
C169 H198 0.980 . S
O170 C115 1.426 . S
O170 C116 1.334 . S
O171 C143 1.412 . S
O171 C144 1.393 . S
O172 C134 1.435 . S
O172 C169 1.458 . S
O173 C125 1.468 . S
O173 C126 1.408 . S
H174 C115 0.980 . S
H175 C114 0.959 . S
H176 C114 0.959 . S
H177 C114 0.960 . S
H178 C117 0.929 . S
H179 C121 0.929 . S
H180 C122 0.959 . S
H181 C122 0.961 . S
H182 C122 0.961 . S
H183 C123 0.960 . S
H184 C123 0.960 . S
H185 C123 0.961 . S
H186 C125 0.980 . S
H187 C124 0.961 . S
H188 C124 0.960 . S
H189 C124 0.959 . S
H190 C127 0.930 . S
H191 C131 0.931 . S
H192 C132 0.959 . S
H193 C132 0.961 . S
H194 C132 0.959 . S
H195 C133 0.960 . S
H196 C133 0.960 . S
H197 C133 0.960 . S
H198 C169 0.980 . S
H199 C135 0.930 . S
H200 C139 0.930 . S
H201 C140 0.961 . S
H202 C140 0.960 . S
H203 C140 0.958 . S
H204 C141 0.961 . S
H205 C141 0.960 . S
H206 C141 0.960 . S
H207 C143 0.980 . S
H208 C142 0.961 . S
H209 C142 0.961 . S
H210 C142 0.959 . S
H211 C145 0.932 . S
H212 C149 0.929 . S
H213 C150 0.961 . S
H214 C150 0.959 . S
H215 C150 0.959 . S
H216 C151 0.960 . S
H217 C151 0.962 . S
H218 C151 0.961 . S
H219 C153 0.929 . S
H220 C156 0.930 . S
H221 C157 0.929 . S
H222 C160 0.930 . S
H223 C163 0.929 . S
H224 C164 0.930 . S
H225 C168 0.962 . S
H226 C168 0.959 . S
H227 C168 0.958 . S
C228 C229 1.560 . S
C228 H289 0.959 . S
C228 H290 0.959 . S
C228 H291 0.960 . S
C229 C228 1.560 . S
C229 O284 1.426 . S
C229 H288 0.980 . S
C230 C231 1.407 . S
C230 C235 1.418 . S
C230 O284 1.334 . S
C231 C230 1.407 . S
C231 C232 1.360 . S
C231 H292 0.929 . S
C232 C231 1.360 . S
C232 C233 1.401 . S
C232 C236 1.527 . S
C233 C232 1.401 . S
C233 C234 1.405 . S
C233 C266 1.587 . S
C234 C233 1.405 . S
C234 C235 1.332 . S
C234 C237 1.496 . S
C235 C230 1.418 . S
C235 C234 1.332 . S
C235 H293 0.929 . S
C236 C232 1.527 . S
C236 H294 0.959 . S
C236 H295 0.961 . S
C236 H296 0.961 . S
C237 C234 1.496 . S
C237 H297 0.960 . S
C237 H298 0.960 . S
C237 H299 0.961 . S
C238 C239 1.517 . S
C238 H301 0.961 . S
C238 H302 0.960 . S
C238 H303 0.959 . S
C239 C238 1.517 . S
C239 O287 1.468 . S
C239 H300 0.980 . S
C240 C241 1.349 . S
C240 C245 1.367 . S
C240 O287 1.408 . S
C241 C240 1.349 . S
C241 C242 1.407 . S
C241 H304 0.930 . S
C242 C241 1.407 . S
C242 C243 1.449 . S
C242 C246 1.535 . S
C243 C242 1.449 . S
C243 C244 1.384 . S
C243 C268 1.553 . S
C244 C243 1.384 . S
C244 C245 1.364 . S
C244 C247 1.450 . S
C245 C240 1.367 . S
C245 C244 1.364 . S
C245 H305 0.931 . S
C246 C242 1.535 . S
C246 H306 0.959 . S
C246 H307 0.961 . S
C246 H308 0.959 . S
C247 C244 1.450 . S
C247 H309 0.960 . S
C247 H310 0.960 . S
C247 H311 0.960 . S
C248 C249 1.309 . S
C248 C253 1.304 . S
C248 O286 1.435 . S
C249 C248 1.309 . S
C249 C250 1.476 . S
C249 H313 0.930 . S
C250 C249 1.476 . S
C250 C251 1.400 . S
C250 C254 1.567 . S
C251 C250 1.400 . S
C251 C252 1.373 . S
C251 C273 1.432 . S
C252 C251 1.373 . S
C252 C253 1.339 . S
C252 C255 1.530 . S
C253 C248 1.304 . S
C253 C252 1.339 . S
C253 H314 0.930 . S
C254 C250 1.567 . S
C254 H315 0.961 . S
C254 H316 0.960 . S
C254 H317 0.958 . S
C255 C252 1.530 . S
C255 H318 0.961 . S
C255 H319 0.960 . S
C255 H320 0.960 . S
C256 C257 1.530 . S
C256 H322 0.961 . S
C256 H323 0.961 . S
C256 H324 0.959 . S
C257 C256 1.530 . S
C257 O285 1.412 . S
C257 H321 0.980 . S
C258 C259 1.288 . S
C258 C263 1.377 . S
C258 O285 1.393 . S
C259 C258 1.288 . S
C259 C260 1.369 . S
C259 H325 0.932 . S
C260 C259 1.369 . S
C260 C261 1.398 . S
C260 C264 1.527 . S
C261 C260 1.398 . S
C261 C262 1.380 . S
C261 C275 1.497 . S
C262 C261 1.380 . S
C262 C263 1.383 . S
C262 C265 1.603 . S
C263 C258 1.377 . S
C263 C262 1.383 . S
C263 H326 0.929 . S
C264 C260 1.527 . S
C264 H327 0.961 . S
C264 H328 0.959 . S
C264 H329 0.959 . S
C265 C262 1.603 . S
C265 H330 0.960 . S
C265 H331 0.962 . S
C265 H332 0.961 . S
C266 C233 1.587 . S
C266 C267 1.360 . S
C266 C279 1.412 . S
C267 C266 1.360 . S
C267 C268 1.365 . S
C267 H333 0.929 . S
C268 C243 1.553 . S
C268 C267 1.365 . S
C268 C269 1.404 . S
C269 C268 1.404 . S
C269 C270 1.395 . S
C269 C280 1.451 . S
C270 C269 1.395 . S
C270 C271 1.322 . S
C270 H334 0.930 . S
C271 C270 1.322 . S
C271 C272 1.459 . S
C271 H335 0.929 . S
C272 C271 1.459 . S
C272 C273 1.445 . S
C272 C281 1.395 . S
C273 C251 1.432 . S
C273 C272 1.445 . S
C273 C274 1.370 . S
C274 C273 1.370 . S
C274 C275 1.438 . S
C274 H336 0.930 . S
C275 C261 1.497 . S
C275 C274 1.438 . S
C275 C276 1.360 . S
C276 C275 1.360 . S
C276 C277 1.401 . S
C276 C281 1.446 . S
C277 C276 1.401 . S
C277 C278 1.347 . S
C277 H337 0.929 . S
C278 C277 1.347 . S
C278 C279 1.455 . S
C278 H338 0.930 . S
C279 C266 1.412 . S
C279 C278 1.455 . S
C279 C280 1.331 . S
C280 C269 1.451 . S
C280 C279 1.331 . S
C280 C281 1.497 . S
C281 C272 1.395 . S
C281 C276 1.446 . S
C281 C280 1.497 . S
C282 C283 1.582 . S
C282 H339 0.962 . S
C282 H340 0.959 . S
C282 H341 0.958 . S
C283 C282 1.582 . S
C283 O286 1.458 . S
C283 H312 0.980 . S
O284 C229 1.426 . S
O284 C230 1.334 . S
O285 C257 1.412 . S
O285 C258 1.393 . S
O286 C248 1.435 . S
O286 C283 1.458 . S
O287 C239 1.468 . S
O287 C240 1.408 . S
H288 C229 0.980 . S
H289 C228 0.959 . S
H290 C228 0.959 . S
H291 C228 0.960 . S
H292 C231 0.929 . S
H293 C235 0.929 . S
H294 C236 0.959 . S
H295 C236 0.961 . S
H296 C236 0.961 . S
H297 C237 0.960 . S
H298 C237 0.960 . S
H299 C237 0.961 . S
H300 C239 0.980 . S
H301 C238 0.961 . S
H302 C238 0.960 . S
H303 C238 0.959 . S
H304 C241 0.930 . S
H305 C245 0.931 . S
H306 C246 0.959 . S
H307 C246 0.961 . S
H308 C246 0.959 . S
H309 C247 0.960 . S
H310 C247 0.960 . S
H311 C247 0.960 . S
H312 C283 0.980 . S
H313 C249 0.930 . S
H314 C253 0.930 . S
H315 C254 0.961 . S
H316 C254 0.960 . S
H317 C254 0.958 . S
H318 C255 0.961 . S
H319 C255 0.960 . S
H320 C255 0.960 . S
H321 C257 0.980 . S
H322 C256 0.961 . S
H323 C256 0.961 . S
H324 C256 0.959 . S
H325 C259 0.932 . S
H326 C263 0.929 . S
H327 C264 0.961 . S
H328 C264 0.959 . S
H329 C264 0.959 . S
H330 C265 0.960 . S
H331 C265 0.962 . S
H332 C265 0.961 . S
H333 C267 0.929 . S
H334 C270 0.930 . S
H335 C271 0.929 . S
H336 C274 0.930 . S
H337 C277 0.929 . S
H338 C278 0.930 . S
H339 C282 0.962 . S
H340 C282 0.959 . S
H341 C282 0.958 . S
C342 C343 1.560 . S
C342 H403 0.959 . S
C342 H404 0.959 . S
C342 H405 0.960 . S
C343 C342 1.560 . S
C343 O398 1.426 . S
C343 H402 0.980 . S
C344 C345 1.407 . S
C344 C349 1.418 . S
C344 O398 1.334 . S
C345 C344 1.407 . S
C345 C346 1.360 . S
C345 H406 0.929 . S
C346 C345 1.360 . S
C346 C347 1.401 . S
C346 C350 1.527 . S
C347 C346 1.401 . S
C347 C348 1.405 . S
C347 C380 1.587 . S
C348 C347 1.405 . S
C348 C349 1.332 . S
C348 C351 1.496 . S
C349 C344 1.418 . S
C349 C348 1.332 . S
C349 H407 0.929 . S
C350 C346 1.527 . S
C350 H408 0.959 . S
C350 H409 0.961 . S
C350 H410 0.961 . S
C351 C348 1.496 . S
C351 H411 0.960 . S
C351 H412 0.960 . S
C351 H413 0.961 . S
C352 C353 1.517 . S
C352 H415 0.961 . S
C352 H416 0.960 . S
C352 H417 0.959 . S
C353 C352 1.517 . S
C353 O401 1.468 . S
C353 H414 0.980 . S
C354 C355 1.349 . S
C354 C359 1.367 . S
C354 O401 1.408 . S
C355 C354 1.349 . S
C355 C356 1.407 . S
C355 H418 0.930 . S
C356 C355 1.407 . S
C356 C357 1.449 . S
C356 C360 1.535 . S
C357 C356 1.449 . S
C357 C358 1.384 . S
C357 C382 1.553 . S
C358 C357 1.384 . S
C358 C359 1.364 . S
C358 C361 1.450 . S
C359 C354 1.367 . S
C359 C358 1.364 . S
C359 H419 0.931 . S
C360 C356 1.535 . S
C360 H420 0.959 . S
C360 H421 0.961 . S
C360 H422 0.959 . S
C361 C358 1.450 . S
C361 H423 0.960 . S
C361 H424 0.960 . S
C361 H425 0.960 . S
C362 C363 1.309 . S
C362 C367 1.304 . S
C362 O400 1.435 . S
C363 C362 1.309 . S
C363 C364 1.476 . S
C363 H427 0.930 . S
C364 C363 1.476 . S
C364 C365 1.400 . S
C364 C368 1.567 . S
C365 C364 1.400 . S
C365 C366 1.373 . S
C365 C387 1.432 . S
C366 C365 1.373 . S
C366 C367 1.339 . S
C366 C369 1.530 . S
C367 C362 1.304 . S
C367 C366 1.339 . S
C367 H428 0.930 . S
C368 C364 1.567 . S
C368 H429 0.961 . S
C368 H430 0.960 . S
C368 H431 0.958 . S
C369 C366 1.530 . S
C369 H432 0.961 . S
C369 H433 0.960 . S
C369 H434 0.960 . S
C370 C371 1.530 . S
C370 H436 0.961 . S
C370 H437 0.961 . S
C370 H438 0.959 . S
C371 C370 1.530 . S
C371 O399 1.412 . S
C371 H435 0.980 . S
C372 C373 1.288 . S
C372 C377 1.377 . S
C372 O399 1.393 . S
C373 C372 1.288 . S
C373 C374 1.369 . S
C373 H439 0.932 . S
C374 C373 1.369 . S
C374 C375 1.398 . S
C374 C378 1.527 . S
C375 C374 1.398 . S
C375 C376 1.380 . S
C375 C389 1.497 . S
C376 C375 1.380 . S
C376 C377 1.383 . S
C376 C379 1.603 . S
C377 C372 1.377 . S
C377 C376 1.383 . S
C377 H440 0.929 . S
C378 C374 1.527 . S
C378 H441 0.961 . S
C378 H442 0.959 . S
C378 H443 0.959 . S
C379 C376 1.603 . S
C379 H444 0.960 . S
C379 H445 0.962 . S
C379 H446 0.961 . S
C380 C347 1.587 . S
C380 C381 1.360 . S
C380 C393 1.412 . S
C381 C380 1.360 . S
C381 C382 1.365 . S
C381 H447 0.929 . S
C382 C357 1.553 . S
C382 C381 1.365 . S
C382 C383 1.404 . S
C383 C382 1.404 . S
C383 C384 1.395 . S
C383 C394 1.451 . S
C384 C383 1.395 . S
C384 C385 1.322 . S
C384 H448 0.930 . S
C385 C384 1.322 . S
C385 C386 1.459 . S
C385 H449 0.929 . S
C386 C385 1.459 . S
C386 C387 1.445 . S
C386 C395 1.395 . S
C387 C365 1.432 . S
C387 C386 1.445 . S
C387 C388 1.370 . S
C388 C387 1.370 . S
C388 C389 1.438 . S
C388 H450 0.930 . S
C389 C375 1.497 . S
C389 C388 1.438 . S
C389 C390 1.360 . S
C390 C389 1.360 . S
C390 C391 1.401 . S
C390 C395 1.446 . S
C391 C390 1.401 . S
C391 C392 1.347 . S
C391 H451 0.929 . S
C392 C391 1.347 . S
C392 C393 1.455 . S
C392 H452 0.930 . S
C393 C380 1.412 . S
C393 C392 1.455 . S
C393 C394 1.331 . S
C394 C383 1.451 . S
C394 C393 1.331 . S
C394 C395 1.497 . S
C395 C386 1.395 . S
C395 C390 1.446 . S
C395 C394 1.497 . S
C396 C397 1.582 . S
C396 H453 0.962 . S
C396 H454 0.959 . S
C396 H455 0.958 . S
C397 C396 1.582 . S
C397 O400 1.458 . S
C397 H426 0.980 . S
O398 C343 1.426 . S
O398 C344 1.334 . S
O399 C371 1.412 . S
O399 C372 1.393 . S
O400 C362 1.435 . S
O400 C397 1.458 . S
O401 C353 1.468 . S
O401 C354 1.408 . S
H402 C343 0.980 . S
H403 C342 0.959 . S
H404 C342 0.959 . S
H405 C342 0.960 . S
H406 C345 0.929 . S
H407 C349 0.929 . S
H408 C350 0.959 . S
H409 C350 0.961 . S
H410 C350 0.961 . S
H411 C351 0.960 . S
H412 C351 0.960 . S
H413 C351 0.961 . S
H414 C353 0.980 . S
H415 C352 0.961 . S
H416 C352 0.960 . S
H417 C352 0.959 . S
H418 C355 0.930 . S
H419 C359 0.931 . S
H420 C360 0.959 . S
H421 C360 0.961 . S
H422 C360 0.959 . S
H423 C361 0.960 . S
H424 C361 0.960 . S
H425 C361 0.960 . S
H426 C397 0.980 . S
H427 C363 0.930 . S
H428 C367 0.930 . S
H429 C368 0.961 . S
H430 C368 0.960 . S
H431 C368 0.958 . S
H432 C369 0.961 . S
H433 C369 0.960 . S
H434 C369 0.960 . S
H435 C371 0.980 . S
H436 C370 0.961 . S
H437 C370 0.961 . S
H438 C370 0.959 . S
H439 C373 0.932 . S
H440 C377 0.929 . S
H441 C378 0.961 . S
H442 C378 0.959 . S
H443 C378 0.959 . S
H444 C379 0.960 . S
H445 C379 0.962 . S
H446 C379 0.961 . S
H447 C381 0.929 . S
H448 C384 0.930 . S
H449 C385 0.929 . S
H450 C388 0.930 . S
H451 C391 0.929 . S
H452 C392 0.930 . S
H453 C396 0.962 . S
H454 C396 0.959 . S
H455 C396 0.958 . S
C456 C457 1.560 . S
C456 H517 0.959 . S
C456 H518 0.959 . S
C456 H519 0.960 . S
C457 C456 1.560 . S
C457 O512 1.426 . S
C457 H516 0.980 . S
C458 C459 1.407 . S
C458 C463 1.418 . S
C458 O512 1.334 . S
C459 C458 1.407 . S
C459 C460 1.360 . S
C459 H520 0.929 . S
C460 C459 1.360 . S
C460 C461 1.401 . S
C460 C464 1.527 . S
C461 C460 1.401 . S
C461 C462 1.405 . S
C461 C494 1.587 . S
C462 C461 1.405 . S
C462 C463 1.332 . S
C462 C465 1.496 . S
C463 C458 1.418 . S
C463 C462 1.332 . S
C463 H521 0.929 . S
C464 C460 1.527 . S
C464 H522 0.959 . S
C464 H523 0.961 . S
C464 H524 0.961 . S
C465 C462 1.496 . S
C465 H525 0.960 . S
C465 H526 0.960 . S
C465 H527 0.961 . S
C466 C467 1.517 . S
C466 H529 0.961 . S
C466 H530 0.960 . S
C466 H531 0.959 . S
C467 C466 1.517 . S
C467 O515 1.468 . S
C467 H528 0.980 . S
C468 C469 1.349 . S
C468 C473 1.367 . S
C468 O515 1.408 . S
C469 C468 1.349 . S
C469 C470 1.407 . S
C469 H532 0.930 . S
C470 C469 1.407 . S
C470 C471 1.449 . S
C470 C474 1.535 . S
C471 C470 1.449 . S
C471 C472 1.384 . S
C471 C496 1.553 . S
C472 C471 1.384 . S
C472 C473 1.364 . S
C472 C475 1.450 . S
C473 C468 1.367 . S
C473 C472 1.364 . S
C473 H533 0.931 . S
C474 C470 1.535 . S
C474 H534 0.959 . S
C474 H535 0.961 . S
C474 H536 0.959 . S
C475 C472 1.450 . S
C475 H537 0.960 . S
C475 H538 0.960 . S
C475 H539 0.960 . S
C476 C477 1.309 . S
C476 C481 1.304 . S
C476 O514 1.435 . S
C477 C476 1.309 . S
C477 C478 1.476 . S
C477 H541 0.930 . S
C478 C477 1.476 . S
C478 C479 1.400 . S
C478 C482 1.567 . S
C479 C478 1.400 . S
C479 C480 1.373 . S
C479 C501 1.432 . S
C480 C479 1.373 . S
C480 C481 1.339 . S
C480 C483 1.530 . S
C481 C476 1.304 . S
C481 C480 1.339 . S
C481 H542 0.930 . S
C482 C478 1.567 . S
C482 H543 0.961 . S
C482 H544 0.960 . S
C482 H545 0.958 . S
C483 C480 1.530 . S
C483 H546 0.961 . S
C483 H547 0.960 . S
C483 H548 0.960 . S
C484 C485 1.530 . S
C484 H550 0.961 . S
C484 H551 0.961 . S
C484 H552 0.959 . S
C485 C484 1.530 . S
C485 O513 1.412 . S
C485 H549 0.980 . S
C486 C487 1.288 . S
C486 C491 1.377 . S
C486 O513 1.393 . S
C487 C486 1.288 . S
C487 C488 1.369 . S
C487 H553 0.932 . S
C488 C487 1.369 . S
C488 C489 1.398 . S
C488 C492 1.527 . S
C489 C488 1.398 . S
C489 C490 1.380 . S
C489 C503 1.497 . S
C490 C489 1.380 . S
C490 C491 1.383 . S
C490 C493 1.603 . S
C491 C486 1.377 . S
C491 C490 1.383 . S
C491 H554 0.929 . S
C492 C488 1.527 . S
C492 H555 0.961 . S
C492 H556 0.959 . S
C492 H557 0.959 . S
C493 C490 1.603 . S
C493 H558 0.960 . S
C493 H559 0.962 . S
C493 H560 0.961 . S
C494 C461 1.587 . S
C494 C495 1.360 . S
C494 C507 1.412 . S
C495 C494 1.360 . S
C495 C496 1.365 . S
C495 H561 0.929 . S
C496 C471 1.553 . S
C496 C495 1.365 . S
C496 C497 1.404 . S
C497 C496 1.404 . S
C497 C498 1.395 . S
C497 C508 1.451 . S
C498 C497 1.395 . S
C498 C499 1.322 . S
C498 H562 0.930 . S
C499 C498 1.322 . S
C499 C500 1.459 . S
C499 H563 0.929 . S
C500 C499 1.459 . S
C500 C501 1.445 . S
C500 C509 1.395 . S
C501 C479 1.432 . S
C501 C500 1.445 . S
C501 C502 1.370 . S
C502 C501 1.370 . S
C502 C503 1.438 . S
C502 H564 0.930 . S
C503 C489 1.497 . S
C503 C502 1.438 . S
C503 C504 1.360 . S
C504 C503 1.360 . S
C504 C505 1.401 . S
C504 C509 1.446 . S
C505 C504 1.401 . S
C505 C506 1.347 . S
C505 H565 0.929 . S
C506 C505 1.347 . S
C506 C507 1.455 . S
C506 H566 0.930 . S
C507 C494 1.412 . S
C507 C506 1.455 . S
C507 C508 1.331 . S
C508 C497 1.451 . S
C508 C507 1.331 . S
C508 C509 1.497 . S
C509 C500 1.395 . S
C509 C504 1.446 . S
C509 C508 1.497 . S
C510 C511 1.582 . S
C510 H567 0.962 . S
C510 H568 0.959 . S
C510 H569 0.958 . S
C511 C510 1.582 . S
C511 O514 1.458 . S
C511 H540 0.980 . S
O512 C457 1.426 . S
O512 C458 1.334 . S
O513 C485 1.412 . S
O513 C486 1.393 . S
O514 C476 1.435 . S
O514 C511 1.458 . S
O515 C467 1.468 . S
O515 C468 1.408 . S
H516 C457 0.980 . S
H517 C456 0.959 . S
H518 C456 0.959 . S
H519 C456 0.960 . S
H520 C459 0.929 . S
H521 C463 0.929 . S
H522 C464 0.959 . S
H523 C464 0.961 . S
H524 C464 0.961 . S
H525 C465 0.960 . S
H526 C465 0.960 . S
H527 C465 0.961 . S
H528 C467 0.980 . S
H529 C466 0.961 . S
H530 C466 0.960 . S
H531 C466 0.959 . S
H532 C469 0.930 . S
H533 C473 0.931 . S
H534 C474 0.959 . S
H535 C474 0.961 . S
H536 C474 0.959 . S
H537 C475 0.960 . S
H538 C475 0.960 . S
H539 C475 0.960 . S
H540 C511 0.980 . S
H541 C477 0.930 . S
H542 C481 0.930 . S
H543 C482 0.961 . S
H544 C482 0.960 . S
H545 C482 0.958 . S
H546 C483 0.961 . S
H547 C483 0.960 . S
H548 C483 0.960 . S
H549 C485 0.980 . S
H550 C484 0.961 . S
H551 C484 0.961 . S
H552 C484 0.959 . S
H553 C487 0.932 . S
H554 C491 0.929 . S
H555 C492 0.961 . S
H556 C492 0.959 . S
H557 C492 0.959 . S
H558 C493 0.960 . S
H559 C493 0.962 . S
H560 C493 0.961 . S
H561 C495 0.929 . S
H562 C498 0.930 . S
H563 C499 0.929 . S
H564 C502 0.930 . S
H565 C505 0.929 . S
H566 C506 0.930 . S
H567 C510 0.962 . S
H568 C510 0.959 . S
H569 C510 0.958 . S
C570 C571 1.560 . S
C570 H631 0.959 . S
C570 H632 0.959 . S
C570 H633 0.960 . S
C571 C570 1.560 . S
C571 O626 1.426 . S
C571 H630 0.980 . S
C572 C573 1.407 . S
C572 C577 1.418 . S
C572 O626 1.334 . S
C573 C572 1.407 . S
C573 C574 1.360 . S
C573 H634 0.929 . S
C574 C573 1.360 . S
C574 C575 1.401 . S
C574 C578 1.527 . S
C575 C574 1.401 . S
C575 C576 1.405 . S
C575 C608 1.587 . S
C576 C575 1.405 . S
C576 C577 1.332 . S
C576 C579 1.496 . S
C577 C572 1.418 . S
C577 C576 1.332 . S
C577 H635 0.929 . S
C578 C574 1.527 . S
C578 H636 0.959 . S
C578 H637 0.961 . S
C578 H638 0.961 . S
C579 C576 1.496 . S
C579 H639 0.960 . S
C579 H640 0.960 . S
C579 H641 0.961 . S
C580 C581 1.517 . S
C580 H643 0.961 . S
C580 H644 0.960 . S
C580 H645 0.959 . S
C581 C580 1.517 . S
C581 O629 1.468 . S
C581 H642 0.980 . S
C582 C583 1.349 . S
C582 C587 1.367 . S
C582 O629 1.408 . S
C583 C582 1.349 . S
C583 C584 1.407 . S
C583 H646 0.930 . S
C584 C583 1.407 . S
C584 C585 1.449 . S
C584 C588 1.535 . S
C585 C584 1.449 . S
C585 C586 1.384 . S
C585 C610 1.553 . S
C586 C585 1.384 . S
C586 C587 1.364 . S
C586 C589 1.450 . S
C587 C582 1.367 . S
C587 C586 1.364 . S
C587 H647 0.931 . S
C588 C584 1.535 . S
C588 H648 0.959 . S
C588 H649 0.961 . S
C588 H650 0.959 . S
C589 C586 1.450 . S
C589 H651 0.960 . S
C589 H652 0.960 . S
C589 H653 0.960 . S
C590 C591 1.309 . S
C590 C595 1.304 . S
C590 O628 1.435 . S
C591 C590 1.309 . S
C591 C592 1.476 . S
C591 H655 0.930 . S
C592 C591 1.476 . S
C592 C593 1.400 . S
C592 C596 1.567 . S
C593 C592 1.400 . S
C593 C594 1.373 . S
C593 C615 1.432 . S
C594 C593 1.373 . S
C594 C595 1.339 . S
C594 C597 1.530 . S
C595 C590 1.304 . S
C595 C594 1.339 . S
C595 H656 0.930 . S
C596 C592 1.567 . S
C596 H657 0.961 . S
C596 H658 0.960 . S
C596 H659 0.958 . S
C597 C594 1.530 . S
C597 H660 0.961 . S
C597 H661 0.960 . S
C597 H662 0.960 . S
C598 C599 1.530 . S
C598 H664 0.961 . S
C598 H665 0.961 . S
C598 H666 0.959 . S
C599 C598 1.530 . S
C599 O627 1.412 . S
C599 H663 0.980 . S
C600 C601 1.288 . S
C600 C605 1.377 . S
C600 O627 1.393 . S
C601 C600 1.288 . S
C601 C602 1.369 . S
C601 H667 0.932 . S
C602 C601 1.369 . S
C602 C603 1.398 . S
C602 C606 1.527 . S
C603 C602 1.398 . S
C603 C604 1.380 . S
C603 C617 1.497 . S
C604 C603 1.380 . S
C604 C605 1.383 . S
C604 C607 1.603 . S
C605 C600 1.377 . S
C605 C604 1.383 . S
C605 H668 0.929 . S
C606 C602 1.527 . S
C606 H669 0.961 . S
C606 H670 0.959 . S
C606 H671 0.959 . S
C607 C604 1.603 . S
C607 H672 0.960 . S
C607 H673 0.962 . S
C607 H674 0.961 . S
C608 C575 1.587 . S
C608 C609 1.360 . S
C608 C621 1.412 . S
C609 C608 1.360 . S
C609 C610 1.365 . S
C609 H675 0.929 . S
C610 C585 1.553 . S
C610 C609 1.365 . S
C610 C611 1.404 . S
C611 C610 1.404 . S
C611 C612 1.395 . S
C611 C622 1.451 . S
C612 C611 1.395 . S
C612 C613 1.322 . S
C612 H676 0.930 . S
C613 C612 1.322 . S
C613 C614 1.459 . S
C613 H677 0.929 . S
C614 C613 1.459 . S
C614 C615 1.445 . S
C614 C623 1.395 . S
C615 C593 1.432 . S
C615 C614 1.445 . S
C615 C616 1.370 . S
C616 C615 1.370 . S
C616 C617 1.438 . S
C616 H678 0.930 . S
C617 C603 1.497 . S
C617 C616 1.438 . S
C617 C618 1.360 . S
C618 C617 1.360 . S
C618 C619 1.401 . S
C618 C623 1.446 . S
C619 C618 1.401 . S
C619 C620 1.347 . S
C619 H679 0.929 . S
C620 C619 1.347 . S
C620 C621 1.455 . S
C620 H680 0.930 . S
C621 C608 1.412 . S
C621 C620 1.455 . S
C621 C622 1.331 . S
C622 C611 1.451 . S
C622 C621 1.331 . S
C622 C623 1.497 . S
C623 C614 1.395 . S
C623 C618 1.446 . S
C623 C622 1.497 . S
C624 C625 1.582 . S
C624 H681 0.962 . S
C624 H682 0.959 . S
C624 H683 0.958 . S
C625 C624 1.582 . S
C625 O628 1.458 . S
C625 H654 0.980 . S
O626 C571 1.426 . S
O626 C572 1.334 . S
O627 C599 1.412 . S
O627 C600 1.393 . S
O628 C590 1.435 . S
O628 C625 1.458 . S
O629 C581 1.468 . S
O629 C582 1.408 . S
H630 C571 0.980 . S
H631 C570 0.959 . S
H632 C570 0.959 . S
H633 C570 0.960 . S
H634 C573 0.929 . S
H635 C577 0.929 . S
H636 C578 0.959 . S
H637 C578 0.961 . S
H638 C578 0.961 . S
H639 C579 0.960 . S
H640 C579 0.960 . S
H641 C579 0.961 . S
H642 C581 0.980 . S
H643 C580 0.961 . S
H644 C580 0.960 . S
H645 C580 0.959 . S
H646 C583 0.930 . S
H647 C587 0.931 . S
H648 C588 0.959 . S
H649 C588 0.961 . S
H650 C588 0.959 . S
H651 C589 0.960 . S
H652 C589 0.960 . S
H653 C589 0.960 . S
H654 C625 0.980 . S
H655 C591 0.930 . S
H656 C595 0.930 . S
H657 C596 0.961 . S
H658 C596 0.960 . S
H659 C596 0.958 . S
H660 C597 0.961 . S
H661 C597 0.960 . S
H662 C597 0.960 . S
H663 C599 0.980 . S
H664 C598 0.961 . S
H665 C598 0.961 . S
H666 C598 0.959 . S
H667 C601 0.932 . S
H668 C605 0.929 . S
H669 C606 0.961 . S
H670 C606 0.959 . S
H671 C606 0.959 . S
H672 C607 0.960 . S
H673 C607 0.962 . S
H674 C607 0.961 . S
H675 C609 0.929 . S
H676 C612 0.930 . S
H677 C613 0.929 . S
H678 C616 0.930 . S
H679 C619 0.929 . S
H680 C620 0.930 . S
H681 C624 0.962 . S
H682 C624 0.959 . S
H683 C624 0.958 . S
C684 C685 1.560 . S
C684 H745 0.959 . S
C684 H746 0.959 . S
C684 H747 0.960 . S
C685 C684 1.560 . S
C685 O740 1.426 . S
C685 H744 0.980 . S
C686 C687 1.407 . S
C686 C691 1.418 . S
C686 O740 1.334 . S
C687 C686 1.407 . S
C687 C688 1.360 . S
C687 H748 0.929 . S
C688 C687 1.360 . S
C688 C689 1.401 . S
C688 C692 1.527 . S
C689 C688 1.401 . S
C689 C690 1.405 . S
C689 C722 1.587 . S
C690 C689 1.405 . S
C690 C691 1.332 . S
C690 C693 1.496 . S
C691 C686 1.418 . S
C691 C690 1.332 . S
C691 H749 0.929 . S
C692 C688 1.527 . S
C692 H750 0.959 . S
C692 H751 0.961 . S
C692 H752 0.961 . S
C693 C690 1.496 . S
C693 H753 0.960 . S
C693 H754 0.960 . S
C693 H755 0.961 . S
C694 C695 1.517 . S
C694 H757 0.961 . S
C694 H758 0.960 . S
C694 H759 0.959 . S
C695 C694 1.517 . S
C695 O743 1.468 . S
C695 H756 0.980 . S
C696 C697 1.349 . S
C696 C701 1.367 . S
C696 O743 1.408 . S
C697 C696 1.349 . S
C697 C698 1.407 . S
C697 H760 0.930 . S
C698 C697 1.407 . S
C698 C699 1.449 . S
C698 C702 1.535 . S
C699 C698 1.449 . S
C699 C700 1.384 . S
C699 C724 1.553 . S
C700 C699 1.384 . S
C700 C701 1.364 . S
C700 C703 1.450 . S
C701 C696 1.367 . S
C701 C700 1.364 . S
C701 H761 0.931 . S
C702 C698 1.535 . S
C702 H762 0.959 . S
C702 H763 0.961 . S
C702 H764 0.959 . S
C703 C700 1.450 . S
C703 H765 0.960 . S
C703 H766 0.960 . S
C703 H767 0.960 . S
C704 C705 1.309 . S
C704 C709 1.304 . S
C704 O742 1.435 . S
C705 C704 1.309 . S
C705 C706 1.476 . S
C705 H769 0.930 . S
C706 C705 1.476 . S
C706 C707 1.400 . S
C706 C710 1.567 . S
C707 C706 1.400 . S
C707 C708 1.373 . S
C707 C729 1.432 . S
C708 C707 1.373 . S
C708 C709 1.339 . S
C708 C711 1.530 . S
C709 C704 1.304 . S
C709 C708 1.339 . S
C709 H770 0.930 . S
C710 C706 1.567 . S
C710 H771 0.961 . S
C710 H772 0.960 . S
C710 H773 0.958 . S
C711 C708 1.530 . S
C711 H774 0.961 . S
C711 H775 0.960 . S
C711 H776 0.960 . S
C712 C713 1.530 . S
C712 H778 0.961 . S
C712 H779 0.961 . S
C712 H780 0.959 . S
C713 C712 1.530 . S
C713 O741 1.412 . S
C713 H777 0.980 . S
C714 C715 1.288 . S
C714 C719 1.377 . S
C714 O741 1.393 . S
C715 C714 1.288 . S
C715 C716 1.369 . S
C715 H781 0.932 . S
C716 C715 1.369 . S
C716 C717 1.398 . S
C716 C720 1.527 . S
C717 C716 1.398 . S
C717 C718 1.380 . S
C717 C731 1.497 . S
C718 C717 1.380 . S
C718 C719 1.383 . S
C718 C721 1.603 . S
C719 C714 1.377 . S
C719 C718 1.383 . S
C719 H782 0.929 . S
C720 C716 1.527 . S
C720 H783 0.961 . S
C720 H784 0.959 . S
C720 H785 0.959 . S
C721 C718 1.603 . S
C721 H786 0.960 . S
C721 H787 0.962 . S
C721 H788 0.961 . S
C722 C689 1.587 . S
C722 C723 1.360 . S
C722 C735 1.412 . S
C723 C722 1.360 . S
C723 C724 1.365 . S
C723 H789 0.929 . S
C724 C699 1.553 . S
C724 C723 1.365 . S
C724 C725 1.404 . S
C725 C724 1.404 . S
C725 C726 1.395 . S
C725 C736 1.451 . S
C726 C725 1.395 . S
C726 C727 1.322 . S
C726 H790 0.930 . S
C727 C726 1.322 . S
C727 C728 1.459 . S
C727 H791 0.929 . S
C728 C727 1.459 . S
C728 C729 1.445 . S
C728 C737 1.395 . S
C729 C707 1.432 . S
C729 C728 1.445 . S
C729 C730 1.370 . S
C730 C729 1.370 . S
C730 C731 1.438 . S
C730 H792 0.930 . S
C731 C717 1.497 . S
C731 C730 1.438 . S
C731 C732 1.360 . S
C732 C731 1.360 . S
C732 C733 1.401 . S
C732 C737 1.446 . S
C733 C732 1.401 . S
C733 C734 1.347 . S
C733 H793 0.929 . S
C734 C733 1.347 . S
C734 C735 1.455 . S
C734 H794 0.930 . S
C735 C722 1.412 . S
C735 C734 1.455 . S
C735 C736 1.331 . S
C736 C725 1.451 . S
C736 C735 1.331 . S
C736 C737 1.497 . S
C737 C728 1.395 . S
C737 C732 1.446 . S
C737 C736 1.497 . S
C738 C739 1.582 . S
C738 H795 0.962 . S
C738 H796 0.959 . S
C738 H797 0.958 . S
C739 C738 1.582 . S
C739 O742 1.458 . S
C739 H768 0.980 . S
O740 C685 1.426 . S
O740 C686 1.334 . S
O741 C713 1.412 . S
O741 C714 1.393 . S
O742 C704 1.435 . S
O742 C739 1.458 . S
O743 C695 1.468 . S
O743 C696 1.408 . S
H744 C685 0.980 . S
H745 C684 0.959 . S
H746 C684 0.959 . S
H747 C684 0.960 . S
H748 C687 0.929 . S
H749 C691 0.929 . S
H750 C692 0.959 . S
H751 C692 0.961 . S
H752 C692 0.961 . S
H753 C693 0.960 . S
H754 C693 0.960 . S
H755 C693 0.961 . S
H756 C695 0.980 . S
H757 C694 0.961 . S
H758 C694 0.960 . S
H759 C694 0.959 . S
H760 C697 0.930 . S
H761 C701 0.931 . S
H762 C702 0.959 . S
H763 C702 0.961 . S
H764 C702 0.959 . S
H765 C703 0.960 . S
H766 C703 0.960 . S
H767 C703 0.960 . S
H768 C739 0.980 . S
H769 C705 0.930 . S
H770 C709 0.930 . S
H771 C710 0.961 . S
H772 C710 0.960 . S
H773 C710 0.958 . S
H774 C711 0.961 . S
H775 C711 0.960 . S
H776 C711 0.960 . S
H777 C713 0.980 . S
H778 C712 0.961 . S
H779 C712 0.961 . S
H780 C712 0.959 . S
H781 C715 0.932 . S
H782 C719 0.929 . S
H783 C720 0.961 . S
H784 C720 0.959 . S
H785 C720 0.959 . S
H786 C721 0.960 . S
H787 C721 0.962 . S
H788 C721 0.961 . S
H789 C723 0.929 . S
H790 C726 0.930 . S
H791 C727 0.929 . S
H792 C730 0.930 . S
H793 C733 0.929 . S
H794 C734 0.930 . S
H795 C738 0.962 . S
H796 C738 0.959 . S
H797 C738 0.958 . S
C798 C799 1.560 . S
C798 H859 0.959 . S
C798 H860 0.959 . S
C798 H861 0.960 . S
C799 C798 1.560 . S
C799 O854 1.426 . S
C799 H858 0.980 . S
C800 C801 1.407 . S
C800 C805 1.418 . S
C800 O854 1.334 . S
C801 C800 1.407 . S
C801 C802 1.360 . S
C801 H862 0.929 . S
C802 C801 1.360 . S
C802 C803 1.401 . S
C802 C806 1.527 . S
C803 C802 1.401 . S
C803 C804 1.405 . S
C803 C836 1.587 . S
C804 C803 1.405 . S
C804 C805 1.332 . S
C804 C807 1.496 . S
C805 C800 1.418 . S
C805 C804 1.332 . S
C805 H863 0.929 . S
C806 C802 1.527 . S
C806 H864 0.959 . S
C806 H865 0.961 . S
C806 H866 0.961 . S
C807 C804 1.496 . S
C807 H867 0.960 . S
C807 H868 0.960 . S
C807 H869 0.961 . S
C808 C809 1.517 . S
C808 H871 0.961 . S
C808 H872 0.960 . S
C808 H873 0.959 . S
C809 C808 1.517 . S
C809 O857 1.468 . S
C809 H870 0.980 . S
C810 C811 1.349 . S
C810 C815 1.367 . S
C810 O857 1.408 . S
C811 C810 1.349 . S
C811 C812 1.407 . S
C811 H874 0.930 . S
C812 C811 1.407 . S
C812 C813 1.449 . S
C812 C816 1.535 . S
C813 C812 1.449 . S
C813 C814 1.384 . S
C813 C838 1.553 . S
C814 C813 1.384 . S
C814 C815 1.364 . S
C814 C817 1.450 . S
C815 C810 1.367 . S
C815 C814 1.364 . S
C815 H875 0.931 . S
C816 C812 1.535 . S
C816 H876 0.959 . S
C816 H877 0.961 . S
C816 H878 0.959 . S
C817 C814 1.450 . S
C817 H879 0.960 . S
C817 H880 0.960 . S
C817 H881 0.960 . S
C818 C819 1.309 . S
C818 C823 1.304 . S
C818 O856 1.435 . S
C819 C818 1.309 . S
C819 C820 1.476 . S
C819 H883 0.930 . S
C820 C819 1.476 . S
C820 C821 1.400 . S
C820 C824 1.567 . S
C821 C820 1.400 . S
C821 C822 1.373 . S
C821 C843 1.432 . S
C822 C821 1.373 . S
C822 C823 1.339 . S
C822 C825 1.530 . S
C823 C818 1.304 . S
C823 C822 1.339 . S
C823 H884 0.930 . S
C824 C820 1.567 . S
C824 H885 0.961 . S
C824 H886 0.960 . S
C824 H887 0.958 . S
C825 C822 1.530 . S
C825 H888 0.961 . S
C825 H889 0.960 . S
C825 H890 0.960 . S
C826 C827 1.530 . S
C826 H892 0.961 . S
C826 H893 0.961 . S
C826 H894 0.959 . S
C827 C826 1.530 . S
C827 O855 1.412 . S
C827 H891 0.980 . S
C828 C829 1.288 . S
C828 C833 1.377 . S
C828 O855 1.393 . S
C829 C828 1.288 . S
C829 C830 1.369 . S
C829 H895 0.932 . S
C830 C829 1.369 . S
C830 C831 1.398 . S
C830 C834 1.527 . S
C831 C830 1.398 . S
C831 C832 1.380 . S
C831 C845 1.497 . S
C832 C831 1.380 . S
C832 C833 1.383 . S
C832 C835 1.603 . S
C833 C828 1.377 . S
C833 C832 1.383 . S
C833 H896 0.929 . S
C834 C830 1.527 . S
C834 H897 0.961 . S
C834 H898 0.959 . S
C834 H899 0.959 . S
C835 C832 1.603 . S
C835 H900 0.960 . S
C835 H901 0.962 . S
C835 H902 0.961 . S
C836 C803 1.587 . S
C836 C837 1.360 . S
C836 C849 1.412 . S
C837 C836 1.360 . S
C837 C838 1.365 . S
C837 H903 0.929 . S
C838 C813 1.553 . S
C838 C837 1.365 . S
C838 C839 1.404 . S
C839 C838 1.404 . S
C839 C840 1.395 . S
C839 C850 1.451 . S
C840 C839 1.395 . S
C840 C841 1.322 . S
C840 H904 0.930 . S
C841 C840 1.322 . S
C841 C842 1.459 . S
C841 H905 0.929 . S
C842 C841 1.459 . S
C842 C843 1.445 . S
C842 C851 1.395 . S
C843 C821 1.432 . S
C843 C842 1.445 . S
C843 C844 1.370 . S
C844 C843 1.370 . S
C844 C845 1.438 . S
C844 H906 0.930 . S
C845 C831 1.497 . S
C845 C844 1.438 . S
C845 C846 1.360 . S
C846 C845 1.360 . S
C846 C847 1.401 . S
C846 C851 1.446 . S
C847 C846 1.401 . S
C847 C848 1.347 . S
C847 H907 0.929 . S
C848 C847 1.347 . S
C848 C849 1.455 . S
C848 H908 0.930 . S
C849 C836 1.412 . S
C849 C848 1.455 . S
C849 C850 1.331 . S
C850 C839 1.451 . S
C850 C849 1.331 . S
C850 C851 1.497 . S
C851 C842 1.395 . S
C851 C846 1.446 . S
C851 C850 1.497 . S
C852 C853 1.582 . S
C852 H909 0.962 . S
C852 H910 0.959 . S
C852 H911 0.958 . S
C853 C852 1.582 . S
C853 O856 1.458 . S
C853 H882 0.980 . S
O854 C799 1.426 . S
O854 C800 1.334 . S
O855 C827 1.412 . S
O855 C828 1.393 . S
O856 C818 1.435 . S
O856 C853 1.458 . S
O857 C809 1.468 . S
O857 C810 1.408 . S
H858 C799 0.980 . S
H859 C798 0.959 . S
H860 C798 0.959 . S
H861 C798 0.960 . S
H862 C801 0.929 . S
H863 C805 0.929 . S
H864 C806 0.959 . S
H865 C806 0.961 . S
H866 C806 0.961 . S
H867 C807 0.960 . S
H868 C807 0.960 . S
H869 C807 0.961 . S
H870 C809 0.980 . S
H871 C808 0.961 . S
H872 C808 0.960 . S
H873 C808 0.959 . S
H874 C811 0.930 . S
H875 C815 0.931 . S
H876 C816 0.959 . S
H877 C816 0.961 . S
H878 C816 0.959 . S
H879 C817 0.960 . S
H880 C817 0.960 . S
H881 C817 0.960 . S
H882 C853 0.980 . S
H883 C819 0.930 . S
H884 C823 0.930 . S
H885 C824 0.961 . S
H886 C824 0.960 . S
H887 C824 0.958 . S
H888 C825 0.961 . S
H889 C825 0.960 . S
H890 C825 0.960 . S
H891 C827 0.980 . S
H892 C826 0.961 . S
H893 C826 0.961 . S
H894 C826 0.959 . S
H895 C829 0.932 . S
H896 C833 0.929 . S
H897 C834 0.961 . S
H898 C834 0.959 . S
H899 C834 0.959 . S
H900 C835 0.960 . S
H901 C835 0.962 . S
H902 C835 0.961 . S
H903 C837 0.929 . S
H904 C840 0.930 . S
H905 C841 0.929 . S
H906 C844 0.930 . S
H907 C847 0.929 . S
H908 C848 0.930 . S
H909 C852 0.962 . S
H910 C852 0.959 . S
H911 C852 0.958 . S
C912 O914 1.247 . S
C912 O916 1.258 . S
C913 O920 1.247 . S
C913 O921 1.258 . S
O914 C912 1.247 . S
O914 Zn915 2.028 1_655 S
Zn915 O914 2.028 1_455 S
Zn915 O919 2.035 . S
Zn915 O921 2.035 . S
Zn915 O922 2.028 1_455 S
O916 C912 1.258 . S
O916 Zn917 2.035 1_655 S
Zn917 O916 2.035 1_455 S
Zn917 O918 2.028 . S
Zn917 O920 2.028 . S
Zn917 O923 2.035 1_455 S
O918 Zn917 2.028 . S
O918 C924 1.247 . S
O919 Zn915 2.035 . S
O919 C924 1.258 . S
O920 C913 1.247 . S
O920 Zn917 2.028 . S
O921 C913 1.258 . S
O921 Zn915 2.035 . S
O922 Zn915 2.028 1_655 S
O922 C925 1.247 . S
O923 Zn917 2.035 1_655 S
O923 C925 1.258 . S
C924 O918 1.247 . S
C924 O919 1.258 . S
C925 O922 1.247 . S
C925 O923 1.258 . S
C926 O928 1.247 . S
C926 O930 1.258 . S
C927 O934 1.247 . S
C927 O935 1.258 . S
O928 C926 1.247 . S
O928 Zn929 2.028 . S
Zn929 O928 2.028 . S
Zn929 O933 2.035 1_545 S
Zn929 O935 2.035 1_545 S
Zn929 O936 2.028 . S
O930 C926 1.258 . S
O930 Zn931 2.035 . S
Zn931 O930 2.035 . S
Zn931 O932 2.028 1_545 S
Zn931 O934 2.028 1_545 S
Zn931 O937 2.035 . S
O932 Zn931 2.028 1_565 S
O932 C938 1.247 . S
O933 Zn929 2.035 1_565 S
O933 C938 1.258 . S
O934 C927 1.247 . S
O934 Zn931 2.028 1_565 S
O935 C927 1.258 . S
O935 Zn929 2.035 1_565 S
O936 Zn929 2.028 . S
O936 C939 1.247 . S
O937 Zn931 2.035 . S
O937 C939 1.258 . S
C938 O932 1.247 . S
C938 O933 1.258 . S
C939 O936 1.247 . S
C939 O937 1.258 . S
C940 O942 1.247 . S
C940 O944 1.258 . S
C941 O948 1.247 . S
C941 O949 1.258 . S
O942 C940 1.247 . S
O942 Zn943 2.028 1_655 S
Zn943 O942 2.028 1_455 S
Zn943 O947 2.035 . S
Zn943 O949 2.035 . S
Zn943 O950 2.028 1_455 S
O944 C940 1.258 . S
O944 Zn945 2.035 1_655 S
Zn945 O944 2.035 1_455 S
Zn945 O946 2.028 . S
Zn945 O948 2.028 . S
Zn945 O951 2.035 1_455 S
O946 Zn945 2.028 . S
O946 C952 1.247 . S
O947 Zn943 2.035 . S
O947 C952 1.258 . S
O948 C941 1.247 . S
O948 Zn945 2.028 . S
O949 C941 1.258 . S
O949 Zn943 2.035 . S
O950 Zn943 2.028 1_655 S
O950 C953 1.247 . S
O951 Zn945 2.035 1_655 S
O951 C953 1.258 . S
C952 O946 1.247 . S
C952 O947 1.258 . S
C953 O950 1.247 . S
C953 O951 1.258 . S
C954 O956 1.247 . S
C954 O958 1.258 . S
C955 O962 1.247 . S
C955 O963 1.258 . S
O956 C954 1.247 . S
O956 Zn957 2.028 . S
Zn957 O956 2.028 . S
Zn957 O961 2.035 1_545 S
Zn957 O963 2.035 1_545 S
Zn957 O964 2.028 . S
O958 C954 1.258 . S
O958 Zn959 2.035 . S
Zn959 O958 2.035 . S
Zn959 O960 2.028 1_545 S
Zn959 O962 2.028 1_545 S
Zn959 O965 2.035 . S
O960 Zn959 2.028 1_565 S
O960 C966 1.247 . S
O961 Zn957 2.035 1_565 S
O961 C966 1.258 . S
O962 C955 1.247 . S
O962 Zn959 2.028 1_565 S
O963 C955 1.258 . S
O963 Zn957 2.035 1_565 S
O964 Zn957 2.028 . S
O964 C967 1.247 . S
O965 Zn959 2.035 . S
O965 C967 1.258 . S
C966 O960 1.247 . S
C966 O961 1.258 . S
C967 O964 1.247 . S
C967 O965 1.258 . S
C968 O970 1.247 . S
C968 O972 1.258 . S
C969 O976 1.247 . S
C969 O977 1.258 . S
O970 C968 1.247 . S
O970 Zn971 2.031 . S
Zn971 O970 2.031 . S
Zn971 O975 2.039 . S
Zn971 O977 2.032 1_554 S
Zn971 O978 2.024 1_554 S
O972 C968 1.258 . S
O972 Zn973 2.041 . S
Zn973 O972 2.041 . S
Zn973 O974 2.034 . S
Zn973 O976 2.022 1_554 S
Zn973 O979 2.029 1_554 S
O974 Zn973 2.034 . S
O974 C980 1.247 . S
O975 Zn971 2.039 . S
O975 C980 1.258 . S
O976 C969 1.247 . S
O976 Zn973 2.022 1_556 S
O977 C969 1.258 . S
O977 Zn971 2.032 1_556 S
O978 Zn971 2.024 1_556 S
O978 C981 1.247 . S
O979 Zn973 2.029 1_556 S
O979 C981 1.258 . S
C980 O974 1.247 . S
C980 O975 1.258 . S
C981 O978 1.247 . S
C981 O979 1.258 . S
C982 O984 1.247 . S
C982 O986 1.258 . S
C983 O990 1.247 . S
C983 O991 1.258 . S
O984 C982 1.247 . S
O984 Zn985 2.028 . S
Zn985 O984 2.028 . S
Zn985 O989 2.035 . S
Zn985 O991 2.035 1_554 S
Zn985 O992 2.028 1_554 S
O986 C982 1.258 . S
O986 Zn987 2.035 . S
Zn987 O986 2.035 . S
Zn987 O988 2.028 . S
Zn987 O990 2.028 1_554 S
Zn987 O993 2.035 1_554 S
O988 Zn987 2.028 . S
O988 C994 1.247 . S
O989 Zn985 2.035 . S
O989 C994 1.258 . S
O990 C983 1.247 . S
O990 Zn987 2.028 1_556 S
O991 C983 1.258 . S
O991 Zn985 2.035 1_556 S
O992 Zn985 2.028 1_556 S
O992 C995 1.247 . S
O993 Zn987 2.035 1_556 S
O993 C995 1.258 . S
C994 O988 1.247 . S
C994 O989 1.258 . S
C995 O992 1.247 . S
C995 O993 1.258 . S
C996 O998 1.247 . S
C996 O1000 1.258 . S
C997 O1004 1.247 . S
C997 O1005 1.258 . S
O998 C996 1.247 . S
O998 Zn999 2.021 1_556 S
Zn999 O998 2.021 1_554 S
Zn999 O1003 2.029 1_554 S
Zn999 O1005 2.042 . S
Zn999 O1006 2.034 . S
O1000 C996 1.258 . S
O1000 Zn1001 2.030 1_556 S
Zn1001 O1000 2.030 1_554 S
Zn1001 O1002 2.023 1_554 S
Zn1001 O1004 2.033 . S
Zn1001 O1007 2.040 . S
O1002 Zn1001 2.023 1_556 S
O1002 C1008 1.247 . S
O1003 Zn999 2.029 1_556 S
O1003 C1008 1.258 . S
O1004 C997 1.247 . S
O1004 Zn1001 2.033 . S
O1005 C997 1.258 . S
O1005 Zn999 2.042 . S
O1006 Zn999 2.034 . S
O1006 C1009 1.247 . S
O1007 Zn1001 2.040 . S
O1007 C1009 1.258 . S
C1008 O1002 1.247 . S
C1008 O1003 1.258 . S
C1009 O1006 1.247 . S
C1009 O1007 1.258 . S
C1010 O1012 1.247 . S
C1010 O1014 1.258 . S
C1011 O1018 1.247 . S
C1011 O1019 1.258 . S
O1012 C1010 1.247 . S
O1012 Zn1013 2.028 . S
Zn1013 O1012 2.028 . S
Zn1013 O1017 2.035 . S
Zn1013 O1019 2.035 1_554 S
Zn1013 O1020 2.028 1_554 S
O1014 C1010 1.258 . S
O1014 Zn1015 2.035 . S
Zn1015 O1014 2.035 . S
Zn1015 O1016 2.028 . S
Zn1015 O1018 2.028 1_554 S
Zn1015 O1021 2.035 1_554 S
O1016 Zn1015 2.028 . S
O1016 C1022 1.247 . S
O1017 Zn1013 2.035 . S
O1017 C1022 1.258 . S
O1018 C1011 1.247 . S
O1018 Zn1015 2.028 1_556 S
O1019 C1011 1.258 . S
O1019 Zn1013 2.035 1_556 S
O1020 Zn1013 2.028 1_556 S
O1020 C1023 1.247 . S
O1021 Zn1015 2.035 1_556 S
O1021 C1023 1.258 . S
C1022 O1016 1.247 . S
C1022 O1017 1.258 . S
C1023 O1020 1.247 . S
C1023 O1021 1.258 . S
H1024 C1036 0.930 . S
H1025 C1038 0.930 . S
H1026 C1039 0.930 . S
H1027 C1043 0.959 . S
H1028 C1043 0.959 . S
H1029 C1043 0.961 . S
H1030 C1044 0.960 . S
H1031 C1044 0.961 . S
H1032 C1044 0.959 . S
H1033 C1047 0.929 . S
H1034 C1048 0.931 . S
H1035 C1050 0.930 . S
C1036 H1024 0.930 . S
C1036 C1037 1.399 . S
C1036 C1041 1.399 . S
C1037 C1036 1.399 . S
C1037 C1038 1.376 . S
C1038 H1025 0.930 . S
C1038 C1037 1.376 . S
C1038 C1039 1.388 . S
C1039 H1026 0.930 . S
C1039 C1038 1.388 . S
C1039 C1040 1.390 . S
C1040 C1039 1.390 . S
C1040 C1041 1.394 . S
C1040 C1046 1.465 . S
C1041 C1036 1.399 . S
C1041 C1040 1.394 . S
C1041 C1042 1.516 . S
C1042 C1041 1.516 . S
C1042 C1043 1.502 . S
C1042 C1044 1.561 . S
C1042 C1045 1.526 . S
C1043 H1027 0.959 . S
C1043 H1028 0.959 . S
C1043 H1029 0.961 . S
C1043 C1042 1.502 . S
C1044 H1030 0.960 . S
C1044 H1031 0.961 . S
C1044 H1032 0.959 . S
C1044 C1042 1.561 . S
C1045 C1042 1.526 . S
C1045 C1046 1.396 . S
C1045 C1050 1.390 . S
C1046 C1040 1.465 . S
C1046 C1045 1.396 . S
C1046 C1047 1.399 . S
C1047 H1033 0.929 . S
C1047 C1046 1.399 . S
C1047 C1048 1.385 . S
C1048 H1034 0.931 . S
C1048 C1047 1.385 . S
C1048 C1049 1.389 . S
C1049 C1048 1.389 . S
C1049 C1050 1.387 . S
C1050 H1035 0.930 . S
C1050 C1045 1.390 . S
C1050 C1049 1.387 . S
H1051 C1063 0.930 . S
H1052 C1065 0.930 . S
H1053 C1066 0.930 . S
H1054 C1070 0.959 . S
H1055 C1070 0.959 . S
H1056 C1070 0.961 . S
H1057 C1071 0.960 . S
H1058 C1071 0.961 . S
H1059 C1071 0.959 . S
H1060 C1074 0.929 . S
H1061 C1075 0.931 . S
H1062 C1077 0.930 . S
C1063 H1051 0.930 . S
C1063 C1064 1.399 . S
C1063 C1068 1.399 . S
C1064 C1063 1.399 . S
C1064 C1065 1.376 . S
C1065 H1052 0.930 . S
C1065 C1064 1.376 . S
C1065 C1066 1.388 . S
C1066 H1053 0.930 . S
C1066 C1065 1.388 . S
C1066 C1067 1.390 . S
C1067 C1066 1.390 . S
C1067 C1068 1.394 . S
C1067 C1073 1.465 . S
C1068 C1063 1.399 . S
C1068 C1067 1.394 . S
C1068 C1069 1.516 . S
C1069 C1068 1.516 . S
C1069 C1070 1.502 . S
C1069 C1071 1.561 . S
C1069 C1072 1.526 . S
C1070 H1054 0.959 . S
C1070 H1055 0.959 . S
C1070 H1056 0.961 . S
C1070 C1069 1.502 . S
C1071 H1057 0.960 . S
C1071 H1058 0.961 . S
C1071 H1059 0.959 . S
C1071 C1069 1.561 . S
C1072 C1069 1.526 . S
C1072 C1073 1.396 . S
C1072 C1077 1.390 . S
C1073 C1067 1.465 . S
C1073 C1072 1.396 . S
C1073 C1074 1.399 . S
C1074 H1060 0.929 . S
C1074 C1073 1.399 . S
C1074 C1075 1.385 . S
C1075 H1061 0.931 . S
C1075 C1074 1.385 . S
C1075 C1076 1.389 . S
C1076 C1075 1.389 . S
C1076 C1077 1.387 . S
C1077 H1062 0.930 . S
C1077 C1072 1.390 . S
C1077 C1076 1.387 . S
H1078 C1090 0.930 . S
H1079 C1092 0.930 . S
H1080 C1093 0.930 . S
H1081 C1097 0.959 . S
H1082 C1097 0.959 . S
H1083 C1097 0.961 . S
H1084 C1098 0.960 . S
H1085 C1098 0.961 . S
H1086 C1098 0.959 . S
H1087 C1101 0.929 . S
H1088 C1102 0.931 . S
H1089 C1104 0.930 . S
C1090 H1078 0.930 . S
C1090 C1091 1.399 . S
C1090 C1095 1.399 . S
C1091 C1090 1.399 . S
C1091 C1092 1.376 . S
C1092 H1079 0.930 . S
C1092 C1091 1.376 . S
C1092 C1093 1.388 . S
C1093 H1080 0.930 . S
C1093 C1092 1.388 . S
C1093 C1094 1.390 . S
C1094 C1093 1.390 . S
C1094 C1095 1.394 . S
C1094 C1100 1.465 . S
C1095 C1090 1.399 . S
C1095 C1094 1.394 . S
C1095 C1096 1.516 . S
C1096 C1095 1.516 . S
C1096 C1097 1.502 . S
C1096 C1098 1.561 . S
C1096 C1099 1.526 . S
C1097 H1081 0.959 . S
C1097 H1082 0.959 . S
C1097 H1083 0.961 . S
C1097 C1096 1.502 . S
C1098 H1084 0.960 . S
C1098 H1085 0.961 . S
C1098 H1086 0.959 . S
C1098 C1096 1.561 . S
C1099 C1096 1.526 . S
C1099 C1100 1.396 . S
C1099 C1104 1.390 . S
C1100 C1094 1.465 . S
C1100 C1099 1.396 . S
C1100 C1101 1.399 . S
C1101 H1087 0.929 . S
C1101 C1100 1.399 . S
C1101 C1102 1.385 . S
C1102 H1088 0.931 . S
C1102 C1101 1.385 . S
C1102 C1103 1.389 . S
C1103 C1102 1.389 . S
C1103 C1104 1.387 . S
C1104 H1089 0.930 . S
C1104 C1099 1.390 . S
C1104 C1103 1.387 . S
H1105 C1117 0.930 . S
H1106 C1119 0.930 . S
H1107 C1120 0.930 . S
H1108 C1124 0.959 . S
H1109 C1124 0.959 . S
H1110 C1124 0.961 . S
H1111 C1125 0.960 . S
H1112 C1125 0.961 . S
H1113 C1125 0.959 . S
H1114 C1128 0.929 . S
H1115 C1129 0.931 . S
H1116 C1131 0.930 . S
C1117 H1105 0.930 . S
C1117 C1118 1.399 . S
C1117 C1122 1.399 . S
C1118 C1117 1.399 . S
C1118 C1119 1.376 . S
C1119 H1106 0.930 . S
C1119 C1118 1.376 . S
C1119 C1120 1.388 . S
C1120 H1107 0.930 . S
C1120 C1119 1.388 . S
C1120 C1121 1.390 . S
C1121 C1120 1.390 . S
C1121 C1122 1.394 . S
C1121 C1127 1.465 . S
C1122 C1117 1.399 . S
C1122 C1121 1.394 . S
C1122 C1123 1.516 . S
C1123 C1122 1.516 . S
C1123 C1124 1.502 . S
C1123 C1125 1.561 . S
C1123 C1126 1.526 . S
C1124 H1108 0.959 . S
C1124 H1109 0.959 . S
C1124 H1110 0.961 . S
C1124 C1123 1.502 . S
C1125 H1111 0.960 . S
C1125 H1112 0.961 . S
C1125 H1113 0.959 . S
C1125 C1123 1.561 . S
C1126 C1123 1.526 . S
C1126 C1127 1.396 . S
C1126 C1131 1.390 . S
C1127 C1121 1.465 . S
C1127 C1126 1.396 . S
C1127 C1128 1.399 . S
C1128 H1114 0.929 . S
C1128 C1127 1.399 . S
C1128 C1129 1.385 . S
C1129 H1115 0.931 . S
C1129 C1128 1.385 . S
C1129 C1130 1.389 . S
C1130 C1129 1.389 . S
C1130 C1131 1.387 . S
C1131 H1116 0.930 . S
C1131 C1126 1.390 . S
C1131 C1130 1.387 . S
H1132 C1144 0.930 . S
H1133 C1146 0.930 . S
H1134 C1147 0.930 . S
H1135 C1151 0.959 . S
H1136 C1151 0.959 . S
H1137 C1151 0.961 . S
H1138 C1152 0.960 . S
H1139 C1152 0.961 . S
H1140 C1152 0.959 . S
H1141 C1155 0.929 . S
H1142 C1156 0.931 . S
H1143 C1158 0.930 . S
C1144 H1132 0.930 . S
C1144 C1145 1.399 . S
C1144 C1149 1.399 . S
C1145 C1144 1.399 . S
C1145 C1146 1.376 . S
C1146 H1133 0.930 . S
C1146 C1145 1.376 . S
C1146 C1147 1.388 . S
C1147 H1134 0.930 . S
C1147 C1146 1.388 . S
C1147 C1148 1.390 . S
C1148 C1147 1.390 . S
C1148 C1149 1.394 . S
C1148 C1154 1.465 . S
C1149 C1144 1.399 . S
C1149 C1148 1.394 . S
C1149 C1150 1.516 . S
C1150 C1149 1.516 . S
C1150 C1151 1.502 . S
C1150 C1152 1.561 . S
C1150 C1153 1.526 . S
C1151 H1135 0.959 . S
C1151 H1136 0.959 . S
C1151 H1137 0.961 . S
C1151 C1150 1.502 . S
C1152 H1138 0.960 . S
C1152 H1139 0.961 . S
C1152 H1140 0.959 . S
C1152 C1150 1.561 . S
C1153 C1150 1.526 . S
C1153 C1154 1.396 . S
C1153 C1158 1.390 . S
C1154 C1148 1.465 . S
C1154 C1153 1.396 . S
C1154 C1155 1.399 . S
C1155 H1141 0.929 . S
C1155 C1154 1.399 . S
C1155 C1156 1.385 . S
C1156 H1142 0.931 . S
C1156 C1155 1.385 . S
C1156 C1157 1.389 . S
C1157 C1156 1.389 . S
C1157 C1158 1.387 . S
C1158 H1143 0.930 . S
C1158 C1153 1.390 . S
C1158 C1157 1.387 . S
H1159 C1171 0.930 . S
H1160 C1173 0.930 . S
H1161 C1174 0.930 . S
H1162 C1178 0.959 . S
H1163 C1178 0.959 . S
H1164 C1178 0.961 . S
H1165 C1179 0.960 . S
H1166 C1179 0.961 . S
H1167 C1179 0.959 . S
H1168 C1182 0.929 . S
H1169 C1183 0.931 . S
H1170 C1185 0.930 . S
C1171 H1159 0.930 . S
C1171 C1172 1.399 . S
C1171 C1176 1.399 . S
C1172 C1171 1.399 . S
C1172 C1173 1.376 . S
C1173 H1160 0.930 . S
C1173 C1172 1.376 . S
C1173 C1174 1.388 . S
C1174 H1161 0.930 . S
C1174 C1173 1.388 . S
C1174 C1175 1.390 . S
C1175 C1174 1.390 . S
C1175 C1176 1.394 . S
C1175 C1181 1.465 . S
C1176 C1171 1.399 . S
C1176 C1175 1.394 . S
C1176 C1177 1.516 . S
C1177 C1176 1.516 . S
C1177 C1178 1.502 . S
C1177 C1179 1.561 . S
C1177 C1180 1.526 . S
C1178 H1162 0.959 . S
C1178 H1163 0.959 . S
C1178 H1164 0.961 . S
C1178 C1177 1.502 . S
C1179 H1165 0.960 . S
C1179 H1166 0.961 . S
C1179 H1167 0.959 . S
C1179 C1177 1.561 . S
C1180 C1177 1.526 . S
C1180 C1181 1.396 . S
C1180 C1185 1.390 . S
C1181 C1175 1.465 . S
C1181 C1180 1.396 . S
C1181 C1182 1.399 . S
C1182 H1168 0.929 . S
C1182 C1181 1.399 . S
C1182 C1183 1.385 . S
C1183 H1169 0.931 . S
C1183 C1182 1.385 . S
C1183 C1184 1.389 . S
C1184 C1183 1.389 . S
C1184 C1185 1.387 . S
C1185 H1170 0.930 . S
C1185 C1180 1.390 . S
C1185 C1184 1.387 . S
H1186 C1198 0.930 . S
H1187 C1200 0.930 . S
H1188 C1201 0.930 . S
H1189 C1205 0.959 . S
H1190 C1205 0.959 . S
H1191 C1205 0.961 . S
H1192 C1206 0.960 . S
H1193 C1206 0.961 . S
H1194 C1206 0.959 . S
H1195 C1209 0.929 . S
H1196 C1210 0.931 . S
H1197 C1212 0.930 . S
C1198 H1186 0.930 . S
C1198 C1199 1.399 . S
C1198 C1203 1.399 . S
C1199 C1198 1.399 . S
C1199 C1200 1.376 . S
C1200 H1187 0.930 . S
C1200 C1199 1.376 . S
C1200 C1201 1.388 . S
C1201 H1188 0.930 . S
C1201 C1200 1.388 . S
C1201 C1202 1.390 . S
C1202 C1201 1.390 . S
C1202 C1203 1.394 . S
C1202 C1208 1.465 . S
C1203 C1198 1.399 . S
C1203 C1202 1.394 . S
C1203 C1204 1.516 . S
C1204 C1203 1.516 . S
C1204 C1205 1.502 . S
C1204 C1206 1.561 . S
C1204 C1207 1.526 . S
C1205 H1189 0.959 . S
C1205 H1190 0.959 . S
C1205 H1191 0.961 . S
C1205 C1204 1.502 . S
C1206 H1192 0.960 . S
C1206 H1193 0.961 . S
C1206 H1194 0.959 . S
C1206 C1204 1.561 . S
C1207 C1204 1.526 . S
C1207 C1208 1.396 . S
C1207 C1212 1.390 . S
C1208 C1202 1.465 . S
C1208 C1207 1.396 . S
C1208 C1209 1.399 . S
C1209 H1195 0.929 . S
C1209 C1208 1.399 . S
C1209 C1210 1.385 . S
C1210 H1196 0.931 . S
C1210 C1209 1.385 . S
C1210 C1211 1.389 . S
C1211 C1210 1.389 . S
C1211 C1212 1.387 . S
C1212 H1197 0.930 . S
C1212 C1207 1.390 . S
C1212 C1211 1.387 . S
H1213 C1225 0.930 . S
H1214 C1227 0.930 . S
H1215 C1228 0.930 . S
H1216 C1232 0.959 . S
H1217 C1232 0.959 . S
H1218 C1232 0.961 . S
H1219 C1233 0.960 . S
H1220 C1233 0.961 . S
H1221 C1233 0.959 . S
H1222 C1236 0.929 . S
H1223 C1237 0.931 . S
H1224 C1239 0.930 . S
C1225 H1213 0.930 . S
C1225 C1226 1.399 . S
C1225 C1230 1.399 . S
C1226 C1225 1.399 . S
C1226 C1227 1.376 . S
C1227 H1214 0.930 . S
C1227 C1226 1.376 . S
C1227 C1228 1.388 . S
C1228 H1215 0.930 . S
C1228 C1227 1.388 . S
C1228 C1229 1.390 . S
C1229 C1228 1.390 . S
C1229 C1230 1.394 . S
C1229 C1235 1.465 . S
C1230 C1225 1.399 . S
C1230 C1229 1.394 . S
C1230 C1231 1.516 . S
C1231 C1230 1.516 . S
C1231 C1232 1.502 . S
C1231 C1233 1.561 . S
C1231 C1234 1.526 . S
C1232 H1216 0.959 . S
C1232 H1217 0.959 . S
C1232 H1218 0.961 . S
C1232 C1231 1.502 . S
C1233 H1219 0.960 . S
C1233 H1220 0.961 . S
C1233 H1221 0.959 . S
C1233 C1231 1.561 . S
C1234 C1231 1.526 . S
C1234 C1235 1.396 . S
C1234 C1239 1.390 . S
C1235 C1229 1.465 . S
C1235 C1234 1.396 . S
C1235 C1236 1.399 . S
C1236 H1222 0.929 . S
C1236 C1235 1.399 . S
C1236 C1237 1.385 . S
C1237 H1223 0.931 . S
C1237 C1236 1.385 . S
C1237 C1238 1.389 . S
C1238 C1237 1.389 . S
C1238 C1239 1.387 . S
C1239 H1224 0.930 . S
C1239 C1234 1.390 . S
C1239 C1238 1.387 . S
H1240 C1252 0.930 . S
H1241 C1254 0.930 . S
H1242 C1255 0.930 . S
H1243 C1259 0.959 . S
H1244 C1259 0.959 . S
H1245 C1259 0.961 . S
H1246 C1260 0.960 . S
H1247 C1260 0.961 . S
H1248 C1260 0.959 . S
H1249 C1263 0.929 . S
H1250 C1264 0.931 . S
H1251 C1266 0.930 . S
C1252 H1240 0.930 . S
C1252 C1253 1.399 . S
C1252 C1257 1.399 . S
C1253 C1252 1.399 . S
C1253 C1254 1.376 . S
C1254 H1241 0.930 . S
C1254 C1253 1.376 . S
C1254 C1255 1.388 . S
C1255 H1242 0.930 . S
C1255 C1254 1.388 . S
C1255 C1256 1.390 . S
C1256 C1255 1.390 . S
C1256 C1257 1.394 . S
C1256 C1262 1.465 . S
C1257 C1252 1.399 . S
C1257 C1256 1.394 . S
C1257 C1258 1.516 . S
C1258 C1257 1.516 . S
C1258 C1259 1.502 . S
C1258 C1260 1.561 . S
C1258 C1261 1.526 . S
C1259 H1243 0.959 . S
C1259 H1244 0.959 . S
C1259 H1245 0.961 . S
C1259 C1258 1.502 . S
C1260 H1246 0.960 . S
C1260 H1247 0.961 . S
C1260 H1248 0.959 . S
C1260 C1258 1.561 . S
C1261 C1258 1.526 . S
C1261 C1262 1.396 . S
C1261 C1266 1.390 . S
C1262 C1256 1.465 . S
C1262 C1261 1.396 . S
C1262 C1263 1.399 . S
C1263 H1249 0.929 . S
C1263 C1262 1.399 . S
C1263 C1264 1.385 . S
C1264 H1250 0.931 . S
C1264 C1263 1.385 . S
C1264 C1265 1.389 . S
C1265 C1264 1.389 . S
C1265 C1266 1.387 . S
C1266 H1251 0.930 . S
C1266 C1261 1.390 . S
C1266 C1265 1.387 . S
H1267 C1279 0.930 . S
H1268 C1281 0.930 . S
H1269 C1282 0.930 . S
H1270 C1286 0.959 . S
H1271 C1286 0.959 . S
H1272 C1286 0.961 . S
H1273 C1287 0.960 . S
H1274 C1287 0.961 . S
H1275 C1287 0.959 . S
H1276 C1290 0.929 . S
H1277 C1291 0.931 . S
H1278 C1293 0.930 . S
C1279 H1267 0.930 . S
C1279 C1280 1.399 . S
C1279 C1284 1.399 . S
C1280 C1279 1.399 . S
C1280 C1281 1.376 . S
C1281 H1268 0.930 . S
C1281 C1280 1.376 . S
C1281 C1282 1.388 . S
C1282 H1269 0.930 . S
C1282 C1281 1.388 . S
C1282 C1283 1.390 . S
C1283 C1282 1.390 . S
C1283 C1284 1.394 . S
C1283 C1289 1.465 . S
C1284 C1279 1.399 . S
C1284 C1283 1.394 . S
C1284 C1285 1.516 . S
C1285 C1284 1.516 . S
C1285 C1286 1.502 . S
C1285 C1287 1.561 . S
C1285 C1288 1.526 . S
C1286 H1270 0.959 . S
C1286 H1271 0.959 . S
C1286 H1272 0.961 . S
C1286 C1285 1.502 . S
C1287 H1273 0.960 . S
C1287 H1274 0.961 . S
C1287 H1275 0.959 . S
C1287 C1285 1.561 . S
C1288 C1285 1.526 . S
C1288 C1289 1.396 . S
C1288 C1293 1.390 . S
C1289 C1283 1.465 . S
C1289 C1288 1.396 . S
C1289 C1290 1.399 . S
C1290 H1276 0.929 . S
C1290 C1289 1.399 . S
C1290 C1291 1.385 . S
C1291 H1277 0.931 . S
C1291 C1290 1.385 . S
C1291 C1292 1.389 . S
C1292 C1291 1.389 . S
C1292 C1293 1.387 . S
C1293 H1278 0.930 . S
C1293 C1288 1.390 . S
C1293 C1292 1.387 . S
H1294 C1306 0.930 . S
H1295 C1308 0.930 . S
H1296 C1309 0.930 . S
H1297 C1313 0.959 . S
H1298 C1313 0.959 . S
H1299 C1313 0.961 . S
H1300 C1314 0.960 . S
H1301 C1314 0.961 . S
H1302 C1314 0.959 . S
H1303 C1317 0.929 . S
H1304 C1318 0.931 . S
H1305 C1320 0.930 . S
C1306 H1294 0.930 . S
C1306 C1307 1.399 . S
C1306 C1311 1.399 . S
C1307 C1306 1.399 . S
C1307 C1308 1.376 . S
C1308 H1295 0.930 . S
C1308 C1307 1.376 . S
C1308 C1309 1.388 . S
C1309 H1296 0.930 . S
C1309 C1308 1.388 . S
C1309 C1310 1.390 . S
C1310 C1309 1.390 . S
C1310 C1311 1.394 . S
C1310 C1316 1.465 . S
C1311 C1306 1.399 . S
C1311 C1310 1.394 . S
C1311 C1312 1.516 . S
C1312 C1311 1.516 . S
C1312 C1313 1.502 . S
C1312 C1314 1.561 . S
C1312 C1315 1.526 . S
C1313 H1297 0.959 . S
C1313 H1298 0.959 . S
C1313 H1299 0.961 . S
C1313 C1312 1.502 . S
C1314 H1300 0.960 . S
C1314 H1301 0.961 . S
C1314 H1302 0.959 . S
C1314 C1312 1.561 . S
C1315 C1312 1.526 . S
C1315 C1316 1.396 . S
C1315 C1320 1.390 . S
C1316 C1310 1.465 . S
C1316 C1315 1.396 . S
C1316 C1317 1.399 . S
C1317 H1303 0.929 . S
C1317 C1316 1.399 . S
C1317 C1318 1.385 . S
C1318 H1304 0.931 . S
C1318 C1317 1.385 . S
C1318 C1319 1.389 . S
C1319 C1318 1.389 . S
C1319 C1320 1.387 . S
C1320 H1305 0.930 . S
C1320 C1315 1.390 . S
C1320 C1319 1.387 . S
H1321 C1333 0.930 . S
H1322 C1335 0.930 . S
H1323 C1336 0.930 . S
H1324 C1340 0.959 . S
H1325 C1340 0.959 . S
H1326 C1340 0.961 . S
H1327 C1341 0.960 . S
H1328 C1341 0.961 . S
H1329 C1341 0.959 . S
H1330 C1344 0.929 . S
H1331 C1345 0.931 . S
H1332 C1347 0.930 . S
C1333 H1321 0.930 . S
C1333 C1334 1.399 . S
C1333 C1338 1.399 . S
C1334 C1333 1.399 . S
C1334 C1335 1.376 . S
C1335 H1322 0.930 . S
C1335 C1334 1.376 . S
C1335 C1336 1.388 . S
C1336 H1323 0.930 . S
C1336 C1335 1.388 . S
C1336 C1337 1.390 . S
C1337 C1336 1.390 . S
C1337 C1338 1.394 . S
C1337 C1343 1.465 . S
C1338 C1333 1.399 . S
C1338 C1337 1.394 . S
C1338 C1339 1.516 . S
C1339 C1338 1.516 . S
C1339 C1340 1.502 . S
C1339 C1341 1.561 . S
C1339 C1342 1.526 . S
C1340 H1324 0.959 . S
C1340 H1325 0.959 . S
C1340 H1326 0.961 . S
C1340 C1339 1.502 . S
C1341 H1327 0.960 . S
C1341 H1328 0.961 . S
C1341 H1329 0.959 . S
C1341 C1339 1.561 . S
C1342 C1339 1.526 . S
C1342 C1343 1.396 . S
C1342 C1347 1.390 . S
C1343 C1337 1.465 . S
C1343 C1342 1.396 . S
C1343 C1344 1.399 . S
C1344 H1330 0.929 . S
C1344 C1343 1.399 . S
C1344 C1345 1.385 . S
C1345 H1331 0.931 . S
C1345 C1344 1.385 . S
C1345 C1346 1.389 . S
C1346 C1345 1.389 . S
C1346 C1347 1.387 . S
C1347 H1332 0.930 . S
C1347 C1342 1.390 . S
C1347 C1346 1.387 . S
H1348 C1360 0.930 . S
H1349 C1362 0.930 . S
H1350 C1363 0.930 . S
H1351 C1367 0.959 . S
H1352 C1367 0.959 . S
H1353 C1367 0.961 . S
H1354 C1368 0.960 . S
H1355 C1368 0.961 . S
H1356 C1368 0.959 . S
H1357 C1371 0.929 . S
H1358 C1372 0.931 . S
H1359 C1374 0.930 . S
C1360 H1348 0.930 . S
C1360 C1361 1.399 . S
C1360 C1365 1.399 . S
C1361 C1360 1.399 . S
C1361 C1362 1.376 . S
C1362 H1349 0.930 . S
C1362 C1361 1.376 . S
C1362 C1363 1.388 . S
C1363 H1350 0.930 . S
C1363 C1362 1.388 . S
C1363 C1364 1.390 . S
C1364 C1363 1.390 . S
C1364 C1365 1.394 . S
C1364 C1370 1.465 . S
C1365 C1360 1.399 . S
C1365 C1364 1.394 . S
C1365 C1366 1.516 . S
C1366 C1365 1.516 . S
C1366 C1367 1.502 . S
C1366 C1368 1.561 . S
C1366 C1369 1.526 . S
C1367 H1351 0.959 . S
C1367 H1352 0.959 . S
C1367 H1353 0.961 . S
C1367 C1366 1.502 . S
C1368 H1354 0.960 . S
C1368 H1355 0.961 . S
C1368 H1356 0.959 . S
C1368 C1366 1.561 . S
C1369 C1366 1.526 . S
C1369 C1370 1.396 . S
C1369 C1374 1.390 . S
C1370 C1364 1.465 . S
C1370 C1369 1.396 . S
C1370 C1371 1.399 . S
C1371 H1357 0.929 . S
C1371 C1370 1.399 . S
C1371 C1372 1.385 . S
C1372 H1358 0.931 . S
C1372 C1371 1.385 . S
C1372 C1373 1.389 . S
C1373 C1372 1.389 . S
C1373 C1374 1.387 . S
C1374 H1359 0.930 . S
C1374 C1369 1.390 . S
C1374 C1373 1.387 . S
H1375 C1387 0.930 . S
H1376 C1389 0.930 . S
H1377 C1390 0.930 . S
H1378 C1394 0.959 . S
H1379 C1394 0.959 . S
H1380 C1394 0.961 . S
H1381 C1395 0.960 . S
H1382 C1395 0.961 . S
H1383 C1395 0.959 . S
H1384 C1398 0.929 . S
H1385 C1399 0.931 . S
H1386 C1401 0.930 . S
C1387 H1375 0.930 . S
C1387 C1388 1.399 . S
C1387 C1392 1.399 . S
C1388 C1387 1.399 . S
C1388 C1389 1.376 . S
C1389 H1376 0.930 . S
C1389 C1388 1.376 . S
C1389 C1390 1.388 . S
C1390 H1377 0.930 . S
C1390 C1389 1.388 . S
C1390 C1391 1.390 . S
C1391 C1390 1.390 . S
C1391 C1392 1.394 . S
C1391 C1397 1.465 . S
C1392 C1387 1.399 . S
C1392 C1391 1.394 . S
C1392 C1393 1.516 . S
C1393 C1392 1.516 . S
C1393 C1394 1.502 . S
C1393 C1395 1.561 . S
C1393 C1396 1.526 . S
C1394 H1378 0.959 . S
C1394 H1379 0.959 . S
C1394 H1380 0.961 . S
C1394 C1393 1.502 . S
C1395 H1381 0.960 . S
C1395 H1382 0.961 . S
C1395 H1383 0.959 . S
C1395 C1393 1.561 . S
C1396 C1393 1.526 . S
C1396 C1397 1.396 . S
C1396 C1401 1.390 . S
C1397 C1391 1.465 . S
C1397 C1396 1.396 . S
C1397 C1398 1.399 . S
C1398 H1384 0.929 . S
C1398 C1397 1.399 . S
C1398 C1399 1.385 . S
C1399 H1385 0.931 . S
C1399 C1398 1.385 . S
C1399 C1400 1.389 . S
C1400 C1399 1.389 . S
C1400 C1401 1.387 . S
C1401 H1386 0.930 . S
C1401 C1396 1.390 . S
C1401 C1400 1.387 . S
H1402 C1414 0.930 . S
H1403 C1416 0.930 . S
H1404 C1417 0.930 . S
H1405 C1421 0.959 . S
H1406 C1421 0.959 . S
H1407 C1421 0.961 . S
H1408 C1422 0.960 . S
H1409 C1422 0.961 . S
H1410 C1422 0.959 . S
H1411 C1425 0.929 . S
H1412 C1426 0.931 . S
H1413 C1428 0.930 . S
C1414 H1402 0.930 . S
C1414 C1415 1.399 . S
C1414 C1419 1.399 . S
C1415 C1414 1.399 . S
C1415 C1416 1.376 . S
C1416 H1403 0.930 . S
C1416 C1415 1.376 . S
C1416 C1417 1.388 . S
C1417 H1404 0.930 . S
C1417 C1416 1.388 . S
C1417 C1418 1.390 . S
C1418 C1417 1.390 . S
C1418 C1419 1.394 . S
C1418 C1424 1.465 . S
C1419 C1414 1.399 . S
C1419 C1418 1.394 . S
C1419 C1420 1.516 . S
C1420 C1419 1.516 . S
C1420 C1421 1.502 . S
C1420 C1422 1.561 . S
C1420 C1423 1.526 . S
C1421 H1405 0.959 . S
C1421 H1406 0.959 . S
C1421 H1407 0.961 . S
C1421 C1420 1.502 . S
C1422 H1408 0.960 . S
C1422 H1409 0.961 . S
C1422 H1410 0.959 . S
C1422 C1420 1.561 . S
C1423 C1420 1.526 . S
C1423 C1424 1.396 . S
C1423 C1428 1.390 . S
C1424 C1418 1.465 . S
C1424 C1423 1.396 . S
C1424 C1425 1.399 . S
C1425 H1411 0.929 . S
C1425 C1424 1.399 . S
C1425 C1426 1.385 . S
C1426 H1412 0.931 . S
C1426 C1425 1.385 . S
C1426 C1427 1.389 . S
C1427 C1426 1.389 . S
C1427 C1428 1.387 . S
C1428 H1413 0.930 . S
C1428 C1423 1.390 . S
C1428 C1427 1.387 . S
H1429 C1441 0.930 . S
H1430 C1443 0.930 . S
H1431 C1444 0.930 . S
H1432 C1448 0.959 . S
H1433 C1448 0.959 . S
H1434 C1448 0.961 . S
H1435 C1449 0.960 . S
H1436 C1449 0.961 . S
H1437 C1449 0.959 . S
H1438 C1452 0.929 . S
H1439 C1453 0.931 . S
H1440 C1455 0.930 . S
C1441 H1429 0.930 . S
C1441 C1442 1.399 . S
C1441 C1446 1.399 . S
C1442 C1441 1.399 . S
C1442 C1443 1.376 . S
C1443 H1430 0.930 . S
C1443 C1442 1.376 . S
C1443 C1444 1.388 . S
C1444 H1431 0.930 . S
C1444 C1443 1.388 . S
C1444 C1445 1.390 . S
C1445 C1444 1.390 . S
C1445 C1446 1.394 . S
C1445 C1451 1.465 . S
C1446 C1441 1.399 . S
C1446 C1445 1.394 . S
C1446 C1447 1.516 . S
C1447 C1446 1.516 . S
C1447 C1448 1.502 . S
C1447 C1449 1.561 . S
C1447 C1450 1.526 . S
C1448 H1432 0.959 . S
C1448 H1433 0.959 . S
C1448 H1434 0.961 . S
C1448 C1447 1.502 . S
C1449 H1435 0.960 . S
C1449 H1436 0.961 . S
C1449 H1437 0.959 . S
C1449 C1447 1.561 . S
C1450 C1447 1.526 . S
C1450 C1451 1.396 . S
C1450 C1455 1.390 . S
C1451 C1445 1.465 . S
C1451 C1450 1.396 . S
C1451 C1452 1.399 . S
C1452 H1438 0.929 . S
C1452 C1451 1.399 . S
C1452 C1453 1.385 . S
C1453 H1439 0.931 . S
C1453 C1452 1.385 . S
C1453 C1454 1.389 . S
C1454 C1453 1.389 . S
C1454 C1455 1.387 . S
C1455 H1440 0.930 . S
C1455 C1450 1.390 . S
C1455 C1454 1.387 . S
H1456 C1468 0.930 . S
H1457 C1470 0.930 . S
H1458 C1471 0.930 . S
H1459 C1475 0.959 . S
H1460 C1475 0.959 . S
H1461 C1475 0.961 . S
H1462 C1476 0.960 . S
H1463 C1476 0.961 . S
H1464 C1476 0.959 . S
H1465 C1479 0.929 . S
H1466 C1480 0.931 . S
H1467 C1482 0.930 . S
C1468 H1456 0.930 . S
C1468 C1469 1.399 . S
C1468 C1473 1.399 . S
C1469 C1468 1.399 . S
C1469 C1470 1.376 . S
C1470 H1457 0.930 . S
C1470 C1469 1.376 . S
C1470 C1471 1.388 . S
C1471 H1458 0.930 . S
C1471 C1470 1.388 . S
C1471 C1472 1.390 . S
C1472 C1471 1.390 . S
C1472 C1473 1.394 . S
C1472 C1478 1.465 . S
C1473 C1468 1.399 . S
C1473 C1472 1.394 . S
C1473 C1474 1.516 . S
C1474 C1473 1.516 . S
C1474 C1475 1.502 . S
C1474 C1476 1.561 . S
C1474 C1477 1.526 . S
C1475 H1459 0.959 . S
C1475 H1460 0.959 . S
C1475 H1461 0.961 . S
C1475 C1474 1.502 . S
C1476 H1462 0.960 . S
C1476 H1463 0.961 . S
C1476 H1464 0.959 . S
C1476 C1474 1.561 . S
C1477 C1474 1.526 . S
C1477 C1478 1.396 . S
C1477 C1482 1.390 . S
C1478 C1472 1.465 . S
C1478 C1477 1.396 . S
C1478 C1479 1.399 . S
C1479 H1465 0.929 . S
C1479 C1478 1.399 . S
C1479 C1480 1.385 . S
C1480 H1466 0.931 . S
C1480 C1479 1.385 . S
C1480 C1481 1.389 . S
C1481 C1480 1.389 . S
C1481 C1482 1.387 . S
C1482 H1467 0.930 . S
C1482 C1477 1.390 . S
C1482 C1481 1.387 . S
H1483 C1495 0.930 . S
H1484 C1497 0.930 . S
H1485 C1498 0.930 . S
H1486 C1502 0.959 . S
H1487 C1502 0.959 . S
H1488 C1502 0.961 . S
H1489 C1503 0.960 . S
H1490 C1503 0.961 . S
H1491 C1503 0.959 . S
H1492 C1506 0.929 . S
H1493 C1507 0.931 . S
H1494 C1509 0.930 . S
C1495 H1483 0.930 . S
C1495 C1496 1.399 . S
C1495 C1500 1.399 . S
C1496 C1495 1.399 . S
C1496 C1497 1.376 . S
C1497 H1484 0.930 . S
C1497 C1496 1.376 . S
C1497 C1498 1.388 . S
C1498 H1485 0.930 . S
C1498 C1497 1.388 . S
C1498 C1499 1.390 . S
C1499 C1498 1.390 . S
C1499 C1500 1.394 . S
C1499 C1505 1.465 . S
C1500 C1495 1.399 . S
C1500 C1499 1.394 . S
C1500 C1501 1.516 . S
C1501 C1500 1.516 . S
C1501 C1502 1.502 . S
C1501 C1503 1.561 . S
C1501 C1504 1.526 . S
C1502 H1486 0.959 . S
C1502 H1487 0.959 . S
C1502 H1488 0.961 . S
C1502 C1501 1.502 . S
C1503 H1489 0.960 . S
C1503 H1490 0.961 . S
C1503 H1491 0.959 . S
C1503 C1501 1.561 . S
C1504 C1501 1.526 . S
C1504 C1505 1.396 . S
C1504 C1509 1.390 . S
C1505 C1499 1.465 . S
C1505 C1504 1.396 . S
C1505 C1506 1.399 . S
C1506 H1492 0.929 . S
C1506 C1505 1.399 . S
C1506 C1507 1.385 . S
C1507 H1493 0.931 . S
C1507 C1506 1.385 . S
C1507 C1508 1.389 . S
C1508 C1507 1.389 . S
C1508 C1509 1.387 . S
C1509 H1494 0.930 . S
C1509 C1504 1.390 . S
C1509 C1508 1.387 . S
H1510 C1522 0.930 . S
H1511 C1524 0.930 . S
H1512 C1525 0.930 . S
H1513 C1529 0.959 . S
H1514 C1529 0.959 . S
H1515 C1529 0.961 . S
H1516 C1530 0.960 . S
H1517 C1530 0.961 . S
H1518 C1530 0.959 . S
H1519 C1533 0.929 . S
H1520 C1534 0.931 . S
H1521 C1536 0.930 . S
C1522 H1510 0.930 . S
C1522 C1523 1.399 . S
C1522 C1527 1.399 . S
C1523 C1522 1.399 . S
C1523 C1524 1.376 . S
C1524 H1511 0.930 . S
C1524 C1523 1.376 . S
C1524 C1525 1.388 . S
C1525 H1512 0.930 . S
C1525 C1524 1.388 . S
C1525 C1526 1.390 . S
C1526 C1525 1.390 . S
C1526 C1527 1.394 . S
C1526 C1532 1.465 . S
C1527 C1522 1.399 . S
C1527 C1526 1.394 . S
C1527 C1528 1.516 . S
C1528 C1527 1.516 . S
C1528 C1529 1.502 . S
C1528 C1530 1.561 . S
C1528 C1531 1.526 . S
C1529 H1513 0.959 . S
C1529 H1514 0.959 . S
C1529 H1515 0.961 . S
C1529 C1528 1.502 . S
C1530 H1516 0.960 . S
C1530 H1517 0.961 . S
C1530 H1518 0.959 . S
C1530 C1528 1.561 . S
C1531 C1528 1.526 . S
C1531 C1532 1.396 . S
C1531 C1536 1.390 . S
C1532 C1526 1.465 . S
C1532 C1531 1.396 . S
C1532 C1533 1.399 . S
C1533 H1519 0.929 . S
C1533 C1532 1.399 . S
C1533 C1534 1.385 . S
C1534 H1520 0.931 . S
C1534 C1533 1.385 . S
C1534 C1535 1.389 . S
C1535 C1534 1.389 . S
C1535 C1536 1.387 . S
C1536 H1521 0.930 . S
C1536 C1531 1.390 . S
C1536 C1535 1.387 . S
H1537 C1549 0.930 . S
H1538 C1551 0.930 . S
H1539 C1552 0.930 . S
H1540 C1556 0.959 . S
H1541 C1556 0.959 . S
H1542 C1556 0.961 . S
H1543 C1557 0.960 . S
H1544 C1557 0.961 . S
H1545 C1557 0.959 . S
H1546 C1560 0.929 . S
H1547 C1561 0.931 . S
H1548 C1563 0.930 . S
C1549 H1537 0.930 . S
C1549 C1550 1.399 . S
C1549 C1554 1.399 . S
C1550 C1549 1.399 . S
C1550 C1551 1.376 . S
C1551 H1538 0.930 . S
C1551 C1550 1.376 . S
C1551 C1552 1.388 . S
C1552 H1539 0.930 . S
C1552 C1551 1.388 . S
C1552 C1553 1.390 . S
C1553 C1552 1.390 . S
C1553 C1554 1.394 . S
C1553 C1559 1.465 . S
C1554 C1549 1.399 . S
C1554 C1553 1.394 . S
C1554 C1555 1.516 . S
C1555 C1554 1.516 . S
C1555 C1556 1.502 . S
C1555 C1557 1.561 . S
C1555 C1558 1.526 . S
C1556 H1540 0.959 . S
C1556 H1541 0.959 . S
C1556 H1542 0.961 . S
C1556 C1555 1.502 . S
C1557 H1543 0.960 . S
C1557 H1544 0.961 . S
C1557 H1545 0.959 . S
C1557 C1555 1.561 . S
C1558 C1555 1.526 . S
C1558 C1559 1.396 . S
C1558 C1563 1.390 . S
C1559 C1553 1.465 . S
C1559 C1558 1.396 . S
C1559 C1560 1.399 . S
C1560 H1546 0.929 . S
C1560 C1559 1.399 . S
C1560 C1561 1.385 . S
C1561 H1547 0.931 . S
C1561 C1560 1.385 . S
C1561 C1562 1.389 . S
C1562 C1561 1.389 . S
C1562 C1563 1.387 . S
C1563 H1548 0.930 . S
C1563 C1558 1.390 . S
C1563 C1562 1.387 . S
H1564 C1576 0.930 . S
H1565 C1578 0.930 . S
H1566 C1579 0.930 . S
H1567 C1583 0.959 . S
H1568 C1583 0.959 . S
H1569 C1583 0.961 . S
H1570 C1584 0.960 . S
H1571 C1584 0.961 . S
H1572 C1584 0.959 . S
H1573 C1587 0.929 . S
H1574 C1588 0.931 . S
H1575 C1590 0.930 . S
C1576 H1564 0.930 . S
C1576 C1577 1.399 . S
C1576 C1581 1.399 . S
C1577 C1576 1.399 . S
C1577 C1578 1.376 . S
C1578 H1565 0.930 . S
C1578 C1577 1.376 . S
C1578 C1579 1.388 . S
C1579 H1566 0.930 . S
C1579 C1578 1.388 . S
C1579 C1580 1.390 . S
C1580 C1579 1.390 . S
C1580 C1581 1.394 . S
C1580 C1586 1.465 . S
C1581 C1576 1.399 . S
C1581 C1580 1.394 . S
C1581 C1582 1.516 . S
C1582 C1581 1.516 . S
C1582 C1583 1.502 . S
C1582 C1584 1.561 . S
C1582 C1585 1.526 . S
C1583 H1567 0.959 . S
C1583 H1568 0.959 . S
C1583 H1569 0.961 . S
C1583 C1582 1.502 . S
C1584 H1570 0.960 . S
C1584 H1571 0.961 . S
C1584 H1572 0.959 . S
C1584 C1582 1.561 . S
C1585 C1582 1.526 . S
C1585 C1586 1.396 . S
C1585 C1590 1.390 . S
C1586 C1580 1.465 . S
C1586 C1585 1.396 . S
C1586 C1587 1.399 . S
C1587 H1573 0.929 . S
C1587 C1586 1.399 . S
C1587 C1588 1.385 . S
C1588 H1574 0.931 . S
C1588 C1587 1.385 . S
C1588 C1589 1.389 . S
C1589 C1588 1.389 . S
C1589 C1590 1.387 . S
C1590 H1575 0.930 . S
C1590 C1585 1.390 . S
C1590 C1589 1.387 . S
H1591 C1603 0.930 . S
H1592 C1605 0.930 . S
H1593 C1606 0.930 . S
H1594 C1610 0.959 . S
H1595 C1610 0.959 . S
H1596 C1610 0.961 . S
H1597 C1611 0.960 . S
H1598 C1611 0.961 . S
H1599 C1611 0.959 . S
H1600 C1614 0.929 . S
H1601 C1615 0.931 . S
H1602 C1617 0.930 . S
C1603 H1591 0.930 . S
C1603 C1604 1.399 . S
C1603 C1608 1.399 . S
C1604 C1603 1.399 . S
C1604 C1605 1.376 . S
C1605 H1592 0.930 . S
C1605 C1604 1.376 . S
C1605 C1606 1.388 . S
C1606 H1593 0.930 . S
C1606 C1605 1.388 . S
C1606 C1607 1.390 . S
C1607 C1606 1.390 . S
C1607 C1608 1.394 . S
C1607 C1613 1.465 . S
C1608 C1603 1.399 . S
C1608 C1607 1.394 . S
C1608 C1609 1.516 . S
C1609 C1608 1.516 . S
C1609 C1610 1.502 . S
C1609 C1611 1.561 . S
C1609 C1612 1.526 . S
C1610 H1594 0.959 . S
C1610 H1595 0.959 . S
C1610 H1596 0.961 . S
C1610 C1609 1.502 . S
C1611 H1597 0.960 . S
C1611 H1598 0.961 . S
C1611 H1599 0.959 . S
C1611 C1609 1.561 . S
C1612 C1609 1.526 . S
C1612 C1613 1.396 . S
C1612 C1617 1.390 . S
C1613 C1607 1.465 . S
C1613 C1612 1.396 . S
C1613 C1614 1.399 . S
C1614 H1600 0.929 . S
C1614 C1613 1.399 . S
C1614 C1615 1.385 . S
C1615 H1601 0.931 . S
C1615 C1614 1.385 . S
C1615 C1616 1.389 . S
C1616 C1615 1.389 . S
C1616 C1617 1.387 . S
C1617 H1602 0.930 . S
C1617 C1612 1.390 . S
C1617 C1616 1.387 . S
H1618 C1630 0.930 . S
H1619 C1632 0.930 . S
H1620 C1633 0.930 . S
H1621 C1637 0.959 . S
H1622 C1637 0.959 . S
H1623 C1637 0.961 . S
H1624 C1638 0.960 . S
H1625 C1638 0.961 . S
H1626 C1638 0.959 . S
H1627 C1641 0.929 . S
H1628 C1642 0.931 . S
H1629 C1644 0.930 . S
C1630 H1618 0.930 . S
C1630 C1631 1.399 . S
C1630 C1635 1.399 . S
C1631 C1630 1.399 . S
C1631 C1632 1.376 . S
C1632 H1619 0.930 . S
C1632 C1631 1.376 . S
C1632 C1633 1.388 . S
C1633 H1620 0.930 . S
C1633 C1632 1.388 . S
C1633 C1634 1.390 . S
C1634 C1633 1.390 . S
C1634 C1635 1.394 . S
C1634 C1640 1.465 . S
C1635 C1630 1.399 . S
C1635 C1634 1.394 . S
C1635 C1636 1.516 . S
C1636 C1635 1.516 . S
C1636 C1637 1.502 . S
C1636 C1638 1.561 . S
C1636 C1639 1.526 . S
C1637 H1621 0.959 . S
C1637 H1622 0.959 . S
C1637 H1623 0.961 . S
C1637 C1636 1.502 . S
C1638 H1624 0.960 . S
C1638 H1625 0.961 . S
C1638 H1626 0.959 . S
C1638 C1636 1.561 . S
C1639 C1636 1.526 . S
C1639 C1640 1.396 . S
C1639 C1644 1.390 . S
C1640 C1634 1.465 . S
C1640 C1639 1.396 . S
C1640 C1641 1.399 . S
C1641 H1627 0.929 . S
C1641 C1640 1.399 . S
C1641 C1642 1.385 . S
C1642 H1628 0.931 . S
C1642 C1641 1.385 . S
C1642 C1643 1.389 . S
C1643 C1642 1.389 . S
C1643 C1644 1.387 . S
C1644 H1629 0.930 . S
C1644 C1639 1.390 . S
C1644 C1643 1.387 . S
H1645 C1657 0.930 . S
H1646 C1659 0.930 . S
H1647 C1660 0.930 . S
H1648 C1664 0.959 . S
H1649 C1664 0.959 . S
H1650 C1664 0.961 . S
H1651 C1665 0.960 . S
H1652 C1665 0.961 . S
H1653 C1665 0.959 . S
H1654 C1668 0.929 . S
H1655 C1669 0.931 . S
H1656 C1671 0.930 . S
C1657 H1645 0.930 . S
C1657 C1658 1.399 . S
C1657 C1662 1.399 . S
C1658 C1657 1.399 . S
C1658 C1659 1.376 . S
C1659 H1646 0.930 . S
C1659 C1658 1.376 . S
C1659 C1660 1.388 . S
C1660 H1647 0.930 . S
C1660 C1659 1.388 . S
C1660 C1661 1.390 . S
C1661 C1660 1.390 . S
C1661 C1662 1.394 . S
C1661 C1667 1.465 . S
C1662 C1657 1.399 . S
C1662 C1661 1.394 . S
C1662 C1663 1.516 . S
C1663 C1662 1.516 . S
C1663 C1664 1.502 . S
C1663 C1665 1.561 . S
C1663 C1666 1.526 . S
C1664 H1648 0.959 . S
C1664 H1649 0.959 . S
C1664 H1650 0.961 . S
C1664 C1663 1.502 . S
C1665 H1651 0.960 . S
C1665 H1652 0.961 . S
C1665 H1653 0.959 . S
C1665 C1663 1.561 . S
C1666 C1663 1.526 . S
C1666 C1667 1.396 . S
C1666 C1671 1.390 . S
C1667 C1661 1.465 . S
C1667 C1666 1.396 . S
C1667 C1668 1.399 . S
C1668 H1654 0.929 . S
C1668 C1667 1.399 . S
C1668 C1669 1.385 . S
C1669 H1655 0.931 . S
C1669 C1668 1.385 . S
C1669 C1670 1.389 . S
C1670 C1669 1.389 . S
C1670 C1671 1.387 . S
C1671 H1656 0.930 . S
C1671 C1666 1.390 . S
C1671 C1670 1.387 . S
H1672 C1684 0.930 . S
H1673 C1686 0.930 . S
H1674 C1687 0.930 . S
H1675 C1691 0.959 . S
H1676 C1691 0.959 . S
H1677 C1691 0.961 . S
H1678 C1692 0.960 . S
H1679 C1692 0.961 . S
H1680 C1692 0.959 . S
H1681 C1695 0.929 . S
H1682 C1696 0.931 . S
H1683 C1698 0.930 . S
C1684 H1672 0.930 . S
C1684 C1685 1.399 . S
C1684 C1689 1.399 . S
C1685 C1684 1.399 . S
C1685 C1686 1.376 . S
C1686 H1673 0.930 . S
C1686 C1685 1.376 . S
C1686 C1687 1.388 . S
C1687 H1674 0.930 . S
C1687 C1686 1.388 . S
C1687 C1688 1.390 . S
C1688 C1687 1.390 . S
C1688 C1689 1.394 . S
C1688 C1694 1.465 . S
C1689 C1684 1.399 . S
C1689 C1688 1.394 . S
C1689 C1690 1.516 . S
C1690 C1689 1.516 . S
C1690 C1691 1.502 . S
C1690 C1692 1.561 . S
C1690 C1693 1.526 . S
C1691 H1675 0.959 . S
C1691 H1676 0.959 . S
C1691 H1677 0.961 . S
C1691 C1690 1.502 . S
C1692 H1678 0.960 . S
C1692 H1679 0.961 . S
C1692 H1680 0.959 . S
C1692 C1690 1.561 . S
C1693 C1690 1.526 . S
C1693 C1694 1.396 . S
C1693 C1698 1.390 . S
C1694 C1688 1.465 . S
C1694 C1693 1.396 . S
C1694 C1695 1.399 . S
C1695 H1681 0.929 . S
C1695 C1694 1.399 . S
C1695 C1696 1.385 . S
C1696 H1682 0.931 . S
C1696 C1695 1.385 . S
C1696 C1697 1.389 . S
C1697 C1696 1.389 . S
C1697 C1698 1.387 . S
C1698 H1683 0.930 . S
C1698 C1693 1.390 . S
C1698 C1697 1.387 . S
H1699 C1711 0.930 . S
H1700 C1713 0.930 . S
H1701 C1714 0.930 . S
H1702 C1718 0.959 . S
H1703 C1718 0.959 . S
H1704 C1718 0.961 . S
H1705 C1719 0.960 . S
H1706 C1719 0.961 . S
H1707 C1719 0.959 . S
H1708 C1722 0.929 . S
H1709 C1723 0.931 . S
H1710 C1725 0.930 . S
C1711 H1699 0.930 . S
C1711 C1712 1.399 . S
C1711 C1716 1.399 . S
C1712 C1711 1.399 . S
C1712 C1713 1.376 . S
C1713 H1700 0.930 . S
C1713 C1712 1.376 . S
C1713 C1714 1.388 . S
C1714 H1701 0.930 . S
C1714 C1713 1.388 . S
C1714 C1715 1.390 . S
C1715 C1714 1.390 . S
C1715 C1716 1.394 . S
C1715 C1721 1.465 . S
C1716 C1711 1.399 . S
C1716 C1715 1.394 . S
C1716 C1717 1.516 . S
C1717 C1716 1.516 . S
C1717 C1718 1.502 . S
C1717 C1719 1.561 . S
C1717 C1720 1.526 . S
C1718 H1702 0.959 . S
C1718 H1703 0.959 . S
C1718 H1704 0.961 . S
C1718 C1717 1.502 . S
C1719 H1705 0.960 . S
C1719 H1706 0.961 . S
C1719 H1707 0.959 . S
C1719 C1717 1.561 . S
C1720 C1717 1.526 . S
C1720 C1721 1.396 . S
C1720 C1725 1.390 . S
C1721 C1715 1.465 . S
C1721 C1720 1.396 . S
C1721 C1722 1.399 . S
C1722 H1708 0.929 . S
C1722 C1721 1.399 . S
C1722 C1723 1.385 . S
C1723 H1709 0.931 . S
C1723 C1722 1.385 . S
C1723 C1724 1.389 . S
C1724 C1723 1.389 . S
C1724 C1725 1.387 . S
C1725 H1710 0.930 . S
C1725 C1720 1.390 . S
C1725 C1724 1.387 . S
H1726 C1738 0.930 . S
H1727 C1740 0.930 . S
H1728 C1741 0.930 . S
H1729 C1745 0.959 . S
H1730 C1745 0.959 . S
H1731 C1745 0.961 . S
H1732 C1746 0.960 . S
H1733 C1746 0.961 . S
H1734 C1746 0.959 . S
H1735 C1749 0.929 . S
H1736 C1750 0.931 . S
H1737 C1752 0.930 . S
C1738 H1726 0.930 . S
C1738 C1739 1.399 . S
C1738 C1743 1.399 . S
C1739 C1738 1.399 . S
C1739 C1740 1.376 . S
C1740 H1727 0.930 . S
C1740 C1739 1.376 . S
C1740 C1741 1.388 . S
C1741 H1728 0.930 . S
C1741 C1740 1.388 . S
C1741 C1742 1.390 . S
C1742 C1741 1.390 . S
C1742 C1743 1.394 . S
C1742 C1748 1.465 . S
C1743 C1738 1.399 . S
C1743 C1742 1.394 . S
C1743 C1744 1.516 . S
C1744 C1743 1.516 . S
C1744 C1745 1.502 . S
C1744 C1746 1.561 . S
C1744 C1747 1.526 . S
C1745 H1729 0.959 . S
C1745 H1730 0.959 . S
C1745 H1731 0.961 . S
C1745 C1744 1.502 . S
C1746 H1732 0.960 . S
C1746 H1733 0.961 . S
C1746 H1734 0.959 . S
C1746 C1744 1.561 . S
C1747 C1744 1.526 . S
C1747 C1748 1.396 . S
C1747 C1752 1.390 . S
C1748 C1742 1.465 . S
C1748 C1747 1.396 . S
C1748 C1749 1.399 . S
C1749 H1735 0.929 . S
C1749 C1748 1.399 . S
C1749 C1750 1.385 . S
C1750 H1736 0.931 . S
C1750 C1749 1.385 . S
C1750 C1751 1.389 . S
C1751 C1750 1.389 . S
C1751 C1752 1.387 . S
C1752 H1737 0.930 . S
C1752 C1747 1.390 . S
C1752 C1751 1.387 . S
H1753 C1765 0.930 . S
H1754 C1767 0.930 . S
H1755 C1768 0.930 . S
H1756 C1772 0.959 . S
H1757 C1772 0.959 . S
H1758 C1772 0.961 . S
H1759 C1773 0.960 . S
H1760 C1773 0.961 . S
H1761 C1773 0.959 . S
H1762 C1776 0.929 . S
H1763 C1777 0.931 . S
H1764 C1779 0.930 . S
C1765 H1753 0.930 . S
C1765 C1766 1.399 . S
C1765 C1770 1.399 . S
C1766 C1765 1.399 . S
C1766 C1767 1.376 . S
C1767 H1754 0.930 . S
C1767 C1766 1.376 . S
C1767 C1768 1.388 . S
C1768 H1755 0.930 . S
C1768 C1767 1.388 . S
C1768 C1769 1.390 . S
C1769 C1768 1.390 . S
C1769 C1770 1.394 . S
C1769 C1775 1.465 . S
C1770 C1765 1.399 . S
C1770 C1769 1.394 . S
C1770 C1771 1.516 . S
C1771 C1770 1.516 . S
C1771 C1772 1.502 . S
C1771 C1773 1.561 . S
C1771 C1774 1.526 . S
C1772 H1756 0.959 . S
C1772 H1757 0.959 . S
C1772 H1758 0.961 . S
C1772 C1771 1.502 . S
C1773 H1759 0.960 . S
C1773 H1760 0.961 . S
C1773 H1761 0.959 . S
C1773 C1771 1.561 . S
C1774 C1771 1.526 . S
C1774 C1775 1.396 . S
C1774 C1779 1.390 . S
C1775 C1769 1.465 . S
C1775 C1774 1.396 . S
C1775 C1776 1.399 . S
C1776 H1762 0.929 . S
C1776 C1775 1.399 . S
C1776 C1777 1.385 . S
C1777 H1763 0.931 . S
C1777 C1776 1.385 . S
C1777 C1778 1.389 . S
C1778 C1777 1.389 . S
C1778 C1779 1.387 . S
C1779 H1764 0.930 . S
C1779 C1774 1.390 . S
C1779 C1778 1.387 . S
H1780 C1792 0.930 . S
H1781 C1794 0.930 . S
H1782 C1795 0.930 . S
H1783 C1799 0.959 . S
H1784 C1799 0.959 . S
H1785 C1799 0.961 . S
H1786 C1800 0.960 . S
H1787 C1800 0.961 . S
H1788 C1800 0.959 . S
H1789 C1803 0.929 . S
H1790 C1804 0.931 . S
H1791 C1806 0.930 . S
C1792 H1780 0.930 . S
C1792 C1793 1.399 . S
C1792 C1797 1.399 . S
C1793 C1792 1.399 . S
C1793 C1794 1.376 . S
C1794 H1781 0.930 . S
C1794 C1793 1.376 . S
C1794 C1795 1.388 . S
C1795 H1782 0.930 . S
C1795 C1794 1.388 . S
C1795 C1796 1.390 . S
C1796 C1795 1.390 . S
C1796 C1797 1.394 . S
C1796 C1802 1.465 . S
C1797 C1792 1.399 . S
C1797 C1796 1.394 . S
C1797 C1798 1.516 . S
C1798 C1797 1.516 . S
C1798 C1799 1.502 . S
C1798 C1800 1.561 . S
C1798 C1801 1.526 . S
C1799 H1783 0.959 . S
C1799 H1784 0.959 . S
C1799 H1785 0.961 . S
C1799 C1798 1.502 . S
C1800 H1786 0.960 . S
C1800 H1787 0.961 . S
C1800 H1788 0.959 . S
C1800 C1798 1.561 . S
C1801 C1798 1.526 . S
C1801 C1802 1.396 . S
C1801 C1806 1.390 . S
C1802 C1796 1.465 . S
C1802 C1801 1.396 . S
C1802 C1803 1.399 . S
C1803 H1789 0.929 . S
C1803 C1802 1.399 . S
C1803 C1804 1.385 . S
C1804 H1790 0.931 . S
C1804 C1803 1.385 . S
C1804 C1805 1.389 . S
C1805 C1804 1.389 . S
C1805 C1806 1.387 . S
C1806 H1791 0.930 . S
C1806 C1801 1.390 . S
C1806 C1805 1.387 . S
H1807 C1819 0.930 . S
H1808 C1821 0.930 . S
H1809 C1822 0.930 . S
H1810 C1826 0.959 . S
H1811 C1826 0.959 . S
H1812 C1826 0.961 . S
H1813 C1827 0.960 . S
H1814 C1827 0.961 . S
H1815 C1827 0.959 . S
H1816 C1830 0.929 . S
H1817 C1831 0.931 . S
H1818 C1833 0.930 . S
C1819 H1807 0.930 . S
C1819 C1820 1.399 . S
C1819 C1824 1.399 . S
C1820 C1819 1.399 . S
C1820 C1821 1.376 . S
C1821 H1808 0.930 . S
C1821 C1820 1.376 . S
C1821 C1822 1.388 . S
C1822 H1809 0.930 . S
C1822 C1821 1.388 . S
C1822 C1823 1.390 . S
C1823 C1822 1.390 . S
C1823 C1824 1.394 . S
C1823 C1829 1.465 . S
C1824 C1819 1.399 . S
C1824 C1823 1.394 . S
C1824 C1825 1.516 . S
C1825 C1824 1.516 . S
C1825 C1826 1.502 . S
C1825 C1827 1.561 . S
C1825 C1828 1.526 . S
C1826 H1810 0.959 . S
C1826 H1811 0.959 . S
C1826 H1812 0.961 . S
C1826 C1825 1.502 . S
C1827 H1813 0.960 . S
C1827 H1814 0.961 . S
C1827 H1815 0.959 . S
C1827 C1825 1.561 . S
C1828 C1825 1.526 . S
C1828 C1829 1.396 . S
C1828 C1833 1.390 . S
C1829 C1823 1.465 . S
C1829 C1828 1.396 . S
C1829 C1830 1.399 . S
C1830 H1816 0.929 . S
C1830 C1829 1.399 . S
C1830 C1831 1.385 . S
C1831 H1817 0.931 . S
C1831 C1830 1.385 . S
C1831 C1832 1.389 . S
C1832 C1831 1.389 . S
C1832 C1833 1.387 . S
C1833 H1818 0.930 . S
C1833 C1828 1.390 . S
C1833 C1832 1.387 . S
H1834 C1846 0.930 . S
H1835 C1848 0.930 . S
H1836 C1849 0.930 . S
H1837 C1853 0.959 . S
H1838 C1853 0.959 . S
H1839 C1853 0.961 . S
H1840 C1854 0.960 . S
H1841 C1854 0.961 . S
H1842 C1854 0.959 . S
H1843 C1857 0.929 . S
H1844 C1858 0.931 . S
H1845 C1860 0.930 . S
C1846 H1834 0.930 . S
C1846 C1847 1.399 . S
C1846 C1851 1.399 . S
C1847 C1846 1.399 . S
C1847 C1848 1.376 . S
C1848 H1835 0.930 . S
C1848 C1847 1.376 . S
C1848 C1849 1.388 . S
C1849 H1836 0.930 . S
C1849 C1848 1.388 . S
C1849 C1850 1.390 . S
C1850 C1849 1.390 . S
C1850 C1851 1.394 . S
C1850 C1856 1.465 . S
C1851 C1846 1.399 . S
C1851 C1850 1.394 . S
C1851 C1852 1.516 . S
C1852 C1851 1.516 . S
C1852 C1853 1.502 . S
C1852 C1854 1.561 . S
C1852 C1855 1.526 . S
C1853 H1837 0.959 . S
C1853 H1838 0.959 . S
C1853 H1839 0.961 . S
C1853 C1852 1.502 . S
C1854 H1840 0.960 . S
C1854 H1841 0.961 . S
C1854 H1842 0.959 . S
C1854 C1852 1.561 . S
C1855 C1852 1.526 . S
C1855 C1856 1.396 . S
C1855 C1860 1.390 . S
C1856 C1850 1.465 . S
C1856 C1855 1.396 . S
C1856 C1857 1.399 . S
C1857 H1843 0.929 . S
C1857 C1856 1.399 . S
C1857 C1858 1.385 . S
C1858 H1844 0.931 . S
C1858 C1857 1.385 . S
C1858 C1859 1.389 . S
C1859 C1858 1.389 . S
C1859 C1860 1.387 . S
C1860 H1845 0.930 . S
C1860 C1855 1.390 . S
C1860 C1859 1.387 . S
H1861 C1873 0.930 . S
H1862 C1875 0.930 . S
H1863 C1876 0.930 . S
H1864 C1880 0.959 . S
H1865 C1880 0.959 . S
H1866 C1880 0.961 . S
H1867 C1881 0.960 . S
H1868 C1881 0.961 . S
H1869 C1881 0.959 . S
H1870 C1884 0.929 . S
H1871 C1885 0.931 . S
H1872 C1887 0.930 . S
C1873 H1861 0.930 . S
C1873 C1874 1.399 . S
C1873 C1878 1.399 . S
C1874 C1873 1.399 . S
C1874 C1875 1.376 . S
C1875 H1862 0.930 . S
C1875 C1874 1.376 . S
C1875 C1876 1.388 . S
C1876 H1863 0.930 . S
C1876 C1875 1.388 . S
C1876 C1877 1.390 . S
C1877 C1876 1.390 . S
C1877 C1878 1.394 . S
C1877 C1883 1.465 . S
C1878 C1873 1.399 . S
C1878 C1877 1.394 . S
C1878 C1879 1.516 . S
C1879 C1878 1.516 . S
C1879 C1880 1.502 . S
C1879 C1881 1.561 . S
C1879 C1882 1.526 . S
C1880 H1864 0.959 . S
C1880 H1865 0.959 . S
C1880 H1866 0.961 . S
C1880 C1879 1.502 . S
C1881 H1867 0.960 . S
C1881 H1868 0.961 . S
C1881 H1869 0.959 . S
C1881 C1879 1.561 . S
C1882 C1879 1.526 . S
C1882 C1883 1.396 . S
C1882 C1887 1.390 . S
C1883 C1877 1.465 . S
C1883 C1882 1.396 . S
C1883 C1884 1.399 . S
C1884 H1870 0.929 . S
C1884 C1883 1.399 . S
C1884 C1885 1.385 . S
C1885 H1871 0.931 . S
C1885 C1884 1.385 . S
C1885 C1886 1.389 . S
C1886 C1885 1.389 . S
C1886 C1887 1.387 . S
C1887 H1872 0.930 . S
C1887 C1882 1.390 . S
C1887 C1886 1.387 . S
C1049 C913 1.518 . S
C1037 C29 1.289 . S
C1076 C939 1.679 . S
C1064 C125 0.869 . S
C1103 C953 1.502 . S
C1091 C257 1.128 . S
C1130 C955 1.661 . S
C1118 C353 1.047 . S
C1145 C457 1.070 . S
C1157 C952 1.484 . S
C1184 C954 1.634 . S
C1172 C625 1.219 . S
C1211 C912 1.486 . S
C1199 C685 1.080 . S
C1238 C938 1.651 . S
C1226 C853 1.276 . S
C1265 C940 1.675 . S
C1253 C809 1.169 . S
C1292 C966 1.512 . S
C1280 C485 1.212 . S
C1319 C924 1.681 . S
C1307 C581 1.184 . S
C1346 C926 1.512 . S
C1334 C713 1.258 . S
C1373 C925 1.674 . S
C1361 C169 1.320 . S
C1400 C927 1.454 . S
C1388 C229 1.219 . S
C1427 C941 1.672 . S
C1415 C397 1.142 . S
C1454 C967 1.477 . S
C1442 C1 1.191 . S
C1481 C969 1.523 . S
C1469 C827 1.277 . S
C1496 C467 0.916 . S
C1508 C995 1.667 . S
C1523 C599 1.128 . S
C1535 C1008 1.503 . S
C1550 C695 1.057 . S
C1562 C1011 1.658 . S
C1577 C115 1.085 . S
C1589 C1009 1.486 . S
C1604 C283 1.343 . S
C1616 C1010 1.666 . S
C1631 C343 1.132 . S
C1643 C968 1.470 . S
C1670 C994 1.649 . S
C1658 C55 1.268 . S
C1697 C997 1.698 . S
C1685 C11 0.992 . S
C1712 C143 1.163 . S
C1724 C1022 1.506 . S
C1739 C239 1.185 . S
C1751 C980 1.681 . S
C1766 C371 1.225 . S
C1778 C982 1.483 . S
C1805 C981 1.683 . S
C1793 C511 1.309 . S
C1832 C983 1.458 . S
C1820 C571 1.066 . S
C1847 C739 1.318 . S
C1859 C996 1.676 . S
C1886 C1023 1.454 . S
C1874 C799 1.086 . S
