# Generated by pormake.
# Topology rtl, (3,6)-cn, num edge types: 1
# Building blocks:
#     Node 0, Type 0, BuildingBlock: BETDAH_clean_linker_0, # of connection points: 3
#     Node 1, Type 0, BuildingBlock: BETDAH_clean_linker_0, # of connection points: 3
#     Node 2, Type 0, BuildingBlock: BETDAH_clean_linker_0, # of connection points: 3
#     Node 3, Type 0, BuildingBlock: BETDAH_clean_linker_0, # of connection points: 3
#     Node 4, Type 1, BuildingBlock: KUMBOL_clean_sbu_1, # of connection points: 6
#     Node 5, Type 1, BuildingBlock: KUMBOL_clean_sbu_1, # of connection points: 6
#     Edge 6, Type (0, 1), BuildingBlock: TEMPAE_clean_linker_10, # of connection points: 2
#     Edge 7, Type (0, 1), BuildingBlock: TEMPAE_clean_linker_10, # of connection points: 2
#     Edge 8, Type (0, 1), BuildingBlock: TEMPAE_clean_linker_10, # of connection points: 2
#     Edge 9, Type (0, 1), BuildingBlock: TEMPAE_clean_linker_10, # of connection points: 2
#     Edge 10, Type (0, 1), BuildingBlock: TEMPAE_clean_linker_10, # of connection points: 2
#     Edge 11, Type (0, 1), BuildingBlock: TEMPAE_clean_linker_10, # of connection points: 2
#     Edge 12, Type (0, 1), BuildingBlock: TEMPAE_clean_linker_10, # of connection points: 2
#     Edge 13, Type (0, 1), BuildingBlock: TEMPAE_clean_linker_10, # of connection points: 2
#     Edge 14, Type (0, 1), BuildingBlock: TEMPAE_clean_linker_10, # of connection points: 2
#     Edge 15, Type (0, 1), BuildingBlock: TEMPAE_clean_linker_10, # of connection points: 2
#     Edge 16, Type (0, 1), BuildingBlock: TEMPAE_clean_linker_10, # of connection points: 2
#     Edge 17, Type (0, 1), BuildingBlock: TEMPAE_clean_linker_10, # of connection points: 2
# Relax obj value: 0.049
# Max RMSD: 0.218
# Mean RMSD: 0.157
data_MOF--net-rtl--node1-KUMBOL_clean_sbu_1--node2-BETDAH_clean_linker_0--edge1-TEMPAE_clean_linker_10
_symmetry_space_group_name_H-M    P1
_symmetry_Int_Tables_number       1
_symmetry_cell_setting            triclinic
loop_
_symmetry_equiv_pos_as_xyz
'x, y, z'
_cell_length_a     35.892152
_cell_length_b     35.976144
_cell_length_c     27.55114
_cell_angle_alpha  78.405452
_cell_angle_beta   100.97338
_cell_angle_gamma 91.241684
loop_
_atom_site_label
_atom_site_type_symbol
_atom_site_fract_x
_atom_site_fract_y
_atom_site_fract_z
_atom_type_partial_charge
H0 H 0.16139 0.89299 1.00234 0.0
H1 H 0.25208 0.83857 0.11729 0.0
H2 H 0.24631 0.82719 0.96351 0.0
C3 C 0.18637 0.8746 0.01327 0.0
C4 C 0.20072 0.86032 0.97645 0.0
C5 C 0.20395 0.8662 0.06411 0.0
C6 C 0.23792 0.84506 0.07807 0.0
C7 C 0.25342 0.83105 0.0422 0.0
C8 C 0.23462 0.83832 0.99123 0.0
N9 N 0.28826 0.81042 0.05945 0.0
C10 C 0.30372 0.78651 0.0344 0.0
H11 H 0.64474 0.63945 0.64117 0.0
H12 H 0.71579 0.72692 0.57908 0.0
H13 H 0.69029 0.72435 0.72557 0.0
C14 C 0.66099 0.66481 0.64466 0.0
C15 C 0.66522 0.67912 0.68938 0.0
C16 C 0.67849 0.6822 0.6044 0.0
C17 C 0.70198 0.71359 0.60969 0.0
C18 C 0.70641 0.72842 0.65394 0.0
C19 C 0.68746 0.7116 0.69268 0.0
N20 N 0.72891 0.76062 0.66113 0.0
C21 C 0.75402 0.77812 0.63114 0.0
H22 H 0.85963 0.1195 0.08663 0.0
H23 H 0.78067 0.18472 0.13823 0.0
H24 H 0.76255 0.17359 0.98336 0.0
C25 C 0.83446 0.1373 0.07956 0.0
C26 C 0.81344 0.14625 0.03032 0.0
C27 C 0.8234 0.15111 0.11925 0.0
C28 C 0.78992 0.17371 0.10861 0.0
C29 C 0.76781 0.18129 0.05954 0.0
C30 C 0.77975 0.16752 0.02102 0.0
N31 N 0.73234 0.20085 0.04748 0.0
C32 C 0.72214 0.22917 0.0703 0.0
H33 H 0.38526 0.3746 0.45985 0.0
H34 H 0.30675 0.28989 0.51003 0.0
H35 H 0.32166 0.31131 0.35592 0.0
C36 C 0.36513 0.35267 0.45214 0.0
C37 C 0.35602 0.34539 0.40306 0.0
C38 C 0.34773 0.33277 0.49111 0.0
C39 C 0.32018 0.30552 0.4803 0.0
C40 C 0.31061 0.29803 0.43126 0.0
C41 C 0.32874 0.31785 0.39327 0.0
N42 N 0.28328 0.27068 0.41827 0.0
C43 C 0.26159 0.24899 0.45011 0.0
C44 C 0.95122 0.11921 0.50838 0.0
C45 C 0.88774 0.10457 0.46868 0.0
C46 C 0.92269 0.09293 0.50104 0.0
C47 C 0.88219 0.14256 0.44324 0.0
C48 C 0.94565 0.15739 0.48304 0.0
C49 C 0.91102 0.16888 0.45042 0.0
N50 N 0.98451 0.10727 0.54012 0.0
C51 C 0.01307 0.13208 0.54889 0.0
C52 C 0.97515 0.18286 0.49111 0.0
C53 C 0.00897 0.17015 0.52428 0.0
Gd54 Gd 0.04 0.97163 0.51534 0.0
Gd55 Gd 0.98915 0.04287 0.57898 0.0
N56 N 0.92887 0.05629 0.5265 0.0
C57 C 0.85913 0.07784 0.46362 0.0
C58 C 0.89998 0.03103 0.52456 0.0
C59 C 0.8651 0.04108 0.49227 0.0
H60 H 0.90296 0.00351 0.54884 0.0
H61 H 0.84256 0.02064 0.49029 0.0
H62 H 0.12503 0.00944 0.55658 0.0
H63 H 0.03881 0.12266 0.57554 0.0
H64 H 0.18497 0.98852 0.61402 0.0
H65 H 0.83196 0.08561 0.43895 0.0
H66 H 0.85554 0.15197 0.41824 0.0
H67 H 0.98808 0.89355 0.51139 0.0
H68 H 0.97203 0.2124 0.47217 0.0
H69 H 0.0318 0.18971 0.53116 0.0
H70 H 0.17139 0.85444 0.66638 0.0
H71 H 0.90626 0.19808 0.43053 0.0
H72 H 0.05397 0.79885 0.6045 0.0
H73 H 0.99411 0.82504 0.54855 0.0
N74 N 0.04314 0.90619 0.54776 0.0
C75 C 0.07652 0.89238 0.57771 0.0
C76 C 0.01388 0.88256 0.53681 0.0
C77 C 0.05133 0.82899 0.58864 0.0
C78 C 0.01743 0.84368 0.55725 0.0
C79 C 0.08143 0.85334 0.59915 0.0
H80 H 0.12015 0.81004 0.64771 0.0
N81 N 0.09947 0.9553 0.56835 0.0
C82 C 0.10548 0.91758 0.58832 0.0
C83 C 0.16854 0.93013 0.63055 0.0
C84 C 0.14004 0.9041 0.62043 0.0
C85 C 0.12806 0.98035 0.57582 0.0
C86 C 0.16265 0.96834 0.60768 0.0
O87 O 0.99025 0.05798 0.49513 0.0
O88 O 0.98603 1.00102 0.46967 0.0
O89 O 0.07522 0.98676 0.45874 0.0
O90 O 0.04036 0.93698 0.45938 0.0
O91 O 0.9689 0.98189 0.58576 0.0
O92 O 0.97743 0.96206 0.51371 0.0
O93 O 0.04026 0.9556 0.59907 0.0
O94 O 0.04261 0.0124 0.62539 0.0
O95 O 0.95673 0.02891 0.63913 0.0
O96 O 0.9903 0.07945 0.63327 0.0
O97 O 0.06066 0.03237 0.50939 0.0
O98 O 0.05171 0.05261 0.58102 0.0
C99 C 0.97891 0.03761 0.46073 0.0
C100 C 0.96067 0.95939 0.55286 0.0
C101 C 0.05231 0.96911 0.381 0.0
C102 C 0.06443 0.96486 0.29819 0.0
C103 C 0.00943 1.00028 0.30549 0.0
C104 C 0.01981 0.99137 0.35797 0.0
C105 C 0.03154 0.98712 0.27564 0.0
C106 C 0.07461 0.95606 0.35115 0.0
C107 C 0.06329 0.95906 0.43606 0.0
C108 C 0.14508 0.86522 0.64151 0.0
C109 C 0.11591 0.83991 0.63083 0.0
H110 H 0.1954 0.92093 0.6552 0.0
C111 C 0.05009 0.9758 0.634 0.0
C112 C 0.06846 0.05522 0.54187 0.0
C113 C 0.93363 0.0812 0.66465 0.0
C114 C 0.89397 0.09641 0.721 0.0
C115 C 0.87924 0.12398 0.63144 0.0
C116 C 0.91048 0.105 0.62411 0.0
C117 C 0.87088 0.11964 0.67954 0.0
C118 C 0.9255 0.07721 0.71335 0.0
C119 C 0.96556 0.05983 0.65614 0.0
H120 H 0.98407 0.01719 0.28795 0.0
H121 H 1.00256 1.00169 0.38063 0.0
H122 H 0.02259 0.99389 0.235 0.0
H123 H 0.10005 0.93931 0.36928 0.0
H124 H 0.86158 0.14223 0.59976 0.0
H125 H 0.91647 0.10907 0.58683 0.0
H126 H 0.84676 0.1351 0.68454 0.0
H127 H 0.94334 0.05901 0.74501 0.0
C128 C 0.61158 0.59 0.04359 0.0
C129 C 0.58685 0.65418 0.02946 0.0
C130 C 0.58419 0.61492 0.04815 0.0
C131 C 0.61653 0.66762 0.00429 0.0
C132 C 0.64235 0.60345 0.02037 0.0
C133 C 0.6444 0.64234 1.00016 0.0
N134 N 0.60888 0.55263 0.06373 0.0
C135 C 0.6375 0.52756 0.06592 0.0
C136 C 0.67065 0.57751 0.01946 0.0
C137 C 0.66845 0.53948 0.04294 0.0
Gd138 Gd 0.47504 0.48848 1.00281 0.0
Gd139 Gd 0.55506 0.53452 0.09891 0.0
N140 N 0.55653 0.60108 0.07398 0.0
C141 C 0.56056 0.67887 0.03861 0.0
C142 C 0.53321 0.62535 0.08704 0.0
C143 C 0.53407 0.66443 0.06836 0.0
H144 H 0.51399 0.61469 0.11214 0.0
H145 H 0.51471 0.68341 0.07758 0.0
H146 H 0.49821 0.397 0.03586 0.0
H147 H 0.63563 0.49817 0.08405 0.0
H148 H 0.47262 0.33717 0.07795 0.0
H149 H 0.56155 0.70921 0.02478 0.0
H150 H 0.61895 0.69766 0.98948 0.0
H151 H 0.40274 0.55278 0.97658 0.0
H152 H 0.69471 0.58671 1.00183 0.0
H153 H 0.69058 0.51939 0.04339 0.0
H154 H 0.35638 0.37584 0.11687 0.0
H155 H 0.668 0.6533 0.98259 0.0
H156 H 0.31656 0.50591 0.05719 0.0
H157 H 0.34203 0.55993 1.00299 0.0
N158 N 0.41497 0.49761 0.02206 0.0
C159 C 0.40028 0.46681 0.04902 0.0
C160 C 0.39349 0.53001 1.00326 0.0
C161 C 0.3441 0.5032 0.04747 0.0
C162 C 0.35841 0.53377 0.01698 0.0
C163 C 0.36446 0.46877 0.06246 0.0
H164 H 0.32193 0.43697 0.09902 0.0
N165 N 0.45374 0.43133 0.04521 0.0
C166 C 0.41986 0.43245 0.06002 0.0
C167 C 0.42359 0.36457 0.09081 0.0
C168 C 0.40404 0.3991 0.08375 0.0
C169 C 0.47221 0.39763 0.05003 0.0
C170 C 0.45766 0.3638 0.07348 0.0
O171 O 0.56361 0.52935 0.02106 0.0
O172 O 0.50544 0.54049 0.96946 0.0
O173 O 0.48355 0.45856 0.94402 0.0
O174 O 0.43157 0.48982 0.9359 0.0
O175 O 0.49428 0.55662 0.08297 0.0
O176 O 0.47103 0.55171 1.00049 0.0
O177 O 0.49009 0.46386 0.08722 0.0
O178 O 0.5004 0.51539 0.12435 0.0
O179 O 0.58213 0.55996 0.16352 0.0
O180 O 0.5856 0.49893 0.1664 0.0
O181 O 0.53416 0.46249 0.01772 0.0
O182 O 0.56389 0.47264 0.09691 0.0
C183 C 0.54224 0.54561 0.97837 0.0
C184 C 0.47246 0.569 0.03863 0.0
C185 C 0.42722 0.43468 0.90141 0.0
C186 C 0.40583 0.39561 0.83848 0.0
C187 C 0.38248 0.38409 0.91733 0.0
C188 C 0.40379 0.41405 0.9322 0.0
C189 C 0.38346 0.37484 0.87088 0.0
C190 C 0.42795 0.42554 0.85421 0.0
C191 C 0.44955 0.46656 0.9176 0.0
C192 C 0.36896 0.40116 0.09851 0.0
C193 C 0.34935 0.43597 0.08829 0.0
H194 H 0.41233 0.33831 0.10886 0.0
C195 C 0.48636 0.48151 0.12344 0.0
C196 C 0.55973 0.45357 0.05993 0.0
C197 C 0.61973 0.52 0.23995 0.0
C198 C 0.64375 0.53721 0.32187 0.0
C199 C 0.66805 0.48072 0.30141 0.0
C200 C 0.64402 0.48797 0.25443 0.0
C201 C 0.66804 0.50507 0.33482 0.0
C202 C 0.61982 0.54481 0.27373 0.0
C203 C 0.59511 0.52694 0.18933 0.0
H204 H 0.36456 0.36842 0.94152 0.0
H205 H 0.40127 0.4215 0.96731 0.0
H206 H 0.36573 0.35212 0.85964 0.0
H207 H 0.44544 0.44176 0.82977 0.0
H208 H 0.68689 0.45613 0.31196 0.0
H209 H 0.64477 0.46862 0.22912 0.0
H210 H 0.68745 0.49886 0.37081 0.0
H211 H 0.60089 0.56936 0.263 0.0
C212 C 0.24743 0.18623 0.49742 0.0
C213 C 0.23591 0.22358 0.4747 0.0
C214 C 0.2211 0.15928 0.51369 0.0
C215 C 0.18235 0.17003 0.50664 0.0
C216 C 0.17107 0.20833 0.48571 0.0
C217 C 0.19805 0.23466 0.46981 0.0
C218 C 0.23439 0.11885 0.53586 0.0
C219 C 0.13015 0.22104 0.47752 0.0
C220 C 0.10873 0.09413 0.48651 0.0
C221 C 0.09763 0.08468 0.53357 0.0
C222 C 0.13615 0.12177 0.47744 0.0
C223 C 0.15316 0.14058 0.51639 0.0
C224 C 0.14221 0.13116 0.56409 0.0
C225 C 0.11463 0.10329 0.57215 0.0
C226 C 0.14686 0.1309 0.42596 0.0
C227 C 0.15967 0.15048 0.6066 0.0
H228 H 0.27674 0.1777 0.50061 0.0
H229 H 0.18919 0.26355 0.45166 0.0
H230 H 0.22399 0.10836 0.57151 0.0
H231 H 0.22247 0.10032 0.50921 0.0
H232 H 0.26583 0.11592 0.54358 0.0
H233 H 0.12667 0.25237 0.46581 0.0
H234 H 0.11289 0.20787 0.44775 0.0
H235 H 0.11857 0.21155 0.51248 0.0
H236 H 0.09576 0.08006 0.45634 0.0
H237 H 0.10655 0.09594 0.6088 0.0
H238 H 0.1777 0.12568 0.42948 0.0
H239 H 0.14108 0.16138 0.40898 0.0
H240 H 0.13104 0.1137 0.39976 0.0
H241 H 0.19086 0.14562 0.61557 0.0
H242 H 0.14802 0.14008 0.64138 0.0
H243 H 0.15456 0.18158 0.59489 0.0
C244 C 0.3094 0.72429 0.01181 0.0
C245 C 0.32566 0.75859 0.02048 0.0
C246 C 0.33226 0.69389 0.00878 0.0
C247 C 0.37218 0.69803 0.01525 0.0
C248 C 0.38833 0.73345 0.02149 0.0
C249 C 0.36477 0.76335 0.02408 0.0
C250 C 0.31397 0.65669 1.00168 0.0
C251 C 0.43072 0.73901 0.02878 0.0
C252 C 0.43452 0.61053 0.0742 0.0
C253 C 0.44683 0.602 0.03234 0.0
C254 C 0.41004 0.64153 0.06898 0.0
C255 C 0.39735 0.66449 0.02062 0.0
C256 C 0.40945 0.65583 0.9781 0.0
C257 C 0.43414 0.62471 0.98449 0.0
C258 C 0.39791 0.64981 0.11535 0.0
C259 C 0.39646 0.67955 0.92597 0.0
H260 H 0.2791 0.72066 0.00974 0.0
H261 H 0.37721 0.78987 0.03153 0.0
H262 H 0.32461 0.64585 0.9718 0.0
H263 H 0.32161 0.6352 0.03715 0.0
H264 H 0.28253 0.65936 0.99148 0.0
H265 H 0.43838 0.76918 0.02793 0.0
H266 H 0.44458 0.72187 0.06572 0.0
H267 H 0.44246 0.72898 0.99914 0.0
H268 H 0.44388 0.59277 0.11117 0.0
H269 H 0.44368 0.61822 0.95203 0.0
H270 H 0.36651 0.64934 0.1105 0.0
H271 H 0.40697 0.67865 0.12064 0.0
H272 H 0.41008 0.62902 0.15011 0.0
H273 H 0.365 0.68039 0.91622 0.0
H274 H 0.40767 0.66846 0.89664 0.0
H275 H 0.40592 0.70919 0.92513 0.0
C276 C 0.77391 0.83899 0.58554 0.0
C277 C 0.78234 0.80103 0.60859 0.0
C278 C 0.80263 0.86383 0.57173 0.0
C279 C 0.84068 0.85029 0.58149 0.0
C280 C 0.84889 0.81137 0.60268 0.0
C281 C 0.81956 0.7872 0.61623 0.0
C282 C 0.79257 0.90503 0.54933 0.0
C283 C 0.88896 0.79571 0.61354 0.0
C284 C 0.91349 0.91285 0.5207 0.0
C285 C 0.93056 0.93075 0.55999 0.0
C286 C 0.88461 0.88622 0.52723 0.0
C287 C 0.87215 0.87752 0.57397 0.0
C288 C 0.88929 0.89551 0.61371 0.0
C289 C 0.91822 0.92177 0.60628 0.0
C290 C 0.86719 0.86762 0.48398 0.0
C291 C 0.87686 0.88726 0.66414 0.0
H292 H 0.74509 0.84968 0.58031 0.0
H293 H 0.82603 0.75787 0.63471 0.0
H294 H 0.8052 0.92281 0.57664 0.0
H295 H 0.80454 0.91446 0.51468 0.0
H296 H 0.7614 0.9103 0.53982 0.0
H297 H 0.89005 0.76426 0.62489 0.0
H298 H 0.9023 0.80422 0.57989 0.0
H299 H 0.90624 0.80766 0.64449 0.0
H300 H 0.92239 0.91994 0.48456 0.0
H301 H 0.93117 0.93535 0.63694 0.0
H302 H 0.83647 0.87494 0.47256 0.0
H303 H 0.8697 0.83629 0.49605 0.0
H304 H 0.88084 0.87649 0.45061 0.0
H305 H 0.8463 0.8946 0.65898 0.0
H306 H 0.89324 0.9034 0.69128 0.0
H307 H 0.88037 0.85652 0.68088 0.0
C308 C 0.71735 0.29774 0.06602 0.0
C309 C 0.70478 0.26112 0.08226 0.0
C310 C 0.69589 0.32971 0.06697 0.0
C311 C 0.661 0.32466 0.08423 0.0
C312 C 0.64935 0.28754 0.10317 0.0
C313 C 0.6714 0.25611 0.10175 0.0
C314 C 0.7094 0.36875 0.04663 0.0
C315 C 0.61247 0.28092 0.12207 0.0
C316 C 0.61266 0.40955 0.11085 0.0
C317 C 0.58568 0.4206 0.06619 0.0
C318 C 0.63737 0.37843 0.11734 0.0
C319 C 0.63516 0.35782 0.07825 0.0
C320 C 0.60808 0.36883 0.03309 0.0
C321 C 0.5837 0.40001 0.02762 0.0
C322 C 0.66579 0.36757 0.16604 0.0
C323 C 0.60484 0.34763 0.99042 0.0
H324 H 0.74298 0.30136 0.05023 0.0
H325 H 0.66155 0.2276 0.11355 0.0
H326 H 0.69032 0.38123 0.0106 0.0
H327 H 0.70831 0.38785 0.07334 0.0
H328 H 0.73883 0.36805 0.03962 0.0
H329 H 0.60939 0.25079 0.1402 0.0
H330 H 0.61046 0.29904 0.14967 0.0
H331 H 0.5883 0.28891 0.09003 0.0
H332 H 0.61455 0.42517 0.14099 0.0
H333 H 0.56307 0.40823 0.99295 0.0
H334 H 0.695 0.36851 0.1581 0.0
H335 H 0.66101 0.33802 0.18473 0.0
H336 H 0.66402 0.38662 0.19269 0.0
H337 H 0.63228 0.34823 0.97737 0.0
H338 H 0.58235 0.35982 0.95775 0.0
H339 H 0.59837 0.31743 1.00383 0.0
C340 C 0.14656 0.8756 0.09939 0.0
C341 C 0.18588 0.87902 0.10223 0.0
C342 C 0.12829 0.88918 0.13309 0.0
C343 C 0.1499 0.90639 0.17089 0.0
C344 C 0.18976 0.90912 0.17487 0.0
C345 C 0.20733 0.89538 0.1404 0.0
C346 C 0.08574 0.88562 0.12771 0.0
C347 C 0.21367 0.92713 0.21495 0.0
C348 C 0.09525 0.97373 0.2224 0.0
C349 C 0.0878 0.9504 0.26668 0.0
C350 C 0.11631 0.96004 0.19152 0.0
C351 C 0.13039 0.92217 0.20539 0.0
C352 C 0.12372 0.89874 0.25059 0.0
C353 C 0.10237 0.91309 0.2806 0.0
C354 C 0.12276 0.98583 0.14347 0.0
C355 C 0.13828 0.85821 0.26659 0.0
H356 H 0.12996 0.8623 0.07055 0.0
H357 H 0.23769 0.89826 0.14255 0.0
H358 H 0.07851 0.86967 0.16346 0.0
H359 H 0.0723 0.91422 0.12002 0.0
H360 H 0.07321 0.87093 0.09674 0.0
H361 H 0.24445 0.92566 0.21427 0.0
H362 H 0.20506 0.95735 0.20941 0.0
H363 H 0.20898 0.91286 0.25287 0.0
H364 H 0.08461 1.00276 0.21186 0.0
H365 H 0.09634 0.89474 0.31442 0.0
H366 H 0.10884 0.97403 0.11043 0.0
H367 H 0.15355 0.98746 0.14267 0.0
H368 H 0.11138 0.01501 0.13925 0.0
H369 H 0.12424 0.84133 0.2389 0.0
H370 H 0.13296 0.84461 0.30452 0.0
H371 H 0.16923 0.85707 0.26714 0.0
C372 C 0.61262 0.64063 0.72414 0.0
C373 C 0.64692 0.66014 0.7326 0.0
C374 C 0.59589 0.62191 0.76444 0.0
C375 C 0.61287 0.62381 0.81466 0.0
C376 C 0.64694 0.644 0.82357 0.0
C377 C 0.66383 0.66123 0.78278 0.0
C378 C 0.56015 0.59974 0.75324 0.0
C379 C 0.6652 0.64823 0.87618 0.0
C380 C 0.54842 0.60253 0.91192 0.0
C381 C 0.56043 0.56577 0.9371 0.0
C382 C 0.56606 0.62227 0.87312 0.0
C383 C 0.59528 0.60414 0.85781 0.0
C384 C 0.60736 0.56685 0.88335 0.0
C385 C 0.59029 0.54844 0.92338 0.0
C386 C 0.55366 0.66262 0.84886 0.0
C387 C 0.63795 0.54619 0.86793 0.0
H388 H 0.59847 0.64003 0.68593 0.0
H389 H 0.69062 0.67531 0.79061 0.0
H390 H 0.56452 0.57 0.77445 0.0
H391 H 0.53657 0.61215 0.76593 0.0
H392 H 0.55144 0.59948 0.7124 0.0
H393 H 0.69343 0.66168 0.87752 0.0
H394 H 0.64645 0.66618 0.89 0.0
H395 H 0.66857 0.62029 0.90248 0.0
H396 H 0.52578 0.61611 0.92341 0.0
H397 H 0.59964 0.52003 0.94321 0.0
H398 H 0.54177 0.66463 0.80819 0.0
H399 H 0.57851 0.68151 0.85156 0.0
H400 H 0.53193 0.67324 0.8668 0.0
H401 H 0.62988 0.54489 0.82737 0.0
H402 H 0.64305 0.51681 0.89034 0.0
H403 H 0.66493 0.56183 0.87282 0.0
C404 C 0.82925 0.13324 0.21401 0.0
C405 C 0.84652 0.14045 0.17143 0.0
C406 C 0.85056 0.11929 0.26251 0.0
C407 C 0.88975 0.11102 0.26838 0.0
C408 C 0.90756 0.11926 0.22598 0.0
C409 C 0.886 0.1348 0.17847 0.0
C410 C 0.83095 0.11248 0.30729 0.0
C411 C 0.94907 0.10999 0.23023 0.0
C412 C 0.95655 0.09589 0.39567 0.0
C413 C 0.95623 0.05632 0.41142 0.0
C414 C 0.93396 0.11422 0.35015 0.0
C415 C 0.91194 0.0923 0.31834 0.0
C416 C 0.91237 0.05223 0.33331 0.0
C417 C 0.93385 0.03481 0.38015 0.0
C418 C 0.93343 0.15703 0.33631 0.0
C419 C 0.89073 0.02769 0.29943 0.0
H420 H 0.79888 0.13727 0.20948 0.0
H421 H 0.90017 0.14162 0.1465 0.0
H422 H 0.82975 0.08157 0.32236 0.0
H423 H 0.84727 0.12538 0.33797 0.0
H424 H 0.80156 0.12438 0.2974 0.0
H425 H 0.95897 0.11951 0.19397 0.0
H426 H 0.96688 0.12333 0.25935 0.0
H427 H 0.95379 0.07886 0.24226 0.0
H428 H 0.97447 0.11265 0.41899 0.0
H429 H 0.93341 0.00422 0.39204 0.0
H430 H 0.90415 0.16792 0.33287 0.0
H431 H 0.94179 0.16673 0.29916 0.0
H432 H 0.95276 0.16988 0.36476 0.0
H433 H 0.85993 0.03443 0.29236 0.0
H434 H 0.89515 0.99693 0.31589 0.0
H435 H 0.89981 0.03367 0.26235 0.0
C436 C 0.3307 0.34477 0.57107 0.0
C437 C 0.35852 0.34091 0.54284 0.0
C438 C 0.34055 0.35398 0.61906 0.0
C439 C 0.37916 0.35941 0.63939 0.0
C440 C 0.4074 0.35521 0.61129 0.0
C441 C 0.39676 0.34596 0.56346 0.0
C442 C 0.30958 0.35818 0.64787 0.0
C443 C 0.44886 0.36053 0.63172 0.0
C444 C 0.39823 0.41583 0.74439 0.0
C445 C 0.404 0.38678 0.78759 0.0
C446 C 0.39114 0.40738 0.69582 0.0
C447 C 0.38991 0.369 0.69038 0.0
C448 C 0.39741 0.33966 0.73385 0.0
C449 C 0.40437 0.3489 0.78186 0.0
C450 C 0.38346 0.43949 0.65037 0.0
C451 C 0.39676 0.29841 0.72974 0.0
H452 H 0.30109 0.34135 0.5552 0.0
H453 H 0.4185 0.34249 0.5422 0.0
H454 H 0.31479 0.33796 0.6847 0.0
H455 H 0.30979 0.38719 0.65592 0.0
H456 H 0.28096 0.35297 0.62685 0.0
H457 H 0.46731 0.35646 0.60501 0.0
H458 H 0.45325 0.38945 0.63985 0.0
H459 H 0.45807 0.3401 0.66783 0.0
H460 H 0.39757 0.44512 0.74855 0.0
H461 H 0.40932 0.32635 0.81513 0.0
H462 H 0.35372 0.43825 0.63026 0.0
H463 H 0.40217 0.43663 0.62354 0.0
H464 H 0.38793 0.46773 0.66083 0.0
H465 H 0.36772 0.29096 0.71268 0.0
H466 H 0.40539 0.27912 0.76702 0.0
H467 H 0.416 0.2933 0.70457 0.0
C468 C 0.70233 0.65787 0.53636 0.0
C469 C 0.67183 0.6671 0.55705 0.0
C470 C 0.6963 0.63999 0.49459 0.0
C471 C 0.65881 0.6317 0.47253 0.0
C472 C 0.62783 0.6428 0.49176 0.0
C473 C 0.63473 0.66004 0.53399 0.0
C474 C 0.73016 0.62828 0.47567 0.0
C475 C 0.58742 0.63516 0.46895 0.0
C476 C 0.6438 0.60182 0.34475 0.0
C477 C 0.64403 0.5621 0.35929 0.0
C478 C 0.64778 0.62502 0.38098 0.0
C479 C 0.65231 0.60809 0.43292 0.0
C480 C 0.65134 0.5681 0.44755 0.0
C481 C 0.64691 0.54573 0.41067 0.0
C482 C 0.64803 0.66756 0.3638 0.0
C483 C 0.65588 0.54878 0.50242 0.0
H484 H 0.73104 0.66315 0.5542 0.0
H485 H 0.61103 0.66762 0.54952 0.0
H486 H 0.73228 0.59684 0.4829 0.0
H487 H 0.72665 0.63864 0.43431 0.0
H488 H 0.75716 0.63925 0.49432 0.0
H489 H 0.56648 0.64934 0.48446 0.0
H490 H 0.58221 0.645 0.42737 0.0
H491 H 0.58245 0.60416 0.47664 0.0
H492 H 0.64174 0.61475 0.30523 0.0
H493 H 0.64621 0.51513 0.42224 0.0
H494 H 0.67638 0.67841 0.37777 0.0
H495 H 0.62711 0.68116 0.37993 0.0
H496 H 0.64135 0.67641 0.32203 0.0
H497 H 0.68369 0.55603 0.52354 0.0
H498 H 0.65425 0.5174 0.50749 0.0
H499 H 0.63352 0.55901 0.51956 0.0
C500 C 0.83998 0.09712 0.99244 0.0
C501 C 0.82717 0.13442 0.98814 0.0
C502 C 0.85299 0.08602 0.95241 0.0
C503 C 0.85341 0.11298 0.90736 0.0
C504 C 0.841 0.15078 0.90319 0.0
C505 C 0.82793 0.16098 0.94356 0.0
C506 C 0.86573 0.04543 0.958 0.0
C507 C 0.84129 0.18048 0.85592 0.0
C508 C 0.91321 0.10204 0.81129 0.0
C509 C 0.88536 0.09382 0.77201 0.0
C510 C 0.90367 0.10627 0.85704 0.0
C511 C 0.86549 0.10182 0.86352 0.0
C512 C 0.83788 0.09087 0.82522 0.0
C513 C 0.84813 0.08718 0.7798 0.0
C514 C 0.9339 0.11803 0.89696 0.0
C515 C 0.79698 0.08537 0.8309 0.0
H516 H 0.83922 0.07648 0.02682 0.0
H517 H 0.81863 0.18998 0.94047 0.0
H518 H 0.84718 0.03204 0.92949 0.0
H519 H 0.89506 0.0445 0.95088 0.0
H520 H 0.86493 0.0283 0.99612 0.0
H521 H 0.83181 0.20886 0.85939 0.0
H522 H 0.8703 0.18287 0.84727 0.0
H523 H 0.82233 0.17194 0.82337 0.0
H524 H 0.94197 0.10736 0.80515 0.0
H525 H 0.82669 0.08038 0.74956 0.0
H526 H 0.93281 0.10045 0.93465 0.0
H527 H 0.92868 0.14797 0.89878 0.0
H528 H 0.96284 0.11561 0.88896 0.0
H529 H 0.79522 0.06701 0.86788 0.0
H530 H 0.78015 0.0725 0.80045 0.0
H531 H 0.78381 0.11323 0.82978 0.0
C532 C 0.35432 0.37859 0.31297 0.0
C533 C 0.37497 0.36653 0.36218 0.0
C534 C 0.37183 0.39822 0.27406 0.0
C535 C 0.41109 0.40599 0.28435 0.0
C536 C 0.43202 0.39438 0.33406 0.0
C537 C 0.41381 0.3747 0.37223 0.0
C538 C 0.34824 0.40938 0.22171 0.0
C539 C 0.47382 0.40244 0.34684 0.0
C540 C 0.46678 0.42257 0.17748 0.0
C541 C 0.46784 0.46227 0.16526 0.0
C542 C 0.44793 0.40394 0.21552 0.0
C543 C 0.43059 0.42549 0.24312 0.0
C544 C 0.43223 0.46563 0.23163 0.0
C545 C 0.45075 0.48354 0.19276 0.0
C546 C 0.44605 0.36119 0.22558 0.0
C547 C 0.41399 0.48964 0.26001 0.0
H548 H 0.32424 0.3729 0.30478 0.0
H549 H 0.43022 0.36514 0.40988 0.0
H550 H 0.35708 0.43687 0.20113 0.0
H551 H 0.352 0.38725 0.20021 0.0
H552 H 0.31755 0.41136 0.22263 0.0
H553 H 0.48573 0.39291 0.38768 0.0
H554 H 0.48973 0.38786 0.32506 0.0
H555 H 0.47862 0.43333 0.33595 0.0
H556 H 0.48068 0.40598 0.15716 0.0
H557 H 0.45142 0.51427 0.18344 0.0
H558 H 0.41605 0.35261 0.21644 0.0
H559 H 0.45674 0.34921 0.26611 0.0
H560 H 0.46279 0.34848 0.2028 0.0
H561 H 0.38301 0.48452 0.25466 0.0
H562 H 0.4185 0.52044 0.24732 0.0
H563 H 0.4257 0.48147 0.30103 0.0
C564 C 0.13995 0.87264 0.91334 0.0
C565 C 0.1798 0.86978 0.92312 0.0
C566 C 0.11958 0.8887 0.8654 0.0
C567 C 0.1392 0.90024 0.82516 0.0
C568 C 0.17901 0.89428 0.83344 0.0
C569 C 0.199 0.87967 0.88259 0.0
C570 C 0.07722 0.89494 0.85848 0.0
C571 C 0.20055 0.9045 0.79072 0.0
C572 C 0.07571 0.91699 0.6957 0.0
C573 C 0.07268 0.95675 0.68323 0.0
C574 C 0.09864 0.89829 0.74064 0.0
C575 C 0.11788 0.91977 0.7751 0.0
C576 C 0.11424 0.9599 0.76343 0.0
C577 C 0.09201 0.97794 0.71736 0.0
C578 C 0.10236 0.85554 0.75113 0.0
C579 C 0.13315 0.98373 0.80011 0.0
H580 H 0.12459 0.86366 0.94386 0.0
H581 H 0.22969 0.87744 0.88949 0.0
H582 H 0.0702 0.92567 0.84551 0.0
H583 H 0.06197 0.88023 0.82903 0.0
H584 H 0.06633 0.88458 0.89386 0.0
H585 H 0.23058 0.89443 0.80215 0.0
H586 H 0.18672 0.89206 0.75818 0.0
H587 H 0.2001 0.93575 0.77758 0.0
H588 H 0.0601 0.90027 0.67029 0.0
H589 H 0.08973 0.00865 0.70819 0.0
H590 H 0.09489 0.84301 0.78813 0.0
H591 H 0.13231 0.84731 0.75309 0.0
H592 H 0.084 0.8429 0.72162 0.0
H593 H 0.12279 0.97553 0.83621 0.0
H594 H 0.12754 0.01458 0.78536 0.0
H595 H 0.16428 0.97852 0.80867 0.0
loop_
_geom_bond_atom_site_label_1
_geom_bond_atom_site_label_2
_geom_bond_distance
_geom_bond_site_symmetry_2
_ccdc_geom_bond_type
H0 C3 0.929 . S
H1 C6 0.929 . S
H2 C8 0.930 . S
C3 H0 0.929 . S
C3 C4 1.398 1_554 S
C3 C5 1.396 . S
C4 C3 1.398 1_556 S
C4 C8 1.407 . S
C5 C3 1.396 . S
C5 C6 1.394 . S
C6 H1 0.929 . S
C6 C5 1.394 . S
C6 C7 1.382 . S
C7 C6 1.382 . S
C7 C8 1.392 1_554 S
C7 N9 1.420 . S
C8 H2 0.930 . S
C8 C4 1.407 . S
C8 C7 1.392 1_556 S
N9 C7 1.420 . S
N9 C10 1.244 . S
C10 N9 1.244 . S
H11 C14 0.929 . S
H12 C17 0.929 . S
H13 C19 0.930 . S
C14 H11 0.929 . S
C14 C15 1.398 . S
C14 C16 1.396 . S
C15 C14 1.398 . S
C15 C19 1.407 . S
C16 C14 1.396 . S
C16 C17 1.394 . S
C17 H12 0.929 . S
C17 C16 1.394 . S
C17 C18 1.382 . S
C18 C17 1.382 . S
C18 C19 1.392 . S
C18 N20 1.420 . S
C19 H13 0.930 . S
C19 C15 1.407 . S
C19 C18 1.392 . S
N20 C18 1.420 . S
N20 C21 1.244 . S
C21 N20 1.244 . S
H22 C25 0.929 . S
H23 C28 0.929 . S
H24 C30 0.930 1_556 S
C25 H22 0.929 . S
C25 C26 1.398 . S
C25 C27 1.396 . S
C26 C25 1.398 . S
C26 C30 1.407 . S
C27 C25 1.396 . S
C27 C28 1.394 . S
C28 H23 0.929 . S
C28 C27 1.394 . S
C28 C29 1.382 . S
C29 C28 1.382 . S
C29 C30 1.392 . S
C29 N31 1.420 . S
C30 H24 0.930 1_554 S
C30 C26 1.407 . S
C30 C29 1.392 . S
N31 C29 1.420 . S
N31 C32 1.244 . S
C32 N31 1.244 . S
H33 C36 0.929 . S
H34 C39 0.929 . S
H35 C41 0.930 . S
C36 H33 0.929 . S
C36 C37 1.398 . S
C36 C38 1.396 . S
C37 C36 1.398 . S
C37 C41 1.407 . S
C38 C36 1.396 . S
C38 C39 1.394 . S
C39 H34 0.929 . S
C39 C38 1.394 . S
C39 C40 1.382 . S
C40 C39 1.382 . S
C40 C41 1.392 . S
C40 N42 1.420 . S
C41 H35 0.930 . S
C41 C37 1.407 . S
C41 C40 1.392 . S
N42 C40 1.420 . S
N42 C43 1.244 . S
C43 N42 1.244 . S
C44 C46 1.422 . S
C44 C48 1.415 . S
C44 N50 1.369 . S
C45 C46 1.421 . S
C45 C47 1.417 . S
C45 C57 1.422 . S
C46 C44 1.422 . S
C46 C45 1.421 . S
C46 N56 1.359 . S
C47 C45 1.417 . S
C47 C49 1.329 . S
C47 H66 0.930 . S
C48 C44 1.415 . S
C48 C49 1.437 . S
C48 C52 1.413 . S
C49 C47 1.329 . S
C49 C48 1.437 . S
C49 H71 0.929 . S
N50 C44 1.369 . S
N50 C51 1.338 1_655 S
N50 Gd55 2.622 . S
C51 N50 1.338 1_455 S
C51 C53 1.378 . S
C51 H63 0.929 . S
C52 C48 1.413 . S
C52 C53 1.348 1_655 S
C52 H68 0.931 . S
C53 C51 1.378 . S
C53 C52 1.348 1_455 S
C53 H69 0.930 . S
Gd54 N74 2.622 . S
Gd54 N81 2.570 . S
Gd54 O88 2.353 1_465 S
Gd54 O89 2.468 . S
Gd54 O90 2.427 . S
Gd54 O92 2.388 1_455 S
Gd54 O93 2.386 . S
Gd54 O97 2.307 1_565 S
Gd54 C107 2.805 . S
Gd55 N50 2.622 . S
Gd55 N56 2.570 . S
Gd55 O87 2.386 . S
Gd55 O91 2.307 1_545 S
Gd55 O94 2.353 1_655 S
Gd55 O95 2.468 . S
Gd55 O96 2.427 . S
Gd55 O98 2.388 1_655 S
Gd55 C119 2.805 . S
N56 C46 1.359 . S
N56 Gd55 2.570 . S
N56 C58 1.343 . S
C57 C45 1.422 . S
C57 C59 1.321 . S
C57 H65 0.931 . S
C58 N56 1.343 . S
C58 C59 1.390 . S
C58 H60 0.931 . S
C59 C57 1.321 . S
C59 C58 1.390 . S
C59 H61 0.930 . S
H60 C58 0.931 . S
H61 C59 0.930 . S
H62 C85 0.931 . S
H63 C51 0.929 . S
H64 C86 0.930 . S
H65 C57 0.931 . S
H66 C47 0.930 . S
H67 C76 0.929 1_655 S
H68 C52 0.931 . S
H69 C53 0.930 . S
H70 C108 0.930 . S
H71 C49 0.929 . S
H72 C77 0.931 . S
H73 C78 0.930 1_655 S
N74 Gd54 2.622 . S
N74 C75 1.369 . S
N74 C76 1.338 . S
C75 N74 1.369 . S
C75 C79 1.415 . S
C75 C82 1.422 . S
C76 H67 0.929 1_455 S
C76 N74 1.338 . S
C76 C78 1.378 . S
C77 H72 0.931 . S
C77 C78 1.348 . S
C77 C79 1.413 . S
C78 H73 0.930 1_455 S
C78 C76 1.378 . S
C78 C77 1.348 . S
C79 C75 1.415 . S
C79 C77 1.413 . S
C79 C109 1.437 . S
H80 C109 0.929 . S
N81 Gd54 2.570 . S
N81 C82 1.359 . S
N81 C85 1.343 . S
C82 C75 1.422 . S
C82 N81 1.359 . S
C82 C84 1.421 . S
C83 C84 1.422 . S
C83 C86 1.321 . S
C83 H110 0.931 . S
C84 C82 1.421 . S
C84 C83 1.422 . S
C84 C108 1.417 . S
C85 H62 0.931 . S
C85 N81 1.343 . S
C85 C86 1.390 . S
C86 H64 0.930 . S
C86 C83 1.321 . S
C86 C85 1.390 . S
O87 Gd55 2.386 . S
O87 C99 1.265 . S
O88 Gd54 2.353 1_645 S
O88 C99 1.242 . S
O89 Gd54 2.468 . S
O89 C107 1.263 . S
O90 Gd54 2.427 . S
O90 C107 1.252 . S
O91 Gd55 2.307 1_565 S
O91 C100 1.261 . S
O92 Gd54 2.388 1_655 S
O92 C100 1.252 . S
O93 Gd54 2.386 . S
O93 C111 1.265 . S
O94 Gd55 2.353 1_455 S
O94 C111 1.242 1_545 S
O95 Gd55 2.468 . S
O95 C119 1.263 . S
O96 Gd55 2.427 . S
O96 C119 1.252 . S
O97 Gd54 2.307 1_545 S
O97 C112 1.261 . S
O98 Gd55 2.388 1_455 S
O98 C112 1.252 . S
C99 O87 1.265 . S
C99 O88 1.242 . S
C100 O91 1.261 . S
C100 O92 1.252 . S
C101 C104 1.394 . S
C101 C106 1.370 . S
C101 C107 1.500 . S
C102 C105 1.383 . S
C102 C106 1.395 . S
C103 C104 1.396 . S
C103 C105 1.365 . S
C103 H120 0.929 . S
C104 C101 1.394 . S
C104 C103 1.396 . S
C104 H121 0.930 . S
C105 C102 1.383 . S
C105 C103 1.365 . S
C105 H122 0.931 . S
C106 C101 1.370 . S
C106 C102 1.395 . S
C106 H123 0.930 . S
C107 Gd54 2.805 . S
C107 O89 1.263 . S
C107 O90 1.252 . S
C107 C101 1.500 . S
C108 H70 0.930 . S
C108 C84 1.417 . S
C108 C109 1.329 . S
C109 C79 1.437 . S
C109 H80 0.929 . S
C109 C108 1.329 . S
H110 C83 0.931 . S
C111 O93 1.265 . S
C111 O94 1.242 1_565 S
C112 O97 1.261 . S
C112 O98 1.252 . S
C113 C116 1.394 . S
C113 C118 1.370 . S
C113 C119 1.500 . S
C114 C117 1.383 . S
C114 C118 1.395 . S
C115 C116 1.396 . S
C115 C117 1.365 . S
C115 H124 0.929 . S
C116 C113 1.394 . S
C116 C115 1.396 . S
C116 H125 0.930 . S
C117 C114 1.383 . S
C117 C115 1.365 . S
C117 H126 0.931 . S
C118 C113 1.370 . S
C118 C114 1.395 . S
C118 H127 0.930 . S
C119 Gd55 2.805 . S
C119 O95 1.263 . S
C119 O96 1.252 . S
C119 C113 1.500 . S
H120 C103 0.929 . S
H121 C104 0.930 . S
H122 C105 0.931 . S
H123 C106 0.930 . S
H124 C115 0.929 . S
H125 C116 0.930 . S
H126 C117 0.931 . S
H127 C118 0.930 . S
C128 C130 1.422 . S
C128 C132 1.415 . S
C128 N134 1.369 . S
C129 C130 1.421 . S
C129 C131 1.417 . S
C129 C141 1.422 . S
C130 C128 1.422 . S
C130 C129 1.421 . S
C130 N140 1.359 . S
C131 C129 1.417 . S
C131 C133 1.329 . S
C131 H150 0.930 . S
C132 C128 1.415 . S
C132 C133 1.437 . S
C132 C136 1.413 . S
C133 C131 1.329 . S
C133 C132 1.437 . S
C133 H155 0.929 . S
N134 C128 1.369 . S
N134 C135 1.338 . S
N134 Gd139 2.622 . S
C135 N134 1.338 . S
C135 C137 1.378 . S
C135 H147 0.929 . S
C136 C132 1.413 . S
C136 C137 1.348 . S
C136 H152 0.931 . S
C137 C135 1.378 . S
C137 C136 1.348 . S
C137 H153 0.930 . S
Gd138 N158 2.622 . S
Gd138 N165 2.570 . S
Gd138 O172 2.353 1_554 S
Gd138 O173 2.468 1_554 S
Gd138 O174 2.427 1_554 S
Gd138 O176 2.388 . S
Gd138 O177 2.386 . S
Gd138 O181 2.307 . S
Gd138 C191 2.805 1_554 S
Gd139 N134 2.622 . S
Gd139 N140 2.570 . S
Gd139 O171 2.386 . S
Gd139 O175 2.307 . S
Gd139 O178 2.353 . S
Gd139 O179 2.468 . S
Gd139 O180 2.427 . S
Gd139 O182 2.388 . S
Gd139 C203 2.805 . S
N140 C130 1.359 . S
N140 Gd139 2.570 . S
N140 C142 1.343 . S
C141 C129 1.422 . S
C141 C143 1.321 . S
C141 H149 0.931 . S
C142 N140 1.343 . S
C142 C143 1.390 . S
C142 H144 0.931 . S
C143 C141 1.321 . S
C143 C142 1.390 . S
C143 H145 0.930 . S
H144 C142 0.931 . S
H145 C143 0.930 . S
H146 C169 0.931 . S
H147 C135 0.929 . S
H148 C170 0.930 . S
H149 C141 0.931 . S
H150 C131 0.930 . S
H151 C160 0.929 . S
H152 C136 0.931 . S
H153 C137 0.930 . S
H154 C192 0.930 . S
H155 C133 0.929 . S
H156 C161 0.931 . S
H157 C162 0.930 . S
N158 Gd138 2.622 . S
N158 C159 1.369 . S
N158 C160 1.338 1_554 S
C159 N158 1.369 . S
C159 C163 1.415 . S
C159 C166 1.422 . S
C160 H151 0.929 . S
C160 N158 1.338 1_556 S
C160 C162 1.380 . S
C161 H156 0.931 . S
C161 C162 1.346 1_554 S
C161 C163 1.413 . S
C162 H157 0.930 . S
C162 C160 1.380 . S
C162 C161 1.346 1_556 S
C163 C159 1.415 . S
C163 C161 1.413 . S
C163 C193 1.437 . S
H164 C193 0.929 . S
N165 Gd138 2.570 . S
N165 C166 1.359 . S
N165 C169 1.343 . S
C166 C159 1.422 . S
C166 N165 1.359 . S
C166 C168 1.421 . S
C167 C168 1.422 . S
C167 C170 1.321 . S
C167 H194 0.931 . S
C168 C166 1.421 . S
C168 C167 1.422 . S
C168 C192 1.417 . S
C169 H146 0.931 . S
C169 N165 1.343 . S
C169 C170 1.390 . S
C170 H148 0.930 . S
C170 C167 1.321 . S
C170 C169 1.390 . S
O171 Gd139 2.386 . S
O171 C183 1.265 1_554 S
O172 Gd138 2.353 1_556 S
O172 C183 1.242 . S
O173 Gd138 2.468 1_556 S
O173 C191 1.263 . S
O174 Gd138 2.427 1_556 S
O174 C191 1.252 . S
O175 Gd139 2.307 . S
O175 C184 1.261 . S
O176 Gd138 2.388 . S
O176 C184 1.252 . S
O177 Gd138 2.386 . S
O177 C195 1.265 . S
O178 Gd139 2.353 . S
O178 C195 1.242 . S
O179 Gd139 2.468 . S
O179 C203 1.263 . S
O180 Gd139 2.427 . S
O180 C203 1.252 . S
O181 Gd138 2.307 . S
O181 C196 1.261 . S
O182 Gd139 2.388 . S
O182 C196 1.252 . S
C183 O171 1.265 1_556 S
C183 O172 1.242 . S
C184 O175 1.261 . S
C184 O176 1.252 . S
C185 C188 1.394 . S
C185 C190 1.370 . S
C185 C191 1.500 . S
C186 C189 1.383 . S
C186 C190 1.395 . S
C187 C188 1.396 . S
C187 C189 1.365 . S
C187 H204 0.929 . S
C188 C185 1.394 . S
C188 C187 1.396 . S
C188 H205 0.930 . S
C189 C186 1.383 . S
C189 C187 1.365 . S
C189 H206 0.931 . S
C190 C185 1.370 . S
C190 C186 1.395 . S
C190 H207 0.930 . S
C191 Gd138 2.805 1_556 S
C191 O173 1.263 . S
C191 O174 1.252 . S
C191 C185 1.500 . S
C192 H154 0.930 . S
C192 C168 1.417 . S
C192 C193 1.329 . S
C193 C163 1.437 . S
C193 H164 0.929 . S
C193 C192 1.329 . S
H194 C167 0.931 . S
C195 O177 1.265 . S
C195 O178 1.242 . S
C196 O181 1.261 . S
C196 O182 1.252 . S
C197 C200 1.394 . S
C197 C202 1.370 . S
C197 C203 1.500 . S
C198 C201 1.383 . S
C198 C202 1.395 . S
C199 C200 1.396 . S
C199 C201 1.365 . S
C199 H208 0.929 . S
C200 C197 1.394 . S
C200 C199 1.396 . S
C200 H209 0.930 . S
C201 C198 1.383 . S
C201 C199 1.365 . S
C201 H210 0.931 . S
C202 C197 1.370 . S
C202 C198 1.395 . S
C202 H211 0.930 . S
C203 Gd139 2.805 . S
C203 O179 1.263 . S
C203 O180 1.252 . S
C203 C197 1.500 . S
H204 C187 0.929 . S
H205 C188 0.930 . S
H206 C189 0.931 . S
H207 C190 0.930 . S
H208 C199 0.929 . S
H209 C200 0.930 . S
H210 C201 0.931 . S
H211 C202 0.930 . S
C212 C213 1.391 . S
C212 C214 1.394 . S
C212 H228 0.931 . S
C213 C212 1.391 . S
C213 C217 1.376 . S
C214 C212 1.394 . S
C214 C215 1.369 . S
C214 C218 1.531 . S
C215 C214 1.369 . S
C215 C216 1.410 . S
C215 C223 1.503 . S
C216 C215 1.410 . S
C216 C217 1.392 . S
C216 C219 1.511 . S
C217 C213 1.376 . S
C217 C216 1.392 . S
C217 H229 0.929 . S
C218 C214 1.531 . S
C218 H230 0.960 . S
C218 H231 0.962 . S
C218 H232 0.960 . S
C219 C216 1.511 . S
C219 H233 0.961 . S
C219 H234 0.961 . S
C219 H235 0.961 . S
C220 C221 1.370 . S
C220 C222 1.363 . S
C220 H236 0.931 . S
C221 C220 1.370 . S
C221 C225 1.408 . S
C222 C220 1.363 . S
C222 C223 1.370 . S
C222 C226 1.524 . S
C223 C215 1.503 . S
C223 C222 1.370 . S
C223 C224 1.403 . S
C224 C223 1.403 . S
C224 C225 1.404 . S
C224 C227 1.539 . S
C225 C221 1.408 . S
C225 C224 1.404 . S
C225 H237 0.930 . S
C226 C222 1.524 . S
C226 H238 0.956 . S
C226 H239 0.961 . S
C226 H240 0.961 . S
C227 C224 1.539 . S
C227 H241 0.958 . S
C227 H242 0.961 . S
C227 H243 0.960 . S
H228 C212 0.931 . S
H229 C217 0.929 . S
H230 C218 0.960 . S
H231 C218 0.962 . S
H232 C218 0.960 . S
H233 C219 0.961 . S
H234 C219 0.961 . S
H235 C219 0.961 . S
H236 C220 0.931 . S
H237 C225 0.930 . S
H238 C226 0.956 . S
H239 C226 0.961 . S
H240 C226 0.961 . S
H241 C227 0.958 . S
H242 C227 0.961 . S
H243 C227 0.960 . S
C244 C245 1.391 . S
C244 C246 1.394 . S
C244 H260 0.931 . S
C245 C244 1.391 . S
C245 C249 1.376 . S
C246 C244 1.394 . S
C246 C247 1.369 . S
C246 C250 1.531 . S
C247 C246 1.369 . S
C247 C248 1.410 . S
C247 C255 1.503 . S
C248 C247 1.410 . S
C248 C249 1.392 . S
C248 C251 1.511 . S
C249 C245 1.376 . S
C249 C248 1.392 . S
C249 H261 0.929 . S
C250 C246 1.531 . S
C250 H262 0.960 1_554 S
C250 H263 0.962 . S
C250 H264 0.960 1_554 S
C251 C248 1.511 . S
C251 H265 0.961 . S
C251 H266 0.961 . S
C251 H267 0.961 . S
C252 C253 1.370 . S
C252 C254 1.363 . S
C252 H268 0.931 . S
C253 C252 1.370 . S
C253 C257 1.408 . S
C254 C252 1.363 . S
C254 C255 1.370 . S
C254 C258 1.524 . S
C255 C247 1.503 . S
C255 C254 1.370 . S
C255 C256 1.402 1_554 S
C256 C255 1.402 1_556 S
C256 C257 1.404 1_556 S
C256 C259 1.540 . S
C257 C253 1.408 . S
C257 C256 1.404 1_554 S
C257 H269 0.930 1_554 S
C258 C254 1.524 . S
C258 H270 0.956 . S
C258 H271 0.961 . S
C258 H272 0.961 . S
C259 C256 1.540 . S
C259 H273 0.958 . S
C259 H274 0.961 . S
C259 H275 0.960 . S
H260 C244 0.931 . S
H261 C249 0.929 . S
H262 C250 0.960 1_556 S
H263 C250 0.962 . S
H264 C250 0.960 1_556 S
H265 C251 0.961 . S
H266 C251 0.961 . S
H267 C251 0.961 . S
H268 C252 0.931 . S
H269 C257 0.930 1_556 S
H270 C258 0.956 . S
H271 C258 0.961 . S
H272 C258 0.961 . S
H273 C259 0.958 . S
H274 C259 0.961 . S
H275 C259 0.960 . S
C276 C277 1.391 . S
C276 C278 1.394 . S
C276 H292 0.931 . S
C277 C276 1.391 . S
C277 C281 1.376 . S
C278 C276 1.394 . S
C278 C279 1.369 . S
C278 C282 1.531 . S
C279 C278 1.369 . S
C279 C280 1.410 . S
C279 C287 1.503 . S
C280 C279 1.410 . S
C280 C281 1.392 . S
C280 C283 1.511 . S
C281 C277 1.376 . S
C281 C280 1.392 . S
C281 H293 0.929 . S
C282 C278 1.531 . S
C282 H294 0.960 . S
C282 H295 0.962 . S
C282 H296 0.960 . S
C283 C280 1.511 . S
C283 H297 0.961 . S
C283 H298 0.961 . S
C283 H299 0.961 . S
C284 C285 1.370 . S
C284 C286 1.363 . S
C284 H300 0.931 . S
C285 C284 1.370 . S
C285 C289 1.408 . S
C286 C284 1.363 . S
C286 C287 1.370 . S
C286 C290 1.524 . S
C287 C279 1.503 . S
C287 C286 1.370 . S
C287 C288 1.403 . S
C288 C287 1.403 . S
C288 C289 1.404 . S
C288 C291 1.539 . S
C289 C285 1.408 . S
C289 C288 1.404 . S
C289 H301 0.930 . S
C290 C286 1.524 . S
C290 H302 0.956 . S
C290 H303 0.961 . S
C290 H304 0.961 . S
C291 C288 1.539 . S
C291 H305 0.958 . S
C291 H306 0.961 . S
C291 H307 0.960 . S
H292 C276 0.931 . S
H293 C281 0.929 . S
H294 C282 0.960 . S
H295 C282 0.962 . S
H296 C282 0.960 . S
H297 C283 0.961 . S
H298 C283 0.961 . S
H299 C283 0.961 . S
H300 C284 0.931 . S
H301 C289 0.930 . S
H302 C290 0.956 . S
H303 C290 0.961 . S
H304 C290 0.961 . S
H305 C291 0.958 . S
H306 C291 0.961 . S
H307 C291 0.960 . S
C308 C309 1.391 . S
C308 C310 1.394 . S
C308 H324 0.931 . S
C309 C308 1.391 . S
C309 C313 1.376 . S
C310 C308 1.394 . S
C310 C311 1.369 . S
C310 C314 1.531 . S
C311 C310 1.369 . S
C311 C312 1.410 . S
C311 C319 1.503 . S
C312 C311 1.410 . S
C312 C313 1.392 . S
C312 C315 1.511 . S
C313 C309 1.376 . S
C313 C312 1.392 . S
C313 H325 0.929 . S
C314 C310 1.531 . S
C314 H326 0.960 . S
C314 H327 0.962 . S
C314 H328 0.960 . S
C315 C312 1.511 . S
C315 H329 0.961 . S
C315 H330 0.961 . S
C315 H331 0.961 . S
C316 C317 1.370 . S
C316 C318 1.363 . S
C316 H332 0.931 . S
C317 C316 1.370 . S
C317 C321 1.408 1_554 S
C318 C316 1.363 . S
C318 C319 1.370 . S
C318 C322 1.524 . S
C319 C311 1.503 . S
C319 C318 1.370 . S
C319 C320 1.403 1_554 S
C320 C319 1.403 1_556 S
C320 C321 1.404 . S
C320 C323 1.539 . S
C321 C317 1.408 1_556 S
C321 C320 1.404 . S
C321 H333 0.930 . S
C322 C318 1.524 . S
C322 H334 0.956 . S
C322 H335 0.961 . S
C322 H336 0.961 . S
C323 C320 1.539 . S
C323 H337 0.958 . S
C323 H338 0.961 . S
C323 H339 0.960 . S
H324 C308 0.931 . S
H325 C313 0.929 . S
H326 C314 0.960 . S
H327 C314 0.962 . S
H328 C314 0.960 . S
H329 C315 0.961 . S
H330 C315 0.961 . S
H331 C315 0.961 . S
H332 C316 0.931 . S
H333 C321 0.930 . S
H334 C322 0.956 . S
H335 C322 0.961 . S
H336 C322 0.961 . S
H337 C323 0.958 . S
H338 C323 0.961 . S
H339 C323 0.960 . S
C340 C341 1.391 . S
C340 C342 1.394 . S
C340 H356 0.931 . S
C341 C340 1.391 . S
C341 C345 1.376 . S
C342 C340 1.394 . S
C342 C343 1.369 . S
C342 C346 1.531 . S
C343 C342 1.369 . S
C343 C344 1.410 . S
C343 C351 1.503 . S
C344 C343 1.410 . S
C344 C345 1.392 . S
C344 C347 1.511 . S
C345 C341 1.376 . S
C345 C344 1.392 . S
C345 H357 0.929 . S
C346 C342 1.531 . S
C346 H358 0.960 . S
C346 H359 0.962 . S
C346 H360 0.960 . S
C347 C344 1.511 . S
C347 H361 0.961 . S
C347 H362 0.961 . S
C347 H363 0.961 . S
C348 C349 1.370 . S
C348 C350 1.363 . S
C348 H364 0.931 . S
C349 C348 1.370 . S
C349 C353 1.408 . S
C350 C348 1.363 . S
C350 C351 1.370 . S
C350 C354 1.524 . S
C351 C343 1.503 . S
C351 C350 1.370 . S
C351 C352 1.403 . S
C352 C351 1.403 . S
C352 C353 1.404 . S
C352 C355 1.539 . S
C353 C349 1.408 . S
C353 C352 1.404 . S
C353 H365 0.930 . S
C354 C350 1.524 . S
C354 H366 0.956 . S
C354 H367 0.961 . S
C354 H368 0.961 . S
C355 C352 1.539 . S
C355 H369 0.958 . S
C355 H370 0.961 . S
C355 H371 0.960 . S
H356 C340 0.931 . S
H357 C345 0.929 . S
H358 C346 0.960 . S
H359 C346 0.962 . S
H360 C346 0.960 . S
H361 C347 0.961 . S
H362 C347 0.961 . S
H363 C347 0.961 . S
H364 C348 0.931 . S
H365 C353 0.930 . S
H366 C354 0.956 . S
H367 C354 0.961 . S
H368 C354 0.961 . S
H369 C355 0.958 . S
H370 C355 0.961 . S
H371 C355 0.960 . S
C372 C373 1.391 . S
C372 C374 1.394 . S
C372 H388 0.931 . S
C373 C372 1.391 . S
C373 C377 1.376 . S
C374 C372 1.394 . S
C374 C375 1.369 . S
C374 C378 1.531 . S
C375 C374 1.369 . S
C375 C376 1.410 . S
C375 C383 1.503 . S
C376 C375 1.410 . S
C376 C377 1.392 . S
C376 C379 1.511 . S
C377 C373 1.376 . S
C377 C376 1.392 . S
C377 H389 0.929 . S
C378 C374 1.531 . S
C378 H390 0.960 . S
C378 H391 0.962 . S
C378 H392 0.960 . S
C379 C376 1.511 . S
C379 H393 0.961 . S
C379 H394 0.961 . S
C379 H395 0.961 . S
C380 C381 1.370 . S
C380 C382 1.363 . S
C380 H396 0.931 . S
C381 C380 1.370 . S
C381 C385 1.408 . S
C382 C380 1.363 . S
C382 C383 1.370 . S
C382 C386 1.524 . S
C383 C375 1.503 . S
C383 C382 1.370 . S
C383 C384 1.403 . S
C384 C383 1.403 . S
C384 C385 1.404 . S
C384 C387 1.539 . S
C385 C381 1.408 . S
C385 C384 1.404 . S
C385 H397 0.930 . S
C386 C382 1.524 . S
C386 H398 0.956 . S
C386 H399 0.961 . S
C386 H400 0.961 . S
C387 C384 1.539 . S
C387 H401 0.958 . S
C387 H402 0.961 . S
C387 H403 0.960 . S
H388 C372 0.931 . S
H389 C377 0.929 . S
H390 C378 0.960 . S
H391 C378 0.962 . S
H392 C378 0.960 . S
H393 C379 0.961 . S
H394 C379 0.961 . S
H395 C379 0.961 . S
H396 C380 0.931 . S
H397 C385 0.930 . S
H398 C386 0.956 . S
H399 C386 0.961 . S
H400 C386 0.961 . S
H401 C387 0.958 . S
H402 C387 0.961 . S
H403 C387 0.960 . S
C404 C405 1.391 . S
C404 C406 1.394 . S
C404 H420 0.931 . S
C405 C404 1.391 . S
C405 C409 1.376 . S
C406 C404 1.394 . S
C406 C407 1.369 . S
C406 C410 1.531 . S
C407 C406 1.369 . S
C407 C408 1.410 . S
C407 C415 1.503 . S
C408 C407 1.410 . S
C408 C409 1.392 . S
C408 C411 1.511 . S
C409 C405 1.376 . S
C409 C408 1.392 . S
C409 H421 0.929 . S
C410 C406 1.531 . S
C410 H422 0.960 . S
C410 H423 0.962 . S
C410 H424 0.960 . S
C411 C408 1.511 . S
C411 H425 0.961 . S
C411 H426 0.961 . S
C411 H427 0.961 . S
C412 C413 1.370 . S
C412 C414 1.363 . S
C412 H428 0.931 . S
C413 C412 1.370 . S
C413 C417 1.408 . S
C414 C412 1.363 . S
C414 C415 1.370 . S
C414 C418 1.524 . S
C415 C407 1.503 . S
C415 C414 1.370 . S
C415 C416 1.403 . S
C416 C415 1.403 . S
C416 C417 1.404 . S
C416 C419 1.539 . S
C417 C413 1.408 . S
C417 C416 1.404 . S
C417 H429 0.930 . S
C418 C414 1.524 . S
C418 H430 0.956 . S
C418 H431 0.961 . S
C418 H432 0.961 . S
C419 C416 1.539 . S
C419 H433 0.958 1_545 S
C419 H434 0.961 . S
C419 H435 0.960 . S
H420 C404 0.931 . S
H421 C409 0.929 . S
H422 C410 0.960 . S
H423 C410 0.962 . S
H424 C410 0.960 . S
H425 C411 0.961 . S
H426 C411 0.961 . S
H427 C411 0.961 . S
H428 C412 0.931 . S
H429 C417 0.930 . S
H430 C418 0.956 . S
H431 C418 0.961 . S
H432 C418 0.961 . S
H433 C419 0.958 1_565 S
H434 C419 0.961 . S
H435 C419 0.960 . S
C436 C437 1.391 . S
C436 C438 1.394 . S
C436 H452 0.931 . S
C437 C436 1.391 . S
C437 C441 1.376 . S
C438 C436 1.394 . S
C438 C439 1.369 . S
C438 C442 1.531 . S
C439 C438 1.369 . S
C439 C440 1.410 . S
C439 C447 1.503 . S
C440 C439 1.410 . S
C440 C441 1.392 . S
C440 C443 1.511 . S
C441 C437 1.376 . S
C441 C440 1.392 . S
C441 H453 0.929 . S
C442 C438 1.531 . S
C442 H454 0.960 . S
C442 H455 0.962 . S
C442 H456 0.960 . S
C443 C440 1.511 . S
C443 H457 0.961 . S
C443 H458 0.961 . S
C443 H459 0.961 . S
C444 C445 1.370 . S
C444 C446 1.363 . S
C444 H460 0.931 . S
C445 C444 1.370 . S
C445 C449 1.408 . S
C446 C444 1.363 . S
C446 C447 1.370 . S
C446 C450 1.524 . S
C447 C439 1.503 . S
C447 C446 1.370 . S
C447 C448 1.403 . S
C448 C447 1.403 . S
C448 C449 1.404 . S
C448 C451 1.539 . S
C449 C445 1.408 . S
C449 C448 1.404 . S
C449 H461 0.930 . S
C450 C446 1.524 . S
C450 H462 0.956 . S
C450 H463 0.961 . S
C450 H464 0.961 . S
C451 C448 1.539 . S
C451 H465 0.958 . S
C451 H466 0.961 . S
C451 H467 0.960 . S
H452 C436 0.931 . S
H453 C441 0.929 . S
H454 C442 0.960 . S
H455 C442 0.962 . S
H456 C442 0.960 . S
H457 C443 0.961 . S
H458 C443 0.961 . S
H459 C443 0.961 . S
H460 C444 0.931 . S
H461 C449 0.930 . S
H462 C450 0.956 . S
H463 C450 0.961 . S
H464 C450 0.961 . S
H465 C451 0.958 . S
H466 C451 0.961 . S
H467 C451 0.960 . S
C468 C469 1.391 . S
C468 C470 1.394 . S
C468 H484 0.931 . S
C469 C468 1.391 . S
C469 C473 1.376 . S
C470 C468 1.394 . S
C470 C471 1.369 . S
C470 C474 1.531 . S
C471 C470 1.369 . S
C471 C472 1.410 . S
C471 C479 1.503 . S
C472 C471 1.410 . S
C472 C473 1.392 . S
C472 C475 1.511 . S
C473 C469 1.376 . S
C473 C472 1.392 . S
C473 H485 0.929 . S
C474 C470 1.531 . S
C474 H486 0.960 . S
C474 H487 0.962 . S
C474 H488 0.960 . S
C475 C472 1.511 . S
C475 H489 0.961 . S
C475 H490 0.961 . S
C475 H491 0.961 . S
C476 C477 1.370 . S
C476 C478 1.363 . S
C476 H492 0.931 . S
C477 C476 1.370 . S
C477 C481 1.408 . S
C478 C476 1.363 . S
C478 C479 1.370 . S
C478 C482 1.524 . S
C479 C471 1.503 . S
C479 C478 1.370 . S
C479 C480 1.403 . S
C480 C479 1.403 . S
C480 C481 1.404 . S
C480 C483 1.539 . S
C481 C477 1.408 . S
C481 C480 1.404 . S
C481 H493 0.930 . S
C482 C478 1.524 . S
C482 H494 0.956 . S
C482 H495 0.961 . S
C482 H496 0.961 . S
C483 C480 1.539 . S
C483 H497 0.958 . S
C483 H498 0.961 . S
C483 H499 0.960 . S
H484 C468 0.931 . S
H485 C473 0.929 . S
H486 C474 0.960 . S
H487 C474 0.962 . S
H488 C474 0.960 . S
H489 C475 0.961 . S
H490 C475 0.961 . S
H491 C475 0.961 . S
H492 C476 0.931 . S
H493 C481 0.930 . S
H494 C482 0.956 . S
H495 C482 0.961 . S
H496 C482 0.961 . S
H497 C483 0.958 . S
H498 C483 0.961 . S
H499 C483 0.960 . S
C500 C501 1.391 . S
C500 C502 1.394 . S
C500 H516 0.931 1_556 S
C501 C500 1.391 . S
C501 C505 1.376 . S
C502 C500 1.394 . S
C502 C503 1.369 . S
C502 C506 1.531 . S
C503 C502 1.369 . S
C503 C504 1.410 . S
C503 C511 1.503 . S
C504 C503 1.410 . S
C504 C505 1.392 . S
C504 C507 1.511 . S
C505 C501 1.376 . S
C505 C504 1.392 . S
C505 H517 0.929 . S
C506 C502 1.531 . S
C506 H518 0.960 . S
C506 H519 0.962 . S
C506 H520 0.960 1_556 S
C507 C504 1.511 . S
C507 H521 0.961 . S
C507 H522 0.961 . S
C507 H523 0.961 . S
C508 C509 1.370 . S
C508 C510 1.363 . S
C508 H524 0.931 . S
C509 C508 1.370 . S
C509 C513 1.408 . S
C510 C508 1.363 . S
C510 C511 1.370 . S
C510 C514 1.524 . S
C511 C503 1.503 . S
C511 C510 1.370 . S
C511 C512 1.403 . S
C512 C511 1.403 . S
C512 C513 1.404 . S
C512 C515 1.539 . S
C513 C509 1.408 . S
C513 C512 1.404 . S
C513 H525 0.930 . S
C514 C510 1.524 . S
C514 H526 0.956 . S
C514 H527 0.961 . S
C514 H528 0.961 . S
C515 C512 1.539 . S
C515 H529 0.958 . S
C515 H530 0.961 . S
C515 H531 0.960 . S
H516 C500 0.931 1_554 S
H517 C505 0.929 . S
H518 C506 0.960 . S
H519 C506 0.962 . S
H520 C506 0.960 1_554 S
H521 C507 0.961 . S
H522 C507 0.961 . S
H523 C507 0.961 . S
H524 C508 0.931 . S
H525 C513 0.930 . S
H526 C514 0.956 . S
H527 C514 0.961 . S
H528 C514 0.961 . S
H529 C515 0.958 . S
H530 C515 0.961 . S
H531 C515 0.960 . S
C532 C533 1.391 . S
C532 C534 1.394 . S
C532 H548 0.931 . S
C533 C532 1.391 . S
C533 C537 1.376 . S
C534 C532 1.394 . S
C534 C535 1.369 . S
C534 C538 1.531 . S
C535 C534 1.369 . S
C535 C536 1.410 . S
C535 C543 1.503 . S
C536 C535 1.410 . S
C536 C537 1.392 . S
C536 C539 1.511 . S
C537 C533 1.376 . S
C537 C536 1.392 . S
C537 H549 0.929 . S
C538 C534 1.531 . S
C538 H550 0.960 . S
C538 H551 0.962 . S
C538 H552 0.960 . S
C539 C536 1.511 . S
C539 H553 0.961 . S
C539 H554 0.961 . S
C539 H555 0.961 . S
C540 C541 1.370 . S
C540 C542 1.363 . S
C540 H556 0.931 . S
C541 C540 1.370 . S
C541 C545 1.408 . S
C542 C540 1.363 . S
C542 C543 1.370 . S
C542 C546 1.524 . S
C543 C535 1.503 . S
C543 C542 1.370 . S
C543 C544 1.403 . S
C544 C543 1.403 . S
C544 C545 1.404 . S
C544 C547 1.539 . S
C545 C541 1.408 . S
C545 C544 1.404 . S
C545 H557 0.930 . S
C546 C542 1.524 . S
C546 H558 0.956 . S
C546 H559 0.961 . S
C546 H560 0.961 . S
C547 C544 1.539 . S
C547 H561 0.958 . S
C547 H562 0.961 . S
C547 H563 0.960 . S
H548 C532 0.931 . S
H549 C537 0.929 . S
H550 C538 0.960 . S
H551 C538 0.962 . S
H552 C538 0.960 . S
H553 C539 0.961 . S
H554 C539 0.961 . S
H555 C539 0.961 . S
H556 C540 0.931 . S
H557 C545 0.930 . S
H558 C546 0.956 . S
H559 C546 0.961 . S
H560 C546 0.961 . S
H561 C547 0.958 . S
H562 C547 0.961 . S
H563 C547 0.960 . S
C564 C565 1.391 . S
C564 C566 1.394 . S
C564 H580 0.931 . S
C565 C564 1.391 . S
C565 C569 1.376 . S
C566 C564 1.394 . S
C566 C567 1.369 . S
C566 C570 1.531 . S
C567 C566 1.369 . S
C567 C568 1.410 . S
C567 C575 1.503 . S
C568 C567 1.410 . S
C568 C569 1.392 . S
C568 C571 1.511 . S
C569 C565 1.376 . S
C569 C568 1.392 . S
C569 H581 0.929 . S
C570 C566 1.531 . S
C570 H582 0.960 . S
C570 H583 0.962 . S
C570 H584 0.960 . S
C571 C568 1.511 . S
C571 H585 0.961 . S
C571 H586 0.961 . S
C571 H587 0.961 1_565 S
C572 C573 1.370 . S
C572 C574 1.363 . S
C572 H588 0.931 . S
C573 C572 1.370 . S
C573 C577 1.408 . S
C574 C572 1.363 . S
C574 C575 1.370 . S
C574 C578 1.524 . S
C575 C567 1.503 . S
C575 C574 1.370 . S
C575 C576 1.403 . S
C576 C575 1.403 . S
C576 C577 1.404 . S
C576 C579 1.539 . S
C577 C573 1.408 . S
C577 C576 1.404 . S
C577 H589 0.930 1_565 S
C578 C574 1.524 . S
C578 H590 0.956 . S
C578 H591 0.961 . S
C578 H592 0.961 . S
C579 C576 1.539 . S
C579 H593 0.958 . S
C579 H594 0.961 1_565 S
C579 H595 0.960 . S
H580 C564 0.931 . S
H581 C569 0.929 . S
H582 C570 0.960 . S
H583 C570 0.962 . S
H584 C570 0.960 . S
H585 C571 0.961 . S
H586 C571 0.961 . S
H587 C571 0.961 1_545 S
H588 C572 0.931 . S
H589 C577 0.930 1_545 S
H590 C578 0.956 . S
H591 C578 0.961 . S
H592 C578 0.961 . S
H593 C579 0.958 . S
H594 C579 0.961 1_545 S
H595 C579 0.960 . S
C221 C112 1.638 . S
C213 C43 1.640 . S
C245 C10 1.655 . S
C253 C184 1.637 . S
C277 C21 1.677 . S
C285 C100 1.671 . S
C309 C32 1.639 . S
C317 C196 1.631 . S
C349 C102 1.436 . S
C341 C5 1.619 . S
C381 C183 1.707 . S
C373 C15 1.695 . S
C405 C27 1.627 . S
C413 C99 1.655 . S
C437 C38 1.608 . S
C445 C186 1.456 . S
C477 C198 1.394 . S
C469 C16 1.545 . S
C509 C114 1.399 . S
C501 C26 1.560 1_556 S
C541 C195 1.631 . S
C533 C37 1.608 . S
C565 C4 1.572 . S
C573 C111 1.585 . S
