# Generated by pormake.
# Topology zzz, (3,6)-cn, num edge types: 1
# Building blocks:
#     Node 0, Type 0, BuildingBlock: MIDCAF_clean_linker_0, # of connection points: 3
#     Node 1, Type 0, BuildingBlock: MIDCAF_clean_linker_0, # of connection points: 3
#     Node 2, Type 0, BuildingBlock: MIDCAF_clean_linker_0, # of connection points: 3
#     Node 3, Type 0, BuildingBlock: MIDCAF_clean_linker_0, # of connection points: 3
#     Node 4, Type 0, BuildingBlock: MIDCAF_clean_linker_0, # of connection points: 3
#     Node 5, Type 0, BuildingBlock: MIDCAF_clean_linker_0, # of connection points: 3
#     Node 6, Type 0, BuildingBlock: MIDCAF_clean_linker_0, # of connection points: 3
#     Node 7, Type 0, BuildingBlock: MIDCAF_clean_linker_0, # of connection points: 3
#     Node 8, Type 1, BuildingBlock: INOVEN_clean_sbu_0, # of connection points: 6
#     Node 9, Type 1, BuildingBlock: INOVEN_clean_sbu_0, # of connection points: 6
#     Node 10, Type 1, BuildingBlock: INOVEN_clean_sbu_0, # of connection points: 6
#     Node 11, Type 1, BuildingBlock: INOVEN_clean_sbu_0, # of connection points: 6
#     Edge 12, Type (0, 1), BuildingBlock: AJUNOK_clean_linker_0, # of connection points: 2
#     Edge 13, Type (0, 1), BuildingBlock: AJUNOK_clean_linker_0, # of connection points: 2
#     Edge 14, Type (0, 1), BuildingBlock: AJUNOK_clean_linker_0, # of connection points: 2
#     Edge 15, Type (0, 1), BuildingBlock: AJUNOK_clean_linker_0, # of connection points: 2
#     Edge 16, Type (0, 1), BuildingBlock: AJUNOK_clean_linker_0, # of connection points: 2
#     Edge 17, Type (0, 1), BuildingBlock: AJUNOK_clean_linker_0, # of connection points: 2
#     Edge 18, Type (0, 1), BuildingBlock: AJUNOK_clean_linker_0, # of connection points: 2
#     Edge 19, Type (0, 1), BuildingBlock: AJUNOK_clean_linker_0, # of connection points: 2
#     Edge 20, Type (0, 1), BuildingBlock: AJUNOK_clean_linker_0, # of connection points: 2
#     Edge 21, Type (0, 1), BuildingBlock: AJUNOK_clean_linker_0, # of connection points: 2
#     Edge 22, Type (0, 1), BuildingBlock: AJUNOK_clean_linker_0, # of connection points: 2
#     Edge 23, Type (0, 1), BuildingBlock: AJUNOK_clean_linker_0, # of connection points: 2
#     Edge 24, Type (0, 1), BuildingBlock: AJUNOK_clean_linker_0, # of connection points: 2
#     Edge 25, Type (0, 1), BuildingBlock: AJUNOK_clean_linker_0, # of connection points: 2
#     Edge 26, Type (0, 1), BuildingBlock: AJUNOK_clean_linker_0, # of connection points: 2
#     Edge 27, Type (0, 1), BuildingBlock: AJUNOK_clean_linker_0, # of connection points: 2
#     Edge 28, Type (0, 1), BuildingBlock: AJUNOK_clean_linker_0, # of connection points: 2
#     Edge 29, Type (0, 1), BuildingBlock: AJUNOK_clean_linker_0, # of connection points: 2
#     Edge 30, Type (0, 1), BuildingBlock: AJUNOK_clean_linker_0, # of connection points: 2
#     Edge 31, Type (0, 1), BuildingBlock: AJUNOK_clean_linker_0, # of connection points: 2
#     Edge 32, Type (0, 1), BuildingBlock: AJUNOK_clean_linker_0, # of connection points: 2
#     Edge 33, Type (0, 1), BuildingBlock: AJUNOK_clean_linker_0, # of connection points: 2
#     Edge 34, Type (0, 1), BuildingBlock: AJUNOK_clean_linker_0, # of connection points: 2
#     Edge 35, Type (0, 1), BuildingBlock: AJUNOK_clean_linker_0, # of connection points: 2
# Relax obj value: 0.486
# Max RMSD: 0.264
# Mean RMSD: 0.254
data_MOF--net-zzz--node1-INOVEN_clean_sbu_0--node2-MIDCAF_clean_linker_0--edge1-AJUNOK_clean_linker_0
_symmetry_space_group_name_H-M    P1
_symmetry_Int_Tables_number       1
_symmetry_cell_setting            triclinic
loop_
_symmetry_equiv_pos_as_xyz
'x, y, z'
_cell_length_a     46.403542
_cell_length_b     46.242225
_cell_length_c     14.463518
_cell_angle_alpha  89.684722
_cell_angle_beta   89.945395
_cell_angle_gamma 89.959571
loop_
_atom_site_label
_atom_site_type_symbol
_atom_site_fract_x
_atom_site_fract_y
_atom_site_fract_z
_atom_type_partial_charge
C0 C 0.84383 0.51353 0.40923 0.0
C1 C 0.84563 0.509 0.50558 0.0
C2 C 0.82073 0.49913 0.55197 0.0
C3 C 0.79544 0.49251 0.50284 0.0
H4 H 0.72079 0.53038 0.18626 0.0
H5 H 0.67957 0.5452 0.08933 0.0
H6 H 0.64245 0.46025 0.12234 0.0
H7 H 0.68295 0.4457 0.21811 0.0
H8 H 0.76607 0.41991 0.09539 0.0
H9 H 0.80414 0.39079 0.03087 0.0
H10 H 0.82696 0.36076 0.30496 0.0
H11 H 0.79013 0.39241 0.36999 0.0
H12 H 0.81861 0.50898 0.2858 0.0
H13 H 0.86261 0.52009 0.36999 0.0
H14 H 0.82114 0.4954 0.62593 0.0
H15 H 0.77746 0.48287 0.53953 0.0
N16 N 0.74887 0.49178 0.3123 0.0
N17 N 0.73962 0.44777 0.23618 0.0
N18 N 0.77979 0.45185 0.33222 0.0
C19 C 0.73169 0.4754 0.25578 0.0
C20 C 0.76346 0.43585 0.27452 0.0
C21 C 0.77282 0.47956 0.35198 0.0
C22 C 0.70517 0.48688 0.21022 0.0
C23 C 0.70343 0.51521 0.17459 0.0
C24 C 0.67996 0.52358 0.11848 0.0
C25 C 0.65752 0.50398 0.0986 0.0
C26 C 0.65892 0.47611 0.13744 0.0
C27 C 0.68234 0.46771 0.19206 0.0
C28 C 0.77578 0.40895 0.23762 0.0
C29 C 0.77827 0.40601 0.14156 0.0
C30 C 0.80017 0.38894 0.10438 0.0
C31 C 0.81937 0.37391 0.16286 0.0
C32 C 0.81315 0.37276 0.25814 0.0
C33 C 0.79194 0.39071 0.29552 0.0
C34 C 0.79419 0.49609 0.40636 0.0
C35 C 0.81846 0.50728 0.36056 0.0
C36 C 0.01878 0.83403 0.42219 0.0
C37 C 0.02545 0.83724 0.51665 0.0
C38 C 0.03494 0.81254 0.56558 0.0
C39 C 0.04016 0.7863 0.51964 0.0
H40 H 0.08694 0.67228 0.23069 0.0
H41 H 0.07209 0.63129 0.13884 0.0
H42 H 0.98461 0.66306 0.13815 0.0
H43 H 0.99987 0.70516 0.22948 0.0
H44 H 0.10725 0.75713 0.11032 0.0
H45 H 0.1336 0.79752 0.04552 0.0
H46 H 0.16927 0.8161 0.31472 0.0
H47 H 0.14023 0.77709 0.38111 0.0
H48 H 0.02083 0.80684 0.30235 0.0
H49 H 0.01155 0.85243 0.38178 0.0
H50 H 0.03954 0.81377 0.63881 0.0
H51 H 0.04991 0.76857 0.55764 0.0
N52 N 0.03958 0.73718 0.33508 0.0
N53 N 0.08321 0.72769 0.25691 0.0
N54 N 0.07902 0.76887 0.34842 0.0
C55 C 0.05591 0.71952 0.27953 0.0
C56 C 0.09493 0.75209 0.29176 0.0
C57 C 0.05159 0.76183 0.37079 0.0
C58 C 0.04466 0.69227 0.2374 0.0
C59 C 0.06438 0.67048 0.21239 0.0
C60 C 0.05577 0.64661 0.16026 0.0
C61 C 0.02704 0.64349 0.13142 0.0
C62 C 1.00694 0.66472 0.15914 0.0
C63 C 0.0156 0.68875 0.21214 0.0
C64 C 0.12106 0.76473 0.25093 0.0
C65 C 0.12173 0.76899 0.15498 0.0
C66 C 0.13697 0.79231 0.11779 0.0
C67 C 0.15223 0.81119 0.17609 0.0
C68 C 0.15632 0.80298 0.26898 0.0
C69 C 0.14012 0.78036 0.30687 0.0
C70 C 0.03531 0.78378 0.42412 0.0
C71 C 0.02374 0.80771 0.37661 0.0
C72 C 0.72198 0.01921 0.54195 0.0
C73 C 0.69546 0.01492 0.49615 0.0
C74 C 0.6956 0.01476 0.39882 0.0
C75 C 0.72078 0.02094 0.34912 0.0
H76 H 0.83172 0.99422 0.23817 0.0
H77 H 0.87461 0.97858 0.15221 0.0
H78 H 0.89799 0.06785 0.10598 0.0
H79 H 0.85638 0.08325 0.194 0.0
H80 H 0.79206 0.11383 0.0956 0.0
H81 H 0.75961 0.14312 1.00101 0.0
H82 H 0.70022 0.14835 0.23067 0.0
H83 H 0.73283 0.12038 0.32504 0.0
H84 H 0.76668 0.03133 0.52905 0.0
H85 H 0.72303 0.01869 0.61671 0.0
H86 H 0.67578 1.01175 0.36062 0.0
H87 H 0.71946 0.02294 0.27452 0.0
N88 N 0.79458 0.03385 0.31514 0.0
N89 N 0.8027 0.07707 0.23165 0.0
N90 N 0.7601 0.07117 0.31503 0.0
C91 C 0.81209 0.05055 0.25992 0.0
C92 C 0.7769 0.0876 0.25949 0.0
C93 C 0.7685 0.04457 0.34366 0.0
C94 C 0.84018 0.04001 0.22193 0.0
C95 C 0.84636 1.01043 0.21128 0.0
C96 C 0.87079 1.0015 0.16082 0.0
C97 C 0.88952 0.02195 0.11974 0.0
C98 C 0.88421 0.0514 0.13601 0.0
C99 C 0.86003 0.06026 0.18624 0.0
C100 C 0.76433 0.1138 0.21642 0.0
C101 C 0.77276 0.12253 0.1272 0.0
C102 C 0.75415 0.13932 0.07287 0.0
C103 C 0.72692 0.1474 0.10714 0.0
C104 C 0.72092 0.14265 0.20135 0.0
C105 C 0.73953 0.12611 0.25555 0.0
C106 C 0.74668 0.0274 0.39482 0.0
C107 C 0.74725 0.02569 0.49182 0.0
C108 C 0.41456 0.73185 0.07802 0.0
C109 C 0.39228 0.71824 0.12862 0.0
C110 C 0.38383 0.73081 0.213 0.0
C111 C 0.40131 0.75162 0.25484 0.0
H112 H 0.5054 0.85497 0.33514 0.0
H113 H 0.51958 0.8979 0.24464 0.0
H114 H 0.52761 0.84481 1.00133 0.0
H115 H 0.51395 0.80235 0.09188 0.0
H116 H 0.4556 0.73682 0.50725 0.0
H117 H 0.46703 0.69292 0.59238 0.0
H118 H 0.55277 0.69348 0.47661 0.0
H119 H 0.54086 0.73762 0.38858 0.0
H120 H 0.44998 0.76126 0.0811 0.0
H121 H 0.42184 0.72355 1.01223 0.0
H122 H 0.36538 0.7228 0.25094 0.0
H123 H 0.39677 0.75811 0.32523 0.0
N124 N 0.46682 0.79478 0.22734 0.0
N125 N 0.50329 0.78467 0.3366 0.0
N126 N 0.46052 0.75735 0.33424 0.0
C127 C 0.49274 0.80134 0.26528 0.0
C128 C 0.48679 0.76252 0.37171 0.0
C129 C 0.45042 0.77321 0.26249 0.0
C130 C 0.50925 0.82518 0.22106 0.0
C131 C 0.51136 0.85243 0.26321 0.0
C132 C 0.5189 0.87709 0.21078 0.0
C133 C 0.52435 0.875 0.11499 0.0
C134 C 0.52378 0.84737 0.07472 0.0
C135 C 0.51614 0.82291 0.12678 0.0
C136 C 0.49737 0.74105 0.44151 0.0
C137 C 0.47725 0.72818 0.50197 0.0
C138 C 0.48386 0.7029 0.55133 0.0
C139 C 0.51094 0.68952 0.54236 0.0
C140 C 0.53168 0.70314 0.48532 0.0
C141 C 0.52504 0.7287 0.43584 0.0
C142 C 0.42609 0.7617 0.20946 0.0
C143 C 0.43102 0.75367 0.11772 0.0
C144 C 0.20726 0.54914 0.95075 0.0
C145 C 0.19418 0.52202 0.96356 0.0
C146 C 0.20839 0.50159 0.0206 0.0
C147 C 0.23363 0.50901 0.0693 0.0
H148 H 0.3567 0.52576 0.17857 0.0
H149 H 0.39794 0.51165 0.27581 0.0
H150 H 0.34318 0.51417 0.51716 0.0
H151 H 0.30237 0.52765 0.42012 0.0
H152 H 0.29422 0.60994 0.40019 0.0
H153 H 0.2635 0.6377 0.50393 0.0
H154 H 0.20126 0.64824 0.28434 0.0
H155 H 0.23236 0.62235 0.1802 0.0
H156 H 0.24059 0.5783 0.9917 0.0
H157 H 0.19716 0.56544 0.9075 0.0
H158 H 0.1994 0.48019 0.03033 0.0
H159 H 0.24284 0.49353 0.11736 0.0
N160 N 0.28757 0.5322 0.17083 0.0
N161 N 0.29731 0.57049 0.27344 0.0
N162 N 0.26075 0.57535 0.16425 0.0
C163 C 0.30369 0.54372 0.24114 0.0
C164 C 0.27602 0.58655 0.23518 0.0
C165 C 0.26607 0.54847 0.13125 0.0
C166 C 0.32622 0.52726 0.29159 0.0
C167 C 0.35337 0.52212 0.25185 0.0
C168 C 0.37707 0.51461 0.30794 0.0
C169 C 0.37405 0.51224 0.40484 0.0
C170 C 0.34639 0.51563 0.44309 0.0
C171 C 0.32291 0.52322 0.38737 0.0
C172 C 0.26485 0.61243 0.28352 0.0
C173 C 0.27455 0.61929 0.37293 0.0
C174 C 0.25687 0.63508 0.4327 0.0
C175 C 0.22912 0.64352 0.40419 0.0
C176 C 0.22215 0.64146 0.30981 0.0
C177 C 0.23997 0.6262 0.24983 0.0
C178 C 0.24522 0.53701 0.06189 0.0
C179 C 0.23228 0.55652 0.99925 0.0
C180 C 1.00269 0.21424 0.90774 0.0
C181 C 0.01436 0.19016 0.95497 0.0
C182 C 0.02043 0.19329 0.04999 0.0
C183 C 0.01404 0.21907 0.09667 0.0
H184 H 0.94739 0.34882 0.27366 0.0
H185 H 0.96311 0.38903 0.3673 0.0
H186 H 0.05183 0.36512 0.32058 0.0
H187 H 0.03588 0.32378 0.22738 0.0
H188 H 0.91528 0.28547 0.35382 0.0
H189 H 0.88848 0.25135 0.44974 0.0
H190 H 0.88398 0.19231 0.21977 0.0
H191 H 0.90962 0.22651 0.12383 0.0
H192 H 0.98491 0.25712 0.91812 0.0
H193 H 0.99771 0.21285 0.83476 0.0
H194 H 0.02839 0.17517 0.09023 0.0
H195 H 0.017 0.21981 0.17096 0.0
N196 N 0.99584 0.28865 0.14122 0.0
N197 N 0.95258 0.29625 0.22332 0.0
N198 N 0.95757 0.25543 0.13087 0.0
C199 C 0.9794 0.30548 0.19895 0.0
C200 C 0.94151 0.27136 0.1897 0.0
C201 C 0.98442 0.26369 0.10554 0.0
C202 C 0.99032 0.33256 0.24354 0.0
C203 C 0.97035 0.35202 0.28249 0.0
C204 C 0.97937 0.37542 0.33603 0.0
C205 C 1.00875 0.38025 0.35335 0.0
C206 C 0.02896 0.36172 0.31068 0.0
C207 C 0.01986 0.33817 0.25623 0.0
C208 C 0.91571 0.25804 0.23249 0.0
C209 C 0.90724 0.26587 0.32231 0.0
C210 C 0.89186 0.2463 0.37752 0.0
C211 C 0.88489 0.21874 0.34348 0.0
C212 C 0.88898 0.21325 0.24884 0.0
C213 C 0.90413 0.23281 0.19369 0.0
C214 C 1.00113 0.2425 0.05038 0.0
C215 C 0.99593 0.23992 0.95499 0.0
C216 C 0.33254 0.97464 0.93972 0.0
C217 C 0.34577 1.00171 0.95111 0.0
C218 C 0.33123 0.02264 1.00463 0.0
C219 C 0.30539 0.01582 0.05133 0.0
H220 H 0.18017 0.99708 0.14387 0.0
H221 H 0.13687 1.01097 0.23213 0.0
H222 H 0.18833 0.01646 0.47988 0.0
H223 H 0.23093 1.00229 0.39233 0.0
H224 H 0.2441 0.92131 0.39704 0.0
H225 H 0.27442 0.89502 0.50662 0.0
H226 H 0.33639 0.87937 0.28947 0.0
H227 H 0.3057 0.90389 0.1799 0.0
H228 H 0.29853 0.94607 0.98062 0.0
H229 H 0.34291 0.95798 0.89915 0.0
H230 H 0.34038 0.04399 0.01321 0.0
H231 H 0.29587 0.03168 0.09697 0.0
N232 N 0.24956 0.99325 0.14733 0.0
N233 N 0.2397 0.95668 0.25744 0.0
N234 N 0.27794 0.95113 0.15455 0.0
C235 C 0.23284 0.98249 0.21795 0.0
C236 C 0.26207 0.94075 0.22589 0.0
C237 C 0.27217 0.97709 0.11467 0.0
C238 C 0.20895 0.99897 0.26105 0.0
C239 C 0.18221 1.00213 0.21656 0.0
C240 C 0.1574 1.00969 0.26743 0.0
C241 C 0.15903 0.01451 0.36355 0.0
C242 C 0.18622 0.01308 0.40615 0.0
C243 C 0.21073 1.00515 0.35584 0.0
C244 C 0.27331 0.91607 0.28085 0.0
C245 C 0.26361 0.91116 0.37182 0.0
C246 C 0.28106 0.89622 0.43491 0.0
C247 C 0.30857 0.88661 0.40804 0.0
C248 C 0.31563 0.88701 0.31345 0.0
C249 C 0.29807 0.90147 0.25033 0.0
C250 C 0.29356 0.9879 0.04554 0.0
C251 C 0.30696 0.96783 0.98645 0.0
C252 C 0.41103 0.32113 0.23324 0.0
C253 C 0.41574 0.31831 0.32901 0.0
C254 C 0.41496 0.2903 0.36771 0.0
C255 C 0.41849 0.26623 0.31051 0.0
H256 H 0.53179 0.19766 0.22662 0.0
H257 H 0.54192 0.15628 0.33003 0.0
H258 H 0.45323 0.12931 0.30843 0.0
H259 H 0.44319 0.17026 0.20726 0.0
H260 H 0.46693 0.27308 0.89451 0.0
H261 H 0.47846 0.31992 0.8255 0.0
H262 H 0.54563 0.3318 0.02774 0.0
H263 H 0.53342 0.285 0.09811 0.0
H264 H 0.41375 0.30052 0.10228 0.0
H265 H 0.41011 0.34214 0.19999 0.0
H266 H 0.41575 0.28716 0.44188 0.0
H267 H 0.42316 0.2455 0.34233 0.0
N268 N 0.4527 0.22741 0.19768 0.0
N269 N 0.49387 0.23017 0.10154 0.0
N270 N 0.45821 0.26627 0.09641 0.0
C271 C 0.47767 0.21545 0.16623 0.0
C272 C 0.48341 0.25555 0.06487 0.0
C273 C 0.44286 0.25284 0.16332 0.0
C274 C 0.48664 0.18738 0.20897 0.0
C275 C 0.51477 0.18233 0.24171 0.0
C276 C 0.52052 0.15865 0.30117 0.0
C277 C 0.49827 0.1396 0.32853 0.0
C278 C 0.47077 0.14369 0.29008 0.0
C279 C 0.46506 0.16716 0.23157 0.0
C280 C 0.49955 0.27496 1.00102 0.0
C281 C 0.48518 0.28499 0.92128 0.0
C282 C 0.49157 0.31213 0.88234 0.0
C283 C 0.51238 0.33021 0.92256 0.0
C284 C 0.52887 0.31887 0.9964 0.0
C285 C 0.52244 0.29163 0.03542 0.0
C286 C 0.42152 0.2703 0.21463 0.0
C287 C 0.41324 0.29703 0.17644 0.0
Gd288 Gd 0.04297 1.00839 0.80103 0.0
Gd289 Gd 0.99989 0.01976 0.66723 0.0
C290 C 0.0219 0.95501 0.67031 0.0
C291 C 0.0754 0.9907 0.93574 0.0
C292 C 0.09575 0.96742 0.95854 0.0
C293 C 0.11834 0.9729 0.02034 0.0
C294 C 0.09211 0.93951 0.92318 0.0
C295 C 0.13156 0.92209 0.01885 0.0
C296 C 0.10998 0.91701 0.95278 0.0
C297 C 0.13614 0.95036 0.05041 0.0
C298 C 0.06638 0.02485 0.63556 0.0
C299 C 0.02149 0.07326 0.79646 0.0
C300 C 0.96669 0.03886 0.53663 0.0
C301 C 0.94547 0.06214 0.52729 0.0
C302 C 0.93823 0.07943 0.60327 0.0
C303 C 0.93313 0.06788 0.44089 0.0
C304 C 0.90861 0.10994 0.50399 0.0
C305 C 0.91487 0.09162 0.42919 0.0
C306 C 0.91991 0.10318 0.5917 0.0
C307 C 0.97652 1.00346 0.83274 0.0
O308 O 0.03395 0.96239 0.74979 0.0
O309 O 1.01005 0.975 0.61749 0.0
O310 O 0.08386 1.00933 0.87343 0.0
O311 O 0.04827 0.98348 0.92691 0.0
O312 O 0.07426 0.03443 0.71546 0.0
O313 O 0.04566 1.00744 0.64652 0.0
O314 O 1.00918 0.06587 0.71748 0.0
O315 O 0.03296 0.05319 0.8496 0.0
O316 O 0.95956 0.01787 0.59269 0.0
O317 O 0.9935 0.047 0.5465 0.0
O318 O 0.96844 0.9941 0.75288 0.0
O319 O 0.99727 0.02082 0.8215 0.0
H320 H 0.12152 0.99439 0.04805 0.0
H321 H 0.07468 0.93488 0.87597 0.0
H322 H 0.10574 0.89531 0.92849 0.0
H323 H 0.15259 0.95465 0.1015 0.0
H324 H 0.94749 0.0751 0.6707 0.0
H325 H 0.9385 0.05465 0.38167 0.0
H326 H 0.90716 0.09661 0.36026 0.0
H327 H 0.91556 0.11698 0.65037 0.0
Gd328 Gd 0.52838 0.03393 0.8001 0.0
Gd329 Gd 0.51606 0.99055 0.67386 0.0
C330 C 0.58026 1.01144 0.66634 0.0
C331 C 0.54817 0.06855 0.92523 0.0
C332 C 0.57086 0.09045 0.93205 0.0
C333 C 0.58667 0.09905 0.85388 0.0
C334 C 0.57774 0.1018 0.01868 0.0
C335 C 0.61821 0.12788 0.9511 0.0
C336 C 0.60123 0.12036 0.02824 0.0
C337 C 0.61023 0.11765 0.86337 0.0
C338 C 0.51012 0.05673 0.63572 0.0
C339 C 0.46418 0.01247 0.80691 0.0
C340 C 0.49473 0.95535 0.55357 0.0
C341 C 0.4703 0.93535 0.55587 0.0
C342 C 0.45532 0.93026 0.63877 0.0
C343 C 0.46063 0.9228 0.47386 0.0
C344 C 0.41898 0.90319 0.55507 0.0
C345 C 0.43516 0.90678 0.47343 0.0
C346 C 0.42986 0.91415 0.63846 0.0
C347 C 0.53377 0.96785 0.8394 0.0
O348 O 0.57369 0.02315 0.74698 0.0
O349 O 0.5596 1.00048 0.61523 0.0
O350 O 0.52662 0.07496 0.87113 0.0
O351 O 0.55692 0.04184 0.9158 0.0
O352 O 0.50112 0.06462 0.71624 0.0
O353 O 0.52794 0.03625 0.64494 0.0
O354 O 0.47069 1.00198 0.72468 0.0
O355 O 0.48509 0.02247 0.85898 0.0
O356 O 0.5162 0.94868 0.60769 0.0
O357 O 0.488 0.98277 0.55697 0.0
O358 O 0.54324 0.96007 0.7593 0.0
O359 O 0.51613 0.98841 0.82859 0.0
H360 H 0.58143 0.09055 0.78629 0.0
H361 H 0.56568 0.09537 0.07962 0.0
H362 H 0.60722 0.12722 0.09708 0.0
H363 H 0.62302 0.12299 0.80296 0.0
H364 H 0.4627 0.93971 0.70292 0.0
H365 H 0.47204 0.92648 0.40945 0.0
H366 H 0.42713 0.89886 0.40796 0.0
H367 H 0.41795 0.91148 0.70238 0.0
Gd368 Gd 0.50017 0.51852 0.82872 0.0
Gd369 Gd 0.53421 0.50363 0.66952 0.0
C370 C 0.52124 0.57087 0.68989 0.0
C371 C 0.47688 0.53825 0.97776 0.0
C372 C 0.45474 0.55974 0.99998 0.0
C373 C 0.43218 0.56602 0.93823 0.0
C374 C 0.45679 0.57487 0.08297 0.0
C375 C 0.41446 0.60332 0.04172 0.0
C376 C 0.43703 0.59659 0.10339 0.0
C377 C 0.41211 0.58762 0.95913 0.0
C378 C 0.46687 0.50511 0.67911 0.0
C379 C 0.51388 0.45304 0.80788 0.0
C380 C 0.54785 0.47813 0.51857 0.0
C381 C 0.5281 0.45795 0.47251 0.0
C382 C 0.53786 0.4313 0.43945 0.0
C383 C 0.49831 0.46303 0.47888 0.0
C384 C 0.48823 0.41395 0.43192 0.0
C385 C 0.47857 0.44129 0.45939 0.0
C386 C 0.51802 0.40957 0.41791 0.0
C387 C 0.56801 0.51757 0.81693 0.0
O388 O 0.51033 0.56356 0.7715 0.0
O389 O 0.5309 0.5508 0.63331 0.0
O390 O 0.46787 0.51505 0.93561 0.0
O391 O 0.50102 0.54839 0.9438 0.0
O392 O 0.46115 0.49735 0.7631 0.0
O393 O 0.48958 0.51996 0.67896 0.0
O394 O 0.51514 0.46056 0.71964 0.0
O395 O 0.51358 0.4737 0.86984 0.0
O396 O 0.55719 0.4692 0.59896 0.0
O397 O 0.53933 0.50505 0.52039 0.0
O398 O 0.57442 0.52336 0.73139 0.0
O399 O 0.54507 0.50295 0.81932 0.0
H400 H 0.43041 0.55461 0.87324 0.0
H401 H 0.47421 0.57045 0.13091 0.0
H402 H 0.44031 0.60898 0.16579 0.0
H403 H 0.3952 0.5925 0.90988 0.0
H404 H 0.56073 0.42684 0.43447 0.0
H405 H 0.49031 0.48335 0.50452 0.0
H406 H 0.45586 0.4455 0.47031 0.0
H407 H 0.52606 0.38903 0.3931 0.0
Gd408 Gd 0.01203 0.48984 0.80862 0.0
Gd409 Gd 0.02549 0.53294 0.67883 0.0
C410 C 0.96057 0.51334 0.67532 0.0
C411 C 0.99314 0.45624 0.93903 0.0
C412 C 0.97186 0.43327 0.95481 0.0
C413 C 0.97765 0.41192 0.02143 0.0
C414 C 0.94532 0.43321 0.90851 0.0
C415 C 0.92904 0.39315 1.00513 0.0
C416 C 0.92402 0.41333 0.93371 0.0
C417 C 0.95642 0.39196 0.04631 0.0
C418 C 0.02848 0.46611 0.64357 0.0
C419 C 0.07688 0.51037 0.81233 0.0
C420 C 0.04667 0.56706 0.55384 0.0
C421 C 0.07007 0.58824 0.55387 0.0
C422 C 0.08412 0.59535 0.63662 0.0
C423 C 0.07955 0.60026 0.47031 0.0
C424 C 0.11932 0.62349 0.55036 0.0
C425 C 0.10399 0.61781 0.46852 0.0
C426 C 0.10853 0.61301 0.63494 0.0
C427 C 1.00899 0.55653 0.84389 0.0
O428 O 0.96678 0.50126 0.75613 0.0
O429 O 0.98151 0.52354 0.62324 0.0
O430 O 0.0149 0.44969 0.88605 0.0
O431 O 0.98326 0.48238 0.92416 0.0
O432 O 0.03711 0.45763 0.72414 0.0
O433 O 0.01196 0.4876 0.65365 0.0
O434 O 0.0707 0.52083 0.72947 0.0
O435 O 0.0557 0.50095 0.86484 0.0
O436 O 0.0244 0.57365 0.60458 0.0
O437 O 0.05457 0.54007 0.56363 0.0
O438 O 1.00041 0.56517 0.76347 0.0
O439 O 0.02555 0.5351 0.83347 0.0
H440 H 0.99816 0.41149 0.05718 0.0
H441 H 0.94057 0.44938 0.85622 0.0
H442 H 0.90296 0.41517 0.90197 0.0
H443 H 0.96083 0.37664 0.10133 0.0
H444 H 0.07685 0.58633 0.70191 0.0
H445 H 0.06881 0.59506 0.40601 0.0
H446 H 0.11197 0.62534 0.40221 0.0
H447 H 0.1198 0.61727 0.69899 0.0
C448 C 0.13267 0.0413 0.48917 0.0
C449 C 0.13272 0.01935 0.42199 0.0
C450 C 0.11034 0.0437 0.55449 0.0
C451 C 0.08699 0.02425 0.55601 0.0
H452 H 0.15054 0.05631 0.49301 0.0
H453 H 0.11192 0.06045 0.60634 0.0
S454 S 0.07613 0.96336 0.39335 0.0
N455 N 0.10679 0.97818 0.35956 0.0
N456 N 0.06476 0.98287 0.4815 0.0
C457 C 0.08606 1.00293 0.48676 0.0
C458 C 0.10889 1.00045 0.42008 0.0
C459 C 0.48241 0.11675 0.47809 0.0
C460 C 0.5022 0.11753 0.4041 0.0
C461 C 0.48502 0.09666 0.5508 0.0
C462 C 0.50737 0.07608 0.55298 0.0
H463 H 0.46488 0.13221 0.48075 0.0
H464 H 0.46938 0.09743 0.60639 0.0
S465 S 0.56466 0.06818 0.3754 0.0
N466 N 0.54487 0.09546 0.33709 0.0
N467 N 0.54966 0.05749 0.47348 0.0
C468 C 0.52719 0.07623 0.47895 0.0
C469 C 0.5247 0.09703 0.40497 0.0
C470 C 0.39814 0.48927 0.54367 0.0
C471 C 0.39954 0.50852 0.46778 0.0
C472 C 0.42024 0.48789 0.61018 0.0
C473 C 0.44477 0.50569 0.60396 0.0
H474 H 0.37951 0.47542 0.55262 0.0
H475 H 0.41788 0.473 0.66776 0.0
S476 S 0.45937 0.55972 0.41878 0.0
N477 N 0.42788 0.54572 0.39057 0.0
N478 N 0.46939 0.54288 0.51444 0.0
C479 C 0.44684 0.52456 0.52734 0.0
C480 C 0.42432 0.52597 0.45957 0.0
C481 C 1.00386 0.43082 0.41839 0.0
C482 C 0.01746 0.40347 0.42038 0.0
C483 C 1.00857 0.45152 0.48806 0.0
C484 C 0.02703 0.4458 0.56326 0.0
H485 H 0.98883 0.43606 0.36353 0.0
H486 H 0.99683 0.47175 0.48457 0.0
S487 S 0.06918 0.37832 0.59944 0.0
N488 N 0.05108 0.37246 0.50316 0.0
N489 N 0.06033 0.41129 0.63232 0.0
C490 C 0.04176 0.4191 0.56396 0.0
C491 C 0.03692 0.39802 0.49315 0.0
C492 C 0.94016 0.02767 0.0565 0.0
C493 C 0.91325 0.0134 0.05439 0.0
C494 C 0.96114 0.02329 0.98743 0.0
C495 C 0.95618 1.00443 0.913 0.0
H496 H 0.94476 0.04303 0.11077 0.0
H497 H 0.98095 0.03562 0.99062 0.0
S498 S 0.89033 0.9602 0.87755 0.0
N499 N 0.88358 0.97859 0.97263 0.0
N500 N 0.92307 0.9698 0.84507 0.0
C501 C 0.93004 0.98888 0.9126 0.0
C502 C 0.90863 0.99346 0.98258 0.0
C503 C 0.55031 0.90104 0.98558 0.0
C504 C 0.52886 0.90124 0.05467 0.0
C505 C 0.55254 0.92339 0.91956 0.0
C506 C 0.53343 0.94709 0.91923 0.0
H507 H 0.56514 0.883 0.98094 0.0
H508 H 0.56889 0.92159 0.86638 0.0
S509 S 0.47405 0.95897 0.0871 0.0
N510 N 0.48856 0.92795 0.11995 0.0
N511 N 0.49307 0.97004 0.99709 0.0
C512 C 0.51267 0.94832 0.9903 0.0
C513 C 0.51032 0.92544 0.05757 0.0
C514 C 0.64012 0.5224 0.94372 0.0
C515 C 0.63373 0.51133 0.03236 0.0
C516 C 0.6186 0.5254 0.87558 0.0
C517 C 0.58976 0.51748 0.89319 0.0
H518 H 0.66217 0.52758 0.92543 0.0
H519 H 0.62486 0.53305 0.80757 0.0
S520 S 0.56093 0.49121 0.11802 0.0
N521 N 0.59581 0.49523 0.13663 0.0
N522 N 0.55558 0.5008 1.00924 0.0
C523 C 0.58282 0.50791 0.98309 0.0
C524 C 0.6047 0.50482 0.05231 0.0
C525 C 1.00314 0.62584 0.9854 0.0
C526 C 0.01908 0.6196 0.06597 0.0
C527 C 0.99892 0.60493 0.91625 0.0
C528 C 0.01047 0.57679 0.92421 0.0
H529 H 0.99495 0.64747 0.97347 0.0
H530 H 0.98737 0.6113 0.85435 0.0
S531 S 0.0504 0.548 0.12704 0.0
N532 N 0.04376 0.58204 0.15386 0.0
N533 N 0.03619 0.54307 0.02367 0.0
C534 C 0.02508 0.56976 1.00658 0.0
C535 C 0.02932 0.59103 0.07723 0.0
C536 C 0.90325 0.1906 0.4777 0.0
C537 C 0.88232 0.19371 0.40785 0.0
C538 C 0.90955 0.16352 0.51602 0.0
C539 C 0.89515 0.13854 0.48607 0.0
H540 H 0.91714 0.20849 0.4959 0.0
H541 H 0.9278 0.16187 0.56243 0.0
S542 S 0.83281 0.13648 0.32626 0.0
N543 N 0.84286 0.17073 0.32603 0.0
N544 N 0.85487 0.11952 0.39794 0.0
C545 C 0.87161 0.14192 0.42577 0.0
C546 C 0.8651 0.16961 0.38692 0.0
C547 C 0.3547 0.86367 0.46019 0.0
C548 C 0.33247 0.88381 0.47611 0.0
C549 C 0.38251 0.86823 0.49492 0.0
C550 C 0.38886 0.89278 0.54809 0.0
H551 H 0.35135 0.84592 0.41283 0.0
H552 H 0.39967 0.85383 0.47348 0.0
S553 S 0.33697 0.94846 0.62716 0.0
N554 N 0.31776 0.9266 0.56193 0.0
N555 N 0.36976 0.93469 0.62825 0.0
C556 C 0.36599 0.91077 0.5753 0.0
C557 C 0.33776 0.90632 0.5393 0.0
C558 C 0.42246 0.37158 0.35459 0.0
C559 C 0.42966 0.34289 0.37868 0.0
C560 C 0.44107 0.3946 0.37409 0.0
C561 C 0.46729 0.38996 0.42059 0.0
H562 H 0.40317 0.37612 0.31497 0.0
H563 H 0.43548 0.41594 0.3485 0.0
S564 S 0.49311 0.32061 0.52014 0.0
N565 N 0.46336 0.31213 0.46425 0.0
N566 N 0.49675 0.35584 0.50686 0.0
C567 C 0.47317 0.36211 0.45468 0.0
C568 C 0.45465 0.3385 0.43297 0.0
C569 C 0.18192 0.66512 0.45168 0.0
C570 C 0.20504 0.64633 0.47171 0.0
C571 C 0.1542 0.65961 0.48612 0.0
C572 C 0.14885 0.6355 0.54326 0.0
H573 H 0.18459 0.68233 0.40129 0.0
H574 H 0.13644 0.67276 0.46141 0.0
S575 S 0.20307 0.58377 0.63438 0.0
N576 N 0.22147 0.60564 0.56593 0.0
N577 N 0.16964 0.59585 0.63174 0.0
C578 C 0.17246 0.61915 0.57465 0.0
C579 C 0.2006 0.62453 0.53889 0.0
C580 C 0.16378 0.84781 0.05271 0.0
C581 C 0.15651 0.84174 0.14548 0.0
C582 C 0.15796 0.87493 0.01302 0.0
C583 C 0.14539 0.89713 0.06536 0.0
H584 H 0.17181 0.83078 1.00845 0.0
H585 H 0.16157 0.87797 0.93959 0.0
S586 S 0.12627 0.89428 0.31405 0.0
N587 N 0.13876 0.86172 0.29078 0.0
N588 N 0.12906 0.91271 0.21655 0.0
C589 C 0.14103 0.8925 0.16029 0.0
C590 C 0.14641 0.86481 0.20046 0.0
C591 C 0.69861 0.13196 0.97053 0.0
C592 C 0.7023 0.15192 0.04282 0.0
C593 C 0.6714 0.1267 0.93299 0.0
C594 C 0.64689 0.14118 0.96609 0.0
H595 H 0.71605 0.11779 0.95004 0.0
H596 H 0.66922 0.10893 0.88519 0.0
S597 S 0.64646 0.20193 0.13213 0.0
N598 N 0.68042 0.19118 0.12939 0.0
N599 N 0.62897 0.18094 0.0591 0.0
C600 C 0.65092 0.16409 0.02823 0.0
C601 C 0.67874 0.1696 0.06626 0.0
C602 C 0.38634 0.67895 1.01091 0.0
C603 C 0.384 0.6879 0.10379 0.0
C604 C 0.39317 0.65028 0.98895 0.0
C605 C 0.39643 0.62931 0.05891 0.0
H606 H 0.38625 0.69475 0.95534 0.0
H607 H 0.39879 0.64537 0.91806 0.0
S608 S 0.37909 0.63817 0.30701 0.0
N609 N 0.37695 0.6711 0.26302 0.0
N610 N 0.38694 0.61695 0.21924 0.0
C611 C 0.38786 0.63657 0.14888 0.0
C612 C 0.38209 0.66594 0.17209 0.0
C613 C 0.87254 0.37733 0.18346 0.0
C614 C 0.84915 0.36771 0.12951 0.0
C615 C 0.89955 0.38243 0.14409 0.0
C616 C 0.90426 0.37827 0.04916 0.0
H617 H 0.86943 0.38407 0.25435 0.0
H618 H 0.91587 0.39254 0.18657 0.0
S619 S 0.85334 0.34469 0.8845 0.0
N620 N 0.83479 0.34738 0.98166 0.0
N621 N 0.88563 0.35796 0.90677 0.0
C622 C 0.88243 0.36502 0.99724 0.0
C623 C 0.8549 0.35942 0.03773 0.0
C624 C 0.99663 0.15076 0.84681 0.0
C625 C 0.01797 0.16129 0.90778 0.0
C626 C 0.9983 0.12278 0.80821 0.0
C627 C 0.0212 0.10391 0.82975 0.0
H628 H 0.97789 0.16384 0.831 0.0
H629 H 0.98097 0.11554 0.76393 0.0
S630 S 0.08464 0.12187 0.97492 0.0
N631 N 0.06443 0.15123 0.97875 0.0
N632 N 0.06697 0.09873 0.90958 0.0
C633 C 0.04317 0.11449 0.88767 0.0
C634 C 0.04171 0.14304 0.92577 0.0
C635 C 0.38287 0.99795 0.82275 0.0
C636 C 0.37556 1.00681 0.91303 0.0
C637 C 0.41129 1.00019 0.78862 0.0
C638 C 0.43383 1.01132 0.84326 0.0
H639 H 0.36648 0.98899 0.77808 0.0
H640 H 0.41561 0.99278 0.71906 0.0
S641 S 0.42649 0.03664 0.08593 0.0
N642 N 0.39365 0.02645 0.05717 0.0
N643 N 0.44657 0.03113 0.99346 0.0
C644 C 0.42675 0.02046 0.93355 0.0
C645 C 0.39783 0.01813 0.96817 0.0
C646 C 0.51425 0.36986 0.79986 0.0
C647 C 0.51441 0.36157 0.89401 0.0
C648 C 0.51419 0.39926 0.77246 0.0
C649 C 0.51396 0.4218 0.83791 0.0
H650 H 0.51418 0.35346 0.74667 0.0
H651 H 0.51414 0.4043 0.69921 0.0
S652 S 0.51281 0.41188 0.09353 0.0
N653 N 0.51324 0.37865 0.05258 0.0
N654 N 0.51341 0.43334 1.00205 0.0
C655 C 0.51401 0.41375 0.93233 0.0
C656 C 0.51417 0.38389 0.96003 0.0
C657 C 0.15809 0.52498 0.832 0.0
C658 C 0.16479 0.51643 0.92339 0.0
C659 C 0.12993 0.52249 0.79609 0.0
C660 C 0.10706 0.51142 0.84993 0.0
H661 H 0.17474 0.53397 0.78791 0.0
H662 H 0.12604 0.52974 0.72586 0.0
S663 S 0.11281 0.48664 0.09452 0.0
N664 N 0.14578 0.49699 0.06739 0.0
N665 N 0.09339 0.4918 1.00037 0.0
C666 C 0.11357 0.50247 0.94117 0.0
C667 C 0.14221 0.50506 0.97761 0.0
C668 C 1.00125 0.88573 0.54278 0.0
C669 C 0.02425 0.86661 0.56148 0.0
C670 C 1.00057 0.91396 0.57912 0.0
C671 C 0.02271 0.92442 0.63664 0.0
H672 H 0.98356 0.87888 0.49931 0.0
H673 H 0.98244 0.92774 0.56192 0.0
S674 S 0.08906 0.88434 0.70122 0.0
N675 N 0.07071 0.86122 0.63769 0.0
N676 N 0.06904 0.91381 0.70659 0.0
C677 C 0.04584 0.90565 0.65594 0.0
C678 C 0.04669 0.87695 0.61838 0.0
C679 C 0.64584 0.99322 0.51741 0.0
C680 C 0.66728 0.01258 0.5476 0.0
C681 C 0.61817 0.99275 0.55729 0.0
C682 C 0.61054 1.01142 0.6301 0.0
H683 H 0.65032 0.97843 0.46137 0.0
H684 H 0.60253 0.97766 0.53004 0.0
S685 S 0.65839 0.06639 0.7354 0.0
N686 N 0.67855 0.05125 0.655 0.0
N687 N 0.62702 0.04964 0.73165 0.0
C688 C 0.63192 0.03037 0.66285 0.0
C689 C 0.66009 0.03111 0.62141 0.0
C690 C 0.52808 0.63766 0.53273 0.0
C691 C 0.51623 0.66026 0.58563 0.0
C692 C 0.53023 0.60923 0.56779 0.0
C693 C 0.52073 0.6019 0.65775 0.0
H694 H 0.5348 0.6417 0.4621 0.0
H695 H 0.53884 0.59272 0.52269 0.0
S696 S 0.49033 0.6536 0.82809 0.0
N697 N 0.49671 0.67364 0.73548 0.0
N698 N 0.50043 0.62048 0.80085 0.0
C699 C 0.50973 0.62453 0.7126 0.0
C700 C 0.50755 0.65352 0.67679 0.0
C701 C 0.88297 0.49111 0.62066 0.0
C702 C 0.87395 0.51214 0.55548 0.0
C703 C 0.91052 0.49211 0.66188 0.0
C704 C 0.93042 0.51397 0.63889 0.0
H705 H 0.86903 0.47309 0.63777 0.0
H706 H 0.91663 0.475 0.70939 0.0
S707 S 0.91649 0.57638 0.48237 0.0
N708 N 0.88647 0.5573 0.47847 0.0
N709 N 0.93821 0.55858 0.55288 0.0
C710 C 0.92134 0.5357 0.57669 0.0
C711 C 0.89321 0.53493 0.53582 0.0
loop_
_geom_bond_atom_site_label_1
_geom_bond_atom_site_label_2
_geom_bond_distance
_geom_bond_site_symmetry_2
_ccdc_geom_bond_type
C0 C1 1.384 . S
C0 H13 0.947 . S
C0 C35 1.382 . S
C1 C0 1.384 . S
C1 C2 1.378 . S
C2 C1 1.378 . S
C2 C3 1.378 . S
C2 H14 0.952 . S
C3 C2 1.378 . S
C3 H15 0.950 . S
C3 C34 1.383 . S
H4 C23 0.947 . S
H5 C24 0.946 . S
H6 C26 0.953 . S
H7 C27 0.945 . S
H8 C29 0.952 . S
H9 C30 0.949 . S
H10 C32 0.950 . S
H11 C33 0.948 . S
H12 C35 0.951 . S
H13 C0 0.947 . S
H14 C2 0.952 . S
H15 C3 0.950 . S
N16 C19 1.382 . S
N16 C21 1.363 . S
N17 C19 1.371 . S
N17 C20 1.372 . S
N18 C20 1.361 . S
N18 C21 1.377 . S
C19 N16 1.382 . S
C19 N17 1.371 . S
C19 C22 1.480 . S
C20 N17 1.372 . S
C20 N18 1.361 . S
C20 C28 1.457 . S
C21 N16 1.363 . S
C21 N18 1.377 . S
C21 C34 1.479 . S
C22 C19 1.480 . S
C22 C23 1.383 . S
C22 C27 1.385 . S
C23 H4 0.947 . S
C23 C22 1.383 . S
C23 C24 1.388 . S
C24 H5 0.946 . S
C24 C23 1.388 . S
C24 C25 1.384 . S
C25 C24 1.384 . S
C25 C26 1.377 . S
C26 H6 0.953 . S
C26 C25 1.377 . S
C26 C27 1.369 . S
C27 H7 0.945 . S
C27 C22 1.385 . S
C27 C26 1.369 . S
C28 C20 1.457 . S
C28 C29 1.372 . S
C28 C33 1.364 . S
C29 H8 0.952 . S
C29 C28 1.372 . S
C29 C30 1.389 . S
C30 H9 0.949 . S
C30 C29 1.389 . S
C30 C31 1.387 . S
C31 C30 1.387 . S
C31 C32 1.372 . S
C32 H10 0.950 . S
C32 C31 1.372 . S
C32 C33 1.379 . S
C33 H11 0.948 . S
C33 C28 1.364 . S
C33 C32 1.379 . S
C34 C3 1.383 . S
C34 C21 1.479 . S
C34 C35 1.398 . S
C35 C0 1.382 . S
C35 H12 0.951 . S
C35 C34 1.398 . S
C36 C37 1.384 1_655 S
C36 H49 0.948 . S
C36 C71 1.382 1_655 S
C37 C36 1.384 1_455 S
C37 C38 1.378 . S
C38 C37 1.378 . S
C38 C39 1.378 . S
C38 H50 0.952 . S
C39 C38 1.378 . S
C39 H51 0.950 . S
C39 C70 1.383 . S
H40 C59 0.947 . S
H41 C60 0.952 . S
H42 C62 0.953 . S
H43 C63 0.945 . S
H44 C65 0.949 1_655 S
H45 C66 0.949 . S
H46 C68 0.950 . S
H47 C69 0.948 . S
H48 C71 0.951 1_655 S
H49 C36 0.948 . S
H50 C38 0.952 . S
H51 C39 0.950 . S
N52 C55 1.382 . S
N52 C57 1.363 . S
N53 C55 1.371 . S
N53 C56 1.372 . S
N54 C56 1.361 . S
N54 C57 1.377 . S
C55 N52 1.382 . S
C55 N53 1.371 . S
C55 C58 1.480 . S
C56 N53 1.372 . S
C56 N54 1.361 . S
C56 C64 1.457 . S
C57 N52 1.363 . S
C57 N54 1.377 . S
C57 C70 1.479 . S
C58 C55 1.480 . S
C58 C59 1.383 . S
C58 C63 1.385 . S
C59 H40 0.947 . S
C59 C58 1.383 . S
C59 C60 1.386 1_455 S
C60 H41 0.952 . S
C60 C59 1.386 1_655 S
C60 C61 1.381 1_655 S
C61 C60 1.381 1_455 S
C61 C62 1.377 . S
C62 H42 0.953 . S
C62 C61 1.377 . S
C62 C63 1.369 . S
C63 H43 0.945 . S
C63 C58 1.385 . S
C63 C62 1.369 . S
C64 C56 1.457 . S
C64 C65 1.377 . S
C64 C69 1.364 . S
C65 H44 0.949 1_455 S
C65 C64 1.377 . S
C65 C66 1.387 1_455 S
C66 H45 0.949 . S
C66 C65 1.387 1_655 S
C66 C67 1.387 1_655 S
C67 C66 1.387 1_455 S
C67 C68 1.372 . S
C68 H46 0.950 . S
C68 C67 1.372 . S
C68 C69 1.379 . S
C69 H47 0.948 . S
C69 C64 1.364 . S
C69 C68 1.379 . S
C70 C39 1.383 . S
C70 C57 1.479 . S
C70 C71 1.398 . S
C71 C36 1.382 1_455 S
C71 H48 0.951 1_455 S
C71 C70 1.398 . S
C72 C73 1.384 1_565 S
C72 H85 0.948 . S
C72 C107 1.382 1_565 S
C73 C72 1.384 1_545 S
C73 C74 1.378 . S
C74 C73 1.378 . S
C74 C75 1.378 . S
C74 H86 0.952 . S
C75 C74 1.378 . S
C75 H87 0.950 . S
C75 C106 1.383 . S
H76 C95 0.947 . S
H77 C96 0.952 . S
H78 C98 0.953 . S
H79 C99 0.945 . S
H80 C101 0.949 1_565 S
H81 C102 0.949 . S
H82 C104 0.950 . S
H83 C105 0.948 . S
H84 C107 0.951 1_565 S
H85 C72 0.948 . S
H86 C74 0.952 . S
H87 C75 0.950 . S
N88 C91 1.382 . S
N88 C93 1.363 . S
N89 C91 1.371 . S
N89 C92 1.372 . S
N90 C92 1.361 . S
N90 C93 1.377 . S
C91 N88 1.382 . S
C91 N89 1.371 . S
C91 C94 1.480 . S
C92 N89 1.372 . S
C92 N90 1.361 . S
C92 C100 1.457 . S
C93 N88 1.363 . S
C93 N90 1.377 . S
C93 C106 1.479 . S
C94 C91 1.480 . S
C94 C95 1.383 . S
C94 C99 1.385 . S
C95 H76 0.947 . S
C95 C94 1.383 . S
C95 C96 1.386 1_545 S
C96 H77 0.952 . S
C96 C95 1.386 1_565 S
C96 C97 1.382 1_565 S
C97 C96 1.382 1_545 S
C97 C98 1.377 . S
C98 H78 0.953 . S
C98 C97 1.377 . S
C98 C99 1.369 . S
C99 H79 0.945 . S
C99 C94 1.385 . S
C99 C98 1.369 . S
C100 C92 1.457 . S
C100 C101 1.377 . S
C100 C105 1.364 . S
C101 H80 0.949 1_545 S
C101 C100 1.377 . S
C101 C102 1.387 1_545 S
C102 H81 0.949 . S
C102 C101 1.387 1_565 S
C102 C103 1.387 1_565 S
C103 C102 1.387 1_545 S
C103 C104 1.372 . S
C104 H82 0.950 . S
C104 C103 1.372 . S
C104 C105 1.379 . S
C105 H83 0.948 . S
C105 C100 1.364 . S
C105 C104 1.379 . S
C106 C75 1.383 . S
C106 C93 1.479 . S
C106 C107 1.398 . S
C107 C72 1.382 1_545 S
C107 H84 0.951 1_545 S
C107 C106 1.398 . S
C108 C109 1.384 . S
C108 H121 0.947 . S
C108 C143 1.382 . S
C109 C108 1.384 . S
C109 C110 1.378 . S
C110 C109 1.378 . S
C110 C111 1.378 . S
C110 H122 0.952 . S
C111 C110 1.378 . S
C111 H123 0.950 . S
C111 C142 1.383 . S
H112 C131 0.947 . S
H113 C132 0.946 . S
H114 C134 0.953 . S
H115 C135 0.945 . S
H116 C137 0.952 . S
H117 C138 0.949 . S
H118 C140 0.950 . S
H119 C141 0.948 . S
H120 C143 0.951 . S
H121 C108 0.947 . S
H122 C110 0.952 . S
H123 C111 0.950 . S
N124 C127 1.382 . S
N124 C129 1.363 . S
N125 C127 1.371 . S
N125 C128 1.372 . S
N126 C128 1.361 . S
N126 C129 1.377 . S
C127 N124 1.382 . S
C127 N125 1.371 . S
C127 C130 1.480 . S
C128 N125 1.372 . S
C128 N126 1.361 . S
C128 C136 1.457 . S
C129 N124 1.363 . S
C129 N126 1.377 . S
C129 C142 1.479 . S
C130 C127 1.480 . S
C130 C131 1.383 . S
C130 C135 1.385 . S
C131 H112 0.947 . S
C131 C130 1.383 . S
C131 C132 1.388 . S
C132 H113 0.946 . S
C132 C131 1.388 . S
C132 C133 1.384 . S
C133 C132 1.384 . S
C133 C134 1.377 . S
C134 H114 0.953 . S
C134 C133 1.377 . S
C134 C135 1.369 . S
C135 H115 0.945 . S
C135 C130 1.385 . S
C135 C134 1.369 . S
C136 C128 1.457 . S
C136 C137 1.372 . S
C136 C141 1.364 . S
C137 H116 0.952 . S
C137 C136 1.372 . S
C137 C138 1.389 . S
C138 H117 0.949 . S
C138 C137 1.389 . S
C138 C139 1.387 . S
C139 C138 1.387 . S
C139 C140 1.372 . S
C140 H118 0.950 . S
C140 C139 1.372 . S
C140 C141 1.379 . S
C141 H119 0.948 . S
C141 C136 1.364 . S
C141 C140 1.379 . S
C142 C111 1.383 . S
C142 C129 1.479 . S
C142 C143 1.398 . S
C143 C108 1.382 . S
C143 H120 0.951 . S
C143 C142 1.398 . S
C144 C145 1.384 . S
C144 H157 0.947 . S
C144 C179 1.382 . S
C145 C144 1.384 . S
C145 C146 1.378 . S
C146 C145 1.378 . S
C146 C147 1.378 . S
C146 H158 0.952 . S
C147 C146 1.378 . S
C147 H159 0.950 . S
C147 C178 1.383 . S
H148 C167 0.947 1_556 S
H149 C168 0.946 1_556 S
H150 C170 0.953 . S
H151 C171 0.945 . S
H152 C173 0.952 . S
H153 C174 0.949 . S
H154 C176 0.950 . S
H155 C177 0.948 . S
H156 C179 0.951 . S
H157 C144 0.947 . S
H158 C146 0.952 . S
H159 C147 0.950 . S
N160 C163 1.382 1_556 S
N160 C165 1.363 . S
N161 C163 1.371 . S
N161 C164 1.372 . S
N162 C164 1.361 . S
N162 C165 1.377 1_554 S
C163 N160 1.382 1_554 S
C163 N161 1.371 . S
C163 C166 1.480 . S
C164 N161 1.372 . S
C164 N162 1.361 . S
C164 C172 1.457 . S
C165 N160 1.363 . S
C165 N162 1.377 1_556 S
C165 C178 1.479 . S
C166 C163 1.480 . S
C166 C167 1.383 . S
C166 C171 1.385 . S
C167 H148 0.947 1_554 S
C167 C166 1.383 . S
C167 C168 1.388 . S
C168 H149 0.946 1_554 S
C168 C167 1.388 . S
C168 C169 1.384 . S
C169 C168 1.384 . S
C169 C170 1.377 . S
C170 H150 0.953 . S
C170 C169 1.377 . S
C170 C171 1.369 . S
C171 H151 0.945 . S
C171 C166 1.385 . S
C171 C170 1.369 . S
C172 C164 1.457 . S
C172 C173 1.372 . S
C172 C177 1.364 . S
C173 H152 0.952 . S
C173 C172 1.372 . S
C173 C174 1.389 . S
C174 H153 0.949 . S
C174 C173 1.389 . S
C174 C175 1.387 . S
C175 C174 1.387 . S
C175 C176 1.372 . S
C176 H154 0.950 . S
C176 C175 1.372 . S
C176 C177 1.379 . S
C177 H155 0.948 . S
C177 C172 1.364 . S
C177 C176 1.379 . S
C178 C147 1.383 . S
C178 C165 1.479 . S
C178 C179 1.398 . S
C179 C144 1.382 . S
C179 H156 0.951 . S
C179 C178 1.398 . S
C180 C181 1.384 1_655 S
C180 H193 0.947 . S
C180 C215 1.382 1_655 S
C181 C180 1.384 1_455 S
C181 C182 1.378 . S
C182 C181 1.378 . S
C182 C183 1.378 . S
C182 H194 0.952 . S
C183 C182 1.378 . S
C183 H195 0.950 . S
C183 C214 1.383 . S
H184 C203 0.947 1_556 S
H185 C204 0.950 1_556 S
H186 C206 0.953 . S
H187 C207 0.945 . S
H188 C209 0.947 1_655 S
H189 C210 0.954 . S
H190 C212 0.950 . S
H191 C213 0.948 . S
H192 C215 0.950 1_655 S
H193 C180 0.947 . S
H194 C182 0.952 . S
H195 C183 0.950 . S
N196 C199 1.382 1_556 S
N196 C201 1.363 . S
N197 C199 1.371 . S
N197 C200 1.372 . S
N198 C200 1.361 . S
N198 C201 1.377 1_554 S
C199 N196 1.382 1_554 S
C199 N197 1.371 . S
C199 C202 1.480 . S
C200 N197 1.372 . S
C200 N198 1.361 . S
C200 C208 1.457 . S
C201 N196 1.363 . S
C201 N198 1.377 1_556 S
C201 C214 1.479 . S
C202 C199 1.480 . S
C202 C203 1.383 . S
C202 C207 1.385 . S
C203 H184 0.947 1_554 S
C203 C202 1.383 . S
C203 C204 1.387 1_455 S
C204 H185 0.950 1_554 S
C204 C203 1.387 1_655 S
C204 C205 1.382 1_655 S
C205 C204 1.382 1_455 S
C205 C206 1.377 . S
C206 H186 0.953 . S
C206 C205 1.377 . S
C206 C207 1.369 . S
C207 H187 0.945 . S
C207 C202 1.385 . S
C207 C206 1.369 . S
C208 C200 1.457 . S
C208 C209 1.379 . S
C208 C213 1.364 . S
C209 H188 0.947 1_455 S
C209 C208 1.379 . S
C209 C210 1.387 1_455 S
C210 H189 0.954 . S
C210 C209 1.387 1_655 S
C210 C211 1.383 1_655 S
C211 C210 1.383 1_455 S
C211 C212 1.372 . S
C212 H190 0.950 . S
C212 C211 1.372 . S
C212 C213 1.379 . S
C213 H191 0.948 . S
C213 C208 1.364 . S
C213 C212 1.379 . S
C214 C183 1.383 . S
C214 C201 1.479 . S
C214 C215 1.399 . S
C215 C180 1.382 1_455 S
C215 H192 0.950 1_455 S
C215 C214 1.399 . S
C216 C217 1.384 1_565 S
C216 H229 0.947 . S
C216 C251 1.382 1_565 S
C217 C216 1.384 1_545 S
C217 C218 1.378 . S
C218 C217 1.378 . S
C218 C219 1.378 . S
C218 H230 0.952 . S
C219 C218 1.378 . S
C219 H231 0.950 . S
C219 C250 1.383 . S
H220 C239 0.947 1_556 S
H221 C240 0.950 1_556 S
H222 C242 0.953 . S
H223 C243 0.945 . S
H224 C245 0.947 1_565 S
H225 C246 0.954 . S
H226 C248 0.950 . S
H227 C249 0.948 . S
H228 C251 0.950 1_565 S
H229 C216 0.947 . S
H230 C218 0.952 . S
H231 C219 0.950 . S
N232 C235 1.382 1_556 S
N232 C237 1.363 . S
N233 C235 1.371 . S
N233 C236 1.372 . S
N234 C236 1.361 . S
N234 C237 1.377 1_554 S
C235 N232 1.382 1_554 S
C235 N233 1.371 . S
C235 C238 1.480 . S
C236 N233 1.372 . S
C236 N234 1.361 . S
C236 C244 1.457 . S
C237 N232 1.363 . S
C237 N234 1.377 1_556 S
C237 C250 1.479 . S
C238 C235 1.480 . S
C238 C239 1.383 . S
C238 C243 1.385 . S
C239 H220 0.947 1_554 S
C239 C238 1.383 . S
C239 C240 1.387 1_545 S
C240 H221 0.950 1_554 S
C240 C239 1.387 1_565 S
C240 C241 1.382 1_565 S
C241 C240 1.382 1_545 S
C241 C242 1.377 . S
C242 H222 0.953 . S
C242 C241 1.377 . S
C242 C243 1.369 . S
C243 H223 0.945 . S
C243 C238 1.385 . S
C243 C242 1.369 . S
C244 C236 1.457 . S
C244 C245 1.379 . S
C244 C249 1.364 . S
C245 H224 0.947 1_545 S
C245 C244 1.379 . S
C245 C246 1.387 1_545 S
C246 H225 0.954 . S
C246 C245 1.387 1_565 S
C246 C247 1.383 1_565 S
C247 C246 1.383 1_545 S
C247 C248 1.372 . S
C248 H226 0.950 . S
C248 C247 1.372 . S
C248 C249 1.379 . S
C249 H227 0.948 . S
C249 C244 1.364 . S
C249 C248 1.379 . S
C250 C219 1.383 . S
C250 C237 1.479 . S
C250 C251 1.399 . S
C251 C216 1.382 1_545 S
C251 H228 0.950 1_545 S
C251 C250 1.399 . S
C252 C253 1.384 . S
C252 H265 0.947 . S
C252 C287 1.382 . S
C253 C252 1.384 . S
C253 C254 1.378 . S
C254 C253 1.378 . S
C254 C255 1.378 . S
C254 H266 0.952 . S
C255 C254 1.378 . S
C255 H267 0.950 . S
C255 C286 1.383 . S
H256 C275 0.947 . S
H257 C276 0.946 . S
H258 C278 0.953 1_556 S
H259 C279 0.945 1_556 S
H260 C281 0.952 . S
H261 C282 0.949 . S
H262 C284 0.950 . S
H263 C285 0.948 . S
H264 C287 0.951 . S
H265 C252 0.947 . S
H266 C254 0.952 . S
H267 C255 0.950 . S
N268 C271 1.382 . S
N268 C273 1.363 . S
N269 C271 1.371 1_556 S
N269 C272 1.372 . S
N270 C272 1.361 1_554 S
N270 C273 1.377 . S
C271 N268 1.382 . S
C271 N269 1.371 1_554 S
C271 C274 1.480 . S
C272 N269 1.372 . S
C272 N270 1.361 1_556 S
C272 C280 1.457 . S
C273 N268 1.363 . S
C273 N270 1.377 . S
C273 C286 1.479 . S
C274 C271 1.480 . S
C274 C275 1.383 . S
C274 C279 1.385 . S
C275 H256 0.947 . S
C275 C274 1.383 . S
C275 C276 1.388 . S
C276 H257 0.946 . S
C276 C275 1.388 . S
C276 C277 1.384 . S
C277 C276 1.384 . S
C277 C278 1.377 . S
C278 H258 0.953 1_554 S
C278 C277 1.377 . S
C278 C279 1.369 . S
C279 H259 0.945 1_554 S
C279 C274 1.385 . S
C279 C278 1.369 . S
C280 C272 1.457 . S
C280 C281 1.372 . S
C280 C285 1.364 . S
C281 H260 0.952 . S
C281 C280 1.372 . S
C281 C282 1.389 . S
C282 H261 0.949 . S
C282 C281 1.389 . S
C282 C283 1.387 . S
C283 C282 1.387 . S
C283 C284 1.372 . S
C284 H262 0.950 . S
C284 C283 1.372 . S
C284 C285 1.379 . S
C285 H263 0.948 . S
C285 C280 1.364 . S
C285 C284 1.379 . S
C286 C255 1.383 . S
C286 C273 1.479 . S
C286 C287 1.398 . S
C287 C252 1.382 . S
C287 H264 0.951 . S
C287 C286 1.398 . S
Gd288 C291 2.818 . S
Gd288 O308 2.377 . S
Gd288 O310 2.448 . S
Gd288 O311 2.506 . S
Gd288 O312 2.435 . S
Gd288 O313 2.717 1_565 S
Gd288 O315 2.395 1_565 S
Gd288 O319 2.327 1_455 S
Gd289 C300 2.818 . S
Gd289 O309 2.395 1_545 S
Gd289 O313 2.327 1_655 S
Gd289 O314 2.377 . S
Gd289 O316 2.448 . S
Gd289 O317 2.506 . S
Gd289 O318 2.435 . S
Gd289 O319 2.717 1_545 S
C290 O308 1.240 1_655 S
C290 O309 1.240 . S
C291 Gd288 2.818 . S
C291 C292 1.510 . S
C291 O310 1.249 . S
C291 O311 1.252 . S
C292 C291 1.510 . S
C292 C293 1.404 . S
C292 C294 1.352 . S
C293 C292 1.404 . S
C293 C297 1.389 1_556 S
C293 H320 0.930 . S
C294 C292 1.352 . S
C294 C296 1.374 1_556 S
C294 H321 0.931 1_455 S
C295 C296 1.359 . S
C295 C297 1.364 . S
C296 C294 1.374 1_554 S
C296 C295 1.359 . S
C296 H322 0.931 . S
C297 C293 1.389 1_554 S
C297 C295 1.364 . S
C297 H323 0.931 . S
C298 O312 1.256 . S
C298 O313 1.257 1_565 S
C299 O314 1.240 1_455 S
C299 O315 1.240 . S
C300 Gd289 2.818 . S
C300 C301 1.510 . S
C300 O316 1.249 . S
C300 O317 1.252 . S
C301 C300 1.510 . S
C301 C302 1.404 . S
C301 C303 1.352 . S
C302 C301 1.404 . S
C302 C306 1.389 . S
C302 H324 0.930 . S
C303 C301 1.352 . S
C303 C305 1.374 . S
C303 H325 0.931 1_655 S
C304 C305 1.359 . S
C304 C306 1.364 . S
C305 C303 1.374 . S
C305 C304 1.359 . S
C305 H326 0.964 . S
C306 C302 1.389 . S
C306 C304 1.364 . S
C306 H327 0.931 . S
C307 O318 1.256 . S
C307 O319 1.257 1_545 S
O308 Gd288 2.377 . S
O308 C290 1.240 1_455 S
O309 Gd289 2.395 1_565 S
O309 C290 1.240 . S
O310 Gd288 2.448 . S
O310 C291 1.249 . S
O311 Gd288 2.506 . S
O311 C291 1.252 . S
O312 Gd288 2.435 . S
O312 C298 1.256 . S
O313 Gd288 2.717 1_545 S
O313 Gd289 2.327 1_455 S
O313 C298 1.257 1_545 S
O314 Gd289 2.377 . S
O314 C299 1.240 1_655 S
O315 Gd288 2.395 1_545 S
O315 C299 1.240 . S
O316 Gd289 2.448 . S
O316 C300 1.249 . S
O317 Gd289 2.506 . S
O317 C300 1.252 . S
O318 Gd289 2.435 . S
O318 C307 1.256 . S
O319 Gd288 2.327 1_655 S
O319 Gd289 2.717 1_565 S
O319 C307 1.257 1_565 S
H320 C293 0.930 . S
H321 C294 0.931 1_655 S
H322 C296 0.931 . S
H323 C297 0.931 . S
H324 C302 0.930 . S
H325 C303 0.931 1_455 S
H326 C305 0.964 . S
H327 C306 0.931 . S
Gd328 C331 2.818 . S
Gd328 O348 2.377 . S
Gd328 O350 2.448 . S
Gd328 O351 2.506 . S
Gd328 O352 2.435 . S
Gd328 O353 2.717 . S
Gd328 O355 2.395 . S
Gd328 O359 2.327 1_545 S
Gd329 C340 2.818 . S
Gd329 O349 2.395 . S
Gd329 O353 2.327 1_565 S
Gd329 O354 2.377 . S
Gd329 O356 2.448 . S
Gd329 O357 2.506 . S
Gd329 O358 2.435 . S
Gd329 O359 2.717 . S
C330 O348 1.240 1_565 S
C330 O349 1.240 . S
C331 Gd328 2.818 . S
C331 C332 1.510 . S
C331 O350 1.249 . S
C331 O351 1.252 . S
C332 C331 1.510 . S
C332 C333 1.404 . S
C332 C334 1.352 . S
C333 C332 1.404 . S
C333 C337 1.389 1_556 S
C333 H360 0.930 . S
C334 C332 1.352 . S
C334 C336 1.374 1_556 S
C334 H361 0.931 1_545 S
C335 C336 1.359 . S
C335 C337 1.364 . S
C336 C334 1.374 1_554 S
C336 C335 1.359 . S
C336 H362 0.953 . S
C337 C333 1.389 1_554 S
C337 C335 1.364 . S
C337 H363 0.931 . S
C338 O352 1.256 . S
C338 O353 1.257 . S
C339 O354 1.240 1_545 S
C339 O355 1.240 . S
C340 Gd329 2.818 . S
C340 C341 1.510 . S
C340 O356 1.249 . S
C340 O357 1.252 . S
C341 C340 1.510 . S
C341 C342 1.404 . S
C341 C343 1.352 . S
C342 C341 1.404 . S
C342 C346 1.389 . S
C342 H364 0.930 . S
C343 C341 1.352 . S
C343 C345 1.374 . S
C343 H365 0.931 1_565 S
C344 C345 1.359 . S
C344 C346 1.364 . S
C345 C343 1.374 . S
C345 C344 1.359 . S
C345 H366 0.946 . S
C346 C342 1.389 . S
C346 C344 1.364 . S
C346 H367 0.931 . S
C347 O358 1.256 . S
C347 O359 1.257 . S
O348 Gd328 2.377 . S
O348 C330 1.240 1_545 S
O349 Gd329 2.395 . S
O349 C330 1.240 . S
O350 Gd328 2.448 . S
O350 C331 1.249 . S
O351 Gd328 2.506 . S
O351 C331 1.252 . S
O352 Gd328 2.435 . S
O352 C338 1.256 . S
O353 Gd328 2.717 . S
O353 Gd329 2.327 1_545 S
O353 C338 1.257 . S
O354 Gd329 2.377 . S
O354 C339 1.240 1_565 S
O355 Gd328 2.395 . S
O355 C339 1.240 . S
O356 Gd329 2.448 . S
O356 C340 1.249 . S
O357 Gd329 2.506 . S
O357 C340 1.252 . S
O358 Gd329 2.435 . S
O358 C347 1.256 . S
O359 Gd328 2.327 1_565 S
O359 Gd329 2.717 . S
O359 C347 1.257 . S
H360 C333 0.930 . S
H361 C334 0.931 1_565 S
H362 C336 0.953 . S
H363 C337 0.931 . S
H364 C342 0.930 . S
H365 C343 0.931 1_545 S
H366 C345 0.946 . S
H367 C346 0.931 . S
Gd368 C371 2.818 . S
Gd368 O388 2.377 . S
Gd368 O390 2.448 . S
Gd368 O391 2.506 . S
Gd368 O392 2.435 . S
Gd368 O393 2.717 . S
Gd368 O395 2.395 . S
Gd368 O399 2.327 . S
Gd369 C380 2.818 . S
Gd369 O389 2.395 . S
Gd369 O393 2.327 . S
Gd369 O394 2.377 . S
Gd369 O396 2.448 . S
Gd369 O397 2.506 . S
Gd369 O398 2.435 . S
Gd369 O399 2.717 . S
C370 O388 1.240 . S
C370 O389 1.240 . S
C371 Gd368 2.818 . S
C371 C372 1.510 . S
C371 O390 1.249 . S
C371 O391 1.252 . S
C372 C371 1.510 . S
C372 C373 1.404 . S
C372 C374 1.355 . S
C373 C372 1.404 . S
C373 C377 1.389 1_556 S
C373 H400 0.930 . S
C374 C372 1.355 . S
C374 C376 1.370 1_556 S
C374 H401 0.931 . S
C375 C376 1.359 . S
C375 C377 1.364 . S
C376 C374 1.370 1_554 S
C376 C375 1.359 . S
C376 H402 0.931 . S
C377 C373 1.389 1_554 S
C377 C375 1.364 . S
C377 H403 0.931 . S
C378 O392 1.256 . S
C378 O393 1.257 . S
C379 O394 1.240 . S
C379 O395 1.240 . S
C380 Gd369 2.818 . S
C380 C381 1.510 . S
C380 O396 1.249 . S
C380 O397 1.252 . S
C381 C380 1.510 . S
C381 C382 1.404 . S
C381 C383 1.352 . S
C382 C381 1.404 . S
C382 C386 1.389 . S
C382 H404 0.930 . S
C383 C381 1.352 . S
C383 C385 1.374 . S
C383 H405 0.931 . S
C384 C385 1.359 . S
C384 C386 1.364 . S
C385 C383 1.374 . S
C385 C384 1.359 . S
C385 H406 0.931 . S
C386 C382 1.389 . S
C386 C384 1.364 . S
C386 H407 0.931 . S
C387 O398 1.256 . S
C387 O399 1.257 . S
O388 Gd368 2.377 . S
O388 C370 1.240 . S
O389 Gd369 2.395 . S
O389 C370 1.240 . S
O390 Gd368 2.448 . S
O390 C371 1.249 . S
O391 Gd368 2.506 . S
O391 C371 1.252 . S
O392 Gd368 2.435 . S
O392 C378 1.256 . S
O393 Gd368 2.717 . S
O393 Gd369 2.327 . S
O393 C378 1.257 . S
O394 Gd369 2.377 . S
O394 C379 1.240 . S
O395 Gd368 2.395 . S
O395 C379 1.240 . S
O396 Gd369 2.448 . S
O396 C380 1.249 . S
O397 Gd369 2.506 . S
O397 C380 1.252 . S
O398 Gd369 2.435 . S
O398 C387 1.256 . S
O399 Gd368 2.327 . S
O399 Gd369 2.717 . S
O399 C387 1.257 . S
H400 C373 0.930 . S
H401 C374 0.931 . S
H402 C376 0.931 . S
H403 C377 0.931 . S
H404 C382 0.930 . S
H405 C383 0.931 . S
H406 C385 0.931 . S
H407 C386 0.931 . S
Gd408 C411 2.818 . S
Gd408 O428 2.377 . S
Gd408 O430 2.448 . S
Gd408 O431 2.506 . S
Gd408 O432 2.435 . S
Gd408 O433 2.717 1_655 S
Gd408 O435 2.395 1_655 S
Gd408 O439 2.327 . S
Gd409 C420 2.818 . S
Gd409 O429 2.395 1_455 S
Gd409 O433 2.327 . S
Gd409 O434 2.377 . S
Gd409 O436 2.448 . S
Gd409 O437 2.506 . S
Gd409 O438 2.435 . S
Gd409 O439 2.717 1_455 S
C410 O428 1.240 . S
C410 O429 1.240 . S
C411 Gd408 2.818 . S
C411 C412 1.510 . S
C411 O430 1.249 . S
C411 O431 1.252 . S
C412 C411 1.510 . S
C412 C413 1.404 . S
C412 C414 1.352 . S
C413 C412 1.404 . S
C413 C417 1.389 1_556 S
C413 H440 0.930 . S
C414 C412 1.352 . S
C414 C416 1.374 1_556 S
C414 H441 0.931 . S
C415 C416 1.359 . S
C415 C417 1.364 . S
C416 C414 1.374 1_554 S
C416 C415 1.359 . S
C416 H442 0.931 . S
C417 C413 1.389 1_554 S
C417 C415 1.364 . S
C417 H443 0.931 . S
C418 O432 1.272 . S
C418 O433 1.249 1_655 S
C419 O434 1.240 . S
C419 O435 1.240 . S
C420 Gd409 2.818 . S
C420 C421 1.510 . S
C420 O436 1.249 . S
C420 O437 1.252 . S
C421 C420 1.510 . S
C421 C422 1.404 . S
C421 C423 1.352 . S
C422 C421 1.404 . S
C422 C426 1.389 . S
C422 H444 0.930 . S
C423 C421 1.352 . S
C423 C425 1.374 . S
C423 H445 0.931 . S
C424 C425 1.359 . S
C424 C426 1.364 . S
C425 C423 1.374 . S
C425 C424 1.359 . S
C425 H446 0.931 . S
C426 C422 1.389 . S
C426 C424 1.364 . S
C426 H447 0.931 . S
C427 O438 1.277 . S
C427 O439 1.247 1_455 S
O428 Gd408 2.377 . S
O428 C410 1.240 . S
O429 Gd409 2.395 1_655 S
O429 C410 1.240 . S
O430 Gd408 2.448 . S
O430 C411 1.249 . S
O431 Gd408 2.506 . S
O431 C411 1.252 . S
O432 Gd408 2.435 . S
O432 C418 1.272 . S
O433 Gd408 2.717 1_455 S
O433 Gd409 2.327 . S
O433 C418 1.249 1_455 S
O434 Gd409 2.377 . S
O434 C419 1.240 . S
O435 Gd408 2.395 1_455 S
O435 C419 1.240 . S
O436 Gd409 2.448 . S
O436 C420 1.249 . S
O437 Gd409 2.506 . S
O437 C420 1.252 . S
O438 Gd409 2.435 . S
O438 C427 1.277 . S
O439 Gd408 2.327 . S
O439 Gd409 2.717 1_655 S
O439 C427 1.247 1_655 S
H440 C413 0.930 . S
H441 C414 0.931 . S
H442 C416 0.931 . S
H443 C417 0.931 . S
H444 C422 0.930 . S
H445 C423 0.931 . S
H446 C425 0.931 . S
H447 C426 0.931 . S
C448 C449 1.379 . S
C448 C450 1.419 . S
C448 H452 0.930 . S
C449 C448 1.379 . S
C449 C458 1.419 1_545 S
C450 C448 1.419 . S
C450 C451 1.363 . S
C450 H453 0.929 . S
C451 C450 1.363 . S
C451 C457 1.428 1_545 S
H452 C448 0.930 . S
H453 C450 0.929 . S
S454 N455 1.613 . S
S454 N456 1.610 . S
N455 S454 1.613 . S
N455 C458 1.350 . S
N456 S454 1.610 . S
N456 C457 1.351 . S
C457 C451 1.428 1_565 S
C457 N456 1.351 . S
C457 C458 1.434 . S
C458 C449 1.419 1_565 S
C458 N455 1.350 . S
C458 C457 1.434 . S
C459 C460 1.369 . S
C459 C461 1.419 . S
C459 H463 0.930 . S
C460 C459 1.369 . S
C460 C469 1.429 . S
C461 C459 1.419 . S
C461 C462 1.363 . S
C461 H464 0.929 . S
C462 C461 1.363 . S
C462 C468 1.428 . S
H463 C459 0.930 . S
H464 C461 0.929 . S
S465 N466 1.613 . S
S465 N467 1.610 . S
N466 S465 1.613 . S
N466 C469 1.350 . S
N467 S465 1.610 . S
N467 C468 1.351 . S
C468 C462 1.428 . S
C468 N467 1.351 . S
C468 C469 1.434 . S
C469 C460 1.429 . S
C469 N466 1.350 . S
C469 C468 1.434 . S
C470 C471 1.369 . S
C470 C472 1.419 . S
C470 H474 0.930 . S
C471 C470 1.369 . S
C471 C480 1.429 . S
C472 C470 1.419 . S
C472 C473 1.363 . S
C472 H475 0.929 . S
C473 C472 1.363 . S
C473 C479 1.428 . S
H474 C470 0.930 . S
H475 C472 0.929 . S
S476 N477 1.613 . S
S476 N478 1.610 . S
N477 S476 1.613 . S
N477 C480 1.350 . S
N478 S476 1.610 . S
N478 C479 1.351 . S
C479 C473 1.428 . S
C479 N478 1.351 . S
C479 C480 1.434 . S
C480 C471 1.429 . S
C480 N477 1.350 . S
C480 C479 1.434 . S
C481 C482 1.364 1_655 S
C481 C483 1.419 . S
C481 H485 0.930 . S
C482 C481 1.364 1_455 S
C482 C491 1.435 . S
C483 C481 1.419 . S
C483 C484 1.363 1_655 S
C483 H486 0.929 . S
C484 C483 1.363 1_455 S
C484 C490 1.428 . S
H485 C481 0.930 . S
H486 C483 0.929 . S
S487 N488 1.613 . S
S487 N489 1.610 . S
N488 S487 1.613 . S
N488 C491 1.350 . S
N489 S487 1.610 . S
N489 C490 1.351 . S
C490 C484 1.428 . S
C490 N489 1.351 . S
C490 C491 1.434 . S
C491 C482 1.435 . S
C491 N488 1.350 . S
C491 C490 1.434 . S
C492 C493 1.338 1_545 S
C492 C494 1.419 . S
C492 H496 0.930 . S
C493 C492 1.338 1_565 S
C493 C502 1.462 . S
C494 C492 1.419 . S
C494 C495 1.363 1_544 S
C494 H497 0.929 . S
C495 C494 1.363 1_566 S
C495 C501 1.428 1_556 S
H496 C492 0.930 . S
H497 C494 0.929 . S
S498 N499 1.613 . S
S498 N500 1.610 . S
N499 S498 1.613 . S
N499 C502 1.350 . S
N500 S498 1.610 . S
N500 C501 1.351 . S
C501 C495 1.428 1_554 S
C501 N500 1.351 . S
C501 C502 1.434 . S
C502 C493 1.462 . S
C502 N499 1.350 . S
C502 C501 1.434 . S
C503 C504 1.369 . S
C503 C505 1.419 . S
C503 H507 0.930 . S
C504 C503 1.369 . S
C504 C513 1.429 . S
C505 C503 1.419 . S
C505 C506 1.365 . S
C505 H508 0.929 . S
C506 C505 1.365 . S
C506 C512 1.430 . S
H507 C503 0.930 . S
H508 C505 0.929 . S
S509 N510 1.613 . S
S509 N511 1.610 1_554 S
N510 S509 1.613 . S
N510 C513 1.350 . S
N511 S509 1.610 1_556 S
N511 C512 1.351 1_556 S
C512 C506 1.430 . S
C512 N511 1.351 1_554 S
C512 C513 1.434 . S
C513 C504 1.429 . S
C513 N510 1.350 . S
C513 C512 1.434 . S
C514 C515 1.369 . S
C514 C516 1.419 . S
C514 H518 0.930 . S
C515 C514 1.369 . S
C515 C524 1.429 . S
C516 C514 1.419 . S
C516 C517 1.363 1_554 S
C516 H519 0.929 . S
C517 C516 1.363 1_556 S
C517 C523 1.428 1_556 S
H518 C514 0.930 . S
H519 C516 0.929 . S
S520 N521 1.613 . S
S520 N522 1.610 . S
N521 S520 1.613 . S
N521 C524 1.350 . S
N522 S520 1.610 . S
N522 C523 1.351 . S
C523 C517 1.428 1_554 S
C523 N522 1.351 . S
C523 C524 1.434 . S
C524 C515 1.429 . S
C524 N521 1.350 . S
C524 C523 1.434 . S
C525 C526 1.369 1_455 S
C525 C527 1.419 . S
C525 H529 0.930 . S
C526 C525 1.369 1_655 S
C526 C535 1.429 . S
C527 C525 1.419 . S
C527 C528 1.363 1_454 S
C527 H530 0.929 . S
C528 C527 1.363 1_656 S
C528 C534 1.428 1_556 S
H529 C525 0.930 . S
H530 C527 0.929 . S
S531 N532 1.613 . S
S531 N533 1.610 . S
N532 S531 1.613 . S
N532 C535 1.350 . S
N533 S531 1.610 . S
N533 C534 1.351 . S
C534 C528 1.428 1_554 S
C534 N533 1.351 . S
C534 C535 1.434 . S
C535 C526 1.429 . S
C535 N532 1.350 . S
C535 C534 1.434 . S
C536 C537 1.369 1_455 S
C536 C538 1.419 1_455 S
C536 H540 0.930 . S
C537 C536 1.369 1_655 S
C537 C546 1.429 . S
C538 C536 1.419 1_655 S
C538 C539 1.363 . S
C538 H541 0.929 . S
C539 C538 1.363 . S
C539 C545 1.428 . S
H540 C536 0.930 . S
H541 C538 0.929 . S
S542 N543 1.613 . S
S542 N544 1.610 . S
N543 S542 1.613 . S
N543 C546 1.350 . S
N544 S542 1.610 . S
N544 C545 1.351 . S
C545 C539 1.428 . S
C545 N544 1.351 . S
C545 C546 1.434 . S
C546 C537 1.429 . S
C546 N543 1.350 . S
C546 C545 1.434 . S
C547 C548 1.399 . S
C547 C549 1.419 . S
C547 H551 0.930 . S
C548 C547 1.399 . S
C548 C557 1.426 1_565 S
C549 C547 1.419 . S
C549 C550 1.363 . S
C549 H552 0.929 . S
C550 C549 1.363 . S
C550 C556 1.428 . S
H551 C547 0.930 . S
H552 C549 0.929 . S
S553 N554 1.613 . S
S553 N555 1.610 1_545 S
N554 S553 1.613 . S
N554 C557 1.379 . S
N555 S553 1.610 1_565 S
N555 C556 1.351 . S
C556 C550 1.428 . S
C556 N555 1.351 . S
C556 C557 1.407 1_565 S
C557 C548 1.426 1_545 S
C557 N554 1.379 . S
C557 C556 1.407 1_545 S
C558 C559 1.369 . S
C558 C560 1.419 . S
C558 H562 0.930 . S
C559 C558 1.369 . S
C559 C568 1.429 . S
C560 C558 1.419 . S
C560 C561 1.363 . S
C560 H563 0.929 . S
C561 C560 1.363 . S
C561 C567 1.428 . S
H562 C558 0.930 . S
H563 C560 0.929 . S
S564 N565 1.613 . S
S564 N566 1.610 . S
N565 S564 1.613 . S
N565 C568 1.350 . S
N566 S564 1.610 . S
N566 C567 1.351 . S
C567 C561 1.428 . S
C567 N566 1.351 . S
C567 C568 1.434 . S
C568 C559 1.429 . S
C568 N565 1.350 . S
C568 C567 1.434 . S
C569 C570 1.369 . S
C569 C571 1.419 . S
C569 H573 0.930 . S
C570 C569 1.369 . S
C570 C579 1.429 . S
C571 C569 1.419 . S
C571 C572 1.363 . S
C571 H574 0.929 . S
C572 C571 1.363 . S
C572 C578 1.428 . S
H573 C569 0.930 . S
H574 C571 0.929 . S
S575 N576 1.613 . S
S575 N577 1.610 . S
N576 S575 1.613 . S
N576 C579 1.350 . S
N577 S575 1.610 . S
N577 C578 1.351 . S
C578 C572 1.428 . S
C578 N577 1.351 . S
C578 C579 1.434 . S
C579 C570 1.429 . S
C579 N576 1.350 . S
C579 C578 1.434 . S
C580 C581 1.404 . S
C580 C582 1.419 . S
C580 H584 0.930 . S
C581 C580 1.404 . S
C581 C590 1.421 1_455 S
C582 C580 1.419 . S
C582 C583 1.363 . S
C582 H585 0.929 . S
C583 C582 1.363 . S
C583 C589 1.428 . S
H584 C580 0.930 . S
H585 C582 0.929 . S
S586 N587 1.613 . S
S586 N588 1.610 1_655 S
N587 S586 1.613 . S
N587 C590 1.350 . S
N588 S586 1.610 1_455 S
N588 C589 1.351 . S
C589 C583 1.428 . S
C589 N588 1.351 . S
C589 C590 1.434 1_455 S
C590 C581 1.421 1_655 S
C590 N587 1.350 . S
C590 C589 1.434 1_655 S
C591 C592 1.369 1_565 S
C591 C593 1.419 1_565 S
C591 H595 0.930 . S
C592 C591 1.369 1_545 S
C592 C601 1.429 . S
C593 C591 1.419 1_545 S
C593 C594 1.363 . S
C593 H596 0.929 . S
C594 C593 1.363 . S
C594 C600 1.428 . S
H595 C591 0.930 . S
H596 C593 0.929 . S
S597 N598 1.613 . S
S597 N599 1.610 . S
N598 S597 1.613 . S
N598 C601 1.350 . S
N599 S597 1.610 . S
N599 C600 1.351 . S
C600 C594 1.428 . S
C600 N599 1.351 . S
C600 C601 1.434 . S
C601 C592 1.429 . S
C601 N598 1.350 . S
C601 C600 1.434 . S
C602 C603 1.369 . S
C602 C604 1.419 . S
C602 H606 0.930 . S
C603 C602 1.369 . S
C603 C612 1.429 . S
C604 C602 1.419 . S
C604 C605 1.363 . S
C604 H607 0.929 1_554 S
C605 C604 1.363 . S
C605 C611 1.428 . S
H606 C602 0.930 . S
H607 C604 0.929 1_556 S
S608 N609 1.613 . S
S608 N610 1.610 . S
N609 S608 1.613 . S
N609 C612 1.350 . S
N610 S608 1.610 . S
N610 C611 1.351 . S
C611 C605 1.428 . S
C611 N610 1.351 . S
C611 C612 1.434 . S
C612 C603 1.429 . S
C612 N609 1.350 . S
C612 C611 1.434 . S
C613 C614 1.369 . S
C613 C615 1.419 . S
C613 H617 0.930 . S
C614 C613 1.369 . S
C614 C623 1.429 . S
C615 C613 1.419 . S
C615 C616 1.363 . S
C615 H618 0.929 . S
C616 C615 1.363 . S
C616 C622 1.428 . S
H617 C613 0.930 . S
H618 C615 0.929 . S
S619 N620 1.613 . S
S619 N621 1.610 . S
N620 S619 1.613 . S
N620 C623 1.350 1_556 S
N621 S619 1.610 . S
N621 C622 1.351 1_556 S
C622 C616 1.428 . S
C622 N621 1.351 1_554 S
C622 C623 1.434 . S
C623 C614 1.429 . S
C623 N620 1.350 1_554 S
C623 C622 1.434 . S
C624 C625 1.369 1_655 S
C624 C626 1.419 . S
C624 H628 0.930 . S
C625 C624 1.369 1_455 S
C625 C634 1.429 . S
C626 C624 1.419 . S
C626 C627 1.363 1_655 S
C626 H629 0.929 . S
C627 C626 1.363 1_455 S
C627 C633 1.428 . S
H628 C624 0.930 . S
H629 C626 0.929 . S
S630 N631 1.613 . S
S630 N632 1.610 . S
N631 S630 1.613 . S
N631 C634 1.350 . S
N632 S630 1.610 . S
N632 C633 1.351 . S
C633 C627 1.428 . S
C633 N632 1.351 . S
C633 C634 1.434 . S
C634 C625 1.429 . S
C634 N631 1.350 . S
C634 C633 1.434 . S
C635 C636 1.369 1_565 S
C635 C637 1.419 . S
C635 H639 0.930 . S
C636 C635 1.369 1_545 S
C636 C645 1.429 . S
C637 C635 1.419 . S
C637 C638 1.363 1_565 S
C637 H640 0.929 . S
C638 C637 1.363 1_545 S
C638 C644 1.428 . S
H639 C635 0.930 . S
H640 C637 0.929 . S
S641 N642 1.613 . S
S641 N643 1.610 . S
N642 S641 1.613 . S
N642 C645 1.350 . S
N643 S641 1.610 . S
N643 C644 1.351 . S
C644 C638 1.428 . S
C644 N643 1.351 . S
C644 C645 1.434 . S
C645 C636 1.429 . S
C645 N642 1.350 . S
C645 C644 1.434 . S
C646 C647 1.369 . S
C646 C648 1.419 . S
C646 H650 0.930 . S
C647 C646 1.369 . S
C647 C656 1.429 . S
C648 C646 1.419 . S
C648 C649 1.363 . S
C648 H651 0.929 . S
C649 C648 1.363 . S
C649 C655 1.428 . S
H650 C646 0.930 . S
H651 C648 0.929 . S
S652 N653 1.613 . S
S652 N654 1.610 . S
N653 S652 1.613 . S
N653 C656 1.350 . S
N654 S652 1.610 . S
N654 C655 1.351 . S
C655 C649 1.428 . S
C655 N654 1.351 . S
C655 C656 1.434 . S
C656 C647 1.429 . S
C656 N653 1.350 . S
C656 C655 1.434 . S
C657 C658 1.369 . S
C657 C659 1.419 . S
C657 H661 0.930 . S
C658 C657 1.369 . S
C658 C667 1.429 . S
C659 C657 1.419 . S
C659 C660 1.363 . S
C659 H662 0.929 . S
C660 C659 1.363 . S
C660 C666 1.428 . S
H661 C657 0.930 . S
H662 C659 0.929 . S
S663 N664 1.613 . S
S663 N665 1.610 . S
N664 S663 1.613 . S
N664 C667 1.350 . S
N665 S663 1.610 . S
N665 C666 1.351 . S
C666 C660 1.428 . S
C666 N665 1.351 . S
C666 C667 1.434 . S
C667 C658 1.429 . S
C667 N664 1.350 . S
C667 C666 1.434 . S
C668 C669 1.369 . S
C668 C670 1.419 . S
C668 H672 0.930 . S
C669 C668 1.369 . S
C669 C678 1.429 1_655 S
C670 C668 1.419 . S
C670 C671 1.363 . S
C670 H673 0.929 . S
C671 C670 1.363 . S
C671 C677 1.428 1_655 S
H672 C668 0.930 . S
H673 C670 0.929 . S
S674 N675 1.613 . S
S674 N676 1.610 . S
N675 S674 1.613 . S
N675 C678 1.350 . S
N676 S674 1.610 . S
N676 C677 1.351 . S
C677 C671 1.428 1_455 S
C677 N676 1.351 . S
C677 C678 1.434 . S
C678 C669 1.429 1_455 S
C678 N675 1.350 . S
C678 C677 1.434 . S
C679 C680 1.369 . S
C679 C681 1.419 . S
C679 H683 0.930 . S
C680 C679 1.369 . S
C680 C689 1.429 1_565 S
C681 C679 1.419 . S
C681 C682 1.363 . S
C681 H684 0.929 . S
C682 C681 1.363 . S
C682 C688 1.428 1_565 S
H683 C679 0.930 . S
H684 C681 0.929 . S
S685 N686 1.613 . S
S685 N687 1.610 . S
N686 S685 1.613 . S
N686 C689 1.350 . S
N687 S685 1.610 . S
N687 C688 1.351 . S
C688 C682 1.428 1_545 S
C688 N687 1.351 . S
C688 C689 1.434 . S
C689 C680 1.429 1_545 S
C689 N686 1.350 . S
C689 C688 1.434 . S
C690 C691 1.369 . S
C690 C692 1.419 . S
C690 H694 0.930 . S
C691 C690 1.369 . S
C691 C700 1.429 . S
C692 C690 1.419 . S
C692 C693 1.363 . S
C692 H695 0.929 . S
C693 C692 1.363 . S
C693 C699 1.428 . S
H694 C690 0.930 . S
H695 C692 0.929 . S
S696 N697 1.613 . S
S696 N698 1.610 . S
N697 S696 1.613 . S
N697 C700 1.350 . S
N698 S696 1.610 . S
N698 C699 1.351 . S
C699 C693 1.428 . S
C699 N698 1.351 . S
C699 C700 1.434 . S
C700 C691 1.429 . S
C700 N697 1.350 . S
C700 C699 1.434 . S
C701 C702 1.369 . S
C701 C703 1.419 . S
C701 H705 0.930 . S
C702 C701 1.369 . S
C702 C711 1.429 . S
C703 C701 1.419 . S
C703 C704 1.363 . S
C703 H706 0.929 . S
C704 C703 1.363 . S
C704 C710 1.428 . S
H705 C701 0.930 . S
H706 C703 0.929 . S
S707 N708 1.613 . S
S707 N709 1.610 . S
N708 S707 1.613 . S
N708 C711 1.350 . S
N709 S707 1.610 . S
N709 C710 1.351 . S
C710 C704 1.428 . S
C710 N709 1.351 . S
C710 C711 1.434 . S
C711 C702 1.429 . S
C711 N708 1.350 . S
C711 C710 1.434 . S
C449 C241 2.447 . S
C451 C298 2.820 1_545 S
C462 C338 2.846 . S
C460 C277 2.560 . S
C473 C378 2.827 . S
C471 C169 2.451 . S
C484 C418 2.831 1_455 S
C482 C205 2.454 . S
C495 C307 2.822 1_565 S
C493 C97 2.450 1_565 S
C504 C133 2.548 . S
C506 C347 2.847 1_554 S
C515 C25 2.460 . S
C517 C387 2.825 . S
C526 C61 2.466 1_655 S
C528 C427 2.829 1_655 S
C539 C304 0.803 . S
C537 C211 0.798 1_655 S
C550 C344 0.782 . S
C548 C247 0.812 1_565 S
C561 C384 0.788 . S
C559 C253 0.775 . S
C570 C175 0.808 . S
C572 C424 0.775 . S
C581 C67 0.808 . S
C583 C295 0.783 . S
C594 C335 0.804 . S
C592 C103 0.777 . S
C605 C375 0.785 . S
C603 C109 0.779 . S
C614 C31 0.784 . S
C616 C415 0.794 . S
C625 C181 3.212 . S
C627 C299 3.696 . S
C636 C217 3.191 . S
C638 C339 3.684 . S
C649 C379 3.691 . S
C647 C283 3.126 . S
C660 C419 3.691 . S
C658 C145 3.188 . S
C669 C37 3.226 1_655 S
C671 C290 3.703 . S
C682 C330 3.682 . S
C680 C73 3.204 1_565 S
C693 C370 3.689 . S
C691 C139 3.110 . S
C702 C1 3.211 . S
C704 C410 3.696 . S
