# Generated by pormake.
# Topology ptr, (4,4)-cn, num edge types: 1
# Building blocks:
#     Node 0, Type 0, BuildingBlock: NAHDIM_clean_sbu_0, # of connection points: 4
#     Node 1, Type 0, BuildingBlock: NAHDIM_clean_sbu_0, # of connection points: 4
#     Node 2, Type 0, BuildingBlock: NAHDIM_clean_sbu_0, # of connection points: 4
#     Node 3, Type 0, BuildingBlock: NAHDIM_clean_sbu_0, # of connection points: 4
#     Node 4, Type 0, BuildingBlock: NAHDIM_clean_sbu_0, # of connection points: 4
#     Node 5, Type 0, BuildingBlock: NAHDIM_clean_sbu_0, # of connection points: 4
#     Node 6, Type 0, BuildingBlock: NAHDIM_clean_sbu_0, # of connection points: 4
#     Node 7, Type 0, BuildingBlock: NAHDIM_clean_sbu_0, # of connection points: 4
#     Node 8, Type 0, BuildingBlock: NAHDIM_clean_sbu_0, # of connection points: 4
#     Node 9, Type 0, BuildingBlock: NAHDIM_clean_sbu_0, # of connection points: 4
#     Node 10, Type 0, BuildingBlock: NAHDIM_clean_sbu_0, # of connection points: 4
#     Node 11, Type 0, BuildingBlock: NAHDIM_clean_sbu_0, # of connection points: 4
#     Node 12, Type 0, BuildingBlock: NAHDIM_clean_sbu_0, # of connection points: 4
#     Node 13, Type 0, BuildingBlock: NAHDIM_clean_sbu_0, # of connection points: 4
#     Node 14, Type 0, BuildingBlock: NAHDIM_clean_sbu_0, # of connection points: 4
#     Node 15, Type 0, BuildingBlock: NAHDIM_clean_sbu_0, # of connection points: 4
#     Node 16, Type 0, BuildingBlock: NAHDIM_clean_sbu_0, # of connection points: 4
#     Node 17, Type 0, BuildingBlock: NAHDIM_clean_sbu_0, # of connection points: 4
#     Node 18, Type 1, BuildingBlock: NAWXER_clean_linker_0, # of connection points: 4
#     Node 19, Type 1, BuildingBlock: NAWXER_clean_linker_0, # of connection points: 4
#     Node 20, Type 1, BuildingBlock: NAWXER_clean_linker_0, # of connection points: 4
#     Node 21, Type 1, BuildingBlock: NAWXER_clean_linker_0, # of connection points: 4
#     Node 22, Type 1, BuildingBlock: NAWXER_clean_linker_0, # of connection points: 4
#     Node 23, Type 1, BuildingBlock: NAWXER_clean_linker_0, # of connection points: 4
#     Node 24, Type 1, BuildingBlock: NAWXER_clean_linker_0, # of connection points: 4
#     Node 25, Type 1, BuildingBlock: NAWXER_clean_linker_0, # of connection points: 4
#     Node 26, Type 1, BuildingBlock: NAWXER_clean_linker_0, # of connection points: 4
#     Node 27, Type 1, BuildingBlock: NAWXER_clean_linker_0, # of connection points: 4
#     Node 28, Type 1, BuildingBlock: NAWXER_clean_linker_0, # of connection points: 4
#     Node 29, Type 1, BuildingBlock: NAWXER_clean_linker_0, # of connection points: 4
#     Node 30, Type 1, BuildingBlock: NAWXER_clean_linker_0, # of connection points: 4
#     Node 31, Type 1, BuildingBlock: NAWXER_clean_linker_0, # of connection points: 4
#     Node 32, Type 1, BuildingBlock: NAWXER_clean_linker_0, # of connection points: 4
#     Node 33, Type 1, BuildingBlock: NAWXER_clean_linker_0, # of connection points: 4
#     Node 34, Type 1, BuildingBlock: NAWXER_clean_linker_0, # of connection points: 4
#     Node 35, Type 1, BuildingBlock: NAWXER_clean_linker_0, # of connection points: 4
#     Edge 36, Type (0, 1), BuildingBlock: EZIPEK_clean_linker_0, # of connection points: 2
#     Edge 37, Type (0, 1), BuildingBlock: EZIPEK_clean_linker_0, # of connection points: 2
#     Edge 38, Type (0, 1), BuildingBlock: EZIPEK_clean_linker_0, # of connection points: 2
#     Edge 39, Type (0, 1), BuildingBlock: EZIPEK_clean_linker_0, # of connection points: 2
#     Edge 40, Type (0, 1), BuildingBlock: EZIPEK_clean_linker_0, # of connection points: 2
#     Edge 41, Type (0, 1), BuildingBlock: EZIPEK_clean_linker_0, # of connection points: 2
#     Edge 42, Type (0, 1), BuildingBlock: EZIPEK_clean_linker_0, # of connection points: 2
#     Edge 43, Type (0, 1), BuildingBlock: EZIPEK_clean_linker_0, # of connection points: 2
#     Edge 44, Type (0, 1), BuildingBlock: EZIPEK_clean_linker_0, # of connection points: 2
#     Edge 45, Type (0, 1), BuildingBlock: EZIPEK_clean_linker_0, # of connection points: 2
#     Edge 46, Type (0, 1), BuildingBlock: EZIPEK_clean_linker_0, # of connection points: 2
#     Edge 47, Type (0, 1), BuildingBlock: EZIPEK_clean_linker_0, # of connection points: 2
#     Edge 48, Type (0, 1), BuildingBlock: EZIPEK_clean_linker_0, # of connection points: 2
#     Edge 49, Type (0, 1), BuildingBlock: EZIPEK_clean_linker_0, # of connection points: 2
#     Edge 50, Type (0, 1), BuildingBlock: EZIPEK_clean_linker_0, # of connection points: 2
#     Edge 51, Type (0, 1), BuildingBlock: EZIPEK_clean_linker_0, # of connection points: 2
#     Edge 52, Type (0, 1), BuildingBlock: EZIPEK_clean_linker_0, # of connection points: 2
#     Edge 53, Type (0, 1), BuildingBlock: EZIPEK_clean_linker_0, # of connection points: 2
#     Edge 54, Type (0, 1), BuildingBlock: EZIPEK_clean_linker_0, # of connection points: 2
#     Edge 55, Type (0, 1), BuildingBlock: EZIPEK_clean_linker_0, # of connection points: 2
#     Edge 56, Type (0, 1), BuildingBlock: EZIPEK_clean_linker_0, # of connection points: 2
#     Edge 57, Type (0, 1), BuildingBlock: EZIPEK_clean_linker_0, # of connection points: 2
#     Edge 58, Type (0, 1), BuildingBlock: EZIPEK_clean_linker_0, # of connection points: 2
#     Edge 59, Type (0, 1), BuildingBlock: EZIPEK_clean_linker_0, # of connection points: 2
#     Edge 60, Type (0, 1), BuildingBlock: EZIPEK_clean_linker_0, # of connection points: 2
#     Edge 61, Type (0, 1), BuildingBlock: EZIPEK_clean_linker_0, # of connection points: 2
#     Edge 62, Type (0, 1), BuildingBlock: EZIPEK_clean_linker_0, # of connection points: 2
#     Edge 63, Type (0, 1), BuildingBlock: EZIPEK_clean_linker_0, # of connection points: 2
#     Edge 64, Type (0, 1), BuildingBlock: EZIPEK_clean_linker_0, # of connection points: 2
#     Edge 65, Type (0, 1), BuildingBlock: EZIPEK_clean_linker_0, # of connection points: 2
#     Edge 66, Type (0, 1), BuildingBlock: EZIPEK_clean_linker_0, # of connection points: 2
#     Edge 67, Type (0, 1), BuildingBlock: EZIPEK_clean_linker_0, # of connection points: 2
#     Edge 68, Type (0, 1), BuildingBlock: EZIPEK_clean_linker_0, # of connection points: 2
#     Edge 69, Type (0, 1), BuildingBlock: EZIPEK_clean_linker_0, # of connection points: 2
#     Edge 70, Type (0, 1), BuildingBlock: EZIPEK_clean_linker_0, # of connection points: 2
#     Edge 71, Type (0, 1), BuildingBlock: EZIPEK_clean_linker_0, # of connection points: 2
#     Edge 72, Type (0, 1), BuildingBlock: EZIPEK_clean_linker_0, # of connection points: 2
#     Edge 73, Type (0, 1), BuildingBlock: EZIPEK_clean_linker_0, # of connection points: 2
#     Edge 74, Type (0, 1), BuildingBlock: EZIPEK_clean_linker_0, # of connection points: 2
#     Edge 75, Type (0, 1), BuildingBlock: EZIPEK_clean_linker_0, # of connection points: 2
#     Edge 76, Type (0, 1), BuildingBlock: EZIPEK_clean_linker_0, # of connection points: 2
#     Edge 77, Type (0, 1), BuildingBlock: EZIPEK_clean_linker_0, # of connection points: 2
#     Edge 78, Type (0, 1), BuildingBlock: EZIPEK_clean_linker_0, # of connection points: 2
#     Edge 79, Type (0, 1), BuildingBlock: EZIPEK_clean_linker_0, # of connection points: 2
#     Edge 80, Type (0, 1), BuildingBlock: EZIPEK_clean_linker_0, # of connection points: 2
#     Edge 81, Type (0, 1), BuildingBlock: EZIPEK_clean_linker_0, # of connection points: 2
#     Edge 82, Type (0, 1), BuildingBlock: EZIPEK_clean_linker_0, # of connection points: 2
#     Edge 83, Type (0, 1), BuildingBlock: EZIPEK_clean_linker_0, # of connection points: 2
#     Edge 84, Type (0, 1), BuildingBlock: EZIPEK_clean_linker_0, # of connection points: 2
#     Edge 85, Type (0, 1), BuildingBlock: EZIPEK_clean_linker_0, # of connection points: 2
#     Edge 86, Type (0, 1), BuildingBlock: EZIPEK_clean_linker_0, # of connection points: 2
#     Edge 87, Type (0, 1), BuildingBlock: EZIPEK_clean_linker_0, # of connection points: 2
#     Edge 88, Type (0, 1), BuildingBlock: EZIPEK_clean_linker_0, # of connection points: 2
#     Edge 89, Type (0, 1), BuildingBlock: EZIPEK_clean_linker_0, # of connection points: 2
#     Edge 90, Type (0, 1), BuildingBlock: EZIPEK_clean_linker_0, # of connection points: 2
#     Edge 91, Type (0, 1), BuildingBlock: EZIPEK_clean_linker_0, # of connection points: 2
#     Edge 92, Type (0, 1), BuildingBlock: EZIPEK_clean_linker_0, # of connection points: 2
#     Edge 93, Type (0, 1), BuildingBlock: EZIPEK_clean_linker_0, # of connection points: 2
#     Edge 94, Type (0, 1), BuildingBlock: EZIPEK_clean_linker_0, # of connection points: 2
#     Edge 95, Type (0, 1), BuildingBlock: EZIPEK_clean_linker_0, # of connection points: 2
#     Edge 96, Type (0, 1), BuildingBlock: EZIPEK_clean_linker_0, # of connection points: 2
#     Edge 97, Type (0, 1), BuildingBlock: EZIPEK_clean_linker_0, # of connection points: 2
#     Edge 98, Type (0, 1), BuildingBlock: EZIPEK_clean_linker_0, # of connection points: 2
#     Edge 99, Type (0, 1), BuildingBlock: EZIPEK_clean_linker_0, # of connection points: 2
#     Edge 100, Type (0, 1), BuildingBlock: EZIPEK_clean_linker_0, # of connection points: 2
#     Edge 101, Type (0, 1), BuildingBlock: EZIPEK_clean_linker_0, # of connection points: 2
#     Edge 102, Type (0, 1), BuildingBlock: EZIPEK_clean_linker_0, # of connection points: 2
#     Edge 103, Type (0, 1), BuildingBlock: EZIPEK_clean_linker_0, # of connection points: 2
#     Edge 104, Type (0, 1), BuildingBlock: EZIPEK_clean_linker_0, # of connection points: 2
#     Edge 105, Type (0, 1), BuildingBlock: EZIPEK_clean_linker_0, # of connection points: 2
#     Edge 106, Type (0, 1), BuildingBlock: EZIPEK_clean_linker_0, # of connection points: 2
#     Edge 107, Type (0, 1), BuildingBlock: EZIPEK_clean_linker_0, # of connection points: 2
# Relax obj value: 0.073
# Max RMSD: 0.266
# Mean RMSD: 0.109
data_MOF--net-ptr--node1-NAHDIM_clean_sbu_0--node2-NAWXER_clean_linker_0--edge1-EZIPEK_clean_linker_0
_symmetry_space_group_name_H-M    P1
_symmetry_Int_Tables_number       1
_symmetry_cell_setting            triclinic
loop_
_symmetry_equiv_pos_as_xyz
'x, y, z'
_cell_length_a     69.10946
_cell_length_b     67.651594
_cell_length_c     48.952897
_cell_angle_alpha  91.972471
_cell_angle_beta   89.00425
_cell_angle_gamma 122.04498
loop_
_atom_site_label
_atom_site_type_symbol
_atom_site_fract_x
_atom_site_fract_y
_atom_site_fract_z
_atom_type_partial_charge
C0 C 0.03193 0.33474 0.03896 0.0
O1 O 0.01225 0.32978 0.04933 0.0
O2 O 0.99124 0.32382 0.98026 0.0
Zn3 Zn 0.01686 0.35264 0.99908 0.0
O4 O 0.00491 0.36377 0.0298 0.0
C5 C 0.02091 0.37942 0.9531 0.0
O6 O -0.00033 0.3621 0.94996 0.0
O7 O 0.03827 0.34474 0.01612 0.0
C8 C 0.99414 0.37393 0.02633 0.0
O9 O 0.98888 0.37628 0.00152 0.0
C10 C 0.97245 0.30962 0.99176 0.0
O11 O 0.96879 0.31344 0.01725 0.0
O12 O 0.03286 0.37883 0.97217 0.0
C13 C 0.69304 0.67237 0.96943 0.0
O14 O 0.67854 0.67685 0.95869 0.0
O15 O 0.66633 0.68428 0.03356 0.0
Zn16 Zn 0.66001 0.65544 0.01222 0.0
O17 O 0.63455 0.64407 0.98481 0.0
C18 C 0.63875 0.62865 0.05925 0.0
O19 O 0.63471 0.64534 0.06403 0.0
O20 O 0.6887 0.66274 0.99245 0.0
C21 C 0.61753 0.64638 0.9874 0.0
O22 O 0.61614 0.65803 0.00855 0.0
C23 C 0.66791 0.70195 0.02297 0.0
O24 O 0.66486 0.70192 0.99656 0.0
O25 O 0.65012 0.6293 0.03825 0.0
C26 C 0.33458 0.02637 0.97688 0.0
O27 O 0.32465 0.00485 0.96704 0.0
O28 O 0.32038 0.98468 0.03404 0.0
Zn29 Zn 0.34946 0.0067 0.01424 0.0
O30 O 0.35553 0.99057 0.98276 0.0
C31 C 0.37508 0.0253 0.06553 0.0
O32 O 0.35759 0.02637 0.07432 0.0
O33 O 0.34679 0.03219 0.9983 0.0
C34 C 0.37007 0.98465 0.98494 0.0
O35 O 0.37959 0.98679 0.00873 0.0
C36 C 0.31419 0.96378 0.03874 0.0
O37 O 0.32665 0.95552 0.02985 0.0
O38 O 0.37556 0.01904 0.04088 0.0
C39 C 0.97407 0.67502 0.96843 0.0
O40 O 0.99502 0.68387 0.95947 0.0
O41 O 0.01494 0.68521 0.02064 0.0
Zn42 Zn 0.98965 0.65491 0.00419 0.0
O43 O 0.00042 0.64183 0.97406 0.0
C44 C 0.98332 0.61878 0.03859 0.0
O45 O -0.00081 0.61985 0.02245 0.0
O46 O 0.967 0.66123 0.98826 0.0
C47 C 0.01991 0.65241 0.96272 0.0
O48 O 0.03519 0.67404 0.97005 0.0
C49 C 0.03135 0.68689 0.03403 0.0
O50 O 0.03322 0.66867 0.03596 0.0
O51 O 0.97558 0.63178 0.0345 0.0
C52 C 0.29856 0.3241 0.05348 0.0
O53 O 0.31212 0.31792 0.06317 0.0
O54 O 0.33 0.31775 0.99186 0.0
Zn55 Zn 0.33407 0.345 0.01441 0.0
O56 O 0.35714 0.35407 0.04431 0.0
C57 C 0.35693 0.37456 0.96943 0.0
O58 O 0.36018 0.35761 0.96256 0.0
O59 O 0.30419 0.33606 0.03206 0.0
C60 C 0.37822 0.36292 0.03937 0.0
O61 O 0.38526 0.36475 0.01397 0.0
C62 C 0.33208 0.30183 0.0016 0.0
O63 O 0.33733 0.30285 0.02747 0.0
O64 O 0.34525 0.37286 0.99056 0.0
C65 C 0.66744 0.97707 0.03884 0.0
O66 O 0.6824 -0.00036 0.03954 0.0
O67 O 0.67459 0.01284 0.98188 0.0
Zn68 Zn 0.64609 0.99194 0.00321 0.0
O69 O 0.63852 0.0101 0.02997 0.0
C70 C 0.62212 0.97004 0.95225 0.0
O71 O 0.64095 0.97091 0.94502 0.0
O72 O 0.64972 0.96887 0.024 0.0
C73 C 0.61908 0.99793 0.04114 0.0
O74 O 0.60628 0.97557 0.03473 0.0
C75 C 0.68944 0.03371 0.98904 0.0
O76 O 0.68698 0.04276 0.01201 0.0
O77 O 0.62021 0.97654 0.97625 0.0
C78 C 0.68909 0.67089 0.38195 0.0
O79 O 0.66949 0.66608 0.39243 0.0
O80 O 0.65181 0.65671 0.31714 0.0
Zn81 Zn 0.67369 0.68602 0.33853 0.0
O82 O 0.65771 0.69535 0.366 0.0
C83 C 0.67933 0.71296 0.29247 0.0
O84 O 0.65824 0.69562 0.28825 0.0
O85 O 0.6952 0.68015 0.35871 0.0
C86 C 0.63867 0.6935 0.36229 0.0
O87 O 0.62723 0.68391 0.33955 0.0
C88 C 0.63517 0.63884 0.32794 0.0
O89 O 0.63123 0.63917 0.35424 0.0
O90 O 0.69045 0.71263 0.31268 0.0
C91 C 0.37184 0.0029 0.34251 0.0
O92 O 0.37235 0.00172 0.36919 0.0
O93 O 0.33298 0.02383 0.37018 0.0
Zn94 Zn 0.32592 0.99475 0.3494 0.0
O95 O 0.30359 0.98627 0.31873 0.0
C96 C 0.30076 0.96733 0.3947 0.0
O97 O 0.29722 0.98451 0.39812 0.0
O98 O 0.35429 0.00024 0.33096 0.0
C99 C 0.28205 0.97388 0.32131 0.0
O100 O 0.27294 0.9682 0.34573 0.0
C101 C 0.34548 0.0439 0.36033 0.0
O102 O 0.35356 0.04604 0.33541 0.0
O103 O 0.31353 0.968 0.37527 0.0
C104 C 0.99318 0.36271 0.31295 0.0
O105 O 0.97872 0.34004 0.31102 0.0
O106 O 0.98627 0.32701 0.37006 0.0
Zn107 Zn 0.01462 0.34771 0.348 0.0
O108 O 0.01984 0.32974 0.31784 0.0
C109 C 0.04509 0.35432 0.39186 0.0
O110 O 0.02913 0.33257 0.39635 0.0
O111 O 0.01035 0.37085 0.32871 0.0
C112 C 0.03274 0.32178 0.3202 0.0
O113 O 0.04174 0.32292 0.34401 0.0
C114 C 0.97911 0.30581 0.37452 0.0
O115 O 0.9901 0.29635 0.3641 0.0
O116 O 0.04244 0.36491 0.37272 0.0
C117 C 0.64226 0.00262 0.3033 0.0
O118 O 0.66197 0.00867 0.29212 0.0
O119 O 0.68183 0.01639 0.36619 0.0
Zn120 Zn 0.65951 0.98751 0.34449 0.0
O121 O 0.67419 0.97774 0.31546 0.0
C122 C 0.65686 0.95682 0.38323 0.0
O123 O 0.67897 0.9696 0.37906 0.0
O124 O 0.63697 0.99296 0.32633 0.0
C125 C 0.69483 0.98323 0.31415 0.0
O126 O 0.70971 0.99775 0.33244 0.0
C127 C 0.69741 0.03527 0.35588 0.0
O128 O 0.70016 0.03662 0.32925 0.0
O129 O 0.64371 0.96111 0.37046 0.0
C130 C 0.9581 0.65644 0.37527 0.0
O131 O 0.97068 0.64891 0.38459 0.0
O132 O 0.99101 0.64919 0.31913 0.0
Zn133 Zn 0.99507 0.67752 0.33905 0.0
O134 O 0.01685 0.6878 0.37097 0.0
C135 C 0.02033 0.70504 0.29399 0.0
O136 O 0.02579 0.68916 0.29234 0.0
O137 O 0.96484 0.66945 0.35471 0.0
C138 C 0.03826 0.70201 0.36918 0.0
O139 O 0.04765 0.70924 0.34514 0.0
C140 C 0.99452 0.63434 0.32924 0.0
O141 O 0.00146 0.63697 0.35466 0.0
O142 O 0.00644 0.70358 0.31236 0.0
C143 C 0.34109 0.3081 0.37186 0.0
O144 O 0.3545 0.33092 0.37354 0.0
O145 O 0.34433 0.34228 0.31422 0.0
Zn146 Zn 0.31759 0.32123 0.33805 0.0
O147 O 0.31252 0.33869 0.36851 0.0
C148 C 0.28732 0.31383 0.29424 0.0
O149 O 0.30516 0.33361 0.28648 0.0
O150 O 0.32359 0.2989 0.3565 0.0
C151 C 0.30456 0.35151 0.36469 0.0
O152 O 0.30213 0.35629 0.33968 0.0
C153 C 0.36018 0.36273 0.32147 0.0
O154 O 0.35951 0.37134 0.34568 0.0
O155 O 0.28866 0.30421 0.31539 0.0
C156 C 0.35705 0.99208 0.71082 0.0
O157 O 0.33496 0.97723 0.71272 0.0
O158 O 0.31838 0.98672 0.65733 0.0
Zn159 Zn 0.34222 0.01577 0.67784 0.0
O160 O 0.32849 0.02659 0.70679 0.0
C161 C 0.34661 0.04334 0.63283 0.0
O162 O 0.32485 0.02714 0.63059 0.0
O163 O 0.36452 0.01 0.6964 0.0
C164 C 0.311 0.02781 0.70313 0.0
O165 O 0.29983 0.02041 0.67989 0.0
C166 C 0.29953 0.97091 0.6673 0.0
O167 O 0.29449 0.97273 0.69288 0.0
O168 O 0.35853 0.04181 0.65116 0.0
C169 C 0.03644 0.34033 0.64009 0.0
O170 O 0.02258 0.34519 0.62832 0.0
O171 O 0.00547 0.35059 0.69951 0.0
Zn172 Zn 0.00067 0.32221 0.67887 0.0
O173 O 0.97794 0.31244 0.64821 0.0
C174 C 0.97643 0.29467 0.7247 0.0
O175 O 0.97356 0.31214 0.72964 0.0
O176 O 0.03081 0.33006 0.66275 0.0
C177 C 0.95692 0.30451 0.65251 0.0
O178 O 0.94972 0.30419 0.67758 0.0
C179 C 0.00449 0.36675 0.6885 0.0
O180 O -0.00022 0.36521 0.66236 0.0
O181 O 0.98845 0.29527 0.70441 0.0
C182 C 0.65919 0.69131 0.64444 0.0
O183 O 0.64879 0.66876 0.63935 0.0
O184 O 0.65281 0.6614 0.71155 0.0
Zn185 Zn 0.67955 0.68041 0.68683 0.0
O186 O 0.68547 0.65975 0.662 0.0
C187 C 0.7125 0.68882 0.72577 0.0
O188 O 0.69916 0.66601 0.72632 0.0
O189 O 0.67335 0.70062 0.66405 0.0
C190 C 0.70251 0.67042 0.64619 0.0
O191 O 0.71461 0.69332 0.64687 0.0
C192 C 0.63623 0.64138 0.70421 0.0
O193 O 0.63625 0.63262 0.67986 0.0
O194 O 0.70751 0.7001 0.71016 0.0
C195 C 0.30157 0.34057 0.65181 0.0
O196 O 0.32388 0.35472 0.65167 0.0
O197 O 0.33581 0.348 0.70898 0.0
Zn198 Zn 0.31514 0.31841 0.68689 0.0
O199 O 0.33212 0.31237 0.65694 0.0
C200 C 0.31053 0.28899 0.73058 0.0
O201 O 0.33187 0.3058 0.73453 0.0
O202 O 0.29263 0.32284 0.66679 0.0
C203 C 0.34033 0.29959 0.65932 0.0
O204 O 0.34036 0.29142 0.68322 0.0
C205 C 0.3571 0.35658 0.71146 0.0
O206 O 0.36658 0.34623 0.6992 0.0
O207 O 0.29911 0.29056 0.71161 0.0
C208 C 0.63344 0.99264 0.70091 0.0
O209 O 0.63958 0.97733 0.70177 0.0
O210 O 0.66685 0.98493 0.65289 0.0
Zn211 Zn 0.67423 0.01519 0.6711 0.0
O212 O 0.69686 0.02474 0.70155 0.0
C213 C 0.67879 0.04645 0.62717 0.0
O214 O 0.65642 0.0357 0.62707 0.0
O215 O 0.64566 0.01122 0.6878 0.0
C216 C 0.71792 0.03378 0.6963 0.0
O217 O 0.72466 0.03515 0.6708 0.0
C218 C 0.67856 0.9842 0.63306 0.0
O219 O 0.69642 0.00359 0.62442 0.0
O220 O 0.68868 0.04064 0.64381 0.0
C221 C 0.9898 0.62601 0.68475 0.0
O222 O 0.99239 0.62633 0.6581 0.0
O223 O 0.00499 0.6829 0.65621 0.0
Zn224 Zn 0.97708 0.66048 0.6775 0.0
O225 O 0.96931 0.67644 0.70713 0.0
C226 C 0.94934 0.65652 0.63306 0.0
O227 O 0.96647 0.67809 0.63036 0.0
O228 O 0.98305 0.63835 0.69641 0.0
C229 C 0.96932 0.69504 0.70434 0.0
O230 O 0.97635 0.70624 0.68138 0.0
C231 C 0.02353 0.69899 0.66703 0.0
O232 O 0.02521 0.7019 0.69374 0.0
O233 O 0.94995 0.64431 0.65183 0.0
C234 C 0.20845 0.31742 0.10726 0.0
C235 C 0.21534 0.30143 0.10928 0.0
C236 C 0.18923 0.31392 0.12142 0.0
C237 C 0.17688 0.29457 0.13806 0.0
C238 C 0.20261 0.28164 0.12511 0.0
C239 C 0.18345 0.27821 0.13944 0.0
C240 C 0.15763 0.29216 0.1544 0.0
C241 C 0.18751 0.27138 0.22841 0.0
C242 C 0.20908 0.29209 0.23028 0.0
C243 C 0.17017 0.27048 0.21303 0.0
C244 C 0.17446 0.29002 0.19871 0.0
C245 C 0.21332 0.3116 0.21593 0.0
C246 C 0.19616 0.31054 0.20014 0.0
C247 C 0.15621 0.28942 0.18287 0.0
C248 C 0.06687 0.28174 0.21272 0.0
C249 C 0.07485 0.29657 0.23606 0.0
C250 C 0.08225 0.27964 0.1957 0.0
C251 C 0.10574 0.29256 0.20177 0.0
C252 C 0.09817 0.30902 0.24236 0.0
C253 C 0.11345 0.30696 0.22545 0.0
C254 C 0.12271 0.29133 0.18415 0.0
C255 C 0.09216 0.3219 0.1314 0.0
C256 C 0.08409 0.31045 0.10588 0.0
C257 C 0.10491 0.31649 0.14798 0.0
C258 C 0.10921 0.29907 0.13961 0.0
C259 C 0.0886 0.29328 0.09734 0.0
C260 C 0.10102 0.28763 0.11408 0.0
C261 C 0.12431 0.2944 0.15554 0.0
H262 H 0.21814 0.33275 0.09504 0.0
H263 H 0.18442 0.32671 0.12003 0.0
H264 H 0.20776 0.26913 0.12673 0.0
H265 H 0.17389 0.26293 0.15176 0.0
H266 H 0.18403 0.25616 0.23932 0.0
H267 H 0.15348 0.25454 0.21213 0.0
H268 H 0.22989 0.32767 0.21709 0.0
H269 H 0.1997 0.32583 0.18934 0.0
H270 H 0.04887 0.27199 0.20767 0.0
H271 H 0.07585 0.26806 0.17783 0.0
H272 H 0.10456 0.32053 0.2603 0.0
H273 H 0.13144 0.31701 0.23063 0.0
H274 H 0.08898 0.33533 0.13819 0.0
H275 H 0.11184 0.32634 0.16698 0.0
H276 H 0.08259 0.28437 0.07765 0.0
H277 H 0.10446 0.27446 0.10694 0.0
N278 N 0.14168 0.29459 0.14184 0.0
N279 N 0.13883 0.28906 0.19667 0.0
C280 C 0.67345 0.9079 0.12711 0.0
C281 C 0.68663 0.91962 0.10424 0.0
C282 C 0.67855 0.89396 0.14201 0.0
C283 C 0.69681 0.89148 0.13413 0.0
C284 C 0.70507 0.91739 0.09661 0.0
C285 C 0.70996 0.90321 0.11128 0.0
C286 C 0.70091 0.87501 0.14802 0.0
C287 C 0.72075 0.93447 0.20917 0.0
C288 C 0.7062 0.92731 0.23198 0.0
C289 C 0.7201 0.91786 0.19071 0.0
C290 C 0.70507 0.89394 0.19506 0.0
C291 C 0.69122 0.90343 0.23624 0.0
C292 C 0.6908 0.88689 0.21806 0.0
C293 C 0.70445 0.87596 0.17645 0.0
C294 C 0.7219 0.8086 0.21746 0.0
C295 C 0.70111 0.78727 0.22018 0.0
C296 C 0.72313 0.82593 0.20139 0.0
C297 C 0.70382 0.82177 0.18711 0.0
C298 C 0.68193 0.78298 0.20547 0.0
C299 C 0.68332 0.80007 0.18889 0.0
C300 C 0.70445 0.84075 0.17246 0.0
C301 C 0.67515 0.79108 0.0905 0.0
C302 C 0.68945 0.78229 0.09181 0.0
C303 C 0.67918 0.80993 0.10739 0.0
C304 C 0.69744 0.82014 0.12601 0.0
C305 C 0.70801 0.79271 0.10995 0.0
C306 C 0.71206 0.81161 0.12686 0.0
C307 C 0.70102 0.83982 0.14401 0.0
H308 H 0.65909 0.90934 0.13318 0.0
H309 H 0.66784 0.88462 0.1592 0.0
H310 H 0.71538 0.9263 0.07899 0.0
H311 H 0.72394 0.90127 0.10471 0.0
H312 H 0.73254 0.95285 0.20573 0.0
H313 H 0.73153 0.92365 0.17332 0.0
H314 H 0.67995 0.89761 0.25379 0.0
H315 H 0.67914 0.86853 0.22183 0.0
H316 H 0.73686 0.81213 0.22863 0.0
H317 H 0.73904 0.84265 0.20033 0.0
H318 H 0.66579 0.76657 0.2073 0.0
H319 H 0.66821 0.79668 0.1782 0.0
H320 H 0.66077 0.7832 0.07656 0.0
H321 H 0.66775 0.81628 0.10625 0.0
H322 H 0.71925 0.78613 0.11105 0.0
H323 H 0.72665 0.81961 0.14046 0.0
N324 N 0.69938 0.85702 0.13288 0.0
N325 N 0.70604 0.85875 0.18759 0.0
C326 C 0.09946 0.768 0.12268 0.0
C327 C 0.09147 0.7706 0.09779 0.0
C328 C 0.11386 0.78756 0.1391 0.0
C329 C 0.12005 0.80996 0.13115 0.0
C330 C 0.09798 0.79293 0.08943 0.0
C331 C 0.11227 0.81252 0.10599 0.0
C332 C 0.13594 0.83081 0.14801 0.0
C333 C 0.07323 0.78838 0.19991 0.0
C334 C 0.07777 0.77954 0.22282 0.0
C335 C 0.09127 0.80567 0.18465 0.0
C336 C 0.114 0.81432 0.19226 0.0
C337 C 0.10043 0.78848 0.23063 0.0
C338 C 0.11838 0.80582 0.21559 0.0
C339 C 0.13352 0.83241 0.17656 0.0
C340 C 0.21542 0.9272 0.20887 0.0
C341 C 0.2201 0.92047 0.23348 0.0
C342 C 0.19912 0.91029 0.19073 0.0
C343 C 0.18764 0.8865 0.19689 0.0
C344 C 0.20849 0.89682 0.23971 0.0
C345 C 0.19239 0.88001 0.22164 0.0
C346 C 0.16985 0.86804 0.17875 0.0
C347 C 0.234 0.89888 0.12788 0.0
C348 C 0.23311 0.90938 0.10411 0.0
C349 C 0.21431 0.88546 0.14336 0.0
C350 C 0.19346 0.88243 0.13531 0.0
C351 C 0.21232 0.90647 0.09612 0.0
C352 C 0.19258 0.8929 0.11149 0.0
C353 C 0.1722 0.86658 0.15015 0.0
H354 H 0.09469 0.75086 0.12923 0.0
H355 H 0.12038 0.78517 0.15784 0.0
H356 H 0.09197 0.79513 0.07016 0.0
H357 H 0.11718 0.82966 0.09924 0.0
H358 H 0.05579 0.78178 0.19381 0.0
H359 H 0.08751 0.81232 0.16702 0.0
H360 H 0.10421 0.78193 0.24835 0.0
H361 H 0.13575 0.81231 0.22192 0.0
H362 H 0.22431 0.94544 0.20381 0.0
H363 H 0.19534 0.91583 0.17214 0.0
H364 H 0.212 0.89137 0.25858 0.0
H365 H 0.18373 0.86183 0.22695 0.0
H366 H 0.2499 0.90085 0.13422 0.0
H367 H 0.21526 0.877 0.16123 0.0
H368 H 0.21136 0.91444 0.07779 0.0
H369 H 0.17659 0.89047 0.10474 0.0
N370 N 0.15509 0.84809 0.13588 0.0
N371 N 0.1506 0.85087 0.19073 0.0
C372 C 0.31702 0.09529 0.8036 0.0
C373 C 0.29753 0.08082 0.78767 0.0
C374 C 0.31703 0.11082 0.82311 0.0
C375 C 0.29755 0.11213 0.82691 0.0
C376 C 0.2778 0.08159 0.79196 0.0
C377 C 0.27792 0.09739 0.81125 0.0
C378 C 0.29849 0.13046 0.84515 0.0
C379 C 0.29944 0.07957 0.90133 0.0
C380 C 0.31971 0.08903 0.9164 0.0
C381 C 0.29506 0.09412 0.88657 0.0
C382 C 0.31093 0.11831 0.88673 0.0
C383 C 0.3356 0.11313 0.91651 0.0
C384 C 0.33115 0.12768 0.90196 0.0
C385 C 0.3061 0.13417 0.87248 0.0
C386 C 0.29685 0.21428 0.91201 0.0
C387 C 0.31646 0.22594 0.92847 0.0
C388 C 0.29313 0.19581 0.89452 0.0
C389 C 0.30915 0.18901 0.89305 0.0
C390 C 0.33235 0.21908 0.92721 0.0
C391 C 0.32869 0.20071 0.90969 0.0
C392 C 0.30524 0.16896 0.87553 0.0
C393 C 0.31348 0.22203 0.81586 0.0
C394 C 0.29402 0.21513 0.80009 0.0
C395 C 0.31445 0.20601 0.83208 0.0
C396 C 0.29591 0.18281 0.83291 0.0
C397 C 0.27528 0.19208 0.80124 0.0
C398 C 0.27633 0.17596 0.81732 0.0
C399 C 0.29772 0.16533 0.84812 0.0
H400 H 0.33239 0.09494 0.80041 0.0
H401 H 0.33253 0.1224 0.83452 0.0
H402 H 0.26266 0.07056 0.77972 0.0
H403 H 0.26282 0.09834 0.8137 0.0
H404 H 0.287 0.06098 0.90116 0.0
H405 H 0.27911 0.08654 0.87551 0.0
H406 H 0.3513 0.12064 0.9281 0.0
H407 H 0.34354 0.1463 0.90251 0.0
H408 H 0.28438 0.21934 0.91293 0.0
H409 H 0.27759 0.18663 0.88254 0.0
H410 H 0.34753 0.22791 0.93988 0.0
H411 H 0.34119 0.19567 0.90908 0.0
H412 H 0.32812 0.23972 0.81511 0.0
H413 H 0.32996 0.21157 0.84336 0.0
H414 H 0.26015 0.18648 0.78915 0.0
H415 H 0.26195 0.15811 0.81745 0.0
N416 N 0.29451 0.14614 0.83403 0.0
N417 N 0.3092 0.15327 0.88655 0.0
C418 C 0.91637 0.21866 0.90831 0.0
C419 C 0.90829 0.23013 0.92481 0.0
C420 C 0.90129 0.19958 0.89157 0.0
C421 C 0.87799 0.1919 0.89099 0.0
C422 C 0.88504 0.22234 0.92454 0.0
C423 C 0.86998 0.20329 0.90784 0.0
C424 C 0.86161 0.17153 0.87379 0.0
C425 C 0.90656 0.22603 0.81366 0.0
C426 C 0.91889 0.21992 0.79604 0.0
C427 C 0.88964 0.20944 0.83053 0.0
C428 C 0.88496 0.18652 0.83026 0.0
C429 C 0.91454 0.19716 0.79597 0.0
C430 C 0.89753 0.18051 0.81283 0.0
C431 C 0.86553 0.16836 0.84604 0.0
C432 C 0.77454 0.09552 0.80389 0.0
C433 C 0.78077 0.0836 0.78534 0.0
C434 C 0.78993 0.11063 0.8239 0.0
C435 C 0.81173 0.1139 0.82573 0.0
C436 C 0.80223 0.08625 0.78759 0.0
C437 C 0.81768 0.10144 0.80756 0.0
C438 C 0.82931 0.13254 0.84384 0.0
C439 C 0.77656 0.08067 0.90202 0.0
C440 C 0.76598 0.08979 0.91821 0.0
C441 C 0.79562 0.09547 0.88618 0.0
C442 C 0.80427 0.11955 0.88643 0.0
C443 C 0.77443 0.11373 0.91825 0.0
C444 C 0.79352 0.12852 0.90262 0.0
C445 C 0.82534 0.13586 0.87152 0.0
H446 H 0.9343 0.22444 0.90849 0.0
H447 H 0.90779 0.1907 0.87932 0.0
H448 H 0.87859 0.23101 0.93726 0.0
H449 H 0.85206 0.19756 0.90788 0.0
H450 H 0.90961 0.24348 0.81376 0.0
H451 H 0.87972 0.21435 0.84312 0.0
H452 H 0.92387 0.19219 0.78235 0.0
H453 H 0.89398 0.16286 0.81204 0.0
H454 H 0.75813 0.09385 0.80214 0.0
H455 H 0.78517 0.12058 0.83703 0.0
H456 H 0.80732 0.07731 0.7732 0.0
H457 H 0.83451 0.10397 0.80834 0.0
H458 H 0.77023 0.06219 0.90195 0.0
H459 H 0.80391 0.08823 0.87432 0.0
H460 H 0.76645 0.12099 0.93073 0.0
H461 H 0.79998 0.14704 0.90323 0.0
N462 N 0.84165 0.15522 0.88536 0.0
N463 N 0.84929 0.14889 0.83222 0.0
C464 C 0.79029 0.72016 0.90082 0.0
C465 C 0.77728 0.6986 0.9134 0.0
C466 C 0.8105 0.7259 0.88724 0.0
C467 C 0.81781 0.71007 0.88598 0.0
C468 C 0.78471 0.68292 0.91252 0.0
C469 C 0.80493 0.68869 0.89903 0.0
C470 C 0.83884 0.71559 0.87122 0.0
C471 C 0.78927 0.69681 0.80112 0.0
C472 C 0.7895 0.71692 0.79448 0.0
C473 C 0.80653 0.69854 0.81731 0.0
C474 C 0.82436 0.72042 0.8268 0.0
C475 C 0.8072 0.73886 0.80426 0.0
C476 C 0.8248 0.74063 0.82003 0.0
C477 C 0.84246 0.72171 0.84358 0.0
C478 C 0.91181 0.70022 0.80804 0.0
C479 C 0.92324 0.71711 0.78819 0.0
C480 C 0.89737 0.70207 0.82678 0.0
C481 C 0.89457 0.72119 0.82646 0.0
C482 C 0.92085 0.73644 0.78805 0.0
C483 C 0.90659 0.73845 0.80706 0.0
C484 C 0.87687 0.72157 0.8436 0.0
C485 C 0.92665 0.72174 0.90121 0.0
C486 C 0.9171 0.70098 0.91554 0.0
C487 C 0.91253 0.72696 0.88718 0.0
C488 C 0.88873 0.71141 0.88732 0.0
C489 C 0.89336 0.68577 0.9163 0.0
C490 C 0.87926 0.69104 0.90245 0.0
C491 C 0.87345 0.71584 0.87154 0.0
H492 H 0.78479 0.73247 0.90152 0.0
H493 H 0.82048 0.74274 0.87795 0.0
H494 H 0.77482 0.66625 0.92225 0.0
H495 H 0.81033 0.67629 0.89838 0.0
H496 H 0.77566 0.67976 0.79385 0.0
H497 H 0.80603 0.68281 0.82237 0.0
H498 H 0.8075 0.75452 0.7994 0.0
H499 H 0.83852 0.75764 0.82724 0.0
H500 H 0.91318 0.68499 0.80811 0.0
H501 H 0.8876 0.68794 0.84061 0.0
H502 H 0.92934 0.74946 0.77261 0.0
H503 H 0.90439 0.75312 0.80608 0.0
H504 H 0.94499 0.73365 0.90058 0.0
H505 H 0.92016 0.74297 0.87605 0.0
H506 H 0.8858 0.66971 0.92734 0.0
H507 H 0.86095 0.67886 0.90291 0.0
N508 N 0.85444 0.71285 0.88417 0.0
N509 N 0.86122 0.72436 0.83074 0.0
C510 C 0.73549 0.62789 0.45877 0.0
C511 C 0.74496 0.64714 0.44177 0.0
C512 C 0.74973 0.62303 0.47316 0.0
C513 C 0.77357 0.63742 0.47068 0.0
C514 C 0.7687 0.66134 0.43905 0.0
C515 C 0.7829 0.65641 0.45325 0.0
C516 C 0.7891 0.63278 0.48562 0.0
C517 C 0.75666 0.65474 0.55029 0.0
C518 C 0.74433 0.63808 0.57009 0.0
C519 C 0.77033 0.6516 0.53157 0.0
C520 C 0.7716 0.63155 0.53212 0.0
C521 C 0.74534 0.61793 0.57059 0.0
C522 C 0.75903 0.61477 0.55181 0.0
C523 C 0.78766 0.6292 0.51402 0.0
C524 C 0.87918 0.646 0.54015 0.0
C525 C 0.87331 0.63094 0.56196 0.0
C526 C 0.86224 0.64431 0.52334 0.0
C527 C 0.83915 0.62698 0.52745 0.0
C528 C 0.85036 0.61356 0.56616 0.0
C529 C 0.8334 0.61157 0.54898 0.0
C530 C 0.82087 0.62671 0.51164 0.0
C531 C 0.86472 0.61736 0.45067 0.0
C532 C 0.87704 0.63679 0.43416 0.0
C533 C 0.8464 0.61468 0.46631 0.0
C534 C 0.84032 0.63146 0.46558 0.0
C535 C 0.87051 0.6531 0.43272 0.0
C536 C 0.85215 0.65035 0.44816 0.0
C537 C 0.82202 0.62993 0.48313 0.0
H538 H 0.71715 0.61674 0.46093 0.0
H539 H 0.74216 0.60802 0.48607 0.0
H540 H 0.77619 0.67621 0.42591 0.0
H541 H 0.80122 0.66767 0.45095 0.0
H542 H 0.75621 0.67049 0.54986 0.0
H543 H 0.78045 0.6652 0.51723 0.0
H544 H 0.73599 0.60499 0.58591 0.0
H545 H 0.76003 0.59936 0.55285 0.0
H546 H 0.89678 0.65982 0.53702 0.0
H547 H 0.86721 0.65722 0.50789 0.0
H548 H 0.84555 0.60204 0.58319 0.0
H549 H 0.81571 0.59838 0.55292 0.0
H550 H 0.8696 0.60462 0.45186 0.0
H551 H 0.83721 0.59975 0.47925 0.0
H552 H 0.8799 0.66815 0.42 0.0
H553 H 0.84766 0.66341 0.4472 0.0
N554 N 0.80622 0.63302 0.47134 0.0
N555 N 0.80354 0.62621 0.52589 0.0
C556 C 0.34438 0.23971 0.46212 0.0
C557 C 0.36003 0.25301 0.44172 0.0
C558 C 0.34863 0.22611 0.47883 0.0
C559 C 0.36859 0.22561 0.47533 0.0
C560 C 0.38008 0.25271 0.43836 0.0
C561 C 0.3842 0.23888 0.45488 0.0
C562 C 0.372 0.20947 0.49104 0.0
C563 C 0.37859 0.2644 0.55181 0.0
C564 C 0.36274 0.25543 0.57326 0.0
C565 C 0.38123 0.24926 0.53414 0.0
C566 C 0.36779 0.22498 0.53755 0.0
C567 C 0.34946 0.23129 0.57673 0.0
C568 C 0.35201 0.21621 0.55911 0.0
C569 C 0.3705 0.20844 0.51981 0.0
C570 C 0.38562 0.1302 0.54338 0.0
C571 C 0.36894 0.11948 0.56373 0.0
C572 C 0.38683 0.148 0.52819 0.0
C573 C 0.37135 0.15521 0.5332 0.0
C574 C 0.35371 0.12688 0.56894 0.0
C575 C 0.35497 0.14465 0.5539 0.0
C576 C 0.37229 0.17413 0.51772 0.0
C577 C 0.35039 0.11574 0.45523 0.0
C578 C 0.36609 0.12095 0.43399 0.0
C579 C 0.35329 0.13327 0.47371 0.0
C580 C 0.37198 0.15623 0.47121 0.0
C581 C 0.38491 0.14378 0.43157 0.0
C582 C 0.38771 0.16139 0.44995 0.0
C583 C 0.37376 0.17518 0.48897 0.0
H584 H 0.32878 0.23969 0.46488 0.0
H585 H 0.33605 0.21551 0.49399 0.0
H586 H 0.39231 0.26287 0.42268 0.0
H587 H 0.39951 0.23843 0.45162 0.0
H588 H 0.38899 0.28304 0.54894 0.0
H589 H 0.39395 0.25653 0.51814 0.0
H590 H 0.33712 0.22413 0.59317 0.0
H591 H 0.34152 0.19761 0.56226 0.0
H592 H 0.39764 0.12481 0.53932 0.0
H593 H 0.39997 0.15625 0.51278 0.0
H594 H 0.34083 0.11885 0.58469 0.0
H595 H 0.34294 0.15 0.55825 0.0
H596 H 0.33574 0.09819 0.45724 0.0
H597 H 0.34058 0.12903 0.48947 0.0
H598 H 0.39712 0.148 0.41518 0.0
H599 H 0.40203 0.17906 0.44746 0.0
N600 N 0.37371 0.19289 0.47676 0.0
N601 N 0.37066 0.19077 0.53196 0.0
C602 C 0.7787 0.12394 0.42631 0.0
C603 C 0.75515 0.11471 0.42729 0.0
C604 C 0.79341 0.14257 0.44371 0.0
C605 C 0.78481 0.15221 0.46247 0.0
C606 C 0.74646 0.12456 0.44556 0.0
C607 C 0.76123 0.14334 0.46292 0.0
C608 C 0.80091 0.17163 0.48104 0.0
C609 C 0.74594 0.14156 0.55554 0.0
C610 C 0.74184 0.11889 0.55523 0.0
C611 C 0.76377 0.15884 0.54014 0.0
C612 C 0.77734 0.15353 0.5237 0.0
C613 C 0.75521 0.11349 0.53849 0.0
C614 C 0.77284 0.13069 0.52279 0.0
C615 C 0.79735 0.17231 0.50943 0.0
C616 C 0.88318 0.26332 0.54669 0.0
C617 C 0.88688 0.25476 0.57049 0.0
C618 C 0.86563 0.24816 0.52858 0.0
C619 C 0.852 0.22417 0.53373 0.0
C620 C 0.87265 0.23106 0.57619 0.0
C621 C 0.8554 0.21593 0.55801 0.0
C622 C 0.8342 0.20717 0.51433 0.0
C623 C 0.89987 0.23976 0.46465 0.0
C624 C 0.89907 0.25096 0.44147 0.0
C625 C 0.88003 0.22573 0.47971 0.0
C626 C 0.85923 0.22294 0.47187 0.0
C627 C 0.87835 0.24829 0.43375 0.0
C628 C 0.85855 0.23426 0.44875 0.0
C629 C 0.83771 0.2065 0.48585 0.0
H630 H 0.78565 0.11653 0.41227 0.0
H631 H 0.81152 0.14918 0.44285 0.0
H632 H 0.7283 0.11766 0.4464 0.0
H633 H 0.75422 0.15089 0.47661 0.0
H634 H 0.73579 0.14602 0.56838 0.0
H635 H 0.76713 0.17642 0.54125 0.0
H636 H 0.75235 0.09611 0.5381 0.0
H637 H 0.78338 0.12634 0.5106 0.0
H638 H 0.89398 0.28161 0.54206 0.0
H639 H 0.86291 0.25515 0.5105 0.0
H640 H 0.87528 0.22418 0.59448 0.0
H641 H 0.84508 0.19759 0.56263 0.0
H642 H 0.91573 0.24155 0.47073 0.0
H643 H 0.88083 0.21666 0.49704 0.0
H644 H 0.87748 0.25677 0.41585 0.0
H645 H 0.84261 0.23205 0.44216 0.0
N646 N 0.82091 0.18882 0.47041 0.0
N647 N 0.81409 0.19003 0.52491 0.0
C648 C 0.95404 0.54621 0.1441 0.0
C649 C 0.96885 0.55534 0.12168 0.0
C650 C 0.95464 0.53004 0.16064 0.0
C651 C 0.97024 0.52307 0.15504 0.0
C652 C 0.9844 0.54843 0.11616 0.0
C653 C 0.98505 0.53241 0.13264 0.0
C654 C 0.97046 0.50492 0.17087 0.0
C655 C 0.99128 0.56424 0.23167 0.0
C656 C 0.97807 0.55845 0.25554 0.0
C657 C 0.98839 0.54674 0.21311 0.0
C658 C 0.97184 0.52322 0.21782 0.0
C659 C 0.96168 0.53501 0.26044 0.0
C660 C 0.9586 0.51752 0.24171 0.0
C661 C 0.97002 0.50434 0.19971 0.0
C662 C 0.99631 0.43641 0.22492 0.0
C663 C 0.98019 0.42316 0.24497 0.0
C664 C 0.99321 0.45121 0.20886 0.0
C665 C 0.97396 0.45294 0.21267 0.0
C666 C 0.96091 0.42481 0.24869 0.0
C667 C 0.95794 0.43978 0.23283 0.0
C668 C 0.97137 0.46974 0.19721 0.0
C669 C 0.96356 0.41461 0.13551 0.0
C670 C 0.97823 0.42355 0.11294 0.0
C671 C 0.96146 0.42971 0.15386 0.0
C672 C 0.97447 0.45396 0.15018 0.0
C673 C 0.99097 0.44766 0.10913 0.0
C674 C 0.98913 0.4627 0.12756 0.0
C675 C 0.97221 0.47056 0.16842 0.0
H676 H 0.94185 0.55133 0.14848 0.0
H677 H 0.94265 0.52266 0.17737 0.0
H678 H 0.9959 0.55531 0.0989 0.0
H679 H 0.99714 0.52724 0.12778 0.0
H680 H 0.00415 0.58226 0.22775 0.0
H681 H -0.00046 0.5516 0.19552 0.0
H682 H 0.95146 0.53028 0.27887 0.0
H683 H 0.94604 0.49949 0.24604 0.0
H684 H 0.01135 0.43543 0.22191 0.0
H685 H 0.00606 0.46162 0.19385 0.0
H686 H 0.94834 0.41472 0.26412 0.0
H687 H 0.94314 0.44112 0.23628 0.0
H688 H 0.95359 0.396 0.13867 0.0
H689 H 0.94944 0.42238 0.17056 0.0
H690 H 0.0024 0.45483 0.09183 0.0
H691 H -0.00076 0.48128 0.12412 0.0
N692 N 0.97166 0.48808 0.15653 0.0
N693 N 0.97022 0.4866 0.21168 0.0
C694 C 0.45353 0.40356 0.14393 0.0
C695 C 0.44892 0.41168 0.12041 0.0
C696 C 0.47105 0.41924 0.16177 0.0
C697 C 0.48369 0.44326 0.15657 0.0
C698 C 0.46226 0.43541 0.11458 0.0
C699 C 0.47947 0.45103 0.13246 0.0
C700 C 0.50117 0.46083 0.17578 0.0
C701 C 0.43545 0.4255 0.22521 0.0
C702 C 0.43722 0.41682 0.25006 0.0
C703 C 0.45501 0.43971 0.20979 0.0
C704 C 0.4765 0.44485 0.21866 0.0
C705 C 0.45864 0.42199 0.25894 0.0
C706 C 0.47811 0.43589 0.24338 0.0
C707 C 0.4977 0.46165 0.20428 0.0
C708 C 0.55471 0.54626 0.26179 0.0
C709 C 0.5784 0.55649 0.2603 0.0
C710 C 0.54029 0.52693 0.24509 0.0
C711 C 0.54936 0.51767 0.22646 0.0
C712 C 0.58757 0.54701 0.24222 0.0
C713 C 0.57311 0.52763 0.22546 0.0
C714 C 0.53364 0.49765 0.20839 0.0
C715 C 0.58647 0.5316 0.13225 0.0
C716 C 0.58708 0.55266 0.13167 0.0
C717 C 0.57051 0.51359 0.14865 0.0
C718 C 0.55555 0.51674 0.16525 0.0
C719 C 0.57244 0.55597 0.14871 0.0
C720 C 0.55683 0.53816 0.16547 0.0
C721 C 0.53698 0.49695 0.17999 0.0
H722 H 0.44336 0.38524 0.14865 0.0
H723 H 0.47441 0.41269 0.1798 0.0
H724 H 0.45889 0.44194 0.09652 0.0
H725 H 0.48903 0.46939 0.12781 0.0
H726 H 0.41904 0.42177 0.21816 0.0
H727 H 0.45339 0.44712 0.19136 0.0
H728 H 0.4603 0.41549 0.27813 0.0
H729 H 0.49453 0.43996 0.25086 0.0
H730 H 0.54744 0.55341 0.2757 0.0
H731 H 0.52204 0.5195 0.24631 0.0
H732 H 0.60586 0.55473 0.24098 0.0
H733 H 0.58048 0.52045 0.21178 0.0
H734 H 0.59768 0.52882 0.11919 0.0
H735 H 0.56958 0.49708 0.14806 0.0
H736 H 0.57273 0.57213 0.14847 0.0
H737 H 0.54516 0.54077 0.17782 0.0
N738 N 0.5207 0.47858 0.16485 0.0
N739 N 0.51417 0.47996 0.21939 0.0
C740 C 0.45424 0.03825 0.25122 0.0
C741 C 0.44496 0.01953 0.26903 0.0
C742 C 0.47114 0.0415 0.23247 0.0
C743 C 0.47861 0.02579 0.23108 0.0
C744 C 0.45281 0.00423 0.26811 0.0
C745 C 0.46951 0.00735 0.24932 0.0
C746 C 0.49655 0.02866 0.21176 0.0
C747 C 0.43832 0.0164 0.15841 0.0
C748 C 0.44417 0.03298 0.13831 0.0
C749 C 0.45533 0.01653 0.17358 0.0
C750 C 0.47846 0.03371 0.16952 0.0
C751 C 0.46721 0.05018 0.13424 0.0
C752 C 0.4842 0.05054 0.14973 0.0
C753 C 0.49685 0.03289 0.18358 0.0
C754 C 0.56278 0.00856 0.13913 0.0
C755 C 0.57401 0.0254 0.11923 0.0
C756 C 0.54893 0.01074 0.15849 0.0
C757 C 0.54639 0.03003 0.15853 0.0
C758 C 0.57156 0.04471 0.11912 0.0
C759 C 0.55771 0.04693 0.13859 0.0
C760 C 0.53061 0.03159 0.17803 0.0
C761 C 0.58702 0.03759 0.22938 0.0
C762 C 0.57958 0.01868 0.24653 0.0
C763 C 0.5711 0.04062 0.216 0.0
C764 C 0.5476 0.02471 0.21965 0.0
C765 C 0.55618 0.0029 0.25032 0.0
C766 C 0.54029 0.00599 0.23713 0.0
C767 C 0.53042 0.02775 0.2062 0.0
H768 H 0.44837 0.05026 0.25182 0.0
H769 H 0.47837 0.05624 0.21918 0.0
H770 H 0.44582 0.98972 0.28178 0.0
H771 H 0.47515 0.99514 0.24882 0.0
H772 H 0.42064 0.00282 0.16158 0.0
H773 H 0.45038 0.00272 0.1878 0.0
H774 H 0.47204 0.06297 0.11863 0.0
H775 H 0.50191 0.06374 0.1459 0.0
H776 H 0.56431 0.99343 0.13924 0.0
H777 H 0.53977 0.99702 0.173 0.0
H778 H 0.58002 0.05775 0.1037 0.0
H779 H 0.55572 0.06175 0.13801 0.0
H780 H 0.60508 0.04994 0.2264 0.0
H781 H 0.57712 0.05545 0.20306 0.0
H782 H 0.55025 0.98827 0.26358 0.0
H783 H 0.52226 0.99362 0.24034 0.0
N784 N 0.51336 0.02629 0.22183 0.0
N785 N 0.51397 0.03426 0.16788 0.0
C786 C 0.55752 0.99058 0.78586 0.0
C787 C 0.55447 0.97565 0.76352 0.0
C788 C 0.53894 0.98628 0.80201 0.0
C789 C 0.51702 0.96705 0.79599 0.0
C790 C 0.53252 0.95658 0.75723 0.0
C791 C 0.51383 0.95246 0.77323 0.0
C792 C 0.49746 0.96276 0.8131 0.0
C793 C 0.53887 0.94305 0.86139 0.0
C794 C 0.54956 0.95791 0.8842 0.0
C795 C 0.52171 0.94375 0.84756 0.0
C796 C 0.51512 0.95936 0.85636 0.0
C797 C 0.54272 0.97316 0.8933 0.0
C798 C 0.52552 0.97377 0.87959 0.0
C799 C 0.49733 0.96072 0.8417 0.0
C800 C 0.40773 0.95027 0.87608 0.0
C801 C 0.41585 0.96546 0.89908 0.0
C802 C 0.42312 0.94894 0.85829 0.0
C803 C 0.44676 0.96296 0.86321 0.0
C804 C 0.43936 0.97919 0.90417 0.0
C805 C 0.45468 0.97787 0.88647 0.0
C806 C 0.46355 0.96202 0.8449 0.0
C807 C 0.43106 0.9909 0.79362 0.0
C808 C 0.41778 0.97556 0.77216 0.0
C809 C 0.44562 0.98674 0.80833 0.0
C810 C 0.44713 0.96724 0.80172 0.0
C811 C 0.41926 0.95605 0.76557 0.0
C812 C 0.43404 0.95206 0.78008 0.0
C813 C 0.46339 0.96346 0.81619 0.0
H814 H 0.57434 0.00541 0.79091 0.0
H815 H 0.54166 0.99802 0.81918 0.0
H816 H 0.52991 0.94492 0.74001 0.0
H817 H 0.49699 0.93769 0.76815 0.0
H818 H 0.54392 0.93111 0.85425 0.0
H819 H 0.51356 0.93208 0.83005 0.0
H820 H 0.55081 0.98466 0.91096 0.0
H821 H 0.52063 0.98583 0.88683 0.0
H822 H 0.38959 0.93952 0.87198 0.0
H823 H 0.41654 0.93687 0.84086 0.0
H824 H 0.44585 0.99099 0.92186 0.0
H825 H 0.47279 0.98875 0.89078 0.0
H826 H 0.43018 0.00609 0.79886 0.0
H827 H 0.45596 0.99894 0.82459 0.0
H828 H 0.40914 0.94408 0.74904 0.0
H829 H 0.4352 0.93708 0.77452 0.0
N830 N 0.48036 0.96378 0.80135 0.0
N831 N 0.48053 0.96069 0.85653 0.0
C832 C 0.0015 0.56716 0.78016 0.0
C833 C 0.01441 0.5766 0.7564 0.0
C834 C 0.00667 0.5547 0.79769 0.0
C835 C 0.02493 0.55168 0.79175 0.0
C836 C 0.03271 0.57374 0.7505 0.0
C837 C 0.03783 0.56121 0.76796 0.0
C838 C 0.02922 0.53662 0.80858 0.0
C839 C 0.04404 0.59797 0.8633 0.0
C840 C 0.03055 0.59194 0.88695 0.0
C841 C 0.04418 0.58065 0.84698 0.0
C842 C 0.03058 0.55707 0.85395 0.0
C843 C 0.01727 0.56851 0.89416 0.0
C844 C 0.01734 0.55123 0.87784 0.0
C845 C 0.03076 0.5384 0.83742 0.0
C846 C 0.05215 0.46521 0.86406 0.0
C847 C 0.03679 0.45452 0.8857 0.0
C848 C 0.05116 0.48162 0.84846 0.0
C849 C 0.03487 0.48759 0.85441 0.0
C850 C 0.02096 0.46095 0.89207 0.0
C851 C 0.02011 0.47747 0.87667 0.0
C852 C 0.03301 0.50436 0.83772 0.0
C853 C 0.00979 0.44101 0.7825 0.0
C854 C 0.02234 0.44532 0.75826 0.0
C855 C 0.01306 0.45959 0.79942 0.0
C856 C 0.02923 0.48272 0.79255 0.0
C857 C 0.03848 0.46834 0.75132 0.0
C858 C 0.04184 0.48692 0.76831 0.0
C859 C 0.03141 0.50259 0.80892 0.0
H860 H 0.98725 0.56916 0.78488 0.0
H861 H 0.99603 0.54692 0.81546 0.0
H862 H 0.04278 0.5809 0.73218 0.0
H863 H 0.05177 0.5588 0.76279 0.0
H864 H 0.05453 0.61605 0.85763 0.0
H865 H 0.0551 0.58574 0.82914 0.0
H866 H 0.00684 0.56363 0.91243 0.0
H867 H 0.00689 0.53322 0.8838 0.0
H868 H 0.06463 0.46061 0.85906 0.0
H869 H 0.06306 0.48959 0.83174 0.0
H870 H 0.00908 0.45298 0.90882 0.0
H871 H 0.00754 0.48193 0.88176 0.0
H872 H 0.99714 0.42331 0.78798 0.0
H873 H 0.00249 0.45586 0.81743 0.0
H874 H 0.04821 0.4719 0.73258 0.0
H875 H 0.05413 0.50461 0.7624 0.0
N876 N 0.02975 0.51888 0.79553 0.0
N877 N 0.03248 0.52211 0.85083 0.0
C878 C 0.54899 0.59413 0.79184 0.0
C879 C 0.55953 0.5855 0.77475 0.0
C880 C 0.53009 0.57884 0.8076 0.0
C881 C 0.52164 0.55479 0.80648 0.0
C882 C 0.55111 0.56155 0.77358 0.0
C883 C 0.53222 0.5463 0.78921 0.0
C884 C 0.5012 0.53809 0.82214 0.0
C885 C 0.55445 0.58009 0.88684 0.0
C886 C 0.54869 0.59227 0.90564 0.0
C887 C 0.53829 0.56406 0.86808 0.0
C888 C 0.51617 0.56011 0.8677 0.0
C889 C 0.5268 0.58878 0.90492 0.0
C890 C 0.51058 0.57265 0.88621 0.0
C891 C 0.49819 0.54116 0.85025 0.0
C892 C 0.42383 0.44655 0.8816 0.0
C893 C 0.4114 0.45183 0.90011 0.0
C894 C 0.44006 0.46364 0.86462 0.0
C895 C 0.44392 0.48625 0.86562 0.0
C896 C 0.41499 0.4743 0.90102 0.0
C897 C 0.43131 0.49148 0.88401 0.0
C898 C 0.46244 0.50485 0.84927 0.0
C899 C 0.40973 0.45353 0.78966 0.0
C900 C 0.41734 0.44144 0.77351 0.0
C901 C 0.4253 0.47335 0.80509 0.0
C902 C 0.44866 0.48128 0.80455 0.0
C903 C 0.4407 0.44959 0.77254 0.0
C904 C 0.45626 0.46947 0.7878 0.0
C905 C 0.46538 0.50192 0.82112 0.0
H906 H 0.55529 0.61261 0.7928 0.0
H907 H 0.52189 0.58574 0.82029 0.0
H908 H 0.55908 0.55468 0.76041 0.0
H909 H 0.52592 0.52782 0.78791 0.0
H910 H 0.57123 0.58247 0.88731 0.0
H911 H 0.54282 0.55411 0.8546 0.0
H912 H 0.52209 0.59798 0.91941 0.0
H913 H 0.49354 0.56965 0.8865 0.0
H914 H 0.42137 0.42933 0.88083 0.0
H915 H 0.45006 0.45936 0.85126 0.0
H916 H 0.40556 0.47864 0.91532 0.0
H917 H 0.43424 0.50888 0.88537 0.0
H918 H 0.39175 0.4475 0.79044 0.0
H919 H 0.41911 0.48247 0.81741 0.0
H920 H 0.44682 0.44047 0.76009 0.0
H921 H 0.47422 0.47537 0.78697 0.0
N922 N 0.48469 0.51858 0.80871 0.0
N923 N 0.47888 0.52444 0.86269 0.0
C924 C 0.64194 0.75734 0.46385 0.0
C925 C 0.62223 0.74287 0.44824 0.0
C926 C 0.64216 0.77274 0.48373 0.0
C927 C 0.6227 0.774 0.48807 0.0
C928 C 0.60244 0.74334 0.45341 0.0
C929 C 0.6028 0.75913 0.47292 0.0
C930 C 0.6241 0.7927 0.50592 0.0
C931 C 0.6223 0.74007 0.56125 0.0
C932 C 0.64108 0.74909 0.57891 0.0
C933 C 0.61874 0.75516 0.54639 0.0
C934 C 0.63418 0.77944 0.54864 0.0
C935 C 0.65633 0.77325 0.58148 0.0
C936 C 0.6529 0.7883 0.56648 0.0
C937 C 0.63063 0.79595 0.53369 0.0
C938 C 0.62915 0.88227 0.56648 0.0
C939 C 0.65027 0.89518 0.57996 0.0
C940 C 0.62305 0.86145 0.55237 0.0
C941 C 0.63799 0.8533 0.55168 0.0
C942 C 0.6649 0.8867 0.57993 0.0
C943 C 0.65869 0.86577 0.56609 0.0
C944 C 0.63262 0.83226 0.53527 0.0
C945 C 0.64932 0.88748 0.47481 0.0
C946 C 0.63193 0.88208 0.45617 0.0
C947 C 0.64732 0.87046 0.49197 0.0
C948 C 0.62765 0.84787 0.49115 0.0
C949 C 0.61219 0.85964 0.45531 0.0
C950 C 0.61011 0.8426 0.47265 0.0
C951 C 0.62649 0.8292 0.50738 0.0
H952 H 0.65734 0.75714 0.46009 0.0
H953 H 0.65779 0.78436 0.4949 0.0
H954 H 0.5871 0.73224 0.44152 0.0
H955 H 0.58773 0.76006 0.47585 0.0
H956 H 0.61029 0.72142 0.55929 0.0
H957 H 0.60374 0.74785 0.53356 0.0
H958 H 0.67087 0.78042 0.5951 0.0
H959 H 0.66497 0.80693 0.56875 0.0
H960 H 0.61763 0.88855 0.56648 0.0
H961 H 0.60684 0.85188 0.54172 0.0
H962 H 0.68123 0.89646 0.59031 0.0
H963 H 0.67041 0.85972 0.56586 0.0
H964 H 0.66479 0.90466 0.4754 0.0
H965 H 0.66153 0.87478 0.50516 0.0
H966 H 0.59874 0.8552 0.44077 0.0
H967 H 0.59498 0.8252 0.47134 0.0
N968 N 0.62225 0.80942 0.49387 0.0
N969 N 0.63461 0.81563 0.54727 0.0
C970 C 0.1067 0.74498 0.48037 0.0
C971 C 0.09988 0.75271 0.45839 0.0
C972 C 0.12358 0.76118 0.49852 0.0
C973 C 0.13354 0.78526 0.49507 0.0
C974 C 0.1097 0.77667 0.45508 0.0
C975 C 0.1264 0.79278 0.47319 0.0
C976 C 0.15257 0.80298 0.51253 0.0
C977 C 0.09341 0.76621 0.57127 0.0
C978 C 0.09753 0.75629 0.59339 0.0
C979 C 0.11121 0.78076 0.55374 0.0
C980 C 0.13332 0.78535 0.55791 0.0
C981 C 0.11954 0.76074 0.59754 0.0
C982 C 0.13732 0.77525 0.58 0.0
C983 C 0.15283 0.80255 0.54137 0.0
C984 C 0.22956 0.89874 0.57237 0.0
C985 C 0.23805 0.89377 0.59521 0.0
C986 C 0.21403 0.88072 0.55483 0.0
C987 C 0.20714 0.85747 0.5595 0.0
C988 C 0.23111 0.8706 0.60009 0.0
C989 C 0.21573 0.85258 0.58237 0.0
C990 C 0.18942 0.83806 0.54224 0.0
C991 C 0.24815 0.88142 0.48536 0.0
C992 C 0.24266 0.89185 0.4651 0.0
C993 C 0.23087 0.86399 0.50129 0.0
C994 C 0.20793 0.85683 0.4971 0.0
C995 C 0.21976 0.88445 0.46067 0.0
C996 C 0.20254 0.867 0.47643 0.0
C997 C 0.18926 0.83832 0.51342 0.0
H998 H 0.09926 0.7265 0.48314 0.0
H999 H 0.12919 0.75491 0.51478 0.0
H1000 H 0.10458 0.78291 0.43825 0.0
H1001 H 0.13388 0.81122 0.46999 0.0
H1002 H 0.07652 0.76305 0.56794 0.0
H1003 H 0.10781 0.78895 0.53745 0.0
H1004 H 0.12299 0.75327 0.6146 0.0
H1005 H 0.15429 0.77882 0.58387 0.0
H1006 H 0.23458 0.91652 0.56851 0.0
H1007 H 0.20697 0.88494 0.53804 0.0
H1008 H 0.23741 0.86649 0.61777 0.0
H1009 H 0.21037 0.83477 0.58665 0.0
H1010 H 0.26574 0.8868 0.48882 0.0
H1011 H 0.23539 0.85602 0.51671 0.0
H1012 H 0.21525 0.89224 0.445 0.0
H1013 H 0.18498 0.86164 0.47269 0.0
N1014 N 0.1708 0.82087 0.49981 0.0
N1015 N 0.1713 0.82007 0.55501 0.0
C1016 C 0.26566 0.38625 0.47205 0.0
C1017 C 0.25761 0.37253 0.44787 0.0
C1018 C 0.25053 0.3885 0.48938 0.0
C1019 C 0.22711 0.37662 0.48298 0.0
C1020 C 0.2344 0.36113 0.44123 0.0
C1021 C 0.21932 0.36316 0.45858 0.0
C1022 C 0.21041 0.37848 0.50053 0.0
C1023 C 0.23767 0.34667 0.55662 0.0
C1024 C 0.24979 0.36132 0.57911 0.0
C1025 C 0.2252 0.3522 0.53974 0.0
C1026 C 0.22463 0.37241 0.54519 0.0
C1027 C 0.24945 0.38166 0.58435 0.0
C1028 C 0.23674 0.38702 0.56768 0.0
C1029 C 0.20958 0.37705 0.52931 0.0
C1030 C 0.11512 0.35344 0.55474 0.0
C1031 C 0.11863 0.36536 0.57994 0.0
C1032 C 0.13368 0.35789 0.53843 0.0
C1033 C 0.15606 0.37486 0.54665 0.0
C1034 C 0.14095 0.38198 0.58853 0.0
C1035 C 0.15955 0.38669 0.57197 0.0
C1036 C 0.17587 0.37864 0.5302 0.0
C1037 C 0.1351 0.39639 0.4772 0.0
C1038 C 0.12443 0.38005 0.45553 0.0
C1039 C 0.15256 0.39703 0.49206 0.0
C1040 C 0.1596 0.38142 0.48525 0.0
C1041 C 0.13202 0.36506 0.44821 0.0
C1042 C 0.14957 0.36585 0.46281 0.0
C1043 C 0.17701 0.38064 0.50151 0.0
H1044 H 0.28356 0.39515 0.47744 0.0
H1045 H 0.25718 0.39961 0.50758 0.0
H1046 H 0.2279 0.35041 0.42269 0.0
H1047 H 0.20142 0.35391 0.45302 0.0
H1048 H 0.23767 0.33085 0.55238 0.0
H1049 H 0.21553 0.3404 0.52287 0.0
H1050 H 0.25868 0.39312 0.60164 0.0
H1051 H 0.23622 0.40249 0.57243 0.0
H1052 H 0.09802 0.34035 0.54798 0.0
H1053 H 0.13048 0.34764 0.51969 0.0
H1054 H 0.14393 0.39116 0.60807 0.0
H1055 H 0.17666 0.39948 0.579 0.0
H1056 H 0.12957 0.40825 0.48292 0.0
H1057 H 0.16037 0.40947 0.50901 0.0
H1058 H 0.12407 0.35245 0.43143 0.0
H1059 H 0.15481 0.35376 0.45711 0.0
N1060 N 0.19408 0.38028 0.48787 0.0
N1061 N 0.1924 0.37727 0.54299 0.0
C1062 C 0.96691 0.38015 0.05425 0.0
C1063 C 0.98933 0.38486 0.05001 0.0
C1064 C 0.0022 0.4098 0.09146 0.0
C1065 C 0.98088 0.40806 0.09312 0.0
N1066 N 0.94356 0.39379 0.07408 0.0
N1067 N 0.02947 0.4079 0.06183 0.0
C1068 C 0.96329 0.39371 0.07408 0.0
C1069 C 0.00731 0.40054 0.068 0.0
N1070 N 0.94899 0.36229 0.03994 0.0
N1071 N 0.01754 0.42022 0.11242 0.0
H1072 H 0.03433 0.40272 0.04406 0.0
H1073 H 0.04331 0.42113 0.07289 0.0
H1074 H 0.01421 0.42699 0.1301 0.0
H1075 H 0.03246 0.41997 0.11347 0.0
H1076 H 0.93201 0.35663 0.04412 0.0
H1077 H 0.95091 0.3516 0.02574 0.0
H1078 H 0.9313 0.38572 0.05871 0.0
H1079 H 0.94022 0.40348 0.08824 0.0
C1080 C 0.63574 0.60953 0.10323 0.0
C1081 C 0.62753 0.60789 0.07639 0.0
C1082 C 0.59516 0.56831 0.08439 0.0
C1083 C 0.60206 0.57091 0.11213 0.0
N1084 N 0.6283 0.5936 0.14864 0.0
N1085 N 0.5993 0.58671 0.04117 0.0
C1086 C 0.62229 0.59138 0.12171 0.0
C1087 C 0.60738 0.5874 0.06675 0.0
N1088 N 0.65664 0.62827 0.1107 0.0
N1089 N 0.57681 0.5476 0.07499 0.0
H1090 H 0.60817 0.59996 0.02727 0.0
H1091 H 0.58326 0.5737 0.03404 0.0
H1092 H 0.56645 0.53371 0.08758 0.0
H1093 H 0.57251 0.54351 0.05443 0.0
H1094 H 0.66475 0.62973 0.12904 0.0
H1095 H 0.66682 0.64178 0.09752 0.0
H1096 H 0.64122 0.60902 0.15785 0.0
H1097 H 0.61958 0.58014 0.16234 0.0
C1098 C 0.40527 0.0478 0.10167 0.0
C1099 C 0.3922 0.02729 0.08513 0.0
C1100 C 0.41463 0.01176 0.10165 0.0
C1101 C 0.42627 0.03119 0.12009 0.0
N1102 N 0.42982 0.06567 0.14134 0.0
N1103 N 0.38026 0.98709 0.07544 0.0
C1104 C 0.42077 0.04866 0.12119 0.0
C1105 C 0.39567 0.00848 0.08684 0.0
N1106 N 0.40356 0.06675 0.09804 0.0
N1107 N 0.42213 0.99682 0.09749 0.0
H1108 H 0.3654 0.98351 0.06567 0.0
H1109 H 0.38088 0.97226 0.0784 0.0
H1110 H 0.43634 0.99885 0.10742 0.0
H1111 H 0.41564 0.98381 0.08216 0.0
H1112 H 0.41441 0.08299 0.10746 0.0
H1113 H 0.39256 0.06684 0.0838 0.0
H1114 H 0.42464 0.07745 0.14488 0.0
H1115 H 0.44108 0.06673 0.15608 0.0
C1116 C 0.37723 0.95623 0.95999 0.0
C1117 C 0.37821 0.97772 0.96043 0.0
C1118 C 0.39769 0.98703 0.91611 0.0
C1119 C 0.40005 0.96758 0.91805 0.0
N1120 N 0.39313 0.93393 0.94211 0.0
N1121 N 0.39185 0.01514 0.94044 0.0
C1122 C 0.38989 0.95206 0.93993 0.0
C1123 C 0.38877 0.99343 0.93869 0.0
N1124 N 0.36385 0.93967 0.97845 0.0
N1125 N 0.40413 -0.00057 0.89269 0.0
H1126 H 0.38638 0.02105 0.95697 0.0
H1127 H 0.40167 0.02817 0.92663 0.0
H1128 H 0.41091 0.99524 0.87588 0.0
H1129 H 0.40072 0.01236 0.88894 0.0
H1130 H 0.36069 0.9228 0.97762 0.0
H1131 H 0.35411 0.9421 0.99314 0.0
H1132 H 0.38854 0.9237 0.95929 0.0
H1133 H 0.4017 0.92994 0.92734 0.0
C1134 C 0.03779 0.42255 0.94719 0.0
C1135 C 0.02976 0.39994 0.93551 0.0
C1136 C 0.02828 0.41366 0.89031 0.0
C1137 C 0.03688 0.43635 0.90187 0.0
N1138 N 0.05565 0.46386 0.93935 0.0
N1139 N 0.02357 0.37581 0.89522 0.0
C1140 C 0.04361 0.44126 0.92969 0.0
C1141 C 0.02704 0.39613 0.90677 0.0
N1142 N 0.03836 0.42595 0.97493 0.0
N1143 N 0.02015 0.40846 0.86411 0.0
H1144 H 0.02309 0.36285 0.90671 0.0
H1145 H 0.02356 0.37288 0.87418 0.0
H1146 H 0.02062 0.42072 0.85133 0.0
H1147 H 0.01128 0.39155 0.85573 0.0
H1148 H 0.04139 0.44139 0.98432 0.0
H1149 H 0.03398 0.41287 0.98876 0.0
H1150 H 0.06298 0.46872 0.95874 0.0
H1151 H 0.06023 0.47796 0.92697 0.0
C1152 C 0.57804 0.61384 0.97494 0.0
C1153 C 0.59864 0.63439 0.96739 0.0
C1154 C 0.58449 0.62942 0.92046 0.0
C1155 C 0.56522 0.60745 0.92727 0.0
N1156 N 0.54479 0.57713 0.9599 0.0
N1157 N 0.62237 0.66162 0.93311 0.0
C1158 C 0.56216 0.5993 0.95429 0.0
C1159 C 0.6021 0.64219 0.94017 0.0
N1160 N 0.57366 0.60812 0.00183 0.0
N1161 N 0.58562 0.63826 0.89537 0.0
H1162 H 0.63502 0.67225 0.94737 0.0
H1163 H 0.62715 0.66664 0.91303 0.0
H1164 H 0.57298 0.62931 0.88051 0.0
H1165 H 0.59804 0.65514 0.88997 0.0
H1166 H 0.55791 0.59482 0.00892 0.0
H1167 H 0.58515 0.61781 0.01754 0.0
H1168 H 0.54328 0.56915 0.97829 0.0
H1169 H 0.53277 0.56584 0.94539 0.0
C1170 C 0.01433 0.63416 0.91598 0.0
C1171 C 0.02534 0.63982 0.94177 0.0
C1172 C 0.04367 0.61827 0.92871 0.0
C1173 C 0.03026 0.61006 0.90456 0.0
N1174 N 0.00172 0.60869 0.87551 0.0
N1175 N 0.04926 0.63626 0.97398 0.0
C1176 C 0.0154 0.61774 0.89814 0.0
C1177 C 0.03991 0.63183 0.94841 0.0
N1178 N 0.00333 0.64496 0.90838 0.0
N1179 N 0.06014 0.61325 0.93262 0.0
H1180 H 0.04722 0.64647 0.98879 0.0
H1181 H 0.05777 0.62861 0.98121 0.0
H1182 H 0.06314 0.60314 0.9187 0.0
H1183 H 0.07207 0.62063 0.94839 0.0
H1184 H 0.99675 0.64332 0.88889 0.0
H1185 H 0.00262 0.65735 0.92089 0.0
H1186 H 0.98862 0.61145 0.87142 0.0
H1187 H 0.00247 0.5971 0.86157 0.0
C1188 C 0.36134 0.39518 0.92612 0.0
C1189 C 0.36833 0.39604 0.95345 0.0
C1190 C 0.40249 0.43472 0.9467 0.0
C1191 C 0.39547 0.43389 0.91938 0.0
N1192 N 0.36642 0.41611 0.88459 0.0
N1193 N 0.39272 0.41819 0.99171 0.0
C1194 C 0.37426 0.41495 0.90958 0.0
C1195 C 0.3879 0.41643 0.96443 0.0
N1196 N 0.34262 0.37524 0.91586 0.0
N1197 N 0.42371 0.45228 0.9552 0.0
H1198 H 0.38303 0.40485 0.00522 0.0
H1199 H 0.40525 0.43355 0.00149 0.0
H1200 H 0.43486 0.46613 0.94297 0.0
H1201 H 0.43102 0.45236 0.97364 0.0
H1202 H 0.33817 0.37231 0.89527 0.0
H1203 H 0.33195 0.361 0.9279 0.0
H1204 H 0.35018 0.40394 0.87717 0.0
H1205 H 0.37556 0.43039 0.87205 0.0
C1206 C 0.60906 0.97852 0.90902 0.0
C1207 C 0.60409 0.96419 0.93192 0.0
C1208 C 0.56316 0.94382 0.92173 0.0
C1209 C 0.56822 0.95794 0.8987 0.0
N1210 N 0.59568 0.98459 0.86648 0.0
N1211 N 0.57738 0.92995 0.95652 0.0
C1212 C 0.59112 0.97386 0.89099 0.0
C1213 C 0.58138 0.94579 0.93715 0.0
N1214 N 0.63053 0.9976 0.90551 0.0
N1215 N 0.54095 0.9291 0.92932 0.0
H1216 H 0.59045 0.93079 0.96787 0.0
H1217 H 0.56152 0.91487 0.95963 0.0
H1218 H 0.52717 0.92651 0.91783 0.0
H1219 H 0.53616 0.92045 0.94771 0.0
H1220 H 0.63445 0.01023 0.89118 0.0
H1221 H 0.6442 0.00202 0.91834 0.0
H1222 H 0.61205 0.99444 0.85836 0.0
H1223 H 0.5829 0.98195 0.85306 0.0
C1224 C 0.62 0.01847 0.08541 0.0
C1225 C 0.60983 0.00877 0.05952 0.0
C1226 C 0.57707 0.01196 0.07189 0.0
C1227 C 0.58731 0.02187 0.09766 0.0
N1228 N 0.62025 0.03917 0.12709 0.0
N1229 N 0.58208 0.00197 0.02538 0.0
C1230 C 0.60941 0.02666 0.10379 0.0
C1231 C 0.58939 0.0073 0.05192 0.0
N1232 N 0.63908 0.01871 0.09299 0.0
N1233 N 0.55518 0.00603 0.06692 0.0
H1234 H 0.59097 0.99888 0.01011 0.0
H1235 H 0.56856 0.00287 0.01791 0.0
H1236 H 0.54568 0.00953 0.08081 0.0
H1237 H 0.54582 0.99617 0.04985 0.0
H1238 H 0.64573 0.0229 0.11272 0.0
H1239 H 0.64754 0.01327 0.07993 0.0
H1240 H 0.63723 0.04524 0.1315 0.0
H1241 H 0.61281 0.04521 0.14103 0.0
C1242 C 0.96039 0.57861 0.05688 0.0
C1243 C 0.9753 0.60293 0.06184 0.0
C1244 C 0.98237 0.59618 0.10849 0.0
C1245 C 0.96814 0.57182 0.10315 0.0
N1246 N 0.9395 0.53978 0.07547 0.0
N1247 N 0.99654 0.63544 0.09344 0.0
C1248 C 0.95573 0.56303 0.07834 0.0
C1249 C 0.98488 0.6119 0.08813 0.0
N1250 N 0.95136 0.57045 0.03134 0.0
N1251 N 0.99432 0.60416 0.13249 0.0
H1252 H -0.0009 0.64738 0.07874 0.0
H1253 H 0.00219 0.6431 0.11279 0.0
H1254 H 0.99218 0.59314 0.14821 0.0
H1255 H 0.00709 0.62148 0.13648 0.0
H1256 H 0.94259 0.55291 0.02527 0.0
H1257 H 0.95348 0.58148 0.01563 0.0
H1258 H 0.92838 0.53242 0.05893 0.0
H1259 H 0.93588 0.52799 0.09085 0.0
C1260 C 0.41166 0.36733 0.06471 0.0
C1261 C 0.39504 0.37341 0.06197 0.0
C1262 C 0.41043 0.3992 0.10256 0.0
C1263 C 0.42912 0.39606 0.10252 0.0
N1264 N 0.44893 0.37875 0.08217 0.0
N1265 N 0.38133 0.39865 0.07544 0.0
C1266 C 0.43008 0.38042 0.08334 0.0
C1267 C 0.39496 0.39012 0.08029 0.0
N1268 N 0.4095 0.34867 0.05011 0.0
N1269 N 0.40748 0.41089 0.12394 0.0
H1270 H 0.37062 0.39365 0.05851 0.0
H1271 H 0.38246 0.41261 0.08664 0.0
H1272 H 0.41849 0.41765 0.14073 0.0
H1273 H 0.39293 0.41174 0.12633 0.0
H1274 H 0.41986 0.34205 0.0532 0.0
H1275 H 0.39594 0.33837 0.03675 0.0
H1276 H 0.45174 0.36968 0.06658 0.0
H1277 H 0.46258 0.38779 0.09576 0.0
C1278 C 0.63104 0.72455 0.37714 0.0
C1279 C 0.63055 0.70389 0.38301 0.0
C1280 C 0.62227 0.70746 0.43122 0.0
C1281 C 0.62299 0.72826 0.42544 0.0
N1282 N 0.62439 0.75489 0.39272 0.0
N1283 N 0.62127 0.67292 0.41352 0.0
C1284 C 0.62605 0.73615 0.39827 0.0
C1285 C 0.62482 0.69451 0.40948 0.0
N1286 N 0.63761 0.73385 0.3518 0.0
N1287 N 0.61966 0.70044 0.45762 0.0
H1288 H 0.62277 0.66296 0.39786 0.0
H1289 H 0.61505 0.66398 0.43161 0.0
H1290 H 0.61639 0.70872 0.47379 0.0
H1291 H 0.62175 0.68714 0.46385 0.0
H1292 H 0.64135 0.75041 0.34712 0.0
H1293 H 0.64064 0.72556 0.33548 0.0
H1294 H 0.6236 0.75977 0.37305 0.0
H1295 H 0.62233 0.76489 0.40778 0.0
C1296 C 0.2744 0.92414 0.40183 0.0
C1297 C 0.28901 0.94711 0.41287 0.0
C1298 C 0.27476 0.93342 0.45895 0.0
C1299 C 0.26064 0.91042 0.44798 0.0
N1300 N 0.2515 0.88277 0.41059 0.0
N1301 N 0.30773 0.97221 0.45231 0.0
C1302 C 0.262 0.90544 0.41991 0.0
C1303 C 0.29065 0.95129 0.4416 0.0
N1304 N 0.27109 0.92027 0.37423 0.0
N1305 N 0.27226 0.93846 0.48558 0.0
H1306 H 0.32004 0.98545 0.44017 0.0
H1307 H 0.31111 0.97552 0.47317 0.0
H1308 H 0.26091 0.92586 0.49904 0.0
H1309 H 0.28019 0.95541 0.49377 0.0
H1310 H 0.25855 0.90438 0.36543 0.0
H1311 H 0.27945 0.93331 0.36002 0.0
H1312 H 0.25376 0.87798 0.39091 0.0
H1313 H 0.24231 0.86868 0.42339 0.0
C1314 C 0.08805 0.37521 0.39582 0.0
C1315 C 0.0663 0.36562 0.40846 0.0
C1316 C 0.08317 0.36788 0.45297 0.0
C1317 C 0.10494 0.37797 0.44045 0.0
N1318 N 0.12913 0.39727 0.40195 0.0
N1319 N 0.04462 0.35964 0.4498 0.0
C1320 C 0.1077 0.3837 0.4125 0.0
C1321 C 0.06436 0.36417 0.43733 0.0
N1322 N 0.08993 0.37479 0.36799 0.0
N1323 N 0.08012 0.36065 0.4793 0.0
H1324 H 0.03081 0.35765 0.43893 0.0
H1325 H 0.04291 0.36043 0.47093 0.0
H1326 H 0.09337 0.36286 0.49152 0.0
H1327 H 0.0641 0.35076 0.48831 0.0
H1328 H 0.10502 0.37896 0.358 0.0
H1329 H 0.07615 0.36845 0.35472 0.0
H1330 H 0.13223 0.40391 0.38239 0.0
H1331 H 0.14385 0.40382 0.41376 0.0
C1332 C 0.05116 0.32852 0.27384 0.0
C1333 C 0.03957 0.31334 0.29579 0.0
C1334 C 0.04792 0.28491 0.2759 0.0
C1335 C 0.05932 0.30003 0.25398 0.0
N1336 N 0.06649 0.33279 0.22797 0.0
N1337 N 0.02189 0.27496 0.3142 0.0
C1338 C 0.05902 0.32065 0.25155 0.0
C1339 C 0.03634 0.29081 0.29568 0.0
N1340 N 0.05624 0.35102 0.27515 0.0
N1341 N 0.04901 0.26546 0.27842 0.0
H1342 H 0.0129 0.27868 0.32866 0.0
H1343 H 0.01716 0.25755 0.31363 0.0
H1344 H 0.05667 0.26021 0.26379 0.0
H1345 H 0.04347 0.25527 0.29568 0.0
H1346 H 0.06692 0.36354 0.26123 0.0
H1347 H 0.05157 0.35797 0.2914 0.0
H1348 H 0.06463 0.3467 0.22385 0.0
H1349 H 0.07254 0.32749 0.21138 0.0
C1350 C 0.69092 0.75437 0.28572 0.0
C1351 C 0.68895 0.73358 0.27511 0.0
C1352 C 0.69737 0.749 0.22889 0.0
C1353 C 0.69891 0.76963 0.23936 0.0
N1354 N 0.70062 0.79384 0.27783 0.0
N1355 N 0.69452 0.71251 0.23847 0.0
C1356 C 0.69695 0.77296 0.26787 0.0
C1357 C 0.69346 0.73134 0.2472 0.0
N1358 N 0.6857 0.75578 0.31253 0.0
N1359 N 0.69916 0.74617 0.20135 0.0
H1360 H 0.69193 0.69945 0.25155 0.0
H1361 H 0.6997 0.71059 0.219 0.0
H1362 H 0.70344 0.75932 0.18757 0.0
H1363 H 0.69551 0.73057 0.19184 0.0
H1364 H 0.68381 0.76902 0.32086 0.0
H1365 H 0.682 0.74295 0.3265 0.0
H1366 H 0.7023 0.79854 0.29851 0.0
H1367 H 0.70337 0.80728 0.26538 0.0
C1368 C 0.24873 0.96506 0.29209 0.0
C1369 C 0.26756 0.96264 0.2968 0.0
C1370 C 0.25839 0.93834 0.25501 0.0
C1371 C 0.2377 0.93774 0.2528 0.0
N1372 N 0.21192 0.94898 0.27017 0.0
N1373 N 0.28797 0.94339 0.28529 0.0
C1374 C 0.23258 0.95086 0.27145 0.0
C1375 C 0.27198 0.94854 0.27878 0.0
N1376 N 0.24658 0.98127 0.30695 0.0
N1377 N 0.26497 0.92904 0.23436 0.0
H1378 H 0.29754 0.94928 0.30324 0.0
H1379 H 0.29007 0.93121 0.27426 0.0
H1380 H 0.25532 0.92142 0.21662 0.0
H1381 H 0.28097 0.93099 0.23362 0.0
H1382 H 0.23447 0.98544 0.30268 0.0
H1383 H 0.25826 0.99211 0.32201 0.0
H1384 H 0.20612 0.95592 0.28515 0.0
H1385 H 0.19989 0.93915 0.25498 0.0
C1386 C 0.70931 0.95725 0.30002 0.0
C1387 C 0.70142 0.97191 0.29271 0.0
C1388 C 0.69783 0.9584 0.2449 0.0
C1389 C 0.70669 0.94455 0.25203 0.0
N1390 N 0.72643 0.93551 0.28465 0.0
N1391 N 0.69412 0.99118 0.25752 0.0
C1392 C 0.71428 0.94556 0.27907 0.0
C1393 C 0.69755 0.97397 0.26488 0.0
N1394 N 0.71073 0.95328 0.32689 0.0
N1395 N 0.68867 0.9559 0.21955 0.0
H1396 H 0.69471 0.0034 0.27162 0.0
H1397 H 0.6932 0.99488 0.23727 0.0
H1398 H 0.68839 0.94458 0.20433 0.0
H1399 H 0.67968 0.96363 0.21433 0.0
H1400 H 0.71376 0.9406 0.33319 0.0
H1401 H 0.70692 0.96113 0.343 0.0
H1402 H 0.73428 0.93761 0.30341 0.0
H1403 H 0.73057 0.92701 0.26967 0.0
C1404 C 0.0436 0.74821 0.28505 0.0
C1405 C 0.03115 0.7247 0.27496 0.0
C1406 C 0.04695 0.73749 0.22917 0.0
C1407 C 0.0591 0.76094 0.23921 0.0
N1408 N 0.06392 0.78916 0.27409 0.0
N1409 N 0.01562 0.69787 0.2362 0.0
C1410 C 0.05563 0.76644 0.26631 0.0
C1411 C 0.0311 0.71965 0.24657 0.0
N1412 N 0.04539 0.7532 0.31253 0.0
N1413 N 0.05137 0.73206 0.20361 0.0
H1414 H 0.00334 0.6846 0.24832 0.0
H1415 H 0.01337 0.69373 0.21533 0.0
H1416 H 0.06276 0.7446 0.19012 0.0
H1417 H 0.04499 0.715 0.1965 0.0
H1418 H 0.05652 0.76981 0.32093 0.0
H1419 H 0.0373 0.7406 0.32727 0.0
H1420 H 0.06006 0.7941 0.29278 0.0
H1421 H 0.07276 0.80287 0.26071 0.0
C1422 C 0.24687 0.3041 0.29194 0.0
C1423 C 0.26548 0.30401 0.27929 0.0
C1424 C 0.24589 0.29347 0.23497 0.0
C1425 C 0.22739 0.29379 0.24755 0.0
N1426 N 0.20805 0.29522 0.28838 0.0
N1427 N 0.2809 0.29379 0.24078 0.0
C1428 C 0.22712 0.2976 0.27622 0.0
C1429 C 0.26441 0.29721 0.25136 0.0
N1430 N 0.24863 0.31183 0.31852 0.0
N1431 N 0.24596 0.29016 0.20725 0.0
H1432 H 0.29449 0.2961 0.25245 0.0
H1433 H 0.28017 0.28676 0.2213 0.0
H1434 H 0.23209 0.28595 0.19482 0.0
H1435 H 0.26009 0.29266 0.19628 0.0
H1436 H 0.23712 0.3154 0.32787 0.0
H1437 H 0.26238 0.31607 0.33108 0.0
H1438 H 0.20564 0.29493 0.30944 0.0
H1439 H 0.19376 0.29191 0.27745 0.0
C1440 C 0.30077 0.38125 0.39244 0.0
C1441 C 0.29462 0.35777 0.38796 0.0
C1442 C 0.26961 0.34631 0.42799 0.0
C1443 C 0.27286 0.3688 0.42968 0.0
N1444 N 0.28995 0.40744 0.41203 0.0
N1445 N 0.26942 0.31698 0.39842 0.0
C1446 C 0.28817 0.38633 0.41164 0.0
C1447 C 0.2782 0.34001 0.40507 0.0
N1448 N 0.31895 0.39873 0.37884 0.0
N1449 N 0.25822 0.33092 0.44833 0.0
H1450 H 0.27393 0.31121 0.38085 0.0
H1451 H 0.25573 0.30344 0.40874 0.0
H1452 H 0.25181 0.33509 0.46555 0.0
H1453 H 0.25727 0.31507 0.44946 0.0
H1454 H 0.32559 0.41637 0.38319 0.0
H1455 H 0.32877 0.39564 0.365 0.0
H1456 H 0.29881 0.4199 0.39729 0.0
H1457 H 0.28122 0.41189 0.42602 0.0
C1458 C 0.6497 0.91738 0.39166 0.0
C1459 C 0.64751 0.93627 0.40056 0.0
C1460 C 0.63061 0.91698 0.44369 0.0
C1461 C 0.63545 0.89962 0.43613 0.0
N1462 N 0.65104 0.88376 0.4041 0.0
N1463 N 0.63736 0.95532 0.43528 0.0
C1464 C 0.64523 0.89983 0.41033 0.0
C1465 C 0.6381 0.93631 0.42654 0.0
N1466 N 0.65556 0.91601 0.36513 0.0
N1467 N 0.61874 0.91483 0.46719 0.0
H1468 H 0.64236 0.9696 0.42308 0.0
H1469 H 0.63319 0.95769 0.45514 0.0
H1470 H 0.61337 0.90105 0.48037 0.0
H1471 H 0.61267 0.92558 0.47264 0.0
H1472 H 0.65524 0.90155 0.35654 0.0
H1473 H 0.65883 0.92853 0.35085 0.0
H1474 H 0.66077 0.88471 0.38715 0.0
H1475 H 0.64742 0.87017 0.41686 0.0
C1476 C 0.07241 0.71125 0.39679 0.0
C1477 C 0.05241 0.71202 0.3942 0.0
C1478 C 0.06083 0.73346 0.43817 0.0
C1479 C 0.08255 0.73606 0.43831 0.0
N1480 N 0.11018 0.72921 0.41658 0.0
N1481 N 0.02911 0.72686 0.4107 0.0
C1482 C 0.08862 0.72525 0.41744 0.0
C1483 C 0.0468 0.72365 0.4146 0.0
N1484 N 0.07564 0.69671 0.37993 0.0
N1485 N 0.05365 0.74041 0.46062 0.0
H1486 H 0.01889 0.72096 0.39327 0.0
H1487 H 0.02591 0.73739 0.42358 0.0
H1488 H 0.0636 0.74766 0.47823 0.0
H1489 H 0.03709 0.73686 0.46281 0.0
H1490 H 0.0888 0.69372 0.38254 0.0
H1491 H 0.06385 0.68583 0.36498 0.0
H1492 H 0.11639 0.72406 0.40009 0.0
H1493 H 0.12248 0.73913 0.43148 0.0
C1494 C 0.29774 0.03061 0.75021 0.0
C1495 C 0.30505 0.04009 0.72393 0.0
C1496 C 0.30342 0.07425 0.73838 0.0
C1497 C 0.29846 0.06593 0.7654 0.0
N1498 N 0.29209 0.03716 0.79798 0.0
N1499 N 0.31737 0.07194 0.69339 0.0
C1500 C 0.29586 0.0443 0.77157 0.0
C1501 C 0.3083 0.06206 0.71798 0.0
N1502 N 0.292 0.00825 0.75445 0.0
N1503 N 0.30352 0.09388 0.73224 0.0
H1504 H 0.32102 0.0636 0.67771 0.0
H1505 H 0.32293 0.08912 0.68909 0.0
H1506 H 0.30124 0.10406 0.74685 0.0
H1507 H 0.30423 0.09925 0.71238 0.0
H1508 H 0.28441 -0.00062 0.77227 0.0
H1509 H 0.29311 0.99776 0.73918 0.0
H1510 H 0.29277 0.02306 0.80452 0.0
H1511 H 0.28947 0.04616 0.81389 0.0
C1512 C 0.97043 0.27514 0.76929 0.0
C1513 C 0.96405 0.27376 0.74157 0.0
C1514 C 0.92893 0.23596 0.74891 0.0
C1515 C 0.93541 0.23723 0.77659 0.0
N1516 N 0.964 0.25512 0.8119 0.0
N1517 N 0.93996 0.25108 0.70333 0.0
C1518 C 0.95675 0.25595 0.78639 0.0
C1519 C 0.94426 0.25349 0.7308 0.0
N1520 N 0.98932 0.29502 0.77936 0.0
N1521 N 0.90759 0.21877 0.74033 0.0
H1522 H 0.95027 0.26386 0.68948 0.0
H1523 H 0.92724 0.23566 0.69386 0.0
H1524 H 0.89587 0.20549 0.75285 0.0
H1525 H 0.90077 0.21852 0.72144 0.0
H1526 H 0.99342 0.29838 0.80005 0.0
H1527 H 0.00049 0.30881 0.76702 0.0
H1528 H 0.98027 0.26707 0.81943 0.0
H1529 H 0.95431 0.24127 0.82485 0.0
C1530 C 0.73005 0.69991 0.7722 0.0
C1531 C 0.73299 0.70089 0.74345 0.0
C1532 C 0.77424 0.71858 0.74904 0.0
C1533 C 0.77075 0.71449 0.77747 0.0
N1534 N 0.74604 0.70216 0.81683 0.0
N1535 N 0.7574 0.71138 0.70388 0.0
C1536 C 0.74886 0.70565 0.78931 0.0
C1537 C 0.75504 0.71075 0.73169 0.0
N1538 N 0.70931 0.69393 0.78301 0.0
N1539 N 0.79592 0.72972 0.73866 0.0
H1540 H 0.74396 0.70686 0.6906 0.0
H1541 H 0.77233 0.71535 0.69372 0.0
H1542 H 0.81028 0.73466 0.75047 0.0
H1543 H 0.80001 0.73553 0.71876 0.0
H1544 H 0.70631 0.69474 0.80379 0.0
H1545 H 0.69533 0.68994 0.77089 0.0
H1546 H 0.73023 0.69313 0.82644 0.0
H1547 H 0.75969 0.7076 0.83018 0.0
C1548 C 0.7 0.64828 0.60284 0.0
C1549 C 0.71014 0.65755 0.6288 0.0
C1550 C 0.74138 0.65169 0.6174 0.0
C1551 C 0.73145 0.64265 0.59125 0.0
N1552 N 0.69933 0.62771 0.56082 0.0
N1553 N 0.73626 0.66193 0.66378 0.0
C1554 C 0.71005 0.63944 0.58454 0.0
C1555 C 0.72952 0.65728 0.63702 0.0
N1556 N 0.68124 0.64869 0.59543 0.0
N1557 N 0.76261 0.65597 0.62303 0.0
H1558 H 0.72736 0.66536 0.67869 0.0
H1559 H 0.74905 0.66005 0.67171 0.0
H1560 H 0.77179 0.65186 0.60935 0.0
H1561 H 0.77187 0.66509 0.64049 0.0
H1562 H 0.67462 0.64495 0.5757 0.0
H1563 H 0.67274 0.65373 0.60901 0.0
H1564 H 0.68279 0.62287 0.55576 0.0
H1565 H 0.70638 0.62115 0.54699 0.0
C1566 C 0.36648 0.08662 0.62595 0.0
C1567 C 0.35652 0.06358 0.61472 0.0
C1568 C 0.35698 0.07763 0.56904 0.0
C1569 C 0.3673 0.10065 0.58023 0.0
N1570 N 0.38738 0.12805 0.61739 0.0
N1571 N 0.34806 0.03822 0.57501 0.0
C1572 C 0.37391 0.10544 0.60808 0.0
C1573 C 0.35362 0.05944 0.58603 0.0
N1574 N 0.36748 0.09046 0.65364 0.0
N1575 N 0.34942 0.07292 0.54259 0.0
H1576 H 0.34599 0.0247 0.58689 0.0
H1577 H 0.3478 0.03479 0.55407 0.0
H1578 H 0.35181 0.0858 0.52937 0.0
H1579 H 0.33937 0.05607 0.53431 0.0
H1580 H 0.37191 0.10646 0.66278 0.0
H1581 H 0.36208 0.07731 0.66769 0.0
H1582 H 0.39466 0.13266 0.63682 0.0
H1583 H 0.3931 0.14222 0.60475 0.0
C1584 C 0.92427 0.30017 0.62538 0.0
C1585 C 0.94024 0.29347 0.62978 0.0
C1586 C 0.92443 0.26597 0.59063 0.0
C1587 C 0.90636 0.27 0.58904 0.0
N1588 N 0.88744 0.28913 0.60684 0.0
N1589 N 0.95258 0.26653 0.61968 0.0
C1590 C 0.90586 0.28673 0.60683 0.0
C1591 C 0.9397 0.27557 0.6131 0.0
N1592 N 0.92705 0.31976 0.63829 0.0
N1593 N 0.9271 0.25308 0.57052 0.0
H1594 H 0.96314 0.272 0.6368 0.0
H1595 H 0.95092 0.25182 0.60979 0.0
H1596 H 0.91632 0.24598 0.55355 0.0
H1597 H 0.94129 0.25151 0.56926 0.0
H1598 H 0.91723 0.32676 0.63386 0.0
H1599 H 0.94065 0.33034 0.65148 0.0
H1600 H 0.88497 0.29913 0.62147 0.0
H1601 H 0.8737 0.2797 0.59346 0.0
C1602 C 0.33228 0.27969 0.61286 0.0
C1603 C 0.34775 0.29183 0.63485 0.0
C1604 C 0.37475 0.2825 0.61457 0.0
C1605 C 0.35952 0.27094 0.59234 0.0
N1606 N 0.32707 0.26396 0.56646 0.0
N1607 N 0.38581 0.30986 0.65313 0.0
C1608 C 0.3394 0.27146 0.59019 0.0
C1609 C 0.36969 0.29484 0.63458 0.0
N1610 N 0.31025 0.2744 0.61442 0.0
N1611 N 0.39347 0.28081 0.61724 0.0
H1612 H 0.38274 0.31948 0.66774 0.0
H1613 H 0.40278 0.31448 0.65237 0.0
H1614 H 0.39799 0.27232 0.60271 0.0
H1615 H 0.40367 0.28647 0.63468 0.0
H1616 H 0.29768 0.26336 0.60034 0.0
H1617 H 0.30379 0.27912 0.63105 0.0
H1618 H 0.31348 0.26605 0.56267 0.0
H1619 H 0.33189 0.25776 0.5495 0.0
C1620 C 0.71086 0.08737 0.6198 0.0
C1621 C 0.69297 0.06583 0.60855 0.0
C1622 C 0.7047 0.081 0.56245 0.0
C1623 C 0.72444 0.10108 0.57364 0.0
N1624 N 0.74837 0.12153 0.6129 0.0
N1625 N 0.67476 0.04071 0.56882 0.0
C1626 C 0.72806 0.10384 0.60233 0.0
C1627 C 0.69023 0.06227 0.57976 0.0
N1628 N 0.71111 0.09235 0.64715 0.0
N1629 N 0.6996 0.08001 0.5354 0.0
H1630 H 0.66407 0.02637 0.58067 0.0
H1631 H 0.6739 0.0365 0.54803 0.0
H1632 H 0.70977 0.09348 0.52217 0.0
H1633 H 0.68427 0.06685 0.5267 0.0
H1634 H 0.72253 0.10868 0.65603 0.0
H1635 H 0.69839 0.08098 0.66051 0.0
H1636 H 0.75281 0.12277 0.6334 0.0
H1637 H 0.76171 0.13375 0.60085 0.0
C1638 C 0.92162 0.62979 0.5967 0.0
C1639 C 0.92835 0.64795 0.61675 0.0
C1640 C 0.89788 0.65361 0.60215 0.0
C1641 C 0.89106 0.6354 0.58217 0.0
N1642 N 0.89354 0.60361 0.56281 0.0
N1643 N 0.92083 0.67438 0.64211 0.0
C1644 C 0.90199 0.62261 0.58029 0.0
C1645 C 0.91586 0.65906 0.62049 0.0
N1646 N 0.93467 0.62028 0.59245 0.0
N1647 N 0.8875 0.66613 0.60309 0.0
H1648 H 0.93427 0.67933 0.65556 0.0
H1649 H 0.91074 0.68095 0.64808 0.0
H1650 H 0.87324 0.66173 0.59133 0.0
H1651 H 0.8936 0.68159 0.61448 0.0
H1652 H 0.9323 0.60885 0.57625 0.0
H1653 H 0.94897 0.62494 0.60429 0.0
H1654 H 0.89913 0.59204 0.56233 0.0
H1655 H 0.87969 0.59841 0.54989 0.0
C1656 C 0.97076 0.72139 0.74273 0.0
C1657 C 0.95777 0.7016 0.72511 0.0
C1658 C 0.92239 0.69493 0.74592 0.0
C1659 C 0.9354 0.71289 0.76567 0.0
N1660 N 0.97188 0.74186 0.78501 0.0
N1661 N 0.92137 0.66744 0.71223 0.0
C1662 C 0.9596 0.7259 0.76458 0.0
C1663 C 0.93362 0.68775 0.72737 0.0
N1664 N 0.99372 0.73578 0.7386 0.0
N1665 N 0.89931 0.68525 0.74429 0.0
H1666 H 0.92868 0.66165 0.69782 0.0
H1667 H 0.90411 0.65532 0.71545 0.0
H1668 H 0.89043 0.69026 0.7573 0.0
H1669 H 0.88927 0.67394 0.72842 0.0
H1670 H 0.00374 0.75179 0.74885 0.0
H1671 H 0.00255 0.73245 0.7235 0.0
H1672 H 0.9895 0.75012 0.78705 0.0
H1673 H 0.96424 0.74567 0.80118 0.0
C1674 C 0.29829 0.27007 0.77594 0.0
C1675 C 0.30083 0.26797 0.74735 0.0
C1676 C 0.2965 0.22997 0.75292 0.0
C1677 C 0.29393 0.23202 0.78154 0.0
N1678 N 0.287 0.25098 0.81957 0.0
N1679 N 0.29647 0.24361 0.7078 0.0
C1680 C 0.2931 0.25115 0.79282 0.0
C1681 C 0.29781 0.24706 0.73556 0.0
N1682 N 0.30137 0.29039 0.78697 0.0
N1683 N 0.29916 0.21253 0.74249 0.0
H1684 H 0.29765 0.25581 0.69436 0.0
H1685 H 0.29198 0.22778 0.69817 0.0
H1686 H 0.29846 0.1997 0.75442 0.0
H1687 H 0.3039 0.2118 0.72235 0.0
H1688 H 0.30267 0.29426 0.80787 0.0
H1689 H 0.30362 0.30394 0.77502 0.0
H1690 H 0.28401 0.26331 0.82849 0.0
H1691 H 0.28299 0.23727 0.83236 0.0
C1692 C 0.7354 0.03353 0.74068 0.0
C1693 C 0.73488 0.04613 0.7184 0.0
C1694 C 0.7667 0.08246 0.73831 0.0
C1695 C 0.76565 0.0703 0.76186 0.0
N1696 N 0.74786 0.03494 0.78719 0.0
N1697 N 0.74707 0.0831 0.69824 0.0
C1698 C 0.7497 0.04598 0.76353 0.0
C1699 C 0.74984 0.07073 0.71768 0.0
N1700 N 0.72274 0.00968 0.73958 0.0
N1701 N 0.78398 0.1052 0.73553 0.0
H1702 H 0.73456 0.07535 0.68309 0.0
H1703 H 0.75574 0.10124 0.69858 0.0
H1704 H 0.79641 0.11462 0.75048 0.0
H1705 H 0.78715 0.11415 0.71748 0.0
H1706 H 0.72407 -0.0006 0.75384 0.0
H1707 H 0.71217 6e-05 0.72309 0.0
H1708 H 0.73488 0.01783 0.79089 0.0
H1709 H 0.75851 0.04342 0.804 0.0
C1710 C 0.03618 0.30513 0.06276 0.0
C1711 C 0.04619 0.32835 0.05399 0.0
C1712 C 0.08217 0.33886 0.07593 0.0
C1713 C 0.07111 0.31659 0.08783 0.0
N1714 N 0.03636 0.2798 0.09632 0.0
N1715 N 0.0777 0.36851 0.05618 0.0
C1716 C 0.04775 0.30004 0.08227 0.0
C1717 C 0.06898 0.34557 0.0615 0.0
N1718 N 0.01598 0.28773 0.05167 0.0
N1719 N 0.10535 0.35337 0.07779 0.0
H1720 H 0.0685 0.37434 0.04625 0.0
H1721 H 0.09331 0.38202 0.06388 0.0
H1722 H 0.11565 0.34898 0.08792 0.0
H1723 H 0.11454 0.36877 0.06711 0.0
H1724 H 0.00897 0.27013 0.05539 0.0
H1725 H 0.00754 0.29065 0.03639 0.0
H1726 H 0.01874 0.26828 0.09509 0.0
H1727 H 0.04411 0.27558 0.11118 0.0
C1728 C 0.69313 0.7447 0.03478 0.0
C1729 C 0.67349 0.7226 0.04049 0.0
C1730 C 0.66641 0.73926 0.08188 0.0
C1731 C 0.6845 0.76172 0.07452 0.0
N1732 N 0.71313 0.78664 0.04208 0.0
N1733 N 0.63906 0.69961 0.06674 0.0
C1734 C 0.69733 0.76469 0.05041 0.0
C1735 C 0.65949 0.72004 0.06336 0.0
N1736 N 0.70836 0.74644 0.01532 0.0
N1737 N 0.65615 0.7362 0.10685 0.0
H1738 H 0.63305 0.68528 0.05327 0.0
H1739 H 0.62705 0.69758 0.08136 0.0
H1740 H 0.66069 0.74991 0.12094 0.0
H1741 H 0.64461 0.71986 0.11458 0.0
H1742 H 0.72418 0.76163 0.01234 0.0
H1743 H 0.70622 0.73216 0.00381 0.0
H1744 H 0.72115 0.78998 0.02311 0.0
H1745 H 0.71692 0.80171 0.05322 0.0
C1746 C 0.29293 0.95675 0.08285 0.0
C1747 C 0.2937 0.9493 0.05562 0.0
C1748 C 0.25576 0.91421 0.06138 0.0
C1749 C 0.25395 0.92314 0.08734 0.0
N1750 N 0.26923 0.95476 0.12098 0.0
N1751 N 0.27468 0.9227 0.01735 0.0
C1752 C 0.2721 0.94496 0.09758 0.0
C1753 C 0.27481 0.92846 0.04442 0.0
N1754 N 0.31238 0.97439 0.0951 0.0
N1755 N 0.23967 0.89187 0.05329 0.0
H1756 H 0.28828 0.93272 0.00424 0.0
H1757 H 0.26035 0.90911 0.00736 0.0
H1758 H 0.22555 0.88082 0.06522 0.0
H1759 H 0.24135 0.88358 0.03591 0.0
H1760 H 0.31334 0.97906 0.11576 0.0
H1761 H 0.32818 0.98267 0.08534 0.0
H1762 H 0.28103 0.97174 0.1278 0.0
H1763 H 0.25415 0.94673 0.1323 0.0
C1764 C 0.34065 0.04936 0.93522 0.0
C1765 C 0.33211 0.04369 0.96226 0.0
C1766 C 0.3177 0.06983 0.9602 0.0
C1767 C 0.32426 0.07367 0.93232 0.0
N1768 N 0.33986 0.06557 0.89212 0.0
N1769 N 0.31015 0.04602 0.99966 0.0
C1770 C 0.33516 0.06301 0.91949 0.0
C1771 C 0.32014 0.05339 0.97465 0.0
N1772 N 0.35474 0.04242 0.92499 0.0
N1773 N 0.30933 0.08209 0.97291 0.0
H1774 H 0.3116 0.03406 0.01092 0.0
H1775 H 0.29899 0.05034 0.00842 0.0
H1776 H 0.30647 0.09361 0.96273 0.0
H1777 H 0.3067 0.08214 0.99391 0.0
H1778 H 0.36348 0.048 0.90657 0.0
H1779 H 0.35936 0.03265 0.93607 0.0
H1780 H 0.34528 0.05606 0.88085 0.0
H1781 H 0.33684 0.07612 0.88011 0.0
C1782 C 0.94527 0.29245 0.95245 0.0
C1783 C 0.95467 0.28904 0.97602 0.0
C1784 C 0.9314 0.2467 0.96779 0.0
C1785 C 0.9242 0.25039 0.94253 0.0
N1786 N 0.92642 0.27667 0.90879 0.0
N1787 N 0.95873 0.2633 0.00497 0.0
C1788 C 0.93172 0.27326 0.93428 0.0
C1789 C 0.94819 0.26624 0.98352 0.0
N1790 N 0.9485 0.31386 0.94809 0.0
N1791 N 0.92179 0.22455 0.977 0.0
H1792 H 0.9708 0.27712 0.01729 0.0
H1793 H 0.95676 0.24738 0.0094 0.0
H1794 H 0.90965 0.20979 0.96585 0.0
H1795 H 0.92444 0.22088 0.99657 0.0
H1796 H 0.94032 0.31694 0.93267 0.0
H1797 H 0.95751 0.32803 0.96171 0.0
H1798 H 0.93352 0.29309 0.90051 0.0
H1799 H 0.91635 0.263 0.89495 0.0
C1800 C 0.71394 0.66982 0.92844 0.0
C1801 C 0.71461 0.67915 0.95508 0.0
C1802 C 0.75641 0.70023 0.95495 0.0
C1803 C 0.75574 0.69232 0.92758 0.0
N1804 N 0.73442 0.67292 0.88647 0.0
N1805 N 0.73629 0.70673 0.99168 0.0
C1806 C 0.73464 0.67811 0.91376 0.0
C1807 C 0.73581 0.69529 0.96786 0.0
N1808 N 0.69364 0.65228 0.91767 0.0
N1809 N 0.7767 0.71203 0.9688 0.0
H1810 H 0.7216 0.70393 0.00158 0.0
H1811 H 0.75125 0.72052 1.00036 0.0
H1812 H 0.79224 0.71644 0.95982 0.0
H1813 H 0.77792 0.71588 0.98971 0.0
H1814 H 0.69238 0.64307 0.89961 0.0
H1815 H 0.67813 0.64543 0.92797 0.0
H1816 H 0.71968 0.66487 0.87456 0.0
H1817 H 0.74927 0.67839 0.87514 0.0
C1818 C 0.95292 0.69573 0.9696 0.0
C1819 C 0.95895 0.68115 0.95533 0.0
C1820 C 0.93933 0.68145 0.91429 0.0
C1821 C 0.93194 0.69464 0.92914 0.0
N1822 N 0.92895 0.71201 0.97156 0.0
N1823 N 0.95502 0.65685 0.91602 0.0
C1824 C 0.93792 0.7011 0.95703 0.0
C1825 C 0.95142 0.67315 0.92814 0.0
N1826 N 0.96226 0.7052 0.9947 0.0
N1827 N 0.93507 0.67717 0.88685 0.0
H1828 H 0.96345 0.65006 0.92579 0.0
H1829 H 0.94797 0.64849 0.89731 0.0
H1830 H 0.92566 0.68236 0.87613 0.0
H1831 H 0.94221 0.66999 0.87424 0.0
H1832 H 0.96061 0.71801 0.00484 0.0
H1833 H 0.97319 0.70154 0.00465 0.0
H1834 H 0.93047 0.71476 0.99267 0.0
H1835 H 0.91858 0.71699 0.96276 0.0
C1836 C 0.31028 0.2592 0.98877 0.0
C1837 C 0.32853 0.28222 0.98359 0.0
C1838 C 0.33729 0.2686 0.94094 0.0
C1839 C 0.32038 0.24533 0.94732 0.0
N1840 N 0.29343 0.21783 0.97943 0.0
N1841 N 0.3623 0.3083 0.95793 0.0
C1842 C 0.30762 0.24042 0.97188 0.0
C1843 C 0.34286 0.2868 0.96053 0.0
N1844 N 0.2949 0.25538 0.00903 0.0
N1845 N 0.34757 0.27337 0.91586 0.0
H1846 H 0.3673 0.32187 0.97235 0.0
H1847 H 0.3746 0.31199 0.943 0.0
H1848 H 0.34391 0.26046 0.90093 0.0
H1849 H 0.35821 0.29024 0.90896 0.0
H1850 H 0.27984 0.23934 0.01175 0.0
H1851 H 0.29612 0.2687 0.02173 0.0
H1852 H 0.28562 0.21327 0.99851 0.0
H1853 H 0.29094 0.20357 0.96752 0.0
C1854 C 0.73156 0.05603 0.98001 0.0
C1855 C 0.70909 0.04793 0.97093 0.0
C1856 C 0.72385 0.06462 0.92603 0.0
C1857 C 0.74639 0.0745 0.93596 0.0
N1858 N 0.77224 0.08218 0.97303 0.0
N1859 N 0.68383 0.04741 0.93708 0.0
C1860 C 0.75041 0.07092 0.96315 0.0
C1861 C 0.70519 0.0529 0.94435 0.0
N1862 N 0.73482 0.04871 0.00423 0.0
N1863 N 0.72031 0.06621 0.89901 0.0
H1864 H 0.66978 0.03922 0.95011 0.0
H1865 H 0.68032 0.05272 0.91911 0.0
H1866 H 0.73363 0.07514 0.88515 0.0
H1867 H 0.70427 0.05718 0.88983 0.0
H1868 H 0.75055 0.05185 0.01054 0.0
H1869 H 0.72145 0.03777 0.01713 0.0
H1870 H 0.77615 0.08256 0.99355 0.0
H1871 H 0.78655 0.09255 0.96101 0.0
C1872 C 0.67048 0.94185 0.04369 0.0
C1873 C 0.67113 0.96157 0.05578 0.0
C1874 C 0.68352 0.95471 0.0992 0.0
C1875 C 0.68081 0.93383 0.0878 0.0
N1876 N 0.66673 0.90477 0.0511 0.0
N1877 N 0.67288 0.98338 0.09681 0.0
C1878 C 0.67277 0.92655 0.06059 0.0
C1879 C 0.67612 0.96706 0.08407 0.0
N1880 N 0.66888 0.93831 0.01594 0.0
N1881 N 0.69386 0.96322 0.12406 0.0
H1882 H 0.66661 0.99216 0.08672 0.0
H1883 H 0.67406 0.98637 0.11791 0.0
H1884 H 0.69979 0.95486 0.13569 0.0
H1885 H 0.69844 0.97964 0.13199 0.0
H1886 H 0.67077 0.9256 0.00593 0.0
H1887 H 0.66794 0.94947 0.00263 0.0
H1888 H 0.65857 0.89768 0.03241 0.0
H1889 H 0.66781 0.89289 0.063 0.0
C1890 C 0.03771 0.71606 0.07122 0.0
C1891 C 0.04679 0.70861 0.04986 0.0
C1892 C 0.08542 0.74143 0.0606 0.0
C1893 C 0.07609 0.74972 0.0806 0.0
N1894 N 0.04342 0.74726 0.10256 0.0
N1895 N 0.07851 0.71558 0.02138 0.0
C1896 C 0.05222 0.73774 0.08515 0.0
C1897 C 0.07047 0.72164 0.04379 0.0
N1898 N 0.01548 0.70187 0.07915 0.0
N1899 N 0.10858 0.7522 0.05812 0.0
H1900 H 0.06808 0.70112 0.0087 0.0
H1901 H 0.09511 0.7258 0.01406 0.0
H1902 H 0.12004 0.76721 0.06943 0.0
H1903 H 0.11653 0.74547 0.04623 0.0
H1904 H 0.00861 0.70507 0.0966 0.0
H1905 H 0.00424 0.68575 0.06969 0.0
H1906 H 0.02604 0.7408 0.10435 0.0
H1907 H 0.05358 0.76279 0.11377 0.0
C1908 C 0.27817 0.32652 0.09495 0.0
C1909 C 0.27717 0.31771 0.06793 0.0
C1910 C 0.23551 0.29835 0.06783 0.0
C1911 C 0.23645 0.30601 0.09539 0.0
N1912 N 0.25786 0.32393 0.13689 0.0
N1913 N 0.2551 0.29191 0.0303 0.0
C1914 C 0.25756 0.319 0.1095 0.0
C1915 C 0.25588 0.30271 0.05477 0.0
N1916 N 0.29877 0.34299 0.10618 0.0
N1917 N 0.21519 0.28727 0.05405 0.0
H1918 H 0.26967 0.2945 0.02024 0.0
H1919 H 0.23999 0.27888 0.02106 0.0
H1920 H 0.19976 0.28294 0.06329 0.0
H1921 H 0.2138 0.28372 0.03307 0.0
H1922 H 0.30044 0.35197 0.12457 0.0
H1923 H 0.31427 0.34924 0.09604 0.0
H1924 H 0.27244 0.33096 0.14898 0.0
H1925 H 0.24315 0.31931 0.14811 0.0
C1926 C 0.71239 0.67567 0.42307 0.0
C1927 C 0.70362 0.66497 0.39702 0.0
C1928 C 0.72273 0.64322 0.39985 0.0
C1929 C 0.73009 0.65264 0.42668 0.0
N1930 N 0.72952 0.67511 0.46565 0.0
N1931 N 0.69703 0.63577 0.36238 0.0
C1932 C 0.72416 0.66805 0.43886 0.0
C1933 C 0.70791 0.64803 0.38581 0.0
N1934 N 0.71033 0.69382 0.43216 0.0
N1935 N 0.73025 0.63002 0.38763 0.0
H1936 H 0.68602 0.63873 0.35146 0.0
H1937 H 0.69737 0.62137 0.35489 0.0
H1938 H 0.74041 0.62539 0.39765 0.0
H1939 H 0.72775 0.62498 0.36702 0.0
H1940 H 0.71845 0.704 0.44959 0.0
H1941 H 0.70209 0.70011 0.421 0.0
H1942 H 0.72344 0.68417 0.47663 0.0
H1943 H 0.73867 0.67037 0.47765 0.0
C1944 C 0.36636 0.06942 0.40093 0.0
C1945 C 0.35225 0.06478 0.37785 0.0
C1946 C 0.35028 0.09919 0.38943 0.0
C1947 C 0.3624 0.10237 0.41396 0.0
N1948 N 0.38053 0.08989 0.44463 0.0
N1949 N 0.3288 0.0734 0.35111 0.0
C1950 C 0.3701 0.08734 0.42013 0.0
C1951 C 0.34384 0.0793 0.37218 0.0
N1952 N 0.37675 0.05715 0.40397 0.0
N1953 N 0.34506 0.11527 0.38262 0.0
H1954 H 0.32384 0.05905 0.33792 0.0
H1955 H 0.31996 0.08165 0.34778 0.0
H1956 H 0.34875 0.12959 0.39524 0.0
H1957 H 0.33853 0.11542 0.36368 0.0
H1958 H 0.38915 0.06131 0.41867 0.0
H1959 H 0.37441 0.0439 0.39029 0.0
H1960 H 0.38402 0.07781 0.45185 0.0
H1961 H 0.38448 0.10346 0.45871 0.0
C1962 C 0.94004 0.27041 0.38125 0.0
C1963 C 0.95863 0.29188 0.39174 0.0
C1964 C 0.9373 0.28739 0.4341 0.0
C1965 C 0.91978 0.26493 0.42462 0.0
N1966 N 0.90616 0.23314 0.3914 0.0
N1967 N 0.97674 0.31884 0.43011 0.0
C1968 C 0.92165 0.25586 0.39883 0.0
C1969 C 0.95775 0.29989 0.4187 0.0
N1970 N 0.93939 0.26439 0.35418 0.0
N1971 N 0.93415 0.29705 0.45743 0.0
H1972 H 0.99218 0.32835 0.41977 0.0
H1973 H 0.97786 0.32386 0.45066 0.0
H1974 H 0.91947 0.28834 0.4694 0.0
H1975 H 0.94521 0.31438 0.46369 0.0
H1976 H 0.92516 0.25016 0.34481 0.0
H1977 H 0.95217 0.27489 0.34037 0.0
H1978 H 0.90807 0.22484 0.37419 0.0
H1979 H 0.89243 0.22191 0.40373 0.0
C1980 C 0.9894 0.39736 0.30774 0.0
C1981 C 0.99019 0.37844 0.29563 0.0
C1982 C 0.98222 0.38755 0.25074 0.0
C1983 C 0.9837 0.40779 0.26241 0.0
N1984 N 0.99325 0.43458 0.301 0.0
N1985 N 0.99262 0.35881 0.25472 0.0
C1986 C 0.98862 0.41347 0.29065 0.0
C1987 C 0.98804 0.3744 0.26686 0.0
N1988 N 0.9884 0.39941 0.33553 0.0
N1989 N 0.97461 0.38048 0.2245 0.0
H1990 H 0.99785 0.34947 0.26563 0.0
H1991 H 0.99357 0.35696 0.23362 0.0
H1992 H 0.96997 0.38952 0.21207 0.0
H1993 H 0.97089 0.36451 0.21596 0.0
H1994 H 0.98537 0.41143 0.34531 0.0
H1995 H 0.98839 0.38767 0.34879 0.0
H1996 H -0.0007 0.44065 0.32077 0.0
H1997 H 0.99313 0.447 0.28908 0.0
C1998 C 0.60934 0.61906 0.28762 0.0
C1999 C 0.62053 0.61764 0.31084 0.0
C2000 C 0.60305 0.57567 0.30174 0.0
C2001 C 0.59356 0.5776 0.27729 0.0
N2002 N 0.59084 0.60161 0.24418 0.0
N2003 N 0.63158 0.59565 0.33723 0.0
C2004 C 0.59767 0.59947 0.26938 0.0
C2005 C 0.61833 0.59621 0.31722 0.0
N2006 N 0.60892 0.63874 0.28367 0.0
N2007 N 0.59702 0.55416 0.31051 0.0
H2008 H 0.64326 0.61035 0.3488 0.0
H2009 H 0.63255 0.5811 0.34072 0.0
H2010 H 0.58619 0.53874 0.29945 0.0
H2011 H 0.60131 0.55144 0.32971 0.0
H2012 H 0.59904 0.63987 0.26873 0.0
H2013 H 0.61669 0.65325 0.29699 0.0
H2014 H 0.59557 0.6176 0.23609 0.0
H2015 H 0.5821 0.58758 0.2303 0.0
C2016 C 0.38699 0.99031 0.30353 0.0
C2017 C 0.3912 0.00652 0.32529 0.0
C2018 C 0.43143 0.03004 0.31188 0.0
C2019 C 0.42647 0.01535 0.28829 0.0
N2020 N 0.39876 0.98379 0.25903 0.0
N2021 N 0.41653 0.04386 0.34775 0.0
C2022 C 0.40401 0.9961 0.28336 0.0
C2023 C 0.41322 0.02692 0.32896 0.0
N2024 N 0.36703 0.969 0.30268 0.0
N2025 N 0.45356 0.0466 0.31833 0.0
H2026 H 0.40361 0.04246 0.3604 0.0
H2027 H 0.43158 0.06019 0.34916 0.0
H2028 H 0.46735 0.04948 0.30622 0.0
H2029 H 0.45839 0.05609 0.33681 0.0
H2030 H 0.364 0.95563 0.28881 0.0
H2031 H 0.35442 0.96378 0.31762 0.0
H2032 H 0.38212 0.97119 0.25317 0.0
H2033 H 0.41072 0.98762 0.24356 0.0
C2034 C 0.61732 0.99553 0.26308 0.0
C2035 C 0.62627 0.00682 0.28884 0.0
C2036 C 0.60395 0.02529 0.28729 0.0
C2037 C 0.59627 0.01527 0.26074 0.0
N2038 N 0.59792 0.99377 0.22141 0.0
N2039 N 0.63143 0.03544 0.32354 0.0
C2040 C 0.60368 0.00128 0.24802 0.0
C2041 C 0.62045 0.02249 0.30049 0.0
N2042 N 0.62101 0.97853 0.25362 0.0
N2043 N 0.59514 0.03712 0.30005 0.0
H2044 H 0.64371 0.03396 0.33374 0.0
H2045 H 0.62983 0.04902 0.33131 0.0
H2046 H 0.58365 0.04028 0.29062 0.0
H2047 H 0.59797 0.04244 0.32057 0.0
H2048 H 0.61294 0.9679 0.23646 0.0
H2049 H 0.63067 0.97359 0.26423 0.0
H2050 H 0.60489 0.98578 0.20998 0.0
H2051 H 0.58743 0.99712 0.20995 0.0
C2052 C 0.00738 0.60911 0.3072 0.0
C2053 C 0.98986 0.61372 0.31235 0.0
C2054 C 0.96496 0.58277 0.27934 0.0
C2055 C 0.98181 0.57701 0.27572 0.0
N2056 N 0.01693 0.58117 0.2906 0.0
N2057 N 0.95017 0.60133 0.30856 0.0
C2058 C 0.0024 0.58911 0.29103 0.0
C2059 C 0.96808 0.59947 0.29995 0.0
N2060 N 0.02906 0.6244 0.3165 0.0
N2061 N 0.94638 0.57298 0.26243 0.0
H2062 H 0.95162 0.61281 0.32433 0.0
H2063 H 0.93342 0.58984 0.30212 0.0
H2064 H 0.94354 0.56081 0.24686 0.0
H2065 H 0.93485 0.57846 0.26225 0.0
H2066 H 0.043 0.62321 0.31075 0.0
H2067 H 0.0336 0.63951 0.328 0.0
H2068 H 0.031 0.58786 0.30353 0.0
H2069 H 0.01375 0.56643 0.27918 0.0
C2070 C 0.3858 0.39936 0.29601 0.0
C2071 C 0.37963 0.37652 0.30284 0.0
C2072 C 0.4088 0.37896 0.27147 0.0
C2073 C 0.41678 0.40274 0.26736 0.0
N2074 N 0.41551 0.43691 0.27968 0.0
N2075 N 0.38843 0.34633 0.30134 0.0
C2076 C 0.40601 0.41335 0.28071 0.0
C2077 C 0.39195 0.36672 0.29168 0.0
N2078 N 0.37189 0.4074 0.30311 0.0
N2079 N 0.41694 0.3679 0.25564 0.0
H2080 H 0.37695 0.33725 0.31699 0.0
H2081 H 0.39859 0.33971 0.29586 0.0
H2082 H 0.42911 0.37624 0.24037 0.0
H2083 H 0.41003 0.34997 0.25587 0.0
H2084 H 0.37441 0.42299 0.2962 0.0
H2085 H 0.35655 0.39746 0.31358 0.0
H2086 H 0.4097 0.44586 0.29147 0.0
H2087 H 0.43048 0.44788 0.269 0.0
C2088 C 0.34767 0.29821 0.41823 0.0
C2089 C 0.3454 0.29352 0.38958 0.0
C2090 C 0.35019 0.26056 0.39556 0.0
C2091 C 0.3552 0.26707 0.42364 0.0
N2092 N 0.36291 0.29476 0.4607 0.0
N2093 N 0.34847 0.27283 0.35024 0.0
C2094 C 0.35517 0.28669 0.4347 0.0
C2095 C 0.3477 0.27536 0.37799 0.0
N2096 N 0.34165 0.31284 0.42994 0.0
N2097 N 0.34708 0.23988 0.38583 0.0
H2098 H 0.34714 0.2836 0.33665 0.0
H2099 H 0.35255 0.26149 0.34076 0.0
H2100 H 0.3485 0.22841 0.39811 0.0
H2101 H 0.34105 0.23312 0.36623 0.0
H2102 H 0.34079 0.315 0.45101 0.0
H2103 H 0.33514 0.3209 0.41879 0.0
H2104 H 0.36551 0.31045 0.46875 0.0
H2105 H 0.36881 0.28697 0.47335 0.0
C2106 C 0.71391 0.07728 0.37007 0.0
C2107 C 0.7122 0.0557 0.37404 0.0
C2108 C 0.7358 0.0721 0.41527 0.0
C2109 C 0.73965 0.0943 0.40945 0.0
N2110 N 0.73542 0.11906 0.37902 0.0
N2111 N 0.72498 0.03378 0.39749 0.0
C2112 C 0.72957 0.09721 0.38618 0.0
C2113 C 0.72405 0.05339 0.3959 0.0
N2114 N 0.69984 0.07854 0.35188 0.0
N2115 N 0.74291 0.06876 0.43961 0.0
H2116 H 0.71721 0.01992 0.38327 0.0
H2117 H 0.73534 0.03221 0.41133 0.0
H2118 H 0.75151 0.08205 0.4544 0.0
H2119 H 0.73843 0.05238 0.44622 0.0
H2120 H 0.69868 0.0932 0.35029 0.0
H2121 H 0.68765 0.06423 0.34021 0.0
H2122 H 0.73058 0.12247 0.3606 0.0
H2123 H 0.74671 0.13409 0.39043 0.0
C2124 C 0.9392 0.66048 0.41713 0.0
C2125 C 0.93725 0.65134 0.3901 0.0
C2126 C 0.89572 0.63311 0.39157 0.0
C2127 C 0.89759 0.64087 0.41924 0.0
N2128 N 0.92029 0.65905 0.45986 0.0
N2129 N 0.91394 0.62648 0.35258 0.0
C2130 C 0.91911 0.65366 0.4325 0.0
C2131 C 0.91558 0.63702 0.37751 0.0
N2132 N 0.96026 0.67657 0.42763 0.0
N2133 N 0.87503 0.6224 0.37865 0.0
H2134 H 0.92814 0.62914 0.34156 0.0
H2135 H 0.89852 0.61379 0.34363 0.0
H2136 H 0.85997 0.61839 0.38865 0.0
H2137 H 0.87293 0.61877 0.3577 0.0
H2138 H 0.96272 0.68581 0.44601 0.0
H2139 H 0.97541 0.6823 0.41686 0.0
H2140 H 0.93515 0.66593 0.47137 0.0
H2141 H 0.90601 0.65504 0.47166 0.0
C2142 C 0.36983 0.98504 0.75508 0.0
C2143 C 0.37299 0.98843 0.72649 0.0
C2144 C 0.40722 0.98629 0.72864 0.0
C2145 C 0.40239 0.98006 0.75643 0.0
N2146 N 0.37667 0.96928 0.79484 0.0
N2147 N 0.39222 0.98791 0.68504 0.0
C2148 C 0.38298 0.97822 0.76932 0.0
C2149 C 0.39105 0.98792 0.71295 0.0
N2150 N 0.35504 0.98936 0.76892 0.0
N2151 N 0.42756 0.99135 0.71744 0.0
H2152 H 0.38037 0.98845 0.6727 0.0
H2153 H 0.40363 0.98509 0.67406 0.0
H2154 H 0.44 0.99066 0.72837 0.0
H2155 H 0.43297 0.99834 0.69816 0.0
H2156 H 0.35382 0.98945 0.79015 0.0
H2157 H 0.34571 0.9953 0.75948 0.0
H2158 H 0.36132 0.96527 0.80399 0.0
H2159 H 0.38569 0.9638 0.80586 0.0
C2160 C 0.03079 0.40108 0.71867 0.0
C2161 C 0.00941 0.38755 0.70516 0.0
C2162 C 0.99785 0.41384 0.72369 0.0
C2163 C 0.01808 0.42564 0.73966 0.0
N2164 N 0.05233 0.42852 0.75564 0.0
N2165 N 0.97108 0.37866 0.69805 0.0
C2166 C 0.03418 0.41874 0.73806 0.0
C2167 C 0.99253 0.39332 0.70842 0.0
N2168 N 0.04816 0.39767 0.71219 0.0
N2169 N 0.984 0.42256 0.72261 0.0
H2170 H 0.96638 0.36327 0.68707 0.0
H2171 H 0.95739 0.38064 0.70238 0.0
H2172 H 0.98732 0.43756 0.73355 0.0
H2173 H 0.97036 0.41615 0.70906 0.0
H2174 H 0.06481 0.4086 0.71928 0.0
H2175 H 0.04653 0.38527 0.69757 0.0
H2176 H 0.06321 0.42236 0.75747 0.0
H2177 H 0.05542 0.44157 0.77012 0.0
C2178 C 0.59471 0.62262 0.71523 0.0
C2179 C 0.61677 0.62812 0.72292 0.0
C2180 C 0.60169 0.60918 0.76667 0.0
C2181 C 0.57932 0.60139 0.75759 0.0
N2182 N 0.55385 0.59832 0.72231 0.0
N2183 N 0.64109 0.62422 0.7542 0.0
C2184 C 0.57562 0.6075 0.73162 0.0
C2185 C 0.62028 0.62091 0.74828 0.0
N2186 N 0.59214 0.63257 0.69283 0.0
N2187 N 0.60514 0.6056 0.793 0.0
H2188 H 0.65506 0.6324 0.74108 0.0
H2189 H 0.64405 0.61712 0.77097 0.0
H2190 H 0.59183 0.59678 0.8069 0.0
H2191 H 0.62125 0.61302 0.80177 0.0
H2192 H 0.57689 0.63121 0.68783 0.0
H2193 H 0.60578 0.644 0.68053 0.0
H2194 H 0.55002 0.59987 0.70232 0.0
H2195 H 0.53942 0.58768 0.73403 0.0
C2196 C 0.66352 0.71138 0.60073 0.0
C2197 C 0.65424 0.70574 0.62747 0.0
C2198 C 0.63441 0.72644 0.62117 0.0
C2199 C 0.64483 0.73331 0.59512 0.0
N2200 N 0.67037 0.73416 0.56038 0.0
N2201 N 0.63233 0.70878 0.66438 0.0
C2202 C 0.65962 0.72619 0.58491 0.0
C2203 C 0.64008 0.71352 0.63805 0.0
N2204 N 0.67597 0.70244 0.59051 0.0
N2205 N 0.61876 0.73193 0.62945 0.0
H2206 H 0.63516 0.69838 0.67688 0.0
H2207 H 0.62414 0.71608 0.67453 0.0
H2208 H 0.61471 0.74196 0.61797 0.0
H2209 H 0.60865 0.72543 0.6468 0.0
H2210 H 0.681 0.70348 0.57019 0.0
H2211 H 0.68047 0.69287 0.60215 0.0
H2212 H 0.68332 0.73193 0.55301 0.0
H2213 H 0.66719 0.74422 0.54772 0.0
C2214 C 0.26057 0.94451 0.64674 0.0
C2215 C 0.28344 0.95043 0.64995 0.0
C2216 C 0.27694 0.92003 0.61596 0.0
C2217 C 0.25361 0.91285 0.61458 0.0
N2218 N 0.22207 0.9149 0.63296 0.0
N2219 N 0.31188 0.94038 0.64238 0.0
C2220 C 0.24507 0.92407 0.63131 0.0
C2221 C 0.29123 0.93721 0.6359 0.0
N2222 N 0.2539 0.95899 0.65717 0.0
N2223 N 0.28564 0.91102 0.59766 0.0
H2224 H 0.32254 0.95222 0.65755 0.0
H2225 H 0.31738 0.92961 0.63473 0.0
H2226 H 0.27573 0.89844 0.58266 0.0
H2227 H 0.30303 0.91748 0.59581 0.0
H2228 H 0.23815 0.95678 0.65284 0.0
H2229 H 0.26482 0.9745 0.66797 0.0
H2230 H 0.21475 0.92094 0.64702 0.0
H2231 H 0.21013 0.89981 0.62212 0.0
C2232 C 0.07332 0.37058 0.61904 0.0
C2233 C 0.05854 0.34717 0.627 0.0
C2234 C 0.08586 0.3374 0.60916 0.0
C2235 C 0.09876 0.35973 0.59756 0.0
N2236 N 0.10304 0.39664 0.58808 0.0
N2237 N 0.04898 0.3072 0.62572 0.0
C2238 C 0.09209 0.37615 0.60165 0.0
C2239 C 0.06438 0.33026 0.62122 0.0
N2240 N 0.0699 0.38766 0.62885 0.0
N2241 N 0.09433 0.32316 0.60908 0.0
H2242 H 0.03273 0.30101 0.63371 0.0
H2243 H 0.05149 0.29392 0.61909 0.0
H2244 H 0.11017 0.32794 0.60071 0.0
H2245 H 0.08672 0.30767 0.61966 0.0
H2246 H 0.08144 0.40535 0.62584 0.0
H2247 H 0.0568 0.38442 0.64244 0.0
H2248 H 0.09723 0.40805 0.588 0.0
H2249 H 0.11676 0.40133 0.57495 0.0
C2250 C 0.29289 0.34749 0.60488 0.0
C2251 C 0.28738 0.34455 0.63312 0.0
C2252 C 0.25502 0.349 0.6249 0.0
C2253 C 0.26251 0.35512 0.59757 0.0
N2254 N 0.29097 0.36408 0.56276 0.0
N2255 N 0.26538 0.34627 0.67098 0.0
C2256 C 0.28212 0.35544 0.58786 0.0
C2257 C 0.26896 0.34622 0.64344 0.0
N2258 N 0.30769 0.34173 0.59401 0.0
N2259 N 0.2343 0.34517 0.63297 0.0
H2260 H 0.27547 0.34479 0.68534 0.0
H2261 H 0.25375 0.34997 0.67972 0.0
H2262 H 0.22343 0.34668 0.61987 0.0
H2263 H 0.22695 0.33834 0.65179 0.0
H2264 H 0.31055 0.34136 0.57309 0.0
H2265 H 0.31521 0.33487 0.60553 0.0
H2266 H 0.30662 0.36701 0.55592 0.0
H2267 H 0.28378 0.37038 0.54977 0.0
C2268 C 0.66881 0.94291 0.63503 0.0
C2269 C 0.67165 0.96155 0.61937 0.0
C2270 C 0.6627 0.93732 0.57755 0.0
C2271 C 0.65742 0.91798 0.59357 0.0
N2272 N 0.65137 0.90115 0.63794 0.0
N2273 N 0.66671 0.97504 0.5765 0.0
C2274 C 0.6593 0.92041 0.62246 0.0
C2275 C 0.66738 0.9584 0.5908 0.0
N2276 N 0.67607 0.94687 0.66159 0.0
N2277 N 0.66392 0.93579 0.54971 0.0
H2278 H 0.66934 0.99046 0.58553 0.0
H2279 H 0.6613 0.97253 0.55625 0.0
H2280 H 0.66083 0.92072 0.53917 0.0
H2281 H 0.67004 0.95011 0.53726 0.0
H2282 H 0.67656 0.93446 0.67307 0.0
H2283 H 0.68377 0.96326 0.67136 0.0
H2284 H 0.6501 0.90159 0.65916 0.0
H2285 H 0.64408 0.88432 0.62947 0.0
C2286 C 0.05247 0.73832 0.64902 0.0
C2287 C 0.04326 0.71394 0.6493 0.0
C2288 C 0.06853 0.71713 0.61162 0.0
C2289 C 0.07891 0.7417 0.61274 0.0
N2290 N 0.08382 0.77625 0.63559 0.0
N2291 N 0.04558 0.68076 0.63499 0.0
C2292 C 0.07178 0.75248 0.63238 0.0
C2293 C 0.05214 0.7035 0.63174 0.0
N2294 N 0.04216 0.74782 0.66364 0.0
N2295 N 0.07384 0.70677 0.59087 0.0
H2296 H 0.03404 0.67037 0.64997 0.0
H2297 H 0.05318 0.67288 0.6247 0.0
H2298 H 0.08586 0.71621 0.57582 0.0
H2299 H 0.065 0.68879 0.58722 0.0
H2300 H 0.04653 0.76501 0.66181 0.0
H2301 H 0.02787 0.73804 0.67592 0.0
H2302 H 0.08099 0.785 0.65155 0.0
H2303 H 0.09799 0.78722 0.62367 0.0
C2304 C 0.0155 0.62601 0.72006 0.0
C2305 C 0.99686 0.61323 0.70175 0.0
C2306 C 0.99148 0.57651 0.71712 0.0
C2307 C 0.00852 0.58923 0.73737 0.0
N2308 N 0.035 0.62566 0.76058 0.0
N2309 N 0.96533 0.57644 0.68461 0.0
C2310 C 0.02007 0.61389 0.73952 0.0
C2311 C 0.98443 0.58849 0.7006 0.0
N2312 N 0.02937 0.64968 0.71813 0.0
N2313 N 0.98234 0.55306 0.71342 0.0
H2314 H 0.95976 0.58461 0.67208 0.0
H2315 H 0.95403 0.55846 0.68522 0.0
H2316 H 0.98671 0.54363 0.72556 0.0
H2317 H 0.97174 0.54323 0.6971 0.0
H2318 H 0.0446 0.65972 0.72892 0.0
H2319 H 0.02682 0.65914 0.7038 0.0
H2320 H 0.04196 0.64332 0.76514 0.0
H2321 H 0.03917 0.61742 0.7749 0.0
C2322 C 0.38673 0.39934 0.71345 0.0
C2323 C 0.37137 0.37863 0.72734 0.0
C2324 C 0.38635 0.39901 0.77153 0.0
C2325 C 0.40087 0.42 0.75768 0.0
N2326 N 0.41198 0.44146 0.7161 0.0
N2327 N 0.35323 0.35964 0.76933 0.0
C2328 C 0.40025 0.42054 0.72878 0.0
C2329 C 0.37008 0.37877 0.75632 0.0
N2330 N 0.38845 0.39871 0.68559 0.0
N2331 N 0.38881 0.39814 0.79906 0.0
H2332 H 0.34127 0.3443 0.75901 0.0
H2333 H 0.34988 0.3596 0.79016 0.0
H2334 H 0.40058 0.41255 0.81096 0.0
H2335 H 0.38057 0.38273 0.80978 0.0
H2336 H 0.40124 0.41245 0.67454 0.0
H2337 H 0.37781 0.38392 0.67348 0.0
H2338 H 0.41039 0.44338 0.6954 0.0
H2339 H 0.42191 0.45736 0.72673 0.0
C2340 C 0.61203 0.98427 0.74508 0.0
C2341 C 0.61338 0.98888 0.71681 0.0
C2342 C 0.57707 0.98715 0.71979 0.0
C2343 C 0.57452 0.97982 0.74715 0.0
N2344 N 0.58748 0.96706 0.78425 0.0
N2345 N 0.59532 0.99072 0.67599 0.0
C2346 C 0.5914 0.9771 0.75935 0.0
C2347 C 0.59541 0.98929 0.70377 0.0
N2348 N 0.63078 0.98781 0.75867 0.0
N2349 N 0.56245 0.9928 0.70939 0.0
H2350 H 0.60819 0.99186 0.66343 0.0
H2351 H 0.58145 0.98859 0.66517 0.0
H2352 H 0.54891 0.99166 0.72056 0.0
H2353 H 0.56496 0.00061 0.69061 0.0
H2354 H 0.63138 0.987 0.77983 0.0
H2355 H 0.64657 0.99403 0.74928 0.0
H2356 H 0.59823 0.9625 0.79279 0.0
H2357 H 0.57241 0.96122 0.79523 0.0
loop_
_geom_bond_atom_site_label_1
_geom_bond_atom_site_label_2
_geom_bond_distance
_geom_bond_site_symmetry_2
_ccdc_geom_bond_type
C0 O1 1.160 . S
C0 O7 1.185 . S
O1 C0 1.160 . S
O2 Zn3 1.899 1_656 S
O2 C10 1.284 . S
Zn3 O2 1.899 1_454 S
Zn3 O4 2.032 . S
Zn3 O7 2.086 . S
Zn3 O12 1.977 1_554 S
O4 Zn3 2.032 . S
O4 C8 1.278 1_455 S
C5 O6 1.203 1_455 S
C5 O12 1.267 . S
O6 C5 1.203 1_655 S
O7 C0 1.185 . S
O7 Zn3 2.086 . S
C8 O4 1.278 1_655 S
C8 O9 1.211 . S
O9 C8 1.211 . S
C10 O2 1.284 . S
C10 O11 1.273 1_556 S
O11 C10 1.273 1_554 S
O12 Zn3 1.977 1_556 S
O12 C5 1.267 . S
C13 O14 1.160 . S
C13 O20 1.180 1_556 S
O14 C13 1.160 . S
O15 Zn16 1.899 . S
O15 C23 1.284 . S
Zn16 O15 1.899 . S
Zn16 O17 2.032 1_554 S
Zn16 O20 2.089 . S
Zn16 O25 1.977 . S
O17 Zn16 2.032 1_556 S
O17 C21 1.278 . S
C18 O19 1.203 . S
C18 O25 1.267 . S
O19 C18 1.203 . S
O20 C13 1.180 1_554 S
O20 Zn16 2.089 . S
C21 O17 1.278 . S
C21 O22 1.211 . S
O22 C21 1.211 . S
C23 O15 1.284 . S
C23 O24 1.273 . S
O24 C23 1.273 . S
O25 Zn16 1.977 . S
O25 C18 1.267 . S
C26 O27 1.160 . S
C26 O33 1.185 1_556 S
O27 C26 1.160 . S
O28 Zn29 1.899 1_565 S
O28 C36 1.284 . S
Zn29 O28 1.899 1_545 S
Zn29 O30 2.032 1_554 S
Zn29 O33 2.086 . S
Zn29 O38 1.977 . S
O30 Zn29 2.032 1_556 S
O30 C34 1.278 1_545 S
C31 O32 1.203 1_545 S
C31 O38 1.267 . S
O32 C31 1.203 1_565 S
O33 C26 1.185 1_554 S
O33 Zn29 2.086 . S
C34 O30 1.278 1_565 S
C34 O35 1.211 . S
O35 C34 1.211 . S
C36 O28 1.284 . S
C36 O37 1.273 . S
O37 C36 1.273 . S
O38 Zn29 1.977 . S
O38 C31 1.267 . S
C39 O40 1.160 . S
C39 O46 1.185 1_556 S
O40 C39 1.160 . S
O41 Zn42 1.899 1_455 S
O41 C49 1.284 . S
Zn42 O41 1.899 1_655 S
Zn42 O43 2.032 1_654 S
Zn42 O46 2.086 . S
Zn42 O51 1.977 . S
O43 Zn42 2.032 1_456 S
O43 C47 1.278 . S
C44 O45 1.203 1_655 S
C44 O51 1.267 . S
O45 C44 1.203 1_455 S
O46 C39 1.185 1_554 S
O46 Zn42 2.086 . S
C47 O43 1.278 . S
C47 O48 1.211 . S
O48 C47 1.211 . S
C49 O41 1.284 . S
C49 O50 1.273 . S
O50 C49 1.273 . S
O51 Zn42 1.977 . S
O51 C44 1.267 . S
C52 O53 1.160 . S
C52 O59 1.185 . S
O53 C52 1.160 . S
O54 Zn55 1.899 1_556 S
O54 C62 1.284 . S
Zn55 O54 1.899 1_554 S
Zn55 O56 2.032 . S
Zn55 O59 2.086 . S
Zn55 O64 1.977 1_554 S
O56 Zn55 2.032 . S
O56 C60 1.278 . S
C57 O58 1.203 . S
C57 O64 1.267 . S
O58 C57 1.203 . S
O59 C52 1.185 . S
O59 Zn55 2.086 . S
C60 O56 1.278 . S
C60 O61 1.211 . S
O61 C60 1.211 . S
C62 O54 1.284 . S
C62 O63 1.267 1_556 S
O63 C62 1.267 1_554 S
O64 Zn55 1.977 1_556 S
O64 C57 1.267 . S
C65 O66 1.160 . S
C65 O72 1.185 . S
O66 C65 1.160 . S
O67 Zn68 1.899 1_546 S
O67 C75 1.284 . S
Zn68 O67 1.899 1_564 S
Zn68 O69 2.032 1_565 S
Zn68 O72 2.086 . S
Zn68 O77 1.977 1_554 S
O69 Zn68 2.032 1_545 S
O69 C73 1.278 . S
C70 O71 1.203 1_565 S
C70 O77 1.267 . S
O71 C70 1.203 1_545 S
O72 C65 1.185 . S
O72 Zn68 2.086 . S
C73 O69 1.278 . S
C73 O74 1.211 . S
O74 C73 1.211 . S
C75 O67 1.284 . S
C75 O76 1.273 1_556 S
O76 C75 1.273 1_554 S
O77 Zn68 1.977 1_556 S
O77 C70 1.267 . S
C78 O79 1.160 . S
C78 O85 1.185 . S
O79 C78 1.160 . S
O80 Zn81 1.899 . S
O80 C88 1.284 . S
Zn81 O80 1.899 . S
Zn81 O82 2.032 . S
Zn81 O85 2.086 . S
Zn81 O90 1.977 . S
O82 Zn81 2.032 . S
O82 C86 1.278 . S
C83 O84 1.203 . S
C83 O90 1.267 . S
O84 C83 1.203 . S
O85 C78 1.185 . S
O85 Zn81 2.086 . S
C86 O82 1.278 . S
C86 O87 1.211 . S
O87 C86 1.211 . S
C88 O80 1.284 . S
C88 O89 1.273 . S
O89 C88 1.273 . S
O90 Zn81 1.977 . S
O90 C83 1.267 . S
C91 O92 1.160 1_565 S
C91 O98 1.185 . S
O92 C91 1.160 1_545 S
O93 Zn94 1.899 1_545 S
O93 C101 1.284 . S
Zn94 O93 1.899 1_565 S
Zn94 O95 2.032 . S
Zn94 O98 2.086 . S
Zn94 O103 1.977 . S
O95 Zn94 2.032 . S
O95 C99 1.278 . S
C96 O97 1.203 . S
C96 O103 1.267 . S
O97 C96 1.203 . S
O98 C91 1.185 . S
O98 Zn94 2.086 . S
C99 O95 1.278 . S
C99 O100 1.211 . S
O100 C99 1.211 . S
C101 O93 1.284 . S
C101 O102 1.273 . S
O102 C101 1.273 . S
O103 Zn94 1.977 . S
O103 C96 1.267 . S
C104 O105 1.160 1_455 S
C104 O111 1.185 . S
O105 C104 1.160 1_655 S
O106 Zn107 1.899 1_655 S
O106 C114 1.284 . S
Zn107 O106 1.899 1_455 S
Zn107 O108 2.032 . S
Zn107 O111 2.086 . S
Zn107 O116 1.977 . S
O108 Zn107 2.032 . S
O108 C112 1.278 . S
C109 O110 1.203 . S
C109 O116 1.267 . S
O110 C109 1.203 . S
O111 C104 1.185 . S
O111 Zn107 2.086 . S
C112 O108 1.278 . S
C112 O113 1.211 . S
O113 C112 1.211 . S
C114 O106 1.284 . S
C114 O115 1.273 . S
O115 C114 1.273 . S
O116 Zn107 1.977 . S
O116 C109 1.267 . S
C117 O118 1.160 1_565 S
C117 O124 1.185 . S
O118 C117 1.160 1_545 S
O119 Zn120 1.899 1_545 S
O119 C127 1.284 . S
Zn120 O119 1.899 1_565 S
Zn120 O121 2.032 . S
Zn120 O124 2.086 . S
Zn120 O129 1.977 . S
O121 Zn120 2.032 . S
O121 C125 1.278 . S
C122 O123 1.203 . S
C122 O129 1.267 . S
O123 C122 1.203 . S
O124 C117 1.185 . S
O124 Zn120 2.086 . S
C125 O121 1.278 . S
C125 O126 1.211 . S
O126 C125 1.211 . S
C127 O119 1.284 . S
C127 O128 1.273 . S
O128 C127 1.273 . S
O129 Zn120 1.977 . S
O129 C122 1.267 . S
C130 O131 1.160 . S
C130 O137 1.185 . S
O131 C130 1.160 . S
O132 Zn133 1.908 1_655 S
O132 C140 1.251 1_655 S
Zn133 O132 1.908 1_455 S
Zn133 O134 2.032 . S
Zn133 O137 2.086 1_455 S
Zn133 O142 1.977 . S
O134 Zn133 2.032 . S
O134 C138 1.278 . S
C135 O136 1.203 . S
C135 O142 1.267 . S
O136 C135 1.203 . S
O137 C130 1.185 . S
O137 Zn133 2.086 1_655 S
C138 O134 1.278 . S
C138 O139 1.211 . S
O139 C138 1.211 . S
C140 O132 1.251 1_455 S
C140 O141 1.273 . S
O141 C140 1.273 . S
O142 Zn133 1.977 . S
O142 C135 1.267 . S
C143 O144 1.160 . S
C143 O150 1.185 . S
O144 C143 1.160 . S
O145 Zn146 1.899 . S
O145 C153 1.284 . S
Zn146 O145 1.899 . S
Zn146 O147 2.032 . S
Zn146 O150 2.086 . S
Zn146 O155 1.977 . S
O147 Zn146 2.032 . S
O147 C151 1.278 . S
C148 O149 1.203 . S
C148 O155 1.267 . S
O149 C148 1.203 . S
O150 C143 1.185 . S
O150 Zn146 2.086 . S
C151 O147 1.278 . S
C151 O152 1.211 . S
O152 C151 1.211 . S
C153 O145 1.284 . S
C153 O154 1.273 . S
O154 C153 1.273 . S
O155 Zn146 1.977 . S
O155 C148 1.267 . S
C156 O157 1.160 1_545 S
C156 O163 1.185 . S
O157 C156 1.160 1_565 S
O158 Zn159 1.899 1_565 S
O158 C166 1.284 . S
Zn159 O158 1.899 1_545 S
Zn159 O160 2.032 . S
Zn159 O163 2.086 . S
Zn159 O168 1.977 . S
O160 Zn159 2.032 . S
O160 C164 1.278 . S
C161 O162 1.203 . S
C161 O168 1.267 . S
O162 C161 1.203 . S
O163 C156 1.185 . S
O163 Zn159 2.086 . S
C164 O160 1.278 . S
C164 O165 1.211 . S
O165 C164 1.211 . S
C166 O158 1.284 . S
C166 O167 1.273 . S
O167 C166 1.273 . S
O168 Zn159 1.977 . S
O168 C161 1.267 . S
C169 O170 1.160 . S
C169 O176 1.185 . S
O170 C169 1.160 . S
O171 Zn172 1.899 1_455 S
O171 C179 1.284 1_455 S
Zn172 O171 1.899 1_655 S
Zn172 O173 2.032 . S
Zn172 O176 2.086 1_655 S
Zn172 O181 1.977 . S
O173 Zn172 2.032 . S
O173 C177 1.278 . S
C174 O175 1.203 . S
C174 O181 1.267 . S
O175 C174 1.203 . S
O176 C169 1.185 . S
O176 Zn172 2.086 1_455 S
C177 O173 1.278 . S
C177 O178 1.211 . S
O178 C177 1.211 . S
C179 O171 1.284 1_655 S
C179 O180 1.273 . S
O180 C179 1.273 . S
O181 Zn172 1.977 . S
O181 C174 1.267 . S
C182 O183 1.160 . S
C182 O189 1.185 . S
O183 C182 1.160 . S
O184 Zn185 1.899 . S
O184 C192 1.284 . S
Zn185 O184 1.899 . S
Zn185 O186 2.032 . S
Zn185 O189 2.086 . S
Zn185 O194 1.977 . S
O186 Zn185 2.032 . S
O186 C190 1.278 . S
C187 O188 1.203 . S
C187 O194 1.267 . S
O188 C187 1.203 . S
O189 C182 1.185 . S
O189 Zn185 2.086 . S
C190 O186 1.278 . S
C190 O191 1.211 . S
O191 C190 1.211 . S
C192 O184 1.284 . S
C192 O193 1.273 . S
O193 C192 1.273 . S
O194 Zn185 1.977 . S
O194 C187 1.267 . S
C195 O196 1.160 . S
C195 O202 1.185 . S
O196 C195 1.160 . S
O197 Zn198 1.899 . S
O197 C205 1.284 . S
Zn198 O197 1.899 . S
Zn198 O199 2.032 . S
Zn198 O202 2.086 . S
Zn198 O207 1.977 . S
O199 Zn198 2.032 . S
O199 C203 1.278 . S
C200 O201 1.203 . S
C200 O207 1.267 . S
O201 C200 1.203 . S
O202 C195 1.185 . S
O202 Zn198 2.086 . S
C203 O199 1.278 . S
C203 O204 1.211 . S
O204 C203 1.211 . S
C205 O197 1.284 . S
C205 O206 1.273 . S
O206 C205 1.273 . S
O207 Zn198 1.977 . S
O207 C200 1.267 . S
C208 O209 1.160 1_545 S
C208 O215 1.185 . S
O209 C208 1.160 1_565 S
O210 Zn211 1.899 1_565 S
O210 C218 1.284 . S
Zn211 O210 1.899 1_545 S
Zn211 O212 2.032 . S
Zn211 O215 2.086 . S
Zn211 O220 1.977 . S
O212 Zn211 2.032 . S
O212 C216 1.278 . S
C213 O214 1.203 . S
C213 O220 1.267 . S
O214 C213 1.203 . S
O215 C208 1.185 . S
O215 Zn211 2.086 . S
C216 O212 1.278 . S
C216 O217 1.211 . S
O217 C216 1.211 . S
C218 O210 1.284 . S
C218 O219 1.273 . S
O219 C218 1.273 . S
O220 Zn211 1.977 . S
O220 C213 1.267 . S
C221 O222 1.160 1_655 S
C221 O228 1.185 . S
O222 C221 1.160 1_455 S
O223 Zn224 1.899 1_455 S
O223 C231 1.284 . S
Zn224 O223 1.899 1_655 S
Zn224 O225 2.032 . S
Zn224 O228 2.086 . S
Zn224 O233 1.977 . S
O225 Zn224 2.032 . S
O225 C229 1.278 . S
C226 O227 1.203 . S
C226 O233 1.267 . S
O227 C226 1.203 . S
O228 C221 1.185 . S
O228 Zn224 2.086 . S
C229 O225 1.278 . S
C229 O230 1.211 . S
O230 C229 1.211 . S
C231 O223 1.284 . S
C231 O232 1.273 . S
O232 C231 1.273 . S
O233 Zn224 1.977 . S
O233 C226 1.267 . S
C234 C235 1.384 . S
C234 C236 1.384 . S
C234 H262 0.931 . S
C235 C234 1.384 . S
C235 C238 1.382 . S
C236 C234 1.384 . S
C236 C237 1.381 . S
C236 H263 0.930 . S
C237 C236 1.381 . S
C237 C239 1.381 . S
C237 C240 1.487 . S
C238 C235 1.382 . S
C238 C239 1.387 . S
C238 H264 0.930 . S
C239 C237 1.381 . S
C239 C238 1.387 . S
C239 H265 0.931 . S
C240 C237 1.487 . S
C240 C247 1.399 . S
C240 N278 1.343 . S
C241 C242 1.384 . S
C241 C243 1.384 . S
C241 H266 0.931 . S
C242 C241 1.384 . S
C242 C245 1.382 . S
C243 C241 1.384 . S
C243 C244 1.381 . S
C243 H267 0.930 . S
C244 C243 1.381 . S
C244 C246 1.381 . S
C244 C247 1.487 . S
C245 C242 1.382 . S
C245 C246 1.387 . S
C245 H268 0.930 . S
C246 C244 1.381 . S
C246 C245 1.387 . S
C246 H269 0.931 . S
C247 C240 1.399 . S
C247 C244 1.487 . S
C247 N279 1.343 . S
C248 C249 1.384 . S
C248 C250 1.384 . S
C248 H270 0.931 . S
C249 C248 1.384 . S
C249 C252 1.382 . S
C250 C248 1.384 . S
C250 C251 1.381 . S
C250 H271 0.930 . S
C251 C250 1.381 . S
C251 C253 1.381 . S
C251 C254 1.487 . S
C252 C249 1.382 . S
C252 C253 1.387 . S
C252 H272 0.930 . S
C253 C251 1.381 . S
C253 C252 1.387 . S
C253 H273 0.931 . S
C254 C251 1.487 . S
C254 C261 1.399 . S
C254 N279 1.343 . S
C255 C256 1.384 . S
C255 C257 1.384 . S
C255 H274 0.931 . S
C256 C255 1.384 . S
C256 C259 1.382 . S
C257 C255 1.384 . S
C257 C258 1.381 . S
C257 H275 0.930 . S
C258 C257 1.381 . S
C258 C260 1.381 . S
C258 C261 1.487 . S
C259 C256 1.382 . S
C259 C260 1.387 . S
C259 H276 0.930 . S
C260 C258 1.381 . S
C260 C259 1.387 . S
C260 H277 0.931 . S
C261 C254 1.399 . S
C261 C258 1.487 . S
C261 N278 1.343 . S
H262 C234 0.931 . S
H263 C236 0.930 . S
H264 C238 0.930 . S
H265 C239 0.931 . S
H266 C241 0.931 . S
H267 C243 0.930 . S
H268 C245 0.930 . S
H269 C246 0.931 . S
H270 C248 0.931 . S
H271 C250 0.930 . S
H272 C252 0.930 . S
H273 C253 0.931 . S
H274 C255 0.931 . S
H275 C257 0.930 . S
H276 C259 0.930 . S
H277 C260 0.931 . S
N278 C240 1.343 . S
N278 C261 1.343 . S
N279 C247 1.343 . S
N279 C254 1.343 . S
C280 C281 1.384 . S
C280 C282 1.384 . S
C280 H308 0.931 . S
C281 C280 1.384 . S
C281 C284 1.382 . S
C282 C280 1.384 . S
C282 C283 1.381 . S
C282 H309 0.930 . S
C283 C282 1.381 . S
C283 C285 1.381 . S
C283 C286 1.487 . S
C284 C281 1.382 . S
C284 C285 1.387 . S
C284 H310 0.930 . S
C285 C283 1.381 . S
C285 C284 1.387 . S
C285 H311 0.931 . S
C286 C283 1.487 . S
C286 C293 1.399 . S
C286 N324 1.343 . S
C287 C288 1.384 . S
C287 C289 1.384 . S
C287 H312 0.931 . S
C288 C287 1.384 . S
C288 C291 1.382 . S
C289 C287 1.384 . S
C289 C290 1.381 . S
C289 H313 0.930 . S
C290 C289 1.381 . S
C290 C292 1.381 . S
C290 C293 1.487 . S
C291 C288 1.382 . S
C291 C292 1.387 . S
C291 H314 0.930 . S
C292 C290 1.381 . S
C292 C291 1.387 . S
C292 H315 0.931 . S
C293 C286 1.399 . S
C293 C290 1.487 . S
C293 N325 1.343 . S
C294 C295 1.384 . S
C294 C296 1.384 . S
C294 H316 0.931 . S
C295 C294 1.384 . S
C295 C298 1.382 . S
C296 C294 1.384 . S
C296 C297 1.381 . S
C296 H317 0.930 . S
C297 C296 1.381 . S
C297 C299 1.381 . S
C297 C300 1.487 . S
C298 C295 1.382 . S
C298 C299 1.387 . S
C298 H318 0.930 . S
C299 C297 1.381 . S
C299 C298 1.387 . S
C299 H319 0.931 . S
C300 C297 1.487 . S
C300 C307 1.399 . S
C300 N325 1.343 . S
C301 C302 1.384 . S
C301 C303 1.384 . S
C301 H320 0.931 . S
C302 C301 1.384 . S
C302 C305 1.382 . S
C303 C301 1.384 . S
C303 C304 1.381 . S
C303 H321 0.930 . S
C304 C303 1.381 . S
C304 C306 1.381 . S
C304 C307 1.487 . S
C305 C302 1.382 . S
C305 C306 1.387 . S
C305 H322 0.930 . S
C306 C304 1.381 . S
C306 C305 1.387 . S
C306 H323 0.931 . S
C307 C300 1.399 . S
C307 C304 1.487 . S
C307 N324 1.343 . S
H308 C280 0.931 . S
H309 C282 0.930 . S
H310 C284 0.930 . S
H311 C285 0.931 . S
H312 C287 0.931 . S
H313 C289 0.930 . S
H314 C291 0.930 . S
H315 C292 0.931 . S
H316 C294 0.931 . S
H317 C296 0.930 . S
H318 C298 0.930 . S
H319 C299 0.931 . S
H320 C301 0.931 . S
H321 C303 0.930 . S
H322 C305 0.930 . S
H323 C306 0.931 . S
N324 C286 1.343 . S
N324 C307 1.343 . S
N325 C293 1.343 . S
N325 C300 1.343 . S
C326 C327 1.384 . S
C326 C328 1.384 . S
C326 H354 0.931 . S
C327 C326 1.384 . S
C327 C330 1.382 . S
C328 C326 1.384 . S
C328 C329 1.381 . S
C328 H355 0.930 . S
C329 C328 1.381 . S
C329 C331 1.381 . S
C329 C332 1.487 . S
C330 C327 1.382 . S
C330 C331 1.387 . S
C330 H356 0.930 . S
C331 C329 1.381 . S
C331 C330 1.387 . S
C331 H357 0.931 . S
C332 C329 1.487 . S
C332 C339 1.399 . S
C332 N370 1.343 . S
C333 C334 1.384 . S
C333 C335 1.384 . S
C333 H358 0.931 . S
C334 C333 1.384 . S
C334 C337 1.382 . S
C335 C333 1.384 . S
C335 C336 1.381 . S
C335 H359 0.930 . S
C336 C335 1.381 . S
C336 C338 1.381 . S
C336 C339 1.487 . S
C337 C334 1.382 . S
C337 C338 1.387 . S
C337 H360 0.930 . S
C338 C336 1.381 . S
C338 C337 1.387 . S
C338 H361 0.931 . S
C339 C332 1.399 . S
C339 C336 1.487 . S
C339 N371 1.343 . S
C340 C341 1.384 . S
C340 C342 1.384 . S
C340 H362 0.931 . S
C341 C340 1.384 . S
C341 C344 1.382 . S
C342 C340 1.384 . S
C342 C343 1.381 . S
C342 H363 0.930 . S
C343 C342 1.381 . S
C343 C345 1.381 . S
C343 C346 1.487 . S
C344 C341 1.382 . S
C344 C345 1.387 . S
C344 H364 0.930 . S
C345 C343 1.381 . S
C345 C344 1.387 . S
C345 H365 0.931 . S
C346 C343 1.487 . S
C346 C353 1.399 . S
C346 N371 1.343 . S
C347 C348 1.384 . S
C347 C349 1.384 . S
C347 H366 0.931 . S
C348 C347 1.384 . S
C348 C351 1.382 . S
C349 C347 1.384 . S
C349 C350 1.381 . S
C349 H367 0.930 . S
C350 C349 1.381 . S
C350 C352 1.381 . S
C350 C353 1.487 . S
C351 C348 1.382 . S
C351 C352 1.387 . S
C351 H368 0.930 . S
C352 C350 1.381 . S
C352 C351 1.387 . S
C352 H369 0.931 . S
C353 C346 1.399 . S
C353 C350 1.487 . S
C353 N370 1.343 . S
H354 C326 0.931 . S
H355 C328 0.930 . S
H356 C330 0.930 . S
H357 C331 0.931 . S
H358 C333 0.931 . S
H359 C335 0.930 . S
H360 C337 0.930 . S
H361 C338 0.931 . S
H362 C340 0.931 . S
H363 C342 0.930 . S
H364 C344 0.930 . S
H365 C345 0.931 . S
H366 C347 0.931 . S
H367 C349 0.930 . S
H368 C351 0.930 . S
H369 C352 0.931 . S
N370 C332 1.343 . S
N370 C353 1.343 . S
N371 C339 1.343 . S
N371 C346 1.343 . S
C372 C373 1.384 . S
C372 C374 1.384 . S
C372 H400 0.931 . S
C373 C372 1.384 . S
C373 C376 1.382 . S
C374 C372 1.384 . S
C374 C375 1.381 . S
C374 H401 0.930 . S
C375 C374 1.381 . S
C375 C377 1.381 . S
C375 C378 1.487 . S
C376 C373 1.382 . S
C376 C377 1.387 . S
C376 H402 0.930 . S
C377 C375 1.381 . S
C377 C376 1.387 . S
C377 H403 0.931 . S
C378 C375 1.487 . S
C378 C385 1.399 . S
C378 N416 1.343 . S
C379 C380 1.384 . S
C379 C381 1.384 . S
C379 H404 0.931 . S
C380 C379 1.384 . S
C380 C383 1.382 . S
C381 C379 1.384 . S
C381 C382 1.381 . S
C381 H405 0.930 . S
C382 C381 1.381 . S
C382 C384 1.381 . S
C382 C385 1.487 . S
C383 C380 1.382 . S
C383 C384 1.387 . S
C383 H406 0.930 . S
C384 C382 1.381 . S
C384 C383 1.387 . S
C384 H407 0.931 . S
C385 C378 1.399 . S
C385 C382 1.487 . S
C385 N417 1.343 . S
C386 C387 1.384 . S
C386 C388 1.384 . S
C386 H408 0.931 . S
C387 C386 1.384 . S
C387 C390 1.382 . S
C388 C386 1.384 . S
C388 C389 1.381 . S
C388 H409 0.930 . S
C389 C388 1.381 . S
C389 C391 1.381 . S
C389 C392 1.487 . S
C390 C387 1.382 . S
C390 C391 1.387 . S
C390 H410 0.930 . S
C391 C389 1.381 . S
C391 C390 1.387 . S
C391 H411 0.931 . S
C392 C389 1.487 . S
C392 C399 1.399 . S
C392 N417 1.343 . S
C393 C394 1.384 . S
C393 C395 1.384 . S
C393 H412 0.931 . S
C394 C393 1.384 . S
C394 C397 1.382 . S
C395 C393 1.384 . S
C395 C396 1.381 . S
C395 H413 0.930 . S
C396 C395 1.381 . S
C396 C398 1.381 . S
C396 C399 1.487 . S
C397 C394 1.382 . S
C397 C398 1.387 . S
C397 H414 0.930 . S
C398 C396 1.381 . S
C398 C397 1.387 . S
C398 H415 0.931 . S
C399 C392 1.399 . S
C399 C396 1.487 . S
C399 N416 1.343 . S
H400 C372 0.931 . S
H401 C374 0.930 . S
H402 C376 0.930 . S
H403 C377 0.931 . S
H404 C379 0.931 . S
H405 C381 0.930 . S
H406 C383 0.930 . S
H407 C384 0.931 . S
H408 C386 0.931 . S
H409 C388 0.930 . S
H410 C390 0.930 . S
H411 C391 0.931 . S
H412 C393 0.931 . S
H413 C395 0.930 . S
H414 C397 0.930 . S
H415 C398 0.931 . S
N416 C378 1.343 . S
N416 C399 1.343 . S
N417 C385 1.343 . S
N417 C392 1.343 . S
C418 C419 1.384 . S
C418 C420 1.384 . S
C418 H446 0.931 . S
C419 C418 1.384 . S
C419 C422 1.382 . S
C420 C418 1.384 . S
C420 C421 1.381 . S
C420 H447 0.930 . S
C421 C420 1.381 . S
C421 C423 1.381 . S
C421 C424 1.487 . S
C422 C419 1.382 . S
C422 C423 1.387 . S
C422 H448 0.930 . S
C423 C421 1.381 . S
C423 C422 1.387 . S
C423 H449 0.931 . S
C424 C421 1.487 . S
C424 C431 1.399 . S
C424 N462 1.343 . S
C425 C426 1.384 . S
C425 C427 1.384 . S
C425 H450 0.931 . S
C426 C425 1.384 . S
C426 C429 1.382 . S
C427 C425 1.384 . S
C427 C428 1.381 . S
C427 H451 0.930 . S
C428 C427 1.381 . S
C428 C430 1.381 . S
C428 C431 1.487 . S
C429 C426 1.382 . S
C429 C430 1.387 . S
C429 H452 0.930 . S
C430 C428 1.381 . S
C430 C429 1.387 . S
C430 H453 0.931 . S
C431 C424 1.399 . S
C431 C428 1.487 . S
C431 N463 1.343 . S
C432 C433 1.384 . S
C432 C434 1.384 . S
C432 H454 0.931 . S
C433 C432 1.384 . S
C433 C436 1.382 . S
C434 C432 1.384 . S
C434 C435 1.381 . S
C434 H455 0.930 . S
C435 C434 1.381 . S
C435 C437 1.381 . S
C435 C438 1.487 . S
C436 C433 1.382 . S
C436 C437 1.387 . S
C436 H456 0.930 . S
C437 C435 1.381 . S
C437 C436 1.387 . S
C437 H457 0.931 . S
C438 C435 1.487 . S
C438 C445 1.399 . S
C438 N463 1.343 . S
C439 C440 1.384 . S
C439 C441 1.384 . S
C439 H458 0.931 . S
C440 C439 1.384 . S
C440 C443 1.382 . S
C441 C439 1.384 . S
C441 C442 1.381 . S
C441 H459 0.930 . S
C442 C441 1.381 . S
C442 C444 1.381 . S
C442 C445 1.487 . S
C443 C440 1.382 . S
C443 C444 1.387 . S
C443 H460 0.930 . S
C444 C442 1.381 . S
C444 C443 1.387 . S
C444 H461 0.931 . S
C445 C438 1.399 . S
C445 C442 1.487 . S
C445 N462 1.343 . S
H446 C418 0.931 . S
H447 C420 0.930 . S
H448 C422 0.930 . S
H449 C423 0.931 . S
H450 C425 0.931 . S
H451 C427 0.930 . S
H452 C429 0.930 . S
H453 C430 0.931 . S
H454 C432 0.931 . S
H455 C434 0.930 . S
H456 C436 0.930 . S
H457 C437 0.931 . S
H458 C439 0.931 . S
H459 C441 0.930 . S
H460 C443 0.930 . S
H461 C444 0.931 . S
N462 C424 1.343 . S
N462 C445 1.343 . S
N463 C431 1.343 . S
N463 C438 1.343 . S
C464 C465 1.384 . S
C464 C466 1.384 . S
C464 H492 0.931 . S
C465 C464 1.384 . S
C465 C468 1.382 . S
C466 C464 1.384 . S
C466 C467 1.381 . S
C466 H493 0.930 . S
C467 C466 1.381 . S
C467 C469 1.381 . S
C467 C470 1.487 . S
C468 C465 1.382 . S
C468 C469 1.387 . S
C468 H494 0.930 . S
C469 C467 1.381 . S
C469 C468 1.387 . S
C469 H495 0.931 . S
C470 C467 1.487 . S
C470 C477 1.399 . S
C470 N508 1.343 . S
C471 C472 1.384 . S
C471 C473 1.384 . S
C471 H496 0.931 . S
C472 C471 1.384 . S
C472 C475 1.382 . S
C473 C471 1.384 . S
C473 C474 1.381 . S
C473 H497 0.930 . S
C474 C473 1.381 . S
C474 C476 1.381 . S
C474 C477 1.487 . S
C475 C472 1.382 . S
C475 C476 1.387 . S
C475 H498 0.930 . S
C476 C474 1.381 . S
C476 C475 1.387 . S
C476 H499 0.931 . S
C477 C470 1.399 . S
C477 C474 1.487 . S
C477 N509 1.343 . S
C478 C479 1.384 . S
C478 C480 1.384 . S
C478 H500 0.931 . S
C479 C478 1.384 . S
C479 C482 1.382 . S
C480 C478 1.384 . S
C480 C481 1.381 . S
C480 H501 0.930 . S
C481 C480 1.381 . S
C481 C483 1.381 . S
C481 C484 1.487 . S
C482 C479 1.382 . S
C482 C483 1.387 . S
C482 H502 0.930 . S
C483 C481 1.381 . S
C483 C482 1.387 . S
C483 H503 0.931 . S
C484 C481 1.487 . S
C484 C491 1.399 . S
C484 N509 1.343 . S
C485 C486 1.384 . S
C485 C487 1.384 . S
C485 H504 0.931 . S
C486 C485 1.384 . S
C486 C489 1.382 . S
C487 C485 1.384 . S
C487 C488 1.381 . S
C487 H505 0.930 . S
C488 C487 1.381 . S
C488 C490 1.381 . S
C488 C491 1.487 . S
C489 C486 1.382 . S
C489 C490 1.387 . S
C489 H506 0.930 . S
C490 C488 1.381 . S
C490 C489 1.387 . S
C490 H507 0.931 . S
C491 C484 1.399 . S
C491 C488 1.487 . S
C491 N508 1.343 . S
H492 C464 0.931 . S
H493 C466 0.930 . S
H494 C468 0.930 . S
H495 C469 0.931 . S
H496 C471 0.931 . S
H497 C473 0.930 . S
H498 C475 0.930 . S
H499 C476 0.931 . S
H500 C478 0.931 . S
H501 C480 0.930 . S
H502 C482 0.930 . S
H503 C483 0.931 . S
H504 C485 0.931 . S
H505 C487 0.930 . S
H506 C489 0.930 . S
H507 C490 0.931 . S
N508 C470 1.343 . S
N508 C491 1.343 . S
N509 C477 1.343 . S
N509 C484 1.343 . S
C510 C511 1.384 . S
C510 C512 1.384 . S
C510 H538 0.931 . S
C511 C510 1.384 . S
C511 C514 1.382 . S
C512 C510 1.384 . S
C512 C513 1.381 . S
C512 H539 0.930 . S
C513 C512 1.381 . S
C513 C515 1.381 . S
C513 C516 1.487 . S
C514 C511 1.382 . S
C514 C515 1.387 . S
C514 H540 0.930 . S
C515 C513 1.381 . S
C515 C514 1.387 . S
C515 H541 0.931 . S
C516 C513 1.487 . S
C516 C523 1.399 . S
C516 N554 1.343 . S
C517 C518 1.384 . S
C517 C519 1.384 . S
C517 H542 0.931 . S
C518 C517 1.384 . S
C518 C521 1.382 . S
C519 C517 1.384 . S
C519 C520 1.381 . S
C519 H543 0.930 . S
C520 C519 1.381 . S
C520 C522 1.381 . S
C520 C523 1.487 . S
C521 C518 1.382 . S
C521 C522 1.387 . S
C521 H544 0.930 . S
C522 C520 1.381 . S
C522 C521 1.387 . S
C522 H545 0.931 . S
C523 C516 1.399 . S
C523 C520 1.487 . S
C523 N555 1.343 . S
C524 C525 1.384 . S
C524 C526 1.384 . S
C524 H546 0.931 . S
C525 C524 1.384 . S
C525 C528 1.382 . S
C526 C524 1.384 . S
C526 C527 1.381 . S
C526 H547 0.930 . S
C527 C526 1.381 . S
C527 C529 1.381 . S
C527 C530 1.487 . S
C528 C525 1.382 . S
C528 C529 1.387 . S
C528 H548 0.930 . S
C529 C527 1.381 . S
C529 C528 1.387 . S
C529 H549 0.931 . S
C530 C527 1.487 . S
C530 C537 1.399 . S
C530 N555 1.343 . S
C531 C532 1.384 . S
C531 C533 1.384 . S
C531 H550 0.931 . S
C532 C531 1.384 . S
C532 C535 1.382 . S
C533 C531 1.384 . S
C533 C534 1.381 . S
C533 H551 0.930 . S
C534 C533 1.381 . S
C534 C536 1.381 . S
C534 C537 1.487 . S
C535 C532 1.382 . S
C535 C536 1.387 . S
C535 H552 0.930 . S
C536 C534 1.381 . S
C536 C535 1.387 . S
C536 H553 0.931 . S
C537 C530 1.399 . S
C537 C534 1.487 . S
C537 N554 1.343 . S
H538 C510 0.931 . S
H539 C512 0.930 . S
H540 C514 0.930 . S
H541 C515 0.931 . S
H542 C517 0.931 . S
H543 C519 0.930 . S
H544 C521 0.930 . S
H545 C522 0.931 . S
H546 C524 0.931 . S
H547 C526 0.930 . S
H548 C528 0.930 . S
H549 C529 0.931 . S
H550 C531 0.931 . S
H551 C533 0.930 . S
H552 C535 0.930 . S
H553 C536 0.931 . S
N554 C516 1.343 . S
N554 C537 1.343 . S
N555 C523 1.343 . S
N555 C530 1.343 . S
C556 C557 1.384 . S
C556 C558 1.384 . S
C556 H584 0.931 . S
C557 C556 1.384 . S
C557 C560 1.382 . S
C558 C556 1.384 . S
C558 C559 1.381 . S
C558 H585 0.930 . S
C559 C558 1.381 . S
C559 C561 1.381 . S
C559 C562 1.487 . S
C560 C557 1.382 . S
C560 C561 1.387 . S
C560 H586 0.930 . S
C561 C559 1.381 . S
C561 C560 1.387 . S
C561 H587 0.931 . S
C562 C559 1.487 . S
C562 C569 1.399 . S
C562 N600 1.343 . S
C563 C564 1.384 . S
C563 C565 1.384 . S
C563 H588 0.931 . S
C564 C563 1.384 . S
C564 C567 1.382 . S
C565 C563 1.384 . S
C565 C566 1.381 . S
C565 H589 0.930 . S
C566 C565 1.381 . S
C566 C568 1.381 . S
C566 C569 1.487 . S
C567 C564 1.382 . S
C567 C568 1.387 . S
C567 H590 0.930 . S
C568 C566 1.381 . S
C568 C567 1.387 . S
C568 H591 0.931 . S
C569 C562 1.399 . S
C569 C566 1.487 . S
C569 N601 1.343 . S
C570 C571 1.384 . S
C570 C572 1.384 . S
C570 H592 0.931 . S
C571 C570 1.384 . S
C571 C574 1.382 . S
C572 C570 1.384 . S
C572 C573 1.381 . S
C572 H593 0.930 . S
C573 C572 1.381 . S
C573 C575 1.381 . S
C573 C576 1.487 . S
C574 C571 1.382 . S
C574 C575 1.387 . S
C574 H594 0.930 . S
C575 C573 1.381 . S
C575 C574 1.387 . S
C575 H595 0.931 . S
C576 C573 1.487 . S
C576 C583 1.399 . S
C576 N601 1.343 . S
C577 C578 1.384 . S
C577 C579 1.384 . S
C577 H596 0.931 . S
C578 C577 1.384 . S
C578 C581 1.382 . S
C579 C577 1.384 . S
C579 C580 1.381 . S
C579 H597 0.930 . S
C580 C579 1.381 . S
C580 C582 1.381 . S
C580 C583 1.487 . S
C581 C578 1.382 . S
C581 C582 1.387 . S
C581 H598 0.930 . S
C582 C580 1.381 . S
C582 C581 1.387 . S
C582 H599 0.931 . S
C583 C576 1.399 . S
C583 C580 1.487 . S
C583 N600 1.343 . S
H584 C556 0.931 . S
H585 C558 0.930 . S
H586 C560 0.930 . S
H587 C561 0.931 . S
H588 C563 0.931 . S
H589 C565 0.930 . S
H590 C567 0.930 . S
H591 C568 0.931 . S
H592 C570 0.931 . S
H593 C572 0.930 . S
H594 C574 0.930 . S
H595 C575 0.931 . S
H596 C577 0.931 . S
H597 C579 0.930 . S
H598 C581 0.930 . S
H599 C582 0.931 . S
N600 C562 1.343 . S
N600 C583 1.343 . S
N601 C569 1.343 . S
N601 C576 1.343 . S
C602 C603 1.384 . S
C602 C604 1.384 . S
C602 H630 0.931 . S
C603 C602 1.384 . S
C603 C606 1.382 . S
C604 C602 1.384 . S
C604 C605 1.381 . S
C604 H631 0.930 . S
C605 C604 1.381 . S
C605 C607 1.381 . S
C605 C608 1.487 . S
C606 C603 1.382 . S
C606 C607 1.387 . S
C606 H632 0.930 . S
C607 C605 1.381 . S
C607 C606 1.387 . S
C607 H633 0.931 . S
C608 C605 1.487 . S
C608 C615 1.399 . S
C608 N646 1.343 . S
C609 C610 1.384 . S
C609 C611 1.384 . S
C609 H634 0.931 . S
C610 C609 1.384 . S
C610 C613 1.382 . S
C611 C609 1.384 . S
C611 C612 1.381 . S
C611 H635 0.930 . S
C612 C611 1.381 . S
C612 C614 1.381 . S
C612 C615 1.487 . S
C613 C610 1.382 . S
C613 C614 1.387 . S
C613 H636 0.930 . S
C614 C612 1.381 . S
C614 C613 1.387 . S
C614 H637 0.931 . S
C615 C608 1.399 . S
C615 C612 1.487 . S
C615 N647 1.343 . S
C616 C617 1.384 . S
C616 C618 1.384 . S
C616 H638 0.931 . S
C617 C616 1.384 . S
C617 C620 1.382 . S
C618 C616 1.384 . S
C618 C619 1.381 . S
C618 H639 0.930 . S
C619 C618 1.381 . S
C619 C621 1.381 . S
C619 C622 1.487 . S
C620 C617 1.382 . S
C620 C621 1.387 . S
C620 H640 0.930 . S
C621 C619 1.381 . S
C621 C620 1.387 . S
C621 H641 0.931 . S
C622 C619 1.487 . S
C622 C629 1.399 . S
C622 N647 1.343 . S
C623 C624 1.384 . S
C623 C625 1.384 . S
C623 H642 0.931 . S
C624 C623 1.384 . S
C624 C627 1.382 . S
C625 C623 1.384 . S
C625 C626 1.381 . S
C625 H643 0.930 . S
C626 C625 1.381 . S
C626 C628 1.381 . S
C626 C629 1.487 . S
C627 C624 1.382 . S
C627 C628 1.387 . S
C627 H644 0.930 . S
C628 C626 1.381 . S
C628 C627 1.387 . S
C628 H645 0.931 . S
C629 C622 1.399 . S
C629 C626 1.487 . S
C629 N646 1.343 . S
H630 C602 0.931 . S
H631 C604 0.930 . S
H632 C606 0.930 . S
H633 C607 0.931 . S
H634 C609 0.931 . S
H635 C611 0.930 . S
H636 C613 0.930 . S
H637 C614 0.931 . S
H638 C616 0.931 . S
H639 C618 0.930 . S
H640 C620 0.930 . S
H641 C621 0.931 . S
H642 C623 0.931 . S
H643 C625 0.930 . S
H644 C627 0.930 . S
H645 C628 0.931 . S
N646 C608 1.343 . S
N646 C629 1.343 . S
N647 C615 1.343 . S
N647 C622 1.343 . S
C648 C649 1.384 . S
C648 C650 1.384 . S
C648 H676 0.931 . S
C649 C648 1.384 . S
C649 C652 1.382 1_655 S
C650 C648 1.384 . S
C650 C651 1.430 . S
C650 H677 0.930 . S
C651 C650 1.430 . S
C651 C653 1.358 1_655 S
C651 C654 1.465 1_655 S
C652 C649 1.382 1_455 S
C652 C653 1.387 . S
C652 H678 0.930 . S
C653 C651 1.358 1_455 S
C653 C652 1.387 . S
C653 H679 0.931 . S
C654 C651 1.465 1_455 S
C654 C661 1.399 1_455 S
C654 N692 1.342 . S
C655 C656 1.384 . S
C655 C657 1.384 . S
C655 H680 0.931 . S
C656 C655 1.384 . S
C656 C659 1.382 1_455 S
C657 C655 1.384 . S
C657 C658 1.380 1_455 S
C657 H681 0.930 . S
C658 C657 1.380 1_655 S
C658 C660 1.387 . S
C658 C661 1.494 . S
C659 C656 1.382 1_655 S
C659 C660 1.387 . S
C659 H682 0.930 . S
C660 C658 1.387 . S
C660 C659 1.387 . S
C660 H683 0.931 . S
C661 C654 1.399 1_655 S
C661 C658 1.494 . S
C661 N693 1.358 . S
C662 C663 1.384 . S
C662 C664 1.384 . S
C662 H684 0.931 . S
C663 C662 1.384 . S
C663 C666 1.382 1_455 S
C664 C662 1.384 . S
C664 C665 1.381 . S
C664 H685 0.930 . S
C665 C664 1.381 . S
C665 C667 1.381 1_455 S
C665 C668 1.488 . S
C666 C663 1.382 1_655 S
C666 C667 1.387 . S
C666 H686 0.930 . S
C667 C665 1.381 1_655 S
C667 C666 1.387 . S
C667 H687 0.931 . S
C668 C665 1.488 . S
C668 C675 1.399 . S
C668 N693 1.313 1_455 S
C669 C670 1.384 . S
C669 C671 1.384 . S
C669 H688 0.931 . S
C670 C669 1.384 . S
C670 C673 1.382 1_655 S
C671 C669 1.384 . S
C671 C672 1.378 1_655 S
C671 H689 0.930 . S
C672 C671 1.378 1_455 S
C672 C674 1.395 . S
C672 C675 1.494 . S
C673 C670 1.382 1_455 S
C673 C674 1.387 . S
C673 H690 0.930 . S
C674 C672 1.395 . S
C674 C673 1.387 . S
C674 H691 0.931 . S
C675 C668 1.399 . S
C675 C672 1.494 . S
C675 N692 1.326 . S
H676 C648 0.931 . S
H677 C650 0.930 . S
H678 C652 0.930 . S
H679 C653 0.931 . S
H680 C655 0.931 . S
H681 C657 0.930 . S
H682 C659 0.930 . S
H683 C660 0.931 . S
H684 C662 0.931 . S
H685 C664 0.930 . S
H686 C666 0.930 . S
H687 C667 0.931 . S
H688 C669 0.931 . S
H689 C671 0.930 . S
H690 C673 0.930 . S
H691 C674 0.931 . S
N692 C654 1.342 . S
N692 C675 1.326 . S
N693 C661 1.358 . S
N693 C668 1.313 1_655 S
C694 C695 1.384 . S
C694 C696 1.384 . S
C694 H722 0.931 . S
C695 C694 1.384 . S
C695 C698 1.382 . S
C696 C694 1.384 . S
C696 C697 1.381 . S
C696 H723 0.930 . S
C697 C696 1.381 . S
C697 C699 1.381 . S
C697 C700 1.487 . S
C698 C695 1.382 . S
C698 C699 1.387 . S
C698 H724 0.930 . S
C699 C697 1.381 . S
C699 C698 1.387 . S
C699 H725 0.931 . S
C700 C697 1.487 . S
C700 C707 1.399 . S
C700 N738 1.343 . S
C701 C702 1.384 . S
C701 C703 1.384 . S
C701 H726 0.931 . S
C702 C701 1.384 . S
C702 C705 1.382 . S
C703 C701 1.384 . S
C703 C704 1.381 . S
C703 H727 0.930 . S
C704 C703 1.381 . S
C704 C706 1.381 . S
C704 C707 1.487 . S
C705 C702 1.382 . S
C705 C706 1.387 . S
C705 H728 0.930 . S
C706 C704 1.381 . S
C706 C705 1.387 . S
C706 H729 0.931 . S
C707 C700 1.399 . S
C707 C704 1.487 . S
C707 N739 1.343 . S
C708 C709 1.384 . S
C708 C710 1.384 . S
C708 H730 0.931 . S
C709 C708 1.384 . S
C709 C712 1.382 . S
C710 C708 1.384 . S
C710 C711 1.381 . S
C710 H731 0.930 . S
C711 C710 1.381 . S
C711 C713 1.381 . S
C711 C714 1.487 . S
C712 C709 1.382 . S
C712 C713 1.387 . S
C712 H732 0.930 . S
C713 C711 1.381 . S
C713 C712 1.387 . S
C713 H733 0.931 . S
C714 C711 1.487 . S
C714 C721 1.399 . S
C714 N739 1.343 . S
C715 C716 1.384 . S
C715 C717 1.384 . S
C715 H734 0.931 . S
C716 C715 1.384 . S
C716 C719 1.382 . S
C717 C715 1.384 . S
C717 C718 1.381 . S
C717 H735 0.930 . S
C718 C717 1.381 . S
C718 C720 1.381 . S
C718 C721 1.487 . S
C719 C716 1.382 . S
C719 C720 1.387 . S
C719 H736 0.930 . S
C720 C718 1.381 . S
C720 C719 1.387 . S
C720 H737 0.931 . S
C721 C714 1.399 . S
C721 C718 1.487 . S
C721 N738 1.343 . S
H722 C694 0.931 . S
H723 C696 0.930 . S
H724 C698 0.930 . S
H725 C699 0.931 . S
H726 C701 0.931 . S
H727 C703 0.930 . S
H728 C705 0.930 . S
H729 C706 0.931 . S
H730 C708 0.931 . S
H731 C710 0.930 . S
H732 C712 0.930 . S
H733 C713 0.931 . S
H734 C715 0.931 . S
H735 C717 0.930 . S
H736 C719 0.930 . S
H737 C720 0.931 . S
N738 C700 1.343 . S
N738 C721 1.343 . S
N739 C707 1.343 . S
N739 C714 1.343 . S
C740 C741 1.384 1_545 S
C740 C742 1.384 . S
C740 H768 0.931 . S
C741 C740 1.384 1_565 S
C741 C744 1.382 . S
C742 C740 1.384 . S
C742 C743 1.381 1_545 S
C742 H769 0.930 . S
C743 C742 1.381 1_565 S
C743 C745 1.381 . S
C743 C746 1.487 . S
C744 C741 1.382 . S
C744 C745 1.387 . S
C744 H770 0.930 . S
C745 C743 1.381 . S
C745 C744 1.387 . S
C745 H771 0.931 . S
C746 C743 1.487 . S
C746 C753 1.399 1_565 S
C746 N784 1.343 . S
C747 C748 1.384 1_565 S
C747 C749 1.384 . S
C747 H772 0.931 . S
C748 C747 1.384 1_545 S
C748 C751 1.382 . S
C749 C747 1.384 . S
C749 C750 1.381 1_565 S
C749 H773 0.930 . S
C750 C749 1.381 1_545 S
C750 C752 1.381 . S
C750 C753 1.487 . S
C751 C748 1.382 . S
C751 C752 1.387 . S
C751 H774 0.930 . S
C752 C750 1.381 . S
C752 C751 1.387 . S
C752 H775 0.931 . S
C753 C746 1.399 1_545 S
C753 C750 1.487 . S
C753 N785 1.343 . S
C754 C755 1.384 1_565 S
C754 C756 1.384 . S
C754 H776 0.931 . S
C755 C754 1.384 1_545 S
C755 C758 1.382 . S
C756 C754 1.384 . S
C756 C757 1.381 1_565 S
C756 H777 0.930 . S
C757 C756 1.381 1_545 S
C757 C759 1.381 . S
C757 C760 1.487 . S
C758 C755 1.382 . S
C758 C759 1.387 . S
C758 H778 0.930 . S
C759 C757 1.381 . S
C759 C758 1.387 . S
C759 H779 0.931 . S
C760 C757 1.487 . S
C760 C767 1.399 1_545 S
C760 N785 1.343 . S
C761 C762 1.384 1_545 S
C761 C763 1.384 . S
C761 H780 0.931 . S
C762 C761 1.384 1_565 S
C762 C765 1.382 . S
C763 C761 1.384 . S
C763 C764 1.381 1_545 S
C763 H781 0.930 . S
C764 C763 1.381 1_565 S
C764 C766 1.381 . S
C764 C767 1.487 . S
C765 C762 1.382 . S
C765 C766 1.387 . S
C765 H782 0.930 . S
C766 C764 1.381 . S
C766 C765 1.387 . S
C766 H783 0.931 . S
C767 C760 1.399 1_565 S
C767 C764 1.487 . S
C767 N784 1.343 . S
H768 C740 0.931 . S
H769 C742 0.930 . S
H770 C744 0.930 . S
H771 C745 0.931 . S
H772 C747 0.931 . S
H773 C749 0.930 . S
H774 C751 0.930 . S
H775 C752 0.931 . S
H776 C754 0.931 . S
H777 C756 0.930 . S
H778 C758 0.930 . S
H779 C759 0.931 . S
H780 C761 0.931 . S
H781 C763 0.930 . S
H782 C765 0.930 . S
H783 C766 0.931 . S
N784 C746 1.343 . S
N784 C767 1.343 . S
N785 C753 1.343 . S
N785 C760 1.343 . S
C786 C787 1.384 . S
C786 C788 1.384 . S
C786 H814 0.931 . S
C787 C786 1.384 . S
C787 C790 1.382 1_545 S
C788 C786 1.384 . S
C788 C789 1.381 1_545 S
C788 H815 0.930 . S
C789 C788 1.381 1_565 S
C789 C791 1.383 . S
C789 C792 1.495 . S
C790 C787 1.382 1_565 S
C790 C791 1.387 . S
C790 H816 0.930 . S
C791 C789 1.383 . S
C791 C790 1.387 . S
C791 H817 0.931 . S
C792 C789 1.495 . S
C792 C799 1.400 1_565 S
C792 N830 1.361 . S
C793 C794 1.384 . S
C793 C795 1.384 . S
C793 H818 0.931 . S
C794 C793 1.384 . S
C794 C797 1.382 1_565 S
C795 C793 1.384 . S
C795 C796 1.419 . S
C795 H819 0.930 . S
C796 C795 1.419 . S
C796 C798 1.364 1_565 S
C796 C799 1.467 1_565 S
C797 C794 1.382 1_545 S
C797 C798 1.387 . S
C797 H820 0.930 . S
C798 C796 1.364 1_545 S
C798 C797 1.387 . S
C798 H821 0.931 . S
C799 C792 1.400 1_545 S
C799 C796 1.467 1_545 S
C799 N831 1.344 . S
C800 C801 1.384 . S
C800 C802 1.384 . S
C800 H822 0.931 . S
C801 C800 1.384 . S
C801 C804 1.382 1_565 S
C802 C800 1.384 . S
C802 C803 1.379 1_565 S
C802 H823 0.930 . S
C803 C802 1.379 1_545 S
C803 C805 1.390 . S
C803 C806 1.495 . S
C804 C801 1.382 1_545 S
C804 C805 1.387 . S
C804 H824 0.930 . S
C805 C803 1.390 . S
C805 C804 1.387 . S
C805 H825 0.931 . S
C806 C803 1.495 . S
C806 C813 1.400 . S
C806 N831 1.327 . S
C807 C808 1.384 . S
C807 C809 1.384 . S
C807 H826 0.931 . S
C808 C807 1.384 . S
C808 C811 1.382 1_545 S
C809 C807 1.384 . S
C809 C810 1.432 . S
C809 H827 0.930 . S
C810 C809 1.432 . S
C810 C812 1.358 1_545 S
C810 C813 1.461 . S
C811 C808 1.382 1_565 S
C811 C812 1.387 . S
C811 H828 0.930 . S
C812 C810 1.358 1_565 S
C812 C811 1.387 . S
C812 H829 0.931 . S
C813 C806 1.400 . S
C813 C810 1.461 . S
C813 N830 1.316 1_545 S
H814 C786 0.931 . S
H815 C788 0.930 . S
H816 C790 0.930 . S
H817 C791 0.931 . S
H818 C793 0.931 . S
H819 C795 0.930 . S
H820 C797 0.930 . S
H821 C798 0.931 . S
H822 C800 0.931 . S
H823 C802 0.930 . S
H824 C804 0.930 . S
H825 C805 0.931 . S
H826 C807 0.931 . S
H827 C809 0.930 . S
H828 C811 0.930 . S
H829 C812 0.931 . S
N830 C792 1.361 . S
N830 C813 1.316 1_565 S
N831 C799 1.344 . S
N831 C806 1.327 . S
C832 C833 1.384 . S
C832 C834 1.384 . S
C832 H860 0.931 . S
C833 C832 1.384 . S
C833 C836 1.382 1_655 S
C834 C832 1.384 . S
C834 C835 1.381 . S
C834 H861 0.930 . S
C835 C834 1.381 . S
C835 C837 1.381 1_655 S
C835 C838 1.491 . S
C836 C833 1.382 1_455 S
C836 C837 1.387 . S
C836 H862 0.930 . S
C837 C835 1.381 1_455 S
C837 C836 1.387 . S
C837 H863 0.931 . S
C838 C835 1.491 . S
C838 C845 1.399 . S
C838 N876 1.316 1_655 S
C839 C840 1.384 . S
C839 C841 1.384 . S
C839 H864 0.931 . S
C840 C839 1.384 . S
C840 C843 1.382 1_455 S
C841 C839 1.384 . S
C841 C842 1.379 1_455 S
C841 H865 0.930 . S
C842 C841 1.379 1_655 S
C842 C844 1.388 . S
C842 C845 1.497 . S
C843 C840 1.382 1_655 S
C843 C844 1.387 . S
C843 H866 0.930 . S
C844 C842 1.388 . S
C844 C843 1.387 . S
C844 H867 0.931 . S
C845 C838 1.399 . S
C845 C842 1.497 . S
C845 N877 1.355 . S
C846 C847 1.384 . S
C846 C848 1.384 . S
C846 H868 0.931 . S
C847 C846 1.384 . S
C847 C850 1.382 1_455 S
C848 C846 1.384 . S
C848 C849 1.381 . S
C848 H869 0.930 . S
C849 C848 1.381 . S
C849 C851 1.381 1_455 S
C849 C852 1.485 . S
C850 C847 1.382 1_655 S
C850 C851 1.387 . S
C850 H870 0.930 . S
C851 C849 1.381 1_655 S
C851 C850 1.387 . S
C851 H871 0.931 . S
C852 C849 1.485 . S
C852 C859 1.399 . S
C852 N877 1.316 1_455 S
C853 C854 1.384 . S
C853 C855 1.384 . S
C853 H872 0.931 . S
C854 C853 1.384 . S
C854 C857 1.382 1_655 S
C855 C853 1.384 . S
C855 C856 1.382 1_655 S
C855 H873 0.930 . S
C856 C855 1.382 1_455 S
C856 C858 1.381 . S
C856 C859 1.497 . S
C857 C854 1.382 1_455 S
C857 C858 1.387 . S
C857 H874 0.930 . S
C858 C856 1.381 . S
C858 C857 1.387 . S
C858 H875 0.931 . S
C859 C852 1.399 . S
C859 C856 1.497 . S
C859 N876 1.355 . S
H860 C832 0.931 . S
H861 C834 0.930 . S
H862 C836 0.930 . S
H863 C837 0.931 . S
H864 C839 0.931 . S
H865 C841 0.930 . S
H866 C843 0.930 . S
H867 C844 0.931 . S
H868 C846 0.931 . S
H869 C848 0.930 . S
H870 C850 0.930 . S
H871 C851 0.931 . S
H872 C853 0.931 . S
H873 C855 0.930 . S
H874 C857 0.930 . S
H875 C858 0.931 . S
N876 C838 1.316 1_455 S
N876 C859 1.355 . S
N877 C845 1.355 . S
N877 C852 1.316 1_655 S
C878 C879 1.384 . S
C878 C880 1.384 . S
C878 H906 0.931 . S
C879 C878 1.384 . S
C879 C882 1.382 . S
C880 C878 1.384 . S
C880 C881 1.381 . S
C880 H907 0.930 . S
C881 C880 1.381 . S
C881 C883 1.381 . S
C881 C884 1.487 . S
C882 C879 1.382 . S
C882 C883 1.387 . S
C882 H908 0.930 . S
C883 C881 1.381 . S
C883 C882 1.387 . S
C883 H909 0.931 . S
C884 C881 1.487 . S
C884 C891 1.399 . S
C884 N922 1.343 . S
C885 C886 1.384 . S
C885 C887 1.384 . S
C885 H910 0.931 . S
C886 C885 1.384 . S
C886 C889 1.382 . S
C887 C885 1.384 . S
C887 C888 1.381 . S
C887 H911 0.930 . S
C888 C887 1.381 . S
C888 C890 1.381 . S
C888 C891 1.487 . S
C889 C886 1.382 . S
C889 C890 1.387 . S
C889 H912 0.930 . S
C890 C888 1.381 . S
C890 C889 1.387 . S
C890 H913 0.931 . S
C891 C884 1.399 . S
C891 C888 1.487 . S
C891 N923 1.343 . S
C892 C893 1.384 . S
C892 C894 1.384 . S
C892 H914 0.931 . S
C893 C892 1.384 . S
C893 C896 1.382 . S
C894 C892 1.384 . S
C894 C895 1.381 . S
C894 H915 0.930 . S
C895 C894 1.381 . S
C895 C897 1.381 . S
C895 C898 1.487 . S
C896 C893 1.382 . S
C896 C897 1.387 . S
C896 H916 0.930 . S
C897 C895 1.381 . S
C897 C896 1.387 . S
C897 H917 0.931 . S
C898 C895 1.487 . S
C898 C905 1.399 . S
C898 N923 1.343 . S
C899 C900 1.384 . S
C899 C901 1.384 . S
C899 H918 0.931 . S
C900 C899 1.384 . S
C900 C903 1.382 . S
C901 C899 1.384 . S
C901 C902 1.381 . S
C901 H919 0.930 . S
C902 C901 1.381 . S
C902 C904 1.381 . S
C902 C905 1.487 . S
C903 C900 1.382 . S
C903 C904 1.387 . S
C903 H920 0.930 . S
C904 C902 1.381 . S
C904 C903 1.387 . S
C904 H921 0.931 . S
C905 C898 1.399 . S
C905 C902 1.487 . S
C905 N922 1.343 . S
H906 C878 0.931 . S
H907 C880 0.930 . S
H908 C882 0.930 . S
H909 C883 0.931 . S
H910 C885 0.931 . S
H911 C887 0.930 . S
H912 C889 0.930 . S
H913 C890 0.931 . S
H914 C892 0.931 . S
H915 C894 0.930 . S
H916 C896 0.930 . S
H917 C897 0.931 . S
H918 C899 0.931 . S
H919 C901 0.930 . S
H920 C903 0.930 . S
H921 C904 0.931 . S
N922 C884 1.343 . S
N922 C905 1.343 . S
N923 C891 1.343 . S
N923 C898 1.343 . S
C924 C925 1.384 . S
C924 C926 1.384 . S
C924 H952 0.931 . S
C925 C924 1.384 . S
C925 C928 1.382 . S
C926 C924 1.384 . S
C926 C927 1.381 . S
C926 H953 0.930 . S
C927 C926 1.381 . S
C927 C929 1.381 . S
C927 C930 1.487 . S
C928 C925 1.382 . S
C928 C929 1.387 . S
C928 H954 0.930 . S
C929 C927 1.381 . S
C929 C928 1.387 . S
C929 H955 0.931 . S
C930 C927 1.487 . S
C930 C937 1.399 . S
C930 N968 1.343 . S
C931 C932 1.384 . S
C931 C933 1.384 . S
C931 H956 0.931 . S
C932 C931 1.384 . S
C932 C935 1.382 . S
C933 C931 1.384 . S
C933 C934 1.381 . S
C933 H957 0.930 . S
C934 C933 1.381 . S
C934 C936 1.381 . S
C934 C937 1.487 . S
C935 C932 1.382 . S
C935 C936 1.387 . S
C935 H958 0.930 . S
C936 C934 1.381 . S
C936 C935 1.387 . S
C936 H959 0.931 . S
C937 C930 1.399 . S
C937 C934 1.487 . S
C937 N969 1.343 . S
C938 C939 1.384 . S
C938 C940 1.384 . S
C938 H960 0.931 . S
C939 C938 1.384 . S
C939 C942 1.382 . S
C940 C938 1.384 . S
C940 C941 1.381 . S
C940 H961 0.930 . S
C941 C940 1.381 . S
C941 C943 1.381 . S
C941 C944 1.487 . S
C942 C939 1.382 . S
C942 C943 1.387 . S
C942 H962 0.930 . S
C943 C941 1.381 . S
C943 C942 1.387 . S
C943 H963 0.931 . S
C944 C941 1.487 . S
C944 C951 1.399 . S
C944 N969 1.343 . S
C945 C946 1.384 . S
C945 C947 1.384 . S
C945 H964 0.931 . S
C946 C945 1.384 . S
C946 C949 1.382 . S
C947 C945 1.384 . S
C947 C948 1.381 . S
C947 H965 0.930 . S
C948 C947 1.381 . S
C948 C950 1.381 . S
C948 C951 1.487 . S
C949 C946 1.382 . S
C949 C950 1.387 . S
C949 H966 0.930 . S
C950 C948 1.381 . S
C950 C949 1.387 . S
C950 H967 0.931 . S
C951 C944 1.399 . S
C951 C948 1.487 . S
C951 N968 1.343 . S
H952 C924 0.931 . S
H953 C926 0.930 . S
H954 C928 0.930 . S
H955 C929 0.931 . S
H956 C931 0.931 . S
H957 C933 0.930 . S
H958 C935 0.930 . S
H959 C936 0.931 . S
H960 C938 0.931 . S
H961 C940 0.930 . S
H962 C942 0.930 . S
H963 C943 0.931 . S
H964 C945 0.931 . S
H965 C947 0.930 . S
H966 C949 0.930 . S
H967 C950 0.931 . S
N968 C930 1.343 . S
N968 C951 1.343 . S
N969 C937 1.343 . S
N969 C944 1.343 . S
C970 C971 1.384 . S
C970 C972 1.384 . S
C970 H998 0.931 . S
C971 C970 1.384 . S
C971 C974 1.382 . S
C972 C970 1.384 . S
C972 C973 1.381 . S
C972 H999 0.930 . S
C973 C972 1.381 . S
C973 C975 1.381 . S
C973 C976 1.487 . S
C974 C971 1.382 . S
C974 C975 1.387 . S
C974 H1000 0.930 . S
C975 C973 1.381 . S
C975 C974 1.387 . S
C975 H1001 0.931 . S
C976 C973 1.487 . S
C976 C983 1.399 . S
C976 N1014 1.343 . S
C977 C978 1.384 . S
C977 C979 1.384 . S
C977 H1002 0.931 . S
C978 C977 1.384 . S
C978 C981 1.382 . S
C979 C977 1.384 . S
C979 C980 1.381 . S
C979 H1003 0.930 . S
C980 C979 1.381 . S
C980 C982 1.381 . S
C980 C983 1.487 . S
C981 C978 1.382 . S
C981 C982 1.387 . S
C981 H1004 0.930 . S
C982 C980 1.381 . S
C982 C981 1.387 . S
C982 H1005 0.931 . S
C983 C976 1.399 . S
C983 C980 1.487 . S
C983 N1015 1.343 . S
C984 C985 1.384 . S
C984 C986 1.384 . S
C984 H1006 0.931 . S
C985 C984 1.384 . S
C985 C988 1.382 . S
C986 C984 1.384 . S
C986 C987 1.381 . S
C986 H1007 0.930 . S
C987 C986 1.381 . S
C987 C989 1.381 . S
C987 C990 1.487 . S
C988 C985 1.382 . S
C988 C989 1.387 . S
C988 H1008 0.930 . S
C989 C987 1.381 . S
C989 C988 1.387 . S
C989 H1009 0.931 . S
C990 C987 1.487 . S
C990 C997 1.399 . S
C990 N1015 1.343 . S
C991 C992 1.384 . S
C991 C993 1.384 . S
C991 H1010 0.931 . S
C992 C991 1.384 . S
C992 C995 1.382 . S
C993 C991 1.384 . S
C993 C994 1.381 . S
C993 H1011 0.930 . S
C994 C993 1.381 . S
C994 C996 1.381 . S
C994 C997 1.487 . S
C995 C992 1.382 . S
C995 C996 1.387 . S
C995 H1012 0.930 . S
C996 C994 1.381 . S
C996 C995 1.387 . S
C996 H1013 0.931 . S
C997 C990 1.399 . S
C997 C994 1.487 . S
C997 N1014 1.343 . S
H998 C970 0.931 . S
H999 C972 0.930 . S
H1000 C974 0.930 . S
H1001 C975 0.931 . S
H1002 C977 0.931 . S
H1003 C979 0.930 . S
H1004 C981 0.930 . S
H1005 C982 0.931 . S
H1006 C984 0.931 . S
H1007 C986 0.930 . S
H1008 C988 0.930 . S
H1009 C989 0.931 . S
H1010 C991 0.931 . S
H1011 C993 0.930 . S
H1012 C995 0.930 . S
H1013 C996 0.931 . S
N1014 C976 1.343 . S
N1014 C997 1.343 . S
N1015 C983 1.343 . S
N1015 C990 1.343 . S
C1016 C1017 1.384 . S
C1016 C1018 1.384 . S
C1016 H1044 0.931 . S
C1017 C1016 1.384 . S
C1017 C1020 1.382 . S
C1018 C1016 1.384 . S
C1018 C1019 1.381 . S
C1018 H1045 0.930 . S
C1019 C1018 1.381 . S
C1019 C1021 1.381 . S
C1019 C1022 1.487 . S
C1020 C1017 1.382 . S
C1020 C1021 1.387 . S
C1020 H1046 0.930 . S
C1021 C1019 1.381 . S
C1021 C1020 1.387 . S
C1021 H1047 0.931 . S
C1022 C1019 1.487 . S
C1022 C1029 1.399 . S
C1022 N1060 1.343 . S
C1023 C1024 1.384 . S
C1023 C1025 1.384 . S
C1023 H1048 0.931 . S
C1024 C1023 1.384 . S
C1024 C1027 1.382 . S
C1025 C1023 1.384 . S
C1025 C1026 1.381 . S
C1025 H1049 0.930 . S
C1026 C1025 1.381 . S
C1026 C1028 1.381 . S
C1026 C1029 1.487 . S
C1027 C1024 1.382 . S
C1027 C1028 1.387 . S
C1027 H1050 0.930 . S
C1028 C1026 1.381 . S
C1028 C1027 1.387 . S
C1028 H1051 0.931 . S
C1029 C1022 1.399 . S
C1029 C1026 1.487 . S
C1029 N1061 1.343 . S
C1030 C1031 1.384 . S
C1030 C1032 1.384 . S
C1030 H1052 0.931 . S
C1031 C1030 1.384 . S
C1031 C1034 1.382 . S
C1032 C1030 1.384 . S
C1032 C1033 1.381 . S
C1032 H1053 0.930 . S
C1033 C1032 1.381 . S
C1033 C1035 1.381 . S
C1033 C1036 1.487 . S
C1034 C1031 1.382 . S
C1034 C1035 1.387 . S
C1034 H1054 0.930 . S
C1035 C1033 1.381 . S
C1035 C1034 1.387 . S
C1035 H1055 0.931 . S
C1036 C1033 1.487 . S
C1036 C1043 1.399 . S
C1036 N1061 1.343 . S
C1037 C1038 1.384 . S
C1037 C1039 1.384 . S
C1037 H1056 0.931 . S
C1038 C1037 1.384 . S
C1038 C1041 1.382 . S
C1039 C1037 1.384 . S
C1039 C1040 1.381 . S
C1039 H1057 0.930 . S
C1040 C1039 1.381 . S
C1040 C1042 1.381 . S
C1040 C1043 1.487 . S
C1041 C1038 1.382 . S
C1041 C1042 1.387 . S
C1041 H1058 0.930 . S
C1042 C1040 1.381 . S
C1042 C1041 1.387 . S
C1042 H1059 0.931 . S
C1043 C1036 1.399 . S
C1043 C1040 1.487 . S
C1043 N1060 1.343 . S
H1044 C1016 0.931 . S
H1045 C1018 0.930 . S
H1046 C1020 0.930 . S
H1047 C1021 0.931 . S
H1048 C1023 0.931 . S
H1049 C1025 0.930 . S
H1050 C1027 0.930 . S
H1051 C1028 0.931 . S
H1052 C1030 0.931 . S
H1053 C1032 0.930 . S
H1054 C1034 0.930 . S
H1055 C1035 0.931 . S
H1056 C1037 0.931 . S
H1057 C1039 0.930 . S
H1058 C1041 0.930 . S
H1059 C1042 0.931 . S
N1060 C1022 1.343 . S
N1060 C1043 1.343 . S
N1061 C1029 1.343 . S
N1061 C1036 1.343 . S
C1062 C1063 1.363 . S
C1062 C1068 1.379 . S
C1062 N1070 1.356 . S
C1063 C1062 1.363 . S
C1063 C1069 1.363 1_655 S
C1064 C1065 1.363 1_455 S
C1064 C1069 1.379 . S
C1064 N1071 1.356 . S
C1065 C1064 1.363 1_655 S
C1065 C1068 1.363 . S
N1066 C1068 1.356 . S
N1066 H1078 0.984 . S
N1066 H1079 0.985 . S
N1067 C1069 1.356 . S
N1067 H1072 0.984 . S
N1067 H1073 0.985 . S
C1068 C1062 1.379 . S
C1068 C1065 1.363 . S
C1068 N1066 1.356 . S
C1069 C1063 1.363 1_455 S
C1069 C1064 1.379 . S
C1069 N1067 1.356 . S
N1070 C1062 1.356 . S
N1070 H1076 0.984 . S
N1070 H1077 0.984 . S
N1071 C1064 1.356 . S
N1071 H1074 0.984 . S
N1071 H1075 0.985 . S
H1072 N1067 0.984 . S
H1073 N1067 0.985 . S
H1074 N1071 0.984 . S
H1075 N1071 0.985 . S
H1076 N1070 0.984 . S
H1077 N1070 0.984 . S
H1078 N1066 0.984 . S
H1079 N1066 0.985 . S
C1080 C1081 1.363 . S
C1080 C1086 1.379 . S
C1080 N1088 1.356 . S
C1081 C1080 1.363 . S
C1081 C1087 1.363 . S
C1082 C1083 1.363 . S
C1082 C1087 1.379 . S
C1082 N1089 1.356 . S
C1083 C1082 1.363 . S
C1083 C1086 1.363 . S
N1084 C1086 1.356 . S
N1084 H1096 0.984 . S
N1084 H1097 0.985 . S
N1085 C1087 1.356 . S
N1085 H1090 0.984 . S
N1085 H1091 0.985 . S
C1086 C1080 1.379 . S
C1086 C1083 1.363 . S
C1086 N1084 1.356 . S
C1087 C1081 1.363 . S
C1087 C1082 1.379 . S
C1087 N1085 1.356 . S
N1088 C1080 1.356 . S
N1088 H1094 0.984 . S
N1088 H1095 0.984 . S
N1089 C1082 1.356 . S
N1089 H1092 0.984 . S
N1089 H1093 0.985 . S
H1090 N1085 0.984 . S
H1091 N1085 0.985 . S
H1092 N1089 0.984 . S
H1093 N1089 0.985 . S
H1094 N1088 0.984 . S
H1095 N1088 0.984 . S
H1096 N1084 0.984 . S
H1097 N1084 0.985 . S
C1098 C1099 1.363 . S
C1098 C1104 1.379 . S
C1098 N1106 1.356 . S
C1099 C1098 1.363 . S
C1099 C1105 1.363 1_545 S
C1100 C1101 1.363 1_565 S
C1100 C1105 1.379 . S
C1100 N1107 1.356 . S
C1101 C1100 1.363 1_545 S
C1101 C1104 1.363 . S
N1102 C1104 1.356 . S
N1102 H1114 0.984 . S
N1102 H1115 0.985 . S
N1103 C1105 1.356 . S
N1103 H1108 0.984 . S
N1103 H1109 0.985 . S
C1104 C1098 1.379 . S
C1104 C1101 1.363 . S
C1104 N1102 1.356 . S
C1105 C1099 1.363 1_565 S
C1105 C1100 1.379 . S
C1105 N1103 1.356 . S
N1106 C1098 1.356 . S
N1106 H1112 0.984 . S
N1106 H1113 0.984 . S
N1107 C1100 1.356 . S
N1107 H1110 0.984 . S
N1107 H1111 0.985 . S
H1108 N1103 0.984 . S
H1109 N1103 0.985 . S
H1110 N1107 0.984 . S
H1111 N1107 0.985 . S
H1112 N1106 0.984 . S
H1113 N1106 0.984 . S
H1114 N1102 0.984 . S
H1115 N1102 0.985 . S
C1116 C1117 1.363 . S
C1116 C1122 1.379 . S
C1116 N1124 1.356 . S
C1117 C1116 1.363 . S
C1117 C1123 1.363 1_565 S
C1118 C1119 1.363 1_545 S
C1118 C1123 1.379 . S
C1118 N1125 1.356 . S
C1119 C1118 1.363 1_565 S
C1119 C1122 1.363 . S
N1120 C1122 1.356 . S
N1120 H1132 0.984 . S
N1120 H1133 0.985 . S
N1121 C1123 1.356 . S
N1121 H1126 0.984 . S
N1121 H1127 0.985 . S
C1122 C1116 1.379 . S
C1122 C1119 1.363 . S
C1122 N1120 1.356 . S
C1123 C1117 1.363 1_545 S
C1123 C1118 1.379 . S
C1123 N1121 1.356 . S
N1124 C1116 1.356 . S
N1124 H1130 0.984 . S
N1124 H1131 0.984 . S
N1125 C1118 1.356 . S
N1125 H1128 0.984 . S
N1125 H1129 0.985 . S
H1126 N1121 0.984 . S
H1127 N1121 0.985 . S
H1128 N1125 0.984 . S
H1129 N1125 0.985 . S
H1130 N1124 0.984 . S
H1131 N1124 0.984 . S
H1132 N1120 0.984 . S
H1133 N1120 0.985 . S
C1134 C1135 1.335 1_655 S
C1134 C1140 1.395 . S
C1134 N1142 1.361 . S
C1135 C1134 1.335 1_455 S
C1135 C1141 1.363 . S
C1136 C1137 1.363 . S
C1136 C1141 1.379 . S
C1136 N1143 1.356 . S
C1137 C1136 1.363 . S
C1137 C1140 1.363 1_455 S
N1138 C1140 1.356 . S
N1138 H1150 0.984 . S
N1138 H1151 0.985 . S
N1139 C1141 1.356 . S
N1139 H1144 0.984 . S
N1139 H1145 0.985 . S
C1140 C1134 1.395 . S
C1140 C1137 1.363 1_655 S
C1140 N1138 1.356 . S
C1141 C1135 1.363 . S
C1141 C1136 1.379 . S
C1141 N1139 1.356 . S
N1142 C1134 1.361 . S
N1142 H1148 0.984 . S
N1142 H1149 0.984 . S
N1143 C1136 1.356 . S
N1143 H1146 0.984 . S
N1143 H1147 0.985 . S
H1144 N1139 0.984 . S
H1145 N1139 0.985 . S
H1146 N1143 0.984 . S
H1147 N1143 0.985 . S
H1148 N1142 0.984 . S
H1149 N1142 0.984 . S
H1150 N1138 0.984 . S
H1151 N1138 0.985 . S
C1152 C1153 1.363 . S
C1152 C1158 1.379 . S
C1152 N1160 1.356 . S
C1153 C1152 1.363 . S
C1153 C1159 1.363 . S
C1154 C1155 1.363 . S
C1154 C1159 1.379 . S
C1154 N1161 1.356 . S
C1155 C1154 1.363 . S
C1155 C1158 1.363 . S
N1156 C1158 1.356 . S
N1156 H1168 0.984 . S
N1156 H1169 0.985 . S
N1157 C1159 1.356 . S
N1157 H1162 0.984 . S
N1157 H1163 0.985 . S
C1158 C1152 1.379 . S
C1158 C1155 1.363 . S
C1158 N1156 1.356 . S
C1159 C1153 1.363 . S
C1159 C1154 1.379 . S
C1159 N1157 1.356 . S
N1160 C1152 1.356 . S
N1160 H1166 0.984 . S
N1160 H1167 0.984 . S
N1161 C1154 1.356 . S
N1161 H1164 0.984 . S
N1161 H1165 0.985 . S
H1162 N1157 0.984 . S
H1163 N1157 0.985 . S
H1164 N1161 0.984 . S
H1165 N1161 0.985 . S
H1166 N1160 0.984 . S
H1167 N1160 0.984 . S
H1168 N1156 0.984 . S
H1169 N1156 0.985 . S
C1170 C1171 1.363 . S
C1170 C1176 1.379 . S
C1170 N1178 1.356 . S
C1171 C1170 1.363 . S
C1171 C1177 1.363 . S
C1172 C1173 1.359 1_655 S
C1172 C1177 1.387 1_655 S
C1172 N1179 1.351 . S
C1173 C1172 1.359 1_455 S
C1173 C1176 1.363 . S
N1174 C1176 1.356 . S
N1174 H1186 0.984 . S
N1174 H1187 0.985 . S
N1175 C1177 1.353 1_655 S
N1175 H1180 0.989 1_655 S
N1175 H1181 0.984 . S
C1176 C1170 1.379 . S
C1176 C1173 1.363 . S
C1176 N1174 1.356 . S
C1177 C1171 1.363 . S
C1177 C1172 1.387 1_455 S
C1177 N1175 1.353 1_455 S
N1178 C1170 1.356 . S
N1178 H1184 0.984 . S
N1178 H1185 0.984 . S
N1179 C1172 1.351 . S
N1179 H1182 0.984 . S
N1179 H1183 0.985 . S
H1180 N1175 0.989 1_455 S
H1181 N1175 0.984 . S
H1182 N1179 0.984 . S
H1183 N1179 0.985 . S
H1184 N1178 0.984 . S
H1185 N1178 0.984 . S
H1186 N1174 0.984 . S
H1187 N1174 0.985 . S
C1188 C1189 1.363 . S
C1188 C1194 1.379 . S
C1188 N1196 1.356 . S
C1189 C1188 1.363 . S
C1189 C1195 1.363 . S
C1190 C1191 1.363 . S
C1190 C1195 1.379 . S
C1190 N1197 1.356 . S
C1191 C1190 1.363 . S
C1191 C1194 1.363 . S
N1192 C1194 1.356 . S
N1192 H1204 0.984 . S
N1192 H1205 0.985 . S
N1193 C1195 1.356 . S
N1193 H1198 0.984 . S
N1193 H1199 0.985 . S
C1194 C1188 1.379 . S
C1194 C1191 1.363 . S
C1194 N1192 1.356 . S
C1195 C1189 1.363 . S
C1195 C1190 1.379 . S
C1195 N1193 1.356 . S
N1196 C1188 1.356 . S
N1196 H1202 0.984 . S
N1196 H1203 0.984 . S
N1197 C1190 1.356 . S
N1197 H1200 0.984 . S
N1197 H1201 0.985 . S
H1198 N1193 0.984 . S
H1199 N1193 0.985 . S
H1200 N1197 0.984 . S
H1201 N1197 0.985 . S
H1202 N1196 0.984 . S
H1203 N1196 0.984 . S
H1204 N1192 0.984 . S
H1205 N1192 0.985 . S
C1206 C1207 1.363 1_545 S
C1206 C1212 1.379 . S
C1206 N1214 1.356 . S
C1207 C1206 1.363 1_565 S
C1207 C1213 1.363 . S
C1208 C1209 1.363 . S
C1208 C1213 1.379 . S
C1208 N1215 1.356 . S
C1209 C1208 1.363 . S
C1209 C1212 1.363 1_565 S
N1210 C1212 1.356 . S
N1210 H1222 0.984 . S
N1210 H1223 0.985 . S
N1211 C1213 1.356 . S
N1211 H1216 0.984 . S
N1211 H1217 0.985 . S
C1212 C1206 1.379 . S
C1212 C1209 1.363 1_545 S
C1212 N1210 1.356 . S
C1213 C1207 1.363 . S
C1213 C1208 1.379 . S
C1213 N1211 1.356 . S
N1214 C1206 1.356 . S
N1214 H1220 0.984 . S
N1214 H1221 0.984 . S
N1215 C1208 1.356 . S
N1215 H1218 0.984 . S
N1215 H1219 0.985 . S
H1216 N1211 0.984 . S
H1217 N1211 0.985 . S
H1218 N1215 0.984 . S
H1219 N1215 0.985 . S
H1220 N1214 0.984 . S
H1221 N1214 0.984 . S
H1222 N1210 0.984 . S
H1223 N1210 0.985 . S
C1224 C1225 1.363 . S
C1224 C1230 1.372 . S
C1224 N1232 1.356 . S
C1225 C1224 1.363 . S
C1225 C1231 1.363 . S
C1226 C1227 1.363 . S
C1226 C1231 1.379 . S
C1226 N1233 1.356 . S
C1227 C1226 1.363 . S
C1227 C1230 1.382 . S
N1228 C1230 1.349 1_565 S
N1228 H1240 0.984 . S
N1228 H1241 0.985 . S
N1229 C1231 1.356 . S
N1229 H1234 0.984 . S
N1229 H1235 0.985 . S
C1230 C1224 1.372 . S
C1230 C1227 1.382 . S
C1230 N1228 1.349 1_545 S
C1231 C1225 1.363 . S
C1231 C1226 1.379 . S
C1231 N1229 1.356 . S
N1232 C1224 1.356 . S
N1232 H1238 0.984 1_545 S
N1232 H1239 0.984 . S
N1233 C1226 1.356 . S
N1233 H1236 0.984 . S
N1233 H1237 0.985 . S
H1234 N1229 0.984 . S
H1235 N1229 0.985 . S
H1236 N1233 0.984 . S
H1237 N1233 0.985 . S
H1238 N1232 0.984 1_565 S
H1239 N1232 0.984 . S
H1240 N1228 0.984 . S
H1241 N1228 0.985 . S
C1242 C1243 1.363 . S
C1242 C1248 1.379 . S
C1242 N1250 1.356 . S
C1243 C1242 1.363 . S
C1243 C1249 1.363 1_655 S
C1244 C1245 1.363 1_455 S
C1244 C1249 1.379 . S
C1244 N1251 1.356 . S
C1245 C1244 1.363 1_655 S
C1245 C1248 1.363 . S
N1246 C1248 1.356 . S
N1246 H1258 0.984 . S
N1246 H1259 0.985 . S
N1247 C1249 1.356 . S
N1247 H1252 0.984 . S
N1247 H1253 0.985 . S
C1248 C1242 1.379 . S
C1248 C1245 1.363 . S
C1248 N1246 1.356 . S
C1249 C1243 1.363 1_455 S
C1249 C1244 1.379 . S
C1249 N1247 1.356 . S
N1250 C1242 1.356 . S
N1250 H1256 0.984 . S
N1250 H1257 0.984 . S
N1251 C1244 1.356 . S
N1251 H1254 0.984 . S
N1251 H1255 0.985 . S
H1252 N1247 0.984 . S
H1253 N1247 0.985 . S
H1254 N1251 0.984 . S
H1255 N1251 0.985 . S
H1256 N1250 0.984 . S
H1257 N1250 0.984 . S
H1258 N1246 0.984 . S
H1259 N1246 0.985 . S
C1260 C1261 1.363 . S
C1260 C1266 1.379 . S
C1260 N1268 1.356 . S
C1261 C1260 1.363 . S
C1261 C1267 1.363 . S
C1262 C1263 1.363 . S
C1262 C1267 1.379 . S
C1262 N1269 1.356 . S
C1263 C1262 1.363 . S
C1263 C1266 1.363 . S
N1264 C1266 1.356 . S
N1264 H1276 0.984 . S
N1264 H1277 0.985 . S
N1265 C1267 1.356 . S
N1265 H1270 0.984 . S
N1265 H1271 0.985 . S
C1266 C1260 1.379 . S
C1266 C1263 1.363 . S
C1266 N1264 1.356 . S
C1267 C1261 1.363 . S
C1267 C1262 1.379 . S
C1267 N1265 1.356 . S
N1268 C1260 1.356 . S
N1268 H1274 0.984 . S
N1268 H1275 0.984 . S
N1269 C1262 1.356 . S
N1269 H1272 0.984 . S
N1269 H1273 0.985 . S
H1270 N1265 0.984 . S
H1271 N1265 0.985 . S
H1272 N1269 0.984 . S
H1273 N1269 0.985 . S
H1274 N1268 0.984 . S
H1275 N1268 0.984 . S
H1276 N1264 0.984 . S
H1277 N1264 0.985 . S
C1278 C1279 1.363 . S
C1278 C1284 1.379 . S
C1278 N1286 1.356 . S
C1279 C1278 1.363 . S
C1279 C1285 1.363 . S
C1280 C1281 1.363 . S
C1280 C1285 1.379 . S
C1280 N1287 1.356 . S
C1281 C1280 1.363 . S
C1281 C1284 1.363 . S
N1282 C1284 1.356 . S
N1282 H1294 0.984 . S
N1282 H1295 0.985 . S
N1283 C1285 1.356 . S
N1283 H1288 0.984 . S
N1283 H1289 0.985 . S
C1284 C1278 1.379 . S
C1284 C1281 1.363 . S
C1284 N1282 1.356 . S
C1285 C1279 1.363 . S
C1285 C1280 1.379 . S
C1285 N1283 1.356 . S
N1286 C1278 1.356 . S
N1286 H1292 0.984 . S
N1286 H1293 0.984 . S
N1287 C1280 1.356 . S
N1287 H1290 0.984 . S
N1287 H1291 0.985 . S
H1288 N1283 0.984 . S
H1289 N1283 0.985 . S
H1290 N1287 0.984 . S
H1291 N1287 0.985 . S
H1292 N1286 0.984 . S
H1293 N1286 0.984 . S
H1294 N1282 0.984 . S
H1295 N1282 0.985 . S
C1296 C1297 1.363 . S
C1296 C1302 1.379 . S
C1296 N1304 1.356 . S
C1297 C1296 1.363 . S
C1297 C1303 1.363 . S
C1298 C1299 1.363 . S
C1298 C1303 1.379 . S
C1298 N1305 1.356 . S
C1299 C1298 1.363 . S
C1299 C1302 1.363 . S
N1300 C1302 1.356 . S
N1300 H1312 0.984 . S
N1300 H1313 0.985 . S
N1301 C1303 1.356 . S
N1301 H1306 0.984 . S
N1301 H1307 0.985 . S
C1302 C1296 1.379 . S
C1302 C1299 1.363 . S
C1302 N1300 1.356 . S
C1303 C1297 1.363 . S
C1303 C1298 1.379 . S
C1303 N1301 1.356 . S
N1304 C1296 1.356 . S
N1304 H1310 0.984 . S
N1304 H1311 0.984 . S
N1305 C1298 1.356 . S
N1305 H1308 0.984 . S
N1305 H1309 0.985 . S
H1306 N1301 0.984 . S
H1307 N1301 0.985 . S
H1308 N1305 0.984 . S
H1309 N1305 0.985 . S
H1310 N1304 0.984 . S
H1311 N1304 0.984 . S
H1312 N1300 0.984 . S
H1313 N1300 0.985 . S
C1314 C1315 1.363 . S
C1314 C1320 1.379 . S
C1314 N1322 1.356 . S
C1315 C1314 1.363 . S
C1315 C1321 1.363 . S
C1316 C1317 1.363 . S
C1316 C1321 1.379 . S
C1316 N1323 1.356 . S
C1317 C1316 1.363 . S
C1317 C1320 1.363 . S
N1318 C1320 1.356 . S
N1318 H1330 0.984 . S
N1318 H1331 0.985 . S
N1319 C1321 1.356 . S
N1319 H1324 0.984 . S
N1319 H1325 0.985 . S
C1320 C1314 1.379 . S
C1320 C1317 1.363 . S
C1320 N1318 1.356 . S
C1321 C1315 1.363 . S
C1321 C1316 1.379 . S
C1321 N1319 1.356 . S
N1322 C1314 1.356 . S
N1322 H1328 0.984 . S
N1322 H1329 0.984 . S
N1323 C1316 1.356 . S
N1323 H1326 0.984 . S
N1323 H1327 0.985 . S
H1324 N1319 0.984 . S
H1325 N1319 0.985 . S
H1326 N1323 0.984 . S
H1327 N1323 0.985 . S
H1328 N1322 0.984 . S
H1329 N1322 0.984 . S
H1330 N1318 0.984 . S
H1331 N1318 0.985 . S
C1332 C1333 1.363 . S
C1332 C1338 1.379 . S
C1332 N1340 1.356 . S
C1333 C1332 1.363 . S
C1333 C1339 1.363 . S
C1334 C1335 1.363 . S
C1334 C1339 1.379 . S
C1334 N1341 1.356 . S
C1335 C1334 1.363 . S
C1335 C1338 1.363 . S
N1336 C1338 1.356 . S
N1336 H1348 0.984 . S
N1336 H1349 0.985 . S
N1337 C1339 1.356 . S
N1337 H1342 0.984 . S
N1337 H1343 0.985 . S
C1338 C1332 1.379 . S
C1338 C1335 1.363 . S
C1338 N1336 1.356 . S
C1339 C1333 1.363 . S
C1339 C1334 1.379 . S
C1339 N1337 1.356 . S
N1340 C1332 1.356 . S
N1340 H1346 0.984 . S
N1340 H1347 0.984 . S
N1341 C1334 1.356 . S
N1341 H1344 0.984 . S
N1341 H1345 0.985 . S
H1342 N1337 0.984 . S
H1343 N1337 0.985 . S
H1344 N1341 0.984 . S
H1345 N1341 0.985 . S
H1346 N1340 0.984 . S
H1347 N1340 0.984 . S
H1348 N1336 0.984 . S
H1349 N1336 0.985 . S
C1350 C1351 1.363 . S
C1350 C1356 1.379 . S
C1350 N1358 1.356 . S
C1351 C1350 1.363 . S
C1351 C1357 1.363 . S
C1352 C1353 1.363 . S
C1352 C1357 1.379 . S
C1352 N1359 1.356 . S
C1353 C1352 1.363 . S
C1353 C1356 1.363 . S
N1354 C1356 1.356 . S
N1354 H1366 0.984 . S
N1354 H1367 0.985 . S
N1355 C1357 1.356 . S
N1355 H1360 0.984 . S
N1355 H1361 0.985 . S
C1356 C1350 1.379 . S
C1356 C1353 1.363 . S
C1356 N1354 1.356 . S
C1357 C1351 1.363 . S
C1357 C1352 1.379 . S
C1357 N1355 1.356 . S
N1358 C1350 1.356 . S
N1358 H1364 0.984 . S
N1358 H1365 0.984 . S
N1359 C1352 1.356 . S
N1359 H1362 0.984 . S
N1359 H1363 0.985 . S
H1360 N1355 0.984 . S
H1361 N1355 0.985 . S
H1362 N1359 0.984 . S
H1363 N1359 0.985 . S
H1364 N1358 0.984 . S
H1365 N1358 0.984 . S
H1366 N1354 0.984 . S
H1367 N1354 0.985 . S
C1368 C1369 1.363 . S
C1368 C1374 1.379 . S
C1368 N1376 1.356 . S
C1369 C1368 1.363 . S
C1369 C1375 1.363 . S
C1370 C1371 1.363 . S
C1370 C1375 1.379 . S
C1370 N1377 1.356 . S
C1371 C1370 1.363 . S
C1371 C1374 1.363 . S
N1372 C1374 1.356 . S
N1372 H1384 0.984 . S
N1372 H1385 0.985 . S
N1373 C1375 1.356 . S
N1373 H1378 0.984 . S
N1373 H1379 0.985 . S
C1374 C1368 1.379 . S
C1374 C1371 1.363 . S
C1374 N1372 1.356 . S
C1375 C1369 1.363 . S
C1375 C1370 1.379 . S
C1375 N1373 1.356 . S
N1376 C1368 1.356 . S
N1376 H1382 0.984 1_565 S
N1376 H1383 0.984 . S
N1377 C1370 1.356 . S
N1377 H1380 0.984 . S
N1377 H1381 0.985 . S
H1378 N1373 0.984 . S
H1379 N1373 0.985 . S
H1380 N1377 0.984 . S
H1381 N1377 0.985 . S
H1382 N1376 0.984 1_545 S
H1383 N1376 0.984 . S
H1384 N1372 0.984 . S
H1385 N1372 0.985 . S
C1386 C1387 1.363 . S
C1386 C1392 1.379 . S
C1386 N1394 1.356 . S
C1387 C1386 1.363 . S
C1387 C1393 1.363 . S
C1388 C1389 1.363 . S
C1388 C1393 1.379 . S
C1388 N1395 1.356 . S
C1389 C1388 1.363 . S
C1389 C1392 1.363 . S
N1390 C1392 1.356 . S
N1390 H1402 0.984 . S
N1390 H1403 0.985 . S
N1391 C1393 1.356 . S
N1391 H1396 0.984 . S
N1391 H1397 0.985 1_565 S
C1392 C1386 1.379 . S
C1392 C1389 1.363 . S
C1392 N1390 1.356 . S
C1393 C1387 1.363 . S
C1393 C1388 1.379 . S
C1393 N1391 1.356 . S
N1394 C1386 1.356 . S
N1394 H1400 0.984 . S
N1394 H1401 0.984 . S
N1395 C1388 1.356 . S
N1395 H1398 0.984 . S
N1395 H1399 0.985 . S
H1396 N1391 0.984 . S
H1397 N1391 0.985 1_545 S
H1398 N1395 0.984 . S
H1399 N1395 0.985 . S
H1400 N1394 0.984 . S
H1401 N1394 0.984 . S
H1402 N1390 0.984 . S
H1403 N1390 0.985 . S
C1404 C1405 1.363 . S
C1404 C1410 1.379 . S
C1404 N1412 1.356 . S
C1405 C1404 1.363 . S
C1405 C1411 1.363 . S
C1406 C1407 1.363 . S
C1406 C1411 1.379 . S
C1406 N1413 1.356 . S
C1407 C1406 1.363 . S
C1407 C1410 1.363 . S
N1408 C1410 1.356 . S
N1408 H1420 0.984 . S
N1408 H1421 0.985 . S
N1409 C1411 1.356 . S
N1409 H1414 0.984 . S
N1409 H1415 0.985 . S
C1410 C1404 1.379 . S
C1410 C1407 1.363 . S
C1410 N1408 1.356 . S
C1411 C1405 1.363 . S
C1411 C1406 1.379 . S
C1411 N1409 1.356 . S
N1412 C1404 1.356 . S
N1412 H1418 0.984 . S
N1412 H1419 0.984 . S
N1413 C1406 1.356 . S
N1413 H1416 0.984 . S
N1413 H1417 0.985 . S
H1414 N1409 0.984 . S
H1415 N1409 0.985 . S
H1416 N1413 0.984 . S
H1417 N1413 0.985 . S
H1418 N1412 0.984 . S
H1419 N1412 0.984 . S
H1420 N1408 0.984 . S
H1421 N1408 0.985 . S
C1422 C1423 1.363 . S
C1422 C1428 1.379 . S
C1422 N1430 1.356 . S
C1423 C1422 1.363 . S
C1423 C1429 1.363 . S
C1424 C1425 1.363 . S
C1424 C1429 1.379 . S
C1424 N1431 1.356 . S
C1425 C1424 1.363 . S
C1425 C1428 1.363 . S
N1426 C1428 1.356 . S
N1426 H1438 0.984 . S
N1426 H1439 0.985 . S
N1427 C1429 1.356 . S
N1427 H1432 0.984 . S
N1427 H1433 0.985 . S
C1428 C1422 1.379 . S
C1428 C1425 1.363 . S
C1428 N1426 1.356 . S
C1429 C1423 1.363 . S
C1429 C1424 1.379 . S
C1429 N1427 1.356 . S
N1430 C1422 1.356 . S
N1430 H1436 0.984 . S
N1430 H1437 0.984 . S
N1431 C1424 1.356 . S
N1431 H1434 0.984 . S
N1431 H1435 0.985 . S
H1432 N1427 0.984 . S
H1433 N1427 0.985 . S
H1434 N1431 0.984 . S
H1435 N1431 0.985 . S
H1436 N1430 0.984 . S
H1437 N1430 0.984 . S
H1438 N1426 0.984 . S
H1439 N1426 0.985 . S
C1440 C1441 1.363 . S
C1440 C1446 1.379 . S
C1440 N1448 1.356 . S
C1441 C1440 1.363 . S
C1441 C1447 1.363 . S
C1442 C1443 1.363 . S
C1442 C1447 1.379 . S
C1442 N1449 1.356 . S
C1443 C1442 1.363 . S
C1443 C1446 1.363 . S
N1444 C1446 1.356 . S
N1444 H1456 0.984 . S
N1444 H1457 0.985 . S
N1445 C1447 1.356 . S
N1445 H1450 0.984 . S
N1445 H1451 0.985 . S
C1446 C1440 1.379 . S
C1446 C1443 1.363 . S
C1446 N1444 1.356 . S
C1447 C1441 1.363 . S
C1447 C1442 1.379 . S
C1447 N1445 1.356 . S
N1448 C1440 1.356 . S
N1448 H1454 0.984 . S
N1448 H1455 0.984 . S
N1449 C1442 1.356 . S
N1449 H1452 0.984 . S
N1449 H1453 0.985 . S
H1450 N1445 0.984 . S
H1451 N1445 0.985 . S
H1452 N1449 0.984 . S
H1453 N1449 0.985 . S
H1454 N1448 0.984 . S
H1455 N1448 0.984 . S
H1456 N1444 0.984 . S
H1457 N1444 0.985 . S
C1458 C1459 1.363 . S
C1458 C1464 1.379 . S
C1458 N1466 1.356 . S
C1459 C1458 1.363 . S
C1459 C1465 1.363 . S
C1460 C1461 1.363 . S
C1460 C1465 1.379 . S
C1460 N1467 1.356 . S
C1461 C1460 1.363 . S
C1461 C1464 1.363 . S
N1462 C1464 1.356 . S
N1462 H1474 0.984 . S
N1462 H1475 0.985 . S
N1463 C1465 1.356 . S
N1463 H1468 0.984 . S
N1463 H1469 0.985 . S
C1464 C1458 1.379 . S
C1464 C1461 1.363 . S
C1464 N1462 1.356 . S
C1465 C1459 1.363 . S
C1465 C1460 1.379 . S
C1465 N1463 1.356 . S
N1466 C1458 1.356 . S
N1466 H1472 0.984 . S
N1466 H1473 0.984 . S
N1467 C1460 1.356 . S
N1467 H1470 0.984 . S
N1467 H1471 0.985 . S
H1468 N1463 0.984 . S
H1469 N1463 0.985 . S
H1470 N1467 0.984 . S
H1471 N1467 0.985 . S
H1472 N1466 0.984 . S
H1473 N1466 0.984 . S
H1474 N1462 0.984 . S
H1475 N1462 0.985 . S
C1476 C1477 1.363 . S
C1476 C1482 1.379 . S
C1476 N1484 1.356 . S
C1477 C1476 1.363 . S
C1477 C1483 1.363 . S
C1478 C1479 1.363 . S
C1478 C1483 1.379 . S
C1478 N1485 1.356 . S
C1479 C1478 1.363 . S
C1479 C1482 1.363 . S
N1480 C1482 1.356 . S
N1480 H1492 0.984 . S
N1480 H1493 0.985 . S
N1481 C1483 1.356 . S
N1481 H1486 0.984 . S
N1481 H1487 0.985 . S
C1482 C1476 1.379 . S
C1482 C1479 1.363 . S
C1482 N1480 1.356 . S
C1483 C1477 1.363 . S
C1483 C1478 1.379 . S
C1483 N1481 1.356 . S
N1484 C1476 1.356 . S
N1484 H1490 0.984 . S
N1484 H1491 0.984 . S
N1485 C1478 1.356 . S
N1485 H1488 0.984 . S
N1485 H1489 0.985 . S
H1486 N1481 0.984 . S
H1487 N1481 0.985 . S
H1488 N1485 0.984 . S
H1489 N1485 0.985 . S
H1490 N1484 0.984 . S
H1491 N1484 0.984 . S
H1492 N1480 0.984 . S
H1493 N1480 0.985 . S
C1494 C1495 1.363 . S
C1494 C1500 1.379 . S
C1494 N1502 1.356 . S
C1495 C1494 1.363 . S
C1495 C1501 1.363 . S
C1496 C1497 1.363 . S
C1496 C1501 1.379 . S
C1496 N1503 1.356 . S
C1497 C1496 1.363 . S
C1497 C1500 1.363 . S
N1498 C1500 1.356 . S
N1498 H1510 0.984 . S
N1498 H1511 0.985 . S
N1499 C1501 1.356 . S
N1499 H1504 0.984 . S
N1499 H1505 0.985 . S
C1500 C1494 1.379 . S
C1500 C1497 1.363 . S
C1500 N1498 1.356 . S
C1501 C1495 1.363 . S
C1501 C1496 1.379 . S
C1501 N1499 1.356 . S
N1502 C1494 1.356 . S
N1502 H1508 0.984 . S
N1502 H1509 0.984 . S
N1503 C1496 1.356 . S
N1503 H1506 0.984 . S
N1503 H1507 0.985 . S
H1504 N1499 0.984 . S
H1505 N1499 0.985 . S
H1506 N1503 0.984 . S
H1507 N1503 0.985 . S
H1508 N1502 0.984 . S
H1509 N1502 0.984 . S
H1510 N1498 0.984 . S
H1511 N1498 0.985 . S
C1512 C1513 1.363 . S
C1512 C1518 1.379 . S
C1512 N1520 1.356 . S
C1513 C1512 1.363 . S
C1513 C1519 1.363 . S
C1514 C1515 1.363 . S
C1514 C1519 1.379 . S
C1514 N1521 1.356 . S
C1515 C1514 1.363 . S
C1515 C1518 1.363 . S
N1516 C1518 1.356 . S
N1516 H1528 0.984 . S
N1516 H1529 0.985 . S
N1517 C1519 1.356 . S
N1517 H1522 0.984 . S
N1517 H1523 0.985 . S
C1518 C1512 1.379 . S
C1518 C1515 1.363 . S
C1518 N1516 1.356 . S
C1519 C1513 1.363 . S
C1519 C1514 1.379 . S
C1519 N1517 1.356 . S
N1520 C1512 1.356 . S
N1520 H1526 0.984 . S
N1520 H1527 0.984 . S
N1521 C1514 1.356 . S
N1521 H1524 0.984 . S
N1521 H1525 0.985 . S
H1522 N1517 0.984 . S
H1523 N1517 0.985 . S
H1524 N1521 0.984 . S
H1525 N1521 0.985 . S
H1526 N1520 0.984 . S
H1527 N1520 0.984 . S
H1528 N1516 0.984 . S
H1529 N1516 0.985 . S
C1530 C1531 1.363 . S
C1530 C1536 1.379 . S
C1530 N1538 1.356 . S
C1531 C1530 1.363 . S
C1531 C1537 1.363 . S
C1532 C1533 1.363 . S
C1532 C1537 1.379 . S
C1532 N1539 1.356 . S
C1533 C1532 1.363 . S
C1533 C1536 1.363 . S
N1534 C1536 1.356 . S
N1534 H1546 0.984 . S
N1534 H1547 0.985 . S
N1535 C1537 1.356 . S
N1535 H1540 0.984 . S
N1535 H1541 0.985 . S
C1536 C1530 1.379 . S
C1536 C1533 1.363 . S
C1536 N1534 1.356 . S
C1537 C1531 1.363 . S
C1537 C1532 1.379 . S
C1537 N1535 1.356 . S
N1538 C1530 1.356 . S
N1538 H1544 0.984 . S
N1538 H1545 0.984 . S
N1539 C1532 1.356 . S
N1539 H1542 0.984 . S
N1539 H1543 0.985 . S
H1540 N1535 0.984 . S
H1541 N1535 0.985 . S
H1542 N1539 0.984 . S
H1543 N1539 0.985 . S
H1544 N1538 0.984 . S
H1545 N1538 0.984 . S
H1546 N1534 0.984 . S
H1547 N1534 0.985 . S
C1548 C1549 1.363 . S
C1548 C1554 1.379 . S
C1548 N1556 1.356 . S
C1549 C1548 1.363 . S
C1549 C1555 1.363 . S
C1550 C1551 1.363 . S
C1550 C1555 1.379 . S
C1550 N1557 1.356 . S
C1551 C1550 1.363 . S
C1551 C1554 1.363 . S
N1552 C1554 1.356 . S
N1552 H1564 0.984 . S
N1552 H1565 0.985 . S
N1553 C1555 1.356 . S
N1553 H1558 0.984 . S
N1553 H1559 0.985 . S
C1554 C1548 1.379 . S
C1554 C1551 1.363 . S
C1554 N1552 1.356 . S
C1555 C1549 1.363 . S
C1555 C1550 1.379 . S
C1555 N1553 1.356 . S
N1556 C1548 1.356 . S
N1556 H1562 0.984 . S
N1556 H1563 0.984 . S
N1557 C1550 1.356 . S
N1557 H1560 0.984 . S
N1557 H1561 0.985 . S
H1558 N1553 0.984 . S
H1559 N1553 0.985 . S
H1560 N1557 0.984 . S
H1561 N1557 0.985 . S
H1562 N1556 0.984 . S
H1563 N1556 0.984 . S
H1564 N1552 0.984 . S
H1565 N1552 0.985 . S
C1566 C1567 1.363 . S
C1566 C1572 1.379 . S
C1566 N1574 1.356 . S
C1567 C1566 1.363 . S
C1567 C1573 1.363 . S
C1568 C1569 1.363 . S
C1568 C1573 1.379 . S
C1568 N1575 1.356 . S
C1569 C1568 1.363 . S
C1569 C1572 1.363 . S
N1570 C1572 1.356 . S
N1570 H1582 0.984 . S
N1570 H1583 0.985 . S
N1571 C1573 1.356 . S
N1571 H1576 0.984 . S
N1571 H1577 0.985 . S
C1572 C1566 1.379 . S
C1572 C1569 1.363 . S
C1572 N1570 1.356 . S
C1573 C1567 1.363 . S
C1573 C1568 1.379 . S
C1573 N1571 1.356 . S
N1574 C1566 1.356 . S
N1574 H1580 0.984 . S
N1574 H1581 0.984 . S
N1575 C1568 1.356 . S
N1575 H1578 0.984 . S
N1575 H1579 0.985 . S
H1576 N1571 0.984 . S
H1577 N1571 0.985 . S
H1578 N1575 0.984 . S
H1579 N1575 0.985 . S
H1580 N1574 0.984 . S
H1581 N1574 0.984 . S
H1582 N1570 0.984 . S
H1583 N1570 0.985 . S
C1584 C1585 1.363 . S
C1584 C1590 1.379 . S
C1584 N1592 1.356 . S
C1585 C1584 1.363 . S
C1585 C1591 1.363 . S
C1586 C1587 1.363 . S
C1586 C1591 1.379 . S
C1586 N1593 1.356 . S
C1587 C1586 1.363 . S
C1587 C1590 1.363 . S
N1588 C1590 1.356 . S
N1588 H1600 0.984 . S
N1588 H1601 0.985 . S
N1589 C1591 1.356 . S
N1589 H1594 0.984 . S
N1589 H1595 0.985 . S
C1590 C1584 1.379 . S
C1590 C1587 1.363 . S
C1590 N1588 1.356 . S
C1591 C1585 1.363 . S
C1591 C1586 1.379 . S
C1591 N1589 1.356 . S
N1592 C1584 1.356 . S
N1592 H1598 0.984 . S
N1592 H1599 0.984 . S
N1593 C1586 1.356 . S
N1593 H1596 0.984 . S
N1593 H1597 0.985 . S
H1594 N1589 0.984 . S
H1595 N1589 0.985 . S
H1596 N1593 0.984 . S
H1597 N1593 0.985 . S
H1598 N1592 0.984 . S
H1599 N1592 0.984 . S
H1600 N1588 0.984 . S
H1601 N1588 0.985 . S
C1602 C1603 1.363 . S
C1602 C1608 1.379 . S
C1602 N1610 1.356 . S
C1603 C1602 1.363 . S
C1603 C1609 1.363 . S
C1604 C1605 1.363 . S
C1604 C1609 1.379 . S
C1604 N1611 1.356 . S
C1605 C1604 1.363 . S
C1605 C1608 1.363 . S
N1606 C1608 1.356 . S
N1606 H1618 0.984 . S
N1606 H1619 0.985 . S
N1607 C1609 1.356 . S
N1607 H1612 0.984 . S
N1607 H1613 0.985 . S
C1608 C1602 1.379 . S
C1608 C1605 1.363 . S
C1608 N1606 1.356 . S
C1609 C1603 1.363 . S
C1609 C1604 1.379 . S
C1609 N1607 1.356 . S
N1610 C1602 1.356 . S
N1610 H1616 0.984 . S
N1610 H1617 0.984 . S
N1611 C1604 1.356 . S
N1611 H1614 0.984 . S
N1611 H1615 0.985 . S
H1612 N1607 0.984 . S
H1613 N1607 0.985 . S
H1614 N1611 0.984 . S
H1615 N1611 0.985 . S
H1616 N1610 0.984 . S
H1617 N1610 0.984 . S
H1618 N1606 0.984 . S
H1619 N1606 0.985 . S
C1620 C1621 1.363 . S
C1620 C1626 1.379 . S
C1620 N1628 1.356 . S
C1621 C1620 1.363 . S
C1621 C1627 1.363 . S
C1622 C1623 1.363 . S
C1622 C1627 1.379 . S
C1622 N1629 1.356 . S
C1623 C1622 1.363 . S
C1623 C1626 1.363 . S
N1624 C1626 1.356 . S
N1624 H1636 0.984 . S
N1624 H1637 0.985 . S
N1625 C1627 1.356 . S
N1625 H1630 0.984 . S
N1625 H1631 0.985 . S
C1626 C1620 1.379 . S
C1626 C1623 1.363 . S
C1626 N1624 1.356 . S
C1627 C1621 1.363 . S
C1627 C1622 1.379 . S
C1627 N1625 1.356 . S
N1628 C1620 1.356 . S
N1628 H1634 0.984 . S
N1628 H1635 0.984 . S
N1629 C1622 1.356 . S
N1629 H1632 0.984 . S
N1629 H1633 0.985 . S
H1630 N1625 0.984 . S
H1631 N1625 0.985 . S
H1632 N1629 0.984 . S
H1633 N1629 0.985 . S
H1634 N1628 0.984 . S
H1635 N1628 0.984 . S
H1636 N1624 0.984 . S
H1637 N1624 0.985 . S
C1638 C1639 1.363 . S
C1638 C1644 1.379 . S
C1638 N1646 1.356 . S
C1639 C1638 1.363 . S
C1639 C1645 1.363 . S
C1640 C1641 1.363 . S
C1640 C1645 1.379 . S
C1640 N1647 1.356 . S
C1641 C1640 1.363 . S
C1641 C1644 1.363 . S
N1642 C1644 1.356 . S
N1642 H1654 0.984 . S
N1642 H1655 0.985 . S
N1643 C1645 1.356 . S
N1643 H1648 0.984 . S
N1643 H1649 0.985 . S
C1644 C1638 1.379 . S
C1644 C1641 1.363 . S
C1644 N1642 1.356 . S
C1645 C1639 1.363 . S
C1645 C1640 1.379 . S
C1645 N1643 1.356 . S
N1646 C1638 1.356 . S
N1646 H1652 0.984 . S
N1646 H1653 0.984 . S
N1647 C1640 1.356 . S
N1647 H1650 0.984 . S
N1647 H1651 0.985 . S
H1648 N1643 0.984 . S
H1649 N1643 0.985 . S
H1650 N1647 0.984 . S
H1651 N1647 0.985 . S
H1652 N1646 0.984 . S
H1653 N1646 0.984 . S
H1654 N1642 0.984 . S
H1655 N1642 0.985 . S
C1656 C1657 1.363 . S
C1656 C1662 1.379 . S
C1656 N1664 1.356 . S
C1657 C1656 1.363 . S
C1657 C1663 1.363 . S
C1658 C1659 1.363 . S
C1658 C1663 1.379 . S
C1658 N1665 1.356 . S
C1659 C1658 1.363 . S
C1659 C1662 1.363 . S
N1660 C1662 1.356 . S
N1660 H1672 0.984 . S
N1660 H1673 0.985 . S
N1661 C1663 1.356 . S
N1661 H1666 0.984 . S
N1661 H1667 0.985 . S
C1662 C1656 1.379 . S
C1662 C1659 1.363 . S
C1662 N1660 1.356 . S
C1663 C1657 1.363 . S
C1663 C1658 1.379 . S
C1663 N1661 1.356 . S
N1664 C1656 1.356 . S
N1664 H1670 0.984 . S
N1664 H1671 0.984 . S
N1665 C1658 1.356 . S
N1665 H1668 0.984 . S
N1665 H1669 0.985 . S
H1666 N1661 0.984 . S
H1667 N1661 0.985 . S
H1668 N1665 0.984 . S
H1669 N1665 0.985 . S
H1670 N1664 0.984 . S
H1671 N1664 0.984 . S
H1672 N1660 0.984 . S
H1673 N1660 0.985 . S
C1674 C1675 1.363 . S
C1674 C1680 1.379 . S
C1674 N1682 1.356 . S
C1675 C1674 1.363 . S
C1675 C1681 1.363 . S
C1676 C1677 1.363 . S
C1676 C1681 1.379 . S
C1676 N1683 1.356 . S
C1677 C1676 1.363 . S
C1677 C1680 1.363 . S
N1678 C1680 1.356 . S
N1678 H1690 0.984 . S
N1678 H1691 0.985 . S
N1679 C1681 1.356 . S
N1679 H1684 0.984 . S
N1679 H1685 0.985 . S
C1680 C1674 1.379 . S
C1680 C1677 1.363 . S
C1680 N1678 1.356 . S
C1681 C1675 1.363 . S
C1681 C1676 1.379 . S
C1681 N1679 1.356 . S
N1682 C1674 1.356 . S
N1682 H1688 0.984 . S
N1682 H1689 0.984 . S
N1683 C1676 1.356 . S
N1683 H1686 0.984 . S
N1683 H1687 0.985 . S
H1684 N1679 0.984 . S
H1685 N1679 0.985 . S
H1686 N1683 0.984 . S
H1687 N1683 0.985 . S
H1688 N1682 0.984 . S
H1689 N1682 0.984 . S
H1690 N1678 0.984 . S
H1691 N1678 0.985 . S
C1692 C1693 1.363 . S
C1692 C1698 1.379 . S
C1692 N1700 1.356 . S
C1693 C1692 1.363 . S
C1693 C1699 1.363 . S
C1694 C1695 1.363 . S
C1694 C1699 1.379 . S
C1694 N1701 1.356 . S
C1695 C1694 1.363 . S
C1695 C1698 1.363 . S
N1696 C1698 1.356 . S
N1696 H1708 0.984 . S
N1696 H1709 0.985 . S
N1697 C1699 1.356 . S
N1697 H1702 0.984 . S
N1697 H1703 0.985 . S
C1698 C1692 1.379 . S
C1698 C1695 1.363 . S
C1698 N1696 1.356 . S
C1699 C1693 1.363 . S
C1699 C1694 1.379 . S
C1699 N1697 1.356 . S
N1700 C1692 1.356 . S
N1700 H1706 0.988 . S
N1700 H1707 0.984 . S
N1701 C1694 1.356 . S
N1701 H1704 0.984 . S
N1701 H1705 0.985 . S
H1702 N1697 0.984 . S
H1703 N1697 0.985 . S
H1704 N1701 0.984 . S
H1705 N1701 0.985 . S
H1706 N1700 0.988 . S
H1707 N1700 0.984 . S
H1708 N1696 0.984 . S
H1709 N1696 0.985 . S
C1710 C1711 1.363 . S
C1710 C1716 1.379 . S
C1710 N1718 1.356 . S
C1711 C1710 1.363 . S
C1711 C1717 1.363 . S
C1712 C1713 1.363 . S
C1712 C1717 1.379 . S
C1712 N1719 1.356 . S
C1713 C1712 1.363 . S
C1713 C1716 1.363 . S
N1714 C1716 1.356 . S
N1714 H1726 0.984 . S
N1714 H1727 0.985 . S
N1715 C1717 1.356 . S
N1715 H1720 0.984 . S
N1715 H1721 0.985 . S
C1716 C1710 1.379 . S
C1716 C1713 1.363 . S
C1716 N1714 1.356 . S
C1717 C1711 1.363 . S
C1717 C1712 1.379 . S
C1717 N1715 1.356 . S
N1718 C1710 1.356 . S
N1718 H1724 0.984 1_554 S
N1718 H1725 0.984 . S
N1719 C1712 1.356 . S
N1719 H1722 0.984 . S
N1719 H1723 0.985 . S
H1720 N1715 0.984 . S
H1721 N1715 0.985 . S
H1722 N1719 0.984 . S
H1723 N1719 0.985 . S
H1724 N1718 0.984 1_556 S
H1725 N1718 0.984 . S
H1726 N1714 0.984 . S
H1727 N1714 0.985 . S
C1728 C1729 1.363 . S
C1728 C1734 1.379 . S
C1728 N1736 1.356 . S
C1729 C1728 1.363 . S
C1729 C1735 1.363 . S
C1730 C1731 1.363 . S
C1730 C1735 1.379 . S
C1730 N1737 1.356 . S
C1731 C1730 1.363 . S
C1731 C1734 1.363 . S
N1732 C1734 1.356 . S
N1732 H1744 0.984 . S
N1732 H1745 0.985 . S
N1733 C1735 1.356 . S
N1733 H1738 0.984 . S
N1733 H1739 0.985 . S
C1734 C1728 1.379 . S
C1734 C1731 1.363 . S
C1734 N1732 1.356 . S
C1735 C1729 1.363 . S
C1735 C1730 1.379 . S
C1735 N1733 1.356 . S
N1736 C1728 1.356 . S
N1736 H1742 0.984 1_554 S
N1736 H1743 0.984 . S
N1737 C1730 1.356 . S
N1737 H1740 0.984 . S
N1737 H1741 0.985 . S
H1738 N1733 0.984 . S
H1739 N1733 0.985 . S
H1740 N1737 0.984 . S
H1741 N1737 0.985 . S
H1742 N1736 0.984 1_556 S
H1743 N1736 0.984 . S
H1744 N1732 0.984 . S
H1745 N1732 0.985 . S
C1746 C1747 1.363 . S
C1746 C1752 1.379 . S
C1746 N1754 1.356 . S
C1747 C1746 1.363 . S
C1747 C1753 1.363 . S
C1748 C1749 1.363 . S
C1748 C1753 1.379 . S
C1748 N1755 1.356 . S
C1749 C1748 1.363 . S
C1749 C1752 1.363 . S
N1750 C1752 1.356 . S
N1750 H1762 0.984 . S
N1750 H1763 0.985 . S
N1751 C1753 1.356 . S
N1751 H1756 0.987 . S
N1751 H1757 0.985 1_554 S
C1752 C1746 1.379 . S
C1752 C1749 1.363 . S
C1752 N1750 1.356 . S
C1753 C1747 1.363 . S
C1753 C1748 1.379 . S
C1753 N1751 1.356 . S
N1754 C1746 1.356 . S
N1754 H1760 0.984 . S
N1754 H1761 0.984 . S
N1755 C1748 1.356 . S
N1755 H1758 0.984 . S
N1755 H1759 0.985 . S
H1756 N1751 0.987 . S
H1757 N1751 0.985 1_556 S
H1758 N1755 0.984 . S
H1759 N1755 0.985 . S
H1760 N1754 0.984 . S
H1761 N1754 0.984 . S
H1762 N1750 0.984 . S
H1763 N1750 0.985 . S
C1764 C1765 1.363 . S
C1764 C1770 1.379 . S
C1764 N1772 1.356 . S
C1765 C1764 1.363 . S
C1765 C1771 1.363 . S
C1766 C1767 1.363 . S
C1766 C1771 1.379 . S
C1766 N1773 1.356 . S
C1767 C1766 1.363 . S
C1767 C1770 1.363 . S
N1768 C1770 1.356 . S
N1768 H1780 0.984 . S
N1768 H1781 0.985 . S
N1769 C1771 1.356 1_554 S
N1769 H1774 0.984 . S
N1769 H1775 0.985 . S
C1770 C1764 1.379 . S
C1770 C1767 1.363 . S
C1770 N1768 1.356 . S
C1771 C1765 1.363 . S
C1771 C1766 1.379 . S
C1771 N1769 1.356 1_556 S
N1772 C1764 1.356 . S
N1772 H1778 0.984 . S
N1772 H1779 0.984 . S
N1773 C1766 1.356 . S
N1773 H1776 0.984 . S
N1773 H1777 0.985 1_556 S
H1774 N1769 0.984 . S
H1775 N1769 0.985 . S
H1776 N1773 0.984 . S
H1777 N1773 0.985 1_554 S
H1778 N1772 0.984 . S
H1779 N1772 0.984 . S
H1780 N1768 0.984 . S
H1781 N1768 0.985 . S
C1782 C1783 1.363 . S
C1782 C1788 1.379 . S
C1782 N1790 1.356 . S
C1783 C1782 1.363 . S
C1783 C1789 1.363 . S
C1784 C1785 1.363 . S
C1784 C1789 1.379 . S
C1784 N1791 1.356 . S
C1785 C1784 1.363 . S
C1785 C1788 1.363 . S
N1786 C1788 1.356 . S
N1786 H1798 0.984 . S
N1786 H1799 0.985 . S
N1787 C1789 1.356 1_554 S
N1787 H1792 0.984 . S
N1787 H1793 0.985 . S
C1788 C1782 1.379 . S
C1788 C1785 1.363 . S
C1788 N1786 1.356 . S
C1789 C1783 1.363 . S
C1789 C1784 1.379 . S
C1789 N1787 1.356 1_556 S
N1790 C1782 1.356 . S
N1790 H1796 0.984 . S
N1790 H1797 0.984 . S
N1791 C1784 1.356 . S
N1791 H1794 0.984 . S
N1791 H1795 0.985 1_556 S
H1792 N1787 0.984 . S
H1793 N1787 0.985 . S
H1794 N1791 0.984 . S
H1795 N1791 0.985 1_554 S
H1796 N1790 0.984 . S
H1797 N1790 0.984 . S
H1798 N1786 0.984 . S
H1799 N1786 0.985 . S
C1800 C1801 1.363 . S
C1800 C1806 1.379 . S
C1800 N1808 1.356 . S
C1801 C1800 1.363 . S
C1801 C1807 1.363 . S
C1802 C1803 1.363 . S
C1802 C1807 1.379 . S
C1802 N1809 1.356 . S
C1803 C1802 1.363 . S
C1803 C1806 1.363 . S
N1804 C1806 1.356 . S
N1804 H1816 0.984 . S
N1804 H1817 0.985 . S
N1805 C1807 1.356 1_554 S
N1805 H1810 0.984 . S
N1805 H1811 0.985 . S
C1806 C1800 1.379 . S
C1806 C1803 1.363 . S
C1806 N1804 1.356 . S
C1807 C1801 1.363 . S
C1807 C1802 1.379 . S
C1807 N1805 1.356 1_556 S
N1808 C1800 1.356 . S
N1808 H1814 0.984 . S
N1808 H1815 0.984 . S
N1809 C1802 1.356 . S
N1809 H1812 0.984 . S
N1809 H1813 0.985 1_556 S
H1810 N1805 0.984 . S
H1811 N1805 0.985 . S
H1812 N1809 0.984 . S
H1813 N1809 0.985 1_554 S
H1814 N1808 0.984 . S
H1815 N1808 0.984 . S
H1816 N1804 0.984 . S
H1817 N1804 0.985 . S
C1818 C1819 1.363 . S
C1818 C1824 1.379 . S
C1818 N1826 1.356 1_556 S
C1819 C1818 1.363 . S
C1819 C1825 1.363 . S
C1820 C1821 1.363 . S
C1820 C1825 1.379 . S
C1820 N1827 1.356 . S
C1821 C1820 1.363 . S
C1821 C1824 1.363 . S
N1822 C1824 1.356 . S
N1822 H1834 0.984 1_556 S
N1822 H1835 0.985 . S
N1823 C1825 1.356 . S
N1823 H1828 0.984 . S
N1823 H1829 0.985 . S
C1824 C1818 1.379 . S
C1824 C1821 1.363 . S
C1824 N1822 1.356 . S
C1825 C1819 1.363 . S
C1825 C1820 1.379 . S
C1825 N1823 1.356 . S
N1826 C1818 1.356 1_554 S
N1826 H1832 0.984 . S
N1826 H1833 0.984 . S
N1827 C1820 1.356 . S
N1827 H1830 0.984 . S
N1827 H1831 0.985 . S
H1828 N1823 0.984 . S
H1829 N1823 0.985 . S
H1830 N1827 0.984 . S
H1831 N1827 0.985 . S
H1832 N1826 0.984 . S
H1833 N1826 0.984 . S
H1834 N1822 0.984 1_554 S
H1835 N1822 0.985 . S
C1836 C1837 1.363 . S
C1836 C1842 1.379 . S
C1836 N1844 1.356 1_556 S
C1837 C1836 1.363 . S
C1837 C1843 1.363 . S
C1838 C1839 1.363 . S
C1838 C1843 1.379 . S
C1838 N1845 1.356 . S
C1839 C1838 1.363 . S
C1839 C1842 1.363 . S
N1840 C1842 1.356 . S
N1840 H1852 0.984 . S
N1840 H1853 0.985 . S
N1841 C1843 1.356 . S
N1841 H1846 0.984 . S
N1841 H1847 0.985 . S
C1842 C1836 1.379 . S
C1842 C1839 1.363 . S
C1842 N1840 1.356 . S
C1843 C1837 1.363 . S
C1843 C1838 1.379 . S
C1843 N1841 1.356 . S
N1844 C1836 1.356 1_554 S
N1844 H1850 0.984 . S
N1844 H1851 0.984 . S
N1845 C1838 1.356 . S
N1845 H1848 0.984 . S
N1845 H1849 0.985 . S
H1846 N1841 0.984 . S
H1847 N1841 0.985 . S
H1848 N1845 0.984 . S
H1849 N1845 0.985 . S
H1850 N1844 0.984 . S
H1851 N1844 0.984 . S
H1852 N1840 0.984 . S
H1853 N1840 0.985 . S
C1854 C1855 1.363 . S
C1854 C1860 1.379 . S
C1854 N1862 1.356 . S
C1855 C1854 1.363 . S
C1855 C1861 1.363 . S
C1856 C1857 1.363 . S
C1856 C1861 1.379 . S
C1856 N1863 1.356 . S
C1857 C1856 1.363 . S
C1857 C1860 1.363 . S
N1858 C1860 1.356 . S
N1858 H1870 0.984 . S
N1858 H1871 0.985 . S
N1859 C1861 1.356 . S
N1859 H1864 0.984 . S
N1859 H1865 0.985 . S
C1860 C1854 1.379 . S
C1860 C1857 1.363 . S
C1860 N1858 1.356 . S
C1861 C1855 1.363 . S
C1861 C1856 1.379 . S
C1861 N1859 1.356 . S
N1862 C1854 1.356 . S
N1862 H1868 0.984 . S
N1862 H1869 0.984 . S
N1863 C1856 1.356 . S
N1863 H1866 0.984 . S
N1863 H1867 0.985 . S
H1864 N1859 0.984 . S
H1865 N1859 0.985 . S
H1866 N1863 0.984 . S
H1867 N1863 0.985 . S
H1868 N1862 0.984 . S
H1869 N1862 0.984 . S
H1870 N1858 0.984 . S
H1871 N1858 0.985 . S
C1872 C1873 1.363 . S
C1872 C1878 1.379 . S
C1872 N1880 1.356 . S
C1873 C1872 1.363 . S
C1873 C1879 1.363 . S
C1874 C1875 1.363 . S
C1874 C1879 1.379 . S
C1874 N1881 1.356 . S
C1875 C1874 1.363 . S
C1875 C1878 1.363 . S
N1876 C1878 1.356 . S
N1876 H1888 0.984 . S
N1876 H1889 0.985 . S
N1877 C1879 1.356 . S
N1877 H1882 0.984 . S
N1877 H1883 0.985 . S
C1878 C1872 1.379 . S
C1878 C1875 1.363 . S
C1878 N1876 1.356 . S
C1879 C1873 1.363 . S
C1879 C1874 1.379 . S
C1879 N1877 1.356 . S
N1880 C1872 1.356 . S
N1880 H1886 0.984 . S
N1880 H1887 0.984 . S
N1881 C1874 1.356 . S
N1881 H1884 0.984 . S
N1881 H1885 0.985 . S
H1882 N1877 0.984 . S
H1883 N1877 0.985 . S
H1884 N1881 0.984 . S
H1885 N1881 0.985 . S
H1886 N1880 0.984 . S
H1887 N1880 0.984 . S
H1888 N1876 0.984 . S
H1889 N1876 0.985 . S
C1890 C1891 1.363 . S
C1890 C1896 1.379 . S
C1890 N1898 1.356 . S
C1891 C1890 1.363 . S
C1891 C1897 1.363 . S
C1892 C1893 1.363 . S
C1892 C1897 1.379 . S
C1892 N1899 1.356 . S
C1893 C1892 1.363 . S
C1893 C1896 1.363 . S
N1894 C1896 1.356 . S
N1894 H1906 0.984 . S
N1894 H1907 0.985 . S
N1895 C1897 1.356 . S
N1895 H1900 0.984 . S
N1895 H1901 0.985 1_554 S
C1896 C1890 1.379 . S
C1896 C1893 1.363 . S
C1896 N1894 1.356 . S
C1897 C1891 1.363 . S
C1897 C1892 1.379 . S
C1897 N1895 1.356 . S
N1898 C1890 1.356 . S
N1898 H1904 0.984 . S
N1898 H1905 0.984 . S
N1899 C1892 1.356 . S
N1899 H1902 0.984 . S
N1899 H1903 0.985 . S
H1900 N1895 0.984 . S
H1901 N1895 0.985 1_556 S
H1902 N1899 0.984 . S
H1903 N1899 0.985 . S
H1904 N1898 0.984 . S
H1905 N1898 0.984 . S
H1906 N1894 0.984 . S
H1907 N1894 0.985 . S
C1908 C1909 1.363 . S
C1908 C1914 1.379 . S
C1908 N1916 1.356 . S
C1909 C1908 1.363 . S
C1909 C1915 1.363 . S
C1910 C1911 1.363 . S
C1910 C1915 1.379 . S
C1910 N1917 1.356 . S
C1911 C1910 1.363 . S
C1911 C1914 1.363 . S
N1912 C1914 1.356 . S
N1912 H1924 0.984 . S
N1912 H1925 0.985 . S
N1913 C1915 1.356 . S
N1913 H1918 0.984 . S
N1913 H1919 0.985 1_554 S
C1914 C1908 1.379 . S
C1914 C1911 1.363 . S
C1914 N1912 1.356 . S
C1915 C1909 1.363 . S
C1915 C1910 1.379 . S
C1915 N1913 1.356 . S
N1916 C1908 1.356 . S
N1916 H1922 0.984 . S
N1916 H1923 0.984 . S
N1917 C1910 1.356 . S
N1917 H1920 0.984 . S
N1917 H1921 0.985 . S
H1918 N1913 0.984 . S
H1919 N1913 0.985 1_556 S
H1920 N1917 0.984 . S
H1921 N1917 0.985 . S
H1922 N1916 0.984 . S
H1923 N1916 0.984 . S
H1924 N1912 0.984 . S
H1925 N1912 0.985 . S
C1926 C1927 1.363 . S
C1926 C1932 1.379 . S
C1926 N1934 1.356 . S
C1927 C1926 1.363 . S
C1927 C1933 1.363 . S
C1928 C1929 1.363 . S
C1928 C1933 1.379 . S
C1928 N1935 1.356 . S
C1929 C1928 1.363 . S
C1929 C1932 1.363 . S
N1930 C1932 1.356 . S
N1930 H1942 0.984 . S
N1930 H1943 0.985 . S
N1931 C1933 1.356 . S
N1931 H1936 0.984 . S
N1931 H1937 0.985 . S
C1932 C1926 1.379 . S
C1932 C1929 1.363 . S
C1932 N1930 1.356 . S
C1933 C1927 1.363 . S
C1933 C1928 1.379 . S
C1933 N1931 1.356 . S
N1934 C1926 1.356 . S
N1934 H1940 0.984 . S
N1934 H1941 0.984 . S
N1935 C1928 1.356 . S
N1935 H1938 0.984 . S
N1935 H1939 0.985 . S
H1936 N1931 0.984 . S
H1937 N1931 0.985 . S
H1938 N1935 0.984 . S
H1939 N1935 0.985 . S
H1940 N1934 0.984 . S
H1941 N1934 0.984 . S
H1942 N1930 0.984 . S
H1943 N1930 0.985 . S
C1944 C1945 1.363 . S
C1944 C1950 1.379 . S
C1944 N1952 1.356 . S
C1945 C1944 1.363 . S
C1945 C1951 1.363 . S
C1946 C1947 1.363 . S
C1946 C1951 1.379 . S
C1946 N1953 1.356 . S
C1947 C1946 1.363 . S
C1947 C1950 1.363 . S
N1948 C1950 1.356 . S
N1948 H1960 0.984 . S
N1948 H1961 0.985 . S
N1949 C1951 1.356 . S
N1949 H1954 0.984 . S
N1949 H1955 0.985 . S
C1950 C1944 1.379 . S
C1950 C1947 1.363 . S
C1950 N1948 1.356 . S
C1951 C1945 1.363 . S
C1951 C1946 1.379 . S
C1951 N1949 1.356 . S
N1952 C1944 1.356 . S
N1952 H1958 0.984 . S
N1952 H1959 0.984 . S
N1953 C1946 1.356 . S
N1953 H1956 0.984 . S
N1953 H1957 0.985 . S
H1954 N1949 0.984 . S
H1955 N1949 0.985 . S
H1956 N1953 0.984 . S
H1957 N1953 0.985 . S
H1958 N1952 0.984 . S
H1959 N1952 0.984 . S
H1960 N1948 0.984 . S
H1961 N1948 0.985 . S
C1962 C1963 1.363 . S
C1962 C1968 1.379 . S
C1962 N1970 1.356 . S
C1963 C1962 1.363 . S
C1963 C1969 1.363 . S
C1964 C1965 1.363 . S
C1964 C1969 1.379 . S
C1964 N1971 1.356 . S
C1965 C1964 1.363 . S
C1965 C1968 1.363 . S
N1966 C1968 1.356 . S
N1966 H1978 0.984 . S
N1966 H1979 0.985 . S
N1967 C1969 1.356 . S
N1967 H1972 0.984 . S
N1967 H1973 0.985 . S
C1968 C1962 1.379 . S
C1968 C1965 1.363 . S
C1968 N1966 1.356 . S
C1969 C1963 1.363 . S
C1969 C1964 1.379 . S
C1969 N1967 1.356 . S
N1970 C1962 1.356 . S
N1970 H1976 0.984 . S
N1970 H1977 0.984 . S
N1971 C1964 1.356 . S
N1971 H1974 0.984 . S
N1971 H1975 0.985 . S
H1972 N1967 0.984 . S
H1973 N1967 0.985 . S
H1974 N1971 0.984 . S
H1975 N1971 0.985 . S
H1976 N1970 0.984 . S
H1977 N1970 0.984 . S
H1978 N1966 0.984 . S
H1979 N1966 0.985 . S
C1980 C1981 1.363 . S
C1980 C1986 1.379 . S
C1980 N1988 1.356 . S
C1981 C1980 1.363 . S
C1981 C1987 1.363 . S
C1982 C1983 1.363 . S
C1982 C1987 1.379 . S
C1982 N1989 1.356 . S
C1983 C1982 1.363 . S
C1983 C1986 1.363 . S
N1984 C1986 1.356 1_655 S
N1984 H1996 0.984 . S
N1984 H1997 0.985 . S
N1985 C1987 1.356 . S
N1985 H1990 0.984 . S
N1985 H1991 0.985 . S
C1986 C1980 1.379 . S
C1986 C1983 1.363 . S
C1986 N1984 1.356 1_455 S
C1987 C1981 1.363 . S
C1987 C1982 1.379 . S
C1987 N1985 1.356 . S
N1988 C1980 1.356 . S
N1988 H1994 0.984 1_455 S
N1988 H1995 0.984 . S
N1989 C1982 1.356 . S
N1989 H1992 0.984 . S
N1989 H1993 0.985 . S
H1990 N1985 0.984 . S
H1991 N1985 0.985 . S
H1992 N1989 0.984 . S
H1993 N1989 0.985 . S
H1994 N1988 0.984 1_655 S
H1995 N1988 0.984 . S
H1996 N1984 0.984 . S
H1997 N1984 0.985 . S
C1998 C1999 1.363 . S
C1998 C2004 1.379 . S
C1998 N2006 1.356 . S
C1999 C1998 1.363 . S
C1999 C2005 1.363 . S
C2000 C2001 1.363 . S
C2000 C2005 1.379 . S
C2000 N2007 1.356 . S
C2001 C2000 1.363 . S
C2001 C2004 1.363 . S
N2002 C2004 1.356 . S
N2002 H2014 0.984 . S
N2002 H2015 0.985 . S
N2003 C2005 1.356 . S
N2003 H2008 0.984 . S
N2003 H2009 0.985 . S
C2004 C1998 1.379 . S
C2004 C2001 1.363 . S
C2004 N2002 1.356 . S
C2005 C1999 1.363 . S
C2005 C2000 1.379 . S
C2005 N2003 1.356 . S
N2006 C1998 1.356 . S
N2006 H2012 0.984 . S
N2006 H2013 0.984 . S
N2007 C2000 1.356 . S
N2007 H2010 0.984 . S
N2007 H2011 0.985 . S
H2008 N2003 0.984 . S
H2009 N2003 0.985 . S
H2010 N2007 0.984 . S
H2011 N2007 0.985 . S
H2012 N2006 0.984 . S
H2013 N2006 0.984 . S
H2014 N2002 0.984 . S
H2015 N2002 0.985 . S
C2016 C2017 1.363 . S
C2016 C2022 1.379 . S
C2016 N2024 1.356 . S
C2017 C2016 1.363 . S
C2017 C2023 1.363 1_565 S
C2018 C2019 1.363 1_545 S
C2018 C2023 1.379 . S
C2018 N2025 1.356 . S
C2019 C2018 1.363 1_565 S
C2019 C2022 1.363 . S
N2020 C2022 1.356 . S
N2020 H2032 0.984 . S
N2020 H2033 0.985 . S
N2021 C2023 1.356 . S
N2021 H2026 0.984 . S
N2021 H2027 0.985 . S
C2022 C2016 1.379 . S
C2022 C2019 1.363 . S
C2022 N2020 1.356 . S
C2023 C2017 1.363 1_545 S
C2023 C2018 1.379 . S
C2023 N2021 1.356 . S
N2024 C2016 1.356 . S
N2024 H2030 0.984 . S
N2024 H2031 0.984 . S
N2025 C2018 1.356 . S
N2025 H2028 0.984 . S
N2025 H2029 0.985 . S
H2026 N2021 0.984 . S
H2027 N2021 0.985 . S
H2028 N2025 0.984 . S
H2029 N2025 0.985 . S
H2030 N2024 0.984 . S
H2031 N2024 0.984 . S
H2032 N2020 0.984 . S
H2033 N2020 0.985 . S
C2034 C2035 1.363 . S
C2034 C2040 1.379 . S
C2034 N2042 1.356 . S
C2035 C2034 1.363 . S
C2035 C2041 1.357 1_565 S
C2036 C2037 1.363 1_545 S
C2036 C2041 1.383 . S
C2036 N2043 1.356 . S
C2037 C2036 1.363 1_565 S
C2037 C2040 1.363 . S
N2038 C2040 1.356 . S
N2038 H2050 0.984 . S
N2038 H2051 0.985 . S
N2039 C2041 1.356 . S
N2039 H2044 0.984 . S
N2039 H2045 0.985 . S
C2040 C2034 1.379 . S
C2040 C2037 1.363 . S
C2040 N2038 1.356 . S
C2041 C2035 1.357 1_545 S
C2041 C2036 1.383 . S
C2041 N2039 1.356 . S
N2042 C2034 1.356 . S
N2042 H2048 0.984 . S
N2042 H2049 0.984 . S
N2043 C2036 1.356 . S
N2043 H2046 0.984 . S
N2043 H2047 0.985 . S
H2044 N2039 0.984 . S
H2045 N2039 0.985 . S
H2046 N2043 0.984 . S
H2047 N2043 0.985 . S
H2048 N2042 0.984 . S
H2049 N2042 0.984 . S
H2050 N2038 0.984 . S
H2051 N2038 0.985 . S
C2052 C2053 1.363 . S
C2052 C2058 1.379 . S
C2052 N2060 1.356 . S
C2053 C2052 1.363 . S
C2053 C2059 1.363 1_455 S
C2054 C2055 1.363 1_655 S
C2054 C2059 1.379 . S
C2054 N2061 1.356 . S
C2055 C2054 1.363 1_455 S
C2055 C2058 1.363 . S
N2056 C2058 1.356 . S
N2056 H2068 0.984 . S
N2056 H2069 0.985 . S
N2057 C2059 1.356 . S
N2057 H2062 0.984 . S
N2057 H2063 0.985 . S
C2058 C2052 1.379 . S
C2058 C2055 1.363 . S
C2058 N2056 1.356 . S
C2059 C2053 1.363 1_655 S
C2059 C2054 1.379 . S
C2059 N2057 1.356 . S
N2060 C2052 1.356 . S
N2060 H2066 0.984 . S
N2060 H2067 0.984 . S
N2061 C2054 1.356 . S
N2061 H2064 0.984 . S
N2061 H2065 0.985 . S
H2062 N2057 0.984 . S
H2063 N2057 0.985 . S
H2064 N2061 0.984 . S
H2065 N2061 0.985 . S
H2066 N2060 0.984 . S
H2067 N2060 0.984 . S
H2068 N2056 0.984 . S
H2069 N2056 0.985 . S
C2070 C2071 1.363 . S
C2070 C2076 1.379 . S
C2070 N2078 1.356 . S
C2071 C2070 1.363 . S
C2071 C2077 1.363 . S
C2072 C2073 1.363 . S
C2072 C2077 1.379 . S
C2072 N2079 1.356 . S
C2073 C2072 1.363 . S
C2073 C2076 1.363 . S
N2074 C2076 1.356 . S
N2074 H2086 0.984 . S
N2074 H2087 0.985 . S
N2075 C2077 1.356 . S
N2075 H2080 0.984 . S
N2075 H2081 0.985 . S
C2076 C2070 1.379 . S
C2076 C2073 1.363 . S
C2076 N2074 1.356 . S
C2077 C2071 1.363 . S
C2077 C2072 1.379 . S
C2077 N2075 1.356 . S
N2078 C2070 1.356 . S
N2078 H2084 0.984 . S
N2078 H2085 0.984 . S
N2079 C2072 1.356 . S
N2079 H2082 0.984 . S
N2079 H2083 0.985 . S
H2080 N2075 0.984 . S
H2081 N2075 0.985 . S
H2082 N2079 0.984 . S
H2083 N2079 0.985 . S
H2084 N2078 0.984 . S
H2085 N2078 0.984 . S
H2086 N2074 0.984 . S
H2087 N2074 0.985 . S
C2088 C2089 1.363 . S
C2088 C2094 1.379 . S
C2088 N2096 1.356 . S
C2089 C2088 1.363 . S
C2089 C2095 1.363 . S
C2090 C2091 1.363 . S
C2090 C2095 1.379 . S
C2090 N2097 1.356 . S
C2091 C2090 1.363 . S
C2091 C2094 1.363 . S
N2092 C2094 1.356 . S
N2092 H2104 0.984 . S
N2092 H2105 0.985 . S
N2093 C2095 1.356 . S
N2093 H2098 0.984 . S
N2093 H2099 0.985 . S
C2094 C2088 1.379 . S
C2094 C2091 1.363 . S
C2094 N2092 1.356 . S
C2095 C2089 1.363 . S
C2095 C2090 1.379 . S
C2095 N2093 1.356 . S
N2096 C2088 1.356 . S
N2096 H2102 0.984 . S
N2096 H2103 0.984 . S
N2097 C2090 1.356 . S
N2097 H2100 0.984 . S
N2097 H2101 0.985 . S
H2098 N2093 0.984 . S
H2099 N2093 0.985 . S
H2100 N2097 0.984 . S
H2101 N2097 0.985 . S
H2102 N2096 0.984 . S
H2103 N2096 0.984 . S
H2104 N2092 0.984 . S
H2105 N2092 0.985 . S
C2106 C2107 1.363 . S
C2106 C2112 1.379 . S
C2106 N2114 1.356 . S
C2107 C2106 1.363 . S
C2107 C2113 1.363 . S
C2108 C2109 1.363 . S
C2108 C2113 1.379 . S
C2108 N2115 1.356 . S
C2109 C2108 1.363 . S
C2109 C2112 1.363 . S
N2110 C2112 1.356 . S
N2110 H2122 0.984 . S
N2110 H2123 0.985 . S
N2111 C2113 1.356 . S
N2111 H2116 0.984 . S
N2111 H2117 0.985 . S
C2112 C2106 1.379 . S
C2112 C2109 1.363 . S
C2112 N2110 1.356 . S
C2113 C2107 1.363 . S
C2113 C2108 1.379 . S
C2113 N2111 1.356 . S
N2114 C2106 1.356 . S
N2114 H2120 0.984 . S
N2114 H2121 0.984 . S
N2115 C2108 1.356 . S
N2115 H2118 0.984 . S
N2115 H2119 0.985 . S
H2116 N2111 0.984 . S
H2117 N2111 0.985 . S
H2118 N2115 0.984 . S
H2119 N2115 0.985 . S
H2120 N2114 0.984 . S
H2121 N2114 0.984 . S
H2122 N2110 0.984 . S
H2123 N2110 0.985 . S
C2124 C2125 1.363 . S
C2124 C2130 1.379 . S
C2124 N2132 1.356 . S
C2125 C2124 1.363 . S
C2125 C2131 1.363 . S
C2126 C2127 1.363 . S
C2126 C2131 1.379 . S
C2126 N2133 1.356 . S
C2127 C2126 1.363 . S
C2127 C2130 1.363 . S
N2128 C2130 1.356 . S
N2128 H2140 0.984 . S
N2128 H2141 0.985 . S
N2129 C2131 1.356 . S
N2129 H2134 0.984 . S
N2129 H2135 0.985 . S
C2130 C2124 1.379 . S
C2130 C2127 1.363 . S
C2130 N2128 1.356 . S
C2131 C2125 1.363 . S
C2131 C2126 1.379 . S
C2131 N2129 1.356 . S
N2132 C2124 1.356 . S
N2132 H2138 0.984 . S
N2132 H2139 0.984 . S
N2133 C2126 1.356 . S
N2133 H2136 0.984 . S
N2133 H2137 0.985 . S
H2134 N2129 0.984 . S
H2135 N2129 0.985 . S
H2136 N2133 0.984 . S
H2137 N2133 0.985 . S
H2138 N2132 0.984 . S
H2139 N2132 0.984 . S
H2140 N2128 0.984 . S
H2141 N2128 0.985 . S
C2142 C2143 1.363 . S
C2142 C2148 1.379 . S
C2142 N2150 1.356 . S
C2143 C2142 1.363 . S
C2143 C2149 1.363 . S
C2144 C2145 1.363 . S
C2144 C2149 1.379 . S
C2144 N2151 1.356 1_545 S
C2145 C2144 1.363 . S
C2145 C2148 1.363 . S
N2146 C2148 1.356 . S
N2146 H2158 0.984 . S
N2146 H2159 0.985 . S
N2147 C2149 1.356 . S
N2147 H2152 0.984 . S
N2147 H2153 0.985 1_545 S
C2148 C2142 1.379 . S
C2148 C2145 1.363 . S
C2148 N2146 1.356 . S
C2149 C2143 1.363 . S
C2149 C2144 1.379 . S
C2149 N2147 1.356 . S
N2150 C2142 1.356 . S
N2150 H2156 0.984 . S
N2150 H2157 0.984 . S
N2151 C2144 1.356 1_565 S
N2151 H2154 0.984 . S
N2151 H2155 0.985 . S
H2152 N2147 0.984 . S
H2153 N2147 0.985 1_565 S
H2154 N2151 0.984 . S
H2155 N2151 0.985 . S
H2156 N2150 0.984 . S
H2157 N2150 0.984 . S
H2158 N2146 0.984 . S
H2159 N2146 0.985 . S
C2160 C2161 1.363 1_455 S
C2160 C2166 1.379 . S
C2160 N2168 1.356 . S
C2161 C2160 1.363 1_655 S
C2161 C2167 1.363 . S
C2162 C2163 1.363 . S
C2162 C2167 1.379 . S
C2162 N2169 1.356 . S
C2163 C2162 1.363 . S
C2163 C2166 1.363 1_655 S
N2164 C2166 1.356 . S
N2164 H2176 0.984 . S
N2164 H2177 0.985 . S
N2165 C2167 1.356 . S
N2165 H2170 0.984 . S
N2165 H2171 0.985 . S
C2166 C2160 1.379 . S
C2166 C2163 1.363 1_455 S
C2166 N2164 1.356 . S
C2167 C2161 1.363 . S
C2167 C2162 1.379 . S
C2167 N2165 1.356 . S
N2168 C2160 1.356 . S
N2168 H2174 0.984 . S
N2168 H2175 0.984 . S
N2169 C2162 1.356 . S
N2169 H2172 0.984 . S
N2169 H2173 0.985 . S
H2170 N2165 0.984 . S
H2171 N2165 0.985 . S
H2172 N2169 0.984 . S
H2173 N2169 0.985 . S
H2174 N2168 0.984 . S
H2175 N2168 0.984 . S
H2176 N2164 0.984 . S
H2177 N2164 0.985 . S
C2178 C2179 1.363 . S
C2178 C2184 1.379 . S
C2178 N2186 1.356 . S
C2179 C2178 1.363 . S
C2179 C2185 1.363 . S
C2180 C2181 1.363 . S
C2180 C2185 1.379 . S
C2180 N2187 1.356 . S
C2181 C2180 1.363 . S
C2181 C2184 1.363 . S
N2182 C2184 1.356 . S
N2182 H2194 0.984 . S
N2182 H2195 0.985 . S
N2183 C2185 1.356 . S
N2183 H2188 0.984 . S
N2183 H2189 0.985 . S
C2184 C2178 1.379 . S
C2184 C2181 1.363 . S
C2184 N2182 1.356 . S
C2185 C2179 1.363 . S
C2185 C2180 1.379 . S
C2185 N2183 1.356 . S
N2186 C2178 1.356 . S
N2186 H2192 0.984 . S
N2186 H2193 0.984 . S
N2187 C2180 1.356 . S
N2187 H2190 0.984 . S
N2187 H2191 0.985 . S
H2188 N2183 0.984 . S
H2189 N2183 0.985 . S
H2190 N2187 0.984 . S
H2191 N2187 0.985 . S
H2192 N2186 0.984 . S
H2193 N2186 0.984 . S
H2194 N2182 0.984 . S
H2195 N2182 0.985 . S
C2196 C2197 1.363 . S
C2196 C2202 1.379 . S
C2196 N2204 1.356 . S
C2197 C2196 1.363 . S
C2197 C2203 1.363 . S
C2198 C2199 1.363 . S
C2198 C2203 1.379 . S
C2198 N2205 1.356 . S
C2199 C2198 1.363 . S
C2199 C2202 1.363 . S
N2200 C2202 1.356 . S
N2200 H2212 0.984 . S
N2200 H2213 0.985 . S
N2201 C2203 1.356 . S
N2201 H2206 0.984 . S
N2201 H2207 0.985 . S
C2202 C2196 1.379 . S
C2202 C2199 1.363 . S
C2202 N2200 1.356 . S
C2203 C2197 1.363 . S
C2203 C2198 1.379 . S
C2203 N2201 1.356 . S
N2204 C2196 1.356 . S
N2204 H2210 0.984 . S
N2204 H2211 0.984 . S
N2205 C2198 1.356 . S
N2205 H2208 0.984 . S
N2205 H2209 0.985 . S
H2206 N2201 0.984 . S
H2207 N2201 0.985 . S
H2208 N2205 0.984 . S
H2209 N2205 0.985 . S
H2210 N2204 0.984 . S
H2211 N2204 0.984 . S
H2212 N2200 0.984 . S
H2213 N2200 0.985 . S
C2214 C2215 1.363 . S
C2214 C2220 1.379 . S
C2214 N2222 1.356 . S
C2215 C2214 1.363 . S
C2215 C2221 1.363 . S
C2216 C2217 1.363 . S
C2216 C2221 1.379 . S
C2216 N2223 1.356 . S
C2217 C2216 1.363 . S
C2217 C2220 1.363 . S
N2218 C2220 1.356 . S
N2218 H2230 0.984 . S
N2218 H2231 0.985 . S
N2219 C2221 1.356 . S
N2219 H2224 0.984 . S
N2219 H2225 0.985 . S
C2220 C2214 1.379 . S
C2220 C2217 1.363 . S
C2220 N2218 1.356 . S
C2221 C2215 1.363 . S
C2221 C2216 1.379 . S
C2221 N2219 1.356 . S
N2222 C2214 1.356 . S
N2222 H2228 0.984 . S
N2222 H2229 0.984 . S
N2223 C2216 1.356 . S
N2223 H2226 0.984 . S
N2223 H2227 0.985 . S
H2224 N2219 0.984 . S
H2225 N2219 0.985 . S
H2226 N2223 0.984 . S
H2227 N2223 0.985 . S
H2228 N2222 0.984 . S
H2229 N2222 0.984 . S
H2230 N2218 0.984 . S
H2231 N2218 0.985 . S
C2232 C2233 1.363 . S
C2232 C2238 1.379 . S
C2232 N2240 1.356 . S
C2233 C2232 1.363 . S
C2233 C2239 1.363 . S
C2234 C2235 1.363 . S
C2234 C2239 1.379 . S
C2234 N2241 1.356 . S
C2235 C2234 1.363 . S
C2235 C2238 1.363 . S
N2236 C2238 1.356 . S
N2236 H2248 0.984 . S
N2236 H2249 0.985 . S
N2237 C2239 1.356 . S
N2237 H2242 0.984 . S
N2237 H2243 0.985 . S
C2238 C2232 1.379 . S
C2238 C2235 1.363 . S
C2238 N2236 1.356 . S
C2239 C2233 1.363 . S
C2239 C2234 1.379 . S
C2239 N2237 1.356 . S
N2240 C2232 1.356 . S
N2240 H2246 0.984 . S
N2240 H2247 0.984 . S
N2241 C2234 1.356 . S
N2241 H2244 0.984 . S
N2241 H2245 0.985 . S
H2242 N2237 0.984 . S
H2243 N2237 0.985 . S
H2244 N2241 0.984 . S
H2245 N2241 0.985 . S
H2246 N2240 0.984 . S
H2247 N2240 0.984 . S
H2248 N2236 0.984 . S
H2249 N2236 0.985 . S
C2250 C2251 1.363 . S
C2250 C2256 1.379 . S
C2250 N2258 1.356 . S
C2251 C2250 1.363 . S
C2251 C2257 1.363 . S
C2252 C2253 1.363 . S
C2252 C2257 1.379 . S
C2252 N2259 1.356 . S
C2253 C2252 1.363 . S
C2253 C2256 1.363 . S
N2254 C2256 1.356 . S
N2254 H2266 0.984 . S
N2254 H2267 0.985 . S
N2255 C2257 1.356 . S
N2255 H2260 0.984 . S
N2255 H2261 0.985 . S
C2256 C2250 1.379 . S
C2256 C2253 1.363 . S
C2256 N2254 1.356 . S
C2257 C2251 1.363 . S
C2257 C2252 1.379 . S
C2257 N2255 1.356 . S
N2258 C2250 1.356 . S
N2258 H2264 0.984 . S
N2258 H2265 0.984 . S
N2259 C2252 1.356 . S
N2259 H2262 0.984 . S
N2259 H2263 0.985 . S
H2260 N2255 0.984 . S
H2261 N2255 0.985 . S
H2262 N2259 0.984 . S
H2263 N2259 0.985 . S
H2264 N2258 0.984 . S
H2265 N2258 0.984 . S
H2266 N2254 0.984 . S
H2267 N2254 0.985 . S
C2268 C2269 1.363 . S
C2268 C2274 1.379 . S
C2268 N2276 1.356 . S
C2269 C2268 1.363 . S
C2269 C2275 1.363 . S
C2270 C2271 1.363 . S
C2270 C2275 1.379 . S
C2270 N2277 1.356 . S
C2271 C2270 1.363 . S
C2271 C2274 1.363 . S
N2272 C2274 1.356 . S
N2272 H2284 0.984 . S
N2272 H2285 0.985 . S
N2273 C2275 1.356 . S
N2273 H2278 0.984 . S
N2273 H2279 0.985 . S
C2274 C2268 1.379 . S
C2274 C2271 1.363 . S
C2274 N2272 1.356 . S
C2275 C2269 1.363 . S
C2275 C2270 1.379 . S
C2275 N2273 1.356 . S
N2276 C2268 1.356 . S
N2276 H2282 0.984 . S
N2276 H2283 0.984 . S
N2277 C2270 1.356 . S
N2277 H2280 0.984 . S
N2277 H2281 0.985 . S
H2278 N2273 0.984 . S
H2279 N2273 0.985 . S
H2280 N2277 0.984 . S
H2281 N2277 0.985 . S
H2282 N2276 0.984 . S
H2283 N2276 0.984 . S
H2284 N2272 0.984 . S
H2285 N2272 0.985 . S
C2286 C2287 1.363 . S
C2286 C2292 1.379 . S
C2286 N2294 1.356 . S
C2287 C2286 1.363 . S
C2287 C2293 1.363 . S
C2288 C2289 1.363 . S
C2288 C2293 1.379 . S
C2288 N2295 1.356 . S
C2289 C2288 1.363 . S
C2289 C2292 1.363 . S
N2290 C2292 1.356 . S
N2290 H2302 0.984 . S
N2290 H2303 0.985 . S
N2291 C2293 1.356 . S
N2291 H2296 0.984 . S
N2291 H2297 0.985 . S
C2292 C2286 1.379 . S
C2292 C2289 1.363 . S
C2292 N2290 1.356 . S
C2293 C2287 1.363 . S
C2293 C2288 1.379 . S
C2293 N2291 1.356 . S
N2294 C2286 1.356 . S
N2294 H2300 0.984 . S
N2294 H2301 0.984 . S
N2295 C2288 1.356 . S
N2295 H2298 0.984 . S
N2295 H2299 0.985 . S
H2296 N2291 0.984 . S
H2297 N2291 0.985 . S
H2298 N2295 0.984 . S
H2299 N2295 0.985 . S
H2300 N2294 0.984 . S
H2301 N2294 0.984 . S
H2302 N2290 0.984 . S
H2303 N2290 0.985 . S
C2304 C2305 1.363 1_455 S
C2304 C2310 1.379 . S
C2304 N2312 1.356 . S
C2305 C2304 1.363 1_655 S
C2305 C2311 1.363 . S
C2306 C2307 1.363 . S
C2306 C2311 1.379 . S
C2306 N2313 1.356 . S
C2307 C2306 1.363 . S
C2307 C2310 1.363 1_655 S
N2308 C2310 1.356 . S
N2308 H2320 0.984 . S
N2308 H2321 0.985 . S
N2309 C2311 1.356 . S
N2309 H2314 0.984 . S
N2309 H2315 0.985 . S
C2310 C2304 1.379 . S
C2310 C2307 1.363 1_455 S
C2310 N2308 1.356 . S
C2311 C2305 1.363 . S
C2311 C2306 1.379 . S
C2311 N2309 1.356 . S
N2312 C2304 1.356 . S
N2312 H2318 0.984 . S
N2312 H2319 0.984 . S
N2313 C2306 1.356 . S
N2313 H2316 0.984 . S
N2313 H2317 0.985 . S
H2314 N2309 0.984 . S
H2315 N2309 0.985 . S
H2316 N2313 0.984 . S
H2317 N2313 0.985 . S
H2318 N2312 0.984 . S
H2319 N2312 0.984 . S
H2320 N2308 0.984 . S
H2321 N2308 0.985 . S
C2322 C2323 1.363 . S
C2322 C2328 1.379 . S
C2322 N2330 1.356 . S
C2323 C2322 1.363 . S
C2323 C2329 1.363 . S
C2324 C2325 1.363 . S
C2324 C2329 1.379 . S
C2324 N2331 1.356 . S
C2325 C2324 1.363 . S
C2325 C2328 1.363 . S
N2326 C2328 1.356 . S
N2326 H2338 0.984 . S
N2326 H2339 0.985 . S
N2327 C2329 1.356 . S
N2327 H2332 0.984 . S
N2327 H2333 0.985 . S
C2328 C2322 1.379 . S
C2328 C2325 1.363 . S
C2328 N2326 1.356 . S
C2329 C2323 1.363 . S
C2329 C2324 1.379 . S
C2329 N2327 1.356 . S
N2330 C2322 1.356 . S
N2330 H2336 0.984 . S
N2330 H2337 0.984 . S
N2331 C2324 1.356 . S
N2331 H2334 0.984 . S
N2331 H2335 0.985 . S
H2332 N2327 0.984 . S
H2333 N2327 0.985 . S
H2334 N2331 0.984 . S
H2335 N2331 0.985 . S
H2336 N2330 0.984 . S
H2337 N2330 0.984 . S
H2338 N2326 0.984 . S
H2339 N2326 0.985 . S
C2340 C2341 1.363 . S
C2340 C2346 1.379 . S
C2340 N2348 1.356 . S
C2341 C2340 1.363 . S
C2341 C2347 1.360 1_545 S
C2342 C2343 1.363 1_565 S
C2342 C2347 1.368 . S
C2342 N2349 1.356 . S
C2343 C2342 1.363 1_545 S
C2343 C2346 1.363 . S
N2344 C2346 1.356 . S
N2344 H2356 0.984 . S
N2344 H2357 0.985 . S
N2345 C2347 1.373 . S
N2345 H2350 0.975 . S
N2345 H2351 0.985 . S
C2346 C2340 1.379 . S
C2346 C2343 1.363 . S
C2346 N2344 1.356 . S
C2347 C2341 1.360 1_565 S
C2347 C2342 1.368 . S
C2347 N2345 1.373 . S
N2348 C2340 1.356 . S
N2348 H2354 0.984 . S
N2348 H2355 0.984 . S
N2349 C2342 1.356 . S
N2349 H2352 0.984 . S
N2349 H2353 0.985 . S
H2350 N2345 0.975 . S
H2351 N2345 0.985 . S
H2352 N2349 0.984 . S
H2353 N2349 0.985 . S
H2354 N2348 0.984 . S
H2355 N2348 0.984 . S
H2356 N2344 0.984 . S
H2357 N2344 0.985 . S
C1063 C8 1.416 . S
C1065 C670 1.497 . S
C1081 C18 1.503 . S
C1083 C716 1.530 . S
C1101 C748 1.524 . S
C1099 C31 1.414 . S
C1117 C34 1.420 . S
C1119 C801 1.501 . S
C1135 C5 1.416 . S
C1137 C847 1.518 . S
C1153 C21 1.525 . S
C1155 C886 1.560 . S
C1171 C47 1.413 . S
C1173 C840 1.496 . S
C1191 C893 1.536 . S
C1189 C57 1.502 . S
C1209 C794 1.527 . S
C1207 C70 1.432 . S
C1225 C73 1.405 . S
C1227 C755 1.492 . S
C1245 C649 1.519 . S
C1243 C44 1.427 . S
C1261 C60 1.522 . S
C1263 C695 1.546 . S
C1279 C86 1.597 . S
C1281 C925 1.622 . S
C1297 C96 1.574 . S
C1299 C992 1.568 . S
C1317 C1038 1.606 . S
C1315 C109 1.624 . S
C1333 C112 1.609 . S
C1335 C249 1.611 . S
C1351 C83 1.618 . S
C1353 C295 1.615 . S
C1369 C99 1.596 . S
C1371 C341 1.595 . S
C1387 C125 1.529 . S
C1389 C288 1.541 . S
C1405 C135 1.563 . S
C1407 C334 1.571 . S
C1425 C242 1.614 . S
C1423 C148 1.618 . S
C1443 C1017 1.675 . S
C1441 C151 1.673 . S
C1461 C946 1.607 . S
C1459 C122 1.612 . S
C1479 C971 1.615 . S
C1477 C138 1.617 . S
C1495 C164 1.530 . S
C1497 C373 1.556 . S
C1513 C174 1.555 . S
C1515 C426 1.575 . S
C1531 C187 1.612 . S
C1533 C472 1.622 . S
C1549 C190 1.672 . S
C1551 C518 1.689 . S
C1569 C571 1.607 . S
C1567 C161 1.625 . S
C1587 C617 1.619 . S
C1585 C177 1.622 . S
C1605 C564 1.619 . S
C1603 C203 1.607 . S
C1623 C610 1.579 . S
C1621 C213 1.584 . S
C1639 C226 1.621 . S
C1641 C525 1.616 . S
C1659 C479 1.620 . S
C1657 C229 1.603 . S
C1675 C200 1.613 . S
C1677 C394 1.624 . S
C1695 C433 1.611 . S
C1693 C216 1.599 . S
C1713 C256 1.594 . S
C1711 C0 1.502 . S
C1729 C23 1.549 . S
C1731 C302 1.509 . S
C1749 C348 1.597 . S
C1747 C36 1.629 . S
C1767 C380 1.600 . S
C1765 C26 1.523 . S
C1785 C419 1.556 . S
C1783 C10 1.617 . S
C1803 C465 1.519 . S
C1801 C13 1.473 . S
C1819 C39 1.504 . S
C1821 C486 1.577 . S
C1837 C62 1.536 . S
C1839 C387 1.479 . S
C1855 C75 1.614 . S
C1857 C440 1.563 . S
C1873 C65 1.541 . S
C1875 C281 1.635 . S
C1893 C327 1.583 . S
C1891 C49 1.625 . S
C1909 C52 1.473 . S
C1911 C235 1.542 . S
C1929 C511 1.522 . S
C1927 C78 1.474 . S
C1945 C101 1.617 . S
C1947 C578 1.577 . S
C1963 C114 1.620 . S
C1965 C624 1.587 . S
C1983 C663 1.352 . S
C1981 C104 1.320 . S
C1999 C88 1.530 . S
C2001 C709 1.497 . S
C2017 C91 1.263 . S
C2019 C741 1.281 . S
C2035 C117 1.293 . S
C2037 C762 1.306 . S
C2053 C140 1.310 . S
C2055 C656 1.311 . S
C2073 C702 1.510 . S
C2071 C153 1.534 . S
C2089 C143 1.497 . S
C2091 C557 1.567 . S
C2107 C127 1.624 . S
C2109 C603 1.581 . S
C2127 C532 1.575 . S
C2125 C130 1.548 . S
C2145 C808 1.326 . S
C2143 C156 1.298 . S
C2161 C179 1.306 . S
C2163 C854 1.308 . S
C2179 C192 1.531 . S
C2181 C879 1.491 . S
C2199 C932 1.528 . S
C2197 C182 1.479 . S
C2217 C985 1.583 . S
C2215 C166 1.624 . S
C2233 C169 1.550 . S
C2235 C1031 1.597 . S
C2251 C195 1.480 . S
C2253 C1024 1.549 . S
C2269 C218 1.611 . S
C2271 C939 1.554 . S
C2289 C978 1.570 . S
C2287 C231 1.602 . S
C2307 C833 1.340 . S
C2305 C221 1.310 . S
C2325 C900 1.486 . S
C2323 C205 1.536 . S
C2341 C208 1.273 . S
C2343 C787 1.300 . S
