# Generated by pormake.
# Topology anh, (6,3)-cn, num edge types: 1
# Building blocks:
#     Node 0, Type 0, BuildingBlock: NUHQIS_clean_sbu_0, # of connection points: 6
#     Node 1, Type 0, BuildingBlock: NUHQIS_clean_sbu_0, # of connection points: 6
#     Node 2, Type 0, BuildingBlock: NUHQIS_clean_sbu_0, # of connection points: 6
#     Node 3, Type 1, BuildingBlock: VETTIZ_charged_linker_0, # of connection points: 3
#     Node 4, Type 1, BuildingBlock: VETTIZ_charged_linker_0, # of connection points: 3
#     Node 5, Type 1, BuildingBlock: VETTIZ_charged_linker_0, # of connection points: 3
#     Node 6, Type 1, BuildingBlock: VETTIZ_charged_linker_0, # of connection points: 3
#     Node 7, Type 1, BuildingBlock: VETTIZ_charged_linker_0, # of connection points: 3
#     Node 8, Type 1, BuildingBlock: VETTIZ_charged_linker_0, # of connection points: 3
#     Edge 9, Type (0, 1), BuildingBlock: XUDNAN_clean_linker_2, # of connection points: 2
#     Edge 10, Type (0, 1), BuildingBlock: XUDNAN_clean_linker_2, # of connection points: 2
#     Edge 11, Type (0, 1), BuildingBlock: XUDNAN_clean_linker_2, # of connection points: 2
#     Edge 12, Type (0, 1), BuildingBlock: XUDNAN_clean_linker_2, # of connection points: 2
#     Edge 13, Type (0, 1), BuildingBlock: XUDNAN_clean_linker_2, # of connection points: 2
#     Edge 14, Type (0, 1), BuildingBlock: XUDNAN_clean_linker_2, # of connection points: 2
#     Edge 15, Type (0, 1), BuildingBlock: XUDNAN_clean_linker_2, # of connection points: 2
#     Edge 16, Type (0, 1), BuildingBlock: XUDNAN_clean_linker_2, # of connection points: 2
#     Edge 17, Type (0, 1), BuildingBlock: XUDNAN_clean_linker_2, # of connection points: 2
#     Edge 18, Type (0, 1), BuildingBlock: XUDNAN_clean_linker_2, # of connection points: 2
#     Edge 19, Type (0, 1), BuildingBlock: XUDNAN_clean_linker_2, # of connection points: 2
#     Edge 20, Type (0, 1), BuildingBlock: XUDNAN_clean_linker_2, # of connection points: 2
#     Edge 21, Type (0, 1), BuildingBlock: XUDNAN_clean_linker_2, # of connection points: 2
#     Edge 22, Type (0, 1), BuildingBlock: XUDNAN_clean_linker_2, # of connection points: 2
#     Edge 23, Type (0, 1), BuildingBlock: XUDNAN_clean_linker_2, # of connection points: 2
#     Edge 24, Type (0, 1), BuildingBlock: XUDNAN_clean_linker_2, # of connection points: 2
#     Edge 25, Type (0, 1), BuildingBlock: XUDNAN_clean_linker_2, # of connection points: 2
#     Edge 26, Type (0, 1), BuildingBlock: XUDNAN_clean_linker_2, # of connection points: 2
# Relax obj value: 0.242
# Max RMSD: 0.191
# Mean RMSD: 0.158
data_MOF--net-anh--node1-NUHQIS_clean_sbu_0--node2-VETTIZ_charged_linker_0--edge1-XUDNAN_clean_linker_2
_symmetry_space_group_name_H-M    P1
_symmetry_Int_Tables_number       1
_symmetry_cell_setting            triclinic
loop_
_symmetry_equiv_pos_as_xyz
'x, y, z'
_cell_length_a     36.732168
_cell_length_b     36.690476
_cell_length_c     67.749521
_cell_angle_alpha  90.131631
_cell_angle_beta   92.99325
_cell_angle_gamma 120.19048
loop_
_atom_site_label
_atom_site_type_symbol
_atom_site_fract_x
_atom_site_fract_y
_atom_site_fract_z
_atom_type_partial_charge
Tb0 Tb 0.15425 0.58081 0.15043 0.0
Eu1 Eu 0.10885 0.63272 0.15946 0.0
C2 C 0.14611 0.60151 0.19359 0.0
C3 C 1.05206 0.5279 0.15772 0.0
C4 C 0.22362 0.53059 0.14891 0.0
C5 C 0.25567 0.49916 0.16976 0.0
C6 C 0.22894 0.51584 0.16737 0.0
C7 C 0.24791 0.53156 0.13345 0.0
C8 C 0.27454 0.51496 0.13582 0.0
C9 C 0.27735 0.49695 0.15374 0.0
C10 C 0.18756 0.53671 0.1442 0.0
O11 O 0.12504 0.58158 0.1217 0.0
O12 O 0.12439 0.64226 0.12716 0.0
O13 O 0.17995 0.68391 0.16423 0.0
O14 O 0.20797 0.64784 0.1496 0.0
C15 C 0.1238 0.61426 0.11483 0.0
O16 O 1.06621 0.65514 0.1501 0.0
O17 O 0.09951 0.6743 0.17904 0.0
O18 O 0.11177 0.60118 0.1873 0.0
O19 O 0.17283 0.60354 0.18102 0.0
O20 O 0.08862 0.52925 0.156 0.0
O21 O 1.05152 0.56382 0.15773 0.0
C22 C 0.21311 0.68363 0.15749 0.0
O23 O 0.16167 0.52976 0.15803 0.0
O24 O 0.19336 0.56838 0.13339 0.0
C25 C 1.02842 0.6589 0.176 0.0
C26 C 0.94381 0.61436 0.18644 0.0
C27 C 0.95537 0.63959 0.16964 0.0
C28 C 0.9972 0.66188 0.16463 0.0
C29 C 1.01795 0.63686 0.19369 0.0
C30 C 0.97606 0.61523 0.19898 0.0
C31 C 1.06914 0.67256 0.1674 0.0
H32 H 0.25767 0.48602 0.1838 0.0
H33 H 0.21056 0.51468 0.17959 0.0
H34 H 0.24397 0.54227 0.11902 0.0
H35 H 0.29029 0.5133 0.12306 0.0
H36 H 0.93199 0.63961 0.15926 0.0
H37 H 1.00459 0.67867 0.15094 0.0
H38 H 1.04153 0.63419 0.20283 0.0
H39 H 0.96874 0.5972 0.21229 0.0
Tb40 Tb 0.68538 0.14797 0.48655 0.0
Eu41 Eu 0.58741 0.09747 0.4923 0.0
C42 C 0.65253 0.12293 0.52834 0.0
C43 C 0.64089 1.04549 0.49112 0.0
C44 C 0.78236 0.24412 0.48413 0.0
C45 C 0.81851 0.30884 0.46637 0.0
C46 C 0.81094 0.26829 0.47015 0.0
C47 C 0.7645 0.26247 0.49557 0.0
C48 C 0.77182 0.30288 0.4917 0.0
C49 C 0.79706 0.32555 0.4763 0.0
C50 C 0.76246 0.198 0.48287 0.0
O51 O 0.65754 0.1205 0.45706 0.0
O52 O 0.59535 0.11807 0.46052 0.0
O53 O 0.60534 0.16704 0.49978 0.0
O54 O 0.66629 0.19728 0.48374 0.0
C55 C 0.62363 0.11921 0.44907 0.0
O56 O 0.52365 1.05438 0.48025 0.0
O57 O 0.53364 0.08003 0.51028 0.0
O58 O 0.6185 0.09125 0.52015 0.0
O59 O 0.67763 0.15473 0.51785 0.0
O60 O 0.67608 0.08301 0.49064 0.0
O61 O 0.60371 1.04367 0.49021 0.0
C62 C 0.63696 0.20134 0.49259 0.0
O63 O 0.74782 0.17798 0.49906 0.0
O64 O 0.73492 0.18095 0.46794 0.0
C65 C 0.48345 1.00801 0.5047 0.0
C66 C 0.43721 0.92526 0.51846 0.0
C67 C 0.46747 0.93523 0.5044 0.0
C68 C 0.49051 0.97613 0.49773 0.0
C69 C 0.45457 0.99879 0.51926 0.0
C70 C 0.43178 0.95782 0.52617 0.0
C71 C 0.5074 1.05105 0.49733 0.0
H72 H 0.8395 0.32621 0.45492 0.0
H73 H 0.8248 0.25465 0.46109 0.0
H74 H 0.74199 0.24429 0.50636 0.0
H75 H 0.75513 0.31487 0.49976 0.0
H76 H 0.47222 0.91115 0.49781 0.0
H77 H 0.51328 0.98249 0.48678 0.0
H78 H 0.44936 1.02316 0.52514 0.0
H79 H 0.4093 0.9515 0.53725 0.0
Tb80 Tb 0.62798 0.61493 0.82956 0.0
Eu81 Eu 0.57378 0.52027 0.81229 0.0
C82 C 0.59906 0.53996 0.85777 0.0
C83 C 0.67823 0.56392 0.82169 0.0
C84 C 0.66622 0.72102 0.85393 0.0
C85 C 0.69807 0.78581 0.87399 0.0
C86 C 0.69914 0.75067 0.86675 0.0
C87 C 0.63044 0.72466 0.84988 0.0
C88 C 0.62963 0.76001 0.85678 0.0
C89 C 0.66439 0.79217 0.86814 0.0
C90 C 0.67195 0.68988 0.84301 0.0
O91 O 0.63856 0.61771 0.79747 0.0
O92 O 0.57879 0.55841 0.78596 0.0
O93 O 0.52345 0.5372 0.82059 0.0
O94 O 0.56284 0.60774 0.82862 0.0
C95 C 0.61204 0.59444 0.78265 0.0
O96 O 0.56007 0.46773 0.79185 0.0
O97 O 0.5161 0.46051 0.81391 0.0
O98 O 0.59666 0.51623 0.84284 0.0
O99 O 0.59979 0.57563 0.85488 0.0
O100 O 0.67734 0.59552 0.83086 0.0
O101 O 0.64319 0.53421 0.8119 0.0
C102 C 0.52513 0.57296 0.82569 0.0
O103 O 0.66745 0.65732 0.8526 0.0
O104 O 0.65413 0.67946 0.82516 0.0
C105 C 0.51282 0.39791 0.80237 0.0
C106 C 0.47513 0.30961 0.80407 0.0
C107 C 0.49423 0.33058 0.78692 0.0
C108 C 0.51264 0.37428 0.78606 0.0
C109 C 0.49581 0.37732 0.8199 0.0
C110 C 0.47708 0.33356 0.82072 0.0
C111 C 0.52467 0.44226 0.79981 0.0
H112 H 0.72486 0.80927 0.8831 0.0
H113 H 0.72678 0.74794 0.87025 0.0
H114 H 0.60437 0.70178 0.84021 0.0
H115 H 0.60317 0.76346 0.85165 0.0
H116 H 0.49427 0.31316 0.77401 0.0
H117 H 0.52534 0.38944 0.77236 0.0
H118 H 0.49529 0.39469 0.83272 0.0
H119 H 0.46261 0.31839 0.83413 0.0
C120 C 0.74271 0.21948 0.17706 0.0
C121 C 0.77509 0.2586 0.18692 0.0
C122 C 0.77001 0.26302 0.2071 0.0
C123 C 0.7057 0.19302 0.20767 0.0
C124 C 0.70763 0.1875 0.18765 0.0
C125 C 0.66828 0.14473 0.18033 0.0
H126 H 0.47977 0.96357 0.20887 0.0
C127 C 0.66768 0.15487 0.21526 0.0
C128 C 0.64393 0.12575 0.19927 0.0
H129 H 0.51884 0.98452 0.14912 0.0
H130 H 0.58267 1.05172 0.16007 0.0
H131 H 0.56747 0.98682 0.22678 0.0
H132 H 0.50258 1.05602 0.22001 0.0
H133 H 0.52827 0.07078 0.24364 0.0
H134 H 0.48986 1.0161 0.23794 0.0
H135 H 0.52799 0.98077 0.24305 0.0
H136 H 0.58318 1.01907 0.24821 0.0
C137 C 0.68266 0.11575 0.17155 0.0
C138 C 0.64126 0.15323 0.16504 0.0
C139 C 0.65006 0.14771 0.29047 0.0
C140 C 0.61843 0.11798 0.30222 0.0
C141 C 0.58458 0.0816 0.29279 0.0
C142 C 0.58167 0.07486 0.27227 0.0
C143 C 0.61285 0.10484 0.26054 0.0
C144 C 0.64642 0.14052 0.26966 0.0
C145 C 0.67551 0.16951 0.2546 0.0
C146 C 0.65455 0.14477 0.23504 0.0
C147 C 0.6177 0.10697 0.23871 0.0
C148 C 0.71947 0.17428 0.25917 0.0
C149 C 0.675 0.21154 0.25567 0.0
C150 C 0.501 0.98231 0.19776 0.0
C151 C 0.49214 0.96718 0.17791 0.0
C152 C 0.52331 0.99391 0.1646 0.0
C153 C 0.56063 1.03337 0.1709 0.0
C154 C 0.56856 1.04748 0.19098 0.0
C155 C 0.53837 1.02098 0.20378 0.0
C156 C 0.55092 1.03724 0.2247 0.0
C157 C 0.59238 0.07831 0.22283 0.0
C158 C 0.60438 0.08616 0.20298 0.0
C159 C 0.5575 1.00439 0.23645 0.0
C160 C 0.51618 1.04525 0.23216 0.0
H161 H 0.73668 0.23773 0.23268 0.0
H162 H 0.74442 0.21415 0.1615 0.0
H163 H 0.63198 0.17505 0.17149 0.0
H164 H 0.61206 0.12363 0.16023 0.0
H165 H 0.65915 0.16786 0.15179 0.0
H166 H 0.7031 0.11086 0.18263 0.0
H167 H 0.70092 0.12985 0.15833 0.0
H168 H 0.65522 0.08445 0.16709 0.0
H169 H 0.6761 0.17646 0.29719 0.0
H170 H 0.55972 0.05838 0.3014 0.0
H171 H 0.55454 1.04657 0.26638 0.0
H172 H 0.71631 0.14314 0.26243 0.0
H173 H 0.73595 0.19567 0.27228 0.0
H174 H 0.74005 0.18605 0.24666 0.0
H175 H 0.64581 0.20725 0.26202 0.0
H176 H 0.67482 0.22418 0.24085 0.0
H177 H 0.70226 0.23587 0.26502 0.0
H178 H 0.79311 0.29119 0.21545 0.0
C179 C 0.73668 0.23121 0.21729 0.0
C180 C 0.6365 0.73253 0.50952 0.0
C181 C 0.63161 0.7652 0.51925 0.0
C182 C 0.62456 0.7599 0.53954 0.0
C183 C 0.62847 0.69478 0.54046 0.0
C184 C 0.63387 0.69694 0.5204 0.0
C185 C 0.63604 0.65732 0.51354 0.0
H186 H 0.6283 0.46702 0.54465 0.0
C187 C 0.62845 0.65634 0.54842 0.0
C188 C 0.63191 0.63245 0.53279 0.0
H189 H 0.64332 0.50779 0.48453 0.0
H190 H 0.64107 0.57135 0.49469 0.0
H191 H 0.69442 0.5549 0.56245 0.0
H192 H 0.55933 0.49215 0.55522 0.0
H193 H 0.57338 0.51597 0.57902 0.0
H194 H 0.58697 0.47666 0.57274 0.0
H195 H 0.66119 0.51424 0.57851 0.0
H196 H 0.67854 0.56908 0.58364 0.0
C197 C 0.67865 0.6715 0.50471 0.0
C198 C 0.59911 0.6307 0.49844 0.0
C199 C 0.62781 0.64243 0.62364 0.0
C200 C 0.62767 0.61224 0.63657 0.0
C201 C 0.62578 0.57608 0.62811 0.0
C202 C 0.62504 0.5706 0.60746 0.0
C203 C 0.62601 0.60147 0.59474 0.0
C204 C 0.62674 0.63628 0.60299 0.0
C205 C 0.62588 0.66503 0.58738 0.0
C206 C 0.62677 0.64309 0.56835 0.0
C207 C 0.6267 0.60568 0.5727 0.0
C208 C 0.66633 0.70877 0.59108 0.0
C209 C 0.58374 0.6651 0.58851 0.0
C210 C 0.6304 0.48863 0.53332 0.0
C211 C 0.63557 0.48024 0.51357 0.0
C212 C 0.63938 0.51183 0.49995 0.0
C213 C 0.63791 0.54905 0.50577 0.0
C214 C 0.63303 0.55659 0.52571 0.0
C215 C 0.62975 0.52602 0.53889 0.0
C216 C 0.62741 0.53842 0.55966 0.0
C217 C 0.62843 0.58023 0.55719 0.0
C218 C 0.63147 0.59251 0.53713 0.0
C219 C 0.66711 0.54424 0.57185 0.0
C220 C 0.5848 0.50405 0.56726 0.0
H221 H 0.61885 0.72633 0.56534 0.0
H222 H 0.64177 0.7344 0.4939 0.0
H223 H 0.56855 0.62143 0.50492 0.0
H224 H 0.59883 0.60152 0.49393 0.0
H225 H 0.60145 0.64889 0.485 0.0
H226 H 0.70504 0.69156 0.51565 0.0
H227 H 0.68198 0.69009 0.49131 0.0
H228 H 0.68167 0.64396 0.50053 0.0
H229 H 0.62835 0.67023 0.62945 0.0
H230 H 0.62583 0.55227 0.63752 0.0
H231 H 0.62398 0.54244 0.60223 0.0
H232 H 0.69384 0.70513 0.59568 0.0
H233 H 0.66246 0.72715 0.60301 0.0
H234 H 0.67586 0.72787 0.57776 0.0
H235 H 0.5592 0.63623 0.59541 0.0
H236 H 0.56928 0.66474 0.57369 0.0
H237 H 0.58818 0.69266 0.59741 0.0
H238 H 0.62126 0.78318 0.54789 0.0
C239 C 0.62329 0.72611 0.5499 0.0
C240 C 0.21842 0.57802 0.84385 0.0
C241 C 0.25678 0.5839 0.8544 0.0
C242 C 0.2593 0.5918 0.87497 0.0
C243 C 0.19009 0.58773 0.87437 0.0
C244 C 0.18572 0.58073 0.85411 0.0
C245 C 0.14309 0.57702 0.84627 0.0
H246 H 0.96087 0.58411 0.87371 0.0
C247 C 0.15194 0.58821 0.88147 0.0
C248 C 0.12331 0.58256 0.8651 0.0
H249 H 0.98131 0.56278 0.81379 0.0
H250 H 1.04885 0.56755 0.8251 0.0
H251 H 0.98479 0.52164 0.89124 0.0
H252 H 1.05311 0.65559 0.88555 0.0
H253 H 1.06965 0.64741 0.90898 0.0
H254 H 1.01456 0.62998 0.9035 0.0
H255 H 0.97849 0.55657 0.90739 0.0
H256 H 1.01696 0.54063 0.91309 0.0
C257 C 0.11433 0.53332 0.83632 0.0
C258 C 0.15194 0.61229 0.8318 0.0
C259 C 0.14539 0.60554 0.95656 0.0
C260 C 0.11625 0.60929 0.968 0.0
C261 C 1.08014 0.60646 0.95819 0.0
C262 C 1.07314 0.60059 0.93761 0.0
C263 C 0.1026 0.59763 0.9262 0.0
C264 C 0.13799 0.60005 0.9357 0.0
C265 C 0.16641 0.59778 0.92097 0.0
C266 C 0.14184 0.59276 0.90115 0.0
C267 C 0.10445 0.59272 0.9044 0.0
C268 C 0.16981 0.55816 0.92542 0.0
C269 C 0.20907 0.6401 0.92268 0.0
C270 C 0.97942 0.58105 0.86262 0.0
C271 C 0.96392 0.57342 0.84264 0.0
C272 C 0.99075 0.56859 0.8294 0.0
C273 C 1.03043 0.57149 0.8359 0.0
C274 C 1.0448 0.57894 0.85614 0.0
C275 C 1.01831 0.58319 0.86881 0.0
C276 C 1.03496 0.58881 0.88983 0.0
C277 C 1.0759 0.58831 0.88823 0.0
C278 C 1.0837 0.58279 0.86841 0.0
C279 C 1.00223 0.55029 0.90113 0.0
C280 C 1.0433 0.63245 0.89756 0.0
H281 H 0.23255 0.59911 0.90037 0.0
H282 H 0.21416 0.57189 0.82802 0.0
H283 H 0.1734 0.64369 0.83909 0.0
H284 H 0.12233 0.61134 0.82664 0.0
H285 H 0.16714 0.60902 0.81867 0.0
H286 H 0.10894 0.50811 0.84684 0.0
H287 H 0.12893 0.52899 0.82323 0.0
H288 H 1.08324 0.52931 0.8314 0.0
H289 H 0.17384 0.60822 0.96358 0.0
H290 H 1.05722 0.60923 0.96655 0.0
H291 H 1.045 0.59916 0.93146 0.0
H292 H 0.13876 0.53141 0.92927 0.0
H293 H 0.19281 0.56442 0.93811 0.0
H294 H 0.17862 0.54627 0.91261 0.0
H295 H 0.20522 0.66632 0.92843 0.0
H296 H 0.22263 0.65083 0.90816 0.0
H297 H 0.23251 0.63784 0.93285 0.0
H298 H 0.28625 0.59562 0.88401 0.0
C299 C 0.22714 0.59352 0.88471 0.0
C300 C 0.96076 0.59344 0.43528 0.0
C301 C 0.92743 0.57971 0.42073 0.0
C302 C 0.93694 0.585 0.40066 0.0
C303 C 1.01046 0.60918 0.41001 0.0
C304 C 1.00152 0.60716 0.42965 0.0
C305 C 1.03843 0.61561 0.44346 0.0
H306 H 0.24239 0.66984 0.45702 0.0
C307 C 1.05427 0.61774 0.40932 0.0
C308 C 1.07056 0.62122 0.42888 0.0
H309 H 0.15539 0.65546 0.50101 0.0
H310 H 0.09847 0.62957 0.47589 0.0
H311 H 0.17751 0.58178 0.43254 0.0
H312 H 0.21159 0.71111 0.42445 0.0
H313 H 0.21278 0.68853 0.40161 0.0
H314 H 0.24702 0.69118 0.42213 0.0
H315 H 0.22345 0.6172 0.41996 0.0
H316 H 0.17225 0.58697 0.40695 0.0
C317 C 1.02575 0.57621 0.45614 0.0
C318 C 1.05187 0.6569 0.45549 0.0
C319 C 0.1158 0.62263 0.34331 0.0
C320 C 0.15338 0.62465 0.33801 0.0
C321 C 0.18281 0.62804 0.35325 0.0
C322 C 0.1752 0.62979 0.37318 0.0
C323 C 0.13751 0.62758 0.37811 0.0
C324 C 0.10827 0.62341 0.36329 0.0
C325 C 1.06832 0.61762 0.37132 0.0
C326 C 1.07898 0.62023 0.3934 0.0
C327 C 0.11974 0.62652 0.39727 0.0
C328 C 1.03153 0.57339 0.36433 0.0
C329 C 1.06234 0.65467 0.36463 0.0
C330 C 0.21077 0.6598 0.46127 0.0
C331 C 0.2033 0.66502 0.48095 0.0
C332 C 0.16186 0.65206 0.4859 0.0
C333 C 0.12899 0.63749 0.47124 0.0
C334 C 0.13761 0.63591 0.4514 0.0
C335 C 0.17754 0.64541 0.44672 0.0
C336 C 0.18059 0.64188 0.42477 0.0
C337 C 0.1366 0.63121 0.41707 0.0
C338 C 0.11182 0.62798 0.43275 0.0
C339 C 0.18916 0.60533 0.42072 0.0
C340 C 0.2149 0.68529 0.41774 0.0
H341 H 0.98345 0.60166 0.37971 0.0
H342 H 0.95479 0.58911 0.45083 0.0
H343 H 1.04735 0.67964 0.44634 0.0
H344 H 0.08569 0.67412 0.46037 0.0
H345 H 1.03281 0.65052 0.4686 0.0
H346 H 1.00267 0.54673 0.44771 0.0
H347 H 1.01097 0.57786 0.46975 0.0
H348 H 1.05257 0.57152 0.46032 0.0
H349 H 0.0924 0.62036 0.33222 0.0
H350 H 0.21153 0.62857 0.34986 0.0
H351 H 0.19882 0.63244 0.38402 0.0
H352 H 1.04286 0.55072 0.36226 0.0
H353 H 1.01625 0.57484 0.35 0.0
H354 H 1.00732 0.55869 0.37528 0.0
H355 H 0.09286 0.68499 0.36614 0.0
H356 H 1.04064 0.65905 0.3737 0.0
H357 H 1.05045 0.65016 0.34889 0.0
H358 H 0.91185 0.57483 0.38916 0.0
C359 C 0.97839 0.59995 0.39522 0.0
C360 C 0.57401 0.97227 0.79793 0.0
C361 C 0.61392 0.97578 0.79806 0.0
C362 C 0.63557 0.98669 0.78045 0.0
C363 C 0.57817 0.99099 0.76348 0.0
C364 C 0.55674 0.9797 0.7806 0.0
C365 C 0.51337 0.97412 0.77783 0.0
H366 H 0.41989 0.06984 0.74041 0.0
C367 C 0.55177 0.99726 0.74825 0.0
C368 C 0.51383 0.98767 0.75658 0.0
H369 H 0.38315 0.98495 0.78928 0.0
H370 H 0.42428 0.95565 0.77734 0.0
H371 H 0.51449 0.10023 0.73661 0.0
H372 H 0.40439 0.99435 0.70947 0.0
H373 H 0.44597 0.99686 0.69639 0.0
H374 H 0.43567 1.04004 0.69568 0.0
H375 H 0.47557 0.10044 0.71935 0.0
H376 H 0.51802 0.09575 0.71064 0.0
C377 C 0.5088 1.0032 0.79307 0.0
C378 C 0.48098 0.92664 0.77973 0.0
C379 C 0.60958 1.05628 0.68183 0.0
C380 C 0.59278 0.06734 0.66528 0.0
C381 C 0.55349 0.06527 0.66648 0.0
C382 C 0.53135 1.0522 0.68371 0.0
C383 C 0.54859 1.04124 0.69998 0.0
C384 C 0.58679 1.04288 0.69884 0.0
C385 C 0.59886 1.02775 0.71733 0.0
C386 C 0.56043 1.01468 0.72921 0.0
C387 C 0.53179 1.02388 0.71915 0.0
C388 C 0.63922 0.06576 0.72718 0.0
C389 C 0.60382 0.98959 0.71174 0.0
C390 C 0.41983 1.04449 0.7485 0.0
C391 C 0.40099 1.03231 0.76683 0.0
C392 C 0.40001 0.99737 0.77603 0.0
C393 C 0.42439 0.9809 0.76941 0.0
C394 C 0.44933 0.99927 0.75341 0.0
C395 C 0.44335 1.02689 0.7419 0.0
C396 C 0.46832 1.03765 0.72366 0.0
C397 C 0.49522 1.01747 0.72825 0.0
C398 C 0.4848 0.99652 0.74616 0.0
C399 C 0.49563 0.08616 0.72243 0.0
C400 C 0.43716 1.01633 0.70533 0.0
H401 H 0.63573 1.00199 0.75027 0.0
H402 H 0.55617 0.96367 0.81103 0.0
H403 H 0.49226 0.90659 0.7731 0.0
H404 H 0.45042 0.91707 0.77165 0.0
H405 H 0.47564 0.91848 0.7955 0.0
H406 H 0.53269 1.01372 0.80572 0.0
H407 H 0.47796 0.98691 0.79985 0.0
H408 H 0.51281 1.0324 0.78623 0.0
H409 H 0.63968 0.05762 0.68154 0.0
H410 H 0.53915 0.07256 0.65389 0.0
H411 H 0.50153 1.0508 0.68376 0.0
H412 H 0.63816 0.0954 0.72564 0.0
H413 H 0.66787 0.07037 0.72018 0.0
H414 H 0.6431 0.06291 0.74324 0.0
H415 H 0.58009 0.96969 0.69973 0.0
H416 H 0.59819 0.96814 0.7241 0.0
H417 H 0.63562 1.00012 0.70643 0.0
H418 H 0.6657 0.98827 0.77977 0.0
C419 C 0.61793 0.99429 0.76321 0.0
C420 C 0.64552 0.39438 0.12436 0.0
C421 C 0.68819 0.42064 0.12104 0.0
C422 C 0.70044 0.43232 0.10166 0.0
C423 C 0.6271 0.39679 0.08962 0.0
C424 C 0.61544 0.38346 0.10854 0.0
C425 C 0.56866 0.36309 0.11028 0.0
H426 H 0.39403 0.35978 0.07865 0.0
C427 C 0.5886 0.3868 0.07733 0.0
C428 C 0.5542 0.36674 0.08931 0.0
H429 H 0.42048 0.31566 0.13356 0.0
H430 H 0.47986 0.31562 0.11981 0.0
H431 H 0.48155 0.42972 0.0712 0.0
H432 H 0.41919 0.30052 0.05007 0.0
H433 H 0.4549 0.32976 0.03223 0.0
H434 H 0.41248 0.33943 0.03707 0.0
H435 H 0.43684 0.40629 0.05357 0.0
H436 H 0.48949 0.42846 0.0458 0.0
C437 C 0.56135 0.39006 0.12555 0.0
C438 C 0.55123 0.3165 0.11587 0.0
C439 C 0.60068 0.43914 0.00717 0.0
C440 C 0.57108 0.43872 -0.00701 0.0
C441 C 0.52873 0.42117 -0.00221 0.0
C442 C 0.516 0.40398 0.01634 0.0
C443 C 0.54598 0.40481 0.03037 0.0
C444 C 0.58748 0.42203 0.02567 0.0
C445 C 0.61502 0.42068 0.04258 0.0
C446 C 0.58272 0.39799 0.05785 0.0
C447 C 0.54253 0.38938 0.05069 0.0
C448 C 0.64805 0.4668 0.04929 0.0
C449 C 0.63444 0.39419 0.03579 0.0
C450 C 0.4121 0.34903 0.08743 0.0
C451 C 0.40386 0.33915 0.10734 0.0
C452 C 0.42676 0.32397 0.11828 0.0
C453 C 0.46159 0.32471 0.1104 0.0
C454 C 0.47381 0.34178 0.09173 0.0
C455 C 0.44739 0.35023 0.07989 0.0
C456 C 0.4649 0.36638 0.06013 0.0
C457 C 0.50803 0.37027 0.063 0.0
C458 C 0.51341 0.35701 0.08179 0.0
C459 C 0.46831 0.40992 0.05735 0.0
C460 C 0.43644 0.33259 0.04394 0.0
H461 H 0.68112 0.43077 0.07148 0.0
H462 H 0.63563 0.38578 0.13926 0.0
H463 H 0.57208 0.3045 0.11132 0.0
H464 H 0.52018 0.29502 0.10814 0.0
H465 H 0.54844 0.31277 0.13208 0.0
H466 H 0.58187 0.42428 0.12297 0.0
H467 H 0.56893 0.38419 0.14089 0.0
H468 H 0.5291 0.38472 0.12488 0.0
H469 H 0.63355 0.45282 0.004 0.0
H470 H 0.50524 0.41997 0.98703 0.0
H471 H 0.48336 0.39102 0.01912 0.0
H472 H 0.63796 0.48949 0.04442 0.0
H473 H 0.67907 0.47704 0.04312 0.0
H474 H 0.6525 0.47125 0.06558 0.0
H475 H 0.61014 0.36508 0.02752 0.0
H476 H 0.64669 0.38335 0.0483 0.0
H477 H 0.66037 0.41235 0.02587 0.0
H478 H 0.73343 0.45268 0.09893 0.0
C479 C 0.67007 0.41998 0.08584 0.0
H480 H 0.35094 0.51423 0.13776 0.0
H481 H 0.24832 0.41974 0.17023 0.0
H482 H 0.27328 0.36972 0.16451 0.0
H483 H 0.34024 0.44799 0.10014 0.0
H484 H 0.39557 0.47109 0.09613 0.0
H485 H 0.3764 0.50283 0.10661 0.0
H486 H 0.42908 0.52253 0.13717 0.0
H487 H 0.44932 0.4917 0.12654 0.0
H488 H 0.43031 0.48127 0.15106 0.0
H489 H 0.30371 0.3267 0.15105 0.0
H490 H 0.33922 0.29643 0.13219 0.0
H491 H 0.41717 0.41818 0.10684 0.0
C492 C 0.33439 0.48341 0.14414 0.0
C493 C 0.29782 0.47097 0.15448 0.0
C494 C 0.27694 0.43031 0.16257 0.0
C495 C 0.29069 0.40152 0.15927 0.0
C496 C 0.32537 0.414 0.14793 0.0
C497 C 0.34726 0.45425 0.14073 0.0
C498 C 0.38047 0.45867 0.12717 0.0
C499 C 0.37266 0.47084 0.10629 0.0
C500 C 0.42492 0.49041 0.13602 0.0
C501 C 0.37273 0.41422 0.12722 0.0
C502 C 0.34146 0.38896 0.13953 0.0
C503 C 0.32847 0.34629 0.14147 0.0
C504 C 0.34841 0.32928 0.13065 0.0
C505 C 0.38004 0.35483 0.11781 0.0
C506 C 0.39228 0.39772 0.11621 0.0
H507 H 0.79743 0.34974 0.43832 0.0
H508 H 0.8 0.38983 0.49887 0.0
H509 H 0.80977 0.45761 0.4872 0.0
H510 H 0.88109 0.43653 0.42604 0.0
H511 H 0.86341 0.43743 0.4008 0.0
H512 H 0.84194 0.38852 0.4131 0.0
H513 H 0.76666 0.37657 0.40532 0.0
H514 H 0.78855 0.42655 0.39338 0.0
H515 H 0.7541 0.41567 0.41327 0.0
H516 H 0.83673 0.52547 0.47062 0.0
H517 H 0.88779 0.58677 0.45272 0.0
H518 H 0.87145 0.50445 0.40304 0.0
C519 C 0.79937 0.37253 0.44912 0.0
C520 C 0.79853 0.36469 0.46951 0.0
C521 C 0.80035 0.39497 0.48313 0.0
C522 C 0.80555 0.43349 0.47659 0.0
C523 C 0.80842 0.44109 0.45638 0.0
C524 C 0.80526 0.41121 0.44284 0.0
C525 C 0.81798 0.42952 0.4227 0.0
C526 C 0.8532 0.42265 0.41527 0.0
C527 C 0.77952 0.41097 0.40779 0.0
C528 C 0.83342 0.47549 0.42754 0.0
C529 C 0.82533 0.48118 0.44672 0.0
C530 C 0.84241 0.52134 0.45549 0.0
C531 C 0.87142 0.55609 0.44519 0.0
C532 C 0.88405 0.55018 0.42662 0.0
C533 C 0.8619 0.51001 0.41704 0.0
H534 H 0.60171 0.81093 0.87264 0.0
H535 H 0.73656 0.86959 0.8668 0.0
H536 H 0.73933 0.93497 0.8572 0.0
H537 H 0.58329 0.83517 0.82982 0.0
H538 H 0.5411 0.84504 0.83457 0.0
H539 H 0.55081 0.81153 0.85039 0.0
H540 H 0.55976 0.85843 0.88097 0.0
H541 H 0.54928 0.89205 0.86518 0.0
H542 H 0.59685 0.91432 0.88111 0.0
H543 H 0.72571 0.98362 0.83781 0.0
H544 H 0.69728 1.01046 0.81161 0.0
H545 H 0.57011 0.91551 0.82483 0.0
C546 C 0.63208 0.83811 0.87009 0.0
C547 C 0.66863 0.83459 0.87019 0.0
C548 C 0.70793 0.87112 0.8671 0.0
C549 C 0.70985 0.90871 0.8615 0.0
C550 C 0.6723 0.90938 0.859 0.0
C551 C 0.63404 0.87509 0.86353 0.0
C552 C 0.59734 0.87914 0.85499 0.0
C553 C 0.56642 0.84048 0.84165 0.0
C554 C 0.57447 0.88644 0.87155 0.0
C555 C 0.62076 0.91843 0.84319 0.0
C556 C 0.66394 0.93667 0.84651 0.0
C557 C 0.69195 0.97022 0.83546 0.0
C558 C 0.67547 0.98479 0.82034 0.0
C559 C 0.63134 0.96501 0.81599 0.0
C560 C 0.6039 0.93226 0.82804 0.0
H561 H 0.87369 0.62002 0.17541 0.0
H562 H 0.91082 0.53463 0.20138 0.0
H563 H 0.83902 0.47559 0.19457 0.0
H564 H 0.75403 0.55409 0.18304 0.0
H565 H 0.74289 0.56768 0.15881 0.0
H566 H 0.78936 0.60509 0.17355 0.0
H567 H 0.8352 0.61085 0.14463 0.0
H568 H 0.78944 0.57289 0.13004 0.0
H569 H 0.8329 0.56382 0.13498 0.0
H570 H 0.77214 0.42329 0.17583 0.0
H571 H 0.71679 0.38525 0.14886 0.0
H572 H 0.72755 0.50327 0.13101 0.0
C573 C 0.86659 0.58909 0.1801 0.0
C574 C 0.89854 0.58227 0.18856 0.0
C575 C 0.88729 0.54133 0.195 0.0
C576 C 0.84636 0.50719 0.19099 0.0
C577 C 0.8172 0.51425 0.18028 0.0
C578 C 0.82663 0.55448 0.17522 0.0
C579 C 0.79395 0.55325 0.16026 0.0
C580 C 0.76854 0.57107 0.16947 0.0
C581 C 0.8141 0.57654 0.14138 0.0
C582 C 0.76703 0.50624 0.15632 0.0
C583 C 0.77964 0.48404 0.16859 0.0
C584 C 0.76166 0.44034 0.16636 0.0
C585 C 0.73056 0.41902 0.151 0.0
C586 C 0.71879 0.44175 0.13793 0.0
C587 C 0.7365 0.48554 0.1409 0.0
H588 H 0.3531 0.88787 0.52416 0.0
H589 H 0.45476 0.86049 0.52173 0.0
H590 H 0.40264 0.78448 0.51923 0.0
H591 H 0.27752 0.78622 0.55122 0.0
H592 H 0.23323 0.7836 0.53713 0.0
H593 H 0.2784 0.83413 0.54447 0.0
H594 H 0.2853 0.85572 0.50788 0.0
H595 H 0.2409 0.80549 0.5004 0.0
H596 H 0.29071 0.82317 0.48962 0.0
H597 H 0.34096 0.7159 0.50708 0.0
H598 H 0.27514 0.66064 0.48954 0.0
H599 H 0.21375 0.73158 0.50264 0.0
C600 C 0.36472 0.86601 0.52428 0.0
C601 C 0.40804 0.88034 0.52289 0.0
C602 C 0.42164 0.85039 0.52241 0.0
C603 C 0.39225 0.80704 0.52122 0.0
C604 C 0.34948 0.79406 0.52118 0.0
C605 C 0.33582 0.82272 0.52333 0.0
C606 C 0.28841 0.8017 0.52003 0.0
C607 C 0.2682 0.80139 0.53937 0.0
C608 C 0.27565 0.82275 0.5035 0.0
C609 C 0.27795 0.75772 0.51387 0.0
C610 C 0.31335 0.75348 0.51504 0.0
C611 C 0.31268 0.71813 0.50687 0.0
C612 C 0.27531 0.68702 0.49684 0.0
C613 C 0.23925 0.69154 0.49515 0.0
C614 C 0.24034 0.72652 0.50444 0.0
H615 H 0.42478 0.25363 0.77423 0.0
H616 H 0.47516 0.26008 0.83434 0.0
H617 H 0.44244 0.18272 0.83363 0.0
H618 H 0.32566 0.14614 0.77674 0.0
H619 H 0.33045 0.13234 0.75184 0.0
H620 H 0.34793 0.18647 0.75868 0.0
H621 H 0.42212 0.20943 0.74664 0.0
H622 H 0.40477 0.15571 0.73965 0.0
H623 H 0.45049 0.18455 0.7565 0.0
H624 H 0.41843 0.10914 0.82439 0.0
H625 H 0.41111 1.04745 0.807 0.0
H626 H 0.37323 0.08544 0.7526 0.0
C627 C 0.4283 0.23869 0.78738 0.0
C628 C 0.45249 0.2629 0.80436 0.0
C629 C 0.45623 0.24218 0.82128 0.0
C630 C 0.43758 0.19819 0.82103 0.0
C631 C 0.41492 0.17534 0.80384 0.0
C632 C 0.41009 0.19488 0.78732 0.0
C633 C 0.39013 0.16421 0.76976 0.0
C634 C 0.34591 0.15685 0.76392 0.0
C635 C 0.41859 0.17937 0.75212 0.0
C636 C 0.38765 0.12518 0.77854 0.0
C637 C 0.40072 0.13191 0.7984 0.0
C638 C 0.40693 0.10293 0.80902 0.0
C639 C 0.40228 0.06748 0.79889 0.0
C640 C 0.39167 0.06121 0.7782 0.0
C641 C 0.38167 0.08924 0.76831 0.0
H642 H 0.58749 0.96558 0.50864 0.0
H643 H 0.70181 1.03041 0.47716 0.0
H644 H 0.70927 0.96709 0.4787 0.0
H645 H 0.62693 0.91305 0.5422 0.0
H646 H 0.57671 0.86512 0.54309 0.0
H647 H 0.57867 0.91441 0.53847 0.0
H648 H 0.53204 0.88216 0.50627 0.0
H649 H 0.53 0.83278 0.51078 0.0
H650 H 0.54824 0.85867 0.48781 0.0
H651 H 0.7035 0.89197 0.48319 0.0
H652 H 0.6902 0.82157 0.4935 0.0
H653 H 0.58317 0.80531 0.52459 0.0
C654 C 0.61403 0.96656 0.5019 0.0
C655 C 0.64381 1.00439 0.49244 0.0
C656 C 0.67819 1.003 0.48438 0.0
C657 C 0.68268 0.96654 0.48516 0.0
C658 C 0.6531 0.9302 0.49449 0.0
C659 C 0.61968 0.93028 0.50303 0.0
C660 C 0.5937 0.88795 0.51324 0.0
C661 C 0.59401 0.89559 0.53558 0.0
C662 C 0.54829 0.86397 0.50398 0.0
C663 C 0.61729 0.86401 0.50907 0.0
C664 C 0.65119 0.88874 0.49794 0.0
C665 C 0.67702 0.87291 0.49201 0.0
C666 C 0.66894 0.8321 0.49783 0.0
C667 C 0.63547 0.80615 0.50997 0.0
C668 C 0.60925 0.82322 0.51537 0.0
H669 H 0.75498 0.60585 0.84698 0.0
H670 H 0.69766 0.51569 0.7976 0.0
H671 H 0.76169 0.50979 0.7971 0.0
H672 H 0.86408 0.65806 0.83169 0.0
H673 H 0.88783 0.66383 0.85631 0.0
H674 H 0.83804 0.6622 0.8527 0.0
H675 H 0.80436 0.60012 0.87628 0.0
H676 H 0.85407 0.60162 0.87998 0.0
H677 H 0.80732 0.55335 0.8715 0.0
H678 H 0.83587 0.51443 0.80145 0.0
H679 H 0.90634 0.52524 0.81136 0.0
H680 H 0.91808 0.61012 0.85912 0.0
C681 C 0.75572 0.58489 0.83596 0.0
C682 C 0.71968 0.56142 0.82215 0.0
C683 C 0.72348 0.53428 0.80837 0.0
C684 C 0.76038 0.53072 0.80795 0.0
C685 C 0.79487 0.55402 0.82159 0.0
C686 C 0.79268 0.58039 0.83552 0.0
C687 C 0.83396 0.60092 0.84891 0.0
C688 C 0.85736 0.64912 0.84731 0.0
C689 C 0.82435 0.58826 0.87045 0.0
C690 C 0.85969 0.58235 0.84037 0.0
C691 C 0.83652 0.55559 0.82447 0.0
C692 C 0.85378 0.53535 0.81396 0.0
C693 C 0.89472 0.54204 0.81971 0.0
C694 C 0.91982 0.56871 0.83619 0.0
C695 C 0.90097 0.58907 0.84656 0.0
H696 H 0.24829 0.76108 0.18098 0.0
H697 H 0.28118 0.7011 0.1356 0.0
H698 H 0.35193 0.76457 0.13531 0.0
H699 H 0.30743 0.86931 0.16359 0.0
H700 H 0.32524 0.89385 0.18794 0.0
H701 H 0.27643 0.84432 0.1844 0.0
H702 H 0.30337 0.81093 0.21054 0.0
H703 H 0.35223 0.86039 0.21417 0.0
H704 H 0.35294 0.81308 0.20771 0.0
H705 H 0.42193 0.83826 0.13922 0.0
H706 H 0.48242 0.90875 0.14861 0.0
H707 H 0.40927 0.92311 0.19301 0.0
C708 C 0.27021 0.76115 0.17089 0.0
C709 C 0.25747 0.72461 0.15813 0.0
C710 C 0.28862 0.7274 0.14555 0.0
C711 C 0.3295 0.76394 0.14524 0.0
C712 C 0.34085 0.79895 0.15784 0.0
C713 C 0.31211 0.79767 0.17065 0.0
C714 C 0.33323 0.83931 0.18317 0.0
C715 C 0.30914 0.8631 0.17956 0.0
C716 C 0.33557 0.8304 0.20521 0.0
C717 C 0.37792 0.8642 0.17539 0.0
C718 C 0.38136 0.84032 0.16061 0.0
C719 C 0.41908 0.85675 0.15087 0.0
C720 C 0.45378 0.89765 0.15629 0.0
C721 C 0.45235 0.92335 0.17169 0.0
C722 C 0.41295 0.90538 0.18128 0.0
H723 H 0.59639 0.23502 0.51652 0.0
H724 H 0.68509 0.27091 0.4706 0.0
H725 H 0.69349 0.34192 0.4708 0.0
H726 H 0.54662 0.29597 0.49942 0.0
H727 H 0.54188 0.31212 0.52384 0.0
H728 H 0.54182 0.26341 0.52013 0.0
H729 H 0.60411 0.28837 0.5462 0.0
H730 H 0.60434 0.33715 0.54999 0.0
H731 H 0.65172 0.3381 0.54341 0.0
H732 H 0.69147 0.41209 0.47521 0.0
H733 H 0.68263 0.47207 0.48461 0.0
H734 H 0.59752 0.39611 0.52892 0.0
C735 C 0.61745 0.2576 0.50638 0.0
C736 C 0.63988 0.24553 0.49339 0.0
C737 C 0.66724 0.27765 0.48075 0.0
C738 C 0.67224 0.31878 0.48072 0.0
C739 C 0.64996 0.32944 0.49353 0.0
C740 C 0.62324 0.29975 0.50629 0.0
C741 C 0.60394 0.32026 0.51894 0.0
C742 C 0.55569 0.29652 0.51538 0.0
C743 C 0.61678 0.321 0.54095 0.0
C744 C 0.62358 0.36566 0.51127 0.0
C745 C 0.64983 0.36999 0.49647 0.0
C746 C 0.67087 0.40848 0.48683 0.0
C747 C 0.66534 0.44293 0.49228 0.0
C748 C 0.63916 0.44063 0.50763 0.0
C749 C 0.61814 0.4005 0.51721 0.0
H750 H 0.50064 0.62331 0.84915 0.0
H751 H 0.44912 0.52031 0.80551 0.0
H752 H 0.37934 0.51432 0.80657 0.0
H753 H 0.4067 0.57737 0.87822 0.0
H754 H 0.41038 0.62698 0.88437 0.0
H755 H 0.45732 0.62529 0.87957 0.0
H756 H 0.4745 0.6802 0.85258 0.0
H757 H 0.42755 0.68198 0.85729 0.0
H758 H 0.43572 0.67 0.83267 0.0
H759 H 0.31089 0.51951 0.81205 0.0
H760 H 0.25438 0.5312 0.82351 0.0
H761 H 0.34584 0.62787 0.86511 0.0
C762 C 0.47491 0.59967 0.83963 0.0
C763 C 0.48226 0.57254 0.82697 0.0
C764 C 0.44608 0.54185 0.81531 0.0
C765 C 0.40558 0.53817 0.81578 0.0
C766 C 0.39943 0.56488 0.82831 0.0
C767 C 0.43321 0.59487 0.84023 0.0
C768 C 0.41718 0.6182 0.85308 0.0
C769 C 0.42327 0.61158 0.87512 0.0
C770 C 0.44012 0.66541 0.84865 0.0
C771 C 0.36965 0.59696 0.84654 0.0
C772 C 0.36017 0.56654 0.83202 0.0
C773 C 0.31854 0.54329 0.82352 0.0
C774 C 0.2861 0.55042 0.83008 0.0
C775 C 0.2938 0.58041 0.84547 0.0
C776 C 0.33719 0.60414 0.8535 0.0
H777 H 0.97059 0.50373 0.17281 0.0
H778 H 1.0387 0.44933 0.14693 0.0
H779 H 0.97686 0.37817 0.14947 0.0
H780 H 0.91688 0.42158 0.20834 0.0
H781 H 0.86804 0.4221 0.20579 0.0
H782 H 0.91709 0.46888 0.20106 0.0
H783 H 0.88566 0.47107 0.16629 0.0
H784 H 0.83698 0.42329 0.17067 0.0
H785 H 0.86577 0.42606 0.14953 0.0
H786 H 0.9034 0.30871 0.15438 0.0
H787 H 0.83344 0.25254 0.1643 0.0
H788 H 0.8121 0.34826 0.18952 0.0
C789 C 0.97265 0.477 0.16753 0.0
C790 C 1.0111 0.48386 0.15941 0.0
C791 C 1.01089 0.4466 0.15312 0.0
C792 C 0.97528 0.40533 0.1545 0.0
C793 C 0.93842 0.39974 0.16253 0.0
C794 C 0.93705 0.43475 0.16915 0.0
C795 C 0.89374 0.4196 0.1777 0.0
C796 C 0.89926 0.4339 0.19952 0.0
C797 C 0.86909 0.43605 0.16533 0.0
C798 C 0.8716 0.371 0.17549 0.0
C799 C 0.89758 0.36024 0.16616 0.0
C800 C 0.88335 0.31739 0.16181 0.0
C801 C 0.84281 0.28516 0.16739 0.0
C802 C 0.81562 0.29447 0.17778 0.0
C803 C 0.83108 0.33883 0.18165 0.0
H804 H 0.12564 0.56432 0.08431 0.0
H805 H 0.12139 0.67866 0.09548 0.0
H806 H 0.12292 0.69101 0.0597 0.0
H807 H 0.19625 0.60383 0.0442 0.0
H808 H 0.1699 0.55474 0.02999 0.0
H809 H 0.16882 0.55453 0.05656 0.0
H810 H 0.08717 0.51179 0.05367 0.0
H811 H 0.08802 0.51159 0.02711 0.0
H812 H 1.05871 0.53162 0.03915 0.0
H813 H 0.12376 0.69093 0.02267 0.0
H814 H 0.12113 0.67699 0.98681 0.0
H815 H 0.12563 0.5632 -0.00144 0.0
C816 C 0.12495 0.59194 0.07926 0.0
C817 C 0.12334 0.62051 0.09294 0.0
C818 C 0.12256 0.65622 0.08551 0.0
C819 C 0.12354 0.66361 0.06513 0.0
C820 C 0.1254 0.63511 0.05213 0.0
C821 C 0.12595 0.59987 0.05884 0.0
C822 C 0.12731 0.57395 0.04155 0.0
C823 C 0.16799 0.57163 0.04318 0.0
C824 C 0.08796 0.52961 0.0403 0.0
C825 C 0.12719 0.59999 0.02408 0.0
C826 C 0.12622 0.63521 0.03063 0.0
C827 C 0.12472 0.66357 0.01742 0.0
C828 C 0.12333 0.65543 -0.00295 0.0
C829 C 0.12359 0.61929 0.98981 0.0
C830 C 0.12617 0.59149 0.00361 0.0
H831 H 0.67459 0.12049 0.4195 0.0
H832 H 0.55883 0.12143 0.4284 0.0
H833 H 0.54824 0.12552 0.39249 0.0
H834 H 0.70852 0.19309 0.37886 0.0
H835 H 0.72874 0.16537 0.36537 0.0
H836 H 0.72836 0.1633 0.39194 0.0
H837 H 0.68559 0.08171 0.38943 0.0
H838 H 0.68612 0.08354 0.36287 0.0
H839 H 0.63664 1.05565 0.37447 0.0
H840 H 0.54864 0.12819 0.35563 0.0
H841 H 0.55852 0.12606 0.31998 0.0
H842 H 0.67392 0.12369 0.33352 0.0
C843 C 0.64701 0.12156 0.4139 0.0
C844 C 0.61755 0.12062 0.42703 0.0
C845 C 0.58192 0.12203 0.4189 0.0
C846 C 0.57564 0.12451 0.39842 0.0
C847 C 0.60519 0.12557 0.38597 0.0
C848 C 0.64012 0.12395 0.39332 0.0
C849 C 0.66636 0.12455 0.37644 0.0
C850 C 0.71062 0.16392 0.37827 0.0
C851 C 0.66881 0.08395 0.37577 0.0
C852 C 0.64056 0.1265 0.3585 0.0
C853 C 0.60551 0.12727 0.36448 0.0
C854 C 0.57609 0.12784 0.35082 0.0
C855 C 0.58203 0.12676 0.33056 0.0
C856 C 0.61719 0.12526 0.3239 0.0
C857 C 0.64719 0.12569 0.33814 0.0
H858 H 0.575 0.54428 0.74901 0.0
H859 H 0.6687 0.67218 0.7682 0.0
H860 H 0.68202 0.69127 0.73312 0.0
H861 H 0.63157 0.53666 0.70908 0.0
H862 H 0.58475 0.50536 0.69319 0.0
H863 H 0.58192 0.50256 0.71965 0.0
H864 H 0.52325 0.52213 0.71748 0.0
H865 H 0.52589 0.525 0.69101 0.0
H866 H 0.53274 0.56962 0.70542 0.0
H867 H 0.68398 0.6961 0.69514 0.0
H868 H 0.67761 0.68551 0.65877 0.0
H869 H 0.58417 0.55362 0.66474 0.0
C870 C 0.5982 0.57648 0.74593 0.0
C871 C 0.62056 0.60684 0.76155 0.0
C872 C 0.65104 0.64834 0.75664 0.0
C873 C 0.65875 0.65946 0.7367 0.0
C874 C 0.63606 0.62868 0.72172 0.0
C875 C 0.60661 0.58792 0.72617 0.0
C876 C 0.58724 0.56024 0.70749 0.0
C877 C 0.59696 0.52407 0.70735 0.0
C878 C 0.53945 0.54326 0.70522 0.0
C879 C 0.61022 0.59169 0.69172 0.0
C880 C 0.63804 0.63111 0.70018 0.0
C881 C 0.66231 0.66529 0.68847 0.0
C882 C 0.65827 0.659 0.66774 0.0
C883 C 0.63042 0.61871 0.65869 0.0
C884 C 0.60612 0.58475 0.67105 0.0
H885 H 0.63513 0.1608 0.55787 0.0
H886 H 0.68501 0.0789 0.54597 0.0
H887 H 0.68454 0.0633 0.58151 0.0
H888 H 0.68805 0.19917 0.60942 0.0
H889 H 0.6419 0.19797 0.61808 0.0
H890 H 0.6549 0.20977 0.59271 0.0
H891 H 0.58045 0.14894 0.58108 0.0
H892 H 0.56741 0.13646 0.60631 0.0
H893 H 0.56314 0.09635 0.58938 0.0
H894 H 0.66725 1.0473 0.61656 0.0
H895 H 0.63605 1.03299 0.64891 0.0
H896 H 0.59792 0.1262 0.63863 0.0
C897 C 0.64784 0.14128 0.56304 0.0
C898 C 0.66146 0.12204 0.54956 0.0
C899 C 0.67575 0.09479 0.55637 0.0
C900 C 0.67545 0.08573 0.57646 0.0
C901 C 0.66063 0.10417 0.58944 0.0
C902 C 0.64747 0.13175 0.58306 0.0
C903 C 0.62815 0.14312 0.5995 0.0
C904 C 0.65486 0.19031 0.60527 0.0
C905 C 0.58207 0.13044 0.59371 0.0
C906 C 0.63075 0.11619 0.61579 0.0
C907 C 0.65018 0.0945 0.60979 0.0
C908 C 0.653 0.06496 0.62165 0.0
C909 C 0.63526 1.05715 0.64008 0.0
C910 C 0.61477 0.07869 0.6465 0.0
C911 C 0.61326 0.10911 0.63422 0.0
H912 H 0.56752 0.5507 0.89204 0.0
H913 H 0.63993 0.49854 0.86851 0.0
H914 H 0.64495 0.47177 0.90125 0.0
H915 H 0.62107 0.57944 0.94205 0.0
H916 H 0.5729 0.56369 0.95405 0.0
H917 H 0.57867 0.58294 0.92929 0.0
H918 H 0.51038 0.51445 0.91725 0.0
H919 H 0.50448 0.49494 0.94192 0.0
H920 H 0.50621 0.46407 0.92164 0.0
H921 H 0.63947 0.44754 0.93557 0.0
H922 H 0.6208 0.42412 0.96953 0.0
H923 H 0.5496 0.48914 0.97115 0.0
C924 C 0.58501 0.53429 0.89396 0.0
C925 C 0.60351 0.52678 0.87785 0.0
C926 C 0.62543 0.50445 0.88071 0.0
C927 C 0.62867 0.48933 0.89925 0.0
C928 C 0.6095 0.49648 0.91478 0.0
C929 C 0.58793 0.51823 0.9124 0.0
C930 C 0.56757 0.5186 0.93126 0.0
C931 C 0.58618 0.56387 0.93966 0.0
C932 C 0.5193 0.4967 0.9278 0.0
C933 C 0.58052 0.49308 0.94439 0.0
C934 C 0.60524 0.48125 0.93464 0.0
C935 C 0.62042 0.45685 0.94346 0.0
C936 C 0.60978 0.44383 0.96277 0.0
C937 C 0.58388 0.45489 0.97298 0.0
C938 C 0.56931 0.48007 0.96366 0.0
H939 H 0.09081 0.57123 0.22276 0.0
H940 H 0.2244 0.63801 0.21267 0.0
H941 H 0.24136 0.6489 0.2488 0.0
H942 H 0.09438 0.63418 0.26235 0.0
H943 H 1.05564 0.59145 0.27608 0.0
H944 H 1.05408 0.58658 0.24957 0.0
H945 H 1.0576 0.51797 0.25244 0.0
H946 H 1.05869 0.52233 0.27899 0.0
H947 H 0.0998 0.51843 0.26749 0.0
H948 H 0.24304 0.6596 0.28572 0.0
H949 H 0.23 0.66298 0.32075 0.0
H950 H 0.09525 0.58236 0.30671 0.0
C951 C 0.12363 0.58763 0.22819 0.0
C952 C 0.15635 0.6039 0.21503 0.0
C953 C 0.19892 0.62508 0.22258 0.0
C954 C 0.20882 0.63154 0.24305 0.0
C955 C 0.17574 0.61582 0.25565 0.0
C956 C 0.13403 0.59356 0.24852 0.0
C957 C 0.10438 0.58021 0.26514 0.0
C958 C 1.07543 0.59925 0.26316 0.0
C959 C 1.07861 0.53186 0.26607 0.0
C960 C 0.1359 0.59953 0.28272 0.0
C961 C 0.17686 0.62008 0.27696 0.0
C962 C 0.21114 0.64271 0.29048 0.0
C963 C 0.20333 0.64418 0.31043 0.0
C964 C 0.16154 0.62264 0.31679 0.0
C965 C 0.1276 0.59973 0.30258 0.0
loop_
_geom_bond_atom_site_label_1
_geom_bond_atom_site_label_2
_geom_bond_distance
_geom_bond_site_symmetry_2
_ccdc_geom_bond_type
Tb0 C10 2.825 . S
Tb0 O11 2.347 . S
Tb0 O14 2.366 . S
Tb0 O19 2.418 . S
Tb0 O20 2.384 1_455 S
Tb0 O23 2.479 . S
Tb0 O24 2.471 . S
Eu1 O12 2.408 1_655 S
Eu1 O13 2.357 1_655 S
Eu1 O16 2.509 . S
Eu1 O17 2.499 . S
Eu1 O18 2.332 1_655 S
Eu1 O21 2.371 . S
Eu1 C31 2.857 . S
C2 O18 1.259 . S
C2 O19 1.265 . S
C3 O20 1.255 . S
C3 O21 1.265 . S
C4 C6 1.380 . S
C4 C7 1.374 . S
C4 C10 1.507 . S
C5 C6 1.384 . S
C5 C9 1.387 . S
C5 H32 0.930 . S
C6 C4 1.380 . S
C6 C5 1.384 . S
C6 H33 0.931 . S
C7 C4 1.374 . S
C7 C8 1.390 . S
C7 H34 0.930 . S
C8 C7 1.390 . S
C8 C9 1.391 . S
C8 H35 0.930 . S
C9 C5 1.387 . S
C9 C8 1.391 . S
C10 Tb0 2.825 . S
C10 C4 1.507 . S
C10 O23 1.238 . S
C10 O24 1.247 . S
O11 Tb0 2.347 . S
O11 C15 1.259 . S
O12 Eu1 2.408 1_455 S
O12 C15 1.277 . S
O13 Eu1 2.357 1_455 S
O13 C22 1.255 . S
O14 Tb0 2.366 . S
O14 C22 1.265 . S
C15 O11 1.259 . S
C15 O12 1.277 . S
O16 Eu1 2.509 . S
O16 C31 1.238 . S
O17 Eu1 2.499 . S
O17 C31 1.247 . S
O18 Eu1 2.332 1_455 S
O18 C2 1.259 . S
O19 Tb0 2.418 . S
O19 C2 1.265 . S
O20 Tb0 2.384 1_655 S
O20 C3 1.255 . S
O21 Eu1 2.371 . S
O21 C3 1.265 . S
C22 O13 1.255 . S
C22 O14 1.265 . S
O23 Tb0 2.479 . S
O23 C10 1.238 . S
O24 Tb0 2.471 . S
O24 C10 1.247 . S
C25 C28 1.380 . S
C25 C29 1.374 . S
C25 C31 1.507 . S
C26 C27 1.387 . S
C26 C30 1.391 . S
C27 C26 1.387 . S
C27 C28 1.384 . S
C27 H36 0.930 . S
C28 C25 1.380 . S
C28 C27 1.384 . S
C28 H37 0.931 . S
C29 C25 1.374 . S
C29 C30 1.390 . S
C29 H38 0.930 . S
C30 C26 1.391 . S
C30 C29 1.390 . S
C30 H39 0.930 . S
C31 Eu1 2.857 . S
C31 O16 1.238 . S
C31 O17 1.247 . S
C31 C25 1.507 . S
H32 C5 0.930 . S
H33 C6 0.931 . S
H34 C7 0.930 . S
H35 C8 0.930 . S
H36 C27 0.930 . S
H37 C28 0.931 . S
H38 C29 0.930 . S
H39 C30 0.930 . S
Tb40 C50 2.825 . S
Tb40 O51 2.347 . S
Tb40 O54 2.366 . S
Tb40 O59 2.418 . S
Tb40 O60 2.384 1_545 S
Tb40 O63 2.479 . S
Tb40 O64 2.471 . S
Eu41 O52 2.418 . S
Eu41 O53 2.384 . S
Eu41 O56 2.479 1_545 S
Eu41 O57 2.471 1_545 S
Eu41 O58 2.347 . S
Eu41 O61 2.366 1_545 S
Eu41 C71 2.825 1_545 S
C42 O58 1.259 . S
C42 O59 1.265 . S
C43 O60 1.255 . S
C43 O61 1.265 . S
C44 C46 1.380 . S
C44 C47 1.374 . S
C44 C50 1.507 . S
C45 C46 1.384 . S
C45 C49 1.387 . S
C45 H72 0.930 . S
C46 C44 1.380 . S
C46 C45 1.384 . S
C46 H73 0.931 . S
C47 C44 1.374 . S
C47 C48 1.390 . S
C47 H74 0.930 . S
C48 C47 1.390 . S
C48 C49 1.391 . S
C48 H75 0.930 . S
C49 C45 1.387 . S
C49 C48 1.391 . S
C50 Tb40 2.825 . S
C50 C44 1.507 . S
C50 O63 1.238 . S
C50 O64 1.247 . S
O51 Tb40 2.347 . S
O51 C55 1.259 . S
O52 Eu41 2.418 . S
O52 C55 1.265 . S
O53 Eu41 2.384 . S
O53 C62 1.255 . S
O54 Tb40 2.366 . S
O54 C62 1.265 . S
C55 O51 1.259 . S
C55 O52 1.265 . S
O56 Eu41 2.479 1_565 S
O56 C71 1.238 . S
O57 Eu41 2.471 1_565 S
O57 C71 1.247 . S
O58 Eu41 2.347 . S
O58 C42 1.259 . S
O59 Tb40 2.418 . S
O59 C42 1.265 . S
O60 Tb40 2.384 1_565 S
O60 C43 1.255 . S
O61 Eu41 2.366 1_565 S
O61 C43 1.265 . S
C62 O53 1.255 . S
C62 O54 1.265 . S
O63 Tb40 2.479 . S
O63 C50 1.238 . S
O64 Tb40 2.471 . S
O64 C50 1.247 . S
C65 C68 1.380 . S
C65 C69 1.374 . S
C65 C71 1.507 . S
C66 C67 1.387 . S
C66 C70 1.391 . S
C67 C66 1.387 . S
C67 C68 1.384 . S
C67 H76 0.930 . S
C68 C65 1.380 . S
C68 C67 1.384 . S
C68 H77 0.931 . S
C69 C65 1.374 . S
C69 C70 1.390 . S
C69 H78 0.930 . S
C70 C66 1.391 . S
C70 C69 1.390 . S
C70 H79 0.930 . S
C71 Eu41 2.825 1_565 S
C71 O56 1.238 . S
C71 O57 1.247 . S
C71 C65 1.507 . S
H72 C45 0.930 . S
H73 C46 0.931 . S
H74 C47 0.930 . S
H75 C48 0.930 . S
H76 C67 0.930 . S
H77 C68 0.931 . S
H78 C69 0.930 . S
H79 C70 0.930 . S
Tb80 C90 2.825 . S
Tb80 O91 2.347 . S
Tb80 O94 2.366 . S
Tb80 O99 2.418 . S
Tb80 O100 2.384 . S
Tb80 O103 2.479 . S
Tb80 O104 2.471 . S
Eu81 O92 2.418 . S
Eu81 O93 2.384 . S
Eu81 O96 2.479 . S
Eu81 O97 2.471 . S
Eu81 O98 2.347 . S
Eu81 O101 2.366 . S
Eu81 C111 2.825 . S
C82 O98 1.259 . S
C82 O99 1.265 . S
C83 O100 1.255 . S
C83 O101 1.265 . S
C84 C86 1.380 . S
C84 C87 1.374 . S
C84 C90 1.507 . S
C85 C86 1.384 . S
C85 C89 1.387 . S
C85 H112 0.930 . S
C86 C84 1.380 . S
C86 C85 1.384 . S
C86 H113 0.931 . S
C87 C84 1.374 . S
C87 C88 1.390 . S
C87 H114 0.930 . S
C88 C87 1.390 . S
C88 C89 1.391 . S
C88 H115 0.930 . S
C89 C85 1.387 . S
C89 C88 1.391 . S
C90 Tb80 2.825 . S
C90 C84 1.507 . S
C90 O103 1.238 . S
C90 O104 1.247 . S
O91 Tb80 2.347 . S
O91 C95 1.259 . S
O92 Eu81 2.418 . S
O92 C95 1.265 . S
O93 Eu81 2.384 . S
O93 C102 1.255 . S
O94 Tb80 2.366 . S
O94 C102 1.265 . S
C95 O91 1.259 . S
C95 O92 1.265 . S
O96 Eu81 2.479 . S
O96 C111 1.238 . S
O97 Eu81 2.471 . S
O97 C111 1.247 . S
O98 Eu81 2.347 . S
O98 C82 1.259 . S
O99 Tb80 2.418 . S
O99 C82 1.265 . S
O100 Tb80 2.384 . S
O100 C83 1.255 . S
O101 Eu81 2.366 . S
O101 C83 1.265 . S
C102 O93 1.255 . S
C102 O94 1.265 . S
O103 Tb80 2.479 . S
O103 C90 1.238 . S
O104 Tb80 2.471 . S
O104 C90 1.247 . S
C105 C108 1.380 . S
C105 C109 1.374 . S
C105 C111 1.507 . S
C106 C107 1.387 . S
C106 C110 1.391 . S
C107 C106 1.387 . S
C107 C108 1.384 . S
C107 H116 0.930 . S
C108 C105 1.380 . S
C108 C107 1.384 . S
C108 H117 0.931 . S
C109 C105 1.374 . S
C109 C110 1.390 . S
C109 H118 0.930 . S
C110 C106 1.391 . S
C110 C109 1.390 . S
C110 H119 0.930 . S
C111 Eu81 2.825 . S
C111 O96 1.238 . S
C111 O97 1.247 . S
C111 C105 1.507 . S
H112 C85 0.930 . S
H113 C86 0.931 . S
H114 C87 0.930 . S
H115 C88 0.930 . S
H116 C107 0.930 . S
H117 C108 0.931 . S
H118 C109 0.930 . S
H119 C110 0.930 . S
C120 C121 1.391 . S
C120 C124 1.391 . S
C120 H162 0.948 . S
C121 C120 1.391 . S
C121 C122 1.391 . S
C122 C121 1.391 . S
C122 H178 0.947 . S
C122 C179 1.392 . S
C123 C124 1.391 . S
C123 C127 1.397 . S
C123 C179 1.419 . S
C124 C120 1.391 . S
C124 C123 1.391 . S
C124 C125 1.399 . S
C125 C124 1.399 . S
C125 C128 1.396 . S
C125 C137 1.453 . S
C125 C138 1.684 . S
H126 C150 0.948 . S
C127 C123 1.397 . S
C127 C128 1.394 . S
C127 C146 1.723 . S
C128 C125 1.396 . S
C128 C127 1.394 . S
C128 C158 1.723 1_545 S
H129 C152 0.947 . S
H130 C153 0.948 . S
H131 C159 0.982 . S
H132 C160 0.979 . S
H133 C160 0.980 . S
H134 C160 0.983 . S
H135 C159 0.979 . S
H136 C159 0.977 . S
C137 C125 1.453 . S
C137 H166 0.982 . S
C137 H167 0.979 . S
C137 H168 0.977 1_545 S
C138 C125 1.684 . S
C138 H163 0.979 . S
C138 H164 0.980 . S
C138 H165 0.983 . S
C139 C140 1.391 . S
C139 C144 1.391 . S
C139 H169 0.948 . S
C140 C139 1.391 . S
C140 C141 1.391 1_545 S
C141 C140 1.391 1_565 S
C141 C142 1.392 . S
C141 H170 0.947 . S
C142 C141 1.392 . S
C142 C143 1.419 1_565 S
C142 H171 0.948 . S
C143 C142 1.419 1_545 S
C143 C144 1.391 . S
C143 C147 1.397 . S
C144 C139 1.391 . S
C144 C143 1.391 . S
C144 C145 1.399 . S
C145 C144 1.399 . S
C145 C146 1.396 . S
C145 C148 1.453 . S
C145 C149 1.684 . S
C146 C127 1.723 . S
C146 C145 1.396 . S
C146 C147 1.394 . S
C147 C143 1.397 . S
C147 C146 1.394 . S
C147 C157 1.723 1_545 S
C148 C145 1.453 . S
C148 H172 0.982 . S
C148 H173 0.979 . S
C148 H174 0.977 . S
C149 C145 1.684 . S
C149 H175 0.979 . S
C149 H176 0.980 . S
C149 H177 0.983 . S
C150 H126 0.948 . S
C150 C151 1.391 . S
C150 C155 1.391 . S
C151 C150 1.391 . S
C151 C152 1.391 . S
C152 H129 0.947 . S
C152 C151 1.391 . S
C152 C153 1.392 . S
C153 H130 0.948 . S
C153 C152 1.392 . S
C153 C154 1.419 . S
C154 C153 1.419 . S
C154 C155 1.391 . S
C154 C158 1.397 . S
C155 C150 1.391 . S
C155 C154 1.391 . S
C155 C156 1.399 . S
C156 C155 1.399 . S
C156 C157 1.396 . S
C156 C159 1.453 . S
C156 C160 1.684 . S
C157 C147 1.723 1_565 S
C157 C156 1.396 . S
C157 C158 1.394 . S
C158 C128 1.723 1_565 S
C158 C154 1.397 . S
C158 C157 1.394 . S
C159 H131 0.982 . S
C159 H135 0.979 . S
C159 H136 0.977 . S
C159 C156 1.453 . S
C160 H132 0.979 . S
C160 H133 0.980 . S
C160 H134 0.983 . S
C160 C156 1.684 . S
H161 C179 0.948 . S
H162 C120 0.948 . S
H163 C138 0.979 . S
H164 C138 0.980 . S
H165 C138 0.983 . S
H166 C137 0.982 . S
H167 C137 0.979 . S
H168 C137 0.977 1_565 S
H169 C139 0.948 . S
H170 C141 0.947 . S
H171 C142 0.948 . S
H172 C148 0.982 . S
H173 C148 0.979 . S
H174 C148 0.977 . S
H175 C149 0.979 . S
H176 C149 0.980 . S
H177 C149 0.983 . S
H178 C122 0.947 . S
C179 C122 1.392 . S
C179 C123 1.419 . S
C179 H161 0.948 . S
C180 C181 1.391 . S
C180 C184 1.391 . S
C180 H222 0.948 . S
C181 C180 1.391 . S
C181 C182 1.391 . S
C182 C181 1.391 . S
C182 H238 0.947 . S
C182 C239 1.392 . S
C183 C184 1.391 . S
C183 C187 1.397 . S
C183 C239 1.419 . S
C184 C180 1.391 . S
C184 C183 1.391 . S
C184 C185 1.399 . S
C185 C184 1.399 . S
C185 C188 1.396 . S
C185 C197 1.453 . S
C185 C198 1.684 . S
H186 C210 0.948 . S
C187 C183 1.397 . S
C187 C188 1.394 . S
C187 C206 1.723 . S
C188 C185 1.396 . S
C188 C187 1.394 . S
C188 C218 1.723 . S
H189 C212 0.947 . S
H190 C213 0.948 . S
H191 C219 0.982 . S
H192 C220 0.979 . S
H193 C220 0.980 . S
H194 C220 0.983 . S
H195 C219 0.979 . S
H196 C219 0.977 . S
C197 C185 1.453 . S
C197 H226 0.982 . S
C197 H227 0.979 . S
C197 H228 0.977 . S
C198 C185 1.684 . S
C198 H223 0.979 . S
C198 H224 0.980 . S
C198 H225 0.983 . S
C199 C200 1.391 . S
C199 C204 1.391 . S
C199 H229 0.948 . S
C200 C199 1.391 . S
C200 C201 1.391 . S
C201 C200 1.391 . S
C201 C202 1.392 . S
C201 H230 0.947 . S
C202 C201 1.392 . S
C202 C203 1.419 . S
C202 H231 0.948 . S
C203 C202 1.419 . S
C203 C204 1.391 . S
C203 C207 1.397 . S
C204 C199 1.391 . S
C204 C203 1.391 . S
C204 C205 1.399 . S
C205 C204 1.399 . S
C205 C206 1.396 . S
C205 C208 1.453 . S
C205 C209 1.684 . S
C206 C187 1.723 . S
C206 C205 1.396 . S
C206 C207 1.394 . S
C207 C203 1.397 . S
C207 C206 1.394 . S
C207 C217 1.723 . S
C208 C205 1.453 . S
C208 H232 0.982 . S
C208 H233 0.979 . S
C208 H234 0.977 . S
C209 C205 1.684 . S
C209 H235 0.979 . S
C209 H236 0.980 . S
C209 H237 0.983 . S
C210 H186 0.948 . S
C210 C211 1.391 . S
C210 C215 1.391 . S
C211 C210 1.391 . S
C211 C212 1.391 . S
C212 H189 0.947 . S
C212 C211 1.391 . S
C212 C213 1.392 . S
C213 H190 0.948 . S
C213 C212 1.392 . S
C213 C214 1.419 . S
C214 C213 1.419 . S
C214 C215 1.391 . S
C214 C218 1.397 . S
C215 C210 1.391 . S
C215 C214 1.391 . S
C215 C216 1.399 . S
C216 C215 1.399 . S
C216 C217 1.396 . S
C216 C219 1.453 . S
C216 C220 1.684 . S
C217 C207 1.723 . S
C217 C216 1.396 . S
C217 C218 1.394 . S
C218 C188 1.723 . S
C218 C214 1.397 . S
C218 C217 1.394 . S
C219 H191 0.982 . S
C219 H195 0.979 . S
C219 H196 0.977 . S
C219 C216 1.453 . S
C220 H192 0.979 . S
C220 H193 0.980 . S
C220 H194 0.983 . S
C220 C216 1.684 . S
H221 C239 0.948 . S
H222 C180 0.948 . S
H223 C198 0.979 . S
H224 C198 0.980 . S
H225 C198 0.983 . S
H226 C197 0.982 . S
H227 C197 0.979 . S
H228 C197 0.977 . S
H229 C199 0.948 . S
H230 C201 0.947 . S
H231 C202 0.948 . S
H232 C208 0.982 . S
H233 C208 0.979 . S
H234 C208 0.977 . S
H235 C209 0.979 . S
H236 C209 0.980 . S
H237 C209 0.983 . S
H238 C182 0.947 . S
C239 C182 1.392 . S
C239 C183 1.419 . S
C239 H221 0.948 . S
C240 C241 1.391 . S
C240 C244 1.391 . S
C240 H282 0.948 . S
C241 C240 1.391 . S
C241 C242 1.391 . S
C242 C241 1.391 . S
C242 H298 0.947 . S
C242 C299 1.392 . S
C243 C244 1.391 . S
C243 C247 1.397 . S
C243 C299 1.419 . S
C244 C240 1.391 . S
C244 C243 1.391 . S
C244 C245 1.399 . S
C245 C244 1.399 . S
C245 C248 1.396 . S
C245 C257 1.453 . S
C245 C258 1.684 . S
H246 C270 0.948 . S
C247 C243 1.397 . S
C247 C248 1.394 . S
C247 C266 1.723 . S
C248 C245 1.396 . S
C248 C247 1.394 . S
C248 C278 1.723 1_455 S
H249 C272 0.947 . S
H250 C273 0.948 . S
H251 C279 0.982 . S
H252 C280 0.979 . S
H253 C280 0.980 . S
H254 C280 0.983 . S
H255 C279 0.979 . S
H256 C279 0.977 . S
C257 C245 1.453 . S
C257 H286 0.982 . S
C257 H287 0.979 . S
C257 H288 0.959 1_455 S
C258 C245 1.684 . S
C258 H283 0.979 . S
C258 H284 0.980 . S
C258 H285 0.983 . S
C259 C260 1.391 . S
C259 C264 1.391 . S
C259 H289 0.948 . S
C260 C259 1.391 . S
C260 C261 1.391 1_455 S
C261 C260 1.391 1_655 S
C261 C262 1.392 . S
C261 H290 0.947 . S
C262 C261 1.392 . S
C262 C263 1.419 1_655 S
C262 H291 0.948 . S
C263 C262 1.419 1_455 S
C263 C264 1.391 . S
C263 C267 1.397 . S
C264 C259 1.391 . S
C264 C263 1.391 . S
C264 C265 1.399 . S
C265 C264 1.399 . S
C265 C266 1.396 . S
C265 C268 1.453 . S
C265 C269 1.684 . S
C266 C247 1.723 . S
C266 C265 1.396 . S
C266 C267 1.394 . S
C267 C263 1.397 . S
C267 C266 1.394 . S
C267 C277 1.723 1_455 S
C268 C265 1.453 . S
C268 H292 0.982 . S
C268 H293 0.979 . S
C268 H294 0.977 . S
C269 C265 1.684 . S
C269 H295 0.979 . S
C269 H296 0.980 . S
C269 H297 0.983 . S
C270 H246 0.948 . S
C270 C271 1.391 . S
C270 C275 1.391 . S
C271 C270 1.391 . S
C271 C272 1.391 . S
C272 H249 0.947 . S
C272 C271 1.391 . S
C272 C273 1.392 . S
C273 H250 0.948 . S
C273 C272 1.392 . S
C273 C274 1.419 . S
C274 C273 1.419 . S
C274 C275 1.391 . S
C274 C278 1.397 . S
C275 C270 1.391 . S
C275 C274 1.391 . S
C275 C276 1.399 . S
C276 C275 1.399 . S
C276 C277 1.396 . S
C276 C279 1.453 . S
C276 C280 1.684 . S
C277 C267 1.723 1_655 S
C277 C276 1.396 . S
C277 C278 1.394 . S
C278 C248 1.723 1_655 S
C278 C274 1.397 . S
C278 C277 1.394 . S
C279 H251 0.982 . S
C279 H255 0.979 . S
C279 H256 0.977 . S
C279 C276 1.453 . S
C280 H252 0.979 . S
C280 H253 0.980 . S
C280 H254 0.983 . S
C280 C276 1.684 . S
H281 C299 0.948 . S
H282 C240 0.948 . S
H283 C258 0.979 . S
H284 C258 0.980 . S
H285 C258 0.983 . S
H286 C257 0.982 . S
H287 C257 0.979 . S
H288 C257 0.959 1_655 S
H289 C259 0.948 . S
H290 C261 0.947 . S
H291 C262 0.948 . S
H292 C268 0.982 . S
H293 C268 0.979 . S
H294 C268 0.977 . S
H295 C269 0.979 . S
H296 C269 0.980 . S
H297 C269 0.983 . S
H298 C242 0.947 . S
C299 C242 1.392 . S
C299 C243 1.419 . S
C299 H281 0.948 . S
C300 C301 1.391 . S
C300 C304 1.391 . S
C300 H342 0.948 . S
C301 C300 1.391 . S
C301 C302 1.391 . S
C302 C301 1.391 . S
C302 H358 0.947 . S
C302 C359 1.392 . S
C303 C304 1.391 . S
C303 C307 1.397 . S
C303 C359 1.419 . S
C304 C300 1.391 . S
C304 C303 1.391 . S
C304 C305 1.399 . S
C305 C304 1.399 . S
C305 C308 1.396 . S
C305 C317 1.453 1_655 S
C305 C318 1.684 . S
H306 C330 0.948 . S
C307 C303 1.397 . S
C307 C308 1.394 . S
C307 C326 1.723 . S
C308 C305 1.396 . S
C308 C307 1.394 . S
C308 C338 1.723 1_655 S
H309 C332 0.947 . S
H310 C333 0.948 . S
H311 C339 0.982 . S
H312 C340 0.979 . S
H313 C340 0.980 . S
H314 C340 0.983 . S
H315 C339 0.979 . S
H316 C339 0.977 . S
C317 C305 1.453 1_455 S
C317 H346 0.982 . S
C317 H347 0.979 1_455 S
C317 H348 0.977 . S
C318 C305 1.684 . S
C318 H343 0.979 . S
C318 H344 0.991 . S
C318 H345 0.983 . S
C319 C320 1.391 1_655 S
C319 C324 1.391 . S
C319 H349 0.948 . S
C320 C319 1.391 1_455 S
C320 C321 1.391 . S
C321 C320 1.391 . S
C321 C322 1.392 . S
C321 H350 0.947 . S
C322 C321 1.392 . S
C322 C323 1.419 . S
C322 H351 0.948 . S
C323 C322 1.419 . S
C323 C324 1.391 1_455 S
C323 C327 1.397 . S
C324 C319 1.391 . S
C324 C323 1.391 1_655 S
C324 C325 1.399 . S
C325 C324 1.399 . S
C325 C326 1.396 . S
C325 C328 1.453 . S
C325 C329 1.684 . S
C326 C307 1.723 . S
C326 C325 1.396 . S
C326 C327 1.394 1_655 S
C327 C323 1.397 . S
C327 C326 1.394 1_455 S
C327 C337 1.723 . S
C328 C325 1.453 . S
C328 H352 0.982 . S
C328 H353 0.979 . S
C328 H354 0.977 . S
C329 C325 1.684 . S
C329 H355 0.979 . S
C329 H356 0.980 . S
C329 H357 0.983 . S
C330 H306 0.948 . S
C330 C331 1.391 . S
C330 C335 1.391 . S
C331 C330 1.391 . S
C331 C332 1.391 . S
C332 H309 0.947 . S
C332 C331 1.391 . S
C332 C333 1.392 . S
C333 H310 0.948 . S
C333 C332 1.392 . S
C333 C334 1.419 . S
C334 C333 1.419 . S
C334 C335 1.391 . S
C334 C338 1.397 . S
C335 C330 1.391 . S
C335 C334 1.391 . S
C335 C336 1.399 . S
C336 C335 1.399 . S
C336 C337 1.396 . S
C336 C339 1.453 . S
C336 C340 1.684 . S
C337 C327 1.723 . S
C337 C336 1.396 . S
C337 C338 1.394 . S
C338 C308 1.723 1_455 S
C338 C334 1.397 . S
C338 C337 1.394 . S
C339 H311 0.982 . S
C339 H315 0.979 . S
C339 H316 0.977 . S
C339 C336 1.453 . S
C340 H312 0.979 . S
C340 H313 0.980 . S
C340 H314 0.983 . S
C340 C336 1.684 . S
H341 C359 0.948 . S
H342 C300 0.948 . S
H343 C318 0.979 . S
H344 C318 0.991 . S
H345 C318 0.983 . S
H346 C317 0.982 . S
H347 C317 0.979 1_655 S
H348 C317 0.977 . S
H349 C319 0.948 . S
H350 C321 0.947 . S
H351 C322 0.948 . S
H352 C328 0.982 . S
H353 C328 0.979 . S
H354 C328 0.977 . S
H355 C329 0.979 . S
H356 C329 0.980 . S
H357 C329 0.983 . S
H358 C302 0.947 . S
C359 C302 1.392 . S
C359 C303 1.419 . S
C359 H341 0.948 . S
C360 C361 1.391 . S
C360 C364 1.391 . S
C360 H402 0.948 . S
C361 C360 1.391 . S
C361 C362 1.391 . S
C362 C361 1.391 . S
C362 H418 0.947 . S
C362 C419 1.392 . S
C363 C364 1.391 . S
C363 C367 1.397 . S
C363 C419 1.419 . S
C364 C360 1.391 . S
C364 C363 1.391 . S
C364 C365 1.399 . S
C365 C364 1.399 . S
C365 C368 1.396 . S
C365 C377 1.453 . S
C365 C378 1.684 . S
H366 C390 0.948 . S
C367 C363 1.397 . S
C367 C368 1.394 . S
C367 C386 1.723 . S
C368 C365 1.396 . S
C368 C367 1.394 . S
C368 C398 1.723 1_565 S
H369 C392 0.947 . S
H370 C393 0.948 . S
H371 C399 0.982 . S
H372 C400 0.979 . S
H373 C400 0.980 . S
H374 C400 0.983 . S
H375 C399 0.979 . S
H376 C399 0.977 . S
C377 C365 1.453 . S
C377 H406 0.982 1_565 S
C377 H407 0.979 . S
C377 H408 0.977 1_565 S
C378 C365 1.684 . S
C378 H403 0.979 . S
C378 H404 0.980 . S
C378 H405 0.983 . S
C379 C380 1.391 1_565 S
C379 C384 1.391 . S
C379 H409 0.948 . S
C380 C379 1.391 1_545 S
C380 C381 1.391 . S
C381 C380 1.391 . S
C381 C382 1.392 . S
C381 H410 0.947 . S
C382 C381 1.392 . S
C382 C383 1.419 . S
C382 H411 0.948 . S
C383 C382 1.419 . S
C383 C384 1.391 1_545 S
C383 C387 1.397 . S
C384 C379 1.391 . S
C384 C383 1.391 1_565 S
C384 C385 1.399 . S
C385 C384 1.399 . S
C385 C386 1.396 . S
C385 C388 1.453 . S
C385 C389 1.684 . S
C386 C367 1.723 . S
C386 C385 1.396 . S
C386 C387 1.394 1_565 S
C387 C383 1.397 . S
C387 C386 1.394 1_545 S
C387 C397 1.723 . S
C388 C385 1.453 . S
C388 H412 0.982 . S
C388 H413 0.979 . S
C388 H414 0.977 . S
C389 C385 1.684 . S
C389 H415 0.979 . S
C389 H416 0.980 . S
C389 H417 0.983 . S
C390 H366 0.948 . S
C390 C391 1.391 . S
C390 C395 1.391 . S
C391 C390 1.391 . S
C391 C392 1.391 . S
C392 H369 0.947 . S
C392 C391 1.391 . S
C392 C393 1.392 . S
C393 H370 0.948 . S
C393 C392 1.392 . S
C393 C394 1.419 . S
C394 C393 1.419 . S
C394 C395 1.391 . S
C394 C398 1.397 . S
C395 C390 1.391 . S
C395 C394 1.391 . S
C395 C396 1.399 . S
C396 C395 1.399 . S
C396 C397 1.396 . S
C396 C399 1.453 . S
C396 C400 1.684 . S
C397 C387 1.723 . S
C397 C396 1.396 . S
C397 C398 1.394 . S
C398 C368 1.723 1_545 S
C398 C394 1.397 . S
C398 C397 1.394 . S
C399 H371 0.982 . S
C399 H375 0.979 . S
C399 H376 0.977 . S
C399 C396 1.453 . S
C400 H372 0.979 . S
C400 H373 0.980 . S
C400 H374 0.983 . S
C400 C396 1.684 . S
H401 C419 0.948 . S
H402 C360 0.948 . S
H403 C378 0.979 . S
H404 C378 0.980 . S
H405 C378 0.983 . S
H406 C377 0.982 1_545 S
H407 C377 0.979 . S
H408 C377 0.977 1_545 S
H409 C379 0.948 . S
H410 C381 0.947 . S
H411 C382 0.948 . S
H412 C388 0.982 . S
H413 C388 0.979 . S
H414 C388 0.977 . S
H415 C389 0.979 . S
H416 C389 0.980 . S
H417 C389 0.983 . S
H418 C362 0.947 . S
C419 C362 1.392 . S
C419 C363 1.419 . S
C419 H401 0.948 . S
C420 C421 1.391 . S
C420 C424 1.391 . S
C420 H462 0.948 . S
C421 C420 1.391 . S
C421 C422 1.391 . S
C422 C421 1.391 . S
C422 H478 0.947 . S
C422 C479 1.392 . S
C423 C424 1.391 . S
C423 C427 1.397 . S
C423 C479 1.419 . S
C424 C420 1.391 . S
C424 C423 1.391 . S
C424 C425 1.399 . S
C425 C424 1.399 . S
C425 C428 1.396 . S
C425 C437 1.453 . S
C425 C438 1.684 . S
H426 C450 0.948 . S
C427 C423 1.397 . S
C427 C428 1.394 . S
C427 C446 1.723 . S
C428 C425 1.396 . S
C428 C427 1.394 . S
C428 C458 1.723 . S
H429 C452 0.947 . S
H430 C453 0.948 . S
H431 C459 0.982 . S
H432 C460 0.979 . S
H433 C460 0.980 . S
H434 C460 0.983 . S
H435 C459 0.979 . S
H436 C459 0.977 . S
C437 C425 1.453 . S
C437 H466 0.982 . S
C437 H467 0.979 . S
C437 H468 0.977 . S
C438 C425 1.684 . S
C438 H463 0.979 . S
C438 H464 0.980 . S
C438 H465 0.983 . S
C439 C440 1.391 . S
C439 C444 1.391 . S
C439 H469 0.948 . S
C440 C439 1.391 . S
C440 C441 1.391 . S
C441 C440 1.391 . S
C441 C442 1.392 . S
C441 H470 0.947 . S
C442 C441 1.392 . S
C442 C443 1.419 . S
C442 H471 0.948 . S
C443 C442 1.419 . S
C443 C444 1.391 . S
C443 C447 1.397 . S
C444 C439 1.391 . S
C444 C443 1.391 . S
C444 C445 1.399 . S
C445 C444 1.399 . S
C445 C446 1.396 . S
C445 C448 1.453 . S
C445 C449 1.684 . S
C446 C427 1.723 . S
C446 C445 1.396 . S
C446 C447 1.394 . S
C447 C443 1.397 . S
C447 C446 1.394 . S
C447 C457 1.723 . S
C448 C445 1.453 . S
C448 H472 0.982 . S
C448 H473 0.979 . S
C448 H474 0.977 . S
C449 C445 1.684 . S
C449 H475 0.979 . S
C449 H476 0.980 . S
C449 H477 0.983 . S
C450 H426 0.948 . S
C450 C451 1.391 . S
C450 C455 1.391 . S
C451 C450 1.391 . S
C451 C452 1.391 . S
C452 H429 0.947 . S
C452 C451 1.391 . S
C452 C453 1.392 . S
C453 H430 0.948 . S
C453 C452 1.392 . S
C453 C454 1.419 . S
C454 C453 1.419 . S
C454 C455 1.391 . S
C454 C458 1.397 . S
C455 C450 1.391 . S
C455 C454 1.391 . S
C455 C456 1.399 . S
C456 C455 1.399 . S
C456 C457 1.396 . S
C456 C459 1.453 . S
C456 C460 1.684 . S
C457 C447 1.723 . S
C457 C456 1.396 . S
C457 C458 1.394 . S
C458 C428 1.723 . S
C458 C454 1.397 . S
C458 C457 1.394 . S
C459 H431 0.982 . S
C459 H435 0.979 . S
C459 H436 0.977 . S
C459 C456 1.453 . S
C460 H432 0.979 . S
C460 H433 0.980 . S
C460 H434 0.983 . S
C460 C456 1.684 . S
H461 C479 0.948 . S
H462 C420 0.948 . S
H463 C438 0.979 . S
H464 C438 0.980 . S
H465 C438 0.983 . S
H466 C437 0.982 . S
H467 C437 0.979 . S
H468 C437 0.977 . S
H469 C439 0.948 . S
H470 C441 0.947 . S
H471 C442 0.948 . S
H472 C448 0.982 . S
H473 C448 0.979 . S
H474 C448 0.977 . S
H475 C449 0.979 . S
H476 C449 0.980 . S
H477 C449 0.983 . S
H478 C422 0.947 . S
C479 C422 1.392 . S
C479 C423 1.419 . S
C479 H461 0.948 . S
H480 C492 0.930 . S
H481 C494 0.930 . S
H482 C495 0.930 . S
H483 C499 0.959 . S
H484 C499 0.959 . S
H485 C499 0.961 . S
H486 C500 0.960 . S
H487 C500 0.961 . S
H488 C500 0.959 . S
H489 C503 0.929 . S
H490 C504 0.931 . S
H491 C506 0.930 . S
C492 H480 0.930 . S
C492 C493 1.399 . S
C492 C497 1.399 . S
C493 C492 1.399 . S
C493 C494 1.376 . S
C494 H481 0.930 . S
C494 C493 1.376 . S
C494 C495 1.388 . S
C495 H482 0.930 . S
C495 C494 1.388 . S
C495 C496 1.390 . S
C496 C495 1.390 . S
C496 C497 1.394 . S
C496 C502 1.465 . S
C497 C492 1.399 . S
C497 C496 1.394 . S
C497 C498 1.516 . S
C498 C497 1.516 . S
C498 C499 1.502 . S
C498 C500 1.561 . S
C498 C501 1.526 . S
C499 H483 0.959 . S
C499 H484 0.959 . S
C499 H485 0.961 . S
C499 C498 1.502 . S
C500 H486 0.960 . S
C500 H487 0.961 . S
C500 H488 0.959 . S
C500 C498 1.561 . S
C501 C498 1.526 . S
C501 C502 1.396 . S
C501 C506 1.390 . S
C502 C496 1.465 . S
C502 C501 1.396 . S
C502 C503 1.399 . S
C503 H489 0.929 . S
C503 C502 1.399 . S
C503 C504 1.385 . S
C504 H490 0.931 . S
C504 C503 1.385 . S
C504 C505 1.389 . S
C505 C504 1.389 . S
C505 C506 1.387 . S
C506 H491 0.930 . S
C506 C501 1.390 . S
C506 C505 1.387 . S
H507 C519 0.930 . S
H508 C521 0.930 . S
H509 C522 0.930 . S
H510 C526 0.959 . S
H511 C526 0.959 . S
H512 C526 0.961 . S
H513 C527 0.960 . S
H514 C527 0.961 . S
H515 C527 0.959 . S
H516 C530 0.929 . S
H517 C531 0.931 . S
H518 C533 0.930 . S
C519 H507 0.930 . S
C519 C520 1.399 . S
C519 C524 1.399 . S
C520 C519 1.399 . S
C520 C521 1.376 . S
C521 H508 0.930 . S
C521 C520 1.376 . S
C521 C522 1.388 . S
C522 H509 0.930 . S
C522 C521 1.388 . S
C522 C523 1.390 . S
C523 C522 1.390 . S
C523 C524 1.394 . S
C523 C529 1.465 . S
C524 C519 1.399 . S
C524 C523 1.394 . S
C524 C525 1.516 . S
C525 C524 1.516 . S
C525 C526 1.502 . S
C525 C527 1.561 . S
C525 C528 1.526 . S
C526 H510 0.959 . S
C526 H511 0.959 . S
C526 H512 0.961 . S
C526 C525 1.502 . S
C527 H513 0.960 . S
C527 H514 0.961 . S
C527 H515 0.959 . S
C527 C525 1.561 . S
C528 C525 1.526 . S
C528 C529 1.396 . S
C528 C533 1.390 . S
C529 C523 1.465 . S
C529 C528 1.396 . S
C529 C530 1.399 . S
C530 H516 0.929 . S
C530 C529 1.399 . S
C530 C531 1.385 . S
C531 H517 0.931 . S
C531 C530 1.385 . S
C531 C532 1.389 . S
C532 C531 1.389 . S
C532 C533 1.387 . S
C533 H518 0.930 . S
C533 C528 1.390 . S
C533 C532 1.387 . S
H534 C546 0.930 . S
H535 C548 0.930 . S
H536 C549 0.930 . S
H537 C553 0.959 . S
H538 C553 0.959 . S
H539 C553 0.961 . S
H540 C554 0.960 . S
H541 C554 0.961 . S
H542 C554 0.959 . S
H543 C557 0.929 . S
H544 C558 0.931 . S
H545 C560 0.930 . S
C546 H534 0.930 . S
C546 C547 1.399 . S
C546 C551 1.399 . S
C547 C546 1.399 . S
C547 C548 1.376 . S
C548 H535 0.930 . S
C548 C547 1.376 . S
C548 C549 1.388 . S
C549 H536 0.930 . S
C549 C548 1.388 . S
C549 C550 1.390 . S
C550 C549 1.390 . S
C550 C551 1.394 . S
C550 C556 1.465 . S
C551 C546 1.399 . S
C551 C550 1.394 . S
C551 C552 1.516 . S
C552 C551 1.516 . S
C552 C553 1.502 . S
C552 C554 1.561 . S
C552 C555 1.526 . S
C553 H537 0.959 . S
C553 H538 0.959 . S
C553 H539 0.961 . S
C553 C552 1.502 . S
C554 H540 0.960 . S
C554 H541 0.961 . S
C554 H542 0.959 . S
C554 C552 1.561 . S
C555 C552 1.526 . S
C555 C556 1.396 . S
C555 C560 1.390 . S
C556 C550 1.465 . S
C556 C555 1.396 . S
C556 C557 1.399 . S
C557 H543 0.929 . S
C557 C556 1.399 . S
C557 C558 1.385 . S
C558 H544 0.931 . S
C558 C557 1.385 . S
C558 C559 1.389 . S
C559 C558 1.389 . S
C559 C560 1.387 . S
C560 H545 0.930 . S
C560 C555 1.390 . S
C560 C559 1.387 . S
H561 C573 0.930 . S
H562 C575 0.930 . S
H563 C576 0.930 . S
H564 C580 0.959 . S
H565 C580 0.959 . S
H566 C580 0.961 . S
H567 C581 0.960 . S
H568 C581 0.961 . S
H569 C581 0.959 . S
H570 C584 0.929 . S
H571 C585 0.931 . S
H572 C587 0.930 . S
C573 H561 0.930 . S
C573 C574 1.399 . S
C573 C578 1.399 . S
C574 C573 1.399 . S
C574 C575 1.376 . S
C575 H562 0.930 . S
C575 C574 1.376 . S
C575 C576 1.388 . S
C576 H563 0.930 . S
C576 C575 1.388 . S
C576 C577 1.390 . S
C577 C576 1.390 . S
C577 C578 1.394 . S
C577 C583 1.465 . S
C578 C573 1.399 . S
C578 C577 1.394 . S
C578 C579 1.516 . S
C579 C578 1.516 . S
C579 C580 1.502 . S
C579 C581 1.561 . S
C579 C582 1.526 . S
C580 H564 0.959 . S
C580 H565 0.959 . S
C580 H566 0.961 . S
C580 C579 1.502 . S
C581 H567 0.960 . S
C581 H568 0.961 . S
C581 H569 0.959 . S
C581 C579 1.561 . S
C582 C579 1.526 . S
C582 C583 1.396 . S
C582 C587 1.390 . S
C583 C577 1.465 . S
C583 C582 1.396 . S
C583 C584 1.399 . S
C584 H570 0.929 . S
C584 C583 1.399 . S
C584 C585 1.385 . S
C585 H571 0.931 . S
C585 C584 1.385 . S
C585 C586 1.389 . S
C586 C585 1.389 . S
C586 C587 1.387 . S
C587 H572 0.930 . S
C587 C582 1.390 . S
C587 C586 1.387 . S
H588 C600 0.930 . S
H589 C602 0.930 . S
H590 C603 0.930 . S
H591 C607 0.959 . S
H592 C607 0.959 . S
H593 C607 0.961 . S
H594 C608 0.960 . S
H595 C608 0.961 . S
H596 C608 0.959 . S
H597 C611 0.929 . S
H598 C612 0.931 . S
H599 C614 0.930 . S
C600 H588 0.930 . S
C600 C601 1.399 . S
C600 C605 1.399 . S
C601 C600 1.399 . S
C601 C602 1.376 . S
C602 H589 0.930 . S
C602 C601 1.376 . S
C602 C603 1.388 . S
C603 H590 0.930 . S
C603 C602 1.388 . S
C603 C604 1.390 . S
C604 C603 1.390 . S
C604 C605 1.394 . S
C604 C610 1.465 . S
C605 C600 1.399 . S
C605 C604 1.394 . S
C605 C606 1.516 . S
C606 C605 1.516 . S
C606 C607 1.502 . S
C606 C608 1.561 . S
C606 C609 1.526 . S
C607 H591 0.959 . S
C607 H592 0.959 . S
C607 H593 0.961 . S
C607 C606 1.502 . S
C608 H594 0.960 . S
C608 H595 0.961 . S
C608 H596 0.959 . S
C608 C606 1.561 . S
C609 C606 1.526 . S
C609 C610 1.396 . S
C609 C614 1.390 . S
C610 C604 1.465 . S
C610 C609 1.396 . S
C610 C611 1.399 . S
C611 H597 0.929 . S
C611 C610 1.399 . S
C611 C612 1.385 . S
C612 H598 0.931 . S
C612 C611 1.385 . S
C612 C613 1.389 . S
C613 C612 1.389 . S
C613 C614 1.387 . S
C614 H599 0.930 . S
C614 C609 1.390 . S
C614 C613 1.387 . S
H615 C627 0.930 . S
H616 C629 0.930 . S
H617 C630 0.930 . S
H618 C634 0.959 . S
H619 C634 0.959 . S
H620 C634 0.961 . S
H621 C635 0.960 . S
H622 C635 0.961 . S
H623 C635 0.959 . S
H624 C638 0.929 . S
H625 C639 0.931 . S
H626 C641 0.930 . S
C627 H615 0.930 . S
C627 C628 1.399 . S
C627 C632 1.399 . S
C628 C627 1.399 . S
C628 C629 1.376 . S
C629 H616 0.930 . S
C629 C628 1.376 . S
C629 C630 1.388 . S
C630 H617 0.930 . S
C630 C629 1.388 . S
C630 C631 1.390 . S
C631 C630 1.390 . S
C631 C632 1.394 . S
C631 C637 1.465 . S
C632 C627 1.399 . S
C632 C631 1.394 . S
C632 C633 1.516 . S
C633 C632 1.516 . S
C633 C634 1.502 . S
C633 C635 1.561 . S
C633 C636 1.526 . S
C634 H618 0.959 . S
C634 H619 0.959 . S
C634 H620 0.961 . S
C634 C633 1.502 . S
C635 H621 0.960 . S
C635 H622 0.961 . S
C635 H623 0.959 . S
C635 C633 1.561 . S
C636 C633 1.526 . S
C636 C637 1.396 . S
C636 C641 1.390 . S
C637 C631 1.465 . S
C637 C636 1.396 . S
C637 C638 1.399 . S
C638 H624 0.929 . S
C638 C637 1.399 . S
C638 C639 1.385 . S
C639 H625 0.931 . S
C639 C638 1.385 . S
C639 C640 1.389 . S
C640 C639 1.389 . S
C640 C641 1.387 . S
C641 H626 0.930 . S
C641 C636 1.390 . S
C641 C640 1.387 . S
H642 C654 0.930 . S
H643 C656 0.930 . S
H644 C657 0.930 . S
H645 C661 0.959 . S
H646 C661 0.959 . S
H647 C661 0.961 . S
H648 C662 0.960 . S
H649 C662 0.961 . S
H650 C662 0.959 . S
H651 C665 0.929 . S
H652 C666 0.931 . S
H653 C668 0.930 . S
C654 H642 0.930 . S
C654 C655 1.399 . S
C654 C659 1.399 . S
C655 C654 1.399 . S
C655 C656 1.376 . S
C656 H643 0.930 . S
C656 C655 1.376 . S
C656 C657 1.388 . S
C657 H644 0.930 . S
C657 C656 1.388 . S
C657 C658 1.390 . S
C658 C657 1.390 . S
C658 C659 1.394 . S
C658 C664 1.465 . S
C659 C654 1.399 . S
C659 C658 1.394 . S
C659 C660 1.516 . S
C660 C659 1.516 . S
C660 C661 1.502 . S
C660 C662 1.561 . S
C660 C663 1.526 . S
C661 H645 0.959 . S
C661 H646 0.959 . S
C661 H647 0.961 . S
C661 C660 1.502 . S
C662 H648 0.960 . S
C662 H649 0.961 . S
C662 H650 0.959 . S
C662 C660 1.561 . S
C663 C660 1.526 . S
C663 C664 1.396 . S
C663 C668 1.390 . S
C664 C658 1.465 . S
C664 C663 1.396 . S
C664 C665 1.399 . S
C665 H651 0.929 . S
C665 C664 1.399 . S
C665 C666 1.385 . S
C666 H652 0.931 . S
C666 C665 1.385 . S
C666 C667 1.389 . S
C667 C666 1.389 . S
C667 C668 1.387 . S
C668 H653 0.930 . S
C668 C663 1.390 . S
C668 C667 1.387 . S
H669 C681 0.930 . S
H670 C683 0.930 . S
H671 C684 0.930 . S
H672 C688 0.959 . S
H673 C688 0.959 . S
H674 C688 0.961 . S
H675 C689 0.960 . S
H676 C689 0.961 . S
H677 C689 0.959 . S
H678 C692 0.929 . S
H679 C693 0.931 . S
H680 C695 0.930 . S
C681 H669 0.930 . S
C681 C682 1.399 . S
C681 C686 1.399 . S
C682 C681 1.399 . S
C682 C683 1.376 . S
C683 H670 0.930 . S
C683 C682 1.376 . S
C683 C684 1.388 . S
C684 H671 0.930 . S
C684 C683 1.388 . S
C684 C685 1.390 . S
C685 C684 1.390 . S
C685 C686 1.394 . S
C685 C691 1.465 . S
C686 C681 1.399 . S
C686 C685 1.394 . S
C686 C687 1.516 . S
C687 C686 1.516 . S
C687 C688 1.502 . S
C687 C689 1.561 . S
C687 C690 1.526 . S
C688 H672 0.959 . S
C688 H673 0.959 . S
C688 H674 0.961 . S
C688 C687 1.502 . S
C689 H675 0.960 . S
C689 H676 0.961 . S
C689 H677 0.959 . S
C689 C687 1.561 . S
C690 C687 1.526 . S
C690 C691 1.396 . S
C690 C695 1.390 . S
C691 C685 1.465 . S
C691 C690 1.396 . S
C691 C692 1.399 . S
C692 H678 0.929 . S
C692 C691 1.399 . S
C692 C693 1.385 . S
C693 H679 0.931 . S
C693 C692 1.385 . S
C693 C694 1.389 . S
C694 C693 1.389 . S
C694 C695 1.387 . S
C695 H680 0.930 . S
C695 C690 1.390 . S
C695 C694 1.387 . S
H696 C708 0.930 . S
H697 C710 0.930 . S
H698 C711 0.930 . S
H699 C715 0.959 . S
H700 C715 0.959 . S
H701 C715 0.961 . S
H702 C716 0.960 . S
H703 C716 0.961 . S
H704 C716 0.959 . S
H705 C719 0.929 . S
H706 C720 0.931 . S
H707 C722 0.930 . S
C708 H696 0.930 . S
C708 C709 1.399 . S
C708 C713 1.399 . S
C709 C708 1.399 . S
C709 C710 1.376 . S
C710 H697 0.930 . S
C710 C709 1.376 . S
C710 C711 1.388 . S
C711 H698 0.930 . S
C711 C710 1.388 . S
C711 C712 1.390 . S
C712 C711 1.390 . S
C712 C713 1.394 . S
C712 C718 1.465 . S
C713 C708 1.399 . S
C713 C712 1.394 . S
C713 C714 1.516 . S
C714 C713 1.516 . S
C714 C715 1.502 . S
C714 C716 1.561 . S
C714 C717 1.526 . S
C715 H699 0.959 . S
C715 H700 0.959 . S
C715 H701 0.961 . S
C715 C714 1.502 . S
C716 H702 0.960 . S
C716 H703 0.961 . S
C716 H704 0.959 . S
C716 C714 1.561 . S
C717 C714 1.526 . S
C717 C718 1.396 . S
C717 C722 1.390 . S
C718 C712 1.465 . S
C718 C717 1.396 . S
C718 C719 1.399 . S
C719 H705 0.929 . S
C719 C718 1.399 . S
C719 C720 1.385 . S
C720 H706 0.931 . S
C720 C719 1.385 . S
C720 C721 1.389 . S
C721 C720 1.389 . S
C721 C722 1.387 . S
C722 H707 0.930 . S
C722 C717 1.390 . S
C722 C721 1.387 . S
H723 C735 0.930 . S
H724 C737 0.930 . S
H725 C738 0.930 . S
H726 C742 0.959 . S
H727 C742 0.959 . S
H728 C742 0.961 . S
H729 C743 0.960 . S
H730 C743 0.961 . S
H731 C743 0.959 . S
H732 C746 0.929 . S
H733 C747 0.931 . S
H734 C749 0.930 . S
C735 H723 0.930 . S
C735 C736 1.399 . S
C735 C740 1.399 . S
C736 C735 1.399 . S
C736 C737 1.376 . S
C737 H724 0.930 . S
C737 C736 1.376 . S
C737 C738 1.388 . S
C738 H725 0.930 . S
C738 C737 1.388 . S
C738 C739 1.390 . S
C739 C738 1.390 . S
C739 C740 1.394 . S
C739 C745 1.465 . S
C740 C735 1.399 . S
C740 C739 1.394 . S
C740 C741 1.516 . S
C741 C740 1.516 . S
C741 C742 1.502 . S
C741 C743 1.561 . S
C741 C744 1.526 . S
C742 H726 0.959 . S
C742 H727 0.959 . S
C742 H728 0.961 . S
C742 C741 1.502 . S
C743 H729 0.960 . S
C743 H730 0.961 . S
C743 H731 0.959 . S
C743 C741 1.561 . S
C744 C741 1.526 . S
C744 C745 1.396 . S
C744 C749 1.390 . S
C745 C739 1.465 . S
C745 C744 1.396 . S
C745 C746 1.399 . S
C746 H732 0.929 . S
C746 C745 1.399 . S
C746 C747 1.385 . S
C747 H733 0.931 . S
C747 C746 1.385 . S
C747 C748 1.389 . S
C748 C747 1.389 . S
C748 C749 1.387 . S
C749 H734 0.930 . S
C749 C744 1.390 . S
C749 C748 1.387 . S
H750 C762 0.930 . S
H751 C764 0.930 . S
H752 C765 0.930 . S
H753 C769 0.959 . S
H754 C769 0.959 . S
H755 C769 0.961 . S
H756 C770 0.960 . S
H757 C770 0.961 . S
H758 C770 0.959 . S
H759 C773 0.929 . S
H760 C774 0.931 . S
H761 C776 0.930 . S
C762 H750 0.930 . S
C762 C763 1.399 . S
C762 C767 1.399 . S
C763 C762 1.399 . S
C763 C764 1.376 . S
C764 H751 0.930 . S
C764 C763 1.376 . S
C764 C765 1.388 . S
C765 H752 0.930 . S
C765 C764 1.388 . S
C765 C766 1.390 . S
C766 C765 1.390 . S
C766 C767 1.394 . S
C766 C772 1.465 . S
C767 C762 1.399 . S
C767 C766 1.394 . S
C767 C768 1.516 . S
C768 C767 1.516 . S
C768 C769 1.502 . S
C768 C770 1.561 . S
C768 C771 1.526 . S
C769 H753 0.959 . S
C769 H754 0.959 . S
C769 H755 0.961 . S
C769 C768 1.502 . S
C770 H756 0.960 . S
C770 H757 0.961 . S
C770 H758 0.959 . S
C770 C768 1.561 . S
C771 C768 1.526 . S
C771 C772 1.396 . S
C771 C776 1.390 . S
C772 C766 1.465 . S
C772 C771 1.396 . S
C772 C773 1.399 . S
C773 H759 0.929 . S
C773 C772 1.399 . S
C773 C774 1.385 . S
C774 H760 0.931 . S
C774 C773 1.385 . S
C774 C775 1.389 . S
C775 C774 1.389 . S
C775 C776 1.387 . S
C776 H761 0.930 . S
C776 C771 1.390 . S
C776 C775 1.387 . S
H777 C789 0.930 . S
H778 C791 0.930 . S
H779 C792 0.930 . S
H780 C796 0.959 . S
H781 C796 0.959 . S
H782 C796 0.961 . S
H783 C797 0.960 . S
H784 C797 0.961 . S
H785 C797 0.959 . S
H786 C800 0.929 . S
H787 C801 0.931 . S
H788 C803 0.930 . S
C789 H777 0.930 . S
C789 C790 1.399 . S
C789 C794 1.399 . S
C790 C789 1.399 . S
C790 C791 1.376 . S
C791 H778 0.930 . S
C791 C790 1.376 . S
C791 C792 1.388 . S
C792 H779 0.930 . S
C792 C791 1.388 . S
C792 C793 1.390 . S
C793 C792 1.390 . S
C793 C794 1.394 . S
C793 C799 1.465 . S
C794 C789 1.399 . S
C794 C793 1.394 . S
C794 C795 1.516 . S
C795 C794 1.516 . S
C795 C796 1.502 . S
C795 C797 1.561 . S
C795 C798 1.526 . S
C796 H780 0.959 . S
C796 H781 0.959 . S
C796 H782 0.961 . S
C796 C795 1.502 . S
C797 H783 0.960 . S
C797 H784 0.961 . S
C797 H785 0.959 . S
C797 C795 1.561 . S
C798 C795 1.526 . S
C798 C799 1.396 . S
C798 C803 1.390 . S
C799 C793 1.465 . S
C799 C798 1.396 . S
C799 C800 1.399 . S
C800 H786 0.929 . S
C800 C799 1.399 . S
C800 C801 1.385 . S
C801 H787 0.931 . S
C801 C800 1.385 . S
C801 C802 1.389 . S
C802 C801 1.389 . S
C802 C803 1.387 . S
C803 H788 0.930 . S
C803 C798 1.390 . S
C803 C802 1.387 . S
H804 C816 0.930 . S
H805 C818 0.930 1_655 S
H806 C819 0.930 . S
H807 C823 0.959 . S
H808 C823 0.959 . S
H809 C823 0.961 . S
H810 C824 0.960 . S
H811 C824 0.961 . S
H812 C824 0.959 1_655 S
H813 C827 0.929 . S
H814 C828 0.925 1_656 S
H815 C830 0.930 . S
C816 H804 0.930 . S
C816 C817 1.399 . S
C816 C821 1.399 . S
C817 C816 1.399 . S
C817 C818 1.376 . S
C818 H805 0.930 1_455 S
C818 C817 1.376 . S
C818 C819 1.388 1_455 S
C819 H806 0.930 . S
C819 C818 1.388 1_655 S
C819 C820 1.390 1_655 S
C820 C819 1.390 1_455 S
C820 C821 1.394 . S
C820 C826 1.465 . S
C821 C816 1.399 . S
C821 C820 1.394 . S
C821 C822 1.516 . S
C822 C821 1.516 . S
C822 C823 1.502 . S
C822 C824 1.561 . S
C822 C825 1.526 . S
C823 H807 0.959 . S
C823 H808 0.959 . S
C823 H809 0.961 . S
C823 C822 1.502 . S
C824 H810 0.960 . S
C824 H811 0.961 . S
C824 H812 0.959 1_455 S
C824 C822 1.561 . S
C825 C822 1.526 . S
C825 C826 1.396 . S
C825 C830 1.390 . S
C826 C820 1.465 . S
C826 C825 1.396 . S
C826 C827 1.399 1_455 S
C827 H813 0.929 . S
C827 C826 1.399 1_655 S
C827 C828 1.385 1_655 S
C828 H814 0.925 1_454 S
C828 C827 1.385 1_455 S
C828 C829 1.389 . S
C829 C828 1.389 . S
C829 C830 1.387 . S
C830 H815 0.930 . S
C830 C825 1.390 . S
C830 C829 1.387 . S
H831 C843 0.930 . S
H832 C845 0.930 . S
H833 C846 0.930 1_565 S
H834 C850 0.959 . S
H835 C850 0.959 . S
H836 C850 0.961 . S
H837 C851 0.960 . S
H838 C851 0.961 . S
H839 C851 0.959 . S
H840 C854 0.929 1_565 S
H841 C855 0.931 1_565 S
H842 C857 0.930 . S
C843 H831 0.930 . S
C843 C844 1.399 . S
C843 C848 1.399 . S
C844 C843 1.399 . S
C844 C845 1.376 . S
C845 H832 0.930 . S
C845 C844 1.376 . S
C845 C846 1.388 . S
C846 H833 0.930 1_545 S
C846 C845 1.388 . S
C846 C847 1.390 . S
C847 C846 1.390 . S
C847 C848 1.394 . S
C847 C853 1.465 . S
C848 C843 1.399 . S
C848 C847 1.394 . S
C848 C849 1.516 . S
C849 C848 1.516 . S
C849 C850 1.502 . S
C849 C851 1.561 . S
C849 C852 1.526 . S
C850 H834 0.959 . S
C850 H835 0.959 . S
C850 H836 0.961 . S
C850 C849 1.502 . S
C851 H837 0.960 . S
C851 H838 0.961 . S
C851 H839 0.959 . S
C851 C849 1.561 . S
C852 C849 1.526 . S
C852 C853 1.396 . S
C852 C857 1.390 . S
C853 C847 1.465 . S
C853 C852 1.396 . S
C853 C854 1.399 . S
C854 H840 0.929 1_545 S
C854 C853 1.399 . S
C854 C855 1.385 . S
C855 H841 0.931 1_545 S
C855 C854 1.385 . S
C855 C856 1.389 . S
C856 C855 1.389 . S
C856 C857 1.387 . S
C857 H842 0.930 . S
C857 C852 1.390 . S
C857 C856 1.387 . S
H858 C870 0.930 . S
H859 C872 0.930 . S
H860 C873 0.930 . S
H861 C877 0.959 . S
H862 C877 0.959 . S
H863 C877 0.961 . S
H864 C878 0.960 . S
H865 C878 0.961 . S
H866 C878 0.959 . S
H867 C881 0.929 . S
H868 C882 0.931 . S
H869 C884 0.930 . S
C870 H858 0.930 . S
C870 C871 1.399 . S
C870 C875 1.399 . S
C871 C870 1.399 . S
C871 C872 1.376 . S
C872 H859 0.930 . S
C872 C871 1.376 . S
C872 C873 1.388 . S
C873 H860 0.930 . S
C873 C872 1.388 . S
C873 C874 1.390 . S
C874 C873 1.390 . S
C874 C875 1.394 . S
C874 C880 1.465 . S
C875 C870 1.399 . S
C875 C874 1.394 . S
C875 C876 1.516 . S
C876 C875 1.516 . S
C876 C877 1.502 . S
C876 C878 1.561 . S
C876 C879 1.526 . S
C877 H861 0.959 . S
C877 H862 0.959 . S
C877 H863 0.961 . S
C877 C876 1.502 . S
C878 H864 0.960 . S
C878 H865 0.961 . S
C878 H866 0.959 . S
C878 C876 1.561 . S
C879 C876 1.526 . S
C879 C880 1.396 . S
C879 C884 1.390 . S
C880 C874 1.465 . S
C880 C879 1.396 . S
C880 C881 1.399 . S
C881 H867 0.929 . S
C881 C880 1.399 . S
C881 C882 1.385 . S
C882 H868 0.931 . S
C882 C881 1.385 . S
C882 C883 1.389 . S
C883 C882 1.389 . S
C883 C884 1.387 . S
C884 H869 0.930 . S
C884 C879 1.390 . S
C884 C883 1.387 . S
H885 C897 0.930 . S
H886 C899 0.930 . S
H887 C900 0.930 . S
H888 C904 0.959 . S
H889 C904 0.959 . S
H890 C904 0.961 . S
H891 C905 0.960 . S
H892 C905 0.961 . S
H893 C905 0.959 . S
H894 C908 0.929 . S
H895 C909 0.931 . S
H896 C911 0.930 . S
C897 H885 0.930 . S
C897 C898 1.399 . S
C897 C902 1.399 . S
C898 C897 1.399 . S
C898 C899 1.376 1_545 S
C899 H886 0.930 . S
C899 C898 1.376 1_565 S
C899 C900 1.388 . S
C900 H887 0.930 . S
C900 C899 1.388 . S
C900 C901 1.390 1_565 S
C901 C900 1.390 1_545 S
C901 C902 1.394 . S
C901 C907 1.463 1_545 S
C902 C897 1.399 . S
C902 C901 1.394 . S
C902 C903 1.516 . S
C903 C902 1.516 . S
C903 C904 1.502 . S
C903 C905 1.561 . S
C903 C906 1.526 . S
C904 H888 0.959 . S
C904 H889 0.959 . S
C904 H890 0.961 . S
C904 C903 1.502 . S
C905 H891 0.960 . S
C905 H892 0.961 . S
C905 H893 0.959 . S
C905 C903 1.561 . S
C906 C903 1.526 . S
C906 C907 1.383 1_545 S
C906 C911 1.390 . S
C907 C901 1.463 1_565 S
C907 C906 1.383 1_565 S
C907 C908 1.412 . S
C908 H894 0.929 . S
C908 C907 1.412 . S
C908 C909 1.385 . S
C909 H895 0.931 . S
C909 C908 1.385 . S
C909 C910 1.389 1_565 S
C910 C909 1.389 1_545 S
C910 C911 1.387 . S
C911 H896 0.930 . S
C911 C906 1.390 . S
C911 C910 1.387 . S
H912 C924 0.930 . S
H913 C926 0.930 . S
H914 C927 0.930 . S
H915 C931 0.959 . S
H916 C931 0.959 . S
H917 C931 0.961 . S
H918 C932 0.960 . S
H919 C932 0.961 . S
H920 C932 0.959 . S
H921 C935 0.929 . S
H922 C936 0.931 . S
H923 C938 0.930 . S
C924 H912 0.930 . S
C924 C925 1.399 . S
C924 C929 1.399 . S
C925 C924 1.399 . S
C925 C926 1.376 . S
C926 H913 0.930 . S
C926 C925 1.376 . S
C926 C927 1.388 . S
C927 H914 0.930 . S
C927 C926 1.388 . S
C927 C928 1.390 . S
C928 C927 1.390 . S
C928 C929 1.394 . S
C928 C934 1.465 . S
C929 C924 1.399 . S
C929 C928 1.394 . S
C929 C930 1.516 . S
C930 C929 1.516 . S
C930 C931 1.502 . S
C930 C932 1.561 . S
C930 C933 1.526 . S
C931 H915 0.959 . S
C931 H916 0.959 . S
C931 H917 0.961 . S
C931 C930 1.502 . S
C932 H918 0.960 . S
C932 H919 0.961 . S
C932 H920 0.959 . S
C932 C930 1.561 . S
C933 C930 1.526 . S
C933 C934 1.396 . S
C933 C938 1.390 . S
C934 C928 1.465 . S
C934 C933 1.396 . S
C934 C935 1.399 . S
C935 H921 0.929 . S
C935 C934 1.399 . S
C935 C936 1.385 . S
C936 H922 0.931 . S
C936 C935 1.385 . S
C936 C937 1.389 . S
C937 C936 1.389 . S
C937 C938 1.387 . S
C938 H923 0.930 . S
C938 C933 1.390 . S
C938 C937 1.387 . S
H939 C951 0.930 1_655 S
H940 C953 0.930 . S
H941 C954 0.930 . S
H942 C958 0.959 . S
H943 C958 0.959 . S
H944 C958 0.961 . S
H945 C959 0.960 . S
H946 C959 0.961 . S
H947 C959 0.959 1_455 S
H948 C962 0.929 . S
H949 C963 0.931 . S
H950 C965 0.930 . S
C951 H939 0.930 1_455 S
C951 C952 1.399 . S
C951 C956 1.399 . S
C952 C951 1.399 . S
C952 C953 1.376 . S
C953 H940 0.930 . S
C953 C952 1.376 . S
C953 C954 1.388 . S
C954 H941 0.930 . S
C954 C953 1.388 . S
C954 C955 1.390 . S
C955 C954 1.390 . S
C955 C956 1.394 . S
C955 C961 1.465 . S
C956 C951 1.399 . S
C956 C955 1.394 . S
C956 C957 1.516 1_455 S
C957 C956 1.516 1_655 S
C957 C958 1.502 . S
C957 C959 1.561 . S
C957 C960 1.526 . S
C958 H942 0.959 . S
C958 H943 0.959 . S
C958 H944 0.961 . S
C958 C957 1.502 . S
C959 H945 0.960 . S
C959 H946 0.961 . S
C959 H947 0.959 1_655 S
C959 C957 1.561 . S
C960 C957 1.526 . S
C960 C961 1.395 1_655 S
C960 C965 1.391 . S
C961 C955 1.465 . S
C961 C960 1.395 1_455 S
C961 C962 1.399 . S
C962 H948 0.929 . S
C962 C961 1.399 . S
C962 C963 1.385 . S
C963 H949 0.931 . S
C963 C962 1.385 . S
C963 C964 1.389 . S
C964 C963 1.389 . S
C964 C965 1.387 1_455 S
C965 H950 0.930 . S
C965 C960 1.391 . S
C965 C964 1.387 1_655 S
C493 C9 0.399 . S
C505 C451 0.481 . S
C520 C49 0.406 . S
C532 C301 0.473 . S
C547 C89 0.256 . S
C559 C361 0.309 . S
C574 C26 0.357 . S
C586 C421 0.343 . S
C613 C331 0.422 . S
C601 C66 0.542 . S
C640 C391 0.500 . S
C628 C106 0.420 . S
C655 C43 2.942 . S
C667 C181 2.761 . S
C682 C83 3.091 . S
C694 C271 3.081 . S
C709 C22 3.151 . S
C721 C151 3.139 . S
C748 C211 3.135 . S
C736 C62 3.146 . S
C775 C241 2.852 . S
C763 C102 2.997 . S
C790 C3 2.936 . S
C802 C121 2.769 . S
C829 C260 1.735 1_554 S
C817 C15 1.697 . S
C844 C55 1.712 . S
C856 C140 1.729 . S
C871 C95 1.755 . S
C883 C200 1.768 . S
C910 C380 1.072 . S
C898 C42 1.092 . S
C937 C440 1.046 1_556 S
C925 C82 1.076 . S
C952 C2 1.054 . S
C964 C320 1.015 . S
