# Generated by pormake.
# Topology anh, (6,3)-cn, num edge types: 1
# Building blocks:
#     Node 0, Type 0, BuildingBlock: NUHQIS_clean_sbu_0, # of connection points: 6
#     Node 1, Type 0, BuildingBlock: NUHQIS_clean_sbu_0, # of connection points: 6
#     Node 2, Type 0, BuildingBlock: NUHQIS_clean_sbu_0, # of connection points: 6
#     Node 3, Type 1, BuildingBlock: BETDAH_clean_linker_0, # of connection points: 3
#     Node 4, Type 1, BuildingBlock: BETDAH_clean_linker_0, # of connection points: 3
#     Node 5, Type 1, BuildingBlock: BETDAH_clean_linker_0, # of connection points: 3
#     Node 6, Type 1, BuildingBlock: BETDAH_clean_linker_0, # of connection points: 3
#     Node 7, Type 1, BuildingBlock: BETDAH_clean_linker_0, # of connection points: 3
#     Node 8, Type 1, BuildingBlock: BETDAH_clean_linker_0, # of connection points: 3
#     Edge 9, Type (0, 1), BuildingBlock: UVAHIK_clean_linker_0, # of connection points: 2
#     Edge 10, Type (0, 1), BuildingBlock: UVAHIK_clean_linker_0, # of connection points: 2
#     Edge 11, Type (0, 1), BuildingBlock: UVAHIK_clean_linker_0, # of connection points: 2
#     Edge 12, Type (0, 1), BuildingBlock: UVAHIK_clean_linker_0, # of connection points: 2
#     Edge 13, Type (0, 1), BuildingBlock: UVAHIK_clean_linker_0, # of connection points: 2
#     Edge 14, Type (0, 1), BuildingBlock: UVAHIK_clean_linker_0, # of connection points: 2
#     Edge 15, Type (0, 1), BuildingBlock: UVAHIK_clean_linker_0, # of connection points: 2
#     Edge 16, Type (0, 1), BuildingBlock: UVAHIK_clean_linker_0, # of connection points: 2
#     Edge 17, Type (0, 1), BuildingBlock: UVAHIK_clean_linker_0, # of connection points: 2
#     Edge 18, Type (0, 1), BuildingBlock: UVAHIK_clean_linker_0, # of connection points: 2
#     Edge 19, Type (0, 1), BuildingBlock: UVAHIK_clean_linker_0, # of connection points: 2
#     Edge 20, Type (0, 1), BuildingBlock: UVAHIK_clean_linker_0, # of connection points: 2
#     Edge 21, Type (0, 1), BuildingBlock: UVAHIK_clean_linker_0, # of connection points: 2
#     Edge 22, Type (0, 1), BuildingBlock: UVAHIK_clean_linker_0, # of connection points: 2
#     Edge 23, Type (0, 1), BuildingBlock: UVAHIK_clean_linker_0, # of connection points: 2
#     Edge 24, Type (0, 1), BuildingBlock: UVAHIK_clean_linker_0, # of connection points: 2
#     Edge 25, Type (0, 1), BuildingBlock: UVAHIK_clean_linker_0, # of connection points: 2
#     Edge 26, Type (0, 1), BuildingBlock: UVAHIK_clean_linker_0, # of connection points: 2
# Relax obj value: 0.176
# Max RMSD: 0.140
# Mean RMSD: 0.102
data_MOF--net-anh--node1-NUHQIS_clean_sbu_0--node2-BETDAH_clean_linker_0--edge1-UVAHIK_clean_linker_0
_symmetry_space_group_name_H-M    P1
_symmetry_Int_Tables_number       1
_symmetry_cell_setting            triclinic
loop_
_symmetry_equiv_pos_as_xyz
'x, y, z'
_cell_length_a     41.787698
_cell_length_b     42.098663
_cell_length_c     65.127865
_cell_angle_alpha  92.415304
_cell_angle_beta   95.956268
_cell_angle_gamma 119.56163
loop_
_atom_site_label
_atom_site_type_symbol
_atom_site_fract_x
_atom_site_fract_y
_atom_site_fract_z
_atom_type_partial_charge
Tb0 Tb 0.09905 0.57177 0.15301 0.0
Eu1 Eu 0.05569 0.61525 0.14861 0.0
C2 C 0.07891 0.5977 0.19206 0.0
C3 C 1.00789 0.5234 0.15265 0.0
C4 C 0.17452 0.54712 0.16048 0.0
C5 C 0.22892 0.54883 0.17894 0.0
C6 C 0.19402 0.54539 0.17885 0.0
C7 C 0.19098 0.55365 0.14224 0.0
C8 C 0.22597 0.55691 0.14229 0.0
C9 C 0.24489 0.55374 0.16056 0.0
C10 C 0.13683 0.54096 0.161 0.0
O11 O 0.09835 0.57833 0.1198 0.0
O12 O 0.05723 0.59947 0.11521 0.0
O13 O 0.11623 0.66204 0.14614 0.0
O14 O 0.14639 0.63192 0.15769 0.0
C15 C 0.07767 0.5874 0.10763 0.0
O16 O 1.01077 0.62212 0.1334 0.0
O17 O 0.04687 0.65936 0.16011 0.0
O18 O 0.07882 0.62406 0.18237 0.0
O19 O 0.07581 0.56922 0.18144 0.0
O20 O 0.03917 0.52383 0.14913 0.0
O21 O 1.00937 0.55586 0.15484 0.0
C22 C 0.14819 0.66333 0.15267 0.0
O23 O 0.13443 0.56339 0.17429 0.0
O24 O 0.11524 0.53407 0.14343 0.0
C25 C 0.98346 0.64011 0.15741 0.0
C26 C 0.91544 0.61694 0.17233 0.0
C27 C 0.92723 0.64328 0.15804 0.0
C28 C 0.96103 0.65469 0.15057 0.0
C29 C 0.9728 0.61543 0.17254 0.0
C30 C 0.93907 0.60397 0.17996 0.0
C31 C 1.01607 0.64772 0.14753 0.0
H32 H 0.24304 0.54678 0.1933 0.0
H33 H 0.18187 0.54064 0.19313 0.0
H34 H 0.17655 0.55535 0.12789 0.0
H35 H 0.23744 0.56033 0.12784 0.0
H36 H 0.90935 0.65337 0.15169 0.0
H37 H 0.96887 0.67365 0.13883 0.0
H38 H 0.98989 0.60391 0.17798 0.0
H39 H 0.93078 0.58385 0.19106 0.0
Tb40 Tb 0.59688 0.10172 0.48659 0.0
Eu41 Eu 0.5097 0.06026 0.47711 0.0
C42 C 0.5503 0.07123 0.5222 0.0
C43 C 0.55434 1.01114 0.48289 0.0
C44 C 0.69114 0.18005 0.50135 0.0
C45 C 0.74756 0.23215 0.51942 0.0
C46 C 0.72558 0.19436 0.51382 0.0
C47 C 0.6789 0.20384 0.49435 0.0
C48 C 0.7007 0.24161 0.50007 0.0
C49 C 0.73519 0.25617 0.51279 0.0
C50 C 0.66595 0.14031 0.49826 0.0
O51 O 0.58946 0.10324 0.45287 0.0
O52 O 0.52622 0.06657 0.44493 0.0
O53 O 0.52379 0.12114 0.47529 0.0
O54 O 0.58334 0.14784 0.49169 0.0
C55 C 0.55914 0.08585 0.43918 0.0
O56 O 0.45719 1.01716 0.45991 0.0
O57 O 0.45688 0.05273 0.48465 0.0
O58 O 0.52433 0.075 0.51172 0.0
O59 O 0.57668 0.07177 0.51296 0.0
O60 O 0.58557 0.04284 0.48169 0.0
O61 O 0.52298 1.01244 0.48309 0.0
C62 C 0.55421 0.15137 0.48433 0.0
O63 O 0.64112 0.12878 0.51077 0.0
O64 O 0.65142 0.12539 0.47923 0.0
C65 C 0.4096 0.99026 0.48109 0.0
C66 C 0.36092 0.92835 0.49972 0.0
C67 C 0.37447 0.92413 0.48153 0.0
C68 C 0.39844 0.95469 0.4723 0.0
C69 C 0.39515 0.99451 0.49894 0.0
C70 C 0.37099 0.9638 0.50817 0.0
C71 C 0.43712 0.02264 0.4721 0.0
H72 H 0.77437 0.24254 0.52882 0.0
H73 H 0.73515 0.17626 0.51956 0.0
H74 H 0.6521 0.19314 0.4849 0.0
H75 H 0.6903 0.25932 0.49478 0.0
H76 H 0.36634 0.89708 0.47431 0.0
H77 H 0.40854 0.95038 0.45838 0.0
H78 H 0.40293 0.02159 0.50595 0.0
H79 H 0.36078 0.9678 0.52211 0.0
Tb80 Tb 0.58449 0.58658 0.81834 0.0
Eu81 Eu 0.53873 0.50017 0.80712 0.0
C82 C 0.56871 0.53497 0.85292 0.0
C83 C 0.63215 0.54267 0.81478 0.0
C84 C 0.61931 0.68172 0.84353 0.0
C85 C 0.65 0.73273 0.87078 0.0
C86 C 0.64936 0.7039 0.85901 0.0
C87 C 0.58878 0.68738 0.84083 0.0
C88 C 0.58952 0.71641 0.85251 0.0
C89 C 0.62072 0.74017 0.86712 0.0
C90 C 0.62165 0.65458 0.82969 0.0
O91 O 0.58522 0.57968 0.78464 0.0
O92 O 0.53575 0.52162 0.77641 0.0
O93 O 0.49318 0.51468 0.81447 0.0
O94 O 0.52593 0.57739 0.81677 0.0
C95 C 0.56045 0.55284 0.7707 0.0
O96 O 0.52253 0.44882 0.78856 0.0
O97 O 0.49475 0.4484 0.81508 0.0
O98 O 0.56831 0.51122 0.83932 0.0
O99 O 0.56486 0.56218 0.84669 0.0
O100 O 0.63107 0.57316 0.81996 0.0
O101 O 0.60007 0.51189 0.8081 0.0
C102 C 0.49353 0.54648 0.81662 0.0
O103 O 0.62722 0.63036 0.83873 0.0
O104 O 0.59754 0.64009 0.8128 0.0
C105 C 0.5004 0.3965 0.80741 0.0
C106 C 0.50084 0.33335 0.81977 0.0
C107 C 0.53239 0.36199 0.81299 0.0
C108 C 0.53224 0.39337 0.80695 0.0
C109 C 0.4692 0.36836 0.81452 0.0
C110 C 0.46942 0.33713 0.82071 0.0
C111 C 0.49894 0.42873 0.80073 0.0
H112 H 0.67417 0.7502 0.88213 0.0
H113 H 0.67304 0.69976 0.86148 0.0
H114 H 0.56501 0.6704 0.82915 0.0
H115 H 0.56665 0.72155 0.84913 0.0
H116 H 0.55687 0.35976 0.81177 0.0
H117 H 0.55681 0.41489 0.80169 0.0
H118 H 0.44449 0.37047 0.81517 0.0
H119 H 0.44489 0.31587 0.82613 0.0
H120 H 0.51068 0.02588 0.21475 0.0
H121 H 0.61289 0.12621 0.21091 0.0
H122 H 0.5428 0.05717 0.15482 0.0
C123 C 0.53031 0.04423 0.20524 0.0
C124 C 0.52141 0.03503 0.18358 0.0
C125 C 0.5628 0.07615 0.21526 0.0
C126 C 0.5881 0.10201 0.20318 0.0
C127 C 0.58216 0.0967 0.18124 0.0
C128 C 0.54808 0.06251 0.17157 0.0
N129 N 0.60922 0.12407 0.16881 0.0
C130 C 0.64458 0.15926 0.17327 0.0
H131 H 0.55814 0.50811 0.54727 0.0
H132 H 0.55679 0.60902 0.54124 0.0
H133 H 0.55734 0.54622 0.48679 0.0
C134 C 0.55784 0.52786 0.53723 0.0
C135 C 0.55818 0.52148 0.51582 0.0
C136 C 0.55713 0.55864 0.54641 0.0
C137 C 0.55726 0.58565 0.534 0.0
C138 C 0.55708 0.58243 0.51235 0.0
C139 C 0.55725 0.54952 0.50335 0.0
N140 N 0.55671 0.61095 0.49958 0.0
C141 C 0.55667 0.64555 0.50381 0.0
H142 H 0.99824 0.5552 0.88153 0.0
H143 H 0.09784 0.55021 0.87623 0.0
H144 H 1.02828 0.54704 0.82104 0.0
C145 C 1.01659 0.55296 0.87174 0.0
C146 C 1.0074 0.55086 0.85008 0.0
C147 C 0.04828 0.55221 0.88137 0.0
C148 C 0.07364 0.55071 0.86891 0.0
C149 C 0.06776 0.54904 0.84706 0.0
C150 C 1.03373 0.54852 0.83776 0.0
N151 N 0.09463 0.5477 0.83426 0.0
C152 C 0.13003 0.54832 0.83871 0.0
H153 H 0.14048 0.62243 0.42312 0.0
H154 H 0.05911 0.50953 0.40196 0.0
H155 H 0.08614 0.54699 0.4671 0.0
C156 C 0.12147 0.59475 0.42637 0.0
C157 C 0.11641 0.58754 0.44699 0.0
C158 C 0.10031 0.56698 0.40994 0.0
C159 C 0.07544 0.53141 0.41443 0.0
C160 C 0.06991 0.5242 0.43489 0.0
C161 C 0.0903 0.5524 0.45118 0.0
N162 N 0.04228 0.48891 0.43868 0.0
C163 C 1.02101 0.48461 0.45441 0.0
H164 H 0.56513 0.07971 0.74958 0.0
H165 H 0.65817 0.06414 0.7427 0.0
H166 H 0.63248 0.0777 0.80342 0.0
C167 C 0.58828 0.07683 0.75629 0.0
C168 C 0.59657 0.07992 0.77798 0.0
C169 C 0.61021 0.07115 0.74327 0.0
C170 C 0.6405 0.06806 0.75233 0.0
C171 C 0.64795 0.06942 0.7739 0.0
C172 C 0.6261 0.07562 0.78668 0.0
N173 N 0.67717 0.06394 0.78251 0.0
C174 C 0.6733 0.04424 0.79951 0.0
H175 H 0.59039 0.44689 0.07172 0.0
H176 H 0.47284 0.3878 0.049 0.0
H177 H 0.51082 0.40138 0.11416 0.0
C178 C 0.56171 0.43091 0.07436 0.0
C179 C 0.55391 0.42485 0.09472 0.0
C180 C 0.53272 0.4182 0.05762 0.0
C181 C 0.49579 0.39707 0.06147 0.0
C182 C 0.48794 0.39089 0.08176 0.0
C183 C 0.51702 0.40519 0.09839 0.0
N184 N 0.4507 0.37434 0.08555 0.0
C185 C 0.44041 0.39443 0.09787 0.0
C186 C 0.28295 0.52444 0.16983 0.0
C187 C 0.2792 0.55174 0.16003 0.0
C188 C 0.31266 0.51902 0.16734 0.0
C189 C 0.38191 0.51555 0.16365 0.0
H190 H 0.39387 0.50984 0.10563 0.0
C191 C 0.44944 0.45619 0.10347 0.0
C192 C 0.43369 0.42025 0.10891 0.0
C193 C 0.44127 0.48113 0.11299 0.0
C194 C 0.39158 0.512 0.12198 0.0
H195 H 0.30497 0.5965 0.14112 0.0
H196 H 0.35731 0.58714 0.13678 0.0
H197 H 0.36105 0.53996 0.11698 0.0
H198 H 0.39873 0.38192 0.12886 0.0
H199 H 0.38393 0.42547 0.14555 0.0
H200 H 0.41046 0.48529 0.16823 0.0
C201 C 0.33684 0.56955 0.14614 0.0
C202 C 0.37285 0.52943 0.12853 0.0
C203 C 0.30691 0.57488 0.14858 0.0
C204 C 0.41095 0.40965 0.12451 0.0
C205 C 0.40285 0.43464 0.13412 0.0
C206 C 0.40039 0.49782 0.15705 0.0
C207 C 0.33941 0.54083 0.155 0.0
C208 C 0.36651 0.53013 0.14928 0.0
C209 C 0.41733 0.47038 0.12813 0.0
C210 C 0.4042 0.49476 0.136 0.0
H211 H 0.2618 0.50579 0.17851 0.0
H212 H 0.31326 0.49619 0.17405 0.0
H213 H 0.37816 0.51634 0.17984 0.0
H214 H 0.46736 0.46473 0.09152 0.0
H215 H 0.45299 0.50854 0.1082 0.0
C216 C 0.76349 0.32027 0.50293 0.0
C217 C 0.7594 0.29638 0.51813 0.0
C218 C 0.79144 0.35701 0.50647 0.0
C219 C 0.885 0.40354 0.53179 0.0
H220 H 0.88795 0.48021 0.49977 0.0
C221 C 1.0093 0.48503 0.49069 0.0
C222 C 0.99721 0.48165 0.46944 0.0
C223 C 0.98465 0.47917 0.50499 0.0
C224 C 0.88775 0.45942 0.50909 0.0
H225 H 0.7781 0.2933 0.54995 0.0
H226 H 0.82768 0.35751 0.55595 0.0
H227 H 0.83 0.4366 0.51168 0.0
H228 H 0.95181 0.47227 0.44617 0.0
H229 H 0.90834 0.46092 0.47081 0.0
H230 H 0.94138 0.4237 0.52751 0.0
C231 C 0.80947 0.34766 0.54123 0.0
C232 C 0.85463 0.43457 0.51596 0.0
C233 C 0.78137 0.31086 0.53771 0.0
C234 C 0.96131 0.47461 0.46259 0.0
C235 C 0.93669 0.46872 0.47678 0.0
C236 C 0.91799 0.42823 0.52485 0.0
C237 C 0.816 0.37058 0.52526 0.0
C238 C 0.85228 0.40468 0.52593 0.0
C239 C 0.94769 0.46982 0.4981 0.0
C240 C 0.91881 0.45453 0.512 0.0
H241 H 0.74713 0.31005 0.48767 0.0
H242 H 0.7959 0.37372 0.49371 0.0
H243 H 0.88425 0.38093 0.5395 0.0
H244 H 1.0373 0.49103 0.49616 0.0
H245 H 0.99401 0.48045 0.52131 0.0
C246 C 0.59464 0.77783 0.8813 0.0
C247 C 0.62516 0.77551 0.87583 0.0
C248 C 0.59697 0.81203 0.88451 0.0
C249 C 0.66218 0.91338 0.88364 0.0
H250 H 0.57901 0.90505 0.84661 0.0
C251 C 0.67715 0.0316 0.83617 0.0
C252 C 0.66375 1.01919 0.81509 0.0
C253 C 0.66747 1.00633 0.85095 0.0
C254 C 0.60238 0.90797 0.85713 0.0
H255 H 0.68303 0.80743 0.87138 0.0
H256 H 0.68695 0.86623 0.87656 0.0
H257 H 0.57296 0.85162 0.86232 0.0
H258 H 0.62941 0.97189 0.79261 0.0
H259 H 0.61316 0.92771 0.81806 0.0
H260 H 0.69281 0.96884 0.87651 0.0
C261 C 0.66129 0.84211 0.87879 0.0
C262 C 0.59875 0.87737 0.86646 0.0
C263 C 0.65902 0.8081 0.87571 0.0
C264 C 0.64006 0.98178 0.80888 0.0
C265 C 0.63039 0.95663 0.82352 0.0
C266 C 0.66598 0.94389 0.87404 0.0
C267 C 0.62976 0.84446 0.88211 0.0
C268 C 0.62944 0.87905 0.8787 0.0
C269 C 0.64414 0.96849 0.84473 0.0
C270 C 0.63685 0.94071 0.85961 0.0
H271 H 0.56838 0.75317 0.88195 0.0
H272 H 0.5724 0.81287 0.88754 0.0
H273 H 0.686 0.91594 0.89354 0.0
H274 H 0.69525 0.06062 0.84116 0.0
H275 H 0.67845 1.01631 0.86716 0.0
C276 C 0.85531 0.56084 0.17503 0.0
C277 C 0.8767 0.59932 0.17687 0.0
C278 C 0.81715 0.54346 0.17543 0.0
C279 C 0.74092 0.56172 0.16184 0.0
H280 H 0.68306 0.45968 0.17187 0.0
C281 C 0.58741 0.46988 0.12615 0.0
C282 C 0.5844 0.44186 0.11221 0.0
C283 C 0.61877 0.48923 0.14119 0.0
C284 C 0.69879 0.48836 0.16933 0.0
H285 H 0.87562 0.64985 0.18237 0.0
H286 H 0.80875 0.61942 0.18363 0.0
H287 H 0.74803 0.49614 0.18772 0.0
H288 H 0.61014 0.4106 0.10344 0.0
H289 H 0.66466 0.44377 0.13015 0.0
H290 H 0.69172 0.55348 0.14307 0.0
C291 C 0.82134 0.60266 0.18131 0.0
C292 C 0.73602 0.5092 0.17823 0.0
C293 C 0.85961 0.62011 0.18065 0.0
C294 C 0.61205 0.4321 0.11412 0.0
C295 C 0.64294 0.45085 0.12944 0.0
C296 C 0.70351 0.54108 0.15331 0.0
C297 C 0.79939 0.5641 0.17785 0.0
C298 C 0.75812 0.54551 0.17361 0.0
C299 C 0.64697 0.48014 0.14275 0.0
C300 C 0.68275 0.50378 0.15614 0.0
H301 H 0.86758 0.54405 0.17182 0.0
H302 H 0.80136 0.51382 0.17232 0.0
H303 H 0.7569 0.58942 0.15774 0.0
H304 H 0.56635 0.47787 0.12477 0.0
H305 H 0.62151 0.5119 0.15121 0.0
C306 C 0.34292 0.86628 0.51051 0.0
C307 C 0.33571 0.8954 0.5093 0.0
C308 C 0.31614 0.83248 0.51566 0.0
C309 C 0.21519 0.77895 0.50825 0.0
H310 H 0.23778 0.70339 0.52353 0.0
C311 C 0.11822 0.6276 0.47697 0.0
C312 C 0.13719 0.61729 0.46405 0.0
C313 C 0.13799 0.65837 0.49169 0.0
C314 C 0.23079 0.72421 0.51964 0.0
H315 H 0.29652 0.91336 0.51474 0.0
H316 H 0.24979 0.8543 0.52426 0.0
H317 H 0.28251 0.76772 0.53556 0.0
H318 H 0.19117 0.62905 0.45698 0.0
H319 H 0.2259 0.68248 0.48296 0.0
H320 H 0.1642 0.73545 0.49161 0.0
C321 C 0.27583 0.85734 0.52069 0.0
C322 C 0.25642 0.76103 0.52637 0.0
C323 C 0.30268 0.89124 0.51538 0.0
C324 C 0.17611 0.63674 0.46677 0.0
C325 C 0.19587 0.66694 0.48175 0.0
C326 C 0.18931 0.74211 0.50187 0.0
C327 C 0.28154 0.82705 0.51988 0.0
C328 C 0.25006 0.78895 0.51947 0.0
C329 C 0.17696 0.67857 0.49395 0.0
C330 C 0.198 0.71474 0.5064 0.0
H331 H 0.36856 0.86903 0.50639 0.0
H332 H 0.32168 0.80995 0.51468 0.0
H333 H 0.20918 0.7995 0.50255 0.0
H334 H 0.08811 0.61288 0.47502 0.0
H335 H 0.1229 0.66709 0.50081 0.0
C336 C 0.46799 0.26459 0.81772 0.0
C337 C 0.49999 0.29876 0.8245 0.0
C338 C 0.46869 0.23202 0.81953 0.0
C339 C 0.49088 0.17694 0.8068 0.0
H340 H 0.55324 0.16195 0.84902 0.0
C341 C 0.59676 0.12098 0.80678 0.0
C342 C 0.57655 0.09117 0.79135 0.0
C343 C 0.579 0.13673 0.81658 0.0
C344 C 0.53551 0.1656 0.83716 0.0
H345 H 0.55677 0.32528 0.84016 0.0
H346 H 0.55847 0.26859 0.84259 0.0
H347 H 0.53689 0.20927 0.8561 0.0
H348 H 0.52149 0.0519 0.77562 0.0
H349 H 0.49019 0.07905 0.793 0.0
H350 H 0.49121 0.13518 0.78737 0.0
C351 C 0.53267 0.26688 0.83608 0.0
C352 C 0.52618 0.19268 0.84121 0.0
C353 C 0.53191 0.29946 0.83438 0.0
C354 C 0.53777 0.07533 0.78721 0.0
C355 C 0.51992 0.09088 0.79715 0.0
C356 C 0.50025 0.15004 0.80275 0.0
C357 C 0.50146 0.23289 0.82802 0.0
C358 C 0.50494 0.19955 0.82576 0.0
C359 C 0.54061 0.12282 0.81121 0.0
C360 C 0.52389 0.14502 0.81755 0.0
H361 H 0.44294 0.26298 0.80997 0.0
H362 H 0.44404 0.20623 0.81343 0.0
H363 H 0.47489 0.18176 0.79443 0.0
H364 H 0.62673 0.13388 0.81019 0.0
H365 H 0.59594 0.1615 0.82715 0.0
C366 C 0.52225 0.93929 0.48672 0.0
C367 C 0.55462 0.97345 0.48487 0.0
C368 C 0.52246 0.90521 0.48887 0.0
C369 C 0.58707 0.85977 0.49028 0.0
H370 H 0.49874 0.77315 0.50118 0.0
C371 C 0.58896 0.7168 0.50105 0.0
C372 C 0.5567 0.68278 0.50311 0.0
C373 C 0.58876 0.75092 0.49909 0.0
C374 C 0.5242 0.79644 0.49806 0.0
H375 H 0.61335 0.99486 0.48418 0.0
H376 H 0.61397 0.93752 0.48783 0.0
H377 H 0.49833 0.83016 0.49751 0.0
H378 H 0.49811 0.66129 0.50421 0.0
H379 H 0.49749 0.7188 0.501 0.0
H380 H 0.61295 0.82608 0.49083 0.0
C381 C 0.58751 0.93634 0.48752 0.0
C382 C 0.52396 0.83051 0.49586 0.0
C383 C 0.58726 0.97042 0.48538 0.0
C384 C 0.52414 0.6858 0.50299 0.0
C385 C 0.52389 0.71992 0.50103 0.0
C386 C 0.58732 0.82571 0.49248 0.0
C387 C 0.55512 0.90194 0.4894 0.0
C388 C 0.55538 0.86398 0.49185 0.0
C389 C 0.55618 0.75427 0.49891 0.0
C390 C 0.5559 0.79223 0.49649 0.0
H391 H 0.49601 0.93866 0.48655 0.0
H392 H 0.49617 0.88111 0.49005 0.0
H393 H 0.61253 0.88305 0.48714 0.0
H394 H 0.61501 0.7172 0.50075 0.0
H395 H 0.61496 0.77495 0.49766 0.0
C396 C 0.67403 0.51161 0.81266 0.0
C397 C 0.67068 0.54323 0.81709 0.0
C398 C 0.70923 0.51233 0.81511 0.0
C399 C 0.81681 0.57607 0.8359 0.0
H400 H 0.82469 0.49408 0.81353 0.0
C401 C 0.96214 0.57683 0.853 0.0
C402 C 0.97058 0.55211 0.84238 0.0
C403 C 0.92704 0.57567 0.84918 0.0
C404 C 0.82396 0.51777 0.81999 0.0
H405 H 0.70566 0.60101 0.82788 0.0
H406 H 0.76512 0.60254 0.83184 0.0
H407 H 0.7651 0.49232 0.80869 0.0
H408 H 0.94428 0.50592 0.81855 0.0
H409 H 0.88425 0.5042 0.81157 0.0
H410 H 0.87552 0.60184 0.84689 0.0
C411 C 0.74054 0.57634 0.82658 0.0
C412 C 0.78854 0.51662 0.81727 0.0
C413 C 0.70541 0.57557 0.82414 0.0
C414 C 0.94076 0.52629 0.82716 0.0
C415 C 0.90523 0.52501 0.82332 0.0
C416 C 0.8521 0.57721 0.83862 0.0
C417 C 0.74418 0.54475 0.82223 0.0
C418 C 0.78328 0.54575 0.82512 0.0
C419 C 0.89668 0.54953 0.83434 0.0
C420 C 0.85742 0.54811 0.83086 0.0
H421 H 0.64906 0.48567 0.80729 0.0
H422 H 0.70855 0.48669 0.8115 0.0
H423 H 0.81625 0.59964 0.84267 0.0
H424 H 0.98298 0.5974 0.86494 0.0
H425 H 0.92384 0.59538 0.8586 0.0
C426 C 0.18976 0.73513 0.1496 0.0
C427 C 0.18691 0.70123 0.15474 0.0
C428 C 0.22461 0.76966 0.15163 0.0
C429 C 0.33339 0.81751 0.17176 0.0
H430 H 0.33755 0.9027 0.14919 0.0
C431 C 0.47802 0.96421 0.18614 0.0
C432 C 0.48476 0.99597 0.17597 0.0
C433 C 0.44332 0.92977 0.18283 0.0
C434 C 0.33796 0.8797 0.15572 0.0
H435 H 0.22303 0.68089 0.16642 0.0
H436 H 0.28199 0.73903 0.16981 0.0
H437 H 0.27889 0.84457 0.14524 0.0
H438 H 0.45506 1.0124 0.15368 0.0
H439 H 0.39586 0.95343 0.14761 0.0
H440 H 0.39234 0.85229 0.18206 0.0
C441 C 0.25705 0.73959 0.16417 0.0
C442 C 0.30299 0.84513 0.1535 0.0
C443 C 0.22216 0.70504 0.1621 0.0
C444 C 0.45322 0.9898 0.16182 0.0
C445 C 0.41808 0.95505 0.15852 0.0
C446 C 0.36825 0.85201 0.17402 0.0
C447 C 0.26009 0.77372 0.15905 0.0
C448 C 0.29891 0.81223 0.16143 0.0
C449 C 0.41133 0.92339 0.16905 0.0
C450 C 0.37239 0.88495 0.16616 0.0
H451 H 0.16453 0.73521 0.14391 0.0
H452 H 0.22323 0.79354 0.14739 0.0
H453 H 0.33393 0.79474 0.17851 0.0
H454 H 0.50001 0.96612 0.19742 0.0
H455 H 0.44177 0.90821 0.19182 0.0
C456 C 0.52448 0.19439 0.47929 0.0
C457 C 0.55529 0.18991 0.48664 0.0
C458 C 0.52507 0.22911 0.48144 0.0
C459 C 0.58601 0.3334 0.50635 0.0
H460 H 0.50666 0.34395 0.47756 0.0
C461 C 0.58415 0.47603 0.52103 0.0
C462 C 0.56037 0.48565 0.50879 0.0
C463 C 0.58368 0.44169 0.51766 0.0
C464 C 0.5296 0.34251 0.48589 0.0
H465 H 0.61169 0.22288 0.5024 0.0
H466 H 0.61299 0.28166 0.506 0.0
H467 H 0.50575 0.28559 0.47341 0.0
H468 H 0.5165 0.46182 0.48253 0.0
H469 H 0.51591 0.40325 0.47641 0.0
H470 H 0.61012 0.39024 0.51864 0.0
C471 C 0.58744 0.25812 0.49851 0.0
C472 C 0.52896 0.30772 0.48355 0.0
C473 C 0.58683 0.22336 0.49633 0.0
C474 C 0.53618 0.45757 0.49247 0.0
C475 C 0.53556 0.42278 0.4891 0.0
C476 C 0.5866 0.36807 0.50872 0.0
C477 C 0.55656 0.26277 0.49119 0.0
C478 C 0.55715 0.30139 0.49368 0.0
C479 C 0.55915 0.41306 0.50169 0.0
C480 C 0.55842 0.37444 0.49866 0.0
H481 H 0.49915 0.17057 0.47172 0.0
H482 H 0.49996 0.22906 0.47541 0.0
H483 H 0.60882 0.33204 0.51488 0.0
H484 H 0.60348 0.49535 0.53392 0.0
H485 H 0.60265 0.43764 0.52829 0.0
C486 C 0.42136 0.51468 0.81898 0.0
C487 C 0.45636 0.54717 0.81906 0.0
C488 C 0.38747 0.51497 0.8213 0.0
C489 C 0.34361 0.57965 0.8249 0.0
H490 H 0.25737 0.49138 0.8363 0.0
C491 C 0.20201 0.58111 0.83818 0.0
C492 C 0.16725 0.54844 0.83811 0.0
C493 C 0.23619 0.58111 0.83618 0.0
C494 C 0.28054 0.51673 0.83295 0.0
H495 H 0.47987 0.60616 0.82199 0.0
H496 H 0.42258 0.60689 0.82604 0.0
H497 H 0.31447 0.49117 0.83245 0.0
H498 H 0.14408 0.48956 0.8353 0.0
H499 H 0.20178 0.48927 0.83192 0.0
H500 H 0.30965 0.60521 0.82542 0.0
C501 C 0.42066 0.58038 0.82397 0.0
C502 C 0.31454 0.5166 0.83065 0.0
C503 C 0.4546 0.58005 0.82166 0.0
C504 C 0.16934 0.51575 0.83582 0.0
C505 C 0.20348 0.5157 0.83383 0.0
C506 C 0.30959 0.57978 0.8272 0.0
C507 C 0.38544 0.54783 0.82392 0.0
C508 C 0.34775 0.54805 0.8265 0.0
C509 C 0.23856 0.54838 0.83382 0.0
C510 C 0.27637 0.54831 0.83133 0.0
H511 H 0.41991 0.48831 0.81707 0.0
H512 H 0.36249 0.48865 0.8208 0.0
H513 H 0.36681 0.60499 0.82156 0.0
H514 H 0.20295 0.60728 0.83963 0.0
H515 H 0.26103 0.60751 0.83655 0.0
C516 C 0.93679 0.4842 0.15889 0.0
C517 C 0.97046 0.4858 0.15469 0.0
C518 C 0.90301 0.45034 0.161 0.0
C519 C 0.85805 0.34102 0.15951 0.0
H520 H 0.77077 0.34358 0.17156 0.0
C521 C 0.71567 0.19797 0.16891 0.0
C522 C 0.68181 0.1963 0.17261 0.0
C523 C 0.74954 0.23188 0.16699 0.0
C524 C 0.79427 0.34114 0.16816 0.0
H525 H 0.99113 0.44842 0.14971 0.0
H526 H 0.93435 0.39129 0.15323 0.0
H527 H 0.82718 0.40017 0.16795 0.0
H528 H 0.66046 0.23329 0.17668 0.0
H529 H 0.71748 0.29065 0.1736 0.0
H530 H 0.82514 0.282 0.1597 0.0
C531 C 0.93336 0.41641 0.15495 0.0
C532 C 0.82804 0.375 0.16601 0.0
C533 C 0.96713 0.45029 0.15283 0.0
C534 C 0.68482 0.23165 0.17413 0.0
C535 C 0.71868 0.26561 0.17222 0.0
C536 C 0.82429 0.30716 0.16166 0.0
C537 C 0.89946 0.41459 0.15916 0.0
C538 C 0.86177 0.3768 0.16156 0.0
C539 C 0.75286 0.26755 0.16848 0.0
C540 C 0.79055 0.30536 0.16611 0.0
H541 H 0.93633 0.50965 0.16064 0.0
H542 H 0.8794 0.45276 0.16417 0.0
H543 H 0.88155 0.33857 0.15612 0.0
H544 H 0.71614 0.17251 0.16726 0.0
H545 H 0.77337 0.22957 0.16418 0.0
C546 C 0.10703 0.58486 0.07584 0.0
C547 C 0.07695 0.58354 0.08455 0.0
C548 C 0.10614 0.58136 0.05413 0.0
C549 C 0.04279 0.53977 0.0054 0.0
H550 H 0.11946 0.61417 0.97803 0.0
C551 C 1.0234 0.53567 0.91568 0.0
C552 C 0.05412 0.55302 0.9048 0.0
C553 C 1.02784 0.53867 0.93745 0.0
C554 C 0.09805 0.59256 0.98525 0.0
H555 H 1.02208 0.57688 0.077 0.0
H556 H 1.01999 0.56932 0.0393 0.0
H557 H 0.12445 0.62058 0.01586 0.0
H558 H 0.11426 0.586 0.9091 0.0
H559 H 0.12227 0.58927 0.9469 0.0
H560 H 1.01699 0.51065 0.97535 0.0
C561 C 0.04455 0.57373 0.04928 0.0
C562 C 0.10089 0.5965 0.00708 0.0
C563 C 0.04584 0.57821 0.07092 0.0
C564 C 0.08976 0.57212 0.91667 0.0
C565 C 0.09429 0.57452 0.93858 0.0
C566 C 0.04037 0.53532 0.98369 0.0
C567 C 0.07472 0.57539 0.04056 0.0
C568 C 0.07297 0.57045 0.01742 0.0
C569 C 0.06334 0.55825 0.94946 0.0
C570 C 0.06755 0.56196 0.97304 0.0
H571 H 0.1315 0.58902 0.0858 0.0
H572 H 0.12978 0.58264 0.04795 0.0
H573 H 1.02106 0.51889 0.01287 0.0
H574 H 0.99544 0.51975 0.9074 0.0
H575 H 1.00294 0.52607 0.94474 0.0
C576 C 0.59221 0.11687 0.4091 0.0
C577 C 0.56198 0.08757 0.41643 0.0
C578 C 0.59425 0.11844 0.38766 0.0
C579 C 0.53594 0.07329 0.33491 0.0
H580 H 0.6312 0.12493 0.31496 0.0
C581 C 0.55827 0.05079 0.2502 0.0
C582 C 0.56933 0.08148 0.23879 0.0
C583 C 0.5596 0.05431 0.27182 0.0
C584 C 0.60439 0.11062 0.32033 0.0
H585 H 0.51075 0.03632 0.40669 0.0
H586 H 0.51512 0.03771 0.36987 0.0
H587 H 0.62879 0.12443 0.3523 0.0
H588 H 0.59292 0.14063 0.2421 0.0
H589 H 0.59692 0.14684 0.28017 0.0
H590 H 0.51202 0.05789 0.30274 0.0
C591 C 0.53667 0.06068 0.38035 0.0
C592 C 0.60283 0.11042 0.34186 0.0
C593 C 0.53423 0.05961 0.4017 0.0
C594 C 0.58417 0.11629 0.25013 0.0
C595 C 0.58628 0.11988 0.27197 0.0
C596 C 0.53765 0.07279 0.31347 0.0
C597 C 0.56652 0.0903 0.37278 0.0
C598 C 0.56852 0.09154 0.34964 0.0
C599 C 0.57313 0.08875 0.28299 0.0
C600 C 0.57183 0.09135 0.30588 0.0
H601 H 0.61404 0.13906 0.41994 0.0
H602 H 0.61746 0.14216 0.38286 0.0
H603 H 0.50875 0.05931 0.33979 0.0
H604 H 0.54793 0.02361 0.24239 0.0
H605 H 0.5498 0.02988 0.27987 0.0
C606 C 0.58624 0.58948 0.74034 0.0
C607 C 0.56077 0.55676 0.74786 0.0
C608 C 0.58661 0.59205 0.71881 0.0
C609 C 0.55649 0.53298 0.66813 0.0
H610 H 0.57102 0.6204 0.64336 0.0
C611 C 0.53244 0.53076 0.57893 0.0
C612 C 0.55613 0.56177 0.56946 0.0
C613 C 0.53343 0.53212 0.60056 0.0
C614 C 0.56734 0.59586 0.64998 0.0
H615 H 0.51535 0.50126 0.73815 0.0
H616 H 0.51593 0.50578 0.70114 0.0
H617 H 0.57273 0.61936 0.681 0.0
H618 H 0.59883 0.61907 0.57571 0.0
H619 H 0.60083 0.62151 0.61353 0.0
H620 H 0.55141 0.50945 0.63737 0.0
C621 C 0.53605 0.52943 0.71177 0.0
C622 C 0.56832 0.59526 0.67167 0.0
C623 C 0.53556 0.52694 0.73316 0.0
C624 C 0.58002 0.59467 0.58237 0.0
C625 C 0.58115 0.59602 0.60414 0.0
C626 C 0.55564 0.5336 0.64655 0.0
C627 C 0.56171 0.56188 0.70416 0.0
C628 C 0.56245 0.56361 0.68109 0.0
C629 C 0.55828 0.56454 0.61365 0.0
C630 C 0.56057 0.56485 0.63699 0.0
H631 H 0.60612 0.61307 0.75107 0.0
H632 H 0.60697 0.61746 0.71366 0.0
H633 H 0.55274 0.50836 0.67469 0.0
H634 H 0.51311 0.5051 0.56955 0.0
H635 H 0.51453 0.50751 0.60701 0.0
C636 C 0.56781 0.04747 0.55311 0.0
C637 C 0.55014 0.06573 0.54438 0.0
C638 C 0.57069 0.04462 0.57438 0.0
C639 C 0.53653 0.05781 0.62293 0.0
H640 H 0.62958 0.06783 0.64856 0.0
C641 C 0.58886 0.09105 0.7113 0.0
C642 C 0.60157 0.06873 0.72031 0.0
C643 C 0.58019 0.08841 0.68979 0.0
C644 C 0.60334 0.06467 0.64157 0.0
H645 H 0.52071 0.09448 0.55082 0.0
H646 H 0.52705 0.09093 0.58826 0.0
H647 H 0.6184 0.06748 0.61114 0.0
H648 H 0.61471 0.02585 0.71357 0.0
H649 H 0.60087 0.02234 0.67593 0.0
H650 H 0.52245 0.05657 0.65376 0.0
C651 C 0.5379 0.07795 0.57863 0.0
C652 C 0.59675 0.06425 0.6201 0.0
C653 C 0.53438 0.08016 0.55721 0.0
C654 C 0.60564 0.04391 0.70721 0.0
C655 C 0.5975 0.0417 0.68566 0.0
C656 C 0.54342 0.05881 0.64449 0.0
C657 C 0.55669 0.06067 0.58753 0.0
C658 C 0.56321 0.06067 0.61045 0.0
C659 C 0.58462 0.06386 0.67678 0.0
C660 C 0.57686 0.06217 0.65397 0.0
H661 H 0.57968 0.03555 0.54349 0.0
H662 H 0.58431 0.03011 0.58051 0.0
H663 H 0.51019 0.05449 0.61606 0.0
H664 H 0.5861 0.11102 0.72084 0.0
H665 H 0.57082 0.10617 0.68327 0.0
C666 C 0.58647 0.50747 0.88178 0.0
C667 C 0.571 0.52885 0.87501 0.0
C668 C 0.58558 0.49805 0.90204 0.0
C669 C 0.56825 0.51885 0.95436 0.0
H670 H 0.54728 0.41935 0.96027 0.0
C671 C 0.56819 0.46649 0.03469 0.0
C672 C 0.54062 0.4303 0.03669 0.0
C673 C 0.5737 0.47906 0.01517 0.0
C674 C 0.5528 0.44709 0.95891 0.0
H675 H 0.5436 0.55828 0.88426 0.0
H676 H 0.54096 0.54089 0.9197 0.0
H677 H 0.55295 0.44122 0.92623 0.0
H678 H 0.49787 0.37875 0.01955 0.0
H679 H 0.50656 0.40104 0.98555 0.0
H680 H 0.56642 0.52408 0.98696 0.0
C681 C 0.55441 0.53193 0.90942 0.0
C682 C 0.55665 0.45989 0.9394 0.0
C683 C 0.5558 0.54183 0.88913 0.0
C684 C 0.51912 0.40685 0.01861 0.0
C685 C 0.52441 0.41955 -0.00092 0.0
C686 C 0.56406 0.50592 0.97389 0.0
C687 C 0.56863 0.50926 0.91597 0.0
C688 C 0.56458 0.49598 0.93687 0.0
C689 C 0.55155 0.45594 -0.00287 0.0
C690 C 0.55633 0.46987 0.9764 0.0
H691 H 0.59892 0.49755 0.8713 0.0
H692 H 0.59779 0.48152 0.90669 0.0
H693 H 0.57463 0.54686 0.95303 0.0
H694 H 0.58488 0.48559 0.04825 0.0
H695 H 0.59525 0.50705 0.01425 0.0
C696 C 0.0837 0.62858 0.22702 0.0
C697 C 0.08313 0.59978 0.21495 0.0
C698 C 0.0889 0.63061 0.24872 0.0
C699 C 0.12596 0.59837 0.2918 0.0
H700 H 0.05928 0.61264 0.32317 0.0
C701 C 0.13581 0.59772 0.38101 0.0
C702 C 0.10173 0.5757 0.38814 0.0
C703 C 0.13662 0.60605 0.36044 0.0
C704 C 0.07817 0.60873 0.3146 0.0
H705 H 0.08747 0.55054 0.21615 0.0
H706 H 0.09632 0.55406 0.25376 0.0
H707 H 0.05503 0.61703 0.28579 0.0
H708 H 0.04182 0.54613 0.37957 0.0
H709 H 0.04326 0.56012 0.34369 0.0
H710 H 0.1482 0.58874 0.32041 0.0
C711 C 0.09318 0.57527 0.24655 0.0
C712 C 0.07596 0.61159 0.29327 0.0
C713 C 0.08774 0.57309 0.22496 0.0
C714 C 0.06853 0.56266 0.37442 0.0
C715 C 0.06933 0.57114 0.35396 0.0
C716 C 0.12828 0.59569 0.31312 0.0
C717 C 0.09399 0.60409 0.25866 0.0
C718 C 0.09923 0.60554 0.28159 0.0
C719 C 0.10335 0.5928 0.34672 0.0
C720 C 0.10383 0.59999 0.32465 0.0
H721 H 0.08024 0.64956 0.21973 0.0
H722 H 0.08946 0.65315 0.25773 0.0
H723 H 0.14457 0.59405 0.2832 0.0
H724 H 0.16181 0.60813 0.39127 0.0
H725 H 0.16325 0.62296 0.35529 0.0
loop_
_geom_bond_atom_site_label_1
_geom_bond_atom_site_label_2
_geom_bond_distance
_geom_bond_site_symmetry_2
_ccdc_geom_bond_type
Tb0 C10 2.825 . S
Tb0 O11 2.347 . S
Tb0 O14 2.366 . S
Tb0 O19 2.418 . S
Tb0 O20 2.384 . S
Tb0 O23 2.479 . S
Tb0 O24 2.471 . S
Eu1 O12 2.418 . S
Eu1 O13 2.384 . S
Eu1 O16 2.479 1_455 S
Eu1 O17 2.471 1_455 S
Eu1 O18 2.347 . S
Eu1 O21 2.366 1_455 S
Eu1 C31 2.825 1_455 S
C2 O18 1.259 . S
C2 O19 1.265 . S
C3 O20 1.255 1_655 S
C3 O21 1.265 . S
C4 C6 1.380 . S
C4 C7 1.374 . S
C4 C10 1.507 . S
C5 C6 1.384 . S
C5 C9 1.387 . S
C5 H32 0.930 . S
C6 C4 1.380 . S
C6 C5 1.384 . S
C6 H33 0.931 . S
C7 C4 1.374 . S
C7 C8 1.390 . S
C7 H34 0.930 . S
C8 C7 1.390 . S
C8 C9 1.391 . S
C8 H35 0.930 . S
C9 C5 1.387 . S
C9 C8 1.391 . S
C10 Tb0 2.825 . S
C10 C4 1.507 . S
C10 O23 1.238 . S
C10 O24 1.247 . S
O11 Tb0 2.347 . S
O11 C15 1.259 . S
O12 Eu1 2.418 . S
O12 C15 1.265 . S
O13 Eu1 2.384 . S
O13 C22 1.255 . S
O14 Tb0 2.366 . S
O14 C22 1.265 . S
C15 O11 1.259 . S
C15 O12 1.265 . S
O16 Eu1 2.479 1_655 S
O16 C31 1.238 . S
O17 Eu1 2.471 1_655 S
O17 C31 1.247 . S
O18 Eu1 2.347 . S
O18 C2 1.259 . S
O19 Tb0 2.418 . S
O19 C2 1.265 . S
O20 Tb0 2.384 . S
O20 C3 1.255 1_455 S
O21 Eu1 2.366 1_655 S
O21 C3 1.265 . S
C22 O13 1.255 . S
C22 O14 1.265 . S
O23 Tb0 2.479 . S
O23 C10 1.238 . S
O24 Tb0 2.471 . S
O24 C10 1.247 . S
C25 C28 1.380 . S
C25 C29 1.374 . S
C25 C31 1.507 . S
C26 C27 1.387 . S
C26 C30 1.391 . S
C27 C26 1.387 . S
C27 C28 1.384 . S
C27 H36 0.930 . S
C28 C25 1.380 . S
C28 C27 1.384 . S
C28 H37 0.931 . S
C29 C25 1.374 . S
C29 C30 1.390 . S
C29 H38 0.930 . S
C30 C26 1.391 . S
C30 C29 1.390 . S
C30 H39 0.930 . S
C31 Eu1 2.825 1_655 S
C31 O16 1.238 . S
C31 O17 1.247 . S
C31 C25 1.507 . S
H32 C5 0.930 . S
H33 C6 0.931 . S
H34 C7 0.930 . S
H35 C8 0.930 . S
H36 C27 0.930 . S
H37 C28 0.931 . S
H38 C29 0.930 . S
H39 C30 0.930 . S
Tb40 C50 2.825 . S
Tb40 O51 2.347 . S
Tb40 O54 2.366 . S
Tb40 O59 2.418 . S
Tb40 O60 2.384 . S
Tb40 O63 2.479 . S
Tb40 O64 2.471 . S
Eu41 O52 2.418 . S
Eu41 O53 2.384 . S
Eu41 O56 2.479 1_545 S
Eu41 O57 2.471 1_545 S
Eu41 O58 2.347 . S
Eu41 O61 2.366 1_545 S
Eu41 C71 2.825 1_545 S
C42 O58 1.259 . S
C42 O59 1.265 . S
C43 O60 1.255 1_565 S
C43 O61 1.265 . S
C44 C46 1.380 . S
C44 C47 1.374 . S
C44 C50 1.507 . S
C45 C46 1.384 . S
C45 C49 1.387 . S
C45 H72 0.930 . S
C46 C44 1.380 . S
C46 C45 1.384 . S
C46 H73 0.931 . S
C47 C44 1.374 . S
C47 C48 1.390 . S
C47 H74 0.930 . S
C48 C47 1.390 . S
C48 C49 1.391 . S
C48 H75 0.930 . S
C49 C45 1.387 . S
C49 C48 1.391 . S
C50 Tb40 2.825 . S
C50 C44 1.507 . S
C50 O63 1.238 . S
C50 O64 1.247 . S
O51 Tb40 2.347 . S
O51 C55 1.259 . S
O52 Eu41 2.418 . S
O52 C55 1.265 . S
O53 Eu41 2.384 . S
O53 C62 1.255 . S
O54 Tb40 2.366 . S
O54 C62 1.265 . S
C55 O51 1.259 . S
C55 O52 1.265 . S
O56 Eu41 2.479 1_565 S
O56 C71 1.238 . S
O57 Eu41 2.471 1_565 S
O57 C71 1.247 . S
O58 Eu41 2.347 . S
O58 C42 1.259 . S
O59 Tb40 2.418 . S
O59 C42 1.265 . S
O60 Tb40 2.384 . S
O60 C43 1.255 1_545 S
O61 Eu41 2.366 1_565 S
O61 C43 1.265 . S
C62 O53 1.255 . S
C62 O54 1.265 . S
O63 Tb40 2.479 . S
O63 C50 1.238 . S
O64 Tb40 2.471 . S
O64 C50 1.247 . S
C65 C68 1.380 . S
C65 C69 1.374 . S
C65 C71 1.507 . S
C66 C67 1.387 . S
C66 C70 1.391 . S
C67 C66 1.387 . S
C67 C68 1.384 . S
C67 H76 0.930 . S
C68 C65 1.380 . S
C68 C67 1.384 . S
C68 H77 0.931 . S
C69 C65 1.374 . S
C69 C70 1.390 . S
C69 H78 0.930 . S
C70 C66 1.391 . S
C70 C69 1.390 . S
C70 H79 0.930 . S
C71 Eu41 2.825 1_565 S
C71 O56 1.238 . S
C71 O57 1.247 . S
C71 C65 1.507 . S
H72 C45 0.930 . S
H73 C46 0.931 . S
H74 C47 0.930 . S
H75 C48 0.930 . S
H76 C67 0.930 . S
H77 C68 0.931 . S
H78 C69 0.930 . S
H79 C70 0.930 . S
Tb80 C90 2.825 . S
Tb80 O91 2.347 . S
Tb80 O94 2.366 . S
Tb80 O99 2.418 . S
Tb80 O100 2.384 . S
Tb80 O103 2.479 . S
Tb80 O104 2.471 . S
Eu81 O92 2.418 . S
Eu81 O93 2.384 . S
Eu81 O96 2.479 . S
Eu81 O97 2.471 . S
Eu81 O98 2.347 . S
Eu81 O101 2.366 . S
Eu81 C111 2.825 . S
C82 O98 1.259 . S
C82 O99 1.265 . S
C83 O100 1.255 . S
C83 O101 1.265 . S
C84 C86 1.380 . S
C84 C87 1.374 . S
C84 C90 1.507 . S
C85 C86 1.384 . S
C85 C89 1.387 . S
C85 H112 0.930 . S
C86 C84 1.380 . S
C86 C85 1.384 . S
C86 H113 0.931 . S
C87 C84 1.374 . S
C87 C88 1.390 . S
C87 H114 0.930 . S
C88 C87 1.390 . S
C88 C89 1.391 . S
C88 H115 0.930 . S
C89 C85 1.387 . S
C89 C88 1.391 . S
C90 Tb80 2.825 . S
C90 C84 1.507 . S
C90 O103 1.238 . S
C90 O104 1.247 . S
O91 Tb80 2.347 . S
O91 C95 1.259 . S
O92 Eu81 2.418 . S
O92 C95 1.265 . S
O93 Eu81 2.384 . S
O93 C102 1.255 . S
O94 Tb80 2.366 . S
O94 C102 1.265 . S
C95 O91 1.259 . S
C95 O92 1.265 . S
O96 Eu81 2.479 . S
O96 C111 1.238 . S
O97 Eu81 2.471 . S
O97 C111 1.247 . S
O98 Eu81 2.347 . S
O98 C82 1.259 . S
O99 Tb80 2.418 . S
O99 C82 1.265 . S
O100 Tb80 2.384 . S
O100 C83 1.255 . S
O101 Eu81 2.366 . S
O101 C83 1.265 . S
C102 O93 1.255 . S
C102 O94 1.265 . S
O103 Tb80 2.479 . S
O103 C90 1.238 . S
O104 Tb80 2.471 . S
O104 C90 1.247 . S
C105 C108 1.380 . S
C105 C109 1.374 . S
C105 C111 1.507 . S
C106 C107 1.387 . S
C106 C110 1.391 . S
C107 C106 1.387 . S
C107 C108 1.384 . S
C107 H116 0.930 . S
C108 C105 1.380 . S
C108 C107 1.384 . S
C108 H117 0.931 . S
C109 C105 1.374 . S
C109 C110 1.390 . S
C109 H118 0.930 . S
C110 C106 1.391 . S
C110 C109 1.390 . S
C110 H119 0.930 . S
C111 Eu81 2.825 . S
C111 O96 1.238 . S
C111 O97 1.247 . S
C111 C105 1.507 . S
H112 C85 0.930 . S
H113 C86 0.931 . S
H114 C87 0.930 . S
H115 C88 0.930 . S
H116 C107 0.930 . S
H117 C108 0.931 . S
H118 C109 0.930 . S
H119 C110 0.930 . S
H120 C123 0.929 . S
H121 C126 0.929 . S
H122 C128 0.930 . S
C123 H120 0.929 . S
C123 C124 1.398 . S
C123 C125 1.396 . S
C124 C123 1.398 . S
C124 C128 1.407 . S
C125 C123 1.396 . S
C125 C126 1.394 . S
C126 H121 0.929 . S
C126 C125 1.394 . S
C126 C127 1.382 . S
C127 C126 1.382 . S
C127 C128 1.392 . S
C127 N129 1.420 . S
C128 H122 0.930 . S
C128 C124 1.407 . S
C128 C127 1.392 . S
N129 C127 1.420 . S
N129 C130 1.244 . S
C130 N129 1.244 . S
H131 C134 0.929 . S
H132 C137 0.929 . S
H133 C139 0.930 . S
C134 H131 0.929 . S
C134 C135 1.398 . S
C134 C136 1.396 . S
C135 C134 1.398 . S
C135 C139 1.407 . S
C136 C134 1.396 . S
C136 C137 1.394 . S
C137 H132 0.929 . S
C137 C136 1.394 . S
C137 C138 1.382 . S
C138 C137 1.382 . S
C138 C139 1.392 . S
C138 N140 1.420 . S
C139 H133 0.930 . S
C139 C135 1.407 . S
C139 C138 1.392 . S
N140 C138 1.420 . S
N140 C141 1.244 . S
C141 N140 1.244 . S
H142 C145 0.929 1_655 S
H143 C148 0.929 . S
H144 C150 0.930 . S
C145 H142 0.929 1_455 S
C145 C146 1.398 1_455 S
C145 C147 1.396 . S
C146 C145 1.398 1_655 S
C146 C150 1.407 1_655 S
C147 C145 1.396 . S
C147 C148 1.394 . S
C148 H143 0.929 . S
C148 C147 1.394 . S
C148 C149 1.382 . S
C149 C148 1.382 . S
C149 C150 1.392 . S
C149 N151 1.420 . S
C150 H144 0.930 . S
C150 C146 1.407 1_455 S
C150 C149 1.392 . S
N151 C149 1.420 . S
N151 C152 1.244 . S
C152 N151 1.244 . S
H153 C156 0.929 . S
H154 C159 0.929 1_655 S
H155 C161 0.930 . S
C156 H153 0.929 . S
C156 C157 1.398 . S
C156 C158 1.396 . S
C157 C156 1.398 . S
C157 C161 1.407 . S
C158 C156 1.396 . S
C158 C159 1.394 . S
C159 H154 0.929 1_455 S
C159 C158 1.394 . S
C159 C160 1.382 . S
C160 C159 1.382 . S
C160 C161 1.392 . S
C160 N162 1.420 1_455 S
C161 H155 0.930 . S
C161 C157 1.407 . S
C161 C160 1.392 . S
N162 C160 1.420 1_655 S
N162 C163 1.244 . S
C163 N162 1.244 . S
H164 C167 0.929 . S
H165 C170 0.929 1_565 S
H166 C172 0.930 . S
C167 H164 0.929 . S
C167 C168 1.398 . S
C167 C169 1.396 . S
C168 C167 1.398 . S
C168 C172 1.407 . S
C169 C167 1.396 . S
C169 C170 1.394 . S
C170 H165 0.929 1_545 S
C170 C169 1.394 . S
C170 C171 1.382 . S
C171 C170 1.382 . S
C171 C172 1.392 . S
C171 N173 1.420 1_545 S
C172 H166 0.930 . S
C172 C168 1.407 . S
C172 C171 1.392 . S
N173 C171 1.420 1_565 S
N173 C174 1.244 . S
C174 N173 1.244 . S
H175 C178 0.929 . S
H176 C181 0.929 . S
H177 C183 0.930 . S
C178 H175 0.929 . S
C178 C179 1.398 . S
C178 C180 1.396 . S
C179 C178 1.398 . S
C179 C183 1.407 . S
C180 C178 1.396 . S
C180 C181 1.394 . S
C181 H176 0.929 . S
C181 C180 1.394 . S
C181 C182 1.382 . S
C182 C181 1.382 . S
C182 C183 1.392 . S
C182 N184 1.420 . S
C183 H177 0.930 . S
C183 C179 1.407 . S
C183 C182 1.392 . S
N184 C182 1.420 . S
N184 C185 1.244 . S
C185 N184 1.244 . S
C186 C187 1.349 . S
C186 C188 1.327 . S
C186 H211 0.950 . S
C187 C186 1.349 . S
C187 C203 1.349 . S
C188 C186 1.327 . S
C188 C207 1.429 . S
C188 H212 0.950 . S
C189 C206 1.574 . S
C189 C208 1.368 . S
C189 H213 0.949 . S
H190 C194 0.949 . S
C191 C192 1.349 . S
C191 C193 1.327 . S
C191 H214 0.950 . S
C192 C191 1.349 . S
C192 C204 1.349 . S
C193 C191 1.327 . S
C193 C209 1.429 . S
C193 H215 0.950 . S
C194 H190 0.949 . S
C194 C202 1.574 . S
C194 C210 1.368 . S
H195 C203 0.950 . S
H196 C201 0.950 . S
H197 C202 0.949 . S
H198 C204 0.950 . S
H199 C205 0.950 . S
H200 C206 0.949 . S
C201 H196 0.950 . S
C201 C203 1.327 . S
C201 C207 1.429 . S
C202 C194 1.574 . S
C202 H197 0.949 . S
C202 C208 1.368 . S
C203 C187 1.349 . S
C203 H195 0.950 . S
C203 C201 1.327 . S
C204 C192 1.349 . S
C204 H198 0.950 . S
C204 C205 1.327 . S
C205 H199 0.950 . S
C205 C204 1.327 . S
C205 C209 1.429 . S
C206 C189 1.574 . S
C206 H200 0.949 . S
C206 C210 1.368 . S
C207 C188 1.429 . S
C207 C201 1.429 . S
C207 C208 1.523 . S
C208 C189 1.368 . S
C208 C202 1.368 . S
C208 C207 1.523 . S
C209 C193 1.429 . S
C209 C205 1.429 . S
C209 C210 1.523 . S
C210 C194 1.368 . S
C210 C206 1.368 . S
C210 C209 1.523 . S
H211 C186 0.950 . S
H212 C188 0.950 . S
H213 C189 0.949 . S
H214 C191 0.950 . S
H215 C193 0.950 . S
C216 C217 1.349 . S
C216 C218 1.327 . S
C216 H241 0.950 . S
C217 C216 1.349 . S
C217 C233 1.349 . S
C218 C216 1.327 . S
C218 C237 1.429 . S
C218 H242 0.950 . S
C219 C236 1.574 . S
C219 C238 1.368 . S
C219 H243 0.949 . S
H220 C224 0.949 . S
C221 C222 1.349 . S
C221 C223 1.327 . S
C221 H244 0.950 . S
C222 C221 1.349 . S
C222 C234 1.349 . S
C223 C221 1.327 . S
C223 C239 1.429 . S
C223 H245 0.950 . S
C224 H220 0.949 . S
C224 C232 1.574 . S
C224 C240 1.368 . S
H225 C233 0.950 . S
H226 C231 0.950 . S
H227 C232 0.949 . S
H228 C234 0.950 . S
H229 C235 0.950 . S
H230 C236 0.949 . S
C231 H226 0.950 . S
C231 C233 1.327 . S
C231 C237 1.429 . S
C232 C224 1.574 . S
C232 H227 0.949 . S
C232 C238 1.368 . S
C233 C217 1.349 . S
C233 H225 0.950 . S
C233 C231 1.327 . S
C234 C222 1.349 . S
C234 H228 0.950 . S
C234 C235 1.327 . S
C235 H229 0.950 . S
C235 C234 1.327 . S
C235 C239 1.429 . S
C236 C219 1.574 . S
C236 H230 0.949 . S
C236 C240 1.368 . S
C237 C218 1.429 . S
C237 C231 1.429 . S
C237 C238 1.523 . S
C238 C219 1.368 . S
C238 C232 1.368 . S
C238 C237 1.523 . S
C239 C223 1.429 . S
C239 C235 1.429 . S
C239 C240 1.523 . S
C240 C224 1.368 . S
C240 C236 1.368 . S
C240 C239 1.523 . S
H241 C216 0.950 . S
H242 C218 0.950 . S
H243 C219 0.949 . S
H244 C221 0.950 . S
H245 C223 0.950 . S
C246 C247 1.349 . S
C246 C248 1.327 . S
C246 H271 0.950 . S
C247 C246 1.349 . S
C247 C263 1.349 . S
C248 C246 1.327 . S
C248 C267 1.429 . S
C248 H272 0.950 . S
C249 C266 1.574 . S
C249 C268 1.368 . S
C249 H273 0.949 . S
H250 C254 0.949 . S
C251 C252 1.349 . S
C251 C253 1.327 . S
C251 H274 0.950 . S
C252 C251 1.349 . S
C252 C264 1.349 . S
C253 C251 1.327 . S
C253 C269 1.429 . S
C253 H275 0.950 . S
C254 H250 0.949 . S
C254 C262 1.574 . S
C254 C270 1.368 . S
H255 C263 0.950 . S
H256 C261 0.950 . S
H257 C262 0.949 . S
H258 C264 0.950 . S
H259 C265 0.950 . S
H260 C266 0.949 . S
C261 H256 0.950 . S
C261 C263 1.327 . S
C261 C267 1.429 . S
C262 C254 1.574 . S
C262 H257 0.949 . S
C262 C268 1.368 . S
C263 C247 1.349 . S
C263 H255 0.950 . S
C263 C261 1.327 . S
C264 C252 1.349 . S
C264 H258 0.950 . S
C264 C265 1.327 . S
C265 H259 0.950 . S
C265 C264 1.327 . S
C265 C269 1.429 . S
C266 C249 1.574 . S
C266 H260 0.949 . S
C266 C270 1.368 . S
C267 C248 1.429 . S
C267 C261 1.429 . S
C267 C268 1.523 . S
C268 C249 1.368 . S
C268 C262 1.368 . S
C268 C267 1.523 . S
C269 C253 1.429 . S
C269 C265 1.429 . S
C269 C270 1.523 . S
C270 C254 1.368 . S
C270 C266 1.368 . S
C270 C269 1.523 . S
H271 C246 0.950 . S
H272 C248 0.950 . S
H273 C249 0.949 . S
H274 C251 0.950 . S
H275 C253 0.950 . S
C276 C277 1.349 . S
C276 C278 1.327 . S
C276 H301 0.950 . S
C277 C276 1.349 . S
C277 C293 1.349 . S
C278 C276 1.327 . S
C278 C297 1.429 . S
C278 H302 0.950 . S
C279 C296 1.574 . S
C279 C298 1.368 . S
C279 H303 0.949 . S
H280 C284 0.949 . S
C281 C282 1.349 . S
C281 C283 1.327 . S
C281 H304 0.950 . S
C282 C281 1.349 . S
C282 C294 1.349 . S
C283 C281 1.327 . S
C283 C299 1.429 . S
C283 H305 0.950 . S
C284 H280 0.949 . S
C284 C292 1.574 . S
C284 C300 1.368 . S
H285 C293 0.950 . S
H286 C291 0.950 . S
H287 C292 0.949 . S
H288 C294 0.950 . S
H289 C295 0.950 . S
H290 C296 0.949 . S
C291 H286 0.950 . S
C291 C293 1.327 . S
C291 C297 1.429 . S
C292 C284 1.574 . S
C292 H287 0.949 . S
C292 C298 1.368 . S
C293 C277 1.349 . S
C293 H285 0.950 . S
C293 C291 1.327 . S
C294 C282 1.349 . S
C294 H288 0.950 . S
C294 C295 1.327 . S
C295 H289 0.950 . S
C295 C294 1.327 . S
C295 C299 1.429 . S
C296 C279 1.574 . S
C296 H290 0.949 . S
C296 C300 1.368 . S
C297 C278 1.429 . S
C297 C291 1.429 . S
C297 C298 1.523 . S
C298 C279 1.368 . S
C298 C292 1.368 . S
C298 C297 1.523 . S
C299 C283 1.429 . S
C299 C295 1.429 . S
C299 C300 1.523 . S
C300 C284 1.368 . S
C300 C296 1.368 . S
C300 C299 1.523 . S
H301 C276 0.950 . S
H302 C278 0.950 . S
H303 C279 0.949 . S
H304 C281 0.950 . S
H305 C283 0.950 . S
C306 C307 1.349 . S
C306 C308 1.327 . S
C306 H331 0.950 . S
C307 C306 1.349 . S
C307 C323 1.349 . S
C308 C306 1.327 . S
C308 C327 1.429 . S
C308 H332 0.950 . S
C309 C326 1.574 . S
C309 C328 1.368 . S
C309 H333 0.949 . S
H310 C314 0.949 . S
C311 C312 1.349 . S
C311 C313 1.327 . S
C311 H334 0.950 . S
C312 C311 1.349 . S
C312 C324 1.349 . S
C313 C311 1.327 . S
C313 C329 1.429 . S
C313 H335 0.950 . S
C314 H310 0.949 . S
C314 C322 1.574 . S
C314 C330 1.368 . S
H315 C323 0.950 . S
H316 C321 0.950 . S
H317 C322 0.949 . S
H318 C324 0.950 . S
H319 C325 0.950 . S
H320 C326 0.949 . S
C321 H316 0.950 . S
C321 C323 1.327 . S
C321 C327 1.429 . S
C322 C314 1.574 . S
C322 H317 0.949 . S
C322 C328 1.368 . S
C323 C307 1.349 . S
C323 H315 0.950 . S
C323 C321 1.327 . S
C324 C312 1.349 . S
C324 H318 0.950 . S
C324 C325 1.327 . S
C325 H319 0.950 . S
C325 C324 1.327 . S
C325 C329 1.429 . S
C326 C309 1.574 . S
C326 H320 0.949 . S
C326 C330 1.368 . S
C327 C308 1.429 . S
C327 C321 1.429 . S
C327 C328 1.523 . S
C328 C309 1.368 . S
C328 C322 1.368 . S
C328 C327 1.523 . S
C329 C313 1.429 . S
C329 C325 1.429 . S
C329 C330 1.523 . S
C330 C314 1.368 . S
C330 C326 1.368 . S
C330 C329 1.523 . S
H331 C306 0.950 . S
H332 C308 0.950 . S
H333 C309 0.949 . S
H334 C311 0.950 . S
H335 C313 0.950 . S
C336 C337 1.349 . S
C336 C338 1.327 . S
C336 H361 0.950 . S
C337 C336 1.349 . S
C337 C353 1.349 . S
C338 C336 1.327 . S
C338 C357 1.429 . S
C338 H362 0.950 . S
C339 C356 1.574 . S
C339 C358 1.368 . S
C339 H363 0.949 . S
H340 C344 0.949 . S
C341 C342 1.349 . S
C341 C343 1.327 . S
C341 H364 0.950 . S
C342 C341 1.349 . S
C342 C354 1.349 . S
C343 C341 1.327 . S
C343 C359 1.429 . S
C343 H365 0.950 . S
C344 H340 0.949 . S
C344 C352 1.574 . S
C344 C360 1.368 . S
H345 C353 0.950 . S
H346 C351 0.950 . S
H347 C352 0.949 . S
H348 C354 0.950 . S
H349 C355 0.950 . S
H350 C356 0.949 . S
C351 H346 0.950 . S
C351 C353 1.327 . S
C351 C357 1.429 . S
C352 C344 1.574 . S
C352 H347 0.949 . S
C352 C358 1.368 . S
C353 C337 1.349 . S
C353 H345 0.950 . S
C353 C351 1.327 . S
C354 C342 1.349 . S
C354 H348 0.950 . S
C354 C355 1.327 . S
C355 H349 0.950 . S
C355 C354 1.327 . S
C355 C359 1.429 . S
C356 C339 1.574 . S
C356 H350 0.949 . S
C356 C360 1.368 . S
C357 C338 1.429 . S
C357 C351 1.429 . S
C357 C358 1.523 . S
C358 C339 1.368 . S
C358 C352 1.368 . S
C358 C357 1.523 . S
C359 C343 1.429 . S
C359 C355 1.429 . S
C359 C360 1.523 . S
C360 C344 1.368 . S
C360 C356 1.368 . S
C360 C359 1.523 . S
H361 C336 0.950 . S
H362 C338 0.950 . S
H363 C339 0.949 . S
H364 C341 0.950 . S
H365 C343 0.950 . S
C366 C367 1.349 . S
C366 C368 1.327 . S
C366 H391 0.950 . S
C367 C366 1.349 . S
C367 C383 1.349 . S
C368 C366 1.327 . S
C368 C387 1.429 . S
C368 H392 0.950 . S
C369 C386 1.574 . S
C369 C388 1.368 . S
C369 H393 0.949 . S
H370 C374 0.949 . S
C371 C372 1.349 . S
C371 C373 1.327 . S
C371 H394 0.950 . S
C372 C371 1.349 . S
C372 C384 1.349 . S
C373 C371 1.327 . S
C373 C389 1.429 . S
C373 H395 0.950 . S
C374 H370 0.949 . S
C374 C382 1.574 . S
C374 C390 1.368 . S
H375 C383 0.950 . S
H376 C381 0.950 . S
H377 C382 0.949 . S
H378 C384 0.950 . S
H379 C385 0.950 . S
H380 C386 0.949 . S
C381 H376 0.950 . S
C381 C383 1.327 . S
C381 C387 1.429 . S
C382 C374 1.574 . S
C382 H377 0.949 . S
C382 C388 1.368 . S
C383 C367 1.349 . S
C383 H375 0.950 . S
C383 C381 1.327 . S
C384 C372 1.349 . S
C384 H378 0.950 . S
C384 C385 1.327 . S
C385 H379 0.950 . S
C385 C384 1.327 . S
C385 C389 1.429 . S
C386 C369 1.574 . S
C386 H380 0.949 . S
C386 C390 1.368 . S
C387 C368 1.429 . S
C387 C381 1.429 . S
C387 C388 1.523 . S
C388 C369 1.368 . S
C388 C382 1.368 . S
C388 C387 1.523 . S
C389 C373 1.429 . S
C389 C385 1.429 . S
C389 C390 1.523 . S
C390 C374 1.368 . S
C390 C386 1.368 . S
C390 C389 1.523 . S
H391 C366 0.950 . S
H392 C368 0.950 . S
H393 C369 0.949 . S
H394 C371 0.950 . S
H395 C373 0.950 . S
C396 C397 1.349 . S
C396 C398 1.327 . S
C396 H421 0.950 . S
C397 C396 1.349 . S
C397 C413 1.349 . S
C398 C396 1.327 . S
C398 C417 1.429 . S
C398 H422 0.950 . S
C399 C416 1.574 . S
C399 C418 1.368 . S
C399 H423 0.949 . S
H400 C404 0.949 . S
C401 C402 1.349 . S
C401 C403 1.327 . S
C401 H424 0.950 . S
C402 C401 1.349 . S
C402 C414 1.349 . S
C403 C401 1.327 . S
C403 C419 1.429 . S
C403 H425 0.950 . S
C404 H400 0.949 . S
C404 C412 1.574 . S
C404 C420 1.368 . S
H405 C413 0.950 . S
H406 C411 0.950 . S
H407 C412 0.949 . S
H408 C414 0.950 . S
H409 C415 0.950 . S
H410 C416 0.949 . S
C411 H406 0.950 . S
C411 C413 1.327 . S
C411 C417 1.429 . S
C412 C404 1.574 . S
C412 H407 0.949 . S
C412 C418 1.368 . S
C413 C397 1.349 . S
C413 H405 0.950 . S
C413 C411 1.327 . S
C414 C402 1.349 . S
C414 H408 0.950 . S
C414 C415 1.327 . S
C415 H409 0.950 . S
C415 C414 1.327 . S
C415 C419 1.429 . S
C416 C399 1.574 . S
C416 H410 0.949 . S
C416 C420 1.368 . S
C417 C398 1.429 . S
C417 C411 1.429 . S
C417 C418 1.523 . S
C418 C399 1.368 . S
C418 C412 1.368 . S
C418 C417 1.523 . S
C419 C403 1.429 . S
C419 C415 1.429 . S
C419 C420 1.523 . S
C420 C404 1.368 . S
C420 C416 1.368 . S
C420 C419 1.523 . S
H421 C396 0.950 . S
H422 C398 0.950 . S
H423 C399 0.949 . S
H424 C401 0.950 . S
H425 C403 0.950 . S
C426 C427 1.349 . S
C426 C428 1.327 . S
C426 H451 0.950 . S
C427 C426 1.349 . S
C427 C443 1.349 . S
C428 C426 1.327 . S
C428 C447 1.429 . S
C428 H452 0.950 . S
C429 C446 1.574 . S
C429 C448 1.368 . S
C429 H453 0.949 . S
H430 C434 0.949 . S
C431 C432 1.349 . S
C431 C433 1.327 . S
C431 H454 0.950 . S
C432 C431 1.349 . S
C432 C444 1.349 . S
C433 C431 1.327 . S
C433 C449 1.429 . S
C433 H455 0.950 . S
C434 H430 0.949 . S
C434 C442 1.574 . S
C434 C450 1.368 . S
H435 C443 0.950 . S
H436 C441 0.950 . S
H437 C442 0.949 . S
H438 C444 0.950 . S
H439 C445 0.950 . S
H440 C446 0.949 . S
C441 H436 0.950 . S
C441 C443 1.327 . S
C441 C447 1.429 . S
C442 C434 1.574 . S
C442 H437 0.949 . S
C442 C448 1.368 . S
C443 C427 1.349 . S
C443 H435 0.950 . S
C443 C441 1.327 . S
C444 C432 1.349 . S
C444 H438 0.950 . S
C444 C445 1.327 . S
C445 H439 0.950 . S
C445 C444 1.327 . S
C445 C449 1.429 . S
C446 C429 1.574 . S
C446 H440 0.949 . S
C446 C450 1.368 . S
C447 C428 1.429 . S
C447 C441 1.429 . S
C447 C448 1.523 . S
C448 C429 1.368 . S
C448 C442 1.368 . S
C448 C447 1.523 . S
C449 C433 1.429 . S
C449 C445 1.429 . S
C449 C450 1.523 . S
C450 C434 1.368 . S
C450 C446 1.368 . S
C450 C449 1.523 . S
H451 C426 0.950 . S
H452 C428 0.950 . S
H453 C429 0.949 . S
H454 C431 0.950 . S
H455 C433 0.950 . S
C456 C457 1.349 . S
C456 C458 1.327 . S
C456 H481 0.950 . S
C457 C456 1.349 . S
C457 C473 1.349 . S
C458 C456 1.327 . S
C458 C477 1.429 . S
C458 H482 0.950 . S
C459 C476 1.574 . S
C459 C478 1.368 . S
C459 H483 0.949 . S
H460 C464 0.949 . S
C461 C462 1.349 . S
C461 C463 1.327 . S
C461 H484 0.950 . S
C462 C461 1.349 . S
C462 C474 1.349 . S
C463 C461 1.327 . S
C463 C479 1.429 . S
C463 H485 0.950 . S
C464 H460 0.949 . S
C464 C472 1.574 . S
C464 C480 1.368 . S
H465 C473 0.950 . S
H466 C471 0.950 . S
H467 C472 0.949 . S
H468 C474 0.950 . S
H469 C475 0.950 . S
H470 C476 0.949 . S
C471 H466 0.950 . S
C471 C473 1.327 . S
C471 C477 1.429 . S
C472 C464 1.574 . S
C472 H467 0.949 . S
C472 C478 1.368 . S
C473 C457 1.349 . S
C473 H465 0.950 . S
C473 C471 1.327 . S
C474 C462 1.349 . S
C474 H468 0.950 . S
C474 C475 1.327 . S
C475 H469 0.950 . S
C475 C474 1.327 . S
C475 C479 1.429 . S
C476 C459 1.574 . S
C476 H470 0.949 . S
C476 C480 1.368 . S
C477 C458 1.429 . S
C477 C471 1.429 . S
C477 C478 1.523 . S
C478 C459 1.368 . S
C478 C472 1.368 . S
C478 C477 1.523 . S
C479 C463 1.429 . S
C479 C475 1.429 . S
C479 C480 1.523 . S
C480 C464 1.368 . S
C480 C476 1.368 . S
C480 C479 1.523 . S
H481 C456 0.950 . S
H482 C458 0.950 . S
H483 C459 0.949 . S
H484 C461 0.950 . S
H485 C463 0.950 . S
C486 C487 1.349 . S
C486 C488 1.327 . S
C486 H511 0.950 . S
C487 C486 1.349 . S
C487 C503 1.349 . S
C488 C486 1.327 . S
C488 C507 1.429 . S
C488 H512 0.950 . S
C489 C506 1.574 . S
C489 C508 1.368 . S
C489 H513 0.949 . S
H490 C494 0.949 . S
C491 C492 1.349 . S
C491 C493 1.327 . S
C491 H514 0.950 . S
C492 C491 1.349 . S
C492 C504 1.349 . S
C493 C491 1.327 . S
C493 C509 1.429 . S
C493 H515 0.950 . S
C494 H490 0.949 . S
C494 C502 1.574 . S
C494 C510 1.368 . S
H495 C503 0.950 . S
H496 C501 0.950 . S
H497 C502 0.949 . S
H498 C504 0.950 . S
H499 C505 0.950 . S
H500 C506 0.949 . S
C501 H496 0.950 . S
C501 C503 1.327 . S
C501 C507 1.429 . S
C502 C494 1.574 . S
C502 H497 0.949 . S
C502 C508 1.368 . S
C503 C487 1.349 . S
C503 H495 0.950 . S
C503 C501 1.327 . S
C504 C492 1.349 . S
C504 H498 0.950 . S
C504 C505 1.327 . S
C505 H499 0.950 . S
C505 C504 1.327 . S
C505 C509 1.429 . S
C506 C489 1.574 . S
C506 H500 0.949 . S
C506 C510 1.368 . S
C507 C488 1.429 . S
C507 C501 1.429 . S
C507 C508 1.523 . S
C508 C489 1.368 . S
C508 C502 1.368 . S
C508 C507 1.523 . S
C509 C493 1.429 . S
C509 C505 1.429 . S
C509 C510 1.523 . S
C510 C494 1.368 . S
C510 C506 1.368 . S
C510 C509 1.523 . S
H511 C486 0.950 . S
H512 C488 0.950 . S
H513 C489 0.949 . S
H514 C491 0.950 . S
H515 C493 0.950 . S
C516 C517 1.349 . S
C516 C518 1.327 . S
C516 H541 0.950 . S
C517 C516 1.349 . S
C517 C533 1.349 . S
C518 C516 1.327 . S
C518 C537 1.429 . S
C518 H542 0.950 . S
C519 C536 1.574 . S
C519 C538 1.368 . S
C519 H543 0.949 . S
H520 C524 0.949 . S
C521 C522 1.349 . S
C521 C523 1.327 . S
C521 H544 0.950 . S
C522 C521 1.349 . S
C522 C534 1.349 . S
C523 C521 1.327 . S
C523 C539 1.429 . S
C523 H545 0.950 . S
C524 H520 0.949 . S
C524 C532 1.574 . S
C524 C540 1.368 . S
H525 C533 0.950 . S
H526 C531 0.950 . S
H527 C532 0.949 . S
H528 C534 0.950 . S
H529 C535 0.950 . S
H530 C536 0.949 . S
C531 H526 0.950 . S
C531 C533 1.327 . S
C531 C537 1.429 . S
C532 C524 1.574 . S
C532 H527 0.949 . S
C532 C538 1.368 . S
C533 C517 1.349 . S
C533 H525 0.950 . S
C533 C531 1.327 . S
C534 C522 1.349 . S
C534 H528 0.950 . S
C534 C535 1.327 . S
C535 H529 0.950 . S
C535 C534 1.327 . S
C535 C539 1.429 . S
C536 C519 1.574 . S
C536 H530 0.949 . S
C536 C540 1.368 . S
C537 C518 1.429 . S
C537 C531 1.429 . S
C537 C538 1.523 . S
C538 C519 1.368 . S
C538 C532 1.368 . S
C538 C537 1.523 . S
C539 C523 1.429 . S
C539 C535 1.429 . S
C539 C540 1.523 . S
C540 C524 1.368 . S
C540 C536 1.368 . S
C540 C539 1.523 . S
H541 C516 0.950 . S
H542 C518 0.950 . S
H543 C519 0.949 . S
H544 C521 0.950 . S
H545 C523 0.950 . S
C546 C547 1.349 . S
C546 C548 1.327 . S
C546 H571 0.950 . S
C547 C546 1.349 . S
C547 C563 1.349 . S
C548 C546 1.327 . S
C548 C567 1.429 . S
C548 H572 0.950 . S
C549 C566 1.574 . S
C549 C568 1.368 . S
C549 H573 0.949 1_455 S
H550 C554 0.927 1_556 S
C551 C552 1.349 . S
C551 C553 1.327 . S
C551 H574 0.950 1_455 S
C552 C551 1.349 . S
C552 C564 1.349 . S
C553 C551 1.327 . S
C553 C569 1.429 . S
C553 H575 0.950 1_455 S
C554 H550 0.927 1_554 S
C554 C562 1.574 . S
C554 C570 1.368 1_554 S
H555 C563 0.950 1_655 S
H556 C561 0.950 1_655 S
H557 C562 0.949 . S
H558 C564 0.950 . S
H559 C565 0.950 . S
H560 C566 0.949 1_656 S
C561 H556 0.950 1_455 S
C561 C563 1.327 . S
C561 C567 1.429 . S
C562 C554 1.574 . S
C562 H557 0.949 . S
C562 C568 1.368 . S
C563 C547 1.349 . S
C563 H555 0.950 1_455 S
C563 C561 1.327 . S
C564 C552 1.349 . S
C564 H558 0.950 . S
C564 C565 1.327 . S
C565 H559 0.950 . S
C565 C564 1.327 . S
C565 C569 1.429 . S
C566 C549 1.574 . S
C566 H560 0.949 1_454 S
C566 C570 1.368 1_554 S
C567 C548 1.429 . S
C567 C561 1.429 . S
C567 C568 1.523 . S
C568 C549 1.368 . S
C568 C562 1.368 . S
C568 C567 1.523 . S
C569 C553 1.429 . S
C569 C565 1.429 . S
C569 C570 1.523 . S
C570 C554 1.368 1_556 S
C570 C566 1.368 1_556 S
C570 C569 1.523 . S
H571 C546 0.950 . S
H572 C548 0.950 . S
H573 C549 0.949 1_655 S
H574 C551 0.950 1_655 S
H575 C553 0.950 1_655 S
C576 C577 1.349 . S
C576 C578 1.327 . S
C576 H601 0.950 . S
C577 C576 1.349 . S
C577 C593 1.349 . S
C578 C576 1.327 . S
C578 C597 1.429 . S
C578 H602 0.950 . S
C579 C596 1.574 . S
C579 C598 1.368 . S
C579 H603 0.949 . S
H580 C584 0.949 . S
C581 C582 1.349 . S
C581 C583 1.327 . S
C581 H604 0.950 . S
C582 C581 1.349 . S
C582 C594 1.349 . S
C583 C581 1.327 . S
C583 C599 1.429 . S
C583 H605 0.950 . S
C584 H580 0.949 . S
C584 C592 1.574 . S
C584 C600 1.368 . S
H585 C593 0.950 . S
H586 C591 0.950 . S
H587 C592 0.949 . S
H588 C594 0.950 . S
H589 C595 0.950 . S
H590 C596 0.949 . S
C591 H586 0.950 . S
C591 C593 1.327 . S
C591 C597 1.429 . S
C592 C584 1.574 . S
C592 H587 0.949 . S
C592 C598 1.368 . S
C593 C577 1.349 . S
C593 H585 0.950 . S
C593 C591 1.327 . S
C594 C582 1.349 . S
C594 H588 0.950 . S
C594 C595 1.327 . S
C595 H589 0.950 . S
C595 C594 1.327 . S
C595 C599 1.429 . S
C596 C579 1.574 . S
C596 H590 0.949 . S
C596 C600 1.368 . S
C597 C578 1.429 . S
C597 C591 1.429 . S
C597 C598 1.523 . S
C598 C579 1.368 . S
C598 C592 1.368 . S
C598 C597 1.523 . S
C599 C583 1.429 . S
C599 C595 1.429 . S
C599 C600 1.523 . S
C600 C584 1.368 . S
C600 C596 1.368 . S
C600 C599 1.523 . S
H601 C576 0.950 . S
H602 C578 0.950 . S
H603 C579 0.949 . S
H604 C581 0.950 . S
H605 C583 0.950 . S
C606 C607 1.349 . S
C606 C608 1.327 . S
C606 H631 0.950 . S
C607 C606 1.349 . S
C607 C623 1.349 . S
C608 C606 1.327 . S
C608 C627 1.429 . S
C608 H632 0.950 . S
C609 C626 1.574 . S
C609 C628 1.368 . S
C609 H633 0.949 . S
H610 C614 0.949 . S
C611 C612 1.349 . S
C611 C613 1.327 . S
C611 H634 0.950 . S
C612 C611 1.349 . S
C612 C624 1.349 . S
C613 C611 1.327 . S
C613 C629 1.429 . S
C613 H635 0.950 . S
C614 H610 0.949 . S
C614 C622 1.574 . S
C614 C630 1.368 . S
H615 C623 0.950 . S
H616 C621 0.950 . S
H617 C622 0.949 . S
H618 C624 0.950 . S
H619 C625 0.950 . S
H620 C626 0.949 . S
C621 H616 0.950 . S
C621 C623 1.327 . S
C621 C627 1.429 . S
C622 C614 1.574 . S
C622 H617 0.949 . S
C622 C628 1.368 . S
C623 C607 1.349 . S
C623 H615 0.950 . S
C623 C621 1.327 . S
C624 C612 1.349 . S
C624 H618 0.950 . S
C624 C625 1.327 . S
C625 H619 0.950 . S
C625 C624 1.327 . S
C625 C629 1.429 . S
C626 C609 1.574 . S
C626 H620 0.949 . S
C626 C630 1.368 . S
C627 C608 1.429 . S
C627 C621 1.429 . S
C627 C628 1.523 . S
C628 C609 1.368 . S
C628 C622 1.368 . S
C628 C627 1.523 . S
C629 C613 1.429 . S
C629 C625 1.429 . S
C629 C630 1.523 . S
C630 C614 1.368 . S
C630 C626 1.368 . S
C630 C629 1.523 . S
H631 C606 0.950 . S
H632 C608 0.950 . S
H633 C609 0.949 . S
H634 C611 0.950 . S
H635 C613 0.950 . S
C636 C637 1.349 . S
C636 C638 1.327 . S
C636 H661 0.950 . S
C637 C636 1.349 . S
C637 C653 1.349 . S
C638 C636 1.327 . S
C638 C657 1.429 . S
C638 H662 0.950 . S
C639 C656 1.574 . S
C639 C658 1.368 . S
C639 H663 0.949 . S
H640 C644 0.949 1_565 S
C641 C642 1.349 . S
C641 C643 1.327 . S
C641 H664 0.950 . S
C642 C641 1.349 . S
C642 C654 1.349 . S
C643 C641 1.327 . S
C643 C659 1.429 . S
C643 H665 0.950 . S
C644 H640 0.949 1_545 S
C644 C652 1.574 . S
C644 C660 1.368 . S
H645 C653 0.950 . S
H646 C651 0.950 . S
H647 C652 0.949 . S
H648 C654 0.950 1_565 S
H649 C655 0.950 1_565 S
H650 C656 0.949 . S
C651 H646 0.950 . S
C651 C653 1.327 . S
C651 C657 1.429 . S
C652 C644 1.574 . S
C652 H647 0.949 . S
C652 C658 1.368 . S
C653 C637 1.349 . S
C653 H645 0.950 . S
C653 C651 1.327 . S
C654 C642 1.349 . S
C654 H648 0.950 1_545 S
C654 C655 1.327 . S
C655 H649 0.950 1_545 S
C655 C654 1.327 . S
C655 C659 1.429 . S
C656 C639 1.574 . S
C656 H650 0.949 . S
C656 C660 1.368 . S
C657 C638 1.429 . S
C657 C651 1.429 . S
C657 C658 1.523 . S
C658 C639 1.368 . S
C658 C652 1.368 . S
C658 C657 1.523 . S
C659 C643 1.429 . S
C659 C655 1.429 . S
C659 C660 1.523 . S
C660 C644 1.368 . S
C660 C656 1.368 . S
C660 C659 1.523 . S
H661 C636 0.950 . S
H662 C638 0.950 . S
H663 C639 0.949 . S
H664 C641 0.950 . S
H665 C643 0.950 . S
C666 C667 1.349 . S
C666 C668 1.327 . S
C666 H691 0.950 . S
C667 C666 1.349 . S
C667 C683 1.349 . S
C668 C666 1.327 . S
C668 C687 1.429 . S
C668 H692 0.950 . S
C669 C686 1.574 . S
C669 C688 1.368 . S
C669 H693 0.949 . S
H670 C674 0.949 1_554 S
C671 C672 1.349 . S
C671 C673 1.327 . S
C671 H694 0.950 . S
C672 C671 1.349 . S
C672 C684 1.349 . S
C673 C671 1.327 . S
C673 C689 1.429 . S
C673 H695 0.950 . S
C674 H670 0.949 1_556 S
C674 C682 1.574 . S
C674 C690 1.368 1_556 S
H675 C683 0.950 . S
H676 C681 0.950 . S
H677 C682 0.949 . S
H678 C684 0.950 . S
H679 C685 0.950 . S
H680 C686 0.949 1_554 S
C681 H676 0.950 . S
C681 C683 1.327 . S
C681 C687 1.429 . S
C682 C674 1.574 . S
C682 H677 0.949 . S
C682 C688 1.368 . S
C683 C667 1.349 . S
C683 H675 0.950 . S
C683 C681 1.327 . S
C684 C672 1.349 . S
C684 H678 0.950 . S
C684 C685 1.327 . S
C685 H679 0.950 . S
C685 C684 1.327 . S
C685 C689 1.429 . S
C686 C669 1.574 . S
C686 H680 0.949 1_556 S
C686 C690 1.368 1_556 S
C687 C668 1.429 . S
C687 C681 1.429 . S
C687 C688 1.523 . S
C688 C669 1.368 . S
C688 C682 1.368 . S
C688 C687 1.523 . S
C689 C673 1.429 . S
C689 C685 1.429 . S
C689 C690 1.523 . S
C690 C674 1.368 1_554 S
C690 C686 1.368 1_554 S
C690 C689 1.523 . S
H691 C666 0.950 . S
H692 C668 0.950 . S
H693 C669 0.949 . S
H694 C671 0.950 . S
H695 C673 0.950 . S
C696 C697 1.349 . S
C696 C698 1.327 . S
C696 H721 0.950 . S
C697 C696 1.349 . S
C697 C713 1.349 . S
C698 C696 1.327 . S
C698 C717 1.429 . S
C698 H722 0.950 . S
C699 C716 1.574 . S
C699 C718 1.368 . S
C699 H723 0.949 . S
H700 C704 0.949 . S
C701 C702 1.349 . S
C701 C703 1.327 . S
C701 H724 0.950 . S
C702 C701 1.349 . S
C702 C714 1.349 . S
C703 C701 1.327 . S
C703 C719 1.429 . S
C703 H725 0.950 . S
C704 H700 0.949 . S
C704 C712 1.574 . S
C704 C720 1.368 . S
H705 C713 0.950 . S
H706 C711 0.950 . S
H707 C712 0.949 . S
H708 C714 0.950 . S
H709 C715 0.950 . S
H710 C716 0.949 . S
C711 H706 0.950 . S
C711 C713 1.327 . S
C711 C717 1.429 . S
C712 C704 1.574 . S
C712 H707 0.949 . S
C712 C718 1.368 . S
C713 C697 1.349 . S
C713 H705 0.950 . S
C713 C711 1.327 . S
C714 C702 1.349 . S
C714 H708 0.950 . S
C714 C715 1.327 . S
C715 H709 0.950 . S
C715 C714 1.327 . S
C715 C719 1.429 . S
C716 C699 1.574 . S
C716 H710 0.949 . S
C716 C720 1.368 . S
C717 C698 1.429 . S
C717 C711 1.429 . S
C717 C718 1.523 . S
C718 C699 1.368 . S
C718 C712 1.368 . S
C718 C717 1.523 . S
C719 C703 1.429 . S
C719 C715 1.429 . S
C719 C720 1.523 . S
C720 C704 1.368 . S
C720 C716 1.368 . S
C720 C719 1.523 . S
H721 C696 0.950 . S
H722 C698 0.950 . S
H723 C699 0.949 . S
H724 C701 0.950 . S
H725 C703 0.950 . S
C187 C9 0.524 . S
C192 C185 0.519 . S
C217 C49 0.349 . S
C222 C163 0.353 . S
C247 C89 0.285 . S
C252 C174 0.326 . S
C277 C26 0.261 . S
C282 C179 0.206 . S
C312 C157 0.212 . S
C307 C66 0.277 . S
C342 C168 0.230 . S
C337 C106 0.330 . S
C367 C43 3.008 . S
C372 C141 2.951 . S
C397 C83 2.959 . S
C402 C146 2.912 . S
C427 C22 3.006 . S
C432 C124 2.954 1_565 S
C462 C135 2.950 . S
C457 C62 2.999 . S
C492 C152 2.971 . S
C487 C102 3.033 . S
C517 C3 3.001 . S
C522 C130 2.948 . S
C552 C147 1.717 . S
C547 C15 1.692 . S
C577 C55 1.726 . S
C582 C125 1.741 . S
C607 C95 1.713 . S
C612 C136 1.736 . S
C642 C169 1.266 . S
C637 C42 1.238 . S
C672 C180 1.270 . S
C667 C82 1.248 . S
C697 C2 1.218 . S
C702 C158 1.243 . S
