# Generated by pormake.
# Topology zzz, (3,6)-cn, num edge types: 1
# Building blocks:
#     Node 0, Type 0, BuildingBlock: BETDAH_clean_linker_0, # of connection points: 3
#     Node 1, Type 0, BuildingBlock: BETDAH_clean_linker_0, # of connection points: 3
#     Node 2, Type 0, BuildingBlock: BETDAH_clean_linker_0, # of connection points: 3
#     Node 3, Type 0, BuildingBlock: BETDAH_clean_linker_0, # of connection points: 3
#     Node 4, Type 0, BuildingBlock: BETDAH_clean_linker_0, # of connection points: 3
#     Node 5, Type 0, BuildingBlock: BETDAH_clean_linker_0, # of connection points: 3
#     Node 6, Type 0, BuildingBlock: BETDAH_clean_linker_0, # of connection points: 3
#     Node 7, Type 0, BuildingBlock: BETDAH_clean_linker_0, # of connection points: 3
#     Node 8, Type 1, BuildingBlock: VOLQOD_clean_sbu_1, # of connection points: 6
#     Node 9, Type 1, BuildingBlock: VOLQOD_clean_sbu_1, # of connection points: 6
#     Node 10, Type 1, BuildingBlock: VOLQOD_clean_sbu_1, # of connection points: 6
#     Node 11, Type 1, BuildingBlock: VOLQOD_clean_sbu_1, # of connection points: 6
#     Edge 12, Type (0, 1), BuildingBlock: XUDNAN_clean_linker_2, # of connection points: 2
#     Edge 13, Type (0, 1), BuildingBlock: XUDNAN_clean_linker_2, # of connection points: 2
#     Edge 14, Type (0, 1), BuildingBlock: XUDNAN_clean_linker_2, # of connection points: 2
#     Edge 15, Type (0, 1), BuildingBlock: XUDNAN_clean_linker_2, # of connection points: 2
#     Edge 16, Type (0, 1), BuildingBlock: XUDNAN_clean_linker_2, # of connection points: 2
#     Edge 17, Type (0, 1), BuildingBlock: XUDNAN_clean_linker_2, # of connection points: 2
#     Edge 18, Type (0, 1), BuildingBlock: XUDNAN_clean_linker_2, # of connection points: 2
#     Edge 19, Type (0, 1), BuildingBlock: XUDNAN_clean_linker_2, # of connection points: 2
#     Edge 20, Type (0, 1), BuildingBlock: XUDNAN_clean_linker_2, # of connection points: 2
#     Edge 21, Type (0, 1), BuildingBlock: XUDNAN_clean_linker_2, # of connection points: 2
#     Edge 22, Type (0, 1), BuildingBlock: XUDNAN_clean_linker_2, # of connection points: 2
#     Edge 23, Type (0, 1), BuildingBlock: XUDNAN_clean_linker_2, # of connection points: 2
#     Edge 24, Type (0, 1), BuildingBlock: XUDNAN_clean_linker_2, # of connection points: 2
#     Edge 25, Type (0, 1), BuildingBlock: XUDNAN_clean_linker_2, # of connection points: 2
#     Edge 26, Type (0, 1), BuildingBlock: XUDNAN_clean_linker_2, # of connection points: 2
#     Edge 27, Type (0, 1), BuildingBlock: XUDNAN_clean_linker_2, # of connection points: 2
#     Edge 28, Type (0, 1), BuildingBlock: XUDNAN_clean_linker_2, # of connection points: 2
#     Edge 29, Type (0, 1), BuildingBlock: XUDNAN_clean_linker_2, # of connection points: 2
#     Edge 30, Type (0, 1), BuildingBlock: XUDNAN_clean_linker_2, # of connection points: 2
#     Edge 31, Type (0, 1), BuildingBlock: XUDNAN_clean_linker_2, # of connection points: 2
#     Edge 32, Type (0, 1), BuildingBlock: XUDNAN_clean_linker_2, # of connection points: 2
#     Edge 33, Type (0, 1), BuildingBlock: XUDNAN_clean_linker_2, # of connection points: 2
#     Edge 34, Type (0, 1), BuildingBlock: XUDNAN_clean_linker_2, # of connection points: 2
#     Edge 35, Type (0, 1), BuildingBlock: XUDNAN_clean_linker_2, # of connection points: 2
# Relax obj value: 0.197
# Max RMSD: 0.236
# Mean RMSD: 0.111
data_MOF--net-zzz--node1-VOLQOD_clean_sbu_1--node2-BETDAH_clean_linker_0--edge1-XUDNAN_clean_linker_2
_symmetry_space_group_name_H-M    P1
_symmetry_Int_Tables_number       1
_symmetry_cell_setting            triclinic
loop_
_symmetry_equiv_pos_as_xyz
'x, y, z'
_cell_length_a     51.211147
_cell_length_b     50.953539
_cell_length_c     17.485798
_cell_angle_alpha  90.058242
_cell_angle_beta   90.039077
_cell_angle_gamma 90.808372
loop_
_atom_site_label
_atom_site_type_symbol
_atom_site_fract_x
_atom_site_fract_y
_atom_site_fract_z
_atom_type_partial_charge
H0 H 0.84283 0.52147 0.15439 0.0
H1 H 0.76611 0.50075 0.0712 0.0
H2 H 0.77528 0.54841 0.27366 0.0
C3 C 0.82174 0.52229 0.15895 0.0
C4 C 0.81098 0.53637 0.2194 0.0
C5 C 0.80587 0.5085 0.1067 0.0
C6 C 0.7786 0.51103 0.11161 0.0
C7 C 0.76745 0.52597 0.17097 0.0
C8 C 0.78377 0.53782 0.22621 0.0
N9 N 0.73998 0.52884 0.1777 0.0
C10 C 0.72266 0.52541 0.11698 0.0
H11 H 0.01984 0.82632 0.12117 0.0
H12 H 0.03388 0.74731 0.04928 0.0
H13 H 0.00675 0.76262 0.27838 0.0
C14 C 0.02019 0.80555 0.13469 0.0
C15 C 0.01248 0.79685 0.20717 0.0
C16 C 0.02826 0.78796 0.07841 0.0
C17 C 0.02774 0.76094 0.0931 0.0
C18 C 0.01966 0.75178 0.16554 0.0
C19 C 0.01247 0.7698 0.22246 0.0
N20 N 0.0191 0.72469 0.18367 0.0
C21 C 0.01365 0.70502 0.13071 0.0
H22 H 0.67434 0.02379 0.14895 0.0
H23 H 0.74853 0.04042 0.04453 0.0
H24 H 0.74466 0.01255 0.27734 0.0
C25 C 0.69541 0.0256 0.15338 0.0
C26 C 0.70758 0.01812 0.22138 0.0
C27 C 0.70976 0.03439 0.09012 0.0
C28 C 0.73718 0.03411 0.0936 0.0
C29 C 0.74985 0.02607 0.16127 0.0
C30 C 0.73493 0.01847 0.22521 0.0
N31 N 0.77748 0.02549 0.16694 0.0
C32 C 0.79385 0.02247 0.10425 0.0
H33 H 0.47043 0.67153 0.13552 0.0
H34 H 0.49516 0.74446 0.03689 0.0
H35 H 0.51221 0.72782 0.27403 0.0
C36 C 0.4792 0.69089 0.14269 0.0
C37 C 0.49042 0.69783 0.21294 0.0
C38 C 0.4808 0.70753 0.07955 0.0
C39 C 0.49346 0.73192 0.08667 0.0
C40 C 0.5044 0.73964 0.15761 0.0
C41 C 0.50334 0.72221 0.22004 0.0
N42 N 0.51671 0.76459 0.16729 0.0
C43 C 0.51299 0.7851 0.11624 0.0
H44 H 0.16929 0.50555 0.24639 0.0
H45 H 0.24807 0.51939 0.32191 0.0
H46 H 0.23325 0.48504 0.1005 0.0
C47 C 0.19007 0.5054 0.23467 0.0
C48 C 0.19888 0.49475 0.16575 0.0
C49 C 0.20745 0.51519 0.29007 0.0
C50 C 0.23444 0.5124 0.2788 0.0
C51 C 0.24373 0.50126 0.21033 0.0
C52 C 0.22592 0.49303 0.15363 0.0
N53 N 0.27081 0.49873 0.1955 0.0
C54 C 0.28964 0.49466 0.25149 0.0
H55 H 0.05938 0.16716 0.18383 0.0
H56 H 0.04712 0.24243 0.28781 0.0
H57 H 0.07808 0.23699 0.05843 0.0
C58 C 0.06112 0.18841 0.18232 0.0
C59 C 0.07035 0.20029 0.11575 0.0
C60 C 0.05283 0.20331 0.24486 0.0
C61 C 0.05364 0.23083 0.23974 0.0
C62 C 0.06312 0.24314 0.17255 0.0
C63 C 0.07136 0.22768 0.11067 0.0
N64 N 0.06431 0.27088 0.16488 0.0
C65 C 0.05366 0.28814 0.21753 0.0
H66 H 0.33704 0.03703 0.14974 0.0
H67 H 0.26724 0.03196 0.28355 0.0
H68 H 0.26561 0.06694 0.05854 0.0
C69 C 0.31655 0.04155 0.15686 0.0
C70 C 0.30331 0.05399 0.09759 0.0
C71 C 0.30396 0.0342 0.22456 0.0
C72 C 0.277 0.0379 0.23143 0.0
C73 C 0.26298 0.0497 0.1712 0.0
C74 C 0.27631 0.05779 0.10462 0.0
N75 N 0.23563 0.05384 0.17573 0.0
C76 C 0.22004 0.0457 0.23663 0.0
H77 H 0.49535 0.33873 0.21454 0.0
H78 H 0.50078 0.26145 0.30967 0.0
H79 H 0.44743 0.27606 0.12506 0.0
C80 C 0.48926 0.31837 0.21516 0.0
C81 C 0.47028 0.30975 0.1625 0.0
C82 C 0.50032 0.30133 0.26902 0.0
C83 C 0.49219 0.27487 0.26924 0.0
C84 C 0.47304 0.26577 0.21725 0.0
C85 C 0.4623 0.28324 0.16421 0.0
N86 N 0.46399 0.23927 0.21715 0.0
C87 C 0.47109 0.22087 0.27175 0.0
O88 O 0.07342 0.99855 0.64829 0.0
Zn89 Zn 0.04329 0.99598 0.72324 0.0
O90 O 0.00926 0.9997 0.67088 0.0
Zn91 Zn 0.99116 0.03097 0.70618 0.0
Zn92 Zn 0.01517 1.00168 0.561 0.0
Zn93 Zn 0.98654 0.96977 0.69157 0.0
O94 O 0.95627 0.02288 0.7564 0.0
O95 O 0.95309 0.97962 0.74389 0.0
O96 O 0.04953 0.02628 0.79716 0.0
O97 O 0.01394 0.05009 0.7807 0.0
O98 O 0.98663 0.05694 0.62073 0.0
O99 O 0.00287 0.03602 0.52021 0.0
O100 O 0.99988 0.97034 0.50529 0.0
O101 O 0.04548 0.96033 0.77536 0.0
O102 O 0.97794 0.94948 0.59669 0.0
O103 O 0.00556 0.94403 0.75552 0.0
C104 C 0.07423 1.00137 0.57597 0.0
C105 C 0.94379 1.00134 0.76639 0.0
C106 C 0.99286 0.05629 0.55035 0.0
C107 C 0.03622 0.04672 0.81113 0.0
C108 C 0.98544 0.95128 0.52761 0.0
C109 C 0.02851 0.9419 0.78247 0.0
O110 O 0.05338 0.00252 0.53674 0.0
O111 O 0.50422 0.06271 0.65566 0.0
Zn112 Zn 0.50455 0.03109 0.72601 0.0
O113 O 0.50288 0.99824 0.66459 0.0
Zn114 Zn 0.47132 0.9785 0.68589 0.0
Zn115 Zn 0.50377 0.00659 0.55679 0.0
Zn116 Zn 0.53179 0.97531 0.68736 0.0
O117 O 0.47787 0.94571 0.74594 0.0
O118 O 0.52106 0.94302 0.74815 0.0
O119 O 0.47102 0.03558 0.78952 0.0
O120 O 0.44799 1.00157 0.74453 0.0
O121 O 0.45042 0.97001 0.59204 0.0
O122 O 0.47214 0.99232 0.50317 0.0
O123 O 0.53693 0.99404 0.51005 0.0
O124 O 0.53951 0.03385 0.78398 0.0
O125 O 0.55296 0.96592 0.59415 0.0
O126 O 0.5573 0.99631 0.74686 0.0
C127 C 0.50302 0.06529 0.5833 0.0
C128 C 0.49855 0.93405 0.76642 0.0
C129 C 0.45256 0.97841 0.52391 0.0
C130 C 0.44948 0.02276 0.78274 0.0
C131 C 0.55415 0.9776 0.52987 0.0
C132 C 0.5589 0.01834 0.78078 0.0
O133 O 0.50265 0.04538 0.53944 0.0
O134 O 0.44506 0.49829 0.63138 0.0
Zn135 Zn 0.47218 0.50235 0.71586 0.0
O136 O 0.50772 0.49757 0.67675 0.0
Zn137 Zn 0.52659 0.47159 0.73506 0.0
Zn138 Zn 0.50474 0.48675 0.57098 0.0
Zn139 Zn 0.52783 0.53 0.68118 0.0
O140 O 0.55888 0.48682 0.78798 0.0
O141 O 0.56306 0.52556 0.73074 0.0
O142 O 0.46382 0.47337 0.79236 0.0
O143 O 0.50216 0.45395 0.80909 0.0
O144 O 0.53831 0.44277 0.66472 0.0
O145 O 0.52754 0.45579 0.54767 0.0
O146 O 0.5112 0.51793 0.5032 0.0
O147 O 0.46854 0.53866 0.76268 0.0
O148 O 0.53047 0.54746 0.57852 0.0
O149 O 0.50804 0.55594 0.74251 0.0
C150 C 0.44612 0.48499 0.56972 0.0
C151 C 0.57178 0.508 0.77553 0.0
C152 C 0.53817 0.43935 0.59254 0.0
C153 C 0.47794 0.45604 0.82399 0.0
C154 C 0.52119 0.54067 0.51389 0.0
C155 C 0.48492 0.55767 0.76848 0.0
O156 O 0.46771 0.47625 0.54497 0.0
O157 O 0.97882 0.53464 0.57142 0.0
Zn158 Zn 0.00761 0.5263 0.64973 0.0
O159 O 0.00318 0.48997 0.69014 0.0
Zn160 Zn 0.99664 0.49047 0.79995 0.0
Zn161 Zn 0.97438 0.47206 0.6396 0.0
Zn162 Zn 0.03417 0.46933 0.6722 0.0
O163 O 0.02763 0.47661 0.85841 0.0
O164 O 0.05039 0.45622 0.76891 0.0
O165 O 0.00346 0.55278 0.73619 0.0
O166 O 0.99238 0.52755 0.835 0.0
O167 O 0.96289 0.47153 0.82753 0.0
O168 O 0.94694 0.46061 0.71373 0.0
O169 O 0.98559 0.44094 0.57722 0.0
O170 O 0.04451 0.53195 0.6067 0.0
O171 O 0.02819 0.43919 0.59894 0.0
O172 O 0.06175 0.49293 0.63068 0.0
C173 C 0.95919 0.5207 0.55002 0.0
C174 C 0.04699 0.46275 0.83833 0.0
C175 C 0.94478 0.46162 0.78605 0.0
C176 C 0.9964 0.55009 0.80571 0.0
C177 C 0.00763 0.4303 0.56641 0.0
C178 C 0.06394 0.51651 0.60766 0.0
O179 O 0.95618 0.49711 0.57226 0.0
H180 H 0.16753 0.04251 0.22947 0.0
H181 H 0.23356 0.03079 0.37997 0.0
H182 H 0.20348 0.01679 0.48372 0.0
H183 H 0.12439 0.06869 0.37224 0.0
H184 H 0.09568 0.05286 0.33305 0.0
H185 H 0.12253 0.06159 0.27132 0.0
H186 H 0.12494 0.01326 0.22518 0.0
H187 H 0.09817 0.00446 0.28721 0.0
H188 H 0.12867 0.98742 0.29453 0.0
H189 H 0.16572 0.00482 0.57147 0.0
H190 H 0.12355 0.99619 0.63637 0.0
H191 H 0.08254 0.01559 0.42687 0.0
C192 C 0.17555 0.03692 0.28436 0.0
C193 C 0.20268 0.03752 0.29731 0.0
C194 C 0.21273 0.03026 0.36936 0.0
C195 C 0.19581 0.02232 0.42844 0.0
C196 C 0.169 0.02185 0.41408 0.0
C197 C 0.15894 0.02901 0.34379 0.0
C198 C 0.12942 0.02713 0.3432 0.0
C199 C 0.11731 0.05418 0.32914 0.0
C200 C 0.11974 0.00686 0.28403 0.0
C201 C 0.12442 0.01775 0.42403 0.0
C202 C 0.14744 0.01484 0.46415 0.0
C203 C 0.14757 0.00693 0.54049 0.0
C204 C 0.12353 0.00206 0.57684 0.0
C205 C 0.09969 0.00504 0.53674 0.0
C206 C 0.10034 0.01284 0.45914 0.0
H207 H 0.47204 0.1683 0.2526 0.0
H208 H 0.48497 0.23041 0.41824 0.0
H209 H 0.49577 0.1973 0.5169 0.0
H210 H 0.44167 0.12239 0.38144 0.0
H211 H 0.45646 0.09403 0.33878 0.0
H212 H 0.45037 0.12265 0.28154 0.0
H213 H 0.49924 0.12486 0.24302 0.0
H214 H 0.50547 0.09624 0.30024 0.0
H215 H 0.52393 0.12611 0.31657 0.0
H216 H 0.50393 0.1571 0.59781 0.0
H217 H 0.50923 0.11308 0.65472 0.0
H218 H 0.49135 0.0775 0.43469 0.0
C219 C 0.47728 0.1748 0.30967 0.0
C220 C 0.47786 0.20166 0.32855 0.0
C221 C 0.4846 0.20976 0.40332 0.0
C222 C 0.49072 0.19114 0.45946 0.0
C223 C 0.48995 0.16463 0.43937 0.0
C224 C 0.48342 0.15647 0.36622 0.0
C225 C 0.48371 0.12685 0.35958 0.0
C226 C 0.45643 0.11584 0.33915 0.0
C227 C 0.50432 0.118 0.30142 0.0
C228 C 0.49138 0.1196 0.44037 0.0
C229 C 0.49486 0.14162 0.48561 0.0
C230 C 0.50139 0.13972 0.56282 0.0
C231 C 0.50434 0.11463 0.59464 0.0
C232 C 0.50086 0.0918 0.54921 0.0
C233 C 0.49442 0.0945 0.47096 0.0
H234 H 0.31031 0.52204 0.37233 0.0
H235 H 0.31815 0.45151 0.23618 0.0
H236 H 0.35773 0.4398 0.3091 0.0
H237 H 0.37772 0.53779 0.38383 0.0
H238 H 0.37697 0.54945 0.48114 0.0
H239 H 0.34819 0.55138 0.42237 0.0
H240 H 0.3218 0.52502 0.52347 0.0
H241 H 0.35053 0.52306 0.58269 0.0
H242 H 0.33334 0.49349 0.55439 0.0
H243 H 0.39817 0.43774 0.38782 0.0
H244 H 0.43644 0.44439 0.47177 0.0
H245 H 0.4022 0.51545 0.56181 0.0
C246 C 0.32022 0.50395 0.35914 0.0
C247 C 0.31134 0.48745 0.29944 0.0
C248 C 0.32475 0.46416 0.28238 0.0
C249 C 0.34718 0.45739 0.32339 0.0
C250 C 0.35577 0.47412 0.38156 0.0
C251 C 0.34266 0.49682 0.40002 0.0
C252 C 0.35672 0.51176 0.46333 0.0
C253 C 0.36541 0.53921 0.436 0.0
C254 C 0.33957 0.51342 0.53524 0.0
C255 C 0.37998 0.49417 0.47641 0.0
C256 C 0.37899 0.47258 0.42855 0.0
C257 C 0.39899 0.45435 0.42642 0.0
C258 C 0.42069 0.45833 0.47414 0.0
C259 C 0.42218 0.48026 0.52388 0.0
C260 C 0.40135 0.49822 0.52552 0.0
H261 H 0.07897 0.32312 0.30862 0.0
H262 H 1.00226 0.29442 0.24191 0.0
H263 H 0.98179 0.32725 0.32692 0.0
H264 H 0.06318 0.33637 0.50808 0.0
H265 H 0.08336 0.3656 0.51253 0.0
H266 H 0.09178 0.33934 0.44846 0.0
H267 H 0.09179 0.37186 0.33458 0.0
H268 H 0.0833 0.39819 0.39824 0.0
H269 H 0.06314 0.39102 0.31611 0.0
H270 H 0.96994 0.36426 0.41482 0.0
H271 H 0.96721 0.40217 0.50215 0.0
H272 H 0.05191 0.40645 0.51306 0.0
C273 C 0.05788 0.32372 0.3127 0.0
C274 C 0.04199 0.30646 0.26955 0.0
C275 C 0.01455 0.30763 0.27519 0.0
C276 C 1.00283 0.32615 0.32313 0.0
C277 C 0.01897 0.34317 0.36486 0.0
C278 C 0.04591 0.34206 0.36043 0.0
C279 C 0.05876 0.36287 0.41027 0.0
C280 C 0.07524 0.35029 0.4736 0.0
C281 C 0.07521 0.38212 0.36189 0.0
C282 C 0.03487 0.376 0.44293 0.0
C283 C 0.01213 0.36434 0.41601 0.0
C284 C 0.98761 0.37345 0.43666 0.0
C285 C 0.98628 0.39505 0.4862 0.0
C286 C 0.00933 0.40729 0.51477 0.0
C287 C 0.03391 0.39747 0.49277 0.0
H288 H 0.83524 0.05223 0.05786 0.0
H289 H 0.79274 0.97961 0.01483 0.0
H290 H 0.82543 0.96731 0.91718 0.0
H291 H 0.85616 0.06381 0.85803 0.0
H292 H 0.88766 0.07676 0.88629 0.0
H293 H 0.85985 0.08069 0.94814 0.0
H294 H 0.88506 0.0585 0.05855 0.0
H295 H 0.91285 0.05438 -0.00301 0.0
H296 H 0.89837 0.0263 0.04415 0.0
H297 H 0.86449 0.96128 0.83345 0.0
H298 H 0.90643 0.96252 0.76424 0.0
H299 H 0.92337 0.03975 0.85871 0.0
C300 C 0.83268 0.03401 0.02658 0.0
C301 C 0.81158 0.01684 0.04263 0.0
C302 C 0.8088 0.99298 0.00222 0.0
C303 C 0.82724 0.98588 0.94692 0.0
C304 C 0.84816 0.00301 0.9328 0.0
C305 C 0.85088 0.0267 0.97089 0.0
C306 C 0.87573 0.04101 0.94703 0.0
C307 C 0.86947 0.06711 0.90751 0.0
C308 C 0.89408 0.04529 0.01577 0.0
C309 C 0.88682 0.02142 0.89087 0.0
C310 C 0.87056 0.99968 0.88345 0.0
C311 C 0.87722 0.97834 0.838 0.0
C312 C 0.90115 0.9792 0.79915 0.0
C313 C 0.91814 1.00129 0.80563 0.0
C314 C 0.91067 0.02275 0.8517 0.0
H315 H 0.54586 0.82114 0.05162 0.0
H316 H 0.4653 0.7942 0.06033 0.0
H317 H 0.45295 0.82883 0.96834 0.0
H318 H 0.53251 0.89003 0.04109 0.0
H319 H 0.55882 0.89741 0.97581 0.0
H320 H 0.56139 0.8702 0.04089 0.0
H321 H 0.5698 0.83892 0.92686 0.0
H322 H 0.56721 0.86605 0.86141 0.0
H323 H 0.54666 0.83734 0.84918 0.0
H324 H 0.44924 0.86674 0.87905 0.0
H325 H 0.45407 0.90569 0.79676 0.0
H326 H 0.53739 0.9081 0.84387 0.0
C327 C 0.52568 0.82263 0.03373 0.0
C328 C 0.50638 0.80531 0.06244 0.0
C329 C 0.48019 0.80753 0.03851 0.0
C330 C 0.47306 0.82704 0.9864 0.0
C331 C 0.49247 0.844 0.95892 0.0
C332 C 0.51826 0.84201 0.98152 0.0
C333 C 0.53515 0.86297 0.94383 0.0
C334 C 0.5477 0.88124 0.004 0.0
C335 C 0.55593 0.85057 0.89225 0.0
C336 C 0.5148 0.87714 0.89703 0.0
C337 C 0.49034 0.86582 0.9066 0.0
C338 C 0.4683 0.87573 0.87079 0.0
C339 C 0.47127 0.89791 0.82421 0.0
C340 C 0.49612 0.90998 0.81359 0.0
C341 C 0.51817 0.89925 0.85026 0.0
H342 H 0.68001 0.49333 0.1038 0.0
H343 H 0.7237 0.55555 0.99107 0.0
H344 H 0.69062 0.55654 0.88761 0.0
H345 H 0.65807 0.45949 0.92849 0.0
H346 H 0.62641 0.45127 0.96737 0.0
H347 H 0.65426 0.45445 0.02993 0.0
H348 H 0.62971 0.48889 0.11067 0.0
H349 H 0.60186 0.48589 0.04824 0.0
H350 H 0.61691 0.5176 0.06448 0.0
H351 H 0.65147 0.5529 0.8021 0.0
H352 H 0.60966 0.54386 0.73653 0.0
H353 H 0.59147 0.483 0.9026 0.0
C354 C 0.68268 0.50683 0.05655 0.0
C355 C 0.70428 0.52429 0.05438 0.0
C356 C 0.70723 0.54197 0.99282 0.0
C357 C 0.68858 0.54266 0.93407 0.0
C358 C 0.66722 0.52541 0.93792 0.0
C359 C 0.66425 0.50767 -0.00279 0.0
C360 C 0.63909 0.49184 0.98864 0.0
C361 C 0.64481 0.46252 0.97796 0.0
C362 C 0.62082 0.49634 0.05707 0.0
C363 C 0.6282 0.50373 0.916 0.0
C364 C 0.64477 0.52304 0.88777 0.0
C365 C 0.63847 0.53763 0.8232 0.0
C366 C 0.6146 0.5324 0.78649 0.0
C367 C 0.59729 0.51262 0.81407 0.0
C368 C 0.60438 0.49801 0.87949 0.0
H369 H 0.035 0.68808 -0.0033 0.0
H370 H 0.97445 0.6719 0.16377 0.0
H371 H 0.9613 0.63189 0.09251 0.0
H372 H 0.99806 0.66402 0.82817 0.0
H373 H 0.02642 0.64998 0.78396 0.0
H374 H 0.02994 0.67836 0.84491 0.0
H375 H 0.06325 0.65356 0.92866 0.0
H376 H 0.05982 0.62514 0.86807 0.0
H377 H 0.05409 0.62227 0.96943 0.0
H378 H 0.95735 0.59216 0.01133 0.0
H379 H 0.96166 0.55512 0.92162 0.0
H380 H 0.02365 0.59708 0.8023 0.0
C381 C 0.01875 0.67621 0.0172 0.0
C382 C 0.00551 0.68283 0.08506 0.0
C383 C 0.98459 0.66697 0.11143 0.0
C384 C 0.97702 0.64431 0.07137 0.0
C385 C 0.99053 0.63799 0.00488 0.0
C386 C 0.01084 0.65349 0.97748 0.0
C387 C 0.02269 0.64152 0.9062 0.0
C388 C 0.01905 0.65955 0.83669 0.0
C389 C 0.05168 0.63525 0.91889 0.0
C390 C 0.00623 0.61664 0.8989 0.0
C391 C 0.98779 0.61511 0.9565 0.0
C392 C 0.97142 0.59328 0.96526 0.0
C393 C 0.97407 0.57232 0.91423 0.0
C394 C 0.9928 0.57338 0.85472 0.0
C395 C 0.00882 0.59602 0.84635 0.0
H396 H 0.07322 0.1604 0.3124 0.0
H397 H 0.00774 0.21318 0.32565 0.0
H398 H 0.98516 0.18218 0.41371 0.0
H399 H 0.03539 0.10584 0.28631 0.0
H400 H 0.05592 0.08352 0.33786 0.0
H401 H 0.07003 0.11217 0.29344 0.0
H402 H 0.08967 0.12792 0.42226 0.0
H403 H 0.07677 0.09866 0.46682 0.0
H404 H 0.06889 0.13046 0.50505 0.0
H405 H 0.96835 0.14228 0.49197 0.0
H406 H 0.9595 0.09848 0.55032 0.0
H407 H 0.03351 0.07109 0.4633 0.0
C408 C 0.05441 0.16582 0.33543 0.0
C409 C 0.04219 0.18913 0.31226 0.0
C410 C 0.0176 0.19556 0.34359 0.0
C411 C 0.00456 0.17795 0.39303 0.0
C412 C 0.0164 0.15409 0.40981 0.0
C413 C 0.04091 0.1482 0.38197 0.0
C414 C 0.04824 0.12023 0.39883 0.0
C415 C 0.05264 0.10454 0.3247 0.0
C416 C 0.07231 0.11927 0.45141 0.0
C417 C 0.0239 0.11102 0.43963 0.0
C418 C 0.0059 0.13081 0.44734 0.0
C419 C 0.98226 0.12664 0.48567 0.0
C420 C 0.97727 0.10175 0.51794 0.0
C421 C 0.99545 0.08131 0.509 0.0
C422 C 0.01883 0.08609 0.46871 0.0
H423 H 0.35047 0.05293 0.27435 0.0
H424 H 0.29454 0.98951 0.31049 0.0
H425 H 0.32708 0.96651 0.39101 0.0
H426 H 0.40302 0.01224 0.24126 0.0
H427 H 0.42696 0.03379 0.28496 0.0
H428 H 0.39802 0.04718 0.24271 0.0
H429 H 0.38605 0.07004 0.37022 0.0
H430 H 0.41549 0.05759 0.41205 0.0
H431 H 0.38441 0.05099 0.45696 0.0
H432 H 0.36774 0.95025 0.46426 0.0
H433 H 0.41093 0.94341 0.52518 0.0
H434 H 0.44015 0.01487 0.41891 0.0
C435 C 0.34483 0.03439 0.30029 0.0
C436 C 0.3201 0.02289 0.2862 0.0
C437 C 0.31336 0.99873 0.3214 0.0
C438 C 0.3318 0.98546 0.36635 0.0
C439 C 0.35675 0.99662 0.3744 0.0
C440 C 0.36309 0.02066 0.34238 0.0
C441 C 0.39149 0.02783 0.35322 0.0
C442 C 0.4057 0.03039 0.27594 0.0
C443 C 0.39453 0.05309 0.40099 0.0
C444 C 0.40039 0.00409 0.39674 0.0
C445 C 0.38017 0.98637 0.40964 0.0
C446 C 0.38374 0.96386 0.45359 0.0
C447 C 0.40834 0.95999 0.48735 0.0
C448 C 0.42904 0.97827 0.47528 0.0
C449 C 0.42505 1.00006 0.42735 0.0
H450 H 0.53629 0.34166 0.25359 0.0
H451 H 0.50471 0.28673 0.42038 0.0
H452 H 0.52518 0.3125 0.52337 0.0
H453 H 0.59431 0.36935 0.36845 0.0
H454 H 0.58697 0.40202 0.33612 0.0
H455 H 0.58083 0.37423 0.27435 0.0
H456 H 0.53265 0.38832 0.25958 0.0
H457 H 0.53856 0.41587 0.32119 0.0
H458 H 0.51295 0.39253 0.34402 0.0
H459 H 0.53861 0.34875 0.60908 0.0
H460 H 0.53843 0.39261 0.66788 0.0
H461 H 0.55358 0.4279 0.44657 0.0
C462 C 0.53407 0.33464 0.31162 0.0
C463 C 0.51847 0.31224 0.32837 0.0
C464 C 0.51679 0.30353 0.40517 0.0
C465 C 0.52837 0.31818 0.46446 0.0
C466 C 0.54135 0.34163 0.44634 0.0
C467 C 0.54417 0.34985 0.37142 0.0
C468 C 0.55257 0.37846 0.36718 0.0
C469 C 0.58033 0.38116 0.33461 0.0
C470 C 0.53301 0.39472 0.32033 0.0
C471 C 0.55203 0.38562 0.45114 0.0
C472 C 0.547 0.36378 0.49607 0.0
C473 C 0.54309 0.36587 0.57468 0.0
C474 C 0.54304 0.39094 0.60763 0.0
C475 C 0.54597 0.41364 0.56156 0.0
C476 C 0.55158 0.41083 0.48303 0.0
H477 H 0.16769 0.54972 0.29849 0.0
H478 H 0.22063 0.50506 0.43908 0.0
H479 H 0.19229 0.51232 0.55086 0.0
H480 H 0.13846 0.59369 0.45847 0.0
H481 H 0.10666 0.59021 0.41506 0.0
H482 H 0.13551 0.5913 0.35595 0.0
H483 H 0.1213 0.54722 0.29386 0.0
H484 H 0.09287 0.5456 0.35338 0.0
H485 H 0.11566 0.51895 0.35387 0.0
H486 H 0.15364 0.51204 0.63292 0.0
H487 H 0.10885 0.50496 0.67985 0.0
H488 H 0.07837 0.54727 0.48527 0.0
C489 C 0.17388 0.54258 0.35385 0.0
C490 C 0.19625 0.52678 0.3604 0.0
C491 C 0.20378 0.5175 0.43308 0.0
C492 C 0.18768 0.5215 0.49682 0.0
C493 C 0.16431 0.53494 0.48673 0.0
C494 C 0.15758 0.54574 0.41706 0.0
C495 C 0.12925 0.5541 0.41601 0.0
C496 C 0.12736 0.58411 0.41111 0.0
C497 C 0.1139 0.54065 0.35048 0.0
C498 C 0.12039 0.54425 0.49352 0.0
C499 C 0.14118 0.53416 0.5344 0.0
C500 C 0.13742 0.5206 0.60261 0.0
C501 C 0.11188 0.51649 0.62847 0.0
C502 C 0.09031 0.52576 0.58616 0.0
C503 C 0.09464 0.54066 0.51945 0.0
H504 H 0.99776 0.80329 0.9625 0.0
H505 H 0.07776 0.80191 0.04049 0.0
H506 H 0.08873 0.83919 0.95557 0.0
H507 H 0.01141 0.83047 0.7584 0.0
H508 H 0.98241 0.84998 0.76492 0.0
H509 H 0.98338 0.81824 0.81027 0.0
H510 H 0.9704 0.84005 0.93817 0.0
H511 H 0.97052 0.87195 0.8949 0.0
H512 H 0.99079 0.86594 0.9772 0.0
H513 H 0.08785 0.88323 0.89081 0.0
H514 H 0.07659 0.92658 0.83708 0.0
H515 H 0.99656 0.89941 0.80568 0.0
C516 C 0.01795 0.80961 0.95685 0.0
C517 C 0.03713 0.79939 0.00568 0.0
C518 C 0.06311 0.80898 0.00112 0.0
C519 C 0.06939 0.83037 0.95376 0.0
C520 C 0.04944 0.84164 0.91109 0.0
C521 C 0.02435 0.83108 0.91051 0.0
C522 C 0.00551 0.84902 0.87023 0.0
C523 C 0.99507 0.83616 0.79656 0.0
C524 C 0.98301 0.85721 0.92333 0.0
C525 C 0.02348 0.87197 0.85254 0.0
C526 C 0.04882 0.8673 0.87524 0.0
C527 C 0.06821 0.8868 0.87086 0.0
C528 C 0.06158 0.91147 0.84112 0.0
C529 C 0.03571 0.91646 0.81703 0.0
C530 C 0.01659 0.89629 0.82294 0.0
H531 H 0.66521 0.06302 0.0819 0.0
H532 H 0.72024 0.02055 0.94177 0.0
H533 H 0.68878 0.02078 0.835 0.0
H534 H 0.61483 0.02486 0.04032 0.0
H535 H 0.58964 0.04922 0.0395 0.0
H536 H 0.61875 0.05472 0.09479 0.0
H537 H 0.62789 0.09845 0.02392 0.0
H538 H 0.59834 0.09352 0.96925 0.0
H539 H 0.62903 0.09888 0.92088 0.0
H540 H 0.64897 0.01525 0.75845 0.0
H541 H 0.60442 0.00595 0.71353 0.0
H542 H 0.57288 0.04915 0.90565 0.0
C543 C 0.67102 0.0547 0.02759 0.0
C544 C 0.69514 0.04167 0.02008 0.0
C545 C 0.70208 0.03094 0.94852 0.0
C546 C 0.68422 0.03089 0.88767 0.0
C547 C 0.65965 0.04178 0.8994 0.0
C548 C 0.65313 0.05385 0.96734 0.0
C549 C 0.62413 0.05966 0.97089 0.0
C550 C 0.6111 0.04631 0.04044 0.0
C551 C 0.61959 0.0894 0.97122 0.0
C552 C 0.61501 0.04738 0.89649 0.0
C553 C 0.63599 0.03785 0.8554 0.0
C554 C 0.63251 0.02317 0.78913 0.0
C555 C 0.60705 0.01775 0.76465 0.0
C556 C 0.5852 0.02677 0.80644 0.0
C557 C 0.58924 0.04238 0.87215 0.0
H558 H 0.5122 0.69438 0.96307 0.0
H559 H 0.43168 0.69285 0.03686 0.0
H560 H 0.42182 0.65733 0.94478 0.0
H561 H 0.49976 0.67071 0.75325 0.0
H562 H 0.52908 0.65161 0.75779 0.0
H563 H 0.52742 0.68254 0.80769 0.0
H564 H 0.54037 0.65892 0.93275 0.0
H565 H 0.54105 0.62784 0.88473 0.0
H566 H 0.52038 0.632 0.96715 0.0
H567 H 0.42381 0.61466 0.8752 0.0
H568 H 0.43617 0.57198 0.81942 0.0
H569 H 0.51585 0.60084 0.79358 0.0
C570 C 0.49215 0.68786 0.95537 0.0
C571 C 0.47255 0.69658 0.00527 0.0
C572 C 0.44671 0.68676 -0.00268 0.0
C573 C 0.44104 0.66644 0.94564 0.0
C574 C 0.46139 0.65644 0.902 0.0
C575 C 0.48633 0.66735 0.90466 0.0
C576 C 0.50565 0.65043 0.86241 0.0
C577 C 0.51608 0.66467 0.79103 0.0
C578 C 0.52815 0.64179 0.91494 0.0
C579 C 0.48815 0.62748 0.84073 0.0
C580 C 0.4626 0.63145 0.86254 0.0
C581 C 0.44359 0.61167 0.85569 0.0
C582 C 0.45085 0.58737 0.82481 0.0
C583 C 0.47696 0.58303 0.80198 0.0
C584 C 0.49565 0.60353 0.8097 0.0
H585 H 0.84878 0.47802 0.12633 0.0
H586 H 0.79211 0.50103 0.95538 0.0
H587 H 0.81841 0.47944 0.85577 0.0
H588 H 0.90009 0.49888 0.02537 0.0
H589 H 0.9226 0.47414 0.05627 0.0
H590 H 0.89565 0.48271 0.11622 0.0
H591 H 0.88019 0.43404 0.11881 0.0
H592 H 0.90727 0.42529 0.05848 0.0
H593 H 0.87436 0.41683 0.03016 0.0
H594 H 0.85446 0.46351 0.77274 0.0
H595 H 0.89769 0.45992 0.71292 0.0
H596 H 0.9333 0.45279 0.93696 0.0
C597 C 0.84156 0.47813 0.06814 0.0
C598 C 0.81845 0.49145 0.04865 0.0
C599 C 0.80955 0.49071 0.97203 0.0
C600 C 0.82441 0.47845 0.91504 0.0
C601 C 0.84804 0.46704 0.9357 0.0
C602 C 0.85655 0.46686 0.01068 0.0
C603 C 0.88473 0.45849 0.01673 0.0
C604 C 0.90174 0.47983 0.05587 0.0
C605 C 0.88674 0.43209 0.05851 0.0
C606 C 0.89138 0.45565 0.93297 0.0
C607 C 0.86965 0.45945 0.88733 0.0
C608 C 0.87146 0.46004 0.80791 0.0
C609 C 0.89619 0.45794 0.77444 0.0
C610 C 0.91891 0.45612 0.82047 0.0
C611 C 0.91626 0.4539 0.90047 0.0
H612 H 0.03771 0.18827 0.0002 0.0
H613 H 0.11349 0.17073 0.09475 0.0
H614 H 0.11496 0.13005 0.01742 0.0
H615 H 0.01319 0.12757 0.01751 0.0
H616 H 0.99379 0.12671 0.93148 0.0
H617 H 1.00133 0.1576 0.97657 0.0
H618 H 0.02221 0.17543 0.85175 0.0
H619 H 0.01385 0.14491 0.80497 0.0
H620 H 0.04717 0.15679 0.80458 0.0
H621 H 0.10429 0.08762 0.94802 0.0
H622 H 0.08433 0.04919 0.88246 0.0
H623 H 0.01446 0.09431 0.84015 0.0
C624 C 0.05529 0.17668 0.00051 0.0
C625 C 0.07594 0.18294 0.05072 0.0
C626 C 0.098 0.1666 0.05408 0.0
C627 C 0.09882 0.14335 0.01107 0.0
C628 C 0.07734 0.13682 0.96544 0.0
C629 C 0.05618 0.15329 0.95883 0.0
C630 C 0.03416 0.14039 0.91432 0.0
C631 C 0.00916 0.13793 0.96291 0.0
C632 C 0.02906 0.15526 0.83944 0.0
C633 C 0.04584 0.11383 0.89911 0.0
C634 C 0.07083 0.11213 0.92816 0.0
C635 C 0.08489 0.0889 0.92389 0.0
C636 C 0.0733 0.06709 0.88724 0.0
C637 C 0.0478 0.06863 0.85618 0.0
C638 C 0.03398 0.09234 0.86309 0.0
H639 H 0.3514 0.07739 0.09023 0.0
H640 H 0.29006 0.04362 0.94876 0.0
H641 H 0.32102 0.04064 0.84119 0.0
H642 H 0.39241 0.10967 0.92979 0.0
H643 H 0.42206 0.10017 0.97731 0.0
H644 H 0.39366 0.10847 0.03277 0.0
H645 H 0.39624 0.06367 0.10125 0.0
H646 H 0.42402 0.05471 0.04497 0.0
H647 H 0.39526 0.03389 0.04548 0.0
H648 H 0.35951 0.03027 0.7639 0.0
H649 H 0.40214 0.01595 0.71715 0.0
H650 H 0.44036 0.05373 0.91048 0.0
C651 C 0.34424 0.07052 0.03535 0.0
C652 C 0.31835 0.06072 0.0276 0.0
C653 C 0.30964 0.0516 0.95556 0.0
C654 C 0.3272 0.0497 0.89431 0.0
C655 C 0.35325 0.05719 0.90616 0.0
C656 C 0.3617 0.06789 0.97459 0.0
C657 C 0.39132 0.06992 0.97779 0.0
C658 C 0.4004 0.09878 0.97948 0.0
C659 C 0.40233 0.05462 0.04638 0.0
C660 C 0.39832 0.05705 0.9026 0.0
C661 C 0.376 0.05049 0.86156 0.0
C662 C 0.37709 0.0359 0.79453 0.0
C663 C 0.40145 0.02758 0.76901 0.0
C664 C 0.42459 0.03367 0.81044 0.0
C665 C 0.42305 0.04915 0.87721 0.0
H666 H 0.46203 0.36298 0.17894 0.0
H667 H 0.45619 0.29963 0.01291 0.0
H668 H 0.44737 0.33191 0.91198 0.0
H669 H 0.41765 0.41126 0.08495 0.0
H670 H 0.43948 0.43821 0.10772 0.0
H671 H 0.43713 0.41029 0.17078 0.0
H672 H 0.48713 0.40399 0.16075 0.0
H673 H 0.48964 0.43172 0.09779 0.0
H674 H 0.50182 0.40033 0.06776 0.0
H675 H 0.44711 0.3706 0.82566 0.0
H676 H 0.45889 0.41201 0.76001 0.0
H677 H 0.47124 0.45012 0.97864 0.0
C678 C 0.45864 0.35567 0.12164 0.0
C679 C 0.46005 0.32853 0.1044 0.0
C680 C 0.45481 0.32012 0.02856 0.0
C681 C 0.44986 0.3384 0.97051 0.0
C682 C 0.45034 0.36506 0.98888 0.0
C683 C 0.45471 0.37367 0.06272 0.0
C684 C 0.45907 0.40316 0.06559 0.0
C685 C 0.43701 0.41651 0.10988 0.0
C686 C 0.48601 0.41019 0.09995 0.0
C687 C 0.45781 0.40967 0.98122 0.0
C688 C 0.45174 0.38754 0.93831 0.0
C689 C 0.45132 0.38812 0.85869 0.0
C690 C 0.45799 0.41168 0.82193 0.0
C691 C 0.46538 0.43413 0.8647 0.0
C692 C 0.46488 0.43332 0.94519 0.0
H693 H 0.15225 0.51718 0.129 0.0
H694 H 0.20085 0.45066 0.07376 0.0
H695 H 0.16588 0.43315 0.98925 0.0
H696 H 0.0923 0.48041 0.14271 0.0
H697 H 0.0729 0.50635 0.10314 0.0
H698 H 0.10231 0.51419 0.15547 0.0
H699 H 0.12033 0.54049 0.03956 0.0
H700 H 0.09081 0.53312 0.9875 0.0
H701 H 0.12202 0.52485 0.94721 0.0
H702 H 0.12521 0.42364 0.90875 0.0
H703 H 0.08365 0.42402 0.83626 0.0
H704 H 0.06089 0.49442 0.9572 0.0
C705 C 0.15561 0.49879 0.09978 0.0
C706 C 0.17932 0.48521 0.10866 0.0
C707 C 0.18301 0.46159 0.06742 0.0
C708 C 0.16313 0.45134 0.01999 0.0
C709 C 0.13964 0.46482 0.01512 0.0
C710 C 0.1359 0.48807 0.05393 0.0
C711 C 0.10896 0.49883 0.04003 0.0
C712 C 0.09319 0.5 0.11479 0.0
C713 C 0.11064 0.52592 0.00124 0.0
C714 C 0.09804 0.47814 0.98646 0.0
C715 C 0.116 0.45869 0.97242 0.0
C716 C 0.11089 0.43856 0.92021 0.0
C717 C 0.0872 0.43884 0.87964 0.0
C718 C 0.06883 0.45892 0.89228 0.0
C719 C 0.07413 0.47833 0.948 0.0
H720 H 0.03503 0.84478 0.23579 0.0
H721 H 0.97126 0.79362 0.30829 0.0
H722 H 0.95533 0.82879 0.39367 0.0
H723 H 0.04659 0.87695 0.41448 0.0
H724 H 0.05344 0.90829 0.37062 0.0
H725 H 0.05999 0.87849 0.31924 0.0
H726 H 0.03098 0.89456 0.20749 0.0
H727 H 0.02395 0.92421 0.25925 0.0
H728 H 0.99759 0.90333 0.22603 0.0
H729 H 0.94675 0.87012 0.47125 0.0
H730 H 0.94776 0.9127 0.53938 0.0
H731 H 0.01516 0.9371 0.40564 0.0
C732 C 0.01762 0.84091 0.26927 0.0
C733 C 0.00428 0.81648 0.26493 0.0
C734 C 0.98194 0.81209 0.3112 0.0
C735 C 0.9726 0.83204 0.35915 0.0
C736 C 0.98574 0.85623 0.3596 0.0
C737 C 0.00785 0.86061 0.31604 0.0
C738 C 0.01848 0.88821 0.32599 0.0
C739 C 0.04626 0.88796 0.35961 0.0
C740 C 0.01769 0.90347 0.25018 0.0
C741 C 0.99901 0.89878 0.38264 0.0
C742 C 0.98026 0.88009 0.40153 0.0
C743 C 0.96117 0.88496 0.45628 0.0
C744 C 0.96182 0.90924 0.49438 0.0
C745 C 0.9813 0.92836 0.47702 0.0
C746 C 0.99962 0.9232 0.41888 0.0
H747 H 0.66399 0.04187 0.27255 0.0
H748 H 0.71239 0.97411 0.31212 0.0
H749 H 0.67831 0.95545 0.39818 0.0
H750 H 0.6324 0.04541 0.45968 0.0
H751 H 0.60168 0.05433 0.41736 0.0
H752 H 0.63186 0.06356 0.37125 0.0
H753 H 0.61574 0.04052 0.2472 0.0
H754 H 0.58588 0.0305 0.2935 0.0
H755 H 0.60649 0.00628 0.25011 0.0
H756 H 0.63649 0.94342 0.47411 0.0
H757 H 0.59274 0.94023 0.53477 0.0
H758 H 0.57159 0.01376 0.4278 0.0
C759 C 0.66771 0.02333 0.3005 0.0
C760 C 0.69077 0.0094 0.28578 0.0
C761 C 0.69496 0.98524 0.32352 0.0
C762 C 0.6756 0.97441 0.37174 0.0
C763 C 0.65229 0.98799 0.38089 0.0
C764 C 0.64848 0.01204 0.34646 0.0
C765 C 0.62123 0.02195 0.35919 0.0
C766 C 0.62184 0.04784 0.4046 0.0
C767 C 0.60648 0.02497 0.28298 0.0
C768 C 0.61003 0.99969 0.40605 0.0
C769 C 0.62816 0.98037 0.41912 0.0
C770 C 0.62215 0.95841 0.46379 0.0
C771 C 0.59722 0.95665 0.49751 0.0
C772 C 0.57858 0.9765 0.485 0.0
C773 C 0.58508 0.9979 0.43726 0.0
H774 H 0.53103 0.67982 0.30172 0.0
H775 H 0.4478 0.67044 0.26118 0.0
H776 H 0.44782 0.62854 0.3308 0.0
H777 H 0.54894 0.61589 0.27986 0.0
H778 H 0.57187 0.61408 0.35788 0.0
H779 H 0.56567 0.64515 0.3129 0.0
H780 H 0.55275 0.66556 0.44292 0.0
H781 H 0.55985 0.63483 0.48892 0.0
H782 H 0.52826 0.64944 0.50093 0.0
H783 H 0.45821 0.58453 0.37804 0.0
H784 H 0.4752 0.54529 0.44139 0.0
H785 H 0.55059 0.58417 0.46992 0.0
C786 C 0.51266 0.66949 0.31055 0.0
C787 C 0.48947 0.67809 0.27506 0.0
C788 C 0.46582 0.66394 0.28709 0.0
C789 C 0.46565 0.64008 0.32612 0.0
C790 C 0.48913 0.63109 0.35524 0.0
C791 C 0.51198 0.64579 0.35153 0.0
C792 C 0.53435 0.63124 0.38876 0.0
C793 C 0.55651 0.62631 0.33139 0.0
C794 C 0.54439 0.64615 0.45961 0.0
C795 C 0.52061 0.60576 0.41088 0.0
C796 C 0.49466 0.60606 0.38928 0.0
C797 C 0.4783 0.58423 0.39723 0.0
C798 C 0.4883 0.56187 0.43206 0.0
C799 C 0.51422 0.5617 0.46026 0.0
C800 C 0.53072 0.58382 0.44866 0.0
H801 H 0.81963 0.51525 0.35802 0.0
H802 H 0.84518 0.57765 0.20718 0.0
H803 H 0.88454 0.58498 0.28733 0.0
H804 H 0.84905 0.54207 0.54282 0.0
H805 H 0.85801 0.50947 0.57179 0.0
H806 H 0.82907 0.51425 0.51502 0.0
H807 H 0.84651 0.48126 0.41511 0.0
H808 H 0.87572 0.47687 0.47016 0.0
H809 H 0.87798 0.48721 0.3718 0.0
H810 H 0.92474 0.5801 0.3721 0.0
H811 H 0.9609 0.56383 0.45339 0.0
H812 H 0.90911 0.503 0.54198 0.0
C813 C 0.83276 0.53148 0.34484 0.0
C814 C 0.82905 0.54657 0.27849 0.0
C815 C 0.84738 0.56657 0.25958 0.0
C816 C 0.86983 0.57071 0.30449 0.0
C817 C 0.87369 0.55454 0.36774 0.0
C818 C 0.85542 0.53549 0.38831 0.0
C819 C 0.86568 0.51809 0.45118 0.0
C820 C 0.84949 0.52117 0.52456 0.0
C821 C 0.86653 0.48917 0.42546 0.0
C822 C 0.89284 0.5296 0.46081 0.0
C823 C 0.89709 0.55092 0.41355 0.0
C824 C 0.92145 0.56365 0.41017 0.0
C825 C 0.94191 0.55426 0.4562 0.0
C826 C 0.93793 0.53203 0.50346 0.0
C827 C 0.91293 0.51993 0.50606 0.0
loop_
_geom_bond_atom_site_label_1
_geom_bond_atom_site_label_2
_geom_bond_distance
_geom_bond_site_symmetry_2
_ccdc_geom_bond_type
H0 C3 0.929 . S
H1 C6 0.929 . S
H2 C8 0.930 . S
C3 H0 0.929 . S
C3 C4 1.398 . S
C3 C5 1.396 1_554 S
C4 C3 1.398 . S
C4 C8 1.407 . S
C5 C3 1.396 1_556 S
C5 C6 1.394 . S
C6 H1 0.929 . S
C6 C5 1.394 . S
C6 C7 1.382 1_556 S
C7 C6 1.382 1_554 S
C7 C8 1.392 . S
C7 N9 1.420 . S
C8 H2 0.930 . S
C8 C4 1.407 . S
C8 C7 1.392 . S
N9 C7 1.420 . S
N9 C10 1.244 1_554 S
C10 N9 1.244 1_556 S
H11 C14 0.937 . S
H12 C17 0.929 . S
H13 C19 0.930 . S
C14 H11 0.937 . S
C14 C15 1.395 1_655 S
C14 C16 1.393 1_655 S
C15 C14 1.395 1_455 S
C15 C19 1.407 . S
C16 C14 1.393 1_455 S
C16 C17 1.394 . S
C17 H12 0.929 . S
C17 C16 1.394 . S
C17 C18 1.382 . S
C18 C17 1.382 . S
C18 C19 1.392 . S
C18 N20 1.420 . S
C19 H13 0.930 . S
C19 C15 1.407 . S
C19 C18 1.392 . S
N20 C18 1.420 . S
N20 C21 1.244 1_455 S
C21 N20 1.244 1_655 S
H22 C25 0.929 . S
H23 C28 0.929 1_556 S
H24 C30 0.930 . S
C25 H22 0.929 . S
C25 C26 1.398 1_565 S
C25 C27 1.394 1_565 S
C26 C25 1.398 1_545 S
C26 C30 1.407 . S
C27 C25 1.394 1_545 S
C27 C28 1.399 . S
C28 H23 0.929 1_554 S
C28 C27 1.399 . S
C28 C29 1.382 . S
C29 C28 1.382 . S
C29 C30 1.392 . S
C29 N31 1.420 . S
C30 H24 0.930 . S
C30 C26 1.407 . S
C30 C29 1.392 . S
N31 C29 1.420 . S
N31 C32 1.244 1_545 S
C32 N31 1.244 1_565 S
H33 C36 0.929 . S
H34 C39 0.929 . S
H35 C41 0.930 . S
C36 H33 0.929 . S
C36 C37 1.398 . S
C36 C38 1.396 1_554 S
C37 C36 1.398 . S
C37 C41 1.407 . S
C38 C36 1.396 1_556 S
C38 C39 1.394 . S
C39 H34 0.929 . S
C39 C38 1.394 . S
C39 C40 1.382 1_556 S
C40 C39 1.382 1_554 S
C40 C41 1.392 . S
C40 N42 1.420 . S
C41 H35 0.930 . S
C41 C37 1.407 . S
C41 C40 1.392 . S
N42 C40 1.420 . S
N42 C43 1.244 1_554 S
C43 N42 1.244 1_556 S
H44 C47 0.929 . S
H45 C50 0.929 . S
H46 C52 0.930 . S
C47 H44 0.929 . S
C47 C48 1.398 . S
C47 C49 1.396 . S
C48 C47 1.398 . S
C48 C52 1.407 . S
C49 C47 1.396 . S
C49 C50 1.394 . S
C50 H45 0.929 . S
C50 C49 1.394 . S
C50 C51 1.382 . S
C51 C50 1.382 . S
C51 C52 1.392 . S
C51 N53 1.420 . S
C52 H46 0.930 . S
C52 C48 1.407 . S
C52 C51 1.392 . S
N53 C51 1.420 . S
N53 C54 1.244 . S
C54 N53 1.244 . S
H55 C58 0.929 . S
H56 C61 0.929 . S
H57 C63 0.930 . S
C58 H55 0.929 . S
C58 C59 1.398 . S
C58 C60 1.396 . S
C59 C58 1.398 . S
C59 C63 1.407 . S
C60 C58 1.396 . S
C60 C61 1.394 . S
C61 H56 0.929 . S
C61 C60 1.394 . S
C61 C62 1.382 . S
C62 C61 1.382 . S
C62 C63 1.392 . S
C62 N64 1.420 . S
C63 H57 0.930 . S
C63 C59 1.407 . S
C63 C62 1.392 . S
N64 C62 1.420 . S
N64 C65 1.244 . S
C65 N64 1.244 . S
H66 C69 0.929 . S
H67 C72 0.929 . S
H68 C74 0.930 . S
C69 H66 0.929 . S
C69 C70 1.398 . S
C69 C71 1.396 . S
C70 C69 1.398 . S
C70 C74 1.407 . S
C71 C69 1.396 . S
C71 C72 1.394 . S
C72 H67 0.929 . S
C72 C71 1.394 . S
C72 C73 1.382 . S
C73 C72 1.382 . S
C73 C74 1.392 . S
C73 N75 1.420 . S
C74 H68 0.930 . S
C74 C70 1.407 . S
C74 C73 1.392 . S
N75 C73 1.420 . S
N75 C76 1.244 . S
C76 N75 1.244 . S
H77 C80 0.929 . S
H78 C83 0.929 . S
H79 C85 0.930 . S
C80 H77 0.929 . S
C80 C81 1.398 . S
C80 C82 1.396 . S
C81 C80 1.398 . S
C81 C85 1.407 . S
C82 C80 1.396 . S
C82 C83 1.394 . S
C83 H78 0.929 . S
C83 C82 1.394 . S
C83 C84 1.382 . S
C84 C83 1.382 . S
C84 C85 1.392 . S
C84 N86 1.420 . S
C85 H79 0.930 . S
C85 C81 1.407 . S
C85 C84 1.392 . S
N86 C84 1.420 . S
N86 C87 1.244 . S
C87 N86 1.244 . S
O88 Zn89 1.956 . S
O88 C104 1.225 1_545 S
Zn89 O88 1.956 . S
Zn89 O90 1.948 1_545 S
Zn89 O96 1.947 . S
Zn89 O101 1.891 1_545 S
O90 Zn89 1.948 1_565 S
O90 Zn91 1.901 1_465 S
O90 Zn92 1.952 . S
O90 Zn93 1.965 1_455 S
Zn91 O90 1.901 1_645 S
Zn91 O94 1.933 . S
Zn91 O97 1.941 1_655 S
Zn91 O98 1.965 . S
Zn92 O90 1.952 . S
Zn92 O99 1.938 1_565 S
Zn92 O100 1.906 . S
Zn92 O110 1.953 . S
Zn93 O90 1.965 1_655 S
Zn93 O95 1.932 . S
Zn93 O102 1.977 . S
Zn93 O103 1.910 1_655 S
O94 Zn91 1.933 . S
O94 C105 1.226 . S
O95 Zn93 1.932 . S
O95 C105 1.307 1_565 S
O96 Zn89 1.947 . S
O96 C107 1.253 . S
O97 Zn91 1.941 1_455 S
O97 C107 1.283 . S
O98 Zn91 1.965 . S
O98 C106 1.303 1_655 S
O99 Zn92 1.938 1_545 S
O99 C106 1.247 . S
O100 Zn92 1.906 . S
O100 C108 1.304 1_455 S
O101 Zn89 1.891 1_565 S
O101 C109 1.311 . S
O102 Zn93 1.977 . S
O102 C108 1.272 . S
O103 Zn93 1.910 1_455 S
O103 C109 1.231 . S
C104 O88 1.225 1_565 S
C104 O110 1.298 . S
C105 O94 1.226 . S
C105 O95 1.307 1_545 S
C106 O98 1.303 1_455 S
C106 O99 1.247 . S
C107 O96 1.253 . S
C107 O97 1.283 . S
C108 O100 1.304 1_655 S
C108 O102 1.272 . S
C109 O101 1.311 . S
C109 O103 1.231 . S
O110 Zn92 1.953 . S
O110 C104 1.298 . S
O111 Zn112 1.953 . S
O111 C127 1.225 . S
Zn112 O111 1.953 . S
Zn112 O113 1.949 . S
Zn112 O119 1.919 . S
Zn112 O124 1.924 . S
O113 Zn112 1.949 . S
O113 Zn114 1.923 1_545 S
O113 Zn115 1.950 . S
O113 Zn116 1.945 1_545 S
Zn114 O113 1.923 1_565 S
Zn114 O117 1.933 . S
Zn114 O120 1.941 . S
Zn114 O121 1.965 . S
Zn115 O113 1.950 . S
Zn115 O122 1.938 . S
Zn115 O123 1.906 . S
Zn115 O133 1.953 . S
Zn116 O113 1.945 1_565 S
Zn116 O118 1.932 . S
Zn116 O125 1.977 . S
Zn116 O126 1.910 1_565 S
O117 Zn114 1.933 . S
O117 C128 1.226 . S
O118 Zn116 1.932 . S
O118 C128 1.307 . S
O119 Zn112 1.919 . S
O119 C130 1.253 . S
O120 Zn114 1.941 . S
O120 C130 1.283 1_565 S
O121 Zn114 1.965 . S
O121 C129 1.303 1_565 S
O122 Zn115 1.938 . S
O122 C129 1.247 . S
O123 Zn115 1.906 . S
O123 C131 1.304 1_545 S
O124 Zn112 1.924 . S
O124 C132 1.311 . S
O125 Zn116 1.977 . S
O125 C131 1.272 . S
O126 Zn116 1.910 1_545 S
O126 C132 1.231 . S
C127 O111 1.225 . S
C127 O133 1.298 . S
C128 O117 1.226 . S
C128 O118 1.307 . S
C129 O121 1.303 1_545 S
C129 O122 1.247 . S
C130 O119 1.253 . S
C130 O120 1.283 1_545 S
C131 O123 1.304 1_565 S
C131 O125 1.272 . S
C132 O124 1.311 . S
C132 O126 1.231 . S
O133 Zn115 1.953 . S
O133 C127 1.298 . S
O134 Zn135 1.953 . S
O134 C150 1.225 . S
Zn135 O134 1.953 . S
Zn135 O136 1.949 . S
Zn135 O142 1.919 . S
Zn135 O147 1.924 . S
O136 Zn135 1.949 . S
O136 Zn137 1.923 . S
O136 Zn138 1.950 . S
O136 Zn139 1.945 . S
Zn137 O136 1.923 . S
Zn137 O140 1.933 . S
Zn137 O143 1.941 . S
Zn137 O144 1.965 . S
Zn138 O136 1.950 . S
Zn138 O145 1.938 . S
Zn138 O146 1.906 . S
Zn138 O156 1.953 . S
Zn139 O136 1.945 . S
Zn139 O141 1.932 . S
Zn139 O148 1.977 . S
Zn139 O149 1.910 . S
O140 Zn137 1.933 . S
O140 C151 1.226 . S
O141 Zn139 1.932 . S
O141 C151 1.307 . S
O142 Zn135 1.919 . S
O142 C153 1.253 . S
O143 Zn137 1.941 . S
O143 C153 1.283 . S
O144 Zn137 1.965 . S
O144 C152 1.303 . S
O145 Zn138 1.938 . S
O145 C152 1.247 . S
O146 Zn138 1.906 . S
O146 C154 1.304 . S
O147 Zn135 1.924 . S
O147 C155 1.311 . S
O148 Zn139 1.977 . S
O148 C154 1.272 . S
O149 Zn139 1.910 . S
O149 C155 1.231 . S
C150 O134 1.225 . S
C150 O156 1.298 . S
C151 O140 1.226 . S
C151 O141 1.307 . S
C152 O144 1.303 . S
C152 O145 1.247 . S
C153 O142 1.253 . S
C153 O143 1.283 . S
C154 O146 1.304 . S
C154 O148 1.272 . S
C155 O147 1.311 . S
C155 O149 1.231 . S
O156 Zn138 1.953 . S
O156 C150 1.298 . S
O157 Zn158 1.921 1_655 S
O157 C173 1.225 . S
Zn158 O157 1.921 1_455 S
Zn158 O159 1.949 . S
Zn158 O165 1.919 . S
Zn158 O170 1.958 . S
O159 Zn158 1.949 . S
O159 Zn160 1.918 1_455 S
O159 Zn161 1.929 1_455 S
O159 Zn162 1.973 . S
Zn160 O159 1.918 1_655 S
Zn160 O163 1.933 1_655 S
Zn160 O166 1.941 . S
Zn160 O167 1.965 . S
Zn161 O159 1.929 1_655 S
Zn161 O168 1.938 . S
Zn161 O169 1.906 . S
Zn161 O179 1.953 . S
Zn162 O159 1.973 . S
Zn162 O164 1.932 . S
Zn162 O171 1.977 . S
Zn162 O172 1.910 . S
O163 Zn160 1.933 1_455 S
O163 C174 1.226 . S
O164 Zn162 1.932 . S
O164 C174 1.307 . S
O165 Zn158 1.919 . S
O165 C176 1.253 . S
O166 Zn160 1.941 . S
O166 C176 1.284 1_655 S
O167 Zn160 1.965 . S
O167 C175 1.303 . S
O168 Zn161 1.938 . S
O168 C175 1.247 . S
O169 Zn161 1.906 . S
O169 C177 1.304 1_655 S
O170 Zn158 1.958 . S
O170 C178 1.311 . S
O171 Zn162 1.977 . S
O171 C177 1.272 . S
O172 Zn162 1.910 . S
O172 C178 1.231 . S
C173 O157 1.225 . S
C173 O179 1.298 . S
C174 O163 1.226 . S
C174 O164 1.307 . S
C175 O167 1.303 . S
C175 O168 1.247 . S
C176 O165 1.253 . S
C176 O166 1.284 1_455 S
C177 O169 1.304 1_455 S
C177 O171 1.272 . S
C178 O170 1.311 . S
C178 O172 1.231 . S
O179 Zn161 1.953 . S
O179 C173 1.298 . S
H180 C192 0.930 . S
H181 C194 0.930 . S
H182 C195 0.930 . S
H183 C199 0.959 . S
H184 C199 0.959 . S
H185 C199 0.961 . S
H186 C200 0.960 . S
H187 C200 0.961 . S
H188 C200 0.959 . S
H189 C203 0.929 . S
H190 C204 0.931 . S
H191 C206 0.930 . S
C192 H180 0.930 . S
C192 C193 1.399 1_565 S
C192 C197 1.399 . S
C193 C192 1.399 1_545 S
C193 C194 1.376 . S
C194 H181 0.930 . S
C194 C193 1.376 . S
C194 C195 1.388 . S
C195 H182 0.930 . S
C195 C194 1.388 . S
C195 C196 1.390 . S
C196 C195 1.390 . S
C196 C197 1.394 1_545 S
C196 C202 1.465 . S
C197 C192 1.399 . S
C197 C196 1.394 1_565 S
C197 C198 1.516 . S
C198 C197 1.516 . S
C198 C199 1.502 . S
C198 C200 1.561 . S
C198 C201 1.526 . S
C199 H183 0.959 . S
C199 H184 0.959 . S
C199 H185 0.961 . S
C199 C198 1.502 . S
C200 H186 0.960 . S
C200 H187 0.961 . S
C200 H188 0.959 . S
C200 C198 1.561 . S
C201 C198 1.526 . S
C201 C202 1.396 1_565 S
C201 C206 1.390 . S
C202 C196 1.465 . S
C202 C201 1.396 1_545 S
C202 C203 1.399 . S
C203 H189 0.929 . S
C203 C202 1.399 . S
C203 C204 1.385 . S
C204 H190 0.931 . S
C204 C203 1.385 . S
C204 C205 1.389 . S
C205 C204 1.389 . S
C205 C206 1.387 1_545 S
C206 H191 0.930 . S
C206 C201 1.390 . S
C206 C205 1.387 1_565 S
H207 C219 0.930 . S
H208 C221 0.930 . S
H209 C222 0.930 . S
H210 C226 0.959 . S
H211 C226 0.959 . S
H212 C226 0.961 . S
H213 C227 0.960 . S
H214 C227 0.961 . S
H215 C227 0.959 . S
H216 C230 0.929 . S
H217 C231 0.931 . S
H218 C233 0.930 . S
C219 H207 0.930 . S
C219 C220 1.399 . S
C219 C224 1.399 . S
C220 C219 1.399 . S
C220 C221 1.376 . S
C221 H208 0.930 . S
C221 C220 1.376 . S
C221 C222 1.388 . S
C222 H209 0.930 . S
C222 C221 1.388 . S
C222 C223 1.390 . S
C223 C222 1.390 . S
C223 C224 1.394 . S
C223 C229 1.465 . S
C224 C219 1.399 . S
C224 C223 1.394 . S
C224 C225 1.516 . S
C225 C224 1.516 . S
C225 C226 1.502 . S
C225 C227 1.561 . S
C225 C228 1.526 . S
C226 H210 0.959 . S
C226 H211 0.959 . S
C226 H212 0.961 . S
C226 C225 1.502 . S
C227 H213 0.960 . S
C227 H214 0.961 . S
C227 H215 0.959 . S
C227 C225 1.561 . S
C228 C225 1.526 . S
C228 C229 1.396 . S
C228 C233 1.390 . S
C229 C223 1.465 . S
C229 C228 1.396 . S
C229 C230 1.399 . S
C230 H216 0.929 . S
C230 C229 1.399 . S
C230 C231 1.385 . S
C231 H217 0.931 . S
C231 C230 1.385 . S
C231 C232 1.389 . S
C232 C231 1.389 . S
C232 C233 1.387 . S
C233 H218 0.930 . S
C233 C228 1.390 . S
C233 C232 1.387 . S
H234 C246 0.930 . S
H235 C248 0.930 . S
H236 C249 0.930 . S
H237 C253 0.959 . S
H238 C253 0.959 . S
H239 C253 0.961 . S
H240 C254 0.960 . S
H241 C254 0.961 . S
H242 C254 0.959 . S
H243 C257 0.929 . S
H244 C258 0.931 . S
H245 C260 0.930 . S
C246 H234 0.930 . S
C246 C247 1.399 . S
C246 C251 1.399 . S
C247 C246 1.399 . S
C247 C248 1.376 . S
C248 H235 0.930 . S
C248 C247 1.376 . S
C248 C249 1.388 . S
C249 H236 0.930 . S
C249 C248 1.388 . S
C249 C250 1.390 . S
C250 C249 1.390 . S
C250 C251 1.394 . S
C250 C256 1.465 . S
C251 C246 1.399 . S
C251 C250 1.394 . S
C251 C252 1.516 . S
C252 C251 1.516 . S
C252 C253 1.502 . S
C252 C254 1.561 . S
C252 C255 1.526 . S
C253 H237 0.959 . S
C253 H238 0.959 . S
C253 H239 0.961 . S
C253 C252 1.502 . S
C254 H240 0.960 . S
C254 H241 0.961 . S
C254 H242 0.959 . S
C254 C252 1.561 . S
C255 C252 1.526 . S
C255 C256 1.396 . S
C255 C260 1.390 . S
C256 C250 1.465 . S
C256 C255 1.396 . S
C256 C257 1.399 . S
C257 H243 0.929 . S
C257 C256 1.399 . S
C257 C258 1.385 . S
C258 H244 0.931 . S
C258 C257 1.385 . S
C258 C259 1.389 . S
C259 C258 1.389 . S
C259 C260 1.387 . S
C260 H245 0.930 . S
C260 C255 1.390 . S
C260 C259 1.387 . S
H261 C273 0.930 . S
H262 C275 0.930 . S
H263 C276 0.930 . S
H264 C280 0.959 . S
H265 C280 0.959 . S
H266 C280 0.961 . S
H267 C281 0.960 . S
H268 C281 0.961 . S
H269 C281 0.959 1_655 S
H270 C284 0.929 . S
H271 C285 0.931 1_655 S
H272 C287 0.930 . S
C273 H261 0.930 . S
C273 C274 1.399 . S
C273 C278 1.399 . S
C274 C273 1.399 . S
C274 C275 1.376 . S
C275 H262 0.930 . S
C275 C274 1.376 . S
C275 C276 1.388 . S
C276 H263 0.930 . S
C276 C275 1.388 . S
C276 C277 1.390 . S
C277 C276 1.390 . S
C277 C278 1.394 . S
C277 C283 1.465 . S
C278 C273 1.399 . S
C278 C277 1.394 . S
C278 C279 1.516 . S
C279 C278 1.516 . S
C279 C280 1.502 . S
C279 C281 1.561 . S
C279 C282 1.526 . S
C280 H264 0.959 . S
C280 H265 0.959 . S
C280 H266 0.961 . S
C280 C279 1.502 . S
C281 H267 0.960 . S
C281 H268 0.961 . S
C281 H269 0.959 1_455 S
C281 C279 1.561 . S
C282 C279 1.526 . S
C282 C283 1.396 . S
C282 C287 1.390 . S
C283 C277 1.465 . S
C283 C282 1.396 . S
C283 C284 1.399 . S
C284 H270 0.929 . S
C284 C283 1.399 . S
C284 C285 1.385 . S
C285 H271 0.931 1_455 S
C285 C284 1.385 . S
C285 C286 1.389 . S
C286 C285 1.389 . S
C286 C287 1.387 . S
C287 H272 0.930 . S
C287 C282 1.390 . S
C287 C286 1.387 . S
H288 C300 0.930 . S
H289 C302 0.930 . S
H290 C303 0.930 1_554 S
H291 C307 0.959 . S
H292 C307 0.959 . S
H293 C307 0.961 . S
H294 C308 0.960 . S
H295 C308 0.961 . S
H296 C308 0.959 . S
H297 C311 0.929 . S
H298 C312 0.931 . S
H299 C314 0.930 . S
C300 H288 0.930 . S
C300 C301 1.399 1_545 S
C300 C305 1.399 . S
C301 C300 1.399 1_565 S
C301 C302 1.376 1_556 S
C302 H289 0.930 . S
C302 C301 1.376 1_554 S
C302 C303 1.388 1_554 S
C303 H290 0.930 1_556 S
C303 C302 1.388 1_556 S
C303 C304 1.390 . S
C304 C303 1.390 . S
C304 C305 1.394 1_565 S
C304 C310 1.465 . S
C305 C300 1.399 . S
C305 C304 1.394 1_545 S
C305 C306 1.516 . S
C306 C305 1.516 . S
C306 C307 1.502 . S
C306 C308 1.561 . S
C306 C309 1.526 . S
C307 H291 0.959 . S
C307 H292 0.959 . S
C307 H293 0.961 . S
C307 C306 1.502 . S
C308 H294 0.960 . S
C308 H295 0.961 . S
C308 H296 0.959 . S
C308 C306 1.561 . S
C309 C306 1.526 . S
C309 C310 1.396 1_545 S
C309 C314 1.390 . S
C310 C304 1.465 . S
C310 C309 1.396 1_565 S
C310 C311 1.399 . S
C311 H297 0.929 . S
C311 C310 1.399 . S
C311 C312 1.385 . S
C312 H298 0.931 . S
C312 C311 1.385 . S
C312 C313 1.393 . S
C313 C312 1.393 . S
C313 C314 1.384 1_565 S
C314 H299 0.930 . S
C314 C309 1.390 . S
C314 C313 1.384 1_545 S
H315 C327 0.930 1_554 S
H316 C329 0.930 . S
H317 C330 0.930 . S
H318 C334 0.960 . S
H319 C334 0.959 . S
H320 C334 0.961 1_554 S
H321 C335 0.960 . S
H322 C335 0.961 . S
H323 C335 0.959 . S
H324 C338 0.929 . S
H325 C339 0.931 . S
H326 C341 0.930 . S
C327 H315 0.930 1_556 S
C327 C328 1.399 . S
C327 C332 1.399 . S
C328 C327 1.399 . S
C328 C329 1.376 . S
C329 H316 0.930 . S
C329 C328 1.376 . S
C329 C330 1.388 . S
C330 H317 0.930 . S
C330 C329 1.388 . S
C330 C331 1.390 . S
C331 C330 1.390 . S
C331 C332 1.394 . S
C331 C337 1.465 . S
C332 C327 1.399 . S
C332 C331 1.394 . S
C332 C333 1.516 . S
C333 C332 1.516 . S
C333 C334 1.502 . S
C333 C335 1.561 . S
C333 C336 1.526 . S
C334 H318 0.960 . S
C334 H319 0.959 . S
C334 H320 0.961 1_556 S
C334 C333 1.502 . S
C335 H321 0.960 . S
C335 H322 0.961 . S
C335 H323 0.959 . S
C335 C333 1.561 . S
C336 C333 1.526 . S
C336 C337 1.396 . S
C336 C341 1.390 . S
C337 C331 1.465 . S
C337 C336 1.396 . S
C337 C338 1.399 . S
C338 H324 0.929 . S
C338 C337 1.399 . S
C338 C339 1.385 . S
C339 H325 0.931 . S
C339 C338 1.385 . S
C339 C340 1.389 . S
C340 C339 1.389 . S
C340 C341 1.387 . S
C341 H326 0.930 . S
C341 C336 1.390 . S
C341 C340 1.387 . S
H342 C354 0.930 . S
H343 C356 0.930 . S
H344 C357 0.930 . S
H345 C361 0.959 . S
H346 C361 0.959 . S
H347 C361 0.961 . S
H348 C362 0.960 . S
H349 C362 0.961 . S
H350 C362 0.959 . S
H351 C365 0.929 . S
H352 C366 0.931 . S
H353 C368 0.930 . S
C354 H342 0.930 . S
C354 C355 1.399 . S
C354 C359 1.399 . S
C355 C354 1.399 . S
C355 C356 1.376 . S
C356 H343 0.930 . S
C356 C355 1.376 . S
C356 C357 1.388 . S
C357 H344 0.930 . S
C357 C356 1.388 . S
C357 C358 1.390 . S
C358 C357 1.390 . S
C358 C359 1.394 . S
C358 C364 1.465 . S
C359 C354 1.399 . S
C359 C358 1.394 . S
C359 C360 1.516 . S
C360 C359 1.516 . S
C360 C361 1.502 . S
C360 C362 1.561 . S
C360 C363 1.526 . S
C361 H345 0.959 . S
C361 H346 0.959 . S
C361 H347 0.961 . S
C361 C360 1.502 . S
C362 H348 0.960 . S
C362 H349 0.961 . S
C362 H350 0.959 . S
C362 C360 1.561 . S
C363 C360 1.526 . S
C363 C364 1.396 . S
C363 C368 1.390 . S
C364 C358 1.465 . S
C364 C363 1.396 . S
C364 C365 1.399 . S
C365 H351 0.929 . S
C365 C364 1.399 . S
C365 C366 1.385 . S
C366 H352 0.931 . S
C366 C365 1.385 . S
C366 C367 1.389 . S
C367 C366 1.389 . S
C367 C368 1.387 . S
C368 H353 0.930 . S
C368 C363 1.390 . S
C368 C367 1.387 . S
H369 C381 0.930 . S
H370 C383 0.930 . S
H371 C384 0.930 . S
H372 C388 0.959 1_655 S
H373 C388 0.959 . S
H374 C388 0.961 . S
H375 C389 0.960 . S
H376 C389 0.961 . S
H377 C389 0.959 . S
H378 C392 0.929 . S
H379 C393 0.931 . S
H380 C395 0.930 . S
C381 H369 0.930 . S
C381 C382 1.399 1_456 S
C381 C386 1.399 . S
C382 C381 1.399 1_654 S
C382 C383 1.376 . S
C383 H370 0.930 . S
C383 C382 1.376 . S
C383 C384 1.388 . S
C384 H371 0.930 . S
C384 C383 1.388 . S
C384 C385 1.390 1_554 S
C385 C384 1.390 1_556 S
C385 C386 1.394 1_655 S
C385 C391 1.465 . S
C386 C381 1.399 . S
C386 C385 1.394 1_455 S
C386 C387 1.516 . S
C387 C386 1.516 . S
C387 C388 1.502 . S
C387 C389 1.561 . S
C387 C390 1.526 . S
C388 H372 0.959 1_455 S
C388 H373 0.959 . S
C388 H374 0.961 . S
C388 C387 1.502 . S
C389 H375 0.960 . S
C389 H376 0.961 . S
C389 H377 0.959 . S
C389 C387 1.561 . S
C390 C387 1.526 . S
C390 C391 1.396 1_455 S
C390 C395 1.390 . S
C391 C385 1.465 . S
C391 C390 1.396 1_655 S
C391 C392 1.399 . S
C392 H378 0.929 . S
C392 C391 1.399 . S
C392 C393 1.385 . S
C393 H379 0.931 . S
C393 C392 1.385 . S
C393 C394 1.389 1_655 S
C394 C393 1.389 1_455 S
C394 C395 1.387 . S
C395 H380 0.930 . S
C395 C390 1.390 . S
C395 C394 1.387 . S
H396 C408 0.930 . S
H397 C410 0.930 . S
H398 C411 0.930 . S
H399 C415 0.959 . S
H400 C415 0.959 . S
H401 C415 0.961 . S
H402 C416 0.960 . S
H403 C416 0.961 . S
H404 C416 0.959 1_655 S
H405 C419 0.929 . S
H406 C420 0.931 . S
H407 C422 0.930 . S
C408 H396 0.930 . S
C408 C409 1.399 . S
C408 C413 1.399 . S
C409 C408 1.399 . S
C409 C410 1.376 . S
C410 H397 0.930 . S
C410 C409 1.376 . S
C410 C411 1.388 . S
C411 H398 0.930 . S
C411 C410 1.388 . S
C411 C412 1.390 . S
C412 C411 1.390 . S
C412 C413 1.394 . S
C412 C418 1.465 . S
C413 C408 1.399 . S
C413 C412 1.394 . S
C413 C414 1.516 . S
C414 C413 1.516 . S
C414 C415 1.502 . S
C414 C416 1.561 . S
C414 C417 1.526 . S
C415 H399 0.959 . S
C415 H400 0.959 . S
C415 H401 0.961 . S
C415 C414 1.502 . S
C416 H402 0.960 . S
C416 H403 0.961 . S
C416 H404 0.959 1_455 S
C416 C414 1.561 . S
C417 C414 1.526 . S
C417 C418 1.396 . S
C417 C422 1.390 . S
C418 C412 1.465 . S
C418 C417 1.396 . S
C418 C419 1.399 . S
C419 H405 0.929 . S
C419 C418 1.399 . S
C419 C420 1.385 . S
C420 H406 0.931 . S
C420 C419 1.385 . S
C420 C421 1.389 . S
C421 C420 1.389 . S
C421 C422 1.387 . S
C422 H407 0.930 . S
C422 C417 1.390 . S
C422 C421 1.387 . S
H423 C435 0.930 . S
H424 C437 0.930 . S
H425 C438 0.930 . S
H426 C442 0.959 . S
H427 C442 0.959 . S
H428 C442 0.961 . S
H429 C443 0.960 . S
H430 C443 0.961 . S
H431 C443 0.959 . S
H432 C446 0.929 . S
H433 C447 0.931 . S
H434 C449 0.930 . S
C435 H423 0.930 . S
C435 C436 1.399 . S
C435 C440 1.399 . S
C436 C435 1.399 . S
C436 C437 1.376 1_545 S
C437 H424 0.930 . S
C437 C436 1.376 1_565 S
C437 C438 1.388 . S
C438 H425 0.930 . S
C438 C437 1.388 . S
C438 C439 1.390 . S
C439 C438 1.390 . S
C439 C440 1.394 1_565 S
C439 C445 1.465 . S
C440 C435 1.399 . S
C440 C439 1.394 1_545 S
C440 C441 1.516 . S
C441 C440 1.516 . S
C441 C442 1.502 . S
C441 C443 1.561 . S
C441 C444 1.526 . S
C442 H426 0.959 . S
C442 H427 0.959 . S
C442 H428 0.961 . S
C442 C441 1.502 . S
C443 H429 0.960 . S
C443 H430 0.961 . S
C443 H431 0.959 . S
C443 C441 1.561 . S
C444 C441 1.526 . S
C444 C445 1.396 1_545 S
C444 C449 1.390 . S
C445 C439 1.465 . S
C445 C444 1.396 1_565 S
C445 C446 1.399 . S
C446 H432 0.929 . S
C446 C445 1.399 . S
C446 C447 1.385 . S
C447 H433 0.931 . S
C447 C446 1.385 . S
C447 C448 1.389 1_565 S
C448 C447 1.389 1_545 S
C448 C449 1.387 . S
C449 H434 0.930 . S
C449 C444 1.390 . S
C449 C448 1.387 . S
H450 C462 0.930 . S
H451 C464 0.930 . S
H452 C465 0.930 . S
H453 C469 0.959 . S
H454 C469 0.959 . S
H455 C469 0.961 . S
H456 C470 0.960 . S
H457 C470 0.961 . S
H458 C470 0.959 . S
H459 C473 0.929 . S
H460 C474 0.931 . S
H461 C476 0.930 . S
C462 H450 0.930 . S
C462 C463 1.399 . S
C462 C467 1.399 . S
C463 C462 1.399 . S
C463 C464 1.376 . S
C464 H451 0.930 . S
C464 C463 1.376 . S
C464 C465 1.388 . S
C465 H452 0.930 . S
C465 C464 1.388 . S
C465 C466 1.390 . S
C466 C465 1.390 . S
C466 C467 1.394 . S
C466 C472 1.465 . S
C467 C462 1.399 . S
C467 C466 1.394 . S
C467 C468 1.516 . S
C468 C467 1.516 . S
C468 C469 1.502 . S
C468 C470 1.561 . S
C468 C471 1.526 . S
C469 H453 0.959 . S
C469 H454 0.959 . S
C469 H455 0.961 . S
C469 C468 1.502 . S
C470 H456 0.960 . S
C470 H457 0.961 . S
C470 H458 0.959 . S
C470 C468 1.561 . S
C471 C468 1.526 . S
C471 C472 1.396 . S
C471 C476 1.390 . S
C472 C466 1.465 . S
C472 C471 1.396 . S
C472 C473 1.399 . S
C473 H459 0.929 . S
C473 C472 1.399 . S
C473 C474 1.385 . S
C474 H460 0.931 . S
C474 C473 1.385 . S
C474 C475 1.389 . S
C475 C474 1.389 . S
C475 C476 1.387 . S
C476 H461 0.930 . S
C476 C471 1.390 . S
C476 C475 1.387 . S
H477 C489 0.930 . S
H478 C491 0.930 . S
H479 C492 0.930 . S
H480 C496 0.959 . S
H481 C496 0.959 . S
H482 C496 0.961 . S
H483 C497 0.960 . S
H484 C497 0.961 . S
H485 C497 0.959 . S
H486 C500 0.929 . S
H487 C501 0.931 . S
H488 C503 0.930 . S
C489 H477 0.930 . S
C489 C490 1.399 . S
C489 C494 1.399 . S
C490 C489 1.399 . S
C490 C491 1.376 . S
C491 H478 0.930 . S
C491 C490 1.376 . S
C491 C492 1.388 . S
C492 H479 0.930 . S
C492 C491 1.388 . S
C492 C493 1.390 . S
C493 C492 1.390 . S
C493 C494 1.394 . S
C493 C499 1.465 . S
C494 C489 1.399 . S
C494 C493 1.394 . S
C494 C495 1.516 . S
C495 C494 1.516 . S
C495 C496 1.502 . S
C495 C497 1.561 . S
C495 C498 1.526 . S
C496 H480 0.959 . S
C496 H481 0.959 . S
C496 H482 0.961 . S
C496 C495 1.502 . S
C497 H483 0.960 . S
C497 H484 0.961 . S
C497 H485 0.959 . S
C497 C495 1.561 . S
C498 C495 1.526 . S
C498 C499 1.396 . S
C498 C503 1.390 . S
C499 C493 1.465 . S
C499 C498 1.396 . S
C499 C500 1.399 . S
C500 H486 0.929 . S
C500 C499 1.399 . S
C500 C501 1.385 . S
C501 H487 0.931 . S
C501 C500 1.385 . S
C501 C502 1.389 . S
C502 C501 1.389 . S
C502 C503 1.387 . S
C503 H488 0.930 . S
C503 C498 1.390 . S
C503 C502 1.387 . S
H504 C516 0.930 . S
H505 C518 0.930 . S
H506 C519 0.930 . S
H507 C523 0.959 . S
H508 C523 0.959 . S
H509 C523 0.961 . S
H510 C524 0.960 1_554 S
H511 C524 0.961 . S
H512 C524 0.959 1_554 S
H513 C527 0.929 . S
H514 C528 0.931 . S
H515 C530 0.944 . S
C516 H504 0.930 . S
C516 C517 1.399 1_656 S
C516 C521 1.394 1_655 S
C517 C516 1.399 1_454 S
C517 C518 1.376 . S
C518 H505 0.930 . S
C518 C517 1.376 . S
C518 C519 1.388 . S
C519 H506 0.930 . S
C519 C518 1.388 . S
C519 C520 1.390 1_554 S
C520 C519 1.390 1_556 S
C520 C521 1.406 . S
C520 C526 1.465 . S
C521 C516 1.394 1_455 S
C521 C520 1.406 . S
C521 C522 1.511 1_455 S
C522 C521 1.511 1_655 S
C522 C523 1.502 . S
C522 C524 1.561 . S
C522 C525 1.526 1_655 S
C523 H507 0.959 . S
C523 H508 0.959 . S
C523 H509 0.961 . S
C523 C522 1.502 . S
C524 H510 0.960 1_556 S
C524 H511 0.961 . S
C524 H512 0.959 1_556 S
C524 C522 1.561 . S
C525 C522 1.526 1_455 S
C525 C526 1.396 . S
C525 C530 1.390 . S
C526 C520 1.465 . S
C526 C525 1.396 . S
C526 C527 1.399 . S
C527 H513 0.929 . S
C527 C526 1.399 . S
C527 C528 1.385 . S
C528 H514 0.931 . S
C528 C527 1.385 . S
C528 C529 1.389 . S
C529 C528 1.389 . S
C529 C530 1.387 . S
C530 H515 0.944 . S
C530 C525 1.390 . S
C530 C529 1.387 . S
H531 C543 0.930 . S
H532 C545 0.930 . S
H533 C546 0.930 . S
H534 C550 0.959 1_554 S
H535 C550 0.959 . S
H536 C550 0.961 . S
H537 C551 0.960 . S
H538 C551 0.961 . S
H539 C551 0.959 . S
H540 C554 0.929 . S
H541 C555 0.931 1_565 S
H542 C557 0.930 . S
C543 H531 0.930 . S
C543 C544 1.399 1_545 S
C543 C548 1.399 . S
C544 C543 1.399 1_565 S
C544 C545 1.376 . S
C545 H532 0.930 . S
C545 C544 1.376 . S
C545 C546 1.388 . S
C546 H533 0.930 . S
C546 C545 1.388 . S
C546 C547 1.377 1_565 S
C547 C546 1.377 1_545 S
C547 C548 1.405 . S
C547 C553 1.469 . S
C548 C543 1.399 . S
C548 C547 1.405 . S
C548 C549 1.516 . S
C549 C548 1.516 . S
C549 C550 1.502 . S
C549 C551 1.561 . S
C549 C552 1.526 . S
C550 H534 0.959 1_556 S
C550 H535 0.959 . S
C550 H536 0.961 . S
C550 C549 1.502 . S
C551 H537 0.960 . S
C551 H538 0.961 . S
C551 H539 0.959 . S
C551 C549 1.561 . S
C552 C549 1.526 . S
C552 C553 1.396 . S
C552 C557 1.390 . S
C553 C547 1.469 . S
C553 C552 1.396 . S
C553 C554 1.399 1_545 S
C554 H540 0.929 . S
C554 C553 1.399 1_565 S
C554 C555 1.385 1_565 S
C555 H541 0.931 1_545 S
C555 C554 1.385 1_545 S
C555 C556 1.389 . S
C556 C555 1.389 . S
C556 C557 1.387 . S
C557 H542 0.930 . S
C557 C552 1.390 . S
C557 C556 1.387 . S
H558 C570 0.930 1_554 S
H559 C572 0.930 . S
H560 C573 0.930 . S
H561 C577 0.959 . S
H562 C577 0.959 . S
H563 C577 0.961 . S
H564 C578 0.960 . S
H565 C578 0.961 . S
H566 C578 0.959 . S
H567 C581 0.929 . S
H568 C582 0.931 . S
H569 C584 0.930 . S
C570 H558 0.930 1_556 S
C570 C571 1.399 . S
C570 C575 1.399 . S
C571 C570 1.399 . S
C571 C572 1.376 . S
C572 H559 0.930 . S
C572 C571 1.376 . S
C572 C573 1.388 . S
C573 H560 0.930 . S
C573 C572 1.388 . S
C573 C574 1.390 . S
C574 C573 1.390 . S
C574 C575 1.394 . S
C574 C580 1.465 . S
C575 C570 1.399 . S
C575 C574 1.394 . S
C575 C576 1.516 . S
C576 C575 1.516 . S
C576 C577 1.502 . S
C576 C578 1.561 1_556 S
C576 C579 1.526 . S
C577 H561 0.959 . S
C577 H562 0.959 . S
C577 H563 0.961 . S
C577 C576 1.502 . S
C578 H564 0.960 . S
C578 H565 0.961 . S
C578 H566 0.959 . S
C578 C576 1.561 1_554 S
C579 C576 1.526 . S
C579 C580 1.396 . S
C579 C584 1.390 . S
C580 C574 1.465 . S
C580 C579 1.396 . S
C580 C581 1.399 . S
C581 H567 0.929 . S
C581 C580 1.399 . S
C581 C582 1.385 . S
C582 H568 0.931 . S
C582 C581 1.385 . S
C582 C583 1.389 . S
C583 C582 1.389 . S
C583 C584 1.387 . S
C584 H569 0.930 . S
C584 C579 1.390 . S
C584 C583 1.387 . S
H585 C597 0.930 . S
H586 C599 0.930 . S
H587 C600 0.930 . S
H588 C604 0.959 . S
H589 C604 0.959 . S
H590 C604 0.961 1_554 S
H591 C605 0.960 . S
H592 C605 0.961 . S
H593 C605 0.959 . S
H594 C608 0.929 . S
H595 C609 0.931 . S
H596 C611 0.930 . S
C597 H585 0.930 . S
C597 C598 1.399 . S
C597 C602 1.399 . S
C598 C597 1.399 . S
C598 C599 1.376 . S
C599 H586 0.930 . S
C599 C598 1.376 . S
C599 C600 1.388 . S
C600 H587 0.930 . S
C600 C599 1.388 . S
C600 C601 1.390 . S
C601 C600 1.390 . S
C601 C602 1.394 . S
C601 C607 1.465 . S
C602 C597 1.399 . S
C602 C601 1.394 . S
C602 C603 1.516 . S
C603 C602 1.516 . S
C603 C604 1.502 . S
C603 C605 1.561 . S
C603 C606 1.526 . S
C604 H588 0.959 . S
C604 H589 0.959 . S
C604 H590 0.961 1_556 S
C604 C603 1.502 . S
C605 H591 0.960 . S
C605 H592 0.961 . S
C605 H593 0.959 . S
C605 C603 1.561 . S
C606 C603 1.526 . S
C606 C607 1.396 . S
C606 C611 1.390 . S
C607 C601 1.465 . S
C607 C606 1.396 . S
C607 C608 1.399 . S
C608 H594 0.929 . S
C608 C607 1.399 . S
C608 C609 1.385 . S
C609 H595 0.931 . S
C609 C608 1.385 . S
C609 C610 1.389 . S
C610 C609 1.389 . S
C610 C611 1.387 . S
C611 H596 0.930 . S
C611 C606 1.390 . S
C611 C610 1.387 . S
H612 C624 0.930 . S
H613 C626 0.930 . S
H614 C627 0.930 . S
H615 C631 0.959 . S
H616 C631 0.959 . S
H617 C631 0.961 . S
H618 C632 0.960 . S
H619 C632 0.961 . S
H620 C632 0.959 1_655 S
H621 C635 0.929 . S
H622 C636 0.931 . S
H623 C638 0.930 . S
C624 H612 0.930 . S
C624 C625 1.399 . S
C624 C629 1.399 . S
C625 C624 1.399 . S
C625 C626 1.376 . S
C626 H613 0.930 . S
C626 C625 1.376 . S
C626 C627 1.388 . S
C627 H614 0.930 . S
C627 C626 1.388 . S
C627 C628 1.390 . S
C628 C627 1.390 . S
C628 C629 1.394 . S
C628 C634 1.465 . S
C629 C624 1.399 . S
C629 C628 1.394 . S
C629 C630 1.516 . S
C630 C629 1.516 . S
C630 C631 1.502 . S
C630 C632 1.561 . S
C630 C633 1.526 . S
C631 H615 0.959 . S
C631 H616 0.959 . S
C631 H617 0.961 . S
C631 C630 1.502 . S
C632 H618 0.960 . S
C632 H619 0.961 . S
C632 H620 0.959 1_455 S
C632 C630 1.561 . S
C633 C630 1.526 . S
C633 C634 1.396 . S
C633 C638 1.390 . S
C634 C628 1.465 . S
C634 C633 1.396 . S
C634 C635 1.399 1_554 S
C635 H621 0.929 . S
C635 C634 1.399 1_556 S
C635 C636 1.385 . S
C636 H622 0.931 . S
C636 C635 1.385 . S
C636 C637 1.389 . S
C637 C636 1.389 . S
C637 C638 1.387 1_556 S
C638 H623 0.930 . S
C638 C633 1.390 . S
C638 C637 1.387 1_554 S
H639 C651 0.930 . S
H640 C653 0.930 . S
H641 C654 0.930 . S
H642 C658 0.959 . S
H643 C658 0.959 . S
H644 C658 0.961 . S
H645 C659 0.960 . S
H646 C659 0.961 1_556 S
H647 C659 0.959 . S
H648 C662 0.929 . S
H649 C663 0.931 . S
H650 C665 0.930 . S
C651 H639 0.930 . S
C651 C652 1.399 . S
C651 C656 1.399 . S
C652 C651 1.399 . S
C652 C653 1.376 1_545 S
C653 H640 0.930 . S
C653 C652 1.376 1_565 S
C653 C654 1.388 . S
C654 H641 0.930 . S
C654 C653 1.388 . S
C654 C655 1.390 . S
C655 C654 1.390 . S
C655 C656 1.394 1_565 S
C655 C661 1.465 . S
C656 C651 1.399 . S
C656 C655 1.394 1_545 S
C656 C657 1.516 1_554 S
C657 C656 1.516 1_556 S
C657 C658 1.502 . S
C657 C659 1.561 1_556 S
C657 C660 1.526 . S
C658 H642 0.959 . S
C658 H643 0.959 . S
C658 H644 0.961 . S
C658 C657 1.502 . S
C659 H645 0.960 . S
C659 H646 0.961 1_554 S
C659 H647 0.959 . S
C659 C657 1.561 1_554 S
C660 C657 1.526 . S
C660 C661 1.396 1_546 S
C660 C665 1.390 . S
C661 C655 1.465 . S
C661 C660 1.396 1_564 S
C661 C662 1.399 . S
C662 H648 0.929 . S
C662 C661 1.399 . S
C662 C663 1.385 1_554 S
C663 H649 0.931 . S
C663 C662 1.385 1_556 S
C663 C664 1.389 1_565 S
C664 C663 1.389 1_545 S
C664 C665 1.387 . S
C665 H650 0.930 . S
C665 C660 1.390 . S
C665 C664 1.387 . S
H666 C678 0.930 . S
H667 C680 0.930 . S
H668 C681 0.930 1_556 S
H669 C685 0.959 1_556 S
H670 C685 0.959 . S
H671 C685 0.961 . S
H672 C686 0.960 . S
H673 C686 0.961 . S
H674 C686 0.959 . S
H675 C689 0.929 . S
H676 C690 0.931 . S
H677 C692 0.930 . S
C678 H666 0.930 . S
C678 C679 1.399 . S
C678 C683 1.399 . S
C679 C678 1.399 . S
C679 C680 1.376 . S
C680 H667 0.930 . S
C680 C679 1.376 . S
C680 C681 1.388 . S
C681 H668 0.930 1_554 S
C681 C680 1.388 . S
C681 C682 1.390 . S
C682 C681 1.390 . S
C682 C683 1.394 . S
C682 C688 1.465 1_554 S
C683 C678 1.399 . S
C683 C682 1.394 . S
C683 C684 1.516 . S
C684 C683 1.516 . S
C684 C685 1.502 . S
C684 C686 1.561 . S
C684 C687 1.526 1_554 S
C685 H669 0.959 1_554 S
C685 H670 0.959 . S
C685 H671 0.961 . S
C685 C684 1.502 . S
C686 H672 0.960 . S
C686 H673 0.961 . S
C686 H674 0.959 . S
C686 C684 1.561 . S
C687 C684 1.526 1_556 S
C687 C688 1.396 . S
C687 C692 1.390 . S
C688 C682 1.465 1_556 S
C688 C687 1.396 . S
C688 C689 1.399 . S
C689 H675 0.929 . S
C689 C688 1.399 . S
C689 C690 1.385 . S
C690 H676 0.931 . S
C690 C689 1.385 . S
C690 C691 1.389 . S
C691 C690 1.389 . S
C691 C692 1.387 . S
C692 H677 0.930 . S
C692 C687 1.390 . S
C692 C691 1.387 . S
H693 C705 0.930 . S
H694 C707 0.930 . S
H695 C708 0.930 . S
H696 C712 0.959 . S
H697 C712 0.959 . S
H698 C712 0.961 . S
H699 C713 0.960 . S
H700 C713 0.961 . S
H701 C713 0.959 . S
H702 C716 0.929 . S
H703 C717 0.931 . S
H704 C719 0.930 . S
C705 H693 0.930 . S
C705 C706 1.399 . S
C705 C710 1.399 . S
C706 C705 1.399 . S
C706 C707 1.376 . S
C707 H694 0.930 . S
C707 C706 1.376 . S
C707 C708 1.388 . S
C708 H695 0.930 . S
C708 C707 1.388 . S
C708 C709 1.390 . S
C709 C708 1.390 . S
C709 C710 1.394 . S
C709 C715 1.465 1_554 S
C710 C705 1.399 . S
C710 C709 1.394 . S
C710 C711 1.516 . S
C711 C710 1.516 . S
C711 C712 1.502 . S
C711 C713 1.561 1_554 S
C711 C714 1.526 1_554 S
C712 H696 0.959 . S
C712 H697 0.959 . S
C712 H698 0.961 . S
C712 C711 1.502 . S
C713 H699 0.960 . S
C713 H700 0.961 . S
C713 H701 0.959 . S
C713 C711 1.561 1_556 S
C714 C711 1.526 1_556 S
C714 C715 1.396 . S
C714 C719 1.390 . S
C715 C709 1.465 1_556 S
C715 C714 1.396 . S
C715 C716 1.399 . S
C716 H702 0.929 . S
C716 C715 1.399 . S
C716 C717 1.385 . S
C717 H703 0.931 . S
C717 C716 1.385 . S
C717 C718 1.389 . S
C718 C717 1.389 . S
C718 C719 1.387 . S
C719 H704 0.930 . S
C719 C714 1.390 . S
C719 C718 1.387 . S
H720 C732 0.930 1_455 S
H721 C734 0.930 . S
H722 C735 0.930 . S
H723 C739 0.959 . S
H724 C739 0.959 . S
H725 C739 0.961 . S
H726 C740 0.960 . S
H727 C740 0.961 . S
H728 C740 0.959 . S
H729 C743 0.929 . S
H730 C744 0.931 . S
H731 C746 0.930 . S
C732 H720 0.930 1_655 S
C732 C733 1.399 . S
C732 C737 1.399 . S
C733 C732 1.399 . S
C733 C734 1.376 . S
C734 H721 0.930 . S
C734 C733 1.376 . S
C734 C735 1.388 . S
C735 H722 0.930 . S
C735 C734 1.388 . S
C735 C736 1.390 . S
C736 C735 1.390 . S
C736 C737 1.394 . S
C736 C742 1.465 . S
C737 C732 1.399 . S
C737 C736 1.394 . S
C737 C738 1.516 . S
C738 C737 1.516 . S
C738 C739 1.502 1_655 S
C738 C740 1.561 . S
C738 C741 1.526 . S
C739 H723 0.959 . S
C739 H724 0.959 . S
C739 H725 0.961 . S
C739 C738 1.502 1_455 S
C740 H726 0.960 . S
C740 H727 0.961 . S
C740 H728 0.959 . S
C740 C738 1.561 . S
C741 C738 1.526 . S
C741 C742 1.396 . S
C741 C746 1.390 . S
C742 C736 1.465 . S
C742 C741 1.396 . S
C742 C743 1.399 . S
C743 H729 0.929 . S
C743 C742 1.399 . S
C743 C744 1.385 . S
C744 H730 0.931 . S
C744 C743 1.385 . S
C744 C745 1.389 . S
C745 C744 1.389 . S
C745 C746 1.387 . S
C746 H731 0.930 . S
C746 C741 1.390 . S
C746 C745 1.387 . S
H747 C759 0.930 . S
H748 C761 0.930 . S
H749 C762 0.930 . S
H750 C766 0.959 1_565 S
H751 C766 0.959 . S
H752 C766 0.961 . S
H753 C767 0.960 . S
H754 C767 0.961 . S
H755 C767 0.959 . S
H756 C770 0.929 . S
H757 C771 0.931 . S
H758 C773 0.930 1_545 S
C759 H747 0.930 . S
C759 C760 1.399 1_545 S
C759 C764 1.399 . S
C760 C759 1.399 1_565 S
C760 C761 1.376 . S
C761 H748 0.930 . S
C761 C760 1.376 . S
C761 C762 1.388 . S
C762 H749 0.930 . S
C762 C761 1.388 . S
C762 C763 1.390 . S
C763 C762 1.390 . S
C763 C764 1.394 1_565 S
C763 C769 1.465 . S
C764 C759 1.399 . S
C764 C763 1.394 1_545 S
C764 C765 1.516 . S
C765 C764 1.516 . S
C765 C766 1.502 . S
C765 C767 1.561 . S
C765 C768 1.526 1_545 S
C766 H750 0.959 1_545 S
C766 H751 0.959 . S
C766 H752 0.961 . S
C766 C765 1.502 . S
C767 H753 0.960 . S
C767 H754 0.961 . S
C767 H755 0.959 . S
C767 C765 1.561 . S
C768 C765 1.526 1_565 S
C768 C769 1.396 . S
C768 C773 1.390 . S
C769 C763 1.465 . S
C769 C768 1.396 . S
C769 C770 1.399 . S
C770 H756 0.929 . S
C770 C769 1.399 . S
C770 C771 1.385 . S
C771 H757 0.931 . S
C771 C770 1.385 . S
C771 C772 1.389 . S
C772 C771 1.389 . S
C772 C773 1.387 . S
C773 H758 0.930 1_565 S
C773 C768 1.390 . S
C773 C772 1.387 . S
H774 C786 0.930 . S
H775 C788 0.930 . S
H776 C789 0.930 . S
H777 C793 0.959 . S
H778 C793 0.959 . S
H779 C793 0.961 . S
H780 C794 0.960 . S
H781 C794 0.961 . S
H782 C794 0.959 . S
H783 C797 0.929 . S
H784 C798 0.931 . S
H785 C800 0.930 . S
C786 H774 0.930 . S
C786 C787 1.399 . S
C786 C791 1.399 . S
C787 C786 1.399 . S
C787 C788 1.376 . S
C788 H775 0.930 . S
C788 C787 1.376 . S
C788 C789 1.388 . S
C789 H776 0.930 . S
C789 C788 1.388 . S
C789 C790 1.390 . S
C790 C789 1.390 . S
C790 C791 1.394 . S
C790 C796 1.465 . S
C791 C786 1.399 . S
C791 C790 1.394 . S
C791 C792 1.516 . S
C792 C791 1.516 . S
C792 C793 1.502 . S
C792 C794 1.561 . S
C792 C795 1.526 . S
C793 H777 0.959 . S
C793 H778 0.959 . S
C793 H779 0.961 . S
C793 C792 1.502 . S
C794 H780 0.960 . S
C794 H781 0.961 . S
C794 H782 0.959 . S
C794 C792 1.561 . S
C795 C792 1.526 . S
C795 C796 1.396 . S
C795 C800 1.390 . S
C796 C790 1.465 . S
C796 C795 1.396 . S
C796 C797 1.399 . S
C797 H783 0.929 . S
C797 C796 1.399 . S
C797 C798 1.385 . S
C798 H784 0.931 . S
C798 C797 1.385 . S
C798 C799 1.389 . S
C799 C798 1.389 . S
C799 C800 1.387 . S
C800 H785 0.930 . S
C800 C795 1.390 . S
C800 C799 1.387 . S
H801 C813 0.930 . S
H802 C815 0.930 . S
H803 C816 0.930 . S
H804 C820 0.959 . S
H805 C820 0.959 . S
H806 C820 0.961 . S
H807 C821 0.960 . S
H808 C821 0.961 . S
H809 C821 0.959 . S
H810 C824 0.929 . S
H811 C825 0.931 . S
H812 C827 0.930 . S
C813 H801 0.930 . S
C813 C814 1.399 . S
C813 C818 1.399 . S
C814 C813 1.399 . S
C814 C815 1.376 . S
C815 H802 0.930 . S
C815 C814 1.376 . S
C815 C816 1.388 . S
C816 H803 0.930 . S
C816 C815 1.388 . S
C816 C817 1.390 . S
C817 C816 1.390 . S
C817 C818 1.394 . S
C817 C823 1.465 . S
C818 C813 1.399 . S
C818 C817 1.394 . S
C818 C819 1.516 . S
C819 C818 1.516 . S
C819 C820 1.502 . S
C819 C821 1.561 . S
C819 C822 1.526 . S
C820 H804 0.959 . S
C820 H805 0.959 . S
C820 H806 0.961 . S
C820 C819 1.502 . S
C821 H807 0.960 . S
C821 H808 0.961 . S
C821 H809 0.959 . S
C821 C819 1.561 . S
C822 C819 1.526 . S
C822 C823 1.396 . S
C822 C827 1.390 . S
C823 C817 1.465 . S
C823 C822 1.396 . S
C823 C824 1.399 . S
C824 H810 0.929 . S
C824 C823 1.399 . S
C824 C825 1.385 . S
C825 H811 0.931 . S
C825 C824 1.385 . S
C825 C826 1.389 . S
C826 C825 1.389 . S
C826 C827 1.387 . S
C827 H812 0.930 . S
C827 C822 1.390 . S
C827 C826 1.387 . S
C193 C76 1.540 . S
C205 C104 1.579 1_545 S
C232 C127 1.632 . S
C220 C87 1.572 . S
C259 C150 1.617 . S
C247 C54 1.609 . S
C286 C177 1.546 . S
C274 C65 1.523 . S
C313 C105 1.546 1_565 S
C301 C32 1.553 1_556 S
C328 C43 1.441 . S
C340 C128 1.513 . S
C355 C10 1.485 . S
C367 C151 1.472 . S
C382 C21 1.599 . S
C394 C176 1.558 . S
C421 C106 0.407 . S
C409 C60 0.374 . S
C448 C129 0.359 . S
C436 C71 0.541 . S
C475 C152 0.481 . S
C463 C82 0.575 . S
C490 C49 0.593 . S
C502 C178 0.576 . S
C517 C16 0.621 . S
C529 C109 0.797 . S
C556 C132 0.580 . S
C544 C27 0.739 1_566 S
C583 C155 0.760 . S
C571 C38 0.627 . S
C598 C5 0.565 . S
C610 C175 0.457 . S
C625 C59 1.588 . S
C637 C107 1.530 . S
C652 C70 1.486 . S
C664 C130 1.556 . S
C691 C153 1.536 . S
C679 C81 1.544 . S
C718 C174 1.387 . S
C706 C48 1.359 . S
C733 C15 1.623 1_655 S
C745 C108 1.528 . S
C772 C131 1.533 . S
C760 C26 1.516 1_565 S
C799 C154 1.487 . S
C787 C37 1.502 . S
C814 C4 1.646 . S
C826 C173 1.735 . S
