# Generated by pormake.
# Topology anh, (6,3)-cn, num edge types: 1
# Building blocks:
#     Node 0, Type 0, BuildingBlock: BETDEL_clean_sbu_0, # of connection points: 6
#     Node 1, Type 0, BuildingBlock: BETDEL_clean_sbu_0, # of connection points: 6
#     Node 2, Type 0, BuildingBlock: BETDEL_clean_sbu_0, # of connection points: 6
#     Node 3, Type 1, BuildingBlock: MIDCAF_clean_linker_0, # of connection points: 3
#     Node 4, Type 1, BuildingBlock: MIDCAF_clean_linker_0, # of connection points: 3
#     Node 5, Type 1, BuildingBlock: MIDCAF_clean_linker_0, # of connection points: 3
#     Node 6, Type 1, BuildingBlock: MIDCAF_clean_linker_0, # of connection points: 3
#     Node 7, Type 1, BuildingBlock: MIDCAF_clean_linker_0, # of connection points: 3
#     Node 8, Type 1, BuildingBlock: MIDCAF_clean_linker_0, # of connection points: 3
#     Edge 9, Type (0, 1), BuildingBlock: UVAHIK_clean_linker_0, # of connection points: 2
#     Edge 10, Type (0, 1), BuildingBlock: UVAHIK_clean_linker_0, # of connection points: 2
#     Edge 11, Type (0, 1), BuildingBlock: UVAHIK_clean_linker_0, # of connection points: 2
#     Edge 12, Type (0, 1), BuildingBlock: UVAHIK_clean_linker_0, # of connection points: 2
#     Edge 13, Type (0, 1), BuildingBlock: UVAHIK_clean_linker_0, # of connection points: 2
#     Edge 14, Type (0, 1), BuildingBlock: UVAHIK_clean_linker_0, # of connection points: 2
#     Edge 15, Type (0, 1), BuildingBlock: UVAHIK_clean_linker_0, # of connection points: 2
#     Edge 16, Type (0, 1), BuildingBlock: UVAHIK_clean_linker_0, # of connection points: 2
#     Edge 17, Type (0, 1), BuildingBlock: UVAHIK_clean_linker_0, # of connection points: 2
#     Edge 18, Type (0, 1), BuildingBlock: UVAHIK_clean_linker_0, # of connection points: 2
#     Edge 19, Type (0, 1), BuildingBlock: UVAHIK_clean_linker_0, # of connection points: 2
#     Edge 20, Type (0, 1), BuildingBlock: UVAHIK_clean_linker_0, # of connection points: 2
#     Edge 21, Type (0, 1), BuildingBlock: UVAHIK_clean_linker_0, # of connection points: 2
#     Edge 22, Type (0, 1), BuildingBlock: UVAHIK_clean_linker_0, # of connection points: 2
#     Edge 23, Type (0, 1), BuildingBlock: UVAHIK_clean_linker_0, # of connection points: 2
#     Edge 24, Type (0, 1), BuildingBlock: UVAHIK_clean_linker_0, # of connection points: 2
#     Edge 25, Type (0, 1), BuildingBlock: UVAHIK_clean_linker_0, # of connection points: 2
#     Edge 26, Type (0, 1), BuildingBlock: UVAHIK_clean_linker_0, # of connection points: 2
# Relax obj value: 0.137
# Max RMSD: 0.165
# Mean RMSD: 0.131
data_MOF--net-anh--node1-BETDEL_clean_sbu_0--node2-MIDCAF_clean_linker_0--edge1-UVAHIK_clean_linker_0
_symmetry_space_group_name_H-M    P1
_symmetry_Int_Tables_number       1
_symmetry_cell_setting            triclinic
loop_
_symmetry_equiv_pos_as_xyz
'x, y, z'
_cell_length_a     44.443039
_cell_length_b     44.448692
_cell_length_c     80.21625
_cell_angle_alpha  90.017476
_cell_angle_beta   90.040716
_cell_angle_gamma 120.01028
loop_
_atom_site_label
_atom_site_type_symbol
_atom_site_fract_x
_atom_site_fract_y
_atom_site_fract_z
_atom_type_partial_charge
Dy0 Dy 0.03495 0.48394 0.16559 0.0
C1 C 0.95441 0.54889 0.17816 0.0
C2 C 0.07935 0.45985 0.15892 0.0
Dy3 Dy 0.99747 0.52482 0.16853 0.0
O4 O 0.07373 0.46859 0.1735 0.0
O5 O 0.06031 0.46387 0.14782 0.0
O6 O 0.01197 0.4581 0.18994 0.0
O7 O 0.02475 0.51004 0.18605 0.0
C8 C 0.01077 0.48463 0.19592 0.0
C9 C 0.01969 0.52314 0.1377 0.0
O10 O 0.05037 0.56599 0.17661 0.0
O11 O 0.07838 0.53983 0.16418 0.0
O12 O 0.97777 0.5625 0.16655 0.0
O13 O 0.95468 0.52222 0.18456 0.0
O14 O 0.01728 0.54907 0.14354 0.0
O15 O 0.00693 0.49828 0.14792 0.0
O16 O 0.98164 0.43962 0.16028 0.0
O17 O 0.95292 0.46947 0.16736 0.0
C18 C 0.07908 0.56736 0.17103 0.0
C19 C 0.95265 0.4403 0.16335 0.0
Dy20 Dy 0.49989 0.03596 0.49664 0.0
C21 C 0.64474 0.12049 0.51157 0.0
C22 C 0.43338 0.99129 0.48665 0.0
Dy23 Dy 0.57859 0.0754 0.5011 0.0
O24 O 0.44224 0.00668 0.50102 0.0
O25 O 0.46087 1.00075 0.47757 0.0
O26 O 0.49373 0.05377 0.52195 0.0
O27 O 0.53504 0.04463 0.51734 0.0
C28 C 0.522 0.05595 0.5278 0.0
C29 C 0.55704 0.05538 0.46983 0.0
O30 O 0.56943 0.02231 0.50713 0.0
O31 O 0.5129 0.99281 0.49696 0.0
O32 O 0.63644 0.10505 0.49718 0.0
O33 O 0.61689 0.11087 0.52035 0.0
O34 O 0.58516 0.05779 0.47603 0.0
O35 O 0.54354 0.06672 0.48011 0.0
O36 O 0.50883 0.08922 0.49109 0.0
O37 O 0.56534 0.11823 0.50127 0.0
C38 C 0.54124 0.99311 0.50254 0.0
C39 C 0.53702 0.11819 0.4959 0.0
Dy40 Dy 0.5746 0.57694 0.82906 0.0
C41 C 0.52013 0.43471 0.84717 0.0
C42 C 0.59462 0.64246 0.81821 0.0
Dy43 Dy 0.53842 0.49895 0.83497 0.0
O44 O 0.60163 0.6347 0.83273 0.0
O45 O 0.57701 0.61438 0.80943 0.0
O46 O 0.59961 0.58621 0.85428 0.0
O47 O 0.54984 0.54316 0.85044 0.0
C48 C 0.57455 0.5579 0.86064 0.0
C49 C 0.53877 0.51695 0.8031 0.0
O50 O 0.49449 0.50782 0.84172 0.0
O51 O 0.51783 0.56186 0.82916 0.0
O52 O 0.50379 0.4408 0.83541 0.0
O53 O 0.54616 0.46374 0.85236 0.0
O54 O 0.51452 0.48828 0.80958 0.0
O55 O 0.56331 0.53249 0.81337 0.0
O56 O 0.62026 0.56984 0.82396 0.0
O57 O 0.59509 0.51393 0.83473 0.0
C58 C 0.49119 0.53403 0.83596 0.0
C59 C 0.62256 0.54267 0.82911 0.0
C60 C 0.42351 0.8859 0.20737 0.0
C61 C 0.40542 0.88681 0.19321 0.0
C62 C 0.4174 0.91865 0.18484 0.0
C63 C 0.44648 0.94907 0.19078 0.0
H64 H 0.57097 0.03924 0.18259 0.0
H65 H 0.62137 0.08986 0.17002 0.0
H66 H 0.61955 0.15484 0.20957 0.0
H67 H 0.56988 0.10498 0.22195 0.0
H68 H 0.56557 0.06032 0.25843 0.0
H69 H 0.56608 0.06397 0.28871 0.0
H70 H 0.46417 0.97261 0.29062 0.0
H71 H 0.46346 0.96874 0.26021 0.0
H72 H 0.46451 0.9148 0.22478 0.0
H73 H 0.4148 0.86188 0.21417 0.0
H74 H 0.40399 0.92006 0.17385 0.0
H75 H 0.45463 0.97341 0.18439 0.0
N76 N 0.51485 0.00812 0.2044 0.0
N77 N 0.53843 0.03904 0.2293 0.0
N78 N 0.49072 0.98279 0.23037 0.0
C79 C 0.539 0.03753 0.2124 0.0
C80 C 0.51448 0.01192 0.23838 0.0
C81 C 0.49058 0.9806 0.21346 0.0
C82 C 0.56646 0.06804 0.20329 0.0
C83 C 0.58105 0.06449 0.18838 0.0
C84 C 0.61006 0.09339 0.18128 0.0
C85 C 0.62451 0.12643 0.18879 0.0
C86 C 0.60895 0.12996 0.20333 0.0
C87 C 0.58051 0.10123 0.2105 0.0
C88 C 0.51451 0.01417 0.25684 0.0
C89 C 0.54318 0.04098 0.26524 0.0
C90 C 0.54359 0.04301 0.28262 0.0
C91 C 0.51522 0.01851 0.29202 0.0
C92 C 0.48631 0.99196 0.28367 0.0
C93 C 0.48604 0.98966 0.26626 0.0
C94 C 0.46348 0.94826 0.20541 0.0
C95 C 0.45194 0.91626 0.21348 0.0
C96 C 0.56466 0.45876 0.53698 0.0
C97 C 0.54698 0.44406 0.522 0.0
C98 C 0.52957 0.45926 0.51403 0.0
C99 C 0.52951 0.48824 0.52108 0.0
H100 H 0.56587 0.61426 0.51707 0.0
H101 H 0.5648 0.66554 0.50625 0.0
H102 H 0.49484 0.65619 0.54581 0.0
H103 H 0.49633 0.6058 0.55666 0.0
H104 H 0.54726 0.60492 0.59274 0.0
H105 H 0.54909 0.60427 0.62318 0.0
H106 H 0.53963 0.5028 0.62179 0.0
H107 H 0.53772 0.50322 0.59146 0.0
H108 H 0.57751 0.49715 0.55585 0.0
H109 H 0.57797 0.44754 0.54358 0.0
H110 H 0.51583 0.44862 0.50243 0.0
H111 H 0.5153 0.49896 0.5149 0.0
N112 N 0.53878 0.55413 0.5371 0.0
N113 N 0.53651 0.57826 0.5629 0.0
N114 N 0.54422 0.53003 0.56224 0.0
C115 C 0.53545 0.57857 0.54597 0.0
C116 C 0.54097 0.55416 0.57114 0.0
C117 C 0.54312 0.52963 0.54531 0.0
C118 C 0.53123 0.60608 0.53771 0.0
C119 C 0.5498 0.62287 0.52322 0.0
C120 C 0.54941 0.65232 0.51713 0.0
C121 C 0.52976 0.66491 0.5252 0.0
C122 C 0.50999 0.64702 0.53922 0.0
C123 C 0.51096 0.61821 0.54547 0.0
C124 C 0.54226 0.55408 0.58962 0.0
C125 C 0.54553 0.58243 0.59891 0.0
C126 C 0.5468 0.5822 0.61634 0.0
C127 C 0.5444 0.55346 0.62484 0.0
C128 C 0.54116 0.52516 0.61557 0.0
C129 C 0.54025 0.52552 0.59817 0.0
C130 C 0.54628 0.50203 0.53638 0.0
C131 C 0.5642 0.48717 0.54408 0.0
C132 C 0.96353 0.56865 0.87153 0.0
C133 C 0.94719 0.55017 0.85694 0.0
C134 C 0.95994 0.53023 0.84928 0.0
C135 C 0.98802 0.52838 0.85627 0.0
H136 H 0.1098 0.55586 0.8505 0.0
H137 H 0.16006 0.5531 0.8395 0.0
H138 H 0.1585 0.49498 0.88294 0.0
H139 H 0.10887 0.49733 0.89365 0.0
H140 H 0.10365 0.54701 0.92783 0.0
H141 H 0.10084 0.54293 0.95821 0.0
H142 H 0.99217 0.51231 0.95659 0.0
H143 H 0.99495 0.51694 0.92614 0.0
H144 H 1.00214 0.58001 0.89019 0.0
H145 H 0.95422 0.58399 0.87783 0.0
H146 H 0.94794 0.51581 0.83798 0.0
H147 H 0.99676 0.51219 0.85036 0.0
N148 N 0.05421 0.53635 0.87212 0.0
N149 N 0.07571 0.53032 0.89795 0.0
N150 N 0.02814 0.53908 0.89723 0.0
C151 C 0.07757 0.53132 0.88105 0.0
C152 C 0.05118 0.53408 0.90614 0.0
C153 C 0.02939 0.54035 0.88029 0.0
C154 C 0.10534 0.52696 0.87299 0.0
C155 C 0.11993 0.54204 0.8575 0.0
C156 C 0.14888 0.5407 0.85129 0.0
C157 C 0.16338 0.52377 0.86032 0.0
C158 C 0.1479 0.50782 0.8755 0.0
C159 C 0.11945 0.50944 0.88173 0.0
C160 C 0.04951 0.53231 0.92457 0.0
C161 C 0.07915 0.53949 0.93393 0.0
C162 C 0.07762 0.53731 0.95131 0.0
C163 C 0.04629 0.52725 0.95969 0.0
C164 C 0.01659 0.51993 0.95038 0.0
C165 C 0.01827 0.52279 0.93299 0.0
C166 C 0.00326 0.54576 0.87126 0.0
C167 C 0.99094 0.56624 0.87865 0.0
C168 C 0.09781 0.67327 0.43775 0.0
C169 C 0.11034 0.67956 0.45419 0.0
C170 C 0.09158 0.65461 0.46651 0.0
C171 C 0.06121 0.62371 0.46236 0.0
H172 H 0.98673 0.52273 0.47999 0.0
H173 H 0.95206 0.47561 0.49959 0.0
H174 H 0.87003 0.42813 0.46299 0.0
H175 H 0.9041 0.47477 0.4436 0.0
H176 H 0.92534 0.4908 0.40529 0.0
H177 H 0.91384 0.47848 0.37561 0.0
H178 H 0.00364 0.57781 0.364 0.0
H179 H 0.01469 0.59053 0.39348 0.0
H180 H 0.05902 0.63881 0.42076 0.0
H181 H 0.11125 0.69226 0.42803 0.0
H182 H 0.10072 0.65867 0.47928 0.0
H183 H 0.04756 0.60481 0.47208 0.0
N184 N 0.99811 0.55981 0.45257 0.0
N185 N 0.96053 0.52419 0.43143 0.0
N186 N 0.00812 0.57825 0.42472 0.0
C187 C 0.96943 0.52969 0.44783 0.0
C188 C 0.97977 0.54833 0.41979 0.0
C189 C 0.0175 0.58435 0.44102 0.0
C190 C 0.94824 0.5025 0.4602 0.0
C191 C 0.96115 0.50239 0.47621 0.0
C192 C 0.94143 0.47537 0.4874 0.0
C193 C 0.90829 0.44833 0.48285 0.0
C194 C 0.89525 0.44888 0.46697 0.0
C195 C 0.91497 0.47553 0.45578 0.0
C196 C 0.97109 0.54158 0.40183 0.0
C197 C 0.94244 0.51018 0.39642 0.0
C198 C 0.93591 0.50303 0.3794 0.0
C199 C 0.95786 0.52711 0.36743 0.0
C200 C 0.98589 0.55888 0.37286 0.0
C201 C 0.99238 0.56605 0.38983 0.0
C202 C 0.04902 0.61726 0.44582 0.0
C203 C 0.06763 0.64258 0.43362 0.0
C204 C 0.59049 0.17818 0.80038 0.0
C205 C 0.56803 0.1607 0.81372 0.0
C206 C 0.55592 0.12514 0.816 0.0
C207 C 0.56601 0.10731 0.80503 0.0
H208 H 0.59227 0.02651 0.80257 0.0
H209 H 0.5921 0.97281 0.80936 0.0
H210 H 0.61818 0.96474 0.75832 0.0
H211 H 0.61792 0.01765 0.75144 0.0
H212 H 0.63039 0.0722 0.72595 0.0
H213 H 0.63188 0.08403 0.69642 0.0
H214 H 0.60279 0.16159 0.7065 0.0
H215 H 0.60047 0.14918 0.73629 0.0
H216 H 0.61679 0.17433 0.77888 0.0
H217 H 0.59987 0.20554 0.79827 0.0
H218 H 0.53852 0.11116 0.8262 0.0
H219 H 0.55601 0.0798 0.80694 0.0
N220 N 0.59693 0.07628 0.78344 0.0
N221 N 0.61089 0.07008 0.75598 0.0
N222 N 0.60287 0.11669 0.76293 0.0
C223 C 0.60446 0.05853 0.77195 0.0
C224 C 0.61011 0.09899 0.75132 0.0
C225 C 0.59635 0.10553 0.77901 0.0
C226 C 0.60496 0.02643 0.77644 0.0
C227 C 0.59798 0.01329 0.7928 0.0
C228 C 0.59802 0.98261 0.79672 0.0
C229 C 0.60489 0.96444 0.78434 0.0
C230 C 0.61218 0.97779 0.76807 0.0
C231 C 0.61222 0.00834 0.76417 0.0
C232 C 0.61492 0.10945 0.73354 0.0
C233 C 0.6246 0.09205 0.72198 0.0
C234 C 0.62579 0.09908 0.70499 0.0
C235 C 0.61741 0.12374 0.69908 0.0
C236 C 0.60903 0.14217 0.71066 0.0
C237 C 0.60788 0.13516 0.72773 0.0
C238 C 0.58765 0.12462 0.79137 0.0
C239 C 0.59995 0.16027 0.78924 0.0
C240 C 0.65327 0.55369 0.13051 0.0
C241 C 0.64912 0.54701 0.14771 0.0
C242 C 0.61538 0.5287 0.15437 0.0
C243 C 0.58634 0.51722 0.14394 0.0
H244 H 0.47321 0.4757 0.14165 0.0
H245 H 0.41584 0.46574 0.15028 0.0
H246 H 0.39584 0.48527 0.09994 0.0
H247 H 0.45224 0.49473 0.09127 0.0
H248 H 0.48941 0.4755 0.06313 0.0
H249 H 0.49799 0.47376 0.03338 0.0
H250 H 0.60638 0.50754 0.04172 0.0
H251 H 0.59808 0.51005 0.07164 0.0
H252 H 0.62876 0.54722 0.1069 0.0
H253 H 0.67893 0.56723 0.12498 0.0
H254 H 0.61151 0.52318 0.16759 0.0
H255 H 0.56061 0.50296 0.14934 0.0
N256 N 0.52856 0.50257 0.12099 0.0
N257 N 0.50657 0.48889 0.09373 0.0
N258 N 0.56492 0.50683 0.09875 0.0
C259 C 0.50152 0.49207 0.11017 0.0
C260 C 0.53804 0.49597 0.08791 0.0
C261 C 0.56045 0.51017 0.11528 0.0
C262 C 0.46723 0.48594 0.11579 0.0
C263 C 0.45649 0.47784 0.13247 0.0
C264 C 0.42373 0.472 0.13739 0.0
C265 C 0.40168 0.47494 0.12576 0.0
C266 C 0.41252 0.48314 0.10916 0.0
C267 C 0.44477 0.48835 0.1042 0.0
C268 C 0.5431 0.49312 0.06984 0.0
C269 C 0.5151 0.48241 0.05871 0.0
C270 C 0.51993 0.48112 0.04161 0.0
C271 C 0.55285 0.49044 0.03518 0.0
C272 C 0.58076 0.50054 0.04629 0.0
C273 C 0.57594 0.50183 0.06345 0.0
C274 C 0.59064 0.52328 0.12666 0.0
C275 C 0.62444 0.54185 0.12012 0.0
C276 C 0.12911 0.45346 0.16833 0.0
C277 C 0.10667 0.45119 0.15546 0.0
C278 C 0.15771 0.44951 0.16496 0.0
C279 C 0.21564 0.45856 0.13013 0.0
H280 H 0.25563 0.42493 0.1631 0.0
C281 C 0.34279 0.43908 0.13859 0.0
C282 C 0.36737 0.46976 0.13066 0.0
C283 C 0.30913 0.43291 0.14155 0.0
C284 C 0.24466 0.43401 0.15364 0.0
H285 H 0.09521 0.44113 0.12915 0.0
H286 H 0.14473 0.43311 0.12323 0.0
H287 H 0.19806 0.41726 0.16769 0.0
H288 H 0.37695 0.5188 0.12038 0.0
H289 H 0.31889 0.50882 0.12607 0.0
H290 H 0.26174 0.47454 0.11589 0.0
C291 C 0.1408 0.43887 0.13589 0.0
C292 C 0.21177 0.42998 0.15636 0.0
C293 C 0.1123 0.44319 0.13927 0.0
C294 C 0.35825 0.49474 0.12633 0.0
C295 C 0.32488 0.48882 0.12946 0.0
C296 C 0.24828 0.46223 0.12733 0.0
C297 C 0.16436 0.44284 0.14863 0.0
C298 C 0.19719 0.44295 0.14482 0.0
C299 C 0.29964 0.45752 0.13678 0.0
C300 C 0.26361 0.45081 0.13923 0.0
H301 H 0.12539 0.45968 0.18095 0.0
H302 H 0.17545 0.4533 0.17505 0.0
H303 H 0.20552 0.46919 0.12102 0.0
H304 H 0.34923 0.41934 0.14192 0.0
H305 H 0.29032 0.40844 0.14712 0.0
C306 C 0.70633 0.16148 0.50411 0.0
C307 C 0.67944 0.1495 0.51586 0.0
C308 C 0.73715 0.19278 0.50667 0.0
C309 C 0.76587 0.27581 0.52773 0.0
H310 H 0.85296 0.29838 0.50647 0.0
C311 C 0.90266 0.4012 0.50209 0.0
C312 C 0.88753 0.41858 0.49414 0.0
C313 C 0.88183 0.36983 0.51045 0.0
C314 C 0.82919 0.29265 0.51283 0.0
H315 H 0.66452 0.15912 0.54011 0.0
H316 H 0.71876 0.21365 0.54479 0.0
H317 H 0.8094 0.23786 0.51115 0.0
H318 H 0.83929 0.41837 0.48984 0.0
H319 H 0.80301 0.36366 0.50402 0.0
H320 H 0.78542 0.33056 0.52917 0.0
C321 C 0.71579 0.19928 0.53342 0.0
C322 C 0.80399 0.25786 0.51532 0.0
C323 C 0.68483 0.16797 0.5308 0.0
C324 C 0.8516 0.40528 0.49566 0.0
C325 C 0.83085 0.37407 0.50399 0.0
C326 C 0.79116 0.31058 0.52536 0.0
C327 C 0.74181 0.2127 0.5211 0.0
C328 C 0.7714 0.249 0.52208 0.0
C329 C 0.84554 0.35538 0.51106 0.0
C330 C 0.82245 0.31937 0.51717 0.0
H331 H 0.70283 0.14769 0.49248 0.0
H332 H 0.75632 0.20237 0.4968 0.0
H333 H 0.7411 0.2701 0.53294 0.0
H334 H 0.9303 0.41083 0.50109 0.0
H335 H 0.894 0.3563 0.51593 0.0
C336 C 0.61943 0.70531 0.82446 0.0
C337 C 0.60158 0.67733 0.81344 0.0
C338 C 0.62272 0.73758 0.82095 0.0
C339 C 0.61533 0.79055 0.78738 0.0
H340 H 0.59614 0.83545 0.82403 0.0
C341 C 0.58914 0.90351 0.77704 0.0
C342 C 0.60452 0.93163 0.78821 0.0
C343 C 0.59012 0.87314 0.78018 0.0
C344 C 0.602 0.82349 0.81372 0.0
H345 H 0.57424 0.6612 0.78986 0.0
H346 H 0.57975 0.71762 0.78373 0.0
H347 H 0.59691 0.78176 0.82897 0.0
H348 H 0.63274 0.94984 0.8115 0.0
H349 H 0.63443 0.89665 0.81702 0.0
H350 H 0.6201 0.83217 0.7721 0.0
C351 C 0.59147 0.71476 0.79502 0.0
C352 C 0.60249 0.79274 0.81654 0.0
C353 C 0.58821 0.68245 0.79853 0.0
C354 C 0.62035 0.92847 0.80276 0.0
C355 C 0.62135 0.89804 0.8059 0.0
C356 C 0.61484 0.82132 0.78456 0.0
C357 C 0.60818 0.74248 0.80636 0.0
C358 C 0.609 0.77584 0.80339 0.0
C359 C 0.60648 0.87016 0.79456 0.0
C360 C 0.60796 0.83801 0.79768 0.0
H361 H 0.63012 0.70206 0.83601 0.0
H362 H 0.63628 0.75859 0.82979 0.0
H363 H 0.62087 0.7784 0.77705 0.0
H364 H 0.57617 0.90491 0.76588 0.0
H365 H 0.57778 0.85186 0.77139 0.0
C366 C 0.89759 0.53613 0.19025 0.0
C367 C 0.92816 0.55895 0.1817 0.0
C368 C 0.87017 0.54295 0.19121 0.0
C369 C 0.83609 0.5899 0.16716 0.0
H370 H 0.76524 0.55501 0.2015 0.0
C371 C 0.70995 0.59014 0.15614 0.0
C372 C 0.68025 0.55729 0.15818 0.0
C373 C 0.74156 0.59742 0.16323 0.0
C374 C 0.78493 0.56503 0.19186 0.0
H375 H 0.95548 0.60813 0.16871 0.0
H376 H 0.90823 0.62086 0.17092 0.0
H377 H 0.82002 0.55587 0.2064 0.0
H378 H 0.65963 0.5073 0.17034 0.0
H379 H 0.715 0.51989 0.18266 0.0
H380 H 0.80092 0.59822 0.15245 0.0
C381 C 0.90476 0.59705 0.17638 0.0
C382 C 0.81624 0.56543 0.19462 0.0
C383 C 0.93194 0.58993 0.1752 0.0
C384 C 0.68209 0.53288 0.16862 0.0
C385 C 0.71381 0.54014 0.17569 0.0
C386 C 0.80505 0.58976 0.16447 0.0
C387 C 0.873 0.57298 0.1838 0.0
C388 C 0.84188 0.5771 0.18212 0.0
C389 C 0.74416 0.57196 0.17246 0.0
C390 C 0.77879 0.57661 0.17662 0.0
H391 H 0.89409 0.51204 0.19538 0.0
H392 H 0.84608 0.52364 0.19689 0.0
H393 H 0.85474 0.59836 0.15707 0.0
H394 H 0.70907 0.60964 0.14838 0.0
H395 H 0.76437 0.62243 0.16081 0.0
C396 C 0.39193 0.94472 0.46745 0.0
C397 C 0.39805 0.96361 0.4823 0.0
C398 C 0.35927 0.91588 0.46427 0.0
C399 C 0.28153 0.85002 0.48645 0.0
H400 H 0.24148 0.82725 0.44211 0.0
C401 C 0.14574 0.73123 0.47267 0.0
C402 C 0.14303 0.71209 0.45823 0.0
C403 C 0.17601 0.76283 0.47587 0.0
C404 C 0.25248 0.83314 0.45454 0.0
H405 H 0.37472 0.96827 0.50516 0.0
H406 H 0.3175 0.91825 0.4995 0.0
H407 H 0.29528 0.8819 0.4468 0.0
H408 H 0.17049 0.71031 0.43625 0.0
H409 H 0.22314 0.76527 0.44182 0.0
H410 H 0.23884 0.8011 0.49415 0.0
C411 C 0.33802 0.92525 0.49045 0.0
C412 C 0.28328 0.86444 0.45722 0.0
C413 C 0.37068 0.95403 0.49363 0.0
C414 C 0.17149 0.7248 0.4473 0.0
C415 C 0.20164 0.75631 0.45047 0.0
C416 C 0.25068 0.81873 0.48377 0.0
C417 C 0.33211 0.90544 0.47589 0.0
C418 C 0.29834 0.87311 0.47317 0.0
C419 C 0.20413 0.77588 0.46469 0.0
C420 C 0.23603 0.80978 0.46775 0.0
H421 H 0.41267 0.95153 0.45855 0.0
H422 H 0.3557 0.90101 0.45301 0.0
H423 H 0.29272 0.85564 0.49884 0.0
H424 H 0.12414 0.72226 0.48125 0.0
H425 H 0.17709 0.77743 0.48688 0.0
C426 C 0.48411 0.37007 0.84629 0.0
C427 C 0.51437 0.40005 0.85149 0.0
C428 C 0.4814 0.33746 0.84778 0.0
C429 C 0.52836 0.29234 0.86376 0.0
H430 H 0.49068 0.23799 0.82346 0.0
C431 C 0.52011 0.16725 0.82619 0.0
C432 C 0.55582 0.17945 0.82447 0.0
C433 C 0.50862 0.18787 0.83393 0.0
C434 C 0.50067 0.25242 0.83496 0.0
H435 H 0.56464 0.41961 0.86323 0.0
H436 H 0.56088 0.36335 0.8651 0.0
H437 H 0.48132 0.28627 0.82897 0.0
H438 H 0.60747 0.22135 0.83043 0.0
H439 H 0.5874 0.25719 0.84423 0.0
H440 H 0.55015 0.25975 0.86885 0.0
C441 C 0.53864 0.36436 0.86031 0.0
C442 C 0.4952 0.28015 0.83821 0.0
C443 C 0.54098 0.39681 0.85914 0.0
C444 C 0.5798 0.2115 0.83158 0.0
C445 C 0.56831 0.23183 0.83956 0.0
C446 C 0.53437 0.26494 0.86032 0.0
C447 C 0.5093 0.33435 0.85412 0.0
C448 C 0.50985 0.3012 0.85239 0.0
C449 C 0.53267 0.22071 0.84032 0.0
C450 C 0.52133 0.24534 0.84567 0.0
H451 H 0.46306 0.37193 0.84051 0.0
H452 H 0.45798 0.3149 0.84332 0.0
H453 H 0.53932 0.30734 0.87502 0.0
H454 H 0.50116 0.14269 0.8207 0.0
H455 H 0.48101 0.17876 0.83437 0.0
C456 C 0.50924 0.92784 0.50257 0.0
C457 C 0.5407 0.95949 0.50406 0.0
C458 C 0.50848 0.89609 0.50403 0.0
C459 C 0.56252 0.85502 0.50039 0.0
H460 H 0.49151 0.78315 0.52806 0.0
C461 C 0.56315 0.72813 0.51732 0.0
C462 C 0.53111 0.69764 0.51984 0.0
C463 C 0.56456 0.75991 0.51437 0.0
C464 C 0.51118 0.80258 0.52002 0.0
H465 H 0.59617 0.98236 0.50807 0.0
H466 H 0.59482 0.92682 0.51047 0.0
H467 H 0.49357 0.8386 0.52504 0.0
H468 H 0.47536 0.6762 0.52031 0.0
H469 H 0.47759 0.73111 0.51457 0.0
H470 H 0.57984 0.81889 0.49512 0.0
C471 C 0.57074 0.9267 0.50818 0.0
C472 C 0.51243 0.83453 0.51837 0.0
C473 C 0.57146 0.95853 0.50691 0.0
C474 C 0.50047 0.69935 0.51862 0.0
C475 C 0.50182 0.73096 0.51546 0.0
C476 C 0.56105 0.82287 0.50189 0.0
C477 C 0.5392 0.8951 0.50685 0.0
C478 C 0.53812 0.86117 0.50856 0.0
C479 C 0.53392 0.76191 0.51368 0.0
C480 C 0.53535 0.79614 0.51174 0.0
H481 H 0.48502 0.9275 0.50036 0.0
H482 H 0.48381 0.87224 0.50279 0.0
H483 H 0.58242 0.87489 0.49259 0.0
H484 H 0.58723 0.7277 0.51839 0.0
H485 H 0.58981 0.78308 0.51326 0.0
C486 C 0.65887 0.51393 0.83116 0.0
C487 C 0.65687 0.54431 0.82899 0.0
C488 C 0.6911 0.51549 0.83212 0.0
C489 C 0.78217 0.57434 0.84368 0.0
H490 H 0.79944 0.50723 0.82119 0.0
C491 C 0.91544 0.58189 0.84936 0.0
C492 C 0.91587 0.55054 0.85048 0.0
C493 C 0.88498 0.58202 0.84497 0.0
C494 C 0.79502 0.52596 0.82775 0.0
H495 H 0.6875 0.6002 0.82595 0.0
H496 H 0.74378 0.60293 0.82782 0.0
H497 H 0.74429 0.50566 0.81697 0.0
H498 H 0.88465 0.49475 0.84762 0.0
H499 H 0.83131 0.49471 0.8404 0.0
H500 H 0.83211 0.59397 0.85496 0.0
C501 C 0.72029 0.57787 0.82875 0.0
C502 C 0.76336 0.52512 0.82525 0.0
C503 C 0.68801 0.57627 0.82757 0.0
C504 C 0.8853 0.51937 0.84667 0.0
C505 C 0.85466 0.51943 0.84249 0.0
C506 C 0.81363 0.57494 0.84634 0.0
C507 C 0.72224 0.54751 0.83115 0.0
C508 C 0.75648 0.54923 0.83323 0.0
C509 C 0.85386 0.55074 0.84182 0.0
C510 C 0.82058 0.5507 0.83847 0.0
H511 H 0.63548 0.48884 0.8323 0.0
H512 H 0.69161 0.49165 0.83411 0.0
H513 H 0.77754 0.59297 0.85021 0.0
H514 H 0.93868 0.60639 0.85203 0.0
H515 H 0.88588 0.60677 0.84419 0.0
C516 C 0.1444 0.60064 0.17038 0.0
C517 C 0.11283 0.60033 0.17251 0.0
C518 C 0.17622 0.63167 0.17175 0.0
C519 C 0.21666 0.72671 0.16858 0.0
H520 H 0.28971 0.72851 0.19571 0.0
C521 C 0.34212 0.85551 0.18539 0.0
C522 C 0.37305 0.85484 0.18797 0.0
C523 C 0.31073 0.82467 0.18246 0.0
C524 C 0.26997 0.7285 0.1878 0.0
H525 H 0.09009 0.63266 0.17757 0.0
H526 H 0.14565 0.68688 0.17974 0.0
H527 H 0.2347 0.67457 0.19264 0.0
H528 H 0.39568 0.82159 0.18864 0.0
H529 H 0.34148 0.76809 0.18285 0.0
H530 H 0.25198 0.78038 0.16341 0.0
C531 C 0.14571 0.66302 0.17705 0.0
C532 C 0.23826 0.69748 0.18614 0.0
C533 C 0.11388 0.6319 0.17591 0.0
C534 C 0.37217 0.82286 0.18687 0.0
C535 C 0.34094 0.79212 0.1837 0.0
C536 C 0.24856 0.75767 0.17005 0.0
C537 C 0.17726 0.66325 0.17505 0.0
C538 C 0.21116 0.69623 0.17658 0.0
C539 C 0.30955 0.79239 0.18181 0.0
C540 C 0.27571 0.75912 0.17976 0.0
H541 H 0.14461 0.57684 0.16775 0.0
H542 H 0.20006 0.63101 0.17003 0.0
H543 H 0.19642 0.72649 0.16096 0.0
H544 H 0.3419 0.8797 0.18637 0.0
H545 H 0.28723 0.82613 0.18131 0.0
C546 C 0.5681 0.18293 0.49931 0.0
C547 C 0.53724 0.1518 0.49574 0.0
C548 C 0.56833 0.21442 0.50042 0.0
C549 C 0.51887 0.25906 0.48994 0.0
H550 H 0.57414 0.32037 0.52581 0.0
C551 C 0.51442 0.38333 0.5101 0.0
C552 C 0.54587 0.41213 0.51539 0.0
C553 C 0.51274 0.35175 0.50614 0.0
C554 C 0.55893 0.30385 0.51557 0.0
H555 H 0.48247 0.12977 0.49009 0.0
H556 H 0.48281 0.18489 0.49219 0.0
H557 H 0.57199 0.26515 0.52202 0.0
H558 H 0.60066 0.43096 0.51947 0.0
H559 H 0.59786 0.37634 0.51244 0.0
H560 H 0.50563 0.298 0.48366 0.0
C561 C 0.50695 0.18487 0.49399 0.0
C562 C 0.55768 0.27206 0.51339 0.0
C563 C 0.50673 0.15322 0.49284 0.0
C564 C 0.57589 0.40912 0.51576 0.0
C565 C 0.57424 0.37771 0.51178 0.0
C566 C 0.52008 0.29101 0.49215 0.0
C567 C 0.53769 0.21581 0.49807 0.0
C568 C 0.53793 0.24931 0.50046 0.0
C569 C 0.5425 0.3483 0.50736 0.0
C570 C 0.54043 0.31397 0.50491 0.0
H571 H 0.59222 0.18305 0.50147 0.0
H572 H 0.59267 0.23776 0.5032 0.0
H573 H 0.50355 0.24233 0.47978 0.0
H574 H 0.49077 0.3847 0.5098 0.0
H575 H 0.48784 0.32964 0.50284 0.0
C576 C 0.4277 0.50288 0.84361 0.0
C577 C 0.45718 0.53281 0.83758 0.0
C578 C 0.3957 0.50171 0.84505 0.0
C579 C 0.34721 0.54551 0.83063 0.0
H580 H 0.28832 0.49782 0.86847 0.0
C581 C 0.22415 0.55394 0.84833 0.0
C582 C 0.19536 0.52365 0.85461 0.0
C583 C 0.25561 0.5548 0.84505 0.0
C584 C 0.30421 0.5109 0.8577 0.0
H585 H 0.47585 0.58508 0.82835 0.0
H586 H 0.4204 0.58328 0.83116 0.0
H587 H 0.34386 0.50007 0.86548 0.0
H588 H 0.17659 0.46985 0.86124 0.0
H589 H 0.23112 0.47136 0.85554 0.0
H590 H 0.30751 0.5567 0.82304 0.0
C591 C 0.42178 0.5604 0.83451 0.0
C592 C 0.33617 0.51217 0.85597 0.0
C593 C 0.45375 0.56152 0.83301 0.0
C594 C 0.19839 0.49385 0.85676 0.0
C595 C 0.22975 0.49473 0.85352 0.0
C596 C 0.31524 0.54437 0.83242 0.0
C597 C 0.39225 0.53049 0.84058 0.0
C598 C 0.35814 0.52937 0.84239 0.0
C599 C 0.25905 0.52541 0.84798 0.0
C600 C 0.29322 0.5269 0.84594 0.0
H601 H 0.42922 0.48016 0.84715 0.0
H602 H 0.37353 0.47798 0.84951 0.0
H603 H 0.3631 0.55861 0.81988 0.0
H604 H 0.22288 0.57745 0.84665 0.0
H605 H 0.27766 0.57893 0.84085 0.0
C606 C 0.9167 0.37495 0.161 0.0
C607 C 0.9186 0.40733 0.16294 0.0
C608 C 0.88466 0.34393 0.16198 0.0
C609 C 0.79615 0.30969 0.17939 0.0
H610 H 0.77209 0.22949 0.15151 0.0
C611 C 0.65927 0.18999 0.18182 0.0
C612 C 0.6566 0.15711 0.1822 0.0
C613 C 0.69071 0.21972 0.17782 0.0
C614 C 0.77853 0.25156 0.15949 0.0
H615 H 0.8878 0.43226 0.1668 0.0
H616 H 0.83234 0.37859 0.16826 0.0
H617 H 0.828 0.28276 0.14767 0.0
H618 H 0.68473 0.12965 0.17799 0.0
H619 H 0.73981 0.18166 0.17103 0.0
H620 H 0.74708 0.27872 0.19131 0.0
C621 C 0.85562 0.37699 0.16633 0.0
C622 C 0.81062 0.28212 0.15729 0.0
C623 C 0.88753 0.40789 0.16538 0.0
C624 C 0.68581 0.15454 0.17769 0.0
C625 C 0.71742 0.1844 0.17372 0.0
C626 C 0.76421 0.27927 0.18157 0.0
C627 C 0.85373 0.34453 0.16494 0.0
C628 C 0.81977 0.31168 0.16717 0.0
C629 C 0.72049 0.21751 0.17414 0.0
C630 C 0.75479 0.24981 0.1716 0.0
H631 H 0.94005 0.37346 0.15914 0.0
H632 H 0.88429 0.31945 0.16096 0.0
H633 H 0.80255 0.33154 0.18752 0.0
H634 H 0.63711 0.19285 0.18494 0.0
H635 H 0.69177 0.2446 0.17785 0.0
C636 C 0.0129 0.48768 0.11221 0.0
C637 C 0.02685 0.52024 0.12002 0.0
C638 C 0.01678 0.48556 0.09499 0.0
C639 C 0.06958 0.53238 0.05892 0.0
H640 H 0.9844 0.48442 0.03325 0.0
C641 C 0.06884 0.55195 0.98799 0.0
C642 C 0.04468 0.52436 0.9781 0.0
C643 C 0.06744 0.54929 0.00536 0.0
C644 C 0.00857 0.49734 0.04015 0.0
H645 H 0.05712 0.5759 0.11631 0.0
H646 H 0.06484 0.57215 0.08635 0.0
H647 H 0.9819 0.48235 0.0636 0.0
H648 H 1.00058 0.47211 0.97848 0.0
H649 H 0.99884 0.46673 0.00878 0.0
H650 H 0.09651 0.54693 0.03566 0.0
C651 C 0.05056 0.54837 0.09345 0.0
C652 C 0.00703 0.4962 0.05757 0.0
C653 C 0.04604 0.5505 0.11054 0.0
C654 C 0.01927 0.4939 0.98587 0.0
C655 C 0.01824 0.49095 0.00325 0.0
C656 C 0.07122 0.53299 0.04151 0.0
C657 C 0.03539 0.51592 0.08546 0.0
C658 C 0.03746 0.51419 0.06709 0.0
C659 C 0.04223 0.51868 0.01327 0.0
C660 C 0.04067 0.51604 0.03185 0.0
H661 H 0.99795 0.46397 0.11927 0.0
H662 H 0.00497 0.46025 0.08909 0.0
H663 H 0.09343 0.54625 0.06603 0.0
H664 H 0.08849 0.57584 0.98227 0.0
H665 H 0.08586 0.57155 0.01256 0.0
C666 C 0.56962 0.04321 0.44124 0.0
C667 C 0.54806 0.04895 0.45198 0.0
C668 C 0.5632 0.03946 0.42414 0.0
C669 C 0.49751 0.0157 0.3919 0.0
H670 H 0.57679 0.07278 0.36369 0.0
C671 C 0.48787 0.01766 0.31958 0.0
C672 C 0.51623 0.02058 0.31049 0.0
C673 C 0.48969 0.02112 0.33696 0.0
C674 C 0.55445 0.05629 0.37134 0.0
H675 H 0.50209 0.054 0.45338 0.0
H676 H 0.49038 0.04671 0.42324 0.0
H677 H 0.58305 0.07809 0.39383 0.0
H678 H 0.56807 0.02787 0.31247 0.0
H679 H 0.57104 0.03303 0.34268 0.0
H680 H 0.46913 0.99309 0.36937 0.0
C681 C 0.51242 0.04543 0.42816 0.0
C682 C 0.55803 0.05951 0.38862 0.0
C683 C 0.51913 0.04965 0.44535 0.0
C684 C 0.54606 0.02615 0.31913 0.0
C685 C 0.54777 0.02925 0.33646 0.0
C686 C 0.49398 0.01216 0.37453 0.0
C687 C 0.53484 0.04097 0.41739 0.0
C688 C 0.52978 0.03894 0.39908 0.0
C689 C 0.51983 0.02729 0.34561 0.0
C690 C 0.5226 0.03207 0.36404 0.0
H691 H 0.59197 0.0423 0.44599 0.0
H692 H 0.58058 0.03553 0.41615 0.0
H693 H 0.47536 0.99944 0.39971 0.0
H694 H 0.46462 0.01359 0.31321 0.0
H695 H 0.4678 0.01976 0.34356 0.0
C696 C 0.56938 0.55439 0.77831 0.0
C697 C 0.54082 0.52474 0.78512 0.0
C698 C 0.57149 0.56026 0.76107 0.0
C699 C 0.54129 0.51259 0.72176 0.0
H700 H 0.56132 0.60026 0.70198 0.0
C701 C 0.52084 0.52265 0.65192 0.0
C702 C 0.54492 0.55262 0.64333 0.0
C703 C 0.52175 0.5212 0.66928 0.0
C704 C 0.5562 0.57576 0.7073 0.0
H705 H 0.49174 0.47855 0.7794 0.0
H706 H 0.49564 0.48855 0.74945 0.0
H707 H 0.56118 0.59477 0.73235 0.0
H708 H 0.58873 0.60472 0.64617 0.0
H709 H 0.59083 0.60202 0.67657 0.0
H710 H 0.5367 0.49347 0.69693 0.0
C711 C 0.51646 0.50714 0.75734 0.0
C712 C 0.55606 0.57265 0.72468 0.0
C713 C 0.51419 0.5015 0.7745 0.0
C714 C 0.56968 0.58136 0.65249 0.0
C715 C 0.57081 0.57982 0.6699 0.0
C716 C 0.54174 0.51576 0.70445 0.0
C717 C 0.54528 0.53631 0.75041 0.0
C718 C 0.54801 0.54083 0.73206 0.0
C719 C 0.54702 0.54957 0.6785 0.0
C720 C 0.54857 0.54717 0.69697 0.0
H721 H 0.59025 0.57272 0.78626 0.0
H722 H 0.59401 0.58294 0.75603 0.0
H723 H 0.53564 0.48793 0.72712 0.0
H724 H 0.50106 0.50034 0.6452 0.0
H725 H 0.50245 0.49781 0.67547 0.0
C726 C 0.51937 0.08023 0.55544 0.0
C727 C 0.53587 0.06816 0.54466 0.0
C728 C 0.53221 0.09137 0.57153 0.0
C729 C 0.58715 0.08255 0.60356 0.0
H730 H 0.582 0.15822 0.62485 0.0
C731 C 0.63877 0.12651 0.66984 0.0
C732 C 0.61487 0.12791 0.68085 0.0
C733 C 0.63332 0.12486 0.65265 0.0
C734 C 0.58357 0.13704 0.61904 0.0
H735 H 0.57876 0.05839 0.5421 0.0
H736 H 0.60194 0.07888 0.56995 0.0
H737 H 0.56448 0.14405 0.59571 0.0
H738 H 0.56749 0.13054 0.68232 0.0
H739 H 0.55828 0.12813 0.65227 0.0
H740 H 0.60608 0.07547 0.62688 0.0
C741 C 0.5787 0.07919 0.56617 0.0
C742 C 0.5734 0.1288 0.60239 0.0
C743 C 0.56563 0.06773 0.55015 0.0
C744 C 0.58659 0.12983 0.6742 0.0
C745 C 0.58125 0.12837 0.65698 0.0
C746 C 0.59757 0.09099 0.62012 0.0
C747 C 0.56197 0.09086 0.57712 0.0
C748 C 0.57468 0.10116 0.5945 0.0
C749 C 0.604 0.12482 0.64607 0.0
C750 C 0.59554 0.11806 0.62809 0.0
H751 H 0.49631 0.08075 0.55151 0.0
H752 H 0.51831 0.09963 0.5797 0.0
H753 H 0.58788 0.0607 0.59803 0.0
H754 H 0.66119 0.1257 0.67455 0.0
H755 H 0.6516 0.12275 0.64449 0.0
C756 C 0.60152 0.5661 0.88873 0.0
C757 C 0.57381 0.54621 0.87787 0.0
C758 C 0.60036 0.55572 0.90526 0.0
C759 C 0.5378 0.50256 0.93774 0.0
H760 H 0.62054 0.51755 0.96121 0.0
C761 C 0.53284 0.46513 0.00663 0.0
C762 C 0.55811 0.49118 0.01688 0.0
C763 C 0.53595 0.46776 0.9893 0.0
C764 C 0.59726 0.5133 0.95481 0.0
H765 H 0.52363 0.49941 0.87547 0.0
H766 H 0.52178 0.48087 0.90428 0.0
H767 H 0.62348 0.5295 0.93135 0.0
H768 H 0.60708 0.53985 0.01698 0.0
H769 H 0.6126 0.54432 0.98673 0.0
H770 H 0.51169 0.4868 0.9612 0.0
C771 C 0.54414 0.50483 0.90016 0.0
C772 C 0.59893 0.5202 0.93773 0.0
C773 C 0.54525 0.51533 0.88365 0.0
C774 C 0.58735 0.51914 0.00944 0.0
C775 C 0.59051 0.52172 0.9921 0.0
C776 C 0.5361 0.49553 0.95477 0.0
C777 C 0.57151 0.52512 0.91121 0.0
C778 C 0.56932 0.51536 0.92905 0.0
C779 C 0.56447 0.49644 0.98186 0.0
C780 C 0.5659 0.50124 0.96353 0.0
H781 H 0.62386 0.59002 0.88455 0.0
H782 H 0.62165 0.57221 0.91348 0.0
H783 H 0.51464 0.49909 0.93152 0.0
H784 H 0.51033 0.44292 0.012 0.0
H785 H 0.51577 0.44759 0.98172 0.0
C786 C 0.98439 0.45643 0.223 0.0
C787 C 0.99806 0.48585 0.2127 0.0
C788 C 0.97393 0.45787 0.23923 0.0
C789 C 0.95088 0.50874 0.26769 0.0
H790 H 0.98323 0.46997 0.30189 0.0
C791 C 0.95912 0.54413 0.33746 0.0
C792 C 0.95312 0.51852 0.34937 0.0
C793 C 0.95882 0.53723 0.32046 0.0
C794 C 0.97338 0.48036 0.29251 0.0
H795 H 0.01048 0.53952 0.21099 0.0
H796 H 0.99251 0.54222 0.23949 0.0
H797 H 0.9936 0.46347 0.27272 0.0
H798 H 0.94057 0.46503 0.35267 0.0
H799 H 0.9391 0.45271 0.32301 0.0
H800 H 0.93116 0.52612 0.28758 0.0
C801 C 0.98962 0.51794 0.23498 0.0
C802 C 0.97939 0.47668 0.27577 0.0
C803 C 1.00013 0.51649 0.21873 0.0
C804 C 0.9451 0.4853 0.34385 0.0
C805 C 0.94469 0.47836 0.32684 0.0
C806 C 0.94477 0.51236 0.28448 0.0
C807 C 0.9769 0.48879 0.24549 0.0
C808 C 0.96853 0.49111 0.26318 0.0
C809 C 0.9524 0.5045 0.31497 0.0
C810 C 0.95628 0.4985 0.29708 0.0
H811 H 0.98222 0.43237 0.21859 0.0
H812 H 0.96375 0.43483 0.24694 0.0
H813 H 0.94183 0.51977 0.25825 0.0
H814 H 0.96485 0.56984 0.3413 0.0
H815 H 0.96506 0.55802 0.31167 0.0
loop_
_geom_bond_atom_site_label_1
_geom_bond_atom_site_label_2
_geom_bond_distance
_geom_bond_site_symmetry_2
_ccdc_geom_bond_type
Dy0 O4 2.398 . S
Dy0 O5 2.491 . S
Dy0 O6 2.403 . S
Dy0 O7 2.664 . S
Dy0 O11 2.326 . S
Dy0 O15 2.310 . S
Dy0 O16 2.340 1_455 S
C1 O12 1.185 . S
C1 O13 1.355 . S
C2 O4 1.185 . S
C2 O5 1.355 . S
Dy3 O7 2.310 . S
Dy3 O10 2.351 . S
Dy3 O12 2.398 1_455 S
Dy3 O13 2.491 1_455 S
Dy3 O14 2.403 . S
Dy3 O15 2.664 . S
Dy3 O17 2.326 1_455 S
O4 Dy0 2.398 . S
O4 C2 1.185 . S
O5 Dy0 2.491 . S
O5 C2 1.355 . S
O6 Dy0 2.403 . S
O6 C8 1.254 . S
O7 Dy0 2.664 . S
O7 Dy3 2.310 . S
O7 C8 1.268 . S
C8 O6 1.254 . S
C8 O7 1.268 . S
C9 O14 1.254 . S
C9 O15 1.268 . S
O10 Dy3 2.351 . S
O10 C18 1.249 . S
O11 Dy0 2.326 . S
O11 C18 1.267 . S
O12 C1 1.185 . S
O12 Dy3 2.398 1_655 S
O13 C1 1.355 . S
O13 Dy3 2.491 1_655 S
O14 Dy3 2.403 . S
O14 C9 1.254 . S
O15 Dy0 2.310 . S
O15 Dy3 2.664 . S
O15 C9 1.268 . S
O16 Dy0 2.340 1_655 S
O16 C19 1.263 . S
O17 Dy3 2.326 1_655 S
O17 C19 1.267 . S
C18 O10 1.249 . S
C18 O11 1.267 . S
C19 O16 1.263 . S
C19 O17 1.267 . S
Dy20 O24 2.398 1_545 S
Dy20 O25 2.491 1_545 S
Dy20 O26 2.403 . S
Dy20 O27 2.664 . S
Dy20 O31 2.326 1_545 S
Dy20 O35 2.310 . S
Dy20 O36 2.351 . S
C21 O32 1.185 . S
C21 O33 1.355 . S
C22 O24 1.185 . S
C22 O25 1.355 . S
Dy23 O27 2.310 . S
Dy23 O30 2.351 . S
Dy23 O32 2.398 . S
Dy23 O33 2.491 . S
Dy23 O34 2.403 . S
Dy23 O35 2.664 . S
Dy23 O37 2.326 . S
O24 Dy20 2.398 1_565 S
O24 C22 1.185 . S
O25 Dy20 2.491 1_565 S
O25 C22 1.355 . S
O26 Dy20 2.403 . S
O26 C28 1.254 . S
O27 Dy20 2.664 . S
O27 Dy23 2.310 . S
O27 C28 1.268 . S
C28 O26 1.254 . S
C28 O27 1.268 . S
C29 O34 1.254 . S
C29 O35 1.268 . S
O30 Dy23 2.351 . S
O30 C38 1.249 1_545 S
O31 Dy20 2.326 1_565 S
O31 C38 1.267 . S
O32 C21 1.185 . S
O32 Dy23 2.398 . S
O33 C21 1.355 . S
O33 Dy23 2.491 . S
O34 Dy23 2.403 . S
O34 C29 1.254 . S
O35 Dy20 2.310 . S
O35 Dy23 2.664 . S
O35 C29 1.268 . S
O36 Dy20 2.351 . S
O36 C39 1.249 . S
O37 Dy23 2.326 . S
O37 C39 1.267 . S
C38 O30 1.249 1_565 S
C38 O31 1.267 . S
C39 O36 1.249 . S
C39 O37 1.267 . S
Dy40 O44 2.398 . S
Dy40 O45 2.491 . S
Dy40 O46 2.403 . S
Dy40 O47 2.664 . S
Dy40 O51 2.326 . S
Dy40 O55 2.310 . S
Dy40 O56 2.351 . S
C41 O52 1.185 . S
C41 O53 1.355 . S
C42 O44 1.185 . S
C42 O45 1.355 . S
Dy43 O47 2.310 . S
Dy43 O50 2.351 . S
Dy43 O52 2.398 . S
Dy43 O53 2.491 . S
Dy43 O54 2.403 . S
Dy43 O55 2.664 . S
Dy43 O57 2.326 . S
O44 Dy40 2.398 . S
O44 C42 1.185 . S
O45 Dy40 2.491 . S
O45 C42 1.355 . S
O46 Dy40 2.403 . S
O46 C48 1.254 . S
O47 Dy40 2.664 . S
O47 Dy43 2.310 . S
O47 C48 1.268 . S
C48 O46 1.254 . S
C48 O47 1.268 . S
C49 O54 1.254 . S
C49 O55 1.268 . S
O50 Dy43 2.351 . S
O50 C58 1.249 . S
O51 Dy40 2.326 . S
O51 C58 1.267 . S
O52 C41 1.185 . S
O52 Dy43 2.398 . S
O53 C41 1.355 . S
O53 Dy43 2.491 . S
O54 Dy43 2.403 . S
O54 C49 1.254 . S
O55 Dy40 2.310 . S
O55 Dy43 2.664 . S
O55 C49 1.268 . S
O56 Dy40 2.351 . S
O56 C59 1.249 . S
O57 Dy43 2.326 . S
O57 C59 1.267 . S
C58 O50 1.249 . S
C58 O51 1.267 . S
C59 O56 1.249 . S
C59 O57 1.267 . S
C60 C61 1.384 . S
C60 H73 0.947 . S
C60 C95 1.382 . S
C61 C60 1.384 . S
C61 C62 1.378 . S
C62 C61 1.378 . S
C62 C63 1.378 . S
C62 H74 0.952 . S
C63 C62 1.378 . S
C63 H75 0.950 . S
C63 C94 1.383 . S
H64 C83 0.947 . S
H65 C84 0.946 . S
H66 C86 0.953 . S
H67 C87 0.945 . S
H68 C89 0.952 . S
H69 C90 0.949 . S
H70 C92 0.950 . S
H71 C93 0.948 . S
H72 C95 0.951 . S
H73 C60 0.947 . S
H74 C62 0.952 . S
H75 C63 0.950 . S
N76 C79 1.382 . S
N76 C81 1.363 1_545 S
N77 C79 1.371 . S
N77 C80 1.372 . S
N78 C80 1.361 1_565 S
N78 C81 1.377 . S
C79 N76 1.382 . S
C79 N77 1.371 . S
C79 C82 1.480 . S
C80 N77 1.372 . S
C80 N78 1.361 1_545 S
C80 C88 1.457 . S
C81 N76 1.363 1_565 S
C81 N78 1.377 . S
C81 C94 1.479 . S
C82 C79 1.480 . S
C82 C83 1.383 . S
C82 C87 1.385 . S
C83 H64 0.947 . S
C83 C82 1.383 . S
C83 C84 1.388 . S
C84 H65 0.946 . S
C84 C83 1.388 . S
C84 C85 1.384 . S
C85 C84 1.384 . S
C85 C86 1.377 . S
C86 H66 0.953 . S
C86 C85 1.377 . S
C86 C87 1.369 . S
C87 H67 0.945 . S
C87 C82 1.385 . S
C87 C86 1.369 . S
C88 C80 1.457 . S
C88 C89 1.372 . S
C88 C93 1.364 1_545 S
C89 H68 0.952 . S
C89 C88 1.372 . S
C89 C90 1.389 . S
C90 H69 0.949 . S
C90 C89 1.389 . S
C90 C91 1.387 . S
C91 C90 1.387 . S
C91 C92 1.372 1_545 S
C92 H70 0.950 . S
C92 C91 1.372 1_565 S
C92 C93 1.379 . S
C93 H71 0.948 . S
C93 C88 1.364 1_565 S
C93 C92 1.379 . S
C94 C63 1.383 . S
C94 C81 1.479 . S
C94 C95 1.398 . S
C95 C60 1.382 . S
C95 H72 0.951 . S
C95 C94 1.398 . S
C96 C97 1.384 . S
C96 H109 0.947 . S
C96 C131 1.382 . S
C97 C96 1.384 . S
C97 C98 1.378 . S
C98 C97 1.378 . S
C98 C99 1.378 . S
C98 H110 0.952 . S
C99 C98 1.378 . S
C99 H111 0.950 . S
C99 C130 1.383 . S
H100 C119 0.947 . S
H101 C120 0.946 . S
H102 C122 0.953 . S
H103 C123 0.945 . S
H104 C125 0.952 . S
H105 C126 0.949 . S
H106 C128 0.950 . S
H107 C129 0.948 . S
H108 C131 0.951 . S
H109 C96 0.947 . S
H110 C98 0.952 . S
H111 C99 0.950 . S
N112 C115 1.382 . S
N112 C117 1.363 . S
N113 C115 1.371 . S
N113 C116 1.372 . S
N114 C116 1.361 . S
N114 C117 1.377 . S
C115 N112 1.382 . S
C115 N113 1.371 . S
C115 C118 1.480 . S
C116 N113 1.372 . S
C116 N114 1.361 . S
C116 C124 1.457 . S
C117 N112 1.363 . S
C117 N114 1.377 . S
C117 C130 1.479 . S
C118 C115 1.480 . S
C118 C119 1.383 . S
C118 C123 1.385 . S
C119 H100 0.947 . S
C119 C118 1.383 . S
C119 C120 1.388 . S
C120 H101 0.946 . S
C120 C119 1.388 . S
C120 C121 1.384 . S
C121 C120 1.384 . S
C121 C122 1.377 . S
C122 H102 0.953 . S
C122 C121 1.377 . S
C122 C123 1.369 . S
C123 H103 0.945 . S
C123 C118 1.385 . S
C123 C122 1.369 . S
C124 C116 1.457 . S
C124 C125 1.372 . S
C124 C129 1.364 . S
C125 H104 0.952 . S
C125 C124 1.372 . S
C125 C126 1.389 . S
C126 H105 0.949 . S
C126 C125 1.389 . S
C126 C127 1.387 . S
C127 C126 1.387 . S
C127 C128 1.372 . S
C128 H106 0.950 . S
C128 C127 1.372 . S
C128 C129 1.379 . S
C129 H107 0.948 . S
C129 C124 1.364 . S
C129 C128 1.379 . S
C130 C99 1.383 . S
C130 C117 1.479 . S
C130 C131 1.398 . S
C131 C96 1.382 . S
C131 H108 0.951 . S
C131 C130 1.398 . S
C132 C133 1.384 . S
C132 H145 0.947 . S
C132 C167 1.382 . S
C133 C132 1.384 . S
C133 C134 1.378 . S
C134 C133 1.378 . S
C134 C135 1.378 1_655 S
C134 H146 0.952 . S
C135 C134 1.378 1_455 S
C135 H147 0.950 . S
C135 C166 1.383 . S
H136 C155 0.947 . S
H137 C156 0.946 . S
H138 C158 0.953 . S
H139 C159 0.945 . S
H140 C161 0.952 . S
H141 C162 0.949 . S
H142 C164 0.950 . S
H143 C165 0.948 . S
H144 C167 0.951 . S
H145 C132 0.947 . S
H146 C134 0.952 . S
H147 C135 0.950 . S
N148 C151 1.382 . S
N148 C153 1.363 . S
N149 C151 1.371 . S
N149 C152 1.372 . S
N150 C152 1.361 . S
N150 C153 1.377 . S
C151 N148 1.382 . S
C151 N149 1.371 . S
C151 C154 1.480 . S
C152 N149 1.372 . S
C152 N150 1.361 . S
C152 C160 1.457 . S
C153 N148 1.363 . S
C153 N150 1.377 . S
C153 C166 1.479 . S
C154 C151 1.480 . S
C154 C155 1.383 . S
C154 C159 1.385 . S
C155 H136 0.947 . S
C155 C154 1.383 . S
C155 C156 1.388 . S
C156 H137 0.946 . S
C156 C155 1.388 . S
C156 C157 1.384 . S
C157 C156 1.384 . S
C157 C158 1.377 . S
C158 H138 0.953 . S
C158 C157 1.377 . S
C158 C159 1.369 . S
C159 H139 0.945 . S
C159 C154 1.385 . S
C159 C158 1.369 . S
C160 C152 1.457 . S
C160 C161 1.372 . S
C160 C165 1.364 . S
C161 H140 0.952 . S
C161 C160 1.372 . S
C161 C162 1.389 . S
C162 H141 0.949 . S
C162 C161 1.389 . S
C162 C163 1.387 . S
C163 C162 1.387 . S
C163 C164 1.372 . S
C164 H142 0.950 . S
C164 C163 1.372 . S
C164 C165 1.379 . S
C165 H143 0.948 . S
C165 C160 1.364 . S
C165 C164 1.379 . S
C166 C135 1.383 . S
C166 C153 1.479 . S
C166 C167 1.398 1_455 S
C167 C132 1.382 . S
C167 H144 0.951 . S
C167 C166 1.398 1_655 S
C168 C169 1.384 . S
C168 H181 0.947 . S
C168 C203 1.382 . S
C169 C168 1.384 . S
C169 C170 1.378 . S
C170 C169 1.378 . S
C170 C171 1.378 . S
C170 H182 0.952 . S
C171 C170 1.378 . S
C171 H183 0.950 . S
C171 C202 1.383 . S
H172 C191 0.947 . S
H173 C192 0.946 . S
H174 C194 0.953 . S
H175 C195 0.945 . S
H176 C197 0.952 . S
H177 C198 0.949 . S
H178 C200 0.950 . S
H179 C201 0.948 . S
H180 C203 0.951 . S
H181 C168 0.947 . S
H182 C170 0.952 . S
H183 C171 0.950 . S
N184 C187 1.382 1_455 S
N184 C189 1.363 . S
N185 C187 1.371 . S
N185 C188 1.372 1_655 S
N186 C188 1.361 . S
N186 C189 1.377 . S
C187 N184 1.382 1_655 S
C187 N185 1.371 . S
C187 C190 1.480 . S
C188 N185 1.372 1_455 S
C188 N186 1.361 . S
C188 C196 1.457 . S
C189 N184 1.363 . S
C189 N186 1.377 . S
C189 C202 1.479 . S
C190 C187 1.480 . S
C190 C191 1.383 . S
C190 C195 1.385 . S
C191 H172 0.947 . S
C191 C190 1.383 . S
C191 C192 1.388 . S
C192 H173 0.946 . S
C192 C191 1.388 . S
C192 C193 1.384 . S
C193 C192 1.384 . S
C193 C194 1.377 . S
C194 H174 0.953 . S
C194 C193 1.377 . S
C194 C195 1.369 . S
C195 H175 0.945 . S
C195 C190 1.385 . S
C195 C194 1.369 . S
C196 C188 1.457 . S
C196 C197 1.372 1_455 S
C196 C201 1.364 . S
C197 H176 0.952 . S
C197 C196 1.372 1_655 S
C197 C198 1.389 . S
C198 H177 0.949 . S
C198 C197 1.389 . S
C198 C199 1.387 1_655 S
C199 C198 1.387 1_455 S
C199 C200 1.372 . S
C200 H178 0.950 . S
C200 C199 1.372 . S
C200 C201 1.379 . S
C201 H179 0.948 . S
C201 C196 1.364 . S
C201 C200 1.379 . S
C202 C171 1.383 . S
C202 C189 1.479 . S
C202 C203 1.398 . S
C203 C168 1.382 . S
C203 H180 0.951 . S
C203 C202 1.398 . S
C204 C205 1.384 . S
C204 H217 0.947 . S
C204 C239 1.382 . S
C205 C204 1.384 . S
C205 C206 1.378 . S
C206 C205 1.378 . S
C206 C207 1.378 . S
C206 H218 0.952 . S
C207 C206 1.378 . S
C207 H219 0.950 . S
C207 C238 1.383 . S
H208 C227 0.947 . S
H209 C228 0.946 . S
H210 C230 0.953 . S
H211 C231 0.945 . S
H212 C233 0.952 . S
H213 C234 0.949 . S
H214 C236 0.950 . S
H215 C237 0.948 . S
H216 C239 0.951 . S
H217 C204 0.947 . S
H218 C206 0.952 . S
H219 C207 0.950 . S
N220 C223 1.382 . S
N220 C225 1.363 . S
N221 C223 1.371 . S
N221 C224 1.372 . S
N222 C224 1.361 . S
N222 C225 1.377 . S
C223 N220 1.382 . S
C223 N221 1.371 . S
C223 C226 1.480 . S
C224 N221 1.372 . S
C224 N222 1.361 . S
C224 C232 1.457 . S
C225 N220 1.363 . S
C225 N222 1.377 . S
C225 C238 1.479 . S
C226 C223 1.480 . S
C226 C227 1.383 . S
C226 C231 1.385 1_545 S
C227 H208 0.947 . S
C227 C226 1.383 . S
C227 C228 1.388 1_545 S
C228 H209 0.946 . S
C228 C227 1.388 1_565 S
C228 C229 1.384 . S
C229 C228 1.384 . S
C229 C230 1.377 . S
C230 H210 0.953 . S
C230 C229 1.377 . S
C230 C231 1.369 . S
C231 H211 0.945 . S
C231 C226 1.385 1_565 S
C231 C230 1.369 . S
C232 C224 1.457 . S
C232 C233 1.372 . S
C232 C237 1.364 . S
C233 H212 0.952 . S
C233 C232 1.372 . S
C233 C234 1.389 . S
C234 H213 0.949 . S
C234 C233 1.389 . S
C234 C235 1.387 . S
C235 C234 1.387 . S
C235 C236 1.372 . S
C236 H214 0.950 . S
C236 C235 1.372 . S
C236 C237 1.379 . S
C237 H215 0.948 . S
C237 C232 1.364 . S
C237 C236 1.379 . S
C238 C207 1.383 . S
C238 C225 1.479 . S
C238 C239 1.398 . S
C239 C204 1.382 . S
C239 H216 0.951 . S
C239 C238 1.398 . S
C240 C241 1.384 . S
C240 H253 0.947 . S
C240 C275 1.382 . S
C241 C240 1.384 . S
C241 C242 1.378 . S
C242 C241 1.378 . S
C242 C243 1.378 . S
C242 H254 0.952 . S
C243 C242 1.378 . S
C243 H255 0.950 . S
C243 C274 1.383 . S
H244 C263 0.947 . S
H245 C264 0.946 . S
H246 C266 0.953 . S
H247 C267 0.945 . S
H248 C269 0.952 . S
H249 C270 0.949 . S
H250 C272 0.950 . S
H251 C273 0.948 . S
H252 C275 0.951 . S
H253 C240 0.947 . S
H254 C242 0.952 . S
H255 C243 0.950 . S
N256 C259 1.382 . S
N256 C261 1.363 . S
N257 C259 1.371 . S
N257 C260 1.372 . S
N258 C260 1.361 . S
N258 C261 1.377 . S
C259 N256 1.382 . S
C259 N257 1.371 . S
C259 C262 1.480 . S
C260 N257 1.372 . S
C260 N258 1.361 . S
C260 C268 1.457 . S
C261 N256 1.363 . S
C261 N258 1.377 . S
C261 C274 1.479 . S
C262 C259 1.480 . S
C262 C263 1.383 . S
C262 C267 1.385 . S
C263 H244 0.947 . S
C263 C262 1.383 . S
C263 C264 1.388 . S
C264 H245 0.946 . S
C264 C263 1.388 . S
C264 C265 1.384 . S
C265 C264 1.384 . S
C265 C266 1.377 . S
C266 H246 0.953 . S
C266 C265 1.377 . S
C266 C267 1.369 . S
C267 H247 0.945 . S
C267 C262 1.385 . S
C267 C266 1.369 . S
C268 C260 1.457 . S
C268 C269 1.372 . S
C268 C273 1.364 . S
C269 H248 0.952 . S
C269 C268 1.372 . S
C269 C270 1.389 . S
C270 H249 0.949 . S
C270 C269 1.389 . S
C270 C271 1.387 . S
C271 C270 1.387 . S
C271 C272 1.372 . S
C272 H250 0.950 . S
C272 C271 1.372 . S
C272 C273 1.379 . S
C273 H251 0.948 . S
C273 C268 1.364 . S
C273 C272 1.379 . S
C274 C243 1.383 . S
C274 C261 1.479 . S
C274 C275 1.398 . S
C275 C240 1.382 . S
C275 H252 0.951 . S
C275 C274 1.398 . S
C276 C277 1.349 . S
C276 C278 1.327 . S
C276 H301 0.950 . S
C277 C276 1.349 . S
C277 C293 1.349 . S
C278 C276 1.327 . S
C278 C297 1.429 . S
C278 H302 0.950 . S
C279 C296 1.574 . S
C279 C298 1.368 . S
C279 H303 0.949 . S
H280 C284 0.949 . S
C281 C282 1.349 . S
C281 C283 1.327 . S
C281 H304 0.950 . S
C282 C281 1.349 . S
C282 C294 1.349 . S
C283 C281 1.327 . S
C283 C299 1.429 . S
C283 H305 0.950 . S
C284 H280 0.949 . S
C284 C292 1.574 . S
C284 C300 1.368 . S
H285 C293 0.950 . S
H286 C291 0.950 . S
H287 C292 0.949 . S
H288 C294 0.950 . S
H289 C295 0.950 . S
H290 C296 0.949 . S
C291 H286 0.950 . S
C291 C293 1.327 . S
C291 C297 1.429 . S
C292 C284 1.574 . S
C292 H287 0.949 . S
C292 C298 1.368 . S
C293 C277 1.349 . S
C293 H285 0.950 . S
C293 C291 1.327 . S
C294 C282 1.349 . S
C294 H288 0.950 . S
C294 C295 1.327 . S
C295 H289 0.950 . S
C295 C294 1.327 . S
C295 C299 1.429 . S
C296 C279 1.574 . S
C296 H290 0.949 . S
C296 C300 1.368 . S
C297 C278 1.429 . S
C297 C291 1.429 . S
C297 C298 1.523 . S
C298 C279 1.368 . S
C298 C292 1.368 . S
C298 C297 1.523 . S
C299 C283 1.429 . S
C299 C295 1.429 . S
C299 C300 1.523 . S
C300 C284 1.368 . S
C300 C296 1.368 . S
C300 C299 1.523 . S
H301 C276 0.950 . S
H302 C278 0.950 . S
H303 C279 0.949 . S
H304 C281 0.950 . S
H305 C283 0.950 . S
C306 C307 1.349 . S
C306 C308 1.327 . S
C306 H331 0.950 . S
C307 C306 1.349 . S
C307 C323 1.349 . S
C308 C306 1.327 . S
C308 C327 1.429 . S
C308 H332 0.950 . S
C309 C326 1.574 . S
C309 C328 1.368 . S
C309 H333 0.949 . S
H310 C314 0.949 . S
C311 C312 1.349 . S
C311 C313 1.327 . S
C311 H334 0.950 . S
C312 C311 1.349 . S
C312 C324 1.349 . S
C313 C311 1.327 . S
C313 C329 1.429 . S
C313 H335 0.950 . S
C314 H310 0.949 . S
C314 C322 1.574 . S
C314 C330 1.368 . S
H315 C323 0.950 . S
H316 C321 0.950 . S
H317 C322 0.949 . S
H318 C324 0.950 . S
H319 C325 0.950 . S
H320 C326 0.949 . S
C321 H316 0.950 . S
C321 C323 1.327 . S
C321 C327 1.429 . S
C322 C314 1.574 . S
C322 H317 0.949 . S
C322 C328 1.368 . S
C323 C307 1.349 . S
C323 H315 0.950 . S
C323 C321 1.327 . S
C324 C312 1.349 . S
C324 H318 0.950 . S
C324 C325 1.327 . S
C325 H319 0.950 . S
C325 C324 1.327 . S
C325 C329 1.429 . S
C326 C309 1.574 . S
C326 H320 0.949 . S
C326 C330 1.368 . S
C327 C308 1.429 . S
C327 C321 1.429 . S
C327 C328 1.523 . S
C328 C309 1.368 . S
C328 C322 1.368 . S
C328 C327 1.523 . S
C329 C313 1.429 . S
C329 C325 1.429 . S
C329 C330 1.523 . S
C330 C314 1.368 . S
C330 C326 1.368 . S
C330 C329 1.523 . S
H331 C306 0.950 . S
H332 C308 0.950 . S
H333 C309 0.949 . S
H334 C311 0.950 . S
H335 C313 0.950 . S
C336 C337 1.349 . S
C336 C338 1.327 . S
C336 H361 0.950 . S
C337 C336 1.349 . S
C337 C353 1.349 . S
C338 C336 1.327 . S
C338 C357 1.429 . S
C338 H362 0.950 . S
C339 C356 1.574 . S
C339 C358 1.368 . S
C339 H363 0.949 . S
H340 C344 0.949 . S
C341 C342 1.349 . S
C341 C343 1.327 . S
C341 H364 0.950 . S
C342 C341 1.349 . S
C342 C354 1.349 . S
C343 C341 1.327 . S
C343 C359 1.429 . S
C343 H365 0.950 . S
C344 H340 0.949 . S
C344 C352 1.574 . S
C344 C360 1.368 . S
H345 C353 0.950 . S
H346 C351 0.950 . S
H347 C352 0.949 . S
H348 C354 0.950 . S
H349 C355 0.950 . S
H350 C356 0.949 . S
C351 H346 0.950 . S
C351 C353 1.327 . S
C351 C357 1.429 . S
C352 C344 1.574 . S
C352 H347 0.949 . S
C352 C358 1.368 . S
C353 C337 1.349 . S
C353 H345 0.950 . S
C353 C351 1.327 . S
C354 C342 1.349 . S
C354 H348 0.950 . S
C354 C355 1.327 . S
C355 H349 0.950 . S
C355 C354 1.327 . S
C355 C359 1.429 . S
C356 C339 1.574 . S
C356 H350 0.949 . S
C356 C360 1.368 . S
C357 C338 1.429 . S
C357 C351 1.429 . S
C357 C358 1.523 . S
C358 C339 1.368 . S
C358 C352 1.368 . S
C358 C357 1.523 . S
C359 C343 1.429 . S
C359 C355 1.429 . S
C359 C360 1.523 . S
C360 C344 1.368 . S
C360 C356 1.368 . S
C360 C359 1.523 . S
H361 C336 0.950 . S
H362 C338 0.950 . S
H363 C339 0.949 . S
H364 C341 0.950 . S
H365 C343 0.950 . S
C366 C367 1.349 . S
C366 C368 1.327 . S
C366 H391 0.950 . S
C367 C366 1.349 . S
C367 C383 1.349 . S
C368 C366 1.327 . S
C368 C387 1.429 . S
C368 H392 0.950 . S
C369 C386 1.574 . S
C369 C388 1.368 . S
C369 H393 0.949 . S
H370 C374 0.949 . S
C371 C372 1.349 . S
C371 C373 1.327 . S
C371 H394 0.950 . S
C372 C371 1.349 . S
C372 C384 1.349 . S
C373 C371 1.327 . S
C373 C389 1.429 . S
C373 H395 0.950 . S
C374 H370 0.949 . S
C374 C382 1.574 . S
C374 C390 1.368 . S
H375 C383 0.950 . S
H376 C381 0.950 . S
H377 C382 0.949 . S
H378 C384 0.950 . S
H379 C385 0.950 . S
H380 C386 0.949 . S
C381 H376 0.950 . S
C381 C383 1.327 . S
C381 C387 1.429 . S
C382 C374 1.574 . S
C382 H377 0.949 . S
C382 C388 1.368 . S
C383 C367 1.349 . S
C383 H375 0.950 . S
C383 C381 1.327 . S
C384 C372 1.349 . S
C384 H378 0.950 . S
C384 C385 1.327 . S
C385 H379 0.950 . S
C385 C384 1.327 . S
C385 C389 1.429 . S
C386 C369 1.574 . S
C386 H380 0.949 . S
C386 C390 1.368 . S
C387 C368 1.429 . S
C387 C381 1.429 . S
C387 C388 1.523 . S
C388 C369 1.368 . S
C388 C382 1.368 . S
C388 C387 1.523 . S
C389 C373 1.429 . S
C389 C385 1.429 . S
C389 C390 1.523 . S
C390 C374 1.368 . S
C390 C386 1.368 . S
C390 C389 1.523 . S
H391 C366 0.950 . S
H392 C368 0.950 . S
H393 C369 0.949 . S
H394 C371 0.950 . S
H395 C373 0.950 . S
C396 C397 1.349 . S
C396 C398 1.327 . S
C396 H421 0.950 . S
C397 C396 1.349 . S
C397 C413 1.349 . S
C398 C396 1.327 . S
C398 C417 1.429 . S
C398 H422 0.950 . S
C399 C416 1.574 . S
C399 C418 1.368 . S
C399 H423 0.949 . S
H400 C404 0.949 . S
C401 C402 1.349 . S
C401 C403 1.327 . S
C401 H424 0.950 . S
C402 C401 1.349 . S
C402 C414 1.349 . S
C403 C401 1.327 . S
C403 C419 1.429 . S
C403 H425 0.950 . S
C404 H400 0.949 . S
C404 C412 1.574 . S
C404 C420 1.368 . S
H405 C413 0.950 . S
H406 C411 0.950 . S
H407 C412 0.949 . S
H408 C414 0.950 . S
H409 C415 0.950 . S
H410 C416 0.949 . S
C411 H406 0.950 . S
C411 C413 1.327 . S
C411 C417 1.429 . S
C412 C404 1.574 . S
C412 H407 0.949 . S
C412 C418 1.368 . S
C413 C397 1.349 . S
C413 H405 0.950 . S
C413 C411 1.327 . S
C414 C402 1.349 . S
C414 H408 0.950 . S
C414 C415 1.327 . S
C415 H409 0.950 . S
C415 C414 1.327 . S
C415 C419 1.429 . S
C416 C399 1.574 . S
C416 H410 0.949 . S
C416 C420 1.368 . S
C417 C398 1.429 . S
C417 C411 1.429 . S
C417 C418 1.523 . S
C418 C399 1.368 . S
C418 C412 1.368 . S
C418 C417 1.523 . S
C419 C403 1.429 . S
C419 C415 1.429 . S
C419 C420 1.523 . S
C420 C404 1.368 . S
C420 C416 1.368 . S
C420 C419 1.523 . S
H421 C396 0.950 . S
H422 C398 0.950 . S
H423 C399 0.949 . S
H424 C401 0.950 . S
H425 C403 0.950 . S
C426 C427 1.349 . S
C426 C428 1.327 . S
C426 H451 0.950 . S
C427 C426 1.349 . S
C427 C443 1.349 . S
C428 C426 1.327 . S
C428 C447 1.429 . S
C428 H452 0.950 . S
C429 C446 1.574 . S
C429 C448 1.368 . S
C429 H453 0.949 . S
H430 C434 0.949 . S
C431 C432 1.349 . S
C431 C433 1.327 . S
C431 H454 0.950 . S
C432 C431 1.349 . S
C432 C444 1.349 . S
C433 C431 1.327 . S
C433 C449 1.429 . S
C433 H455 0.950 . S
C434 H430 0.949 . S
C434 C442 1.574 . S
C434 C450 1.368 . S
H435 C443 0.950 . S
H436 C441 0.950 . S
H437 C442 0.949 . S
H438 C444 0.950 . S
H439 C445 0.950 . S
H440 C446 0.949 . S
C441 H436 0.950 . S
C441 C443 1.327 . S
C441 C447 1.429 . S
C442 C434 1.574 . S
C442 H437 0.949 . S
C442 C448 1.368 . S
C443 C427 1.349 . S
C443 H435 0.950 . S
C443 C441 1.327 . S
C444 C432 1.349 . S
C444 H438 0.950 . S
C444 C445 1.327 . S
C445 H439 0.950 . S
C445 C444 1.327 . S
C445 C449 1.429 . S
C446 C429 1.574 . S
C446 H440 0.949 . S
C446 C450 1.368 . S
C447 C428 1.429 . S
C447 C441 1.429 . S
C447 C448 1.523 . S
C448 C429 1.368 . S
C448 C442 1.368 . S
C448 C447 1.523 . S
C449 C433 1.429 . S
C449 C445 1.429 . S
C449 C450 1.523 . S
C450 C434 1.368 . S
C450 C446 1.368 . S
C450 C449 1.523 . S
H451 C426 0.950 . S
H452 C428 0.950 . S
H453 C429 0.949 . S
H454 C431 0.950 . S
H455 C433 0.950 . S
C456 C457 1.349 . S
C456 C458 1.327 . S
C456 H481 0.950 . S
C457 C456 1.349 . S
C457 C473 1.349 . S
C458 C456 1.327 . S
C458 C477 1.429 . S
C458 H482 0.950 . S
C459 C476 1.574 . S
C459 C478 1.368 . S
C459 H483 0.949 . S
H460 C464 0.949 . S
C461 C462 1.349 . S
C461 C463 1.327 . S
C461 H484 0.950 . S
C462 C461 1.349 . S
C462 C474 1.349 . S
C463 C461 1.327 . S
C463 C479 1.429 . S
C463 H485 0.950 . S
C464 H460 0.949 . S
C464 C472 1.574 . S
C464 C480 1.368 . S
H465 C473 0.950 . S
H466 C471 0.950 . S
H467 C472 0.949 . S
H468 C474 0.950 . S
H469 C475 0.950 . S
H470 C476 0.949 . S
C471 H466 0.950 . S
C471 C473 1.327 . S
C471 C477 1.429 . S
C472 C464 1.574 . S
C472 H467 0.949 . S
C472 C478 1.368 . S
C473 C457 1.349 . S
C473 H465 0.950 . S
C473 C471 1.327 . S
C474 C462 1.349 . S
C474 H468 0.950 . S
C474 C475 1.327 . S
C475 H469 0.950 . S
C475 C474 1.327 . S
C475 C479 1.429 . S
C476 C459 1.574 . S
C476 H470 0.949 . S
C476 C480 1.368 . S
C477 C458 1.429 . S
C477 C471 1.429 . S
C477 C478 1.523 . S
C478 C459 1.368 . S
C478 C472 1.368 . S
C478 C477 1.523 . S
C479 C463 1.429 . S
C479 C475 1.429 . S
C479 C480 1.523 . S
C480 C464 1.368 . S
C480 C476 1.368 . S
C480 C479 1.523 . S
H481 C456 0.950 . S
H482 C458 0.950 . S
H483 C459 0.949 . S
H484 C461 0.950 . S
H485 C463 0.950 . S
C486 C487 1.349 . S
C486 C488 1.327 . S
C486 H511 0.950 . S
C487 C486 1.349 . S
C487 C503 1.349 . S
C488 C486 1.327 . S
C488 C507 1.429 . S
C488 H512 0.950 . S
C489 C506 1.574 . S
C489 C508 1.368 . S
C489 H513 0.949 . S
H490 C494 0.949 . S
C491 C492 1.349 . S
C491 C493 1.327 . S
C491 H514 0.950 . S
C492 C491 1.349 . S
C492 C504 1.349 . S
C493 C491 1.327 . S
C493 C509 1.429 . S
C493 H515 0.950 . S
C494 H490 0.949 . S
C494 C502 1.574 . S
C494 C510 1.368 . S
H495 C503 0.950 . S
H496 C501 0.950 . S
H497 C502 0.949 . S
H498 C504 0.950 . S
H499 C505 0.950 . S
H500 C506 0.949 . S
C501 H496 0.950 . S
C501 C503 1.327 . S
C501 C507 1.429 . S
C502 C494 1.574 . S
C502 H497 0.949 . S
C502 C508 1.368 . S
C503 C487 1.349 . S
C503 H495 0.950 . S
C503 C501 1.327 . S
C504 C492 1.349 . S
C504 H498 0.950 . S
C504 C505 1.327 . S
C505 H499 0.950 . S
C505 C504 1.327 . S
C505 C509 1.429 . S
C506 C489 1.574 . S
C506 H500 0.949 . S
C506 C510 1.368 . S
C507 C488 1.429 . S
C507 C501 1.429 . S
C507 C508 1.523 . S
C508 C489 1.368 . S
C508 C502 1.368 . S
C508 C507 1.523 . S
C509 C493 1.429 . S
C509 C505 1.429 . S
C509 C510 1.523 . S
C510 C494 1.368 . S
C510 C506 1.368 . S
C510 C509 1.523 . S
H511 C486 0.950 . S
H512 C488 0.950 . S
H513 C489 0.949 . S
H514 C491 0.950 . S
H515 C493 0.950 . S
C516 C517 1.349 . S
C516 C518 1.327 . S
C516 H541 0.950 . S
C517 C516 1.349 . S
C517 C533 1.349 . S
C518 C516 1.327 . S
C518 C537 1.429 . S
C518 H542 0.950 . S
C519 C536 1.574 . S
C519 C538 1.368 . S
C519 H543 0.949 . S
H520 C524 0.949 . S
C521 C522 1.349 . S
C521 C523 1.327 . S
C521 H544 0.950 . S
C522 C521 1.349 . S
C522 C534 1.349 . S
C523 C521 1.327 . S
C523 C539 1.429 . S
C523 H545 0.950 . S
C524 H520 0.949 . S
C524 C532 1.574 . S
C524 C540 1.368 . S
H525 C533 0.950 . S
H526 C531 0.950 . S
H527 C532 0.949 . S
H528 C534 0.950 . S
H529 C535 0.950 . S
H530 C536 0.949 . S
C531 H526 0.950 . S
C531 C533 1.327 . S
C531 C537 1.429 . S
C532 C524 1.574 . S
C532 H527 0.949 . S
C532 C538 1.368 . S
C533 C517 1.349 . S
C533 H525 0.950 . S
C533 C531 1.327 . S
C534 C522 1.349 . S
C534 H528 0.950 . S
C534 C535 1.327 . S
C535 H529 0.950 . S
C535 C534 1.327 . S
C535 C539 1.429 . S
C536 C519 1.574 . S
C536 H530 0.949 . S
C536 C540 1.368 . S
C537 C518 1.429 . S
C537 C531 1.429 . S
C537 C538 1.523 . S
C538 C519 1.368 . S
C538 C532 1.368 . S
C538 C537 1.523 . S
C539 C523 1.429 . S
C539 C535 1.429 . S
C539 C540 1.523 . S
C540 C524 1.368 . S
C540 C536 1.368 . S
C540 C539 1.523 . S
H541 C516 0.950 . S
H542 C518 0.950 . S
H543 C519 0.949 . S
H544 C521 0.950 . S
H545 C523 0.950 . S
C546 C547 1.349 . S
C546 C548 1.327 . S
C546 H571 0.950 . S
C547 C546 1.349 . S
C547 C563 1.349 . S
C548 C546 1.327 . S
C548 C567 1.429 . S
C548 H572 0.950 . S
C549 C566 1.574 . S
C549 C568 1.368 . S
C549 H573 0.949 . S
H550 C554 0.949 . S
C551 C552 1.349 . S
C551 C553 1.327 . S
C551 H574 0.950 . S
C552 C551 1.349 . S
C552 C564 1.349 . S
C553 C551 1.327 . S
C553 C569 1.429 . S
C553 H575 0.950 . S
C554 H550 0.949 . S
C554 C562 1.574 . S
C554 C570 1.368 . S
H555 C563 0.950 . S
H556 C561 0.950 . S
H557 C562 0.949 . S
H558 C564 0.950 . S
H559 C565 0.950 . S
H560 C566 0.949 . S
C561 H556 0.950 . S
C561 C563 1.327 . S
C561 C567 1.429 . S
C562 C554 1.574 . S
C562 H557 0.949 . S
C562 C568 1.368 . S
C563 C547 1.349 . S
C563 H555 0.950 . S
C563 C561 1.327 . S
C564 C552 1.349 . S
C564 H558 0.950 . S
C564 C565 1.327 . S
C565 H559 0.950 . S
C565 C564 1.327 . S
C565 C569 1.429 . S
C566 C549 1.574 . S
C566 H560 0.949 . S
C566 C570 1.368 . S
C567 C548 1.429 . S
C567 C561 1.429 . S
C567 C568 1.523 . S
C568 C549 1.368 . S
C568 C562 1.368 . S
C568 C567 1.523 . S
C569 C553 1.429 . S
C569 C565 1.429 . S
C569 C570 1.523 . S
C570 C554 1.368 . S
C570 C566 1.368 . S
C570 C569 1.523 . S
H571 C546 0.950 . S
H572 C548 0.950 . S
H573 C549 0.949 . S
H574 C551 0.950 . S
H575 C553 0.950 . S
C576 C577 1.349 . S
C576 C578 1.327 . S
C576 H601 0.950 . S
C577 C576 1.349 . S
C577 C593 1.349 . S
C578 C576 1.327 . S
C578 C597 1.429 . S
C578 H602 0.950 . S
C579 C596 1.574 . S
C579 C598 1.368 . S
C579 H603 0.949 . S
H580 C584 0.949 . S
C581 C582 1.349 . S
C581 C583 1.327 . S
C581 H604 0.950 . S
C582 C581 1.349 . S
C582 C594 1.349 . S
C583 C581 1.327 . S
C583 C599 1.429 . S
C583 H605 0.950 . S
C584 H580 0.949 . S
C584 C592 1.574 . S
C584 C600 1.368 . S
H585 C593 0.950 . S
H586 C591 0.950 . S
H587 C592 0.949 . S
H588 C594 0.950 . S
H589 C595 0.950 . S
H590 C596 0.949 . S
C591 H586 0.950 . S
C591 C593 1.327 . S
C591 C597 1.429 . S
C592 C584 1.574 . S
C592 H587 0.949 . S
C592 C598 1.368 . S
C593 C577 1.349 . S
C593 H585 0.950 . S
C593 C591 1.327 . S
C594 C582 1.349 . S
C594 H588 0.950 . S
C594 C595 1.327 . S
C595 H589 0.950 . S
C595 C594 1.327 . S
C595 C599 1.429 . S
C596 C579 1.574 . S
C596 H590 0.949 . S
C596 C600 1.368 . S
C597 C578 1.429 . S
C597 C591 1.429 . S
C597 C598 1.523 . S
C598 C579 1.368 . S
C598 C592 1.368 . S
C598 C597 1.523 . S
C599 C583 1.429 . S
C599 C595 1.429 . S
C599 C600 1.523 . S
C600 C584 1.368 . S
C600 C596 1.368 . S
C600 C599 1.523 . S
H601 C576 0.950 . S
H602 C578 0.950 . S
H603 C579 0.949 . S
H604 C581 0.950 . S
H605 C583 0.950 . S
C606 C607 1.349 . S
C606 C608 1.327 . S
C606 H631 0.950 . S
C607 C606 1.349 . S
C607 C623 1.349 . S
C608 C606 1.327 . S
C608 C627 1.429 . S
C608 H632 0.950 . S
C609 C626 1.574 . S
C609 C628 1.368 . S
C609 H633 0.949 . S
H610 C614 0.949 . S
C611 C612 1.349 . S
C611 C613 1.327 . S
C611 H634 0.950 . S
C612 C611 1.349 . S
C612 C624 1.349 . S
C613 C611 1.327 . S
C613 C629 1.429 . S
C613 H635 0.950 . S
C614 H610 0.949 . S
C614 C622 1.574 . S
C614 C630 1.368 . S
H615 C623 0.950 . S
H616 C621 0.950 . S
H617 C622 0.949 . S
H618 C624 0.950 . S
H619 C625 0.950 . S
H620 C626 0.949 . S
C621 H616 0.950 . S
C621 C623 1.327 . S
C621 C627 1.429 . S
C622 C614 1.574 . S
C622 H617 0.949 . S
C622 C628 1.368 . S
C623 C607 1.349 . S
C623 H615 0.950 . S
C623 C621 1.327 . S
C624 C612 1.349 . S
C624 H618 0.950 . S
C624 C625 1.327 . S
C625 H619 0.950 . S
C625 C624 1.327 . S
C625 C629 1.429 . S
C626 C609 1.574 . S
C626 H620 0.949 . S
C626 C630 1.368 . S
C627 C608 1.429 . S
C627 C621 1.429 . S
C627 C628 1.523 . S
C628 C609 1.368 . S
C628 C622 1.368 . S
C628 C627 1.523 . S
C629 C613 1.429 . S
C629 C625 1.429 . S
C629 C630 1.523 . S
C630 C614 1.368 . S
C630 C626 1.368 . S
C630 C629 1.523 . S
H631 C606 0.950 . S
H632 C608 0.950 . S
H633 C609 0.949 . S
H634 C611 0.950 . S
H635 C613 0.950 . S
C636 C637 1.349 . S
C636 C638 1.327 . S
C636 H661 0.950 1_455 S
C637 C636 1.349 . S
C637 C653 1.349 . S
C638 C636 1.327 . S
C638 C657 1.429 . S
C638 H662 0.950 1_455 S
C639 C656 1.574 . S
C639 C658 1.368 . S
C639 H663 0.949 . S
H640 C644 0.949 1_655 S
C641 C642 1.349 . S
C641 C643 1.327 1_556 S
C641 H664 0.950 . S
C642 C641 1.349 . S
C642 C654 1.349 . S
C643 C641 1.327 1_554 S
C643 C659 1.429 . S
C643 H665 0.950 . S
C644 H640 0.949 1_455 S
C644 C652 1.574 . S
C644 C660 1.368 . S
H645 C653 0.950 . S
H646 C651 0.950 . S
H647 C652 0.949 1_655 S
H648 C654 0.950 . S
H649 C655 0.950 . S
H650 C656 0.949 . S
C651 H646 0.950 . S
C651 C653 1.327 . S
C651 C657 1.429 . S
C652 C644 1.574 . S
C652 H647 0.949 1_455 S
C652 C658 1.368 . S
C653 C637 1.349 . S
C653 H645 0.950 . S
C653 C651 1.327 . S
C654 C642 1.349 . S
C654 H648 0.950 . S
C654 C655 1.327 1_556 S
C655 H649 0.950 . S
C655 C654 1.327 1_554 S
C655 C659 1.429 . S
C656 C639 1.574 . S
C656 H650 0.949 . S
C656 C660 1.368 . S
C657 C638 1.429 . S
C657 C651 1.429 . S
C657 C658 1.523 . S
C658 C639 1.368 . S
C658 C652 1.368 . S
C658 C657 1.523 . S
C659 C643 1.429 . S
C659 C655 1.429 . S
C659 C660 1.523 . S
C660 C644 1.368 . S
C660 C656 1.368 . S
C660 C659 1.523 . S
H661 C636 0.950 1_655 S
H662 C638 0.950 1_655 S
H663 C639 0.949 . S
H664 C641 0.950 . S
H665 C643 0.950 . S
C666 C667 1.349 . S
C666 C668 1.327 . S
C666 H691 0.950 . S
C667 C666 1.349 . S
C667 C683 1.349 . S
C668 C666 1.327 . S
C668 C687 1.429 . S
C668 H692 0.950 . S
C669 C686 1.574 . S
C669 C688 1.368 . S
C669 H693 0.949 . S
H670 C674 0.949 . S
C671 C672 1.349 . S
C671 C673 1.327 . S
C671 H694 0.950 . S
C672 C671 1.349 . S
C672 C684 1.349 . S
C673 C671 1.327 . S
C673 C689 1.429 . S
C673 H695 0.950 . S
C674 H670 0.949 . S
C674 C682 1.574 . S
C674 C690 1.368 . S
H675 C683 0.950 . S
H676 C681 0.950 . S
H677 C682 0.949 . S
H678 C684 0.950 . S
H679 C685 0.950 . S
H680 C686 0.949 . S
C681 H676 0.950 . S
C681 C683 1.327 . S
C681 C687 1.429 . S
C682 C674 1.574 . S
C682 H677 0.949 . S
C682 C688 1.368 . S
C683 C667 1.349 . S
C683 H675 0.950 . S
C683 C681 1.327 . S
C684 C672 1.349 . S
C684 H678 0.950 . S
C684 C685 1.327 . S
C685 H679 0.950 . S
C685 C684 1.327 . S
C685 C689 1.429 . S
C686 C669 1.574 . S
C686 H680 0.949 . S
C686 C690 1.368 . S
C687 C668 1.429 . S
C687 C681 1.429 . S
C687 C688 1.523 . S
C688 C669 1.368 . S
C688 C682 1.368 . S
C688 C687 1.523 . S
C689 C673 1.429 . S
C689 C685 1.429 . S
C689 C690 1.523 . S
C690 C674 1.368 . S
C690 C686 1.368 . S
C690 C689 1.523 . S
H691 C666 0.950 . S
H692 C668 0.950 . S
H693 C669 0.949 . S
H694 C671 0.950 . S
H695 C673 0.950 . S
C696 C697 1.349 . S
C696 C698 1.327 . S
C696 H721 0.950 . S
C697 C696 1.349 . S
C697 C713 1.349 . S
C698 C696 1.327 . S
C698 C717 1.429 . S
C698 H722 0.950 . S
C699 C716 1.574 . S
C699 C718 1.368 . S
C699 H723 0.949 . S
H700 C704 0.949 . S
C701 C702 1.349 . S
C701 C703 1.327 . S
C701 H724 0.950 . S
C702 C701 1.349 . S
C702 C714 1.349 . S
C703 C701 1.327 . S
C703 C719 1.429 . S
C703 H725 0.950 . S
C704 H700 0.949 . S
C704 C712 1.574 . S
C704 C720 1.368 . S
H705 C713 0.950 . S
H706 C711 0.950 . S
H707 C712 0.949 . S
H708 C714 0.950 . S
H709 C715 0.950 . S
H710 C716 0.949 . S
C711 H706 0.950 . S
C711 C713 1.327 . S
C711 C717 1.429 . S
C712 C704 1.574 . S
C712 H707 0.949 . S
C712 C718 1.368 . S
C713 C697 1.349 . S
C713 H705 0.950 . S
C713 C711 1.327 . S
C714 C702 1.349 . S
C714 H708 0.950 . S
C714 C715 1.327 . S
C715 H709 0.950 . S
C715 C714 1.327 . S
C715 C719 1.429 . S
C716 C699 1.574 . S
C716 H710 0.949 . S
C716 C720 1.368 . S
C717 C698 1.429 . S
C717 C711 1.429 . S
C717 C718 1.523 . S
C718 C699 1.368 . S
C718 C712 1.368 . S
C718 C717 1.523 . S
C719 C703 1.429 . S
C719 C715 1.429 . S
C719 C720 1.523 . S
C720 C704 1.368 . S
C720 C716 1.368 . S
C720 C719 1.523 . S
H721 C696 0.950 . S
H722 C698 0.950 . S
H723 C699 0.949 . S
H724 C701 0.950 . S
H725 C703 0.950 . S
C726 C727 1.349 . S
C726 C728 1.327 . S
C726 H751 0.950 . S
C727 C726 1.349 . S
C727 C743 1.349 . S
C728 C726 1.327 . S
C728 C747 1.429 . S
C728 H752 0.950 . S
C729 C746 1.574 . S
C729 C748 1.368 . S
C729 H753 0.949 . S
H730 C734 0.949 . S
C731 C732 1.349 . S
C731 C733 1.327 . S
C731 H754 0.950 . S
C732 C731 1.349 . S
C732 C744 1.349 . S
C733 C731 1.327 . S
C733 C749 1.429 . S
C733 H755 0.950 . S
C734 H730 0.949 . S
C734 C742 1.574 . S
C734 C750 1.368 . S
H735 C743 0.936 1_565 S
H736 C741 0.973 . S
H737 C742 0.949 . S
H738 C744 0.950 . S
H739 C745 0.950 . S
H740 C746 0.949 . S
C741 H736 0.973 . S
C741 C743 1.327 . S
C741 C747 1.429 . S
C742 C734 1.574 . S
C742 H737 0.949 . S
C742 C748 1.368 . S
C743 C727 1.349 . S
C743 H735 0.936 1_545 S
C743 C741 1.327 . S
C744 C732 1.349 . S
C744 H738 0.950 . S
C744 C745 1.327 . S
C745 H739 0.950 . S
C745 C744 1.327 . S
C745 C749 1.429 . S
C746 C729 1.574 . S
C746 H740 0.949 . S
C746 C750 1.368 . S
C747 C728 1.429 . S
C747 C741 1.429 . S
C747 C748 1.523 . S
C748 C729 1.368 . S
C748 C742 1.368 . S
C748 C747 1.523 . S
C749 C733 1.429 . S
C749 C745 1.429 . S
C749 C750 1.523 . S
C750 C734 1.368 . S
C750 C746 1.368 . S
C750 C749 1.523 . S
H751 C726 0.950 . S
H752 C728 0.950 . S
H753 C729 0.949 . S
H754 C731 0.950 . S
H755 C733 0.950 . S
C756 C757 1.349 . S
C756 C758 1.327 . S
C756 H781 0.950 . S
C757 C756 1.349 . S
C757 C773 1.349 . S
C758 C756 1.327 . S
C758 C777 1.429 . S
C758 H782 0.950 . S
C759 C776 1.574 . S
C759 C778 1.368 . S
C759 H783 0.949 . S
H760 C764 0.949 . S
C761 C762 1.349 . S
C761 C763 1.327 1_554 S
C761 H784 0.950 . S
C762 C761 1.349 . S
C762 C774 1.349 . S
C763 C761 1.327 1_556 S
C763 C779 1.429 . S
C763 H785 0.950 . S
C764 H760 0.949 . S
C764 C772 1.574 . S
C764 C780 1.368 . S
H765 C773 0.950 . S
H766 C771 0.950 . S
H767 C772 0.949 . S
H768 C774 0.950 . S
H769 C775 0.935 1_556 S
H770 C776 0.949 . S
C771 H766 0.950 . S
C771 C773 1.327 . S
C771 C777 1.429 . S
C772 C764 1.574 . S
C772 H767 0.949 . S
C772 C778 1.368 . S
C773 C757 1.349 . S
C773 H765 0.950 . S
C773 C771 1.327 . S
C774 C762 1.349 . S
C774 H768 0.950 . S
C774 C775 1.366 . S
C775 H769 0.935 1_554 S
C775 C774 1.366 . S
C775 C779 1.405 1_554 S
C776 C759 1.574 . S
C776 H770 0.949 . S
C776 C780 1.368 . S
C777 C758 1.429 . S
C777 C771 1.429 . S
C777 C778 1.523 . S
C778 C759 1.368 . S
C778 C772 1.368 . S
C778 C777 1.523 . S
C779 C763 1.429 . S
C779 C775 1.405 1_556 S
C779 C780 1.523 . S
C780 C764 1.368 . S
C780 C776 1.368 . S
C780 C779 1.523 . S
H781 C756 0.950 . S
H782 C758 0.950 . S
H783 C759 0.949 . S
H784 C761 0.950 . S
H785 C763 0.950 . S
C786 C787 1.349 . S
C786 C788 1.327 . S
C786 H811 0.950 . S
C787 C786 1.349 . S
C787 C803 1.349 . S
C788 C786 1.327 . S
C788 C807 1.429 . S
C788 H812 0.950 . S
C789 C806 1.574 . S
C789 C808 1.368 . S
C789 H813 0.949 . S
H790 C794 0.949 . S
C791 C792 1.349 . S
C791 C793 1.327 . S
C791 H814 0.950 . S
C792 C791 1.349 . S
C792 C804 1.349 . S
C793 C791 1.327 . S
C793 C809 1.429 . S
C793 H815 0.950 . S
C794 H790 0.949 . S
C794 C802 1.574 . S
C794 C810 1.368 . S
H795 C803 0.950 . S
H796 C801 0.950 . S
H797 C802 0.949 . S
H798 C804 0.950 . S
H799 C805 0.950 . S
H800 C806 0.949 . S
C801 H796 0.950 . S
C801 C803 1.327 . S
C801 C807 1.429 . S
C802 C794 1.574 . S
C802 H797 0.949 . S
C802 C808 1.368 . S
C803 C787 1.349 . S
C803 H795 0.950 . S
C803 C801 1.327 . S
C804 C792 1.349 . S
C804 H798 0.950 . S
C804 C805 1.327 . S
C805 H799 0.950 . S
C805 C804 1.327 . S
C805 C809 1.429 . S
C806 C789 1.574 . S
C806 H800 0.949 . S
C806 C810 1.368 . S
C807 C788 1.429 . S
C807 C801 1.429 . S
C807 C808 1.523 . S
C808 C789 1.368 . S
C808 C802 1.368 . S
C808 C807 1.523 . S
C809 C793 1.429 . S
C809 C805 1.429 . S
C809 C810 1.523 . S
C810 C794 1.368 . S
C810 C806 1.368 . S
C810 C809 1.523 . S
H811 C786 0.950 . S
H812 C788 0.950 . S
H813 C789 0.949 . S
H814 C791 0.950 . S
H815 C793 0.950 . S
C277 C2 1.036 . S
C282 C265 1.022 . S
C307 C21 0.963 . S
C312 C193 0.956 . S
C337 C42 1.036 . S
C342 C229 1.022 . S
C367 C1 0.959 . S
C372 C241 0.963 . S
C402 C169 1.030 . S
C397 C22 1.032 . S
C432 C205 0.963 . S
C427 C41 0.960 . S
C457 C38 1.823 . S
C462 C121 1.785 . S
C487 C59 1.904 . S
C492 C133 1.876 . S
C517 C18 1.819 . S
C522 C61 1.810 . S
C552 C97 1.876 . S
C547 C39 1.903 . S
C582 C157 1.785 . S
C577 C58 1.822 . S
C607 C19 1.907 . S
C612 C85 1.849 . S
C642 C163 1.561 . S
C637 C9 1.503 . S
C667 C29 1.503 . S
C672 C91 1.562 . S
C697 C49 1.503 . S
C702 C127 1.561 . S
C732 C235 1.384 . S
C727 C28 1.356 . S
C762 C271 1.383 . S
C757 C48 1.356 . S
C787 C8 1.355 . S
C792 C199 1.381 . S
