# Generated by pormake.
# Topology pth, (4,4)-cn, num edge types: 1
# Building blocks:
#     Node 0, Type 0, BuildingBlock: GALJAG_clean_sbu_0, # of connection points: 4
#     Node 1, Type 0, BuildingBlock: GALJAG_clean_sbu_0, # of connection points: 4
#     Node 2, Type 0, BuildingBlock: GALJAG_clean_sbu_0, # of connection points: 4
#     Node 3, Type 1, BuildingBlock: NAWXER_clean_linker_0, # of connection points: 4
#     Node 4, Type 1, BuildingBlock: NAWXER_clean_linker_0, # of connection points: 4
#     Node 5, Type 1, BuildingBlock: NAWXER_clean_linker_0, # of connection points: 4
#     Edge 6, Type (0, 1), BuildingBlock: FUNLAD_clean_linker_0, # of connection points: 2
#     Edge 7, Type (0, 1), BuildingBlock: FUNLAD_clean_linker_0, # of connection points: 2
#     Edge 8, Type (0, 1), BuildingBlock: FUNLAD_clean_linker_0, # of connection points: 2
#     Edge 9, Type (0, 1), BuildingBlock: FUNLAD_clean_linker_0, # of connection points: 2
#     Edge 10, Type (0, 1), BuildingBlock: FUNLAD_clean_linker_0, # of connection points: 2
#     Edge 11, Type (0, 1), BuildingBlock: FUNLAD_clean_linker_0, # of connection points: 2
#     Edge 12, Type (0, 1), BuildingBlock: FUNLAD_clean_linker_0, # of connection points: 2
#     Edge 13, Type (0, 1), BuildingBlock: FUNLAD_clean_linker_0, # of connection points: 2
#     Edge 14, Type (0, 1), BuildingBlock: FUNLAD_clean_linker_0, # of connection points: 2
#     Edge 15, Type (0, 1), BuildingBlock: FUNLAD_clean_linker_0, # of connection points: 2
#     Edge 16, Type (0, 1), BuildingBlock: FUNLAD_clean_linker_0, # of connection points: 2
#     Edge 17, Type (0, 1), BuildingBlock: FUNLAD_clean_linker_0, # of connection points: 2
# Relax obj value: 0.002
# Max RMSD: 0.036
# Mean RMSD: 0.021
data_MOF--net-pth--node1-GALJAG_clean_sbu_0--node2-NAWXER_clean_linker_0--edge1-FUNLAD_clean_linker_0
_symmetry_space_group_name_H-M    P1
_symmetry_Int_Tables_number       1
_symmetry_cell_setting            triclinic
loop_
_symmetry_equiv_pos_as_xyz
'x, y, z'
_cell_length_a     33.605022
_cell_length_b     33.613119
_cell_length_c     72.718135
_cell_angle_alpha  90.055777
_cell_angle_beta   90.170857
_cell_angle_gamma 119.95507
loop_
_atom_site_label
_atom_site_type_symbol
_atom_site_fract_x
_atom_site_fract_y
_atom_site_fract_z
_atom_type_partial_charge
In0 In 0.98457 -0.00105 0.04502 0.0
O1 O 0.94733 0.0345 0.05684 0.0
O2 O 0.01356 0.05388 0.06738 0.0
C3 C 0.92035 0.94018 0.02126 0.0
C4 C 0.04932 0.05507 0.02093 0.0
C5 C 0.98669 0.93803 0.0686 0.0
O6 O 0.91328 0.96575 0.0319 0.0
O7 O 0.9598 0.94457 0.02257 0.0
O8 O 0.02228 0.96828 0.06058 0.0
O9 O 0.95055 0.93909 0.06492 0.0
C10 C 0.97933 0.05973 0.06779 0.0
O11 O 0.05529 0.02876 0.03154 0.0
O12 O 0.011 0.05302 0.02256 0.0
In13 In 0.00144 0.01036 0.3781 0.0
O14 O 0.04146 0.07973 0.36373 0.0
O15 O 0.97491 0.0323 0.35355 0.0
C16 C 0.06606 0.01932 0.40249 0.0
C17 C 0.9379 0.01051 0.40073 0.0
C18 C 0.99425 0.94188 0.35641 0.0
O19 O 0.07302 0.05005 0.39089 0.0
O20 O 0.02642 0.98439 0.40188 0.0
O21 O 0.95963 0.9407 0.36373 0.0
O22 O 0.03203 0.9773 0.3601 0.0
C23 C 0.01029 0.07135 0.35207 0.0
O24 O 0.93335 0.97401 0.39379 0.0
O25 O 0.97433 0.04647 0.39631 0.0
In26 In 0.99058 0.98663 0.71244 0.0
O27 O 0.94887 0.91152 0.72124 0.0
O28 O 0.93579 0.95999 0.73466 0.0
C29 C 0.05448 0.98327 0.69117 0.0
C30 C 0.93497 0.99523 0.68792 0.0
C31 C 0.04697 0.04886 0.73742 0.0
O32 O 0.03132 0.95269 0.70288 0.0
O33 O 0.04521 0.01523 0.69016 0.0
O34 O 0.02499 0.05804 0.72566 0.0
O35 O 0.04026 0.00849 0.73656 0.0
C36 C 0.92591 0.91867 0.73316 0.0
O37 O 0.95707 0.02539 0.70002 0.0
O38 O 0.94116 0.9612 0.68821 0.0
C39 C -0.00307 0.3683 0.24165 0.0
C40 C 0.03381 0.38242 0.25405 0.0
C41 C 0.9927 0.40051 0.23094 0.0
C42 C 0.02559 0.44737 0.23226 0.0
C43 C 0.06652 0.42941 0.25538 0.0
C44 C 0.06228 0.46154 0.24467 0.0
C45 C 0.02096 0.48217 0.2215 0.0
C46 C 0.04455 0.39506 0.18148 0.0
C47 C 0.00706 0.36928 0.16966 0.0
C48 C 0.04682 0.43104 0.19191 0.0
C49 C 0.01139 0.44162 0.19092 0.0
C50 C 0.97228 0.38083 0.16831 0.0
C51 C 0.97456 0.41682 0.17878 0.0
C52 C 0.01281 0.4788 0.20232 0.0
C53 C 0.04608 0.66611 0.18365 0.0
C54 C 0.00988 0.65619 0.17133 0.0
C55 C 0.04615 0.63131 0.19409 0.0
C56 C 0.01011 0.58581 0.19244 0.0
C57 C 0.97385 0.61043 0.1697 0.0
C58 C 0.97423 0.57553 0.18003 0.0
C59 C 0.01099 0.5488 0.20308 0.0
C60 C 0.98063 0.62898 0.24481 0.0
C61 C 0.01605 0.65294 0.25772 0.0
C62 C 0.98179 0.59679 0.23298 0.0
C63 C 0.01835 0.58787 0.23383 0.0
C64 C 0.05284 0.64414 0.25836 0.0
C65 C 0.0537 0.61161 0.24665 0.0
C66 C 0.01832 0.55167 0.22227 0.0
H67 H 0.9707 0.33248 0.24055 0.0
H68 H 0.96333 0.38886 0.22186 0.0
H69 H 0.09557 0.44136 0.26465 0.0
H70 H 0.08789 0.49756 0.24598 0.0
H71 H 0.07242 0.38775 0.18252 0.0
H72 H 0.0763 0.45061 0.20076 0.0
H73 H 0.94284 0.3615 0.15941 0.0
H74 H 0.94706 0.42468 0.1777 0.0
H75 H 0.07496 0.70063 0.18498 0.0
H76 H 0.07485 0.63985 0.20323 0.0
H77 H 0.94512 0.60153 0.16055 0.0
H78 H 0.94622 0.54057 0.17849 0.0
H79 H 0.95135 0.63417 0.24414 0.0
H80 H 0.9535 0.578 0.2235 0.0
H81 H 0.08113 0.66246 0.26787 0.0
H82 H 0.08213 0.60509 0.24757 0.0
N83 N 0.02345 0.5185 0.23071 0.0
N84 N 0.00805 0.51224 0.19382 0.0
C85 C 0.64942 0.02958 0.51767 0.0
C86 C 0.63754 0.99421 0.50473 0.0
C87 C 0.61553 0.03162 0.52804 0.0
C88 C 0.56914 -0.00212 0.52591 0.0
C89 C 0.59096 0.96094 0.50243 0.0
C90 C 0.55714 0.9629 0.51286 0.0
C91 C 0.53265 -0.00031 0.53659 0.0
C92 C 0.62189 0.98027 0.57774 0.0
C93 C 0.64322 0.0163 0.59058 0.0
C94 C 0.58652 0.97665 0.56643 0.0
C95 C 0.57229 0.0094 0.56756 0.0
C96 C 0.62836 0.04858 0.59186 0.0
C97 C 0.59312 0.04502 0.58052 0.0
C98 C 0.53459 0.00598 0.55587 0.0
C99 C 0.3436 0.9689 0.57275 0.0
C100 C 0.35368 0.00092 0.58697 0.0
C101 C 0.37887 0.96972 0.56236 0.0
C102 C 0.42487 0.00325 0.56569 0.0
C103 C 0.39976 0.03378 0.59058 0.0
C104 C 0.43501 0.03487 0.58005 0.0
C105 C 0.4627 0.00411 0.55495 0.0
C106 C 0.37963 0.03367 0.51478 0.0
C107 C 0.35681 -0.00076 0.50143 0.0
C108 C 0.4137 0.0338 0.52587 0.0
C109 C 0.42535 -0.00072 0.52394 0.0
C110 C 0.36912 0.96518 0.49932 0.0
C111 C 0.40331 0.96542 0.51038 0.0
C112 C 0.46141 -0.00082 0.53562 0.0
H113 H 0.68495 0.05563 0.51987 0.0
H114 H 0.6256 0.05973 0.53764 0.0
H115 H 0.58051 0.93376 0.49234 0.0
H116 H 0.52151 0.93687 0.51079 0.0
H117 H 0.63194 0.95435 0.57668 0.0
H118 H 0.57002 0.94804 0.55694 0.0
H119 H 0.64432 0.07693 0.6015 0.0
H120 H 0.58243 0.07045 0.58172 0.0
H121 H 0.30847 0.94263 0.56991 0.0
H122 H 0.37014 0.94374 0.55186 0.0
H123 H 0.40851 0.05901 0.6014 0.0
H124 H 0.47024 0.06071 0.58303 0.0
H125 H 0.3708 0.06026 0.5168 0.0
H126 H 0.43101 0.06095 0.53594 0.0
H127 H 0.35268 0.93863 0.48896 0.0
H128 H 0.4122 0.93882 0.50851 0.0
N129 N 0.4961 0.99654 0.52723 0.0
N130 N 0.49954 0.00792 0.56427 0.0
C131 C 0.36631 0.34029 0.84751 0.0
C132 C 0.34357 0.35536 0.83556 0.0
C133 C 0.40265 0.37165 0.85856 0.0
C134 C 0.41647 0.41857 0.85806 0.0
C135 C 0.35783 0.40241 0.83498 0.0
C136 C 0.39403 0.43368 0.84605 0.0
C137 C 0.45553 0.45259 0.86928 0.0
C138 C 0.34726 0.36026 0.90985 0.0
C139 C 0.36154 0.33664 0.92168 0.0
C140 C 0.37905 0.39607 0.89884 0.0
C141 C 0.42564 0.4086 0.8993 0.0
C142 C 0.40828 0.34946 0.92214 0.0
C143 C 0.44001 0.38524 0.91113 0.0
C144 C 0.46014 0.44759 0.88834 0.0
C145 C 0.61051 0.63567 0.90971 0.0
C146 C 0.63508 0.62484 0.92251 0.0
C147 C 0.57655 0.60144 0.8987 0.0
C148 C 0.56677 0.55576 0.90014 0.0
C149 C 0.6248 0.57897 0.92409 0.0
C150 C 0.59071 0.5447 0.91309 0.0
C151 C 0.53033 0.51921 0.88873 0.0
C152 C 0.64328 0.60983 0.85047 0.0
C153 C 0.63119 0.63178 0.83695 0.0
C154 C 0.60946 0.57445 0.86099 0.0
C155 C 0.56291 0.56101 0.85851 0.0
C156 C 0.58456 0.61753 0.83414 0.0
C157 C 0.55073 0.58241 0.84481 0.0
C158 C 0.5267 0.52334 0.86954 0.0
H159 H 0.3567 0.30439 0.84803 0.0
H160 H 0.42033 0.3593 0.86729 0.0
H161 H 0.34076 0.41506 0.82605 0.0
H162 H 0.40432 0.46975 0.84535 0.0
H163 H 0.31167 0.35184 0.90942 0.0
H164 H 0.36734 0.41449 0.89022 0.0
H165 H 0.42035 0.3317 0.93095 0.0
H166 H 0.47585 0.39458 0.9118 0.0
H167 H 0.61777 0.6707 0.90811 0.0
H168 H 0.55773 0.61064 0.88913 0.0
H169 H 0.64264 0.56945 0.93402 0.0
H170 H 0.58328 0.50958 0.9146 0.0
H171 H 0.67888 0.61947 0.85267 0.0
H172 H 0.61974 0.55731 0.87093 0.0
H173 H 0.57428 0.63395 0.82385 0.0
H174 H 0.51504 0.57229 0.84248 0.0
N175 N 0.48909 0.4902 0.86063 0.0
N176 N 0.49731 0.48118 0.89732 0.0
C177 C 0.0151 0.1227 0.09112 0.0
C178 C 0.97766 0.09448 0.07971 0.0
C179 C 0.01447 0.15677 0.10193 0.0
C180 C 0.97609 0.16312 0.10166 0.0
C181 C 0.93873 0.13488 0.09021 0.0
C182 C 0.93938 0.10078 0.0794 0.0
C183 C 0.97474 0.2001 0.11242 0.0
C184 C 0.00026 0.21918 0.12766 0.0
C185 C 0.00014 0.25709 0.13818 0.0
C186 C 0.01505 0.26417 0.15656 0.0
C187 C 0.01696 0.30027 0.16679 0.0
C188 C 0.00432 0.33046 0.15882 0.0
H189 H 0.97742 0.28421 0.11586 0.0
C190 C 0.98953 0.32355 0.1404 0.0
C191 C 0.98761 0.2874 0.13015 0.0
H192 H 0.98041 0.34673 0.13375 0.0
H193 H 0.04529 0.11896 0.09152 0.0
H194 H 0.04464 0.17868 0.11005 0.0
H195 H 0.90891 0.13925 0.0896 0.0
H196 H 0.91009 0.07969 0.07066 0.0
H197 H 0.95061 0.21067 0.1079 0.0
H198 H 0.02109 0.20556 0.13316 0.0
H199 H 0.02517 0.24157 0.16307 0.0
H200 H 0.02802 0.30432 0.18102 0.0
C201 C 0.86454 0.97072 0.41862 0.0
C202 C 0.9033 0.01155 0.4129 0.0
C203 C 0.83178 0.97215 0.43002 0.0
C204 C 0.83726 0.01456 0.4359 0.0
C205 C 0.87582 0.05524 0.42999 0.0
C206 C 0.90864 0.0538 0.41872 0.0
C207 C 0.80292 0.0181 0.44757 0.0
C208 C 0.77471 0.98512 0.45934 0.0
C209 C 0.74047 0.98882 0.47111 0.0
C210 C 0.70403 0.94852 0.47849 0.0
C211 C 0.67084 0.95022 0.48947 0.0
C212 C 0.67342 0.99241 0.49341 0.0
H213 H 0.77179 0.06335 0.47059 0.0
C214 C 0.71036 0.03287 0.48633 0.0
C215 C 0.74362 0.0312 0.4754 0.0
H216 H 0.71333 0.06595 0.48902 0.0
H217 H 0.85939 0.93767 0.41423 0.0
H218 H 0.80186 0.94004 0.43381 0.0
H219 H 0.88073 0.08835 0.43417 0.0
H220 H 0.93804 0.08588 0.41447 0.0
H221 H 0.80182 0.0497 0.44648 0.0
H222 H 0.77615 0.95364 0.46037 0.0
H223 H 0.70099 0.91546 0.47565 0.0
H224 H 0.64331 0.91846 0.49498 0.0
C225 C 0.86819 0.89223 0.75846 0.0
C226 C 0.88986 0.88166 0.74435 0.0
C227 C 0.83369 0.85735 0.76896 0.0
C228 C 0.82017 0.81107 0.76554 0.0
C229 C 0.84146 0.80053 0.75127 0.0
C230 C 0.87623 0.83547 0.74086 0.0
C231 C 0.78296 0.77308 0.77616 0.0
C232 C 0.77348 0.7778 0.79375 0.0
C233 C 0.73658 0.73979 0.80446 0.0
C234 C 0.74118 0.7394 0.82363 0.0
C235 C 0.70706 0.70426 0.83417 0.0
C236 C 0.66722 0.6692 0.82576 0.0
H237 H 0.69114 0.70486 0.78135 0.0
C238 C 0.66212 0.67004 0.8066 0.0
C239 C 0.69647 0.70494 0.79604 0.0
H240 H 0.63178 0.64341 0.79976 0.0
H241 H 0.87773 0.92752 0.76137 0.0
H242 H 0.81712 0.86676 0.77946 0.0
H243 H 0.83137 0.76514 0.74825 0.0
H244 H 0.89214 0.82629 0.72998 0.0
H245 H 0.76448 0.73964 0.76955 0.0
H246 H 0.79505 0.8099 0.80096 0.0
H247 H 0.77148 0.76614 0.83047 0.0
H248 H 0.7116 0.7048 0.84894 0.0
C249 C 0.02805 0.90664 0.08695 0.0
C250 C 0.98666 0.90289 0.08078 0.0
C251 C 0.02764 0.87252 0.0981 0.0
C252 C 0.98575 0.83384 0.10313 0.0
C253 C 0.94451 0.83005 0.09683 0.0
C254 C 0.9449 0.86442 0.08593 0.0
C255 C 0.9839 0.79592 0.11421 0.0
C256 C 0.01517 0.8025 0.12723 0.0
C257 C 0.01257 0.76432 0.13838 0.0
C258 C 0.02911 0.77299 0.15651 0.0
C259 C 0.02755 0.73784 0.16729 0.0
C260 C 0.01025 0.69334 0.16004 0.0
H261 H 0.98347 0.71238 0.11694 0.0
C262 C 0.99418 0.68489 0.14176 0.0
C263 C 0.99522 0.71992 0.13107 0.0
H264 H 0.98167 0.65143 0.13554 0.0
H265 H 0.06074 0.93582 0.0831 0.0
H266 H 0.06011 0.87597 0.10236 0.0
H267 H 0.91184 0.80043 0.10039 0.0
H268 H 0.91245 0.86044 0.08127 0.0
H269 H 0.95436 0.76185 0.11223 0.0
H270 H 0.0421 0.83717 0.13056 0.0
H271 H 0.04279 0.80695 0.16244 0.0
H272 H 0.03964 0.74556 0.18137 0.0
C273 C 0.09332 0.98639 0.427 0.0
C274 C 0.10194 0.02308 0.41532 0.0
C275 C 0.12774 0.98905 0.43863 0.0
C276 C 0.17166 0.0285 0.43875 0.0
C277 C 0.17978 0.06565 0.42746 0.0
C278 C 0.14539 0.0629 0.41576 0.0
C279 C 0.20943 0.0324 0.45069 0.0
C280 C 0.21291 0.99577 0.45593 0.0
C281 C 0.2506 -0.00167 0.46764 0.0
C282 C 0.24519 0.95741 0.47515 0.0
C283 C 0.27957 0.95766 0.48607 0.0
C284 C 0.32035 -0.00108 0.48975 0.0
H285 H 0.29832 0.0719 0.46535 0.0
C286 C 0.32606 0.03988 0.48217 0.0
C287 C 0.29174 0.03965 0.47119 0.0
H288 H 0.35749 0.07212 0.48448 0.0
H289 H 0.06 0.95542 0.42709 0.0
H290 H 0.11956 0.96034 0.44761 0.0
H291 H 0.21311 0.09663 0.42744 0.0
H292 H 0.15296 0.09183 0.40698 0.0
H293 H 0.23548 0.06677 0.4547 0.0
H294 H 0.18686 0.96177 0.45141 0.0
H295 H 0.21406 0.92502 0.47263 0.0
H296 H 0.27394 0.92556 0.49185 0.0
C297 C 0.08634 0.12772 0.75132 0.0
C298 C 0.07871 0.08266 0.75098 0.0
C299 C 0.11733 0.1598 0.76392 0.0
C300 C 0.14152 0.14743 0.77636 0.0
C301 C 0.13296 0.10206 0.77623 0.0
C302 C 0.10208 0.07008 0.76364 0.0
C303 C 0.17548 0.18036 0.78979 0.0
C304 C 0.1982 0.22625 0.78745 0.0
C305 C 0.2345 0.2588 0.80028 0.0
C306 C 0.2675 0.30207 0.79366 0.0
C307 C 0.30277 0.33339 0.8051 0.0
C308 C 0.30566 0.32227 0.8235 0.0
H309 H 0.21116 0.21575 0.82468 0.0
C310 C 0.27214 0.27933 0.83026 0.0
C311 C 0.2368 0.248 0.81882 0.0
H312 H 0.27287 0.27016 0.84448 0.0
H313 H 0.06844 0.13824 0.74183 0.0
H314 H 0.12174 0.19395 0.76395 0.0
H315 H 0.15073 0.09142 0.78574 0.0
H316 H 0.09675 0.03552 0.76378 0.0
H317 H 0.18426 0.16575 0.80135 0.0
H318 H 0.19249 0.24063 0.77504 0.0
H319 H 0.26646 0.31145 0.77949 0.0
H320 H 0.32825 0.36605 0.79942 0.0
C321 C 0.89621 0.03635 0.67497 0.0
C322 C 0.90372 -0.00117 0.67456 0.0
C323 C 0.86572 0.03889 0.66253 0.0
C324 C 0.84197 0.00373 0.64948 0.0
C325 C 0.85037 0.96683 0.64887 0.0
C326 C 0.88072 0.96427 0.66131 0.0
C327 C 0.80869 0.00433 0.63612 0.0
C328 C 0.78588 0.02727 0.63896 0.0
C329 C 0.75032 0.02506 0.6261 0.0
C330 C 0.71652 0.03397 0.63295 0.0
C331 C 0.68188 0.03126 0.62144 0.0
C332 C 0.68045 0.01988 0.60275 0.0
H333 H 0.77584 0.00926 0.60128 0.0
C334 C 0.71482 0.01192 0.59578 0.0
C335 C 0.74951 0.01468 0.60729 0.0
H336 H 0.71525 0.00411 0.58135 0.0
H337 H 0.91382 0.06371 0.68493 0.0
H338 H 0.86138 0.06866 0.66308 0.0
H339 H 0.83292 0.93949 0.63888 0.0
H340 H 0.88597 0.93502 0.66058 0.0
H341 H 0.8005 0.98233 0.62411 0.0
H342 H 0.79089 0.04585 0.65176 0.0
H343 H 0.71645 0.04233 0.64734 0.0
H344 H 0.65573 0.03729 0.62728 0.0
C345 C 0.8942 0.87791 0.99769 0.0
C346 C 0.88496 0.90684 0.00859 0.0
C347 C 0.86043 0.84535 0.98608 0.0
C348 C 0.81653 0.84089 0.98521 0.0
C349 C 0.80775 0.87066 0.99577 0.0
C350 C 0.84152 0.90315 0.00743 0.0
C351 C 0.77946 0.80635 0.97321 0.0
C352 C 0.77665 0.76627 0.96837 0.0
C353 C 0.73965 0.73084 0.95655 0.0
C354 C 0.74676 0.69693 0.94847 0.0
C355 C 0.71294 0.66258 0.93743 0.0
C356 C 0.67104 0.66125 0.93426 0.0
H357 H 0.68956 0.75345 0.95994 0.0
C358 C 0.66362 0.69485 0.94246 0.0
C359 C 0.69739 0.72915 0.95355 0.0
H360 H 0.63129 0.69416 0.94058 0.0
H361 H 0.92755 0.8803 -0.00185 0.0
H362 H 0.86918 0.82429 0.97767 0.0
H363 H 0.77442 0.86831 0.99521 0.0
H364 H 0.8335 0.92517 0.01561 0.0
H365 H 0.75337 0.81419 0.9687 0.0
H366 H 0.80276 0.75871 0.9732 0.0
H367 H 0.7788 0.69714 0.9506 0.0
H368 H 0.71984 0.63738 0.93119 0.0
C369 C 0.03143 0.90562 0.33878 0.0
C370 C 0.9912 0.90516 0.34431 0.0
C371 C 0.02912 0.87149 0.32714 0.0
C372 C 0.98644 0.83615 0.32074 0.0
C373 C 0.94625 0.83601 0.32607 0.0
C374 C 0.94853 0.86996 0.33791 0.0
C375 C 0.98325 0.80025 0.30793 0.0
C376 C 0.01336 0.78488 0.30837 0.0
C377 C 0.0118 0.75015 0.29535 0.0
C378 C 0.02918 0.72191 0.30102 0.0
C379 C 0.03003 0.69007 0.28892 0.0
C380 C 0.0143 0.68634 0.27069 0.0
H381 H 0.98339 0.7686 0.27219 0.0
C382 C -0.00291 0.71489 0.26499 0.0
C383 C 0.99575 0.74639 0.27719 0.0
H384 H 0.98553 0.71366 0.25098 0.0
H385 H 0.06484 0.93249 0.34339 0.0
H386 H 0.0609 0.87349 0.32287 0.0
H387 H 0.913 0.80941 0.32117 0.0
H388 H 0.91699 0.86896 0.34186 0.0
H389 H 0.95439 0.78495 0.29842 0.0
H390 H 0.0393 0.79688 0.31915 0.0
H391 H 0.04194 0.72429 0.31492 0.0
H392 H 0.04275 0.66815 0.29392 0.0
C393 C 0.11194 0.01507 0.66579 0.0
C394 C 0.09016 0.98229 0.67969 0.0
C395 C 0.14626 0.01482 0.65509 0.0
C396 C 0.15951 0.9817 0.65808 0.0
C397 C 0.13801 0.94924 0.6721 0.0
C398 C 0.10341 0.94927 0.68272 0.0
C399 C 0.19688 0.98137 0.64737 0.0
C400 C 0.20693 0.99678 0.62996 0.0
C401 C 0.24467 0.99707 0.6193 0.0
C402 C 0.24127 0.99396 0.60005 0.0
C403 C 0.27649 0.99488 0.58956 0.0
C404 C 0.31622 -0.00028 0.59811 0.0
H405 H 0.289 0.00598 0.64263 0.0
C406 C 0.31998 0.00353 0.61736 0.0
C407 C 0.28457 0.00217 0.62786 0.0
H408 H 0.35019 0.0072 0.62432 0.0
H409 H 0.10267 0.04116 0.66323 0.0
H410 H 0.16298 0.04126 0.6448 0.0
H411 H 0.14789 0.92364 0.6748 0.0
H412 H 0.08739 0.92374 0.69342 0.0
H413 H 0.21527 0.96609 0.6538 0.0
H414 H 0.1855 0.00769 0.62287 0.0
H415 H 0.21114 0.99056 0.5931 0.0
H416 H 0.27293 0.99246 0.57473 0.0
C417 C 0.12712 0.08852 0.00647 0.0
C418 C 0.08415 0.0859 0.00759 0.0
C419 C 0.15997 0.11809 0.99386 0.0
C420 C 0.15045 0.14574 0.98218 0.0
C421 C 0.10717 0.14239 0.98315 0.0
C422 C 0.07447 0.11301 0.99576 0.0
C423 C 0.18413 0.17788 0.9686 0.0
C424 C 0.22993 0.19634 0.97036 0.0
C425 C 0.26331 0.23101 0.95738 0.0
C426 C 0.3077 0.26214 0.96372 0.0
C427 C 0.33963 0.29618 0.95213 0.0
C428 C 0.328 0.29958 0.93383 0.0
H429 H 0.21874 0.20922 0.9333 0.0
C430 C 0.28396 0.26764 0.92732 0.0
C431 C 0.25199 0.23361 0.93893 0.0
H432 H 0.27429 0.26866 0.91318 0.0
H433 H 0.13535 0.0677 0.01531 0.0
H434 H 0.19236 0.11858 0.99317 0.0
H435 H 0.09874 0.16297 0.97423 0.0
H436 H 0.04156 0.11157 0.99623 0.0
H437 H 0.17056 0.1891 0.95744 0.0
H438 H 0.24387 0.18856 0.98244 0.0
H439 H 0.31746 0.26075 0.97782 0.0
H440 H 0.37312 0.32046 0.95764 0.0
C441 C 0.05334 0.14884 0.3374 0.0
C442 C 0.01421 0.10494 0.33809 0.0
C443 C 0.05616 0.18111 0.32458 0.0
C444 C 0.01968 0.1701 0.31224 0.0
C445 C 0.98124 0.12574 0.31262 0.0
C446 C 0.97839 0.09355 0.32545 0.0
C447 C 0.0204 0.20371 0.29878 0.0
C448 C 0.04464 0.2495 0.30142 0.0
C449 C 0.04247 0.28306 0.28876 0.0
C450 C 0.05306 0.32622 0.29572 0.0
C451 C 0.05044 0.35847 0.28446 0.0
C452 C 0.03754 0.34842 0.26589 0.0
H453 H 0.02363 0.24109 0.26398 0.0
C454 C 0.02788 0.30559 0.25878 0.0
C455 C 0.03048 0.27329 0.27006 0.0
H456 H 0.01881 0.29721 0.24443 0.0
H457 H 0.0817 0.1584 0.34685 0.0
H458 H 0.08707 0.21438 0.32432 0.0
H459 H 0.95286 0.11617 0.30317 0.0
H460 H 0.94791 0.05986 0.32557 0.0
H461 H -0.00266 0.1899 0.28706 0.0
H462 H 0.06429 0.26307 0.31402 0.0
H463 H 0.06264 0.33479 0.31003 0.0
H464 H 0.05769 0.39096 0.29042 0.0
loop_
_geom_bond_atom_site_label_1
_geom_bond_atom_site_label_2
_geom_bond_distance
_geom_bond_site_symmetry_2
_ccdc_geom_bond_type
In0 O1 2.294 1_455 S
In0 O2 2.326 . S
In0 O6 2.266 1_445 S
In0 O7 2.326 1_445 S
In0 O8 2.266 1_545 S
In0 O9 2.326 1_445 S
In0 O11 2.294 . S
In0 O12 2.326 . S
O1 In0 2.294 1_655 S
O1 C10 1.240 1_655 S
O2 In0 2.326 . S
O2 C10 1.252 . S
C3 O6 1.252 . S
C3 O7 1.260 . S
C4 O11 1.240 . S
C4 O12 1.252 . S
C5 O8 1.240 1_655 S
C5 O9 1.280 . S
O6 In0 2.266 1_665 S
O6 C3 1.252 . S
O7 In0 2.326 1_665 S
O7 C3 1.260 . S
O8 In0 2.266 1_565 S
O8 C5 1.240 1_455 S
O9 In0 2.326 1_665 S
O9 C5 1.280 . S
C10 O1 1.240 1_455 S
C10 O2 1.252 . S
O11 In0 2.294 . S
O11 C4 1.240 . S
O12 In0 2.326 . S
O12 C4 1.252 . S
In13 O14 2.292 . S
In13 O15 2.306 1_455 S
In13 O19 2.290 . S
In13 O20 2.342 1_545 S
In13 O21 2.269 1_445 S
In13 O22 2.346 1_545 S
In13 O24 2.270 1_445 S
In13 O25 2.309 1_455 S
O14 In13 2.292 . S
O14 C23 1.240 1_455 S
O15 In13 2.306 1_655 S
O15 C23 1.252 . S
C16 O19 1.234 1_565 S
C16 O20 1.269 . S
C17 O24 1.240 1_545 S
C17 O25 1.252 . S
C18 O21 1.252 1_455 S
C18 O22 1.260 . S
O19 In13 2.290 . S
O19 C16 1.234 1_545 S
O20 In13 2.342 1_565 S
O20 C16 1.269 . S
O21 In13 2.269 1_665 S
O21 C18 1.252 1_655 S
O22 In13 2.346 1_565 S
O22 C18 1.260 . S
C23 O14 1.240 1_655 S
C23 O15 1.252 . S
O24 In13 2.270 1_665 S
O24 C17 1.240 1_565 S
O25 In13 2.309 1_655 S
O25 C17 1.252 . S
In26 O27 2.277 1_445 S
In26 O28 2.307 1_445 S
In26 O32 2.277 1_545 S
In26 O33 2.345 . S
In26 O34 2.283 . S
In26 O35 2.344 . S
In26 O37 2.283 1_455 S
In26 O38 2.306 1_445 S
O27 In26 2.277 1_665 S
O27 C36 1.240 . S
O28 In26 2.307 1_665 S
O28 C36 1.252 . S
C29 O32 1.252 1_545 S
C29 O33 1.260 . S
C30 O37 1.240 1_565 S
C30 O38 1.252 . S
C31 O34 1.252 . S
C31 O35 1.260 . S
O32 In26 2.277 1_565 S
O32 C29 1.252 1_565 S
O33 In26 2.345 . S
O33 C29 1.260 . S
O34 In26 2.283 . S
O34 C31 1.252 . S
O35 In26 2.344 . S
O35 C31 1.260 . S
C36 O27 1.240 . S
C36 O28 1.252 . S
O37 In26 2.283 1_655 S
O37 C30 1.240 1_545 S
O38 In26 2.306 1_665 S
O38 C30 1.252 . S
C39 C40 1.384 1_655 S
C39 C41 1.384 . S
C39 H67 0.931 . S
C40 C39 1.384 1_455 S
C40 C43 1.382 . S
C41 C39 1.384 . S
C41 C42 1.381 1_655 S
C41 H68 0.930 . S
C42 C41 1.381 1_455 S
C42 C44 1.381 . S
C42 C45 1.487 . S
C43 C40 1.382 . S
C43 C44 1.387 . S
C43 H69 0.930 . S
C44 C42 1.381 . S
C44 C43 1.387 . S
C44 H70 0.931 . S
C45 C42 1.487 . S
C45 C52 1.400 . S
C45 N83 1.343 . S
C46 C47 1.384 . S
C46 C48 1.384 . S
C46 H71 0.931 . S
C47 C46 1.384 . S
C47 C50 1.382 1_455 S
C48 C46 1.384 . S
C48 C49 1.379 . S
C48 H72 0.930 . S
C49 C48 1.379 . S
C49 C51 1.383 1_455 S
C49 C52 1.494 . S
C50 C47 1.382 1_655 S
C50 C51 1.387 . S
C50 H73 0.930 . S
C51 C49 1.383 1_655 S
C51 C50 1.387 . S
C51 H74 0.931 . S
C52 C45 1.400 . S
C52 C49 1.494 . S
C52 N84 1.336 1_455 S
C53 C54 1.384 . S
C53 C55 1.384 . S
C53 H75 0.931 . S
C54 C53 1.384 . S
C54 C57 1.382 1_455 S
C55 C53 1.384 . S
C55 C56 1.381 . S
C55 H76 0.930 . S
C56 C55 1.381 . S
C56 C58 1.383 1_455 S
C56 C59 1.479 . S
C57 C54 1.382 1_655 S
C57 C58 1.387 . S
C57 H77 0.930 . S
C58 C56 1.383 1_655 S
C58 C57 1.387 . S
C58 H78 0.931 . S
C59 C56 1.479 . S
C59 C66 1.400 . S
C59 N84 1.349 1_455 S
C60 C61 1.384 1_655 S
C60 C62 1.384 . S
C60 H79 0.931 . S
C61 C60 1.384 1_455 S
C61 C64 1.382 . S
C62 C60 1.384 . S
C62 C63 1.381 1_655 S
C62 H80 0.930 . S
C63 C62 1.381 1_455 S
C63 C65 1.381 . S
C63 C66 1.487 . S
C64 C61 1.382 . S
C64 C65 1.387 . S
C64 H81 0.930 . S
C65 C63 1.381 . S
C65 C64 1.387 . S
C65 H82 0.931 . S
C66 C59 1.400 . S
C66 C63 1.487 . S
C66 N83 1.343 . S
H67 C39 0.931 . S
H68 C41 0.930 . S
H69 C43 0.930 . S
H70 C44 0.931 . S
H71 C46 0.931 . S
H72 C48 0.930 . S
H73 C50 0.930 . S
H74 C51 0.931 . S
H75 C53 0.931 . S
H76 C55 0.930 . S
H77 C57 0.930 . S
H78 C58 0.931 . S
H79 C60 0.931 . S
H80 C62 0.930 . S
H81 C64 0.930 . S
H82 C65 0.931 . S
N83 C45 1.343 . S
N83 C66 1.343 . S
N84 C52 1.336 1_655 S
N84 C59 1.349 1_655 S
C85 C86 1.384 . S
C85 C87 1.384 . S
C85 H113 0.931 . S
C86 C85 1.384 . S
C86 C89 1.382 1_545 S
C87 C85 1.384 . S
C87 C88 1.381 1_545 S
C87 H114 0.930 . S
C88 C87 1.381 1_565 S
C88 C90 1.383 . S
C88 C91 1.482 1_565 S
C89 C86 1.382 1_565 S
C89 C90 1.387 . S
C89 H115 0.930 . S
C90 C88 1.383 . S
C90 C89 1.387 . S
C90 H116 0.931 . S
C91 C88 1.482 1_545 S
C91 C98 1.400 . S
C91 N129 1.346 1_545 S
C92 C93 1.384 1_565 S
C92 C94 1.384 . S
C92 H117 0.931 . S
C93 C92 1.384 1_545 S
C93 C96 1.382 . S
C94 C92 1.384 . S
C94 C95 1.381 1_565 S
C94 H118 0.930 . S
C95 C94 1.381 1_545 S
C95 C97 1.381 . S
C95 C98 1.487 . S
C96 C93 1.382 . S
C96 C97 1.387 . S
C96 H119 0.930 . S
C97 C95 1.381 . S
C97 C96 1.387 . S
C97 H120 0.931 . S
C98 C91 1.400 . S
C98 C95 1.487 . S
C98 N130 1.343 . S
C99 C100 1.384 1_565 S
C99 C101 1.384 . S
C99 H121 0.931 . S
C100 C99 1.384 1_545 S
C100 C103 1.382 . S
C101 C99 1.384 . S
C101 C102 1.381 1_565 S
C101 H122 0.930 . S
C102 C101 1.381 1_545 S
C102 C104 1.381 . S
C102 C105 1.487 . S
C103 C100 1.382 . S
C103 C104 1.387 . S
C103 H123 0.930 . S
C104 C102 1.381 . S
C104 C103 1.387 . S
C104 H124 0.931 . S
C105 C102 1.487 . S
C105 C112 1.400 . S
C105 N130 1.343 . S
C106 C107 1.384 . S
C106 C108 1.384 . S
C106 H125 0.931 . S
C107 C106 1.384 . S
C107 C110 1.382 1_545 S
C108 C106 1.384 . S
C108 C109 1.379 1_545 S
C108 H126 0.930 . S
C109 C108 1.379 1_565 S
C109 C111 1.382 . S
C109 C112 1.492 1_565 S
C110 C107 1.382 1_565 S
C110 C111 1.387 . S
C110 H127 0.930 . S
C111 C109 1.382 . S
C111 C110 1.387 . S
C111 H128 0.931 . S
C112 C105 1.400 . S
C112 C109 1.492 1_545 S
C112 N129 1.339 1_545 S
H113 C85 0.931 . S
H114 C87 0.930 . S
H115 C89 0.930 . S
H116 C90 0.931 . S
H117 C92 0.931 . S
H118 C94 0.930 . S
H119 C96 0.930 . S
H120 C97 0.931 . S
H121 C99 0.931 . S
H122 C101 0.930 . S
H123 C103 0.930 . S
H124 C104 0.931 . S
H125 C106 0.931 . S
H126 C108 0.930 . S
H127 C110 0.930 . S
H128 C111 0.931 . S
N129 C91 1.346 1_565 S
N129 C112 1.339 1_565 S
N130 C98 1.343 . S
N130 C105 1.343 . S
C131 C132 1.384 . S
C131 C133 1.384 . S
C131 H159 0.931 . S
C132 C131 1.384 . S
C132 C135 1.382 . S
C133 C131 1.384 . S
C133 C134 1.381 . S
C133 H160 0.930 . S
C134 C133 1.381 . S
C134 C136 1.381 . S
C134 C137 1.487 . S
C135 C132 1.382 . S
C135 C136 1.387 . S
C135 H161 0.930 . S
C136 C134 1.381 . S
C136 C135 1.387 . S
C136 H162 0.931 . S
C137 C134 1.487 . S
C137 C144 1.399 . S
C137 N175 1.343 . S
C138 C139 1.384 . S
C138 C140 1.384 . S
C138 H163 0.931 . S
C139 C138 1.384 . S
C139 C142 1.382 . S
C140 C138 1.384 . S
C140 C141 1.381 . S
C140 H164 0.930 . S
C141 C140 1.381 . S
C141 C143 1.381 . S
C141 C144 1.487 . S
C142 C139 1.382 . S
C142 C143 1.387 . S
C142 H165 0.930 . S
C143 C141 1.381 . S
C143 C142 1.387 . S
C143 H166 0.931 . S
C144 C137 1.399 . S
C144 C141 1.487 . S
C144 N176 1.343 . S
C145 C146 1.384 . S
C145 C147 1.384 . S
C145 H167 0.931 . S
C146 C145 1.384 . S
C146 C149 1.382 . S
C147 C145 1.384 . S
C147 C148 1.381 . S
C147 H168 0.930 . S
C148 C147 1.381 . S
C148 C150 1.381 . S
C148 C151 1.487 . S
C149 C146 1.382 . S
C149 C150 1.387 . S
C149 H169 0.930 . S
C150 C148 1.381 . S
C150 C149 1.387 . S
C150 H170 0.931 . S
C151 C148 1.487 . S
C151 C158 1.399 . S
C151 N176 1.343 . S
C152 C153 1.384 . S
C152 C154 1.384 . S
C152 H171 0.931 . S
C153 C152 1.384 . S
C153 C156 1.382 . S
C154 C152 1.384 . S
C154 C155 1.381 . S
C154 H172 0.930 . S
C155 C154 1.381 . S
C155 C157 1.381 . S
C155 C158 1.487 . S
C156 C153 1.382 . S
C156 C157 1.387 . S
C156 H173 0.930 . S
C157 C155 1.381 . S
C157 C156 1.387 . S
C157 H174 0.931 . S
C158 C151 1.399 . S
C158 C155 1.487 . S
C158 N175 1.343 . S
H159 C131 0.931 . S
H160 C133 0.930 . S
H161 C135 0.930 . S
H162 C136 0.931 . S
H163 C138 0.931 . S
H164 C140 0.930 . S
H165 C142 0.930 . S
H166 C143 0.931 . S
H167 C145 0.931 . S
H168 C147 0.930 . S
H169 C149 0.930 . S
H170 C150 0.931 . S
H171 C152 0.931 . S
H172 C154 0.930 . S
H173 C156 0.930 . S
H174 C157 0.931 . S
N175 C137 1.343 . S
N175 C158 1.343 . S
N176 C144 1.343 . S
N176 C151 1.343 . S
C177 C178 1.386 . S
C177 C179 1.383 . S
C177 H193 0.951 . S
C178 C177 1.386 . S
C178 C182 1.383 1_455 S
C179 C177 1.383 . S
C179 C180 1.402 . S
C179 H194 0.951 . S
C180 C179 1.402 . S
C180 C181 1.375 1_455 S
C180 C183 1.481 . S
C181 C180 1.375 1_655 S
C181 C182 1.367 . S
C181 H195 0.951 . S
C182 C178 1.383 1_655 S
C182 C181 1.367 . S
C182 H196 0.950 . S
C183 C180 1.481 . S
C183 C184 1.297 . S
C183 H197 0.950 1_455 S
C184 C183 1.297 . S
C184 C185 1.479 . S
C184 H198 0.950 . S
C185 C184 1.479 . S
C185 C186 1.375 . S
C185 C191 1.400 1_455 S
C186 C185 1.375 . S
C186 C187 1.369 . S
C186 H199 0.950 . S
C187 C186 1.369 . S
C187 C188 1.392 . S
C187 H200 0.951 . S
C188 C187 1.392 . S
C188 C190 1.384 1_455 S
H189 C191 0.950 . S
C190 C188 1.384 1_655 S
C190 C191 1.388 . S
C190 H192 0.950 . S
C191 C185 1.400 1_655 S
C191 H189 0.950 . S
C191 C190 1.388 . S
H192 C190 0.950 . S
H193 C177 0.951 . S
H194 C179 0.951 . S
H195 C181 0.951 . S
H196 C182 0.950 . S
H197 C183 0.950 1_655 S
H198 C184 0.950 . S
H199 C186 0.950 . S
H200 C187 0.951 . S
C201 C202 1.386 1_565 S
C201 C203 1.383 . S
C201 H217 0.951 . S
C202 C201 1.386 1_545 S
C202 C206 1.383 . S
C203 C201 1.383 . S
C203 C204 1.402 1_565 S
C203 H218 0.951 . S
C204 C203 1.402 1_545 S
C204 C205 1.375 . S
C204 C207 1.481 . S
C205 C204 1.375 . S
C205 C206 1.367 . S
C205 H219 0.951 . S
C206 C202 1.383 . S
C206 C205 1.367 . S
C206 H220 0.950 . S
C207 C204 1.481 . S
C207 C208 1.297 1_545 S
C207 H221 0.950 . S
C208 C207 1.297 1_565 S
C208 C209 1.479 . S
C208 H222 0.950 . S
C209 C208 1.479 . S
C209 C210 1.375 . S
C209 C215 1.404 1_565 S
C210 C209 1.375 . S
C210 C211 1.369 . S
C210 H223 0.950 . S
C211 C210 1.369 . S
C211 C212 1.392 1_565 S
C211 H224 0.951 . S
C212 C211 1.392 1_545 S
C212 C214 1.384 . S
H213 C215 0.949 . S
C214 C212 1.384 . S
C214 C215 1.385 . S
C214 H216 0.950 . S
C215 C209 1.404 1_545 S
C215 H213 0.949 . S
C215 C214 1.385 . S
H216 C214 0.950 . S
H217 C201 0.951 . S
H218 C203 0.951 . S
H219 C205 0.951 . S
H220 C206 0.950 . S
H221 C207 0.950 . S
H222 C208 0.950 . S
H223 C210 0.950 . S
H224 C211 0.951 . S
C225 C226 1.386 . S
C225 C227 1.383 . S
C225 H241 0.951 . S
C226 C225 1.386 . S
C226 C230 1.383 . S
C227 C225 1.383 . S
C227 C228 1.402 . S
C227 H242 0.951 . S
C228 C227 1.402 . S
C228 C229 1.375 . S
C228 C231 1.481 . S
C229 C228 1.375 . S
C229 C230 1.367 . S
C229 H243 0.951 . S
C230 C226 1.383 . S
C230 C229 1.367 . S
C230 H244 0.950 . S
C231 C228 1.481 . S
C231 C232 1.297 . S
C231 H245 0.950 . S
C232 C231 1.297 . S
C232 C233 1.479 . S
C232 H246 0.950 . S
C233 C232 1.479 . S
C233 C234 1.375 . S
C233 C239 1.404 . S
C234 C233 1.375 . S
C234 C235 1.369 . S
C234 H247 0.950 . S
C235 C234 1.369 . S
C235 C236 1.392 . S
C235 H248 0.951 . S
C236 C235 1.392 . S
C236 C238 1.384 . S
H237 C239 0.949 . S
C238 C236 1.384 . S
C238 C239 1.385 . S
C238 H240 0.950 . S
C239 C233 1.404 . S
C239 H237 0.949 . S
C239 C238 1.385 . S
H240 C238 0.950 . S
H241 C225 0.951 . S
H242 C227 0.951 . S
H243 C229 0.951 . S
H244 C230 0.950 . S
H245 C231 0.950 . S
H246 C232 0.950 . S
H247 C234 0.950 . S
H248 C235 0.951 . S
C249 C250 1.386 1_455 S
C249 C251 1.383 . S
C249 H265 0.951 . S
C250 C249 1.386 1_655 S
C250 C254 1.383 . S
C251 C249 1.383 . S
C251 C252 1.402 1_455 S
C251 H266 0.951 . S
C252 C251 1.402 1_655 S
C252 C253 1.375 . S
C252 C255 1.481 . S
C253 C252 1.375 . S
C253 C254 1.367 . S
C253 H267 0.951 . S
C254 C250 1.383 . S
C254 C253 1.367 . S
C254 H268 0.950 . S
C255 C252 1.481 . S
C255 C256 1.297 . S
C255 H269 0.950 . S
C256 C255 1.297 . S
C256 C257 1.479 . S
C256 H270 0.950 1_655 S
C257 C256 1.479 . S
C257 C258 1.375 1_655 S
C257 C263 1.404 . S
C258 C257 1.375 1_455 S
C258 C259 1.369 . S
C258 H271 0.950 . S
C259 C258 1.369 . S
C259 C260 1.392 1_455 S
C259 H272 0.951 . S
C260 C259 1.392 1_655 S
C260 C262 1.384 . S
H261 C263 0.949 . S
C262 C260 1.384 . S
C262 C263 1.385 . S
C262 H264 0.950 . S
C263 C257 1.404 . S
C263 H261 0.949 . S
C263 C262 1.385 . S
H264 C262 0.950 . S
H265 C249 0.951 . S
H266 C251 0.951 . S
H267 C253 0.951 . S
H268 C254 0.950 . S
H269 C255 0.950 . S
H270 C256 0.950 1_455 S
H271 C258 0.950 . S
H272 C259 0.951 . S
C273 C274 1.389 . S
C273 C275 1.383 . S
C273 H289 0.951 . S
C274 C273 1.389 . S
C274 C278 1.382 1_565 S
C275 C273 1.383 . S
C275 C276 1.402 1_565 S
C275 H290 0.951 . S
C276 C275 1.402 1_545 S
C276 C277 1.375 . S
C276 C279 1.481 . S
C277 C276 1.375 . S
C277 C278 1.367 . S
C277 H291 0.951 . S
C278 C274 1.382 1_545 S
C278 C277 1.367 . S
C278 H292 0.950 . S
C279 C276 1.481 . S
C279 C280 1.297 1_545 S
C279 H293 0.950 . S
C280 C279 1.297 1_565 S
C280 C281 1.479 . S
C280 H294 0.950 . S
C281 C280 1.479 . S
C281 C282 1.375 . S
C281 C287 1.404 1_565 S
C282 C281 1.375 . S
C282 C283 1.369 . S
C282 H295 0.950 . S
C283 C282 1.369 . S
C283 C284 1.392 . S
C283 H296 0.951 . S
C284 C283 1.392 . S
C284 C286 1.384 1_565 S
H285 C287 0.949 . S
C286 C284 1.384 1_545 S
C286 C287 1.385 . S
C286 H288 0.950 . S
C287 C281 1.404 1_545 S
C287 H285 0.949 . S
C287 C286 1.385 . S
H288 C286 0.950 . S
H289 C273 0.951 . S
H290 C275 0.951 . S
H291 C277 0.951 . S
H292 C278 0.950 . S
H293 C279 0.950 . S
H294 C280 0.950 . S
H295 C282 0.950 . S
H296 C283 0.951 . S
C297 C298 1.386 . S
C297 C299 1.383 . S
C297 H313 0.951 . S
C298 C297 1.386 . S
C298 C302 1.383 . S
C299 C297 1.383 . S
C299 C300 1.402 . S
C299 H314 0.951 . S
C300 C299 1.402 . S
C300 C301 1.375 . S
C300 C303 1.481 . S
C301 C300 1.375 . S
C301 C302 1.367 . S
C301 H315 0.951 . S
C302 C298 1.383 . S
C302 C301 1.367 . S
C302 H316 0.950 . S
C303 C300 1.481 . S
C303 C304 1.297 . S
C303 H317 0.950 . S
C304 C303 1.297 . S
C304 C305 1.479 . S
C304 H318 0.950 . S
C305 C304 1.479 . S
C305 C306 1.375 . S
C305 C311 1.404 . S
C306 C305 1.375 . S
C306 C307 1.369 . S
C306 H319 0.950 . S
C307 C306 1.369 . S
C307 C308 1.392 . S
C307 H320 0.951 . S
C308 C307 1.392 . S
C308 C310 1.384 . S
H309 C311 0.949 . S
C310 C308 1.384 . S
C310 C311 1.385 . S
C310 H312 0.950 . S
C311 C305 1.404 . S
C311 H309 0.949 . S
C311 C310 1.385 . S
H312 C310 0.950 . S
H313 C297 0.951 . S
H314 C299 0.951 . S
H315 C301 0.951 . S
H316 C302 0.950 . S
H317 C303 0.950 . S
H318 C304 0.950 . S
H319 C306 0.950 . S
H320 C307 0.951 . S
C321 C322 1.389 1_565 S
C321 C323 1.383 . S
C321 H337 0.951 . S
C322 C321 1.389 1_545 S
C322 C326 1.389 . S
C323 C321 1.383 . S
C323 C324 1.402 1_565 S
C323 H338 0.951 . S
C324 C323 1.402 1_545 S
C324 C325 1.375 . S
C324 C327 1.481 . S
C325 C324 1.375 . S
C325 C326 1.367 . S
C325 H339 0.951 . S
C326 C322 1.389 . S
C326 C325 1.367 . S
C326 H340 0.950 . S
C327 C324 1.481 . S
C327 C328 1.297 . S
C327 H341 0.950 . S
C328 C327 1.297 . S
C328 C329 1.479 . S
C328 H342 0.950 . S
C329 C328 1.479 . S
C329 C330 1.375 1_545 S
C329 C335 1.404 . S
C330 C329 1.375 1_565 S
C330 C331 1.369 . S
C330 H343 0.950 . S
C331 C330 1.369 . S
C331 C332 1.392 1_565 S
C331 H344 0.951 . S
C332 C331 1.392 1_545 S
C332 C334 1.384 . S
H333 C335 0.949 . S
C334 C332 1.384 . S
C334 C335 1.385 . S
C334 H336 0.950 . S
C335 C329 1.404 . S
C335 H333 0.949 . S
C335 C334 1.385 . S
H336 C334 0.950 . S
H337 C321 0.951 . S
H338 C323 0.951 . S
H339 C325 0.951 . S
H340 C326 0.950 . S
H341 C327 0.950 . S
H342 C328 0.950 . S
H343 C330 0.950 . S
H344 C331 0.951 . S
C345 C346 1.386 . S
C345 C347 1.383 . S
C345 H361 0.951 . S
C346 C345 1.386 . S
C346 C350 1.383 . S
C347 C345 1.383 . S
C347 C348 1.402 1_554 S
C347 H362 0.951 . S
C348 C347 1.402 1_556 S
C348 C349 1.375 . S
C348 C351 1.481 . S
C349 C348 1.375 . S
C349 C350 1.367 1_556 S
C349 H363 0.951 . S
C350 C346 1.383 . S
C350 C349 1.367 1_554 S
C350 H364 0.952 . S
C351 C348 1.481 . S
C351 C352 1.297 . S
C351 H365 0.950 . S
C352 C351 1.297 . S
C352 C353 1.479 . S
C352 H366 0.950 . S
C353 C352 1.479 . S
C353 C354 1.375 . S
C353 C359 1.404 . S
C354 C353 1.375 . S
C354 C355 1.369 . S
C354 H367 0.950 . S
C355 C354 1.369 . S
C355 C356 1.392 . S
C355 H368 0.951 . S
C356 C355 1.392 . S
C356 C358 1.384 . S
H357 C359 0.949 . S
C358 C356 1.384 . S
C358 C359 1.385 . S
C358 H360 0.950 . S
C359 C353 1.404 . S
C359 H357 0.949 . S
C359 C358 1.385 . S
H360 C358 0.950 . S
H361 C345 0.951 . S
H362 C347 0.951 . S
H363 C349 0.951 . S
H364 C350 0.952 . S
H365 C351 0.950 . S
H366 C352 0.950 . S
H367 C354 0.950 . S
H368 C355 0.951 . S
C369 C370 1.386 . S
C369 C371 1.383 . S
C369 H385 0.951 . S
C370 C369 1.386 . S
C370 C374 1.383 1_455 S
C371 C369 1.383 . S
C371 C372 1.402 1_455 S
C371 H386 0.951 . S
C372 C371 1.402 1_655 S
C372 C373 1.375 . S
C372 C375 1.481 . S
C373 C372 1.375 . S
C373 C374 1.367 . S
C373 H387 0.951 . S
C374 C370 1.383 1_655 S
C374 C373 1.367 . S
C374 H388 0.950 . S
C375 C372 1.481 . S
C375 C376 1.297 . S
C375 H389 0.950 . S
C376 C375 1.297 . S
C376 C377 1.479 . S
C376 H390 0.950 1_655 S
C377 C376 1.479 . S
C377 C378 1.375 1_655 S
C377 C383 1.404 . S
C378 C377 1.375 1_455 S
C378 C379 1.369 . S
C378 H391 0.950 . S
C379 C378 1.369 . S
C379 C380 1.392 1_455 S
C379 H392 0.951 . S
C380 C379 1.392 1_655 S
C380 C382 1.384 . S
H381 C383 0.949 . S
C382 C380 1.384 . S
C382 C383 1.385 . S
C382 H384 0.950 . S
C383 C377 1.404 . S
C383 H381 0.949 . S
C383 C382 1.385 . S
H384 C382 0.950 . S
H385 C369 0.951 . S
H386 C371 0.951 . S
H387 C373 0.951 . S
H388 C374 0.950 . S
H389 C375 0.950 . S
H390 C376 0.950 1_455 S
H391 C378 0.950 . S
H392 C379 0.951 . S
C393 C394 1.386 . S
C393 C395 1.383 . S
C393 H409 0.951 . S
C394 C393 1.386 . S
C394 C398 1.383 1_545 S
C395 C393 1.383 . S
C395 C396 1.402 . S
C395 H410 0.951 . S
C396 C395 1.402 . S
C396 C397 1.375 1_545 S
C396 C399 1.481 . S
C397 C396 1.375 1_565 S
C397 C398 1.367 . S
C397 H411 0.951 . S
C398 C394 1.383 1_565 S
C398 C397 1.367 . S
C398 H412 0.950 . S
C399 C396 1.481 . S
C399 C400 1.297 . S
C399 H413 0.950 1_545 S
C400 C399 1.297 . S
C400 C401 1.479 . S
C400 H414 0.950 . S
C401 C400 1.479 . S
C401 C402 1.375 . S
C401 C407 1.404 . S
C402 C401 1.375 . S
C402 C403 1.369 . S
C402 H415 0.950 . S
C403 C402 1.369 . S
C403 C404 1.392 . S
C403 H416 0.951 . S
C404 C403 1.392 . S
C404 C406 1.384 1_545 S
H405 C407 0.949 1_565 S
C406 C404 1.384 1_565 S
C406 C407 1.385 1_565 S
C406 H408 0.950 . S
C407 C401 1.404 . S
C407 H405 0.949 1_545 S
C407 C406 1.385 1_545 S
H408 C406 0.950 . S
H409 C393 0.951 . S
H410 C395 0.951 . S
H411 C397 0.951 . S
H412 C398 0.950 . S
H413 C399 0.950 1_565 S
H414 C400 0.950 . S
H415 C402 0.950 . S
H416 C403 0.951 . S
C417 C418 1.386 . S
C417 C419 1.383 . S
C417 H433 0.951 . S
C418 C417 1.386 . S
C418 C422 1.383 1_554 S
C419 C417 1.383 . S
C419 C420 1.402 1_554 S
C419 H434 0.951 . S
C420 C419 1.402 1_556 S
C420 C421 1.375 . S
C420 C423 1.481 . S
C421 C420 1.375 . S
C421 C422 1.367 . S
C421 H435 0.951 . S
C422 C418 1.383 1_556 S
C422 C421 1.367 . S
C422 H436 0.950 . S
C423 C420 1.481 . S
C423 C424 1.297 . S
C423 H437 0.950 . S
C424 C423 1.297 . S
C424 C425 1.479 . S
C424 H438 0.950 . S
C425 C424 1.479 . S
C425 C426 1.375 . S
C425 C431 1.404 . S
C426 C425 1.375 . S
C426 C427 1.369 . S
C426 H439 0.950 . S
C427 C426 1.369 . S
C427 C428 1.392 . S
C427 H440 0.951 . S
C428 C427 1.392 . S
C428 C430 1.384 . S
H429 C431 0.949 . S
C430 C428 1.384 . S
C430 C431 1.385 . S
C430 H432 0.950 . S
C431 C425 1.404 . S
C431 H429 0.949 . S
C431 C430 1.385 . S
H432 C430 0.950 . S
H433 C417 0.951 . S
H434 C419 0.951 . S
H435 C421 0.951 . S
H436 C422 0.950 . S
H437 C423 0.950 . S
H438 C424 0.950 . S
H439 C426 0.950 . S
H440 C427 0.951 . S
C441 C442 1.393 1_455 S
C441 C443 1.383 . S
C441 H457 0.951 . S
C442 C441 1.393 1_655 S
C442 C446 1.383 . S
C443 C441 1.383 . S
C443 C444 1.402 . S
C443 H458 0.951 . S
C444 C443 1.402 . S
C444 C445 1.375 1_455 S
C444 C447 1.481 . S
C445 C444 1.375 1_655 S
C445 C446 1.367 . S
C445 H459 0.951 . S
C446 C442 1.383 . S
C446 C445 1.367 . S
C446 H460 0.950 . S
C447 C444 1.481 . S
C447 C448 1.297 . S
C447 H461 0.950 . S
C448 C447 1.297 . S
C448 C449 1.479 . S
C448 H462 0.950 . S
C449 C448 1.479 . S
C449 C450 1.375 . S
C449 C455 1.404 . S
C450 C449 1.375 . S
C450 C451 1.369 . S
C450 H463 0.950 . S
C451 C450 1.369 . S
C451 C452 1.392 . S
C451 H464 0.951 . S
C452 C451 1.392 . S
C452 C454 1.384 . S
H453 C455 0.949 . S
C454 C452 1.384 . S
C454 C455 1.385 . S
C454 H456 0.950 . S
C455 C449 1.404 . S
C455 H453 0.949 . S
C455 C454 1.385 . S
H456 C454 0.950 . S
H457 C441 0.951 . S
H458 C443 0.951 . S
H459 C445 0.951 . S
H460 C446 0.950 . S
H461 C447 0.950 . S
H462 C448 0.950 . S
H463 C450 0.950 . S
H464 C451 0.951 . S
C188 C47 1.517 . S
C178 C10 1.516 . S
C202 C17 1.522 . S
C212 C86 1.503 . S
C226 C36 1.518 . S
C236 C153 1.505 . S
C250 C5 1.514 . S
C260 C54 1.503 1_655 S
C284 C107 1.511 1_565 S
C274 C16 1.528 . S
C298 C31 1.521 . S
C308 C132 1.505 . S
C332 C93 1.511 . S
C322 C30 1.512 1_545 S
C346 C3 1.520 . S
C356 C146 1.519 . S
C380 C61 1.520 1_655 S
C370 C18 1.521 . S
C404 C100 1.509 . S
C394 C29 1.521 . S
C428 C139 1.513 . S
C418 C4 1.520 . S
C442 C23 1.513 . S
C452 C40 1.506 . S
