# Generated by pormake.
# Topology wbl, (4,4)-cn, num edge types: 1
# Building blocks:
#     Node 0, Type 0, BuildingBlock: MUDLON_clean_linker_0, # of connection points: 4
#     Node 1, Type 0, BuildingBlock: MUDLON_clean_linker_0, # of connection points: 4
#     Node 2, Type 0, BuildingBlock: MUDLON_clean_linker_0, # of connection points: 4
#     Node 3, Type 0, BuildingBlock: MUDLON_clean_linker_0, # of connection points: 4
#     Node 4, Type 0, BuildingBlock: MUDLON_clean_linker_0, # of connection points: 4
#     Node 5, Type 0, BuildingBlock: MUDLON_clean_linker_0, # of connection points: 4
#     Node 6, Type 0, BuildingBlock: MUDLON_clean_linker_0, # of connection points: 4
#     Node 7, Type 0, BuildingBlock: MUDLON_clean_linker_0, # of connection points: 4
#     Node 8, Type 1, BuildingBlock: TATPOV_clean_sbu_0, # of connection points: 4
#     Node 9, Type 1, BuildingBlock: TATPOV_clean_sbu_0, # of connection points: 4
#     Node 10, Type 1, BuildingBlock: TATPOV_clean_sbu_0, # of connection points: 4
#     Node 11, Type 1, BuildingBlock: TATPOV_clean_sbu_0, # of connection points: 4
#     Node 12, Type 1, BuildingBlock: TATPOV_clean_sbu_0, # of connection points: 4
#     Node 13, Type 1, BuildingBlock: TATPOV_clean_sbu_0, # of connection points: 4
#     Node 14, Type 1, BuildingBlock: TATPOV_clean_sbu_0, # of connection points: 4
#     Node 15, Type 1, BuildingBlock: TATPOV_clean_sbu_0, # of connection points: 4
#     Edge 16, Type (0, 1), BuildingBlock: TEMPAE_clean_linker_10, # of connection points: 2
#     Edge 17, Type (0, 1), BuildingBlock: TEMPAE_clean_linker_10, # of connection points: 2
#     Edge 18, Type (0, 1), BuildingBlock: TEMPAE_clean_linker_10, # of connection points: 2
#     Edge 19, Type (0, 1), BuildingBlock: TEMPAE_clean_linker_10, # of connection points: 2
#     Edge 20, Type (0, 1), BuildingBlock: TEMPAE_clean_linker_10, # of connection points: 2
#     Edge 21, Type (0, 1), BuildingBlock: TEMPAE_clean_linker_10, # of connection points: 2
#     Edge 22, Type (0, 1), BuildingBlock: TEMPAE_clean_linker_10, # of connection points: 2
#     Edge 23, Type (0, 1), BuildingBlock: TEMPAE_clean_linker_10, # of connection points: 2
#     Edge 24, Type (0, 1), BuildingBlock: TEMPAE_clean_linker_10, # of connection points: 2
#     Edge 25, Type (0, 1), BuildingBlock: TEMPAE_clean_linker_10, # of connection points: 2
#     Edge 26, Type (0, 1), BuildingBlock: TEMPAE_clean_linker_10, # of connection points: 2
#     Edge 27, Type (0, 1), BuildingBlock: TEMPAE_clean_linker_10, # of connection points: 2
#     Edge 28, Type (0, 1), BuildingBlock: TEMPAE_clean_linker_10, # of connection points: 2
#     Edge 29, Type (0, 1), BuildingBlock: TEMPAE_clean_linker_10, # of connection points: 2
#     Edge 30, Type (0, 1), BuildingBlock: TEMPAE_clean_linker_10, # of connection points: 2
#     Edge 31, Type (0, 1), BuildingBlock: TEMPAE_clean_linker_10, # of connection points: 2
#     Edge 32, Type (0, 1), BuildingBlock: TEMPAE_clean_linker_10, # of connection points: 2
#     Edge 33, Type (0, 1), BuildingBlock: TEMPAE_clean_linker_10, # of connection points: 2
#     Edge 34, Type (0, 1), BuildingBlock: TEMPAE_clean_linker_10, # of connection points: 2
#     Edge 35, Type (0, 1), BuildingBlock: TEMPAE_clean_linker_10, # of connection points: 2
#     Edge 36, Type (0, 1), BuildingBlock: TEMPAE_clean_linker_10, # of connection points: 2
#     Edge 37, Type (0, 1), BuildingBlock: TEMPAE_clean_linker_10, # of connection points: 2
#     Edge 38, Type (0, 1), BuildingBlock: TEMPAE_clean_linker_10, # of connection points: 2
#     Edge 39, Type (0, 1), BuildingBlock: TEMPAE_clean_linker_10, # of connection points: 2
#     Edge 40, Type (0, 1), BuildingBlock: TEMPAE_clean_linker_10, # of connection points: 2
#     Edge 41, Type (0, 1), BuildingBlock: TEMPAE_clean_linker_10, # of connection points: 2
#     Edge 42, Type (0, 1), BuildingBlock: TEMPAE_clean_linker_10, # of connection points: 2
#     Edge 43, Type (0, 1), BuildingBlock: TEMPAE_clean_linker_10, # of connection points: 2
#     Edge 44, Type (0, 1), BuildingBlock: TEMPAE_clean_linker_10, # of connection points: 2
#     Edge 45, Type (0, 1), BuildingBlock: TEMPAE_clean_linker_10, # of connection points: 2
#     Edge 46, Type (0, 1), BuildingBlock: TEMPAE_clean_linker_10, # of connection points: 2
#     Edge 47, Type (0, 1), BuildingBlock: TEMPAE_clean_linker_10, # of connection points: 2
# Relax obj value: 0.126
# Max RMSD: 0.127
# Mean RMSD: 0.118
data_MOF--net-wbl--node1-TATPOV_clean_sbu_0--node2-MUDLON_clean_linker_0--edge1-TEMPAE_clean_linker_10
_symmetry_space_group_name_H-M    P1
_symmetry_Int_Tables_number       1
_symmetry_cell_setting            triclinic
loop_
_symmetry_equiv_pos_as_xyz
'x, y, z'
_cell_length_a     53.98224
_cell_length_b     53.979327
_cell_length_c     75.6782
_cell_angle_alpha  91.385975
_cell_angle_beta   91.418035
_cell_angle_gamma 90.016691
loop_
_atom_site_label
_atom_site_type_symbol
_atom_site_fract_x
_atom_site_fract_y
_atom_site_fract_z
_atom_type_partial_charge
H0 H 0.17207 0.9947 0.34303 0.0
N1 N 0.12669 0.00165 0.32988 0.0
H2 H 0.18409 0.97271 0.36975 0.0
H3 H 0.09506 0.98554 0.35527 0.0
H4 H 0.10685 0.96458 0.38224 0.0
H5 H 0.10293 0.95678 0.32736 0.0
H6 H 0.11406 0.92264 0.30725 0.0
H7 H 0.15204 0.00541 0.30045 0.0
H8 H 0.1625 0.97142 0.27985 0.0
H9 H 0.13386 0.0501 0.3303 0.0
H10 H 0.07644 0.99467 0.32709 0.0
H11 H 0.10261 0.08277 0.32993 0.0
H12 H 0.04491 0.02701 0.32795 0.0
H13 H 0.99597 0.17623 0.35514 0.0
H14 H 0.97606 0.1824 0.3836 0.0
H15 H 0.95668 0.10465 0.38338 0.0
H16 H 0.97767 0.09855 0.35535 0.0
H17 H 0.95604 0.10727 0.32831 0.0
H18 H 0.92198 0.11827 0.30835 0.0
H19 H 0.96278 0.1825 0.29242 0.0
H20 H 0.99704 0.17133 0.31264 0.0
H21 H 0.04291 0.13405 0.35018 0.0
H22 H 0.07388 0.10139 0.34831 0.0
H23 H 0.02496 0.05907 0.31295 0.0
N24 N 0.99789 0.13486 0.3356 0.0
H25 H 0.9937 0.09091 0.3157 0.0
C26 C 0.13278 0.99201 0.34709 0.0
C27 C 0.1578 0.98855 0.35173 0.0
C28 C 0.1646 0.97603 0.36704 0.0
C29 C 0.14642 0.96676 0.37815 0.0
C30 C 0.12132 0.97113 0.37386 0.0
C31 C 0.11454 0.98346 0.35845 0.0
C32 C 0.12719 0.98353 0.31561 0.0
C33 C 0.11535 0.96041 0.31673 0.0
C34 C 0.12156 0.94094 0.30518 0.0
C35 C 0.1391 0.94454 0.29209 0.0
C36 C 0.14872 0.96835 0.28974 0.0
C37 C 0.14287 0.98768 0.3015 0.0
C38 C 0.10751 0.02009 0.32897 0.0
C39 C 0.11443 0.04506 0.32963 0.0
C40 C 0.0965 0.06366 0.32959 0.0
C41 C 0.07112 0.05763 0.32919 0.0
C42 C 0.06422 0.03245 0.32812 0.0
C43 C 0.08224 0.01385 0.32782 0.0
C44 C 0.98813 0.1371 0.35312 0.0
C45 C 0.98773 0.16052 0.36143 0.0
C46 C 0.97613 0.164 0.37756 0.0
C47 C 0.96444 0.14408 0.38565 0.0
C48 C 0.96562 0.12036 0.37758 0.0
C49 C 0.97744 0.11686 0.36148 0.0
C50 C 0.97926 0.13848 0.3219 0.0
C51 C 0.95797 0.12344 0.32031 0.0
C52 C 0.9385 0.1297 0.30882 0.0
C53 C 0.93971 0.15128 0.29888 0.0
C54 C 0.96131 0.16584 0.30002 0.0
C55 C 0.98092 0.15941 0.31142 0.0
C56 C 0.01585 0.11525 0.33322 0.0
C57 C 0.03889 0.11769 0.34204 0.0
C58 C 0.05667 0.09904 0.34081 0.0
C59 C 0.05206 0.07752 0.33038 0.0
C60 C 0.02906 0.07515 0.32134 0.0
C61 C 0.01107 0.09367 0.32283 0.0
H62 H 0.98549 0.41264 0.59969 0.0
N63 N 0.9694 0.44725 0.57797 0.0
H64 H 0.96601 0.39874 0.62659 0.0
H65 H 0.93014 0.46968 0.59434 0.0
H66 H 0.91074 0.45613 0.62125 0.0
H67 H 0.92076 0.44674 0.56671 0.0
H68 H 0.9016 0.41592 0.5469 0.0
H69 H 0.99269 0.41527 0.55704 0.0
H70 H 0.97353 0.38425 0.53681 0.0
H71 H 0.01398 0.46645 0.58346 0.0
H72 H 0.94011 0.48503 0.56537 0.0
H73 H 0.02697 0.50935 0.57977 0.0
H74 H 0.95296 0.52786 0.56145 0.0
H75 H 0.04797 0.58496 0.59922 0.0
H76 H 0.06392 0.59022 0.62928 0.0
H77 H 0.04027 0.66679 0.62968 0.0
H78 H 0.02263 0.66078 0.59988 0.0
H79 H 0.01921 0.65811 0.5566 0.0
H80 H 0.05062 0.68257 0.54211 0.0
H81 H 0.1075 0.63326 0.56178 0.0
H82 H 0.07623 0.6099 0.57691 0.0
H83 H 0.98104 0.60556 0.58398 0.0
H84 H 0.96537 0.56313 0.58093 0.0
H85 H 0.03404 0.54033 0.55742 0.0
N86 N 0.02675 0.62111 0.57864 0.0
H87 H 0.04969 0.58223 0.56066 0.0
C88 C 0.9594 0.44215 0.595 0.0
C89 C 0.96946 0.42249 0.60456 0.0
C90 C 0.95831 0.41461 0.61991 0.0
C91 C 0.93674 0.42626 0.626 0.0
C92 C 0.92716 0.44658 0.61676 0.0
C93 C 0.93838 0.45448 0.60141 0.0
C94 C 0.95825 0.43317 0.56347 0.0
C95 C 0.9326 0.4338 0.55983 0.0
C96 C 0.92161 0.41613 0.54838 0.0
C97 C 0.93604 0.39749 0.54041 0.0
C98 C 0.96193 0.39823 0.54292 0.0
C99 C 0.9729 0.41595 0.55437 0.0
C100 C 0.97619 0.47249 0.57478 0.0
C101 C 0.00067 0.47977 0.57852 0.0
C102 C 0.00806 0.50422 0.57626 0.0
C103 C 0.99101 0.52198 0.5702 0.0
C104 C 0.96648 0.51462 0.56622 0.0
C105 C 0.95912 0.49006 0.56844 0.0
C106 C 0.03385 0.62257 0.5972 0.0
C107 C 0.04547 0.60271 0.60587 0.0
C108 C 0.05493 0.60583 0.6231 0.0
C109 C 0.05372 0.62902 0.63191 0.0
C110 C 0.04125 0.64854 0.62348 0.0
C111 C 0.03129 0.64524 0.60638 0.0
C112 C 0.04517 0.63208 0.56769 0.0
C113 C 0.0384 0.65234 0.55743 0.0
C114 C 0.05643 0.66625 0.54914 0.0
C115 C 0.08169 0.66003 0.55088 0.0
C116 C 0.08831 0.6389 0.56043 0.0
C117 C 0.07034 0.62526 0.5689 0.0
C118 C 0.01661 0.59736 0.57284 0.0
C119 C 0.99244 0.59152 0.57774 0.0
C120 C 0.98352 0.56727 0.57598 0.0
C121 C 0.99866 0.54831 0.56921 0.0
C122 C 0.02216 0.55447 0.56304 0.0
C123 C 0.03109 0.57869 0.56484 0.0
H124 H 0.65357 0.48236 0.8506 0.0
N125 N 0.61752 0.47917 0.82626 0.0
H126 H 0.65775 0.4592 0.87793 0.0
H127 H 0.58461 0.44497 0.83802 0.0
H128 H 0.58841 0.42197 0.86539 0.0
H129 H 0.60236 0.43586 0.80968 0.0
H130 H 0.62474 0.41309 0.78684 0.0
H131 H 0.65581 0.49509 0.80851 0.0
H132 H 0.67839 0.47233 0.78556 0.0
H133 H 0.61504 0.52635 0.83607 0.0
H134 H 0.57201 0.46715 0.81147 0.0
H135 H 0.57885 0.55349 0.835 0.0
H136 H 0.53579 0.49424 0.81002 0.0
H137 H 0.48388 0.62373 0.85717 0.0
H138 H 0.46312 0.63066 0.88511 0.0
H139 H 0.41798 0.56557 0.87422 0.0
H140 H 0.43772 0.55993 0.84583 0.0
H141 H 0.44421 0.55726 0.81192 0.0
H142 H 0.40801 0.56678 0.79332 0.0
H143 H 0.41955 0.64494 0.80476 0.0
H144 H 0.45638 0.63517 0.8223 0.0
H145 H 0.51563 0.60277 0.81972 0.0
H146 H 0.55118 0.57538 0.81521 0.0
H147 H 0.50728 0.51305 0.83095 0.0
N148 N 0.47174 0.591 0.8318 0.0
H149 H 0.47184 0.54033 0.83487 0.0
C150 C 0.61888 0.46545 0.84232 0.0
C151 C 0.63929 0.46924 0.85383 0.0
C152 C 0.64154 0.4561 0.86944 0.0
C153 C 0.62334 0.43882 0.87386 0.0
C154 C 0.60284 0.435 0.86228 0.0
C155 C 0.60059 0.44822 0.84665 0.0
C156 C 0.62759 0.46718 0.81086 0.0
C157 C 0.61849 0.44432 0.80417 0.0
C158 C 0.63125 0.43134 0.79102 0.0
C159 C 0.65335 0.44092 0.78451 0.0
C160 C 0.66147 0.46449 0.79043 0.0
C161 C 0.64863 0.47748 0.80348 0.0
C162 C 0.59626 0.49486 0.82388 0.0
C163 C 0.59783 0.51939 0.83018 0.0
C164 C 0.57718 0.53486 0.82946 0.0
C165 C 0.55443 0.52603 0.82238 0.0
C166 C 0.55299 0.5015 0.8157 0.0
C167 C 0.57375 0.48602 0.81644 0.0
C168 C 0.46258 0.5913 0.8495 0.0
C169 C 0.46991 0.61068 0.86107 0.0
C170 C 0.45806 0.61449 0.87708 0.0
C171 C 0.4387 0.59874 0.88194 0.0
C172 C 0.4325 0.57831 0.8708 0.0
C173 C 0.44411 0.57477 0.85464 0.0
C174 C 0.45312 0.59564 0.81838 0.0
C175 C 0.43938 0.57644 0.80994 0.0
C176 C 0.41843 0.58194 0.79948 0.0
C177 C 0.4106 0.60665 0.79758 0.0
C178 C 0.42511 0.62573 0.80552 0.0
C179 C 0.44619 0.62023 0.81565 0.0
C180 C 0.49123 0.57376 0.8278 0.0
C181 C 0.51367 0.58313 0.82194 0.0
C182 C 0.53394 0.56749 0.81949 0.0
C183 C 0.53213 0.54208 0.82292 0.0
C184 C 0.50924 0.5325 0.82807 0.0
C185 C 0.48895 0.54818 0.83047 0.0
H186 H 0.49797 0.88906 0.12471 0.0
N187 N 0.48732 0.919 0.09848 0.0
H188 H 0.47725 0.887 0.15296 0.0
H189 H 0.45647 0.95469 0.11202 0.0
H190 H 0.4357 0.95294 0.14032 0.0
H191 H 0.44116 0.93211 0.08623 0.0
H192 H 0.4125 0.90576 0.06887 0.0
H193 H 0.49662 0.87477 0.08424 0.0
H194 H 0.46785 0.84798 0.06711 0.0
H195 H 0.53609 0.91884 0.09691 0.0
H196 H 0.47174 0.96238 0.08355 0.0
H197 H 0.5627 0.94965 0.08375 0.0
H198 H 0.49815 0.99322 0.07014 0.0
H199 H 0.64301 0.02168 0.07466 0.0
H200 H 0.66148 0.03579 0.10313 0.0
H201 H 0.61155 0.09841 0.10358 0.0
H202 H 0.59272 0.08375 0.07612 0.0
H203 H 0.57393 0.08082 0.04885 0.0
H204 H 0.5843 0.11653 0.03189 0.0
H205 H 0.64872 0.07788 0.01227 0.0
H206 H 0.63973 0.0435 0.0314 0.0
H207 H 0.60359 0.99546 0.04646 0.0
H208 H 0.57228 0.96535 0.05471 0.0
H209 H 0.53001 0.02432 0.07905 0.0
N210 N 0.60617 0.0427 0.05636 0.0
H211 H 0.56099 0.0542 0.07047 0.0
C212 C 0.47873 0.92185 0.11625 0.0
C213 C 0.48493 0.90346 0.12831 0.0
C214 C 0.47308 0.90236 0.14444 0.0
C215 C 0.45465 0.9197 0.14883 0.0
C216 C 0.44958 0.93912 0.1372 0.0
C217 C 0.46155 0.94023 0.12104 0.0
C218 C 0.47111 0.90533 0.08647 0.0
C219 C 0.44734 0.91401 0.08182 0.0
C220 C 0.43087 0.89883 0.07202 0.0
C221 C 0.43785 0.87474 0.06672 0.0
C222 C 0.46199 0.86653 0.07082 0.0
C223 C 0.47842 0.88173 0.08061 0.0
C224 C 0.50207 0.93832 0.09132 0.0
C225 C 0.52776 0.93511 0.09115 0.0
C226 C 0.54285 0.95259 0.08344 0.0
C227 C 0.53249 0.97375 0.07568 0.0
C228 C 0.50667 0.97715 0.07604 0.0
C229 C 0.49154 0.95952 0.08375 0.0
C230 C 0.61671 0.05167 0.07303 0.0
C231 C 0.63608 0.03838 0.08103 0.0
C232 C 0.64662 0.04651 0.09724 0.0
C233 C 0.63795 0.0682 0.10571 0.0
C234 C 0.6184 0.08135 0.09768 0.0
C235 C 0.60777 0.0731 0.08166 0.0
C236 C 0.60681 0.05994 0.04212 0.0
C237 C 0.59029 0.07996 0.04093 0.0
C238 C 0.59614 0.10043 0.03084 0.0
C239 C 0.61809 0.10085 0.0211 0.0
C240 C 0.63243 0.07904 0.02028 0.0
C241 C 0.62708 0.05906 0.03095 0.0
C242 C 0.58479 0.02701 0.05782 0.0
C243 C 0.58716 0.00193 0.05308 0.0
C244 C 0.56943 0.98476 0.058 0.0
C245 C 0.54892 0.99241 0.06785 0.0
C246 C 0.54556 0.01784 0.07145 0.0
C247 C 0.56335 0.03503 0.06649 0.0
H248 H 0.08429 0.59396 0.92975 0.0
N249 N 0.03635 0.59968 0.94069 0.0
H250 H 0.10231 0.61155 0.90376 0.0
H251 H 0.0131 0.62475 0.91518 0.0
H252 H 0.03127 0.64228 0.88872 0.0
H253 H 0.04112 0.64324 0.95754 0.0
H254 H 0.07487 0.65606 0.97782 0.0
H255 H 0.06778 0.56788 0.95862 0.0
H256 H 0.10075 0.58041 0.97924 0.0
H257 H 0.05597 0.55798 0.9246 0.0
H258 H 0.99386 0.58508 0.95422 0.0
H259 H 0.03796 0.5168 0.92327 0.0
H260 H 0.97557 0.54338 0.95291 0.0
H261 H 0.98681 0.39002 0.91502 0.0
H262 H 0.9729 0.37318 0.88611 0.0
H263 H 0.91333 0.4268 0.88506 0.0
H264 H 0.92851 0.44446 0.91307 0.0
H265 H 0.92345 0.4501 0.94317 0.0
H266 H 0.89089 0.43246 0.96075 0.0
H267 H 0.93702 0.36869 0.97084 0.0
H268 H 0.96937 0.38625 0.95273 0.0
H269 H 0.98663 0.45384 0.90731 0.0
H270 H 0.00215 0.49577 0.90907 0.0
H271 H 0.98478 0.50066 0.96437 0.0
N272 N 0.96668 0.42697 0.93372 0.0
H273 H 0.96888 0.4585 0.9628 0.0
C274 C 0.0472 0.6083 0.92462 0.0
C275 C 0.07244 0.60447 0.92098 0.0
C276 C 0.08282 0.6146 0.90609 0.0
C277 C 0.06826 0.62851 0.89436 0.0
C278 C 0.0429 0.63161 0.89758 0.0
C279 C 0.03252 0.62166 0.91265 0.0
C280 C 0.05191 0.60477 0.95622 0.0
C281 C 0.05359 0.6293 0.9627 0.0
C282 C 0.07287 0.63657 0.97434 0.0
C283 C 0.09076 0.6193 0.97986 0.0
C284 C 0.08753 0.59422 0.97492 0.0
C285 C 0.06843 0.58701 0.96314 0.0
C286 C 0.02602 0.57496 0.93931 0.0
C287 C 0.03829 0.55527 0.93064 0.0
C288 C 0.02796 0.53158 0.92989 0.0
C289 C 0.00525 0.52689 0.93786 0.0
C290 C 0.99315 0.54643 0.94671 0.0
C291 C 0.00346 0.57023 0.94738 0.0
C292 C 0.95853 0.41815 0.91634 0.0
C293 C 0.97093 0.3982 0.90838 0.0
C294 C 0.96282 0.38854 0.89193 0.0
C295 C 0.94183 0.39847 0.88324 0.0
C296 C 0.92974 0.41884 0.89115 0.0
C297 C 0.93812 0.42872 0.90741 0.0
C298 C 0.94894 0.41939 0.94657 0.0
C299 C 0.92673 0.43247 0.94931 0.0
C300 C 0.90816 0.42243 0.95951 0.0
C301 C 0.9113 0.39908 0.9671 0.0
C302 C 0.93391 0.38657 0.96498 0.0
C303 C 0.9525 0.39665 0.95481 0.0
C304 C 0.97455 0.45288 0.93459 0.0
C305 C 0.98521 0.46387 0.91979 0.0
C306 C 0.99457 0.48794 0.92083 0.0
C307 C 0.99433 0.50166 0.93678 0.0
C308 C 0.98454 0.49075 0.95175 0.0
C309 C 0.97524 0.46654 0.95076 0.0
H310 H 0.54676 0.43001 0.16185 0.0
N311 N 0.56902 0.45464 0.19023 0.0
H312 H 0.56516 0.42106 0.1337 0.0
H313 H 0.60958 0.47526 0.17775 0.0
H314 H 0.62738 0.46838 0.14865 0.0
H315 H 0.5944 0.4584 0.22081 0.0
H316 H 0.6133 0.42474 0.23763 0.0
H317 H 0.56164 0.40462 0.18419 0.0
H318 H 0.58125 0.37154 0.19998 0.0
H319 H 0.52556 0.42772 0.1896 0.0
H320 H 0.55595 0.50145 0.19539 0.0
H321 H 0.48375 0.44459 0.19064 0.0
H322 H 0.51397 0.51852 0.19649 0.0
H323 H 0.35499 0.51874 0.17191 0.0
H324 H 0.34003 0.53151 0.14267 0.0
H325 H 0.41216 0.56229 0.13277 0.0
H326 H 0.42706 0.54886 0.16163 0.0
H327 H 0.42493 0.572 0.18836 0.0
H328 H 0.41298 0.6103 0.20365 0.0
H329 H 0.34992 0.573 0.22489 0.0
H330 H 0.36199 0.53454 0.2094 0.0
H331 H 0.4168 0.48948 0.16825 0.0
H332 H 0.45752 0.4703 0.17068 0.0
H333 H 0.47619 0.51866 0.21525 0.0
N334 N 0.39906 0.5282 0.18721 0.0
H335 H 0.43573 0.53768 0.21313 0.0
C336 C 0.57714 0.45285 0.1722 0.0
C337 C 0.56431 0.43855 0.15916 0.0
C338 C 0.57483 0.43372 0.14278 0.0
C339 C 0.59809 0.44367 0.13877 0.0
C340 C 0.60985 0.45968 0.15135 0.0
C341 C 0.5996 0.46393 0.16795 0.0
C342 C 0.57684 0.43429 0.2011 0.0
C343 C 0.59103 0.43938 0.21652 0.0
C344 C 0.60198 0.42012 0.22601 0.0
C345 C 0.59908 0.39531 0.22012 0.0
C346 C 0.5837 0.39026 0.20519 0.0
C347 C 0.57257 0.40944 0.19589 0.0
C348 C 0.54404 0.46342 0.19236 0.0
C349 C 0.52336 0.44751 0.19124 0.0
C350 C 0.49937 0.45719 0.19177 0.0
C351 C 0.4956 0.48287 0.19358 0.0
C352 C 0.51629 0.49863 0.19526 0.0
C353 C 0.54024 0.48896 0.19458 0.0
C354 C 0.39201 0.53286 0.16902 0.0
C355 C 0.36764 0.52778 0.16323 0.0
C356 C 0.35911 0.53527 0.14662 0.0
C357 C 0.37486 0.5481 0.13545 0.0
C358 C 0.39961 0.55224 0.14095 0.0
C359 C 0.40812 0.54474 0.15755 0.0
C360 C 0.39437 0.55025 0.19785 0.0
C361 C 0.40869 0.57193 0.19643 0.0
C362 C 0.40194 0.59379 0.20527 0.0
C363 C 0.38052 0.59459 0.21543 0.0
C364 C 0.36645 0.57289 0.21706 0.0
C365 C 0.37339 0.55092 0.20837 0.0
C366 C 0.4233 0.51659 0.1895 0.0
C367 C 0.42969 0.49633 0.17842 0.0
C368 C 0.45291 0.48509 0.17995 0.0
C369 C 0.47024 0.49342 0.19289 0.0
C370 C 0.46346 0.51243 0.20477 0.0
C371 C 0.44016 0.52356 0.20335 0.0
H372 H 0.38324 0.98314 0.42752 0.0
N373 N 0.43003 0.9891 0.43844 0.0
H374 H 0.36766 0.9576 0.40247 0.0
H375 H 0.45825 0.96671 0.41279 0.0
H376 H 0.44295 0.94203 0.38761 0.0
H377 H 0.45398 0.94463 0.44208 0.0
H378 H 0.44146 0.91262 0.46236 0.0
H379 H 0.40621 0.9971 0.46826 0.0
H380 H 0.39452 0.9653 0.48908 0.0
H381 H 0.42351 0.03738 0.43594 0.0
H382 H 0.48026 0.98146 0.43841 0.0
H383 H 0.45476 0.06889 0.43091 0.0
H384 H 0.51154 0.01227 0.4319 0.0
H385 H 0.55726 0.15574 0.39084 0.0
H386 H 0.57761 0.15743 0.36237 0.0
H387 H 0.59735 0.08017 0.36629 0.0
H388 H 0.57682 0.07865 0.39479 0.0
H389 H 0.60112 0.09593 0.41963 0.0
H390 H 0.63282 0.1102 0.44086 0.0
H391 H 0.58564 0.17089 0.4569 0.0
H392 H 0.55369 0.15642 0.43533 0.0
H393 H 0.50947 0.11451 0.40182 0.0
H394 H 0.47936 0.08274 0.40871 0.0
H395 H 0.53491 0.04627 0.44102 0.0
N396 N 0.55639 0.11811 0.41265 0.0
H397 H 0.56513 0.07676 0.43299 0.0
C398 C 0.42182 0.97709 0.42207 0.0
C399 C 0.39631 0.97458 0.41863 0.0
C400 C 0.38749 0.96001 0.40431 0.0
C401 C 0.4041 0.94766 0.39312 0.0
C402 C 0.42968 0.951 0.39615 0.0
C403 C 0.43848 0.96545 0.41051 0.0
C404 C 0.43049 0.97317 0.45344 0.0
C405 C 0.44179 0.94966 0.45271 0.0
C406 C 0.43478 0.93137 0.46436 0.0
C407 C 0.4171 0.93664 0.4772 0.0
C408 C 0.40844 0.96098 0.4794 0.0
C409 C 0.41504 0.97911 0.46752 0.0
C410 C 0.44947 0.00715 0.43728 0.0
C411 C 0.4428 0.03198 0.43536 0.0
C412 C 0.4607 0.04986 0.43222 0.0
C413 C 0.48575 0.04317 0.43055 0.0
C414 C 0.49253 0.01828 0.43316 0.0
C415 C 0.47459 0.00049 0.43673 0.0
C416 C 0.5656 0.11721 0.39492 0.0
C417 C 0.56555 0.13908 0.38535 0.0
C418 C 0.57713 0.13996 0.3691 0.0
C419 C 0.58916 0.11894 0.36213 0.0
C420 C 0.58843 0.09671 0.37143 0.0
C421 C 0.57663 0.09579 0.38766 0.0
C422 C 0.5749 0.12515 0.4259 0.0
C423 C 0.5974 0.1122 0.42773 0.0
C424 C 0.61549 0.12026 0.44 0.0
C425 C 0.61162 0.14158 0.45057 0.0
C426 C 0.58909 0.15444 0.44886 0.0
C427 C 0.57086 0.14618 0.43665 0.0
C428 C 0.53951 0.09847 0.41695 0.0
C429 C 0.51513 0.09953 0.41029 0.0
C430 C 0.49787 0.08146 0.41445 0.0
C431 C 0.50448 0.06201 0.42571 0.0
C432 C 0.52908 0.06075 0.43219 0.0
C433 C 0.54649 0.07855 0.4277 0.0
H434 H 0.12321 0.92609 0.68653 0.0
N435 N 0.12176 0.97283 0.70176 0.0
H436 H 0.13795 0.91502 0.6573 0.0
H437 H 0.14372 0.00234 0.67905 0.0
H438 H 0.1586 0.99117 0.64945 0.0
H439 H 0.16479 0.96884 0.71936 0.0
H440 H 0.17805 0.93516 0.73851 0.0
H441 H 0.0911 0.9375 0.71603 0.0
H442 H 0.10403 0.90477 0.73538 0.0
H443 H 0.08347 0.94908 0.68351 0.0
H444 H 0.10177 0.01359 0.71607 0.0
H445 H 0.04125 0.96354 0.67999 0.0
H446 H 0.05883 0.02827 0.71256 0.0
H447 H 0.9104 0.00848 0.66352 0.0
H448 H 0.89401 0.02386 0.6354 0.0
H449 H 0.94882 0.08248 0.63791 0.0
H450 H 0.96605 0.06578 0.66497 0.0
H451 H 0.96732 0.07298 0.6956 0.0
H452 H 0.94614 0.10763 0.70979 0.0
H453 H 0.88043 0.06267 0.71391 0.0
H454 H 0.90173 0.02796 0.69936 0.0
H455 H 0.97793 0.01034 0.65988 0.0
H456 H 0.02041 0.9978 0.66479 0.0
H457 H 0.01499 0.01561 0.72043 0.0
N458 N 0.94573 0.02907 0.68432 0.0
H459 H 0.9722 0.02852 0.71568 0.0
C460 C 0.13236 0.96522 0.68509 0.0
C461 C 0.13114 0.94047 0.67872 0.0
C462 C 0.13939 0.93415 0.6619 0.0
C463 C 0.14916 0.95229 0.65105 0.0
C464 C 0.15118 0.97682 0.65758 0.0
C465 C 0.14271 0.98321 0.67442 0.0
C466 C 0.12713 0.95582 0.71589 0.0
C467 C 0.15129 0.95523 0.72317 0.0
C468 C 0.1588 0.93605 0.73417 0.0
C469 C 0.14215 0.91712 0.73822 0.0
C470 C 0.1174 0.91886 0.73221 0.0
C471 C 0.10997 0.93783 0.72108 0.0
C472 C 0.09615 0.98052 0.69989 0.0
C473 C 0.07859 0.96652 0.6898 0.0
C474 C 0.05429 0.97478 0.68779 0.0
C475 C 0.04683 0.99717 0.69582 0.0
C476 C 0.0641 0.0109 0.70625 0.0
C477 C 0.08858 0.00263 0.70821 0.0
C478 C 0.9391 0.03615 0.6665 0.0
C479 C 0.91919 0.02423 0.65766 0.0
C480 C 0.90971 0.03326 0.64171 0.0
C481 C 0.91975 0.05474 0.63446 0.0
C482 C 0.94065 0.06579 0.64288 0.0
C483 C 0.95038 0.05647 0.6586 0.0
C484 C 0.93604 0.04773 0.69636 0.0
C485 C 0.94857 0.0703 0.6999 0.0
C486 C 0.93645 0.09013 0.70809 0.0
C487 C 0.91154 0.08793 0.71278 0.0
C488 C 0.89953 0.06497 0.71022 0.0
C489 C 0.91173 0.04507 0.70212 0.0
C490 C 0.97174 0.02247 0.68712 0.0
C491 C 0.98575 0.01248 0.67313 0.0
C492 C 0.01015 0.00484 0.67596 0.0
C493 C 0.02116 0.00616 0.69294 0.0
C494 C 0.00718 0.01511 0.7071 0.0
C495 C 0.98264 0.02265 0.7043 0.0
Zn496 Zn 0.29798 0.71935 0.98342 0.0
Zn497 Zn 0.31223 0.68884 0.00984 0.0
O498 O 0.27452 0.68501 0.00899 0.0
O499 O 0.26242 0.70927 0.98749 0.0
O500 O 0.32302 0.66707 0.02974 0.0
O501 O 0.31351 0.7484 0.99695 0.0
O502 O 0.32587 0.72289 0.01763 0.0
C503 C 0.25727 0.69412 0.99939 0.0
C504 C 0.33102 0.67976 0.97251 0.0
O505 O 0.32958 0.67351 0.98856 0.0
O506 O 0.31951 0.69868 0.96707 0.0
C507 C 0.31761 0.64414 0.02957 0.0
O508 O 0.30461 0.63465 0.01614 0.0
C509 C 0.32502 0.74461 0.01142 0.0
Zn510 Zn 0.29592 0.79317 0.28652 0.0
Zn511 Zn 0.32204 0.81657 0.26167 0.0
O512 O 0.28675 0.82918 0.25739 0.0
O513 O 0.26446 0.80726 0.27537 0.0
O514 O 0.34197 0.83321 0.24317 0.0
O515 O 0.30953 0.76026 0.27801 0.0
O516 O 0.32833 0.77949 0.2568 0.0
C517 C 0.26583 0.82338 0.26353 0.0
C518 C 0.3318 0.82856 0.30095 0.0
O519 O 0.33699 0.8307 0.28475 0.0
O520 O 0.31476 0.81389 0.3053 0.0
C521 C 0.3468 0.85627 0.24421 0.0
O522 O 0.33814 0.86958 0.25744 0.0
C523 C 0.32284 0.75952 0.26446 0.0
Zn524 Zn 0.23717 0.81018 0.48608 0.0
Zn525 Zn 0.21938 0.84118 0.51163 0.0
O526 O 0.25705 0.84497 0.51321 0.0
O527 O 0.27256 0.81746 0.49463 0.0
O528 O 0.20853 0.86131 0.53278 0.0
O529 O 0.21762 0.78145 0.49564 0.0
O530 O 0.20363 0.8074 0.5159 0.0
C531 C 0.2757 0.83462 0.50619 0.0
C532 C 0.2078 0.85289 0.47355 0.0
O533 O 0.20503 0.85794 0.48991 0.0
O534 O 0.22047 0.83416 0.4688 0.0
C535 C 0.20181 0.88387 0.53294 0.0
O536 O 0.20107 0.89603 0.51811 0.0
C537 C 0.20413 0.78576 0.50883 0.0
Zn538 Zn 0.22024 0.70913 0.73549 0.0
Zn539 Zn 0.19558 0.69588 0.76397 0.0
O540 O 0.19663 0.73387 0.76659 0.0
O541 O 0.22058 0.74446 0.74491 0.0
O542 O 0.17693 0.68476 0.78514 0.0
O543 O 0.24772 0.68537 0.7415 0.0
O544 O 0.22939 0.67839 0.76661 0.0
C545 C 0.20785 0.7505 0.75818 0.0
C546 C 0.1735 0.68659 0.72664 0.0
O547 O 0.17306 0.68354 0.74327 0.0
O548 O 0.19148 0.69778 0.71996 0.0
C549 C 0.15793 0.69632 0.79055 0.0
O550 O 0.15063 0.71637 0.78241 0.0
C551 C 0.24754 0.67511 0.75635 0.0
Zn552 Zn 0.80121 0.21165 0.54414 0.0
Zn553 Zn 0.82418 0.1924 0.51507 0.0
O554 O 0.83657 0.22813 0.51705 0.0
O555 O 0.81775 0.24464 0.53993 0.0
O556 O 0.84244 0.17916 0.49407 0.0
O557 O 0.76836 0.20293 0.53172 0.0
O558 O 0.78765 0.18863 0.50827 0.0
C559 C 0.83253 0.24664 0.52729 0.0
C560 C 0.83308 0.1699 0.55142 0.0
O561 O 0.83599 0.16988 0.53479 0.0
O562 O 0.81959 0.18613 0.5588 0.0
C563 C 0.86586 0.18168 0.49448 0.0
O564 O 0.87663 0.19225 0.50849 0.0
C565 C 0.76763 0.19339 0.51624 0.0
Zn566 Zn 0.80525 0.28269 0.77129 0.0
Zn567 Zn 0.82886 0.30513 0.74527 0.0
O568 O 0.79317 0.31871 0.74352 0.0
O569 O 0.77308 0.29798 0.76332 0.0
O570 O 0.84595 0.32179 0.72535 0.0
O571 O 0.81605 0.24935 0.76186 0.0
O572 O 0.83437 0.26792 0.74014 0.0
C573 C 0.77314 0.31397 0.75136 0.0
C574 C 0.84459 0.31545 0.78375 0.0
O575 O 0.84802 0.31803 0.76731 0.0
O576 O 0.82719 0.30183 0.78889 0.0
C577 C 0.84811 0.34526 0.72552 0.0
O578 O 0.83892 0.35823 0.73873 0.0
C579 C 0.82867 0.24814 0.74799 0.0
Zn580 Zn 0.72072 0.30574 0.03897 0.0
Zn581 Zn 0.69857 0.32421 0.00953 0.0
O582 O 0.68701 0.28774 0.00856 0.0
O583 O 0.70502 0.27265 0.03246 0.0
O584 O 0.68454 0.33853 0.98713 0.0
O585 O 0.7546 0.31576 0.03016 0.0
O586 O 0.7356 0.33019 0.00653 0.0
C587 C 0.69107 0.26977 0.01885 0.0
C588 C 0.68581 0.34515 0.04615 0.0
O589 O 0.68336 0.34556 0.02937 0.0
O590 O 0.70038 0.32985 0.05343 0.0
C591 C 0.66214 0.34516 0.98477 0.0
O592 O 0.64634 0.34217 0.99748 0.0
C593 C 0.7555 0.32634 0.01542 0.0
Zn594 Zn 0.74555 0.21782 0.2117 0.0
Zn595 Zn 0.72211 0.19608 0.2389 0.0
O596 O 0.70762 0.23132 0.23846 0.0
O597 O 0.72627 0.2492 0.21656 0.0
O598 O 0.70405 0.18117 0.25919 0.0
O599 O 0.77825 0.21083 0.22434 0.0
O600 O 0.75879 0.19366 0.24618 0.0
C601 C 0.71082 0.25008 0.22888 0.0
C602 C 0.71684 0.17497 0.20085 0.0
O603 O 0.7124 0.17412 0.21728 0.0
O604 O 0.73029 0.19202 0.19503 0.0
C605 C 0.69511 0.15935 0.25908 0.0
O606 O 0.69812 0.14468 0.2452 0.0
C607 C 0.77888 0.20008 0.23905 0.0
C608 C 0.16595 0.90792 0.29501 0.0
C609 C 0.15171 0.92305 0.284 0.0
C610 C 0.18197 0.89014 0.28796 0.0
C611 C 0.18317 0.88685 0.26936 0.0
C612 C 0.16749 0.90093 0.25816 0.0
C613 C 0.15232 0.9194 0.26563 0.0
C614 C 0.19876 0.87604 0.30045 0.0
C615 C 0.16738 0.89733 0.23833 0.0
C616 C 0.24676 0.86422 0.2576 0.0
C617 C 0.24384 0.83866 0.25955 0.0
C618 C 0.2265 0.88029 0.25915 0.0
C619 C 0.20269 0.87037 0.26207 0.0
C620 C 0.1992 0.84437 0.26162 0.0
C621 C 0.21996 0.82876 0.26079 0.0
C622 C 0.23113 0.90789 0.25971 0.0
C623 C 0.17387 0.83311 0.26358 0.0
H624 H 0.16566 0.9111 0.30922 0.0
H625 H 0.14131 0.93126 0.25715 0.0
H626 H 0.1958 0.85582 0.29854 0.0
H627 H 0.21843 0.87994 0.2976 0.0
H628 H 0.19557 0.88101 0.31454 0.0
H629 H 0.14943 0.9032 0.23227 0.0
H630 H 0.18219 0.90883 0.23278 0.0
H631 H 0.17087 0.87771 0.23445 0.0
H632 H 0.26523 0.87192 0.25663 0.0
H633 H 0.21764 0.80893 0.26202 0.0
H634 H 0.22863 0.91523 0.27338 0.0
H635 H 0.21762 0.91746 0.25099 0.0
H636 H 0.25015 0.9126 0.25561 0.0
H637 H 0.16885 0.83379 0.2777 0.0
H638 H 0.17338 0.81344 0.25889 0.0
H639 H 0.15965 0.84369 0.25608 0.0
C640 C 0.09744 0.6884 0.52774 0.0
C641 C 0.10115 0.67647 0.54386 0.0
C642 C 0.1149 0.70533 0.52171 0.0
C643 C 0.13675 0.71023 0.53193 0.0
C644 C 0.14099 0.6977 0.54793 0.0
C645 C 0.12308 0.68116 0.55376 0.0
C646 C 0.10966 0.71845 0.50462 0.0
C647 C 0.16415 0.70229 0.55914 0.0
C648 C 0.19047 0.74137 0.50961 0.0
C649 C 0.18777 0.76611 0.51538 0.0
C650 C 0.17421 0.72289 0.51506 0.0
C651 C 0.15459 0.72937 0.52635 0.0
C652 C 0.15189 0.75425 0.53232 0.0
C653 C 0.16859 0.77227 0.52687 0.0
C654 C 0.17791 0.69647 0.50867 0.0
C655 C 0.13107 0.76194 0.54426 0.0
H656 H 0.08076 0.68465 0.51986 0.0
H657 H 0.12599 0.67246 0.56639 0.0
H658 H 0.10829 0.7387 0.50728 0.0
H659 H 0.12512 0.71545 0.49543 0.0
H660 H 0.09217 0.71201 0.49795 0.0
H661 H 0.16554 0.68969 0.57051 0.0
H662 H 0.18085 0.69979 0.55103 0.0
H663 H 0.16431 0.72169 0.56431 0.0
H664 H 0.20528 0.73644 0.50077 0.0
H665 H 0.16625 0.79134 0.53132 0.0
H666 H 0.16137 0.69004 0.50086 0.0
H667 H 0.18001 0.68413 0.52013 0.0
H668 H 0.19447 0.69436 0.50033 0.0
H669 H 0.11295 0.75751 0.53769 0.0
H670 H 0.13154 0.78206 0.54771 0.0
H671 H 0.13214 0.75141 0.55666 0.0
C672 C 0.36565 0.59738 0.79069 0.0
C673 C 0.38644 0.61268 0.78874 0.0
C674 C 0.3421 0.60452 0.78439 0.0
C675 C 0.33912 0.62781 0.77645 0.0
C676 C 0.36008 0.6429 0.77383 0.0
C677 C 0.38351 0.63493 0.77969 0.0
C678 C 0.32029 0.58755 0.78686 0.0
C679 C 0.35765 0.66803 0.76559 0.0
C680 C 0.28239 0.64655 0.74949 0.0
C681 C 0.26921 0.66046 0.76199 0.0
C682 C 0.30448 0.63448 0.75427 0.0
C683 C 0.314 0.63723 0.77179 0.0
C684 C 0.30037 0.65072 0.78458 0.0
C685 C 0.27787 0.66184 0.77957 0.0
C686 C 0.31799 0.61948 0.74044 0.0
C687 C 0.31021 0.65455 0.8033 0.0
H688 H 0.3675 0.58027 0.79778 0.0
H689 H 0.39948 0.64658 0.77762 0.0
H690 H 0.30818 0.59551 0.79717 0.0
H691 H 0.30899 0.58576 0.77444 0.0
H692 H 0.32618 0.56877 0.79094 0.0
H693 H 0.37584 0.67737 0.76432 0.0
H694 H 0.34871 0.66621 0.75227 0.0
H695 H 0.3456 0.6801 0.77378 0.0
H696 H 0.27551 0.6453 0.73591 0.0
H697 H 0.26773 0.67275 0.78919 0.0
H698 H 0.32341 0.60117 0.74567 0.0
H699 H 0.33524 0.6292 0.73699 0.0
H700 H 0.30655 0.61649 0.72816 0.0
H701 H 0.31437 0.63646 0.80933 0.0
H702 H 0.29694 0.66477 0.81178 0.0
H703 H 0.32782 0.66516 0.80322 0.0
C704 C 0.42673 0.84206 0.04384 0.0
C705 C 0.41964 0.85764 0.05791 0.0
C706 C 0.41022 0.82453 0.03627 0.0
C707 C 0.38604 0.82258 0.04294 0.0
C708 C 0.37856 0.83865 0.05686 0.0
C709 C 0.39548 0.85598 0.0642 0.0
C710 C 0.41881 0.80776 0.02138 0.0
C711 C 0.35292 0.8371 0.06429 0.0
C712 C 0.33834 0.78903 0.01353 0.0
C713 C 0.33892 0.76513 0.02044 0.0
C714 C 0.35313 0.80811 0.021 0.0
C715 C 0.36889 0.80315 0.03569 0.0
C716 C 0.36902 0.77931 0.04307 0.0
C717 C 0.354 0.76058 0.03537 0.0
C718 C 0.3524 0.83339 0.01286 0.0
C719 C 0.38558 0.77336 0.05878 0.0
H720 H 0.44529 0.84348 0.0388 0.0
H721 H 0.39 0.86773 0.07524 0.0
H722 H 0.41827 0.78818 0.02549 0.0
H723 H 0.40615 0.80936 0.0097 0.0
H724 H 0.43794 0.81216 0.01738 0.0
H725 H 0.34959 0.85181 0.07448 0.0
H726 H 0.33869 0.8387 0.05355 0.0
H727 H 0.35033 0.81879 0.07034 0.0
H728 H 0.32669 0.79275 0.00203 0.0
H729 H 0.35456 0.7422 0.04082 0.0
H730 H 0.37074 0.83769 0.00738 0.0
H731 H 0.34853 0.84783 0.0231 0.0
H732 H 0.33812 0.83459 0.00209 0.0
H733 H 0.40528 0.77535 0.05521 0.0
H734 H 0.38265 0.75424 0.06343 0.0
H735 H 0.38219 0.78661 0.06989 0.0
C736 C 0.11538 0.64733 0.00076 0.0
C737 C 0.11461 0.62801 0.98802 0.0
C738 C 0.138 0.65841 0.00611 0.0
C739 C 0.16021 0.6501 0.99837 0.0
C740 C 0.15965 0.62963 0.98632 0.0
C741 C 0.1369 0.61885 0.98132 0.0
C742 C 0.13794 0.67988 0.01925 0.0
C743 C 0.18289 0.62023 0.97768 0.0
C744 C 0.21287 0.69371 0.98931 0.0
C745 C 0.23139 0.68552 0.00111 0.0
C746 C 0.18909 0.68332 0.98904 0.0
C747 C 0.18359 0.66439 0.00097 0.0
C748 C 0.20162 0.65722 0.01373 0.0
C749 C 0.2254 0.66781 0.0136 0.0
C750 C 0.17037 0.69148 0.97519 0.0
C751 C 0.19629 0.6374 0.02684 0.0
H752 H 0.09822 0.65432 0.00612 0.0
H753 H 0.13649 0.60421 0.97126 0.0
H754 H 0.15325 0.67805 0.02919 0.0
H755 H 0.14096 0.6974 0.01224 0.0
H756 H 0.12011 0.68133 0.02622 0.0
H757 H 0.17961 0.60284 0.96982 0.0
H758 H 0.18994 0.63449 0.96874 0.0
H759 H 0.19762 0.61679 0.98779 0.0
H760 H 0.21722 0.70755 0.97971 0.0
H761 H 0.23951 0.66153 0.0229 0.0
H762 H 0.15249 0.69614 0.98136 0.0
H763 H 0.16682 0.67606 0.96549 0.0
H764 H 0.17681 0.70783 0.96794 0.0
H765 H 0.17789 0.64039 0.03274 0.0
H766 H 0.2106 0.63687 0.03763 0.0
H767 H 0.19583 0.61903 0.01993 0.0
C768 C 0.34763 0.62607 0.22122 0.0
C769 C 0.37226 0.61835 0.22352 0.0
C770 C 0.33975 0.64909 0.22798 0.0
C771 C 0.35688 0.66461 0.23741 0.0
C772 C 0.3817 0.65674 0.24 0.0
C773 C 0.38914 0.63374 0.23292 0.0
C774 C 0.3132 0.65696 0.22479 0.0
C775 C 0.40038 0.67265 0.2502 0.0
C776 C 0.34251 0.7334 0.24088 0.0
C777 C 0.332 0.73537 0.25762 0.0
C778 C 0.35079 0.71048 0.23416 0.0
C779 C 0.34878 0.68911 0.24452 0.0
C780 C 0.33855 0.69105 0.26153 0.0
C781 C 0.33016 0.71412 0.26783 0.0
C782 C 0.36139 0.70906 0.21588 0.0
C783 C 0.33637 0.66871 0.27304 0.0
H784 H 0.33465 0.61435 0.21373 0.0
H785 H 0.40815 0.62769 0.2348 0.0
H786 H 0.30416 0.66065 0.23759 0.0
H787 H 0.31267 0.67446 0.2174 0.0
H788 H 0.30223 0.64271 0.2172 0.0
H789 H 0.41882 0.66361 0.25134 0.0
H790 H 0.40261 0.69061 0.2436 0.0
H791 H 0.39368 0.67682 0.26369 0.0
H792 H 0.34396 0.74972 0.2329 0.0
H793 H 0.32222 0.71551 0.28084 0.0
H794 H 0.35015 0.69619 0.2073 0.0
H795 H 0.38051 0.70155 0.21654 0.0
H796 H 0.36186 0.72743 0.20958 0.0
H797 H 0.32416 0.65463 0.26639 0.0
H798 H 0.32872 0.6735 0.28618 0.0
H799 H 0.35483 0.66004 0.27504 0.0
C800 C 0.40325 0.91123 0.50251 0.0
C801 C 0.40257 0.91633 0.48447 0.0
C802 C 0.38625 0.89449 0.50947 0.0
C803 C 0.36757 0.88378 0.49819 0.0
C804 C 0.36754 0.88837 0.47983 0.0
C805 C 0.38531 0.90428 0.47319 0.0
C806 C 0.38765 0.88928 0.52896 0.0
C807 C 0.34767 0.87796 0.46732 0.0
C808 C 0.32204 0.83217 0.50544 0.0
C809 C 0.30053 0.84582 0.50893 0.0
C810 C 0.34503 0.84411 0.50409 0.0
C811 C 0.34619 0.87029 0.50544 0.0
C812 C 0.32492 0.88387 0.51042 0.0
C813 C 0.30245 0.87138 0.51243 0.0
C814 C 0.36766 0.82889 0.4999 0.0
C815 C 0.32516 0.91184 0.51177 0.0
H816 H 0.41662 0.92073 0.51119 0.0
H817 H 0.38473 0.90859 0.45926 0.0
H818 H 0.37539 0.90233 0.53615 0.0
H819 H 0.38153 0.87013 0.53162 0.0
H820 H 0.4068 0.89194 0.5344 0.0
H821 H 0.35049 0.88324 0.45342 0.0
H822 H 0.34732 0.85746 0.46783 0.0
H823 H 0.32922 0.8848 0.47139 0.0
H824 H 0.32071 0.81233 0.50302 0.0
H825 H 0.2859 0.88203 0.51517 0.0
H826 H 0.38427 0.83643 0.50711 0.0
H827 H 0.3712 0.82959 0.48554 0.0
H828 H 0.36519 0.80917 0.50337 0.0
H829 H 0.34074 0.91841 0.52046 0.0
H830 H 0.30763 0.91946 0.51703 0.0
H831 H 0.32792 0.91949 0.49847 0.0
C832 C 0.1685 0.89452 0.76056 0.0
C833 C 0.15124 0.89399 0.74637 0.0
C834 C 0.17911 0.87249 0.76681 0.0
C835 C 0.17258 0.84959 0.75843 0.0
C836 C 0.15444 0.84894 0.74458 0.0
C837 C 0.14402 0.8711 0.73877 0.0
C838 C 0.19802 0.87387 0.78181 0.0
C839 C 0.14701 0.82495 0.73517 0.0
C840 C 0.21517 0.79512 0.7523 0.0
C841 C 0.20321 0.7771 0.76207 0.0
C842 C 0.20684 0.81969 0.75237 0.0
C843 C 0.18617 0.82643 0.76257 0.0
C844 C 0.17587 0.80904 0.77402 0.0
C845 C 0.18446 0.78447 0.7736 0.0
C846 C 0.21853 0.83768 0.74006 0.0
C847 C 0.15427 0.81573 0.78547 0.0
H848 H 0.17402 0.91217 0.76656 0.0
H849 H 0.13104 0.87054 0.7276 0.0
H850 H 0.19518 0.85871 0.79119 0.0
H851 H 0.21686 0.87167 0.77646 0.0
H852 H 0.19727 0.89192 0.78916 0.0
H853 H 0.1317 0.82753 0.7253 0.0
H854 H 0.16317 0.81702 0.72823 0.0
H855 H 0.14102 0.81119 0.74484 0.0
H856 H 0.23001 0.78972 0.74362 0.0
H857 H 0.17534 0.77076 0.78141 0.0
H858 H 0.22177 0.85588 0.74683 0.0
H859 H 0.20574 0.84075 0.72861 0.0
H860 H 0.23642 0.83071 0.73498 0.0
H861 H 0.15664 0.83456 0.79147 0.0
H862 H 0.15195 0.80226 0.79618 0.0
H863 H 0.137 0.81577 0.77721 0.0
C864 C 0.6605 0.41067 0.75936 0.0
C865 C 0.66976 0.42482 0.77384 0.0
C866 C 0.67542 0.39286 0.75091 0.0
C867 C 0.6998 0.38869 0.75752 0.0
C868 C 0.70953 0.40381 0.77161 0.0
C869 C 0.69446 0.4218 0.77947 0.0
C870 C 0.66463 0.37774 0.73556 0.0
C871 C 0.73533 0.39985 0.77926 0.0
C872 C 0.7302 0.32612 0.75922 0.0
C873 C 0.75099 0.32984 0.74883 0.0
C874 C 0.71194 0.34438 0.76088 0.0
C875 C 0.71427 0.36671 0.75164 0.0
C876 C 0.73348 0.36923 0.73941 0.0
C877 C 0.75182 0.35082 0.73825 0.0
C878 C 0.69169 0.34081 0.77401 0.0
C879 C 0.7359 0.39229 0.72872 0.0
H880 H 0.64143 0.41313 0.75492 0.0
H881 H 0.70158 0.4325 0.7908 0.0
H882 H 0.67883 0.37363 0.72555 0.0
H883 H 0.65775 0.35983 0.74039 0.0
H884 H 0.64882 0.38744 0.72909 0.0
H885 H 0.74046 0.41397 0.78963 0.0
H886 H 0.73652 0.38125 0.78517 0.0
H887 H 0.74917 0.40048 0.7687 0.0
H888 H 0.72909 0.30975 0.76718 0.0
H889 H 0.76757 0.35368 0.72992 0.0
H890 H 0.67339 0.34567 0.76812 0.0
H891 H 0.69506 0.35334 0.78568 0.0
H892 H 0.69088 0.32146 0.77864 0.0
H893 H 0.71746 0.3988 0.72398 0.0
H894 H 0.7479 0.38911 0.71716 0.0
H895 H 0.7443 0.40731 0.73715 0.0
C896 C 0.61161 0.14424 0.00981 0.0
C897 C 0.62773 0.12473 0.01419 0.0
C898 C 0.62059 0.16836 0.00744 0.0
C899 C 0.64639 0.17295 0.00881 0.0
C900 C 0.66289 0.15292 0.01121 0.0
C901 C 0.65342 0.12925 0.01419 0.0
C902 C 0.60231 0.18924 0.00504 0.0
C903 C 0.69061 0.15683 0.0122 0.0
C904 C 0.67393 0.23598 0.99866 0.0
C905 C 0.67841 0.24574 0.01577 0.0
C906 C 0.66309 0.2124 0.99602 0.0
C907 C 0.65596 0.19877 0.01085 0.0
C908 C 0.65951 0.20915 0.02809 0.0
C909 C 0.67101 0.23229 0.03034 0.0
C910 C 0.66025 0.20167 0.97749 0.0
C911 C 0.65163 0.19558 0.04427 0.0
H912 H 0.5918 0.14105 0.00907 0.0
H913 H 0.66638 0.11478 0.01769 0.0
H914 H 0.60114 0.20009 0.01763 0.0
H915 H 0.60847 0.20206 0.99479 0.0
H916 H 0.58347 0.1823 0.0013 0.0
H917 H 0.70089 0.13909 0.01076 0.0
H918 H 0.69653 0.16948 0.00177 0.0
H919 H 0.69591 0.16552 0.02518 0.0
H920 H 0.67971 0.24638 0.98739 0.0
H921 H 0.67413 0.23998 0.04358 0.0
H922 H 0.64127 0.19426 0.97509 0.0
H923 H 0.67329 0.18594 0.97582 0.0
H924 H 0.66414 0.21557 0.96733 0.0
H925 H 0.63202 0.1896 0.04271 0.0
H926 H 0.65365 0.20718 0.05655 0.0
H927 H 0.66306 0.17867 0.04587 0.0
C928 C 0.9093 0.18392 0.29018 0.0
C929 C 0.91772 0.15943 0.28847 0.0
C930 C 0.88719 0.19141 0.2818 0.0
C931 C 0.87328 0.17401 0.27137 0.0
C932 C 0.88208 0.14945 0.26916 0.0
C933 C 0.90417 0.14242 0.2778 0.0
C934 C 0.87831 0.21772 0.28455 0.0
C935 C 0.86789 0.13046 0.25796 0.0
C936 C 0.80421 0.18442 0.2646 0.0
C937 C 0.80308 0.19419 0.24759 0.0
C938 C 0.82699 0.17801 0.27256 0.0
C939 C 0.84912 0.18127 0.26324 0.0
C940 C 0.84815 0.19126 0.24613 0.0
C941 C 0.82515 0.19769 0.23853 0.0
C942 C 0.82735 0.16759 0.29091 0.0
C943 C 0.87137 0.19485 0.23575 0.0
H944 H 0.91956 0.19703 0.29862 0.0
H945 H 0.91076 0.12353 0.27636 0.0
H946 H 0.87494 0.22652 0.27162 0.0
H947 H 0.86044 0.21771 0.29148 0.0
H948 H 0.89181 0.22923 0.29245 0.0
H949 H 0.87786 0.1125 0.25691 0.0
H950 H 0.84954 0.12713 0.26375 0.0
H951 H 0.86449 0.13749 0.24446 0.0
H952 H 0.78727 0.18171 0.27171 0.0
H953 H 0.82446 0.20514 0.22536 0.0
H954 H 0.83939 0.17914 0.2999 0.0
H955 H 0.83528 0.14863 0.29058 0.0
H956 H 0.80856 0.16674 0.29653 0.0
H957 H 0.88451 0.20713 0.24331 0.0
H958 H 0.86745 0.20304 0.22265 0.0
H959 H 0.88079 0.17678 0.23368 0.0
C960 C 0.93132 0.3517 0.5375 0.0
C961 C 0.92372 0.37532 0.53227 0.0
C962 C 0.91682 0.33075 0.5334 0.0
C963 C 0.89422 0.33347 0.52377 0.0
C964 C 0.88754 0.35688 0.5171 0.0
C965 C 0.90233 0.37762 0.52152 0.0
C966 C 0.92462 0.30611 0.54078 0.0
C967 C 0.86387 0.36038 0.50642 0.0
C968 C 0.86213 0.27291 0.51087 0.0
C969 C 0.84627 0.27007 0.52512 0.0
C970 C 0.87698 0.29413 0.50966 0.0
C971 C 0.87614 0.31272 0.52313 0.0
C972 C 0.85941 0.31042 0.53713 0.0
C973 C 0.8446 0.28919 0.53789 0.0
C974 C 0.89429 0.29616 0.4944 0.0
C975 C 0.85801 0.32983 0.5518 0.0
H976 H 0.94766 0.34979 0.54596 0.0
H977 H 0.89657 0.39581 0.51726 0.0
H978 H 0.91213 0.30121 0.5516 0.0
H979 H 0.92305 0.29123 0.53046 0.0
H980 H 0.94396 0.30651 0.54615 0.0
H981 H 0.86367 0.37832 0.49953 0.0
H982 H 0.86123 0.3451 0.49649 0.0
H983 H 0.84788 0.36004 0.51535 0.0
H984 H 0.86338 0.2583 0.50085 0.0
H985 H 0.83234 0.28723 0.5489 0.0
H986 H 0.91367 0.29349 0.4992 0.0
H987 H 0.89312 0.31487 0.48869 0.0
H988 H 0.89016 0.28207 0.48379 0.0
H989 H 0.87596 0.33072 0.55927 0.0
H990 H 0.84312 0.32587 0.56121 0.0
H991 H 0.85463 0.34836 0.54622 0.0
C992 C 0.64496 0.13431 0.47331 0.0
C993 C 0.63171 0.15083 0.46266 0.0
C994 C 0.66589 0.14217 0.48324 0.0
C995 C 0.67377 0.16711 0.48238 0.0
C996 C 0.65983 0.18413 0.47226 0.0
C997 C 0.63888 0.17578 0.46253 0.0
C998 C 0.68016 0.12353 0.49403 0.0
C999 C 0.66772 0.21086 0.47102 0.0
C1000 C 0.72133 0.19043 0.51663 0.0
C1001 C 0.74348 0.18744 0.50747 0.0
C1002 C 0.69841 0.18418 0.50858 0.0
C1003 C 0.69765 0.17482 0.49096 0.0
C1004 C 0.71987 0.17212 0.48156 0.0
C1005 C 0.74251 0.17841 0.48994 0.0
C1006 C 0.67506 0.18723 0.519 0.0
C1007 C 0.71976 0.16228 0.46269 0.0
H1008 H 0.63922 0.11508 0.4736 0.0
H1009 H 0.62877 0.18854 0.45418 0.0
H1010 H 0.69865 0.12045 0.48828 0.0
H1011 H 0.68323 0.1307 0.50777 0.0
H1012 H 0.67044 0.10542 0.49444 0.0
H1013 H 0.65367 0.22219 0.46391 0.0
H1014 H 0.67107 0.21917 0.48441 0.0
H1015 H 0.68541 0.21183 0.46391 0.0
H1016 H 0.7219 0.1974 0.53019 0.0
H1017 H 0.7595 0.17613 0.48273 0.0
H1018 H 0.66604 0.16894 0.52041 0.0
H1019 H 0.66169 0.1992 0.51183 0.0
H1020 H 0.67875 0.19548 0.5324 0.0
H1021 H 0.71221 0.14315 0.46206 0.0
H1022 H 0.73859 0.16199 0.45708 0.0
H1023 H 0.70754 0.17382 0.45425 0.0
C1024 C 0.9083 0.12704 0.73108 0.0
C1025 C 0.89762 0.11013 0.71878 0.0
C1026 C 0.89611 0.14911 0.7357 0.0
C1027 C 0.87274 0.15441 0.72777 0.0
C1028 C 0.86166 0.13722 0.71558 0.0
C1029 C 0.87423 0.11526 0.71124 0.0
C1030 C 0.90841 0.16694 0.74887 0.0
C1031 C 0.83679 0.14228 0.70681 0.0
C1032 C 0.83306 0.20233 0.75111 0.0
C1033 C 0.83826 0.22382 0.74178 0.0
C1034 C 0.84378 0.17951 0.74647 0.0
C1035 C 0.86004 0.17811 0.73212 0.0
C1036 C 0.86478 0.19951 0.72228 0.0
C1037 C 0.85384 0.22214 0.72723 0.0
C1038 C 0.83824 0.15706 0.75724 0.0
C1039 C 0.88192 0.19863 0.7068 0.0
H1040 H 0.9263 0.12304 0.73701 0.0
H1041 H 0.86608 0.10245 0.70149 0.0
H1042 H 0.91178 0.18492 0.74255 0.0
H1043 H 0.89601 0.17062 0.76012 0.0
H1044 H 0.92635 0.15979 0.75413 0.0
H1045 H 0.83037 0.12664 0.69805 0.0
H1046 H 0.82267 0.14582 0.71697 0.0
H1047 H 0.83795 0.15919 0.69882 0.0
H1048 H 0.821 0.2034 0.76234 0.0
H1049 H 0.85794 0.23861 0.71993 0.0
H1050 H 0.85552 0.15047 0.76383 0.0
H1051 H 0.8312 0.14171 0.74849 0.0
H1052 H 0.82435 0.16103 0.76752 0.0
H1053 H 0.9009 0.1937 0.71143 0.0
H1054 H 0.88273 0.21662 0.70001 0.0
H1055 H 0.87576 0.18407 0.69707 0.0
C1056 C 0.87521 0.40097 0.98739 0.0
C1057 C 0.89038 0.38712 0.97608 0.0
C1058 C 0.85414 0.39036 0.99468 0.0
C1059 C 0.84809 0.36533 0.99054 0.0
C1060 C 0.86375 0.35104 0.97957 0.0
C1061 C 0.88469 0.36211 0.97246 0.0
C1062 C 0.83795 0.40617 0.0064 0.0
C1063 C 0.8579 0.32431 0.9748 0.0
C1064 C 0.80145 0.33286 0.01894 0.0
C1065 C 0.77949 0.33526 0.0088 0.0
C1066 C 0.82399 0.34238 0.01312 0.0
C1067 C 0.82457 0.35456 0.99678 0.0
C1068 C 0.80257 0.35671 0.98637 0.0
C1069 C 0.78033 0.34706 0.9925 0.0
C1070 C 0.84711 0.33969 0.02455 0.0
C1071 C 0.80244 0.3695 0.96883 0.0
H1072 H 0.87967 0.42021 0.9904 0.0
H1073 H 0.89612 0.35138 0.96353 0.0
H1074 H 0.81944 0.40844 -5e-05 0.0
H1075 H 0.83512 0.39694 0.01914 0.0
H1076 H 0.846 0.42484 0.00919 0.0
H1077 H 0.87286 0.31527 0.96717 0.0
H1078 H 0.85497 0.31366 0.98693 0.0
H1079 H 0.84044 0.32327 0.96676 0.0
H1080 H 0.80101 0.3238 0.03155 0.0
H1081 H 0.7635 0.349 0.98454 0.0
H1082 H 0.8545 0.35827 0.02842 0.0
H1083 H 0.86168 0.32994 0.01699 0.0
H1084 H 0.84366 0.32927 0.03673 0.0
H1085 H 0.80842 0.38906 0.97082 0.0
H1086 H 0.78384 0.36926 0.9622 0.0
H1087 H 0.81582 0.3604 0.95988 0.0
C1088 C 0.63882 0.37899 0.23336 0.0
C1089 C 0.61399 0.37494 0.22807 0.0
C1090 C 0.6546 0.35908 0.23725 0.0
C1091 C 0.64553 0.33454 0.23534 0.0
C1092 C 0.62005 0.33043 0.2315 0.0
C1093 C 0.60452 0.35071 0.22821 0.0
C1094 C 0.68148 0.36428 0.24193 0.0
C1095 C 0.60961 0.30457 0.22918 0.0
C1096 C 0.69002 0.28715 0.21655 0.0
C1097 C 0.69517 0.27233 0.23113 0.0
C1098 C 0.67392 0.30739 0.21784 0.0
C1099 C 0.66321 0.31347 0.23428 0.0
C1100 C 0.66893 0.29907 0.24924 0.0
C1101 C 0.68457 0.27836 0.24741 0.0
C1102 C 0.66793 0.32192 0.20145 0.0
C1103 C 0.65848 0.30548 0.26709 0.0
H1104 H 0.6465 0.39753 0.23333 0.0
H1105 H 0.58518 0.34741 0.22475 0.0
H1106 H 0.68828 0.35186 0.25246 0.0
H1107 H 0.69286 0.36074 0.23013 0.0
H1108 H 0.68442 0.38383 0.24643 0.0
H1109 H 0.58903 0.30451 0.22855 0.0
H1110 H 0.61643 0.29609 0.21671 0.0
H1111 H 0.61595 0.29267 0.24014 0.0
H1112 H 0.69799 0.28242 0.20389 0.0
H1113 H 0.68863 0.267 0.25874 0.0
H1114 H 0.67357 0.34155 0.20356 0.0
H1115 H 0.64764 0.32169 0.1987 0.0
H1116 H 0.67738 0.31439 0.18961 0.0
H1117 H 0.66242 0.32517 0.27068 0.0
H1118 H 0.66626 0.29362 0.27766 0.0
H1119 H 0.63806 0.30323 0.26658 0.0
C1120 C 0.1748 0.95713 0.40391 0.0
C1121 C 0.15362 0.95133 0.39349 0.0
C1122 C 0.18283 0.94161 0.41752 0.0
C1123 C 0.16923 0.91988 0.42092 0.0
C1124 C 0.14742 0.91432 0.41085 0.0
C1125 C 0.13996 0.93001 0.3972 0.0
C1126 C 0.20624 0.94813 0.42795 0.0
C1127 C 0.13234 0.89139 0.41415 0.0
C1128 C 0.20365 0.86662 0.44227 0.0
C1129 C 0.19709 0.86948 0.46003 0.0
C1130 C 0.19466 0.88288 0.42943 0.0
C1131 C 0.17851 0.90234 0.43442 0.0
C1132 C 0.17146 0.90511 0.45225 0.0
C1133 C 0.18093 0.88872 0.46487 0.0
C1134 C 0.20274 0.87942 0.41056 0.0
C1135 C 0.15405 0.92547 0.45801 0.0
H1136 H 0.18525 0.97374 0.40132 0.0
H1137 H 0.12381 0.92512 0.38907 0.0
H1138 H 0.20247 0.94904 0.44229 0.0
H1139 H 0.22033 0.93345 0.42586 0.0
H1140 H 0.21418 0.96614 0.42409 0.0
H1141 H 0.11491 0.89066 0.40603 0.0
H1142 H 0.14341 0.87462 0.41102 0.0
H1143 H 0.1276 0.89067 0.42831 0.0
H1144 H 0.21619 0.8519 0.43841 0.0
H1145 H 0.1757 0.89103 0.47854 0.0
H1146 H 0.21244 0.89632 0.40632 0.0
H1147 H 0.18631 0.87671 0.40163 0.0
H1148 H 0.21531 0.8633 0.40884 0.0
H1149 H 0.16225 0.94381 0.45534 0.0
H1150 H 0.14994 0.92477 0.4723 0.0
H1151 H 0.13636 0.92406 0.45027 0.0
C1152 C 0.0587 0.65029 0.66176 0.0
C1153 C 0.06764 0.6336 0.6489 0.0
C1154 C 0.07355 0.65766 0.67645 0.0
C1155 C 0.09772 0.64782 0.67844 0.0
C1156 C 0.10611 0.62959 0.66627 0.0
C1157 C 0.09111 0.6229 0.65157 0.0
C1158 C 0.06398 0.67721 0.68915 0.0
C1159 C 0.13168 0.61842 0.66804 0.0
C1160 C 0.1496 0.68744 0.69816 0.0
C1161 C 0.15298 0.67745 0.71497 0.0
C1162 C 0.13097 0.67858 0.68648 0.0
C1163 C 0.11555 0.65895 0.69162 0.0
C1164 C 0.11844 0.64912 0.70872 0.0
C1165 C 0.13706 0.65864 0.72029 0.0
C1166 C 0.12824 0.68984 0.66844 0.0
C1167 C 0.1025 0.62799 0.71454 0.0
H1168 H 0.0404 0.65826 0.66004 0.0
H1169 H 0.09845 0.61026 0.64168 0.0
H1170 H 0.06774 0.67193 0.70303 0.0
H1171 H 0.07378 0.69494 0.68709 0.0
H1172 H 0.04377 0.68038 0.68725 0.0
H1173 H 0.13404 0.6021 0.65902 0.0
H1174 H 0.14577 0.6325 0.66487 0.0
H1175 H 0.13547 0.61266 0.68182 0.0
H1176 H 0.16162 0.70222 0.69406 0.0
H1177 H 0.13962 0.65088 0.73328 0.0
H1178 H 0.10879 0.69574 0.66598 0.0
H1179 H 0.13276 0.6758 0.65807 0.0
H1180 H 0.14056 0.70612 0.66699 0.0
H1181 H 0.0826 0.63222 0.71218 0.0
H1182 H 0.10557 0.62394 0.72875 0.0
H1183 H 0.10675 0.61104 0.70659 0.0
C1184 C 0.39753 0.60246 0.89641 0.0
C1185 C 0.4234 0.6053 0.89748 0.0
C1186 C 0.38243 0.61178 0.90981 0.0
C1187 C 0.39337 0.62473 0.92449 0.0
C1188 C 0.41948 0.62657 0.92614 0.0
C1189 C 0.43419 0.61662 0.91269 0.0
C1190 C 0.35465 0.60908 0.90772 0.0
C1191 C 0.43183 0.64037 0.94156 0.0
C1192 C 0.3546 0.67607 0.94466 0.0
C1193 C 0.34676 0.6654 0.96027 0.0
C1194 C 0.37002 0.66309 0.93306 0.0
C1195 C 0.37744 0.63864 0.937 0.0
C1196 C 0.36942 0.62762 0.95265 0.0
C1197 C 0.35433 0.64124 0.96421 0.0
C1198 C 0.37847 0.67561 0.91661 0.0
C1199 C 0.37658 0.60142 0.95708 0.0
H1200 H 0.38886 0.59407 0.88466 0.0
H1201 H 0.45416 0.61844 0.91384 0.0
H1202 H 0.34656 0.6029 0.92021 0.0
H1203 H 0.34633 0.62731 0.90464 0.0
H1204 H 0.3493 0.59565 0.89694 0.0
H1205 H 0.45228 0.63811 0.94176 0.0
H1206 H 0.42749 0.66041 0.94074 0.0
H1207 H 0.4246 0.6339 0.95424 0.0
H1208 H 0.34899 0.6948 0.94161 0.0
H1209 H 0.34822 0.63286 0.97623 0.0
H1210 H 0.37178 0.66504 0.90467 0.0
H1211 H 0.39901 0.67586 0.91637 0.0
H1212 H 0.37162 0.69496 0.91576 0.0
H1213 H 0.36991 0.58846 0.94639 0.0
H1214 H 0.36879 0.59556 0.96977 0.0
H1215 H 0.39704 0.59969 0.95795 0.0
C1216 C 0.41322 0.91761 0.16284 0.0
C1217 C 0.4391 0.91573 0.16445 0.0
C1218 C 0.39794 0.91027 0.17651 0.0
C1219 C 0.4088 0.90078 0.19216 0.0
C1220 C 0.43492 0.90008 0.19425 0.0
C1221 C 0.44976 0.90756 0.18037 0.0
C1222 C 0.37016 0.91135 0.17377 0.0
C1223 C 0.4472 0.89026 0.2108 0.0
C1224 C 0.36864 0.89309 0.23228 0.0
C1225 C 0.36247 0.86784 0.23086 0.0
C1226 C 0.38375 0.90412 0.21981 0.0
C1227 C 0.39287 0.88956 0.2056 0.0
C1228 C 0.38668 0.86409 0.20409 0.0
C1229 C 0.37158 0.85355 0.21672 0.0
C1230 C 0.38996 0.93133 0.22184 0.0
C1231 C 0.39602 0.84792 0.1891 0.0
H1232 H 0.4048 0.9236 0.15051 0.0
H1233 H 0.46976 0.90638 0.18178 0.0
H1234 H 0.36261 0.89225 0.17254 0.0
H1235 H 0.36144 0.92049 0.18534 0.0
H1236 H 0.36468 0.9215 0.16169 0.0
H1237 H 0.46759 0.89315 0.21107 0.0
H1238 H 0.4394 0.89939 0.22272 0.0
H1239 H 0.44347 0.87011 0.21162 0.0
H1240 H 0.36172 0.90427 0.24317 0.0
H1241 H 0.36694 0.83403 0.21551 0.0
H1242 H 0.38342 0.94128 0.20995 0.0
H1243 H 0.41035 0.93383 0.22293 0.0
H1244 H 0.38147 0.94006 0.23367 0.0
H1245 H 0.38968 0.85542 0.17624 0.0
H1246 H 0.38953 0.82845 0.18983 0.0
H1247 H 0.41658 0.84799 0.1893 0.0
C1248 C 0.10204 0.65335 0.8814 0.0
C1249 C 0.07986 0.64004 0.87901 0.0
C1250 C 0.11402 0.66343 0.86699 0.0
C1251 C 0.1037 0.65987 0.84974 0.0
C1252 C 0.08107 0.6468 0.84727 0.0
C1253 C 0.06931 0.63716 0.86198 0.0
C1254 C 0.13792 0.67756 0.87022 0.0
C1255 C 0.06963 0.64243 0.82906 0.0
C1256 C 0.12572 0.70173 0.81359 0.0
C1257 C 0.14392 0.68699 0.80561 0.0
C1258 C 0.11237 0.69312 0.82791 0.0
C1259 C 0.11714 0.66908 0.83427 0.0
C1260 C 0.13528 0.65402 0.82614 0.0
C1261 C 0.14855 0.66321 0.81199 0.0
C1262 C 0.09339 0.70983 0.83639 0.0
C1263 C 0.14074 0.6282 0.83244 0.0
H1264 H 0.11005 0.65588 0.8946 0.0
H1265 H 0.05223 0.62674 0.86011 0.0
H1266 H 0.15329 0.66776 0.86355 0.0
H1267 H 0.13644 0.69624 0.86447 0.0
H1268 H 0.14282 0.67973 0.88452 0.0
H1269 H 0.05156 0.63263 0.82944 0.0
H1270 H 0.06679 0.66033 0.82241 0.0
H1271 H 0.08241 0.63121 0.82085 0.0
H1272 H 0.12207 0.72015 0.80877 0.0
H1273 H 0.16247 0.65164 0.80583 0.0
H1274 H 0.09857 0.71337 0.8505 0.0
H1275 H 0.075 0.70064 0.836 0.0
H1276 H 0.09167 0.7279 0.82974 0.0
H1277 H 0.14761 0.62908 0.84637 0.0
H1278 H 0.1548 0.61855 0.82431 0.0
H1279 H 0.12351 0.61697 0.83203 0.0
C1280 C 0.37939 0.55839 0.10352 0.0
C1281 C 0.36512 0.55881 0.11876 0.0
C1282 C 0.37142 0.57065 0.08825 0.0
C1283 C 0.34861 0.58359 0.08824 0.0
C1284 C 0.33369 0.58331 0.10335 0.0
C1285 C 0.34215 0.57096 0.11843 0.0
C1286 C 0.38779 0.57047 0.07235 0.0
C1287 C 0.30925 0.59688 0.10384 0.0
C1288 C 0.34062 0.63848 0.05827 0.0
C1289 C 0.32582 0.62843 0.04438 0.0
C1290 C 0.34837 0.62399 0.0725 0.0
C1291 C 0.34109 0.59881 0.0729 0.0
C1292 C 0.3263 0.58847 0.05889 0.0
C1293 C 0.31885 0.6034 0.04477 0.0
C1294 C 0.36419 0.63568 0.08718 0.0
C1295 C 0.31815 0.56171 0.0589 0.0
H1296 H 0.39701 0.54876 0.10361 0.0
H1297 H 0.33116 0.57168 0.13023 0.0
H1298 H 0.3771 0.56428 0.06034 0.0
H1299 H 0.39446 0.58953 0.07004 0.0
H1300 H 0.40412 0.55816 0.07405 0.0
H1301 H 0.29902 0.5933 0.11609 0.0
H1302 H 0.31254 0.61712 0.10309 0.0
H1303 H 0.29736 0.59131 0.09226 0.0
H1304 H 0.34616 0.65777 0.05806 0.0
H1305 H 0.30743 0.59547 0.0341 0.0
H1306 H 0.38181 0.62528 0.08874 0.0
H1307 H 0.35446 0.63475 0.09989 0.0
H1308 H 0.36863 0.65538 0.08471 0.0
H1309 H 0.33455 0.5494 0.05988 0.0
H1310 H 0.30713 0.55633 0.04682 0.0
H1311 H 0.30677 0.55842 0.07063 0.0
C1312 C 0.37393 0.9362 0.36851 0.0
C1313 C 0.39482 0.93027 0.37895 0.0
C1314 C 0.36442 0.91939 0.35563 0.0
C1315 C 0.37613 0.89615 0.35311 0.0
C1316 C 0.3974 0.89018 0.36342 0.0
C1317 C 0.40645 0.90727 0.37626 0.0
C1318 C 0.34168 0.9264 0.34486 0.0
C1319 C 0.41038 0.86557 0.3611 0.0
C1320 C 0.33728 0.84412 0.33223 0.0
C1321 C 0.34448 0.84454 0.31455 0.0
C1322 C 0.34768 0.86061 0.34497 0.0
C1323 C 0.36577 0.87788 0.33992 0.0
C1324 C 0.37359 0.878 0.32221 0.0
C1325 C 0.36283 0.86135 0.30973 0.0
C1326 C 0.3389 0.85994 0.36375 0.0
C1327 C 0.39296 0.89605 0.31637 0.0
H1328 H 0.36504 0.95403 0.3704 0.0
H1329 H 0.42234 0.90238 0.38447 0.0
H1330 H 0.34577 0.92548 0.33056 0.0
H1331 H 0.32652 0.91302 0.34705 0.0
H1332 H 0.33499 0.94534 0.34827 0.0
H1333 H 0.42724 0.86416 0.36975 0.0
H1334 H 0.39758 0.85028 0.36421 0.0
H1335 H 0.41578 0.86277 0.34715 0.0
H1336 H 0.32311 0.83124 0.33609 0.0
H1337 H 0.36854 0.86182 0.29611 0.0
H1338 H 0.33021 0.87791 0.3674 0.0
H1339 H 0.35487 0.85726 0.37301 0.0
H1340 H 0.32524 0.8449 0.36564 0.0
H1341 H 0.38621 0.91531 0.31831 0.0
H1342 H 0.3976 0.89319 0.30225 0.0
H1343 H 0.41014 0.89418 0.32457 0.0
C1344 C 0.1409 0.93081 0.62192 0.0
C1345 C 0.15664 0.94546 0.63286 0.0
C1346 C 0.14816 0.92275 0.6051 0.0
C1347 C 0.17184 0.92934 0.5991 0.0
C1348 C 0.18754 0.94477 0.60985 0.0
C1349 C 0.17968 0.95276 0.62661 0.0
C1350 C 0.13077 0.90654 0.59396 0.0
C1351 C 0.21298 0.95205 0.60395 0.0
C1352 C 0.19943 0.88423 0.56586 0.0
C1353 C 0.19492 0.89615 0.54983 0.0
C1354 C 0.1926 0.89517 0.582 0.0
C1355 C 0.18074 0.91855 0.58214 0.0
C1356 C 0.17641 0.93089 0.56605 0.0
C1357 C 0.18365 0.91958 0.55007 0.0
C1358 C 0.19769 0.88149 0.59889 0.0
C1359 C 0.16364 0.95576 0.5657 0.0
H1360 H 0.12289 0.92549 0.62662 0.0
H1361 H 0.19191 0.96401 0.63508 0.0
H1362 H 0.1281 0.91432 0.58061 0.0
H1363 H 0.13896 0.88781 0.5922 0.0
H1364 H 0.11236 0.90457 0.60002 0.0
H1365 H 0.22215 0.96559 0.61326 0.0
H1366 H 0.22484 0.93531 0.6029 0.0
H1367 H 0.21177 0.96021 0.59064 0.0
H1368 H 0.2083 0.86621 0.56583 0.0
H1369 H 0.1801 0.92891 0.53775 0.0
H1370 H 0.17995 0.87689 0.60514 0.0
H1371 H 0.20844 0.89343 0.60843 0.0
H1372 H 0.20816 0.86404 0.59659 0.0
H1373 H 0.14453 0.95395 0.57058 0.0
H1374 H 0.16263 0.96341 0.5522 0.0
H1375 H 0.17356 0.9692 0.57465 0.0
C1376 C 0.62134 0.39908 0.8903 0.0
C1377 C 0.62608 0.42464 0.89038 0.0
C1378 C 0.62536 0.38524 0.90559 0.0
C1379 C 0.63433 0.39727 0.9213 0.0
C1380 C 0.63846 0.42317 0.92159 0.0
C1381 C 0.63427 0.43653 0.90614 0.0
C1382 C 0.62076 0.35764 0.90476 0.0
C1383 C 0.64793 0.43669 0.93811 0.0
C1384 C 0.63019 0.36613 0.96569 0.0
C1385 C 0.65444 0.3573 0.96815 0.0
C1386 C 0.62318 0.37876 0.95033 0.0
C1387 C 0.64085 0.38263 0.93716 0.0
C1388 C 0.6652 0.37331 0.93941 0.0
C1389 C 0.67168 0.36076 0.95485 0.0
C1390 C 0.59703 0.38838 0.94835 0.0
C1391 C 0.68458 0.37704 0.92565 0.0
H1392 H 0.61521 0.38973 0.87813 0.0
H1393 H 0.63757 0.45635 0.90636 0.0
H1394 H 0.63855 0.34765 0.90667 0.0
H1395 H 0.60851 0.35224 0.91558 0.0
H1396 H 0.61214 0.3514 0.89194 0.0
H1397 H 0.64899 0.45705 0.9364 0.0
H1398 H 0.63572 0.43298 0.94932 0.0
H1399 H 0.66669 0.42982 0.94178 0.0
H1400 H 0.61673 0.3635 0.97587 0.0
H1401 H 0.69045 0.35395 0.95659 0.0
H1402 H 0.58845 0.38141 0.93572 0.0
H1403 H 0.59728 0.40891 0.94789 0.0
H1404 H 0.58519 0.38284 0.9594 0.0
H1405 H 0.67784 0.3696 0.91261 0.0
H1406 H 0.70241 0.36787 0.92912 0.0
H1407 H 0.68808 0.39714 0.92419 0.0
C1408 C 0.67563 0.07767 0.12481 0.0
C1409 C 0.64977 0.07806 0.1224 0.0
C1410 C 0.68717 0.09026 0.13922 0.0
C1411 C 0.67253 0.10395 0.15126 0.0
C1412 C 0.64639 0.10309 0.14954 0.0
C1413 C 0.63534 0.08989 0.13526 0.0
C1414 C 0.71509 0.09025 0.14088 0.0
C1415 C 0.63011 0.11761 0.162 0.0
C1416 C 0.70015 0.13251 0.19375 0.0
C1417 C 0.70578 0.15648 0.18834 0.0
C1418 C 0.68984 0.11488 0.18173 0.0
C1419 C 0.68445 0.12172 0.16411 0.0
C1420 C 0.68991 0.146 0.15868 0.0
C1421 C 0.70081 0.16296 0.1708 0.0
C1422 C 0.68487 0.08897 0.18783 0.0
C1423 C 0.6839 0.15421 0.14011 0.0
H1424 H 0.68699 0.06865 0.11496 0.0
H1425 H 0.61531 0.08967 0.1338 0.0
H1426 H 0.72235 0.10847 0.13691 0.0
H1427 H 0.7212 0.08744 0.15479 0.0
H1428 H 0.72347 0.0756 0.13237 0.0
H1429 H 0.61017 0.11298 0.15995 0.0
H1430 H 0.6355 0.1141 0.17595 0.0
H1431 H 0.63256 0.13773 0.15989 0.0
H1432 H 0.70419 0.12743 0.20729 0.0
H1433 H 0.70497 0.18155 0.16663 0.0
H1434 H 0.69481 0.07533 0.1794 0.0
H1435 H 0.66482 0.08469 0.1864 0.0
H1436 H 0.69079 0.08644 0.20184 0.0
H1437 H 0.69401 0.14255 0.13042 0.0
H1438 H 0.68886 0.17391 0.13814 0.0
H1439 H 0.66379 0.15181 0.13712 0.0
C1440 C 0.95097 0.13114 0.41563 0.0
C1441 C 0.95021 0.14834 0.40201 0.0
C1442 C 0.93733 0.13501 0.43101 0.0
C1443 C 0.92277 0.15668 0.43286 0.0
C1444 C 0.92191 0.17408 0.41918 0.0
C1445 C 0.9355 0.16963 0.4039 0.0
C1446 C 0.93858 0.11599 0.44531 0.0
C1447 C 0.90665 0.19746 0.42069 0.0
C1448 C 0.86991 0.16026 0.46498 0.0
C1449 C 0.88072 0.17397 0.47914 0.0
C1450 C 0.88362 0.1538 0.45004 0.0
C1451 C 0.90864 0.16148 0.44919 0.0
C1452 C 0.91978 0.17491 0.46358 0.0
C1453 C 0.90572 0.1809 0.47841 0.0
C1454 C 0.8712 0.13924 0.43501 0.0
C1455 C 0.94635 0.18361 0.46308 0.0
H1456 H 0.96246 0.11477 0.41435 0.0
H1457 H 0.93436 0.18276 0.3933 0.0
H1458 H 0.9463 0.12455 0.45773 0.0
H1459 H 0.91966 0.10933 0.44812 0.0
H1460 H 0.95021 0.0998 0.44162 0.0
H1461 H 0.90813 0.20921 0.40891 0.0
H1462 H 0.88687 0.1927 0.42237 0.0
H1463 H 0.91278 0.20851 0.43257 0.0
H1464 H 0.85065 0.1547 0.4655 0.0
H1465 H 0.91421 0.19152 0.48929 0.0
H1466 H 0.88227 0.12251 0.4317 0.0
H1467 H 0.8702 0.15066 0.42303 0.0
H1468 H 0.85213 0.13336 0.43819 0.0
H1469 H 0.9588 0.1677 0.46037 0.0
H1470 H 0.95257 0.19293 0.47567 0.0
H1471 H 0.94842 0.19678 0.45218 0.0
C1472 C 0.89772 0.41335 0.64052 0.0
C1473 C 0.92356 0.41627 0.64132 0.0
C1474 C 0.88512 0.40248 0.65437 0.0
C1475 C 0.89867 0.39434 0.66939 0.0
C1476 C 0.92469 0.39767 0.67044 0.0
C1477 C 0.93682 0.40856 0.65638 0.0
C1478 C 0.85737 0.39918 0.65273 0.0
C1479 C 0.93976 0.38937 0.68629 0.0
C1480 C 0.86397 0.38365 0.71166 0.0
C1481 C 0.86097 0.35781 0.71113 0.0
C1482 C 0.87623 0.39579 0.69818 0.0
C1483 C 0.88568 0.38178 0.68382 0.0
C1484 C 0.88268 0.3557 0.68318 0.0
C1485 C 0.87039 0.34404 0.69684 0.0
C1486 C 0.87908 0.42362 0.69933 0.0
C1487 C 0.89246 0.34012 0.66805 0.0
H1488 H 0.88739 0.41892 0.62881 0.0
H1489 H 0.95676 0.41101 0.65715 0.0
H1490 H 0.85269 0.37917 0.65268 0.0
H1491 H 0.84831 0.40799 0.66428 0.0
H1492 H 0.84947 0.4073 0.64047 0.0
H1493 H 0.95973 0.39396 0.6853 0.0
H1494 H 0.93265 0.39824 0.69854 0.0
H1495 H 0.9379 0.36904 0.68765 0.0
H1496 H 0.85677 0.39446 0.72264 0.0
H1497 H 0.86815 0.32408 0.69631 0.0
H1498 H 0.87013 0.43208 0.68758 0.0
H1499 H 0.899 0.42867 0.69931 0.0
H1500 H 0.87076 0.43182 0.71141 0.0
H1501 H 0.88398 0.34618 0.65537 0.0
H1502 H 0.88857 0.32007 0.6695 0.0
H1503 H 0.91278 0.3427 0.66719 0.0
C1504 C 0.62805 0.11161 0.34546 0.0
C1505 C 0.60381 0.12091 0.34588 0.0
C1506 C 0.64319 0.11584 0.33101 0.0
C1507 C 0.6338 0.12961 0.31664 0.0
C1508 C 0.609 0.13813 0.31667 0.0
C1509 C 0.59432 0.13373 0.33132 0.0
C1510 C 0.66957 0.10653 0.3315 0.0
C1511 C 0.59822 0.15266 0.30151 0.0
C1512 C 0.67851 0.16613 0.28939 0.0
C1513 C 0.68033 0.15108 0.27411 0.0
C1514 C 0.66375 0.15912 0.30343 0.0
C1515 C 0.65036 0.13656 0.30213 0.0
C1516 C 0.65237 0.1211 0.28687 0.0
C1517 C 0.6674 0.12851 0.27305 0.0
C1518 C 0.66221 0.17605 0.31955 0.0
C1519 C 0.63831 0.09696 0.285 0.0
H1520 H 0.63557 0.10193 0.35677 0.0
H1521 H 0.57549 0.1407 0.33152 0.0
H1522 H 0.67357 0.09595 0.31915 0.0
H1523 H 0.68251 0.12251 0.33236 0.0
H1524 H 0.67341 0.09448 0.34294 0.0
H1525 H 0.57813 0.15639 0.30298 0.0
H1526 H 0.60805 0.17064 0.30073 0.0
H1527 H 0.60091 0.14246 0.28881 0.0
H1528 H 0.6885 0.18355 0.29037 0.0
H1529 H 0.66867 0.11677 0.26128 0.0
H1530 H 0.66755 0.16583 0.33161 0.0
H1531 H 0.64285 0.18246 0.32114 0.0
H1532 H 0.67439 0.19255 0.31873 0.0
H1533 H 0.64295 0.08495 0.29631 0.0
H1534 H 0.64245 0.08669 0.27252 0.0
H1535 H 0.6181 0.10061 0.28528 0.0
C1536 C 0.88119 0.06761 0.61788 0.0
C1537 C 0.90719 0.06709 0.61928 0.0
C1538 C 0.86897 0.0821 0.60525 0.0
C1539 C 0.88302 0.09699 0.59408 0.0
C1540 C 0.90919 0.09569 0.59481 0.0
C1541 C 0.92095 0.08046 0.60721 0.0
C1542 C 0.84098 0.08251 0.60457 0.0
C1543 C 0.92483 0.11154 0.58325 0.0
C1544 C 0.85173 0.12788 0.55486 0.0
C1545 C 0.84583 0.15117 0.56222 0.0
C1546 C 0.86364 0.10987 0.56511 0.0
C1547 C 0.87038 0.11563 0.58293 0.0
C1548 C 0.86481 0.13929 0.5903 0.0
C1549 C 0.85228 0.15665 0.57992 0.0
C1550 C 0.86866 0.08462 0.55697 0.0
C1551 C 0.87221 0.14633 0.60914 0.0
H1552 H 0.87024 0.05768 0.6272 0.0
H1553 H 0.94101 0.07972 0.60782 0.0
H1554 H 0.83431 0.10047 0.61006 0.0
H1555 H 0.83394 0.08078 0.59069 0.0
H1556 H 0.83289 0.06737 0.61228 0.0
H1557 H 0.94485 0.10695 0.58444 0.0
H1558 H 0.9188 0.10932 0.56919 0.0
H1559 H 0.92237 0.13135 0.58707 0.0
H1560 H 0.8466 0.12358 0.54119 0.0
H1561 H 0.84794 0.17473 0.58557 0.0
H1562 H 0.85924 0.07019 0.56457 0.0
H1563 H 0.8888 0.08056 0.55765 0.0
H1564 H 0.86217 0.08309 0.54294 0.0
H1565 H 0.86279 0.13403 0.6184 0.0
H1566 H 0.86744 0.16584 0.6126 0.0
H1567 H 0.89246 0.1438 0.61123 0.0
C1568 C 0.92031 0.40155 0.85352 0.0
C1569 C 0.93168 0.38692 0.8665 0.0
C1570 C 0.90782 0.39069 0.83882 0.0
C1571 C 0.90721 0.36457 0.83681 0.0
C1572 C 0.92 0.34974 0.8492 0.0
C1573 C 0.93182 0.36106 0.864 0.0
C1574 C 0.89416 0.40712 0.82598 0.0
C1575 C 0.92015 0.32183 0.84732 0.0
C1576 C 0.85163 0.33402 0.81387 0.0
C1577 C 0.86062 0.32858 0.797 0.0
C1578 C 0.86648 0.34624 0.82677 0.0
C1579 C 0.89113 0.35266 0.82284 0.0
C1580 C 0.90035 0.34724 0.80582 0.0
C1581 C 0.88484 0.33551 0.793 0.0
C1582 C 0.85578 0.3522 0.84463 0.0
C1583 C 0.92671 0.35335 0.80131 0.0
H1584 H 0.92062 0.42156 0.85505 0.0
H1585 H 0.94025 0.34949 0.87397 0.0
H1586 H 0.89918 0.40231 0.8122 0.0
H1587 H 0.87391 0.40409 0.82698 0.0
H1588 H 0.89813 0.42708 0.8286 0.0
H1589 H 0.93353 0.31322 0.85672 0.0
H1590 H 0.90139 0.31451 0.84983 0.0
H1591 H 0.92491 0.316 0.83366 0.0
H1592 H 0.83282 0.32893 0.81694 0.0
H1593 H 0.89185 0.33122 0.77998 0.0
H1594 H 0.85762 0.37232 0.84776 0.0
H1595 H 0.86624 0.3422 0.85505 0.0
H1596 H 0.83591 0.347 0.84526 0.0
H1597 H 0.93031 0.37342 0.80356 0.0
H1598 H 0.93086 0.34836 0.78737 0.0
H1599 H 0.93971 0.34322 0.81013 0.0
C1600 C 0.63677 0.43206 0.12262 0.0
C1601 C 0.61092 0.43532 0.12238 0.0
C1602 C 0.64872 0.42065 0.10834 0.0
C1603 C 0.63448 0.41143 0.09368 0.0
C1604 C 0.60866 0.41585 0.09283 0.0
C1605 C 0.59728 0.42816 0.10702 0.0
C1606 C 0.67644 0.41697 0.10952 0.0
C1607 C 0.59274 0.40597 0.07755 0.0
C1608 C 0.66805 0.38694 0.05317 0.0
C1609 C 0.67127 0.36202 0.05742 0.0
C1610 C 0.6559 0.4034 0.06476 0.0
C1611 C 0.64612 0.39438 0.08058 0.0
C1612 C 0.64844 0.36893 0.08445 0.0
C1613 C 0.66138 0.35318 0.07298 0.0
C1614 C 0.65449 0.43052 0.06048 0.0
C1615 C 0.63764 0.35838 0.1009 0.0
H1616 H 0.64769 0.43717 0.13433 0.0
H1617 H 0.57746 0.43125 0.10633 0.0
H1618 H 0.68059 0.3973 0.11231 0.0
H1619 H 0.68503 0.42132 0.09679 0.0
H1620 H 0.68524 0.42873 0.12018 0.0
H1621 H 0.57358 0.41346 0.07782 0.0
H1622 H 0.60097 0.41049 0.06475 0.0
H1623 H 0.59174 0.38547 0.07816 0.0
H1624 H 0.6759 0.39375 0.04116 0.0
H1625 H 0.6637 0.33381 0.07614 0.0
H1626 H 0.6658 0.44141 0.07034 0.0
H1627 H 0.63516 0.43731 0.06133 0.0
H1628 H 0.66136 0.43425 0.04708 0.0
H1629 H 0.64742 0.36628 0.11281 0.0
H1630 H 0.6392 0.33787 0.10116 0.0
H1631 H 0.6178 0.36351 0.10181 0.0
loop_
_geom_bond_atom_site_label_1
_geom_bond_atom_site_label_2
_geom_bond_distance
_geom_bond_site_symmetry_2
_ccdc_geom_bond_type
H0 C27 0.929 . S
N1 C26 1.433 . S
N1 C32 1.435 . S
N1 C38 1.423 . S
H2 C28 0.930 . S
H3 C31 0.931 . S
H4 C30 0.929 . S
H5 C33 0.930 . S
H6 C34 0.932 . S
H7 C37 0.929 . S
H8 C36 0.931 . S
H9 C39 0.929 . S
H10 C43 0.932 . S
H11 C40 0.931 . S
H12 C42 0.929 . S
H13 C45 0.929 . S
H14 C46 0.930 . S
H15 C48 0.929 . S
H16 C49 0.931 . S
H17 C51 0.930 . S
H18 C52 0.932 . S
H19 C54 0.931 . S
H20 C55 0.929 . S
H21 C57 0.929 . S
H22 C58 0.931 . S
H23 C60 0.929 . S
N24 C44 1.433 . S
N24 C50 1.435 . S
N24 C56 1.423 . S
H25 C61 0.932 . S
C26 N1 1.433 . S
C26 C27 1.363 . S
C26 C31 1.370 . S
C27 H0 0.929 . S
C27 C26 1.363 . S
C27 C28 1.385 . S
C28 H2 0.930 . S
C28 C27 1.385 . S
C28 C29 1.357 . S
C29 C28 1.357 . S
C29 C30 1.406 . S
C30 H4 0.929 . S
C30 C29 1.406 . S
C30 C31 1.391 . S
C31 H3 0.931 . S
C31 C26 1.370 . S
C31 C30 1.391 . S
C32 N1 1.435 . S
C32 C33 1.358 . S
C32 C37 1.371 . S
C33 H5 0.930 . S
C33 C32 1.358 . S
C33 C34 1.405 . S
C34 H6 0.932 . S
C34 C33 1.405 . S
C34 C35 1.383 . S
C35 C34 1.383 . S
C35 C36 1.393 . S
C36 H8 0.931 . S
C36 C35 1.393 . S
C36 C37 1.382 . S
C37 H7 0.929 . S
C37 C32 1.371 . S
C37 C36 1.382 . S
C38 N1 1.423 . S
C38 C39 1.362 1_565 S
C38 C43 1.388 . S
C39 H9 0.929 . S
C39 C38 1.362 1_545 S
C39 C40 1.376 . S
C40 H11 0.931 . S
C40 C39 1.376 . S
C40 C41 1.396 . S
C41 C40 1.396 . S
C41 C42 1.348 1_545 S
C41 C59 1.472 . S
C42 H12 0.929 . S
C42 C41 1.348 1_565 S
C42 C43 1.443 . S
C43 H10 0.932 . S
C43 C38 1.388 . S
C43 C42 1.443 . S
C44 N24 1.433 . S
C44 C45 1.363 . S
C44 C49 1.370 . S
C45 H13 0.929 . S
C45 C44 1.363 . S
C45 C46 1.385 . S
C46 H14 0.930 . S
C46 C45 1.385 . S
C46 C47 1.357 . S
C47 C46 1.357 . S
C47 C48 1.406 . S
C48 H15 0.929 . S
C48 C47 1.406 . S
C48 C49 1.391 . S
C49 H16 0.931 . S
C49 C44 1.370 . S
C49 C48 1.391 . S
C50 N24 1.435 . S
C50 C51 1.358 . S
C50 C55 1.371 . S
C51 H17 0.930 . S
C51 C50 1.358 . S
C51 C52 1.405 . S
C52 H18 0.932 . S
C52 C51 1.405 . S
C52 C53 1.383 . S
C53 C52 1.383 . S
C53 C54 1.393 . S
C54 H19 0.931 . S
C54 C53 1.393 . S
C54 C55 1.382 . S
C55 H20 0.929 . S
C55 C50 1.371 . S
C55 C54 1.382 . S
C56 N24 1.423 . S
C56 C57 1.362 1_655 S
C56 C61 1.388 . S
C57 H21 0.929 . S
C57 C56 1.362 1_455 S
C57 C58 1.376 . S
C58 H22 0.931 . S
C58 C57 1.376 . S
C58 C59 1.396 . S
C59 C41 1.472 . S
C59 C58 1.396 . S
C59 C60 1.348 . S
C60 H23 0.929 . S
C60 C59 1.348 . S
C60 C61 1.443 1_455 S
C61 H25 0.932 . S
C61 C56 1.388 . S
C61 C60 1.443 1_655 S
H62 C89 0.929 . S
N63 C88 1.433 . S
N63 C94 1.435 . S
N63 C100 1.423 . S
H64 C90 0.930 . S
H65 C93 0.931 . S
H66 C92 0.929 . S
H67 C95 0.930 . S
H68 C96 0.932 . S
H69 C99 0.929 . S
H70 C98 0.931 . S
H71 C101 0.927 1_455 S
H72 C105 0.932 . S
H73 C102 0.931 . S
H74 C104 0.929 . S
H75 C107 0.929 . S
H76 C108 0.930 . S
H77 C110 0.929 . S
H78 C111 0.931 . S
H79 C113 0.930 . S
H80 C114 0.932 . S
H81 C116 0.931 . S
H82 C117 0.929 . S
H83 C119 0.929 . S
H84 C120 0.931 . S
H85 C122 0.929 . S
N86 C106 1.433 . S
N86 C112 1.435 . S
N86 C118 1.423 . S
H87 C123 0.932 . S
C88 N63 1.433 . S
C88 C89 1.363 . S
C88 C93 1.370 . S
C89 H62 0.929 . S
C89 C88 1.363 . S
C89 C90 1.385 . S
C90 H64 0.930 . S
C90 C89 1.385 . S
C90 C91 1.357 . S
C91 C90 1.357 . S
C91 C92 1.406 . S
C92 H66 0.929 . S
C92 C91 1.406 . S
C92 C93 1.391 . S
C93 H65 0.931 . S
C93 C88 1.370 . S
C93 C92 1.391 . S
C94 N63 1.435 . S
C94 C95 1.358 . S
C94 C99 1.371 . S
C95 H67 0.930 . S
C95 C94 1.358 . S
C95 C96 1.405 . S
C96 H68 0.932 . S
C96 C95 1.405 . S
C96 C97 1.383 . S
C97 C96 1.383 . S
C97 C98 1.393 . S
C98 H70 0.931 . S
C98 C97 1.393 . S
C98 C99 1.382 . S
C99 H69 0.929 . S
C99 C94 1.371 . S
C99 C98 1.382 . S
C100 N63 1.423 . S
C100 C101 1.383 . S
C100 C105 1.388 . S
C101 H71 0.927 1_655 S
C101 C100 1.383 . S
C101 C102 1.358 1_655 S
C102 H73 0.931 . S
C102 C101 1.358 1_455 S
C102 C103 1.396 . S
C103 C102 1.396 . S
C103 C104 1.348 1_455 S
C103 C121 1.472 . S
C104 H74 0.929 . S
C104 C103 1.348 1_655 S
C104 C105 1.443 . S
C105 H72 0.932 . S
C105 C100 1.388 . S
C105 C104 1.443 . S
C106 N86 1.433 . S
C106 C107 1.363 . S
C106 C111 1.370 . S
C107 H75 0.929 . S
C107 C106 1.363 . S
C107 C108 1.385 . S
C108 H76 0.930 . S
C108 C107 1.385 . S
C108 C109 1.357 . S
C109 C108 1.357 . S
C109 C110 1.406 . S
C110 H77 0.929 . S
C110 C109 1.406 . S
C110 C111 1.391 . S
C111 H78 0.931 . S
C111 C106 1.370 . S
C111 C110 1.391 . S
C112 N86 1.435 . S
C112 C113 1.358 . S
C112 C117 1.371 . S
C113 H79 0.930 . S
C113 C112 1.358 . S
C113 C114 1.405 . S
C114 H80 0.932 . S
C114 C113 1.405 . S
C114 C115 1.383 . S
C115 C114 1.383 . S
C115 C116 1.393 . S
C116 H81 0.931 . S
C116 C115 1.393 . S
C116 C117 1.382 . S
C117 H82 0.929 . S
C117 C112 1.371 . S
C117 C116 1.382 . S
C118 N86 1.423 . S
C118 C119 1.362 . S
C118 C123 1.388 . S
C119 H83 0.929 . S
C119 C118 1.362 . S
C119 C120 1.376 . S
C120 H84 0.931 . S
C120 C119 1.376 . S
C120 C121 1.396 . S
C121 C103 1.472 . S
C121 C120 1.396 . S
C121 C122 1.348 . S
C122 H85 0.929 . S
C122 C121 1.348 . S
C122 C123 1.443 . S
C123 H87 0.932 . S
C123 C118 1.388 . S
C123 C122 1.443 . S
H124 C151 0.929 . S
N125 C150 1.433 . S
N125 C156 1.435 . S
N125 C162 1.423 . S
H126 C152 0.930 . S
H127 C155 0.931 . S
H128 C154 0.929 . S
H129 C157 0.930 . S
H130 C158 0.932 . S
H131 C161 0.929 . S
H132 C160 0.931 . S
H133 C163 0.929 . S
H134 C167 0.932 . S
H135 C164 0.931 . S
H136 C166 0.929 . S
H137 C169 0.929 . S
H138 C170 0.930 . S
H139 C172 0.929 . S
H140 C173 0.931 . S
H141 C175 0.930 . S
H142 C176 0.932 . S
H143 C178 0.931 . S
H144 C179 0.929 . S
H145 C181 0.929 . S
H146 C182 0.931 . S
H147 C184 0.929 . S
N148 C168 1.433 . S
N148 C174 1.435 . S
N148 C180 1.423 . S
H149 C185 0.932 . S
C150 N125 1.433 . S
C150 C151 1.363 . S
C150 C155 1.370 . S
C151 H124 0.929 . S
C151 C150 1.363 . S
C151 C152 1.385 . S
C152 H126 0.930 . S
C152 C151 1.385 . S
C152 C153 1.357 . S
C153 C152 1.357 . S
C153 C154 1.406 . S
C154 H128 0.929 . S
C154 C153 1.406 . S
C154 C155 1.391 . S
C155 H127 0.931 . S
C155 C150 1.370 . S
C155 C154 1.391 . S
C156 N125 1.435 . S
C156 C157 1.358 . S
C156 C161 1.371 . S
C157 H129 0.930 . S
C157 C156 1.358 . S
C157 C158 1.405 . S
C158 H130 0.932 . S
C158 C157 1.405 . S
C158 C159 1.383 . S
C159 C158 1.383 . S
C159 C160 1.393 . S
C160 H132 0.931 . S
C160 C159 1.393 . S
C160 C161 1.382 . S
C161 H131 0.929 . S
C161 C156 1.371 . S
C161 C160 1.382 . S
C162 N125 1.423 . S
C162 C163 1.362 . S
C162 C167 1.388 . S
C163 H133 0.929 . S
C163 C162 1.362 . S
C163 C164 1.376 . S
C164 H135 0.931 . S
C164 C163 1.376 . S
C164 C165 1.396 . S
C165 C164 1.396 . S
C165 C166 1.348 . S
C165 C183 1.472 . S
C166 H136 0.929 . S
C166 C165 1.348 . S
C166 C167 1.443 . S
C167 H134 0.932 . S
C167 C162 1.388 . S
C167 C166 1.443 . S
C168 N148 1.433 . S
C168 C169 1.363 . S
C168 C173 1.370 . S
C169 H137 0.929 . S
C169 C168 1.363 . S
C169 C170 1.385 . S
C170 H138 0.930 . S
C170 C169 1.385 . S
C170 C171 1.357 . S
C171 C170 1.357 . S
C171 C172 1.406 . S
C172 H139 0.929 . S
C172 C171 1.406 . S
C172 C173 1.391 . S
C173 H140 0.931 . S
C173 C168 1.370 . S
C173 C172 1.391 . S
C174 N148 1.435 . S
C174 C175 1.358 . S
C174 C179 1.371 . S
C175 H141 0.930 . S
C175 C174 1.358 . S
C175 C176 1.405 . S
C176 H142 0.932 . S
C176 C175 1.405 . S
C176 C177 1.383 . S
C177 C176 1.383 . S
C177 C178 1.393 . S
C178 H143 0.931 . S
C178 C177 1.393 . S
C178 C179 1.382 . S
C179 H144 0.929 . S
C179 C174 1.371 . S
C179 C178 1.382 . S
C180 N148 1.423 . S
C180 C181 1.362 . S
C180 C185 1.388 . S
C181 H145 0.929 . S
C181 C180 1.362 . S
C181 C182 1.376 . S
C182 H146 0.931 . S
C182 C181 1.376 . S
C182 C183 1.396 . S
C183 C165 1.472 . S
C183 C182 1.396 . S
C183 C184 1.348 . S
C184 H147 0.929 . S
C184 C183 1.348 . S
C184 C185 1.443 . S
C185 H149 0.932 . S
C185 C180 1.388 . S
C185 C184 1.443 . S
H186 C213 0.929 . S
N187 C212 1.433 . S
N187 C218 1.435 . S
N187 C224 1.423 . S
H188 C214 0.930 . S
H189 C217 0.931 . S
H190 C216 0.929 . S
H191 C219 0.930 . S
H192 C220 0.932 . S
H193 C223 0.929 . S
H194 C222 0.931 . S
H195 C225 0.929 . S
H196 C229 0.932 . S
H197 C226 0.931 . S
H198 C228 0.929 . S
H199 C231 0.929 . S
H200 C232 0.930 . S
H201 C234 0.929 . S
H202 C235 0.931 . S
H203 C237 0.930 . S
H204 C238 0.932 . S
H205 C240 0.931 . S
H206 C241 0.929 . S
H207 C243 0.929 . S
H208 C244 0.901 1_565 S
H209 C246 0.929 . S
N210 C230 1.433 . S
N210 C236 1.435 . S
N210 C242 1.423 . S
H211 C247 0.932 . S
C212 N187 1.433 . S
C212 C213 1.363 . S
C212 C217 1.370 . S
C213 H186 0.929 . S
C213 C212 1.363 . S
C213 C214 1.385 . S
C214 H188 0.930 . S
C214 C213 1.385 . S
C214 C215 1.357 . S
C215 C214 1.357 . S
C215 C216 1.406 . S
C216 H190 0.929 . S
C216 C215 1.406 . S
C216 C217 1.391 . S
C217 H189 0.931 . S
C217 C212 1.370 . S
C217 C216 1.391 . S
C218 N187 1.435 . S
C218 C219 1.358 . S
C218 C223 1.371 . S
C219 H191 0.930 . S
C219 C218 1.358 . S
C219 C220 1.405 . S
C220 H192 0.932 . S
C220 C219 1.405 . S
C220 C221 1.383 . S
C221 C220 1.383 . S
C221 C222 1.393 . S
C222 H194 0.931 . S
C222 C221 1.393 . S
C222 C223 1.382 . S
C223 H193 0.929 . S
C223 C218 1.371 . S
C223 C222 1.382 . S
C224 N187 1.423 . S
C224 C225 1.362 . S
C224 C229 1.388 . S
C225 H195 0.929 . S
C225 C224 1.362 . S
C225 C226 1.376 . S
C226 H197 0.931 . S
C226 C225 1.376 . S
C226 C227 1.396 . S
C227 C226 1.396 . S
C227 C228 1.348 . S
C227 C245 1.472 1_565 S
C228 H198 0.929 . S
C228 C227 1.348 . S
C228 C229 1.443 . S
C229 H196 0.932 . S
C229 C224 1.388 . S
C229 C228 1.443 . S
C230 N210 1.433 . S
C230 C231 1.363 . S
C230 C235 1.370 . S
C231 H199 0.929 . S
C231 C230 1.363 . S
C231 C232 1.385 . S
C232 H200 0.930 . S
C232 C231 1.385 . S
C232 C233 1.357 . S
C233 C232 1.357 . S
C233 C234 1.406 . S
C234 H201 0.929 . S
C234 C233 1.406 . S
C234 C235 1.391 . S
C235 H202 0.931 . S
C235 C230 1.370 . S
C235 C234 1.391 . S
C236 N210 1.435 . S
C236 C237 1.358 . S
C236 C241 1.371 . S
C237 H203 0.930 . S
C237 C236 1.358 . S
C237 C238 1.405 . S
C238 H204 0.932 . S
C238 C237 1.405 . S
C238 C239 1.383 . S
C239 C238 1.383 . S
C239 C240 1.393 . S
C240 H205 0.931 . S
C240 C239 1.393 . S
C240 C241 1.382 . S
C241 H206 0.929 . S
C241 C236 1.371 . S
C241 C240 1.382 . S
C242 N210 1.423 . S
C242 C243 1.362 . S
C242 C247 1.388 . S
C243 H207 0.929 . S
C243 C242 1.362 . S
C243 C244 1.376 . S
C244 H208 0.901 1_545 S
C244 C243 1.376 . S
C244 C245 1.396 . S
C245 C227 1.472 1_545 S
C245 C244 1.396 . S
C245 C246 1.348 . S
C246 H209 0.929 . S
C246 C245 1.348 . S
C246 C247 1.443 . S
C247 H211 0.932 . S
C247 C242 1.388 . S
C247 C246 1.443 . S
H248 C275 0.929 . S
N249 C274 1.433 . S
N249 C280 1.435 . S
N249 C286 1.423 . S
H250 C276 0.930 . S
H251 C279 0.931 . S
H252 C278 0.929 . S
H253 C281 0.930 . S
H254 C282 0.932 . S
H255 C285 0.929 . S
H256 C284 0.931 1_554 S
H257 C287 0.929 . S
H258 C291 0.932 . S
H259 C288 0.931 . S
H260 C290 0.929 . S
H261 C293 0.929 . S
H262 C294 0.930 . S
H263 C296 0.929 . S
H264 C297 0.931 . S
H265 C299 0.930 . S
H266 C300 0.932 . S
H267 C302 0.931 . S
H268 C303 0.929 . S
H269 C305 0.929 . S
H270 C306 0.931 1_455 S
H271 C308 0.929 . S
N272 C292 1.433 . S
N272 C298 1.435 . S
N272 C304 1.423 . S
H273 C309 0.932 . S
C274 N249 1.433 . S
C274 C275 1.363 . S
C274 C279 1.370 . S
C275 H248 0.929 . S
C275 C274 1.363 . S
C275 C276 1.385 . S
C276 H250 0.930 . S
C276 C275 1.385 . S
C276 C277 1.357 . S
C277 C276 1.357 . S
C277 C278 1.406 . S
C278 H252 0.929 . S
C278 C277 1.406 . S
C278 C279 1.391 . S
C279 H251 0.931 . S
C279 C274 1.370 . S
C279 C278 1.391 . S
C280 N249 1.435 . S
C280 C281 1.358 . S
C280 C285 1.371 . S
C281 H253 0.930 . S
C281 C280 1.358 . S
C281 C282 1.405 . S
C282 H254 0.932 . S
C282 C281 1.405 . S
C282 C283 1.383 . S
C283 C282 1.383 . S
C283 C284 1.393 . S
C284 H256 0.931 1_556 S
C284 C283 1.393 . S
C284 C285 1.382 . S
C285 H255 0.929 . S
C285 C280 1.371 . S
C285 C284 1.382 . S
C286 N249 1.423 . S
C286 C287 1.362 . S
C286 C291 1.388 . S
C287 H257 0.929 . S
C287 C286 1.362 . S
C287 C288 1.376 . S
C288 H259 0.931 . S
C288 C287 1.376 . S
C288 C289 1.396 . S
C289 C288 1.396 . S
C289 C290 1.348 . S
C289 C307 1.472 . S
C290 H260 0.929 . S
C290 C289 1.348 . S
C290 C291 1.443 . S
C291 H258 0.932 . S
C291 C286 1.388 . S
C291 C290 1.443 . S
C292 N272 1.433 . S
C292 C293 1.363 . S
C292 C297 1.370 . S
C293 H261 0.929 . S
C293 C292 1.363 . S
C293 C294 1.385 . S
C294 H262 0.930 . S
C294 C293 1.385 . S
C294 C295 1.357 . S
C295 C294 1.357 . S
C295 C296 1.406 . S
C296 H263 0.929 . S
C296 C295 1.406 . S
C296 C297 1.391 . S
C297 H264 0.931 . S
C297 C292 1.370 . S
C297 C296 1.391 . S
C298 N272 1.435 . S
C298 C299 1.358 . S
C298 C303 1.371 . S
C299 H265 0.930 . S
C299 C298 1.358 . S
C299 C300 1.405 . S
C300 H266 0.932 . S
C300 C299 1.405 . S
C300 C301 1.383 . S
C301 C300 1.383 . S
C301 C302 1.393 . S
C302 H267 0.931 . S
C302 C301 1.393 . S
C302 C303 1.382 . S
C303 H268 0.929 . S
C303 C298 1.371 . S
C303 C302 1.382 . S
C304 N272 1.423 . S
C304 C305 1.362 . S
C304 C309 1.388 . S
C305 H269 0.929 . S
C305 C304 1.362 . S
C305 C306 1.376 . S
C306 H270 0.931 1_655 S
C306 C305 1.376 . S
C306 C307 1.396 1_655 S
C307 C289 1.472 . S
C307 C306 1.396 1_455 S
C307 C308 1.348 1_455 S
C308 H271 0.929 . S
C308 C307 1.348 1_655 S
C308 C309 1.443 . S
C309 H273 0.932 . S
C309 C304 1.388 . S
C309 C308 1.443 . S
H310 C337 0.929 . S
N311 C336 1.433 . S
N311 C342 1.435 . S
N311 C348 1.423 . S
H312 C338 0.930 . S
H313 C341 0.931 . S
H314 C340 0.929 . S
H315 C343 0.930 . S
H316 C344 0.932 . S
H317 C347 0.929 . S
H318 C346 0.931 . S
H319 C349 0.929 . S
H320 C353 0.932 . S
H321 C350 0.931 . S
H322 C352 0.929 . S
H323 C355 0.929 . S
H324 C356 0.930 . S
H325 C358 0.929 . S
H326 C359 0.931 . S
H327 C361 0.930 . S
H328 C362 0.932 . S
H329 C364 0.931 . S
H330 C365 0.929 . S
H331 C367 0.929 . S
H332 C368 0.931 . S
H333 C370 0.929 . S
N334 C354 1.433 . S
N334 C360 1.435 . S
N334 C366 1.423 . S
H335 C371 0.932 . S
C336 N311 1.433 . S
C336 C337 1.363 . S
C336 C341 1.370 . S
C337 H310 0.929 . S
C337 C336 1.363 . S
C337 C338 1.385 . S
C338 H312 0.930 . S
C338 C337 1.385 . S
C338 C339 1.357 . S
C339 C338 1.357 . S
C339 C340 1.406 . S
C340 H314 0.929 . S
C340 C339 1.406 . S
C340 C341 1.391 . S
C341 H313 0.931 . S
C341 C336 1.370 . S
C341 C340 1.391 . S
C342 N311 1.435 . S
C342 C343 1.358 . S
C342 C347 1.371 . S
C343 H315 0.930 . S
C343 C342 1.358 . S
C343 C344 1.405 . S
C344 H316 0.932 . S
C344 C343 1.405 . S
C344 C345 1.383 . S
C345 C344 1.383 . S
C345 C346 1.393 . S
C346 H318 0.931 . S
C346 C345 1.393 . S
C346 C347 1.382 . S
C347 H317 0.929 . S
C347 C342 1.371 . S
C347 C346 1.382 . S
C348 N311 1.423 . S
C348 C349 1.362 . S
C348 C353 1.388 . S
C349 H319 0.929 . S
C349 C348 1.362 . S
C349 C350 1.376 . S
C350 H321 0.931 . S
C350 C349 1.376 . S
C350 C351 1.396 . S
C351 C350 1.396 . S
C351 C352 1.348 . S
C351 C369 1.472 . S
C352 H322 0.929 . S
C352 C351 1.348 . S
C352 C353 1.443 . S
C353 H320 0.932 . S
C353 C348 1.388 . S
C353 C352 1.443 . S
C354 N334 1.433 . S
C354 C355 1.363 . S
C354 C359 1.370 . S
C355 H323 0.929 . S
C355 C354 1.363 . S
C355 C356 1.385 . S
C356 H324 0.930 . S
C356 C355 1.385 . S
C356 C357 1.357 . S
C357 C356 1.357 . S
C357 C358 1.406 . S
C358 H325 0.929 . S
C358 C357 1.406 . S
C358 C359 1.391 . S
C359 H326 0.931 . S
C359 C354 1.370 . S
C359 C358 1.391 . S
C360 N334 1.435 . S
C360 C361 1.358 . S
C360 C365 1.371 . S
C361 H327 0.930 . S
C361 C360 1.358 . S
C361 C362 1.405 . S
C362 H328 0.932 . S
C362 C361 1.405 . S
C362 C363 1.383 . S
C363 C362 1.383 . S
C363 C364 1.393 . S
C364 H329 0.931 . S
C364 C363 1.393 . S
C364 C365 1.382 . S
C365 H330 0.929 . S
C365 C360 1.371 . S
C365 C364 1.382 . S
C366 N334 1.423 . S
C366 C367 1.362 . S
C366 C371 1.388 . S
C367 H331 0.929 . S
C367 C366 1.362 . S
C367 C368 1.376 . S
C368 H332 0.931 . S
C368 C367 1.376 . S
C368 C369 1.396 . S
C369 C351 1.472 . S
C369 C368 1.396 . S
C369 C370 1.348 . S
C370 H333 0.929 . S
C370 C369 1.348 . S
C370 C371 1.443 . S
C371 H335 0.932 . S
C371 C366 1.388 . S
C371 C370 1.443 . S
H372 C399 0.929 . S
N373 C398 1.433 . S
N373 C404 1.435 . S
N373 C410 1.423 . S
H374 C400 0.930 . S
H375 C403 0.931 . S
H376 C402 0.929 . S
H377 C405 0.930 . S
H378 C406 0.932 . S
H379 C409 0.929 . S
H380 C408 0.931 . S
H381 C411 0.929 . S
H382 C415 0.932 . S
H383 C412 0.931 . S
H384 C414 0.929 . S
H385 C417 0.929 . S
H386 C418 0.930 . S
H387 C420 0.929 . S
H388 C421 0.931 . S
H389 C423 0.930 . S
H390 C424 0.932 . S
H391 C426 0.931 . S
H392 C427 0.929 . S
H393 C429 0.929 . S
H394 C430 0.931 . S
H395 C432 0.929 . S
N396 C416 1.433 . S
N396 C422 1.435 . S
N396 C428 1.423 . S
H397 C433 0.932 . S
C398 N373 1.433 . S
C398 C399 1.363 . S
C398 C403 1.370 . S
C399 H372 0.929 . S
C399 C398 1.363 . S
C399 C400 1.385 . S
C400 H374 0.930 . S
C400 C399 1.385 . S
C400 C401 1.357 . S
C401 C400 1.357 . S
C401 C402 1.406 . S
C402 H376 0.929 . S
C402 C401 1.406 . S
C402 C403 1.391 . S
C403 H375 0.931 . S
C403 C398 1.370 . S
C403 C402 1.391 . S
C404 N373 1.435 . S
C404 C405 1.358 . S
C404 C409 1.371 . S
C405 H377 0.930 . S
C405 C404 1.358 . S
C405 C406 1.405 . S
C406 H378 0.932 . S
C406 C405 1.405 . S
C406 C407 1.383 . S
C407 C406 1.383 . S
C407 C408 1.393 . S
C408 H380 0.931 . S
C408 C407 1.393 . S
C408 C409 1.382 . S
C409 H379 0.929 . S
C409 C404 1.371 . S
C409 C408 1.382 . S
C410 N373 1.423 . S
C410 C411 1.362 1_565 S
C410 C415 1.388 . S
C411 H381 0.929 . S
C411 C410 1.362 1_545 S
C411 C412 1.376 . S
C412 H383 0.931 . S
C412 C411 1.376 . S
C412 C413 1.396 . S
C413 C412 1.396 . S
C413 C414 1.348 1_545 S
C413 C431 1.472 . S
C414 H384 0.929 . S
C414 C413 1.348 1_565 S
C414 C415 1.443 . S
C415 H382 0.932 . S
C415 C410 1.388 . S
C415 C414 1.443 . S
C416 N396 1.433 . S
C416 C417 1.363 . S
C416 C421 1.370 . S
C417 H385 0.929 . S
C417 C416 1.363 . S
C417 C418 1.385 . S
C418 H386 0.930 . S
C418 C417 1.385 . S
C418 C419 1.357 . S
C419 C418 1.357 . S
C419 C420 1.406 . S
C420 H387 0.929 . S
C420 C419 1.406 . S
C420 C421 1.391 . S
C421 H388 0.931 . S
C421 C416 1.370 . S
C421 C420 1.391 . S
C422 N396 1.435 . S
C422 C423 1.358 . S
C422 C427 1.371 . S
C423 H389 0.930 . S
C423 C422 1.358 . S
C423 C424 1.405 . S
C424 H390 0.932 . S
C424 C423 1.405 . S
C424 C425 1.383 . S
C425 C424 1.383 . S
C425 C426 1.393 . S
C426 H391 0.931 . S
C426 C425 1.393 . S
C426 C427 1.382 . S
C427 H392 0.929 . S
C427 C422 1.371 . S
C427 C426 1.382 . S
C428 N396 1.423 . S
C428 C429 1.362 . S
C428 C433 1.388 . S
C429 H393 0.929 . S
C429 C428 1.362 . S
C429 C430 1.376 . S
C430 H394 0.931 . S
C430 C429 1.376 . S
C430 C431 1.396 . S
C431 C413 1.472 . S
C431 C430 1.396 . S
C431 C432 1.348 . S
C432 H395 0.929 . S
C432 C431 1.348 . S
C432 C433 1.443 . S
C433 H397 0.932 . S
C433 C428 1.388 . S
C433 C432 1.443 . S
H434 C461 0.929 . S
N435 C460 1.433 . S
N435 C466 1.435 . S
N435 C472 1.423 . S
H436 C462 0.930 . S
H437 C465 0.931 . S
H438 C464 0.929 . S
H439 C467 0.930 . S
H440 C468 0.932 . S
H441 C471 0.929 . S
H442 C470 0.931 . S
H443 C473 0.929 . S
H444 C477 0.932 . S
H445 C474 0.930 . S
H446 C476 0.929 . S
H447 C479 0.929 . S
H448 C480 0.930 . S
H449 C482 0.929 . S
H450 C483 0.931 . S
H451 C485 0.930 . S
H452 C486 0.932 . S
H453 C488 0.931 . S
H454 C489 0.929 . S
H455 C491 0.929 . S
H456 C492 0.931 . S
H457 C494 0.959 . S
N458 C478 1.433 . S
N458 C484 1.435 . S
N458 C490 1.423 . S
H459 C495 0.932 . S
C460 N435 1.433 . S
C460 C461 1.363 . S
C460 C465 1.370 . S
C461 H434 0.929 . S
C461 C460 1.363 . S
C461 C462 1.385 . S
C462 H436 0.930 . S
C462 C461 1.385 . S
C462 C463 1.357 . S
C463 C462 1.357 . S
C463 C464 1.406 . S
C464 H438 0.929 . S
C464 C463 1.406 . S
C464 C465 1.391 . S
C465 H437 0.931 . S
C465 C460 1.370 . S
C465 C464 1.391 . S
C466 N435 1.435 . S
C466 C467 1.358 . S
C466 C471 1.371 . S
C467 H439 0.930 . S
C467 C466 1.358 . S
C467 C468 1.405 . S
C468 H440 0.932 . S
C468 C467 1.405 . S
C468 C469 1.383 . S
C469 C468 1.383 . S
C469 C470 1.393 . S
C470 H442 0.931 . S
C470 C469 1.393 . S
C470 C471 1.382 . S
C471 H441 0.929 . S
C471 C466 1.371 . S
C471 C470 1.382 . S
C472 N435 1.423 . S
C472 C473 1.362 . S
C472 C477 1.388 . S
C473 H443 0.929 . S
C473 C472 1.362 . S
C473 C474 1.376 . S
C474 H445 0.930 . S
C474 C473 1.376 . S
C474 C475 1.396 1_565 S
C475 C474 1.396 1_545 S
C475 C476 1.348 . S
C475 C493 1.472 1_455 S
C476 H446 0.929 . S
C476 C475 1.348 . S
C476 C477 1.443 1_545 S
C477 H444 0.932 . S
C477 C472 1.388 . S
C477 C476 1.443 1_565 S
C478 N458 1.433 . S
C478 C479 1.363 . S
C478 C483 1.370 . S
C479 H447 0.929 . S
C479 C478 1.363 . S
C479 C480 1.385 . S
C480 H448 0.930 . S
C480 C479 1.385 . S
C480 C481 1.357 . S
C481 C480 1.357 . S
C481 C482 1.406 . S
C482 H449 0.929 . S
C482 C481 1.406 . S
C482 C483 1.391 . S
C483 H450 0.931 . S
C483 C478 1.370 . S
C483 C482 1.391 . S
C484 N458 1.435 . S
C484 C485 1.358 . S
C484 C489 1.371 . S
C485 H451 0.930 . S
C485 C484 1.358 . S
C485 C486 1.405 . S
C486 H452 0.932 . S
C486 C485 1.405 . S
C486 C487 1.383 . S
C487 C486 1.383 . S
C487 C488 1.393 . S
C488 H453 0.931 . S
C488 C487 1.393 . S
C488 C489 1.382 . S
C489 H454 0.929 . S
C489 C484 1.371 . S
C489 C488 1.382 . S
C490 N458 1.423 . S
C490 C491 1.362 . S
C490 C495 1.388 . S
C491 H455 0.929 . S
C491 C490 1.362 . S
C491 C492 1.376 . S
C492 H456 0.931 . S
C492 C491 1.376 . S
C492 C493 1.396 . S
C493 C475 1.472 1_655 S
C493 C492 1.396 . S
C493 C494 1.345 1_655 S
C494 H457 0.959 . S
C494 C493 1.345 1_455 S
C494 C495 1.419 1_455 S
C495 H459 0.932 . S
C495 C490 1.388 . S
C495 C494 1.419 1_655 S
Zn496 O499 2.031 . S
Zn496 O501 2.049 . S
Zn496 O506 2.067 . S
Zn497 O498 1.962 . S
Zn497 O500 1.986 . S
Zn497 O502 1.996 . S
Zn497 O505 1.943 . S
O498 Zn497 1.962 . S
O498 C503 1.254 . S
O499 Zn496 2.031 . S
O499 C503 1.269 1_556 S
O500 Zn497 1.986 . S
O500 C507 1.262 . S
O501 Zn496 2.049 . S
O501 C509 1.260 1_556 S
O502 Zn497 1.996 . S
O502 C509 1.257 . S
C503 O498 1.254 . S
C503 O499 1.269 1_554 S
C504 O505 1.249 1_556 S
C504 O506 1.270 . S
O505 Zn497 1.943 . S
O505 C504 1.249 1_554 S
O506 Zn496 2.067 . S
O506 C504 1.270 . S
C507 O500 1.262 . S
C507 O508 1.232 . S
O508 C507 1.232 . S
C509 O501 1.260 1_554 S
C509 O502 1.257 . S
Zn510 O513 2.031 . S
Zn510 O515 2.049 . S
Zn510 O520 2.067 . S
Zn511 O512 1.962 . S
Zn511 O514 1.986 . S
Zn511 O516 1.996 . S
Zn511 O519 1.943 . S
O512 Zn511 1.962 . S
O512 C517 1.254 . S
O513 Zn510 2.031 . S
O513 C517 1.269 . S
O514 Zn511 1.986 . S
O514 C521 1.262 . S
O515 Zn510 2.049 . S
O515 C523 1.260 . S
O516 Zn511 1.996 . S
O516 C523 1.257 . S
C517 O512 1.254 . S
C517 O513 1.269 . S
C518 O519 1.249 . S
C518 O520 1.270 . S
O519 Zn511 1.943 . S
O519 C518 1.249 . S
O520 Zn510 2.067 . S
O520 C518 1.270 . S
C521 O514 1.262 . S
C521 O522 1.232 . S
O522 C521 1.232 . S
C523 O515 1.260 . S
C523 O516 1.257 . S
Zn524 O527 2.031 . S
Zn524 O529 2.049 . S
Zn524 O534 2.067 . S
Zn525 O526 1.962 . S
Zn525 O528 1.986 . S
Zn525 O530 1.996 . S
Zn525 O533 1.943 . S
O526 Zn525 1.962 . S
O526 C531 1.254 . S
O527 Zn524 2.031 . S
O527 C531 1.269 . S
O528 Zn525 1.986 . S
O528 C535 1.262 . S
O529 Zn524 2.049 . S
O529 C537 1.260 . S
O530 Zn525 1.996 . S
O530 C537 1.257 . S
C531 O526 1.254 . S
C531 O527 1.269 . S
C532 O533 1.249 . S
C532 O534 1.270 . S
O533 Zn525 1.943 . S
O533 C532 1.249 . S
O534 Zn524 2.067 . S
O534 C532 1.270 . S
C535 O528 1.262 . S
C535 O536 1.232 . S
O536 C535 1.232 . S
C537 O529 1.260 . S
C537 O530 1.257 . S
Zn538 O541 2.031 . S
Zn538 O543 2.049 . S
Zn538 O548 2.067 . S
Zn539 O540 1.962 . S
Zn539 O542 1.986 . S
Zn539 O544 1.996 . S
Zn539 O547 1.943 . S
O540 Zn539 1.962 . S
O540 C545 1.254 . S
O541 Zn538 2.031 . S
O541 C545 1.269 . S
O542 Zn539 1.986 . S
O542 C549 1.262 . S
O543 Zn538 2.049 . S
O543 C551 1.260 . S
O544 Zn539 1.996 . S
O544 C551 1.257 . S
C545 O540 1.254 . S
C545 O541 1.269 . S
C546 O547 1.249 . S
C546 O548 1.270 . S
O547 Zn539 1.943 . S
O547 C546 1.249 . S
O548 Zn538 2.067 . S
O548 C546 1.270 . S
C549 O542 1.262 . S
C549 O550 1.232 . S
O550 C549 1.232 . S
C551 O543 1.260 . S
C551 O544 1.257 . S
Zn552 O555 2.031 . S
Zn552 O557 2.049 . S
Zn552 O562 2.067 . S
Zn553 O554 1.962 . S
Zn553 O556 1.986 . S
Zn553 O558 1.996 . S
Zn553 O561 1.943 . S
O554 Zn553 1.962 . S
O554 C559 1.254 . S
O555 Zn552 2.031 . S
O555 C559 1.269 . S
O556 Zn553 1.986 . S
O556 C563 1.262 . S
O557 Zn552 2.049 . S
O557 C565 1.260 . S
O558 Zn553 1.996 . S
O558 C565 1.257 . S
C559 O554 1.254 . S
C559 O555 1.269 . S
C560 O561 1.249 . S
C560 O562 1.270 . S
O561 Zn553 1.943 . S
O561 C560 1.249 . S
O562 Zn552 2.067 . S
O562 C560 1.270 . S
C563 O556 1.262 . S
C563 O564 1.232 . S
O564 C563 1.232 . S
C565 O557 1.260 . S
C565 O558 1.257 . S
Zn566 O569 2.031 . S
Zn566 O571 2.049 . S
Zn566 O576 2.067 . S
Zn567 O568 1.962 . S
Zn567 O570 1.986 . S
Zn567 O572 1.996 . S
Zn567 O575 1.943 . S
O568 Zn567 1.962 . S
O568 C573 1.254 . S
O569 Zn566 2.031 . S
O569 C573 1.269 . S
O570 Zn567 1.986 . S
O570 C577 1.262 . S
O571 Zn566 2.049 . S
O571 C579 1.260 . S
O572 Zn567 1.996 . S
O572 C579 1.257 . S
C573 O568 1.254 . S
C573 O569 1.269 . S
C574 O575 1.249 . S
C574 O576 1.270 . S
O575 Zn567 1.943 . S
O575 C574 1.249 . S
O576 Zn566 2.067 . S
O576 C574 1.270 . S
C577 O570 1.262 . S
C577 O578 1.232 . S
O578 C577 1.232 . S
C579 O571 1.260 . S
C579 O572 1.257 . S
Zn580 O583 2.031 . S
Zn580 O585 2.049 . S
Zn580 O590 2.067 . S
Zn581 O582 1.962 . S
Zn581 O584 1.986 . S
Zn581 O586 1.996 . S
Zn581 O589 1.943 1_556 S
O582 Zn581 1.962 . S
O582 C587 1.254 1_556 S
O583 Zn580 2.031 . S
O583 C587 1.269 . S
O584 Zn581 1.986 . S
O584 C591 1.262 . S
O585 Zn580 2.049 . S
O585 C593 1.260 . S
O586 Zn581 1.996 . S
O586 C593 1.257 1_556 S
C587 O582 1.254 1_554 S
C587 O583 1.269 . S
C588 O589 1.249 . S
C588 O590 1.270 . S
O589 Zn581 1.943 1_554 S
O589 C588 1.249 . S
O590 Zn580 2.067 . S
O590 C588 1.270 . S
C591 O584 1.262 . S
C591 O592 1.232 . S
O592 C591 1.232 . S
C593 O585 1.260 . S
C593 O586 1.257 1_554 S
Zn594 O597 2.031 . S
Zn594 O599 2.049 . S
Zn594 O604 2.067 . S
Zn595 O596 1.962 . S
Zn595 O598 1.986 . S
Zn595 O600 1.996 . S
Zn595 O603 1.943 . S
O596 Zn595 1.962 . S
O596 C601 1.254 . S
O597 Zn594 2.031 . S
O597 C601 1.269 . S
O598 Zn595 1.986 . S
O598 C605 1.262 . S
O599 Zn594 2.049 . S
O599 C607 1.260 . S
O600 Zn595 1.996 . S
O600 C607 1.257 . S
C601 O596 1.254 . S
C601 O597 1.269 . S
C602 O603 1.249 . S
C602 O604 1.270 . S
O603 Zn595 1.943 . S
O603 C602 1.249 . S
O604 Zn594 2.067 . S
O604 C602 1.270 . S
C605 O598 1.262 . S
C605 O606 1.232 . S
O606 C605 1.232 . S
C607 O599 1.260 . S
C607 O600 1.257 . S
C608 C609 1.391 . S
C608 C610 1.394 . S
C608 H624 0.931 . S
C609 C608 1.391 . S
C609 C613 1.376 . S
C610 C608 1.394 . S
C610 C611 1.369 . S
C610 C614 1.531 . S
C611 C610 1.369 . S
C611 C612 1.410 . S
C611 C619 1.503 . S
C612 C611 1.410 . S
C612 C613 1.392 . S
C612 C615 1.511 . S
C613 C609 1.376 . S
C613 C612 1.392 . S
C613 H625 0.929 . S
C614 C610 1.531 . S
C614 H626 0.960 . S
C614 H627 0.962 . S
C614 H628 0.960 . S
C615 C612 1.511 . S
C615 H629 0.961 . S
C615 H630 0.961 . S
C615 H631 0.961 . S
C616 C617 1.370 . S
C616 C618 1.363 . S
C616 H632 0.931 . S
C617 C616 1.370 . S
C617 C621 1.408 . S
C618 C616 1.363 . S
C618 C619 1.370 . S
C618 C622 1.524 . S
C619 C611 1.503 . S
C619 C618 1.370 . S
C619 C620 1.403 . S
C620 C619 1.403 . S
C620 C621 1.404 . S
C620 C623 1.539 . S
C621 C617 1.408 . S
C621 C620 1.404 . S
C621 H633 0.930 . S
C622 C618 1.524 . S
C622 H634 0.956 . S
C622 H635 0.961 . S
C622 H636 0.961 . S
C623 C620 1.539 . S
C623 H637 0.958 . S
C623 H638 0.961 . S
C623 H639 0.960 . S
H624 C608 0.931 . S
H625 C613 0.929 . S
H626 C614 0.960 . S
H627 C614 0.962 . S
H628 C614 0.960 . S
H629 C615 0.961 . S
H630 C615 0.961 . S
H631 C615 0.961 . S
H632 C616 0.931 . S
H633 C621 0.930 . S
H634 C622 0.956 . S
H635 C622 0.961 . S
H636 C622 0.961 . S
H637 C623 0.958 . S
H638 C623 0.961 . S
H639 C623 0.960 . S
C640 C641 1.391 . S
C640 C642 1.394 . S
C640 H656 0.931 . S
C641 C640 1.391 . S
C641 C645 1.376 . S
C642 C640 1.394 . S
C642 C643 1.369 . S
C642 C646 1.531 . S
C643 C642 1.369 . S
C643 C644 1.410 . S
C643 C651 1.503 . S
C644 C643 1.410 . S
C644 C645 1.392 . S
C644 C647 1.511 . S
C645 C641 1.376 . S
C645 C644 1.392 . S
C645 H657 0.929 . S
C646 C642 1.531 . S
C646 H658 0.960 . S
C646 H659 0.962 . S
C646 H660 0.960 . S
C647 C644 1.511 . S
C647 H661 0.961 . S
C647 H662 0.961 . S
C647 H663 0.961 . S
C648 C649 1.370 . S
C648 C650 1.363 . S
C648 H664 0.931 . S
C649 C648 1.370 . S
C649 C653 1.408 . S
C650 C648 1.363 . S
C650 C651 1.370 . S
C650 C654 1.524 . S
C651 C643 1.503 . S
C651 C650 1.370 . S
C651 C652 1.403 . S
C652 C651 1.403 . S
C652 C653 1.404 . S
C652 C655 1.539 . S
C653 C649 1.408 . S
C653 C652 1.404 . S
C653 H665 0.930 . S
C654 C650 1.524 . S
C654 H666 0.956 . S
C654 H667 0.961 . S
C654 H668 0.961 . S
C655 C652 1.539 . S
C655 H669 0.958 . S
C655 H670 0.961 . S
C655 H671 0.960 . S
H656 C640 0.931 . S
H657 C645 0.929 . S
H658 C646 0.960 . S
H659 C646 0.962 . S
H660 C646 0.960 . S
H661 C647 0.961 . S
H662 C647 0.961 . S
H663 C647 0.961 . S
H664 C648 0.931 . S
H665 C653 0.930 . S
H666 C654 0.956 . S
H667 C654 0.961 . S
H668 C654 0.961 . S
H669 C655 0.958 . S
H670 C655 0.961 . S
H671 C655 0.960 . S
C672 C673 1.391 . S
C672 C674 1.394 . S
C672 H688 0.931 . S
C673 C672 1.391 . S
C673 C677 1.376 . S
C674 C672 1.394 . S
C674 C675 1.369 . S
C674 C678 1.531 . S
C675 C674 1.369 . S
C675 C676 1.410 . S
C675 C683 1.503 . S
C676 C675 1.410 . S
C676 C677 1.392 . S
C676 C679 1.511 . S
C677 C673 1.376 . S
C677 C676 1.392 . S
C677 H689 0.929 . S
C678 C674 1.531 . S
C678 H690 0.960 . S
C678 H691 0.962 . S
C678 H692 0.960 . S
C679 C676 1.511 . S
C679 H693 0.961 . S
C679 H694 0.961 . S
C679 H695 0.961 . S
C680 C681 1.370 . S
C680 C682 1.363 . S
C680 H696 0.931 . S
C681 C680 1.370 . S
C681 C685 1.408 . S
C682 C680 1.363 . S
C682 C683 1.370 . S
C682 C686 1.524 . S
C683 C675 1.503 . S
C683 C682 1.370 . S
C683 C684 1.403 . S
C684 C683 1.403 . S
C684 C685 1.404 . S
C684 C687 1.539 . S
C685 C681 1.408 . S
C685 C684 1.404 . S
C685 H697 0.930 . S
C686 C682 1.524 . S
C686 H698 0.956 . S
C686 H699 0.961 . S
C686 H700 0.961 . S
C687 C684 1.539 . S
C687 H701 0.958 . S
C687 H702 0.961 . S
C687 H703 0.960 . S
H688 C672 0.931 . S
H689 C677 0.929 . S
H690 C678 0.960 . S
H691 C678 0.962 . S
H692 C678 0.960 . S
H693 C679 0.961 . S
H694 C679 0.961 . S
H695 C679 0.961 . S
H696 C680 0.931 . S
H697 C685 0.930 . S
H698 C686 0.956 . S
H699 C686 0.961 . S
H700 C686 0.961 . S
H701 C687 0.958 . S
H702 C687 0.961 . S
H703 C687 0.960 . S
C704 C705 1.434 . S
C704 C706 1.398 . S
C704 H720 0.885 1_554 S
C705 C704 1.434 . S
C705 C709 1.376 . S
C706 C704 1.398 . S
C706 C707 1.369 . S
C706 C710 1.531 1_554 S
C707 C706 1.369 . S
C707 C708 1.410 . S
C707 C715 1.503 . S
C708 C707 1.410 . S
C708 C709 1.392 . S
C708 C711 1.511 . S
C709 C705 1.376 . S
C709 C708 1.392 . S
C709 H721 0.929 . S
C710 C706 1.531 1_556 S
C710 H722 0.960 . S
C710 H723 0.962 . S
C710 H724 0.960 . S
C711 C708 1.511 . S
C711 H725 0.961 . S
C711 H726 0.961 . S
C711 H727 0.961 . S
C712 C713 1.370 . S
C712 C714 1.363 . S
C712 H728 0.931 . S
C713 C712 1.370 . S
C713 C717 1.408 . S
C714 C712 1.363 . S
C714 C715 1.370 . S
C714 C718 1.524 . S
C715 C707 1.503 . S
C715 C714 1.370 . S
C715 C716 1.403 . S
C716 C715 1.403 . S
C716 C717 1.404 . S
C716 C719 1.539 . S
C717 C713 1.408 . S
C717 C716 1.404 . S
C717 H729 0.930 . S
C718 C714 1.524 . S
C718 H730 0.956 . S
C718 H731 0.961 . S
C718 H732 0.961 . S
C719 C716 1.539 . S
C719 H733 0.958 . S
C719 H734 0.961 . S
C719 H735 0.960 . S
H720 C704 0.885 1_556 S
H721 C709 0.929 . S
H722 C710 0.960 . S
H723 C710 0.962 . S
H724 C710 0.960 . S
H725 C711 0.961 . S
H726 C711 0.961 . S
H727 C711 0.961 . S
H728 C712 0.931 . S
H729 C717 0.930 . S
H730 C718 0.956 . S
H731 C718 0.961 . S
H732 C718 0.961 . S
H733 C719 0.958 . S
H734 C719 0.961 . S
H735 C719 0.960 . S
C736 C737 1.391 . S
C736 C738 1.394 . S
C736 H752 0.931 . S
C737 C736 1.391 . S
C737 C741 1.376 . S
C738 C736 1.394 . S
C738 C739 1.369 . S
C738 C742 1.531 . S
C739 C738 1.369 . S
C739 C740 1.410 . S
C739 C747 1.503 . S
C740 C739 1.410 . S
C740 C741 1.392 . S
C740 C743 1.511 . S
C741 C737 1.376 . S
C741 C740 1.392 . S
C741 H753 0.929 . S
C742 C738 1.531 . S
C742 H754 0.960 . S
C742 H755 0.962 1_554 S
C742 H756 0.960 . S
C743 C740 1.511 . S
C743 H757 0.961 . S
C743 H758 0.961 . S
C743 H759 0.961 . S
C744 C745 1.370 1_556 S
C744 C746 1.363 . S
C744 H760 0.931 . S
C745 C744 1.370 1_554 S
C745 C749 1.408 . S
C746 C744 1.363 . S
C746 C747 1.370 1_556 S
C746 C750 1.524 . S
C747 C739 1.503 . S
C747 C746 1.370 1_554 S
C747 C748 1.403 . S
C748 C747 1.403 . S
C748 C749 1.404 . S
C748 C751 1.539 . S
C749 C745 1.408 . S
C749 C748 1.404 . S
C749 H761 0.930 . S
C750 C746 1.524 . S
C750 H762 0.956 . S
C750 H763 0.961 . S
C750 H764 0.961 . S
C751 C748 1.539 . S
C751 H765 0.958 . S
C751 H766 0.961 . S
C751 H767 0.960 . S
H752 C736 0.931 . S
H753 C741 0.929 . S
H754 C742 0.960 . S
H755 C742 0.962 1_556 S
H756 C742 0.960 . S
H757 C743 0.961 . S
H758 C743 0.961 . S
H759 C743 0.961 . S
H760 C744 0.931 . S
H761 C749 0.930 . S
H762 C750 0.956 . S
H763 C750 0.961 . S
H764 C750 0.961 . S
H765 C751 0.958 . S
H766 C751 0.961 . S
H767 C751 0.960 . S
C768 C769 1.391 . S
C768 C770 1.394 . S
C768 H784 0.931 . S
C769 C768 1.391 . S
C769 C773 1.376 . S
C770 C768 1.394 . S
C770 C771 1.369 . S
C770 C774 1.531 . S
C771 C770 1.369 . S
C771 C772 1.410 . S
C771 C779 1.503 . S
C772 C771 1.410 . S
C772 C773 1.392 . S
C772 C775 1.511 . S
C773 C769 1.376 . S
C773 C772 1.392 . S
C773 H785 0.929 . S
C774 C770 1.531 . S
C774 H786 0.960 . S
C774 H787 0.962 . S
C774 H788 0.960 . S
C775 C772 1.511 . S
C775 H789 0.961 . S
C775 H790 0.961 . S
C775 H791 0.961 . S
C776 C777 1.370 . S
C776 C778 1.363 . S
C776 H792 0.931 . S
C777 C776 1.370 . S
C777 C781 1.408 . S
C778 C776 1.363 . S
C778 C779 1.370 . S
C778 C782 1.524 . S
C779 C771 1.503 . S
C779 C778 1.370 . S
C779 C780 1.403 . S
C780 C779 1.403 . S
C780 C781 1.404 . S
C780 C783 1.539 . S
C781 C777 1.408 . S
C781 C780 1.404 . S
C781 H793 0.930 . S
C782 C778 1.524 . S
C782 H794 0.956 . S
C782 H795 0.961 . S
C782 H796 0.961 . S
C783 C780 1.539 . S
C783 H797 0.958 . S
C783 H798 0.961 . S
C783 H799 0.960 . S
H784 C768 0.931 . S
H785 C773 0.929 . S
H786 C774 0.960 . S
H787 C774 0.962 . S
H788 C774 0.960 . S
H789 C775 0.961 . S
H790 C775 0.961 . S
H791 C775 0.961 . S
H792 C776 0.931 . S
H793 C781 0.930 . S
H794 C782 0.956 . S
H795 C782 0.961 . S
H796 C782 0.961 . S
H797 C783 0.958 . S
H798 C783 0.961 . S
H799 C783 0.960 . S
C800 C801 1.391 . S
C800 C802 1.394 . S
C800 H816 0.931 . S
C801 C800 1.391 . S
C801 C805 1.376 . S
C802 C800 1.394 . S
C802 C803 1.369 . S
C802 C806 1.531 . S
C803 C802 1.369 . S
C803 C804 1.410 . S
C803 C811 1.503 . S
C804 C803 1.410 . S
C804 C805 1.392 . S
C804 C807 1.511 . S
C805 C801 1.376 . S
C805 C804 1.392 . S
C805 H817 0.929 . S
C806 C802 1.531 . S
C806 H818 0.960 . S
C806 H819 0.962 . S
C806 H820 0.960 . S
C807 C804 1.511 . S
C807 H821 0.961 . S
C807 H822 0.961 . S
C807 H823 0.961 . S
C808 C809 1.370 . S
C808 C810 1.363 . S
C808 H824 0.931 . S
C809 C808 1.370 . S
C809 C813 1.408 . S
C810 C808 1.363 . S
C810 C811 1.370 . S
C810 C814 1.524 . S
C811 C803 1.503 . S
C811 C810 1.370 . S
C811 C812 1.403 . S
C812 C811 1.403 . S
C812 C813 1.404 . S
C812 C815 1.539 . S
C813 C809 1.408 . S
C813 C812 1.404 . S
C813 H825 0.930 . S
C814 C810 1.524 . S
C814 H826 0.956 . S
C814 H827 0.961 . S
C814 H828 0.961 . S
C815 C812 1.539 . S
C815 H829 0.958 . S
C815 H830 0.961 . S
C815 H831 0.960 . S
H816 C800 0.931 . S
H817 C805 0.929 . S
H818 C806 0.960 . S
H819 C806 0.962 . S
H820 C806 0.960 . S
H821 C807 0.961 . S
H822 C807 0.961 . S
H823 C807 0.961 . S
H824 C808 0.931 . S
H825 C813 0.930 . S
H826 C814 0.956 . S
H827 C814 0.961 . S
H828 C814 0.961 . S
H829 C815 0.958 . S
H830 C815 0.961 . S
H831 C815 0.960 . S
C832 C833 1.391 . S
C832 C834 1.394 . S
C832 H848 0.931 . S
C833 C832 1.391 . S
C833 C837 1.376 . S
C834 C832 1.394 . S
C834 C835 1.369 . S
C834 C838 1.531 . S
C835 C834 1.369 . S
C835 C836 1.410 . S
C835 C843 1.503 . S
C836 C835 1.410 . S
C836 C837 1.392 . S
C836 C839 1.511 . S
C837 C833 1.376 . S
C837 C836 1.392 . S
C837 H849 0.929 . S
C838 C834 1.531 . S
C838 H850 0.960 . S
C838 H851 0.962 . S
C838 H852 0.960 . S
C839 C836 1.511 . S
C839 H853 0.961 . S
C839 H854 0.961 . S
C839 H855 0.961 . S
C840 C841 1.370 . S
C840 C842 1.363 . S
C840 H856 0.931 . S
C841 C840 1.370 . S
C841 C845 1.408 . S
C842 C840 1.363 . S
C842 C843 1.370 . S
C842 C846 1.524 . S
C843 C835 1.503 . S
C843 C842 1.370 . S
C843 C844 1.403 . S
C844 C843 1.403 . S
C844 C845 1.404 . S
C844 C847 1.539 . S
C845 C841 1.408 . S
C845 C844 1.404 . S
C845 H857 0.930 . S
C846 C842 1.524 . S
C846 H858 0.956 . S
C846 H859 0.961 . S
C846 H860 0.961 . S
C847 C844 1.539 . S
C847 H861 0.958 . S
C847 H862 0.961 . S
C847 H863 0.960 . S
H848 C832 0.931 . S
H849 C837 0.929 . S
H850 C838 0.960 . S
H851 C838 0.962 . S
H852 C838 0.960 . S
H853 C839 0.961 . S
H854 C839 0.961 . S
H855 C839 0.961 . S
H856 C840 0.931 . S
H857 C845 0.930 . S
H858 C846 0.956 . S
H859 C846 0.961 . S
H860 C846 0.961 . S
H861 C847 0.958 . S
H862 C847 0.961 . S
H863 C847 0.960 . S
C864 C865 1.391 . S
C864 C866 1.394 . S
C864 H880 0.931 . S
C865 C864 1.391 . S
C865 C869 1.376 . S
C866 C864 1.394 . S
C866 C867 1.369 . S
C866 C870 1.531 . S
C867 C866 1.369 . S
C867 C868 1.410 . S
C867 C875 1.503 . S
C868 C867 1.410 . S
C868 C869 1.392 . S
C868 C871 1.511 . S
C869 C865 1.376 . S
C869 C868 1.392 . S
C869 H881 0.929 . S
C870 C866 1.531 . S
C870 H882 0.960 . S
C870 H883 0.962 . S
C870 H884 0.960 . S
C871 C868 1.511 . S
C871 H885 0.961 . S
C871 H886 0.961 . S
C871 H887 0.961 . S
C872 C873 1.370 . S
C872 C874 1.363 . S
C872 H888 0.931 . S
C873 C872 1.370 . S
C873 C877 1.408 . S
C874 C872 1.363 . S
C874 C875 1.370 . S
C874 C878 1.524 . S
C875 C867 1.503 . S
C875 C874 1.370 . S
C875 C876 1.403 . S
C876 C875 1.403 . S
C876 C877 1.404 . S
C876 C879 1.539 . S
C877 C873 1.408 . S
C877 C876 1.404 . S
C877 H889 0.930 . S
C878 C874 1.524 . S
C878 H890 0.956 . S
C878 H891 0.961 . S
C878 H892 0.961 . S
C879 C876 1.539 . S
C879 H893 0.958 . S
C879 H894 0.961 . S
C879 H895 0.960 . S
H880 C864 0.931 . S
H881 C869 0.929 . S
H882 C870 0.960 . S
H883 C870 0.962 . S
H884 C870 0.960 . S
H885 C871 0.961 . S
H886 C871 0.961 . S
H887 C871 0.961 . S
H888 C872 0.931 . S
H889 C877 0.930 . S
H890 C878 0.956 . S
H891 C878 0.961 . S
H892 C878 0.961 . S
H893 C879 0.958 . S
H894 C879 0.961 . S
H895 C879 0.960 . S
C896 C897 1.391 . S
C896 C898 1.394 . S
C896 H912 0.931 . S
C897 C896 1.391 . S
C897 C901 1.376 . S
C898 C896 1.394 . S
C898 C899 1.369 . S
C898 C902 1.531 . S
C899 C898 1.369 . S
C899 C900 1.410 . S
C899 C907 1.503 . S
C900 C899 1.410 . S
C900 C901 1.392 . S
C900 C903 1.511 . S
C901 C897 1.376 . S
C901 C900 1.392 . S
C901 H913 0.929 . S
C902 C898 1.531 . S
C902 H914 0.960 . S
C902 H915 0.962 . S
C902 H916 0.960 . S
C903 C900 1.511 . S
C903 H917 0.961 1_554 S
C903 H918 0.961 1_554 S
C903 H919 0.961 . S
C904 C905 1.370 1_556 S
C904 C906 1.374 . S
C904 H920 0.931 . S
C905 C904 1.370 1_554 S
C905 C909 1.408 . S
C906 C904 1.374 . S
C906 C907 1.319 1_556 S
C906 C910 1.568 . S
C907 C899 1.503 . S
C907 C906 1.319 1_554 S
C907 C908 1.403 . S
C908 C907 1.403 . S
C908 C909 1.404 . S
C908 C911 1.539 . S
C909 C905 1.408 . S
C909 C908 1.404 . S
C909 H921 0.930 . S
C910 C906 1.568 . S
C910 H922 0.956 . S
C910 H923 0.961 . S
C910 H924 0.961 . S
C911 C908 1.539 . S
C911 H925 0.958 . S
C911 H926 0.961 . S
C911 H927 0.960 . S
H912 C896 0.931 . S
H913 C901 0.929 . S
H914 C902 0.960 . S
H915 C902 0.962 . S
H916 C902 0.960 . S
H917 C903 0.961 1_556 S
H918 C903 0.961 1_556 S
H919 C903 0.961 . S
H920 C904 0.931 . S
H921 C909 0.930 . S
H922 C910 0.956 . S
H923 C910 0.961 . S
H924 C910 0.961 . S
H925 C911 0.958 . S
H926 C911 0.961 . S
H927 C911 0.960 . S
C928 C929 1.391 . S
C928 C930 1.394 . S
C928 H944 0.931 . S
C929 C928 1.391 . S
C929 C933 1.376 . S
C930 C928 1.394 . S
C930 C931 1.369 . S
C930 C934 1.531 . S
C931 C930 1.369 . S
C931 C932 1.410 . S
C931 C939 1.503 . S
C932 C931 1.410 . S
C932 C933 1.392 . S
C932 C935 1.511 . S
C933 C929 1.376 . S
C933 C932 1.392 . S
C933 H945 0.929 . S
C934 C930 1.531 . S
C934 H946 0.960 . S
C934 H947 0.962 . S
C934 H948 0.960 . S
C935 C932 1.511 . S
C935 H949 0.961 . S
C935 H950 0.961 . S
C935 H951 0.961 . S
C936 C937 1.370 . S
C936 C938 1.363 . S
C936 H952 0.931 . S
C937 C936 1.370 . S
C937 C941 1.408 . S
C938 C936 1.363 . S
C938 C939 1.370 . S
C938 C942 1.524 . S
C939 C931 1.503 . S
C939 C938 1.370 . S
C939 C940 1.403 . S
C940 C939 1.403 . S
C940 C941 1.404 . S
C940 C943 1.539 . S
C941 C937 1.408 . S
C941 C940 1.404 . S
C941 H953 0.930 . S
C942 C938 1.524 . S
C942 H954 0.956 . S
C942 H955 0.961 . S
C942 H956 0.961 . S
C943 C940 1.539 . S
C943 H957 0.958 . S
C943 H958 0.961 . S
C943 H959 0.960 . S
H944 C928 0.931 . S
H945 C933 0.929 . S
H946 C934 0.960 . S
H947 C934 0.962 . S
H948 C934 0.960 . S
H949 C935 0.961 . S
H950 C935 0.961 . S
H951 C935 0.961 . S
H952 C936 0.931 . S
H953 C941 0.930 . S
H954 C942 0.956 . S
H955 C942 0.961 . S
H956 C942 0.961 . S
H957 C943 0.958 . S
H958 C943 0.961 . S
H959 C943 0.960 . S
C960 C961 1.391 . S
C960 C962 1.394 . S
C960 H976 0.931 . S
C961 C960 1.391 . S
C961 C965 1.376 . S
C962 C960 1.394 . S
C962 C963 1.369 . S
C962 C966 1.531 . S
C963 C962 1.369 . S
C963 C964 1.410 . S
C963 C971 1.503 . S
C964 C963 1.410 . S
C964 C965 1.392 . S
C964 C967 1.511 . S
C965 C961 1.376 . S
C965 C964 1.392 . S
C965 H977 0.929 . S
C966 C962 1.531 . S
C966 H978 0.960 . S
C966 H979 0.962 . S
C966 H980 0.960 . S
C967 C964 1.511 . S
C967 H981 0.961 . S
C967 H982 0.961 . S
C967 H983 0.961 . S
C968 C969 1.370 . S
C968 C970 1.363 . S
C968 H984 0.931 . S
C969 C968 1.370 . S
C969 C973 1.408 . S
C970 C968 1.363 . S
C970 C971 1.370 . S
C970 C974 1.524 . S
C971 C963 1.503 . S
C971 C970 1.370 . S
C971 C972 1.403 . S
C972 C971 1.403 . S
C972 C973 1.404 . S
C972 C975 1.539 . S
C973 C969 1.408 . S
C973 C972 1.404 . S
C973 H985 0.930 . S
C974 C970 1.524 . S
C974 H986 0.956 . S
C974 H987 0.961 . S
C974 H988 0.961 . S
C975 C972 1.539 . S
C975 H989 0.958 . S
C975 H990 0.961 . S
C975 H991 0.960 . S
H976 C960 0.931 . S
H977 C965 0.929 . S
H978 C966 0.960 . S
H979 C966 0.962 . S
H980 C966 0.960 . S
H981 C967 0.961 . S
H982 C967 0.961 . S
H983 C967 0.961 . S
H984 C968 0.931 . S
H985 C973 0.930 . S
H986 C974 0.956 . S
H987 C974 0.961 . S
H988 C974 0.961 . S
H989 C975 0.958 . S
H990 C975 0.961 . S
H991 C975 0.960 . S
C992 C993 1.391 . S
C992 C994 1.394 . S
C992 H1008 0.931 . S
C993 C992 1.391 . S
C993 C997 1.376 . S
C994 C992 1.394 . S
C994 C995 1.369 . S
C994 C998 1.531 . S
C995 C994 1.369 . S
C995 C996 1.410 . S
C995 C1003 1.503 . S
C996 C995 1.410 . S
C996 C997 1.392 . S
C996 C999 1.511 . S
C997 C993 1.376 . S
C997 C996 1.392 . S
C997 H1009 0.929 . S
C998 C994 1.531 . S
C998 H1010 0.960 . S
C998 H1011 0.962 . S
C998 H1012 0.960 . S
C999 C996 1.511 . S
C999 H1013 0.961 . S
C999 H1014 0.961 . S
C999 H1015 0.961 . S
C1000 C1001 1.370 . S
C1000 C1002 1.363 . S
C1000 H1016 0.931 . S
C1001 C1000 1.370 . S
C1001 C1005 1.408 . S
C1002 C1000 1.363 . S
C1002 C1003 1.370 . S
C1002 C1006 1.524 . S
C1003 C995 1.503 . S
C1003 C1002 1.370 . S
C1003 C1004 1.403 . S
C1004 C1003 1.403 . S
C1004 C1005 1.404 . S
C1004 C1007 1.539 . S
C1005 C1001 1.408 . S
C1005 C1004 1.404 . S
C1005 H1017 0.930 . S
C1006 C1002 1.524 . S
C1006 H1018 0.956 . S
C1006 H1019 0.961 . S
C1006 H1020 0.961 . S
C1007 C1004 1.539 . S
C1007 H1021 0.958 . S
C1007 H1022 0.961 . S
C1007 H1023 0.960 . S
H1008 C992 0.931 . S
H1009 C997 0.929 . S
H1010 C998 0.960 . S
H1011 C998 0.962 . S
H1012 C998 0.960 . S
H1013 C999 0.961 . S
H1014 C999 0.961 . S
H1015 C999 0.961 . S
H1016 C1000 0.931 . S
H1017 C1005 0.930 . S
H1018 C1006 0.956 . S
H1019 C1006 0.961 . S
H1020 C1006 0.961 . S
H1021 C1007 0.958 . S
H1022 C1007 0.961 . S
H1023 C1007 0.960 . S
C1024 C1025 1.391 . S
C1024 C1026 1.394 . S
C1024 H1040 0.931 . S
C1025 C1024 1.391 . S
C1025 C1029 1.376 . S
C1026 C1024 1.394 . S
C1026 C1027 1.369 . S
C1026 C1030 1.531 . S
C1027 C1026 1.369 . S
C1027 C1028 1.410 . S
C1027 C1035 1.503 . S
C1028 C1027 1.410 . S
C1028 C1029 1.392 . S
C1028 C1031 1.511 . S
C1029 C1025 1.376 . S
C1029 C1028 1.392 . S
C1029 H1041 0.929 . S
C1030 C1026 1.531 . S
C1030 H1042 0.960 . S
C1030 H1043 0.962 . S
C1030 H1044 0.960 . S
C1031 C1028 1.511 . S
C1031 H1045 0.961 . S
C1031 H1046 0.961 . S
C1031 H1047 0.961 . S
C1032 C1033 1.370 . S
C1032 C1034 1.363 . S
C1032 H1048 0.931 . S
C1033 C1032 1.370 . S
C1033 C1037 1.408 . S
C1034 C1032 1.363 . S
C1034 C1035 1.370 . S
C1034 C1038 1.524 . S
C1035 C1027 1.503 . S
C1035 C1034 1.370 . S
C1035 C1036 1.403 . S
C1036 C1035 1.403 . S
C1036 C1037 1.404 . S
C1036 C1039 1.539 . S
C1037 C1033 1.408 . S
C1037 C1036 1.404 . S
C1037 H1049 0.930 . S
C1038 C1034 1.524 . S
C1038 H1050 0.956 . S
C1038 H1051 0.961 . S
C1038 H1052 0.961 . S
C1039 C1036 1.539 . S
C1039 H1053 0.958 . S
C1039 H1054 0.961 . S
C1039 H1055 0.960 . S
H1040 C1024 0.931 . S
H1041 C1029 0.929 . S
H1042 C1030 0.960 . S
H1043 C1030 0.962 . S
H1044 C1030 0.960 . S
H1045 C1031 0.961 . S
H1046 C1031 0.961 . S
H1047 C1031 0.961 . S
H1048 C1032 0.931 . S
H1049 C1037 0.930 . S
H1050 C1038 0.956 . S
H1051 C1038 0.961 . S
H1052 C1038 0.961 . S
H1053 C1039 0.958 . S
H1054 C1039 0.961 . S
H1055 C1039 0.960 . S
C1056 C1057 1.391 . S
C1056 C1058 1.394 . S
C1056 H1072 0.931 . S
C1057 C1056 1.391 . S
C1057 C1061 1.376 . S
C1058 C1056 1.394 . S
C1058 C1059 1.369 . S
C1058 C1062 1.531 . S
C1059 C1058 1.369 . S
C1059 C1060 1.410 . S
C1059 C1067 1.503 . S
C1060 C1059 1.410 . S
C1060 C1061 1.392 . S
C1060 C1063 1.511 . S
C1061 C1057 1.376 . S
C1061 C1060 1.392 . S
C1061 H1073 0.929 . S
C1062 C1058 1.531 . S
C1062 H1074 0.960 . S
C1062 H1075 0.962 . S
C1062 H1076 0.960 . S
C1063 C1060 1.511 . S
C1063 H1077 0.961 1_556 S
C1063 H1078 0.937 1_556 S
C1063 H1079 0.961 . S
C1064 C1065 1.370 1_554 S
C1064 C1066 1.363 . S
C1064 H1080 0.931 . S
C1065 C1064 1.370 1_556 S
C1065 C1069 1.408 . S
C1066 C1064 1.363 . S
C1066 C1067 1.370 1_554 S
C1066 C1070 1.524 . S
C1067 C1059 1.503 . S
C1067 C1066 1.370 1_556 S
C1067 C1068 1.403 . S
C1068 C1067 1.403 . S
C1068 C1069 1.404 . S
C1068 C1071 1.539 . S
C1069 C1065 1.408 . S
C1069 C1068 1.404 . S
C1069 H1081 0.930 . S
C1070 C1066 1.524 . S
C1070 H1082 0.956 . S
C1070 H1083 0.961 . S
C1070 H1084 0.961 . S
C1071 C1068 1.539 . S
C1071 H1085 0.958 . S
C1071 H1086 0.961 . S
C1071 H1087 0.960 . S
H1072 C1056 0.931 . S
H1073 C1061 0.929 . S
H1074 C1062 0.960 . S
H1075 C1062 0.962 . S
H1076 C1062 0.960 . S
H1077 C1063 0.961 1_554 S
H1078 C1063 0.937 1_554 S
H1079 C1063 0.961 . S
H1080 C1064 0.931 . S
H1081 C1069 0.930 . S
H1082 C1070 0.956 . S
H1083 C1070 0.961 . S
H1084 C1070 0.961 . S
H1085 C1071 0.958 . S
H1086 C1071 0.961 . S
H1087 C1071 0.960 . S
C1088 C1089 1.391 . S
C1088 C1090 1.394 . S
C1088 H1104 0.931 . S
C1089 C1088 1.391 . S
C1089 C1093 1.376 . S
C1090 C1088 1.394 . S
C1090 C1091 1.369 . S
C1090 C1094 1.531 . S
C1091 C1090 1.369 . S
C1091 C1092 1.410 . S
C1091 C1099 1.503 . S
C1092 C1091 1.410 . S
C1092 C1093 1.392 . S
C1092 C1095 1.511 . S
C1093 C1089 1.376 . S
C1093 C1092 1.392 . S
C1093 H1105 0.929 . S
C1094 C1090 1.531 . S
C1094 H1106 0.960 . S
C1094 H1107 0.962 . S
C1094 H1108 0.960 . S
C1095 C1092 1.511 . S
C1095 H1109 0.961 . S
C1095 H1110 0.961 . S
C1095 H1111 0.961 . S
C1096 C1097 1.370 . S
C1096 C1098 1.363 . S
C1096 H1112 0.931 . S
C1097 C1096 1.370 . S
C1097 C1101 1.408 . S
C1098 C1096 1.363 . S
C1098 C1099 1.370 . S
C1098 C1102 1.524 . S
C1099 C1091 1.503 . S
C1099 C1098 1.370 . S
C1099 C1100 1.403 . S
C1100 C1099 1.403 . S
C1100 C1101 1.404 . S
C1100 C1103 1.539 . S
C1101 C1097 1.408 . S
C1101 C1100 1.404 . S
C1101 H1113 0.930 . S
C1102 C1098 1.524 . S
C1102 H1114 0.956 . S
C1102 H1115 0.961 . S
C1102 H1116 0.961 . S
C1103 C1100 1.539 . S
C1103 H1117 0.958 . S
C1103 H1118 0.961 . S
C1103 H1119 0.960 . S
H1104 C1088 0.931 . S
H1105 C1093 0.929 . S
H1106 C1094 0.960 . S
H1107 C1094 0.962 . S
H1108 C1094 0.960 . S
H1109 C1095 0.961 . S
H1110 C1095 0.961 . S
H1111 C1095 0.961 . S
H1112 C1096 0.931 . S
H1113 C1101 0.930 . S
H1114 C1102 0.956 . S
H1115 C1102 0.961 . S
H1116 C1102 0.961 . S
H1117 C1103 0.958 . S
H1118 C1103 0.961 . S
H1119 C1103 0.960 . S
C1120 C1121 1.391 . S
C1120 C1122 1.394 . S
C1120 H1136 0.931 . S
C1121 C1120 1.391 . S
C1121 C1125 1.376 . S
C1122 C1120 1.394 . S
C1122 C1123 1.369 . S
C1122 C1126 1.531 . S
C1123 C1122 1.369 . S
C1123 C1124 1.410 . S
C1123 C1131 1.503 . S
C1124 C1123 1.410 . S
C1124 C1125 1.392 . S
C1124 C1127 1.511 . S
C1125 C1121 1.376 . S
C1125 C1124 1.392 . S
C1125 H1137 0.929 . S
C1126 C1122 1.531 . S
C1126 H1138 0.960 . S
C1126 H1139 0.962 . S
C1126 H1140 0.960 . S
C1127 C1124 1.511 . S
C1127 H1141 0.961 . S
C1127 H1142 0.961 . S
C1127 H1143 0.961 . S
C1128 C1129 1.370 . S
C1128 C1130 1.363 . S
C1128 H1144 0.931 . S
C1129 C1128 1.370 . S
C1129 C1133 1.408 . S
C1130 C1128 1.363 . S
C1130 C1131 1.370 . S
C1130 C1134 1.524 . S
C1131 C1123 1.503 . S
C1131 C1130 1.370 . S
C1131 C1132 1.403 . S
C1132 C1131 1.403 . S
C1132 C1133 1.404 . S
C1132 C1135 1.539 . S
C1133 C1129 1.408 . S
C1133 C1132 1.404 . S
C1133 H1145 0.930 . S
C1134 C1130 1.524 . S
C1134 H1146 0.956 . S
C1134 H1147 0.961 . S
C1134 H1148 0.961 . S
C1135 C1132 1.539 . S
C1135 H1149 0.958 . S
C1135 H1150 0.961 . S
C1135 H1151 0.960 . S
H1136 C1120 0.931 . S
H1137 C1125 0.929 . S
H1138 C1126 0.960 . S
H1139 C1126 0.962 . S
H1140 C1126 0.960 . S
H1141 C1127 0.961 . S
H1142 C1127 0.961 . S
H1143 C1127 0.961 . S
H1144 C1128 0.931 . S
H1145 C1133 0.930 . S
H1146 C1134 0.956 . S
H1147 C1134 0.961 . S
H1148 C1134 0.961 . S
H1149 C1135 0.958 . S
H1150 C1135 0.961 . S
H1151 C1135 0.960 . S
C1152 C1153 1.391 . S
C1152 C1154 1.394 . S
C1152 H1168 0.931 . S
C1153 C1152 1.391 . S
C1153 C1157 1.376 . S
C1154 C1152 1.394 . S
C1154 C1155 1.369 . S
C1154 C1158 1.531 . S
C1155 C1154 1.369 . S
C1155 C1156 1.410 . S
C1155 C1163 1.503 . S
C1156 C1155 1.410 . S
C1156 C1157 1.392 . S
C1156 C1159 1.511 . S
C1157 C1153 1.376 . S
C1157 C1156 1.392 . S
C1157 H1169 0.929 . S
C1158 C1154 1.531 . S
C1158 H1170 0.960 . S
C1158 H1171 0.962 . S
C1158 H1172 0.960 . S
C1159 C1156 1.511 . S
C1159 H1173 0.961 . S
C1159 H1174 0.961 . S
C1159 H1175 0.961 . S
C1160 C1161 1.370 . S
C1160 C1162 1.363 . S
C1160 H1176 0.931 . S
C1161 C1160 1.370 . S
C1161 C1165 1.408 . S
C1162 C1160 1.363 . S
C1162 C1163 1.370 . S
C1162 C1166 1.524 . S
C1163 C1155 1.503 . S
C1163 C1162 1.370 . S
C1163 C1164 1.403 . S
C1164 C1163 1.403 . S
C1164 C1165 1.404 . S
C1164 C1167 1.539 . S
C1165 C1161 1.408 . S
C1165 C1164 1.404 . S
C1165 H1177 0.930 . S
C1166 C1162 1.524 . S
C1166 H1178 0.956 . S
C1166 H1179 0.961 . S
C1166 H1180 0.961 . S
C1167 C1164 1.539 . S
C1167 H1181 0.958 . S
C1167 H1182 0.961 . S
C1167 H1183 0.960 . S
H1168 C1152 0.931 . S
H1169 C1157 0.929 . S
H1170 C1158 0.960 . S
H1171 C1158 0.962 . S
H1172 C1158 0.960 . S
H1173 C1159 0.961 . S
H1174 C1159 0.961 . S
H1175 C1159 0.961 . S
H1176 C1160 0.931 . S
H1177 C1165 0.930 . S
H1178 C1166 0.956 . S
H1179 C1166 0.961 . S
H1180 C1166 0.961 . S
H1181 C1167 0.958 . S
H1182 C1167 0.961 . S
H1183 C1167 0.960 . S
C1184 C1185 1.391 . S
C1184 C1186 1.394 . S
C1184 H1200 0.931 . S
C1185 C1184 1.391 . S
C1185 C1189 1.376 . S
C1186 C1184 1.394 . S
C1186 C1187 1.369 . S
C1186 C1190 1.531 . S
C1187 C1186 1.369 . S
C1187 C1188 1.410 . S
C1187 C1195 1.503 . S
C1188 C1187 1.410 . S
C1188 C1189 1.392 . S
C1188 C1191 1.511 . S
C1189 C1185 1.376 . S
C1189 C1188 1.392 . S
C1189 H1201 0.929 . S
C1190 C1186 1.531 . S
C1190 H1202 0.960 . S
C1190 H1203 0.962 . S
C1190 H1204 0.960 . S
C1191 C1188 1.511 . S
C1191 H1205 0.961 . S
C1191 H1206 0.961 . S
C1191 H1207 0.961 . S
C1192 C1193 1.370 . S
C1192 C1194 1.363 . S
C1192 H1208 0.931 . S
C1193 C1192 1.370 . S
C1193 C1197 1.408 . S
C1194 C1192 1.363 . S
C1194 C1195 1.370 . S
C1194 C1198 1.524 . S
C1195 C1187 1.503 . S
C1195 C1194 1.370 . S
C1195 C1196 1.403 . S
C1196 C1195 1.403 . S
C1196 C1197 1.404 . S
C1196 C1199 1.539 . S
C1197 C1193 1.408 . S
C1197 C1196 1.404 . S
C1197 H1209 0.930 . S
C1198 C1194 1.524 . S
C1198 H1210 0.956 . S
C1198 H1211 0.961 . S
C1198 H1212 0.961 . S
C1199 C1196 1.539 . S
C1199 H1213 0.958 . S
C1199 H1214 0.961 . S
C1199 H1215 0.960 . S
H1200 C1184 0.931 . S
H1201 C1189 0.929 . S
H1202 C1190 0.960 . S
H1203 C1190 0.962 . S
H1204 C1190 0.960 . S
H1205 C1191 0.961 . S
H1206 C1191 0.961 . S
H1207 C1191 0.961 . S
H1208 C1192 0.931 . S
H1209 C1197 0.930 . S
H1210 C1198 0.956 . S
H1211 C1198 0.961 . S
H1212 C1198 0.961 . S
H1213 C1199 0.958 . S
H1214 C1199 0.961 . S
H1215 C1199 0.960 . S
C1216 C1217 1.391 . S
C1216 C1218 1.394 . S
C1216 H1232 0.931 . S
C1217 C1216 1.391 . S
C1217 C1221 1.376 . S
C1218 C1216 1.394 . S
C1218 C1219 1.369 . S
C1218 C1222 1.531 . S
C1219 C1218 1.369 . S
C1219 C1220 1.410 . S
C1219 C1227 1.503 . S
C1220 C1219 1.410 . S
C1220 C1221 1.392 . S
C1220 C1223 1.511 . S
C1221 C1217 1.376 . S
C1221 C1220 1.392 . S
C1221 H1233 0.929 . S
C1222 C1218 1.531 . S
C1222 H1234 0.960 . S
C1222 H1235 0.962 . S
C1222 H1236 0.960 . S
C1223 C1220 1.511 . S
C1223 H1237 0.961 . S
C1223 H1238 0.961 . S
C1223 H1239 0.961 . S
C1224 C1225 1.370 . S
C1224 C1226 1.363 . S
C1224 H1240 0.931 . S
C1225 C1224 1.370 . S
C1225 C1229 1.408 . S
C1226 C1224 1.363 . S
C1226 C1227 1.370 . S
C1226 C1230 1.524 . S
C1227 C1219 1.503 . S
C1227 C1226 1.370 . S
C1227 C1228 1.403 . S
C1228 C1227 1.403 . S
C1228 C1229 1.404 . S
C1228 C1231 1.539 . S
C1229 C1225 1.408 . S
C1229 C1228 1.404 . S
C1229 H1241 0.930 . S
C1230 C1226 1.524 . S
C1230 H1242 0.956 . S
C1230 H1243 0.961 . S
C1230 H1244 0.961 . S
C1231 C1228 1.539 . S
C1231 H1245 0.958 . S
C1231 H1246 0.961 . S
C1231 H1247 0.960 . S
H1232 C1216 0.931 . S
H1233 C1221 0.929 . S
H1234 C1222 0.960 . S
H1235 C1222 0.962 . S
H1236 C1222 0.960 . S
H1237 C1223 0.961 . S
H1238 C1223 0.961 . S
H1239 C1223 0.961 . S
H1240 C1224 0.931 . S
H1241 C1229 0.930 . S
H1242 C1230 0.956 . S
H1243 C1230 0.961 . S
H1244 C1230 0.961 . S
H1245 C1231 0.958 . S
H1246 C1231 0.961 . S
H1247 C1231 0.960 . S
C1248 C1249 1.391 . S
C1248 C1250 1.394 . S
C1248 H1264 0.931 . S
C1249 C1248 1.391 . S
C1249 C1253 1.376 . S
C1250 C1248 1.394 . S
C1250 C1251 1.369 . S
C1250 C1254 1.531 . S
C1251 C1250 1.369 . S
C1251 C1252 1.410 . S
C1251 C1259 1.503 . S
C1252 C1251 1.410 . S
C1252 C1253 1.392 . S
C1252 C1255 1.511 . S
C1253 C1249 1.376 . S
C1253 C1252 1.392 . S
C1253 H1265 0.929 . S
C1254 C1250 1.531 . S
C1254 H1266 0.960 . S
C1254 H1267 0.962 . S
C1254 H1268 0.960 . S
C1255 C1252 1.511 . S
C1255 H1269 0.961 . S
C1255 H1270 0.961 . S
C1255 H1271 0.961 . S
C1256 C1257 1.370 . S
C1256 C1258 1.363 . S
C1256 H1272 0.931 . S
C1257 C1256 1.370 . S
C1257 C1261 1.408 . S
C1258 C1256 1.363 . S
C1258 C1259 1.370 . S
C1258 C1262 1.524 . S
C1259 C1251 1.503 . S
C1259 C1258 1.370 . S
C1259 C1260 1.403 . S
C1260 C1259 1.403 . S
C1260 C1261 1.404 . S
C1260 C1263 1.539 . S
C1261 C1257 1.408 . S
C1261 C1260 1.404 . S
C1261 H1273 0.930 . S
C1262 C1258 1.524 . S
C1262 H1274 0.956 . S
C1262 H1275 0.961 . S
C1262 H1276 0.961 . S
C1263 C1260 1.539 . S
C1263 H1277 0.958 . S
C1263 H1278 0.961 . S
C1263 H1279 0.960 . S
H1264 C1248 0.931 . S
H1265 C1253 0.929 . S
H1266 C1254 0.960 . S
H1267 C1254 0.962 . S
H1268 C1254 0.960 . S
H1269 C1255 0.961 . S
H1270 C1255 0.961 . S
H1271 C1255 0.961 . S
H1272 C1256 0.931 . S
H1273 C1261 0.930 . S
H1274 C1262 0.956 . S
H1275 C1262 0.961 . S
H1276 C1262 0.961 . S
H1277 C1263 0.958 . S
H1278 C1263 0.961 . S
H1279 C1263 0.960 . S
C1280 C1281 1.391 . S
C1280 C1282 1.394 . S
C1280 H1296 0.931 . S
C1281 C1280 1.391 . S
C1281 C1285 1.376 . S
C1282 C1280 1.394 . S
C1282 C1283 1.369 . S
C1282 C1286 1.531 . S
C1283 C1282 1.369 . S
C1283 C1284 1.410 . S
C1283 C1291 1.503 . S
C1284 C1283 1.410 . S
C1284 C1285 1.392 . S
C1284 C1287 1.511 . S
C1285 C1281 1.376 . S
C1285 C1284 1.392 . S
C1285 H1297 0.929 . S
C1286 C1282 1.531 . S
C1286 H1298 0.960 . S
C1286 H1299 0.962 . S
C1286 H1300 0.960 . S
C1287 C1284 1.511 . S
C1287 H1301 0.961 . S
C1287 H1302 0.961 . S
C1287 H1303 0.961 . S
C1288 C1289 1.370 . S
C1288 C1290 1.363 . S
C1288 H1304 0.931 . S
C1289 C1288 1.370 . S
C1289 C1293 1.408 . S
C1290 C1288 1.363 . S
C1290 C1291 1.370 . S
C1290 C1294 1.524 . S
C1291 C1283 1.503 . S
C1291 C1290 1.370 . S
C1291 C1292 1.403 . S
C1292 C1291 1.403 . S
C1292 C1293 1.404 . S
C1292 C1295 1.539 . S
C1293 C1289 1.408 . S
C1293 C1292 1.404 . S
C1293 H1305 0.930 . S
C1294 C1290 1.524 . S
C1294 H1306 0.956 . S
C1294 H1307 0.961 . S
C1294 H1308 0.961 . S
C1295 C1292 1.539 . S
C1295 H1309 0.958 . S
C1295 H1310 0.961 . S
C1295 H1311 0.960 . S
H1296 C1280 0.931 . S
H1297 C1285 0.929 . S
H1298 C1286 0.960 . S
H1299 C1286 0.962 . S
H1300 C1286 0.960 . S
H1301 C1287 0.961 . S
H1302 C1287 0.961 . S
H1303 C1287 0.961 . S
H1304 C1288 0.931 . S
H1305 C1293 0.930 . S
H1306 C1294 0.956 . S
H1307 C1294 0.961 . S
H1308 C1294 0.961 . S
H1309 C1295 0.958 . S
H1310 C1295 0.961 . S
H1311 C1295 0.960 . S
C1312 C1313 1.391 . S
C1312 C1314 1.394 . S
C1312 H1328 0.931 . S
C1313 C1312 1.391 . S
C1313 C1317 1.376 . S
C1314 C1312 1.394 . S
C1314 C1315 1.369 . S
C1314 C1318 1.531 . S
C1315 C1314 1.369 . S
C1315 C1316 1.410 . S
C1315 C1323 1.503 . S
C1316 C1315 1.410 . S
C1316 C1317 1.392 . S
C1316 C1319 1.511 . S
C1317 C1313 1.376 . S
C1317 C1316 1.392 . S
C1317 H1329 0.929 . S
C1318 C1314 1.531 . S
C1318 H1330 0.960 . S
C1318 H1331 0.962 . S
C1318 H1332 0.960 . S
C1319 C1316 1.511 . S
C1319 H1333 0.961 . S
C1319 H1334 0.961 . S
C1319 H1335 0.961 . S
C1320 C1321 1.370 . S
C1320 C1322 1.363 . S
C1320 H1336 0.931 . S
C1321 C1320 1.370 . S
C1321 C1325 1.408 . S
C1322 C1320 1.363 . S
C1322 C1323 1.370 . S
C1322 C1326 1.524 . S
C1323 C1315 1.503 . S
C1323 C1322 1.370 . S
C1323 C1324 1.403 . S
C1324 C1323 1.403 . S
C1324 C1325 1.404 . S
C1324 C1327 1.539 . S
C1325 C1321 1.408 . S
C1325 C1324 1.404 . S
C1325 H1337 0.930 . S
C1326 C1322 1.524 . S
C1326 H1338 0.956 . S
C1326 H1339 0.961 . S
C1326 H1340 0.961 . S
C1327 C1324 1.539 . S
C1327 H1341 0.958 . S
C1327 H1342 0.961 . S
C1327 H1343 0.960 . S
H1328 C1312 0.931 . S
H1329 C1317 0.929 . S
H1330 C1318 0.960 . S
H1331 C1318 0.962 . S
H1332 C1318 0.960 . S
H1333 C1319 0.961 . S
H1334 C1319 0.961 . S
H1335 C1319 0.961 . S
H1336 C1320 0.931 . S
H1337 C1325 0.930 . S
H1338 C1326 0.956 . S
H1339 C1326 0.961 . S
H1340 C1326 0.961 . S
H1341 C1327 0.958 . S
H1342 C1327 0.961 . S
H1343 C1327 0.960 . S
C1344 C1345 1.391 . S
C1344 C1346 1.394 . S
C1344 H1360 0.931 . S
C1345 C1344 1.391 . S
C1345 C1349 1.376 . S
C1346 C1344 1.394 . S
C1346 C1347 1.369 . S
C1346 C1350 1.531 . S
C1347 C1346 1.369 . S
C1347 C1348 1.410 . S
C1347 C1355 1.503 . S
C1348 C1347 1.410 . S
C1348 C1349 1.392 . S
C1348 C1351 1.511 . S
C1349 C1345 1.376 . S
C1349 C1348 1.392 . S
C1349 H1361 0.929 . S
C1350 C1346 1.531 . S
C1350 H1362 0.960 . S
C1350 H1363 0.962 . S
C1350 H1364 0.960 . S
C1351 C1348 1.511 . S
C1351 H1365 0.961 . S
C1351 H1366 0.961 . S
C1351 H1367 0.961 . S
C1352 C1353 1.370 . S
C1352 C1354 1.363 . S
C1352 H1368 0.931 . S
C1353 C1352 1.370 . S
C1353 C1357 1.408 . S
C1354 C1352 1.363 . S
C1354 C1355 1.370 . S
C1354 C1358 1.524 . S
C1355 C1347 1.503 . S
C1355 C1354 1.370 . S
C1355 C1356 1.403 . S
C1356 C1355 1.403 . S
C1356 C1357 1.404 . S
C1356 C1359 1.539 . S
C1357 C1353 1.408 . S
C1357 C1356 1.404 . S
C1357 H1369 0.930 . S
C1358 C1354 1.524 . S
C1358 H1370 0.956 . S
C1358 H1371 0.961 . S
C1358 H1372 0.961 . S
C1359 C1356 1.539 . S
C1359 H1373 0.958 . S
C1359 H1374 0.961 . S
C1359 H1375 0.960 . S
H1360 C1344 0.931 . S
H1361 C1349 0.929 . S
H1362 C1350 0.960 . S
H1363 C1350 0.962 . S
H1364 C1350 0.960 . S
H1365 C1351 0.961 . S
H1366 C1351 0.961 . S
H1367 C1351 0.961 . S
H1368 C1352 0.931 . S
H1369 C1357 0.930 . S
H1370 C1358 0.956 . S
H1371 C1358 0.961 . S
H1372 C1358 0.961 . S
H1373 C1359 0.958 . S
H1374 C1359 0.961 . S
H1375 C1359 0.960 . S
C1376 C1377 1.391 . S
C1376 C1378 1.394 . S
C1376 H1392 0.931 . S
C1377 C1376 1.391 . S
C1377 C1381 1.376 . S
C1378 C1376 1.394 . S
C1378 C1379 1.369 . S
C1378 C1382 1.531 . S
C1379 C1378 1.369 . S
C1379 C1380 1.410 . S
C1379 C1387 1.503 . S
C1380 C1379 1.410 . S
C1380 C1381 1.392 . S
C1380 C1383 1.511 . S
C1381 C1377 1.376 . S
C1381 C1380 1.392 . S
C1381 H1393 0.929 . S
C1382 C1378 1.531 . S
C1382 H1394 0.960 . S
C1382 H1395 0.962 . S
C1382 H1396 0.960 . S
C1383 C1380 1.511 . S
C1383 H1397 0.961 . S
C1383 H1398 0.961 . S
C1383 H1399 0.961 . S
C1384 C1385 1.370 . S
C1384 C1386 1.363 . S
C1384 H1400 0.931 . S
C1385 C1384 1.370 . S
C1385 C1389 1.408 . S
C1386 C1384 1.363 . S
C1386 C1387 1.370 . S
C1386 C1390 1.524 . S
C1387 C1379 1.503 . S
C1387 C1386 1.370 . S
C1387 C1388 1.403 . S
C1388 C1387 1.403 . S
C1388 C1389 1.404 . S
C1388 C1391 1.539 . S
C1389 C1385 1.408 . S
C1389 C1388 1.404 . S
C1389 H1401 0.930 . S
C1390 C1386 1.524 . S
C1390 H1402 0.956 . S
C1390 H1403 0.961 . S
C1390 H1404 0.961 . S
C1391 C1388 1.539 . S
C1391 H1405 0.958 . S
C1391 H1406 0.961 . S
C1391 H1407 0.960 . S
H1392 C1376 0.931 . S
H1393 C1381 0.929 . S
H1394 C1382 0.960 . S
H1395 C1382 0.962 . S
H1396 C1382 0.960 . S
H1397 C1383 0.961 . S
H1398 C1383 0.961 . S
H1399 C1383 0.961 . S
H1400 C1384 0.931 . S
H1401 C1389 0.930 . S
H1402 C1390 0.956 . S
H1403 C1390 0.961 . S
H1404 C1390 0.961 . S
H1405 C1391 0.958 . S
H1406 C1391 0.961 . S
H1407 C1391 0.960 . S
C1408 C1409 1.391 . S
C1408 C1410 1.394 . S
C1408 H1424 0.931 . S
C1409 C1408 1.391 . S
C1409 C1413 1.376 . S
C1410 C1408 1.394 . S
C1410 C1411 1.369 . S
C1410 C1414 1.531 . S
C1411 C1410 1.369 . S
C1411 C1412 1.410 . S
C1411 C1419 1.503 . S
C1412 C1411 1.410 . S
C1412 C1413 1.392 . S
C1412 C1415 1.511 . S
C1413 C1409 1.376 . S
C1413 C1412 1.392 . S
C1413 H1425 0.929 . S
C1414 C1410 1.531 . S
C1414 H1426 0.960 . S
C1414 H1427 0.962 . S
C1414 H1428 0.960 . S
C1415 C1412 1.511 . S
C1415 H1429 0.961 . S
C1415 H1430 0.961 . S
C1415 H1431 0.961 . S
C1416 C1417 1.370 . S
C1416 C1418 1.363 . S
C1416 H1432 0.931 . S
C1417 C1416 1.370 . S
C1417 C1421 1.408 . S
C1418 C1416 1.363 . S
C1418 C1419 1.370 . S
C1418 C1422 1.524 . S
C1419 C1411 1.503 . S
C1419 C1418 1.370 . S
C1419 C1420 1.403 . S
C1420 C1419 1.403 . S
C1420 C1421 1.404 . S
C1420 C1423 1.539 . S
C1421 C1417 1.408 . S
C1421 C1420 1.404 . S
C1421 H1433 0.930 . S
C1422 C1418 1.524 . S
C1422 H1434 0.956 . S
C1422 H1435 0.961 . S
C1422 H1436 0.961 . S
C1423 C1420 1.539 . S
C1423 H1437 0.958 . S
C1423 H1438 0.961 . S
C1423 H1439 0.960 . S
H1424 C1408 0.931 . S
H1425 C1413 0.929 . S
H1426 C1414 0.960 . S
H1427 C1414 0.962 . S
H1428 C1414 0.960 . S
H1429 C1415 0.961 . S
H1430 C1415 0.961 . S
H1431 C1415 0.961 . S
H1432 C1416 0.931 . S
H1433 C1421 0.930 . S
H1434 C1422 0.956 . S
H1435 C1422 0.961 . S
H1436 C1422 0.961 . S
H1437 C1423 0.958 . S
H1438 C1423 0.961 . S
H1439 C1423 0.960 . S
C1440 C1441 1.391 . S
C1440 C1442 1.394 . S
C1440 H1456 0.931 . S
C1441 C1440 1.391 . S
C1441 C1445 1.376 . S
C1442 C1440 1.394 . S
C1442 C1443 1.369 . S
C1442 C1446 1.531 . S
C1443 C1442 1.369 . S
C1443 C1444 1.410 . S
C1443 C1451 1.503 . S
C1444 C1443 1.410 . S
C1444 C1445 1.392 . S
C1444 C1447 1.511 . S
C1445 C1441 1.376 . S
C1445 C1444 1.392 . S
C1445 H1457 0.929 . S
C1446 C1442 1.531 . S
C1446 H1458 0.960 . S
C1446 H1459 0.962 . S
C1446 H1460 0.960 . S
C1447 C1444 1.511 . S
C1447 H1461 0.961 . S
C1447 H1462 0.961 . S
C1447 H1463 0.961 . S
C1448 C1449 1.370 . S
C1448 C1450 1.363 . S
C1448 H1464 0.931 . S
C1449 C1448 1.370 . S
C1449 C1453 1.408 . S
C1450 C1448 1.363 . S
C1450 C1451 1.370 . S
C1450 C1454 1.524 . S
C1451 C1443 1.503 . S
C1451 C1450 1.370 . S
C1451 C1452 1.403 . S
C1452 C1451 1.403 . S
C1452 C1453 1.404 . S
C1452 C1455 1.539 . S
C1453 C1449 1.408 . S
C1453 C1452 1.404 . S
C1453 H1465 0.930 . S
C1454 C1450 1.524 . S
C1454 H1466 0.956 . S
C1454 H1467 0.961 . S
C1454 H1468 0.961 . S
C1455 C1452 1.539 . S
C1455 H1469 0.958 . S
C1455 H1470 0.961 . S
C1455 H1471 0.960 . S
H1456 C1440 0.931 . S
H1457 C1445 0.929 . S
H1458 C1446 0.960 . S
H1459 C1446 0.962 . S
H1460 C1446 0.960 . S
H1461 C1447 0.961 . S
H1462 C1447 0.961 . S
H1463 C1447 0.961 . S
H1464 C1448 0.931 . S
H1465 C1453 0.930 . S
H1466 C1454 0.956 . S
H1467 C1454 0.961 . S
H1468 C1454 0.961 . S
H1469 C1455 0.958 . S
H1470 C1455 0.961 . S
H1471 C1455 0.960 . S
C1472 C1473 1.391 . S
C1472 C1474 1.394 . S
C1472 H1488 0.931 . S
C1473 C1472 1.391 . S
C1473 C1477 1.376 . S
C1474 C1472 1.394 . S
C1474 C1475 1.369 . S
C1474 C1478 1.531 . S
C1475 C1474 1.369 . S
C1475 C1476 1.410 . S
C1475 C1483 1.503 . S
C1476 C1475 1.410 . S
C1476 C1477 1.392 . S
C1476 C1479 1.511 . S
C1477 C1473 1.376 . S
C1477 C1476 1.392 . S
C1477 H1489 0.929 . S
C1478 C1474 1.531 . S
C1478 H1490 0.960 . S
C1478 H1491 0.962 . S
C1478 H1492 0.960 . S
C1479 C1476 1.511 . S
C1479 H1493 0.961 . S
C1479 H1494 0.961 . S
C1479 H1495 0.961 . S
C1480 C1481 1.370 . S
C1480 C1482 1.363 . S
C1480 H1496 0.931 . S
C1481 C1480 1.370 . S
C1481 C1485 1.408 . S
C1482 C1480 1.363 . S
C1482 C1483 1.370 . S
C1482 C1486 1.524 . S
C1483 C1475 1.503 . S
C1483 C1482 1.370 . S
C1483 C1484 1.403 . S
C1484 C1483 1.403 . S
C1484 C1485 1.404 . S
C1484 C1487 1.539 . S
C1485 C1481 1.408 . S
C1485 C1484 1.404 . S
C1485 H1497 0.930 . S
C1486 C1482 1.524 . S
C1486 H1498 0.956 . S
C1486 H1499 0.961 . S
C1486 H1500 0.961 . S
C1487 C1484 1.539 . S
C1487 H1501 0.958 . S
C1487 H1502 0.961 . S
C1487 H1503 0.960 . S
H1488 C1472 0.931 . S
H1489 C1477 0.929 . S
H1490 C1478 0.960 . S
H1491 C1478 0.962 . S
H1492 C1478 0.960 . S
H1493 C1479 0.961 . S
H1494 C1479 0.961 . S
H1495 C1479 0.961 . S
H1496 C1480 0.931 . S
H1497 C1485 0.930 . S
H1498 C1486 0.956 . S
H1499 C1486 0.961 . S
H1500 C1486 0.961 . S
H1501 C1487 0.958 . S
H1502 C1487 0.961 . S
H1503 C1487 0.960 . S
C1504 C1505 1.391 . S
C1504 C1506 1.394 . S
C1504 H1520 0.931 . S
C1505 C1504 1.391 . S
C1505 C1509 1.376 . S
C1506 C1504 1.394 . S
C1506 C1507 1.369 . S
C1506 C1510 1.531 . S
C1507 C1506 1.369 . S
C1507 C1508 1.410 . S
C1507 C1515 1.503 . S
C1508 C1507 1.410 . S
C1508 C1509 1.392 . S
C1508 C1511 1.511 . S
C1509 C1505 1.376 . S
C1509 C1508 1.392 . S
C1509 H1521 0.929 . S
C1510 C1506 1.531 . S
C1510 H1522 0.960 . S
C1510 H1523 0.962 . S
C1510 H1524 0.960 . S
C1511 C1508 1.511 . S
C1511 H1525 0.961 . S
C1511 H1526 0.961 . S
C1511 H1527 0.961 . S
C1512 C1513 1.370 . S
C1512 C1514 1.363 . S
C1512 H1528 0.931 . S
C1513 C1512 1.370 . S
C1513 C1517 1.408 . S
C1514 C1512 1.363 . S
C1514 C1515 1.370 . S
C1514 C1518 1.524 . S
C1515 C1507 1.503 . S
C1515 C1514 1.370 . S
C1515 C1516 1.403 . S
C1516 C1515 1.403 . S
C1516 C1517 1.404 . S
C1516 C1519 1.539 . S
C1517 C1513 1.408 . S
C1517 C1516 1.404 . S
C1517 H1529 0.930 . S
C1518 C1514 1.524 . S
C1518 H1530 0.956 . S
C1518 H1531 0.961 . S
C1518 H1532 0.961 . S
C1519 C1516 1.539 . S
C1519 H1533 0.958 . S
C1519 H1534 0.961 . S
C1519 H1535 0.960 . S
H1520 C1504 0.931 . S
H1521 C1509 0.929 . S
H1522 C1510 0.960 . S
H1523 C1510 0.962 . S
H1524 C1510 0.960 . S
H1525 C1511 0.961 . S
H1526 C1511 0.961 . S
H1527 C1511 0.961 . S
H1528 C1512 0.931 . S
H1529 C1517 0.930 . S
H1530 C1518 0.956 . S
H1531 C1518 0.961 . S
H1532 C1518 0.961 . S
H1533 C1519 0.958 . S
H1534 C1519 0.961 . S
H1535 C1519 0.960 . S
C1536 C1537 1.391 . S
C1536 C1538 1.394 . S
C1536 H1552 0.931 . S
C1537 C1536 1.391 . S
C1537 C1541 1.376 . S
C1538 C1536 1.394 . S
C1538 C1539 1.369 . S
C1538 C1542 1.531 . S
C1539 C1538 1.369 . S
C1539 C1540 1.410 . S
C1539 C1547 1.503 . S
C1540 C1539 1.410 . S
C1540 C1541 1.392 . S
C1540 C1543 1.511 . S
C1541 C1537 1.376 . S
C1541 C1540 1.392 . S
C1541 H1553 0.929 . S
C1542 C1538 1.531 . S
C1542 H1554 0.960 . S
C1542 H1555 0.962 . S
C1542 H1556 0.960 . S
C1543 C1540 1.511 . S
C1543 H1557 0.961 . S
C1543 H1558 0.961 . S
C1543 H1559 0.961 . S
C1544 C1545 1.370 . S
C1544 C1546 1.363 . S
C1544 H1560 0.931 . S
C1545 C1544 1.370 . S
C1545 C1549 1.408 . S
C1546 C1544 1.363 . S
C1546 C1547 1.370 . S
C1546 C1550 1.524 . S
C1547 C1539 1.503 . S
C1547 C1546 1.370 . S
C1547 C1548 1.403 . S
C1548 C1547 1.403 . S
C1548 C1549 1.404 . S
C1548 C1551 1.539 . S
C1549 C1545 1.408 . S
C1549 C1548 1.404 . S
C1549 H1561 0.930 . S
C1550 C1546 1.524 . S
C1550 H1562 0.956 . S
C1550 H1563 0.961 . S
C1550 H1564 0.961 . S
C1551 C1548 1.539 . S
C1551 H1565 0.958 . S
C1551 H1566 0.961 . S
C1551 H1567 0.960 . S
H1552 C1536 0.931 . S
H1553 C1541 0.929 . S
H1554 C1542 0.960 . S
H1555 C1542 0.962 . S
H1556 C1542 0.960 . S
H1557 C1543 0.961 . S
H1558 C1543 0.961 . S
H1559 C1543 0.961 . S
H1560 C1544 0.931 . S
H1561 C1549 0.930 . S
H1562 C1550 0.956 . S
H1563 C1550 0.961 . S
H1564 C1550 0.961 . S
H1565 C1551 0.958 . S
H1566 C1551 0.961 . S
H1567 C1551 0.960 . S
C1568 C1569 1.391 . S
C1568 C1570 1.394 . S
C1568 H1584 0.931 . S
C1569 C1568 1.391 . S
C1569 C1573 1.376 . S
C1570 C1568 1.394 . S
C1570 C1571 1.369 . S
C1570 C1574 1.531 . S
C1571 C1570 1.369 . S
C1571 C1572 1.410 . S
C1571 C1579 1.503 . S
C1572 C1571 1.410 . S
C1572 C1573 1.392 . S
C1572 C1575 1.511 . S
C1573 C1569 1.376 . S
C1573 C1572 1.392 . S
C1573 H1585 0.929 . S
C1574 C1570 1.531 . S
C1574 H1586 0.960 . S
C1574 H1587 0.962 . S
C1574 H1588 0.960 . S
C1575 C1572 1.511 . S
C1575 H1589 0.961 . S
C1575 H1590 0.961 . S
C1575 H1591 0.961 . S
C1576 C1577 1.370 . S
C1576 C1578 1.363 . S
C1576 H1592 0.931 . S
C1577 C1576 1.370 . S
C1577 C1581 1.408 . S
C1578 C1576 1.363 . S
C1578 C1579 1.370 . S
C1578 C1582 1.524 . S
C1579 C1571 1.503 . S
C1579 C1578 1.370 . S
C1579 C1580 1.403 . S
C1580 C1579 1.403 . S
C1580 C1581 1.404 . S
C1580 C1583 1.539 . S
C1581 C1577 1.408 . S
C1581 C1580 1.404 . S
C1581 H1593 0.930 . S
C1582 C1578 1.524 . S
C1582 H1594 0.956 . S
C1582 H1595 0.961 . S
C1582 H1596 0.961 . S
C1583 C1580 1.539 . S
C1583 H1597 0.958 . S
C1583 H1598 0.961 . S
C1583 H1599 0.960 . S
H1584 C1568 0.931 . S
H1585 C1573 0.929 . S
H1586 C1574 0.960 . S
H1587 C1574 0.962 . S
H1588 C1574 0.960 . S
H1589 C1575 0.961 . S
H1590 C1575 0.961 . S
H1591 C1575 0.961 . S
H1592 C1576 0.931 . S
H1593 C1581 0.930 . S
H1594 C1582 0.956 . S
H1595 C1582 0.961 . S
H1596 C1582 0.961 . S
H1597 C1583 0.958 . S
H1598 C1583 0.961 . S
H1599 C1583 0.960 . S
C1600 C1601 1.391 . S
C1600 C1602 1.394 . S
C1600 H1616 0.931 . S
C1601 C1600 1.391 . S
C1601 C1605 1.376 . S
C1602 C1600 1.394 . S
C1602 C1603 1.369 . S
C1602 C1606 1.531 . S
C1603 C1602 1.369 . S
C1603 C1604 1.410 . S
C1603 C1611 1.503 . S
C1604 C1603 1.410 . S
C1604 C1605 1.392 . S
C1604 C1607 1.511 . S
C1605 C1601 1.376 . S
C1605 C1604 1.392 . S
C1605 H1617 0.929 . S
C1606 C1602 1.531 . S
C1606 H1618 0.960 . S
C1606 H1619 0.962 . S
C1606 H1620 0.960 . S
C1607 C1604 1.511 . S
C1607 H1621 0.961 . S
C1607 H1622 0.961 . S
C1607 H1623 0.961 . S
C1608 C1609 1.370 . S
C1608 C1610 1.363 . S
C1608 H1624 0.931 . S
C1609 C1608 1.370 . S
C1609 C1613 1.408 . S
C1610 C1608 1.363 . S
C1610 C1611 1.370 . S
C1610 C1614 1.524 . S
C1611 C1603 1.503 . S
C1611 C1610 1.370 . S
C1611 C1612 1.403 . S
C1612 C1611 1.403 . S
C1612 C1613 1.404 . S
C1612 C1615 1.539 . S
C1613 C1609 1.408 . S
C1613 C1612 1.404 . S
C1613 H1625 0.930 . S
C1614 C1610 1.524 . S
C1614 H1626 0.956 . S
C1614 H1627 0.961 . S
C1614 H1628 0.961 . S
C1615 C1612 1.539 . S
C1615 H1629 0.958 . S
C1615 H1630 0.961 . S
C1615 H1631 0.960 . S
H1616 C1600 0.931 . S
H1617 C1605 0.929 . S
H1618 C1606 0.960 . S
H1619 C1606 0.962 . S
H1620 C1606 0.960 . S
H1621 C1607 0.961 . S
H1622 C1607 0.961 . S
H1623 C1607 0.961 . S
H1624 C1608 0.931 . S
H1625 C1613 0.930 . S
H1626 C1614 0.956 . S
H1627 C1614 0.961 . S
H1628 C1614 0.961 . S
H1629 C1615 0.958 . S
H1630 C1615 0.961 . S
H1631 C1615 0.960 . S
C617 C517 1.430 . S
C609 C35 1.289 . S
C649 C537 1.378 . S
C641 C115 1.247 . S
C681 C551 1.401 . S
C673 C177 1.271 . S
C705 C221 1.366 . S
C713 C509 1.481 . S
C737 C283 1.491 1_554 S
C745 C503 1.640 . S
C769 C363 1.461 . S
C777 C523 1.492 . S
C809 C531 1.456 . S
C801 C407 1.311 . S
C841 C545 1.584 . S
C833 C469 1.440 . S
C865 C159 1.367 . S
C873 C573 1.585 . S
C905 C587 1.461 . S
C897 C239 1.277 . S
C929 C53 1.450 . S
C937 C607 1.499 . S
C969 C559 1.643 . S
C961 C97 1.389 . S
C993 C425 1.332 . S
C1001 C565 1.487 . S
C1025 C487 1.265 . S
C1033 C579 1.405 . S
C1065 C593 1.377 1_556 S
C1057 C301 1.233 . S
C1089 C345 1.331 . S
C1097 C601 1.427 . S
C1129 C532 1.885 . S
C1121 C29 1.882 . S
C1161 C546 1.881 . S
C1153 C109 1.803 . S
C1185 C171 1.767 . S
C1193 C504 1.812 . S
C1217 C215 1.567 . S
C1225 C521 1.627 . S
C1249 C277 1.527 . S
C1257 C549 1.558 . S
C1289 C507 1.545 . S
C1281 C357 1.455 . S
C1321 C518 1.798 . S
C1313 C401 1.796 . S
C1353 C535 1.626 . S
C1345 C463 1.618 . S
C1385 C591 1.628 . S
C1377 C153 1.581 . S
C1417 C602 1.798 . S
C1409 C233 1.766 . S
C1441 C47 1.474 . S
C1449 C563 1.544 . S
C1481 C577 1.561 . S
C1473 C91 1.510 . S
C1513 C605 1.624 . S
C1505 C419 1.576 . S
C1537 C481 1.759 . S
C1545 C560 1.811 . S
C1577 C574 1.880 . S
C1569 C295 1.799 . S
C1609 C588 1.882 . S
C1601 C339 1.860 . S
