# Generated by pormake.
# Topology dag, (6,3)-cn, num edge types: 1
# Building blocks:
#     Node 0, Type 0, BuildingBlock: IZENUY_clean_sbu_0, # of connection points: 6
#     Node 1, Type 0, BuildingBlock: IZENUY_clean_sbu_0, # of connection points: 6
#     Node 2, Type 0, BuildingBlock: IZENUY_clean_sbu_0, # of connection points: 6
#     Node 3, Type 0, BuildingBlock: IZENUY_clean_sbu_0, # of connection points: 6
#     Node 4, Type 1, BuildingBlock: BETDAH_clean_linker_0, # of connection points: 3
#     Node 5, Type 1, BuildingBlock: BETDAH_clean_linker_0, # of connection points: 3
#     Node 6, Type 1, BuildingBlock: BETDAH_clean_linker_0, # of connection points: 3
#     Node 7, Type 1, BuildingBlock: BETDAH_clean_linker_0, # of connection points: 3
#     Node 8, Type 1, BuildingBlock: BETDAH_clean_linker_0, # of connection points: 3
#     Node 9, Type 1, BuildingBlock: BETDAH_clean_linker_0, # of connection points: 3
#     Node 10, Type 1, BuildingBlock: BETDAH_clean_linker_0, # of connection points: 3
#     Node 11, Type 1, BuildingBlock: BETDAH_clean_linker_0, # of connection points: 3
#     Edge 12, Type (0, 1), BuildingBlock: ZUJKAS_clean_linker_0, # of connection points: 2
#     Edge 13, Type (0, 1), BuildingBlock: ZUJKAS_clean_linker_0, # of connection points: 2
#     Edge 14, Type (0, 1), BuildingBlock: ZUJKAS_clean_linker_0, # of connection points: 2
#     Edge 15, Type (0, 1), BuildingBlock: ZUJKAS_clean_linker_0, # of connection points: 2
#     Edge 16, Type (0, 1), BuildingBlock: ZUJKAS_clean_linker_0, # of connection points: 2
#     Edge 17, Type (0, 1), BuildingBlock: ZUJKAS_clean_linker_0, # of connection points: 2
#     Edge 18, Type (0, 1), BuildingBlock: ZUJKAS_clean_linker_0, # of connection points: 2
#     Edge 19, Type (0, 1), BuildingBlock: ZUJKAS_clean_linker_0, # of connection points: 2
#     Edge 20, Type (0, 1), BuildingBlock: ZUJKAS_clean_linker_0, # of connection points: 2
#     Edge 21, Type (0, 1), BuildingBlock: ZUJKAS_clean_linker_0, # of connection points: 2
#     Edge 22, Type (0, 1), BuildingBlock: ZUJKAS_clean_linker_0, # of connection points: 2
#     Edge 23, Type (0, 1), BuildingBlock: ZUJKAS_clean_linker_0, # of connection points: 2
#     Edge 24, Type (0, 1), BuildingBlock: ZUJKAS_clean_linker_0, # of connection points: 2
#     Edge 25, Type (0, 1), BuildingBlock: ZUJKAS_clean_linker_0, # of connection points: 2
#     Edge 26, Type (0, 1), BuildingBlock: ZUJKAS_clean_linker_0, # of connection points: 2
#     Edge 27, Type (0, 1), BuildingBlock: ZUJKAS_clean_linker_0, # of connection points: 2
#     Edge 28, Type (0, 1), BuildingBlock: ZUJKAS_clean_linker_0, # of connection points: 2
#     Edge 29, Type (0, 1), BuildingBlock: ZUJKAS_clean_linker_0, # of connection points: 2
#     Edge 30, Type (0, 1), BuildingBlock: ZUJKAS_clean_linker_0, # of connection points: 2
#     Edge 31, Type (0, 1), BuildingBlock: ZUJKAS_clean_linker_0, # of connection points: 2
#     Edge 32, Type (0, 1), BuildingBlock: ZUJKAS_clean_linker_0, # of connection points: 2
#     Edge 33, Type (0, 1), BuildingBlock: ZUJKAS_clean_linker_0, # of connection points: 2
#     Edge 34, Type (0, 1), BuildingBlock: ZUJKAS_clean_linker_0, # of connection points: 2
#     Edge 35, Type (0, 1), BuildingBlock: ZUJKAS_clean_linker_0, # of connection points: 2
# Relax obj value: 0.095
# Max RMSD: 0.099
# Mean RMSD: 0.084
data_MOF--net-dag--node1-IZENUY_clean_sbu_0--node2-BETDAH_clean_linker_0--edge1-ZUJKAS_clean_linker_0
_symmetry_space_group_name_H-M    P1
_symmetry_Int_Tables_number       1
_symmetry_cell_setting            triclinic
loop_
_symmetry_equiv_pos_as_xyz
'x, y, z'
_cell_length_a     49.971041
_cell_length_b     53.038408
_cell_length_c     45.872468
_cell_angle_alpha  93.79676
_cell_angle_beta   89.9281
_cell_angle_gamma 89.982867
loop_
_atom_site_label
_atom_site_type_symbol
_atom_site_fract_x
_atom_site_fract_y
_atom_site_fract_z
_atom_type_partial_charge
Fe0 Fe 0.1867 0.86045 0.07893 0.0
Fe1 Fe 0.12903 0.87666 0.06715 0.0
O2 O 0.15303 0.85248 0.07013 0.0
Fe3 Fe 0.14331 0.82038 0.06423 0.0
O4 O 0.16712 0.80867 0.09063 0.0
O5 O 0.18552 0.84293 0.11145 0.0
O6 O 0.17817 0.88882 0.10252 0.0
C7 C 0.15648 0.89543 0.11524 0.0
C8 C 0.19164 0.81991 0.03577 0.0
O9 O 0.13425 0.88823 0.10473 0.0
C10 C 0.11446 0.84474 0.02083 0.0
O11 O 0.19028 0.87862 0.04702 0.0
O12 O 0.15262 0.89955 0.05355 0.0
O13 O 0.16686 0.81546 0.03432 0.0
O14 O 0.20131 0.83361 0.05687 0.0
C15 C 0.10008 0.8391 0.09516 0.0
O16 O 0.12225 0.86661 0.02936 0.0
O17 O 0.11776 0.82633 0.03671 0.0
C18 C 0.17519 0.89666 0.04126 0.0
O19 O 0.10093 0.8583 0.08021 0.0
O20 O 0.11884 0.82311 0.09371 0.0
C21 C 0.1793 0.81994 0.11192 0.0
Fe22 Fe 0.66525 0.65278 0.48235 0.0
Fe23 Fe 0.62132 0.69335 0.49166 0.0
O24 O 0.63125 0.66113 0.48865 0.0
Fe25 Fe 0.60713 0.6371 0.49207 0.0
O26 O 0.62417 0.62575 0.52349 0.0
O27 O 0.66413 0.62457 0.50348 0.0
O28 O 0.67568 0.67036 0.51566 0.0
C29 C 0.67071 0.69339 0.52216 0.0
C30 C 0.6409 0.61626 0.44687 0.0
O31 O 0.65255 0.70482 0.50898 0.0
C32 C 0.5792 0.66897 0.45904 0.0
O33 O 0.67257 0.67943 0.46021 0.0
O34 O 0.63386 0.69838 0.45532 0.0
O35 O 0.62393 0.61382 0.46699 0.0
O36 O 0.65721 0.63447 0.44845 0.0
C37 C 0.59067 0.67472 0.53495 0.0
O38 O 0.5883 0.68755 0.47482 0.0
O39 O 0.58852 0.64702 0.461 0.0
C40 C 0.65738 0.69362 0.44652 0.0
O41 O 0.60797 0.69073 0.52839 0.0
O42 O 0.58576 0.65568 0.51775 0.0
C43 C 0.64817 0.6184 0.52326 0.0
Fe44 Fe 0.86645 0.18585 0.99393 0.0
Fe45 Fe 0.87828 0.12917 0.99328 0.0
O46 O 0.85546 0.15408 0.98902 0.0
Fe47 Fe 0.82165 0.14702 0.97987 0.0
O48 O 0.82439 0.16313 0.94649 0.0
O49 O 0.84413 0.19737 0.96586 0.0
O50 O 0.8917 0.18137 0.9655 0.0
C51 C 0.90991 0.16493 0.96542 0.0
C52 C 0.81735 0.18982 0.02035 0.0
O53 O 0.90764 0.14607 0.98072 0.0
C54 C 0.83106 0.1119 0.01939 0.0
O55 O 0.89063 0.17979 0.02296 0.0
O56 O 0.88435 0.13978 0.03092 0.0
O57 O 0.80766 0.17526 1.00001 0.0
O58 O 0.84227 0.19282 0.02273 0.0
C59 C 0.85103 0.11003 0.94547 0.0
O60 O 0.85335 0.10758 0.00693 0.0
O61 O 0.81674 0.13026 0.01277 0.0
C62 C 0.89225 0.16159 0.03949 0.0
O63 O 0.8734 0.11707 0.95579 0.0
O64 O 0.82948 0.11751 0.95791 0.0
C65 C 0.83193 0.18568 0.94484 0.0
Fe66 Fe 0.39619 0.3494 0.55754 0.0
Fe67 Fe 0.33848 0.33298 0.56859 0.0
O68 O 0.37237 0.32516 0.56088 0.0
Fe69 Fe 0.38257 0.2931 0.55644 0.0
O70 O 0.41633 0.29875 0.57152 0.0
O71 O 0.41564 0.33866 0.58761 0.0
O72 O 0.38009 0.37185 0.58396 0.0
C73 C 0.36362 0.36881 0.60437 0.0
C74 C 0.41107 0.31308 0.51263 0.0
O75 O 0.34715 0.35074 0.6026 0.0
C76 C 0.33209 0.29299 0.52835 0.0
O77 O 0.37814 0.36172 0.52727 0.0
O78 O 0.33862 0.36168 0.54836 0.0
O79 O 0.394 0.29685 0.51921 0.0
O80 O 0.4168 0.33146 0.53049 0.0
C81 C 0.34858 0.29186 0.60324 0.0
O82 O 0.32729 0.31597 0.53522 0.0
O83 O 0.35075 0.28156 0.54067 0.0
C84 C 0.35407 0.36889 0.52864 0.0
O85 O 0.33245 0.30569 0.59021 0.0
O86 O 0.3718 0.28744 0.59326 0.0
C87 C 0.42541 0.31677 0.58817 0.0
H88 H 0.07198 0.10786 0.25585 0.0
H89 H 0.1255 0.12424 0.32801 0.0
H90 H 0.06323 0.1769 0.30945 0.0
C91 C 0.0781 0.12009 0.27453 0.0
C92 C 0.0649 0.14317 0.28052 0.0
C93 C 0.09977 0.11293 0.29163 0.0
C94 C 0.10877 0.12957 0.31474 0.0
C95 C 0.09536 0.15267 0.32119 0.0
C96 C 0.07347 0.15916 0.3042 0.0
N97 N 0.10274 0.16975 0.34489 0.0
C98 C 0.12739 0.1702 0.35883 0.0
H99 H 0.40843 0.61388 0.72965 0.0
H100 H 0.37755 0.6834 0.77084 0.0
H101 H 0.33098 0.61532 0.77024 0.0
C102 C 0.39306 0.62411 0.74224 0.0
C103 C 0.36977 0.61126 0.74978 0.0
C104 C 0.3962 0.65015 0.74954 0.0
C105 C 0.37577 0.66327 0.76548 0.0
C106 C 0.35237 0.65048 0.77318 0.0
C107 C 0.34949 0.62472 0.7651 0.0
N108 N 0.33012 0.66331 0.78635 0.0
C109 C 0.3316 0.68215 0.8088 0.0
H110 H 0.8422 0.88345 0.14153 0.0
H111 H 0.81172 0.81635 0.17796 0.0
H112 H 0.75768 0.87498 0.15532 0.0
C113 C 0.82546 0.87245 0.14876 0.0
C114 C 0.79947 0.88234 0.14757 0.0
C115 C 0.83016 0.8486 0.15945 0.0
C116 C 0.80848 0.83489 0.17001 0.0
C117 C 0.78231 0.8445 0.16834 0.0
C118 C 0.77798 0.86799 0.15696 0.0
N119 N 0.75971 0.83019 0.17575 0.0
C120 C 0.75778 0.81753 0.20118 0.0
H121 H 0.66389 0.39134 0.6692 0.0
H122 H 0.71027 0.32714 0.69165 0.0
H123 H 0.74978 0.39529 0.66936 0.0
C124 C 0.68312 0.38285 0.67344 0.0
C125 C 0.70657 0.39664 0.66914 0.0
C126 C 0.68416 0.35777 0.68146 0.0
C127 C 0.70921 0.34651 0.6856 0.0
C128 C 0.7329 0.36017 0.68122 0.0
C129 C 0.73143 0.38496 0.67263 0.0
N130 N 0.75852 0.34939 0.6849 0.0
C131 C 0.76346 0.33145 0.70489 0.0
H132 H 0.5812 0.39244 0.30455 0.0
H133 H 0.62734 0.39204 0.22522 0.0
H134 H 0.57097 0.33251 0.23763 0.0
C135 C 0.58634 0.38361 0.28329 0.0
C136 C 0.57397 0.36083 0.27355 0.0
C137 C 0.60538 0.39521 0.26601 0.0
C138 C 0.61302 0.38315 0.23902 0.0
C139 C 0.60054 0.36045 0.22892 0.0
C140 C 0.58097 0.3496 0.24605 0.0
N141 N 0.60498 0.34969 0.20026 0.0
C142 C 0.62998 0.34224 0.1896 0.0
H143 H 0.16821 0.12402 0.91039 0.0
H144 H 0.20104 0.19395 0.88353 0.0
H145 H 0.25301 0.13703 0.91466 0.0
C146 C 0.18531 0.13596 0.90661 0.0
C147 C 0.21103 0.12743 0.91321 0.0
C148 C 0.18134 0.15995 0.89601 0.0
C149 C 0.20371 0.17532 0.89147 0.0
C150 C 0.22956 0.16688 0.89808 0.0
C151 C 0.23305 0.14315 0.90914 0.0
N152 N 0.25226 0.1824 0.89508 0.0
C153 C 0.2579 0.19363 0.86934 0.0
H154 H 0.33322 0.60735 0.40949 0.0
H155 H 0.29407 0.66208 0.35904 0.0
H156 H 0.2542 0.59254 0.37614 0.0
C157 C 0.31578 0.61351 0.39782 0.0
C158 C 0.29364 0.59743 0.39462 0.0
C159 C 0.3162 0.63685 0.38503 0.0
C160 C 0.29391 0.64406 0.36884 0.0
C161 C 0.27136 0.62809 0.36584 0.0
C162 C 0.27149 0.60484 0.37863 0.0
N163 N 0.24816 0.63467 0.35027 0.0
C164 C 0.2462 0.65562 0.33383 0.0
H165 H 0.91287 0.88536 0.81377 0.0
H166 H 0.90011 0.80582 0.79534 0.0
H167 H 0.84228 0.8592 0.76741 0.0
C168 C 0.90138 0.87 0.80324 0.0
C169 C 0.87707 0.87537 0.78959 0.0
C170 C 0.90997 0.84505 0.80556 0.0
C171 C 0.89394 0.82527 0.79367 0.0
C172 C 0.86992 0.83018 0.77941 0.0
C173 C 0.86134 0.85532 0.77742 0.0
N174 N 0.85415 0.80921 0.76928 0.0
C175 C 0.83751 0.80855 0.74502 0.0
H176 H 0.19919 0.92319 0.13699 0.0
H177 H 0.19864 0.9572 0.17582 0.0
H178 H 0.11431 0.94496 0.18897 0.0
H179 H 0.11463 0.91097 0.15041 0.0
H180 H 0.16722 0.00082 0.17406 0.0
H181 H 0.14371 0.95034 0.27267 0.0
H182 H 0.15654 0.93443 0.23949 0.0
H183 H 0.12155 0.94214 0.24277 0.0
C184 C 0.18061 0.92745 0.14846 0.0
C185 C 0.15691 0.91441 0.14048 0.0
C186 C 0.18035 0.94689 0.17064 0.0
C187 C 0.15653 0.95337 0.18555 0.0
C188 C 0.13305 0.93993 0.17818 0.0
H189 H 0.07513 0.06757 0.28184 0.0
H190 H 0.09455 0.02843 0.26038 0.0
C191 C 0.13322 0.92063 0.15593 0.0
C192 C 0.15536 0.97573 0.2067 0.0
H193 H 0.13397 0.99495 0.27531 0.0
C194 C 0.16055 0.99958 0.19643 0.0
C195 C 0.14668 0.97399 0.23585 0.0
C196 C 0.14205 0.94882 0.24847 0.0
C197 C 0.15541 0.02185 0.21383 0.0
C198 C 0.14539 0.02016 0.24253 0.0
C199 C 0.14168 0.99624 0.25334 0.0
C200 C 0.1351 0.04273 0.25988 0.0
C201 C 0.15898 0.04696 0.20058 0.0
C202 C 0.15162 0.06348 0.26796 0.0
C203 C 0.14046 0.08606 0.28013 0.0
C204 C 0.11266 0.08809 0.28439 0.0
C205 C 0.09657 0.06665 0.27835 0.0
C206 C 0.10767 0.04423 0.26622 0.0
H207 H 0.16244 0.04474 0.17662 0.0
H208 H 0.1411 0.0591 0.20477 0.0
H209 H 0.17653 0.05688 0.21073 0.0
H210 H 0.17294 0.06254 0.2638 0.0
H211 H 0.15331 0.10229 0.28465 0.0
H212 H 0.58553 0.71776 0.57209 0.0
H213 H 0.55491 0.72406 0.61406 0.0
H214 H 0.52784 0.64704 0.59992 0.0
H215 H 0.55776 0.64069 0.55831 0.0
H216 H 0.48647 0.68307 0.604 0.0
H217 H 0.55826 0.69559 0.6966 0.0
H218 H 0.56266 0.7149 0.6661 0.0
H219 H 0.56805 0.68146 0.66128 0.0
C220 C 0.5732 0.70215 0.57815 0.0
C221 C 0.57393 0.6788 0.56163 0.0
C222 C 0.55581 0.70574 0.60217 0.0
C223 C 0.53913 0.68598 0.61013 0.0
C224 C 0.54043 0.66258 0.59412 0.0
H225 H 0.44857 0.63499 0.74765 0.0
H226 H 0.48378 0.65037 0.71648 0.0
C227 C 0.55758 0.65901 0.57024 0.0
C228 C 0.51912 0.68942 0.63405 0.0
H229 H 0.5125 0.69365 0.70837 0.0
C230 C 0.49205 0.68584 0.62684 0.0
C231 C 0.52656 0.69289 0.66377 0.0
C232 C 0.55545 0.69631 0.67265 0.0
C233 C 0.47236 0.68424 0.64846 0.0
C234 C 0.47982 0.68701 0.6783 0.0
C235 C 0.50677 0.69177 0.68554 0.0
C236 C 0.46055 0.68155 0.70182 0.0
C237 C 0.44407 0.67785 0.63904 0.0
C238 C 0.43626 0.6948 0.70533 0.0
C239 C 0.41585 0.68576 0.72285 0.0
C240 C 0.41954 0.66347 0.73738 0.0
C241 C 0.44489 0.65188 0.73623 0.0
C242 C 0.46513 0.66077 0.71856 0.0
H243 H 0.44289 0.67144 0.61552 0.0
H244 H 0.43569 0.66276 0.65201 0.0
H245 H 0.43129 0.69488 0.64262 0.0
H246 H 0.43251 0.71126 0.69318 0.0
H247 H 0.39662 0.69519 0.72328 0.0
H248 H 0.77876 0.10133 0.03289 0.0
H249 H 0.76278 0.06642 0.06111 0.0
H250 H 0.84444 0.04542 0.07785 0.0
H251 H 0.86042 0.07989 0.04995 0.0
H252 H 0.77549 0.01493 0.0459 0.0
H253 H 0.80857 0.04306 0.15835 0.0
H254 H 0.80464 0.06549 0.13065 0.0
H255 H 0.83459 0.04673 0.13197 0.0
C256 C 0.79323 0.08954 0.04312 0.0
C257 C 0.82082 0.0932 0.03909 0.0
C258 C 0.78409 0.06964 0.05915 0.0
C259 C 0.80245 0.05357 0.07184 0.0
C260 C 0.82994 0.05787 0.06872 0.0
H261 H 0.82095 0.90091 0.09865 0.0
H262 H 0.8155 0.94323 0.08141 0.0
C263 C 0.83904 0.07746 0.05253 0.0
C264 C 0.7935 0.03062 0.08571 0.0
H265 H 0.80379 0.99807 0.14641 0.0
C266 C 0.78104 0.01142 0.06812 0.0
C267 C 0.80049 0.02617 0.11478 0.0
C268 C 0.81257 0.04657 0.13513 0.0
C269 C 0.77733 0.98723 0.07812 0.0
C270 C 0.78657 0.98216 0.10626 0.0
C271 C 0.79704 0.00191 0.12468 0.0
C272 C 0.78811 0.9561 0.11585 0.0
C273 C 0.76441 0.96706 0.05812 0.0
C274 C 0.7748 0.94944 0.14116 0.0
C275 C 0.77799 0.92526 0.15115 0.0
C276 C 0.79488 0.90752 0.1362 0.0
C277 C 0.80798 0.91424 0.11074 0.0
C278 C 0.80465 0.9383 0.10069 0.0
H279 H 0.75122 0.97546 0.04185 0.0
H280 H 0.78024 0.95606 0.04597 0.0
H281 H 0.75246 0.95384 0.07067 0.0
H282 H 0.76218 0.96302 0.15332 0.0
H283 H 0.76785 0.92066 0.17099 0.0
H284 H 0.4501 0.35074 0.62676 0.0
H285 H 0.49376 0.34642 0.64987 0.0
H286 H 0.50075 0.27046 0.611 0.0
H287 H 0.45708 0.27454 0.58763 0.0
H288 H 0.51621 0.30725 0.68762 0.0
H289 H 0.56494 0.31191 0.57865 0.0
H290 H 0.53079 0.32188 0.58512 0.0
H291 H 0.53893 0.28887 0.58228 0.0
C292 C 0.46073 0.33298 0.62336 0.0
C293 C 0.45025 0.31312 0.60498 0.0
C294 C 0.48561 0.33052 0.63672 0.0
C295 C 0.5005 0.30822 0.63188 0.0
C296 C 0.48959 0.28788 0.61478 0.0
H297 H 0.67339 0.31017 0.65766 0.0
H298 H 0.62914 0.29087 0.65065 0.0
C299 C 0.46463 0.29028 0.60147 0.0
C300 C 0.52836 0.30734 0.64259 0.0
H301 H 0.59282 0.3128 0.61949 0.0
C302 C 0.53305 0.30806 0.67277 0.0
C303 C 0.55022 0.30817 0.62311 0.0
C304 C 0.54618 0.3078 0.59046 0.0
C305 C 0.55912 0.3105 0.68407 0.0
C306 C 0.58087 0.31295 0.66465 0.0
C307 C 0.5762 0.31085 0.6344 0.0
C308 C 0.6079 0.3211 0.67483 0.0
C309 C 0.56299 0.31082 0.71669 0.0
C310 C 0.61081 0.34401 0.69167 0.0
C311 C 0.63603 0.35488 0.69594 0.0
C312 C 0.65884 0.34329 0.68306 0.0
C313 C 0.65621 0.31946 0.66801 0.0
C314 C 0.63091 0.30849 0.66385 0.0
H315 H 0.54762 0.29904 0.72684 0.0
H316 H 0.58314 0.30383 0.72239 0.0
H317 H 0.56065 0.33046 0.72629 0.0
H318 H 0.59343 0.35444 0.69983 0.0
H319 H 0.6375 0.37315 0.70788 0.0
H320 H 0.67509 0.61304 0.39932 0.0
H321 H 0.67862 0.57808 0.36144 0.0
H322 H 0.61546 0.5385 0.40329 0.0
H323 H 0.61173 0.57288 0.44084 0.0
H324 H 0.66457 0.50941 0.38841 0.0
H325 H 0.62068 0.55865 0.29601 0.0
H326 H 0.64686 0.57395 0.31762 0.0
H327 H 0.61459 0.56954 0.33358 0.0
C328 C 0.66192 0.59691 0.40037 0.0
C329 C 0.64314 0.59582 0.4232 0.0
C330 C 0.66394 0.577 0.3787 0.0
C331 C 0.64726 0.55574 0.37959 0.0
C332 C 0.62856 0.5547 0.40225 0.0
H333 H 0.57612 0.43622 0.28452 0.0
H334 H 0.59211 0.47621 0.30747 0.0
C335 C 0.62644 0.57448 0.4237 0.0
C336 C 0.6489 0.53419 0.35733 0.0
H337 H 0.62726 0.51483 0.28889 0.0
C338 C 0.65705 0.51062 0.36637 0.0
C339 C 0.63892 0.53591 0.32873 0.0
C340 C 0.62963 0.56079 0.31819 0.0
C341 C 0.65408 0.48846 0.34813 0.0
C342 C 0.64286 0.48998 0.31999 0.0
C343 C 0.63605 0.51376 0.31038 0.0
C344 C 0.63409 0.46693 0.30242 0.0
C345 C 0.66119 0.46339 0.35986 0.0
C346 C 0.65242 0.44866 0.29112 0.0
C347 C 0.64326 0.42563 0.2779 0.0
C348 C 0.61567 0.42058 0.27604 0.0
C349 C 0.5975 0.43947 0.28603 0.0
C350 C 0.60661 0.46239 0.29899 0.0
H351 H 0.66664 0.46528 0.38338 0.0
H352 H 0.64414 0.45002 0.357 0.0
H353 H 0.67847 0.45503 0.34747 0.0
H354 H 0.67374 0.45192 0.29328 0.0
H355 H 0.65766 0.41139 0.27033 0.0
H356 H 0.92714 0.20736 0.93918 0.0
H357 H 0.97215 0.21515 0.92006 0.0
H358 H 0.99618 0.14011 0.93976 0.0
H359 H 0.95169 0.13213 0.9588 0.0
H360 H 0.02863 0.18299 0.96465 0.0
H361 H 0.01254 0.18254 0.8444 0.0
H362 H 0.98989 0.20011 0.86874 0.0
H363 H 0.99011 0.16629 0.86774 0.0
C364 C 0.94191 0.1924 0.93903 0.0
C365 C 0.93586 0.16919 0.95078 0.0
C366 C 0.96756 0.19688 0.92805 0.0
C367 C 0.98741 0.17818 0.92853 0.0
C368 C 0.98111 0.15478 0.93925 0.0
H369 H 0.1395 0.13462 0.86942 0.0
H370 H 0.09208 0.14532 0.87421 0.0
C371 C 0.95564 0.15028 0.95016 0.0
C372 C 0.01542 0.18319 0.92009 0.0
H373 H 0.05705 0.18522 0.8612 0.0
C374 C 0.03489 0.18398 0.94209 0.0
C375 C 0.02334 0.18432 0.89064 0.0
C376 C 0.00301 0.18321 0.86634 0.0
C377 C 0.06224 0.18465 0.93539 0.0
C378 C 0.07034 0.185 0.90582 0.0
C379 C 0.05078 0.18523 0.88384 0.0
C380 C 0.09885 0.18161 0.8974 0.0
C381 C 0.08225 0.18335 0.95991 0.0
C382 C 0.11844 0.19906 0.90748 0.0
C383 C 0.14563 0.19286 0.905 0.0
C384 C 0.15356 0.16917 0.8923 0.0
C385 C 0.13395 0.15283 0.87977 0.0
C386 C 0.10685 0.15899 0.88233 0.0
H387 H 0.07262 0.17878 0.98076 0.0
H388 H 0.09777 0.16885 0.95423 0.0
H389 H 0.09238 0.2019 0.96356 0.0
H390 H 0.11266 0.2168 0.91879 0.0
H391 H 0.16026 0.20584 0.91486 0.0
H392 H 0.3783 0.38558 0.47983 0.0
H393 H 0.36504 0.42167 0.45247 0.0
H394 H 0.29661 0.43425 0.50901 0.0
H395 H 0.30912 0.39785 0.53574 0.0
H396 H 0.28413 0.44187 0.45321 0.0
H397 H 0.37757 0.49315 0.48506 0.0
H398 H 0.38317 0.46343 0.46498 0.0
H399 H 0.36797 0.46416 0.5006 0.0
C400 C 0.36029 0.39591 0.48624 0.0
C401 C 0.34496 0.38905 0.51019 0.0
C402 C 0.35282 0.41659 0.47069 0.0
C403 C 0.3302 0.431 0.47917 0.0
C404 C 0.31422 0.42348 0.50219 0.0
H405 H 0.30522 0.58782 0.45064 0.0
H406 H 0.31151 0.54654 0.47049 0.0
C407 C 0.32145 0.40266 0.51748 0.0
C408 C 0.32376 0.45467 0.46521 0.0
H409 H 0.34848 0.51303 0.4533 0.0
C410 C 0.29819 0.45745 0.45314 0.0
C411 C 0.34198 0.4751 0.46565 0.0
C412 C 0.3691 0.47399 0.48001 0.0
C413 C 0.29029 0.48017 0.44161 0.0
C414 C 0.30875 0.50038 0.44149 0.0
C415 C 0.33438 0.49748 0.45332 0.0
C416 C 0.30193 0.52506 0.43004 0.0
C417 C 0.26203 0.48256 0.43058 0.0
C418 C 0.29398 0.5267 0.40087 0.0
C419 C 0.28998 0.55029 0.38965 0.0
C420 C 0.29441 0.57255 0.4073 0.0
C421 C 0.30178 0.57088 0.43662 0.0
C422 C 0.30539 0.54735 0.44792 0.0
H423 H 0.2485 0.46847 0.43978 0.0
H424 H 0.25388 0.50175 0.43616 0.0
H425 H 0.26192 0.47915 0.40646 0.0
H426 H 0.29181 0.50981 0.38648 0.0
H427 H 0.28465 0.55116 0.36686 0.0
H428 H 0.10338 0.8795 0.98085 0.0
H429 H 0.07205 0.87488 0.93982 0.0
H430 H 0.05632 0.79796 0.95952 0.0
H431 H 0.08762 0.80221 0.00048 0.0
H432 H 0.06888 0.83001 0.88897 0.0
H433 H 0.98315 0.84341 0.96639 0.0
H434 H 0.0161 0.85564 0.97522 0.0
H435 H 0.00984 0.82238 0.97522 0.0
C436 C 0.09352 0.86149 0.97628 0.0
C437 C 0.09781 0.84131 0.99417 0.0
C438 C 0.07573 0.85888 0.95278 0.0
C439 C 0.0619 0.83614 0.94688 0.0
C440 C 0.06686 0.81566 0.96387 0.0
H441 H 0.9179 0.80835 0.84403 0.0
H442 H 0.95667 0.80292 0.87534 0.0
C443 C 0.08473 0.81817 0.98726 0.0
C444 C 0.04072 0.83446 0.92444 0.0
H445 H 0.973 0.83728 0.91654 0.0
C446 C 0.04789 0.83149 0.89486 0.0
C447 C 0.01346 0.83625 0.9324 0.0
C448 C 0.00495 0.8397 0.964 0.0
C449 C 0.02829 0.83026 0.87286 0.0
C450 C 0.00097 0.83271 0.88078 0.0
C451 C 0.99392 0.83533 0.91047 0.0
C452 C 0.97927 0.83375 0.85886 0.0
C453 C 0.03704 0.82605 0.84143 0.0
C454 C 0.97924 0.85263 0.83883 0.0
C455 C 0.95726 0.85555 0.82057 0.0
C456 C 0.93464 0.83991 0.82231 0.0
C457 C 0.93508 0.82052 0.84179 0.0
C458 C 0.95717 0.8175 0.85989 0.0
H459 H 0.0568 0.81645 0.83965 0.0
H460 H 0.02222 0.81454 0.82837 0.0
H461 H 0.03906 0.8446 0.83178 0.0
H462 H 0.99577 0.86576 0.83805 0.0
H463 H 0.9577 0.8705 0.8056 0.0
H464 H 0.80914 0.07874 0.92969 0.0
H465 H 0.80997 0.04164 0.89502 0.0
H466 H 0.89151 0.05849 0.87236 0.0
H467 H 0.89115 0.09513 0.90762 0.0
H468 H 0.81954 0.03227 0.83605 0.0
H469 H 0.89819 0.98843 0.90136 0.0
H470 H 0.88048 0.01656 0.91444 0.0
H471 H 0.90787 0.01854 0.88916 0.0
C472 C 0.82717 0.07471 0.91711 0.0
C473 C 0.85025 0.08964 0.92178 0.0
C474 C 0.82759 0.0535 0.89726 0.0
C475 C 0.851 0.04695 0.8816 0.0
C476 C 0.87345 0.0628 0.88479 0.0
H477 H 0.90427 0.91712 0.77485 0.0
H478 H 0.89474 0.9608 0.79223 0.0
C479 C 0.87319 0.08379 0.90488 0.0
C480 C 0.85253 0.02272 0.86346 0.0
H481 H 0.88722 0.96721 0.856 0.0
C482 C 0.83431 0.01802 0.84039 0.0
C483 C 0.87158 0.00397 0.86942 0.0
C484 C 0.89046 0.00696 0.89511 0.0
C485 C 0.83507 0.99526 0.82276 0.0
C486 C 0.85452 0.97689 0.8284 0.0
C487 C 0.87256 0.98154 0.85152 0.0
C488 C 0.85649 0.95226 0.81134 0.0
C489 C 0.81541 0.99101 0.79805 0.0
C490 C 0.83756 0.9332 0.81522 0.0
C491 C 0.84299 0.90816 0.80529 0.0
C492 C 0.86751 0.90192 0.79159 0.0
C493 C 0.88526 0.92143 0.78543 0.0
C494 C 0.87985 0.94637 0.79534 0.0
H495 H 0.80436 0.00854 0.79367 0.0
H496 H 0.82593 0.98389 0.7778 0.0
H497 H 0.8007 0.97643 0.80366 0.0
H498 H 0.81959 0.93733 0.82787 0.0
H499 H 0.82912 0.89346 0.81063 0.0
H500 H 0.45378 0.34083 0.49694 0.0
H501 H 0.47782 0.33835 0.45087 0.0
H502 H 0.42742 0.27675 0.41855 0.0
H503 H 0.40269 0.27919 0.46513 0.0
H504 H 0.50572 0.29622 0.42315 0.0
H505 H 0.42192 0.33078 0.35625 0.0
H506 H 0.42174 0.33484 0.39564 0.0
H507 H 0.41604 0.30418 0.37787 0.0
C508 C 0.44769 0.32663 0.4802 0.0
C509 C 0.42618 0.31023 0.48476 0.0
C510 C 0.46158 0.32523 0.45384 0.0
C511 C 0.45432 0.30749 0.43126 0.0
C512 C 0.43315 0.29073 0.43567 0.0
H513 H 0.56756 0.31064 0.28329 0.0
H514 H 0.53621 0.29219 0.31708 0.0
C515 C 0.41916 0.29207 0.4623 0.0
C516 C 0.46906 0.30747 0.40323 0.0
H517 H 0.46453 0.32866 0.33474 0.0
C518 C 0.49668 0.30273 0.40351 0.0
C519 C 0.45713 0.31616 0.37783 0.0
C520 C 0.42761 0.32194 0.37665 0.0
C521 C 0.51303 0.30796 0.37976 0.0
C522 C 0.50129 0.31776 0.35482 0.0
C523 C 0.47342 0.32107 0.35385 0.0
C524 C 0.51793 0.32787 0.33147 0.0
C525 C 0.54292 0.30469 0.38246 0.0
C526 C 0.51724 0.35385 0.3274 0.0
C527 C 0.53483 0.36437 0.30793 0.0
C528 C 0.55359 0.34913 0.2921 0.0
C529 C 0.55339 0.3229 0.29516 0.0
C530 C 0.53565 0.31235 0.31463 0.0
H531 H 0.54904 0.30109 0.40509 0.0
H532 H 0.54948 0.28837 0.36781 0.0
H533 H 0.5536 0.32175 0.37581 0.0
H534 H 0.50363 0.36616 0.34005 0.0
H535 H 0.53401 0.38454 0.3056 0.0
H536 H 0.22685 0.9058 0.02408 0.0
H537 H 0.24267 0.94159 0.99734 0.0
H538 H 0.16146 0.9679 0.99012 0.0
H539 H 0.14551 0.9325 0.01664 0.0
H540 H 0.19576 0.96827 0.93674 0.0
H541 H 0.23918 0.01599 0.03793 0.0
H542 H 0.24798 0.98357 0.0282 0.0
H543 H 0.21445 0.99131 0.03947 0.0
C544 C 0.21236 0.91906 0.01648 0.0
C545 C 0.18496 0.91652 0.02276 0.0
C546 C 0.22144 0.93947 0.0013 0.0
C547 C 0.20321 0.95739 0.99204 0.0
C548 C 0.17581 0.95424 0.99716 0.0
H549 H 0.18297 0.10763 0.95715 0.0
H550 H 0.18669 0.06518 0.97456 0.0
C551 C 0.16676 0.93406 0.01244 0.0
C552 C 0.21229 0.98045 0.97861 0.0
H553 H 0.23599 0.03975 0.99672 0.0
C554 C 0.20517 0.98374 0.94954 0.0
C555 C 0.22433 0.00055 0.99561 0.0
C556 C 0.23192 0.99793 0.02709 0.0
C557 C 0.20865 0.00712 0.9374 0.0
C558 C 0.2195 0.02756 0.95486 0.0
C559 C 0.22781 0.02391 0.98345 0.0
C560 C 0.21894 0.05354 0.94517 0.0
C561 C 0.19917 0.01034 0.90665 0.0
C562 C 0.23616 0.06105 0.92319 0.0
C563 C 0.23408 0.08534 0.9132 0.0
C564 C 0.21461 0.10229 0.92494 0.0
C565 C 0.19788 0.09482 0.94744 0.0
C566 C 0.2001 0.07069 0.95751 0.0
H567 H 0.18942 0.99302 0.89673 0.0
H568 H 0.18475 0.02627 0.90653 0.0
H569 H 0.21647 0.01502 0.8928 0.0
H570 H 0.2509 0.04803 0.91354 0.0
H571 H 0.24715 0.09063 0.89577 0.0
H572 H 0.54539 0.63227 0.43646 0.0
H573 H 0.50194 0.63795 0.41404 0.0
H574 H 0.51364 0.71874 0.4195 0.0
H575 H 0.55694 0.71321 0.44317 0.0
H576 H 0.46714 0.70899 0.43989 0.0
H577 H 0.47592 0.65259 0.33553 0.0
H578 H 0.48563 0.63324 0.36422 0.0
H579 H 0.50486 0.6611 0.35755 0.0
C580 C 0.53902 0.65124 0.43241 0.0
C581 C 0.55461 0.6723 0.44174 0.0
C582 C 0.51419 0.65447 0.41927 0.0
C583 C 0.50462 0.67876 0.41449 0.0
C584 C 0.52062 0.6998 0.42278 0.0
H585 H 0.34287 0.66066 0.34232 0.0
H586 H 0.38765 0.67961 0.34602 0.0
C587 C 0.54536 0.69661 0.43633 0.0
C588 C 0.47676 0.68204 0.40409 0.0
H589 H 0.43079 0.65478 0.35705 0.0
C590 C 0.45934 0.69762 0.42129 0.0
C591 C 0.46649 0.66795 0.3793 0.0
C592 C 0.48436 0.65305 0.35796 0.0
C593 C 0.43168 0.69756 0.41604 0.0
C594 C 0.42107 0.68086 0.39364 0.0
C595 C 0.43874 0.66721 0.37468 0.0
C596 C 0.39216 0.67438 0.39218 0.0
C597 C 0.41411 0.71486 0.43518 0.0
C598 C 0.37949 0.66579 0.41699 0.0
C599 C 0.35394 0.65533 0.41499 0.0
C600 C 0.34063 0.65271 0.388 0.0
C601 C 0.35259 0.66258 0.36345 0.0
C602 C 0.37823 0.67326 0.36551 0.0
H603 H 0.42463 0.73287 0.44137 0.0
H604 H 0.39504 0.71923 0.42418 0.0
H605 H 0.40951 0.70572 0.45568 0.0
H606 H 0.38993 0.66576 0.43765 0.0
H607 H 0.34511 0.64811 0.43435 0.0
H608 H 0.32088 0.38065 0.6408 0.0
H609 H 0.31643 0.41823 0.67486 0.0
H610 H 0.39723 0.44004 0.65511 0.0
H611 H 0.40191 0.40278 0.62151 0.0
H612 H 0.3829 0.44755 0.71558 0.0
H613 H 0.30955 0.48868 0.64048 0.0
H614 H 0.3021 0.45811 0.65326 0.0
H615 H 0.32998 0.46171 0.62921 0.0
C616 C 0.33783 0.39323 0.64418 0.0
C617 C 0.36162 0.38896 0.62818 0.0
C618 C 0.33521 0.41473 0.6635 0.0
C619 C 0.35639 0.43207 0.66714 0.0
C620 C 0.38062 0.42695 0.65255 0.0
H621 H 0.38078 0.58815 0.69616 0.0
H622 H 0.37475 0.5437 0.68004 0.0
C623 C 0.3832 0.40568 0.63323 0.0
C624 C 0.35315 0.45665 0.68407 0.0
H625 H 0.32559 0.51517 0.67944 0.0
C626 C 0.36997 0.46224 0.70813 0.0
C627 C 0.33648 0.47579 0.67398 0.0
C628 C 0.31856 0.471 0.64773 0.0
C629 C 0.37137 0.48676 0.72163 0.0
C630 C 0.35539 0.50608 0.71086 0.0
C631 C 0.33774 0.50024 0.68764 0.0
C632 C 0.35874 0.53293 0.72126 0.0
C633 C 0.39102 0.49221 0.7462 0.0
C634 C 0.3516 0.54161 0.74977 0.0
C635 C 0.35517 0.56706 0.75912 0.0
C636 C 0.36599 0.58419 0.74011 0.0
C637 C 0.37288 0.57537 0.71151 0.0
C638 C 0.36923 0.55003 0.70218 0.0
H639 H 0.40451 0.47594 0.74926 0.0
H640 H 0.40339 0.50897 0.74196 0.0
H641 H 0.37989 0.49654 0.76687 0.0
H642 H 0.34321 0.52875 0.76471 0.0
H643 H 0.34973 0.5733 0.7813 0.0
H644 H 0.06067 0.87275 0.11015 0.0
H645 H 0.01726 0.86455 0.13148 0.0
H646 H 0.03879 0.7864 0.13824 0.0
H647 H 0.08265 0.79446 0.11635 0.0
H648 H 0.99027 0.79193 0.11146 0.0
H649 H 0.99235 0.85294 0.21346 0.0
H650 H 0.00269 0.87035 0.18321 0.0
H651 H 0.02244 0.84392 0.1935 0.0
C652 C 0.05643 0.85385 0.11651 0.0
C653 C 0.07512 0.83423 0.11139 0.0
C654 C 0.03162 0.84925 0.12902 0.0
C655 C 0.02488 0.82496 0.13694 0.0
C656 C 0.04369 0.80536 0.13256 0.0
H657 H 0.85864 0.82709 0.20271 0.0
H658 H 0.90601 0.81421 0.20097 0.0
C659 C 0.06874 0.81 0.12011 0.0
C660 C 0.99715 0.82001 0.14679 0.0
H661 H 0.94824 0.8457 0.19148 0.0
C662 C 0.98121 0.80318 0.12947 0.0
C663 C 0.98534 0.83424 0.17063 0.0
C664 C 0.00172 0.85115 0.19144 0.0
C665 C 0.95341 0.802 0.13367 0.0
C666 C 0.94122 0.81839 0.15541 0.0
C667 C 0.95747 0.83341 0.17449 0.0
C668 C 0.91189 0.82293 0.15597 0.0
C669 C 0.93722 0.78394 0.114 0.0
C670 C 0.8995 0.83199 0.1313 0.0
C671 C 0.87272 0.83935 0.13229 0.0
C672 C 0.85768 0.83802 0.15805 0.0
C673 C 0.86975 0.82817 0.18254 0.0
C674 C 0.89676 0.8209 0.18158 0.0
H675 H 0.94918 0.76697 0.10685 0.0
H676 H 0.91878 0.77779 0.12505 0.0
H677 H 0.93137 0.79343 0.09413 0.0
H678 H 0.91084 0.83431 0.11152 0.0
H679 H 0.8639 0.84668 0.11301 0.0
H680 H 0.69378 0.58994 0.52074 0.0
H681 H 0.70553 0.55556 0.55115 0.0
H682 H 0.63416 0.56985 0.6026 0.0
H683 H 0.6218 0.60391 0.57175 0.0
H684 H 0.71463 0.55228 0.60981 0.0
H685 H 0.62514 0.49637 0.57399 0.0
H686 H 0.63542 0.52429 0.55658 0.0
H687 H 0.61748 0.52709 0.59067 0.0
C688 C 0.68063 0.58592 0.53863 0.0
C689 C 0.65661 0.59939 0.54354 0.0
C690 C 0.68743 0.56628 0.55603 0.0
C691 C 0.67043 0.55984 0.57871 0.0
C692 C 0.6472 0.57413 0.58471 0.0
H693 H 0.67253 0.43389 0.69 0.0
H694 H 0.66557 0.47531 0.6708 0.0
C695 C 0.64022 0.59363 0.56714 0.0
C696 C 0.67649 0.53741 0.59509 0.0
H697 H 0.65236 0.47944 0.60987 0.0
C698 C 0.70101 0.53636 0.60991 0.0
C699 C 0.65875 0.5166 0.59492 0.0
C700 C 0.63285 0.51594 0.57797 0.0
C701 C 0.70818 0.51505 0.62475 0.0
C702 C 0.6904 0.49436 0.62459 0.0
C703 C 0.66582 0.4955 0.61006 0.0
C704 C 0.69706 0.47085 0.6385 0.0
C705 C 0.73458 0.5148 0.64061 0.0
C706 C 0.71728 0.45483 0.62682 0.0
C707 C 0.72113 0.43103 0.63751 0.0
C708 C 0.70471 0.42289 0.65997 0.0
C709 C 0.68521 0.43947 0.67237 0.0
C710 C 0.68132 0.46318 0.6616 0.0
H711 H 0.74334 0.53403 0.64388 0.0
H712 H 0.73218 0.50677 0.66221 0.0
H713 H 0.74892 0.50267 0.62759 0.0
H714 H 0.7293 0.4603 0.60861 0.0
H715 H 0.73611 0.41859 0.6273 0.0
H716 H 0.897 0.12749 0.08123 0.0
H717 H 0.92209 0.13218 0.12678 0.0
H718 H 0.94369 0.20822 0.10835 0.0
H719 H 0.91876 0.20366 0.06235 0.0
H720 H 0.98694 0.1783 0.12208 0.0
H721 H 0.90661 0.17178 0.20439 0.0
H722 H 0.90531 0.14656 0.17635 0.0
H723 H 0.89995 0.1786 0.16701 0.0
C724 C 0.90685 0.14534 0.08691 0.0
C725 C 0.90599 0.16517 0.06803 0.0
C726 C 0.92097 0.14806 0.11314 0.0
C727 C 0.93437 0.17068 0.12115 0.0
C728 C 0.93325 0.19068 0.10265 0.0
H729 H 0.05627 0.18952 0.25922 0.0
H730 H 0.02277 0.20052 0.22324 0.0
C731 C 0.91903 0.18802 0.07638 0.0
C732 C 0.95153 0.17236 0.14748 0.0
H733 H 0.95136 0.16298 0.22038 0.0
C734 C 0.97916 0.17548 0.14372 0.0
C735 C 0.94125 0.16865 0.17561 0.0
C736 C 0.91162 0.16646 0.18118 0.0
C737 C 0.99701 0.17344 0.16702 0.0
C738 C 0.98682 0.16863 0.1949 0.0
C739 C 0.95908 0.16662 0.19895 0.0
C740 C 0.00482 0.16334 0.21935 0.0
C741 C 0.02669 0.17501 0.16121 0.0
C742 C 0.00496 0.13916 0.22999 0.0
C743 C 0.02382 0.13291 0.25073 0.0
C744 C 0.04289 0.15075 0.26122 0.0
C745 C 0.04181 0.17538 0.25162 0.0
C746 C 0.02286 0.18163 0.23088 0.0
H747 H 0.03132 0.17399 0.13746 0.0
H748 H 0.03448 0.19323 0.17102 0.0
H749 H 0.0375 0.15951 0.1713 0.0
H750 H 0.99107 0.12482 0.22148 0.0
H751 H 0.02384 0.11392 0.2581 0.0
H752 H 0.16879 0.77048 0.12065 0.0
H753 H 0.18331 0.74633 0.16125 0.0
H754 H 0.22444 0.81185 0.19958 0.0
H755 H 0.20968 0.83639 0.15921 0.0
H756 H 0.23546 0.73641 0.17853 0.0
H757 H 0.17826 0.78905 0.2671 0.0
H758 H 0.17128 0.79205 0.22889 0.0
H759 H 0.19961 0.80792 0.24572 0.0
C760 C 0.18086 0.77984 0.13772 0.0
C761 C 0.18805 0.80539 0.13666 0.0
C762 C 0.18915 0.76598 0.16089 0.0
C763 C 0.20471 0.77738 0.18352 0.0
C764 C 0.21206 0.80283 0.18256 0.0
H765 H 0.28413 0.68331 0.30866 0.0
H766 H 0.27642 0.71572 0.27357 0.0
C767 C 0.20371 0.81677 0.15939 0.0
C768 C 0.21352 0.76227 0.20775 0.0
H769 H 0.20628 0.75606 0.28093 0.0
C770 C 0.22927 0.74077 0.20098 0.0
C771 C 0.20521 0.768 0.23691 0.0
C772 C 0.18748 0.79038 0.2452 0.0
C773 C 0.23652 0.72449 0.22251 0.0
C774 C 0.22818 0.73017 0.25169 0.0
C775 C 0.21283 0.75193 0.25857 0.0
C776 C 0.23322 0.71259 0.27481 0.0
C777 C 0.25207 0.70081 0.21362 0.0
C778 C 0.2115 0.70085 0.28782 0.0
C779 C 0.21589 0.68263 0.30788 0.0
C780 C 0.24203 0.67603 0.31524 0.0
C781 C 0.26381 0.68826 0.3031 0.0
C782 C 0.25942 0.70658 0.28304 0.0
H783 H 0.25208 0.69664 0.18956 0.0
H784 H 0.27315 0.70323 0.22085 0.0
H785 H 0.24364 0.68427 0.2241 0.0
H786 H 0.19115 0.70524 0.28177 0.0
H787 H 0.19888 0.67325 0.31708 0.0
H788 H 0.71646 0.67778 0.54861 0.0
H789 H 0.74399 0.70182 0.58476 0.0
H790 H 0.69061 0.76543 0.58176 0.0
H791 H 0.66294 0.74166 0.54555 0.0
H792 H 0.76821 0.75327 0.57745 0.0
H793 H 0.69727 0.74931 0.67082 0.0
H794 H 0.69606 0.72682 0.6395 0.0
H795 H 0.68413 0.75843 0.63653 0.0
C796 C 0.71052 0.69687 0.55563 0.0
C797 C 0.68747 0.70778 0.54414 0.0
C798 C 0.72631 0.71058 0.57624 0.0
C799 C 0.71919 0.73529 0.586 0.0
C800 C 0.69627 0.74628 0.57464 0.0
H801 H 0.79164 0.83109 0.72835 0.0
H802 H 0.76269 0.81645 0.68715 0.0
C803 C 0.68056 0.73268 0.55387 0.0
C804 C 0.73593 0.74961 0.60795 0.0
H805 H 0.73765 0.77125 0.67967 0.0
C806 C 0.76154 0.75733 0.59978 0.0
C807 C 0.72697 0.75511 0.6369 0.0
C808 C 0.69967 0.74693 0.64671 0.0
C809 C 0.77864 0.7702 0.61997 0.0
C810 C 0.77012 0.77484 0.64929 0.0
C811 C 0.74417 0.76771 0.65721 0.0
C812 C 0.78845 0.78524 0.67256 0.0
C813 C 0.8056 0.77879 0.60959 0.0
C814 C 0.81245 0.77261 0.678 0.0
C815 C 0.8289 0.78106 0.70119 0.0
C816 C 0.82153 0.80209 0.71949 0.0
C817 C 0.79774 0.81498 0.71414 0.0
C818 C 0.78124 0.80657 0.69077 0.0
H819 H 0.8053 0.78185 0.58586 0.0
H820 H 0.81205 0.79656 0.62171 0.0
H821 H 0.82068 0.76393 0.61308 0.0
H822 H 0.81808 0.75571 0.66489 0.0
H823 H 0.84703 0.77066 0.70534 0.0
H824 H 0.76259 0.19298 0.01819 0.0
H825 H 0.73326 0.22038 0.04906 0.0
H826 H 0.80163 0.24918 0.09787 0.0
H827 H 0.83116 0.22219 0.06692 0.0
H828 H 0.72501 0.22291 0.10882 0.0
H829 H 0.76544 0.31367 0.07402 0.0
H830 H 0.77264 0.28371 0.05464 0.0
H831 H 0.79021 0.29301 0.08779 0.0
C832 C 0.77142 0.20513 0.03548 0.0
C833 C 0.79929 0.20551 0.03986 0.0
C834 C 0.75462 0.22078 0.05312 0.0
C835 C 0.7653 0.23718 0.07543 0.0
C836 C 0.79301 0.23714 0.08036 0.0
H837 H 0.66698 0.31282 0.21358 0.0
H838 H 0.70215 0.28809 0.18724 0.0
C839 C 0.80984 0.22155 0.06271 0.0
C840 C 0.74739 0.25414 0.09364 0.0
H841 H 0.73405 0.31624 0.11289 0.0
C842 C 0.727 0.24332 0.10976 0.0
C843 C 0.74986 0.28077 0.09459 0.0
C844 C 0.77054 0.29355 0.07665 0.0
C845 C 0.70902 0.25837 0.12684 0.0
C846 C 0.71182 0.285 0.12826 0.0
C847 C 0.73216 0.29583 0.11207 0.0
C848 C 0.6928 0.30191 0.14505 0.0
C849 C 0.68669 0.24565 0.14249 0.0
C850 C 0.67679 0.31876 0.13036 0.0
C851 C 0.65704 0.33305 0.14544 0.0
C852 C 0.65317 0.33082 0.17541 0.0
C853 C 0.66986 0.31488 0.19045 0.0
C854 C 0.6897 0.30061 0.17538 0.0
H855 H 0.68357 0.22585 0.13368 0.0
H856 H 0.6918 0.24525 0.16599 0.0
H857 H 0.6676 0.25616 0.14073 0.0
H858 H 0.67888 0.32012 0.107 0.0
H859 H 0.64411 0.34509 0.13345 0.0
H860 H 0.29894 0.29485 0.62815 0.0
H861 H 0.2842 0.27723 0.67323 0.0
H862 H 0.36228 0.24451 0.68392 0.0
H863 H 0.37745 0.26232 0.63881 0.0
H864 H 0.28334 0.22622 0.68792 0.0
H865 H 0.34882 0.28607 0.76193 0.0
H866 H 0.34246 0.29313 0.7246 0.0
H867 H 0.3657 0.26864 0.73241 0.0
C868 C 0.31305 0.28387 0.63998 0.0
C869 C 0.33945 0.28007 0.62988 0.0
C870 C 0.30453 0.2738 0.66575 0.0
C871 C 0.32224 0.25988 0.68205 0.0
C872 C 0.34845 0.25558 0.67184 0.0
H873 H 0.30694 0.18933 0.8462 0.0
H874 H 0.32223 0.20514 0.79994 0.0
C875 C 0.35702 0.26564 0.64599 0.0
C876 C 0.3131 0.24993 0.70974 0.0
H877 H 0.32327 0.25471 0.78345 0.0
C878 C 0.29202 0.23243 0.70884 0.0
C879 C 0.32447 0.25818 0.73693 0.0
C880 C 0.34647 0.2777 0.73923 0.0
C881 C 0.28221 0.22264 0.73445 0.0
C882 C 0.2935 0.23096 0.76166 0.0
C883 C 0.31464 0.24841 0.76253 0.0
C884 C 0.284 0.22149 0.78949 0.0
C885 C 0.26024 0.20309 0.7321 0.0
C886 C 0.25754 0.22573 0.79905 0.0
C887 C 0.24883 0.21668 0.82541 0.0
C888 C 0.26657 0.20351 0.84248 0.0
C889 C 0.29302 0.19951 0.83318 0.0
C890 C 0.30172 0.2085 0.80687 0.0
H891 H 0.2585 0.19421 0.70956 0.0
H892 H 0.26379 0.18804 0.74735 0.0
H893 H 0.24085 0.2123 0.73795 0.0
H894 H 0.24371 0.23613 0.78621 0.0
H895 H 0.22833 0.21993 0.83243 0.0
H896 H 0.63465 0.73147 0.41675 0.0
H897 H 0.65367 0.7523 0.3753 0.0
H898 H 0.72365 0.70493 0.37745 0.0
H899 H 0.70496 0.68402 0.4187 0.0
H900 H 0.70625 0.77784 0.37455 0.0
H901 H 0.69673 0.69746 0.29093 0.0
H902 H 0.67735 0.69949 0.32428 0.0
H903 H 0.71195 0.69044 0.32498 0.0
C904 C 0.65403 0.72541 0.40833 0.0
C905 C 0.66828 0.70609 0.42109 0.0
C906 C 0.66486 0.73735 0.38471 0.0
C907 C 0.68992 0.72996 0.37323 0.0
C908 C 0.70414 0.71067 0.3858 0.0
H909 H 0.78254 0.77812 0.22472 0.0
H910 H 0.76802 0.75717 0.26845 0.0
C911 C 0.69344 0.69885 0.40948 0.0
C912 C 0.7016 0.74283 0.34856 0.0
H913 H 0.71976 0.73362 0.2769 0.0
C914 C 0.70917 0.76824 0.35316 0.0
C915 C 0.70564 0.73009 0.32086 0.0
C916 C 0.69736 0.70291 0.31473 0.0
C917 C 0.7208 0.78129 0.33072 0.0
C918 C 0.72435 0.76872 0.30279 0.0
C919 C 0.71708 0.74319 0.29834 0.0
C920 C 0.73421 0.78207 0.27748 0.0
C921 C 0.72953 0.8083 0.33729 0.0
C922 C 0.71998 0.80285 0.26807 0.0
C923 C 0.72831 0.81475 0.2434 0.0
C924 C 0.75083 0.80594 0.22765 0.0
C925 C 0.76521 0.78525 0.23687 0.0
C926 C 0.7569 0.77331 0.26169 0.0
H927 H 0.73332 0.81239 0.361 0.0
H928 H 0.74797 0.81261 0.32502 0.0
H929 H 0.71341 0.82117 0.33077 0.0
H930 H 0.70205 0.80951 0.27942 0.0
H931 H 0.71682 0.83055 0.23629 0.0
H932 H 0.80406 0.16741 0.89659 0.0
H933 H 0.7927 0.18975 0.85332 0.0
H934 H 0.83215 0.25663 0.89053 0.0
H935 H 0.84385 0.23448 0.93376 0.0
H936 H 0.76252 0.2346 0.85076 0.0
H937 H 0.86567 0.24592 0.8087 0.0
H938 H 0.85746 0.22388 0.83571 0.0
H939 H 0.86146 0.25691 0.8463 0.0
C940 C 0.8104 0.18686 0.89557 0.0
C941 C 0.82491 0.19915 0.91865 0.0
C942 C 0.80388 0.19957 0.87083 0.0
C943 C 0.81192 0.22468 0.8686 0.0
C944 C 0.82621 0.23708 0.89162 0.0
H945 H 0.79178 0.34348 0.75316 0.0
H946 H 0.80283 0.31573 0.79213 0.0
C947 C 0.83273 0.22442 0.91639 0.0
C948 C 0.80473 0.23824 0.84258 0.0
H949 H 0.83156 0.27005 0.78729 0.0
C950 C 0.77756 0.24215 0.83666 0.0
C951 C 0.82445 0.24795 0.82427 0.0
C952 C 0.8539 0.24328 0.82883 0.0
C953 C 0.76957 0.25643 0.81349 0.0
C954 C 0.78933 0.26665 0.7956 0.0
C955 C 0.81648 0.26222 0.80113 0.0
C956 C 0.78238 0.2831 0.77194 0.0
C957 C 0.74015 0.26126 0.80902 0.0
C958 C 0.76739 0.27383 0.74764 0.0
C959 C 0.76105 0.2897 0.72545 0.0
C960 C 0.7698 0.31484 0.72738 0.0
C961 C 0.78489 0.32406 0.75145 0.0
C962 C 0.7912 0.30827 0.77359 0.0
H963 H 0.72802 0.25665 0.82828 0.0
H964 H 0.73658 0.28132 0.80462 0.0
H965 H 0.733 0.2493 0.78984 0.0
H966 H 0.76079 0.25435 0.74576 0.0
H967 H 0.74942 0.28236 0.70686 0.0
H968 H 0.33879 0.24471 0.50475 0.0
H969 H 0.30834 0.22014 0.47235 0.0
H970 H 0.25391 0.28334 0.47378 0.0
H971 H 0.28449 0.30826 0.50563 0.0
H972 H 0.25784 0.20575 0.48279 0.0
H973 H 0.25891 0.26425 0.38732 0.0
H974 H 0.28305 0.26829 0.4165 0.0
H975 H 0.25033 0.28235 0.42042 0.0
C976 C 0.32044 0.25348 0.49798 0.0
C977 C 0.3141 0.27848 0.50779 0.0
C978 C 0.30307 0.23939 0.47945 0.0
C979 C 0.27903 0.25 0.47028 0.0
C980 C 0.27265 0.27496 0.47997 0.0
H981 H 0.13132 0.18132 0.4164 0.0
H982 H 0.17098 0.19735 0.44287 0.0
C983 C 0.2901 0.28913 0.49835 0.0
C984 C 0.25997 0.23456 0.45187 0.0
H985 H 0.22285 0.23455 0.38948 0.0
C986 C 0.25043 0.21189 0.4622 0.0
C987 C 0.25067 0.24229 0.42474 0.0
C988 C 0.26149 0.26548 0.41143 0.0
C989 C 0.23098 0.19733 0.44677 0.0
C990 C 0.22039 0.20597 0.42064 0.0
C991 C 0.23079 0.22804 0.40966 0.0
C992 C 0.19736 0.19342 0.40532 0.0
C993 C 0.22195 0.1729 0.4587 0.0
C994 C 0.19892 0.18597 0.37537 0.0
C995 C 0.17617 0.17697 0.36023 0.0
C996 C 0.1517 0.17534 0.3749 0.0
C997 C 0.15024 0.18204 0.4049 0.0
C998 C 0.17289 0.1911 0.42 0.0
H999 H 0.23775 0.16485 0.47235 0.0
H1000 H 0.20409 0.17658 0.47274 0.0
H1001 H 0.21654 0.15864 0.44086 0.0
H1002 H 0.21753 0.18781 0.36356 0.0
H1003 H 0.17748 0.1722 0.33693 0.0
H1004 H 0.24513 0.82888 0.02795 0.0
H1005 H 0.27455 0.81003 0.98973 0.0
H1006 H 0.20892 0.76475 0.95482 0.0
H1007 H 0.17928 0.78386 0.99239 0.0
H1008 H 0.28989 0.76183 0.97689 0.0
H1009 H 0.23536 0.79635 0.88264 0.0
H1010 H 0.22873 0.80819 0.91974 0.0
H1011 H 0.21381 0.77905 0.90538 0.0
C1012 C 0.23693 0.81494 0.01211 0.0
C1013 C 0.20977 0.80799 0.01318 0.0
C1014 C 0.25379 0.8042 0.99025 0.0
C1015 C 0.24384 0.78635 0.96902 0.0
C1016 C 0.2169 0.77899 0.97044 0.0
H1017 H 0.31923 0.66952 0.86256 0.0
H1018 H 0.30221 0.69766 0.90273 0.0
C1019 C 0.2 0.78982 0.99212 0.0
C1020 C 0.26166 0.77488 0.94578 0.0
H1021 H 0.26592 0.762 0.87202 0.0
C1022 C 0.28484 0.76214 0.95393 0.0
C1023 C 0.25551 0.77578 0.91575 0.0
C1024 C 0.23216 0.79083 0.90533 0.0
C1025 C 0.30122 0.74917 0.93298 0.0
C1026 C 0.29387 0.74843 0.90313 0.0
C1027 C 0.27147 0.76228 0.8949 0.0
C1028 C 0.30776 0.73198 0.88031 0.0
C1029 C 0.32617 0.73635 0.94312 0.0
C1030 C 0.3165 0.74177 0.85414 0.0
C1031 C 0.32598 0.72557 0.83103 0.0
C1032 C 0.32691 0.69944 0.83387 0.0
C1033 C 0.31916 0.68973 0.86024 0.0
C1034 C 0.30954 0.70583 0.88323 0.0
H1035 H 0.33406 0.74608 0.96352 0.0
H1036 H 0.32126 0.71665 0.94795 0.0
H1037 H 0.34212 0.73586 0.92622 0.0
H1038 H 0.3151 0.76183 0.85125 0.0
H1039 H 0.33148 0.73333 0.81059 0.0
loop_
_geom_bond_atom_site_label_1
_geom_bond_atom_site_label_2
_geom_bond_distance
_geom_bond_site_symmetry_2
_ccdc_geom_bond_type
Fe0 O2 1.918 . S
Fe0 O5 1.997 . S
Fe0 O6 2.002 . S
Fe0 O11 1.976 . S
Fe0 O14 1.996 . S
Fe1 O2 1.918 . S
Fe1 O9 1.997 . S
Fe1 O12 1.996 . S
Fe1 O16 1.976 . S
Fe1 O19 2.002 . S
O2 Fe0 1.918 . S
O2 Fe1 1.918 . S
O2 Fe3 1.918 . S
Fe3 O2 1.918 . S
Fe3 O4 2.002 . S
Fe3 O13 1.976 . S
Fe3 O17 1.996 . S
Fe3 O20 1.997 . S
O4 Fe3 2.002 . S
O4 C21 1.295 . S
O5 Fe0 1.997 . S
O5 C21 1.235 . S
O6 Fe0 2.002 . S
O6 C7 1.295 . S
C7 O6 1.295 . S
C7 O9 1.235 . S
C8 O13 1.287 . S
C8 O14 1.255 . S
O9 Fe1 1.997 . S
O9 C7 1.235 . S
C10 O16 1.287 1_556 S
C10 O17 1.255 1_556 S
O11 Fe0 1.976 . S
O11 C18 1.287 . S
O12 Fe1 1.996 . S
O12 C18 1.255 . S
O13 Fe3 1.976 . S
O13 C8 1.287 . S
O14 Fe0 1.996 . S
O14 C8 1.255 . S
C15 O19 1.295 . S
C15 O20 1.235 . S
O16 Fe1 1.976 . S
O16 C10 1.287 1_554 S
O17 Fe3 1.996 . S
O17 C10 1.255 1_554 S
C18 O11 1.287 . S
C18 O12 1.255 . S
O19 Fe1 2.002 . S
O19 C15 1.295 . S
O20 Fe3 1.997 . S
O20 C15 1.235 . S
C21 O4 1.295 . S
C21 O5 1.235 . S
Fe22 O24 1.918 . S
Fe22 O27 1.997 . S
Fe22 O28 2.002 . S
Fe22 O33 1.976 . S
Fe22 O36 1.996 . S
Fe23 O24 1.918 . S
Fe23 O31 1.997 . S
Fe23 O34 1.996 . S
Fe23 O38 1.976 . S
Fe23 O41 2.002 . S
O24 Fe22 1.918 . S
O24 Fe23 1.918 . S
O24 Fe25 1.918 . S
Fe25 O24 1.918 . S
Fe25 O26 2.002 . S
Fe25 O35 1.976 . S
Fe25 O39 1.996 . S
Fe25 O42 1.997 . S
O26 Fe25 2.002 . S
O26 C43 1.295 . S
O27 Fe22 1.997 . S
O27 C43 1.235 . S
O28 Fe22 2.002 . S
O28 C29 1.295 . S
C29 O28 1.295 . S
C29 O31 1.235 . S
C30 O35 1.287 . S
C30 O36 1.255 . S
O31 Fe23 1.997 . S
O31 C29 1.235 . S
C32 O38 1.287 . S
C32 O39 1.255 . S
O33 Fe22 1.976 . S
O33 C40 1.287 . S
O34 Fe23 1.996 . S
O34 C40 1.255 . S
O35 Fe25 1.976 . S
O35 C30 1.287 . S
O36 Fe22 1.996 . S
O36 C30 1.255 . S
C37 O41 1.295 . S
C37 O42 1.235 . S
O38 Fe23 1.976 . S
O38 C32 1.287 . S
O39 Fe25 1.996 . S
O39 C32 1.255 . S
C40 O33 1.287 . S
C40 O34 1.255 . S
O41 Fe23 2.002 . S
O41 C37 1.295 . S
O42 Fe25 1.997 . S
O42 C37 1.235 . S
C43 O26 1.295 . S
C43 O27 1.235 . S
Fe44 O46 1.918 . S
Fe44 O49 1.997 1_554 S
Fe44 O50 2.002 1_554 S
Fe44 O55 1.976 . S
Fe44 O58 1.996 . S
Fe45 O46 1.918 . S
Fe45 O53 1.997 1_554 S
Fe45 O56 1.996 . S
Fe45 O60 1.976 . S
Fe45 O63 2.002 1_554 S
O46 Fe44 1.918 . S
O46 Fe45 1.918 . S
O46 Fe47 1.918 1_554 S
Fe47 O46 1.918 1_556 S
Fe47 O48 2.002 . S
Fe47 O57 1.976 1_556 S
Fe47 O61 1.996 1_556 S
Fe47 O64 1.997 . S
O48 Fe47 2.002 . S
O48 C65 1.295 . S
O49 Fe44 1.997 1_556 S
O49 C65 1.235 . S
O50 Fe44 2.002 1_556 S
O50 C51 1.295 . S
C51 O50 1.295 . S
C51 O53 1.235 . S
C52 O57 1.287 . S
C52 O58 1.255 . S
O53 Fe45 1.997 1_556 S
O53 C51 1.235 . S
C54 O60 1.287 . S
C54 O61 1.255 . S
O55 Fe44 1.976 . S
O55 C62 1.287 . S
O56 Fe45 1.996 . S
O56 C62 1.255 . S
O57 Fe47 1.976 1_554 S
O57 C52 1.287 . S
O58 Fe44 1.996 . S
O58 C52 1.255 . S
C59 O63 1.295 . S
C59 O64 1.235 . S
O60 Fe45 1.976 . S
O60 C54 1.287 . S
O61 Fe47 1.996 1_554 S
O61 C54 1.255 . S
C62 O55 1.287 . S
C62 O56 1.255 . S
O63 Fe45 2.002 1_556 S
O63 C59 1.295 . S
O64 Fe47 1.997 . S
O64 C59 1.235 . S
C65 O48 1.295 . S
C65 O49 1.235 . S
Fe66 O68 1.918 . S
Fe66 O71 1.997 . S
Fe66 O72 2.002 . S
Fe66 O77 1.976 . S
Fe66 O80 1.996 . S
Fe67 O68 1.918 . S
Fe67 O75 1.997 . S
Fe67 O78 1.996 . S
Fe67 O82 1.976 . S
Fe67 O85 2.002 . S
O68 Fe66 1.918 . S
O68 Fe67 1.918 . S
O68 Fe69 1.918 . S
Fe69 O68 1.918 . S
Fe69 O70 2.002 . S
Fe69 O79 1.976 . S
Fe69 O83 1.996 . S
Fe69 O86 1.997 . S
O70 Fe69 2.002 . S
O70 C87 1.295 . S
O71 Fe66 1.997 . S
O71 C87 1.235 . S
O72 Fe66 2.002 . S
O72 C73 1.295 . S
C73 O72 1.295 . S
C73 O75 1.235 . S
C74 O79 1.287 . S
C74 O80 1.255 . S
O75 Fe67 1.997 . S
O75 C73 1.235 . S
C76 O82 1.287 . S
C76 O83 1.255 . S
O77 Fe66 1.976 . S
O77 C84 1.287 . S
O78 Fe67 1.996 . S
O78 C84 1.255 . S
O79 Fe69 1.976 . S
O79 C74 1.287 . S
O80 Fe66 1.996 . S
O80 C74 1.255 . S
C81 O85 1.295 . S
C81 O86 1.235 . S
O82 Fe67 1.976 . S
O82 C76 1.287 . S
O83 Fe69 1.996 . S
O83 C76 1.255 . S
C84 O77 1.287 . S
C84 O78 1.255 . S
O85 Fe67 2.002 . S
O85 C81 1.295 . S
O86 Fe69 1.997 . S
O86 C81 1.235 . S
C87 O70 1.295 . S
C87 O71 1.235 . S
H88 C91 0.929 . S
H89 C94 0.929 . S
H90 C96 0.930 . S
C91 H88 0.929 . S
C91 C92 1.398 . S
C91 C93 1.396 . S
C92 C91 1.398 . S
C92 C96 1.407 . S
C93 C91 1.396 . S
C93 C94 1.394 . S
C94 H89 0.929 . S
C94 C93 1.394 . S
C94 C95 1.382 . S
C95 C94 1.382 . S
C95 C96 1.392 . S
C95 N97 1.420 . S
C96 H90 0.930 . S
C96 C92 1.407 . S
C96 C95 1.392 . S
N97 C95 1.420 . S
N97 C98 1.244 . S
C98 N97 1.244 . S
H99 C102 0.929 . S
H100 C105 0.929 . S
H101 C107 0.930 . S
C102 H99 0.929 . S
C102 C103 1.398 . S
C102 C104 1.396 . S
C103 C102 1.398 . S
C103 C107 1.407 . S
C104 C102 1.396 . S
C104 C105 1.394 . S
C105 H100 0.929 . S
C105 C104 1.394 . S
C105 C106 1.382 . S
C106 C105 1.382 . S
C106 C107 1.392 . S
C106 N108 1.420 . S
C107 H101 0.930 . S
C107 C103 1.407 . S
C107 C106 1.392 . S
N108 C106 1.420 . S
N108 C109 1.244 . S
C109 N108 1.244 . S
H110 C113 0.929 . S
H111 C116 0.929 . S
H112 C118 0.930 . S
C113 H110 0.929 . S
C113 C114 1.398 . S
C113 C115 1.396 . S
C114 C113 1.398 . S
C114 C118 1.407 . S
C115 C113 1.396 . S
C115 C116 1.394 . S
C116 H111 0.929 . S
C116 C115 1.394 . S
C116 C117 1.382 . S
C117 C116 1.382 . S
C117 C118 1.392 . S
C117 N119 1.420 . S
C118 H112 0.930 . S
C118 C114 1.407 . S
C118 C117 1.392 . S
N119 C117 1.420 . S
N119 C120 1.244 . S
C120 N119 1.244 . S
H121 C124 0.929 . S
H122 C127 0.929 . S
H123 C129 0.930 . S
C124 H121 0.929 . S
C124 C125 1.398 . S
C124 C126 1.396 . S
C125 C124 1.398 . S
C125 C129 1.407 . S
C126 C124 1.396 . S
C126 C127 1.394 . S
C127 H122 0.929 . S
C127 C126 1.394 . S
C127 C128 1.382 . S
C128 C127 1.382 . S
C128 C129 1.392 . S
C128 N130 1.420 . S
C129 H123 0.930 . S
C129 C125 1.407 . S
C129 C128 1.392 . S
N130 C128 1.420 . S
N130 C131 1.244 . S
C131 N130 1.244 . S
H132 C135 0.929 . S
H133 C138 0.929 . S
H134 C140 0.930 . S
C135 H132 0.929 . S
C135 C136 1.398 . S
C135 C137 1.396 . S
C136 C135 1.398 . S
C136 C140 1.407 . S
C137 C135 1.396 . S
C137 C138 1.394 . S
C138 H133 0.929 . S
C138 C137 1.394 . S
C138 C139 1.382 . S
C139 C138 1.382 . S
C139 C140 1.392 . S
C139 N141 1.420 . S
C140 H134 0.930 . S
C140 C136 1.407 . S
C140 C139 1.392 . S
N141 C139 1.420 . S
N141 C142 1.244 . S
C142 N141 1.244 . S
H143 C146 0.929 . S
H144 C149 0.929 . S
H145 C151 0.930 . S
C146 H143 0.929 . S
C146 C147 1.398 . S
C146 C148 1.396 . S
C147 C146 1.398 . S
C147 C151 1.407 . S
C148 C146 1.396 . S
C148 C149 1.394 . S
C149 H144 0.929 . S
C149 C148 1.394 . S
C149 C150 1.382 . S
C150 C149 1.382 . S
C150 C151 1.392 . S
C150 N152 1.420 . S
C151 H145 0.930 . S
C151 C147 1.407 . S
C151 C150 1.392 . S
N152 C150 1.420 . S
N152 C153 1.244 . S
C153 N152 1.244 . S
H154 C157 0.929 . S
H155 C160 0.929 . S
H156 C162 0.930 . S
C157 H154 0.929 . S
C157 C158 1.398 . S
C157 C159 1.396 . S
C158 C157 1.398 . S
C158 C162 1.407 . S
C159 C157 1.396 . S
C159 C160 1.394 . S
C160 H155 0.929 . S
C160 C159 1.394 . S
C160 C161 1.382 . S
C161 C160 1.382 . S
C161 C162 1.392 . S
C161 N163 1.420 . S
C162 H156 0.930 . S
C162 C158 1.407 . S
C162 C161 1.392 . S
N163 C161 1.420 . S
N163 C164 1.244 . S
C164 N163 1.244 . S
H165 C168 0.929 . S
H166 C171 0.929 . S
H167 C173 0.930 . S
C168 H165 0.929 . S
C168 C169 1.398 . S
C168 C170 1.396 . S
C169 C168 1.398 . S
C169 C173 1.407 . S
C170 C168 1.396 . S
C170 C171 1.394 . S
C171 H166 0.929 . S
C171 C170 1.394 . S
C171 C172 1.382 . S
C172 C171 1.382 . S
C172 C173 1.392 . S
C172 N174 1.420 . S
C173 H167 0.930 . S
C173 C169 1.407 . S
C173 C172 1.392 . S
N174 C172 1.420 . S
N174 C175 1.244 . S
C175 N174 1.244 . S
H176 C184 0.929 . S
H177 C186 0.930 . S
H178 C188 0.930 . S
H179 C191 0.929 . S
H180 C194 0.930 . S
H181 C196 0.960 . S
H182 C196 0.960 . S
H183 C196 0.960 . S
C184 H176 0.929 . S
C184 C185 1.377 . S
C184 C186 1.384 . S
C185 C184 1.377 . S
C185 C191 1.390 . S
C186 H177 0.930 . S
C186 C184 1.384 . S
C186 C187 1.372 . S
C187 C186 1.372 . S
C187 C188 1.400 . S
C187 C192 1.490 . S
C188 H178 0.930 . S
C188 C187 1.400 . S
C188 C191 1.386 . S
H189 C205 0.930 . S
H190 C206 0.931 . S
C191 H179 0.929 . S
C191 C185 1.390 . S
C191 C188 1.386 . S
C192 C187 1.490 . S
C192 C194 1.395 1_565 S
C192 C195 1.403 . S
H193 C199 0.930 . S
C194 H180 0.930 . S
C194 C192 1.395 1_545 S
C194 C197 1.403 . S
C195 C192 1.403 . S
C195 C196 1.524 . S
C195 C199 1.400 1_565 S
C196 H181 0.960 . S
C196 H182 0.960 . S
C196 H183 0.960 . S
C196 C195 1.524 . S
C197 C194 1.403 . S
C197 C198 1.392 . S
C197 C201 1.495 . S
C198 C197 1.392 . S
C198 C199 1.385 . S
C198 C200 1.478 . S
C199 H193 0.930 . S
C199 C195 1.400 1_545 S
C199 C198 1.385 . S
C200 C198 1.478 . S
C200 C202 1.381 . S
C200 C206 1.383 . S
C201 C197 1.495 . S
C201 H207 0.959 . S
C201 H208 0.961 . S
C201 H209 0.960 . S
C202 C200 1.381 . S
C202 C203 1.394 . S
C202 H210 0.930 . S
C203 C202 1.394 . S
C203 C204 1.383 . S
C203 H211 0.929 . S
C204 C203 1.383 . S
C204 C205 1.377 . S
C205 H189 0.930 . S
C205 C204 1.377 . S
C205 C206 1.379 . S
C206 H190 0.931 . S
C206 C200 1.383 . S
C206 C205 1.379 . S
H207 C201 0.959 . S
H208 C201 0.961 . S
H209 C201 0.960 . S
H210 C202 0.930 . S
H211 C203 0.929 . S
H212 C220 0.929 . S
H213 C222 0.930 . S
H214 C224 0.930 . S
H215 C227 0.929 . S
H216 C230 0.930 . S
H217 C232 0.960 . S
H218 C232 0.960 . S
H219 C232 0.960 . S
C220 H212 0.929 . S
C220 C221 1.377 . S
C220 C222 1.384 . S
C221 C220 1.377 . S
C221 C227 1.390 . S
C222 H213 0.930 . S
C222 C220 1.384 . S
C222 C223 1.372 . S
C223 C222 1.372 . S
C223 C224 1.400 . S
C223 C228 1.490 . S
C224 H214 0.930 . S
C224 C223 1.400 . S
C224 C227 1.386 . S
H225 C241 0.930 . S
H226 C242 0.931 . S
C227 H215 0.929 . S
C227 C221 1.390 . S
C227 C224 1.386 . S
C228 C223 1.490 . S
C228 C230 1.395 . S
C228 C231 1.403 . S
H229 C235 0.930 . S
C230 H216 0.930 . S
C230 C228 1.395 . S
C230 C233 1.403 . S
C231 C228 1.403 . S
C231 C232 1.524 . S
C231 C235 1.400 . S
C232 H217 0.960 . S
C232 H218 0.960 . S
C232 H219 0.960 . S
C232 C231 1.524 . S
C233 C230 1.403 . S
C233 C234 1.392 . S
C233 C237 1.495 . S
C234 C233 1.392 . S
C234 C235 1.385 . S
C234 C236 1.478 . S
C235 H229 0.930 . S
C235 C231 1.400 . S
C235 C234 1.385 . S
C236 C234 1.478 . S
C236 C238 1.381 . S
C236 C242 1.383 . S
C237 C233 1.495 . S
C237 H243 0.959 . S
C237 H244 0.961 . S
C237 H245 0.960 . S
C238 C236 1.381 . S
C238 C239 1.394 . S
C238 H246 0.930 . S
C239 C238 1.394 . S
C239 C240 1.383 . S
C239 H247 0.929 . S
C240 C239 1.383 . S
C240 C241 1.377 . S
C241 H225 0.930 . S
C241 C240 1.377 . S
C241 C242 1.379 . S
C242 H226 0.931 . S
C242 C236 1.383 . S
C242 C241 1.379 . S
H243 C237 0.959 . S
H244 C237 0.961 . S
H245 C237 0.960 . S
H246 C238 0.930 . S
H247 C239 0.929 . S
H248 C256 0.929 . S
H249 C258 0.930 . S
H250 C260 0.930 . S
H251 C263 0.929 . S
H252 C266 0.930 1_545 S
H253 C268 0.960 . S
H254 C268 0.960 1_545 S
H255 C268 0.964 . S
C256 H248 0.929 . S
C256 C257 1.377 . S
C256 C258 1.384 . S
C257 C256 1.377 . S
C257 C263 1.390 . S
C258 H249 0.930 . S
C258 C256 1.384 . S
C258 C259 1.372 . S
C259 C258 1.372 . S
C259 C260 1.400 . S
C259 C264 1.490 . S
C260 H250 0.930 . S
C260 C259 1.400 . S
C260 C263 1.386 . S
H261 C277 0.930 . S
H262 C278 0.931 . S
C263 H251 0.929 . S
C263 C257 1.390 . S
C263 C260 1.386 . S
C264 C259 1.490 . S
C264 C266 1.395 1_545 S
C264 C267 1.403 1_545 S
H265 C271 0.930 . S
C266 H252 0.930 1_565 S
C266 C264 1.395 1_565 S
C266 C269 1.403 . S
C267 C264 1.403 1_565 S
C267 C268 1.524 . S
C267 C271 1.400 . S
C268 H253 0.960 . S
C268 H254 0.960 1_565 S
C268 H255 0.964 . S
C268 C267 1.524 . S
C269 C266 1.403 . S
C269 C270 1.392 . S
C269 C273 1.495 . S
C270 C269 1.392 . S
C270 C271 1.385 . S
C270 C272 1.478 . S
C271 H265 0.930 . S
C271 C267 1.400 . S
C271 C270 1.385 . S
C272 C270 1.478 . S
C272 C274 1.381 . S
C272 C278 1.383 . S
C273 C269 1.495 . S
C273 H279 0.959 . S
C273 H280 0.961 . S
C273 H281 0.960 . S
C274 C272 1.381 . S
C274 C275 1.394 . S
C274 H282 0.930 . S
C275 C274 1.394 . S
C275 C276 1.383 . S
C275 H283 0.929 . S
C276 C275 1.383 . S
C276 C277 1.377 . S
C277 H261 0.930 . S
C277 C276 1.377 . S
C277 C278 1.379 . S
C278 H262 0.931 . S
C278 C272 1.383 . S
C278 C277 1.379 . S
H279 C273 0.959 . S
H280 C273 0.961 . S
H281 C273 0.960 . S
H282 C274 0.930 . S
H283 C275 0.929 . S
H284 C292 0.929 . S
H285 C294 0.930 . S
H286 C296 0.930 . S
H287 C299 0.929 . S
H288 C302 0.930 . S
H289 C304 0.960 . S
H290 C304 0.960 . S
H291 C304 0.960 . S
C292 H284 0.929 . S
C292 C293 1.377 . S
C292 C294 1.384 . S
C293 C292 1.377 . S
C293 C299 1.390 . S
C294 H285 0.930 . S
C294 C292 1.384 . S
C294 C295 1.372 . S
C295 C294 1.372 . S
C295 C296 1.400 . S
C295 C300 1.490 . S
C296 H286 0.930 . S
C296 C295 1.400 . S
C296 C299 1.386 . S
H297 C313 0.930 . S
H298 C314 0.931 . S
C299 H287 0.929 . S
C299 C293 1.390 . S
C299 C296 1.386 . S
C300 C295 1.490 . S
C300 C302 1.395 . S
C300 C303 1.403 . S
H301 C307 0.930 . S
C302 H288 0.930 . S
C302 C300 1.395 . S
C302 C305 1.403 . S
C303 C300 1.403 . S
C303 C304 1.524 . S
C303 C307 1.400 . S
C304 H289 0.960 . S
C304 H290 0.960 . S
C304 H291 0.960 . S
C304 C303 1.524 . S
C305 C302 1.403 . S
C305 C306 1.392 . S
C305 C309 1.495 . S
C306 C305 1.392 . S
C306 C307 1.385 . S
C306 C308 1.478 . S
C307 H301 0.930 . S
C307 C303 1.400 . S
C307 C306 1.385 . S
C308 C306 1.478 . S
C308 C310 1.381 . S
C308 C314 1.383 . S
C309 C305 1.495 . S
C309 H315 0.959 . S
C309 H316 0.961 . S
C309 H317 0.960 . S
C310 C308 1.381 . S
C310 C311 1.394 . S
C310 H318 0.930 . S
C311 C310 1.394 . S
C311 C312 1.383 . S
C311 H319 0.929 . S
C312 C311 1.383 . S
C312 C313 1.377 . S
C313 H297 0.930 . S
C313 C312 1.377 . S
C313 C314 1.379 . S
C314 H298 0.931 . S
C314 C308 1.383 . S
C314 C313 1.379 . S
H315 C309 0.959 . S
H316 C309 0.961 . S
H317 C309 0.960 . S
H318 C310 0.930 . S
H319 C311 0.929 . S
H320 C328 0.929 . S
H321 C330 0.930 . S
H322 C332 0.930 . S
H323 C335 0.929 . S
H324 C338 0.930 . S
H325 C340 0.960 . S
H326 C340 0.960 . S
H327 C340 0.960 . S
C328 H320 0.929 . S
C328 C329 1.377 . S
C328 C330 1.384 . S
C329 C328 1.377 . S
C329 C335 1.390 . S
C330 H321 0.930 . S
C330 C328 1.384 . S
C330 C331 1.372 . S
C331 C330 1.372 . S
C331 C332 1.400 . S
C331 C336 1.490 . S
C332 H322 0.930 . S
C332 C331 1.400 . S
C332 C335 1.386 . S
H333 C349 0.930 . S
H334 C350 0.931 . S
C335 H323 0.929 . S
C335 C329 1.390 . S
C335 C332 1.386 . S
C336 C331 1.490 . S
C336 C338 1.395 . S
C336 C339 1.403 . S
H337 C343 0.930 . S
C338 H324 0.930 . S
C338 C336 1.395 . S
C338 C341 1.403 . S
C339 C336 1.403 . S
C339 C340 1.524 . S
C339 C343 1.400 . S
C340 H325 0.960 . S
C340 H326 0.960 . S
C340 H327 0.960 . S
C340 C339 1.524 . S
C341 C338 1.403 . S
C341 C342 1.392 . S
C341 C345 1.495 . S
C342 C341 1.392 . S
C342 C343 1.385 . S
C342 C344 1.478 . S
C343 H337 0.930 . S
C343 C339 1.400 . S
C343 C342 1.385 . S
C344 C342 1.478 . S
C344 C346 1.381 . S
C344 C350 1.383 . S
C345 C341 1.495 . S
C345 H351 0.959 . S
C345 H352 0.961 . S
C345 H353 0.960 . S
C346 C344 1.381 . S
C346 C347 1.394 . S
C346 H354 0.930 . S
C347 C346 1.394 . S
C347 C348 1.383 . S
C347 H355 0.929 . S
C348 C347 1.383 . S
C348 C349 1.377 . S
C349 H333 0.930 . S
C349 C348 1.377 . S
C349 C350 1.379 . S
C350 H334 0.931 . S
C350 C344 1.383 . S
C350 C349 1.379 . S
H351 C345 0.959 . S
H352 C345 0.961 . S
H353 C345 0.960 . S
H354 C346 0.930 . S
H355 C347 0.929 . S
H356 C364 0.929 1_554 S
H357 C366 0.930 1_455 S
H358 C368 0.930 . S
H359 C371 0.929 . S
H360 C374 0.930 . S
H361 C376 0.960 . S
H362 C376 0.960 . S
H363 C376 0.960 . S
C364 H356 0.929 1_556 S
C364 C365 1.377 . S
C364 C366 1.384 . S
C365 C364 1.377 . S
C365 C371 1.390 . S
C366 H357 0.930 1_655 S
C366 C364 1.384 . S
C366 C367 1.372 1_655 S
C367 C366 1.372 1_455 S
C367 C368 1.400 1_455 S
C367 C372 1.490 . S
C368 H358 0.930 . S
C368 C367 1.400 1_655 S
C368 C371 1.386 . S
H369 C385 0.930 . S
H370 C386 0.931 . S
C371 H359 0.929 . S
C371 C365 1.390 . S
C371 C368 1.386 . S
C372 C367 1.490 . S
C372 C374 1.395 . S
C372 C375 1.403 . S
H373 C379 0.930 . S
C374 H360 0.930 . S
C374 C372 1.395 . S
C374 C377 1.403 . S
C375 C372 1.403 . S
C375 C376 1.524 . S
C375 C379 1.400 . S
C376 H361 0.960 . S
C376 H362 0.960 . S
C376 H363 0.960 . S
C376 C375 1.524 . S
C377 C374 1.403 . S
C377 C378 1.392 . S
C377 C381 1.495 . S
C378 C377 1.392 . S
C378 C379 1.385 . S
C378 C380 1.478 . S
C379 H373 0.930 . S
C379 C375 1.400 . S
C379 C378 1.385 . S
C380 C378 1.478 . S
C380 C382 1.381 . S
C380 C386 1.383 . S
C381 C377 1.495 . S
C381 H387 0.959 . S
C381 H388 0.961 . S
C381 H389 0.960 . S
C382 C380 1.381 . S
C382 C383 1.394 . S
C382 H390 0.930 . S
C383 C382 1.394 . S
C383 C384 1.383 . S
C383 H391 0.929 . S
C384 C383 1.383 . S
C384 C385 1.377 . S
C385 H369 0.930 . S
C385 C384 1.377 . S
C385 C386 1.379 . S
C386 H370 0.931 . S
C386 C380 1.383 . S
C386 C385 1.379 . S
H387 C381 0.959 . S
H388 C381 0.961 . S
H389 C381 0.960 . S
H390 C382 0.930 . S
H391 C383 0.929 . S
H392 C400 0.929 . S
H393 C402 0.930 . S
H394 C404 0.930 . S
H395 C407 0.929 . S
H396 C410 0.930 . S
H397 C412 0.960 . S
H398 C412 0.960 . S
H399 C412 0.960 . S
C400 H392 0.929 . S
C400 C401 1.377 . S
C400 C402 1.384 . S
C401 C400 1.377 . S
C401 C407 1.390 . S
C402 H393 0.930 . S
C402 C400 1.384 . S
C402 C403 1.372 . S
C403 C402 1.372 . S
C403 C404 1.400 . S
C403 C408 1.490 . S
C404 H394 0.930 . S
C404 C403 1.400 . S
C404 C407 1.386 . S
H405 C421 0.930 . S
H406 C422 0.931 . S
C407 H395 0.929 . S
C407 C401 1.390 . S
C407 C404 1.386 . S
C408 C403 1.490 . S
C408 C410 1.395 . S
C408 C411 1.403 . S
H409 C415 0.930 . S
C410 H396 0.930 . S
C410 C408 1.395 . S
C410 C413 1.403 . S
C411 C408 1.403 . S
C411 C412 1.524 . S
C411 C415 1.400 . S
C412 H397 0.960 . S
C412 H398 0.960 . S
C412 H399 0.960 . S
C412 C411 1.524 . S
C413 C410 1.403 . S
C413 C414 1.392 . S
C413 C417 1.495 . S
C414 C413 1.392 . S
C414 C415 1.385 . S
C414 C416 1.478 . S
C415 H409 0.930 . S
C415 C411 1.400 . S
C415 C414 1.385 . S
C416 C414 1.478 . S
C416 C418 1.381 . S
C416 C422 1.383 . S
C417 C413 1.495 . S
C417 H423 0.959 . S
C417 H424 0.961 . S
C417 H425 0.960 . S
C418 C416 1.381 . S
C418 C419 1.394 . S
C418 H426 0.930 . S
C419 C418 1.394 . S
C419 C420 1.383 . S
C419 H427 0.929 . S
C420 C419 1.383 . S
C420 C421 1.377 . S
C421 H405 0.930 . S
C421 C420 1.377 . S
C421 C422 1.379 . S
C422 H406 0.931 . S
C422 C416 1.383 . S
C422 C421 1.379 . S
H423 C417 0.959 . S
H424 C417 0.961 . S
H425 C417 0.960 . S
H426 C418 0.930 . S
H427 C419 0.929 . S
H428 C436 0.929 . S
H429 C438 0.930 . S
H430 C440 0.930 . S
H431 C443 0.929 . S
H432 C446 0.930 . S
H433 C448 0.960 . S
H434 C448 0.960 . S
H435 C448 0.960 . S
C436 H428 0.929 . S
C436 C437 1.377 . S
C436 C438 1.384 . S
C437 C436 1.377 . S
C437 C443 1.390 . S
C438 H429 0.930 . S
C438 C436 1.384 . S
C438 C439 1.372 . S
C439 C438 1.372 . S
C439 C440 1.400 . S
C439 C444 1.490 . S
C440 H430 0.930 . S
C440 C439 1.400 . S
C440 C443 1.386 . S
H441 C457 0.930 . S
H442 C458 0.931 . S
C443 H431 0.929 . S
C443 C437 1.390 . S
C443 C440 1.386 . S
C444 C439 1.490 . S
C444 C446 1.395 . S
C444 C447 1.403 1_455 S
H445 C451 0.930 . S
C446 H432 0.930 . S
C446 C444 1.395 . S
C446 C449 1.403 . S
C447 C444 1.403 1_655 S
C447 C448 1.524 . S
C447 C451 1.400 . S
C448 H433 0.960 . S
C448 H434 0.960 . S
C448 H435 0.960 . S
C448 C447 1.524 . S
C449 C446 1.403 . S
C449 C450 1.392 1_455 S
C449 C453 1.495 . S
C450 C449 1.392 1_655 S
C450 C451 1.385 . S
C450 C452 1.478 . S
C451 H445 0.930 . S
C451 C447 1.400 . S
C451 C450 1.385 . S
C452 C450 1.478 . S
C452 C454 1.381 . S
C452 C458 1.383 . S
C453 C449 1.495 . S
C453 H459 0.959 . S
C453 H460 0.961 . S
C453 H461 0.960 . S
C454 C452 1.381 . S
C454 C455 1.394 . S
C454 H462 0.930 . S
C455 C454 1.394 . S
C455 C456 1.383 . S
C455 H463 0.929 . S
C456 C455 1.383 . S
C456 C457 1.377 . S
C457 H441 0.930 . S
C457 C456 1.377 . S
C457 C458 1.379 . S
C458 H442 0.931 . S
C458 C452 1.383 . S
C458 C457 1.379 . S
H459 C453 0.959 . S
H460 C453 0.961 . S
H461 C453 0.960 . S
H462 C454 0.930 . S
H463 C455 0.929 . S
H464 C472 0.929 . S
H465 C474 0.930 . S
H466 C476 0.930 . S
H467 C479 0.929 . S
H468 C482 0.930 . S
H469 C484 0.960 1_565 S
H470 C484 0.960 1_565 S
H471 C484 0.961 . S
C472 H464 0.929 . S
C472 C473 1.377 . S
C472 C474 1.384 . S
C473 C472 1.377 . S
C473 C479 1.390 . S
C474 H465 0.930 . S
C474 C472 1.384 . S
C474 C475 1.372 . S
C475 C474 1.372 . S
C475 C476 1.400 . S
C475 C480 1.490 . S
C476 H466 0.930 . S
C476 C475 1.400 . S
C476 C479 1.386 . S
H477 C493 0.930 . S
H478 C494 0.931 . S
C479 H467 0.929 . S
C479 C473 1.390 . S
C479 C476 1.386 . S
C480 C475 1.490 . S
C480 C482 1.395 . S
C480 C483 1.403 1_545 S
H481 C487 0.930 . S
C482 H468 0.930 . S
C482 C480 1.395 . S
C482 C485 1.403 1_545 S
C483 C480 1.403 1_565 S
C483 C484 1.524 1_565 S
C483 C487 1.400 . S
C484 H469 0.960 1_545 S
C484 H470 0.960 1_545 S
C484 H471 0.961 . S
C484 C483 1.524 1_545 S
C485 C482 1.403 1_565 S
C485 C486 1.392 . S
C485 C489 1.495 . S
C486 C485 1.392 . S
C486 C487 1.385 . S
C486 C488 1.478 . S
C487 H481 0.930 . S
C487 C483 1.400 . S
C487 C486 1.385 . S
C488 C486 1.478 . S
C488 C490 1.381 . S
C488 C494 1.383 . S
C489 C485 1.495 . S
C489 H495 0.959 . S
C489 H496 0.961 . S
C489 H497 0.960 . S
C490 C488 1.381 . S
C490 C491 1.394 . S
C490 H498 0.930 . S
C491 C490 1.394 . S
C491 C492 1.383 . S
C491 H499 0.929 . S
C492 C491 1.383 . S
C492 C493 1.377 . S
C493 H477 0.930 . S
C493 C492 1.377 . S
C493 C494 1.379 . S
C494 H478 0.931 . S
C494 C488 1.383 . S
C494 C493 1.379 . S
H495 C489 0.959 . S
H496 C489 0.961 . S
H497 C489 0.960 . S
H498 C490 0.930 . S
H499 C491 0.929 . S
H500 C508 0.929 . S
H501 C510 0.930 . S
H502 C512 0.930 . S
H503 C515 0.929 . S
H504 C518 0.930 . S
H505 C520 0.960 . S
H506 C520 0.960 . S
H507 C520 0.960 . S
C508 H500 0.929 . S
C508 C509 1.377 . S
C508 C510 1.384 . S
C509 C508 1.377 . S
C509 C515 1.390 . S
C510 H501 0.930 . S
C510 C508 1.384 . S
C510 C511 1.372 . S
C511 C510 1.372 . S
C511 C512 1.400 . S
C511 C516 1.490 . S
C512 H502 0.930 . S
C512 C511 1.400 . S
C512 C515 1.386 . S
H513 C529 0.930 . S
H514 C530 0.931 . S
C515 H503 0.929 . S
C515 C509 1.390 . S
C515 C512 1.386 . S
C516 C511 1.490 . S
C516 C518 1.395 . S
C516 C519 1.403 . S
H517 C523 0.930 . S
C518 H504 0.930 . S
C518 C516 1.395 . S
C518 C521 1.403 . S
C519 C516 1.403 . S
C519 C520 1.524 . S
C519 C523 1.400 . S
C520 H505 0.960 . S
C520 H506 0.960 . S
C520 H507 0.960 . S
C520 C519 1.524 . S
C521 C518 1.403 . S
C521 C522 1.392 . S
C521 C525 1.495 . S
C522 C521 1.392 . S
C522 C523 1.385 . S
C522 C524 1.478 . S
C523 H517 0.930 . S
C523 C519 1.400 . S
C523 C522 1.385 . S
C524 C522 1.478 . S
C524 C526 1.381 . S
C524 C530 1.383 . S
C525 C521 1.495 . S
C525 H531 0.959 . S
C525 H532 0.961 . S
C525 H533 0.960 . S
C526 C524 1.381 . S
C526 C527 1.394 . S
C526 H534 0.930 . S
C527 C526 1.394 . S
C527 C528 1.383 . S
C527 H535 0.929 . S
C528 C527 1.383 . S
C528 C529 1.377 . S
C529 H513 0.930 . S
C529 C528 1.377 . S
C529 C530 1.379 . S
C530 H514 0.931 . S
C530 C524 1.383 . S
C530 C529 1.379 . S
H531 C525 0.959 . S
H532 C525 0.961 . S
H533 C525 0.960 . S
H534 C526 0.930 . S
H535 C527 0.929 . S
H536 C544 0.929 . S
H537 C546 0.930 . S
H538 C548 0.930 . S
H539 C551 0.929 . S
H540 C554 0.930 1_565 S
H541 C556 0.960 . S
H542 C556 0.960 1_565 S
H543 C556 0.960 . S
C544 H536 0.929 . S
C544 C545 1.377 1_556 S
C544 C546 1.384 . S
C545 C544 1.377 1_554 S
C545 C551 1.390 . S
C546 H537 0.930 . S
C546 C544 1.384 . S
C546 C547 1.372 . S
C547 C546 1.372 . S
C547 C548 1.400 1_556 S
C547 C552 1.490 . S
C548 H538 0.930 . S
C548 C547 1.400 1_554 S
C548 C551 1.386 . S
H549 C565 0.930 . S
H550 C566 0.931 . S
C551 H539 0.929 . S
C551 C545 1.390 . S
C551 C548 1.386 . S
C552 C547 1.490 . S
C552 C554 1.395 1_565 S
C552 C555 1.403 1_565 S
H553 C559 0.930 . S
C554 H540 0.930 1_545 S
C554 C552 1.395 1_545 S
C554 C557 1.403 . S
C555 C552 1.403 1_545 S
C555 C556 1.524 1_556 S
C555 C559 1.400 . S
C556 H541 0.960 . S
C556 H542 0.960 1_545 S
C556 H543 0.960 . S
C556 C555 1.524 1_554 S
C557 C554 1.403 . S
C557 C558 1.392 . S
C557 C561 1.495 . S
C558 C557 1.392 . S
C558 C559 1.385 . S
C558 C560 1.478 . S
C559 H553 0.930 . S
C559 C555 1.400 . S
C559 C558 1.385 . S
C560 C558 1.478 . S
C560 C562 1.381 . S
C560 C566 1.383 . S
C561 C557 1.495 . S
C561 H567 0.959 . S
C561 H568 0.961 . S
C561 H569 0.960 . S
C562 C560 1.381 . S
C562 C563 1.394 . S
C562 H570 0.930 . S
C563 C562 1.394 . S
C563 C564 1.383 . S
C563 H571 0.929 . S
C564 C563 1.383 . S
C564 C565 1.377 . S
C565 H549 0.930 . S
C565 C564 1.377 . S
C565 C566 1.379 . S
C566 H550 0.931 . S
C566 C560 1.383 . S
C566 C565 1.379 . S
H567 C561 0.959 . S
H568 C561 0.961 . S
H569 C561 0.960 . S
H570 C562 0.930 . S
H571 C563 0.929 . S
H572 C580 0.929 . S
H573 C582 0.930 . S
H574 C584 0.930 . S
H575 C587 0.929 . S
H576 C590 0.930 . S
H577 C592 0.960 . S
H578 C592 0.960 . S
H579 C592 0.960 . S
C580 H572 0.929 . S
C580 C581 1.377 . S
C580 C582 1.384 . S
C581 C580 1.377 . S
C581 C587 1.390 . S
C582 H573 0.930 . S
C582 C580 1.384 . S
C582 C583 1.372 . S
C583 C582 1.372 . S
C583 C584 1.400 . S
C583 C588 1.490 . S
C584 H574 0.930 . S
C584 C583 1.400 . S
C584 C587 1.386 . S
H585 C601 0.930 . S
H586 C602 0.931 . S
C587 H575 0.929 . S
C587 C581 1.390 . S
C587 C584 1.386 . S
C588 C583 1.490 . S
C588 C590 1.395 . S
C588 C591 1.403 . S
H589 C595 0.930 . S
C590 H576 0.930 . S
C590 C588 1.395 . S
C590 C593 1.403 . S
C591 C588 1.403 . S
C591 C592 1.524 . S
C591 C595 1.400 . S
C592 H577 0.960 . S
C592 H578 0.960 . S
C592 H579 0.960 . S
C592 C591 1.524 . S
C593 C590 1.403 . S
C593 C594 1.392 . S
C593 C597 1.495 . S
C594 C593 1.392 . S
C594 C595 1.385 . S
C594 C596 1.478 . S
C595 H589 0.930 . S
C595 C591 1.400 . S
C595 C594 1.385 . S
C596 C594 1.478 . S
C596 C598 1.381 . S
C596 C602 1.383 . S
C597 C593 1.495 . S
C597 H603 0.959 . S
C597 H604 0.961 . S
C597 H605 0.960 . S
C598 C596 1.381 . S
C598 C599 1.394 . S
C598 H606 0.930 . S
C599 C598 1.394 . S
C599 C600 1.383 . S
C599 H607 0.929 . S
C600 C599 1.383 . S
C600 C601 1.377 . S
C601 H585 0.930 . S
C601 C600 1.377 . S
C601 C602 1.379 . S
C602 H586 0.931 . S
C602 C596 1.383 . S
C602 C601 1.379 . S
H603 C597 0.959 . S
H604 C597 0.961 . S
H605 C597 0.960 . S
H606 C598 0.930 . S
H607 C599 0.929 . S
H608 C616 0.929 . S
H609 C618 0.930 . S
H610 C620 0.930 . S
H611 C623 0.929 . S
H612 C626 0.930 . S
H613 C628 0.960 . S
H614 C628 0.960 . S
H615 C628 0.960 . S
C616 H608 0.929 . S
C616 C617 1.377 . S
C616 C618 1.384 . S
C617 C616 1.377 . S
C617 C623 1.390 . S
C618 H609 0.930 . S
C618 C616 1.384 . S
C618 C619 1.372 . S
C619 C618 1.372 . S
C619 C620 1.400 . S
C619 C624 1.490 . S
C620 H610 0.930 . S
C620 C619 1.400 . S
C620 C623 1.386 . S
H621 C637 0.930 . S
H622 C638 0.931 . S
C623 H611 0.929 . S
C623 C617 1.390 . S
C623 C620 1.386 . S
C624 C619 1.490 . S
C624 C626 1.395 . S
C624 C627 1.403 . S
H625 C631 0.930 . S
C626 H612 0.930 . S
C626 C624 1.395 . S
C626 C629 1.403 . S
C627 C624 1.403 . S
C627 C628 1.524 . S
C627 C631 1.400 . S
C628 H613 0.960 . S
C628 H614 0.960 . S
C628 H615 0.960 . S
C628 C627 1.524 . S
C629 C626 1.403 . S
C629 C630 1.392 . S
C629 C633 1.495 . S
C630 C629 1.392 . S
C630 C631 1.385 . S
C630 C632 1.478 . S
C631 H625 0.930 . S
C631 C627 1.400 . S
C631 C630 1.385 . S
C632 C630 1.478 . S
C632 C634 1.381 . S
C632 C638 1.383 . S
C633 C629 1.495 . S
C633 H639 0.959 . S
C633 H640 0.961 . S
C633 H641 0.960 . S
C634 C632 1.381 . S
C634 C635 1.394 . S
C634 H642 0.930 . S
C635 C634 1.394 . S
C635 C636 1.383 . S
C635 H643 0.929 . S
C636 C635 1.383 . S
C636 C637 1.377 . S
C637 H621 0.930 . S
C637 C636 1.377 . S
C637 C638 1.379 . S
C638 H622 0.931 . S
C638 C632 1.383 . S
C638 C637 1.379 . S
H639 C633 0.959 . S
H640 C633 0.961 . S
H641 C633 0.960 . S
H642 C634 0.930 . S
H643 C635 0.929 . S
H644 C652 0.929 . S
H645 C654 0.930 1_655 S
H646 C656 0.930 . S
H647 C659 0.929 . S
H648 C662 0.930 . S
H649 C664 0.960 . S
H650 C664 0.960 . S
H651 C664 0.960 . S
C652 H644 0.929 . S
C652 C653 1.377 . S
C652 C654 1.384 . S
C653 C652 1.377 . S
C653 C659 1.390 . S
C654 H645 0.930 1_455 S
C654 C652 1.384 . S
C654 C655 1.372 1_455 S
C655 C654 1.372 1_655 S
C655 C656 1.400 1_655 S
C655 C660 1.490 . S
C656 H646 0.930 . S
C656 C655 1.400 1_455 S
C656 C659 1.386 . S
H657 C673 0.930 . S
H658 C674 0.931 . S
C659 H647 0.929 . S
C659 C653 1.390 . S
C659 C656 1.386 . S
C660 C655 1.490 . S
C660 C662 1.395 . S
C660 C663 1.403 . S
H661 C667 0.930 . S
C662 H648 0.930 . S
C662 C660 1.395 . S
C662 C665 1.403 . S
C663 C660 1.403 . S
C663 C664 1.524 . S
C663 C667 1.400 . S
C664 H649 0.960 . S
C664 H650 0.960 . S
C664 H651 0.960 . S
C664 C663 1.524 . S
C665 C662 1.403 . S
C665 C666 1.392 . S
C665 C669 1.495 . S
C666 C665 1.392 . S
C666 C667 1.385 . S
C666 C668 1.478 . S
C667 H661 0.930 . S
C667 C663 1.400 . S
C667 C666 1.385 . S
C668 C666 1.478 . S
C668 C670 1.381 . S
C668 C674 1.383 . S
C669 C665 1.495 . S
C669 H675 0.959 . S
C669 H676 0.961 . S
C669 H677 0.960 . S
C670 C668 1.381 . S
C670 C671 1.394 . S
C670 H678 0.930 . S
C671 C670 1.394 . S
C671 C672 1.383 . S
C671 H679 0.929 . S
C672 C671 1.383 . S
C672 C673 1.377 . S
C673 H657 0.930 . S
C673 C672 1.377 . S
C673 C674 1.379 . S
C674 H658 0.931 . S
C674 C668 1.383 . S
C674 C673 1.379 . S
H675 C669 0.959 . S
H676 C669 0.961 . S
H677 C669 0.960 . S
H678 C670 0.930 . S
H679 C671 0.929 . S
H680 C688 0.929 . S
H681 C690 0.930 . S
H682 C692 0.930 . S
H683 C695 0.929 . S
H684 C698 0.930 . S
H685 C700 0.960 . S
H686 C700 0.960 . S
H687 C700 0.960 . S
C688 H680 0.929 . S
C688 C689 1.377 . S
C688 C690 1.384 . S
C689 C688 1.377 . S
C689 C695 1.390 . S
C690 H681 0.930 . S
C690 C688 1.384 . S
C690 C691 1.372 . S
C691 C690 1.372 . S
C691 C692 1.400 . S
C691 C696 1.490 . S
C692 H682 0.930 . S
C692 C691 1.400 . S
C692 C695 1.386 . S
H693 C709 0.930 . S
H694 C710 0.931 . S
C695 H683 0.929 . S
C695 C689 1.390 . S
C695 C692 1.386 . S
C696 C691 1.490 . S
C696 C698 1.395 . S
C696 C699 1.403 . S
H697 C703 0.930 . S
C698 H684 0.930 . S
C698 C696 1.395 . S
C698 C701 1.403 . S
C699 C696 1.403 . S
C699 C700 1.524 . S
C699 C703 1.400 . S
C700 H685 0.960 . S
C700 H686 0.960 . S
C700 H687 0.960 . S
C700 C699 1.524 . S
C701 C698 1.403 . S
C701 C702 1.392 . S
C701 C705 1.495 . S
C702 C701 1.392 . S
C702 C703 1.385 . S
C702 C704 1.478 . S
C703 H697 0.930 . S
C703 C699 1.400 . S
C703 C702 1.385 . S
C704 C702 1.478 . S
C704 C706 1.381 . S
C704 C710 1.383 . S
C705 C701 1.495 . S
C705 H711 0.959 . S
C705 H712 0.961 . S
C705 H713 0.960 . S
C706 C704 1.381 . S
C706 C707 1.394 . S
C706 H714 0.930 . S
C707 C706 1.394 . S
C707 C708 1.383 . S
C707 H715 0.929 . S
C708 C707 1.383 . S
C708 C709 1.377 . S
C709 H693 0.930 . S
C709 C708 1.377 . S
C709 C710 1.379 . S
C710 H694 0.931 . S
C710 C704 1.383 . S
C710 C709 1.379 . S
H711 C705 0.959 . S
H712 C705 0.961 . S
H713 C705 0.960 . S
H714 C706 0.930 . S
H715 C707 0.929 . S
H716 C724 0.929 . S
H717 C726 0.930 . S
H718 C728 0.930 . S
H719 C731 0.929 . S
H720 C734 0.938 . S
H721 C736 0.960 . S
H722 C736 0.960 . S
H723 C736 0.960 . S
C724 H716 0.929 . S
C724 C725 1.377 . S
C724 C726 1.384 . S
C725 C724 1.377 . S
C725 C731 1.390 . S
C726 H717 0.930 . S
C726 C724 1.384 . S
C726 C727 1.372 . S
C727 C726 1.372 . S
C727 C728 1.400 . S
C727 C732 1.490 . S
C728 H718 0.930 . S
C728 C727 1.400 . S
C728 C731 1.386 . S
H729 C745 0.930 . S
H730 C746 0.931 . S
C731 H719 0.929 . S
C731 C725 1.390 . S
C731 C728 1.386 . S
C732 C727 1.490 . S
C732 C734 1.363 1_655 S
C732 C735 1.403 . S
H733 C739 0.930 . S
C734 H720 0.938 . S
C734 C732 1.363 1_455 S
C734 C737 1.427 . S
C735 C732 1.403 . S
C735 C736 1.524 . S
C735 C739 1.400 . S
C736 H721 0.960 . S
C736 H722 0.960 . S
C736 H723 0.960 . S
C736 C735 1.524 . S
C737 C734 1.427 . S
C737 C738 1.392 . S
C737 C741 1.495 . S
C738 C737 1.392 . S
C738 C739 1.385 1_455 S
C738 C740 1.478 . S
C739 H733 0.930 . S
C739 C735 1.400 . S
C739 C738 1.385 1_655 S
C740 C738 1.478 . S
C740 C742 1.381 . S
C740 C746 1.383 . S
C741 C737 1.495 . S
C741 H747 0.959 . S
C741 H748 0.961 . S
C741 H749 0.960 . S
C742 C740 1.381 . S
C742 C743 1.394 . S
C742 H750 0.930 . S
C743 C742 1.394 . S
C743 C744 1.383 . S
C743 H751 0.929 . S
C744 C743 1.383 . S
C744 C745 1.377 . S
C745 H729 0.930 . S
C745 C744 1.377 . S
C745 C746 1.379 . S
C746 H730 0.931 . S
C746 C740 1.383 . S
C746 C745 1.379 . S
H747 C741 0.959 . S
H748 C741 0.961 . S
H749 C741 0.960 . S
H750 C742 0.930 . S
H751 C743 0.929 . S
H752 C760 0.929 . S
H753 C762 0.930 . S
H754 C764 0.930 . S
H755 C767 0.929 . S
H756 C770 0.930 . S
H757 C772 0.960 . S
H758 C772 0.960 . S
H759 C772 0.960 . S
C760 H752 0.929 . S
C760 C761 1.377 . S
C760 C762 1.384 . S
C761 C760 1.377 . S
C761 C767 1.390 . S
C762 H753 0.930 . S
C762 C760 1.384 . S
C762 C763 1.372 . S
C763 C762 1.372 . S
C763 C764 1.400 . S
C763 C768 1.490 . S
C764 H754 0.930 . S
C764 C763 1.400 . S
C764 C767 1.386 . S
H765 C781 0.930 . S
H766 C782 0.931 . S
C767 H755 0.929 . S
C767 C761 1.390 . S
C767 C764 1.386 . S
C768 C763 1.490 . S
C768 C770 1.395 . S
C768 C771 1.403 . S
H769 C775 0.930 . S
C770 H756 0.930 . S
C770 C768 1.395 . S
C770 C773 1.403 . S
C771 C768 1.403 . S
C771 C772 1.524 . S
C771 C775 1.400 . S
C772 H757 0.960 . S
C772 H758 0.960 . S
C772 H759 0.960 . S
C772 C771 1.524 . S
C773 C770 1.403 . S
C773 C774 1.392 . S
C773 C777 1.495 . S
C774 C773 1.392 . S
C774 C775 1.385 . S
C774 C776 1.478 . S
C775 H769 0.930 . S
C775 C771 1.400 . S
C775 C774 1.385 . S
C776 C774 1.478 . S
C776 C778 1.381 . S
C776 C782 1.383 . S
C777 C773 1.495 . S
C777 H783 0.959 . S
C777 H784 0.961 . S
C777 H785 0.960 . S
C778 C776 1.381 . S
C778 C779 1.394 . S
C778 H786 0.930 . S
C779 C778 1.394 . S
C779 C780 1.383 . S
C779 H787 0.929 . S
C780 C779 1.383 . S
C780 C781 1.377 . S
C781 H765 0.930 . S
C781 C780 1.377 . S
C781 C782 1.379 . S
C782 H766 0.931 . S
C782 C776 1.383 . S
C782 C781 1.379 . S
H783 C777 0.959 . S
H784 C777 0.961 . S
H785 C777 0.960 . S
H786 C778 0.930 . S
H787 C779 0.929 . S
H788 C796 0.929 . S
H789 C798 0.930 . S
H790 C800 0.930 . S
H791 C803 0.929 . S
H792 C806 0.930 . S
H793 C808 0.960 . S
H794 C808 0.960 . S
H795 C808 0.960 . S
C796 H788 0.929 . S
C796 C797 1.377 . S
C796 C798 1.384 . S
C797 C796 1.377 . S
C797 C803 1.390 . S
C798 H789 0.930 . S
C798 C796 1.384 . S
C798 C799 1.372 . S
C799 C798 1.372 . S
C799 C800 1.400 . S
C799 C804 1.490 . S
C800 H790 0.930 . S
C800 C799 1.400 . S
C800 C803 1.386 . S
H801 C817 0.930 . S
H802 C818 0.931 . S
C803 H791 0.929 . S
C803 C797 1.390 . S
C803 C800 1.386 . S
C804 C799 1.490 . S
C804 C806 1.395 . S
C804 C807 1.403 . S
H805 C811 0.930 . S
C806 H792 0.930 . S
C806 C804 1.395 . S
C806 C809 1.403 . S
C807 C804 1.403 . S
C807 C808 1.524 . S
C807 C811 1.400 . S
C808 H793 0.960 . S
C808 H794 0.960 . S
C808 H795 0.960 . S
C808 C807 1.524 . S
C809 C806 1.403 . S
C809 C810 1.392 . S
C809 C813 1.495 . S
C810 C809 1.392 . S
C810 C811 1.385 . S
C810 C812 1.478 . S
C811 H805 0.930 . S
C811 C807 1.400 . S
C811 C810 1.385 . S
C812 C810 1.478 . S
C812 C814 1.381 . S
C812 C818 1.383 . S
C813 C809 1.495 . S
C813 H819 0.959 . S
C813 H820 0.961 . S
C813 H821 0.960 . S
C814 C812 1.381 . S
C814 C815 1.394 . S
C814 H822 0.930 . S
C815 C814 1.394 . S
C815 C816 1.383 . S
C815 H823 0.929 . S
C816 C815 1.383 . S
C816 C817 1.377 . S
C817 H801 0.930 . S
C817 C816 1.377 . S
C817 C818 1.379 . S
C818 H802 0.931 . S
C818 C812 1.383 . S
C818 C817 1.379 . S
H819 C813 0.959 . S
H820 C813 0.961 . S
H821 C813 0.960 . S
H822 C814 0.930 . S
H823 C815 0.929 . S
H824 C832 0.929 . S
H825 C834 0.930 . S
H826 C836 0.930 . S
H827 C839 0.929 . S
H828 C842 0.930 . S
H829 C844 0.960 . S
H830 C844 0.960 . S
H831 C844 0.960 . S
C832 H824 0.929 . S
C832 C833 1.377 . S
C832 C834 1.384 . S
C833 C832 1.377 . S
C833 C839 1.390 . S
C834 H825 0.930 . S
C834 C832 1.384 . S
C834 C835 1.372 . S
C835 C834 1.372 . S
C835 C836 1.400 . S
C835 C840 1.490 . S
C836 H826 0.930 . S
C836 C835 1.400 . S
C836 C839 1.386 . S
H837 C853 0.930 . S
H838 C854 0.931 . S
C839 H827 0.929 . S
C839 C833 1.390 . S
C839 C836 1.386 . S
C840 C835 1.490 . S
C840 C842 1.395 . S
C840 C843 1.403 . S
H841 C847 0.930 . S
C842 H828 0.930 . S
C842 C840 1.395 . S
C842 C845 1.403 . S
C843 C840 1.403 . S
C843 C844 1.524 . S
C843 C847 1.400 . S
C844 H829 0.960 . S
C844 H830 0.960 . S
C844 H831 0.960 . S
C844 C843 1.524 . S
C845 C842 1.403 . S
C845 C846 1.392 . S
C845 C849 1.495 . S
C846 C845 1.392 . S
C846 C847 1.385 . S
C846 C848 1.478 . S
C847 H841 0.930 . S
C847 C843 1.400 . S
C847 C846 1.385 . S
C848 C846 1.478 . S
C848 C850 1.381 . S
C848 C854 1.383 . S
C849 C845 1.495 . S
C849 H855 0.959 . S
C849 H856 0.961 . S
C849 H857 0.960 . S
C850 C848 1.381 . S
C850 C851 1.394 . S
C850 H858 0.930 . S
C851 C850 1.394 . S
C851 C852 1.383 . S
C851 H859 0.929 . S
C852 C851 1.383 . S
C852 C853 1.377 . S
C853 H837 0.930 . S
C853 C852 1.377 . S
C853 C854 1.379 . S
C854 H838 0.931 . S
C854 C848 1.383 . S
C854 C853 1.379 . S
H855 C849 0.959 . S
H856 C849 0.961 . S
H857 C849 0.960 . S
H858 C850 0.930 . S
H859 C851 0.929 . S
H860 C868 0.929 . S
H861 C870 0.930 . S
H862 C872 0.930 . S
H863 C875 0.929 . S
H864 C878 0.930 . S
H865 C880 0.960 . S
H866 C880 0.960 . S
H867 C880 0.960 . S
C868 H860 0.929 . S
C868 C869 1.377 . S
C868 C870 1.384 . S
C869 C868 1.377 . S
C869 C875 1.390 . S
C870 H861 0.930 . S
C870 C868 1.384 . S
C870 C871 1.372 . S
C871 C870 1.372 . S
C871 C872 1.400 . S
C871 C876 1.490 . S
C872 H862 0.930 . S
C872 C871 1.400 . S
C872 C875 1.386 . S
H873 C889 0.930 . S
H874 C890 0.931 . S
C875 H863 0.929 . S
C875 C869 1.390 . S
C875 C872 1.386 . S
C876 C871 1.490 . S
C876 C878 1.395 . S
C876 C879 1.403 . S
H877 C883 0.930 . S
C878 H864 0.930 . S
C878 C876 1.395 . S
C878 C881 1.403 . S
C879 C876 1.403 . S
C879 C880 1.524 . S
C879 C883 1.400 . S
C880 H865 0.960 . S
C880 H866 0.960 . S
C880 H867 0.960 . S
C880 C879 1.524 . S
C881 C878 1.403 . S
C881 C882 1.392 . S
C881 C885 1.495 . S
C882 C881 1.392 . S
C882 C883 1.385 . S
C882 C884 1.478 . S
C883 H877 0.930 . S
C883 C879 1.400 . S
C883 C882 1.385 . S
C884 C882 1.478 . S
C884 C886 1.381 . S
C884 C890 1.383 . S
C885 C881 1.495 . S
C885 H891 0.959 . S
C885 H892 0.961 . S
C885 H893 0.960 . S
C886 C884 1.381 . S
C886 C887 1.394 . S
C886 H894 0.930 . S
C887 C886 1.394 . S
C887 C888 1.383 . S
C887 H895 0.929 . S
C888 C887 1.383 . S
C888 C889 1.377 . S
C889 H873 0.930 . S
C889 C888 1.377 . S
C889 C890 1.379 . S
C890 H874 0.931 . S
C890 C884 1.383 . S
C890 C889 1.379 . S
H891 C885 0.959 . S
H892 C885 0.961 . S
H893 C885 0.960 . S
H894 C886 0.930 . S
H895 C887 0.929 . S
H896 C904 0.929 . S
H897 C906 0.930 . S
H898 C908 0.930 . S
H899 C911 0.929 . S
H900 C914 0.930 . S
H901 C916 0.960 . S
H902 C916 0.960 . S
H903 C916 0.960 . S
C904 H896 0.929 . S
C904 C905 1.377 . S
C904 C906 1.384 . S
C905 C904 1.377 . S
C905 C911 1.390 . S
C906 H897 0.930 . S
C906 C904 1.384 . S
C906 C907 1.372 . S
C907 C906 1.372 . S
C907 C908 1.400 . S
C907 C912 1.490 . S
C908 H898 0.930 . S
C908 C907 1.400 . S
C908 C911 1.386 . S
H909 C925 0.930 . S
H910 C926 0.931 . S
C911 H899 0.929 . S
C911 C905 1.390 . S
C911 C908 1.386 . S
C912 C907 1.490 . S
C912 C914 1.395 . S
C912 C915 1.403 . S
H913 C919 0.930 . S
C914 H900 0.930 . S
C914 C912 1.395 . S
C914 C917 1.403 . S
C915 C912 1.403 . S
C915 C916 1.524 . S
C915 C919 1.400 . S
C916 H901 0.960 . S
C916 H902 0.960 . S
C916 H903 0.960 . S
C916 C915 1.524 . S
C917 C914 1.403 . S
C917 C918 1.392 . S
C917 C921 1.495 . S
C918 C917 1.392 . S
C918 C919 1.385 . S
C918 C920 1.478 . S
C919 H913 0.930 . S
C919 C915 1.400 . S
C919 C918 1.385 . S
C920 C918 1.478 . S
C920 C922 1.381 . S
C920 C926 1.383 . S
C921 C917 1.495 . S
C921 H927 0.959 . S
C921 H928 0.961 . S
C921 H929 0.960 . S
C922 C920 1.381 . S
C922 C923 1.394 . S
C922 H930 0.930 . S
C923 C922 1.394 . S
C923 C924 1.383 . S
C923 H931 0.929 . S
C924 C923 1.383 . S
C924 C925 1.377 . S
C925 H909 0.930 . S
C925 C924 1.377 . S
C925 C926 1.379 . S
C926 H910 0.931 . S
C926 C920 1.383 . S
C926 C925 1.379 . S
H927 C921 0.959 . S
H928 C921 0.961 . S
H929 C921 0.960 . S
H930 C922 0.930 . S
H931 C923 0.929 . S
H932 C940 0.929 . S
H933 C942 0.930 . S
H934 C944 0.930 . S
H935 C947 0.929 . S
H936 C950 0.930 . S
H937 C952 0.960 . S
H938 C952 0.960 . S
H939 C952 0.960 . S
C940 H932 0.929 . S
C940 C941 1.377 . S
C940 C942 1.384 . S
C941 C940 1.377 . S
C941 C947 1.390 . S
C942 H933 0.930 . S
C942 C940 1.384 . S
C942 C943 1.372 . S
C943 C942 1.372 . S
C943 C944 1.400 . S
C943 C948 1.490 . S
C944 H934 0.930 . S
C944 C943 1.400 . S
C944 C947 1.386 . S
H945 C961 0.930 . S
H946 C962 0.931 . S
C947 H935 0.929 . S
C947 C941 1.390 . S
C947 C944 1.386 . S
C948 C943 1.490 . S
C948 C950 1.395 . S
C948 C951 1.403 . S
H949 C955 0.930 . S
C950 H936 0.930 . S
C950 C948 1.395 . S
C950 C953 1.403 . S
C951 C948 1.403 . S
C951 C952 1.524 . S
C951 C955 1.400 . S
C952 H937 0.960 . S
C952 H938 0.960 . S
C952 H939 0.960 . S
C952 C951 1.524 . S
C953 C950 1.403 . S
C953 C954 1.392 . S
C953 C957 1.495 . S
C954 C953 1.392 . S
C954 C955 1.385 . S
C954 C956 1.478 . S
C955 H949 0.930 . S
C955 C951 1.400 . S
C955 C954 1.385 . S
C956 C954 1.478 . S
C956 C958 1.381 . S
C956 C962 1.383 . S
C957 C953 1.495 . S
C957 H963 0.959 . S
C957 H964 0.961 . S
C957 H965 0.960 . S
C958 C956 1.381 . S
C958 C959 1.394 . S
C958 H966 0.930 . S
C959 C958 1.394 . S
C959 C960 1.383 . S
C959 H967 0.929 . S
C960 C959 1.383 . S
C960 C961 1.377 . S
C961 H945 0.930 . S
C961 C960 1.377 . S
C961 C962 1.379 . S
C962 H946 0.931 . S
C962 C956 1.383 . S
C962 C961 1.379 . S
H963 C957 0.959 . S
H964 C957 0.961 . S
H965 C957 0.960 . S
H966 C958 0.930 . S
H967 C959 0.929 . S
H968 C976 0.929 . S
H969 C978 0.930 . S
H970 C980 0.930 . S
H971 C983 0.929 . S
H972 C986 0.930 . S
H973 C988 0.960 . S
H974 C988 0.960 . S
H975 C988 0.960 . S
C976 H968 0.929 . S
C976 C977 1.377 . S
C976 C978 1.384 . S
C977 C976 1.377 . S
C977 C983 1.390 . S
C978 H969 0.930 . S
C978 C976 1.384 . S
C978 C979 1.372 . S
C979 C978 1.372 . S
C979 C980 1.400 . S
C979 C984 1.490 . S
C980 H970 0.930 . S
C980 C979 1.400 . S
C980 C983 1.386 . S
H981 C997 0.930 . S
H982 C998 0.931 . S
C983 H971 0.929 . S
C983 C977 1.390 . S
C983 C980 1.386 . S
C984 C979 1.490 . S
C984 C986 1.395 . S
C984 C987 1.403 . S
H985 C991 0.930 . S
C986 H972 0.930 . S
C986 C984 1.395 . S
C986 C989 1.403 . S
C987 C984 1.403 . S
C987 C988 1.524 . S
C987 C991 1.400 . S
C988 H973 0.960 . S
C988 H974 0.960 . S
C988 H975 0.960 . S
C988 C987 1.524 . S
C989 C986 1.403 . S
C989 C990 1.392 . S
C989 C993 1.495 . S
C990 C989 1.392 . S
C990 C991 1.385 . S
C990 C992 1.478 . S
C991 H985 0.930 . S
C991 C987 1.400 . S
C991 C990 1.385 . S
C992 C990 1.478 . S
C992 C994 1.381 . S
C992 C998 1.383 . S
C993 C989 1.495 . S
C993 H999 0.959 . S
C993 H1000 0.961 . S
C993 H1001 0.960 . S
C994 C992 1.381 . S
C994 C995 1.394 . S
C994 H1002 0.930 . S
C995 C994 1.394 . S
C995 C996 1.383 . S
C995 H1003 0.929 . S
C996 C995 1.383 . S
C996 C997 1.377 . S
C997 H981 0.930 . S
C997 C996 1.377 . S
C997 C998 1.379 . S
C998 H982 0.931 . S
C998 C992 1.383 . S
C998 C997 1.379 . S
H999 C993 0.959 . S
H1000 C993 0.961 . S
H1001 C993 0.960 . S
H1002 C994 0.930 . S
H1003 C995 0.929 . S
H1004 C1012 0.929 . S
H1005 C1014 0.930 . S
H1006 C1016 0.930 . S
H1007 C1019 0.930 1_554 S
H1008 C1022 0.930 . S
H1009 C1024 0.960 . S
H1010 C1024 0.960 . S
H1011 C1024 0.960 . S
C1012 H1004 0.929 . S
C1012 C1013 1.399 . S
C1012 C1014 1.384 . S
C1013 C1012 1.399 . S
C1013 C1019 1.387 . S
C1014 H1005 0.930 . S
C1014 C1012 1.384 . S
C1014 C1015 1.372 . S
C1015 C1014 1.372 . S
C1015 C1016 1.400 . S
C1015 C1020 1.490 . S
C1016 H1006 0.930 . S
C1016 C1015 1.400 . S
C1016 C1019 1.385 . S
H1017 C1033 0.930 . S
H1018 C1034 0.931 . S
C1019 H1007 0.930 1_556 S
C1019 C1013 1.387 . S
C1019 C1016 1.385 . S
C1020 C1015 1.490 . S
C1020 C1022 1.395 . S
C1020 C1023 1.403 . S
H1021 C1027 0.930 . S
C1022 H1008 0.930 . S
C1022 C1020 1.395 . S
C1022 C1025 1.403 . S
C1023 C1020 1.403 . S
C1023 C1024 1.524 . S
C1023 C1027 1.400 . S
C1024 H1009 0.960 . S
C1024 H1010 0.960 . S
C1024 H1011 0.960 . S
C1024 C1023 1.524 . S
C1025 C1022 1.403 . S
C1025 C1026 1.392 . S
C1025 C1029 1.495 . S
C1026 C1025 1.392 . S
C1026 C1027 1.385 . S
C1026 C1028 1.478 . S
C1027 H1021 0.930 . S
C1027 C1023 1.400 . S
C1027 C1026 1.385 . S
C1028 C1026 1.478 . S
C1028 C1030 1.381 . S
C1028 C1034 1.383 . S
C1029 C1025 1.495 . S
C1029 H1035 0.959 . S
C1029 H1036 0.961 . S
C1029 H1037 0.960 . S
C1030 C1028 1.381 . S
C1030 C1031 1.394 . S
C1030 H1038 0.930 . S
C1031 C1030 1.394 . S
C1031 C1032 1.383 . S
C1031 H1039 0.929 . S
C1032 C1031 1.383 . S
C1032 C1033 1.377 . S
C1033 H1017 0.930 . S
C1033 C1032 1.377 . S
C1033 C1034 1.379 . S
C1034 H1018 0.931 . S
C1034 C1028 1.383 . S
C1034 C1033 1.379 . S
H1035 C1029 0.959 . S
H1036 C1029 0.961 . S
H1037 C1029 0.960 . S
H1038 C1030 0.930 . S
H1039 C1031 0.929 . S
C185 C7 1.400 . S
C204 C93 1.322 . S
C221 C37 1.316 . S
C240 C104 1.208 . S
C257 C54 1.269 . S
C276 C114 1.249 . S
C312 C126 1.344 . S
C293 C87 1.350 . S
C348 C137 1.284 . S
C329 C30 1.364 . S
C365 C51 1.365 . S
C384 C148 1.321 . S
C401 C84 1.314 . S
C420 C158 1.290 . S
C437 C10 1.278 . S
C456 C170 1.237 . S
C473 C59 1.276 . S
C492 C169 1.279 . S
C528 C136 1.032 . S
C509 C74 1.097 . S
C564 C147 1.206 . S
C545 C18 1.267 . S
C581 C32 1.360 . S
C600 C159 1.330 . S
C636 C103 1.267 . S
C617 C73 1.267 . S
C653 C15 1.368 . S
C672 C115 1.347 . S
C708 C125 1.291 . S
C689 C43 1.287 . S
C744 C92 1.031 . S
C725 C62 1.098 . S
C780 C164 1.424 . S
C761 C21 1.439 . S
C816 C175 1.395 . S
C797 C29 1.392 . S
C833 C52 1.299 . S
C852 C142 1.300 . S
C888 C153 1.336 . S
C869 C81 1.376 . S
C924 C120 1.376 . S
C905 C40 1.402 . S
C941 C65 1.381 . S
C960 C131 1.335 . S
C996 C98 1.292 . S
C977 C76 1.313 . S
C1032 C109 1.399 . S
C1013 C8 1.383 1_556 S
